# Generated by pormake.
# Topology cds-f, (5)-cn, num edge types: 1
# Building blocks:
#     Node 0, Type 0, BuildingBlock: BEQFEK_clean_sbu_0, # of connection points: 5
#     Node 1, Type 0, BuildingBlock: BEQFEK_clean_sbu_0, # of connection points: 5
#     Node 2, Type 0, BuildingBlock: BEQFEK_clean_sbu_0, # of connection points: 5
#     Node 3, Type 0, BuildingBlock: BEQFEK_clean_sbu_0, # of connection points: 5
#     Node 4, Type 0, BuildingBlock: BEQFEK_clean_sbu_0, # of connection points: 5
#     Node 5, Type 0, BuildingBlock: BEQFEK_clean_sbu_0, # of connection points: 5
#     Node 6, Type 0, BuildingBlock: BEQFEK_clean_sbu_0, # of connection points: 5
#     Node 7, Type 0, BuildingBlock: BEQFEK_clean_sbu_0, # of connection points: 5
#     Node 8, Type 0, BuildingBlock: BEQFEK_clean_sbu_0, # of connection points: 5
#     Node 9, Type 0, BuildingBlock: BEQFEK_clean_sbu_0, # of connection points: 5
#     Node 10, Type 0, BuildingBlock: BEQFEK_clean_sbu_0, # of connection points: 5
#     Node 11, Type 0, BuildingBlock: BEQFEK_clean_sbu_0, # of connection points: 5
#     Node 12, Type 0, BuildingBlock: BEQFEK_clean_sbu_0, # of connection points: 5
#     Node 13, Type 0, BuildingBlock: BEQFEK_clean_sbu_0, # of connection points: 5
#     Node 14, Type 0, BuildingBlock: BEQFEK_clean_sbu_0, # of connection points: 5
#     Node 15, Type 0, BuildingBlock: BEQFEK_clean_sbu_0, # of connection points: 5
#     Edge 16, Type (0, 0), BuildingBlock: OJICUG_clean_linker_0, # of connection points: 2
#     Edge 17, Type (0, 0), BuildingBlock: OJICUG_clean_linker_0, # of connection points: 2
#     Edge 18, Type (0, 0), BuildingBlock: OJICUG_clean_linker_0, # of connection points: 2
#     Edge 19, Type (0, 0), BuildingBlock: OJICUG_clean_linker_0, # of connection points: 2
#     Edge 20, Type (0, 0), BuildingBlock: OJICUG_clean_linker_0, # of connection points: 2
#     Edge 21, Type (0, 0), BuildingBlock: OJICUG_clean_linker_0, # of connection points: 2
#     Edge 22, Type (0, 0), BuildingBlock: OJICUG_clean_linker_0, # of connection points: 2
#     Edge 23, Type (0, 0), BuildingBlock: OJICUG_clean_linker_0, # of connection points: 2
#     Edge 24, Type (0, 0), BuildingBlock: OJICUG_clean_linker_0, # of connection points: 2
#     Edge 25, Type (0, 0), BuildingBlock: OJICUG_clean_linker_0, # of connection points: 2
#     Edge 26, Type (0, 0), BuildingBlock: OJICUG_clean_linker_0, # of connection points: 2
#     Edge 27, Type (0, 0), BuildingBlock: OJICUG_clean_linker_0, # of connection points: 2
#     Edge 28, Type (0, 0), BuildingBlock: OJICUG_clean_linker_0, # of connection points: 2
#     Edge 29, Type (0, 0), BuildingBlock: OJICUG_clean_linker_0, # of connection points: 2
#     Edge 30, Type (0, 0), BuildingBlock: OJICUG_clean_linker_0, # of connection points: 2
#     Edge 31, Type (0, 0), BuildingBlock: OJICUG_clean_linker_0, # of connection points: 2
#     Edge 32, Type (0, 0), BuildingBlock: OJICUG_clean_linker_0, # of connection points: 2
#     Edge 33, Type (0, 0), BuildingBlock: OJICUG_clean_linker_0, # of connection points: 2
#     Edge 34, Type (0, 0), BuildingBlock: OJICUG_clean_linker_0, # of connection points: 2
#     Edge 35, Type (0, 0), BuildingBlock: OJICUG_clean_linker_0, # of connection points: 2
#     Edge 36, Type (0, 0), BuildingBlock: OJICUG_clean_linker_0, # of connection points: 2
#     Edge 37, Type (0, 0), BuildingBlock: OJICUG_clean_linker_0, # of connection points: 2
#     Edge 38, Type (0, 0), BuildingBlock: OJICUG_clean_linker_0, # of connection points: 2
#     Edge 39, Type (0, 0), BuildingBlock: OJICUG_clean_linker_0, # of connection points: 2
#     Edge 40, Type (0, 0), BuildingBlock: OJICUG_clean_linker_0, # of connection points: 2
#     Edge 41, Type (0, 0), BuildingBlock: OJICUG_clean_linker_0, # of connection points: 2
#     Edge 42, Type (0, 0), BuildingBlock: OJICUG_clean_linker_0, # of connection points: 2
#     Edge 43, Type (0, 0), BuildingBlock: OJICUG_clean_linker_0, # of connection points: 2
#     Edge 44, Type (0, 0), BuildingBlock: OJICUG_clean_linker_0, # of connection points: 2
#     Edge 45, Type (0, 0), BuildingBlock: OJICUG_clean_linker_0, # of connection points: 2
#     Edge 46, Type (0, 0), BuildingBlock: OJICUG_clean_linker_0, # of connection points: 2
#     Edge 47, Type (0, 0), BuildingBlock: OJICUG_clean_linker_0, # of connection points: 2
#     Edge 48, Type (0, 0), BuildingBlock: OJICUG_clean_linker_0, # of connection points: 2
#     Edge 49, Type (0, 0), BuildingBlock: OJICUG_clean_linker_0, # of connection points: 2
#     Edge 50, Type (0, 0), BuildingBlock: OJICUG_clean_linker_0, # of connection points: 2
#     Edge 51, Type (0, 0), BuildingBlock: OJICUG_clean_linker_0, # of connection points: 2
#     Edge 52, Type (0, 0), BuildingBlock: OJICUG_clean_linker_0, # of connection points: 2
#     Edge 53, Type (0, 0), BuildingBlock: OJICUG_clean_linker_0, # of connection points: 2
#     Edge 54, Type (0, 0), BuildingBlock: OJICUG_clean_linker_0, # of connection points: 2
#     Edge 55, Type (0, 0), BuildingBlock: OJICUG_clean_linker_0, # of connection points: 2
# Relax obj value: 0.090
# Max RMSD: 0.144
# Mean RMSD: 0.099
data_MOF--net-cds-f--node1-BEQFEK_clean_sbu_0--edge1-OJICUG_clean_linker_0
_symmetry_space_group_name_H-M    P1
_symmetry_Int_Tables_number       1
_symmetry_cell_setting            triclinic
loop_
_symmetry_equiv_pos_as_xyz
'x, y, z'
_cell_length_a     31.012488
_cell_length_b     31.07662
_cell_length_c     45.614521
_cell_angle_alpha  90.018701
_cell_angle_beta   94.146686
_cell_angle_gamma 87.713185
loop_
_atom_site_label
_atom_site_type_symbol
_atom_site_fract_x
_atom_site_fract_y
_atom_site_fract_z
_atom_type_partial_charge
Co0 Co 0.29971 0.33398 0.14342 0.0
Co1 Co 0.19897 0.34374 0.14109 0.0
C2 C 0.25145 0.30088 0.19198 0.0
O3 O 0.2869 0.30528 0.1801 0.0
O4 O 0.21537 0.31478 0.17966 0.0
C5 C 0.3894 0.29906 0.14718 0.0
O6 O 0.37603 0.26528 0.16069 0.0
C7 C 0.10912 0.31714 0.14152 0.0
C8 C 0.07357 0.37283 0.11977 0.0
C9 C 0.0679 0.33315 0.13244 0.0
N10 N 0.13774 0.34608 0.13444 0.0
N11 N 0.11626 0.37937 0.12161 0.0
C12 C 0.12159 0.27449 0.15546 0.0
H13 H 0.15422 0.26346 0.14934 0.0
H14 H 0.09758 0.25016 0.14874 0.0
H15 H 0.12283 0.27802 0.17971 0.0
C16 C 0.28031 0.29744 0.08459 0.0
N17 N 0.2675 0.31099 0.11068 0.0
N18 N 0.22519 0.31695 0.10881 0.0
C19 C 0.20979 0.30899 0.08097 0.0
C20 C 0.24438 0.29654 0.06446 0.0
C21 C 0.32666 0.28842 0.07868 0.0
H22 H 0.34365 0.31917 0.07848 0.0
H23 H 0.34255 0.26795 0.09654 0.0
H24 H 0.32959 0.27162 0.05741 0.0
O25 O 0.28737 0.39748 0.14575 0.0
O26 O 0.21583 0.40386 0.14362 0.0
H27 H 0.15808 0.35606 0.07396 0.0
H28 H 0.15858 0.31598 0.04569 0.0
C29 C 0.16449 0.32141 0.06957 0.0
H30 H 0.14143 0.30276 0.08144 0.0
H31 H 0.13079 0.40657 0.11406 0.0
O32 O 0.36237 0.32892 0.13841 0.0
C33 C 0.25257 0.42074 0.14534 0.0
Co34 Co 0.66305 0.28801 0.63077 0.0
Co35 Co 0.65911 0.188 0.6328 0.0
C36 C 0.69949 0.23412 0.68329 0.0
O37 O 0.69168 0.26967 0.6696 0.0
O38 O 0.68889 0.19843 0.6717 0.0
C39 C 0.67613 0.37594 0.64646 0.0
O40 O 0.67538 0.3614 0.67345 0.0
C41 C 0.67498 0.09373 0.63744 0.0
C42 C 0.62441 0.07193 0.60472 0.0
C43 C 0.65744 0.05715 0.62467 0.0
N44 N 0.65314 0.12841 0.62548 0.0
N45 N 0.62293 0.11512 0.60604 0.0
C46 C 0.71317 0.09619 0.65927 0.0
H47 H 0.73086 0.1258 0.6555 0.0
H48 H 0.73535 0.06749 0.65774 0.0
H49 H 0.70169 0.09778 0.68174 0.0
C50 C 0.69537 0.26697 0.57252 0.0
N51 N 0.68459 0.25558 0.59946 0.0
N52 N 0.68697 0.21341 0.60177 0.0
C53 C 0.70153 0.19658 0.57694 0.0
C54 C 0.70662 0.22985 0.55716 0.0
C55 C 0.68821 0.31173 0.56046 0.0
H56 H 0.66206 0.32907 0.57155 0.0
H57 H 0.71842 0.32944 0.56449 0.0
H58 H 0.67918 0.31143 0.5365 0.0
O59 O 0.59991 0.28213 0.63097 0.0
O60 O 0.59847 0.21101 0.63288 0.0
H61 H 0.67956 0.13406 0.56523 0.0
H62 H 0.73351 0.14387 0.5552 0.0
C63 C 0.71022 0.14943 0.57231 0.0
H64 H 0.72357 0.13415 0.59316 0.0
H65 H 0.60133 0.13566 0.5936 0.0
O66 O 0.67264 0.34975 0.62511 0.0
C67 C 0.57899 0.24787 0.63201 0.0
Co68 Co 0.71339 0.66054 0.1385 0.0
Co69 Co 0.81405 0.65576 0.14195 0.0
C70 C 0.76726 0.69578 0.1902 0.0
O71 O 0.73115 0.68921 0.1761 0.0
O72 O 0.80297 0.68425 0.17982 0.0
C73 C 0.62573 0.69903 0.13779 0.0
O74 O 0.64288 0.73436 0.14826 0.0
C75 C 0.90591 0.67807 0.14629 0.0
C76 C 0.93352 0.62716 0.1185 0.0
C77 C 0.94413 0.66298 0.13514 0.0
N78 N 0.87418 0.65235 0.13648 0.0
N79 N 0.89098 0.62182 0.12011 0.0
C80 C 0.89872 0.71783 0.16405 0.0
H81 H 0.86558 0.73179 0.15875 0.0
H82 H 0.92291 0.74208 0.15989 0.0
H83 H 0.9019 0.7092 0.18773 0.0
C84 C 0.72665 0.69177 0.07856 0.0
N85 N 0.74128 0.68217 0.10642 0.0
N86 N 0.78366 0.68386 0.1089 0.0
C87 C 0.79723 0.69687 0.08305 0.0
C88 C 0.76172 0.7015 0.06259 0.0
C89 C 0.68128 0.68427 0.06661 0.0
H90 H 0.66718 0.65858 0.07928 0.0
H91 H 0.66127 0.71439 0.06862 0.0
H92 H 0.68009 0.67459 0.04319 0.0
O93 O 0.72577 0.59823 0.14185 0.0
O94 O 0.79735 0.59451 0.1436 0.0
H95 H 0.86046 0.67269 0.07404 0.0
H96 H 0.84604 0.72516 0.05853 0.0
C97 C 0.84353 0.70404 0.0779 0.0
H98 H 0.85969 0.71925 0.0975 0.0
H99 H 0.87318 0.59773 0.1096 0.0
O100 O 0.65008 0.66675 0.13209 0.0
C101 C 0.76129 0.57626 0.14343 0.0
Co102 Co 0.29837 0.80456 0.6139 0.0
Co103 Co 0.30236 0.70393 0.61474 0.0
C104 C 0.27627 0.75162 0.55971 0.0
O105 O 0.27957 0.78782 0.57271 0.0
O106 O 0.28365 0.71615 0.5735 0.0
C107 C 0.2823 0.89468 0.59862 0.0
O108 O 0.28021 0.88186 0.57112 0.0
C109 C 0.2865 0.61078 0.6093 0.0
C110 C 0.33051 0.5855 0.64616 0.0
C111 C 0.30145 0.57297 0.6236 0.0
N112 N 0.30598 0.64393 0.62293 0.0
N113 N 0.33231 0.62854 0.64483 0.0
C114 C 0.253 0.61593 0.58415 0.0
H115 H 0.23524 0.6475 0.58558 0.0
H116 H 0.22989 0.58955 0.58399 0.0
H117 H 0.26922 0.61512 0.56325 0.0
C118 C 0.25284 0.78926 0.66756 0.0
N119 N 0.26883 0.77541 0.64237 0.0
N120 N 0.26708 0.73331 0.64097 0.0
C121 C 0.24794 0.71913 0.66447 0.0
C122 C 0.23923 0.75388 0.68268 0.0
C123 C 0.25788 0.83415 0.67893 0.0
H124 H 0.29072 0.84488 0.67514 0.0
H125 H 0.23409 0.85612 0.6665 0.0
H126 H 0.2529 0.83668 0.70268 0.0
O127 O 0.36161 0.7926 0.62034 0.0
O128 O 0.36292 0.72132 0.62111 0.0
H129 H 0.2708 0.65657 0.67967 0.0
H130 H 0.21516 0.66953 0.68615 0.0
C131 C 0.2404 0.67272 0.67031 0.0
H132 H 0.23018 0.65641 0.64948 0.0
H133 H 0.35156 0.64753 0.65889 0.0
O134 O 0.28875 0.86704 0.61912 0.0
C135 C 0.38248 0.75652 0.62267 0.0
Co136 Co 0.18755 0.69469 0.88369 0.0
Co137 Co 0.2881 0.69059 0.88214 0.0
C138 C 0.2461 0.72319 0.93482 0.0
O139 O 0.20825 0.71892 0.92251 0.0
O140 O 0.27993 0.71335 0.92162 0.0
C141 C 0.09492 0.72662 0.88127 0.0
O142 O 0.10529 0.76675 0.88589 0.0
C143 C 0.38392 0.70139 0.88638 0.0
C144 C 0.40066 0.66004 0.84905 0.0
C145 C 0.4186 0.68537 0.87134 0.0
N146 N 0.34724 0.68644 0.87316 0.0
N147 N 0.35768 0.6617 0.85099 0.0
C148 C 0.38577 0.72677 0.9143 0.0
H149 H 0.38009 0.76144 0.90892 0.0
H150 H 0.41767 0.72211 0.92676 0.0
H151 H 0.36026 0.71695 0.92837 0.0
C152 C 0.19535 0.73367 0.82482 0.0
N153 N 0.21209 0.72078 0.85165 0.0
N154 N 0.25444 0.72292 0.85277 0.0
C155 C 0.26575 0.73975 0.82744 0.0
C156 C 0.229 0.7458 0.80837 0.0
C157 C 0.1493 0.72768 0.81389 0.0
H158 H 0.13801 0.69707 0.82256 0.0
H159 H 0.12881 0.75445 0.82217 0.0
H160 H 0.14522 0.72746 0.78954 0.0
O161 O 0.20069 0.6323 0.8835 0.0
O162 O 0.27167 0.62955 0.88132 0.0
H163 H 0.32702 0.71952 0.81203 0.0
H164 H 0.31142 0.7748 0.80437 0.0
C165 C 0.31122 0.74873 0.821 0.0
H166 H 0.33003 0.75834 0.8414 0.0
H167 H 0.33533 0.64532 0.83742 0.0
O168 O 0.12426 0.69729 0.87959 0.0
C169 C 0.23612 0.61078 0.8822 0.0
Co170 Co 0.32564 0.30833 0.366 0.0
Co171 Co 0.32815 0.20811 0.36242 0.0
C172 C 0.28776 0.25911 0.31298 0.0
O173 O 0.29587 0.2934 0.32733 0.0
O174 O 0.29858 0.222 0.32355 0.0
C175 C 0.31267 0.39704 0.35065 0.0
O176 O 0.31303 0.38215 0.32371 0.0
C177 C 0.31237 0.11495 0.35752 0.0
C178 C 0.36324 0.0894 0.39014 0.0
C179 C 0.33016 0.07705 0.37028 0.0
N180 N 0.33413 0.148 0.36941 0.0
N181 N 0.3645 0.13247 0.38878 0.0
C182 C 0.27402 0.12027 0.33583 0.0
H183 H 0.25669 0.15159 0.33926 0.0
H184 H 0.2516 0.09363 0.33783 0.0
H185 H 0.28526 0.1201 0.31328 0.0
C186 C 0.29316 0.28867 0.42401 0.0
N187 N 0.30399 0.27709 0.39696 0.0
N188 N 0.30081 0.23529 0.39393 0.0
C189 C 0.28573 0.21909 0.41842 0.0
C190 C 0.28106 0.25219 0.43873 0.0
C191 C 0.30071 0.3324 0.43674 0.0
H192 H 0.32648 0.34814 0.42557 0.0
H193 H 0.27042 0.3526 0.43349 0.0
H194 H 0.3104 0.33042 0.4606 0.0
O195 O 0.38883 0.29685 0.36519 0.0
O196 O 0.38882 0.22576 0.36225 0.0
H197 H 0.30615 0.15408 0.42919 0.0
H198 H 0.25226 0.16893 0.43903 0.0
C199 C 0.27595 0.17272 0.42219 0.0
H200 H 0.26261 0.15947 0.40101 0.0
H201 H 0.38605 0.15141 0.40117 0.0
O202 O 0.31651 0.37079 0.37211 0.0
C203 C 0.40903 0.26061 0.36347 0.0
Co204 Co 0.78923 0.30781 0.88198 0.0
Co205 Co 0.68796 0.31385 0.87692 0.0
C206 C 0.73756 0.2816 0.93176 0.0
O207 O 0.77387 0.28508 0.92068 0.0
O208 O 0.70194 0.29159 0.9172 0.0
C209 C 0.88075 0.29882 0.89943 0.0
O210 O 0.8689 0.30054 0.9265 0.0
C211 C 0.59403 0.30237 0.88093 0.0
C212 C 0.56779 0.3432 0.84356 0.0
C213 C 0.55564 0.31785 0.86627 0.0
N214 N 0.62719 0.31769 0.86715 0.0
N215 N 0.6112 0.34199 0.84489 0.0
C216 C 0.59968 0.27809 0.90937 0.0
H217 H 0.61907 0.29714 0.92568 0.0
H218 H 0.61804 0.24732 0.906 0.0
H219 H 0.5684 0.27158 0.91842 0.0
C220 C 0.77313 0.26316 0.82515 0.0
N221 N 0.75914 0.28045 0.85001 0.0
N222 N 0.71662 0.28066 0.84861 0.0
C223 C 0.70236 0.26203 0.82321 0.0
C224 C 0.73764 0.25077 0.80734 0.0
C225 C 0.81923 0.26245 0.81744 0.0
H226 H 0.83061 0.29586 0.81744 0.0
H227 H 0.83962 0.24394 0.83442 0.0
H228 H 0.82312 0.24758 0.79562 0.0
O229 O 0.7768 0.37095 0.88033 0.0
O230 O 0.70518 0.37433 0.87609 0.0
H231 H 0.64466 0.2911 0.80223 0.0
H232 H 0.65104 0.23431 0.79572 0.0
C233 C 0.65574 0.25987 0.81249 0.0
H234 H 0.63583 0.25324 0.83106 0.0
H235 H 0.63006 0.35873 0.83104 0.0
O236 O 0.85201 0.30002 0.87812 0.0
C237 C 0.74112 0.39278 0.87786 0.0
Co238 Co 0.69215 0.78668 0.38079 0.0
Co239 Co 0.68493 0.68662 0.37807 0.0
C240 C 0.71165 0.73089 0.43431 0.0
O241 O 0.71025 0.76777 0.42191 0.0
O242 O 0.70302 0.69686 0.4198 0.0
C243 C 0.7071 0.87581 0.3964 0.0
O244 O 0.70906 0.86274 0.42387 0.0
C245 C 0.70118 0.59242 0.38374 0.0
C246 C 0.65628 0.56976 0.34767 0.0
C247 C 0.68612 0.55545 0.36995 0.0
N248 N 0.68104 0.6268 0.37012 0.0
N249 N 0.65417 0.61297 0.34869 0.0
C250 C 0.73545 0.59554 0.40836 0.0
H251 H 0.75292 0.62577 0.40638 0.0
H252 H 0.75869 0.56744 0.40841 0.0
H253 H 0.71996 0.59632 0.42955 0.0
C254 C 0.74038 0.76845 0.32811 0.0
N255 N 0.72191 0.75526 0.35223 0.0
N256 N 0.72094 0.713 0.35202 0.0
C257 C 0.73995 0.69794 0.32819 0.0
C258 C 0.75258 0.73257 0.31206 0.0
C259 C 0.74152 0.81455 0.31888 0.0
H260 H 0.70799 0.82857 0.31616 0.0
H261 H 0.75939 0.83291 0.33638 0.0
H262 H 0.75742 0.81784 0.298 0.0
O263 O 0.6287 0.78049 0.37402 0.0
O264 O 0.6249 0.70958 0.37139 0.0
H265 H 0.70713 0.6446 0.30897 0.0
H266 H 0.76331 0.64547 0.30163 0.0
C267 C 0.73991 0.65192 0.31852 0.0
H268 H 0.74838 0.63044 0.33763 0.0
H269 H 0.6343 0.63314 0.33476 0.0
O270 O 0.70144 0.84861 0.37584 0.0
C271 C 0.60664 0.74695 0.37068 0.0
Co272 Co 0.69107 0.66348 0.88585 0.0
Co273 Co 0.79106 0.6591 0.88151 0.0
C274 C 0.75093 0.6893 0.93633 0.0
O275 O 0.71265 0.68578 0.92472 0.0
O276 O 0.78391 0.67979 0.92215 0.0
C277 C 0.6035 0.69921 0.89146 0.0
O278 O 0.62121 0.73311 0.90371 0.0
C279 C 0.88188 0.68531 0.88189 0.0
C280 C 0.90806 0.63557 0.85257 0.0
C281 C 0.91929 0.67127 0.86916 0.0
N282 N 0.84999 0.65924 0.8728 0.0
N283 N 0.86591 0.62966 0.85532 0.0
C284 C 0.87677 0.72084 0.90368 0.0
H285 H 0.85781 0.74817 0.89279 0.0
H286 H 0.90842 0.73204 0.91287 0.0
H287 H 0.85852 0.70959 0.92201 0.0
C288 C 0.69467 0.70915 0.82918 0.0
N289 N 0.71398 0.69256 0.85432 0.0
N290 N 0.75617 0.69112 0.85255 0.0
C291 C 0.76497 0.70695 0.82621 0.0
C292 C 0.72638 0.7188 0.81049 0.0
C293 C 0.64694 0.70904 0.82146 0.0
H294 H 0.63525 0.67621 0.82469 0.0
H295 H 0.63025 0.73115 0.83644 0.0
H296 H 0.63842 0.71944 0.79843 0.0
O297 O 0.70533 0.60065 0.88342 0.0
O298 O 0.77618 0.59797 0.87963 0.0
H299 H 0.81942 0.67234 0.81039 0.0
H300 H 0.80892 0.72489 0.79401 0.0
C301 C 0.80896 0.70613 0.81472 0.0
H302 H 0.83238 0.71988 0.83131 0.0
H303 H 0.84796 0.60525 0.84535 0.0
O304 O 0.62745 0.66844 0.88266 0.0
C305 C 0.74068 0.57919 0.88081 0.0
Co306 Co 0.33669 0.80796 0.36213 0.0
Co307 Co 0.3375 0.70757 0.36185 0.0
C308 C 0.30256 0.7554 0.30975 0.0
O309 O 0.31244 0.79085 0.32208 0.0
O310 O 0.30908 0.71943 0.32292 0.0
C311 C 0.31359 0.89673 0.34651 0.0
O312 O 0.30492 0.88233 0.31975 0.0
C313 C 0.31978 0.61487 0.35845 0.0
C314 C 0.36705 0.58936 0.39343 0.0
C315 C 0.3352 0.57715 0.37259 0.0
N316 N 0.34164 0.64775 0.37048 0.0
N317 N 0.36989 0.63225 0.39127 0.0
C318 C 0.28334 0.62028 0.33525 0.0
H319 H 0.26567 0.6516 0.33803 0.0
H320 H 0.26058 0.59372 0.33617 0.0
H321 H 0.29671 0.62023 0.31333 0.0
C322 C 0.29867 0.79209 0.41921 0.0
N323 N 0.31165 0.77886 0.39298 0.0
N324 N 0.30802 0.73702 0.39094 0.0
C325 C 0.29006 0.72253 0.41481 0.0
C326 C 0.28446 0.75668 0.43411 0.0
C327 C 0.30612 0.83621 0.43128 0.0
H328 H 0.33348 0.85065 0.42103 0.0
H329 H 0.27656 0.85698 0.42628 0.0
H330 H 0.31344 0.83527 0.45544 0.0
O331 O 0.39959 0.79596 0.36453 0.0
O332 O 0.3988 0.72475 0.36256 0.0
H333 H 0.30693 0.65714 0.42701 0.0
H334 H 0.25273 0.67463 0.43468 0.0
C335 C 0.278 0.67682 0.41877 0.0
H336 H 0.26573 0.66342 0.39737 0.0
H337 H 0.39102 0.65108 0.4041 0.0
O338 O 0.32679 0.87053 0.36689 0.0
C339 C 0.41943 0.75942 0.36385 0.0
Co340 Co 0.28809 0.34214 0.88692 0.0
Co341 Co 0.18711 0.34282 0.88451 0.0
C342 C 0.2402 0.31422 0.93838 0.0
O343 O 0.2748 0.32177 0.9262 0.0
O344 O 0.20312 0.31964 0.92468 0.0
C345 C 0.37619 0.30436 0.88935 0.0
O346 O 0.3602 0.26822 0.89774 0.0
C347 C 0.09644 0.31921 0.88832 0.0
C348 C 0.06321 0.36284 0.8549 0.0
C349 C 0.05596 0.33133 0.87523 0.0
N350 N 0.12613 0.34262 0.87624 0.0
N351 N 0.10602 0.3687 0.85637 0.0
C352 C 0.1073 0.28449 0.91065 0.0
H353 H 0.13903 0.26856 0.90676 0.0
H354 H 0.082 0.26016 0.90985 0.0
H355 H 0.10979 0.29909 0.93288 0.0
C356 C 0.27181 0.29739 0.83026 0.0
N357 N 0.2582 0.3131 0.85566 0.0
N358 N 0.2158 0.31179 0.85501 0.0
C359 C 0.20116 0.29388 0.82942 0.0
C360 C 0.2361 0.28442 0.81272 0.0
C361 C 0.31695 0.30159 0.8212 0.0
H362 H 0.33008 0.33229 0.82951 0.0
H363 H 0.33778 0.27461 0.83087 0.0
H364 H 0.31824 0.30099 0.79698 0.0
O365 O 0.27313 0.40381 0.88413 0.0
O366 O 0.20157 0.40495 0.88346 0.0
H367 H 0.13891 0.31845 0.8127 0.0
H368 H 0.15085 0.26334 0.80269 0.0
C369 C 0.15447 0.28743 0.82058 0.0
H370 H 0.13781 0.27635 0.83973 0.0
H371 H 0.1216 0.39051 0.84378 0.0
O372 O 0.35114 0.33719 0.88403 0.0
C373 C 0.23689 0.4245 0.88321 0.0
Co374 Co 0.68291 0.28612 0.37875 0.0
Co375 Co 0.67391 0.18639 0.37441 0.0
C376 C 0.70426 0.22896 0.43087 0.0
O377 O 0.70275 0.26616 0.41905 0.0
O378 O 0.69405 0.19563 0.41608 0.0
C379 C 0.70089 0.3741 0.396 0.0
O380 O 0.70324 0.35979 0.42319 0.0
C381 C 0.6942 0.0934 0.37982 0.0
C382 C 0.64709 0.06763 0.34628 0.0
C383 C 0.6797 0.05536 0.36734 0.0
N384 N 0.67108 0.12646 0.36673 0.0
N385 N 0.64293 0.11084 0.34678 0.0
C386 C 0.73066 0.09877 0.40266 0.0
H387 H 0.74664 0.12945 0.39902 0.0
H388 H 0.75473 0.07141 0.40222 0.0
H389 H 0.71758 0.10012 0.42467 0.0
C390 C 0.73028 0.26942 0.32568 0.0
N391 N 0.71169 0.25523 0.34947 0.0
N392 N 0.70838 0.21325 0.34764 0.0
C393 C 0.72474 0.19942 0.32254 0.0
C394 C 0.73907 0.23452 0.30769 0.0
C395 C 0.73259 0.31613 0.31814 0.0
H396 H 0.69949 0.33129 0.31678 0.0
H397 H 0.75202 0.33245 0.33591 0.0
H398 H 0.74725 0.32098 0.29699 0.0
O399 O 0.61894 0.28035 0.37269 0.0
O400 O 0.61394 0.20957 0.36884 0.0
H401 H 0.68823 0.14805 0.30391 0.0
H402 H 0.74263 0.14925 0.29238 0.0
C403 C 0.72228 0.15435 0.31122 0.0
H404 H 0.73324 0.13126 0.32899 0.0
H405 H 0.62077 0.12973 0.33355 0.0
O406 O 0.69331 0.34811 0.37492 0.0
C407 C 0.59627 0.24721 0.36895 0.0
Co408 Co 0.80268 0.30569 0.13704 0.0
Co409 Co 0.70147 0.3117 0.13476 0.0
C410 C 0.75241 0.27032 0.18549 0.0
O411 O 0.78809 0.27782 0.17454 0.0
O412 O 0.71617 0.2809 0.172 0.0
C413 C 0.89464 0.28745 0.15165 0.0
O414 O 0.88409 0.2787 0.17832 0.0
C415 C 0.60705 0.30213 0.13936 0.0
C416 C 0.58118 0.34446 0.10273 0.0
C417 C 0.56872 0.31816 0.12485 0.0
N418 N 0.64041 0.31773 0.12591 0.0
N419 N 0.62461 0.34321 0.10422 0.0
C420 C 0.61233 0.27686 0.16742 0.0
H421 H 0.63747 0.29116 0.18248 0.0
H422 H 0.62325 0.24333 0.16259 0.0
H423 H 0.5819 0.2766 0.17872 0.0
C424 C 0.78205 0.27663 0.07576 0.0
N425 N 0.7704 0.28561 0.10308 0.0
N426 N 0.72819 0.28384 0.10338 0.0
C427 C 0.71188 0.27073 0.07685 0.0
C428 C 0.74522 0.26679 0.05801 0.0
C429 C 0.82611 0.28485 0.066 0.0
H430 H 0.84043 0.31183 0.07871 0.0
H431 H 0.84735 0.25558 0.07011 0.0
H432 H 0.82499 0.29315 0.04233 0.0
O433 O 0.79223 0.3681 0.14029 0.0
O434 O 0.7206 0.37221 0.13868 0.0
H435 H 0.64705 0.29099 0.06207 0.0
H436 H 0.66211 0.23684 0.05211 0.0
C437 C 0.66529 0.26131 0.06979 0.0
H438 H 0.65089 0.24941 0.08968 0.0
H439 H 0.64362 0.36025 0.09065 0.0
O440 O 0.8651 0.29746 0.13181 0.0
C441 C 0.75691 0.39021 0.14059 0.0
Co442 Co 0.65392 0.78839 0.63304 0.0
Co443 Co 0.65047 0.68825 0.6329 0.0
C444 C 0.68595 0.73286 0.6857 0.0
O445 O 0.67826 0.76922 0.67303 0.0
O446 O 0.67784 0.69774 0.67244 0.0
C447 C 0.67527 0.87568 0.64893 0.0
O448 O 0.68152 0.86102 0.67597 0.0
C449 C 0.66802 0.59424 0.63692 0.0
C450 C 0.62038 0.57178 0.60243 0.0
C451 C 0.65247 0.55746 0.62323 0.0
N452 N 0.646 0.62863 0.62469 0.0
N453 N 0.61751 0.61495 0.60419 0.0
C454 C 0.70474 0.5972 0.65987 0.0
H455 H 0.72224 0.62712 0.65675 0.0
H456 H 0.72755 0.56887 0.659 0.0
H457 H 0.69166 0.5985 0.68188 0.0
C458 C 0.69094 0.7693 0.57573 0.0
N459 N 0.67823 0.75701 0.60202 0.0
N460 N 0.68066 0.7148 0.60366 0.0
C461 C 0.69739 0.69885 0.5793 0.0
C462 C 0.70365 0.73272 0.56025 0.0
C463 C 0.68429 0.81436 0.56413 0.0
H464 H 0.65677 0.83094 0.57424 0.0
H465 H 0.71391 0.83239 0.56981 0.0
H466 H 0.67756 0.81475 0.53993 0.0
O467 O 0.5908 0.78231 0.63069 0.0
O468 O 0.5894 0.71108 0.6315 0.0
H469 H 0.67744 0.63607 0.56634 0.0
H470 H 0.732 0.64717 0.55824 0.0
C471 C 0.70734 0.65194 0.57452 0.0
H472 H 0.71954 0.63649 0.59558 0.0
H473 H 0.59622 0.6352 0.59129 0.0
O474 O 0.66428 0.85008 0.62824 0.0
C475 C 0.56985 0.74795 0.63061 0.0
Co476 Co 0.21024 0.69071 0.13729 0.0
Co477 Co 0.31129 0.68615 0.1378 0.0
C478 C 0.26878 0.72536 0.18734 0.0
O479 O 0.2318 0.71677 0.17522 0.0
O480 O 0.30359 0.71641 0.17504 0.0
C481 C 0.12295 0.70362 0.15348 0.0
O482 O 0.14097 0.70495 0.18042 0.0
C483 C 0.40706 0.69695 0.13902 0.0
C484 C 0.42229 0.6492 0.10493 0.0
C485 C 0.44098 0.6787 0.12418 0.0
N486 N 0.37011 0.67922 0.12855 0.0
N487 N 0.37965 0.65068 0.1083 0.0
C488 C 0.40992 0.72817 0.164 0.0
H489 H 0.38366 0.72352 0.17872 0.0
H490 H 0.40646 0.76145 0.15508 0.0
H491 H 0.44154 0.72424 0.17693 0.0
C492 C 0.22103 0.72325 0.07708 0.0
N493 N 0.2367 0.71255 0.10455 0.0
N494 N 0.27897 0.71498 0.10636 0.0
C495 C 0.29138 0.73023 0.08082 0.0
C496 C 0.2553 0.73484 0.0609 0.0
C497 C 0.17556 0.71547 0.06551 0.0
H498 H 0.16137 0.69052 0.07878 0.0
H499 H 0.15573 0.74584 0.06679 0.0
H500 H 0.17434 0.70473 0.04229 0.0
O501 O 0.22137 0.62844 0.13983 0.0
O502 O 0.29295 0.62531 0.14131 0.0
H503 H 0.35522 0.71159 0.0692 0.0
H504 H 0.33754 0.76539 0.05814 0.0
C505 C 0.33695 0.74092 0.07581 0.0
H506 H 0.35321 0.75337 0.09638 0.0
H507 H 0.35686 0.63205 0.09679 0.0
O508 O 0.14684 0.69969 0.13208 0.0
C509 C 0.25707 0.60678 0.14162 0.0
Co510 Co 0.30684 0.30315 0.61705 0.0
Co511 Co 0.31181 0.20268 0.62086 0.0
C512 C 0.28224 0.248 0.56486 0.0
O513 O 0.28565 0.2848 0.57693 0.0
O514 O 0.29118 0.2134 0.57937 0.0
C515 C 0.28911 0.39216 0.59903 0.0
O516 O 0.28646 0.37743 0.57199 0.0
C517 C 0.29139 0.11133 0.61556 0.0
C518 C 0.33685 0.08235 0.6503 0.0
C519 C 0.30539 0.07235 0.62853 0.0
N520 N 0.31375 0.14276 0.62904 0.0
N521 N 0.34087 0.12524 0.64974 0.0
C522 C 0.25611 0.11923 0.59183 0.0
H523 H 0.23941 0.15092 0.59515 0.0
H524 H 0.23232 0.09345 0.59151 0.0
H525 H 0.27049 0.11993 0.57026 0.0
C526 C 0.26308 0.29175 0.67176 0.0
N527 N 0.27878 0.27565 0.64708 0.0
N528 N 0.27879 0.23339 0.64798 0.0
C529 C 0.26203 0.22118 0.673 0.0
C530 C 0.25188 0.2577 0.68915 0.0
C531 C 0.26617 0.33811 0.68043 0.0
H532 H 0.29865 0.34934 0.67615 0.0
H533 H 0.24179 0.35773 0.66669 0.0
H534 H 0.26092 0.34349 0.70393 0.0
O535 O 0.37038 0.29091 0.62248 0.0
O536 O 0.37254 0.21964 0.62578 0.0
H537 H 0.29048 0.16234 0.691 0.0
H538 H 0.23514 0.17279 0.69949 0.0
C539 C 0.25832 0.17535 0.68219 0.0
H540 H 0.2473 0.15573 0.66299 0.0
H541 H 0.36232 0.14259 0.66338 0.0
O542 O 0.297 0.36608 0.62037 0.0
C543 C 0.39167 0.25511 0.62578 0.0
C544 C 0.97393 0.28523 0.16764 0.0
C545 C 0.94038 0.29251 0.14557 0.0
H546 H 0.041 0.29244 0.18083 0.0
C547 C 0.95043 0.30874 0.11821 0.0
H548 H 0.96724 0.27275 0.18894 0.0
C549 C 0.99246 0.32008 0.11367 0.0
C550 C 0.02553 0.31473 0.13615 0.0
H551 H 0.92548 0.31456 0.10063 0.0
H552 H -0.00112 0.33422 0.0928 0.0
C553 C 0.01624 0.29619 0.16294 0.0
C554 C 0.67798 -0.00362 0.65979 0.0
C555 C 0.66836 0.01129 0.6309 0.0
H556 H 0.68799 0.94151 0.68823 0.0
C557 C 0.66453 0.9814 0.6079 0.0
H558 H 0.68007 0.01864 0.67804 0.0
C559 C 0.66873 0.93737 0.6137 0.0
C560 C 0.67643 0.92224 0.64271 0.0
H561 H 0.65717 0.99208 0.58542 0.0
H562 H 0.66451 0.91521 0.59547 0.0
C563 C 0.6821 0.95217 0.66564 0.0
C564 C 0.00499 0.69234 0.16725 0.0
C565 C 0.98793 0.67973 0.13937 0.0
H566 H 0.06143 0.71007 0.19366 0.0
C567 C 0.01448 0.6791 0.11575 0.0
H568 H 0.98535 0.69239 0.18593 0.0
C569 C 0.05781 0.68934 0.12006 0.0
C570 C 0.07569 0.6997 0.14825 0.0
H571 H 0.00196 0.66959 0.09401 0.0
H572 H 0.07768 0.68728 0.10149 0.0
C573 C 0.04861 0.70217 0.17168 0.0
C574 C 0.28683 0.95395 0.63552 0.0
C575 C 0.28235 0.941 0.60596 0.0
H576 H 0.29729 0.00588 0.66565 0.0
C577 C 0.28134 0.97245 0.58376 0.0
H578 H 0.28749 0.93061 0.6532 0.0
C579 C 0.28683 0.01572 0.59099 0.0
C580 C 0.29322 0.02822 0.62054 0.0
H581 H 0.27804 0.96348 0.56078 0.0
H582 H 0.28835 0.03885 0.57341 0.0
C583 C 0.29245 -0.00294 0.6427 0.0
C584 C -0.00172 0.65661 0.87561 0.0
C585 C 0.96355 0.68691 0.87342 0.0
H586 H 0.06646 0.64533 0.88002 0.0
C587 C 0.97195 0.73105 0.87383 0.0
H588 H 0.99274 0.62239 0.87532 0.0
C589 C 0.01468 0.74451 0.87667 0.0
C590 C 0.0494 0.71393 0.87878 0.0
H591 H 0.94568 0.75506 0.87127 0.0
H592 H 0.0205 0.77864 0.87675 0.0
C593 C 0.0406 0.66988 0.87831 0.0
C594 C 0.32053 0.95805 0.38157 0.0
C595 C 0.31212 0.9434 0.35266 0.0
H596 H 0.3322 0.01202 0.40965 0.0
C597 C 0.30532 0.97367 0.32973 0.0
H598 H 0.32556 0.93563 0.39979 0.0
C599 C 0.3091 0.01764 0.33546 0.0
C600 C 0.31944 0.03195 0.36423 0.0
H601 H 0.29887 0.96335 0.30722 0.0
H602 H 0.30621 0.03998 0.31718 0.0
C603 C 0.32431 0.00182 0.38725 0.0
C604 C 0.93837 0.30514 0.86431 0.0
C605 C 0.92683 0.30125 0.89342 0.0
H606 H 0.98846 0.31758 0.83594 0.0
C607 C 0.95924 0.30326 0.91653 0.0
H608 H 0.91429 0.3036 0.84596 0.0
C609 C 0.00194 0.31101 0.91068 0.0
C610 C 0.01285 0.31687 0.88163 0.0
H611 H 0.95139 0.30044 0.93918 0.0
H612 H 0.02577 0.3146 0.92896 0.0
C613 C 0.98084 0.3132 0.85853 0.0
C614 C 0.69307 0.97925 0.3527 0.0
C615 C 0.69284 0.01035 0.37499 0.0
H616 H 0.69874 0.91254 0.34191 0.0
C617 C 0.70086 -0.00276 0.40441 0.0
H618 H 0.68699 0.98854 0.32983 0.0
C619 C 0.7074 0.95353 0.41145 0.0
C620 C 0.70594 0.92225 0.38916 0.0
H621 H 0.69986 0.02039 0.4221 0.0
H622 H 0.71195 0.94419 0.43437 0.0
C623 C 0.69984 0.93572 0.35967 0.0
C624 C 0.29409 0.48872 0.14555 0.0
C625 C 0.25442 0.46834 0.14576 0.0
H626 H 0.32618 0.54841 0.14404 0.0
C627 C 0.21597 0.49395 0.14539 0.0
H628 H 0.32431 0.46996 0.1458 0.0
C629 C 0.21703 0.53874 0.14436 0.0
C630 C 0.25656 0.5592 0.14367 0.0
H631 H 0.18481 0.47944 0.14558 0.0
H632 H 0.18666 0.55729 0.14385 0.0
C633 C 0.29515 0.5337 0.14451 0.0
C634 C 0.46296 0.21441 0.63204 0.0
C635 C 0.43962 0.25405 0.62871 0.0
H636 H 0.5248 0.18141 0.6357 0.0
C637 C 0.46261 0.29203 0.62737 0.0
H638 H 0.44642 0.18448 0.63324 0.0
C639 C 0.50791 0.29025 0.62883 0.0
C640 C 0.53112 0.25045 0.63162 0.0
H641 H 0.44565 0.3231 0.62484 0.0
H642 H 0.52466 0.32001 0.6274 0.0
C643 C 0.50806 0.21263 0.63345 0.0
C644 C 0.71959 0.46317 0.14241 0.0
C645 C 0.75811 0.43776 0.14253 0.0
H646 H 0.69035 0.52659 0.14274 0.0
C647 C 0.79783 0.4583 0.14388 0.0
H648 H 0.68844 0.44845 0.14143 0.0
C649 C 0.79896 0.50321 0.14462 0.0
C650 C 0.76039 0.52862 0.14405 0.0
H651 H 0.82816 0.43974 0.14404 0.0
H652 H 0.83008 0.51796 0.14529 0.0
C653 C 0.72072 0.50805 0.14318 0.0
C654 C 0.49853 0.71284 0.6298 0.0
C655 C 0.52193 0.75061 0.62939 0.0
H656 H 0.43655 0.68509 0.62826 0.0
C657 C 0.49904 0.79066 0.62767 0.0
H658 H 0.51502 0.68144 0.63121 0.0
C659 C 0.45375 0.79279 0.62598 0.0
C660 C 0.43042 0.75491 0.62599 0.0
H661 H 0.51605 0.82041 0.62738 0.0
H662 H 0.43709 0.82408 0.62432 0.0
C663 C 0.4534 0.71496 0.62815 0.0
C664 C 0.19716 0.49656 0.88273 0.0
C665 C 0.23624 0.47216 0.88228 0.0
H666 H 0.1664 0.55941 0.88308 0.0
C667 C 0.27513 0.49378 0.88138 0.0
H668 H 0.16663 0.48096 0.88341 0.0
C669 C 0.27502 0.53869 0.88117 0.0
C670 C 0.23603 0.56313 0.88191 0.0
H671 H 0.30587 0.47605 0.88096 0.0
H672 H 0.30562 0.55419 0.8806 0.0
C673 C 0.19705 0.54157 0.88257 0.0
C674 C 0.52374 0.21497 0.36154 0.0
C675 C 0.54836 0.25176 0.36588 0.0
H676 H 0.46102 0.18892 0.35736 0.0
C677 C 0.52665 0.29209 0.36835 0.0
H678 H 0.53924 0.18337 0.35943 0.0
C679 C 0.48134 0.2953 0.36712 0.0
C680 C 0.45689 0.25825 0.36345 0.0
H681 H 0.54462 0.32107 0.37169 0.0
H682 H 0.46555 0.3267 0.3695 0.0
C683 C 0.4787 0.21816 0.36037 0.0
C684 C 0.70174 0.5099 0.87864 0.0
C685 C 0.74074 0.53152 0.8794 0.0
H686 H 0.67123 0.44939 0.87739 0.0
C687 C 0.7799 0.50711 0.87903 0.0
H688 H 0.67098 0.52765 0.8788 0.0
C689 C 0.78008 0.46212 0.8783 0.0
C690 C 0.74109 0.4405 0.87779 0.0
H691 H 0.81057 0.52269 0.87955 0.0
H692 H 0.81084 0.44434 0.87828 0.0
C693 C 0.7019 0.46494 0.87778 0.0
C694 C 0.4915 0.79415 0.36713 0.0
C695 C 0.46732 0.7568 0.36463 0.0
H696 H 0.55447 0.82049 0.37085 0.0
C697 C 0.48937 0.71657 0.36305 0.0
H698 H 0.47554 0.82568 0.36831 0.0
C699 C 0.53446 0.71363 0.36438 0.0
C700 C 0.55875 0.75084 0.3674 0.0
H701 H 0.47185 0.68713 0.36099 0.0
H702 H 0.55024 0.68198 0.36341 0.0
C703 C 0.53676 0.7912 0.36851 0.0
C704 C 0.2747 0.32273 0.01884 0.0
C705 C 0.24504 0.29719 0.03194 0.0
H706 H 0.29709 0.34685 0.97909 0.0
C707 C 0.21499 0.27481 0.01379 0.0
H708 H 0.29745 0.34141 0.0321 0.0
C709 C 0.21347 0.27953 0.98313 0.0
C710 C 0.24316 0.30534 0.97024 0.0
H711 H 0.19205 0.25453 0.02333 0.0
H712 H 0.18909 0.26326 0.96955 0.0
C713 C 0.2743 0.32611 0.98839 0.0
C714 C 0.73449 0.25626 0.47964 0.0
C715 C 0.71145 0.22534 0.46316 0.0
H716 H 0.75281 0.28064 0.52258 0.0
C717 C 0.69049 0.19359 0.47801 0.0
H718 H 0.75099 0.2811 0.46874 0.0
C719 C 0.69005 0.19442 0.50854 0.0
C720 C 0.71183 0.22609 0.5251 0.0
H721 H 0.67191 0.16971 0.46593 0.0
H722 H 0.67057 0.17154 0.51888 0.0
C723 C 0.73524 0.25619 0.51039 0.0
C724 C 0.72621 0.72358 0.98239 0.0
C725 C 0.75708 0.69862 0.96808 0.0
H726 H 0.70476 0.7459 0.02364 0.0
C727 C 0.79165 0.67821 0.98492 0.0
H728 H 0.69926 0.73972 0.96988 0.0
C729 C 0.79377 0.68027 0.01553 0.0
C730 C 0.76226 0.70408 0.03005 0.0
H731 H 0.81557 0.65822 0.97453 0.0
H732 H 0.8189 0.66118 0.02772 0.0
C733 C 0.72922 0.72688 0.0131 0.0
C734 C 0.29589 0.71881 0.48247 0.0
C735 C 0.27693 0.75354 0.46582 0.0
H736 H 0.30891 0.69029 0.5248 0.0
C737 C 0.25391 0.7862 0.48017 0.0
H738 H 0.31534 0.69393 0.47256 0.0
C739 C 0.25192 0.78513 0.51078 0.0
C740 C 0.27171 0.75062 0.52729 0.0
H741 H 0.2386 0.81318 0.46787 0.0
H742 H 0.23577 0.81163 0.52157 0.0
C743 C 0.29255 0.71692 0.51267 0.0
C744 C 0.21891 0.75616 0.9807 0.0
C745 C 0.25104 0.73275 0.96653 0.0
H746 H 0.19618 0.7771 0.02195 0.0
C747 C 0.28623 0.71366 0.98347 0.0
H748 H 0.1914 0.77116 0.9681 0.0
C749 C 0.28795 0.71547 0.01399 0.0
C750 C 0.25544 0.73785 0.02842 0.0
H751 H 0.3111 0.69471 0.97326 0.0
H752 H 0.31363 0.6971 0.02612 0.0
C753 C 0.22149 0.75928 0.01144 0.0
C754 C 0.25243 0.28016 0.48568 0.0
C755 C 0.27515 0.24802 0.47066 0.0
H756 H 0.23704 0.30573 0.52759 0.0
C757 C 0.29571 0.21359 0.48686 0.0
H758 H 0.23571 0.30676 0.47378 0.0
C759 C 0.29489 0.21203 0.51736 0.0
C760 C 0.27481 0.24567 0.53255 0.0
H761 H 0.31463 0.18893 0.4763 0.0
H762 H 0.31264 0.18592 0.52919 0.0
C763 C 0.25285 0.27939 0.51641 0.0
C764 C 0.77164 0.24317 0.00926 0.0
C765 C 0.74068 0.26522 0.02534 0.0
H766 H 0.79546 0.23145 0.96675 0.0
C767 C 0.70696 0.28922 0.00996 0.0
H768 H 0.79779 0.22411 0.02049 0.0
C769 C 0.70463 0.29194 0.97941 0.0
C770 C 0.73685 0.27201 0.96344 0.0
H771 H 0.68347 0.30799 0.02146 0.0
H772 H 0.67899 0.31201 0.96846 0.0
C773 C 0.77018 0.24714 0.97857 0.0
C774 C 0.69406 0.69647 0.48086 0.0
C775 C 0.71595 0.7283 0.46676 0.0
H776 H 0.67083 0.67453 0.52071 0.0
C777 C 0.73688 0.75994 0.48391 0.0
H778 H 0.67689 0.6721 0.46828 0.0
C779 C 0.735 0.76016 0.51455 0.0
C780 C 0.71096 0.72965 0.52841 0.0
H781 H 0.75391 0.78495 0.47359 0.0
H782 H 0.75121 0.78497 0.52728 0.0
C783 C 0.69092 0.69763 0.51116 0.0
C784 C 0.49316 0.34711 0.12685 0.0
C785 C 0.52335 0.31254 0.13163 0.0
H786 H 0.42761 0.37002 0.12812 0.0
C787 C 0.50917 0.27293 0.14135 0.0
H788 H 0.50303 0.37796 0.1192 0.0
C789 C 0.46568 0.26838 0.14677 0.0
C790 C 0.43559 0.30316 0.14204 0.0
H791 H 0.53137 0.24523 0.14416 0.0
H792 H 0.45554 0.23752 0.15419 0.0
C793 C 0.44987 0.34251 0.13198 0.0
C794 C 0.67734 0.45238 0.66395 0.0
C795 C 0.67567 0.42274 0.64064 0.0
H796 H 0.67098 0.51848 0.67678 0.0
C797 C 0.67023 0.43826 0.61162 0.0
H798 H 0.68143 0.44143 0.68656 0.0
C799 C 0.66438 0.48231 0.60608 0.0
C800 C 0.66447 0.51179 0.62938 0.0
H801 H 0.66891 0.41633 0.59314 0.0
H802 H 0.6588 0.49328 0.58353 0.0
C803 C 0.67176 0.49656 0.65836 0.0
C804 C 0.56127 0.65516 0.12626 0.0
C805 C 0.57831 0.69513 0.13407 0.0
H806 H 0.50491 0.61884 0.1176 0.0
C807 C 0.54969 0.73031 0.13866 0.0
H808 H 0.58229 0.62731 0.12255 0.0
C809 C 0.50486 0.72542 0.13558 0.0
C810 C 0.48804 0.68514 0.12825 0.0
H811 H 0.56187 0.76161 0.14443 0.0
H812 H 0.48358 0.75332 0.13838 0.0
C813 C 0.51679 0.65027 0.12341 0.0
C814 C 0.28932 0.45402 0.63393 0.0
C815 C 0.28681 0.43897 0.60483 0.0
H816 H 0.29531 0.50835 0.66245 0.0
C817 C 0.2849 0.46898 0.58166 0.0
H818 H 0.29052 0.43185 0.65231 0.0
C819 C 0.28759 0.51304 0.58755 0.0
C820 C 0.29196 0.52774 0.6167 0.0
H821 H 0.28304 0.45837 0.559 0.0
H822 H 0.28853 0.53514 0.56931 0.0
C823 C 0.29203 0.49787 0.63977 0.0
C824 C 0.52799 0.73153 0.89309 0.0
C825 C 0.556 0.69633 0.88731 0.0
H826 H 0.4623 0.75624 0.89193 0.0
C827 C 0.53828 0.6578 0.87698 0.0
H828 H 0.54073 0.76177 0.90084 0.0
C829 C 0.49371 0.65451 0.87233 0.0
C830 C 0.46561 0.68957 0.87794 0.0
H831 H 0.55883 0.62998 0.87236 0.0
H832 H 0.48122 0.62428 0.86432 0.0
C833 C 0.4831 0.72825 0.88827 0.0
C834 C 0.31106 0.47327 0.33264 0.0
C835 C 0.3129 0.44388 0.35616 0.0
H836 H 0.31707 0.53866 0.31932 0.0
C837 C 0.31819 0.45944 0.38508 0.0
H838 H 0.30709 0.46227 0.31011 0.0
C839 C 0.32369 0.50316 0.39029 0.0
C840 C 0.32344 0.53228 0.36677 0.0
H841 H 0.31962 0.43769 0.40371 0.0
H842 H 0.32914 0.51409 0.41277 0.0
C843 C 0.31635 0.51712 0.3379 0.0
C844 C 0.45107 0.27068 0.88723 0.0
C845 C 0.42273 0.30718 0.88483 0.0
H846 H 0.51562 0.24513 0.88269 0.0
C847 C 0.43895 0.34693 0.8772 0.0
H848 H 0.43944 0.23954 0.89284 0.0
C849 C 0.48229 0.3501 0.87174 0.0
C850 C 0.51058 0.31374 0.87395 0.0
H851 H 0.41811 0.37574 0.87517 0.0
H852 H 0.49368 0.38117 0.86571 0.0
C853 C 0.49469 0.27391 0.8817 0.0
C854 C 0.70478 0.45099 0.41265 0.0
C855 C 0.70269 0.42066 0.38975 0.0
H856 H 0.70073 0.51765 0.42446 0.0
C857 C 0.69933 0.43538 0.36051 0.0
H858 H 0.70729 0.44067 0.4354 0.0
C859 C 0.69593 0.47934 0.3543 0.0
C860 C 0.69621 0.50964 0.37713 0.0
H861 H 0.69793 0.41295 0.34232 0.0
H862 H 0.69197 0.48964 0.33154 0.0
C863 C 0.70147 0.49514 0.40638 0.0
C864 C 0.29039 0.23875 0.26037 0.0
C865 C 0.27103 0.26339 0.28204 0.0
H866 H 0.29975 0.23201 0.21443 0.0
C867 C 0.2406 0.2965 0.27346 0.0
H868 H 0.3143 0.21334 0.26648 0.0
C869 C 0.23126 0.30622 0.2437 0.0
C870 C 0.25341 0.28398 0.2222 0.0
H871 H 0.22544 0.31603 0.28983 0.0
H872 H 0.2092 0.33321 0.23767 0.0
C873 C 0.28223 0.24948 0.23068 0.0
C874 C 0.72007 0.20451 0.76368 0.0
C875 C 0.73573 0.24303 0.77541 0.0
H876 H 0.69713 0.171 0.72496 0.0
C877 C 0.74424 0.27663 0.75643 0.0
H878 H 0.71313 0.17836 0.77809 0.0
C879 C 0.73468 0.27282 0.72619 0.0
C880 C 0.71672 0.23516 0.71439 0.0
H881 H 0.75605 0.30674 0.76517 0.0
H882 H 0.7397 0.30006 0.7122 0.0
C883 C 0.71098 0.20042 0.73334 0.0
C884 C 0.80224 0.70388 0.24114 0.0
C885 C 0.76702 0.71276 0.22052 0.0
H886 H 0.82506 0.70318 0.28679 0.0
C887 C 0.72943 0.73355 0.23004 0.0
H888 H 0.83158 0.68775 0.23452 0.0
C889 C 0.72611 0.74284 0.25976 0.0
C890 C 0.76013 0.73118 0.28051 0.0
H891 H 0.70183 0.741 0.2147 0.0
H892 H 0.696 0.75685 0.26677 0.0
C893 C 0.79862 0.71266 0.27099 0.0
C894 C 0.20192 0.7769 0.75902 0.0
C895 C 0.22897 0.74767 0.77598 0.0
H896 H 0.18339 0.80146 0.71557 0.0
C897 C 0.25721 0.71952 0.76189 0.0
H898 H 0.17965 0.79871 0.76946 0.0
C899 C 0.26015 0.72182 0.73172 0.0
C900 C 0.23369 0.7512 0.71459 0.0
H901 H 0.27747 0.6957 0.77424 0.0
H902 H 0.28398 0.70105 0.72196 0.0
C903 C 0.20416 0.77855 0.72839 0.0
C904 C 0.72954 0.6897 0.75992 0.0
C905 C 0.71994 0.72434 0.77837 0.0
H906 H 0.72643 0.6653 0.71599 0.0
C907 C 0.70201 0.76294 0.76612 0.0
H908 H 0.74322 0.65957 0.76908 0.0
C909 C 0.69294 0.76655 0.73569 0.0
C910 C 0.70092 0.73126 0.71722 0.0
H911 H 0.69428 0.7899 0.78013 0.0
H912 H 0.67803 0.79632 0.72681 0.0
C913 C 0.71987 0.693 0.72962 0.0
C914 C 0.24587 0.72196 0.23829 0.0
C915 C 0.27191 0.74016 0.218 0.0
H916 H 0.23595 0.71205 0.2838 0.0
C917 C 0.3044 0.7679 0.22802 0.0
H918 H 0.22091 0.7001 0.23108 0.0
C919 C 0.31191 0.7759 0.25807 0.0
C920 C 0.28806 0.75499 0.27843 0.0
H921 H 0.32494 0.7821 0.21272 0.0
H922 H 0.33835 0.79592 0.26548 0.0
C923 C 0.25446 0.72868 0.26836 0.0
C924 C 0.21121 0.28858 0.73027 0.0
C925 C 0.24313 0.25973 0.72064 0.0
H926 H 0.18434 0.31957 0.76713 0.0
C927 C 0.2695 0.23571 0.74154 0.0
H928 H 0.19045 0.30737 0.71454 0.0
C929 C 0.26538 0.24191 0.77155 0.0
C930 C 0.23525 0.27266 0.78122 0.0
H931 H 0.2948 0.21367 0.73477 0.0
H932 H 0.28707 0.22406 0.78725 0.0
C933 C 0.20746 0.29522 0.76033 0.0
C934 C 0.78409 0.25273 0.26638 0.0
C935 C 0.74585 0.23688 0.27604 0.0
H936 H 0.81669 0.27488 0.22969 0.0
C937 C 0.71192 0.2273 0.25537 0.0
H938 H 0.81053 0.26042 0.28209 0.0
C939 C 0.71513 0.23583 0.22559 0.0
C940 C 0.7525 0.25379 0.2159 0.0
H941 H 0.68202 0.21528 0.26243 0.0
H942 H 0.68765 0.2299 0.21029 0.0
C943 C 0.78758 0.2608 0.23646 0.0
loop_
_geom_bond_atom_site_label_1
_geom_bond_atom_site_label_2
_geom_bond_distance
_geom_bond_site_symmetry_2
_ccdc_geom_bond_type
Co0 O3 1.970 . S
Co0 N17 1.989 . S
Co0 O25 1.967 . S
Co0 O32 1.920 . S
Co1 O4 1.966 . S
Co1 N10 2.022 . S
Co1 N18 1.993 . S
Co1 O26 1.941 . S
C2 O3 1.258 . S
C2 O4 1.263 . S
O3 Co0 1.970 . S
O3 C2 1.258 . S
O4 Co1 1.966 . S
O4 C2 1.263 . S
C5 O6 1.235 . S
C5 O32 1.289 . S
O6 C5 1.235 . S
C7 C9 1.400 . S
C7 N10 1.351 . S
C7 C12 1.501 . S
C8 C9 1.387 . S
C8 N11 1.341 . S
C9 C7 1.400 . S
C9 C8 1.387 . S
N10 Co1 2.022 . S
N10 C7 1.351 . S
N10 N11 1.365 . S
N11 C8 1.341 . S
N11 N10 1.365 . S
N11 H31 0.862 . S
C12 C7 1.501 . S
C12 H13 0.961 . S
C12 H14 0.961 . S
C12 H15 0.960 . S
H13 C12 0.961 . S
H14 C12 0.961 . S
H15 C12 0.960 . S
C16 N17 1.342 . S
C16 C20 1.401 . S
C16 C21 1.499 . S
N17 Co0 1.989 . S
N17 C16 1.342 . S
N17 N18 1.388 . S
N18 Co1 1.993 . S
N18 N17 1.388 . S
N18 C19 1.346 . S
C19 N18 1.346 . S
C19 C20 1.396 . S
C19 C29 1.510 . S
C20 C16 1.401 . S
C20 C19 1.396 . S
C21 C16 1.499 . S
C21 H22 0.959 . S
C21 H23 0.960 . S
C21 H24 0.961 . S
H22 C21 0.959 . S
H23 C21 0.960 . S
H24 C21 0.961 . S
O25 Co0 1.967 . S
O25 C33 1.258 . S
O26 Co1 1.941 . S
O26 C33 1.266 . S
H27 C29 0.959 . S
H28 C29 0.961 . S
C29 C19 1.510 . S
C29 H27 0.959 . S
C29 H28 0.961 . S
C29 H30 0.960 . S
H30 C29 0.960 . S
H31 N11 0.862 . S
O32 Co0 1.920 . S
O32 C5 1.289 . S
C33 O25 1.258 . S
C33 O26 1.266 . S
Co34 O37 1.970 . S
Co34 N51 1.989 . S
Co34 O59 1.967 . S
Co34 O66 1.920 . S
Co35 O38 1.966 . S
Co35 N44 2.022 . S
Co35 N52 1.993 . S
Co35 O60 1.941 . S
C36 O37 1.258 . S
C36 O38 1.263 . S
O37 Co34 1.970 . S
O37 C36 1.258 . S
O38 Co35 1.966 . S
O38 C36 1.263 . S
C39 O40 1.235 . S
C39 O66 1.289 . S
O40 C39 1.235 . S
C41 C43 1.400 . S
C41 N44 1.351 . S
C41 C46 1.501 . S
C42 C43 1.387 . S
C42 N45 1.341 . S
C43 C41 1.400 . S
C43 C42 1.387 . S
N44 Co35 2.022 . S
N44 C41 1.351 . S
N44 N45 1.365 . S
N45 C42 1.341 . S
N45 N44 1.365 . S
N45 H65 0.862 . S
C46 C41 1.501 . S
C46 H47 0.961 . S
C46 H48 0.961 . S
C46 H49 0.960 . S
H47 C46 0.961 . S
H48 C46 0.961 . S
H49 C46 0.960 . S
C50 N51 1.342 . S
C50 C54 1.401 . S
C50 C55 1.499 . S
N51 Co34 1.989 . S
N51 C50 1.342 . S
N51 N52 1.388 . S
N52 Co35 1.993 . S
N52 N51 1.388 . S
N52 C53 1.346 . S
C53 N52 1.346 . S
C53 C54 1.396 . S
C53 C63 1.510 . S
C54 C50 1.401 . S
C54 C53 1.396 . S
C55 C50 1.499 . S
C55 H56 0.959 . S
C55 H57 0.960 . S
C55 H58 0.961 . S
H56 C55 0.959 . S
H57 C55 0.960 . S
H58 C55 0.961 . S
O59 Co34 1.967 . S
O59 C67 1.258 . S
O60 Co35 1.941 . S
O60 C67 1.266 . S
H61 C63 0.959 . S
H62 C63 0.961 . S
C63 C53 1.510 . S
C63 H61 0.959 . S
C63 H62 0.961 . S
C63 H64 0.960 . S
H64 C63 0.960 . S
H65 N45 0.862 . S
O66 Co34 1.920 . S
O66 C39 1.289 . S
C67 O59 1.258 . S
C67 O60 1.266 . S
Co68 O71 1.970 . S
Co68 N85 1.989 . S
Co68 O93 1.967 . S
Co68 O100 1.920 . S
Co69 O72 1.966 . S
Co69 N78 2.022 . S
Co69 N86 1.993 . S
Co69 O94 1.941 . S
C70 O71 1.258 . S
C70 O72 1.263 . S
O71 Co68 1.970 . S
O71 C70 1.258 . S
O72 Co69 1.966 . S
O72 C70 1.263 . S
C73 O74 1.235 . S
C73 O100 1.289 . S
O74 C73 1.235 . S
C75 C77 1.400 . S
C75 N78 1.351 . S
C75 C80 1.501 . S
C76 C77 1.387 . S
C76 N79 1.341 . S
C77 C75 1.400 . S
C77 C76 1.387 . S
N78 Co69 2.022 . S
N78 C75 1.351 . S
N78 N79 1.365 . S
N79 C76 1.341 . S
N79 N78 1.365 . S
N79 H99 0.862 . S
C80 C75 1.501 . S
C80 H81 0.961 . S
C80 H82 0.961 . S
C80 H83 0.960 . S
H81 C80 0.961 . S
H82 C80 0.961 . S
H83 C80 0.960 . S
C84 N85 1.342 . S
C84 C88 1.401 . S
C84 C89 1.499 . S
N85 Co68 1.989 . S
N85 C84 1.342 . S
N85 N86 1.388 . S
N86 Co69 1.993 . S
N86 N85 1.388 . S
N86 C87 1.346 . S
C87 N86 1.346 . S
C87 C88 1.396 . S
C87 C97 1.510 . S
C88 C84 1.401 . S
C88 C87 1.396 . S
C89 C84 1.499 . S
C89 H90 0.959 . S
C89 H91 0.960 . S
C89 H92 0.961 . S
H90 C89 0.959 . S
H91 C89 0.960 . S
H92 C89 0.961 . S
O93 Co68 1.967 . S
O93 C101 1.258 . S
O94 Co69 1.941 . S
O94 C101 1.266 . S
H95 C97 0.959 . S
H96 C97 0.961 . S
C97 C87 1.510 . S
C97 H95 0.959 . S
C97 H96 0.961 . S
C97 H98 0.960 . S
H98 C97 0.960 . S
H99 N79 0.862 . S
O100 Co68 1.920 . S
O100 C73 1.289 . S
C101 O93 1.258 . S
C101 O94 1.266 . S
Co102 O105 1.970 . S
Co102 N119 1.989 . S
Co102 O127 1.967 . S
Co102 O134 1.920 . S
Co103 O106 1.966 . S
Co103 N112 2.022 . S
Co103 N120 1.993 . S
Co103 O128 1.941 . S
C104 O105 1.258 . S
C104 O106 1.263 . S
O105 Co102 1.970 . S
O105 C104 1.258 . S
O106 Co103 1.966 . S
O106 C104 1.263 . S
C107 O108 1.235 . S
C107 O134 1.289 . S
O108 C107 1.235 . S
C109 C111 1.400 . S
C109 N112 1.351 . S
C109 C114 1.501 . S
C110 C111 1.387 . S
C110 N113 1.341 . S
C111 C109 1.400 . S
C111 C110 1.387 . S
N112 Co103 2.022 . S
N112 C109 1.351 . S
N112 N113 1.365 . S
N113 C110 1.341 . S
N113 N112 1.365 . S
N113 H133 0.862 . S
C114 C109 1.501 . S
C114 H115 0.961 . S
C114 H116 0.961 . S
C114 H117 0.960 . S
H115 C114 0.961 . S
H116 C114 0.961 . S
H117 C114 0.960 . S
C118 N119 1.342 . S
C118 C122 1.401 . S
C118 C123 1.499 . S
N119 Co102 1.989 . S
N119 C118 1.342 . S
N119 N120 1.388 . S
N120 Co103 1.993 . S
N120 N119 1.388 . S
N120 C121 1.346 . S
C121 N120 1.346 . S
C121 C122 1.396 . S
C121 C131 1.510 . S
C122 C118 1.401 . S
C122 C121 1.396 . S
C123 C118 1.499 . S
C123 H124 0.959 . S
C123 H125 0.960 . S
C123 H126 0.961 . S
H124 C123 0.959 . S
H125 C123 0.960 . S
H126 C123 0.961 . S
O127 Co102 1.967 . S
O127 C135 1.258 . S
O128 Co103 1.941 . S
O128 C135 1.266 . S
H129 C131 0.959 . S
H130 C131 0.961 . S
C131 C121 1.510 . S
C131 H129 0.959 . S
C131 H130 0.961 . S
C131 H132 0.960 . S
H132 C131 0.960 . S
H133 N113 0.862 . S
O134 Co102 1.920 . S
O134 C107 1.289 . S
C135 O127 1.258 . S
C135 O128 1.266 . S
Co136 O139 1.970 . S
Co136 N153 1.989 . S
Co136 O161 1.967 . S
Co136 O168 1.920 . S
Co137 O140 1.966 . S
Co137 N146 2.022 . S
Co137 N154 1.993 . S
Co137 O162 1.941 . S
C138 O139 1.258 . S
C138 O140 1.263 . S
O139 Co136 1.970 . S
O139 C138 1.258 . S
O140 Co137 1.966 . S
O140 C138 1.263 . S
C141 O142 1.235 . S
C141 O168 1.289 . S
O142 C141 1.235 . S
C143 C145 1.400 . S
C143 N146 1.351 . S
C143 C148 1.501 . S
C144 C145 1.387 . S
C144 N147 1.341 . S
C145 C143 1.400 . S
C145 C144 1.387 . S
N146 Co137 2.022 . S
N146 C143 1.351 . S
N146 N147 1.365 . S
N147 C144 1.341 . S
N147 N146 1.365 . S
N147 H167 0.862 . S
C148 C143 1.501 . S
C148 H149 0.961 . S
C148 H150 0.961 . S
C148 H151 0.960 . S
H149 C148 0.961 . S
H150 C148 0.961 . S
H151 C148 0.960 . S
C152 N153 1.342 . S
C152 C156 1.401 . S
C152 C157 1.499 . S
N153 Co136 1.989 . S
N153 C152 1.342 . S
N153 N154 1.388 . S
N154 Co137 1.993 . S
N154 N153 1.388 . S
N154 C155 1.346 . S
C155 N154 1.346 . S
C155 C156 1.396 . S
C155 C165 1.510 . S
C156 C152 1.401 . S
C156 C155 1.396 . S
C157 C152 1.499 . S
C157 H158 0.959 . S
C157 H159 0.960 . S
C157 H160 0.961 . S
H158 C157 0.959 . S
H159 C157 0.960 . S
H160 C157 0.961 . S
O161 Co136 1.967 . S
O161 C169 1.258 . S
O162 Co137 1.941 . S
O162 C169 1.266 . S
H163 C165 0.959 . S
H164 C165 0.961 . S
C165 C155 1.510 . S
C165 H163 0.959 . S
C165 H164 0.961 . S
C165 H166 0.960 . S
H166 C165 0.960 . S
H167 N147 0.862 . S
O168 Co136 1.920 . S
O168 C141 1.289 . S
C169 O161 1.258 . S
C169 O162 1.266 . S
Co170 O173 1.970 . S
Co170 N187 1.989 . S
Co170 O195 1.967 . S
Co170 O202 1.920 . S
Co171 O174 1.966 . S
Co171 N180 2.022 . S
Co171 N188 1.993 . S
Co171 O196 1.941 . S
C172 O173 1.258 . S
C172 O174 1.263 . S
O173 Co170 1.970 . S
O173 C172 1.258 . S
O174 Co171 1.966 . S
O174 C172 1.263 . S
C175 O176 1.235 . S
C175 O202 1.289 . S
O176 C175 1.235 . S
C177 C179 1.400 . S
C177 N180 1.351 . S
C177 C182 1.501 . S
C178 C179 1.387 . S
C178 N181 1.341 . S
C179 C177 1.400 . S
C179 C178 1.387 . S
N180 Co171 2.022 . S
N180 C177 1.351 . S
N180 N181 1.365 . S
N181 C178 1.341 . S
N181 N180 1.365 . S
N181 H201 0.862 . S
C182 C177 1.501 . S
C182 H183 0.961 . S
C182 H184 0.961 . S
C182 H185 0.960 . S
H183 C182 0.961 . S
H184 C182 0.961 . S
H185 C182 0.960 . S
C186 N187 1.342 . S
C186 C190 1.401 . S
C186 C191 1.499 . S
N187 Co170 1.989 . S
N187 C186 1.342 . S
N187 N188 1.388 . S
N188 Co171 1.993 . S
N188 N187 1.388 . S
N188 C189 1.346 . S
C189 N188 1.346 . S
C189 C190 1.396 . S
C189 C199 1.510 . S
C190 C186 1.401 . S
C190 C189 1.396 . S
C191 C186 1.499 . S
C191 H192 0.959 . S
C191 H193 0.960 . S
C191 H194 0.961 . S
H192 C191 0.959 . S
H193 C191 0.960 . S
H194 C191 0.961 . S
O195 Co170 1.967 . S
O195 C203 1.258 . S
O196 Co171 1.941 . S
O196 C203 1.266 . S
H197 C199 0.959 . S
H198 C199 0.961 . S
C199 C189 1.510 . S
C199 H197 0.959 . S
C199 H198 0.961 . S
C199 H200 0.960 . S
H200 C199 0.960 . S
H201 N181 0.862 . S
O202 Co170 1.920 . S
O202 C175 1.289 . S
C203 O195 1.258 . S
C203 O196 1.266 . S
Co204 O207 1.970 . S
Co204 N221 1.989 . S
Co204 O229 1.967 . S
Co204 O236 1.920 . S
Co205 O208 1.966 . S
Co205 N214 2.022 . S
Co205 N222 1.993 . S
Co205 O230 1.941 . S
C206 O207 1.258 . S
C206 O208 1.263 . S
O207 Co204 1.970 . S
O207 C206 1.258 . S
O208 Co205 1.966 . S
O208 C206 1.263 . S
C209 O210 1.235 . S
C209 O236 1.289 . S
O210 C209 1.235 . S
C211 C213 1.400 . S
C211 N214 1.351 . S
C211 C216 1.501 . S
C212 C213 1.387 . S
C212 N215 1.341 . S
C213 C211 1.400 . S
C213 C212 1.387 . S
N214 Co205 2.022 . S
N214 C211 1.351 . S
N214 N215 1.365 . S
N215 C212 1.341 . S
N215 N214 1.365 . S
N215 H235 0.862 . S
C216 C211 1.501 . S
C216 H217 0.961 . S
C216 H218 0.961 . S
C216 H219 0.960 . S
H217 C216 0.961 . S
H218 C216 0.961 . S
H219 C216 0.960 . S
C220 N221 1.342 . S
C220 C224 1.401 . S
C220 C225 1.499 . S
N221 Co204 1.989 . S
N221 C220 1.342 . S
N221 N222 1.388 . S
N222 Co205 1.993 . S
N222 N221 1.388 . S
N222 C223 1.346 . S
C223 N222 1.346 . S
C223 C224 1.396 . S
C223 C233 1.510 . S
C224 C220 1.401 . S
C224 C223 1.396 . S
C225 C220 1.499 . S
C225 H226 0.959 . S
C225 H227 0.960 . S
C225 H228 0.961 . S
H226 C225 0.959 . S
H227 C225 0.960 . S
H228 C225 0.961 . S
O229 Co204 1.967 . S
O229 C237 1.258 . S
O230 Co205 1.941 . S
O230 C237 1.266 . S
H231 C233 0.959 . S
H232 C233 0.961 . S
C233 C223 1.510 . S
C233 H231 0.959 . S
C233 H232 0.961 . S
C233 H234 0.960 . S
H234 C233 0.960 . S
H235 N215 0.862 . S
O236 Co204 1.920 . S
O236 C209 1.289 . S
C237 O229 1.258 . S
C237 O230 1.266 . S
Co238 O241 1.970 . S
Co238 N255 1.989 . S
Co238 O263 1.967 . S
Co238 O270 1.920 . S
Co239 O242 1.966 . S
Co239 N248 2.022 . S
Co239 N256 1.993 . S
Co239 O264 1.941 . S
C240 O241 1.258 . S
C240 O242 1.263 . S
O241 Co238 1.970 . S
O241 C240 1.258 . S
O242 Co239 1.966 . S
O242 C240 1.263 . S
C243 O244 1.235 . S
C243 O270 1.289 . S
O244 C243 1.235 . S
C245 C247 1.400 . S
C245 N248 1.351 . S
C245 C250 1.501 . S
C246 C247 1.387 . S
C246 N249 1.341 . S
C247 C245 1.400 . S
C247 C246 1.387 . S
N248 Co239 2.022 . S
N248 C245 1.351 . S
N248 N249 1.365 . S
N249 C246 1.341 . S
N249 N248 1.365 . S
N249 H269 0.862 . S
C250 C245 1.501 . S
C250 H251 0.961 . S
C250 H252 0.961 . S
C250 H253 0.960 . S
H251 C250 0.961 . S
H252 C250 0.961 . S
H253 C250 0.960 . S
C254 N255 1.342 . S
C254 C258 1.401 . S
C254 C259 1.499 . S
N255 Co238 1.989 . S
N255 C254 1.342 . S
N255 N256 1.388 . S
N256 Co239 1.993 . S
N256 N255 1.388 . S
N256 C257 1.346 . S
C257 N256 1.346 . S
C257 C258 1.396 . S
C257 C267 1.510 . S
C258 C254 1.401 . S
C258 C257 1.396 . S
C259 C254 1.499 . S
C259 H260 0.959 . S
C259 H261 0.960 . S
C259 H262 0.961 . S
H260 C259 0.959 . S
H261 C259 0.960 . S
H262 C259 0.961 . S
O263 Co238 1.967 . S
O263 C271 1.258 . S
O264 Co239 1.941 . S
O264 C271 1.266 . S
H265 C267 0.959 . S
H266 C267 0.961 . S
C267 C257 1.510 . S
C267 H265 0.959 . S
C267 H266 0.961 . S
C267 H268 0.960 . S
H268 C267 0.960 . S
H269 N249 0.862 . S
O270 Co238 1.920 . S
O270 C243 1.289 . S
C271 O263 1.258 . S
C271 O264 1.266 . S
Co272 O275 1.970 . S
Co272 N289 1.989 . S
Co272 O297 1.967 . S
Co272 O304 1.920 . S
Co273 O276 1.966 . S
Co273 N282 2.022 . S
Co273 N290 1.993 . S
Co273 O298 1.941 . S
C274 O275 1.258 . S
C274 O276 1.263 . S
O275 Co272 1.970 . S
O275 C274 1.258 . S
O276 Co273 1.966 . S
O276 C274 1.263 . S
C277 O278 1.235 . S
C277 O304 1.289 . S
O278 C277 1.235 . S
C279 C281 1.400 . S
C279 N282 1.351 . S
C279 C284 1.501 . S
C280 C281 1.387 . S
C280 N283 1.341 . S
C281 C279 1.400 . S
C281 C280 1.387 . S
N282 Co273 2.022 . S
N282 C279 1.351 . S
N282 N283 1.365 . S
N283 C280 1.341 . S
N283 N282 1.365 . S
N283 H303 0.862 . S
C284 C279 1.501 . S
C284 H285 0.961 . S
C284 H286 0.961 . S
C284 H287 0.960 . S
H285 C284 0.961 . S
H286 C284 0.961 . S
H287 C284 0.960 . S
C288 N289 1.342 . S
C288 C292 1.401 . S
C288 C293 1.499 . S
N289 Co272 1.989 . S
N289 C288 1.342 . S
N289 N290 1.388 . S
N290 Co273 1.993 . S
N290 N289 1.388 . S
N290 C291 1.346 . S
C291 N290 1.346 . S
C291 C292 1.396 . S
C291 C301 1.510 . S
C292 C288 1.401 . S
C292 C291 1.396 . S
C293 C288 1.499 . S
C293 H294 0.959 . S
C293 H295 0.960 . S
C293 H296 0.961 . S
H294 C293 0.959 . S
H295 C293 0.960 . S
H296 C293 0.961 . S
O297 Co272 1.967 . S
O297 C305 1.258 . S
O298 Co273 1.941 . S
O298 C305 1.266 . S
H299 C301 0.959 . S
H300 C301 0.961 . S
C301 C291 1.510 . S
C301 H299 0.959 . S
C301 H300 0.961 . S
C301 H302 0.960 . S
H302 C301 0.960 . S
H303 N283 0.862 . S
O304 Co272 1.920 . S
O304 C277 1.289 . S
C305 O297 1.258 . S
C305 O298 1.266 . S
Co306 O309 1.970 . S
Co306 N323 1.989 . S
Co306 O331 1.967 . S
Co306 O338 1.920 . S
Co307 O310 1.966 . S
Co307 N316 2.022 . S
Co307 N324 1.993 . S
Co307 O332 1.941 . S
C308 O309 1.258 . S
C308 O310 1.263 . S
O309 Co306 1.970 . S
O309 C308 1.258 . S
O310 Co307 1.966 . S
O310 C308 1.263 . S
C311 O312 1.235 . S
C311 O338 1.289 . S
O312 C311 1.235 . S
C313 C315 1.400 . S
C313 N316 1.351 . S
C313 C318 1.501 . S
C314 C315 1.387 . S
C314 N317 1.341 . S
C315 C313 1.400 . S
C315 C314 1.387 . S
N316 Co307 2.022 . S
N316 C313 1.351 . S
N316 N317 1.365 . S
N317 C314 1.341 . S
N317 N316 1.365 . S
N317 H337 0.862 . S
C318 C313 1.501 . S
C318 H319 0.961 . S
C318 H320 0.961 . S
C318 H321 0.960 . S
H319 C318 0.961 . S
H320 C318 0.961 . S
H321 C318 0.960 . S
C322 N323 1.342 . S
C322 C326 1.401 . S
C322 C327 1.499 . S
N323 Co306 1.989 . S
N323 C322 1.342 . S
N323 N324 1.388 . S
N324 Co307 1.993 . S
N324 N323 1.388 . S
N324 C325 1.346 . S
C325 N324 1.346 . S
C325 C326 1.396 . S
C325 C335 1.510 . S
C326 C322 1.401 . S
C326 C325 1.396 . S
C327 C322 1.499 . S
C327 H328 0.959 . S
C327 H329 0.960 . S
C327 H330 0.961 . S
H328 C327 0.959 . S
H329 C327 0.960 . S
H330 C327 0.961 . S
O331 Co306 1.967 . S
O331 C339 1.258 . S
O332 Co307 1.941 . S
O332 C339 1.266 . S
H333 C335 0.959 . S
H334 C335 0.961 . S
C335 C325 1.510 . S
C335 H333 0.959 . S
C335 H334 0.961 . S
C335 H336 0.960 . S
H336 C335 0.960 . S
H337 N317 0.862 . S
O338 Co306 1.920 . S
O338 C311 1.289 . S
C339 O331 1.258 . S
C339 O332 1.266 . S
Co340 O343 1.970 . S
Co340 N357 1.989 . S
Co340 O365 1.967 . S
Co340 O372 1.920 . S
Co341 O344 1.966 . S
Co341 N350 2.022 . S
Co341 N358 1.993 . S
Co341 O366 1.941 . S
C342 O343 1.258 . S
C342 O344 1.263 . S
O343 Co340 1.970 . S
O343 C342 1.258 . S
O344 Co341 1.966 . S
O344 C342 1.263 . S
C345 O346 1.235 . S
C345 O372 1.289 . S
O346 C345 1.235 . S
C347 C349 1.400 . S
C347 N350 1.351 . S
C347 C352 1.501 . S
C348 C349 1.387 . S
C348 N351 1.341 . S
C349 C347 1.400 . S
C349 C348 1.387 . S
N350 Co341 2.022 . S
N350 C347 1.351 . S
N350 N351 1.365 . S
N351 C348 1.341 . S
N351 N350 1.365 . S
N351 H371 0.862 . S
C352 C347 1.501 . S
C352 H353 0.961 . S
C352 H354 0.961 . S
C352 H355 0.960 . S
H353 C352 0.961 . S
H354 C352 0.961 . S
H355 C352 0.960 . S
C356 N357 1.342 . S
C356 C360 1.401 . S
C356 C361 1.499 . S
N357 Co340 1.989 . S
N357 C356 1.342 . S
N357 N358 1.388 . S
N358 Co341 1.993 . S
N358 N357 1.388 . S
N358 C359 1.346 . S
C359 N358 1.346 . S
C359 C360 1.396 . S
C359 C369 1.510 . S
C360 C356 1.401 . S
C360 C359 1.396 . S
C361 C356 1.499 . S
C361 H362 0.959 . S
C361 H363 0.960 . S
C361 H364 0.961 . S
H362 C361 0.959 . S
H363 C361 0.960 . S
H364 C361 0.961 . S
O365 Co340 1.967 . S
O365 C373 1.258 . S
O366 Co341 1.941 . S
O366 C373 1.266 . S
H367 C369 0.959 . S
H368 C369 0.961 . S
C369 C359 1.510 . S
C369 H367 0.959 . S
C369 H368 0.961 . S
C369 H370 0.960 . S
H370 C369 0.960 . S
H371 N351 0.862 . S
O372 Co340 1.920 . S
O372 C345 1.289 . S
C373 O365 1.258 . S
C373 O366 1.266 . S
Co374 O377 1.970 . S
Co374 N391 1.989 . S
Co374 O399 1.967 . S
Co374 O406 1.920 . S
Co375 O378 1.966 . S
Co375 N384 2.022 . S
Co375 N392 1.993 . S
Co375 O400 1.941 . S
C376 O377 1.258 . S
C376 O378 1.263 . S
O377 Co374 1.970 . S
O377 C376 1.258 . S
O378 Co375 1.966 . S
O378 C376 1.263 . S
C379 O380 1.235 . S
C379 O406 1.289 . S
O380 C379 1.235 . S
C381 C383 1.400 . S
C381 N384 1.351 . S
C381 C386 1.501 . S
C382 C383 1.387 . S
C382 N385 1.341 . S
C383 C381 1.400 . S
C383 C382 1.387 . S
N384 Co375 2.022 . S
N384 C381 1.351 . S
N384 N385 1.365 . S
N385 C382 1.341 . S
N385 N384 1.365 . S
N385 H405 0.862 . S
C386 C381 1.501 . S
C386 H387 0.961 . S
C386 H388 0.961 . S
C386 H389 0.960 . S
H387 C386 0.961 . S
H388 C386 0.961 . S
H389 C386 0.960 . S
C390 N391 1.342 . S
C390 C394 1.401 . S
C390 C395 1.499 . S
N391 Co374 1.989 . S
N391 C390 1.342 . S
N391 N392 1.388 . S
N392 Co375 1.993 . S
N392 N391 1.388 . S
N392 C393 1.346 . S
C393 N392 1.346 . S
C393 C394 1.396 . S
C393 C403 1.510 . S
C394 C390 1.401 . S
C394 C393 1.396 . S
C395 C390 1.499 . S
C395 H396 0.959 . S
C395 H397 0.960 . S
C395 H398 0.961 . S
H396 C395 0.959 . S
H397 C395 0.960 . S
H398 C395 0.961 . S
O399 Co374 1.967 . S
O399 C407 1.258 . S
O400 Co375 1.941 . S
O400 C407 1.266 . S
H401 C403 0.959 . S
H402 C403 0.961 . S
C403 C393 1.510 . S
C403 H401 0.959 . S
C403 H402 0.961 . S
C403 H404 0.960 . S
H404 C403 0.960 . S
H405 N385 0.862 . S
O406 Co374 1.920 . S
O406 C379 1.289 . S
C407 O399 1.258 . S
C407 O400 1.266 . S
Co408 O411 1.970 . S
Co408 N425 1.989 . S
Co408 O433 1.967 . S
Co408 O440 1.920 . S
Co409 O412 1.966 . S
Co409 N418 2.022 . S
Co409 N426 1.993 . S
Co409 O434 1.941 . S
C410 O411 1.258 . S
C410 O412 1.263 . S
O411 Co408 1.970 . S
O411 C410 1.258 . S
O412 Co409 1.966 . S
O412 C410 1.263 . S
C413 O414 1.235 . S
C413 O440 1.289 . S
O414 C413 1.235 . S
C415 C417 1.400 . S
C415 N418 1.351 . S
C415 C420 1.501 . S
C416 C417 1.387 . S
C416 N419 1.341 . S
C417 C415 1.400 . S
C417 C416 1.387 . S
N418 Co409 2.022 . S
N418 C415 1.351 . S
N418 N419 1.365 . S
N419 C416 1.341 . S
N419 N418 1.365 . S
N419 H439 0.862 . S
C420 C415 1.501 . S
C420 H421 0.961 . S
C420 H422 0.961 . S
C420 H423 0.960 . S
H421 C420 0.961 . S
H422 C420 0.961 . S
H423 C420 0.960 . S
C424 N425 1.342 . S
C424 C428 1.401 . S
C424 C429 1.499 . S
N425 Co408 1.989 . S
N425 C424 1.342 . S
N425 N426 1.388 . S
N426 Co409 1.993 . S
N426 N425 1.388 . S
N426 C427 1.346 . S
C427 N426 1.346 . S
C427 C428 1.396 . S
C427 C437 1.510 . S
C428 C424 1.401 . S
C428 C427 1.396 . S
C429 C424 1.499 . S
C429 H430 0.959 . S
C429 H431 0.960 . S
C429 H432 0.961 . S
H430 C429 0.959 . S
H431 C429 0.960 . S
H432 C429 0.961 . S
O433 Co408 1.967 . S
O433 C441 1.258 . S
O434 Co409 1.941 . S
O434 C441 1.266 . S
H435 C437 0.959 . S
H436 C437 0.961 . S
C437 C427 1.510 . S
C437 H435 0.959 . S
C437 H436 0.961 . S
C437 H438 0.960 . S
H438 C437 0.960 . S
H439 N419 0.862 . S
O440 Co408 1.920 . S
O440 C413 1.289 . S
C441 O433 1.258 . S
C441 O434 1.266 . S
Co442 O445 1.970 . S
Co442 N459 1.989 . S
Co442 O467 1.967 . S
Co442 O474 1.920 . S
Co443 O446 1.966 . S
Co443 N452 2.022 . S
Co443 N460 1.993 . S
Co443 O468 1.941 . S
C444 O445 1.258 . S
C444 O446 1.263 . S
O445 Co442 1.970 . S
O445 C444 1.258 . S
O446 Co443 1.966 . S
O446 C444 1.263 . S
C447 O448 1.235 . S
C447 O474 1.289 . S
O448 C447 1.235 . S
C449 C451 1.400 . S
C449 N452 1.351 . S
C449 C454 1.501 . S
C450 C451 1.387 . S
C450 N453 1.341 . S
C451 C449 1.400 . S
C451 C450 1.387 . S
N452 Co443 2.022 . S
N452 C449 1.351 . S
N452 N453 1.365 . S
N453 C450 1.341 . S
N453 N452 1.365 . S
N453 H473 0.862 . S
C454 C449 1.501 . S
C454 H455 0.961 . S
C454 H456 0.961 . S
C454 H457 0.960 . S
H455 C454 0.961 . S
H456 C454 0.961 . S
H457 C454 0.960 . S
C458 N459 1.342 . S
C458 C462 1.401 . S
C458 C463 1.499 . S
N459 Co442 1.989 . S
N459 C458 1.342 . S
N459 N460 1.388 . S
N460 Co443 1.993 . S
N460 N459 1.388 . S
N460 C461 1.346 . S
C461 N460 1.346 . S
C461 C462 1.396 . S
C461 C471 1.510 . S
C462 C458 1.401 . S
C462 C461 1.396 . S
C463 C458 1.499 . S
C463 H464 0.959 . S
C463 H465 0.960 . S
C463 H466 0.961 . S
H464 C463 0.959 . S
H465 C463 0.960 . S
H466 C463 0.961 . S
O467 Co442 1.967 . S
O467 C475 1.258 . S
O468 Co443 1.941 . S
O468 C475 1.266 . S
H469 C471 0.959 . S
H470 C471 0.961 . S
C471 C461 1.510 . S
C471 H469 0.959 . S
C471 H470 0.961 . S
C471 H472 0.960 . S
H472 C471 0.960 . S
H473 N453 0.862 . S
O474 Co442 1.920 . S
O474 C447 1.289 . S
C475 O467 1.258 . S
C475 O468 1.266 . S
Co476 O479 1.970 . S
Co476 N493 1.989 . S
Co476 O501 1.967 . S
Co476 O508 1.920 . S
Co477 O480 1.966 . S
Co477 N486 2.022 . S
Co477 N494 1.993 . S
Co477 O502 1.941 . S
C478 O479 1.258 . S
C478 O480 1.263 . S
O479 Co476 1.970 . S
O479 C478 1.258 . S
O480 Co477 1.966 . S
O480 C478 1.263 . S
C481 O482 1.235 . S
C481 O508 1.289 . S
O482 C481 1.235 . S
C483 C485 1.400 . S
C483 N486 1.351 . S
C483 C488 1.501 . S
C484 C485 1.387 . S
C484 N487 1.341 . S
C485 C483 1.400 . S
C485 C484 1.387 . S
N486 Co477 2.022 . S
N486 C483 1.351 . S
N486 N487 1.365 . S
N487 C484 1.341 . S
N487 N486 1.365 . S
N487 H507 0.862 . S
C488 C483 1.501 . S
C488 H489 0.961 . S
C488 H490 0.961 . S
C488 H491 0.960 . S
H489 C488 0.961 . S
H490 C488 0.961 . S
H491 C488 0.960 . S
C492 N493 1.342 . S
C492 C496 1.401 . S
C492 C497 1.499 . S
N493 Co476 1.989 . S
N493 C492 1.342 . S
N493 N494 1.388 . S
N494 Co477 1.993 . S
N494 N493 1.388 . S
N494 C495 1.346 . S
C495 N494 1.346 . S
C495 C496 1.396 . S
C495 C505 1.510 . S
C496 C492 1.401 . S
C496 C495 1.396 . S
C497 C492 1.499 . S
C497 H498 0.959 . S
C497 H499 0.960 . S
C497 H500 0.961 . S
H498 C497 0.959 . S
H499 C497 0.960 . S
H500 C497 0.961 . S
O501 Co476 1.967 . S
O501 C509 1.258 . S
O502 Co477 1.941 . S
O502 C509 1.266 . S
H503 C505 0.959 . S
H504 C505 0.961 . S
C505 C495 1.510 . S
C505 H503 0.959 . S
C505 H504 0.961 . S
C505 H506 0.960 . S
H506 C505 0.960 . S
H507 N487 0.862 . S
O508 Co476 1.920 . S
O508 C481 1.289 . S
C509 O501 1.258 . S
C509 O502 1.266 . S
Co510 O513 1.970 . S
Co510 N527 1.989 . S
Co510 O535 1.967 . S
Co510 O542 1.920 . S
Co511 O514 1.966 . S
Co511 N520 2.022 . S
Co511 N528 1.993 . S
Co511 O536 1.941 . S
C512 O513 1.258 . S
C512 O514 1.263 . S
O513 Co510 1.970 . S
O513 C512 1.258 . S
O514 Co511 1.966 . S
O514 C512 1.263 . S
C515 O516 1.235 . S
C515 O542 1.289 . S
O516 C515 1.235 . S
C517 C519 1.400 . S
C517 N520 1.351 . S
C517 C522 1.501 . S
C518 C519 1.387 . S
C518 N521 1.341 . S
C519 C517 1.400 . S
C519 C518 1.387 . S
N520 Co511 2.022 . S
N520 C517 1.351 . S
N520 N521 1.365 . S
N521 C518 1.341 . S
N521 N520 1.365 . S
N521 H541 0.862 . S
C522 C517 1.501 . S
C522 H523 0.961 . S
C522 H524 0.961 . S
C522 H525 0.960 . S
H523 C522 0.961 . S
H524 C522 0.961 . S
H525 C522 0.960 . S
C526 N527 1.342 . S
C526 C530 1.401 . S
C526 C531 1.499 . S
N527 Co510 1.989 . S
N527 C526 1.342 . S
N527 N528 1.388 . S
N528 Co511 1.993 . S
N528 N527 1.388 . S
N528 C529 1.346 . S
C529 N528 1.346 . S
C529 C530 1.396 . S
C529 C539 1.510 . S
C530 C526 1.401 . S
C530 C529 1.396 . S
C531 C526 1.499 . S
C531 H532 0.959 . S
C531 H533 0.960 . S
C531 H534 0.961 . S
H532 C531 0.959 . S
H533 C531 0.960 . S
H534 C531 0.961 . S
O535 Co510 1.967 . S
O535 C543 1.258 . S
O536 Co511 1.941 . S
O536 C543 1.266 . S
H537 C539 0.959 . S
H538 C539 0.961 . S
C539 C529 1.510 . S
C539 H537 0.959 . S
C539 H538 0.961 . S
C539 H540 0.960 . S
H540 C539 0.960 . S
H541 N521 0.862 . S
O542 Co510 1.920 . S
O542 C515 1.289 . S
C543 O535 1.258 . S
C543 O536 1.266 . S
C544 C545 1.387 . S
C544 H548 0.950 . S
C544 C553 1.390 1_655 S
C545 C544 1.387 . S
C545 C547 1.387 . S
H546 C553 0.950 . S
C547 C545 1.387 . S
C547 C549 1.390 1_655 S
C547 H551 0.950 . S
H548 C544 0.950 . S
C549 C547 1.390 1_455 S
C549 C550 1.387 . S
C549 H552 0.950 . S
C550 C549 1.387 . S
C550 C553 1.387 . S
H551 C547 0.950 . S
H552 C549 0.950 . S
C553 C544 1.390 1_455 S
C553 H546 0.950 . S
C553 C550 1.387 . S
C554 C555 1.387 . S
C554 H558 0.950 . S
C554 C563 1.390 1_545 S
C555 C554 1.387 . S
C555 C557 1.387 . S
H556 C563 0.950 . S
C557 C555 1.387 . S
C557 C559 1.390 1_545 S
C557 H561 0.950 . S
H558 C554 0.950 . S
C559 C557 1.390 1_565 S
C559 C560 1.387 . S
C559 H562 0.950 . S
C560 C559 1.387 . S
C560 C563 1.387 . S
H561 C557 0.950 . S
H562 C559 0.950 . S
C563 C554 1.390 1_565 S
C563 H556 0.950 . S
C563 C560 1.387 . S
C564 C565 1.387 1_455 S
C564 H568 0.950 . S
C564 C573 1.390 . S
C565 C564 1.387 1_655 S
C565 C567 1.387 1_655 S
H566 C573 0.950 . S
C567 C565 1.387 1_455 S
C567 C569 1.390 . S
C567 H571 0.950 . S
H568 C564 0.950 . S
C569 C567 1.390 . S
C569 C570 1.387 . S
C569 H572 0.950 . S
C570 C569 1.387 . S
C570 C573 1.387 . S
H571 C567 0.950 . S
H572 C569 0.950 . S
C573 C564 1.390 . S
C573 H566 0.950 . S
C573 C570 1.387 . S
C574 C575 1.387 . S
C574 H578 0.950 . S
C574 C583 1.390 1_565 S
C575 C574 1.387 . S
C575 C577 1.387 . S
H576 C583 0.950 . S
C577 C575 1.387 . S
C577 C579 1.390 1_565 S
C577 H581 0.950 . S
H578 C574 0.950 . S
C579 C577 1.390 1_545 S
C579 C580 1.387 . S
C579 H582 0.950 . S
C580 C579 1.387 . S
C580 C583 1.387 . S
H581 C577 0.950 . S
H582 C579 0.950 . S
C583 C574 1.390 1_545 S
C583 H576 0.950 . S
C583 C580 1.387 . S
C584 C585 1.387 . S
C584 H588 0.950 . S
C584 C593 1.390 1_655 S
C585 C584 1.387 . S
C585 C587 1.387 . S
H586 C593 0.950 . S
C587 C585 1.387 . S
C587 C589 1.390 1_655 S
C587 H591 0.950 . S
H588 C584 0.950 . S
C589 C587 1.390 1_455 S
C589 C590 1.387 . S
C589 H592 0.950 . S
C590 C589 1.387 . S
C590 C593 1.387 . S
H591 C587 0.950 . S
H592 C589 0.950 . S
C593 C584 1.390 1_455 S
C593 H586 0.950 . S
C593 C590 1.387 . S
C594 C595 1.387 . S
C594 H598 0.950 . S
C594 C603 1.390 1_565 S
C595 C594 1.387 . S
C595 C597 1.387 . S
H596 C603 0.950 . S
C597 C595 1.387 . S
C597 C599 1.390 1_565 S
C597 H601 0.950 . S
H598 C594 0.950 . S
C599 C597 1.390 1_545 S
C599 C600 1.387 . S
C599 H602 0.950 . S
C600 C599 1.387 . S
C600 C603 1.387 . S
H601 C597 0.950 . S
H602 C599 0.950 . S
C603 C594 1.390 1_545 S
C603 H596 0.950 . S
C603 C600 1.387 . S
C604 C605 1.387 . S
C604 H608 0.950 . S
C604 C613 1.390 . S
C605 C604 1.387 . S
C605 C607 1.387 . S
H606 C613 0.950 . S
C607 C605 1.387 . S
C607 C609 1.390 . S
C607 H611 0.950 . S
H608 C604 0.950 . S
C609 C607 1.390 . S
C609 C610 1.387 1_655 S
C609 H612 0.950 . S
C610 C609 1.387 1_455 S
C610 C613 1.387 1_455 S
H611 C607 0.950 . S
H612 C609 0.950 . S
C613 C604 1.390 . S
C613 H606 0.950 . S
C613 C610 1.387 1_655 S
C614 C615 1.387 1_565 S
C614 H618 0.950 1_565 S
C614 C623 1.390 . S
C615 C614 1.387 1_545 S
C615 C617 1.387 1_545 S
H616 C623 0.950 . S
C617 C615 1.387 1_565 S
C617 C619 1.390 . S
C617 H621 0.950 1_565 S
H618 C614 0.950 1_545 S
C619 C617 1.390 . S
C619 C620 1.387 . S
C619 H622 0.950 . S
C620 C619 1.387 . S
C620 C623 1.387 . S
H621 C617 0.950 1_545 S
H622 C619 0.950 . S
C623 C614 1.390 . S
C623 H616 0.950 . S
C623 C620 1.387 . S
C624 C625 1.387 . S
C624 H628 0.950 . S
C624 C633 1.390 . S
C625 C624 1.387 . S
C625 C627 1.387 . S
H626 C633 0.950 . S
C627 C625 1.387 . S
C627 C629 1.390 . S
C627 H631 0.950 . S
H628 C624 0.950 . S
C629 C627 1.390 . S
C629 C630 1.387 . S
C629 H632 0.950 . S
C630 C629 1.387 . S
C630 C633 1.387 . S
H631 C627 0.950 . S
H632 C629 0.950 . S
C633 C624 1.390 . S
C633 H626 0.950 . S
C633 C630 1.387 . S
C634 C635 1.387 . S
C634 H638 0.950 . S
C634 C643 1.390 . S
C635 C634 1.387 . S
C635 C637 1.387 . S
H636 C643 0.950 . S
C637 C635 1.387 . S
C637 C639 1.390 . S
C637 H641 0.950 . S
H638 C634 0.950 . S
C639 C637 1.390 . S
C639 C640 1.387 . S
C639 H642 0.950 . S
C640 C639 1.387 . S
C640 C643 1.387 . S
H641 C637 0.950 . S
H642 C639 0.950 . S
C643 C634 1.390 . S
C643 H636 0.950 . S
C643 C640 1.387 . S
C644 C645 1.387 . S
C644 H648 0.950 . S
C644 C653 1.390 . S
C645 C644 1.387 . S
C645 C647 1.387 . S
H646 C653 0.950 . S
C647 C645 1.387 . S
C647 C649 1.390 . S
C647 H651 0.950 . S
H648 C644 0.950 . S
C649 C647 1.390 . S
C649 C650 1.387 . S
C649 H652 0.950 . S
C650 C649 1.387 . S
C650 C653 1.387 . S
H651 C647 0.950 . S
H652 C649 0.950 . S
C653 C644 1.390 . S
C653 H646 0.950 . S
C653 C650 1.387 . S
C654 C655 1.387 . S
C654 H658 0.950 . S
C654 C663 1.390 . S
C655 C654 1.387 . S
C655 C657 1.387 . S
H656 C663 0.950 . S
C657 C655 1.387 . S
C657 C659 1.390 . S
C657 H661 0.950 . S
H658 C654 0.950 . S
C659 C657 1.390 . S
C659 C660 1.387 . S
C659 H662 0.950 . S
C660 C659 1.387 . S
C660 C663 1.387 . S
H661 C657 0.950 . S
H662 C659 0.950 . S
C663 C654 1.390 . S
C663 H656 0.950 . S
C663 C660 1.387 . S
C664 C665 1.387 . S
C664 H668 0.950 . S
C664 C673 1.390 . S
C665 C664 1.387 . S
C665 C667 1.387 . S
H666 C673 0.950 . S
C667 C665 1.387 . S
C667 C669 1.390 . S
C667 H671 0.950 . S
H668 C664 0.950 . S
C669 C667 1.390 . S
C669 C670 1.387 . S
C669 H672 0.950 . S
C670 C669 1.387 . S
C670 C673 1.387 . S
H671 C667 0.950 . S
H672 C669 0.950 . S
C673 C664 1.390 . S
C673 H666 0.950 . S
C673 C670 1.387 . S
C674 C675 1.387 . S
C674 H678 0.950 . S
C674 C683 1.390 . S
C675 C674 1.387 . S
C675 C677 1.387 . S
H676 C683 0.950 . S
C677 C675 1.387 . S
C677 C679 1.390 . S
C677 H681 0.950 . S
H678 C674 0.950 . S
C679 C677 1.390 . S
C679 C680 1.387 . S
C679 H682 0.950 . S
C680 C679 1.387 . S
C680 C683 1.387 . S
H681 C677 0.950 . S
H682 C679 0.950 . S
C683 C674 1.390 . S
C683 H676 0.950 . S
C683 C680 1.387 . S
C684 C685 1.387 . S
C684 H688 0.950 . S
C684 C693 1.390 . S
C685 C684 1.387 . S
C685 C687 1.387 . S
H686 C693 0.950 . S
C687 C685 1.387 . S
C687 C689 1.390 . S
C687 H691 0.950 . S
H688 C684 0.950 . S
C689 C687 1.390 . S
C689 C690 1.387 . S
C689 H692 0.950 . S
C690 C689 1.387 . S
C690 C693 1.387 . S
H691 C687 0.950 . S
H692 C689 0.950 . S
C693 C684 1.390 . S
C693 H686 0.950 . S
C693 C690 1.387 . S
C694 C695 1.387 . S
C694 H698 0.950 . S
C694 C703 1.390 . S
C695 C694 1.387 . S
C695 C697 1.387 . S
H696 C703 0.950 . S
C697 C695 1.387 . S
C697 C699 1.390 . S
C697 H701 0.950 . S
H698 C694 0.950 . S
C699 C697 1.390 . S
C699 C700 1.387 . S
C699 H702 0.950 . S
C700 C699 1.387 . S
C700 C703 1.387 . S
H701 C697 0.950 . S
H702 C699 0.950 . S
C703 C694 1.390 . S
C703 H696 0.950 . S
C703 C700 1.387 . S
C704 C705 1.387 . S
C704 H708 0.950 . S
C704 C713 1.390 1_554 S
C705 C704 1.387 . S
C705 C707 1.387 . S
H706 C713 0.950 . S
C707 C705 1.387 . S
C707 C709 1.390 1_554 S
C707 H711 0.950 . S
H708 C704 0.950 . S
C709 C707 1.390 1_556 S
C709 C710 1.387 . S
C709 H712 0.950 . S
C710 C709 1.387 . S
C710 C713 1.387 . S
H711 C707 0.950 . S
H712 C709 0.950 . S
C713 C704 1.390 1_556 S
C713 H706 0.950 . S
C713 C710 1.387 . S
C714 C715 1.387 . S
C714 H718 0.950 . S
C714 C723 1.390 . S
C715 C714 1.387 . S
C715 C717 1.387 . S
H716 C723 0.950 . S
C717 C715 1.387 . S
C717 C719 1.390 . S
C717 H721 0.950 . S
H718 C714 0.950 . S
C719 C717 1.390 . S
C719 C720 1.387 . S
C719 H722 0.950 . S
C720 C719 1.387 . S
C720 C723 1.387 . S
H721 C717 0.950 . S
H722 C719 0.950 . S
C723 C714 1.390 . S
C723 H716 0.950 . S
C723 C720 1.387 . S
C724 C725 1.387 . S
C724 H728 0.950 . S
C724 C733 1.390 1_556 S
C725 C724 1.387 . S
C725 C727 1.387 . S
H726 C733 0.950 . S
C727 C725 1.387 . S
C727 C729 1.390 1_556 S
C727 H731 0.950 . S
H728 C724 0.950 . S
C729 C727 1.390 1_554 S
C729 C730 1.387 . S
C729 H732 0.950 . S
C730 C729 1.387 . S
C730 C733 1.387 . S
H731 C727 0.950 . S
H732 C729 0.950 . S
C733 C724 1.390 1_554 S
C733 H726 0.950 . S
C733 C730 1.387 . S
C734 C735 1.387 . S
C734 H738 0.950 . S
C734 C743 1.390 . S
C735 C734 1.387 . S
C735 C737 1.387 . S
H736 C743 0.950 . S
C737 C735 1.387 . S
C737 C739 1.390 . S
C737 H741 0.950 . S
H738 C734 0.950 . S
C739 C737 1.390 . S
C739 C740 1.387 . S
C739 H742 0.950 . S
C740 C739 1.387 . S
C740 C743 1.387 . S
H741 C737 0.950 . S
H742 C739 0.950 . S
C743 C734 1.390 . S
C743 H736 0.950 . S
C743 C740 1.387 . S
C744 C745 1.387 . S
C744 H748 0.950 . S
C744 C753 1.390 1_556 S
C745 C744 1.387 . S
C745 C747 1.387 . S
H746 C753 0.950 . S
C747 C745 1.387 . S
C747 C749 1.390 1_556 S
C747 H751 0.950 . S
H748 C744 0.950 . S
C749 C747 1.390 1_554 S
C749 C750 1.387 . S
C749 H752 0.950 . S
C750 C749 1.387 . S
C750 C753 1.387 . S
H751 C747 0.950 . S
H752 C749 0.950 . S
C753 C744 1.390 1_554 S
C753 H746 0.950 . S
C753 C750 1.387 . S
C754 C755 1.387 . S
C754 H758 0.950 . S
C754 C763 1.390 . S
C755 C754 1.387 . S
C755 C757 1.387 . S
H756 C763 0.950 . S
C757 C755 1.387 . S
C757 C759 1.390 . S
C757 H761 0.950 . S
H758 C754 0.950 . S
C759 C757 1.390 . S
C759 C760 1.387 . S
C759 H762 0.950 . S
C760 C759 1.387 . S
C760 C763 1.387 . S
H761 C757 0.950 . S
H762 C759 0.950 . S
C763 C754 1.390 . S
C763 H756 0.950 . S
C763 C760 1.387 . S
C764 C765 1.387 . S
C764 H768 0.950 . S
C764 C773 1.390 1_554 S
C765 C764 1.387 . S
C765 C767 1.387 . S
H766 C773 0.950 . S
C767 C765 1.387 . S
C767 C769 1.390 1_554 S
C767 H771 0.950 . S
H768 C764 0.950 . S
C769 C767 1.390 1_556 S
C769 C770 1.387 . S
C769 H772 0.950 . S
C770 C769 1.387 . S
C770 C773 1.387 . S
H771 C767 0.950 . S
H772 C769 0.950 . S
C773 C764 1.390 1_556 S
C773 H766 0.950 . S
C773 C770 1.387 . S
C774 C775 1.387 . S
C774 H778 0.950 . S
C774 C783 1.390 . S
C775 C774 1.387 . S
C775 C777 1.387 . S
H776 C783 0.950 . S
C777 C775 1.387 . S
C777 C779 1.390 . S
C777 H781 0.950 . S
H778 C774 0.950 . S
C779 C777 1.390 . S
C779 C780 1.387 . S
C779 H782 0.950 . S
C780 C779 1.387 . S
C780 C783 1.387 . S
H781 C777 0.950 . S
H782 C779 0.950 . S
C783 C774 1.390 . S
C783 H776 0.950 . S
C783 C780 1.387 . S
C784 C785 1.387 . S
C784 H788 0.950 . S
C784 C793 1.390 . S
C785 C784 1.387 . S
C785 C787 1.387 . S
H786 C793 0.950 . S
C787 C785 1.387 . S
C787 C789 1.390 . S
C787 H791 0.950 . S
H788 C784 0.950 . S
C789 C787 1.390 . S
C789 C790 1.387 . S
C789 H792 0.950 . S
C790 C789 1.387 . S
C790 C793 1.387 . S
H791 C787 0.950 . S
H792 C789 0.950 . S
C793 C784 1.390 . S
C793 H786 0.950 . S
C793 C790 1.387 . S
C794 C795 1.387 . S
C794 H798 0.950 . S
C794 C803 1.390 . S
C795 C794 1.387 . S
C795 C797 1.387 . S
H796 C803 0.950 . S
C797 C795 1.387 . S
C797 C799 1.390 . S
C797 H801 0.950 . S
H798 C794 0.950 . S
C799 C797 1.390 . S
C799 C800 1.387 . S
C799 H802 0.950 . S
C800 C799 1.387 . S
C800 C803 1.387 . S
H801 C797 0.950 . S
H802 C799 0.950 . S
C803 C794 1.390 . S
C803 H796 0.950 . S
C803 C800 1.387 . S
C804 C805 1.387 . S
C804 H808 0.950 . S
C804 C813 1.390 . S
C805 C804 1.387 . S
C805 C807 1.387 . S
H806 C813 0.950 . S
C807 C805 1.387 . S
C807 C809 1.390 . S
C807 H811 0.950 . S
H808 C804 0.950 . S
C809 C807 1.390 . S
C809 C810 1.387 . S
C809 H812 0.950 . S
C810 C809 1.387 . S
C810 C813 1.387 . S
H811 C807 0.950 . S
H812 C809 0.950 . S
C813 C804 1.390 . S
C813 H806 0.950 . S
C813 C810 1.387 . S
C814 C815 1.387 . S
C814 H818 0.950 . S
C814 C823 1.390 . S
C815 C814 1.387 . S
C815 C817 1.387 . S
H816 C823 0.950 . S
C817 C815 1.387 . S
C817 C819 1.390 . S
C817 H821 0.950 . S
H818 C814 0.950 . S
C819 C817 1.390 . S
C819 C820 1.387 . S
C819 H822 0.950 . S
C820 C819 1.387 . S
C820 C823 1.387 . S
H821 C817 0.950 . S
H822 C819 0.950 . S
C823 C814 1.390 . S
C823 H816 0.950 . S
C823 C820 1.387 . S
C824 C825 1.387 . S
C824 H828 0.950 . S
C824 C833 1.390 . S
C825 C824 1.387 . S
C825 C827 1.387 . S
H826 C833 0.950 . S
C827 C825 1.387 . S
C827 C829 1.390 . S
C827 H831 0.950 . S
H828 C824 0.950 . S
C829 C827 1.390 . S
C829 C830 1.387 . S
C829 H832 0.950 . S
C830 C829 1.387 . S
C830 C833 1.387 . S
H831 C827 0.950 . S
H832 C829 0.950 . S
C833 C824 1.390 . S
C833 H826 0.950 . S
C833 C830 1.387 . S
C834 C835 1.387 . S
C834 H838 0.950 . S
C834 C843 1.390 . S
C835 C834 1.387 . S
C835 C837 1.387 . S
H836 C843 0.950 . S
C837 C835 1.387 . S
C837 C839 1.390 . S
C837 H841 0.950 . S
H838 C834 0.950 . S
C839 C837 1.390 . S
C839 C840 1.387 . S
C839 H842 0.950 . S
C840 C839 1.387 . S
C840 C843 1.387 . S
H841 C837 0.950 . S
H842 C839 0.950 . S
C843 C834 1.390 . S
C843 H836 0.950 . S
C843 C840 1.387 . S
C844 C845 1.387 . S
C844 H848 0.950 . S
C844 C853 1.390 . S
C845 C844 1.387 . S
C845 C847 1.387 . S
H846 C853 0.950 . S
C847 C845 1.387 . S
C847 C849 1.390 . S
C847 H851 0.950 . S
H848 C844 0.950 . S
C849 C847 1.390 . S
C849 C850 1.387 . S
C849 H852 0.950 . S
C850 C849 1.387 . S
C850 C853 1.387 . S
H851 C847 0.950 . S
H852 C849 0.950 . S
C853 C844 1.390 . S
C853 H846 0.950 . S
C853 C850 1.387 . S
C854 C855 1.387 . S
C854 H858 0.950 . S
C854 C863 1.390 . S
C855 C854 1.387 . S
C855 C857 1.387 . S
H856 C863 0.950 . S
C857 C855 1.387 . S
C857 C859 1.390 . S
C857 H861 0.950 . S
H858 C854 0.950 . S
C859 C857 1.390 . S
C859 C860 1.387 . S
C859 H862 0.950 . S
C860 C859 1.387 . S
C860 C863 1.387 . S
H861 C857 0.950 . S
H862 C859 0.950 . S
C863 C854 1.390 . S
C863 H856 0.950 . S
C863 C860 1.387 . S
C864 C865 1.387 . S
C864 H868 0.950 . S
C864 C873 1.390 . S
C865 C864 1.387 . S
C865 C867 1.387 . S
H866 C873 0.950 . S
C867 C865 1.387 . S
C867 C869 1.390 . S
C867 H871 0.950 . S
H868 C864 0.950 . S
C869 C867 1.390 . S
C869 C870 1.387 . S
C869 H872 0.950 . S
C870 C869 1.387 . S
C870 C873 1.387 . S
H871 C867 0.950 . S
H872 C869 0.950 . S
C873 C864 1.390 . S
C873 H866 0.950 . S
C873 C870 1.387 . S
C874 C875 1.387 . S
C874 H878 0.950 . S
C874 C883 1.390 . S
C875 C874 1.387 . S
C875 C877 1.387 . S
H876 C883 0.950 . S
C877 C875 1.387 . S
C877 C879 1.390 . S
C877 H881 0.950 . S
H878 C874 0.950 . S
C879 C877 1.390 . S
C879 C880 1.387 . S
C879 H882 0.950 . S
C880 C879 1.387 . S
C880 C883 1.387 . S
H881 C877 0.950 . S
H882 C879 0.950 . S
C883 C874 1.390 . S
C883 H876 0.950 . S
C883 C880 1.387 . S
C884 C885 1.387 . S
C884 H888 0.950 . S
C884 C893 1.390 . S
C885 C884 1.387 . S
C885 C887 1.387 . S
H886 C893 0.950 . S
C887 C885 1.387 . S
C887 C889 1.390 . S
C887 H891 0.950 . S
H888 C884 0.950 . S
C889 C887 1.390 . S
C889 C890 1.387 . S
C889 H892 0.950 . S
C890 C889 1.387 . S
C890 C893 1.387 . S
H891 C887 0.950 . S
H892 C889 0.950 . S
C893 C884 1.390 . S
C893 H886 0.950 . S
C893 C890 1.387 . S
C894 C895 1.387 . S
C894 H898 0.950 . S
C894 C903 1.390 . S
C895 C894 1.387 . S
C895 C897 1.387 . S
H896 C903 0.950 . S
C897 C895 1.387 . S
C897 C899 1.390 . S
C897 H901 0.950 . S
H898 C894 0.950 . S
C899 C897 1.390 . S
C899 C900 1.387 . S
C899 H902 0.950 . S
C900 C899 1.387 . S
C900 C903 1.387 . S
H901 C897 0.950 . S
H902 C899 0.950 . S
C903 C894 1.390 . S
C903 H896 0.950 . S
C903 C900 1.387 . S
C904 C905 1.387 . S
C904 H908 0.950 . S
C904 C913 1.390 . S
C905 C904 1.387 . S
C905 C907 1.387 . S
H906 C913 0.950 . S
C907 C905 1.387 . S
C907 C909 1.390 . S
C907 H911 0.950 . S
H908 C904 0.950 . S
C909 C907 1.390 . S
C909 C910 1.387 . S
C909 H912 0.950 . S
C910 C909 1.387 . S
C910 C913 1.387 . S
H911 C907 0.950 . S
H912 C909 0.950 . S
C913 C904 1.390 . S
C913 H906 0.950 . S
C913 C910 1.387 . S
C914 C915 1.387 . S
C914 H918 0.950 . S
C914 C923 1.390 . S
C915 C914 1.387 . S
C915 C917 1.387 . S
H916 C923 0.950 . S
C917 C915 1.387 . S
C917 C919 1.390 . S
C917 H921 0.950 . S
H918 C914 0.950 . S
C919 C917 1.390 . S
C919 C920 1.387 . S
C919 H922 0.950 . S
C920 C919 1.387 . S
C920 C923 1.387 . S
H921 C917 0.950 . S
H922 C919 0.950 . S
C923 C914 1.390 . S
C923 H916 0.950 . S
C923 C920 1.387 . S
C924 C925 1.387 . S
C924 H928 0.950 . S
C924 C933 1.390 . S
C925 C924 1.387 . S
C925 C927 1.387 . S
H926 C933 0.950 . S
C927 C925 1.387 . S
C927 C929 1.390 . S
C927 H931 0.950 . S
H928 C924 0.950 . S
C929 C927 1.390 . S
C929 C930 1.387 . S
C929 H932 0.950 . S
C930 C929 1.387 . S
C930 C933 1.387 . S
H931 C927 0.950 . S
H932 C929 0.950 . S
C933 C924 1.390 . S
C933 H926 0.950 . S
C933 C930 1.387 . S
C934 C935 1.387 . S
C934 H938 0.950 . S
C934 C943 1.390 . S
C935 C934 1.387 . S
C935 C937 1.387 . S
H936 C943 0.950 . S
C937 C935 1.387 . S
C937 C939 1.390 . S
C937 H941 0.950 . S
H938 C934 0.950 . S
C939 C937 1.390 . S
C939 C940 1.387 . S
C939 H942 0.950 . S
C940 C939 1.387 . S
C940 C943 1.387 . S
H941 C937 0.950 . S
H942 C939 0.950 . S
C943 C934 1.390 . S
C943 H936 0.950 . S
C943 C940 1.387 . S
C545 C413 1.533 . S
C550 C9 1.453 . S
C555 C43 1.369 . S
C560 C447 1.482 . S
C565 C77 1.444 . S
C570 C481 1.523 . S
C575 C107 1.493 . S
C580 C519 1.365 . S
C585 C281 1.452 . S
C590 C141 1.527 . S
C595 C311 1.572 . S
C600 C179 1.450 . S
C605 C209 1.513 . S
C610 C349 1.423 . S
C615 C383 1.461 . S
C620 C243 1.588 . S
C625 C33 1.687 . S
C630 C509 1.687 . S
C635 C543 1.756 . S
C640 C67 1.751 . S
C645 C441 1.671 . S
C650 C101 1.675 . S
C655 C475 1.763 . S
C660 C135 1.770 . S
C665 C373 1.882 . S
C670 C169 1.879 . S
C675 C407 1.772 . S
C680 C203 1.766 . S
C685 C305 1.883 . S
C690 C237 1.884 . S
C695 C339 1.768 . S
C700 C271 1.769 . S
C705 C20 1.472 . S
C710 C342 1.490 . S
C715 C376 1.484 . S
C720 C54 1.516 . S
C725 C274 1.531 . S
C730 C88 1.504 . S
C735 C326 1.499 . S
C740 C104 1.472 . S
C745 C138 1.496 . S
C750 C496 1.468 . S
C755 C190 1.477 . S
C760 C512 1.442 . S
C765 C428 1.451 . S
C770 C206 1.483 . S
C775 C240 1.425 . S
C780 C462 1.446 . S
C785 C417 1.320 . S
C790 C5 1.398 . S
C795 C39 1.454 . S
C800 C451 1.337 . S
C805 C73 1.392 . S
C810 C485 1.301 . S
C815 C515 1.432 . S
C820 C111 1.346 . S
C825 C277 1.391 . S
C830 C145 1.308 . S
C835 C175 1.346 . S
C840 C315 1.254 . S
C845 C345 1.408 . S
C850 C213 1.341 . S
C855 C379 1.350 . S
C860 C247 1.254 . S
C865 C172 1.586 . S
C870 C2 1.585 . S
C875 C224 1.629 . S
C880 C36 1.648 . S
C885 C70 1.327 . S
C890 C258 1.309 . S
C895 C156 1.397 . S
C900 C122 1.392 . S
C905 C292 1.655 . S
C910 C444 1.690 . S
C915 C478 1.542 . S
C920 C308 1.536 . S
C925 C530 1.460 . S
C930 C360 1.453 . S
C935 C394 1.359 . S
C940 C410 1.398 . S
