# Generated by pormake.
# Topology mok, (4)-cn, num edge types: 1
# Building blocks:
#     Node 0, Type 0, BuildingBlock: KUFVIS_clean_sbu_0, # of connection points: 4
#     Node 1, Type 0, BuildingBlock: KUFVIS_clean_sbu_0, # of connection points: 4
#     Node 2, Type 0, BuildingBlock: KUFVIS_clean_sbu_0, # of connection points: 4
#     Node 3, Type 0, BuildingBlock: KUFVIS_clean_sbu_0, # of connection points: 4
#     Node 4, Type 0, BuildingBlock: KUFVIS_clean_sbu_0, # of connection points: 4
#     Node 5, Type 0, BuildingBlock: KUFVIS_clean_sbu_0, # of connection points: 4
#     Node 6, Type 0, BuildingBlock: KUFVIS_clean_sbu_0, # of connection points: 4
#     Node 7, Type 0, BuildingBlock: KUFVIS_clean_sbu_0, # of connection points: 4
#     Edge 8, Type (0, 0), BuildingBlock: UVAHIK_clean_linker_0, # of connection points: 2
#     Edge 9, Type (0, 0), BuildingBlock: UVAHIK_clean_linker_0, # of connection points: 2
#     Edge 10, Type (0, 0), BuildingBlock: UVAHIK_clean_linker_0, # of connection points: 2
#     Edge 11, Type (0, 0), BuildingBlock: UVAHIK_clean_linker_0, # of connection points: 2
#     Edge 12, Type (0, 0), BuildingBlock: UVAHIK_clean_linker_0, # of connection points: 2
#     Edge 13, Type (0, 0), BuildingBlock: UVAHIK_clean_linker_0, # of connection points: 2
#     Edge 14, Type (0, 0), BuildingBlock: UVAHIK_clean_linker_0, # of connection points: 2
#     Edge 15, Type (0, 0), BuildingBlock: UVAHIK_clean_linker_0, # of connection points: 2
#     Edge 16, Type (0, 0), BuildingBlock: UVAHIK_clean_linker_0, # of connection points: 2
#     Edge 17, Type (0, 0), BuildingBlock: UVAHIK_clean_linker_0, # of connection points: 2
#     Edge 18, Type (0, 0), BuildingBlock: UVAHIK_clean_linker_0, # of connection points: 2
#     Edge 19, Type (0, 0), BuildingBlock: UVAHIK_clean_linker_0, # of connection points: 2
#     Edge 20, Type (0, 0), BuildingBlock: UVAHIK_clean_linker_0, # of connection points: 2
#     Edge 21, Type (0, 0), BuildingBlock: UVAHIK_clean_linker_0, # of connection points: 2
#     Edge 22, Type (0, 0), BuildingBlock: UVAHIK_clean_linker_0, # of connection points: 2
#     Edge 23, Type (0, 0), BuildingBlock: UVAHIK_clean_linker_0, # of connection points: 2
# Relax obj value: 0.032
# Max RMSD: 0.056
# Mean RMSD: 0.056
data_MOF--net-mok--node1-KUFVIS_clean_sbu_0--edge1-UVAHIK_clean_linker_0
_symmetry_space_group_name_H-M    P1
_symmetry_Int_Tables_number       1
_symmetry_cell_setting            triclinic
loop_
_symmetry_equiv_pos_as_xyz
'x, y, z'
_cell_length_a     68.714282
_cell_length_b     21.300796
_cell_length_c     34.403967
_cell_angle_alpha  90.014122
_cell_angle_beta   89.984259
_cell_angle_gamma 89.998396
loop_
_atom_site_label
_atom_site_type_symbol
_atom_site_fract_x
_atom_site_fract_y
_atom_site_fract_z
_atom_type_partial_charge
Mn0 Mn 0.61734 0.29587 0.00521 0.0
Mn1 Mn 0.57951 0.39388 0.99003 0.0
C2 C 0.61002 0.32984 0.943 0.0
C3 C 0.65027 0.282 0.01999 0.0
C4 C 0.57468 0.25436 0.00616 0.0
O5 O 0.61165 0.33003 0.05942 0.0
O6 O 0.58827 0.40029 0.04475 0.0
C7 C 0.60015 0.51472 0.00047 0.0
N8 N 0.58908 0.47588 0.9781 0.0
C9 C 0.58768 0.55219 0.92663 0.0
C10 C 0.59897 0.59316 0.9492 0.0
C11 C 0.60528 0.57423 0.98623 0.0
C12 C 0.58309 0.49337 0.9423 0.0
H13 H 0.60504 0.50036 0.02894 0.0
C14 C 0.59998 0.37421 0.0688 0.0
O15 O 0.63767 0.23743 0.02577 0.0
O16 O 0.64365 0.33449 0.0063 0.0
N17 N 0.56976 0.39317 0.93792 0.0
C18 C 0.55953 0.34731 0.91933 0.0
C19 C 0.55232 0.35852 0.88177 0.0
C20 C 0.55552 0.4169 0.8639 0.0
C21 C 0.56594 0.46356 0.88373 0.0
C22 C 0.5727 0.44979 0.92116 0.0
H23 H 0.55688 0.30253 0.93303 0.0
O24 O 0.62032 0.27946 0.94806 0.0
O25 O 0.60451 0.35859 0.97433 0.0
O26 O 0.59279 0.2408 0.00738 0.0
O27 O 0.56832 0.31019 0.00107 0.0
C28 C 0.56998 0.52308 0.86776 0.0
C29 C 0.58097 0.56716 0.88907 0.0
H30 H 0.60296 0.63911 0.93832 0.0
H31 H 0.61407 0.60548 0.00376 0.0
H32 H 0.54428 0.32228 0.86666 0.0
H33 H 0.54996 0.42529 0.83491 0.0
H34 H 0.56484 0.53529 0.83899 0.0
H35 H 0.58423 0.61239 0.87624 0.0
Mn36 Mn 0.39091 0.7069 0.00659 0.0
Mn37 Mn 0.42975 0.61154 0.99524 0.0
C38 C 0.39932 0.67092 0.94548 0.0
C39 C 0.35776 0.71909 0.01982 0.0
C40 C 0.43328 0.75206 0.00867 0.0
O41 O 0.39603 0.6755 0.06149 0.0
O42 O 0.42066 0.6079 0.05005 0.0
C43 C 0.40993 0.48982 0.00776 0.0
N44 N 0.42087 0.52818 0.98485 0.0
C45 C 0.4227 0.44975 0.93462 0.0
C46 C 0.41156 0.40924 0.9578 0.0
C47 C 0.40511 0.42944 0.99448 0.0
C48 C 0.42705 0.50936 0.9494 0.0
H49 H 0.40488 0.50526 0.03591 0.0
C50 C 0.40824 0.63408 0.07264 0.0
O51 O 0.37001 0.76474 0.02531 0.0
O52 O 0.36483 0.66656 0.00706 0.0
N53 N 0.43993 0.60995 0.94344 0.0
C54 C 0.45 0.65545 0.92418 0.0
C55 C 0.45732 0.64299 0.88686 0.0
C56 C 0.45434 0.58381 0.86985 0.0
C57 C 0.4441 0.53753 0.89038 0.0
C58 C 0.4373 0.55246 0.92762 0.0
H59 H 0.4524 0.70095 0.93715 0.0
O60 O 0.38861 0.72073 0.94919 0.0
O61 O 0.40462 0.64379 0.97755 0.0
O62 O 0.41504 0.76395 0.00914 0.0
O63 O 0.44017 0.69667 0.00468 0.0
C64 C 0.4402 0.47738 0.8752 0.0
C65 C 0.42943 0.43364 0.89722 0.0
H66 H 0.40777 0.3627 0.94761 0.0
H67 H 0.39642 0.39857 0.01245 0.0
H68 H 0.46522 0.67894 0.8712 0.0
H69 H 0.45992 0.57452 0.84097 0.0
H70 H 0.44524 0.46449 0.84646 0.0
H71 H 0.4263 0.38786 0.88502 0.0
Mn72 Mn 0.61629 0.70267 0.52197 0.0
Mn73 Mn 0.57796 0.60575 0.53473 0.0
C74 C 0.60883 0.66487 0.58322 0.0
C75 C 0.64926 0.71608 0.50744 0.0
C76 C 0.57381 0.74649 0.52249 0.0
O77 O 0.61048 0.67245 0.46699 0.0
O78 O 0.58652 0.60318 0.47971 0.0
C79 C 0.59794 0.48482 0.52033 0.0
N80 N 0.58717 0.52245 0.54404 0.0
C81 C 0.58569 0.44243 0.5933 0.0
C82 C 0.59667 0.40268 0.56932 0.0
C83 C 0.60288 0.42407 0.53273 0.0
C84 C 0.58127 0.50255 0.57943 0.0
H85 H 0.60276 0.50108 0.4922 0.0
C86 C 0.59845 0.63004 0.45641 0.0
O87 O 0.63685 0.76152 0.50285 0.0
O88 O 0.64244 0.66302 0.51983 0.0
N89 N 0.56838 0.60288 0.58696 0.0
C90 C 0.55847 0.64777 0.60709 0.0
C91 C 0.55145 0.63413 0.64449 0.0
C92 C 0.55451 0.57436 0.66063 0.0
C93 C 0.56459 0.52874 0.63921 0.0
C94 C 0.57117 0.54495 0.60202 0.0
H95 H 0.55596 0.69364 0.59474 0.0
O96 O 0.61933 0.71512 0.57944 0.0
O97 O 0.60318 0.63849 0.5512 0.0
O98 O 0.592 0.759 0.52124 0.0
O99 O 0.56715 0.69077 0.52636 0.0
C100 C 0.56846 0.46794 0.65338 0.0
C101 C 0.57913 0.42498 0.63056 0.0
H102 H 0.60052 0.3558 0.57879 0.0
H103 H 0.61143 0.39377 0.51413 0.0
H104 H 0.54368 0.66957 0.66083 0.0
H105 H 0.54912 0.56411 0.68952 0.0
H106 H 0.56344 0.45383 0.6819 0.0
H107 H 0.58226 0.37871 0.64202 0.0
Mn108 Mn 0.39156 0.29959 0.52392 0.0
Mn109 Mn 0.43048 0.39536 0.53289 0.0
C110 C 0.4002 0.3388 0.58415 0.0
C111 C 0.35832 0.28662 0.51176 0.0
C112 C 0.43398 0.2542 0.52267 0.0
O113 O 0.39641 0.32818 0.4683 0.0
O114 O 0.42143 0.39494 0.47805 0.0
C115 C 0.41064 0.51597 0.51683 0.0
N116 N 0.42156 0.47937 0.54087 0.0
C117 C 0.4233 0.56145 0.58881 0.0
C118 C 0.41219 0.60018 0.56446 0.0
C119 C 0.40579 0.57726 0.52836 0.0
C120 C 0.42768 0.50081 0.57577 0.0
H121 H 0.40563 0.49847 0.48912 0.0
C122 C 0.40885 0.36811 0.45615 0.0
O123 O 0.37055 0.24076 0.50684 0.0
O124 O 0.36546 0.33982 0.52323 0.0
N125 N 0.44064 0.40087 0.58458 0.0
C126 C 0.45075 0.35695 0.6051 0.0
C127 C 0.45803 0.3722 0.64206 0.0
C128 C 0.45496 0.43252 0.6574 0.0
C129 C 0.4447 0.47715 0.63556 0.0
C130 C 0.43794 0.45943 0.59877 0.0
H131 H 0.45321 0.31057 0.59341 0.0
O132 O 0.38953 0.28871 0.58159 0.0
O133 O 0.40536 0.36431 0.55148 0.0
O134 O 0.41573 0.24243 0.52205 0.0
O135 O 0.44089 0.30968 0.52587 0.0
C136 C 0.44075 0.53834 0.649 0.0
C137 C 0.42998 0.58035 0.62573 0.0
H138 H 0.40837 0.64742 0.57328 0.0
H139 H 0.39713 0.60675 0.50948 0.0
H140 H 0.46595 0.33752 0.65872 0.0
H141 H 0.4605 0.44397 0.686 0.0
H142 H 0.44578 0.55341 0.67734 0.0
H143 H 0.42683 0.627 0.63659 0.0
Mn144 Mn 0.11659 0.79762 0.0081 0.0
Mn145 Mn 0.07846 0.89446 0.99316 0.0
C146 C 0.10906 0.83124 0.94597 0.0
C147 C 0.14959 0.78572 0.02276 0.0
C148 C 0.07408 0.75477 0.00929 0.0
O149 O 0.11084 0.83145 0.0623 0.0
O150 O 0.08733 0.90139 0.04779 0.0
C151 C 0.09876 0.01597 0.00324 0.0
N152 N 0.08776 0.97669 0.98102 0.0
C153 C 0.08609 0.05267 0.92939 0.0
C154 C 0.09729 0.09409 0.95182 0.0
C155 C 0.10371 0.07555 0.98885 0.0
C156 C 0.08167 0.99382 0.94521 0.0
H157 H 0.10373 0.0019 0.03171 0.0
C158 C 0.09915 0.87554 0.07172 0.0
O159 O 0.1373 0.74026 0.02851 0.0
O160 O 0.14264 0.83775 0.0091 0.0
N161 N 0.06861 0.89321 0.94112 0.0
C162 C 0.05853 0.8469 0.92263 0.0
C163 C 0.05129 0.85764 0.88505 0.0
C164 C 0.05431 0.916 0.86703 0.0
C165 C 0.06457 0.96314 0.88676 0.0
C166 C 0.07138 0.94982 0.92422 0.0
H167 H 0.05603 0.80212 0.93644 0.0
O168 O 0.11958 0.78131 0.95097 0.0
O169 O 0.1035 0.85978 0.97732 0.0
O170 O 0.09224 0.74165 0.01031 0.0
O171 O 0.06756 0.81046 0.0044 0.0
C172 C 0.06843 0.02267 0.87065 0.0
C173 C 0.0793 0.06722 0.89182 0.0
H174 H 0.10115 0.14008 0.94081 0.0
H175 H 0.11243 0.10714 0.00626 0.0
H176 H 0.04337 0.82105 0.87002 0.0
H177 H 0.04874 0.92402 0.838 0.0
H178 H 0.06324 0.03456 0.84186 0.0
H179 H 0.08242 0.11247 0.87887 0.0
Mn180 Mn 0.89172 0.20056 0.008 0.0
Mn181 Mn 0.93141 0.10771 0.00016 0.0
C182 C 0.90065 0.16072 0.94814 0.0
C183 C 0.8584 0.21137 0.02004 0.0
C184 C 0.93375 0.24934 0.0088 0.0
O185 O 0.89667 0.1738 0.0638 0.0
O186 O 0.92232 0.10924 0.05501 0.0
C187 C 0.91307 0.98542 0.01828 0.0
N188 N 0.92364 0.02224 0.99375 0.0
C189 C 0.92789 0.9369 0.94873 0.0
C190 C 0.91716 0.89792 0.97362 0.0
C191 C 0.90966 0.92237 0.00847 0.0
C192 C 0.93083 0.99931 0.96005 0.0
H193 H 0.9073 0.00403 0.04511 0.0
C194 C 0.90943 0.13544 0.0765 0.0
O195 O 0.87029 0.25825 0.0245 0.0
O196 O 0.86591 0.15846 0.00902 0.0
N197 N 0.94169 0.10114 0.94862 0.0
C198 C 0.95049 0.14608 0.9266 0.0
C199 C 0.95809 0.12995 0.89004 0.0
C200 C 0.95678 0.06772 0.87674 0.0
C201 C 0.94782 0.02219 0.9001 0.0
C202 C 0.94048 0.04104 0.93622 0.0
H203 H 0.95162 0.1939 0.93678 0.0
O204 O 0.88969 0.2102 0.95044 0.0
O205 O 0.90599 0.13581 0.98095 0.0
O206 O 0.91543 0.25986 0.0095 0.0
O207 O 0.941 0.19436 0.00586 0.0
C208 C 0.94561 0.95904 0.88872 0.0
C209 C 0.93555 0.91652 0.91289 0.0
H210 H 0.91446 0.8493 0.96612 0.0
H211 H 0.90128 0.89267 0.02774 0.0
H212 H 0.96496 0.16538 0.87216 0.0
H213 H 0.96258 0.05553 0.84845 0.0
H214 H 0.9514 0.94282 0.86121 0.0
H215 H 0.93363 0.8684 0.90346 0.0
Mn216 Mn 0.11688 0.203 0.52514 0.0
Mn217 Mn 0.07868 0.10534 0.53733 0.0
C218 C 0.10912 0.16559 0.58631 0.0
C219 C 0.14998 0.21596 0.5114 0.0
C220 C 0.07432 0.2459 0.52459 0.0
O221 O 0.11139 0.17247 0.4701 0.0
O222 O 0.08756 0.10264 0.48256 0.0
C223 C 0.09903 0.98481 0.52376 0.0
N224 N 0.08802 0.02233 0.5471 0.0
C225 C 0.08639 0.94258 0.5965 0.0
C226 C 0.09761 0.90294 0.57291 0.0
C227 C 0.10401 0.92424 0.53644 0.0
C228 C 0.08193 0.00252 0.58238 0.0
H229 H 0.10399 0.001 0.49572 0.0
C230 C 0.09949 0.12975 0.4594 0.0
O231 O 0.13767 0.26163 0.50642 0.0
O232 O 0.14298 0.16312 0.52371 0.0
N233 N 0.06879 0.10261 0.58933 0.0
C234 C 0.05863 0.14737 0.60906 0.0
C235 C 0.05136 0.13379 0.64628 0.0
C236 C 0.05445 0.0742 0.66264 0.0
C237 C 0.06478 0.02869 0.64163 0.0
C238 C 0.0716 0.04483 0.6046 0.0
H239 H 0.05609 0.1931 0.59652 0.0
O240 O 0.11961 0.21588 0.58263 0.0
O241 O 0.10369 0.13891 0.55425 0.0
O242 O 0.09249 0.25902 0.52374 0.0
O243 O 0.0678 0.19002 0.52847 0.0
C244 C 0.06869 0.96806 0.65604 0.0
C245 C 0.07961 0.92521 0.63363 0.0
H246 H 0.10149 0.8562 0.58259 0.0
H247 H 0.11275 0.89403 0.51814 0.0
H248 H 0.04339 0.16914 0.6623 0.0
H249 H 0.04886 0.06399 0.6914 0.0
H250 H 0.0635 0.95402 0.68447 0.0
H251 H 0.08275 0.87908 0.64527 0.0
Mn252 Mn 0.89038 0.79444 0.52376 0.0
Mn253 Mn 0.92947 0.88818 0.53708 0.0
C254 C 0.8978 0.83143 0.58509 0.0
C255 C 0.85734 0.78393 0.50886 0.0
C256 C 0.93251 0.74733 0.52432 0.0
O257 O 0.89652 0.82491 0.4691 0.0
O258 O 0.92116 0.89196 0.48179 0.0
C259 C 0.91104 0.01166 0.52286 0.0
N260 N 0.92125 0.97251 0.54657 0.0
C261 C 0.92356 0.05191 0.59614 0.0
C262 C 0.91318 0.09323 0.57213 0.0
C263 C 0.90686 0.07295 0.53538 0.0
C264 C 0.92739 0.9915 0.58201 0.0
H265 H 0.9061 0.99619 0.49464 0.0
C266 C 0.90899 0.86598 0.45858 0.0
O267 O 0.86938 0.73744 0.50427 0.0
O268 O 0.86457 0.83628 0.5215 0.0
N269 N 0.93882 0.88937 0.5895 0.0
C270 C 0.94756 0.84251 0.61004 0.0
C271 C 0.95415 0.85442 0.64797 0.0
C272 C 0.9518 0.91442 0.66428 0.0
C273 C 0.94292 0.96204 0.64245 0.0
C274 C 0.93677 0.94754 0.60469 0.0
H275 H 0.94939 0.7963 0.59768 0.0
O276 O 0.88706 0.78173 0.58102 0.0
O277 O 0.90384 0.85765 0.55323 0.0
O278 O 0.91425 0.7359 0.523 0.0
O279 O 0.93947 0.80253 0.52848 0.0
C280 C 0.93956 0.02293 0.65698 0.0
C281 C 0.92987 0.06782 0.63385 0.0
H282 H 0.90981 0.14041 0.58178 0.0
H283 H 0.89874 0.10447 0.51678 0.0
H284 H 0.96095 0.81739 0.66466 0.0
H285 H 0.95672 0.92324 0.69369 0.0
H286 H 0.94407 0.03541 0.68615 0.0
H287 H 0.92709 0.11416 0.64558 0.0
C288 C 0.82843 0.27709 0.02978 0.0
C289 C 0.83714 0.21774 0.02608 0.0
C290 C 0.80818 0.2827 0.0331 0.0
C291 C 0.76263 0.19388 0.01325 0.0
H292 H 0.7389 0.32524 0.07523 0.0
C293 C 0.6792 0.21312 0.03329 0.0
C294 C 0.67136 0.2732 0.02697 0.0
C295 C 0.69935 0.20484 0.03681 0.0
C296 C 0.74534 0.28843 0.0577 0.0
H297 H 0.83153 0.11761 0.02437 0.0
H298 H 0.79642 0.12715 0.0313 0.0
H299 H 0.77425 0.31362 0.07485 0.0
H300 H 0.67846 0.37191 0.02066 0.0
H301 H 0.7135 0.35749 0.02716 0.0
H302 H 0.73368 0.16864 0.99629 0.0
C303 C 0.80507 0.16962 0.03052 0.0
C304 C 0.76561 0.2819 0.05733 0.0
C305 C 0.82525 0.16409 0.02682 0.0
C306 C 0.68403 0.32497 0.02545 0.0
C307 C 0.70412 0.31679 0.02939 0.0
C308 C 0.74238 0.20008 0.01392 0.0
C309 C 0.7962 0.22902 0.03316 0.0
C310 C 0.77456 0.23483 0.03483 0.0
C311 C 0.71204 0.25656 0.03456 0.0
C312 C 0.7335 0.24775 0.03587 0.0
H313 H 0.8372 0.31933 0.02915 0.0
H314 H 0.80192 0.32928 0.03457 0.0
H315 H 0.76894 0.15785 0.99496 0.0
H316 H 0.66981 0.17231 0.03458 0.0
H317 H 0.70502 0.15791 0.04111 0.0
C318 C 0.18272 0.83214 0.03041 0.0
C319 C 0.17074 0.77874 0.02977 0.0
C320 C 0.20289 0.82626 0.03395 0.0
C321 C 0.24253 0.71377 0.05916 0.0
H322 H 0.27369 0.82732 0.99673 0.0
C323 C 0.32423 0.67405 0.02525 0.0
C324 C 0.3366 0.72659 0.02656 0.0
C325 C 0.30411 0.68104 0.02949 0.0
C326 C 0.26521 0.79578 0.01472 0.0
H327 H 0.17045 0.67721 0.03322 0.0
H328 H 0.20577 0.66659 0.03833 0.0
H329 H 0.23844 0.83741 0.99669 0.0
H330 H 0.33759 0.82758 0.03408 0.0
H331 H 0.30236 0.83989 0.04112 0.0
H332 H 0.26949 0.67105 0.07612 0.0
C333 C 0.19957 0.71325 0.03686 0.0
C334 C 0.24496 0.80159 0.01481 0.0
C335 C 0.17932 0.71924 0.03377 0.0
C336 C 0.32844 0.78621 0.03289 0.0
C337 C 0.30827 0.79329 0.03673 0.0
C338 C 0.26282 0.7076 0.05876 0.0
C339 C 0.21166 0.76672 0.0364 0.0
C340 C 0.23331 0.7607 0.03703 0.0
C341 C 0.29587 0.74082 0.03476 0.0
C342 C 0.27438 0.74853 0.0365 0.0
H343 H 0.17654 0.87874 0.02781 0.0
H344 H 0.2116 0.86859 0.03449 0.0
H345 H 0.2341 0.68201 0.07706 0.0
H346 H 0.33006 0.62744 0.02048 0.0
H347 H 0.29494 0.6398 0.02749 0.0
C348 C 0.8275 0.71837 0.49728 0.0
C349 C 0.83619 0.77764 0.50163 0.0
C350 C 0.80726 0.71285 0.49358 0.0
C351 C 0.7618 0.80147 0.51433 0.0
H352 H 0.73781 0.67179 0.45145 0.0
C353 C 0.67837 0.7845 0.49487 0.0
C354 C 0.67038 0.72446 0.5005 0.0
C355 C 0.69853 0.79231 0.49128 0.0
C356 C 0.74432 0.70812 0.46924 0.0
H357 H 0.83058 0.87775 0.50382 0.0
H358 H 0.79552 0.8684 0.49621 0.0
H359 H 0.77318 0.68291 0.45168 0.0
H360 H 0.67722 0.62536 0.50551 0.0
H361 H 0.71229 0.639 0.49896 0.0
H362 H 0.73293 0.82671 0.53176 0.0
C363 C 0.80416 0.8259 0.49682 0.0
C364 C 0.7646 0.71437 0.46951 0.0
C365 C 0.82431 0.83132 0.50091 0.0
C366 C 0.68291 0.67229 0.50127 0.0
C367 C 0.70301 0.68002 0.49729 0.0
C368 C 0.74155 0.79554 0.51378 0.0
C369 C 0.79529 0.76656 0.4938 0.0
C370 C 0.77364 0.76089 0.49228 0.0
C371 C 0.71109 0.74018 0.4928 0.0
C372 C 0.73257 0.74852 0.49148 0.0
H373 H 0.83626 0.67611 0.49788 0.0
H374 H 0.80098 0.66633 0.49175 0.0
H375 H 0.76818 0.83703 0.53286 0.0
H376 H 0.6691 0.82562 0.49415 0.0
H377 H 0.70431 0.83922 0.48749 0.0
C378 C 0.17962 0.28327 0.50124 0.0
C379 C 0.17116 0.22354 0.505 0.0
C380 C 0.19988 0.28978 0.49841 0.0
C381 C 0.24551 0.20277 0.52048 0.0
H382 H 0.26965 0.33288 0.45818 0.0
C383 C 0.32894 0.21881 0.50064 0.0
C384 C 0.3371 0.27868 0.50591 0.0
C385 C 0.30874 0.21145 0.49757 0.0
C386 C 0.2631 0.29648 0.47585 0.0
H387 H 0.17723 0.12368 0.50701 0.0
H388 H 0.21229 0.13477 0.5009 0.0
H389 H 0.23428 0.32143 0.45785 0.0
H390 H 0.33051 0.37795 0.51102 0.0
H391 H 0.29536 0.36509 0.50541 0.0
H392 H 0.27433 0.17768 0.53828 0.0
C393 C 0.20346 0.17687 0.50134 0.0
C394 C 0.24281 0.29003 0.47578 0.0
C395 C 0.1833 0.17045 0.50455 0.0
C396 C 0.32469 0.33114 0.50703 0.0
C397 C 0.30454 0.32385 0.5036 0.0
C398 C 0.26576 0.2089 0.52027 0.0
C399 C 0.21209 0.23663 0.49894 0.0
C400 C 0.23373 0.24319 0.49822 0.0
C401 C 0.29631 0.26387 0.49931 0.0
C402 C 0.2748 0.25598 0.49811 0.0
H403 H 0.17065 0.32507 0.50165 0.0
H404 H 0.20597 0.3366 0.49699 0.0
H405 H 0.23909 0.16702 0.5388 0.0
H406 H 0.33811 0.17748 0.49964 0.0
H407 H 0.30284 0.16467 0.49392 0.0
C408 C 0.5882 0.45003 0.119 0.0
C409 C 0.60027 0.39914 0.10905 0.0
C410 C 0.58863 0.4755 0.15626 0.0
C411 C 0.61852 0.48836 0.24471 0.0
H412 H 0.56923 0.53461 0.29166 0.0
C413 C 0.58522 0.56218 0.40335 0.0
C414 C 0.59871 0.60777 0.41557 0.0
C415 C 0.58589 0.53798 0.36577 0.0
C416 C 0.58312 0.52168 0.27908 0.0
H417 H 0.62238 0.3354 0.13078 0.0
H418 H 0.62288 0.37966 0.19642 0.0
H419 H 0.56962 0.48666 0.22758 0.0
H420 H 0.62347 0.66386 0.39745 0.0
H421 H 0.62445 0.62188 0.33128 0.0
H422 H 0.63194 0.52236 0.29689 0.0
C423 C 0.61324 0.40005 0.17496 0.0
C424 C 0.58335 0.49473 0.24217 0.0
C425 C 0.61284 0.37441 0.13746 0.0
C426 C 0.61282 0.62898 0.38899 0.0
C427 C 0.61349 0.60457 0.35121 0.0
C428 C 0.61828 0.51542 0.28179 0.0
C429 C 0.60107 0.45077 0.18474 0.0
C430 C 0.60104 0.47786 0.22449 0.0
C431 C 0.60003 0.55872 0.33927 0.0
C432 C 0.60055 0.53216 0.2994 0.0
H433 H 0.57845 0.47089 0.09792 0.0
H434 H 0.57932 0.51526 0.16261 0.0
H435 H 0.63238 0.47639 0.23169 0.0
H436 H 0.57419 0.54433 0.42296 0.0
H437 H 0.57549 0.50204 0.3577 0.0
C438 C 0.39009 0.61273 0.13447 0.0
C439 C 0.40764 0.61261 0.11344 0.0
C440 C 0.38932 0.58705 0.17189 0.0
C441 C 0.41868 0.55245 0.25693 0.0
H442 H 0.38259 0.41654 0.27764 0.0
C443 C 0.42531 0.40811 0.39658 0.0
C444 C 0.40822 0.38793 0.41507 0.0
C445 C 0.42462 0.4336 0.35927 0.0
C446 C 0.39255 0.45508 0.27266 0.0
H447 H 0.43821 0.58745 0.11544 0.0
H448 H 0.43694 0.54455 0.18121 0.0
H449 H 0.38198 0.46944 0.21463 0.0
H450 H 0.37702 0.37735 0.40886 0.0
H451 H 0.37563 0.42417 0.34417 0.0
H452 H 0.42898 0.5401 0.31488 0.0
C453 C 0.42379 0.56373 0.16855 0.0
C454 C 0.3922 0.48519 0.23652 0.0
C455 C 0.42448 0.5881 0.13093 0.0
C456 C 0.39045 0.39207 0.39509 0.0
C457 C 0.38969 0.41884 0.35796 0.0
C458 C 0.41881 0.52325 0.29322 0.0
C459 C 0.40616 0.56221 0.18913 0.0
C460 C 0.40546 0.53351 0.22823 0.0
C461 C 0.40675 0.44101 0.33983 0.0
C462 C 0.40598 0.47341 0.30143 0.0
H463 H 0.37686 0.63087 0.12157 0.0
H464 H 0.37558 0.58656 0.18735 0.0
H465 H 0.42891 0.59009 0.25128 0.0
H466 H 0.43924 0.40481 0.41118 0.0
H467 H 0.43815 0.44812 0.34589 0.0
C468 C 0.39207 0.57841 0.90448 0.0
C469 C 0.40025 0.63847 0.90792 0.0
C470 C 0.39224 0.54726 0.86883 0.0
C471 C 0.41878 0.52769 0.78047 0.0
H472 H 0.3701 0.47402 0.73386 0.0
C473 C 0.39314 0.43344 0.62346 0.0
C474 C 0.40124 0.37312 0.62106 0.0
C475 C 0.39324 0.46605 0.65862 0.0
C476 C 0.38376 0.4886 0.74675 0.0
H477 H 0.41413 0.71477 0.8771 0.0
H478 H 0.41514 0.65885 0.81441 0.0
H479 H 0.36972 0.53221 0.79546 0.0
H480 H 0.41499 0.29801 0.65322 0.0
H481 H 0.41585 0.3565 0.71503 0.0
H482 H 0.43282 0.48182 0.73247 0.0
C483 C 0.40869 0.63608 0.83944 0.0
C484 C 0.38354 0.52173 0.78177 0.0
C485 C 0.4081 0.66791 0.87503 0.0
C486 C 0.40902 0.34503 0.65447 0.0
C487 C 0.40952 0.3783 0.68955 0.0
C488 C 0.41901 0.49296 0.74597 0.0
C489 C 0.40072 0.57557 0.83616 0.0
C490 C 0.40104 0.54177 0.79876 0.0
C491 C 0.40157 0.43892 0.69178 0.0
C492 C 0.40149 0.47361 0.72881 0.0
H493 H 0.38553 0.5556 0.92942 0.0
H494 H 0.38601 0.50064 0.86687 0.0
H495 H 0.43242 0.54262 0.7932 0.0
H496 H 0.38664 0.45521 0.59812 0.0
H497 H 0.38697 0.51269 0.65987 0.0
C498 C 0.60202 0.3321 0.87216 0.0
C499 C 0.60991 0.36125 0.90511 0.0
C500 C 0.60188 0.36367 0.83647 0.0
C501 C 0.62755 0.47762 0.77898 0.0
H502 H 0.57819 0.52289 0.73197 0.0
C503 C 0.60113 0.6586 0.65408 0.0
C504 C 0.60864 0.63097 0.62028 0.0
C505 C 0.60113 0.6251 0.68908 0.0
C506 C 0.59203 0.5101 0.74473 0.0
H507 H 0.62515 0.44309 0.9267 0.0
H508 H 0.62544 0.49751 0.86403 0.0
H509 H 0.57865 0.45859 0.79113 0.0
H510 H 0.6233 0.54961 0.59646 0.0
H511 H 0.62386 0.49177 0.658 0.0
H512 H 0.64095 0.52647 0.73145 0.0
C513 C 0.6189 0.45134 0.86594 0.0
C514 C 0.59229 0.47353 0.77843 0.0
C515 C 0.61862 0.4205 0.90166 0.0
C516 C 0.61705 0.57105 0.62216 0.0
C517 C 0.61746 0.53825 0.6572 0.0
C518 C 0.6273 0.51221 0.74451 0.0
C519 C 0.61032 0.42352 0.83323 0.0
C520 C 0.61004 0.45782 0.79605 0.0
C521 C 0.60933 0.56476 0.69076 0.0
C522 C 0.60953 0.52912 0.7274 0.0
H523 H 0.59553 0.28589 0.87429 0.0
H524 H 0.59529 0.3414 0.81142 0.0
H525 H 0.64139 0.46593 0.79219 0.0
H526 H 0.59489 0.70528 0.65317 0.0
H527 H 0.59491 0.64635 0.71484 0.0
C528 C 0.0879 0.95252 0.12171 0.0
C529 C 0.09965 0.90082 0.11185 0.0
C530 C 0.08862 0.97844 0.15883 0.0
C531 C 0.11884 0.99014 0.24693 0.0
H532 H 0.0699 0.03868 0.29446 0.0
C533 C 0.08622 0.0626 0.40613 0.0
C534 C 0.09979 0.10778 0.41854 0.0
C535 C 0.08678 0.03907 0.3684 0.0
C536 C 0.08369 0.02514 0.28169 0.0
H537 H 0.12149 0.83608 0.13356 0.0
H538 H 0.12247 0.88104 0.19896 0.0
H539 H 0.06989 0.99121 0.23025 0.0
H540 H 0.12464 0.16371 0.40066 0.0
H541 H 0.12544 0.12278 0.3342 0.0
H542 H 0.13255 0.02297 0.29911 0.0
C543 C 0.11287 0.90176 0.17754 0.0
C544 C 0.0837 0.99847 0.24472 0.0
C545 C 0.11219 0.87572 0.14019 0.0
C546 C 0.11392 0.12915 0.39204 0.0
C547 C 0.11449 0.10536 0.3541 0.0
C548 C 0.11883 0.01693 0.28408 0.0
C549 C 0.10103 0.9533 0.18723 0.0
C550 C 0.10125 0.98065 0.22689 0.0
C551 C 0.10089 0.06008 0.34195 0.0
C552 C 0.10122 0.03437 0.3019 0.0
H553 H 0.07821 0.9737 0.10064 0.0
H554 H 0.07956 0.01881 0.16513 0.0
H555 H 0.1326 0.97744 0.23377 0.0
H556 H 0.07517 0.04466 0.42566 0.0
H557 H 0.07629 0.00351 0.36015 0.0
C558 C 0.89128 0.88983 0.39675 0.0
C559 C 0.90873 0.88832 0.41798 0.0
C560 C 0.89064 0.91812 0.36009 0.0
C561 C 0.91867 0.03048 0.29866 0.0
H562 H 0.88458 0.97029 0.21694 0.0
C563 C 0.92581 0.09683 0.13661 0.0
C564 C 0.90877 0.11679 0.11777 0.0
C565 C 0.92504 0.07351 0.17447 0.0
C566 C 0.89401 0.98785 0.23972 0.0
H567 H 0.93938 0.912 0.41676 0.0
H568 H 0.93857 0.95822 0.3522 0.0
H569 H 0.88517 0.91624 0.2795 0.0
H570 H 0.87756 0.12859 0.12381 0.0
H571 H 0.87617 0.08606 0.18999 0.0
H572 H 0.92808 0.10034 0.25795 0.0
C573 C 0.92514 0.94022 0.36431 0.0
C574 C 0.89434 0.95708 0.27561 0.0
C575 C 0.92568 0.9131 0.40119 0.0
C576 C 0.89095 0.114 0.13778 0.0
C577 C 0.89012 0.08933 0.17542 0.0
C578 C 0.91858 0.06043 0.26258 0.0
C579 C 0.90752 0.94454 0.34361 0.0
C580 C 0.90679 0.97772 0.3055 0.0
C581 C 0.90715 0.06849 0.19391 0.0
C582 C 0.90632 0.03921 0.23279 0.0
H583 H 0.87793 0.87162 0.40918 0.0
H584 H 0.87676 0.92106 0.34532 0.0
H585 H 0.92805 0.04898 0.32119 0.0
H586 H 0.93974 0.09852 0.12188 0.0
H587 H 0.93834 0.05742 0.18812 0.0
C588 C 0.89208 0.92695 0.62442 0.0
C589 C 0.89827 0.86438 0.6225 0.0
C590 C 0.8926 0.95951 0.65956 0.0
C591 C 0.91535 0.95349 0.7574 0.0
H592 H 0.87669 0.08056 0.78125 0.0
C593 C 0.89779 0.06362 0.90858 0.0
C594 C 0.90247 0.12762 0.91084 0.0
C595 C 0.89843 0.03232 0.87296 0.0
C596 C 0.88762 0.04548 0.77467 0.0
H597 H 0.90803 0.78434 0.65579 0.0
H598 H 0.90866 0.84069 0.71785 0.0
H599 H 0.87432 0.02157 0.72057 0.0
H600 H 0.90997 0.21056 0.87776 0.0
H601 H 0.91049 0.15583 0.81472 0.0
H602 H 0.92805 0.97633 0.81254 0.0
C603 C 0.90421 0.86573 0.69196 0.0
C604 C 0.88636 0.01181 0.73993 0.0
C605 C 0.90374 0.83326 0.65663 0.0
C606 C 0.90684 0.16075 0.87669 0.0
C607 C 0.90713 0.12967 0.84087 0.0
C608 C 0.91638 0.9865 0.79242 0.0
C609 C 0.89894 0.92963 0.69373 0.0
C610 C 0.9002 0.96525 0.73085 0.0
C611 C 0.90302 0.06522 0.83892 0.0
C612 C 0.90253 0.03259 0.80123 0.0
H613 H 0.88713 0.95108 0.59852 0.0
H614 H 0.88854 0.00861 0.65957 0.0
H615 H 0.92652 0.91912 0.75105 0.0
H616 H 0.89342 0.03796 0.93431 0.0
H617 H 0.89488 0.98279 0.87184 0.0
C618 C 0.11748 0.9222 0.90486 0.0
C619 C 0.10888 0.86276 0.90818 0.0
C620 C 0.11777 0.95307 0.86918 0.0
C621 C 0.12681 0.97874 0.78238 0.0
H622 H 0.07768 0.02467 0.73469 0.0
C623 C 0.1173 0.07225 0.6256 0.0
C624 C 0.10877 0.13194 0.6234 0.0
C625 C 0.1175 0.03956 0.66067 0.0
C626 C 0.09145 0.01171 0.74766 0.0
H627 H 0.09469 0.78716 0.87722 0.0
H628 H 0.0945 0.84274 0.81436 0.0
H629 H 0.07784 0.96043 0.7939 0.0
H630 H 0.09459 0.20605 0.65575 0.0
H631 H 0.09425 0.1473 0.71748 0.0
H632 H 0.14045 0.02735 0.73506 0.0
C633 C 0.10098 0.86512 0.8395 0.0
C634 C 0.09154 0.97519 0.78136 0.0
C635 C 0.10109 0.83352 0.87517 0.0
C636 C 0.10093 0.15952 0.65692 0.0
C637 C 0.10073 0.12612 0.69193 0.0
C638 C 0.12673 0.0133 0.74793 0.0
C639 C 0.10934 0.92509 0.83639 0.0
C640 C 0.10922 0.95924 0.79921 0.0
C641 C 0.10904 0.06598 0.69392 0.0
C642 C 0.10904 0.03044 0.73057 0.0
H643 H 0.12393 0.94484 0.92996 0.0
H644 H 0.12426 0.99935 0.86733 0.0
H645 H 0.14059 0.96685 0.79579 0.0
H646 H 0.12379 0.05088 0.60012 0.0
H647 H 0.12399 0.99323 0.66171 0.0
C648 C 0.44103 0.86764 0.01317 0.0
C649 C 0.44738 0.80487 0.01189 0.0
C650 C 0.45449 0.91699 0.01476 0.0
C651 C 0.50594 0.95307 0.03881 0.0
H652 H 0.49776 0.09843 0.97307 0.0
C653 C 0.5659 0.13977 0.01225 0.0
C654 C 0.5601 0.20299 0.00978 0.0
C655 C 0.55202 0.09169 0.01421 0.0
C656 C 0.50017 0.05861 0.99203 0.0
H657 H 0.47303 0.74521 0.01173 0.0
H658 H 0.49632 0.8309 0.01434 0.0
H659 H 0.47362 0.01468 0.97408 0.0
H660 H 0.53498 0.26487 0.00818 0.0
H661 H 0.51096 0.18148 0.01219 0.0
H662 H 0.53252 0.99693 0.05671 0.0
C663 C 0.48094 0.84205 0.0145 0.0
C664 C 0.4863 0.01054 0.9926 0.0
C665 C 0.46752 0.79282 0.01276 0.0
C666 C 0.54007 0.21682 0.00986 0.0
C667 C 0.52623 0.16886 0.0119 0.0
C668 C 0.5198 0.00122 0.03832 0.0
C669 C 0.47462 0.90477 0.0153 0.0
C670 C 0.48905 0.95702 0.01585 0.0
C671 C 0.53199 0.10562 0.01381 0.0
C672 C 0.51714 0.05454 0.0148 0.0
H673 H 0.42565 0.87882 0.01259 0.0
H674 H 0.44913 0.96477 0.01577 0.0
H675 H 0.5084 0.91291 0.05748 0.0
H676 H 0.58118 0.12721 0.01213 0.0
H677 H 0.557 0.04349 0.01521 0.0
C678 C 0.53941 0.78659 0.52093 0.0
C679 C 0.55954 0.79896 0.52022 0.0
C680 C 0.52589 0.8356 0.51979 0.0
C681 C 0.52077 0.00495 0.54005 0.0
H682 H 0.47377 0.98993 0.47835 0.0
C683 C 0.46822 0.2133 0.51956 0.0
C684 C 0.44807 0.20124 0.52042 0.0
C685 C 0.48165 0.16409 0.51857 0.0
C686 C 0.4867 0.99461 0.4961 0.0
H687 H 0.58111 0.87325 0.51743 0.0
H688 H 0.55748 0.95871 0.51526 0.0
H689 H 0.49762 0.90505 0.47798 0.0
H690 H 0.42638 0.12723 0.52065 0.0
H691 H 0.44987 0.04125 0.51936 0.0
H692 H 0.50984 0.09418 0.55843 0.0
C693 C 0.5522 0.9109 0.51707 0.0
C694 C 0.5004 0.94596 0.49584 0.0
C695 C 0.56576 0.8618 0.51809 0.0
C696 C 0.44175 0.13841 0.51989 0.0
C697 C 0.45524 0.08905 0.51896 0.0
C698 C 0.50706 0.05349 0.54038 0.0
C699 C 0.53209 0.8984 0.51802 0.0
C700 C 0.51762 0.95054 0.5178 0.0
C701 C 0.47537 0.10129 0.51852 0.0
C702 C 0.48985 0.04906 0.51836 0.0
H703 H 0.53401 0.73891 0.52269 0.0
H704 H 0.51054 0.82426 0.52108 0.0
H705 H 0.53369 0.0096 0.55783 0.0
H706 H 0.47371 0.26095 0.51975 0.0
H707 H 0.497 0.17541 0.51754 0.0
C708 C 0.0656 0.63991 0.01446 0.0
C709 C 0.05963 0.70301 0.01258 0.0
C710 C 0.05184 0.59144 0.01561 0.0
C711 C 0.99992 0.55786 0.03683 0.0
H712 H 0.00883 0.41146 0.97231 0.0
C713 C 0.94111 0.36555 0.01165 0.0
C714 C 0.94761 0.30292 0.01089 0.0
C715 C 0.95449 0.41528 0.01268 0.0
C716 C 0.0062 0.45165 0.99086 0.0
H717 H 0.03434 0.76424 0.01109 0.0
H718 H 0.01052 0.67995 0.01294 0.0
H719 H 0.03291 0.49526 0.97372 0.0
H720 H 0.97344 0.24395 0.01128 0.0
H721 H 0.99646 0.32992 0.01361 0.0
H722 H 0.97319 0.51404 0.05399 0.0
C723 C 0.02583 0.66792 0.01386 0.0
C724 C 0.02004 0.49971 0.99169 0.0
C725 C 0.03955 0.71631 0.01258 0.0
C726 C 0.96779 0.29142 0.0116 0.0
C727 C 0.98108 0.34089 0.01267 0.0
C728 C 0.98607 0.50964 0.03606 0.0
C729 C 0.03178 0.60486 0.01505 0.0
C730 C 0.01711 0.55337 0.01473 0.0
C731 C 0.97466 0.40348 0.01293 0.0
C732 C 0.98907 0.45579 0.01317 0.0
H733 H 0.08091 0.62778 0.01459 0.0
H734 H 0.05692 0.54336 0.01702 0.0
H735 H 0.9973 0.59827 0.0552 0.0
H736 H 0.9257 0.37626 0.01107 0.0
H737 H 0.94903 0.46298 0.01254 0.0
C738 C 0.03979 0.28426 0.52169 0.0
C739 C 0.05986 0.29771 0.52188 0.0
C740 C 0.02603 0.33251 0.52032 0.0
C741 C 0.01983 0.50085 0.54191 0.0
H742 H 0.97335 0.48475 0.47872 0.0
C743 C 0.96677 0.70707 0.52131 0.0
C744 C 0.94665 0.69453 0.52181 0.0
C745 C 0.98031 0.65827 0.52024 0.0
C746 C 0.98613 0.48967 0.49688 0.0
H747 H 0.08107 0.37314 0.52035 0.0
H748 H 0.057 0.45739 0.51778 0.0
H749 H 0.9977 0.40126 0.47819 0.0
H750 H 0.9251 0.6201 0.52115 0.0
H751 H 0.94885 0.5346 0.51968 0.0
H752 H 0.00827 0.5889 0.56085 0.0
C753 C 0.05196 0.40926 0.51907 0.0
C754 C 1.00012 0.44186 0.49652 0.0
C755 C 0.06577 0.36089 0.52031 0.0
C756 C 0.94045 0.6316 0.52072 0.0
C757 C 0.95408 0.58256 0.51971 0.0
C758 C 0.00585 0.54853 0.54233 0.0
C759 C 0.03192 0.39563 0.51921 0.0
C760 C 0.01716 0.44691 0.519 0.0
C761 C 0.97419 0.59535 0.51977 0.0
C762 C 0.98884 0.5437 0.51974 0.0
H763 H 0.0346 0.23628 0.52296 0.0
H764 H 0.01073 0.3203 0.52098 0.0
H765 H 0.03259 0.50577 0.56013 0.0
H766 H 0.97218 0.75481 0.52186 0.0
H767 H 0.99564 0.67 0.51954 0.0
loop_
_geom_bond_atom_site_label_1
_geom_bond_atom_site_label_2
_geom_bond_distance
_geom_bond_site_symmetry_2
_ccdc_geom_bond_type
Mn0 O5 2.095 . S
Mn0 O15 2.162 . S
Mn0 O16 2.297 . S
Mn0 O24 2.385 1_554 S
Mn0 O25 2.209 1_554 S
Mn0 O26 2.094 . S
Mn1 O6 2.121 . S
Mn1 N8 2.257 1_554 S
Mn1 N17 2.282 1_554 S
Mn1 O25 2.215 1_554 S
Mn1 O27 2.117 . S
C2 O24 1.234 . S
C2 O25 1.283 . S
C3 O15 1.281 . S
C3 O16 1.236 . S
C4 O26 1.240 . S
C4 O27 1.264 . S
O5 Mn0 2.095 . S
O5 C14 1.250 . S
O6 Mn1 2.121 . S
O6 C14 1.258 . S
C7 N8 1.326 1_554 S
C7 C11 1.460 . S
C7 H13 0.929 . S
N8 Mn1 2.257 1_556 S
N8 C7 1.326 1_556 S
N8 C12 1.362 . S
C9 C10 1.258 . S
C9 C12 1.431 . S
C9 C29 1.449 . S
C10 C9 1.258 . S
C10 C11 1.477 1_556 S
C10 H30 0.931 . S
C11 C7 1.460 . S
C11 C10 1.477 1_554 S
C11 H31 0.930 . S
C12 N8 1.362 . S
C12 C9 1.431 . S
C12 C22 1.476 . S
H13 C7 0.929 . S
C14 O5 1.250 . S
C14 O6 1.258 . S
O15 Mn0 2.162 . S
O15 C3 1.281 . S
O16 Mn0 2.297 . S
O16 C3 1.236 . S
N17 Mn1 2.282 1_556 S
N17 C18 1.328 . S
N17 C22 1.318 . S
C18 N17 1.328 . S
C18 C19 1.457 . S
C18 H23 0.929 . S
C19 C18 1.457 . S
C19 C20 1.291 . S
C19 H32 0.931 . S
C20 C19 1.291 . S
C20 C21 1.373 . S
C20 H33 0.929 . S
C21 C20 1.373 . S
C21 C22 1.396 . S
C21 C28 1.403 . S
C22 C12 1.476 . S
C22 N17 1.318 . S
C22 C21 1.396 . S
H23 C18 0.929 . S
O24 Mn0 2.385 1_556 S
O24 C2 1.234 . S
O25 Mn0 2.209 1_556 S
O25 Mn1 2.215 1_556 S
O25 C2 1.283 . S
O26 Mn0 2.094 . S
O26 C4 1.240 . S
O27 Mn1 2.117 . S
O27 C4 1.264 . S
C28 C21 1.403 . S
C28 C29 1.399 . S
C28 H34 0.929 . S
C29 C9 1.449 . S
C29 C28 1.399 . S
C29 H35 0.930 . S
H30 C10 0.931 . S
H31 C11 0.930 . S
H32 C19 0.931 . S
H33 C20 0.929 . S
H34 C28 0.929 . S
H35 C29 0.930 . S
Mn36 O41 2.095 . S
Mn36 O51 2.162 . S
Mn36 O52 2.297 . S
Mn36 O60 2.385 1_554 S
Mn36 O61 2.209 1_554 S
Mn36 O62 2.094 . S
Mn37 O42 2.121 . S
Mn37 N44 2.257 1_554 S
Mn37 N53 2.282 1_554 S
Mn37 O61 2.215 1_554 S
Mn37 O63 2.117 . S
C38 O60 1.234 . S
C38 O61 1.283 . S
C39 O51 1.281 . S
C39 O52 1.236 . S
C40 O62 1.240 . S
C40 O63 1.264 . S
O41 Mn36 2.095 . S
O41 C50 1.250 . S
O42 Mn37 2.121 . S
O42 C50 1.258 . S
C43 N44 1.326 1_554 S
C43 C47 1.460 . S
C43 H49 0.929 . S
N44 Mn37 2.257 1_556 S
N44 C43 1.326 1_556 S
N44 C48 1.362 . S
C45 C46 1.258 . S
C45 C48 1.431 . S
C45 C65 1.449 . S
C46 C45 1.258 . S
C46 C47 1.477 1_556 S
C46 H66 0.931 . S
C47 C43 1.460 . S
C47 C46 1.477 1_554 S
C47 H67 0.930 . S
C48 N44 1.362 . S
C48 C45 1.431 . S
C48 C58 1.476 . S
H49 C43 0.929 . S
C50 O41 1.250 . S
C50 O42 1.258 . S
O51 Mn36 2.162 . S
O51 C39 1.281 . S
O52 Mn36 2.297 . S
O52 C39 1.236 . S
N53 Mn37 2.282 1_556 S
N53 C54 1.328 . S
N53 C58 1.318 . S
C54 N53 1.328 . S
C54 C55 1.457 . S
C54 H59 0.929 . S
C55 C54 1.457 . S
C55 C56 1.291 . S
C55 H68 0.931 . S
C56 C55 1.291 . S
C56 C57 1.373 . S
C56 H69 0.929 . S
C57 C56 1.373 . S
C57 C58 1.396 . S
C57 C64 1.403 . S
C58 C48 1.476 . S
C58 N53 1.318 . S
C58 C57 1.396 . S
H59 C54 0.929 . S
O60 Mn36 2.385 1_556 S
O60 C38 1.234 . S
O61 Mn36 2.209 1_556 S
O61 Mn37 2.215 1_556 S
O61 C38 1.283 . S
O62 Mn36 2.094 . S
O62 C40 1.240 . S
O63 Mn37 2.117 . S
O63 C40 1.264 . S
C64 C57 1.403 . S
C64 C65 1.399 . S
C64 H70 0.929 . S
C65 C45 1.449 . S
C65 C64 1.399 . S
C65 H71 0.930 . S
H66 C46 0.931 . S
H67 C47 0.930 . S
H68 C55 0.931 . S
H69 C56 0.929 . S
H70 C64 0.929 . S
H71 C65 0.930 . S
Mn72 O77 2.095 . S
Mn72 O87 2.162 . S
Mn72 O88 2.297 . S
Mn72 O96 2.385 . S
Mn72 O97 2.209 . S
Mn72 O98 2.094 . S
Mn73 O78 2.121 . S
Mn73 N80 2.257 . S
Mn73 N89 2.282 . S
Mn73 O97 2.215 . S
Mn73 O99 2.117 . S
C74 O96 1.234 . S
C74 O97 1.283 . S
C75 O87 1.281 . S
C75 O88 1.236 . S
C76 O98 1.240 . S
C76 O99 1.264 . S
O77 Mn72 2.095 . S
O77 C86 1.250 . S
O78 Mn73 2.121 . S
O78 C86 1.258 . S
C79 N80 1.326 . S
C79 C83 1.460 . S
C79 H85 0.929 . S
N80 Mn73 2.257 . S
N80 C79 1.326 . S
N80 C84 1.362 . S
C81 C82 1.258 . S
C81 C84 1.431 . S
C81 C101 1.449 . S
C82 C81 1.258 . S
C82 C83 1.477 . S
C82 H102 0.931 . S
C83 C79 1.460 . S
C83 C82 1.477 . S
C83 H103 0.930 . S
C84 N80 1.362 . S
C84 C81 1.431 . S
C84 C94 1.476 . S
H85 C79 0.929 . S
C86 O77 1.250 . S
C86 O78 1.258 . S
O87 Mn72 2.162 . S
O87 C75 1.281 . S
O88 Mn72 2.297 . S
O88 C75 1.236 . S
N89 Mn73 2.282 . S
N89 C90 1.328 . S
N89 C94 1.318 . S
C90 N89 1.328 . S
C90 C91 1.457 . S
C90 H95 0.929 . S
C91 C90 1.457 . S
C91 C92 1.291 . S
C91 H104 0.931 . S
C92 C91 1.291 . S
C92 C93 1.373 . S
C92 H105 0.929 . S
C93 C92 1.373 . S
C93 C94 1.396 . S
C93 C100 1.403 . S
C94 C84 1.476 . S
C94 N89 1.318 . S
C94 C93 1.396 . S
H95 C90 0.929 . S
O96 Mn72 2.385 . S
O96 C74 1.234 . S
O97 Mn72 2.209 . S
O97 Mn73 2.215 . S
O97 C74 1.283 . S
O98 Mn72 2.094 . S
O98 C76 1.240 . S
O99 Mn73 2.117 . S
O99 C76 1.264 . S
C100 C93 1.403 . S
C100 C101 1.399 . S
C100 H106 0.929 . S
C101 C81 1.449 . S
C101 C100 1.399 . S
C101 H107 0.930 . S
H102 C82 0.931 . S
H103 C83 0.930 . S
H104 C91 0.931 . S
H105 C92 0.929 . S
H106 C100 0.929 . S
H107 C101 0.930 . S
Mn108 O113 2.095 . S
Mn108 O123 2.162 . S
Mn108 O124 2.297 . S
Mn108 O132 2.385 . S
Mn108 O133 2.209 . S
Mn108 O134 2.094 . S
Mn109 O114 2.121 . S
Mn109 N116 2.257 . S
Mn109 N125 2.282 . S
Mn109 O133 2.215 . S
Mn109 O135 2.117 . S
C110 O132 1.234 . S
C110 O133 1.283 . S
C111 O123 1.281 . S
C111 O124 1.236 . S
C112 O134 1.240 . S
C112 O135 1.264 . S
O113 Mn108 2.095 . S
O113 C122 1.250 . S
O114 Mn109 2.121 . S
O114 C122 1.258 . S
C115 N116 1.326 . S
C115 C119 1.460 . S
C115 H121 0.929 . S
N116 Mn109 2.257 . S
N116 C115 1.326 . S
N116 C120 1.362 . S
C117 C118 1.258 . S
C117 C120 1.431 . S
C117 C137 1.449 . S
C118 C117 1.258 . S
C118 C119 1.477 . S
C118 H138 0.931 . S
C119 C115 1.460 . S
C119 C118 1.477 . S
C119 H139 0.930 . S
C120 N116 1.362 . S
C120 C117 1.431 . S
C120 C130 1.476 . S
H121 C115 0.929 . S
C122 O113 1.250 . S
C122 O114 1.258 . S
O123 Mn108 2.162 . S
O123 C111 1.281 . S
O124 Mn108 2.297 . S
O124 C111 1.236 . S
N125 Mn109 2.282 . S
N125 C126 1.328 . S
N125 C130 1.318 . S
C126 N125 1.328 . S
C126 C127 1.457 . S
C126 H131 0.929 . S
C127 C126 1.457 . S
C127 C128 1.291 . S
C127 H140 0.931 . S
C128 C127 1.291 . S
C128 C129 1.373 . S
C128 H141 0.929 . S
C129 C128 1.373 . S
C129 C130 1.396 . S
C129 C136 1.403 . S
C130 C120 1.476 . S
C130 N125 1.318 . S
C130 C129 1.396 . S
H131 C126 0.929 . S
O132 Mn108 2.385 . S
O132 C110 1.234 . S
O133 Mn108 2.209 . S
O133 Mn109 2.215 . S
O133 C110 1.283 . S
O134 Mn108 2.094 . S
O134 C112 1.240 . S
O135 Mn109 2.117 . S
O135 C112 1.264 . S
C136 C129 1.403 . S
C136 C137 1.399 . S
C136 H142 0.929 . S
C137 C117 1.449 . S
C137 C136 1.399 . S
C137 H143 0.930 . S
H138 C118 0.931 . S
H139 C119 0.930 . S
H140 C127 0.931 . S
H141 C128 0.929 . S
H142 C136 0.929 . S
H143 C137 0.930 . S
Mn144 O149 2.095 . S
Mn144 O159 2.162 . S
Mn144 O160 2.297 . S
Mn144 O168 2.385 1_554 S
Mn144 O169 2.209 1_554 S
Mn144 O170 2.094 . S
Mn145 O150 2.121 . S
Mn145 N152 2.257 1_554 S
Mn145 N161 2.282 1_554 S
Mn145 O169 2.215 1_554 S
Mn145 O171 2.117 . S
C146 O168 1.234 . S
C146 O169 1.283 . S
C147 O159 1.281 . S
C147 O160 1.236 . S
C148 O170 1.240 . S
C148 O171 1.264 . S
O149 Mn144 2.095 . S
O149 C158 1.250 . S
O150 Mn145 2.121 . S
O150 C158 1.258 . S
C151 N152 1.326 1_544 S
C151 C155 1.460 . S
C151 H157 0.929 . S
N152 Mn145 2.257 1_556 S
N152 C151 1.326 1_566 S
N152 C156 1.362 . S
C153 C154 1.258 . S
C153 C156 1.431 1_545 S
C153 C173 1.449 . S
C154 C153 1.258 . S
C154 C155 1.477 1_556 S
C154 H174 0.931 . S
C155 C151 1.460 . S
C155 C154 1.477 1_554 S
C155 H175 0.930 . S
C156 N152 1.362 . S
C156 C153 1.431 1_565 S
C156 C166 1.476 . S
H157 C151 0.929 . S
C158 O149 1.250 . S
C158 O150 1.258 . S
O159 Mn144 2.162 . S
O159 C147 1.281 . S
O160 Mn144 2.297 . S
O160 C147 1.236 . S
N161 Mn145 2.282 1_556 S
N161 C162 1.328 . S
N161 C166 1.318 . S
C162 N161 1.328 . S
C162 C163 1.457 . S
C162 H167 0.929 . S
C163 C162 1.457 . S
C163 C164 1.291 . S
C163 H176 0.931 . S
C164 C163 1.291 . S
C164 C165 1.373 . S
C164 H177 0.929 . S
C165 C164 1.373 . S
C165 C166 1.396 . S
C165 C172 1.403 1_565 S
C166 C156 1.476 . S
C166 N161 1.318 . S
C166 C165 1.396 . S
H167 C162 0.929 . S
O168 Mn144 2.385 1_556 S
O168 C146 1.234 . S
O169 Mn144 2.209 1_556 S
O169 Mn145 2.215 1_556 S
O169 C146 1.283 . S
O170 Mn144 2.094 . S
O170 C148 1.240 . S
O171 Mn145 2.117 . S
O171 C148 1.264 . S
C172 C165 1.403 1_545 S
C172 C173 1.399 . S
C172 H178 0.929 . S
C173 C153 1.449 . S
C173 C172 1.399 . S
C173 H179 0.930 . S
H174 C154 0.931 . S
H175 C155 0.930 . S
H176 C163 0.931 . S
H177 C164 0.929 . S
H178 C172 0.929 . S
H179 C173 0.930 . S
Mn180 O185 2.095 . S
Mn180 O195 2.162 . S
Mn180 O196 2.297 . S
Mn180 O204 2.385 1_554 S
Mn180 O205 2.209 1_554 S
Mn180 O206 2.094 . S
Mn181 O186 2.121 . S
Mn181 N188 2.257 1_554 S
Mn181 N197 2.282 1_554 S
Mn181 O205 2.215 1_554 S
Mn181 O207 2.117 . S
C182 O204 1.234 . S
C182 O205 1.283 . S
C183 O195 1.281 . S
C183 O196 1.236 . S
C184 O206 1.240 . S
C184 O207 1.264 . S
O185 Mn180 2.095 . S
O185 C194 1.250 . S
O186 Mn181 2.121 . S
O186 C194 1.258 . S
C187 N188 1.326 1_564 S
C187 C191 1.460 . S
C187 H193 0.929 . S
N188 Mn181 2.257 1_556 S
N188 C187 1.326 1_546 S
N188 C192 1.362 . S
C189 C190 1.258 . S
C189 C192 1.431 1_565 S
C189 C209 1.449 . S
C190 C189 1.258 . S
C190 C191 1.477 1_556 S
C190 H210 0.931 . S
C191 C187 1.460 . S
C191 C190 1.477 1_554 S
C191 H211 0.930 . S
C192 N188 1.362 . S
C192 C189 1.431 1_545 S
C192 C202 1.476 . S
H193 C187 0.929 . S
C194 O185 1.250 . S
C194 O186 1.258 . S
O195 Mn180 2.162 . S
O195 C183 1.281 . S
O196 Mn180 2.297 . S
O196 C183 1.236 . S
N197 Mn181 2.282 1_556 S
N197 C198 1.328 . S
N197 C202 1.318 . S
C198 N197 1.328 . S
C198 C199 1.457 . S
C198 H203 0.929 . S
C199 C198 1.457 . S
C199 C200 1.291 . S
C199 H212 0.931 . S
C200 C199 1.291 . S
C200 C201 1.373 . S
C200 H213 0.929 . S
C201 C200 1.373 . S
C201 C202 1.396 . S
C201 C208 1.403 1_545 S
C202 C192 1.476 . S
C202 N197 1.318 . S
C202 C201 1.396 . S
H203 C198 0.929 . S
O204 Mn180 2.385 1_556 S
O204 C182 1.234 . S
O205 Mn180 2.209 1_556 S
O205 Mn181 2.215 1_556 S
O205 C182 1.283 . S
O206 Mn180 2.094 . S
O206 C184 1.240 . S
O207 Mn181 2.117 . S
O207 C184 1.264 . S
C208 C201 1.403 1_565 S
C208 C209 1.399 . S
C208 H214 0.929 . S
C209 C189 1.449 . S
C209 C208 1.399 . S
C209 H215 0.930 . S
H210 C190 0.931 . S
H211 C191 0.930 . S
H212 C199 0.931 . S
H213 C200 0.929 . S
H214 C208 0.929 . S
H215 C209 0.930 . S
Mn216 O221 2.095 . S
Mn216 O231 2.162 . S
Mn216 O232 2.297 . S
Mn216 O240 2.385 . S
Mn216 O241 2.209 . S
Mn216 O242 2.094 . S
Mn217 O222 2.121 . S
Mn217 N224 2.257 . S
Mn217 N233 2.282 . S
Mn217 O241 2.215 . S
Mn217 O243 2.117 . S
C218 O240 1.234 . S
C218 O241 1.283 . S
C219 O231 1.281 . S
C219 O232 1.236 . S
C220 O242 1.240 . S
C220 O243 1.264 . S
O221 Mn216 2.095 . S
O221 C230 1.250 . S
O222 Mn217 2.121 . S
O222 C230 1.258 . S
C223 N224 1.326 1_565 S
C223 C227 1.460 . S
C223 H229 0.929 . S
N224 Mn217 2.257 . S
N224 C223 1.326 1_545 S
N224 C228 1.362 . S
C225 C226 1.258 . S
C225 C228 1.431 1_565 S
C225 C245 1.449 . S
C226 C225 1.258 . S
C226 C227 1.477 . S
C226 H246 0.931 . S
C227 C223 1.460 . S
C227 C226 1.477 . S
C227 H247 0.930 . S
C228 N224 1.362 . S
C228 C225 1.431 1_545 S
C228 C238 1.476 . S
H229 C223 0.929 . S
C230 O221 1.250 . S
C230 O222 1.258 . S
O231 Mn216 2.162 . S
O231 C219 1.281 . S
O232 Mn216 2.297 . S
O232 C219 1.236 . S
N233 Mn217 2.282 . S
N233 C234 1.328 . S
N233 C238 1.318 . S
C234 N233 1.328 . S
C234 C235 1.457 . S
C234 H239 0.929 . S
C235 C234 1.457 . S
C235 C236 1.291 . S
C235 H248 0.931 . S
C236 C235 1.291 . S
C236 C237 1.373 . S
C236 H249 0.929 . S
C237 C236 1.373 . S
C237 C238 1.396 . S
C237 C244 1.403 1_545 S
C238 C228 1.476 . S
C238 N233 1.318 . S
C238 C237 1.396 . S
H239 C234 0.929 . S
O240 Mn216 2.385 . S
O240 C218 1.234 . S
O241 Mn216 2.209 . S
O241 Mn217 2.215 . S
O241 C218 1.283 . S
O242 Mn216 2.094 . S
O242 C220 1.240 . S
O243 Mn217 2.117 . S
O243 C220 1.264 . S
C244 C237 1.403 1_565 S
C244 C245 1.399 . S
C244 H250 0.929 . S
C245 C225 1.449 . S
C245 C244 1.399 . S
C245 H251 0.930 . S
H246 C226 0.931 . S
H247 C227 0.930 . S
H248 C235 0.931 . S
H249 C236 0.929 . S
H250 C244 0.929 . S
H251 C245 0.930 . S
Mn252 O257 2.095 . S
Mn252 O267 2.162 . S
Mn252 O268 2.297 . S
Mn252 O276 2.385 . S
Mn252 O277 2.209 . S
Mn252 O278 2.094 . S
Mn253 O258 2.121 . S
Mn253 N260 2.257 . S
Mn253 N269 2.282 . S
Mn253 O277 2.215 . S
Mn253 O279 2.117 . S
C254 O276 1.234 . S
C254 O277 1.283 . S
C255 O267 1.281 . S
C255 O268 1.236 . S
C256 O278 1.240 . S
C256 O279 1.264 . S
O257 Mn252 2.095 . S
O257 C266 1.250 . S
O258 Mn253 2.121 . S
O258 C266 1.258 . S
C259 N260 1.326 1_545 S
C259 C263 1.460 . S
C259 H265 0.929 . S
N260 Mn253 2.257 . S
N260 C259 1.326 1_565 S
N260 C264 1.362 . S
C261 C262 1.258 . S
C261 C264 1.431 1_545 S
C261 C281 1.449 . S
C262 C261 1.258 . S
C262 C263 1.477 . S
C262 H282 0.931 . S
C263 C259 1.460 . S
C263 C262 1.477 . S
C263 H283 0.930 . S
C264 N260 1.362 . S
C264 C261 1.431 1_565 S
C264 C274 1.476 . S
H265 C259 0.929 . S
C266 O257 1.250 . S
C266 O258 1.258 . S
O267 Mn252 2.162 . S
O267 C255 1.281 . S
O268 Mn252 2.297 . S
O268 C255 1.236 . S
N269 Mn253 2.282 . S
N269 C270 1.328 . S
N269 C274 1.318 . S
C270 N269 1.328 . S
C270 C271 1.457 . S
C270 H275 0.929 . S
C271 C270 1.457 . S
C271 C272 1.291 . S
C271 H284 0.931 . S
C272 C271 1.291 . S
C272 C273 1.373 . S
C272 H285 0.929 . S
C273 C272 1.373 . S
C273 C274 1.396 . S
C273 C280 1.403 1_565 S
C274 C264 1.476 . S
C274 N269 1.318 . S
C274 C273 1.396 . S
H275 C270 0.929 . S
O276 Mn252 2.385 . S
O276 C254 1.234 . S
O277 Mn252 2.209 . S
O277 Mn253 2.215 . S
O277 C254 1.283 . S
O278 Mn252 2.094 . S
O278 C256 1.240 . S
O279 Mn253 2.117 . S
O279 C256 1.264 . S
C280 C273 1.403 1_545 S
C280 C281 1.399 . S
C280 H286 0.929 . S
C281 C261 1.449 . S
C281 C280 1.399 . S
C281 H287 0.930 . S
H282 C262 0.931 . S
H283 C263 0.930 . S
H284 C271 0.931 . S
H285 C272 0.929 . S
H286 C280 0.929 . S
H287 C281 0.930 . S
C288 C289 1.349 . S
C288 C290 1.327 . S
C288 H313 0.950 . S
C289 C288 1.349 . S
C289 C305 1.349 1_554 S
C290 C288 1.327 . S
C290 C309 1.429 . S
C290 H314 0.950 . S
C291 C308 1.574 . S
C291 C310 1.368 1_556 S
C291 H315 0.949 . S
H292 C296 0.949 . S
C293 C294 1.349 1_556 S
C293 C295 1.327 . S
C293 H316 0.950 . S
C294 C293 1.349 1_554 S
C294 C306 1.349 . S
C295 C293 1.327 . S
C295 C311 1.429 1_556 S
C295 H317 0.950 . S
C296 H292 0.949 . S
C296 C304 1.574 . S
C296 C312 1.368 . S
H297 C305 0.950 . S
H298 C303 0.950 . S
H299 C304 0.949 . S
H300 C306 0.950 . S
H301 C307 0.950 . S
H302 C308 0.949 . S
C303 H298 0.950 . S
C303 C305 1.327 . S
C303 C309 1.429 1_556 S
C304 C296 1.574 . S
C304 H299 0.949 . S
C304 C310 1.368 . S
C305 C289 1.349 1_556 S
C305 H297 0.950 . S
C305 C303 1.327 . S
C306 C294 1.349 . S
C306 H300 0.950 . S
C306 C307 1.327 . S
C307 H301 0.950 . S
C307 C306 1.327 . S
C307 C311 1.429 . S
C308 C291 1.574 . S
C308 H302 0.949 . S
C308 C312 1.368 1_556 S
C309 C290 1.429 . S
C309 C303 1.429 1_554 S
C309 C310 1.523 . S
C310 C291 1.368 1_554 S
C310 C304 1.368 . S
C310 C309 1.523 . S
C311 C295 1.429 1_554 S
C311 C307 1.429 . S
C311 C312 1.523 . S
C312 C296 1.368 . S
C312 C308 1.368 1_554 S
C312 C311 1.523 . S
H313 C288 0.950 . S
H314 C290 0.950 . S
H315 C291 0.949 . S
H316 C293 0.950 . S
H317 C295 0.950 . S
C318 C319 1.349 1_556 S
C318 C320 1.327 . S
C318 H343 0.950 . S
C319 C318 1.349 1_554 S
C319 C335 1.349 . S
C320 C318 1.327 . S
C320 C339 1.429 1_556 S
C320 H344 0.950 . S
C321 C338 1.574 . S
C321 C340 1.368 . S
C321 H345 0.949 . S
H322 C326 0.949 . S
C323 C324 1.349 . S
C323 C325 1.327 . S
C323 H346 0.950 . S
C324 C323 1.349 . S
C324 C336 1.349 1_554 S
C325 C323 1.327 . S
C325 C341 1.429 . S
C325 H347 0.950 . S
C326 H322 0.949 . S
C326 C334 1.574 . S
C326 C342 1.368 1_556 S
H327 C335 0.950 . S
H328 C333 0.950 . S
H329 C334 0.949 . S
H330 C336 0.950 . S
H331 C337 0.950 . S
H332 C338 0.949 . S
C333 H328 0.950 . S
C333 C335 1.327 . S
C333 C339 1.429 . S
C334 C326 1.574 . S
C334 H329 0.949 . S
C334 C340 1.368 1_556 S
C335 C319 1.349 . S
C335 H327 0.950 . S
C335 C333 1.327 . S
C336 C324 1.349 1_556 S
C336 H330 0.950 . S
C336 C337 1.327 . S
C337 H331 0.950 . S
C337 C336 1.327 . S
C337 C341 1.429 1_556 S
C338 C321 1.574 . S
C338 H332 0.949 . S
C338 C342 1.368 . S
C339 C320 1.429 1_554 S
C339 C333 1.429 . S
C339 C340 1.523 . S
C340 C321 1.368 . S
C340 C334 1.368 1_554 S
C340 C339 1.523 . S
C341 C325 1.429 . S
C341 C337 1.429 1_554 S
C341 C342 1.523 . S
C342 C326 1.368 1_554 S
C342 C338 1.368 . S
C342 C341 1.523 . S
H343 C318 0.950 . S
H344 C320 0.950 . S
H345 C321 0.949 . S
H346 C323 0.950 . S
H347 C325 0.950 . S
C348 C349 1.349 . S
C348 C350 1.327 . S
C348 H373 0.950 . S
C349 C348 1.349 . S
C349 C365 1.349 . S
C350 C348 1.327 . S
C350 C369 1.429 . S
C350 H374 0.950 . S
C351 C368 1.574 . S
C351 C370 1.368 . S
C351 H375 0.949 . S
H352 C356 0.949 . S
C353 C354 1.349 . S
C353 C355 1.327 . S
C353 H376 0.950 . S
C354 C353 1.349 . S
C354 C366 1.349 . S
C355 C353 1.327 . S
C355 C371 1.429 . S
C355 H377 0.950 . S
C356 H352 0.949 . S
C356 C364 1.574 . S
C356 C372 1.368 . S
H357 C365 0.950 . S
H358 C363 0.950 . S
H359 C364 0.949 . S
H360 C366 0.950 . S
H361 C367 0.950 . S
H362 C368 0.949 . S
C363 H358 0.950 . S
C363 C365 1.327 . S
C363 C369 1.429 . S
C364 C356 1.574 . S
C364 H359 0.949 . S
C364 C370 1.368 . S
C365 C349 1.349 . S
C365 H357 0.950 . S
C365 C363 1.327 . S
C366 C354 1.349 . S
C366 H360 0.950 . S
C366 C367 1.327 . S
C367 H361 0.950 . S
C367 C366 1.327 . S
C367 C371 1.429 . S
C368 C351 1.574 . S
C368 H362 0.949 . S
C368 C372 1.368 . S
C369 C350 1.429 . S
C369 C363 1.429 . S
C369 C370 1.523 . S
C370 C351 1.368 . S
C370 C364 1.368 . S
C370 C369 1.523 . S
C371 C355 1.429 . S
C371 C367 1.429 . S
C371 C372 1.523 . S
C372 C356 1.368 . S
C372 C368 1.368 . S
C372 C371 1.523 . S
H373 C348 0.950 . S
H374 C350 0.950 . S
H375 C351 0.949 . S
H376 C353 0.950 . S
H377 C355 0.950 . S
C378 C379 1.349 . S
C378 C380 1.327 . S
C378 H403 0.950 . S
C379 C378 1.349 . S
C379 C395 1.349 . S
C380 C378 1.327 . S
C380 C399 1.429 . S
C380 H404 0.950 . S
C381 C398 1.574 . S
C381 C400 1.368 . S
C381 H405 0.949 . S
H382 C386 0.949 . S
C383 C384 1.349 . S
C383 C385 1.327 . S
C383 H406 0.950 . S
C384 C383 1.349 . S
C384 C396 1.349 . S
C385 C383 1.327 . S
C385 C401 1.429 . S
C385 H407 0.950 . S
C386 H382 0.949 . S
C386 C394 1.574 . S
C386 C402 1.368 . S
H387 C395 0.950 . S
H388 C393 0.950 . S
H389 C394 0.949 . S
H390 C396 0.950 . S
H391 C397 0.950 . S
H392 C398 0.949 . S
C393 H388 0.950 . S
C393 C395 1.327 . S
C393 C399 1.429 . S
C394 C386 1.574 . S
C394 H389 0.949 . S
C394 C400 1.368 . S
C395 C379 1.349 . S
C395 H387 0.950 . S
C395 C393 1.327 . S
C396 C384 1.349 . S
C396 H390 0.950 . S
C396 C397 1.327 . S
C397 H391 0.950 . S
C397 C396 1.327 . S
C397 C401 1.429 . S
C398 C381 1.574 . S
C398 H392 0.949 . S
C398 C402 1.368 . S
C399 C380 1.429 . S
C399 C393 1.429 . S
C399 C400 1.523 . S
C400 C381 1.368 . S
C400 C394 1.368 . S
C400 C399 1.523 . S
C401 C385 1.429 . S
C401 C397 1.429 . S
C401 C402 1.523 . S
C402 C386 1.368 . S
C402 C398 1.368 . S
C402 C401 1.523 . S
H403 C378 0.950 . S
H404 C380 0.950 . S
H405 C381 0.949 . S
H406 C383 0.950 . S
H407 C385 0.950 . S
C408 C409 1.349 . S
C408 C410 1.327 . S
C408 H433 0.950 . S
C409 C408 1.349 . S
C409 C425 1.349 . S
C410 C408 1.327 . S
C410 C429 1.429 . S
C410 H434 0.950 . S
C411 C428 1.574 . S
C411 C430 1.368 . S
C411 H435 0.949 . S
H412 C416 0.949 . S
C413 C414 1.349 . S
C413 C415 1.327 . S
C413 H436 0.950 . S
C414 C413 1.349 . S
C414 C426 1.349 . S
C415 C413 1.327 . S
C415 C431 1.429 . S
C415 H437 0.950 . S
C416 H412 0.949 . S
C416 C424 1.574 . S
C416 C432 1.368 . S
H417 C425 0.950 . S
H418 C423 0.950 . S
H419 C424 0.949 . S
H420 C426 0.950 . S
H421 C427 0.950 . S
H422 C428 0.949 . S
C423 H418 0.950 . S
C423 C425 1.327 . S
C423 C429 1.429 . S
C424 C416 1.574 . S
C424 H419 0.949 . S
C424 C430 1.368 . S
C425 C409 1.349 . S
C425 H417 0.950 . S
C425 C423 1.327 . S
C426 C414 1.349 . S
C426 H420 0.950 . S
C426 C427 1.327 . S
C427 H421 0.950 . S
C427 C426 1.327 . S
C427 C431 1.429 . S
C428 C411 1.574 . S
C428 H422 0.949 . S
C428 C432 1.368 . S
C429 C410 1.429 . S
C429 C423 1.429 . S
C429 C430 1.523 . S
C430 C411 1.368 . S
C430 C424 1.368 . S
C430 C429 1.523 . S
C431 C415 1.429 . S
C431 C427 1.429 . S
C431 C432 1.523 . S
C432 C416 1.368 . S
C432 C428 1.368 . S
C432 C431 1.523 . S
H433 C408 0.950 . S
H434 C410 0.950 . S
H435 C411 0.949 . S
H436 C413 0.950 . S
H437 C415 0.950 . S
C438 C439 1.349 . S
C438 C440 1.327 . S
C438 H463 0.950 . S
C439 C438 1.349 . S
C439 C455 1.349 . S
C440 C438 1.327 . S
C440 C459 1.429 . S
C440 H464 0.950 . S
C441 C458 1.574 . S
C441 C460 1.368 . S
C441 H465 0.949 . S
H442 C446 0.949 . S
C443 C444 1.349 . S
C443 C445 1.327 . S
C443 H466 0.950 . S
C444 C443 1.349 . S
C444 C456 1.349 . S
C445 C443 1.327 . S
C445 C461 1.429 . S
C445 H467 0.950 . S
C446 H442 0.949 . S
C446 C454 1.574 . S
C446 C462 1.368 . S
H447 C455 0.950 . S
H448 C453 0.950 . S
H449 C454 0.949 . S
H450 C456 0.950 . S
H451 C457 0.950 . S
H452 C458 0.949 . S
C453 H448 0.950 . S
C453 C455 1.327 . S
C453 C459 1.429 . S
C454 C446 1.574 . S
C454 H449 0.949 . S
C454 C460 1.368 . S
C455 C439 1.349 . S
C455 H447 0.950 . S
C455 C453 1.327 . S
C456 C444 1.349 . S
C456 H450 0.950 . S
C456 C457 1.327 . S
C457 H451 0.950 . S
C457 C456 1.327 . S
C457 C461 1.429 . S
C458 C441 1.574 . S
C458 H452 0.949 . S
C458 C462 1.368 . S
C459 C440 1.429 . S
C459 C453 1.429 . S
C459 C460 1.523 . S
C460 C441 1.368 . S
C460 C454 1.368 . S
C460 C459 1.523 . S
C461 C445 1.429 . S
C461 C457 1.429 . S
C461 C462 1.523 . S
C462 C446 1.368 . S
C462 C458 1.368 . S
C462 C461 1.523 . S
H463 C438 0.950 . S
H464 C440 0.950 . S
H465 C441 0.949 . S
H466 C443 0.950 . S
H467 C445 0.950 . S
C468 C469 1.349 . S
C468 C470 1.327 . S
C468 H493 0.950 . S
C469 C468 1.349 . S
C469 C485 1.349 . S
C470 C468 1.327 . S
C470 C489 1.429 . S
C470 H494 0.950 . S
C471 C488 1.574 . S
C471 C490 1.368 . S
C471 H495 0.949 . S
H472 C476 0.949 . S
C473 C474 1.349 . S
C473 C475 1.327 . S
C473 H496 0.950 . S
C474 C473 1.349 . S
C474 C486 1.349 . S
C475 C473 1.327 . S
C475 C491 1.429 . S
C475 H497 0.950 . S
C476 H472 0.949 . S
C476 C484 1.574 . S
C476 C492 1.368 . S
H477 C485 0.950 . S
H478 C483 0.950 . S
H479 C484 0.949 . S
H480 C486 0.950 . S
H481 C487 0.950 . S
H482 C488 0.949 . S
C483 H478 0.950 . S
C483 C485 1.327 . S
C483 C489 1.429 . S
C484 C476 1.574 . S
C484 H479 0.949 . S
C484 C490 1.368 . S
C485 C469 1.349 . S
C485 H477 0.950 . S
C485 C483 1.327 . S
C486 C474 1.349 . S
C486 H480 0.950 . S
C486 C487 1.327 . S
C487 H481 0.950 . S
C487 C486 1.327 . S
C487 C491 1.429 . S
C488 C471 1.574 . S
C488 H482 0.949 . S
C488 C492 1.368 . S
C489 C470 1.429 . S
C489 C483 1.429 . S
C489 C490 1.523 . S
C490 C471 1.368 . S
C490 C484 1.368 . S
C490 C489 1.523 . S
C491 C475 1.429 . S
C491 C487 1.429 . S
C491 C492 1.523 . S
C492 C476 1.368 . S
C492 C488 1.368 . S
C492 C491 1.523 . S
H493 C468 0.950 . S
H494 C470 0.950 . S
H495 C471 0.949 . S
H496 C473 0.950 . S
H497 C475 0.950 . S
C498 C499 1.349 . S
C498 C500 1.327 . S
C498 H523 0.950 . S
C499 C498 1.349 . S
C499 C515 1.349 . S
C500 C498 1.327 . S
C500 C519 1.429 . S
C500 H524 0.950 . S
C501 C518 1.574 . S
C501 C520 1.368 . S
C501 H525 0.949 . S
H502 C506 0.949 . S
C503 C504 1.349 . S
C503 C505 1.327 . S
C503 H526 0.950 . S
C504 C503 1.349 . S
C504 C516 1.349 . S
C505 C503 1.327 . S
C505 C521 1.429 . S
C505 H527 0.950 . S
C506 H502 0.949 . S
C506 C514 1.574 . S
C506 C522 1.368 . S
H507 C515 0.950 . S
H508 C513 0.950 . S
H509 C514 0.949 . S
H510 C516 0.950 . S
H511 C517 0.950 . S
H512 C518 0.949 . S
C513 H508 0.950 . S
C513 C515 1.327 . S
C513 C519 1.429 . S
C514 C506 1.574 . S
C514 H509 0.949 . S
C514 C520 1.368 . S
C515 C499 1.349 . S
C515 H507 0.950 . S
C515 C513 1.327 . S
C516 C504 1.349 . S
C516 H510 0.950 . S
C516 C517 1.327 . S
C517 H511 0.950 . S
C517 C516 1.327 . S
C517 C521 1.429 . S
C518 C501 1.574 . S
C518 H512 0.949 . S
C518 C522 1.368 . S
C519 C500 1.429 . S
C519 C513 1.429 . S
C519 C520 1.523 . S
C520 C501 1.368 . S
C520 C514 1.368 . S
C520 C519 1.523 . S
C521 C505 1.429 . S
C521 C517 1.429 . S
C521 C522 1.523 . S
C522 C506 1.368 . S
C522 C518 1.368 . S
C522 C521 1.523 . S
H523 C498 0.950 . S
H524 C500 0.950 . S
H525 C501 0.949 . S
H526 C503 0.950 . S
H527 C505 0.950 . S
C528 C529 1.349 . S
C528 C530 1.327 . S
C528 H553 0.950 . S
C529 C528 1.349 . S
C529 C545 1.349 . S
C530 C528 1.327 . S
C530 C549 1.429 . S
C530 H554 0.950 1_565 S
C531 C548 1.574 . S
C531 C550 1.368 . S
C531 H555 0.949 . S
H532 C536 0.949 . S
C533 C534 1.349 . S
C533 C535 1.327 . S
C533 H556 0.950 . S
C534 C533 1.349 . S
C534 C546 1.349 . S
C535 C533 1.327 . S
C535 C551 1.429 . S
C535 H557 0.950 1_545 S
C536 H532 0.949 . S
C536 C544 1.574 . S
C536 C552 1.368 . S
H537 C545 0.950 . S
H538 C543 0.950 . S
H539 C544 0.949 . S
H540 C546 0.950 . S
H541 C547 0.950 . S
H542 C548 0.949 . S
C543 H538 0.950 . S
C543 C545 1.327 . S
C543 C549 1.429 . S
C544 C536 1.574 . S
C544 H539 0.949 . S
C544 C550 1.368 1_545 S
C545 C529 1.349 . S
C545 H537 0.950 . S
C545 C543 1.327 . S
C546 C534 1.349 . S
C546 H540 0.950 . S
C546 C547 1.327 . S
C547 H541 0.950 . S
C547 C546 1.327 . S
C547 C551 1.429 . S
C548 C531 1.574 . S
C548 H542 0.949 . S
C548 C552 1.368 1_565 S
C549 C530 1.429 . S
C549 C543 1.429 . S
C549 C550 1.523 . S
C550 C531 1.368 . S
C550 C544 1.368 1_565 S
C550 C549 1.523 . S
C551 C535 1.429 . S
C551 C547 1.429 . S
C551 C552 1.523 . S
C552 C536 1.368 . S
C552 C548 1.368 1_545 S
C552 C551 1.523 . S
H553 C528 0.950 . S
H554 C530 0.950 1_545 S
H555 C531 0.949 . S
H556 C533 0.950 . S
H557 C535 0.950 1_565 S
C558 C559 1.349 . S
C558 C560 1.327 . S
C558 H583 0.950 . S
C559 C558 1.349 . S
C559 C575 1.349 . S
C560 C558 1.327 . S
C560 C579 1.429 . S
C560 H584 0.950 . S
C561 C578 1.574 1_565 S
C561 C580 1.368 . S
C561 H585 0.949 . S
H562 C566 0.949 . S
C563 C564 1.349 . S
C563 C565 1.327 . S
C563 H586 0.950 . S
C564 C563 1.349 . S
C564 C576 1.349 . S
C565 C563 1.327 . S
C565 C581 1.429 . S
C565 H587 0.950 . S
C566 H562 0.949 . S
C566 C574 1.574 1_545 S
C566 C582 1.368 . S
H567 C575 0.950 . S
H568 C573 0.950 . S
H569 C574 0.949 . S
H570 C576 0.950 . S
H571 C577 0.950 . S
H572 C578 0.949 . S
C573 H568 0.950 . S
C573 C575 1.327 . S
C573 C579 1.429 . S
C574 C566 1.574 1_565 S
C574 H569 0.949 . S
C574 C580 1.368 . S
C575 C559 1.349 . S
C575 H567 0.950 . S
C575 C573 1.327 . S
C576 C564 1.349 . S
C576 H570 0.950 . S
C576 C577 1.327 . S
C577 H571 0.950 . S
C577 C576 1.327 . S
C577 C581 1.429 . S
C578 C561 1.574 1_545 S
C578 H572 0.949 . S
C578 C582 1.368 . S
C579 C560 1.429 . S
C579 C573 1.429 . S
C579 C580 1.523 . S
C580 C561 1.368 . S
C580 C574 1.368 . S
C580 C579 1.523 . S
C581 C565 1.429 . S
C581 C577 1.429 . S
C581 C582 1.523 . S
C582 C566 1.368 . S
C582 C578 1.368 . S
C582 C581 1.523 . S
H583 C558 0.950 . S
H584 C560 0.950 . S
H585 C561 0.949 . S
H586 C563 0.950 . S
H587 C565 0.950 . S
C588 C589 1.349 . S
C588 C590 1.327 . S
C588 H613 0.950 . S
C589 C588 1.349 . S
C589 C605 1.349 . S
C590 C588 1.327 . S
C590 C609 1.429 . S
C590 H614 0.950 1_565 S
C591 C608 1.574 . S
C591 C610 1.368 . S
C591 H615 0.949 . S
H592 C596 0.949 . S
C593 C594 1.349 . S
C593 C595 1.327 . S
C593 H616 0.950 . S
C594 C593 1.349 . S
C594 C606 1.349 . S
C595 C593 1.327 . S
C595 C611 1.429 . S
C595 H617 0.950 1_545 S
C596 H592 0.949 . S
C596 C604 1.574 . S
C596 C612 1.368 . S
H597 C605 0.950 . S
H598 C603 0.950 . S
H599 C604 0.949 . S
H600 C606 0.950 . S
H601 C607 0.950 . S
H602 C608 0.949 . S
C603 H598 0.950 . S
C603 C605 1.327 . S
C603 C609 1.429 . S
C604 C596 1.574 . S
C604 H599 0.949 . S
C604 C610 1.368 1_545 S
C605 C589 1.349 . S
C605 H597 0.950 . S
C605 C603 1.327 . S
C606 C594 1.349 . S
C606 H600 0.950 . S
C606 C607 1.327 . S
C607 H601 0.950 . S
C607 C606 1.327 . S
C607 C611 1.429 . S
C608 C591 1.574 . S
C608 H602 0.949 . S
C608 C612 1.368 1_565 S
C609 C590 1.429 . S
C609 C603 1.429 . S
C609 C610 1.523 . S
C610 C591 1.368 . S
C610 C604 1.368 1_565 S
C610 C609 1.523 . S
C611 C595 1.429 . S
C611 C607 1.429 . S
C611 C612 1.523 . S
C612 C596 1.368 . S
C612 C608 1.368 1_545 S
C612 C611 1.523 . S
H613 C588 0.950 . S
H614 C590 0.950 1_545 S
H615 C591 0.949 . S
H616 C593 0.950 . S
H617 C595 0.950 1_565 S
C618 C619 1.349 . S
C618 C620 1.327 . S
C618 H643 0.950 . S
C619 C618 1.349 . S
C619 C635 1.349 . S
C620 C618 1.327 . S
C620 C639 1.429 . S
C620 H644 0.950 1_565 S
C621 C638 1.574 . S
C621 C640 1.368 . S
C621 H645 0.949 . S
H622 C626 0.949 . S
C623 C624 1.349 . S
C623 C625 1.327 . S
C623 H646 0.950 . S
C624 C623 1.349 . S
C624 C636 1.349 . S
C625 C623 1.327 . S
C625 C641 1.429 . S
C625 H647 0.950 1_545 S
C626 H622 0.949 . S
C626 C634 1.574 . S
C626 C642 1.368 . S
H627 C635 0.950 . S
H628 C633 0.950 . S
H629 C634 0.949 . S
H630 C636 0.950 . S
H631 C637 0.950 . S
H632 C638 0.949 . S
C633 H628 0.950 . S
C633 C635 1.327 . S
C633 C639 1.429 . S
C634 C626 1.574 . S
C634 H629 0.949 . S
C634 C640 1.368 1_545 S
C635 C619 1.349 . S
C635 H627 0.950 . S
C635 C633 1.327 . S
C636 C624 1.349 . S
C636 H630 0.950 . S
C636 C637 1.327 . S
C637 H631 0.950 . S
C637 C636 1.327 . S
C637 C641 1.429 . S
C638 C621 1.574 . S
C638 H632 0.949 . S
C638 C642 1.368 1_565 S
C639 C620 1.429 . S
C639 C633 1.429 . S
C639 C640 1.523 . S
C640 C621 1.368 . S
C640 C634 1.368 1_565 S
C640 C639 1.523 . S
C641 C625 1.429 . S
C641 C637 1.429 . S
C641 C642 1.523 . S
C642 C626 1.368 . S
C642 C638 1.368 1_545 S
C642 C641 1.523 . S
H643 C618 0.950 . S
H644 C620 0.950 1_545 S
H645 C621 0.949 . S
H646 C623 0.950 . S
H647 C625 0.950 1_565 S
C648 C649 1.349 1_556 S
C648 C650 1.327 . S
C648 H673 0.950 . S
C649 C648 1.349 1_554 S
C649 C665 1.349 . S
C650 C648 1.327 . S
C650 C669 1.429 1_556 S
C650 H674 0.950 . S
C651 C668 1.565 1_565 S
C651 C670 1.368 . S
C651 H675 0.949 . S
H652 C656 0.949 . S
C653 C654 1.349 . S
C653 C655 1.327 . S
C653 H676 0.950 . S
C654 C653 1.349 . S
C654 C666 1.349 1_554 S
C655 C653 1.327 . S
C655 C671 1.429 . S
C655 H677 0.950 . S
C656 H652 0.949 . S
C656 C664 1.565 1_545 S
C656 C672 1.368 1_556 S
H657 C665 0.950 . S
H658 C663 0.950 . S
H659 C664 0.950 . S
H660 C666 0.950 . S
H661 C667 0.950 . S
H662 C668 0.950 . S
C663 H658 0.950 . S
C663 C665 1.327 . S
C663 C669 1.429 . S
C664 C656 1.565 1_565 S
C664 H659 0.950 . S
C664 C670 1.377 1_556 S
C665 C649 1.349 . S
C665 H657 0.950 . S
C665 C663 1.327 . S
C666 C654 1.349 1_556 S
C666 H660 0.950 . S
C666 C667 1.327 . S
C667 H661 0.950 . S
C667 C666 1.327 . S
C667 C671 1.429 1_556 S
C668 C651 1.565 1_545 S
C668 H662 0.950 . S
C668 C672 1.377 . S
C669 C650 1.429 1_554 S
C669 C663 1.429 . S
C669 C670 1.523 . S
C670 C651 1.368 . S
C670 C664 1.377 1_554 S
C670 C669 1.523 . S
C671 C655 1.429 . S
C671 C667 1.429 1_554 S
C671 C672 1.523 . S
C672 C656 1.368 1_554 S
C672 C668 1.377 . S
C672 C671 1.523 . S
H673 C648 0.950 . S
H674 C650 0.950 . S
H675 C651 0.949 . S
H676 C653 0.950 . S
H677 C655 0.950 . S
C678 C679 1.349 . S
C678 C680 1.327 . S
C678 H703 0.950 . S
C679 C678 1.349 . S
C679 C695 1.349 . S
C680 C678 1.327 . S
C680 C699 1.429 . S
C680 H704 0.950 . S
C681 C698 1.565 1_565 S
C681 C700 1.376 . S
C681 H705 0.950 . S
H682 C686 0.950 . S
C683 C684 1.349 . S
C683 C685 1.327 . S
C683 H706 0.950 . S
C684 C683 1.349 . S
C684 C696 1.349 . S
C685 C683 1.327 . S
C685 C701 1.429 . S
C685 H707 0.950 . S
C686 H682 0.950 . S
C686 C694 1.565 1_545 S
C686 C702 1.376 . S
H687 C695 0.950 . S
H688 C693 0.950 . S
H689 C694 0.949 . S
H690 C696 0.950 . S
H691 C697 0.950 . S
H692 C698 0.949 . S
C693 H688 0.950 . S
C693 C695 1.327 . S
C693 C699 1.429 . S
C694 C686 1.565 1_565 S
C694 H689 0.949 . S
C694 C700 1.368 . S
C695 C679 1.349 . S
C695 H687 0.950 . S
C695 C693 1.327 . S
C696 C684 1.349 . S
C696 H690 0.950 . S
C696 C697 1.327 . S
C697 H691 0.950 . S
C697 C696 1.327 . S
C697 C701 1.429 . S
C698 C681 1.565 1_545 S
C698 H692 0.949 . S
C698 C702 1.368 . S
C699 C680 1.429 . S
C699 C693 1.429 . S
C699 C700 1.523 . S
C700 C681 1.376 . S
C700 C694 1.368 . S
C700 C699 1.523 . S
C701 C685 1.429 . S
C701 C697 1.429 . S
C701 C702 1.523 . S
C702 C686 1.376 . S
C702 C698 1.368 . S
C702 C701 1.523 . S
H703 C678 0.950 . S
H704 C680 0.950 . S
H705 C681 0.950 . S
H706 C683 0.950 . S
H707 C685 0.950 . S
C708 C709 1.349 1_556 S
C708 C710 1.327 . S
C708 H733 0.950 . S
C709 C708 1.349 1_554 S
C709 C725 1.349 . S
C710 C708 1.327 . S
C710 C729 1.429 1_556 S
C710 H734 0.950 . S
C711 C728 1.530 1_455 S
C711 C730 1.408 . S
C711 H735 0.955 . S
H712 C716 0.955 . S
C713 C714 1.349 . S
C713 C715 1.327 . S
C713 H736 0.950 . S
C714 C713 1.349 . S
C714 C726 1.349 1_554 S
C715 C713 1.327 . S
C715 C731 1.429 . S
C715 H737 0.950 . S
C716 H712 0.955 . S
C716 C724 1.530 1_655 S
C716 C732 1.408 1_556 S
H717 C725 0.950 . S
H718 C723 0.950 . S
H719 C724 0.949 . S
H720 C726 0.950 . S
H721 C727 0.950 . S
H722 C728 0.949 . S
C723 H718 0.950 . S
C723 C725 1.327 . S
C723 C729 1.429 . S
C724 C716 1.530 1_455 S
C724 H719 0.949 . S
C724 C730 1.368 1_556 S
C725 C709 1.349 . S
C725 H717 0.950 . S
C725 C723 1.327 . S
C726 C714 1.349 1_556 S
C726 H720 0.950 . S
C726 C727 1.327 . S
C727 H721 0.950 . S
C727 C726 1.327 . S
C727 C731 1.429 1_556 S
C728 C711 1.530 1_655 S
C728 H722 0.949 . S
C728 C732 1.368 . S
C729 C710 1.429 1_554 S
C729 C723 1.429 . S
C729 C730 1.523 . S
C730 C711 1.408 . S
C730 C724 1.368 1_554 S
C730 C729 1.523 . S
C731 C715 1.429 . S
C731 C727 1.429 1_554 S
C731 C732 1.523 . S
C732 C716 1.408 1_554 S
C732 C728 1.368 . S
C732 C731 1.523 . S
H733 C708 0.950 . S
H734 C710 0.950 . S
H735 C711 0.955 . S
H736 C713 0.950 . S
H737 C715 0.950 . S
C738 C739 1.349 . S
C738 C740 1.327 . S
C738 H763 0.950 . S
C739 C738 1.349 . S
C739 C755 1.349 . S
C740 C738 1.327 . S
C740 C759 1.429 . S
C740 H764 0.950 . S
C741 C758 1.530 1_455 S
C741 C760 1.368 . S
C741 H765 0.949 . S
H742 C746 0.949 . S
C743 C744 1.349 . S
C743 C745 1.327 . S
C743 H766 0.950 . S
C744 C743 1.349 . S
C744 C756 1.349 . S
C745 C743 1.327 . S
C745 C761 1.429 . S
C745 H767 0.950 . S
C746 H742 0.949 . S
C746 C754 1.530 1_655 S
C746 C762 1.368 . S
H747 C755 0.950 . S
H748 C753 0.950 . S
H749 C754 0.955 . S
H750 C756 0.950 . S
H751 C757 0.950 . S
H752 C758 0.955 . S
C753 H748 0.950 . S
C753 C755 1.327 . S
C753 C759 1.429 . S
C754 C746 1.530 1_455 S
C754 H749 0.955 . S
C754 C760 1.408 . S
C755 C739 1.349 . S
C755 H747 0.950 . S
C755 C753 1.327 . S
C756 C744 1.349 . S
C756 H750 0.950 . S
C756 C757 1.327 . S
C757 H751 0.950 . S
C757 C756 1.327 . S
C757 C761 1.429 . S
C758 C741 1.530 1_655 S
C758 H752 0.955 . S
C758 C762 1.408 . S
C759 C740 1.429 . S
C759 C753 1.429 . S
C759 C760 1.523 . S
C760 C741 1.368 . S
C760 C754 1.408 . S
C760 C759 1.523 . S
C761 C745 1.429 . S
C761 C757 1.429 . S
C761 C762 1.523 . S
C762 C746 1.368 . S
C762 C758 1.408 . S
C762 C761 1.523 . S
H763 C738 0.950 . S
H764 C740 0.950 . S
H765 C741 0.949 . S
H766 C743 0.950 . S
H767 C745 0.950 . S
C289 C183 1.504 . S
C294 C3 1.504 . S
C319 C147 1.504 . S
C324 C39 1.504 . S
C349 C255 1.504 . S
C354 C75 1.504 . S
C379 C219 1.504 . S
C384 C111 1.504 . S
C409 C14 1.333 . S
C414 C86 1.333 . S
C439 C50 1.333 . S
C444 C122 1.333 . S
C469 C38 1.314 . S
C474 C110 1.314 . S
C499 C2 1.314 . S
C504 C74 1.314 . S
C529 C158 1.333 . S
C534 C230 1.333 . S
C559 C266 1.333 . S
C564 C194 1.333 . S
C589 C254 1.314 . S
C594 C182 1.314 . S
C619 C146 1.314 . S
C624 C218 1.314 . S
C649 C40 1.500 . S
C654 C4 1.500 . S
C679 C76 1.500 . S
C684 C112 1.500 . S
C709 C148 1.500 . S
C714 C184 1.500 . S
C739 C220 1.500 . S
C744 C256 1.500 . S
