# Generated by pormake.
# Topology qtz-e, (6)-cn, num edge types: 1
# Building blocks:
#     Node 0, Type 0, BuildingBlock: BETFEN_clean_sbu_0, # of connection points: 6
#     Node 1, Type 0, BuildingBlock: BETFEN_clean_sbu_0, # of connection points: 6
#     Node 2, Type 0, BuildingBlock: BETFEN_clean_sbu_0, # of connection points: 6
#     Node 3, Type 0, BuildingBlock: BETFEN_clean_sbu_0, # of connection points: 6
#     Node 4, Type 0, BuildingBlock: BETFEN_clean_sbu_0, # of connection points: 6
#     Node 5, Type 0, BuildingBlock: BETFEN_clean_sbu_0, # of connection points: 6
#     Edge 6, Type (0, 0), BuildingBlock: TEMPAE_clean_linker_10, # of connection points: 2
#     Edge 7, Type (0, 0), BuildingBlock: TEMPAE_clean_linker_10, # of connection points: 2
#     Edge 8, Type (0, 0), BuildingBlock: TEMPAE_clean_linker_10, # of connection points: 2
#     Edge 9, Type (0, 0), BuildingBlock: TEMPAE_clean_linker_10, # of connection points: 2
#     Edge 10, Type (0, 0), BuildingBlock: TEMPAE_clean_linker_10, # of connection points: 2
#     Edge 11, Type (0, 0), BuildingBlock: TEMPAE_clean_linker_10, # of connection points: 2
#     Edge 12, Type (0, 0), BuildingBlock: TEMPAE_clean_linker_10, # of connection points: 2
#     Edge 13, Type (0, 0), BuildingBlock: TEMPAE_clean_linker_10, # of connection points: 2
#     Edge 14, Type (0, 0), BuildingBlock: TEMPAE_clean_linker_10, # of connection points: 2
#     Edge 15, Type (0, 0), BuildingBlock: TEMPAE_clean_linker_10, # of connection points: 2
#     Edge 16, Type (0, 0), BuildingBlock: TEMPAE_clean_linker_10, # of connection points: 2
#     Edge 17, Type (0, 0), BuildingBlock: TEMPAE_clean_linker_10, # of connection points: 2
#     Edge 18, Type (0, 0), BuildingBlock: TEMPAE_clean_linker_10, # of connection points: 2
#     Edge 19, Type (0, 0), BuildingBlock: TEMPAE_clean_linker_10, # of connection points: 2
#     Edge 20, Type (0, 0), BuildingBlock: TEMPAE_clean_linker_10, # of connection points: 2
#     Edge 21, Type (0, 0), BuildingBlock: TEMPAE_clean_linker_10, # of connection points: 2
#     Edge 22, Type (0, 0), BuildingBlock: TEMPAE_clean_linker_10, # of connection points: 2
#     Edge 23, Type (0, 0), BuildingBlock: TEMPAE_clean_linker_10, # of connection points: 2
# Relax obj value: 0.182
# Max RMSD: 0.208
# Mean RMSD: 0.208
data_MOF--net-qtz-e--node1-BETFEN_clean_sbu_0--edge1-TEMPAE_clean_linker_10
_symmetry_space_group_name_H-M    P1
_symmetry_Int_Tables_number       1
_symmetry_cell_setting            triclinic
loop_
_symmetry_equiv_pos_as_xyz
'x, y, z'
_cell_length_a     25.576144
_cell_length_b     25.617582
_cell_length_c     53.491479
_cell_angle_alpha  89.859501
_cell_angle_beta   89.874015
_cell_angle_gamma 119.96609
loop_
_atom_site_label
_atom_site_type_symbol
_atom_site_fract_x
_atom_site_fract_y
_atom_site_fract_z
_atom_type_partial_charge
Pr0 Pr 0.27817 0.45622 0.07996 0.0
Pr1 Pr 0.19175 0.33199 0.10362 0.0
C2 C 0.36491 0.5609 0.06045 0.0
C3 C 0.38082 0.57883 0.03408 0.0
C4 C 0.40861 0.63952 0.02688 0.0
C5 C 0.41931 0.65554 1.00152 0.0
C6 C 0.40197 0.611 0.98293 0.0
C7 C 0.37463 0.55029 0.99038 0.0
C8 C 0.3643 0.53448 0.01563 0.0
C9 C 0.15493 0.41848 0.07485 0.0
C10 C 0.23214 0.33748 0.04368 0.0
C11 C 0.10176 0.23106 0.12412 0.0
C12 C 0.07235 0.22029 0.14889 0.0
C13 C 0.05615 0.16688 0.16203 0.0
C14 C 0.03459 0.15934 0.18664 0.0
C15 C 0.02917 0.20532 0.19863 0.0
C16 C 0.04408 0.25819 0.18514 0.0
C17 C 0.06551 0.26564 0.16057 0.0
C18 C 0.31248 0.37963 0.11623 0.0
C19 C 0.23837 0.45187 0.13883 0.0
O20 O 0.37537 0.51878 0.06865 0.0
O21 O 0.31238 0.55269 0.06757 0.0
O22 O 0.17997 0.41214 0.09385 0.0
O23 O 0.19454 0.44464 0.05713 0.0
O24 O 0.19479 0.30356 0.06167 0.0
O25 O 0.27071 0.39508 0.04685 0.0
O26 O 0.09224 0.26496 0.10851 0.0
O27 O 0.15804 0.24366 0.12441 0.0
O28 O 0.29362 0.3809 0.09452 0.0
O29 O 0.26821 0.34989 0.13173 0.0
O30 O 0.28252 0.48125 0.12247 0.0
O31 O 0.19235 0.39797 0.13378 0.0
H32 H 0.42141 0.67441 0.04081 0.0
H33 H 0.44127 0.70281 0.9965 0.0
H34 H 0.35993 0.5147 0.97667 0.0
H35 H 0.3425 0.48736 0.0207 0.0
H36 H 0.06173 0.13164 0.15349 0.0
H37 H 0.0241 0.11833 0.19657 0.0
H38 H 0.03953 0.29403 0.19365 0.0
H39 H 0.07793 0.30746 0.15089 0.0
Pr40 Pr 0.71615 0.19499 0.50866 0.0
Pr41 Pr 0.78478 0.13267 0.48673 0.0
C42 C 0.63432 0.21391 0.53225 0.0
C43 C 0.62027 0.21549 0.55873 0.0
C44 C 0.66055 0.21856 0.57722 0.0
C45 C 0.64674 0.21856 0.60248 0.0
C46 C 0.59235 0.21543 0.60969 0.0
C47 C 0.55205 0.21219 0.59104 0.0
C48 C 0.56593 0.21216 0.56575 0.0
C49 C 0.84003 0.26757 0.51041 0.0
C50 C 0.74339 0.10228 0.54516 0.0
C51 C 0.86128 0.11161 0.45988 0.0
C52 C 0.87853 0.12201 0.43317 0.0
C53 C 0.83565 0.11306 0.41481 0.0
C54 C 0.85245 0.12489 0.38963 0.0
C55 C 0.91276 0.1468 0.3822 0.0
C56 C 0.95575 0.15667 0.40078 0.0
C57 C 0.93873 0.14426 0.42597 0.0
C58 C 0.6596 0.06982 0.48169 0.0
C59 C 0.75572 0.22308 0.45006 0.0
O60 O 0.62196 0.16101 0.52383 0.0
O61 O 0.68666 0.25777 0.52459 0.0
O62 O 0.81273 0.21103 0.51414 0.0
O63 O 0.8029 0.28807 0.50849 0.0
O64 O 0.77904 0.09924 0.52796 0.0
O65 O 0.71387 0.13171 0.54122 0.0
O66 O 0.87943 0.16001 0.47343 0.0
O67 O 0.80581 0.06973 0.46496 0.0
O68 O 0.6941 0.1252 0.47862 0.0
O69 O 0.68999 0.04268 0.48656 0.0
O70 O 0.71643 0.22132 0.46664 0.0
O71 O 0.7888 0.19771 0.45461 0.0
H72 H 0.70272 0.22101 0.57208 0.0
H73 H 0.67899 0.22179 0.61636 0.0
H74 H 0.50943 0.2089 0.59602 0.0
H75 H 0.53415 0.20921 0.55168 0.0
H76 H 0.789 0.09694 0.4199 0.0
H77 H 0.81781 0.11604 0.37598 0.0
H78 H 0.00282 0.17473 0.39594 0.0
H79 H 0.97275 0.1526 0.43988 0.0
Pr80 Pr 0.49724 0.77787 0.74503 0.0
Pr81 Pr 0.62673 0.84701 0.76855 0.0
C82 C 0.39436 0.7511 0.72132 0.0
C83 C 0.37565 0.7427 0.69511 0.0
C84 C 0.31628 0.72623 0.6889 0.0
C85 C 0.29836 0.71797 0.66389 0.0
C86 C 0.33971 0.72626 0.64476 0.0
C87 C 0.39927 0.74274 0.65115 0.0
C88 C 0.417 0.75064 0.67616 0.0
C89 C 0.55423 0.71097 0.74453 0.0
C90 C 0.61832 0.87414 0.70946 0.0
C91 C 0.72603 0.87704 0.79609 0.0
C92 C 0.73667 0.86514 0.82215 0.0
C93 C 0.78474 0.91015 0.83581 0.0
C94 C 0.79348 0.90039 0.86087 0.0
C95 C 0.75427 0.84528 0.87281 0.0
C96 C 0.70648 0.80005 0.85895 0.0
C97 C 0.69769 0.81 0.83396 0.0
C98 C 0.55725 0.90319 0.771 0.0
C99 C 0.50851 0.75156 0.80408 0.0
O100 O 0.43471 0.80611 0.72765 0.0
O101 O 0.40504 0.71006 0.73062 0.0
O102 O 0.58166 0.7676 0.7411 0.0
O103 O 0.49605 0.68756 0.7452 0.0
O104 O 0.65616 0.88 0.72749 0.0
O105 O 0.55896 0.84191 0.71249 0.0
O106 O 0.70222 0.83095 0.78089 0.0
O107 O 0.70348 0.9126 0.7933 0.0
O108 O 0.53954 0.84869 0.77489 0.0
O109 O 0.61512 0.93322 0.76667 0.0
O110 O 0.47056 0.75085 0.78712 0.0
O111 O 0.56713 0.77872 0.7998 0.0
H112 H 0.2839 0.71994 0.70337 0.0
H113 H 0.25241 0.70611 0.65949 0.0
H114 H 0.43195 0.74897 0.63683 0.0
H115 H 0.46292 0.76278 0.68075 0.0
H116 H 0.8153 0.95311 0.82713 0.0
H117 H 0.83122 0.93594 0.87085 0.0
H118 H 0.67493 0.75737 0.86756 0.0
H119 H 0.65977 0.77481 0.82402 0.0
Pr120 Pr 0.81256 0.53059 0.1763 0.0
Pr121 Pr 0.85065 0.65362 0.15159 0.0
C122 C 0.7934 0.42518 0.19535 0.0
C123 C 0.79249 0.40403 0.22119 0.0
C124 C 0.7425 0.35044 0.22967 0.0
C125 C 0.73872 0.33223 0.25462 0.0
C126 C 0.78512 0.36711 0.27164 0.0
C127 C 0.83562 0.42042 0.26294 0.0
C128 C 0.8391 0.43886 0.23806 0.0
C129 C 0.72862 0.57019 0.18209 0.0
C130 C 0.88736 0.6502 0.2114 0.0
C131 C 0.86487 0.75471 0.12984 0.0
C132 C 0.84892 0.76636 0.10467 0.0
C133 C 0.88872 0.81923 0.0917 0.0
C134 C 0.87666 0.82815 0.067 0.0
C135 C 0.82449 0.78428 0.05471 0.0
C136 C 0.78417 0.73176 0.06795 0.0
C137 C 0.79633 0.72282 0.09261 0.0
C138 C 0.92104 0.60301 0.13861 0.0
C139 C 0.77207 0.53215 0.11822 0.0
O140 O 0.84572 0.46628 0.18641 0.0
O141 O 0.74945 0.43506 0.18957 0.0
O142 O 0.7588 0.57519 0.1628 0.0
O143 O 0.74279 0.54469 0.1998 0.0
O144 O 0.88189 0.68293 0.19344 0.0
O145 O 0.86942 0.59271 0.20845 0.0
O146 O 0.81995 0.72151 0.14502 0.0
O147 O 0.90782 0.74111 0.1305 0.0
O148 O 0.90304 0.60411 0.16052 0.0
O149 O 0.90499 0.63093 0.12289 0.0
O150 O 0.78855 0.50366 0.1342 0.0
O151 O 0.78102 0.58651 0.12306 0.0
H152 H 0.70568 0.32323 0.2171 0.0
H153 H 0.69867 0.29148 0.26067 0.0
H154 H 0.87266 0.44804 0.27532 0.0
H155 H 0.87801 0.48081 0.23216 0.0
H156 H 0.92972 0.85321 0.10055 0.0
H157 H 0.90832 0.86943 0.05749 0.0
H158 H 0.74398 0.69673 0.05902 0.0
H159 H 0.76514 0.68127 0.10208 0.0
Pr160 Pr 0.17418 0.70501 0.41015 0.0
Pr161 Pr 0.11421 0.77208 0.43714 0.0
C162 C 0.20781 0.63059 0.3894 0.0
C163 C 0.22108 0.61978 0.36384 0.0
C164 C 0.23727 0.66402 0.34524 0.0
C165 C 0.24586 0.65197 0.32057 0.0
C166 C 0.23782 0.59525 0.31402 0.0
C167 C 0.222 0.55128 0.33285 0.0
C168 C 0.21376 0.56352 0.35754 0.0
C169 C 0.24731 0.82982 0.41386 0.0
C170 C 0.1007 0.75386 0.37494 0.0
C171 C 0.09271 0.85236 0.46055 0.0
C172 C 0.11048 0.87985 0.48561 0.0
C173 C 0.07771 0.9031 0.4976 0.0
C174 C 0.09232 0.92543 0.52206 0.0
C175 C 0.13959 0.92427 0.53506 0.0
C176 C 0.17274 0.90158 0.52281 0.0
C177 C 0.15849 0.87988 0.49835 0.0
C178 C 0.04685 0.64685 0.43896 0.0
C179 C 0.18777 0.72369 0.47183 0.0
O180 O 0.15146 0.61475 0.39374 0.0
O181 O 0.24612 0.68254 0.39927 0.0
O182 O 0.21158 0.79497 0.43028 0.0
O183 O 0.24525 0.79953 0.394 0.0
O184 O 0.09283 0.78021 0.39479 0.0
O185 O 0.12719 0.72097 0.37627 0.0
O186 O 0.13662 0.86813 0.4443 0.0
O187 O 0.05373 0.7945 0.4603 0.0
O188 O 0.07763 0.67771 0.4205 0.0
O189 O 0.04478 0.681 0.45639 0.0
O190 O 0.18807 0.69114 0.45275 0.0
O191 O 0.17022 0.76383 0.46939 0.0
H192 H 0.24249 0.70759 0.34973 0.0
H193 H 0.2586 0.68704 0.30662 0.0
H194 H 0.21434 0.50678 0.32841 0.0
H195 H 0.20047 0.52863 0.37162 0.0
H196 H 0.04027 0.90316 0.4882 0.0
H197 H 0.0656 0.94215 0.53103 0.0
H198 H 0.20987 0.90071 0.53212 0.0
H199 H 0.18469 0.86251 0.48949 0.0
Pr200 Pr 0.47263 0.26819 0.84446 0.0
Pr201 Pr 0.34406 0.20287 0.81955 0.0
C202 C 0.57242 0.35076 0.86786 0.0
C203 C 0.59096 0.36366 0.894 0.0
C204 C 0.56174 0.3192 0.91242 0.0
C205 C 0.57897 0.33191 0.93739 0.0
C206 C 0.62532 0.38949 0.94435 0.0
C207 C 0.65384 0.43408 0.92577 0.0
C208 C 0.63683 0.42115 0.90077 0.0
C209 C 0.41984 0.14476 0.84648 0.0
C210 C 0.34831 0.23724 0.87871 0.0
C211 C 0.24732 0.13179 0.79115 0.0
C212 C 0.23941 0.10918 0.7652 0.0
C213 C 0.27822 0.14519 0.74593 0.0
C214 C 0.26964 0.12382 0.72134 0.0
C215 C 0.22241 0.06559 0.71545 0.0
C216 C 0.1848 0.02912 0.73504 0.0
C217 C 0.19312 0.05078 0.75959 0.0
C218 C 0.41112 0.3284 0.81567 0.0
C219 C 0.46591 0.22535 0.78674 0.0
O220 O 0.52896 0.3608 0.86117 0.0
O221 O 0.56644 0.30041 0.85903 0.0
O222 O 0.39042 0.17249 0.84831 0.0
O223 O 0.47781 0.18117 0.84719 0.0
O224 O 0.31198 0.2047 0.86039 0.0
O225 O 0.40781 0.26698 0.87612 0.0
O226 O 0.2706 0.11021 0.807 0.0
O227 O 0.26827 0.18963 0.79386 0.0
O228 O 0.43008 0.29227 0.81302 0.0
O229 O 0.35309 0.29985 0.81962 0.0
O230 O 0.50168 0.26571 0.80322 0.0
O231 O 0.40706 0.19287 0.79035 0.0
H232 H 0.52566 0.27465 0.90746 0.0
H233 H 0.55644 0.29648 0.95119 0.0
H234 H 0.68881 0.47923 0.93057 0.0
H235 H 0.65919 0.45611 0.88676 0.0
H236 H 0.31493 0.19018 0.74981 0.0
H237 H 0.29937 0.15361 0.70691 0.0
H238 H 0.14892 0.98357 0.73148 0.0
H239 H 0.16324 0.02187 0.77422 0.0
C240 C 0.22082 0.60059 0.26809 0.0
C241 C 0.24381 0.58111 0.28755 0.0
C242 C 0.22303 0.58464 0.24318 0.0
C243 C 0.24831 0.54787 0.23763 0.0
C244 C 0.27287 0.52923 0.25706 0.0
C245 C 0.27056 0.54629 0.28176 0.0
C246 C 0.19645 0.60542 0.22293 0.0
C247 C 0.29987 0.48965 0.25188 0.0
C248 C 0.19221 0.44792 0.18046 0.0
C249 C 0.24021 0.47862 0.16355 0.0
C250 C 0.19407 0.47045 0.20447 0.0
C251 C 0.24514 0.52519 0.2118 0.0
C252 C 0.29333 0.55706 0.19473 0.0
C253 C 0.29034 0.53332 0.17078 0.0
C254 C 0.14193 0.43483 0.22219 0.0
C255 C 0.34839 0.61568 0.2019 0.0
H256 H 0.19935 0.62682 0.27237 0.0
H257 H 0.28935 0.53191 0.29661 0.0
H258 H 0.22956 0.62741 0.20753 0.0
H259 H 0.15622 0.56598 0.21486 0.0
H260 H 0.18274 0.63755 0.23004 0.0
H261 H 0.32026 0.48203 0.26882 0.0
H262 H 0.26434 0.4453 0.24482 0.0
H263 H 0.33506 0.51017 0.23713 0.0
H264 H 0.15321 0.40563 0.1751 0.0
H265 H 0.32771 0.55721 0.15788 0.0
H266 H 0.12497 0.46382 0.22984 0.0
H267 H 0.15745 0.41857 0.23822 0.0
H268 H 0.10386 0.39531 0.21303 0.0
H269 H 0.33479 0.64826 0.20844 0.0
H270 H 0.38072 0.63624 0.1861 0.0
H271 H 0.37194 0.60792 0.21762 0.0
C272 C 0.54998 0.25933 0.75542 0.0
C273 C 0.49017 0.2192 0.76249 0.0
C274 C 0.57077 0.25734 0.7313 0.0
C275 C 0.53075 0.21419 0.71398 0.0
C276 C 0.47124 0.17177 0.72144 0.0
C277 C 0.45172 0.17481 0.74557 0.0
C278 C 0.6347 0.30302 0.72401 0.0
C279 C 0.42724 0.12483 0.7036 0.0
C280 C 0.55301 0.25084 0.64474 0.0
C281 C 0.57787 0.21593 0.63655 0.0
C282 C 0.53844 0.25136 0.66998 0.0
C283 C 0.54917 0.21625 0.68749 0.0
C284 C 0.57487 0.1814 0.67943 0.0
C285 C 0.58882 0.18158 0.65403 0.0
C286 C 0.51079 0.28891 0.67785 0.0
C287 C 0.58671 0.14321 0.69756 0.0
H288 H 0.58002 0.29359 0.76841 0.0
H289 H 0.40551 0.14321 0.75089 0.0
H290 H 0.6575 0.28025 0.71544 0.0
H291 H 0.63415 0.33436 0.7098 0.0
H292 H 0.66168 0.32983 0.74025 0.0
H293 H 0.41813 0.14733 0.68782 0.0
H294 H 0.4469 0.09854 0.69556 0.0
H295 H 0.38365 0.09311 0.71278 0.0
H296 H 0.54526 0.27815 0.63139 0.0
H297 H 0.60726 0.15389 0.64776 0.0
H298 H 0.53839 0.32083 0.69275 0.0
H299 H 0.46506 0.25929 0.68574 0.0
H300 H 0.50697 0.315 0.66205 0.0
H301 H 0.61521 0.17133 0.7132 0.0
H302 H 0.60952 0.12093 0.68848 0.0
H303 H 0.5435 0.10795 0.70581 0.0
C304 C 0.40229 0.67326 0.94645 0.0
C305 C 0.41174 0.62747 0.95588 0.0
C306 C 0.41258 0.69008 0.92112 0.0
C307 C 0.43251 0.6602 0.90473 0.0
C308 C 0.4405 0.61281 0.91393 0.0
C309 C 0.4303 0.59721 0.93938 0.0
C310 C 0.40414 0.74127 0.91208 0.0
C311 C 0.46172 0.57984 0.89706 0.0
C312 C 0.42749 0.68283 0.83438 0.0
C313 C 0.48745 0.727 0.82953 0.0
C314 C 0.40878 0.65998 0.85876 0.0
C315 C 0.45089 0.68262 0.87866 0.0
C316 C 0.51129 0.72755 0.87379 0.0
C317 C 0.52877 0.74882 0.84935 0.0
C318 C 0.34418 0.61154 0.86325 0.0
C319 C 0.55772 0.75333 0.8944 0.0
H320 H 0.38683 0.69611 0.9589 0.0
H321 H 0.43834 0.56217 0.94647 0.0
H322 H 0.44834 0.77969 0.90618 0.0
H323 H 0.37417 0.72712 0.89552 0.0
H324 H 0.3846 0.75718 0.92674 0.0
H325 H 0.4596 0.54006 0.90643 0.0
H326 H 0.43396 0.56461 0.87986 0.0
H327 H 0.50905 0.6108 0.89119 0.0
H328 H 0.39548 0.66567 0.81912 0.0
H329 H 0.57498 0.78367 0.84589 0.0
H330 H 0.32262 0.62746 0.87693 0.0
H331 H 0.34283 0.57104 0.87144 0.0
H332 H 0.3172 0.5983 0.84579 0.0
H333 H 0.54055 0.76842 0.91025 0.0
H334 H 0.60107 0.79215 0.88791 0.0
H335 H 0.56678 0.71799 0.90162 0.0
C336 C 0.81083 0.26288 0.40976 0.0
C337 C 0.76089 0.24983 0.42494 0.0
C338 C 0.81597 0.28526 0.38541 0.0
C339 C 0.76912 0.2933 0.37561 0.0
C340 C 0.71858 0.28048 0.39084 0.0
C341 C 0.7154 0.25955 0.41546 0.0
C342 C 0.87189 0.30066 0.37031 0.0
C343 C 0.66703 0.28707 0.38084 0.0
C344 C 0.8016 0.39132 0.31759 0.0
C345 C 0.78058 0.34828 0.29838 0.0
C346 C 0.79808 0.37418 0.34279 0.0
C347 C 0.77189 0.31241 0.34906 0.0
C348 C 0.75022 0.2687 0.32984 0.0
C349 C 0.75521 0.28715 0.30478 0.0
C350 C 0.82306 0.42223 0.36269 0.0
C351 C 0.72281 0.20241 0.33572 0.0
H352 H 0.84608 0.25529 0.41688 0.0
H353 H 0.67638 0.24894 0.42698 0.0
H354 H 0.85996 0.28201 0.35116 0.0
H355 H 0.89983 0.35034 0.36846 0.0
H356 H 0.89975 0.28365 0.37921 0.0
H357 H 0.63175 0.27681 0.39523 0.0
H358 H 0.68398 0.33359 0.37383 0.0
H359 H 0.646 0.25616 0.36481 0.0
H360 H 0.82051 0.43859 0.31297 0.0
H361 H 0.74 0.25355 0.29016 0.0
H362 H 0.85913 0.41976 0.3732 0.0
H363 H 0.78712 0.41455 0.37631 0.0
H364 H 0.84204 0.46832 0.35474 0.0
H365 H 0.75753 0.19388 0.34409 0.0
H366 H 0.70446 0.17385 0.31883 0.0
H367 H 0.68592 0.18832 0.34966 0.0
C368 C 0.26521 0.67069 0.61087 0.0
C369 C 0.32096 0.71919 0.61821 0.0
C370 C 0.24472 0.66608 0.58625 0.0
C371 C 0.28083 0.7112 0.56862 0.0
C372 C 0.33828 0.7589 0.57564 0.0
C373 C 0.3577 0.7623 0.60038 0.0
C374 C 0.18323 0.61453 0.57942 0.0
C375 C 0.37796 0.80796 0.55735 0.0
C376 C 0.24105 0.68602 0.49956 0.0
C377 C 0.21004 0.71785 0.49655 0.0
C378 C 0.26432 0.6831 0.52298 0.0
C379 C 0.25577 0.71224 0.54375 0.0
C380 C 0.22348 0.74337 0.54087 0.0
C381 C 0.20123 0.74592 0.51733 0.0
C382 C 0.29876 0.6497 0.52543 0.0
C383 C 0.21298 0.77474 0.56258 0.0
H384 H 0.23716 0.63675 0.62452 0.0
H385 H 0.40067 0.80008 0.60601 0.0
H386 H 0.15212 0.63206 0.57574 0.0
H387 H 0.18595 0.59242 0.56205 0.0
H388 H 0.16349 0.5801 0.59452 0.0
H389 H 0.4237 0.83829 0.56498 0.0
H390 H 0.3826 0.78807 0.53967 0.0
H391 H 0.3568 0.83545 0.55268 0.0
H392 H 0.24804 0.66426 0.48358 0.0
H393 H 0.17684 0.77018 0.51527 0.0
H394 H 0.27807 0.61461 0.54019 0.0
H395 H 0.34583 0.68138 0.53123 0.0
H396 H 0.29987 0.62791 0.50766 0.0
H397 H 0.19169 0.74293 0.57843 0.0
H398 H 0.18362 0.79353 0.55745 0.0
H399 H 0.2568 0.8121 0.56924 0.0
C400 C 0.72273 0.53283 0.07829 0.0
C401 C 0.74361 0.50379 0.0943 0.0
C402 C 0.69987 0.50957 0.05466 0.0
C403 C 0.69745 0.45568 0.0469 0.0
C404 C 0.71622 0.42479 0.06329 0.0
C405 C 0.73935 0.44938 0.08685 0.0
C406 C 0.68068 0.5441 0.03763 0.0
C407 C 0.71363 0.36685 0.05567 0.0
C408 C 0.60042 0.38175 0.99007 0.0
C409 C 0.64381 0.40329 0.97087 0.0
C410 C 0.61739 0.3965 0.01511 0.0
C411 C 0.67905 0.43426 0.02097 0.0
C412 C 0.72313 0.45515 1.00178 0.0
C413 C 0.70499 0.43904 0.97698 0.0
C414 C 0.56928 0.37315 0.03519 0.0
C415 C 0.78932 0.49602 1.00734 0.0
H416 H 0.72536 0.57465 0.08396 0.0
H417 H 0.75534 0.42669 0.09914 0.0
H418 H 0.71158 0.56155 0.02128 0.0
H419 H 0.63458 0.51404 0.03039 0.0
H420 H 0.68119 0.58277 0.04722 0.0
H421 H 0.72447 0.34552 0.07141 0.0
H422 H 0.66809 0.33438 0.0485 0.0
H423 H 0.74632 0.37598 0.0403 0.0
H424 H 0.55299 0.35462 0.98548 0.0
H425 H 0.73884 0.45481 0.96231 0.0
H426 H 0.56678 0.41127 0.04373 0.0
H427 H 0.5809 0.35102 0.05031 0.0
H428 H 0.52402 0.34042 0.02777 0.0
H429 H 0.7964 0.53902 0.01532 0.0
H430 H 0.81806 0.50641 0.99038 0.0
H431 H 0.80467 0.47494 0.02149 0.0
C432 C 0.4241 0.42385 0.11233 0.0
C433 C 0.37436 0.41971 0.12504 0.0
C434 C 0.48217 0.45579 0.12279 0.0
C435 C 0.49046 0.48624 0.14587 0.0
C436 C 0.44073 0.48581 0.15768 0.0
C437 C 0.38303 0.45107 0.14749 0.0
C438 C 0.53388 0.45407 0.10988 0.0
C439 C 0.448 0.52035 0.18149 0.0
C440 C 0.61848 0.50098 0.18644 0.0
C441 C 0.66609 0.55696 0.17871 0.0
C442 C 0.56055 0.47819 0.17637 0.0
C443 C 0.54965 0.51324 0.15885 0.0
C444 C 0.59636 0.57214 0.15279 0.0
C445 C 0.65446 0.59283 0.16241 0.0
C446 C 0.5124 0.41466 0.18297 0.0
C447 C 0.58608 0.61201 0.13504 0.0
H448 H 0.41707 0.39934 0.09501 0.0
H449 H 0.34447 0.44806 0.15727 0.0
H450 H 0.57129 0.50045 0.10619 0.0
H451 H 0.55181 0.43185 0.12225 0.0
H452 H 0.52014 0.42932 0.09188 0.0
H453 H 0.40691 0.52285 0.18608 0.0
H454 H 0.45731 0.49812 0.19729 0.0
H455 H 0.48692 0.56685 0.17985 0.0
H456 H 0.62763 0.47261 0.19862 0.0
H457 H 0.69154 0.63582 0.15618 0.0
H458 H 0.49917 0.38628 0.16593 0.0
H459 H 0.47145 0.41415 0.19014 0.0
H460 H 0.52782 0.39388 0.19728 0.0
H461 H 0.58565 0.59717 0.11555 0.0
H462 H 0.62224 0.65991 0.13653 0.0
H463 H 0.54185 0.60883 0.13872 0.0
C464 C 0.0702 0.56381 0.44399 0.0
C465 C 0.02777 0.58315 0.44355 0.0
C466 C 0.05594 0.50782 0.45431 0.0
C467 C 0.99678 0.46924 0.46329 0.0
C468 C 0.9522 0.48646 0.46067 0.0
C469 C 0.96879 0.54401 0.45152 0.0
C470 C 0.10582 0.49305 0.45725 0.0
C471 C 0.8875 0.44529 0.46866 0.0
C472 C 0.91733 0.30432 0.4774 0.0
C473 C 0.90303 0.30606 0.50256 0.0
C474 C 0.95568 0.35764 0.46437 0.0
C475 C 0.9811 0.41304 0.47723 0.0
C476 C 0.97709 0.41304 0.50361 0.0
C477 C 0.93708 0.35933 0.51601 0.0
C478 C 0.96134 0.3554 0.43637 0.0
C479 C 0.00785 0.47093 0.51825 0.0
H480 H 0.11573 0.5937 0.43787 0.0
H481 H 0.93595 0.55903 0.45114 0.0
H482 H 0.13119 0.51458 0.47458 0.0
H483 H 0.0887 0.44395 0.45869 0.0
H484 H 0.13813 0.51159 0.44134 0.0
H485 H 0.85728 0.46228 0.46243 0.0
H486 H 0.8704 0.39944 0.46091 0.0
H487 H 0.88492 0.4413 0.48934 0.0
H488 H 0.89235 0.26328 0.46697 0.0
H489 H 0.92663 0.3608 0.53557 0.0
H490 H 0.00715 0.38931 0.42985 0.0
H491 H 0.92869 0.36597 0.42731 0.0
H492 H 0.95165 0.31011 0.43012 0.0
H493 H 0.05353 0.50172 0.51054 0.0
H494 H 0.0119 0.4624 0.53833 0.0
H495 H 0.98101 0.49402 0.51686 0.0
C496 C 0.42153 0.051 0.85046 0.0
C497 C 0.39695 0.08238 0.8385 0.0
C498 C 0.43241 0.01033 0.83723 0.0
C499 C 0.41842 0.00142 0.81144 0.0
C500 C 0.38491 0.02564 0.80042 0.0
C501 C 0.37389 0.06558 0.81433 0.0
C502 C 0.46633 0.98362 0.84999 0.0
C503 C 0.36719 0.01534 0.77322 0.0
C504 C 0.5428 0.99175 0.77749 0.0
C505 C 0.51871 0.92939 0.7765 0.0
C506 C 0.50826 0.01603 0.78691 0.0
C507 C 0.44864 0.97674 0.79566 0.0
C508 C 0.42252 0.91391 0.79256 0.0
C509 C 0.45795 0.89097 0.783 0.0
C510 C 0.53709 0.08363 0.78919 0.0
C511 C 0.35897 0.87042 0.80114 0.0
H512 H 0.43923 0.06391 0.86924 0.0
H513 H 0.35419 0.08896 0.80512 0.0
H514 H 0.44644 0.93529 0.84524 0.0
H515 H 0.51391 0.00732 0.84341 0.0
H516 H 0.46617 0.98791 0.87065 0.0
H517 H 0.33325 0.02888 0.76864 0.0
H518 H 0.40774 0.0422 0.76139 0.0
H519 H 0.34869 0.96728 0.76825 0.0
H520 H 0.58942 0.02145 0.77209 0.0
H521 H 0.4387 0.84255 0.78181 0.0
H522 H 0.54463 0.09644 0.80922 0.0
H523 H 0.50682 0.09909 0.78154 0.0
H524 H 0.58111 0.10781 0.77923 0.0
H525 H 0.35945 0.861 0.82136 0.0
H526 H 0.33994 0.82692 0.791 0.0
H527 H 0.32869 0.88933 0.79848 0.0
C528 C 0.56004 0.62005 0.73912 0.0
C529 C 0.5804 0.67404 0.75211 0.0
C530 C 0.54711 0.56705 0.75181 0.0
C531 C 0.55497 0.56876 0.77805 0.0
C532 C 0.58518 0.62502 0.79038 0.0
C533 C 0.59842 0.67745 0.77701 0.0
C534 C 0.5169 0.50826 0.7377 0.0
C535 C 0.59664 0.62988 0.81816 0.0
C536 C 0.42484 0.43088 0.80792 0.0
C537 C 0.44952 0.39323 0.81029 0.0
C538 C 0.46036 0.49025 0.79915 0.0
C539 C 0.52161 0.51181 0.79252 0.0
C540 C 0.5478 0.47552 0.79688 0.0
C541 C 0.51136 0.41652 0.80564 0.0
C542 C 0.43157 0.52885 0.79572 0.0
C543 C 0.61341 0.49785 0.79106 0.0
H544 H 0.54619 0.61748 0.71979 0.0
H545 H 0.61503 0.71926 0.78698 0.0
H546 H 0.53544 0.4791 0.74342 0.0
H547 H 0.46789 0.48375 0.7421 0.0
H548 H 0.5225 0.51546 0.71715 0.0
H549 H 0.56176 0.63643 0.82772 0.0
H550 H 0.59553 0.58933 0.82612 0.0
H551 H 0.64121 0.66983 0.8223 0.0
H552 H 0.37734 0.41323 0.81188 0.0
H553 H 0.53101 0.38786 0.80794 0.0
H554 H 0.42989 0.53787 0.77551 0.0
H555 H 0.45905 0.57296 0.80507 0.0
H556 H 0.38496 0.50708 0.80341 0.0
H557 H 0.62019 0.50051 0.7705 0.0
H558 H 0.62889 0.46767 0.79888 0.0
H559 H 0.64215 0.54387 0.79863 0.0
C560 C 0.05874 0.39522 0.0956 0.0
C561 C 0.10477 0.43042 0.07852 0.0
C562 C 0.02001 0.41478 0.10484 0.0
C563 C 0.02927 0.47195 0.09752 0.0
C564 C 0.07362 0.50609 0.07922 0.0
C565 C 0.11019 0.48436 0.06962 0.0
C566 C 0.97162 0.3758 0.12348 0.0
C567 C 0.0858 0.5678 0.07124 0.0
C568 C 0.92035 0.52914 0.10863 0.0
C569 C 0.94409 0.56359 0.1303 0.0
C570 C 0.94472 0.4952 0.09881 0.0
C571 C 0.99617 0.49854 0.11018 0.0
C572 C 0.01931 0.53207 0.13253 0.0
C573 C 0.992 0.56328 0.14265 0.0
C574 C 0.91659 0.4575 0.0758 0.0
C575 C 0.07493 0.53783 0.14495 0.0
H576 H 0.05493 0.35372 0.10265 0.0
H577 H 0.14641 0.51217 0.05674 0.0
H578 H 0.92901 0.37574 0.11953 0.0
H579 H 0.96247 0.32859 0.12332 0.0
H580 H 0.98627 0.39403 0.14256 0.0
H581 H 0.12069 0.58777 0.05632 0.0
H582 H 0.04385 0.56543 0.06433 0.0
H583 H 0.10134 0.59849 0.08758 0.0
H584 H 0.88284 0.52909 0.0992 0.0
H585 H 0.01024 0.59017 0.15937 0.0
H586 H 0.91209 0.41234 0.07801 0.0
H587 H 0.94603 0.47943 0.05934 0.0
H588 H 0.87133 0.4517 0.07186 0.0
H589 H 0.06839 0.49265 0.14939 0.0
H590 H 0.08633 0.56443 0.16248 0.0
H591 H 0.11396 0.56013 0.13194 0.0
C592 C 0.35579 0.90517 0.40684 0.0
C593 C 0.30393 0.88308 0.42176 0.0
C594 C 0.41307 0.94208 0.41714 0.0
C595 C 0.41808 0.9568 0.44286 0.0
C596 C 0.36555 0.93944 0.45733 0.0
C597 C 0.30895 0.90323 0.44648 0.0
C598 C 0.46826 0.96119 0.40099 0.0
C599 C 0.36891 0.95445 0.48478 0.0
C600 C 0.5602 0.97727 0.47393 0.0
C601 C 0.59576 0.04006 0.47431 0.0
C602 C 0.50125 0.9495 0.46445 0.0
C603 C 0.47803 0.98563 0.45501 0.0
C604 C 0.51308 0.04904 0.45623 0.0
C605 C 0.57145 0.07549 0.466 0.0
C606 C 0.46444 0.88155 0.46386 0.0
C607 C 0.4898 0.08896 0.44643 0.0
H608 H 0.35204 0.89012 0.38767 0.0
H609 H 0.26879 0.88676 0.45799 0.0
H610 H 0.50074 0.00994 0.40336 0.0
H611 H 0.49135 0.93627 0.40686 0.0
H612 H 0.4567 0.95214 0.38087 0.0
H613 H 0.32468 0.94569 0.49228 0.0
H614 H 0.38306 0.92639 0.49545 0.0
H615 H 0.403 0.00232 0.48814 0.0
H616 H 0.57888 0.94994 0.48049 0.0
H617 H 0.59871 0.12419 0.46645 0.0
H618 H 0.45491 0.86597 0.44419 0.0
H619 H 0.42037 0.86574 0.47332 0.0
H620 H 0.48791 0.86009 0.47306 0.0
H621 H 0.48288 0.08285 0.42594 0.0
H622 H 0.52138 0.13742 0.4502 0.0
H623 H 0.44542 0.07609 0.455 0.0
C624 C 0.36109 0.26675 0.92387 0.0
C625 C 0.32277 0.24137 0.90322 0.0
C626 C 0.33933 0.27459 0.94685 0.0
C627 C 0.27755 0.25702 0.94942 0.0
C628 C 0.23811 0.2296 0.92894 0.0
C629 C 0.26112 0.22191 0.90612 0.0
C630 C 0.38312 0.30371 0.96814 0.0
C631 C 0.1721 0.21064 0.93083 0.0
C632 C 0.22382 0.2532 0.01655 0.0
C633 C 0.23344 0.31183 0.01896 0.0
C634 C 0.23534 0.2334 0.99365 0.0
C635 C 0.25622 0.27297 0.97272 0.0
C636 C 0.2622 0.33079 0.97478 0.0
C637 C 0.25107 0.34948 0.99782 0.0
C638 C 0.22851 0.17149 0.99227 0.0
C639 C 0.28368 0.37448 0.95304 0.0
H640 H 0.40869 0.28137 0.92205 0.0
H641 H 0.23106 0.20217 0.89035 0.0
H642 H 0.38798 0.34835 0.97229 0.0
H643 H 0.36568 0.27581 0.98532 0.0
H644 H 0.42853 0.31024 0.96383 0.0
H645 H 0.14627 0.18484 0.91419 0.0
H646 H 0.15173 0.18262 0.94778 0.0
H647 H 0.1673 0.25119 0.93264 0.0
H648 H 0.21046 0.22402 0.03283 0.0
H649 H 0.25779 0.39461 0.99944 0.0
H650 H 0.27379 0.17579 0.99085 0.0
H651 H 0.20296 0.14755 0.97532 0.0
H652 H 0.20512 0.14366 1.00899 0.0
H653 H 0.33229 0.39108 0.94957 0.0
H654 H 0.27781 0.41396 0.9566 0.0
H655 H 0.25892 0.35187 0.93575 0.0
C656 C 0.97398 0.14611 0.34535 0.0
C657 C 0.93046 0.1586 0.35521 0.0
C658 C 0.99021 0.1558 0.31993 0.0
C659 C 0.96193 0.17802 0.30377 0.0
C660 C 0.91824 0.19108 0.31355 0.0
C661 C 0.90318 0.18136 0.33909 0.0
C662 C 0.03718 0.14149 0.31031 0.0
C663 C 0.88696 0.21485 0.29701 0.0
C664 C 0.0406 0.24743 0.24194 0.0
C665 C 0.01015 0.19909 0.22535 0.0
C666 C 0.02478 0.24161 0.2674 0.0
C667 C 0.97721 0.18613 0.27655 0.0
C668 C 0.94561 0.13752 0.25982 0.0
C669 C 0.96256 0.14452 0.23448 0.0
C670 C 0.05993 0.29444 0.2846 0.0
C671 C 0.89428 0.0778 0.26876 0.0
H672 H 0.99464 0.12749 0.35739 0.0
H673 H 0.87001 0.19179 0.34643 0.0
H674 H 0.01683 0.10526 0.29612 0.0
H675 H 0.07437 0.1817 0.30098 0.0
H676 H 0.0566 0.12669 0.32544 0.0
H677 H 0.85417 0.22298 0.30751 0.0
H678 H 0.92078 0.2577 0.28804 0.0
H679 H 0.86261 0.18229 0.28181 0.0
H680 H 0.07797 0.2895 0.23514 0.0
H681 H 0.93833 0.10723 0.22174 0.0
H682 H 0.08362 0.28244 0.29887 0.0
H683 H 0.0288 0.30549 0.29471 0.0
H684 H 0.09387 0.33526 0.27438 0.0
H685 H 0.91105 0.05773 0.28279 0.0
H686 H 0.87287 0.04521 0.25325 0.0
H687 H 0.85934 0.08456 0.27809 0.0
C688 C 0.70278 0.95101 0.68232 0.0
C689 C 0.6423 0.90532 0.68499 0.0
C690 C 0.72441 0.98317 0.65967 0.0
C691 C 0.6849 0.96896 0.63903 0.0
C692 C 0.62433 0.92163 0.6414 0.0
C693 C 0.60379 0.89076 0.66429 0.0
C694 C 0.78901 0.03383 0.65811 0.0
C695 C 0.58061 0.90445 0.61991 0.0
C696 C 0.71028 0.0874 0.58997 0.0
C697 C 0.73402 0.07102 0.56971 0.0
C698 C 0.69634 0.05603 0.61282 0.0
C699 C 0.70529 0.00605 0.61556 0.0
C700 C 0.73068 0.99008 0.59542 0.0
C701 C 0.74515 0.023 0.57279 0.0
C702 C 0.67022 0.07547 0.63377 0.0
C703 C 0.74063 0.93693 0.59747 0.0
H704 H 0.73294 0.96287 0.69815 0.0
H705 H 0.55712 0.85536 0.66597 0.0
H706 H 0.81189 0.02769 0.64167 0.0
H707 H 0.78994 0.07728 0.65551 0.0
H708 H 0.81504 0.03688 0.67518 0.0
H709 H 0.53635 0.8639 0.62415 0.0
H710 H 0.57286 0.94237 0.61548 0.0
H711 H 0.59985 0.89553 0.60293 0.0
H712 H 0.7019 0.12469 0.58795 0.0
H713 H 0.76323 0.00979 0.55726 0.0
H714 H 0.69334 0.07833 0.65166 0.0
H715 H 0.62177 0.04161 0.63628 0.0
H716 H 0.67412 0.11989 0.62992 0.0
H717 H 0.76766 0.94121 0.61433 0.0
H718 H 0.76408 0.93248 0.5808 0.0
H719 H 0.69651 0.89489 0.59963 0.0
C720 C 0.75555 0.77977 0.90775 0.0
C721 C 0.76283 0.83523 0.89966 0.0
C722 C 0.7641 0.77 0.93294 0.0
C723 C 0.7802 0.81674 0.95058 0.0
C724 C 0.78696 0.87256 0.9426 0.0
C725 C 0.77827 0.88113 0.9173 0.0
C726 C 0.75663 0.70988 0.94062 0.0
C727 C 0.80362 0.92341 0.9608 0.0
C728 C 0.75466 0.77696 0.02 0.0
C729 C 0.81291 0.79258 0.02804 0.0
C730 C 0.74328 0.78438 0.99489 0.0
C731 C 0.79123 0.80777 0.97728 0.0
C732 C 0.85001 0.82324 0.98523 0.0
C733 C 0.86013 0.81557 1.01046 0.0
C734 C 0.68 0.76757 0.98723 0.0
C735 C 0.9023 0.84782 0.96706 0.0
H736 H 0.74421 0.7442 0.89427 0.0
H737 H 0.78298 0.92375 0.91135 0.0
H738 H 0.79976 0.71629 0.94824 0.0
H739 H 0.72231 0.68947 0.9557 0.0
H740 H 0.74271 0.67775 0.92478 0.0
H741 H 0.80602 0.96363 0.95174 0.0
H742 H 0.76998 0.90823 0.9762 0.0
H743 H 0.84805 0.93683 0.96933 0.0
H744 H 0.71798 0.75968 0.03346 0.0
H745 H 0.90506 0.82681 0.01636 0.0
H746 H 0.66408 0.73324 0.97222 0.0
H747 H 0.6797 0.80766 0.97952 0.0
H748 H 0.64758 0.74941 1.00309 0.0
H749 H 0.89236 0.81523 0.95167 0.0
H750 H 0.94512 0.85712 0.97614 0.0
H751 H 0.90888 0.89019 0.9585 0.0
C752 C 0.02766 0.76871 0.34857 0.0
C753 C 0.07566 0.75712 0.35033 0.0
C754 C -0.00245 0.76172 0.32572 0.0
C755 C 0.01621 0.74312 0.30417 0.0
C756 C 0.06745 0.73579 0.30552 0.0
C757 C 0.09634 0.74268 0.32853 0.0
C758 C 0.94327 0.77017 0.32508 0.0
C759 C 0.08938 0.71649 0.28303 0.0
C760 C 0.90292 0.63914 0.25656 0.0
C761 C 0.91517 0.67723 0.2358 0.0
C762 C 0.93335 0.66088 0.27922 0.0
C763 C 0.97764 0.7225 0.28135 0.0
C764 C 0.98825 0.76201 0.26089 0.0
C765 C 0.95665 0.73891 0.23831 0.0
C766 C 0.92003 0.61699 0.30051 0.0
C767 C 0.03505 0.82796 0.26243 0.0
H768 H 0.01144 0.77999 0.36529 0.0
H769 H 0.13401 0.73455 0.32959 0.0
H770 H 0.94438 0.79599 0.30821 0.0
H771 H 0.90162 0.72544 0.32412 0.0
H772 H 0.94049 0.7939 0.34195 0.0
H773 H 0.13374 0.71964 0.28639 0.0
H774 H 0.05609 0.66908 0.27836 0.0
H775 H 0.0935 0.7446 0.26652 0.0
H776 H 0.87025 0.59152 0.25495 0.0
H777 H 0.96635 0.76858 0.22236 0.0
H778 H 0.91007 0.63405 0.31788 0.0
H779 H 0.96023 0.61239 0.30418 0.0
H780 H 0.88123 0.57155 0.29647 0.0
H781 H 0.02996 0.84763 0.28009 0.0
H782 H 0.03214 0.85409 0.24642 0.0
H783 H 0.08075 0.83304 0.26248 0.0
C784 C 0.15257 0.00695 0.68009 0.0
C785 C 0.21161 0.04359 0.68898 0.0
C786 C 0.14155 0.98683 0.6552 0.0
C787 C 0.1906 0.00439 0.63848 0.0
C788 C 0.25029 0.04123 0.64724 0.0
C789 C 0.26004 0.05999 0.67234 0.0
C790 C 0.07722 0.94712 0.64673 0.0
C791 C 0.30394 0.06127 0.63005 0.0
C792 C 0.16408 0.91159 0.57936 0.0
C793 C 0.15363 0.94547 0.56145 0.0
C794 C 0.17665 0.9304 0.60439 0.0
C795 C 0.17921 0.98471 0.61177 0.0
C796 C 0.16936 0.01947 0.59372 0.0
C797 C 0.15638 -0.0007 0.56885 0.0
C798 C 0.18618 0.89156 0.62301 0.0
C799 C 0.17244 0.07801 0.60069 0.0
H800 H 0.11458 0.99473 0.69248 0.0
H801 H 0.30584 0.08738 0.67892 0.0
H802 H 0.06632 0.97018 0.63177 0.0
H803 H 0.07161 0.90471 0.63873 0.0
H804 H 0.04422 0.93559 0.66224 0.0
H805 H 0.34748 0.08997 0.63972 0.0
H806 H 0.30438 0.02143 0.62223 0.0
H807 H 0.30044 0.08703 0.61406 0.0
H808 H 0.16119 0.86956 0.5739 0.0
H809 H 0.14905 0.02607 0.55507 0.0
H810 H 0.15091 0.87579 0.63777 0.0
H811 H 0.23045 0.91823 0.63236 0.0
H812 H 0.18457 0.85161 0.61413 0.0
H813 H 0.13759 0.06957 0.615 0.0
H814 H 0.16543 0.10063 0.58435 0.0
H815 H 0.217 0.10915 0.60906 0.0
loop_
_geom_bond_atom_site_label_1
_geom_bond_atom_site_label_2
_geom_bond_distance
_geom_bond_site_symmetry_2
_ccdc_geom_bond_type
Pr0 C2 2.880 . S
Pr0 O20 2.562 . S
Pr0 O21 2.490 . S
Pr0 O22 2.695 . S
Pr0 O23 2.512 . S
Pr0 O25 2.437 . S
Pr0 O28 2.436 . S
Pr0 O30 2.438 . S
Pr1 C11 2.880 . S
Pr1 O22 2.436 . S
Pr1 O24 2.438 . S
Pr1 O26 2.562 . S
Pr1 O27 2.490 . S
Pr1 O28 2.695 . S
Pr1 O29 2.512 . S
Pr1 O31 2.437 . S
C2 Pr0 2.880 . S
C2 C3 1.449 1_554 S
C2 O20 1.254 . S
C2 O21 1.225 . S
C3 C2 1.449 1_556 S
C3 C4 1.418 . S
C3 C8 1.374 . S
C4 C3 1.418 . S
C4 C5 1.368 . S
C4 H32 0.929 . S
C5 C4 1.368 . S
C5 C6 1.386 . S
C5 H33 0.929 . S
C6 C5 1.386 . S
C6 C7 1.373 . S
C7 C6 1.373 . S
C7 C8 1.409 . S
C7 H34 0.931 . S
C8 C3 1.374 . S
C8 C7 1.409 . S
C8 H35 0.930 . S
C9 O22 1.270 . S
C9 O23 1.248 . S
C10 O24 1.267 . S
C10 O25 1.278 . S
C11 Pr1 2.880 . S
C11 C12 1.491 . S
C11 O26 1.254 . S
C11 O27 1.225 . S
C12 C11 1.491 . S
C12 C13 1.392 . S
C12 C17 1.356 . S
C13 C12 1.392 . S
C13 C14 1.368 . S
C13 H36 0.929 . S
C14 C13 1.368 . S
C14 C15 1.386 . S
C14 H37 0.929 . S
C15 C14 1.386 . S
C15 C16 1.373 . S
C16 C15 1.373 . S
C16 C17 1.409 . S
C16 H38 0.931 . S
C17 C12 1.356 . S
C17 C16 1.409 . S
C17 H39 0.930 . S
C18 O28 1.270 . S
C18 O29 1.248 . S
C19 O30 1.267 . S
C19 O31 1.278 . S
O20 Pr0 2.562 . S
O20 C2 1.254 . S
O21 Pr0 2.490 . S
O21 C2 1.225 . S
O22 Pr0 2.695 . S
O22 Pr1 2.436 . S
O22 C9 1.270 . S
O23 Pr0 2.512 . S
O23 C9 1.248 . S
O24 Pr1 2.438 . S
O24 C10 1.267 . S
O25 Pr0 2.437 . S
O25 C10 1.278 . S
O26 Pr1 2.562 . S
O26 C11 1.254 . S
O27 Pr1 2.490 . S
O27 C11 1.225 . S
O28 Pr0 2.436 . S
O28 Pr1 2.695 . S
O28 C18 1.270 . S
O29 Pr1 2.512 . S
O29 C18 1.248 . S
O30 Pr0 2.438 . S
O30 C19 1.267 . S
O31 Pr1 2.437 . S
O31 C19 1.278 . S
H32 C4 0.929 . S
H33 C5 0.929 . S
H34 C7 0.931 . S
H35 C8 0.930 . S
H36 C13 0.929 . S
H37 C14 0.929 . S
H38 C16 0.931 . S
H39 C17 0.930 . S
Pr40 C42 2.880 . S
Pr40 O60 2.562 . S
Pr40 O61 2.490 . S
Pr40 O62 2.695 . S
Pr40 O63 2.512 . S
Pr40 O65 2.437 . S
Pr40 O68 2.436 . S
Pr40 O70 2.438 . S
Pr41 C51 2.880 . S
Pr41 O62 2.436 . S
Pr41 O64 2.438 . S
Pr41 O66 2.562 . S
Pr41 O67 2.490 . S
Pr41 O68 2.695 . S
Pr41 O69 2.512 1_545 S
Pr41 O71 2.437 . S
C42 Pr40 2.880 . S
C42 C43 1.491 . S
C42 O60 1.254 . S
C42 O61 1.225 . S
C43 C42 1.491 . S
C43 C44 1.392 . S
C43 C48 1.356 . S
C44 C43 1.392 . S
C44 C45 1.368 . S
C44 H72 0.929 . S
C45 C44 1.368 . S
C45 C46 1.386 . S
C45 H73 0.929 . S
C46 C45 1.386 . S
C46 C47 1.373 . S
C47 C46 1.373 . S
C47 C48 1.409 . S
C47 H74 0.931 . S
C48 C43 1.356 . S
C48 C47 1.409 . S
C48 H75 0.930 . S
C49 O62 1.270 . S
C49 O63 1.248 . S
C50 O64 1.267 . S
C50 O65 1.278 . S
C51 Pr41 2.880 . S
C51 C52 1.491 . S
C51 O66 1.254 . S
C51 O67 1.225 . S
C52 C51 1.491 . S
C52 C53 1.392 . S
C52 C57 1.356 . S
C53 C52 1.392 . S
C53 C54 1.368 . S
C53 H76 0.929 1_545 S
C54 C53 1.368 . S
C54 C55 1.386 . S
C54 H77 0.929 1_545 S
C55 C54 1.386 . S
C55 C56 1.373 . S
C56 C55 1.373 . S
C56 C57 1.409 . S
C56 H78 0.931 . S
C57 C52 1.356 . S
C57 C56 1.409 . S
C57 H79 0.930 . S
C58 O68 1.270 . S
C58 O69 1.248 1_545 S
C59 O70 1.267 . S
C59 O71 1.278 . S
O60 Pr40 2.562 . S
O60 C42 1.254 . S
O61 Pr40 2.490 . S
O61 C42 1.225 . S
O62 Pr40 2.695 . S
O62 Pr41 2.436 . S
O62 C49 1.270 . S
O63 Pr40 2.512 . S
O63 C49 1.248 . S
O64 Pr41 2.438 . S
O64 C50 1.267 . S
O65 Pr40 2.437 . S
O65 C50 1.278 . S
O66 Pr41 2.562 . S
O66 C51 1.254 . S
O67 Pr41 2.490 . S
O67 C51 1.225 . S
O68 Pr40 2.436 . S
O68 Pr41 2.695 . S
O68 C58 1.270 . S
O69 Pr41 2.512 1_565 S
O69 C58 1.248 1_565 S
O70 Pr40 2.438 . S
O70 C59 1.267 . S
O71 Pr41 2.437 . S
O71 C59 1.278 . S
H72 C44 0.929 . S
H73 C45 0.929 . S
H74 C47 0.931 . S
H75 C48 0.930 . S
H76 C53 0.929 1_565 S
H77 C54 0.929 1_565 S
H78 C56 0.931 . S
H79 C57 0.930 . S
Pr80 C82 2.880 . S
Pr80 O100 2.562 . S
Pr80 O101 2.490 . S
Pr80 O102 2.695 . S
Pr80 O103 2.512 . S
Pr80 O105 2.437 . S
Pr80 O108 2.436 . S
Pr80 O110 2.438 . S
Pr81 C91 2.880 . S
Pr81 O102 2.436 . S
Pr81 O104 2.438 . S
Pr81 O106 2.562 . S
Pr81 O107 2.490 . S
Pr81 O108 2.695 . S
Pr81 O109 2.512 . S
Pr81 O111 2.437 . S
C82 Pr80 2.880 . S
C82 C83 1.491 . S
C82 O100 1.254 . S
C82 O101 1.225 . S
C83 C82 1.491 . S
C83 C84 1.392 . S
C83 C88 1.356 . S
C84 C83 1.392 . S
C84 C85 1.368 . S
C84 H112 0.929 . S
C85 C84 1.368 . S
C85 C86 1.386 . S
C85 H113 0.929 . S
C86 C85 1.386 . S
C86 C87 1.373 . S
C87 C86 1.373 . S
C87 C88 1.409 . S
C87 H114 0.931 . S
C88 C83 1.356 . S
C88 C87 1.409 . S
C88 H115 0.930 . S
C89 O102 1.270 . S
C89 O103 1.248 . S
C90 O104 1.267 . S
C90 O105 1.278 . S
C91 Pr81 2.880 . S
C91 C92 1.491 . S
C91 O106 1.254 . S
C91 O107 1.225 . S
C92 C91 1.491 . S
C92 C93 1.392 . S
C92 C97 1.356 . S
C93 C92 1.392 . S
C93 C94 1.368 . S
C93 H116 0.929 . S
C94 C93 1.368 . S
C94 C95 1.386 . S
C94 H117 0.929 . S
C95 C94 1.386 . S
C95 C96 1.373 . S
C96 C95 1.373 . S
C96 C97 1.409 . S
C96 H118 0.931 . S
C97 C92 1.356 . S
C97 C96 1.409 . S
C97 H119 0.930 . S
C98 O108 1.270 . S
C98 O109 1.248 . S
C99 O110 1.267 . S
C99 O111 1.278 . S
O100 Pr80 2.562 . S
O100 C82 1.254 . S
O101 Pr80 2.490 . S
O101 C82 1.225 . S
O102 Pr80 2.695 . S
O102 Pr81 2.436 . S
O102 C89 1.270 . S
O103 Pr80 2.512 . S
O103 C89 1.248 . S
O104 Pr81 2.438 . S
O104 C90 1.267 . S
O105 Pr80 2.437 . S
O105 C90 1.278 . S
O106 Pr81 2.562 . S
O106 C91 1.254 . S
O107 Pr81 2.490 . S
O107 C91 1.225 . S
O108 Pr80 2.436 . S
O108 Pr81 2.695 . S
O108 C98 1.270 . S
O109 Pr81 2.512 . S
O109 C98 1.248 . S
O110 Pr80 2.438 . S
O110 C99 1.267 . S
O111 Pr81 2.437 . S
O111 C99 1.278 . S
H112 C84 0.929 . S
H113 C85 0.929 . S
H114 C87 0.931 . S
H115 C88 0.930 . S
H116 C93 0.929 . S
H117 C94 0.929 . S
H118 C96 0.931 . S
H119 C97 0.930 . S
Pr120 C122 2.880 . S
Pr120 O140 2.562 . S
Pr120 O141 2.490 . S
Pr120 O142 2.695 . S
Pr120 O143 2.512 . S
Pr120 O145 2.437 . S
Pr120 O148 2.436 . S
Pr120 O150 2.438 . S
Pr121 C131 2.880 . S
Pr121 O142 2.436 . S
Pr121 O144 2.438 . S
Pr121 O146 2.562 . S
Pr121 O147 2.490 . S
Pr121 O148 2.695 . S
Pr121 O149 2.512 . S
Pr121 O151 2.437 . S
C122 Pr120 2.880 . S
C122 C123 1.491 . S
C122 O140 1.254 . S
C122 O141 1.225 . S
C123 C122 1.491 . S
C123 C124 1.392 . S
C123 C128 1.356 . S
C124 C123 1.392 . S
C124 C125 1.368 . S
C124 H152 0.929 . S
C125 C124 1.368 . S
C125 C126 1.386 . S
C125 H153 0.929 . S
C126 C125 1.386 . S
C126 C127 1.373 . S
C127 C126 1.373 . S
C127 C128 1.409 . S
C127 H154 0.931 . S
C128 C123 1.356 . S
C128 C127 1.409 . S
C128 H155 0.930 . S
C129 O142 1.270 . S
C129 O143 1.248 . S
C130 O144 1.267 . S
C130 O145 1.278 . S
C131 Pr121 2.880 . S
C131 C132 1.491 . S
C131 O146 1.254 . S
C131 O147 1.225 . S
C132 C131 1.491 . S
C132 C133 1.392 . S
C132 C137 1.356 . S
C133 C132 1.392 . S
C133 C134 1.368 . S
C133 H156 0.929 . S
C134 C133 1.368 . S
C134 C135 1.386 . S
C134 H157 0.929 . S
C135 C134 1.386 . S
C135 C136 1.373 . S
C136 C135 1.373 . S
C136 C137 1.409 . S
C136 H158 0.931 . S
C137 C132 1.356 . S
C137 C136 1.409 . S
C137 H159 0.930 . S
C138 O148 1.270 . S
C138 O149 1.248 . S
C139 O150 1.267 . S
C139 O151 1.278 . S
O140 Pr120 2.562 . S
O140 C122 1.254 . S
O141 Pr120 2.490 . S
O141 C122 1.225 . S
O142 Pr120 2.695 . S
O142 Pr121 2.436 . S
O142 C129 1.270 . S
O143 Pr120 2.512 . S
O143 C129 1.248 . S
O144 Pr121 2.438 . S
O144 C130 1.267 . S
O145 Pr120 2.437 . S
O145 C130 1.278 . S
O146 Pr121 2.562 . S
O146 C131 1.254 . S
O147 Pr121 2.490 . S
O147 C131 1.225 . S
O148 Pr120 2.436 . S
O148 Pr121 2.695 . S
O148 C138 1.270 . S
O149 Pr121 2.512 . S
O149 C138 1.248 . S
O150 Pr120 2.438 . S
O150 C139 1.267 . S
O151 Pr121 2.437 . S
O151 C139 1.278 . S
H152 C124 0.929 . S
H153 C125 0.929 . S
H154 C127 0.931 . S
H155 C128 0.930 . S
H156 C133 0.929 . S
H157 C134 0.929 . S
H158 C136 0.931 . S
H159 C137 0.930 . S
Pr160 C162 2.880 . S
Pr160 O180 2.562 . S
Pr160 O181 2.490 . S
Pr160 O182 2.695 . S
Pr160 O183 2.512 . S
Pr160 O185 2.437 . S
Pr160 O188 2.436 . S
Pr160 O190 2.438 . S
Pr161 C171 2.880 . S
Pr161 O182 2.436 . S
Pr161 O184 2.438 . S
Pr161 O186 2.562 . S
Pr161 O187 2.490 . S
Pr161 O188 2.695 . S
Pr161 O189 2.512 1_455 S
Pr161 O191 2.437 . S
C162 Pr160 2.880 . S
C162 C163 1.491 . S
C162 O180 1.254 . S
C162 O181 1.225 . S
C163 C162 1.491 . S
C163 C164 1.392 . S
C163 C168 1.356 . S
C164 C163 1.392 . S
C164 C165 1.368 . S
C164 H192 0.929 . S
C165 C164 1.368 . S
C165 C166 1.386 . S
C165 H193 0.929 . S
C166 C165 1.386 . S
C166 C167 1.373 . S
C167 C166 1.373 . S
C167 C168 1.409 . S
C167 H194 0.931 . S
C168 C163 1.356 . S
C168 C167 1.409 . S
C168 H195 0.930 . S
C169 O182 1.270 . S
C169 O183 1.248 . S
C170 O184 1.267 . S
C170 O185 1.278 . S
C171 Pr161 2.880 . S
C171 C172 1.491 . S
C171 O186 1.254 . S
C171 O187 1.225 . S
C172 C171 1.491 . S
C172 C173 1.392 . S
C172 C177 1.356 . S
C173 C172 1.392 . S
C173 C174 1.368 . S
C173 H196 0.929 1_455 S
C174 C173 1.368 . S
C174 C175 1.386 . S
C174 H197 0.929 1_455 S
C175 C174 1.386 . S
C175 C176 1.373 . S
C176 C175 1.373 . S
C176 C177 1.409 . S
C176 H198 0.931 . S
C177 C172 1.356 . S
C177 C176 1.409 . S
C177 H199 0.930 . S
C178 O188 1.270 . S
C178 O189 1.248 1_455 S
C179 O190 1.267 . S
C179 O191 1.278 . S
O180 Pr160 2.562 . S
O180 C162 1.254 . S
O181 Pr160 2.490 . S
O181 C162 1.225 . S
O182 Pr160 2.695 . S
O182 Pr161 2.436 . S
O182 C169 1.270 . S
O183 Pr160 2.512 . S
O183 C169 1.248 . S
O184 Pr161 2.438 . S
O184 C170 1.267 . S
O185 Pr160 2.437 . S
O185 C170 1.278 . S
O186 Pr161 2.562 . S
O186 C171 1.254 . S
O187 Pr161 2.490 . S
O187 C171 1.225 . S
O188 Pr160 2.436 . S
O188 Pr161 2.695 . S
O188 C178 1.270 . S
O189 Pr161 2.512 1_655 S
O189 C178 1.248 1_655 S
O190 Pr160 2.438 . S
O190 C179 1.267 . S
O191 Pr161 2.437 . S
O191 C179 1.278 . S
H192 C164 0.929 . S
H193 C165 0.929 . S
H194 C167 0.931 . S
H195 C168 0.930 . S
H196 C173 0.929 1_655 S
H197 C174 0.929 1_655 S
H198 C176 0.931 . S
H199 C177 0.930 . S
Pr200 C202 2.880 . S
Pr200 O220 2.562 . S
Pr200 O221 2.490 . S
Pr200 O222 2.695 . S
Pr200 O223 2.512 . S
Pr200 O225 2.437 . S
Pr200 O228 2.436 . S
Pr200 O230 2.438 . S
Pr201 C211 2.880 . S
Pr201 O222 2.436 . S
Pr201 O224 2.438 . S
Pr201 O226 2.562 . S
Pr201 O227 2.490 . S
Pr201 O228 2.695 . S
Pr201 O229 2.512 . S
Pr201 O231 2.437 . S
C202 Pr200 2.880 . S
C202 C203 1.491 . S
C202 O220 1.254 . S
C202 O221 1.225 . S
C203 C202 1.491 . S
C203 C204 1.392 . S
C203 C208 1.356 . S
C204 C203 1.392 . S
C204 C205 1.368 . S
C204 H232 0.929 . S
C205 C204 1.368 . S
C205 C206 1.386 . S
C205 H233 0.929 . S
C206 C205 1.386 . S
C206 C207 1.373 . S
C207 C206 1.373 . S
C207 C208 1.409 . S
C207 H234 0.931 . S
C208 C203 1.356 . S
C208 C207 1.409 . S
C208 H235 0.930 . S
C209 O222 1.270 . S
C209 O223 1.248 . S
C210 O224 1.267 . S
C210 O225 1.278 . S
C211 Pr201 2.880 . S
C211 C212 1.491 . S
C211 O226 1.254 . S
C211 O227 1.225 . S
C212 C211 1.491 . S
C212 C213 1.392 . S
C212 C217 1.356 . S
C213 C212 1.392 . S
C213 C214 1.368 . S
C213 H236 0.929 . S
C214 C213 1.368 . S
C214 C215 1.386 . S
C214 H237 0.929 . S
C215 C214 1.386 . S
C215 C216 1.373 . S
C216 C215 1.373 . S
C216 C217 1.409 . S
C216 H238 0.931 . S
C217 C212 1.356 . S
C217 C216 1.409 . S
C217 H239 0.930 . S
C218 O228 1.270 . S
C218 O229 1.248 . S
C219 O230 1.267 . S
C219 O231 1.278 . S
O220 Pr200 2.562 . S
O220 C202 1.254 . S
O221 Pr200 2.490 . S
O221 C202 1.225 . S
O222 Pr200 2.695 . S
O222 Pr201 2.436 . S
O222 C209 1.270 . S
O223 Pr200 2.512 . S
O223 C209 1.248 . S
O224 Pr201 2.438 . S
O224 C210 1.267 . S
O225 Pr200 2.437 . S
O225 C210 1.278 . S
O226 Pr201 2.562 . S
O226 C211 1.254 . S
O227 Pr201 2.490 . S
O227 C211 1.225 . S
O228 Pr200 2.436 . S
O228 Pr201 2.695 . S
O228 C218 1.270 . S
O229 Pr201 2.512 . S
O229 C218 1.248 . S
O230 Pr200 2.438 . S
O230 C219 1.267 . S
O231 Pr201 2.437 . S
O231 C219 1.278 . S
H232 C204 0.929 . S
H233 C205 0.929 . S
H234 C207 0.931 . S
H235 C208 0.930 . S
H236 C213 0.929 . S
H237 C214 0.929 . S
H238 C216 0.931 . S
H239 C217 0.930 . S
C240 C241 1.391 . S
C240 C242 1.394 . S
C240 H256 0.931 . S
C241 C240 1.391 . S
C241 C245 1.376 . S
C242 C240 1.394 . S
C242 C243 1.369 . S
C242 C246 1.531 . S
C243 C242 1.369 . S
C243 C244 1.410 . S
C243 C251 1.503 . S
C244 C243 1.410 . S
C244 C245 1.392 . S
C244 C247 1.511 . S
C245 C241 1.376 . S
C245 C244 1.392 . S
C245 H257 0.929 . S
C246 C242 1.531 . S
C246 H258 0.960 . S
C246 H259 0.962 . S
C246 H260 0.960 . S
C247 C244 1.511 . S
C247 H261 0.961 . S
C247 H262 0.961 . S
C247 H263 0.961 . S
C248 C249 1.370 . S
C248 C250 1.363 . S
C248 H264 0.931 . S
C249 C248 1.370 . S
C249 C253 1.408 . S
C250 C248 1.363 . S
C250 C251 1.370 . S
C250 C254 1.524 . S
C251 C243 1.503 . S
C251 C250 1.370 . S
C251 C252 1.403 . S
C252 C251 1.403 . S
C252 C253 1.404 . S
C252 C255 1.539 . S
C253 C249 1.408 . S
C253 C252 1.404 . S
C253 H265 0.930 . S
C254 C250 1.524 . S
C254 H266 0.956 . S
C254 H267 0.961 . S
C254 H268 0.961 . S
C255 C252 1.539 . S
C255 H269 0.958 . S
C255 H270 0.961 . S
C255 H271 0.960 . S
H256 C240 0.931 . S
H257 C245 0.929 . S
H258 C246 0.960 . S
H259 C246 0.962 . S
H260 C246 0.960 . S
H261 C247 0.961 . S
H262 C247 0.961 . S
H263 C247 0.961 . S
H264 C248 0.931 . S
H265 C253 0.930 . S
H266 C254 0.956 . S
H267 C254 0.961 . S
H268 C254 0.961 . S
H269 C255 0.958 . S
H270 C255 0.961 . S
H271 C255 0.960 . S
C272 C273 1.391 . S
C272 C274 1.394 . S
C272 H288 0.931 . S
C273 C272 1.391 . S
C273 C277 1.376 . S
C274 C272 1.394 . S
C274 C275 1.369 . S
C274 C278 1.531 . S
C275 C274 1.369 . S
C275 C276 1.410 . S
C275 C283 1.503 . S
C276 C275 1.410 . S
C276 C277 1.392 . S
C276 C279 1.511 . S
C277 C273 1.376 . S
C277 C276 1.392 . S
C277 H289 0.929 . S
C278 C274 1.531 . S
C278 H290 0.960 . S
C278 H291 0.962 . S
C278 H292 0.960 . S
C279 C276 1.511 . S
C279 H293 0.961 . S
C279 H294 0.961 . S
C279 H295 0.961 . S
C280 C281 1.370 . S
C280 C282 1.363 . S
C280 H296 0.931 . S
C281 C280 1.370 . S
C281 C285 1.408 . S
C282 C280 1.363 . S
C282 C283 1.370 . S
C282 C286 1.524 . S
C283 C275 1.503 . S
C283 C282 1.370 . S
C283 C284 1.403 . S
C284 C283 1.403 . S
C284 C285 1.404 . S
C284 C287 1.539 . S
C285 C281 1.408 . S
C285 C284 1.404 . S
C285 H297 0.930 . S
C286 C282 1.524 . S
C286 H298 0.956 . S
C286 H299 0.961 . S
C286 H300 0.961 . S
C287 C284 1.539 . S
C287 H301 0.958 . S
C287 H302 0.961 . S
C287 H303 0.960 . S
H288 C272 0.931 . S
H289 C277 0.929 . S
H290 C278 0.960 . S
H291 C278 0.962 . S
H292 C278 0.960 . S
H293 C279 0.961 . S
H294 C279 0.961 . S
H295 C279 0.961 . S
H296 C280 0.931 . S
H297 C285 0.930 . S
H298 C286 0.956 . S
H299 C286 0.961 . S
H300 C286 0.961 . S
H301 C287 0.958 . S
H302 C287 0.961 . S
H303 C287 0.960 . S
C304 C305 1.391 . S
C304 C306 1.394 . S
C304 H320 0.931 . S
C305 C304 1.391 . S
C305 C309 1.376 . S
C306 C304 1.394 . S
C306 C307 1.369 . S
C306 C310 1.531 . S
C307 C306 1.369 . S
C307 C308 1.410 . S
C307 C315 1.503 . S
C308 C307 1.410 . S
C308 C309 1.392 . S
C308 C311 1.511 . S
C309 C305 1.376 . S
C309 C308 1.392 . S
C309 H321 0.929 . S
C310 C306 1.531 . S
C310 H322 0.960 . S
C310 H323 0.962 . S
C310 H324 0.960 . S
C311 C308 1.511 . S
C311 H325 0.961 . S
C311 H326 0.961 . S
C311 H327 0.961 . S
C312 C313 1.370 . S
C312 C314 1.363 . S
C312 H328 0.931 . S
C313 C312 1.370 . S
C313 C317 1.408 . S
C314 C312 1.363 . S
C314 C315 1.370 . S
C314 C318 1.524 . S
C315 C307 1.503 . S
C315 C314 1.370 . S
C315 C316 1.403 . S
C316 C315 1.403 . S
C316 C317 1.404 . S
C316 C319 1.539 . S
C317 C313 1.408 . S
C317 C316 1.404 . S
C317 H329 0.930 . S
C318 C314 1.524 . S
C318 H330 0.956 . S
C318 H331 0.961 . S
C318 H332 0.961 . S
C319 C316 1.539 . S
C319 H333 0.958 . S
C319 H334 0.961 . S
C319 H335 0.960 . S
H320 C304 0.931 . S
H321 C309 0.929 . S
H322 C310 0.960 . S
H323 C310 0.962 . S
H324 C310 0.960 . S
H325 C311 0.961 . S
H326 C311 0.961 . S
H327 C311 0.961 . S
H328 C312 0.931 . S
H329 C317 0.930 . S
H330 C318 0.956 . S
H331 C318 0.961 . S
H332 C318 0.961 . S
H333 C319 0.958 . S
H334 C319 0.961 . S
H335 C319 0.960 . S
C336 C337 1.391 . S
C336 C338 1.394 . S
C336 H352 0.931 . S
C337 C336 1.391 . S
C337 C341 1.376 . S
C338 C336 1.394 . S
C338 C339 1.369 . S
C338 C342 1.531 . S
C339 C338 1.369 . S
C339 C340 1.410 . S
C339 C347 1.503 . S
C340 C339 1.410 . S
C340 C341 1.392 . S
C340 C343 1.511 . S
C341 C337 1.376 . S
C341 C340 1.392 . S
C341 H353 0.929 . S
C342 C338 1.531 . S
C342 H354 0.960 . S
C342 H355 0.962 . S
C342 H356 0.960 . S
C343 C340 1.511 . S
C343 H357 0.961 . S
C343 H358 0.961 . S
C343 H359 0.961 . S
C344 C345 1.370 . S
C344 C346 1.363 . S
C344 H360 0.931 . S
C345 C344 1.370 . S
C345 C349 1.408 . S
C346 C344 1.363 . S
C346 C347 1.370 . S
C346 C350 1.524 . S
C347 C339 1.503 . S
C347 C346 1.370 . S
C347 C348 1.403 . S
C348 C347 1.403 . S
C348 C349 1.404 . S
C348 C351 1.539 . S
C349 C345 1.408 . S
C349 C348 1.404 . S
C349 H361 0.930 . S
C350 C346 1.524 . S
C350 H362 0.956 . S
C350 H363 0.961 . S
C350 H364 0.961 . S
C351 C348 1.539 . S
C351 H365 0.958 . S
C351 H366 0.961 . S
C351 H367 0.960 . S
H352 C336 0.931 . S
H353 C341 0.929 . S
H354 C342 0.960 . S
H355 C342 0.962 . S
H356 C342 0.960 . S
H357 C343 0.961 . S
H358 C343 0.961 . S
H359 C343 0.961 . S
H360 C344 0.931 . S
H361 C349 0.930 . S
H362 C350 0.956 . S
H363 C350 0.961 . S
H364 C350 0.961 . S
H365 C351 0.958 . S
H366 C351 0.961 . S
H367 C351 0.960 . S
C368 C369 1.391 . S
C368 C370 1.394 . S
C368 H384 0.931 . S
C369 C368 1.391 . S
C369 C373 1.376 . S
C370 C368 1.394 . S
C370 C371 1.369 . S
C370 C374 1.531 . S
C371 C370 1.369 . S
C371 C372 1.410 . S
C371 C379 1.503 . S
C372 C371 1.410 . S
C372 C373 1.392 . S
C372 C375 1.511 . S
C373 C369 1.376 . S
C373 C372 1.392 . S
C373 H385 0.929 . S
C374 C370 1.531 . S
C374 H386 0.960 . S
C374 H387 0.962 . S
C374 H388 0.960 . S
C375 C372 1.511 . S
C375 H389 0.961 . S
C375 H390 0.961 . S
C375 H391 0.961 . S
C376 C377 1.370 . S
C376 C378 1.363 . S
C376 H392 0.931 . S
C377 C376 1.370 . S
C377 C381 1.408 . S
C378 C376 1.363 . S
C378 C379 1.370 . S
C378 C382 1.524 . S
C379 C371 1.503 . S
C379 C378 1.370 . S
C379 C380 1.403 . S
C380 C379 1.403 . S
C380 C381 1.404 . S
C380 C383 1.539 . S
C381 C377 1.408 . S
C381 C380 1.404 . S
C381 H393 0.930 . S
C382 C378 1.524 . S
C382 H394 0.956 . S
C382 H395 0.961 . S
C382 H396 0.961 . S
C383 C380 1.539 . S
C383 H397 0.958 . S
C383 H398 0.961 . S
C383 H399 0.960 . S
H384 C368 0.931 . S
H385 C373 0.929 . S
H386 C374 0.960 . S
H387 C374 0.962 . S
H388 C374 0.960 . S
H389 C375 0.961 . S
H390 C375 0.961 . S
H391 C375 0.961 . S
H392 C376 0.931 . S
H393 C381 0.930 . S
H394 C382 0.956 . S
H395 C382 0.961 . S
H396 C382 0.961 . S
H397 C383 0.958 . S
H398 C383 0.961 . S
H399 C383 0.960 . S
C400 C401 1.391 . S
C400 C402 1.394 . S
C400 H416 0.931 . S
C401 C400 1.391 . S
C401 C405 1.376 . S
C402 C400 1.394 . S
C402 C403 1.369 . S
C402 C406 1.531 . S
C403 C402 1.369 . S
C403 C404 1.410 . S
C403 C411 1.503 . S
C404 C403 1.410 . S
C404 C405 1.392 . S
C404 C407 1.511 . S
C405 C401 1.376 . S
C405 C404 1.392 . S
C405 H417 0.929 . S
C406 C402 1.531 . S
C406 H418 0.960 . S
C406 H419 0.962 . S
C406 H420 0.960 . S
C407 C404 1.511 . S
C407 H421 0.961 . S
C407 H422 0.961 . S
C407 H423 0.961 . S
C408 C409 1.370 . S
C408 C410 1.363 1_556 S
C408 H424 0.931 . S
C409 C408 1.370 . S
C409 C413 1.408 . S
C410 C408 1.363 1_554 S
C410 C411 1.370 . S
C410 C414 1.524 . S
C411 C403 1.503 . S
C411 C410 1.370 . S
C411 C412 1.403 1_554 S
C412 C411 1.403 1_556 S
C412 C413 1.404 . S
C412 C415 1.539 . S
C413 C409 1.408 . S
C413 C412 1.404 . S
C413 H425 0.930 . S
C414 C410 1.524 . S
C414 H426 0.956 . S
C414 H427 0.961 . S
C414 H428 0.961 . S
C415 C412 1.539 . S
C415 H429 0.969 . S
C415 H430 0.961 . S
C415 H431 0.960 1_556 S
H416 C400 0.931 . S
H417 C405 0.929 . S
H418 C406 0.960 . S
H419 C406 0.962 . S
H420 C406 0.960 . S
H421 C407 0.961 . S
H422 C407 0.961 . S
H423 C407 0.961 . S
H424 C408 0.931 . S
H425 C413 0.930 . S
H426 C414 0.956 . S
H427 C414 0.961 . S
H428 C414 0.961 . S
H429 C415 0.969 . S
H430 C415 0.961 . S
H431 C415 0.960 1_554 S
C432 C433 1.391 . S
C432 C434 1.394 . S
C432 H448 0.931 . S
C433 C432 1.391 . S
C433 C437 1.376 . S
C434 C432 1.394 . S
C434 C435 1.369 . S
C434 C438 1.531 . S
C435 C434 1.369 . S
C435 C436 1.410 . S
C435 C443 1.503 . S
C436 C435 1.410 . S
C436 C437 1.392 . S
C436 C439 1.511 . S
C437 C433 1.376 . S
C437 C436 1.392 . S
C437 H449 0.929 . S
C438 C434 1.531 . S
C438 H450 0.960 . S
C438 H451 0.962 . S
C438 H452 0.960 . S
C439 C436 1.511 . S
C439 H453 0.961 . S
C439 H454 0.961 . S
C439 H455 0.961 . S
C440 C441 1.370 . S
C440 C442 1.363 . S
C440 H456 0.931 . S
C441 C440 1.370 . S
C441 C445 1.408 . S
C442 C440 1.363 . S
C442 C443 1.370 . S
C442 C446 1.524 . S
C443 C435 1.503 . S
C443 C442 1.370 . S
C443 C444 1.403 . S
C444 C443 1.403 . S
C444 C445 1.404 . S
C444 C447 1.539 . S
C445 C441 1.408 . S
C445 C444 1.404 . S
C445 H457 0.930 . S
C446 C442 1.524 . S
C446 H458 0.956 . S
C446 H459 0.961 . S
C446 H460 0.961 . S
C447 C444 1.539 . S
C447 H461 0.958 . S
C447 H462 0.961 . S
C447 H463 0.960 . S
H448 C432 0.931 . S
H449 C437 0.929 . S
H450 C438 0.960 . S
H451 C438 0.962 . S
H452 C438 0.960 . S
H453 C439 0.961 . S
H454 C439 0.961 . S
H455 C439 0.961 . S
H456 C440 0.931 . S
H457 C445 0.930 . S
H458 C446 0.956 . S
H459 C446 0.961 . S
H460 C446 0.961 . S
H461 C447 0.958 . S
H462 C447 0.961 . S
H463 C447 0.960 . S
C464 C465 1.391 1_455 S
C464 C466 1.394 1_455 S
C464 H480 0.931 . S
C465 C464 1.391 1_655 S
C465 C469 1.376 . S
C466 C464 1.394 1_655 S
C466 C467 1.369 . S
C466 C470 1.531 1_655 S
C467 C466 1.369 . S
C467 C468 1.410 . S
C467 C475 1.503 . S
C468 C467 1.410 . S
C468 C469 1.392 . S
C468 C471 1.511 . S
C469 C465 1.376 . S
C469 C468 1.392 . S
C469 H481 0.929 . S
C470 C466 1.531 1_455 S
C470 H482 0.960 . S
C470 H483 0.962 . S
C470 H484 0.960 . S
C471 C468 1.511 . S
C471 H485 0.961 . S
C471 H486 0.961 . S
C471 H487 0.961 . S
C472 C473 1.370 . S
C472 C474 1.363 . S
C472 H488 0.931 . S
C473 C472 1.370 . S
C473 C477 1.408 . S
C474 C472 1.363 . S
C474 C475 1.370 . S
C474 C478 1.524 . S
C475 C467 1.503 . S
C475 C474 1.370 . S
C475 C476 1.403 . S
C476 C475 1.403 . S
C476 C477 1.404 . S
C476 C479 1.539 . S
C477 C473 1.408 . S
C477 C476 1.404 . S
C477 H489 0.930 . S
C478 C474 1.524 . S
C478 H490 0.956 . S
C478 H491 0.961 . S
C478 H492 0.961 . S
C479 C476 1.539 . S
C479 H493 0.958 . S
C479 H494 0.961 . S
C479 H495 0.960 . S
H480 C464 0.931 . S
H481 C469 0.929 . S
H482 C470 0.960 . S
H483 C470 0.962 . S
H484 C470 0.960 . S
H485 C471 0.961 . S
H486 C471 0.961 . S
H487 C471 0.961 . S
H488 C472 0.931 . S
H489 C477 0.930 . S
H490 C478 0.956 . S
H491 C478 0.961 . S
H492 C478 0.961 . S
H493 C479 0.958 . S
H494 C479 0.961 . S
H495 C479 0.960 . S
C496 C497 1.391 . S
C496 C498 1.394 . S
C496 H512 0.931 . S
C497 C496 1.391 . S
C497 C501 1.376 . S
C498 C496 1.394 . S
C498 C499 1.369 . S
C498 C502 1.531 . S
C499 C498 1.369 . S
C499 C500 1.410 . S
C499 C507 1.503 . S
C500 C499 1.410 . S
C500 C501 1.392 . S
C500 C503 1.511 . S
C501 C497 1.376 . S
C501 C500 1.392 . S
C501 H513 0.929 . S
C502 C498 1.531 . S
C502 H514 0.960 . S
C502 H515 0.962 . S
C502 H516 0.960 . S
C503 C500 1.511 . S
C503 H517 0.961 . S
C503 H518 0.961 . S
C503 H519 0.961 . S
C504 C505 1.370 . S
C504 C506 1.363 . S
C504 H520 0.931 . S
C505 C504 1.370 . S
C505 C509 1.408 1_545 S
C506 C504 1.363 . S
C506 C507 1.370 . S
C506 C510 1.524 . S
C507 C499 1.503 . S
C507 C506 1.370 . S
C507 C508 1.403 1_545 S
C508 C507 1.403 1_565 S
C508 C509 1.404 . S
C508 C511 1.539 . S
C509 C505 1.408 1_565 S
C509 C508 1.404 . S
C509 H521 0.930 . S
C510 C506 1.524 . S
C510 H522 0.956 . S
C510 H523 0.961 . S
C510 H524 0.961 . S
C511 C508 1.539 . S
C511 H525 0.958 . S
C511 H526 0.961 . S
C511 H527 0.960 . S
H512 C496 0.931 . S
H513 C501 0.929 . S
H514 C502 0.960 . S
H515 C502 0.962 . S
H516 C502 0.960 . S
H517 C503 0.961 . S
H518 C503 0.961 . S
H519 C503 0.961 . S
H520 C504 0.931 . S
H521 C509 0.930 . S
H522 C510 0.956 . S
H523 C510 0.961 . S
H524 C510 0.961 . S
H525 C511 0.958 . S
H526 C511 0.961 . S
H527 C511 0.960 . S
C528 C529 1.391 . S
C528 C530 1.394 . S
C528 H544 0.931 . S
C529 C528 1.391 . S
C529 C533 1.376 . S
C530 C528 1.394 . S
C530 C531 1.369 . S
C530 C534 1.531 . S
C531 C530 1.369 . S
C531 C532 1.410 . S
C531 C539 1.503 . S
C532 C531 1.410 . S
C532 C533 1.392 . S
C532 C535 1.511 . S
C533 C529 1.376 . S
C533 C532 1.392 . S
C533 H545 0.929 . S
C534 C530 1.531 . S
C534 H546 0.960 . S
C534 H547 0.962 . S
C534 H548 0.960 . S
C535 C532 1.511 . S
C535 H549 0.961 . S
C535 H550 0.961 . S
C535 H551 0.961 . S
C536 C537 1.370 . S
C536 C538 1.363 . S
C536 H552 0.931 . S
C537 C536 1.370 . S
C537 C541 1.408 . S
C538 C536 1.363 . S
C538 C539 1.370 . S
C538 C542 1.524 . S
C539 C531 1.503 . S
C539 C538 1.370 . S
C539 C540 1.403 . S
C540 C539 1.403 . S
C540 C541 1.404 . S
C540 C543 1.539 . S
C541 C537 1.408 . S
C541 C540 1.404 . S
C541 H553 0.930 . S
C542 C538 1.524 . S
C542 H554 0.956 . S
C542 H555 0.961 . S
C542 H556 0.961 . S
C543 C540 1.539 . S
C543 H557 0.958 . S
C543 H558 0.961 . S
C543 H559 0.960 . S
H544 C528 0.931 . S
H545 C533 0.929 . S
H546 C534 0.960 . S
H547 C534 0.962 . S
H548 C534 0.960 . S
H549 C535 0.961 . S
H550 C535 0.961 . S
H551 C535 0.961 . S
H552 C536 0.931 . S
H553 C541 0.930 . S
H554 C542 0.956 . S
H555 C542 0.961 . S
H556 C542 0.961 . S
H557 C543 0.958 . S
H558 C543 0.961 . S
H559 C543 0.960 . S
C560 C561 1.391 . S
C560 C562 1.394 . S
C560 H576 0.931 . S
C561 C560 1.391 . S
C561 C565 1.376 . S
C562 C560 1.394 . S
C562 C563 1.369 . S
C562 C566 1.531 . S
C563 C562 1.369 . S
C563 C564 1.410 . S
C563 C571 1.503 . S
C564 C563 1.410 . S
C564 C565 1.392 . S
C564 C567 1.511 . S
C565 C561 1.376 . S
C565 C564 1.392 . S
C565 H577 0.929 . S
C566 C562 1.531 . S
C566 H578 0.960 . S
C566 H579 0.962 . S
C566 H580 0.960 . S
C567 C564 1.511 . S
C567 H581 0.961 . S
C567 H582 0.961 . S
C567 H583 0.961 . S
C568 C569 1.370 1_655 S
C568 C570 1.363 1_655 S
C568 H584 0.931 . S
C569 C568 1.370 1_455 S
C569 C573 1.408 . S
C570 C568 1.363 1_455 S
C570 C571 1.370 . S
C570 C574 1.524 1_455 S
C571 C563 1.503 . S
C571 C570 1.370 . S
C571 C572 1.403 . S
C572 C571 1.403 . S
C572 C573 1.404 . S
C572 C575 1.539 . S
C573 C569 1.408 . S
C573 C572 1.404 . S
C573 H585 0.930 . S
C574 C570 1.524 1_655 S
C574 H586 0.956 . S
C574 H587 0.961 . S
C574 H588 0.961 . S
C575 C572 1.539 . S
C575 H589 0.958 . S
C575 H590 0.961 . S
C575 H591 0.960 . S
H576 C560 0.931 . S
H577 C565 0.929 . S
H578 C566 0.960 . S
H579 C566 0.962 . S
H580 C566 0.960 . S
H581 C567 0.961 . S
H582 C567 0.961 . S
H583 C567 0.961 . S
H584 C568 0.931 . S
H585 C573 0.930 . S
H586 C574 0.956 . S
H587 C574 0.961 . S
H588 C574 0.961 . S
H589 C575 0.958 . S
H590 C575 0.961 . S
H591 C575 0.960 . S
C592 C593 1.391 . S
C592 C594 1.394 . S
C592 H608 0.931 . S
C593 C592 1.391 . S
C593 C597 1.376 . S
C594 C592 1.394 . S
C594 C595 1.369 . S
C594 C598 1.531 . S
C595 C594 1.369 . S
C595 C596 1.410 . S
C595 C603 1.503 . S
C596 C595 1.410 . S
C596 C597 1.392 . S
C596 C599 1.511 . S
C597 C593 1.376 . S
C597 C596 1.392 . S
C597 H609 0.929 . S
C598 C594 1.531 . S
C598 H610 0.960 . S
C598 H611 0.962 . S
C598 H612 0.960 . S
C599 C596 1.511 . S
C599 H613 0.961 1_565 S
C599 H614 0.961 1_565 S
C599 H615 0.961 1_565 S
C600 C601 1.370 . S
C600 C602 1.363 . S
C600 H616 0.931 . S
C601 C600 1.370 . S
C601 C605 1.408 . S
C602 C600 1.363 . S
C602 C603 1.370 . S
C602 C606 1.524 . S
C603 C595 1.503 . S
C603 C602 1.370 . S
C603 C604 1.403 . S
C604 C603 1.403 . S
C604 C605 1.404 . S
C604 C607 1.539 . S
C605 C601 1.408 . S
C605 C604 1.404 . S
C605 H617 0.930 . S
C606 C602 1.524 . S
C606 H618 0.956 . S
C606 H619 0.961 . S
C606 H620 0.961 . S
C607 C604 1.539 . S
C607 H621 0.958 . S
C607 H622 0.961 . S
C607 H623 0.960 . S
H608 C592 0.931 . S
H609 C597 0.929 . S
H610 C598 0.960 . S
H611 C598 0.962 . S
H612 C598 0.960 . S
H613 C599 0.961 1_545 S
H614 C599 0.961 1_545 S
H615 C599 0.961 1_545 S
H616 C600 0.931 . S
H617 C605 0.930 . S
H618 C606 0.956 . S
H619 C606 0.961 . S
H620 C606 0.961 . S
H621 C607 0.958 . S
H622 C607 0.961 . S
H623 C607 0.960 . S
C624 C625 1.391 . S
C624 C626 1.394 . S
C624 H640 0.931 . S
C625 C624 1.391 . S
C625 C629 1.376 . S
C626 C624 1.394 . S
C626 C627 1.369 . S
C626 C630 1.531 . S
C627 C626 1.369 . S
C627 C628 1.410 . S
C627 C635 1.503 . S
C628 C627 1.410 . S
C628 C629 1.392 . S
C628 C631 1.511 . S
C629 C625 1.376 . S
C629 C628 1.392 . S
C629 H641 0.929 . S
C630 C626 1.531 . S
C630 H642 0.960 . S
C630 H643 0.962 . S
C630 H644 0.960 . S
C631 C628 1.511 . S
C631 H645 0.961 . S
C631 H646 0.961 . S
C631 H647 0.961 . S
C632 C633 1.370 . S
C632 C634 1.363 1_554 S
C632 H648 0.931 . S
C633 C632 1.370 . S
C633 C637 1.408 1_554 S
C634 C632 1.363 1_556 S
C634 C635 1.370 . S
C634 C638 1.524 . S
C635 C627 1.503 . S
C635 C634 1.370 . S
C635 C636 1.403 . S
C636 C635 1.403 . S
C636 C637 1.404 . S
C636 C639 1.539 . S
C637 C633 1.408 1_556 S
C637 C636 1.404 . S
C637 H649 0.930 1_556 S
C638 C634 1.524 . S
C638 H650 0.956 . S
C638 H651 0.961 . S
C638 H652 0.961 . S
C639 C636 1.539 . S
C639 H653 0.958 . S
C639 H654 0.961 . S
C639 H655 0.960 . S
H640 C624 0.931 . S
H641 C629 0.929 . S
H642 C630 0.960 . S
H643 C630 0.962 . S
H644 C630 0.960 . S
H645 C631 0.961 . S
H646 C631 0.961 . S
H647 C631 0.961 . S
H648 C632 0.931 . S
H649 C637 0.930 1_554 S
H650 C638 0.956 . S
H651 C638 0.961 . S
H652 C638 0.961 . S
H653 C639 0.958 . S
H654 C639 0.961 . S
H655 C639 0.960 . S
C656 C657 1.391 . S
C656 C658 1.394 . S
C656 H672 0.931 . S
C657 C656 1.391 . S
C657 C661 1.376 . S
C658 C656 1.394 . S
C658 C659 1.369 . S
C658 C662 1.531 1_655 S
C659 C658 1.369 . S
C659 C660 1.410 . S
C659 C667 1.503 1_655 S
C660 C659 1.410 . S
C660 C661 1.392 . S
C660 C663 1.511 . S
C661 C657 1.376 . S
C661 C660 1.392 . S
C661 H673 0.929 . S
C662 C658 1.531 1_455 S
C662 H674 0.960 . S
C662 H675 0.962 . S
C662 H676 0.960 . S
C663 C660 1.511 . S
C663 H677 0.961 . S
C663 H678 0.961 . S
C663 H679 0.961 . S
C664 C665 1.370 . S
C664 C666 1.363 . S
C664 H680 0.931 . S
C665 C664 1.370 . S
C665 C669 1.408 . S
C666 C664 1.363 . S
C666 C667 1.370 . S
C666 C670 1.524 . S
C667 C659 1.503 1_455 S
C667 C666 1.370 . S
C667 C668 1.403 . S
C668 C667 1.403 . S
C668 C669 1.404 . S
C668 C671 1.539 1_455 S
C669 C665 1.408 . S
C669 C668 1.404 . S
C669 H681 0.930 . S
C670 C666 1.524 . S
C670 H682 0.956 . S
C670 H683 0.961 1_455 S
C670 H684 0.961 . S
C671 C668 1.539 1_655 S
C671 H685 0.958 1_655 S
C671 H686 0.961 . S
C671 H687 0.960 . S
H672 C656 0.931 . S
H673 C661 0.929 . S
H674 C662 0.960 . S
H675 C662 0.962 . S
H676 C662 0.960 . S
H677 C663 0.961 . S
H678 C663 0.961 . S
H679 C663 0.961 . S
H680 C664 0.931 . S
H681 C669 0.930 . S
H682 C670 0.956 . S
H683 C670 0.961 1_655 S
H684 C670 0.961 . S
H685 C671 0.958 1_455 S
H686 C671 0.961 . S
H687 C671 0.960 . S
C688 C689 1.391 . S
C688 C690 1.394 . S
C688 H704 0.931 . S
C689 C688 1.391 . S
C689 C693 1.376 . S
C690 C688 1.394 . S
C690 C691 1.369 . S
C690 C694 1.531 . S
C691 C690 1.369 . S
C691 C692 1.410 . S
C691 C699 1.503 . S
C692 C691 1.410 . S
C692 C693 1.392 . S
C692 C695 1.511 1_565 S
C693 C689 1.376 . S
C693 C692 1.392 . S
C693 H705 0.929 . S
C694 C690 1.531 . S
C694 H706 0.960 . S
C694 H707 0.962 . S
C694 H708 0.960 . S
C695 C692 1.511 1_545 S
C695 H709 0.961 . S
C695 H710 0.961 . S
C695 H711 0.961 1_545 S
C696 C697 1.370 . S
C696 C698 1.363 . S
C696 H712 0.931 . S
C697 C696 1.370 . S
C697 C701 1.408 1_545 S
C698 C696 1.363 . S
C698 C699 1.370 1_545 S
C698 C702 1.524 . S
C699 C691 1.503 . S
C699 C698 1.370 1_565 S
C699 C700 1.403 . S
C700 C699 1.403 . S
C700 C701 1.404 . S
C700 C703 1.539 . S
C701 C697 1.408 1_565 S
C701 C700 1.404 . S
C701 H713 0.930 . S
C702 C698 1.524 . S
C702 H714 0.956 . S
C702 H715 0.961 . S
C702 H716 0.961 . S
C703 C700 1.539 . S
C703 H717 0.958 . S
C703 H718 0.961 . S
C703 H719 0.960 . S
H704 C688 0.931 . S
H705 C693 0.929 . S
H706 C694 0.960 . S
H707 C694 0.962 . S
H708 C694 0.960 . S
H709 C695 0.961 . S
H710 C695 0.961 . S
H711 C695 0.961 1_565 S
H712 C696 0.931 . S
H713 C701 0.930 . S
H714 C702 0.956 . S
H715 C702 0.961 . S
H716 C702 0.961 . S
H717 C703 0.958 . S
H718 C703 0.961 . S
H719 C703 0.960 . S
C720 C721 1.391 . S
C720 C722 1.394 . S
C720 H736 0.931 . S
C721 C720 1.391 . S
C721 C725 1.376 . S
C722 C720 1.394 . S
C722 C723 1.369 . S
C722 C726 1.531 . S
C723 C722 1.369 . S
C723 C724 1.410 . S
C723 C731 1.503 . S
C724 C723 1.410 . S
C724 C725 1.392 . S
C724 C727 1.511 . S
C725 C721 1.376 . S
C725 C724 1.392 . S
C725 H737 0.929 . S
C726 C722 1.531 . S
C726 H738 0.960 . S
C726 H739 0.962 . S
C726 H740 0.960 . S
C727 C724 1.511 . S
C727 H741 0.961 . S
C727 H742 0.961 . S
C727 H743 0.961 . S
C728 C729 1.367 1_556 S
C728 C730 1.363 . S
C728 H744 0.931 1_556 S
C729 C728 1.367 1_554 S
C729 C733 1.395 1_554 S
C730 C728 1.363 . S
C730 C731 1.370 . S
C730 C734 1.524 . S
C731 C723 1.503 . S
C731 C730 1.370 . S
C731 C732 1.403 . S
C732 C731 1.403 . S
C732 C733 1.404 . S
C732 C735 1.539 . S
C733 C729 1.395 1_556 S
C733 C732 1.404 . S
C733 H745 0.930 . S
C734 C730 1.524 . S
C734 H746 0.956 . S
C734 H747 0.961 . S
C734 H748 0.961 . S
C735 C732 1.539 . S
C735 H749 0.958 . S
C735 H750 0.961 1_655 S
C735 H751 0.960 . S
H736 C720 0.931 . S
H737 C725 0.929 . S
H738 C726 0.960 . S
H739 C726 0.962 . S
H740 C726 0.960 . S
H741 C727 0.961 . S
H742 C727 0.961 . S
H743 C727 0.961 . S
H744 C728 0.931 1_554 S
H745 C733 0.930 . S
H746 C734 0.956 . S
H747 C734 0.961 . S
H748 C734 0.961 . S
H749 C735 0.958 . S
H750 C735 0.961 1_455 S
H751 C735 0.960 . S
C752 C753 1.391 . S
C752 C754 1.394 . S
C752 H768 0.931 . S
C753 C752 1.391 . S
C753 C757 1.376 . S
C754 C752 1.394 . S
C754 C755 1.369 . S
C754 C758 1.531 1_455 S
C755 C754 1.369 . S
C755 C756 1.410 . S
C755 C763 1.503 1_455 S
C756 C755 1.410 . S
C756 C757 1.392 . S
C756 C759 1.511 . S
C757 C753 1.376 . S
C757 C756 1.392 . S
C757 H769 0.929 . S
C758 C754 1.531 1_655 S
C758 H770 0.960 . S
C758 H771 0.962 . S
C758 H772 0.960 . S
C759 C756 1.511 . S
C759 H773 0.961 . S
C759 H774 0.961 . S
C759 H775 0.961 . S
C760 C761 1.370 . S
C760 C762 1.363 . S
C760 H776 0.931 . S
C761 C760 1.370 . S
C761 C765 1.408 1_655 S
C762 C760 1.363 . S
C762 C763 1.370 . S
C762 C766 1.524 . S
C763 C755 1.503 1_655 S
C763 C762 1.370 . S
C763 C764 1.403 1_655 S
C764 C763 1.403 1_455 S
C764 C765 1.404 . S
C764 C767 1.539 . S
C765 C761 1.408 1_455 S
C765 C764 1.404 . S
C765 H777 0.930 . S
C766 C762 1.524 . S
C766 H778 0.956 . S
C766 H779 0.961 . S
C766 H780 0.961 . S
C767 C764 1.539 . S
C767 H781 0.958 . S
C767 H782 0.961 . S
C767 H783 0.960 . S
H768 C752 0.931 . S
H769 C757 0.929 . S
H770 C758 0.960 . S
H771 C758 0.962 . S
H772 C758 0.960 . S
H773 C759 0.961 . S
H774 C759 0.961 . S
H775 C759 0.961 . S
H776 C760 0.931 . S
H777 C765 0.930 . S
H778 C766 0.956 . S
H779 C766 0.961 . S
H780 C766 0.961 . S
H781 C767 0.958 . S
H782 C767 0.961 . S
H783 C767 0.960 . S
C784 C785 1.391 . S
C784 C786 1.394 1_545 S
C784 H800 0.931 . S
C785 C784 1.391 . S
C785 C789 1.376 . S
C786 C784 1.394 1_565 S
C786 C787 1.369 1_565 S
C786 C790 1.531 . S
C787 C786 1.369 1_545 S
C787 C788 1.410 . S
C787 C795 1.503 1_545 S
C788 C787 1.410 . S
C788 C789 1.392 . S
C788 C791 1.511 . S
C789 C785 1.376 . S
C789 C788 1.392 . S
C789 H801 0.929 . S
C790 C786 1.531 . S
C790 H802 0.960 . S
C790 H803 0.962 . S
C790 H804 0.960 . S
C791 C788 1.511 . S
C791 H805 0.961 . S
C791 H806 0.961 . S
C791 H807 0.961 . S
C792 C793 1.370 . S
C792 C794 1.363 . S
C792 H808 0.931 . S
C793 C792 1.370 . S
C793 C797 1.408 . S
C794 C792 1.363 . S
C794 C795 1.370 . S
C794 C798 1.524 . S
C795 C787 1.503 1_565 S
C795 C794 1.370 . S
C795 C796 1.403 . S
C796 C795 1.403 . S
C796 C797 1.404 . S
C796 C799 1.539 . S
C797 C793 1.408 . S
C797 C796 1.404 . S
C797 H809 0.946 . S
C798 C794 1.524 . S
C798 H810 0.956 . S
C798 H811 0.961 1_565 S
C798 H812 0.961 . S
C799 C796 1.539 . S
C799 H813 0.958 1_455 S
C799 H814 0.961 1_455 S
C799 H815 0.960 1_565 S
H800 C784 0.931 . S
H801 C789 0.929 . S
H802 C790 0.960 . S
H803 C790 0.962 . S
H804 C790 0.960 . S
H805 C791 0.961 . S
H806 C791 0.961 . S
H807 C791 0.961 . S
H808 C792 0.931 . S
H809 C797 0.946 . S
H810 C798 0.956 . S
H811 C798 0.961 1_545 S
H812 C798 0.961 . S
H813 C799 0.958 1_655 S
H814 C799 0.961 1_655 S
H815 C799 0.960 1_545 S
C241 C166 1.428 . S
C249 C19 1.481 . S
C273 C219 1.482 . S
C281 C46 1.448 . S
C305 C6 1.451 . S
C313 C99 1.476 . S
C337 C59 1.479 . S
C345 C126 1.449 . S
C369 C86 1.442 . S
C377 C179 1.478 . S
C401 C139 1.466 . S
C409 C206 1.459 . S
C433 C18 1.322 . S
C441 C129 1.171 . S
C465 C178 1.266 1_655 S
C473 C49 1.155 . S
C497 C209 1.220 . S
C505 C98 1.302 1_545 S
C529 C89 1.220 . S
C537 C218 1.302 . S
C561 C9 1.087 . S
C569 C138 1.304 1_455 S
C593 C169 1.171 . S
C601 C58 1.287 1_565 S
C625 C210 1.745 . S
C633 C10 1.739 . S
C657 C55 0.887 . S
C665 C15 0.866 . S
C689 C90 1.728 . S
C697 C50 1.747 . S
C721 C95 0.870 . S
C729 C135 0.889 . S
C753 C170 1.729 . S
C761 C130 1.749 . S
C785 C215 0.884 . S
C793 C175 0.868 . S
