# Generated by pormake.
# Topology can, (4)-cn, num edge types: 1
# Building blocks:
#     Node 0, Type 0, BuildingBlock: NAHDIM_clean_sbu_0, # of connection points: 4
#     Node 1, Type 0, BuildingBlock: NAHDIM_clean_sbu_0, # of connection points: 4
#     Node 2, Type 0, BuildingBlock: NAHDIM_clean_sbu_0, # of connection points: 4
#     Node 3, Type 0, BuildingBlock: NAHDIM_clean_sbu_0, # of connection points: 4
#     Node 4, Type 0, BuildingBlock: NAHDIM_clean_sbu_0, # of connection points: 4
#     Node 5, Type 0, BuildingBlock: NAHDIM_clean_sbu_0, # of connection points: 4
#     Node 6, Type 0, BuildingBlock: NAHDIM_clean_sbu_0, # of connection points: 4
#     Node 7, Type 0, BuildingBlock: NAHDIM_clean_sbu_0, # of connection points: 4
#     Node 8, Type 0, BuildingBlock: NAHDIM_clean_sbu_0, # of connection points: 4
#     Node 9, Type 0, BuildingBlock: NAHDIM_clean_sbu_0, # of connection points: 4
#     Node 10, Type 0, BuildingBlock: NAHDIM_clean_sbu_0, # of connection points: 4
#     Node 11, Type 0, BuildingBlock: NAHDIM_clean_sbu_0, # of connection points: 4
#     Edge 12, Type (0, 0), BuildingBlock: UVAHIK_clean_linker_0, # of connection points: 2
#     Edge 13, Type (0, 0), BuildingBlock: UVAHIK_clean_linker_0, # of connection points: 2
#     Edge 14, Type (0, 0), BuildingBlock: UVAHIK_clean_linker_0, # of connection points: 2
#     Edge 15, Type (0, 0), BuildingBlock: UVAHIK_clean_linker_0, # of connection points: 2
#     Edge 16, Type (0, 0), BuildingBlock: UVAHIK_clean_linker_0, # of connection points: 2
#     Edge 17, Type (0, 0), BuildingBlock: UVAHIK_clean_linker_0, # of connection points: 2
#     Edge 18, Type (0, 0), BuildingBlock: UVAHIK_clean_linker_0, # of connection points: 2
#     Edge 19, Type (0, 0), BuildingBlock: UVAHIK_clean_linker_0, # of connection points: 2
#     Edge 20, Type (0, 0), BuildingBlock: UVAHIK_clean_linker_0, # of connection points: 2
#     Edge 21, Type (0, 0), BuildingBlock: UVAHIK_clean_linker_0, # of connection points: 2
#     Edge 22, Type (0, 0), BuildingBlock: UVAHIK_clean_linker_0, # of connection points: 2
#     Edge 23, Type (0, 0), BuildingBlock: UVAHIK_clean_linker_0, # of connection points: 2
#     Edge 24, Type (0, 0), BuildingBlock: UVAHIK_clean_linker_0, # of connection points: 2
#     Edge 25, Type (0, 0), BuildingBlock: UVAHIK_clean_linker_0, # of connection points: 2
#     Edge 26, Type (0, 0), BuildingBlock: UVAHIK_clean_linker_0, # of connection points: 2
#     Edge 27, Type (0, 0), BuildingBlock: UVAHIK_clean_linker_0, # of connection points: 2
#     Edge 28, Type (0, 0), BuildingBlock: UVAHIK_clean_linker_0, # of connection points: 2
#     Edge 29, Type (0, 0), BuildingBlock: UVAHIK_clean_linker_0, # of connection points: 2
#     Edge 30, Type (0, 0), BuildingBlock: UVAHIK_clean_linker_0, # of connection points: 2
#     Edge 31, Type (0, 0), BuildingBlock: UVAHIK_clean_linker_0, # of connection points: 2
#     Edge 32, Type (0, 0), BuildingBlock: UVAHIK_clean_linker_0, # of connection points: 2
#     Edge 33, Type (0, 0), BuildingBlock: UVAHIK_clean_linker_0, # of connection points: 2
#     Edge 34, Type (0, 0), BuildingBlock: UVAHIK_clean_linker_0, # of connection points: 2
#     Edge 35, Type (0, 0), BuildingBlock: UVAHIK_clean_linker_0, # of connection points: 2
# Relax obj value: 0.094
# Max RMSD: 0.084
# Mean RMSD: 0.084
data_MOF--net-can--node1-NAHDIM_clean_sbu_0--edge1-UVAHIK_clean_linker_0
_symmetry_space_group_name_H-M    P1
_symmetry_Int_Tables_number       1
_symmetry_cell_setting            triclinic
loop_
_symmetry_equiv_pos_as_xyz
'x, y, z'
_cell_length_a     76.781285
_cell_length_b     76.745736
_cell_length_c     32.806086
_cell_angle_alpha  90.028338
_cell_angle_beta   89.927038
_cell_angle_gamma 120.01583
loop_
_atom_site_label
_atom_site_type_symbol
_atom_site_fract_x
_atom_site_fract_y
_atom_site_fract_z
_atom_type_partial_charge
C0 C 0.09403 0.39195 0.23901 0.0
O1 O 0.0768 0.37546 0.24576 0.0
O2 O 0.05172 0.39757 0.19137 0.0
Zn3 Zn 0.06841 0.40849 0.24189 0.0
O4 O 0.05376 0.39157 0.29012 0.0
C5 C 0.08084 0.45001 0.22531 0.0
O6 O 0.08565 0.44594 0.18951 0.0
O7 O 0.09434 0.40859 0.23563 0.0
C8 C 0.03661 0.38901 0.29958 0.0
O9 O 0.02857 0.39722 0.2768 0.0
C10 C 0.03953 0.37889 0.18647 0.0
O11 O 0.03772 0.36619 0.21524 0.0
O12 O 0.07354 0.43635 0.25235 0.0
C13 C 0.6966 0.09339 0.73816 0.0
O14 O 0.69597 0.07597 0.73891 0.0
O15 O 0.65631 0.05147 0.68771 0.0
Zn16 Zn 0.65483 0.06712 0.73554 0.0
O17 O 0.65226 0.05343 0.78917 0.0
C18 C 0.61469 0.05681 0.71535 0.0
O19 O 0.61402 0.04007 0.70394 0.0
O20 O 0.68022 0.09369 0.73675 0.0
C21 C 0.63984 0.03501 0.79622 0.0
O22 O 0.62809 0.02354 0.76683 0.0
C23 C 0.66086 0.03767 0.68901 0.0
O24 O 0.66487 0.03227 0.72414 0.0
O25 O 0.63105 0.07113 0.72927 0.0
C26 C 0.59225 0.69979 0.25155 0.0
O27 O 0.60759 0.6988 0.26649 0.0
O28 O 0.58789 0.6535 0.18943 0.0
Zn29 Zn 0.57669 0.65763 0.24157 0.0
O30 O 0.59229 0.65771 0.29066 0.0
C31 C 0.53633 0.62804 0.21864 0.0
O32 O 0.54242 0.63611 0.18238 0.0
O33 O 0.57695 0.68382 0.23893 0.0
C34 C 0.60618 0.65331 0.29135 0.0
O35 O 0.61148 0.64808 0.25745 0.0
C36 C 0.60545 0.66569 0.17636 0.0
O37 O 0.6174 0.68163 0.1981 0.0
O38 O 0.54839 0.63504 0.24854 0.0
C39 C 0.88746 0.5914 0.76188 0.0
O40 O 0.90373 0.60447 0.78143 0.0
O41 O 0.92958 0.58835 0.69362 0.0
Zn42 Zn 0.91181 0.57379 0.74139 0.0
O43 O 0.92671 0.58338 0.79428 0.0
C44 C 0.90159 0.5357 0.70337 0.0
O45 O 0.90615 0.5461 0.66935 0.0
O46 O 0.88757 0.57716 0.74233 0.0
C47 C 0.94201 0.60059 0.80042 0.0
O48 O 0.94922 0.61369 0.77047 0.0
C49 C 0.93193 0.60479 0.67935 0.0
O50 O 0.92276 0.61339 0.69683 0.0
O51 O 0.90269 0.5444 0.73701 0.0
C52 C 0.28407 0.8929 0.2495 0.0
O53 O 0.2851 0.90942 0.26354 0.0
O54 O 0.32979 0.93597 0.1938 0.0
Zn55 Zn 0.32604 0.91942 0.24387 0.0
O56 O 0.32483 0.93314 0.29521 0.0
C57 C 0.36634 0.9298 0.25792 0.0
O58 O 0.3674 0.9472 0.26434 0.0
O59 O 0.30017 0.89325 0.23887 0.0
C60 C 0.33155 0.95187 0.29977 0.0
O61 O 0.34023 0.96414 0.26894 0.0
C62 C 0.31976 0.94457 0.18531 0.0
O63 O 0.30603 0.94333 0.21093 0.0
O64 O 0.34952 0.91473 0.24815 0.0
C65 C 0.39205 0.29108 0.73579 0.0
O66 O 0.37527 0.29166 0.7333 0.0
O67 O 0.39428 0.33351 0.68422 0.0
Zn68 Zn 0.40799 0.3331 0.73617 0.0
O69 O 0.39349 0.33429 0.78592 0.0
C70 C 0.44591 0.36638 0.70724 0.0
O71 O 0.43752 0.3611 0.67109 0.0
O72 O 0.40868 0.30749 0.73767 0.0
C73 C 0.38904 0.34799 0.79127 0.0
O74 O 0.3934 0.36159 0.76277 0.0
C75 C 0.37625 0.32987 0.68165 0.0
O76 O 0.36524 0.32583 0.71472 0.0
O77 O 0.43614 0.35651 0.73842 0.0
C78 C 0.59509 0.88827 0.2461 0.0
O79 O 0.61207 0.90543 0.24925 0.0
O80 O 0.59703 0.92822 0.30275 0.0
Zn81 Zn 0.58054 0.91514 0.25257 0.0
O82 O 0.593 0.93101 0.20161 0.0
C83 C 0.55061 0.92445 0.2794 0.0
O84 O 0.56627 0.9393 0.29748 0.0
O85 O 0.5786 0.88837 0.24643 0.0
C86 C 0.59645 0.94885 0.19624 0.0
O87 O 0.59248 0.95796 0.22567 0.0
C88 C 0.61444 0.94375 0.30357 0.0
O89 O 0.62322 0.95282 0.26943 0.0
O90 O 0.55295 0.91173 0.25884 0.0
C91 C 0.70641 0.60273 0.75658 0.0
O92 O 0.70599 0.61893 0.76797 0.0
O93 O 0.66117 0.60064 0.79 0.0
Zn94 Zn 0.66531 0.58919 0.73827 0.0
O95 O 0.66717 0.60563 0.68945 0.0
C96 C 0.63456 0.5493 0.76012 0.0
O97 O 0.64289 0.555 0.79624 0.0
O98 O 0.69051 0.5878 0.74267 0.0
C99 C 0.65293 0.60893 0.68122 0.0
O100 O 0.63745 0.60217 0.70608 0.0
C101 C 0.66473 0.61856 0.79471 0.0
O102 O 0.67173 0.63124 0.76401 0.0
O103 O 0.64183 0.56144 0.73035 0.0
C104 C 0.09539 0.70769 0.24572 0.0
O105 O 0.07817 0.70704 0.25197 0.0
O106 O 0.05619 0.66554 0.30031 0.0
Zn107 Zn 0.07004 0.66526 0.24844 0.0
O108 O 0.05298 0.66144 0.19946 0.0
C109 C 0.0722 0.63099 0.27976 0.0
O110 O 0.06411 0.63382 0.31256 0.0
O111 O 0.09568 0.69134 0.24304 0.0
C112 C 0.03783 0.64425 0.19237 0.0
O113 O 0.03321 0.62954 0.21836 0.0
C114 C 0.03938 0.66496 0.30209 0.0
O115 O 0.03 0.66438 0.26824 0.0
O116 O 0.07619 0.6427 0.24944 0.0
C117 C 0.38798 0.10188 0.7323 0.0
O118 O 0.37121 0.08514 0.72418 0.0
O119 O 0.38933 0.06113 0.79722 0.0
Zn120 Zn 0.40147 0.074 0.74354 0.0
O121 O 0.38507 0.05769 0.69566 0.0
C122 C 0.42978 0.06081 0.74066 0.0
O123 O 0.41302 0.04352 0.7446 0.0
O124 O 0.40361 0.10104 0.74138 0.0
C125 C 0.37338 0.03874 0.69499 0.0
O126 O 0.371 0.02813 0.72807 0.0
C127 C 0.37074 0.05224 0.80622 0.0
O128 O 0.35756 0.05057 0.77877 0.0
O129 O 0.42892 0.07691 0.7396 0.0
C130 C 0.27823 0.38643 0.246 0.0
O131 O 0.27815 0.36928 0.24692 0.0
O132 O 0.32175 0.38764 0.29437 0.0
Zn133 Zn 0.32036 0.40185 0.24407 0.0
O134 O 0.32108 0.38821 0.19262 0.0
C135 C 0.35324 0.44002 0.27323 0.0
O136 O 0.34774 0.43183 0.30954 0.0
O137 O 0.29492 0.40279 0.24499 0.0
C138 C 0.33562 0.38532 0.18476 0.0
O139 O 0.34997 0.39043 0.21184 0.0
C140 C 0.31919 0.36996 0.29515 0.0
O141 O 0.31536 0.3596 0.26121 0.0
O142 O 0.34368 0.43002 0.24204 0.0
C143 C 0.88519 0.27892 0.73099 0.0
O144 O 0.90173 0.27944 0.71864 0.0
O145 O 0.92667 0.32798 0.79053 0.0
Zn146 Zn 0.91154 0.32145 0.73774 0.0
O147 O 0.92842 0.32043 0.69251 0.0
C148 C 0.89749 0.34925 0.75142 0.0
O149 O 0.89332 0.34086 0.78769 0.0
O150 O 0.88582 0.29518 0.74121 0.0
C151 C 0.94633 0.33476 0.68784 0.0
O152 O 0.9537 0.34977 0.71389 0.0
C153 C 0.9263 0.31462 0.81393 0.0
O154 O 0.91566 0.29558 0.80356 0.0
O155 O 0.90531 0.34323 0.72481 0.0
C156 C 0.02832 0.38536 0.11951 0.0
C157 C 0.02745 0.37161 0.14884 0.0
C158 C 0.01684 0.37855 0.08404 0.0
C159 C -0.00898 0.33457 0.01706 0.0
H160 H 0.96294 0.36167 0.97879 0.0
C161 C 0.93649 0.30587 0.87988 0.0
C162 C 0.9376 0.32053 0.85266 0.0
C163 C 0.94702 0.31155 0.9167 0.0
C164 C 0.97086 0.35408 0.98885 0.0
H165 H 0.0139 0.33992 0.16392 0.0
H166 H -0.0062 0.32805 0.10182 0.0
H167 H 0.98215 0.37261 0.04192 0.0
H168 H 0.95082 0.35264 0.84247 0.0
H169 H 0.96937 0.36251 0.90631 0.0
H170 H 0.9799 0.31617 0.96372 0.0
C171 C 0.00348 0.34408 0.10626 0.0
C172 C 0.98183 0.36033 0.02501 0.0
C173 C 0.01491 0.3509 0.14188 0.0
C174 C 0.94955 0.34096 0.86287 0.0
C175 C 0.96009 0.34663 0.89959 0.0
C176 C 0.98008 0.32834 0.98078 0.0
C177 C 0.00429 0.35786 0.07706 0.0
C178 C -0.00787 0.35074 0.03934 0.0
C179 C 0.95889 0.33199 0.927 0.0
C180 C 0.97 0.33813 0.96614 0.0
H181 H 0.03786 0.40142 0.12391 0.0
H182 H 0.01796 0.38951 0.06181 0.0
H183 H -0.00101 0.32704 0.02717 0.0
H184 H 0.92737 0.29 0.87293 0.0
H185 H 0.94563 0.29992 0.93738 0.0
C186 C 0.61904 0.93947 0.37735 0.0
C187 C 0.62409 0.95205 0.34313 0.0
C188 C 0.62683 0.94749 0.41563 0.0
C189 C 0.66417 -0.00516 0.46877 0.0
H190 H 0.62605 0.97168 0.55787 0.0
C191 C 0.66364 0.03721 0.61337 0.0
C192 C 0.66107 0.02752 0.65104 0.0
C193 C 0.66262 0.02727 0.57709 0.0
C194 C 0.63697 0.9781 0.53342 0.0
H195 H 0.64162 0.98276 0.32165 0.0
H196 H 0.65443 -0.003 0.38867 0.0
H197 H 0.61755 0.95552 0.49148 0.0
H198 H 0.65588 4e-05 0.6805 0.0
H199 H 0.65342 0.98235 0.61661 0.0
H200 H 0.68291 0.01824 0.5107 0.0
C201 C 0.64501 0.98084 0.38604 0.0
C202 C 0.63218 0.96881 0.49531 0.0
C203 C 0.63755 0.97273 0.34757 0.0
C204 C 0.65793 0.00785 0.65185 0.0
C205 C 0.6565 -0.00225 0.61544 0.0
C206 C 0.66878 0.00434 0.50677 0.0
C207 C 0.63945 0.96836 0.42073 0.0
C208 C 0.64556 0.97722 0.46224 0.0
C209 C 0.65866 0.00734 0.5778 0.0
C210 C 0.65508 -0.00383 0.53919 0.0
H211 H 0.6089 0.9234 0.37459 0.0
H212 H 0.62264 0.93732 0.44132 0.0
H213 H 0.67505 0.00154 0.44437 0.0
H214 H 0.66621 0.05243 0.6119 0.0
H215 H 0.66414 0.03489 0.5484 0.0
C216 C 0.59846 0.64697 0.11061 0.0
C217 C 0.6123 0.66181 0.13709 0.0
C218 C 0.60483 0.64315 0.07355 0.0
C219 C 0.64691 0.66478 -0.00064 0.0
H220 H 0.62222 0.60935 0.96317 0.0
C221 C 0.6597 0.64258 0.83806 0.0
C222 C 0.66055 0.62479 0.8344 0.0
C223 C 0.65472 0.6478 0.87535 0.0
C224 C 0.62947 0.6249 0.97299 0.0
H225 H 0.64369 0.68431 0.14555 0.0
H226 H 0.65493 0.67725 0.08124 0.0
H227 H 0.61211 0.61701 0.02772 0.0
H228 H 0.65767 0.59893 0.86722 0.0
H229 H 0.64957 0.60829 0.9323 0.0
H230 H 0.66476 0.67254 0.94508 0.0
C231 C 0.63907 0.66885 0.08873 0.0
C232 C 0.62343 0.62933 0.00978 0.0
C233 C 0.63265 0.67282 0.12569 0.0
C234 C 0.65689 0.61263 0.86894 0.0
C235 C 0.65214 0.61794 0.90623 0.0
C236 C 0.65308 0.66032 0.96262 0.0
C237 C 0.62523 0.65391 0.06229 0.0
C238 C 0.63199 0.64932 0.02334 0.0
C239 C 0.65068 0.63542 0.90978 0.0
C240 C 0.6444 0.64032 0.94898 0.0
H241 H 0.58263 0.63837 0.11833 0.0
H242 H 0.59369 0.63183 0.05359 0.0
H243 H 0.65367 0.68036 0.0087 0.0
H244 H 0.6624 0.65223 0.81192 0.0
H245 H 0.65352 0.66126 0.87689 0.0
C246 C 0.00936 0.65715 0.34499 0.0
C247 C 0.02993 0.6635 0.34212 0.0
C248 C 9e-05 0.65395 0.3831 0.0
C249 C 0.00684 0.64249 0.48907 0.0
H250 H 0.96174 0.65068 0.51004 0.0
C251 C 0.9523 0.60328 0.62148 0.0
C252 C 0.94454 0.61379 0.64277 0.0
C253 C 0.96381 0.61143 0.58638 0.0
C254 C 0.97448 0.64855 0.5049 0.0
H255 H 0.0572 0.67263 0.37679 0.0
H256 H 0.04119 0.66761 0.44316 0.0
H257 H 0.98028 0.66248 0.44612 0.0
H258 H 0.94297 0.64123 0.64419 0.0
H259 H 0.96343 0.65567 0.58311 0.0
H260 H 0.0013 0.62886 0.54795 0.0
C261 C 0.03204 0.6645 0.41608 0.0
C262 C 0.98496 0.65508 0.46804 0.0
C263 C 0.04125 0.66748 0.37803 0.0
C264 C 0.94868 0.63273 0.62837 0.0
C265 C 0.96032 0.64096 0.59327 0.0
C266 C -0.00352 0.63609 0.52593 0.0
C267 C 0.01126 0.65724 0.4191 0.0
C268 C 0.00107 0.65185 0.45945 0.0
C269 C 0.96798 0.63036 0.57184 0.0
C270 C 0.97995 0.6387 0.534 0.0
H271 H 0.00024 0.65394 0.31784 0.0
H272 H 0.98402 0.64815 0.38425 0.0
H273 H 0.01901 0.63952 0.48338 0.0
H274 H 0.94927 0.58859 0.63158 0.0
H275 H 0.96913 0.60268 0.57021 0.0
C276 C 0.34437 0.0275 0.8536 0.0
C277 C 0.36416 0.04312 0.84692 0.0
C278 C 0.33877 0.01788 0.89148 0.0
C279 C 0.32828 0.00499 0.98001 0.0
H280 H 0.3683 -0.00364 0.03372 0.0
C281 C 0.31603 0.96891 0.14039 0.0
C282 C 0.32375 0.95597 0.14691 0.0
C283 C 0.32035 0.98002 0.1043 0.0
C284 C 0.35685 -0.00155 0.019 0.0
H285 H 0.39327 0.06177 0.87508 0.0
H286 H 0.38338 0.04557 0.94135 0.0
H287 H 0.37658 0.01473 0.97 0.0
H288 H 0.34152 0.94403 0.12031 0.0
H289 H 0.34856 0.96289 0.0572 0.0
H290 H 0.30827 0.98783 0.02839 0.0
C291 C 0.37233 0.04017 0.91712 0.0
C292 C 0.36172 0.00931 0.9827 0.0
C293 C 0.37799 0.04955 0.87919 0.0
C294 C 0.33553 0.95406 0.11641 0.0
C295 C 0.33967 0.96498 0.08029 0.0
C296 C 0.32333 -0.00607 0.01626 0.0
C297 C 0.3528 0.02391 0.9235 0.0
C298 C 0.34752 0.01272 0.9627 0.0
C299 C 0.33234 0.97828 0.07395 0.0
C300 C 0.33755 0.99044 0.03603 0.0
H301 H 0.33342 0.02222 0.82919 0.0
H302 H 0.32366 0.00529 0.89517 0.0
H303 H 0.31704 0.0075 0.96564 0.0
H304 H 0.30693 0.97072 0.16341 0.0
H305 H 0.31463 0.99028 0.10057 0.0
C306 C 0.31845 0.36878 0.37111 0.0
C307 C 0.32146 0.36161 0.33389 0.0
C308 C 0.32178 0.36184 0.40794 0.0
C309 C 0.35383 0.34615 0.45261 0.0
H310 H 0.31523 0.32456 0.54114 0.0
C311 C 0.37557 0.32641 0.60605 0.0
C312 C 0.36786 0.33027 0.64155 0.0
C313 C 0.36808 0.32732 0.56787 0.0
C314 C 0.3263 0.33081 0.51698 0.0
H315 H 0.32998 0.34137 0.30582 0.0
H316 H 0.33652 0.32975 0.37058 0.0
H317 H 0.30512 0.33155 0.4754 0.0
H318 H 0.34625 0.33799 0.66526 0.0
H319 H 0.3339 0.34071 0.59861 0.0
H320 H 0.37544 0.34677 0.49417 0.0
C321 C 0.33127 0.34049 0.371 0.0
C322 C 0.32041 0.33462 0.47929 0.0
C323 C 0.3275 0.34709 0.33412 0.0
C324 C 0.35238 0.33485 0.6383 0.0
C325 C 0.3452 0.33624 0.60003 0.0
C326 C 0.35987 0.34278 0.49046 0.0
C327 C 0.32857 0.34794 0.40812 0.0
C328 C 0.33417 0.3424 0.44695 0.0
C329 C 0.35305 0.33262 0.56423 0.0
C330 C 0.34623 0.33518 0.52331 0.0
H331 H 0.31371 0.37991 0.37176 0.0
H332 H 0.31975 0.36787 0.43628 0.0
H333 H 0.36476 0.35243 0.42815 0.0
H334 H 0.38733 0.32255 0.60779 0.0
H335 H 0.37416 0.3239 0.54123 0.0
C336 C 0.96774 0.62494 0.84943 0.0
C337 C 0.95132 0.60574 0.84128 0.0
C338 C 0.97647 0.6296 0.88817 0.0
C339 C 0.98193 0.60563 0.98045 0.0
H340 H -0.00323 0.65662 0.03225 0.0
C341 C 0.03255 0.65579 0.12456 0.0
C342 C 0.02634 0.64058 0.15418 0.0
C343 C 0.02255 0.65191 0.08726 0.0
C344 C -0.00714 0.64239 0.01802 0.0
H345 H 0.93107 0.57643 0.8675 0.0
H346 H 0.94625 0.5846 0.93487 0.0
H347 H 0.98135 0.64926 0.9647 0.0
H348 H 0.00432 0.60962 0.16852 0.0
H349 H 0.98668 0.60294 0.10364 0.0
H350 H -0.00641 0.59878 0.03334 0.0
C351 C 0.95251 0.59598 0.91126 0.0
C352 C 0.98406 0.63819 0.97936 0.0
C353 C 0.94376 0.59135 0.87267 0.0
C354 C 0.00956 0.62161 0.14621 0.0
C355 C -0.00047 0.61775 0.10895 0.0
C356 C -0.00923 0.60983 0.01897 0.0
C357 C 0.969 0.61511 0.91939 0.0
C358 C 0.97848 0.61975 0.96023 0.0
C359 C 0.0061 0.63276 0.07884 0.0
C360 C -0.00369 0.62824 0.03823 0.0
H361 H 0.97389 0.63636 0.82589 0.0
H362 H 0.98929 0.64443 0.89349 0.0
H363 H 0.9781 0.59142 0.96618 0.0
H364 H 0.04544 0.67058 0.12976 0.0
H365 H 0.0281 0.66374 0.06457 0.0
C366 C 0.33967 0.98057 0.3471 0.0
C367 C 0.33079 0.95977 0.34041 0.0
C368 C 0.34024 0.98799 0.38628 0.0
C369 C 0.34027 0.97427 0.49299 0.0
H370 H 0.33373 0.0203 0.51515 0.0
C371 C 0.35176 0.00766 0.65419 0.0
C372 C 0.36379 0.0287 0.65628 0.0
C373 C 0.34412 -0.00184 0.6168 0.0
C374 C 0.33566 0.00747 0.50939 0.0
H375 H 0.31473 0.93038 0.36921 0.0
H376 H 0.31569 0.94336 0.43739 0.0
H377 H 0.32703 0.00574 0.44678 0.0
H378 H 0.37656 0.05634 0.62106 0.0
H379 H 0.36356 0.03979 0.556 0.0
H380 H 0.3495 0.9763 0.55503 0.0
C381 C 0.32245 0.95393 0.41249 0.0
C382 C 0.33183 -0.00085 0.47028 0.0
C383 C 0.32186 0.94652 0.37339 0.0
C384 C 0.36739 0.04008 0.62051 0.0
C385 C 0.3598 0.0306 0.58319 0.0
C386 C 0.34416 0.9826 0.53199 0.0
C387 C 0.33196 0.97475 0.41948 0.0
C388 C 0.33437 0.98264 0.46157 0.0
C389 C 0.34837 0.00952 0.58079 0.0
C390 C 0.3422 -0.00051 0.54049 0.0
H391 H 0.34664 0.99117 0.32232 0.0
H392 H 0.34783 0.00413 0.3908 0.0
H393 H 0.34267 0.96173 0.48707 0.0
H394 H 0.34859 -0.00153 0.68126 0.0
H395 H 0.33512 0.9819 0.61601 0.0
C396 C 0.38167 0.33952 0.86494 0.0
C397 C 0.37983 0.34901 0.82998 0.0
C398 C 0.37399 0.34135 0.90224 0.0
C399 C 0.35798 0.37372 0.95527 0.0
H400 H 0.33988 0.33181 0.03735 0.0
C401 C 0.32623 0.37904 0.11121 0.0
C402 C 0.33711 0.37774 0.14436 0.0
C403 C 0.32892 0.37355 0.07217 0.0
C404 C 0.34487 0.34358 0.01459 0.0
H405 H 0.36778 0.36713 0.80608 0.0
H406 H 0.35356 0.36963 0.87082 0.0
H407 H 0.34838 0.32562 0.96915 0.0
H408 H 0.35861 0.36883 0.16307 0.0
H409 H 0.36292 0.35873 0.09468 0.0
H410 H 0.35402 0.39145 0.00081 0.0
C411 C 0.36157 0.36136 0.86989 0.0
C412 C 0.34987 0.34014 0.97562 0.0
C413 C 0.36961 0.35985 0.8327 0.0
C414 C 0.35011 0.37007 0.13803 0.0
C415 C 0.3525 0.3642 0.09906 0.0
C416 C 0.35259 0.37698 -0.00604 0.0
C417 C 0.36394 0.3524 0.90532 0.0
C418 C 0.35687 0.35531 0.94566 0.0
C419 C 0.34221 0.36628 0.06576 0.0
C420 C 0.34632 0.36207 0.02407 0.0
H421 H 0.3896 0.33116 0.8638 0.0
H422 H 0.37652 0.33457 0.92884 0.0
H423 H 0.36364 0.38592 0.93343 0.0
H424 H 0.31613 0.38494 0.11516 0.0
H425 H 0.3208 0.37519 0.04687 0.0
C426 C 0.94971 0.31948 0.62313 0.0
C427 C 0.95771 0.3356 0.65087 0.0
C428 C 0.95915 0.32124 0.58574 0.0
C429 C 0.00602 0.35282 0.52699 0.0
H430 H 0.96963 0.33654 0.43475 0.0
C431 C 0.03538 0.36965 0.3619 0.0
C432 C 0.02654 0.3781 0.33728 0.0
C433 C 0.02671 0.36076 0.39918 0.0
C434 C 0.97998 0.34113 0.46019 0.0
H435 H 0.98246 0.36574 0.66221 0.0
H436 H -0.00128 0.36895 0.59674 0.0
H437 H 0.95603 0.32804 0.50353 0.0
H438 H 0.00129 0.38321 0.33171 0.0
H439 H 0.98633 0.36797 0.39695 0.0
H440 H 0.02995 0.36686 0.48368 0.0
C441 C 0.98529 0.35486 0.60398 0.0
C442 C 0.9722 0.33605 0.4996 0.0
C443 C 0.9759 0.35308 0.64144 0.0
C444 C 0.00848 0.37685 0.35 0.0
C445 C -0.00017 0.36799 0.38728 0.0
C446 C 0.0138 0.35793 0.48755 0.0
C447 C 0.97673 0.33916 0.5753 0.0
C448 C 0.98513 0.34224 0.53349 0.0
C449 C 0.00903 0.36014 0.41257 0.0
C450 C 0.00084 0.35255 0.45381 0.0
H451 H 0.93582 0.3057 0.62972 0.0
H452 H 0.95239 0.30875 0.56456 0.0
H453 H 0.01635 0.35759 0.55247 0.0
H454 H 0.04923 0.37023 0.35278 0.0
H455 H 0.03399 0.3546 0.41776 0.0
C456 C 0.62797 0.00597 0.84439 0.0
C457 C 0.63816 0.02685 0.83766 0.0
C458 C 0.62584 -0.00165 0.88388 0.0
C459 C 0.62221 0.01061 0.98893 0.0
H460 H 0.63437 0.96867 0.01606 0.0
C461 C 0.61191 0.97967 0.15242 0.0
C462 C 0.60404 0.95886 0.15654 0.0
C463 C 0.61829 0.98891 0.11437 0.0
C464 C 0.63067 0.98021 0.00892 0.0
H465 H 0.65427 0.05611 0.86686 0.0
H466 H 0.65016 0.04272 0.9359 0.0
H467 H 0.64095 0.98265 0.94726 0.0
H468 H 0.5968 0.93138 0.12422 0.0
H469 H 0.60716 0.94727 0.05781 0.0
H470 H 0.61113 0.00772 0.0497 0.0
C471 C 0.64395 0.03232 0.91057 0.0
C472 C 0.63453 0.98825 0.96959 0.0
C473 C 0.64635 0.03994 0.87108 0.0
C474 C 0.60292 0.94749 0.12205 0.0
C475 C 0.60901 0.95666 0.08396 0.0
C476 C 0.61806 0.00237 0.02806 0.0
C477 C 0.6336 0.01147 0.91731 0.0
C478 C 0.63025 0.00344 0.95925 0.0
C479 C 0.61665 0.97747 0.07954 0.0
C480 C 0.62211 0.98697 0.03852 0.0
H481 H 0.62156 -0.00447 0.81919 0.0
H482 H 0.61768 0.9822 0.88841 0.0
H483 H 0.61858 0.02218 0.9815 0.0
H484 H 0.61313 0.98884 0.17857 0.0
H485 H 0.62446 0.00503 0.11231 0.0
C486 C 0.63185 0.64976 0.33211 0.0
C487 C 0.61559 0.6533 0.33058 0.0
C488 C 0.64002 0.64887 0.3696 0.0
C489 C 0.64035 0.66049 0.48009 0.0
H490 H 0.65116 0.61662 0.49421 0.0
C491 C 0.63836 0.6242 0.6349 0.0
C492 C 0.65305 0.61883 0.64257 0.0
C493 C 0.63744 0.63197 0.597 0.0
C494 C 0.64853 0.62915 0.49058 0.0
H495 H 0.59543 0.6591 0.3671 0.0
H496 H 0.60922 0.65698 0.43213 0.0
H497 H 0.64294 0.62364 0.42679 0.0
H498 H 0.67879 0.61809 0.61709 0.0
H499 H 0.67698 0.63145 0.55072 0.0
H500 H 0.64503 0.66528 0.54446 0.0
C501 C 0.61602 0.65533 0.40454 0.0
C502 C 0.64387 0.63322 0.45192 0.0
C503 C 0.60797 0.65636 0.36717 0.0
C504 C 0.66724 0.62202 0.61208 0.0
C505 C 0.66619 0.6296 0.57405 0.0
C506 C 0.64482 0.65627 0.51882 0.0
C507 C 0.63201 0.65138 0.40628 0.0
C508 C 0.63932 0.64867 0.44635 0.0
C509 C 0.65109 0.63435 0.56597 0.0
C510 C 0.64858 0.64033 0.52452 0.0
H511 H 0.63816 0.6475 0.30441 0.0
H512 H 0.65251 0.64606 0.36985 0.0
H513 H 0.63733 0.67276 0.47672 0.0
H514 H 0.62728 0.62199 0.65784 0.0
H515 H 0.62554 0.63535 0.59144 0.0
C516 C 0.08373 0.61034 0.24152 0.0
C517 C 0.0757 0.61375 0.27718 0.0
C518 C 0.08609 0.5935 0.23825 0.0
C519 C 0.06618 0.5426 0.28 0.0
H520 H 0.11253 0.54518 0.22664 0.0
C521 C 0.07693 0.47376 0.27149 0.0
C522 C 0.08277 0.46984 0.23352 0.0
C523 C 0.0776 0.49201 0.27867 0.0
C524 C 0.09943 0.54422 0.24134 0.0
H525 H 0.06432 0.60241 0.33777 0.0
H526 H 0.0686 0.57309 0.33215 0.0
H527 H 0.11102 0.57596 0.23631 0.0
H528 H 0.0944 0.48223 0.17366 0.0
H529 H 0.09542 0.51408 0.18613 0.0
H530 H 0.05447 0.51088 0.28468 0.0
C531 C 0.07282 0.58332 0.30652 0.0
C532 C 0.09857 0.56183 0.24689 0.0
C533 C 0.07047 0.60017 0.30982 0.0
C534 C 0.08978 0.48478 0.20322 0.0
C535 C 0.09047 0.50307 0.21044 0.0
C536 C 0.06705 0.52503 0.27449 0.0
C537 C 0.08047 0.57969 0.27055 0.0
C538 C 0.08187 0.56119 0.2661 0.0
C539 C 0.08414 0.50677 0.24807 0.0
C540 C 0.08364 0.52562 0.25494 0.0
H541 H 0.0879 0.6205 0.21579 0.0
H542 H 0.0918 0.59101 0.20996 0.0
H543 H 0.05295 0.54154 0.29425 0.0
H544 H 0.07156 0.46263 0.2956 0.0
H545 H 0.07292 0.49454 0.30819 0.0
C546 C 0.46751 0.07968 0.73855 0.0
C547 C 0.44924 0.06135 0.73733 0.0
C548 C 0.48583 0.07997 0.73583 0.0
C549 C 0.5078 0.0469 0.74838 0.0
H550 H 0.55219 0.08825 0.68598 0.0
C551 C 0.5775 0.04122 0.70712 0.0
C552 C 0.59627 0.05837 0.71473 0.0
C553 C 0.5599 0.04228 0.70913 0.0
C554 C 0.53995 0.07671 0.70375 0.0
H555 H 0.43583 0.02898 0.73158 0.0
H556 H 0.46763 0.02951 0.7259 0.0
H557 H 0.5207 0.08878 0.69124 0.0
H558 H 0.61137 0.09021 0.7292 0.0
H559 H 0.58052 0.09207 0.7323 0.0
H560 H 0.52693 0.03465 0.76024 0.0
C561 C 0.46791 0.04365 0.72995 0.0
C562 C 0.52195 0.07704 0.7069 0.0
C563 C 0.44965 0.04335 0.73296 0.0
C564 C 0.59712 0.07673 0.72329 0.0
C565 C 0.5795 0.07783 0.7249 0.0
C566 C 0.5257 0.04649 0.74492 0.0
C567 C 0.48623 0.06193 0.73161 0.0
C568 C 0.50562 0.06205 0.72906 0.0
C569 C 0.56071 0.06054 0.71841 0.0
C570 C 0.5419 0.06131 0.7224 0.0
H571 H 0.46767 0.0938 0.74203 0.0
H572 H 0.49966 0.0943 0.73769 0.0
H573 H 0.49572 0.03538 0.76646 0.0
H574 H 0.57633 0.02685 0.7004 0.0
H575 H 0.54562 0.02878 0.70351 0.0
C576 C 0.50966 0.60183 0.26331 0.0
C577 C 0.51611 0.61028 0.22436 0.0
C578 C 0.49105 0.58439 0.26851 0.0
C579 C 0.45394 0.53994 0.21232 0.0
H580 H 0.41939 0.53266 0.30478 0.0
C581 C 0.37609 0.46926 0.2293 0.0
C582 C 0.37078 0.46045 0.2682 0.0
C583 C 0.39304 0.48821 0.22402 0.0
C584 C 0.42897 0.53441 0.27902 0.0
H585 H 0.50784 0.60735 0.16047 0.0
H586 H 0.47528 0.57692 0.16963 0.0
H587 H 0.4503 0.56483 0.29511 0.0
H588 H 0.37894 0.46479 0.3322 0.0
H589 H 0.40875 0.49785 0.32287 0.0
H590 H 0.43285 0.5095 0.19646 0.0
C591 C 0.48475 0.58369 0.19605 0.0
C592 C 0.44664 0.55283 0.27345 0.0
C593 C 0.50335 0.60118 0.19085 0.0
C594 C 0.38262 0.47117 0.30184 0.0
C595 C 0.39963 0.49016 0.29652 0.0
C596 C 0.43632 0.52153 0.21792 0.0
C597 C 0.4785 0.57499 0.23488 0.0
C598 C 0.45934 0.55576 0.2401 0.0
C599 C 0.40512 0.4988 0.25748 0.0
C600 C 0.42366 0.51854 0.25137 0.0
H601 H 0.51912 0.60848 0.28979 0.0
H602 H 0.48675 0.57794 0.29874 0.0
H603 H 0.46359 0.5416 0.18675 0.0
H604 H 0.36722 0.46147 0.20275 0.0
H605 H 0.39666 0.49459 0.19365 0.0
C606 C 0.89873 0.50555 0.66743 0.0
C607 C 0.89665 0.51445 0.70317 0.0
C608 C 0.89569 0.48601 0.66828 0.0
C609 C 0.87362 0.43921 0.72945 0.0
H610 H 0.91584 0.43246 0.6804 0.0
C611 C 0.88759 0.37444 0.77267 0.0
C612 C 0.89401 0.36611 0.74209 0.0
C613 C 0.88542 0.39111 0.76434 0.0
C614 C 0.90371 0.43393 0.69364 0.0
H615 H 0.88892 0.50953 0.76743 0.0
H616 H 0.8837 0.47555 0.76888 0.0
H617 H 0.91604 0.46403 0.67147 0.0
H618 H 0.90249 0.36825 0.67836 0.0
H619 H 0.89843 0.39713 0.66372 0.0
H620 H 0.86149 0.40921 0.75221 0.0
C621 C 0.88758 0.4836 0.74017 0.0
C622 C 0.90384 0.45205 0.6885 0.0
C623 C 0.89072 0.50314 0.73938 0.0
C624 C 0.89767 0.37442 0.70271 0.0
C625 C 0.89543 0.39103 0.69434 0.0
C626 C 0.87346 0.42106 0.73449 0.0
C627 C 0.89037 0.47495 0.70481 0.0
C628 C 0.88898 0.455 0.7069 0.0
C629 C 0.88955 0.39974 0.72519 0.0
C630 C 0.88869 0.41833 0.71718 0.0
H631 H 0.90322 0.51384 0.63901 0.0
H632 H 0.89774 0.47963 0.64047 0.0
H633 H 0.86183 0.44098 0.74354 0.0
H634 H 0.88466 0.3684 0.80333 0.0
H635 H 0.88111 0.3976 0.78894 0.0
C636 C 0.40233 0.94413 0.2776 0.0
C637 C 0.38457 0.92803 0.26176 0.0
C638 C 0.41976 0.94284 0.28063 0.0
C639 C 0.43841 0.90672 0.28141 0.0
H640 H 0.48922 0.95439 0.25548 0.0
C641 C 0.51384 0.90718 0.26271 0.0
C642 C 0.53087 0.92342 0.28057 0.0
C643 C 0.49549 0.90689 0.26178 0.0
C644 C 0.47517 0.94101 0.2632 0.0
H645 H 0.3711 0.89784 0.23693 0.0
H646 H 0.40174 0.89573 0.24144 0.0
H647 H 0.45815 0.95543 0.25033 0.0
H648 H 0.54188 0.95184 0.31233 0.0
H649 H 0.5099 0.95131 0.31057 0.0
H650 H 0.45561 0.89227 0.29365 0.0
C651 C 0.40208 0.90924 0.25214 0.0
C652 C 0.45735 0.9416 0.26032 0.0
C653 C 0.38455 0.91049 0.24935 0.0
C654 C 0.52907 0.93913 0.29822 0.0
C655 C 0.51079 0.9389 0.29703 0.0
C656 C 0.45627 0.90609 0.28402 0.0
C657 C 0.41992 0.92547 0.26759 0.0
C658 C 0.43876 0.92452 0.26971 0.0
C659 C 0.49388 0.9229 0.27841 0.0
C660 C 0.47483 0.9233 0.27524 0.0
H661 H 0.40281 0.95779 0.28779 0.0
H662 H 0.43311 0.95546 0.29346 0.0
H663 H 0.42438 0.89336 0.28929 0.0
H664 H 0.51473 0.89483 0.24891 0.0
H665 H 0.48272 0.89442 0.24703 0.0
C666 C 0.60736 0.51645 0.7878 0.0
C667 C 0.61639 0.52937 0.75443 0.0
C668 C 0.58967 0.49802 0.78268 0.0
C669 C 0.55826 0.46048 0.70512 0.0
H670 H 0.51552 0.44603 0.78402 0.0
C671 C 0.47668 0.39612 0.67843 0.0
C672 C 0.46627 0.38404 0.71207 0.0
C673 C 0.4956 0.41324 0.68351 0.0
C674 C 0.52739 0.44969 0.76201 0.0
H675 H 0.61415 0.5329 0.68933 0.0
H676 H 0.58324 0.50082 0.6805 0.0
H677 H 0.54761 0.47685 0.79331 0.0
H678 H 0.46776 0.38018 0.77729 0.0
H679 H 0.50079 0.40982 0.78599 0.0
H680 H 0.53796 0.43333 0.67371 0.0
C681 C 0.58992 0.50485 0.71055 0.0
C682 C 0.54578 0.46736 0.76735 0.0
C683 C 0.60757 0.5233 0.71569 0.0
C684 C 0.47531 0.38923 0.75075 0.0
C685 C 0.49421 0.4063 0.7558 0.0
C686 C 0.53986 0.44277 0.69981 0.0
C687 C 0.58067 0.4921 0.74405 0.0
C688 C 0.56139 0.47298 0.7389 0.0
C689 C 0.50449 0.4186 0.72233 0.0
C690 C 0.5242 0.43721 0.72815 0.0
H691 H 0.6138 0.52064 0.81803 0.0
H692 H 0.58302 0.48839 0.80898 0.0
H693 H 0.57009 0.4643 0.68295 0.0
H694 H 0.47011 0.39255 0.64824 0.0
H695 H 0.50304 0.42252 0.65717 0.0
C696 C 0.13148 0.40902 0.23294 0.0
C697 C 0.11286 0.39123 0.23714 0.0
C698 C 0.14933 0.40838 0.23288 0.0
C699 C 0.16971 0.37456 0.21654 0.0
H700 H 0.21415 0.41369 0.28207 0.0
C701 C 0.24062 0.36879 0.24725 0.0
C702 C 0.25919 0.38677 0.24531 0.0
C703 C 0.22264 0.36919 0.24608 0.0
C704 C 0.20196 0.4028 0.26327 0.0
H705 H 0.09831 0.35879 0.24383 0.0
H706 H 0.12949 0.35773 0.24387 0.0
H707 H 0.18301 0.41479 0.27916 0.0
H708 H 0.27349 0.41928 0.24057 0.0
H709 H 0.24216 0.41993 0.23805 0.0
H710 H 0.18869 0.3626 0.20055 0.0
C711 C 0.13026 0.37213 0.24036 0.0
C712 C 0.18414 0.40344 0.2616 0.0
C713 C 0.11242 0.37277 0.24055 0.0
C714 C 0.25943 0.40516 0.24228 0.0
C715 C 0.24148 0.40555 0.24106 0.0
C716 C 0.18756 0.37394 0.21813 0.0
C717 C 0.1489 0.38995 0.23687 0.0
C718 C 0.16785 0.38934 0.23821 0.0
C719 C 0.2229 0.38758 0.24293 0.0
C720 C 0.20387 0.38807 0.2415 0.0
H721 H 0.13232 0.42348 0.23011 0.0
H722 H 0.16348 0.42233 0.2296 0.0
H723 H 0.15746 0.36365 0.19789 0.0
H724 H 0.23994 0.35439 0.24971 0.0
H725 H 0.20854 0.35511 0.24809 0.0
C726 C 0.86561 0.24138 0.72626 0.0
C727 C 0.86605 0.25966 0.73301 0.0
C728 C 0.84745 0.22319 0.72793 0.0
C729 C 0.79532 0.20047 0.76663 0.0
H730 H 0.78478 0.15909 0.68669 0.0
C731 C 0.71686 0.13092 0.74235 0.0
C732 C 0.71609 0.11231 0.73859 0.0
C733 C 0.73533 0.1488 0.7426 0.0
C734 C 0.78761 0.17045 0.70943 0.0
H735 H 0.84782 0.27327 0.74666 0.0
H736 H 0.81612 0.24161 0.74873 0.0
H737 H 0.81681 0.19058 0.68535 0.0
H738 H 0.73403 0.09782 0.73212 0.0
H739 H 0.76628 0.12909 0.73242 0.0
H740 H 0.76593 0.18039 0.79022 0.0
C741 C 0.82983 0.24126 0.74295 0.0
C742 C 0.80596 0.18845 0.70875 0.0
C743 C 0.84799 0.25942 0.74151 0.0
C744 C 0.73413 0.11193 0.73506 0.0
C745 C 0.75259 0.12981 0.73501 0.0
C746 C 0.77693 0.18252 0.76713 0.0
C747 C 0.82935 0.22294 0.73617 0.0
C748 C 0.81 0.20368 0.73731 0.0
C749 C 0.75335 0.14841 0.7388 0.0
C750 C 0.7729 0.16736 0.73851 0.0
H751 H 0.8793 0.24108 0.71986 0.0
H752 H 0.84762 0.20931 0.72315 0.0
H753 H 0.7981 0.21176 0.78949 0.0
H754 H 0.70321 0.1317 0.74512 0.0
H755 H 0.73551 0.16297 0.74517 0.0
C756 C 0.61065 0.73723 0.2583 0.0
C757 C 0.59283 0.71927 0.24929 0.0
C758 C 0.61123 0.75567 0.25623 0.0
C759 C 0.58434 0.78016 0.21308 0.0
H760 H 0.61342 0.82014 0.2965 0.0
C761 C 0.57724 0.85092 0.23675 0.0
C762 C 0.59518 0.86912 0.24362 0.0
C763 C 0.57729 0.83276 0.23561 0.0
C764 C 0.60542 0.80919 0.27277 0.0
H765 H 0.56163 0.70652 0.23116 0.0
H766 H 0.56253 0.73867 0.22844 0.0
H767 H 0.61274 0.78807 0.29843 0.0
H768 H 0.62727 0.88261 0.25419 0.0
H769 H 0.62728 0.85085 0.25234 0.0
H770 H 0.57676 0.80126 0.18794 0.0
C771 C 0.57616 0.73856 0.23631 0.0
C772 C 0.60505 0.79084 0.27381 0.0
C773 C 0.57562 0.72012 0.23812 0.0
C774 C 0.61319 0.86883 0.24891 0.0
C775 C 0.6132 0.85066 0.24806 0.0
C776 C 0.58461 0.79848 0.21222 0.0
C777 C 0.59398 0.75654 0.24538 0.0
C778 C 0.5945 0.77611 0.24399 0.0
C779 C 0.59524 0.83246 0.24161 0.0
C780 C 0.59515 0.81315 0.24206 0.0
H781 H 0.62421 0.73709 0.26672 0.0
H782 H 0.62528 0.76928 0.26277 0.0
H783 H 0.57635 0.76926 0.18929 0.0
H784 H 0.56313 0.85067 0.23252 0.0
H785 H 0.5632 0.81891 0.23092 0.0
C786 C 0.85127 0.57813 0.74491 0.0
C787 C 0.86915 0.5931 0.76284 0.0
C788 C 0.83386 0.57953 0.74628 0.0
C789 C 0.81611 0.61555 0.75774 0.0
H790 H 0.76523 0.568 0.7839 0.0
C791 C 0.74251 0.61786 0.77699 0.0
C792 C 0.72515 0.60189 0.75951 0.0
C793 C 0.76025 0.61705 0.77944 0.0
C794 C 0.77929 0.58136 0.77617 0.0
H795 H 0.88285 0.62135 0.796 0.0
H796 H 0.85235 0.62378 0.79829 0.0
H797 H 0.79602 0.56616 0.78401 0.0
H798 H 0.71278 0.57258 0.73081 0.0
H799 H 0.74376 0.57133 0.73449 0.0
H800 H 0.79935 0.63068 0.74925 0.0
C801 C 0.85189 0.61102 0.78308 0.0
C802 C 0.7969 0.58031 0.77628 0.0
C803 C 0.8693 0.60957 0.78191 0.0
C804 C 0.72587 0.5851 0.74462 0.0
C805 C 0.7436 0.58432 0.74695 0.0
C806 C 0.79846 0.61659 0.75745 0.0
C807 C 0.83398 0.59596 0.76542 0.0
C808 C 0.81545 0.59734 0.76676 0.0
C809 C 0.76099 0.60028 0.76439 0.0
C810 C 0.77984 0.59945 0.76634 0.0
H811 H 0.85066 0.56526 0.72992 0.0
H812 H 0.82033 0.56784 0.73195 0.0
H813 H 0.83019 0.62886 0.74987 0.0
H814 H 0.7424 0.63097 0.78888 0.0
H815 H 0.77334 0.62948 0.79347 0.0
C816 C 0.26326 0.85605 0.23462 0.0
C817 C 0.26444 0.87422 0.24634 0.0
C818 C 0.24464 0.83837 0.23234 0.0
C819 C 0.19265 0.81554 0.27069 0.0
H820 H 0.18117 0.77712 0.18356 0.0
C821 C 0.11444 0.74529 0.24955 0.0
C822 C 0.11429 0.72715 0.24267 0.0
C823 C 0.13247 0.76363 0.24789 0.0
C824 C 0.18423 0.78767 0.20819 0.0
H825 H 0.24702 0.88819 0.26413 0.0
H826 H 0.21457 0.85744 0.25956 0.0
H827 H 0.21336 0.80852 0.18458 0.0
H828 H 0.13284 0.714 0.22796 0.0
H829 H 0.16425 0.746 0.2252 0.0
H830 H 0.16354 0.79468 0.29431 0.0
C831 C 0.22803 0.85676 0.25285 0.0
C832 C 0.20266 0.80561 0.20883 0.0
C833 C 0.24663 0.87441 0.25528 0.0
C834 C 0.13245 0.72772 0.23346 0.0
C835 C 0.15043 0.74605 0.2316 0.0
C836 C 0.17421 0.79765 0.26995 0.0
C837 C 0.22683 0.83853 0.24159 0.0
C838 C 0.2071 0.81969 0.24023 0.0
C839 C 0.15064 0.76417 0.23909 0.0
C840 C 0.16987 0.78349 0.23884 0.0
H841 H 0.27672 0.85542 0.22763 0.0
H842 H 0.24423 0.82451 0.22406 0.0
H843 H 0.19574 0.82593 0.29566 0.0
H844 H 0.10069 0.74535 0.25662 0.0
H845 H 0.13218 0.7774 0.25338 0.0
C846 C 0.37332 0.25354 0.73106 0.0
C847 C 0.3916 0.27164 0.73585 0.0
C848 C 0.37293 0.23516 0.73058 0.0
C849 C 0.40538 0.21315 0.71328 0.0
H850 H 0.36282 0.16707 0.76974 0.0
C851 C 0.40664 0.13941 0.73834 0.0
C852 C 0.38851 0.12137 0.7317 0.0
C853 C 0.40704 0.15779 0.7384 0.0
C854 C 0.37468 0.17976 0.7535 0.0
H855 H 0.42378 0.28467 0.74431 0.0
H856 H 0.42304 0.25258 0.74406 0.0
H857 H 0.36349 0.19917 0.77122 0.0
H858 H 0.35661 0.10845 0.71969 0.0
H859 H 0.35735 0.14057 0.7197 0.0
H860 H 0.41663 0.19373 0.69583 0.0
C861 C 0.40906 0.25261 0.74 0.0
C862 C 0.37506 0.19813 0.75432 0.0
C863 C 0.40946 0.27099 0.74038 0.0
C864 C 0.37081 0.12208 0.72496 0.0
C865 C 0.3712 0.14045 0.72519 0.0
C866 C 0.40504 0.1948 0.71259 0.0
C867 C 0.3908 0.23451 0.73498 0.0
C868 C 0.39041 0.21501 0.7342 0.0
C869 C 0.38931 0.15848 0.73199 0.0
C870 C 0.38967 0.17793 0.73266 0.0
H871 H 0.35931 0.25355 0.72736 0.0
H872 H 0.35866 0.22149 0.72614 0.0
H873 H 0.41722 0.2258 0.69694 0.0
H874 H 0.42054 0.13935 0.74367 0.0
H875 H 0.42118 0.17144 0.74411 0.0
loop_
_geom_bond_atom_site_label_1
_geom_bond_atom_site_label_2
_geom_bond_distance
_geom_bond_site_symmetry_2
_ccdc_geom_bond_type
C0 O1 1.160 . S
C0 O7 1.185 . S
O1 C0 1.160 . S
O2 Zn3 1.899 . S
O2 C10 1.284 . S
Zn3 O2 1.899 . S
Zn3 O4 2.032 . S
Zn3 O7 2.086 . S
Zn3 O12 1.977 . S
O4 Zn3 2.032 . S
O4 C8 1.278 . S
C5 O6 1.203 . S
C5 O12 1.267 . S
O6 C5 1.203 . S
O7 C0 1.185 . S
O7 Zn3 2.086 . S
C8 O4 1.278 . S
C8 O9 1.211 . S
O9 C8 1.211 . S
C10 O2 1.284 . S
C10 O11 1.273 . S
O11 C10 1.273 . S
O12 Zn3 1.977 . S
O12 C5 1.267 . S
C13 O14 1.160 . S
C13 O20 1.185 . S
O14 C13 1.160 . S
O15 Zn16 1.899 . S
O15 C23 1.284 . S
Zn16 O15 1.899 . S
Zn16 O17 2.032 . S
Zn16 O20 2.086 . S
Zn16 O25 1.977 . S
O17 Zn16 2.032 . S
O17 C21 1.278 . S
C18 O19 1.203 . S
C18 O25 1.267 . S
O19 C18 1.203 . S
O20 C13 1.185 . S
O20 Zn16 2.086 . S
C21 O17 1.278 . S
C21 O22 1.211 . S
O22 C21 1.211 . S
C23 O15 1.284 . S
C23 O24 1.273 . S
O24 C23 1.273 . S
O25 Zn16 1.977 . S
O25 C18 1.267 . S
C26 O27 1.160 . S
C26 O33 1.185 . S
O27 C26 1.160 . S
O28 Zn29 1.899 . S
O28 C36 1.284 . S
Zn29 O28 1.899 . S
Zn29 O30 2.032 . S
Zn29 O33 2.086 . S
Zn29 O38 1.977 . S
O30 Zn29 2.032 . S
O30 C34 1.278 . S
C31 O32 1.203 . S
C31 O38 1.267 . S
O32 C31 1.203 . S
O33 C26 1.185 . S
O33 Zn29 2.086 . S
C34 O30 1.278 . S
C34 O35 1.211 . S
O35 C34 1.211 . S
C36 O28 1.284 . S
C36 O37 1.273 . S
O37 C36 1.273 . S
O38 Zn29 1.977 . S
O38 C31 1.267 . S
C39 O40 1.160 . S
C39 O46 1.185 . S
O40 C39 1.160 . S
O41 Zn42 1.899 . S
O41 C49 1.284 . S
Zn42 O41 1.899 . S
Zn42 O43 2.032 . S
Zn42 O46 2.086 . S
Zn42 O51 1.977 . S
O43 Zn42 2.032 . S
O43 C47 1.278 . S
C44 O45 1.203 . S
C44 O51 1.267 . S
O45 C44 1.203 . S
O46 C39 1.185 . S
O46 Zn42 2.086 . S
C47 O43 1.278 . S
C47 O48 1.211 . S
O48 C47 1.211 . S
C49 O41 1.284 . S
C49 O50 1.273 . S
O50 C49 1.273 . S
O51 Zn42 1.977 . S
O51 C44 1.267 . S
C52 O53 1.160 . S
C52 O59 1.185 . S
O53 C52 1.160 . S
O54 Zn55 1.899 . S
O54 C62 1.284 . S
Zn55 O54 1.899 . S
Zn55 O56 2.032 . S
Zn55 O59 2.086 . S
Zn55 O64 1.977 . S
O56 Zn55 2.032 . S
O56 C60 1.278 . S
C57 O58 1.203 . S
C57 O64 1.267 . S
O58 C57 1.203 . S
O59 C52 1.185 . S
O59 Zn55 2.086 . S
C60 O56 1.278 . S
C60 O61 1.211 . S
O61 C60 1.211 . S
C62 O54 1.284 . S
C62 O63 1.273 . S
O63 C62 1.273 . S
O64 Zn55 1.977 . S
O64 C57 1.267 . S
C65 O66 1.160 . S
C65 O72 1.185 . S
O66 C65 1.160 . S
O67 Zn68 1.899 . S
O67 C75 1.284 . S
Zn68 O67 1.899 . S
Zn68 O69 2.032 . S
Zn68 O72 2.086 . S
Zn68 O77 1.977 . S
O69 Zn68 2.032 . S
O69 C73 1.278 . S
C70 O71 1.203 . S
C70 O77 1.267 . S
O71 C70 1.203 . S
O72 C65 1.185 . S
O72 Zn68 2.086 . S
C73 O69 1.278 . S
C73 O74 1.211 . S
O74 C73 1.211 . S
C75 O67 1.284 . S
C75 O76 1.273 . S
O76 C75 1.273 . S
O77 Zn68 1.977 . S
O77 C70 1.267 . S
C78 O79 1.160 . S
C78 O85 1.185 . S
O79 C78 1.160 . S
O80 Zn81 1.899 . S
O80 C88 1.284 . S
Zn81 O80 1.899 . S
Zn81 O82 2.032 . S
Zn81 O85 2.086 . S
Zn81 O90 1.977 . S
O82 Zn81 2.032 . S
O82 C86 1.278 . S
C83 O84 1.203 . S
C83 O90 1.267 . S
O84 C83 1.203 . S
O85 C78 1.185 . S
O85 Zn81 2.086 . S
C86 O82 1.278 . S
C86 O87 1.211 . S
O87 C86 1.211 . S
C88 O80 1.284 . S
C88 O89 1.273 . S
O89 C88 1.273 . S
O90 Zn81 1.977 . S
O90 C83 1.267 . S
C91 O92 1.160 . S
C91 O98 1.185 . S
O92 C91 1.160 . S
O93 Zn94 1.899 . S
O93 C101 1.284 . S
Zn94 O93 1.899 . S
Zn94 O95 2.032 . S
Zn94 O98 2.086 . S
Zn94 O103 1.977 . S
O95 Zn94 2.032 . S
O95 C99 1.278 . S
C96 O97 1.203 . S
C96 O103 1.267 . S
O97 C96 1.203 . S
O98 C91 1.185 . S
O98 Zn94 2.086 . S
C99 O95 1.278 . S
C99 O100 1.211 . S
O100 C99 1.211 . S
C101 O93 1.284 . S
C101 O102 1.273 . S
O102 C101 1.273 . S
O103 Zn94 1.977 . S
O103 C96 1.267 . S
C104 O105 1.160 . S
C104 O111 1.185 . S
O105 C104 1.160 . S
O106 Zn107 1.899 . S
O106 C114 1.284 . S
Zn107 O106 1.899 . S
Zn107 O108 2.032 . S
Zn107 O111 2.086 . S
Zn107 O116 1.977 . S
O108 Zn107 2.032 . S
O108 C112 1.278 . S
C109 O110 1.203 . S
C109 O116 1.267 . S
O110 C109 1.203 . S
O111 C104 1.185 . S
O111 Zn107 2.086 . S
C112 O108 1.278 . S
C112 O113 1.211 . S
O113 C112 1.211 . S
C114 O106 1.284 . S
C114 O115 1.273 . S
O115 C114 1.273 . S
O116 Zn107 1.977 . S
O116 C109 1.267 . S
C117 O118 1.160 . S
C117 O124 1.185 . S
O118 C117 1.160 . S
O119 Zn120 1.899 . S
O119 C127 1.284 . S
Zn120 O119 1.899 . S
Zn120 O121 2.032 . S
Zn120 O124 2.086 . S
Zn120 O129 1.977 . S
O121 Zn120 2.032 . S
O121 C125 1.278 . S
C122 O123 1.203 . S
C122 O129 1.267 . S
O123 C122 1.203 . S
O124 C117 1.185 . S
O124 Zn120 2.086 . S
C125 O121 1.278 . S
C125 O126 1.211 . S
O126 C125 1.211 . S
C127 O119 1.284 . S
C127 O128 1.273 . S
O128 C127 1.273 . S
O129 Zn120 1.977 . S
O129 C122 1.267 . S
C130 O131 1.160 . S
C130 O137 1.185 . S
O131 C130 1.160 . S
O132 Zn133 1.899 . S
O132 C140 1.284 . S
Zn133 O132 1.899 . S
Zn133 O134 2.032 . S
Zn133 O137 2.086 . S
Zn133 O142 1.977 . S
O134 Zn133 2.032 . S
O134 C138 1.278 . S
C135 O136 1.203 . S
C135 O142 1.267 . S
O136 C135 1.203 . S
O137 C130 1.185 . S
O137 Zn133 2.086 . S
C138 O134 1.278 . S
C138 O139 1.211 . S
O139 C138 1.211 . S
C140 O132 1.284 . S
C140 O141 1.273 . S
O141 C140 1.273 . S
O142 Zn133 1.977 . S
O142 C135 1.267 . S
C143 O144 1.160 . S
C143 O150 1.185 . S
O144 C143 1.160 . S
O145 Zn146 1.899 . S
O145 C153 1.284 . S
Zn146 O145 1.899 . S
Zn146 O147 2.032 . S
Zn146 O150 2.086 . S
Zn146 O155 1.977 . S
O147 Zn146 2.032 . S
O147 C151 1.278 . S
C148 O149 1.203 . S
C148 O155 1.267 . S
O149 C148 1.203 . S
O150 C143 1.185 . S
O150 Zn146 2.086 . S
C151 O147 1.278 . S
C151 O152 1.211 . S
O152 C151 1.211 . S
C153 O145 1.284 . S
C153 O154 1.273 . S
O154 C153 1.273 . S
O155 Zn146 1.977 . S
O155 C148 1.267 . S
C156 C157 1.349 . S
C156 C158 1.327 . S
C156 H181 0.950 . S
C157 C156 1.349 . S
C157 C173 1.349 . S
C158 C156 1.327 . S
C158 C177 1.429 . S
C158 H182 0.950 . S
C159 C176 1.574 1_454 S
C159 C178 1.368 . S
C159 H183 0.949 . S
H160 C164 0.949 . S
C161 C162 1.349 . S
C161 C163 1.327 . S
C161 H184 0.950 . S
C162 C161 1.349 . S
C162 C174 1.349 . S
C163 C161 1.327 . S
C163 C179 1.429 . S
C163 H185 0.950 . S
C164 H160 0.949 . S
C164 C172 1.574 1_656 S
C164 C180 1.368 . S
H165 C173 0.950 . S
H166 C171 0.950 . S
H167 C172 0.949 . S
H168 C174 0.950 . S
H169 C175 0.950 . S
H170 C176 0.949 . S
C171 H166 0.950 . S
C171 C173 1.327 . S
C171 C177 1.429 . S
C172 C164 1.574 1_454 S
C172 H167 0.949 . S
C172 C178 1.368 . S
C173 C157 1.349 . S
C173 H165 0.950 . S
C173 C171 1.327 . S
C174 C162 1.349 . S
C174 H168 0.950 . S
C174 C175 1.327 . S
C175 H169 0.950 . S
C175 C174 1.327 . S
C175 C179 1.429 . S
C176 C159 1.574 1_656 S
C176 H170 0.949 . S
C176 C180 1.368 . S
C177 C158 1.429 . S
C177 C171 1.429 . S
C177 C178 1.523 . S
C178 C159 1.368 . S
C178 C172 1.368 . S
C178 C177 1.523 . S
C179 C163 1.429 . S
C179 C175 1.429 . S
C179 C180 1.523 . S
C180 C164 1.368 . S
C180 C176 1.368 . S
C180 C179 1.523 . S
H181 C156 0.950 . S
H182 C158 0.950 . S
H183 C159 0.949 . S
H184 C161 0.950 . S
H185 C163 0.950 . S
C186 C187 1.349 . S
C186 C188 1.327 . S
C186 H211 0.950 . S
C187 C186 1.349 . S
C187 C203 1.349 . S
C188 C186 1.327 . S
C188 C207 1.429 . S
C188 H212 0.950 . S
C189 C206 1.574 . S
C189 C208 1.368 1_545 S
C189 H213 0.949 . S
H190 C194 0.949 . S
C191 C192 1.349 . S
C191 C193 1.327 . S
C191 H214 0.950 . S
C192 C191 1.349 . S
C192 C204 1.349 . S
C193 C191 1.327 . S
C193 C209 1.429 . S
C193 H215 0.950 . S
C194 H190 0.949 . S
C194 C202 1.574 . S
C194 C210 1.368 1_565 S
H195 C203 0.950 . S
H196 C201 0.950 . S
H197 C202 0.949 . S
H198 C204 0.950 . S
H199 C205 0.950 . S
H200 C206 0.949 . S
C201 H196 0.950 . S
C201 C203 1.327 . S
C201 C207 1.429 . S
C202 C194 1.574 . S
C202 H197 0.949 . S
C202 C208 1.368 . S
C203 C187 1.349 . S
C203 H195 0.950 . S
C203 C201 1.327 . S
C204 C192 1.349 . S
C204 H198 0.950 . S
C204 C205 1.327 . S
C205 H199 0.950 . S
C205 C204 1.327 . S
C205 C209 1.429 . S
C206 C189 1.574 . S
C206 H200 0.949 . S
C206 C210 1.368 . S
C207 C188 1.429 . S
C207 C201 1.429 . S
C207 C208 1.523 . S
C208 C189 1.368 1_565 S
C208 C202 1.368 . S
C208 C207 1.523 . S
C209 C193 1.429 . S
C209 C205 1.429 . S
C209 C210 1.523 . S
C210 C194 1.368 1_545 S
C210 C206 1.368 . S
C210 C209 1.523 . S
H211 C186 0.950 . S
H212 C188 0.950 . S
H213 C189 0.949 . S
H214 C191 0.950 . S
H215 C193 0.950 . S
C216 C217 1.349 . S
C216 C218 1.327 . S
C216 H241 0.950 . S
C217 C216 1.349 . S
C217 C233 1.349 . S
C218 C216 1.327 . S
C218 C237 1.429 . S
C218 H242 0.950 . S
C219 C236 1.574 1_554 S
C219 C238 1.368 . S
C219 H243 0.949 . S
H220 C224 0.949 . S
C221 C222 1.349 . S
C221 C223 1.327 . S
C221 H244 0.950 . S
C222 C221 1.349 . S
C222 C234 1.349 . S
C223 C221 1.327 . S
C223 C239 1.429 . S
C223 H245 0.950 . S
C224 H220 0.949 . S
C224 C232 1.574 1_556 S
C224 C240 1.368 . S
H225 C233 0.950 . S
H226 C231 0.950 . S
H227 C232 0.949 . S
H228 C234 0.950 . S
H229 C235 0.950 . S
H230 C236 0.949 . S
C231 H226 0.950 . S
C231 C233 1.327 . S
C231 C237 1.429 . S
C232 C224 1.574 1_554 S
C232 H227 0.949 . S
C232 C238 1.368 . S
C233 C217 1.349 . S
C233 H225 0.950 . S
C233 C231 1.327 . S
C234 C222 1.349 . S
C234 H228 0.950 . S
C234 C235 1.327 . S
C235 H229 0.950 . S
C235 C234 1.327 . S
C235 C239 1.429 . S
C236 C219 1.574 1_556 S
C236 H230 0.949 . S
C236 C240 1.368 . S
C237 C218 1.429 . S
C237 C231 1.429 . S
C237 C238 1.523 . S
C238 C219 1.368 . S
C238 C232 1.368 . S
C238 C237 1.523 . S
C239 C223 1.429 . S
C239 C235 1.429 . S
C239 C240 1.523 . S
C240 C224 1.368 . S
C240 C236 1.368 . S
C240 C239 1.523 . S
H241 C216 0.950 . S
H242 C218 0.950 . S
H243 C219 0.949 . S
H244 C221 0.950 . S
H245 C223 0.950 . S
C246 C247 1.349 . S
C246 C248 1.327 . S
C246 H271 0.950 . S
C247 C246 1.349 . S
C247 C263 1.349 . S
C248 C246 1.327 . S
C248 C267 1.429 . S
C248 H272 0.950 . S
C249 C266 1.574 1_455 S
C249 C268 1.368 . S
C249 H273 0.949 . S
H250 C254 0.949 . S
C251 C252 1.349 . S
C251 C253 1.327 . S
C251 H274 0.950 . S
C252 C251 1.349 . S
C252 C264 1.349 . S
C253 C251 1.327 . S
C253 C269 1.429 . S
C253 H275 0.950 . S
C254 H250 0.949 . S
C254 C262 1.574 1_655 S
C254 C270 1.368 . S
H255 C263 0.950 . S
H256 C261 0.950 . S
H257 C262 0.949 . S
H258 C264 0.950 . S
H259 C265 0.950 . S
H260 C266 0.949 . S
C261 H256 0.950 . S
C261 C263 1.327 . S
C261 C267 1.429 . S
C262 C254 1.574 1_455 S
C262 H257 0.949 . S
C262 C268 1.368 . S
C263 C247 1.349 . S
C263 H255 0.950 . S
C263 C261 1.327 . S
C264 C252 1.349 . S
C264 H258 0.950 . S
C264 C265 1.327 . S
C265 H259 0.950 . S
C265 C264 1.327 . S
C265 C269 1.429 . S
C266 C249 1.574 1_655 S
C266 H260 0.949 . S
C266 C270 1.368 . S
C267 C248 1.429 . S
C267 C261 1.429 . S
C267 C268 1.523 . S
C268 C249 1.368 . S
C268 C262 1.368 . S
C268 C267 1.523 . S
C269 C253 1.429 . S
C269 C265 1.429 . S
C269 C270 1.523 . S
C270 C254 1.368 . S
C270 C266 1.368 . S
C270 C269 1.523 . S
H271 C246 0.950 . S
H272 C248 0.950 . S
H273 C249 0.949 . S
H274 C251 0.950 . S
H275 C253 0.950 . S
C276 C277 1.349 . S
C276 C278 1.327 . S
C276 H301 0.950 . S
C277 C276 1.349 . S
C277 C293 1.349 . S
C278 C276 1.327 . S
C278 C297 1.429 . S
C278 H302 0.950 . S
C279 C296 1.574 1_556 S
C279 C298 1.368 . S
C279 H303 0.949 . S
H280 C284 0.949 . S
C281 C282 1.349 . S
C281 C283 1.327 . S
C281 H304 0.950 . S
C282 C281 1.349 . S
C282 C294 1.349 . S
C283 C281 1.327 . S
C283 C299 1.429 . S
C283 H305 0.950 . S
C284 H280 0.949 . S
C284 C292 1.574 1_554 S
C284 C300 1.368 . S
H285 C293 0.950 . S
H286 C291 0.950 . S
H287 C292 0.949 . S
H288 C294 0.950 . S
H289 C295 0.950 . S
H290 C296 0.949 . S
C291 H286 0.950 . S
C291 C293 1.327 . S
C291 C297 1.429 . S
C292 C284 1.574 1_556 S
C292 H287 0.949 . S
C292 C298 1.368 1_565 S
C293 C277 1.349 . S
C293 H285 0.950 . S
C293 C291 1.327 . S
C294 C282 1.349 . S
C294 H288 0.950 . S
C294 C295 1.327 . S
C295 H289 0.950 . S
C295 C294 1.327 . S
C295 C299 1.429 . S
C296 C279 1.574 1_554 S
C296 H290 0.949 . S
C296 C300 1.368 1_545 S
C297 C278 1.429 . S
C297 C291 1.429 . S
C297 C298 1.523 . S
C298 C279 1.368 . S
C298 C292 1.368 1_545 S
C298 C297 1.523 . S
C299 C283 1.429 . S
C299 C295 1.429 . S
C299 C300 1.523 . S
C300 C284 1.368 . S
C300 C296 1.368 1_565 S
C300 C299 1.523 . S
H301 C276 0.950 . S
H302 C278 0.950 . S
H303 C279 0.949 . S
H304 C281 0.950 . S
H305 C283 0.950 . S
C306 C307 1.349 . S
C306 C308 1.327 . S
C306 H331 0.950 . S
C307 C306 1.349 . S
C307 C323 1.349 . S
C308 C306 1.327 . S
C308 C327 1.429 . S
C308 H332 0.950 . S
C309 C326 1.574 . S
C309 C328 1.368 . S
C309 H333 0.949 . S
H310 C314 0.949 . S
C311 C312 1.349 . S
C311 C313 1.327 . S
C311 H334 0.950 . S
C312 C311 1.349 . S
C312 C324 1.349 . S
C313 C311 1.327 . S
C313 C329 1.429 . S
C313 H335 0.950 . S
C314 H310 0.949 . S
C314 C322 1.574 . S
C314 C330 1.368 . S
H315 C323 0.950 . S
H316 C321 0.950 . S
H317 C322 0.949 . S
H318 C324 0.950 . S
H319 C325 0.950 . S
H320 C326 0.949 . S
C321 H316 0.950 . S
C321 C323 1.327 . S
C321 C327 1.429 . S
C322 C314 1.574 . S
C322 H317 0.949 . S
C322 C328 1.368 . S
C323 C307 1.349 . S
C323 H315 0.950 . S
C323 C321 1.327 . S
C324 C312 1.349 . S
C324 H318 0.950 . S
C324 C325 1.327 . S
C325 H319 0.950 . S
C325 C324 1.327 . S
C325 C329 1.429 . S
C326 C309 1.574 . S
C326 H320 0.949 . S
C326 C330 1.368 . S
C327 C308 1.429 . S
C327 C321 1.429 . S
C327 C328 1.523 . S
C328 C309 1.368 . S
C328 C322 1.368 . S
C328 C327 1.523 . S
C329 C313 1.429 . S
C329 C325 1.429 . S
C329 C330 1.523 . S
C330 C314 1.368 . S
C330 C326 1.368 . S
C330 C329 1.523 . S
H331 C306 0.950 . S
H332 C308 0.950 . S
H333 C309 0.949 . S
H334 C311 0.950 . S
H335 C313 0.950 . S
C336 C337 1.349 . S
C336 C338 1.327 . S
C336 H361 0.950 . S
C337 C336 1.349 . S
C337 C353 1.349 . S
C338 C336 1.327 . S
C338 C357 1.429 . S
C338 H362 0.950 . S
C339 C356 1.574 1_656 S
C339 C358 1.368 . S
C339 H363 0.949 . S
H340 C344 0.949 . S
C341 C342 1.349 . S
C341 C343 1.327 . S
C341 H364 0.950 . S
C342 C341 1.349 . S
C342 C354 1.349 . S
C343 C341 1.327 . S
C343 C359 1.429 . S
C343 H365 0.950 . S
C344 H340 0.949 . S
C344 C352 1.574 1_454 S
C344 C360 1.368 . S
H345 C353 0.950 . S
H346 C351 0.950 . S
H347 C352 0.949 . S
H348 C354 0.950 . S
H349 C355 0.950 . S
H350 C356 0.949 . S
C351 H346 0.950 . S
C351 C353 1.327 . S
C351 C357 1.429 . S
C352 C344 1.574 1_656 S
C352 H347 0.949 . S
C352 C358 1.368 . S
C353 C337 1.349 . S
C353 H345 0.950 . S
C353 C351 1.327 . S
C354 C342 1.349 . S
C354 H348 0.950 . S
C354 C355 1.327 . S
C355 H349 0.950 . S
C355 C354 1.327 . S
C355 C359 1.429 . S
C356 C339 1.574 1_454 S
C356 H350 0.949 . S
C356 C360 1.368 . S
C357 C338 1.429 . S
C357 C351 1.429 . S
C357 C358 1.523 . S
C358 C339 1.368 . S
C358 C352 1.368 . S
C358 C357 1.523 . S
C359 C343 1.429 . S
C359 C355 1.429 . S
C359 C360 1.523 . S
C360 C344 1.368 . S
C360 C356 1.368 . S
C360 C359 1.523 . S
H361 C336 0.950 . S
H362 C338 0.950 . S
H363 C339 0.949 . S
H364 C341 0.950 . S
H365 C343 0.950 . S
C366 C367 1.349 . S
C366 C368 1.327 . S
C366 H391 0.950 . S
C367 C366 1.349 . S
C367 C383 1.349 . S
C368 C366 1.327 . S
C368 C387 1.429 . S
C368 H392 0.950 . S
C369 C386 1.574 . S
C369 C388 1.368 . S
C369 H393 0.949 . S
H370 C374 0.949 . S
C371 C372 1.349 . S
C371 C373 1.327 . S
C371 H394 0.950 . S
C372 C371 1.349 . S
C372 C384 1.349 . S
C373 C371 1.327 . S
C373 C389 1.429 . S
C373 H395 0.950 . S
C374 H370 0.949 . S
C374 C382 1.574 . S
C374 C390 1.368 . S
H375 C383 0.950 . S
H376 C381 0.950 . S
H377 C382 0.949 . S
H378 C384 0.950 . S
H379 C385 0.950 . S
H380 C386 0.949 . S
C381 H376 0.950 . S
C381 C383 1.327 . S
C381 C387 1.429 . S
C382 C374 1.574 . S
C382 H377 0.949 . S
C382 C388 1.368 1_545 S
C383 C367 1.349 . S
C383 H375 0.950 . S
C383 C381 1.327 . S
C384 C372 1.349 . S
C384 H378 0.950 . S
C384 C385 1.327 . S
C385 H379 0.950 . S
C385 C384 1.327 . S
C385 C389 1.429 . S
C386 C369 1.574 . S
C386 H380 0.949 . S
C386 C390 1.368 1_565 S
C387 C368 1.429 . S
C387 C381 1.429 . S
C387 C388 1.523 . S
C388 C369 1.368 . S
C388 C382 1.368 1_565 S
C388 C387 1.523 . S
C389 C373 1.429 . S
C389 C385 1.429 . S
C389 C390 1.523 . S
C390 C374 1.368 . S
C390 C386 1.368 1_545 S
C390 C389 1.523 . S
H391 C366 0.950 . S
H392 C368 0.950 . S
H393 C369 0.949 . S
H394 C371 0.950 . S
H395 C373 0.950 . S
C396 C397 1.349 . S
C396 C398 1.327 . S
C396 H421 0.950 . S
C397 C396 1.349 . S
C397 C413 1.349 . S
C398 C396 1.327 . S
C398 C417 1.429 . S
C398 H422 0.950 . S
C399 C416 1.574 1_556 S
C399 C418 1.368 . S
C399 H423 0.949 . S
H400 C404 0.949 . S
C401 C402 1.349 . S
C401 C403 1.327 . S
C401 H424 0.950 . S
C402 C401 1.349 . S
C402 C414 1.349 . S
C403 C401 1.327 . S
C403 C419 1.429 . S
C403 H425 0.950 . S
C404 H400 0.949 . S
C404 C412 1.574 1_554 S
C404 C420 1.368 . S
H405 C413 0.950 . S
H406 C411 0.950 . S
H407 C412 0.949 . S
H408 C414 0.950 . S
H409 C415 0.950 . S
H410 C416 0.949 . S
C411 H406 0.950 . S
C411 C413 1.327 . S
C411 C417 1.429 . S
C412 C404 1.574 1_556 S
C412 H407 0.949 . S
C412 C418 1.368 . S
C413 C397 1.349 . S
C413 H405 0.950 . S
C413 C411 1.327 . S
C414 C402 1.349 . S
C414 H408 0.950 . S
C414 C415 1.327 . S
C415 H409 0.950 . S
C415 C414 1.327 . S
C415 C419 1.429 . S
C416 C399 1.574 1_554 S
C416 H410 0.949 . S
C416 C420 1.368 . S
C417 C398 1.429 . S
C417 C411 1.429 . S
C417 C418 1.523 . S
C418 C399 1.368 . S
C418 C412 1.368 . S
C418 C417 1.523 . S
C419 C403 1.429 . S
C419 C415 1.429 . S
C419 C420 1.523 . S
C420 C404 1.368 . S
C420 C416 1.368 . S
C420 C419 1.523 . S
H421 C396 0.950 . S
H422 C398 0.950 . S
H423 C399 0.949 . S
H424 C401 0.950 . S
H425 C403 0.950 . S
C426 C427 1.349 . S
C426 C428 1.327 . S
C426 H451 0.950 . S
C427 C426 1.349 . S
C427 C443 1.349 . S
C428 C426 1.327 . S
C428 C447 1.429 . S
C428 H452 0.950 . S
C429 C446 1.574 . S
C429 C448 1.368 1_455 S
C429 H453 0.949 . S
H430 C434 0.949 . S
C431 C432 1.349 . S
C431 C433 1.327 . S
C431 H454 0.950 . S
C432 C431 1.349 . S
C432 C444 1.349 . S
C433 C431 1.327 . S
C433 C449 1.429 . S
C433 H455 0.950 . S
C434 H430 0.949 . S
C434 C442 1.574 . S
C434 C450 1.368 1_655 S
H435 C443 0.950 . S
H436 C441 0.950 1_455 S
H437 C442 0.949 . S
H438 C444 0.950 . S
H439 C445 0.950 1_655 S
H440 C446 0.949 . S
C441 H436 0.950 1_655 S
C441 C443 1.327 . S
C441 C447 1.429 . S
C442 C434 1.574 . S
C442 H437 0.949 . S
C442 C448 1.368 . S
C443 C427 1.349 . S
C443 H435 0.950 . S
C443 C441 1.327 . S
C444 C432 1.349 . S
C444 H438 0.950 . S
C444 C445 1.327 . S
C445 H439 0.950 1_455 S
C445 C444 1.327 . S
C445 C449 1.429 . S
C446 C429 1.574 . S
C446 H440 0.949 . S
C446 C450 1.368 . S
C447 C428 1.429 . S
C447 C441 1.429 . S
C447 C448 1.523 . S
C448 C429 1.368 1_655 S
C448 C442 1.368 . S
C448 C447 1.523 . S
C449 C433 1.429 . S
C449 C445 1.429 . S
C449 C450 1.523 . S
C450 C434 1.368 1_455 S
C450 C446 1.368 . S
C450 C449 1.523 . S
H451 C426 0.950 . S
H452 C428 0.950 . S
H453 C429 0.949 . S
H454 C431 0.950 . S
H455 C433 0.950 . S
C456 C457 1.349 . S
C456 C458 1.327 . S
C456 H481 0.950 . S
C457 C456 1.349 . S
C457 C473 1.349 . S
C458 C456 1.327 . S
C458 C477 1.429 . S
C458 H482 0.950 . S
C459 C476 1.574 1_556 S
C459 C478 1.368 . S
C459 H483 0.949 . S
H460 C464 0.949 . S
C461 C462 1.349 . S
C461 C463 1.327 . S
C461 H484 0.950 . S
C462 C461 1.349 . S
C462 C474 1.349 . S
C463 C461 1.327 . S
C463 C479 1.429 . S
C463 H485 0.950 . S
C464 H460 0.949 . S
C464 C472 1.574 1_554 S
C464 C480 1.368 . S
H465 C473 0.950 . S
H466 C471 0.950 . S
H467 C472 0.949 . S
H468 C474 0.950 . S
H469 C475 0.950 . S
H470 C476 0.949 . S
C471 H466 0.950 . S
C471 C473 1.327 . S
C471 C477 1.429 . S
C472 C464 1.574 1_556 S
C472 H467 0.949 . S
C472 C478 1.368 1_565 S
C473 C457 1.349 . S
C473 H465 0.950 . S
C473 C471 1.327 . S
C474 C462 1.349 . S
C474 H468 0.950 . S
C474 C475 1.327 . S
C475 H469 0.950 . S
C475 C474 1.327 . S
C475 C479 1.429 . S
C476 C459 1.574 1_554 S
C476 H470 0.949 . S
C476 C480 1.368 1_545 S
C477 C458 1.429 . S
C477 C471 1.429 . S
C477 C478 1.523 . S
C478 C459 1.368 . S
C478 C472 1.368 1_545 S
C478 C477 1.523 . S
C479 C463 1.429 . S
C479 C475 1.429 . S
C479 C480 1.523 . S
C480 C464 1.368 . S
C480 C476 1.368 1_565 S
C480 C479 1.523 . S
H481 C456 0.950 . S
H482 C458 0.950 . S
H483 C459 0.949 . S
H484 C461 0.950 . S
H485 C463 0.950 . S
C486 C487 1.349 . S
C486 C488 1.327 . S
C486 H511 0.950 . S
C487 C486 1.349 . S
C487 C503 1.349 . S
C488 C486 1.327 . S
C488 C507 1.429 . S
C488 H512 0.950 . S
C489 C506 1.574 . S
C489 C508 1.368 . S
C489 H513 0.949 . S
H490 C494 0.949 . S
C491 C492 1.349 . S
C491 C493 1.327 . S
C491 H514 0.950 . S
C492 C491 1.349 . S
C492 C504 1.349 . S
C493 C491 1.327 . S
C493 C509 1.429 . S
C493 H515 0.950 . S
C494 H490 0.949 . S
C494 C502 1.574 . S
C494 C510 1.368 . S
H495 C503 0.950 . S
H496 C501 0.950 . S
H497 C502 0.949 . S
H498 C504 0.950 . S
H499 C505 0.950 . S
H500 C506 0.949 . S
C501 H496 0.950 . S
C501 C503 1.327 . S
C501 C507 1.429 . S
C502 C494 1.574 . S
C502 H497 0.949 . S
C502 C508 1.368 . S
C503 C487 1.349 . S
C503 H495 0.950 . S
C503 C501 1.327 . S
C504 C492 1.349 . S
C504 H498 0.950 . S
C504 C505 1.327 . S
C505 H499 0.950 . S
C505 C504 1.327 . S
C505 C509 1.429 . S
C506 C489 1.574 . S
C506 H500 0.949 . S
C506 C510 1.368 . S
C507 C488 1.429 . S
C507 C501 1.429 . S
C507 C508 1.523 . S
C508 C489 1.368 . S
C508 C502 1.368 . S
C508 C507 1.523 . S
C509 C493 1.429 . S
C509 C505 1.429 . S
C509 C510 1.523 . S
C510 C494 1.368 . S
C510 C506 1.368 . S
C510 C509 1.523 . S
H511 C486 0.950 . S
H512 C488 0.950 . S
H513 C489 0.949 . S
H514 C491 0.950 . S
H515 C493 0.950 . S
C516 C517 1.349 . S
C516 C518 1.327 . S
C516 H541 0.950 . S
C517 C516 1.349 . S
C517 C533 1.349 . S
C518 C516 1.327 . S
C518 C537 1.429 . S
C518 H542 0.950 . S
C519 C536 1.574 . S
C519 C538 1.368 . S
C519 H543 0.949 . S
H520 C524 0.949 . S
C521 C522 1.349 . S
C521 C523 1.327 . S
C521 H544 0.950 . S
C522 C521 1.349 . S
C522 C534 1.349 . S
C523 C521 1.327 . S
C523 C539 1.429 . S
C523 H545 0.950 . S
C524 H520 0.949 . S
C524 C532 1.574 . S
C524 C540 1.368 . S
H525 C533 0.950 . S
H526 C531 0.950 . S
H527 C532 0.949 . S
H528 C534 0.950 . S
H529 C535 0.950 . S
H530 C536 0.949 . S
C531 H526 0.950 . S
C531 C533 1.327 . S
C531 C537 1.429 . S
C532 C524 1.574 . S
C532 H527 0.949 . S
C532 C538 1.368 . S
C533 C517 1.349 . S
C533 H525 0.950 . S
C533 C531 1.327 . S
C534 C522 1.349 . S
C534 H528 0.950 . S
C534 C535 1.327 . S
C535 H529 0.950 . S
C535 C534 1.327 . S
C535 C539 1.429 . S
C536 C519 1.574 . S
C536 H530 0.949 . S
C536 C540 1.368 . S
C537 C518 1.429 . S
C537 C531 1.429 . S
C537 C538 1.523 . S
C538 C519 1.368 . S
C538 C532 1.368 . S
C538 C537 1.523 . S
C539 C523 1.429 . S
C539 C535 1.429 . S
C539 C540 1.523 . S
C540 C524 1.368 . S
C540 C536 1.368 . S
C540 C539 1.523 . S
H541 C516 0.950 . S
H542 C518 0.950 . S
H543 C519 0.949 . S
H544 C521 0.950 . S
H545 C523 0.950 . S
C546 C547 1.349 . S
C546 C548 1.327 . S
C546 H571 0.950 . S
C547 C546 1.349 . S
C547 C563 1.349 . S
C548 C546 1.327 . S
C548 C567 1.429 . S
C548 H572 0.950 . S
C549 C566 1.574 . S
C549 C568 1.368 . S
C549 H573 0.949 . S
H550 C554 0.949 . S
C551 C552 1.349 . S
C551 C553 1.327 . S
C551 H574 0.950 . S
C552 C551 1.349 . S
C552 C564 1.349 . S
C553 C551 1.327 . S
C553 C569 1.429 . S
C553 H575 0.950 . S
C554 H550 0.949 . S
C554 C562 1.574 . S
C554 C570 1.368 . S
H555 C563 0.950 . S
H556 C561 0.950 . S
H557 C562 0.949 . S
H558 C564 0.950 . S
H559 C565 0.950 . S
H560 C566 0.949 . S
C561 H556 0.950 . S
C561 C563 1.327 . S
C561 C567 1.429 . S
C562 C554 1.574 . S
C562 H557 0.949 . S
C562 C568 1.368 . S
C563 C547 1.349 . S
C563 H555 0.950 . S
C563 C561 1.327 . S
C564 C552 1.349 . S
C564 H558 0.950 . S
C564 C565 1.327 . S
C565 H559 0.950 . S
C565 C564 1.327 . S
C565 C569 1.429 . S
C566 C549 1.574 . S
C566 H560 0.949 . S
C566 C570 1.368 . S
C567 C548 1.429 . S
C567 C561 1.429 . S
C567 C568 1.523 . S
C568 C549 1.368 . S
C568 C562 1.368 . S
C568 C567 1.523 . S
C569 C553 1.429 . S
C569 C565 1.429 . S
C569 C570 1.523 . S
C570 C554 1.368 . S
C570 C566 1.368 . S
C570 C569 1.523 . S
H571 C546 0.950 . S
H572 C548 0.950 . S
H573 C549 0.949 . S
H574 C551 0.950 . S
H575 C553 0.950 . S
C576 C577 1.349 . S
C576 C578 1.327 . S
C576 H601 0.950 . S
C577 C576 1.349 . S
C577 C593 1.349 . S
C578 C576 1.327 . S
C578 C597 1.429 . S
C578 H602 0.950 . S
C579 C596 1.574 . S
C579 C598 1.368 . S
C579 H603 0.949 . S
H580 C584 0.949 . S
C581 C582 1.349 . S
C581 C583 1.327 . S
C581 H604 0.950 . S
C582 C581 1.349 . S
C582 C594 1.349 . S
C583 C581 1.327 . S
C583 C599 1.429 . S
C583 H605 0.950 . S
C584 H580 0.949 . S
C584 C592 1.574 . S
C584 C600 1.368 . S
H585 C593 0.950 . S
H586 C591 0.950 . S
H587 C592 0.949 . S
H588 C594 0.950 . S
H589 C595 0.950 . S
H590 C596 0.949 . S
C591 H586 0.950 . S
C591 C593 1.327 . S
C591 C597 1.429 . S
C592 C584 1.574 . S
C592 H587 0.949 . S
C592 C598 1.368 . S
C593 C577 1.349 . S
C593 H585 0.950 . S
C593 C591 1.327 . S
C594 C582 1.349 . S
C594 H588 0.950 . S
C594 C595 1.327 . S
C595 H589 0.950 . S
C595 C594 1.327 . S
C595 C599 1.429 . S
C596 C579 1.574 . S
C596 H590 0.949 . S
C596 C600 1.368 . S
C597 C578 1.429 . S
C597 C591 1.429 . S
C597 C598 1.523 . S
C598 C579 1.368 . S
C598 C592 1.368 . S
C598 C597 1.523 . S
C599 C583 1.429 . S
C599 C595 1.429 . S
C599 C600 1.523 . S
C600 C584 1.368 . S
C600 C596 1.368 . S
C600 C599 1.523 . S
H601 C576 0.950 . S
H602 C578 0.950 . S
H603 C579 0.949 . S
H604 C581 0.950 . S
H605 C583 0.950 . S
C606 C607 1.349 . S
C606 C608 1.327 . S
C606 H631 0.950 . S
C607 C606 1.349 . S
C607 C623 1.349 . S
C608 C606 1.327 . S
C608 C627 1.429 . S
C608 H632 0.950 . S
C609 C626 1.574 . S
C609 C628 1.368 . S
C609 H633 0.949 . S
H610 C614 0.949 . S
C611 C612 1.349 . S
C611 C613 1.327 . S
C611 H634 0.950 . S
C612 C611 1.349 . S
C612 C624 1.349 . S
C613 C611 1.327 . S
C613 C629 1.429 . S
C613 H635 0.950 . S
C614 H610 0.949 . S
C614 C622 1.574 . S
C614 C630 1.368 . S
H615 C623 0.950 . S
H616 C621 0.950 . S
H617 C622 0.949 . S
H618 C624 0.950 . S
H619 C625 0.950 . S
H620 C626 0.949 . S
C621 H616 0.950 . S
C621 C623 1.327 . S
C621 C627 1.429 . S
C622 C614 1.574 . S
C622 H617 0.949 . S
C622 C628 1.368 . S
C623 C607 1.349 . S
C623 H615 0.950 . S
C623 C621 1.327 . S
C624 C612 1.349 . S
C624 H618 0.950 . S
C624 C625 1.327 . S
C625 H619 0.950 . S
C625 C624 1.327 . S
C625 C629 1.429 . S
C626 C609 1.574 . S
C626 H620 0.949 . S
C626 C630 1.368 . S
C627 C608 1.429 . S
C627 C621 1.429 . S
C627 C628 1.523 . S
C628 C609 1.368 . S
C628 C622 1.368 . S
C628 C627 1.523 . S
C629 C613 1.429 . S
C629 C625 1.429 . S
C629 C630 1.523 . S
C630 C614 1.368 . S
C630 C626 1.368 . S
C630 C629 1.523 . S
H631 C606 0.950 . S
H632 C608 0.950 . S
H633 C609 0.949 . S
H634 C611 0.950 . S
H635 C613 0.950 . S
C636 C637 1.349 . S
C636 C638 1.327 . S
C636 H661 0.950 . S
C637 C636 1.349 . S
C637 C653 1.349 . S
C638 C636 1.327 . S
C638 C657 1.429 . S
C638 H662 0.950 . S
C639 C656 1.574 . S
C639 C658 1.368 . S
C639 H663 0.949 . S
H640 C644 0.949 . S
C641 C642 1.349 . S
C641 C643 1.327 . S
C641 H664 0.950 . S
C642 C641 1.349 . S
C642 C654 1.349 . S
C643 C641 1.327 . S
C643 C659 1.429 . S
C643 H665 0.950 . S
C644 H640 0.949 . S
C644 C652 1.574 . S
C644 C660 1.368 . S
H645 C653 0.950 . S
H646 C651 0.950 . S
H647 C652 0.949 . S
H648 C654 0.950 . S
H649 C655 0.950 . S
H650 C656 0.949 . S
C651 H646 0.950 . S
C651 C653 1.327 . S
C651 C657 1.429 . S
C652 C644 1.574 . S
C652 H647 0.949 . S
C652 C658 1.368 . S
C653 C637 1.349 . S
C653 H645 0.950 . S
C653 C651 1.327 . S
C654 C642 1.349 . S
C654 H648 0.950 . S
C654 C655 1.327 . S
C655 H649 0.950 . S
C655 C654 1.327 . S
C655 C659 1.429 . S
C656 C639 1.574 . S
C656 H650 0.949 . S
C656 C660 1.368 . S
C657 C638 1.429 . S
C657 C651 1.429 . S
C657 C658 1.523 . S
C658 C639 1.368 . S
C658 C652 1.368 . S
C658 C657 1.523 . S
C659 C643 1.429 . S
C659 C655 1.429 . S
C659 C660 1.523 . S
C660 C644 1.368 . S
C660 C656 1.368 . S
C660 C659 1.523 . S
H661 C636 0.950 . S
H662 C638 0.950 . S
H663 C639 0.949 . S
H664 C641 0.950 . S
H665 C643 0.950 . S
C666 C667 1.349 . S
C666 C668 1.327 . S
C666 H691 0.950 . S
C667 C666 1.349 . S
C667 C683 1.349 . S
C668 C666 1.327 . S
C668 C687 1.429 . S
C668 H692 0.950 . S
C669 C686 1.574 . S
C669 C688 1.368 . S
C669 H693 0.949 . S
H670 C674 0.949 . S
C671 C672 1.349 . S
C671 C673 1.327 . S
C671 H694 0.950 . S
C672 C671 1.349 . S
C672 C684 1.349 . S
C673 C671 1.327 . S
C673 C689 1.429 . S
C673 H695 0.950 . S
C674 H670 0.949 . S
C674 C682 1.574 . S
C674 C690 1.368 . S
H675 C683 0.950 . S
H676 C681 0.950 . S
H677 C682 0.949 . S
H678 C684 0.950 . S
H679 C685 0.950 . S
H680 C686 0.949 . S
C681 H676 0.950 . S
C681 C683 1.327 . S
C681 C687 1.429 . S
C682 C674 1.574 . S
C682 H677 0.949 . S
C682 C688 1.368 . S
C683 C667 1.349 . S
C683 H675 0.950 . S
C683 C681 1.327 . S
C684 C672 1.349 . S
C684 H678 0.950 . S
C684 C685 1.327 . S
C685 H679 0.950 . S
C685 C684 1.327 . S
C685 C689 1.429 . S
C686 C669 1.574 . S
C686 H680 0.949 . S
C686 C690 1.368 . S
C687 C668 1.429 . S
C687 C681 1.429 . S
C687 C688 1.523 . S
C688 C669 1.368 . S
C688 C682 1.368 . S
C688 C687 1.523 . S
C689 C673 1.429 . S
C689 C685 1.429 . S
C689 C690 1.523 . S
C690 C674 1.368 . S
C690 C686 1.368 . S
C690 C689 1.523 . S
H691 C666 0.950 . S
H692 C668 0.950 . S
H693 C669 0.949 . S
H694 C671 0.950 . S
H695 C673 0.950 . S
C696 C697 1.349 . S
C696 C698 1.327 . S
C696 H721 0.950 . S
C697 C696 1.349 . S
C697 C713 1.349 . S
C698 C696 1.327 . S
C698 C717 1.429 . S
C698 H722 0.950 . S
C699 C716 1.574 . S
C699 C718 1.368 . S
C699 H723 0.949 . S
H700 C704 0.949 . S
C701 C702 1.349 . S
C701 C703 1.327 . S
C701 H724 0.950 . S
C702 C701 1.349 . S
C702 C714 1.349 . S
C703 C701 1.327 . S
C703 C719 1.429 . S
C703 H725 0.950 . S
C704 H700 0.949 . S
C704 C712 1.574 . S
C704 C720 1.368 . S
H705 C713 0.950 . S
H706 C711 0.950 . S
H707 C712 0.949 . S
H708 C714 0.950 . S
H709 C715 0.950 . S
H710 C716 0.949 . S
C711 H706 0.950 . S
C711 C713 1.327 . S
C711 C717 1.429 . S
C712 C704 1.574 . S
C712 H707 0.949 . S
C712 C718 1.368 . S
C713 C697 1.349 . S
C713 H705 0.950 . S
C713 C711 1.327 . S
C714 C702 1.349 . S
C714 H708 0.950 . S
C714 C715 1.327 . S
C715 H709 0.950 . S
C715 C714 1.327 . S
C715 C719 1.429 . S
C716 C699 1.574 . S
C716 H710 0.949 . S
C716 C720 1.368 . S
C717 C698 1.429 . S
C717 C711 1.429 . S
C717 C718 1.523 . S
C718 C699 1.368 . S
C718 C712 1.368 . S
C718 C717 1.523 . S
C719 C703 1.429 . S
C719 C715 1.429 . S
C719 C720 1.523 . S
C720 C704 1.368 . S
C720 C716 1.368 . S
C720 C719 1.523 . S
H721 C696 0.950 . S
H722 C698 0.950 . S
H723 C699 0.949 . S
H724 C701 0.950 . S
H725 C703 0.950 . S
C726 C727 1.349 . S
C726 C728 1.327 . S
C726 H751 0.950 . S
C727 C726 1.349 . S
C727 C743 1.349 . S
C728 C726 1.327 . S
C728 C747 1.429 . S
C728 H752 0.950 . S
C729 C746 1.574 . S
C729 C748 1.368 . S
C729 H753 0.949 . S
H730 C734 0.949 . S
C731 C732 1.349 . S
C731 C733 1.327 . S
C731 H754 0.950 . S
C732 C731 1.349 . S
C732 C744 1.349 . S
C733 C731 1.327 . S
C733 C749 1.429 . S
C733 H755 0.950 . S
C734 H730 0.949 . S
C734 C742 1.574 . S
C734 C750 1.368 . S
H735 C743 0.950 . S
H736 C741 0.950 . S
H737 C742 0.949 . S
H738 C744 0.950 . S
H739 C745 0.950 . S
H740 C746 0.949 . S
C741 H736 0.950 . S
C741 C743 1.327 . S
C741 C747 1.429 . S
C742 C734 1.574 . S
C742 H737 0.949 . S
C742 C748 1.368 . S
C743 C727 1.349 . S
C743 H735 0.950 . S
C743 C741 1.327 . S
C744 C732 1.349 . S
C744 H738 0.950 . S
C744 C745 1.327 . S
C745 H739 0.950 . S
C745 C744 1.327 . S
C745 C749 1.429 . S
C746 C729 1.574 . S
C746 H740 0.949 . S
C746 C750 1.368 . S
C747 C728 1.429 . S
C747 C741 1.429 . S
C747 C748 1.523 . S
C748 C729 1.368 . S
C748 C742 1.368 . S
C748 C747 1.523 . S
C749 C733 1.429 . S
C749 C745 1.429 . S
C749 C750 1.523 . S
C750 C734 1.368 . S
C750 C746 1.368 . S
C750 C749 1.523 . S
H751 C726 0.950 . S
H752 C728 0.950 . S
H753 C729 0.949 . S
H754 C731 0.950 . S
H755 C733 0.950 . S
C756 C757 1.349 . S
C756 C758 1.327 . S
C756 H781 0.950 . S
C757 C756 1.349 . S
C757 C773 1.349 . S
C758 C756 1.327 . S
C758 C777 1.429 . S
C758 H782 0.950 . S
C759 C776 1.574 . S
C759 C778 1.368 . S
C759 H783 0.949 . S
H760 C764 0.949 . S
C761 C762 1.349 . S
C761 C763 1.327 . S
C761 H784 0.950 . S
C762 C761 1.349 . S
C762 C774 1.349 . S
C763 C761 1.327 . S
C763 C779 1.429 . S
C763 H785 0.950 . S
C764 H760 0.949 . S
C764 C772 1.574 . S
C764 C780 1.368 . S
H765 C773 0.950 . S
H766 C771 0.950 . S
H767 C772 0.949 . S
H768 C774 0.950 . S
H769 C775 0.950 . S
H770 C776 0.949 . S
C771 H766 0.950 . S
C771 C773 1.327 . S
C771 C777 1.429 . S
C772 C764 1.574 . S
C772 H767 0.949 . S
C772 C778 1.368 . S
C773 C757 1.349 . S
C773 H765 0.950 . S
C773 C771 1.327 . S
C774 C762 1.349 . S
C774 H768 0.950 . S
C774 C775 1.327 . S
C775 H769 0.950 . S
C775 C774 1.327 . S
C775 C779 1.429 . S
C776 C759 1.574 . S
C776 H770 0.949 . S
C776 C780 1.368 . S
C777 C758 1.429 . S
C777 C771 1.429 . S
C777 C778 1.523 . S
C778 C759 1.368 . S
C778 C772 1.368 . S
C778 C777 1.523 . S
C779 C763 1.429 . S
C779 C775 1.429 . S
C779 C780 1.523 . S
C780 C764 1.368 . S
C780 C776 1.368 . S
C780 C779 1.523 . S
H781 C756 0.950 . S
H782 C758 0.950 . S
H783 C759 0.949 . S
H784 C761 0.950 . S
H785 C763 0.950 . S
C786 C787 1.349 . S
C786 C788 1.327 . S
C786 H811 0.950 . S
C787 C786 1.349 . S
C787 C803 1.349 . S
C788 C786 1.327 . S
C788 C807 1.429 . S
C788 H812 0.950 . S
C789 C806 1.574 . S
C789 C808 1.368 . S
C789 H813 0.949 . S
H790 C794 0.949 . S
C791 C792 1.349 . S
C791 C793 1.327 . S
C791 H814 0.950 . S
C792 C791 1.349 . S
C792 C804 1.349 . S
C793 C791 1.327 . S
C793 C809 1.429 . S
C793 H815 0.950 . S
C794 H790 0.949 . S
C794 C802 1.574 . S
C794 C810 1.368 . S
H795 C803 0.950 . S
H796 C801 0.950 . S
H797 C802 0.949 . S
H798 C804 0.950 . S
H799 C805 0.950 . S
H800 C806 0.949 . S
C801 H796 0.950 . S
C801 C803 1.327 . S
C801 C807 1.429 . S
C802 C794 1.574 . S
C802 H797 0.949 . S
C802 C808 1.368 . S
C803 C787 1.349 . S
C803 H795 0.950 . S
C803 C801 1.327 . S
C804 C792 1.349 . S
C804 H798 0.950 . S
C804 C805 1.327 . S
C805 H799 0.950 . S
C805 C804 1.327 . S
C805 C809 1.429 . S
C806 C789 1.574 . S
C806 H800 0.949 . S
C806 C810 1.368 . S
C807 C788 1.429 . S
C807 C801 1.429 . S
C807 C808 1.523 . S
C808 C789 1.368 . S
C808 C802 1.368 . S
C808 C807 1.523 . S
C809 C793 1.429 . S
C809 C805 1.429 . S
C809 C810 1.523 . S
C810 C794 1.368 . S
C810 C806 1.368 . S
C810 C809 1.523 . S
H811 C786 0.950 . S
H812 C788 0.950 . S
H813 C789 0.949 . S
H814 C791 0.950 . S
H815 C793 0.950 . S
C816 C817 1.349 . S
C816 C818 1.327 . S
C816 H841 0.950 . S
C817 C816 1.349 . S
C817 C833 1.349 . S
C818 C816 1.327 . S
C818 C837 1.429 . S
C818 H842 0.950 . S
C819 C836 1.574 . S
C819 C838 1.368 . S
C819 H843 0.949 . S
H820 C824 0.949 . S
C821 C822 1.349 . S
C821 C823 1.327 . S
C821 H844 0.950 . S
C822 C821 1.349 . S
C822 C834 1.349 . S
C823 C821 1.327 . S
C823 C839 1.429 . S
C823 H845 0.950 . S
C824 H820 0.949 . S
C824 C832 1.574 . S
C824 C840 1.368 . S
H825 C833 0.950 . S
H826 C831 0.950 . S
H827 C832 0.949 . S
H828 C834 0.950 . S
H829 C835 0.950 . S
H830 C836 0.949 . S
C831 H826 0.950 . S
C831 C833 1.327 . S
C831 C837 1.429 . S
C832 C824 1.574 . S
C832 H827 0.949 . S
C832 C838 1.368 . S
C833 C817 1.349 . S
C833 H825 0.950 . S
C833 C831 1.327 . S
C834 C822 1.349 . S
C834 H828 0.950 . S
C834 C835 1.327 . S
C835 H829 0.950 . S
C835 C834 1.327 . S
C835 C839 1.429 . S
C836 C819 1.574 . S
C836 H830 0.949 . S
C836 C840 1.368 . S
C837 C818 1.429 . S
C837 C831 1.429 . S
C837 C838 1.523 . S
C838 C819 1.368 . S
C838 C832 1.368 . S
C838 C837 1.523 . S
C839 C823 1.429 . S
C839 C835 1.429 . S
C839 C840 1.523 . S
C840 C824 1.368 . S
C840 C836 1.368 . S
C840 C839 1.523 . S
H841 C816 0.950 . S
H842 C818 0.950 . S
H843 C819 0.949 . S
H844 C821 0.950 . S
H845 C823 0.950 . S
C846 C847 1.349 . S
C846 C848 1.327 . S
C846 H871 0.950 . S
C847 C846 1.349 . S
C847 C863 1.349 . S
C848 C846 1.327 . S
C848 C867 1.429 . S
C848 H872 0.950 . S
C849 C866 1.574 . S
C849 C868 1.368 . S
C849 H873 0.949 . S
H850 C854 0.949 . S
C851 C852 1.349 . S
C851 C853 1.327 . S
C851 H874 0.950 . S
C852 C851 1.349 . S
C852 C864 1.349 . S
C853 C851 1.327 . S
C853 C869 1.429 . S
C853 H875 0.950 . S
C854 H850 0.949 . S
C854 C862 1.574 . S
C854 C870 1.368 . S
H855 C863 0.950 . S
H856 C861 0.950 . S
H857 C862 0.949 . S
H858 C864 0.950 . S
H859 C865 0.950 . S
H860 C866 0.949 . S
C861 H856 0.950 . S
C861 C863 1.327 . S
C861 C867 1.429 . S
C862 C854 1.574 . S
C862 H857 0.949 . S
C862 C868 1.368 . S
C863 C847 1.349 . S
C863 H855 0.950 . S
C863 C861 1.327 . S
C864 C852 1.349 . S
C864 H858 0.950 . S
C864 C865 1.327 . S
C865 H859 0.950 . S
C865 C864 1.327 . S
C865 C869 1.429 . S
C866 C849 1.574 . S
C866 H860 0.949 . S
C866 C870 1.368 . S
C867 C848 1.429 . S
C867 C861 1.429 . S
C867 C868 1.523 . S
C868 C849 1.368 . S
C868 C862 1.368 . S
C868 C867 1.523 . S
C869 C853 1.429 . S
C869 C865 1.429 . S
C869 C870 1.523 . S
C870 C854 1.368 . S
C870 C866 1.368 . S
C870 C869 1.523 . S
H871 C846 0.950 . S
H872 C848 0.950 . S
H873 C849 0.949 . S
H874 C851 0.950 . S
H875 C853 0.950 . S
C157 C10 1.278 . S
C162 C153 1.278 . S
C187 C88 1.278 . S
C192 C23 1.278 . S
C217 C36 1.278 . S
C222 C101 1.278 . S
C247 C114 1.278 . S
C252 C49 1.278 . S
C277 C127 1.278 . S
C282 C62 1.278 . S
C307 C140 1.278 . S
C312 C75 1.278 . S
C337 C47 1.311 . S
C342 C112 1.311 . S
C367 C60 1.311 . S
C372 C125 1.311 . S
C397 C73 1.311 . S
C402 C138 1.311 . S
C427 C151 1.311 . S
C432 C8 1.311 . S
C457 C21 1.311 . S
C462 C86 1.311 . S
C487 C34 1.311 . S
C492 C99 1.311 . S
C517 C109 1.473 . S
C522 C5 1.473 . S
C547 C122 1.473 . S
C552 C18 1.473 . S
C577 C31 1.473 . S
C582 C135 1.473 . S
C607 C44 1.473 . S
C612 C148 1.473 . S
C637 C57 1.473 . S
C642 C83 1.473 . S
C667 C96 1.473 . S
C672 C70 1.473 . S
C697 C0 1.262 . S
C702 C130 1.262 . S
C727 C143 1.262 . S
C732 C13 1.262 . S
C757 C26 1.262 . S
C762 C78 1.262 . S
C787 C39 1.262 . S
C792 C91 1.262 . S
C817 C52 1.262 . S
C822 C104 1.262 . S
C847 C65 1.262 . S
C852 C117 1.262 . S
