# Generated by pormake.
# Topology vby, (6)-cn, num edge types: 1
# Building blocks:
#     Node 0, Type 0, BuildingBlock: VOLQOD_clean_sbu_1, # of connection points: 6
#     Node 1, Type 0, BuildingBlock: VOLQOD_clean_sbu_1, # of connection points: 6
#     Node 2, Type 0, BuildingBlock: VOLQOD_clean_sbu_1, # of connection points: 6
#     Node 3, Type 0, BuildingBlock: VOLQOD_clean_sbu_1, # of connection points: 6
#     Node 4, Type 0, BuildingBlock: VOLQOD_clean_sbu_1, # of connection points: 6
#     Node 5, Type 0, BuildingBlock: VOLQOD_clean_sbu_1, # of connection points: 6
#     Node 6, Type 0, BuildingBlock: VOLQOD_clean_sbu_1, # of connection points: 6
#     Node 7, Type 0, BuildingBlock: VOLQOD_clean_sbu_1, # of connection points: 6
#     Edge 8, Type (0, 0), BuildingBlock: EZIPEK_clean_linker_0, # of connection points: 2
#     Edge 9, Type (0, 0), BuildingBlock: EZIPEK_clean_linker_0, # of connection points: 2
#     Edge 10, Type (0, 0), BuildingBlock: EZIPEK_clean_linker_0, # of connection points: 2
#     Edge 11, Type (0, 0), BuildingBlock: EZIPEK_clean_linker_0, # of connection points: 2
#     Edge 12, Type (0, 0), BuildingBlock: EZIPEK_clean_linker_0, # of connection points: 2
#     Edge 13, Type (0, 0), BuildingBlock: EZIPEK_clean_linker_0, # of connection points: 2
#     Edge 14, Type (0, 0), BuildingBlock: EZIPEK_clean_linker_0, # of connection points: 2
#     Edge 15, Type (0, 0), BuildingBlock: EZIPEK_clean_linker_0, # of connection points: 2
#     Edge 16, Type (0, 0), BuildingBlock: EZIPEK_clean_linker_0, # of connection points: 2
#     Edge 17, Type (0, 0), BuildingBlock: EZIPEK_clean_linker_0, # of connection points: 2
#     Edge 18, Type (0, 0), BuildingBlock: EZIPEK_clean_linker_0, # of connection points: 2
#     Edge 19, Type (0, 0), BuildingBlock: EZIPEK_clean_linker_0, # of connection points: 2
#     Edge 20, Type (0, 0), BuildingBlock: EZIPEK_clean_linker_0, # of connection points: 2
#     Edge 21, Type (0, 0), BuildingBlock: EZIPEK_clean_linker_0, # of connection points: 2
#     Edge 22, Type (0, 0), BuildingBlock: EZIPEK_clean_linker_0, # of connection points: 2
#     Edge 23, Type (0, 0), BuildingBlock: EZIPEK_clean_linker_0, # of connection points: 2
#     Edge 24, Type (0, 0), BuildingBlock: EZIPEK_clean_linker_0, # of connection points: 2
#     Edge 25, Type (0, 0), BuildingBlock: EZIPEK_clean_linker_0, # of connection points: 2
#     Edge 26, Type (0, 0), BuildingBlock: EZIPEK_clean_linker_0, # of connection points: 2
#     Edge 27, Type (0, 0), BuildingBlock: EZIPEK_clean_linker_0, # of connection points: 2
#     Edge 28, Type (0, 0), BuildingBlock: EZIPEK_clean_linker_0, # of connection points: 2
#     Edge 29, Type (0, 0), BuildingBlock: EZIPEK_clean_linker_0, # of connection points: 2
#     Edge 30, Type (0, 0), BuildingBlock: EZIPEK_clean_linker_0, # of connection points: 2
#     Edge 31, Type (0, 0), BuildingBlock: EZIPEK_clean_linker_0, # of connection points: 2
# Relax obj value: 0.083
# Max RMSD: 0.107
# Mean RMSD: 0.107
data_MOF--net-vby--node1-VOLQOD_clean_sbu_1--edge1-EZIPEK_clean_linker_0
_symmetry_space_group_name_H-M    P1
_symmetry_Int_Tables_number       1
_symmetry_cell_setting            triclinic
loop_
_symmetry_equiv_pos_as_xyz
'x, y, z'
_cell_length_a     13.021545
_cell_length_b     49.5967
_cell_length_c     25.835864
_cell_angle_alpha  90.001363
_cell_angle_beta   90.099406
_cell_angle_gamma 90.049685
loop_
_atom_site_label
_atom_site_type_symbol
_atom_site_fract_x
_atom_site_fract_y
_atom_site_fract_z
_atom_type_partial_charge
O0 O 0.28481 0.37738 0.97194 0.0
Zn1 Zn 0.13224 0.38396 0.96269 0.0
O2 O 0.0541 0.36312 0.01277 0.0
Zn3 Zn 0.97749 0.33337 0.98122 0.0
Zn4 Zn 0.14827 0.34966 0.0636 0.0
Zn5 Zn 0.95781 0.38565 0.04758 0.0
O6 O 0.8255 0.33414 0.00108 0.0
O7 O 0.81728 0.37685 0.02654 0.0
O8 O 0.0902 0.37233 0.89125 0.0
O9 O 0.97829 0.339 0.90436 0.0
O10 O 0.04837 0.29745 -0.00385 0.0
O11 O 0.16692 0.31101 0.05239 0.0
O12 O 0.10147 0.35561 0.1362 0.0
O13 O 0.10085 0.42405 0.96982 0.0
O14 O 0.96318 0.38111 0.1245 0.0
O15 O 0.97702 0.42362 0.02899 0.0
C16 C 0.33503 0.36976 0.01175 0.0
C17 C 0.77379 0.35511 0.01295 0.0
C18 C 0.1262 0.29274 0.02491 0.0
C19 C 0.02701 0.35477 0.87423 0.0
C20 C 0.0248 0.36846 0.15395 0.0
C21 C 0.03437 0.43621 -0.00245 0.0
O22 O 0.29011 0.36253 0.05309 0.0
O23 O 0.68604 0.6087 0.96248 0.0
Zn24 Zn 0.83733 0.60052 0.95723 0.0
O25 O 0.91503 0.62246 0.00579 0.0
Zn26 Zn -0.01194 0.65183 0.97095 0.0
Zn27 Zn 0.81864 0.63599 0.0559 0.0
Zn28 Zn 0.01373 0.60092 0.04179 0.0
O29 O 0.14223 0.65055 0.98344 0.0
O30 O 0.15453 0.61087 0.02278 0.0
O31 O 0.8792 0.60992 0.88538 0.0
O32 O 0.97932 0.64596 0.89463 0.0
O33 O 0.92176 0.68793 0.98792 0.0
O34 O 0.80657 0.67514 0.04656 0.0
O35 O 0.85986 0.62842 0.12888 0.0
O36 O 0.86717 0.5606 0.96798 0.0
O37 O 0.00235 0.60444 0.11817 0.0
O38 O -0.00133 0.56281 0.02293 0.0
C39 C 0.63308 0.61687 0.00075 0.0
C40 C 0.19578 0.63118 0.00147 0.0
C41 C 0.84745 0.69317 0.0185 0.0
C42 C 0.93547 0.62839 0.86635 0.0
C43 C 0.9367 0.61579 0.14714 0.0
C44 C 0.93837 0.54935 -0.00576 0.0
O45 O 0.67496 0.62407 0.043 0.0
O46 O 0.26681 0.6058 0.54966 0.0
Zn47 Zn 0.11594 0.59765 0.55711 0.0
O48 O 0.03717 0.61847 0.50735 0.0
Zn49 Zn 0.96174 0.6477 0.54077 0.0
Zn50 Zn 0.13243 0.63249 0.45729 0.0
Zn51 Zn 0.94123 0.59597 0.47152 0.0
O52 O 0.80892 0.64621 0.5255 0.0
O53 O 0.79972 0.60538 0.49025 0.0
O54 O 0.07562 0.60828 0.62894 0.0
O55 O 0.96603 0.64205 0.61705 0.0
O56 O 0.03079 0.68379 0.52666 0.0
O57 O 0.14919 0.67136 0.4695 0.0
O58 O 0.08674 0.6266 0.38453 0.0
O59 O 0.08715 0.55751 0.54852 0.0
O60 O 0.95099 0.59996 0.39503 0.0
O61 O 0.95967 0.55791 0.49101 0.0
C62 C 0.3185 0.61286 0.51012 0.0
C63 C 0.75694 0.62611 0.50913 0.0
C64 C 0.1081 0.6891 0.49807 0.0
C65 C 0.01434 0.626 0.64665 0.0
C66 C 0.01227 0.61303 0.36621 0.0
C67 C 0.01927 0.54533 0.5215 0.0
O68 O 0.27521 0.61923 0.46772 0.0
O69 O 0.68824 0.37217 0.55287 0.0
Zn70 Zn 0.83997 0.37927 0.56275 0.0
O71 O 0.92017 0.35757 0.51463 0.0
Zn72 Zn -0.00339 0.32899 0.54965 0.0
Zn73 Zn 0.8292 0.34201 0.46399 0.0
Zn74 Zn 0.01675 0.38 0.47929 0.0
O75 O 0.14794 0.32896 0.52974 0.0
O76 O 0.15797 0.37061 0.49847 0.0
O77 O 0.87985 0.36934 0.63552 0.0
O78 O -0.00472 0.33661 0.62573 0.0
O79 O 0.92634 0.29277 0.53893 0.0
O80 O 0.81528 0.30304 0.47656 0.0
O81 O 0.87275 0.34904 0.39088 0.0
O82 O 0.86933 0.41934 0.55303 0.0
O83 O 0.00643 0.37629 0.40256 0.0
O84 O -0.00085 0.41815 0.49736 0.0
C85 C 0.63947 0.36251 0.51425 0.0
C86 C 0.20044 0.34921 0.51461 0.0
C87 C 0.8533 0.2863 0.50835 0.0
C88 C 0.94429 0.35263 0.6543 0.0
C89 C 0.94581 0.36332 0.37307 0.0
C90 C 0.93839 0.43116 0.52638 0.0
O91 O 0.6856 0.3534 0.4747 0.0
O92 O 0.78253 0.87692 0.98166 0.0
Zn93 Zn 0.63119 0.88389 0.97097 0.0
O94 O 0.55123 0.86325 0.02055 0.0
Zn95 Zn 0.47243 0.83451 0.98786 0.0
Zn96 Zn 0.64283 0.8483 0.07121 0.0
Zn97 Zn 0.45615 0.8861 0.0554 0.0
O98 O 0.32211 0.8352 0.00935 0.0
O99 O 0.31463 0.87803 0.03422 0.0
O100 O 0.59153 0.87251 0.89886 0.0
O101 O 0.47146 0.84121 0.91155 0.0
O102 O 0.54212 0.7983 -0.00068 0.0
O103 O 0.65978 0.80958 0.05788 0.0
O104 O 0.59454 0.85384 0.14377 0.0
O105 O 0.60312 0.92411 0.97891 0.0
O106 O 0.46124 0.88116 0.13205 0.0
O107 O 0.48001 0.92414 0.03849 0.0
C108 C 0.83149 0.86885 0.02152 0.0
C109 C 0.27082 0.85621 0.02128 0.0
C110 C 0.61857 0.79237 0.02811 0.0
C111 C 0.52435 0.85608 0.88155 0.0
C112 C 0.52005 0.86759 0.16144 0.0
C113 C 0.53881 0.93654 0.00747 0.0
O114 O 0.78553 0.861 0.06216 0.0
O115 O 0.20114 0.10832 -0.00988 0.0
Zn116 Zn 0.35294 0.10134 0.98073 0.0
O117 O 0.43483 0.12419 0.02597 0.0
Zn118 Zn 0.50804 0.1527 0.98829 0.0
Zn119 Zn 0.34488 0.14008 0.07642 0.0
Zn120 Zn 0.53328 0.10222 0.06131 0.0
O121 O 0.66124 0.15309 0.00565 0.0
O122 O 0.67336 0.11298 0.04347 0.0
O123 O 0.39035 0.10991 0.90809 0.0
O124 O 0.4994 0.1446 0.91231 0.0
O125 O 0.43852 0.18895 -0.0005 0.0
O126 O 0.33242 0.17896 0.06398 0.0
O127 O 0.38862 0.13296 0.14924 0.0
O128 O 0.38534 0.0617 -0.00949 0.0
O129 O 0.52094 0.10526 0.1379 0.0
O130 O 0.52214 0.06402 0.04179 0.0
C131 C 0.15311 0.11933 0.02747 0.0
C132 C 0.71476 0.13379 0.02414 0.0
C133 C 0.36795 0.19555 0.03126 0.0
C134 C 0.44896 0.12711 0.88671 0.0
C135 C 0.46059 0.11836 0.16715 0.0
C136 C 0.45967 0.05053 0.01441 0.0
O137 O 0.20017 0.12947 0.06589 0.0
O138 O 0.77139 0.10398 0.57637 0.0
Zn139 Zn 0.61905 0.09474 0.57684 0.0
O140 O 0.54527 0.11728 0.52834 0.0
Zn141 Zn 0.47446 0.14669 0.56387 0.0
Zn142 Zn 0.6455 0.13046 0.4802 0.0
Zn143 Zn 0.4459 0.09657 0.49081 0.0
O144 O 0.31935 0.14565 0.55141 0.0
O145 O 0.30507 0.10594 0.51218 0.0
O146 O 0.56175 0.10115 0.64733 0.0
O147 O 0.48022 0.13993 0.64012 0.0
O148 O 0.54311 0.18278 0.5479 0.0
O149 O 0.65986 0.16948 0.49054 0.0
O150 O 0.6057 0.12405 0.40659 0.0
O151 O 0.5932 0.05521 0.56138 0.0
O152 O 0.457 0.10236 0.41471 0.0
O153 O 0.4624 0.05789 0.50595 0.0
C154 C 0.82706 0.11144 0.53839 0.0
C155 C 0.26477 0.12622 0.53411 0.0
C156 C 0.61911 0.18771 0.51812 0.0
C157 C 0.50648 0.11958 0.66701 0.0
C158 C 0.52612 0.11321 0.38699 0.0
C159 C 0.52342 0.04418 0.53382 0.0
O160 O 0.78773 0.11772 0.49495 0.0
O161 O 0.18766 0.8701 0.56582 0.0
Zn162 Zn 0.33859 0.87898 0.5707 0.0
O163 O 0.41623 0.85736 0.52189 0.0
Zn164 Zn 0.48846 0.82794 0.55701 0.0
Zn165 Zn 0.31969 0.84414 0.47123 0.0
Zn166 Zn 0.51486 0.87912 0.48628 0.0
O167 O 0.64256 0.82903 0.54379 0.0
O168 O 0.65555 0.86916 0.50606 0.0
O169 O 0.38356 0.87037 0.64273 0.0
O170 O 0.48167 0.83399 0.63371 0.0
O171 O 0.42007 0.792 0.53991 0.0
O172 O 0.30726 0.80496 0.48003 0.0
O173 O 0.36118 0.85191 0.39817 0.0
O174 O 0.36532 0.91887 0.55896 0.0
O175 O 0.50454 0.87551 0.40964 0.0
O176 O 0.49804 0.91734 0.50485 0.0
C177 C 0.13432 0.86244 0.52717 0.0
C178 C 0.69644 0.84856 0.52659 0.0
C179 C 0.34657 0.78688 0.50855 0.0
C180 C 0.43976 0.85191 0.66188 0.0
C181 C 0.43879 0.86435 0.38025 0.0
C182 C 0.43598 0.93048 0.53302 0.0
O183 O 0.17583 0.856 0.48442 0.0
C184 C 0.49414 0.35074 0.9698 0.0
C185 C 0.44786 0.36643 0.00959 0.0
C186 C 0.61027 0.3666 0.05682 0.0
C187 C 0.66025 0.35508 0.01339 0.0
N188 N 0.65123 0.34054 0.92409 0.0
N189 N 0.46857 0.39397 0.08599 0.0
C190 C 0.60279 0.34825 0.96856 0.0
C191 C 0.50794 0.37572 0.05173 0.0
N192 N 0.43504 0.33702 0.93482 0.0
N193 N 0.66 0.36829 0.10336 0.0
H194 H 0.39515 0.40215 0.08213 0.0
H195 H 0.51273 0.40316 0.11469 0.0
H196 H 0.73376 0.36062 0.10915 0.0
H197 H 0.62381 0.37445 0.13731 0.0
H198 H 0.46567 0.32326 0.90857 0.0
H199 H 0.35506 0.33702 0.93547 0.0
H200 H 0.61269 0.33823 0.88897 0.0
H201 H 0.73069 0.33876 0.92098 0.0
C202 C 0.3735 0.6507 0.01155 0.0
C203 C 0.30789 0.63005 -0.00686 0.0
C204 C 0.45577 0.60066 0.97762 0.0
C205 C 0.52172 0.62162 -0.00564 0.0
N206 N 0.54496 0.66935 0.00973 0.0
N207 N 0.28882 0.58928 0.94279 0.0
C208 C 0.48112 0.64755 0.00596 0.0
C209 C 0.34988 0.60624 0.97103 0.0
N210 N 0.33414 0.67265 0.03652 0.0
N211 N 0.49271 0.57514 0.97047 0.0
H212 H 0.21156 0.59334 0.9353 0.0
H213 H 0.31741 0.5729 0.92207 0.0
H214 H 0.56955 0.57001 0.97605 0.0
H215 H 0.4453 0.55858 0.9636 0.0
H216 H 0.37997 0.68675 0.05561 0.0
H217 H 0.25569 0.67566 0.04191 0.0
H218 H 0.51836 0.68906 0.0137 0.0
H219 H 0.62361 0.66813 0.00267 0.0
C220 C 0.5801 0.64531 0.49535 0.0
C221 C 0.64453 0.62502 0.51602 0.0
C222 C 0.49513 0.59637 0.53318 0.0
C223 C 0.43034 0.61722 0.51502 0.0
N224 N 0.41011 0.66467 0.49593 0.0
N225 N 0.66096 0.58524 0.56947 0.0
C226 C 0.47243 0.6427 0.50123 0.0
C227 C 0.6012 0.60177 0.53967 0.0
N228 N 0.62056 0.6664 0.46812 0.0
N229 N 0.45683 0.57112 0.54202 0.0
H230 H 0.73822 0.58924 0.5771 0.0
H231 H 0.63119 0.56937 0.59123 0.0
H232 H 0.37978 0.56613 0.53655 0.0
H233 H 0.50334 0.55456 0.55013 0.0
H234 H 0.57534 0.68009 0.44766 0.0
H235 H 0.6991 0.66891 0.46208 0.0
H236 H 0.43806 0.68415 0.49026 0.0
H237 H 0.33168 0.66396 0.5036 0.0
C238 C 0.46745 0.36681 0.47249 0.0
C239 C 0.52671 0.35926 0.51618 0.0
C240 C 0.37082 0.34357 0.55987 0.0
C241 C 0.31382 0.3487 0.51407 0.0
N242 N 0.3144 0.35798 0.42234 0.0
N243 N 0.53784 0.33325 0.59545 0.0
C244 C 0.36439 0.35803 0.46891 0.0
C245 C 0.47953 0.34556 0.5583 0.0
N246 N 0.50821 0.38322 0.43529 0.0
N247 N 0.32194 0.33805 0.60541 0.0
H248 H 0.61784 0.33296 0.59482 0.0
H249 H 0.50647 0.32081 0.62386 0.0
H250 H 0.24238 0.33678 0.60883 0.0
H251 H 0.36037 0.33711 0.6408 0.0
H252 H 0.4648 0.39125 0.40508 0.0
H253 H 0.58223 0.39119 0.43773 0.0
H254 H 0.35082 0.36239 0.38746 0.0
H255 H 0.23982 0.35058 0.41792 0.0
C256 C -0.0089 0.85052 0.97961 0.0
C257 C 0.94423 0.86577 0.01979 0.0
C258 C 0.10756 0.8671 0.06611 0.0
C259 C 0.15748 0.85601 0.02225 0.0
N260 N 0.148 0.84158 0.93288 0.0
N261 N 0.96306 0.89303 0.0967 0.0
C262 C 0.0998 0.84883 0.97771 0.0
C263 C 0.00397 0.87533 0.06183 0.0
N264 N 0.93255 0.83652 0.94481 0.0
N265 N 0.15845 0.86914 0.11228 0.0
H266 H 0.88842 0.9005 0.09359 0.0
H267 H 0.00666 0.90249 0.1253 0.0
H268 H 0.23331 0.86213 0.11749 0.0
H269 H 0.1226 0.87494 0.14655 0.0
H270 H 0.96387 0.82305 0.9182 0.0
H271 H 0.85259 0.83597 0.94598 0.0
H272 H 0.10889 0.83903 0.89798 0.0
H273 H 0.22755 0.8405 0.9292 0.0
C274 C 0.9808 0.1178 0.06957 0.0
C275 C 0.04052 0.12315 0.02492 0.0
C276 C 0.88557 0.13767 0.97866 0.0
C277 C 0.82821 0.13465 0.02495 0.0
N278 N 0.82847 0.12948 0.11783 0.0
N279 N 0.05325 0.14592 0.94211 0.0
C280 C 0.87841 0.1272 0.07154 0.0
C281 C -0.00581 0.13533 0.9808 0.0
N282 N 0.02023 0.10281 0.10929 0.0
N283 N 0.83709 0.14146 0.9323 0.0
H284 H 0.13325 0.14603 0.94297 0.0
H285 H 0.02261 0.15727 0.91185 0.0
H286 H 0.75765 0.14299 0.92852 0.0
H287 H 0.87562 0.14075 0.89699 0.0
H288 H 0.97624 0.09635 0.1406 0.0
H289 H 0.09344 0.0943 0.1082 0.0
H290 H 0.86466 0.12647 0.15337 0.0
H291 H 0.75431 0.13731 0.12081 0.0
C292 C 0.08604 0.14557 0.52613 0.0
C293 C 0.15274 0.12504 0.54398 0.0
C294 C 0.00518 0.09578 0.56263 0.0
C295 C 0.9384 0.11653 0.54581 0.0
N296 N 0.91433 0.16404 0.52927 0.0
N297 N 0.17444 0.08461 0.59497 0.0
C298 C 0.9786 0.14237 0.53307 0.0
C299 C 0.11173 0.10139 0.56733 0.0
N300 N 0.12411 0.16743 0.50033 0.0
N301 N 0.96826 0.07042 0.57163 0.0
H302 H 0.25221 0.08869 0.60099 0.0
H303 H 0.14715 0.06839 0.61659 0.0
H304 H 0.89083 0.06538 0.56807 0.0
H305 H 0.0157 0.05388 0.57841 0.0
H306 H 0.0774 0.18141 0.48155 0.0
H307 H 0.20228 0.17047 0.49399 0.0
H308 H 0.94034 0.18375 0.52436 0.0
H309 H 0.83609 0.1627 0.53732 0.0
C310 C 0.87362 0.82902 0.51493 0.0
C311 C 0.80875 0.84942 0.53478 0.0
C312 C 0.95755 0.87842 0.55152 0.0
C313 C 0.02284 0.85768 0.53337 0.0
N314 N 0.04479 0.81021 0.51496 0.0
N315 N 0.7914 0.88941 0.58744 0.0
C316 C 0.98146 0.83199 0.5203 0.0
C317 C 0.85165 0.87283 0.5581 0.0
N318 N 0.8333 0.8075 0.48885 0.0
N319 N -0.00494 0.90379 0.56 0.0
H320 H 0.71414 0.88531 0.59482 0.0
H321 H 0.82067 0.90541 0.60904 0.0
H322 H 0.07184 0.90897 0.55438 0.0
H323 H 0.94809 0.92026 0.56799 0.0
H324 H 0.87843 0.79369 0.46875 0.0
H325 H 0.75467 0.80463 0.48365 0.0
H326 H 0.01773 0.79061 0.50989 0.0
H327 H 0.12359 0.81126 0.52179 0.0
C328 C 0.96623 0.50615 0.04044 0.0
C329 C 0.95421 0.51989 -0.00728 0.0
C330 C -0.00454 0.47829 0.94613 0.0
C331 C 0.01972 0.46569 -0.00596 0.0
N332 N 0.05276 0.47014 0.08564 0.0
N333 N 0.97717 0.52037 0.89982 0.0
C334 C 0.01266 0.48044 0.04088 0.0
C335 C 0.97415 0.50637 0.94533 0.0
N336 N 0.93044 0.51737 0.08525 0.0
N337 N -0.01212 0.46342 0.90178 0.0
H338 H 0.96236 0.54094 0.89728 0.0
H339 H 0.00299 0.51198 0.86523 0.0
H340 H 0.00204 0.4428 0.90038 0.0
H341 H 0.95892 0.47117 0.86722 0.0
H342 H 0.92938 0.50711 0.12045 0.0
H343 H 0.89122 0.5357 0.08602 0.0
H344 H 0.05748 0.48115 0.11992 0.0
H345 H 0.09165 0.45175 0.08699 0.0
C346 C 0.9578 0.47453 0.47935 0.0
C347 C 0.94999 0.46081 0.52732 0.0
C348 C -0.01492 0.50308 0.57309 0.0
C349 C 0.00606 0.51577 0.52493 0.0
N350 N 0.03556 0.51154 0.43303 0.0
N351 N 0.97477 0.46104 0.62012 0.0
C352 C -0.00065 0.50086 0.47825 0.0
C353 C 0.96853 0.47478 0.5744 0.0
N354 N 0.92253 0.4627 0.43493 0.0
N355 N 0.97612 0.51804 0.61724 0.0
H356 H 0.96337 0.44034 0.62298 0.0
H357 H -0.00016 0.46988 0.6545 0.0
H358 H -0.01373 0.53884 0.61809 0.0
H359 H 0.94954 0.51012 0.65209 0.0
H360 H 0.9182 0.47281 0.39963 0.0
H361 H 0.88684 0.44385 0.43462 0.0
H362 H 0.04084 0.50051 0.39881 0.0
H363 H 0.07087 0.53041 0.43108 0.0
C364 C 0.53181 0.98003 0.05454 0.0
C365 C 0.53075 0.96623 0.00653 0.0
C366 C 0.49041 0.00852 0.96206 0.0
C367 C 0.47656 0.02118 0.01087 0.0
N368 N 0.46311 0.01719 0.10383 0.0
N369 N 0.49202 0.96641 0.91491 0.0
C370 C 0.49137 0.00642 0.05725 0.0
C371 C 0.50582 0.98019 0.96018 0.0
N372 N 0.57359 0.96811 0.0974 0.0
N373 N 0.49323 0.02354 0.91771 0.0
H374 H 0.5016 0.94564 0.91177 0.0
H375 H 0.46257 0.97532 0.88151 0.0
H376 H 0.48449 0.04442 0.91726 0.0
H377 H 0.51398 0.01555 0.88192 0.0
H378 H 0.5845 0.97825 0.13231 0.0
H379 H 0.60768 0.94908 0.09636 0.0
H380 H 0.46365 0.00623 0.13824 0.0
H381 H 0.42842 0.03606 0.10724 0.0
C382 C 0.50065 0.00054 0.48784 0.0
C383 C 0.50729 0.01477 0.53528 0.0
C384 C 0.46702 0.97339 0.58274 0.0
C385 C 0.44934 0.96001 0.53494 0.0
N386 N 0.42503 0.96283 0.44245 0.0
N387 N 0.47298 0.0162 0.62726 0.0
C388 C 0.4589 0.97421 0.48756 0.0
C389 C 0.48401 0.00164 0.5827 0.0
N390 N 0.53693 0.01191 0.44325 0.0
N391 N 0.4721 0.95913 0.62793 0.0
H392 H 0.48156 0.03706 0.62885 0.0
H393 H 0.44539 0.00788 0.66158 0.0
H394 H 0.46102 0.93837 0.62994 0.0
H395 H 0.49631 0.96761 0.66279 0.0
H396 H 0.5425 0.00141 0.40844 0.0
H397 H 0.57157 0.03088 0.44234 0.0
H398 H 0.42185 0.97326 0.40747 0.0
H399 H 0.38947 0.94398 0.44117 0.0
C400 C 0.21164 0.25544 0.07269 0.0
C401 C 0.17896 0.26633 0.02464 0.0
C402 C 0.26937 0.23008 0.97946 0.0
C403 C 0.31414 0.22174 0.02712 0.0
N404 N 0.34431 0.23069 0.11768 0.0
N405 N 0.19969 0.26756 0.93142 0.0
C406 C 0.29029 0.23577 0.07335 0.0
C407 C 0.21405 0.25469 0.97763 0.0
N408 N 0.16577 0.26346 0.11768 0.0
N409 N 0.27411 0.21403 0.93652 0.0
H410 H 0.16339 0.28616 0.92794 0.0
H411 H 0.23347 0.26097 0.89711 0.0
H412 H 0.30912 0.19518 0.93611 0.0
H413 H 0.23341 0.21826 0.9027 0.0
H414 H 0.18085 0.25444 0.15332 0.0
H415 H 0.10453 0.27702 0.11842 0.0
H416 H 0.33583 0.24206 0.15133 0.0
H417 H 0.40541 0.2171 0.11902 0.0
C418 C 0.70795 0.7568 0.97536 0.0
C419 C 0.67042 0.76597 0.02388 0.0
C420 C 0.77281 0.73154 0.06771 0.0
C421 C 0.79801 0.71999 0.01915 0.0
N422 N 0.76668 0.71833 0.92663 0.0
N423 N 0.65097 0.75847 0.11563 0.0
C424 C 0.75942 0.73165 0.97279 0.0
C425 C 0.69804 0.75222 0.06994 0.0
N426 N 0.69982 0.77254 0.93213 0.0
N427 N 0.82219 0.72318 0.11159 0.0
H428 H 0.59294 0.77291 0.11833 0.0
H429 H 0.66171 0.74739 0.14948 0.0
H430 H 0.88055 0.70877 0.11104 0.0
H431 H 0.81314 0.73259 0.14736 0.0
H432 H 0.7354 0.76767 0.89724 0.0
H433 H 0.66748 0.79174 0.93231 0.0
H434 H 0.72994 0.725 0.89311 0.0
H435 H 0.8 0.69937 0.92263 0.0
C436 C 0.19941 0.72434 0.5511 0.0
C437 C 0.16277 0.71517 0.50231 0.0
C438 C 0.27125 0.74856 0.45918 0.0
C439 C 0.29534 0.76025 0.50782 0.0
N440 N 0.25997 0.76265 0.59985 0.0
N441 N 0.14916 0.72207 0.41011 0.0
C442 C 0.25341 0.74913 0.55386 0.0
C443 C 0.19441 0.72836 0.45634 0.0
N444 N 0.18821 0.70887 0.5945 0.0
N445 N 0.32347 0.75637 0.41584 0.0
H446 H 0.08983 0.70801 0.40691 0.0
H447 H 0.1629 0.7328 0.37613 0.0
H448 H 0.38302 0.77046 0.41694 0.0
H449 H 0.31528 0.74681 0.38016 0.0
H450 H 0.22288 0.71371 0.62971 0.0
H451 H 0.15445 0.68983 0.59428 0.0
H452 H 0.22082 0.75644 0.63295 0.0
H453 H 0.29539 0.78136 0.60401 0.0
C454 C 0.75937 0.2514 0.56121 0.0
C455 C 0.80051 0.25996 0.51296 0.0
C456 C 0.69889 0.22541 0.46889 0.0
C457 C 0.66997 0.21441 0.51742 0.0
N458 N 0.69575 0.21359 0.61039 0.0
N459 N 0.82594 0.2512 0.42201 0.0
C460 C 0.70646 0.22642 0.56389 0.0
C461 C 0.77525 0.24574 0.46709 0.0
N462 N 0.76528 0.26756 0.60397 0.0
N463 N 0.65146 0.21691 0.42456 0.0
H464 H 0.88527 0.26532 0.41976 0.0
H465 H 0.81673 0.23973 0.38852 0.0
H466 H 0.59168 0.20288 0.42472 0.0
H467 H 0.66353 0.22593 0.38864 0.0
H468 H 0.72707 0.26313 0.63837 0.0
H469 H 0.7985 0.28666 0.60376 0.0
H470 H 0.73096 0.22047 0.64417 0.0
H471 H 0.66104 0.1948 0.61457 0.0
C472 C -0.01048 0.3418 0.234 0.0
C473 C 0.00312 0.36726 0.20987 0.0
C474 C 0.96337 0.38997 0.2914 0.0
C475 C 0.96248 0.36458 0.31671 0.0
N476 N -0.00524 0.3166 0.31402 0.0
N477 N 0.02027 0.4156 0.21704 0.0
C478 C 0.98093 0.34052 0.28858 0.0
C479 C -0.00534 0.39141 0.23891 0.0
N480 N 0.98059 0.31893 0.20474 0.0
N481 N 0.93089 0.41255 0.31692 0.0
H482 H 0.04549 0.41746 0.17891 0.0
H483 H 0.02579 0.43347 0.23806 0.0
H484 H 0.90479 0.41219 0.35505 0.0
H485 H 0.92021 0.43111 0.2988 0.0
H486 H 0.96003 0.30029 0.22018 0.0
H487 H -0.01675 0.31899 0.16439 0.0
H488 H 0.01938 0.29907 0.29562 0.0
H489 H -0.00845 0.31479 0.35419 0.0
C490 C 0.96471 0.63958 0.23108 0.0
C491 C 0.95277 0.61508 0.20343 0.0
C492 C -0.0093 0.58925 0.2817 0.0
C493 C -0.00735 0.61367 0.31022 0.0
N494 N 0.95908 0.66156 0.31448 0.0
N495 N 0.93442 0.56663 0.20364 0.0
C496 C 0.97332 0.63873 0.28565 0.0
C497 C 0.96011 0.58987 0.22906 0.0
N498 N 0.97236 0.66356 0.2052 0.0
N499 N 0.02161 0.56568 0.30431 0.0
H500 H 0.90935 0.56636 0.16528 0.0
H501 H 0.92843 0.54798 0.22191 0.0
H502 H 0.04625 0.56449 0.34268 0.0
H503 H 0.03187 0.54781 0.28379 0.0
H504 H -0.00781 0.68161 0.22327 0.0
H505 H 0.96877 0.66512 0.16499 0.0
H506 H 0.93398 0.67973 0.2987 0.0
H507 H 0.96234 0.66179 0.35481 0.0
C508 C 0.95382 0.6525 0.7812 0.0
C509 C 0.95625 0.62822 0.81022 0.0
C510 C 0.98024 0.60265 0.73076 0.0
C511 C -0.00561 0.627 0.70292 0.0
N512 N 0.01881 0.67542 0.70563 0.0
N513 N 0.00528 0.58112 0.81318 0.0
C514 C -0.01183 0.65211 0.72919 0.0
C515 C 0.9794 0.60351 0.78527 0.0
N516 N 0.91525 0.67565 0.80222 0.0
N517 N 0.96225 0.5789 0.70559 0.0
H518 H 0.01515 0.58146 0.85322 0.0
H519 H 0.02985 0.56329 0.79579 0.0
H520 H 0.95173 0.57781 0.66566 0.0
H521 H 0.94421 0.5611 0.72506 0.0
H522 H 0.9039 0.69316 0.78066 0.0
H523 H 0.88392 0.67651 0.83928 0.0
H524 H 0.02377 0.69377 0.72517 0.0
H525 H 0.0504 0.6759 0.66864 0.0
C526 C 0.98178 0.37772 0.73634 0.0
C527 C 0.96471 0.35284 0.71067 0.0
C528 C 0.00271 0.32885 0.79121 0.0
C529 C 0.00489 0.35383 0.81805 0.0
N530 N 0.96489 0.40148 0.81713 0.0
N531 N 0.93609 0.30475 0.71708 0.0
C532 C -0.01481 0.37816 0.79096 0.0
C533 C 0.96857 0.32833 0.73902 0.0
N534 N -0.00013 0.40076 0.70885 0.0
N535 N 0.03697 0.30582 0.81452 0.0
H536 H 0.90594 0.30367 0.67974 0.0
H537 H 0.92868 0.28687 0.73795 0.0
H538 H 0.06721 0.30551 0.85189 0.0
H539 H 0.04565 0.28766 0.79473 0.0
H540 H 0.02084 0.41889 0.72638 0.0
H541 H 0.00675 0.40092 0.66868 0.0
H542 H 0.94209 0.41917 0.79857 0.0
H543 H 0.95809 0.40222 0.85729 0.0
C544 C 0.47648 0.84176 0.24138 0.0
C545 C 0.49811 0.86683 0.21729 0.0
C546 C 0.46485 0.89043 0.2986 0.0
C547 C 0.45546 0.86517 0.32391 0.0
N548 N 0.47177 0.81662 0.32148 0.0
N549 N 0.52989 0.91467 0.22423 0.0
C550 C 0.46637 0.84074 0.29592 0.0
C551 C 0.49684 0.89113 0.24619 0.0
N552 N 0.46166 0.81911 0.2121 0.0
N553 N 0.43984 0.91367 0.3241 0.0
H554 H 0.5557 0.91594 0.18611 0.0
H555 H 0.54075 0.93241 0.24514 0.0
H556 H 0.41376 0.91389 0.36224 0.0
H557 H 0.43533 0.9324 0.30601 0.0
H558 H 0.43501 0.80097 0.22738 0.0
H559 H 0.46607 0.81904 0.1718 0.0
H560 H 0.49084 0.79857 0.30329 0.0
H561 H 0.46701 0.81491 0.36163 0.0
C562 C 0.49924 0.14097 0.2512 0.0
C563 C 0.47656 0.11703 0.22342 0.0
C564 C 0.49898 0.09025 0.30203 0.0
C565 C 0.51076 0.11444 0.33066 0.0
N566 N 0.50111 0.16308 0.33453 0.0
N567 N 0.43648 0.06948 0.22327 0.0
C568 C 0.50519 0.13992 0.30586 0.0
C569 C 0.47138 0.09178 0.24903 0.0
N570 N 0.51909 0.16446 0.22535 0.0
N571 N 0.51762 0.06589 0.32499 0.0
H572 H 0.4135 0.06992 0.18458 0.0
H573 H 0.42118 0.05117 0.24143 0.0
H574 H 0.53967 0.06399 0.36365 0.0
H575 H 0.52057 0.04779 0.3046 0.0
H576 H 0.54687 0.18175 0.24355 0.0
H577 H 0.51742 0.16604 0.18511 0.0
H578 H 0.48615 0.18196 0.31851 0.0
H579 H 0.50255 0.16324 0.37488 0.0
C580 C 0.40803 0.14287 0.79757 0.0
C581 C 0.46288 0.12525 0.83056 0.0
C582 C 0.51724 0.09828 0.75651 0.0
C583 C 0.47531 0.11812 0.72281 0.0
N584 N 0.33292 0.14893 0.71292 0.0
N585 N 0.57906 0.08794 0.84257 0.0
C586 C 0.40712 0.13773 0.74361 0.0
C587 C 0.52007 0.10343 0.81036 0.0
N588 N 0.35753 0.16461 0.81774 0.0
N589 N 0.54249 0.0733 0.73826 0.0
H590 H 0.5829 0.09105 0.88248 0.0
H591 H 0.63138 0.07368 0.82917 0.0
H592 H 0.5217 0.06669 0.70148 0.0
H593 H 0.56662 0.05753 0.76195 0.0
H594 H 0.32643 0.17992 0.79503 0.0
H595 H 0.35393 0.16849 0.85736 0.0
H596 H 0.27629 0.16188 0.72667 0.0
H597 H 0.31748 0.14194 0.67564 0.0
C598 C 0.49249 0.87725 0.74136 0.0
C599 C 0.46307 0.85256 0.7179 0.0
C600 C 0.49224 0.82942 0.80012 0.0
C601 C 0.50464 0.85476 0.82511 0.0
N602 N 0.48725 0.90333 0.81987 0.0
N603 N 0.41394 0.80583 0.72834 0.0
C604 C 0.49646 0.8789 0.79591 0.0
C605 C 0.45689 0.82876 0.74819 0.0
N606 N 0.52123 0.89883 0.71185 0.0
N607 N 0.51817 0.80605 0.82488 0.0
H608 H 0.38273 0.80479 0.69121 0.0
H609 H 0.39938 0.78878 0.75078 0.0
H610 H 0.55027 0.80565 0.86183 0.0
H611 H 0.51889 0.78738 0.80637 0.0
H612 H 0.55101 0.9165 0.7278 0.0
H613 H 0.52762 0.89786 0.67167 0.0
H614 H 0.47271 0.92112 0.79961 0.0
H615 H 0.48116 0.9054 0.85987 0.0
loop_
_geom_bond_atom_site_label_1
_geom_bond_atom_site_label_2
_geom_bond_distance
_geom_bond_site_symmetry_2
_ccdc_geom_bond_type
O0 Zn1 1.953 . S
O0 C16 1.225 1_556 S
Zn1 O0 1.953 . S
Zn1 O2 1.949 1_556 S
Zn1 O8 1.919 . S
Zn1 O13 1.924 . S
O2 Zn1 1.949 1_554 S
O2 Zn3 1.923 1_454 S
O2 Zn4 1.950 . S
O2 Zn5 1.945 1_455 S
Zn3 O2 1.923 1_656 S
Zn3 O6 1.933 1_556 S
Zn3 O9 1.941 1_655 S
Zn3 O10 1.965 1_656 S
Zn4 O2 1.950 . S
Zn4 O11 1.938 . S
Zn4 O12 1.906 . S
Zn4 O22 1.953 . S
Zn5 O2 1.945 1_655 S
Zn5 O7 1.932 . S
Zn5 O14 1.977 . S
Zn5 O15 1.910 . S
O6 Zn3 1.933 1_554 S
O6 C17 1.226 . S
O7 Zn5 1.932 . S
O7 C17 1.307 . S
O8 Zn1 1.919 . S
O8 C19 1.253 . S
O9 Zn3 1.941 1_455 S
O9 C19 1.283 . S
O10 Zn3 1.965 1_454 S
O10 C18 1.303 . S
O11 Zn4 1.938 . S
O11 C18 1.247 . S
O12 Zn4 1.906 . S
O12 C20 1.304 . S
O13 Zn1 1.924 . S
O13 C21 1.311 1_556 S
O14 Zn5 1.977 . S
O14 C20 1.272 1_655 S
O15 Zn5 1.910 . S
O15 C21 1.231 1_655 S
C16 O0 1.225 1_554 S
C16 O22 1.298 . S
C17 O6 1.226 . S
C17 O7 1.307 . S
C18 O10 1.303 . S
C18 O11 1.247 . S
C19 O8 1.253 . S
C19 O9 1.283 . S
C20 O12 1.304 . S
C20 O14 1.272 1_455 S
C21 O13 1.311 1_554 S
C21 O15 1.231 1_455 S
O22 Zn4 1.953 . S
O22 C16 1.298 . S
O23 Zn24 1.953 . S
O23 C39 1.225 1_556 S
Zn24 O23 1.953 . S
Zn24 O25 1.949 1_556 S
Zn24 O31 1.919 . S
Zn24 O36 1.924 . S
O25 Zn24 1.949 1_554 S
O25 Zn26 1.923 1_654 S
O25 Zn27 1.950 . S
O25 Zn28 1.945 1_655 S
Zn26 O25 1.923 1_456 S
Zn26 O29 1.933 1_556 S
Zn26 O32 1.941 1_455 S
Zn26 O33 1.965 1_456 S
Zn27 O25 1.950 . S
Zn27 O34 1.938 . S
Zn27 O35 1.906 . S
Zn27 O45 1.953 . S
Zn28 O25 1.945 1_455 S
Zn28 O30 1.932 . S
Zn28 O37 1.977 . S
Zn28 O38 1.910 . S
O29 Zn26 1.933 1_554 S
O29 C40 1.226 . S
O30 Zn28 1.932 . S
O30 C40 1.307 . S
O31 Zn24 1.919 . S
O31 C42 1.253 . S
O32 Zn26 1.941 1_655 S
O32 C42 1.283 . S
O33 Zn26 1.965 1_654 S
O33 C41 1.303 . S
O34 Zn27 1.938 . S
O34 C41 1.247 . S
O35 Zn27 1.906 . S
O35 C43 1.304 . S
O36 Zn24 1.924 . S
O36 C44 1.311 1_556 S
O37 Zn28 1.977 . S
O37 C43 1.272 1_455 S
O38 Zn28 1.910 . S
O38 C44 1.231 1_455 S
C39 O23 1.225 1_554 S
C39 O45 1.298 . S
C40 O29 1.226 . S
C40 O30 1.307 . S
C41 O33 1.303 . S
C41 O34 1.247 . S
C42 O31 1.253 . S
C42 O32 1.283 . S
C43 O35 1.304 . S
C43 O37 1.272 1_655 S
C44 O36 1.311 1_554 S
C44 O38 1.231 1_655 S
O45 Zn27 1.953 . S
O45 C39 1.298 . S
O46 Zn47 1.953 . S
O46 C62 1.225 . S
Zn47 O46 1.953 . S
Zn47 O48 1.949 . S
Zn47 O54 1.919 . S
Zn47 O59 1.924 . S
O48 Zn47 1.949 . S
O48 Zn49 1.923 1_455 S
O48 Zn50 1.950 . S
O48 Zn51 1.945 1_455 S
Zn49 O48 1.923 1_655 S
Zn49 O52 1.933 . S
Zn49 O55 1.941 1_655 S
Zn49 O56 1.965 1_655 S
Zn50 O48 1.950 . S
Zn50 O57 1.938 . S
Zn50 O58 1.906 . S
Zn50 O68 1.953 . S
Zn51 O48 1.945 1_655 S
Zn51 O53 1.932 . S
Zn51 O60 1.977 . S
Zn51 O61 1.910 . S
O52 Zn49 1.933 . S
O52 C63 1.226 . S
O53 Zn51 1.932 . S
O53 C63 1.307 . S
O54 Zn47 1.919 . S
O54 C65 1.253 . S
O55 Zn49 1.941 1_455 S
O55 C65 1.283 . S
O56 Zn49 1.965 1_455 S
O56 C64 1.303 . S
O57 Zn50 1.938 . S
O57 C64 1.247 . S
O58 Zn50 1.906 . S
O58 C66 1.304 . S
O59 Zn47 1.924 . S
O59 C67 1.311 . S
O60 Zn51 1.977 . S
O60 C66 1.272 1_655 S
O61 Zn51 1.910 . S
O61 C67 1.231 1_655 S
C62 O46 1.225 . S
C62 O68 1.298 . S
C63 O52 1.226 . S
C63 O53 1.307 . S
C64 O56 1.303 . S
C64 O57 1.247 . S
C65 O54 1.253 . S
C65 O55 1.283 . S
C66 O58 1.304 . S
C66 O60 1.272 1_455 S
C67 O59 1.311 . S
C67 O61 1.231 1_455 S
O68 Zn50 1.953 . S
O68 C62 1.298 . S
O69 Zn70 1.953 . S
O69 C85 1.225 . S
Zn70 O69 1.953 . S
Zn70 O71 1.949 . S
Zn70 O77 1.919 . S
Zn70 O82 1.924 . S
O71 Zn70 1.949 . S
O71 Zn72 1.923 1_655 S
O71 Zn73 1.950 . S
O71 Zn74 1.945 1_655 S
Zn72 O71 1.923 1_455 S
Zn72 O75 1.933 . S
Zn72 O78 1.941 1_455 S
Zn72 O79 1.965 1_455 S
Zn73 O71 1.950 . S
Zn73 O80 1.938 . S
Zn73 O81 1.906 . S
Zn73 O91 1.953 . S
Zn74 O71 1.945 1_455 S
Zn74 O76 1.932 . S
Zn74 O83 1.977 . S
Zn74 O84 1.910 . S
O75 Zn72 1.933 . S
O75 C86 1.226 . S
O76 Zn74 1.932 . S
O76 C86 1.307 . S
O77 Zn70 1.919 . S
O77 C88 1.253 . S
O78 Zn72 1.941 1_655 S
O78 C88 1.283 . S
O79 Zn72 1.965 1_655 S
O79 C87 1.303 . S
O80 Zn73 1.938 . S
O80 C87 1.247 . S
O81 Zn73 1.906 . S
O81 C89 1.304 . S
O82 Zn70 1.924 . S
O82 C90 1.311 . S
O83 Zn74 1.977 . S
O83 C89 1.272 1_455 S
O84 Zn74 1.910 . S
O84 C90 1.231 1_455 S
C85 O69 1.225 . S
C85 O91 1.298 . S
C86 O75 1.226 . S
C86 O76 1.307 . S
C87 O79 1.303 . S
C87 O80 1.247 . S
C88 O77 1.253 . S
C88 O78 1.283 . S
C89 O81 1.304 . S
C89 O83 1.272 1_655 S
C90 O82 1.311 . S
C90 O84 1.231 1_655 S
O91 Zn73 1.953 . S
O91 C85 1.298 . S
O92 Zn93 1.953 . S
O92 C108 1.225 1_556 S
Zn93 O92 1.953 . S
Zn93 O94 1.949 1_556 S
Zn93 O100 1.919 . S
Zn93 O105 1.924 . S
O94 Zn93 1.949 1_554 S
O94 Zn95 1.923 1_554 S
O94 Zn96 1.950 . S
O94 Zn97 1.945 . S
Zn95 O94 1.923 1_556 S
Zn95 O98 1.933 1_556 S
Zn95 O101 1.941 . S
Zn95 O102 1.965 1_556 S
Zn96 O94 1.950 . S
Zn96 O103 1.938 . S
Zn96 O104 1.906 . S
Zn96 O114 1.953 . S
Zn97 O94 1.945 . S
Zn97 O99 1.932 . S
Zn97 O106 1.977 . S
Zn97 O107 1.910 . S
O98 Zn95 1.933 1_554 S
O98 C109 1.226 . S
O99 Zn97 1.932 . S
O99 C109 1.307 . S
O100 Zn93 1.919 . S
O100 C111 1.253 . S
O101 Zn95 1.941 . S
O101 C111 1.283 . S
O102 Zn95 1.965 1_554 S
O102 C110 1.303 . S
O103 Zn96 1.938 . S
O103 C110 1.247 . S
O104 Zn96 1.906 . S
O104 C112 1.304 . S
O105 Zn93 1.924 . S
O105 C113 1.311 1_556 S
O106 Zn97 1.977 . S
O106 C112 1.272 . S
O107 Zn97 1.910 . S
O107 C113 1.231 . S
C108 O92 1.225 1_554 S
C108 O114 1.298 . S
C109 O98 1.226 . S
C109 O99 1.307 . S
C110 O102 1.303 . S
C110 O103 1.247 . S
C111 O100 1.253 . S
C111 O101 1.283 . S
C112 O104 1.304 . S
C112 O106 1.272 . S
C113 O105 1.311 1_554 S
C113 O107 1.231 . S
O114 Zn96 1.953 . S
O114 C108 1.298 . S
O115 Zn116 1.953 . S
O115 C131 1.225 1_556 S
Zn116 O115 1.953 . S
Zn116 O117 1.949 1_556 S
Zn116 O123 1.919 . S
Zn116 O128 1.924 . S
O117 Zn116 1.949 1_554 S
O117 Zn118 1.923 1_554 S
O117 Zn119 1.950 . S
O117 Zn120 1.945 . S
Zn118 O117 1.923 1_556 S
Zn118 O121 1.933 1_556 S
Zn118 O124 1.941 . S
Zn118 O125 1.965 1_556 S
Zn119 O117 1.950 . S
Zn119 O126 1.938 . S
Zn119 O127 1.906 . S
Zn119 O137 1.953 . S
Zn120 O117 1.945 . S
Zn120 O122 1.932 . S
Zn120 O129 1.977 . S
Zn120 O130 1.910 . S
O121 Zn118 1.933 1_554 S
O121 C132 1.226 . S
O122 Zn120 1.932 . S
O122 C132 1.307 . S
O123 Zn116 1.919 . S
O123 C134 1.253 . S
O124 Zn118 1.941 . S
O124 C134 1.283 . S
O125 Zn118 1.965 1_554 S
O125 C133 1.303 . S
O126 Zn119 1.938 . S
O126 C133 1.247 . S
O127 Zn119 1.906 . S
O127 C135 1.304 . S
O128 Zn116 1.924 . S
O128 C136 1.311 1_556 S
O129 Zn120 1.977 . S
O129 C135 1.272 . S
O130 Zn120 1.910 . S
O130 C136 1.231 . S
C131 O115 1.225 1_554 S
C131 O137 1.298 . S
C132 O121 1.226 . S
C132 O122 1.307 . S
C133 O125 1.303 . S
C133 O126 1.247 . S
C134 O123 1.253 . S
C134 O124 1.283 . S
C135 O127 1.304 . S
C135 O129 1.272 . S
C136 O128 1.311 1_554 S
C136 O130 1.231 . S
O137 Zn119 1.953 . S
O137 C131 1.298 . S
O138 Zn139 1.953 . S
O138 C154 1.225 . S
Zn139 O138 1.953 . S
Zn139 O140 1.949 . S
Zn139 O146 1.919 . S
Zn139 O151 1.924 . S
O140 Zn139 1.949 . S
O140 Zn141 1.923 . S
O140 Zn142 1.950 . S
O140 Zn143 1.945 . S
Zn141 O140 1.923 . S
Zn141 O144 1.933 . S
Zn141 O147 1.941 . S
Zn141 O148 1.965 . S
Zn142 O140 1.950 . S
Zn142 O149 1.938 . S
Zn142 O150 1.906 . S
Zn142 O160 1.953 . S
Zn143 O140 1.945 . S
Zn143 O145 1.932 . S
Zn143 O152 1.977 . S
Zn143 O153 1.910 . S
O144 Zn141 1.933 . S
O144 C155 1.226 . S
O145 Zn143 1.932 . S
O145 C155 1.307 . S
O146 Zn139 1.919 . S
O146 C157 1.253 . S
O147 Zn141 1.941 . S
O147 C157 1.283 . S
O148 Zn141 1.965 . S
O148 C156 1.303 . S
O149 Zn142 1.938 . S
O149 C156 1.247 . S
O150 Zn142 1.906 . S
O150 C158 1.304 . S
O151 Zn139 1.924 . S
O151 C159 1.311 . S
O152 Zn143 1.977 . S
O152 C158 1.272 . S
O153 Zn143 1.910 . S
O153 C159 1.231 . S
C154 O138 1.225 . S
C154 O160 1.298 . S
C155 O144 1.226 . S
C155 O145 1.307 . S
C156 O148 1.303 . S
C156 O149 1.247 . S
C157 O146 1.253 . S
C157 O147 1.283 . S
C158 O150 1.304 . S
C158 O152 1.272 . S
C159 O151 1.311 . S
C159 O153 1.231 . S
O160 Zn142 1.953 . S
O160 C154 1.298 . S
O161 Zn162 1.953 . S
O161 C177 1.225 . S
Zn162 O161 1.953 . S
Zn162 O163 1.949 . S
Zn162 O169 1.919 . S
Zn162 O174 1.924 . S
O163 Zn162 1.949 . S
O163 Zn164 1.923 . S
O163 Zn165 1.950 . S
O163 Zn166 1.945 . S
Zn164 O163 1.923 . S
Zn164 O167 1.933 . S
Zn164 O170 1.941 . S
Zn164 O171 1.965 . S
Zn165 O163 1.950 . S
Zn165 O172 1.938 . S
Zn165 O173 1.906 . S
Zn165 O183 1.953 . S
Zn166 O163 1.945 . S
Zn166 O168 1.932 . S
Zn166 O175 1.977 . S
Zn166 O176 1.910 . S
O167 Zn164 1.933 . S
O167 C178 1.226 . S
O168 Zn166 1.932 . S
O168 C178 1.307 . S
O169 Zn162 1.919 . S
O169 C180 1.253 . S
O170 Zn164 1.941 . S
O170 C180 1.283 . S
O171 Zn164 1.965 . S
O171 C179 1.303 . S
O172 Zn165 1.938 . S
O172 C179 1.247 . S
O173 Zn165 1.906 . S
O173 C181 1.304 . S
O174 Zn162 1.924 . S
O174 C182 1.311 . S
O175 Zn166 1.977 . S
O175 C181 1.272 . S
O176 Zn166 1.910 . S
O176 C182 1.231 . S
C177 O161 1.225 . S
C177 O183 1.298 . S
C178 O167 1.226 . S
C178 O168 1.307 . S
C179 O171 1.303 . S
C179 O172 1.247 . S
C180 O169 1.253 . S
C180 O170 1.283 . S
C181 O173 1.304 . S
C181 O175 1.272 . S
C182 O174 1.311 . S
C182 O176 1.231 . S
O183 Zn165 1.953 . S
O183 C177 1.298 . S
C184 C185 1.363 1_556 S
C184 C190 1.379 . S
C184 N192 1.356 . S
C185 C184 1.363 1_554 S
C185 C191 1.363 . S
C186 C187 1.363 . S
C186 C191 1.379 . S
C186 N193 1.356 . S
C187 C186 1.363 . S
C187 C190 1.363 1_554 S
N188 C190 1.356 . S
N188 H200 0.984 . S
N188 H201 0.985 . S
N189 C191 1.356 . S
N189 H194 0.984 . S
N189 H195 0.985 . S
C190 C184 1.379 . S
C190 C187 1.363 1_556 S
C190 N188 1.356 . S
C191 C185 1.363 . S
C191 C186 1.379 . S
C191 N189 1.356 . S
N192 C184 1.356 . S
N192 H198 0.984 . S
N192 H199 0.984 . S
N193 C186 1.356 . S
N193 H196 0.984 . S
N193 H197 0.985 . S
H194 N189 0.984 . S
H195 N189 0.985 . S
H196 N193 0.984 . S
H197 N193 0.985 . S
H198 N192 0.984 . S
H199 N192 0.984 . S
H200 N188 0.984 . S
H201 N188 0.985 . S
C202 C203 1.363 . S
C202 C208 1.379 . S
C202 N210 1.356 . S
C203 C202 1.363 . S
C203 C209 1.363 1_554 S
C204 C205 1.363 1_556 S
C204 C209 1.379 . S
C204 N211 1.356 . S
C205 C204 1.363 1_554 S
C205 C208 1.363 . S
N206 C208 1.356 . S
N206 H218 0.984 . S
N206 H219 0.985 . S
N207 C209 1.356 . S
N207 H212 0.984 . S
N207 H213 0.985 . S
C208 C202 1.379 . S
C208 C205 1.363 . S
C208 N206 1.356 . S
C209 C203 1.363 1_556 S
C209 C204 1.379 . S
C209 N207 1.356 . S
N210 C202 1.356 . S
N210 H216 0.984 . S
N210 H217 0.984 . S
N211 C204 1.356 . S
N211 H214 0.984 . S
N211 H215 0.985 . S
H212 N207 0.984 . S
H213 N207 0.985 . S
H214 N211 0.984 . S
H215 N211 0.985 . S
H216 N210 0.984 . S
H217 N210 0.984 . S
H218 N206 0.984 . S
H219 N206 0.985 . S
C220 C221 1.363 . S
C220 C226 1.379 . S
C220 N228 1.356 . S
C221 C220 1.363 . S
C221 C227 1.363 . S
C222 C223 1.363 . S
C222 C227 1.379 . S
C222 N229 1.356 . S
C223 C222 1.363 . S
C223 C226 1.363 . S
N224 C226 1.356 . S
N224 H236 0.984 . S
N224 H237 0.985 . S
N225 C227 1.356 . S
N225 H230 0.984 . S
N225 H231 0.985 . S
C226 C220 1.379 . S
C226 C223 1.363 . S
C226 N224 1.356 . S
C227 C221 1.363 . S
C227 C222 1.379 . S
C227 N225 1.356 . S
N228 C220 1.356 . S
N228 H234 0.984 . S
N228 H235 0.984 . S
N229 C222 1.356 . S
N229 H232 0.984 . S
N229 H233 0.985 . S
H230 N225 0.984 . S
H231 N225 0.985 . S
H232 N229 0.984 . S
H233 N229 0.985 . S
H234 N228 0.984 . S
H235 N228 0.984 . S
H236 N224 0.984 . S
H237 N224 0.985 . S
C238 C239 1.363 . S
C238 C244 1.379 . S
C238 N246 1.356 . S
C239 C238 1.363 . S
C239 C245 1.363 . S
C240 C241 1.363 . S
C240 C245 1.379 . S
C240 N247 1.356 . S
C241 C240 1.363 . S
C241 C244 1.363 . S
N242 C244 1.356 . S
N242 H254 0.984 . S
N242 H255 0.985 . S
N243 C245 1.356 . S
N243 H248 0.984 . S
N243 H249 0.985 . S
C244 C238 1.379 . S
C244 C241 1.363 . S
C244 N242 1.356 . S
C245 C239 1.363 . S
C245 C240 1.379 . S
C245 N243 1.356 . S
N246 C238 1.356 . S
N246 H252 0.984 . S
N246 H253 0.984 . S
N247 C240 1.356 . S
N247 H250 0.984 . S
N247 H251 0.985 . S
H248 N243 0.984 . S
H249 N243 0.985 . S
H250 N247 0.984 . S
H251 N247 0.985 . S
H252 N246 0.984 . S
H253 N246 0.984 . S
H254 N242 0.984 . S
H255 N242 0.985 . S
C256 C257 1.363 1_556 S
C256 C262 1.379 1_655 S
C256 N264 1.356 . S
C257 C256 1.363 1_554 S
C257 C263 1.363 1_655 S
C258 C259 1.363 . S
C258 C263 1.379 . S
C258 N265 1.356 . S
C259 C258 1.363 . S
C259 C262 1.363 1_554 S
N260 C262 1.356 . S
N260 H272 0.984 . S
N260 H273 0.985 . S
N261 C263 1.356 1_655 S
N261 H266 0.984 . S
N261 H267 0.985 . S
C262 C256 1.379 1_455 S
C262 C259 1.363 1_556 S
C262 N260 1.356 . S
C263 C257 1.363 1_455 S
C263 C258 1.379 . S
C263 N261 1.356 1_455 S
N264 C256 1.356 . S
N264 H270 0.984 . S
N264 H271 0.984 . S
N265 C258 1.356 . S
N265 H268 0.984 . S
N265 H269 0.985 . S
H266 N261 0.984 . S
H267 N261 0.985 . S
H268 N265 0.984 . S
H269 N265 0.985 . S
H270 N264 0.984 . S
H271 N264 0.984 . S
H272 N260 0.984 . S
H273 N260 0.985 . S
C274 C275 1.363 1_655 S
C274 C280 1.379 . S
C274 N282 1.356 1_655 S
C275 C274 1.363 1_455 S
C275 C281 1.363 1_554 S
C276 C277 1.363 1_556 S
C276 C281 1.379 1_655 S
C276 N283 1.356 . S
C277 C276 1.363 1_554 S
C277 C280 1.363 . S
N278 C280 1.356 . S
N278 H290 0.984 . S
N278 H291 0.985 . S
N279 C281 1.356 . S
N279 H284 0.984 . S
N279 H285 0.985 . S
C280 C274 1.379 . S
C280 C277 1.363 . S
C280 N278 1.356 . S
C281 C275 1.363 1_556 S
C281 C276 1.379 1_455 S
C281 N279 1.356 . S
N282 C274 1.356 1_455 S
N282 H288 0.984 . S
N282 H289 0.984 . S
N283 C276 1.356 . S
N283 H286 0.984 . S
N283 H287 0.985 . S
H284 N279 0.984 . S
H285 N279 0.985 . S
H286 N283 0.984 . S
H287 N283 0.985 . S
H288 N282 0.984 . S
H289 N282 0.984 . S
H290 N278 0.984 . S
H291 N278 0.985 . S
C292 C293 1.363 . S
C292 C298 1.379 1_455 S
C292 N300 1.356 . S
C293 C292 1.363 . S
C293 C299 1.363 . S
C294 C295 1.363 1_455 S
C294 C299 1.379 . S
C294 N301 1.356 1_455 S
C295 C294 1.363 1_655 S
C295 C298 1.363 . S
N296 C298 1.356 . S
N296 H308 0.984 . S
N296 H309 0.985 . S
N297 C299 1.356 . S
N297 H302 0.984 . S
N297 H303 0.985 . S
C298 C292 1.379 1_655 S
C298 C295 1.363 . S
C298 N296 1.356 . S
C299 C293 1.363 . S
C299 C294 1.379 . S
C299 N297 1.356 . S
N300 C292 1.356 . S
N300 H306 0.984 . S
N300 H307 0.984 . S
N301 C294 1.356 1_655 S
N301 H304 0.984 . S
N301 H305 0.985 . S
H302 N297 0.984 . S
H303 N297 0.985 . S
H304 N301 0.984 . S
H305 N301 0.985 . S
H306 N300 0.984 . S
H307 N300 0.984 . S
H308 N296 0.984 . S
H309 N296 0.985 . S
C310 C311 1.363 . S
C310 C316 1.379 1_655 S
C310 N318 1.356 . S
C311 C310 1.363 . S
C311 C317 1.363 . S
C312 C313 1.363 1_655 S
C312 C317 1.379 . S
C312 N319 1.356 1_655 S
C313 C312 1.363 1_455 S
C313 C316 1.363 . S
N314 C316 1.356 . S
N314 H326 0.984 . S
N314 H327 0.985 . S
N315 C317 1.356 . S
N315 H320 0.984 . S
N315 H321 0.985 . S
C316 C310 1.379 1_455 S
C316 C313 1.363 . S
C316 N314 1.356 . S
C317 C311 1.363 . S
C317 C312 1.379 . S
C317 N315 1.356 . S
N318 C310 1.356 . S
N318 H324 0.984 . S
N318 H325 0.984 . S
N319 C312 1.356 1_455 S
N319 H322 0.984 . S
N319 H323 0.985 . S
H320 N315 0.984 . S
H321 N315 0.985 . S
H322 N319 0.984 . S
H323 N319 0.985 . S
H324 N318 0.984 . S
H325 N318 0.984 . S
H326 N314 0.984 . S
H327 N314 0.985 . S
C328 C329 1.363 1_455 S
C328 C334 1.379 . S
C328 N336 1.356 . S
C329 C328 1.363 1_655 S
C329 C335 1.363 1_554 S
C330 C331 1.363 1_656 S
C330 C335 1.379 . S
C330 N337 1.356 . S
C331 C330 1.363 1_454 S
C331 C334 1.363 . S
N332 C334 1.356 . S
N332 H344 0.984 . S
N332 H345 0.985 . S
N333 C335 1.356 . S
N333 H338 0.984 . S
N333 H339 0.985 . S
C334 C328 1.379 . S
C334 C331 1.363 . S
C334 N332 1.356 . S
C335 C329 1.363 1_556 S
C335 C330 1.379 . S
C335 N333 1.356 . S
N336 C328 1.356 . S
N336 H342 0.984 . S
N336 H343 0.984 1_455 S
N337 C330 1.356 . S
N337 H340 0.984 1_655 S
N337 H341 0.985 . S
H338 N333 0.984 . S
H339 N333 0.985 . S
H340 N337 0.984 1_455 S
H341 N337 0.985 . S
H342 N336 0.984 . S
H343 N336 0.984 1_655 S
H344 N332 0.984 . S
H345 N332 0.985 . S
C346 C347 1.363 1_455 S
C346 C352 1.379 . S
C346 N354 1.356 . S
C347 C346 1.363 1_655 S
C347 C353 1.363 . S
C348 C349 1.363 1_655 S
C348 C353 1.379 . S
C348 N355 1.356 . S
C349 C348 1.363 1_455 S
C349 C352 1.363 . S
N350 C352 1.356 . S
N350 H362 0.984 . S
N350 H363 0.985 . S
N351 C353 1.356 . S
N351 H356 0.984 . S
N351 H357 0.985 . S
C352 C346 1.379 . S
C352 C349 1.363 . S
C352 N350 1.356 . S
C353 C347 1.363 . S
C353 C348 1.379 . S
C353 N351 1.356 . S
N354 C346 1.356 . S
N354 H360 0.984 . S
N354 H361 0.984 1_455 S
N355 C348 1.356 . S
N355 H358 0.984 1_655 S
N355 H359 0.985 . S
H356 N351 0.984 . S
H357 N351 0.985 . S
H358 N355 0.984 1_455 S
H359 N355 0.985 . S
H360 N354 0.984 . S
H361 N354 0.984 1_655 S
H362 N350 0.984 . S
H363 N350 0.985 . S
C364 C365 1.363 . S
C364 C370 1.379 1_565 S
C364 N372 1.356 . S
C365 C364 1.363 . S
C365 C371 1.363 1_554 S
C366 C367 1.363 1_556 S
C366 C371 1.379 1_545 S
C366 N373 1.356 . S
C367 C366 1.363 1_554 S
C367 C370 1.363 . S
N368 C370 1.356 . S
N368 H380 0.984 . S
N368 H381 0.985 . S
N369 C371 1.356 . S
N369 H374 0.984 . S
N369 H375 0.985 . S
C370 C364 1.379 1_545 S
C370 C367 1.363 . S
C370 N368 1.356 . S
C371 C365 1.363 1_556 S
C371 C366 1.379 1_565 S
C371 N369 1.356 . S
N372 C364 1.356 . S
N372 H378 0.984 . S
N372 H379 0.984 . S
N373 C366 1.356 . S
N373 H376 0.984 . S
N373 H377 0.985 . S
H374 N369 0.984 . S
H375 N369 0.985 . S
H376 N373 0.984 . S
H377 N373 0.985 . S
H378 N372 0.984 . S
H379 N372 0.984 . S
H380 N368 0.984 . S
H381 N368 0.985 . S
C382 C383 1.363 . S
C382 C388 1.379 1_545 S
C382 N390 1.356 . S
C383 C382 1.363 . S
C383 C389 1.363 . S
C384 C385 1.363 . S
C384 C389 1.379 1_565 S
C384 N391 1.356 . S
C385 C384 1.363 . S
C385 C388 1.363 . S
N386 C388 1.356 . S
N386 H398 0.984 . S
N386 H399 0.985 . S
N387 C389 1.356 . S
N387 H392 0.984 . S
N387 H393 0.985 . S
C388 C382 1.379 1_565 S
C388 C385 1.363 . S
C388 N386 1.356 . S
C389 C383 1.363 . S
C389 C384 1.379 1_545 S
C389 N387 1.356 . S
N390 C382 1.356 . S
N390 H396 0.984 . S
N390 H397 0.984 . S
N391 C384 1.356 . S
N391 H394 0.984 . S
N391 H395 0.985 . S
H392 N387 0.984 . S
H393 N387 0.985 . S
H394 N391 0.984 . S
H395 N391 0.985 . S
H396 N390 0.984 . S
H397 N390 0.984 . S
H398 N386 0.984 . S
H399 N386 0.985 . S
C400 C401 1.363 . S
C400 C406 1.379 . S
C400 N408 1.356 . S
C401 C400 1.363 . S
C401 C407 1.363 1_554 S
C402 C403 1.363 1_556 S
C402 C407 1.379 . S
C402 N409 1.356 . S
C403 C402 1.363 1_554 S
C403 C406 1.363 . S
N404 C406 1.356 . S
N404 H416 0.984 . S
N404 H417 0.985 . S
N405 C407 1.356 . S
N405 H410 0.984 . S
N405 H411 0.985 . S
C406 C400 1.379 . S
C406 C403 1.363 . S
C406 N404 1.356 . S
C407 C401 1.363 1_556 S
C407 C402 1.379 . S
C407 N405 1.356 . S
N408 C400 1.356 . S
N408 H414 0.984 . S
N408 H415 0.984 . S
N409 C402 1.356 . S
N409 H412 0.984 . S
N409 H413 0.985 . S
H410 N405 0.984 . S
H411 N405 0.985 . S
H412 N409 0.984 . S
H413 N409 0.985 . S
H414 N408 0.984 . S
H415 N408 0.984 . S
H416 N404 0.984 . S
H417 N404 0.985 . S
C418 C419 1.363 1_556 S
C418 C424 1.379 . S
C418 N426 1.356 . S
C419 C418 1.363 1_554 S
C419 C425 1.363 . S
C420 C421 1.363 . S
C420 C425 1.379 . S
C420 N427 1.356 . S
C421 C420 1.363 . S
C421 C424 1.363 1_554 S
N422 C424 1.356 . S
N422 H434 0.984 . S
N422 H435 0.985 . S
N423 C425 1.356 . S
N423 H428 0.984 . S
N423 H429 0.985 . S
C424 C418 1.379 . S
C424 C421 1.363 1_556 S
C424 N422 1.356 . S
C425 C419 1.363 . S
C425 C420 1.379 . S
C425 N423 1.356 . S
N426 C418 1.356 . S
N426 H432 0.984 . S
N426 H433 0.984 . S
N427 C420 1.356 . S
N427 H430 0.984 . S
N427 H431 0.985 . S
H428 N423 0.984 . S
H429 N423 0.985 . S
H430 N427 0.984 . S
H431 N427 0.985 . S
H432 N426 0.984 . S
H433 N426 0.984 . S
H434 N422 0.984 . S
H435 N422 0.985 . S
C436 C437 1.363 . S
C436 C442 1.379 . S
C436 N444 1.356 . S
C437 C436 1.363 . S
C437 C443 1.363 . S
C438 C439 1.363 . S
C438 C443 1.379 . S
C438 N445 1.356 . S
C439 C438 1.363 . S
C439 C442 1.363 . S
N440 C442 1.356 . S
N440 H452 0.984 . S
N440 H453 0.985 . S
N441 C443 1.356 . S
N441 H446 0.984 . S
N441 H447 0.985 . S
C442 C436 1.379 . S
C442 C439 1.363 . S
C442 N440 1.356 . S
C443 C437 1.363 . S
C443 C438 1.379 . S
C443 N441 1.356 . S
N444 C436 1.356 . S
N444 H450 0.984 . S
N444 H451 0.984 . S
N445 C438 1.356 . S
N445 H448 0.984 . S
N445 H449 0.985 . S
H446 N441 0.984 . S
H447 N441 0.985 . S
H448 N445 0.984 . S
H449 N445 0.985 . S
H450 N444 0.984 . S
H451 N444 0.984 . S
H452 N440 0.984 . S
H453 N440 0.985 . S
C454 C455 1.363 . S
C454 C460 1.379 . S
C454 N462 1.356 . S
C455 C454 1.363 . S
C455 C461 1.363 . S
C456 C457 1.363 . S
C456 C461 1.379 . S
C456 N463 1.356 . S
C457 C456 1.363 . S
C457 C460 1.363 . S
N458 C460 1.356 . S
N458 H470 0.984 . S
N458 H471 0.985 . S
N459 C461 1.356 . S
N459 H464 0.984 . S
N459 H465 0.985 . S
C460 C454 1.379 . S
C460 C457 1.363 . S
C460 N458 1.356 . S
C461 C455 1.363 . S
C461 C456 1.379 . S
C461 N459 1.356 . S
N462 C454 1.356 . S
N462 H468 0.984 . S
N462 H469 0.984 . S
N463 C456 1.356 . S
N463 H466 0.984 . S
N463 H467 0.985 . S
H464 N459 0.984 . S
H465 N459 0.985 . S
H466 N463 0.984 . S
H467 N463 0.985 . S
H468 N462 0.984 . S
H469 N462 0.984 . S
H470 N458 0.984 . S
H471 N458 0.985 . S
C472 C473 1.362 1_655 S
C472 C478 1.379 . S
C472 N480 1.356 . S
C473 C472 1.362 1_455 S
C473 C479 1.364 . S
C474 C475 1.362 1_455 S
C474 C479 1.379 . S
C474 N481 1.356 . S
C475 C474 1.362 1_655 S
C475 C478 1.364 . S
N476 C478 1.356 . S
N476 H488 0.984 . S
N476 H489 0.985 . S
N477 C479 1.356 . S
N477 H482 0.984 . S
N477 H483 0.985 . S
C478 C472 1.379 . S
C478 C475 1.364 . S
C478 N476 1.356 . S
C479 C473 1.364 . S
C479 C474 1.379 . S
C479 N477 1.356 . S
N480 C472 1.356 . S
N480 H486 0.984 . S
N480 H487 0.984 . S
N481 C474 1.356 . S
N481 H484 0.984 . S
N481 H485 0.985 . S
H482 N477 0.984 . S
H483 N477 0.985 . S
H484 N481 0.984 . S
H485 N481 0.985 . S
H486 N480 0.984 . S
H487 N480 0.984 . S
H488 N476 0.984 . S
H489 N476 0.985 . S
C490 C491 1.362 1_455 S
C490 C496 1.379 . S
C490 N498 1.356 . S
C491 C490 1.362 1_655 S
C491 C497 1.364 . S
C492 C493 1.362 1_655 S
C492 C497 1.379 . S
C492 N499 1.356 . S
C493 C492 1.362 1_455 S
C493 C496 1.364 . S
N494 C496 1.356 . S
N494 H506 0.984 . S
N494 H507 0.985 . S
N495 C497 1.356 . S
N495 H500 0.984 . S
N495 H501 0.985 . S
C496 C490 1.379 . S
C496 C493 1.364 . S
C496 N494 1.356 . S
C497 C491 1.364 . S
C497 C492 1.379 . S
C497 N495 1.356 . S
N498 C490 1.356 . S
N498 H504 0.984 . S
N498 H505 0.984 . S
N499 C492 1.356 . S
N499 H502 0.984 . S
N499 H503 0.985 . S
H500 N495 0.984 . S
H501 N495 0.985 . S
H502 N499 0.984 . S
H503 N499 0.985 . S
H504 N498 0.984 . S
H505 N498 0.984 . S
H506 N494 0.984 . S
H507 N494 0.985 . S
C508 C509 1.363 . S
C508 C514 1.379 . S
C508 N516 1.356 . S
C509 C508 1.363 . S
C509 C515 1.363 1_655 S
C510 C511 1.363 . S
C510 C515 1.379 . S
C510 N517 1.356 . S
C511 C510 1.363 . S
C511 C514 1.363 1_455 S
N512 C514 1.356 . S
N512 H524 0.984 . S
N512 H525 0.985 . S
N513 C515 1.356 . S
N513 H518 0.984 . S
N513 H519 0.985 . S
C514 C508 1.379 . S
C514 C511 1.363 1_655 S
C514 N512 1.356 . S
C515 C509 1.363 1_455 S
C515 C510 1.379 . S
C515 N513 1.356 . S
N516 C508 1.356 . S
N516 H522 0.984 . S
N516 H523 0.984 . S
N517 C510 1.356 . S
N517 H520 0.984 . S
N517 H521 0.985 . S
H518 N513 0.984 . S
H519 N513 0.985 . S
H520 N517 0.984 . S
H521 N517 0.985 . S
H522 N516 0.984 . S
H523 N516 0.984 . S
H524 N512 0.984 . S
H525 N512 0.985 . S
C526 C527 1.363 1_455 S
C526 C532 1.379 . S
C526 N534 1.356 . S
C527 C526 1.363 1_655 S
C527 C533 1.363 . S
C528 C529 1.363 1_655 S
C528 C533 1.379 . S
C528 N535 1.356 . S
C529 C528 1.363 1_455 S
C529 C532 1.363 . S
N530 C532 1.356 . S
N530 H542 0.984 . S
N530 H543 0.985 . S
N531 C533 1.356 . S
N531 H536 0.984 . S
N531 H537 0.985 . S
C532 C526 1.379 . S
C532 C529 1.363 . S
C532 N530 1.356 . S
C533 C527 1.363 . S
C533 C528 1.379 . S
C533 N531 1.356 . S
N534 C526 1.356 . S
N534 H540 0.984 . S
N534 H541 0.984 . S
N535 C528 1.356 . S
N535 H538 0.984 . S
N535 H539 0.985 . S
H536 N531 0.984 . S
H537 N531 0.985 . S
H538 N535 0.984 . S
H539 N535 0.985 . S
H540 N534 0.984 . S
H541 N534 0.984 . S
H542 N530 0.984 . S
H543 N530 0.985 . S
C544 C545 1.363 . S
C544 C550 1.379 . S
C544 N552 1.356 . S
C545 C544 1.363 . S
C545 C551 1.363 . S
C546 C547 1.363 . S
C546 C551 1.379 . S
C546 N553 1.356 . S
C547 C546 1.363 . S
C547 C550 1.363 . S
N548 C550 1.356 . S
N548 H560 0.984 . S
N548 H561 0.985 . S
N549 C551 1.356 . S
N549 H554 0.984 . S
N549 H555 0.985 . S
C550 C544 1.379 . S
C550 C547 1.363 . S
C550 N548 1.356 . S
C551 C545 1.363 . S
C551 C546 1.379 . S
C551 N549 1.356 . S
N552 C544 1.356 . S
N552 H558 0.984 . S
N552 H559 0.984 . S
N553 C546 1.356 . S
N553 H556 0.984 . S
N553 H557 0.985 . S
H554 N549 0.984 . S
H555 N549 0.985 . S
H556 N553 0.984 . S
H557 N553 0.985 . S
H558 N552 0.984 . S
H559 N552 0.984 . S
H560 N548 0.984 . S
H561 N548 0.985 . S
C562 C563 1.363 . S
C562 C568 1.379 . S
C562 N570 1.356 . S
C563 C562 1.363 . S
C563 C569 1.363 . S
C564 C565 1.363 . S
C564 C569 1.379 . S
C564 N571 1.356 . S
C565 C564 1.363 . S
C565 C568 1.363 . S
N566 C568 1.356 . S
N566 H578 0.984 . S
N566 H579 0.985 . S
N567 C569 1.356 . S
N567 H572 0.984 . S
N567 H573 0.985 . S
C568 C562 1.379 . S
C568 C565 1.363 . S
C568 N566 1.356 . S
C569 C563 1.363 . S
C569 C564 1.379 . S
C569 N567 1.356 . S
N570 C562 1.356 . S
N570 H576 0.984 . S
N570 H577 0.984 . S
N571 C564 1.356 . S
N571 H574 0.984 . S
N571 H575 0.985 . S
H572 N567 0.984 . S
H573 N567 0.985 . S
H574 N571 0.984 . S
H575 N571 0.985 . S
H576 N570 0.984 . S
H577 N570 0.984 . S
H578 N566 0.984 . S
H579 N566 0.985 . S
C580 C581 1.363 . S
C580 C586 1.379 . S
C580 N588 1.356 . S
C581 C580 1.363 . S
C581 C587 1.363 . S
C582 C583 1.363 . S
C582 C587 1.379 . S
C582 N589 1.356 . S
C583 C582 1.363 . S
C583 C586 1.363 . S
N584 C586 1.356 . S
N584 H596 0.984 . S
N584 H597 0.985 . S
N585 C587 1.356 . S
N585 H590 0.984 . S
N585 H591 0.985 . S
C586 C580 1.379 . S
C586 C583 1.363 . S
C586 N584 1.356 . S
C587 C581 1.363 . S
C587 C582 1.379 . S
C587 N585 1.356 . S
N588 C580 1.356 . S
N588 H594 0.984 . S
N588 H595 0.984 . S
N589 C582 1.356 . S
N589 H592 0.984 . S
N589 H593 0.985 . S
H590 N585 0.984 . S
H591 N585 0.985 . S
H592 N589 0.984 . S
H593 N589 0.985 . S
H594 N588 0.984 . S
H595 N588 0.984 . S
H596 N584 0.984 . S
H597 N584 0.985 . S
C598 C599 1.363 . S
C598 C604 1.379 . S
C598 N606 1.356 . S
C599 C598 1.363 . S
C599 C605 1.363 . S
C600 C601 1.363 . S
C600 C605 1.379 . S
C600 N607 1.356 . S
C601 C600 1.363 . S
C601 C604 1.363 . S
N602 C604 1.356 . S
N602 H614 0.984 . S
N602 H615 0.985 . S
N603 C605 1.356 . S
N603 H608 0.984 . S
N603 H609 0.985 . S
C604 C598 1.379 . S
C604 C601 1.363 . S
C604 N602 1.356 . S
C605 C599 1.363 . S
C605 C600 1.379 . S
C605 N603 1.356 . S
N606 C598 1.356 . S
N606 H612 0.984 . S
N606 H613 0.984 . S
N607 C600 1.356 . S
N607 H610 0.984 . S
N607 H611 0.985 . S
H608 N603 0.984 . S
H609 N603 0.985 . S
H610 N607 0.984 . S
H611 N607 0.985 . S
H612 N606 0.984 . S
H613 N606 0.984 . S
H614 N602 0.984 . S
H615 N602 0.985 . S
C185 C16 1.382 . S
C187 C17 1.387 . S
C203 C40 1.387 . S
C205 C39 1.382 . S
C221 C63 1.387 . S
C223 C62 1.382 . S
C239 C85 1.382 . S
C241 C86 1.387 . S
C257 C108 1.382 . S
C259 C109 1.387 . S
C275 C131 1.382 . S
C277 C132 1.387 . S
C293 C155 1.387 . S
C295 C154 1.382 . S
C311 C178 1.387 . S
C313 C177 1.382 . S
C329 C44 1.528 . S
C331 C21 1.528 . S
C347 C90 1.528 . S
C349 C67 1.528 . S
C365 C113 1.528 . S
C367 C136 1.528 . S
C383 C159 1.528 . S
C385 C182 1.528 . S
C401 C18 1.495 . S
C403 C133 1.495 . S
C419 C110 1.495 . S
C421 C41 1.495 . S
C437 C64 1.495 . S
C439 C179 1.495 . S
C455 C87 1.495 . S
C457 C156 1.495 . S
C473 C20 1.457 . S
C475 C89 1.457 . S
C491 C43 1.457 . S
C493 C66 1.457 . S
C509 C42 1.447 . S
C511 C65 1.447 . S
C527 C88 1.447 . S
C529 C19 1.447 . S
C545 C112 1.457 . S
C547 C181 1.457 . S
C563 C135 1.457 . S
C565 C158 1.457 . S
C581 C134 1.447 . S
C583 C157 1.447 . S
C599 C180 1.447 . S
C601 C111 1.447 . S
