# Generated by pormake.
# Topology pem, (4)-cn, num edge types: 1
# Building blocks:
#     Node 0, Type 0, BuildingBlock: NAHDIM_clean_sbu_0, # of connection points: 4
#     Node 1, Type 0, BuildingBlock: NAHDIM_clean_sbu_0, # of connection points: 4
#     Node 2, Type 0, BuildingBlock: NAHDIM_clean_sbu_0, # of connection points: 4
#     Node 3, Type 0, BuildingBlock: NAHDIM_clean_sbu_0, # of connection points: 4
#     Node 4, Type 0, BuildingBlock: NAHDIM_clean_sbu_0, # of connection points: 4
#     Node 5, Type 0, BuildingBlock: NAHDIM_clean_sbu_0, # of connection points: 4
#     Node 6, Type 0, BuildingBlock: NAHDIM_clean_sbu_0, # of connection points: 4
#     Node 7, Type 0, BuildingBlock: NAHDIM_clean_sbu_0, # of connection points: 4
#     Node 8, Type 0, BuildingBlock: NAHDIM_clean_sbu_0, # of connection points: 4
#     Node 9, Type 0, BuildingBlock: NAHDIM_clean_sbu_0, # of connection points: 4
#     Node 10, Type 0, BuildingBlock: NAHDIM_clean_sbu_0, # of connection points: 4
#     Node 11, Type 0, BuildingBlock: NAHDIM_clean_sbu_0, # of connection points: 4
#     Node 12, Type 0, BuildingBlock: NAHDIM_clean_sbu_0, # of connection points: 4
#     Node 13, Type 0, BuildingBlock: NAHDIM_clean_sbu_0, # of connection points: 4
#     Node 14, Type 0, BuildingBlock: NAHDIM_clean_sbu_0, # of connection points: 4
#     Node 15, Type 0, BuildingBlock: NAHDIM_clean_sbu_0, # of connection points: 4
#     Node 16, Type 0, BuildingBlock: NAHDIM_clean_sbu_0, # of connection points: 4
#     Node 17, Type 0, BuildingBlock: NAHDIM_clean_sbu_0, # of connection points: 4
#     Node 18, Type 0, BuildingBlock: NAHDIM_clean_sbu_0, # of connection points: 4
#     Node 19, Type 0, BuildingBlock: NAHDIM_clean_sbu_0, # of connection points: 4
#     Node 20, Type 0, BuildingBlock: NAHDIM_clean_sbu_0, # of connection points: 4
#     Node 21, Type 0, BuildingBlock: NAHDIM_clean_sbu_0, # of connection points: 4
#     Node 22, Type 0, BuildingBlock: NAHDIM_clean_sbu_0, # of connection points: 4
#     Node 23, Type 0, BuildingBlock: NAHDIM_clean_sbu_0, # of connection points: 4
#     Node 24, Type 0, BuildingBlock: NAHDIM_clean_sbu_0, # of connection points: 4
#     Node 25, Type 0, BuildingBlock: NAHDIM_clean_sbu_0, # of connection points: 4
#     Node 26, Type 0, BuildingBlock: NAHDIM_clean_sbu_0, # of connection points: 4
#     Node 27, Type 0, BuildingBlock: NAHDIM_clean_sbu_0, # of connection points: 4
#     Node 28, Type 0, BuildingBlock: NAHDIM_clean_sbu_0, # of connection points: 4
#     Node 29, Type 0, BuildingBlock: NAHDIM_clean_sbu_0, # of connection points: 4
#     Node 30, Type 0, BuildingBlock: NAHDIM_clean_sbu_0, # of connection points: 4
#     Node 31, Type 0, BuildingBlock: NAHDIM_clean_sbu_0, # of connection points: 4
#     Edge 32, Type (0, 0), BuildingBlock: CIFDUS_clean_linker_0, # of connection points: 2
#     Edge 33, Type (0, 0), BuildingBlock: CIFDUS_clean_linker_0, # of connection points: 2
#     Edge 34, Type (0, 0), BuildingBlock: CIFDUS_clean_linker_0, # of connection points: 2
#     Edge 35, Type (0, 0), BuildingBlock: CIFDUS_clean_linker_0, # of connection points: 2
#     Edge 36, Type (0, 0), BuildingBlock: CIFDUS_clean_linker_0, # of connection points: 2
#     Edge 37, Type (0, 0), BuildingBlock: CIFDUS_clean_linker_0, # of connection points: 2
#     Edge 38, Type (0, 0), BuildingBlock: CIFDUS_clean_linker_0, # of connection points: 2
#     Edge 39, Type (0, 0), BuildingBlock: CIFDUS_clean_linker_0, # of connection points: 2
#     Edge 40, Type (0, 0), BuildingBlock: CIFDUS_clean_linker_0, # of connection points: 2
#     Edge 41, Type (0, 0), BuildingBlock: CIFDUS_clean_linker_0, # of connection points: 2
#     Edge 42, Type (0, 0), BuildingBlock: CIFDUS_clean_linker_0, # of connection points: 2
#     Edge 43, Type (0, 0), BuildingBlock: CIFDUS_clean_linker_0, # of connection points: 2
#     Edge 44, Type (0, 0), BuildingBlock: CIFDUS_clean_linker_0, # of connection points: 2
#     Edge 45, Type (0, 0), BuildingBlock: CIFDUS_clean_linker_0, # of connection points: 2
#     Edge 46, Type (0, 0), BuildingBlock: CIFDUS_clean_linker_0, # of connection points: 2
#     Edge 47, Type (0, 0), BuildingBlock: CIFDUS_clean_linker_0, # of connection points: 2
#     Edge 48, Type (0, 0), BuildingBlock: CIFDUS_clean_linker_0, # of connection points: 2
#     Edge 49, Type (0, 0), BuildingBlock: CIFDUS_clean_linker_0, # of connection points: 2
#     Edge 50, Type (0, 0), BuildingBlock: CIFDUS_clean_linker_0, # of connection points: 2
#     Edge 51, Type (0, 0), BuildingBlock: CIFDUS_clean_linker_0, # of connection points: 2
#     Edge 52, Type (0, 0), BuildingBlock: CIFDUS_clean_linker_0, # of connection points: 2
#     Edge 53, Type (0, 0), BuildingBlock: CIFDUS_clean_linker_0, # of connection points: 2
#     Edge 54, Type (0, 0), BuildingBlock: CIFDUS_clean_linker_0, # of connection points: 2
#     Edge 55, Type (0, 0), BuildingBlock: CIFDUS_clean_linker_0, # of connection points: 2
#     Edge 56, Type (0, 0), BuildingBlock: CIFDUS_clean_linker_0, # of connection points: 2
#     Edge 57, Type (0, 0), BuildingBlock: CIFDUS_clean_linker_0, # of connection points: 2
#     Edge 58, Type (0, 0), BuildingBlock: CIFDUS_clean_linker_0, # of connection points: 2
#     Edge 59, Type (0, 0), BuildingBlock: CIFDUS_clean_linker_0, # of connection points: 2
#     Edge 60, Type (0, 0), BuildingBlock: CIFDUS_clean_linker_0, # of connection points: 2
#     Edge 61, Type (0, 0), BuildingBlock: CIFDUS_clean_linker_0, # of connection points: 2
#     Edge 62, Type (0, 0), BuildingBlock: CIFDUS_clean_linker_0, # of connection points: 2
#     Edge 63, Type (0, 0), BuildingBlock: CIFDUS_clean_linker_0, # of connection points: 2
#     Edge 64, Type (0, 0), BuildingBlock: CIFDUS_clean_linker_0, # of connection points: 2
#     Edge 65, Type (0, 0), BuildingBlock: CIFDUS_clean_linker_0, # of connection points: 2
#     Edge 66, Type (0, 0), BuildingBlock: CIFDUS_clean_linker_0, # of connection points: 2
#     Edge 67, Type (0, 0), BuildingBlock: CIFDUS_clean_linker_0, # of connection points: 2
#     Edge 68, Type (0, 0), BuildingBlock: CIFDUS_clean_linker_0, # of connection points: 2
#     Edge 69, Type (0, 0), BuildingBlock: CIFDUS_clean_linker_0, # of connection points: 2
#     Edge 70, Type (0, 0), BuildingBlock: CIFDUS_clean_linker_0, # of connection points: 2
#     Edge 71, Type (0, 0), BuildingBlock: CIFDUS_clean_linker_0, # of connection points: 2
#     Edge 72, Type (0, 0), BuildingBlock: CIFDUS_clean_linker_0, # of connection points: 2
#     Edge 73, Type (0, 0), BuildingBlock: CIFDUS_clean_linker_0, # of connection points: 2
#     Edge 74, Type (0, 0), BuildingBlock: CIFDUS_clean_linker_0, # of connection points: 2
#     Edge 75, Type (0, 0), BuildingBlock: CIFDUS_clean_linker_0, # of connection points: 2
#     Edge 76, Type (0, 0), BuildingBlock: CIFDUS_clean_linker_0, # of connection points: 2
#     Edge 77, Type (0, 0), BuildingBlock: CIFDUS_clean_linker_0, # of connection points: 2
#     Edge 78, Type (0, 0), BuildingBlock: CIFDUS_clean_linker_0, # of connection points: 2
#     Edge 79, Type (0, 0), BuildingBlock: CIFDUS_clean_linker_0, # of connection points: 2
#     Edge 80, Type (0, 0), BuildingBlock: CIFDUS_clean_linker_0, # of connection points: 2
#     Edge 81, Type (0, 0), BuildingBlock: CIFDUS_clean_linker_0, # of connection points: 2
#     Edge 82, Type (0, 0), BuildingBlock: CIFDUS_clean_linker_0, # of connection points: 2
#     Edge 83, Type (0, 0), BuildingBlock: CIFDUS_clean_linker_0, # of connection points: 2
#     Edge 84, Type (0, 0), BuildingBlock: CIFDUS_clean_linker_0, # of connection points: 2
#     Edge 85, Type (0, 0), BuildingBlock: CIFDUS_clean_linker_0, # of connection points: 2
#     Edge 86, Type (0, 0), BuildingBlock: CIFDUS_clean_linker_0, # of connection points: 2
#     Edge 87, Type (0, 0), BuildingBlock: CIFDUS_clean_linker_0, # of connection points: 2
#     Edge 88, Type (0, 0), BuildingBlock: CIFDUS_clean_linker_0, # of connection points: 2
#     Edge 89, Type (0, 0), BuildingBlock: CIFDUS_clean_linker_0, # of connection points: 2
#     Edge 90, Type (0, 0), BuildingBlock: CIFDUS_clean_linker_0, # of connection points: 2
#     Edge 91, Type (0, 0), BuildingBlock: CIFDUS_clean_linker_0, # of connection points: 2
#     Edge 92, Type (0, 0), BuildingBlock: CIFDUS_clean_linker_0, # of connection points: 2
#     Edge 93, Type (0, 0), BuildingBlock: CIFDUS_clean_linker_0, # of connection points: 2
#     Edge 94, Type (0, 0), BuildingBlock: CIFDUS_clean_linker_0, # of connection points: 2
#     Edge 95, Type (0, 0), BuildingBlock: CIFDUS_clean_linker_0, # of connection points: 2
# Relax obj value: 0.108
# Max RMSD: 0.076
# Mean RMSD: 0.073
data_MOF--net-pem--node1-NAHDIM_clean_sbu_0--edge1-CIFDUS_clean_linker_0
_symmetry_space_group_name_H-M    P1
_symmetry_Int_Tables_number       1
_symmetry_cell_setting            triclinic
loop_
_symmetry_equiv_pos_as_xyz
'x, y, z'
_cell_length_a     38.027123
_cell_length_b     37.779664
_cell_length_c     36.753763
_cell_angle_alpha  90.092693
_cell_angle_beta   89.963619
_cell_angle_gamma 93.863457
loop_
_atom_site_label
_atom_site_type_symbol
_atom_site_fract_x
_atom_site_fract_y
_atom_site_fract_z
_atom_type_partial_charge
C0 C 0.97996 0.15777 0.09849 0.0
O1 O 0.96961 0.12527 0.08882 0.0
O2 O 0.06531 0.09781 0.12844 0.0
Zn3 Zn 0.04686 0.12835 0.08876 0.0
O4 O 0.02161 0.09448 0.05582 0.0
C5 C 0.11008 0.12469 0.04856 0.0
O6 O 0.10508 0.09163 0.05947 0.0
O7 O 0.01276 0.16582 0.1031 0.0
C8 C 0.02147 0.09769 0.02152 0.0
O9 O 0.03789 0.12542 0.00602 0.0
C10 C 0.04864 0.06954 0.13955 0.0
O11 O 0.0156 0.0627 0.13002 0.0
O12 O 0.08839 0.14704 0.05857 0.0
C13 C 0.20339 0.86561 0.36674 0.0
O14 O 0.20767 0.83412 0.35292 0.0
O15 O 0.12464 0.9065 0.28636 0.0
Zn16 Zn 0.15073 0.86766 0.30975 0.0
O17 O 0.18098 0.84694 0.27215 0.0
C18 C 0.09184 0.81947 0.29983 0.0
O19 O 0.09299 0.8351 0.26794 0.0
O20 O 0.18062 0.88464 0.35269 0.0
C21 C 0.18207 0.81351 0.27105 0.0
O22 O 0.16585 0.79392 0.29622 0.0
C23 C 0.13492 0.92025 0.25631 0.0
O24 O 0.16471 0.91129 0.24201 0.0
O25 O 0.11393 0.82964 0.32426 0.0
C26 C 0.43294 0.87267 0.62466 0.0
O27 O 0.43787 0.90655 0.63244 0.0
O28 O 0.35012 0.92482 0.6455 0.0
Zn29 Zn 0.36762 0.89673 0.60219 0.0
O30 O 0.39497 0.9293 0.56976 0.0
C31 C 0.31479 0.89877 0.54916 0.0
O32 O 0.32007 0.93277 0.55646 0.0
O33 O 0.40285 0.86054 0.61343 0.0
C34 C 0.40769 0.91465 0.54205 0.0
O35 O 0.4013 0.88039 0.5369 0.0
C36 C 0.36705 0.95374 0.65476 0.0
O37 O 0.39577 0.96417 0.63684 0.0
O38 O 0.32978 0.87653 0.56876 0.0
C39 C 0.26543 0.14795 0.90269 0.0
O40 O 0.2624 0.17714 0.88403 0.0
O41 O 0.35004 0.11165 0.83157 0.0
Zn42 Zn 0.33163 0.14986 0.86395 0.0
O43 O 0.31032 0.18139 0.82863 0.0
C44 C 0.39229 0.19856 0.90933 0.0
O45 O 0.39148 0.19244 0.94447 0.0
O46 O 0.29293 0.13087 0.89864 0.0
C47 C 0.31103 0.2147 0.83323 0.0
O48 O 0.32511 0.229 0.86287 0.0
C49 C 0.32842 0.09442 0.81052 0.0
O50 O 0.29468 0.09957 0.81306 0.0
O51 O 0.37059 0.18153 0.88824 0.0
C52 C 0.16585 0.85346 0.47195 0.0
O53 O 0.15705 0.82742 0.44931 0.0
O54 O 0.08389 0.86 0.41213 0.0
Zn55 Zn 0.11799 0.89954 0.43029 0.0
O56 O 0.08894 0.93192 0.45684 0.0
C57 C 0.11766 0.94772 0.37012 0.0
O58 O 0.08397 0.9454 0.37844 0.0
O59 O 0.15368 0.88371 0.46715 0.0
C60 C 0.09845 0.96373 0.46487 0.0
O61 O 0.13059 0.97654 0.45726 0.0
C62 C 0.05235 0.85526 0.42407 0.0
O63 O 0.04206 0.8748 0.45113 0.0
O64 O 0.13842 0.92925 0.38813 0.0
C65 C 0.41254 0.74213 0.61527 0.0
O66 O 0.38115 0.73626 0.60071 0.0
O67 O 0.3357 0.79186 0.61877 0.0
Zn68 Zn 0.374 0.79026 0.65835 0.0
O69 O 0.35704 0.75888 0.69876 0.0
C70 C 0.36625 0.85077 0.707 0.0
O71 O 0.33799 0.83149 0.71733 0.0
O72 O 0.41704 0.76604 0.63963 0.0
C73 C 0.37475 0.76048 0.7281 0.0
O74 O 0.40254 0.78285 0.73114 0.0
C75 C 0.30745 0.80775 0.62298 0.0
O76 O 0.30234 0.82441 0.65366 0.0
O77 O 0.38576 0.83892 0.68212 0.0
C78 C 0.35278 0.09004 0.95673 0.0
O79 O 0.37742 0.07205 0.9714 0.0
O80 O 0.41995 0.11771 0.865 0.0
Zn81 Zn 0.39128 0.07681 0.88892 0.0
O82 O 0.42432 0.05248 0.92012 0.0
C83 C 0.39443 0.02072 0.83624 0.0
O84 O 0.42822 0.02794 0.84184 0.0
O85 O 0.353 0.09555 0.92244 0.0
C86 C 0.41594 0.02089 0.92999 0.0
O87 O 0.38557 0.00537 0.91982 0.0
C88 C 0.45248 0.1173 0.85642 0.0
O89 O 0.46872 0.08805 0.86094 0.0
O90 O 0.37237 0.03916 0.85259 0.0
C91 C 0.10978 0.1938 0.11793 0.0
O92 O 0.14145 0.20367 0.10592 0.0
O93 O 0.17615 0.1193 0.1074 0.0
Zn94 Zn 0.14634 0.13698 0.14917 0.0
O95 O 0.17398 0.17299 0.17733 0.0
C96 C 0.15481 0.08538 0.20674 0.0
O97 O 0.18848 0.0943 0.20199 0.0
O98 O 0.10462 0.16446 0.1347 0.0
C99 C 0.15919 0.18183 0.20657 0.0
O100 O 0.12858 0.16633 0.21596 0.0
C101 C 0.2094 0.12633 0.10784 0.0
O102 O 0.22396 0.14421 0.13517 0.0
O103 O 0.1323 0.0987 0.18605 0.0
C104 C 0.6325 0.41723 0.92856 0.0
O105 O 0.60184 0.39929 0.93168 0.0
O106 O 0.57087 0.39354 0.85913 0.0
Zn107 Zn 0.59454 0.44273 0.86883 0.0
O108 O 0.5611 0.46643 0.90035 0.0
C109 C 0.58641 0.47986 0.79874 0.0
O110 O 0.55808 0.45847 0.79442 0.0
O111 O 0.63744 0.43811 0.90159 0.0
C112 C 0.53336 0.4809 0.89095 0.0
O113 O 0.52451 0.48221 0.85652 0.0
C114 C 0.53977 0.38486 0.84791 0.0
O115 O 0.51923 0.40915 0.83679 0.0
O116 O 0.6062 0.47582 0.82612 0.0
C117 C 0.85126 0.31562 0.11619 0.0
O118 O 0.81877 0.3041 0.10839 0.0
O119 O 0.78324 0.38857 0.101 0.0
Zn120 Zn 0.81569 0.37459 0.1428 0.0
O121 O 0.79218 0.33833 0.17481 0.0
C122 C 0.81596 0.43651 0.1941 0.0
O123 O 0.78414 0.44278 0.18301 0.0
O124 O 0.85725 0.34725 0.1277 0.0
C125 C 0.77553 0.34414 0.20379 0.0
O126 O 0.76736 0.3764 0.2118 0.0
C127 C 0.75473 0.36925 0.09683 0.0
O128 O 0.74792 0.34283 0.11945 0.0
O129 O 0.83274 0.41284 0.17825 0.0
C130 C 0.86114 0.65673 0.4561 0.0
O131 O 0.86408 0.6762 0.42654 0.0
O132 O 0.93806 0.64422 0.39671 0.0
Zn133 Zn 0.90322 0.60712 0.41664 0.0
O134 O 0.93247 0.57234 0.43764 0.0
C135 C 0.88557 0.5554 0.36172 0.0
O136 O 0.91854 0.54888 0.36785 0.0
O137 O 0.87507 0.62711 0.45714 0.0
C138 C 0.92187 0.54345 0.45244 0.0
O139 O 0.88798 0.53522 0.45653 0.0
C140 C 0.96989 0.64914 0.4078 0.0
O141 O 0.98151 0.62875 0.43342 0.0
O142 O 0.87266 0.58101 0.3785 0.0
C143 C 0.79796 0.63843 0.36419 0.0
O144 O 0.78212 0.64982 0.33517 0.0
O145 O 0.88357 0.61169 0.29126 0.0
Zn146 Zn 0.85983 0.65123 0.31752 0.0
O147 O 0.82759 0.67491 0.28483 0.0
C148 C 0.91565 0.7041 0.30378 0.0
O149 O 0.91302 0.68987 0.27126 0.0
O150 O 0.83121 0.6356 0.36317 0.0
C151 C 0.82916 0.68252 0.25127 0.0
O152 O 0.85433 0.67101 0.23082 0.0
C153 C 0.86857 0.59533 0.2646 0.0
O154 O 0.83617 0.60218 0.25613 0.0
O155 O 0.89637 0.69095 0.32939 0.0
C156 C 0.68974 0.32097 0.92168 0.0
O157 O 0.67587 0.28845 0.91727 0.0
O158 O 0.63637 0.37149 0.82636 0.0
Zn159 Zn 0.64212 0.33243 0.86376 0.0
O160 O 0.65985 0.2908 0.83829 0.0
C161 C 0.5737 0.30376 0.85694 0.0
O162 O 0.58471 0.30793 0.82323 0.0
O163 O 0.67802 0.34581 0.90274 0.0
C164 C 0.66028 0.28754 0.80398 0.0
O165 O 0.65045 0.31341 0.78329 0.0
C166 C 0.65996 0.39399 0.81423 0.0
O167 O 0.69176 0.39525 0.82831 0.0
O168 O 0.5946 0.3134 0.88272 0.0
C169 C 0.97952 0.82576 0.88603 0.0
O170 O 0.98248 0.8366 0.91994 0.0
O171 O 0.8884 0.85922 0.92679 0.0
Zn172 Zn 0.92684 0.87571 0.88958 0.0
O173 O 0.96138 0.90703 0.91583 0.0
C174 C 0.88531 0.93137 0.85954 0.0
O175 O 0.86825 0.92864 0.89049 0.0
O176 O 0.95503 0.83722 0.86655 0.0
C177 C 0.98228 0.92837 0.89833 0.0
O178 O 0.98506 0.92506 0.86288 0.0
C179 C 0.88187 0.88041 0.95274 0.0
O180 O 0.90046 0.91088 0.95516 0.0
O181 O 0.90924 0.91034 0.85248 0.0
C182 C 0.79949 0.14673 0.60925 0.0
O183 O 0.81089 0.1786 0.62019 0.0
O184 O 0.87904 0.16903 0.66114 0.0
Zn185 Zn 0.83769 0.13429 0.67149 0.0
O186 O 0.80357 0.16287 0.6962 0.0
C187 C 0.87922 0.09316 0.72083 0.0
O188 O 0.90466 0.11683 0.71205 0.0
O189 O 0.81055 0.11993 0.62569 0.0
C190 C 0.77342 0.15009 0.706 0.0
O191 O 0.76533 0.11581 0.70407 0.0
C192 C 0.88904 0.19035 0.68653 0.0
O193 O 0.87406 0.18702 0.71867 0.0
O194 O 0.8492 0.09435 0.70569 0.0
C195 C 0.53319 0.1695 0.43914 0.0
O196 O 0.52908 0.15169 0.46968 0.0
O197 O 0.62798 0.12411 0.45611 0.0
Zn198 Zn 0.58367 0.11576 0.42478 0.0
O199 O 0.54929 0.0844 0.45256 0.0
C200 C 0.61787 0.06743 0.37404 0.0
O201 O 0.64263 0.06761 0.39886 0.0
O202 O 0.55652 0.16045 0.41636 0.0
C203 C 0.5431 0.05173 0.44542 0.0
O204 O 0.5616 0.03657 0.42043 0.0
C205 C 0.63757 0.09816 0.475 0.0
O206 O 0.61893 0.06767 0.47317 0.0
O207 O 0.59261 0.08775 0.37784 0.0
C208 C 0.72415 0.87405 0.09808 0.0
O209 O 0.71459 0.8411 0.10688 0.0
O210 O 0.63916 0.84976 0.1448 0.0
Zn211 Zn 0.6808 0.88316 0.15969 0.0
O212 O 0.71157 0.85136 0.18455 0.0
C213 C 0.6455 0.92358 0.21796 0.0
O214 O 0.61848 0.90031 0.21445 0.0
O215 O 0.71088 0.89906 0.11577 0.0
C216 C 0.71423 0.84639 0.21845 0.0
O217 O 0.6961 0.86472 0.24135 0.0
C218 C 0.62587 0.82669 0.16706 0.0
O219 O 0.63558 0.82805 0.20132 0.0
O220 O 0.67189 0.92208 0.19671 0.0
C221 C 0.91494 0.04299 0.65397 0.0
O222 O 0.94776 0.04117 0.64337 0.0
O223 O 0.94565 0.14816 0.6205 0.0
Zn224 Zn 0.91504 0.10387 0.60383 0.0
O225 O 0.94746 0.0779 0.57386 0.0
C226 C 0.86492 0.13347 0.54768 0.0
O227 O 0.88381 0.16381 0.54572 0.0
O228 O 0.89755 0.06867 0.64301 0.0
C229 C 0.93634 0.0514 0.55499 0.0
O230 O 0.90278 0.04061 0.55604 0.0
C231 C 0.96604 0.16257 0.59629 0.0
O232 O 0.96288 0.15103 0.56263 0.0
O233 O 0.87353 0.10984 0.56996 0.0
C234 C 0.6111 0.19244 0.32063 0.0
O235 O 0.61231 0.17488 0.28985 0.0
O236 O 0.64625 0.10816 0.30974 0.0
Zn237 Zn 0.66632 0.14794 0.34248 0.0
O238 O 0.70491 0.17486 0.31812 0.0
C239 C 0.71115 0.11718 0.39859 0.0
O240 O 0.71799 0.09305 0.3743 0.0
O241 O 0.63024 0.18417 0.3473 0.0
C242 C 0.73641 0.16866 0.31046 0.0
O243 O 0.74803 0.13706 0.31525 0.0
C244 C 0.65703 0.10341 0.27737 0.0
O245 O 0.68443 0.12271 0.26503 0.0
O246 O 0.6875 0.13856 0.39197 0.0
C247 C 0.5856 0.94958 0.14229 0.0
O248 O 0.55387 0.95277 0.12914 0.0
O249 O 0.55954 0.84235 0.10709 0.0
Zn250 Zn 0.58752 0.88843 0.0932 0.0
O251 O 0.55476 0.91241 0.06184 0.0
C252 C 0.63982 0.85984 0.04082 0.0
O253 O 0.61956 0.83043 0.0378 0.0
O254 O 0.60254 0.92292 0.1334 0.0
C255 C 0.53532 0.89441 0.03958 0.0
O256 O 0.53787 0.85999 0.03701 0.0
C257 C 0.53266 0.84256 0.12781 0.0
O258 O 0.52598 0.87209 0.14457 0.0
O259 O 0.63105 0.88413 0.06226 0.0
C260 C 0.89418 0.77489 0.8315 0.0
O261 O 0.88289 0.77586 0.79776 0.0
O262 O 0.86279 0.86934 0.81091 0.0
Zn263 Zn 0.8433 0.82817 0.84331 0.0
O264 O 0.80463 0.80035 0.81754 0.0
C265 C 0.80092 0.86503 0.90047 0.0
O266 O 0.8012 0.89361 0.88018 0.0
O267 O 0.88157 0.79528 0.85503 0.0
C268 C 0.77529 0.81451 0.81639 0.0
O269 O 0.77316 0.84708 0.82817 0.0
C270 C 0.84921 0.87959 0.78129 0.0
O271 O 0.81938 0.86405 0.7698 0.0
O272 O 0.81892 0.83938 0.89088 0.0
C273 C 0.44019 0.55893 0.18238 0.0
O274 O 0.47316 0.57158 0.1809 0.0
O275 O 0.46531 0.64705 0.14227 0.0
Zn276 Zn 0.43347 0.60697 0.12099 0.0
O277 O 0.46105 0.57936 0.08725 0.0
C278 C 0.39733 0.6385 0.05787 0.0
O279 O 0.42802 0.63752 0.04163 0.0
O280 O 0.41774 0.57108 0.16063 0.0
C281 C 0.44401 0.55888 0.06521 0.0
O282 O 0.40939 0.55681 0.06559 0.0
C283 C 0.49056 0.66101 0.12327 0.0
O284 O 0.49496 0.64947 0.08996 0.0
O285 O 0.39359 0.62673 0.09036 0.0
C286 C 0.12673 0.68844 0.84356 0.0
O287 O 0.12694 0.67791 0.80949 0.0
O288 O 0.16526 0.60537 0.81815 0.0
Zn289 Zn 0.18192 0.63464 0.86201 0.0
O290 O 0.22959 0.65606 0.85178 0.0
C291 C 0.20174 0.58817 0.9349 0.0
O292 O 0.18815 0.55856 0.94931 0.0
O293 O 0.14683 0.67446 0.86657 0.0
C294 C 0.25475 0.63591 0.84816 0.0
O295 O 0.24857 0.60144 0.85158 0.0
C296 C 0.17905 0.60551 0.78659 0.0
O297 O 0.20768 0.6259 0.77999 0.0
O298 O 0.18686 0.59992 0.90629 0.0
C299 C 0.07824 0.45135 0.6721 0.0
O300 O 0.04427 0.44358 0.66801 0.0
O301 O 0.05099 0.35365 0.6417 0.0
Zn302 Zn 0.08172 0.39435 0.62116 0.0
O303 O 0.04682 0.41888 0.59351 0.0
C304 C 0.11902 0.38418 0.553 0.0
O305 O 0.09174 0.39873 0.53909 0.0
O306 O 0.09997 0.43197 0.65665 0.0
C307 C 0.05246 0.4492 0.57955 0.0
O308 O 0.08404 0.46556 0.58092 0.0
C309 C 0.03221 0.33869 0.61663 0.0
O310 O 0.0388 0.34777 0.58268 0.0
O311 O 0.12041 0.37869 0.58714 0.0
C312 C 0.21464 0.35194 0.60456 0.0
O313 O 0.2088 0.32047 0.6194 0.0
O314 O 0.12417 0.32995 0.65014 0.0
Zn315 Zn 0.16678 0.36539 0.66149 0.0
O316 O 0.19795 0.33947 0.69267 0.0
C317 C 0.14022 0.40665 0.7228 0.0
O318 O 0.12176 0.37699 0.73052 0.0
O319 O 0.19751 0.3774 0.61661 0.0
C320 C 0.22352 0.35542 0.70943 0.0
O321 O 0.22953 0.38989 0.70592 0.0
C322 C 0.11494 0.30526 0.67264 0.0
O323 O 0.13131 0.30435 0.70404 0.0
O324 O 0.1583 0.40867 0.69353 0.0
C325 C 0.29207 0.58062 0.0967 0.0
O326 O 0.28103 0.56877 0.12861 0.0
O327 O 0.37077 0.67121 0.1382 0.0
Zn328 Zn 0.32978 0.63285 0.14235 0.0
O329 O 0.2874 0.65715 0.15566 0.0
C330 C 0.32381 0.59811 0.21447 0.0
O331 O 0.29901 0.6195 0.22219 0.0
O332 O 0.31619 0.6058 0.09579 0.0
C333 C 0.28215 0.6877 0.14353 0.0
O334 O 0.30513 0.70354 0.12126 0.0
C335 C 0.37822 0.69128 0.16539 0.0
O336 O 0.35968 0.68631 0.19535 0.0
O337 O 0.33885 0.59999 0.1834 0.0
C338 C 0.57432 0.61882 0.58614 0.0
O339 O 0.57239 0.60327 0.55414 0.0
O340 O 0.65938 0.55618 0.6378 0.0
Zn341 Zn 0.64045 0.58176 0.59348 0.0
O342 O 0.61799 0.54377 0.56288 0.0
C343 C 0.70908 0.59365 0.55831 0.0
O344 O 0.71848 0.57065 0.58262 0.0
O345 O 0.60066 0.61388 0.60655 0.0
C346 C 0.63398 0.52128 0.54459 0.0
O347 O 0.66854 0.52247 0.54427 0.0
C348 C 0.63988 0.52969 0.64917 0.0
O349 O 0.60908 0.52276 0.63364 0.0
O350 O 0.67833 0.605 0.56028 0.0
C351 C 0.96225 0.32691 0.0687 0.0
O352 O 0.95274 0.33699 0.03616 0.0
O353 O 0.90273 0.41113 0.12653 0.0
Zn354 Zn 0.91781 0.38121 0.084 0.0
O355 O 0.94877 0.41399 0.05372 0.0
C356 C 0.85646 0.38895 0.04125 0.0
O357 O 0.86466 0.42205 0.05044 0.0
O358 O 0.94894 0.34138 0.09636 0.0
C359 C 0.94748 0.44741 0.05545 0.0
O360 O 0.92329 0.46146 0.0752 0.0
C361 C 0.9237 0.43028 0.1466 0.0
O362 O 0.95769 0.42616 0.145 0.0
O363 O 0.87532 0.36489 0.05306 0.0
C364 C 0.59231 0.74966 0.5963 0.0
O365 O 0.62254 0.76849 0.59867 0.0
O366 O 0.67364 0.69748 0.58332 0.0
Zn367 Zn 0.63693 0.70005 0.62291 0.0
O368 O 0.65206 0.73678 0.65868 0.0
C369 C 0.6521 0.64911 0.67972 0.0
O370 O 0.67989 0.67098 0.68514 0.0
O371 O 0.5914 0.7166 0.60291 0.0
C372 C 0.6303 0.74386 0.68344 0.0
O373 O 0.59893 0.72711 0.6844 0.0
C374 C 0.70612 0.69742 0.59147 0.0
O375 O 0.71555 0.69846 0.6258 0.0
O376 O 0.63098 0.65546 0.65402 0.0
C377 C 0.45493 0.32277 0.40159 0.0
O378 O 0.46438 0.32778 0.43564 0.0
O379 O 0.37225 0.38153 0.43593 0.0
Zn380 Zn 0.41789 0.39048 0.40643 0.0
O381 O 0.45278 0.41079 0.44101 0.0
C382 C 0.41907 0.45958 0.36683 0.0
O383 O 0.42435 0.47519 0.39845 0.0
O384 O 0.4372 0.34573 0.3857 0.0
C385 C 0.48539 0.41304 0.43371 0.0
O386 O 0.49633 0.40182 0.40207 0.0
C387 C 0.35927 0.40772 0.45186 0.0
O388 O 0.37389 0.43972 0.44625 0.0
O389 O 0.41451 0.42588 0.36489 0.0
C390 C 0.04254 0.66143 0.91975 0.0
O391 O 0.04884 0.65648 0.9544 0.0
O392 O 0.14666 0.6534 0.93064 0.0
Zn393 Zn 0.10464 0.62127 0.91215 0.0
O394 O 0.08715 0.59067 0.95226 0.0
C395 C 0.11982 0.55354 0.87749 0.0
O396 O 0.11911 0.54238 0.91126 0.0
O397 O 0.06336 0.6495 0.89625 0.0
C398 C 0.08693 0.59537 0.98638 0.0
O399 O 0.0997 0.62554 0.00039 0.0
C400 C 0.17259 0.67359 0.942 0.0
O401 O 0.17507 0.7074 0.93364 0.0
O402 O 0.11552 0.58618 0.87089 0.0
C403 C 0.37835 0.30336 0.35052 0.0
O404 O 0.3679 0.31177 0.31781 0.0
O405 O 0.33683 0.38628 0.33446 0.0
Zn406 Zn 0.32164 0.34466 0.36704 0.0
O407 O 0.28751 0.3139 0.34034 0.0
C408 C 0.27282 0.38289 0.40615 0.0
O409 O 0.27238 0.39935 0.37471 0.0
O410 O 0.36254 0.31509 0.37809 0.0
C411 C 0.26693 0.29123 0.35643 0.0
O412 O 0.26919 0.28718 0.39183 0.0
C413 C 0.32751 0.38921 0.30128 0.0
O414 O 0.3067 0.36402 0.28647 0.0
O415 O 0.29456 0.35922 0.41097 0.0
H416 H 0.04243 0.07812 0.95422 0.0
H417 H 0.97012 0.04918 0.04158 0.0
H418 H 0.95342 0.99312 0.01162 0.0
H419 H 0.96143 0.9517 0.96317 0.0
H420 H 0.03138 0.97939 0.87358 0.0
H421 H 0.04794 0.03666 0.90261 0.0
C422 C 0.02254 0.05976 0.9662 0.0
C423 C 0.00753 0.06744 -3e-05 0.0
C424 C 0.01345 0.02726 0.94909 0.0
C425 C 0.98206 0.04353 0.0156 0.0
C426 C 0.97269 0.01147 0.99868 0.0
C427 C 0.98048 0.97002 0.94989 0.0
C428 C 0.99546 0.96125 0.91649 0.0
C429 C 0.98879 0.00284 0.96593 0.0
C430 C 0.01978 0.98554 0.89956 0.0
C431 C 0.02899 0.0183 0.91595 0.0
H432 H 0.28086 0.75891 0.14963 0.0
H433 H 0.22265 0.66033 0.17644 0.0
H434 H 0.18432 0.69172 0.2167 0.0
H435 H 0.17255 0.7455 0.24984 0.0
H436 H 0.23172 0.84404 0.22513 0.0
H437 H 0.26472 0.81425 0.17829 0.0
C438 C 0.25923 0.74449 0.16361 0.0
C439 C 0.25473 0.70745 0.16063 0.0
C440 C 0.23807 0.76251 0.18756 0.0
C441 C 0.22673 0.68891 0.1788 0.0
C442 C 0.20497 0.70676 0.20191 0.0
C443 C 0.19261 0.76048 0.23413 0.0
C444 C 0.20036 0.79659 0.24129 0.0
C445 C 0.21136 0.74327 0.20755 0.0
C446 C 0.2257 0.816 0.22023 0.0
C447 C 0.24448 0.79905 0.19349 0.0
H448 H 0.41977 0.98558 0.54166 0.0
H449 H 0.44976 0.88993 0.48887 0.0
H450 H 0.49407 0.92448 0.4532 0.0
H451 H 0.52614 0.9813 0.43978 0.0
H452 H 0.49646 0.07652 0.49381 0.0
H453 H 0.44997 0.04239 0.52651 0.0
C454 C 0.43588 0.97229 0.52221 0.0
C455 C 0.43185 0.93537 0.51803 0.0
C456 C 0.46141 0.9921 0.50232 0.0
C457 C 0.45251 0.91845 0.4925 0.0
C458 C 0.4779 0.9381 0.47226 0.0
C459 C 0.50946 0.99458 0.45866 0.0
C460 C 0.51489 0.03121 0.46471 0.0
C461 C 0.48292 0.97486 0.47743 0.0
C462 C 0.49299 0.0482 0.48903 0.0
C463 C 0.46636 0.02878 0.50764 0.0
H464 H 0.31564 0.2865 0.82854 0.0
H465 H 0.2686 0.19154 0.77767 0.0
H466 H 0.23875 0.22723 0.73395 0.0
H467 H 0.22458 0.28465 0.71151 0.0
H468 H 0.27064 0.38043 0.7613 0.0
H469 H 0.30286 0.34494 0.8041 0.0
C470 C 0.29887 0.27371 0.80785 0.0
C471 C 0.29412 0.23656 0.8064 0.0
C472 C 0.2818 0.29437 0.78269 0.0
C473 C 0.27265 0.22016 0.7793 0.0
C474 C 0.25554 0.24048 0.75432 0.0
C475 C 0.24171 0.29786 0.73167 0.0
C476 C 0.24509 0.33497 0.73358 0.0
C477 C 0.25975 0.2775 0.75599 0.0
C478 C 0.2677 0.35177 0.75944 0.0
C479 C 0.28596 0.33154 0.78393 0.0
H480 H 0.02867 0.94757 0.47049 0.0
H481 H 0.10959 0.03004 0.4946 0.0
H482 H 0.06552 0.0655 0.52305 0.0
H483 H 0.0049 0.07137 0.54321 0.0
H484 H 0.92442 0.98834 0.51933 0.0
H485 H 0.96792 0.95456 0.48808 0.0
C486 C 0.03681 0.97328 0.48202 0.0
C487 C 0.07238 0.98604 0.48098 0.0
C488 C 0.01155 0.99326 0.4982 0.0
C489 C 0.08236 0.01963 0.49537 0.0
C490 C 0.05723 0.03983 0.51159 0.0
C491 C 0.99681 0.04592 0.53109 0.0
C492 C 0.96164 0.0321 0.53387 0.0
C493 C 0.02188 0.02664 0.5135 0.0
C494 C 0.95141 -0.00061 0.51765 0.0
C495 C 0.97623 0.98007 0.49989 0.0
H496 H 0.36463 0.68988 0.73363 0.0
H497 H 0.3544 0.7875 0.79217 0.0
H498 H 0.32027 0.75546 0.83982 0.0
H499 H 0.28552 0.70135 0.85852 0.0
H500 H 0.2964 0.6036 0.80009 0.0
H501 H 0.33942 0.63362 0.75927 0.0
C502 C 0.35561 0.70377 0.75738 0.0
C503 C 0.3613 0.74067 0.75966 0.0
C504 C 0.33629 0.6852 0.78447 0.0
C505 C 0.35004 0.7589 0.7903 0.0
C506 C 0.33049 0.74067 0.81731 0.0
C507 C 0.29815 0.68653 0.83745 0.0
C508 C 0.28752 0.6507 0.83162 0.0
C509 C 0.32231 0.70406 0.81385 0.0
C510 C 0.30423 0.63133 0.80484 0.0
C511 C 0.3285 0.64854 0.78129 0.0
H512 H 0.41659 0.95008 0.93997 0.0
H513 H 0.46908 0.05036 0.97154 0.0
H514 H 0.51038 0.01966 0.00878 0.0
H515 H 0.53211 0.96479 0.03116 0.0
H516 H 0.48146 0.864 0.99854 0.0
H517 H 0.43874 0.8946 0.96255 0.0
C518 C 0.43697 0.96513 0.95519 0.0
C519 C 0.43995 0.00227 0.95311 0.0
C520 C 0.46094 0.94733 0.97605 0.0
C521 C 0.46652 0.02164 0.97263 0.0
C522 C 0.49008 0.00417 0.99392 0.0
C523 C 0.5117 0.94946 0.01624 0.0
C524 C 0.50985 0.91229 0.01741 0.0
C525 C 0.48763 0.96708 0.99558 0.0
C526 C 0.48344 0.89273 0.99783 0.0
C527 C 0.459 0.91016 0.97739 0.0
H528 H 0.25466 0.29813 0.2851 0.0
H529 H 0.22199 0.23576 0.37911 0.0
H530 H 0.18254 0.19778 0.34076 0.0
H531 H 0.1608 0.18032 0.27968 0.0
H532 H 0.19778 0.24083 0.18613 0.0
H533 H 0.23215 0.28221 0.22548 0.0
C534 C 0.23887 0.27632 0.29738 0.0
C535 C 0.24142 0.26944 0.33473 0.0
C536 C 0.21711 0.25448 0.2753 0.0
C537 C 0.22052 0.24137 0.35028 0.0
C538 C 0.19805 0.21971 0.32843 0.0
C539 C 0.17609 0.2029 0.26819 0.0
C540 C 0.17714 0.20787 0.23043 0.0
C541 C 0.19661 0.22574 0.29082 0.0
C542 C 0.19709 0.23669 0.21531 0.0
C543 C 0.21662 0.26021 0.23768 0.0
H544 H 0.42339 0.5454 0.99607 0.0
H545 H 0.50773 0.53231 0.07235 0.0
H546 H 0.54242 0.50585 0.02482 0.0
H547 H 0.54967 0.48915 0.96173 0.0
H548 H 0.46731 0.5049 0.88372 0.0
H549 H 0.4308 0.52814 0.93195 0.0
C550 C 0.44918 0.53625 0.00221 0.0
C551 C 0.46315 0.54043 0.03737 0.0
C552 C 0.46933 0.52212 0.97455 0.0
C553 C 0.49671 0.52924 0.04525 0.0
C554 C 0.51649 0.51424 0.01818 0.0
C555 C 0.52369 0.49755 0.95517 0.0
C556 C 0.51115 0.49537 0.91929 0.0
C557 C 0.50323 0.51105 0.98271 0.0
C558 C 0.47754 0.50651 0.91121 0.0
C559 C 0.45666 0.51965 0.93873 0.0
H560 H 0.79637 0.2773 0.1976 0.0
H561 H 0.74355 0.34696 0.26991 0.0
H562 H 0.73457 0.29901 0.31392 0.0
H563 H 0.73576 0.23649 0.32832 0.0
H564 H 0.78334 0.16513 0.25423 0.0
H565 H 0.80239 0.21536 0.21495 0.0
C566 C 0.78289 0.28205 0.223 0.0
C567 C 0.76991 0.31536 0.23025 0.0
C568 C 0.77764 0.25439 0.24795 0.0
C569 C 0.75316 0.32134 0.26349 0.0
C570 C 0.74829 0.29408 0.28874 0.0
C571 C 0.75103 0.23213 0.30392 0.0
C572 C 0.75779 0.19754 0.29353 0.0
C573 C 0.75971 0.26044 0.2808 0.0
C574 C 0.77802 0.19178 0.2625 0.0
C575 C 0.78828 0.22033 0.23988 0.0
H576 H 0.0582 0.48649 0.51753 0.0
H577 H 0.9832 0.4423 0.59592 0.0
H578 H 0.93456 0.46392 0.56069 0.0
H579 H 0.91406 0.49834 0.50933 0.0
H580 H 0.98944 0.54147 0.43054 0.0
H581 H 0.03727 0.51632 0.46357 0.0
C582 C 0.03119 0.48197 0.52689 0.0
C583 C 0.02398 0.46372 0.55928 0.0
C584 C 0.00353 0.49369 0.50621 0.0
C585 C 0.98903 0.45685 0.571 0.0
C586 C 0.96132 0.46895 0.55087 0.0
C587 C 0.94085 0.5015 0.4991 0.0
C588 C 0.94849 0.522 0.46812 0.0
C589 C 0.9683 0.48762 0.51855 0.0
C590 C 0.98321 0.52606 0.45483 0.0
C591 C 0.01056 0.51192 0.47371 0.0
H592 H 0.78548 0.71998 0.29152 0.0
H593 H 0.82326 0.70709 0.18165 0.0
H594 H 0.79104 0.75766 0.16211 0.0
H595 H 0.75455 0.80628 0.17702 0.0
H596 H 0.71845 0.82003 0.28739 0.0
H597 H 0.74886 0.76817 0.30633 0.0
C598 C 0.78651 0.7279 0.26316 0.0
C599 C 0.80675 0.70987 0.23799 0.0
C600 C 0.7689 0.7573 0.25249 0.0
C601 C 0.80782 0.72058 0.20146 0.0
C602 C 0.78963 0.74954 0.19038 0.0
C603 C 0.75333 0.79805 0.20529 0.0
C604 C 0.73433 0.81691 0.23086 0.0
C605 C 0.77058 0.76832 0.21583 0.0
C606 C 0.73309 0.806 0.26731 0.0
C607 C 0.75023 0.7763 0.27806 0.0
H608 H 0.73068 0.14699 0.76471 0.0
H609 H 0.75833 0.2083 0.66887 0.0
H610 H 0.72106 0.25485 0.68864 0.0
H611 H 0.68689 0.2811 0.73657 0.0
H612 H 0.66386 0.22278 0.83554 0.0
H613 H 0.69274 0.17191 0.81126 0.0
C614 C 0.72782 0.17029 0.74803 0.0
C615 C 0.74704 0.1747 0.71573 0.0
C616 C 0.7076 0.19756 0.76034 0.0
C617 C 0.74376 0.20487 0.69412 0.0
C618 C 0.72257 0.2314 0.70538 0.0
C619 C 0.68773 0.25704 0.75255 0.0
C620 C 0.67379 0.25568 0.7878 0.0
C621 C 0.70534 0.22854 0.73899 0.0
C622 C 0.67499 0.22447 0.8084 0.0
C623 C 0.69141 0.19541 0.79457 0.0
H624 H 0.72115 0.84386 0.78358 0.0
H625 H 0.76071 0.7433 0.81273 0.0
H626 H 0.7118 0.71194 0.78042 0.0
H627 H 0.66357 0.71371 0.73696 0.0
H628 H 0.63009 0.81395 0.69961 0.0
H629 H 0.66977 0.84536 0.74343 0.0
C630 C 0.71868 0.81508 0.78326 0.0
C631 C 0.74448 0.79573 0.79986 0.0
C632 C 0.69146 0.79744 0.76349 0.0
C633 C 0.74129 0.75854 0.79944 0.0
C634 C 0.71334 0.74069 0.78122 0.0
C635 C 0.66453 0.74238 0.73919 0.0
C636 C 0.64445 0.76183 0.71563 0.0
C637 C 0.68907 0.75993 0.76217 0.0
C638 C 0.64537 0.79882 0.71813 0.0
C639 C 0.66829 0.81662 0.74271 0.0
H640 H 0.55684 0.42222 0.42828 0.0
H641 H 0.46904 0.4415 0.49878 0.0
H642 H 0.50841 0.47388 0.54085 0.0
H643 H 0.56626 0.50048 0.55534 0.0
H644 H 0.65488 0.48335 0.48565 0.0
H645 H 0.61666 0.44557 0.44575 0.0
C646 C 0.54644 0.43331 0.45298 0.0
C647 C 0.51009 0.42991 0.46014 0.0
C648 C 0.56923 0.45218 0.47712 0.0
C649 C 0.49692 0.44401 0.49243 0.0
C650 C 0.51936 0.46254 0.51657 0.0
C651 C 0.5773 0.48835 0.5315 0.0
C652 C 0.61301 0.49504 0.52293 0.0
C653 C 0.55533 0.46737 0.50876 0.0
C654 C 0.62727 0.47859 0.49255 0.0
C655 C 0.60545 0.45722 0.46971 0.0
H656 H 0.06712 0.52868 0.96645 0.0
H657 H 0.06014 0.60315 0.055 0.0
H658 H 0.01604 0.56278 0.08485 0.0
H659 H 0.97564 0.50914 0.0823 0.0
H660 H 0.98282 0.43555 0.99311 0.0
H661 H 0.03041 0.4736 0.96607 0.0
C662 C 0.05623 0.53602 0.99248 0.0
C663 C 0.06627 0.56904 0.00828 0.0
C664 C 0.03048 0.51335 0.00872 0.0
C665 C 0.0526 0.57788 0.04231 0.0
C666 C 0.02719 0.55502 0.05913 0.0
C667 C 0.98761 0.50166 0.05685 0.0
C668 C 0.97565 0.47019 0.03915 0.0
C669 C 0.01517 0.52328 0.04193 0.0
C670 C 0.99169 0.45995 0.00682 0.0
C671 C 0.01884 0.48154 0.99153 0.0
H672 H 0.02581 0.02323 0.19262 0.0
H673 H 0.115 0.05271 0.12403 0.0
H674 H 0.14882 0.0077 0.15257 0.0
H675 H 0.15438 0.96251 0.19931 0.0
H676 H 0.0663 0.93374 0.26979 0.0
H677 H 0.03077 0.9758 0.23836 0.0
C678 C 0.0526 0.01961 0.18397 0.0
C679 C 0.06824 0.04174 0.15696 0.0
C680 C 0.0721 0.99385 0.20085 0.0
C681 C 0.10273 0.03651 0.14543 0.0
C682 C 0.12202 0.01065 0.16157 0.0
C683 C 0.12733 0.96522 0.20766 0.0
C684 C 0.11312 0.94522 0.237 0.0
C685 C 0.10722 0.98965 0.18976 0.0
C686 C 0.078 0.94908 0.24746 0.0
C687 C 0.0576 0.97302 0.22941 0.0
H688 H 0.27039 0.93592 0.5088 0.0
H689 H 0.31967 0.83644 0.51255 0.0
H690 H 0.29075 0.81797 0.45563 0.0
H691 H 0.24976 0.82925 0.406 0.0
H692 H 0.20354 0.93034 0.4005 0.0
H693 H 0.23269 0.94882 0.45698 0.0
C694 C 0.27476 0.91018 0.49717 0.0
C695 C 0.29647 0.88726 0.51529 0.0
C696 C 0.25844 0.89993 0.4642 0.0
C697 C 0.3024 0.85425 0.49957 0.0
C698 C 0.28613 0.84379 0.46684 0.0
C699 C 0.24623 0.85544 0.41695 0.0
C700 C 0.22364 0.87798 0.39938 0.0
C701 C 0.26378 0.86627 0.44913 0.0
C702 C 0.21984 0.91198 0.41385 0.0
C703 C 0.23676 0.92273 0.44611 0.0
H704 H 0.29078 0.041 0.77517 0.0
H705 H 0.39448 0.09454 0.78138 0.0
H706 H 0.41521 0.05617 0.73342 0.0
H707 H 0.4041 0.00717 0.69012 0.0
H708 H 0.30136 0.95145 0.68575 0.0
H709 H 0.28005 0.99084 0.73265 0.0
C710 C 0.31788 0.04435 0.76592 0.0
C711 C 0.34105 0.0706 0.78189 0.0
C712 C 0.32977 0.02184 0.73863 0.0
C713 C 0.37615 0.07446 0.76971 0.0
C714 C 0.38799 0.05259 0.7422 0.0
C715 C 0.37698 0.00368 0.69931 0.0
C716 C 0.35429 0.97649 0.68427 0.0
C717 C 0.36507 0.02614 0.72654 0.0
C718 C 0.31939 0.9721 0.69687 0.0
C719 C 0.30716 0.99473 0.72358 0.0
H720 H 0.21728 0.18893 0.93169 0.0
H721 H 0.25278 0.08291 0.93523 0.0
H722 H 0.20831 0.06657 0.98169 0.0
H723 H 0.15936 0.08276 0.02108 0.0
H724 H 0.12486 0.1893 0.01705 0.0
H725 H 0.1694 0.2052 0.97116 0.0
C726 C 0.21519 0.16213 0.94239 0.0
C727 C 0.23817 0.13712 0.92993 0.0
C728 C 0.18996 0.15314 0.96918 0.0
C729 C 0.2353 0.10261 0.94433 0.0
C730 C 0.20991 0.0933 0.97087 0.0
C731 C 0.16159 0.10948 0.01021 0.0
C732 C 0.13862 0.13478 0.02242 0.0
C733 C 0.18717 0.11842 0.98356 0.0
C734 C 0.14211 0.16932 0.0082 0.0
C735 C 0.16752 0.17841 0.98185 0.0
H736 H 0.19373 0.0406 0.24581 0.0
H737 H 0.08935 0.07806 0.23695 0.0
H738 H 0.06922 0.03977 0.28721 0.0
H739 H 0.08051 0.99439 0.33236 0.0
H740 H 0.18471 0.95666 0.34198 0.0
H741 H 0.20551 0.99607 0.29269 0.0
C742 C 0.16661 0.04044 0.25498 0.0
C743 C 0.14301 0.06197 0.23738 0.0
C744 C 0.15511 0.01818 0.28395 0.0
C745 C 0.108 0.06154 0.24971 0.0
C746 C 0.09648 0.03974 0.27859 0.0
C747 C 0.10785 0.99481 0.32387 0.0
C748 C 0.1309 0.97228 0.34082 0.0
C749 C 0.11969 0.01771 0.29567 0.0
C750 C 0.16627 0.97348 0.32942 0.0
C751 C 0.17822 0.99609 0.30119 0.0
H752 H 0.25894 0.8562 0.61425 0.0
H753 H 0.29677 0.76237 0.5649 0.0
H754 H 0.25388 0.76613 0.51544 0.0
H755 H 0.208 0.79852 0.48425 0.0
H756 H 0.17559 0.89585 0.53147 0.0
H757 H 0.214 0.88834 0.58345 0.0
C758 C 0.25761 0.83632 0.59288 0.0
C759 C 0.28101 0.80902 0.59332 0.0
C760 C 0.23387 0.83941 0.56396 0.0
C761 C 0.27918 0.78376 0.56513 0.0
C762 C 0.25456 0.78583 0.53692 0.0
C763 C 0.20908 0.81786 0.50612 0.0
C764 C 0.18887 0.84774 0.50381 0.0
C765 C 0.2321 0.8139 0.53573 0.0
C766 C 0.19094 0.87274 0.53226 0.0
C767 C 0.21286 0.86843 0.56215 0.0
H768 H 0.43374 0.98693 0.78719 0.0
H769 H 0.32888 0.98621 0.83222 0.0
H770 H 0.31073 0.93423 0.79525 0.0
H771 H 0.32519 0.88801 0.75156 0.0
H772 H 0.42994 0.88917 0.7062 0.0
H773 H 0.44743 0.94238 0.74144 0.0
C774 C 0.4069 0.97539 0.78898 0.0
C775 C 0.38274 0.99031 0.81264 0.0
C776 C 0.39663 0.94567 0.76751 0.0
C777 C 0.34799 0.97524 0.8143 0.0
C778 C 0.33764 0.94547 0.79322 0.0
C779 C 0.35187 0.89989 0.74933 0.0
C780 C 0.37628 0.88447 0.72632 0.0
C781 C 0.36181 0.93032 0.76993 0.0
C782 C 0.41057 0.90055 0.72346 0.0
C783 C 0.42066 0.93084 0.74384 0.0
H784 H 0.3162 0.05158 0.0073 0.0
H785 H 0.32731 0.15599 0.96011 0.0
H786 H 0.28281 0.1764 0.00225 0.0
H787 H 0.24154 0.16451 0.05373 0.0
H788 H 0.22952 0.05951 0.09942 0.0
H789 H 0.27336 0.03905 0.05663 0.0
C790 C 0.30862 0.07873 0.00615 0.0
C791 C 0.32456 0.10219 0.98042 0.0
C792 C 0.28285 0.09001 0.03015 0.0
C793 C 0.31492 0.13737 0.97932 0.0
C794 C 0.2897 0.14906 0.00358 0.0
C795 C 0.24834 0.13708 0.05384 0.0
C796 C 0.23224 0.1133 0.07914 0.0
C797 C 0.27349 0.1256 0.02912 0.0
C798 C 0.24122 0.07794 0.07957 0.0
C799 C 0.26643 0.06638 0.05536 0.0
H800 H 0.85905 0.26078 0.07021 0.0
H801 H 0.90491 0.31274 0.165 0.0
H802 H 0.94838 0.2679 0.16913 0.0
H803 H 0.97438 0.21419 0.1446 0.0
H804 H 0.92724 0.16242 0.05026 0.0
H805 H 0.88398 0.20709 0.0466 0.0
C806 C 0.87888 0.26247 0.09147 0.0
C807 C 0.87924 0.2903 0.11682 0.0
C808 C 0.90391 0.23682 0.09347 0.0
C809 C 0.90461 0.29192 0.14468 0.0
C810 C 0.92931 0.26617 0.14719 0.0
C811 C 0.95476 0.21301 0.12317 0.0
C812 C 0.95416 0.18532 0.09756 0.0
C813 C 0.92953 0.23868 0.12146 0.0
C814 C 0.92817 0.1835 0.07034 0.0
C815 C 0.90348 0.20908 0.06813 0.0
H816 H 0.51494 0.33371 0.83557 0.0
H817 H 0.54139 0.3555 0.91997 0.0
H818 H 0.5213 0.29166 0.95352 0.0
H819 H 0.45916 0.22662 0.94807 0.0
H820 H 0.38895 0.22487 0.83319 0.0
H821 H 0.43726 0.26154 0.78843 0.0
C822 C 0.50411 0.31543 0.81935 0.0
C823 C 0.52385 0.34625 0.8548 0.0
C824 C 0.4886 0.27078 0.82978 0.0
C825 C 0.53007 0.33467 0.90251 0.0
C826 C 0.51903 0.29292 0.92424 0.0
C827 C 0.4597 0.2325 0.91929 0.0
C828 C 0.42007 0.22278 0.89321 0.0
C829 C 0.49836 0.25569 0.901 0.0
C830 C 0.41403 0.23316 0.84531 0.0
C831 C 0.44586 0.25455 0.81535 0.0
H832 H 0.9491 0.70136 0.3722 0.0
H833 H 0.04118 0.65873 0.41335 0.0
H834 H 0.08151 0.70359 0.38626 0.0
H835 H 0.09864 0.75802 0.34493 0.0
H836 H 0.02086 0.82782 0.2757 0.0
H837 H 0.95979 0.79161 0.29508 0.0
C838 C 0.97741 0.70392 0.3716 0.0
C839 C 0.99332 0.67811 0.39189 0.0
C840 C 0.99703 0.7312 0.35154 0.0
C841 C 0.03007 0.67899 0.39695 0.0
C842 C 0.05355 0.70465 0.38132 0.0
C843 C 0.07121 0.76028 0.33809 0.0
C844 C 0.06246 0.7941 0.3088 0.0
C845 C 0.04172 0.73068 0.35872 0.0
C846 C 0.0224 0.8052 0.29349 0.0
C847 C 0.98417 0.7825 0.30652 0.0
H848 H 0.9937 0.30474 0.13091 0.0
H849 H 0.99289 0.2908 0.01433 0.0
H850 H 0.03922 0.24955 0.01901 0.0
H851 H 0.08063 0.21759 0.05614 0.0
H852 H 0.07582 0.22464 0.17294 0.0
H853 H 0.03091 0.26813 0.16846 0.0
C854 C 0.00319 0.29221 0.1066 0.0
C855 C 0.98948 0.30073 0.07239 0.0
C856 C 0.02902 0.26738 0.10954 0.0
C857 C 0.00276 0.28475 0.04109 0.0
C858 C 0.02931 0.26108 0.04368 0.0
C859 C 0.06944 0.22844 0.08052 0.0
C860 C 0.08129 0.21811 0.11479 0.0
C861 C 0.04268 0.25222 0.07773 0.0
C862 C 0.06676 0.23223 0.1463 0.0
C863 C 0.04128 0.25715 0.14372 0.0
H864 H 0.57665 0.80126 0.64191 0.0
H865 H 0.53521 0.73923 0.55135 0.0
H866 H 0.48123 0.77165 0.55245 0.0
H867 H 0.44573 0.81726 0.58023 0.0
H868 H 0.48853 0.8791 0.67061 0.0
H869 H 0.54163 0.8462 0.66955 0.0
C870 C 0.55565 0.79483 0.62251 0.0
C871 C 0.55958 0.76817 0.59652 0.0
C872 C 0.5247 0.81288 0.62396 0.0
C873 C 0.53242 0.7597 0.57161 0.0
C874 C 0.50167 0.77814 0.57235 0.0
C875 C 0.46653 0.8231 0.59996 0.0
C876 C 0.46315 0.85022 0.62577 0.0
C877 C 0.49735 0.80452 0.59869 0.0
C878 C 0.4905 0.85815 0.6507 0.0
C879 C 0.52088 0.83946 0.65003 0.0
H880 H 0.91401 0.75818 0.359 0.0
H881 H 0.98209 0.70257 0.26748 0.0
H882 H 0.04478 0.73621 0.28304 0.0
H883 H 0.02687 0.79408 0.36077 0.0
H884 H 0.98251 0.84279 0.43874 0.0
H885 H 0.93738 0.8051 0.40891 0.0
C886 C 0.94031 0.75806 0.34777 0.0
C887 C 0.94547 0.72962 0.31201 0.0
C888 C 0.97157 0.78428 0.36927 0.0
C889 C 0.98288 0.72216 0.289 0.0
C890 C 0.02233 0.74308 0.29969 0.0
C891 C 0.04025 0.81096 0.37669 0.0
C892 C 0.02686 0.82999 0.40552 0.0
C893 C 0.01638 0.78644 0.35517 0.0
C894 C 0.99076 0.82702 0.41604 0.0
C895 C 0.96415 0.80528 0.39887 0.0
H896 H 0.46392 0.20636 0.85737 0.0
H897 H 0.52208 0.12774 0.83907 0.0
H898 H 0.55838 0.18172 0.83776 0.0
H899 H 0.57117 0.24075 0.84802 0.0
H900 H 0.46979 0.33069 0.88439 0.0
H901 H 0.42504 0.28432 0.88171 0.0
C902 C 0.45566 0.18187 0.8542 0.0
C903 C 0.4732 0.15124 0.84949 0.0
C904 C 0.47414 0.21916 0.85823 0.0
C905 C 0.5094 0.15227 0.84318 0.0
C906 C 0.53049 0.18373 0.84278 0.0
C907 C 0.54417 0.24721 0.85358 0.0
C908 C 0.53672 0.28546 0.86344 0.0
C909 C 0.51754 0.21676 0.85081 0.0
C910 C 0.47985 0.30492 0.87743 0.0
C911 C 0.45126 0.27536 0.87514 0.0
H912 H 0.83093 0.0498 0.75708 0.0
H913 H 0.9429 0.07306 0.74408 0.0
H914 H 0.95465 0.02479 0.78544 0.0
H915 H 0.93319 0.97473 0.82411 0.0
H916 H 0.82151 0.95339 0.83983 0.0
H917 H 0.80949 0.00187 0.79846 0.0
C918 C 0.85789 0.0444 0.76343 0.0
C919 C 0.88597 0.06484 0.74726 0.0
C920 C 0.8645 0.01682 0.7876 0.0
C921 C 0.92077 0.05777 0.75614 0.0
C922 C 0.92755 0.0301 0.77974 0.0
C923 C 0.90626 0.98076 0.81833 0.0
C924 C 0.87822 0.96033 0.83436 0.0
C925 C 0.89964 0.00924 0.79535 0.0
C926 C 0.84345 0.96871 0.82748 0.0
C927 C 0.8366 0.99643 0.80392 0.0
H928 H 0.67613 0.15868 0.49546 0.0
H929 H 0.6698 0.04492 0.5085 0.0
H930 H 0.7198 0.04952 0.55004 0.0
H931 H 0.76445 0.08584 0.58439 0.0
H932 H 0.77056 0.19965 0.57169 0.0
H933 H 0.72169 0.19493 0.52879 0.0
C934 C 0.68572 0.13491 0.50735 0.0
C935 C 0.669 0.10157 0.49899 0.0
C936 C 0.71439 0.1377 0.53165 0.0
C937 C 0.68193 0.07102 0.51459 0.0
C938 C 0.71058 0.07357 0.53843 0.0
C939 C 0.7552 0.10959 0.57213 0.0
C940 C 0.77124 0.14299 0.58138 0.0
C941 C 0.72686 0.10678 0.54743 0.0
C942 C 0.75877 0.17351 0.56521 0.0
C943 C 0.73069 0.1709 0.54066 0.0
H944 H 0.5895 0.94755 0.25496 0.0
H945 H 0.70286 0.96026 0.24731 0.0
H946 H 0.70441 0.00432 0.29608 0.0
H947 H 0.67357 0.04014 0.34036 0.0
H948 H 0.56 0.03279 0.34307 0.0
H949 H 0.55848 0.98542 0.29745 0.0
C950 C 0.61455 0.95981 0.26414 0.0
C951 C 0.64602 0.95053 0.24749 0.0
C952 C 0.6152 0.98599 0.29153 0.0
C953 C 0.67822 0.96702 0.25944 0.0
C954 C 0.67916 0.99216 0.28744 0.0
C955 C 0.64851 0.0282 0.33087 0.0
C956 C 0.61696 0.04008 0.34496 0.0
C957 C 0.64782 0.00203 0.30354 0.0
C958 C 0.58465 0.0244 0.3324 0.0
C959 C 0.58378 0.99715 0.30646 0.0
H960 H 0.84574 0.92817 0.98991 0.0
H961 H 0.85143 0.81563 0.9736 0.0
H962 H 0.80325 0.8039 0.01727 0.0
H963 H 0.75934 0.82576 0.0596 0.0
H964 H 0.75286 0.93852 0.07445 0.0
H965 H 0.80124 0.95001 0.0313 0.0
C966 C 0.83657 0.90102 0.99601 0.0
C967 C 0.85234 0.87276 0.97866 0.0
C968 C 0.80857 0.89457 0.02067 0.0
C969 C 0.83981 0.83781 0.98656 0.0
C970 C 0.81232 0.83114 0.0116 0.0
C971 C 0.76846 0.85291 0.05348 0.0
C972 C 0.75239 0.88126 0.07045 0.0
C973 C 0.79641 0.85932 0.02869 0.0
C974 C 0.76462 0.91619 0.06192 0.0
C975 C 0.79239 0.92278 0.03729 0.0
H976 H 0.94612 0.99381 0.69513 0.0
H977 H 0.84439 0.02622 0.6618 0.0
H978 H 0.81533 0.97786 0.69698 0.0
H979 H 0.8186 0.92686 0.73813 0.0
H980 H 0.91995 0.89658 0.77476 0.0
H981 H 0.94935 0.94341 0.73742 0.0
C982 C 0.9176 0.99019 0.69544 0.0
C983 C 0.8975 0.01376 0.6759 0.0
C984 C 0.90098 0.9626 0.71629 0.0
C985 C 0.86053 0.00874 0.67678 0.0
C986 C 0.84387 0.98096 0.69681 0.0
C987 C 0.84714 0.93043 0.73777 0.0
C988 C 0.86708 0.90829 0.75917 0.0
C989 C 0.86379 0.95784 0.7168 0.0
C990 C 0.90401 0.91342 0.75871 0.0
C991 C 0.92082 0.94009 0.73723 0.0
H992 H 0.82765 0.17936 0.50799 0.0
H993 H 0.83571 0.06797 0.52946 0.0
H994 H 0.78872 0.05283 0.4859 0.0
H995 H 0.74592 0.07107 0.44018 0.0
H996 H 0.73432 0.18248 0.42278 0.0
H997 H 0.78171 0.19766 0.46602 0.0
C998 C 0.81919 0.15179 0.50304 0.0
C999 C 0.83547 0.12492 0.52182 0.0
C1000 C 0.79141 0.14319 0.47853 0.0
C1001 C 0.82373 0.08929 0.51544 0.0
C1002 C 0.79685 0.08054 0.49043 0.0
C1003 C 0.75363 0.09862 0.44618 0.0
C1004 C 0.73666 0.12556 0.42832 0.0
C1005 C 0.78054 0.10723 0.47168 0.0
C1006 C 0.74672 0.16121 0.43646 0.0
C1007 C 0.77409 0.16994 0.46092 0.0
H1008 H 0.55597 0.99449 0.18964 0.0
H1009 H 0.65503 0.97133 0.14094 0.0
H1010 H 0.6856 0.01842 0.17675 0.0
H1011 H 0.6848 0.06387 0.22456 0.0
H1012 H 0.58641 0.08585 0.27524 0.0
H1013 H 0.55485 0.04212 0.23576 0.0
C1014 C 0.5842 -2e-05 0.18679 0.0
C1015 C 0.60337 0.97897 0.16338 0.0
C1016 C 0.6017 0.02696 0.20776 0.0
C1017 C 0.63986 0.98659 0.1595 0.0
C1018 C 0.65733 0.01365 0.17979 0.0
C1019 C 0.65642 0.05918 0.22675 0.0
C1020 C 0.63796 0.07758 0.25303 0.0
C1021 C 0.63864 0.03354 0.20451 0.0
C1022 C 0.6012 0.07148 0.25557 0.0
C1023 C 0.58316 0.04665 0.23287 0.0
H1024 H 0.67834 0.81117 0.00703 0.0
H1025 H 0.67149 0.92384 0.02129 0.0
H1026 H 0.72094 0.93566 0.97971 0.0
H1027 H 0.76541 0.91403 0.93778 0.0
H1028 H 0.77393 0.80125 0.92607 0.0
H1029 H 0.72504 0.7896 0.96814 0.0
C1030 C 0.68769 0.83828 0.00101 0.0
C1031 C 0.67101 0.86651 0.01699 0.0
C1032 C 0.71654 0.84495 0.97743 0.0
C1033 C 0.68379 0.90155 0.00932 0.0
C1034 C 0.71201 0.90838 0.98541 0.0
C1035 C 0.75662 0.88694 0.94458 0.0
C1036 C 0.77339 0.85865 0.92875 0.0
C1037 C 0.7285 0.8803 0.96911 0.0
C1038 C 0.76176 0.82364 0.938 0.0
C1039 C 0.7336 0.81687 0.96194 0.0
H1040 H 0.02865 0.79245 0.92354 0.0
H1041 H 0.9891 0.80529 0.81478 0.0
H1042 H 0.03232 0.76554 0.79134 0.0
H1043 H 0.08039 0.72519 0.80254 0.0
H1044 H 0.11577 0.71156 0.91272 0.0
H1045 H 0.07606 0.75397 0.93441 0.0
C1046 C 0.02949 0.78684 0.89461 0.0
C1047 C 0.00546 0.80176 0.87105 0.0
C1048 C 0.05419 0.76399 0.88143 0.0
C1049 C 0.00711 0.794 0.83365 0.0
C1050 C 0.03194 0.77135 0.82021 0.0
C1051 C 0.07966 0.73173 0.83124 0.0
C1052 C 0.10223 0.71549 0.85577 0.0
C1053 C 0.05547 0.75583 0.84395 0.0
C1054 C 0.10034 0.72435 0.89285 0.0
C1055 C 0.077 0.74842 0.90549 0.0
H1056 H 0.54376 0.69812 0.08786 0.0
H1057 H 0.49062 0.6902 0.19163 0.0
H1058 H 0.52838 0.74019 0.21468 0.0
H1059 H 0.57541 0.78753 0.20465 0.0
H1060 H 0.62709 0.79596 0.10031 0.0
H1061 H 0.59083 0.74458 0.07808 0.0
C1062 C 0.54057 0.70707 0.11563 0.0
C1063 C 0.51435 0.69035 0.13795 0.0
C1064 C 0.56203 0.7361 0.12854 0.0
C1065 C 0.5106 0.70249 0.17385 0.0
C1066 C 0.53218 0.73113 0.18705 0.0
C1067 C 0.57873 0.77799 0.17709 0.0
C1068 C 0.60339 0.79588 0.15386 0.0
C1069 C 0.55777 0.74835 0.16454 0.0
C1070 C 0.60762 0.78318 0.11831 0.0
C1071 C 0.58714 0.7536 0.10574 0.0
H1072 H 0.01002 0.31327 0.683 0.0
H1073 H 0.98772 0.30511 0.56798 0.0
H1074 H 0.94082 0.25962 0.57957 0.0
H1075 H 0.90814 0.21964 0.6217 0.0
H1076 H 0.93022 0.22662 0.73667 0.0
H1077 H 0.97523 0.27476 0.72572 0.0
C1078 C 0.99472 0.30169 0.66054 0.0
C1079 C 0.00275 0.31229 0.62468 0.0
C1080 C 0.96779 0.27517 0.66732 0.0
C1081 C 0.98242 0.29727 0.59588 0.0
C1082 C 0.95548 0.27123 0.60242 0.0
C1083 C 0.9228 0.23172 0.64435 0.0
C1084 C 0.91619 0.21938 0.67985 0.0
C1085 C 0.94836 0.25951 0.63792 0.0
C1086 C 0.935 0.23559 0.70902 0.0
C1087 C 0.96065 0.26318 0.70281 0.0
H1088 H 0.01624 0.67055 0.85129 0.0
H1089 H 0.00118 0.69908 0.96375 0.0
H1090 H 0.95333 0.73533 0.94657 0.0
H1091 H 0.91715 0.76093 0.89971 0.0
H1092 H 0.93198 0.73332 0.78702 0.0
H1093 H 0.97808 0.69453 0.80429 0.0
C1094 C 0.00231 0.68448 0.87204 0.0
C1095 C 0.01246 0.68211 0.90875 0.0
C1096 C 0.97463 0.70543 0.862 0.0
C1097 C 0.99403 0.70033 0.93529 0.0
C1098 C 0.96659 0.72115 0.92552 0.0
C1099 C 0.93032 0.74632 0.87888 0.0
C1100 C 0.92124 0.75031 0.84209 0.0
C1101 C 0.9569 0.72418 0.88895 0.0
C1102 C 0.93846 0.73089 0.81555 0.0
C1103 C 0.96485 0.70865 0.8254 0.0
H1104 H 0.39239 0.25809 0.41116 0.0
H1105 H 0.43618 0.31122 0.29956 0.0
H1106 H 0.501 0.28591 0.30213 0.0
H1107 H 0.54151 0.21733 0.38926 0.0
H1108 H 0.4712 0.18046 0.47227 0.0
H1109 H 0.42454 0.21716 0.45475 0.0
C1110 C 0.41527 0.26053 0.39359 0.0
C1111 C 0.41119 0.28539 0.35495 0.0
C1112 C 0.45075 0.23905 0.40762 0.0
C1113 C 0.44219 0.29453 0.32231 0.0
C1114 C 0.483 0.27875 0.3246 0.0
C1115 C 0.51516 0.21887 0.39954 0.0
C1116 C 0.5077 0.1965 0.42939 0.0
C1117 C 0.48924 0.24038 0.3832 0.0
C1118 C 0.47579 0.19747 0.44881 0.0
C1119 C 0.44852 0.21843 0.43879 0.0
H1120 H 0.99226 0.18282 0.66355 0.0
H1121 H 0.00507 0.20418 0.54884 0.0
H1122 H 0.05272 0.24877 0.56175 0.0
H1123 H 0.09004 0.28351 0.60563 0.0
H1124 H 0.07691 0.26291 0.72036 0.0
H1125 H 0.03077 0.21653 0.70742 0.0
C1126 C 0.00547 0.19722 0.64139 0.0
C1127 C 0.99465 0.19021 0.60528 0.0
C1128 C 0.03314 0.22306 0.64897 0.0
C1129 C 0.01252 0.20898 0.57694 0.0
C1130 C 0.03996 0.23454 0.58426 0.0
C1131 C 0.07705 0.26891 0.62779 0.0
C1132 C 0.08674 0.27714 0.66394 0.0
C1133 C 0.05033 0.24211 0.62017 0.0
C1134 C 0.06994 0.25742 0.69225 0.0
C1135 C 0.0435 0.23075 0.68489 0.0
H1136 H 0.42329 0.70937 0.10868 0.0
H1137 H 0.3969 0.73949 0.21822 0.0
H1138 H 0.44202 0.78828 0.21634 0.0
H1139 H 0.48886 0.82323 0.18375 0.0
H1140 H 0.51748 0.79246 0.07534 0.0
H1141 H 0.47175 0.7436 0.07654 0.0
C1142 C 0.42738 0.72663 0.13212 0.0
C1143 C 0.40647 0.72061 0.16352 0.0
C1144 C 0.45376 0.75481 0.13102 0.0
C1145 C 0.41243 0.74327 0.19365 0.0
C1146 C 0.43829 0.77133 0.19264 0.0
C1147 C 0.48514 0.80574 0.16044 0.0
C1148 C 0.50663 0.81144 0.12957 0.0
C1149 C 0.45909 0.77743 0.16151 0.0
C1150 C 0.5015 0.78852 0.09958 0.0
C1151 C 0.47517 0.76069 0.10016 0.0
H1152 H 0.69962 0.451 0.78617 0.0
H1153 H 0.60296 0.38626 0.76949 0.0
H1154 H 0.58982 0.42106 0.71612 0.0
H1155 H 0.60422 0.47076 0.67544 0.0
H1156 H 0.69966 0.53727 0.69165 0.0
H1157 H 0.71485 0.50082 0.74377 0.0
C1158 C 0.67572 0.44449 0.77081 0.0
C1159 C 0.65225 0.41608 0.7821 0.0
C1160 C 0.66811 0.46485 0.73998 0.0
C1161 C 0.62143 0.40803 0.76174 0.0
C1162 C 0.61394 0.42782 0.73101 0.0
C1163 C 0.62854 0.47727 0.69012 0.0
C1164 C 0.65065 0.50693 0.67968 0.0
C1165 C 0.6369 0.45642 0.72008 0.0
C1166 C 0.6821 0.51467 0.69907 0.0
C1167 C 0.69075 0.49384 0.72894 0.0
H1168 H 0.81582 0.32679 0.03453 0.0
H1169 H 0.83027 0.43299 0.99162 0.0
H1170 H 0.78106 0.42098 0.94998 0.0
H1171 H 0.73275 0.38119 0.92688 0.0
H1172 H 0.71551 0.27602 0.9718 0.0
H1173 H 0.76646 0.28689 0.01174 0.0
C1174 C 0.80819 0.34718 0.01596 0.0
C1175 C 0.82671 0.38067 0.0161 0.0
C1176 C 0.77914 0.34042 0.99264 0.0
C1177 C 0.81638 0.40701 0.99213 0.0
C1178 C 0.78829 0.40016 0.96821 0.0
C1179 C 0.74008 0.36063 0.94541 0.0
C1180 C 0.7202 0.32793 0.94642 0.0
C1181 C 0.76926 0.36711 0.96846 0.0
C1182 C 0.73026 0.30152 0.9705 0.0
C1183 C 0.75945 0.30768 0.99335 0.0
H1184 H 0.84556 0.56129 0.20342 0.0
H1185 H 0.9318 0.56731 0.27986 0.0
H1186 H 0.95774 0.51774 0.24909 0.0
H1187 H 0.95331 0.46958 0.20289 0.0
H1188 H 0.86616 0.46466 0.12744 0.0
H1189 H 0.84367 0.51713 0.15501 0.0
C1190 C 0.87022 0.55205 0.21324 0.0
C1191 C 0.88636 0.56764 0.24428 0.0
C1192 C 0.88486 0.52358 0.19557 0.0
C1193 C 0.91862 0.55561 0.25618 0.0
C1194 C 0.93347 0.52721 0.23862 0.0
C1195 C 0.92943 0.48007 0.19255 0.0
C1196 C 0.91084 0.46246 0.16392 0.0
C1197 C 0.91638 0.51043 0.20874 0.0
C1198 C 0.88044 0.47694 0.15017 0.0
C1199 C 0.86767 0.50721 0.16571 0.0
H1200 H 0.8143 0.59926 0.42404 0.0
H1201 H 0.73444 0.66313 0.38055 0.0
H1202 H 0.70042 0.65556 0.43644 0.0
H1203 H 0.69343 0.6319 0.49822 0.0
H1204 H 0.77405 0.56997 0.54342 0.0
H1205 H 0.80777 0.57633 0.48694 0.0
C1206 C 0.78958 0.61167 0.42694 0.0
C1207 C 0.77725 0.63204 0.39818 0.0
C1208 C 0.77017 0.60763 0.4596 0.0
C1209 C 0.7447 0.64729 0.40213 0.0
C1210 C 0.72518 0.64309 0.43421 0.0
C1211 C 0.71846 0.61991 0.49587 0.0
C1212 C 0.73108 0.60053 0.52522 0.0
C1213 C 0.73774 0.62357 0.46324 0.0
C1214 C 0.7636 0.58514 0.52143 0.0
C1215 C 0.78286 0.58854 0.48898 0.0
H1216 H 0.64304 0.52817 0.79874 0.0
H1217 H 0.54619 0.49934 0.74153 0.0
H1218 H 0.55742 0.54938 0.70029 0.0
H1219 H 0.59502 0.60096 0.67993 0.0
H1220 H 0.69271 0.6287 0.73607 0.0
H1221 H 0.68079 0.5795 0.77809 0.0
C1222 C 0.6243 0.53287 0.77734 0.0
C1223 C 0.59382 0.50994 0.77333 0.0
C1224 C 0.631 0.56161 0.7535 0.0
C1225 C 0.56992 0.51645 0.7453 0.0
C1226 C 0.57626 0.54516 0.7217 0.0
C1227 C 0.6137 0.59637 0.70135 0.0
C1228 C 0.64475 0.61861 0.70465 0.0
C1229 C 0.60676 0.56787 0.72547 0.0
C1230 C 0.66862 0.61204 0.73269 0.0
C1231 C 0.6618 0.58392 0.75688 0.0
H1232 H 0.75433 0.42451 0.04745 0.0
H1233 H 0.69828 0.32573 0.07805 0.0
H1234 H 0.6563 0.33217 0.02939 0.0
H1235 H 0.63503 0.36488 0.97802 0.0
H1236 H 0.69066 0.46239 0.94395 0.0
H1237 H 0.73285 0.45753 0.99398 0.0
C1238 C 0.73281 0.40455 0.04353 0.0
C1239 C 0.72956 0.37476 0.0667 0.0
C1240 C 0.70841 0.40824 0.01496 0.0
C1241 C 0.70155 0.34907 0.06099 0.0
C1242 C 0.67738 0.35265 0.03304 0.0
C1243 C 0.65632 0.38519 0.98148 0.0
C1244 C 0.65958 0.41398 0.95729 0.0
C1245 C 0.68053 0.38201 0.00989 0.0
C1246 C 0.68762 0.43981 0.96206 0.0
C1247 C 0.71162 0.43715 0.99082 0.0
H1248 H 0.90474 0.49627 0.32767 0.0
H1249 H 0.81898 0.56502 0.33579 0.0
H1250 H 0.78864 0.53316 0.28553 0.0
H1251 H 0.78959 0.48929 0.23533 0.0
H1252 H 0.87565 0.42046 0.22936 0.0
H1253 H 0.90259 0.44889 0.2827 0.0
C1254 C 0.87924 0.50419 0.31876 0.0
C1255 C 0.86467 0.53368 0.33476 0.0
C1256 C 0.8621 0.48589 0.28993 0.0
C1257 C 0.83113 0.54282 0.32349 0.0
C1258 C 0.81379 0.52463 0.29469 0.0
C1259 C 0.81412 0.48041 0.24583 0.0
C1260 C 0.83097 0.45338 0.22765 0.0
C1261 C 0.82957 0.49679 0.27695 0.0
C1262 C 0.86239 0.4417 0.24218 0.0
C1263 C 0.8778 0.45779 0.27291 0.0
H1264 H 0.80432 0.69652 0.45305 0.0
H1265 H 0.86667 0.63821 0.52707 0.0
H1266 H 0.8253 0.64809 0.5763 0.0
H1267 H 0.76919 0.6692 0.59708 0.0
H1268 H 0.70329 0.72166 0.52166 0.0
H1269 H 0.74814 0.71821 0.47415 0.0
C1270 C 0.80917 0.68666 0.48017 0.0
C1271 C 0.83849 0.66678 0.48652 0.0
C1272 C 0.78443 0.69108 0.50795 0.0
C1273 C 0.84419 0.65353 0.52156 0.0
C1274 C 0.82052 0.65908 0.54967 0.0
C1275 C 0.76483 0.68016 0.57032 0.0
C1276 C 0.73313 0.69573 0.56282 0.0
C1277 C 0.79017 0.6771 0.54296 0.0
C1278 C 0.7275 0.7094 0.52795 0.0
C1279 C 0.75318 0.70761 0.50089 0.0
H1280 H 0.51945 0.64014 0.54587 0.0
H1281 H 0.5648 0.64949 0.65327 0.0
H1282 H 0.52082 0.69031 0.67095 0.0
H1283 H 0.46867 0.72348 0.65603 0.0
H1284 H 0.42039 0.70929 0.55039 0.0
H1285 H 0.46598 0.67036 0.5321 0.0
C1286 C 0.51975 0.65094 0.57323 0.0
C1287 C 0.54623 0.64224 0.59782 0.0
C1288 C 0.49359 0.67364 0.58363 0.0
C1289 C 0.54556 0.65623 0.63333 0.0
C1290 C 0.52014 0.67953 0.6436 0.0
C1291 C 0.46827 0.71195 0.62898 0.0
C1292 C 0.44132 0.71957 0.60448 0.0
C1293 C 0.49408 0.68859 0.61893 0.0
C1294 C 0.44084 0.70394 0.56974 0.0
C1295 C 0.46691 0.68162 0.55925 0.0
H1296 H 0.36744 0.55079 0.20283 0.0
H1297 H 0.30335 0.59137 0.28532 0.0
H1298 H 0.32541 0.5547 0.33308 0.0
H1299 H 0.36766 0.51096 0.36082 0.0
H1300 H 0.4597 0.45181 0.3011 0.0
H1301 H 0.4507 0.47953 0.23388 0.0
C1302 C 0.36211 0.55056 0.23153 0.0
C1303 C 0.33637 0.57331 0.24227 0.0
C1304 C 0.38046 0.52933 0.25667 0.0
C1305 C 0.32368 0.57382 0.27825 0.0
C1306 C 0.33634 0.55288 0.30599 0.0
C1307 C 0.38061 0.50843 0.3348 0.0
C1308 C 0.41463 0.48086 0.33389 0.0
C1309 C 0.36366 0.53106 0.2998 0.0
C1310 C 0.43959 0.47045 0.29765 0.0
C1311 C 0.43315 0.48758 0.25557 0.0
H1312 H 0.30996 0.5758 0.0273 0.0
H1313 H 0.22157 0.56641 0.09718 0.0
H1314 H 0.18106 0.58747 0.05325 0.0
H1315 H 0.16745 0.63007 0.00316 0.0
H1316 H 0.26391 0.65666 0.93666 0.0
H1317 H 0.30896 0.64827 0.93242 0.0
C1318 C 0.28271 0.58189 0.02968 0.0
C1319 C 0.26853 0.57563 0.06457 0.0
C1320 C 0.26416 0.60178 0.00294 0.0
C1321 C 0.232 0.57406 0.07069 0.0
C1322 C 0.20858 0.5869 0.04581 0.0
C1323 C 0.19406 0.63049 0.99281 0.0
C1324 C 0.20301 0.65758 0.95685 0.0
C1325 C 0.22097 0.60433 0.01479 0.0
C1326 C 0.24124 0.66551 0.93372 0.0
C1327 C 0.27993 0.64381 0.94661 0.0
H1328 H 0.17305 0.53427 0.83302 0.0
H1329 H 0.06318 0.51146 0.85783 0.0
H1330 H 0.05984 0.46305 0.81332 0.0
H1331 H 0.08819 0.42691 0.76738 0.0
H1332 H 0.19673 0.45254 0.7385 0.0
H1333 H 0.20079 0.49976 0.78441 0.0
C1334 C 0.14834 0.51897 0.82817 0.0
C1335 C 0.11818 0.52675 0.84805 0.0
C1336 C 0.14655 0.49133 0.80215 0.0
C1337 C 0.08652 0.50623 0.84232 0.0
C1338 C 0.08468 0.47843 0.81708 0.0
C1339 C 0.11271 0.44286 0.77118 0.0
C1340 C 0.14208 0.43626 0.74953 0.0
C1341 C 0.11451 0.47067 0.79686 0.0
C1342 C 0.17365 0.45728 0.7546 0.0
C1343 C 0.17603 0.48418 0.78099 0.0
H1344 H 0.23678 0.41338 0.56869 0.0
H1345 H 0.25394 0.30174 0.57474 0.0
H1346 H 0.29903 0.30868 0.52785 0.0
H1347 H 0.3346 0.3463 0.48528 0.0
H1348 H 0.31805 0.45794 0.479 0.0
H1349 H 0.272 0.45103 0.52527 0.0
C1350 C 0.25047 0.39062 0.55986 0.0
C1351 C 0.24186 0.35713 0.5755 0.0
C1352 C 0.27675 0.39474 0.53272 0.0
C1353 C 0.25989 0.32791 0.56342 0.0
C1354 C 0.28581 0.33179 0.5365 0.0
C1355 C 0.32086 0.3691 0.49394 0.0
C1356 C 0.32994 0.40259 0.47862 0.0
C1357 C 0.29458 0.36506 0.52098 0.0
C1358 C 0.31183 0.43184 0.49037 0.0
C1359 C 0.28546 0.42796 0.51695 0.0
H1360 H 0.35742 0.44778 0.32595 0.0
H1361 H 0.32523 0.39547 0.22798 0.0
H1362 H 0.35332 0.43986 0.18844 0.0
H1363 H 0.39558 0.49457 0.17355 0.0
H1364 H 0.45858 0.57371 0.25696 0.0
H1365 H 0.43494 0.54172 0.319 0.0
C1366 C 0.35993 0.44841 0.29673 0.0
C1367 C 0.3423 0.41949 0.27889 0.0
C1368 C 0.38082 0.47571 0.27759 0.0
C1369 C 0.33977 0.41783 0.24067 0.0
C1370 C 0.35604 0.44322 0.21758 0.0
C1371 C 0.40011 0.49941 0.20225 0.0
C1372 C 0.42851 0.53525 0.2127 0.0
C1373 C 0.37715 0.47145 0.23124 0.0
C1374 C 0.44084 0.55021 0.25458 0.0
C1375 C 0.42518 0.53023 0.29325 0.0
H1376 H 0.37431 0.60699 0.99658 0.0
H1377 H 0.35358 0.69009 0.07199 0.0
H1378 H 0.29562 0.69905 0.04647 0.0
H1379 H 0.23804 0.67686 0.00985 0.0
H1380 H 0.26865 0.55843 0.92501 0.0
H1381 H 0.33223 0.57555 0.95351 0.0
C1382 C 0.35692 0.62687 0.00551 0.0
C1383 C 0.36606 0.64736 0.03649 0.0
C1384 C 0.32345 0.62705 0.98979 0.0
C1385 C 0.34459 0.67376 0.04919 0.0
C1386 C 0.31139 0.67926 0.0345 0.0
C1387 C 0.25331 0.65695 0.99655 0.0
C1388 C 0.23564 0.60469 0.95192 0.0
C1389 C 0.29711 0.6572 0.00731 0.0
C1390 C 0.2716 0.58142 0.94261 0.0
C1391 C 0.31169 0.59278 0.96067 0.0
H1392 H 0.14335 0.48607 0.67018 0.0
H1393 H 0.04095 0.48886 0.72037 0.0
H1394 H 0.06216 0.53951 0.7575 0.0
H1395 H 0.11123 0.57931 0.77983 0.0
H1396 H 0.21379 0.57633 0.73026 0.0
H1397 H 0.19103 0.52977 0.68852 0.0
C1398 C 0.12564 0.49789 0.68911 0.0
C1399 C 0.09083 0.48324 0.69303 0.0
C1400 C 0.13802 0.52702 0.71046 0.0
C1401 C 0.06798 0.49935 0.7171 0.0
C1402 C 0.08006 0.52837 0.73832 0.0
C1403 C 0.12846 0.56874 0.75957 0.0
C1404 C 0.16423 0.5808 0.75845 0.0
C1405 C 0.11525 0.54185 0.73587 0.0
C1406 C 0.18617 0.56734 0.73174 0.0
C1407 C 0.1732 0.54064 0.70795 0.0
H1408 H 0.15015 0.43069 0.5063 0.0
H1409 H 0.15464 0.32408 0.54646 0.0
H1410 H 0.20301 0.31395 0.50408 0.0
H1411 H 0.24425 0.33607 0.45591 0.0
H1412 H 0.23968 0.44333 0.417 0.0
H1413 H 0.19173 0.45305 0.45936 0.0
C1414 C 0.16196 0.40533 0.50584 0.0
C1415 C 0.1492 0.37815 0.5293 0.0
C1416 C 0.18998 0.40009 0.48207 0.0
C1417 C 0.16441 0.34537 0.52867 0.0
C1418 C 0.19187 0.3396 0.50441 0.0
C1419 C 0.2329 0.36164 0.45699 0.0
C1420 C 0.24558 0.38908 0.4336 0.0
C1421 C 0.20504 0.36689 0.48116 0.0
C1422 C 0.23038 0.42189 0.43483 0.0
C1423 C 0.20297 0.42744 0.45899 0.0
H1424 H 0.52852 0.32124 0.39029 0.0
H1425 H 0.41561 0.22523 0.34122 0.0
H1426 H 0.46103 0.22286 0.33189 0.0
H1427 H 0.54315 0.18834 0.30184 0.0
H1428 H 0.62594 0.25695 0.34863 0.0
H1429 H 0.58656 0.30043 0.36897 0.0
C1430 C 0.51504 0.29898 0.37638 0.0
C1431 C 0.47031 0.29326 0.37985 0.0
C1432 C 0.5391 0.27107 0.35223 0.0
C1433 C 0.44658 0.23601 0.34364 0.0
C1434 C 0.48302 0.21576 0.32318 0.0
C1435 C 0.5509 0.21308 0.31555 0.0
C1436 C 0.58628 0.22033 0.3253 0.0
C1437 C 0.52463 0.23385 0.32835 0.0
C1438 C 0.59809 0.25205 0.34279 0.0
C1439 C 0.57547 0.27721 0.35466 0.0
loop_
_geom_bond_atom_site_label_1
_geom_bond_atom_site_label_2
_geom_bond_distance
_geom_bond_site_symmetry_2
_ccdc_geom_bond_type
C0 O1 1.160 . S
C0 O7 1.185 . S
O1 C0 1.160 . S
O2 Zn3 1.899 . S
O2 C10 1.284 . S
Zn3 O2 1.899 . S
Zn3 O4 2.032 . S
Zn3 O7 2.086 . S
Zn3 O12 1.977 . S
O4 Zn3 2.032 . S
O4 C8 1.278 . S
C5 O6 1.203 . S
C5 O12 1.267 . S
O6 C5 1.203 . S
O7 C0 1.185 . S
O7 Zn3 2.086 . S
C8 O4 1.278 . S
C8 O9 1.211 . S
O9 C8 1.211 . S
C10 O2 1.284 . S
C10 O11 1.273 . S
O11 C10 1.273 . S
O12 Zn3 1.977 . S
O12 C5 1.267 . S
C13 O14 1.160 . S
C13 O20 1.185 . S
O14 C13 1.160 . S
O15 Zn16 1.899 . S
O15 C23 1.284 . S
Zn16 O15 1.899 . S
Zn16 O17 2.032 . S
Zn16 O20 2.086 . S
Zn16 O25 1.977 . S
O17 Zn16 2.032 . S
O17 C21 1.278 . S
C18 O19 1.203 . S
C18 O25 1.267 . S
O19 C18 1.203 . S
O20 C13 1.185 . S
O20 Zn16 2.086 . S
C21 O17 1.278 . S
C21 O22 1.211 . S
O22 C21 1.211 . S
C23 O15 1.284 . S
C23 O24 1.273 . S
O24 C23 1.273 . S
O25 Zn16 1.977 . S
O25 C18 1.267 . S
C26 O27 1.160 . S
C26 O33 1.185 . S
O27 C26 1.160 . S
O28 Zn29 1.899 . S
O28 C36 1.284 . S
Zn29 O28 1.899 . S
Zn29 O30 2.032 . S
Zn29 O33 2.086 . S
Zn29 O38 1.977 . S
O30 Zn29 2.032 . S
O30 C34 1.278 . S
C31 O32 1.203 . S
C31 O38 1.267 . S
O32 C31 1.203 . S
O33 C26 1.185 . S
O33 Zn29 2.086 . S
C34 O30 1.278 . S
C34 O35 1.211 . S
O35 C34 1.211 . S
C36 O28 1.284 . S
C36 O37 1.273 . S
O37 C36 1.273 . S
O38 Zn29 1.977 . S
O38 C31 1.267 . S
C39 O40 1.160 . S
C39 O46 1.185 . S
O40 C39 1.160 . S
O41 Zn42 1.899 . S
O41 C49 1.284 . S
Zn42 O41 1.899 . S
Zn42 O43 2.032 . S
Zn42 O46 2.086 . S
Zn42 O51 1.977 . S
O43 Zn42 2.032 . S
O43 C47 1.278 . S
C44 O45 1.203 . S
C44 O51 1.267 . S
O45 C44 1.203 . S
O46 C39 1.185 . S
O46 Zn42 2.086 . S
C47 O43 1.278 . S
C47 O48 1.211 . S
O48 C47 1.211 . S
C49 O41 1.284 . S
C49 O50 1.273 . S
O50 C49 1.273 . S
O51 Zn42 1.977 . S
O51 C44 1.267 . S
C52 O53 1.160 . S
C52 O59 1.185 . S
O53 C52 1.160 . S
O54 Zn55 1.899 . S
O54 C62 1.284 . S
Zn55 O54 1.899 . S
Zn55 O56 2.032 . S
Zn55 O59 2.086 . S
Zn55 O64 1.977 . S
O56 Zn55 2.032 . S
O56 C60 1.278 . S
C57 O58 1.203 . S
C57 O64 1.267 . S
O58 C57 1.203 . S
O59 C52 1.185 . S
O59 Zn55 2.086 . S
C60 O56 1.278 . S
C60 O61 1.211 . S
O61 C60 1.211 . S
C62 O54 1.284 . S
C62 O63 1.273 . S
O63 C62 1.273 . S
O64 Zn55 1.977 . S
O64 C57 1.267 . S
C65 O66 1.160 . S
C65 O72 1.185 . S
O66 C65 1.160 . S
O67 Zn68 1.899 . S
O67 C75 1.284 . S
Zn68 O67 1.899 . S
Zn68 O69 2.032 . S
Zn68 O72 2.086 . S
Zn68 O77 1.977 . S
O69 Zn68 2.032 . S
O69 C73 1.278 . S
C70 O71 1.203 . S
C70 O77 1.267 . S
O71 C70 1.203 . S
O72 C65 1.185 . S
O72 Zn68 2.086 . S
C73 O69 1.278 . S
C73 O74 1.211 . S
O74 C73 1.211 . S
C75 O67 1.284 . S
C75 O76 1.273 . S
O76 C75 1.273 . S
O77 Zn68 1.977 . S
O77 C70 1.267 . S
C78 O79 1.160 . S
C78 O85 1.185 . S
O79 C78 1.160 . S
O80 Zn81 1.899 . S
O80 C88 1.284 . S
Zn81 O80 1.899 . S
Zn81 O82 2.032 . S
Zn81 O85 2.086 . S
Zn81 O90 1.977 . S
O82 Zn81 2.032 . S
O82 C86 1.278 . S
C83 O84 1.203 . S
C83 O90 1.267 . S
O84 C83 1.203 . S
O85 C78 1.185 . S
O85 Zn81 2.086 . S
C86 O82 1.278 . S
C86 O87 1.211 . S
O87 C86 1.211 . S
C88 O80 1.284 . S
C88 O89 1.273 . S
O89 C88 1.273 . S
O90 Zn81 1.977 . S
O90 C83 1.267 . S
C91 O92 1.160 . S
C91 O98 1.185 . S
O92 C91 1.160 . S
O93 Zn94 1.899 . S
O93 C101 1.284 . S
Zn94 O93 1.899 . S
Zn94 O95 2.032 . S
Zn94 O98 2.086 . S
Zn94 O103 1.977 . S
O95 Zn94 2.032 . S
O95 C99 1.278 . S
C96 O97 1.203 . S
C96 O103 1.267 . S
O97 C96 1.203 . S
O98 C91 1.185 . S
O98 Zn94 2.086 . S
C99 O95 1.278 . S
C99 O100 1.211 . S
O100 C99 1.211 . S
C101 O93 1.284 . S
C101 O102 1.273 . S
O102 C101 1.273 . S
O103 Zn94 1.977 . S
O103 C96 1.267 . S
C104 O105 1.160 . S
C104 O111 1.185 . S
O105 C104 1.160 . S
O106 Zn107 1.899 . S
O106 C114 1.284 . S
Zn107 O106 1.899 . S
Zn107 O108 2.032 . S
Zn107 O111 2.086 . S
Zn107 O116 1.977 . S
O108 Zn107 2.032 . S
O108 C112 1.278 . S
C109 O110 1.203 . S
C109 O116 1.267 . S
O110 C109 1.203 . S
O111 C104 1.185 . S
O111 Zn107 2.086 . S
C112 O108 1.278 . S
C112 O113 1.211 . S
O113 C112 1.211 . S
C114 O106 1.284 . S
C114 O115 1.273 . S
O115 C114 1.273 . S
O116 Zn107 1.977 . S
O116 C109 1.267 . S
C117 O118 1.160 . S
C117 O124 1.185 . S
O118 C117 1.160 . S
O119 Zn120 1.899 . S
O119 C127 1.284 . S
Zn120 O119 1.899 . S
Zn120 O121 2.032 . S
Zn120 O124 2.086 . S
Zn120 O129 1.977 . S
O121 Zn120 2.032 . S
O121 C125 1.278 . S
C122 O123 1.203 . S
C122 O129 1.267 . S
O123 C122 1.203 . S
O124 C117 1.185 . S
O124 Zn120 2.086 . S
C125 O121 1.278 . S
C125 O126 1.211 . S
O126 C125 1.211 . S
C127 O119 1.284 . S
C127 O128 1.273 . S
O128 C127 1.273 . S
O129 Zn120 1.977 . S
O129 C122 1.267 . S
C130 O131 1.160 . S
C130 O137 1.185 . S
O131 C130 1.160 . S
O132 Zn133 1.899 . S
O132 C140 1.284 . S
Zn133 O132 1.899 . S
Zn133 O134 2.032 . S
Zn133 O137 2.086 . S
Zn133 O142 1.977 . S
O134 Zn133 2.032 . S
O134 C138 1.278 . S
C135 O136 1.203 . S
C135 O142 1.267 . S
O136 C135 1.203 . S
O137 C130 1.185 . S
O137 Zn133 2.086 . S
C138 O134 1.278 . S
C138 O139 1.211 . S
O139 C138 1.211 . S
C140 O132 1.284 . S
C140 O141 1.273 . S
O141 C140 1.273 . S
O142 Zn133 1.977 . S
O142 C135 1.267 . S
C143 O144 1.160 . S
C143 O150 1.185 . S
O144 C143 1.160 . S
O145 Zn146 1.899 . S
O145 C153 1.284 . S
Zn146 O145 1.899 . S
Zn146 O147 2.032 . S
Zn146 O150 2.086 . S
Zn146 O155 1.977 . S
O147 Zn146 2.032 . S
O147 C151 1.278 . S
C148 O149 1.203 . S
C148 O155 1.267 . S
O149 C148 1.203 . S
O150 C143 1.185 . S
O150 Zn146 2.086 . S
C151 O147 1.278 . S
C151 O152 1.211 . S
O152 C151 1.211 . S
C153 O145 1.284 . S
C153 O154 1.273 . S
O154 C153 1.273 . S
O155 Zn146 1.977 . S
O155 C148 1.267 . S
C156 O157 1.160 . S
C156 O163 1.185 . S
O157 C156 1.160 . S
O158 Zn159 1.899 . S
O158 C166 1.284 . S
Zn159 O158 1.899 . S
Zn159 O160 2.032 . S
Zn159 O163 2.086 . S
Zn159 O168 1.977 . S
O160 Zn159 2.032 . S
O160 C164 1.278 . S
C161 O162 1.203 . S
C161 O168 1.267 . S
O162 C161 1.203 . S
O163 C156 1.185 . S
O163 Zn159 2.086 . S
C164 O160 1.278 . S
C164 O165 1.211 . S
O165 C164 1.211 . S
C166 O158 1.284 . S
C166 O167 1.273 . S
O167 C166 1.273 . S
O168 Zn159 1.977 . S
O168 C161 1.267 . S
C169 O170 1.160 . S
C169 O176 1.185 . S
O170 C169 1.160 . S
O171 Zn172 1.899 . S
O171 C179 1.284 . S
Zn172 O171 1.899 . S
Zn172 O173 2.032 . S
Zn172 O176 2.086 . S
Zn172 O181 1.977 . S
O173 Zn172 2.032 . S
O173 C177 1.278 . S
C174 O175 1.203 . S
C174 O181 1.267 . S
O175 C174 1.203 . S
O176 C169 1.185 . S
O176 Zn172 2.086 . S
C177 O173 1.278 . S
C177 O178 1.211 . S
O178 C177 1.211 . S
C179 O171 1.284 . S
C179 O180 1.273 . S
O180 C179 1.273 . S
O181 Zn172 1.977 . S
O181 C174 1.267 . S
C182 O183 1.160 . S
C182 O189 1.185 . S
O183 C182 1.160 . S
O184 Zn185 1.899 . S
O184 C192 1.284 . S
Zn185 O184 1.899 . S
Zn185 O186 2.032 . S
Zn185 O189 2.086 . S
Zn185 O194 1.977 . S
O186 Zn185 2.032 . S
O186 C190 1.278 . S
C187 O188 1.203 . S
C187 O194 1.267 . S
O188 C187 1.203 . S
O189 C182 1.185 . S
O189 Zn185 2.086 . S
C190 O186 1.278 . S
C190 O191 1.211 . S
O191 C190 1.211 . S
C192 O184 1.284 . S
C192 O193 1.273 . S
O193 C192 1.273 . S
O194 Zn185 1.977 . S
O194 C187 1.267 . S
C195 O196 1.160 . S
C195 O202 1.185 . S
O196 C195 1.160 . S
O197 Zn198 1.899 . S
O197 C205 1.284 . S
Zn198 O197 1.899 . S
Zn198 O199 2.032 . S
Zn198 O202 2.086 . S
Zn198 O207 1.977 . S
O199 Zn198 2.032 . S
O199 C203 1.278 . S
C200 O201 1.203 . S
C200 O207 1.267 . S
O201 C200 1.203 . S
O202 C195 1.185 . S
O202 Zn198 2.086 . S
C203 O199 1.278 . S
C203 O204 1.211 . S
O204 C203 1.211 . S
C205 O197 1.284 . S
C205 O206 1.273 . S
O206 C205 1.273 . S
O207 Zn198 1.977 . S
O207 C200 1.267 . S
C208 O209 1.160 . S
C208 O215 1.185 . S
O209 C208 1.160 . S
O210 Zn211 1.899 . S
O210 C218 1.284 . S
Zn211 O210 1.899 . S
Zn211 O212 2.032 . S
Zn211 O215 2.086 . S
Zn211 O220 1.977 . S
O212 Zn211 2.032 . S
O212 C216 1.278 . S
C213 O214 1.203 . S
C213 O220 1.267 . S
O214 C213 1.203 . S
O215 C208 1.185 . S
O215 Zn211 2.086 . S
C216 O212 1.278 . S
C216 O217 1.211 . S
O217 C216 1.211 . S
C218 O210 1.284 . S
C218 O219 1.273 . S
O219 C218 1.273 . S
O220 Zn211 1.977 . S
O220 C213 1.267 . S
C221 O222 1.160 . S
C221 O228 1.185 . S
O222 C221 1.160 . S
O223 Zn224 1.899 . S
O223 C231 1.284 . S
Zn224 O223 1.899 . S
Zn224 O225 2.032 . S
Zn224 O228 2.086 . S
Zn224 O233 1.977 . S
O225 Zn224 2.032 . S
O225 C229 1.278 . S
C226 O227 1.203 . S
C226 O233 1.267 . S
O227 C226 1.203 . S
O228 C221 1.185 . S
O228 Zn224 2.086 . S
C229 O225 1.278 . S
C229 O230 1.211 . S
O230 C229 1.211 . S
C231 O223 1.284 . S
C231 O232 1.273 . S
O232 C231 1.273 . S
O233 Zn224 1.977 . S
O233 C226 1.267 . S
C234 O235 1.160 . S
C234 O241 1.185 . S
O235 C234 1.160 . S
O236 Zn237 1.899 . S
O236 C244 1.284 . S
Zn237 O236 1.899 . S
Zn237 O238 2.032 . S
Zn237 O241 2.086 . S
Zn237 O246 1.977 . S
O238 Zn237 2.032 . S
O238 C242 1.278 . S
C239 O240 1.203 . S
C239 O246 1.267 . S
O240 C239 1.203 . S
O241 C234 1.185 . S
O241 Zn237 2.086 . S
C242 O238 1.278 . S
C242 O243 1.211 . S
O243 C242 1.211 . S
C244 O236 1.284 . S
C244 O245 1.273 . S
O245 C244 1.273 . S
O246 Zn237 1.977 . S
O246 C239 1.267 . S
C247 O248 1.160 . S
C247 O254 1.185 . S
O248 C247 1.160 . S
O249 Zn250 1.899 . S
O249 C257 1.284 . S
Zn250 O249 1.899 . S
Zn250 O251 2.032 . S
Zn250 O254 2.086 . S
Zn250 O259 1.977 . S
O251 Zn250 2.032 . S
O251 C255 1.278 . S
C252 O253 1.203 . S
C252 O259 1.267 . S
O253 C252 1.203 . S
O254 C247 1.185 . S
O254 Zn250 2.086 . S
C255 O251 1.278 . S
C255 O256 1.211 . S
O256 C255 1.211 . S
C257 O249 1.284 . S
C257 O258 1.273 . S
O258 C257 1.273 . S
O259 Zn250 1.977 . S
O259 C252 1.267 . S
C260 O261 1.160 . S
C260 O267 1.185 . S
O261 C260 1.160 . S
O262 Zn263 1.899 . S
O262 C270 1.284 . S
Zn263 O262 1.899 . S
Zn263 O264 2.032 . S
Zn263 O267 2.086 . S
Zn263 O272 1.977 . S
O264 Zn263 2.032 . S
O264 C268 1.278 . S
C265 O266 1.203 . S
C265 O272 1.267 . S
O266 C265 1.203 . S
O267 C260 1.185 . S
O267 Zn263 2.086 . S
C268 O264 1.278 . S
C268 O269 1.211 . S
O269 C268 1.211 . S
C270 O262 1.284 . S
C270 O271 1.273 . S
O271 C270 1.273 . S
O272 Zn263 1.977 . S
O272 C265 1.267 . S
C273 O274 1.160 . S
C273 O280 1.185 . S
O274 C273 1.160 . S
O275 Zn276 1.899 . S
O275 C283 1.284 . S
Zn276 O275 1.899 . S
Zn276 O277 2.032 . S
Zn276 O280 2.086 . S
Zn276 O285 1.977 . S
O277 Zn276 2.032 . S
O277 C281 1.278 . S
C278 O279 1.203 . S
C278 O285 1.267 . S
O279 C278 1.203 . S
O280 C273 1.185 . S
O280 Zn276 2.086 . S
C281 O277 1.278 . S
C281 O282 1.211 . S
O282 C281 1.211 . S
C283 O275 1.284 . S
C283 O284 1.273 . S
O284 C283 1.273 . S
O285 Zn276 1.977 . S
O285 C278 1.267 . S
C286 O287 1.160 . S
C286 O293 1.185 . S
O287 C286 1.160 . S
O288 Zn289 1.899 . S
O288 C296 1.284 . S
Zn289 O288 1.899 . S
Zn289 O290 2.032 . S
Zn289 O293 2.086 . S
Zn289 O298 1.977 . S
O290 Zn289 2.032 . S
O290 C294 1.278 . S
C291 O292 1.203 . S
C291 O298 1.267 . S
O292 C291 1.203 . S
O293 C286 1.185 . S
O293 Zn289 2.086 . S
C294 O290 1.278 . S
C294 O295 1.211 . S
O295 C294 1.211 . S
C296 O288 1.284 . S
C296 O297 1.273 . S
O297 C296 1.273 . S
O298 Zn289 1.977 . S
O298 C291 1.267 . S
C299 O300 1.160 . S
C299 O306 1.185 . S
O300 C299 1.160 . S
O301 Zn302 1.899 . S
O301 C309 1.284 . S
Zn302 O301 1.899 . S
Zn302 O303 2.032 . S
Zn302 O306 2.086 . S
Zn302 O311 1.977 . S
O303 Zn302 2.032 . S
O303 C307 1.278 . S
C304 O305 1.203 . S
C304 O311 1.267 . S
O305 C304 1.203 . S
O306 C299 1.185 . S
O306 Zn302 2.086 . S
C307 O303 1.278 . S
C307 O308 1.211 . S
O308 C307 1.211 . S
C309 O301 1.284 . S
C309 O310 1.273 . S
O310 C309 1.273 . S
O311 Zn302 1.977 . S
O311 C304 1.267 . S
C312 O313 1.160 . S
C312 O319 1.185 . S
O313 C312 1.160 . S
O314 Zn315 1.899 . S
O314 C322 1.284 . S
Zn315 O314 1.899 . S
Zn315 O316 2.032 . S
Zn315 O319 2.086 . S
Zn315 O324 1.977 . S
O316 Zn315 2.032 . S
O316 C320 1.278 . S
C317 O318 1.203 . S
C317 O324 1.267 . S
O318 C317 1.203 . S
O319 C312 1.185 . S
O319 Zn315 2.086 . S
C320 O316 1.278 . S
C320 O321 1.211 . S
O321 C320 1.211 . S
C322 O314 1.284 . S
C322 O323 1.273 . S
O323 C322 1.273 . S
O324 Zn315 1.977 . S
O324 C317 1.267 . S
C325 O326 1.160 . S
C325 O332 1.185 . S
O326 C325 1.160 . S
O327 Zn328 1.899 . S
O327 C335 1.284 . S
Zn328 O327 1.899 . S
Zn328 O329 2.032 . S
Zn328 O332 2.086 . S
Zn328 O337 1.977 . S
O329 Zn328 2.032 . S
O329 C333 1.278 . S
C330 O331 1.203 . S
C330 O337 1.267 . S
O331 C330 1.203 . S
O332 C325 1.185 . S
O332 Zn328 2.086 . S
C333 O329 1.278 . S
C333 O334 1.211 . S
O334 C333 1.211 . S
C335 O327 1.284 . S
C335 O336 1.273 . S
O336 C335 1.273 . S
O337 Zn328 1.977 . S
O337 C330 1.267 . S
C338 O339 1.160 . S
C338 O345 1.185 . S
O339 C338 1.160 . S
O340 Zn341 1.899 . S
O340 C348 1.284 . S
Zn341 O340 1.899 . S
Zn341 O342 2.032 . S
Zn341 O345 2.086 . S
Zn341 O350 1.977 . S
O342 Zn341 2.032 . S
O342 C346 1.278 . S
C343 O344 1.203 . S
C343 O350 1.267 . S
O344 C343 1.203 . S
O345 C338 1.185 . S
O345 Zn341 2.086 . S
C346 O342 1.278 . S
C346 O347 1.211 . S
O347 C346 1.211 . S
C348 O340 1.284 . S
C348 O349 1.273 . S
O349 C348 1.273 . S
O350 Zn341 1.977 . S
O350 C343 1.267 . S
C351 O352 1.160 . S
C351 O358 1.185 . S
O352 C351 1.160 . S
O353 Zn354 1.899 . S
O353 C361 1.284 . S
Zn354 O353 1.899 . S
Zn354 O355 2.032 . S
Zn354 O358 2.086 . S
Zn354 O363 1.977 . S
O355 Zn354 2.032 . S
O355 C359 1.278 . S
C356 O357 1.203 . S
C356 O363 1.267 . S
O357 C356 1.203 . S
O358 C351 1.185 . S
O358 Zn354 2.086 . S
C359 O355 1.278 . S
C359 O360 1.211 . S
O360 C359 1.211 . S
C361 O353 1.284 . S
C361 O362 1.273 . S
O362 C361 1.273 . S
O363 Zn354 1.977 . S
O363 C356 1.267 . S
C364 O365 1.160 . S
C364 O371 1.185 . S
O365 C364 1.160 . S
O366 Zn367 1.899 . S
O366 C374 1.284 . S
Zn367 O366 1.899 . S
Zn367 O368 2.032 . S
Zn367 O371 2.086 . S
Zn367 O376 1.977 . S
O368 Zn367 2.032 . S
O368 C372 1.278 . S
C369 O370 1.203 . S
C369 O376 1.267 . S
O370 C369 1.203 . S
O371 C364 1.185 . S
O371 Zn367 2.086 . S
C372 O368 1.278 . S
C372 O373 1.211 . S
O373 C372 1.211 . S
C374 O366 1.284 . S
C374 O375 1.273 . S
O375 C374 1.273 . S
O376 Zn367 1.977 . S
O376 C369 1.267 . S
C377 O378 1.160 . S
C377 O384 1.185 . S
O378 C377 1.160 . S
O379 Zn380 1.899 . S
O379 C387 1.284 . S
Zn380 O379 1.899 . S
Zn380 O381 2.032 . S
Zn380 O384 2.086 . S
Zn380 O389 1.977 . S
O381 Zn380 2.032 . S
O381 C385 1.278 . S
C382 O383 1.203 . S
C382 O389 1.267 . S
O383 C382 1.203 . S
O384 C377 1.185 . S
O384 Zn380 2.086 . S
C385 O381 1.278 . S
C385 O386 1.211 . S
O386 C385 1.211 . S
C387 O379 1.284 . S
C387 O388 1.273 . S
O388 C387 1.273 . S
O389 Zn380 1.977 . S
O389 C382 1.267 . S
C390 O391 1.160 . S
C390 O397 1.185 . S
O391 C390 1.160 . S
O392 Zn393 1.899 . S
O392 C400 1.284 . S
Zn393 O392 1.899 . S
Zn393 O394 2.032 . S
Zn393 O397 2.086 . S
Zn393 O402 1.977 . S
O394 Zn393 2.032 . S
O394 C398 1.278 . S
C395 O396 1.203 . S
C395 O402 1.267 . S
O396 C395 1.203 . S
O397 C390 1.185 . S
O397 Zn393 2.086 . S
C398 O394 1.278 . S
C398 O399 1.211 . S
O399 C398 1.211 . S
C400 O392 1.284 . S
C400 O401 1.273 . S
O401 C400 1.273 . S
O402 Zn393 1.977 . S
O402 C395 1.267 . S
C403 O404 1.160 . S
C403 O410 1.185 . S
O404 C403 1.160 . S
O405 Zn406 1.899 . S
O405 C413 1.284 . S
Zn406 O405 1.899 . S
Zn406 O407 2.032 . S
Zn406 O410 2.086 . S
Zn406 O415 1.977 . S
O407 Zn406 2.032 . S
O407 C411 1.278 . S
C408 O409 1.203 . S
C408 O415 1.267 . S
O409 C408 1.203 . S
O410 C403 1.185 . S
O410 Zn406 2.086 . S
C411 O407 1.278 . S
C411 O412 1.211 . S
O412 C411 1.211 . S
C413 O405 1.284 . S
C413 O414 1.273 . S
O414 C413 1.273 . S
O415 Zn406 1.977 . S
O415 C408 1.267 . S
H416 C422 0.930 1_556 S
H417 C425 0.930 1_565 S
H418 C426 0.930 1_655 S
H419 C427 0.930 . S
H420 C430 0.930 . S
H421 C431 0.930 1_455 S
C422 H416 0.930 1_554 S
C422 C423 1.355 . S
C422 C424 1.415 1_554 S
C423 C422 1.355 . S
C423 C425 1.419 . S
C424 C422 1.415 1_556 S
C424 C429 1.425 1_446 S
C424 C431 1.409 1_455 S
C425 H417 0.930 1_545 S
C425 C423 1.419 . S
C425 C426 1.362 1_545 S
C426 H418 0.930 1_455 S
C426 C425 1.362 1_565 S
C426 C429 1.409 1_455 S
C427 H419 0.930 . S
C427 C428 1.355 . S
C427 C429 1.415 1_556 S
C428 C427 1.355 . S
C428 C430 1.419 . S
C429 C424 1.425 1_664 S
C429 C426 1.409 1_655 S
C429 C427 1.415 1_554 S
C430 H420 0.930 . S
C430 C428 1.419 . S
C430 C431 1.362 1_565 S
C431 H421 0.930 1_655 S
C431 C424 1.409 1_655 S
C431 C430 1.362 1_545 S
H432 C438 0.930 . S
H433 C441 0.930 . S
H434 C442 0.930 . S
H435 C443 0.930 . S
H436 C446 0.930 . S
H437 C447 0.930 . S
C438 H432 0.930 . S
C438 C439 1.355 . S
C438 C440 1.415 . S
C439 C438 1.355 . S
C439 C441 1.419 . S
C440 C438 1.415 . S
C440 C445 1.425 . S
C440 C447 1.409 . S
C441 H433 0.930 . S
C441 C439 1.419 . S
C441 C442 1.362 . S
C442 H434 0.930 . S
C442 C441 1.362 . S
C442 C445 1.409 . S
C443 H435 0.930 . S
C443 C444 1.355 . S
C443 C445 1.415 . S
C444 C443 1.355 . S
C444 C446 1.419 . S
C445 C440 1.425 . S
C445 C442 1.409 . S
C445 C443 1.415 . S
C446 H436 0.930 . S
C446 C444 1.419 . S
C446 C447 1.362 . S
C447 H437 0.930 . S
C447 C440 1.409 . S
C447 C446 1.362 . S
H448 C454 0.930 . S
H449 C457 0.930 . S
H450 C458 0.930 . S
H451 C459 0.930 . S
H452 C462 0.930 . S
H453 C463 0.930 . S
C454 H448 0.930 . S
C454 C455 1.355 . S
C454 C456 1.402 1_565 S
C455 C454 1.355 . S
C455 C457 1.419 . S
C456 C454 1.402 1_545 S
C456 C461 1.426 . S
C456 C463 1.421 . S
C457 H449 0.930 . S
C457 C455 1.419 . S
C457 C458 1.362 . S
C458 H450 0.930 . S
C458 C457 1.362 . S
C458 C461 1.409 1_565 S
C459 H451 0.930 . S
C459 C460 1.355 . S
C459 C461 1.415 . S
C460 C459 1.355 . S
C460 C462 1.419 . S
C461 C456 1.426 . S
C461 C458 1.409 1_545 S
C461 C459 1.415 . S
C462 H452 0.930 . S
C462 C460 1.419 . S
C462 C463 1.362 . S
C463 H453 0.930 . S
C463 C456 1.421 . S
C463 C462 1.362 . S
H464 C470 0.930 . S
H465 C473 0.930 . S
H466 C474 0.930 . S
H467 C475 0.930 . S
H468 C478 0.930 . S
H469 C479 0.930 . S
C470 H464 0.930 . S
C470 C471 1.355 . S
C470 C472 1.415 . S
C471 C470 1.355 . S
C471 C473 1.419 . S
C472 C470 1.415 . S
C472 C477 1.425 . S
C472 C479 1.409 . S
C473 H465 0.930 . S
C473 C471 1.419 . S
C473 C474 1.362 . S
C474 H466 0.930 . S
C474 C473 1.362 . S
C474 C477 1.409 . S
C475 H467 0.930 . S
C475 C476 1.355 . S
C475 C477 1.415 . S
C476 C475 1.355 . S
C476 C478 1.419 . S
C477 C472 1.425 . S
C477 C474 1.409 . S
C477 C475 1.415 . S
C478 H468 0.930 . S
C478 C476 1.419 . S
C478 C479 1.362 . S
C479 H469 0.930 . S
C479 C472 1.409 . S
C479 C478 1.362 . S
H480 C486 0.930 . S
H481 C489 0.930 . S
H482 C490 0.930 1_655 S
H483 C491 0.930 . S
H484 C494 0.930 . S
H485 C495 0.930 . S
C486 H480 0.930 . S
C486 C487 1.355 . S
C486 C488 1.415 . S
C487 C486 1.355 . S
C487 C489 1.419 . S
C488 C486 1.415 . S
C488 C493 1.425 1_465 S
C488 C495 1.409 . S
C489 H481 0.930 . S
C489 C487 1.419 . S
C489 C490 1.362 1_565 S
C490 H482 0.930 1_455 S
C490 C489 1.362 1_545 S
C490 C493 1.409 1_455 S
C491 H483 0.930 . S
C491 C492 1.355 . S
C491 C493 1.415 . S
C492 C491 1.355 . S
C492 C494 1.419 . S
C493 C488 1.425 1_645 S
C493 C490 1.409 1_655 S
C493 C491 1.415 . S
C494 H484 0.930 . S
C494 C492 1.419 . S
C494 C495 1.362 1_645 S
C495 H485 0.930 . S
C495 C488 1.409 . S
C495 C494 1.362 1_465 S
H496 C502 0.930 . S
H497 C505 0.930 . S
H498 C506 0.930 . S
H499 C507 0.930 . S
H500 C510 0.930 . S
H501 C511 0.930 . S
C502 H496 0.930 . S
C502 C503 1.355 . S
C502 C504 1.415 . S
C503 C502 1.355 . S
C503 C505 1.419 . S
C504 C502 1.415 . S
C504 C509 1.425 . S
C504 C511 1.409 . S
C505 H497 0.930 . S
C505 C503 1.419 . S
C505 C506 1.362 . S
C506 H498 0.930 . S
C506 C505 1.362 . S
C506 C509 1.409 . S
C507 H499 0.930 . S
C507 C508 1.355 . S
C507 C509 1.415 . S
C508 C507 1.355 . S
C508 C510 1.419 . S
C509 C504 1.425 . S
C509 C506 1.409 . S
C509 C507 1.415 . S
C510 H500 0.930 . S
C510 C508 1.419 . S
C510 C511 1.362 . S
C511 H501 0.930 . S
C511 C504 1.409 . S
C511 C510 1.362 . S
H512 C518 0.930 1_565 S
H513 C521 0.930 . S
H514 C522 0.930 . S
H515 C523 0.920 1_545 S
H516 C526 0.930 . S
H517 C527 0.930 . S
C518 H512 0.930 1_545 S
C518 C519 1.355 . S
C518 C520 1.415 1_545 S
C519 C518 1.355 . S
C519 C521 1.419 1_556 S
C520 C518 1.415 1_565 S
C520 C525 1.425 1_566 S
C520 C527 1.409 . S
C521 H513 0.930 . S
C521 C519 1.419 1_554 S
C521 C522 1.362 . S
C522 H514 0.930 . S
C522 C521 1.362 . S
C522 C525 1.409 . S
C523 H515 0.920 1_565 S
C523 C524 1.373 . S
C523 C525 1.405 1_565 S
C524 C523 1.373 . S
C524 C526 1.419 . S
C525 C520 1.425 1_544 S
C525 C522 1.409 . S
C525 C523 1.405 1_545 S
C526 H516 0.930 . S
C526 C524 1.419 . S
C526 C527 1.362 1_554 S
C527 H517 0.930 . S
C527 C520 1.409 . S
C527 C526 1.362 1_556 S
H528 C534 0.930 . S
H529 C537 0.930 . S
H530 C538 0.930 . S
H531 C539 0.930 . S
H532 C542 0.930 . S
H533 C543 0.930 . S
C534 H528 0.930 . S
C534 C535 1.355 . S
C534 C536 1.415 . S
C535 C534 1.355 . S
C535 C537 1.419 . S
C536 C534 1.415 . S
C536 C541 1.425 . S
C536 C543 1.409 . S
C537 H529 0.930 . S
C537 C535 1.419 . S
C537 C538 1.362 . S
C538 H530 0.930 . S
C538 C537 1.362 . S
C538 C541 1.409 . S
C539 H531 0.930 . S
C539 C540 1.355 . S
C539 C541 1.415 . S
C540 C539 1.355 . S
C540 C542 1.419 . S
C541 C536 1.425 . S
C541 C538 1.409 . S
C541 C539 1.415 . S
C542 H532 0.930 . S
C542 C540 1.419 . S
C542 C543 1.362 . S
C543 H533 0.930 . S
C543 C536 1.409 . S
C543 C542 1.362 . S
H544 C550 0.930 1_556 S
H545 C553 0.930 . S
H546 C554 0.930 . S
H547 C555 0.922 1_554 S
H548 C558 0.930 . S
H549 C559 0.930 . S
C550 H544 0.930 1_554 S
C550 C551 1.355 . S
C550 C552 1.415 1_554 S
C551 C550 1.355 . S
C551 C553 1.419 . S
C552 C550 1.415 1_556 S
C552 C557 1.425 1_556 S
C552 C559 1.409 . S
C553 H545 0.930 . S
C553 C551 1.419 . S
C553 C554 1.362 . S
C554 H546 0.930 . S
C554 C553 1.362 . S
C554 C557 1.409 . S
C555 H547 0.922 1_556 S
C555 C556 1.369 . S
C555 C557 1.408 1_556 S
C556 C555 1.369 . S
C556 C558 1.419 . S
C557 C552 1.425 1_554 S
C557 C554 1.409 . S
C557 C555 1.408 1_554 S
C558 H548 0.930 . S
C558 C556 1.419 . S
C558 C559 1.362 . S
C559 H549 0.930 . S
C559 C552 1.409 . S
C559 C558 1.362 . S
H560 C566 0.930 . S
H561 C569 0.930 . S
H562 C570 0.930 . S
H563 C571 0.930 . S
H564 C574 0.930 . S
H565 C575 0.930 . S
C566 H560 0.930 . S
C566 C567 1.355 . S
C566 C568 1.415 . S
C567 C566 1.355 . S
C567 C569 1.419 . S
C568 C566 1.415 . S
C568 C573 1.425 . S
C568 C575 1.409 . S
C569 H561 0.930 . S
C569 C567 1.419 . S
C569 C570 1.362 . S
C570 H562 0.930 . S
C570 C569 1.362 . S
C570 C573 1.409 . S
C571 H563 0.930 . S
C571 C572 1.355 . S
C571 C573 1.415 . S
C572 C571 1.355 . S
C572 C574 1.419 . S
C573 C568 1.425 . S
C573 C570 1.409 . S
C573 C571 1.415 . S
C574 H564 0.930 . S
C574 C572 1.419 . S
C574 C575 1.362 . S
C575 H565 0.930 . S
C575 C568 1.409 . S
C575 C574 1.362 . S
H576 C582 0.930 . S
H577 C585 0.930 . S
H578 C586 0.930 . S
H579 C587 0.930 . S
H580 C590 0.930 . S
H581 C591 0.930 . S
C582 H576 0.930 . S
C582 C583 1.355 . S
C582 C584 1.415 . S
C583 C582 1.355 . S
C583 C585 1.419 1_455 S
C584 C582 1.415 . S
C584 C589 1.425 1_455 S
C584 C591 1.409 . S
C585 H577 0.930 . S
C585 C583 1.419 1_655 S
C585 C586 1.362 . S
C586 H578 0.930 . S
C586 C585 1.362 . S
C586 C589 1.409 . S
C587 H579 0.930 . S
C587 C588 1.355 . S
C587 C589 1.415 . S
C588 C587 1.355 . S
C588 C590 1.419 . S
C589 C584 1.425 1_655 S
C589 C586 1.409 . S
C589 C587 1.415 . S
C590 H580 0.930 . S
C590 C588 1.419 . S
C590 C591 1.362 1_655 S
C591 H581 0.930 . S
C591 C584 1.409 . S
C591 C590 1.362 1_455 S
H592 C598 0.930 . S
H593 C601 0.930 . S
H594 C602 0.930 . S
H595 C603 0.930 . S
H596 C606 0.930 . S
H597 C607 0.930 . S
C598 H592 0.930 . S
C598 C599 1.355 . S
C598 C600 1.415 . S
C599 C598 1.355 . S
C599 C601 1.419 . S
C600 C598 1.415 . S
C600 C605 1.425 . S
C600 C607 1.409 . S
C601 H593 0.930 . S
C601 C599 1.419 . S
C601 C602 1.362 . S
C602 H594 0.930 . S
C602 C601 1.362 . S
C602 C605 1.409 . S
C603 H595 0.930 . S
C603 C604 1.355 . S
C603 C605 1.415 . S
C604 C603 1.355 . S
C604 C606 1.419 . S
C605 C600 1.425 . S
C605 C602 1.409 . S
C605 C603 1.415 . S
C606 H596 0.930 . S
C606 C604 1.419 . S
C606 C607 1.362 . S
C607 H597 0.930 . S
C607 C600 1.409 . S
C607 C606 1.362 . S
H608 C614 0.930 . S
H609 C617 0.930 . S
H610 C618 0.930 . S
H611 C619 0.930 . S
H612 C622 0.930 . S
H613 C623 0.930 . S
C614 H608 0.930 . S
C614 C615 1.355 . S
C614 C616 1.415 . S
C615 C614 1.355 . S
C615 C617 1.419 . S
C616 C614 1.415 . S
C616 C621 1.425 . S
C616 C623 1.409 . S
C617 H609 0.930 . S
C617 C615 1.419 . S
C617 C618 1.362 . S
C618 H610 0.930 . S
C618 C617 1.362 . S
C618 C621 1.409 . S
C619 H611 0.930 . S
C619 C620 1.355 . S
C619 C621 1.415 . S
C620 C619 1.355 . S
C620 C622 1.419 . S
C621 C616 1.425 . S
C621 C618 1.409 . S
C621 C619 1.415 . S
C622 H612 0.930 . S
C622 C620 1.419 . S
C622 C623 1.362 . S
C623 H613 0.930 . S
C623 C616 1.409 . S
C623 C622 1.362 . S
H624 C630 0.930 . S
H625 C633 0.930 . S
H626 C634 0.930 . S
H627 C635 0.930 . S
H628 C638 0.930 . S
H629 C639 0.930 . S
C630 H624 0.930 . S
C630 C631 1.355 . S
C630 C632 1.415 . S
C631 C630 1.355 . S
C631 C633 1.419 . S
C632 C630 1.415 . S
C632 C637 1.425 . S
C632 C639 1.409 . S
C633 H625 0.930 . S
C633 C631 1.419 . S
C633 C634 1.362 . S
C634 H626 0.930 . S
C634 C633 1.362 . S
C634 C637 1.409 . S
C635 H627 0.930 . S
C635 C636 1.355 . S
C635 C637 1.415 . S
C636 C635 1.355 . S
C636 C638 1.419 . S
C637 C632 1.425 . S
C637 C634 1.409 . S
C637 C635 1.415 . S
C638 H628 0.930 . S
C638 C636 1.419 . S
C638 C639 1.362 . S
C639 H629 0.930 . S
C639 C632 1.409 . S
C639 C638 1.362 . S
H640 C646 0.930 . S
H641 C649 0.930 . S
H642 C650 0.930 . S
H643 C651 0.930 . S
H644 C654 0.930 . S
H645 C655 0.930 . S
C646 H640 0.930 . S
C646 C647 1.355 . S
C646 C648 1.415 . S
C647 C646 1.355 . S
C647 C649 1.419 . S
C648 C646 1.415 . S
C648 C653 1.425 . S
C648 C655 1.409 . S
C649 H641 0.930 . S
C649 C647 1.419 . S
C649 C650 1.362 . S
C650 H642 0.930 . S
C650 C649 1.362 . S
C650 C653 1.409 . S
C651 H643 0.930 . S
C651 C652 1.355 . S
C651 C653 1.415 . S
C652 C651 1.355 . S
C652 C654 1.419 . S
C653 C648 1.425 . S
C653 C650 1.409 . S
C653 C651 1.415 . S
C654 H644 0.930 . S
C654 C652 1.419 . S
C654 C655 1.362 . S
C655 H645 0.930 . S
C655 C648 1.409 . S
C655 C654 1.362 . S
H656 C662 0.930 . S
H657 C665 0.930 . S
H658 C666 0.930 . S
H659 C667 0.930 . S
H660 C670 0.930 . S
H661 C671 0.930 . S
C662 H656 0.930 . S
C662 C663 1.355 . S
C662 C664 1.406 1_455 S
C663 C662 1.355 . S
C663 C665 1.419 . S
C664 C662 1.406 1_655 S
C664 C669 1.424 1_656 S
C664 C671 1.419 . S
C665 H657 0.930 . S
C665 C663 1.419 . S
C665 C666 1.362 1_556 S
C666 H658 0.930 . S
C666 C665 1.362 1_554 S
C666 C669 1.409 . S
C667 H659 0.930 . S
C667 C668 1.355 . S
C667 C669 1.415 1_655 S
C668 C667 1.355 . S
C668 C670 1.419 1_554 S
C669 C664 1.424 1_454 S
C669 C666 1.409 . S
C669 C667 1.415 1_455 S
C670 H660 0.930 . S
C670 C668 1.419 1_556 S
C670 C671 1.362 . S
C671 H661 0.930 . S
C671 C664 1.419 . S
C671 C670 1.362 . S
H672 C678 0.930 . S
H673 C681 0.930 . S
H674 C682 0.930 . S
H675 C683 0.930 . S
H676 C686 0.930 . S
H677 C687 0.930 1_545 S
C678 H672 0.930 . S
C678 C679 1.355 . S
C678 C680 1.415 1_545 S
C679 C678 1.355 . S
C679 C681 1.419 1_545 S
C680 C678 1.415 1_565 S
C680 C685 1.425 . S
C680 C687 1.409 . S
C681 H673 0.930 . S
C681 C679 1.419 1_565 S
C681 C682 1.362 . S
C682 H674 0.930 . S
C682 C681 1.362 . S
C682 C685 1.409 . S
C683 H675 0.930 . S
C683 C684 1.355 . S
C683 C685 1.415 . S
C684 C683 1.355 . S
C684 C686 1.419 . S
C685 C680 1.425 . S
C685 C682 1.409 . S
C685 C683 1.415 . S
C686 H676 0.930 . S
C686 C684 1.419 . S
C686 C687 1.362 . S
C687 H677 0.930 1_565 S
C687 C680 1.409 . S
C687 C686 1.362 . S
H688 C694 0.930 . S
H689 C697 0.930 . S
H690 C698 0.930 . S
H691 C699 0.930 . S
H692 C702 0.930 . S
H693 C703 0.930 . S
C694 H688 0.930 . S
C694 C695 1.355 . S
C694 C696 1.415 . S
C695 C694 1.355 . S
C695 C697 1.419 . S
C696 C694 1.415 . S
C696 C701 1.425 . S
C696 C703 1.409 . S
C697 H689 0.930 . S
C697 C695 1.419 . S
C697 C698 1.362 . S
C698 H690 0.930 . S
C698 C697 1.362 . S
C698 C701 1.409 . S
C699 H691 0.930 . S
C699 C700 1.355 . S
C699 C701 1.415 . S
C700 C699 1.355 . S
C700 C702 1.419 . S
C701 C696 1.425 . S
C701 C698 1.409 . S
C701 C699 1.415 . S
C702 H692 0.930 . S
C702 C700 1.419 . S
C702 C703 1.362 . S
C703 H693 0.930 . S
C703 C696 1.409 . S
C703 C702 1.362 . S
H704 C710 0.930 . S
H705 C713 0.930 . S
H706 C714 0.930 1_565 S
H707 C715 0.930 . S
H708 C718 0.930 . S
H709 C719 0.930 . S
C710 H704 0.930 . S
C710 C711 1.355 . S
C710 C712 1.415 . S
C711 C710 1.355 . S
C711 C713 1.419 . S
C712 C710 1.415 . S
C712 C717 1.425 . S
C712 C719 1.409 . S
C713 H705 0.930 . S
C713 C711 1.419 . S
C713 C714 1.362 . S
C714 H706 0.930 1_545 S
C714 C713 1.362 . S
C714 C717 1.409 . S
C715 H707 0.930 . S
C715 C716 1.355 . S
C715 C717 1.415 1_565 S
C716 C715 1.355 . S
C716 C718 1.419 1_565 S
C717 C712 1.425 . S
C717 C714 1.409 . S
C717 C715 1.415 1_545 S
C718 H708 0.930 . S
C718 C716 1.419 1_545 S
C718 C719 1.362 . S
C719 H709 0.930 . S
C719 C712 1.409 . S
C719 C718 1.362 . S
H720 C726 0.930 . S
H721 C729 0.930 . S
H722 C730 0.930 1_554 S
H723 C731 0.930 . S
H724 C734 0.930 . S
H725 C735 0.930 . S
C726 H720 0.930 . S
C726 C727 1.355 . S
C726 C728 1.415 . S
C727 C726 1.355 . S
C727 C729 1.419 . S
C728 C726 1.415 . S
C728 C733 1.425 . S
C728 C735 1.409 . S
C729 H721 0.930 . S
C729 C727 1.419 . S
C729 C730 1.362 . S
C730 H722 0.930 1_556 S
C730 C729 1.362 . S
C730 C733 1.409 . S
C731 H723 0.930 . S
C731 C732 1.355 . S
C731 C733 1.415 1_554 S
C732 C731 1.355 . S
C732 C734 1.419 1_554 S
C733 C728 1.425 . S
C733 C730 1.409 . S
C733 C731 1.415 1_556 S
C734 H724 0.930 . S
C734 C732 1.419 1_556 S
C734 C735 1.362 . S
C735 H725 0.930 . S
C735 C728 1.409 . S
C735 C734 1.362 . S
H736 C742 0.930 . S
H737 C745 0.930 . S
H738 C746 0.930 . S
H739 C747 0.930 . S
H740 C750 0.930 . S
H741 C751 0.930 . S
C742 H736 0.930 . S
C742 C743 1.355 . S
C742 C744 1.415 . S
C743 C742 1.355 . S
C743 C745 1.419 . S
C744 C742 1.415 . S
C744 C749 1.425 1_545 S
C744 C751 1.409 . S
C745 H737 0.930 . S
C745 C743 1.419 . S
C745 C746 1.362 1_545 S
C746 H738 0.930 . S
C746 C745 1.362 1_565 S
C746 C749 1.409 . S
C747 H739 0.930 . S
C747 C748 1.355 . S
C747 C749 1.415 . S
C748 C747 1.355 . S
C748 C750 1.419 . S
C749 C744 1.425 1_565 S
C749 C746 1.409 . S
C749 C747 1.415 . S
C750 H740 0.930 . S
C750 C748 1.419 . S
C750 C751 1.362 1_565 S
C751 H741 0.930 . S
C751 C744 1.409 . S
C751 C750 1.362 1_545 S
H752 C758 0.930 . S
H753 C761 0.930 . S
H754 C762 0.930 . S
H755 C763 0.930 . S
H756 C766 0.930 . S
H757 C767 0.930 . S
C758 H752 0.930 . S
C758 C759 1.355 . S
C758 C760 1.415 . S
C759 C758 1.355 . S
C759 C761 1.419 . S
C760 C758 1.415 . S
C760 C765 1.425 . S
C760 C767 1.409 . S
C761 H753 0.930 . S
C761 C759 1.419 . S
C761 C762 1.362 . S
C762 H754 0.930 . S
C762 C761 1.362 . S
C762 C765 1.409 . S
C763 H755 0.930 . S
C763 C764 1.355 . S
C763 C765 1.415 . S
C764 C763 1.355 . S
C764 C766 1.419 . S
C765 C760 1.425 . S
C765 C762 1.409 . S
C765 C763 1.415 . S
C766 H756 0.930 . S
C766 C764 1.419 . S
C766 C767 1.362 . S
C767 H757 0.930 . S
C767 C760 1.409 . S
C767 C766 1.362 . S
H768 C774 0.930 . S
H769 C777 0.930 . S
H770 C778 0.930 . S
H771 C779 0.930 . S
H772 C782 0.930 . S
H773 C783 0.930 . S
C774 H768 0.930 . S
C774 C775 1.355 . S
C774 C776 1.415 1_545 S
C775 C774 1.355 . S
C775 C777 1.419 . S
C776 C774 1.415 1_565 S
C776 C781 1.425 . S
C776 C783 1.409 . S
C777 H769 0.930 . S
C777 C775 1.419 . S
C777 C778 1.362 1_545 S
C778 H770 0.930 . S
C778 C777 1.362 1_565 S
C778 C781 1.409 . S
C779 H771 0.930 . S
C779 C780 1.355 . S
C779 C781 1.415 . S
C780 C779 1.355 . S
C780 C782 1.419 . S
C781 C776 1.425 . S
C781 C778 1.409 . S
C781 C779 1.415 . S
C782 H772 0.930 . S
C782 C780 1.419 . S
C782 C783 1.362 . S
C783 H773 0.930 . S
C783 C776 1.409 . S
C783 C782 1.362 . S
H784 C790 0.930 . S
H785 C793 0.930 . S
H786 C794 0.930 . S
H787 C795 0.930 . S
H788 C798 0.930 . S
H789 C799 0.930 . S
C790 H784 0.930 . S
C790 C791 1.355 1_554 S
C790 C792 1.415 . S
C791 C790 1.355 1_556 S
C791 C793 1.419 . S
C792 C790 1.415 . S
C792 C797 1.425 . S
C792 C799 1.409 . S
C793 H785 0.930 . S
C793 C791 1.419 . S
C793 C794 1.362 . S
C794 H786 0.930 . S
C794 C793 1.362 . S
C794 C797 1.409 1_556 S
C795 H787 0.930 . S
C795 C796 1.355 . S
C795 C797 1.415 . S
C796 C795 1.355 . S
C796 C798 1.419 . S
C797 C792 1.425 . S
C797 C794 1.409 1_554 S
C797 C795 1.415 . S
C798 H788 0.930 . S
C798 C796 1.419 . S
C798 C799 1.362 . S
C799 H789 0.930 . S
C799 C792 1.409 . S
C799 C798 1.362 . S
H800 C806 0.930 . S
H801 C809 0.930 . S
H802 C810 0.930 . S
H803 C811 0.930 . S
H804 C814 0.930 . S
H805 C815 0.930 . S
C806 H800 0.930 . S
C806 C807 1.355 . S
C806 C808 1.415 . S
C807 C806 1.355 . S
C807 C809 1.419 . S
C808 C806 1.415 . S
C808 C813 1.425 . S
C808 C815 1.409 . S
C809 H801 0.930 . S
C809 C807 1.419 . S
C809 C810 1.362 1_655 S
C810 H802 0.930 . S
C810 C809 1.362 1_455 S
C810 C813 1.409 1_455 S
C811 H803 0.930 . S
C811 C812 1.355 . S
C811 C813 1.415 1_455 S
C812 C811 1.355 . S
C812 C814 1.419 1_455 S
C813 C808 1.425 . S
C813 C810 1.409 1_655 S
C813 C811 1.415 1_655 S
C814 H804 0.930 . S
C814 C812 1.419 1_655 S
C814 C815 1.362 . S
C815 H805 0.930 . S
C815 C808 1.409 . S
C815 C814 1.362 . S
H816 C822 0.930 . S
H817 C825 0.930 . S
H818 C826 0.930 . S
H819 C827 0.930 . S
H820 C830 0.930 . S
H821 C831 0.930 . S
C822 H816 0.930 . S
C822 C823 1.355 . S
C822 C824 1.415 . S
C823 C822 1.355 . S
C823 C825 1.419 . S
C824 C822 1.415 . S
C824 C829 1.425 . S
C824 C831 1.409 . S
C825 H817 0.930 . S
C825 C823 1.419 . S
C825 C826 1.362 . S
C826 H818 0.930 . S
C826 C825 1.362 . S
C826 C829 1.409 . S
C827 H819 0.930 . S
C827 C828 1.355 . S
C827 C829 1.415 . S
C828 C827 1.355 . S
C828 C830 1.419 . S
C829 C824 1.425 . S
C829 C826 1.409 . S
C829 C827 1.415 . S
C830 H820 0.930 . S
C830 C828 1.419 . S
C830 C831 1.362 . S
C831 H821 0.930 . S
C831 C824 1.409 . S
C831 C830 1.362 . S
H832 C838 0.930 . S
H833 C841 0.930 . S
H834 C842 0.930 . S
H835 C843 0.930 . S
H836 C846 0.930 . S
H837 C847 0.930 . S
C838 H832 0.930 . S
C838 C839 1.355 . S
C838 C840 1.415 . S
C839 C838 1.355 . S
C839 C841 1.419 . S
C840 C838 1.415 . S
C840 C845 1.425 1_655 S
C840 C847 1.409 . S
C841 H833 0.930 . S
C841 C839 1.419 . S
C841 C842 1.362 1_655 S
C842 H834 0.930 . S
C842 C841 1.362 1_455 S
C842 C845 1.409 . S
C843 H835 0.930 . S
C843 C844 1.355 . S
C843 C845 1.415 . S
C844 C843 1.355 . S
C844 C846 1.419 . S
C845 C840 1.425 1_455 S
C845 C842 1.409 . S
C845 C843 1.415 . S
C846 H836 0.930 . S
C846 C844 1.419 . S
C846 C847 1.362 1_455 S
C847 H837 0.930 . S
C847 C840 1.409 . S
C847 C846 1.362 1_655 S
H848 C854 0.930 . S
H849 C857 0.930 . S
H850 C858 0.930 . S
H851 C859 0.930 . S
H852 C862 0.930 . S
H853 C863 0.930 . S
C854 H848 0.930 . S
C854 C855 1.355 . S
C854 C856 1.415 1_655 S
C855 C854 1.355 . S
C855 C857 1.419 1_655 S
C856 C854 1.415 1_455 S
C856 C861 1.425 . S
C856 C863 1.409 1_455 S
C857 H849 0.930 . S
C857 C855 1.419 1_455 S
C857 C858 1.362 . S
C858 H850 0.930 . S
C858 C857 1.362 . S
C858 C861 1.409 . S
C859 H851 0.930 . S
C859 C860 1.355 . S
C859 C861 1.415 . S
C860 C859 1.355 . S
C860 C862 1.419 . S
C861 C856 1.425 . S
C861 C858 1.409 . S
C861 C859 1.415 . S
C862 H852 0.930 . S
C862 C860 1.419 . S
C862 C863 1.362 1_455 S
C863 H853 0.930 . S
C863 C856 1.409 1_655 S
C863 C862 1.362 1_655 S
H864 C870 0.930 . S
H865 C873 0.930 . S
H866 C874 0.930 . S
H867 C875 0.930 . S
H868 C878 0.930 . S
H869 C879 0.930 . S
C870 H864 0.930 . S
C870 C871 1.355 . S
C870 C872 1.415 . S
C871 C870 1.355 . S
C871 C873 1.419 . S
C872 C870 1.415 . S
C872 C877 1.425 . S
C872 C879 1.409 . S
C873 H865 0.930 . S
C873 C871 1.419 . S
C873 C874 1.362 . S
C874 H866 0.930 . S
C874 C873 1.362 . S
C874 C877 1.409 . S
C875 H867 0.930 . S
C875 C876 1.355 . S
C875 C877 1.415 . S
C876 C875 1.355 . S
C876 C878 1.419 . S
C877 C872 1.425 . S
C877 C874 1.409 . S
C877 C875 1.415 . S
C878 H868 0.930 . S
C878 C876 1.419 . S
C878 C879 1.362 . S
C879 H869 0.930 . S
C879 C872 1.409 . S
C879 C878 1.362 . S
H880 C886 0.930 . S
H881 C889 0.930 . S
H882 C890 0.930 . S
H883 C891 0.930 . S
H884 C894 0.930 . S
H885 C895 0.930 . S
C886 H880 0.930 . S
C886 C887 1.355 . S
C886 C888 1.415 . S
C887 C886 1.355 . S
C887 C889 1.419 . S
C888 C886 1.415 . S
C888 C893 1.425 1_655 S
C888 C895 1.409 . S
C889 H881 0.930 . S
C889 C887 1.419 . S
C889 C890 1.362 1_655 S
C890 H882 0.930 . S
C890 C889 1.362 1_455 S
C890 C893 1.409 . S
C891 H883 0.930 . S
C891 C892 1.355 . S
C891 C893 1.415 . S
C892 C891 1.355 . S
C892 C894 1.419 . S
C893 C888 1.425 1_455 S
C893 C890 1.409 . S
C893 C891 1.415 . S
C894 H884 0.930 . S
C894 C892 1.419 . S
C894 C895 1.362 1_455 S
C895 H885 0.930 . S
C895 C888 1.409 . S
C895 C894 1.362 1_655 S
H896 C902 0.930 . S
H897 C905 0.930 . S
H898 C906 0.930 . S
H899 C907 0.930 . S
H900 C910 0.930 . S
H901 C911 0.930 . S
C902 H896 0.930 . S
C902 C903 1.355 . S
C902 C904 1.415 . S
C903 C902 1.355 . S
C903 C905 1.419 . S
C904 C902 1.415 . S
C904 C909 1.425 . S
C904 C911 1.409 . S
C905 H897 0.930 . S
C905 C903 1.419 . S
C905 C906 1.362 . S
C906 H898 0.930 . S
C906 C905 1.362 . S
C906 C909 1.409 . S
C907 H899 0.930 . S
C907 C908 1.355 . S
C907 C909 1.415 . S
C908 C907 1.355 . S
C908 C910 1.419 . S
C909 C904 1.425 . S
C909 C906 1.409 . S
C909 C907 1.415 . S
C910 H900 0.930 . S
C910 C908 1.419 . S
C910 C911 1.362 . S
C911 H901 0.930 . S
C911 C904 1.409 . S
C911 C910 1.362 . S
H912 C918 0.930 . S
H913 C921 0.930 . S
H914 C922 0.930 . S
H915 C923 0.930 . S
H916 C926 0.930 . S
H917 C927 0.930 . S
C918 H912 0.930 . S
C918 C919 1.355 . S
C918 C920 1.415 . S
C919 C918 1.355 . S
C919 C921 1.419 . S
C920 C918 1.415 . S
C920 C925 1.425 . S
C920 C927 1.409 . S
C921 H913 0.930 . S
C921 C919 1.419 . S
C921 C922 1.362 . S
C922 H914 0.930 . S
C922 C921 1.362 . S
C922 C925 1.409 . S
C923 H915 0.930 . S
C923 C924 1.355 . S
C923 C925 1.415 1_565 S
C924 C923 1.355 . S
C924 C926 1.419 . S
C925 C920 1.425 . S
C925 C922 1.409 . S
C925 C923 1.415 1_545 S
C926 H916 0.930 . S
C926 C924 1.419 . S
C926 C927 1.362 1_565 S
C927 H917 0.930 . S
C927 C920 1.409 . S
C927 C926 1.362 1_545 S
H928 C934 0.930 . S
H929 C937 0.930 . S
H930 C938 0.930 . S
H931 C939 0.930 . S
H932 C942 0.930 . S
H933 C943 0.930 . S
C934 H928 0.930 . S
C934 C935 1.355 . S
C934 C936 1.415 . S
C935 C934 1.355 . S
C935 C937 1.419 . S
C936 C934 1.415 . S
C936 C941 1.425 . S
C936 C943 1.409 . S
C937 H929 0.930 . S
C937 C935 1.419 . S
C937 C938 1.362 . S
C938 H930 0.930 . S
C938 C937 1.362 . S
C938 C941 1.409 . S
C939 H931 0.930 . S
C939 C940 1.355 . S
C939 C941 1.415 . S
C940 C939 1.355 . S
C940 C942 1.419 . S
C941 C936 1.425 . S
C941 C938 1.409 . S
C941 C939 1.415 . S
C942 H932 0.930 . S
C942 C940 1.419 . S
C942 C943 1.362 . S
C943 H933 0.930 . S
C943 C936 1.409 . S
C943 C942 1.362 . S
H944 C950 0.930 . S
H945 C953 0.930 . S
H946 C954 0.930 . S
H947 C955 0.930 . S
H948 C958 0.930 . S
H949 C959 0.930 . S
C950 H944 0.930 . S
C950 C951 1.355 . S
C950 C952 1.415 . S
C951 C950 1.355 . S
C951 C953 1.419 . S
C952 C950 1.415 . S
C952 C957 1.425 . S
C952 C959 1.409 . S
C953 H945 0.930 . S
C953 C951 1.419 . S
C953 C954 1.362 . S
C954 H946 0.930 . S
C954 C953 1.362 . S
C954 C957 1.409 . S
C955 H947 0.930 . S
C955 C956 1.355 . S
C955 C957 1.415 1_545 S
C956 C955 1.355 . S
C956 C958 1.419 . S
C957 C952 1.425 . S
C957 C954 1.409 . S
C957 C955 1.415 1_565 S
C958 H948 0.930 . S
C958 C956 1.419 . S
C958 C959 1.362 1_545 S
C959 H949 0.930 . S
C959 C952 1.409 . S
C959 C958 1.362 1_565 S
H960 C966 0.930 . S
H961 C969 0.930 . S
H962 C970 0.930 . S
H963 C971 0.930 . S
H964 C974 0.930 . S
H965 C975 0.930 . S
C966 H960 0.930 . S
C966 C967 1.355 . S
C966 C968 1.415 1_556 S
C967 C966 1.355 . S
C967 C969 1.419 . S
C968 C966 1.415 1_554 S
C968 C973 1.425 1_554 S
C968 C975 1.409 . S
C969 H961 0.930 . S
C969 C967 1.419 . S
C969 C970 1.362 . S
C970 H962 0.930 . S
C970 C969 1.362 . S
C970 C973 1.409 . S
C971 H963 0.930 . S
C971 C972 1.355 . S
C971 C973 1.415 1_554 S
C972 C971 1.355 . S
C972 C974 1.419 . S
C973 C968 1.425 1_556 S
C973 C970 1.409 . S
C973 C971 1.415 1_556 S
C974 H964 0.930 . S
C974 C972 1.419 . S
C974 C975 1.362 . S
C975 H965 0.930 . S
C975 C968 1.409 . S
C975 C974 1.362 . S
H976 C982 0.930 . S
H977 C985 0.930 . S
H978 C986 0.934 . S
H979 C987 0.930 . S
H980 C990 0.930 . S
H981 C991 0.930 . S
C982 H976 0.930 . S
C982 C983 1.355 1_565 S
C982 C984 1.415 . S
C983 C982 1.355 1_545 S
C983 C985 1.419 . S
C984 C982 1.415 . S
C984 C989 1.425 . S
C984 C991 1.409 . S
C985 H977 0.930 . S
C985 C983 1.419 . S
C985 C986 1.381 . S
C986 H978 0.934 . S
C986 C985 1.381 . S
C986 C989 1.388 1_545 S
C987 H979 0.930 . S
C987 C988 1.355 . S
C987 C989 1.415 . S
C988 C987 1.355 . S
C988 C990 1.419 . S
C989 C984 1.425 . S
C989 C986 1.388 1_565 S
C989 C987 1.415 . S
C990 H980 0.930 . S
C990 C988 1.419 . S
C990 C991 1.362 . S
C991 H981 0.930 . S
C991 C984 1.409 . S
C991 C990 1.362 . S
H992 C998 0.930 . S
H993 C1001 0.930 . S
H994 C1002 0.930 . S
H995 C1003 0.930 . S
H996 C1006 0.930 . S
H997 C1007 0.930 . S
C998 H992 0.930 . S
C998 C999 1.355 . S
C998 C1000 1.415 . S
C999 C998 1.355 . S
C999 C1001 1.419 . S
C1000 C998 1.415 . S
C1000 C1005 1.425 . S
C1000 C1007 1.409 . S
C1001 H993 0.930 . S
C1001 C999 1.419 . S
C1001 C1002 1.362 . S
C1002 H994 0.930 . S
C1002 C1001 1.362 . S
C1002 C1005 1.409 . S
C1003 H995 0.930 . S
C1003 C1004 1.355 . S
C1003 C1005 1.415 . S
C1004 C1003 1.355 . S
C1004 C1006 1.419 . S
C1005 C1000 1.425 . S
C1005 C1002 1.409 . S
C1005 C1003 1.415 . S
C1006 H996 0.930 . S
C1006 C1004 1.419 . S
C1006 C1007 1.362 . S
C1007 H997 0.930 . S
C1007 C1000 1.409 . S
C1007 C1006 1.362 . S
H1008 C1014 0.930 . S
H1009 C1017 0.930 . S
H1010 C1018 0.930 . S
H1011 C1019 0.930 . S
H1012 C1022 0.930 . S
H1013 C1023 0.930 . S
C1014 H1008 0.930 . S
C1014 C1015 1.355 1_545 S
C1014 C1016 1.415 . S
C1015 C1014 1.355 1_565 S
C1015 C1017 1.419 . S
C1016 C1014 1.415 . S
C1016 C1021 1.425 . S
C1016 C1023 1.409 . S
C1017 H1009 0.930 . S
C1017 C1015 1.419 . S
C1017 C1018 1.362 . S
C1018 H1010 0.930 . S
C1018 C1017 1.362 . S
C1018 C1021 1.409 1_565 S
C1019 H1011 0.930 . S
C1019 C1020 1.355 . S
C1019 C1021 1.415 . S
C1020 C1019 1.355 . S
C1020 C1022 1.419 . S
C1021 C1016 1.425 . S
C1021 C1018 1.409 1_545 S
C1021 C1019 1.415 . S
C1022 H1012 0.930 . S
C1022 C1020 1.419 . S
C1022 C1023 1.362 . S
C1023 H1013 0.930 . S
C1023 C1016 1.409 . S
C1023 C1022 1.362 . S
H1024 C1030 0.930 . S
H1025 C1033 0.930 . S
H1026 C1034 0.930 . S
H1027 C1035 0.930 . S
H1028 C1038 0.930 . S
H1029 C1039 0.930 . S
C1030 H1024 0.930 . S
C1030 C1031 1.355 . S
C1030 C1032 1.415 1_554 S
C1031 C1030 1.355 . S
C1031 C1033 1.419 . S
C1032 C1030 1.415 1_556 S
C1032 C1037 1.425 . S
C1032 C1039 1.409 . S
C1033 H1025 0.930 . S
C1033 C1031 1.419 . S
C1033 C1034 1.362 . S
C1034 H1026 0.930 . S
C1034 C1033 1.362 . S
C1034 C1037 1.409 1_554 S
C1035 H1027 0.930 . S
C1035 C1036 1.355 . S
C1035 C1037 1.415 . S
C1036 C1035 1.355 . S
C1036 C1038 1.419 . S
C1037 C1032 1.425 . S
C1037 C1034 1.409 1_556 S
C1037 C1035 1.415 . S
C1038 H1028 0.930 . S
C1038 C1036 1.419 . S
C1038 C1039 1.362 . S
C1039 H1029 0.930 . S
C1039 C1032 1.409 . S
C1039 C1038 1.362 . S
H1040 C1046 0.930 . S
H1041 C1049 0.930 . S
H1042 C1050 0.930 . S
H1043 C1051 0.930 . S
H1044 C1054 0.930 . S
H1045 C1055 0.930 1_655 S
C1046 H1040 0.930 . S
C1046 C1047 1.355 . S
C1046 C1048 1.415 1_655 S
C1047 C1046 1.355 . S
C1047 C1049 1.419 1_655 S
C1048 C1046 1.415 1_455 S
C1048 C1053 1.425 . S
C1048 C1055 1.409 . S
C1049 H1041 0.930 . S
C1049 C1047 1.419 1_455 S
C1049 C1050 1.362 . S
C1050 H1042 0.930 . S
C1050 C1049 1.362 . S
C1050 C1053 1.409 . S
C1051 H1043 0.930 . S
C1051 C1052 1.355 . S
C1051 C1053 1.415 . S
C1052 C1051 1.355 . S
C1052 C1054 1.419 . S
C1053 C1048 1.425 . S
C1053 C1050 1.409 . S
C1053 C1051 1.415 . S
C1054 H1044 0.930 . S
C1054 C1052 1.419 . S
C1054 C1055 1.362 . S
C1055 H1045 0.930 1_455 S
C1055 C1048 1.409 . S
C1055 C1054 1.362 . S
H1056 C1062 0.930 . S
H1057 C1065 0.930 . S
H1058 C1066 0.930 . S
H1059 C1067 0.930 . S
H1060 C1070 0.930 . S
H1061 C1071 0.930 . S
C1062 H1056 0.930 . S
C1062 C1063 1.355 . S
C1062 C1064 1.415 . S
C1063 C1062 1.355 . S
C1063 C1065 1.419 . S
C1064 C1062 1.415 . S
C1064 C1069 1.425 . S
C1064 C1071 1.409 . S
C1065 H1057 0.930 . S
C1065 C1063 1.419 . S
C1065 C1066 1.362 . S
C1066 H1058 0.930 . S
C1066 C1065 1.362 . S
C1066 C1069 1.409 . S
C1067 H1059 0.930 . S
C1067 C1068 1.355 . S
C1067 C1069 1.415 . S
C1068 C1067 1.355 . S
C1068 C1070 1.419 . S
C1069 C1064 1.425 . S
C1069 C1066 1.409 . S
C1069 C1067 1.415 . S
C1070 H1060 0.930 . S
C1070 C1068 1.419 . S
C1070 C1071 1.362 . S
C1071 H1061 0.930 . S
C1071 C1064 1.409 . S
C1071 C1070 1.362 . S
H1072 C1078 0.930 . S
H1073 C1081 0.930 . S
H1074 C1082 0.930 . S
H1075 C1083 0.930 . S
H1076 C1086 0.930 . S
H1077 C1087 0.930 1_455 S
C1078 H1072 0.930 . S
C1078 C1079 1.355 . S
C1078 C1080 1.415 1_455 S
C1079 C1078 1.355 . S
C1079 C1081 1.419 1_455 S
C1080 C1078 1.415 1_655 S
C1080 C1085 1.425 . S
C1080 C1087 1.409 . S
C1081 H1073 0.930 . S
C1081 C1079 1.419 1_655 S
C1081 C1082 1.362 . S
C1082 H1074 0.930 . S
C1082 C1081 1.362 . S
C1082 C1085 1.409 . S
C1083 H1075 0.930 . S
C1083 C1084 1.355 . S
C1083 C1085 1.415 . S
C1084 C1083 1.355 . S
C1084 C1086 1.419 . S
C1085 C1080 1.425 . S
C1085 C1082 1.409 . S
C1085 C1083 1.415 . S
C1086 H1076 0.930 . S
C1086 C1084 1.419 . S
C1086 C1087 1.362 . S
C1087 H1077 0.930 1_655 S
C1087 C1080 1.409 . S
C1087 C1086 1.362 . S
H1088 C1094 0.930 . S
H1089 C1097 0.930 . S
H1090 C1098 0.930 . S
H1091 C1099 0.930 . S
H1092 C1102 0.930 . S
H1093 C1103 0.930 1_455 S
C1094 H1088 0.930 . S
C1094 C1095 1.355 . S
C1094 C1096 1.415 1_455 S
C1095 C1094 1.355 . S
C1095 C1097 1.419 1_455 S
C1096 C1094 1.415 1_655 S
C1096 C1101 1.425 . S
C1096 C1103 1.409 . S
C1097 H1089 0.930 . S
C1097 C1095 1.419 1_655 S
C1097 C1098 1.362 . S
C1098 H1090 0.930 . S
C1098 C1097 1.362 . S
C1098 C1101 1.409 . S
C1099 H1091 0.930 . S
C1099 C1100 1.355 . S
C1099 C1101 1.415 . S
C1100 C1099 1.355 . S
C1100 C1102 1.419 . S
C1101 C1096 1.425 . S
C1101 C1098 1.409 . S
C1101 C1099 1.415 . S
C1102 H1092 0.930 . S
C1102 C1100 1.419 . S
C1102 C1103 1.362 . S
C1103 H1093 0.930 1_655 S
C1103 C1096 1.409 . S
C1103 C1102 1.362 . S
H1104 C1110 0.930 . S
H1105 C1113 0.930 . S
H1106 C1114 0.930 . S
H1107 C1115 0.930 . S
H1108 C1118 0.930 . S
H1109 C1119 0.930 . S
C1110 H1104 0.930 . S
C1110 C1111 1.355 . S
C1110 C1112 1.415 . S
C1111 C1110 1.355 . S
C1111 C1113 1.419 . S
C1112 C1110 1.415 . S
C1112 C1117 1.425 . S
C1112 C1119 1.409 . S
C1113 H1105 0.930 . S
C1113 C1111 1.419 . S
C1113 C1114 1.362 . S
C1114 H1106 0.930 . S
C1114 C1113 1.362 . S
C1114 C1117 1.409 . S
C1115 H1107 0.930 . S
C1115 C1116 1.355 . S
C1115 C1117 1.415 . S
C1116 C1115 1.355 . S
C1116 C1118 1.419 . S
C1117 C1112 1.425 . S
C1117 C1114 1.409 . S
C1117 C1115 1.415 . S
C1118 H1108 0.930 . S
C1118 C1116 1.419 . S
C1118 C1119 1.362 . S
C1119 H1109 0.930 . S
C1119 C1112 1.409 . S
C1119 C1118 1.362 . S
H1120 C1126 0.930 . S
H1121 C1129 0.930 . S
H1122 C1130 0.930 . S
H1123 C1131 0.930 . S
H1124 C1134 0.930 . S
H1125 C1135 0.930 . S
C1126 H1120 0.930 . S
C1126 C1127 1.355 1_455 S
C1126 C1128 1.415 . S
C1127 C1126 1.355 1_655 S
C1127 C1129 1.419 . S
C1128 C1126 1.415 . S
C1128 C1133 1.425 . S
C1128 C1135 1.409 . S
C1129 H1121 0.930 . S
C1129 C1127 1.419 . S
C1129 C1130 1.362 . S
C1130 H1122 0.930 . S
C1130 C1129 1.362 . S
C1130 C1133 1.409 1_655 S
C1131 H1123 0.930 . S
C1131 C1132 1.355 . S
C1131 C1133 1.415 . S
C1132 C1131 1.355 . S
C1132 C1134 1.419 . S
C1133 C1128 1.425 . S
C1133 C1130 1.409 1_455 S
C1133 C1131 1.415 . S
C1134 H1124 0.930 . S
C1134 C1132 1.419 . S
C1134 C1135 1.362 . S
C1135 H1125 0.930 . S
C1135 C1128 1.409 . S
C1135 C1134 1.362 . S
H1136 C1142 0.930 . S
H1137 C1145 0.930 . S
H1138 C1146 0.930 . S
H1139 C1147 0.930 . S
H1140 C1150 0.930 . S
H1141 C1151 0.930 . S
C1142 H1136 0.930 . S
C1142 C1143 1.355 . S
C1142 C1144 1.415 . S
C1143 C1142 1.355 . S
C1143 C1145 1.419 . S
C1144 C1142 1.415 . S
C1144 C1149 1.425 . S
C1144 C1151 1.409 . S
C1145 H1137 0.930 . S
C1145 C1143 1.419 . S
C1145 C1146 1.362 . S
C1146 H1138 0.930 . S
C1146 C1145 1.362 . S
C1146 C1149 1.409 . S
C1147 H1139 0.930 . S
C1147 C1148 1.355 . S
C1147 C1149 1.415 . S
C1148 C1147 1.355 . S
C1148 C1150 1.419 . S
C1149 C1144 1.425 . S
C1149 C1146 1.409 . S
C1149 C1147 1.415 . S
C1150 H1140 0.930 . S
C1150 C1148 1.419 . S
C1150 C1151 1.362 . S
C1151 H1141 0.930 . S
C1151 C1144 1.409 . S
C1151 C1150 1.362 . S
H1152 C1158 0.930 . S
H1153 C1161 0.930 . S
H1154 C1162 0.930 . S
H1155 C1163 0.930 . S
H1156 C1166 0.930 . S
H1157 C1167 0.930 . S
C1158 H1152 0.930 . S
C1158 C1159 1.355 . S
C1158 C1160 1.415 . S
C1159 C1158 1.355 . S
C1159 C1161 1.419 . S
C1160 C1158 1.415 . S
C1160 C1165 1.425 . S
C1160 C1167 1.409 . S
C1161 H1153 0.930 . S
C1161 C1159 1.419 . S
C1161 C1162 1.362 . S
C1162 H1154 0.930 . S
C1162 C1161 1.362 . S
C1162 C1165 1.409 . S
C1163 H1155 0.930 . S
C1163 C1164 1.355 . S
C1163 C1165 1.415 . S
C1164 C1163 1.355 . S
C1164 C1166 1.419 . S
C1165 C1160 1.425 . S
C1165 C1162 1.409 . S
C1165 C1163 1.415 . S
C1166 H1156 0.930 . S
C1166 C1164 1.419 . S
C1166 C1167 1.362 . S
C1167 H1157 0.930 . S
C1167 C1160 1.409 . S
C1167 C1166 1.362 . S
H1168 C1174 0.930 . S
H1169 C1177 0.930 . S
H1170 C1178 0.930 . S
H1171 C1179 0.930 . S
H1172 C1182 0.930 . S
H1173 C1183 0.930 . S
C1174 H1168 0.930 . S
C1174 C1175 1.355 1_556 S
C1174 C1176 1.415 . S
C1175 C1174 1.355 1_554 S
C1175 C1177 1.419 . S
C1176 C1174 1.415 . S
C1176 C1181 1.425 . S
C1176 C1183 1.409 . S
C1177 H1169 0.930 . S
C1177 C1175 1.419 . S
C1177 C1178 1.362 . S
C1178 H1170 0.930 . S
C1178 C1177 1.362 . S
C1178 C1181 1.409 1_554 S
C1179 H1171 0.930 . S
C1179 C1180 1.355 . S
C1179 C1181 1.415 . S
C1180 C1179 1.355 . S
C1180 C1182 1.419 . S
C1181 C1176 1.425 . S
C1181 C1178 1.409 1_556 S
C1181 C1179 1.415 . S
C1182 H1172 0.930 . S
C1182 C1180 1.419 . S
C1182 C1183 1.362 . S
C1183 H1173 0.930 . S
C1183 C1176 1.409 . S
C1183 C1182 1.362 . S
H1184 C1190 0.930 . S
H1185 C1193 0.930 . S
H1186 C1194 0.930 . S
H1187 C1195 0.930 . S
H1188 C1198 0.930 . S
H1189 C1199 0.930 . S
C1190 H1184 0.930 . S
C1190 C1191 1.355 . S
C1190 C1192 1.415 . S
C1191 C1190 1.355 . S
C1191 C1193 1.419 . S
C1192 C1190 1.415 . S
C1192 C1197 1.425 . S
C1192 C1199 1.409 . S
C1193 H1185 0.930 . S
C1193 C1191 1.419 . S
C1193 C1194 1.362 . S
C1194 H1186 0.930 . S
C1194 C1193 1.362 . S
C1194 C1197 1.409 . S
C1195 H1187 0.930 . S
C1195 C1196 1.355 . S
C1195 C1197 1.415 . S
C1196 C1195 1.355 . S
C1196 C1198 1.419 . S
C1197 C1192 1.425 . S
C1197 C1194 1.409 . S
C1197 C1195 1.415 . S
C1198 H1188 0.930 . S
C1198 C1196 1.419 . S
C1198 C1199 1.362 . S
C1199 H1189 0.930 . S
C1199 C1192 1.409 . S
C1199 C1198 1.362 . S
H1200 C1206 0.930 . S
H1201 C1209 0.930 . S
H1202 C1210 0.930 . S
H1203 C1211 0.930 . S
H1204 C1214 0.930 . S
H1205 C1215 0.930 . S
C1206 H1200 0.930 . S
C1206 C1207 1.355 . S
C1206 C1208 1.415 . S
C1207 C1206 1.355 . S
C1207 C1209 1.419 . S
C1208 C1206 1.415 . S
C1208 C1213 1.425 . S
C1208 C1215 1.409 . S
C1209 H1201 0.930 . S
C1209 C1207 1.419 . S
C1209 C1210 1.362 . S
C1210 H1202 0.930 . S
C1210 C1209 1.362 . S
C1210 C1213 1.409 . S
C1211 H1203 0.930 . S
C1211 C1212 1.355 . S
C1211 C1213 1.415 . S
C1212 C1211 1.355 . S
C1212 C1214 1.419 . S
C1213 C1208 1.425 . S
C1213 C1210 1.409 . S
C1213 C1211 1.415 . S
C1214 H1204 0.930 . S
C1214 C1212 1.419 . S
C1214 C1215 1.362 . S
C1215 H1205 0.930 . S
C1215 C1208 1.409 . S
C1215 C1214 1.362 . S
H1216 C1222 0.930 . S
H1217 C1225 0.930 . S
H1218 C1226 0.930 . S
H1219 C1227 0.930 . S
H1220 C1230 0.930 . S
H1221 C1231 0.930 . S
C1222 H1216 0.930 . S
C1222 C1223 1.355 . S
C1222 C1224 1.415 . S
C1223 C1222 1.355 . S
C1223 C1225 1.419 . S
C1224 C1222 1.415 . S
C1224 C1229 1.425 . S
C1224 C1231 1.409 . S
C1225 H1217 0.930 . S
C1225 C1223 1.419 . S
C1225 C1226 1.362 . S
C1226 H1218 0.930 . S
C1226 C1225 1.362 . S
C1226 C1229 1.409 . S
C1227 H1219 0.930 . S
C1227 C1228 1.355 . S
C1227 C1229 1.415 . S
C1228 C1227 1.355 . S
C1228 C1230 1.419 . S
C1229 C1224 1.425 . S
C1229 C1226 1.409 . S
C1229 C1227 1.415 . S
C1230 H1220 0.930 . S
C1230 C1228 1.419 . S
C1230 C1231 1.362 . S
C1231 H1221 0.930 . S
C1231 C1224 1.409 . S
C1231 C1230 1.362 . S
H1232 C1238 0.930 . S
H1233 C1241 0.930 . S
H1234 C1242 0.930 1_556 S
H1235 C1243 0.930 . S
H1236 C1246 0.930 . S
H1237 C1247 0.930 . S
C1238 H1232 0.930 . S
C1238 C1239 1.355 . S
C1238 C1240 1.415 . S
C1239 C1238 1.355 . S
C1239 C1241 1.419 . S
C1240 C1238 1.415 . S
C1240 C1245 1.425 . S
C1240 C1247 1.409 . S
C1241 H1233 0.930 . S
C1241 C1239 1.419 . S
C1241 C1242 1.362 . S
C1242 H1234 0.930 1_554 S
C1242 C1241 1.362 . S
C1242 C1245 1.409 . S
C1243 H1235 0.930 . S
C1243 C1244 1.355 . S
C1243 C1245 1.415 1_556 S
C1244 C1243 1.355 . S
C1244 C1246 1.419 1_556 S
C1245 C1240 1.425 . S
C1245 C1242 1.409 . S
C1245 C1243 1.415 1_554 S
C1246 H1236 0.930 . S
C1246 C1244 1.419 1_554 S
C1246 C1247 1.362 . S
C1247 H1237 0.930 . S
C1247 C1240 1.409 . S
C1247 C1246 1.362 . S
H1248 C1254 0.930 . S
H1249 C1257 0.930 . S
H1250 C1258 0.930 . S
H1251 C1259 0.930 . S
H1252 C1262 0.930 . S
H1253 C1263 0.930 . S
C1254 H1248 0.930 . S
C1254 C1255 1.355 . S
C1254 C1256 1.415 . S
C1255 C1254 1.355 . S
C1255 C1257 1.419 . S
C1256 C1254 1.415 . S
C1256 C1261 1.425 . S
C1256 C1263 1.409 . S
C1257 H1249 0.930 . S
C1257 C1255 1.419 . S
C1257 C1258 1.362 . S
C1258 H1250 0.930 . S
C1258 C1257 1.362 . S
C1258 C1261 1.409 . S
C1259 H1251 0.930 . S
C1259 C1260 1.355 . S
C1259 C1261 1.415 . S
C1260 C1259 1.355 . S
C1260 C1262 1.419 . S
C1261 C1256 1.425 . S
C1261 C1258 1.409 . S
C1261 C1259 1.415 . S
C1262 H1252 0.930 . S
C1262 C1260 1.419 . S
C1262 C1263 1.362 . S
C1263 H1253 0.930 . S
C1263 C1256 1.409 . S
C1263 C1262 1.362 . S
H1264 C1270 0.930 . S
H1265 C1273 0.930 . S
H1266 C1274 0.930 . S
H1267 C1275 0.930 . S
H1268 C1278 0.930 . S
H1269 C1279 0.930 . S
C1270 H1264 0.930 . S
C1270 C1271 1.355 . S
C1270 C1272 1.415 . S
C1271 C1270 1.355 . S
C1271 C1273 1.419 . S
C1272 C1270 1.415 . S
C1272 C1277 1.425 . S
C1272 C1279 1.409 . S
C1273 H1265 0.930 . S
C1273 C1271 1.419 . S
C1273 C1274 1.362 . S
C1274 H1266 0.930 . S
C1274 C1273 1.362 . S
C1274 C1277 1.409 . S
C1275 H1267 0.930 . S
C1275 C1276 1.355 . S
C1275 C1277 1.415 . S
C1276 C1275 1.355 . S
C1276 C1278 1.419 . S
C1277 C1272 1.425 . S
C1277 C1274 1.409 . S
C1277 C1275 1.415 . S
C1278 H1268 0.930 . S
C1278 C1276 1.419 . S
C1278 C1279 1.362 . S
C1279 H1269 0.930 . S
C1279 C1272 1.409 . S
C1279 C1278 1.362 . S
H1280 C1286 0.930 . S
H1281 C1289 0.930 . S
H1282 C1290 0.930 . S
H1283 C1291 0.930 . S
H1284 C1294 0.930 . S
H1285 C1295 0.930 . S
C1286 H1280 0.930 . S
C1286 C1287 1.355 . S
C1286 C1288 1.415 . S
C1287 C1286 1.355 . S
C1287 C1289 1.419 . S
C1288 C1286 1.415 . S
C1288 C1293 1.425 . S
C1288 C1295 1.409 . S
C1289 H1281 0.930 . S
C1289 C1287 1.419 . S
C1289 C1290 1.362 . S
C1290 H1282 0.930 . S
C1290 C1289 1.362 . S
C1290 C1293 1.409 . S
C1291 H1283 0.930 . S
C1291 C1292 1.355 . S
C1291 C1293 1.415 . S
C1292 C1291 1.355 . S
C1292 C1294 1.419 . S
C1293 C1288 1.425 . S
C1293 C1290 1.409 . S
C1293 C1291 1.415 . S
C1294 H1284 0.930 . S
C1294 C1292 1.419 . S
C1294 C1295 1.362 . S
C1295 H1285 0.930 . S
C1295 C1288 1.409 . S
C1295 C1294 1.362 . S
H1296 C1302 0.930 . S
H1297 C1305 0.930 . S
H1298 C1306 0.930 . S
H1299 C1307 0.930 . S
H1300 C1310 0.930 . S
H1301 C1311 0.930 . S
C1302 H1296 0.930 . S
C1302 C1303 1.355 . S
C1302 C1304 1.415 . S
C1303 C1302 1.355 . S
C1303 C1305 1.419 . S
C1304 C1302 1.415 . S
C1304 C1309 1.425 . S
C1304 C1311 1.409 . S
C1305 H1297 0.930 . S
C1305 C1303 1.419 . S
C1305 C1306 1.362 . S
C1306 H1298 0.930 . S
C1306 C1305 1.362 . S
C1306 C1309 1.409 . S
C1307 H1299 0.930 . S
C1307 C1308 1.355 . S
C1307 C1309 1.415 . S
C1308 C1307 1.355 . S
C1308 C1310 1.419 . S
C1309 C1304 1.425 . S
C1309 C1306 1.409 . S
C1309 C1307 1.415 . S
C1310 H1300 0.930 . S
C1310 C1308 1.419 . S
C1310 C1311 1.362 . S
C1311 H1301 0.930 . S
C1311 C1304 1.409 . S
C1311 C1310 1.362 . S
H1312 C1318 0.930 . S
H1313 C1321 0.930 . S
H1314 C1322 0.930 . S
H1315 C1323 0.930 . S
H1316 C1326 0.930 . S
H1317 C1327 0.930 . S
C1318 H1312 0.930 . S
C1318 C1319 1.355 . S
C1318 C1320 1.415 1_554 S
C1319 C1318 1.355 . S
C1319 C1321 1.419 . S
C1320 C1318 1.415 1_556 S
C1320 C1325 1.425 1_556 S
C1320 C1327 1.409 . S
C1321 H1313 0.930 . S
C1321 C1319 1.419 . S
C1321 C1322 1.362 . S
C1322 H1314 0.930 . S
C1322 C1321 1.362 . S
C1322 C1325 1.409 . S
C1323 H1315 0.930 . S
C1323 C1324 1.355 . S
C1323 C1325 1.415 1_556 S
C1324 C1323 1.355 . S
C1324 C1326 1.419 . S
C1325 C1320 1.425 1_554 S
C1325 C1322 1.409 . S
C1325 C1323 1.415 1_554 S
C1326 H1316 0.930 . S
C1326 C1324 1.419 . S
C1326 C1327 1.362 . S
C1327 H1317 0.930 . S
C1327 C1320 1.409 . S
C1327 C1326 1.362 . S
H1328 C1334 0.930 . S
H1329 C1337 0.930 . S
H1330 C1338 0.930 . S
H1331 C1339 0.930 . S
H1332 C1342 0.930 . S
H1333 C1343 0.930 . S
C1334 H1328 0.930 . S
C1334 C1335 1.355 . S
C1334 C1336 1.415 . S
C1335 C1334 1.355 . S
C1335 C1337 1.419 . S
C1336 C1334 1.415 . S
C1336 C1341 1.425 . S
C1336 C1343 1.409 . S
C1337 H1329 0.930 . S
C1337 C1335 1.419 . S
C1337 C1338 1.362 . S
C1338 H1330 0.930 . S
C1338 C1337 1.362 . S
C1338 C1341 1.409 . S
C1339 H1331 0.930 . S
C1339 C1340 1.355 . S
C1339 C1341 1.415 . S
C1340 C1339 1.355 . S
C1340 C1342 1.419 . S
C1341 C1336 1.425 . S
C1341 C1338 1.409 . S
C1341 C1339 1.415 . S
C1342 H1332 0.930 . S
C1342 C1340 1.419 . S
C1342 C1343 1.362 . S
C1343 H1333 0.930 . S
C1343 C1336 1.409 . S
C1343 C1342 1.362 . S
H1344 C1350 0.930 . S
H1345 C1353 0.930 . S
H1346 C1354 0.930 . S
H1347 C1355 0.930 . S
H1348 C1358 0.930 . S
H1349 C1359 0.930 . S
C1350 H1344 0.930 . S
C1350 C1351 1.355 . S
C1350 C1352 1.415 . S
C1351 C1350 1.355 . S
C1351 C1353 1.419 . S
C1352 C1350 1.415 . S
C1352 C1357 1.425 . S
C1352 C1359 1.409 . S
C1353 H1345 0.930 . S
C1353 C1351 1.419 . S
C1353 C1354 1.362 . S
C1354 H1346 0.930 . S
C1354 C1353 1.362 . S
C1354 C1357 1.409 . S
C1355 H1347 0.930 . S
C1355 C1356 1.355 . S
C1355 C1357 1.415 . S
C1356 C1355 1.355 . S
C1356 C1358 1.419 . S
C1357 C1352 1.425 . S
C1357 C1354 1.409 . S
C1357 C1355 1.415 . S
C1358 H1348 0.930 . S
C1358 C1356 1.419 . S
C1358 C1359 1.362 . S
C1359 H1349 0.930 . S
C1359 C1352 1.409 . S
C1359 C1358 1.362 . S
H1360 C1366 0.930 . S
H1361 C1369 0.930 . S
H1362 C1370 0.930 . S
H1363 C1371 0.930 . S
H1364 C1374 0.930 . S
H1365 C1375 0.930 . S
C1366 H1360 0.930 . S
C1366 C1367 1.355 . S
C1366 C1368 1.415 . S
C1367 C1366 1.355 . S
C1367 C1369 1.419 . S
C1368 C1366 1.415 . S
C1368 C1373 1.425 . S
C1368 C1375 1.409 . S
C1369 H1361 0.930 . S
C1369 C1367 1.419 . S
C1369 C1370 1.362 . S
C1370 H1362 0.930 . S
C1370 C1369 1.362 . S
C1370 C1373 1.409 . S
C1371 H1363 0.930 . S
C1371 C1372 1.355 . S
C1371 C1373 1.415 . S
C1372 C1371 1.355 . S
C1372 C1374 1.419 . S
C1373 C1368 1.425 . S
C1373 C1370 1.409 . S
C1373 C1371 1.415 . S
C1374 H1364 0.930 . S
C1374 C1372 1.419 . S
C1374 C1375 1.362 . S
C1375 H1365 0.930 . S
C1375 C1368 1.409 . S
C1375 C1374 1.362 . S
H1376 C1382 0.930 1_556 S
H1377 C1385 0.930 . S
H1378 C1386 0.930 . S
H1379 C1387 0.930 . S
H1380 C1390 0.930 . S
H1381 C1391 0.930 . S
C1382 H1376 0.930 1_554 S
C1382 C1383 1.355 . S
C1382 C1384 1.415 1_554 S
C1383 C1382 1.355 . S
C1383 C1385 1.419 . S
C1384 C1382 1.415 1_556 S
C1384 C1389 1.425 . S
C1384 C1391 1.409 . S
C1385 H1377 0.930 . S
C1385 C1383 1.419 . S
C1385 C1386 1.362 . S
C1386 H1378 0.930 . S
C1386 C1385 1.362 . S
C1386 C1389 1.409 1_554 S
C1387 H1379 0.930 . S
C1387 C1388 1.355 . S
C1387 C1389 1.415 . S
C1388 C1387 1.355 . S
C1388 C1390 1.419 . S
C1389 C1384 1.425 . S
C1389 C1386 1.409 1_556 S
C1389 C1387 1.415 . S
C1390 H1380 0.930 . S
C1390 C1388 1.419 . S
C1390 C1391 1.362 . S
C1391 H1381 0.930 . S
C1391 C1384 1.409 . S
C1391 C1390 1.362 . S
H1392 C1398 0.930 . S
H1393 C1401 0.930 . S
H1394 C1402 0.930 . S
H1395 C1403 0.930 . S
H1396 C1406 0.930 . S
H1397 C1407 0.930 . S
C1398 H1392 0.930 . S
C1398 C1399 1.355 . S
C1398 C1400 1.415 . S
C1399 C1398 1.355 . S
C1399 C1401 1.419 . S
C1400 C1398 1.415 . S
C1400 C1405 1.425 . S
C1400 C1407 1.409 . S
C1401 H1393 0.930 . S
C1401 C1399 1.419 . S
C1401 C1402 1.362 . S
C1402 H1394 0.930 . S
C1402 C1401 1.362 . S
C1402 C1405 1.409 . S
C1403 H1395 0.930 . S
C1403 C1404 1.355 . S
C1403 C1405 1.415 . S
C1404 C1403 1.355 . S
C1404 C1406 1.419 . S
C1405 C1400 1.425 . S
C1405 C1402 1.409 . S
C1405 C1403 1.415 . S
C1406 H1396 0.930 . S
C1406 C1404 1.419 . S
C1406 C1407 1.362 . S
C1407 H1397 0.930 . S
C1407 C1400 1.409 . S
C1407 C1406 1.362 . S
H1408 C1414 0.930 . S
H1409 C1417 0.930 . S
H1410 C1418 0.930 . S
H1411 C1419 0.930 . S
H1412 C1422 0.930 . S
H1413 C1423 0.930 . S
C1414 H1408 0.930 . S
C1414 C1415 1.355 . S
C1414 C1416 1.415 . S
C1415 C1414 1.355 . S
C1415 C1417 1.419 . S
C1416 C1414 1.415 . S
C1416 C1421 1.425 . S
C1416 C1423 1.409 . S
C1417 H1409 0.930 . S
C1417 C1415 1.419 . S
C1417 C1418 1.362 . S
C1418 H1410 0.930 . S
C1418 C1417 1.362 . S
C1418 C1421 1.409 . S
C1419 H1411 0.930 . S
C1419 C1420 1.355 . S
C1419 C1421 1.415 . S
C1420 C1419 1.355 . S
C1420 C1422 1.419 . S
C1421 C1416 1.425 . S
C1421 C1418 1.409 . S
C1421 C1419 1.415 . S
C1422 H1412 0.930 . S
C1422 C1420 1.419 . S
C1422 C1423 1.362 . S
C1423 H1413 0.930 . S
C1423 C1416 1.409 . S
C1423 C1422 1.362 . S
H1424 C1430 0.930 . S
H1425 C1433 0.930 . S
H1426 C1434 0.930 . S
H1427 C1435 0.930 . S
H1428 C1438 0.930 . S
H1429 C1439 0.930 . S
C1430 H1424 0.930 . S
C1430 C1431 1.355 . S
C1430 C1432 1.415 . S
C1431 C1430 1.355 . S
C1431 C1433 1.419 . S
C1432 C1430 1.415 . S
C1432 C1437 1.425 . S
C1432 C1439 1.409 . S
C1433 H1425 0.930 . S
C1433 C1431 1.419 . S
C1433 C1434 1.362 . S
C1434 H1426 0.930 . S
C1434 C1433 1.362 . S
C1434 C1437 1.409 . S
C1435 H1427 0.930 . S
C1435 C1436 1.355 . S
C1435 C1437 1.415 . S
C1436 C1435 1.355 . S
C1436 C1438 1.419 . S
C1437 C1432 1.425 . S
C1437 C1434 1.409 . S
C1437 C1435 1.415 . S
C1438 H1428 0.930 . S
C1438 C1436 1.419 . S
C1438 C1439 1.362 . S
C1439 H1429 0.930 . S
C1439 C1432 1.409 . S
C1439 C1438 1.362 . S
C423 C8 1.015 . S
C428 C177 0.970 . S
C439 C333 1.311 . S
C444 C21 1.336 . S
C455 C34 1.023 . S
C460 C203 1.010 . S
C471 C47 1.336 . S
C476 C320 1.314 . S
C487 C60 1.365 . S
C492 C229 1.428 . S
C503 C73 1.083 . S
C508 C294 1.046 . S
C519 C86 1.422 . S
C524 C255 1.380 . S
C535 C411 1.105 . S
C540 C99 1.106 . S
C551 C281 1.429 . S
C556 C112 1.363 . S
C567 C125 1.082 . S
C572 C242 1.046 . S
C583 C307 1.427 . S
C588 C138 1.366 . S
C599 C151 1.332 . S
C604 C216 1.299 . S
C615 C190 1.337 . S
C620 C164 1.301 . S
C631 C268 1.081 . S
C636 C372 1.112 . S
C647 C385 0.997 . S
C652 C346 0.939 . S
C663 C398 1.019 . S
C668 C359 0.966 . S
C679 C10 1.557 . S
C684 C23 1.600 . S
C695 C31 1.484 . S
C700 C13 1.533 . S
C711 C49 1.591 . S
C716 C36 1.541 . S
C727 C39 1.536 . S
C732 C5 1.464 . S
C743 C96 1.402 . S
C748 C57 1.401 . S
C759 C75 1.495 . S
C764 C52 1.572 . S
C775 C83 1.435 . S
C780 C70 1.433 . S
C791 C78 1.578 . S
C796 C101 1.482 . S
C807 C117 1.581 . S
C812 C0 1.568 . S
C823 C114 1.433 . S
C828 C44 1.470 . S
C839 C140 1.449 . S
C844 C18 1.500 . S
C855 C351 1.565 . S
C860 C91 1.578 . S
C871 C364 1.581 . S
C876 C26 1.568 . S
C887 C148 1.478 . S
C892 C62 1.434 . S
C903 C88 1.446 . S
C908 C161 1.497 . S
C919 C187 1.575 . S
C924 C174 1.542 . S
C935 C205 1.399 . S
C940 C182 1.455 . S
C951 C213 1.571 . S
C956 C200 1.544 . S
C967 C179 1.476 . S
C972 C208 1.505 . S
C983 C221 1.496 . S
C988 C270 1.461 . S
C999 C226 1.625 . S
C1004 C239 1.564 . S
C1015 C247 1.481 . S
C1020 C244 1.433 . S
C1031 C252 1.619 . S
C1036 C265 1.571 . S
C1047 C169 1.483 . S
C1052 C286 1.456 . S
C1063 C283 1.544 . S
C1068 C218 1.498 . S
C1079 C309 1.470 . S
C1084 C192 1.514 . S
C1095 C390 1.474 . S
C1100 C260 1.453 . S
C1111 C403 1.470 . S
C1116 C195 1.501 . S
C1127 C231 1.537 . S
C1132 C322 1.481 . S
C1143 C335 1.472 . S
C1148 C257 1.527 . S
C1159 C166 1.563 . S
C1164 C348 1.602 . S
C1175 C356 1.482 . S
C1180 C156 1.518 . S
C1191 C153 1.597 . S
C1196 C361 1.584 . S
C1207 C143 1.517 . S
C1212 C343 1.490 . S
C1223 C109 1.365 . S
C1228 C369 1.361 . S
C1239 C127 1.504 . S
C1244 C104 1.569 . S
C1255 C135 1.416 . S
C1260 C122 1.412 . S
C1271 C130 1.572 . S
C1276 C374 1.494 . S
C1287 C338 1.571 . S
C1292 C65 1.555 . S
C1303 C330 1.557 . S
C1308 C382 1.563 . S
C1319 C325 1.491 . S
C1324 C400 1.469 . S
C1335 C395 1.535 . S
C1340 C317 1.578 . S
C1351 C312 1.476 . S
C1356 C387 1.450 . S
C1367 C413 1.406 . S
C1372 C273 1.453 . S
C1383 C278 1.616 . S
C1388 C291 1.580 . S
C1399 C299 1.465 . S
C1404 C296 1.432 . S
C1415 C304 1.624 . S
C1420 C408 1.566 . S
C1431 C377 1.496 . S
C1436 C234 1.511 . S
