# Generated by pormake.
# Topology smc, (6)-cn, num edge types: 1
# Building blocks:
#     Node 0, Type 0, BuildingBlock: BETDAH_clean_sbu_0, # of connection points: 6
#     Node 1, Type 0, BuildingBlock: BETDAH_clean_sbu_0, # of connection points: 6
#     Node 2, Type 0, BuildingBlock: BETDAH_clean_sbu_0, # of connection points: 6
#     Node 3, Type 0, BuildingBlock: BETDAH_clean_sbu_0, # of connection points: 6
#     Node 4, Type 0, BuildingBlock: BETDAH_clean_sbu_0, # of connection points: 6
#     Node 5, Type 0, BuildingBlock: BETDAH_clean_sbu_0, # of connection points: 6
#     Node 6, Type 0, BuildingBlock: BETDAH_clean_sbu_0, # of connection points: 6
#     Node 7, Type 0, BuildingBlock: BETDAH_clean_sbu_0, # of connection points: 6
#     Node 8, Type 0, BuildingBlock: BETDAH_clean_sbu_0, # of connection points: 6
#     Edge 9, Type (0, 0), BuildingBlock: XIVTED_clean_linker_0, # of connection points: 2
#     Edge 10, Type (0, 0), BuildingBlock: XIVTED_clean_linker_0, # of connection points: 2
#     Edge 11, Type (0, 0), BuildingBlock: XIVTED_clean_linker_0, # of connection points: 2
#     Edge 12, Type (0, 0), BuildingBlock: XIVTED_clean_linker_0, # of connection points: 2
#     Edge 13, Type (0, 0), BuildingBlock: XIVTED_clean_linker_0, # of connection points: 2
#     Edge 14, Type (0, 0), BuildingBlock: XIVTED_clean_linker_0, # of connection points: 2
#     Edge 15, Type (0, 0), BuildingBlock: XIVTED_clean_linker_0, # of connection points: 2
#     Edge 16, Type (0, 0), BuildingBlock: XIVTED_clean_linker_0, # of connection points: 2
#     Edge 17, Type (0, 0), BuildingBlock: XIVTED_clean_linker_0, # of connection points: 2
#     Edge 18, Type (0, 0), BuildingBlock: XIVTED_clean_linker_0, # of connection points: 2
#     Edge 19, Type (0, 0), BuildingBlock: XIVTED_clean_linker_0, # of connection points: 2
#     Edge 20, Type (0, 0), BuildingBlock: XIVTED_clean_linker_0, # of connection points: 2
#     Edge 21, Type (0, 0), BuildingBlock: XIVTED_clean_linker_0, # of connection points: 2
#     Edge 22, Type (0, 0), BuildingBlock: XIVTED_clean_linker_0, # of connection points: 2
#     Edge 23, Type (0, 0), BuildingBlock: XIVTED_clean_linker_0, # of connection points: 2
#     Edge 24, Type (0, 0), BuildingBlock: XIVTED_clean_linker_0, # of connection points: 2
#     Edge 25, Type (0, 0), BuildingBlock: XIVTED_clean_linker_0, # of connection points: 2
#     Edge 26, Type (0, 0), BuildingBlock: XIVTED_clean_linker_0, # of connection points: 2
#     Edge 27, Type (0, 0), BuildingBlock: XIVTED_clean_linker_0, # of connection points: 2
#     Edge 28, Type (0, 0), BuildingBlock: XIVTED_clean_linker_0, # of connection points: 2
#     Edge 29, Type (0, 0), BuildingBlock: XIVTED_clean_linker_0, # of connection points: 2
#     Edge 30, Type (0, 0), BuildingBlock: XIVTED_clean_linker_0, # of connection points: 2
#     Edge 31, Type (0, 0), BuildingBlock: XIVTED_clean_linker_0, # of connection points: 2
#     Edge 32, Type (0, 0), BuildingBlock: XIVTED_clean_linker_0, # of connection points: 2
#     Edge 33, Type (0, 0), BuildingBlock: XIVTED_clean_linker_0, # of connection points: 2
#     Edge 34, Type (0, 0), BuildingBlock: XIVTED_clean_linker_0, # of connection points: 2
#     Edge 35, Type (0, 0), BuildingBlock: XIVTED_clean_linker_0, # of connection points: 2
# Relax obj value: 0.174
# Max RMSD: 0.312
# Mean RMSD: 0.312
data_MOF--net-smc--node1-BETDAH_clean_sbu_0--edge1-XIVTED_clean_linker_0
_symmetry_space_group_name_H-M    P1
_symmetry_Int_Tables_number       1
_symmetry_cell_setting            triclinic
loop_
_symmetry_equiv_pos_as_xyz
'x, y, z'
_cell_length_a     39.475704
_cell_length_b     39.455384
_cell_length_c     37.153343
_cell_angle_alpha  89.919982
_cell_angle_beta   89.987424
_cell_angle_gamma 120.01429
loop_
_atom_site_label
_atom_site_type_symbol
_atom_site_fract_x
_atom_site_fract_y
_atom_site_fract_z
_atom_type_partial_charge
Ho0 Ho 0.04013 0.49416 0.05729 0.0
Ho1 Ho 0.99457 0.40656 0.0717 0.0
C2 C 0.08382 0.4435 1.04589 0.0
C3 C 0.0862 0.56932 0.05606 0.0
C4 C 0.11659 0.60497 1.03764 0.0
C5 C 0.15651 0.61771 1.04245 0.0
C6 C 0.18508 0.65541 1.03189 0.0
C7 C 0.17439 0.68135 1.01651 0.0
C8 C 0.13457 0.66783 1.00998 0.0
C9 C 0.10602 0.63013 1.02051 0.0
C10 C 0.99777 0.44725 1.00104 0.0
C11 C 0.95716 0.46152 0.08722 0.0
C12 C 0.93915 0.33415 0.07466 0.0
C13 C 0.89602 0.31407 0.07242 0.0
C14 C 0.87689 0.33182 0.05565 0.0
C15 C 0.8359 0.31315 0.05539 0.0
C16 C 0.81321 0.27638 0.07198 0.0
C17 C 0.83266 0.25858 0.08826 0.0
C18 C 0.87357 0.27727 0.08852 0.0
C19 C 0.0456 0.44764 0.12336 0.0
O20 O 0.08667 0.4783 1.04874 0.0
O21 O 0.05017 0.41009 0.05042 0.0
O22 O 0.05067 0.55178 1.04299 0.0
O23 O 0.0959 0.54496 0.07027 0.0
O24 O 1.0022 0.4817 1.00636 0.0
O25 O 1.01747 0.4417 1.02385 0.0
O26 O 0.95075 0.42841 0.07236 0.0
O27 O 0.99311 0.48951 0.09293 0.0
O28 O 0.95461 0.35591 0.10319 0.0
O29 O 0.95849 0.35101 1.0452 0.0
O30 O 0.036 0.41224 0.11437 0.0
O31 O 1.02414 0.45864 0.10745 0.0
H32 H 0.16569 0.59935 0.05607 0.0
H33 H 0.21542 0.66492 1.03769 0.0
H34 H 0.12534 0.6868 0.99772 0.0
H35 H 0.07551 0.62144 1.01683 0.0
H36 H 0.89362 0.36029 1.04307 0.0
H37 H 0.82206 0.32791 1.04286 0.0
H38 H 0.81627 0.23 0.10071 0.0
H39 H 0.8877 0.26305 0.10157 0.0
Ho40 Ho 0.55757 0.56835 1.04616 0.0
Ho41 Ho 0.64286 0.60794 0.06377 0.0
C42 C 0.60413 0.66244 1.04916 0.0
C43 C 0.48262 0.53588 1.03726 0.0
C44 C 0.44417 0.53386 1.03984 0.0
C45 C 0.42184 0.52134 0.07165 0.0
C46 C 0.38246 0.51158 0.07161 0.0
C47 C 0.36442 0.51386 1.03973 0.0
C48 C 0.38728 0.52775 1.0083 0.0
C49 C 0.42656 0.53755 1.00837 0.0
C50 C 0.60716 0.57722 0.99084 0.0
C51 C 0.59217 0.51518 0.06555 0.0
C52 C 0.71795 0.63795 0.06423 0.0
C53 C 0.74276 0.61987 0.07045 0.0
C54 C 0.755 0.60615 1.04105 0.0
C55 C 0.77537 0.58602 1.04643 0.0
C56 C 0.78451 0.57938 0.08134 0.0
C57 C 0.77335 0.59411 0.11076 0.0
C58 C 0.75266 0.61406 0.10539 0.0
C59 C 0.59739 0.58912 0.1238 0.0
O60 O 0.56976 0.62998 1.04679 0.0
O61 O 0.63717 0.66208 0.05554 0.0
O62 O 0.50817 0.559 1.0134 0.0
O63 O 0.49878 0.53152 0.06636 0.0
O64 O 0.57429 0.54523 0.99611 0.0
O65 O 0.61106 0.60103 1.01463 0.0
O66 O 0.62576 0.54452 0.05405 0.0
O67 O 0.56284 0.52077 0.07275 0.0
O68 O 0.69852 0.64055 0.09168 0.0
O69 O 0.69678 0.62661 1.03499 0.0
O70 O 0.62566 0.58182 0.11882 0.0
O71 O 0.59176 0.60195 0.09447 0.0
H72 H 0.4343 0.51762 0.09628 0.0
H73 H 0.36598 0.5016 0.09646 0.0
H74 H 0.37441 0.52942 0.9831 0.0
H75 H 0.44263 0.5462 0.98322 0.0
H76 H 0.74829 0.61042 1.01371 0.0
H77 H 0.78421 0.57588 1.02311 0.0
H78 H 0.77983 0.58946 0.13804 0.0
H79 H 0.74385 0.62429 0.12866 0.0
Ho80 Ho 0.48304 1.01208 1.0435 0.0
Ho81 Ho 0.43305 0.05051 1.04437 0.0
C82 C 0.39006 0.95944 1.02426 0.0
C83 C 0.51784 0.97216 0.05475 0.0
C84 C 0.52449 0.939 1.04826 0.0
C85 C 0.52383 0.91672 0.078 0.0
C86 C 0.53573 0.88899 0.07461 0.0
C87 C 0.54857 0.88277 1.0413 0.0
C88 C 0.54796 0.90413 1.01112 0.0
C89 C 0.53627 0.93223 1.01461 0.0
C90 C 0.47823 0.04637 0.98088 0.0
C91 C 0.52505 0.09856 0.06582 0.0
C92 C 0.40961 0.10061 1.03658 0.0
C93 C 0.43079 0.1438 1.03527 0.0
C94 C 0.46937 0.16498 1.02224 0.0
C95 C 0.49074 0.20585 1.02507 0.0
C96 C 0.47397 0.22637 1.041 0.0
C97 C 0.43484 0.20501 0.05286 0.0
C98 C 0.41358 0.16419 0.05014 0.0
C99 C 0.42418 1.00729 0.10262 0.0
O100 O 0.42314 0.96049 1.03314 0.0
O101 O 0.38703 0.99156 1.02299 0.0
O102 O 0.52978 1.00036 1.03095 0.0
O103 O 0.48603 0.96552 0.0717 0.0
O104 O 0.51068 0.04899 0.99192 0.0
O105 O 0.4521 0.02596 1.00276 0.0
O106 O 0.49698 0.09975 1.04743 0.0
O107 O 0.52114 0.06488 0.07536 0.0
O108 O 0.41067 0.08562 0.06768 0.0
O109 O 0.41501 0.08262 1.0095 0.0
O110 O 0.39649 1.0111 0.088 0.0
O111 O 0.45708 0.02976 0.08774 0.0
H112 H 0.51526 0.92168 0.10432 0.0
H113 H 0.53515 0.87256 0.09822 0.0
H114 H 0.55775 0.90005 0.9851 0.0
H115 H 0.53748 0.9493 0.99129 0.0
H116 H 0.48336 0.14992 1.01067 0.0
H117 H 0.52081 0.22119 1.01586 0.0
H118 H 0.42066 0.21982 0.06458 0.0
H119 H 0.38391 0.14844 0.06039 0.0
Ho120 Ho 0.70372 0.82268 0.38295 0.0
Ho121 Ho 0.65056 0.73626 0.39396 0.0
C122 C 0.74175 0.77084 0.36615 0.0
C123 C 0.74074 0.89827 0.3872 0.0
C124 C 0.77184 0.93583 0.37303 0.0
C125 C 0.80548 0.93979 0.35629 0.0
C126 C 0.83588 0.97698 0.34628 0.0
C127 C 0.8331 1.0107 0.35302 0.0
C128 C 0.79866 1.00609 0.36884 0.0
C129 C 0.76842 0.96907 0.37864 0.0
C130 C 0.66741 0.78114 0.32301 0.0
C131 C 0.61804 0.79221 0.41374 0.0
C132 C 0.60056 0.66236 0.38964 0.0
C133 C 0.55727 0.64049 0.39349 0.0
C134 C 0.53325 0.62118 0.36381 0.0
C135 C 0.49237 0.60182 0.36704 0.0
C136 C 0.47461 0.60118 0.40012 0.0
C137 C 0.49876 0.62058 0.42972 0.0
C138 C 0.53947 0.63995 0.42648 0.0
C139 C 0.69163 0.77435 0.45428 0.0
O140 O 0.74897 0.80683 0.37197 0.0
O141 O 0.7063 0.73945 0.37089 0.0
O142 O 0.70978 0.8783 0.36715 0.0
O143 O 0.75109 0.87616 0.40488 0.0
O144 O 0.70313 0.81013 0.32353 0.0
O145 O 0.65258 0.7773 0.3538 0.0
O146 O 0.6077 0.7579 0.39928 0.0
O147 O 0.65529 0.81797 0.41819 0.0
O148 O 0.62066 0.67904 0.4187 0.0
O149 O 0.61467 0.68489 0.36128 0.0
O150 O 0.65485 0.74773 0.45366 0.0
O151 O 0.70371 0.78028 0.42216 0.0
H152 H 0.80856 0.91436 0.35164 0.0
H153 H 0.86172 0.97935 0.33371 0.0
H154 H 0.7956 0.03121 0.37511 0.0
H155 H 0.74269 0.96655 0.3917 0.0
H156 H 0.54611 0.62121 0.33803 0.0
H157 H 0.47468 0.58684 0.34378 0.0
H158 H 0.4862 0.62125 0.45544 0.0
H159 H 0.55691 0.65481 0.4499 0.0
Ho160 Ho 0.21194 0.88916 0.36899 0.0
Ho161 Ho 0.29679 0.92962 0.39027 0.0
C162 C 0.25655 0.98284 0.37755 0.0
C163 C 0.13742 0.85571 0.3567 0.0
C164 C 0.09772 0.84989 0.36287 0.0
C165 C 0.06893 0.81415 0.37761 0.0
C166 C 0.02958 0.80412 0.37798 0.0
C167 C 1.0178 0.8296 0.36359 0.0
C168 C 0.04695 0.86619 0.35016 0.0
C169 C 0.08643 0.87614 0.34961 0.0
C170 C 0.2645 0.89938 0.31597 0.0
C171 C 0.24626 0.83704 0.39283 0.0
C172 C 0.37203 0.96101 0.39422 0.0
C173 C 0.39653 0.94406 0.40468 0.0
C174 C 0.37902 0.90545 0.4176 0.0
C175 C 0.40138 0.88735 0.42305 0.0
C176 C 0.4418 0.9075 0.41577 0.0
C177 C 0.45939 0.94661 0.40378 0.0
C178 C 0.43691 0.96463 0.39814 0.0
C179 C 0.24793 0.90971 0.44828 0.0
O180 O 0.22253 0.94981 0.37612 0.0
O181 O 0.29039 0.98323 0.38053 0.0
O182 O 0.16349 0.8861 0.33848 0.0
O183 O 0.15283 0.84447 0.38191 0.0
O184 O 0.23109 0.86773 0.31961 0.0
O185 O 0.26724 0.92289 0.33961 0.0
O186 O 0.28017 0.8662 0.38175 0.0
O187 O 0.21664 0.84265 0.39835 0.0
O188 O 0.35099 0.96451 0.41963 0.0
O189 O 0.35207 0.94637 0.36469 0.0
O190 O 0.27745 0.90394 0.44554 0.0
O191 O 0.24369 0.92194 0.41816 0.0
H192 H 0.07659 0.79296 0.38739 0.0
H193 H 1.00823 0.77551 0.38806 0.0
H194 H 0.03922 0.88696 0.33945 0.0
H195 H 0.10784 0.90378 0.33779 0.0
H196 H 0.34781 0.88894 0.4226 0.0
H197 H 0.38694 0.85744 0.43273 0.0
H198 H 0.49032 0.9629 0.39749 0.0
H199 H 0.45088 0.99423 0.38768 0.0
Ho200 Ho 0.15043 0.3404 0.38444 0.0
Ho201 Ho 0.09607 0.37281 0.38621 0.0
C202 C 0.05891 0.2839 0.36184 0.0
C203 C 0.19033 0.30503 0.39173 0.0
C204 C 0.19888 0.2749 0.37863 0.0
C205 C 0.16908 0.23752 0.36846 0.0
C206 C 0.17761 0.20753 0.36263 0.0
C207 C 0.216 0.21435 0.3671 0.0
C208 C 0.24604 0.25249 0.3751 0.0
C209 C 0.2375 0.28241 0.38083 0.0
C210 C 0.14588 0.37694 0.32339 0.0
C211 C 0.18653 0.42427 0.41071 0.0
C212 C 0.07047 0.42137 0.3819 0.0
C213 C 0.09142 0.46474 0.38448 0.0
C214 C 0.09502 0.48767 0.35415 0.0
C215 C 0.11626 0.52866 0.35611 0.0
C216 C 0.13414 0.54756 0.38853 0.0
C217 C 0.13061 0.52454 0.41875 0.0
C218 C 0.1096 0.48373 0.41677 0.0
C219 C 0.08775 0.3272 0.44245 0.0
O220 O 0.09251 0.2868 0.372 0.0
O221 O 0.05391 0.31485 0.36074 0.0
O222 O 0.20238 0.33679 0.3725 0.0
O223 O 0.15637 0.29328 0.40702 0.0
O224 O 0.17877 0.38207 0.33592 0.0
O225 O 0.11917 0.35353 0.34338 0.0
O226 O 0.15862 0.42425 0.39108 0.0
O227 O 0.18317 0.39092 0.42054 0.0
O228 O 0.06863 0.4023 0.41136 0.0
O229 O 0.07818 0.40679 0.35354 0.0
O230 O 0.05933 0.329 0.42692 0.0
O231 O 0.12079 0.35245 0.42945 0.0
H232 H 0.13905 0.23108 0.36646 0.0
H233 H 0.1539 0.17866 0.35579 0.0
H234 H 0.27581 0.25878 0.37906 0.0
H235 H 0.26088 0.31105 0.38885 0.0
H236 H 0.08153 0.47387 0.32886 0.0
H237 H 0.1181 0.54553 0.33242 0.0
H238 H 0.14447 0.5381 0.44398 0.0
H239 H 0.10796 0.46715 0.44061 0.0
Ho240 Ho 0.38616 0.15977 0.69406 0.0
Ho241 Ho 0.34335 0.07649 0.72105 0.0
C242 C 0.43456 0.11377 0.69873 0.0
C243 C 0.42696 0.23388 0.67922 0.0
C244 C 0.46282 0.2729 0.68193 0.0
C245 C 0.47553 0.29267 0.71499 0.0
C246 C 0.50459 0.33234 0.716 0.0
C247 C 0.52154 0.35323 0.684 0.0
C248 C 0.5097 0.33287 0.65112 0.0
C249 C 0.48072 0.2933 0.65014 0.0
C250 C 0.33827 0.10372 0.64573 0.0
C251 C 0.30143 0.12654 0.72339 0.0
C252 C 0.29877 1.00177 0.72898 0.0
C253 C 0.25548 0.97783 0.73242 0.0
C254 C 0.23079 0.97974 0.70612 0.0
C255 C 0.19008 0.95816 0.70993 0.0
C256 C 0.17275 0.93423 0.74027 0.0
C257 C 0.19754 0.93244 0.76663 0.0
C258 C 0.23837 0.95391 0.76269 0.0
C259 C 0.37915 0.12979 0.77485 0.0
O260 O 0.43551 0.14739 0.69293 0.0
O261 O 0.40251 0.08177 0.71021 0.0
O262 O 0.42671 0.20683 0.65864 0.0
O263 O 0.40483 0.21962 0.70779 0.0
O264 O 0.34113 0.13782 0.64766 0.0
O265 O 0.36088 0.10256 0.66831 0.0
O266 O 0.29586 0.09204 0.71353 0.0
O267 O 0.33697 0.15661 0.72592 0.0
O268 O 0.31766 0.02505 0.7558 0.0
O269 O 0.31202 0.01867 0.69786 0.0
O270 O 0.34342 0.10081 0.77557 0.0
O271 O 0.39248 0.13124 0.74362 0.0
H272 H 0.46212 0.27794 0.74001 0.0
H273 H 0.51338 0.34676 0.74188 0.0
H274 H 0.52157 0.34788 0.62585 0.0
H275 H 0.47101 0.27909 0.62423 0.0
H276 H 0.24283 0.99802 0.68246 0.0
H277 H 0.1722 0.9599 0.68872 0.0
H278 H 0.18548 0.91484 0.79063 0.0
H279 H 0.25662 0.95211 0.78351 0.0
Ho280 Ho 0.9022 0.23515 0.72597 0.0
Ho281 Ho 0.99027 0.28122 0.73371 0.0
C282 C 0.94817 0.32825 0.70717 0.0
C283 C 0.82689 0.20185 0.73104 0.0
C284 C 0.78867 0.19186 0.71527 0.0
C285 C 0.77709 0.22001 0.71104 0.0
C286 C 0.73822 0.20845 0.70265 0.0
C287 C 0.71016 0.16855 0.69865 0.0
C288 C 0.72227 0.14069 0.70132 0.0
C289 C 0.76107 0.15224 0.70957 0.0
C290 C 0.94495 0.23804 0.66674 0.0
C291 C 0.94062 0.18927 0.7521 0.0
C292 C 0.06371 0.30238 0.73349 0.0
C293 C 0.08502 0.28077 0.73038 0.0
C294 C 0.06705 0.24298 0.71557 0.0
C295 C 0.08638 0.22138 0.71564 0.0
C296 C 0.1241 0.23723 0.73044 0.0
C297 C 0.1423 0.27557 0.74435 0.0
C298 C 0.12285 0.29701 0.74444 0.0
C299 C 0.95207 0.2925 0.78747 0.0
O300 O 0.91439 0.29614 0.71421 0.0
O301 O 0.98238 0.32937 0.70937 0.0
O302 O 0.84502 0.1844 0.71813 0.0
O303 O 0.85074 0.23791 0.7413 0.0
O304 O 0.91183 0.20742 0.67495 0.0
O305 O 0.95112 0.26432 0.68849 0.0
O306 O 0.9714 0.21619 0.7344 0.0
O307 O 0.91331 0.19694 0.76173 0.0
O308 O 0.04312 0.29558 0.76295 0.0
O309 O 0.04488 0.30312 0.70479 0.0
O310 O 0.98549 0.31902 0.77482 0.0
O311 O 0.94146 0.25924 0.77344 0.0
H312 H 0.79757 0.25074 0.71567 0.0
H313 H 0.72976 0.23063 0.70105 0.0
H314 H 0.70153 0.10982 0.69789 0.0
H315 H 0.76909 0.12988 0.71307 0.0
H316 H 0.03783 0.22989 0.70449 0.0
H317 H 0.07135 0.19192 0.70493 0.0
H318 H 0.17163 0.2891 0.75525 0.0
H319 H 0.13719 0.32613 0.75596 0.0
Ho320 Ho 0.82495 0.672 0.71412 0.0
Ho321 Ho 0.79046 0.72422 0.723 0.0
C322 C 0.73482 0.63174 0.69835 0.0
C323 C 0.8642 0.63615 0.72249 0.0
C324 C 0.87 0.60291 0.71439 0.0
C325 C 0.88264 0.58811 0.74238 0.0
C326 C 0.89342 0.56006 0.73551 0.0
C327 C 0.89174 0.54612 0.70041 0.0
C328 C 0.87776 0.55998 0.67245 0.0
C329 C 0.86716 0.5884 0.67934 0.0
C330 C 0.81767 0.70439 0.6524 0.0
C331 C 0.88041 0.76049 0.73862 0.0
C332 C 0.7634 0.77196 0.72084 0.0
C333 C 0.78251 0.81534 0.72361 0.0
C334 C 0.80392 0.84018 0.69486 0.0
C335 C 0.82331 0.88103 0.69887 0.0
C336 C 0.82177 0.89807 0.73169 0.0
C337 C 0.80008 0.87305 0.76023 0.0
C338 C 0.78057 0.83238 0.75616 0.0
C339 C 0.7919 0.68742 0.78455 0.0
O340 O 0.76401 0.62539 0.70488 0.0
O341 O 0.73829 0.66711 0.70153 0.0
O342 O 0.87152 0.66199 0.69716 0.0
O343 O 0.83478 0.62995 0.74313 0.0
O344 O 0.8129 0.66941 0.65453 0.0
O345 O 0.82865 0.72119 0.68249 0.0
O346 O 0.85498 0.76893 0.72417 0.0
O347 O 0.87028 0.72383 0.74486 0.0
O348 O 0.76413 0.75385 0.75001 0.0
O349 O 0.77006 0.75726 0.69197 0.0
O350 O 0.80229 0.72414 0.78217 0.0
O351 O 0.78325 0.67278 0.75348 0.0
H352 H 0.88519 0.59906 0.76957 0.0
H353 H 0.90327 0.54939 0.75774 0.0
H354 H 0.87615 0.54974 0.64513 0.0
H355 H 0.85767 0.59961 0.65728 0.0
H356 H 0.80593 0.82814 0.6693 0.0
H357 H 0.83914 0.89921 0.67608 0.0
H358 H 0.7986 0.8848 0.78612 0.0
H359 H 0.76435 0.81418 0.77884 0.0
H360 H 0.32772 0.5465 1.0025 0.0
H361 H 0.1121 0.39876 0.07623 0.0
H362 H 0.30346 0.45086 0.07434 0.0
H363 H 0.14045 0.49147 0.9998 0.0
H364 H 0.18032 0.41276 0.07289 0.0
H365 H 0.25801 0.52344 0.99914 0.0
C366 C 0.30776 0.52049 1.01746 0.0
C367 C 0.32176 0.50068 1.03872 0.0
C368 C 0.17135 0.42952 0.05638 0.0
C369 C 0.24118 0.47408 1.0353 0.0
C370 C 0.13235 0.42117 0.05795 0.0
C371 C 0.12075 0.44396 1.03819 0.0
C372 C 0.19859 0.4608 1.03489 0.0
C373 C 0.14827 0.47328 1.01554 0.0
C374 C 0.26778 0.50733 1.01562 0.0
C375 C 0.2942 0.46748 0.05801 0.0
N376 N 0.18582 0.48102 1.01474 0.0
N377 N 0.25528 0.45527 0.0559 0.0
H378 H 0.53232 0.828 0.9887 0.0
H379 H 0.64939 0.73374 0.08275 0.0
H380 H 0.59709 0.87259 0.08744 0.0
H381 H 0.55804 0.6751 1.00399 0.0
H382 H 0.64105 0.79155 0.07789 0.0
H383 H 0.55225 0.77845 0.98688 0.0
C384 C 0.55107 0.82764 1.00979 0.0
C385 C 0.56266 0.85421 1.03846 0.0
C386 C 0.62319 0.76609 0.06144 0.0
C387 C 0.58555 0.79744 1.03666 0.0
C388 C 0.62814 0.73332 0.06405 0.0
C389 C 0.60415 0.6996 1.04397 0.0
C390 C 0.59454 0.7651 1.03817 0.0
C391 C 0.57683 0.70037 1.02029 0.0
C392 C 0.5623 0.79922 1.00886 0.0
C393 C 0.58687 0.8522 0.06518 0.0
N394 N 0.57274 0.73245 1.01811 0.0
N395 N 0.59739 0.82422 0.06372 0.0
H396 H 0.31132 0.93539 1.02692 0.0
H397 H 0.24883 0.71126 0.98963 0.0
H398 H 0.39184 0.89472 1.00225 0.0
H399 H 0.16859 0.74687 1.02925 0.0
H400 H 0.29968 0.77998 0.98556 0.0
H401 H 0.25667 0.86812 1.01917 0.0
C402 C 0.31746 0.9125 1.01937 0.0
C403 C 0.35618 0.92061 1.01557 0.0
C404 C 0.27086 0.77281 0.99489 0.0
C405 C 0.29412 0.84388 1.00676 0.0
C406 C 0.24182 0.73351 0.99732 0.0
C407 C 0.20439 0.72311 1.01008 0.0
C408 C 0.26261 0.80216 1.00539 0.0
C409 C 0.19689 0.75341 1.019 0.0
C410 C 0.28634 0.87412 1.01513 0.0
C411 C 0.3625 0.8898 1.00592 0.0
N412 N 0.22581 0.7915 1.01678 0.0
N413 N 0.33191 0.85292 1.00203 0.0
H414 H 0.52831 0.28285 0.99541 0.0
H415 H 0.54653 0.45946 0.1137 0.0
H416 H 0.47351 0.26879 0.09915 0.0
H417 H 0.61884 0.47821 1.02045 0.0
H418 H 0.52287 0.38952 0.11011 0.0
H419 H 0.56439 0.35391 1.00464 0.0
C420 C 0.52404 0.29458 1.02023 0.0
C421 C 0.49731 0.26963 1.04632 0.0
C422 C 0.54433 0.40879 0.09065 0.0
C423 C 0.53844 0.35104 0.05693 0.0
C424 C 0.55797 0.4488 0.0928 0.0
C425 C 0.58465 0.47458 0.06733 0.0
C426 C 0.5568 0.39408 0.06234 0.0
C427 C 0.59848 0.45926 1.04077 0.0
C428 C 0.54465 0.33519 1.02544 0.0
C429 C 0.49294 0.28672 0.07784 0.0
N430 N 0.5839 0.41983 1.03858 0.0
N431 N 0.51302 0.32619 0.0821 0.0
H432 H 0.57296 0.11375 0.12302 0.0
H433 H 0.76284 0.27301 1.01857 0.0
H434 H 0.56617 0.16179 1.02082 0.0
H435 H 0.76356 0.23475 0.12731 0.0
H436 H 0.69109 0.23699 1.01986 0.0
H437 H 0.64219 0.16263 0.12672 0.0
C438 C 0.58598 0.13524 0.10167 0.0
C439 C 0.56383 0.13371 0.07157 0.0
C440 C 0.707 0.23677 1.04351 0.0
C441 C 0.64379 0.18928 0.07499 0.0
C442 C 0.74803 0.25742 1.04285 0.0
C443 C 0.76952 0.25658 0.07272 0.0
C444 C 0.68721 0.21503 0.07424 0.0
C445 C 0.74848 0.23557 0.10329 0.0
C446 C 0.62564 0.16308 0.10367 0.0
C447 C 0.58219 0.16218 1.04462 0.0
N448 N 0.70871 0.21553 0.10313 0.0
N449 N 0.62133 0.18843 1.04664 0.0
H450 H 0.88398 0.42722 0.05592 0.0
H451 H 0.84391 0.59548 0.12895 0.0
H452 H 0.9586 0.51775 0.13047 0.0
H453 H 0.77419 0.51346 1.0462 0.0
H454 H 0.88088 0.56139 0.13541 0.0
H455 H 0.83784 0.45196 0.05797 0.0
C456 C 0.89028 0.45175 0.07324 0.0
C457 C 0.92536 0.47066 0.0928 0.0
C458 C 0.85736 0.55065 0.11594 0.0
C459 C 0.87309 0.49933 0.095 0.0
C460 C 0.83606 0.57005 0.11238 0.0
C461 C 0.80601 0.55758 0.08681 0.0
C462 C 0.84863 0.51837 0.09385 0.0
C463 C 0.79756 0.52459 0.06583 0.0
C464 C 0.86412 0.46606 0.07419 0.0
C465 C 0.93213 0.50248 0.11464 0.0
N466 N 0.81882 0.50625 0.06971 0.0
N467 N 0.90647 0.51592 0.11493 0.0
H468 H 0.76629 0.72411 0.39842 0.0
H469 H 0.97981 0.84521 0.30954 0.0
H470 H 0.79718 0.81198 0.31629 0.0
H471 H 0.95798 0.78446 0.41117 0.0
H472 H 0.91029 0.82377 0.30522 0.0
H473 H 0.83318 0.73453 0.39558 0.0
C474 C 0.78672 0.74457 0.37895 0.0
C475 C 0.7763 0.76719 0.3575 0.0
C476 C 0.92072 0.81504 0.32842 0.0
C477 C 0.85271 0.77976 0.35451 0.0
C478 C 0.96061 0.82766 0.33115 0.0
C479 C 0.97525 0.81708 0.36097 0.0
C480 C 0.89487 0.79134 0.35555 0.0
C481 C 0.94828 0.79318 0.38749 0.0
C482 C 0.82501 0.75092 0.37768 0.0
C483 C 0.8041 0.79388 0.3332 0.0
N484 N 0.90952 0.78122 0.38419 0.0
N485 N 0.84101 0.79961 0.33252 0.0
H486 H 0.28011 0.21203 0.33991 0.0
H487 H 0.19722 0.99074 0.40379 0.0
H488 H 0.17069 0.14142 0.39558 0.0
H489 H 0.311 0.05768 0.35447 0.0
H490 H 0.18912 0.04748 0.40139 0.0
H491 H 0.29352 0.15769 0.34447 0.0
C492 C 0.25887 0.18515 0.35299 0.0
C493 C 0.22399 0.18125 0.3671 0.0
C494 C 0.21602 0.05014 0.39111 0.0
C495 C 0.23927 0.1192 0.37246 0.0
C496 C 0.2207 1.01759 0.39246 0.0
C497 C 0.25472 0.01934 0.37895 0.0
C498 C 0.2454 0.08508 0.37583 0.0
C499 C 0.28432 0.05515 0.36516 0.0
C500 C 0.26658 0.1542 0.35556 0.0
C501 C 0.19752 0.14566 0.38357 0.0
N502 N 0.27883 0.08669 0.36361 0.0
N503 N 0.20574 0.11623 0.38577 0.0
H504 H 0.06197 0.21664 0.35577 0.0
H505 H 0.83179 0.07633 0.32919 0.0
H506 H 0.98152 0.26047 0.34766 0.0
H507 H 0.91141 0.03695 0.36192 0.0
H508 H 0.88693 0.14337 0.3259 0.0
H509 H 1.00786 0.15053 0.34744 0.0
C510 C 0.03292 0.21249 0.35197 0.0
C511 C 0.02632 0.24433 0.35281 0.0
C512 C 0.89228 0.11995 0.3335 0.0
C513 C 0.96384 0.16804 0.3433 0.0
C514 C 0.86082 0.08164 0.33552 0.0
C515 C 0.86674 0.05076 0.34624 0.0
C516 C 0.93005 0.1275 0.34198 0.0
C517 C 0.90524 0.05949 0.35323 0.0
C518 C 1.00196 0.17455 0.34725 0.0
C519 C 0.98798 0.23684 0.34735 0.0
N520 N 0.93528 0.09699 0.35119 0.0
N521 N 0.95808 0.19938 0.34308 0.0
H522 H 0.27701 0.79981 0.35316 0.0
H523 H 0.13127 0.59194 0.44357 0.0
H524 H 0.19772 0.78222 0.44035 0.0
H525 H 0.18552 0.6024 0.34017 0.0
H526 H 0.16521 0.66304 0.44804 0.0
H527 H 0.25393 0.72902 0.35364 0.0
C528 C 0.25548 0.78121 0.37291 0.0
C529 C 0.23908 0.79671 0.39666 0.0
C530 C 0.16988 0.64987 0.42439 0.0
C531 C 0.21249 0.71626 0.39722 0.0
C532 C 0.15063 0.60919 0.4219 0.0
C533 C 0.15543 0.59106 0.3914 0.0
C534 C 0.19435 0.67294 0.39624 0.0
C535 C 0.18055 0.61512 0.36396 0.0
C536 C 0.24204 0.74087 0.37294 0.0
C537 C 0.21092 0.77138 0.42141 0.0
N538 N 0.19905 0.65485 0.36699 0.0
N539 N 0.19846 0.73251 0.42096 0.0
H540 H 0.223 0.4876 0.36522 0.0
H541 H 0.4311 0.55602 0.45692 0.0
H542 H 0.23967 0.43976 0.46363 0.0
H543 H 0.41884 0.59726 0.35277 0.0
H544 H 0.36022 0.52045 0.46337 0.0
H545 H 0.29334 0.5359 0.36445 0.0
C546 C 0.24122 0.48804 0.38723 0.0
C547 C 0.22557 0.45958 0.41448 0.0
C548 C 0.37292 0.53742 0.43914 0.0
C549 C 0.30592 0.514 0.4134 0.0
C550 C 0.41354 0.55795 0.43549 0.0
C551 C 0.43116 0.57973 0.40421 0.0
C552 C 0.34934 0.53841 0.4113 0.0
C553 C 0.4066 0.58045 0.37714 0.0
C554 C 0.28143 0.51527 0.38654 0.0
C555 C 0.25059 0.46106 0.44202 0.0
N556 N 0.36697 0.56 0.38126 0.0
N557 N 0.28945 0.48748 0.44059 0.0
H558 H 0.42123 0.83219 0.39676 0.0
H559 H 0.62977 0.85792 0.44892 0.0
H560 H 0.51607 0.93706 0.44303 0.0
H561 H 0.5401 0.75583 0.39436 0.0
H562 H 0.58531 0.88372 0.45289 0.0
H563 H 0.4612 0.80084 0.40098 0.0
C564 C 0.4503 0.84854 0.40816 0.0
C565 C 0.46527 0.88748 0.41948 0.0
C566 C 0.57512 0.85552 0.44029 0.0
C567 C 0.51138 0.85167 0.42414 0.0
C568 C 0.60051 0.84061 0.43812 0.0
C569 C 0.58883 0.80467 0.42105 0.0
C570 C 0.53758 0.83454 0.42518 0.0
C571 C 0.55041 0.78364 0.40775 0.0
C572 C 0.47319 0.83063 0.41037 0.0
C573 C 0.5034 0.90725 0.43351 0.0
N574 N 0.52628 0.79904 0.40981 0.0
N575 N 0.52506 0.88919 0.43538 0.0
H576 H 0.6777 0.20116 0.6555 0.0
H577 H 0.45995 0.06757 0.73166 0.0
H578 H 0.64677 0.1073 0.7315 0.0
H579 H 0.49457 0.16166 0.65516 0.0
H580 H 0.52627 0.0766 0.72812 0.0
H581 H 0.60891 0.18276 0.65158 0.0
C582 C 0.6564 0.17661 0.6713 0.0
C583 C 0.66808 0.1559 0.69397 0.0
C584 C 0.5191 0.09493 0.71186 0.0
C585 C 0.589 0.13449 0.68966 0.0
C586 C 0.48125 0.08961 0.71374 0.0
C587 C 0.47192 0.11416 0.69398 0.0
C588 C 0.54749 0.12487 0.68997 0.0
C589 C 0.50063 0.14244 0.6713 0.0
C590 C 0.61704 0.16594 0.66896 0.0
C591 C 0.63905 0.1239 0.71343 0.0
N592 N 0.53704 0.14715 0.67012 0.0
N593 N 0.6009 0.11437 0.71106 0.0
H594 H 1.00323 0.40544 0.71856 0.0
H595 H 0.85584 0.47967 0.65917 0.0
H596 H 0.88845 0.3311 0.67388 0.0
H597 H 0.95724 0.54701 0.72592 0.0
H598 H 0.87464 0.42948 0.65314 0.0
H599 H 0.99391 0.46209 0.71024 0.0
C600 C 0.97648 0.4012 0.70634 0.0
C601 C 0.94643 0.36358 0.69722 0.0
C602 C 0.89295 0.45541 0.66887 0.0
C603 C 0.93549 0.42781 0.68777 0.0
C604 C 0.88232 0.48413 0.67215 0.0
C605 C 0.90469 0.51727 0.69349 0.0
C606 C 0.9263 0.45995 0.68689 0.0
C607 C 0.93871 0.52148 0.70982 0.0
C608 C 0.97103 0.4334 0.70183 0.0
C609 C 0.91218 0.35958 0.68171 0.0
N610 N 0.94834 0.49304 0.70639 0.0
N611 N 0.90756 0.3912 0.67768 0.0
H612 H 0.72245 0.58168 0.64413 0.0
H613 H 0.52244 0.41038 0.7276 0.0
H614 H 0.66395 0.60049 0.73313 0.0
H615 H 0.58676 0.39473 0.64149 0.0
H616 H 0.56989 0.4807 0.72726 0.0
H617 H 0.66777 0.51495 0.63821 0.0
C618 C 0.69736 0.57199 0.66174 0.0
C619 C 0.69737 0.59672 0.68878 0.0
C620 C 0.57347 0.46186 0.70835 0.0
C621 C 0.63517 0.51953 0.68332 0.0
C622 C 0.54659 0.42156 0.70874 0.0
C623 C 0.55049 0.39623 0.68461 0.0
C624 C 0.60461 0.47716 0.68365 0.0
C625 C 0.58206 0.41286 0.66034 0.0
C626 C 0.66632 0.5337 0.65867 0.0
C627 C 0.66461 0.58253 0.71145 0.0
N628 N 0.60779 0.45204 0.66058 0.0
N629 N 0.63498 0.54464 0.70852 0.0
H630 H 0.79697 0.94117 0.76997 0.0
H631 H 0.97282 0.15209 0.71387 0.0
H632 H 0.89304 0.95486 0.70387 0.0
H633 H 0.88617 0.13175 0.79473 0.0
H634 H 0.94667 0.08094 0.71028 0.0
H635 H 0.8306 1.01154 0.77879 0.0
C636 C 0.82534 0.95883 0.75752 0.0
C637 C 0.84214 0.9416 0.73633 0.0
C638 C 0.9338 0.0922 0.72913 0.0
C639 C 0.8809 0.02327 0.74589 0.0
C640 C 0.94893 0.13282 0.73141 0.0
C641 C 0.93148 0.14795 0.75445 0.0
C642 C 0.90098 0.06669 0.74996 0.0
C643 C 0.90036 0.12151 0.77632 0.0
C644 C 0.84455 0.99928 0.76248 0.0
C645 C 0.87862 0.96665 0.72014 0.0
N646 N 0.88595 0.08238 0.77325 0.0
N647 N 0.89672 1.00617 0.72517 0.0
H648 H 0.92096 0.83706 0.71406 0.0
H649 H 0.12789 0.86038 0.76881 0.0
H650 H 0.93525 0.75259 0.77625 0.0
H651 H 0.11745 0.95409 0.7199 0.0
H652 H 0.05691 0.82174 0.77288 0.0
H653 H 0.99209 0.88189 0.71739 0.0
C654 C 0.93886 0.82817 0.72888 0.0
C655 C 0.92201 0.79083 0.74466 0.0
C656 C 0.07007 0.85084 0.7614 0.0
C657 C 1.00336 0.84163 0.74813 0.0
C658 C 0.11082 0.87313 0.75925 0.0
C659 C 0.12911 0.91076 0.74393 0.0
C660 C 0.04696 0.86591 0.74793 0.0
C661 C 0.1049 0.92505 0.73137 0.0
C662 C 0.97949 0.85367 0.73061 0.0
C663 C 0.94678 0.78086 0.76335 0.0
N664 N 0.06518 0.9026 0.73348 0.0
N665 N 0.986 0.80586 0.76428 0.0
H666 H 0.2979 0.17385 0.77384 0.0
H667 H 0.12442 0.18619 0.67983 0.0
H668 H 0.23129 0.09611 0.68749 0.0
H669 H 0.16977 0.23463 0.78472 0.0
H670 H 0.16128 0.15141 0.68202 0.0
H671 H 0.24954 0.19477 0.77875 0.0
C672 C 0.27263 0.16074 0.75626 0.0
C673 C 0.26852 0.13334 0.73018 0.0
C674 C 0.16281 0.16938 0.70466 0.0
C675 C 0.21341 0.15788 0.73495 0.0
C676 C 0.14174 0.18924 0.70348 0.0
C677 C 0.1444 0.21397 0.73191 0.0
C678 C 0.18694 0.1745 0.73434 0.0
C679 C 0.16759 0.21686 0.76171 0.0
C680 C 0.24501 0.1727 0.75903 0.0
C681 C 0.23529 0.11719 0.70808 0.0
N682 N 0.18817 0.19773 0.76196 0.0
N683 N 0.20924 0.13023 0.71051 0.0
H684 H 0.07564 0.35855 0.29712 0.0
H685 H 0.12318 0.47472 0.1258 0.0
H686 H 0.19813 0.44289 0.28308 0.0
H687 H 1.02536 0.45592 0.19132 0.0
H688 H 0.15602 0.46894 0.17951 0.0
H689 H 0.05904 0.39397 0.25427 0.0
C690 C 0.09925 0.38474 0.28503 0.0
C691 C 0.13838 0.3981 0.2943 0.0
C692 C 0.1283 0.46809 0.18245 0.0
C693 C 0.11921 0.4387 0.24396 0.0
C694 C 0.10969 0.47183 0.15189 0.0
C695 C 0.07158 0.46596 0.15427 0.0
C696 C 0.108 0.45734 0.21521 0.0
C697 C 0.05486 0.46104 0.18842 0.0
C698 C 0.08959 0.40519 0.26072 0.0
C699 C 0.16757 0.43172 0.27685 0.0
N700 N 0.07263 0.45558 0.21743 0.0
N701 N 0.15741 0.45074 0.25196 0.0
H702 H 0.59106 0.73286 0.30253 0.0
H703 H 0.63571 0.59214 0.18609 0.0
H704 H 0.70876 0.75817 0.281 0.0
H705 H 0.55892 0.62935 0.14075 0.0
H706 H 0.64915 0.63683 0.2365 0.0
H707 H 0.56684 0.68044 0.25671 0.0
C708 C 0.61172 0.7274 0.28813 0.0
C709 C 0.65199 0.7501 0.29518 0.0
C710 C 0.62875 0.63456 0.21584 0.0
C711 C 0.62451 0.68973 0.24419 0.0
C712 C 0.62075 0.60884 0.18713 0.0
C713 C 0.59648 0.60725 0.15871 0.0
C714 C 0.61164 0.65825 0.21685 0.0
C715 C 0.57793 0.6297 0.16192 0.0
C716 C 0.59791 0.69761 0.26215 0.0
C717 C 0.67756 0.7417 0.27607 0.0
N718 N 0.58608 0.65452 0.19036 0.0
N719 N 0.66337 0.71193 0.25179 0.0
H720 H 0.45341 0.03502 0.16969 0.0
H721 H 0.26483 0.85373 0.25963 0.0
H722 H 0.37389 0.93057 0.11191 0.0
H723 H 0.33078 0.96899 0.30594 0.0
H724 H 0.31321 0.8748 0.21047 0.0
H725 H 0.41936 1.00352 0.22592 0.0
C726 C 0.43004 1.00478 0.16915 0.0
C727 C 0.4166 0.98513 0.13636 0.0
C728 C 0.31731 0.8952 0.23177 0.0
C729 C 0.37642 0.94953 0.19996 0.0
C730 C 0.28966 0.88321 0.25969 0.0
C731 C 0.29381 0.90959 0.28691 0.0
C732 C 0.34932 0.93375 0.23129 0.0
C733 C 0.32655 0.9475 0.28571 0.0
C734 C 0.41008 0.987 0.20109 0.0
C735 C 0.38529 0.94644 0.13687 0.0
N736 N 0.35285 0.95843 0.25842 0.0
N737 N 0.36586 0.93007 0.16803 0.0
H738 H 0.40737 0.02723 0.95578 0.0
H739 H 0.45619 0.14704 0.77826 0.0
H740 H 0.52964 0.1062 0.93378 0.0
H741 H 0.35684 0.12164 0.84504 0.0
H742 H 0.48658 0.13319 0.8298 0.0
H743 H 0.38988 0.05826 0.90916 0.0
C744 C 0.43078 0.05128 0.94109 0.0
C745 C 0.47015 0.06447 0.94931 0.0
C746 C 0.4587 0.13184 0.83334 0.0
C747 C 0.44983 0.10024 0.89466 0.0
C748 C 0.44134 0.13994 0.80402 0.0
C749 C 0.4035 0.13494 0.80718 0.0
C750 C 0.43782 0.11828 0.86573 0.0
C751 C 0.38574 0.12547 0.8412 0.0
C752 C 0.42061 0.06918 0.91446 0.0
C753 C 0.49893 0.09522 0.92848 0.0
N754 N 0.40262 0.11667 0.86879 0.0
N755 N 0.48819 0.11207 0.90179 0.0
H756 H 0.95488 0.45223 0.94376 0.0
H757 H 0.93627 0.25851 0.85423 0.0
H758 H 0.99834 0.38034 0.98843 0.0
H759 H 0.93399 0.34958 0.79215 0.0
H760 H 0.93531 0.29198 0.9096 0.0
H761 H 0.92737 0.40586 0.89283 0.0
C762 C 0.95801 0.4265 0.94323 0.0
C763 C 0.97852 0.41993 0.97063 0.0
C764 C 0.93373 0.30399 0.88383 0.0
C765 C 0.94664 0.3667 0.91342 0.0
C766 C 0.93361 0.28448 0.85232 0.0
C767 C 0.93511 0.30136 0.81881 0.0
C768 C 0.93552 0.34053 0.88157 0.0
C769 C 0.93272 0.3357 0.81769 0.0
C770 C 0.94222 0.40002 0.91437 0.0
C771 C 0.98196 0.38621 0.96852 0.0
N772 N 0.93372 0.35458 0.8486 0.0
N773 N 0.96627 0.36103 0.9406 0.0
H774 H 0.80391 0.71363 0.85345 0.0
H775 H 0.60852 0.53137 0.93425 0.0
H776 H 0.73174 0.61095 0.78986 0.0
H777 H 0.67011 0.64796 0.97851 0.0
H778 H 0.6576 0.55355 0.88515 0.0
H779 H 0.76114 0.68237 0.90498 0.0
C780 C 0.77942 0.68416 0.85055 0.0
C781 C 0.77123 0.66507 0.81727 0.0
C782 C 0.66035 0.57397 0.90594 0.0
C783 C 0.72124 0.6292 0.87606 0.0
C784 C 0.63238 0.56136 0.93382 0.0
C785 C 0.63542 0.58772 0.96072 0.0
C786 C 0.69151 0.61298 0.90543 0.0
C787 C 0.66678 0.62633 0.95879 0.0
C788 C 0.75475 0.66636 0.87991 0.0
C789 C 0.73908 0.62675 0.81509 0.0
N790 N 0.69342 0.63762 0.93189 0.0
N791 N 0.71486 0.61022 0.84396 0.0
H792 H 0.70031 0.79913 0.52482 0.0
H793 H 0.78334 0.6656 0.59035 0.0
H794 H 0.73678 0.74099 0.44917 0.0
H795 H 0.82263 0.77611 0.64354 0.0
H796 H 0.75684 0.68716 0.54149 0.0
H797 H 0.73594 0.78626 0.57279 0.0
C798 C 0.71629 0.78425 0.51827 0.0
C799 C 0.71617 0.7716 0.48298 0.0
C800 C 0.77123 0.70667 0.5639 0.0
C801 C 0.75537 0.75556 0.53746 0.0
C802 C 0.7864 0.69443 0.59178 0.0
C803 C 0.80447 0.71877 0.62149 0.0
C804 C 0.77338 0.74323 0.56598 0.0
C805 C 0.8078 0.75595 0.62169 0.0
C806 C 0.73651 0.77691 0.54551 0.0
C807 C 0.73673 0.7518 0.47591 0.0
N808 N 0.7918 0.76687 0.59468 0.0
N809 N 0.75495 0.74388 0.50293 0.0
H810 H 0.22297 0.96325 0.45637 0.0
H811 H 0.34649 0.04065 0.63594 0.0
H812 H 0.26848 0.90118 0.51645 0.0
H813 H 0.28389 0.09525 0.59313 0.0
H814 H 0.31394 0.9878 0.59338 0.0
H815 H 0.23855 1.00842 0.50706 0.0
C816 C 0.23514 0.95833 0.48059 0.0
C817 C 0.24502 0.92862 0.48186 0.0
C818 C 0.30674 1.01092 0.59327 0.0
C819 C 0.26349 0.98073 0.53976 0.0
C820 C 0.32532 0.04127 0.61784 0.0
C821 C 0.31747 0.07226 0.61867 0.0
C822 C 0.28048 1.01152 0.56824 0.0
C823 C 0.29069 0.07186 0.59354 0.0
C824 C 0.24431 0.98441 0.50945 0.0
C825 C 0.26069 0.92379 0.51403 0.0
N826 N 0.27331 0.04205 0.56907 0.0
N827 N 0.26998 0.94989 0.54133 0.0
H828 H 1.00876 0.30623 0.64923 0.0
H829 H 0.03344 0.25193 0.45378 0.0
H830 H 0.94037 0.18705 0.61234 0.0
H831 H 0.12208 0.35424 0.5083 0.0
H832 H 1.00313 0.22339 0.51178 0.0
H833 H 0.05293 0.32108 0.59919 0.0
C834 C 1.00339 0.28276 0.63092 0.0
C835 C 0.97106 0.24505 0.63551 0.0
C836 C 0.02994 0.25148 0.51129 0.0
C837 C 1.02136 0.26264 0.57641 0.0
C838 C 0.04744 0.26763 0.47821 0.0
C839 C 0.08026 0.3054 0.47642 0.0
C840 C 0.04486 0.27376 0.54265 0.0
C841 C 0.09699 0.32487 0.50863 0.0
C842 C 0.02878 0.29143 0.6021 0.0
C843 C 0.96499 0.21646 0.6099 0.0
N844 N 0.07855 0.30921 0.54042 0.0
N845 N 0.98967 0.22601 0.58103 0.0
loop_
_geom_bond_atom_site_label_1
_geom_bond_atom_site_label_2
_geom_bond_distance
_geom_bond_site_symmetry_2
_ccdc_geom_bond_type
Ho0 C3 2.811 . S
Ho0 O20 2.322 . S
Ho0 O22 2.378 . S
Ho0 O23 2.524 1_556 S
Ho0 O24 2.381 . S
Ho0 O25 2.669 1_455 S
Ho0 O27 2.346 1_456 S
Ho0 O31 2.305 1_556 S
Ho1 C12 2.811 . S
Ho1 O21 2.346 1_655 S
Ho1 O25 2.305 1_554 S
Ho1 O26 2.322 . S
Ho1 O28 2.378 . S
Ho1 O29 2.524 1_554 S
Ho1 O30 2.381 . S
Ho1 O31 2.669 1_655 S
C2 O20 1.259 . S
C2 O21 1.268 1_556 S
C3 Ho0 2.811 . S
C3 C4 1.488 . S
C3 O22 1.215 . S
C3 O23 1.289 1_556 S
C4 C3 1.488 . S
C4 C5 1.348 1_556 S
C4 C9 1.413 . S
C5 C4 1.348 1_554 S
C5 C6 1.442 . S
C5 H32 0.930 . S
C6 C5 1.442 . S
C6 C7 1.381 1_554 S
C6 H33 0.931 . S
C7 C6 1.381 1_556 S
C7 C8 1.321 . S
C8 C7 1.321 . S
C8 C9 1.403 . S
C8 H34 0.934 . S
C9 C4 1.413 . S
C9 C8 1.403 . S
C9 H35 0.930 . S
C10 O24 1.275 1_655 S
C10 O25 1.256 . S
C11 O26 1.259 . S
C11 O27 1.268 . S
C12 Ho1 2.811 . S
C12 C13 1.488 . S
C12 O28 1.215 . S
C12 O29 1.289 1_554 S
C13 C12 1.488 . S
C13 C14 1.348 1_554 S
C13 C18 1.413 . S
C14 C13 1.348 1_556 S
C14 C15 1.442 . S
C14 H36 0.930 . S
C15 C14 1.442 . S
C15 C16 1.381 1_556 S
C15 H37 0.931 . S
C16 C15 1.381 1_554 S
C16 C17 1.321 . S
C17 C16 1.321 . S
C17 C18 1.403 . S
C17 H38 0.934 . S
C18 C13 1.413 . S
C18 C17 1.403 . S
C18 H39 0.930 . S
C19 O30 1.275 1_455 S
C19 O31 1.256 . S
O20 Ho0 2.322 . S
O20 C2 1.259 . S
O21 Ho1 2.346 1_455 S
O21 C2 1.268 1_554 S
O22 Ho0 2.378 . S
O22 C3 1.215 . S
O23 Ho0 2.524 1_554 S
O23 C3 1.289 1_554 S
O24 Ho0 2.381 . S
O24 C10 1.275 1_455 S
O25 Ho0 2.669 1_655 S
O25 Ho1 2.305 1_556 S
O25 C10 1.256 . S
O26 Ho1 2.322 . S
O26 C11 1.259 . S
O27 Ho0 2.346 1_654 S
O27 C11 1.268 . S
O28 Ho1 2.378 . S
O28 C12 1.215 . S
O29 Ho1 2.524 1_556 S
O29 C12 1.289 1_556 S
O30 Ho1 2.381 . S
O30 C19 1.275 1_655 S
O31 Ho0 2.305 1_554 S
O31 Ho1 2.669 1_455 S
O31 C19 1.256 . S
H32 C5 0.930 . S
H33 C6 0.931 . S
H34 C8 0.934 . S
H35 C9 0.930 . S
H36 C14 0.930 . S
H37 C15 0.931 . S
H38 C17 0.934 . S
H39 C18 0.930 . S
Ho40 C43 2.811 . S
Ho40 O60 2.322 . S
Ho40 O62 2.378 . S
Ho40 O63 2.524 1_556 S
Ho40 O64 2.381 . S
Ho40 O65 2.669 . S
Ho40 O67 2.346 1_556 S
Ho40 O71 2.305 1_556 S
Ho41 C52 2.811 . S
Ho41 O61 2.346 . S
Ho41 O65 2.305 1_554 S
Ho41 O66 2.322 . S
Ho41 O68 2.378 . S
Ho41 O69 2.524 1_554 S
Ho41 O70 2.381 . S
Ho41 O71 2.669 . S
C42 O60 1.259 . S
C42 O61 1.268 1_556 S
C43 Ho40 2.811 . S
C43 C44 1.488 . S
C43 O62 1.215 . S
C43 O63 1.289 1_556 S
C44 C43 1.488 . S
C44 C45 1.348 1_556 S
C44 C49 1.413 . S
C45 C44 1.348 1_554 S
C45 C46 1.442 . S
C45 H72 0.930 . S
C46 C45 1.442 . S
C46 C47 1.381 1_554 S
C46 H73 0.931 . S
C47 C46 1.381 1_556 S
C47 C48 1.321 . S
C48 C47 1.321 . S
C48 C49 1.403 . S
C48 H74 0.934 . S
C49 C44 1.413 . S
C49 C48 1.403 . S
C49 H75 0.930 . S
C50 O64 1.275 . S
C50 O65 1.256 . S
C51 O66 1.259 . S
C51 O67 1.268 . S
C52 Ho41 2.811 . S
C52 C53 1.488 . S
C52 O68 1.215 . S
C52 O69 1.289 1_554 S
C53 C52 1.488 . S
C53 C54 1.348 1_554 S
C53 C58 1.413 . S
C54 C53 1.348 1_556 S
C54 C55 1.442 . S
C54 H76 0.930 . S
C55 C54 1.442 . S
C55 C56 1.381 1_556 S
C55 H77 0.931 . S
C56 C55 1.381 1_554 S
C56 C57 1.321 . S
C57 C56 1.321 . S
C57 C58 1.403 . S
C57 H78 0.934 . S
C58 C53 1.413 . S
C58 C57 1.403 . S
C58 H79 0.930 . S
C59 O70 1.275 . S
C59 O71 1.256 . S
O60 Ho40 2.322 . S
O60 C42 1.259 . S
O61 Ho41 2.346 . S
O61 C42 1.268 1_554 S
O62 Ho40 2.378 . S
O62 C43 1.215 . S
O63 Ho40 2.524 1_554 S
O63 C43 1.289 1_554 S
O64 Ho40 2.381 . S
O64 C50 1.275 . S
O65 Ho40 2.669 . S
O65 Ho41 2.305 1_556 S
O65 C50 1.256 . S
O66 Ho41 2.322 . S
O66 C51 1.259 . S
O67 Ho40 2.346 1_554 S
O67 C51 1.268 . S
O68 Ho41 2.378 . S
O68 C52 1.215 . S
O69 Ho41 2.524 1_556 S
O69 C52 1.289 1_556 S
O70 Ho41 2.381 . S
O70 C59 1.275 . S
O71 Ho40 2.305 1_554 S
O71 Ho41 2.669 . S
O71 C59 1.256 . S
H72 C45 0.930 . S
H73 C46 0.931 . S
H74 C48 0.934 . S
H75 C49 0.930 . S
H76 C54 0.930 . S
H77 C55 0.931 . S
H78 C57 0.934 . S
H79 C58 0.930 . S
Ho80 C83 2.811 . S
Ho80 O100 2.322 . S
Ho80 O102 2.378 . S
Ho80 O103 2.524 1_556 S
Ho80 O104 2.381 . S
Ho80 O105 2.669 1_565 S
Ho80 O107 2.346 1_566 S
Ho80 O111 2.305 1_556 S
Ho81 C92 2.811 . S
Ho81 O101 2.346 1_545 S
Ho81 O105 2.305 1_554 S
Ho81 O106 2.322 . S
Ho81 O108 2.378 . S
Ho81 O109 2.524 1_554 S
Ho81 O110 2.381 . S
Ho81 O111 2.669 1_545 S
C82 O100 1.259 . S
C82 O101 1.268 1_556 S
C83 Ho80 2.811 . S
C83 C84 1.488 . S
C83 O102 1.215 . S
C83 O103 1.289 1_556 S
C84 C83 1.488 . S
C84 C85 1.348 1_556 S
C84 C89 1.413 . S
C85 C84 1.348 1_554 S
C85 C86 1.442 . S
C85 H112 0.930 . S
C86 C85 1.442 . S
C86 C87 1.381 1_554 S
C86 H113 0.931 . S
C87 C86 1.381 1_556 S
C87 C88 1.321 . S
C88 C87 1.321 . S
C88 C89 1.403 . S
C88 H114 0.934 . S
C89 C84 1.413 . S
C89 C88 1.403 . S
C89 H115 0.930 . S
C90 O104 1.275 1_545 S
C90 O105 1.256 . S
C91 O106 1.259 . S
C91 O107 1.268 . S
C92 Ho81 2.811 . S
C92 C93 1.488 . S
C92 O108 1.215 . S
C92 O109 1.289 1_554 S
C93 C92 1.488 . S
C93 C94 1.348 1_554 S
C93 C98 1.413 . S
C94 C93 1.348 1_556 S
C94 C95 1.442 . S
C94 H116 0.930 . S
C95 C94 1.442 . S
C95 C96 1.381 1_556 S
C95 H117 0.931 . S
C96 C95 1.381 1_554 S
C96 C97 1.321 . S
C97 C96 1.321 . S
C97 C98 1.403 . S
C97 H118 0.934 . S
C98 C93 1.413 . S
C98 C97 1.403 . S
C98 H119 0.930 . S
C99 O110 1.275 1_565 S
C99 O111 1.256 . S
O100 Ho80 2.322 . S
O100 C82 1.259 . S
O101 Ho81 2.346 1_565 S
O101 C82 1.268 1_554 S
O102 Ho80 2.378 . S
O102 C83 1.215 . S
O103 Ho80 2.524 1_554 S
O103 C83 1.289 1_554 S
O104 Ho80 2.381 . S
O104 C90 1.275 1_565 S
O105 Ho80 2.669 1_545 S
O105 Ho81 2.305 1_556 S
O105 C90 1.256 . S
O106 Ho81 2.322 . S
O106 C91 1.259 . S
O107 Ho80 2.346 1_544 S
O107 C91 1.268 . S
O108 Ho81 2.378 . S
O108 C92 1.215 . S
O109 Ho81 2.524 1_556 S
O109 C92 1.289 1_556 S
O110 Ho81 2.381 . S
O110 C99 1.275 1_545 S
O111 Ho80 2.305 1_554 S
O111 Ho81 2.669 1_565 S
O111 C99 1.256 . S
H112 C85 0.930 . S
H113 C86 0.931 . S
H114 C88 0.934 . S
H115 C89 0.930 . S
H116 C94 0.930 . S
H117 C95 0.931 . S
H118 C97 0.934 . S
H119 C98 0.930 . S
Ho120 C123 2.811 . S
Ho120 O140 2.322 . S
Ho120 O142 2.378 . S
Ho120 O143 2.524 . S
Ho120 O144 2.381 . S
Ho120 O145 2.669 . S
Ho120 O147 2.346 . S
Ho120 O151 2.305 . S
Ho121 C132 2.811 . S
Ho121 O141 2.346 . S
Ho121 O145 2.305 . S
Ho121 O146 2.322 . S
Ho121 O148 2.378 . S
Ho121 O149 2.524 . S
Ho121 O150 2.381 . S
Ho121 O151 2.669 . S
C122 O140 1.259 . S
C122 O141 1.268 . S
C123 Ho120 2.811 . S
C123 C124 1.488 . S
C123 O142 1.215 . S
C123 O143 1.289 . S
C124 C123 1.488 . S
C124 C125 1.348 . S
C124 C129 1.413 . S
C125 C124 1.348 . S
C125 C126 1.442 . S
C125 H152 0.930 . S
C126 C125 1.442 . S
C126 C127 1.381 . S
C126 H153 0.931 . S
C127 C126 1.381 . S
C127 C128 1.321 . S
C128 C127 1.321 . S
C128 C129 1.403 . S
C128 H154 0.934 1_565 S
C129 C124 1.413 . S
C129 C128 1.403 . S
C129 H155 0.930 . S
C130 O144 1.275 . S
C130 O145 1.256 . S
C131 O146 1.259 . S
C131 O147 1.268 . S
C132 Ho121 2.811 . S
C132 C133 1.488 . S
C132 O148 1.215 . S
C132 O149 1.289 . S
C133 C132 1.488 . S
C133 C134 1.348 . S
C133 C138 1.413 . S
C134 C133 1.348 . S
C134 C135 1.442 . S
C134 H156 0.930 . S
C135 C134 1.442 . S
C135 C136 1.381 . S
C135 H157 0.931 . S
C136 C135 1.381 . S
C136 C137 1.321 . S
C137 C136 1.321 . S
C137 C138 1.403 . S
C137 H158 0.934 . S
C138 C133 1.413 . S
C138 C137 1.403 . S
C138 H159 0.930 . S
C139 O150 1.275 . S
C139 O151 1.256 . S
O140 Ho120 2.322 . S
O140 C122 1.259 . S
O141 Ho121 2.346 . S
O141 C122 1.268 . S
O142 Ho120 2.378 . S
O142 C123 1.215 . S
O143 Ho120 2.524 . S
O143 C123 1.289 . S
O144 Ho120 2.381 . S
O144 C130 1.275 . S
O145 Ho120 2.669 . S
O145 Ho121 2.305 . S
O145 C130 1.256 . S
O146 Ho121 2.322 . S
O146 C131 1.259 . S
O147 Ho120 2.346 . S
O147 C131 1.268 . S
O148 Ho121 2.378 . S
O148 C132 1.215 . S
O149 Ho121 2.524 . S
O149 C132 1.289 . S
O150 Ho121 2.381 . S
O150 C139 1.275 . S
O151 Ho120 2.305 . S
O151 Ho121 2.669 . S
O151 C139 1.256 . S
H152 C125 0.930 . S
H153 C126 0.931 . S
H154 C128 0.934 1_545 S
H155 C129 0.930 . S
H156 C134 0.930 . S
H157 C135 0.931 . S
H158 C137 0.934 . S
H159 C138 0.930 . S
Ho160 C163 2.811 . S
Ho160 O180 2.322 . S
Ho160 O182 2.378 . S
Ho160 O183 2.524 . S
Ho160 O184 2.381 . S
Ho160 O185 2.669 . S
Ho160 O187 2.346 . S
Ho160 O191 2.305 . S
Ho161 C172 2.811 . S
Ho161 O181 2.346 . S
Ho161 O185 2.305 . S
Ho161 O186 2.322 . S
Ho161 O188 2.378 . S
Ho161 O189 2.524 . S
Ho161 O190 2.381 . S
Ho161 O191 2.669 . S
C162 O180 1.259 . S
C162 O181 1.268 . S
C163 Ho160 2.811 . S
C163 C164 1.488 . S
C163 O182 1.215 . S
C163 O183 1.289 . S
C164 C163 1.488 . S
C164 C165 1.348 . S
C164 C169 1.413 . S
C165 C164 1.348 . S
C165 C166 1.442 . S
C165 H192 0.930 . S
C166 C165 1.442 . S
C166 C167 1.381 . S
C166 H193 0.931 . S
C167 C166 1.381 . S
C167 C168 1.321 . S
C168 C167 1.321 . S
C168 C169 1.403 . S
C168 H194 0.934 . S
C169 C164 1.413 . S
C169 C168 1.403 . S
C169 H195 0.930 . S
C170 O184 1.275 . S
C170 O185 1.256 . S
C171 O186 1.259 . S
C171 O187 1.268 . S
C172 Ho161 2.811 . S
C172 C173 1.488 . S
C172 O188 1.215 . S
C172 O189 1.289 . S
C173 C172 1.488 . S
C173 C174 1.348 . S
C173 C178 1.413 . S
C174 C173 1.348 . S
C174 C175 1.442 . S
C174 H196 0.930 . S
C175 C174 1.442 . S
C175 C176 1.381 . S
C175 H197 0.931 . S
C176 C175 1.381 . S
C176 C177 1.321 . S
C177 C176 1.321 . S
C177 C178 1.403 . S
C177 H198 0.934 . S
C178 C173 1.413 . S
C178 C177 1.403 . S
C178 H199 0.930 . S
C179 O190 1.275 . S
C179 O191 1.256 . S
O180 Ho160 2.322 . S
O180 C162 1.259 . S
O181 Ho161 2.346 . S
O181 C162 1.268 . S
O182 Ho160 2.378 . S
O182 C163 1.215 . S
O183 Ho160 2.524 . S
O183 C163 1.289 . S
O184 Ho160 2.381 . S
O184 C170 1.275 . S
O185 Ho160 2.669 . S
O185 Ho161 2.305 . S
O185 C170 1.256 . S
O186 Ho161 2.322 . S
O186 C171 1.259 . S
O187 Ho160 2.346 . S
O187 C171 1.268 . S
O188 Ho161 2.378 . S
O188 C172 1.215 . S
O189 Ho161 2.524 . S
O189 C172 1.289 . S
O190 Ho161 2.381 . S
O190 C179 1.275 . S
O191 Ho160 2.305 . S
O191 Ho161 2.669 . S
O191 C179 1.256 . S
H192 C165 0.930 . S
H193 C166 0.931 . S
H194 C168 0.934 . S
H195 C169 0.930 . S
H196 C174 0.930 . S
H197 C175 0.931 . S
H198 C177 0.934 . S
H199 C178 0.930 . S
Ho200 C203 2.811 . S
Ho200 O220 2.322 . S
Ho200 O222 2.378 . S
Ho200 O223 2.524 . S
Ho200 O224 2.381 . S
Ho200 O225 2.669 . S
Ho200 O227 2.346 . S
Ho200 O231 2.305 . S
Ho201 C212 2.811 . S
Ho201 O221 2.346 . S
Ho201 O225 2.305 . S
Ho201 O226 2.322 . S
Ho201 O228 2.378 . S
Ho201 O229 2.524 . S
Ho201 O230 2.381 . S
Ho201 O231 2.669 . S
C202 O220 1.259 . S
C202 O221 1.268 . S
C203 Ho200 2.811 . S
C203 C204 1.488 . S
C203 O222 1.215 . S
C203 O223 1.289 . S
C204 C203 1.488 . S
C204 C205 1.348 . S
C204 C209 1.413 . S
C205 C204 1.348 . S
C205 C206 1.442 . S
C205 H232 0.930 . S
C206 C205 1.442 . S
C206 C207 1.381 . S
C206 H233 0.931 . S
C207 C206 1.381 . S
C207 C208 1.321 . S
C208 C207 1.321 . S
C208 C209 1.403 . S
C208 H234 0.934 . S
C209 C204 1.413 . S
C209 C208 1.403 . S
C209 H235 0.930 . S
C210 O224 1.275 . S
C210 O225 1.256 . S
C211 O226 1.259 . S
C211 O227 1.268 . S
C212 Ho201 2.811 . S
C212 C213 1.488 . S
C212 O228 1.215 . S
C212 O229 1.289 . S
C213 C212 1.488 . S
C213 C214 1.348 . S
C213 C218 1.413 . S
C214 C213 1.348 . S
C214 C215 1.442 . S
C214 H236 0.930 . S
C215 C214 1.442 . S
C215 C216 1.381 . S
C215 H237 0.931 . S
C216 C215 1.381 . S
C216 C217 1.321 . S
C217 C216 1.321 . S
C217 C218 1.403 . S
C217 H238 0.934 . S
C218 C213 1.413 . S
C218 C217 1.403 . S
C218 H239 0.930 . S
C219 O230 1.275 . S
C219 O231 1.256 . S
O220 Ho200 2.322 . S
O220 C202 1.259 . S
O221 Ho201 2.346 . S
O221 C202 1.268 . S
O222 Ho200 2.378 . S
O222 C203 1.215 . S
O223 Ho200 2.524 . S
O223 C203 1.289 . S
O224 Ho200 2.381 . S
O224 C210 1.275 . S
O225 Ho200 2.669 . S
O225 Ho201 2.305 . S
O225 C210 1.256 . S
O226 Ho201 2.322 . S
O226 C211 1.259 . S
O227 Ho200 2.346 . S
O227 C211 1.268 . S
O228 Ho201 2.378 . S
O228 C212 1.215 . S
O229 Ho201 2.524 . S
O229 C212 1.289 . S
O230 Ho201 2.381 . S
O230 C219 1.275 . S
O231 Ho200 2.305 . S
O231 Ho201 2.669 . S
O231 C219 1.256 . S
H232 C205 0.930 . S
H233 C206 0.931 . S
H234 C208 0.934 . S
H235 C209 0.930 . S
H236 C214 0.930 . S
H237 C215 0.931 . S
H238 C217 0.934 . S
H239 C218 0.930 . S
Ho240 C243 2.811 . S
Ho240 O260 2.322 . S
Ho240 O262 2.378 . S
Ho240 O263 2.524 . S
Ho240 O264 2.381 . S
Ho240 O265 2.669 . S
Ho240 O267 2.346 . S
Ho240 O271 2.305 . S
Ho241 C252 2.811 . S
Ho241 O261 2.346 . S
Ho241 O265 2.305 . S
Ho241 O266 2.322 . S
Ho241 O268 2.378 . S
Ho241 O269 2.524 . S
Ho241 O270 2.381 . S
Ho241 O271 2.669 . S
C242 O260 1.259 . S
C242 O261 1.268 . S
C243 Ho240 2.811 . S
C243 C244 1.488 . S
C243 O262 1.215 . S
C243 O263 1.289 . S
C244 C243 1.488 . S
C244 C245 1.348 . S
C244 C249 1.413 . S
C245 C244 1.348 . S
C245 C246 1.442 . S
C245 H272 0.930 . S
C246 C245 1.442 . S
C246 C247 1.381 . S
C246 H273 0.931 . S
C247 C246 1.381 . S
C247 C248 1.321 . S
C248 C247 1.321 . S
C248 C249 1.403 . S
C248 H274 0.934 . S
C249 C244 1.413 . S
C249 C248 1.403 . S
C249 H275 0.930 . S
C250 O264 1.275 . S
C250 O265 1.256 . S
C251 O266 1.259 . S
C251 O267 1.268 . S
C252 Ho241 2.811 . S
C252 C253 1.488 1_545 S
C252 O268 1.215 . S
C252 O269 1.289 . S
C253 C252 1.488 1_565 S
C253 C254 1.348 . S
C253 C258 1.413 . S
C254 C253 1.348 . S
C254 C255 1.442 . S
C254 H276 0.930 . S
C255 C254 1.442 . S
C255 C256 1.381 . S
C255 H277 0.931 . S
C256 C255 1.381 . S
C256 C257 1.321 . S
C257 C256 1.321 . S
C257 C258 1.403 . S
C257 H278 0.934 . S
C258 C253 1.413 . S
C258 C257 1.403 . S
C258 H279 0.930 . S
C259 O270 1.275 . S
C259 O271 1.256 . S
O260 Ho240 2.322 . S
O260 C242 1.259 . S
O261 Ho241 2.346 . S
O261 C242 1.268 . S
O262 Ho240 2.378 . S
O262 C243 1.215 . S
O263 Ho240 2.524 . S
O263 C243 1.289 . S
O264 Ho240 2.381 . S
O264 C250 1.275 . S
O265 Ho240 2.669 . S
O265 Ho241 2.305 . S
O265 C250 1.256 . S
O266 Ho241 2.322 . S
O266 C251 1.259 . S
O267 Ho240 2.346 . S
O267 C251 1.268 . S
O268 Ho241 2.378 . S
O268 C252 1.215 . S
O269 Ho241 2.524 . S
O269 C252 1.289 . S
O270 Ho241 2.381 . S
O270 C259 1.275 . S
O271 Ho240 2.305 . S
O271 Ho241 2.669 . S
O271 C259 1.256 . S
H272 C245 0.930 . S
H273 C246 0.931 . S
H274 C248 0.934 . S
H275 C249 0.930 . S
H276 C254 0.930 . S
H277 C255 0.931 . S
H278 C257 0.934 . S
H279 C258 0.930 . S
Ho280 C283 2.811 . S
Ho280 O300 2.322 . S
Ho280 O302 2.378 . S
Ho280 O303 2.524 . S
Ho280 O304 2.381 . S
Ho280 O305 2.669 . S
Ho280 O307 2.346 . S
Ho280 O311 2.305 . S
Ho281 C292 2.802 1_655 S
Ho281 O301 2.346 . S
Ho281 O305 2.305 . S
Ho281 O306 2.322 . S
Ho281 O308 2.378 . S
Ho281 O309 2.524 . S
Ho281 O310 2.381 . S
Ho281 O311 2.669 . S
C282 O300 1.259 . S
C282 O301 1.268 . S
C283 Ho280 2.811 . S
C283 C284 1.488 . S
C283 O302 1.215 . S
C283 O303 1.289 . S
C284 C283 1.488 . S
C284 C285 1.348 . S
C284 C289 1.413 . S
C285 C284 1.348 . S
C285 C286 1.442 . S
C285 H312 0.930 . S
C286 C285 1.442 . S
C286 C287 1.381 . S
C286 H313 0.931 . S
C287 C286 1.381 . S
C287 C288 1.321 . S
C288 C287 1.321 . S
C288 C289 1.403 . S
C288 H314 0.934 . S
C289 C284 1.413 . S
C289 C288 1.403 . S
C289 H315 0.930 . S
C290 O304 1.275 . S
C290 O305 1.256 . S
C291 O306 1.259 . S
C291 O307 1.268 . S
C292 Ho281 2.802 1_455 S
C292 C293 1.497 . S
C292 O308 1.211 1_455 S
C292 O309 1.284 1_455 S
C293 C292 1.497 . S
C293 C294 1.348 . S
C293 C298 1.413 . S
C294 C293 1.348 . S
C294 C295 1.442 . S
C294 H316 0.930 . S
C295 C294 1.442 . S
C295 C296 1.381 . S
C295 H317 0.931 . S
C296 C295 1.381 . S
C296 C297 1.321 . S
C297 C296 1.321 . S
C297 C298 1.403 . S
C297 H318 0.934 . S
C298 C293 1.413 . S
C298 C297 1.403 . S
C298 H319 0.930 . S
C299 O310 1.275 . S
C299 O311 1.256 . S
O300 Ho280 2.322 . S
O300 C282 1.259 . S
O301 Ho281 2.346 . S
O301 C282 1.268 . S
O302 Ho280 2.378 . S
O302 C283 1.215 . S
O303 Ho280 2.524 . S
O303 C283 1.289 . S
O304 Ho280 2.381 . S
O304 C290 1.275 . S
O305 Ho280 2.669 . S
O305 Ho281 2.305 . S
O305 C290 1.256 . S
O306 Ho281 2.322 . S
O306 C291 1.259 . S
O307 Ho280 2.346 . S
O307 C291 1.268 . S
O308 Ho281 2.378 . S
O308 C292 1.211 1_655 S
O309 Ho281 2.524 . S
O309 C292 1.284 1_655 S
O310 Ho281 2.381 . S
O310 C299 1.275 . S
O311 Ho280 2.305 . S
O311 Ho281 2.669 . S
O311 C299 1.256 . S
H312 C285 0.930 . S
H313 C286 0.931 . S
H314 C288 0.934 . S
H315 C289 0.930 . S
H316 C294 0.930 . S
H317 C295 0.931 . S
H318 C297 0.934 . S
H319 C298 0.930 . S
Ho320 C323 2.811 . S
Ho320 O340 2.322 . S
Ho320 O342 2.378 . S
Ho320 O343 2.524 . S
Ho320 O344 2.381 . S
Ho320 O345 2.669 . S
Ho320 O347 2.346 . S
Ho320 O351 2.305 . S
Ho321 C332 2.811 . S
Ho321 O341 2.346 . S
Ho321 O345 2.305 . S
Ho321 O346 2.322 . S
Ho321 O348 2.378 . S
Ho321 O349 2.524 . S
Ho321 O350 2.381 . S
Ho321 O351 2.669 . S
C322 O340 1.259 . S
C322 O341 1.268 . S
C323 Ho320 2.811 . S
C323 C324 1.488 . S
C323 O342 1.215 . S
C323 O343 1.289 . S
C324 C323 1.488 . S
C324 C325 1.348 . S
C324 C329 1.413 . S
C325 C324 1.348 . S
C325 C326 1.442 . S
C325 H352 0.930 . S
C326 C325 1.442 . S
C326 C327 1.381 . S
C326 H353 0.931 . S
C327 C326 1.381 . S
C327 C328 1.321 . S
C328 C327 1.321 . S
C328 C329 1.403 . S
C328 H354 0.934 . S
C329 C324 1.413 . S
C329 C328 1.403 . S
C329 H355 0.930 . S
C330 O344 1.275 . S
C330 O345 1.256 . S
C331 O346 1.259 . S
C331 O347 1.268 . S
C332 Ho321 2.811 . S
C332 C333 1.488 . S
C332 O348 1.215 . S
C332 O349 1.289 . S
C333 C332 1.488 . S
C333 C334 1.348 . S
C333 C338 1.413 . S
C334 C333 1.348 . S
C334 C335 1.442 . S
C334 H356 0.930 . S
C335 C334 1.442 . S
C335 C336 1.381 . S
C335 H357 0.931 . S
C336 C335 1.381 . S
C336 C337 1.321 . S
C337 C336 1.321 . S
C337 C338 1.403 . S
C337 H358 0.934 . S
C338 C333 1.413 . S
C338 C337 1.403 . S
C338 H359 0.930 . S
C339 O350 1.275 . S
C339 O351 1.256 . S
O340 Ho320 2.322 . S
O340 C322 1.259 . S
O341 Ho321 2.346 . S
O341 C322 1.268 . S
O342 Ho320 2.378 . S
O342 C323 1.215 . S
O343 Ho320 2.524 . S
O343 C323 1.289 . S
O344 Ho320 2.381 . S
O344 C330 1.275 . S
O345 Ho320 2.669 . S
O345 Ho321 2.305 . S
O345 C330 1.256 . S
O346 Ho321 2.322 . S
O346 C331 1.259 . S
O347 Ho320 2.346 . S
O347 C331 1.268 . S
O348 Ho321 2.378 . S
O348 C332 1.215 . S
O349 Ho321 2.524 . S
O349 C332 1.289 . S
O350 Ho321 2.381 . S
O350 C339 1.275 . S
O351 Ho320 2.305 . S
O351 Ho321 2.669 . S
O351 C339 1.256 . S
H352 C325 0.930 . S
H353 C326 0.931 . S
H354 C328 0.934 . S
H355 C329 0.930 . S
H356 C334 0.930 . S
H357 C335 0.931 . S
H358 C337 0.934 . S
H359 C338 0.930 . S
H360 C366 0.930 . S
H361 C370 0.930 . S
H362 C375 0.929 . S
H363 C373 0.929 . S
H364 C368 0.929 . S
H365 C374 0.929 . S
C366 H360 0.930 . S
C366 C367 1.367 . S
C366 C374 1.378 . S
C367 C366 1.367 . S
C367 C375 1.433 1_556 S
C368 H364 0.929 . S
C368 C370 1.378 . S
C368 C372 1.350 1_554 S
C369 C372 1.463 . S
C369 C374 1.350 . S
C369 N377 1.427 1_556 S
C370 H361 0.930 . S
C370 C368 1.378 . S
C370 C371 1.367 1_554 S
C371 C370 1.367 1_556 S
C371 C373 1.433 . S
C372 C368 1.350 1_556 S
C372 C369 1.463 . S
C372 N376 1.427 . S
C373 H363 0.929 . S
C373 C371 1.433 . S
C373 N376 1.384 . S
C374 H365 0.929 . S
C374 C366 1.378 . S
C374 C369 1.350 . S
C375 H362 0.929 . S
C375 C367 1.433 1_554 S
C375 N377 1.384 . S
N376 C372 1.427 . S
N376 C373 1.384 . S
N377 C369 1.427 1_554 S
N377 C375 1.384 . S
H378 C384 0.930 . S
H379 C388 0.930 . S
H380 C393 0.929 . S
H381 C391 0.929 . S
H382 C386 0.929 . S
H383 C392 0.929 . S
C384 H378 0.930 . S
C384 C385 1.367 . S
C384 C392 1.378 . S
C385 C384 1.367 . S
C385 C393 1.433 1_556 S
C386 H382 0.929 . S
C386 C388 1.378 . S
C386 C390 1.350 1_554 S
C387 C390 1.463 . S
C387 C392 1.350 . S
C387 N395 1.427 1_556 S
C388 H379 0.930 . S
C388 C386 1.378 . S
C388 C389 1.367 1_554 S
C389 C388 1.367 1_556 S
C389 C391 1.433 . S
C390 C386 1.350 1_556 S
C390 C387 1.463 . S
C390 N394 1.427 . S
C391 H381 0.929 . S
C391 C389 1.433 . S
C391 N394 1.384 . S
C392 H383 0.929 . S
C392 C384 1.378 . S
C392 C387 1.350 . S
C393 H380 0.929 . S
C393 C385 1.433 1_554 S
C393 N395 1.384 . S
N394 C390 1.427 . S
N394 C391 1.384 . S
N395 C387 1.427 1_554 S
N395 C393 1.384 . S
H396 C402 0.930 . S
H397 C406 0.930 . S
H398 C411 0.929 . S
H399 C409 0.929 . S
H400 C404 0.929 . S
H401 C410 0.929 . S
C402 H396 0.930 . S
C402 C403 1.367 . S
C402 C410 1.378 . S
C403 C402 1.367 . S
C403 C411 1.433 1_556 S
C404 H400 0.929 . S
C404 C406 1.378 . S
C404 C408 1.350 1_554 S
C405 C408 1.463 . S
C405 C410 1.350 . S
C405 N413 1.427 1_556 S
C406 H397 0.930 . S
C406 C404 1.378 . S
C406 C407 1.367 1_554 S
C407 C406 1.367 1_556 S
C407 C409 1.433 . S
C408 C404 1.350 1_556 S
C408 C405 1.463 . S
C408 N412 1.427 . S
C409 H399 0.929 . S
C409 C407 1.433 . S
C409 N412 1.384 . S
C410 H401 0.929 . S
C410 C402 1.378 . S
C410 C405 1.350 . S
C411 H398 0.929 . S
C411 C403 1.433 1_554 S
C411 N413 1.384 . S
N412 C408 1.427 . S
N412 C409 1.384 . S
N413 C405 1.427 1_554 S
N413 C411 1.384 . S
H414 C420 0.930 . S
H415 C424 0.930 . S
H416 C429 0.929 . S
H417 C427 0.929 . S
H418 C422 0.929 . S
H419 C428 0.929 . S
C420 H414 0.930 . S
C420 C421 1.367 1_556 S
C420 C428 1.378 . S
C421 C420 1.367 1_554 S
C421 C429 1.433 . S
C422 H418 0.929 . S
C422 C424 1.378 . S
C422 C426 1.350 . S
C423 C426 1.463 . S
C423 C428 1.350 1_554 S
C423 N431 1.427 . S
C424 H415 0.930 . S
C424 C422 1.378 . S
C424 C425 1.367 . S
C425 C424 1.367 . S
C425 C427 1.433 1_554 S
C426 C422 1.350 . S
C426 C423 1.463 . S
C426 N430 1.427 1_554 S
C427 H417 0.929 . S
C427 C425 1.433 1_556 S
C427 N430 1.384 . S
C428 H419 0.929 . S
C428 C420 1.378 . S
C428 C423 1.350 1_556 S
C429 H416 0.929 . S
C429 C421 1.433 . S
C429 N431 1.384 . S
N430 C426 1.427 1_556 S
N430 C427 1.384 . S
N431 C423 1.427 . S
N431 C429 1.384 . S
H432 C438 0.930 . S
H433 C442 0.930 . S
H434 C447 0.929 . S
H435 C445 0.929 . S
H436 C440 0.929 . S
H437 C446 0.929 . S
C438 H432 0.930 . S
C438 C439 1.367 . S
C438 C446 1.378 . S
C439 C438 1.367 . S
C439 C447 1.433 1_554 S
C440 H436 0.929 . S
C440 C442 1.378 . S
C440 C444 1.350 1_556 S
C441 C444 1.463 . S
C441 C446 1.350 . S
C441 N449 1.427 1_554 S
C442 H433 0.930 . S
C442 C440 1.378 . S
C442 C443 1.367 1_556 S
C443 C442 1.367 1_554 S
C443 C445 1.433 . S
C444 C440 1.350 1_554 S
C444 C441 1.463 . S
C444 N448 1.427 . S
C445 H435 0.929 . S
C445 C443 1.433 . S
C445 N448 1.384 . S
C446 H437 0.929 . S
C446 C438 1.378 . S
C446 C441 1.350 . S
C447 H434 0.929 . S
C447 C439 1.433 1_556 S
C447 N449 1.384 . S
N448 C444 1.427 . S
N448 C445 1.384 . S
N449 C441 1.427 1_556 S
N449 C447 1.384 . S
H450 C456 0.930 . S
H451 C460 0.930 . S
H452 C465 0.929 . S
H453 C463 0.929 . S
H454 C458 0.929 . S
H455 C464 0.929 . S
C456 H450 0.930 . S
C456 C457 1.367 . S
C456 C464 1.378 . S
C457 C456 1.367 . S
C457 C465 1.433 . S
C458 H454 0.929 . S
C458 C460 1.378 . S
C458 C462 1.350 . S
C459 C462 1.463 . S
C459 C464 1.350 . S
C459 N467 1.427 . S
C460 H451 0.930 . S
C460 C458 1.378 . S
C460 C461 1.367 . S
C461 C460 1.367 . S
C461 C463 1.433 . S
C462 C458 1.350 . S
C462 C459 1.463 . S
C462 N466 1.427 . S
C463 H453 0.929 . S
C463 C461 1.433 . S
C463 N466 1.384 . S
C464 H455 0.929 . S
C464 C456 1.378 . S
C464 C459 1.350 . S
C465 H452 0.929 . S
C465 C457 1.433 . S
C465 N467 1.384 . S
N466 C462 1.427 . S
N466 C463 1.384 . S
N467 C459 1.427 . S
N467 C465 1.384 . S
H468 C474 0.930 . S
H469 C478 0.930 . S
H470 C483 0.929 . S
H471 C481 0.929 . S
H472 C476 0.929 . S
H473 C482 0.929 . S
C474 H468 0.930 . S
C474 C475 1.367 . S
C474 C482 1.378 . S
C475 C474 1.367 . S
C475 C483 1.433 . S
C476 H472 0.929 . S
C476 C478 1.378 . S
C476 C480 1.350 . S
C477 C480 1.463 . S
C477 C482 1.350 . S
C477 N485 1.427 . S
C478 H469 0.930 . S
C478 C476 1.378 . S
C478 C479 1.367 . S
C479 C478 1.367 . S
C479 C481 1.433 . S
C480 C476 1.350 . S
C480 C477 1.463 . S
C480 N484 1.427 . S
C481 H471 0.929 . S
C481 C479 1.433 . S
C481 N484 1.384 . S
C482 H473 0.929 . S
C482 C474 1.378 . S
C482 C477 1.350 . S
C483 H470 0.929 . S
C483 C475 1.433 . S
C483 N485 1.384 . S
N484 C480 1.427 . S
N484 C481 1.384 . S
N485 C477 1.427 . S
N485 C483 1.384 . S
H486 C492 0.930 . S
H487 C496 0.930 . S
H488 C501 0.929 . S
H489 C499 0.940 . S
H490 C494 0.929 . S
H491 C500 0.929 . S
C492 H486 0.930 . S
C492 C493 1.367 . S
C492 C500 1.378 . S
C493 C492 1.367 . S
C493 C501 1.433 . S
C494 H490 0.929 . S
C494 C496 1.378 1_545 S
C494 C498 1.350 . S
C495 C498 1.463 . S
C495 C500 1.350 . S
C495 N503 1.427 . S
C496 H487 0.930 . S
C496 C494 1.378 1_565 S
C496 C497 1.367 . S
C497 C496 1.367 . S
C497 C499 1.447 . S
C498 C494 1.350 . S
C498 C495 1.463 . S
C498 N502 1.427 . S
C499 H489 0.940 . S
C499 C497 1.447 . S
C499 N502 1.359 1_565 S
C500 H491 0.929 . S
C500 C492 1.378 . S
C500 C495 1.350 . S
C501 H488 0.929 . S
C501 C493 1.433 . S
C501 N503 1.384 . S
N502 C498 1.427 . S
N502 C499 1.359 1_545 S
N503 C495 1.427 . S
N503 C501 1.384 . S
H504 C510 0.930 . S
H505 C514 0.930 . S
H506 C519 0.929 . S
H507 C517 0.929 . S
H508 C512 0.929 . S
H509 C518 0.929 . S
C510 H504 0.930 . S
C510 C511 1.367 . S
C510 C518 1.378 1_455 S
C511 C510 1.367 . S
C511 C519 1.433 . S
C512 H508 0.929 . S
C512 C514 1.378 . S
C512 C516 1.350 . S
C513 C516 1.463 . S
C513 C518 1.350 . S
C513 N521 1.427 . S
C514 H505 0.930 . S
C514 C512 1.378 . S
C514 C515 1.367 . S
C515 C514 1.367 . S
C515 C517 1.433 . S
C516 C512 1.350 . S
C516 C513 1.463 . S
C516 N520 1.427 . S
C517 H507 0.929 . S
C517 C515 1.433 . S
C517 N520 1.384 . S
C518 H509 0.929 . S
C518 C510 1.378 1_655 S
C518 C513 1.350 . S
C519 H506 0.929 . S
C519 C511 1.433 . S
C519 N521 1.384 1_455 S
N520 C516 1.427 . S
N520 C517 1.384 . S
N521 C513 1.427 . S
N521 C519 1.384 1_655 S
H522 C528 0.930 . S
H523 C532 0.930 . S
H524 C537 0.929 . S
H525 C535 0.929 . S
H526 C530 0.929 . S
H527 C536 0.929 . S
C528 H522 0.930 . S
C528 C529 1.367 . S
C528 C536 1.378 . S
C529 C528 1.367 . S
C529 C537 1.433 . S
C530 H526 0.929 . S
C530 C532 1.378 . S
C530 C534 1.350 . S
C531 C534 1.463 . S
C531 C536 1.350 . S
C531 N539 1.427 . S
C532 H523 0.930 . S
C532 C530 1.378 . S
C532 C533 1.367 . S
C533 C532 1.367 . S
C533 C535 1.433 . S
C534 C530 1.350 . S
C534 C531 1.463 . S
C534 N538 1.427 . S
C535 H525 0.929 . S
C535 C533 1.433 . S
C535 N538 1.384 . S
C536 H527 0.929 . S
C536 C528 1.378 . S
C536 C531 1.350 . S
C537 H524 0.929 . S
C537 C529 1.433 . S
C537 N539 1.384 . S
N538 C534 1.427 . S
N538 C535 1.384 . S
N539 C531 1.427 . S
N539 C537 1.384 . S
H540 C546 0.930 . S
H541 C550 0.930 . S
H542 C555 0.929 . S
H543 C553 0.929 . S
H544 C548 0.929 . S
H545 C554 0.929 . S
C546 H540 0.930 . S
C546 C547 1.367 . S
C546 C554 1.378 . S
C547 C546 1.367 . S
C547 C555 1.433 . S
C548 H544 0.929 . S
C548 C550 1.378 . S
C548 C552 1.350 . S
C549 C552 1.463 . S
C549 C554 1.350 . S
C549 N557 1.427 . S
C550 H541 0.930 . S
C550 C548 1.378 . S
C550 C551 1.367 . S
C551 C550 1.367 . S
C551 C553 1.433 . S
C552 C548 1.350 . S
C552 C549 1.463 . S
C552 N556 1.427 . S
C553 H543 0.929 . S
C553 C551 1.433 . S
C553 N556 1.384 . S
C554 H545 0.929 . S
C554 C546 1.378 . S
C554 C549 1.350 . S
C555 H542 0.929 . S
C555 C547 1.433 . S
C555 N557 1.384 . S
N556 C552 1.427 . S
N556 C553 1.384 . S
N557 C549 1.427 . S
N557 C555 1.384 . S
H558 C564 0.930 . S
H559 C568 0.930 . S
H560 C573 0.929 . S
H561 C571 0.929 . S
H562 C566 0.929 . S
H563 C572 0.929 . S
C564 H558 0.930 . S
C564 C565 1.367 . S
C564 C572 1.378 . S
C565 C564 1.367 . S
C565 C573 1.433 . S
C566 H562 0.929 . S
C566 C568 1.378 . S
C566 C570 1.350 . S
C567 C570 1.463 . S
C567 C572 1.350 . S
C567 N575 1.427 . S
C568 H559 0.930 . S
C568 C566 1.378 . S
C568 C569 1.367 . S
C569 C568 1.367 . S
C569 C571 1.433 . S
C570 C566 1.350 . S
C570 C567 1.463 . S
C570 N574 1.427 . S
C571 H561 0.929 . S
C571 C569 1.433 . S
C571 N574 1.384 . S
C572 H563 0.929 . S
C572 C564 1.378 . S
C572 C567 1.350 . S
C573 H560 0.929 . S
C573 C565 1.433 . S
C573 N575 1.384 . S
N574 C570 1.427 . S
N574 C571 1.384 . S
N575 C567 1.427 . S
N575 C573 1.384 . S
H576 C582 0.930 . S
H577 C586 0.930 . S
H578 C591 0.929 . S
H579 C589 0.929 . S
H580 C584 0.929 . S
H581 C590 0.929 . S
C582 H576 0.930 . S
C582 C583 1.367 . S
C582 C590 1.378 . S
C583 C582 1.367 . S
C583 C591 1.433 . S
C584 H580 0.929 . S
C584 C586 1.378 . S
C584 C588 1.350 . S
C585 C588 1.463 . S
C585 C590 1.350 . S
C585 N593 1.427 . S
C586 H577 0.930 . S
C586 C584 1.378 . S
C586 C587 1.367 . S
C587 C586 1.367 . S
C587 C589 1.433 . S
C588 C584 1.350 . S
C588 C585 1.463 . S
C588 N592 1.427 . S
C589 H579 0.929 . S
C589 C587 1.433 . S
C589 N592 1.384 . S
C590 H581 0.929 . S
C590 C582 1.378 . S
C590 C585 1.350 . S
C591 H578 0.929 . S
C591 C583 1.433 . S
C591 N593 1.384 . S
N592 C588 1.427 . S
N592 C589 1.384 . S
N593 C585 1.427 . S
N593 C591 1.384 . S
H594 C600 0.930 . S
H595 C604 0.930 . S
H596 C609 0.929 . S
H597 C607 0.929 . S
H598 C602 0.929 . S
H599 C608 0.929 . S
C600 H594 0.930 . S
C600 C601 1.367 . S
C600 C608 1.378 . S
C601 C600 1.367 . S
C601 C609 1.433 . S
C602 H598 0.929 . S
C602 C604 1.378 . S
C602 C606 1.350 . S
C603 C606 1.463 . S
C603 C608 1.350 . S
C603 N611 1.427 . S
C604 H595 0.930 . S
C604 C602 1.378 . S
C604 C605 1.367 . S
C605 C604 1.367 . S
C605 C607 1.433 . S
C606 C602 1.350 . S
C606 C603 1.463 . S
C606 N610 1.427 . S
C607 H597 0.929 . S
C607 C605 1.433 . S
C607 N610 1.384 . S
C608 H599 0.929 . S
C608 C600 1.378 . S
C608 C603 1.350 . S
C609 H596 0.929 . S
C609 C601 1.433 . S
C609 N611 1.384 . S
N610 C606 1.427 . S
N610 C607 1.384 . S
N611 C603 1.427 . S
N611 C609 1.384 . S
H612 C618 0.930 . S
H613 C622 0.930 . S
H614 C627 0.929 . S
H615 C625 0.929 . S
H616 C620 0.929 . S
H617 C626 0.929 . S
C618 H612 0.930 . S
C618 C619 1.367 . S
C618 C626 1.378 . S
C619 C618 1.367 . S
C619 C627 1.433 . S
C620 H616 0.929 . S
C620 C622 1.378 . S
C620 C624 1.350 . S
C621 C624 1.463 . S
C621 C626 1.350 . S
C621 N629 1.427 . S
C622 H613 0.930 . S
C622 C620 1.378 . S
C622 C623 1.367 . S
C623 C622 1.367 . S
C623 C625 1.433 . S
C624 C620 1.350 . S
C624 C621 1.463 . S
C624 N628 1.427 . S
C625 H615 0.929 . S
C625 C623 1.433 . S
C625 N628 1.384 . S
C626 H617 0.929 . S
C626 C618 1.378 . S
C626 C621 1.350 . S
C627 H614 0.929 . S
C627 C619 1.433 . S
C627 N629 1.384 . S
N628 C624 1.427 . S
N628 C625 1.384 . S
N629 C621 1.427 . S
N629 C627 1.384 . S
H630 C636 0.930 . S
H631 C640 0.930 . S
H632 C645 0.929 . S
H633 C643 0.929 . S
H634 C638 0.929 . S
H635 C644 0.929 . S
C636 H630 0.930 . S
C636 C637 1.367 . S
C636 C644 1.378 . S
C637 C636 1.367 . S
C637 C645 1.433 . S
C638 H634 0.929 . S
C638 C640 1.378 . S
C638 C642 1.350 . S
C639 C642 1.463 . S
C639 C644 1.350 1_545 S
C639 N647 1.427 1_545 S
C640 H631 0.930 . S
C640 C638 1.378 . S
C640 C641 1.367 . S
C641 C640 1.367 . S
C641 C643 1.433 . S
C642 C638 1.350 . S
C642 C639 1.463 . S
C642 N646 1.427 . S
C643 H633 0.929 . S
C643 C641 1.433 . S
C643 N646 1.384 . S
C644 H635 0.929 . S
C644 C636 1.378 . S
C644 C639 1.350 1_565 S
C645 H632 0.929 . S
C645 C637 1.433 . S
C645 N647 1.384 . S
N646 C642 1.427 . S
N646 C643 1.384 . S
N647 C639 1.427 1_565 S
N647 C645 1.384 . S
H648 C654 0.930 . S
H649 C658 0.930 . S
H650 C663 0.929 . S
H651 C661 0.929 . S
H652 C656 0.929 . S
H653 C662 0.929 . S
C654 H648 0.930 . S
C654 C655 1.367 . S
C654 C662 1.378 . S
C655 C654 1.367 . S
C655 C663 1.433 . S
C656 H652 0.929 . S
C656 C658 1.378 . S
C656 C660 1.350 . S
C657 C660 1.463 1_655 S
C657 C662 1.350 . S
C657 N665 1.427 . S
C658 H649 0.930 . S
C658 C656 1.378 . S
C658 C659 1.367 . S
C659 C658 1.367 . S
C659 C661 1.433 . S
C660 C656 1.350 . S
C660 C657 1.463 1_455 S
C660 N664 1.427 . S
C661 H651 0.929 . S
C661 C659 1.433 . S
C661 N664 1.384 . S
C662 H653 0.929 . S
C662 C654 1.378 . S
C662 C657 1.350 . S
C663 H650 0.929 . S
C663 C655 1.433 . S
C663 N665 1.384 . S
N664 C660 1.427 . S
N664 C661 1.384 . S
N665 C657 1.427 . S
N665 C663 1.384 . S
H666 C672 0.930 . S
H667 C676 0.930 . S
H668 C681 0.929 . S
H669 C679 0.929 . S
H670 C674 0.929 . S
H671 C680 0.929 . S
C672 H666 0.930 . S
C672 C673 1.367 . S
C672 C680 1.378 . S
C673 C672 1.367 . S
C673 C681 1.433 . S
C674 H670 0.929 . S
C674 C676 1.378 . S
C674 C678 1.350 . S
C675 C678 1.463 . S
C675 C680 1.350 . S
C675 N683 1.427 . S
C676 H667 0.930 . S
C676 C674 1.378 . S
C676 C677 1.367 . S
C677 C676 1.367 . S
C677 C679 1.433 . S
C678 C674 1.350 . S
C678 C675 1.463 . S
C678 N682 1.427 . S
C679 H669 0.929 . S
C679 C677 1.433 . S
C679 N682 1.384 . S
C680 H671 0.929 . S
C680 C672 1.378 . S
C680 C675 1.350 . S
C681 H668 0.929 . S
C681 C673 1.433 . S
C681 N683 1.384 . S
N682 C678 1.427 . S
N682 C679 1.384 . S
N683 C675 1.427 . S
N683 C681 1.384 . S
H684 C690 0.930 . S
H685 C694 0.930 . S
H686 C699 0.929 . S
H687 C697 0.929 1_655 S
H688 C692 0.929 . S
H689 C698 0.929 . S
C690 H684 0.930 . S
C690 C691 1.367 . S
C690 C698 1.378 . S
C691 C690 1.367 . S
C691 C699 1.433 . S
C692 H688 0.929 . S
C692 C694 1.378 . S
C692 C696 1.350 . S
C693 C696 1.463 . S
C693 C698 1.350 . S
C693 N701 1.427 . S
C694 H685 0.930 . S
C694 C692 1.378 . S
C694 C695 1.367 . S
C695 C694 1.367 . S
C695 C697 1.433 . S
C696 C692 1.350 . S
C696 C693 1.463 . S
C696 N700 1.427 . S
C697 H687 0.929 1_455 S
C697 C695 1.433 . S
C697 N700 1.384 . S
C698 H689 0.929 . S
C698 C690 1.378 . S
C698 C693 1.350 . S
C699 H686 0.929 . S
C699 C691 1.433 . S
C699 N701 1.384 . S
N700 C696 1.427 . S
N700 C697 1.384 . S
N701 C693 1.427 . S
N701 C699 1.384 . S
H702 C708 0.930 . S
H703 C712 0.930 . S
H704 C717 0.929 . S
H705 C715 0.929 . S
H706 C710 0.929 . S
H707 C716 0.929 . S
C708 H702 0.930 . S
C708 C709 1.367 . S
C708 C716 1.378 . S
C709 C708 1.367 . S
C709 C717 1.433 . S
C710 H706 0.929 . S
C710 C712 1.378 . S
C710 C714 1.350 . S
C711 C714 1.463 . S
C711 C716 1.350 . S
C711 N719 1.427 . S
C712 H703 0.930 . S
C712 C710 1.378 . S
C712 C713 1.367 . S
C713 C712 1.367 . S
C713 C715 1.433 . S
C714 C710 1.350 . S
C714 C711 1.463 . S
C714 N718 1.427 . S
C715 H705 0.929 . S
C715 C713 1.433 . S
C715 N718 1.384 . S
C716 H707 0.929 . S
C716 C708 1.378 . S
C716 C711 1.350 . S
C717 H704 0.929 . S
C717 C709 1.433 . S
C717 N719 1.384 . S
N718 C714 1.427 . S
N718 C715 1.384 . S
N719 C711 1.427 . S
N719 C717 1.384 . S
H720 C726 0.928 1_545 S
H721 C730 0.930 . S
H722 C735 0.929 . S
H723 C733 0.929 . S
H724 C728 0.929 . S
H725 C734 0.929 . S
C726 H720 0.928 1_565 S
C726 C727 1.367 . S
C726 C734 1.378 . S
C727 C726 1.367 . S
C727 C735 1.433 . S
C728 H724 0.929 . S
C728 C730 1.378 . S
C728 C732 1.350 . S
C729 C732 1.463 . S
C729 C734 1.350 . S
C729 N737 1.427 . S
C730 H721 0.930 . S
C730 C728 1.378 . S
C730 C731 1.367 . S
C731 C730 1.367 . S
C731 C733 1.433 . S
C732 C728 1.350 . S
C732 C729 1.463 . S
C732 N736 1.427 . S
C733 H723 0.929 . S
C733 C731 1.433 . S
C733 N736 1.384 . S
C734 H725 0.929 . S
C734 C726 1.378 . S
C734 C729 1.350 . S
C735 H722 0.929 . S
C735 C727 1.433 . S
C735 N737 1.384 . S
N736 C732 1.427 . S
N736 C733 1.384 . S
N737 C729 1.427 . S
N737 C735 1.384 . S
H738 C744 0.930 1_565 S
H739 C748 0.930 . S
H740 C753 0.929 . S
H741 C751 0.929 . S
H742 C746 0.929 . S
H743 C752 0.929 . S
C744 H738 0.930 1_545 S
C744 C745 1.367 . S
C744 C752 1.378 . S
C745 C744 1.367 . S
C745 C753 1.433 . S
C746 H742 0.929 . S
C746 C748 1.378 . S
C746 C750 1.350 . S
C747 C750 1.463 . S
C747 C752 1.350 . S
C747 N755 1.427 . S
C748 H739 0.930 . S
C748 C746 1.378 . S
C748 C749 1.367 . S
C749 C748 1.367 . S
C749 C751 1.433 . S
C750 C746 1.350 . S
C750 C747 1.463 . S
C750 N754 1.427 . S
C751 H741 0.929 . S
C751 C749 1.433 . S
C751 N754 1.384 . S
C752 H743 0.929 . S
C752 C744 1.378 . S
C752 C747 1.350 . S
C753 H740 0.929 . S
C753 C745 1.433 . S
C753 N755 1.384 . S
N754 C750 1.427 . S
N754 C751 1.384 . S
N755 C747 1.427 . S
N755 C753 1.384 . S
H756 C762 0.930 . S
H757 C766 0.930 . S
H758 C771 0.929 . S
H759 C769 0.929 . S
H760 C764 0.929 . S
H761 C770 0.929 . S
C762 H756 0.930 . S
C762 C763 1.367 . S
C762 C770 1.378 . S
C763 C762 1.367 . S
C763 C771 1.433 . S
C764 H760 0.929 . S
C764 C766 1.378 . S
C764 C768 1.350 . S
C765 C768 1.463 . S
C765 C770 1.350 . S
C765 N773 1.427 . S
C766 H757 0.930 . S
C766 C764 1.378 . S
C766 C767 1.367 . S
C767 C766 1.367 . S
C767 C769 1.433 . S
C768 C764 1.350 . S
C768 C765 1.463 . S
C768 N772 1.427 . S
C769 H759 0.929 . S
C769 C767 1.433 . S
C769 N772 1.384 . S
C770 H761 0.929 . S
C770 C762 1.378 . S
C770 C765 1.350 . S
C771 H758 0.929 . S
C771 C763 1.433 . S
C771 N773 1.384 . S
N772 C768 1.427 . S
N772 C769 1.384 . S
N773 C765 1.427 . S
N773 C771 1.384 . S
H774 C780 0.930 . S
H775 C784 0.930 . S
H776 C789 0.929 . S
H777 C787 0.929 . S
H778 C782 0.929 . S
H779 C788 0.929 . S
C780 H774 0.930 . S
C780 C781 1.367 . S
C780 C788 1.378 . S
C781 C780 1.367 . S
C781 C789 1.433 . S
C782 H778 0.929 . S
C782 C784 1.378 . S
C782 C786 1.350 . S
C783 C786 1.463 . S
C783 C788 1.350 . S
C783 N791 1.427 . S
C784 H775 0.930 . S
C784 C782 1.378 . S
C784 C785 1.367 . S
C785 C784 1.367 . S
C785 C787 1.433 . S
C786 C782 1.350 . S
C786 C783 1.463 . S
C786 N790 1.427 . S
C787 H777 0.929 . S
C787 C785 1.433 . S
C787 N790 1.384 . S
C788 H779 0.929 . S
C788 C780 1.378 . S
C788 C783 1.350 . S
C789 H776 0.929 . S
C789 C781 1.433 . S
C789 N791 1.384 . S
N790 C786 1.427 . S
N790 C787 1.384 . S
N791 C783 1.427 . S
N791 C789 1.384 . S
H792 C798 0.930 . S
H793 C802 0.930 . S
H794 C807 0.929 . S
H795 C805 0.929 . S
H796 C800 0.929 . S
H797 C806 0.929 . S
C798 H792 0.930 . S
C798 C799 1.367 . S
C798 C806 1.378 . S
C799 C798 1.367 . S
C799 C807 1.433 . S
C800 H796 0.929 . S
C800 C802 1.378 . S
C800 C804 1.350 . S
C801 C804 1.463 . S
C801 C806 1.350 . S
C801 N809 1.427 . S
C802 H793 0.930 . S
C802 C800 1.378 . S
C802 C803 1.367 . S
C803 C802 1.367 . S
C803 C805 1.433 . S
C804 C800 1.350 . S
C804 C801 1.463 . S
C804 N808 1.427 . S
C805 H795 0.929 . S
C805 C803 1.433 . S
C805 N808 1.384 . S
C806 H797 0.929 . S
C806 C798 1.378 . S
C806 C801 1.350 . S
C807 H794 0.929 . S
C807 C799 1.433 . S
C807 N809 1.384 . S
N808 C804 1.427 . S
N808 C805 1.384 . S
N809 C801 1.427 . S
N809 C807 1.384 . S
H810 C816 0.930 . S
H811 C820 0.930 . S
H812 C825 0.929 . S
H813 C823 0.929 . S
H814 C818 0.929 1_565 S
H815 C824 0.929 1_545 S
C816 H810 0.930 . S
C816 C817 1.367 . S
C816 C824 1.378 . S
C817 C816 1.367 . S
C817 C825 1.433 . S
C818 H814 0.929 1_545 S
C818 C820 1.378 . S
C818 C822 1.350 . S
C819 C822 1.463 1_565 S
C819 C824 1.350 . S
C819 N827 1.427 . S
C820 H811 0.930 . S
C820 C818 1.378 . S
C820 C821 1.367 . S
C821 C820 1.367 . S
C821 C823 1.433 . S
C822 C818 1.350 . S
C822 C819 1.463 1_545 S
C822 N826 1.427 . S
C823 H813 0.929 . S
C823 C821 1.433 . S
C823 N826 1.384 . S
C824 H815 0.929 1_565 S
C824 C816 1.378 . S
C824 C819 1.350 . S
C825 H812 0.929 . S
C825 C817 1.433 . S
C825 N827 1.384 . S
N826 C822 1.427 . S
N826 C823 1.384 . S
N827 C819 1.427 . S
N827 C825 1.384 . S
H828 C834 0.930 . S
H829 C838 0.930 . S
H830 C843 0.929 . S
H831 C841 0.929 . S
H832 C836 0.929 1_655 S
H833 C842 0.929 1_455 S
C834 H828 0.930 . S
C834 C835 1.367 . S
C834 C842 1.378 . S
C835 C834 1.367 . S
C835 C843 1.433 . S
C836 H832 0.929 1_455 S
C836 C838 1.378 . S
C836 C840 1.350 . S
C837 C840 1.463 1_655 S
C837 C842 1.350 . S
C837 N845 1.427 . S
C838 H829 0.930 . S
C838 C836 1.378 . S
C838 C839 1.367 . S
C839 C838 1.367 . S
C839 C841 1.433 . S
C840 C836 1.350 . S
C840 C837 1.463 1_455 S
C840 N844 1.427 . S
C841 H831 0.929 . S
C841 C839 1.433 . S
C841 N844 1.384 . S
C842 H833 0.929 1_655 S
C842 C834 1.378 . S
C842 C837 1.350 . S
C843 H830 0.929 . S
C843 C835 1.433 . S
C843 N845 1.384 . S
N844 C840 1.427 . S
N844 C841 1.384 . S
N845 C837 1.427 . S
N845 C843 1.384 . S
C367 C47 1.579 . S
C371 C2 1.624 . S
C385 C87 1.575 . S
C389 C42 1.622 . S
C403 C82 1.622 . S
C407 C7 1.580 . S
C421 C96 1.469 . S
C425 C51 1.423 . S
C439 C91 1.420 . S
C443 C16 1.467 . S
C457 C11 1.432 . S
C461 C56 1.474 . S
C475 C122 1.620 . S
C479 C167 1.572 1_655 S
C493 C207 1.574 . S
C497 C162 1.621 . S
C511 C202 1.623 . S
C515 C127 1.577 1_545 S
C529 C171 1.432 . S
C533 C216 1.473 . S
C547 C211 1.431 . S
C551 C136 1.473 . S
C565 C176 1.468 . S
C569 C131 1.421 . S
C583 C287 1.583 . S
C587 C242 1.625 . S
C601 C282 1.625 . S
C605 C327 1.581 . S
C619 C322 1.616 . S
C623 C247 1.570 . S
C637 C336 1.474 . S
C641 C291 1.432 . S
C655 C331 1.432 . S
C659 C256 1.474 . S
C673 C251 1.426 . S
C677 C296 1.471 . S
C691 C210 2.568 . S
C695 C19 2.294 . S
C709 C130 2.572 . S
C713 C59 2.298 . S
C727 C99 2.296 . S
C731 C170 2.572 . S
C745 C90 2.569 . S
C749 C259 2.297 . S
C763 C10 2.571 . S
C767 C299 2.298 . S
C781 C339 2.287 . S
C785 C50 2.571 . S
C799 C139 2.299 . S
C803 C330 2.571 . S
C817 C179 2.289 . S
C821 C250 2.568 . S
C835 C290 2.568 . S
C839 C219 2.287 . S
