# Generated by pormake.
# Topology und, (4)-cn, num edge types: 1
# Building blocks:
#     Node 0, Type 0, BuildingBlock: NAHDIM_clean_sbu_0, # of connection points: 4
#     Node 1, Type 0, BuildingBlock: NAHDIM_clean_sbu_0, # of connection points: 4
#     Node 2, Type 0, BuildingBlock: NAHDIM_clean_sbu_0, # of connection points: 4
#     Node 3, Type 0, BuildingBlock: NAHDIM_clean_sbu_0, # of connection points: 4
#     Node 4, Type 0, BuildingBlock: NAHDIM_clean_sbu_0, # of connection points: 4
#     Node 5, Type 0, BuildingBlock: NAHDIM_clean_sbu_0, # of connection points: 4
#     Node 6, Type 0, BuildingBlock: NAHDIM_clean_sbu_0, # of connection points: 4
#     Node 7, Type 0, BuildingBlock: NAHDIM_clean_sbu_0, # of connection points: 4
#     Node 8, Type 0, BuildingBlock: NAHDIM_clean_sbu_0, # of connection points: 4
#     Node 9, Type 0, BuildingBlock: NAHDIM_clean_sbu_0, # of connection points: 4
#     Node 10, Type 0, BuildingBlock: NAHDIM_clean_sbu_0, # of connection points: 4
#     Node 11, Type 0, BuildingBlock: NAHDIM_clean_sbu_0, # of connection points: 4
#     Node 12, Type 0, BuildingBlock: NAHDIM_clean_sbu_0, # of connection points: 4
#     Node 13, Type 0, BuildingBlock: NAHDIM_clean_sbu_0, # of connection points: 4
#     Node 14, Type 0, BuildingBlock: NAHDIM_clean_sbu_0, # of connection points: 4
#     Node 15, Type 0, BuildingBlock: NAHDIM_clean_sbu_0, # of connection points: 4
#     Edge 16, Type (0, 0), BuildingBlock: ZUJKAS_clean_linker_0, # of connection points: 2
#     Edge 17, Type (0, 0), BuildingBlock: ZUJKAS_clean_linker_0, # of connection points: 2
#     Edge 18, Type (0, 0), BuildingBlock: ZUJKAS_clean_linker_0, # of connection points: 2
#     Edge 19, Type (0, 0), BuildingBlock: ZUJKAS_clean_linker_0, # of connection points: 2
#     Edge 20, Type (0, 0), BuildingBlock: ZUJKAS_clean_linker_0, # of connection points: 2
#     Edge 21, Type (0, 0), BuildingBlock: ZUJKAS_clean_linker_0, # of connection points: 2
#     Edge 22, Type (0, 0), BuildingBlock: ZUJKAS_clean_linker_0, # of connection points: 2
#     Edge 23, Type (0, 0), BuildingBlock: ZUJKAS_clean_linker_0, # of connection points: 2
#     Edge 24, Type (0, 0), BuildingBlock: ZUJKAS_clean_linker_0, # of connection points: 2
#     Edge 25, Type (0, 0), BuildingBlock: ZUJKAS_clean_linker_0, # of connection points: 2
#     Edge 26, Type (0, 0), BuildingBlock: ZUJKAS_clean_linker_0, # of connection points: 2
#     Edge 27, Type (0, 0), BuildingBlock: ZUJKAS_clean_linker_0, # of connection points: 2
#     Edge 28, Type (0, 0), BuildingBlock: ZUJKAS_clean_linker_0, # of connection points: 2
#     Edge 29, Type (0, 0), BuildingBlock: ZUJKAS_clean_linker_0, # of connection points: 2
#     Edge 30, Type (0, 0), BuildingBlock: ZUJKAS_clean_linker_0, # of connection points: 2
#     Edge 31, Type (0, 0), BuildingBlock: ZUJKAS_clean_linker_0, # of connection points: 2
#     Edge 32, Type (0, 0), BuildingBlock: ZUJKAS_clean_linker_0, # of connection points: 2
#     Edge 33, Type (0, 0), BuildingBlock: ZUJKAS_clean_linker_0, # of connection points: 2
#     Edge 34, Type (0, 0), BuildingBlock: ZUJKAS_clean_linker_0, # of connection points: 2
#     Edge 35, Type (0, 0), BuildingBlock: ZUJKAS_clean_linker_0, # of connection points: 2
#     Edge 36, Type (0, 0), BuildingBlock: ZUJKAS_clean_linker_0, # of connection points: 2
#     Edge 37, Type (0, 0), BuildingBlock: ZUJKAS_clean_linker_0, # of connection points: 2
#     Edge 38, Type (0, 0), BuildingBlock: ZUJKAS_clean_linker_0, # of connection points: 2
#     Edge 39, Type (0, 0), BuildingBlock: ZUJKAS_clean_linker_0, # of connection points: 2
#     Edge 40, Type (0, 0), BuildingBlock: ZUJKAS_clean_linker_0, # of connection points: 2
#     Edge 41, Type (0, 0), BuildingBlock: ZUJKAS_clean_linker_0, # of connection points: 2
#     Edge 42, Type (0, 0), BuildingBlock: ZUJKAS_clean_linker_0, # of connection points: 2
#     Edge 43, Type (0, 0), BuildingBlock: ZUJKAS_clean_linker_0, # of connection points: 2
#     Edge 44, Type (0, 0), BuildingBlock: ZUJKAS_clean_linker_0, # of connection points: 2
#     Edge 45, Type (0, 0), BuildingBlock: ZUJKAS_clean_linker_0, # of connection points: 2
#     Edge 46, Type (0, 0), BuildingBlock: ZUJKAS_clean_linker_0, # of connection points: 2
#     Edge 47, Type (0, 0), BuildingBlock: ZUJKAS_clean_linker_0, # of connection points: 2
# Relax obj value: 0.114
# Max RMSD: 0.175
# Mean RMSD: 0.175
data_MOF--net-und--node1-NAHDIM_clean_sbu_0--edge1-ZUJKAS_clean_linker_0
_symmetry_space_group_name_H-M    P1
_symmetry_Int_Tables_number       1
_symmetry_cell_setting            triclinic
loop_
_symmetry_equiv_pos_as_xyz
'x, y, z'
_cell_length_a     77.867571
_cell_length_b     77.922518
_cell_length_c     27.855461
_cell_angle_alpha  89.895434
_cell_angle_beta   90.088112
_cell_angle_gamma 96.490446
loop_
_atom_site_label
_atom_site_type_symbol
_atom_site_fract_x
_atom_site_fract_y
_atom_site_fract_z
_atom_type_partial_charge
C0 C 0.21245 0.36276 0.06892 0.0
O1 O 0.2282 0.36271 0.08586 0.0
O2 O 0.22977 0.32098 0.05599 0.0
Zn3 Zn 0.22554 0.33907 0.00779 0.0
O4 O 0.2472 0.35461 0.99395 0.0
C5 C 0.20932 0.31228 0.94789 0.0
O6 O 0.20338 0.30605 0.98926 0.0
O7 O 0.20775 0.35317 0.03336 0.0
C8 C 0.25967 0.34894 0.972 0.0
O9 O 0.25849 0.33253 0.96017 0.0
C10 C 0.24252 0.32156 0.08462 0.0
O11 O 0.25425 0.33508 0.08429 0.0
O12 O 0.21814 0.32701 0.94679 0.0
C13 C 0.89685 0.04682 0.22552 0.0
O14 O 0.91343 0.04949 0.21556 0.0
O15 O 0.9257 0.01577 0.21805 0.0
Zn16 Zn 0.90699 0.01596 0.26712 0.0
O17 O 0.89385 0.99247 0.27292 0.0
C18 C 0.93307 0.02983 0.33355 0.0
O19 O 0.94008 0.03708 0.29457 0.0
O20 O 0.89108 0.03335 0.24873 0.0
C21 C 0.90177 0.98028 0.28911 0.0
O22 O 0.91834 0.98339 0.29901 0.0
C23 C 0.92535 0.00548 0.18274 0.0
O24 O 0.91187 0.99395 0.17651 0.0
O25 O 0.91826 0.0212 0.33081 0.0
C26 C 0.26822 0.646 0.55831 0.0
O27 O 0.25353 0.64583 0.58162 0.0
O28 O 0.25021 0.68564 0.56992 0.0
Zn29 Zn 0.25301 0.67196 0.51009 0.0
O30 O 0.23048 0.65802 0.49311 0.0
C31 C 0.26633 0.70347 0.45982 0.0
O32 O 0.27149 0.70906 0.50251 0.0
O33 O 0.27118 0.65634 0.5232 0.0
C34 C 0.21983 0.66464 0.46596 0.0
O35 O 0.22369 0.6805 0.45024 0.0
C36 C 0.24018 0.69737 0.57239 0.0
O37 O 0.23094 0.70066 0.5347 0.0
O38 O 0.25946 0.68799 0.45507 0.0
C39 C 0.60806 0.98961 0.73081 0.0
O40 O 0.60987 0.00439 0.70756 0.0
O41 O 0.56639 0.00692 0.71455 0.0
Zn42 Zn 0.58184 0.00632 0.77207 0.0
O43 O 0.59721 0.02863 0.77902 0.0
C44 C 0.55263 -0.00507 0.8335 0.0
O45 O 0.54611 0.987 0.79488 0.0
O46 O 0.59645 0.98711 0.76281 0.0
C47 C 0.59188 0.04131 0.80089 0.0
O48 O 0.57594 0.03989 0.81703 0.0
C49 C 0.55346 0.0155 0.71346 0.0
O50 O 0.55018 0.02485 0.7508 0.0
O51 O 0.56772 0.00299 0.83196 0.0
C52 C 0.77762 0.65764 0.97299 0.0
O53 O 0.76219 0.65545 0.95326 0.0
O54 O 0.75967 0.70019 0.96663 0.0
Zn55 Zn 0.76175 0.68348 0.02028 0.0
O56 O 0.73925 0.66877 0.0299 0.0
C57 C 0.77304 0.71272 0.0792 0.0
O58 O 0.77935 0.71916 0.03844 0.0
O59 O 0.78073 0.6691 0.00514 0.0
C60 C 0.72657 0.67632 0.0443 0.0
O61 O 0.72868 0.69317 0.0499 0.0
C62 C 0.74957 0.69772 0.9309 0.0
O63 O 0.73951 0.68308 0.92705 0.0
O64 O 0.76621 0.69714 0.08055 0.0
C65 C 0.10727 0.98771 0.79727 0.0
O66 O 0.10978 0.00373 0.81262 0.0
O67 O 0.06279 0.00273 0.81149 0.0
Zn68 Zn 0.07862 0.00108 0.75577 0.0
O69 O 0.09239 0.02388 0.74265 0.0
C70 C 0.04867 0.98794 0.7012 0.0
O71 O 0.04309 0.98198 0.74318 0.0
O72 O 0.09439 0.98317 0.77032 0.0
C73 C 0.08502 0.03595 0.72361 0.0
O74 O 0.06832 0.03347 0.71513 0.0
C75 C 0.06454 0.01394 0.84466 0.0
O76 O 0.07792 0.02582 0.84431 0.0
O77 O 0.06401 -0.00467 0.69759 0.0
C78 C 0.70705 0.37137 0.45976 0.0
O79 O 0.72254 0.37205 0.44066 0.0
O80 O 0.72678 0.33188 0.45624 0.0
Zn81 Zn 0.72154 0.34621 0.51287 0.0
O82 O 0.74292 0.36164 0.53227 0.0
C83 C 0.71017 0.31461 0.56475 0.0
O84 O 0.70779 0.30786 0.52175 0.0
O85 O 0.7031 0.3608 0.49382 0.0
C86 C 0.7523 0.35731 0.56667 0.0
O87 O 0.74816 0.34248 0.58855 0.0
C88 C 0.73915 0.32257 0.45636 0.0
O89 O 0.74914 0.32251 0.49439 0.0
O90 O 0.71445 0.33076 0.5688 0.0
C91 C 0.39982 0.04982 0.30619 0.0
O92 O 0.41557 0.05044 0.32363 0.0
O93 O 0.42327 0.01448 0.31971 0.0
Zn94 Zn 0.40919 0.01913 0.26195 0.0
O95 O 0.39414 -0.00243 0.24286 0.0
C96 C 0.44029 0.03343 0.21202 0.0
O97 O 0.44597 0.03805 0.25506 0.0
O98 O 0.39437 0.03766 0.27781 0.0
C99 C 0.39905 0.98781 0.2103 0.0
O100 O 0.41423 0.99172 0.19019 0.0
C101 C 0.43478 0.00418 0.3185 0.0
O102 O 0.4372 -0.00421 0.27865 0.0
O103 O 0.42493 0.02625 0.20704 0.0
C104 C 0.71054 0.86272 0.55164 0.0
O105 O 0.7082 0.84625 0.56288 0.0
O106 O 0.7416 0.83379 0.55175 0.0
Zn107 Zn 0.73997 0.85235 0.50303 0.0
O108 O 0.76335 0.86531 0.49319 0.0
C109 C 0.724 0.82635 0.43995 0.0
O110 O 0.71728 0.81987 0.48021 0.0
O111 O 0.72319 0.8683 0.52501 0.0
C112 C 0.77518 0.85703 0.47659 0.0
O113 O 0.77175 0.84039 0.46853 0.0
C114 C 0.74974 0.83617 0.59108 0.0
O115 O 0.75769 0.85154 0.60097 0.0
O116 O 0.73305 0.84095 0.44071 0.0
C117 C 0.39553 0.5401 0.72147 0.0
O118 O 0.41095 0.54137 0.70179 0.0
O119 O 0.41818 0.50558 0.69165 0.0
Zn120 Zn 0.40552 0.50775 0.75338 0.0
O121 O 0.39069 0.4857 0.76857 0.0
C122 C 0.43729 0.52133 0.80258 0.0
O123 O 0.44143 0.52915 0.76171 0.0
O124 O 0.39054 0.52691 0.74684 0.0
C125 C 0.38635 0.48308 0.81214 0.0
O126 O 0.39151 0.49487 0.84432 0.0
C127 C 0.43093 0.49682 0.68899 0.0
O128 O 0.43529 0.48822 0.72689 0.0
O129 O 0.42272 0.51232 0.80669 0.0
C130 C 0.77303 0.15292 0.04174 0.0
O131 O 0.75755 0.15076 0.06107 0.0
O132 O 0.75553 0.19441 0.06046 0.0
Zn133 Zn 0.75782 0.1803 0.00102 0.0
O134 O 0.73561 0.16526 0.98749 0.0
C135 C 0.76635 0.21197 0.9466 0.0
O136 O 0.76972 0.21904 0.98883 0.0
O137 O 0.77664 0.16527 0.01231 0.0
C138 C 0.7242 0.17058 0.96025 0.0
O139 O 0.72678 0.18625 0.94226 0.0
C140 C 0.74326 0.20365 0.06623 0.0
O141 O 0.73139 0.20381 0.03275 0.0
O142 O 0.76253 0.19573 0.94369 0.0
C143 C 0.10771 0.48976 0.23612 0.0
O144 O 0.11141 0.50539 0.21852 0.0
O145 O 0.06255 0.5048 0.21656 0.0
Zn146 Zn 0.07914 0.5052 0.27158 0.0
O147 O 0.09361 0.52803 0.27688 0.0
C148 C 0.05061 0.49345 0.33305 0.0
O149 O 0.04427 0.48606 0.2935 0.0
O150 O 0.09426 0.48644 0.26169 0.0
C151 C 0.08713 0.54114 0.29275 0.0
O152 O 0.0706 0.53975 0.30346 0.0
C153 C 0.06295 0.51592 0.18311 0.0
O154 O 0.0751 0.52907 0.18299 0.0
O155 O 0.06566 0.50163 0.33247 0.0
C156 C 0.26662 0.14505 0.47909 0.0
O157 O 0.25227 0.14307 0.45386 0.0
O158 O 0.24851 0.18626 0.46476 0.0
Zn159 Zn 0.24825 0.17003 0.52049 0.0
O160 O 0.22583 0.15477 0.52399 0.0
C161 C 0.25595 0.19982 0.58073 0.0
O162 O 0.26296 0.20669 0.54129 0.0
O163 O 0.26804 0.15603 0.51288 0.0
C164 C 0.21226 0.16172 0.53374 0.0
O165 O 0.21333 0.17859 0.53822 0.0
C166 C 0.23913 0.18415 0.42747 0.0
O167 O 0.22795 0.17027 0.42347 0.0
O168 O 0.24995 0.18397 0.58088 0.0
C169 C 0.59145 0.48882 0.29014 0.0
O170 O 0.57527 0.48775 0.3042 0.0
O171 O 0.56635 0.52203 0.30734 0.0
Zn172 Zn 0.58308 0.52104 0.2529 0.0
O173 O 0.59813 0.54353 0.24596 0.0
C174 C 0.55659 0.50586 0.18769 0.0
O175 O 0.55149 0.49625 0.22492 0.0
O176 O 0.59775 0.50197 0.26631 0.0
C177 C 0.59217 0.55598 0.22444 0.0
O178 O 0.57607 0.55403 0.2094 0.0
C179 C 0.55188 0.52797 0.30321 0.0
O180 O 0.54778 0.53482 0.26223 0.0
O181 O 0.56999 0.51669 0.1913 0.0
C182 C 0.22195 0.86955 0.96926 0.0
O183 O 0.23708 0.8696 0.94835 0.0
O184 O 0.23734 0.82692 0.96659 0.0
Zn185 Zn 0.23616 0.84375 0.02026 0.0
O186 O 0.25905 0.8582 0.02721 0.0
C187 C 0.22326 0.81575 0.08359 0.0
O188 O 0.21629 0.80879 0.0442 0.0
O189 O 0.21812 0.85914 0.00375 0.0
C190 C 0.27015 0.85432 0.05768 0.0
O191 O 0.26677 0.84036 0.08403 0.0
C192 C 0.24702 0.81487 0.96851 0.0
O193 O 0.25684 0.81353 0.00641 0.0
O194 O 0.23111 0.83093 0.08199 0.0
C195 C 0.89807 0.54758 0.79967 0.0
O196 O 0.91407 0.54778 0.81487 0.0
O197 O 0.91877 0.51108 0.82408 0.0
Zn198 Zn 0.90405 0.51407 0.76643 0.0
O199 O 0.88718 0.49293 0.75582 0.0
C200 C 0.93484 0.52517 0.71201 0.0
O201 O 0.94041 0.53193 0.75311 0.0
O202 O 0.8911 0.5345 0.77684 0.0
C203 C 0.89028 0.48169 0.72493 0.0
O204 O 0.90491 0.48374 0.70109 0.0
C205 C 0.92941 0.49988 0.82512 0.0
O206 O 0.92998 0.48925 0.78876 0.0
O207 O 0.9195 0.51773 0.70906 0.0
H208 H 0.22138 0.29126 0.08972 0.0
H209 H 0.22279 0.26768 0.14678 0.0
H210 H 0.26796 0.29522 0.21227 0.0
H211 H 0.26662 0.31908 0.15538 0.0
H212 H 0.25074 0.24738 0.16499 0.0
H213 H 0.23306 0.28469 0.32417 0.0
H214 H 0.22967 0.29167 0.26339 0.0
H215 H 0.25095 0.29444 0.28912 0.0
C216 C 0.23164 0.29236 0.11622 0.0
C217 C 0.24382 0.30712 0.1183 0.0
C218 C 0.23244 0.27883 0.14865 0.0
C219 C 0.24535 0.27985 0.1839 0.0
C220 C 0.25776 0.29436 0.18562 0.0
H221 H 0.26226 0.21309 0.42366 0.0
H222 H 0.2646 0.23565 0.36251 0.0
C223 C 0.257 0.30793 0.15304 0.0
C224 C 0.24555 0.26575 0.21924 0.0
H225 H 0.23937 0.25621 0.33788 0.0
C226 C 0.2483 0.24927 0.20284 0.0
C227 C 0.24231 0.26834 0.26843 0.0
C228 C 0.23869 0.28569 0.2875 0.0
C229 C 0.24803 0.23525 0.23461 0.0
C230 C 0.2446 0.23781 0.28374 0.0
C231 C 0.24199 0.25433 0.30013 0.0
C232 C 0.24362 0.22355 0.319 0.0
C233 C 0.25167 0.21793 0.21548 0.0
C234 C 0.23098 0.20928 0.31475 0.0
C235 C 0.22962 0.19629 0.34965 0.0
C236 C 0.24077 0.19748 0.38951 0.0
C237 C 0.25345 0.21178 0.39343 0.0
C238 C 0.25483 0.22469 0.35853 0.0
H239 H 0.25846 0.21918 0.18037 0.0
H240 H 0.25964 0.21131 0.24117 0.0
H241 H 0.23926 0.20965 0.21015 0.0
H242 H 0.22198 0.20837 0.28496 0.0
H243 H 0.21968 0.18548 0.34575 0.0
H244 H 0.92293 0.01456 0.41886 0.0
H245 H 0.9415 0.00825 0.48589 0.0
H246 H 0.98552 0.03529 0.41373 0.0
H247 H 0.96705 0.04192 0.34693 0.0
H248 H 0.96855 0.98866 0.4758 0.0
H249 H 0.99186 0.05299 0.55053 0.0
H250 H 0.97332 0.04953 0.51129 0.0
H251 H -0.00517 0.05168 0.48682 0.0
C252 C 0.93649 0.01953 0.41773 0.0
C253 C 0.94354 0.02868 0.37745 0.0
C254 C 0.94707 0.01586 0.45601 0.0
C255 C 0.96484 0.02137 0.45483 0.0
C256 C 0.97178 0.03118 0.41574 0.0
H257 H 0.05552 0.00212 0.61261 0.0
H258 H 0.03454 0.00875 0.55205 0.0
C259 C 0.9612 0.03491 0.37748 0.0
C260 C 0.97639 0.01544 0.49204 0.0
H261 H 0.00748 0.02958 0.5736 0.0
C262 C 0.97693 -0.00241 0.49761 0.0
C263 C 0.98732 0.02714 0.52021 0.0
C264 C 0.98672 0.0464 0.51732 0.0
C265 C 0.98852 0.99112 0.52972 0.0
C266 C -0.00032 0.00283 0.55713 0.0
C267 C -0.00105 0.02066 0.55213 0.0
C268 C 0.01231 -0.00306 0.59124 0.0
C269 C 0.98909 0.97187 0.53311 0.0
C270 C 0.00672 0.98776 0.63273 0.0
C271 C 0.01867 0.98389 0.66744 0.0
C272 C 0.03639 0.98927 0.66125 0.0
C273 C 0.04198 -0.00221 0.61853 0.0
C274 C 0.03002 0.00166 0.58395 0.0
H275 H 0.98236 0.9649 0.50247 0.0
H276 H 0.00266 0.96877 0.53423 0.0
H277 H 0.98265 0.96699 0.56675 0.0
H278 H 0.99306 0.98419 0.63917 0.0
H279 H 0.01395 0.97737 0.69999 0.0
H280 H 0.22216 0.725 0.58756 0.0
H281 H 0.22334 0.74369 0.65826 0.0
H282 H 0.2587 0.7125 0.72668 0.0
H283 H 0.25777 0.69385 0.65609 0.0
H284 H 0.21565 0.73514 0.75621 0.0
H285 H 0.28429 0.76186 0.72973 0.0
H286 H 0.27163 0.75035 0.68316 0.0
H287 H 0.28032 0.7387 0.7315 0.0
C288 C 0.23014 0.72207 0.6177 0.0
C289 C 0.23998 0.70804 0.61608 0.0
C290 C 0.23079 0.73275 0.65802 0.0
C291 C 0.24132 0.72959 0.6972 0.0
C292 C 0.25075 0.71531 0.69634 0.0
H293 H 0.2648 0.78659 0.96254 0.0
H294 H 0.26314 0.765 0.89837 0.0
C295 C 0.25013 0.70464 0.65606 0.0
C296 C 0.24256 0.74138 0.73879 0.0
H297 H 0.27053 0.7704 0.79988 0.0
C298 C 0.22763 0.74286 0.76584 0.0
C299 C 0.25825 0.75134 0.75116 0.0
C300 C 0.27453 0.75065 0.72222 0.0
C301 C 0.22798 0.75405 0.80525 0.0
C302 C 0.24361 0.76421 0.81718 0.0
C303 C 0.25859 0.76255 0.79055 0.0
C304 C 0.24453 0.77713 0.85607 0.0
C305 C 0.21168 0.75481 0.83402 0.0
C306 C 0.23484 0.79119 0.85293 0.0
C307 C 0.23576 0.80351 0.88934 0.0
C308 C 0.24649 0.80204 0.92946 0.0
C309 C 0.2564 0.78806 0.93215 0.0
C310 C 0.25546 0.77572 0.89561 0.0
H311 H 0.20237 0.74308 0.82865 0.0
H312 H 0.21461 0.75623 0.87294 0.0
H313 H 0.20532 0.76616 0.82228 0.0
H314 H 0.22662 0.79268 0.82213 0.0
H315 H 0.22803 0.81417 0.88602 0.0
H316 H 0.47535 0.04223 0.21242 0.0
H317 H 0.49554 0.03778 0.1475 0.0
H318 H 0.45274 0.01964 0.05542 0.0
H319 H 0.43253 0.02428 0.11945 0.0
H320 H 0.49829 0.00572 0.10771 0.0
H321 H 0.48271 0.05185 0.96687 0.0
H322 H 0.4761 0.05365 0.02859 0.0
H323 H 0.46399 0.03864 0.9888 0.0
C324 C 0.47022 0.0377 0.17797 0.0
C325 C 0.45235 0.03355 0.17113 0.0
C326 C 0.48177 0.03512 0.14102 0.0
C327 C 0.47561 0.02851 0.09662 0.0
C328 C 0.45775 0.02506 0.08909 0.0
H329 H 0.51771 0.98636 0.84198 0.0
H330 H 0.49929 0.99364 0.90839 0.0
C331 C 0.44622 0.02764 0.12589 0.0
C332 C 0.48775 0.02358 0.05975 0.0
H333 H 0.49879 0.02902 0.9418 0.0
C334 C 0.49857 0.01096 0.07157 0.0
C335 C 0.48796 0.03037 0.01264 0.0
C336 C 0.47719 0.0445 -0.00147 0.0
C337 C 0.50929 0.00459 0.03707 0.0
C338 C 0.50925 0.01115 0.9898 0.0
C339 C 0.49861 0.02392 0.97809 0.0
C340 C 0.52047 0.00525 0.95206 0.0
C341 C 0.52026 0.9906 0.05102 0.0
C342 C 0.53844 0.00918 0.9552 0.0
C343 C 0.54898 0.00507 0.91745 0.0
C344 C 0.5417 -0.00301 0.87587 0.0
C345 C 0.52372 0.9925 0.87361 0.0
C346 C 0.51317 -0.00329 0.91135 0.0
H347 H 0.51604 0.98435 0.08557 0.0
H348 H 0.51982 0.98054 0.02272 0.0
H349 H 0.5339 -0.00367 0.05506 0.0
H350 H 0.54426 0.01596 0.98614 0.0
H351 H 0.56278 0.00872 0.92027 0.0
H352 H 0.23718 0.82613 0.17029 0.0
H353 H 0.24494 0.80767 0.23605 0.0
H354 H 0.22188 0.76269 0.16005 0.0
H355 H 0.2141 0.781 0.09386 0.0
H356 H 0.22429 0.78164 0.29382 0.0
H357 H 0.27381 0.75518 0.18062 0.0
H358 H 0.26446 0.77463 0.16512 0.0
H359 H 0.25246 0.75387 0.15524 0.0
C360 C 0.2335 0.81234 0.16783 0.0
C361 C 0.22518 0.80501 0.12661 0.0
C362 C 0.23796 0.80183 0.20542 0.0
C363 C 0.23427 0.78385 0.20229 0.0
C364 C 0.22508 0.77655 0.16258 0.0
H365 H 0.25487 0.69612 0.36877 0.0
H366 H 0.24849 0.7166 0.30679 0.0
C367 C 0.22054 0.78705 0.125 0.0
C368 C 0.24074 0.7727 0.2395 0.0
H369 H 0.26877 0.74266 0.25753 0.0
C370 C 0.23407 0.77316 0.28611 0.0
C371 C 0.25358 0.76179 0.22909 0.0
C372 C 0.26165 0.76137 0.17994 0.0
C373 C 0.23951 0.76251 0.32246 0.0
C374 C 0.25223 0.75146 0.31193 0.0
C375 C 0.25907 0.7512 0.26543 0.0
C376 C 0.25783 0.73928 0.34795 0.0
C377 C 0.23119 0.76276 0.37132 0.0
C378 C 0.26583 0.74527 0.39086 0.0
C379 C 0.2695 0.73357 0.42654 0.0
C380 C 0.26527 0.71572 0.41964 0.0
C381 C 0.25821 0.70978 0.37538 0.0
C382 C 0.25453 0.72147 0.33989 0.0
H383 H 0.21907 0.76904 0.37038 0.0
H384 H 0.22819 0.74945 0.38562 0.0
H385 H 0.24027 0.77011 0.39658 0.0
H386 H 0.26883 0.75899 0.39723 0.0
H387 H 0.27503 0.73855 0.46012 0.0
H388 H 0.43357 0.02057 0.40467 0.0
H389 H 0.45403 0.02052 0.47113 0.0
H390 H 0.48253 0.98515 0.39366 0.0
H391 H 0.46221 0.98525 0.32648 0.0
H392 H 0.46379 0.99277 0.52708 0.0
H393 H 0.51894 0.02641 0.42434 0.0
H394 H 0.49685 0.02556 0.40389 0.0
H395 H 0.50845 0.00705 0.3974 0.0
C396 C 0.44413 0.0127 0.40176 0.0
C397 C 0.44636 0.00301 0.36013 0.0
C398 C 0.45579 0.01268 0.43981 0.0
C399 C 0.46989 0.00306 0.43687 0.0
C400 C 0.47187 0.99291 0.39612 0.0
H401 H 0.55619 -0.00342 0.63188 0.0
H402 H 0.53577 0.99285 0.56498 0.0
C403 C 0.4602 0.99291 0.35795 0.0
C404 C 0.48266 0.00397 0.47629 0.0
H405 H 0.5246 0.0181 0.50377 0.0
C406 C 0.4771 -0.00173 0.52206 0.0
C407 C 0.49998 0.01116 0.4694 0.0
C408 C 0.50645 0.01804 0.42124 0.0
C409 C 0.48846 -0.00047 0.56131 0.0
C410 C 0.5057 0.00698 0.55459 0.0
C411 C 0.51134 0.01243 0.50867 0.0
C412 C 0.51806 0.00943 0.59493 0.0
C413 C 0.48196 0.99274 0.60951 0.0
C414 C 0.51498 0.02028 0.63338 0.0
C415 C 0.52662 0.02246 0.67167 0.0
C416 C 0.54156 0.01389 0.67196 0.0
C417 C 0.54477 0.00333 0.63282 0.0
C418 C 0.53313 0.00116 0.59458 0.0
H419 H 0.47007 0.9835 0.60597 0.0
H420 H 0.49196 0.9862 0.6285 0.0
H421 H 0.47882 0.00369 0.63202 0.0
H422 H 0.50359 0.02706 0.63373 0.0
H423 H 0.52381 0.03074 0.70115 0.0
H424 H 0.26395 0.23476 0.58898 0.0
H425 H 0.25453 0.25343 0.65195 0.0
H426 H 0.2298 0.20879 0.72653 0.0
H427 H 0.2393 0.19 0.66427 0.0
H428 H 0.2196 0.25553 0.6763 0.0
H429 H 0.25743 0.23602 0.83253 0.0
H430 H 0.26287 0.23125 0.77137 0.0
H431 H 0.24543 0.21843 0.80121 0.0
C432 C 0.25678 0.22888 0.61922 0.0
C433 C 0.25237 0.2109 0.62162 0.0
C434 C 0.25136 0.23957 0.65501 0.0
C435 C 0.24157 0.23245 0.69388 0.0
C436 C 0.23758 0.21449 0.69715 0.0
H437 H 0.19693 0.27809 0.94166 0.0
H438 H 0.20206 0.25829 0.87655 0.0
C439 C 0.24299 0.20379 0.66144 0.0
C440 C 0.23468 0.24386 0.7296 0.0
H441 H 0.23573 0.25419 0.84849 0.0
C442 C 0.22314 0.25529 0.71396 0.0
C443 C 0.23925 0.24337 0.77864 0.0
C444 C 0.25204 0.23172 0.79703 0.0
C445 C 0.21595 0.26627 0.74627 0.0
C446 C 0.22066 0.26589 0.79522 0.0
C447 C 0.23206 0.25432 0.81091 0.0
C448 C 0.21487 0.27813 0.83052 0.0
C449 C 0.2033 0.27803 0.72787 0.0
C450 C 0.21997 0.29588 0.82547 0.0
C451 C 0.21705 0.30722 0.86248 0.0
C452 C 0.20912 0.30097 0.90537 0.0
C453 C 0.20309 0.28331 0.90912 0.0
C454 C 0.20604 0.27197 0.87205 0.0
H455 H 0.19728 0.27327 0.69349 0.0
H456 H 0.19291 0.2793 0.75448 0.0
H457 H 0.21023 0.29106 0.7213 0.0
H458 H 0.22706 0.30085 0.79403 0.0
H459 H 0.22185 0.32075 0.85843 0.0
H460 H 0.03569 0.99095 0.85415 0.0
H461 H 0.01326 0.99054 0.91513 0.0
H462 H 0.04072 0.03537 0.98233 0.0
H463 H 0.06329 0.03605 0.92083 0.0
H464 H 0.01657 0.98776 0.01555 0.0
H465 H 0.99157 0.04902 0.96069 0.0
H466 H 0.00549 0.03794 0.92268 0.0
H467 H 0.01437 0.05046 0.97275 0.0
C468 C 0.03701 0.00076 0.88182 0.0
C469 C 0.05125 0.0136 0.88252 0.0
C470 C 0.02418 0.00047 0.91667 0.0
C471 C 0.02526 0.01303 0.95279 0.0
C472 C 0.03955 0.02573 0.95419 0.0
H473 H 0.95416 0.0289 0.184 0.0
H474 H 0.97889 0.03056 0.12977 0.0
C475 C 0.05245 0.02605 0.91921 0.0
C476 C 0.01136 0.01261 0.98889 0.0
H477 H 0.97861 0.03458 0.02825 0.0
C478 C 0.00828 -0.002 0.01848 0.0
C479 C 0.00062 0.02601 0.99242 0.0
C480 C 0.00302 0.04171 0.96026 0.0
C481 C -0.00533 -0.00359 0.05164 0.0
C482 C 0.98376 0.00968 0.05461 0.0
C483 C 0.98701 0.02443 0.02563 0.0
C484 C 0.96881 0.00845 0.0874 0.0
C485 C 0.99216 0.98065 0.08349 0.0
C486 C 0.95488 -0.00443 0.08103 0.0
C487 C 0.94068 -0.00543 0.11191 0.0
C488 C 0.9402 0.0065 0.14953 0.0
C489 C 0.95414 0.01948 0.15546 0.0
C490 C 0.96828 0.02047 0.12454 0.0
H491 H 0.00394 0.97383 0.08496 0.0
H492 H 0.98872 0.98419 0.12056 0.0
H493 H 0.98142 0.97153 0.0691 0.0
H494 H 0.95496 0.98635 0.05198 0.0
H495 H 0.93012 0.98448 0.10633 0.0
H496 H 0.76687 0.73011 0.93323 0.0
H497 H 0.76627 0.75299 0.87369 0.0
H498 H 0.73121 0.71945 0.78626 0.0
H499 H 0.73148 0.69644 0.84625 0.0
H500 H 0.77588 0.75259 0.77791 0.0
H501 H 0.70681 0.76313 0.79757 0.0
H502 H 0.71787 0.751 0.84074 0.0
H503 H 0.71051 0.74126 0.78488 0.0
C504 C 0.75897 0.72756 0.90144 0.0
C505 C 0.74916 0.71146 0.89451 0.0
C506 C 0.75867 0.74067 0.86746 0.0
C507 C 0.74854 0.73796 0.82596 0.0
C508 C 0.73885 0.72187 0.81857 0.0
H509 H 0.73348 0.80347 0.5818 0.0
H510 H 0.73366 0.7795 0.63824 0.0
C511 C 0.73908 0.70873 0.85272 0.0
C512 C 0.74851 0.75196 0.79018 0.0
H513 H 0.72262 0.77876 0.73596 0.0
C514 C 0.76425 0.75834 0.76873 0.0
C515 C 0.7333 0.75939 0.77844 0.0
C516 C 0.71617 0.75348 0.80185 0.0
C517 C 0.76517 0.77193 0.73549 0.0
C518 C 0.74999 0.77943 0.724 0.0
C519 C 0.73422 0.77295 0.74506 0.0
C520 C 0.75017 0.79398 0.68998 0.0
C521 C 0.78231 0.77802 0.71241 0.0
C522 C 0.75931 0.81007 0.70076 0.0
C523 C 0.75924 0.82385 0.66861 0.0
C524 C 0.74998 0.82171 0.62528 0.0
C525 C 0.74078 0.80555 0.61482 0.0
C526 C 0.74084 0.79183 0.64699 0.0
H527 H 0.79174 0.76843 0.71666 0.0
H528 H 0.78065 0.78058 0.67354 0.0
H529 H 0.78785 0.79024 0.72961 0.0
H530 H 0.76636 0.81201 0.73423 0.0
H531 H 0.76638 0.83615 0.67775 0.0
H532 H 0.76303 0.29957 0.44647 0.0
H533 H 0.76566 0.27955 0.37988 0.0
H534 H 0.72277 0.29913 0.30807 0.0
H535 H 0.72018 0.31928 0.37383 0.0
H536 H 0.74033 0.2538 0.34794 0.0
H537 H 0.75941 0.30091 0.20288 0.0
H538 H 0.76063 0.30666 0.26566 0.0
H539 H 0.7403 0.30532 0.23435 0.0
C540 C 0.75428 0.29975 0.41625 0.0
C541 C 0.74143 0.31105 0.41536 0.0
C542 C 0.75579 0.28829 0.37833 0.0
C543 C 0.74457 0.28806 0.33884 0.0
C544 C 0.7318 0.29937 0.33776 0.0
H545 H 0.72059 0.22703 0.08579 0.0
H546 H 0.72132 0.24691 0.15381 0.0
C547 C 0.73028 0.31081 0.37554 0.0
C548 C 0.74555 0.27541 0.29976 0.0
H549 H 0.74992 0.27203 0.17841 0.0
C550 C 0.74262 0.25775 0.31092 0.0
C551 C 0.74852 0.28065 0.25159 0.0
C552 C 0.75256 0.29941 0.23786 0.0
C553 C 0.742 0.24517 0.27482 0.0
C554 C 0.74459 0.25045 0.22656 0.0
C555 C 0.74783 0.26808 0.21551 0.0
C556 C 0.74383 0.23789 0.18679 0.0
C557 C 0.73809 0.22637 0.28833 0.0
C558 C 0.75626 0.22629 0.18301 0.0
C559 C 0.75589 0.21492 0.14424 0.0
C560 C 0.74311 0.21503 0.10852 0.0
C561 C 0.73058 0.22659 0.11273 0.0
C562 C 0.73099 0.23797 0.15147 0.0
H563 H 0.73282 0.22472 0.32531 0.0
H564 H 0.72867 0.21959 0.26286 0.0
H565 H 0.75016 0.22008 0.28661 0.0
H566 H 0.76642 0.22623 0.2096 0.0
H567 H 0.76577 0.20622 0.14196 0.0
H568 H 0.7671 0.24715 0.94335 0.0
H569 H 0.75702 0.26436 0.8777 0.0
H570 H 0.74846 0.21874 0.78961 0.0
H571 H 0.75831 0.20137 0.85506 0.0
H572 H 0.76764 0.26933 0.78091 0.0
H573 H 0.70064 0.23655 0.79525 0.0
H574 H 0.7168 0.23469 0.84095 0.0
H575 H 0.71698 0.22231 0.78663 0.0
C576 C 0.76334 0.24081 0.90977 0.0
C577 C 0.76331 0.22286 0.90462 0.0
C578 C 0.75753 0.25066 0.87239 0.0
C579 C 0.7516 0.24271 0.8294 0.0
C580 C 0.75259 0.22501 0.82302 0.0
H581 H 0.70891 0.27937 0.56667 0.0
H582 H 0.7179 0.2617 0.63286 0.0
C583 C 0.75836 0.21515 0.86035 0.0
C584 C 0.74388 0.25283 0.79181 0.0
H585 H 0.70632 0.25632 0.73089 0.0
C586 C 0.75423 0.26655 0.77005 0.0
C587 C 0.72636 0.24913 0.77792 0.0
C588 C 0.71447 0.23497 0.80163 0.0
C589 C 0.74759 0.27652 0.73399 0.0
C590 C 0.73008 0.27282 0.72012 0.0
C591 C 0.71973 0.25909 0.74181 0.0
C592 C 0.72242 0.28302 0.68262 0.0
C593 C 0.75946 0.29071 0.71036 0.0
C594 C 0.72122 0.30064 0.68966 0.0
C595 C 0.71607 0.31076 0.65207 0.0
C596 C 0.71201 0.30338 0.60682 0.0
C597 C 0.71202 0.28546 0.601 0.0
C598 C 0.71719 0.27535 0.6387 0.0
H599 H 0.77329 0.28929 0.7172 0.0
H600 H 0.75727 0.29086 0.67096 0.0
H601 H 0.75677 0.30337 0.72495 0.0
H602 H 0.72487 0.30669 0.72373 0.0
H603 H 0.71606 0.3245 0.65789 0.0
H604 H 0.78205 0.74762 0.08468 0.0
H605 H 0.77343 0.76714 0.14659 0.0
H606 H 0.74901 0.7236 0.22641 0.0
H607 H 0.75775 0.70398 0.16531 0.0
H608 H 0.73895 0.7698 0.17033 0.0
H609 H 0.77611 0.75221 0.32974 0.0
H610 H 0.78157 0.74637 0.26941 0.0
H611 H 0.76411 0.73409 0.30076 0.0
C612 C 0.7752 0.74216 0.11595 0.0
C613 C 0.77055 0.72425 0.12001 0.0
C614 C 0.77023 0.75334 0.15114 0.0
C615 C 0.76066 0.74678 0.19106 0.0
C616 C 0.75663 0.72889 0.19623 0.0
H617 H 0.71198 0.79215 0.43129 0.0
H618 H 0.71864 0.7727 0.36687 0.0
C619 C 0.7616 0.7177 0.16115 0.0
C620 C 0.75373 0.75866 0.22539 0.0
H621 H 0.75353 0.76971 0.34372 0.0
C622 C 0.7422 0.76988 0.20821 0.0
C623 C 0.75792 0.7586 0.27474 0.0
C624 C 0.77073 0.74729 0.29479 0.0
C625 C 0.73457 0.78093 0.23934 0.0
C626 C 0.73874 0.78082 0.28867 0.0
C627 C 0.75024 0.7696 0.30584 0.0
C628 C 0.7321 0.79285 0.32305 0.0
C629 C 0.72192 0.79241 0.2194 0.0
C630 C 0.73702 0.81066 0.31887 0.0
C631 C 0.73324 0.8218 0.35552 0.0
C632 C 0.72458 0.81529 0.39713 0.0
C633 C 0.71868 0.79758 0.39976 0.0
C634 C 0.72252 0.78643 0.36309 0.0
H635 H 0.71667 0.78774 0.18407 0.0
H636 H 0.71099 0.79322 0.24455 0.0
H637 H 0.72861 0.80564 0.2143 0.0
H638 H 0.74463 0.81582 0.28853 0.0
H639 H 0.73794 0.83538 0.35236 0.0
H640 H 0.56369 0.52393 0.1046 0.0
H641 H 0.54416 0.52677 0.03695 0.0
H642 H 0.50525 0.4911 0.10497 0.0
H643 H 0.52464 0.48819 0.173 0.0
H644 H 0.52589 0.50047 0.97464 0.0
H645 H 0.48249 0.53675 0.08401 0.0
H646 H 0.50425 0.53394 0.10241 0.0
H647 H 0.48723 0.51652 0.10896 0.0
C648 C 0.55105 0.51654 0.105 0.0
C649 C 0.54564 0.50594 0.14437 0.0
C650 C 0.53993 0.51818 0.06631 0.0
C651 C 0.52323 0.50936 0.06652 0.0
C652 C 0.51804 0.4982 0.10467 0.0
H653 H 0.43286 0.50533 0.88951 0.0
H654 H 0.45444 0.50331 0.95211 0.0
C655 C 0.52916 0.49649 0.14333 0.0
C656 C 0.51101 0.51232 0.02765 0.0
H657 H 0.47316 0.52904 0.00528 0.0
C658 C 0.51439 0.50678 0.98111 0.0
C659 C 0.49613 0.52066 0.03647 0.0
C660 C 0.4923 0.52746 0.08555 0.0
C661 C 0.50291 0.50886 0.94322 0.0
C662 C 0.4879 0.51702 0.95217 0.0
C663 C 0.48469 0.5228 -0.00138 0.0
C664 C 0.47488 0.51894 0.91443 0.0
C665 C 0.50664 0.50181 0.89437 0.0
C666 C 0.47915 0.52874 0.87294 0.0
C667 C 0.46682 0.52991 0.83687 0.0
C668 C 0.45002 0.52137 0.84197 0.0
C669 C 0.44569 0.51203 0.88433 0.0
C670 C 0.458 0.51084 0.92019 0.0
H671 H 0.51645 0.49252 0.89618 0.0
H672 H 0.49468 0.49524 0.87782 0.0
H673 H 0.51171 0.51263 0.87054 0.0
H674 H 0.49202 0.53539 0.86835 0.0
H675 H 0.47053 0.53727 0.80478 0.0
H676 H 0.05969 0.50829 0.4195 0.0
H677 H 0.04062 0.51291 0.48665 0.0
H678 H -0.00249 0.48605 0.41008 0.0
H679 H 0.01651 0.48113 0.34296 0.0
H680 H 0.01222 0.53142 0.47981 0.0
H681 H 0.99271 0.46462 0.54413 0.0
H682 H 0.01115 0.47007 0.50556 0.0
H683 H 0.98968 0.46747 0.48082 0.0
C684 C 0.04621 0.50309 0.41724 0.0
C685 C 0.03959 0.49436 0.37586 0.0
C686 C 0.03535 0.50578 0.45561 0.0
C687 C 0.01772 0.49972 0.4534 0.0
C688 C 0.01116 0.49056 0.4128 0.0
H689 H 0.9276 0.51077 0.62402 0.0
H690 H 0.9481 0.50579 0.56071 0.0
C691 C 0.02202 0.48782 0.37441 0.0
C692 C 0.00597 0.50411 0.49192 0.0
H693 H 0.9766 0.48653 0.57395 0.0
C694 C 0.00452 0.52163 0.50072 0.0
C695 C -0.00405 0.49128 0.5189 0.0
C696 C -0.00247 0.47231 0.51228 0.0
C697 C 0.99298 0.52666 0.53515 0.0
C698 C 0.98283 0.51382 0.56172 0.0
C699 C 0.98438 0.49632 0.55324 0.0
C700 C 0.97041 0.51821 0.59845 0.0
C701 C 0.99141 0.54563 0.54198 0.0
C702 C 0.97621 0.52704 0.6403 0.0
C703 C 0.96452 0.52996 0.67658 0.0
C704 C 0.94689 0.52398 0.67161 0.0
C705 C 0.9411 0.51556 0.62898 0.0
C706 C 0.95278 0.51265 0.59281 0.0
H707 H -0.00289 0.55352 0.51148 0.0
H708 H 0.97766 0.5479 0.546 0.0
H709 H -0.00162 0.55018 0.57518 0.0
H710 H 0.98983 0.5312 0.64553 0.0
H711 H 0.9694 0.53641 0.70906 0.0
H712 H 0.0574 0.53879 0.11142 0.0
H713 H 0.03437 0.53582 0.05094 0.0
H714 H 0.01556 0.48577 0.10833 0.0
H715 H 0.03821 0.48873 0.16925 0.0
H716 H 0.02683 0.51104 0.98068 0.0
H717 H 0.97251 0.51094 0.10929 0.0
H718 H -0.0053 0.51732 0.12619 0.0
H719 H 0.9866 0.49481 0.12223 0.0
C720 C 0.04835 0.52717 0.11117 0.0
C721 C 0.04953 0.51407 0.14537 0.0
C722 C 0.03522 0.52549 0.07662 0.0
C723 C 0.0231 0.51072 0.07582 0.0
C724 C 0.02454 0.49745 0.1091 0.0
H725 H 0.95379 0.47771 0.83986 0.0
H726 H 0.97648 0.4799 0.90118 0.0
C727 C 0.03756 0.49914 0.14373 0.0
C728 C 0.009 0.50907 0.03997 0.0
H729 H 0.9651 0.50319 0.02871 0.0
C730 C 0.01332 0.50939 0.99108 0.0
C731 C 0.99141 0.50714 0.05378 0.0
C732 C 0.98599 0.5077 0.10571 0.0
C733 C 0.00048 0.50756 0.9555 0.0
C734 C 0.9829 0.50499 0.96938 0.0
C735 C 0.9786 0.50493 0.01826 0.0
C736 C 0.96874 0.50303 0.93371 0.0
C737 C 0.00585 0.50877 0.90345 0.0
C738 C 0.95647 0.51488 0.93303 0.0
C739 C 0.94338 0.51354 0.89857 0.0
C740 C 0.94233 0.5003 0.86409 0.0
C741 C 0.95433 0.48812 0.86573 0.0
C742 C 0.96738 0.48943 0.90047 0.0
H743 H 0.01925 0.51517 0.8992 0.0
H744 H 0.00537 0.49556 0.88832 0.0
H745 H -0.003 0.51603 0.88217 0.0
H746 H 0.95724 0.52541 0.95859 0.0
H747 H 0.93434 0.52313 0.89833 0.0
H748 H 0.46192 0.4841 0.67606 0.0
H749 H 0.48147 0.48912 0.60752 0.0
H750 H 0.44437 0.51734 0.53556 0.0
H751 H 0.42486 0.51265 0.6041 0.0
H752 H 0.47717 0.48111 0.50955 0.0
H753 H 0.48804 0.552 0.53971 0.0
H754 H 0.47796 0.53719 0.58391 0.0
H755 H 0.46576 0.54343 0.5332 0.0
C756 C 0.45785 0.49125 0.6455 0.0
C757 C 0.44193 0.49813 0.6457 0.0
C758 C 0.46904 0.49411 0.60642 0.0
C759 C 0.46448 0.5039 0.56704 0.0
C760 C 0.44827 0.5101 0.56616 0.0
H761 H 0.51947 0.53833 0.30625 0.0
H762 H 0.4978 0.53236 0.36955 0.0
C763 C 0.43711 0.50731 0.60524 0.0
C764 C 0.47687 0.50795 0.52739 0.0
H765 H 0.50063 0.54137 0.47012 0.0
C766 C 0.48232 0.49427 0.50091 0.0
C767 C 0.48353 0.52515 0.51635 0.0
C768 C 0.47867 0.5403 0.545 0.0
C769 C 0.49422 0.49736 0.46328 0.0
C770 C 0.50095 0.51454 0.45247 0.0
C771 C 0.49537 0.52823 0.47859 0.0
C772 C 0.51415 0.51854 0.41492 0.0
C773 C 0.49937 0.48225 0.43505 0.0
C774 C 0.53059 0.51309 0.42026 0.0
C775 C 0.543 0.51653 0.38441 0.0
C776 C 0.53917 0.52552 0.34261 0.0
C777 C 0.5228 0.53135 0.33796 0.0
C778 C 0.51041 0.52794 0.37398 0.0
H779 H 0.49005 0.47049 0.44005 0.0
H780 H 0.5003 0.48536 0.39616 0.0
H781 H 0.51225 0.47925 0.44745 0.0
H782 H 0.5338 0.5061 0.4521 0.0
H783 H 0.55549 0.5119 0.3892 0.0
H784 H 0.13864 0.49316 0.18924 0.0
H785 H 0.15555 0.47015 0.16446 0.0
H786 H 0.1179 0.43222 0.22907 0.0
H787 H 0.10105 0.4552 0.25495 0.0
H788 H 0.15142 0.42616 0.24804 0.0
H789 H 0.14201 0.43736 0.05362 0.0
H790 H 0.15118 0.45634 0.08494 0.0
H791 H 0.12964 0.44686 0.09921 0.0
C792 C 0.13398 0.47993 0.19833 0.0
C793 C 0.11844 0.47597 0.22366 0.0
C794 C 0.1436 0.4668 0.18392 0.0
C795 C 0.13775 0.44949 0.19405 0.0
C796 C 0.12254 0.44552 0.22063 0.0
H797 H 0.17836 0.3642 0.04754 0.0
H798 H 0.1592 0.38392 0.08098 0.0
C799 C 0.11295 0.45866 0.23536 0.0
C800 C 0.14745 0.43553 0.17653 0.0
H801 H 0.16307 0.41874 0.07468 0.0
C802 C 0.15389 0.42443 0.21013 0.0
C803 C 0.15034 0.43313 0.12701 0.0
C804 C 0.14278 0.44394 0.08905 0.0
C805 C 0.16363 0.41129 0.19555 0.0
C806 C 0.16726 0.40948 0.14619 0.0
C807 C 0.16039 0.42026 0.11254 0.0
C808 C 0.17852 0.39681 0.12855 0.0
C809 C 0.16979 0.39939 0.23306 0.0
C810 C 0.19572 0.39758 0.14416 0.0
C811 C 0.20666 0.38629 0.12535 0.0
C812 C 0.20064 0.37419 0.09009 0.0
C813 C 0.18338 0.3734 0.07462 0.0
C814 C 0.17241 0.38463 0.09369 0.0
H815 H 0.16166 0.399 0.26588 0.0
H816 H 0.16969 0.38605 0.21907 0.0
H817 H 0.18323 0.40418 0.24357 0.0
H818 H 0.20081 0.40718 0.17012 0.0
H819 H 0.21991 0.3873 0.13779 0.0
H820 H 0.80184 0.84396 0.43053 0.0
H821 H 0.82843 0.86006 0.40002 0.0
H822 H 0.81283 0.90709 0.45856 0.0
H823 H 0.7864 0.89116 0.48952 0.0
H824 H 0.82946 0.88649 0.33379 0.0
H825 H 0.86326 0.90955 0.50013 0.0
H826 H 0.84597 0.89201 0.49977 0.0
H827 H 0.84118 0.91409 0.49984 0.0
C828 C 0.80422 0.85768 0.43762 0.0
C829 C 0.792 0.86631 0.46234 0.0
C830 C 0.8194 0.86684 0.42015 0.0
C831 C 0.82268 0.8847 0.4276 0.0
C832 C 0.81073 0.89324 0.45335 0.0
H833 H 0.86762 0.9698 0.27303 0.0
H834 H 0.85087 0.9436 0.30251 0.0
C835 C 0.79555 0.88413 0.47071 0.0
C836 C 0.83768 0.89484 0.40475 0.0
H837 H 0.87065 0.92631 0.42833 0.0
C838 C 0.83872 0.89494 0.35445 0.0
C839 C 0.84992 0.90561 0.43175 0.0
C840 C 0.85015 0.90519 0.48589 0.0
C841 C 0.85089 0.90648 0.33035 0.0
C842 C 0.86208 0.91834 0.35734 0.0
C843 C 0.8619 0.91734 0.40766 0.0
C844 C 0.87275 0.93302 0.33453 0.0
C845 C 0.85135 0.90618 0.27623 0.0
C846 C 0.89062 0.9358 0.34289 0.0
C847 C 0.90024 0.95086 0.3263 0.0
C848 C 0.89209 0.96347 0.30156 0.0
C849 C 0.87429 0.96035 0.29193 0.0
C850 C 0.86471 0.9453 0.30842 0.0
H851 H 0.8466 0.89316 0.26217 0.0
H852 H 0.84276 0.91543 0.26198 0.0
H853 H 0.86462 0.90995 0.26247 0.0
H854 H 0.89702 0.92651 0.36329 0.0
H855 H 0.91393 0.95288 0.33432 0.0
H856 H 0.30092 0.64516 0.52315 0.0
H857 H 0.32297 0.62762 0.55239 0.0
H858 H 0.2875 0.60484 0.65959 0.0
H859 H 0.26537 0.62218 0.63058 0.0
H860 H 0.33655 0.62713 0.64893 0.0
H861 H 0.30491 0.56306 0.5904 0.0
H862 H 0.29899 0.58312 0.56639 0.0
H863 H 0.29145 0.57576 0.62461 0.0
C864 C 0.29777 0.63632 0.55272 0.0
C865 C 0.28138 0.63501 0.57445 0.0
C866 C 0.31039 0.62637 0.56942 0.0
C867 C 0.30676 0.61485 0.60777 0.0
C868 C 0.29043 0.61348 0.62947 0.0
H869 H 0.36304 0.54147 0.75714 0.0
H870 H 0.34208 0.56085 0.73232 0.0
C871 C 0.27783 0.62345 0.61292 0.0
C872 C 0.32017 0.60452 0.6259 0.0
H873 H 0.32957 0.56313 0.64025 0.0
C874 C 0.33511 0.61314 0.64691 0.0
C875 C 0.31814 0.5863 0.62326 0.0
C876 C 0.30259 0.57647 0.59961 0.0
C877 C 0.34799 0.60395 0.66624 0.0
C878 C 0.34596 0.58571 0.66358 0.0
C879 C 0.33103 0.57712 0.64242 0.0
C880 C 0.35925 0.57518 0.68174 0.0
C881 C 0.36345 0.6138 0.69026 0.0
C882 C 0.37589 0.57695 0.66182 0.0
C883 C 0.38793 0.56595 0.67607 0.0
C884 C 0.38345 0.55286 0.7101 0.0
C885 C 0.36689 0.5514 0.7308 0.0
C886 C 0.35489 0.56244 0.71665 0.0
H887 H 0.36079 0.62696 0.70106 0.0
H888 H 0.36742 0.60685 0.72254 0.0
H889 H 0.37445 0.61519 0.66474 0.0
H890 H 0.3794 0.58647 0.63412 0.0
H891 H 0.40055 0.56737 0.65927 0.0
H892 H 0.71691 0.13628 0.98145 0.0
H893 H 0.69245 0.11652 0.95283 0.0
H894 H 0.67198 0.15862 0.87963 0.0
H895 H 0.69658 0.17844 0.90723 0.0
H896 H 0.65728 0.11643 0.9651 0.0
H897 H 0.67533 0.12351 0.77251 0.0
H898 H 0.68979 0.13132 0.82032 0.0
H899 H 0.67247 0.14337 0.80248 0.0
C900 C 0.70717 0.14137 0.95942 0.0
C901 C 0.70877 0.15889 0.94618 0.0
C902 C 0.69321 0.13006 0.94314 0.0
C903 C 0.6806 0.13607 0.91343 0.0
C904 C 0.68179 0.15367 0.90164 0.0
H905 H 0.58459 0.07093 0.8451 0.0
H906 H 0.60513 0.09532 0.8704 0.0
C907 C 0.69581 0.16498 0.91767 0.0
C908 C 0.66641 0.12377 0.89429 0.0
H909 H 0.64941 0.10593 0.79039 0.0
C910 C 0.65547 0.11417 0.92691 0.0
C911 C 0.66427 0.12078 0.84444 0.0
C912 C 0.67616 0.13016 0.80783 0.0
C913 C 0.64253 0.10147 0.91107 0.0
C914 C 0.64028 0.09858 0.8612 0.0
C915 C 0.65109 0.10832 0.82855 0.0
C916 C 0.62757 0.08469 0.8424 0.0
C917 C 0.63182 0.09082 0.94789 0.0
C918 C 0.63333 0.07103 0.81645 0.0
C919 C 0.62163 0.05718 0.80151 0.0
C920 C 0.60396 0.05675 0.81233 0.0
C921 C 0.59814 0.0708 0.83663 0.0
C922 C 0.60986 0.0847 0.85135 0.0
H923 H 0.63778 0.09197 0.98418 0.0
H924 H 0.61885 0.09537 0.95013 0.0
H925 H 0.63008 0.07697 0.93759 0.0
H926 H 0.64696 0.07085 0.80898 0.0
H927 H 0.62653 0.0466 0.78269 0.0
H928 H 0.07824 0.57061 0.3348 0.0
H929 H 0.09775 0.59583 0.36018 0.0
H930 H 0.14107 0.57282 0.30211 0.0
H931 H 0.12174 0.54778 0.27605 0.0
H932 H 0.12412 0.5949 0.42483 0.0
H933 H 0.14989 0.62203 0.2525 0.0
H934 H 0.13065 0.60679 0.25603 0.0
H935 H 0.15172 0.59935 0.25714 0.0
C936 C 0.09188 0.57107 0.32666 0.0
C937 C 0.09846 0.55718 0.30354 0.0
C938 C 0.10299 0.58547 0.34122 0.0
C939 C 0.12081 0.58627 0.33249 0.0
C940 C 0.12732 0.57264 0.30825 0.0
H941 H 0.20902 0.63074 0.48563 0.0
H942 H 0.18318 0.61348 0.4551 0.0
C943 C 0.11625 0.55827 0.29369 0.0
C944 C 0.13288 0.60047 0.35251 0.0
H945 H 0.16721 0.62965 0.32283 0.0
C946 C 0.13336 0.60273 0.4025 0.0
C947 C 0.14474 0.61082 0.32328 0.0
C948 C 0.14412 0.60976 0.26922 0.0
C949 C 0.14603 0.6144 0.42424 0.0
C950 C 0.1587 0.62378 0.39522 0.0
C951 C 0.15762 0.62225 0.34507 0.0
C952 C 0.1737 0.63456 0.4161 0.0
C953 C 0.14586 0.61641 0.47809 0.0
C954 C 0.17706 0.65205 0.40366 0.0
C955 C 0.1919 0.66191 0.42067 0.0
C956 C 0.20368 0.65441 0.45024 0.0
C957 C 0.20016 0.63692 0.46314 0.0
C958 C 0.18534 0.62707 0.44599 0.0
H959 H 0.13271 0.61281 0.49296 0.0
H960 H 0.1546 0.60772 0.49441 0.0
H961 H 0.15038 0.62988 0.48889 0.0
H962 H 0.16829 0.65803 0.38038 0.0
H963 H 0.19424 0.67536 0.41008 0.0
H964 H 0.6349 0.99168 0.66758 0.0
H965 H 0.65183 0.96861 0.64346 0.0
H966 H 0.62271 0.93349 0.74093 0.0
H967 H 0.60558 0.95649 0.76528 0.0
H968 H 0.67193 0.94783 0.70409 0.0
H969 H 0.61811 0.90942 0.60673 0.0
H970 H 0.61751 0.93185 0.622 0.0
H971 H 0.61392 0.91552 0.66749 0.0
C972 C 0.6321 0.97907 0.68402 0.0
C973 C 0.61883 0.97587 0.71812 0.0
C974 C 0.6418 0.96593 0.67024 0.0
C975 C 0.63834 0.94936 0.69004 0.0
C976 C 0.62538 0.94617 0.72483 0.0
H977 H 0.68376 0.85553 0.6146 0.0
H978 H 0.66619 0.87605 0.65161 0.0
C979 C 0.61568 0.95934 0.7388 0.0
C980 C 0.64829 0.93546 0.67369 0.0
H981 H 0.64503 0.89836 0.60783 0.0
C982 C 0.66607 0.93695 0.68326 0.0
C983 C 0.64051 0.9213 0.64677 0.0
C984 C 0.62148 0.91938 0.63472 0.0
C985 C 0.67638 0.92468 0.66611 0.0
C986 C 0.66871 0.91081 0.63786 0.0
C987 C 0.65084 0.90906 0.62939 0.0
C988 C 0.67915 0.89839 0.61514 0.0
C989 C 0.69538 0.92665 0.67848 0.0
C990 C 0.69194 0.90416 0.58164 0.0
C991 C 0.70198 0.89252 0.56047 0.0
C992 C 0.6993 0.87487 0.5722 0.0
C993 C 0.68617 0.86906 0.60491 0.0
C994 C 0.67614 0.88074 0.62612 0.0
H995 H 0.69815 0.93475 0.71097 0.0
H996 H 0.70005 0.91388 0.68472 0.0
H997 H 0.70281 0.93305 0.64818 0.0
H998 H 0.69417 0.91769 0.57187 0.0
H999 H 0.71192 0.8974 0.53518 0.0
H1000 H 0.37597 0.47333 0.90258 0.0
H1001 H 0.35686 0.44773 0.92622 0.0
H1002 H 0.35285 0.43124 0.77852 0.0
H1003 H 0.37189 0.45695 0.75431 0.0
H1004 H 0.32111 0.43162 0.82447 0.0
H1005 H 0.36565 0.3968 0.93385 0.0
H1006 H 0.36559 0.41903 0.95068 0.0
H1007 H 0.3732 0.41378 0.89218 0.0
C1008 C 0.37116 0.4642 0.8751 0.0
C1009 C 0.37541 0.46719 0.82654 0.0
C1010 C 0.36036 0.4495 0.88876 0.0
C1011 C 0.35369 0.43748 0.85419 0.0
C1012 C 0.35801 0.44032 0.80574 0.0
H1013 H 0.28818 0.34154 0.92196 0.0
H1014 H 0.31179 0.36213 0.8914 0.0
C1015 C 0.36886 0.45502 0.79201 0.0
C1016 C 0.34112 0.42272 0.86838 0.0
H1017 H 0.33533 0.38795 0.94372 0.0
C1018 C 0.32427 0.42194 0.85006 0.0
C1019 C 0.34535 0.41005 0.90142 0.0
C1020 C 0.36348 0.40981 0.92036 0.0
C1021 C 0.3113 0.40921 0.8655 0.0
C1022 C 0.3153 0.39712 0.90048 0.0
C1023 C 0.33231 0.39741 0.91728 0.0
C1024 C 0.30175 0.38455 0.9213 0.0
C1025 C 0.29336 0.40892 0.84472 0.0
C1026 C 0.28862 0.3904 0.94917 0.0
C1027 C 0.27519 0.37874 0.96673 0.0
C1028 C 0.27467 0.36101 0.95671 0.0
C1029 C 0.28818 0.35512 0.9301 0.0
C1030 C 0.30167 0.36683 0.91264 0.0
H1031 H 0.29342 0.4162 0.81037 0.0
H1032 H 0.2875 0.39545 0.83839 0.0
H1033 H 0.28505 0.41499 0.87053 0.0
H1034 H 0.28866 0.40403 0.95678 0.0
H1035 H 0.26506 0.38369 0.98737 0.0
H1036 H 0.80722 0.1559 0.01657 0.0
H1037 H 0.82915 0.13785 0.04377 0.0
H1038 H 0.7906 0.10671 0.12672 0.0
H1039 H 0.76861 0.12454 0.09969 0.0
H1040 H 0.8382 0.13223 0.14203 0.0
H1041 H 0.81465 0.07116 0.04869 0.0
H1042 H 0.80819 0.09182 0.03113 0.0
H1043 H 0.7984 0.08055 0.08228 0.0
C1044 C 0.80338 0.14511 0.04023 0.0
C1045 C 0.78618 0.14163 0.05596 0.0
C1046 C 0.81592 0.13485 0.05575 0.0
C1047 C 0.81141 0.12087 0.08675 0.0
C1048 C 0.79425 0.11728 0.10214 0.0
H1049 H 0.86204 0.04513 0.24049 0.0
H1050 H 0.84202 0.06395 0.20675 0.0
C1051 C 0.78173 0.12755 0.08683 0.0
C1052 C 0.82475 0.11048 0.10501 0.0
H1053 H 0.83595 0.06945 0.1093 0.0
C1054 C 0.83785 0.11854 0.13457 0.0
C1055 C 0.82414 0.09264 0.09522 0.0
C1056 C 0.81069 0.08352 0.06225 0.0
C1057 C 0.85012 0.10906 0.15594 0.0
C1058 C 0.84937 0.09116 0.14667 0.0
C1059 C 0.83642 0.08317 0.11645 0.0
C1060 C 0.86172 0.08036 0.16852 0.0
C1061 C 0.8634 0.11816 0.18945 0.0
C1062 C 0.87943 0.0834 0.15816 0.0
C1063 C 0.89093 0.07271 0.17753 0.0
C1064 C 0.88487 0.05873 0.20725 0.0
C1065 C 0.86712 0.05581 0.21778 0.0
C1066 C 0.85566 0.06651 0.19848 0.0
H1067 H 0.85963 0.13076 0.2018 0.0
H1068 H 0.86534 0.11004 0.22138 0.0
H1069 H 0.87593 0.12067 0.1704 0.0
H1070 H 0.88431 0.09383 0.13438 0.0
H1071 H 0.9045 0.07525 0.1685 0.0
H1072 H 0.77473 0.63168 0.90695 0.0
H1073 H 0.79756 0.6154 0.87745 0.0
H1074 H 0.8344 0.64457 0.97025 0.0
H1075 H 0.81157 0.66079 0.00061 0.0
H1076 H 0.82849 0.62843 0.83151 0.0
H1077 H 0.84081 0.59419 0.00144 0.0
H1078 H 0.82172 0.60494 0.99228 0.0
H1079 H 0.84204 0.6173 0.00564 0.0
C1080 C 0.78766 0.63458 0.92136 0.0
C1081 C 0.79133 0.64747 0.95629 0.0
C1082 C 0.80068 0.6253 0.90435 0.0
C1083 C 0.81759 0.6287 0.92203 0.0
C1084 C 0.82135 0.64158 0.95678 0.0
H1085 H 0.90768 0.57551 0.8569 0.0
H1086 H 0.88957 0.5973 0.88399 0.0
C1087 C 0.80831 0.65085 0.97395 0.0
C1088 C 0.83126 0.61885 0.90336 0.0
H1089 H 0.85853 0.58945 0.93533 0.0
C1090 C 0.83513 0.61996 0.85419 0.0
C1091 C 0.83992 0.6079 0.93321 0.0
C1092 C 0.83587 0.60585 0.98602 0.0
C1093 C 0.84731 0.6102 0.83385 0.0
C1094 C 0.85562 0.59892 0.86344 0.0
C1095 C 0.85213 0.59818 0.91285 0.0
C1096 C 0.86707 0.58686 0.8435 0.0
C1097 C 0.85116 0.61202 0.7809 0.0
C1098 C 0.86039 0.57386 0.81165 0.0
C1099 C 0.87065 0.5614 0.7962 0.0
C1100 C 0.88776 0.56167 0.81259 0.0
C1101 C 0.89456 0.57497 0.84359 0.0
C1102 C 0.88425 0.58741 0.85913 0.0
H1103 H 0.8477 0.62448 0.76651 0.0
H1104 H 0.86504 0.61112 0.77356 0.0
H1105 H 0.84342 0.60143 0.76124 0.0
H1106 H 0.84705 0.57304 0.79993 0.0
H1107 H 0.86502 0.55132 0.77237 0.0
H1108 H 0.18183 0.17226 0.56486 0.0
H1109 H 0.15625 0.15398 0.59357 0.0
H1110 H 0.1805 0.10848 0.55899 0.0
H1111 H 0.20602 0.12656 0.5298 0.0
H1112 H 0.14461 0.10667 0.53414 0.0
H1113 H 0.15834 0.12766 0.72274 0.0
H1114 H 0.15638 0.14443 0.67928 0.0
H1115 H 0.17411 0.13163 0.67545 0.0
C1116 C 0.18164 0.15836 0.56279 0.0
C1117 C 0.19603 0.15084 0.54559 0.0
C1118 C 0.16705 0.14796 0.57938 0.0
C1119 C 0.16666 0.12993 0.57906 0.0
C1120 C 0.18062 0.1224 0.55967 0.0
H1121 H 0.1195 0.04524 0.73746 0.0
H1122 H 0.13731 0.06994 0.70272 0.0
C1123 C 0.1952 0.13275 0.54311 0.0
C1124 C 0.15224 0.11878 0.60138 0.0
H1125 H 0.13494 0.10635 0.7102 0.0
C1126 C 0.14229 0.10672 0.57252 0.0
C1127 C 0.14944 0.11887 0.65153 0.0
C1128 C 0.16017 0.13123 0.68431 0.0
C1129 C 0.12988 0.09436 0.59272 0.0
C1130 C 0.12731 0.09424 0.64297 0.0
C1131 C 0.13691 0.10662 0.67165 0.0
C1132 C 0.11605 0.08027 0.66686 0.0
C1133 C 0.12021 0.081 0.56053 0.0
C1134 C 0.09814 0.07821 0.65913 0.0
C1135 C 0.08789 0.06408 0.67896 0.0
C1136 C 0.09544 0.05183 0.70678 0.0
C1137 C 0.1133 0.05437 0.71597 0.0
C1138 C 0.1235 0.06849 0.69624 0.0
H1139 H 0.1257 0.08123 0.52371 0.0
H1140 H 0.12045 0.06786 0.57579 0.0
H1141 H 0.10651 0.08355 0.55784 0.0
H1142 H 0.09215 0.08733 0.63707 0.0
H1143 H 0.07416 0.06252 0.67141 0.0
H1144 H 0.6734 0.37196 0.4874 0.0
H1145 H 0.65262 0.39052 0.45603 0.0
H1146 H 0.69151 0.41489 0.36025 0.0
H1147 H 0.71225 0.39626 0.3907 0.0
H1148 H 0.65489 0.42619 0.45714 0.0
H1149 H 0.65092 0.40178 0.27008 0.0
H1150 H 0.66031 0.39039 0.31822 0.0
H1151 H 0.67261 0.4085 0.28963 0.0
C1152 C 0.67751 0.38122 0.4595 0.0
C1153 C 0.69445 0.38259 0.44136 0.0
C1154 C 0.66562 0.39179 0.44163 0.0
C1155 C 0.67046 0.40384 0.40525 0.0
C1156 C 0.68741 0.40538 0.3875 0.0
H1157 H 0.6252 0.48677 0.26604 0.0
H1158 H 0.64379 0.46547 0.29399 0.0
C1159 C 0.69927 0.39479 0.4052 0.0
C1160 C 0.658 0.4153 0.38712 0.0
H1161 H 0.63851 0.42787 0.28508 0.0
C1162 C 0.65117 0.42646 0.41962 0.0
C1163 C 0.65321 0.41559 0.33813 0.0
C1164 C 0.65951 0.40331 0.30204 0.0
C1165 C 0.64 0.43827 0.40419 0.0
C1166 C 0.63544 0.43873 0.35511 0.0
C1167 C 0.64211 0.42747 0.32267 0.0
C1168 C 0.62393 0.45106 0.33673 0.0
C1169 C 0.63353 0.45047 0.44019 0.0
C1170 C 0.60656 0.44972 0.35084 0.0
C1171 C 0.5959 0.46182 0.3349 0.0
C1172 C 0.60246 0.47544 0.30456 0.0
C1173 C 0.61978 0.47647 0.28954 0.0
C1174 C 0.63041 0.46432 0.3054 0.0
H1175 H 0.64099 0.45085 0.47428 0.0
H1176 H 0.63427 0.46376 0.42526 0.0
H1177 H 0.61979 0.44617 0.44857 0.0
H1178 H 0.6013 0.43939 0.37448 0.0
H1179 H 0.58261 0.46062 0.34697 0.0
H1180 H 0.40349 0.96741 0.13269 0.0
H1181 H 0.38321 0.94385 0.1012 0.0
H1182 H 0.34826 0.95048 0.21796 0.0
H1183 H 0.36824 0.97431 0.2491 0.0
H1184 H 0.36955 0.91297 0.14013 0.0
H1185 H 0.31788 0.95435 0.10064 0.0
H1186 H 0.33969 0.96314 0.11527 0.0
H1187 H 0.32478 0.95567 0.16213 0.0
C1188 C 0.3915 0.96383 0.15175 0.0
C1189 C 0.38737 0.97284 0.1931 0.0
C1190 C 0.37995 0.95036 0.13371 0.0
C1191 C 0.36411 0.94568 0.15673 0.0
C1192 C 0.36024 0.95421 0.19901 0.0
H1193 H 0.29277 0.85378 0.13242 0.0
H1194 H 0.31699 0.87535 0.15165 0.0
C1195 C 0.37171 0.96775 0.21689 0.0
C1196 C 0.35154 0.93198 0.13636 0.0
H1197 H 0.30984 0.92392 0.09787 0.0
C1198 C 0.35653 0.91536 0.13049 0.0
C1199 C 0.3347 0.93525 0.12283 0.0
C1200 C 0.32898 0.95311 0.12503 0.0
C1201 C 0.34488 0.90173 0.11301 0.0
C1202 C 0.32774 0.9048 0.1022 0.0
C1203 C 0.32296 0.92156 0.10657 0.0
C1204 C 0.31427 0.89079 0.08794 0.0
C1205 C 0.35111 0.88426 0.10603 0.0
C1206 C 0.30457 0.89239 0.04599 0.0
C1207 C 0.29052 0.88023 0.03533 0.0
C1208 C 0.28595 0.86624 0.06643 0.0
C1209 C 0.29603 0.86436 0.10759 0.0
C1210 C 0.30997 0.87661 0.11847 0.0
H1211 H 0.36532 0.88542 0.10047 0.0
H1212 H 0.34813 0.87631 0.13868 0.0
H1213 H 0.34466 0.87738 0.07486 0.0
H1214 H 0.30764 0.90327 0.02205 0.0
H1215 H 0.28303 0.882 0.00325 0.0
H1216 H 0.77166 0.35419 0.64727 0.0
H1217 H 0.7954 0.3745 0.67741 0.0
H1218 H 0.79082 0.40718 0.55395 0.0
H1219 H 0.76673 0.38716 0.52413 0.0
H1220 H 0.82665 0.38582 0.63962 0.0
H1221 H 0.78797 0.44068 0.66373 0.0
H1222 H 0.7782 0.41897 0.65211 0.0
H1223 H 0.78708 0.43243 0.60358 0.0
C1224 C 0.77569 0.3657 0.62649 0.0
C1225 C 0.76722 0.36916 0.58353 0.0
C1226 C 0.78927 0.37728 0.64377 0.0
C1227 C 0.79464 0.39249 0.61839 0.0
C1228 C 0.78657 0.39573 0.57472 0.0
H1229 H 0.89027 0.45914 0.65011 0.0
H1230 H 0.86734 0.43667 0.62726 0.0
C1231 C 0.77288 0.38423 0.55759 0.0
C1232 C 0.80872 0.40494 0.63759 0.0
H1233 H 0.81851 0.44705 0.67046 0.0
C1234 C 0.82487 0.39919 0.64665 0.0
C1235 C 0.80625 0.42228 0.6476 0.0
C1236 C 0.78889 0.42893 0.64175 0.0
C1237 C 0.83875 0.41045 0.66438 0.0
C1238 C 0.8365 0.42799 0.67211 0.0
C1239 C 0.82024 0.43362 0.6641 0.0
C1240 C 0.85086 0.44086 0.68767 0.0
C1241 C 0.85559 0.40337 0.67523 0.0
C1242 C 0.84909 0.45089 0.72878 0.0
C1243 C 0.86207 0.46395 0.74154 0.0
C1244 C 0.87706 0.46718 0.7134 0.0
C1245 C 0.87894 0.45689 0.67276 0.0
C1246 C 0.86589 0.44395 0.65979 0.0
H1247 H 0.8536 0.38922 0.68193 0.0
H1248 H 0.86434 0.40565 0.6439 0.0
H1249 H 0.86209 0.40979 0.70702 0.0
H1250 H 0.83755 0.44876 0.75067 0.0
H1251 H 0.86025 0.47164 0.7731 0.0
H1252 H 0.26744 0.12078 0.40907 0.0
H1253 H 0.29223 0.1066 0.38309 0.0
H1254 H 0.32394 0.13412 0.49138 0.0
H1255 H 0.29913 0.14828 0.51813 0.0
H1256 H 0.32392 0.12365 0.34889 0.0
H1257 H 0.33295 0.08339 0.51031 0.0
H1258 H 0.31323 0.09291 0.49915 0.0
H1259 H 0.33206 0.10602 0.52094 0.0
C1260 C 0.27963 0.12371 0.42774 0.0
C1261 C 0.28132 0.13564 0.46569 0.0
C1262 C 0.29378 0.11562 0.41276 0.0
C1263 C 0.30983 0.11925 0.43555 0.0
C1264 C 0.31156 0.13098 0.47384 0.0
H1265 H 0.40583 0.07487 0.37483 0.0
H1266 H 0.38536 0.09384 0.40554 0.0
C1267 C 0.29739 0.13908 0.48895 0.0
C1268 C 0.32485 0.11116 0.41775 0.0
H1269 H 0.35297 0.08229 0.44728 0.0
C1270 C 0.33034 0.11466 0.37043 0.0
C1271 C 0.33324 0.09958 0.44618 0.0
C1272 C 0.32755 0.0951 0.49687 0.0
C1273 C 0.34385 0.10663 0.3504 0.0
C1274 C 0.35186 0.09462 0.37828 0.0
C1275 C 0.34676 0.09153 0.42611 0.0
C1276 C 0.36466 0.08417 0.35748 0.0
C1277 C 0.3494 0.111 0.29953 0.0
C1278 C 0.35975 0.07252 0.32033 0.0
C1279 C 0.37135 0.06168 0.30279 0.0
C1280 C 0.38806 0.06224 0.32229 0.0
C1281 C 0.39306 0.07416 0.35897 0.0
C1282 C 0.3814 0.08498 0.37661 0.0
H1283 H 0.34568 0.12376 0.28831 0.0
H1284 H 0.36359 0.11112 0.29538 0.0
H1285 H 0.34295 0.10108 0.27493 0.0
H1286 H 0.34677 0.07149 0.30574 0.0
H1287 H 0.36708 0.05262 0.2746 0.0
H1288 H 0.62635 0.5636 0.2469 0.0
H1289 H 0.64611 0.58794 0.21783 0.0
H1290 H 0.60402 0.60819 0.14394 0.0
H1291 H 0.58414 0.58377 0.17243 0.0
H1292 H 0.63214 0.60476 0.08567 0.0
H1293 H 0.65302 0.63914 0.25333 0.0
H1294 H 0.65494 0.61643 0.25631 0.0
H1295 H 0.63392 0.62369 0.25012 0.0
C1296 C 0.62122 0.57337 0.22512 0.0
C1297 C 0.6037 0.57171 0.21177 0.0
C1298 C 0.63251 0.58733 0.20881 0.0
C1299 C 0.62647 0.59994 0.17919 0.0
C1300 C 0.60889 0.59862 0.16699 0.0
H1301 H 0.69829 0.68819 0.08509 0.0
H1302 H 0.67213 0.67103 0.11441 0.0
C1303 C 0.59757 0.58466 0.18333 0.0
C1304 C 0.63883 0.61351 0.15736 0.0
H1305 H 0.67136 0.64508 0.18451 0.0
C1306 C 0.64054 0.61377 0.1072 0.0
C1307 C 0.64961 0.62536 0.18549 0.0
C1308 C 0.64769 0.62629 0.23927 0.0
C1309 C 0.65337 0.62501 0.08456 0.0
C1310 C 0.66488 0.63605 0.11295 0.0
C1311 C 0.6626 0.63643 0.1629 0.0
C1312 C 0.68 0.64655 0.09192 0.0
C1313 C 0.65465 0.62478 0.03053 0.0
C1314 C 0.69302 0.63842 0.06951 0.0
C1315 C 0.70797 0.64815 0.05279 0.0
C1316 C 0.71018 0.66618 0.05844 0.0
C1317 C 0.69695 0.67432 0.0801 0.0
C1318 C 0.68202 0.66456 0.09694 0.0
H1319 H 0.64217 0.61961 0.01378 0.0
H1320 H 0.65858 0.63794 0.01612 0.0
H1321 H 0.66452 0.61633 0.01982 0.0
H1322 H 0.69183 0.62449 0.06613 0.0
H1323 H 0.71793 0.64148 0.03639 0.0
H1324 H 0.18824 0.87004 -0.00363 0.0
H1325 H 0.16763 0.88891 0.96568 0.0
H1326 H 0.20713 0.9144 0.8736 0.0
H1327 H 0.22766 0.89539 0.90316 0.0
H1328 H 0.1688 0.9239 0.96927 0.0
H1329 H 0.16779 0.90209 0.77999 0.0
H1330 H 0.17709 0.89043 0.82768 0.0
H1331 H 0.1892 0.9091 0.80119 0.0
C1332 C 0.19252 0.87963 0.96947 0.0
C1333 C 0.20954 0.88115 0.95193 0.0
C1334 C 0.18073 0.89038 0.95198 0.0
C1335 C 0.18578 0.9028 0.9167 0.0
C1336 C 0.20285 0.90458 0.89987 0.0
H1337 H 0.13754 0.99399 0.84687 0.0
H1338 H 0.1561 0.97291 0.87579 0.0
C1339 C 0.2146 0.89378 0.91707 0.0
C1340 C 0.17336 0.9143 0.8985 0.0
H1341 H 0.15534 0.92817 0.79578 0.0
C1342 C 0.16574 0.92475 0.93139 0.0
C1343 C 0.16919 0.91516 0.84916 0.0
C1344 C 0.1761 0.90347 0.81252 0.0
C1345 C 0.15442 0.93642 0.9161 0.0
C1346 C 0.15098 0.93794 0.86648 0.0
C1347 C 0.1582 0.92713 0.83374 0.0
C1348 C 0.13998 0.95072 0.84778 0.0
C1349 C 0.14615 0.94689 0.95329 0.0
C1350 C 0.12513 0.94527 0.82083 0.0
C1351 C 0.11461 0.95732 0.80365 0.0
C1352 C 0.11879 0.97501 0.81321 0.0
C1353 C 0.13388 0.98044 0.83933 0.0
C1354 C 0.14444 0.96841 0.85617 0.0
H1355 H 0.14601 0.94067 0.98924 0.0
H1356 H 0.15367 0.95982 0.95628 0.0
H1357 H 0.13267 0.94868 0.94317 0.0
H1358 H 0.12155 0.93168 0.81366 0.0
H1359 H 0.10308 0.95273 0.78357 0.0
loop_
_geom_bond_atom_site_label_1
_geom_bond_atom_site_label_2
_geom_bond_distance
_geom_bond_site_symmetry_2
_ccdc_geom_bond_type
C0 O1 1.160 . S
C0 O7 1.185 . S
O1 C0 1.160 . S
O2 Zn3 1.899 . S
O2 C10 1.284 . S
Zn3 O2 1.899 . S
Zn3 O4 2.032 . S
Zn3 O7 2.086 . S
Zn3 O12 1.977 1_554 S
O4 Zn3 2.032 . S
O4 C8 1.278 1_554 S
C5 O6 1.203 . S
C5 O12 1.267 . S
O6 C5 1.203 . S
O7 C0 1.185 . S
O7 Zn3 2.086 . S
C8 O4 1.278 1_556 S
C8 O9 1.211 . S
O9 C8 1.211 . S
C10 O2 1.284 . S
C10 O11 1.273 . S
O11 C10 1.273 . S
O12 Zn3 1.977 1_556 S
O12 C5 1.267 . S
C13 O14 1.160 . S
C13 O20 1.185 . S
O14 C13 1.160 . S
O15 Zn16 1.899 . S
O15 C23 1.284 . S
Zn16 O15 1.899 . S
Zn16 O17 2.032 . S
Zn16 O20 2.086 . S
Zn16 O25 1.977 . S
O17 Zn16 2.032 . S
O17 C21 1.278 1_545 S
C18 O19 1.203 . S
C18 O25 1.267 . S
O19 C18 1.203 . S
O20 C13 1.185 . S
O20 Zn16 2.086 . S
C21 O17 1.278 1_565 S
C21 O22 1.211 . S
O22 C21 1.211 . S
C23 O15 1.284 . S
C23 O24 1.273 1_545 S
O24 C23 1.273 1_565 S
O25 Zn16 1.977 . S
O25 C18 1.267 . S
C26 O27 1.160 . S
C26 O33 1.185 . S
O27 C26 1.160 . S
O28 Zn29 1.899 . S
O28 C36 1.284 . S
Zn29 O28 1.899 . S
Zn29 O30 2.032 . S
Zn29 O33 2.086 . S
Zn29 O38 1.977 . S
O30 Zn29 2.032 . S
O30 C34 1.278 . S
C31 O32 1.203 . S
C31 O38 1.267 . S
O32 C31 1.203 . S
O33 C26 1.185 . S
O33 Zn29 2.086 . S
C34 O30 1.278 . S
C34 O35 1.211 . S
O35 C34 1.211 . S
C36 O28 1.284 . S
C36 O37 1.273 . S
O37 C36 1.273 . S
O38 Zn29 1.977 . S
O38 C31 1.267 . S
C39 O40 1.160 . S
C39 O46 1.185 . S
O40 C39 1.160 . S
O41 Zn42 1.899 . S
O41 C49 1.284 . S
Zn42 O41 1.899 . S
Zn42 O43 2.032 . S
Zn42 O46 2.086 1_545 S
Zn42 O51 1.977 . S
O43 Zn42 2.032 . S
O43 C47 1.278 . S
C44 O45 1.203 . S
C44 O51 1.267 . S
O45 C44 1.203 . S
O46 C39 1.185 . S
O46 Zn42 2.086 1_565 S
C47 O43 1.278 . S
C47 O48 1.211 . S
O48 C47 1.211 . S
C49 O41 1.284 . S
C49 O50 1.273 . S
O50 C49 1.273 . S
O51 Zn42 1.977 . S
O51 C44 1.267 . S
C52 O53 1.160 . S
C52 O59 1.185 1_556 S
O53 C52 1.160 . S
O54 Zn55 1.899 1_556 S
O54 C62 1.284 . S
Zn55 O54 1.899 1_554 S
Zn55 O56 2.032 . S
Zn55 O59 2.086 . S
Zn55 O64 1.977 . S
O56 Zn55 2.032 . S
O56 C60 1.278 . S
C57 O58 1.203 . S
C57 O64 1.267 . S
O58 C57 1.203 . S
O59 C52 1.185 1_554 S
O59 Zn55 2.086 . S
C60 O56 1.278 . S
C60 O61 1.211 . S
O61 C60 1.211 . S
C62 O54 1.284 . S
C62 O63 1.273 . S
O63 C62 1.273 . S
O64 Zn55 1.977 . S
O64 C57 1.267 . S
C65 O66 1.160 . S
C65 O72 1.185 . S
O66 C65 1.160 . S
O67 Zn68 1.899 . S
O67 C75 1.284 . S
Zn68 O67 1.899 . S
Zn68 O69 2.032 . S
Zn68 O72 2.086 1_545 S
Zn68 O77 1.977 . S
O69 Zn68 2.032 . S
O69 C73 1.278 . S
C70 O71 1.203 . S
C70 O77 1.267 . S
O71 C70 1.203 . S
O72 C65 1.185 . S
O72 Zn68 2.086 1_565 S
C73 O69 1.278 . S
C73 O74 1.211 . S
O74 C73 1.211 . S
C75 O67 1.284 . S
C75 O76 1.273 . S
O76 C75 1.273 . S
O77 Zn68 1.977 . S
O77 C70 1.267 . S
C78 O79 1.160 . S
C78 O85 1.185 . S
O79 C78 1.160 . S
O80 Zn81 1.899 . S
O80 C88 1.284 . S
Zn81 O80 1.899 . S
Zn81 O82 2.032 . S
Zn81 O85 2.086 . S
Zn81 O90 1.977 . S
O82 Zn81 2.032 . S
O82 C86 1.278 . S
C83 O84 1.203 . S
C83 O90 1.267 . S
O84 C83 1.203 . S
O85 C78 1.185 . S
O85 Zn81 2.086 . S
C86 O82 1.278 . S
C86 O87 1.211 . S
O87 C86 1.211 . S
C88 O80 1.284 . S
C88 O89 1.273 . S
O89 C88 1.273 . S
O90 Zn81 1.977 . S
O90 C83 1.267 . S
C91 O92 1.160 . S
C91 O98 1.185 . S
O92 C91 1.160 . S
O93 Zn94 1.899 . S
O93 C101 1.284 . S
Zn94 O93 1.899 . S
Zn94 O95 2.032 . S
Zn94 O98 2.086 . S
Zn94 O103 1.977 . S
O95 Zn94 2.032 . S
O95 C99 1.278 1_545 S
C96 O97 1.203 . S
C96 O103 1.267 . S
O97 C96 1.203 . S
O98 C91 1.185 . S
O98 Zn94 2.086 . S
C99 O95 1.278 1_565 S
C99 O100 1.211 . S
O100 C99 1.211 . S
C101 O93 1.284 . S
C101 O102 1.273 1_545 S
O102 C101 1.273 1_565 S
O103 Zn94 1.977 . S
O103 C96 1.267 . S
C104 O105 1.160 . S
C104 O111 1.185 . S
O105 C104 1.160 . S
O106 Zn107 1.899 . S
O106 C114 1.284 . S
Zn107 O106 1.899 . S
Zn107 O108 2.032 . S
Zn107 O111 2.086 . S
Zn107 O116 1.977 . S
O108 Zn107 2.032 . S
O108 C112 1.278 . S
C109 O110 1.203 . S
C109 O116 1.267 . S
O110 C109 1.203 . S
O111 C104 1.185 . S
O111 Zn107 2.086 . S
C112 O108 1.278 . S
C112 O113 1.211 . S
O113 C112 1.211 . S
C114 O106 1.284 . S
C114 O115 1.273 . S
O115 C114 1.273 . S
O116 Zn107 1.977 . S
O116 C109 1.267 . S
C117 O118 1.160 . S
C117 O124 1.185 . S
O118 C117 1.160 . S
O119 Zn120 1.899 . S
O119 C127 1.284 . S
Zn120 O119 1.899 . S
Zn120 O121 2.032 . S
Zn120 O124 2.086 . S
Zn120 O129 1.977 . S
O121 Zn120 2.032 . S
O121 C125 1.278 . S
C122 O123 1.203 . S
C122 O129 1.267 . S
O123 C122 1.203 . S
O124 C117 1.185 . S
O124 Zn120 2.086 . S
C125 O121 1.278 . S
C125 O126 1.211 . S
O126 C125 1.211 . S
C127 O119 1.284 . S
C127 O128 1.273 . S
O128 C127 1.273 . S
O129 Zn120 1.977 . S
O129 C122 1.267 . S
C130 O131 1.160 . S
C130 O137 1.185 . S
O131 C130 1.160 . S
O132 Zn133 1.899 . S
O132 C140 1.284 . S
Zn133 O132 1.899 . S
Zn133 O134 2.032 . S
Zn133 O137 2.086 . S
Zn133 O142 1.977 1_554 S
O134 Zn133 2.032 . S
O134 C138 1.278 1_554 S
C135 O136 1.203 . S
C135 O142 1.267 . S
O136 C135 1.203 . S
O137 C130 1.185 . S
O137 Zn133 2.086 . S
C138 O134 1.278 1_556 S
C138 O139 1.211 . S
O139 C138 1.211 . S
C140 O132 1.284 . S
C140 O141 1.273 . S
O141 C140 1.273 . S
O142 Zn133 1.977 1_556 S
O142 C135 1.267 . S
C143 O144 1.160 . S
C143 O150 1.185 . S
O144 C143 1.160 . S
O145 Zn146 1.899 . S
O145 C153 1.284 . S
Zn146 O145 1.899 . S
Zn146 O147 2.032 . S
Zn146 O150 2.086 . S
Zn146 O155 1.977 . S
O147 Zn146 2.032 . S
O147 C151 1.278 . S
C148 O149 1.203 . S
C148 O155 1.267 . S
O149 C148 1.203 . S
O150 C143 1.185 . S
O150 Zn146 2.086 . S
C151 O147 1.278 . S
C151 O152 1.211 . S
O152 C151 1.211 . S
C153 O145 1.284 . S
C153 O154 1.273 . S
O154 C153 1.273 . S
O155 Zn146 1.977 . S
O155 C148 1.267 . S
C156 O157 1.160 . S
C156 O163 1.185 . S
O157 C156 1.160 . S
O158 Zn159 1.899 . S
O158 C166 1.284 . S
Zn159 O158 1.899 . S
Zn159 O160 2.032 . S
Zn159 O163 2.086 . S
Zn159 O168 1.977 . S
O160 Zn159 2.032 . S
O160 C164 1.278 . S
C161 O162 1.203 . S
C161 O168 1.267 . S
O162 C161 1.203 . S
O163 C156 1.185 . S
O163 Zn159 2.086 . S
C164 O160 1.278 . S
C164 O165 1.211 . S
O165 C164 1.211 . S
C166 O158 1.284 . S
C166 O167 1.273 . S
O167 C166 1.273 . S
O168 Zn159 1.977 . S
O168 C161 1.267 . S
C169 O170 1.160 . S
C169 O176 1.185 . S
O170 C169 1.160 . S
O171 Zn172 1.899 . S
O171 C179 1.284 . S
Zn172 O171 1.899 . S
Zn172 O173 2.032 . S
Zn172 O176 2.086 . S
Zn172 O181 1.977 . S
O173 Zn172 2.032 . S
O173 C177 1.278 . S
C174 O175 1.203 . S
C174 O181 1.267 . S
O175 C174 1.203 . S
O176 C169 1.185 . S
O176 Zn172 2.086 . S
C177 O173 1.278 . S
C177 O178 1.211 . S
O178 C177 1.211 . S
C179 O171 1.284 . S
C179 O180 1.273 . S
O180 C179 1.273 . S
O181 Zn172 1.977 . S
O181 C174 1.267 . S
C182 O183 1.160 . S
C182 O189 1.185 1_556 S
O183 C182 1.160 . S
O184 Zn185 1.899 1_556 S
O184 C192 1.284 . S
Zn185 O184 1.899 1_554 S
Zn185 O186 2.032 . S
Zn185 O189 2.086 . S
Zn185 O194 1.977 . S
O186 Zn185 2.032 . S
O186 C190 1.278 . S
C187 O188 1.203 . S
C187 O194 1.267 . S
O188 C187 1.203 . S
O189 C182 1.185 1_554 S
O189 Zn185 2.086 . S
C190 O186 1.278 . S
C190 O191 1.211 . S
O191 C190 1.211 . S
C192 O184 1.284 . S
C192 O193 1.273 . S
O193 C192 1.273 . S
O194 Zn185 1.977 . S
O194 C187 1.267 . S
C195 O196 1.160 . S
C195 O202 1.185 . S
O196 C195 1.160 . S
O197 Zn198 1.899 . S
O197 C205 1.284 . S
Zn198 O197 1.899 . S
Zn198 O199 2.032 . S
Zn198 O202 2.086 . S
Zn198 O207 1.977 . S
O199 Zn198 2.032 . S
O199 C203 1.278 . S
C200 O201 1.203 . S
C200 O207 1.267 . S
O201 C200 1.203 . S
O202 C195 1.185 . S
O202 Zn198 2.086 . S
C203 O199 1.278 . S
C203 O204 1.211 . S
O204 C203 1.211 . S
C205 O197 1.284 . S
C205 O206 1.273 . S
O206 C205 1.273 . S
O207 Zn198 1.977 . S
O207 C200 1.267 . S
H208 C216 0.929 . S
H209 C218 0.930 . S
H210 C220 0.930 . S
H211 C223 0.929 . S
H212 C226 0.930 . S
H213 C228 0.960 . S
H214 C228 0.960 . S
H215 C228 0.960 . S
C216 H208 0.929 . S
C216 C217 1.377 . S
C216 C218 1.384 . S
C217 C216 1.377 . S
C217 C223 1.390 . S
C218 H209 0.930 . S
C218 C216 1.384 . S
C218 C219 1.372 . S
C219 C218 1.372 . S
C219 C220 1.400 . S
C219 C224 1.490 . S
C220 H210 0.930 . S
C220 C219 1.400 . S
C220 C223 1.386 . S
H221 C237 0.930 . S
H222 C238 0.931 . S
C223 H211 0.929 . S
C223 C217 1.390 . S
C223 C220 1.386 . S
C224 C219 1.490 . S
C224 C226 1.395 . S
C224 C227 1.403 . S
H225 C231 0.930 . S
C226 H212 0.930 . S
C226 C224 1.395 . S
C226 C229 1.403 . S
C227 C224 1.403 . S
C227 C228 1.524 . S
C227 C231 1.400 . S
C228 H213 0.960 . S
C228 H214 0.960 . S
C228 H215 0.960 . S
C228 C227 1.524 . S
C229 C226 1.403 . S
C229 C230 1.392 . S
C229 C233 1.495 . S
C230 C229 1.392 . S
C230 C231 1.385 . S
C230 C232 1.478 . S
C231 H225 0.930 . S
C231 C227 1.400 . S
C231 C230 1.385 . S
C232 C230 1.478 . S
C232 C234 1.381 . S
C232 C238 1.383 . S
C233 C229 1.495 . S
C233 H239 0.959 . S
C233 H240 0.961 . S
C233 H241 0.960 . S
C234 C232 1.381 . S
C234 C235 1.394 . S
C234 H242 0.930 . S
C235 C234 1.394 . S
C235 C236 1.383 . S
C235 H243 0.929 . S
C236 C235 1.383 . S
C236 C237 1.377 . S
C237 H221 0.930 . S
C237 C236 1.377 . S
C237 C238 1.379 . S
C238 H222 0.931 . S
C238 C232 1.383 . S
C238 C237 1.379 . S
H239 C233 0.959 . S
H240 C233 0.961 . S
H241 C233 0.960 . S
H242 C234 0.930 . S
H243 C235 0.929 . S
H244 C252 0.929 . S
H245 C254 0.930 . S
H246 C256 0.930 . S
H247 C259 0.929 . S
H248 C262 0.930 . S
H249 C264 0.960 . S
H250 C264 0.960 . S
H251 C264 0.960 . S
C252 H244 0.929 . S
C252 C253 1.377 . S
C252 C254 1.384 . S
C253 C252 1.377 . S
C253 C259 1.390 . S
C254 H245 0.930 . S
C254 C252 1.384 . S
C254 C255 1.372 . S
C255 C254 1.372 . S
C255 C256 1.400 . S
C255 C260 1.490 . S
C256 H246 0.930 . S
C256 C255 1.400 . S
C256 C259 1.386 . S
H257 C273 0.930 . S
H258 C274 0.924 1_565 S
C259 H247 0.929 . S
C259 C253 1.390 . S
C259 C256 1.386 . S
C260 C255 1.490 . S
C260 C262 1.395 . S
C260 C263 1.403 1_655 S
H261 C267 0.930 . S
C262 H248 0.930 . S
C262 C260 1.395 . S
C262 C265 1.403 . S
C263 C260 1.403 1_455 S
C263 C264 1.524 . S
C263 C267 1.400 . S
C264 H249 0.960 . S
C264 H250 0.960 . S
C264 H251 0.960 . S
C264 C263 1.524 . S
C265 C262 1.403 . S
C265 C266 1.392 1_655 S
C265 C269 1.495 1_545 S
C266 C265 1.392 1_455 S
C266 C267 1.385 . S
C266 C268 1.478 . S
C267 H261 0.930 . S
C267 C263 1.400 . S
C267 C266 1.385 . S
C268 C266 1.478 . S
C268 C270 1.381 . S
C268 C274 1.393 . S
C269 C265 1.495 1_565 S
C269 H275 0.959 . S
C269 H276 0.961 . S
C269 H277 0.960 1_565 S
C270 C268 1.381 . S
C270 C271 1.394 . S
C270 H278 0.930 . S
C271 C270 1.394 . S
C271 C272 1.383 . S
C271 H279 0.929 . S
C272 C271 1.383 . S
C272 C273 1.377 1_545 S
C273 H257 0.930 . S
C273 C272 1.377 1_565 S
C273 C274 1.376 1_565 S
C274 H258 0.924 1_545 S
C274 C268 1.393 . S
C274 C273 1.376 1_545 S
H275 C269 0.959 . S
H276 C269 0.961 . S
H277 C269 0.960 1_545 S
H278 C270 0.930 . S
H279 C271 0.929 . S
H280 C288 0.929 . S
H281 C290 0.930 . S
H282 C292 0.930 . S
H283 C295 0.929 . S
H284 C298 0.930 . S
H285 C300 0.960 . S
H286 C300 0.960 . S
H287 C300 0.960 . S
C288 H280 0.929 . S
C288 C289 1.377 . S
C288 C290 1.384 . S
C289 C288 1.377 . S
C289 C295 1.390 . S
C290 H281 0.930 . S
C290 C288 1.384 . S
C290 C291 1.372 . S
C291 C290 1.372 . S
C291 C292 1.400 . S
C291 C296 1.490 . S
C292 H282 0.930 . S
C292 C291 1.400 . S
C292 C295 1.386 . S
H293 C309 0.930 . S
H294 C310 0.931 . S
C295 H283 0.929 . S
C295 C289 1.390 . S
C295 C292 1.386 . S
C296 C291 1.490 . S
C296 C298 1.395 . S
C296 C299 1.403 . S
H297 C303 0.930 . S
C298 H284 0.930 . S
C298 C296 1.395 . S
C298 C301 1.403 . S
C299 C296 1.403 . S
C299 C300 1.524 . S
C299 C303 1.400 . S
C300 H285 0.960 . S
C300 H286 0.960 . S
C300 H287 0.960 . S
C300 C299 1.524 . S
C301 C298 1.403 . S
C301 C302 1.392 . S
C301 C305 1.495 . S
C302 C301 1.392 . S
C302 C303 1.385 . S
C302 C304 1.478 . S
C303 H297 0.930 . S
C303 C299 1.400 . S
C303 C302 1.385 . S
C304 C302 1.478 . S
C304 C306 1.381 . S
C304 C310 1.383 . S
C305 C301 1.495 . S
C305 H311 0.959 . S
C305 H312 0.961 . S
C305 H313 0.960 . S
C306 C304 1.381 . S
C306 C307 1.394 . S
C306 H314 0.930 . S
C307 C306 1.394 . S
C307 C308 1.383 . S
C307 H315 0.929 . S
C308 C307 1.383 . S
C308 C309 1.377 . S
C309 H293 0.930 . S
C309 C308 1.377 . S
C309 C310 1.379 . S
C310 H294 0.931 . S
C310 C304 1.383 . S
C310 C309 1.379 . S
H311 C305 0.959 . S
H312 C305 0.961 . S
H313 C305 0.960 . S
H314 C306 0.930 . S
H315 C307 0.929 . S
H316 C324 0.929 . S
H317 C326 0.930 . S
H318 C328 0.930 . S
H319 C331 0.929 . S
H320 C334 0.930 1_565 S
H321 C336 0.960 . S
H322 C336 0.960 . S
H323 C336 0.960 . S
C324 H316 0.929 . S
C324 C325 1.377 . S
C324 C326 1.384 . S
C325 C324 1.377 . S
C325 C331 1.390 . S
C326 H317 0.930 . S
C326 C324 1.384 . S
C326 C327 1.372 . S
C327 C326 1.372 . S
C327 C328 1.400 . S
C327 C332 1.490 . S
C328 H318 0.930 . S
C328 C327 1.400 . S
C328 C331 1.386 . S
H329 C345 0.930 . S
H330 C346 0.931 . S
C331 H319 0.929 . S
C331 C325 1.390 . S
C331 C328 1.386 . S
C332 C327 1.490 . S
C332 C334 1.395 . S
C332 C335 1.403 . S
H333 C339 0.930 1_556 S
C334 H320 0.930 1_545 S
C334 C332 1.395 . S
C334 C337 1.391 1_544 S
C335 C332 1.403 . S
C335 C336 1.524 . S
C335 C339 1.400 . S
C336 H321 0.960 . S
C336 H322 0.960 . S
C336 H323 0.960 . S
C336 C335 1.524 . S
C337 C334 1.391 1_566 S
C337 C338 1.365 1_565 S
C337 C341 1.536 . S
C338 C337 1.365 1_545 S
C338 C339 1.385 1_556 S
C338 C340 1.478 . S
C339 H333 0.930 1_554 S
C339 C335 1.400 . S
C339 C338 1.385 1_554 S
C340 C338 1.478 . S
C340 C342 1.381 1_545 S
C340 C346 1.383 . S
C341 C337 1.536 . S
C341 H347 0.959 . S
C341 H348 0.961 . S
C341 H349 0.960 . S
C342 C340 1.381 1_565 S
C342 C343 1.394 . S
C342 H350 0.930 . S
C343 C342 1.394 . S
C343 C344 1.383 1_565 S
C343 H351 0.929 . S
C344 C343 1.383 1_545 S
C344 C345 1.377 . S
C345 H329 0.930 . S
C345 C344 1.377 . S
C345 C346 1.379 . S
C346 H330 0.931 . S
C346 C340 1.383 . S
C346 C345 1.379 . S
H347 C341 0.959 . S
H348 C341 0.961 . S
H349 C341 0.960 . S
H350 C342 0.930 . S
H351 C343 0.929 . S
H352 C360 0.929 . S
H353 C362 0.930 . S
H354 C364 0.930 . S
H355 C367 0.929 . S
H356 C370 0.930 . S
H357 C372 0.960 . S
H358 C372 0.960 . S
H359 C372 0.960 . S
C360 H352 0.929 . S
C360 C361 1.377 . S
C360 C362 1.384 . S
C361 C360 1.377 . S
C361 C367 1.390 . S
C362 H353 0.930 . S
C362 C360 1.384 . S
C362 C363 1.372 . S
C363 C362 1.372 . S
C363 C364 1.400 . S
C363 C368 1.490 . S
C364 H354 0.930 . S
C364 C363 1.400 . S
C364 C367 1.386 . S
H365 C381 0.930 . S
H366 C382 0.931 . S
C367 H355 0.929 . S
C367 C361 1.390 . S
C367 C364 1.386 . S
C368 C363 1.490 . S
C368 C370 1.395 . S
C368 C371 1.403 . S
H369 C375 0.930 . S
C370 H356 0.930 . S
C370 C368 1.395 . S
C370 C373 1.403 . S
C371 C368 1.403 . S
C371 C372 1.524 . S
C371 C375 1.400 . S
C372 H357 0.960 . S
C372 H358 0.960 . S
C372 H359 0.960 . S
C372 C371 1.524 . S
C373 C370 1.403 . S
C373 C374 1.392 . S
C373 C377 1.495 . S
C374 C373 1.392 . S
C374 C375 1.385 . S
C374 C376 1.478 . S
C375 H369 0.930 . S
C375 C371 1.400 . S
C375 C374 1.385 . S
C376 C374 1.478 . S
C376 C378 1.381 . S
C376 C382 1.383 . S
C377 C373 1.495 . S
C377 H383 0.959 . S
C377 H384 0.961 . S
C377 H385 0.960 . S
C378 C376 1.381 . S
C378 C379 1.394 . S
C378 H386 0.930 . S
C379 C378 1.394 . S
C379 C380 1.383 . S
C379 H387 0.929 . S
C380 C379 1.383 . S
C380 C381 1.377 . S
C381 H365 0.930 . S
C381 C380 1.377 . S
C381 C382 1.379 . S
C382 H366 0.931 . S
C382 C376 1.383 . S
C382 C381 1.379 . S
H383 C377 0.959 . S
H384 C377 0.961 . S
H385 C377 0.960 . S
H386 C378 0.930 . S
H387 C379 0.929 . S
H388 C396 0.929 . S
H389 C398 0.930 . S
H390 C400 0.930 1_565 S
H391 C403 0.929 1_565 S
H392 C406 0.930 . S
H393 C408 0.960 . S
H394 C408 0.960 . S
H395 C408 0.960 . S
C396 H388 0.929 . S
C396 C397 1.377 . S
C396 C398 1.384 . S
C397 C396 1.377 . S
C397 C403 1.390 . S
C398 H389 0.930 . S
C398 C396 1.384 . S
C398 C399 1.372 . S
C399 C398 1.372 . S
C399 C400 1.400 . S
C399 C404 1.490 . S
C400 H390 0.930 1_545 S
C400 C399 1.400 . S
C400 C403 1.386 . S
H401 C417 0.930 1_565 S
H402 C418 0.931 1_565 S
C403 H391 0.929 1_545 S
C403 C397 1.390 . S
C403 C400 1.386 . S
C404 C399 1.490 . S
C404 C406 1.395 . S
C404 C407 1.403 . S
H405 C411 0.930 . S
C406 H392 0.930 . S
C406 C404 1.395 . S
C406 C409 1.403 . S
C407 C404 1.403 . S
C407 C408 1.524 . S
C407 C411 1.400 . S
C408 H393 0.960 . S
C408 H394 0.960 . S
C408 H395 0.960 . S
C408 C407 1.524 . S
C409 C406 1.403 . S
C409 C410 1.392 . S
C409 C413 1.495 . S
C410 C409 1.392 . S
C410 C411 1.385 . S
C410 C412 1.478 . S
C411 H405 0.930 . S
C411 C407 1.400 . S
C411 C410 1.385 . S
C412 C410 1.478 . S
C412 C414 1.381 . S
C412 C418 1.383 . S
C413 C409 1.495 . S
C413 H419 0.959 . S
C413 H420 0.961 . S
C413 H421 0.960 . S
C414 C412 1.381 . S
C414 C415 1.394 . S
C414 H422 0.930 . S
C415 C414 1.394 . S
C415 C416 1.383 . S
C415 H423 0.929 . S
C416 C415 1.383 . S
C416 C417 1.377 . S
C417 H401 0.930 1_545 S
C417 C416 1.377 . S
C417 C418 1.379 . S
C418 H402 0.931 1_545 S
C418 C412 1.383 . S
C418 C417 1.379 . S
H419 C413 0.959 . S
H420 C413 0.961 . S
H421 C413 0.960 . S
H422 C414 0.930 . S
H423 C415 0.929 . S
H424 C432 0.929 . S
H425 C434 0.930 . S
H426 C436 0.930 . S
H427 C439 0.929 . S
H428 C442 0.930 . S
H429 C444 0.960 . S
H430 C444 0.960 . S
H431 C444 0.960 . S
C432 H424 0.929 . S
C432 C433 1.377 . S
C432 C434 1.384 . S
C433 C432 1.377 . S
C433 C439 1.390 . S
C434 H425 0.930 . S
C434 C432 1.384 . S
C434 C435 1.372 . S
C435 C434 1.372 . S
C435 C436 1.400 . S
C435 C440 1.490 . S
C436 H426 0.930 . S
C436 C435 1.400 . S
C436 C439 1.386 . S
H437 C453 0.930 . S
H438 C454 0.931 . S
C439 H427 0.929 . S
C439 C433 1.390 . S
C439 C436 1.386 . S
C440 C435 1.490 . S
C440 C442 1.395 . S
C440 C443 1.403 . S
H441 C447 0.930 . S
C442 H428 0.930 . S
C442 C440 1.395 . S
C442 C445 1.403 . S
C443 C440 1.403 . S
C443 C444 1.524 . S
C443 C447 1.400 . S
C444 H429 0.960 . S
C444 H430 0.960 . S
C444 H431 0.960 . S
C444 C443 1.524 . S
C445 C442 1.403 . S
C445 C446 1.392 . S
C445 C449 1.495 . S
C446 C445 1.392 . S
C446 C447 1.385 . S
C446 C448 1.478 . S
C447 H441 0.930 . S
C447 C443 1.400 . S
C447 C446 1.385 . S
C448 C446 1.478 . S
C448 C450 1.381 . S
C448 C454 1.383 . S
C449 C445 1.495 . S
C449 H455 0.959 . S
C449 H456 0.961 . S
C449 H457 0.960 . S
C450 C448 1.381 . S
C450 C451 1.394 . S
C450 H458 0.930 . S
C451 C450 1.394 . S
C451 C452 1.383 . S
C451 H459 0.929 . S
C452 C451 1.383 . S
C452 C453 1.377 . S
C453 H437 0.930 . S
C453 C452 1.377 . S
C453 C454 1.379 . S
C454 H438 0.931 . S
C454 C448 1.383 . S
C454 C453 1.379 . S
H455 C449 0.959 . S
H456 C449 0.961 . S
H457 C449 0.960 . S
H458 C450 0.930 . S
H459 C451 0.929 . S
H460 C468 0.929 1_565 S
H461 C470 0.930 1_565 S
H462 C472 0.930 . S
H463 C475 0.929 . S
H464 C478 0.928 . S
H465 C480 0.960 . S
H466 C480 0.960 . S
H467 C480 0.960 1_455 S
C468 H460 0.929 1_545 S
C468 C469 1.377 . S
C468 C470 1.384 . S
C469 C468 1.377 . S
C469 C475 1.390 . S
C470 H461 0.930 1_545 S
C470 C468 1.384 . S
C470 C471 1.372 . S
C471 C470 1.372 . S
C471 C472 1.400 . S
C471 C476 1.490 . S
C472 H462 0.930 . S
C472 C471 1.400 . S
C472 C475 1.386 . S
H473 C489 0.930 . S
H474 C490 0.931 . S
C475 H463 0.929 . S
C475 C469 1.390 . S
C475 C472 1.386 . S
C476 C471 1.490 . S
C476 C478 1.395 1_556 S
C476 C479 1.403 1_455 S
H477 C483 0.930 . S
C478 H464 0.928 . S
C478 C476 1.395 1_554 S
C478 C481 1.403 . S
C479 C476 1.403 1_655 S
C479 C480 1.524 . S
C479 C483 1.400 1_556 S
C480 H465 0.960 . S
C480 H466 0.960 . S
C480 H467 0.960 1_655 S
C480 C479 1.524 . S
C481 C478 1.403 . S
C481 C482 1.392 1_455 S
C481 C485 1.495 1_545 S
C482 C481 1.392 1_655 S
C482 C483 1.385 . S
C482 C484 1.478 . S
C483 H477 0.930 . S
C483 C479 1.400 1_554 S
C483 C482 1.385 . S
C484 C482 1.478 . S
C484 C486 1.381 1_545 S
C484 C490 1.383 . S
C485 C481 1.495 1_565 S
C485 H491 0.959 . S
C485 H492 0.959 1_565 S
C485 H493 0.960 1_455 S
C486 C484 1.381 1_565 S
C486 C487 1.394 . S
C486 H494 0.930 . S
C487 C486 1.394 . S
C487 C488 1.383 1_565 S
C487 H495 0.929 . S
C488 C487 1.383 1_545 S
C488 C489 1.377 . S
C489 H473 0.930 . S
C489 C488 1.377 . S
C489 C490 1.379 . S
C490 H474 0.931 . S
C490 C484 1.383 . S
C490 C489 1.379 . S
H491 C485 0.959 . S
H492 C485 0.959 1_545 S
H493 C485 0.960 1_655 S
H494 C486 0.930 . S
H495 C487 0.929 . S
H496 C504 0.929 . S
H497 C506 0.930 . S
H498 C508 0.930 . S
H499 C511 0.929 . S
H500 C514 0.930 . S
H501 C516 0.960 . S
H502 C516 0.960 . S
H503 C516 0.960 . S
C504 H496 0.929 . S
C504 C505 1.377 . S
C504 C506 1.384 . S
C505 C504 1.377 . S
C505 C511 1.390 . S
C506 H497 0.930 . S
C506 C504 1.384 . S
C506 C507 1.372 . S
C507 C506 1.372 . S
C507 C508 1.400 . S
C507 C512 1.490 . S
C508 H498 0.930 . S
C508 C507 1.400 . S
C508 C511 1.386 . S
H509 C525 0.930 . S
H510 C526 0.931 . S
C511 H499 0.929 . S
C511 C505 1.390 . S
C511 C508 1.386 . S
C512 C507 1.490 . S
C512 C514 1.395 . S
C512 C515 1.403 . S
H513 C519 0.930 . S
C514 H500 0.930 . S
C514 C512 1.395 . S
C514 C517 1.403 . S
C515 C512 1.403 . S
C515 C516 1.524 . S
C515 C519 1.400 . S
C516 H501 0.960 . S
C516 H502 0.960 . S
C516 H503 0.960 . S
C516 C515 1.524 . S
C517 C514 1.403 . S
C517 C518 1.392 . S
C517 C521 1.495 . S
C518 C517 1.392 . S
C518 C519 1.385 . S
C518 C520 1.478 . S
C519 H513 0.930 . S
C519 C515 1.400 . S
C519 C518 1.385 . S
C520 C518 1.478 . S
C520 C522 1.381 . S
C520 C526 1.383 . S
C521 C517 1.495 . S
C521 H527 0.959 . S
C521 H528 0.961 . S
C521 H529 0.960 . S
C522 C520 1.381 . S
C522 C523 1.394 . S
C522 H530 0.930 . S
C523 C522 1.394 . S
C523 C524 1.383 . S
C523 H531 0.929 . S
C524 C523 1.383 . S
C524 C525 1.377 . S
C525 H509 0.930 . S
C525 C524 1.377 . S
C525 C526 1.379 . S
C526 H510 0.931 . S
C526 C520 1.383 . S
C526 C525 1.379 . S
H527 C521 0.959 . S
H528 C521 0.961 . S
H529 C521 0.960 . S
H530 C522 0.930 . S
H531 C523 0.929 . S
H532 C540 0.929 . S
H533 C542 0.930 . S
H534 C544 0.930 . S
H535 C547 0.929 . S
H536 C550 0.930 . S
H537 C552 0.960 . S
H538 C552 0.960 . S
H539 C552 0.960 . S
C540 H532 0.929 . S
C540 C541 1.377 . S
C540 C542 1.384 . S
C541 C540 1.377 . S
C541 C547 1.390 . S
C542 H533 0.930 . S
C542 C540 1.384 . S
C542 C543 1.372 . S
C543 C542 1.372 . S
C543 C544 1.400 . S
C543 C548 1.490 . S
C544 H534 0.930 . S
C544 C543 1.400 . S
C544 C547 1.386 . S
H545 C561 0.930 . S
H546 C562 0.931 . S
C547 H535 0.929 . S
C547 C541 1.390 . S
C547 C544 1.386 . S
C548 C543 1.490 . S
C548 C550 1.395 . S
C548 C551 1.403 . S
H549 C555 0.930 . S
C550 H536 0.930 . S
C550 C548 1.395 . S
C550 C553 1.403 . S
C551 C548 1.403 . S
C551 C552 1.524 . S
C551 C555 1.400 . S
C552 H537 0.960 . S
C552 H538 0.960 . S
C552 H539 0.960 . S
C552 C551 1.524 . S
C553 C550 1.403 . S
C553 C554 1.392 . S
C553 C557 1.495 . S
C554 C553 1.392 . S
C554 C555 1.385 . S
C554 C556 1.478 . S
C555 H549 0.930 . S
C555 C551 1.400 . S
C555 C554 1.385 . S
C556 C554 1.478 . S
C556 C558 1.381 . S
C556 C562 1.383 . S
C557 C553 1.495 . S
C557 H563 0.959 . S
C557 H564 0.961 . S
C557 H565 0.960 . S
C558 C556 1.381 . S
C558 C559 1.394 . S
C558 H566 0.930 . S
C559 C558 1.394 . S
C559 C560 1.383 . S
C559 H567 0.929 . S
C560 C559 1.383 . S
C560 C561 1.377 . S
C561 H545 0.930 . S
C561 C560 1.377 . S
C561 C562 1.379 . S
C562 H546 0.931 . S
C562 C556 1.383 . S
C562 C561 1.379 . S
H563 C557 0.959 . S
H564 C557 0.961 . S
H565 C557 0.960 . S
H566 C558 0.930 . S
H567 C559 0.929 . S
H568 C576 0.929 . S
H569 C578 0.930 . S
H570 C580 0.930 . S
H571 C583 0.929 . S
H572 C586 0.930 . S
H573 C588 0.960 . S
H574 C588 0.960 . S
H575 C588 0.960 . S
C576 H568 0.929 . S
C576 C577 1.377 . S
C576 C578 1.384 . S
C577 C576 1.377 . S
C577 C583 1.390 . S
C578 H569 0.930 . S
C578 C576 1.384 . S
C578 C579 1.372 . S
C579 C578 1.372 . S
C579 C580 1.400 . S
C579 C584 1.490 . S
C580 H570 0.930 . S
C580 C579 1.400 . S
C580 C583 1.386 . S
H581 C597 0.930 . S
H582 C598 0.931 . S
C583 H571 0.929 . S
C583 C577 1.390 . S
C583 C580 1.386 . S
C584 C579 1.490 . S
C584 C586 1.395 . S
C584 C587 1.403 . S
H585 C591 0.930 . S
C586 H572 0.930 . S
C586 C584 1.395 . S
C586 C589 1.403 . S
C587 C584 1.403 . S
C587 C588 1.524 . S
C587 C591 1.400 . S
C588 H573 0.960 . S
C588 H574 0.960 . S
C588 H575 0.960 . S
C588 C587 1.524 . S
C589 C586 1.403 . S
C589 C590 1.392 . S
C589 C593 1.495 . S
C590 C589 1.392 . S
C590 C591 1.385 . S
C590 C592 1.478 . S
C591 H585 0.930 . S
C591 C587 1.400 . S
C591 C590 1.385 . S
C592 C590 1.478 . S
C592 C594 1.381 . S
C592 C598 1.383 . S
C593 C589 1.495 . S
C593 H599 0.959 . S
C593 H600 0.961 . S
C593 H601 0.960 . S
C594 C592 1.381 . S
C594 C595 1.394 . S
C594 H602 0.930 . S
C595 C594 1.394 . S
C595 C596 1.383 . S
C595 H603 0.929 . S
C596 C595 1.383 . S
C596 C597 1.377 . S
C597 H581 0.930 . S
C597 C596 1.377 . S
C597 C598 1.379 . S
C598 H582 0.931 . S
C598 C592 1.383 . S
C598 C597 1.379 . S
H599 C593 0.959 . S
H600 C593 0.961 . S
H601 C593 0.960 . S
H602 C594 0.930 . S
H603 C595 0.929 . S
H604 C612 0.929 . S
H605 C614 0.930 . S
H606 C616 0.930 . S
H607 C619 0.929 . S
H608 C622 0.930 . S
H609 C624 0.960 . S
H610 C624 0.960 . S
H611 C624 0.960 . S
C612 H604 0.929 . S
C612 C613 1.377 . S
C612 C614 1.384 . S
C613 C612 1.377 . S
C613 C619 1.390 . S
C614 H605 0.930 . S
C614 C612 1.384 . S
C614 C615 1.372 . S
C615 C614 1.372 . S
C615 C616 1.400 . S
C615 C620 1.490 . S
C616 H606 0.930 . S
C616 C615 1.400 . S
C616 C619 1.386 . S
H617 C633 0.930 . S
H618 C634 0.931 . S
C619 H607 0.929 . S
C619 C613 1.390 . S
C619 C616 1.386 . S
C620 C615 1.490 . S
C620 C622 1.395 . S
C620 C623 1.403 . S
H621 C627 0.930 . S
C622 H608 0.930 . S
C622 C620 1.395 . S
C622 C625 1.403 . S
C623 C620 1.403 . S
C623 C624 1.524 . S
C623 C627 1.400 . S
C624 H609 0.960 . S
C624 H610 0.960 . S
C624 H611 0.960 . S
C624 C623 1.524 . S
C625 C622 1.403 . S
C625 C626 1.392 . S
C625 C629 1.495 . S
C626 C625 1.392 . S
C626 C627 1.385 . S
C626 C628 1.478 . S
C627 H621 0.930 . S
C627 C623 1.400 . S
C627 C626 1.385 . S
C628 C626 1.478 . S
C628 C630 1.381 . S
C628 C634 1.383 . S
C629 C625 1.495 . S
C629 H635 0.959 . S
C629 H636 0.961 . S
C629 H637 0.960 . S
C630 C628 1.381 . S
C630 C631 1.394 . S
C630 H638 0.930 . S
C631 C630 1.394 . S
C631 C632 1.383 . S
C631 H639 0.929 . S
C632 C631 1.383 . S
C632 C633 1.377 . S
C633 H617 0.930 . S
C633 C632 1.377 . S
C633 C634 1.379 . S
C634 H618 0.931 . S
C634 C628 1.383 . S
C634 C633 1.379 . S
H635 C629 0.959 . S
H636 C629 0.961 . S
H637 C629 0.960 . S
H638 C630 0.930 . S
H639 C631 0.929 . S
H640 C648 0.929 . S
H641 C650 0.930 . S
H642 C652 0.930 . S
H643 C655 0.929 . S
H644 C658 0.930 . S
H645 C660 0.960 . S
H646 C660 0.960 . S
H647 C660 0.960 . S
C648 H640 0.929 . S
C648 C649 1.377 . S
C648 C650 1.384 . S
C649 C648 1.377 . S
C649 C655 1.390 . S
C650 H641 0.930 . S
C650 C648 1.384 . S
C650 C651 1.372 . S
C651 C650 1.372 . S
C651 C652 1.400 . S
C651 C656 1.490 . S
C652 H642 0.930 . S
C652 C651 1.400 . S
C652 C655 1.386 . S
H653 C669 0.930 . S
H654 C670 0.931 . S
C655 H643 0.929 . S
C655 C649 1.390 . S
C655 C652 1.386 . S
C656 C651 1.490 . S
C656 C658 1.395 . S
C656 C659 1.403 . S
H657 C663 0.930 . S
C658 H644 0.930 . S
C658 C656 1.395 . S
C658 C661 1.403 1_554 S
C659 C656 1.403 . S
C659 C660 1.524 . S
C659 C663 1.400 . S
C660 H645 0.960 . S
C660 H646 0.960 . S
C660 H647 0.960 . S
C660 C659 1.524 . S
C661 C658 1.403 1_556 S
C661 C662 1.392 . S
C661 C665 1.495 . S
C662 C661 1.392 . S
C662 C663 1.385 1_556 S
C662 C664 1.478 . S
C663 H657 0.930 . S
C663 C659 1.400 . S
C663 C662 1.385 1_554 S
C664 C662 1.478 . S
C664 C666 1.381 . S
C664 C670 1.383 . S
C665 C661 1.495 . S
C665 H671 0.959 . S
C665 H672 0.961 . S
C665 H673 0.960 . S
C666 C664 1.381 . S
C666 C667 1.394 . S
C666 H674 0.930 . S
C667 C666 1.394 . S
C667 C668 1.383 . S
C667 H675 0.929 . S
C668 C667 1.383 . S
C668 C669 1.377 . S
C669 H653 0.930 . S
C669 C668 1.377 . S
C669 C670 1.379 . S
C670 H654 0.931 . S
C670 C664 1.383 . S
C670 C669 1.379 . S
H671 C665 0.959 . S
H672 C665 0.961 . S
H673 C665 0.960 . S
H674 C666 0.930 . S
H675 C667 0.929 . S
H676 C684 0.929 . S
H677 C686 0.930 . S
H678 C688 0.930 . S
H679 C691 0.929 . S
H680 C694 0.930 . S
H681 C696 0.960 . S
H682 C696 0.960 . S
H683 C696 0.960 . S
C684 H676 0.929 . S
C684 C685 1.377 . S
C684 C686 1.384 . S
C685 C684 1.377 . S
C685 C691 1.390 . S
C686 H677 0.930 . S
C686 C684 1.384 . S
C686 C687 1.372 . S
C687 C686 1.372 . S
C687 C688 1.400 . S
C687 C692 1.490 . S
C688 H678 0.930 . S
C688 C687 1.400 . S
C688 C691 1.386 . S
H689 C705 0.930 . S
H690 C706 0.931 . S
C691 H679 0.929 . S
C691 C685 1.390 . S
C691 C688 1.386 . S
C692 C687 1.490 . S
C692 C694 1.395 . S
C692 C695 1.403 1_455 S
H693 C699 0.930 . S
C694 H680 0.930 . S
C694 C692 1.395 . S
C694 C697 1.403 . S
C695 C692 1.403 1_655 S
C695 C696 1.524 . S
C695 C699 1.400 . S
C696 H681 0.960 . S
C696 H682 0.960 . S
C696 H683 0.960 . S
C696 C695 1.524 . S
C697 C694 1.403 . S
C697 C698 1.392 1_455 S
C697 C701 1.495 . S
C698 C697 1.392 1_655 S
C698 C699 1.385 . S
C698 C700 1.478 . S
C699 H693 0.930 . S
C699 C695 1.400 . S
C699 C698 1.385 . S
C700 C698 1.478 . S
C700 C702 1.381 . S
C700 C706 1.383 . S
C701 C697 1.495 . S
C701 H707 0.959 . S
C701 H708 0.961 . S
C701 H709 0.960 . S
C702 C700 1.381 . S
C702 C703 1.394 . S
C702 H710 0.930 . S
C703 C702 1.394 . S
C703 C704 1.383 . S
C703 H711 0.929 . S
C704 C703 1.383 . S
C704 C705 1.377 . S
C705 H689 0.930 . S
C705 C704 1.377 . S
C705 C706 1.379 . S
C706 H690 0.931 . S
C706 C700 1.383 . S
C706 C705 1.379 . S
H707 C701 0.959 . S
H708 C701 0.961 . S
H709 C701 0.960 . S
H710 C702 0.930 . S
H711 C703 0.929 . S
H712 C720 0.929 . S
H713 C722 0.930 . S
H714 C724 0.930 . S
H715 C727 0.929 . S
H716 C730 0.930 1_556 S
H717 C732 0.960 . S
H718 C732 0.960 . S
H719 C732 0.960 . S
C720 H712 0.929 . S
C720 C721 1.377 . S
C720 C722 1.384 . S
C721 C720 1.377 . S
C721 C727 1.390 . S
C722 H713 0.930 . S
C722 C720 1.384 . S
C722 C723 1.372 . S
C723 C722 1.372 . S
C723 C724 1.400 . S
C723 C728 1.490 . S
C724 H714 0.930 . S
C724 C723 1.400 . S
C724 C727 1.386 . S
H725 C741 0.930 . S
H726 C742 0.931 . S
C727 H715 0.929 . S
C727 C721 1.390 . S
C727 C724 1.386 . S
C728 C723 1.490 . S
C728 C730 1.395 . S
C728 C731 1.403 1_455 S
H729 C735 0.930 . S
C730 H716 0.930 1_554 S
C730 C728 1.395 . S
C730 C733 1.403 1_554 S
C731 C728 1.403 1_655 S
C731 C732 1.524 . S
C731 C735 1.400 . S
C732 H717 0.960 . S
C732 H718 0.960 . S
C732 H719 0.960 . S
C732 C731 1.524 . S
C733 C730 1.403 1_556 S
C733 C734 1.392 1_455 S
C733 C737 1.495 . S
C734 C733 1.392 1_655 S
C734 C735 1.385 1_556 S
C734 C736 1.478 . S
C735 H729 0.930 . S
C735 C731 1.400 . S
C735 C734 1.385 1_554 S
C736 C734 1.478 . S
C736 C738 1.381 . S
C736 C742 1.383 . S
C737 C733 1.495 . S
C737 H743 0.959 . S
C737 H744 0.961 . S
C737 H745 0.960 . S
C738 C736 1.381 . S
C738 C739 1.394 . S
C738 H746 0.930 . S
C739 C738 1.394 . S
C739 C740 1.383 . S
C739 H747 0.929 . S
C740 C739 1.383 . S
C740 C741 1.377 . S
C741 H725 0.930 . S
C741 C740 1.377 . S
C741 C742 1.379 . S
C742 H726 0.931 . S
C742 C736 1.383 . S
C742 C741 1.379 . S
H743 C737 0.959 . S
H744 C737 0.961 . S
H745 C737 0.960 . S
H746 C738 0.930 . S
H747 C739 0.929 . S
H748 C756 0.929 . S
H749 C758 0.930 . S
H750 C760 0.930 . S
H751 C763 0.929 . S
H752 C766 0.930 . S
H753 C768 0.960 . S
H754 C768 0.960 . S
H755 C768 0.960 . S
C756 H748 0.929 . S
C756 C757 1.377 . S
C756 C758 1.384 . S
C757 C756 1.377 . S
C757 C763 1.390 . S
C758 H749 0.930 . S
C758 C756 1.384 . S
C758 C759 1.372 . S
C759 C758 1.372 . S
C759 C760 1.400 . S
C759 C764 1.490 . S
C760 H750 0.930 . S
C760 C759 1.400 . S
C760 C763 1.386 . S
H761 C777 0.930 . S
H762 C778 0.931 . S
C763 H751 0.929 . S
C763 C757 1.390 . S
C763 C760 1.386 . S
C764 C759 1.490 . S
C764 C766 1.395 . S
C764 C767 1.403 . S
H765 C771 0.930 . S
C766 H752 0.930 . S
C766 C764 1.395 . S
C766 C769 1.403 . S
C767 C764 1.403 . S
C767 C768 1.524 . S
C767 C771 1.400 . S
C768 H753 0.960 . S
C768 H754 0.960 . S
C768 H755 0.960 . S
C768 C767 1.524 . S
C769 C766 1.403 . S
C769 C770 1.392 . S
C769 C773 1.495 . S
C770 C769 1.392 . S
C770 C771 1.385 . S
C770 C772 1.478 . S
C771 H765 0.930 . S
C771 C767 1.400 . S
C771 C770 1.385 . S
C772 C770 1.478 . S
C772 C774 1.381 . S
C772 C778 1.383 . S
C773 C769 1.495 . S
C773 H779 0.959 . S
C773 H780 0.961 . S
C773 H781 0.960 . S
C774 C772 1.381 . S
C774 C775 1.394 . S
C774 H782 0.930 . S
C775 C774 1.394 . S
C775 C776 1.383 . S
C775 H783 0.929 . S
C776 C775 1.383 . S
C776 C777 1.377 . S
C777 H761 0.930 . S
C777 C776 1.377 . S
C777 C778 1.379 . S
C778 H762 0.931 . S
C778 C772 1.383 . S
C778 C777 1.379 . S
H779 C773 0.959 . S
H780 C773 0.961 . S
H781 C773 0.960 . S
H782 C774 0.930 . S
H783 C775 0.929 . S
H784 C792 0.929 . S
H785 C794 0.930 . S
H786 C796 0.930 . S
H787 C799 0.929 . S
H788 C802 0.930 . S
H789 C804 0.960 . S
H790 C804 0.960 . S
H791 C804 0.960 . S
C792 H784 0.929 . S
C792 C793 1.377 . S
C792 C794 1.384 . S
C793 C792 1.377 . S
C793 C799 1.390 . S
C794 H785 0.930 . S
C794 C792 1.384 . S
C794 C795 1.372 . S
C795 C794 1.372 . S
C795 C796 1.400 . S
C795 C800 1.490 . S
C796 H786 0.930 . S
C796 C795 1.400 . S
C796 C799 1.386 . S
H797 C813 0.930 . S
H798 C814 0.931 . S
C799 H787 0.929 . S
C799 C793 1.390 . S
C799 C796 1.386 . S
C800 C795 1.490 . S
C800 C802 1.395 . S
C800 C803 1.403 . S
H801 C807 0.930 . S
C802 H788 0.930 . S
C802 C800 1.395 . S
C802 C805 1.403 . S
C803 C800 1.403 . S
C803 C804 1.524 . S
C803 C807 1.400 . S
C804 H789 0.960 . S
C804 H790 0.960 . S
C804 H791 0.960 . S
C804 C803 1.524 . S
C805 C802 1.403 . S
C805 C806 1.392 . S
C805 C809 1.495 . S
C806 C805 1.392 . S
C806 C807 1.385 . S
C806 C808 1.478 . S
C807 H801 0.930 . S
C807 C803 1.400 . S
C807 C806 1.385 . S
C808 C806 1.478 . S
C808 C810 1.381 . S
C808 C814 1.383 . S
C809 C805 1.495 . S
C809 H815 0.959 . S
C809 H816 0.961 . S
C809 H817 0.960 . S
C810 C808 1.381 . S
C810 C811 1.394 . S
C810 H818 0.930 . S
C811 C810 1.394 . S
C811 C812 1.383 . S
C811 H819 0.929 . S
C812 C811 1.383 . S
C812 C813 1.377 . S
C813 H797 0.930 . S
C813 C812 1.377 . S
C813 C814 1.379 . S
C814 H798 0.931 . S
C814 C808 1.383 . S
C814 C813 1.379 . S
H815 C809 0.959 . S
H816 C809 0.961 . S
H817 C809 0.960 . S
H818 C810 0.930 . S
H819 C811 0.929 . S
H820 C828 0.929 . S
H821 C830 0.930 . S
H822 C832 0.930 . S
H823 C835 0.929 . S
H824 C838 0.930 . S
H825 C840 0.960 . S
H826 C840 0.960 . S
H827 C840 0.960 . S
C828 H820 0.929 . S
C828 C829 1.377 . S
C828 C830 1.384 . S
C829 C828 1.377 . S
C829 C835 1.390 . S
C830 H821 0.930 . S
C830 C828 1.384 . S
C830 C831 1.372 . S
C831 C830 1.372 . S
C831 C832 1.400 . S
C831 C836 1.490 . S
C832 H822 0.930 . S
C832 C831 1.400 . S
C832 C835 1.386 . S
H833 C849 0.930 . S
H834 C850 0.931 . S
C835 H823 0.929 . S
C835 C829 1.390 . S
C835 C832 1.386 . S
C836 C831 1.490 . S
C836 C838 1.395 . S
C836 C839 1.403 . S
H837 C843 0.930 . S
C838 H824 0.930 . S
C838 C836 1.395 . S
C838 C841 1.403 . S
C839 C836 1.403 . S
C839 C840 1.524 . S
C839 C843 1.400 . S
C840 H825 0.960 . S
C840 H826 0.960 . S
C840 H827 0.960 . S
C840 C839 1.524 . S
C841 C838 1.403 . S
C841 C842 1.392 . S
C841 C845 1.495 . S
C842 C841 1.392 . S
C842 C843 1.385 . S
C842 C844 1.478 . S
C843 H837 0.930 . S
C843 C839 1.400 . S
C843 C842 1.385 . S
C844 C842 1.478 . S
C844 C846 1.381 . S
C844 C850 1.383 . S
C845 C841 1.495 . S
C845 H851 0.959 . S
C845 H852 0.961 . S
C845 H853 0.960 . S
C846 C844 1.381 . S
C846 C847 1.394 . S
C846 H854 0.930 . S
C847 C846 1.394 . S
C847 C848 1.383 . S
C847 H855 0.929 . S
C848 C847 1.383 . S
C848 C849 1.377 . S
C849 H833 0.930 . S
C849 C848 1.377 . S
C849 C850 1.379 . S
C850 H834 0.931 . S
C850 C844 1.383 . S
C850 C849 1.379 . S
H851 C845 0.959 . S
H852 C845 0.961 . S
H853 C845 0.960 . S
H854 C846 0.930 . S
H855 C847 0.929 . S
H856 C864 0.929 . S
H857 C866 0.930 . S
H858 C868 0.930 . S
H859 C871 0.929 . S
H860 C874 0.930 . S
H861 C876 0.960 . S
H862 C876 0.960 . S
H863 C876 0.960 . S
C864 H856 0.929 . S
C864 C865 1.377 . S
C864 C866 1.384 . S
C865 C864 1.377 . S
C865 C871 1.390 . S
C866 H857 0.930 . S
C866 C864 1.384 . S
C866 C867 1.372 . S
C867 C866 1.372 . S
C867 C868 1.400 . S
C867 C872 1.490 . S
C868 H858 0.930 . S
C868 C867 1.400 . S
C868 C871 1.386 . S
H869 C885 0.930 . S
H870 C886 0.931 . S
C871 H859 0.929 . S
C871 C865 1.390 . S
C871 C868 1.386 . S
C872 C867 1.490 . S
C872 C874 1.395 . S
C872 C875 1.403 . S
H873 C879 0.930 . S
C874 H860 0.930 . S
C874 C872 1.395 . S
C874 C877 1.403 . S
C875 C872 1.403 . S
C875 C876 1.524 . S
C875 C879 1.400 . S
C876 H861 0.960 . S
C876 H862 0.960 . S
C876 H863 0.960 . S
C876 C875 1.524 . S
C877 C874 1.403 . S
C877 C878 1.392 . S
C877 C881 1.495 . S
C878 C877 1.392 . S
C878 C879 1.385 . S
C878 C880 1.478 . S
C879 H873 0.930 . S
C879 C875 1.400 . S
C879 C878 1.385 . S
C880 C878 1.478 . S
C880 C882 1.381 . S
C880 C886 1.383 . S
C881 C877 1.495 . S
C881 H887 0.959 . S
C881 H888 0.961 . S
C881 H889 0.960 . S
C882 C880 1.381 . S
C882 C883 1.394 . S
C882 H890 0.930 . S
C883 C882 1.394 . S
C883 C884 1.383 . S
C883 H891 0.929 . S
C884 C883 1.383 . S
C884 C885 1.377 . S
C885 H869 0.930 . S
C885 C884 1.377 . S
C885 C886 1.379 . S
C886 H870 0.931 . S
C886 C880 1.383 . S
C886 C885 1.379 . S
H887 C881 0.959 . S
H888 C881 0.961 . S
H889 C881 0.960 . S
H890 C882 0.930 . S
H891 C883 0.929 . S
H892 C900 0.929 . S
H893 C902 0.930 1_554 S
H894 C904 0.930 . S
H895 C907 0.929 . S
H896 C910 0.930 . S
H897 C912 0.960 . S
H898 C912 0.960 . S
H899 C912 0.960 . S
C900 H892 0.929 . S
C900 C901 1.377 1_554 S
C900 C902 1.384 1_554 S
C901 C900 1.377 1_556 S
C901 C907 1.390 . S
C902 H893 0.930 1_556 S
C902 C900 1.384 1_556 S
C902 C903 1.372 . S
C903 C902 1.372 . S
C903 C904 1.400 . S
C903 C908 1.490 . S
C904 H894 0.930 . S
C904 C903 1.400 . S
C904 C907 1.386 . S
H905 C921 0.930 . S
H906 C922 0.931 . S
C907 H895 0.929 . S
C907 C901 1.390 . S
C907 C904 1.386 . S
C908 C903 1.490 . S
C908 C910 1.395 . S
C908 C911 1.403 . S
H909 C915 0.930 . S
C910 H896 0.930 . S
C910 C908 1.395 . S
C910 C913 1.403 . S
C911 C908 1.403 . S
C911 C912 1.524 . S
C911 C915 1.400 . S
C912 H897 0.960 . S
C912 H898 0.960 . S
C912 H899 0.960 . S
C912 C911 1.524 . S
C913 C910 1.403 . S
C913 C914 1.392 . S
C913 C917 1.495 . S
C914 C913 1.392 . S
C914 C915 1.385 . S
C914 C916 1.478 . S
C915 H909 0.930 . S
C915 C911 1.400 . S
C915 C914 1.385 . S
C916 C914 1.478 . S
C916 C918 1.381 . S
C916 C922 1.383 . S
C917 C913 1.495 . S
C917 H923 0.959 . S
C917 H924 0.961 . S
C917 H925 0.960 . S
C918 C916 1.381 . S
C918 C919 1.394 . S
C918 H926 0.930 . S
C919 C918 1.394 . S
C919 C920 1.383 . S
C919 H927 0.929 . S
C920 C919 1.383 . S
C920 C921 1.377 . S
C921 H905 0.930 . S
C921 C920 1.377 . S
C921 C922 1.379 . S
C922 H906 0.931 . S
C922 C916 1.383 . S
C922 C921 1.379 . S
H923 C917 0.959 . S
H924 C917 0.961 . S
H925 C917 0.960 . S
H926 C918 0.930 . S
H927 C919 0.929 . S
H928 C936 0.929 . S
H929 C938 0.930 . S
H930 C940 0.930 . S
H931 C943 0.929 . S
H932 C946 0.930 . S
H933 C948 0.960 . S
H934 C948 0.960 . S
H935 C948 0.960 . S
C936 H928 0.929 . S
C936 C937 1.377 . S
C936 C938 1.384 . S
C937 C936 1.377 . S
C937 C943 1.390 . S
C938 H929 0.930 . S
C938 C936 1.384 . S
C938 C939 1.372 . S
C939 C938 1.372 . S
C939 C940 1.400 . S
C939 C944 1.490 . S
C940 H930 0.930 . S
C940 C939 1.400 . S
C940 C943 1.386 . S
H941 C957 0.930 . S
H942 C958 0.931 . S
C943 H931 0.929 . S
C943 C937 1.390 . S
C943 C940 1.386 . S
C944 C939 1.490 . S
C944 C946 1.395 . S
C944 C947 1.403 . S
H945 C951 0.930 . S
C946 H932 0.930 . S
C946 C944 1.395 . S
C946 C949 1.403 . S
C947 C944 1.403 . S
C947 C948 1.524 . S
C947 C951 1.400 . S
C948 H933 0.960 . S
C948 H934 0.960 . S
C948 H935 0.960 . S
C948 C947 1.524 . S
C949 C946 1.403 . S
C949 C950 1.392 . S
C949 C953 1.495 . S
C950 C949 1.392 . S
C950 C951 1.385 . S
C950 C952 1.478 . S
C951 H945 0.930 . S
C951 C947 1.400 . S
C951 C950 1.385 . S
C952 C950 1.478 . S
C952 C954 1.381 . S
C952 C958 1.383 . S
C953 C949 1.495 . S
C953 H959 0.959 . S
C953 H960 0.961 . S
C953 H961 0.960 . S
C954 C952 1.381 . S
C954 C955 1.394 . S
C954 H962 0.930 . S
C955 C954 1.394 . S
C955 C956 1.383 . S
C955 H963 0.929 . S
C956 C955 1.383 . S
C956 C957 1.377 . S
C957 H941 0.930 . S
C957 C956 1.377 . S
C957 C958 1.379 . S
C958 H942 0.931 . S
C958 C952 1.383 . S
C958 C957 1.379 . S
H959 C953 0.959 . S
H960 C953 0.961 . S
H961 C953 0.960 . S
H962 C954 0.930 . S
H963 C955 0.929 . S
H964 C972 0.929 . S
H965 C974 0.930 . S
H966 C976 0.930 . S
H967 C979 0.929 . S
H968 C982 0.930 . S
H969 C984 0.960 . S
H970 C984 0.960 . S
H971 C984 0.960 . S
C972 H964 0.929 . S
C972 C973 1.377 . S
C972 C974 1.384 . S
C973 C972 1.377 . S
C973 C979 1.390 . S
C974 H965 0.930 . S
C974 C972 1.384 . S
C974 C975 1.372 . S
C975 C974 1.372 . S
C975 C976 1.400 . S
C975 C980 1.490 . S
C976 H966 0.930 . S
C976 C975 1.400 . S
C976 C979 1.386 . S
H977 C993 0.930 . S
H978 C994 0.931 . S
C979 H967 0.929 . S
C979 C973 1.390 . S
C979 C976 1.386 . S
C980 C975 1.490 . S
C980 C982 1.395 . S
C980 C983 1.403 . S
H981 C987 0.930 . S
C982 H968 0.930 . S
C982 C980 1.395 . S
C982 C985 1.403 . S
C983 C980 1.403 . S
C983 C984 1.524 . S
C983 C987 1.400 . S
C984 H969 0.960 . S
C984 H970 0.960 . S
C984 H971 0.960 . S
C984 C983 1.524 . S
C985 C982 1.403 . S
C985 C986 1.392 . S
C985 C989 1.495 . S
C986 C985 1.392 . S
C986 C987 1.385 . S
C986 C988 1.478 . S
C987 H981 0.930 . S
C987 C983 1.400 . S
C987 C986 1.385 . S
C988 C986 1.478 . S
C988 C990 1.381 . S
C988 C994 1.383 . S
C989 C985 1.495 . S
C989 H995 0.959 . S
C989 H996 0.961 . S
C989 H997 0.960 . S
C990 C988 1.381 . S
C990 C991 1.394 . S
C990 H998 0.930 . S
C991 C990 1.394 . S
C991 C992 1.383 . S
C991 H999 0.929 . S
C992 C991 1.383 . S
C992 C993 1.377 . S
C993 H977 0.930 . S
C993 C992 1.377 . S
C993 C994 1.379 . S
C994 H978 0.931 . S
C994 C988 1.383 . S
C994 C993 1.379 . S
H995 C989 0.959 . S
H996 C989 0.961 . S
H997 C989 0.960 . S
H998 C990 0.930 . S
H999 C991 0.929 . S
H1000 C1008 0.929 . S
H1001 C1010 0.930 . S
H1002 C1012 0.930 . S
H1003 C1015 0.929 . S
H1004 C1018 0.930 . S
H1005 C1020 0.960 . S
H1006 C1020 0.960 . S
H1007 C1020 0.960 . S
C1008 H1000 0.929 . S
C1008 C1009 1.377 . S
C1008 C1010 1.384 . S
C1009 C1008 1.377 . S
C1009 C1015 1.390 . S
C1010 H1001 0.930 . S
C1010 C1008 1.384 . S
C1010 C1011 1.372 . S
C1011 C1010 1.372 . S
C1011 C1012 1.400 . S
C1011 C1016 1.490 . S
C1012 H1002 0.930 . S
C1012 C1011 1.400 . S
C1012 C1015 1.386 . S
H1013 C1029 0.930 . S
H1014 C1030 0.931 . S
C1015 H1003 0.929 . S
C1015 C1009 1.390 . S
C1015 C1012 1.386 . S
C1016 C1011 1.490 . S
C1016 C1018 1.395 . S
C1016 C1019 1.403 . S
H1017 C1023 0.930 . S
C1018 H1004 0.930 . S
C1018 C1016 1.395 . S
C1018 C1021 1.403 . S
C1019 C1016 1.403 . S
C1019 C1020 1.524 . S
C1019 C1023 1.400 . S
C1020 H1005 0.960 . S
C1020 H1006 0.960 . S
C1020 H1007 0.960 . S
C1020 C1019 1.524 . S
C1021 C1018 1.403 . S
C1021 C1022 1.392 . S
C1021 C1025 1.495 . S
C1022 C1021 1.392 . S
C1022 C1023 1.385 . S
C1022 C1024 1.478 . S
C1023 H1017 0.930 . S
C1023 C1019 1.400 . S
C1023 C1022 1.385 . S
C1024 C1022 1.478 . S
C1024 C1026 1.381 . S
C1024 C1030 1.383 . S
C1025 C1021 1.495 . S
C1025 H1031 0.959 . S
C1025 H1032 0.961 . S
C1025 H1033 0.960 . S
C1026 C1024 1.381 . S
C1026 C1027 1.394 1_556 S
C1026 H1034 0.930 . S
C1027 C1026 1.394 1_554 S
C1027 C1028 1.383 1_554 S
C1027 H1035 0.929 . S
C1028 C1027 1.383 1_556 S
C1028 C1029 1.377 . S
C1029 H1013 0.930 . S
C1029 C1028 1.377 . S
C1029 C1030 1.379 . S
C1030 H1014 0.931 . S
C1030 C1024 1.383 . S
C1030 C1029 1.379 . S
H1031 C1025 0.959 . S
H1032 C1025 0.961 . S
H1033 C1025 0.960 . S
H1034 C1026 0.930 . S
H1035 C1027 0.929 . S
H1036 C1044 0.929 . S
H1037 C1046 0.930 . S
H1038 C1048 0.930 . S
H1039 C1051 0.929 . S
H1040 C1054 0.930 . S
H1041 C1056 0.960 . S
H1042 C1056 0.960 . S
H1043 C1056 0.960 . S
C1044 H1036 0.929 . S
C1044 C1045 1.377 . S
C1044 C1046 1.384 . S
C1045 C1044 1.377 . S
C1045 C1051 1.390 . S
C1046 H1037 0.930 . S
C1046 C1044 1.384 . S
C1046 C1047 1.372 . S
C1047 C1046 1.372 . S
C1047 C1048 1.400 . S
C1047 C1052 1.490 . S
C1048 H1038 0.930 . S
C1048 C1047 1.400 . S
C1048 C1051 1.386 . S
H1049 C1065 0.930 . S
H1050 C1066 0.931 . S
C1051 H1039 0.929 . S
C1051 C1045 1.390 . S
C1051 C1048 1.386 . S
C1052 C1047 1.490 . S
C1052 C1054 1.395 . S
C1052 C1055 1.403 . S
H1053 C1059 0.930 . S
C1054 H1040 0.930 . S
C1054 C1052 1.395 . S
C1054 C1057 1.403 . S
C1055 C1052 1.403 . S
C1055 C1056 1.524 . S
C1055 C1059 1.400 . S
C1056 H1041 0.960 . S
C1056 H1042 0.960 . S
C1056 H1043 0.960 . S
C1056 C1055 1.524 . S
C1057 C1054 1.403 . S
C1057 C1058 1.392 . S
C1057 C1061 1.495 . S
C1058 C1057 1.392 . S
C1058 C1059 1.385 . S
C1058 C1060 1.478 . S
C1059 H1053 0.930 . S
C1059 C1055 1.400 . S
C1059 C1058 1.385 . S
C1060 C1058 1.478 . S
C1060 C1062 1.381 . S
C1060 C1066 1.383 . S
C1061 C1057 1.495 . S
C1061 H1067 0.959 . S
C1061 H1068 0.961 . S
C1061 H1069 0.960 . S
C1062 C1060 1.381 . S
C1062 C1063 1.394 . S
C1062 H1070 0.930 . S
C1063 C1062 1.394 . S
C1063 C1064 1.383 . S
C1063 H1071 0.929 . S
C1064 C1063 1.383 . S
C1064 C1065 1.377 . S
C1065 H1049 0.930 . S
C1065 C1064 1.377 . S
C1065 C1066 1.379 . S
C1066 H1050 0.931 . S
C1066 C1060 1.383 . S
C1066 C1065 1.379 . S
H1067 C1061 0.959 . S
H1068 C1061 0.961 . S
H1069 C1061 0.960 . S
H1070 C1062 0.930 . S
H1071 C1063 0.929 . S
H1072 C1080 0.929 . S
H1073 C1082 0.930 . S
H1074 C1084 0.930 . S
H1075 C1087 0.929 1_554 S
H1076 C1090 0.930 . S
H1077 C1092 0.960 1_554 S
H1078 C1092 0.960 1_554 S
H1079 C1092 0.960 1_554 S
C1080 H1072 0.929 . S
C1080 C1081 1.377 . S
C1080 C1082 1.384 . S
C1081 C1080 1.377 . S
C1081 C1087 1.390 . S
C1082 H1073 0.930 . S
C1082 C1080 1.384 . S
C1082 C1083 1.372 . S
C1083 C1082 1.372 . S
C1083 C1084 1.400 . S
C1083 C1088 1.490 . S
C1084 H1074 0.930 . S
C1084 C1083 1.400 . S
C1084 C1087 1.386 . S
H1085 C1101 0.930 . S
H1086 C1102 0.931 . S
C1087 H1075 0.929 1_556 S
C1087 C1081 1.390 . S
C1087 C1084 1.386 . S
C1088 C1083 1.490 . S
C1088 C1090 1.395 . S
C1088 C1091 1.403 . S
H1089 C1095 0.930 . S
C1090 H1076 0.930 . S
C1090 C1088 1.395 . S
C1090 C1093 1.403 . S
C1091 C1088 1.403 . S
C1091 C1092 1.524 . S
C1091 C1095 1.400 . S
C1092 H1077 0.960 1_556 S
C1092 H1078 0.960 1_556 S
C1092 H1079 0.960 1_556 S
C1092 C1091 1.524 . S
C1093 C1090 1.403 . S
C1093 C1094 1.392 . S
C1093 C1097 1.495 . S
C1094 C1093 1.392 . S
C1094 C1095 1.385 . S
C1094 C1096 1.478 . S
C1095 H1089 0.930 . S
C1095 C1091 1.400 . S
C1095 C1094 1.385 . S
C1096 C1094 1.478 . S
C1096 C1098 1.381 . S
C1096 C1102 1.383 . S
C1097 C1093 1.495 . S
C1097 H1103 0.959 . S
C1097 H1104 0.961 . S
C1097 H1105 0.960 . S
C1098 C1096 1.381 . S
C1098 C1099 1.394 . S
C1098 H1106 0.930 . S
C1099 C1098 1.394 . S
C1099 C1100 1.383 . S
C1099 H1107 0.929 . S
C1100 C1099 1.383 . S
C1100 C1101 1.377 . S
C1101 H1085 0.930 . S
C1101 C1100 1.377 . S
C1101 C1102 1.379 . S
C1102 H1086 0.931 . S
C1102 C1096 1.383 . S
C1102 C1101 1.379 . S
H1103 C1097 0.959 . S
H1104 C1097 0.961 . S
H1105 C1097 0.960 . S
H1106 C1098 0.930 . S
H1107 C1099 0.929 . S
H1108 C1116 0.929 . S
H1109 C1118 0.930 . S
H1110 C1120 0.930 . S
H1111 C1123 0.929 . S
H1112 C1126 0.930 . S
H1113 C1128 0.960 . S
H1114 C1128 0.960 . S
H1115 C1128 0.960 . S
C1116 H1108 0.929 . S
C1116 C1117 1.377 . S
C1116 C1118 1.384 . S
C1117 C1116 1.377 . S
C1117 C1123 1.390 . S
C1118 H1109 0.930 . S
C1118 C1116 1.384 . S
C1118 C1119 1.372 . S
C1119 C1118 1.372 . S
C1119 C1120 1.400 . S
C1119 C1124 1.490 . S
C1120 H1110 0.930 . S
C1120 C1119 1.400 . S
C1120 C1123 1.386 . S
H1121 C1137 0.930 . S
H1122 C1138 0.931 . S
C1123 H1111 0.929 . S
C1123 C1117 1.390 . S
C1123 C1120 1.386 . S
C1124 C1119 1.490 . S
C1124 C1126 1.395 . S
C1124 C1127 1.403 . S
H1125 C1131 0.930 . S
C1126 H1112 0.930 . S
C1126 C1124 1.395 . S
C1126 C1129 1.403 . S
C1127 C1124 1.403 . S
C1127 C1128 1.524 . S
C1127 C1131 1.400 . S
C1128 H1113 0.960 . S
C1128 H1114 0.960 . S
C1128 H1115 0.960 . S
C1128 C1127 1.524 . S
C1129 C1126 1.403 . S
C1129 C1130 1.392 . S
C1129 C1133 1.495 . S
C1130 C1129 1.392 . S
C1130 C1131 1.385 . S
C1130 C1132 1.478 . S
C1131 H1125 0.930 . S
C1131 C1127 1.400 . S
C1131 C1130 1.385 . S
C1132 C1130 1.478 . S
C1132 C1134 1.381 . S
C1132 C1138 1.383 . S
C1133 C1129 1.495 . S
C1133 H1139 0.959 . S
C1133 H1140 0.961 . S
C1133 H1141 0.960 . S
C1134 C1132 1.381 . S
C1134 C1135 1.394 . S
C1134 H1142 0.930 . S
C1135 C1134 1.394 . S
C1135 C1136 1.383 . S
C1135 H1143 0.929 . S
C1136 C1135 1.383 . S
C1136 C1137 1.377 . S
C1137 H1121 0.930 . S
C1137 C1136 1.377 . S
C1137 C1138 1.379 . S
C1138 H1122 0.931 . S
C1138 C1132 1.383 . S
C1138 C1137 1.379 . S
H1139 C1133 0.959 . S
H1140 C1133 0.961 . S
H1141 C1133 0.960 . S
H1142 C1134 0.930 . S
H1143 C1135 0.929 . S
H1144 C1152 0.929 . S
H1145 C1154 0.930 . S
H1146 C1156 0.930 . S
H1147 C1159 0.929 . S
H1148 C1162 0.930 . S
H1149 C1164 0.960 . S
H1150 C1164 0.960 . S
H1151 C1164 0.960 . S
C1152 H1144 0.929 . S
C1152 C1153 1.377 . S
C1152 C1154 1.384 . S
C1153 C1152 1.377 . S
C1153 C1159 1.390 . S
C1154 H1145 0.930 . S
C1154 C1152 1.384 . S
C1154 C1155 1.372 . S
C1155 C1154 1.372 . S
C1155 C1156 1.400 . S
C1155 C1160 1.490 . S
C1156 H1146 0.930 . S
C1156 C1155 1.400 . S
C1156 C1159 1.386 . S
H1157 C1173 0.930 . S
H1158 C1174 0.931 . S
C1159 H1147 0.929 . S
C1159 C1153 1.390 . S
C1159 C1156 1.386 . S
C1160 C1155 1.490 . S
C1160 C1162 1.395 . S
C1160 C1163 1.403 . S
H1161 C1167 0.930 . S
C1162 H1148 0.930 . S
C1162 C1160 1.395 . S
C1162 C1165 1.403 . S
C1163 C1160 1.403 . S
C1163 C1164 1.524 . S
C1163 C1167 1.400 . S
C1164 H1149 0.960 . S
C1164 H1150 0.960 . S
C1164 H1151 0.960 . S
C1164 C1163 1.524 . S
C1165 C1162 1.403 . S
C1165 C1166 1.392 . S
C1165 C1169 1.495 . S
C1166 C1165 1.392 . S
C1166 C1167 1.385 . S
C1166 C1168 1.478 . S
C1167 H1161 0.930 . S
C1167 C1163 1.400 . S
C1167 C1166 1.385 . S
C1168 C1166 1.478 . S
C1168 C1170 1.381 . S
C1168 C1174 1.383 . S
C1169 C1165 1.495 . S
C1169 H1175 0.959 . S
C1169 H1176 0.961 . S
C1169 H1177 0.960 . S
C1170 C1168 1.381 . S
C1170 C1171 1.394 . S
C1170 H1178 0.930 . S
C1171 C1170 1.394 . S
C1171 C1172 1.383 . S
C1171 H1179 0.929 . S
C1172 C1171 1.383 . S
C1172 C1173 1.377 . S
C1173 H1157 0.930 . S
C1173 C1172 1.377 . S
C1173 C1174 1.379 . S
C1174 H1158 0.931 . S
C1174 C1168 1.383 . S
C1174 C1173 1.379 . S
H1175 C1169 0.959 . S
H1176 C1169 0.961 . S
H1177 C1169 0.960 . S
H1178 C1170 0.930 . S
H1179 C1171 0.929 . S
H1180 C1188 0.929 . S
H1181 C1190 0.930 . S
H1182 C1192 0.930 . S
H1183 C1195 0.929 . S
H1184 C1198 0.930 . S
H1185 C1200 0.960 . S
H1186 C1200 0.960 . S
H1187 C1200 0.960 . S
C1188 H1180 0.929 . S
C1188 C1189 1.377 . S
C1188 C1190 1.384 . S
C1189 C1188 1.377 . S
C1189 C1195 1.390 . S
C1190 H1181 0.930 . S
C1190 C1188 1.384 . S
C1190 C1191 1.372 . S
C1191 C1190 1.372 . S
C1191 C1192 1.400 . S
C1191 C1196 1.490 . S
C1192 H1182 0.930 . S
C1192 C1191 1.400 . S
C1192 C1195 1.386 . S
H1193 C1209 0.930 . S
H1194 C1210 0.931 . S
C1195 H1183 0.929 . S
C1195 C1189 1.390 . S
C1195 C1192 1.386 . S
C1196 C1191 1.490 . S
C1196 C1198 1.395 . S
C1196 C1199 1.403 . S
H1197 C1203 0.930 . S
C1198 H1184 0.930 . S
C1198 C1196 1.395 . S
C1198 C1201 1.403 . S
C1199 C1196 1.403 . S
C1199 C1200 1.524 . S
C1199 C1203 1.400 . S
C1200 H1185 0.960 . S
C1200 H1186 0.960 . S
C1200 H1187 0.960 . S
C1200 C1199 1.524 . S
C1201 C1198 1.403 . S
C1201 C1202 1.392 . S
C1201 C1205 1.495 . S
C1202 C1201 1.392 . S
C1202 C1203 1.385 . S
C1202 C1204 1.478 . S
C1203 H1197 0.930 . S
C1203 C1199 1.400 . S
C1203 C1202 1.385 . S
C1204 C1202 1.478 . S
C1204 C1206 1.381 . S
C1204 C1210 1.383 . S
C1205 C1201 1.495 . S
C1205 H1211 0.959 . S
C1205 H1212 0.961 . S
C1205 H1213 0.960 . S
C1206 C1204 1.381 . S
C1206 C1207 1.394 . S
C1206 H1214 0.930 . S
C1207 C1206 1.394 . S
C1207 C1208 1.383 . S
C1207 H1215 0.929 1_554 S
C1208 C1207 1.383 . S
C1208 C1209 1.377 . S
C1209 H1193 0.930 . S
C1209 C1208 1.377 . S
C1209 C1210 1.379 . S
C1210 H1194 0.931 . S
C1210 C1204 1.383 . S
C1210 C1209 1.379 . S
H1211 C1205 0.959 . S
H1212 C1205 0.961 . S
H1213 C1205 0.960 . S
H1214 C1206 0.930 . S
H1215 C1207 0.929 1_556 S
H1216 C1224 0.929 . S
H1217 C1226 0.930 . S
H1218 C1228 0.930 . S
H1219 C1231 0.929 . S
H1220 C1234 0.930 . S
H1221 C1236 0.960 . S
H1222 C1236 0.960 . S
H1223 C1236 0.960 . S
C1224 H1216 0.929 . S
C1224 C1225 1.377 . S
C1224 C1226 1.384 . S
C1225 C1224 1.377 . S
C1225 C1231 1.390 . S
C1226 H1217 0.930 . S
C1226 C1224 1.384 . S
C1226 C1227 1.372 . S
C1227 C1226 1.372 . S
C1227 C1228 1.400 . S
C1227 C1232 1.490 . S
C1228 H1218 0.930 . S
C1228 C1227 1.400 . S
C1228 C1231 1.386 . S
H1229 C1245 0.930 . S
H1230 C1246 0.931 . S
C1231 H1219 0.929 . S
C1231 C1225 1.390 . S
C1231 C1228 1.386 . S
C1232 C1227 1.490 . S
C1232 C1234 1.395 . S
C1232 C1235 1.403 . S
H1233 C1239 0.930 . S
C1234 H1220 0.930 . S
C1234 C1232 1.395 . S
C1234 C1237 1.403 . S
C1235 C1232 1.403 . S
C1235 C1236 1.524 . S
C1235 C1239 1.400 . S
C1236 H1221 0.960 . S
C1236 H1222 0.960 . S
C1236 H1223 0.960 . S
C1236 C1235 1.524 . S
C1237 C1234 1.403 . S
C1237 C1238 1.392 . S
C1237 C1241 1.495 . S
C1238 C1237 1.392 . S
C1238 C1239 1.385 . S
C1238 C1240 1.478 . S
C1239 H1233 0.930 . S
C1239 C1235 1.400 . S
C1239 C1238 1.385 . S
C1240 C1238 1.478 . S
C1240 C1242 1.381 . S
C1240 C1246 1.383 . S
C1241 C1237 1.495 . S
C1241 H1247 0.959 . S
C1241 H1248 0.961 . S
C1241 H1249 0.960 . S
C1242 C1240 1.381 . S
C1242 C1243 1.394 . S
C1242 H1250 0.930 . S
C1243 C1242 1.394 . S
C1243 C1244 1.383 . S
C1243 H1251 0.929 . S
C1244 C1243 1.383 . S
C1244 C1245 1.377 . S
C1245 H1229 0.930 . S
C1245 C1244 1.377 . S
C1245 C1246 1.379 . S
C1246 H1230 0.931 . S
C1246 C1240 1.383 . S
C1246 C1245 1.379 . S
H1247 C1241 0.959 . S
H1248 C1241 0.961 . S
H1249 C1241 0.960 . S
H1250 C1242 0.930 . S
H1251 C1243 0.929 . S
H1252 C1260 0.929 . S
H1253 C1262 0.930 . S
H1254 C1264 0.930 . S
H1255 C1267 0.929 . S
H1256 C1270 0.930 . S
H1257 C1272 0.960 . S
H1258 C1272 0.960 . S
H1259 C1272 0.960 . S
C1260 H1252 0.929 . S
C1260 C1261 1.377 . S
C1260 C1262 1.384 . S
C1261 C1260 1.377 . S
C1261 C1267 1.390 . S
C1262 H1253 0.930 . S
C1262 C1260 1.384 . S
C1262 C1263 1.372 . S
C1263 C1262 1.372 . S
C1263 C1264 1.400 . S
C1263 C1268 1.490 . S
C1264 H1254 0.930 . S
C1264 C1263 1.400 . S
C1264 C1267 1.386 . S
H1265 C1281 0.930 . S
H1266 C1282 0.931 . S
C1267 H1255 0.929 . S
C1267 C1261 1.390 . S
C1267 C1264 1.386 . S
C1268 C1263 1.490 . S
C1268 C1270 1.395 . S
C1268 C1271 1.403 . S
H1269 C1275 0.930 . S
C1270 H1256 0.930 . S
C1270 C1268 1.395 . S
C1270 C1273 1.403 . S
C1271 C1268 1.403 . S
C1271 C1272 1.524 . S
C1271 C1275 1.400 . S
C1272 H1257 0.960 . S
C1272 H1258 0.960 . S
C1272 H1259 0.960 . S
C1272 C1271 1.524 . S
C1273 C1270 1.403 . S
C1273 C1274 1.392 . S
C1273 C1277 1.495 . S
C1274 C1273 1.392 . S
C1274 C1275 1.385 . S
C1274 C1276 1.478 . S
C1275 H1269 0.930 . S
C1275 C1271 1.400 . S
C1275 C1274 1.385 . S
C1276 C1274 1.478 . S
C1276 C1278 1.381 . S
C1276 C1282 1.383 . S
C1277 C1273 1.495 . S
C1277 H1283 0.959 . S
C1277 H1284 0.961 . S
C1277 H1285 0.960 . S
C1278 C1276 1.381 . S
C1278 C1279 1.394 . S
C1278 H1286 0.930 . S
C1279 C1278 1.394 . S
C1279 C1280 1.383 . S
C1279 H1287 0.929 . S
C1280 C1279 1.383 . S
C1280 C1281 1.377 . S
C1281 H1265 0.930 . S
C1281 C1280 1.377 . S
C1281 C1282 1.379 . S
C1282 H1266 0.931 . S
C1282 C1276 1.383 . S
C1282 C1281 1.379 . S
H1283 C1277 0.959 . S
H1284 C1277 0.961 . S
H1285 C1277 0.960 . S
H1286 C1278 0.930 . S
H1287 C1279 0.929 . S
H1288 C1296 0.929 . S
H1289 C1298 0.930 . S
H1290 C1300 0.930 . S
H1291 C1303 0.929 . S
H1292 C1306 0.930 . S
H1293 C1308 0.960 . S
H1294 C1308 0.960 . S
H1295 C1308 0.960 . S
C1296 H1288 0.929 . S
C1296 C1297 1.377 . S
C1296 C1298 1.384 . S
C1297 C1296 1.377 . S
C1297 C1303 1.390 . S
C1298 H1289 0.930 . S
C1298 C1296 1.384 . S
C1298 C1299 1.372 . S
C1299 C1298 1.372 . S
C1299 C1300 1.400 . S
C1299 C1304 1.490 . S
C1300 H1290 0.930 . S
C1300 C1299 1.400 . S
C1300 C1303 1.386 . S
H1301 C1317 0.930 . S
H1302 C1318 0.931 . S
C1303 H1291 0.929 . S
C1303 C1297 1.390 . S
C1303 C1300 1.386 . S
C1304 C1299 1.490 . S
C1304 C1306 1.395 . S
C1304 C1307 1.403 . S
H1305 C1311 0.930 . S
C1306 H1292 0.930 . S
C1306 C1304 1.395 . S
C1306 C1309 1.403 . S
C1307 C1304 1.403 . S
C1307 C1308 1.524 . S
C1307 C1311 1.400 . S
C1308 H1293 0.960 . S
C1308 H1294 0.960 . S
C1308 H1295 0.960 . S
C1308 C1307 1.524 . S
C1309 C1306 1.403 . S
C1309 C1310 1.392 . S
C1309 C1313 1.495 . S
C1310 C1309 1.392 . S
C1310 C1311 1.385 . S
C1310 C1312 1.478 . S
C1311 H1305 0.930 . S
C1311 C1307 1.400 . S
C1311 C1310 1.385 . S
C1312 C1310 1.478 . S
C1312 C1314 1.381 . S
C1312 C1318 1.383 . S
C1313 C1309 1.495 . S
C1313 H1319 0.959 . S
C1313 H1320 0.961 . S
C1313 H1321 0.960 . S
C1314 C1312 1.381 . S
C1314 C1315 1.394 . S
C1314 H1322 0.930 . S
C1315 C1314 1.394 . S
C1315 C1316 1.383 . S
C1315 H1323 0.929 . S
C1316 C1315 1.383 . S
C1316 C1317 1.377 . S
C1317 H1301 0.930 . S
C1317 C1316 1.377 . S
C1317 C1318 1.379 . S
C1318 H1302 0.931 . S
C1318 C1312 1.383 . S
C1318 C1317 1.379 . S
H1319 C1313 0.959 . S
H1320 C1313 0.961 . S
H1321 C1313 0.960 . S
H1322 C1314 0.930 . S
H1323 C1315 0.929 . S
H1324 C1332 0.929 . S
H1325 C1334 0.930 . S
H1326 C1336 0.930 . S
H1327 C1339 0.929 . S
H1328 C1342 0.930 . S
H1329 C1344 0.960 . S
H1330 C1344 0.960 . S
H1331 C1344 0.960 . S
C1332 H1324 0.929 . S
C1332 C1333 1.377 . S
C1332 C1334 1.384 . S
C1333 C1332 1.377 . S
C1333 C1339 1.390 . S
C1334 H1325 0.930 . S
C1334 C1332 1.384 . S
C1334 C1335 1.372 . S
C1335 C1334 1.372 . S
C1335 C1336 1.400 . S
C1335 C1340 1.490 . S
C1336 H1326 0.930 . S
C1336 C1335 1.400 . S
C1336 C1339 1.386 . S
H1337 C1353 0.930 . S
H1338 C1354 0.931 . S
C1339 H1327 0.929 . S
C1339 C1333 1.390 . S
C1339 C1336 1.386 . S
C1340 C1335 1.490 . S
C1340 C1342 1.395 . S
C1340 C1343 1.403 . S
H1341 C1347 0.930 . S
C1342 H1328 0.930 . S
C1342 C1340 1.395 . S
C1342 C1345 1.403 . S
C1343 C1340 1.403 . S
C1343 C1344 1.524 . S
C1343 C1347 1.400 . S
C1344 H1329 0.960 . S
C1344 H1330 0.960 . S
C1344 H1331 0.960 . S
C1344 C1343 1.524 . S
C1345 C1342 1.403 . S
C1345 C1346 1.392 . S
C1345 C1349 1.495 . S
C1346 C1345 1.392 . S
C1346 C1347 1.385 . S
C1346 C1348 1.478 . S
C1347 H1341 0.930 . S
C1347 C1343 1.400 . S
C1347 C1346 1.385 . S
C1348 C1346 1.478 . S
C1348 C1350 1.381 . S
C1348 C1354 1.383 . S
C1349 C1345 1.495 . S
C1349 H1355 0.959 . S
C1349 H1356 0.961 . S
C1349 H1357 0.960 . S
C1350 C1348 1.381 . S
C1350 C1351 1.394 . S
C1350 H1358 0.930 . S
C1351 C1350 1.394 . S
C1351 C1352 1.383 . S
C1351 H1359 0.929 . S
C1352 C1351 1.383 . S
C1352 C1353 1.377 . S
C1353 H1337 0.930 . S
C1353 C1352 1.377 . S
C1353 C1354 1.379 . S
C1354 H1338 0.931 . S
C1354 C1348 1.383 . S
C1354 C1353 1.379 . S
H1355 C1349 0.959 . S
H1356 C1349 0.961 . S
H1357 C1349 0.960 . S
H1358 C1350 0.930 . S
H1359 C1351 0.929 . S
C217 C10 1.150 . S
C236 C166 1.149 . S
C253 C18 0.903 . S
C272 C70 0.896 . S
C289 C36 1.150 . S
C308 C192 1.147 . S
C325 C96 0.887 . S
C344 C44 0.912 . S
C361 C187 0.885 . S
C380 C31 0.854 . S
C397 C101 1.150 . S
C416 C49 1.146 . S
C433 C161 0.904 . S
C452 C5 0.935 . S
C469 C75 1.150 . S
C488 C23 1.146 . S
C505 C62 1.150 . S
C524 C114 1.147 . S
C541 C88 1.150 . S
C560 C140 1.149 . S
C577 C135 0.884 . S
C596 C83 0.887 . S
C613 C57 0.900 . S
C632 C109 0.943 . S
C649 C174 0.884 . S
C668 C122 0.879 . S
C685 C148 0.904 . S
C704 C200 0.909 . S
C721 C153 1.150 . S
C740 C205 1.146 . S
C757 C127 1.150 . S
C776 C179 1.148 . S
C793 C143 1.408 . S
C812 C0 1.379 . S
C829 C112 1.444 . S
C848 C21 1.461 . S
C865 C26 1.415 . S
C884 C117 1.423 . S
C901 C138 1.444 . S
C920 C47 1.414 . S
C937 C151 1.446 . S
C956 C34 1.444 . S
C973 C39 1.404 . S
C992 C104 1.392 . S
C1009 C125 1.435 . S
C1028 C8 1.439 . S
C1045 C130 1.415 . S
C1064 C13 1.425 . S
C1081 C52 1.412 . S
C1100 C195 1.434 . S
C1117 C164 1.435 . S
C1136 C73 1.422 . S
C1153 C78 1.410 . S
C1172 C169 1.384 . S
C1189 C99 1.436 . S
C1208 C190 1.432 . S
C1225 C86 1.438 . S
C1244 C203 1.439 . S
C1261 C156 1.409 . S
C1280 C91 1.429 . S
C1297 C177 1.445 . S
C1316 C60 1.465 . S
C1333 C182 1.406 . S
C1352 C65 1.379 . S
