# Generated by pormake.
# Topology uns, (4)-cn, num edge types: 1
# Building blocks:
#     Node 0, Type 0, BuildingBlock: ICAMEG_clean_sbu_1, # of connection points: 4
#     Node 1, Type 0, BuildingBlock: ICAMEG_clean_sbu_1, # of connection points: 4
#     Node 2, Type 0, BuildingBlock: ICAMEG_clean_sbu_1, # of connection points: 4
#     Node 3, Type 0, BuildingBlock: ICAMEG_clean_sbu_1, # of connection points: 4
#     Node 4, Type 0, BuildingBlock: ICAMEG_clean_sbu_1, # of connection points: 4
#     Node 5, Type 0, BuildingBlock: ICAMEG_clean_sbu_1, # of connection points: 4
#     Node 6, Type 0, BuildingBlock: ICAMEG_clean_sbu_1, # of connection points: 4
#     Node 7, Type 0, BuildingBlock: ICAMEG_clean_sbu_1, # of connection points: 4
#     Node 8, Type 0, BuildingBlock: ICAMEG_clean_sbu_1, # of connection points: 4
#     Node 9, Type 0, BuildingBlock: ICAMEG_clean_sbu_1, # of connection points: 4
#     Node 10, Type 0, BuildingBlock: ICAMEG_clean_sbu_1, # of connection points: 4
#     Node 11, Type 0, BuildingBlock: ICAMEG_clean_sbu_1, # of connection points: 4
#     Node 12, Type 0, BuildingBlock: ICAMEG_clean_sbu_1, # of connection points: 4
#     Node 13, Type 0, BuildingBlock: ICAMEG_clean_sbu_1, # of connection points: 4
#     Node 14, Type 0, BuildingBlock: ICAMEG_clean_sbu_1, # of connection points: 4
#     Node 15, Type 0, BuildingBlock: ICAMEG_clean_sbu_1, # of connection points: 4
#     Node 16, Type 0, BuildingBlock: ICAMEG_clean_sbu_1, # of connection points: 4
#     Node 17, Type 0, BuildingBlock: ICAMEG_clean_sbu_1, # of connection points: 4
#     Node 18, Type 0, BuildingBlock: ICAMEG_clean_sbu_1, # of connection points: 4
#     Node 19, Type 0, BuildingBlock: ICAMEG_clean_sbu_1, # of connection points: 4
#     Node 20, Type 0, BuildingBlock: ICAMEG_clean_sbu_1, # of connection points: 4
#     Node 21, Type 0, BuildingBlock: ICAMEG_clean_sbu_1, # of connection points: 4
#     Node 22, Type 0, BuildingBlock: ICAMEG_clean_sbu_1, # of connection points: 4
#     Node 23, Type 0, BuildingBlock: ICAMEG_clean_sbu_1, # of connection points: 4
#     Node 24, Type 0, BuildingBlock: ICAMEG_clean_sbu_1, # of connection points: 4
#     Node 25, Type 0, BuildingBlock: ICAMEG_clean_sbu_1, # of connection points: 4
#     Node 26, Type 0, BuildingBlock: ICAMEG_clean_sbu_1, # of connection points: 4
#     Node 27, Type 0, BuildingBlock: ICAMEG_clean_sbu_1, # of connection points: 4
#     Node 28, Type 0, BuildingBlock: ICAMEG_clean_sbu_1, # of connection points: 4
#     Node 29, Type 0, BuildingBlock: ICAMEG_clean_sbu_1, # of connection points: 4
#     Node 30, Type 0, BuildingBlock: ICAMEG_clean_sbu_1, # of connection points: 4
#     Node 31, Type 0, BuildingBlock: ICAMEG_clean_sbu_1, # of connection points: 4
#     Node 32, Type 0, BuildingBlock: ICAMEG_clean_sbu_1, # of connection points: 4
#     Node 33, Type 0, BuildingBlock: ICAMEG_clean_sbu_1, # of connection points: 4
#     Node 34, Type 0, BuildingBlock: ICAMEG_clean_sbu_1, # of connection points: 4
#     Node 35, Type 0, BuildingBlock: ICAMEG_clean_sbu_1, # of connection points: 4
#     Edge 36, Type (0, 0), BuildingBlock: CIFDUS_clean_linker_0, # of connection points: 2
#     Edge 37, Type (0, 0), BuildingBlock: CIFDUS_clean_linker_0, # of connection points: 2
#     Edge 38, Type (0, 0), BuildingBlock: CIFDUS_clean_linker_0, # of connection points: 2
#     Edge 39, Type (0, 0), BuildingBlock: CIFDUS_clean_linker_0, # of connection points: 2
#     Edge 40, Type (0, 0), BuildingBlock: CIFDUS_clean_linker_0, # of connection points: 2
#     Edge 41, Type (0, 0), BuildingBlock: CIFDUS_clean_linker_0, # of connection points: 2
#     Edge 42, Type (0, 0), BuildingBlock: CIFDUS_clean_linker_0, # of connection points: 2
#     Edge 43, Type (0, 0), BuildingBlock: CIFDUS_clean_linker_0, # of connection points: 2
#     Edge 44, Type (0, 0), BuildingBlock: CIFDUS_clean_linker_0, # of connection points: 2
#     Edge 45, Type (0, 0), BuildingBlock: CIFDUS_clean_linker_0, # of connection points: 2
#     Edge 46, Type (0, 0), BuildingBlock: CIFDUS_clean_linker_0, # of connection points: 2
#     Edge 47, Type (0, 0), BuildingBlock: CIFDUS_clean_linker_0, # of connection points: 2
#     Edge 48, Type (0, 0), BuildingBlock: CIFDUS_clean_linker_0, # of connection points: 2
#     Edge 49, Type (0, 0), BuildingBlock: CIFDUS_clean_linker_0, # of connection points: 2
#     Edge 50, Type (0, 0), BuildingBlock: CIFDUS_clean_linker_0, # of connection points: 2
#     Edge 51, Type (0, 0), BuildingBlock: CIFDUS_clean_linker_0, # of connection points: 2
#     Edge 52, Type (0, 0), BuildingBlock: CIFDUS_clean_linker_0, # of connection points: 2
#     Edge 53, Type (0, 0), BuildingBlock: CIFDUS_clean_linker_0, # of connection points: 2
#     Edge 54, Type (0, 0), BuildingBlock: CIFDUS_clean_linker_0, # of connection points: 2
#     Edge 55, Type (0, 0), BuildingBlock: CIFDUS_clean_linker_0, # of connection points: 2
#     Edge 56, Type (0, 0), BuildingBlock: CIFDUS_clean_linker_0, # of connection points: 2
#     Edge 57, Type (0, 0), BuildingBlock: CIFDUS_clean_linker_0, # of connection points: 2
#     Edge 58, Type (0, 0), BuildingBlock: CIFDUS_clean_linker_0, # of connection points: 2
#     Edge 59, Type (0, 0), BuildingBlock: CIFDUS_clean_linker_0, # of connection points: 2
#     Edge 60, Type (0, 0), BuildingBlock: CIFDUS_clean_linker_0, # of connection points: 2
#     Edge 61, Type (0, 0), BuildingBlock: CIFDUS_clean_linker_0, # of connection points: 2
#     Edge 62, Type (0, 0), BuildingBlock: CIFDUS_clean_linker_0, # of connection points: 2
#     Edge 63, Type (0, 0), BuildingBlock: CIFDUS_clean_linker_0, # of connection points: 2
#     Edge 64, Type (0, 0), BuildingBlock: CIFDUS_clean_linker_0, # of connection points: 2
#     Edge 65, Type (0, 0), BuildingBlock: CIFDUS_clean_linker_0, # of connection points: 2
#     Edge 66, Type (0, 0), BuildingBlock: CIFDUS_clean_linker_0, # of connection points: 2
#     Edge 67, Type (0, 0), BuildingBlock: CIFDUS_clean_linker_0, # of connection points: 2
#     Edge 68, Type (0, 0), BuildingBlock: CIFDUS_clean_linker_0, # of connection points: 2
#     Edge 69, Type (0, 0), BuildingBlock: CIFDUS_clean_linker_0, # of connection points: 2
#     Edge 70, Type (0, 0), BuildingBlock: CIFDUS_clean_linker_0, # of connection points: 2
#     Edge 71, Type (0, 0), BuildingBlock: CIFDUS_clean_linker_0, # of connection points: 2
#     Edge 72, Type (0, 0), BuildingBlock: CIFDUS_clean_linker_0, # of connection points: 2
#     Edge 73, Type (0, 0), BuildingBlock: CIFDUS_clean_linker_0, # of connection points: 2
#     Edge 74, Type (0, 0), BuildingBlock: CIFDUS_clean_linker_0, # of connection points: 2
#     Edge 75, Type (0, 0), BuildingBlock: CIFDUS_clean_linker_0, # of connection points: 2
#     Edge 76, Type (0, 0), BuildingBlock: CIFDUS_clean_linker_0, # of connection points: 2
#     Edge 77, Type (0, 0), BuildingBlock: CIFDUS_clean_linker_0, # of connection points: 2
#     Edge 78, Type (0, 0), BuildingBlock: CIFDUS_clean_linker_0, # of connection points: 2
#     Edge 79, Type (0, 0), BuildingBlock: CIFDUS_clean_linker_0, # of connection points: 2
#     Edge 80, Type (0, 0), BuildingBlock: CIFDUS_clean_linker_0, # of connection points: 2
#     Edge 81, Type (0, 0), BuildingBlock: CIFDUS_clean_linker_0, # of connection points: 2
#     Edge 82, Type (0, 0), BuildingBlock: CIFDUS_clean_linker_0, # of connection points: 2
#     Edge 83, Type (0, 0), BuildingBlock: CIFDUS_clean_linker_0, # of connection points: 2
#     Edge 84, Type (0, 0), BuildingBlock: CIFDUS_clean_linker_0, # of connection points: 2
#     Edge 85, Type (0, 0), BuildingBlock: CIFDUS_clean_linker_0, # of connection points: 2
#     Edge 86, Type (0, 0), BuildingBlock: CIFDUS_clean_linker_0, # of connection points: 2
#     Edge 87, Type (0, 0), BuildingBlock: CIFDUS_clean_linker_0, # of connection points: 2
#     Edge 88, Type (0, 0), BuildingBlock: CIFDUS_clean_linker_0, # of connection points: 2
#     Edge 89, Type (0, 0), BuildingBlock: CIFDUS_clean_linker_0, # of connection points: 2
#     Edge 90, Type (0, 0), BuildingBlock: CIFDUS_clean_linker_0, # of connection points: 2
#     Edge 91, Type (0, 0), BuildingBlock: CIFDUS_clean_linker_0, # of connection points: 2
#     Edge 92, Type (0, 0), BuildingBlock: CIFDUS_clean_linker_0, # of connection points: 2
#     Edge 93, Type (0, 0), BuildingBlock: CIFDUS_clean_linker_0, # of connection points: 2
#     Edge 94, Type (0, 0), BuildingBlock: CIFDUS_clean_linker_0, # of connection points: 2
#     Edge 95, Type (0, 0), BuildingBlock: CIFDUS_clean_linker_0, # of connection points: 2
#     Edge 96, Type (0, 0), BuildingBlock: CIFDUS_clean_linker_0, # of connection points: 2
#     Edge 97, Type (0, 0), BuildingBlock: CIFDUS_clean_linker_0, # of connection points: 2
#     Edge 98, Type (0, 0), BuildingBlock: CIFDUS_clean_linker_0, # of connection points: 2
#     Edge 99, Type (0, 0), BuildingBlock: CIFDUS_clean_linker_0, # of connection points: 2
#     Edge 100, Type (0, 0), BuildingBlock: CIFDUS_clean_linker_0, # of connection points: 2
#     Edge 101, Type (0, 0), BuildingBlock: CIFDUS_clean_linker_0, # of connection points: 2
#     Edge 102, Type (0, 0), BuildingBlock: CIFDUS_clean_linker_0, # of connection points: 2
#     Edge 103, Type (0, 0), BuildingBlock: CIFDUS_clean_linker_0, # of connection points: 2
#     Edge 104, Type (0, 0), BuildingBlock: CIFDUS_clean_linker_0, # of connection points: 2
#     Edge 105, Type (0, 0), BuildingBlock: CIFDUS_clean_linker_0, # of connection points: 2
#     Edge 106, Type (0, 0), BuildingBlock: CIFDUS_clean_linker_0, # of connection points: 2
#     Edge 107, Type (0, 0), BuildingBlock: CIFDUS_clean_linker_0, # of connection points: 2
# Relax obj value: 0.028
# Max RMSD: 0.152
# Mean RMSD: 0.152
data_MOF--net-uns--node1-ICAMEG_clean_sbu_1--edge1-CIFDUS_clean_linker_0
_symmetry_space_group_name_H-M    P1
_symmetry_Int_Tables_number       1
_symmetry_cell_setting            triclinic
loop_
_symmetry_equiv_pos_as_xyz
'x, y, z'
_cell_length_a     51.011446
_cell_length_b     51.009194
_cell_length_c     56.498071
_cell_angle_alpha  90.075751
_cell_angle_beta   89.883854
_cell_angle_gamma 120.08012
loop_
_atom_site_label
_atom_site_type_symbol
_atom_site_fract_x
_atom_site_fract_y
_atom_site_fract_z
_atom_type_partial_charge
Co0 Co 0.23307 0.18247 0.10071 0.0
Co1 Co 0.27304 0.19442 0.04843 0.0
O2 O 0.25537 0.17251 0.07783 0.0
C3 C 0.28384 0.18525 0.12725 0.0
O4 O 0.30109 0.20135 0.10956 0.0
C5 C 0.23069 0.13123 0.03482 0.0
O6 O 0.21147 0.13254 0.04956 0.0
O7 O 0.23556 0.19531 0.04048 0.0
O8 O 0.21027 0.18887 0.07475 0.0
H9 H 0.29962 0.27579 0.9876 0.0
H10 H 0.2344 0.12528 0.10583 0.0
O11 O 0.25556 0.17603 0.12698 0.0
H12 H 0.12643 0.09416 0.0975 0.0
H13 H 0.17741 0.16967 0.17735 0.0
H14 H 0.21472 0.22905 0.10372 0.0
H15 H 0.16563 0.14827 0.09744 0.0
H16 H 0.20486 0.1571 0.14758 0.0
O17 O 0.25672 0.15451 0.03147 0.0
H18 H 0.27771 0.24864 0.02502 0.0
H19 H 0.30569 0.18513 0.00846 0.0
H20 H 0.18717 0.24228 0.13293 0.0
H21 H 0.19592 0.07093 0.10626 0.0
H22 H 0.16831 0.21247 0.17005 0.0
H23 H 0.14151 0.05507 0.10196 0.0
O24 O 0.26462 0.2262 0.09978 0.0
H25 H 0.33267 0.14613 0.07581 0.0
H26 H 0.33865 0.24107 0.04935 0.0
H27 H 0.38543 0.24123 0.06059 0.0
H28 H 0.3826 0.19351 0.07396 0.0
H29 H 0.28644 0.14702 0.06454 0.0
H30 H 0.32769 0.21142 0.97074 0.0
H31 H 0.32482 0.25717 0.96015 0.0
O32 O 0.28921 0.23438 0.065 0.0
C33 C 0.21347 0.19342 0.05246 0.0
C34 C 0.3011 0.25594 0.99204 0.0
C35 C 0.31682 0.21979 0.98257 0.0
N36 N 0.29063 0.21549 0.01899 0.0
C37 C 0.28881 0.24053 0.01324 0.0
C38 C 0.30427 0.20496 0.00392 0.0
C39 C 0.31521 0.24546 0.97664 0.0
C40 C 0.21074 0.11856 0.10423 0.0
N41 N 0.20226 0.13992 0.10172 0.0
C42 C 0.18906 0.08775 0.10439 0.0
C43 C 0.15854 0.07887 0.10193 0.0
C44 C 0.15007 0.10079 0.0994 0.0
C45 C 0.17237 0.13139 0.09932 0.0
C46 C 0.18546 0.18279 0.16122 0.0
C47 C 0.20639 0.21587 0.11977 0.0
C48 C 0.20106 0.17581 0.14433 0.0
N49 N 0.21114 0.19218 0.12387 0.0
C50 C 0.1909 0.22352 0.13627 0.0
C51 C 0.18035 0.2068 0.15711 0.0
C52 C 0.28443 0.24358 0.08473 0.0
C53 C 0.33421 0.16704 0.06993 0.0
C54 C 0.33724 0.22021 0.05512 0.0
C55 C 0.36381 0.22043 0.06144 0.0
C56 C 0.36221 0.19364 0.06893 0.0
N57 N 0.30987 0.19402 0.05614 0.0
C58 C 0.30812 0.16765 0.06342 0.0
Co59 Co 0.82392 0.06953 0.09081 0.0
Co60 Co 0.80753 0.08412 0.03472 0.0
O61 O 0.83118 0.09633 0.06392 0.0
C62 C 0.82002 0.12064 0.11158 0.0
O63 O 0.80275 0.11792 0.09346 0.0
C64 C 0.87102 0.10891 0.0193 0.0
O65 O 0.87333 0.09253 0.03618 0.0
O66 O 0.81175 0.04756 0.03178 0.0
O67 O 0.81555 0.0348 0.0692 0.0
H68 H 0.72681 0.01129 0.97929 0.0
H69 H 0.88039 0.12915 0.08915 0.0
O70 O 0.83141 0.10342 0.11316 0.0
H71 H 0.9136 0.05351 0.09048 0.0
H72 H 0.84514 0.0447 0.1722 0.0
H73 H 0.77822 0.00603 0.10254 0.0
H74 H 0.85924 0.03739 0.09196 0.0
H75 H 0.85414 0.07744 0.13747 0.0
O76 O 0.84591 0.1081 0.01589 0.0
H77 H 0.75633 0.02681 0.01633 0.0
H78 H 0.80991 0.11644 0.99014 0.0
H79 H 0.76854 0.9724 0.13679 0.0
H80 H 0.935 0.14629 0.0878 0.0
H81 H 0.80215 0.99172 0.17195 0.0
H82 H 0.95189 0.10831 0.08837 0.0
O83 O 0.78018 0.0563 0.09083 0.0
H84 H 0.84519 0.19469 0.04857 0.0
H85 H 0.75547 0.09516 0.03189 0.0
H86 H 0.74949 0.13997 0.03657 0.0
H87 H 0.79457 0.19018 0.04495 0.0
H88 H 0.85011 0.14925 0.04396 0.0
H89 H 0.78115 0.10183 0.95272 0.0
H90 H 0.73918 0.04895 0.94716 0.0
O91 O 0.76873 0.05988 0.05297 0.0
C92 C 0.81246 0.02944 0.04696 0.0
C93 C 0.74497 0.03443 0.98153 0.0
C94 C 0.7755 0.08524 0.96661 0.0
N95 N 0.78461 0.07255 0.00546 0.0
C96 C 0.7617 0.04337 0.00249 0.0
C97 C 0.79174 0.09336 0.98781 0.0
C98 C 0.75194 0.05556 0.9635 0.0
C99 C 0.8876 0.11253 0.08968 0.0
N100 N 0.86669 0.08234 0.09074 0.0
C101 C 0.91854 0.12235 0.0888 0.0
C102 C 0.928 0.10103 0.08908 0.0
C103 C 0.90652 0.07027 0.09024 0.0
C104 C 0.87577 0.06128 0.09102 0.0
C105 C 0.83041 0.03598 0.15695 0.0
C106 C 0.79311 0.01448 0.11768 0.0
C107 C 0.83538 0.05442 0.13725 0.0
N108 N 0.81696 0.0435 0.11788 0.0
C109 C 0.78744 0.99539 0.13706 0.0
C110 C 0.80629 0.00626 0.1568 0.0
C111 C 0.76119 0.05196 0.07452 0.0
C112 C 0.82539 0.17296 0.04485 0.0
C113 C 0.77519 0.11693 0.03558 0.0
C114 C 0.77167 0.14223 0.03816 0.0
C115 C 0.79697 0.1704 0.04285 0.0
N116 N 0.80315 0.11963 0.03753 0.0
C117 C 0.82806 0.14717 0.04211 0.0
Co118 Co 0.94852 0.75553 0.08321 0.0
Co119 Co 0.92264 0.72861 0.02694 0.0
O120 O 0.9172 0.73939 0.05894 0.0
C121 C 0.89758 0.70077 0.10438 0.0
O122 O 0.89752 0.68701 0.08472 0.0
C123 C 0.90158 0.77245 0.02124 0.0
O124 O 0.92178 0.78872 0.03733 0.0
O125 O 0.96046 0.76807 0.02293 0.0
O126 O 0.98035 0.78236 0.05944 0.0
H127 H 0.98078 0.71829 0.95916 0.0
H128 H 0.89163 0.75676 0.09104 0.0
O129 O 0.91712 0.72877 0.10722 0.0
H130 H 0.97334 0.86354 0.09422 0.0
H131 H 0.98847 0.79369 0.16498 0.0
H132 H 0.01225 0.7694 0.08613 0.0
H133 H 0.98519 0.82276 0.08775 0.0
H134 H 0.95 0.77441 0.13333 0.0
O135 O 0.8988 0.74731 0.01443 0.0
H136 H 0.97385 0.73142 0.99986 0.0
H137 H 0.88201 0.70386 0.98506 0.0
H138 H 0.05147 0.78886 0.1172 0.0
H139 H 0.87879 0.7968 0.09779 0.0
H140 H 0.03967 0.80114 0.15696 0.0
H141 H 0.9198 0.85064 0.09931 0.0
O142 O 0.95833 0.72312 0.07718 0.0
H143 H 0.81392 0.66133 0.05071 0.0
H144 H 0.90515 0.66417 0.01828 0.0
H145 H 0.85871 0.61488 0.02448 0.0
H146 H 0.81267 0.61326 0.04081 0.0
H147 H 0.8609 0.71011 0.04438 0.0
H148 H 0.88799 0.69066 0.94413 0.0
H149 H 0.93762 0.69772 0.931 0.0
O150 O 0.94676 0.70996 0.03896 0.0
C151 C 0.98156 0.78571 0.03694 0.0
C152 C 0.959 0.71499 0.9647 0.0
C153 C 0.90694 0.69952 0.95626 0.0
N154 N 0.92748 0.7181 0.99487 0.0
C155 C 0.95492 0.72229 0.98774 0.0
C156 C 0.9037 0.70708 0.97943 0.0
C157 C 0.93479 0.70349 0.9489 0.0
C158 C 0.90963 0.78011 0.09196 0.0
N159 N 0.93913 0.7874 0.08913 0.0
C160 C 0.90221 0.80269 0.09568 0.0
C161 C 0.92523 0.83291 0.09649 0.0
C162 C 0.95527 0.84016 0.0936 0.0
C163 C 0.96184 0.81698 0.08989 0.0
C164 C 0.99391 0.7885 0.14771 0.0
C165 C 0.00704 0.77493 0.10334 0.0
C166 C 0.97222 0.77754 0.12974 0.0
N167 N 0.97901 0.7711 0.10786 0.0
C168 C 0.02929 0.78583 0.12088 0.0
C169 C 0.02264 0.79268 0.14319 0.0
C170 C 0.958 0.70844 0.05879 0.0
C171 C 0.8338 0.66174 0.04351 0.0
C172 C 0.8852 0.66365 0.0254 0.0
C173 C 0.85897 0.63567 0.02884 0.0
C174 C 0.83313 0.63478 0.03799 0.0
N175 N 0.88567 0.68999 0.03085 0.0
C176 C 0.86042 0.6893 0.03979 0.0
Co177 Co 0.19445 0.2443 0.4132 0.0
Co178 Co 0.19656 0.27731 0.46703 0.0
O179 O 0.17903 0.26221 0.43587 0.0
C180 C 0.19357 0.29379 0.38672 0.0
O181 O 0.20813 0.31132 0.40475 0.0
C182 C 0.13223 0.23322 0.4761 0.0
O183 O 0.13557 0.21527 0.46128 0.0
O184 O 0.19619 0.23908 0.47424 0.0
O185 O 0.20274 0.22231 0.43909 0.0
H186 H 0.26861 0.29761 0.53427 0.0
H187 H 0.13409 0.23803 0.40531 0.0
O188 O 0.18646 0.26598 0.38693 0.0
H189 H 0.11527 0.13358 0.41168 0.0
H190 H 0.19423 0.19586 0.33547 0.0
H191 H 0.24684 0.23423 0.41166 0.0
H192 H 0.16721 0.17714 0.41459 0.0
H193 H 0.17489 0.21763 0.36507 0.0
O194 O 0.1546 0.2594 0.48076 0.0
H195 H 0.24692 0.27931 0.49459 0.0
H196 H 0.18176 0.30648 0.50656 0.0
H197 H 0.26685 0.21244 0.38265 0.0
H198 H 0.08184 0.19512 0.40206 0.0
H199 H 0.24047 0.19306 0.34424 0.0
H200 H 0.07215 0.14244 0.40535 0.0
O201 O 0.23621 0.27915 0.41648 0.0
H202 H 0.15151 0.33898 0.4375 0.0
H203 H 0.24274 0.34297 0.47081 0.0
H204 H 0.2439 0.39056 0.46067 0.0
H205 H 0.19805 0.38875 0.44389 0.0
H206 H 0.15141 0.29193 0.44774 0.0
H207 H 0.20254 0.32482 0.54646 0.0
H208 H 0.24635 0.32052 0.56048 0.0
O209 O 0.23886 0.29534 0.45393 0.0
C210 C 0.2009 0.22107 0.46167 0.0
C211 C 0.24959 0.29971 0.52831 0.0
C212 C 0.21248 0.31494 0.53517 0.0
N213 N 0.21333 0.29212 0.4982 0.0
C214 C 0.23729 0.28949 0.50584 0.0
C215 C 0.20078 0.30448 0.51258 0.0
C216 C 0.23707 0.31254 0.54303 0.0
C217 C 0.13011 0.21517 0.40648 0.0
N218 N 0.15369 0.2101 0.41003 0.0
C219 C 0.10045 0.19096 0.40474 0.0
C220 C 0.09503 0.16141 0.40663 0.0
C221 C 0.1192 0.15643 0.41021 0.0
C222 C 0.14856 0.18119 0.4119 0.0
C223 C 0.20588 0.20416 0.35217 0.0
C224 C 0.23513 0.22563 0.39505 0.0
C225 C 0.19506 0.21654 0.36897 0.0
N226 N 0.20956 0.22689 0.39015 0.0
C227 C 0.24661 0.21342 0.37866 0.0
C228 C 0.23182 0.20259 0.3571 0.0
C229 C 0.25102 0.29568 0.43402 0.0
C230 C 0.1716 0.34007 0.44487 0.0
C231 C 0.2227 0.34199 0.4635 0.0
C232 C 0.22348 0.36902 0.45783 0.0
C233 C 0.19774 0.36799 0.44843 0.0
N234 N 0.19697 0.31471 0.45998 0.0
C235 C 0.17163 0.31351 0.45079 0.0
Co236 Co 0.75983 0.94927 0.40761 0.0
Co237 Co 0.73527 0.92313 0.464 0.0
O238 O 0.74592 0.91788 0.43183 0.0
C239 C 0.7088 0.89599 0.38469 0.0
O240 O 0.69271 0.89319 0.40368 0.0
C241 C 0.77908 0.90199 0.47002 0.0
O242 O 0.7958 0.92156 0.45368 0.0
O243 O 0.77459 0.9613 0.46778 0.0
O244 O 0.78374 0.98187 0.43142 0.0
H245 H 0.72562 0.98118 0.53214 0.0
H246 H 0.76793 0.89625 0.39985 0.0
O247 O 0.73623 0.91742 0.38329 0.0
H248 H 0.87095 0.98523 0.39802 0.0
H249 H 0.79779 0.99237 0.32643 0.0
H250 H 0.76639 0.01031 0.40456 0.0
H251 H 0.82651 0.99152 0.40397 0.0
H252 H 0.78128 0.95373 0.35786 0.0
O253 O 0.75406 0.8997 0.47639 0.0
H254 H 0.73829 0.97429 0.4913 0.0
H255 H 0.71073 0.88237 0.50592 0.0
H256 H 0.78295 0.04966 0.3737 0.0
H257 H 0.81173 0.88895 0.39362 0.0
H258 H 0.79881 0.04079 0.3343 0.0
H259 H 0.8637 0.93365 0.39276 0.0
O260 O 0.72436 0.95457 0.41328 0.0
H261 H 0.66856 0.8142 0.44059 0.0
H262 H 0.67072 0.90501 0.47316 0.0
H263 H 0.62163 0.85823 0.46738 0.0
H264 H 0.62035 0.81239 0.451 0.0
H265 H 0.71715 0.86153 0.44649 0.0
H266 H 0.69798 0.88833 0.54698 0.0
H267 H 0.70528 0.93798 0.56029 0.0
O268 O 0.71625 0.94679 0.4524 0.0
C269 C 0.78917 0.98341 0.4536 0.0
C270 C 0.72221 0.9594 0.52652 0.0
C271 C 0.70674 0.90729 0.53486 0.0
N272 N 0.72494 0.92788 0.49617 0.0
C273 C 0.72926 0.95533 0.5034 0.0
C274 C 0.71404 0.90407 0.5116 0.0
C275 C 0.71084 0.93516 0.54231 0.0
C276 C 0.79045 0.91583 0.39923 0.0
N277 N 0.79464 0.94428 0.40218 0.0
C278 C 0.81517 0.91155 0.39581 0.0
C279 C 0.84433 0.93663 0.39538 0.0
C280 C 0.84842 0.96558 0.39835 0.0
C281 C 0.82317 0.96899 0.40178 0.0
C282 C 0.79103 0.99653 0.34354 0.0
C283 C 0.77348 0.00639 0.38751 0.0
C284 C 0.78163 0.97473 0.3614 0.0
N285 N 0.77321 0.97992 0.3831 0.0
C286 C 0.78273 0.02871 0.37009 0.0
C287 C 0.7916 0.0237 0.34797 0.0
C288 C 0.71169 0.95555 0.43247 0.0
C289 C 0.66883 0.834 0.44781 0.0
C290 C 0.67035 0.88518 0.46599 0.0
C291 C 0.64249 0.85874 0.46279 0.0
C292 C 0.64179 0.83301 0.45362 0.0
N293 N 0.69678 0.88595 0.46027 0.0
C294 C 0.69628 0.86082 0.45129 0.0
Co295 Co 0.06189 0.81973 0.40915 0.0
Co296 Co 0.08081 0.80338 0.46348 0.0
O297 O 0.09062 0.82796 0.4348 0.0
C298 C 0.11477 0.82289 0.38472 0.0
O299 O 0.11472 0.80472 0.40119 0.0
C300 C 0.10516 0.86611 0.48064 0.0
O301 O 0.08777 0.86867 0.46482 0.0
O302 O 0.04389 0.80642 0.4689 0.0
O303 O 0.02761 0.80739 0.43214 0.0
H304 H 0.01267 0.71996 0.51916 0.0
H305 H 0.11866 0.87914 0.41074 0.0
O306 O 0.09532 0.83159 0.38539 0.0
H307 H 0.03616 0.90274 0.4158 0.0
H308 H 0.02931 0.84105 0.33089 0.0
H309 H 0.99943 0.77064 0.39846 0.0
H310 H 0.02468 0.84984 0.41212 0.0
H311 H 0.06457 0.85129 0.36406 0.0
O312 O 0.10511 0.84121 0.48278 0.0
H313 H 0.02535 0.75064 0.48275 0.0
H314 H 0.11617 0.80527 0.50605 0.0
H315 H 0.96337 0.75964 0.36577 0.0
H316 H 0.13117 0.93239 0.4142 0.0
H317 H 0.97825 0.795 0.33168 0.0
H318 H 0.08974 0.94445 0.41685 0.0
O319 O 0.05246 0.77704 0.40722 0.0
H320 H 0.19084 0.84435 0.44454 0.0
H321 H 0.09373 0.75243 0.46302 0.0
H322 H 0.13901 0.74813 0.4552 0.0
H323 H 0.18802 0.79432 0.4459 0.0
H324 H 0.14493 0.84758 0.45228 0.0
H325 H 0.10442 0.77537 0.54282 0.0
H326 H 0.05237 0.7323 0.54951 0.0
O327 O 0.05629 0.76497 0.44482 0.0
C328 C 0.02395 0.80499 0.45457 0.0
C329 C 0.03546 0.73861 0.51641 0.0
C330 C 0.08694 0.76974 0.52971 0.0
N331 N 0.07152 0.77952 0.49219 0.0
C332 C 0.04279 0.756 0.4958 0.0
C333 C 0.09345 0.78661 0.50888 0.0
C334 C 0.05773 0.74556 0.53345 0.0
C335 C 0.10052 0.88425 0.4116 0.0
N336 N 0.07099 0.86143 0.41113 0.0
C337 C 0.10773 0.91443 0.41367 0.0
C338 C 0.08448 0.92117 0.41521 0.0
C339 C 0.05441 0.89777 0.41465 0.0
C340 C 0.04805 0.86786 0.41262 0.0
C341 C 0.02253 0.82552 0.34569 0.0
C342 C 0.00596 0.78626 0.38378 0.0
C343 C 0.0424 0.83119 0.3645 0.0
N344 N 0.03391 0.81176 0.3833 0.0
C345 C 0.9855 0.77985 0.36528 0.0
C346 C 0.99388 0.79968 0.34614 0.0
C347 C 0.04873 0.7578 0.42318 0.0
C348 C 0.16964 0.82407 0.44864 0.0
C349 C 0.11496 0.77263 0.45894 0.0
C350 C 0.14054 0.77006 0.45457 0.0
C351 C 0.16803 0.79599 0.44937 0.0
N352 N 0.11673 0.80026 0.45821 0.0
C353 C 0.14361 0.82578 0.45314 0.0
Co354 Co 0.75165 0.81501 0.91309 0.0
Co355 Co 0.7303 0.81387 0.97126 0.0
O356 O 0.73919 0.83114 0.9394 0.0
C357 C 0.69821 0.81623 0.89445 0.0
O358 O 0.68447 0.8032 0.91432 0.0
C359 C 0.77633 0.87835 0.97769 0.0
O360 O 0.79107 0.87474 0.9601 0.0
O361 O 0.76899 0.81334 0.97227 0.0
O362 O 0.77765 0.80614 0.93444 0.0
H363 H 0.7219 0.74183 0.03534 0.0
H364 H 0.7579 0.87575 0.90843 0.0
O365 O 0.72565 0.82309 0.89108 0.0
H366 H 0.86143 0.89253 0.89981 0.0
H367 H 0.78388 0.8137 0.82903 0.0
H368 H 0.75888 0.76134 0.90611 0.0
H369 H 0.81812 0.84103 0.90598 0.0
H370 H 0.76926 0.8341 0.86299 0.0
O371 O 0.75146 0.85601 0.98496 0.0
H372 H 0.73251 0.7632 0.99499 0.0
H373 H 0.71011 0.8296 0.01592 0.0
H374 H 0.77362 0.74028 0.87268 0.0
H375 H 0.80052 0.92759 0.90204 0.0
H376 H 0.78626 0.76653 0.83379 0.0
H377 H 0.85275 0.93624 0.89777 0.0
O378 O 0.71717 0.7737 0.91889 0.0
H379 H 0.66543 0.86042 0.95574 0.0
H380 H 0.66589 0.76853 0.98213 0.0
H381 H 0.61746 0.76825 0.97993 0.0
H382 H 0.61704 0.81445 0.96669 0.0
H383 H 0.71332 0.85964 0.958 0.0
H384 H 0.69948 0.80909 0.05655 0.0
H385 H 0.70523 0.76481 0.06644 0.0
O386 O 0.70898 0.77141 0.95816 0.0
C387 C 0.78341 0.80763 0.95655 0.0
C388 C 0.71919 0.76105 0.03123 0.0
C389 C 0.70665 0.79884 0.04314 0.0
N390 N 0.72165 0.79742 0.00307 0.0
C391 C 0.72508 0.77319 0.0084 0.0
C392 C 0.71275 0.81038 0.02012 0.0
C393 C 0.70988 0.77398 0.04867 0.0
C394 C 0.78052 0.8793 0.90632 0.0
N395 N 0.7855 0.8554 0.90747 0.0
C396 C 0.80458 0.90872 0.90281 0.0
C397 C 0.83388 0.91356 0.90047 0.0
C398 C 0.83877 0.88905 0.90163 0.0
C399 C 0.81417 0.85995 0.90519 0.0
C400 C 0.77854 0.80212 0.8459 0.0
C401 C 0.7646 0.77303 0.8893 0.0
C402 C 0.77022 0.81354 0.86519 0.0
N403 N 0.7636 0.79912 0.88658 0.0
C404 C 0.77282 0.76093 0.87041 0.0
C405 C 0.77987 0.77565 0.84859 0.0
C406 C 0.70425 0.75909 0.9377 0.0
C407 C 0.66533 0.84018 0.96161 0.0
C408 C 0.66589 0.78871 0.9763 0.0
C409 C 0.6384 0.78843 0.97514 0.0
C410 C 0.63818 0.81436 0.96772 0.0
N411 N 0.69242 0.81414 0.97031 0.0
C412 C 0.69239 0.83965 0.96302 0.0
Co413 Co 0.1919 0.9535 0.91258 0.0
Co414 Co 0.20522 0.9296 0.96582 0.0
O415 O 0.18149 0.9227 0.93699 0.0
C416 C 0.1857 0.90098 0.88566 0.0
O417 O 0.20337 0.89902 0.90158 0.0
C418 C 0.14247 0.9061 0.98295 0.0
O419 O 0.14103 0.92545 0.96848 0.0
O420 O 0.20344 0.96687 0.97297 0.0
O421 O 0.20579 0.9865 0.9369 0.0
H422 H 0.2881 0.99171 0.0238 0.0
H423 H 0.13066 0.89901 0.91271 0.0
O424 O 0.17842 0.92141 0.88754 0.0
H425 H 0.11377 0.98559 0.92178 0.0
H426 H 0.17512 0.9938 0.83628 0.0
H427 H 0.24371 0.01527 0.90409 0.0
H428 H 0.16554 0.99391 0.91765 0.0
H429 H 0.16216 0.95594 0.86792 0.0
O430 O 0.16674 0.90481 0.98432 0.0
H431 H 0.25841 0.98264 0.98722 0.0
H432 H 0.20103 0.89058 0.00657 0.0
H433 H 0.25745 0.05387 0.87294 0.0
H434 H 0.07849 0.88967 0.91659 0.0
H435 H 0.22302 0.04323 0.83873 0.0
H436 H 0.0698 0.93316 0.92125 0.0
O437 O 0.23372 0.96031 0.91044 0.0
H438 H 0.16144 0.82065 0.94197 0.0
H439 H 0.2547 0.91456 0.96422 0.0
H440 H 0.25741 0.8689 0.9542 0.0
H441 H 0.21054 0.8215 0.943 0.0
H442 H 0.1598 0.86691 0.95193 0.0
H443 H 0.22991 0.89871 0.04348 0.0
H444 H 0.27387 0.94955 0.05224 0.0
O445 O 0.2443 0.95443 0.948 0.0
C446 C 0.20698 0.98841 0.95945 0.0
C447 C 0.26905 0.96943 0.02015 0.0
C448 C 0.23637 0.91724 0.03121 0.0
N449 N 0.22821 0.93606 0.99467 0.0
C450 C 0.25222 0.96414 0.99943 0.0
C451 C 0.22007 0.91279 0.01031 0.0
C452 C 0.26104 0.94577 0.0361 0.0
C453 C 0.12703 0.91806 0.91446 0.0
N454 N 0.1511 0.94696 0.91485 0.0
C455 C 0.09745 0.91263 0.91676 0.0
C456 C 0.0926 0.93704 0.91942 0.0
C457 C 0.11726 0.96646 0.91974 0.0
C458 C 0.14653 0.97102 0.91745 0.0
C459 C 0.19027 0.99874 0.85113 0.0
C460 C 0.22851 0.01057 0.88935 0.0
C461 C 0.18307 0.97738 0.86908 0.0
N462 N 0.20202 0.98353 0.88795 0.0
C463 C 0.23645 0.03247 0.87173 0.0
C464 C 0.21714 0.02647 0.85252 0.0
C465 C 0.25223 0.96259 0.92654 0.0
C466 C 0.18201 0.84114 0.94689 0.0
C467 C 0.23421 0.89404 0.95931 0.0
C468 C 0.23588 0.86824 0.9537 0.0
C469 C 0.20957 0.84164 0.94744 0.0
N470 N 0.20708 0.89334 0.95877 0.0
C471 C 0.18119 0.86736 0.95265 0.0
Co472 Co 0.06113 0.25052 0.91369 0.0
Co473 Co 0.08962 0.28486 0.96746 0.0
O474 O 0.09372 0.2702 0.93666 0.0
C475 C 0.10991 0.30253 0.88806 0.0
O476 O 0.11055 0.31873 0.90635 0.0
C477 C 0.11247 0.24374 0.9803 0.0
O478 O 0.08854 0.22169 0.96995 0.0
O479 O 0.0531 0.24525 0.97474 0.0
O480 O 0.03095 0.22691 0.93941 0.0
H481 H 0.03378 0.30025 0.03448 0.0
H482 H 0.11816 0.24922 0.90711 0.0
O483 O 0.09093 0.27412 0.88767 0.0
H484 H 0.03745 0.14214 0.91206 0.0
H485 H 0.01695 0.20084 0.83545 0.0
H486 H 0.99697 0.23539 0.91141 0.0
H487 H 0.0251 0.18304 0.91458 0.0
H488 H 0.05716 0.2249 0.86556 0.0
O489 O 0.11646 0.27047 0.98104 0.0
H490 H 0.03894 0.2826 0.99499 0.0
H491 H 0.13283 0.31716 0.00679 0.0
H492 H 0.95603 0.21122 0.88191 0.0
H493 H 0.1315 0.20903 0.90436 0.0
H494 H 0.96592 0.19376 0.84361 0.0
H495 H 0.09098 0.15504 0.90688 0.0
O496 O 0.05081 0.28306 0.91679 0.0
H497 H 0.19563 0.35297 0.93781 0.0
H498 H 0.10415 0.34913 0.97074 0.0
H499 H 0.14842 0.39855 0.96044 0.0
H500 H 0.19458 0.40067 0.94386 0.0
H501 H 0.15078 0.30402 0.94816 0.0
H502 H 0.12865 0.33498 0.04649 0.0
H503 H 0.07886 0.32665 0.06052 0.0
O504 O 0.06287 0.29954 0.95429 0.0
C505 C 0.03112 0.22608 0.96206 0.0
C506 C 0.05562 0.30412 0.02852 0.0
C507 C 0.10886 0.32358 0.03528 0.0
N508 N 0.08622 0.29915 0.9985 0.0
C509 C 0.0587 0.29428 0.00615 0.0
C510 C 0.11108 0.3134 0.0128 0.0
C511 C 0.08092 0.3189 0.04314 0.0
C512 C 0.10038 0.22577 0.90802 0.0
N513 N 0.07088 0.21847 0.91084 0.0
C514 C 0.10808 0.20312 0.90654 0.0
C515 C 0.08534 0.17283 0.90799 0.0
C516 C 0.0553 0.16557 0.9109 0.0
C517 C 0.04845 0.18883 0.91235 0.0
C518 C 0.01234 0.20827 0.8521 0.0
C519 C 0.00136 0.22762 0.89486 0.0
C520 C 0.03502 0.22195 0.86919 0.0
N521 N 0.02929 0.23124 0.89029 0.0
C522 C 0.97813 0.21406 0.87819 0.0
C523 C 0.98371 0.2043 0.85669 0.0
C524 C 0.0507 0.2987 0.93438 0.0
C525 C 0.17569 0.35235 0.9451 0.0
C526 C 0.12415 0.34987 0.96351 0.0
C527 C 0.14916 0.37792 0.95775 0.0
C528 C 0.17506 0.3791 0.94846 0.0
N529 N 0.12495 0.32373 0.96019 0.0
C530 C 0.15027 0.32471 0.95111 0.0
Co531 Co 0.81322 0.75892 0.59061 0.0
Co532 Co 0.81206 0.72986 0.53531 0.0
O533 O 0.82964 0.74329 0.56678 0.0
C534 C 0.81738 0.71049 0.61566 0.0
O535 O 0.8037 0.69294 0.59742 0.0
C536 C 0.87652 0.77435 0.52682 0.0
O537 O 0.87351 0.79164 0.54253 0.0
O538 O 0.81206 0.76835 0.52987 0.0
O539 O 0.803 0.78048 0.56602 0.0
H540 H 0.73966 0.71273 0.46902 0.0
H541 H 0.87501 0.76832 0.5972 0.0
O542 O 0.82302 0.73778 0.61582 0.0
H543 H 0.88813 0.87084 0.59414 0.0
H544 H 0.81205 0.8035 0.6699 0.0
H545 H 0.75836 0.76475 0.59416 0.0
H546 H 0.83726 0.82567 0.59089 0.0
H547 H 0.83285 0.7848 0.639 0.0
O548 O 0.85393 0.74865 0.52143 0.0
H549 H 0.76145 0.729 0.50893 0.0
H550 H 0.82702 0.70313 0.49411 0.0
H551 H 0.73686 0.78343 0.62449 0.0
H552 H 0.92624 0.81287 0.60079 0.0
H553 H 0.76378 0.803 0.66269 0.0
H554 H 0.93305 0.86458 0.59917 0.0
O555 O 0.77231 0.72274 0.5871 0.0
H556 H 0.85786 0.66717 0.56063 0.0
H557 H 0.76621 0.66437 0.52955 0.0
H558 H 0.76548 0.61643 0.5373 0.0
H559 H 0.81156 0.61765 0.55293 0.0
H560 H 0.85753 0.71457 0.5528 0.0
H561 H 0.8061 0.68681 0.45398 0.0
H562 H 0.76202 0.69145 0.44125 0.0
O563 O 0.76975 0.71076 0.54854 0.0
C564 C 0.80546 0.78403 0.54362 0.0
C565 C 0.75879 0.71049 0.47439 0.0
C566 C 0.79611 0.69598 0.46594 0.0
N567 N 0.79527 0.71674 0.5039 0.0
C568 C 0.77117 0.71957 0.49699 0.0
C569 C 0.80789 0.7053 0.48867 0.0
C570 C 0.77137 0.69858 0.45881 0.0
C571 C 0.87775 0.79074 0.59677 0.0
N572 N 0.85316 0.79438 0.59393 0.0
C573 C 0.90683 0.81589 0.59869 0.0
C574 C 0.91064 0.8449 0.59773 0.0
C575 C 0.88545 0.84842 0.59488 0.0
C576 C 0.85671 0.82276 0.59298 0.0
C577 C 0.80016 0.79513 0.6533 0.0
C578 C 0.77032 0.77345 0.61066 0.0
C579 C 0.81181 0.78448 0.63575 0.0
N580 N 0.797 0.77403 0.61469 0.0
C581 C 0.75798 0.7839 0.6278 0.0
C582 C 0.77308 0.79484 0.64924 0.0
C583 C 0.75758 0.70791 0.5689 0.0
C584 C 0.83767 0.66635 0.55375 0.0
C585 C 0.78634 0.66509 0.53639 0.0
C586 C 0.7858 0.63787 0.5407 0.0
C587 C 0.81167 0.63857 0.54946 0.0
N588 N 0.81195 0.69224 0.54061 0.0
C589 C 0.8374 0.69311 0.54919 0.0
Co590 Co 0.24069 0.05591 0.58847 0.0
Co591 Co 0.28329 0.0816 0.53729 0.0
O592 O 0.26458 0.08754 0.56542 0.0
C593 C 0.28884 0.1053 0.61675 0.0
O594 O 0.30788 0.10621 0.60066 0.0
C595 C 0.24531 0.10578 0.51946 0.0
O596 O 0.22403 0.08616 0.53353 0.0
O597 O 0.24468 0.04495 0.52833 0.0
O598 O 0.22041 0.02488 0.56266 0.0
H599 H 0.30772 0.02153 0.4799 0.0
H600 H 0.24026 0.11379 0.58995 0.0
O601 O 0.26059 0.08627 0.61473 0.0
H602 H 0.13396 0.03469 0.57674 0.0
H603 H 0.17857 0.0153 0.66275 0.0
H604 H 0.22359 0.99155 0.59456 0.0
H605 H 0.17374 0.02106 0.58125 0.0
H606 H 0.20804 0.05427 0.63274 0.0
O607 O 0.27094 0.10713 0.51846 0.0
H608 H 0.28471 0.02931 0.51574 0.0
H609 H 0.32102 0.12208 0.4981 0.0
H610 H 0.19408 0.95182 0.62404 0.0
H611 H 0.20115 0.12841 0.58571 0.0
H612 H 0.17134 0.96361 0.65844 0.0
H613 H 0.14759 0.08871 0.57896 0.0
O614 O 0.27275 0.04492 0.59107 0.0
H615 H 0.34727 0.18938 0.5644 0.0
H616 H 0.34751 0.09616 0.54155 0.0
H617 H 0.39526 0.14113 0.5539 0.0
H618 H 0.39533 0.18817 0.56544 0.0
H619 H 0.29999 0.14382 0.55209 0.0
H620 H 0.34417 0.11525 0.46194 0.0
H621 H 0.33768 0.06471 0.45271 0.0
O622 O 0.29595 0.05591 0.55559 0.0
C623 C 0.22307 0.02402 0.54021 0.0
C624 C 0.3108 0.04369 0.48378 0.0
C625 C 0.33123 0.09628 0.47368 0.0
N626 N 0.30178 0.07617 0.5091 0.0
C627 C 0.29792 0.04825 0.50408 0.0
C628 C 0.31803 0.1 0.49415 0.0
C629 C 0.32758 0.06792 0.46851 0.0
C630 C 0.21694 0.09636 0.58729 0.0
N631 N 0.20928 0.06661 0.58595 0.0
C632 C 0.19492 0.10479 0.58479 0.0
C633 C 0.16488 0.08251 0.58096 0.0
C634 C 0.15722 0.05219 0.57969 0.0
C635 C 0.17986 0.04462 0.58221 0.0
C636 C 0.1883 0.00986 0.64781 0.0
C637 C 0.21356 0.99677 0.60939 0.0
C638 C 0.20504 0.03185 0.63079 0.0
N639 N 0.21725 0.02508 0.61181 0.0
C640 C 0.19697 0.97422 0.62607 0.0
C641 C 0.18425 0.98086 0.64537 0.0
C642 C 0.29166 0.04466 0.57641 0.0
C643 C 0.34755 0.16905 0.55934 0.0
C644 C 0.34735 0.11654 0.54656 0.0
C645 C 0.37447 0.14194 0.5535 0.0
C646 C 0.3745 0.16834 0.55996 0.0
N647 N 0.32102 0.11742 0.546 0.0
C648 C 0.32088 0.14323 0.55226 0.0
Co649 Co 0.94649 0.19416 0.59215 0.0
Co650 Co 0.92333 0.1943 0.53492 0.0
O651 O 0.91652 0.17742 0.56682 0.0
C652 C 0.89222 0.19192 0.6129 0.0
O653 O 0.89094 0.20539 0.59351 0.0
C654 C 0.90374 0.12971 0.52784 0.0
O655 O 0.92267 0.13273 0.54474 0.0
O656 O 0.96209 0.19414 0.5323 0.0
O657 O 0.98044 0.20337 0.56942 0.0
H658 H 0.98434 0.26503 0.46912 0.0
H659 H 0.89272 0.13298 0.59798 0.0
O660 O 0.91323 0.18554 0.61543 0.0
H661 H 0.98087 0.11803 0.60271 0.0
H662 H 0.98451 0.19674 0.67476 0.0
H663 H 0.00752 0.24834 0.5974 0.0
H664 H 0.988 0.16916 0.59716 0.0
H665 H 0.94777 0.17568 0.64197 0.0
O666 O 0.90116 0.15227 0.52149 0.0
H667 H 0.97548 0.24406 0.50957 0.0
H668 H 0.88495 0.17873 0.49167 0.0
H669 H 0.04501 0.27007 0.62963 0.0
H670 H 0.88456 0.08149 0.60376 0.0
H671 H 0.03359 0.24421 0.66865 0.0
H672 H 0.92885 0.07376 0.60608 0.0
O673 O 0.95258 0.2353 0.58675 0.0
H674 H 0.81291 0.14932 0.55454 0.0
H675 H 0.90468 0.2402 0.52557 0.0
H676 H 0.8571 0.24127 0.52985 0.0
H677 H 0.81077 0.19557 0.54441 0.0
H678 H 0.86104 0.14932 0.55018 0.0
H679 H 0.89289 0.19882 0.45098 0.0
H680 H 0.94284 0.24238 0.43951 0.0
O681 O 0.94574 0.23673 0.54759 0.0
C682 C 0.9833 0.20083 0.54717 0.0
C683 C 0.96244 0.24612 0.47393 0.0
C684 C 0.91112 0.20894 0.46374 0.0
N685 N 0.92965 0.21042 0.50303 0.0
C686 C 0.95726 0.23422 0.49682 0.0
C687 C 0.90678 0.19763 0.48679 0.0
C688 C 0.93915 0.23338 0.45732 0.0
C689 C 0.91211 0.12983 0.59924 0.0
N690 N 0.9408 0.15405 0.59734 0.0
C691 C 0.90735 0.10061 0.6024 0.0
C692 C 0.9322 0.09628 0.60365 0.0
C693 C 0.9614 0.12111 0.60174 0.0
C694 C 0.96529 0.15 0.59854 0.0
C695 C 0.98979 0.20816 0.65782 0.0
C696 C 0.0025 0.23683 0.61427 0.0
C697 C 0.96907 0.19637 0.6392 0.0
N698 N 0.97567 0.21059 0.61772 0.0
C699 C 0.02377 0.2493 0.63248 0.0
C700 C 0.01733 0.2348 0.65438 0.0
C701 C 0.95401 0.24951 0.5678 0.0
C702 C 0.83292 0.16933 0.54811 0.0
C703 C 0.88463 0.22025 0.53196 0.0
C704 C 0.85774 0.22097 0.5343 0.0
C705 C 0.83175 0.19531 0.54246 0.0
N706 N 0.88559 0.19466 0.53751 0.0
C707 C 0.8602 0.16942 0.54551 0.0
Co708 Co 0.90314 0.5166 0.42066 0.0
Co709 Co 0.93951 0.53145 0.36665 0.0
O710 O 0.92344 0.50732 0.39542 0.0
C711 C 0.95201 0.51283 0.44544 0.0
O712 O 0.97029 0.53036 0.42872 0.0
C713 C 0.89881 0.46902 0.3498 0.0
O714 O 0.879 0.46782 0.36526 0.0
O715 O 0.90057 0.53041 0.36082 0.0
O716 O 0.88203 0.5291 0.39722 0.0
H717 H 0.95983 0.6157 0.31028 0.0
H718 H 0.89911 0.45659 0.41991 0.0
O719 O 0.92395 0.50461 0.4448 0.0
H720 H 0.79367 0.43496 0.41401 0.0
H721 H 0.84856 0.49762 0.4986 0.0
H722 H 0.89098 0.56667 0.43036 0.0
H723 H 0.83587 0.48758 0.41743 0.0
H724 H 0.87339 0.48615 0.46592 0.0
O725 O 0.92447 0.49314 0.34768 0.0
H726 H 0.94009 0.58551 0.3468 0.0
H727 H 0.97243 0.52727 0.32447 0.0
H728 H 0.86612 0.57891 0.46255 0.0
H729 H 0.85757 0.40361 0.4167 0.0
H730 H 0.8447 0.54423 0.49699 0.0
H731 H 0.80441 0.39254 0.41363 0.0
O732 O 0.93706 0.55906 0.4223 0.0
H733 H 0.00414 0.48597 0.38682 0.0
H734 H 0.00441 0.5803 0.36726 0.0
H735 H 0.05276 0.58216 0.37559 0.0
H736 H 0.05282 0.53474 0.38544 0.0
H737 H 0.95628 0.48517 0.37856 0.0
H738 H 0.99228 0.55665 0.2876 0.0
H739 H 0.98614 0.6013 0.28038 0.0
O740 O 0.95491 0.57025 0.38505 0.0
C741 C 0.88173 0.53194 0.37479 0.0
C742 C 0.96274 0.59636 0.31327 0.0
C743 C 0.98092 0.56319 0.30052 0.0
N744 N 0.95536 0.55484 0.33784 0.0
C745 C 0.9517 0.57924 0.33394 0.0
C746 C 0.96958 0.54661 0.3214 0.0
C747 C 0.97747 0.58824 0.29648 0.0
C748 C 0.87601 0.45192 0.41886 0.0
N749 N 0.86991 0.47513 0.41897 0.0
C750 C 0.85259 0.42189 0.41694 0.0
C751 C 0.82278 0.4157 0.41517 0.0
C752 C 0.81674 0.4395 0.41535 0.0
C753 C 0.84073 0.46925 0.41724 0.0
C754 C 0.85772 0.51285 0.48366 0.0
C755 C 0.88148 0.55135 0.44519 0.0
C756 C 0.87183 0.50649 0.46511 0.0
N757 N 0.88329 0.52555 0.44612 0.0
C758 C 0.86754 0.55845 0.46341 0.0
C759 C 0.85555 0.53901 0.48274 0.0
C760 C 0.95392 0.57781 0.40649 0.0
C761 C 0.00442 0.50676 0.38248 0.0
C762 C 0.00425 0.55958 0.37157 0.0
C763 C 0.0317 0.56076 0.37623 0.0
C764 C 0.03172 0.53415 0.38174 0.0
N765 N 0.97757 0.53262 0.37231 0.0
C766 C 0.9774 0.50643 0.37769 0.0
Co767 Co 0.48366 0.39436 0.42003 0.0
Co768 Co 0.47951 0.41628 0.36303 0.0
O769 O 0.4982 0.42405 0.39437 0.0
C770 C 0.48471 0.4475 0.44184 0.0
O771 O 0.47057 0.44879 0.42287 0.0
C772 C 0.54391 0.43682 0.35349 0.0
O773 O 0.54181 0.41811 0.3703 0.0
O774 O 0.48043 0.37789 0.36003 0.0
O775 O 0.47428 0.36054 0.39736 0.0
H776 H 0.40558 0.35305 0.29972 0.0
H777 H 0.54417 0.44942 0.42404 0.0
O778 O 0.49233 0.4273 0.44347 0.0
H779 H 0.56298 0.36361 0.4269 0.0
H780 H 0.48711 0.35776 0.50205 0.0
H781 H 0.43083 0.33274 0.42678 0.0
H782 H 0.51091 0.35462 0.42343 0.0
H783 H 0.50543 0.39417 0.46893 0.0
O784 O 0.52087 0.43904 0.348 0.0
H785 H 0.4289 0.36312 0.33935 0.0
H786 H 0.49186 0.45367 0.31949 0.0
H787 H 0.41182 0.29556 0.45936 0.0
H788 H 0.59659 0.45944 0.42773 0.0
H789 H 0.44004 0.30799 0.49733 0.0
H790 H 0.60625 0.41634 0.4291 0.0
O791 O 0.44176 0.38685 0.41624 0.0
H792 H 0.5234 0.52678 0.38169 0.0
H793 H 0.43208 0.43335 0.35571 0.0
H794 H 0.43008 0.48041 0.36038 0.0
H795 H 0.476 0.52757 0.37343 0.0
H796 H 0.52433 0.47916 0.37697 0.0
H797 H 0.46939 0.44452 0.27957 0.0
H798 H 0.42584 0.39394 0.26951 0.0
O799 O 0.43777 0.39328 0.37731 0.0
C800 C 0.47539 0.35723 0.37504 0.0
C801 C 0.42447 0.37522 0.30391 0.0
C802 C 0.46031 0.42654 0.2926 0.0
N803 N 0.46151 0.40902 0.33178 0.0
C804 C 0.4377 0.38107 0.32634 0.0
C805 C 0.47297 0.43157 0.31521 0.0
C806 C 0.43587 0.39816 0.28697 0.0
C807 C 0.54818 0.43055 0.42489 0.0
N808 N 0.52452 0.40148 0.42363 0.0
C809 C 0.57792 0.43636 0.42687 0.0
C810 C 0.58333 0.41217 0.42759 0.0
C811 C 0.55906 0.38258 0.42634 0.0
C812 C 0.52963 0.37763 0.42431 0.0
C813 C 0.47467 0.35203 0.48556 0.0
C814 C 0.44337 0.33819 0.44317 0.0
C815 C 0.48492 0.37257 0.46676 0.0
N816 N 0.46941 0.36541 0.44584 0.0
C817 C 0.43244 0.3171 0.46159 0.0
C818 C 0.44826 0.32411 0.4829 0.0
C819 C 0.42624 0.38489 0.39796 0.0
C820 C 0.50328 0.5064 0.37592 0.0
C821 C 0.45213 0.45377 0.36144 0.0
C822 C 0.45088 0.48036 0.36401 0.0
C823 C 0.47666 0.50682 0.37132 0.0
N824 N 0.47835 0.45357 0.36594 0.0
C825 C 0.50371 0.47941 0.37312 0.0
Co826 Co 0.61514 0.09139 0.42987 0.0
Co827 Co 0.58117 0.05837 0.37681 0.0
O828 O 0.58055 0.07357 0.4084 0.0
C829 C 0.56628 0.04172 0.4573 0.0
O830 O 0.56225 0.02433 0.43891 0.0
C831 C 0.56126 0.10276 0.36938 0.0
O832 O 0.58244 0.12049 0.38434 0.0
O833 O 0.61885 0.09638 0.36872 0.0
O834 O 0.64383 0.11354 0.40317 0.0
H835 H 0.62901 0.03786 0.3067 0.0
H836 H 0.56146 0.09738 0.44078 0.0
O837 O 0.58703 0.0695 0.45691 0.0
H838 H 0.64674 0.202 0.43321 0.0
H839 H 0.66774 0.13946 0.50642 0.0
H840 H 0.6777 0.10161 0.4285 0.0
H841 H 0.65495 0.15857 0.42845 0.0
H842 H 0.62496 0.11777 0.47835 0.0
O843 O 0.55712 0.07656 0.36451 0.0
H844 H 0.62792 0.05627 0.3469 0.0
H845 H 0.53498 0.02918 0.33877 0.0
H846 H 0.72112 0.12334 0.45593 0.0
H847 H 0.5523 0.14015 0.4459 0.0
H848 H 0.71629 0.14246 0.49521 0.0
H849 H 0.59512 0.19292 0.44202 0.0
O850 O 0.622 0.05671 0.42516 0.0
H851 H 0.47584 0.99753 0.40978 0.0
H852 H 0.56078 0.99258 0.37255 0.0
H853 H 0.51456 0.94523 0.3838 0.0
H854 H 0.47168 0.94754 0.40256 0.0
H855 H 0.52257 0.04433 0.39839 0.0
H856 H 0.53512 0.01073 0.2984 0.0
H857 H 0.58236 0.0149 0.28217 0.0
O858 O 0.60565 0.04021 0.38824 0.0
C859 C 0.64213 0.11456 0.38066 0.0
C860 C 0.60825 0.03579 0.31362 0.0
C861 C 0.55557 0.02059 0.30895 0.0
N862 N 0.58133 0.04346 0.34526 0.0
C863 C 0.60747 0.04607 0.33639 0.0
C864 C 0.55563 0.03111 0.3318 0.0
C865 C 0.58208 0.02294 0.29985 0.0
C866 C 0.58027 0.12027 0.43934 0.0
N867 N 0.60872 0.12546 0.43443 0.0
C868 C 0.57492 0.1444 0.44214 0.0
C869 C 0.59894 0.174 0.43992 0.0
C870 C 0.62791 0.17912 0.43495 0.0
C871 C 0.6324 0.15443 0.43222 0.0
C872 C 0.67015 0.13129 0.48933 0.0
C873 C 0.67551 0.1101 0.44549 0.0
C874 C 0.64601 0.11895 0.47338 0.0
N875 N 0.64897 0.10875 0.45172 0.0
C876 C 0.70013 0.12228 0.46098 0.0
C877 C 0.69739 0.13297 0.48303 0.0
C878 C 0.61899 0.04013 0.40729 0.0
C879 C 0.49433 0.99623 0.40156 0.0
C880 C 0.54222 0.99376 0.38072 0.0
C881 C 0.51609 0.96688 0.38702 0.0
C882 C 0.49203 0.96819 0.39753 0.0
N883 N 0.54429 0.02117 0.38472 0.0
C884 C 0.52078 0.02264 0.39498 0.0
Co885 Co 0.85001 0.57521 0.74667 0.0
Co886 Co 0.84923 0.60954 0.79909 0.0
O887 O 0.83341 0.59369 0.76763 0.0
C888 C 0.85081 0.62373 0.71822 0.0
O889 O 0.864 0.64154 0.73642 0.0
C890 C 0.7844 0.56607 0.80612 0.0
O891 O 0.78814 0.54764 0.79214 0.0
O892 O 0.84827 0.57145 0.80802 0.0
O893 O 0.85673 0.5542 0.77385 0.0
H894 H 0.91731 0.63162 0.86946 0.0
H895 H 0.79022 0.56865 0.73548 0.0
O896 O 0.84368 0.59599 0.71909 0.0
H897 H 0.77094 0.46443 0.74561 0.0
H898 H 0.85405 0.5243 0.67147 0.0
H899 H 0.90269 0.56563 0.7485 0.0
H900 H 0.82265 0.50811 0.74963 0.0
H901 H 0.83305 0.54687 0.69883 0.0
O902 O 0.80671 0.59214 0.81108 0.0
H903 H 0.89775 0.61204 0.82952 0.0
H904 H 0.83239 0.63992 0.83632 0.0
H905 H 0.9243 0.54302 0.72178 0.0
H906 H 0.73821 0.52561 0.73108 0.0
H907 H 0.89992 0.52215 0.68295 0.0
H908 H 0.72829 0.47306 0.73625 0.0
O909 O 0.89152 0.61018 0.75084 0.0
H910 H 0.80646 0.67072 0.76419 0.0
H911 H 0.89539 0.67524 0.80256 0.0
H912 H 0.89748 0.72263 0.79028 0.0
H913 H 0.85278 0.72055 0.77094 0.0
H914 H 0.80543 0.62387 0.77661 0.0
H915 H 0.85104 0.65956 0.87643 0.0
H916 H 0.89391 0.65561 0.8932 0.0
O917 O 0.89214 0.62707 0.78776 0.0
C918 C 0.85377 0.55337 0.79632 0.0
C919 C 0.8987 0.63359 0.86232 0.0
C920 C 0.86148 0.64924 0.86623 0.0
N921 N 0.86419 0.62514 0.83052 0.0
C922 C 0.88761 0.62264 0.83968 0.0
C923 C 0.85099 0.63804 0.84354 0.0
C924 C 0.88554 0.64702 0.87563 0.0
C925 C 0.78614 0.54583 0.73748 0.0
N926 N 0.80947 0.5409 0.74269 0.0
C927 C 0.75662 0.52156 0.73508 0.0
C928 C 0.75107 0.49208 0.73803 0.0
C929 C 0.77498 0.48723 0.74331 0.0
C930 C 0.8042 0.51205 0.74562 0.0
C931 C 0.86482 0.53322 0.68837 0.0
C932 C 0.89181 0.55635 0.73172 0.0
C933 C 0.85305 0.54606 0.70392 0.0
N934 N 0.86643 0.5572 0.72536 0.0
C935 C 0.90422 0.54369 0.71663 0.0
C936 C 0.89055 0.53202 0.69483 0.0
C937 C 0.90533 0.62699 0.76853 0.0
C938 C 0.82605 0.67193 0.77267 0.0
C939 C 0.87586 0.67414 0.79414 0.0
C940 C 0.87715 0.70106 0.78726 0.0
C941 C 0.85206 0.69988 0.77643 0.0
N942 N 0.85025 0.64682 0.7904 0.0
C943 C 0.82554 0.64548 0.77983 0.0
Co944 Co 0.42257 0.27775 0.74704 0.0
Co945 Co 0.38653 0.24518 0.7994 0.0
O946 O 0.40363 0.24383 0.76894 0.0
C947 C 0.37481 0.2282 0.71873 0.0
O948 O 0.35628 0.22494 0.7361 0.0
C949 C 0.42966 0.22495 0.81317 0.0
O950 O 0.45164 0.25028 0.80435 0.0
O951 O 0.42456 0.28268 0.80834 0.0
O952 O 0.4426 0.30723 0.77378 0.0
H953 H 0.36311 0.29443 0.86692 0.0
H954 H 0.42987 0.22416 0.73998 0.0
O955 O 0.40267 0.24872 0.71997 0.0
H956 H 0.5335 0.31065 0.74939 0.0
H957 H 0.47554 0.32857 0.67122 0.0
H958 H 0.43217 0.34009 0.74594 0.0
H959 H 0.48947 0.31833 0.75062 0.0
H960 H 0.45224 0.28654 0.69995 0.0
O961 O 0.40236 0.2194 0.81284 0.0
H962 H 0.38384 0.29272 0.82783 0.0
H963 H 0.35397 0.19928 0.83711 0.0
H964 H 0.45548 0.38279 0.71782 0.0
H965 H 0.47328 0.21548 0.73849 0.0
H966 H 0.47737 0.37716 0.68014 0.0
H967 H 0.52554 0.25893 0.74325 0.0
O968 O 0.38734 0.28418 0.74909 0.0
H969 H 0.3251 0.14017 0.76592 0.0
H970 H 0.32104 0.22671 0.80088 0.0
H971 H 0.27366 0.18137 0.78844 0.0
H972 H 0.27551 0.13769 0.77082 0.0
H973 H 0.37195 0.18603 0.77842 0.0
H974 H 0.33312 0.20002 0.87639 0.0
H975 H 0.33754 0.24783 0.89149 0.0
O976 O 0.37021 0.2707 0.78632 0.0
C977 C 0.44284 0.30601 0.79639 0.0
C978 C 0.36094 0.27343 0.8605 0.0
C979 C 0.34415 0.22045 0.86583 0.0
N980 N 0.36984 0.24586 0.83011 0.0
C981 C 0.37255 0.2723 0.83835 0.0
C982 C 0.35604 0.22018 0.84359 0.0
C983 C 0.34662 0.24728 0.87429 0.0
C984 C 0.45257 0.2432 0.74188 0.0
N985 N 0.45715 0.27173 0.74522 0.0
C986 C 0.47705 0.23814 0.7411 0.0
C987 C 0.50636 0.26252 0.7438 0.0
C988 C 0.51084 0.29155 0.74726 0.0
C989 C 0.48582 0.29575 0.74797 0.0
C990 C 0.46615 0.33132 0.6876 0.0
C991 C 0.44187 0.33756 0.72967 0.0
C992 C 0.45289 0.3076 0.70391 0.0
N993 N 0.44116 0.311 0.72469 0.0
C994 C 0.45493 0.36177 0.71378 0.0
C995 C 0.46718 0.35859 0.69263 0.0
C996 C 0.37053 0.28264 0.76638 0.0
C997 C 0.32399 0.15901 0.77365 0.0
C998 C 0.32204 0.2078 0.79322 0.0
C999 C 0.29512 0.18217 0.78624 0.0
C1000 C 0.29618 0.15766 0.77637 0.0
N1001 N 0.34923 0.20894 0.79052 0.0
C1002 C 0.35043 0.18498 0.78087 0.0
Co1003 Co 0.72829 0.13873 0.74684 0.0
Co1004 Co 0.74879 0.13199 0.80364 0.0
O1005 O 0.75739 0.1521 0.77289 0.0
C1006 C 0.78228 0.14073 0.72581 0.0
O1007 O 0.7824 0.12547 0.74447 0.0
C1008 C 0.7708 0.19623 0.81528 0.0
O1009 O 0.75348 0.19644 0.79822 0.0
O1010 O 0.71089 0.13375 0.8067 0.0
O1011 O 0.69385 0.12864 0.7693 0.0
H1012 H 0.68333 0.05575 0.86498 0.0
H1013 H 0.7837 0.19925 0.74444 0.0
O1014 O 0.76202 0.14825 0.7238 0.0
H1015 H 0.69839 0.21882 0.74183 0.0
H1016 H 0.69424 0.14579 0.66472 0.0
H1017 H 0.66648 0.08679 0.73881 0.0
H1018 H 0.689 0.16651 0.74395 0.0
H1019 H 0.72976 0.16245 0.69839 0.0
O1020 O 0.77172 0.17225 0.81978 0.0
H1021 H 0.69459 0.08103 0.82606 0.0
H1022 H 0.78518 0.14146 0.84736 0.0
H1023 H 0.63019 0.06941 0.70567 0.0
H1024 H 0.79412 0.25191 0.74212 0.0
H1025 H 0.644 0.09901 0.66829 0.0
H1026 H 0.75127 0.26196 0.74089 0.0
O1027 O 0.72032 0.09653 0.74956 0.0
H1028 H 0.85939 0.1749 0.78583 0.0
H1029 H 0.76462 0.08341 0.80956 0.0
H1030 H 0.81124 0.08066 0.80461 0.0
H1031 H 0.85907 0.12665 0.79268 0.0
H1032 H 0.81219 0.17657 0.7908 0.0
H1033 H 0.77484 0.11701 0.88658 0.0
H1034 H 0.72365 0.07374 0.89556 0.0
O1035 O 0.72563 0.0912 0.78841 0.0
C1036 C 0.69045 0.12937 0.79167 0.0
C1037 C 0.70576 0.07452 0.86126 0.0
C1038 C 0.75711 0.10892 0.87339 0.0
N1039 N 0.74058 0.1125 0.83437 0.0
C1040 C 0.71229 0.08886 0.83923 0.0
C1041 C 0.76282 0.12271 0.85117 0.0
C1042 C 0.72838 0.08464 0.87841 0.0
C1043 C 0.76495 0.20343 0.74363 0.0
N1044 N 0.73579 0.17984 0.74422 0.0
C1045 C 0.77098 0.2333 0.74243 0.0
C1046 C 0.74693 0.23892 0.74179 0.0
C1047 C 0.71725 0.21473 0.74234 0.0
C1048 C 0.71208 0.18516 0.7436 0.0
C1049 C 0.68792 0.13275 0.68094 0.0
C1050 C 0.67255 0.09992 0.72267 0.0
C1051 C 0.70795 0.14206 0.70005 0.0
N1052 N 0.70005 0.12578 0.72062 0.0
C1053 C 0.65195 0.08991 0.70393 0.0
C1054 C 0.65973 0.10651 0.68296 0.0
C1055 C 0.7177 0.08037 0.76758 0.0
C1056 C 0.83871 0.15473 0.7911 0.0
C1057 C 0.78533 0.1035 0.80432 0.0
C1058 C 0.81167 0.10182 0.80159 0.0
C1059 C 0.8385 0.12764 0.79491 0.0
N1060 N 0.78573 0.13017 0.80058 0.0
C1061 C 0.81195 0.15558 0.79405 0.0
Co1062 Co 0.42647 0.14317 0.24367 0.0
Co1063 Co 0.39781 0.14253 0.29907 0.0
O1064 O 0.41075 0.15946 0.26744 0.0
C1065 C 0.37633 0.14529 0.22005 0.0
O1066 O 0.35994 0.13128 0.23873 0.0
C1067 C 0.44266 0.20691 0.30648 0.0
O1068 O 0.45962 0.20311 0.29094 0.0
O1069 O 0.43628 0.14261 0.30432 0.0
O1070 O 0.44926 0.13432 0.26818 0.0
H1071 H 0.38207 0.0719 0.36647 0.0
H1072 H 0.43387 0.20413 0.23641 0.0
O1073 O 0.40381 0.15158 0.2188 0.0
H1074 H 0.5376 0.22029 0.23808 0.0
H1075 H 0.46938 0.14153 0.16373 0.0
H1076 H 0.43425 0.08943 0.24051 0.0
H1077 H 0.49342 0.16891 0.24233 0.0
H1078 H 0.45053 0.16206 0.19475 0.0
O1079 O 0.41685 0.18472 0.31226 0.0
H1080 H 0.3976 0.09268 0.32619 0.0
H1081 H 0.37161 0.15834 0.34012 0.0
H1082 H 0.45312 0.06822 0.21008 0.0
H1083 H 0.47739 0.25583 0.23184 0.0
H1084 H 0.47087 0.09434 0.17136 0.0
H1085 H 0.52971 0.26418 0.23276 0.0
O1086 O 0.39127 0.10182 0.24803 0.0
H1087 H 0.33458 0.18757 0.27336 0.0
H1088 H 0.33247 0.09669 0.30551 0.0
H1089 H 0.28435 0.09561 0.29781 0.0
H1090 H 0.28523 0.14129 0.28161 0.0
H1091 H 0.38215 0.1876 0.28118 0.0
H1092 H 0.35601 0.13844 0.38062 0.0
H1093 H 0.36109 0.09482 0.39399 0.0
O1094 O 0.37879 0.1 0.28645 0.0
C1095 C 0.45241 0.13653 0.29063 0.0
C1096 C 0.37962 0.09082 0.36082 0.0
C1097 C 0.36503 0.1282 0.36877 0.0
N1098 N 0.38519 0.12646 0.33074 0.0
C1099 C 0.38827 0.10262 0.33801 0.0
C1100 C 0.37393 0.13939 0.34583 0.0
C1101 C 0.36788 0.10372 0.37626 0.0
C1102 C 0.45655 0.20752 0.23654 0.0
N1103 N 0.46108 0.1835 0.23952 0.0
C1104 C 0.48111 0.23687 0.23406 0.0
C1105 C 0.51046 0.24155 0.23463 0.0
C1106 C 0.5149 0.21693 0.23764 0.0
C1107 C 0.4898 0.1879 0.2401 0.0
C1108 C 0.46182 0.13 0.18056 0.0
C1109 C 0.44218 0.10105 0.22379 0.0
C1110 C 0.4511 0.1415 0.19818 0.0
N1111 N 0.44167 0.12715 0.21952 0.0
C1112 C 0.45273 0.08888 0.20659 0.0
C1113 C 0.46265 0.10353 0.18486 0.0
C1114 C 0.37659 0.08738 0.2664 0.0
C1115 C 0.33391 0.16756 0.28049 0.0
C1116 C 0.33303 0.11665 0.29845 0.0
C1117 C 0.30571 0.11592 0.29416 0.0
C1118 C 0.30622 0.14157 0.28509 0.0
N1119 N 0.36008 0.14224 0.29391 0.0
C1120 C 0.36077 0.16749 0.28505 0.0
Co1121 Co 0.84729 0.27235 0.25038 0.0
Co1122 Co 0.864 0.25339 0.30484 0.0
O1123 O 0.84054 0.24346 0.27561 0.0
C1124 C 0.85408 0.22435 0.22701 0.0
O1125 O 0.87113 0.22662 0.24514 0.0
C1126 C 0.8008 0.2278 0.32039 0.0
O1127 O 0.79853 0.24504 0.30425 0.0
O1128 O 0.85939 0.28933 0.31014 0.0
O1129 O 0.85342 0.30449 0.27409 0.0
H1130 H 0.94436 0.32198 0.36235 0.0
H1131 H 0.79245 0.21138 0.24926 0.0
O1132 O 0.84187 0.24092 0.22612 0.0
H1133 H 0.75454 0.28324 0.25295 0.0
H1134 H 0.82651 0.30259 0.17094 0.0
H1135 H 0.89056 0.33761 0.24233 0.0
H1136 H 0.80945 0.30181 0.25164 0.0
H1137 H 0.81821 0.26718 0.20362 0.0
O1138 O 0.82572 0.22809 0.32318 0.0
H1139 H 0.9149 0.30929 0.32531 0.0
H1140 H 0.8616 0.21771 0.34735 0.0
H1141 H 0.89949 0.37386 0.21018 0.0
H1142 H 0.73735 0.19182 0.25039 0.0
H1143 H 0.86732 0.35639 0.17416 0.0
H1144 H 0.71809 0.22787 0.25234 0.0
O1145 O 0.89143 0.28748 0.25046 0.0
H1146 H 0.82683 0.14426 0.28509 0.0
H1147 H 0.91623 0.24244 0.30551 0.0
H1148 H 0.92245 0.19826 0.29776 0.0
H1149 H 0.87753 0.14873 0.28747 0.0
H1150 H 0.82167 0.18908 0.29279 0.0
H1151 H 0.89028 0.22945 0.38474 0.0
H1152 H 0.93208 0.28188 0.39236 0.0
O1153 O 0.90267 0.27903 0.28713 0.0
C1154 C 0.85683 0.30783 0.29652 0.0
C1155 C 0.92627 0.29902 0.35919 0.0
C1156 C 0.89589 0.2471 0.37177 0.0
N1157 N 0.88678 0.26274 0.33409 0.0
C1158 C 0.90958 0.29169 0.33823 0.0
C1159 C 0.8797 0.2406 0.3506 0.0
C1160 C 0.91935 0.27652 0.37604 0.0
C1161 C 0.78422 0.2272 0.24984 0.0
N1162 N 0.80411 0.25769 0.25026 0.0
C1163 C 0.75301 0.216 0.25058 0.0
C1164 C 0.74222 0.23624 0.25172 0.0
C1165 C 0.76266 0.2673 0.25208 0.0
C1166 C 0.79372 0.27769 0.25137 0.0
C1167 C 0.84061 0.3105 0.18657 0.0
C1168 C 0.87632 0.32992 0.22679 0.0
C1169 C 0.83605 0.29055 0.20511 0.0
N1170 N 0.85368 0.30043 0.22495 0.0
C1171 C 0.88155 0.35051 0.20861 0.0
C1172 C 0.86351 0.34068 0.18839 0.0
C1173 C 0.91028 0.28977 0.26624 0.0
C1174 C 0.84655 0.1657 0.28962 0.0
C1175 C 0.89658 0.22097 0.30102 0.0
C1176 C 0.90023 0.19602 0.29669 0.0
C1177 C 0.87502 0.16823 0.29093 0.0
N1178 N 0.86858 0.21829 0.29972 0.0
C1179 C 0.84375 0.19111 0.29411 0.0
Co1180 Co 0.72782 0.57959 0.23315 0.0
Co1181 Co 0.74823 0.60737 0.28996 0.0
O1182 O 0.75659 0.59568 0.25922 0.0
C1183 C 0.78146 0.6331 0.21331 0.0
O1184 O 0.78044 0.64741 0.23231 0.0
C1185 C 0.76769 0.56313 0.29995 0.0
O1186 O 0.74896 0.54655 0.28315 0.0
O1187 O 0.7096 0.5684 0.29283 0.0
O1188 O 0.69335 0.55408 0.25549 0.0
H1189 H 0.68421 0.62011 0.35148 0.0
H1190 H 0.78423 0.57643 0.23049 0.0
O1191 O 0.76174 0.60517 0.21045 0.0
H1192 H 0.70085 0.47045 0.22659 0.0
H1193 H 0.69532 0.53955 0.15052 0.0
H1194 H 0.66534 0.56764 0.22514 0.0
H1195 H 0.69001 0.51235 0.22951 0.0
H1196 H 0.73056 0.55888 0.18435 0.0
O1197 O 0.77005 0.58844 0.30562 0.0
H1198 H 0.69494 0.60601 0.31236 0.0
H1199 H 0.78457 0.63254 0.33392 0.0
H1200 H 0.62929 0.54817 0.19183 0.0
H1201 H 0.79609 0.53525 0.22732 0.0
H1202 H 0.64423 0.53397 0.15419 0.0
H1203 H 0.75422 0.4818 0.22545 0.0
O1204 O 0.71883 0.61296 0.23628 0.0
H1205 H 0.85932 0.67278 0.27252 0.0
H1206 H 0.76602 0.67224 0.29642 0.0
H1207 H 0.81352 0.72099 0.29176 0.0
H1208 H 0.86062 0.72145 0.27973 0.0
H1209 H 0.81128 0.62455 0.27721 0.0
H1210 H 0.77475 0.64669 0.37335 0.0
H1211 H 0.7243 0.64062 0.3823 0.0
O1212 O 0.72611 0.62632 0.27473 0.0
C1213 C 0.68961 0.5511 0.27795 0.0
C1214 C 0.70632 0.62298 0.34777 0.0
C1215 C 0.75713 0.63786 0.36005 0.0
N1216 N 0.74044 0.61877 0.3208 0.0
C1217 C 0.71256 0.61514 0.32563 0.0
C1218 C 0.76254 0.62977 0.33771 0.0
C1219 C 0.72882 0.63445 0.36506 0.0
C1220 C 0.7659 0.55326 0.2294 0.0
N1221 N 0.73647 0.54681 0.23007 0.0
C1222 C 0.77275 0.53002 0.22772 0.0
C1223 C 0.74924 0.50004 0.22671 0.0
C1224 C 0.71929 0.49365 0.22738 0.0
C1225 C 0.71329 0.51746 0.2291 0.0
C1226 C 0.68851 0.54557 0.16685 0.0
C1227 C 0.67189 0.56126 0.20888 0.0
C1228 C 0.70838 0.55656 0.18605 0.0
N1229 N 0.69985 0.56403 0.20677 0.0
C1230 C 0.65143 0.55036 0.19005 0.0
C1231 C 0.65985 0.54244 0.16892 0.0
C1232 C 0.71747 0.62795 0.25383 0.0
C1233 C 0.83897 0.67287 0.27784 0.0
C1234 C 0.78641 0.67226 0.29116 0.0
C1235 C 0.81325 0.69993 0.28859 0.0
C1236 C 0.83967 0.70017 0.28185 0.0
N1237 N 0.78592 0.64557 0.28721 0.0
C1238 C 0.81174 0.64562 0.28063 0.0
Co1239 Co 0.49436 0.10227 0.92875 0.0
Co1240 Co 0.4811 0.06319 0.87589 0.0
O1241 O 0.50345 0.07996 0.90528 0.0
C1242 C 0.49028 0.05042 0.95507 0.0
O1243 O 0.47393 0.03333 0.93741 0.0
C1244 C 0.54407 0.10593 0.86199 0.0
O1245 O 0.54241 0.12478 0.87689 0.0
O1246 O 0.48021 0.10095 0.86884 0.0
O1247 O 0.48818 0.12597 0.90337 0.0
H1248 H 0.3988 0.03811 0.81629 0.0
H1249 H 0.55087 0.09954 0.93292 0.0
O1250 O 0.50043 0.0789 0.95459 0.0
H1251 H 0.58403 0.20816 0.92607 0.0
H1252 H 0.50907 0.15691 0.00614 0.0
H1253 H 0.44858 0.12158 0.93295 0.0
H1254 H 0.52965 0.16976 0.92615 0.0
H1255 H 0.52061 0.12947 0.97566 0.0
O1256 O 0.52093 0.07981 0.85852 0.0
H1257 H 0.42649 0.05906 0.85365 0.0
H1258 H 0.48981 0.03162 0.83485 0.0
H1259 H 0.43638 0.14913 0.96289 0.0
H1260 H 0.60546 0.1372 0.93323 0.0
H1261 H 0.46675 0.16701 0.99979 0.0
H1262 H 0.62235 0.19194 0.92968 0.0
O1263 O 0.45047 0.07136 0.92788 0.0
H1264 H 0.52924 0.00228 0.90033 0.0
H1265 H 0.43417 0.9977 0.87621 0.0
H1266 H 0.43387 0.95043 0.88599 0.0
H1267 H 0.48166 0.95255 0.89815 0.0
H1268 H 0.52848 0.049 0.89055 0.0
H1269 H 0.46295 0.01058 0.79718 0.0
H1270 H 0.41704 0.01367 0.78774 0.0
O1271 O 0.44136 0.04684 0.89299 0.0
C1272 C 0.48277 0.12305 0.88119 0.0
C1273 C 0.41873 0.03656 0.82022 0.0
C1274 C 0.45476 0.02114 0.80948 0.0
N1275 N 0.45961 0.04639 0.84647 0.0
C1276 C 0.43446 0.04831 0.84137 0.0
C1277 C 0.46992 0.03316 0.83081 0.0
C1278 C 0.42899 0.02287 0.80421 0.0
C1279 C 0.55804 0.12334 0.93164 0.0
N1280 N 0.5371 0.13245 0.92963 0.0
C1281 C 0.58898 0.14456 0.93174 0.0
C1282 C 0.59844 0.17526 0.9297 0.0
C1283 C 0.57695 0.18438 0.92765 0.0
C1284 C 0.5462 0.16253 0.92764 0.0
C1285 C 0.49572 0.1493 0.99011 0.0
C1286 C 0.46201 0.12947 0.94891 0.0
C1287 C 0.50211 0.13371 0.97282 0.0
N1288 N 0.48544 0.12419 0.95247 0.0
C1289 C 0.45495 0.14497 0.96582 0.0
C1290 C 0.47197 0.15496 0.98653 0.0
C1291 C 0.43265 0.05173 0.91293 0.0
C1292 C 0.50829 0.00105 0.89498 0.0
C1293 C 0.45505 0.9988 0.88148 0.0
C1294 C 0.45475 0.97196 0.88698 0.0
C1295 C 0.48158 0.97316 0.89379 0.0
N1296 N 0.48136 0.02606 0.88266 0.0
C1297 C 0.50775 0.02742 0.88932 0.0
Co1298 Co 0.90755 0.38826 0.918 0.0
Co1299 Co 0.94303 0.41764 0.86462 0.0
O1300 O 0.92746 0.42143 0.89528 0.0
C1301 C 0.9569 0.43749 0.94545 0.0
O1302 O 0.97493 0.44018 0.92785 0.0
C1303 C 0.90281 0.44168 0.85307 0.0
O1304 O 0.88322 0.42208 0.86816 0.0
O1305 O 0.90379 0.38109 0.85686 0.0
O1306 O 0.88583 0.35826 0.89197 0.0
H1307 H 0.96075 0.3619 0.79882 0.0
H1308 H 0.90363 0.44385 0.92474 0.0
O1309 O 0.92886 0.41755 0.94452 0.0
H1310 H 0.79801 0.36083 0.91643 0.0
H1311 H 0.85461 0.3413 0.99478 0.0
H1312 H 0.89494 0.32491 0.9203 0.0
H1313 H 0.84023 0.35035 0.91507 0.0
H1314 H 0.879 0.38226 0.96527 0.0
O1315 O 0.9283 0.44337 0.84976 0.0
H1316 H 0.94195 0.36708 0.83782 0.0
H1317 H 0.9763 0.46083 0.8254 0.0
H1318 H 0.87049 0.28323 0.94921 0.0
H1319 H 0.86206 0.4553 0.92642 0.0
H1320 H 0.85013 0.29131 0.98677 0.0
H1321 H 0.80881 0.41362 0.92216 0.0
O1322 O 0.94144 0.37965 0.91601 0.0
H1323 H 0.00885 0.524 0.89414 0.0
H1324 H 0.00775 0.43321 0.86271 0.0
H1325 H 0.05644 0.47802 0.87359 0.0
H1326 H 0.05719 0.52384 0.88943 0.0
H1327 H 0.96063 0.4786 0.8832 0.0
H1328 H 0.99523 0.45662 0.78618 0.0
H1329 H 0.9876 0.4069 0.7727 0.0
O1330 O 0.95801 0.39161 0.87853 0.0
C1331 C 0.88499 0.35872 0.86937 0.0
C1332 C 0.96433 0.38372 0.80454 0.0
C1333 C 0.98365 0.43687 0.79743 0.0
N1334 N 0.95833 0.41429 0.83398 0.0
C1335 C 0.95383 0.38681 0.82663 0.0
C1336 C 0.97285 0.43911 0.81964 0.0
C1337 C 0.97937 0.40897 0.78988 0.0
C1338 C 0.88049 0.42555 0.92314 0.0
N1339 N 0.87436 0.39646 0.91991 0.0
C1340 C 0.85706 0.43219 0.92399 0.0
C1341 C 0.82719 0.4088 0.92156 0.0
C1342 C 0.82111 0.37918 0.91832 0.0
C1343 C 0.84512 0.3734 0.9175 0.0
C1344 C 0.86332 0.33747 0.97845 0.0
C1345 C 0.88592 0.32851 0.93652 0.0
C1346 C 0.87719 0.36059 0.9617 0.0
N1347 N 0.88809 0.35586 0.94099 0.0
C1348 C 0.8722 0.30487 0.95286 0.0
C1349 C 0.86081 0.30943 0.97394 0.0
C1350 C 0.95757 0.38 0.89861 0.0
C1351 C 0.00883 0.50421 0.88719 0.0
C1352 C 0.00788 0.45305 0.86962 0.0
C1353 C 0.03553 0.47838 0.87571 0.0
C1354 C 0.03594 0.50409 0.88458 0.0
N1355 N 0.98139 0.45336 0.87222 0.0
C1356 C 0.98161 0.47849 0.88087 0.0
Co1357 Co 0.60002 0.52618 0.92126 0.0
Co1358 Co 0.57634 0.53266 0.86576 0.0
O1359 O 0.56939 0.51233 0.89634 0.0
C1360 C 0.54668 0.52126 0.94617 0.0
O1361 O 0.54422 0.53714 0.92893 0.0
C1362 C 0.55348 0.46833 0.85331 0.0
O1363 O 0.57175 0.468 0.86947 0.0
O1364 O 0.61402 0.53085 0.86084 0.0
O1365 O 0.63331 0.53821 0.89755 0.0
H1366 H 0.63866 0.60908 0.80348 0.0
H1367 H 0.54652 0.46438 0.92429 0.0
O1368 O 0.56765 0.51463 0.94569 0.0
H1369 H 0.63494 0.44969 0.92127 0.0
H1370 H 0.64045 0.51917 1.00079 0.0
H1371 H 0.66095 0.58001 0.92818 0.0
H1372 H 0.6418 0.50111 0.92069 0.0
H1373 H 0.60286 0.50182 0.96855 0.0
O1374 O 0.55238 0.49239 0.84957 0.0
H1375 H 0.62932 0.58378 0.84229 0.0
H1376 H 0.53769 0.52346 0.82348 0.0
H1377 H 0.69925 0.5981 0.9599 0.0
H1378 H 0.53865 0.41257 0.92515 0.0
H1379 H 0.6891 0.56758 0.99653 0.0
H1380 H 0.58306 0.40498 0.92355 0.0
O1381 O 0.60588 0.56771 0.91981 0.0
H1382 H 0.46692 0.48994 0.88773 0.0
H1383 H 0.56038 0.58134 0.86178 0.0
H1384 H 0.51417 0.5842 0.86898 0.0
H1385 H 0.46699 0.53825 0.88202 0.0
H1386 H 0.51372 0.48816 0.88051 0.0
H1387 H 0.54611 0.54793 0.78438 0.0
H1388 H 0.59688 0.59113 0.77422 0.0
O1389 O 0.6005 0.57353 0.88107 0.0
C1390 C 0.6356 0.53682 0.87515 0.0
C1391 C 0.61642 0.59034 0.80774 0.0
C1392 C 0.56448 0.55599 0.79701 0.0
N1393 N 0.58294 0.55235 0.83522 0.0
C1394 C 0.61097 0.57599 0.82971 0.0
C1395 C 0.55986 0.5422 0.81916 0.0
C1396 C 0.59297 0.58024 0.79132 0.0
C1397 C 0.56597 0.46127 0.92385 0.0
N1398 N 0.59458 0.48574 0.92252 0.0
C1399 C 0.56137 0.43187 0.92424 0.0
C1400 C 0.5863 0.42763 0.92329 0.0
C1401 C 0.61541 0.45271 0.92199 0.0
C1402 C 0.61914 0.48176 0.92159 0.0
C1403 C 0.64518 0.53262 0.98489 0.0
C1404 C 0.65648 0.56648 0.94398 0.0
C1405 C 0.62397 0.52293 0.96658 0.0
N1406 N 0.62987 0.53971 0.94639 0.0
C1407 C 0.6782 0.5769 0.96192 0.0
C1408 C 0.67247 0.55978 0.98248 0.0
C1409 C 0.60844 0.58414 0.90199 0.0
C1410 C 0.48731 0.51009 0.88198 0.0
C1411 C 0.53996 0.56127 0.86751 0.0
C1412 C 0.51385 0.56301 0.87151 0.0
C1413 C 0.48738 0.53722 0.87881 0.0
N1414 N 0.53969 0.53456 0.87062 0.0
C1415 C 0.51384 0.50919 0.87778 0.0
Co1416 Co 0.57721 0.84946 0.75701 0.0
Co1417 Co 0.60513 0.84959 0.70123 0.0
O1418 O 0.59322 0.83346 0.7332 0.0
C1419 C 0.63063 0.85231 0.77931 0.0
O1420 O 0.64483 0.86502 0.75953 0.0
C1421 C 0.56073 0.78474 0.69517 0.0
O1422 O 0.54419 0.7884 0.71121 0.0
O1423 O 0.56628 0.84888 0.69648 0.0
O1424 O 0.55185 0.85541 0.73269 0.0
H1425 H 0.61869 0.91855 0.63312 0.0
H1426 H 0.57394 0.79057 0.76558 0.0
O1427 O 0.6027 0.84427 0.78166 0.0
H1428 H 0.46801 0.76818 0.76639 0.0
H1429 H 0.53732 0.85267 0.83786 0.0
H1430 H 0.56546 0.90077 0.75917 0.0
H1431 H 0.50999 0.82043 0.76029 0.0
H1432 H 0.55646 0.83242 0.80684 0.0
O1433 O 0.58603 0.80712 0.68868 0.0
H1434 H 0.60422 0.89859 0.67372 0.0
H1435 H 0.6303 0.83297 0.65995 0.0
H1436 H 0.5462 0.92162 0.78959 0.0
H1437 H 0.53268 0.73804 0.77197 0.0
H1438 H 0.53199 0.89752 0.82928 0.0
H1439 H 0.47926 0.72657 0.77231 0.0
O1440 O 0.61057 0.89128 0.75119 0.0
H1441 H 0.66983 0.806 0.72642 0.0
H1442 H 0.67016 0.89561 0.6934 0.0
H1443 H 0.7187 0.89728 0.70036 0.0
H1444 H 0.71872 0.85223 0.71697 0.0
H1445 H 0.62182 0.80538 0.71935 0.0
H1446 H 0.64481 0.85203 0.61914 0.0
H1447 H 0.63917 0.89523 0.60553 0.0
O1448 O 0.62431 0.8924 0.71317 0.0
C1449 C 0.54901 0.85334 0.71018 0.0
C1450 C 0.62137 0.8998 0.63887 0.0
C1451 C 0.636 0.86244 0.63101 0.0
N1452 N 0.61672 0.86487 0.66925 0.0
C1453 C 0.61331 0.88848 0.66186 0.0
C1454 C 0.6277 0.85171 0.65412 0.0
C1455 C 0.63283 0.88668 0.62339 0.0
C1456 C 0.55077 0.7858 0.76598 0.0
N1457 N 0.54438 0.80854 0.76268 0.0
C1458 C 0.5275 0.75599 0.76949 0.0
C1459 C 0.49753 0.74957 0.76964 0.0
C1460 C 0.4912 0.7729 0.7663 0.0
C1461 C 0.51505 0.80243 0.76279 0.0
C1462 C 0.54335 0.86331 0.82062 0.0
C1463 C 0.55907 0.89001 0.77633 0.0
C1464 C 0.55422 0.85197 0.803 0.0
N1465 N 0.56172 0.86521 0.78115 0.0
C1466 C 0.54829 0.90199 0.79352 0.0
C1467 C 0.54036 0.88847 0.81579 0.0
C1468 C 0.62579 0.90533 0.73291 0.0
C1469 C 0.67011 0.82573 0.7191 0.0
C1470 C 0.66998 0.87593 0.70066 0.0
C1471 C 0.69754 0.87699 0.70453 0.0
C1472 C 0.69753 0.8517 0.71383 0.0
N1473 N 0.64318 0.85036 0.70585 0.0
C1474 C 0.64299 0.82547 0.71496 0.0
Co1475 Co 0.13841 0.72636 0.75581 0.0
Co1476 Co 0.13372 0.75232 0.70075 0.0
O1477 O 0.15322 0.758 0.73159 0.0
C1478 C 0.14349 0.77905 0.78208 0.0
O1479 O 0.12783 0.78226 0.76506 0.0
C1480 C 0.19801 0.77499 0.68893 0.0
O1481 O 0.19792 0.7563 0.70491 0.0
O1482 O 0.13553 0.71479 0.6951 0.0
O1483 O 0.12668 0.69392 0.73131 0.0
H1484 H 0.0591 0.69259 0.63674 0.0
H1485 H 0.20043 0.77923 0.76017 0.0
O1486 O 0.14981 0.75788 0.78103 0.0
H1487 H 0.21388 0.69014 0.7555 0.0
H1488 H 0.14269 0.68238 0.83448 0.0
H1489 H 0.08405 0.66545 0.76113 0.0
H1490 H 0.16276 0.68397 0.75453 0.0
H1491 H 0.16125 0.7213 0.80316 0.0
O1492 O 0.17426 0.77662 0.68521 0.0
H1493 H 0.08336 0.70029 0.67583 0.0
H1494 H 0.14401 0.79273 0.65943 0.0
H1495 H 0.06475 0.62584 0.7919 0.0
H1496 H 0.25195 0.7864 0.76146 0.0
H1497 H 0.09417 0.63419 0.8289 0.0
H1498 H 0.25892 0.74164 0.75903 0.0
O1499 O 0.0971 0.72111 0.75403 0.0
H1500 H 0.17626 0.86089 0.72516 0.0
H1501 H 0.08532 0.7687 0.69693 0.0
H1502 H 0.0825 0.81474 0.70507 0.0
H1503 H 0.12822 0.86128 0.71927 0.0
H1504 H 0.17801 0.81427 0.71696 0.0
H1505 H 0.12057 0.78597 0.62008 0.0
H1506 H 0.07772 0.73564 0.60855 0.0
O1507 O 0.09257 0.72774 0.71529 0.0
C1508 C 0.12892 0.69257 0.70889 0.0
C1509 C 0.07768 0.71466 0.64159 0.0
C1510 C 0.1122 0.76706 0.63223 0.0
N1511 N 0.11486 0.74699 0.66999 0.0
C1512 C 0.09144 0.71918 0.66373 0.0
C1513 C 0.12541 0.77074 0.65452 0.0
C1514 C 0.08815 0.73882 0.62577 0.0
C1515 C 0.20326 0.75962 0.75937 0.0
N1516 N 0.17861 0.73122 0.75736 0.0
C1517 C 0.2325 0.76383 0.76 0.0
C1518 C 0.23639 0.73872 0.75859 0.0
C1519 C 0.21113 0.70981 0.75658 0.0
C1520 C 0.18224 0.70647 0.75597 0.0
C1521 C 0.12971 0.67844 0.81841 0.0
C1522 C 0.09708 0.66916 0.7771 0.0
C1523 C 0.14009 0.70041 0.80063 0.0
N1524 N 0.12391 0.69551 0.78023 0.0
C1525 C 0.08599 0.64669 0.7945 0.0
C1526 C 0.10249 0.6514 0.81526 0.0
C1527 C 0.0813 0.7192 0.73595 0.0
C1528 C 0.15622 0.84079 0.71891 0.0
C1529 C 0.10529 0.78884 0.70315 0.0
C1530 C 0.10357 0.81486 0.70769 0.0
C1531 C 0.12924 0.84097 0.71564 0.0
N1532 N 0.13186 0.78887 0.70636 0.0
C1533 C 0.1571 0.81436 0.71416 0.0
Co1534 Co 0.26679 0.41211 0.74883 0.0
Co1535 Co 0.24256 0.38016 0.69357 0.0
O1536 O 0.23584 0.39333 0.72431 0.0
C1537 C 0.21604 0.35949 0.77265 0.0
O1538 O 0.21578 0.34355 0.75429 0.0
C1539 C 0.21916 0.42099 0.68184 0.0
O1540 O 0.23767 0.43956 0.69796 0.0
O1541 O 0.27946 0.42005 0.68826 0.0
O1542 O 0.29894 0.43663 0.72455 0.0
H1543 H 0.30465 0.36778 0.63011 0.0
H1544 H 0.20954 0.41342 0.75339 0.0
O1545 O 0.23528 0.38779 0.77356 0.0
H1546 H 0.2906 0.52053 0.75128 0.0
H1547 H 0.30546 0.45911 0.82883 0.0
H1548 H 0.33055 0.4267 0.75401 0.0
H1549 H 0.30298 0.47963 0.74927 0.0
H1550 H 0.26745 0.43623 0.79703 0.0
O1551 O 0.21779 0.39572 0.67796 0.0
H1552 H 0.29568 0.38362 0.66914 0.0
H1553 H 0.20319 0.34963 0.65182 0.0
H1554 H 0.36932 0.44971 0.78525 0.0
H1555 H 0.19617 0.45361 0.75564 0.0
H1556 H 0.35685 0.46609 0.82299 0.0
H1557 H 0.23686 0.50762 0.7545 0.0
O1558 O 0.2771 0.37946 0.74628 0.0
H1559 H 0.13395 0.31155 0.7169 0.0
H1560 H 0.22794 0.31587 0.68963 0.0
H1561 H 0.18258 0.26624 0.69745 0.0
H1562 H 0.13515 0.26388 0.71117 0.0
H1563 H 0.17992 0.36071 0.70905 0.0
H1564 H 0.21121 0.33366 0.6125 0.0
H1565 H 0.26224 0.34262 0.60151 0.0
O1566 O 0.26775 0.36453 0.70828 0.0
C1567 C 0.30044 0.43857 0.70196 0.0
C1568 C 0.28229 0.36364 0.63475 0.0
C1569 C 0.22985 0.34452 0.62486 0.0
N1570 N 0.24887 0.36724 0.66284 0.0
C1571 C 0.27705 0.37246 0.65684 0.0
C1572 C 0.22546 0.35365 0.64712 0.0
C1573 C 0.25848 0.34955 0.61869 0.0
C1574 C 0.22739 0.43687 0.75314 0.0
N1575 N 0.257 0.44417 0.75131 0.0
C1576 C 0.21967 0.45953 0.75431 0.0
C1577 C 0.24252 0.48982 0.75363 0.0
C1578 C 0.27267 0.49709 0.7518 0.0
C1579 C 0.27954 0.47383 0.75062 0.0
C1580 C 0.31119 0.45214 0.81244 0.0
C1581 C 0.32504 0.43399 0.77031 0.0
C1582 C 0.28975 0.43914 0.79439 0.0
N1583 N 0.2969 0.43044 0.7736 0.0
C1584 C 0.34705 0.4469 0.78797 0.0
C1585 C 0.34003 0.45606 0.80915 0.0
C1586 C 0.27832 0.36438 0.72872 0.0
C1587 C 0.15445 0.31228 0.71085 0.0
C1588 C 0.2074 0.31502 0.69563 0.0
C1589 C 0.18177 0.28686 0.69999 0.0
C1590 C 0.15516 0.28555 0.70767 0.0
N1591 N 0.20651 0.34114 0.69877 0.0
C1592 C 0.1805 0.34004 0.70628 0.0
Co1593 Co 0.5196 0.90343 0.07679 0.0
Co1594 Co 0.53588 0.93914 0.13109 0.0
O1595 O 0.51126 0.92383 0.10253 0.0
C1596 C 0.51729 0.95365 0.05317 0.0
O1597 O 0.53539 0.9711 0.06998 0.0
C1598 C 0.47343 0.89974 0.14851 0.0
O1599 O 0.47111 0.87977 0.13273 0.0
O1600 O 0.53377 0.89958 0.13636 0.0
O1601 O 0.53166 0.88134 0.09968 0.0
H1602 H 0.62038 0.95678 0.18619 0.0
H1603 H 0.46035 0.90102 0.07843 0.0
O1604 O 0.50813 0.92536 0.05325 0.0
H1605 H 0.43614 0.79465 0.08302 0.0
H1606 H 0.49846 0.85005 0.9982 0.0
H1607 H 0.56837 0.88965 0.06607 0.0
H1608 H 0.48915 0.83602 0.07942 0.0
H1609 H 0.48828 0.87503 0.03151 0.0
O1610 O 0.4981 0.92489 0.15053 0.0
H1611 H 0.58945 0.93796 0.14997 0.0
H1612 H 0.5334 0.97225 0.1738 0.0
H1613 H 0.57931 0.86462 0.03324 0.0
H1614 H 0.40701 0.86034 0.08184 0.0
H1615 H 0.54419 0.84461 0.99899 0.0
H1616 H 0.39464 0.80672 0.08425 0.0
O1617 O 0.5624 0.9366 0.07496 0.0
H1618 H 0.49264 0.00619 0.11252 0.0
H1619 H 0.58586 0.0036 0.13059 0.0
H1620 H 0.58895 0.05265 0.12285 0.0
H1621 H 0.5421 0.05415 0.11376 0.0
H1622 H 0.4906 0.9576 0.12017 0.0
H1623 H 0.56354 0.99119 0.21038 0.0
H1624 H 0.60746 0.9836 0.2167 0.0
O1625 O 0.57419 0.95387 0.11228 0.0
C1626 C 0.53465 0.88067 0.12207 0.0
C1627 C 0.60136 0.96031 0.1836 0.0
C1628 C 0.56943 0.97959 0.1972 0.0
N1629 N 0.55983 0.95423 0.1597 0.0
C1630 C 0.58382 0.94979 0.16311 0.0
C1631 C 0.55241 0.96876 0.17647 0.0
C1632 C 0.59408 0.97533 0.20073 0.0
C1633 C 0.45511 0.87771 0.0792 0.0
N1634 N 0.47781 0.87089 0.07862 0.0
C1635 C 0.42488 0.85479 0.08123 0.0
C1636 C 0.41797 0.82471 0.08263 0.0
C1637 C 0.44124 0.81793 0.08197 0.0
C1638 C 0.47122 0.84145 0.07998 0.0
C1639 C 0.51387 0.85858 0.01306 0.0
C1640 C 0.55286 0.88077 0.05132 0.0
C1641 C 0.50825 0.87277 0.03196 0.0
N1642 N 0.52754 0.88346 0.05083 0.0
C1643 C 0.55923 0.86673 0.03274 0.0
C1644 C 0.53954 0.85554 0.01351 0.0
C1645 C 0.58144 0.95302 0.09073 0.0
C1646 C 0.51319 0.00583 0.11654 0.0
C1647 C 0.56537 0.00405 0.12661 0.0
C1648 C 0.56726 0.0319 0.12229 0.0
C1649 C 0.54096 0.03273 0.1172 0.0
N1650 N 0.53804 0.97777 0.12595 0.0
C1651 C 0.51216 0.9784 0.12099 0.0
Co1652 Co 0.09449 0.61255 0.07216 0.0
Co1653 Co 0.06403 0.58593 0.12739 0.0
O1654 O 0.0779 0.58091 0.09634 0.0
C1655 C 0.0456 0.55987 0.04703 0.0
O1656 O 0.02789 0.55693 0.06494 0.0
C1657 C 0.10741 0.56513 0.13776 0.0
O1658 O 0.12521 0.58461 0.12177 0.0
O1659 O 0.10277 0.62421 0.1329 0.0
O1660 O 0.1161 0.6449 0.09665 0.0
H1661 H 0.04704 0.64357 0.19204 0.0
H1662 H 0.10264 0.55923 0.06685 0.0
O1663 O 0.07321 0.58103 0.04707 0.0
H1664 H 0.20597 0.64755 0.07033 0.0
H1665 H 0.14101 0.65615 0.99285 0.0
H1666 H 0.1019 0.67381 0.06746 0.0
H1667 H 0.16142 0.65432 0.07247 0.0
H1668 H 0.12101 0.61725 0.0242 0.0
O1669 O 0.08176 0.56257 0.1424 0.0
H1670 H 0.06382 0.63682 0.15266 0.0
H1671 H 0.03559 0.54513 0.16883 0.0
H1672 H 0.1219 0.71341 0.03667 0.0
H1673 H 0.14655 0.55145 0.06439 0.0
H1674 H 0.14165 0.70469 0.99904 0.0
H1675 H 0.19867 0.59581 0.06623 0.0
O1676 O 0.05885 0.61829 0.07475 0.0
H1677 H 1.00029 0.47701 0.10296 0.0
H1678 H 0.99871 0.56746 0.13194 0.0
H1679 H 0.95047 0.52052 0.12403 0.0
H1680 H 0.95107 0.47486 0.10945 0.0
H1681 H 0.04801 0.52451 0.11093 0.0
H1682 H 0.01874 0.55095 0.20847 0.0
H1683 H 0.02431 0.60043 0.22025 0.0
O1684 O 0.04605 0.60952 0.1132 0.0
C1685 C 0.11901 0.6463 0.11914 0.0
C1686 C 0.04438 0.62187 0.18708 0.0
C1687 C 0.02854 0.5699 0.19631 0.0
N1688 N 0.05041 0.59054 0.15838 0.0
C1689 C 0.05375 0.61788 0.16478 0.0
C1690 C 0.03816 0.56675 0.17386 0.0
C1691 C 0.03166 0.59766 0.20291 0.0
C1692 C 0.12525 0.57867 0.06738 0.0
N1693 N 0.12946 0.6072 0.06971 0.0
C1694 C 0.15002 0.57411 0.0661 0.0
C1695 C 0.17926 0.59901 0.06718 0.0
C1696 C 0.18337 0.62804 0.06951 0.0
C1697 C 0.15806 0.63173 0.07078 0.0
C1698 C 0.13256 0.66026 0.0092 0.0
C1699 C 0.11069 0.66995 0.05121 0.0
C1700 C 0.12118 0.63831 0.027 0.0
N1701 N 0.11063 0.64341 0.04774 0.0
C1702 C 0.12187 0.69241 0.03381 0.0
C1703 C 0.13292 0.68749 0.01269 0.0
C1704 C 0.04397 0.61891 0.09269 0.0
C1705 C 0.99973 0.49673 0.10938 0.0
C1706 C 0.99916 0.5477 0.12556 0.0
C1707 C 0.97177 0.52117 0.12116 0.0
C1708 C 0.97213 0.49555 0.11299 0.0
N1709 N 0.02614 0.54865 0.12201 0.0
C1710 C 0.02667 0.52364 0.11401 0.0
Co1711 Co 0.37858 0.48276 0.08007 0.0
Co1712 Co 0.41256 0.47466 0.13017 0.0
O1713 O 0.41296 0.49573 0.10132 0.0
C1714 C 0.42677 0.48504 0.05014 0.0
O1715 O 0.43034 0.4694 0.06697 0.0
C1716 C 0.42912 0.53565 0.1476 0.0
O1717 O 0.40473 0.53204 0.13689 0.0
O1718 O 0.37425 0.47214 0.14078 0.0
O1719 O 0.35016 0.47256 0.10752 0.0
H1720 H 0.36613 0.39415 0.19282 0.0
H1721 H 0.43313 0.54337 0.07409 0.0
O1722 O 0.40659 0.49266 0.05227 0.0
H1723 H 0.34908 0.56282 0.08896 0.0
H1724 H 0.32688 0.49104 0.00702 0.0
H1725 H 0.31547 0.43128 0.0788 0.0
H1726 H 0.33976 0.5105 0.08731 0.0
H1727 H 0.36952 0.50703 0.03479 0.0
O1728 O 0.43632 0.51504 0.14648 0.0
H1729 H 0.36656 0.42023 0.15594 0.0
H1730 H 0.45891 0.48633 0.16697 0.0
H1731 H 0.27214 0.4146 0.05164 0.0
H1732 H 0.44343 0.59604 0.07542 0.0
H1733 H 0.27772 0.44458 0.01545 0.0
H1734 H 0.40123 0.60602 0.08296 0.0
O1735 O 0.37084 0.44052 0.07973 0.0
H1736 H 0.51813 0.52704 0.0968 0.0
H1737 H 0.4341 0.43019 0.12632 0.0
H1738 H 0.48082 0.43241 0.11181 0.0
H1739 H 0.52324 0.4811 0.09691 0.0
H1740 H 0.47092 0.52375 0.1113 0.0
H1741 H 0.45941 0.46115 0.2041 0.0
H1742 H 0.41281 0.41464 0.21718 0.0
O1743 O 0.38855 0.43402 0.11439 0.0
C1744 C 0.35149 0.47029 0.12994 0.0
C1745 C 0.38661 0.41433 0.18726 0.0
C1746 C 0.43896 0.45196 0.1936 0.0
N1747 N 0.41282 0.45454 0.15919 0.0
C1748 C 0.38702 0.42911 0.16635 0.0
C1749 C 0.43853 0.46614 0.17259 0.0
C1750 C 0.4128 0.42586 0.20093 0.0
C1751 C 0.41461 0.54753 0.07716 0.0
N1752 N 0.38586 0.5239 0.08046 0.0
C1753 C 0.4206 0.5774 0.07799 0.0
C1754 C 0.39691 0.58299 0.08225 0.0
C1755 C 0.36765 0.55876 0.08563 0.0
C1756 C 0.36252 0.52918 0.08471 0.0
C1757 C 0.32414 0.47783 0.02277 0.0
C1758 C 0.31797 0.44456 0.06318 0.0
C1759 C 0.34822 0.48674 0.03852 0.0
N1760 N 0.34486 0.47025 0.0585 0.0
C1761 C 0.29341 0.43495 0.04783 0.0
C1762 C 0.29657 0.45176 0.02751 0.0
C1763 C 0.37454 0.42404 0.09477 0.0
C1764 C 0.49984 0.50571 0.10331 0.0
C1765 C 0.45246 0.45146 0.11984 0.0
C1766 C 0.47887 0.45259 0.11169 0.0
C1767 C 0.50267 0.47992 0.10334 0.0
N1768 N 0.44986 0.47685 0.11975 0.0
C1769 C 0.47311 0.50374 0.11164 0.0
Co1770 Co 0.09098 0.48204 0.57465 0.0
Co1771 Co 0.05765 0.48217 0.62777 0.0
O1772 O 0.07296 0.49845 0.5963 0.0
C1773 C 0.04185 0.48153 0.54699 0.0
O1774 O 0.02422 0.46774 0.56518 0.0
C1775 C 0.10089 0.54705 0.63544 0.0
O1776 O 0.11929 0.544 0.62091 0.0
O1777 O 0.09597 0.48319 0.63591 0.0
O1778 O 0.11239 0.47463 0.60134 0.0
H1779 H 0.03745 0.41333 0.69738 0.0
H1780 H 0.09759 0.5421 0.56448 0.0
O1781 O 0.06971 0.48896 0.5476 0.0
H1782 H 0.20181 0.56086 0.57293 0.0
H1783 H 0.14044 0.47913 0.49828 0.0
H1784 H 0.10047 0.42925 0.57521 0.0
H1785 H 0.15807 0.50914 0.57683 0.0
H1786 H 0.11846 0.49975 0.52657 0.0
O1787 O 0.07497 0.52444 0.64028 0.0
H1788 H 0.05606 0.4334 0.65735 0.0
H1789 H 0.02759 0.49812 0.6659 0.0
H1790 H 0.12247 0.408 0.54755 0.0
H1791 H 0.14068 0.59412 0.56021 0.0
H1792 H 0.14266 0.433 0.50876 0.0
H1793 H 0.19324 0.60377 0.56453 0.0
O1794 O 0.05603 0.44046 0.5787 0.0
H1795 H 0.99552 0.52501 0.59493 0.0
H1796 H 0.99209 0.43572 0.63173 0.0
H1797 H 0.94438 0.4336 0.62043 0.0
H1798 H 0.94591 0.47848 0.60189 0.0
H1799 H 0.0427 0.52608 0.60636 0.0
H1800 H 0.00892 0.47894 0.70611 0.0
H1801 H 0.01368 0.43616 0.72206 0.0
O1802 O 0.04016 0.43951 0.61601 0.0
C1803 C 0.11363 0.47742 0.62385 0.0
C1804 C 0.03513 0.4319 0.6906 0.0
C1805 C 0.01915 0.46875 0.69551 0.0
N1806 N 0.04261 0.46667 0.65922 0.0
C1807 C 0.04553 0.44328 0.66792 0.0
C1808 C 0.0298 0.47954 0.67275 0.0
C1809 C 0.02183 0.44474 0.70444 0.0
C1810 C 0.1204 0.54607 0.56611 0.0
N1811 N 0.12531 0.5226 0.57079 0.0
C1812 C 0.14471 0.57559 0.56379 0.0
C1813 C 0.17419 0.581 0.56626 0.0
C1814 C 0.17901 0.55693 0.571 0.0
C1815 C 0.15415 0.52772 0.57325 0.0
C1816 C 0.13181 0.46809 0.51516 0.0
C1817 C 0.10945 0.4404 0.55845 0.0
C1818 C 0.11931 0.47964 0.53123 0.0
N1819 N 0.10854 0.46592 0.55263 0.0
C1820 C 0.12177 0.42819 0.54283 0.0
C1821 C 0.13305 0.44221 0.52105 0.0
C1822 C 0.03977 0.42645 0.5966 0.0
C1823 C 0.99455 0.50535 0.60307 0.0
C1824 C 0.99294 0.45534 0.62365 0.0
C1825 C 0.96585 0.45402 0.61733 0.0
C1826 C 0.96673 0.47921 0.60694 0.0
N1827 N 0.02014 0.48106 0.61981 0.0
C1828 C 0.02118 0.50587 0.60966 0.0
Co1829 Co 0.52348 0.59787 0.58259 0.0
Co1830 Co 0.52996 0.57764 0.63955 0.0
O1831 O 0.51055 0.5685 0.60846 0.0
C1832 C 0.52429 0.54569 0.56064 0.0
O1833 O 0.53925 0.54515 0.57934 0.0
C1834 C 0.46497 0.55328 0.6505 0.0
O1835 O 0.46473 0.57088 0.63367 0.0
O1836 O 0.52631 0.61454 0.64251 0.0
O1837 O 0.53198 0.63156 0.60512 0.0
H1838 H 0.60299 0.64473 0.70192 0.0
H1839 H 0.46407 0.54127 0.5795 0.0
O1840 O 0.5156 0.56509 0.55925 0.0
H1841 H 0.44075 0.62408 0.57693 0.0
H1842 H 0.5163 0.6325 0.50068 0.0
H1843 H 0.57448 0.66038 0.57511 0.0
H1844 H 0.49366 0.63533 0.57956 0.0
H1845 H 0.50004 0.5965 0.53403 0.0
O1846 O 0.48929 0.55304 0.65516 0.0
H1847 H 0.57889 0.63275 0.66255 0.0
H1848 H 0.52091 0.54134 0.68329 0.0
H1849 H 0.59142 0.69717 0.54229 0.0
H1850 H 0.41085 0.529 0.57668 0.0
H1851 H 0.56223 0.68329 0.50474 0.0
H1852 H 0.39892 0.57058 0.57546 0.0
O1853 O 0.56612 0.60726 0.5858 0.0
H1854 H 0.49198 0.46792 0.62153 0.0
H1855 H 0.58032 0.56461 0.64633 0.0
H1856 H 0.58558 0.51937 0.64169 0.0
H1857 H 0.54117 0.47057 0.62924 0.0
H1858 H 0.4878 0.5138 0.6262 0.0
H1859 H 0.54422 0.55239 0.72296 0.0
H1860 H 0.58564 0.60439 0.73243 0.0
O1861 O 0.57113 0.60251 0.62482 0.0
C1862 C 0.53058 0.63487 0.62741 0.0
C1863 C 0.58503 0.62196 0.69797 0.0
C1864 C 0.55202 0.57014 0.70979 0.0
N1865 N 0.54872 0.58632 0.67056 0.0
C1866 C 0.57137 0.61502 0.67569 0.0
C1867 C 0.53888 0.56403 0.68731 0.0
C1868 C 0.57527 0.59932 0.71509 0.0
C1869 C 0.45907 0.55948 0.57872 0.0
N1870 N 0.48194 0.58897 0.57959 0.0
C1871 C 0.42888 0.5524 0.57723 0.0
C1872 C 0.4222 0.57574 0.57659 0.0
C1873 C 0.44567 0.60576 0.57744 0.0
C1874 C 0.47558 0.61199 0.57898 0.0
C1875 C 0.52914 0.63885 0.51698 0.0
C1876 C 0.56151 0.65429 0.5589 0.0
C1877 C 0.52006 0.61855 0.53592 0.0
N1878 N 0.53609 0.62649 0.5566 0.0
C1879 C 0.57128 0.67516 0.54034 0.0
C1880 C 0.55492 0.66735 0.51927 0.0
C1881 C 0.58224 0.61075 0.60405 0.0
C1882 C 0.51146 0.48903 0.62704 0.0
C1883 C 0.56092 0.54348 0.64085 0.0
C1884 C 0.56401 0.51792 0.6383 0.0
C1885 C 0.53908 0.49055 0.63133 0.0
N1886 N 0.53373 0.54179 0.63665 0.0
C1887 C 0.5092 0.51504 0.6298 0.0
Co1888 Co 0.39271 0.90507 0.58564 0.0
Co1889 Co 0.41849 0.94703 0.63708 0.0
O1890 O 0.42416 0.92823 0.60892 0.0
C1891 C 0.44273 0.95318 0.55811 0.0
O1892 O 0.44375 0.9719 0.57452 0.0
C1893 C 0.43977 0.90674 0.65481 0.0
O1894 O 0.41951 0.8862 0.64065 0.0
O1895 O 0.38093 0.90905 0.64563 0.0
O1896 O 0.36143 0.88491 0.61117 0.0
H1897 H 0.35966 0.9734 0.69425 0.0
H1898 H 0.45012 0.90371 0.58438 0.0
O1899 O 0.42337 0.92499 0.55964 0.0
H1900 H 0.36978 0.79767 0.59671 0.0
H1901 H 0.35224 0.84414 0.51088 0.0
H1902 H 0.32874 0.88915 0.57919 0.0
H1903 H 0.35696 0.83805 0.59229 0.0
H1904 H 0.39102 0.87274 0.54119 0.0
O1905 O 0.44267 0.93306 0.65594 0.0
H1906 H 0.36694 0.95016 0.65835 0.0
H1907 H 0.45897 0.98328 0.6767 0.0
H1908 H 0.28919 0.86049 0.54941 0.0
H1909 H 0.46392 0.864 0.58855 0.0
H1910 H 0.30086 0.83776 0.51495 0.0
H1911 H 0.4236 0.81056 0.59487 0.0
O1912 O 0.38233 0.9376 0.58327 0.0
H1913 H 0.52708 0.00858 0.6111 0.0
H1914 H 0.43518 0.01189 0.63313 0.0
H1915 H 0.48126 0.05902 0.62129 0.0
H1916 H 0.52763 0.05753 0.61016 0.0
H1917 H 0.48044 0.96195 0.62289 0.0
H1918 H 0.45263 0.00663 0.71294 0.0
H1919 H 0.40271 0.00185 0.72184 0.0
O1920 O 0.39396 0.96102 0.61868 0.0
C1921 C 0.36011 0.88766 0.63356 0.0
C1922 C 0.38155 0.97573 0.69052 0.0
C1923 C 0.43372 0.99435 0.70102 0.0
N1924 N 0.41342 0.96564 0.66534 0.0
C1925 C 0.38583 0.96272 0.67018 0.0
C1926 C 0.43716 0.98105 0.68051 0.0
C1927 C 0.40571 0.99167 0.70601 0.0
C1928 C 0.43242 0.88045 0.58684 0.0
N1929 N 0.40277 0.87319 0.58797 0.0
C1930 C 0.44038 0.85809 0.5893 0.0
C1931 C 0.41775 0.82811 0.59289 0.0
C1932 C 0.38755 0.82087 0.59395 0.0
C1933 C 0.38043 0.84384 0.59147 0.0
C1934 C 0.34685 0.85386 0.52585 0.0
C1935 C 0.33389 0.8791 0.56434 0.0
C1936 C 0.36873 0.87011 0.54304 0.0
N1937 N 0.36202 0.8823 0.56205 0.0
C1938 C 0.31145 0.863 0.54749 0.0
C1939 C 0.31803 0.85029 0.52815 0.0
C1940 C 0.38257 0.95677 0.5979 0.0
C1941 C 0.50704 0.00953 0.61598 0.0
C1942 C 0.45527 0.01106 0.6283 0.0
C1943 C 0.4813 0.03783 0.62165 0.0
C1944 C 0.50732 0.03698 0.61542 0.0
N1945 N 0.45518 0.98423 0.62881 0.0
C1946 C 0.48062 0.98323 0.62278 0.0
Co1947 Co 0.15212 0.43236 0.26377 0.0
Co1948 Co 0.13456 0.39383 0.21066 0.0
O1949 O 0.15972 0.4104 0.23885 0.0
C1950 C 0.155 0.38324 0.28918 0.0
O1951 O 0.13654 0.36481 0.27296 0.0
C1952 C 0.19635 0.43196 0.19249 0.0
O1953 O 0.19909 0.45249 0.20786 0.0
O1954 O 0.13702 0.43321 0.20397 0.0
O1955 O 0.14 0.4536 0.2399 0.0
H1956 H 0.04964 0.37455 0.15543 0.0
H1957 H 0.21107 0.4341 0.26249 0.0
O1958 O 0.16382 0.41145 0.28821 0.0
H1959 H 0.23615 0.54043 0.25437 0.0
H1960 H 0.175 0.48985 0.34055 0.0
H1961 H 0.10403 0.4474 0.27351 0.0
H1962 H 0.18306 0.49962 0.25898 0.0
H1963 H 0.18429 0.46287 0.30827 0.0
O1964 O 0.17173 0.40674 0.19104 0.0
H1965 H 0.08116 0.39491 0.19122 0.0
H1966 H 0.13577 0.35813 0.16927 0.0
H1967 H 0.09398 0.47442 0.3053 0.0
H1968 H 0.26449 0.47424 0.25812 0.0
H1969 H 0.12963 0.49586 0.33913 0.0
H1970 H 0.2773 0.52783 0.25392 0.0
O1971 O 0.10923 0.39956 0.26648 0.0
H1972 H 0.17715 0.32693 0.23181 0.0
H1973 H 0.08413 0.32968 0.21322 0.0
H1974 H 0.08064 0.28084 0.22267 0.0
H1975 H 0.12739 0.27926 0.23204 0.0
H1976 H 0.17958 0.37533 0.22243 0.0
H1977 H 0.10503 0.33762 0.13311 0.0
H1978 H 0.06153 0.34569 0.12607 0.0
O1979 O 0.09686 0.38066 0.22962 0.0
C1980 C 0.1367 0.45311 0.21744 0.0
C1981 C 0.06846 0.37079 0.15834 0.0
C1982 C 0.09957 0.35009 0.1458 0.0
N1983 N 0.11006 0.37743 0.18244 0.0
C1984 C 0.08632 0.38217 0.17861 0.0
C1985 C 0.11692 0.3618 0.16628 0.0
C1986 C 0.07516 0.35462 0.14187 0.0
C1987 C 0.2165 0.45741 0.26096 0.0
N1988 N 0.19399 0.46452 0.2611 0.0
C1989 C 0.24678 0.48002 0.25837 0.0
C1990 C 0.25394 0.51008 0.25597 0.0
C1991 C 0.23086 0.51716 0.2562 0.0
C1992 C 0.20083 0.49395 0.25876 0.0
C1993 C 0.15935 0.48068 0.32587 0.0
C1994 C 0.11976 0.45689 0.28808 0.0
C1995 C 0.16447 0.46536 0.30756 0.0
N1996 N 0.14488 0.45388 0.28891 0.0
C1997 C 0.1139 0.47206 0.30607 0.0
C1998 C 0.13389 0.48406 0.32506 0.0
C1999 C 0.08995 0.38269 0.25101 0.0
C2000 C 0.15663 0.32732 0.22768 0.0
C2001 C 0.10457 0.32919 0.21731 0.0
C2002 C 0.10246 0.30145 0.22261 0.0
C2003 C 0.1287 0.30058 0.22785 0.0
N2004 N 0.13206 0.35531 0.21717 0.0
C2005 C 0.15789 0.35463 0.22226 0.0
Co2006 Co 0.56741 0.71694 0.26154 0.0
Co2007 Co 0.60822 0.7478 0.21002 0.0
O2008 O 0.58813 0.74973 0.23882 0.0
C2009 C 0.61575 0.76724 0.28846 0.0
O2010 O 0.63347 0.76968 0.27072 0.0
C2011 C 0.56197 0.76273 0.19499 0.0
O2012 O 0.54346 0.74139 0.20954 0.0
O2013 O 0.57356 0.70733 0.20168 0.0
O2014 O 0.54713 0.68686 0.23528 0.0
H2015 H 0.6451 0.6998 0.15087 0.0
H2016 H 0.56314 0.77257 0.26659 0.0
O2017 O 0.58784 0.74673 0.28808 0.0
H2018 H 0.45803 0.68931 0.25607 0.0
H2019 H 0.51156 0.67104 0.33754 0.0
H2020 H 0.55418 0.65344 0.26482 0.0
H2021 H 0.50035 0.67895 0.2568 0.0
H2022 H 0.53721 0.71164 0.30789 0.0
O2023 O 0.58903 0.76802 0.19225 0.0
H2024 H 0.61996 0.70204 0.18753 0.0
H2025 H 0.63909 0.79092 0.17033 0.0
H2026 H 0.52854 0.61213 0.29391 0.0
H2027 H 0.52147 0.78391 0.26627 0.0
H2028 H 0.50701 0.62083 0.33058 0.0
H2029 H 0.46849 0.74211 0.26087 0.0
O2030 O 0.60132 0.70821 0.26127 0.0
H2031 H 0.65763 0.85603 0.23737 0.0
H2032 H 0.675 0.77323 0.21253 0.0
H2033 H 0.71848 0.82243 0.22438 0.0
H2034 H 0.7099 0.86423 0.23693 0.0
H2035 H 0.61479 0.80643 0.22554 0.0
H2036 H 0.66421 0.78958 0.13335 0.0
H2037 H 0.66743 0.74381 0.12347 0.0
O2038 O 0.62724 0.72736 0.22737 0.0
C2039 C 0.55199 0.6858 0.21319 0.0
C2040 C 0.6439 0.7199 0.155 0.0
C2041 C 0.6546 0.77028 0.14516 0.0
N2042 N 0.62822 0.74663 0.18113 0.0
C2043 C 0.62976 0.72132 0.17576 0.0
C2044 C 0.64028 0.77087 0.16609 0.0
C2045 C 0.65641 0.74459 0.13963 0.0
C2046 C 0.54011 0.75422 0.26453 0.0
N2047 N 0.53416 0.72512 0.26187 0.0
C2048 C 0.51662 0.76079 0.26426 0.0
C2049 C 0.4869 0.73734 0.26118 0.0
C2050 C 0.48102 0.70771 0.25847 0.0
C2051 C 0.50508 0.70199 0.25884 0.0
C2052 C 0.52079 0.66695 0.3216 0.0
C2053 C 0.54468 0.6573 0.28066 0.0
C2054 C 0.53537 0.68986 0.30478 0.0
N2055 N 0.54692 0.68479 0.28457 0.0
C2056 C 0.53028 0.63387 0.2971 0.0
C2057 C 0.51823 0.63878 0.31768 0.0
C2058 C 0.62252 0.71292 0.24683 0.0
C2059 C 0.66166 0.83802 0.23186 0.0
C2060 C 0.6711 0.79134 0.21794 0.0
C2061 C 0.6958 0.81914 0.22461 0.0
C2062 C 0.69098 0.84259 0.23164 0.0
N2063 N 0.64241 0.78704 0.21819 0.0
C2064 C 0.63751 0.80994 0.22502 0.0
Co2065 Co 0.2875 0.85494 0.25692 0.0
Co2066 Co 0.25495 0.85562 0.20361 0.0
O2067 O 0.25331 0.83899 0.23504 0.0
C2068 C 0.2386 0.85582 0.28436 0.0
O2069 O 0.23519 0.86985 0.26619 0.0
C2070 C 0.23301 0.79073 0.19546 0.0
O2071 O 0.25395 0.79346 0.21033 0.0
O2072 O 0.2922 0.85431 0.19575 0.0
O2073 O 0.31668 0.86186 0.23039 0.0
H2074 H 0.3054 0.92521 0.13465 0.0
H2075 H 0.23318 0.79522 0.26667 0.0
O2076 O 0.25894 0.84827 0.28383 0.0
H2077 H 0.31773 0.77494 0.2591 0.0
H2078 H 0.3383 0.85697 0.33374 0.0
H2079 H 0.35037 0.90687 0.25656 0.0
H2080 H 0.32669 0.82696 0.25523 0.0
H2081 H 0.29608 0.83694 0.30519 0.0
O2082 O 0.22996 0.81348 0.1907 0.0
H2083 H 0.30298 0.90455 0.17457 0.0
H2084 H 0.2097 0.84038 0.16509 0.0
H2085 H 0.39327 0.92752 0.28448 0.0
H2086 H 0.22326 0.7429 0.2709 0.0
H2087 H 0.38736 0.90251 0.3234 0.0
H2088 H 0.2657 0.73248 0.26702 0.0
O2089 O 0.29486 0.89679 0.25295 0.0
H2090 H 0.14936 0.81291 0.23559 0.0
H2091 H 0.23633 0.90236 0.19965 0.0
H2092 H 0.19068 0.90461 0.21063 0.0
H2093 H 0.14678 0.85966 0.22875 0.0
H2094 H 0.19555 0.81171 0.22448 0.0
H2095 H 0.21115 0.86015 0.12498 0.0
H2096 H 0.25924 0.90296 0.10956 0.0
O2097 O 0.28012 0.89814 0.21571 0.0
C2098 C 0.31524 0.85911 0.20786 0.0
C2099 C 0.28428 0.90663 0.1412 0.0
C2100 C 0.2314 0.87009 0.13576 0.0
N2101 N 0.25616 0.87153 0.17223 0.0
C2102 C 0.28275 0.89492 0.16382 0.0
C2103 C 0.23072 0.85897 0.15847 0.0
C2104 C 0.25838 0.89412 0.12713 0.0
C2105 C 0.25182 0.79092 0.26523 0.0
N2106 N 0.2805 0.81413 0.2608 0.0
C2107 C 0.24604 0.76122 0.26753 0.0
C2108 C 0.26986 0.75538 0.26531 0.0
C2109 C 0.29905 0.77919 0.26084 0.0
C2110 C 0.30397 0.80859 0.2586 0.0
C2111 C 0.34118 0.86802 0.31681 0.0
C2112 C 0.34772 0.89574 0.27338 0.0
C2113 C 0.31734 0.85681 0.3006 0.0
N2114 N 0.32089 0.87056 0.27915 0.0
C2115 C 0.37205 0.90759 0.28916 0.0
C2116 C 0.36871 0.89357 0.311 0.0
C2117 C 0.29267 0.91099 0.2352 0.0
C2118 C 0.1683 0.83261 0.22765 0.0
C2119 C 0.21733 0.88271 0.20754 0.0
C2120 C 0.19152 0.8841 0.21369 0.0
C2121 C 0.16689 0.85886 0.22383 0.0
N2122 N 0.21852 0.85687 0.21131 0.0
C2123 C 0.19446 0.83202 0.22123 0.0
H2124 H 0.34063 0.19358 0.13013 0.0
H2125 H 0.25619 0.15691 0.16851 0.0
H2126 H 0.27736 0.14131 0.2006 0.0
H2127 H 0.3197 0.13777 0.21764 0.0
H2128 H 0.40392 0.17407 0.17896 0.0
H2129 H 0.38287 0.19008 0.14713 0.0
C2130 C 0.32688 0.18232 0.14556 0.0
C2131 C 0.29692 0.17652 0.14694 0.0
C2132 C 0.33909 0.17322 0.16387 0.0
C2133 C 0.27934 0.16167 0.16699 0.0
C2134 C 0.29141 0.15272 0.18536 0.0
C2135 C 0.33344 0.14912 0.20223 0.0
C2136 C 0.3633 0.15462 0.20069 0.0
C2137 C 0.32123 0.15829 0.18395 0.0
C2138 C 0.38083 0.16948 0.18062 0.0
C2139 C 0.36885 0.17869 0.16239 0.0
H2140 H 0.84861 0.12775 0.15386 0.0
H2141 H 0.80203 0.16289 0.11245 0.0
H2142 H 0.80803 0.19771 0.14442 0.0
H2143 H 0.82613 0.21804 0.18439 0.0
H2144 H 0.87262 0.18267 0.22569 0.0
H2145 H 0.8669 0.14819 0.19361 0.0
C2146 C 0.83988 0.14311 0.15175 0.0
C2147 C 0.82488 0.14262 0.13072 0.0
C2148 C 0.84326 0.16303 0.17028 0.0
C2149 C 0.81363 0.16267 0.12842 0.0
C2150 C 0.81703 0.18262 0.14673 0.0
C2151 C 0.83494 0.20274 0.18641 0.0
C2152 C 0.84979 0.20303 0.20748 0.0
C2153 C 0.83168 0.18292 0.1678 0.0
C2154 C 0.86115 0.18307 0.20969 0.0
C2155 C 0.8579 0.16328 0.19133 0.0
H2156 H 0.78919 0.61199 0.1709 0.0
H2157 H 0.82809 0.69155 0.21538 0.0
H2158 H 0.86743 0.71933 0.18593 0.0
H2159 H 0.89073 0.72143 0.14731 0.0
H2160 H 0.85173 0.64191 0.10277 0.0
H2161 H 0.81275 0.61395 0.13243 0.0
C2162 C 0.80629 0.63539 0.17419 0.0
C2163 C 0.80552 0.6496 0.19534 0.0
C2164 C 0.82895 0.65136 0.15712 0.0
C2165 C 0.82795 0.67998 0.19925 0.0
C2166 C 0.85054 0.69595 0.1824 0.0
C2167 C 0.87376 0.69796 0.14409 0.0
C2168 C 0.8743 0.68386 0.1228 0.0
C2169 C 0.85124 0.68192 0.16124 0.0
C2170 C 0.85202 0.65341 0.11899 0.0
C2171 C 0.82963 0.63734 0.13595 0.0
H2172 H 0.20572 0.35178 0.38027 0.0
H2173 H 0.16122 0.26339 0.34748 0.0
H2174 H 0.14566 0.28326 0.31444 0.0
H2175 H 0.14414 0.32556 0.29497 0.0
H2176 H 0.18894 0.41399 0.32768 0.0
H2177 H 0.20494 0.39423 0.36049 0.0
C2178 C 0.19268 0.33683 0.36588 0.0
C2179 C 0.18468 0.30611 0.36643 0.0
C2180 C 0.1838 0.3484 0.34687 0.0
C2181 C 0.16775 0.28714 0.34758 0.0
C2182 C 0.1588 0.29847 0.32864 0.0
C2183 C 0.1574 0.34054 0.30927 0.0
C2184 C 0.1652 0.37122 0.30884 0.0
C2185 C 0.16661 0.32904 0.32813 0.0
C2186 C 0.18257 0.39029 0.32749 0.0
C2187 C 0.19173 0.379 0.34632 0.0
H2188 H 0.67245 0.81558 0.29245 0.0
H2189 H 0.58723 0.7672 0.32969 0.0
H2190 H 0.60843 0.80272 0.3628 0.0
H2191 H 0.65137 0.84752 0.38121 0.0
H2192 H 0.73626 0.89554 0.34338 0.0
H2193 H 0.71489 0.86007 0.31054 0.0
C2194 C 0.65846 0.81269 0.30781 0.0
C2195 C 0.62831 0.78866 0.30859 0.0
C2196 C 0.67073 0.83317 0.32672 0.0
C2197 C 0.61052 0.78547 0.32861 0.0
C2198 C 0.62263 0.80577 0.34757 0.0
C2199 C 0.66519 0.85025 0.36578 0.0
C2200 C 0.6954 0.87424 0.36483 0.0
C2201 C 0.65274 0.82971 0.34682 0.0
C2202 C 0.71296 0.87736 0.34466 0.0
C2203 C 0.70077 0.85706 0.32582 0.0
H2204 H 0.16061 0.81063 0.37824 0.0
H2205 H 0.11807 0.8567 0.34618 0.0
H2206 H 0.15266 0.8711 0.3126 0.0
H2207 H 0.19433 0.86991 0.29185 0.0
H2208 H 0.2372 0.82415 0.32385 0.0
H2209 H 0.20315 0.8104 0.35782 0.0
C2210 C 0.15893 0.82387 0.36394 0.0
C2211 C 0.13665 0.83245 0.36477 0.0
C2212 C 0.17893 0.83213 0.34459 0.0
C2213 C 0.13494 0.84973 0.34608 0.0
C2214 C 0.15471 0.85797 0.3268 0.0
C2215 C 0.19632 0.85699 0.30626 0.0
C2216 C 0.21832 0.84808 0.30522 0.0
C2217 C 0.17669 0.84918 0.3258 0.0
C2218 C 0.22051 0.83135 0.32413 0.0
C2219 C 0.20102 0.82345 0.3436 0.0
H2220 H 0.61006 0.83039 0.82373 0.0
H2221 H 0.68866 0.86316 0.77849 0.0
H2222 H 0.71648 0.85543 0.81013 0.0
H2223 H 0.71861 0.83912 0.85047 0.0
H2224 H 0.64024 0.80617 0.89593 0.0
H2225 H 0.61237 0.81433 0.86441 0.0
C2226 C 0.63327 0.83583 0.82079 0.0
C2227 C 0.6472 0.84737 0.79873 0.0
C2228 C 0.64926 0.83136 0.83911 0.0
C2229 C 0.67733 0.85433 0.79527 0.0
C2230 C 0.69331 0.8499 0.81337 0.0
C2231 C 0.69546 0.83379 0.85356 0.0
C2232 C 0.68157 0.822 0.87557 0.0
C2233 C 0.67952 0.83843 0.83535 0.0
C2234 C 0.65152 0.81522 0.87917 0.0
C2235 C 0.63553 0.81986 0.86114 0.0
H2236 H 0.19667 0.85501 0.8759 0.0
H2237 H 0.15034 0.90007 0.84902 0.0
H2238 H 0.13339 0.86664 0.81462 0.0
H2239 H 0.13193 0.82474 0.79192 0.0
H2240 H 0.17822 0.77972 0.81901 0.0
H2241 H 0.19494 0.81303 0.8534 0.0
C2242 C 0.18284 0.85753 0.86255 0.0
C2243 C 0.17487 0.88009 0.86509 0.0
C2244 C 0.17316 0.83824 0.84275 0.0
C2245 C 0.15686 0.88293 0.84758 0.0
C2246 C 0.14716 0.86382 0.82784 0.0
C2247 C 0.14569 0.82222 0.80532 0.0
C2248 C 0.15375 0.79971 0.8028 0.0
C2249 C 0.15523 0.84144 0.8252 0.0
C2250 C 0.1716 0.79679 0.82042 0.0
C2251 C 0.18121 0.81585 0.84016 0.0
H2252 H 0.11428 0.27709 0.84661 0.0
H2253 H 0.15473 0.36167 0.885 0.0
H2254 H 0.19079 0.38665 0.8529 0.0
H2255 H 0.21119 0.38474 0.81391 0.0
H2256 H 0.17092 0.30028 0.7754 0.0
H2257 H 0.13467 0.27523 0.80746 0.0
C2258 C 0.13096 0.30099 0.84796 0.0
C2259 C 0.13164 0.3174 0.86825 0.0
C2260 C 0.15179 0.31535 0.82937 0.0
C2261 C 0.1535 0.34839 0.86962 0.0
C2262 C 0.17423 0.36277 0.85125 0.0
C2263 C 0.19449 0.36086 0.81249 0.0
C2264 C 0.19393 0.34448 0.79222 0.0
C2265 C 0.17362 0.3465 0.83103 0.0
C2266 C 0.17203 0.31351 0.79077 0.0
C2267 C 0.15121 0.29911 0.80912 0.0
H2268 H 0.80957 0.65399 0.62169 0.0
H2269 H 0.84489 0.74085 0.65618 0.0
H2270 H 0.85863 0.72178 0.69067 0.0
H2271 H 0.86008 0.68045 0.71137 0.0
H2272 H 0.82471 0.59344 0.67719 0.0
H2273 H 0.81158 0.61265 0.64232 0.0
C2274 C 0.82029 0.66876 0.63673 0.0
C2275 C 0.82608 0.69876 0.63632 0.0
C2276 C 0.82814 0.65766 0.65662 0.0
C2277 C 0.84009 0.71762 0.65598 0.0
C2278 C 0.84798 0.70676 0.67576 0.0
C2279 C 0.8496 0.66568 0.69628 0.0
C2280 C 0.84342 0.63557 0.69692 0.0
C2281 C 0.84203 0.67681 0.67631 0.0
C2282 C 0.82973 0.61674 0.6772 0.0
C2283 C 0.82219 0.62769 0.65723 0.0
H2284 H 0.31707 0.18276 0.71046 0.0
H2285 H 0.40688 0.22757 0.68006 0.0
H2286 H 0.38821 0.19367 0.64592 0.0
H2287 H 0.3465 0.15117 0.62472 0.0
H2288 H 0.25664 0.10663 0.65504 0.0
H2289 H 0.27528 0.14064 0.68909 0.0
C2290 C 0.3326 0.18519 0.69637 0.0
C2291 C 0.36336 0.20775 0.69789 0.0
C2292 C 0.32171 0.16565 0.67673 0.0
C2293 C 0.38309 0.21046 0.67941 0.0
C2294 C 0.37244 0.19106 0.65985 0.0
C2295 C 0.33096 0.14885 0.63877 0.0
C2296 C 0.3002 0.12626 0.63729 0.0
C2297 C 0.34181 0.16854 0.65833 0.0
C2298 C 0.28042 0.12376 0.65566 0.0
C2299 C 0.29106 0.14321 0.67518 0.0
H2300 H 0.88899 0.16551 0.65559 0.0
H2301 H 0.84378 0.20103 0.61287 0.0
H2302 H 0.80614 0.18871 0.64401 0.0
H2303 H 0.78585 0.16772 0.68334 0.0
H2304 H 0.83091 0.13196 0.72596 0.0
H2305 H 0.86873 0.14458 0.69491 0.0
C2306 C 0.87091 0.17057 0.65305 0.0
C2307 C 0.86932 0.18424 0.63187 0.0
C2308 C 0.84926 0.1634 0.67105 0.0
C2309 C 0.84567 0.19059 0.62897 0.0
C2310 C 0.82409 0.18354 0.64679 0.0
C2311 C 0.80396 0.16272 0.68588 0.0
C2312 C 0.80544 0.14885 0.70699 0.0
C2313 C 0.82565 0.16995 0.6679 0.0
C2314 C 0.82909 0.14253 0.7099 0.0
C2315 C 0.85079 0.14975 0.69214 0.0
H2316 H 0.0099 0.5248 0.4521 0.0
H2317 H 0.92108 0.47998 0.48427 0.0
H2318 H 0.94097 0.46619 0.51829 0.0
H2319 H 0.98364 0.46764 0.53935 0.0
H2320 H 0.07248 0.51224 0.50725 0.0
H2321 H 0.05246 0.52531 0.47285 0.0
C2322 C 0.99486 0.51196 0.46652 0.0
C2323 C 0.96406 0.50356 0.46561 0.0
C2324 C 0.00644 0.5041 0.48611 0.0
C2325 C 0.9449 0.4868 0.48445 0.0
C2326 C 0.95625 0.47892 0.50397 0.0
C2327 C 0.99865 0.48016 0.52482 0.0
C2328 C 0.02953 0.48896 0.52594 0.0
C2329 C 0.987 0.48758 0.50505 0.0
C2330 C 0.04861 0.50516 0.5069 0.0
C2331 C 0.03718 0.51267 0.48719 0.0
H2332 H 0.5096 0.44821 0.48463 0.0
H2333 H 0.47329 0.4944 0.44402 0.0
H2334 H 0.48193 0.52843 0.47726 0.0
H2335 H 0.49955 0.54498 0.51783 0.0
H2336 H 0.53601 0.49895 0.55845 0.0
H2337 H 0.5274 0.46489 0.52521 0.0
C2338 C 0.50364 0.46577 0.48299 0.0
C2339 C 0.49079 0.46869 0.46181 0.0
C2340 C 0.50858 0.48523 0.5022 0.0
C2341 C 0.48318 0.49157 0.46008 0.0
C2342 C 0.48808 0.51104 0.4791 0.0
C2343 C 0.50556 0.52745 0.51948 0.0
C2344 C 0.51841 0.52456 0.54066 0.0
C2345 C 0.50068 0.50803 0.50026 0.0
C2346 C 0.52612 0.50175 0.54238 0.0
C2347 C 0.52122 0.48226 0.52336 0.0
H2348 H 0.52009 0.98394 0.46417 0.0
H2349 H 0.56705 0.07198 0.49745 0.0
H2350 H 0.5332 0.05228 0.53153 0.0
H2351 H 0.48994 0.01035 0.55173 0.0
H2352 H 0.44309 0.92219 0.51868 0.0
H2353 H 0.47732 0.9417 0.48475 0.0
C2354 C 0.52301 0.99882 0.4789 0.0
C2355 C 0.54611 0.02941 0.4782 0.0
C2356 C 0.50346 0.98736 0.4985 0.0
C2357 C 0.5495 0.04833 0.49747 0.0
C2358 C 0.53012 0.03711 0.51699 0.0
C2359 C 0.48717 0.99537 0.53711 0.0
C2360 C 0.46387 0.96488 0.53774 0.0
C2361 C 0.50696 0.0067 0.51766 0.0
C2362 C 0.4608 0.94577 0.51869 0.0
C2363 C 0.48036 0.95691 0.49924 0.0
H2364 H 0.47264 0.99097 0.96179 0.0
H2365 H 0.52389 0.07923 0.99419 0.0
H2366 H 0.53613 0.05699 0.02756 0.0
H2367 H 0.53296 0.0127 0.04733 0.0
H2368 H 0.48185 0.92445 0.0149 0.0
H2369 H 0.4688 0.94654 0.98188 0.0
C2370 C 0.48644 0.00537 0.97616 0.0
C2371 C 0.49732 0.03674 0.97543 0.0
C2372 C 0.49343 0.99245 0.99534 0.0
C2373 C 0.51519 0.05501 0.99424 0.0
C2374 C 0.52222 0.04232 0.01337 0.0
C2375 C 0.5189 0.99825 0.03308 0.0
C2376 C 0.50849 0.96697 0.03361 0.0
C2377 C 0.51155 0.01109 0.01407 0.0
C2378 C 0.49022 0.94861 0.01498 0.0
C2379 C 0.48276 0.96122 0.99604 0.0
H2380 H 0.01458 0.48368 0.95251 0.0
H2381 H 0.92626 0.43688 0.9854 0.0
H2382 H 0.9459 0.47026 0.01974 0.0
H2383 H 0.98805 0.51296 0.04043 0.0
H2384 H 0.07627 0.55981 0.00737 0.0
H2385 H 0.05672 0.52614 0.97324 0.0
C2386 C 0.9996 0.48071 0.96719 0.0
C2387 C 0.96899 0.45774 0.96632 0.0
C2388 C 0.01101 0.50002 0.98692 0.0
C2389 C 0.94993 0.45434 0.98554 0.0
C2390 C 0.96114 0.47343 0.00522 0.0
C2391 C 0.00303 0.51581 0.02578 0.0
C2392 C 0.03359 0.53896 0.02652 0.0
C2393 C 0.99163 0.49638 0.00611 0.0
C2394 C 0.05264 0.54224 0.00733 0.0
C2395 C 0.04148 0.52298 0.98776 0.0
H2396 H 0.5005 0.53263 0.95454 0.0
H2397 H 0.54596 0.48802 0.98412 0.0
H2398 H 0.51294 0.47297 0.0186 0.0
H2399 H 0.47173 0.47286 0.04072 0.0
H2400 H 0.42584 0.51725 0.01168 0.0
H2401 H 0.4585 0.53199 0.97672 0.0
C2402 C 0.50313 0.51956 0.9685 0.0
C2403 C 0.52577 0.51157 0.96669 0.0
C2404 C 0.48404 0.51096 0.98844 0.0
C2405 C 0.52881 0.49458 0.98498 0.0
C2406 C 0.50992 0.48594 0.00477 0.0
C2407 C 0.46877 0.48571 0.02675 0.0
C2408 C 0.44635 0.49391 0.02885 0.0
C2409 C 0.48756 0.49409 0.00673 0.0
C2410 C 0.44293 0.51063 0.01054 0.0
C2411 C 0.46159 0.51907 0.99053 0.0
H2412 H 0.18682 0.99725 0.0016 0.0
H2413 H 0.24251 0.0449 0.94142 0.0
H2414 H 0.25543 0.09342 0.95957 0.0
H2415 H 0.25127 0.12246 0.99282 0.0
H2416 H 0.19229 0.07465 0.05146 0.0
H2417 H 0.18027 0.02618 0.03373 0.0
C2418 C 0.20179 0.01829 0.99251 0.0
C2419 C 0.21385 0.01754 0.9703 0.0
C2420 C 0.20852 0.0461 0.00278 0.0
C2421 C 0.23287 0.04491 0.95852 0.0
C2422 C 0.24034 0.07267 0.96891 0.0
C2423 C 0.23578 0.10139 0.00165 0.0
C2424 C 0.22281 0.1021 0.02344 0.0
C2425 C 0.22836 0.07356 0.99106 0.0
C2426 C 0.20249 0.07468 0.03462 0.0
C2427 C 0.19567 0.04695 0.02453 0.0
H2428 H 0.97211 0.19886 0.94812 0.0
H2429 H 0.02975 0.19997 0.00433 0.0
H2430 H 0.98544 0.16265 0.0264 0.0
H2431 H 0.93022 0.13118 0.03053 0.0
H2432 H 0.8722 0.13282 0.97581 0.0
H2433 H 0.91661 0.1675 0.95241 0.0
C2434 C 0.97494 0.19066 0.96508 0.0
C2435 C 0.00419 0.20206 0.97452 0.0
C2436 C 0.94926 0.16982 0.97802 0.0
C2437 C 0.00748 0.19159 0.9967 0.0
C2438 C 0.98216 0.17025 0.00934 0.0
C2439 C 0.92729 0.13894 0.0134 0.0
C2440 C 0.89794 0.12931 0.00488 0.0
C2441 C 0.95292 0.15944 1.0003 0.0
C2442 C 0.89455 0.13993 0.98279 0.0
C2443 C 0.91994 0.15973 0.96938 0.0
H2444 H 0.87304 0.75907 0.97861 0.0
H2445 H 0.88445 0.80898 0.04313 0.0
H2446 H 0.84931 0.82473 0.02876 0.0
H2447 H 0.81429 0.82327 0.99828 0.0
H2448 H 0.80522 0.77591 0.93271 0.0
H2449 H 0.84063 0.76053 0.94695 0.0
C2450 C 0.86782 0.77342 0.98947 0.0
C2451 C 0.88112 0.78267 0.01195 0.0
C2452 C 0.84807 0.78294 0.98089 0.0
C2453 C 0.87452 0.80159 0.02574 0.0
C2454 C 0.85438 0.81057 0.01756 0.0
C2455 C 0.82017 0.80971 0.98705 0.0
C2456 C 0.80691 0.80061 0.96452 0.0
C2457 C 0.84089 0.80125 0.99522 0.0
C2458 C 0.81508 0.78331 0.95011 0.0
C2459 C 0.83525 0.77437 0.95828 0.0
H2460 H 0.99568 0.18194 0.5057 0.0
H2461 H 0.03858 0.23571 0.56784 0.0
H2462 H 0.08842 0.2509 0.55125 0.0
H2463 H 0.12003 0.25023 0.51844 0.0
H2464 H 0.07708 0.19387 0.45752 0.0
H2465 H 0.02716 0.17847 0.47421 0.0
C2466 C 0.01593 0.19686 0.51567 0.0
C2467 C 0.01335 0.2078 0.53793 0.0
C2468 C 0.04456 0.20519 0.50617 0.0
C2469 C 0.03984 0.22686 0.55071 0.0
C2470 C 0.0684 0.23569 0.54118 0.0
C2471 C 0.09971 0.23457 0.50887 0.0
C2472 C 0.1022 0.22339 0.48672 0.0
C2473 C 0.07106 0.22525 0.51882 0.0
C2474 C 0.07573 0.20277 0.47462 0.0
C2475 C 0.04718 0.19399 0.48413 0.0
H2476 H 0.82473 0.81279 0.50108 0.0
H2477 H 0.77204 0.80663 0.56294 0.0
H2478 H 0.75962 0.84272 0.54565 0.0
H2479 H 0.76254 0.87506 0.51275 0.0
H2480 H 0.81698 0.8838 0.45151 0.0
H2481 H 0.83007 0.84781 0.46883 0.0
C2482 C 0.81056 0.81939 0.51075 0.0
C2483 C 0.79917 0.80687 0.53319 0.0
C2484 C 0.80383 0.84061 0.50085 0.0
C2485 C 0.78115 0.81593 0.54566 0.0
C2486 C 0.77395 0.83653 0.53577 0.0
C2487 C 0.77732 0.86913 0.5032 0.0
C2488 C 0.78861 0.88182 0.48085 0.0
C2489 C 0.785 0.84885 0.51336 0.0
C2490 C 0.80807 0.87431 0.4688 0.0
C2491 C 0.81545 0.85367 0.47865 0.0
H2492 H 0.19401 0.9648 0.55371 0.0
H2493 H 0.2004 0.02402 0.49683 0.0
H2494 H 0.16319 0.98056 0.47393 0.0
H2495 H 0.12994 0.92557 0.46949 0.0
H2496 H 0.12694 0.86576 0.52463 0.0
H2497 H 0.16162 0.9094 0.54876 0.0
C2498 C 0.18702 0.96811 0.53637 0.0
C2499 C 0.19976 0.99753 0.527 0.0
C2500 C 0.16632 0.94288 0.52296 0.0
C2501 C 0.19093 0.00155 0.50437 0.0
C2502 C 0.16965 0.97673 0.49128 0.0
C2503 C 0.13673 0.92213 0.48686 0.0
C2504 C 0.12574 0.89252 0.49535 0.0
C2505 C 0.15736 0.94727 0.50031 0.0
C2506 C 0.13512 0.88836 0.51772 0.0
C2507 C 0.15491 0.9133 0.53152 0.0
H2508 H 0.76877 0.89264 0.02265 0.0
H2509 H 0.80872 0.93254 0.95532 0.0
H2510 H 0.8243 0.983 0.97091 0.0
H2511 H 0.8246 0.01561 0.00321 0.0
H2512 H 0.78783 0.97615 0.07139 0.0
H2513 H 0.77337 0.92589 0.05609 0.0
C2514 C 0.78102 0.91244 0.01148 0.0
C2515 C 0.78736 0.90888 0.98783 0.0
C2516 C 0.79054 0.94148 0.02072 0.0
C2517 C 0.8036 0.93471 0.9736 0.0
C2518 C 0.81245 0.96356 0.98248 0.0
C2519 C 0.81367 0.99604 0.01477 0.0
C2520 C 0.80711 0.99966 0.03837 0.0
C2521 C 0.80579 0.9672 0.00595 0.0
C2522 C 0.79323 0.97409 0.05319 0.0
C2523 C 0.78479 0.94527 0.04441 0.0
H2524 H 0.08358 0.88842 0.97405 0.0
H2525 H 0.14081 0.87556 0.02314 0.0
H2526 H 0.09622 0.83904 0.04551 0.0
H2527 H 0.04054 0.80892 0.05011 0.0
H2528 H 0.98365 0.81909 0.99894 0.0
H2529 H 0.02834 0.85857 0.97859 0.0
C2530 C 0.08631 0.87783 0.98976 0.0
C2531 C 0.11548 0.88479 0.99695 0.0
C2532 C 0.06054 0.85629 0.00219 0.0
C2533 C 0.11859 0.87054 0.01718 0.0
C2534 C 0.0931 0.84968 0.03001 0.0
C2535 C 0.03802 0.8201 0.03469 0.0
C2536 C 0.00887 0.81123 0.0261 0.0
C2537 C 0.06391 0.84214 0.02257 0.0
C2538 C 0.00588 0.82551 0.00586 0.0
C2539 C 0.03141 0.84806 0.9942 0.0
H2540 H 0.10169 0.19519 0.00677 0.0
H2541 H 0.17351 0.27936 0.97878 0.0
H2542 H 0.21138 0.27017 0.99753 0.0
H2543 H 0.22391 0.23875 0.02271 0.0
H2544 H 0.15222 0.15759 0.05451 0.0
H2545 H 0.11426 0.16487 0.03356 0.0
C2546 C 0.12567 0.21133 0.00472 0.0
C2547 C 0.13499 0.23772 0.99132 0.0
C2548 C 0.14719 0.20645 0.0163 0.0
C2549 C 0.16598 0.25887 0.98905 0.0
C2550 C 0.18757 0.25362 0.99973 0.0
C2551 C 0.19995 0.22263 0.02488 0.0
C2552 C 0.19067 0.19756 0.03983 0.0
C2553 C 0.17842 0.22758 0.01349 0.0
C2554 C 0.15968 0.17704 0.04301 0.0
C2555 C 0.13807 0.18118 0.03103 0.0
H2556 H 0.88827 0.76031 0.48324 0.0
H2557 H 0.9319 0.81013 0.54668 0.0
H2558 H 0.98156 0.82409 0.53003 0.0
H2559 H 0.01251 0.82099 0.49772 0.0
H2560 H 0.96889 0.77437 0.43317 0.0
H2561 H 0.91941 0.7605 0.44985 0.0
C2562 C 0.90869 0.77428 0.49336 0.0
C2563 C 0.90648 0.784 0.51619 0.0
C2564 C 0.93716 0.78281 0.48346 0.0
C2565 C 0.93308 0.80243 0.52903 0.0
C2566 C 0.96145 0.81034 0.51955 0.0
C2567 C 0.99215 0.80789 0.48731 0.0
C2568 C 0.99435 0.79856 0.46431 0.0
C2569 C 0.96376 0.8005 0.49684 0.0
C2570 C 0.96783 0.78193 0.45089 0.0
C2571 C 0.9395 0.77387 0.46044 0.0
H2572 H 0.23767 0.1987 0.4497 0.0
H2573 H 0.17264 0.19142 0.50201 0.0
H2574 H 0.17964 0.1541 0.52391 0.0
H2575 H 0.2052 0.12456 0.52884 0.0
H2576 H 0.27335 0.13474 0.47849 0.0
H2577 H 0.26429 0.16989 0.45522 0.0
C2578 C 0.22489 0.18871 0.46579 0.0
C2579 C 0.20454 0.19764 0.47417 0.0
C2580 C 0.22971 0.16792 0.47871 0.0
C2581 C 0.18847 0.18493 0.49524 0.0
C2582 C 0.19245 0.16359 0.50776 0.0
C2583 C 0.21794 0.13434 0.5127 0.0
C2584 C 0.23977 0.12693 0.50531 0.0
C2585 C 0.21315 0.15508 0.49976 0.0
C2586 C 0.25645 0.14014 0.48456 0.0
C2587 C 0.25123 0.16018 0.47123 0.0
H2588 H 0.81803 0.99408 0.49616 0.0
H2589 H 0.8124 0.03926 0.4334 0.0
H2590 H 0.84745 0.08832 0.45076 0.0
H2591 H 0.8782 0.11865 0.48431 0.0
H2592 H 0.88607 0.07387 0.54634 0.0
H2593 H 0.85173 0.02445 0.5287 0.0
C2594 C 0.82458 0.01465 0.48623 0.0
C2595 C 0.81237 0.01291 0.46356 0.0
C2596 C 0.84508 0.0429 0.49621 0.0
C2597 C 0.82141 0.03982 0.45085 0.0
C2598 C 0.8414 0.06796 0.4608 0.0
C2599 C 0.87245 0.09805 0.49393 0.0
C2600 C 0.88443 0.09987 0.51665 0.0
C2601 C 0.8531 0.06978 0.48355 0.0
C2602 C 0.87715 0.07304 0.5288 0.0
C2603 C 0.85745 0.04479 0.51875 0.0
H2604 H 0.86022 0.41026 0.36119 0.0
H2605 H 0.92273 0.46681 0.30708 0.0
H2606 H 0.91297 0.42179 0.28452 0.0
H2607 H 0.88845 0.36609 0.28115 0.0
H2608 H 0.82998 0.31003 0.33731 0.0
H2609 H 0.83605 0.35492 0.35798 0.0
C2610 C 0.87148 0.41272 0.34435 0.0
C2611 C 0.89205 0.44181 0.33575 0.0
C2612 C 0.86645 0.38675 0.33185 0.0
C2613 C 0.90684 0.44464 0.31409 0.0
C2614 C 0.90123 0.41892 0.30117 0.0
C2615 C 0.87674 0.3638 0.29774 0.0
C2616 C 0.85858 0.33488 0.30764 0.0
C2617 C 0.8813 0.38983 0.30998 0.0
C2618 C 0.84401 0.33212 0.32937 0.0
C2619 C 0.84752 0.35775 0.3412 0.0
H2620 H 0.55424 0.46093 0.30906 0.0
H2621 H 0.59996 0.45662 0.37183 0.0
H2622 H 0.64902 0.49082 0.35375 0.0
H2623 H 0.67894 0.52338 0.32072 0.0
H2624 H 0.63385 0.5256 0.25688 0.0
H2625 H 0.58465 0.49053 0.27458 0.0
C2626 C 0.57499 0.46746 0.31871 0.0
C2627 C 0.57347 0.45646 0.34183 0.0
C2628 C 0.60323 0.48667 0.30799 0.0
C2629 C 0.60051 0.46474 0.35402 0.0
C2630 C 0.62858 0.48435 0.34371 0.0
C2631 C 0.65835 0.51603 0.3106 0.0
C2632 C 0.66008 0.5273 0.28756 0.0
C2633 C 0.63021 0.49563 0.32079 0.0
C2634 C 0.63321 0.51724 0.2746 0.0
C2635 C 0.60504 0.49731 0.28478 0.0
H2636 H 0.53696 0.08758 0.32575 0.0
H2637 H 0.54416 0.14188 0.38663 0.0
H2638 H 0.51138 0.15781 0.3674 0.0
H2639 H 0.47946 0.15486 0.33367 0.0
H2640 H 0.4752 0.10285 0.27194 0.0
H2641 H 0.50835 0.0877 0.29104 0.0
C2642 C 0.53131 0.1029 0.33478 0.0
C2643 C 0.54253 0.11331 0.35761 0.0
C2644 C 0.51312 0.11243 0.32345 0.0
C2645 C 0.53564 0.13358 0.36902 0.0
C2646 C 0.51691 0.14263 0.35806 0.0
C2647 C 0.48594 0.14035 0.32437 0.0
C2648 C 0.47469 0.12981 0.3015 0.0
C2649 C 0.50535 0.13201 0.33533 0.0
C2650 C 0.48357 0.11133 0.28953 0.0
C2651 C 0.50241 0.10252 0.30047 0.0
H2652 H 0.64757 0.51712 0.83382 0.0
H2653 H 0.69069 0.57337 0.89483 0.0
H2654 H 0.74041 0.58773 0.87867 0.0
H2655 H 0.77184 0.58498 0.84705 0.0
H2656 H 0.72938 0.52625 0.78721 0.0
H2657 H 0.67926 0.51215 0.80302 0.0
C2658 C 0.66788 0.53248 0.84354 0.0
C2659 C 0.66544 0.54424 0.86543 0.0
C2660 C 0.69651 0.54023 0.83435 0.0
C2661 C 0.69192 0.56387 0.87799 0.0
C2662 C 0.7204 0.5722 0.86874 0.0
C2663 C 0.75158 0.5691 0.83748 0.0
C2664 C 0.7542 0.55682 0.81596 0.0
C2665 C 0.72297 0.56063 0.84691 0.0
C2666 C 0.72785 0.53595 0.80387 0.0
C2667 C 0.69923 0.52795 0.81286 0.0
H2668 H 0.47828 0.23557 0.83967 0.0
H2669 H 0.39554 0.16384 0.80976 0.0
H2670 H 0.40584 0.12591 0.8269 0.0
H2671 H 0.43771 0.11315 0.85127 0.0
H2672 H 0.51742 0.18438 0.88496 0.0
H2673 H 0.50915 0.22263 0.86556 0.0
C2674 C 0.46267 0.21161 0.83685 0.0
C2675 C 0.43635 0.20239 0.82338 0.0
C2676 C 0.46819 0.18995 0.84749 0.0
C2677 C 0.41594 0.17136 0.82012 0.0
C2678 C 0.42184 0.14971 0.82987 0.0
C2679 C 0.45334 0.13707 0.85417 0.0
C2680 C 0.47827 0.1461 0.86924 0.0
C2681 C 0.44779 0.15874 0.84368 0.0
C2682 C 0.49809 0.17706 0.87336 0.0
C2683 C 0.49337 0.19885 0.86227 0.0
H2684 H 0.85693 0.30061 0.885 0.0
H2685 H 0.86116 0.35561 0.82555 0.0
H2686 H 0.8246 0.31027 0.80406 0.0
H2687 H 0.79303 0.25469 0.80151 0.0
H2688 H 0.79208 0.19979 0.85991 0.0
H2689 H 0.82563 0.24532 0.88247 0.0
C2690 C 0.84963 0.3027 0.86744 0.0
C2691 C 0.86167 0.33143 0.85692 0.0
C2692 C 0.82927 0.27651 0.85494 0.0
C2693 C 0.85229 0.33372 0.83401 0.0
C2694 C 0.83138 0.30782 0.82172 0.0
C2695 C 0.79998 0.25276 0.81926 0.0
C2696 C 0.79005 0.22397 0.82907 0.0
C2697 C 0.81995 0.27905 0.8319 0.0
C2698 C 0.79953 0.22174 0.85195 0.0
C2699 C 0.81868 0.24775 0.86487 0.0
H2700 H 0.42795 0.22028 0.34916 0.0
H2701 H 0.48041 0.26153 0.28615 0.0
H2702 H 0.49553 0.31189 0.30179 0.0
H2703 H 0.49262 0.34415 0.33301 0.0
H2704 H 0.44276 0.30269 0.39707 0.0
H2705 H 0.42809 0.25261 0.3815 0.0
C2706 C 0.44274 0.24034 0.3389 0.0
C2707 C 0.45287 0.23726 0.31649 0.0
C2708 C 0.45185 0.26919 0.34821 0.0
C2709 C 0.47237 0.26337 0.30349 0.0
C2710 C 0.48095 0.29215 0.31239 0.0
C2711 C 0.47866 0.32414 0.34358 0.0
C2712 C 0.46865 0.32719 0.3661 0.0
C2713 C 0.47067 0.29534 0.33467 0.0
C2714 C 0.45087 0.30106 0.37971 0.0
C2715 C 0.44233 0.27235 0.37079 0.0
H2716 H 0.70137 0.1395 0.39285 0.0
H2717 H 0.64257 0.14073 0.33862 0.0
H2718 H 0.68654 0.17695 0.31565 0.0
H2719 H 0.74166 0.207 0.31035 0.0
H2720 H 0.80053 0.20307 0.36321 0.0
H2721 H 0.75661 0.16914 0.38732 0.0
C2722 C 0.69822 0.14793 0.37611 0.0
C2723 C 0.6688 0.13757 0.36748 0.0
C2724 C 0.7236 0.16811 0.36269 0.0
C2725 C 0.66502 0.14832 0.3456 0.0
C2726 C 0.69013 0.16903 0.33246 0.0
C2727 C 0.74486 0.19886 0.32722 0.0
C2728 C 0.77426 0.20759 0.33504 0.0
C2729 C 0.71952 0.17887 0.34073 0.0
C2730 C 0.77809 0.19657 0.35678 0.0
C2731 C 0.753 0.17724 0.3706 0.0
H2732 H 0.85596 0.51653 0.3312 0.0
H2733 H 0.85667 0.56238 0.39561 0.0
H2734 H 0.82158 0.57631 0.37816 0.0
H2735 H 0.79173 0.57671 0.34412 0.0
H2736 H 0.78808 0.52774 0.28076 0.0
H2737 H 0.82316 0.51374 0.29822 0.0
C2738 C 0.84834 0.5295 0.3414 0.0
C2739 C 0.85905 0.5386 0.36458 0.0
C2740 C 0.82767 0.53692 0.33142 0.0
C2741 C 0.84869 0.55503 0.37775 0.0
C2742 C 0.82871 0.56311 0.36775 0.0
C2743 C 0.79859 0.56291 0.3342 0.0
C2744 C 0.78756 0.55344 0.31116 0.0
C2745 C 0.81824 0.55438 0.34455 0.0
C2746 C 0.79625 0.53524 0.29857 0.0
C2747 C 0.81638 0.52731 0.3085 0.0
H2748 H 0.55463 0.08516 0.82051 0.0
H2749 H 0.5999 0.14546 0.87904 0.0
H2750 H 0.64906 0.15807 0.86256 0.0
H2751 H 0.6794 0.15122 0.83198 0.0
H2752 H 0.63478 0.09404 0.77181 0.0
H2753 H 0.58535 0.08119 0.78826 0.0
C2754 C 0.57529 0.1011 0.82957 0.0
C2755 C 0.5736 0.11418 0.85104 0.0
C2756 C 0.60365 0.10887 0.81967 0.0
C2757 C 0.60055 0.13508 0.86248 0.0
C2758 C 0.62872 0.14228 0.85309 0.0
C2759 C 0.65884 0.13604 0.82244 0.0
C2760 C 0.66074 0.12347 0.8008 0.0
C2761 C 0.63055 0.12921 0.83178 0.0
C2762 C 0.63394 0.10413 0.78847 0.0
C2763 C 0.60565 0.09665 0.79792 0.0
H2764 H 0.86475 0.46218 0.86555 0.0
H2765 H 0.92445 0.46578 0.80981 0.0
H2766 H 0.91307 0.49927 0.78679 0.0
H2767 H 0.88736 0.5285 0.7829 0.0
H2768 H 0.83059 0.5285 0.8396 0.0
H2769 H 0.83953 0.49257 0.86187 0.0
C2770 C 0.87508 0.47022 0.8483 0.0
C2771 C 0.89531 0.46154 0.83933 0.0
C2772 C 0.86902 0.4901 0.83539 0.0
C2773 C 0.9089 0.47232 0.81712 0.0
C2774 C 0.90236 0.49139 0.80392 0.0
C2775 C 0.87673 0.52046 0.80004 0.0
C2776 C 0.85821 0.53097 0.80954 0.0
C2777 C 0.88261 0.50055 0.81294 0.0
C2778 C 0.84499 0.52073 0.83194 0.0
C2779 C 0.85007 0.5002 0.84466 0.0
H2780 H 0.53277 0.40959 0.86577 0.0
H2781 H 0.52992 0.46529 0.80957 0.0
H2782 H 0.49689 0.42009 0.78645 0.0
H2783 H 0.46774 0.36471 0.78256 0.0
H2784 H 0.46731 0.30873 0.83989 0.0
H2785 H 0.50268 0.35394 0.86214 0.0
C2786 C 0.52504 0.41178 0.8484 0.0
C2787 C 0.53387 0.44074 0.83935 0.0
C2788 C 0.5054 0.38563 0.83542 0.0
C2789 C 0.52336 0.44325 0.81696 0.0
C2790 C 0.50452 0.41742 0.80371 0.0
C2791 C 0.47557 0.3624 0.79984 0.0
C2792 C 0.46503 0.33339 0.80949 0.0
C2793 C 0.49526 0.38849 0.8128 0.0
C2794 C 0.47504 0.3308 0.83208 0.0
C2795 C 0.49528 0.35664 0.84481 0.0
H2796 H 0.51372 0.64774 0.66975 0.0
H2797 H 0.56061 0.68911 0.60462 0.0
H2798 H 0.574 0.73899 0.6198 0.0
H2799 H 0.57416 0.77126 0.65211 0.0
H2800 H 0.52478 0.73017 0.71634 0.0
H2801 H 0.51056 0.67986 0.701 0.0
C2802 C 0.52672 0.66767 0.65885 0.0
C2803 C 0.53631 0.66466 0.63615 0.0
C2804 C 0.53401 0.69637 0.66756 0.0
C2805 C 0.55286 0.69069 0.62213 0.0
C2806 C 0.56066 0.7193 0.63083 0.0
C2807 C 0.56021 0.75125 0.66269 0.0
C2808 C 0.55073 0.75435 0.68536 0.0
C2809 C 0.55165 0.72244 0.6536 0.0
C2810 C 0.53231 0.72829 0.6988 0.0
C2811 C 0.52426 0.69956 0.69008 0.0
H2812 H 0.25647 0.79786 0.70263 0.0
H2813 H 0.20119 0.79578 0.64419 0.0
H2814 H 0.24658 0.82875 0.62116 0.0
H2815 H 0.30204 0.85961 0.61811 0.0
H2816 H 0.35725 0.8656 0.67785 0.0
H2817 H 0.31201 0.82965 0.69987 0.0
C2818 C 0.25445 0.8045 0.6848 0.0
C2819 C 0.22562 0.79435 0.67506 0.0
C2820 C 0.28065 0.82421 0.67192 0.0
C2821 C 0.22321 0.80342 0.65207 0.0
C2822 C 0.24913 0.82222 0.63888 0.0
C2823 C 0.30411 0.85279 0.63587 0.0
C2824 C 0.33284 0.86502 0.64633 0.0
C2825 C 0.27796 0.83293 0.64868 0.0
C2826 C 0.33528 0.85646 0.66948 0.0
C2827 C 0.30946 0.83593 0.68206 0.0
H2828 H 0.20146 0.46157 0.69346 0.0
H2829 H 0.19409 0.39919 0.63868 0.0
H2830 H 0.16255 0.41279 0.6152 0.0
H2831 H 0.13594 0.4413 0.61065 0.0
H2832 H 0.14 0.50092 0.66654 0.0
H2833 H 0.17411 0.4897 0.68909 0.0
C2834 C 0.19305 0.45109 0.67633 0.0
C2835 C 0.20014 0.42947 0.6678 0.0
C2836 C 0.17437 0.45855 0.66312 0.0
C2837 C 0.18883 0.4158 0.64569 0.0
C2838 C 0.17086 0.42362 0.63222 0.0
C2839 C 0.14455 0.45209 0.62765 0.0
C2840 C 0.13565 0.47207 0.63684 0.0
C2841 C 0.16338 0.44485 0.6408 0.0
C2842 C 0.14656 0.48546 0.65909 0.0
C2843 C 0.16602 0.47903 0.67199 0.0
H2844 H 0.3747 0.89217 0.22034 0.0
H2845 H 0.31529 0.83269 0.16599 0.0
H2846 H 0.35888 0.83862 0.1435 0.0
H2847 H 0.41398 0.86204 0.13854 0.0
H2848 H 0.47363 0.9246 0.19131 0.0
H2849 H 0.42997 0.91612 0.21513 0.0
C2850 C 0.37132 0.88033 0.20367 0.0
C2851 C 0.3418 0.86196 0.19489 0.0
C2852 C 0.39656 0.88449 0.1905 0.0
C2853 C 0.33779 0.84707 0.1731 0.0
C2854 C 0.3627 0.85041 0.16023 0.0
C2855 C 0.4174 0.87362 0.15535 0.0
C2856 C 0.44697 0.89378 0.16322 0.0
C2857 C 0.3922 0.86925 0.16865 0.0
C2858 C 0.45107 0.90898 0.18486 0.0
C2859 C 0.42612 0.90413 0.1985 0.0
H2860 H 0.15256 0.47714 0.17329 0.0
H2861 H 0.10743 0.48027 0.23698 0.0
H2862 H 0.09394 0.51488 0.21787 0.0
H2863 H 0.09356 0.54303 0.18253 0.0
H2864 H 0.14213 0.5431 0.11996 0.0
H2865 H 0.15569 0.50851 0.13908 0.0
C2866 C 0.13989 0.48554 0.183 0.0
C2867 C 0.13081 0.47599 0.20645 0.0
C2868 C 0.13273 0.5059 0.17205 0.0
C2869 C 0.11476 0.48735 0.21894 0.0
C2870 C 0.10691 0.50703 0.20799 0.0
C2871 C 0.10715 0.53547 0.17315 0.0
C2872 C 0.11662 0.54533 0.14982 0.0
C2873 C 0.11552 0.51623 0.18448 0.0
C2874 C 0.13461 0.5358 0.13794 0.0
C2875 C 0.1423 0.51598 0.14884 0.0
H2876 H 0.4905 0.65404 0.21064 0.0
H2877 H 0.57092 0.65424 0.18691 0.0
H2878 H 0.54008 0.60691 0.16538 0.0
H2879 H 0.49013 0.56566 0.15283 0.0
H2880 H 0.4098 0.56797 0.17308 0.0
H2881 H 0.44043 0.61394 0.19635 0.0
C2882 C 0.5011 0.64356 0.20076 0.0
C2883 C 0.5328 0.65737 0.20033 0.0
C2884 C 0.48322 0.61684 0.18778 0.0
C2885 C 0.5465 0.64398 0.18731 0.0
C2886 C 0.5289 0.61691 0.17507 0.0
C2887 C 0.47941 0.57625 0.16242 0.0
C2888 C 0.44783 0.56346 0.16143 0.0
C2889 C 0.49724 0.60317 0.17511 0.0
C2890 C 0.43415 0.57754 0.17359 0.0
C2891 C 0.45162 0.60375 0.18692 0.0
H2892 H 0.14901 0.68249 0.66697 0.0
H2893 H 0.09285 0.63653 0.72747 0.0
H2894 H 0.07895 0.58761 0.70992 0.0
H2895 H 0.08195 0.55769 0.67718 0.0
H2896 H 0.1405 0.603 0.61774 0.0
H2897 H 0.1543 0.65232 0.63505 0.0
C2898 C 0.13377 0.66174 0.67629 0.0
C2899 C 0.12188 0.66317 0.69843 0.0
C2900 C 0.12627 0.63357 0.66628 0.0
C2901 C 0.10243 0.63611 0.71045 0.0
C2902 C 0.09436 0.60808 0.7004 0.0
C2903 C 0.09772 0.57839 0.66803 0.0
C2904 C 0.11002 0.5768 0.64617 0.0
C2905 C 0.10601 0.60654 0.67829 0.0
C2906 C 0.13078 0.60372 0.63463 0.0
C2907 C 0.13861 0.63189 0.64448 0.0
H2908 H 0.3584 0.46373 0.71804 0.0
H2909 H 0.30508 0.46711 0.66023 0.0
H2910 H 0.35115 0.50413 0.63977 0.0
H2911 H 0.40675 0.53378 0.63735 0.0
H2912 H 0.46024 0.52751 0.69374 0.0
H2913 H 0.41413 0.49348 0.71561 0.0
C2914 C 0.3569 0.47289 0.70111 0.0
C2915 C 0.32837 0.46281 0.69073 0.0
C2916 C 0.38357 0.49349 0.68906 0.0
C2917 C 0.32679 0.47449 0.66858 0.0
C2918 C 0.35312 0.49564 0.65685 0.0
C2919 C 0.40831 0.52514 0.6545 0.0
C2920 C 0.4369 0.53324 0.6639 0.0
C2921 C 0.38166 0.50501 0.66676 0.0
C2922 C 0.43851 0.52155 0.68604 0.0
C2923 C 0.41215 0.50212 0.6986 0.0
H2924 H 0.53076 0.89316 0.72269 0.0
H2925 H 0.51486 0.82346 0.672 0.0
H2926 H 0.47846 0.83286 0.65107 0.0
H2927 H 0.45295 0.86237 0.64613 0.0
H2928 H 0.47182 0.93505 0.69471 0.0
H2929 H 0.50534 0.92317 0.71748 0.0
C2930 C 0.51896 0.87979 0.70726 0.0
C2931 C 0.5252 0.85747 0.69899 0.0
C2932 C 0.49886 0.88608 0.69483 0.0
C2933 C 0.51031 0.84071 0.67869 0.0
C2934 C 0.48957 0.84612 0.66671 0.0
C2935 C 0.46423 0.87549 0.66179 0.0
C2936 C 0.45982 0.89947 0.66879 0.0
C2937 C 0.48396 0.86899 0.67444 0.0
C2938 C 0.47492 0.91653 0.68894 0.0
C2939 C 0.49402 0.90969 0.70199 0.0
H2940 H 0.25585 0.46545 0.20328 0.0
H2941 H 0.19443 0.41007 0.14827 0.0
H2942 H 0.23723 0.41811 0.12348 0.0
H2943 H 0.29211 0.44013 0.11784 0.0
H2944 H 0.35318 0.49181 0.17428 0.0
H2945 H 0.31058 0.48597 0.19818 0.0
C2946 C 0.25193 0.45536 0.18579 0.0
C2947 C 0.2222 0.43744 0.17746 0.0
C2948 C 0.27655 0.45929 0.17199 0.0
C2949 C 0.21723 0.42398 0.15498 0.0
C2950 C 0.24165 0.42857 0.14083 0.0
C2951 C 0.29602 0.45016 0.13534 0.0
C2952 C 0.32564 0.46642 0.1443 0.0
C2953 C 0.27139 0.44606 0.1492 0.0
C2954 C 0.33049 0.47903 0.1671 0.0
C2955 C 0.30619 0.4758 0.18073 0.0
H2956 H 0.51449 0.85024 0.16357 0.0
H2957 H 0.56907 0.8595 0.10234 0.0
H2958 H 0.58264 0.8239 0.11946 0.0
H2959 H 0.58027 0.79129 0.15256 0.0
H2960 H 0.52218 0.77869 0.21218 0.0
H2961 H 0.50861 0.81425 0.19504 0.0
C2962 C 0.52925 0.84431 0.15399 0.0
C2963 C 0.54096 0.85757 0.13185 0.0
C2964 C 0.53635 0.82327 0.16368 0.0
C2965 C 0.55971 0.84946 0.1194 0.0
C2966 C 0.56758 0.82922 0.12922 0.0
C2967 C 0.56453 0.79628 0.16168 0.0
C2968 C 0.5524 0.78262 0.18364 0.0
C2969 C 0.55623 0.81616 0.15144 0.0
C2970 C 0.53175 0.7889 0.19521 0.0
C2971 C 0.52407 0.80931 0.18547 0.0
H2972 H 0.20602 0.78087 0.15259 0.0
H2973 H 0.21509 0.7345 0.21304 0.0
H2974 H 0.18054 0.68551 0.19482 0.0
H2975 H 0.14704 0.65591 0.16189 0.0
H2976 H 0.141 0.70266 0.10035 0.0
H2977 H 0.17521 0.75137 0.11871 0.0
C2978 C 0.20039 0.76001 0.16176 0.0
C2979 C 0.21281 0.76121 0.18418 0.0
C2980 C 0.18113 0.732 0.15095 0.0
C2981 C 0.20577 0.73409 0.19574 0.0
C2982 C 0.18599 0.7061 0.18536 0.0
C2983 C 0.1533 0.67677 0.15249 0.0
C2984 C 0.14132 0.67562 0.12984 0.0
C2985 C 0.17344 0.70478 0.16299 0.0
C2986 C 0.14994 0.70285 0.11776 0.0
C2987 C 0.16941 0.73076 0.12828 0.0
H2988 H 0.31278 0.29094 0.05413 0.0
H2989 H 0.29705 0.26963 0.12854 0.0
H2990 H 0.32559 0.32352 0.13833 0.0
H2991 H 0.35312 0.37687 0.1257 0.0
H2992 H 0.3654 0.3981 0.05119 0.0
H2993 H 0.34032 0.34418 0.04152 0.0
C2994 C 0.31578 0.29806 0.0725 0.0
C2995 C 0.30278 0.27625 0.09056 0.0
C2996 C 0.33158 0.32913 0.07799 0.0
C2997 C 0.30666 0.28594 0.11427 0.0
C2998 C 0.32303 0.31676 0.1199 0.0
C2999 C 0.35059 0.36968 0.10737 0.0
C3000 C 0.36117 0.39145 0.0892 0.0
C3001 C 0.33533 0.33858 0.1019 0.0
C3002 C 0.35735 0.38177 0.0655 0.0
C3003 C 0.34301 0.35094 0.05995 0.0
H3004 H 0.63026 0.98461 0.11951 0.0
H3005 H 0.60533 0.96389 0.04597 0.0
H3006 H 0.65845 0.99386 0.03438 0.0
H3007 H 0.71222 0.02474 0.04513 0.0
H3008 H 0.73697 0.04371 0.11884 0.0
H3009 H 0.68372 0.01579 0.1302 0.0
C3010 C 0.63635 0.98671 0.10092 0.0
C3011 C 0.6137 0.9719 0.08369 0.0
C3012 C 0.66699 0.00369 0.09435 0.0
C3013 C 0.6222 0.97489 0.05968 0.0
C3014 C 0.65262 0.99208 0.053 0.0
C3015 C 0.70598 0.02297 0.06367 0.0
C3016 C 0.72866 0.03631 0.08106 0.0
C3017 C 0.67524 0.00642 0.07018 0.0
C3018 C 0.72007 0.03358 0.10503 0.0
C3019 C 0.68958 0.0176 0.11159 0.0
H3020 H 0.96911 0.68653 0.09896 0.0
H3021 H 0.97818 0.68665 0.02297 0.0
H3022 H 0.00463 0.65796 0.02667 0.0
H3023 H 0.02739 0.63508 0.05166 0.0
H3024 H 0.01687 0.63415 0.12762 0.0
H3025 H 0.98867 0.66079 0.12364 0.0
C3026 C 0.97677 0.68022 0.08316 0.0
C3027 C 0.97193 0.68905 0.06073 0.0
C3028 C 0.99177 0.66362 0.0854 0.0
C3029 C 0.98162 0.68023 0.04046 0.0
C3030 C 0.99684 0.66389 0.04257 0.0
C3031 C 0.01878 0.64051 0.06735 0.0
C3032 C 0.02456 0.63277 0.08993 0.0
C3033 C 0.00238 0.6558 0.06497 0.0
C3034 C 0.01292 0.63981 0.11002 0.0
C3035 C 0.99681 0.65516 0.10778 0.0
H3036 H 0.28334 0.31335 0.39295 0.0
H3037 H 0.2936 0.32275 0.46886 0.0
H3038 H 0.3486 0.35213 0.46435 0.0
H3039 H 0.39386 0.37295 0.43899 0.0
H3040 H 0.38338 0.36458 0.36303 0.0
H3041 H 0.32843 0.33719 0.36753 0.0
C3042 C 0.29757 0.32191 0.40854 0.0
C3043 C 0.28427 0.31554 0.43123 0.0
C3044 C 0.32919 0.33895 0.40584 0.0
C3045 C 0.30312 0.32722 0.45118 0.0
C3046 C 0.33463 0.34397 0.44863 0.0
C3047 C 0.3796 0.36531 0.42338 0.0
C3048 C 0.39289 0.37065 0.4007 0.0
C3049 C 0.34792 0.34964 0.42606 0.0
C3050 C 0.37392 0.36081 0.38071 0.0
C3051 C 0.34242 0.34503 0.38325 0.0
H3052 H 0.63831 0.02362 0.44635 0.0
H3053 H 0.63116 0.01318 0.37036 0.0
H3054 H 0.65829 0.98517 0.37152 0.0
H3055 H 0.68645 0.96604 0.39384 0.0
H3056 H 0.6923 0.97529 0.46994 0.0
H3057 H 0.66313 0.00119 0.46893 0.0
C3058 C 0.64252 0.01509 0.43004 0.0
C3059 C 0.63297 0.02081 0.4083 0.0
C3060 C 0.658 0.99885 0.43081 0.0
C3061 C 0.63829 0.00921 0.38737 0.0
C3062 C 0.6539 0.99324 0.38799 0.0
C3063 C 0.68122 0.97358 0.41022 0.0
C3064 C 0.69185 0.96898 0.43188 0.0
C3065 C 0.66425 0.98832 0.40957 0.0
C3066 C 0.68451 0.97856 0.45298 0.0
C3067 C 0.66787 0.99347 0.45244 0.0
H3068 H 0.02458 0.7084 0.45221 0.0
H3069 H 0.03918 0.73413 0.37848 0.0
H3070 H 0.01253 0.6809 0.36687 0.0
H3071 H 0.98335 0.62701 0.3775 0.0
H3072 H 0.96692 0.60143 0.45122 0.0
H3073 H 0.99603 0.65454 0.46284 0.0
C3074 C 0.02216 0.70242 0.4336 0.0
C3075 C 0.03391 0.72537 0.41629 0.0
C3076 C 0.00633 0.67171 0.42698 0.0
C3077 C 0.03031 0.71704 0.39224 0.0
C3078 C 0.01505 0.68656 0.38554 0.0
C3079 C 0.98628 0.63299 0.39612 0.0
C3080 C 0.97284 0.61013 0.41341 0.0
C3081 C 0.0027 0.66369 0.40275 0.0
C3082 C 0.97683 0.61845 0.43747 0.0
C3083 C 0.99352 0.64888 0.44417 0.0
H3084 H 0.627 0.61621 0.94343 0.0
H3085 H 0.62322 0.62734 0.86791 0.0
H3086 H 0.65129 0.68213 0.87255 0.0
H3087 H 0.67923 0.7269 0.89751 0.0
H3088 H 0.68275 0.7165 0.97307 0.0
H3089 H 0.65225 0.66148 0.96887 0.0
C3090 C 0.63207 0.63058 0.92798 0.0
C3091 C 0.62312 0.61746 0.90533 0.0
C3092 C 0.64829 0.66226 0.93073 0.0
C3093 C 0.62983 0.6366 0.88558 0.0
C3094 C 0.64597 0.66804 0.88818 0.0
C3095 C 0.67325 0.71267 0.91313 0.0
C3096 C 0.68357 0.7259 0.93555 0.0
C3097 C 0.6557 0.6811 0.9106 0.0
C3098 C 0.6752 0.70701 0.95558 0.0
C3099 C 0.65781 0.6755 0.95318 0.0
H3100 H 0.3007 0.98634 0.95631 0.0
H3101 H 0.27695 0.97005 0.88232 0.0
H3102 H 0.33052 0.99457 0.87163 0.0
H3103 H 0.38429 0.02239 0.88317 0.0
H3104 H 0.40773 0.04106 0.95707 0.0
H3105 H 0.3542 0.01379 0.96783 0.0
C3106 C 0.30718 0.98793 0.93784 0.0
C3107 C 0.28474 0.97632 0.92017 0.0
C3108 C 0.33806 0.00261 0.93176 0.0
C3109 C 0.29369 0.97887 0.89631 0.0
C3110 C 0.32435 0.99288 0.89016 0.0
C3111 C 0.3777 0.0203 0.90163 0.0
C3112 C 0.40006 0.03382 0.91925 0.0
C3113 C 0.34676 0.0051 0.90772 0.0
C3114 C 0.39104 0.03107 0.9431 0.0
C3115 C 0.3604 0.01543 0.9493 0.0
H3116 H 0.03427 0.31441 0.89348 0.0
H3117 H 0.03137 0.32208 0.96944 0.0
H3118 H 0.00233 0.34794 0.96513 0.0
H3119 H 0.97645 0.36709 0.9398 0.0
H3120 H 0.98121 0.36094 0.86381 0.0
H3121 H 0.01081 0.3358 0.86821 0.0
C3122 C 0.02736 0.32179 0.90911 0.0
C3123 C 0.03481 0.31609 0.93173 0.0
C3124 C 0.0109 0.33686 0.90653 0.0
C3125 C 0.02597 0.32615 0.95179 0.0
C3126 C 0.00926 0.34087 0.94936 0.0
C3127 C 0.98397 0.36025 0.92421 0.0
C3128 C 0.97641 0.36571 0.90153 0.0
C3129 C 0.00136 0.34611 0.92682 0.0
C3130 C 0.98668 0.35705 0.8815 0.0
C3131 C 0.00359 0.3426 0.88397 0.0
H3132 H 0.72502 0.68705 0.60969 0.0
H3133 H 0.71538 0.68198 0.53364 0.0
H3134 H 0.66049 0.65069 0.53776 0.0
H3135 H 0.61501 0.62663 0.56294 0.0
H3136 H 0.62504 0.63089 0.639 0.0
H3137 H 0.67991 0.66045 0.63477 0.0
C3138 C 0.71098 0.67903 0.59398 0.0
C3139 C 0.72442 0.68715 0.57139 0.0
C3140 C 0.67941 0.6609 0.59645 0.0
C3141 C 0.70576 0.67619 0.55126 0.0
C3142 C 0.67431 0.65832 0.55359 0.0
C3143 C 0.62916 0.63384 0.57862 0.0
C3144 C 0.61571 0.62664 0.60126 0.0
C3145 C 0.66085 0.65082 0.5761 0.0
C3146 C 0.63457 0.63606 0.62133 0.0
C3147 C 0.66604 0.65307 0.61895 0.0
H3148 H 0.32067 0.02318 0.54876 0.0
H3149 H 0.30268 0.03429 0.62168 0.0
H3150 H 0.33069 0.00979 0.63482 0.0
H3151 H 0.35889 0.98358 0.62568 0.0
H3152 H 0.37428 0.96983 0.55273 0.0
H3153 H 0.34892 0.99705 0.53963 0.0
C3154 C 0.32303 0.02041 0.56753 0.0
C3155 C 0.30953 0.03055 0.58417 0.0
C3156 C 0.3387 0.00574 0.57501 0.0
C3157 C 0.31265 0.02654 0.60844 0.0
C3158 C 0.32874 0.01257 0.616 0.0
C3159 C 0.35691 0.98676 0.60692 0.0
C3160 C 0.36849 0.97467 0.59024 0.0
C3161 C 0.34166 0.00186 0.59946 0.0
C3162 C 0.36544 0.97875 0.56597 0.0
C3163 C 0.35095 0.99435 0.55844 0.0
H3164 H 0.02244 0.39164 0.55684 0.0
H3165 H 0.01345 0.38616 0.63297 0.0
H3166 H 0.9851 0.33097 0.6307 0.0
H3167 H 0.96523 0.28425 0.60732 0.0
H3168 H 0.97317 0.28987 0.53112 0.0
H3169 H 0.99936 0.34498 0.5333 0.0
C3170 C 0.01416 0.37841 0.57295 0.0
C3171 C 0.02037 0.39309 0.59505 0.0
C3172 C 0.99773 0.34666 0.57155 0.0
C3173 C 0.00909 0.37553 0.61571 0.0
C3174 C 0.99293 0.34392 0.61445 0.0
C3175 C 0.97252 0.29749 0.59116 0.0
C3176 C 0.96746 0.28284 0.56911 0.0
C3177 C 0.98749 0.32925 0.59249 0.0
C3178 C 0.97678 0.30044 0.54835 0.0
C3179 C 0.99186 0.33202 0.54956 0.0
H3180 H 0.93886 0.64761 0.72847 0.0
H3181 H 0.94647 0.65123 0.80461 0.0
H3182 H 0.00168 0.68099 0.8014 0.0
H3183 H 0.0479 0.70387 0.77681 0.0
H3184 H 0.0394 0.70135 0.70063 0.0
H3185 H 0.98453 0.67344 0.70412 0.0
C3186 C 0.95257 0.65498 0.74439 0.0
C3187 C 0.93857 0.64693 0.76673 0.0
C3188 C 0.9842 0.67226 0.74242 0.0
C3189 C 0.95667 0.65708 0.78717 0.0
C3190 C 0.98825 0.67403 0.78535 0.0
C3191 C 0.03406 0.69741 0.76097 0.0
C3192 C 0.04793 0.70454 0.7385 0.0
C3193 C 0.0023 0.68144 0.76305 0.0
C3194 C 0.02953 0.69617 0.71819 0.0
C3195 C 0.99804 0.6801 0.72012 0.0
H3196 H 0.29279 0.34747 0.7702 0.0
H3197 H 0.29876 0.34135 0.69431 0.0
H3198 H 0.32728 0.31513 0.69931 0.0
H3199 H 0.35219 0.29559 0.72509 0.0
H3200 H 0.34478 0.29998 0.80096 0.0
H3201 H 0.31507 0.32507 0.79602 0.0
C3202 C 0.30023 0.34032 0.75474 0.0
C3203 C 0.29382 0.34664 0.73192 0.0
C3204 C 0.31644 0.32498 0.7577 0.0
C3205 C 0.30335 0.33685 0.7121 0.0
C3206 C 0.31976 0.3219 0.71492 0.0
C3207 C 0.34402 0.30197 0.74056 0.0
C3208 C 0.35095 0.29615 0.76335 0.0
C3209 C 0.3267 0.31613 0.73762 0.0
C3210 C 0.33982 0.30419 0.7832 0.0
C3211 C 0.32288 0.31863 0.7804 0.0
H3212 H 0.64823 0.93793 0.77308 0.0
H3213 H 0.64842 0.94727 0.69715 0.0
H3214 H 0.67805 0.00245 0.70105 0.0
H3215 H 0.70142 0.048 0.72628 0.0
H3216 H 0.70163 0.03772 0.80222 0.0
H3217 H 0.6744 0.98293 0.79792 0.0
C3218 C 0.6548 0.952 0.75734 0.0
C3219 C 0.64581 0.93852 0.73488 0.0
C3220 C 0.67184 0.98356 0.75969 0.0
C3221 C 0.65499 0.95707 0.71466 0.0
C3222 C 0.67184 0.98863 0.71688 0.0
C3223 C 0.6957 0.03381 0.7419 0.0
C3224 C 0.70337 0.04712 0.76455 0.0
C3225 C 0.68002 0.00213 0.73935 0.0
C3226 C 0.69596 0.02827 0.78455 0.0
C3227 C 0.68031 0.99684 0.78215 0.0
H3228 H 0.30657 0.94484 0.27543 0.0
H3229 H 0.30864 0.95197 0.19923 0.0
H3230 H 0.33352 0.00703 0.2022 0.0
H3231 H 0.35689 0.05325 0.22631 0.0
H3232 H 0.35347 0.04619 0.30255 0.0
H3233 H 0.32665 0.99104 0.29961 0.0
C3234 C 0.31238 0.95843 0.25947 0.0
C3235 C 0.30602 0.94426 0.23714 0.0
C3236 C 0.32644 0.99011 0.26128 0.0
C3237 C 0.31331 0.96222 0.21664 0.0
C3238 C 0.32761 0.99375 0.21831 0.0
C3239 C 0.35011 0.03969 0.24231 0.0
C3240 C 0.35749 0.05396 0.26461 0.0
C3241 C 0.3346 0.00795 0.24053 0.0
C3242 C 0.34817 0.03592 0.28514 0.0
C3243 C 0.33292 0.00432 0.28349 0.0
H3244 H 0.95889 0.31367 0.29589 0.0
H3245 H 0.93452 0.30125 0.22187 0.0
H3246 H 0.98788 0.32789 0.2108 0.0
H3247 H 0.04123 0.35548 0.22194 0.0
H3248 H 0.06613 0.3702 0.29581 0.0
H3249 H 0.01269 0.34178 0.30708 0.0
C3250 C 0.96526 0.31668 0.27734 0.0
C3251 C 0.94272 0.30549 0.25976 0.0
C3252 C 0.99603 0.33245 0.27104 0.0
C3253 C 0.95137 0.30978 0.23579 0.0
C3254 C 0.98189 0.32496 0.22941 0.0
C3255 C 0.03506 0.35239 0.24053 0.0
C3256 C 0.0577 0.36493 0.25799 0.0
C3257 C 0.00438 0.33651 0.24688 0.0
C3258 C 0.04918 0.36086 0.28199 0.0
C3259 C 0.01863 0.34459 0.28846 0.0
H3260 H 0.68972 0.64623 0.28569 0.0
H3261 H 0.71559 0.65361 0.21215 0.0
H3262 H 0.69059 0.68272 0.20394 0.0
H3263 H 0.65877 0.70329 0.21701 0.0
H3264 H 0.62987 0.69313 0.28995 0.0
H3265 H 0.65884 0.66815 0.29903 0.0
C3266 C 0.69018 0.65453 0.26795 0.0
C3267 C 0.70441 0.64768 0.24956 0.0
C3268 C 0.67508 0.67063 0.26319 0.0
C3269 C 0.70459 0.65837 0.22659 0.0
C3270 C 0.69032 0.67505 0.22187 0.0
C3271 C 0.659 0.6959 0.23495 0.0
C3272 C 0.64205 0.70001 0.25272 0.0
C3273 C 0.67507 0.68088 0.23994 0.0
C3274 C 0.64256 0.69011 0.27586 0.0
C3275 C 0.65913 0.67581 0.28109 0.0
loop_
_geom_bond_atom_site_label_1
_geom_bond_atom_site_label_2
_geom_bond_distance
_geom_bond_site_symmetry_2
_ccdc_geom_bond_type
Co0 O2 2.143 . S
Co0 O8 2.074 . S
Co0 O11 2.093 . S
Co0 O24 2.097 . S
Co0 N41 2.151 . S
Co0 N49 2.214 . S
Co1 O2 2.160 . S
Co1 O7 2.058 . S
Co1 O17 2.057 . S
Co1 O32 2.037 . S
Co1 N36 2.145 1_554 S
Co1 N57 2.257 . S
O2 Co0 2.143 . S
O2 Co1 2.160 . S
C3 O4 1.278 . S
C3 O11 1.224 . S
O4 C3 1.278 . S
C5 O6 1.245 . S
C5 O17 1.232 . S
O6 C5 1.245 . S
O7 Co1 2.058 . S
O7 C33 1.269 . S
O8 Co0 2.074 . S
O8 C33 1.257 . S
H9 C34 0.930 . S
H10 C40 0.930 . S
O11 Co0 2.093 . S
O11 C3 1.224 . S
H12 C44 0.929 . S
H13 C46 0.930 . S
H14 C47 0.930 . S
H15 C45 0.929 . S
H16 C48 0.928 . S
O17 Co1 2.057 . S
O17 C5 1.232 . S
H18 C37 0.929 1_554 S
H19 C38 0.929 . S
H20 C50 0.931 . S
H21 C42 0.929 . S
H22 C51 0.930 . S
H23 C43 0.931 . S
O24 Co0 2.097 . S
O24 C52 1.214 . S
H25 C53 0.929 . S
H26 C54 0.929 . S
H27 C55 0.930 . S
H28 C56 0.929 . S
H29 C58 0.930 . S
H30 C35 0.930 . S
H31 C39 0.930 . S
O32 Co1 2.037 . S
O32 C52 1.234 . S
C33 O7 1.269 . S
C33 O8 1.257 . S
C34 H9 0.930 . S
C34 C37 1.388 . S
C34 C39 1.418 . S
C35 H30 0.930 . S
C35 C38 1.404 . S
C35 C39 1.353 . S
N36 Co1 2.145 1_556 S
N36 C37 1.397 . S
N36 C38 1.334 . S
C37 H18 0.929 1_556 S
C37 C34 1.388 . S
C37 N36 1.397 . S
C38 H19 0.929 . S
C38 C35 1.404 . S
C38 N36 1.334 . S
C39 H31 0.930 . S
C39 C34 1.418 . S
C39 C35 1.353 . S
C40 H10 0.930 . S
C40 N41 1.330 . S
C40 C42 1.446 . S
N41 Co0 2.151 . S
N41 C40 1.330 . S
N41 C45 1.418 . S
C42 H21 0.929 . S
C42 C40 1.446 . S
C42 C43 1.332 . S
C43 H23 0.931 . S
C43 C42 1.332 . S
C43 C44 1.267 . S
C44 H12 0.929 . S
C44 C43 1.267 . S
C44 C45 1.251 . S
C45 H15 0.929 . S
C45 N41 1.418 . S
C45 C44 1.251 . S
C46 H13 0.930 . S
C46 C48 1.406 . S
C46 C51 1.261 . S
C47 H14 0.930 . S
C47 N49 1.325 . S
C47 C50 1.357 . S
C48 H16 0.928 . S
C48 C46 1.406 . S
C48 N49 1.261 . S
N49 Co0 2.214 . S
N49 C47 1.325 . S
N49 C48 1.261 . S
C50 H20 0.931 . S
C50 C47 1.357 . S
C50 C51 1.312 . S
C51 H22 0.930 . S
C51 C46 1.261 . S
C51 C50 1.312 . S
C52 O24 1.214 . S
C52 O32 1.234 . S
C53 H25 0.929 . S
C53 C56 1.391 . S
C53 C58 1.391 . S
C54 H26 0.929 . S
C54 C55 1.390 . S
C54 N57 1.391 . S
C55 H27 0.930 . S
C55 C54 1.390 . S
C55 C56 1.392 . S
C56 H28 0.929 . S
C56 C53 1.391 . S
C56 C55 1.392 . S
N57 Co1 2.257 . S
N57 C54 1.391 . S
N57 C58 1.388 . S
C58 H29 0.930 . S
C58 C53 1.391 . S
C58 N57 1.388 . S
Co59 O61 2.143 . S
Co59 O67 2.074 . S
Co59 O70 2.093 . S
Co59 O83 2.097 . S
Co59 N100 2.151 . S
Co59 N108 2.214 . S
Co60 O61 2.160 . S
Co60 O66 2.058 . S
Co60 O76 2.057 . S
Co60 O91 2.037 . S
Co60 N95 2.145 1_554 S
Co60 N116 2.257 . S
O61 Co59 2.143 . S
O61 Co60 2.160 . S
C62 O63 1.278 . S
C62 O70 1.224 . S
O63 C62 1.278 . S
C64 O65 1.245 . S
C64 O76 1.232 . S
O65 C64 1.245 . S
O66 Co60 2.058 . S
O66 C92 1.269 . S
O67 Co59 2.074 . S
O67 C92 1.257 . S
H68 C93 0.930 . S
H69 C99 0.930 . S
O70 Co59 2.093 . S
O70 C62 1.224 . S
H71 C103 0.929 . S
H72 C105 0.930 . S
H73 C106 0.930 . S
H74 C104 0.929 . S
H75 C107 0.928 . S
O76 Co60 2.057 . S
O76 C64 1.232 . S
H77 C96 0.929 1_554 S
H78 C97 0.929 . S
H79 C109 0.931 . S
H80 C101 0.929 . S
H81 C110 0.930 . S
H82 C102 0.931 . S
O83 Co59 2.097 . S
O83 C111 1.214 . S
H84 C112 0.929 . S
H85 C113 0.929 . S
H86 C114 0.930 . S
H87 C115 0.929 . S
H88 C117 0.930 . S
H89 C94 0.930 . S
H90 C98 0.930 . S
O91 Co60 2.037 . S
O91 C111 1.234 . S
C92 O66 1.269 . S
C92 O67 1.257 . S
C93 H68 0.930 . S
C93 C96 1.388 . S
C93 C98 1.418 . S
C94 H89 0.930 . S
C94 C97 1.404 . S
C94 C98 1.353 . S
N95 Co60 2.145 1_556 S
N95 C96 1.397 . S
N95 C97 1.334 . S
C96 H77 0.929 1_556 S
C96 C93 1.388 . S
C96 N95 1.397 . S
C97 H78 0.929 . S
C97 C94 1.404 . S
C97 N95 1.334 . S
C98 H90 0.930 . S
C98 C93 1.418 . S
C98 C94 1.353 . S
C99 H69 0.930 . S
C99 N100 1.330 . S
C99 C101 1.446 . S
N100 Co59 2.151 . S
N100 C99 1.330 . S
N100 C104 1.418 . S
C101 H80 0.929 . S
C101 C99 1.446 . S
C101 C102 1.332 . S
C102 H82 0.931 . S
C102 C101 1.332 . S
C102 C103 1.267 . S
C103 H71 0.929 . S
C103 C102 1.267 . S
C103 C104 1.251 . S
C104 H74 0.929 . S
C104 N100 1.418 . S
C104 C103 1.251 . S
C105 H72 0.930 . S
C105 C107 1.406 1_565 S
C105 C110 1.261 . S
C106 H73 0.930 . S
C106 N108 1.325 1_565 S
C106 C109 1.357 . S
C107 H75 0.928 . S
C107 C105 1.406 1_545 S
C107 N108 1.261 . S
N108 Co59 2.214 . S
N108 C106 1.325 1_545 S
N108 C107 1.261 . S
C109 H79 0.931 . S
C109 C106 1.357 . S
C109 C110 1.312 . S
C110 H81 0.930 . S
C110 C105 1.261 . S
C110 C109 1.312 . S
C111 O83 1.214 . S
C111 O91 1.234 . S
C112 H84 0.929 . S
C112 C115 1.391 . S
C112 C117 1.391 . S
C113 H85 0.929 . S
C113 C114 1.390 . S
C113 N116 1.391 . S
C114 H86 0.930 . S
C114 C113 1.390 . S
C114 C115 1.392 . S
C115 H87 0.929 . S
C115 C112 1.391 . S
C115 C114 1.392 . S
N116 Co60 2.257 . S
N116 C113 1.391 . S
N116 C117 1.388 . S
C117 H88 0.930 . S
C117 C112 1.391 . S
C117 N116 1.388 . S
Co118 O120 2.143 . S
Co118 O126 2.074 . S
Co118 O129 2.093 . S
Co118 O142 2.097 . S
Co118 N159 2.151 . S
Co118 N167 2.214 . S
Co119 O120 2.160 . S
Co119 O125 2.058 . S
Co119 O135 2.057 . S
Co119 O150 2.037 . S
Co119 N154 2.145 1_554 S
Co119 N175 2.257 . S
O120 Co118 2.143 . S
O120 Co119 2.160 . S
C121 O122 1.278 . S
C121 O129 1.224 . S
O122 C121 1.278 . S
C123 O124 1.245 . S
C123 O135 1.232 . S
O124 C123 1.245 . S
O125 Co119 2.058 . S
O125 C151 1.269 . S
O126 Co118 2.074 . S
O126 C151 1.257 . S
H127 C152 0.930 . S
H128 C158 0.930 . S
O129 Co118 2.093 . S
O129 C121 1.224 . S
H130 C162 0.929 . S
H131 C164 0.930 . S
H132 C165 0.930 . S
H133 C163 0.929 . S
H134 C166 0.928 . S
O135 Co119 2.057 . S
O135 C123 1.232 . S
H136 C155 0.929 1_554 S
H137 C156 0.929 . S
H138 C168 0.931 . S
H139 C160 0.929 . S
H140 C169 0.930 . S
H141 C161 0.931 . S
O142 Co118 2.097 . S
O142 C170 1.214 . S
H143 C171 0.929 . S
H144 C172 0.929 . S
H145 C173 0.930 . S
H146 C174 0.929 . S
H147 C176 0.930 . S
H148 C153 0.930 . S
H149 C157 0.930 . S
O150 Co119 2.037 . S
O150 C170 1.234 . S
C151 O125 1.269 . S
C151 O126 1.257 . S
C152 H127 0.930 . S
C152 C155 1.388 . S
C152 C157 1.418 . S
C153 H148 0.930 . S
C153 C156 1.404 . S
C153 C157 1.353 . S
N154 Co119 2.145 1_556 S
N154 C155 1.397 . S
N154 C156 1.334 . S
C155 H136 0.929 1_556 S
C155 C152 1.388 . S
C155 N154 1.397 . S
C156 H137 0.929 . S
C156 C153 1.404 . S
C156 N154 1.334 . S
C157 H149 0.930 . S
C157 C152 1.418 . S
C157 C153 1.353 . S
C158 H128 0.930 . S
C158 N159 1.330 . S
C158 C160 1.446 . S
N159 Co118 2.151 . S
N159 C158 1.330 . S
N159 C163 1.418 . S
C160 H139 0.929 . S
C160 C158 1.446 . S
C160 C161 1.332 . S
C161 H141 0.931 . S
C161 C160 1.332 . S
C161 C162 1.267 . S
C162 H130 0.929 . S
C162 C161 1.267 . S
C162 C163 1.251 . S
C163 H133 0.929 . S
C163 N159 1.418 . S
C163 C162 1.251 . S
C164 H131 0.930 . S
C164 C166 1.406 1_455 S
C164 C169 1.261 . S
C165 H132 0.930 . S
C165 N167 1.325 1_455 S
C165 C168 1.357 . S
C166 H134 0.928 . S
C166 C164 1.406 1_655 S
C166 N167 1.261 . S
N167 Co118 2.214 . S
N167 C165 1.325 1_655 S
N167 C166 1.261 . S
C168 H138 0.931 . S
C168 C165 1.357 . S
C168 C169 1.312 . S
C169 H140 0.930 . S
C169 C164 1.261 . S
C169 C168 1.312 . S
C170 O142 1.214 . S
C170 O150 1.234 . S
C171 H143 0.929 . S
C171 C174 1.391 . S
C171 C176 1.391 . S
C172 H144 0.929 . S
C172 C173 1.390 . S
C172 N175 1.391 . S
C173 H145 0.930 . S
C173 C172 1.390 . S
C173 C174 1.392 . S
C174 H146 0.929 . S
C174 C171 1.391 . S
C174 C173 1.392 . S
N175 Co119 2.257 . S
N175 C172 1.391 . S
N175 C176 1.388 . S
C176 H147 0.930 . S
C176 C171 1.391 . S
C176 N175 1.388 . S
Co177 O179 2.143 . S
Co177 O185 2.074 . S
Co177 O188 2.093 . S
Co177 O201 2.097 . S
Co177 N218 2.151 . S
Co177 N226 2.214 . S
Co178 O179 2.160 . S
Co178 O184 2.058 . S
Co178 O194 2.057 . S
Co178 O209 2.037 . S
Co178 N213 2.145 . S
Co178 N234 2.257 . S
O179 Co177 2.143 . S
O179 Co178 2.160 . S
C180 O181 1.278 . S
C180 O188 1.224 . S
O181 C180 1.278 . S
C182 O183 1.245 . S
C182 O194 1.232 . S
O183 C182 1.245 . S
O184 Co178 2.058 . S
O184 C210 1.269 . S
O185 Co177 2.074 . S
O185 C210 1.257 . S
H186 C211 0.930 . S
H187 C217 0.930 . S
O188 Co177 2.093 . S
O188 C180 1.224 . S
H189 C221 0.929 . S
H190 C223 0.930 . S
H191 C224 0.930 . S
H192 C222 0.929 . S
H193 C225 0.928 . S
O194 Co178 2.057 . S
O194 C182 1.232 . S
H195 C214 0.929 . S
H196 C215 0.929 . S
H197 C227 0.931 . S
H198 C219 0.929 . S
H199 C228 0.930 . S
H200 C220 0.931 . S
O201 Co177 2.097 . S
O201 C229 1.214 . S
H202 C230 0.929 . S
H203 C231 0.929 . S
H204 C232 0.930 . S
H205 C233 0.929 . S
H206 C235 0.930 . S
H207 C212 0.930 . S
H208 C216 0.930 . S
O209 Co178 2.037 . S
O209 C229 1.234 . S
C210 O184 1.269 . S
C210 O185 1.257 . S
C211 H186 0.930 . S
C211 C214 1.388 . S
C211 C216 1.418 . S
C212 H207 0.930 . S
C212 C215 1.404 . S
C212 C216 1.353 . S
N213 Co178 2.145 . S
N213 C214 1.397 . S
N213 C215 1.334 . S
C214 H195 0.929 . S
C214 C211 1.388 . S
C214 N213 1.397 . S
C215 H196 0.929 . S
C215 C212 1.404 . S
C215 N213 1.334 . S
C216 H208 0.930 . S
C216 C211 1.418 . S
C216 C212 1.353 . S
C217 H187 0.930 . S
C217 N218 1.330 . S
C217 C219 1.446 . S
N218 Co177 2.151 . S
N218 C217 1.330 . S
N218 C222 1.418 . S
C219 H198 0.929 . S
C219 C217 1.446 . S
C219 C220 1.332 . S
C220 H200 0.931 . S
C220 C219 1.332 . S
C220 C221 1.267 . S
C221 H189 0.929 . S
C221 C220 1.267 . S
C221 C222 1.251 . S
C222 H192 0.929 . S
C222 N218 1.418 . S
C222 C221 1.251 . S
C223 H190 0.930 . S
C223 C225 1.406 . S
C223 C228 1.261 . S
C224 H191 0.930 . S
C224 N226 1.325 . S
C224 C227 1.357 . S
C225 H193 0.928 . S
C225 C223 1.406 . S
C225 N226 1.261 . S
N226 Co177 2.214 . S
N226 C224 1.325 . S
N226 C225 1.261 . S
C227 H197 0.931 . S
C227 C224 1.357 . S
C227 C228 1.312 . S
C228 H199 0.930 . S
C228 C223 1.261 . S
C228 C227 1.312 . S
C229 O201 1.214 . S
C229 O209 1.234 . S
C230 H202 0.929 . S
C230 C233 1.391 . S
C230 C235 1.391 . S
C231 H203 0.929 . S
C231 C232 1.390 . S
C231 N234 1.391 . S
C232 H204 0.930 . S
C232 C231 1.390 . S
C232 C233 1.392 . S
C233 H205 0.929 . S
C233 C230 1.391 . S
C233 C232 1.392 . S
N234 Co178 2.257 . S
N234 C231 1.391 . S
N234 C235 1.388 . S
C235 H206 0.930 . S
C235 C230 1.391 . S
C235 N234 1.388 . S
Co236 O238 2.143 . S
Co236 O244 2.074 . S
Co236 O247 2.093 . S
Co236 O260 2.097 . S
Co236 N277 2.151 . S
Co236 N285 2.214 . S
Co237 O238 2.160 . S
Co237 O243 2.058 . S
Co237 O253 2.057 . S
Co237 O268 2.037 . S
Co237 N272 2.145 . S
Co237 N293 2.257 . S
O238 Co236 2.143 . S
O238 Co237 2.160 . S
C239 O240 1.278 . S
C239 O247 1.224 . S
O240 C239 1.278 . S
C241 O242 1.245 . S
C241 O253 1.232 . S
O242 C241 1.245 . S
O243 Co237 2.058 . S
O243 C269 1.269 . S
O244 Co236 2.074 . S
O244 C269 1.257 . S
H245 C270 0.930 . S
H246 C276 0.930 . S
O247 Co236 2.093 . S
O247 C239 1.224 . S
H248 C280 0.929 . S
H249 C282 0.930 . S
H250 C283 0.930 . S
H251 C281 0.929 . S
H252 C284 0.928 . S
O253 Co237 2.057 . S
O253 C241 1.232 . S
H254 C273 0.929 . S
H255 C274 0.929 . S
H256 C286 0.931 . S
H257 C278 0.929 . S
H258 C287 0.930 . S
H259 C279 0.931 . S
O260 Co236 2.097 . S
O260 C288 1.214 . S
H261 C289 0.929 . S
H262 C290 0.929 . S
H263 C291 0.930 . S
H264 C292 0.929 . S
H265 C294 0.930 . S
H266 C271 0.930 . S
H267 C275 0.930 . S
O268 Co237 2.037 . S
O268 C288 1.234 . S
C269 O243 1.269 . S
C269 O244 1.257 . S
C270 H245 0.930 . S
C270 C273 1.388 . S
C270 C275 1.418 . S
C271 H266 0.930 . S
C271 C274 1.404 . S
C271 C275 1.353 . S
N272 Co237 2.145 . S
N272 C273 1.397 . S
N272 C274 1.334 . S
C273 H254 0.929 . S
C273 C270 1.388 . S
C273 N272 1.397 . S
C274 H255 0.929 . S
C274 C271 1.404 . S
C274 N272 1.334 . S
C275 H267 0.930 . S
C275 C270 1.418 . S
C275 C271 1.353 . S
C276 H246 0.930 . S
C276 N277 1.330 . S
C276 C278 1.446 . S
N277 Co236 2.151 . S
N277 C276 1.330 . S
N277 C281 1.418 . S
C278 H257 0.929 . S
C278 C276 1.446 . S
C278 C279 1.332 . S
C279 H259 0.931 . S
C279 C278 1.332 . S
C279 C280 1.267 . S
C280 H248 0.929 . S
C280 C279 1.267 . S
C280 C281 1.251 . S
C281 H251 0.929 . S
C281 N277 1.418 . S
C281 C280 1.251 . S
C282 H249 0.930 . S
C282 C284 1.406 1_545 S
C282 C287 1.261 . S
C283 H250 0.930 . S
C283 N285 1.325 1_545 S
C283 C286 1.357 . S
C284 H252 0.928 . S
C284 C282 1.406 1_565 S
C284 N285 1.261 . S
N285 Co236 2.214 . S
N285 C283 1.325 1_565 S
N285 C284 1.261 . S
C286 H256 0.931 . S
C286 C283 1.357 . S
C286 C287 1.312 . S
C287 H258 0.930 . S
C287 C282 1.261 . S
C287 C286 1.312 . S
C288 O260 1.214 . S
C288 O268 1.234 . S
C289 H261 0.929 . S
C289 C292 1.391 . S
C289 C294 1.391 . S
C290 H262 0.929 . S
C290 C291 1.390 . S
C290 N293 1.391 . S
C291 H263 0.930 . S
C291 C290 1.390 . S
C291 C292 1.392 . S
C292 H264 0.929 . S
C292 C289 1.391 . S
C292 C291 1.392 . S
N293 Co237 2.257 . S
N293 C290 1.391 . S
N293 C294 1.388 . S
C294 H265 0.930 . S
C294 C289 1.391 . S
C294 N293 1.388 . S
Co295 O297 2.143 . S
Co295 O303 2.074 . S
Co295 O306 2.093 . S
Co295 O319 2.097 . S
Co295 N336 2.151 . S
Co295 N344 2.214 . S
Co296 O297 2.160 . S
Co296 O302 2.058 . S
Co296 O312 2.057 . S
Co296 O327 2.037 . S
Co296 N331 2.145 . S
Co296 N352 2.257 . S
O297 Co295 2.143 . S
O297 Co296 2.160 . S
C298 O299 1.278 . S
C298 O306 1.224 . S
O299 C298 1.278 . S
C300 O301 1.245 . S
C300 O312 1.232 . S
O301 C300 1.245 . S
O302 Co296 2.058 . S
O302 C328 1.269 . S
O303 Co295 2.074 . S
O303 C328 1.257 . S
H304 C329 0.930 . S
H305 C335 0.930 . S
O306 Co295 2.093 . S
O306 C298 1.224 . S
H307 C339 0.929 . S
H308 C341 0.930 . S
H309 C342 0.930 . S
H310 C340 0.929 . S
H311 C343 0.928 . S
O312 Co296 2.057 . S
O312 C300 1.232 . S
H313 C332 0.929 . S
H314 C333 0.929 . S
H315 C345 0.931 . S
H316 C337 0.929 . S
H317 C346 0.930 . S
H318 C338 0.931 . S
O319 Co295 2.097 . S
O319 C347 1.214 . S
H320 C348 0.929 . S
H321 C349 0.929 . S
H322 C350 0.930 . S
H323 C351 0.929 . S
H324 C353 0.930 . S
H325 C330 0.930 . S
H326 C334 0.930 . S
O327 Co296 2.037 . S
O327 C347 1.234 . S
C328 O302 1.269 . S
C328 O303 1.257 . S
C329 H304 0.930 . S
C329 C332 1.388 . S
C329 C334 1.418 . S
C330 H325 0.930 . S
C330 C333 1.404 . S
C330 C334 1.353 . S
N331 Co296 2.145 . S
N331 C332 1.397 . S
N331 C333 1.334 . S
C332 H313 0.929 . S
C332 C329 1.388 . S
C332 N331 1.397 . S
C333 H314 0.929 . S
C333 C330 1.404 . S
C333 N331 1.334 . S
C334 H326 0.930 . S
C334 C329 1.418 . S
C334 C330 1.353 . S
C335 H305 0.930 . S
C335 N336 1.330 . S
C335 C337 1.446 . S
N336 Co295 2.151 . S
N336 C335 1.330 . S
N336 C340 1.418 . S
C337 H316 0.929 . S
C337 C335 1.446 . S
C337 C338 1.332 . S
C338 H318 0.931 . S
C338 C337 1.332 . S
C338 C339 1.267 . S
C339 H307 0.929 . S
C339 C338 1.267 . S
C339 C340 1.251 . S
C340 H310 0.929 . S
C340 N336 1.418 . S
C340 C339 1.251 . S
C341 H308 0.930 . S
C341 C343 1.406 1_655 S
C341 C346 1.261 . S
C342 H309 0.930 . S
C342 N344 1.325 1_655 S
C342 C345 1.357 . S
C343 H311 0.928 . S
C343 C341 1.406 1_455 S
C343 N344 1.261 . S
N344 Co295 2.214 . S
N344 C342 1.325 1_455 S
N344 C343 1.261 . S
C345 H315 0.931 . S
C345 C342 1.357 . S
C345 C346 1.312 . S
C346 H317 0.930 . S
C346 C341 1.261 . S
C346 C345 1.312 . S
C347 O319 1.214 . S
C347 O327 1.234 . S
C348 H320 0.929 . S
C348 C351 1.391 . S
C348 C353 1.391 . S
C349 H321 0.929 . S
C349 C350 1.390 . S
C349 N352 1.391 . S
C350 H322 0.930 . S
C350 C349 1.390 . S
C350 C351 1.392 . S
C351 H323 0.929 . S
C351 C348 1.391 . S
C351 C350 1.392 . S
N352 Co296 2.257 . S
N352 C349 1.391 . S
N352 C353 1.388 . S
C353 H324 0.930 . S
C353 C348 1.391 . S
C353 N352 1.388 . S
Co354 O356 2.143 . S
Co354 O362 2.074 . S
Co354 O365 2.093 . S
Co354 O378 2.097 . S
Co354 N395 2.151 . S
Co354 N403 2.214 . S
Co355 O356 2.160 . S
Co355 O361 2.058 . S
Co355 O371 2.057 . S
Co355 O386 2.037 . S
Co355 N390 2.145 1_556 S
Co355 N411 2.257 . S
O356 Co354 2.143 . S
O356 Co355 2.160 . S
C357 O358 1.278 . S
C357 O365 1.224 . S
O358 C357 1.278 . S
C359 O360 1.245 . S
C359 O371 1.232 . S
O360 C359 1.245 . S
O361 Co355 2.058 . S
O361 C387 1.269 . S
O362 Co354 2.074 . S
O362 C387 1.257 . S
H363 C388 0.930 . S
H364 C394 0.930 . S
O365 Co354 2.093 . S
O365 C357 1.224 . S
H366 C398 0.929 . S
H367 C400 0.930 . S
H368 C401 0.930 . S
H369 C399 0.929 . S
H370 C402 0.928 . S
O371 Co355 2.057 . S
O371 C359 1.232 . S
H372 C391 0.929 1_556 S
H373 C392 0.929 . S
H374 C404 0.931 . S
H375 C396 0.929 . S
H376 C405 0.930 . S
H377 C397 0.931 . S
O378 Co354 2.097 . S
O378 C406 1.214 . S
H379 C407 0.929 . S
H380 C408 0.929 . S
H381 C409 0.930 . S
H382 C410 0.929 . S
H383 C412 0.930 . S
H384 C389 0.930 . S
H385 C393 0.930 . S
O386 Co355 2.037 . S
O386 C406 1.234 . S
C387 O361 1.269 . S
C387 O362 1.257 . S
C388 H363 0.930 . S
C388 C391 1.388 . S
C388 C393 1.418 . S
C389 H384 0.930 . S
C389 C392 1.404 . S
C389 C393 1.353 . S
N390 Co355 2.145 1_554 S
N390 C391 1.397 . S
N390 C392 1.334 . S
C391 H372 0.929 1_554 S
C391 C388 1.388 . S
C391 N390 1.397 . S
C392 H373 0.929 . S
C392 C389 1.404 . S
C392 N390 1.334 . S
C393 H385 0.930 . S
C393 C388 1.418 . S
C393 C389 1.353 . S
C394 H364 0.930 . S
C394 N395 1.330 . S
C394 C396 1.446 . S
N395 Co354 2.151 . S
N395 C394 1.330 . S
N395 C399 1.418 . S
C396 H375 0.929 . S
C396 C394 1.446 . S
C396 C397 1.332 . S
C397 H377 0.931 . S
C397 C396 1.332 . S
C397 C398 1.267 . S
C398 H366 0.929 . S
C398 C397 1.267 . S
C398 C399 1.251 . S
C399 H369 0.929 . S
C399 N395 1.418 . S
C399 C398 1.251 . S
C400 H367 0.930 . S
C400 C402 1.406 . S
C400 C405 1.261 . S
C401 H368 0.930 . S
C401 N403 1.325 . S
C401 C404 1.357 . S
C402 H370 0.928 . S
C402 C400 1.406 . S
C402 N403 1.261 . S
N403 Co354 2.214 . S
N403 C401 1.325 . S
N403 C402 1.261 . S
C404 H374 0.931 . S
C404 C401 1.357 . S
C404 C405 1.312 . S
C405 H376 0.930 . S
C405 C400 1.261 . S
C405 C404 1.312 . S
C406 O378 1.214 . S
C406 O386 1.234 . S
C407 H379 0.929 . S
C407 C410 1.391 . S
C407 C412 1.391 . S
C408 H380 0.929 . S
C408 C409 1.390 . S
C408 N411 1.391 . S
C409 H381 0.930 . S
C409 C408 1.390 . S
C409 C410 1.392 . S
C410 H382 0.929 . S
C410 C407 1.391 . S
C410 C409 1.392 . S
N411 Co355 2.257 . S
N411 C408 1.391 . S
N411 C412 1.388 . S
C412 H383 0.930 . S
C412 C407 1.391 . S
C412 N411 1.388 . S
Co413 O415 2.143 . S
Co413 O421 2.074 . S
Co413 O424 2.093 . S
Co413 O437 2.097 . S
Co413 N454 2.151 . S
Co413 N462 2.214 . S
Co414 O415 2.160 . S
Co414 O420 2.058 . S
Co414 O430 2.057 . S
Co414 O445 2.037 . S
Co414 N449 2.145 1_556 S
Co414 N470 2.257 . S
O415 Co413 2.143 . S
O415 Co414 2.160 . S
C416 O417 1.278 . S
C416 O424 1.224 . S
O417 C416 1.278 . S
C418 O419 1.245 . S
C418 O430 1.232 . S
O419 C418 1.245 . S
O420 Co414 2.058 . S
O420 C446 1.269 . S
O421 Co413 2.074 . S
O421 C446 1.257 . S
H422 C447 0.930 . S
H423 C453 0.930 . S
O424 Co413 2.093 . S
O424 C416 1.224 . S
H425 C457 0.929 . S
H426 C459 0.930 . S
H427 C460 0.930 . S
H428 C458 0.929 . S
H429 C461 0.928 . S
O430 Co414 2.057 . S
O430 C418 1.232 . S
H431 C450 0.929 1_556 S
H432 C451 0.929 . S
H433 C463 0.931 . S
H434 C455 0.929 . S
H435 C464 0.930 . S
H436 C456 0.931 . S
O437 Co413 2.097 . S
O437 C465 1.214 . S
H438 C466 0.929 . S
H439 C467 0.929 . S
H440 C468 0.930 . S
H441 C469 0.929 . S
H442 C471 0.930 . S
H443 C448 0.930 . S
H444 C452 0.930 . S
O445 Co414 2.037 . S
O445 C465 1.234 . S
C446 O420 1.269 . S
C446 O421 1.257 . S
C447 H422 0.930 . S
C447 C450 1.388 . S
C447 C452 1.418 . S
C448 H443 0.930 . S
C448 C451 1.404 . S
C448 C452 1.353 . S
N449 Co414 2.145 1_554 S
N449 C450 1.397 . S
N449 C451 1.334 . S
C450 H431 0.929 1_554 S
C450 C447 1.388 . S
C450 N449 1.397 . S
C451 H432 0.929 . S
C451 C448 1.404 . S
C451 N449 1.334 . S
C452 H444 0.930 . S
C452 C447 1.418 . S
C452 C448 1.353 . S
C453 H423 0.930 . S
C453 N454 1.330 . S
C453 C455 1.446 . S
N454 Co413 2.151 . S
N454 C453 1.330 . S
N454 C458 1.418 . S
C455 H434 0.929 . S
C455 C453 1.446 . S
C455 C456 1.332 . S
C456 H436 0.931 . S
C456 C455 1.332 . S
C456 C457 1.267 . S
C457 H425 0.929 . S
C457 C456 1.267 . S
C457 C458 1.251 . S
C458 H428 0.929 . S
C458 N454 1.418 . S
C458 C457 1.251 . S
C459 H426 0.930 . S
C459 C461 1.406 1_545 S
C459 C464 1.261 . S
C460 H427 0.930 . S
C460 N462 1.325 1_545 S
C460 C463 1.357 . S
C461 H429 0.928 . S
C461 C459 1.406 1_565 S
C461 N462 1.261 . S
N462 Co413 2.214 . S
N462 C460 1.325 1_565 S
N462 C461 1.261 . S
C463 H433 0.931 . S
C463 C460 1.357 . S
C463 C464 1.312 . S
C464 H435 0.930 . S
C464 C459 1.261 . S
C464 C463 1.312 . S
C465 O437 1.214 . S
C465 O445 1.234 . S
C466 H438 0.929 . S
C466 C469 1.391 . S
C466 C471 1.391 . S
C467 H439 0.929 . S
C467 C468 1.390 . S
C467 N470 1.391 . S
C468 H440 0.930 . S
C468 C467 1.390 . S
C468 C469 1.392 . S
C469 H441 0.929 . S
C469 C466 1.391 . S
C469 C468 1.392 . S
N470 Co414 2.257 . S
N470 C467 1.391 . S
N470 C471 1.388 . S
C471 H442 0.930 . S
C471 C466 1.391 . S
C471 N470 1.388 . S
Co472 O474 2.143 . S
Co472 O480 2.074 . S
Co472 O483 2.093 . S
Co472 O496 2.097 . S
Co472 N513 2.151 . S
Co472 N521 2.214 . S
Co473 O474 2.160 . S
Co473 O479 2.058 . S
Co473 O489 2.057 . S
Co473 O504 2.037 . S
Co473 N508 2.145 1_556 S
Co473 N529 2.257 . S
O474 Co472 2.143 . S
O474 Co473 2.160 . S
C475 O476 1.278 . S
C475 O483 1.224 . S
O476 C475 1.278 . S
C477 O478 1.245 . S
C477 O489 1.232 . S
O478 C477 1.245 . S
O479 Co473 2.058 . S
O479 C505 1.269 . S
O480 Co472 2.074 . S
O480 C505 1.257 . S
H481 C506 0.930 . S
H482 C512 0.930 . S
O483 Co472 2.093 . S
O483 C475 1.224 . S
H484 C516 0.929 . S
H485 C518 0.930 . S
H486 C519 0.930 . S
H487 C517 0.929 . S
H488 C520 0.928 . S
O489 Co473 2.057 . S
O489 C477 1.232 . S
H490 C509 0.929 1_556 S
H491 C510 0.929 . S
H492 C522 0.931 . S
H493 C514 0.929 . S
H494 C523 0.930 . S
H495 C515 0.931 . S
O496 Co472 2.097 . S
O496 C524 1.214 . S
H497 C525 0.929 . S
H498 C526 0.929 . S
H499 C527 0.930 . S
H500 C528 0.929 . S
H501 C530 0.930 . S
H502 C507 0.930 . S
H503 C511 0.930 . S
O504 Co473 2.037 . S
O504 C524 1.234 . S
C505 O479 1.269 . S
C505 O480 1.257 . S
C506 H481 0.930 . S
C506 C509 1.388 . S
C506 C511 1.418 . S
C507 H502 0.930 . S
C507 C510 1.404 . S
C507 C511 1.353 . S
N508 Co473 2.145 1_554 S
N508 C509 1.397 . S
N508 C510 1.334 . S
C509 H490 0.929 1_554 S
C509 C506 1.388 . S
C509 N508 1.397 . S
C510 H491 0.929 . S
C510 C507 1.404 . S
C510 N508 1.334 . S
C511 H503 0.930 . S
C511 C506 1.418 . S
C511 C507 1.353 . S
C512 H482 0.930 . S
C512 N513 1.330 . S
C512 C514 1.446 . S
N513 Co472 2.151 . S
N513 C512 1.330 . S
N513 C517 1.418 . S
C514 H493 0.929 . S
C514 C512 1.446 . S
C514 C515 1.332 . S
C515 H495 0.931 . S
C515 C514 1.332 . S
C515 C516 1.267 . S
C516 H484 0.929 . S
C516 C515 1.267 . S
C516 C517 1.251 . S
C517 H487 0.929 . S
C517 N513 1.418 . S
C517 C516 1.251 . S
C518 H485 0.930 . S
C518 C520 1.406 1_655 S
C518 C523 1.261 . S
C519 H486 0.930 . S
C519 N521 1.325 1_655 S
C519 C522 1.357 . S
C520 H488 0.928 . S
C520 C518 1.406 1_455 S
C520 N521 1.261 . S
N521 Co472 2.214 . S
N521 C519 1.325 1_455 S
N521 C520 1.261 . S
C522 H492 0.931 . S
C522 C519 1.357 . S
C522 C523 1.312 . S
C523 H494 0.930 . S
C523 C518 1.261 . S
C523 C522 1.312 . S
C524 O496 1.214 . S
C524 O504 1.234 . S
C525 H497 0.929 . S
C525 C528 1.391 . S
C525 C530 1.391 . S
C526 H498 0.929 . S
C526 C527 1.390 . S
C526 N529 1.391 . S
C527 H499 0.930 . S
C527 C526 1.390 . S
C527 C528 1.392 . S
C528 H500 0.929 . S
C528 C525 1.391 . S
C528 C527 1.392 . S
N529 Co473 2.257 . S
N529 C526 1.391 . S
N529 C530 1.388 . S
C530 H501 0.930 . S
C530 C525 1.391 . S
C530 N529 1.388 . S
Co531 O533 2.143 . S
Co531 O539 2.074 . S
Co531 O542 2.093 . S
Co531 O555 2.097 . S
Co531 N572 2.151 . S
Co531 N580 2.214 . S
Co532 O533 2.160 . S
Co532 O538 2.058 . S
Co532 O548 2.057 . S
Co532 O563 2.037 . S
Co532 N567 2.145 . S
Co532 N588 2.257 . S
O533 Co531 2.143 . S
O533 Co532 2.160 . S
C534 O535 1.278 . S
C534 O542 1.224 . S
O535 C534 1.278 . S
C536 O537 1.245 . S
C536 O548 1.232 . S
O537 C536 1.245 . S
O538 Co532 2.058 . S
O538 C564 1.269 . S
O539 Co531 2.074 . S
O539 C564 1.257 . S
H540 C565 0.930 . S
H541 C571 0.930 . S
O542 Co531 2.093 . S
O542 C534 1.224 . S
H543 C575 0.929 . S
H544 C577 0.930 . S
H545 C578 0.930 . S
H546 C576 0.929 . S
H547 C579 0.928 . S
O548 Co532 2.057 . S
O548 C536 1.232 . S
H549 C568 0.929 . S
H550 C569 0.929 . S
H551 C581 0.931 . S
H552 C573 0.929 . S
H553 C582 0.930 . S
H554 C574 0.931 . S
O555 Co531 2.097 . S
O555 C583 1.214 . S
H556 C584 0.929 . S
H557 C585 0.929 . S
H558 C586 0.930 . S
H559 C587 0.929 . S
H560 C589 0.930 . S
H561 C566 0.930 . S
H562 C570 0.930 . S
O563 Co532 2.037 . S
O563 C583 1.234 . S
C564 O538 1.269 . S
C564 O539 1.257 . S
C565 H540 0.930 . S
C565 C568 1.388 . S
C565 C570 1.418 . S
C566 H561 0.930 . S
C566 C569 1.404 . S
C566 C570 1.353 . S
N567 Co532 2.145 . S
N567 C568 1.397 . S
N567 C569 1.334 . S
C568 H549 0.929 . S
C568 C565 1.388 . S
C568 N567 1.397 . S
C569 H550 0.929 . S
C569 C566 1.404 . S
C569 N567 1.334 . S
C570 H562 0.930 . S
C570 C565 1.418 . S
C570 C566 1.353 . S
C571 H541 0.930 . S
C571 N572 1.330 . S
C571 C573 1.446 . S
N572 Co531 2.151 . S
N572 C571 1.330 . S
N572 C576 1.418 . S
C573 H552 0.929 . S
C573 C571 1.446 . S
C573 C574 1.332 . S
C574 H554 0.931 . S
C574 C573 1.332 . S
C574 C575 1.267 . S
C575 H543 0.929 . S
C575 C574 1.267 . S
C575 C576 1.251 . S
C576 H546 0.929 . S
C576 N572 1.418 . S
C576 C575 1.251 . S
C577 H544 0.930 . S
C577 C579 1.406 . S
C577 C582 1.261 . S
C578 H545 0.930 . S
C578 N580 1.325 . S
C578 C581 1.357 . S
C579 H547 0.928 . S
C579 C577 1.406 . S
C579 N580 1.261 . S
N580 Co531 2.214 . S
N580 C578 1.325 . S
N580 C579 1.261 . S
C581 H551 0.931 . S
C581 C578 1.357 . S
C581 C582 1.312 . S
C582 H553 0.930 . S
C582 C577 1.261 . S
C582 C581 1.312 . S
C583 O555 1.214 . S
C583 O563 1.234 . S
C584 H556 0.929 . S
C584 C587 1.391 . S
C584 C589 1.391 . S
C585 H557 0.929 . S
C585 C586 1.390 . S
C585 N588 1.391 . S
C586 H558 0.930 . S
C586 C585 1.390 . S
C586 C587 1.392 . S
C587 H559 0.929 . S
C587 C584 1.391 . S
C587 C586 1.392 . S
N588 Co532 2.257 . S
N588 C585 1.391 . S
N588 C589 1.388 . S
C589 H560 0.930 . S
C589 C584 1.391 . S
C589 N588 1.388 . S
Co590 O592 2.143 . S
Co590 O598 2.074 . S
Co590 O601 2.093 . S
Co590 O614 2.097 . S
Co590 N631 2.151 . S
Co590 N639 2.214 . S
Co591 O592 2.160 . S
Co591 O597 2.058 . S
Co591 O607 2.057 . S
Co591 O622 2.037 . S
Co591 N626 2.145 . S
Co591 N647 2.257 . S
O592 Co590 2.143 . S
O592 Co591 2.160 . S
C593 O594 1.278 . S
C593 O601 1.224 . S
O594 C593 1.278 . S
C595 O596 1.245 . S
C595 O607 1.232 . S
O596 C595 1.245 . S
O597 Co591 2.058 . S
O597 C623 1.269 . S
O598 Co590 2.074 . S
O598 C623 1.257 . S
H599 C624 0.930 . S
H600 C630 0.930 . S
O601 Co590 2.093 . S
O601 C593 1.224 . S
H602 C634 0.929 . S
H603 C636 0.930 . S
H604 C637 0.930 . S
H605 C635 0.929 . S
H606 C638 0.928 . S
O607 Co591 2.057 . S
O607 C595 1.232 . S
H608 C627 0.929 . S
H609 C628 0.929 . S
H610 C640 0.931 . S
H611 C632 0.929 . S
H612 C641 0.930 . S
H613 C633 0.931 . S
O614 Co590 2.097 . S
O614 C642 1.214 . S
H615 C643 0.929 . S
H616 C644 0.929 . S
H617 C645 0.930 . S
H618 C646 0.929 . S
H619 C648 0.930 . S
H620 C625 0.930 . S
H621 C629 0.930 . S
O622 Co591 2.037 . S
O622 C642 1.234 . S
C623 O597 1.269 . S
C623 O598 1.257 . S
C624 H599 0.930 . S
C624 C627 1.388 . S
C624 C629 1.418 . S
C625 H620 0.930 . S
C625 C628 1.404 . S
C625 C629 1.353 . S
N626 Co591 2.145 . S
N626 C627 1.397 . S
N626 C628 1.334 . S
C627 H608 0.929 . S
C627 C624 1.388 . S
C627 N626 1.397 . S
C628 H609 0.929 . S
C628 C625 1.404 . S
C628 N626 1.334 . S
C629 H621 0.930 . S
C629 C624 1.418 . S
C629 C625 1.353 . S
C630 H600 0.930 . S
C630 N631 1.330 . S
C630 C632 1.446 . S
N631 Co590 2.151 . S
N631 C630 1.330 . S
N631 C635 1.418 . S
C632 H611 0.929 . S
C632 C630 1.446 . S
C632 C633 1.332 . S
C633 H613 0.931 . S
C633 C632 1.332 . S
C633 C634 1.267 . S
C634 H602 0.929 . S
C634 C633 1.267 . S
C634 C635 1.251 . S
C635 H605 0.929 . S
C635 N631 1.418 . S
C635 C634 1.251 . S
C636 H603 0.930 . S
C636 C638 1.406 1_565 S
C636 C641 1.261 . S
C637 H604 0.930 . S
C637 N639 1.325 1_565 S
C637 C640 1.357 . S
C638 H606 0.928 . S
C638 C636 1.406 1_545 S
C638 N639 1.261 . S
N639 Co590 2.214 . S
N639 C637 1.325 1_545 S
N639 C638 1.261 . S
C640 H610 0.931 . S
C640 C637 1.357 . S
C640 C641 1.312 . S
C641 H612 0.930 . S
C641 C636 1.261 . S
C641 C640 1.312 . S
C642 O614 1.214 . S
C642 O622 1.234 . S
C643 H615 0.929 . S
C643 C646 1.391 . S
C643 C648 1.391 . S
C644 H616 0.929 . S
C644 C645 1.390 . S
C644 N647 1.391 . S
C645 H617 0.930 . S
C645 C644 1.390 . S
C645 C646 1.392 . S
C646 H618 0.929 . S
C646 C643 1.391 . S
C646 C645 1.392 . S
N647 Co591 2.257 . S
N647 C644 1.391 . S
N647 C648 1.388 . S
C648 H619 0.930 . S
C648 C643 1.391 . S
C648 N647 1.388 . S
Co649 O651 2.143 . S
Co649 O657 2.074 . S
Co649 O660 2.093 . S
Co649 O673 2.097 . S
Co649 N690 2.151 . S
Co649 N698 2.214 . S
Co650 O651 2.160 . S
Co650 O656 2.058 . S
Co650 O666 2.057 . S
Co650 O681 2.037 . S
Co650 N685 2.145 . S
Co650 N706 2.257 . S
O651 Co649 2.143 . S
O651 Co650 2.160 . S
C652 O653 1.278 . S
C652 O660 1.224 . S
O653 C652 1.278 . S
C654 O655 1.245 . S
C654 O666 1.232 . S
O655 C654 1.245 . S
O656 Co650 2.058 . S
O656 C682 1.269 . S
O657 Co649 2.074 . S
O657 C682 1.257 . S
H658 C683 0.930 . S
H659 C689 0.930 . S
O660 Co649 2.093 . S
O660 C652 1.224 . S
H661 C693 0.929 . S
H662 C695 0.930 . S
H663 C696 0.930 . S
H664 C694 0.929 . S
H665 C697 0.928 . S
O666 Co650 2.057 . S
O666 C654 1.232 . S
H667 C686 0.929 . S
H668 C687 0.929 . S
H669 C699 0.931 . S
H670 C691 0.929 . S
H671 C700 0.930 . S
H672 C692 0.931 . S
O673 Co649 2.097 . S
O673 C701 1.214 . S
H674 C702 0.929 . S
H675 C703 0.929 . S
H676 C704 0.930 . S
H677 C705 0.929 . S
H678 C707 0.930 . S
H679 C684 0.930 . S
H680 C688 0.930 . S
O681 Co650 2.037 . S
O681 C701 1.234 . S
C682 O656 1.269 . S
C682 O657 1.257 . S
C683 H658 0.930 . S
C683 C686 1.388 . S
C683 C688 1.418 . S
C684 H679 0.930 . S
C684 C687 1.404 . S
C684 C688 1.353 . S
N685 Co650 2.145 . S
N685 C686 1.397 . S
N685 C687 1.334 . S
C686 H667 0.929 . S
C686 C683 1.388 . S
C686 N685 1.397 . S
C687 H668 0.929 . S
C687 C684 1.404 . S
C687 N685 1.334 . S
C688 H680 0.930 . S
C688 C683 1.418 . S
C688 C684 1.353 . S
C689 H659 0.930 . S
C689 N690 1.330 . S
C689 C691 1.446 . S
N690 Co649 2.151 . S
N690 C689 1.330 . S
N690 C694 1.418 . S
C691 H670 0.929 . S
C691 C689 1.446 . S
C691 C692 1.332 . S
C692 H672 0.931 . S
C692 C691 1.332 . S
C692 C693 1.267 . S
C693 H661 0.929 . S
C693 C692 1.267 . S
C693 C694 1.251 . S
C694 H664 0.929 . S
C694 N690 1.418 . S
C694 C693 1.251 . S
C695 H662 0.930 . S
C695 C697 1.406 1_455 S
C695 C700 1.261 . S
C696 H663 0.930 . S
C696 N698 1.325 1_455 S
C696 C699 1.357 . S
C697 H665 0.928 . S
C697 C695 1.406 1_655 S
C697 N698 1.261 . S
N698 Co649 2.214 . S
N698 C696 1.325 1_655 S
N698 C697 1.261 . S
C699 H669 0.931 . S
C699 C696 1.357 . S
C699 C700 1.312 . S
C700 H671 0.930 . S
C700 C695 1.261 . S
C700 C699 1.312 . S
C701 O673 1.214 . S
C701 O681 1.234 . S
C702 H674 0.929 . S
C702 C705 1.391 . S
C702 C707 1.391 . S
C703 H675 0.929 . S
C703 C704 1.390 . S
C703 N706 1.391 . S
C704 H676 0.930 . S
C704 C703 1.390 . S
C704 C705 1.392 . S
C705 H677 0.929 . S
C705 C702 1.391 . S
C705 C704 1.392 . S
N706 Co650 2.257 . S
N706 C703 1.391 . S
N706 C707 1.388 . S
C707 H678 0.930 . S
C707 C702 1.391 . S
C707 N706 1.388 . S
Co708 O710 2.143 . S
Co708 O716 2.074 . S
Co708 O719 2.093 . S
Co708 O732 2.097 . S
Co708 N749 2.151 . S
Co708 N757 2.214 . S
Co709 O710 2.160 . S
Co709 O715 2.058 . S
Co709 O725 2.057 . S
Co709 O740 2.037 . S
Co709 N744 2.145 . S
Co709 N765 2.257 . S
O710 Co708 2.143 . S
O710 Co709 2.160 . S
C711 O712 1.278 . S
C711 O719 1.224 . S
O712 C711 1.278 . S
C713 O714 1.245 . S
C713 O725 1.232 . S
O714 C713 1.245 . S
O715 Co709 2.058 . S
O715 C741 1.269 . S
O716 Co708 2.074 . S
O716 C741 1.257 . S
H717 C742 0.930 . S
H718 C748 0.930 . S
O719 Co708 2.093 . S
O719 C711 1.224 . S
H720 C752 0.929 . S
H721 C754 0.930 . S
H722 C755 0.930 . S
H723 C753 0.929 . S
H724 C756 0.928 . S
O725 Co709 2.057 . S
O725 C713 1.232 . S
H726 C745 0.929 . S
H727 C746 0.929 . S
H728 C758 0.931 . S
H729 C750 0.929 . S
H730 C759 0.930 . S
H731 C751 0.931 . S
O732 Co708 2.097 . S
O732 C760 1.214 . S
H733 C761 0.929 . S
H734 C762 0.929 . S
H735 C763 0.930 . S
H736 C764 0.929 . S
H737 C766 0.930 . S
H738 C743 0.930 . S
H739 C747 0.930 . S
O740 Co709 2.037 . S
O740 C760 1.234 . S
C741 O715 1.269 . S
C741 O716 1.257 . S
C742 H717 0.930 . S
C742 C745 1.388 . S
C742 C747 1.418 . S
C743 H738 0.930 . S
C743 C746 1.404 . S
C743 C747 1.353 . S
N744 Co709 2.145 . S
N744 C745 1.397 . S
N744 C746 1.334 . S
C745 H726 0.929 . S
C745 C742 1.388 . S
C745 N744 1.397 . S
C746 H727 0.929 . S
C746 C743 1.404 . S
C746 N744 1.334 . S
C747 H739 0.930 . S
C747 C742 1.418 . S
C747 C743 1.353 . S
C748 H718 0.930 . S
C748 N749 1.330 . S
C748 C750 1.446 . S
N749 Co708 2.151 . S
N749 C748 1.330 . S
N749 C753 1.418 . S
C750 H729 0.929 . S
C750 C748 1.446 . S
C750 C751 1.332 . S
C751 H731 0.931 . S
C751 C750 1.332 . S
C751 C752 1.267 . S
C752 H720 0.929 . S
C752 C751 1.267 . S
C752 C753 1.251 . S
C753 H723 0.929 . S
C753 N749 1.418 . S
C753 C752 1.251 . S
C754 H721 0.930 . S
C754 C756 1.406 . S
C754 C759 1.261 . S
C755 H722 0.930 . S
C755 N757 1.325 . S
C755 C758 1.357 . S
C756 H724 0.928 . S
C756 C754 1.406 . S
C756 N757 1.261 . S
N757 Co708 2.214 . S
N757 C755 1.325 . S
N757 C756 1.261 . S
C758 H728 0.931 . S
C758 C755 1.357 . S
C758 C759 1.312 . S
C759 H730 0.930 . S
C759 C754 1.261 . S
C759 C758 1.312 . S
C760 O732 1.214 . S
C760 O740 1.234 . S
C761 H733 0.929 . S
C761 C764 1.391 . S
C761 C766 1.391 1_455 S
C762 H734 0.929 . S
C762 C763 1.390 . S
C762 N765 1.391 1_455 S
C763 H735 0.930 . S
C763 C762 1.390 . S
C763 C764 1.392 . S
C764 H736 0.929 . S
C764 C761 1.391 . S
C764 C763 1.392 . S
N765 Co709 2.257 . S
N765 C762 1.391 1_655 S
N765 C766 1.388 . S
C766 H737 0.930 . S
C766 C761 1.391 1_655 S
C766 N765 1.388 . S
Co767 O769 2.143 . S
Co767 O775 2.074 . S
Co767 O778 2.093 . S
Co767 O791 2.097 . S
Co767 N808 2.151 . S
Co767 N816 2.214 . S
Co768 O769 2.160 . S
Co768 O774 2.058 . S
Co768 O784 2.057 . S
Co768 O799 2.037 . S
Co768 N803 2.145 . S
Co768 N824 2.257 . S
O769 Co767 2.143 . S
O769 Co768 2.160 . S
C770 O771 1.278 . S
C770 O778 1.224 . S
O771 C770 1.278 . S
C772 O773 1.245 . S
C772 O784 1.232 . S
O773 C772 1.245 . S
O774 Co768 2.058 . S
O774 C800 1.269 . S
O775 Co767 2.074 . S
O775 C800 1.257 . S
H776 C801 0.930 . S
H777 C807 0.930 . S
O778 Co767 2.093 . S
O778 C770 1.224 . S
H779 C811 0.929 . S
H780 C813 0.930 . S
H781 C814 0.930 . S
H782 C812 0.929 . S
H783 C815 0.928 . S
O784 Co768 2.057 . S
O784 C772 1.232 . S
H785 C804 0.929 . S
H786 C805 0.929 . S
H787 C817 0.931 . S
H788 C809 0.929 . S
H789 C818 0.930 . S
H790 C810 0.931 . S
O791 Co767 2.097 . S
O791 C819 1.214 . S
H792 C820 0.929 . S
H793 C821 0.929 . S
H794 C822 0.930 . S
H795 C823 0.929 . S
H796 C825 0.930 . S
H797 C802 0.930 . S
H798 C806 0.930 . S
O799 Co768 2.037 . S
O799 C819 1.234 . S
C800 O774 1.269 . S
C800 O775 1.257 . S
C801 H776 0.930 . S
C801 C804 1.388 . S
C801 C806 1.418 . S
C802 H797 0.930 . S
C802 C805 1.404 . S
C802 C806 1.353 . S
N803 Co768 2.145 . S
N803 C804 1.397 . S
N803 C805 1.334 . S
C804 H785 0.929 . S
C804 C801 1.388 . S
C804 N803 1.397 . S
C805 H786 0.929 . S
C805 C802 1.404 . S
C805 N803 1.334 . S
C806 H798 0.930 . S
C806 C801 1.418 . S
C806 C802 1.353 . S
C807 H777 0.930 . S
C807 N808 1.330 . S
C807 C809 1.446 . S
N808 Co767 2.151 . S
N808 C807 1.330 . S
N808 C812 1.418 . S
C809 H788 0.929 . S
C809 C807 1.446 . S
C809 C810 1.332 . S
C810 H790 0.931 . S
C810 C809 1.332 . S
C810 C811 1.267 . S
C811 H779 0.929 . S
C811 C810 1.267 . S
C811 C812 1.251 . S
C812 H782 0.929 . S
C812 N808 1.418 . S
C812 C811 1.251 . S
C813 H780 0.930 . S
C813 C815 1.406 . S
C813 C818 1.261 . S
C814 H781 0.930 . S
C814 N816 1.325 . S
C814 C817 1.357 . S
C815 H783 0.928 . S
C815 C813 1.406 . S
C815 N816 1.261 . S
N816 Co767 2.214 . S
N816 C814 1.325 . S
N816 C815 1.261 . S
C817 H787 0.931 . S
C817 C814 1.357 . S
C817 C818 1.312 . S
C818 H789 0.930 . S
C818 C813 1.261 . S
C818 C817 1.312 . S
C819 O791 1.214 . S
C819 O799 1.234 . S
C820 H792 0.929 . S
C820 C823 1.391 . S
C820 C825 1.391 . S
C821 H793 0.929 . S
C821 C822 1.390 . S
C821 N824 1.391 . S
C822 H794 0.930 . S
C822 C821 1.390 . S
C822 C823 1.392 . S
C823 H795 0.929 . S
C823 C820 1.391 . S
C823 C822 1.392 . S
N824 Co768 2.257 . S
N824 C821 1.391 . S
N824 C825 1.388 . S
C825 H796 0.930 . S
C825 C820 1.391 . S
C825 N824 1.388 . S
Co826 O828 2.143 . S
Co826 O834 2.074 . S
Co826 O837 2.093 . S
Co826 O850 2.097 . S
Co826 N867 2.151 . S
Co826 N875 2.214 . S
Co827 O828 2.160 . S
Co827 O833 2.058 . S
Co827 O843 2.057 . S
Co827 O858 2.037 . S
Co827 N862 2.145 . S
Co827 N883 2.257 . S
O828 Co826 2.143 . S
O828 Co827 2.160 . S
C829 O830 1.278 . S
C829 O837 1.224 . S
O830 C829 1.278 . S
C831 O832 1.245 . S
C831 O843 1.232 . S
O832 C831 1.245 . S
O833 Co827 2.058 . S
O833 C859 1.269 . S
O834 Co826 2.074 . S
O834 C859 1.257 . S
H835 C860 0.930 . S
H836 C866 0.930 . S
O837 Co826 2.093 . S
O837 C829 1.224 . S
H838 C870 0.929 . S
H839 C872 0.930 . S
H840 C873 0.930 . S
H841 C871 0.929 . S
H842 C874 0.928 . S
O843 Co827 2.057 . S
O843 C831 1.232 . S
H844 C863 0.929 . S
H845 C864 0.929 . S
H846 C876 0.931 . S
H847 C868 0.929 . S
H848 C877 0.930 . S
H849 C869 0.931 . S
O850 Co826 2.097 . S
O850 C878 1.214 . S
H851 C879 0.929 . S
H852 C880 0.929 . S
H853 C881 0.930 . S
H854 C882 0.929 . S
H855 C884 0.930 . S
H856 C861 0.930 . S
H857 C865 0.930 . S
O858 Co827 2.037 . S
O858 C878 1.234 . S
C859 O833 1.269 . S
C859 O834 1.257 . S
C860 H835 0.930 . S
C860 C863 1.388 . S
C860 C865 1.418 . S
C861 H856 0.930 . S
C861 C864 1.404 . S
C861 C865 1.353 . S
N862 Co827 2.145 . S
N862 C863 1.397 . S
N862 C864 1.334 . S
C863 H844 0.929 . S
C863 C860 1.388 . S
C863 N862 1.397 . S
C864 H845 0.929 . S
C864 C861 1.404 . S
C864 N862 1.334 . S
C865 H857 0.930 . S
C865 C860 1.418 . S
C865 C861 1.353 . S
C866 H836 0.930 . S
C866 N867 1.330 . S
C866 C868 1.446 . S
N867 Co826 2.151 . S
N867 C866 1.330 . S
N867 C871 1.418 . S
C868 H847 0.929 . S
C868 C866 1.446 . S
C868 C869 1.332 . S
C869 H849 0.931 . S
C869 C868 1.332 . S
C869 C870 1.267 . S
C870 H838 0.929 . S
C870 C869 1.267 . S
C870 C871 1.251 . S
C871 H841 0.929 . S
C871 N867 1.418 . S
C871 C870 1.251 . S
C872 H839 0.930 . S
C872 C874 1.406 . S
C872 C877 1.261 . S
C873 H840 0.930 . S
C873 N875 1.325 . S
C873 C876 1.357 . S
C874 H842 0.928 . S
C874 C872 1.406 . S
C874 N875 1.261 . S
N875 Co826 2.214 . S
N875 C873 1.325 . S
N875 C874 1.261 . S
C876 H846 0.931 . S
C876 C873 1.357 . S
C876 C877 1.312 . S
C877 H848 0.930 . S
C877 C872 1.261 . S
C877 C876 1.312 . S
C878 O850 1.214 . S
C878 O858 1.234 . S
C879 H851 0.929 . S
C879 C882 1.391 . S
C879 C884 1.391 1_565 S
C880 H852 0.929 . S
C880 C881 1.390 . S
C880 N883 1.391 1_565 S
C881 H853 0.930 . S
C881 C880 1.390 . S
C881 C882 1.392 . S
C882 H854 0.929 . S
C882 C879 1.391 . S
C882 C881 1.392 . S
N883 Co827 2.257 . S
N883 C880 1.391 1_545 S
N883 C884 1.388 . S
C884 H855 0.930 . S
C884 C879 1.391 1_545 S
C884 N883 1.388 . S
Co885 O887 2.143 . S
Co885 O893 2.074 . S
Co885 O896 2.093 . S
Co885 O909 2.097 . S
Co885 N926 2.151 . S
Co885 N934 2.214 . S
Co886 O887 2.160 . S
Co886 O892 2.058 . S
Co886 O902 2.057 . S
Co886 O917 2.037 . S
Co886 N921 2.145 . S
Co886 N942 2.257 . S
O887 Co885 2.143 . S
O887 Co886 2.160 . S
C888 O889 1.278 . S
C888 O896 1.224 . S
O889 C888 1.278 . S
C890 O891 1.245 . S
C890 O902 1.232 . S
O891 C890 1.245 . S
O892 Co886 2.058 . S
O892 C918 1.269 . S
O893 Co885 2.074 . S
O893 C918 1.257 . S
H894 C919 0.930 . S
H895 C925 0.930 . S
O896 Co885 2.093 . S
O896 C888 1.224 . S
H897 C929 0.929 . S
H898 C931 0.930 . S
H899 C932 0.930 . S
H900 C930 0.929 . S
H901 C933 0.928 . S
O902 Co886 2.057 . S
O902 C890 1.232 . S
H903 C922 0.929 . S
H904 C923 0.929 . S
H905 C935 0.931 . S
H906 C927 0.929 . S
H907 C936 0.930 . S
H908 C928 0.931 . S
O909 Co885 2.097 . S
O909 C937 1.214 . S
H910 C938 0.929 . S
H911 C939 0.929 . S
H912 C940 0.930 . S
H913 C941 0.929 . S
H914 C943 0.930 . S
H915 C920 0.930 . S
H916 C924 0.930 . S
O917 Co886 2.037 . S
O917 C937 1.234 . S
C918 O892 1.269 . S
C918 O893 1.257 . S
C919 H894 0.930 . S
C919 C922 1.388 . S
C919 C924 1.418 . S
C920 H915 0.930 . S
C920 C923 1.404 . S
C920 C924 1.353 . S
N921 Co886 2.145 . S
N921 C922 1.397 . S
N921 C923 1.334 . S
C922 H903 0.929 . S
C922 C919 1.388 . S
C922 N921 1.397 . S
C923 H904 0.929 . S
C923 C920 1.404 . S
C923 N921 1.334 . S
C924 H916 0.930 . S
C924 C919 1.418 . S
C924 C920 1.353 . S
C925 H895 0.930 . S
C925 N926 1.330 . S
C925 C927 1.446 . S
N926 Co885 2.151 . S
N926 C925 1.330 . S
N926 C930 1.418 . S
C927 H906 0.929 . S
C927 C925 1.446 . S
C927 C928 1.332 . S
C928 H908 0.931 . S
C928 C927 1.332 . S
C928 C929 1.267 . S
C929 H897 0.929 . S
C929 C928 1.267 . S
C929 C930 1.251 . S
C930 H900 0.929 . S
C930 N926 1.418 . S
C930 C929 1.251 . S
C931 H898 0.930 . S
C931 C933 1.406 . S
C931 C936 1.261 . S
C932 H899 0.930 . S
C932 N934 1.325 . S
C932 C935 1.357 . S
C933 H901 0.928 . S
C933 C931 1.406 . S
C933 N934 1.261 . S
N934 Co885 2.214 . S
N934 C932 1.325 . S
N934 C933 1.261 . S
C935 H905 0.931 . S
C935 C932 1.357 . S
C935 C936 1.312 . S
C936 H907 0.930 . S
C936 C931 1.261 . S
C936 C935 1.312 . S
C937 O909 1.214 . S
C937 O917 1.234 . S
C938 H910 0.929 . S
C938 C941 1.391 . S
C938 C943 1.391 . S
C939 H911 0.929 . S
C939 C940 1.390 . S
C939 N942 1.391 . S
C940 H912 0.930 . S
C940 C939 1.390 . S
C940 C941 1.392 . S
C941 H913 0.929 . S
C941 C938 1.391 . S
C941 C940 1.392 . S
N942 Co886 2.257 . S
N942 C939 1.391 . S
N942 C943 1.388 . S
C943 H914 0.930 . S
C943 C938 1.391 . S
C943 N942 1.388 . S
Co944 O946 2.143 . S
Co944 O952 2.074 . S
Co944 O955 2.093 . S
Co944 O968 2.097 . S
Co944 N985 2.151 . S
Co944 N993 2.214 . S
Co945 O946 2.160 . S
Co945 O951 2.058 . S
Co945 O961 2.057 . S
Co945 O976 2.037 . S
Co945 N980 2.145 . S
Co945 N1001 2.257 . S
O946 Co944 2.143 . S
O946 Co945 2.160 . S
C947 O948 1.278 . S
C947 O955 1.224 . S
O948 C947 1.278 . S
C949 O950 1.245 . S
C949 O961 1.232 . S
O950 C949 1.245 . S
O951 Co945 2.058 . S
O951 C977 1.269 . S
O952 Co944 2.074 . S
O952 C977 1.257 . S
H953 C978 0.930 . S
H954 C984 0.930 . S
O955 Co944 2.093 . S
O955 C947 1.224 . S
H956 C988 0.929 . S
H957 C990 0.930 . S
H958 C991 0.930 . S
H959 C989 0.929 . S
H960 C992 0.928 . S
O961 Co945 2.057 . S
O961 C949 1.232 . S
H962 C981 0.929 . S
H963 C982 0.929 . S
H964 C994 0.931 . S
H965 C986 0.929 . S
H966 C995 0.930 . S
H967 C987 0.931 . S
O968 Co944 2.097 . S
O968 C996 1.214 . S
H969 C997 0.929 . S
H970 C998 0.929 . S
H971 C999 0.930 . S
H972 C1000 0.929 . S
H973 C1002 0.930 . S
H974 C979 0.930 . S
H975 C983 0.930 . S
O976 Co945 2.037 . S
O976 C996 1.234 . S
C977 O951 1.269 . S
C977 O952 1.257 . S
C978 H953 0.930 . S
C978 C981 1.388 . S
C978 C983 1.418 . S
C979 H974 0.930 . S
C979 C982 1.404 . S
C979 C983 1.353 . S
N980 Co945 2.145 . S
N980 C981 1.397 . S
N980 C982 1.334 . S
C981 H962 0.929 . S
C981 C978 1.388 . S
C981 N980 1.397 . S
C982 H963 0.929 . S
C982 C979 1.404 . S
C982 N980 1.334 . S
C983 H975 0.930 . S
C983 C978 1.418 . S
C983 C979 1.353 . S
C984 H954 0.930 . S
C984 N985 1.330 . S
C984 C986 1.446 . S
N985 Co944 2.151 . S
N985 C984 1.330 . S
N985 C989 1.418 . S
C986 H965 0.929 . S
C986 C984 1.446 . S
C986 C987 1.332 . S
C987 H967 0.931 . S
C987 C986 1.332 . S
C987 C988 1.267 . S
C988 H956 0.929 . S
C988 C987 1.267 . S
C988 C989 1.251 . S
C989 H959 0.929 . S
C989 N985 1.418 . S
C989 C988 1.251 . S
C990 H957 0.930 . S
C990 C992 1.406 . S
C990 C995 1.261 . S
C991 H958 0.930 . S
C991 N993 1.325 . S
C991 C994 1.357 . S
C992 H960 0.928 . S
C992 C990 1.406 . S
C992 N993 1.261 . S
N993 Co944 2.214 . S
N993 C991 1.325 . S
N993 C992 1.261 . S
C994 H964 0.931 . S
C994 C991 1.357 . S
C994 C995 1.312 . S
C995 H966 0.930 . S
C995 C990 1.261 . S
C995 C994 1.312 . S
C996 O968 1.214 . S
C996 O976 1.234 . S
C997 H969 0.929 . S
C997 C1000 1.391 . S
C997 C1002 1.391 . S
C998 H970 0.929 . S
C998 C999 1.390 . S
C998 N1001 1.391 . S
C999 H971 0.930 . S
C999 C998 1.390 . S
C999 C1000 1.392 . S
C1000 H972 0.929 . S
C1000 C997 1.391 . S
C1000 C999 1.392 . S
N1001 Co945 2.257 . S
N1001 C998 1.391 . S
N1001 C1002 1.388 . S
C1002 H973 0.930 . S
C1002 C997 1.391 . S
C1002 N1001 1.388 . S
Co1003 O1005 2.143 . S
Co1003 O1011 2.074 . S
Co1003 O1014 2.093 . S
Co1003 O1027 2.097 . S
Co1003 N1044 2.151 . S
Co1003 N1052 2.214 . S
Co1004 O1005 2.160 . S
Co1004 O1010 2.058 . S
Co1004 O1020 2.057 . S
Co1004 O1035 2.037 . S
Co1004 N1039 2.145 . S
Co1004 N1060 2.257 . S
O1005 Co1003 2.143 . S
O1005 Co1004 2.160 . S
C1006 O1007 1.278 . S
C1006 O1014 1.224 . S
O1007 C1006 1.278 . S
C1008 O1009 1.245 . S
C1008 O1020 1.232 . S
O1009 C1008 1.245 . S
O1010 Co1004 2.058 . S
O1010 C1036 1.269 . S
O1011 Co1003 2.074 . S
O1011 C1036 1.257 . S
H1012 C1037 0.930 . S
H1013 C1043 0.930 . S
O1014 Co1003 2.093 . S
O1014 C1006 1.224 . S
H1015 C1047 0.929 . S
H1016 C1049 0.930 . S
H1017 C1050 0.930 . S
H1018 C1048 0.929 . S
H1019 C1051 0.928 . S
O1020 Co1004 2.057 . S
O1020 C1008 1.232 . S
H1021 C1040 0.929 . S
H1022 C1041 0.929 . S
H1023 C1053 0.931 . S
H1024 C1045 0.929 . S
H1025 C1054 0.930 . S
H1026 C1046 0.931 . S
O1027 Co1003 2.097 . S
O1027 C1055 1.214 . S
H1028 C1056 0.929 . S
H1029 C1057 0.929 . S
H1030 C1058 0.930 . S
H1031 C1059 0.929 . S
H1032 C1061 0.930 . S
H1033 C1038 0.930 . S
H1034 C1042 0.930 . S
O1035 Co1004 2.037 . S
O1035 C1055 1.234 . S
C1036 O1010 1.269 . S
C1036 O1011 1.257 . S
C1037 H1012 0.930 . S
C1037 C1040 1.388 . S
C1037 C1042 1.418 . S
C1038 H1033 0.930 . S
C1038 C1041 1.404 . S
C1038 C1042 1.353 . S
N1039 Co1004 2.145 . S
N1039 C1040 1.397 . S
N1039 C1041 1.334 . S
C1040 H1021 0.929 . S
C1040 C1037 1.388 . S
C1040 N1039 1.397 . S
C1041 H1022 0.929 . S
C1041 C1038 1.404 . S
C1041 N1039 1.334 . S
C1042 H1034 0.930 . S
C1042 C1037 1.418 . S
C1042 C1038 1.353 . S
C1043 H1013 0.930 . S
C1043 N1044 1.330 . S
C1043 C1045 1.446 . S
N1044 Co1003 2.151 . S
N1044 C1043 1.330 . S
N1044 C1048 1.418 . S
C1045 H1024 0.929 . S
C1045 C1043 1.446 . S
C1045 C1046 1.332 . S
C1046 H1026 0.931 . S
C1046 C1045 1.332 . S
C1046 C1047 1.267 . S
C1047 H1015 0.929 . S
C1047 C1046 1.267 . S
C1047 C1048 1.251 . S
C1048 H1018 0.929 . S
C1048 N1044 1.418 . S
C1048 C1047 1.251 . S
C1049 H1016 0.930 . S
C1049 C1051 1.406 . S
C1049 C1054 1.261 . S
C1050 H1017 0.930 . S
C1050 N1052 1.325 . S
C1050 C1053 1.357 . S
C1051 H1019 0.928 . S
C1051 C1049 1.406 . S
C1051 N1052 1.261 . S
N1052 Co1003 2.214 . S
N1052 C1050 1.325 . S
N1052 C1051 1.261 . S
C1053 H1023 0.931 . S
C1053 C1050 1.357 . S
C1053 C1054 1.312 . S
C1054 H1025 0.930 . S
C1054 C1049 1.261 . S
C1054 C1053 1.312 . S
C1055 O1027 1.214 . S
C1055 O1035 1.234 . S
C1056 H1028 0.929 . S
C1056 C1059 1.391 . S
C1056 C1061 1.391 . S
C1057 H1029 0.929 . S
C1057 C1058 1.390 . S
C1057 N1060 1.391 . S
C1058 H1030 0.930 . S
C1058 C1057 1.390 . S
C1058 C1059 1.392 . S
C1059 H1031 0.929 . S
C1059 C1056 1.391 . S
C1059 C1058 1.392 . S
N1060 Co1004 2.257 . S
N1060 C1057 1.391 . S
N1060 C1061 1.388 . S
C1061 H1032 0.930 . S
C1061 C1056 1.391 . S
C1061 N1060 1.388 . S
Co1062 O1064 2.143 . S
Co1062 O1070 2.074 . S
Co1062 O1073 2.093 . S
Co1062 O1086 2.097 . S
Co1062 N1103 2.151 . S
Co1062 N1111 2.214 . S
Co1063 O1064 2.160 . S
Co1063 O1069 2.058 . S
Co1063 O1079 2.057 . S
Co1063 O1094 2.037 . S
Co1063 N1098 2.145 . S
Co1063 N1119 2.257 . S
O1064 Co1062 2.143 . S
O1064 Co1063 2.160 . S
C1065 O1066 1.278 . S
C1065 O1073 1.224 . S
O1066 C1065 1.278 . S
C1067 O1068 1.245 . S
C1067 O1079 1.232 . S
O1068 C1067 1.245 . S
O1069 Co1063 2.058 . S
O1069 C1095 1.269 . S
O1070 Co1062 2.074 . S
O1070 C1095 1.257 . S
H1071 C1096 0.930 . S
H1072 C1102 0.930 . S
O1073 Co1062 2.093 . S
O1073 C1065 1.224 . S
H1074 C1106 0.929 . S
H1075 C1108 0.930 . S
H1076 C1109 0.930 . S
H1077 C1107 0.929 . S
H1078 C1110 0.928 . S
O1079 Co1063 2.057 . S
O1079 C1067 1.232 . S
H1080 C1099 0.929 . S
H1081 C1100 0.929 . S
H1082 C1112 0.931 . S
H1083 C1104 0.929 . S
H1084 C1113 0.930 . S
H1085 C1105 0.931 . S
O1086 Co1062 2.097 . S
O1086 C1114 1.214 . S
H1087 C1115 0.929 . S
H1088 C1116 0.929 . S
H1089 C1117 0.930 . S
H1090 C1118 0.929 . S
H1091 C1120 0.930 . S
H1092 C1097 0.930 . S
H1093 C1101 0.930 . S
O1094 Co1063 2.037 . S
O1094 C1114 1.234 . S
C1095 O1069 1.269 . S
C1095 O1070 1.257 . S
C1096 H1071 0.930 . S
C1096 C1099 1.388 . S
C1096 C1101 1.418 . S
C1097 H1092 0.930 . S
C1097 C1100 1.404 . S
C1097 C1101 1.353 . S
N1098 Co1063 2.145 . S
N1098 C1099 1.397 . S
N1098 C1100 1.334 . S
C1099 H1080 0.929 . S
C1099 C1096 1.388 . S
C1099 N1098 1.397 . S
C1100 H1081 0.929 . S
C1100 C1097 1.404 . S
C1100 N1098 1.334 . S
C1101 H1093 0.930 . S
C1101 C1096 1.418 . S
C1101 C1097 1.353 . S
C1102 H1072 0.930 . S
C1102 N1103 1.330 . S
C1102 C1104 1.446 . S
N1103 Co1062 2.151 . S
N1103 C1102 1.330 . S
N1103 C1107 1.418 . S
C1104 H1083 0.929 . S
C1104 C1102 1.446 . S
C1104 C1105 1.332 . S
C1105 H1085 0.931 . S
C1105 C1104 1.332 . S
C1105 C1106 1.267 . S
C1106 H1074 0.929 . S
C1106 C1105 1.267 . S
C1106 C1107 1.251 . S
C1107 H1077 0.929 . S
C1107 N1103 1.418 . S
C1107 C1106 1.251 . S
C1108 H1075 0.930 . S
C1108 C1110 1.406 . S
C1108 C1113 1.261 . S
C1109 H1076 0.930 . S
C1109 N1111 1.325 . S
C1109 C1112 1.357 . S
C1110 H1078 0.928 . S
C1110 C1108 1.406 . S
C1110 N1111 1.261 . S
N1111 Co1062 2.214 . S
N1111 C1109 1.325 . S
N1111 C1110 1.261 . S
C1112 H1082 0.931 . S
C1112 C1109 1.357 . S
C1112 C1113 1.312 . S
C1113 H1084 0.930 . S
C1113 C1108 1.261 . S
C1113 C1112 1.312 . S
C1114 O1086 1.214 . S
C1114 O1094 1.234 . S
C1115 H1087 0.929 . S
C1115 C1118 1.391 . S
C1115 C1120 1.391 . S
C1116 H1088 0.929 . S
C1116 C1117 1.390 . S
C1116 N1119 1.391 . S
C1117 H1089 0.930 . S
C1117 C1116 1.390 . S
C1117 C1118 1.392 . S
C1118 H1090 0.929 . S
C1118 C1115 1.391 . S
C1118 C1117 1.392 . S
N1119 Co1063 2.257 . S
N1119 C1116 1.391 . S
N1119 C1120 1.388 . S
C1120 H1091 0.930 . S
C1120 C1115 1.391 . S
C1120 N1119 1.388 . S
Co1121 O1123 2.143 . S
Co1121 O1129 2.074 . S
Co1121 O1132 2.093 . S
Co1121 O1145 2.097 . S
Co1121 N1162 2.151 . S
Co1121 N1170 2.214 . S
Co1122 O1123 2.160 . S
Co1122 O1128 2.058 . S
Co1122 O1138 2.057 . S
Co1122 O1153 2.037 . S
Co1122 N1157 2.145 . S
Co1122 N1178 2.257 . S
O1123 Co1121 2.143 . S
O1123 Co1122 2.160 . S
C1124 O1125 1.278 . S
C1124 O1132 1.224 . S
O1125 C1124 1.278 . S
C1126 O1127 1.245 . S
C1126 O1138 1.232 . S
O1127 C1126 1.245 . S
O1128 Co1122 2.058 . S
O1128 C1154 1.269 . S
O1129 Co1121 2.074 . S
O1129 C1154 1.257 . S
H1130 C1155 0.930 . S
H1131 C1161 0.930 . S
O1132 Co1121 2.093 . S
O1132 C1124 1.224 . S
H1133 C1165 0.929 . S
H1134 C1167 0.930 . S
H1135 C1168 0.930 . S
H1136 C1166 0.929 . S
H1137 C1169 0.928 . S
O1138 Co1122 2.057 . S
O1138 C1126 1.232 . S
H1139 C1158 0.929 . S
H1140 C1159 0.929 . S
H1141 C1171 0.931 . S
H1142 C1163 0.929 . S
H1143 C1172 0.930 . S
H1144 C1164 0.931 . S
O1145 Co1121 2.097 . S
O1145 C1173 1.214 . S
H1146 C1174 0.929 . S
H1147 C1175 0.929 . S
H1148 C1176 0.930 . S
H1149 C1177 0.929 . S
H1150 C1179 0.930 . S
H1151 C1156 0.930 . S
H1152 C1160 0.930 . S
O1153 Co1122 2.037 . S
O1153 C1173 1.234 . S
C1154 O1128 1.269 . S
C1154 O1129 1.257 . S
C1155 H1130 0.930 . S
C1155 C1158 1.388 . S
C1155 C1160 1.418 . S
C1156 H1151 0.930 . S
C1156 C1159 1.404 . S
C1156 C1160 1.353 . S
N1157 Co1122 2.145 . S
N1157 C1158 1.397 . S
N1157 C1159 1.334 . S
C1158 H1139 0.929 . S
C1158 C1155 1.388 . S
C1158 N1157 1.397 . S
C1159 H1140 0.929 . S
C1159 C1156 1.404 . S
C1159 N1157 1.334 . S
C1160 H1152 0.930 . S
C1160 C1155 1.418 . S
C1160 C1156 1.353 . S
C1161 H1131 0.930 . S
C1161 N1162 1.330 . S
C1161 C1163 1.446 . S
N1162 Co1121 2.151 . S
N1162 C1161 1.330 . S
N1162 C1166 1.418 . S
C1163 H1142 0.929 . S
C1163 C1161 1.446 . S
C1163 C1164 1.332 . S
C1164 H1144 0.931 . S
C1164 C1163 1.332 . S
C1164 C1165 1.267 . S
C1165 H1133 0.929 . S
C1165 C1164 1.267 . S
C1165 C1166 1.251 . S
C1166 H1136 0.929 . S
C1166 N1162 1.418 . S
C1166 C1165 1.251 . S
C1167 H1134 0.930 . S
C1167 C1169 1.406 . S
C1167 C1172 1.261 . S
C1168 H1135 0.930 . S
C1168 N1170 1.325 . S
C1168 C1171 1.357 . S
C1169 H1137 0.928 . S
C1169 C1167 1.406 . S
C1169 N1170 1.261 . S
N1170 Co1121 2.214 . S
N1170 C1168 1.325 . S
N1170 C1169 1.261 . S
C1171 H1141 0.931 . S
C1171 C1168 1.357 . S
C1171 C1172 1.312 . S
C1172 H1143 0.930 . S
C1172 C1167 1.261 . S
C1172 C1171 1.312 . S
C1173 O1145 1.214 . S
C1173 O1153 1.234 . S
C1174 H1146 0.929 . S
C1174 C1177 1.391 . S
C1174 C1179 1.391 . S
C1175 H1147 0.929 . S
C1175 C1176 1.390 . S
C1175 N1178 1.391 . S
C1176 H1148 0.930 . S
C1176 C1175 1.390 . S
C1176 C1177 1.392 . S
C1177 H1149 0.929 . S
C1177 C1174 1.391 . S
C1177 C1176 1.392 . S
N1178 Co1122 2.257 . S
N1178 C1175 1.391 . S
N1178 C1179 1.388 . S
C1179 H1150 0.930 . S
C1179 C1174 1.391 . S
C1179 N1178 1.388 . S
Co1180 O1182 2.143 . S
Co1180 O1188 2.074 . S
Co1180 O1191 2.093 . S
Co1180 O1204 2.097 . S
Co1180 N1221 2.151 . S
Co1180 N1229 2.214 . S
Co1181 O1182 2.160 . S
Co1181 O1187 2.058 . S
Co1181 O1197 2.057 . S
Co1181 O1212 2.037 . S
Co1181 N1216 2.145 . S
Co1181 N1237 2.257 . S
O1182 Co1180 2.143 . S
O1182 Co1181 2.160 . S
C1183 O1184 1.278 . S
C1183 O1191 1.224 . S
O1184 C1183 1.278 . S
C1185 O1186 1.245 . S
C1185 O1197 1.232 . S
O1186 C1185 1.245 . S
O1187 Co1181 2.058 . S
O1187 C1213 1.269 . S
O1188 Co1180 2.074 . S
O1188 C1213 1.257 . S
H1189 C1214 0.930 . S
H1190 C1220 0.930 . S
O1191 Co1180 2.093 . S
O1191 C1183 1.224 . S
H1192 C1224 0.929 . S
H1193 C1226 0.930 . S
H1194 C1227 0.930 . S
H1195 C1225 0.929 . S
H1196 C1228 0.928 . S
O1197 Co1181 2.057 . S
O1197 C1185 1.232 . S
H1198 C1217 0.929 . S
H1199 C1218 0.929 . S
H1200 C1230 0.931 . S
H1201 C1222 0.929 . S
H1202 C1231 0.930 . S
H1203 C1223 0.931 . S
O1204 Co1180 2.097 . S
O1204 C1232 1.214 . S
H1205 C1233 0.929 . S
H1206 C1234 0.929 . S
H1207 C1235 0.930 . S
H1208 C1236 0.929 . S
H1209 C1238 0.930 . S
H1210 C1215 0.930 . S
H1211 C1219 0.930 . S
O1212 Co1181 2.037 . S
O1212 C1232 1.234 . S
C1213 O1187 1.269 . S
C1213 O1188 1.257 . S
C1214 H1189 0.930 . S
C1214 C1217 1.388 . S
C1214 C1219 1.418 . S
C1215 H1210 0.930 . S
C1215 C1218 1.404 . S
C1215 C1219 1.353 . S
N1216 Co1181 2.145 . S
N1216 C1217 1.397 . S
N1216 C1218 1.334 . S
C1217 H1198 0.929 . S
C1217 C1214 1.388 . S
C1217 N1216 1.397 . S
C1218 H1199 0.929 . S
C1218 C1215 1.404 . S
C1218 N1216 1.334 . S
C1219 H1211 0.930 . S
C1219 C1214 1.418 . S
C1219 C1215 1.353 . S
C1220 H1190 0.930 . S
C1220 N1221 1.330 . S
C1220 C1222 1.446 . S
N1221 Co1180 2.151 . S
N1221 C1220 1.330 . S
N1221 C1225 1.418 . S
C1222 H1201 0.929 . S
C1222 C1220 1.446 . S
C1222 C1223 1.332 . S
C1223 H1203 0.931 . S
C1223 C1222 1.332 . S
C1223 C1224 1.267 . S
C1224 H1192 0.929 . S
C1224 C1223 1.267 . S
C1224 C1225 1.251 . S
C1225 H1195 0.929 . S
C1225 N1221 1.418 . S
C1225 C1224 1.251 . S
C1226 H1193 0.930 . S
C1226 C1228 1.406 . S
C1226 C1231 1.261 . S
C1227 H1194 0.930 . S
C1227 N1229 1.325 . S
C1227 C1230 1.357 . S
C1228 H1196 0.928 . S
C1228 C1226 1.406 . S
C1228 N1229 1.261 . S
N1229 Co1180 2.214 . S
N1229 C1227 1.325 . S
N1229 C1228 1.261 . S
C1230 H1200 0.931 . S
C1230 C1227 1.357 . S
C1230 C1231 1.312 . S
C1231 H1202 0.930 . S
C1231 C1226 1.261 . S
C1231 C1230 1.312 . S
C1232 O1204 1.214 . S
C1232 O1212 1.234 . S
C1233 H1205 0.929 . S
C1233 C1236 1.391 . S
C1233 C1238 1.391 . S
C1234 H1206 0.929 . S
C1234 C1235 1.390 . S
C1234 N1237 1.391 . S
C1235 H1207 0.930 . S
C1235 C1234 1.390 . S
C1235 C1236 1.392 . S
C1236 H1208 0.929 . S
C1236 C1233 1.391 . S
C1236 C1235 1.392 . S
N1237 Co1181 2.257 . S
N1237 C1234 1.391 . S
N1237 C1238 1.388 . S
C1238 H1209 0.930 . S
C1238 C1233 1.391 . S
C1238 N1237 1.388 . S
Co1239 O1241 2.143 . S
Co1239 O1247 2.074 . S
Co1239 O1250 2.093 . S
Co1239 O1263 2.097 . S
Co1239 N1280 2.151 . S
Co1239 N1288 2.214 . S
Co1240 O1241 2.160 . S
Co1240 O1246 2.058 . S
Co1240 O1256 2.057 . S
Co1240 O1271 2.037 . S
Co1240 N1275 2.145 . S
Co1240 N1296 2.257 . S
O1241 Co1239 2.143 . S
O1241 Co1240 2.160 . S
C1242 O1243 1.278 . S
C1242 O1250 1.224 . S
O1243 C1242 1.278 . S
C1244 O1245 1.245 . S
C1244 O1256 1.232 . S
O1245 C1244 1.245 . S
O1246 Co1240 2.058 . S
O1246 C1272 1.269 . S
O1247 Co1239 2.074 . S
O1247 C1272 1.257 . S
H1248 C1273 0.930 . S
H1249 C1279 0.930 . S
O1250 Co1239 2.093 . S
O1250 C1242 1.224 . S
H1251 C1283 0.929 . S
H1252 C1285 0.927 . S
H1253 C1286 0.930 . S
H1254 C1284 0.929 . S
H1255 C1287 0.928 . S
O1256 Co1240 2.057 . S
O1256 C1244 1.232 . S
H1257 C1276 0.929 . S
H1258 C1277 0.929 . S
H1259 C1289 0.931 . S
H1260 C1281 0.929 . S
H1261 C1290 0.930 . S
H1262 C1282 0.931 . S
O1263 Co1239 2.097 . S
O1263 C1291 1.214 . S
H1264 C1292 0.929 . S
H1265 C1293 0.929 . S
H1266 C1294 0.930 . S
H1267 C1295 0.929 . S
H1268 C1297 0.930 . S
H1269 C1274 0.930 . S
H1270 C1278 0.930 . S
O1271 Co1240 2.037 . S
O1271 C1291 1.234 . S
C1272 O1246 1.269 . S
C1272 O1247 1.257 . S
C1273 H1248 0.930 . S
C1273 C1276 1.388 . S
C1273 C1278 1.418 . S
C1274 H1269 0.930 . S
C1274 C1277 1.404 . S
C1274 C1278 1.353 . S
N1275 Co1240 2.145 . S
N1275 C1276 1.397 . S
N1275 C1277 1.334 . S
C1276 H1257 0.929 . S
C1276 C1273 1.388 . S
C1276 N1275 1.397 . S
C1277 H1258 0.929 . S
C1277 C1274 1.404 . S
C1277 N1275 1.334 . S
C1278 H1270 0.930 . S
C1278 C1273 1.418 . S
C1278 C1274 1.353 . S
C1279 H1249 0.930 . S
C1279 N1280 1.330 . S
C1279 C1281 1.446 . S
N1280 Co1239 2.151 . S
N1280 C1279 1.330 . S
N1280 C1284 1.418 . S
C1281 H1260 0.929 . S
C1281 C1279 1.446 . S
C1281 C1282 1.332 . S
C1282 H1262 0.931 . S
C1282 C1281 1.332 . S
C1282 C1283 1.267 . S
C1283 H1251 0.929 . S
C1283 C1282 1.267 . S
C1283 C1284 1.251 . S
C1284 H1254 0.929 . S
C1284 N1280 1.418 . S
C1284 C1283 1.251 . S
C1285 H1252 0.927 . S
C1285 C1287 1.406 . S
C1285 C1290 1.261 . S
C1286 H1253 0.930 . S
C1286 N1288 1.325 . S
C1286 C1289 1.357 . S
C1287 H1255 0.928 . S
C1287 C1285 1.406 . S
C1287 N1288 1.261 . S
N1288 Co1239 2.214 . S
N1288 C1286 1.325 . S
N1288 C1287 1.261 . S
C1289 H1259 0.931 . S
C1289 C1286 1.357 . S
C1289 C1290 1.312 . S
C1290 H1261 0.930 . S
C1290 C1285 1.261 . S
C1290 C1289 1.312 . S
C1291 O1263 1.214 . S
C1291 O1271 1.234 . S
C1292 H1264 0.929 . S
C1292 C1295 1.391 . S
C1292 C1297 1.391 1_565 S
C1293 H1265 0.929 . S
C1293 C1294 1.390 . S
C1293 N1296 1.391 1_565 S
C1294 H1266 0.930 . S
C1294 C1293 1.390 . S
C1294 C1295 1.392 . S
C1295 H1267 0.929 . S
C1295 C1292 1.391 . S
C1295 C1294 1.392 . S
N1296 Co1240 2.257 . S
N1296 C1293 1.391 1_545 S
N1296 C1297 1.388 . S
C1297 H1268 0.930 . S
C1297 C1292 1.391 1_545 S
C1297 N1296 1.388 . S
Co1298 O1300 2.143 . S
Co1298 O1306 2.074 . S
Co1298 O1309 2.093 . S
Co1298 O1322 2.097 . S
Co1298 N1339 2.151 . S
Co1298 N1347 2.214 . S
Co1299 O1300 2.160 . S
Co1299 O1305 2.058 . S
Co1299 O1315 2.057 . S
Co1299 O1330 2.037 . S
Co1299 N1334 2.145 . S
Co1299 N1355 2.257 . S
O1300 Co1298 2.143 . S
O1300 Co1299 2.160 . S
C1301 O1302 1.278 . S
C1301 O1309 1.224 . S
O1302 C1301 1.278 . S
C1303 O1304 1.245 . S
C1303 O1315 1.232 . S
O1304 C1303 1.245 . S
O1305 Co1299 2.058 . S
O1305 C1331 1.269 . S
O1306 Co1298 2.074 . S
O1306 C1331 1.257 . S
H1307 C1332 0.930 . S
H1308 C1338 0.930 . S
O1309 Co1298 2.093 . S
O1309 C1301 1.224 . S
H1310 C1342 0.929 . S
H1311 C1344 0.927 . S
H1312 C1345 0.930 . S
H1313 C1343 0.929 . S
H1314 C1346 0.928 . S
O1315 Co1299 2.057 . S
O1315 C1303 1.232 . S
H1316 C1335 0.929 . S
H1317 C1336 0.929 . S
H1318 C1348 0.931 . S
H1319 C1340 0.929 . S
H1320 C1349 0.930 . S
H1321 C1341 0.931 . S
O1322 Co1298 2.097 . S
O1322 C1350 1.214 . S
H1323 C1351 0.929 . S
H1324 C1352 0.929 . S
H1325 C1353 0.930 . S
H1326 C1354 0.929 . S
H1327 C1356 0.930 . S
H1328 C1333 0.930 . S
H1329 C1337 0.930 . S
O1330 Co1299 2.037 . S
O1330 C1350 1.234 . S
C1331 O1305 1.269 . S
C1331 O1306 1.257 . S
C1332 H1307 0.930 . S
C1332 C1335 1.388 . S
C1332 C1337 1.418 . S
C1333 H1328 0.930 . S
C1333 C1336 1.404 . S
C1333 C1337 1.353 . S
N1334 Co1299 2.145 . S
N1334 C1335 1.397 . S
N1334 C1336 1.334 . S
C1335 H1316 0.929 . S
C1335 C1332 1.388 . S
C1335 N1334 1.397 . S
C1336 H1317 0.929 . S
C1336 C1333 1.404 . S
C1336 N1334 1.334 . S
C1337 H1329 0.930 . S
C1337 C1332 1.418 . S
C1337 C1333 1.353 . S
C1338 H1308 0.930 . S
C1338 N1339 1.330 . S
C1338 C1340 1.446 . S
N1339 Co1298 2.151 . S
N1339 C1338 1.330 . S
N1339 C1343 1.418 . S
C1340 H1319 0.929 . S
C1340 C1338 1.446 . S
C1340 C1341 1.332 . S
C1341 H1321 0.931 . S
C1341 C1340 1.332 . S
C1341 C1342 1.267 . S
C1342 H1310 0.929 . S
C1342 C1341 1.267 . S
C1342 C1343 1.251 . S
C1343 H1313 0.929 . S
C1343 N1339 1.418 . S
C1343 C1342 1.251 . S
C1344 H1311 0.927 . S
C1344 C1346 1.406 . S
C1344 C1349 1.261 . S
C1345 H1312 0.930 . S
C1345 N1347 1.325 . S
C1345 C1348 1.357 . S
C1346 H1314 0.928 . S
C1346 C1344 1.406 . S
C1346 N1347 1.261 . S
N1347 Co1298 2.214 . S
N1347 C1345 1.325 . S
N1347 C1346 1.261 . S
C1348 H1318 0.931 . S
C1348 C1345 1.357 . S
C1348 C1349 1.312 . S
C1349 H1320 0.930 . S
C1349 C1344 1.261 . S
C1349 C1348 1.312 . S
C1350 O1322 1.214 . S
C1350 O1330 1.234 . S
C1351 H1323 0.929 . S
C1351 C1354 1.391 . S
C1351 C1356 1.391 1_455 S
C1352 H1324 0.929 . S
C1352 C1353 1.390 . S
C1352 N1355 1.391 1_455 S
C1353 H1325 0.930 . S
C1353 C1352 1.390 . S
C1353 C1354 1.392 . S
C1354 H1326 0.929 . S
C1354 C1351 1.391 . S
C1354 C1353 1.392 . S
N1355 Co1299 2.257 . S
N1355 C1352 1.391 1_655 S
N1355 C1356 1.388 . S
C1356 H1327 0.930 . S
C1356 C1351 1.391 1_655 S
C1356 N1355 1.388 . S
Co1357 O1359 2.143 . S
Co1357 O1365 2.074 . S
Co1357 O1368 2.093 . S
Co1357 O1381 2.097 . S
Co1357 N1398 2.151 . S
Co1357 N1406 2.214 . S
Co1358 O1359 2.160 . S
Co1358 O1364 2.058 . S
Co1358 O1374 2.057 . S
Co1358 O1389 2.037 . S
Co1358 N1393 2.145 . S
Co1358 N1414 2.257 . S
O1359 Co1357 2.143 . S
O1359 Co1358 2.160 . S
C1360 O1361 1.278 . S
C1360 O1368 1.224 . S
O1361 C1360 1.278 . S
C1362 O1363 1.245 . S
C1362 O1374 1.232 . S
O1363 C1362 1.245 . S
O1364 Co1358 2.058 . S
O1364 C1390 1.269 . S
O1365 Co1357 2.074 . S
O1365 C1390 1.257 . S
H1366 C1391 0.930 . S
H1367 C1397 0.930 . S
O1368 Co1357 2.093 . S
O1368 C1360 1.224 . S
H1369 C1401 0.929 . S
H1370 C1403 0.927 . S
H1371 C1404 0.930 . S
H1372 C1402 0.929 . S
H1373 C1405 0.928 . S
O1374 Co1358 2.057 . S
O1374 C1362 1.232 . S
H1375 C1394 0.929 . S
H1376 C1395 0.929 . S
H1377 C1407 0.931 . S
H1378 C1399 0.929 . S
H1379 C1408 0.930 . S
H1380 C1400 0.931 . S
O1381 Co1357 2.097 . S
O1381 C1409 1.214 . S
H1382 C1410 0.929 . S
H1383 C1411 0.929 . S
H1384 C1412 0.930 . S
H1385 C1413 0.929 . S
H1386 C1415 0.930 . S
H1387 C1392 0.930 . S
H1388 C1396 0.930 . S
O1389 Co1358 2.037 . S
O1389 C1409 1.234 . S
C1390 O1364 1.269 . S
C1390 O1365 1.257 . S
C1391 H1366 0.930 . S
C1391 C1394 1.388 . S
C1391 C1396 1.418 . S
C1392 H1387 0.930 . S
C1392 C1395 1.404 . S
C1392 C1396 1.353 . S
N1393 Co1358 2.145 . S
N1393 C1394 1.397 . S
N1393 C1395 1.334 . S
C1394 H1375 0.929 . S
C1394 C1391 1.388 . S
C1394 N1393 1.397 . S
C1395 H1376 0.929 . S
C1395 C1392 1.404 . S
C1395 N1393 1.334 . S
C1396 H1388 0.930 . S
C1396 C1391 1.418 . S
C1396 C1392 1.353 . S
C1397 H1367 0.930 . S
C1397 N1398 1.330 . S
C1397 C1399 1.446 . S
N1398 Co1357 2.151 . S
N1398 C1397 1.330 . S
N1398 C1402 1.418 . S
C1399 H1378 0.929 . S
C1399 C1397 1.446 . S
C1399 C1400 1.332 . S
C1400 H1380 0.931 . S
C1400 C1399 1.332 . S
C1400 C1401 1.267 . S
C1401 H1369 0.929 . S
C1401 C1400 1.267 . S
C1401 C1402 1.251 . S
C1402 H1372 0.929 . S
C1402 N1398 1.418 . S
C1402 C1401 1.251 . S
C1403 H1370 0.927 . S
C1403 C1405 1.406 . S
C1403 C1408 1.261 . S
C1404 H1371 0.930 . S
C1404 N1406 1.325 . S
C1404 C1407 1.357 . S
C1405 H1373 0.928 . S
C1405 C1403 1.406 . S
C1405 N1406 1.261 . S
N1406 Co1357 2.214 . S
N1406 C1404 1.325 . S
N1406 C1405 1.261 . S
C1407 H1377 0.931 . S
C1407 C1404 1.357 . S
C1407 C1408 1.312 . S
C1408 H1379 0.930 . S
C1408 C1403 1.261 . S
C1408 C1407 1.312 . S
C1409 O1381 1.214 . S
C1409 O1389 1.234 . S
C1410 H1382 0.929 . S
C1410 C1413 1.391 . S
C1410 C1415 1.391 . S
C1411 H1383 0.929 . S
C1411 C1412 1.390 . S
C1411 N1414 1.391 . S
C1412 H1384 0.930 . S
C1412 C1411 1.390 . S
C1412 C1413 1.392 . S
C1413 H1385 0.929 . S
C1413 C1410 1.391 . S
C1413 C1412 1.392 . S
N1414 Co1358 2.257 . S
N1414 C1411 1.391 . S
N1414 C1415 1.388 . S
C1415 H1386 0.930 . S
C1415 C1410 1.391 . S
C1415 N1414 1.388 . S
Co1416 O1418 2.143 . S
Co1416 O1424 2.074 . S
Co1416 O1427 2.093 . S
Co1416 O1440 2.097 . S
Co1416 N1457 2.151 . S
Co1416 N1465 2.214 . S
Co1417 O1418 2.160 . S
Co1417 O1423 2.058 . S
Co1417 O1433 2.057 . S
Co1417 O1448 2.037 . S
Co1417 N1452 2.145 . S
Co1417 N1473 2.257 . S
O1418 Co1416 2.143 . S
O1418 Co1417 2.160 . S
C1419 O1420 1.278 . S
C1419 O1427 1.224 . S
O1420 C1419 1.278 . S
C1421 O1422 1.245 . S
C1421 O1433 1.232 . S
O1422 C1421 1.245 . S
O1423 Co1417 2.058 . S
O1423 C1449 1.269 . S
O1424 Co1416 2.074 . S
O1424 C1449 1.257 . S
H1425 C1450 0.930 . S
H1426 C1456 0.930 . S
O1427 Co1416 2.093 . S
O1427 C1419 1.224 . S
H1428 C1460 0.929 . S
H1429 C1462 0.930 . S
H1430 C1463 0.930 . S
H1431 C1461 0.929 . S
H1432 C1464 0.928 . S
O1433 Co1417 2.057 . S
O1433 C1421 1.232 . S
H1434 C1453 0.929 . S
H1435 C1454 0.929 . S
H1436 C1466 0.931 . S
H1437 C1458 0.929 . S
H1438 C1467 0.930 . S
H1439 C1459 0.931 . S
O1440 Co1416 2.097 . S
O1440 C1468 1.214 . S
H1441 C1469 0.929 . S
H1442 C1470 0.929 . S
H1443 C1471 0.930 . S
H1444 C1472 0.929 . S
H1445 C1474 0.930 . S
H1446 C1451 0.930 . S
H1447 C1455 0.930 . S
O1448 Co1417 2.037 . S
O1448 C1468 1.234 . S
C1449 O1423 1.269 . S
C1449 O1424 1.257 . S
C1450 H1425 0.930 . S
C1450 C1453 1.388 . S
C1450 C1455 1.418 . S
C1451 H1446 0.930 . S
C1451 C1454 1.404 . S
C1451 C1455 1.353 . S
N1452 Co1417 2.145 . S
N1452 C1453 1.397 . S
N1452 C1454 1.334 . S
C1453 H1434 0.929 . S
C1453 C1450 1.388 . S
C1453 N1452 1.397 . S
C1454 H1435 0.929 . S
C1454 C1451 1.404 . S
C1454 N1452 1.334 . S
C1455 H1447 0.930 . S
C1455 C1450 1.418 . S
C1455 C1451 1.353 . S
C1456 H1426 0.930 . S
C1456 N1457 1.330 . S
C1456 C1458 1.446 . S
N1457 Co1416 2.151 . S
N1457 C1456 1.330 . S
N1457 C1461 1.418 . S
C1458 H1437 0.929 . S
C1458 C1456 1.446 . S
C1458 C1459 1.332 . S
C1459 H1439 0.931 . S
C1459 C1458 1.332 . S
C1459 C1460 1.267 . S
C1460 H1428 0.929 . S
C1460 C1459 1.267 . S
C1460 C1461 1.251 . S
C1461 H1431 0.929 . S
C1461 N1457 1.418 . S
C1461 C1460 1.251 . S
C1462 H1429 0.930 . S
C1462 C1464 1.406 . S
C1462 C1467 1.261 . S
C1463 H1430 0.930 . S
C1463 N1465 1.325 . S
C1463 C1466 1.357 . S
C1464 H1432 0.928 . S
C1464 C1462 1.406 . S
C1464 N1465 1.261 . S
N1465 Co1416 2.214 . S
N1465 C1463 1.325 . S
N1465 C1464 1.261 . S
C1466 H1436 0.931 . S
C1466 C1463 1.357 . S
C1466 C1467 1.312 . S
C1467 H1438 0.930 . S
C1467 C1462 1.261 . S
C1467 C1466 1.312 . S
C1468 O1440 1.214 . S
C1468 O1448 1.234 . S
C1469 H1441 0.929 . S
C1469 C1472 1.391 . S
C1469 C1474 1.391 . S
C1470 H1442 0.929 . S
C1470 C1471 1.390 . S
C1470 N1473 1.391 . S
C1471 H1443 0.930 . S
C1471 C1470 1.390 . S
C1471 C1472 1.392 . S
C1472 H1444 0.929 . S
C1472 C1469 1.391 . S
C1472 C1471 1.392 . S
N1473 Co1417 2.257 . S
N1473 C1470 1.391 . S
N1473 C1474 1.388 . S
C1474 H1445 0.930 . S
C1474 C1469 1.391 . S
C1474 N1473 1.388 . S
Co1475 O1477 2.143 . S
Co1475 O1483 2.074 . S
Co1475 O1486 2.093 . S
Co1475 O1499 2.097 . S
Co1475 N1516 2.151 . S
Co1475 N1524 2.214 . S
Co1476 O1477 2.160 . S
Co1476 O1482 2.058 . S
Co1476 O1492 2.057 . S
Co1476 O1507 2.037 . S
Co1476 N1511 2.145 . S
Co1476 N1532 2.257 . S
O1477 Co1475 2.143 . S
O1477 Co1476 2.160 . S
C1478 O1479 1.278 . S
C1478 O1486 1.224 . S
O1479 C1478 1.278 . S
C1480 O1481 1.245 . S
C1480 O1492 1.232 . S
O1481 C1480 1.245 . S
O1482 Co1476 2.058 . S
O1482 C1508 1.269 . S
O1483 Co1475 2.074 . S
O1483 C1508 1.257 . S
H1484 C1509 0.930 . S
H1485 C1515 0.930 . S
O1486 Co1475 2.093 . S
O1486 C1478 1.224 . S
H1487 C1519 0.929 . S
H1488 C1521 0.930 . S
H1489 C1522 0.930 . S
H1490 C1520 0.929 . S
H1491 C1523 0.928 . S
O1492 Co1476 2.057 . S
O1492 C1480 1.232 . S
H1493 C1512 0.929 . S
H1494 C1513 0.929 . S
H1495 C1525 0.931 . S
H1496 C1517 0.929 . S
H1497 C1526 0.930 . S
H1498 C1518 0.931 . S
O1499 Co1475 2.097 . S
O1499 C1527 1.214 . S
H1500 C1528 0.929 . S
H1501 C1529 0.929 . S
H1502 C1530 0.930 . S
H1503 C1531 0.929 . S
H1504 C1533 0.930 . S
H1505 C1510 0.930 . S
H1506 C1514 0.930 . S
O1507 Co1476 2.037 . S
O1507 C1527 1.234 . S
C1508 O1482 1.269 . S
C1508 O1483 1.257 . S
C1509 H1484 0.930 . S
C1509 C1512 1.388 . S
C1509 C1514 1.418 . S
C1510 H1505 0.930 . S
C1510 C1513 1.404 . S
C1510 C1514 1.353 . S
N1511 Co1476 2.145 . S
N1511 C1512 1.397 . S
N1511 C1513 1.334 . S
C1512 H1493 0.929 . S
C1512 C1509 1.388 . S
C1512 N1511 1.397 . S
C1513 H1494 0.929 . S
C1513 C1510 1.404 . S
C1513 N1511 1.334 . S
C1514 H1506 0.930 . S
C1514 C1509 1.418 . S
C1514 C1510 1.353 . S
C1515 H1485 0.930 . S
C1515 N1516 1.330 . S
C1515 C1517 1.446 . S
N1516 Co1475 2.151 . S
N1516 C1515 1.330 . S
N1516 C1520 1.418 . S
C1517 H1496 0.929 . S
C1517 C1515 1.446 . S
C1517 C1518 1.332 . S
C1518 H1498 0.931 . S
C1518 C1517 1.332 . S
C1518 C1519 1.267 . S
C1519 H1487 0.929 . S
C1519 C1518 1.267 . S
C1519 C1520 1.251 . S
C1520 H1490 0.929 . S
C1520 N1516 1.418 . S
C1520 C1519 1.251 . S
C1521 H1488 0.930 . S
C1521 C1523 1.406 . S
C1521 C1526 1.261 . S
C1522 H1489 0.930 . S
C1522 N1524 1.325 . S
C1522 C1525 1.357 . S
C1523 H1491 0.928 . S
C1523 C1521 1.406 . S
C1523 N1524 1.261 . S
N1524 Co1475 2.214 . S
N1524 C1522 1.325 . S
N1524 C1523 1.261 . S
C1525 H1495 0.931 . S
C1525 C1522 1.357 . S
C1525 C1526 1.312 . S
C1526 H1497 0.930 . S
C1526 C1521 1.261 . S
C1526 C1525 1.312 . S
C1527 O1499 1.214 . S
C1527 O1507 1.234 . S
C1528 H1500 0.929 . S
C1528 C1531 1.391 . S
C1528 C1533 1.391 . S
C1529 H1501 0.929 . S
C1529 C1530 1.390 . S
C1529 N1532 1.391 . S
C1530 H1502 0.930 . S
C1530 C1529 1.390 . S
C1530 C1531 1.392 . S
C1531 H1503 0.929 . S
C1531 C1528 1.391 . S
C1531 C1530 1.392 . S
N1532 Co1476 2.257 . S
N1532 C1529 1.391 . S
N1532 C1533 1.388 . S
C1533 H1504 0.930 . S
C1533 C1528 1.391 . S
C1533 N1532 1.388 . S
Co1534 O1536 2.143 . S
Co1534 O1542 2.074 . S
Co1534 O1545 2.093 . S
Co1534 O1558 2.097 . S
Co1534 N1575 2.151 . S
Co1534 N1583 2.214 . S
Co1535 O1536 2.160 . S
Co1535 O1541 2.058 . S
Co1535 O1551 2.057 . S
Co1535 O1566 2.037 . S
Co1535 N1570 2.145 . S
Co1535 N1591 2.257 . S
O1536 Co1534 2.143 . S
O1536 Co1535 2.160 . S
C1537 O1538 1.278 . S
C1537 O1545 1.224 . S
O1538 C1537 1.278 . S
C1539 O1540 1.245 . S
C1539 O1551 1.232 . S
O1540 C1539 1.245 . S
O1541 Co1535 2.058 . S
O1541 C1567 1.269 . S
O1542 Co1534 2.074 . S
O1542 C1567 1.257 . S
H1543 C1568 0.930 . S
H1544 C1574 0.930 . S
O1545 Co1534 2.093 . S
O1545 C1537 1.224 . S
H1546 C1578 0.929 . S
H1547 C1580 0.930 . S
H1548 C1581 0.930 . S
H1549 C1579 0.929 . S
H1550 C1582 0.928 . S
O1551 Co1535 2.057 . S
O1551 C1539 1.232 . S
H1552 C1571 0.929 . S
H1553 C1572 0.929 . S
H1554 C1584 0.931 . S
H1555 C1576 0.929 . S
H1556 C1585 0.930 . S
H1557 C1577 0.931 . S
O1558 Co1534 2.097 . S
O1558 C1586 1.214 . S
H1559 C1587 0.929 . S
H1560 C1588 0.929 . S
H1561 C1589 0.930 . S
H1562 C1590 0.929 . S
H1563 C1592 0.930 . S
H1564 C1569 0.930 . S
H1565 C1573 0.930 . S
O1566 Co1535 2.037 . S
O1566 C1586 1.234 . S
C1567 O1541 1.269 . S
C1567 O1542 1.257 . S
C1568 H1543 0.930 . S
C1568 C1571 1.388 . S
C1568 C1573 1.418 . S
C1569 H1564 0.930 . S
C1569 C1572 1.404 . S
C1569 C1573 1.353 . S
N1570 Co1535 2.145 . S
N1570 C1571 1.397 . S
N1570 C1572 1.334 . S
C1571 H1552 0.929 . S
C1571 C1568 1.388 . S
C1571 N1570 1.397 . S
C1572 H1553 0.929 . S
C1572 C1569 1.404 . S
C1572 N1570 1.334 . S
C1573 H1565 0.930 . S
C1573 C1568 1.418 . S
C1573 C1569 1.353 . S
C1574 H1544 0.930 . S
C1574 N1575 1.330 . S
C1574 C1576 1.446 . S
N1575 Co1534 2.151 . S
N1575 C1574 1.330 . S
N1575 C1579 1.418 . S
C1576 H1555 0.929 . S
C1576 C1574 1.446 . S
C1576 C1577 1.332 . S
C1577 H1557 0.931 . S
C1577 C1576 1.332 . S
C1577 C1578 1.267 . S
C1578 H1546 0.929 . S
C1578 C1577 1.267 . S
C1578 C1579 1.251 . S
C1579 H1549 0.929 . S
C1579 N1575 1.418 . S
C1579 C1578 1.251 . S
C1580 H1547 0.930 . S
C1580 C1582 1.406 . S
C1580 C1585 1.261 . S
C1581 H1548 0.930 . S
C1581 N1583 1.325 . S
C1581 C1584 1.357 . S
C1582 H1550 0.928 . S
C1582 C1580 1.406 . S
C1582 N1583 1.261 . S
N1583 Co1534 2.214 . S
N1583 C1581 1.325 . S
N1583 C1582 1.261 . S
C1584 H1554 0.931 . S
C1584 C1581 1.357 . S
C1584 C1585 1.312 . S
C1585 H1556 0.930 . S
C1585 C1580 1.261 . S
C1585 C1584 1.312 . S
C1586 O1558 1.214 . S
C1586 O1566 1.234 . S
C1587 H1559 0.929 . S
C1587 C1590 1.391 . S
C1587 C1592 1.391 . S
C1588 H1560 0.929 . S
C1588 C1589 1.390 . S
C1588 N1591 1.391 . S
C1589 H1561 0.930 . S
C1589 C1588 1.390 . S
C1589 C1590 1.392 . S
C1590 H1562 0.929 . S
C1590 C1587 1.391 . S
C1590 C1589 1.392 . S
N1591 Co1535 2.257 . S
N1591 C1588 1.391 . S
N1591 C1592 1.388 . S
C1592 H1563 0.930 . S
C1592 C1587 1.391 . S
C1592 N1591 1.388 . S
Co1593 O1595 2.143 . S
Co1593 O1601 2.074 . S
Co1593 O1604 2.093 . S
Co1593 O1617 2.097 . S
Co1593 N1634 2.151 . S
Co1593 N1642 2.214 . S
Co1594 O1595 2.160 . S
Co1594 O1600 2.058 . S
Co1594 O1610 2.057 . S
Co1594 O1625 2.037 . S
Co1594 N1629 2.145 . S
Co1594 N1650 2.257 . S
O1595 Co1593 2.143 . S
O1595 Co1594 2.160 . S
C1596 O1597 1.278 . S
C1596 O1604 1.224 . S
O1597 C1596 1.278 . S
C1598 O1599 1.245 . S
C1598 O1610 1.232 . S
O1599 C1598 1.245 . S
O1600 Co1594 2.058 . S
O1600 C1626 1.269 . S
O1601 Co1593 2.074 . S
O1601 C1626 1.257 . S
H1602 C1627 0.930 . S
H1603 C1633 0.930 . S
O1604 Co1593 2.093 . S
O1604 C1596 1.224 . S
H1605 C1637 0.929 . S
H1606 C1639 0.927 . S
H1607 C1640 0.930 . S
H1608 C1638 0.929 . S
H1609 C1641 0.928 . S
O1610 Co1594 2.057 . S
O1610 C1598 1.232 . S
H1611 C1630 0.929 . S
H1612 C1631 0.929 . S
H1613 C1643 0.931 . S
H1614 C1635 0.929 . S
H1615 C1644 0.930 . S
H1616 C1636 0.931 . S
O1617 Co1593 2.097 . S
O1617 C1645 1.214 . S
H1618 C1646 0.929 . S
H1619 C1647 0.929 . S
H1620 C1648 0.930 . S
H1621 C1649 0.929 . S
H1622 C1651 0.930 . S
H1623 C1628 0.930 . S
H1624 C1632 0.930 . S
O1625 Co1594 2.037 . S
O1625 C1645 1.234 . S
C1626 O1600 1.269 . S
C1626 O1601 1.257 . S
C1627 H1602 0.930 . S
C1627 C1630 1.388 . S
C1627 C1632 1.418 . S
C1628 H1623 0.930 . S
C1628 C1631 1.404 . S
C1628 C1632 1.353 . S
N1629 Co1594 2.145 . S
N1629 C1630 1.397 . S
N1629 C1631 1.334 . S
C1630 H1611 0.929 . S
C1630 C1627 1.388 . S
C1630 N1629 1.397 . S
C1631 H1612 0.929 . S
C1631 C1628 1.404 . S
C1631 N1629 1.334 . S
C1632 H1624 0.930 . S
C1632 C1627 1.418 . S
C1632 C1628 1.353 . S
C1633 H1603 0.930 . S
C1633 N1634 1.330 . S
C1633 C1635 1.446 . S
N1634 Co1593 2.151 . S
N1634 C1633 1.330 . S
N1634 C1638 1.418 . S
C1635 H1614 0.929 . S
C1635 C1633 1.446 . S
C1635 C1636 1.332 . S
C1636 H1616 0.931 . S
C1636 C1635 1.332 . S
C1636 C1637 1.267 . S
C1637 H1605 0.929 . S
C1637 C1636 1.267 . S
C1637 C1638 1.251 . S
C1638 H1608 0.929 . S
C1638 N1634 1.418 . S
C1638 C1637 1.251 . S
C1639 H1606 0.927 . S
C1639 C1641 1.406 . S
C1639 C1644 1.261 . S
C1640 H1607 0.930 . S
C1640 N1642 1.325 . S
C1640 C1643 1.357 . S
C1641 H1609 0.928 . S
C1641 C1639 1.406 . S
C1641 N1642 1.261 . S
N1642 Co1593 2.214 . S
N1642 C1640 1.325 . S
N1642 C1641 1.261 . S
C1643 H1613 0.931 . S
C1643 C1640 1.357 . S
C1643 C1644 1.312 . S
C1644 H1615 0.930 . S
C1644 C1639 1.261 . S
C1644 C1643 1.312 . S
C1645 O1617 1.214 . S
C1645 O1625 1.234 . S
C1646 H1618 0.929 . S
C1646 C1649 1.391 . S
C1646 C1651 1.391 1_545 S
C1647 H1619 0.929 . S
C1647 C1648 1.390 . S
C1647 N1650 1.391 1_545 S
C1648 H1620 0.930 . S
C1648 C1647 1.390 . S
C1648 C1649 1.392 . S
C1649 H1621 0.929 . S
C1649 C1646 1.391 . S
C1649 C1648 1.392 . S
N1650 Co1594 2.257 . S
N1650 C1647 1.391 1_565 S
N1650 C1651 1.388 . S
C1651 H1622 0.930 . S
C1651 C1646 1.391 1_565 S
C1651 N1650 1.388 . S
Co1652 O1654 2.143 . S
Co1652 O1660 2.074 . S
Co1652 O1663 2.093 . S
Co1652 O1676 2.097 . S
Co1652 N1693 2.151 . S
Co1652 N1701 2.214 . S
Co1653 O1654 2.160 . S
Co1653 O1659 2.058 . S
Co1653 O1669 2.057 . S
Co1653 O1684 2.037 . S
Co1653 N1688 2.145 . S
Co1653 N1709 2.257 . S
O1654 Co1652 2.143 . S
O1654 Co1653 2.160 . S
C1655 O1656 1.278 . S
C1655 O1663 1.224 . S
O1656 C1655 1.278 . S
C1657 O1658 1.245 . S
C1657 O1669 1.232 . S
O1658 C1657 1.245 . S
O1659 Co1653 2.058 . S
O1659 C1685 1.269 . S
O1660 Co1652 2.074 . S
O1660 C1685 1.257 . S
H1661 C1686 0.930 . S
H1662 C1692 0.930 . S
O1663 Co1652 2.093 . S
O1663 C1655 1.224 . S
H1664 C1696 0.929 . S
H1665 C1698 0.927 . S
H1666 C1699 0.930 . S
H1667 C1697 0.929 . S
H1668 C1700 0.928 . S
O1669 Co1653 2.057 . S
O1669 C1657 1.232 . S
H1670 C1689 0.929 . S
H1671 C1690 0.929 . S
H1672 C1702 0.931 . S
H1673 C1694 0.929 . S
H1674 C1703 0.930 . S
H1675 C1695 0.931 . S
O1676 Co1652 2.097 . S
O1676 C1704 1.214 . S
H1677 C1705 0.929 . S
H1678 C1706 0.929 . S
H1679 C1707 0.930 . S
H1680 C1708 0.929 . S
H1681 C1710 0.930 . S
H1682 C1687 0.930 . S
H1683 C1691 0.930 . S
O1684 Co1653 2.037 . S
O1684 C1704 1.234 . S
C1685 O1659 1.269 . S
C1685 O1660 1.257 . S
C1686 H1661 0.930 . S
C1686 C1689 1.388 . S
C1686 C1691 1.418 . S
C1687 H1682 0.930 . S
C1687 C1690 1.404 . S
C1687 C1691 1.353 . S
N1688 Co1653 2.145 . S
N1688 C1689 1.397 . S
N1688 C1690 1.334 . S
C1689 H1670 0.929 . S
C1689 C1686 1.388 . S
C1689 N1688 1.397 . S
C1690 H1671 0.929 . S
C1690 C1687 1.404 . S
C1690 N1688 1.334 . S
C1691 H1683 0.930 . S
C1691 C1686 1.418 . S
C1691 C1687 1.353 . S
C1692 H1662 0.930 . S
C1692 N1693 1.330 . S
C1692 C1694 1.446 . S
N1693 Co1652 2.151 . S
N1693 C1692 1.330 . S
N1693 C1697 1.418 . S
C1694 H1673 0.929 . S
C1694 C1692 1.446 . S
C1694 C1695 1.332 . S
C1695 H1675 0.931 . S
C1695 C1694 1.332 . S
C1695 C1696 1.267 . S
C1696 H1664 0.929 . S
C1696 C1695 1.267 . S
C1696 C1697 1.251 . S
C1697 H1667 0.929 . S
C1697 N1693 1.418 . S
C1697 C1696 1.251 . S
C1698 H1665 0.927 . S
C1698 C1700 1.406 . S
C1698 C1703 1.261 . S
C1699 H1666 0.930 . S
C1699 N1701 1.325 . S
C1699 C1702 1.357 . S
C1700 H1668 0.928 . S
C1700 C1698 1.406 . S
C1700 N1701 1.261 . S
N1701 Co1652 2.214 . S
N1701 C1699 1.325 . S
N1701 C1700 1.261 . S
C1702 H1672 0.931 . S
C1702 C1699 1.357 . S
C1702 C1703 1.312 . S
C1703 H1674 0.930 . S
C1703 C1698 1.261 . S
C1703 C1702 1.312 . S
C1704 O1676 1.214 . S
C1704 O1684 1.234 . S
C1705 H1677 0.929 . S
C1705 C1708 1.391 . S
C1705 C1710 1.391 1_655 S
C1706 H1678 0.929 . S
C1706 C1707 1.390 . S
C1706 N1709 1.391 1_655 S
C1707 H1679 0.930 . S
C1707 C1706 1.390 . S
C1707 C1708 1.392 . S
C1708 H1680 0.929 . S
C1708 C1705 1.391 . S
C1708 C1707 1.392 . S
N1709 Co1653 2.257 . S
N1709 C1706 1.391 1_455 S
N1709 C1710 1.388 . S
C1710 H1681 0.930 . S
C1710 C1705 1.391 1_455 S
C1710 N1709 1.388 . S
Co1711 O1713 2.143 . S
Co1711 O1719 2.074 . S
Co1711 O1722 2.093 . S
Co1711 O1735 2.097 . S
Co1711 N1752 2.151 . S
Co1711 N1760 2.214 . S
Co1712 O1713 2.160 . S
Co1712 O1718 2.058 . S
Co1712 O1728 2.057 . S
Co1712 O1743 2.037 . S
Co1712 N1747 2.145 . S
Co1712 N1768 2.257 . S
O1713 Co1711 2.143 . S
O1713 Co1712 2.160 . S
C1714 O1715 1.278 . S
C1714 O1722 1.224 . S
O1715 C1714 1.278 . S
C1716 O1717 1.245 . S
C1716 O1728 1.232 . S
O1717 C1716 1.245 . S
O1718 Co1712 2.058 . S
O1718 C1744 1.269 . S
O1719 Co1711 2.074 . S
O1719 C1744 1.257 . S
H1720 C1745 0.930 . S
H1721 C1751 0.930 . S
O1722 Co1711 2.093 . S
O1722 C1714 1.224 . S
H1723 C1755 0.929 . S
H1724 C1757 0.927 . S
H1725 C1758 0.930 . S
H1726 C1756 0.929 . S
H1727 C1759 0.928 . S
O1728 Co1712 2.057 . S
O1728 C1716 1.232 . S
H1729 C1748 0.929 . S
H1730 C1749 0.929 . S
H1731 C1761 0.931 . S
H1732 C1753 0.929 . S
H1733 C1762 0.930 . S
H1734 C1754 0.931 . S
O1735 Co1711 2.097 . S
O1735 C1763 1.214 . S
H1736 C1764 0.929 . S
H1737 C1765 0.929 . S
H1738 C1766 0.930 . S
H1739 C1767 0.929 . S
H1740 C1769 0.930 . S
H1741 C1746 0.930 . S
H1742 C1750 0.930 . S
O1743 Co1712 2.037 . S
O1743 C1763 1.234 . S
C1744 O1718 1.269 . S
C1744 O1719 1.257 . S
C1745 H1720 0.930 . S
C1745 C1748 1.388 . S
C1745 C1750 1.418 . S
C1746 H1741 0.930 . S
C1746 C1749 1.404 . S
C1746 C1750 1.353 . S
N1747 Co1712 2.145 . S
N1747 C1748 1.397 . S
N1747 C1749 1.334 . S
C1748 H1729 0.929 . S
C1748 C1745 1.388 . S
C1748 N1747 1.397 . S
C1749 H1730 0.929 . S
C1749 C1746 1.404 . S
C1749 N1747 1.334 . S
C1750 H1742 0.930 . S
C1750 C1745 1.418 . S
C1750 C1746 1.353 . S
C1751 H1721 0.930 . S
C1751 N1752 1.330 . S
C1751 C1753 1.446 . S
N1752 Co1711 2.151 . S
N1752 C1751 1.330 . S
N1752 C1756 1.418 . S
C1753 H1732 0.929 . S
C1753 C1751 1.446 . S
C1753 C1754 1.332 . S
C1754 H1734 0.931 . S
C1754 C1753 1.332 . S
C1754 C1755 1.267 . S
C1755 H1723 0.929 . S
C1755 C1754 1.267 . S
C1755 C1756 1.251 . S
C1756 H1726 0.929 . S
C1756 N1752 1.418 . S
C1756 C1755 1.251 . S
C1757 H1724 0.927 . S
C1757 C1759 1.406 . S
C1757 C1762 1.261 . S
C1758 H1725 0.930 . S
C1758 N1760 1.325 . S
C1758 C1761 1.357 . S
C1759 H1727 0.928 . S
C1759 C1757 1.406 . S
C1759 N1760 1.261 . S
N1760 Co1711 2.214 . S
N1760 C1758 1.325 . S
N1760 C1759 1.261 . S
C1761 H1731 0.931 . S
C1761 C1758 1.357 . S
C1761 C1762 1.312 . S
C1762 H1733 0.930 . S
C1762 C1757 1.261 . S
C1762 C1761 1.312 . S
C1763 O1735 1.214 . S
C1763 O1743 1.234 . S
C1764 H1736 0.929 . S
C1764 C1767 1.391 . S
C1764 C1769 1.391 . S
C1765 H1737 0.929 . S
C1765 C1766 1.390 . S
C1765 N1768 1.391 . S
C1766 H1738 0.930 . S
C1766 C1765 1.390 . S
C1766 C1767 1.392 . S
C1767 H1739 0.929 . S
C1767 C1764 1.391 . S
C1767 C1766 1.392 . S
N1768 Co1712 2.257 . S
N1768 C1765 1.391 . S
N1768 C1769 1.388 . S
C1769 H1740 0.930 . S
C1769 C1764 1.391 . S
C1769 N1768 1.388 . S
Co1770 O1772 2.143 . S
Co1770 O1778 2.074 . S
Co1770 O1781 2.093 . S
Co1770 O1794 2.097 . S
Co1770 N1811 2.151 . S
Co1770 N1819 2.214 . S
Co1771 O1772 2.160 . S
Co1771 O1777 2.058 . S
Co1771 O1787 2.057 . S
Co1771 O1802 2.037 . S
Co1771 N1806 2.145 . S
Co1771 N1827 2.257 . S
O1772 Co1770 2.143 . S
O1772 Co1771 2.160 . S
C1773 O1774 1.278 . S
C1773 O1781 1.224 . S
O1774 C1773 1.278 . S
C1775 O1776 1.245 . S
C1775 O1787 1.232 . S
O1776 C1775 1.245 . S
O1777 Co1771 2.058 . S
O1777 C1803 1.269 . S
O1778 Co1770 2.074 . S
O1778 C1803 1.257 . S
H1779 C1804 0.930 . S
H1780 C1810 0.930 . S
O1781 Co1770 2.093 . S
O1781 C1773 1.224 . S
H1782 C1814 0.929 . S
H1783 C1816 0.930 . S
H1784 C1817 0.930 . S
H1785 C1815 0.929 . S
H1786 C1818 0.928 . S
O1787 Co1771 2.057 . S
O1787 C1775 1.232 . S
H1788 C1807 0.929 . S
H1789 C1808 0.929 . S
H1790 C1820 0.931 . S
H1791 C1812 0.929 . S
H1792 C1821 0.930 . S
H1793 C1813 0.931 . S
O1794 Co1770 2.097 . S
O1794 C1822 1.214 . S
H1795 C1823 0.929 . S
H1796 C1824 0.929 . S
H1797 C1825 0.930 . S
H1798 C1826 0.929 . S
H1799 C1828 0.930 . S
H1800 C1805 0.930 . S
H1801 C1809 0.930 . S
O1802 Co1771 2.037 . S
O1802 C1822 1.234 . S
C1803 O1777 1.269 . S
C1803 O1778 1.257 . S
C1804 H1779 0.930 . S
C1804 C1807 1.388 . S
C1804 C1809 1.418 . S
C1805 H1800 0.930 . S
C1805 C1808 1.404 . S
C1805 C1809 1.353 . S
N1806 Co1771 2.145 . S
N1806 C1807 1.397 . S
N1806 C1808 1.334 . S
C1807 H1788 0.929 . S
C1807 C1804 1.388 . S
C1807 N1806 1.397 . S
C1808 H1789 0.929 . S
C1808 C1805 1.404 . S
C1808 N1806 1.334 . S
C1809 H1801 0.930 . S
C1809 C1804 1.418 . S
C1809 C1805 1.353 . S
C1810 H1780 0.930 . S
C1810 N1811 1.330 . S
C1810 C1812 1.446 . S
N1811 Co1770 2.151 . S
N1811 C1810 1.330 . S
N1811 C1815 1.418 . S
C1812 H1791 0.929 . S
C1812 C1810 1.446 . S
C1812 C1813 1.332 . S
C1813 H1793 0.931 . S
C1813 C1812 1.332 . S
C1813 C1814 1.267 . S
C1814 H1782 0.929 . S
C1814 C1813 1.267 . S
C1814 C1815 1.251 . S
C1815 H1785 0.929 . S
C1815 N1811 1.418 . S
C1815 C1814 1.251 . S
C1816 H1783 0.930 . S
C1816 C1818 1.406 . S
C1816 C1821 1.261 . S
C1817 H1784 0.930 . S
C1817 N1819 1.325 . S
C1817 C1820 1.357 . S
C1818 H1786 0.928 . S
C1818 C1816 1.406 . S
C1818 N1819 1.261 . S
N1819 Co1770 2.214 . S
N1819 C1817 1.325 . S
N1819 C1818 1.261 . S
C1820 H1790 0.931 . S
C1820 C1817 1.357 . S
C1820 C1821 1.312 . S
C1821 H1792 0.930 . S
C1821 C1816 1.261 . S
C1821 C1820 1.312 . S
C1822 O1794 1.214 . S
C1822 O1802 1.234 . S
C1823 H1795 0.929 . S
C1823 C1826 1.391 . S
C1823 C1828 1.391 1_655 S
C1824 H1796 0.929 . S
C1824 C1825 1.390 . S
C1824 N1827 1.391 1_655 S
C1825 H1797 0.930 . S
C1825 C1824 1.390 . S
C1825 C1826 1.392 . S
C1826 H1798 0.929 . S
C1826 C1823 1.391 . S
C1826 C1825 1.392 . S
N1827 Co1771 2.257 . S
N1827 C1824 1.391 1_455 S
N1827 C1828 1.388 . S
C1828 H1799 0.930 . S
C1828 C1823 1.391 1_455 S
C1828 N1827 1.388 . S
Co1829 O1831 2.143 . S
Co1829 O1837 2.074 . S
Co1829 O1840 2.093 . S
Co1829 O1853 2.097 . S
Co1829 N1870 2.151 . S
Co1829 N1878 2.214 . S
Co1830 O1831 2.160 . S
Co1830 O1836 2.058 . S
Co1830 O1846 2.057 . S
Co1830 O1861 2.037 . S
Co1830 N1865 2.145 . S
Co1830 N1886 2.257 . S
O1831 Co1829 2.143 . S
O1831 Co1830 2.160 . S
C1832 O1833 1.278 . S
C1832 O1840 1.224 . S
O1833 C1832 1.278 . S
C1834 O1835 1.245 . S
C1834 O1846 1.232 . S
O1835 C1834 1.245 . S
O1836 Co1830 2.058 . S
O1836 C1862 1.269 . S
O1837 Co1829 2.074 . S
O1837 C1862 1.257 . S
H1838 C1863 0.930 . S
H1839 C1869 0.930 . S
O1840 Co1829 2.093 . S
O1840 C1832 1.224 . S
H1841 C1873 0.929 . S
H1842 C1875 0.930 . S
H1843 C1876 0.930 . S
H1844 C1874 0.929 . S
H1845 C1877 0.928 . S
O1846 Co1830 2.057 . S
O1846 C1834 1.232 . S
H1847 C1866 0.929 . S
H1848 C1867 0.929 . S
H1849 C1879 0.931 . S
H1850 C1871 0.929 . S
H1851 C1880 0.930 . S
H1852 C1872 0.931 . S
O1853 Co1829 2.097 . S
O1853 C1881 1.214 . S
H1854 C1882 0.929 . S
H1855 C1883 0.929 . S
H1856 C1884 0.930 . S
H1857 C1885 0.929 . S
H1858 C1887 0.930 . S
H1859 C1864 0.930 . S
H1860 C1868 0.930 . S
O1861 Co1830 2.037 . S
O1861 C1881 1.234 . S
C1862 O1836 1.269 . S
C1862 O1837 1.257 . S
C1863 H1838 0.930 . S
C1863 C1866 1.388 . S
C1863 C1868 1.418 . S
C1864 H1859 0.930 . S
C1864 C1867 1.404 . S
C1864 C1868 1.353 . S
N1865 Co1830 2.145 . S
N1865 C1866 1.397 . S
N1865 C1867 1.334 . S
C1866 H1847 0.929 . S
C1866 C1863 1.388 . S
C1866 N1865 1.397 . S
C1867 H1848 0.929 . S
C1867 C1864 1.404 . S
C1867 N1865 1.334 . S
C1868 H1860 0.930 . S
C1868 C1863 1.418 . S
C1868 C1864 1.353 . S
C1869 H1839 0.930 . S
C1869 N1870 1.330 . S
C1869 C1871 1.446 . S
N1870 Co1829 2.151 . S
N1870 C1869 1.330 . S
N1870 C1874 1.418 . S
C1871 H1850 0.929 . S
C1871 C1869 1.446 . S
C1871 C1872 1.332 . S
C1872 H1852 0.931 . S
C1872 C1871 1.332 . S
C1872 C1873 1.267 . S
C1873 H1841 0.929 . S
C1873 C1872 1.267 . S
C1873 C1874 1.251 . S
C1874 H1844 0.929 . S
C1874 N1870 1.418 . S
C1874 C1873 1.251 . S
C1875 H1842 0.930 . S
C1875 C1877 1.406 . S
C1875 C1880 1.261 . S
C1876 H1843 0.930 . S
C1876 N1878 1.325 . S
C1876 C1879 1.357 . S
C1877 H1845 0.928 . S
C1877 C1875 1.406 . S
C1877 N1878 1.261 . S
N1878 Co1829 2.214 . S
N1878 C1876 1.325 . S
N1878 C1877 1.261 . S
C1879 H1849 0.931 . S
C1879 C1876 1.357 . S
C1879 C1880 1.312 . S
C1880 H1851 0.930 . S
C1880 C1875 1.261 . S
C1880 C1879 1.312 . S
C1881 O1853 1.214 . S
C1881 O1861 1.234 . S
C1882 H1854 0.929 . S
C1882 C1885 1.391 . S
C1882 C1887 1.391 . S
C1883 H1855 0.929 . S
C1883 C1884 1.390 . S
C1883 N1886 1.391 . S
C1884 H1856 0.930 . S
C1884 C1883 1.390 . S
C1884 C1885 1.392 . S
C1885 H1857 0.929 . S
C1885 C1882 1.391 . S
C1885 C1884 1.392 . S
N1886 Co1830 2.257 . S
N1886 C1883 1.391 . S
N1886 C1887 1.388 . S
C1887 H1858 0.930 . S
C1887 C1882 1.391 . S
C1887 N1886 1.388 . S
Co1888 O1890 2.143 . S
Co1888 O1896 2.074 . S
Co1888 O1899 2.093 . S
Co1888 O1912 2.097 . S
Co1888 N1929 2.151 . S
Co1888 N1937 2.214 . S
Co1889 O1890 2.160 . S
Co1889 O1895 2.058 . S
Co1889 O1905 2.057 . S
Co1889 O1920 2.037 . S
Co1889 N1924 2.145 . S
Co1889 N1945 2.257 . S
O1890 Co1888 2.143 . S
O1890 Co1889 2.160 . S
C1891 O1892 1.278 . S
C1891 O1899 1.224 . S
O1892 C1891 1.278 . S
C1893 O1894 1.245 . S
C1893 O1905 1.232 . S
O1894 C1893 1.245 . S
O1895 Co1889 2.058 . S
O1895 C1921 1.269 . S
O1896 Co1888 2.074 . S
O1896 C1921 1.257 . S
H1897 C1922 0.930 . S
H1898 C1928 0.930 . S
O1899 Co1888 2.093 . S
O1899 C1891 1.224 . S
H1900 C1932 0.929 . S
H1901 C1934 0.930 . S
H1902 C1935 0.930 . S
H1903 C1933 0.929 . S
H1904 C1936 0.928 . S
O1905 Co1889 2.057 . S
O1905 C1893 1.232 . S
H1906 C1925 0.929 . S
H1907 C1926 0.929 . S
H1908 C1938 0.931 . S
H1909 C1930 0.929 . S
H1910 C1939 0.930 . S
H1911 C1931 0.931 . S
O1912 Co1888 2.097 . S
O1912 C1940 1.214 . S
H1913 C1941 0.929 . S
H1914 C1942 0.929 . S
H1915 C1943 0.930 . S
H1916 C1944 0.929 . S
H1917 C1946 0.930 . S
H1918 C1923 0.930 . S
H1919 C1927 0.930 . S
O1920 Co1889 2.037 . S
O1920 C1940 1.234 . S
C1921 O1895 1.269 . S
C1921 O1896 1.257 . S
C1922 H1897 0.930 . S
C1922 C1925 1.388 . S
C1922 C1927 1.418 . S
C1923 H1918 0.930 . S
C1923 C1926 1.404 . S
C1923 C1927 1.353 . S
N1924 Co1889 2.145 . S
N1924 C1925 1.397 . S
N1924 C1926 1.334 . S
C1925 H1906 0.929 . S
C1925 C1922 1.388 . S
C1925 N1924 1.397 . S
C1926 H1907 0.929 . S
C1926 C1923 1.404 . S
C1926 N1924 1.334 . S
C1927 H1919 0.930 . S
C1927 C1922 1.418 . S
C1927 C1923 1.353 . S
C1928 H1898 0.930 . S
C1928 N1929 1.330 . S
C1928 C1930 1.446 . S
N1929 Co1888 2.151 . S
N1929 C1928 1.330 . S
N1929 C1933 1.418 . S
C1930 H1909 0.929 . S
C1930 C1928 1.446 . S
C1930 C1931 1.332 . S
C1931 H1911 0.931 . S
C1931 C1930 1.332 . S
C1931 C1932 1.267 . S
C1932 H1900 0.929 . S
C1932 C1931 1.267 . S
C1932 C1933 1.251 . S
C1933 H1903 0.929 . S
C1933 N1929 1.418 . S
C1933 C1932 1.251 . S
C1934 H1901 0.930 . S
C1934 C1936 1.406 . S
C1934 C1939 1.261 . S
C1935 H1902 0.930 . S
C1935 N1937 1.325 . S
C1935 C1938 1.357 . S
C1936 H1904 0.928 . S
C1936 C1934 1.406 . S
C1936 N1937 1.261 . S
N1937 Co1888 2.214 . S
N1937 C1935 1.325 . S
N1937 C1936 1.261 . S
C1938 H1908 0.931 . S
C1938 C1935 1.357 . S
C1938 C1939 1.312 . S
C1939 H1910 0.930 . S
C1939 C1934 1.261 . S
C1939 C1938 1.312 . S
C1940 O1912 1.214 . S
C1940 O1920 1.234 . S
C1941 H1913 0.929 . S
C1941 C1944 1.391 . S
C1941 C1946 1.391 1_545 S
C1942 H1914 0.929 . S
C1942 C1943 1.390 . S
C1942 N1945 1.391 1_545 S
C1943 H1915 0.930 . S
C1943 C1942 1.390 . S
C1943 C1944 1.392 . S
C1944 H1916 0.929 . S
C1944 C1941 1.391 . S
C1944 C1943 1.392 . S
N1945 Co1889 2.257 . S
N1945 C1942 1.391 1_565 S
N1945 C1946 1.388 . S
C1946 H1917 0.930 . S
C1946 C1941 1.391 1_565 S
C1946 N1945 1.388 . S
Co1947 O1949 2.143 . S
Co1947 O1955 2.074 . S
Co1947 O1958 2.093 . S
Co1947 O1971 2.097 . S
Co1947 N1988 2.151 . S
Co1947 N1996 2.214 . S
Co1948 O1949 2.160 . S
Co1948 O1954 2.058 . S
Co1948 O1964 2.057 . S
Co1948 O1979 2.037 . S
Co1948 N1983 2.145 . S
Co1948 N2004 2.257 . S
O1949 Co1947 2.143 . S
O1949 Co1948 2.160 . S
C1950 O1951 1.278 . S
C1950 O1958 1.224 . S
O1951 C1950 1.278 . S
C1952 O1953 1.245 . S
C1952 O1964 1.232 . S
O1953 C1952 1.245 . S
O1954 Co1948 2.058 . S
O1954 C1980 1.269 . S
O1955 Co1947 2.074 . S
O1955 C1980 1.257 . S
H1956 C1981 0.930 . S
H1957 C1987 0.930 . S
O1958 Co1947 2.093 . S
O1958 C1950 1.224 . S
H1959 C1991 0.929 . S
H1960 C1993 0.930 . S
H1961 C1994 0.930 . S
H1962 C1992 0.929 . S
H1963 C1995 0.928 . S
O1964 Co1948 2.057 . S
O1964 C1952 1.232 . S
H1965 C1984 0.929 . S
H1966 C1985 0.929 . S
H1967 C1997 0.931 . S
H1968 C1989 0.929 . S
H1969 C1998 0.930 . S
H1970 C1990 0.931 . S
O1971 Co1947 2.097 . S
O1971 C1999 1.214 . S
H1972 C2000 0.929 . S
H1973 C2001 0.929 . S
H1974 C2002 0.930 . S
H1975 C2003 0.929 . S
H1976 C2005 0.930 . S
H1977 C1982 0.930 . S
H1978 C1986 0.930 . S
O1979 Co1948 2.037 . S
O1979 C1999 1.234 . S
C1980 O1954 1.269 . S
C1980 O1955 1.257 . S
C1981 H1956 0.930 . S
C1981 C1984 1.388 . S
C1981 C1986 1.418 . S
C1982 H1977 0.930 . S
C1982 C1985 1.404 . S
C1982 C1986 1.353 . S
N1983 Co1948 2.145 . S
N1983 C1984 1.397 . S
N1983 C1985 1.334 . S
C1984 H1965 0.929 . S
C1984 C1981 1.388 . S
C1984 N1983 1.397 . S
C1985 H1966 0.929 . S
C1985 C1982 1.404 . S
C1985 N1983 1.334 . S
C1986 H1978 0.930 . S
C1986 C1981 1.418 . S
C1986 C1982 1.353 . S
C1987 H1957 0.930 . S
C1987 N1988 1.330 . S
C1987 C1989 1.446 . S
N1988 Co1947 2.151 . S
N1988 C1987 1.330 . S
N1988 C1992 1.418 . S
C1989 H1968 0.929 . S
C1989 C1987 1.446 . S
C1989 C1990 1.332 . S
C1990 H1970 0.931 . S
C1990 C1989 1.332 . S
C1990 C1991 1.267 . S
C1991 H1959 0.929 . S
C1991 C1990 1.267 . S
C1991 C1992 1.251 . S
C1992 H1962 0.929 . S
C1992 N1988 1.418 . S
C1992 C1991 1.251 . S
C1993 H1960 0.930 . S
C1993 C1995 1.406 . S
C1993 C1998 1.261 . S
C1994 H1961 0.930 . S
C1994 N1996 1.325 . S
C1994 C1997 1.357 . S
C1995 H1963 0.928 . S
C1995 C1993 1.406 . S
C1995 N1996 1.261 . S
N1996 Co1947 2.214 . S
N1996 C1994 1.325 . S
N1996 C1995 1.261 . S
C1997 H1967 0.931 . S
C1997 C1994 1.357 . S
C1997 C1998 1.312 . S
C1998 H1969 0.930 . S
C1998 C1993 1.261 . S
C1998 C1997 1.312 . S
C1999 O1971 1.214 . S
C1999 O1979 1.234 . S
C2000 H1972 0.929 . S
C2000 C2003 1.391 . S
C2000 C2005 1.391 . S
C2001 H1973 0.929 . S
C2001 C2002 1.390 . S
C2001 N2004 1.391 . S
C2002 H1974 0.930 . S
C2002 C2001 1.390 . S
C2002 C2003 1.392 . S
C2003 H1975 0.929 . S
C2003 C2000 1.391 . S
C2003 C2002 1.392 . S
N2004 Co1948 2.257 . S
N2004 C2001 1.391 . S
N2004 C2005 1.388 . S
C2005 H1976 0.930 . S
C2005 C2000 1.391 . S
C2005 N2004 1.388 . S
Co2006 O2008 2.143 . S
Co2006 O2014 2.074 . S
Co2006 O2017 2.093 . S
Co2006 O2030 2.097 . S
Co2006 N2047 2.151 . S
Co2006 N2055 2.214 . S
Co2007 O2008 2.160 . S
Co2007 O2013 2.058 . S
Co2007 O2023 2.057 . S
Co2007 O2038 2.037 . S
Co2007 N2042 2.145 . S
Co2007 N2063 2.257 . S
O2008 Co2006 2.143 . S
O2008 Co2007 2.160 . S
C2009 O2010 1.278 . S
C2009 O2017 1.224 . S
O2010 C2009 1.278 . S
C2011 O2012 1.245 . S
C2011 O2023 1.232 . S
O2012 C2011 1.245 . S
O2013 Co2007 2.058 . S
O2013 C2039 1.269 . S
O2014 Co2006 2.074 . S
O2014 C2039 1.257 . S
H2015 C2040 0.930 . S
H2016 C2046 0.930 . S
O2017 Co2006 2.093 . S
O2017 C2009 1.224 . S
H2018 C2050 0.929 . S
H2019 C2052 0.930 . S
H2020 C2053 0.930 . S
H2021 C2051 0.929 . S
H2022 C2054 0.928 . S
O2023 Co2007 2.057 . S
O2023 C2011 1.232 . S
H2024 C2043 0.929 . S
H2025 C2044 0.929 . S
H2026 C2056 0.931 . S
H2027 C2048 0.929 . S
H2028 C2057 0.930 . S
H2029 C2049 0.931 . S
O2030 Co2006 2.097 . S
O2030 C2058 1.214 . S
H2031 C2059 0.929 . S
H2032 C2060 0.929 . S
H2033 C2061 0.930 . S
H2034 C2062 0.929 . S
H2035 C2064 0.930 . S
H2036 C2041 0.930 . S
H2037 C2045 0.930 . S
O2038 Co2007 2.037 . S
O2038 C2058 1.234 . S
C2039 O2013 1.269 . S
C2039 O2014 1.257 . S
C2040 H2015 0.930 . S
C2040 C2043 1.388 . S
C2040 C2045 1.418 . S
C2041 H2036 0.930 . S
C2041 C2044 1.404 . S
C2041 C2045 1.353 . S
N2042 Co2007 2.145 . S
N2042 C2043 1.397 . S
N2042 C2044 1.334 . S
C2043 H2024 0.929 . S
C2043 C2040 1.388 . S
C2043 N2042 1.397 . S
C2044 H2025 0.929 . S
C2044 C2041 1.404 . S
C2044 N2042 1.334 . S
C2045 H2037 0.930 . S
C2045 C2040 1.418 . S
C2045 C2041 1.353 . S
C2046 H2016 0.930 . S
C2046 N2047 1.330 . S
C2046 C2048 1.446 . S
N2047 Co2006 2.151 . S
N2047 C2046 1.330 . S
N2047 C2051 1.418 . S
C2048 H2027 0.929 . S
C2048 C2046 1.446 . S
C2048 C2049 1.332 . S
C2049 H2029 0.931 . S
C2049 C2048 1.332 . S
C2049 C2050 1.267 . S
C2050 H2018 0.929 . S
C2050 C2049 1.267 . S
C2050 C2051 1.251 . S
C2051 H2021 0.929 . S
C2051 N2047 1.418 . S
C2051 C2050 1.251 . S
C2052 H2019 0.930 . S
C2052 C2054 1.406 . S
C2052 C2057 1.261 . S
C2053 H2020 0.930 . S
C2053 N2055 1.325 . S
C2053 C2056 1.357 . S
C2054 H2022 0.928 . S
C2054 C2052 1.406 . S
C2054 N2055 1.261 . S
N2055 Co2006 2.214 . S
N2055 C2053 1.325 . S
N2055 C2054 1.261 . S
C2056 H2026 0.931 . S
C2056 C2053 1.357 . S
C2056 C2057 1.312 . S
C2057 H2028 0.930 . S
C2057 C2052 1.261 . S
C2057 C2056 1.312 . S
C2058 O2030 1.214 . S
C2058 O2038 1.234 . S
C2059 H2031 0.929 . S
C2059 C2062 1.391 . S
C2059 C2064 1.391 . S
C2060 H2032 0.929 . S
C2060 C2061 1.390 . S
C2060 N2063 1.391 . S
C2061 H2033 0.930 . S
C2061 C2060 1.390 . S
C2061 C2062 1.392 . S
C2062 H2034 0.929 . S
C2062 C2059 1.391 . S
C2062 C2061 1.392 . S
N2063 Co2007 2.257 . S
N2063 C2060 1.391 . S
N2063 C2064 1.388 . S
C2064 H2035 0.930 . S
C2064 C2059 1.391 . S
C2064 N2063 1.388 . S
Co2065 O2067 2.143 . S
Co2065 O2073 2.074 . S
Co2065 O2076 2.093 . S
Co2065 O2089 2.097 . S
Co2065 N2106 2.151 . S
Co2065 N2114 2.214 . S
Co2066 O2067 2.160 . S
Co2066 O2072 2.058 . S
Co2066 O2082 2.057 . S
Co2066 O2097 2.037 . S
Co2066 N2101 2.145 . S
Co2066 N2122 2.257 . S
O2067 Co2065 2.143 . S
O2067 Co2066 2.160 . S
C2068 O2069 1.278 . S
C2068 O2076 1.224 . S
O2069 C2068 1.278 . S
C2070 O2071 1.245 . S
C2070 O2082 1.232 . S
O2071 C2070 1.245 . S
O2072 Co2066 2.058 . S
O2072 C2098 1.269 . S
O2073 Co2065 2.074 . S
O2073 C2098 1.257 . S
H2074 C2099 0.930 . S
H2075 C2105 0.930 . S
O2076 Co2065 2.093 . S
O2076 C2068 1.224 . S
H2077 C2109 0.929 . S
H2078 C2111 0.930 . S
H2079 C2112 0.930 . S
H2080 C2110 0.929 . S
H2081 C2113 0.928 . S
O2082 Co2066 2.057 . S
O2082 C2070 1.232 . S
H2083 C2102 0.929 . S
H2084 C2103 0.929 . S
H2085 C2115 0.931 . S
H2086 C2107 0.929 . S
H2087 C2116 0.930 . S
H2088 C2108 0.931 . S
O2089 Co2065 2.097 . S
O2089 C2117 1.214 . S
H2090 C2118 0.929 . S
H2091 C2119 0.929 . S
H2092 C2120 0.930 . S
H2093 C2121 0.929 . S
H2094 C2123 0.930 . S
H2095 C2100 0.930 . S
H2096 C2104 0.930 . S
O2097 Co2066 2.037 . S
O2097 C2117 1.234 . S
C2098 O2072 1.269 . S
C2098 O2073 1.257 . S
C2099 H2074 0.930 . S
C2099 C2102 1.388 . S
C2099 C2104 1.418 . S
C2100 H2095 0.930 . S
C2100 C2103 1.404 . S
C2100 C2104 1.353 . S
N2101 Co2066 2.145 . S
N2101 C2102 1.397 . S
N2101 C2103 1.334 . S
C2102 H2083 0.929 . S
C2102 C2099 1.388 . S
C2102 N2101 1.397 . S
C2103 H2084 0.929 . S
C2103 C2100 1.404 . S
C2103 N2101 1.334 . S
C2104 H2096 0.930 . S
C2104 C2099 1.418 . S
C2104 C2100 1.353 . S
C2105 H2075 0.930 . S
C2105 N2106 1.330 . S
C2105 C2107 1.446 . S
N2106 Co2065 2.151 . S
N2106 C2105 1.330 . S
N2106 C2110 1.418 . S
C2107 H2086 0.929 . S
C2107 C2105 1.446 . S
C2107 C2108 1.332 . S
C2108 H2088 0.931 . S
C2108 C2107 1.332 . S
C2108 C2109 1.267 . S
C2109 H2077 0.929 . S
C2109 C2108 1.267 . S
C2109 C2110 1.251 . S
C2110 H2080 0.929 . S
C2110 N2106 1.418 . S
C2110 C2109 1.251 . S
C2111 H2078 0.930 . S
C2111 C2113 1.406 . S
C2111 C2116 1.261 . S
C2112 H2079 0.930 . S
C2112 N2114 1.325 . S
C2112 C2115 1.357 . S
C2113 H2081 0.928 . S
C2113 C2111 1.406 . S
C2113 N2114 1.261 . S
N2114 Co2065 2.214 . S
N2114 C2112 1.325 . S
N2114 C2113 1.261 . S
C2115 H2085 0.931 . S
C2115 C2112 1.357 . S
C2115 C2116 1.312 . S
C2116 H2087 0.930 . S
C2116 C2111 1.261 . S
C2116 C2115 1.312 . S
C2117 O2089 1.214 . S
C2117 O2097 1.234 . S
C2118 H2090 0.929 . S
C2118 C2121 1.391 . S
C2118 C2123 1.391 . S
C2119 H2091 0.929 . S
C2119 C2120 1.390 . S
C2119 N2122 1.391 . S
C2120 H2092 0.930 . S
C2120 C2119 1.390 . S
C2120 C2121 1.392 . S
C2121 H2093 0.929 . S
C2121 C2118 1.391 . S
C2121 C2120 1.392 . S
N2122 Co2066 2.257 . S
N2122 C2119 1.391 . S
N2122 C2123 1.388 . S
C2123 H2094 0.930 . S
C2123 C2118 1.391 . S
C2123 N2122 1.388 . S
H2124 C2130 0.930 . S
H2125 C2133 0.930 . S
H2126 C2134 0.930 . S
H2127 C2135 0.930 . S
H2128 C2138 0.930 . S
H2129 C2139 0.930 . S
C2130 H2124 0.930 . S
C2130 C2131 1.355 . S
C2130 C2132 1.415 . S
C2131 C2130 1.355 . S
C2131 C2133 1.419 . S
C2132 C2130 1.415 . S
C2132 C2137 1.425 . S
C2132 C2139 1.409 . S
C2133 H2125 0.930 . S
C2133 C2131 1.419 . S
C2133 C2134 1.362 . S
C2134 H2126 0.930 . S
C2134 C2133 1.362 . S
C2134 C2137 1.409 . S
C2135 H2127 0.930 . S
C2135 C2136 1.355 . S
C2135 C2137 1.415 . S
C2136 C2135 1.355 . S
C2136 C2138 1.419 . S
C2137 C2132 1.425 . S
C2137 C2134 1.409 . S
C2137 C2135 1.415 . S
C2138 H2128 0.930 . S
C2138 C2136 1.419 . S
C2138 C2139 1.362 . S
C2139 H2129 0.930 . S
C2139 C2132 1.409 . S
C2139 C2138 1.362 . S
H2140 C2146 0.930 . S
H2141 C2149 0.930 . S
H2142 C2150 0.930 . S
H2143 C2151 0.930 . S
H2144 C2154 0.930 . S
H2145 C2155 0.930 . S
C2146 H2140 0.930 . S
C2146 C2147 1.355 . S
C2146 C2148 1.415 . S
C2147 C2146 1.355 . S
C2147 C2149 1.419 . S
C2148 C2146 1.415 . S
C2148 C2153 1.425 . S
C2148 C2155 1.409 . S
C2149 H2141 0.930 . S
C2149 C2147 1.419 . S
C2149 C2150 1.362 . S
C2150 H2142 0.930 . S
C2150 C2149 1.362 . S
C2150 C2153 1.409 . S
C2151 H2143 0.930 . S
C2151 C2152 1.355 . S
C2151 C2153 1.415 . S
C2152 C2151 1.355 . S
C2152 C2154 1.419 . S
C2153 C2148 1.425 . S
C2153 C2150 1.409 . S
C2153 C2151 1.415 . S
C2154 H2144 0.930 . S
C2154 C2152 1.419 . S
C2154 C2155 1.362 . S
C2155 H2145 0.930 . S
C2155 C2148 1.409 . S
C2155 C2154 1.362 . S
H2156 C2162 0.930 . S
H2157 C2165 0.930 . S
H2158 C2166 0.930 . S
H2159 C2167 0.930 . S
H2160 C2170 0.930 . S
H2161 C2171 0.930 . S
C2162 H2156 0.930 . S
C2162 C2163 1.355 . S
C2162 C2164 1.415 . S
C2163 C2162 1.355 . S
C2163 C2165 1.419 . S
C2164 C2162 1.415 . S
C2164 C2169 1.425 . S
C2164 C2171 1.409 . S
C2165 H2157 0.930 . S
C2165 C2163 1.419 . S
C2165 C2166 1.362 . S
C2166 H2158 0.930 . S
C2166 C2165 1.362 . S
C2166 C2169 1.409 . S
C2167 H2159 0.930 . S
C2167 C2168 1.355 . S
C2167 C2169 1.415 . S
C2168 C2167 1.355 . S
C2168 C2170 1.419 . S
C2169 C2164 1.425 . S
C2169 C2166 1.409 . S
C2169 C2167 1.415 . S
C2170 H2160 0.930 . S
C2170 C2168 1.419 . S
C2170 C2171 1.362 . S
C2171 H2161 0.930 . S
C2171 C2164 1.409 . S
C2171 C2170 1.362 . S
H2172 C2178 0.930 . S
H2173 C2181 0.930 . S
H2174 C2182 0.930 . S
H2175 C2183 0.930 . S
H2176 C2186 0.930 . S
H2177 C2187 0.930 . S
C2178 H2172 0.930 . S
C2178 C2179 1.355 . S
C2178 C2180 1.415 . S
C2179 C2178 1.355 . S
C2179 C2181 1.419 . S
C2180 C2178 1.415 . S
C2180 C2185 1.425 . S
C2180 C2187 1.409 . S
C2181 H2173 0.930 . S
C2181 C2179 1.419 . S
C2181 C2182 1.362 . S
C2182 H2174 0.930 . S
C2182 C2181 1.362 . S
C2182 C2185 1.409 . S
C2183 H2175 0.930 . S
C2183 C2184 1.355 . S
C2183 C2185 1.415 . S
C2184 C2183 1.355 . S
C2184 C2186 1.419 . S
C2185 C2180 1.425 . S
C2185 C2182 1.409 . S
C2185 C2183 1.415 . S
C2186 H2176 0.930 . S
C2186 C2184 1.419 . S
C2186 C2187 1.362 . S
C2187 H2177 0.930 . S
C2187 C2180 1.409 . S
C2187 C2186 1.362 . S
H2188 C2194 0.930 . S
H2189 C2197 0.930 . S
H2190 C2198 0.930 . S
H2191 C2199 0.930 . S
H2192 C2202 0.930 . S
H2193 C2203 0.930 . S
C2194 H2188 0.930 . S
C2194 C2195 1.355 . S
C2194 C2196 1.415 . S
C2195 C2194 1.355 . S
C2195 C2197 1.419 . S
C2196 C2194 1.415 . S
C2196 C2201 1.425 . S
C2196 C2203 1.409 . S
C2197 H2189 0.930 . S
C2197 C2195 1.419 . S
C2197 C2198 1.362 . S
C2198 H2190 0.930 . S
C2198 C2197 1.362 . S
C2198 C2201 1.409 . S
C2199 H2191 0.930 . S
C2199 C2200 1.355 . S
C2199 C2201 1.415 . S
C2200 C2199 1.355 . S
C2200 C2202 1.419 . S
C2201 C2196 1.425 . S
C2201 C2198 1.409 . S
C2201 C2199 1.415 . S
C2202 H2192 0.930 . S
C2202 C2200 1.419 . S
C2202 C2203 1.362 . S
C2203 H2193 0.930 . S
C2203 C2196 1.409 . S
C2203 C2202 1.362 . S
H2204 C2210 0.930 . S
H2205 C2213 0.930 . S
H2206 C2214 0.930 . S
H2207 C2215 0.930 . S
H2208 C2218 0.930 . S
H2209 C2219 0.930 . S
C2210 H2204 0.930 . S
C2210 C2211 1.355 . S
C2210 C2212 1.415 . S
C2211 C2210 1.355 . S
C2211 C2213 1.419 . S
C2212 C2210 1.415 . S
C2212 C2217 1.425 . S
C2212 C2219 1.409 . S
C2213 H2205 0.930 . S
C2213 C2211 1.419 . S
C2213 C2214 1.362 . S
C2214 H2206 0.930 . S
C2214 C2213 1.362 . S
C2214 C2217 1.409 . S
C2215 H2207 0.930 . S
C2215 C2216 1.355 . S
C2215 C2217 1.415 . S
C2216 C2215 1.355 . S
C2216 C2218 1.419 . S
C2217 C2212 1.425 . S
C2217 C2214 1.409 . S
C2217 C2215 1.415 . S
C2218 H2208 0.930 . S
C2218 C2216 1.419 . S
C2218 C2219 1.362 . S
C2219 H2209 0.930 . S
C2219 C2212 1.409 . S
C2219 C2218 1.362 . S
H2220 C2226 0.930 . S
H2221 C2229 0.930 . S
H2222 C2230 0.930 . S
H2223 C2231 0.930 . S
H2224 C2234 0.930 . S
H2225 C2235 0.930 . S
C2226 H2220 0.930 . S
C2226 C2227 1.355 . S
C2226 C2228 1.415 . S
C2227 C2226 1.355 . S
C2227 C2229 1.419 . S
C2228 C2226 1.415 . S
C2228 C2233 1.425 . S
C2228 C2235 1.409 . S
C2229 H2221 0.930 . S
C2229 C2227 1.419 . S
C2229 C2230 1.362 . S
C2230 H2222 0.930 . S
C2230 C2229 1.362 . S
C2230 C2233 1.409 . S
C2231 H2223 0.930 . S
C2231 C2232 1.355 . S
C2231 C2233 1.415 . S
C2232 C2231 1.355 . S
C2232 C2234 1.419 . S
C2233 C2228 1.425 . S
C2233 C2230 1.409 . S
C2233 C2231 1.415 . S
C2234 H2224 0.930 . S
C2234 C2232 1.419 . S
C2234 C2235 1.362 . S
C2235 H2225 0.930 . S
C2235 C2228 1.409 . S
C2235 C2234 1.362 . S
H2236 C2242 0.930 . S
H2237 C2245 0.930 . S
H2238 C2246 0.930 . S
H2239 C2247 0.930 . S
H2240 C2250 0.930 . S
H2241 C2251 0.930 . S
C2242 H2236 0.930 . S
C2242 C2243 1.355 . S
C2242 C2244 1.415 . S
C2243 C2242 1.355 . S
C2243 C2245 1.419 . S
C2244 C2242 1.415 . S
C2244 C2249 1.425 . S
C2244 C2251 1.409 . S
C2245 H2237 0.930 . S
C2245 C2243 1.419 . S
C2245 C2246 1.362 . S
C2246 H2238 0.930 . S
C2246 C2245 1.362 . S
C2246 C2249 1.409 . S
C2247 H2239 0.930 . S
C2247 C2248 1.355 . S
C2247 C2249 1.415 . S
C2248 C2247 1.355 . S
C2248 C2250 1.419 . S
C2249 C2244 1.425 . S
C2249 C2246 1.409 . S
C2249 C2247 1.415 . S
C2250 H2240 0.930 . S
C2250 C2248 1.419 . S
C2250 C2251 1.362 . S
C2251 H2241 0.930 . S
C2251 C2244 1.409 . S
C2251 C2250 1.362 . S
H2252 C2258 0.930 . S
H2253 C2261 0.930 . S
H2254 C2262 0.930 . S
H2255 C2263 0.930 . S
H2256 C2266 0.930 . S
H2257 C2267 0.930 . S
C2258 H2252 0.930 . S
C2258 C2259 1.355 . S
C2258 C2260 1.415 . S
C2259 C2258 1.355 . S
C2259 C2261 1.419 . S
C2260 C2258 1.415 . S
C2260 C2265 1.425 . S
C2260 C2267 1.409 . S
C2261 H2253 0.930 . S
C2261 C2259 1.419 . S
C2261 C2262 1.362 . S
C2262 H2254 0.930 . S
C2262 C2261 1.362 . S
C2262 C2265 1.409 . S
C2263 H2255 0.930 . S
C2263 C2264 1.355 . S
C2263 C2265 1.415 . S
C2264 C2263 1.355 . S
C2264 C2266 1.419 . S
C2265 C2260 1.425 . S
C2265 C2262 1.409 . S
C2265 C2263 1.415 . S
C2266 H2256 0.930 . S
C2266 C2264 1.419 . S
C2266 C2267 1.362 . S
C2267 H2257 0.930 . S
C2267 C2260 1.409 . S
C2267 C2266 1.362 . S
H2268 C2274 0.930 . S
H2269 C2277 0.930 . S
H2270 C2278 0.930 . S
H2271 C2279 0.930 . S
H2272 C2282 0.930 . S
H2273 C2283 0.930 . S
C2274 H2268 0.930 . S
C2274 C2275 1.355 . S
C2274 C2276 1.415 . S
C2275 C2274 1.355 . S
C2275 C2277 1.419 . S
C2276 C2274 1.415 . S
C2276 C2281 1.425 . S
C2276 C2283 1.409 . S
C2277 H2269 0.930 . S
C2277 C2275 1.419 . S
C2277 C2278 1.362 . S
C2278 H2270 0.930 . S
C2278 C2277 1.362 . S
C2278 C2281 1.409 . S
C2279 H2271 0.930 . S
C2279 C2280 1.355 . S
C2279 C2281 1.415 . S
C2280 C2279 1.355 . S
C2280 C2282 1.419 . S
C2281 C2276 1.425 . S
C2281 C2278 1.409 . S
C2281 C2279 1.415 . S
C2282 H2272 0.930 . S
C2282 C2280 1.419 . S
C2282 C2283 1.362 . S
C2283 H2273 0.930 . S
C2283 C2276 1.409 . S
C2283 C2282 1.362 . S
H2284 C2290 0.930 . S
H2285 C2293 0.930 . S
H2286 C2294 0.930 . S
H2287 C2295 0.930 . S
H2288 C2298 0.930 . S
H2289 C2299 0.930 . S
C2290 H2284 0.930 . S
C2290 C2291 1.355 . S
C2290 C2292 1.415 . S
C2291 C2290 1.355 . S
C2291 C2293 1.419 . S
C2292 C2290 1.415 . S
C2292 C2297 1.425 . S
C2292 C2299 1.409 . S
C2293 H2285 0.930 . S
C2293 C2291 1.419 . S
C2293 C2294 1.362 . S
C2294 H2286 0.930 . S
C2294 C2293 1.362 . S
C2294 C2297 1.409 . S
C2295 H2287 0.930 . S
C2295 C2296 1.355 . S
C2295 C2297 1.415 . S
C2296 C2295 1.355 . S
C2296 C2298 1.419 . S
C2297 C2292 1.425 . S
C2297 C2294 1.409 . S
C2297 C2295 1.415 . S
C2298 H2288 0.930 . S
C2298 C2296 1.419 . S
C2298 C2299 1.362 . S
C2299 H2289 0.930 . S
C2299 C2292 1.409 . S
C2299 C2298 1.362 . S
H2300 C2306 0.930 . S
H2301 C2309 0.930 . S
H2302 C2310 0.930 . S
H2303 C2311 0.930 . S
H2304 C2314 0.930 . S
H2305 C2315 0.930 . S
C2306 H2300 0.930 . S
C2306 C2307 1.355 . S
C2306 C2308 1.415 . S
C2307 C2306 1.355 . S
C2307 C2309 1.419 . S
C2308 C2306 1.415 . S
C2308 C2313 1.425 . S
C2308 C2315 1.409 . S
C2309 H2301 0.930 . S
C2309 C2307 1.419 . S
C2309 C2310 1.362 . S
C2310 H2302 0.930 . S
C2310 C2309 1.362 . S
C2310 C2313 1.409 . S
C2311 H2303 0.930 . S
C2311 C2312 1.355 . S
C2311 C2313 1.415 . S
C2312 C2311 1.355 . S
C2312 C2314 1.419 . S
C2313 C2308 1.425 . S
C2313 C2310 1.409 . S
C2313 C2311 1.415 . S
C2314 H2304 0.930 . S
C2314 C2312 1.419 . S
C2314 C2315 1.362 . S
C2315 H2305 0.930 . S
C2315 C2308 1.409 . S
C2315 C2314 1.362 . S
H2316 C2322 0.930 . S
H2317 C2325 0.930 . S
H2318 C2326 0.930 . S
H2319 C2327 0.930 . S
H2320 C2330 0.930 . S
H2321 C2331 0.930 . S
C2322 H2316 0.930 . S
C2322 C2323 1.355 . S
C2322 C2324 1.415 . S
C2323 C2322 1.355 . S
C2323 C2325 1.419 . S
C2324 C2322 1.415 . S
C2324 C2329 1.426 1_655 S
C2324 C2331 1.408 1_655 S
C2325 H2317 0.930 . S
C2325 C2323 1.419 . S
C2325 C2326 1.362 . S
C2326 H2318 0.930 . S
C2326 C2325 1.362 . S
C2326 C2329 1.408 1_655 S
C2327 H2319 0.930 . S
C2327 C2328 1.355 . S
C2327 C2329 1.415 . S
C2328 C2327 1.355 . S
C2328 C2330 1.419 . S
C2329 C2324 1.426 1_455 S
C2329 C2326 1.408 1_455 S
C2329 C2327 1.415 . S
C2330 H2320 0.930 . S
C2330 C2328 1.419 . S
C2330 C2331 1.362 . S
C2331 H2321 0.930 . S
C2331 C2324 1.408 1_455 S
C2331 C2330 1.362 . S
H2332 C2338 0.930 . S
H2333 C2341 0.930 . S
H2334 C2342 0.930 . S
H2335 C2343 0.930 . S
H2336 C2346 0.930 . S
H2337 C2347 0.930 . S
C2338 H2332 0.930 . S
C2338 C2339 1.355 . S
C2338 C2340 1.415 . S
C2339 C2338 1.355 . S
C2339 C2341 1.419 . S
C2340 C2338 1.415 . S
C2340 C2345 1.425 . S
C2340 C2347 1.409 . S
C2341 H2333 0.930 . S
C2341 C2339 1.419 . S
C2341 C2342 1.362 . S
C2342 H2334 0.930 . S
C2342 C2341 1.362 . S
C2342 C2345 1.409 . S
C2343 H2335 0.930 . S
C2343 C2344 1.355 . S
C2343 C2345 1.415 . S
C2344 C2343 1.355 . S
C2344 C2346 1.419 . S
C2345 C2340 1.425 . S
C2345 C2342 1.409 . S
C2345 C2343 1.415 . S
C2346 H2336 0.930 . S
C2346 C2344 1.419 . S
C2346 C2347 1.362 . S
C2347 H2337 0.930 . S
C2347 C2340 1.409 . S
C2347 C2346 1.362 . S
H2348 C2354 0.930 . S
H2349 C2357 0.930 . S
H2350 C2358 0.930 . S
H2351 C2359 0.930 . S
H2352 C2362 0.930 . S
H2353 C2363 0.930 . S
C2354 H2348 0.930 . S
C2354 C2355 1.355 . S
C2354 C2356 1.415 1_545 S
C2355 C2354 1.355 . S
C2355 C2357 1.419 . S
C2356 C2354 1.415 1_565 S
C2356 C2361 1.425 1_565 S
C2356 C2363 1.409 . S
C2357 H2349 0.930 . S
C2357 C2355 1.419 . S
C2357 C2358 1.362 . S
C2358 H2350 0.930 . S
C2358 C2357 1.362 . S
C2358 C2361 1.409 . S
C2359 H2351 0.930 . S
C2359 C2360 1.355 . S
C2359 C2361 1.415 1_565 S
C2360 C2359 1.355 . S
C2360 C2362 1.419 . S
C2361 C2356 1.425 1_545 S
C2361 C2358 1.409 . S
C2361 C2359 1.415 1_545 S
C2362 H2352 0.930 . S
C2362 C2360 1.419 . S
C2362 C2363 1.362 . S
C2363 H2353 0.930 . S
C2363 C2356 1.409 . S
C2363 C2362 1.362 . S
H2364 C2370 0.930 . S
H2365 C2373 0.930 . S
H2366 C2374 0.930 . S
H2367 C2375 0.930 . S
H2368 C2378 0.930 . S
H2369 C2379 0.930 . S
C2370 H2364 0.930 . S
C2370 C2371 1.355 . S
C2370 C2372 1.415 . S
C2371 C2370 1.355 . S
C2371 C2373 1.419 . S
C2372 C2370 1.415 . S
C2372 C2377 1.425 1_546 S
C2372 C2379 1.409 1_556 S
C2373 H2365 0.930 . S
C2373 C2371 1.419 . S
C2373 C2374 1.362 1_545 S
C2374 H2366 0.930 . S
C2374 C2373 1.362 1_565 S
C2374 C2377 1.409 1_556 S
C2375 H2367 0.930 . S
C2375 C2376 1.355 . S
C2375 C2377 1.415 . S
C2376 C2375 1.355 . S
C2376 C2378 1.419 . S
C2377 C2372 1.425 1_564 S
C2377 C2374 1.409 1_554 S
C2377 C2375 1.415 . S
C2378 H2368 0.930 . S
C2378 C2376 1.419 . S
C2378 C2379 1.362 1_565 S
C2379 H2369 0.930 . S
C2379 C2372 1.409 1_554 S
C2379 C2378 1.362 1_545 S
H2380 C2386 0.930 . S
H2381 C2389 0.930 . S
H2382 C2390 0.930 . S
H2383 C2391 0.930 . S
H2384 C2394 0.930 . S
H2385 C2395 0.930 . S
C2386 H2380 0.930 . S
C2386 C2387 1.355 . S
C2386 C2388 1.417 1_556 S
C2387 C2386 1.355 . S
C2387 C2389 1.419 . S
C2388 C2386 1.417 1_554 S
C2388 C2393 1.425 1_654 S
C2388 C2395 1.406 . S
C2389 H2381 0.930 . S
C2389 C2387 1.419 . S
C2389 C2390 1.362 1_655 S
C2390 H2382 0.930 . S
C2390 C2389 1.362 1_455 S
C2390 C2393 1.406 . S
C2391 H2383 0.930 . S
C2391 C2392 1.355 . S
C2391 C2393 1.417 1_554 S
C2392 C2391 1.355 . S
C2392 C2394 1.419 . S
C2393 C2388 1.425 1_456 S
C2393 C2390 1.406 . S
C2393 C2391 1.417 1_556 S
C2394 H2384 0.930 . S
C2394 C2392 1.419 . S
C2394 C2395 1.362 1_455 S
C2395 H2385 0.930 . S
C2395 C2388 1.406 . S
C2395 C2394 1.362 1_655 S
H2396 C2402 0.930 . S
H2397 C2405 0.930 . S
H2398 C2406 0.937 . S
H2399 C2407 0.930 . S
H2400 C2410 0.930 . S
H2401 C2411 0.937 . S
C2402 H2396 0.930 . S
C2402 C2403 1.355 . S
C2402 C2404 1.415 . S
C2403 C2402 1.355 . S
C2403 C2405 1.419 . S
C2404 C2402 1.415 . S
C2404 C2409 1.425 1_556 S
C2404 C2411 1.409 1_556 S
C2405 H2397 0.930 . S
C2405 C2403 1.419 . S
C2405 C2406 1.362 . S
C2406 H2398 0.937 . S
C2406 C2405 1.362 . S
C2406 C2409 1.409 1_556 S
C2407 H2399 0.930 . S
C2407 C2408 1.355 . S
C2407 C2409 1.415 . S
C2408 C2407 1.355 . S
C2408 C2410 1.419 . S
C2409 C2404 1.425 1_554 S
C2409 C2406 1.409 1_554 S
C2409 C2407 1.415 . S
C2410 H2400 0.930 . S
C2410 C2408 1.419 . S
C2410 C2411 1.362 . S
C2411 H2401 0.937 . S
C2411 C2404 1.409 1_554 S
C2411 C2410 1.362 . S
H2412 C2418 0.930 . S
H2413 C2421 0.930 . S
H2414 C2422 0.930 . S
H2415 C2423 0.923 1_556 S
H2416 C2426 0.930 . S
H2417 C2427 0.930 . S
C2418 H2412 0.930 . S
C2418 C2419 1.355 . S
C2418 C2420 1.415 . S
C2419 C2418 1.355 . S
C2419 C2421 1.419 . S
C2420 C2418 1.415 . S
C2420 C2425 1.425 . S
C2420 C2427 1.409 1_556 S
C2421 H2413 0.930 . S
C2421 C2419 1.419 . S
C2421 C2422 1.362 . S
C2422 H2414 0.930 . S
C2422 C2421 1.362 . S
C2422 C2425 1.409 . S
C2423 H2415 0.923 1_554 S
C2423 C2424 1.383 . S
C2423 C2425 1.392 1_554 S
C2424 C2423 1.383 . S
C2424 C2426 1.419 . S
C2425 C2420 1.425 . S
C2425 C2422 1.409 . S
C2425 C2423 1.392 1_556 S
C2426 H2416 0.930 . S
C2426 C2424 1.419 . S
C2426 C2427 1.362 . S
C2427 H2417 0.930 . S
C2427 C2420 1.409 1_554 S
C2427 C2426 1.362 . S
H2428 C2434 0.930 . S
H2429 C2437 0.930 1_455 S
H2430 C2438 0.930 . S
H2431 C2439 0.930 . S
H2432 C2442 0.930 . S
H2433 C2443 0.930 . S
C2434 H2428 0.930 . S
C2434 C2435 1.355 . S
C2434 C2436 1.415 . S
C2435 C2434 1.355 . S
C2435 C2437 1.419 . S
C2436 C2434 1.415 . S
C2436 C2441 1.425 . S
C2436 C2443 1.409 . S
C2437 H2429 0.930 1_655 S
C2437 C2435 1.419 . S
C2437 C2438 1.362 . S
C2438 H2430 0.930 . S
C2438 C2437 1.362 . S
C2438 C2441 1.409 . S
C2439 H2431 0.930 . S
C2439 C2440 1.355 . S
C2439 C2441 1.415 1_554 S
C2440 C2439 1.355 . S
C2440 C2442 1.419 . S
C2441 C2436 1.425 . S
C2441 C2438 1.409 . S
C2441 C2439 1.415 1_556 S
C2442 H2432 0.930 . S
C2442 C2440 1.419 . S
C2442 C2443 1.362 1_554 S
C2443 H2433 0.930 . S
C2443 C2436 1.409 . S
C2443 C2442 1.362 1_556 S
H2444 C2450 0.930 . S
H2445 C2453 0.930 . S
H2446 C2454 0.930 . S
H2447 C2455 0.930 . S
H2448 C2458 0.930 . S
H2449 C2459 0.930 . S
C2450 H2444 0.930 . S
C2450 C2451 1.355 1_556 S
C2450 C2452 1.415 . S
C2451 C2450 1.355 1_554 S
C2451 C2453 1.419 . S
C2452 C2450 1.415 . S
C2452 C2457 1.425 . S
C2452 C2459 1.409 . S
C2453 H2445 0.930 . S
C2453 C2451 1.419 . S
C2453 C2454 1.362 . S
C2454 H2446 0.930 . S
C2454 C2453 1.362 . S
C2454 C2457 1.409 1_554 S
C2455 H2447 0.930 . S
C2455 C2456 1.355 . S
C2455 C2457 1.415 . S
C2456 C2455 1.355 . S
C2456 C2458 1.419 . S
C2457 C2452 1.425 . S
C2457 C2454 1.409 1_556 S
C2457 C2455 1.415 . S
C2458 H2448 0.930 . S
C2458 C2456 1.419 . S
C2458 C2459 1.362 . S
C2459 H2449 0.930 . S
C2459 C2452 1.409 . S
C2459 C2458 1.362 . S
H2460 C2466 0.930 1_655 S
H2461 C2469 0.930 . S
H2462 C2470 0.930 . S
H2463 C2471 0.930 . S
H2464 C2474 0.930 . S
H2465 C2475 0.930 . S
C2466 H2460 0.930 1_455 S
C2466 C2467 1.355 . S
C2466 C2468 1.415 . S
C2467 C2466 1.355 . S
C2467 C2469 1.419 . S
C2468 C2466 1.415 . S
C2468 C2473 1.425 . S
C2468 C2475 1.409 . S
C2469 H2461 0.930 . S
C2469 C2467 1.419 . S
C2469 C2470 1.362 . S
C2470 H2462 0.930 . S
C2470 C2469 1.362 . S
C2470 C2473 1.409 . S
C2471 H2463 0.930 . S
C2471 C2472 1.355 . S
C2471 C2473 1.415 . S
C2472 C2471 1.355 . S
C2472 C2474 1.419 . S
C2473 C2468 1.425 . S
C2473 C2470 1.409 . S
C2473 C2471 1.415 . S
C2474 H2464 0.930 . S
C2474 C2472 1.419 . S
C2474 C2475 1.362 . S
C2475 H2465 0.930 . S
C2475 C2468 1.409 . S
C2475 C2474 1.362 . S
H2476 C2482 0.930 . S
H2477 C2485 0.930 . S
H2478 C2486 0.930 . S
H2479 C2487 0.930 . S
H2480 C2490 0.930 . S
H2481 C2491 0.930 . S
C2482 H2476 0.930 . S
C2482 C2483 1.355 . S
C2482 C2484 1.415 . S
C2483 C2482 1.355 . S
C2483 C2485 1.419 . S
C2484 C2482 1.415 . S
C2484 C2489 1.425 . S
C2484 C2491 1.409 . S
C2485 H2477 0.930 . S
C2485 C2483 1.419 . S
C2485 C2486 1.362 . S
C2486 H2478 0.930 . S
C2486 C2485 1.362 . S
C2486 C2489 1.409 . S
C2487 H2479 0.930 . S
C2487 C2488 1.355 . S
C2487 C2489 1.415 . S
C2488 C2487 1.355 . S
C2488 C2490 1.419 . S
C2489 C2484 1.425 . S
C2489 C2486 1.409 . S
C2489 C2487 1.415 . S
C2490 H2480 0.930 . S
C2490 C2488 1.419 . S
C2490 C2491 1.362 . S
C2491 H2481 0.930 . S
C2491 C2484 1.409 . S
C2491 C2490 1.362 . S
H2492 C2498 0.930 . S
H2493 C2501 0.930 1_545 S
H2494 C2502 0.930 . S
H2495 C2503 0.930 . S
H2496 C2506 0.930 . S
H2497 C2507 0.930 . S
C2498 H2492 0.930 . S
C2498 C2499 1.355 . S
C2498 C2500 1.415 . S
C2499 C2498 1.355 . S
C2499 C2501 1.419 . S
C2500 C2498 1.415 . S
C2500 C2505 1.425 . S
C2500 C2507 1.409 . S
C2501 H2493 0.930 1_565 S
C2501 C2499 1.419 . S
C2501 C2502 1.362 . S
C2502 H2494 0.930 . S
C2502 C2501 1.362 . S
C2502 C2505 1.409 . S
C2503 H2495 0.930 . S
C2503 C2504 1.355 . S
C2503 C2505 1.415 . S
C2504 C2503 1.355 . S
C2504 C2506 1.419 . S
C2505 C2500 1.425 . S
C2505 C2502 1.409 . S
C2505 C2503 1.415 . S
C2506 H2496 0.930 . S
C2506 C2504 1.419 . S
C2506 C2507 1.362 . S
C2507 H2497 0.930 . S
C2507 C2500 1.409 . S
C2507 C2506 1.362 . S
H2508 C2514 0.930 . S
H2509 C2517 0.930 . S
H2510 C2518 0.930 . S
H2511 C2519 0.930 . S
H2512 C2522 0.930 . S
H2513 C2523 0.930 . S
C2514 H2508 0.930 . S
C2514 C2515 1.355 1_554 S
C2514 C2516 1.415 . S
C2515 C2514 1.355 1_556 S
C2515 C2517 1.419 . S
C2516 C2514 1.415 . S
C2516 C2521 1.425 . S
C2516 C2523 1.409 . S
C2517 H2509 0.930 . S
C2517 C2515 1.419 . S
C2517 C2518 1.362 . S
C2518 H2510 0.930 . S
C2518 C2517 1.362 . S
C2518 C2521 1.409 1_556 S
C2519 H2511 0.930 . S
C2519 C2520 1.355 . S
C2519 C2521 1.415 . S
C2520 C2519 1.355 . S
C2520 C2522 1.419 . S
C2521 C2516 1.425 . S
C2521 C2518 1.409 1_554 S
C2521 C2519 1.415 . S
C2522 H2512 0.930 . S
C2522 C2520 1.419 . S
C2522 C2523 1.362 . S
C2523 H2513 0.930 . S
C2523 C2516 1.409 . S
C2523 C2522 1.362 . S
H2524 C2530 0.930 . S
H2525 C2533 0.930 . S
H2526 C2534 0.930 . S
H2527 C2535 0.930 . S
H2528 C2538 0.930 . S
H2529 C2539 0.930 . S
C2530 H2524 0.930 . S
C2530 C2531 1.355 . S
C2530 C2532 1.415 . S
C2531 C2530 1.355 . S
C2531 C2533 1.419 1_556 S
C2532 C2530 1.415 . S
C2532 C2537 1.425 1_556 S
C2532 C2539 1.409 . S
C2533 H2525 0.930 . S
C2533 C2531 1.419 1_554 S
C2533 C2534 1.362 . S
C2534 H2526 0.930 . S
C2534 C2533 1.362 . S
C2534 C2537 1.409 . S
C2535 H2527 0.930 . S
C2535 C2536 1.355 . S
C2535 C2537 1.415 . S
C2536 C2535 1.355 . S
C2536 C2538 1.419 1_455 S
C2537 C2532 1.425 1_554 S
C2537 C2534 1.409 . S
C2537 C2535 1.415 . S
C2538 H2528 0.930 . S
C2538 C2536 1.419 1_655 S
C2538 C2539 1.362 1_654 S
C2539 H2529 0.930 . S
C2539 C2532 1.409 . S
C2539 C2538 1.362 1_456 S
H2540 C2546 0.930 . S
H2541 C2549 0.930 . S
H2542 C2550 0.930 . S
H2543 C2551 0.930 . S
H2544 C2554 0.930 . S
H2545 C2555 0.930 . S
C2546 H2540 0.930 . S
C2546 C2547 1.355 . S
C2546 C2548 1.415 1_556 S
C2547 C2546 1.355 . S
C2547 C2549 1.419 . S
C2548 C2546 1.415 1_554 S
C2548 C2553 1.425 . S
C2548 C2555 1.409 . S
C2549 H2541 0.930 . S
C2549 C2547 1.419 . S
C2549 C2550 1.362 . S
C2550 H2542 0.930 . S
C2550 C2549 1.362 . S
C2550 C2553 1.409 1_556 S
C2551 H2543 0.930 . S
C2551 C2552 1.355 . S
C2551 C2553 1.415 . S
C2552 C2551 1.355 . S
C2552 C2554 1.419 . S
C2553 C2548 1.425 . S
C2553 C2550 1.409 1_554 S
C2553 C2551 1.415 . S
C2554 H2544 0.930 . S
C2554 C2552 1.419 . S
C2554 C2555 1.362 . S
C2555 H2545 0.930 . S
C2555 C2548 1.409 . S
C2555 C2554 1.362 . S
H2556 C2562 0.930 . S
H2557 C2565 0.930 . S
H2558 C2566 0.930 . S
H2559 C2567 0.942 . S
H2560 C2570 0.930 . S
H2561 C2571 0.930 . S
C2562 H2556 0.930 . S
C2562 C2563 1.355 . S
C2562 C2564 1.415 . S
C2563 C2562 1.355 . S
C2563 C2565 1.419 . S
C2564 C2562 1.415 . S
C2564 C2569 1.425 . S
C2564 C2571 1.409 . S
C2565 H2557 0.930 . S
C2565 C2563 1.419 . S
C2565 C2566 1.362 . S
C2566 H2558 0.930 . S
C2566 C2565 1.362 . S
C2566 C2569 1.409 . S
C2567 H2559 0.942 . S
C2567 C2568 1.355 . S
C2567 C2569 1.415 . S
C2568 C2567 1.355 . S
C2568 C2570 1.419 . S
C2569 C2564 1.425 . S
C2569 C2566 1.409 . S
C2569 C2567 1.415 . S
C2570 H2560 0.930 . S
C2570 C2568 1.419 . S
C2570 C2571 1.362 . S
C2571 H2561 0.930 . S
C2571 C2564 1.409 . S
C2571 C2570 1.362 . S
H2572 C2578 0.930 . S
H2573 C2581 0.930 . S
H2574 C2582 0.930 . S
H2575 C2583 0.930 . S
H2576 C2586 0.930 . S
H2577 C2587 0.930 . S
C2578 H2572 0.930 . S
C2578 C2579 1.355 . S
C2578 C2580 1.415 . S
C2579 C2578 1.355 . S
C2579 C2581 1.419 . S
C2580 C2578 1.415 . S
C2580 C2585 1.425 . S
C2580 C2587 1.409 . S
C2581 H2573 0.930 . S
C2581 C2579 1.419 . S
C2581 C2582 1.362 . S
C2582 H2574 0.930 . S
C2582 C2581 1.362 . S
C2582 C2585 1.409 . S
C2583 H2575 0.930 . S
C2583 C2584 1.355 . S
C2583 C2585 1.415 . S
C2584 C2583 1.355 . S
C2584 C2586 1.419 . S
C2585 C2580 1.425 . S
C2585 C2582 1.409 . S
C2585 C2583 1.415 . S
C2586 H2576 0.930 . S
C2586 C2584 1.419 . S
C2586 C2587 1.362 . S
C2587 H2577 0.930 . S
C2587 C2580 1.409 . S
C2587 C2586 1.362 . S
H2588 C2594 0.930 1_565 S
H2589 C2597 0.930 . S
H2590 C2598 0.930 . S
H2591 C2599 0.930 . S
H2592 C2602 0.930 . S
H2593 C2603 0.930 . S
C2594 H2588 0.930 1_545 S
C2594 C2595 1.355 . S
C2594 C2596 1.415 . S
C2595 C2594 1.355 . S
C2595 C2597 1.419 . S
C2596 C2594 1.415 . S
C2596 C2601 1.425 . S
C2596 C2603 1.409 . S
C2597 H2589 0.930 . S
C2597 C2595 1.419 . S
C2597 C2598 1.362 . S
C2598 H2590 0.930 . S
C2598 C2597 1.362 . S
C2598 C2601 1.409 . S
C2599 H2591 0.930 . S
C2599 C2600 1.355 . S
C2599 C2601 1.415 . S
C2600 C2599 1.355 . S
C2600 C2602 1.419 . S
C2601 C2596 1.425 . S
C2601 C2598 1.409 . S
C2601 C2599 1.415 . S
C2602 H2592 0.930 . S
C2602 C2600 1.419 . S
C2602 C2603 1.362 . S
C2603 H2593 0.930 . S
C2603 C2596 1.409 . S
C2603 C2602 1.362 . S
H2604 C2610 0.930 . S
H2605 C2613 0.930 . S
H2606 C2614 0.930 . S
H2607 C2615 0.930 . S
H2608 C2618 0.930 . S
H2609 C2619 0.930 . S
C2610 H2604 0.930 . S
C2610 C2611 1.355 . S
C2610 C2612 1.415 . S
C2611 C2610 1.355 . S
C2611 C2613 1.419 . S
C2612 C2610 1.415 . S
C2612 C2617 1.425 . S
C2612 C2619 1.409 . S
C2613 H2605 0.930 . S
C2613 C2611 1.419 . S
C2613 C2614 1.362 . S
C2614 H2606 0.930 . S
C2614 C2613 1.362 . S
C2614 C2617 1.409 . S
C2615 H2607 0.930 . S
C2615 C2616 1.355 . S
C2615 C2617 1.415 . S
C2616 C2615 1.355 . S
C2616 C2618 1.419 . S
C2617 C2612 1.425 . S
C2617 C2614 1.409 . S
C2617 C2615 1.415 . S
C2618 H2608 0.930 . S
C2618 C2616 1.419 . S
C2618 C2619 1.362 . S
C2619 H2609 0.930 . S
C2619 C2612 1.409 . S
C2619 C2618 1.362 . S
H2620 C2626 0.930 . S
H2621 C2629 0.930 . S
H2622 C2630 0.930 . S
H2623 C2631 0.930 . S
H2624 C2634 0.930 . S
H2625 C2635 0.930 . S
C2626 H2620 0.930 . S
C2626 C2627 1.355 . S
C2626 C2628 1.415 . S
C2627 C2626 1.355 . S
C2627 C2629 1.419 . S
C2628 C2626 1.415 . S
C2628 C2633 1.425 . S
C2628 C2635 1.409 . S
C2629 H2621 0.930 . S
C2629 C2627 1.419 . S
C2629 C2630 1.362 . S
C2630 H2622 0.930 . S
C2630 C2629 1.362 . S
C2630 C2633 1.409 . S
C2631 H2623 0.930 . S
C2631 C2632 1.355 . S
C2631 C2633 1.415 . S
C2632 C2631 1.355 . S
C2632 C2634 1.419 . S
C2633 C2628 1.425 . S
C2633 C2630 1.409 . S
C2633 C2631 1.415 . S
C2634 H2624 0.930 . S
C2634 C2632 1.419 . S
C2634 C2635 1.362 . S
C2635 H2625 0.930 . S
C2635 C2628 1.409 . S
C2635 C2634 1.362 . S
H2636 C2642 0.930 . S
H2637 C2645 0.930 . S
H2638 C2646 0.930 . S
H2639 C2647 0.930 . S
H2640 C2650 0.930 . S
H2641 C2651 0.930 . S
C2642 H2636 0.930 . S
C2642 C2643 1.355 . S
C2642 C2644 1.415 . S
C2643 C2642 1.355 . S
C2643 C2645 1.419 . S
C2644 C2642 1.415 . S
C2644 C2649 1.425 . S
C2644 C2651 1.409 . S
C2645 H2637 0.930 . S
C2645 C2643 1.419 . S
C2645 C2646 1.362 . S
C2646 H2638 0.930 . S
C2646 C2645 1.362 . S
C2646 C2649 1.409 . S
C2647 H2639 0.930 . S
C2647 C2648 1.355 . S
C2647 C2649 1.415 . S
C2648 C2647 1.355 . S
C2648 C2650 1.419 . S
C2649 C2644 1.425 . S
C2649 C2646 1.409 . S
C2649 C2647 1.415 . S
C2650 H2640 0.930 . S
C2650 C2648 1.419 . S
C2650 C2651 1.362 . S
C2651 H2641 0.930 . S
C2651 C2644 1.409 . S
C2651 C2650 1.362 . S
H2652 C2658 0.930 . S
H2653 C2661 0.930 . S
H2654 C2662 0.930 . S
H2655 C2663 0.930 . S
H2656 C2666 0.930 . S
H2657 C2667 0.930 . S
C2658 H2652 0.930 . S
C2658 C2659 1.355 . S
C2658 C2660 1.415 . S
C2659 C2658 1.355 . S
C2659 C2661 1.419 . S
C2660 C2658 1.415 . S
C2660 C2665 1.425 . S
C2660 C2667 1.409 . S
C2661 H2653 0.930 . S
C2661 C2659 1.419 . S
C2661 C2662 1.362 . S
C2662 H2654 0.930 . S
C2662 C2661 1.362 . S
C2662 C2665 1.409 . S
C2663 H2655 0.930 . S
C2663 C2664 1.355 . S
C2663 C2665 1.415 . S
C2664 C2663 1.355 . S
C2664 C2666 1.419 . S
C2665 C2660 1.425 . S
C2665 C2662 1.409 . S
C2665 C2663 1.415 . S
C2666 H2656 0.930 . S
C2666 C2664 1.419 . S
C2666 C2667 1.362 . S
C2667 H2657 0.930 . S
C2667 C2660 1.409 . S
C2667 C2666 1.362 . S
H2668 C2674 0.930 . S
H2669 C2677 0.930 . S
H2670 C2678 0.930 . S
H2671 C2679 0.930 . S
H2672 C2682 0.930 . S
H2673 C2683 0.930 . S
C2674 H2668 0.930 . S
C2674 C2675 1.355 . S
C2674 C2676 1.415 . S
C2675 C2674 1.355 . S
C2675 C2677 1.419 . S
C2676 C2674 1.415 . S
C2676 C2681 1.425 . S
C2676 C2683 1.409 . S
C2677 H2669 0.930 . S
C2677 C2675 1.419 . S
C2677 C2678 1.362 . S
C2678 H2670 0.930 . S
C2678 C2677 1.362 . S
C2678 C2681 1.409 . S
C2679 H2671 0.930 . S
C2679 C2680 1.355 . S
C2679 C2681 1.415 . S
C2680 C2679 1.355 . S
C2680 C2682 1.419 . S
C2681 C2676 1.425 . S
C2681 C2678 1.409 . S
C2681 C2679 1.415 . S
C2682 H2672 0.930 . S
C2682 C2680 1.419 . S
C2682 C2683 1.362 . S
C2683 H2673 0.930 . S
C2683 C2676 1.409 . S
C2683 C2682 1.362 . S
H2684 C2690 0.930 . S
H2685 C2693 0.930 . S
H2686 C2694 0.930 . S
H2687 C2695 0.930 . S
H2688 C2698 0.930 . S
H2689 C2699 0.930 . S
C2690 H2684 0.930 . S
C2690 C2691 1.355 . S
C2690 C2692 1.415 . S
C2691 C2690 1.355 . S
C2691 C2693 1.419 . S
C2692 C2690 1.415 . S
C2692 C2697 1.425 . S
C2692 C2699 1.409 . S
C2693 H2685 0.930 . S
C2693 C2691 1.419 . S
C2693 C2694 1.362 . S
C2694 H2686 0.930 . S
C2694 C2693 1.362 . S
C2694 C2697 1.409 . S
C2695 H2687 0.930 . S
C2695 C2696 1.355 . S
C2695 C2697 1.415 . S
C2696 C2695 1.355 . S
C2696 C2698 1.419 . S
C2697 C2692 1.425 . S
C2697 C2694 1.409 . S
C2697 C2695 1.415 . S
C2698 H2688 0.930 . S
C2698 C2696 1.419 . S
C2698 C2699 1.362 . S
C2699 H2689 0.930 . S
C2699 C2692 1.409 . S
C2699 C2698 1.362 . S
H2700 C2706 0.930 . S
H2701 C2709 0.930 . S
H2702 C2710 0.930 . S
H2703 C2711 0.930 . S
H2704 C2714 0.930 . S
H2705 C2715 0.930 . S
C2706 H2700 0.930 . S
C2706 C2707 1.355 . S
C2706 C2708 1.415 . S
C2707 C2706 1.355 . S
C2707 C2709 1.419 . S
C2708 C2706 1.415 . S
C2708 C2713 1.425 . S
C2708 C2715 1.409 . S
C2709 H2701 0.930 . S
C2709 C2707 1.419 . S
C2709 C2710 1.362 . S
C2710 H2702 0.930 . S
C2710 C2709 1.362 . S
C2710 C2713 1.409 . S
C2711 H2703 0.930 . S
C2711 C2712 1.355 . S
C2711 C2713 1.415 . S
C2712 C2711 1.355 . S
C2712 C2714 1.419 . S
C2713 C2708 1.425 . S
C2713 C2710 1.409 . S
C2713 C2711 1.415 . S
C2714 H2704 0.930 . S
C2714 C2712 1.419 . S
C2714 C2715 1.362 . S
C2715 H2705 0.930 . S
C2715 C2708 1.409 . S
C2715 C2714 1.362 . S
H2716 C2722 0.930 . S
H2717 C2725 0.930 . S
H2718 C2726 0.930 . S
H2719 C2727 0.930 . S
H2720 C2730 0.930 . S
H2721 C2731 0.930 . S
C2722 H2716 0.930 . S
C2722 C2723 1.355 . S
C2722 C2724 1.415 . S
C2723 C2722 1.355 . S
C2723 C2725 1.419 . S
C2724 C2722 1.415 . S
C2724 C2729 1.425 . S
C2724 C2731 1.409 . S
C2725 H2717 0.930 . S
C2725 C2723 1.419 . S
C2725 C2726 1.362 . S
C2726 H2718 0.930 . S
C2726 C2725 1.362 . S
C2726 C2729 1.409 . S
C2727 H2719 0.930 . S
C2727 C2728 1.355 . S
C2727 C2729 1.415 . S
C2728 C2727 1.355 . S
C2728 C2730 1.419 . S
C2729 C2724 1.425 . S
C2729 C2726 1.409 . S
C2729 C2727 1.415 . S
C2730 H2720 0.930 . S
C2730 C2728 1.419 . S
C2730 C2731 1.362 . S
C2731 H2721 0.930 . S
C2731 C2724 1.409 . S
C2731 C2730 1.362 . S
H2732 C2738 0.930 . S
H2733 C2741 0.930 . S
H2734 C2742 0.930 . S
H2735 C2743 0.930 . S
H2736 C2746 0.930 . S
H2737 C2747 0.930 . S
C2738 H2732 0.930 . S
C2738 C2739 1.355 . S
C2738 C2740 1.415 . S
C2739 C2738 1.355 . S
C2739 C2741 1.419 . S
C2740 C2738 1.415 . S
C2740 C2745 1.425 . S
C2740 C2747 1.409 . S
C2741 H2733 0.930 . S
C2741 C2739 1.419 . S
C2741 C2742 1.362 . S
C2742 H2734 0.930 . S
C2742 C2741 1.362 . S
C2742 C2745 1.409 . S
C2743 H2735 0.930 . S
C2743 C2744 1.355 . S
C2743 C2745 1.415 . S
C2744 C2743 1.355 . S
C2744 C2746 1.419 . S
C2745 C2740 1.425 . S
C2745 C2742 1.409 . S
C2745 C2743 1.415 . S
C2746 H2736 0.930 . S
C2746 C2744 1.419 . S
C2746 C2747 1.362 . S
C2747 H2737 0.930 . S
C2747 C2740 1.409 . S
C2747 C2746 1.362 . S
H2748 C2754 0.930 . S
H2749 C2757 0.930 . S
H2750 C2758 0.930 . S
H2751 C2759 0.930 . S
H2752 C2762 0.930 . S
H2753 C2763 0.930 . S
C2754 H2748 0.930 . S
C2754 C2755 1.355 . S
C2754 C2756 1.415 . S
C2755 C2754 1.355 . S
C2755 C2757 1.419 . S
C2756 C2754 1.415 . S
C2756 C2761 1.425 . S
C2756 C2763 1.409 . S
C2757 H2749 0.930 . S
C2757 C2755 1.419 . S
C2757 C2758 1.362 . S
C2758 H2750 0.930 . S
C2758 C2757 1.362 . S
C2758 C2761 1.409 . S
C2759 H2751 0.930 . S
C2759 C2760 1.355 . S
C2759 C2761 1.415 . S
C2760 C2759 1.355 . S
C2760 C2762 1.419 . S
C2761 C2756 1.425 . S
C2761 C2758 1.409 . S
C2761 C2759 1.415 . S
C2762 H2752 0.930 . S
C2762 C2760 1.419 . S
C2762 C2763 1.362 . S
C2763 H2753 0.930 . S
C2763 C2756 1.409 . S
C2763 C2762 1.362 . S
H2764 C2770 0.930 . S
H2765 C2773 0.930 . S
H2766 C2774 0.930 . S
H2767 C2775 0.930 . S
H2768 C2778 0.930 . S
H2769 C2779 0.930 . S
C2770 H2764 0.930 . S
C2770 C2771 1.355 . S
C2770 C2772 1.415 . S
C2771 C2770 1.355 . S
C2771 C2773 1.419 . S
C2772 C2770 1.415 . S
C2772 C2777 1.425 . S
C2772 C2779 1.409 . S
C2773 H2765 0.930 . S
C2773 C2771 1.419 . S
C2773 C2774 1.362 . S
C2774 H2766 0.930 . S
C2774 C2773 1.362 . S
C2774 C2777 1.409 . S
C2775 H2767 0.930 . S
C2775 C2776 1.355 . S
C2775 C2777 1.415 . S
C2776 C2775 1.355 . S
C2776 C2778 1.419 . S
C2777 C2772 1.425 . S
C2777 C2774 1.409 . S
C2777 C2775 1.415 . S
C2778 H2768 0.930 . S
C2778 C2776 1.419 . S
C2778 C2779 1.362 . S
C2779 H2769 0.930 . S
C2779 C2772 1.409 . S
C2779 C2778 1.362 . S
H2780 C2786 0.930 . S
H2781 C2789 0.930 . S
H2782 C2790 0.930 . S
H2783 C2791 0.930 . S
H2784 C2794 0.930 . S
H2785 C2795 0.930 . S
C2786 H2780 0.930 . S
C2786 C2787 1.355 . S
C2786 C2788 1.415 . S
C2787 C2786 1.355 . S
C2787 C2789 1.419 . S
C2788 C2786 1.415 . S
C2788 C2793 1.425 . S
C2788 C2795 1.409 . S
C2789 H2781 0.930 . S
C2789 C2787 1.419 . S
C2789 C2790 1.362 . S
C2790 H2782 0.930 . S
C2790 C2789 1.362 . S
C2790 C2793 1.409 . S
C2791 H2783 0.930 . S
C2791 C2792 1.355 . S
C2791 C2793 1.415 . S
C2792 C2791 1.355 . S
C2792 C2794 1.419 . S
C2793 C2788 1.425 . S
C2793 C2790 1.409 . S
C2793 C2791 1.415 . S
C2794 H2784 0.930 . S
C2794 C2792 1.419 . S
C2794 C2795 1.362 . S
C2795 H2785 0.930 . S
C2795 C2788 1.409 . S
C2795 C2794 1.362 . S
H2796 C2802 0.930 . S
H2797 C2805 0.930 . S
H2798 C2806 0.930 . S
H2799 C2807 0.930 . S
H2800 C2810 0.930 . S
H2801 C2811 0.930 . S
C2802 H2796 0.930 . S
C2802 C2803 1.355 . S
C2802 C2804 1.415 . S
C2803 C2802 1.355 . S
C2803 C2805 1.419 . S
C2804 C2802 1.415 . S
C2804 C2809 1.425 . S
C2804 C2811 1.409 . S
C2805 H2797 0.930 . S
C2805 C2803 1.419 . S
C2805 C2806 1.362 . S
C2806 H2798 0.930 . S
C2806 C2805 1.362 . S
C2806 C2809 1.409 . S
C2807 H2799 0.930 . S
C2807 C2808 1.355 . S
C2807 C2809 1.415 . S
C2808 C2807 1.355 . S
C2808 C2810 1.419 . S
C2809 C2804 1.425 . S
C2809 C2806 1.409 . S
C2809 C2807 1.415 . S
C2810 H2800 0.930 . S
C2810 C2808 1.419 . S
C2810 C2811 1.362 . S
C2811 H2801 0.930 . S
C2811 C2804 1.409 . S
C2811 C2810 1.362 . S
H2812 C2818 0.930 . S
H2813 C2821 0.930 . S
H2814 C2822 0.930 . S
H2815 C2823 0.930 . S
H2816 C2826 0.930 . S
H2817 C2827 0.930 . S
C2818 H2812 0.930 . S
C2818 C2819 1.355 . S
C2818 C2820 1.415 . S
C2819 C2818 1.355 . S
C2819 C2821 1.419 . S
C2820 C2818 1.415 . S
C2820 C2825 1.425 . S
C2820 C2827 1.409 . S
C2821 H2813 0.930 . S
C2821 C2819 1.419 . S
C2821 C2822 1.362 . S
C2822 H2814 0.930 . S
C2822 C2821 1.362 . S
C2822 C2825 1.409 . S
C2823 H2815 0.930 . S
C2823 C2824 1.355 . S
C2823 C2825 1.415 . S
C2824 C2823 1.355 . S
C2824 C2826 1.419 . S
C2825 C2820 1.425 . S
C2825 C2822 1.409 . S
C2825 C2823 1.415 . S
C2826 H2816 0.930 . S
C2826 C2824 1.419 . S
C2826 C2827 1.362 . S
C2827 H2817 0.930 . S
C2827 C2820 1.409 . S
C2827 C2826 1.362 . S
H2828 C2834 0.930 . S
H2829 C2837 0.930 . S
H2830 C2838 0.930 . S
H2831 C2839 0.930 . S
H2832 C2842 0.930 . S
H2833 C2843 0.930 . S
C2834 H2828 0.930 . S
C2834 C2835 1.355 . S
C2834 C2836 1.415 . S
C2835 C2834 1.355 . S
C2835 C2837 1.419 . S
C2836 C2834 1.415 . S
C2836 C2841 1.425 . S
C2836 C2843 1.409 . S
C2837 H2829 0.930 . S
C2837 C2835 1.419 . S
C2837 C2838 1.362 . S
C2838 H2830 0.930 . S
C2838 C2837 1.362 . S
C2838 C2841 1.409 . S
C2839 H2831 0.930 . S
C2839 C2840 1.355 . S
C2839 C2841 1.415 . S
C2840 C2839 1.355 . S
C2840 C2842 1.419 . S
C2841 C2836 1.425 . S
C2841 C2838 1.409 . S
C2841 C2839 1.415 . S
C2842 H2832 0.930 . S
C2842 C2840 1.419 . S
C2842 C2843 1.362 . S
C2843 H2833 0.930 . S
C2843 C2836 1.409 . S
C2843 C2842 1.362 . S
H2844 C2850 0.930 . S
H2845 C2853 0.930 . S
H2846 C2854 0.930 . S
H2847 C2855 0.930 . S
H2848 C2858 0.930 . S
H2849 C2859 0.930 . S
C2850 H2844 0.930 . S
C2850 C2851 1.355 . S
C2850 C2852 1.415 . S
C2851 C2850 1.355 . S
C2851 C2853 1.419 . S
C2852 C2850 1.415 . S
C2852 C2857 1.425 . S
C2852 C2859 1.409 . S
C2853 H2845 0.930 . S
C2853 C2851 1.419 . S
C2853 C2854 1.362 . S
C2854 H2846 0.930 . S
C2854 C2853 1.362 . S
C2854 C2857 1.409 . S
C2855 H2847 0.930 . S
C2855 C2856 1.355 . S
C2855 C2857 1.415 . S
C2856 C2855 1.355 . S
C2856 C2858 1.419 . S
C2857 C2852 1.425 . S
C2857 C2854 1.409 . S
C2857 C2855 1.415 . S
C2858 H2848 0.930 . S
C2858 C2856 1.419 . S
C2858 C2859 1.362 . S
C2859 H2849 0.930 . S
C2859 C2852 1.409 . S
C2859 C2858 1.362 . S
H2860 C2866 0.930 . S
H2861 C2869 0.930 . S
H2862 C2870 0.930 . S
H2863 C2871 0.930 . S
H2864 C2874 0.930 . S
H2865 C2875 0.930 . S
C2866 H2860 0.930 . S
C2866 C2867 1.355 . S
C2866 C2868 1.415 . S
C2867 C2866 1.355 . S
C2867 C2869 1.419 . S
C2868 C2866 1.415 . S
C2868 C2873 1.425 . S
C2868 C2875 1.409 . S
C2869 H2861 0.930 . S
C2869 C2867 1.419 . S
C2869 C2870 1.362 . S
C2870 H2862 0.930 . S
C2870 C2869 1.362 . S
C2870 C2873 1.409 . S
C2871 H2863 0.930 . S
C2871 C2872 1.355 . S
C2871 C2873 1.415 . S
C2872 C2871 1.355 . S
C2872 C2874 1.419 . S
C2873 C2868 1.425 . S
C2873 C2870 1.409 . S
C2873 C2871 1.415 . S
C2874 H2864 0.930 . S
C2874 C2872 1.419 . S
C2874 C2875 1.362 . S
C2875 H2865 0.930 . S
C2875 C2868 1.409 . S
C2875 C2874 1.362 . S
H2876 C2882 0.930 . S
H2877 C2885 0.930 . S
H2878 C2886 0.930 . S
H2879 C2887 0.930 . S
H2880 C2890 0.930 . S
H2881 C2891 0.930 . S
C2882 H2876 0.930 . S
C2882 C2883 1.355 . S
C2882 C2884 1.415 . S
C2883 C2882 1.355 . S
C2883 C2885 1.419 . S
C2884 C2882 1.415 . S
C2884 C2889 1.425 . S
C2884 C2891 1.409 . S
C2885 H2877 0.930 . S
C2885 C2883 1.419 . S
C2885 C2886 1.362 . S
C2886 H2878 0.930 . S
C2886 C2885 1.362 . S
C2886 C2889 1.409 . S
C2887 H2879 0.930 . S
C2887 C2888 1.355 . S
C2887 C2889 1.415 . S
C2888 C2887 1.355 . S
C2888 C2890 1.419 . S
C2889 C2884 1.425 . S
C2889 C2886 1.409 . S
C2889 C2887 1.415 . S
C2890 H2880 0.930 . S
C2890 C2888 1.419 . S
C2890 C2891 1.362 . S
C2891 H2881 0.930 . S
C2891 C2884 1.409 . S
C2891 C2890 1.362 . S
H2892 C2898 0.930 . S
H2893 C2901 0.930 . S
H2894 C2902 0.930 . S
H2895 C2903 0.930 . S
H2896 C2906 0.930 . S
H2897 C2907 0.930 . S
C2898 H2892 0.930 . S
C2898 C2899 1.355 . S
C2898 C2900 1.415 . S
C2899 C2898 1.355 . S
C2899 C2901 1.419 . S
C2900 C2898 1.415 . S
C2900 C2905 1.425 . S
C2900 C2907 1.409 . S
C2901 H2893 0.930 . S
C2901 C2899 1.419 . S
C2901 C2902 1.362 . S
C2902 H2894 0.930 . S
C2902 C2901 1.362 . S
C2902 C2905 1.409 . S
C2903 H2895 0.930 . S
C2903 C2904 1.355 . S
C2903 C2905 1.415 . S
C2904 C2903 1.355 . S
C2904 C2906 1.419 . S
C2905 C2900 1.425 . S
C2905 C2902 1.409 . S
C2905 C2903 1.415 . S
C2906 H2896 0.930 . S
C2906 C2904 1.419 . S
C2906 C2907 1.362 . S
C2907 H2897 0.930 . S
C2907 C2900 1.409 . S
C2907 C2906 1.362 . S
H2908 C2914 0.930 . S
H2909 C2917 0.930 . S
H2910 C2918 0.930 . S
H2911 C2919 0.930 . S
H2912 C2922 0.930 . S
H2913 C2923 0.930 . S
C2914 H2908 0.930 . S
C2914 C2915 1.355 . S
C2914 C2916 1.415 . S
C2915 C2914 1.355 . S
C2915 C2917 1.419 . S
C2916 C2914 1.415 . S
C2916 C2921 1.425 . S
C2916 C2923 1.409 . S
C2917 H2909 0.930 . S
C2917 C2915 1.419 . S
C2917 C2918 1.362 . S
C2918 H2910 0.930 . S
C2918 C2917 1.362 . S
C2918 C2921 1.409 . S
C2919 H2911 0.930 . S
C2919 C2920 1.355 . S
C2919 C2921 1.415 . S
C2920 C2919 1.355 . S
C2920 C2922 1.419 . S
C2921 C2916 1.425 . S
C2921 C2918 1.409 . S
C2921 C2919 1.415 . S
C2922 H2912 0.930 . S
C2922 C2920 1.419 . S
C2922 C2923 1.362 . S
C2923 H2913 0.930 . S
C2923 C2916 1.409 . S
C2923 C2922 1.362 . S
H2924 C2930 0.930 . S
H2925 C2933 0.930 . S
H2926 C2934 0.930 . S
H2927 C2935 0.930 . S
H2928 C2938 0.930 . S
H2929 C2939 0.930 . S
C2930 H2924 0.930 . S
C2930 C2931 1.355 . S
C2930 C2932 1.415 . S
C2931 C2930 1.355 . S
C2931 C2933 1.419 . S
C2932 C2930 1.415 . S
C2932 C2937 1.425 . S
C2932 C2939 1.409 . S
C2933 H2925 0.930 . S
C2933 C2931 1.419 . S
C2933 C2934 1.362 . S
C2934 H2926 0.930 . S
C2934 C2933 1.362 . S
C2934 C2937 1.409 . S
C2935 H2927 0.930 . S
C2935 C2936 1.355 . S
C2935 C2937 1.415 . S
C2936 C2935 1.355 . S
C2936 C2938 1.419 . S
C2937 C2932 1.425 . S
C2937 C2934 1.409 . S
C2937 C2935 1.415 . S
C2938 H2928 0.930 . S
C2938 C2936 1.419 . S
C2938 C2939 1.362 . S
C2939 H2929 0.930 . S
C2939 C2932 1.409 . S
C2939 C2938 1.362 . S
H2940 C2946 0.930 . S
H2941 C2949 0.930 . S
H2942 C2950 0.930 . S
H2943 C2951 0.930 . S
H2944 C2954 0.930 . S
H2945 C2955 0.930 . S
C2946 H2940 0.930 . S
C2946 C2947 1.355 . S
C2946 C2948 1.415 . S
C2947 C2946 1.355 . S
C2947 C2949 1.419 . S
C2948 C2946 1.415 . S
C2948 C2953 1.425 . S
C2948 C2955 1.409 . S
C2949 H2941 0.930 . S
C2949 C2947 1.419 . S
C2949 C2950 1.362 . S
C2950 H2942 0.930 . S
C2950 C2949 1.362 . S
C2950 C2953 1.409 . S
C2951 H2943 0.930 . S
C2951 C2952 1.355 . S
C2951 C2953 1.415 . S
C2952 C2951 1.355 . S
C2952 C2954 1.419 . S
C2953 C2948 1.425 . S
C2953 C2950 1.409 . S
C2953 C2951 1.415 . S
C2954 H2944 0.930 . S
C2954 C2952 1.419 . S
C2954 C2955 1.362 . S
C2955 H2945 0.930 . S
C2955 C2948 1.409 . S
C2955 C2954 1.362 . S
H2956 C2962 0.930 . S
H2957 C2965 0.930 . S
H2958 C2966 0.930 . S
H2959 C2967 0.930 . S
H2960 C2970 0.930 . S
H2961 C2971 0.930 . S
C2962 H2956 0.930 . S
C2962 C2963 1.355 . S
C2962 C2964 1.415 . S
C2963 C2962 1.355 . S
C2963 C2965 1.419 . S
C2964 C2962 1.415 . S
C2964 C2969 1.425 . S
C2964 C2971 1.409 . S
C2965 H2957 0.930 . S
C2965 C2963 1.419 . S
C2965 C2966 1.362 . S
C2966 H2958 0.930 . S
C2966 C2965 1.362 . S
C2966 C2969 1.409 . S
C2967 H2959 0.930 . S
C2967 C2968 1.355 . S
C2967 C2969 1.415 . S
C2968 C2967 1.355 . S
C2968 C2970 1.419 . S
C2969 C2964 1.425 . S
C2969 C2966 1.409 . S
C2969 C2967 1.415 . S
C2970 H2960 0.930 . S
C2970 C2968 1.419 . S
C2970 C2971 1.362 . S
C2971 H2961 0.930 . S
C2971 C2964 1.409 . S
C2971 C2970 1.362 . S
H2972 C2978 0.930 . S
H2973 C2981 0.930 . S
H2974 C2982 0.930 . S
H2975 C2983 0.930 . S
H2976 C2986 0.930 . S
H2977 C2987 0.930 . S
C2978 H2972 0.930 . S
C2978 C2979 1.355 . S
C2978 C2980 1.415 . S
C2979 C2978 1.355 . S
C2979 C2981 1.419 . S
C2980 C2978 1.415 . S
C2980 C2985 1.425 . S
C2980 C2987 1.409 . S
C2981 H2973 0.930 . S
C2981 C2979 1.419 . S
C2981 C2982 1.362 . S
C2982 H2974 0.930 . S
C2982 C2981 1.362 . S
C2982 C2985 1.409 . S
C2983 H2975 0.930 . S
C2983 C2984 1.355 . S
C2983 C2985 1.415 . S
C2984 C2983 1.355 . S
C2984 C2986 1.419 . S
C2985 C2980 1.425 . S
C2985 C2982 1.409 . S
C2985 C2983 1.415 . S
C2986 H2976 0.930 . S
C2986 C2984 1.419 . S
C2986 C2987 1.362 . S
C2987 H2977 0.930 . S
C2987 C2980 1.409 . S
C2987 C2986 1.362 . S
H2988 C2994 0.930 . S
H2989 C2997 0.930 . S
H2990 C2998 0.930 . S
H2991 C2999 0.930 . S
H2992 C3002 0.930 . S
H2993 C3003 0.930 . S
C2994 H2988 0.930 . S
C2994 C2995 1.355 . S
C2994 C2996 1.415 . S
C2995 C2994 1.355 . S
C2995 C2997 1.419 . S
C2996 C2994 1.415 . S
C2996 C3001 1.425 . S
C2996 C3003 1.409 . S
C2997 H2989 0.930 . S
C2997 C2995 1.419 . S
C2997 C2998 1.362 . S
C2998 H2990 0.930 . S
C2998 C2997 1.362 . S
C2998 C3001 1.409 . S
C2999 H2991 0.930 . S
C2999 C3000 1.355 . S
C2999 C3001 1.415 . S
C3000 C2999 1.355 . S
C3000 C3002 1.419 . S
C3001 C2996 1.425 . S
C3001 C2998 1.409 . S
C3001 C2999 1.415 . S
C3002 H2992 0.930 . S
C3002 C3000 1.419 . S
C3002 C3003 1.362 . S
C3003 H2993 0.930 . S
C3003 C2996 1.409 . S
C3003 C3002 1.362 . S
H3004 C3010 0.930 . S
H3005 C3013 0.930 . S
H3006 C3014 0.930 . S
H3007 C3015 0.930 . S
H3008 C3018 0.930 . S
H3009 C3019 0.930 . S
C3010 H3004 0.930 . S
C3010 C3011 1.355 . S
C3010 C3012 1.415 . S
C3011 C3010 1.355 . S
C3011 C3013 1.419 1_565 S
C3012 C3010 1.415 . S
C3012 C3017 1.425 1_565 S
C3012 C3019 1.409 . S
C3013 H3005 0.930 . S
C3013 C3011 1.419 1_545 S
C3013 C3014 1.362 . S
C3014 H3006 0.930 . S
C3014 C3013 1.362 . S
C3014 C3017 1.409 . S
C3015 H3007 0.930 . S
C3015 C3016 1.355 . S
C3015 C3017 1.415 . S
C3016 C3015 1.355 . S
C3016 C3018 1.419 . S
C3017 C3012 1.425 1_545 S
C3017 C3014 1.409 . S
C3017 C3015 1.415 . S
C3018 H3008 0.930 . S
C3018 C3016 1.419 . S
C3018 C3019 1.362 1_545 S
C3019 H3009 0.930 . S
C3019 C3012 1.409 . S
C3019 C3018 1.362 1_565 S
H3020 C3026 0.930 1_455 S
H3021 C3029 0.930 . S
H3022 C3030 0.930 . S
H3023 C3031 0.930 . S
H3024 C3034 0.930 . S
H3025 C3035 0.930 . S
C3026 H3020 0.930 1_655 S
C3026 C3027 1.355 . S
C3026 C3028 1.415 1_655 S
C3027 C3026 1.355 . S
C3027 C3029 1.419 . S
C3028 C3026 1.415 1_455 S
C3028 C3033 1.425 1_455 S
C3028 C3035 1.409 . S
C3029 H3021 0.930 . S
C3029 C3027 1.419 . S
C3029 C3030 1.362 . S
C3030 H3022 0.930 . S
C3030 C3029 1.362 . S
C3030 C3033 1.409 . S
C3031 H3023 0.930 . S
C3031 C3032 1.355 1_655 S
C3031 C3033 1.415 . S
C3032 C3031 1.355 1_455 S
C3032 C3034 1.419 . S
C3033 C3028 1.425 1_655 S
C3033 C3030 1.409 . S
C3033 C3031 1.415 . S
C3034 H3024 0.930 . S
C3034 C3032 1.419 . S
C3034 C3035 1.362 . S
C3035 H3025 0.930 . S
C3035 C3028 1.409 . S
C3035 C3034 1.362 . S
H3036 C3042 0.930 . S
H3037 C3045 0.930 . S
H3038 C3046 0.930 . S
H3039 C3047 0.930 . S
H3040 C3050 0.930 . S
H3041 C3051 0.930 . S
C3042 H3036 0.930 . S
C3042 C3043 1.355 . S
C3042 C3044 1.415 . S
C3043 C3042 1.355 . S
C3043 C3045 1.419 . S
C3044 C3042 1.415 . S
C3044 C3049 1.425 . S
C3044 C3051 1.409 . S
C3045 H3037 0.930 . S
C3045 C3043 1.419 . S
C3045 C3046 1.362 . S
C3046 H3038 0.930 . S
C3046 C3045 1.362 . S
C3046 C3049 1.409 . S
C3047 H3039 0.930 . S
C3047 C3048 1.355 . S
C3047 C3049 1.415 . S
C3048 C3047 1.355 . S
C3048 C3050 1.419 . S
C3049 C3044 1.425 . S
C3049 C3046 1.409 . S
C3049 C3047 1.415 . S
C3050 H3040 0.930 . S
C3050 C3048 1.419 . S
C3050 C3051 1.362 . S
C3051 H3041 0.930 . S
C3051 C3044 1.409 . S
C3051 C3050 1.362 . S
H3052 C3058 0.930 . S
H3053 C3061 0.930 . S
H3054 C3062 0.930 . S
H3055 C3063 0.930 . S
H3056 C3066 0.930 . S
H3057 C3067 0.930 . S
C3058 H3052 0.930 . S
C3058 C3059 1.355 . S
C3058 C3060 1.415 1_545 S
C3059 C3058 1.355 . S
C3059 C3061 1.419 . S
C3060 C3058 1.415 1_565 S
C3060 C3065 1.425 . S
C3060 C3067 1.409 . S
C3061 H3053 0.930 . S
C3061 C3059 1.419 . S
C3061 C3062 1.362 1_545 S
C3062 H3054 0.930 . S
C3062 C3061 1.362 1_565 S
C3062 C3065 1.409 . S
C3063 H3055 0.930 . S
C3063 C3064 1.355 . S
C3063 C3065 1.415 . S
C3064 C3063 1.355 . S
C3064 C3066 1.419 . S
C3065 C3060 1.425 . S
C3065 C3062 1.409 . S
C3065 C3063 1.415 . S
C3066 H3056 0.930 . S
C3066 C3064 1.419 . S
C3066 C3067 1.362 . S
C3067 H3057 0.930 . S
C3067 C3060 1.409 . S
C3067 C3066 1.362 . S
H3068 C3074 0.930 . S
H3069 C3077 0.930 . S
H3070 C3078 0.930 . S
H3071 C3079 0.930 . S
H3072 C3082 0.930 . S
H3073 C3083 0.930 . S
C3074 H3068 0.930 . S
C3074 C3075 1.355 . S
C3074 C3076 1.415 . S
C3075 C3074 1.355 . S
C3075 C3077 1.419 . S
C3076 C3074 1.415 . S
C3076 C3081 1.425 . S
C3076 C3083 1.409 . S
C3077 H3069 0.930 . S
C3077 C3075 1.419 . S
C3077 C3078 1.362 . S
C3078 H3070 0.930 . S
C3078 C3077 1.362 . S
C3078 C3081 1.409 . S
C3079 H3071 0.930 . S
C3079 C3080 1.355 . S
C3079 C3081 1.415 1_655 S
C3080 C3079 1.355 . S
C3080 C3082 1.419 . S
C3081 C3076 1.425 . S
C3081 C3078 1.409 . S
C3081 C3079 1.415 1_455 S
C3082 H3072 0.930 . S
C3082 C3080 1.419 . S
C3082 C3083 1.362 1_655 S
C3083 H3073 0.930 . S
C3083 C3076 1.409 . S
C3083 C3082 1.362 1_455 S
H3084 C3090 0.930 . S
H3085 C3093 0.930 . S
H3086 C3094 0.930 . S
H3087 C3095 0.930 . S
H3088 C3098 0.930 . S
H3089 C3099 0.930 . S
C3090 H3084 0.930 . S
C3090 C3091 1.355 . S
C3090 C3092 1.415 . S
C3091 C3090 1.355 . S
C3091 C3093 1.419 . S
C3092 C3090 1.415 . S
C3092 C3097 1.425 . S
C3092 C3099 1.409 . S
C3093 H3085 0.930 . S
C3093 C3091 1.419 . S
C3093 C3094 1.362 . S
C3094 H3086 0.930 . S
C3094 C3093 1.362 . S
C3094 C3097 1.409 . S
C3095 H3087 0.930 . S
C3095 C3096 1.355 . S
C3095 C3097 1.415 . S
C3096 C3095 1.355 . S
C3096 C3098 1.419 . S
C3097 C3092 1.425 . S
C3097 C3094 1.409 . S
C3097 C3095 1.415 . S
C3098 H3088 0.930 . S
C3098 C3096 1.419 . S
C3098 C3099 1.362 . S
C3099 H3089 0.930 . S
C3099 C3092 1.409 . S
C3099 C3098 1.362 . S
H3100 C3106 0.930 . S
H3101 C3109 0.930 . S
H3102 C3110 0.934 . S
H3103 C3111 0.930 . S
H3104 C3114 0.930 . S
H3105 C3115 0.930 . S
C3106 H3100 0.930 . S
C3106 C3107 1.355 . S
C3106 C3108 1.415 . S
C3107 C3106 1.355 . S
C3107 C3109 1.419 . S
C3108 C3106 1.415 . S
C3108 C3113 1.425 . S
C3108 C3115 1.409 . S
C3109 H3101 0.930 . S
C3109 C3107 1.419 . S
C3109 C3110 1.362 . S
C3110 H3102 0.934 . S
C3110 C3109 1.362 . S
C3110 C3113 1.409 . S
C3111 H3103 0.930 . S
C3111 C3112 1.355 . S
C3111 C3113 1.415 1_545 S
C3112 C3111 1.355 . S
C3112 C3114 1.419 . S
C3113 C3108 1.425 . S
C3113 C3110 1.409 . S
C3113 C3111 1.415 1_565 S
C3114 H3104 0.930 . S
C3114 C3112 1.419 . S
C3114 C3115 1.362 1_545 S
C3115 H3105 0.930 . S
C3115 C3108 1.409 . S
C3115 C3114 1.362 1_565 S
H3116 C3122 0.930 . S
H3117 C3125 0.930 . S
H3118 C3126 0.930 . S
H3119 C3127 0.930 . S
H3120 C3130 0.930 . S
H3121 C3131 0.930 . S
C3122 H3116 0.930 . S
C3122 C3123 1.355 . S
C3122 C3124 1.412 1_455 S
C3123 C3122 1.355 . S
C3123 C3125 1.419 . S
C3124 C3122 1.412 1_655 S
C3124 C3129 1.425 1_655 S
C3124 C3131 1.412 . S
C3125 H3117 0.930 . S
C3125 C3123 1.419 . S
C3125 C3126 1.362 . S
C3126 H3118 0.930 . S
C3126 C3125 1.362 . S
C3126 C3129 1.409 . S
C3127 H3119 0.930 . S
C3127 C3128 1.355 1_455 S
C3127 C3129 1.415 . S
C3128 C3127 1.355 1_655 S
C3128 C3130 1.419 . S
C3129 C3124 1.425 1_455 S
C3129 C3126 1.409 . S
C3129 C3127 1.415 . S
C3130 H3120 0.930 . S
C3130 C3128 1.419 . S
C3130 C3131 1.362 . S
C3131 H3121 0.930 . S
C3131 C3124 1.412 . S
C3131 C3130 1.362 . S
H3132 C3138 0.930 . S
H3133 C3141 0.930 . S
H3134 C3142 0.930 . S
H3135 C3143 0.930 . S
H3136 C3146 0.930 . S
H3137 C3147 0.930 . S
C3138 H3132 0.930 . S
C3138 C3139 1.355 . S
C3138 C3140 1.415 . S
C3139 C3138 1.355 . S
C3139 C3141 1.419 . S
C3140 C3138 1.415 . S
C3140 C3145 1.425 . S
C3140 C3147 1.409 . S
C3141 H3133 0.930 . S
C3141 C3139 1.419 . S
C3141 C3142 1.362 . S
C3142 H3134 0.930 . S
C3142 C3141 1.362 . S
C3142 C3145 1.409 . S
C3143 H3135 0.930 . S
C3143 C3144 1.355 . S
C3143 C3145 1.415 . S
C3144 C3143 1.355 . S
C3144 C3146 1.419 . S
C3145 C3140 1.425 . S
C3145 C3142 1.409 . S
C3145 C3143 1.415 . S
C3146 H3136 0.930 . S
C3146 C3144 1.419 . S
C3146 C3147 1.362 . S
C3147 H3137 0.930 . S
C3147 C3140 1.409 . S
C3147 C3146 1.362 . S
H3148 C3154 0.930 . S
H3149 C3157 0.930 . S
H3150 C3158 0.930 . S
H3151 C3159 0.930 . S
H3152 C3162 0.930 . S
H3153 C3163 0.930 . S
C3154 H3148 0.930 . S
C3154 C3155 1.355 . S
C3154 C3156 1.415 . S
C3155 C3154 1.355 . S
C3155 C3157 1.419 . S
C3156 C3154 1.415 . S
C3156 C3161 1.425 1_545 S
C3156 C3163 1.409 . S
C3157 H3149 0.930 . S
C3157 C3155 1.419 . S
C3157 C3158 1.362 1_545 S
C3158 H3150 0.930 . S
C3158 C3157 1.362 1_565 S
C3158 C3161 1.409 . S
C3159 H3151 0.930 . S
C3159 C3160 1.355 . S
C3159 C3161 1.415 . S
C3160 C3159 1.355 . S
C3160 C3162 1.419 1_565 S
C3161 C3156 1.425 1_565 S
C3161 C3158 1.409 . S
C3161 C3159 1.415 . S
C3162 H3152 0.930 . S
C3162 C3160 1.419 1_545 S
C3162 C3163 1.362 . S
C3163 H3153 0.930 . S
C3163 C3156 1.409 . S
C3163 C3162 1.362 . S
H3164 C3170 0.930 . S
H3165 C3173 0.930 . S
H3166 C3174 0.930 . S
H3167 C3175 0.930 1_455 S
H3168 C3178 0.930 . S
H3169 C3179 0.930 . S
C3170 H3164 0.930 . S
C3170 C3171 1.355 1_655 S
C3170 C3172 1.415 . S
C3171 C3170 1.355 1_455 S
C3171 C3173 1.419 . S
C3172 C3170 1.415 . S
C3172 C3177 1.425 1_655 S
C3172 C3179 1.409 . S
C3173 H3165 0.930 . S
C3173 C3171 1.419 . S
C3173 C3174 1.362 . S
C3174 H3166 0.930 . S
C3174 C3173 1.362 . S
C3174 C3177 1.409 . S
C3175 H3167 0.930 1_655 S
C3175 C3176 1.355 . S
C3175 C3177 1.415 1_655 S
C3176 C3175 1.355 . S
C3176 C3178 1.419 . S
C3177 C3172 1.425 1_455 S
C3177 C3174 1.409 . S
C3177 C3175 1.415 1_455 S
C3178 H3168 0.930 . S
C3178 C3176 1.419 . S
C3178 C3179 1.362 . S
C3179 H3169 0.930 . S
C3179 C3172 1.409 . S
C3179 C3178 1.362 . S
H3180 C3186 0.930 . S
H3181 C3189 0.930 . S
H3182 C3190 0.964 . S
H3183 C3191 0.930 . S
H3184 C3194 0.930 . S
H3185 C3195 0.964 . S
C3186 H3180 0.930 . S
C3186 C3187 1.355 . S
C3186 C3188 1.415 . S
C3187 C3186 1.355 . S
C3187 C3189 1.419 . S
C3188 C3186 1.415 . S
C3188 C3193 1.425 1_655 S
C3188 C3195 1.409 1_655 S
C3189 H3181 0.930 . S
C3189 C3187 1.419 . S
C3189 C3190 1.362 . S
C3190 H3182 0.964 . S
C3190 C3189 1.362 . S
C3190 C3193 1.409 1_655 S
C3191 H3183 0.930 . S
C3191 C3192 1.355 . S
C3191 C3193 1.415 . S
C3192 C3191 1.355 . S
C3192 C3194 1.419 . S
C3193 C3188 1.425 1_455 S
C3193 C3190 1.409 1_455 S
C3193 C3191 1.415 . S
C3194 H3184 0.930 . S
C3194 C3192 1.419 . S
C3194 C3195 1.362 . S
C3195 H3185 0.964 . S
C3195 C3188 1.409 1_455 S
C3195 C3194 1.362 . S
H3196 C3202 0.930 . S
H3197 C3205 0.930 . S
H3198 C3206 0.930 . S
H3199 C3207 0.930 . S
H3200 C3210 0.930 . S
H3201 C3211 0.930 . S
C3202 H3196 0.930 . S
C3202 C3203 1.355 . S
C3202 C3204 1.415 . S
C3203 C3202 1.355 . S
C3203 C3205 1.419 . S
C3204 C3202 1.415 . S
C3204 C3209 1.425 . S
C3204 C3211 1.409 . S
C3205 H3197 0.930 . S
C3205 C3203 1.419 . S
C3205 C3206 1.362 . S
C3206 H3198 0.930 . S
C3206 C3205 1.362 . S
C3206 C3209 1.409 . S
C3207 H3199 0.930 . S
C3207 C3208 1.355 . S
C3207 C3209 1.415 . S
C3208 C3207 1.355 . S
C3208 C3210 1.419 . S
C3209 C3204 1.425 . S
C3209 C3206 1.409 . S
C3209 C3207 1.415 . S
C3210 H3200 0.930 . S
C3210 C3208 1.419 . S
C3210 C3211 1.362 . S
C3211 H3201 0.930 . S
C3211 C3204 1.409 . S
C3211 C3210 1.362 . S
H3212 C3218 0.930 . S
H3213 C3221 0.930 . S
H3214 C3222 0.953 . S
H3215 C3223 0.930 . S
H3216 C3226 0.930 . S
H3217 C3227 0.953 . S
C3218 H3212 0.930 . S
C3218 C3219 1.355 . S
C3218 C3220 1.415 . S
C3219 C3218 1.355 . S
C3219 C3221 1.419 . S
C3220 C3218 1.415 . S
C3220 C3225 1.425 1_565 S
C3220 C3227 1.409 1_565 S
C3221 H3213 0.930 . S
C3221 C3219 1.419 . S
C3221 C3222 1.362 . S
C3222 H3214 0.953 . S
C3222 C3221 1.362 . S
C3222 C3225 1.409 1_565 S
C3223 H3215 0.930 . S
C3223 C3224 1.355 . S
C3223 C3225 1.415 . S
C3224 C3223 1.355 . S
C3224 C3226 1.419 . S
C3225 C3220 1.425 1_545 S
C3225 C3222 1.409 1_545 S
C3225 C3223 1.415 . S
C3226 H3216 0.930 . S
C3226 C3224 1.419 . S
C3226 C3227 1.362 . S
C3227 H3217 0.953 . S
C3227 C3220 1.409 1_545 S
C3227 C3226 1.362 . S
H3228 C3234 0.930 . S
H3229 C3237 0.930 . S
H3230 C3238 0.930 . S
H3231 C3239 0.930 . S
H3232 C3242 0.930 . S
H3233 C3243 0.930 . S
C3234 H3228 0.930 . S
C3234 C3235 1.355 . S
C3234 C3236 1.415 . S
C3235 C3234 1.355 . S
C3235 C3237 1.419 . S
C3236 C3234 1.415 . S
C3236 C3241 1.425 1_565 S
C3236 C3243 1.409 1_565 S
C3237 H3229 0.930 . S
C3237 C3235 1.419 . S
C3237 C3238 1.362 . S
C3238 H3230 0.930 . S
C3238 C3237 1.362 . S
C3238 C3241 1.409 1_565 S
C3239 H3231 0.930 . S
C3239 C3240 1.355 . S
C3239 C3241 1.415 . S
C3240 C3239 1.355 . S
C3240 C3242 1.419 . S
C3241 C3236 1.425 1_545 S
C3241 C3238 1.409 1_545 S
C3241 C3239 1.415 . S
C3242 H3232 0.930 . S
C3242 C3240 1.419 . S
C3242 C3243 1.362 . S
C3243 H3233 0.930 . S
C3243 C3236 1.409 1_545 S
C3243 C3242 1.362 . S
H3244 C3250 0.930 . S
H3245 C3253 0.930 . S
H3246 C3254 0.930 . S
H3247 C3255 0.930 . S
H3248 C3258 0.930 . S
H3249 C3259 0.930 . S
C3250 H3244 0.930 . S
C3250 C3251 1.355 . S
C3250 C3252 1.415 . S
C3251 C3250 1.355 . S
C3251 C3253 1.419 . S
C3252 C3250 1.415 . S
C3252 C3257 1.425 1_655 S
C3252 C3259 1.409 1_655 S
C3253 H3245 0.930 . S
C3253 C3251 1.419 . S
C3253 C3254 1.362 . S
C3254 H3246 0.930 . S
C3254 C3253 1.362 . S
C3254 C3257 1.409 1_655 S
C3255 H3247 0.930 . S
C3255 C3256 1.355 . S
C3255 C3257 1.415 . S
C3256 C3255 1.355 . S
C3256 C3258 1.419 . S
C3257 C3252 1.425 1_455 S
C3257 C3254 1.409 1_455 S
C3257 C3255 1.415 . S
C3258 H3248 0.930 . S
C3258 C3256 1.419 . S
C3258 C3259 1.362 . S
C3259 H3249 0.930 . S
C3259 C3252 1.409 1_455 S
C3259 C3258 1.362 . S
H3260 C3266 0.930 . S
H3261 C3269 0.930 . S
H3262 C3270 0.930 . S
H3263 C3271 0.930 . S
H3264 C3274 0.930 . S
H3265 C3275 0.930 . S
C3266 H3260 0.930 . S
C3266 C3267 1.355 . S
C3266 C3268 1.415 . S
C3267 C3266 1.355 . S
C3267 C3269 1.419 . S
C3268 C3266 1.415 . S
C3268 C3273 1.425 . S
C3268 C3275 1.409 . S
C3269 H3261 0.930 . S
C3269 C3267 1.419 . S
C3269 C3270 1.362 . S
C3270 H3262 0.930 . S
C3270 C3269 1.362 . S
C3270 C3273 1.409 . S
C3271 H3263 0.930 . S
C3271 C3272 1.355 . S
C3271 C3273 1.415 . S
C3272 C3271 1.355 . S
C3272 C3274 1.419 . S
C3273 C3268 1.425 . S
C3273 C3270 1.409 . S
C3273 C3271 1.415 . S
C3274 H3264 0.930 . S
C3274 C3272 1.419 . S
C3274 C3275 1.362 . S
C3275 H3265 0.930 . S
C3275 C3268 1.409 . S
C3275 C3274 1.362 . S
C2131 C3 1.377 . S
C2136 C1065 1.377 . S
C2147 C62 1.326 . S
C2152 C1124 1.326 . S
C2163 C1183 1.369 . S
C2168 C121 1.369 . S
C2179 C180 1.392 . S
C2184 C1950 1.392 . S
C2195 C2009 1.392 . S
C2200 C239 1.392 . S
C2211 C298 1.386 . S
C2216 C2068 1.386 . S
C2227 C1419 1.323 . S
C2232 C357 1.323 . S
C2243 C416 1.318 . S
C2248 C1478 1.318 . S
C2259 C475 1.349 . S
C2264 C1537 1.349 . S
C2275 C534 1.393 . S
C2280 C888 1.393 . S
C2291 C947 1.351 . S
C2296 C593 1.351 . S
C2307 C652 1.363 . S
C2312 C1006 1.363 . S
C2323 C711 1.370 . S
C2328 C1773 1.370 . S
C2339 C770 1.321 . S
C2344 C1832 1.321 . S
C2355 C829 1.371 . S
C2360 C1891 1.371 . S
C2371 C1242 1.319 . S
C2376 C1596 1.319 . S
C2387 C1301 1.317 . S
C2392 C1655 1.317 . S
C2403 C1360 1.320 . S
C2408 C1714 1.320 . S
C2419 C446 1.443 1_545 S
C2424 C5 1.440 . S
C2435 C505 1.457 1_655 S
C2440 C64 1.471 . S
C2451 C123 1.461 . S
C2456 C387 1.468 . S
C2467 C682 1.453 1_455 S
C2472 C182 1.445 . S
C2483 C564 1.449 . S
C2488 C241 1.443 . S
C2499 C623 1.425 1_565 S
C2504 C300 1.442 . S
C2515 C359 1.469 . S
C2520 C92 1.469 1_565 S
C2531 C418 1.460 . S
C2536 C151 1.437 1_455 S
C2547 C477 1.472 . S
C2552 C33 1.465 . S
C2563 C536 1.443 . S
C2568 C328 1.449 1_655 S
C2579 C210 1.458 . S
C2584 C595 1.471 . S
C2595 C269 1.457 1_545 S
C2600 C654 1.448 . S
C2611 C713 1.454 . S
C2616 C1154 1.431 . S
C2627 C772 1.458 . S
C2632 C1213 1.466 . S
C2643 C831 1.438 . S
C2648 C1095 1.437 . S
C2659 C1390 1.450 . S
C2664 C890 1.443 . S
C2675 C949 1.469 . S
C2680 C1272 1.469 . S
C2691 C1331 1.427 . S
C2696 C1008 1.447 . S
C2707 C1067 1.471 . S
C2712 C800 1.467 . S
C2723 C859 1.446 . S
C2728 C1126 1.466 . S
C2739 C741 1.429 . S
C2744 C1185 1.437 . S
C2755 C1244 1.438 . S
C2760 C1036 1.427 . S
C2771 C1303 1.440 . S
C2776 C918 1.426 . S
C2787 C1362 1.467 . S
C2792 C977 1.447 . S
C2803 C1862 1.469 . S
C2808 C1421 1.469 . S
C2819 C1480 1.472 . S
C2824 C1921 1.462 . S
C2835 C1539 1.467 . S
C2840 C1803 1.470 . S
C2851 C2098 1.425 . S
C2856 C1598 1.444 . S
C2867 C1980 1.443 . S
C2872 C1657 1.440 . S
C2883 C2039 1.427 . S
C2888 C1716 1.438 . S
C2899 C1508 1.426 . S
C2904 C1775 1.439 . S
C2915 C1567 1.466 . S
C2920 C1834 1.472 . S
C2931 C1449 1.435 . S
C2936 C1893 1.458 . S
C2947 C1952 1.465 . S
C2952 C1744 1.445 . S
C2963 C1626 1.440 . S
C2968 C2011 1.438 . S
C2979 C2070 1.462 . S
C2984 C1685 1.468 . S
C2995 C52 1.260 . S
C3000 C1763 1.261 . S
C3011 C1645 1.282 . S
C3016 C111 1.276 . S
C3027 C170 1.285 . S
C3032 C1704 1.279 . S
C3043 C229 1.288 . S
C3048 C819 1.282 . S
C3059 C878 1.306 . S
C3064 C288 1.308 . S
C3075 C347 1.260 . S
C3080 C760 1.259 . S
C3091 C1409 1.274 . S
C3096 C406 1.269 . S
C3107 C465 1.264 . S
C3112 C1291 1.268 . S
C3123 C524 1.292 . S
C3128 C1350 1.285 . S
C3139 C583 1.297 . S
C3144 C1881 1.302 . S
C3155 C642 1.271 . S
C3160 C1940 1.277 . S
C3171 C1822 1.281 . S
C3176 C701 1.287 . S
C3187 C937 1.284 . S
C3192 C1527 1.290 . S
C3203 C1586 1.300 . S
C3208 C996 1.304 . S
C3219 C1468 1.285 . S
C3224 C1055 1.291 . S
C3235 C2117 1.296 . S
C3240 C1114 1.301 . S
C3251 C1173 1.273 . S
C3256 C1999 1.279 . S
C3267 C1232 1.262 . S
C3272 C2058 1.260 . S
