# Generated by pormake.
# Topology nbo, (4)-cn, num edge types: 1
# Building blocks:
#     Node 0, Type 0, BuildingBlock: ESEHIV_clean_sbu_0, # of connection points: 4
#     Node 1, Type 0, BuildingBlock: ESEHIV_clean_sbu_0, # of connection points: 4
#     Node 2, Type 0, BuildingBlock: ESEHIV_clean_sbu_0, # of connection points: 4
#     Node 3, Type 0, BuildingBlock: ESEHIV_clean_sbu_0, # of connection points: 4
#     Node 4, Type 0, BuildingBlock: ESEHIV_clean_sbu_0, # of connection points: 4
#     Node 5, Type 0, BuildingBlock: ESEHIV_clean_sbu_0, # of connection points: 4
#     Edge 6, Type (0, 0), BuildingBlock: FUNLAD_clean_linker_0, # of connection points: 2
#     Edge 7, Type (0, 0), BuildingBlock: FUNLAD_clean_linker_0, # of connection points: 2
#     Edge 8, Type (0, 0), BuildingBlock: FUNLAD_clean_linker_0, # of connection points: 2
#     Edge 9, Type (0, 0), BuildingBlock: FUNLAD_clean_linker_0, # of connection points: 2
#     Edge 10, Type (0, 0), BuildingBlock: FUNLAD_clean_linker_0, # of connection points: 2
#     Edge 11, Type (0, 0), BuildingBlock: FUNLAD_clean_linker_0, # of connection points: 2
#     Edge 12, Type (0, 0), BuildingBlock: FUNLAD_clean_linker_0, # of connection points: 2
#     Edge 13, Type (0, 0), BuildingBlock: FUNLAD_clean_linker_0, # of connection points: 2
#     Edge 14, Type (0, 0), BuildingBlock: FUNLAD_clean_linker_0, # of connection points: 2
#     Edge 15, Type (0, 0), BuildingBlock: FUNLAD_clean_linker_0, # of connection points: 2
#     Edge 16, Type (0, 0), BuildingBlock: FUNLAD_clean_linker_0, # of connection points: 2
#     Edge 17, Type (0, 0), BuildingBlock: FUNLAD_clean_linker_0, # of connection points: 2
# Relax obj value: 0.000
# Max RMSD: 0.094
# Mean RMSD: 0.094
data_MOF--net-nbo--node1-ESEHIV_clean_sbu_0--edge1-FUNLAD_clean_linker_0
_symmetry_space_group_name_H-M    P1
_symmetry_Int_Tables_number       1
_symmetry_cell_setting            triclinic
loop_
_symmetry_equiv_pos_as_xyz
'x, y, z'
_cell_length_a     34.656783
_cell_length_b     38.969092
_cell_length_c     36.773836
_cell_angle_alpha  103.38178
_cell_angle_beta   104.05835
_cell_angle_gamma 103.86888
loop_
_atom_site_label
_atom_site_type_symbol
_atom_site_fract_x
_atom_site_fract_y
_atom_site_fract_z
_atom_type_partial_charge
Cu0 Cu 0.06914 0.08574 0.54333 0.0
N1 N 0.08379 0.1355 0.57402 0.0
N2 N 0.08185 0.19405 0.58708 0.0
C3 C 0.07083 0.16088 0.55935 0.0
C4 C 0.10325 0.18946 0.62066 0.0
C5 C 0.10425 0.15323 0.61254 0.0
O6 O 1.01141 0.07492 0.5107 0.0
C7 C 0.1482 0.09258 0.53916 0.0
O8 O 0.15481 0.10439 0.57731 0.0
H9 H 0.05306 0.15474 0.52875 0.0
H10 H 0.11811 0.14061 0.63338 0.0
N11 N 0.06875 0.05134 0.5716 0.0
N12 N 0.06295 0.99586 0.58149 0.0
C13 C 0.06555 1.01551 0.55581 0.0
C14 C 0.06819 0.05468 0.60869 0.0
C15 C 0.06465 1.02054 0.61488 0.0
C16 C 0.98828 0.08332 0.53131 0.0
O17 O 1.00424 0.09494 0.56989 0.0
H18 H 0.06375 1.00391 0.52549 0.0
H19 H 0.06932 0.07986 0.62948 0.0
O20 O 0.11064 0.08227 0.51612 0.0
H21 H 0.11618 0.21038 0.64927 0.0
H22 H 0.06329 1.01446 0.64188 0.0
Cu23 Cu 0.52929 0.05687 1.00734 0.0
N24 N 0.49362 1.00821 0.99334 0.0
N25 N 0.47708 0.94869 0.99244 0.0
C26 C 0.50456 0.98321 0.0101 0.0
C27 C 0.44746 0.9521 0.96312 0.0
C28 C 0.45776 0.98892 0.96375 0.0
O29 O 0.5617 0.0654 0.06216 0.0
C30 C 0.538 0.05945 0.93534 0.0
O31 O 0.5 0.0616 0.93089 0.0
H32 H 0.53358 0.98994 0.03355 0.0
H33 H 0.44119 1.00042 0.94323 0.0
N34 N 0.50215 0.09342 1.00696 0.0
N35 N 0.49446 0.14978 0.01227 0.0
C36 C 0.5216 0.12991 0.01449 0.0
C37 C 0.46118 0.08991 0.99957 0.0
C38 C 0.45636 0.12459 1.00293 0.0
C39 C 0.5392 0.0668 0.08501 0.0
O40 O 0.50043 0.06628 0.07041 0.0
H41 H 0.55518 0.14163 0.02189 0.0
H42 H 0.43659 0.06398 0.99225 0.0
O43 O 0.55897 0.0574 0.96812 0.0
H44 H 0.42075 0.92956 0.94223 0.0
H45 H 0.42697 0.13062 0.99825 0.0
Cu46 Cu 0.04416 0.53718 0.99877 0.0
N47 N 0.02941 0.5051 0.94752 0.0
N48 N 0.02729 0.48988 0.88441 0.0
C49 C 0.04176 0.51684 0.91932 0.0
C50 C 1.00454 0.45978 0.89076 0.0
C51 C 1.00618 0.46919 0.92995 0.0
O52 O 0.10166 0.56668 0.00861 0.0
C53 C 0.96574 0.54243 0.98884 0.0
O54 O 0.95924 0.50645 0.9803 0.0
H55 H 0.06021 0.54514 0.9242 0.0
H56 H 0.99108 0.45132 0.94434 0.0
N57 N 0.04371 0.51409 0.03815 0.0
N58 N 0.04629 0.50957 0.09832 0.0
C59 C 0.04557 0.53171 0.07494 0.0
C60 C 0.04328 0.47944 0.03798 0.0
C61 C 0.04491 0.47657 0.0751 0.0
C62 C 0.12442 0.54591 1.0031 0.0
O63 O 0.10808 0.51002 0.99618 0.0
H64 H 0.04709 0.56057 0.08444 0.0
H65 H 0.04216 0.45789 0.01283 0.0
O66 O 1.00324 0.56381 0.99875 0.0
H67 H 0.98785 0.43301 0.86872 0.0
H68 H 0.04455 0.45196 0.08405 0.0
Cu69 Cu 0.56545 0.57898 0.04283 0.0
N70 N 0.57834 0.6289 0.07248 0.0
N71 N 0.57545 0.68716 0.08371 0.0
C72 C 0.56211 0.65277 0.05764 0.0
C73 C 0.60147 0.68489 0.11638 0.0
C74 C 0.6031 0.64888 0.10943 0.0
O75 O 0.50703 0.56653 0.01204 0.0
C76 C 0.64331 0.58851 0.03576 0.0
O77 O 0.6511 0.60015 0.07409 0.0
H78 H 0.54124 0.645 0.02786 0.0
H79 H 0.62124 0.63825 0.12981 0.0
N80 N 0.56859 0.54532 0.07198 0.0
N81 N 0.56186 0.4904 0.08352 0.0
C82 C 0.55923 0.50829 0.056 0.0
C83 C 0.57762 0.5512 0.11105 0.0
C84 C 0.5735 0.51745 0.11824 0.0
C85 C 0.4846 0.57052 0.03458 0.0
O86 O 0.50235 0.57805 0.07263 0.0
H87 H 0.54941 0.49469 0.02457 0.0
H88 H 0.58576 0.57794 0.13275 0.0
O89 O 0.60526 0.5768 0.01368 0.0
H90 H 0.61785 0.70746 0.14352 0.0
H91 H 0.57862 0.51327 0.14689 0.0
Cu92 Cu 0.02485 0.56482 0.51213 0.0
N93 N 0.99174 0.51581 0.50197 0.0
N94 N 0.97961 0.45733 0.50437 0.0
C95 C 1.0075 0.49173 0.51678 0.0
C96 C 0.94456 0.45995 0.48075 0.0
C97 C 0.9522 0.49603 0.47917 0.0
O98 O 0.06082 0.57613 0.56614 0.0
C99 C 0.0246 0.55751 0.43666 0.0
O100 O 0.98516 0.55289 0.4343 0.0
H101 H 0.03919 0.49953 0.53631 0.0
H102 H 0.93079 0.50665 0.46183 0.0
N103 N 0.99546 0.59973 0.5114 0.0
N104 N 0.98463 0.65515 0.51925 0.0
C105 C 1.0133 0.63681 0.52125 0.0
C106 C 0.95402 0.5943 0.50276 0.0
C107 C 0.94726 0.62832 0.50754 0.0
C108 C 0.04047 0.57881 0.59079 0.0
O109 O 1.00151 0.57854 0.57817 0.0
H110 H 0.04682 0.65004 0.53063 0.0
H111 H 0.93037 0.5676 0.49408 0.0
O112 O 0.05095 0.56411 0.47043 0.0
H113 H 0.91588 0.43723 0.46476 0.0
H114 H 0.91703 0.6328 0.50258 0.0
Cu115 Cu 0.5425 1.02073 0.49822 0.0
N116 N 0.52686 0.99144 0.44548 0.0
N117 N 0.52297 0.97969 0.38185 0.0
C118 C 0.54018 1.00447 0.4183 0.0
C119 C 0.49773 0.9497 0.38631 0.0
C120 C 0.50032 0.95696 0.42562 0.0
O121 O 0.60202 0.04623 0.5101 0.0
C122 C 0.46639 0.03125 0.48996 0.0
O123 O 0.4571 0.99492 0.47853 0.0
H124 H 0.56087 0.03235 0.42502 0.0
H125 H 0.48304 0.93881 0.4384 0.0
N126 N 0.5375 0.99443 0.53472 0.0
N127 N 0.54099 0.98562 0.59352 0.0
C128 C 0.54578 1.01068 0.57358 0.0
C129 C 0.527 0.95771 0.52971 0.0
C130 C 0.52913 0.9522 0.56585 0.0
C131 C 0.62288 0.0233 0.50884 0.0
O132 O 0.60301 0.98822 0.50281 0.0
H133 H 0.55597 0.04049 0.58697 0.0
H134 H 0.51892 0.93642 0.50194 0.0
O135 O 0.50487 0.05082 0.50091 0.0
H136 H 0.4783 0.92453 0.3628 0.0
H137 H 0.52214 0.92555 0.57113 0.0
C138 C 0.03604 0.22347 0.55092 0.0
C139 C 0.07139 0.22673 0.58171 0.0
C140 C 0.02662 0.25502 0.54461 0.0
C141 C 0.05217 0.29083 0.56919 0.0
C142 C 0.08724 0.29404 0.60017 0.0
C143 C 0.09664 0.26244 0.6065 0.0
C144 C 0.0448 0.32542 0.5623 0.0
C145 C 1.00809 0.32677 0.54023 0.0
C146 C 1.00171 0.36118 0.53201 0.0
C147 C 0.96076 0.36313 0.51983 0.0
C148 C 0.9534 0.3945 0.51078 0.0
C149 C 0.98687 0.42472 0.51346 0.0
H150 H 0.06704 0.39051 0.54194 0.0
C151 C 0.02781 0.42253 0.52517 0.0
C152 C 0.03515 0.39123 0.5342 0.0
H153 H 0.05436 0.4447 0.52663 0.0
H154 H 0.01549 0.19646 0.53153 0.0
H155 H 0.99986 0.25099 0.51985 0.0
H156 H 0.10775 0.32118 0.61944 0.0
H157 H 0.12426 0.26606 0.63024 0.0
H158 H 0.07078 0.35096 0.57692 0.0
H159 H 0.98096 0.302 0.5284 0.0
H160 H 0.93429 0.34032 0.51746 0.0
H161 H 0.92152 0.39518 0.50209 0.0
C162 C 0.91408 0.05183 0.48739 0.0
C163 C 0.9455 0.08384 0.51395 0.0
C164 C 0.87186 0.05029 0.47918 0.0
C165 C 0.86073 0.08093 0.49725 0.0
C166 C 0.89259 0.11393 0.52085 0.0
C167 C 0.93452 0.11521 0.52955 0.0
C168 C 0.81666 0.07848 0.49516 0.0
C169 C 0.7898 0.04749 0.49587 0.0
C170 C 0.748 0.0446 0.50132 0.0
C171 C 0.7294 1.01426 0.5124 0.0
C172 C 0.68976 1.0088 0.51664 0.0
C173 C 0.66721 0.03344 0.50975 0.0
H174 H 0.73902 0.09369 0.48646 0.0
C175 C 0.686 0.06461 0.49977 0.0
C176 C 0.72609 0.07014 0.49547 0.0
H177 H 0.66913 0.0838 0.49378 0.0
H178 H 0.92188 0.02729 0.47517 0.0
H179 H 0.84799 0.02473 0.45992 0.0
H180 H 0.88498 0.13801 0.53478 0.0
H181 H 0.95837 0.14027 0.55007 0.0
H182 H 0.80841 0.10394 0.49867 0.0
H183 H 0.80036 0.02335 0.49568 0.0
H184 H 0.74544 0.99425 0.51742 0.0
H185 H 0.67634 0.98456 0.52452 0.0
C186 C 0.02937 0.71859 0.52747 0.0
C187 C 0.99225 0.69493 0.52864 0.0
C188 C 0.0367 0.75709 0.53669 0.0
C189 C 1.00692 0.773 0.5472 0.0
C190 C 0.9701 0.74936 0.54873 0.0
C191 C 0.96277 0.71095 0.53948 0.0
C192 C 1.01323 0.81392 0.55786 0.0
C193 C 0.04072 0.83833 0.54814 0.0
C194 C 0.04601 0.87905 0.55782 0.0
C195 C 0.06507 0.89933 0.53636 0.0
C196 C 0.07074 0.93744 0.5442 0.0
C197 C 0.0578 0.95656 0.57402 0.0
H198 H 0.01992 0.88415 0.60627 0.0
C199 C 0.0394 0.93645 0.59606 0.0
C200 C 0.03363 0.89824 0.58815 0.0
H201 H 0.02892 0.95007 0.61918 0.0
H202 H 0.05277 0.7074 0.51914 0.0
H203 H 0.06601 0.77411 0.53604 0.0
H204 H 0.94672 0.76064 0.55709 0.0
H205 H 0.93417 0.69393 0.54144 0.0
H206 H 0.99271 0.82379 0.57275 0.0
H207 H 0.05892 0.82806 0.53053 0.0
H208 H 0.07545 0.88559 0.51316 0.0
H209 H 0.08571 0.95195 0.52704 0.0
C210 C 0.39021 0.02447 0.47361 0.0
C211 C 0.43201 0.04763 0.49138 0.0
C212 C 0.35697 0.03776 0.47752 0.0
C213 C 0.36447 0.07485 0.49921 0.0
C214 C 0.40626 0.09837 0.51611 0.0
C215 C 0.43972 0.08499 0.51207 0.0
C216 C 0.32997 0.08861 0.50803 0.0
C217 C 0.28884 0.07161 0.48742 0.0
C218 C 0.25378 0.08086 0.50021 0.0
C219 C 0.21297 0.06718 0.47311 0.0
C220 C 0.17855 0.07182 0.48511 0.0
C221 C 0.1842 0.08999 0.52465 0.0
H222 H 0.28977 0.11006 0.56182 0.0
C223 C 0.2251 0.10443 0.55149 0.0
C224 C 0.25936 0.09987 0.53956 0.0
H225 H 0.23074 0.11861 0.58224 0.0
H226 H 0.38298 0.9955 0.45737 0.0
H227 H 0.32567 1.01821 0.46485 0.0
H228 H 0.41313 0.12699 0.5333 0.0
H229 H 0.47152 0.10352 0.52622 0.0
H230 H 0.33913 0.11324 0.53316 0.0
H231 H 0.27996 0.04917 0.46022 0.0
H232 H 0.20754 0.05212 0.44267 0.0
H233 H 0.1475 0.0603 0.4637 0.0
C234 C 0.56449 1.01059 0.34546 0.0
C235 C 0.52747 0.98594 0.34562 0.0
C236 C 0.56755 1.01911 0.31101 0.0
C237 C 0.53345 1.00329 0.27597 0.0
C238 C 0.49692 0.97802 0.276 0.0
C239 C 0.49405 0.96921 0.31024 0.0
C240 C 0.53298 1.01497 0.24005 0.0
C241 C 0.56728 0.02987 0.23072 0.0
C242 C 0.56372 0.04303 0.1954 0.0
C243 C 0.58995 0.0379 0.17215 0.0
C244 C 0.58403 0.04751 0.13703 0.0
C245 C 0.55215 0.0629 0.12503 0.0
H246 H 0.5141 0.0663 0.20247 0.0
C247 C 0.52808 0.07034 0.14989 0.0
C248 C 0.53375 0.06057 0.18451 0.0
H249 H 0.50365 0.08268 0.14193 0.0
H250 H 0.59094 0.02373 0.37216 0.0
H251 H 0.59596 0.03918 0.31242 0.0
H252 H 0.47002 0.96559 0.24955 0.0
H253 H 0.46496 0.95046 0.30934 0.0
H254 H 0.50229 1.01061 0.21985 0.0
H255 H 0.59809 0.03122 0.24815 0.0
H256 H 0.61376 0.02497 0.18025 0.0
H257 H 0.603 0.04132 0.11848 0.0
C258 C 0.06305 0.50008 0.16435 0.0
C259 C 0.04738 0.51925 0.13912 0.0
C260 C 0.06319 0.50923 0.20367 0.0
C261 C 0.0476 0.53783 0.21862 0.0
C262 C 0.03228 0.55702 0.19341 0.0
C263 C 0.03225 0.54799 0.15436 0.0
C264 C 0.04341 0.54682 0.25895 0.0
C265 C 0.06338 0.53679 0.28923 0.0
C266 C 0.05431 0.54373 0.32755 0.0
C267 C 0.08497 0.54749 0.36261 0.0
C268 C 0.07616 0.5528 0.39855 0.0
C269 C 0.03626 0.55391 0.39991 0.0
H270 H 0.98942 0.54068 0.30287 0.0
C271 C 1.00574 0.54999 0.36476 0.0
C272 C 0.0145 0.54483 0.3292 0.0
H273 H 0.97452 0.55039 0.36443 0.0
H274 H 0.07521 0.47796 0.15376 0.0
H275 H 0.07452 0.4932 0.22174 0.0
H276 H 0.01963 0.5789 0.20381 0.0
H277 H 0.01933 0.56305 0.13586 0.0
H278 H 0.02264 0.56306 0.26385 0.0
H279 H 0.08719 0.5236 0.28632 0.0
H280 H 0.11578 0.54631 0.36219 0.0
H281 H 0.10027 0.55544 0.42501 0.0
C282 C 0.54507 0.02655 0.65811 0.0
C283 C 0.54732 0.99306 0.63543 0.0
C284 C 0.55049 0.03357 0.69847 0.0
C285 C 0.55863 1.00734 0.71751 0.0
C286 C 0.56085 0.97389 0.69483 0.0
C287 C 0.55543 0.96687 0.65445 0.0
C288 C 0.56222 1.01265 0.76006 0.0
C289 C 0.57009 0.0459 0.78671 0.0
C290 C 0.56741 0.05062 0.82742 0.0
C291 C 0.55505 0.08052 0.84461 0.0
C292 C 0.54794 0.08436 0.88091 0.0
C293 C 0.55425 0.05909 0.90164 0.0
H294 H 0.5861 1.00322 0.83709 0.0
C295 C 0.56926 0.03047 0.88595 0.0
C296 C 0.57554 0.02607 0.84894 0.0
H297 H 0.57388 1.01035 0.90118 0.0
H298 H 0.53806 0.04712 0.64454 0.0
H299 H 0.54696 0.05918 0.7141 0.0
H300 H 0.56673 0.95296 0.70839 0.0
H301 H 0.55784 0.94093 0.63825 0.0
H302 H 0.55675 0.98784 0.76926 0.0
H303 H 0.57566 0.0708 0.77776 0.0
H304 H 0.54892 0.10007 0.82902 0.0
H305 H 0.53611 0.10654 0.89225 0.0
C306 C 0.03347 0.58273 0.65709 0.0
C307 C 0.05551 0.57477 0.63043 0.0
C308 C 0.04004 0.57179 0.69097 0.0
C309 C 0.06903 0.55272 0.69929 0.0
C310 C 0.09365 0.54735 0.67449 0.0
C311 C 0.08671 0.55803 0.64004 0.0
C312 C 0.07289 0.53804 0.73349 0.0
C313 C 0.03857 0.52193 0.74207 0.0
C314 C 0.03922 0.51007 0.77784 0.0
C315 C 1.00317 0.48397 0.77763 0.0
C316 C 1.00004 0.47584 0.81214 0.0
C317 C 0.03265 0.49419 0.84784 0.0
H318 H 0.10074 0.54778 0.81475 0.0
C319 C 0.06939 0.51927 0.84781 0.0
C320 C 0.07275 0.52708 0.81319 0.0
H321 H 0.09521 0.53357 0.87485 0.0
H322 H 1.00963 0.59608 0.65094 0.0
H323 H 0.02167 0.57758 0.71026 0.0
H324 H 0.11671 0.53324 0.6807 0.0
H325 H 0.1041 0.55141 0.62003 0.0
H326 H 0.10385 0.53971 0.75088 0.0
H327 H 1.00787 0.51741 0.7218 0.0
H328 H 0.97675 0.47061 0.75087 0.0
H329 H 0.97127 0.45664 0.81129 0.0
C330 C 0.18263 0.53494 0.97906 0.0
C331 C 0.16687 0.55989 1.00048 0.0
C332 C 0.22382 0.54578 0.97877 0.0
C333 C 0.25054 0.58205 1.00003 0.0
C334 C 0.23431 0.60754 0.02025 0.0
C335 C 0.19263 0.59668 0.02017 0.0
C336 C 0.29637 0.59207 1.00626 0.0
C337 C 0.3138 0.57276 0.98312 0.0
C338 C 0.35866 0.57495 0.99615 0.0
C339 C 0.37842 0.56432 0.96816 0.0
C340 C 0.41952 0.56285 0.98015 0.0
C341 C 0.44113 0.5713 0.02036 0.0
H342 H 0.36608 0.59039 0.05877 0.0
C343 C 0.42113 0.58175 0.04815 0.0
C344 C 0.38057 0.58353 0.03628 0.0
H345 H 0.43669 0.58843 0.07941 0.0
H346 H 0.16336 0.50646 0.96315 0.0
H347 H 0.23496 0.52488 0.9636 0.0
H348 H 0.25432 0.63556 0.03721 0.0
H349 H 0.18121 0.61647 0.03684 0.0
H350 H 0.31654 0.6145 0.03268 0.0
H351 H 0.29436 0.553 0.95466 0.0
H352 H 0.36193 0.55691 0.93698 0.0
H353 H 0.43411 0.55477 0.95806 0.0
C354 C 0.55563 0.42727 0.04324 0.0
C355 C 0.55245 0.45073 0.07708 0.0
C356 C 0.54605 0.38882 0.03688 0.0
C357 C 0.53303 0.37276 0.06427 0.0
C358 C 0.52955 0.39619 0.09784 0.0
C359 C 0.53933 0.43459 0.1043 0.0
C360 C 0.52129 0.33181 0.05842 0.0
C361 C 0.53462 0.30801 0.03527 0.0
C362 C 0.52351 0.26721 0.03018 0.0
C363 C 0.54949 0.24767 0.01751 0.0
C364 C 0.54014 0.2094 0.01187 0.0
C365 C 0.50417 0.1894 0.01829 0.0
H366 H 0.46572 0.26079 0.04507 0.0
C367 C 0.47779 0.20882 0.03047 0.0
C368 C 0.48728 0.24719 0.03635 0.0
H369 H 0.4499 0.19445 0.03581 0.0
H370 H 0.56575 0.43863 0.02168 0.0
H371 H 0.5482 0.37185 0.01011 0.0
H372 H 0.51921 0.38475 0.11931 0.0
H373 H 0.53582 0.4515 0.13036 0.0
H374 H 0.50249 0.32137 0.07555 0.0
H375 H 0.55635 0.31893 0.02079 0.0
H376 H 0.57733 0.26209 0.01205 0.0
H377 H 0.56084 0.19541 1.00185 0.0
C378 C 0.88879 0.53143 0.97261 0.0
C379 C 0.92964 0.55667 0.98824 0.0
C380 C 0.85426 0.54329 0.97469 0.0
C381 C 0.85954 0.58093 0.9923 0.0
C382 C 0.90032 0.60641 1.00698 0.0
C383 C 0.93505 0.59447 1.00479 0.0
C384 C 0.82402 0.5936 0.99973 0.0
C385 C 0.78322 0.57393 0.98055 0.0
C386 C 0.74791 0.58193 0.99365 0.0
C387 C 0.70663 0.56539 0.96769 0.0
C388 C 0.67234 0.56847 0.98061 0.0
C389 C 0.67871 0.58784 0.01996 0.0
H390 H 0.78501 0.61467 0.05415 0.0
C391 C 0.72 0.60527 0.04555 0.0
C392 C 0.7541 0.6023 0.03269 0.0
H393 H 0.72613 0.62051 0.07608 0.0
H394 H 0.88338 0.50207 0.95958 0.0
H395 H 0.82382 0.5224 0.96399 0.0
H396 H 0.90545 0.63552 0.02108 0.0
H397 H 0.96612 0.61459 0.01716 0.0
H398 H 0.83215 0.61955 0.02293 0.0
H399 H 0.77501 0.55 0.95487 0.0
H400 H 0.70083 0.54921 0.93754 0.0
H401 H 0.64093 0.55468 0.9602 0.0
C402 C 0.52597 0.71508 0.04984 0.0
C403 C 0.56438 0.71931 0.07728 0.0
C404 C 0.51558 0.74605 0.04269 0.0
C405 C 0.54359 0.78223 0.06261 0.0
C406 C 0.58161 0.78639 0.09054 0.0
C407 C 0.59189 0.75542 0.0978 0.0
C408 C 0.53445 0.81637 0.05593 0.0
C409 C 0.50387 0.81645 0.02501 0.0
C410 C 0.49606 0.85091 0.01797 0.0
C411 C 0.47256 0.84895 0.98007 0.0
C412 C 0.46538 0.88067 0.97181 0.0
C413 C 0.48151 0.91527 1.00133 0.0
H414 H 0.52763 0.88813 0.07786 0.0
C415 C 0.50383 0.91704 0.03957 0.0
C416 C 0.51086 0.88534 0.04787 0.0
H417 H 0.51584 0.94304 0.06326 0.0
H418 H 0.50356 0.68776 0.03414 0.0
H419 H 0.48538 0.74125 0.02188 0.0
H420 H 0.60379 0.81378 0.10663 0.0
H421 H 0.6218 0.75977 0.11895 0.0
H422 H 0.55539 0.8427 0.07679 0.0
H423 H 0.48479 0.79041 1.00252 0.0
H424 H 0.46031 0.82284 0.95645 0.0
H425 H 0.44824 0.87825 0.94202 0.0
loop_
_geom_bond_atom_site_label_1
_geom_bond_atom_site_label_2
_geom_bond_distance
_geom_bond_site_symmetry_2
_ccdc_geom_bond_type
Cu0 N1 1.999 . S
Cu0 O6 1.974 1_455 S
Cu0 N11 1.985 1_545 S
Cu0 O20 1.959 . S
N1 Cu0 1.999 . S
N1 C3 1.263 . S
N1 C5 1.389 . S
N2 C3 1.358 . S
N2 C4 1.400 . S
C3 N1 1.263 . S
C3 N2 1.358 . S
C3 H9 0.932 . S
C4 N2 1.400 . S
C4 C5 1.351 . S
C4 H21 0.930 . S
C5 N1 1.389 . S
C5 C4 1.351 . S
C5 H10 0.930 . S
O6 Cu0 1.974 1_655 S
O6 C16 1.282 . S
C7 O8 1.261 . S
C7 O20 1.251 . S
O8 C7 1.261 . S
H9 C3 0.932 . S
H10 C5 0.930 . S
N11 Cu0 1.985 1_565 S
N11 C13 1.335 . S
N11 C14 1.390 1_455 S
N12 C13 1.345 . S
N12 C15 1.336 1_455 S
C13 N11 1.335 . S
C13 N12 1.345 . S
C13 H18 0.930 . S
C14 N11 1.390 1_655 S
C14 C15 1.346 . S
C14 H19 0.930 . S
C15 N12 1.336 1_655 S
C15 C14 1.346 . S
C15 H22 0.929 . S
C16 O6 1.282 . S
C16 O17 1.216 . S
O17 C16 1.216 . S
H18 C13 0.930 . S
H19 C14 0.930 . S
O20 Cu0 1.959 . S
O20 C7 1.251 . S
H21 C4 0.930 . S
H22 C15 0.929 . S
Cu23 N24 1.999 1_545 S
Cu23 O29 1.974 . S
Cu23 N34 1.985 . S
Cu23 O43 1.959 1_554 S
N24 Cu23 1.999 1_565 S
N24 C26 1.263 . S
N24 C28 1.389 1_554 S
N25 C26 1.358 . S
N25 C27 1.400 1_554 S
C26 N24 1.263 . S
C26 N25 1.358 . S
C26 H32 0.930 . S
C27 N25 1.400 1_556 S
C27 C28 1.351 . S
C27 H44 0.930 . S
C28 N24 1.389 1_556 S
C28 C27 1.351 . S
C28 H33 0.930 . S
O29 Cu23 1.974 . S
O29 C39 1.282 . S
C30 O31 1.261 . S
C30 O43 1.251 . S
O31 C30 1.261 . S
H32 C26 0.930 . S
H33 C28 0.930 . S
N34 Cu23 1.985 . S
N34 C36 1.335 . S
N34 C37 1.390 . S
N35 C36 1.345 . S
N35 C38 1.336 . S
C36 N34 1.335 . S
C36 N35 1.345 . S
C36 H41 0.930 1_554 S
C37 N34 1.390 . S
C37 C38 1.346 . S
C37 H42 0.930 . S
C38 N35 1.336 . S
C38 C37 1.346 . S
C38 H45 0.929 . S
C39 O29 1.282 . S
C39 O40 1.216 . S
O40 C39 1.216 . S
H41 C36 0.930 1_556 S
H42 C37 0.930 . S
O43 Cu23 1.959 1_556 S
O43 C30 1.251 . S
H44 C27 0.930 . S
H45 C38 0.929 . S
Cu46 N47 1.999 1_554 S
Cu46 O52 1.974 . S
Cu46 N57 1.985 . S
Cu46 O66 1.959 1_455 S
N47 Cu46 1.999 1_556 S
N47 C49 1.263 . S
N47 C51 1.389 . S
N48 C49 1.358 . S
N48 C50 1.400 . S
C49 N47 1.263 . S
C49 N48 1.358 . S
C49 H55 0.930 . S
C50 N48 1.400 . S
C50 C51 1.350 . S
C50 H67 0.930 1_455 S
C51 N47 1.389 . S
C51 C50 1.350 . S
C51 H56 0.930 1_455 S
O52 Cu46 1.974 . S
O52 C62 1.282 . S
C53 O54 1.261 1_554 S
C53 O66 1.251 . S
O54 C53 1.261 1_556 S
H55 C49 0.930 . S
H56 C51 0.930 1_655 S
N57 Cu46 1.985 . S
N57 C59 1.335 . S
N57 C60 1.390 . S
N58 C59 1.345 . S
N58 C61 1.336 . S
C59 N57 1.335 . S
C59 N58 1.345 . S
C59 H64 0.930 . S
C60 N57 1.390 . S
C60 C61 1.346 . S
C60 H65 0.930 . S
C61 N58 1.336 . S
C61 C60 1.346 . S
C61 H68 0.929 . S
C62 O52 1.282 . S
C62 O63 1.216 1_554 S
O63 C62 1.216 1_556 S
H64 C59 0.930 . S
H65 C60 0.930 . S
O66 Cu46 1.959 1_655 S
O66 C53 1.251 . S
H67 C50 0.930 1_655 S
H68 C61 0.929 . S
Cu69 N70 1.999 . S
Cu69 O75 1.974 . S
Cu69 N80 1.998 . S
Cu69 O89 1.959 . S
N70 Cu69 1.999 . S
N70 C72 1.262 1_556 S
N70 C74 1.389 . S
N71 C72 1.356 1_556 S
N71 C73 1.400 . S
C72 N70 1.262 1_554 S
C72 N71 1.356 1_554 S
C72 H78 0.933 . S
C73 N71 1.400 . S
C73 C74 1.351 . S
C73 H90 0.930 . S
C74 N70 1.389 . S
C74 C73 1.351 . S
C74 H79 0.930 . S
O75 Cu69 1.974 . S
O75 C85 1.282 1_556 S
C76 O77 1.261 . S
C76 O89 1.251 1_554 S
O77 C76 1.261 . S
H78 C72 0.933 . S
H79 C74 0.930 . S
N80 Cu69 1.998 . S
N80 C82 1.342 . S
N80 C83 1.370 1_556 S
N81 C82 1.345 1_554 S
N81 C84 1.336 . S
C82 N80 1.342 . S
C82 N81 1.345 1_556 S
C82 H87 0.930 . S
C83 N80 1.370 1_554 S
C83 C84 1.346 . S
C83 H88 0.930 . S
C84 N81 1.336 . S
C84 C83 1.346 . S
C84 H91 0.929 . S
C85 O75 1.282 1_554 S
C85 O86 1.216 . S
O86 C85 1.216 . S
H87 C82 0.930 . S
H88 C83 0.930 . S
O89 Cu69 1.959 . S
O89 C76 1.251 1_556 S
H90 C73 0.930 . S
H91 C84 0.929 . S
Cu92 N93 1.999 . S
Cu92 O98 1.974 . S
Cu92 N103 1.985 . S
Cu92 O112 1.959 . S
N93 Cu92 1.999 . S
N93 C95 1.263 . S
N93 C97 1.389 . S
N94 C95 1.358 . S
N94 C96 1.400 . S
C95 N93 1.263 . S
C95 N94 1.358 . S
C95 H101 0.930 . S
C96 N94 1.400 . S
C96 C97 1.351 . S
C96 H113 0.930 . S
C97 N93 1.389 . S
C97 C96 1.351 . S
C97 H102 0.930 . S
O98 Cu92 1.974 . S
O98 C108 1.282 . S
C99 O100 1.261 1_455 S
C99 O112 1.251 . S
O100 C99 1.261 1_655 S
H101 C95 0.930 . S
H102 C97 0.930 . S
N103 Cu92 1.985 . S
N103 C105 1.335 . S
N103 C106 1.390 . S
N104 C105 1.345 . S
N104 C107 1.336 . S
C105 N103 1.335 . S
C105 N104 1.345 . S
C105 H110 0.930 . S
C106 N103 1.390 . S
C106 C107 1.346 . S
C106 H111 0.930 . S
C107 N104 1.336 . S
C107 C106 1.346 . S
C107 H114 0.929 . S
C108 O98 1.282 . S
C108 O109 1.216 1_455 S
O109 C108 1.216 1_655 S
H110 C105 0.930 . S
H111 C106 0.930 . S
O112 Cu92 1.959 . S
O112 C99 1.251 . S
H113 C96 0.930 . S
H114 C107 0.929 . S
Cu115 N116 1.999 . S
Cu115 O121 1.974 . S
Cu115 N126 1.985 . S
Cu115 O135 1.959 . S
N116 Cu115 1.999 . S
N116 C118 1.263 . S
N116 C120 1.389 . S
N117 C118 1.358 . S
N117 C119 1.400 . S
C118 N116 1.263 . S
C118 N117 1.358 . S
C118 H124 0.930 . S
C119 N117 1.400 . S
C119 C120 1.351 . S
C119 H136 0.930 . S
C120 N116 1.389 . S
C120 C119 1.351 . S
C120 H125 0.930 . S
O121 Cu115 1.974 . S
O121 C131 1.282 . S
C122 O123 1.261 1_545 S
C122 O135 1.251 . S
O123 C122 1.261 1_565 S
H124 C118 0.930 . S
H125 C120 0.930 . S
N126 Cu115 1.985 . S
N126 C128 1.335 . S
N126 C129 1.390 . S
N127 C128 1.345 . S
N127 C130 1.336 . S
C128 N126 1.335 . S
C128 N127 1.345 . S
C128 H133 0.930 . S
C129 N126 1.390 . S
C129 C130 1.346 . S
C129 H134 0.930 . S
C130 N127 1.336 . S
C130 C129 1.346 . S
C130 H137 0.929 . S
C131 O121 1.282 . S
C131 O132 1.216 1_545 S
O132 C131 1.216 1_565 S
H133 C128 0.930 . S
H134 C129 0.930 . S
O135 Cu115 1.959 . S
O135 C122 1.251 . S
H136 C119 0.930 . S
H137 C130 0.929 . S
C138 C139 1.386 1_655 S
C138 C140 1.383 . S
C138 H154 0.951 . S
C139 C138 1.386 1_455 S
C139 C143 1.383 . S
C140 C138 1.383 . S
C140 C141 1.402 1_655 S
C140 H155 0.950 . S
C141 C140 1.402 1_455 S
C141 C142 1.375 . S
C141 C144 1.481 . S
C142 C141 1.375 . S
C142 C143 1.367 . S
C142 H156 0.951 . S
C143 C139 1.383 . S
C143 C142 1.367 . S
C143 H157 0.950 . S
C144 C141 1.481 . S
C144 C145 1.297 . S
C144 H158 0.950 . S
C145 C144 1.297 . S
C145 C146 1.479 . S
C145 H159 0.950 1_455 S
C146 C145 1.479 . S
C146 C147 1.375 1_455 S
C146 C152 1.404 . S
C147 C146 1.375 1_655 S
C147 C148 1.369 . S
C147 H160 0.950 . S
C148 C147 1.369 . S
C148 C149 1.392 1_655 S
C148 H161 0.951 . S
C149 C148 1.392 1_455 S
C149 C151 1.384 . S
H150 C152 0.949 . S
C151 C149 1.384 . S
C151 C152 1.385 . S
C151 H153 0.950 . S
C152 C146 1.404 . S
C152 H150 0.949 . S
C152 C151 1.385 . S
H153 C151 0.950 . S
H154 C138 0.951 . S
H155 C140 0.950 . S
H156 C142 0.951 . S
H157 C143 0.950 . S
H158 C144 0.950 . S
H159 C145 0.950 1_655 S
H160 C147 0.950 . S
H161 C148 0.951 . S
C162 C163 1.386 . S
C162 C164 1.383 . S
C162 H178 0.951 1_545 S
C163 C162 1.386 . S
C163 C167 1.383 . S
C164 C162 1.383 . S
C164 C165 1.402 . S
C164 H179 0.951 1_545 S
C165 C164 1.402 . S
C165 C166 1.375 . S
C165 C168 1.481 . S
C166 C165 1.375 . S
C166 C167 1.367 . S
C166 H180 0.951 . S
C167 C163 1.383 . S
C167 C166 1.367 . S
C167 H181 0.950 . S
C168 C165 1.481 . S
C168 C169 1.297 . S
C168 H182 0.950 . S
C169 C168 1.297 . S
C169 C170 1.479 . S
C169 H183 0.950 1_545 S
C170 C169 1.479 . S
C170 C171 1.375 1_545 S
C170 C176 1.404 . S
C171 C170 1.375 1_565 S
C171 C172 1.369 . S
C171 H184 0.950 . S
C172 C171 1.369 . S
C172 C173 1.392 1_565 S
C172 H185 0.951 . S
C173 C172 1.392 1_545 S
C173 C175 1.384 . S
H174 C176 0.949 . S
C175 C173 1.384 . S
C175 C176 1.385 . S
C175 H177 0.950 . S
C176 C170 1.404 . S
C176 H174 0.949 . S
C176 C175 1.385 . S
H177 C175 0.950 . S
H178 C162 0.951 1_565 S
H179 C164 0.951 1_565 S
H180 C166 0.951 . S
H181 C167 0.950 . S
H182 C168 0.950 . S
H183 C169 0.950 1_565 S
H184 C171 0.950 . S
H185 C172 0.951 . S
C186 C187 1.386 . S
C186 C188 1.383 . S
C186 H202 0.951 . S
C187 C186 1.386 . S
C187 C191 1.383 . S
C188 C186 1.383 . S
C188 C189 1.402 . S
C188 H203 0.951 . S
C189 C188 1.402 . S
C189 C190 1.375 1_455 S
C189 C192 1.481 . S
C190 C189 1.375 1_655 S
C190 C191 1.367 1_655 S
C190 H204 0.951 . S
C191 C187 1.383 . S
C191 C190 1.367 1_455 S
C191 H205 0.950 1_455 S
C192 C189 1.481 . S
C192 C193 1.297 . S
C192 H206 0.950 1_455 S
C193 C192 1.297 . S
C193 C194 1.479 . S
C193 H207 0.950 . S
C194 C193 1.479 . S
C194 C195 1.375 . S
C194 C200 1.404 1_455 S
C195 C194 1.375 . S
C195 C196 1.369 . S
C195 H208 0.950 . S
C196 C195 1.369 . S
C196 C197 1.392 . S
C196 H209 0.951 . S
C197 C196 1.392 . S
C197 C199 1.384 1_455 S
H198 C200 0.949 . S
C199 C197 1.384 1_655 S
C199 C200 1.385 . S
C199 H201 0.950 . S
C200 C194 1.404 1_655 S
C200 H198 0.949 . S
C200 C199 1.385 . S
H201 C199 0.950 . S
H202 C186 0.951 . S
H203 C188 0.951 . S
H204 C190 0.951 . S
H205 C191 0.950 1_655 S
H206 C192 0.950 1_655 S
H207 C193 0.950 . S
H208 C195 0.950 . S
H209 C196 0.951 . S
C210 C211 1.386 . S
C210 C212 1.383 . S
C210 H226 0.951 . S
C211 C210 1.386 . S
C211 C215 1.383 1_545 S
C212 C210 1.383 . S
C212 C213 1.402 . S
C212 H227 0.951 . S
C213 C212 1.402 . S
C213 C214 1.375 1_545 S
C213 C216 1.481 . S
C214 C213 1.375 1_565 S
C214 C215 1.367 . S
C214 H228 0.951 . S
C215 C211 1.383 1_565 S
C215 C214 1.367 . S
C215 H229 0.950 . S
C216 C213 1.481 . S
C216 C217 1.297 . S
C216 H230 0.950 1_545 S
C217 C216 1.297 . S
C217 C218 1.479 . S
C217 H231 0.950 . S
C218 C217 1.479 . S
C218 C219 1.375 . S
C218 C224 1.404 . S
C219 C218 1.375 . S
C219 C220 1.369 . S
C219 H232 0.950 . S
C220 C219 1.369 . S
C220 C221 1.392 . S
C220 H233 0.951 . S
C221 C220 1.392 . S
C221 C223 1.384 . S
H222 C224 0.949 1_565 S
C223 C221 1.384 . S
C223 C224 1.385 . S
C223 H225 0.950 1_545 S
C224 C218 1.404 . S
C224 H222 0.949 1_545 S
C224 C223 1.385 . S
H225 C223 0.950 1_565 S
H226 C210 0.951 . S
H227 C212 0.951 . S
H228 C214 0.951 . S
H229 C215 0.950 . S
H230 C216 0.950 1_565 S
H231 C217 0.950 . S
H232 C219 0.950 . S
H233 C220 0.951 . S
C234 C235 1.386 . S
C234 C236 1.383 . S
C234 H250 0.951 . S
C235 C234 1.386 . S
C235 C239 1.383 . S
C236 C234 1.383 . S
C236 C237 1.402 . S
C236 H251 0.951 . S
C237 C236 1.402 . S
C237 C238 1.388 . S
C237 C240 1.481 . S
C238 C237 1.388 . S
C238 C239 1.365 . S
C238 H252 0.940 1_545 S
C239 C235 1.383 . S
C239 C238 1.365 . S
C239 H253 0.950 1_545 S
C240 C237 1.481 . S
C240 C241 1.297 . S
C240 H254 0.950 1_545 S
C241 C240 1.297 . S
C241 C242 1.479 . S
C241 H255 0.950 . S
C242 C241 1.479 . S
C242 C243 1.375 . S
C242 C248 1.390 1_545 S
C243 C242 1.375 . S
C243 C244 1.369 . S
C243 H256 0.950 . S
C244 C243 1.369 . S
C244 C245 1.392 . S
C244 H257 0.951 . S
C245 C244 1.392 . S
C245 C247 1.384 1_545 S
H246 C248 0.970 . S
C247 C245 1.384 1_565 S
C247 C248 1.378 . S
C247 H249 0.950 . S
C248 C242 1.390 1_565 S
C248 H246 0.970 . S
C248 C247 1.378 . S
H249 C247 0.950 . S
H250 C234 0.951 . S
H251 C236 0.951 . S
H252 C238 0.940 1_565 S
H253 C239 0.950 1_565 S
H254 C240 0.950 1_565 S
H255 C241 0.950 . S
H256 C243 0.950 . S
H257 C244 0.951 . S
C258 C259 1.386 . S
C258 C260 1.383 . S
C258 H274 0.951 . S
C259 C258 1.386 . S
C259 C263 1.383 1_455 S
C260 C258 1.383 . S
C260 C261 1.402 . S
C260 H275 0.951 . S
C261 C260 1.402 . S
C261 C262 1.375 1_455 S
C261 C264 1.481 . S
C262 C261 1.375 1_655 S
C262 C263 1.367 . S
C262 H276 0.951 . S
C263 C259 1.383 1_655 S
C263 C262 1.367 . S
C263 H277 0.950 . S
C264 C261 1.481 . S
C264 C265 1.297 . S
C264 H278 0.950 1_455 S
C265 C264 1.297 . S
C265 C266 1.479 . S
C265 H279 0.950 . S
C266 C265 1.479 . S
C266 C267 1.375 . S
C266 C272 1.404 1_455 S
C267 C266 1.375 . S
C267 C268 1.369 . S
C267 H280 0.950 . S
C268 C267 1.369 . S
C268 C269 1.392 . S
C268 H281 0.951 . S
C269 C268 1.392 . S
C269 C271 1.384 1_455 S
H270 C272 0.949 . S
C271 C269 1.384 1_655 S
C271 C272 1.385 . S
C271 H273 0.950 . S
C272 C266 1.404 1_655 S
C272 H270 0.949 . S
C272 C271 1.385 . S
H273 C271 0.950 . S
H274 C258 0.951 . S
H275 C260 0.951 . S
H276 C262 0.951 . S
H277 C263 0.950 . S
H278 C264 0.950 1_655 S
H279 C265 0.950 . S
H280 C267 0.950 . S
H281 C268 0.951 . S
C282 C283 1.386 . S
C282 C284 1.383 . S
C282 H298 0.951 . S
C283 C282 1.386 . S
C283 C287 1.383 . S
C284 C282 1.383 . S
C284 C285 1.402 . S
C284 H299 0.951 . S
C285 C284 1.402 . S
C285 C286 1.375 . S
C285 C288 1.481 . S
C286 C285 1.375 . S
C286 C287 1.367 . S
C286 H300 0.951 1_545 S
C287 C283 1.383 . S
C287 C286 1.367 . S
C287 H301 0.950 1_545 S
C288 C285 1.481 . S
C288 C289 1.297 . S
C288 H302 0.950 1_545 S
C289 C288 1.297 . S
C289 C290 1.479 . S
C289 H303 0.950 . S
C290 C289 1.479 . S
C290 C291 1.375 . S
C290 C296 1.388 1_545 S
C291 C290 1.375 . S
C291 C292 1.369 . S
C291 H304 0.950 . S
C292 C291 1.369 . S
C292 C293 1.392 . S
C292 H305 0.951 . S
C293 C292 1.392 . S
C293 C295 1.369 1_545 S
H294 C296 0.960 . S
C295 C293 1.369 1_565 S
C295 C296 1.383 . S
C295 H297 0.972 . S
C296 C290 1.388 1_565 S
C296 H294 0.960 . S
C296 C295 1.383 . S
H297 C295 0.972 . S
H298 C282 0.951 . S
H299 C284 0.951 . S
H300 C286 0.951 1_565 S
H301 C287 0.950 1_565 S
H302 C288 0.950 1_565 S
H303 C289 0.950 . S
H304 C291 0.950 . S
H305 C292 0.951 . S
C306 C307 1.386 1_655 S
C306 C308 1.383 . S
C306 H322 0.951 . S
C307 C306 1.386 1_455 S
C307 C311 1.383 . S
C308 C306 1.383 . S
C308 C309 1.402 1_655 S
C308 H323 0.951 . S
C309 C308 1.402 1_455 S
C309 C310 1.375 . S
C309 C312 1.481 . S
C310 C309 1.375 . S
C310 C311 1.367 . S
C310 H324 0.951 . S
C311 C307 1.383 . S
C311 C310 1.367 . S
C311 H325 0.950 . S
C312 C309 1.481 . S
C312 C313 1.297 . S
C312 H326 0.950 . S
C313 C312 1.297 . S
C313 C314 1.479 . S
C313 H327 0.950 1_455 S
C314 C313 1.479 . S
C314 C315 1.375 1_455 S
C314 C320 1.404 . S
C315 C314 1.375 1_655 S
C315 C316 1.369 . S
C315 H328 0.950 . S
C316 C315 1.369 . S
C316 C317 1.392 1_655 S
C316 H329 0.951 . S
C317 C316 1.392 1_455 S
C317 C319 1.384 . S
H318 C320 0.949 . S
C319 C317 1.384 . S
C319 C320 1.385 . S
C319 H321 0.950 . S
C320 C314 1.404 . S
C320 H318 0.949 . S
C320 C319 1.385 . S
H321 C319 0.950 . S
H322 C306 0.951 . S
H323 C308 0.951 . S
H324 C310 0.951 . S
H325 C311 0.950 . S
H326 C312 0.950 . S
H327 C313 0.950 1_655 S
H328 C315 0.950 . S
H329 C316 0.951 . S
C330 C331 1.386 . S
C330 C332 1.383 . S
C330 H346 0.951 . S
C331 C330 1.386 . S
C331 C335 1.383 . S
C332 C330 1.383 . S
C332 C333 1.402 . S
C332 H347 0.951 . S
C333 C332 1.402 . S
C333 C334 1.375 . S
C333 C336 1.481 . S
C334 C333 1.375 . S
C334 C335 1.367 . S
C334 H348 0.951 . S
C335 C331 1.383 . S
C335 C334 1.367 . S
C335 H349 0.950 . S
C336 C333 1.481 . S
C336 C337 1.297 . S
C336 H350 0.950 . S
C337 C336 1.297 . S
C337 C338 1.479 . S
C337 H351 0.950 . S
C338 C337 1.479 . S
C338 C339 1.375 . S
C338 C344 1.404 . S
C339 C338 1.375 . S
C339 C340 1.369 . S
C339 H352 0.950 . S
C340 C339 1.369 . S
C340 C341 1.392 . S
C340 H353 0.951 . S
C341 C340 1.392 . S
C341 C343 1.384 . S
H342 C344 0.949 . S
C343 C341 1.384 . S
C343 C344 1.385 . S
C343 H345 0.950 . S
C344 C338 1.404 . S
C344 H342 0.949 . S
C344 C343 1.385 . S
H345 C343 0.950 . S
H346 C330 0.951 . S
H347 C332 0.951 . S
H348 C334 0.951 . S
H349 C335 0.950 . S
H350 C336 0.950 . S
H351 C337 0.950 . S
H352 C339 0.950 . S
H353 C340 0.951 . S
C354 C355 1.380 1_556 S
C354 C356 1.383 . S
C354 H370 0.951 . S
C355 C354 1.380 1_554 S
C355 C359 1.393 . S
C356 C354 1.383 . S
C356 C357 1.402 1_556 S
C356 H371 0.951 . S
C357 C356 1.402 1_554 S
C357 C358 1.375 . S
C357 C360 1.481 . S
C358 C357 1.375 . S
C358 C359 1.367 . S
C358 H372 0.951 . S
C359 C355 1.393 . S
C359 C358 1.367 . S
C359 H373 0.950 . S
C360 C357 1.481 . S
C360 C361 1.297 1_554 S
C360 H374 0.950 . S
C361 C360 1.297 1_556 S
C361 C362 1.479 1_556 S
C361 H375 0.950 . S
C362 C361 1.479 1_554 S
C362 C363 1.375 1_554 S
C362 C368 1.404 . S
C363 C362 1.375 1_556 S
C363 C364 1.369 . S
C363 H376 0.950 . S
C364 C363 1.369 . S
C364 C365 1.392 1_556 S
C364 H377 0.951 . S
C365 C364 1.392 1_554 S
C365 C367 1.384 . S
H366 C368 0.949 . S
C367 C365 1.384 . S
C367 C368 1.385 . S
C367 H369 0.950 . S
C368 C362 1.404 . S
C368 H366 0.949 . S
C368 C367 1.385 . S
H369 C367 0.950 . S
H370 C354 0.951 . S
H371 C356 0.951 . S
H372 C358 0.951 . S
H373 C359 0.950 . S
H374 C360 0.950 . S
H375 C361 0.950 . S
H376 C363 0.950 . S
H377 C364 0.951 . S
C378 C379 1.386 1_556 S
C378 C380 1.383 . S
C378 H394 0.951 . S
C379 C378 1.386 1_554 S
C379 C383 1.383 . S
C380 C378 1.383 . S
C380 C381 1.402 1_556 S
C380 H395 0.951 . S
C381 C380 1.402 1_554 S
C381 C382 1.375 . S
C381 C384 1.481 . S
C382 C381 1.375 . S
C382 C383 1.367 . S
C382 H396 0.951 . S
C383 C379 1.383 . S
C383 C382 1.367 . S
C383 H397 0.950 . S
C384 C381 1.481 . S
C384 C385 1.297 1_554 S
C384 H398 0.950 . S
C385 C384 1.297 1_556 S
C385 C386 1.479 1_556 S
C385 H399 0.950 . S
C386 C385 1.479 1_554 S
C386 C387 1.375 1_554 S
C386 C392 1.404 . S
C387 C386 1.375 1_556 S
C387 C388 1.369 . S
C387 H400 0.950 . S
C388 C387 1.369 . S
C388 C389 1.392 1_556 S
C388 H401 0.951 . S
C389 C388 1.392 1_554 S
C389 C391 1.384 . S
H390 C392 0.949 . S
C391 C389 1.384 . S
C391 C392 1.385 . S
C391 H393 0.950 . S
C392 C386 1.404 . S
C392 H390 0.949 . S
C392 C391 1.385 . S
H393 C391 0.950 . S
H394 C378 0.951 . S
H395 C380 0.951 . S
H396 C382 0.951 . S
H397 C383 0.950 . S
H398 C384 0.950 . S
H399 C385 0.950 . S
H400 C387 0.950 . S
H401 C388 0.951 . S
C402 C403 1.386 1_556 S
C402 C404 1.383 . S
C402 H418 0.951 . S
C403 C402 1.386 1_554 S
C403 C407 1.383 . S
C404 C402 1.383 . S
C404 C405 1.402 1_556 S
C404 H419 0.951 . S
C405 C404 1.402 1_554 S
C405 C406 1.375 . S
C405 C408 1.481 . S
C406 C405 1.375 . S
C406 C407 1.367 . S
C406 H420 0.951 . S
C407 C403 1.383 . S
C407 C406 1.367 . S
C407 H421 0.950 . S
C408 C405 1.481 . S
C408 C409 1.297 . S
C408 H422 0.950 . S
C409 C408 1.297 . S
C409 C410 1.479 . S
C409 H423 0.950 1_554 S
C410 C409 1.479 . S
C410 C411 1.375 1_554 S
C410 C416 1.404 . S
C411 C410 1.375 1_556 S
C411 C412 1.369 . S
C411 H424 0.950 . S
C412 C411 1.369 . S
C412 C413 1.392 1_556 S
C412 H425 0.951 . S
C413 C412 1.392 1_554 S
C413 C415 1.384 . S
H414 C416 0.949 . S
C415 C413 1.384 . S
C415 C416 1.385 . S
C415 H417 0.950 . S
C416 C410 1.404 . S
C416 H414 0.949 . S
C416 C415 1.385 . S
H417 C415 0.950 . S
H418 C402 0.951 . S
H419 C404 0.951 . S
H420 C406 0.951 . S
H421 C407 0.950 . S
H422 C408 0.950 . S
H423 C409 0.950 1_556 S
H424 C411 0.950 . S
H425 C412 0.951 . S
C139 N2 1.495 . S
C149 N94 1.515 . S
C163 C16 1.444 . S
C173 C131 1.430 . S
C187 N104 1.439 . S
C197 N12 1.448 . S
C211 C122 1.512 . S
C221 C7 1.500 . S
C235 N117 1.475 . S
C245 C39 1.494 . S
C259 N58 1.484 . S
C269 C99 1.490 . S
C283 N127 1.452 . S
C293 C30 1.491 . S
C307 C108 1.493 . S
C317 N48 1.462 . S
C331 C62 1.445 . S
C341 C85 1.432 . S
C355 N81 1.453 . S
C365 N35 1.476 . S
C379 C53 1.516 . S
C389 C76 1.505 . S
C403 N71 1.509 1_554 S
C413 N25 1.514 . S
