# Generated by pormake.
# Topology rac, (4)-cn, num edge types: 1
# Building blocks:
#     Node 0, Type 0, BuildingBlock: AZAVOO_clean_sbu_0, # of connection points: 4
#     Node 1, Type 0, BuildingBlock: AZAVOO_clean_sbu_0, # of connection points: 4
#     Node 2, Type 0, BuildingBlock: AZAVOO_clean_sbu_0, # of connection points: 4
#     Node 3, Type 0, BuildingBlock: AZAVOO_clean_sbu_0, # of connection points: 4
#     Node 4, Type 0, BuildingBlock: AZAVOO_clean_sbu_0, # of connection points: 4
#     Node 5, Type 0, BuildingBlock: AZAVOO_clean_sbu_0, # of connection points: 4
#     Node 6, Type 0, BuildingBlock: AZAVOO_clean_sbu_0, # of connection points: 4
#     Node 7, Type 0, BuildingBlock: AZAVOO_clean_sbu_0, # of connection points: 4
#     Edge 8, Type (0, 0), BuildingBlock: MIFKUJ_clean_linker_0, # of connection points: 2
#     Edge 9, Type (0, 0), BuildingBlock: MIFKUJ_clean_linker_0, # of connection points: 2
#     Edge 10, Type (0, 0), BuildingBlock: MIFKUJ_clean_linker_0, # of connection points: 2
#     Edge 11, Type (0, 0), BuildingBlock: MIFKUJ_clean_linker_0, # of connection points: 2
#     Edge 12, Type (0, 0), BuildingBlock: MIFKUJ_clean_linker_0, # of connection points: 2
#     Edge 13, Type (0, 0), BuildingBlock: MIFKUJ_clean_linker_0, # of connection points: 2
#     Edge 14, Type (0, 0), BuildingBlock: MIFKUJ_clean_linker_0, # of connection points: 2
#     Edge 15, Type (0, 0), BuildingBlock: MIFKUJ_clean_linker_0, # of connection points: 2
#     Edge 16, Type (0, 0), BuildingBlock: MIFKUJ_clean_linker_0, # of connection points: 2
#     Edge 17, Type (0, 0), BuildingBlock: MIFKUJ_clean_linker_0, # of connection points: 2
#     Edge 18, Type (0, 0), BuildingBlock: MIFKUJ_clean_linker_0, # of connection points: 2
#     Edge 19, Type (0, 0), BuildingBlock: MIFKUJ_clean_linker_0, # of connection points: 2
#     Edge 20, Type (0, 0), BuildingBlock: MIFKUJ_clean_linker_0, # of connection points: 2
#     Edge 21, Type (0, 0), BuildingBlock: MIFKUJ_clean_linker_0, # of connection points: 2
#     Edge 22, Type (0, 0), BuildingBlock: MIFKUJ_clean_linker_0, # of connection points: 2
#     Edge 23, Type (0, 0), BuildingBlock: MIFKUJ_clean_linker_0, # of connection points: 2
# Relax obj value: 0.244
# Max RMSD: 0.131
# Mean RMSD: 0.131
data_MOF--net-rac--node1-AZAVOO_clean_sbu_0--edge1-MIFKUJ_clean_linker_0
_symmetry_space_group_name_H-M    P1
_symmetry_Int_Tables_number       1
_symmetry_cell_setting            triclinic
loop_
_symmetry_equiv_pos_as_xyz
'x, y, z'
_cell_length_a     49.692864
_cell_length_b     25.362018
_cell_length_c     58.888099
_cell_angle_alpha  90.008943
_cell_angle_beta   90.022976
_cell_angle_gamma 90.028741
loop_
_atom_site_label
_atom_site_type_symbol
_atom_site_fract_x
_atom_site_fract_y
_atom_site_fract_z
_atom_type_partial_charge
Mg0 Mg 0.39531 0.19474 0.07649 0.0
O1 O 0.35749 0.24541 0.08077 0.0
O2 O 0.32336 0.19575 0.0931 0.0
Mg3 Mg 0.34091 0.11353 0.09964 0.0
C4 C 0.33288 0.23995 0.08651 0.0
C5 C 0.41155 0.29917 0.05394 0.0
O6 O 0.3888 0.28782 0.04366 0.0
O7 O 0.40236 0.19905 0.11484 0.0
O8 O 0.36852 0.14853 0.1272 0.0
O9 O 0.38095 0.17106 0.04201 0.0
O10 O 0.37168 0.1274 0.07356 0.0
C11 C 0.38913 0.17746 0.13097 0.0
C12 C 0.36806 0.1334 0.05207 0.0
O13 O 0.41994 0.26879 0.06959 0.0
Mg14 Mg 0.11559 0.77848 0.07533 0.0
O15 O 0.14881 0.71487 0.07669 0.0
O16 O 0.1861 0.75261 0.09045 0.0
Mg17 Mg 0.17693 0.83888 0.09839 0.0
C18 C 0.17355 0.71258 0.08263 0.0
C19 C 0.06935 0.72221 0.05087 0.0
O20 O 0.07158 0.76647 0.03942 0.0
O21 O 0.10998 0.77155 0.11393 0.0
O22 O 0.14765 0.81106 0.12587 0.0
O23 O 0.12945 0.80363 0.04063 0.0
O24 O 0.14499 0.83636 0.07286 0.0
C25 C 0.12529 0.78797 0.12989 0.0
C26 C 0.14648 0.83358 0.05109 0.0
O27 O 0.08442 0.71498 0.06803 0.0
Mg28 Mg 0.39457 0.2992 0.41924 0.0
O29 O 0.3587 0.24243 0.41722 0.0
O30 O 0.32359 0.28411 0.40188 0.0
Mg31 Mg 0.33785 0.36726 0.39235 0.0
C32 C 0.33422 0.24309 0.41068 0.0
C33 C 0.41409 0.2045 0.44709 0.0
O34 O 0.39127 0.21671 0.45704 0.0
O35 O 0.40226 0.28636 0.38116 0.0
O36 O 0.36731 0.3309 0.36686 0.0
O37 O 0.37868 0.33072 0.45232 0.0
O38 O 0.36899 0.3639 0.41862 0.0
C39 C 0.38872 0.30365 0.36423 0.0
C40 C 0.36524 0.36411 0.4402 0.0
O41 O 0.42146 0.23073 0.42977 0.0
Mg42 Mg 0.10704 0.72863 0.42104 0.0
O43 O 0.14493 0.78039 0.41973 0.0
O44 O 0.17975 0.73269 0.4074 0.0
Mg45 Mg 0.16269 0.65194 0.39752 0.0
C46 C 0.16984 0.77584 0.41479 0.0
C47 C 0.06298 0.79452 0.44311 0.0
O48 O 0.05777 0.74656 0.45032 0.0
O49 O 0.10174 0.73934 0.38273 0.0
O50 O 0.13708 0.69293 0.3702 0.0
O51 O 0.11997 0.69879 0.45512 0.0
O52 O 0.13011 0.66061 0.42239 0.0
C53 C 0.11646 0.7219 0.3666 0.0
C54 C 0.13257 0.66222 0.44411 0.0
O55 O 0.08235 0.80132 0.42935 0.0
Mg56 Mg 0.60253 0.78376 0.925 0.0
O57 O 0.63983 0.73082 0.92281 0.0
O58 O 0.6721 0.77429 0.9042 0.0
Mg59 Mg 0.65592 0.85719 0.89607 0.0
C60 C 0.66348 0.73318 0.91442 0.0
C61 C 0.58492 0.68763 0.95345 0.0
O62 O 0.60747 0.70107 0.96357 0.0
O63 O 0.59414 0.76921 0.88713 0.0
O64 O 0.62536 0.8214 0.87129 0.0
O65 O 0.61791 0.81819 0.95764 0.0
O66 O 0.62645 0.85062 0.9236 0.0
C67 C 0.60507 0.79061 0.86976 0.0
C68 C 0.63042 0.85231 0.94516 0.0
O69 O 0.57732 0.71341 0.93608 0.0
Mg70 Mg 0.89006 0.21766 0.92321 0.0
O71 O 0.85335 0.27114 0.91862 0.0
O72 O 0.82075 0.22543 0.90149 0.0
Mg73 Mg 0.837 0.14181 0.89496 0.0
C74 C 0.82963 0.26794 0.91041 0.0
C75 C 0.92768 0.28478 0.95199 0.0
O76 O 0.92646 0.23988 0.96307 0.0
O77 O 0.9001 0.22658 0.88537 0.0
O78 O 0.86868 0.17378 0.87017 0.0
O79 O 0.87291 0.18844 0.95619 0.0
O80 O 0.86575 0.15111 0.92287 0.0
C81 C 0.88939 0.20336 0.86834 0.0
C82 C 0.86078 0.15276 0.94426 0.0
O83 O 0.91497 0.28911 0.93335 0.0
Mg84 Mg 0.60379 0.72567 0.57935 0.0
O85 O 0.64175 0.77576 0.58413 0.0
O86 O 0.67351 0.72674 0.60068 0.0
Mg87 Mg 0.656 0.64344 0.60532 0.0
C88 C 0.66539 0.77034 0.59226 0.0
C89 C 0.58812 0.828 0.55466 0.0
O90 O 0.61081 0.81538 0.5446 0.0
O91 O 0.59486 0.73161 0.61759 0.0
O92 O 0.6256 0.67515 0.63115 0.0
O93 O 0.61956 0.6988 0.54558 0.0
O94 O 0.62686 0.65772 0.57808 0.0
C95 C 0.60554 0.70596 0.63398 0.0
C96 C 0.63144 0.66142 0.55667 0.0
O97 O 0.5797 0.79945 0.57093 0.0
Mg98 Mg 0.88991 0.29138 0.58051 0.0
O99 O 0.85342 0.237 0.58495 0.0
O100 O 0.8224 0.27967 0.60533 0.0
Mg101 Mg 0.83814 0.36361 0.61181 0.0
C102 C 0.83058 0.23859 0.59485 0.0
C103 C 0.93254 0.22974 0.55382 0.0
O104 O 0.93669 0.2783 0.54688 0.0
O105 O 0.90121 0.27843 0.61785 0.0
O106 O 0.87078 0.32977 0.63512 0.0
O107 O 0.8722 0.324 0.54846 0.0
O108 O 0.86541 0.35733 0.58261 0.0
C109 C 0.89144 0.29981 0.6357 0.0
C110 C 0.86016 0.35821 0.56122 0.0
O111 O 0.9146 0.2213 0.56874 0.0
H112 H 0.35122 0.03532 0.063 0.0
H113 H 0.31407 0.9859 0.04629 0.0
H114 H 0.30037 0.11149 0.99826 0.0
H115 H 0.33823 0.16108 0.01477 0.0
H116 H 0.2544 0.08052 0.02422 0.0
H117 H 0.31793 0.00185 0.97569 0.0
H118 H 0.36096 0.96127 0.96444 0.0
H119 H 0.3456 0.83026 0.00875 0.0
H120 H 0.30268 0.87038 0.02057 0.0
H121 H 0.14383 0.89878 0.01422 0.0
H122 H 0.1811 0.95114 0.99816 0.0
H123 H 0.23614 0.87716 0.04505 0.0
H124 H 0.19932 0.82581 0.06096 0.0
H125 H 0.25859 0.89192 0.0021 0.0
H126 H 0.20644 0.9894 0.05963 0.0
H127 H 0.16475 0.03052 0.07387 0.0
H128 H 0.16006 0.12619 0.01383 0.0
H129 H 0.20161 0.08505 0.99913 0.0
C130 C 0.34062 0.05203 0.04862 0.0
C131 C 0.34752 0.10194 0.04018 0.0
C132 C 0.31952 0.02365 0.03899 0.0
C133 C 0.30468 0.04486 0.0209 0.0
C134 C 0.31181 0.09432 0.01207 0.0
C135 C 0.33338 0.12245 0.02147 0.0
C136 C 0.28011 0.017 0.01334 0.0
C137 C 0.25517 0.03987 0.0185 0.0
C138 C 0.28122 0.96392 0.00607 0.0
C139 C 0.30702 0.93923 0.99902 0.0
C140 C 0.32378 0.96453 0.98315 0.0
C141 C 0.34816 0.94158 0.97666 0.0
C142 C 0.35601 0.89321 0.98587 0.0
C143 C 0.33948 0.86768 0.00159 0.0
C144 C 0.31507 0.89047 0.00816 0.0
C145 C 0.16405 0.89322 0.02067 0.0
C146 C 0.1688 0.85916 0.03904 0.0
C147 C 0.18522 0.92299 0.01154 0.0
C148 C 0.21132 0.9181 0.02051 0.0
C149 C 0.21619 0.88143 0.03784 0.0
C150 C 0.19509 0.85255 0.04713 0.0
C151 C 0.23326 0.95471 0.0142 0.0
C152 C 0.25768 0.93338 0.00656 0.0
C153 C 0.23175 0.00911 0.01935 0.0
C154 C 0.20682 0.03366 0.02814 0.0
C155 C 0.19637 0.01888 0.04939 0.0
C156 C 0.17281 0.04223 0.05756 0.0
C157 C 0.1597 0.0808 0.04472 0.0
C158 C 0.17018 0.09619 0.02372 0.0
C159 C 0.19372 0.07286 0.01545 0.0
H160 H 0.14147 0.09888 0.05108 0.0
H161 H 0.3749 0.87552 0.98082 0.0
H162 H 0.13325 0.55638 0.44173 0.0
H163 H 0.17026 0.49816 0.45249 0.0
H164 H 0.21368 0.63154 0.47971 0.0
H165 H 0.17574 0.68923 0.47009 0.0
H166 H 0.21454 0.50509 0.43237 0.0
H167 H 0.26594 0.59156 0.51322 0.0
H168 H 0.2528 0.6297 0.55011 0.0
H169 H 0.1773 0.54761 0.54711 0.0
H170 H 0.19012 0.50838 0.51038 0.0
H171 H 0.34894 0.45893 0.42483 0.0
H172 H 0.30844 0.507 0.43561 0.0
H173 H 0.29147 0.39092 0.4872 0.0
H174 H 0.33281 0.34316 0.47684 0.0
H175 H 0.27496 0.49591 0.49936 0.0
H176 H 0.26206 0.37109 0.4387 0.0
H177 H 0.27322 0.32734 0.40253 0.0
H178 H 0.26724 0.47524 0.36749 0.0
H179 H 0.2559 0.51993 0.40347 0.0
C180 C 0.15029 0.5727 0.45082 0.0
C181 C 0.15181 0.62688 0.45521 0.0
C182 C 0.17145 0.53957 0.4569 0.0
C183 C 0.1949 0.56036 0.46681 0.0
C184 C 0.19569 0.61426 0.47247 0.0
C185 C 0.17409 0.64727 0.46691 0.0
C186 C 0.21974 0.52783 0.46743 0.0
C187 C 0.22743 0.50273 0.44721 0.0
C188 C 0.23672 0.52433 0.48672 0.0
C189 C 0.22894 0.54736 0.50893 0.0
C190 C 0.24659 0.58143 0.52048 0.0
C191 C 0.23918 0.60329 0.54136 0.0
C192 C 0.2142 0.5912 0.55092 0.0
C193 C 0.1966 0.5571 0.53965 0.0
C194 C 0.20391 0.53512 0.51877 0.0
C195 C 0.33694 0.44432 0.43884 0.0
C196 C 0.34372 0.39709 0.44983 0.0
C197 C 0.31386 0.47183 0.44501 0.0
C198 C 0.29675 0.45192 0.46189 0.0
C199 C 0.30445 0.40682 0.47411 0.0
C200 C 0.32797 0.37958 0.46816 0.0
C201 C 0.26944 0.47448 0.4643 0.0
C202 C 0.26154 0.49782 0.48485 0.0
C203 C 0.25177 0.4756 0.4455 0.0
C204 C 0.2583 0.44885 0.42378 0.0
C205 C 0.26324 0.3943 0.42329 0.0
C206 C 0.26958 0.36933 0.40283 0.0
C207 C 0.27111 0.39849 0.38275 0.0
C208 C 0.26609 0.45269 0.38306 0.0
C209 C 0.25959 0.47784 0.40347 0.0
H210 H 0.27612 0.37906 0.36694 0.0
H211 H 0.20851 0.60818 0.56708 0.0
H212 H 0.65014 0.94048 0.92533 0.0
H213 H 0.6879 0.99421 0.93787 0.0
H214 H 0.69456 0.90071 0.99882 0.0
H215 H 0.65653 0.84609 0.98618 0.0
H216 H 0.70177 0.05517 0.97393 0.0
H217 H 0.76307 0.87895 0.00555 0.0
H218 H 0.7638 0.78188 0.00212 0.0
H219 H 0.72869 0.7926 0.93563 0.0
H220 H 0.7282 0.88965 0.93854 0.0
H221 H 0.83352 0.16437 0.98457 0.0
H222 H 0.79475 0.11222 0.99755 0.0
H223 H 0.80203 0.01256 0.93846 0.0
H224 H 0.84061 0.06349 0.92573 0.0
H225 H 0.78764 0.95534 0.97458 0.0
H226 H 0.76138 0.11973 0.93782 0.0
H227 H 0.76109 0.21665 0.93441 0.0
H228 H 0.72589 0.22965 0.00076 0.0
H229 H 0.72636 0.13267 0.00468 0.0
C230 C 0.65937 0.93171 0.94156 0.0
C231 C 0.65073 0.88858 0.95461 0.0
C232 C 0.68078 0.96285 0.94883 0.0
C233 C 0.69412 0.95126 0.9692 0.0
C234 C 0.68454 0.91014 0.983 0.0
C235 C 0.66289 0.879 0.97576 0.0
C236 C 0.71996 0.97807 0.97403 0.0
C237 C 0.72054 0.03339 0.97467 0.0
C238 C 0.74445 0.94962 0.97458 0.0
C239 C 0.74525 0.8914 0.97243 0.0
C240 C 0.7556 0.86052 0.99019 0.0
C241 C 0.75598 0.80555 0.98832 0.0
C242 C 0.7462 0.78109 0.96871 0.0
C243 C 0.73618 0.81157 0.95084 0.0
C244 C 0.73585 0.86654 0.95259 0.0
C245 C 0.8271 0.13069 0.97464 0.0
C246 C 0.83975 0.11846 0.95396 0.0
C247 C 0.805 0.101 0.98205 0.0
C248 C 0.7954 0.0588 0.96886 0.0
C249 C 0.80911 0.04482 0.94895 0.0
C250 C 0.83101 0.07436 0.94156 0.0
C251 C 0.76948 0.03248 0.97393 0.0
C252 C 0.76888 0.9772 0.97504 0.0
C253 C 0.74499 0.06097 0.97415 0.0
C254 C 0.74422 0.1191 0.97166 0.0
C255 C 0.75372 0.1433 0.95173 0.0
C256 C 0.75352 0.19822 0.9497 0.0
C257 C 0.74357 0.22933 0.96738 0.0
C258 C 0.73367 0.20552 0.9871 0.0
C259 C 0.7339 0.15058 0.98924 0.0
H260 H 0.74346 0.27186 0.96579 0.0
H261 H 0.74644 0.73853 0.96732 0.0
H262 H 0.64705 0.56484 0.57066 0.0
H263 H 0.6862 0.51507 0.55811 0.0
H264 H 0.70246 0.63259 0.50694 0.0
H265 H 0.66288 0.68291 0.51951 0.0
H266 H 0.7058 0.47046 0.51906 0.0
H267 H 0.77091 0.65437 0.51088 0.0
H268 H 0.77078 0.74805 0.52243 0.0
H269 H 0.72596 0.70876 0.58242 0.0
H270 H 0.72605 0.61494 0.57131 0.0
H271 H 0.83807 0.36013 0.51842 0.0
H272 H 0.80135 0.41687 0.505 0.0
H273 H 0.79894 0.4937 0.57037 0.0
H274 H 0.83589 0.43901 0.58347 0.0
H275 H 0.79051 0.56376 0.53856 0.0
H276 H 0.75747 0.38715 0.55668 0.0
H277 H 0.75563 0.29058 0.55177 0.0
H278 H 0.73375 0.31056 0.48173 0.0
H279 H 0.73579 0.40731 0.4862 0.0
C280 C 0.65863 0.57957 0.55641 0.0
C281 C 0.65221 0.62795 0.54621 0.0
C282 C 0.68085 0.55086 0.54913 0.0
C283 C 0.69728 0.5703 0.53169 0.0
C284 C 0.68999 0.61703 0.52045 0.0
C285 C 0.66744 0.64564 0.52761 0.0
C286 C 0.72371 0.54501 0.52791 0.0
C287 C 0.72445 0.49104 0.52273 0.0
C288 C 0.74793 0.57179 0.53306 0.0
C289 C 0.74821 0.62789 0.54009 0.0
C290 C 0.76108 0.66581 0.52654 0.0
C291 C 0.76099 0.71889 0.53301 0.0
C292 C 0.74823 0.73439 0.55308 0.0
C293 C 0.73568 0.69677 0.56681 0.0
C294 C 0.73574 0.64367 0.56043 0.0
C295 C 0.82988 0.38962 0.52979 0.0
C296 C 0.83948 0.39438 0.55217 0.0
C297 C 0.80893 0.42196 0.5221 0.0
C298 C 0.79719 0.45916 0.53676 0.0
C299 C 0.80767 0.4654 0.55872 0.0
C300 C 0.82861 0.43352 0.56631 0.0
C301 C 0.77254 0.48865 0.53045 0.0
C302 C 0.77213 0.54351 0.53375 0.0
C303 C 0.74846 0.46231 0.52434 0.0
C304 C 0.74713 0.4043 0.52169 0.0
C305 C 0.75244 0.37088 0.5402 0.0
C306 C 0.75134 0.31615 0.53751 0.0
C307 C 0.74467 0.29444 0.51643 0.0
C308 C 0.73899 0.32743 0.49803 0.0
C309 C 0.74012 0.38219 0.50063 0.0
H310 H 0.74382 0.25207 0.51437 0.0
H311 H 0.74813 0.77549 0.55805 0.0
H312 H 0.36234 0.14677 0.16914 0.0
H313 H 0.37346 0.16584 0.20842 0.0
H314 H 0.44546 0.24692 0.18701 0.0
H315 H 0.43402 0.22913 0.14722 0.0
H316 H 0.41236 0.14264 0.23639 0.0
H317 H 0.45659 0.34918 0.22408 0.0
H318 H 0.45593 0.42236 0.19643 0.0
H319 H 0.37684 0.37632 0.17467 0.0
H320 H 0.37695 0.3033 0.20236 0.0
H321 H 0.43109 0.24167 0.34966 0.0
H322 H 0.44284 0.2198 0.31024 0.0
H323 H 0.37713 0.31618 0.2864 0.0
H324 H 0.3657 0.33886 0.32515 0.0
H325 H 0.41908 0.32997 0.25992 0.0
H326 H 0.37131 0.18114 0.29326 0.0
H327 H 0.3655 0.10982 0.3213 0.0
H328 H 0.44093 0.04206 0.30098 0.0
H329 H 0.44736 0.11357 0.27304 0.0
C330 C 0.38066 0.16844 0.17265 0.0
C331 C 0.39715 0.18684 0.15492 0.0
C332 C 0.38709 0.17903 0.19523 0.0
C333 C 0.41021 0.20807 0.20074 0.0
C334 C 0.42733 0.22496 0.18317 0.0
C335 C 0.42076 0.21475 0.16044 0.0
C336 C 0.41498 0.22312 0.22481 0.0
C337 C 0.41425 0.18357 0.24151 0.0
C338 C 0.41738 0.27647 0.23159 0.0
C339 C 0.41697 0.32045 0.21504 0.0
C340 C 0.43907 0.35478 0.2134 0.0
C341 C 0.43878 0.3962 0.19773 0.0
C342 C 0.4164 0.40384 0.18373 0.0
C343 C 0.39421 0.37023 0.18545 0.0
C344 C 0.39438 0.3288 0.20111 0.0
C345 C 0.41934 0.25855 0.33598 0.0
C346 C 0.39731 0.29168 0.34065 0.0
C347 C 0.42607 0.24599 0.31348 0.0
C348 C 0.41078 0.26616 0.29535 0.0
C349 C 0.38935 0.30038 0.30004 0.0
C350 C 0.3827 0.31298 0.32234 0.0
C351 C 0.41544 0.24966 0.27147 0.0
C352 C 0.41809 0.28891 0.25479 0.0
C353 C 0.41396 0.19619 0.26472 0.0
C354 C 0.40998 0.15299 0.28131 0.0
C355 C 0.38673 0.1512 0.29489 0.0
C356 C 0.38331 0.11073 0.31075 0.0
C357 C 0.40288 0.0715 0.31297 0.0
C358 C 0.42584 0.07256 0.29928 0.0
C359 C 0.42938 0.11305 0.28344 0.0
H360 H 0.40023 0.04022 0.32527 0.0
H361 H 0.41623 0.4359 0.1716 0.0
H362 H 0.06694 0.74026 0.34728 0.0
H363 H 0.05748 0.75782 0.30686 0.0
H364 H 0.14253 0.7535 0.29247 0.0
H365 H 0.15201 0.73473 0.33229 0.0
H366 H 0.11083 0.8439 0.27362 0.0
H367 H 0.11227 0.65022 0.28141 0.0
H368 H 0.09475 0.56696 0.29722 0.0
H369 H 0.01612 0.60282 0.27119 0.0
H370 H 0.03316 0.68671 0.25548 0.0
H371 H 0.15769 0.7952 0.16686 0.0
H372 H 0.14521 0.79052 0.2066 0.0
H373 H 0.06256 0.76151 0.18795 0.0
H374 H 0.07511 0.76524 0.14754 0.0
H375 H 0.07823 0.69976 0.22362 0.0
H376 H 0.07923 0.88192 0.2075 0.0
H377 H 0.09585 0.96558 0.19145 0.0
H378 H 0.16651 0.95609 0.23323 0.0
H379 H 0.15055 0.87195 0.24929 0.0
C380 C 0.08354 0.74345 0.33545 0.0
C381 C 0.11019 0.73591 0.34284 0.0
C382 C 0.07812 0.7533 0.31245 0.0
C383 C 0.09935 0.75688 0.2968 0.0
C384 C 0.12591 0.75093 0.30434 0.0
C385 C 0.13127 0.74 0.32706 0.0
C386 C 0.09451 0.76544 0.27232 0.0
C387 C 0.10351 0.81268 0.26263 0.0
C388 C 0.08401 0.72534 0.25819 0.0
C389 C 0.07387 0.67499 0.26758 0.0
C390 C 0.09119 0.64059 0.27928 0.0
C391 C 0.08136 0.59323 0.28816 0.0
C392 C 0.05431 0.5797 0.28529 0.0
C393 C 0.03705 0.61342 0.27346 0.0
C394 C 0.04678 0.66086 0.26456 0.0
C395 C 0.13681 0.78781 0.17106 0.0
C396 C 0.11733 0.78127 0.15397 0.0
C397 C 0.12968 0.78537 0.19387 0.0
C398 C 0.10283 0.77714 0.20027 0.0
C399 C 0.08336 0.76854 0.18335 0.0
C400 C 0.09056 0.77061 0.16032 0.0
C401 C 0.09583 0.77744 0.22476 0.0
C402 C 0.08463 0.73192 0.2345 0.0
C403 C 0.104 0.81953 0.23902 0.0
C404 C 0.11368 0.87047 0.22958 0.0
C405 C 0.09838 0.89751 0.21319 0.0
C406 C 0.10769 0.94505 0.20409 0.0
C407 C 0.13222 0.96613 0.21131 0.0
C408 C 0.14749 0.93974 0.22767 0.0
C409 C 0.13829 0.89216 0.23682 0.0
H410 H 0.13939 0.00292 0.20423 0.0
H411 H 0.04674 0.54301 0.29218 0.0
H412 H 0.58892 0.69584 0.85216 0.0
H413 H 0.57942 0.67658 0.81197 0.0
H414 H 0.58837 0.84149 0.79578 0.0
H415 H 0.59863 0.86055 0.83557 0.0
H416 H 0.54482 0.78657 0.77158 0.0
H417 H 0.63933 0.7737 0.79138 0.0
H418 H 0.67859 0.73925 0.81219 0.0
H419 H 0.66148 0.58319 0.78784 0.0
H420 H 0.62142 0.61633 0.76772 0.0
H421 H 0.58661 0.79503 0.65506 0.0
H422 H 0.57691 0.80522 0.69569 0.0
H423 H 0.59066 0.63872 0.7057 0.0
H424 H 0.60149 0.62915 0.66555 0.0
H425 H 0.619 0.6892 0.73403 0.0
H426 H 0.52675 0.69972 0.71195 0.0
H427 H 0.48746 0.73203 0.69052 0.0
H428 H 0.49961 0.88757 0.71746 0.0
H429 H 0.53923 0.85635 0.73882 0.0
C430 C 0.58821 0.72798 0.84006 0.0
C431 C 0.59466 0.77956 0.84681 0.0
C432 C 0.58283 0.717 0.81719 0.0
C433 C 0.58329 0.75768 0.80097 0.0
C434 C 0.58782 0.80967 0.80805 0.0
C435 C 0.59382 0.82042 0.83072 0.0
C436 C 0.58237 0.74582 0.77638 0.0
C437 C 0.56098 0.76526 0.76326 0.0
C438 C 0.60331 0.71741 0.76572 0.0
C439 C 0.62701 0.69735 0.77842 0.0
C440 C 0.64357 0.73185 0.79087 0.0
C441 C 0.66601 0.71256 0.80253 0.0
C442 C 0.6724 0.65897 0.80154 0.0
C443 C 0.65636 0.62458 0.78885 0.0
C444 C 0.63372 0.64357 0.77738 0.0
C445 C 0.58698 0.76058 0.66592 0.0
C446 C 0.59504 0.71146 0.65729 0.0
C447 C 0.58134 0.7663 0.68912 0.0
C448 C 0.58304 0.72268 0.70385 0.0
C449 C 0.58943 0.67306 0.6948 0.0
C450 C 0.59559 0.6676 0.67184 0.0
C451 C 0.5812 0.72927 0.72891 0.0
C452 C 0.60239 0.70943 0.7422 0.0
C453 C 0.55993 0.7568 0.73966 0.0
C454 C 0.53612 0.77576 0.72684 0.0
C455 C 0.52119 0.74091 0.71317 0.0
C456 C 0.49882 0.75901 0.70105 0.0
C457 C 0.49108 0.81184 0.70258 0.0
C458 C 0.50565 0.84666 0.71627 0.0
C459 C 0.52804 0.82877 0.72841 0.0
H460 H 0.47376 0.82578 0.69319 0.0
H461 H 0.68987 0.64416 0.81046 0.0
H462 H 0.91516 0.20842 0.65037 0.0
H463 H 0.92719 0.18635 0.68975 0.0
H464 H 0.90642 0.34407 0.71075 0.0
H465 H 0.89398 0.36596 0.67175 0.0
H466 H 0.9531 0.29834 0.73398 0.0
H467 H 0.85932 0.26039 0.71322 0.0
H468 H 0.82527 0.21716 0.68904 0.0
H469 H 0.85885 0.06565 0.70502 0.0
H470 H 0.89336 0.10817 0.72904 0.0
H471 H 0.90554 0.29453 0.84765 0.0
H472 H 0.91718 0.30553 0.80748 0.0
H473 H 0.91172 0.13698 0.79786 0.0
H474 H 0.8984 0.12666 0.8375 0.0
H475 H 0.88486 0.17837 0.76729 0.0
H476 H 0.97344 0.21207 0.79381 0.0
H477 H 0.0092 0.25243 0.81707 0.0
H478 H 0.98946 0.40505 0.79029 0.0
H479 H 0.95331 0.36574 0.7671 0.0
C480 C 0.91385 0.23866 0.66332 0.0
C481 C 0.90335 0.28865 0.65814 0.0
C482 C 0.92072 0.22606 0.68574 0.0
C483 C 0.91757 0.26361 0.70309 0.0
C484 C 0.9091 0.31469 0.69758 0.0
C485 C 0.90179 0.32696 0.67534 0.0
C486 C 0.9191 0.24822 0.72728 0.0
C487 C 0.93832 0.27202 0.74141 0.0
C488 C 0.90014 0.213 0.73672 0.0
C489 C 0.87907 0.18745 0.72268 0.0
C490 C 0.85953 0.21789 0.71145 0.0
C491 C 0.84015 0.19353 0.69779 0.0
C492 C 0.83995 0.1387 0.69544 0.0
C493 C 0.85907 0.10812 0.70682 0.0
C494 C 0.87853 0.13232 0.72045 0.0
C495 C 0.90738 0.25992 0.83697 0.0
C496 C 0.90096 0.20985 0.8455 0.0
C497 C 0.91419 0.26608 0.81404 0.0
C498 C 0.91552 0.22201 0.79951 0.0
C499 C 0.91066 0.17167 0.80856 0.0
C500 C 0.90313 0.16574 0.83122 0.0
C501 C 0.91894 0.22863 0.77453 0.0
C502 C 0.90032 0.20357 0.76013 0.0
C503 C 0.93879 0.26203 0.76491 0.0
C504 C 0.96051 0.28595 0.77883 0.0
C505 C 0.97658 0.25429 0.793 0.0
C506 C 0.99695 0.27698 0.80615 0.0
C507 C 0.00156 0.33128 0.80519 0.0
C508 C 0.98585 0.363 0.79103 0.0
C509 C 0.96544 0.34051 0.77785 0.0
H510 H 0.01735 0.34877 0.81539 0.0
H511 H 0.82495 0.11991 0.68484 0.0
H512 H 0.4617 0.32866 0.06859 0.0
H513 H 0.4908 0.39662 0.05228 0.0
H514 H 0.4285 0.43751 0.00439 0.0
H515 H 0.39937 0.36952 0.02043 0.0
H516 H 0.4766 0.42303 0.98368 0.0
H517 H 0.44311 0.51847 0.04821 0.0
H518 H 0.43331 0.53292 0.08878 0.0
H519 H 0.51759 0.52316 0.10434 0.0
H520 H 0.52786 0.5079 0.06388 0.0
H521 H 0.53456 0.65752 0.93977 0.0
H522 H 0.50524 0.59204 0.95749 0.0
H523 H 0.56701 0.55728 0.00678 0.0
H524 H 0.59627 0.6234 0.98942 0.0
H525 H 0.51946 0.56826 0.02704 0.0
H526 H 0.55326 0.4724 0.96303 0.0
H527 H 0.56356 0.45664 0.92264 0.0
H528 H 0.47947 0.46543 0.9063 0.0
H529 H 0.46868 0.48199 0.94657 0.0
C530 C 0.45408 0.35251 0.05476 0.0
C531 C 0.42828 0.34349 0.04573 0.0
C532 C 0.47071 0.3914 0.04549 0.0
C533 C 0.46178 0.42214 0.02714 0.0
C534 C 0.43581 0.41407 0.01848 0.0
C535 C 0.41917 0.37528 0.02773 0.0
C536 C 0.47992 0.46106 0.01628 0.0
C537 C 0.48567 0.45527 0.99308 0.0
C538 C 0.49235 0.50211 0.02871 0.0
C539 C 0.48622 0.51152 0.05304 0.0
C540 C 0.45953 0.51897 0.0603 0.0
C541 C 0.4539 0.52739 0.08328 0.0
C542 C 0.47481 0.52882 0.09914 0.0
C543 C 0.50141 0.52197 0.09204 0.0
C544 C 0.50715 0.51349 0.06909 0.0
C545 C 0.54199 0.63568 0.95427 0.0
C546 C 0.56775 0.64566 0.96318 0.0
C547 C 0.52523 0.59816 0.96436 0.0
C548 C 0.53401 0.56948 0.98337 0.0
C549 C 0.55981 0.57903 0.99215 0.0
C550 C 0.57654 0.61669 0.98214 0.0
C551 C 0.51607 0.53038 0.9944 0.0
C552 C 0.51038 0.53606 0.01763 0.0
C553 C 0.50378 0.48904 0.98202 0.0
C554 C 0.51019 0.47895 0.95779 0.0
C555 C 0.53698 0.47139 0.9508 0.0
C556 C 0.5429 0.46224 0.92793 0.0
C557 C 0.52219 0.46017 0.91191 0.0
C558 C 0.4955 0.46712 0.91873 0.0
C559 C 0.48946 0.47634 0.94157 0.0
H560 H 0.52682 0.45308 0.89421 0.0
H561 H 0.4704 0.53533 0.11691 0.0
H562 H 0.05994 0.62574 0.07023 0.0
H563 H 0.03384 0.55278 0.05432 0.0
H564 H 0.01321 0.64867 0.99638 0.0
H565 H 0.03872 0.72212 0.01237 0.0
H566 H 0.97097 0.5908 0.00942 0.0
H567 H 0.06456 0.55944 0.99371 0.0
H568 H 0.11252 0.54904 0.00352 0.0
H569 H 0.09323 0.41727 0.04631 0.0
H570 H 0.04508 0.42735 0.03699 0.0
H571 H 0.93385 0.38384 0.93406 0.0
H572 H 0.95674 0.45925 0.9514 0.0
H573 H 0.97693 0.36396 0.00964 0.0
H574 H 0.9546 0.28832 0.99231 0.0
H575 H 0.01897 0.42188 0.99654 0.0
H576 H 0.92482 0.45285 0.01115 0.0
H577 H 0.87714 0.46359 0.00037 0.0
H578 H 0.89776 0.59634 0.95861 0.0
H579 H 0.9456 0.58597 0.96889 0.0
C580 C 0.04961 0.6315 0.05422 0.0
C581 C 0.05162 0.67958 0.04246 0.0
C582 C 0.03479 0.5897 0.04511 0.0
C583 C 0.02199 0.595 0.02396 0.0
C584 C 0.02301 0.64365 0.01267 0.0
C585 C 0.03768 0.68556 0.02183 0.0
C586 C 0.00853 0.54926 0.0131 0.0
C587 C 0.98152 0.55402 0.0064 0.0
C588 C 0.02221 0.50105 0.00942 0.0
C589 C 0.05119 0.49449 0.01483 0.0
C590 C 0.07053 0.52846 0.00532 0.0
C591 C 0.09775 0.5226 0.01078 0.0
C592 C 0.10591 0.48262 0.02558 0.0
C593 C 0.08687 0.44828 0.03488 0.0
C594 C 0.05962 0.45402 0.0295 0.0
C595 C 0.94326 0.3789 0.95052 0.0
C596 C 0.94233 0.33012 0.96184 0.0
C597 C 0.9562 0.4221 0.96046 0.0
C598 C 0.96821 0.4174 0.98196 0.0
C599 C 0.96774 0.3685 0.99307 0.0
C600 C 0.95491 0.32531 0.98313 0.0
C601 C 0.98136 0.46328 0.99296 0.0
C602 C 0.00836 0.45857 0.99964 0.0
C603 C 0.96768 0.51154 0.99652 0.0
C604 C 0.93884 0.51832 0.99063 0.0
C605 C 0.91921 0.48414 0.99956 0.0
C606 C 0.89215 0.49018 0.99356 0.0
C607 C 0.88445 0.53052 0.97876 0.0
C608 C 0.90376 0.56506 0.97004 0.0
C609 C 0.93084 0.55916 0.97597 0.0
H610 H 0.86353 0.53507 0.97407 0.0
H611 H 0.12699 0.47818 0.02981 0.0
H612 H 0.60002 0.89408 0.5195 0.0
H613 H 0.57072 0.95961 0.50196 0.0
H614 H 0.50903 0.92567 0.55137 0.0
H615 H 0.53812 0.85929 0.56887 0.0
H616 H 0.48896 0.92586 0.50903 0.0
H617 H 0.5447 0.04072 0.55344 0.0
H618 H 0.58716 0.07867 0.56766 0.0
H619 H 0.60848 0.12601 0.5 0.0
H620 H 0.56627 0.08775 0.48532 0.0
H621 H 0.40353 0.14173 0.48361 0.0
H622 H 0.43352 0.07827 0.5017 0.0
H623 H 0.49443 0.1108 0.45143 0.0
H624 H 0.46459 0.17509 0.43331 0.0
H625 H 0.51497 0.11152 0.49409 0.0
H626 H 0.45926 0.99678 0.44971 0.0
H627 H 0.41649 0.96003 0.43553 0.0
H628 H 0.39511 0.91261 0.50315 0.0
H629 H 0.4376 0.94978 0.5178 0.0
C630 C 0.58033 0.90088 0.52681 0.0
C631 C 0.57137 0.87132 0.54554 0.0
C632 C 0.56364 0.93854 0.5168 0.0
C633 C 0.53774 0.94772 0.52542 0.0
C634 C 0.52894 0.91913 0.54443 0.0
C635 C 0.54563 0.88138 0.55446 0.0
C636 C 0.51941 0.98532 0.51391 0.0
C637 C 0.49447 0.96669 0.50608 0.0
C638 C 0.52694 0.03814 0.50948 0.0
C639 C 0.55242 0.06094 0.51825 0.0
C640 C 0.55855 0.0588 0.54156 0.0
C641 C 0.58256 0.08046 0.54971 0.0
C642 C 0.60054 0.10463 0.53473 0.0
C643 C 0.59454 0.10723 0.51158 0.0
C644 C 0.57056 0.08563 0.50334 0.0
C645 C 0.42323 0.1352 0.47627 0.0
C646 C 0.43168 0.1635 0.45701 0.0
C647 C 0.44032 0.09874 0.4866 0.0
C648 C 0.46613 0.08955 0.47781 0.0
C649 C 0.47458 0.11734 0.45847 0.0
C650 C 0.45746 0.15387 0.44809 0.0
C651 C 0.48454 0.05206 0.48927 0.0
C652 C 0.50948 0.07068 0.49706 0.0
C653 C 0.47702 0.99922 0.49366 0.0
C654 C 0.45151 0.97652 0.48488 0.0
C655 C 0.44535 0.97888 0.46159 0.0
C656 C 0.42117 0.95791 0.45346 0.0
C657 C 0.40306 0.93412 0.46843 0.0
C658 C 0.40914 0.93111 0.49157 0.0
C659 C 0.43328 0.95208 0.49979 0.0
H660 H 0.38435 0.91792 0.46211 0.0
H661 H 0.61909 0.12153 0.54105 0.0
H662 H 0.97316 0.23487 0.52266 0.0
H663 H 0.99554 0.16155 0.50353 0.0
H664 H 0.94702 0.05104 0.54131 0.0
H665 H 0.92487 0.12415 0.56085 0.0
H666 H 0.99822 0.01903 0.53926 0.0
H667 H 0.93223 0.08182 0.48604 0.0
H668 H 0.90911 0.14834 0.46254 0.0
H669 H 0.98268 0.17967 0.42677 0.0
H670 H 0.00633 0.11381 0.45027 0.0
H671 H 0.02074 0.79259 0.47267 0.0
H672 H 0.99869 0.8676 0.49076 0.0
H673 H 0.04985 0.97443 0.45355 0.0
H674 H 0.07186 0.8995 0.4351 0.0
H675 H 0.99806 0.00913 0.45508 0.0
H676 H 0.06392 0.94578 0.5081 0.0
H677 H 0.08697 0.87897 0.53148 0.0
H678 H 0.01353 0.84861 0.56761 0.0
H679 H 0.98995 0.91476 0.54421 0.0
C680 C 0.96733 0.19497 0.527 0.0
C681 C 0.94714 0.18534 0.5432 0.0
C682 C 0.98005 0.15312 0.51596 0.0
C683 C 0.97263 0.10087 0.52072 0.0
C684 C 0.95299 0.09108 0.53732 0.0
C685 C 0.94034 0.13291 0.54845 0.0
C686 C 0.98521 0.05641 0.50831 0.0
C687 C 0.99788 0.01652 0.52087 0.0
C688 C 0.98531 0.05381 0.48428 0.0
C689 C 0.9711 0.09326 0.47007 0.0
C690 C 0.94352 0.10318 0.47328 0.0
C691 C 0.93031 0.14072 0.45994 0.0
C692 C 0.94443 0.16831 0.44321 0.0
C693 C 0.97177 0.15832 0.43975 0.0
C694 C 0.98509 0.12086 0.45306 0.0
C695 C 0.0272 0.83202 0.46818 0.0
C696 C 0.04819 0.84008 0.45257 0.0
C697 C 0.01464 0.87484 0.47862 0.0
C698 C 0.02296 0.9265 0.47378 0.0
C699 C 0.04322 0.93483 0.45758 0.0
C700 C 0.05579 0.89197 0.44708 0.0
C701 C 0.01092 0.9717 0.48605 0.0
C702 C 0.9984 0.01171 0.47347 0.0
C703 C 0.01094 0.97444 0.51007 0.0
C704 C 0.02511 0.93488 0.52426 0.0
C705 C 0.05264 0.92458 0.52092 0.0
C706 C 0.06581 0.88688 0.53419 0.0
C707 C 0.05171 0.85947 0.55099 0.0
C708 C 0.02442 0.86983 0.55458 0.0
C709 C 0.01115 0.90745 0.54133 0.0
H710 H 0.06194 0.83029 0.56125 0.0
H711 H 0.93417 0.19735 0.4329 0.0
H712 H 0.15284 0.61349 0.07532 0.0
H713 H 0.17764 0.53003 0.07368 0.0
H714 H 0.25225 0.61379 0.08369 0.0
H715 H 0.2278 0.69706 0.08538 0.0
H716 H 0.25563 0.53749 0.04991 0.0
H717 H 0.224 0.55369 0.12736 0.0
H718 H 0.18927 0.56484 0.15688 0.0
H719 H 0.14957 0.42407 0.13401 0.0
H720 H 0.1839 0.4125 0.10414 0.0
H721 H 0.34744 0.34361 0.08449 0.0
H722 H 0.31811 0.42039 0.08212 0.0
H723 H 0.2484 0.31884 0.08264 0.0
H724 H 0.27772 0.24168 0.08594 0.0
H725 H 0.23917 0.40022 0.10833 0.0
H726 H 0.27237 0.37915 0.03274 0.0
H727 H 0.30713 0.36688 0.00334 0.0
H728 H 0.34301 0.51505 0.02151 0.0
H729 H 0.30866 0.52791 0.05124 0.0
C730 C 0.17454 0.61417 0.07705 0.0
C731 C 0.18831 0.66197 0.08064 0.0
C732 C 0.18865 0.56645 0.07616 0.0
C733 C 0.21676 0.56576 0.07871 0.0
C734 C 0.23057 0.61347 0.08168 0.0
C735 C 0.21651 0.66102 0.08276 0.0
C736 C 0.23191 0.5154 0.07897 0.0
C737 C 0.25217 0.50754 0.06274 0.0
C738 C 0.22687 0.47581 0.09534 0.0
C739 C 0.20633 0.48257 0.11336 0.0
C740 C 0.20774 0.52536 0.12851 0.0
C741 C 0.18815 0.53171 0.14533 0.0
C742 C 0.16718 0.49528 0.14728 0.0
C743 C 0.1658 0.45232 0.13245 0.0
C744 C 0.18532 0.44583 0.11559 0.0
C745 C 0.32587 0.33752 0.08409 0.0
C746 C 0.31492 0.28647 0.08529 0.0
C747 C 0.30909 0.38151 0.0826 0.0
C748 C 0.28101 0.37545 0.08168 0.0
C749 C 0.26999 0.32455 0.08321 0.0
C750 C 0.28678 0.28047 0.08507 0.0
C751 C 0.26325 0.42237 0.07941 0.0
C752 C 0.24247 0.42968 0.09526 0.0
C753 C 0.26769 0.46131 0.06255 0.0
C754 C 0.28803 0.45431 0.04433 0.0
C755 C 0.28773 0.40902 0.03053 0.0
C756 C 0.30737 0.40196 0.01381 0.0
C757 C 0.3273 0.44011 0.0106 0.0
C758 C 0.32757 0.48552 0.02403 0.0
C759 C 0.30799 0.49276 0.0408 0.0
H760 H 0.34252 0.43451 0.99768 0.0
H761 H 0.15204 0.50026 0.16031 0.0
H762 H 0.35165 0.14356 0.42123 0.0
H763 H 0.32476 0.06301 0.42401 0.0
H764 H 0.253 0.15145 0.40852 0.0
H765 H 0.27967 0.23214 0.4055 0.0
H766 H 0.24703 0.08029 0.4453 0.0
H767 H 0.28048 0.08172 0.36806 0.0
H768 H 0.3157 0.08516 0.3386 0.0
H769 H 0.35238 0.94603 0.36628 0.0
H770 H 0.31757 0.94219 0.39612 0.0
H771 H 0.15481 0.87929 0.41696 0.0
H772 H 0.18385 0.95671 0.41843 0.0
H773 H 0.25391 0.8562 0.41953 0.0
H774 H 0.22489 0.77846 0.41707 0.0
H775 H 0.26288 0.93205 0.39198 0.0
H776 H 0.23015 0.92585 0.46797 0.0
H777 H 0.19629 0.92023 0.49847 0.0
H778 H 0.16063 0.0651 0.47575 0.0
H779 H 0.19407 0.07125 0.44491 0.0
C780 C 0.33013 0.14602 0.41847 0.0
C781 C 0.31784 0.19443 0.41304 0.0
C782 C 0.31482 0.09987 0.42002 0.0
C783 C 0.28693 0.10126 0.41634 0.0
C784 C 0.27451 0.14958 0.41142 0.0
C785 C 0.28982 0.19565 0.40962 0.0
C786 C 0.27071 0.05221 0.41722 0.0
C787 C 0.25026 0.04799 0.43353 0.0
C788 C 0.2756 0.00951 0.40233 0.0
C789 C 0.29658 0.01198 0.38446 0.0
C790 C 0.2962 0.05215 0.368 0.0
C791 C 0.31606 0.05412 0.3512 0.0
C792 C 0.33628 0.01589 0.3506 0.0
C793 C 0.33671 0.97564 0.36679 0.0
C794 C 0.31692 0.97353 0.38363 0.0
C795 C 0.1764 0.87359 0.41769 0.0
C796 C 0.18753 0.82265 0.41694 0.0
C797 C 0.19302 0.91798 0.41866 0.0
C798 C 0.22115 0.91249 0.41949 0.0
C799 C 0.2323 0.86159 0.41893 0.0
C800 C 0.21568 0.81714 0.41757 0.0
C801 C 0.23887 0.95988 0.42003 0.0
C802 C 0.25966 0.96395 0.40395 0.0
C803 C 0.23455 0.00211 0.43538 0.0
C804 C 0.21449 0.99876 0.454 0.0
C805 C 0.21498 0.95633 0.46938 0.0
C806 C 0.19588 0.95308 0.48675 0.0
C807 C 0.17628 0.99222 0.48902 0.0
C808 C 0.17581 0.03479 0.47396 0.0
C809 C 0.19485 0.03821 0.45655 0.0
H810 H 0.1615 0.98962 0.50247 0.0
H811 H 0.35156 0.01729 0.33753 0.0
H812 H 0.70798 0.71002 0.88892 0.0
H813 H 0.73517 0.62959 0.89004 0.0
H814 H 0.68637 0.56966 0.94477 0.0
H815 H 0.65874 0.64956 0.94354 0.0
H816 H 0.74279 0.55377 0.95111 0.0
H817 H 0.67347 0.52036 0.89774 0.0
H818 H 0.64389 0.53773 0.86498 0.0
H819 H 0.71245 0.54014 0.82065 0.0
H820 H 0.74255 0.52347 0.85327 0.0
H821 H 0.77571 0.27419 0.90063 0.0
H822 H 0.74652 0.35148 0.90342 0.0
H823 H 0.81431 0.44596 0.92448 0.0
H824 H 0.84339 0.36867 0.9225 0.0
H825 H 0.74481 0.44093 0.88225 0.0
H826 H 0.79475 0.54263 0.96028 0.0
H827 H 0.81904 0.51718 0.99515 0.0
H828 H 0.7807 0.36544 0.99406 0.0
H829 H 0.7558 0.39029 0.95948 0.0
C830 C 0.70313 0.67995 0.90132 0.0
C831 C 0.68108 0.6861 0.91605 0.0
C832 C 0.71866 0.63399 0.90191 0.0
C833 C 0.7127 0.59365 0.91743 0.0
C834 C 0.69131 0.60038 0.93269 0.0
C835 C 0.67548 0.64595 0.93187 0.0
C836 C 0.72812 0.54356 0.91701 0.0
C837 C 0.74335 0.5291 0.93607 0.0
C838 C 0.7281 0.51061 0.89764 0.0
C839 C 0.71027 0.52121 0.87797 0.0
C840 C 0.68228 0.52516 0.88104 0.0
C841 C 0.66542 0.53473 0.86251 0.0
C842 C 0.6763 0.54005 0.84078 0.0
C843 C 0.70408 0.53598 0.83752 0.0
C844 C 0.72105 0.52643 0.85602 0.0
C845 C 0.78441 0.31135 0.90595 0.0
C846 C 0.81189 0.31501 0.91151 0.0
C847 C 0.76769 0.3556 0.90747 0.0
C848 C 0.77809 0.40452 0.91444 0.0
C849 C 0.80563 0.40849 0.91954 0.0
C850 C 0.82229 0.3642 0.91828 0.0
C851 C 0.76025 0.45152 0.91617 0.0
C852 C 0.74446 0.46552 0.89732 0.0
C853 C 0.75914 0.4831 0.93603 0.0
C854 C 0.77361 0.4682 0.95714 0.0
C855 C 0.79139 0.50394 0.96755 0.0
C856 C 0.8053 0.48959 0.98725 0.0
C857 C 0.80153 0.43964 0.99674 0.0
C858 C 0.7837 0.40404 0.98664 0.0
C859 C 0.76968 0.41824 0.96699 0.0
H860 H 0.81237 0.42858 0.01195 0.0
H861 H 0.66315 0.54704 0.82647 0.0
H862 H 0.71021 0.78682 0.61846 0.0
H863 H 0.73852 0.86571 0.61979 0.0
H864 H 0.69132 0.93555 0.56611 0.0
H865 H 0.66226 0.85803 0.56549 0.0
H866 H 0.77069 0.91376 0.5933 0.0
H867 H 0.68766 0.06712 0.57114 0.0
H868 H 0.63871 0.07836 0.57577 0.0
H869 H 0.63954 0.97419 0.63321 0.0
H870 H 0.68862 0.96318 0.62925 0.0
H871 H 0.83293 0.1552 0.56546 0.0
H872 H 0.80529 0.07558 0.56559 0.0
H873 H 0.76253 0.13286 0.62441 0.0
H874 H 0.78938 0.21361 0.62376 0.0
H875 H 0.72841 0.09059 0.59796 0.0
H876 H 0.81277 0.03412 0.62739 0.0
H877 H 0.86204 0.02284 0.62839 0.0
H878 H 0.85881 0.93246 0.56678 0.0
H879 H 0.80953 0.94379 0.56525 0.0
C880 C 0.70587 0.81903 0.60696 0.0
C881 C 0.68373 0.81647 0.59212 0.0
C882 C 0.72213 0.8641 0.60768 0.0
C883 C 0.71678 0.90726 0.5934 0.0
C884 C 0.69543 0.9036 0.57781 0.0
C885 C 0.67888 0.85906 0.57739 0.0
C886 C 0.73322 0.95632 0.59499 0.0
C887 C 0.76141 0.95239 0.59433 0.0
C888 C 0.72127 0.00688 0.59695 0.0
C889 C 0.69179 0.0139 0.59973 0.0
C890 C 0.67742 0.0468 0.58483 0.0
C891 C 0.64964 0.05309 0.58731 0.0
C892 C 0.63597 0.02677 0.60467 0.0
C893 C 0.65012 0.99437 0.6197 0.0
C894 C 0.67793 0.9881 0.61735 0.0
C895 C 0.81761 0.15089 0.57841 0.0
C896 C 0.81342 0.19073 0.59464 0.0
C897 C 0.8019 0.10513 0.57855 0.0
C898 C 0.78209 0.09754 0.59527 0.0
C899 C 0.77766 0.13761 0.61133 0.0
C900 C 0.79306 0.18381 0.61095 0.0
C901 C 0.76585 0.0481 0.5959 0.0
C902 C 0.73769 0.05197 0.59697 0.0
C903 C 0.77787 0.99744 0.59517 0.0
C904 C 0.80748 0.99021 0.5961 0.0
C905 C 0.82259 0.01213 0.61397 0.0
C906 C 0.85051 0.00569 0.61465 0.0
C907 C 0.86356 0.97707 0.59763 0.0
C908 C 0.84868 0.95468 0.57993 0.0
C909 C 0.82075 0.96105 0.57917 0.0
H910 H 0.88518 0.97215 0.59817 0.0
H911 H 0.61445 0.03161 0.60652 0.0
loop_
_geom_bond_atom_site_label_1
_geom_bond_atom_site_label_2
_geom_bond_distance
_geom_bond_site_symmetry_2
_ccdc_geom_bond_type
Mg0 O1 2.028 . S
Mg0 O7 1.986 . S
Mg0 O9 2.114 . S
Mg0 O10 2.251 . S
Mg0 O13 2.010 . S
O1 Mg0 2.028 . S
O1 C4 1.250 . S
O2 Mg3 2.028 . S
O2 C4 1.248 . S
Mg3 O2 2.028 . S
Mg3 O8 2.032 . S
Mg3 O10 2.079 . S
C4 O1 1.250 . S
C4 O2 1.248 . S
C5 O6 1.264 . S
C5 O13 1.249 . S
O6 C5 1.264 . S
O7 Mg0 1.986 . S
O7 C11 1.246 . S
O8 Mg3 2.032 . S
O8 C11 1.259 . S
O9 Mg0 2.114 . S
O9 C12 1.252 . S
O10 Mg0 2.251 . S
O10 Mg3 2.079 . S
O10 C12 1.273 . S
C11 O7 1.246 . S
C11 O8 1.259 . S
C12 O9 1.252 . S
C12 O10 1.273 . S
O13 Mg0 2.010 . S
O13 C5 1.249 . S
Mg14 O15 2.028 . S
Mg14 O21 1.986 . S
Mg14 O23 2.114 . S
Mg14 O24 2.251 . S
Mg14 O27 2.010 . S
O15 Mg14 2.028 . S
O15 C18 1.250 . S
O16 Mg17 2.028 . S
O16 C18 1.248 . S
Mg17 O16 2.028 . S
Mg17 O22 2.032 . S
Mg17 O24 2.079 . S
C18 O15 1.250 . S
C18 O16 1.248 . S
C19 O20 1.264 . S
C19 O27 1.249 . S
O20 C19 1.264 . S
O21 Mg14 1.986 . S
O21 C25 1.246 . S
O22 Mg17 2.032 . S
O22 C25 1.259 . S
O23 Mg14 2.114 . S
O23 C26 1.252 . S
O24 Mg14 2.251 . S
O24 Mg17 2.079 . S
O24 C26 1.273 . S
C25 O21 1.246 . S
C25 O22 1.259 . S
C26 O23 1.252 . S
C26 O24 1.273 . S
O27 Mg14 2.010 . S
O27 C19 1.249 . S
Mg28 O29 2.028 . S
Mg28 O35 1.986 . S
Mg28 O37 2.114 . S
Mg28 O38 2.251 . S
Mg28 O41 2.010 . S
O29 Mg28 2.028 . S
O29 C32 1.250 . S
O30 Mg31 2.028 . S
O30 C32 1.248 . S
Mg31 O30 2.028 . S
Mg31 O36 2.032 . S
Mg31 O38 2.079 . S
C32 O29 1.250 . S
C32 O30 1.248 . S
C33 O34 1.264 . S
C33 O41 1.249 . S
O34 C33 1.264 . S
O35 Mg28 1.986 . S
O35 C39 1.246 . S
O36 Mg31 2.032 . S
O36 C39 1.259 . S
O37 Mg28 2.114 . S
O37 C40 1.252 . S
O38 Mg28 2.251 . S
O38 Mg31 2.079 . S
O38 C40 1.273 . S
C39 O35 1.246 . S
C39 O36 1.259 . S
C40 O37 1.252 . S
C40 O38 1.273 . S
O41 Mg28 2.010 . S
O41 C33 1.249 . S
Mg42 O43 2.028 . S
Mg42 O49 1.986 . S
Mg42 O51 2.114 . S
Mg42 O52 2.251 . S
Mg42 O55 2.010 . S
O43 Mg42 2.028 . S
O43 C46 1.250 . S
O44 Mg45 2.028 . S
O44 C46 1.248 . S
Mg45 O44 2.028 . S
Mg45 O50 2.032 . S
Mg45 O52 2.079 . S
C46 O43 1.250 . S
C46 O44 1.248 . S
C47 O48 1.264 . S
C47 O55 1.249 . S
O48 C47 1.264 . S
O49 Mg42 1.986 . S
O49 C53 1.246 . S
O50 Mg45 2.032 . S
O50 C53 1.259 . S
O51 Mg42 2.114 . S
O51 C54 1.252 . S
O52 Mg42 2.251 . S
O52 Mg45 2.079 . S
O52 C54 1.273 . S
C53 O49 1.246 . S
C53 O50 1.259 . S
C54 O51 1.252 . S
C54 O52 1.273 . S
O55 Mg42 2.010 . S
O55 C47 1.249 . S
Mg56 O57 2.028 . S
Mg56 O63 1.986 . S
Mg56 O65 2.114 . S
Mg56 O66 2.251 . S
Mg56 O69 2.010 . S
O57 Mg56 2.028 . S
O57 C60 1.250 . S
O58 Mg59 2.028 . S
O58 C60 1.248 . S
Mg59 O58 2.028 . S
Mg59 O64 2.032 . S
Mg59 O66 2.079 . S
C60 O57 1.250 . S
C60 O58 1.248 . S
C61 O62 1.264 . S
C61 O69 1.249 . S
O62 C61 1.264 . S
O63 Mg56 1.986 . S
O63 C67 1.246 . S
O64 Mg59 2.032 . S
O64 C67 1.259 . S
O65 Mg56 2.114 . S
O65 C68 1.252 . S
O66 Mg56 2.251 . S
O66 Mg59 2.079 . S
O66 C68 1.273 . S
C67 O63 1.246 . S
C67 O64 1.259 . S
C68 O65 1.252 . S
C68 O66 1.273 . S
O69 Mg56 2.010 . S
O69 C61 1.249 . S
Mg70 O71 2.028 . S
Mg70 O77 1.986 . S
Mg70 O79 2.114 . S
Mg70 O80 2.251 . S
Mg70 O83 2.010 . S
O71 Mg70 2.028 . S
O71 C74 1.250 . S
O72 Mg73 2.028 . S
O72 C74 1.248 . S
Mg73 O72 2.028 . S
Mg73 O78 2.032 . S
Mg73 O80 2.079 . S
C74 O71 1.250 . S
C74 O72 1.248 . S
C75 O76 1.264 . S
C75 O83 1.249 . S
O76 C75 1.264 . S
O77 Mg70 1.986 . S
O77 C81 1.246 . S
O78 Mg73 2.032 . S
O78 C81 1.259 . S
O79 Mg70 2.114 . S
O79 C82 1.252 . S
O80 Mg70 2.251 . S
O80 Mg73 2.079 . S
O80 C82 1.273 . S
C81 O77 1.246 . S
C81 O78 1.259 . S
C82 O79 1.252 . S
C82 O80 1.273 . S
O83 Mg70 2.010 . S
O83 C75 1.249 . S
Mg84 O85 2.028 . S
Mg84 O91 1.986 . S
Mg84 O93 2.114 . S
Mg84 O94 2.251 . S
Mg84 O97 2.010 . S
O85 Mg84 2.028 . S
O85 C88 1.250 . S
O86 Mg87 2.028 . S
O86 C88 1.248 . S
Mg87 O86 2.028 . S
Mg87 O92 2.032 . S
Mg87 O94 2.079 . S
C88 O85 1.250 . S
C88 O86 1.248 . S
C89 O90 1.264 . S
C89 O97 1.249 . S
O90 C89 1.264 . S
O91 Mg84 1.986 . S
O91 C95 1.246 . S
O92 Mg87 2.032 . S
O92 C95 1.259 . S
O93 Mg84 2.114 . S
O93 C96 1.252 . S
O94 Mg84 2.251 . S
O94 Mg87 2.079 . S
O94 C96 1.273 . S
C95 O91 1.246 . S
C95 O92 1.259 . S
C96 O93 1.252 . S
C96 O94 1.273 . S
O97 Mg84 2.010 . S
O97 C89 1.249 . S
Mg98 O99 2.028 . S
Mg98 O105 1.986 . S
Mg98 O107 2.114 . S
Mg98 O108 2.251 . S
Mg98 O111 2.010 . S
O99 Mg98 2.028 . S
O99 C102 1.250 . S
O100 Mg101 2.028 . S
O100 C102 1.248 . S
Mg101 O100 2.028 . S
Mg101 O106 2.032 . S
Mg101 O108 2.079 . S
C102 O99 1.250 . S
C102 O100 1.248 . S
C103 O104 1.264 . S
C103 O111 1.249 . S
O104 C103 1.264 . S
O105 Mg98 1.986 . S
O105 C109 1.246 . S
O106 Mg101 2.032 . S
O106 C109 1.259 . S
O107 Mg98 2.114 . S
O107 C110 1.252 . S
O108 Mg98 2.251 . S
O108 Mg101 2.079 . S
O108 C110 1.273 . S
C109 O105 1.246 . S
C109 O106 1.259 . S
C110 O107 1.252 . S
C110 O108 1.273 . S
O111 Mg98 2.010 . S
O111 C103 1.249 . S
H112 C130 0.951 . S
H113 C132 0.951 . S
H114 C134 0.950 . S
H115 C135 0.950 . S
H116 C137 0.950 . S
H117 C140 0.950 . S
H118 C141 0.950 . S
H119 C143 0.958 . S
H120 C144 0.950 . S
H121 C145 0.951 . S
H122 C147 0.951 . S
H123 C149 0.950 . S
H124 C150 0.950 . S
H125 C152 0.950 . S
H126 C155 0.950 . S
H127 C156 0.950 . S
H128 C158 0.950 . S
H129 C159 0.950 . S
C130 H112 0.951 . S
C130 C131 1.366 . S
C130 C132 1.388 . S
C131 C130 1.366 . S
C131 C135 1.385 . S
C132 H113 0.951 . S
C132 C130 1.388 . S
C132 C133 1.366 . S
C133 C132 1.366 . S
C133 C134 1.414 . S
C133 C136 1.499 . S
C134 H114 0.950 . S
C134 C133 1.414 . S
C134 C135 1.374 . S
C135 H115 0.950 . S
C135 C131 1.385 . S
C135 C134 1.374 . S
C136 C133 1.499 . S
C136 C137 1.373 . S
C136 C138 1.389 1_545 S
C137 H116 0.950 . S
C137 C136 1.373 . S
C137 C153 1.377 . S
C138 C136 1.389 1_565 S
C138 C139 1.524 . S
C138 C152 1.377 . S
C139 C138 1.524 . S
C139 C140 1.397 1_565 S
C139 C144 1.363 . S
C140 H117 0.950 . S
C140 C139 1.397 1_545 S
C140 C141 1.334 1_554 S
C141 H118 0.950 . S
C141 C140 1.334 1_556 S
C141 C142 1.287 1_545 S
C142 C141 1.287 1_565 S
C142 C143 1.537 . S
C142 H161 0.913 . S
C143 H119 0.958 . S
C143 C142 1.537 . S
C143 C144 1.393 1_556 S
C144 H120 0.950 . S
C144 C139 1.363 . S
C144 C143 1.393 1_554 S
C145 H121 0.951 . S
C145 C146 1.366 . S
C145 C147 1.388 . S
C146 C145 1.366 . S
C146 C150 1.385 . S
C147 H122 0.951 . S
C147 C145 1.388 . S
C147 C148 1.366 . S
C148 C147 1.366 . S
C148 C149 1.414 . S
C148 C151 1.499 . S
C149 H123 0.950 . S
C149 C148 1.414 . S
C149 C150 1.374 . S
C150 H124 0.950 . S
C150 C146 1.385 . S
C150 C149 1.374 . S
C151 C148 1.499 . S
C151 C152 1.373 . S
C151 C153 1.389 1_565 S
C152 H125 0.950 . S
C152 C138 1.377 . S
C152 C151 1.373 . S
C153 C137 1.377 . S
C153 C151 1.389 1_545 S
C153 C154 1.524 . S
C154 C153 1.524 . S
C154 C155 1.397 1_545 S
C154 C159 1.363 . S
C155 H126 0.950 . S
C155 C154 1.397 1_565 S
C155 C156 1.334 . S
C156 H127 0.950 . S
C156 C155 1.334 . S
C156 C157 1.287 1_565 S
C157 C156 1.287 1_545 S
C157 C158 1.524 . S
C157 H160 0.999 . S
C158 H128 0.950 . S
C158 C157 1.524 . S
C158 C159 1.415 . S
C159 H129 0.950 . S
C159 C154 1.363 . S
C159 C158 1.415 . S
H160 C157 0.999 . S
H161 C142 0.913 . S
H162 C180 0.951 . S
H163 C182 0.951 . S
H164 C184 0.950 . S
H165 C185 0.950 . S
H166 C187 0.950 . S
H167 C190 0.950 . S
H168 C191 0.950 . S
H169 C193 0.950 . S
H170 C194 0.950 . S
H171 C195 0.951 . S
H172 C197 0.951 . S
H173 C199 0.950 . S
H174 C200 0.950 . S
H175 C202 0.950 . S
H176 C205 0.950 . S
H177 C206 0.950 . S
H178 C208 0.950 . S
H179 C209 0.950 . S
C180 H162 0.951 . S
C180 C181 1.366 . S
C180 C182 1.388 . S
C181 C180 1.366 . S
C181 C185 1.385 . S
C182 H163 0.951 . S
C182 C180 1.388 . S
C182 C183 1.366 . S
C183 C182 1.366 . S
C183 C184 1.414 . S
C183 C186 1.499 . S
C184 H164 0.950 . S
C184 C183 1.414 . S
C184 C185 1.374 . S
C185 H165 0.950 . S
C185 C181 1.385 . S
C185 C184 1.374 . S
C186 C183 1.499 . S
C186 C187 1.373 . S
C186 C188 1.389 . S
C187 H166 0.950 . S
C187 C186 1.373 . S
C187 C203 1.377 . S
C188 C186 1.389 . S
C188 C189 1.524 . S
C188 C202 1.377 . S
C189 C188 1.524 . S
C189 C190 1.397 . S
C189 C194 1.363 . S
C190 H167 0.950 . S
C190 C189 1.397 . S
C190 C191 1.334 . S
C191 H168 0.950 . S
C191 C190 1.334 . S
C191 C192 1.287 . S
C192 C191 1.287 . S
C192 C193 1.524 . S
C192 H211 0.913 . S
C193 H169 0.950 . S
C193 C192 1.524 . S
C193 C194 1.415 . S
C194 H170 0.950 . S
C194 C189 1.363 . S
C194 C193 1.415 . S
C195 H171 0.951 . S
C195 C196 1.366 . S
C195 C197 1.388 . S
C196 C195 1.366 . S
C196 C200 1.385 . S
C197 H172 0.951 . S
C197 C195 1.388 . S
C197 C198 1.366 . S
C198 C197 1.366 . S
C198 C199 1.414 . S
C198 C201 1.499 . S
C199 H173 0.950 . S
C199 C198 1.414 . S
C199 C200 1.374 . S
C200 H174 0.950 . S
C200 C196 1.385 . S
C200 C199 1.374 . S
C201 C198 1.499 . S
C201 C202 1.373 . S
C201 C203 1.389 . S
C202 H175 0.950 . S
C202 C188 1.377 . S
C202 C201 1.373 . S
C203 C187 1.377 . S
C203 C201 1.389 . S
C203 C204 1.524 . S
C204 C203 1.524 . S
C204 C205 1.397 . S
C204 C209 1.363 . S
C205 H176 0.950 . S
C205 C204 1.397 . S
C205 C206 1.334 . S
C206 H177 0.950 . S
C206 C205 1.334 . S
C206 C207 1.287 . S
C207 C206 1.287 . S
C207 C208 1.524 . S
C207 H210 0.999 . S
C208 H178 0.950 . S
C208 C207 1.524 . S
C208 C209 1.415 . S
C209 H179 0.950 . S
C209 C204 1.363 . S
C209 C208 1.415 . S
H210 C207 0.999 . S
H211 C192 0.913 . S
H212 C230 0.951 . S
H213 C232 0.951 . S
H214 C234 0.950 . S
H215 C235 0.950 . S
H216 C237 0.950 . S
H217 C240 0.950 . S
H218 C241 0.950 . S
H219 C243 0.950 . S
H220 C244 0.950 . S
H221 C245 0.951 . S
H222 C247 0.951 . S
H223 C249 0.950 . S
H224 C250 0.950 . S
H225 C252 0.950 . S
H226 C255 0.950 . S
H227 C256 0.950 . S
H228 C258 0.950 . S
H229 C259 0.950 . S
C230 H212 0.951 . S
C230 C231 1.366 . S
C230 C232 1.388 . S
C231 C230 1.366 . S
C231 C235 1.385 . S
C232 H213 0.951 . S
C232 C230 1.388 . S
C232 C233 1.366 . S
C233 C232 1.366 . S
C233 C234 1.414 . S
C233 C236 1.499 . S
C234 H214 0.950 . S
C234 C233 1.414 . S
C234 C235 1.374 . S
C235 H215 0.950 . S
C235 C231 1.385 . S
C235 C234 1.374 . S
C236 C233 1.499 . S
C236 C237 1.373 1_565 S
C236 C238 1.389 . S
C237 H216 0.950 . S
C237 C236 1.373 1_545 S
C237 C253 1.377 . S
C238 C236 1.389 . S
C238 C239 1.524 . S
C238 C252 1.377 . S
C239 C238 1.524 . S
C239 C240 1.397 . S
C239 C244 1.363 . S
C240 H217 0.950 . S
C240 C239 1.397 . S
C240 C241 1.334 . S
C241 H218 0.950 . S
C241 C240 1.334 . S
C241 C242 1.287 . S
C242 C241 1.287 . S
C242 C243 1.524 . S
C242 H261 0.913 . S
C243 H219 0.950 . S
C243 C242 1.524 . S
C243 C244 1.415 . S
C244 H220 0.950 . S
C244 C239 1.363 . S
C244 C243 1.415 . S
C245 H221 0.951 . S
C245 C246 1.366 . S
C245 C247 1.388 . S
C246 C245 1.366 . S
C246 C250 1.385 . S
C247 H222 0.951 . S
C247 C245 1.388 . S
C247 C248 1.366 . S
C248 C247 1.366 . S
C248 C249 1.414 . S
C248 C251 1.499 . S
C249 H223 0.950 . S
C249 C248 1.414 . S
C249 C250 1.374 . S
C250 H224 0.950 . S
C250 C246 1.385 . S
C250 C249 1.374 . S
C251 C248 1.499 . S
C251 C252 1.373 1_545 S
C251 C253 1.389 . S
C252 H225 0.950 . S
C252 C238 1.377 . S
C252 C251 1.373 1_565 S
C253 C237 1.377 . S
C253 C251 1.389 . S
C253 C254 1.524 . S
C254 C253 1.524 . S
C254 C255 1.397 . S
C254 C259 1.363 . S
C255 H226 0.950 . S
C255 C254 1.397 . S
C255 C256 1.334 . S
C256 H227 0.950 . S
C256 C255 1.334 . S
C256 C257 1.287 . S
C257 C256 1.287 . S
C257 C258 1.524 1_556 S
C257 H260 0.999 . S
C258 H228 0.950 . S
C258 C257 1.524 1_554 S
C258 C259 1.415 1_554 S
C259 H229 0.950 . S
C259 C254 1.363 . S
C259 C258 1.415 1_556 S
H260 C257 0.999 . S
H261 C242 0.913 . S
H262 C280 0.951 . S
H263 C282 0.951 . S
H264 C284 0.950 . S
H265 C285 0.950 . S
H266 C287 0.950 . S
H267 C290 0.950 . S
H268 C291 0.950 . S
H269 C293 0.950 . S
H270 C294 0.950 . S
H271 C295 0.951 . S
H272 C297 0.951 . S
H273 C299 0.950 . S
H274 C300 0.950 . S
H275 C302 0.950 . S
H276 C305 0.950 . S
H277 C306 0.950 . S
H278 C308 0.950 . S
H279 C309 0.950 . S
C280 H262 0.951 . S
C280 C281 1.366 . S
C280 C282 1.388 . S
C281 C280 1.366 . S
C281 C285 1.385 . S
C282 H263 0.951 . S
C282 C280 1.388 . S
C282 C283 1.366 . S
C283 C282 1.366 . S
C283 C284 1.414 . S
C283 C286 1.499 . S
C284 H264 0.950 . S
C284 C283 1.414 . S
C284 C285 1.374 . S
C285 H265 0.950 . S
C285 C281 1.385 . S
C285 C284 1.374 . S
C286 C283 1.499 . S
C286 C287 1.373 . S
C286 C288 1.389 . S
C287 H266 0.950 . S
C287 C286 1.373 . S
C287 C303 1.377 . S
C288 C286 1.389 . S
C288 C289 1.524 . S
C288 C302 1.377 . S
C289 C288 1.524 . S
C289 C290 1.397 . S
C289 C294 1.363 . S
C290 H267 0.950 . S
C290 C289 1.397 . S
C290 C291 1.334 . S
C291 H268 0.950 . S
C291 C290 1.334 . S
C291 C292 1.287 . S
C292 C291 1.287 . S
C292 C293 1.524 . S
C292 H311 0.913 . S
C293 H269 0.950 . S
C293 C292 1.524 . S
C293 C294 1.415 . S
C294 H270 0.950 . S
C294 C289 1.363 . S
C294 C293 1.415 . S
C295 H271 0.951 . S
C295 C296 1.366 . S
C295 C297 1.388 . S
C296 C295 1.366 . S
C296 C300 1.385 . S
C297 H272 0.951 . S
C297 C295 1.388 . S
C297 C298 1.366 . S
C298 C297 1.366 . S
C298 C299 1.414 . S
C298 C301 1.499 . S
C299 H273 0.950 . S
C299 C298 1.414 . S
C299 C300 1.374 . S
C300 H274 0.950 . S
C300 C296 1.385 . S
C300 C299 1.374 . S
C301 C298 1.499 . S
C301 C302 1.373 . S
C301 C303 1.389 . S
C302 H275 0.950 . S
C302 C288 1.377 . S
C302 C301 1.373 . S
C303 C287 1.377 . S
C303 C301 1.389 . S
C303 C304 1.524 . S
C304 C303 1.524 . S
C304 C305 1.397 . S
C304 C309 1.363 . S
C305 H276 0.950 . S
C305 C304 1.397 . S
C305 C306 1.334 . S
C306 H277 0.950 . S
C306 C305 1.334 . S
C306 C307 1.287 . S
C307 C306 1.287 . S
C307 C308 1.524 . S
C307 H310 0.999 . S
C308 H278 0.950 . S
C308 C307 1.524 . S
C308 C309 1.415 . S
C309 H279 0.950 . S
C309 C304 1.363 . S
C309 C308 1.415 . S
H310 C307 0.999 . S
H311 C292 0.913 . S
H312 C330 0.951 . S
H313 C332 0.951 . S
H314 C334 0.950 . S
H315 C335 0.950 . S
H316 C337 0.950 . S
H317 C340 0.950 . S
H318 C341 0.950 . S
H319 C343 0.950 . S
H320 C344 0.950 . S
H321 C345 0.951 . S
H322 C347 0.951 . S
H323 C349 0.950 . S
H324 C350 0.950 . S
H325 C352 0.950 . S
H326 C355 0.950 . S
H327 C356 0.950 . S
H328 C358 0.950 . S
H329 C359 0.950 . S
C330 H312 0.951 . S
C330 C331 1.366 . S
C330 C332 1.388 . S
C331 C330 1.366 . S
C331 C335 1.385 . S
C332 H313 0.951 . S
C332 C330 1.388 . S
C332 C333 1.366 . S
C333 C332 1.366 . S
C333 C334 1.414 . S
C333 C336 1.499 . S
C334 H314 0.950 . S
C334 C333 1.414 . S
C334 C335 1.374 . S
C335 H315 0.950 . S
C335 C331 1.385 . S
C335 C334 1.374 . S
C336 C333 1.499 . S
C336 C337 1.373 . S
C336 C338 1.389 . S
C337 H316 0.950 . S
C337 C336 1.373 . S
C337 C353 1.377 . S
C338 C336 1.389 . S
C338 C339 1.524 . S
C338 C352 1.377 . S
C339 C338 1.524 . S
C339 C340 1.397 . S
C339 C344 1.363 . S
C340 H317 0.950 . S
C340 C339 1.397 . S
C340 C341 1.334 . S
C341 H318 0.950 . S
C341 C340 1.334 . S
C341 C342 1.287 . S
C342 C341 1.287 . S
C342 C343 1.524 . S
C342 H361 0.913 . S
C343 H319 0.950 . S
C343 C342 1.524 . S
C343 C344 1.415 . S
C344 H320 0.950 . S
C344 C339 1.363 . S
C344 C343 1.415 . S
C345 H321 0.951 . S
C345 C346 1.366 . S
C345 C347 1.388 . S
C346 C345 1.366 . S
C346 C350 1.385 . S
C347 H322 0.951 . S
C347 C345 1.388 . S
C347 C348 1.366 . S
C348 C347 1.366 . S
C348 C349 1.414 . S
C348 C351 1.499 . S
C349 H323 0.950 . S
C349 C348 1.414 . S
C349 C350 1.374 . S
C350 H324 0.950 . S
C350 C346 1.385 . S
C350 C349 1.374 . S
C351 C348 1.499 . S
C351 C352 1.373 . S
C351 C353 1.389 . S
C352 H325 0.950 . S
C352 C338 1.377 . S
C352 C351 1.373 . S
C353 C337 1.377 . S
C353 C351 1.389 . S
C353 C354 1.524 . S
C354 C353 1.524 . S
C354 C355 1.397 . S
C354 C359 1.363 . S
C355 H326 0.950 . S
C355 C354 1.397 . S
C355 C356 1.334 . S
C356 H327 0.950 . S
C356 C355 1.334 . S
C356 C357 1.287 . S
C357 C356 1.287 . S
C357 C358 1.524 . S
C357 H360 0.999 . S
C358 H328 0.950 . S
C358 C357 1.524 . S
C358 C359 1.415 . S
C359 H329 0.950 . S
C359 C354 1.363 . S
C359 C358 1.415 . S
H360 C357 0.999 . S
H361 C342 0.913 . S
H362 C380 0.951 . S
H363 C382 0.951 . S
H364 C384 0.950 . S
H365 C385 0.950 . S
H366 C387 0.950 . S
H367 C390 0.950 . S
H368 C391 0.950 . S
H369 C393 0.950 . S
H370 C394 0.950 . S
H371 C395 0.951 . S
H372 C397 0.951 . S
H373 C399 0.950 . S
H374 C400 0.950 . S
H375 C402 0.950 . S
H376 C405 0.950 . S
H377 C406 0.950 . S
H378 C408 0.950 . S
H379 C409 0.950 . S
C380 H362 0.951 . S
C380 C381 1.366 . S
C380 C382 1.388 . S
C381 C380 1.366 . S
C381 C385 1.385 . S
C382 H363 0.951 . S
C382 C380 1.388 . S
C382 C383 1.366 . S
C383 C382 1.366 . S
C383 C384 1.414 . S
C383 C386 1.499 . S
C384 H364 0.950 . S
C384 C383 1.414 . S
C384 C385 1.374 . S
C385 H365 0.950 . S
C385 C381 1.385 . S
C385 C384 1.374 . S
C386 C383 1.499 . S
C386 C387 1.373 . S
C386 C388 1.389 . S
C387 H366 0.950 . S
C387 C386 1.373 . S
C387 C403 1.377 . S
C388 C386 1.389 . S
C388 C389 1.524 . S
C388 C402 1.377 . S
C389 C388 1.524 . S
C389 C390 1.397 . S
C389 C394 1.363 . S
C390 H367 0.950 . S
C390 C389 1.397 . S
C390 C391 1.334 . S
C391 H368 0.950 . S
C391 C390 1.334 . S
C391 C392 1.287 . S
C392 C391 1.287 . S
C392 C393 1.524 . S
C392 H411 0.913 . S
C393 H369 0.950 . S
C393 C392 1.524 . S
C393 C394 1.415 . S
C394 H370 0.950 . S
C394 C389 1.363 . S
C394 C393 1.415 . S
C395 H371 0.951 . S
C395 C396 1.366 . S
C395 C397 1.388 . S
C396 C395 1.366 . S
C396 C400 1.385 . S
C397 H372 0.951 . S
C397 C395 1.388 . S
C397 C398 1.366 . S
C398 C397 1.366 . S
C398 C399 1.414 . S
C398 C401 1.499 . S
C399 H373 0.950 . S
C399 C398 1.414 . S
C399 C400 1.374 . S
C400 H374 0.950 . S
C400 C396 1.385 . S
C400 C399 1.374 . S
C401 C398 1.499 . S
C401 C402 1.373 . S
C401 C403 1.389 . S
C402 H375 0.950 . S
C402 C388 1.377 . S
C402 C401 1.373 . S
C403 C387 1.377 . S
C403 C401 1.389 . S
C403 C404 1.524 . S
C404 C403 1.524 . S
C404 C405 1.397 . S
C404 C409 1.363 . S
C405 H376 0.950 . S
C405 C404 1.397 . S
C405 C406 1.334 . S
C406 H377 0.950 . S
C406 C405 1.334 . S
C406 C407 1.287 . S
C407 C406 1.287 . S
C407 C408 1.524 . S
C407 H410 0.999 . S
C408 H378 0.950 . S
C408 C407 1.524 . S
C408 C409 1.415 . S
C409 H379 0.950 . S
C409 C404 1.363 . S
C409 C408 1.415 . S
H410 C407 0.999 . S
H411 C392 0.913 . S
H412 C430 0.951 . S
H413 C432 0.951 . S
H414 C434 0.950 . S
H415 C435 0.950 . S
H416 C437 0.950 . S
H417 C440 0.950 . S
H418 C441 0.950 . S
H419 C443 0.950 . S
H420 C444 0.950 . S
H421 C445 0.951 . S
H422 C447 0.951 . S
H423 C449 0.950 . S
H424 C450 0.950 . S
H425 C452 0.950 . S
H426 C455 0.950 . S
H427 C456 0.950 . S
H428 C458 0.950 . S
H429 C459 0.950 . S
C430 H412 0.951 . S
C430 C431 1.366 . S
C430 C432 1.388 . S
C431 C430 1.366 . S
C431 C435 1.385 . S
C432 H413 0.951 . S
C432 C430 1.388 . S
C432 C433 1.366 . S
C433 C432 1.366 . S
C433 C434 1.414 . S
C433 C436 1.499 . S
C434 H414 0.950 . S
C434 C433 1.414 . S
C434 C435 1.374 . S
C435 H415 0.950 . S
C435 C431 1.385 . S
C435 C434 1.374 . S
C436 C433 1.499 . S
C436 C437 1.373 . S
C436 C438 1.389 . S
C437 H416 0.950 . S
C437 C436 1.373 . S
C437 C453 1.377 . S
C438 C436 1.389 . S
C438 C439 1.524 . S
C438 C452 1.377 . S
C439 C438 1.524 . S
C439 C440 1.397 . S
C439 C444 1.363 . S
C440 H417 0.950 . S
C440 C439 1.397 . S
C440 C441 1.334 . S
C441 H418 0.950 . S
C441 C440 1.334 . S
C441 C442 1.287 . S
C442 C441 1.287 . S
C442 C443 1.524 . S
C442 H461 0.913 . S
C443 H419 0.950 . S
C443 C442 1.524 . S
C443 C444 1.415 . S
C444 H420 0.950 . S
C444 C439 1.363 . S
C444 C443 1.415 . S
C445 H421 0.951 . S
C445 C446 1.366 . S
C445 C447 1.388 . S
C446 C445 1.366 . S
C446 C450 1.385 . S
C447 H422 0.951 . S
C447 C445 1.388 . S
C447 C448 1.366 . S
C448 C447 1.366 . S
C448 C449 1.414 . S
C448 C451 1.499 . S
C449 H423 0.950 . S
C449 C448 1.414 . S
C449 C450 1.374 . S
C450 H424 0.950 . S
C450 C446 1.385 . S
C450 C449 1.374 . S
C451 C448 1.499 . S
C451 C452 1.373 . S
C451 C453 1.389 . S
C452 H425 0.950 . S
C452 C438 1.377 . S
C452 C451 1.373 . S
C453 C437 1.377 . S
C453 C451 1.389 . S
C453 C454 1.524 . S
C454 C453 1.524 . S
C454 C455 1.397 . S
C454 C459 1.363 . S
C455 H426 0.950 . S
C455 C454 1.397 . S
C455 C456 1.334 . S
C456 H427 0.950 . S
C456 C455 1.334 . S
C456 C457 1.287 . S
C457 C456 1.287 . S
C457 C458 1.524 . S
C457 H460 0.999 . S
C458 H428 0.950 . S
C458 C457 1.524 . S
C458 C459 1.415 . S
C459 H429 0.950 . S
C459 C454 1.363 . S
C459 C458 1.415 . S
H460 C457 0.999 . S
H461 C442 0.913 . S
H462 C480 0.951 . S
H463 C482 0.951 . S
H464 C484 0.950 . S
H465 C485 0.950 . S
H466 C487 0.950 . S
H467 C490 0.950 . S
H468 C491 0.950 . S
H469 C493 0.950 . S
H470 C494 0.950 . S
H471 C495 0.951 . S
H472 C497 0.951 . S
H473 C499 0.950 . S
H474 C500 0.950 . S
H475 C502 0.950 . S
H476 C505 0.950 . S
H477 C506 0.950 . S
H478 C508 0.950 . S
H479 C509 0.950 . S
C480 H462 0.951 . S
C480 C481 1.366 . S
C480 C482 1.388 . S
C481 C480 1.366 . S
C481 C485 1.385 . S
C482 H463 0.951 . S
C482 C480 1.388 . S
C482 C483 1.366 . S
C483 C482 1.366 . S
C483 C484 1.414 . S
C483 C486 1.499 . S
C484 H464 0.950 . S
C484 C483 1.414 . S
C484 C485 1.374 . S
C485 H465 0.950 . S
C485 C481 1.385 . S
C485 C484 1.374 . S
C486 C483 1.499 . S
C486 C487 1.373 . S
C486 C488 1.389 . S
C487 H466 0.950 . S
C487 C486 1.373 . S
C487 C503 1.377 . S
C488 C486 1.389 . S
C488 C489 1.524 . S
C488 C502 1.377 . S
C489 C488 1.524 . S
C489 C490 1.397 . S
C489 C494 1.363 . S
C490 H467 0.950 . S
C490 C489 1.397 . S
C490 C491 1.334 . S
C491 H468 0.950 . S
C491 C490 1.334 . S
C491 C492 1.287 . S
C492 C491 1.287 . S
C492 C493 1.524 . S
C492 H511 0.913 . S
C493 H469 0.950 . S
C493 C492 1.524 . S
C493 C494 1.415 . S
C494 H470 0.950 . S
C494 C489 1.363 . S
C494 C493 1.415 . S
C495 H471 0.951 . S
C495 C496 1.366 . S
C495 C497 1.388 . S
C496 C495 1.366 . S
C496 C500 1.385 . S
C497 H472 0.951 . S
C497 C495 1.388 . S
C497 C498 1.366 . S
C498 C497 1.366 . S
C498 C499 1.414 . S
C498 C501 1.499 . S
C499 H473 0.950 . S
C499 C498 1.414 . S
C499 C500 1.374 . S
C500 H474 0.950 . S
C500 C496 1.385 . S
C500 C499 1.374 . S
C501 C498 1.499 . S
C501 C502 1.373 . S
C501 C503 1.389 . S
C502 H475 0.950 . S
C502 C488 1.377 . S
C502 C501 1.373 . S
C503 C487 1.377 . S
C503 C501 1.389 . S
C503 C504 1.524 . S
C504 C503 1.524 . S
C504 C505 1.397 . S
C504 C509 1.363 . S
C505 H476 0.950 . S
C505 C504 1.397 . S
C505 C506 1.334 . S
C506 H477 0.950 . S
C506 C505 1.334 . S
C506 C507 1.287 . S
C507 C506 1.287 . S
C507 C508 1.524 . S
C507 H510 0.999 1_655 S
C508 H478 0.950 . S
C508 C507 1.524 . S
C508 C509 1.415 . S
C509 H479 0.950 . S
C509 C504 1.363 . S
C509 C508 1.415 . S
H510 C507 0.999 1_455 S
H511 C492 0.913 . S
H512 C530 0.951 . S
H513 C532 0.951 . S
H514 C534 0.950 . S
H515 C535 0.950 . S
H516 C537 0.950 . S
H517 C540 0.950 . S
H518 C541 0.950 . S
H519 C543 0.950 . S
H520 C544 0.950 . S
H521 C545 0.951 . S
H522 C547 0.951 . S
H523 C549 0.950 . S
H524 C550 0.950 . S
H525 C552 0.950 . S
H526 C555 0.950 . S
H527 C556 0.950 . S
H528 C558 0.950 . S
H529 C559 0.950 . S
C530 H512 0.951 . S
C530 C531 1.366 . S
C530 C532 1.388 . S
C531 C530 1.366 . S
C531 C535 1.385 . S
C532 H513 0.951 . S
C532 C530 1.388 . S
C532 C533 1.366 . S
C533 C532 1.366 . S
C533 C534 1.414 . S
C533 C536 1.499 . S
C534 H514 0.950 . S
C534 C533 1.414 . S
C534 C535 1.374 . S
C535 H515 0.950 . S
C535 C531 1.385 . S
C535 C534 1.374 . S
C536 C533 1.499 . S
C536 C537 1.373 1_554 S
C536 C538 1.389 . S
C537 H516 0.950 . S
C537 C536 1.373 1_556 S
C537 C553 1.377 . S
C538 C536 1.389 . S
C538 C539 1.524 . S
C538 C552 1.377 . S
C539 C538 1.524 . S
C539 C540 1.397 . S
C539 C544 1.363 . S
C540 H517 0.950 . S
C540 C539 1.397 . S
C540 C541 1.334 . S
C541 H518 0.950 . S
C541 C540 1.334 . S
C541 C542 1.287 . S
C542 C541 1.287 . S
C542 C543 1.524 . S
C542 H561 0.913 . S
C543 H519 0.950 . S
C543 C542 1.524 . S
C543 C544 1.415 . S
C544 H520 0.950 . S
C544 C539 1.363 . S
C544 C543 1.415 . S
C545 H521 0.951 . S
C545 C546 1.366 . S
C545 C547 1.388 . S
C546 C545 1.366 . S
C546 C550 1.385 . S
C547 H522 0.951 . S
C547 C545 1.388 . S
C547 C548 1.366 . S
C548 C547 1.366 . S
C548 C549 1.414 . S
C548 C551 1.499 . S
C549 H523 0.950 . S
C549 C548 1.414 . S
C549 C550 1.374 . S
C550 H524 0.950 . S
C550 C546 1.385 . S
C550 C549 1.374 . S
C551 C548 1.499 . S
C551 C552 1.373 1_556 S
C551 C553 1.389 . S
C552 H525 0.950 . S
C552 C538 1.377 . S
C552 C551 1.373 1_554 S
C553 C537 1.377 . S
C553 C551 1.389 . S
C553 C554 1.524 . S
C554 C553 1.524 . S
C554 C555 1.397 . S
C554 C559 1.363 . S
C555 H526 0.950 . S
C555 C554 1.397 . S
C555 C556 1.334 . S
C556 H527 0.950 . S
C556 C555 1.334 . S
C556 C557 1.287 . S
C557 C556 1.287 . S
C557 C558 1.524 . S
C557 H560 0.999 . S
C558 H528 0.950 . S
C558 C557 1.524 . S
C558 C559 1.415 . S
C559 H529 0.950 . S
C559 C554 1.363 . S
C559 C558 1.415 . S
H560 C557 0.999 . S
H561 C542 0.913 . S
H562 C580 0.951 . S
H563 C582 0.951 . S
H564 C584 0.950 1_556 S
H565 C585 0.950 . S
H566 C587 0.950 . S
H567 C590 0.941 1_556 S
H568 C591 0.950 1_556 S
H569 C593 0.950 . S
H570 C594 0.950 . S
H571 C595 0.951 . S
H572 C597 0.951 . S
H573 C599 0.950 1_554 S
H574 C600 0.950 . S
H575 C602 0.950 . S
H576 C605 0.941 1_554 S
H577 C606 0.950 1_554 S
H578 C608 0.950 . S
H579 C609 0.950 . S
C580 H562 0.951 . S
C580 C581 1.366 . S
C580 C582 1.388 . S
C581 C580 1.366 . S
C581 C585 1.385 . S
C582 H563 0.951 . S
C582 C580 1.388 . S
C582 C583 1.366 . S
C583 C582 1.366 . S
C583 C584 1.414 . S
C583 C586 1.499 . S
C584 H564 0.950 1_554 S
C584 C583 1.414 . S
C584 C585 1.374 . S
C585 H565 0.950 . S
C585 C581 1.385 . S
C585 C584 1.374 . S
C586 C583 1.499 . S
C586 C587 1.373 1_455 S
C586 C588 1.389 . S
C587 H566 0.950 . S
C587 C586 1.373 1_655 S
C587 C603 1.377 1_554 S
C588 C586 1.389 . S
C588 C589 1.524 . S
C588 C602 1.377 1_554 S
C589 C588 1.524 . S
C589 C590 1.403 . S
C589 C594 1.363 . S
C590 H567 0.941 1_554 S
C590 C589 1.403 . S
C590 C591 1.336 . S
C591 H568 0.950 1_554 S
C591 C590 1.336 . S
C591 C592 1.287 . S
C592 C591 1.287 . S
C592 C593 1.524 . S
C592 H611 0.913 . S
C593 H569 0.950 . S
C593 C592 1.524 . S
C593 C594 1.415 . S
C594 H570 0.950 . S
C594 C589 1.363 . S
C594 C593 1.415 . S
C595 H571 0.951 . S
C595 C596 1.366 . S
C595 C597 1.388 . S
C596 C595 1.366 . S
C596 C600 1.385 . S
C597 H572 0.951 . S
C597 C595 1.388 . S
C597 C598 1.366 . S
C598 C597 1.366 . S
C598 C599 1.414 . S
C598 C601 1.499 . S
C599 H573 0.950 1_556 S
C599 C598 1.414 . S
C599 C600 1.374 . S
C600 H574 0.950 . S
C600 C596 1.385 . S
C600 C599 1.374 . S
C601 C598 1.499 . S
C601 C602 1.373 1_655 S
C601 C603 1.389 . S
C602 H575 0.950 . S
C602 C588 1.377 1_556 S
C602 C601 1.373 1_455 S
C603 C587 1.377 1_556 S
C603 C601 1.389 . S
C603 C604 1.524 . S
C604 C603 1.524 . S
C604 C605 1.403 . S
C604 C609 1.363 . S
C605 H576 0.941 1_556 S
C605 C604 1.403 . S
C605 C606 1.336 . S
C606 H577 0.950 1_556 S
C606 C605 1.336 . S
C606 C607 1.287 . S
C607 C606 1.287 . S
C607 C608 1.524 . S
C607 H610 0.999 . S
C608 H578 0.950 . S
C608 C607 1.524 . S
C608 C609 1.415 . S
C609 H579 0.950 . S
C609 C604 1.363 . S
C609 C608 1.415 . S
H610 C607 0.999 . S
H611 C592 0.913 . S
H612 C630 0.951 . S
H613 C632 0.951 . S
H614 C634 0.950 . S
H615 C635 0.950 . S
H616 C637 0.950 . S
H617 C640 0.950 . S
H618 C641 0.950 . S
H619 C643 0.950 . S
H620 C644 0.950 . S
H621 C645 0.951 . S
H622 C647 0.951 . S
H623 C649 0.950 . S
H624 C650 0.950 . S
H625 C652 0.950 . S
H626 C655 0.950 . S
H627 C656 0.950 . S
H628 C658 0.950 . S
H629 C659 0.950 . S
C630 H612 0.951 . S
C630 C631 1.366 . S
C630 C632 1.388 . S
C631 C630 1.366 . S
C631 C635 1.385 . S
C632 H613 0.951 . S
C632 C630 1.388 . S
C632 C633 1.366 . S
C633 C632 1.366 . S
C633 C634 1.414 . S
C633 C636 1.499 . S
C634 H614 0.950 . S
C634 C633 1.414 . S
C634 C635 1.374 . S
C635 H615 0.950 . S
C635 C631 1.385 . S
C635 C634 1.374 . S
C636 C633 1.499 . S
C636 C637 1.373 . S
C636 C638 1.389 1_565 S
C637 H616 0.950 . S
C637 C636 1.373 . S
C637 C653 1.377 . S
C638 C636 1.389 1_545 S
C638 C639 1.524 . S
C638 C652 1.377 . S
C639 C638 1.524 . S
C639 C640 1.397 . S
C639 C644 1.363 . S
C640 H617 0.950 . S
C640 C639 1.397 . S
C640 C641 1.334 . S
C641 H618 0.950 . S
C641 C640 1.334 . S
C641 C642 1.287 . S
C642 C641 1.287 . S
C642 C643 1.524 . S
C642 H661 0.913 . S
C643 H619 0.950 . S
C643 C642 1.524 . S
C643 C644 1.415 . S
C644 H620 0.950 . S
C644 C639 1.363 . S
C644 C643 1.415 . S
C645 H621 0.951 . S
C645 C646 1.366 . S
C645 C647 1.388 . S
C646 C645 1.366 . S
C646 C650 1.385 . S
C647 H622 0.951 . S
C647 C645 1.388 . S
C647 C648 1.366 . S
C648 C647 1.366 . S
C648 C649 1.414 . S
C648 C651 1.499 . S
C649 H623 0.950 . S
C649 C648 1.414 . S
C649 C650 1.374 . S
C650 H624 0.950 . S
C650 C646 1.385 . S
C650 C649 1.374 . S
C651 C648 1.499 . S
C651 C652 1.373 . S
C651 C653 1.389 1_545 S
C652 H625 0.950 . S
C652 C638 1.377 . S
C652 C651 1.373 . S
C653 C637 1.377 . S
C653 C651 1.389 1_565 S
C653 C654 1.524 . S
C654 C653 1.524 . S
C654 C655 1.397 . S
C654 C659 1.363 . S
C655 H626 0.950 . S
C655 C654 1.397 . S
C655 C656 1.334 . S
C656 H627 0.950 . S
C656 C655 1.334 . S
C656 C657 1.287 . S
C657 C656 1.287 . S
C657 C658 1.524 . S
C657 H660 0.999 . S
C658 H628 0.950 . S
C658 C657 1.524 . S
C658 C659 1.415 . S
C659 H629 0.950 . S
C659 C654 1.363 . S
C659 C658 1.415 . S
H660 C657 0.999 . S
H661 C642 0.913 . S
H662 C680 0.951 . S
H663 C682 0.951 . S
H664 C684 0.950 . S
H665 C685 0.950 . S
H666 C687 0.950 . S
H667 C690 0.950 . S
H668 C691 0.950 . S
H669 C693 0.950 . S
H670 C694 0.950 . S
H671 C695 0.951 . S
H672 C697 0.951 . S
H673 C699 0.950 . S
H674 C700 0.950 . S
H675 C702 0.950 . S
H676 C705 0.950 . S
H677 C706 0.950 . S
H678 C708 0.950 . S
H679 C709 0.950 . S
C680 H662 0.951 . S
C680 C681 1.366 . S
C680 C682 1.388 . S
C681 C680 1.366 . S
C681 C685 1.385 . S
C682 H663 0.951 . S
C682 C680 1.388 . S
C682 C683 1.366 . S
C683 C682 1.366 . S
C683 C684 1.414 . S
C683 C686 1.499 . S
C684 H664 0.950 . S
C684 C683 1.414 . S
C684 C685 1.374 . S
C685 H665 0.950 . S
C685 C681 1.385 . S
C685 C684 1.374 . S
C686 C683 1.499 . S
C686 C687 1.373 1_545 S
C686 C688 1.389 . S
C687 H666 0.950 . S
C687 C686 1.373 1_565 S
C687 C703 1.377 1_655 S
C688 C686 1.389 . S
C688 C689 1.524 . S
C688 C702 1.377 1_655 S
C689 C688 1.524 . S
C689 C690 1.397 . S
C689 C694 1.363 1_655 S
C690 H667 0.950 . S
C690 C689 1.397 . S
C690 C691 1.334 . S
C691 H668 0.950 . S
C691 C690 1.334 . S
C691 C692 1.287 . S
C692 C691 1.287 . S
C692 C693 1.524 1_655 S
C692 H711 0.913 . S
C693 H669 0.950 . S
C693 C692 1.524 1_455 S
C693 C694 1.415 . S
C694 H670 0.950 . S
C694 C689 1.363 1_455 S
C694 C693 1.415 . S
C695 H671 0.951 . S
C695 C696 1.366 . S
C695 C697 1.388 . S
C696 C695 1.366 . S
C696 C700 1.385 . S
C697 H672 0.951 . S
C697 C695 1.388 . S
C697 C698 1.366 . S
C698 C697 1.366 . S
C698 C699 1.414 . S
C698 C701 1.499 . S
C699 H673 0.950 . S
C699 C698 1.414 . S
C699 C700 1.374 . S
C700 H674 0.950 . S
C700 C696 1.385 . S
C700 C699 1.374 . S
C701 C698 1.499 . S
C701 C702 1.373 1_565 S
C701 C703 1.389 . S
C702 H675 0.950 . S
C702 C688 1.377 1_455 S
C702 C701 1.373 1_545 S
C703 C687 1.377 1_455 S
C703 C701 1.389 . S
C703 C704 1.524 . S
C704 C703 1.524 . S
C704 C705 1.397 . S
C704 C709 1.363 1_455 S
C705 H676 0.950 . S
C705 C704 1.397 . S
C705 C706 1.334 . S
C706 H677 0.950 . S
C706 C705 1.334 . S
C706 C707 1.287 . S
C707 C706 1.287 . S
C707 C708 1.524 1_455 S
C707 H710 0.999 . S
C708 H678 0.950 . S
C708 C707 1.524 1_655 S
C708 C709 1.415 . S
C709 H679 0.950 . S
C709 C704 1.363 1_655 S
C709 C708 1.415 . S
H710 C707 0.999 . S
H711 C692 0.913 . S
H712 C730 0.951 . S
H713 C732 0.951 . S
H714 C734 0.950 . S
H715 C735 0.950 . S
H716 C737 0.950 . S
H717 C740 0.950 . S
H718 C741 0.950 . S
H719 C743 0.950 . S
H720 C744 0.950 . S
H721 C745 0.951 . S
H722 C747 0.951 . S
H723 C749 0.950 . S
H724 C750 0.950 . S
H725 C752 0.950 . S
H726 C755 0.950 . S
H727 C756 0.950 . S
H728 C758 0.950 . S
H729 C759 0.950 . S
C730 H712 0.951 . S
C730 C731 1.366 . S
C730 C732 1.388 . S
C731 C730 1.366 . S
C731 C735 1.385 . S
C732 H713 0.951 . S
C732 C730 1.388 . S
C732 C733 1.366 . S
C733 C732 1.366 . S
C733 C734 1.414 . S
C733 C736 1.499 . S
C734 H714 0.950 . S
C734 C733 1.414 . S
C734 C735 1.374 . S
C735 H715 0.950 . S
C735 C731 1.385 . S
C735 C734 1.374 . S
C736 C733 1.499 . S
C736 C737 1.373 . S
C736 C738 1.389 . S
C737 H716 0.950 . S
C737 C736 1.373 . S
C737 C753 1.377 . S
C738 C736 1.389 . S
C738 C739 1.524 . S
C738 C752 1.377 . S
C739 C738 1.524 . S
C739 C740 1.397 . S
C739 C744 1.363 . S
C740 H717 0.950 . S
C740 C739 1.397 . S
C740 C741 1.334 . S
C741 H718 0.950 . S
C741 C740 1.334 . S
C741 C742 1.287 . S
C742 C741 1.287 . S
C742 C743 1.524 . S
C742 H761 0.913 . S
C743 H719 0.950 . S
C743 C742 1.524 . S
C743 C744 1.415 . S
C744 H720 0.950 . S
C744 C739 1.363 . S
C744 C743 1.415 . S
C745 H721 0.951 . S
C745 C746 1.366 . S
C745 C747 1.388 . S
C746 C745 1.366 . S
C746 C750 1.385 . S
C747 H722 0.951 . S
C747 C745 1.388 . S
C747 C748 1.366 . S
C748 C747 1.366 . S
C748 C749 1.414 . S
C748 C751 1.499 . S
C749 H723 0.950 . S
C749 C748 1.414 . S
C749 C750 1.374 . S
C750 H724 0.950 . S
C750 C746 1.385 . S
C750 C749 1.374 . S
C751 C748 1.499 . S
C751 C752 1.373 . S
C751 C753 1.389 . S
C752 H725 0.950 . S
C752 C738 1.377 . S
C752 C751 1.373 . S
C753 C737 1.377 . S
C753 C751 1.389 . S
C753 C754 1.524 . S
C754 C753 1.524 . S
C754 C755 1.397 . S
C754 C759 1.363 . S
C755 H726 0.950 . S
C755 C754 1.397 . S
C755 C756 1.334 . S
C756 H727 0.950 . S
C756 C755 1.334 . S
C756 C757 1.287 1_554 S
C757 C756 1.287 1_556 S
C757 C758 1.524 . S
C757 H760 0.999 . S
C758 H728 0.950 . S
C758 C757 1.524 . S
C758 C759 1.415 1_556 S
C759 H729 0.950 . S
C759 C754 1.363 . S
C759 C758 1.415 1_554 S
H760 C757 0.999 . S
H761 C742 0.913 . S
H762 C780 0.951 . S
H763 C782 0.951 . S
H764 C784 0.950 . S
H765 C785 0.950 . S
H766 C787 0.950 . S
H767 C790 0.950 . S
H768 C791 0.950 . S
H769 C793 0.950 . S
H770 C794 0.950 . S
H771 C795 0.951 . S
H772 C797 0.951 . S
H773 C799 0.950 . S
H774 C800 0.950 . S
H775 C802 0.950 . S
H776 C805 0.950 . S
H777 C806 0.950 . S
H778 C808 0.950 . S
H779 C809 0.950 . S
C780 H762 0.951 . S
C780 C781 1.366 . S
C780 C782 1.388 . S
C781 C780 1.366 . S
C781 C785 1.385 . S
C782 H763 0.951 . S
C782 C780 1.388 . S
C782 C783 1.366 . S
C783 C782 1.366 . S
C783 C784 1.414 . S
C783 C786 1.499 . S
C784 H764 0.950 . S
C784 C783 1.414 . S
C784 C785 1.374 . S
C785 H765 0.950 . S
C785 C781 1.385 . S
C785 C784 1.374 . S
C786 C783 1.499 . S
C786 C787 1.373 . S
C786 C788 1.389 . S
C787 H766 0.950 . S
C787 C786 1.373 . S
C787 C803 1.377 1_545 S
C788 C786 1.389 . S
C788 C789 1.524 . S
C788 C802 1.377 1_545 S
C789 C788 1.524 . S
C789 C790 1.397 . S
C789 C794 1.363 1_545 S
C790 H767 0.950 . S
C790 C789 1.397 . S
C790 C791 1.334 . S
C791 H768 0.950 . S
C791 C790 1.334 . S
C791 C792 1.287 . S
C792 C791 1.287 . S
C792 C793 1.524 1_545 S
C792 H811 0.913 . S
C793 H769 0.950 . S
C793 C792 1.524 1_565 S
C793 C794 1.415 . S
C794 H770 0.950 . S
C794 C789 1.363 1_565 S
C794 C793 1.415 . S
C795 H771 0.951 . S
C795 C796 1.366 . S
C795 C797 1.388 . S
C796 C795 1.366 . S
C796 C800 1.385 . S
C797 H772 0.951 . S
C797 C795 1.388 . S
C797 C798 1.366 . S
C798 C797 1.366 . S
C798 C799 1.414 . S
C798 C801 1.499 . S
C799 H773 0.950 . S
C799 C798 1.414 . S
C799 C800 1.374 . S
C800 H774 0.950 . S
C800 C796 1.385 . S
C800 C799 1.374 . S
C801 C798 1.499 . S
C801 C802 1.373 . S
C801 C803 1.389 . S
C802 H775 0.950 . S
C802 C788 1.377 1_565 S
C802 C801 1.373 . S
C803 C787 1.377 1_565 S
C803 C801 1.389 . S
C803 C804 1.524 . S
C804 C803 1.524 . S
C804 C805 1.397 . S
C804 C809 1.363 1_565 S
C805 H776 0.950 . S
C805 C804 1.397 . S
C805 C806 1.334 . S
C806 H777 0.950 . S
C806 C805 1.334 . S
C806 C807 1.287 . S
C807 C806 1.287 . S
C807 C808 1.524 1_565 S
C807 H810 0.999 . S
C808 H778 0.950 . S
C808 C807 1.524 1_545 S
C808 C809 1.415 . S
C809 H779 0.950 . S
C809 C804 1.363 1_545 S
C809 C808 1.415 . S
H810 C807 0.999 . S
H811 C792 0.913 . S
H812 C830 0.951 . S
H813 C832 0.951 . S
H814 C834 0.950 . S
H815 C835 0.950 . S
H816 C837 0.950 . S
H817 C840 0.950 . S
H818 C841 0.950 . S
H819 C843 0.950 . S
H820 C844 0.950 . S
H821 C845 0.951 . S
H822 C847 0.951 . S
H823 C849 0.950 . S
H824 C850 0.950 . S
H825 C852 0.950 . S
H826 C855 0.950 . S
H827 C856 0.950 . S
H828 C858 0.950 1_554 S
H829 C859 0.950 . S
C830 H812 0.951 . S
C830 C831 1.366 . S
C830 C832 1.388 . S
C831 C830 1.366 . S
C831 C835 1.385 . S
C832 H813 0.951 . S
C832 C830 1.388 . S
C832 C833 1.366 . S
C833 C832 1.366 . S
C833 C834 1.414 . S
C833 C836 1.499 . S
C834 H814 0.950 . S
C834 C833 1.414 . S
C834 C835 1.374 . S
C835 H815 0.950 . S
C835 C831 1.385 . S
C835 C834 1.374 . S
C836 C833 1.499 . S
C836 C837 1.373 . S
C836 C838 1.389 . S
C837 H816 0.950 . S
C837 C836 1.373 . S
C837 C853 1.377 . S
C838 C836 1.389 . S
C838 C839 1.524 . S
C838 C852 1.377 . S
C839 C838 1.524 . S
C839 C840 1.397 . S
C839 C844 1.363 . S
C840 H817 0.950 . S
C840 C839 1.397 . S
C840 C841 1.334 . S
C841 H818 0.950 . S
C841 C840 1.334 . S
C841 C842 1.287 . S
C842 C841 1.287 . S
C842 C843 1.524 . S
C842 H861 0.913 . S
C843 H819 0.950 . S
C843 C842 1.524 . S
C843 C844 1.415 . S
C844 H820 0.950 . S
C844 C839 1.363 . S
C844 C843 1.415 . S
C845 H821 0.951 . S
C845 C846 1.366 . S
C845 C847 1.388 . S
C846 C845 1.366 . S
C846 C850 1.385 . S
C847 H822 0.951 . S
C847 C845 1.388 . S
C847 C848 1.366 . S
C848 C847 1.366 . S
C848 C849 1.414 . S
C848 C851 1.499 . S
C849 H823 0.950 . S
C849 C848 1.414 . S
C849 C850 1.374 . S
C850 H824 0.950 . S
C850 C846 1.385 . S
C850 C849 1.374 . S
C851 C848 1.499 . S
C851 C852 1.373 . S
C851 C853 1.389 . S
C852 H825 0.950 . S
C852 C838 1.377 . S
C852 C851 1.373 . S
C853 C837 1.377 . S
C853 C851 1.389 . S
C853 C854 1.524 . S
C854 C853 1.524 . S
C854 C855 1.397 . S
C854 C859 1.363 . S
C855 H826 0.950 . S
C855 C854 1.397 . S
C855 C856 1.334 . S
C856 H827 0.950 . S
C856 C855 1.334 . S
C856 C857 1.287 . S
C857 C856 1.287 . S
C857 C858 1.524 . S
C857 H860 0.999 . S
C858 H828 0.950 1_556 S
C858 C857 1.524 . S
C858 C859 1.415 . S
C859 H829 0.950 . S
C859 C854 1.363 . S
C859 C858 1.415 . S
H860 C857 0.999 . S
H861 C842 0.913 . S
H862 C880 0.951 . S
H863 C882 0.951 . S
H864 C884 0.950 . S
H865 C885 0.950 . S
H866 C887 0.950 . S
H867 C890 0.950 . S
H868 C891 0.950 . S
H869 C893 0.950 . S
H870 C894 0.950 . S
H871 C895 0.951 . S
H872 C897 0.951 . S
H873 C899 0.950 . S
H874 C900 0.950 . S
H875 C902 0.950 . S
H876 C905 0.950 . S
H877 C906 0.950 . S
H878 C908 0.950 . S
H879 C909 0.950 . S
C880 H862 0.951 . S
C880 C881 1.366 . S
C880 C882 1.388 . S
C881 C880 1.366 . S
C881 C885 1.385 . S
C882 H863 0.951 . S
C882 C880 1.388 . S
C882 C883 1.366 . S
C883 C882 1.366 . S
C883 C884 1.414 . S
C883 C886 1.499 . S
C884 H864 0.950 . S
C884 C883 1.414 . S
C884 C885 1.374 . S
C885 H865 0.950 . S
C885 C881 1.385 . S
C885 C884 1.374 . S
C886 C883 1.499 . S
C886 C887 1.373 . S
C886 C888 1.385 1_565 S
C887 H866 0.950 . S
C887 C886 1.373 . S
C887 C903 1.381 . S
C888 C886 1.385 1_545 S
C888 C889 1.525 . S
C888 C902 1.381 . S
C889 C888 1.525 . S
C889 C890 1.397 . S
C889 C894 1.363 . S
C890 H867 0.950 . S
C890 C889 1.397 . S
C890 C891 1.334 . S
C891 H868 0.950 . S
C891 C890 1.334 . S
C891 C892 1.287 . S
C892 C891 1.287 . S
C892 C893 1.524 . S
C892 H911 0.913 . S
C893 H869 0.950 . S
C893 C892 1.524 . S
C893 C894 1.415 . S
C894 H870 0.950 . S
C894 C889 1.363 . S
C894 C893 1.415 . S
C895 H871 0.951 . S
C895 C896 1.366 . S
C895 C897 1.388 . S
C896 C895 1.366 . S
C896 C900 1.385 . S
C897 H872 0.951 . S
C897 C895 1.388 . S
C897 C898 1.366 . S
C898 C897 1.366 . S
C898 C899 1.414 . S
C898 C901 1.499 . S
C899 H873 0.950 . S
C899 C898 1.414 . S
C899 C900 1.374 . S
C900 H874 0.950 . S
C900 C896 1.385 . S
C900 C899 1.374 . S
C901 C898 1.499 . S
C901 C902 1.373 . S
C901 C903 1.385 1_545 S
C902 H875 0.950 . S
C902 C888 1.381 . S
C902 C901 1.373 . S
C903 C887 1.381 . S
C903 C901 1.385 1_565 S
C903 C904 1.525 . S
C904 C903 1.525 . S
C904 C905 1.397 . S
C904 C909 1.363 . S
C905 H876 0.950 . S
C905 C904 1.397 . S
C905 C906 1.334 . S
C906 H877 0.950 . S
C906 C905 1.334 . S
C906 C907 1.287 . S
C907 C906 1.287 . S
C907 C908 1.524 . S
C907 H910 0.999 . S
C908 H878 0.950 . S
C908 C907 1.524 . S
C908 C909 1.415 . S
C909 H879 0.950 . S
C909 C904 1.363 . S
C909 C908 1.415 . S
H910 C907 0.999 . S
H911 C892 0.913 . S
C131 C12 1.131 . S
C146 C26 1.132 . S
C181 C54 1.131 . S
C196 C40 1.132 . S
C231 C68 1.132 . S
C246 C82 1.132 . S
C281 C96 1.132 . S
C296 C110 1.131 . S
C331 C11 1.432 . S
C346 C39 1.432 . S
C381 C53 1.432 . S
C396 C25 1.432 . S
C431 C67 1.433 . S
C446 C95 1.431 . S
C481 C109 1.432 . S
C496 C81 1.431 . S
C531 C5 1.343 . S
C546 C61 1.343 . S
C581 C19 1.342 . S
C596 C75 1.342 . S
C631 C89 1.342 . S
C646 C33 1.342 . S
C681 C103 1.343 . S
C696 C47 1.343 . S
C731 C18 0.647 . S
C746 C4 0.645 . S
C781 C32 0.646 . S
C796 C46 0.644 . S
C831 C60 0.645 . S
C846 C74 0.644 . S
C881 C88 0.645 . S
C896 C102 0.644 . S
