# Generated by pormake.
# Topology wgl, (5)-cn, num edge types: 1
# Building blocks:
#     Node 0, Type 0, BuildingBlock: BEQFEK_clean_sbu_0, # of connection points: 5
#     Node 1, Type 0, BuildingBlock: BEQFEK_clean_sbu_0, # of connection points: 5
#     Node 2, Type 0, BuildingBlock: BEQFEK_clean_sbu_0, # of connection points: 5
#     Node 3, Type 0, BuildingBlock: BEQFEK_clean_sbu_0, # of connection points: 5
#     Node 4, Type 0, BuildingBlock: BEQFEK_clean_sbu_0, # of connection points: 5
#     Node 5, Type 0, BuildingBlock: BEQFEK_clean_sbu_0, # of connection points: 5
#     Node 6, Type 0, BuildingBlock: BEQFEK_clean_sbu_0, # of connection points: 5
#     Node 7, Type 0, BuildingBlock: BEQFEK_clean_sbu_0, # of connection points: 5
#     Node 8, Type 0, BuildingBlock: BEQFEK_clean_sbu_0, # of connection points: 5
#     Node 9, Type 0, BuildingBlock: BEQFEK_clean_sbu_0, # of connection points: 5
#     Node 10, Type 0, BuildingBlock: BEQFEK_clean_sbu_0, # of connection points: 5
#     Node 11, Type 0, BuildingBlock: BEQFEK_clean_sbu_0, # of connection points: 5
#     Node 12, Type 0, BuildingBlock: BEQFEK_clean_sbu_0, # of connection points: 5
#     Node 13, Type 0, BuildingBlock: BEQFEK_clean_sbu_0, # of connection points: 5
#     Node 14, Type 0, BuildingBlock: BEQFEK_clean_sbu_0, # of connection points: 5
#     Node 15, Type 0, BuildingBlock: BEQFEK_clean_sbu_0, # of connection points: 5
#     Node 16, Type 0, BuildingBlock: BEQFEK_clean_sbu_0, # of connection points: 5
#     Node 17, Type 0, BuildingBlock: BEQFEK_clean_sbu_0, # of connection points: 5
#     Node 18, Type 0, BuildingBlock: BEQFEK_clean_sbu_0, # of connection points: 5
#     Node 19, Type 0, BuildingBlock: BEQFEK_clean_sbu_0, # of connection points: 5
#     Node 20, Type 0, BuildingBlock: BEQFEK_clean_sbu_0, # of connection points: 5
#     Node 21, Type 0, BuildingBlock: BEQFEK_clean_sbu_0, # of connection points: 5
#     Node 22, Type 0, BuildingBlock: BEQFEK_clean_sbu_0, # of connection points: 5
#     Node 23, Type 0, BuildingBlock: BEQFEK_clean_sbu_0, # of connection points: 5
#     Node 24, Type 0, BuildingBlock: BEQFEK_clean_sbu_0, # of connection points: 5
#     Node 25, Type 0, BuildingBlock: BEQFEK_clean_sbu_0, # of connection points: 5
#     Node 26, Type 0, BuildingBlock: BEQFEK_clean_sbu_0, # of connection points: 5
#     Node 27, Type 0, BuildingBlock: BEQFEK_clean_sbu_0, # of connection points: 5
#     Node 28, Type 0, BuildingBlock: BEQFEK_clean_sbu_0, # of connection points: 5
#     Node 29, Type 0, BuildingBlock: BEQFEK_clean_sbu_0, # of connection points: 5
#     Node 30, Type 0, BuildingBlock: BEQFEK_clean_sbu_0, # of connection points: 5
#     Node 31, Type 0, BuildingBlock: BEQFEK_clean_sbu_0, # of connection points: 5
#     Edge 32, Type (0, 0), BuildingBlock: XUDNAN_clean_linker_2, # of connection points: 2
#     Edge 33, Type (0, 0), BuildingBlock: XUDNAN_clean_linker_2, # of connection points: 2
#     Edge 34, Type (0, 0), BuildingBlock: XUDNAN_clean_linker_2, # of connection points: 2
#     Edge 35, Type (0, 0), BuildingBlock: XUDNAN_clean_linker_2, # of connection points: 2
#     Edge 36, Type (0, 0), BuildingBlock: XUDNAN_clean_linker_2, # of connection points: 2
#     Edge 37, Type (0, 0), BuildingBlock: XUDNAN_clean_linker_2, # of connection points: 2
#     Edge 38, Type (0, 0), BuildingBlock: XUDNAN_clean_linker_2, # of connection points: 2
#     Edge 39, Type (0, 0), BuildingBlock: XUDNAN_clean_linker_2, # of connection points: 2
#     Edge 40, Type (0, 0), BuildingBlock: XUDNAN_clean_linker_2, # of connection points: 2
#     Edge 41, Type (0, 0), BuildingBlock: XUDNAN_clean_linker_2, # of connection points: 2
#     Edge 42, Type (0, 0), BuildingBlock: XUDNAN_clean_linker_2, # of connection points: 2
#     Edge 43, Type (0, 0), BuildingBlock: XUDNAN_clean_linker_2, # of connection points: 2
#     Edge 44, Type (0, 0), BuildingBlock: XUDNAN_clean_linker_2, # of connection points: 2
#     Edge 45, Type (0, 0), BuildingBlock: XUDNAN_clean_linker_2, # of connection points: 2
#     Edge 46, Type (0, 0), BuildingBlock: XUDNAN_clean_linker_2, # of connection points: 2
#     Edge 47, Type (0, 0), BuildingBlock: XUDNAN_clean_linker_2, # of connection points: 2
#     Edge 48, Type (0, 0), BuildingBlock: XUDNAN_clean_linker_2, # of connection points: 2
#     Edge 49, Type (0, 0), BuildingBlock: XUDNAN_clean_linker_2, # of connection points: 2
#     Edge 50, Type (0, 0), BuildingBlock: XUDNAN_clean_linker_2, # of connection points: 2
#     Edge 51, Type (0, 0), BuildingBlock: XUDNAN_clean_linker_2, # of connection points: 2
#     Edge 52, Type (0, 0), BuildingBlock: XUDNAN_clean_linker_2, # of connection points: 2
#     Edge 53, Type (0, 0), BuildingBlock: XUDNAN_clean_linker_2, # of connection points: 2
#     Edge 54, Type (0, 0), BuildingBlock: XUDNAN_clean_linker_2, # of connection points: 2
#     Edge 55, Type (0, 0), BuildingBlock: XUDNAN_clean_linker_2, # of connection points: 2
#     Edge 56, Type (0, 0), BuildingBlock: XUDNAN_clean_linker_2, # of connection points: 2
#     Edge 57, Type (0, 0), BuildingBlock: XUDNAN_clean_linker_2, # of connection points: 2
#     Edge 58, Type (0, 0), BuildingBlock: XUDNAN_clean_linker_2, # of connection points: 2
#     Edge 59, Type (0, 0), BuildingBlock: XUDNAN_clean_linker_2, # of connection points: 2
#     Edge 60, Type (0, 0), BuildingBlock: XUDNAN_clean_linker_2, # of connection points: 2
#     Edge 61, Type (0, 0), BuildingBlock: XUDNAN_clean_linker_2, # of connection points: 2
#     Edge 62, Type (0, 0), BuildingBlock: XUDNAN_clean_linker_2, # of connection points: 2
#     Edge 63, Type (0, 0), BuildingBlock: XUDNAN_clean_linker_2, # of connection points: 2
#     Edge 64, Type (0, 0), BuildingBlock: XUDNAN_clean_linker_2, # of connection points: 2
#     Edge 65, Type (0, 0), BuildingBlock: XUDNAN_clean_linker_2, # of connection points: 2
#     Edge 66, Type (0, 0), BuildingBlock: XUDNAN_clean_linker_2, # of connection points: 2
#     Edge 67, Type (0, 0), BuildingBlock: XUDNAN_clean_linker_2, # of connection points: 2
#     Edge 68, Type (0, 0), BuildingBlock: XUDNAN_clean_linker_2, # of connection points: 2
#     Edge 69, Type (0, 0), BuildingBlock: XUDNAN_clean_linker_2, # of connection points: 2
#     Edge 70, Type (0, 0), BuildingBlock: XUDNAN_clean_linker_2, # of connection points: 2
#     Edge 71, Type (0, 0), BuildingBlock: XUDNAN_clean_linker_2, # of connection points: 2
#     Edge 72, Type (0, 0), BuildingBlock: XUDNAN_clean_linker_2, # of connection points: 2
#     Edge 73, Type (0, 0), BuildingBlock: XUDNAN_clean_linker_2, # of connection points: 2
#     Edge 74, Type (0, 0), BuildingBlock: XUDNAN_clean_linker_2, # of connection points: 2
#     Edge 75, Type (0, 0), BuildingBlock: XUDNAN_clean_linker_2, # of connection points: 2
#     Edge 76, Type (0, 0), BuildingBlock: XUDNAN_clean_linker_2, # of connection points: 2
#     Edge 77, Type (0, 0), BuildingBlock: XUDNAN_clean_linker_2, # of connection points: 2
#     Edge 78, Type (0, 0), BuildingBlock: XUDNAN_clean_linker_2, # of connection points: 2
#     Edge 79, Type (0, 0), BuildingBlock: XUDNAN_clean_linker_2, # of connection points: 2
#     Edge 80, Type (0, 0), BuildingBlock: XUDNAN_clean_linker_2, # of connection points: 2
#     Edge 81, Type (0, 0), BuildingBlock: XUDNAN_clean_linker_2, # of connection points: 2
#     Edge 82, Type (0, 0), BuildingBlock: XUDNAN_clean_linker_2, # of connection points: 2
#     Edge 83, Type (0, 0), BuildingBlock: XUDNAN_clean_linker_2, # of connection points: 2
#     Edge 84, Type (0, 0), BuildingBlock: XUDNAN_clean_linker_2, # of connection points: 2
#     Edge 85, Type (0, 0), BuildingBlock: XUDNAN_clean_linker_2, # of connection points: 2
#     Edge 86, Type (0, 0), BuildingBlock: XUDNAN_clean_linker_2, # of connection points: 2
#     Edge 87, Type (0, 0), BuildingBlock: XUDNAN_clean_linker_2, # of connection points: 2
#     Edge 88, Type (0, 0), BuildingBlock: XUDNAN_clean_linker_2, # of connection points: 2
#     Edge 89, Type (0, 0), BuildingBlock: XUDNAN_clean_linker_2, # of connection points: 2
#     Edge 90, Type (0, 0), BuildingBlock: XUDNAN_clean_linker_2, # of connection points: 2
#     Edge 91, Type (0, 0), BuildingBlock: XUDNAN_clean_linker_2, # of connection points: 2
#     Edge 92, Type (0, 0), BuildingBlock: XUDNAN_clean_linker_2, # of connection points: 2
#     Edge 93, Type (0, 0), BuildingBlock: XUDNAN_clean_linker_2, # of connection points: 2
#     Edge 94, Type (0, 0), BuildingBlock: XUDNAN_clean_linker_2, # of connection points: 2
#     Edge 95, Type (0, 0), BuildingBlock: XUDNAN_clean_linker_2, # of connection points: 2
#     Edge 96, Type (0, 0), BuildingBlock: XUDNAN_clean_linker_2, # of connection points: 2
#     Edge 97, Type (0, 0), BuildingBlock: XUDNAN_clean_linker_2, # of connection points: 2
#     Edge 98, Type (0, 0), BuildingBlock: XUDNAN_clean_linker_2, # of connection points: 2
#     Edge 99, Type (0, 0), BuildingBlock: XUDNAN_clean_linker_2, # of connection points: 2
#     Edge 100, Type (0, 0), BuildingBlock: XUDNAN_clean_linker_2, # of connection points: 2
#     Edge 101, Type (0, 0), BuildingBlock: XUDNAN_clean_linker_2, # of connection points: 2
#     Edge 102, Type (0, 0), BuildingBlock: XUDNAN_clean_linker_2, # of connection points: 2
#     Edge 103, Type (0, 0), BuildingBlock: XUDNAN_clean_linker_2, # of connection points: 2
#     Edge 104, Type (0, 0), BuildingBlock: XUDNAN_clean_linker_2, # of connection points: 2
#     Edge 105, Type (0, 0), BuildingBlock: XUDNAN_clean_linker_2, # of connection points: 2
#     Edge 106, Type (0, 0), BuildingBlock: XUDNAN_clean_linker_2, # of connection points: 2
#     Edge 107, Type (0, 0), BuildingBlock: XUDNAN_clean_linker_2, # of connection points: 2
#     Edge 108, Type (0, 0), BuildingBlock: XUDNAN_clean_linker_2, # of connection points: 2
#     Edge 109, Type (0, 0), BuildingBlock: XUDNAN_clean_linker_2, # of connection points: 2
#     Edge 110, Type (0, 0), BuildingBlock: XUDNAN_clean_linker_2, # of connection points: 2
#     Edge 111, Type (0, 0), BuildingBlock: XUDNAN_clean_linker_2, # of connection points: 2
# Relax obj value: 0.070
# Max RMSD: 0.100
# Mean RMSD: 0.100
data_MOF--net-wgl--node1-BEQFEK_clean_sbu_0--edge1-XUDNAN_clean_linker_2
_symmetry_space_group_name_H-M    P1
_symmetry_Int_Tables_number       1
_symmetry_cell_setting            triclinic
loop_
_symmetry_equiv_pos_as_xyz
'x, y, z'
_cell_length_a     56.676794
_cell_length_b     56.676278
_cell_length_c     59.256141
_cell_angle_alpha  90.015599
_cell_angle_beta   90.007817
_cell_angle_gamma 90.042076
loop_
_atom_site_label
_atom_site_type_symbol
_atom_site_fract_x
_atom_site_fract_y
_atom_site_fract_z
_atom_type_partial_charge
Co0 Co 0.31078 0.26622 0.12539 0.0
Co1 Co 0.28501 0.31316 0.13829 0.0
C2 C 0.27767 0.28949 0.09296 0.0
O3 O 0.29104 0.27199 0.09753 0.0
O4 O 0.27439 0.30599 0.10725 0.0
C5 C 0.31847 0.2163 0.11701 0.0
O6 O 0.29641 0.21613 0.11019 0.0
C7 C 0.24572 0.34606 0.14577 0.0
C8 C 0.26129 0.37052 0.17077 0.0
C9 C 0.24077 0.36558 0.15903 0.0
N10 N 0.26814 0.33958 0.14968 0.0
N11 N 0.27744 0.35446 0.1644 0.0
C12 C 0.22908 0.33276 0.13086 0.0
H13 H 0.23361 0.31371 0.13086 0.0
H14 H 0.21054 0.33521 0.13643 0.0
H15 H 0.23081 0.33946 0.11335 0.0
C16 C 0.29055 0.25214 0.17017 0.0
N17 N 0.29244 0.26718 0.15258 0.0
N18 N 0.28129 0.28684 0.15767 0.0
C19 C 0.27175 0.28485 0.17844 0.0
C20 C 0.27735 0.26281 0.18712 0.0
C21 C 0.30224 0.2285 0.17121 0.0
H22 H 0.32143 0.23049 0.1681 0.0
H23 H 0.29479 0.21707 0.15781 0.0
H24 H 0.29937 0.21969 0.1877 0.0
O25 O 0.33653 0.29006 0.12728 0.0
O26 O 0.31829 0.32287 0.13765 0.0
H27 H 0.27381 0.31901 0.19346 0.0
H28 H 0.25376 0.29956 0.2077 0.0
C29 C 0.26055 0.30489 0.19094 0.0
H30 H 0.24576 0.31208 0.18084 0.0
H31 H 0.29467 0.35332 0.17048 0.0
O32 O 0.32762 0.23557 0.12353 0.0
C33 C 0.33707 0.31179 0.13272 0.0
Co34 Co 0.9775 0.06866 0.37795 0.0
Co35 Co 0.93728 0.03148 0.37897 0.0
C36 C 0.96844 0.03654 0.33827 0.0
O37 O 0.981 0.05242 0.34777 0.0
O38 O 0.95081 0.02738 0.34831 0.0
C39 C 0.0251 0.08816 0.3771 0.0
O40 O 0.0317 0.06796 0.36825 0.0
C41 C 0.91373 0.98559 0.37627 0.0
C42 C 0.88212 0.99181 0.39731 0.0
C43 C 0.89351 0.9748 0.38452 0.0
N44 N 0.91423 0.00788 0.38393 0.0
N45 N 0.89527 0.01153 0.39642 0.0
C46 C 0.93309 0.97476 0.3626 0.0
H47 H 0.95022 0.98322 0.36676 0.0
H48 H 0.93423 0.95548 0.36571 0.0
H49 H 0.92949 0.97778 0.34442 0.0
C50 C 0.99109 0.04285 0.42048 0.0
N51 N 0.97738 0.04615 0.40206 0.0
N52 N 0.9607 0.02999 0.40189 0.0
C53 C 0.96341 0.01577 0.41995 0.0
C54 C 0.98275 0.02338 0.43233 0.0
C55 C 0.01203 0.05773 0.42629 0.0
H56 H 0.00722 0.07666 0.42521 0.0
H57 H 0.02626 0.0543 0.41388 0.0
H58 H 0.0188 0.05373 0.44343 0.0
O59 O 0.94828 0.08864 0.37908 0.0
O60 O 0.92019 0.0616 0.38079 0.0
H61 H 0.92877 0.00317 0.42758 0.0
H62 H 0.95175 0.9876 0.44221 0.0
C63 C 0.94692 0.99612 0.42601 0.0
H64 H 0.94706 0.98267 0.41243 0.0
H65 H 0.8914 0.02745 0.40445 0.0
O66 O 0.00358 0.09136 0.38218 0.0
C67 C 0.92655 0.0831 0.38056 0.0
Co68 Co 0.18807 0.73085 0.62408 0.0
Co69 Co 0.22706 0.69275 0.63434 0.0
C70 C 0.22787 0.71837 0.59109 0.0
O71 O 0.20878 0.72921 0.59609 0.0
O72 O 0.23758 0.70396 0.6047 0.0
C73 C 0.17818 0.77898 0.61699 0.0
O74 O 0.20092 0.77837 0.61268 0.0
C75 C 0.26982 0.66328 0.6413 0.0
C76 C 0.259 0.64349 0.67177 0.0
C77 C 0.27746 0.64655 0.65679 0.0
N78 N 0.24785 0.66992 0.64707 0.0
N79 N 0.24146 0.65785 0.66515 0.0
C80 C 0.28353 0.67387 0.62227 0.0
H81 H 0.28012 0.69313 0.62141 0.0
H82 H 0.30273 0.6707 0.62426 0.0
H83 H 0.27751 0.66589 0.60616 0.0
C84 C 0.20654 0.74889 0.66855 0.0
N85 N 0.20689 0.73371 0.65094 0.0
N86 N 0.22394 0.71833 0.65427 0.0
C87 C 0.23532 0.72359 0.67357 0.0
C88 C 0.22451 0.74287 0.68341 0.0
C89 C 0.18844 0.76776 0.67198 0.0
H90 H 0.17113 0.76197 0.66523 0.0
H91 H 0.19407 0.7839 0.66288 0.0
H92 H 0.18658 0.77218 0.69014 0.0
O93 O 0.16788 0.70188 0.62603 0.0
O94 O 0.19671 0.67615 0.63174 0.0
H95 H 0.25165 0.69539 0.6917 0.0
H96 H 0.26744 0.72285 0.69322 0.0
C97 C 0.25695 0.71122 0.68196 0.0
H98 H 0.26815 0.70575 0.66756 0.0
H99 H 0.22518 0.6597 0.67317 0.0
O100 O 0.16777 0.75974 0.62182 0.0
C101 C 0.17494 0.68074 0.62902 0.0
Co102 Co 0.51685 0.94498 0.87938 0.0
Co103 Co 0.56371 0.97375 0.88074 0.0
C104 C 0.53049 0.9754 0.84058 0.0
O105 O 0.51498 0.96241 0.85009 0.0
O106 O 0.54992 0.98038 0.85037 0.0
C107 C 0.46711 0.92763 0.87955 0.0
O108 O 0.46014 0.94671 0.86889 0.0
C109 C 0.59493 0.01478 0.87669 0.0
C110 C 0.62462 0.00436 0.89875 0.0
C111 C 0.61663 0.02229 0.88484 0.0
N112 N 0.59037 0.99339 0.88542 0.0
N113 N 0.6082 0.98723 0.89852 0.0
C114 C 0.5781 0.02807 0.86198 0.0
H115 H 0.55966 0.02369 0.86669 0.0
H116 H 0.58093 0.04739 0.86346 0.0
H117 H 0.58086 0.02272 0.84416 0.0
C118 C 0.50889 0.97119 0.92241 0.0
N119 N 0.52175 0.96602 0.90391 0.0
N120 N 0.54125 0.97864 0.90415 0.0
C121 C 0.54124 0.99251 0.92265 0.0
C122 C 0.52079 0.9882 0.93487 0.0
C123 C 0.48542 0.96044 0.92766 0.0
H124 H 0.47298 0.96443 0.91373 0.0
H125 H 0.47804 0.96727 0.94372 0.0
H126 H 0.48727 0.94098 0.92872 0.0
O127 O 0.54249 0.92122 0.87802 0.0
O128 O 0.57589 0.94111 0.88153 0.0
H129 H 0.57732 0.99829 0.93143 0.0
H130 H 0.55723 0.01841 0.94493 0.0
C131 C 0.56098 0.00873 0.92907 0.0
H132 H 0.56404 0.02158 0.91527 0.0
H133 H 0.6091 0.97133 0.90736 0.0
O134 O 0.4887 0.92518 0.88478 0.0
C135 C 0.56487 0.9217 0.87961 0.0
Co136 Co 0.32094 0.73303 0.39703 0.0
Co137 Co 0.28015 0.69556 0.39242 0.0
C138 C 0.28724 0.72116 0.43551 0.0
O139 O 0.30533 0.73133 0.42723 0.0
O140 O 0.27472 0.70718 0.42369 0.0
C141 C 0.33324 0.77991 0.40637 0.0
O142 O 0.31173 0.77879 0.41457 0.0
C143 C 0.23427 0.67077 0.39243 0.0
C144 C 0.24179 0.64101 0.36945 0.0
C145 C 0.22436 0.65047 0.38312 0.0
N146 N 0.25646 0.67296 0.38466 0.0
N147 N 0.26079 0.65514 0.3709 0.0
C148 C 0.22285 0.68841 0.40771 0.0
H149 H 0.23039 0.70621 0.40466 0.0
H150 H 0.20348 0.68883 0.40503 0.0
H151 H 0.22651 0.68355 0.42551 0.0
C152 C 0.29877 0.74978 0.35446 0.0
N153 N 0.2985 0.73609 0.37306 0.0
N154 N 0.28142 0.72047 0.3711 0.0
C155 C 0.27042 0.72358 0.35113 0.0
C156 C 0.28115 0.74222 0.33977 0.0
C157 C 0.31641 0.76902 0.35046 0.0
H158 H 0.33452 0.76165 0.35135 0.0
H159 H 0.31463 0.78248 0.3639 0.0
H160 H 0.31372 0.77793 0.33402 0.0
O161 O 0.3399 0.70369 0.39248 0.0
O162 O 0.31029 0.67804 0.39092 0.0
H163 H 0.26156 0.68925 0.33899 0.0
H164 H 0.24524 0.71235 0.32547 0.0
C165 C 0.25279 0.70649 0.34174 0.0
H166 H 0.23831 0.70392 0.35407 0.0
H167 H 0.27688 0.65245 0.36274 0.0
O168 O 0.34199 0.76147 0.39744 0.0
C169 C 0.3323 0.68257 0.39061 0.0
Co170 Co 0.527 0.07275 0.64797 0.0
Co171 Co 0.56827 0.03645 0.64544 0.0
C172 C 0.53706 0.03732 0.6855 0.0
O173 O 0.52527 0.05428 0.67697 0.0
O174 O 0.5544 0.0282 0.67504 0.0
C175 C 0.47836 0.07969 0.6497 0.0
O176 O 0.47978 0.05709 0.65445 0.0
C177 C 0.59563 0.99236 0.64228 0.0
C178 C 0.62872 0.00574 0.62728 0.0
C179 C 0.61789 0.98529 0.63493 0.0
N180 N 0.59367 0.01575 0.63899 0.0
N181 N 0.61351 0.02362 0.63009 0.0
C182 C 0.57588 0.97738 0.65096 0.0
H183 H 0.55874 0.98653 0.64864 0.0
H184 H 0.57552 0.96012 0.64211 0.0
H185 H 0.57847 0.97425 0.66928 0.0
C186 C 0.51755 0.05242 0.6023 0.0
N187 N 0.52902 0.05238 0.62226 0.0
N188 N 0.54586 0.03641 0.62158 0.0
C189 C 0.54545 0.02561 0.60127 0.0
C190 C 0.52747 0.03536 0.58836 0.0
C191 C 0.49824 0.06931 0.59631 0.0
H192 H 0.50307 0.08737 0.60187 0.0
H193 H 0.4819 0.06401 0.60525 0.0
H194 H 0.49443 0.06935 0.57796 0.0
O195 O 0.55463 0.09493 0.64821 0.0
O196 O 0.58287 0.06791 0.64736 0.0
H197 H 0.58146 0.01714 0.59422 0.0
H198 H 0.56069 0.00278 0.5757 0.0
C199 C 0.56387 0.00862 0.5933 0.0
H200 H 0.56399 0.99297 0.60449 0.0
H201 H 0.61664 0.0412 0.62585 0.0
O202 O 0.49728 0.09114 0.64612 0.0
C203 C 0.57644 0.0894 0.64804 0.0
Co204 Co 0.19115 0.26205 0.89997 0.0
Co205 Co 0.21815 0.3094 0.88981 0.0
C206 C 0.2201 0.28658 0.93565 0.0
O207 O 0.20774 0.26876 0.92963 0.0
O208 O 0.22497 0.30321 0.92192 0.0
C209 C 0.1836 0.2118 0.90789 0.0
O210 O 0.2052 0.21205 0.91595 0.0
C211 C 0.25678 0.34417 0.88458 0.0
C212 C 0.24293 0.36546 0.85625 0.0
C213 C 0.26227 0.36272 0.87024 0.0
N214 N 0.23521 0.33611 0.87907 0.0
N215 N 0.2269 0.34919 0.8624 0.0
C216 C 0.27246 0.33291 0.90177 0.0
H217 H 0.2681 0.3139 0.90352 0.0
H218 H 0.29131 0.33502 0.89708 0.0
H219 H 0.26955 0.34159 0.91832 0.0
C220 C 0.21812 0.24758 0.85849 0.0
N221 N 0.21263 0.26312 0.875 0.0
N222 N 0.22464 0.28272 0.87161 0.0
C223 C 0.23853 0.28002 0.85333 0.0
C224 C 0.23484 0.25778 0.84444 0.0
C225 C 0.207 0.22384 0.85567 0.0
H226 H 0.18764 0.22521 0.85807 0.0
H227 H 0.21411 0.21173 0.8687 0.0
H228 H 0.21082 0.21632 0.83876 0.0
O229 O 0.16542 0.28562 0.89559 0.0
O230 O 0.18482 0.31838 0.88712 0.0
H231 H 0.2431 0.31344 0.83728 0.0
H232 H 0.26507 0.29202 0.82957 0.0
C233 C 0.25414 0.29878 0.84368 0.0
H234 H 0.26596 0.30566 0.85704 0.0
H235 H 0.21057 0.34647 0.8547 0.0
O236 O 0.17463 0.23091 0.90071 0.0
C237 C 0.16557 0.30738 0.89022 0.0
Co238 Co 0.98023 0.93586 0.14712 0.0
Co239 Co 0.94204 0.97486 0.14183 0.0
C240 C 0.97095 0.97284 0.18358 0.0
O241 O 0.98267 0.95531 0.17584 0.0
O242 O 0.95436 0.9823 0.17224 0.0
C243 C 0.02836 0.91727 0.14811 0.0
O244 O 0.03517 0.93904 0.1521 0.0
C245 C 0.9153 0.01942 0.13805 0.0
C246 C 0.89101 0.00992 0.11022 0.0
C247 C 0.8978 0.02828 0.12412 0.0
N248 N 0.91904 0.99682 0.13224 0.0
N249 N 0.90421 0.99117 0.11589 0.0
C250 C 0.92933 0.03246 0.1554 0.0
H251 H 0.94821 0.02742 0.15411 0.0
H252 H 0.92742 0.05184 0.1534 0.0
H253 H 0.92303 0.02731 0.17243 0.0
C254 C 0.9932 0.95411 0.10114 0.0
N255 N 0.98117 0.95541 0.12079 0.0
N256 N 0.96636 0.97322 0.11969 0.0
C257 C 0.96931 0.98446 0.09979 0.0
C258 C 0.98619 0.9726 0.08721 0.0
C259 C 0.00999 0.93469 0.09526 0.0
H260 H 0.00275 0.91749 0.10093 0.0
H261 H 0.0269 0.93776 0.1042 0.0
H262 H 0.01366 0.93408 0.07689 0.0
O263 O 0.95069 0.91639 0.14696 0.0
O264 O 0.92442 0.94491 0.14304 0.0
H265 H 0.93765 0.99777 0.08498 0.0
H266 H 0.9634 0.01467 0.07817 0.0
C267 C 0.95451 0.00466 0.09179 0.0
H268 H 0.95087 0.01686 0.10595 0.0
H269 H 0.90362 0.97465 0.10813 0.0
O270 O 0.00651 0.91279 0.14589 0.0
C271 C 0.92936 0.92315 0.145 0.0
Co272 Co 0.68961 0.73715 0.89238 0.0
Co273 Co 0.71852 0.69013 0.89035 0.0
C274 C 0.72214 0.72366 0.92995 0.0
O275 O 0.70818 0.73858 0.92089 0.0
O276 O 0.72728 0.70419 0.92025 0.0
C277 C 0.6732 0.78704 0.8945 0.0
O278 O 0.6922 0.79277 0.90597 0.0
C279 C 0.75994 0.65843 0.8875 0.0
C280 C 0.74464 0.62899 0.86782 0.0
C281 C 0.76542 0.63718 0.87721 0.0
N282 N 0.73688 0.66277 0.8841 0.0
N283 N 0.7278 0.64489 0.87269 0.0
C284 C 0.77665 0.67523 0.8986 0.0
H285 H 0.7694 0.69342 0.8983 0.0
H286 H 0.7941 0.67477 0.89011 0.0
H287 H 0.77916 0.66981 0.91643 0.0
C288 C 0.71507 0.74555 0.84916 0.0
N289 N 0.70995 0.73224 0.86738 0.0
N290 N 0.72213 0.71249 0.86646 0.0
C291 C 0.73529 0.71257 0.84748 0.0
C292 C 0.73138 0.73355 0.83596 0.0
C293 C 0.70542 0.76976 0.84526 0.0
H294 H 0.686 0.76867 0.8431 0.0
H295 H 0.709 0.78085 0.86029 0.0
H296 H 0.71335 0.77826 0.8302 0.0
O297 O 0.66546 0.71174 0.89418 0.0
O298 O 0.68573 0.67854 0.8914 0.0
H299 H 0.75642 0.69467 0.82217 0.0
H300 H 0.7659 0.69089 0.85102 0.0
C301 C 0.75032 0.69239 0.83981 0.0
H302 H 0.74007 0.6758 0.84079 0.0
H303 H 0.71026 0.644 0.8674 0.0
O304 O 0.67033 0.76591 0.88786 0.0
C305 C 0.6662 0.68933 0.8932 0.0
Co306 Co 0.02528 0.93229 0.64475 0.0
Co307 Co 0.0651 0.96998 0.64128 0.0
C308 C 0.03542 0.96595 0.68314 0.0
O309 O 0.02279 0.94958 0.67452 0.0
O310 O 0.05257 0.97499 0.67227 0.0
C311 C 0.97717 0.91342 0.64676 0.0
O312 O 0.97088 0.93408 0.6548 0.0
C313 C 0.09018 0.01524 0.6435 0.0
C314 C 0.11997 0.00877 0.62024 0.0
C315 C 0.11032 0.02556 0.6345 0.0
N316 N 0.08813 0.99339 0.63494 0.0
N317 N 0.10597 0.98963 0.62106 0.0
C318 C 0.0725 0.0261 0.6591 0.0
H319 H 0.05459 0.01931 0.65519 0.0
H320 H 0.07266 0.04562 0.65769 0.0
H321 H 0.07684 0.02107 0.67672 0.0
C322 C 0.01215 0.95423 0.6005 0.0
N323 N 0.02475 0.95382 0.61984 0.0
N324 N 0.04102 0.97037 0.6189 0.0
C325 C 0.03904 0.98205 0.59913 0.0
C326 C 0.02076 0.97215 0.58669 0.0
C327 C 0.9931 0.9369 0.59487 0.0
H328 H 0.99989 0.91867 0.59693 0.0
H329 H 0.97822 0.93935 0.60677 0.0
H330 H 0.98634 0.93932 0.57746 0.0
O331 O 0.05454 0.91226 0.64296 0.0
O332 O 0.08213 0.9397 0.63959 0.0
H333 H 0.07346 0.99119 0.58742 0.0
H334 H 0.05041 0.00895 0.5754 0.0
C335 C 0.05643 1.00003 0.591 0.0
H336 H 0.05933 0.01347 0.60431 0.0
H337 H 0.10868 0.97391 0.61226 0.0
O338 O 0.99869 0.90969 0.64189 0.0
C339 C 0.07611 0.91809 0.64042 0.0
Co340 Co 0.8185 0.27301 0.394 0.0
Co341 Co 0.7821 0.31483 0.39047 0.0
C342 C 0.78532 0.28593 0.43237 0.0
O343 O 0.80138 0.27299 0.42375 0.0
O344 O 0.77636 0.30306 0.42145 0.0
C345 C 0.82632 0.22419 0.39793 0.0
O346 O 0.80396 0.22554 0.40368 0.0
C347 C 0.74042 0.34596 0.39417 0.0
C348 C 0.74655 0.37063 0.3659 0.0
C349 C 0.73127 0.36585 0.38357 0.0
N350 N 0.76025 0.33948 0.38334 0.0
N351 N 0.76374 0.35428 0.36643 0.0
C352 C 0.73006 0.33259 0.41356 0.0
H353 H 0.73269 0.31338 0.411 0.0
H354 H 0.71092 0.33627 0.41536 0.0
H355 H 0.73926 0.33777 0.42933 0.0
C356 C 0.79354 0.25922 0.35143 0.0
N357 N 0.79636 0.27336 0.36957 0.0
N358 N 0.78039 0.29022 0.3688 0.0
C359 C 0.76671 0.28708 0.3504 0.0
C360 C 0.77463 0.2674 0.33874 0.0
C361 C 0.80979 0.23943 0.34529 0.0
H362 H 0.82809 0.24366 0.35053 0.0
H363 H 0.80402 0.22316 0.35411 0.0
H364 H 0.80948 0.23601 0.32685 0.0
O365 O 0.84035 0.30086 0.39158 0.0
O366 O 0.81367 0.3294 0.38898 0.0
H367 H 0.75254 0.31849 0.33588 0.0
H368 H 0.73384 0.29298 0.33276 0.0
C369 C 0.74608 0.30229 0.34437 0.0
H370 H 0.73638 0.30745 0.35984 0.0
H371 H 0.77807 0.35338 0.35541 0.0
O372 O 0.8372 0.24311 0.39291 0.0
C373 C 0.8351 0.32265 0.38946 0.0
Co374 Co 0.47846 0.07103 0.15065 0.0
Co375 Co 0.43889 0.03283 0.14494 0.0
C376 C 0.46697 0.0346 0.1871 0.0
O377 O 0.47868 0.05217 0.17959 0.0
O378 O 0.45081 0.02491 0.1754 0.0
C379 C 0.52649 0.08116 0.15704 0.0
O380 O 0.52558 0.05903 0.1636 0.0
C381 C 0.41268 0.98801 0.13951 0.0
C382 C 0.38087 1.00096 0.12188 0.0
C383 C 0.39119 0.98066 0.1304 0.0
N384 N 0.41466 0.01143 0.13639 0.0
N385 N 0.39559 0.01902 0.12588 0.0
C386 C 0.43175 0.97328 0.14977 0.0
H387 H 0.44897 0.98258 0.14864 0.0
H388 H 0.43295 0.95595 0.14113 0.0
H389 H 0.42772 0.97032 0.16787 0.0
C390 C 0.49219 0.05137 0.10573 0.0
N391 N 0.47929 0.0506 0.12486 0.0
N392 N 0.46299 0.03419 0.12273 0.0
C393 C 0.46494 0.02406 0.1022 0.0
C394 C 0.48352 0.03463 0.09067 0.0
C395 C 0.51186 0.06852 0.10171 0.0
H396 H 0.50563 0.08672 0.10515 0.0
H397 H 0.52648 0.06456 0.11352 0.0
H398 H 0.51893 0.0674 0.08431 0.0
O399 O 0.44971 0.09192 0.14868 0.0
O400 O 0.42306 0.06348 0.14578 0.0
H401 H 0.42951 0.01577 0.09274 0.0
H402 H 0.45129 0.00197 0.07511 0.0
C403 C 0.44712 0.00728 0.09265 0.0
H404 H 0.44627 0.9913 0.10339 0.0
H405 H 0.39265 0.03654 0.12133 0.0
O406 O 0.50752 0.09106 0.1506 0.0
C407 C 0.42828 0.08525 0.14678 0.0
Co408 Co 0.68929 0.27533 0.62602 0.0
Co409 Co 0.72511 0.31753 0.6276 0.0
C410 C 0.72275 0.28673 0.58719 0.0
O411 O 0.70685 0.2739 0.59632 0.0
O412 O 0.73142 0.30449 0.59739 0.0
C413 C 0.68154 0.22625 0.62762 0.0
O414 O 0.70444 0.22661 0.62414 0.0
C415 C 0.76637 0.34939 0.62444 0.0
C416 C 0.75773 0.3753 0.65108 0.0
C417 C 0.77445 0.36981 0.63488 0.0
N418 N 0.74583 0.34314 0.63411 0.0
N419 N 0.74075 0.35876 0.64994 0.0
C420 C 0.77827 0.33543 0.6063 0.0
H421 H 0.77536 0.3163 0.60915 0.0
H422 H 0.79749 0.33916 0.60581 0.0
H423 H 0.7704 0.34012 0.58974 0.0
C424 C 0.71175 0.26643 0.67109 0.0
N425 N 0.71075 0.27755 0.65092 0.0
N426 N 0.7269 0.29426 0.65054 0.0
C427 C 0.73907 0.2938 0.67007 0.0
C428 C 0.72975 0.27638 0.68386 0.0
C429 C 0.69383 0.24897 0.67919 0.0
H430 H 0.67624 0.25313 0.67202 0.0
H431 H 0.69906 0.23107 0.67351 0.0
H432 H 0.69273 0.24884 0.69789 0.0
O433 O 0.66705 0.30279 0.62674 0.0
O434 O 0.69346 0.33163 0.62797 0.0
H435 H 0.75073 0.32717 0.68259 0.0
H436 H 0.76989 0.30298 0.68954 0.0
C437 C 0.75848 0.31054 0.67614 0.0
H438 H 0.7694 0.31447 0.66109 0.0
H439 H 0.72563 0.35814 0.65995 0.0
O440 O 0.67055 0.24574 0.62884 0.0
C441 C 0.67212 0.3247 0.6277 0.0
Co442 Co 0.4826 0.9387 0.38078 0.0
Co443 Co 0.44019 0.9737 0.38371 0.0
C444 C 0.46804 0.97006 0.3414 0.0
O445 O 0.48165 0.95482 0.35044 0.0
O446 O 0.45072 0.97879 0.35221 0.0
C447 C 0.53142 0.93134 0.37582 0.0
O448 O 0.53007 0.95342 0.36918 0.0
C449 C 0.40825 0.01457 0.38048 0.0
C450 C 0.38385 0.00743 0.40877 0.0
C451 C 0.38836 0.02315 0.39141 0.0
N452 N 0.4151 0.99467 0.39091 0.0
N453 N 0.40043 0.9905 0.40778 0.0
C454 C 0.42126 0.0255 0.36115 0.0
H455 H 0.44053 0.02289 0.36334 0.0
H456 H 0.41741 0.04465 0.35984 0.0
H457 H 0.41587 0.01667 0.34524 0.0
C458 C 0.49655 0.96565 0.42249 0.0
N459 N 0.48234 0.96164 0.40457 0.0
N460 N 0.4653 0.97741 0.40461 0.0
C461 C 0.46851 0.99234 0.42207 0.0
C462 C 0.48834 0.98534 0.43406 0.0
C463 C 0.51763 0.95102 0.42836 0.0
H464 H 0.51398 0.93214 0.42489 0.0
H465 H 0.53275 0.95667 0.41777 0.0
H466 H 0.5227 0.95324 0.44631 0.0
O467 O 0.45568 0.91593 0.38457 0.0
O468 O 0.42658 0.94191 0.38711 0.0
H469 H 0.43569 0.00435 0.4354 0.0
H470 H 0.45974 0.02423 0.44055 0.0
C471 C 0.45197 0.01196 0.42803 0.0
H472 H 0.44715 0.02192 0.4126 0.0
H473 H 0.40167 0.97599 0.41853 0.0
O474 O 0.51266 0.92079 0.38186 0.0
C475 C 0.43387 0.92069 0.38728 0.0
Co476 Co 0.81435 0.73869 0.12512 0.0
Co477 Co 0.78548 0.6914 0.12392 0.0
C478 C 0.78429 0.72507 0.08505 0.0
O479 O 0.79748 0.73989 0.09526 0.0
O480 O 0.77862 0.70555 0.09419 0.0
C481 C 0.81989 0.789 0.12844 0.0
O482 O 0.79717 0.78886 0.12402 0.0
C483 C 0.74475 0.65955 0.11988 0.0
C484 C 0.75617 0.62927 0.14068 0.0
C485 C 0.7375 0.63767 0.1279 0.0
N486 N 0.7666 0.66384 0.1277 0.0
N487 N 0.7734 0.64559 0.13995 0.0
C488 C 0.73054 0.67714 0.10684 0.0
H489 H 0.73616 0.69534 0.11119 0.0
H490 H 0.71142 0.67506 0.11037 0.0
H491 H 0.73361 0.67439 0.08853 0.0
C492 C 0.79011 0.74186 0.16998 0.0
N493 N 0.79322 0.73202 0.14942 0.0
N494 N 0.78002 0.71295 0.14796 0.0
C495 C 0.76752 0.71054 0.16715 0.0
C496 C 0.77375 0.72847 0.18196 0.0
C497 C 0.80474 0.76175 0.17895 0.0
H498 H 0.82296 0.76059 0.17224 0.0
H499 H 0.79694 0.77872 0.17335 0.0
H500 H 0.80537 0.76159 0.19766 0.0
O501 O 0.83922 0.71409 0.12435 0.0
O502 O 0.81872 0.68069 0.12481 0.0
H503 H 0.75939 0.67456 0.17482 0.0
H504 H 0.7383 0.69549 0.18583 0.0
C505 C 0.74994 0.69129 0.17133 0.0
H506 H 0.73875 0.6889 0.1562 0.0
H507 H 0.78965 0.64449 0.14816 0.0
O508 O 0.83077 0.76946 0.12983 0.0
C509 C 0.83835 0.69162 0.12471 0.0
Co510 Co 0.02378 0.06571 0.87607 0.0
Co511 Co 0.06239 0.02685 0.87977 0.0
C512 C 0.03498 0.03156 0.83735 0.0
O513 O 0.02278 0.04834 0.84594 0.0
O514 O 0.05145 0.02155 0.84844 0.0
C515 C 0.97548 0.0848 0.8738 0.0
O516 O 0.96875 0.06397 0.8665 0.0
C517 C 0.09025 0.98266 0.88221 0.0
C518 C 0.11203 0.99085 0.91224 0.0
C519 C 0.10691 0.97334 0.89679 0.0
N520 N 0.08535 0.0047 0.88913 0.0
N521 N 0.09872 0.00959 0.90681 0.0
C522 C 0.078 0.97047 0.86314 0.0
H523 H 0.05893 0.9749 0.86336 0.0
H524 H 0.08039 0.95106 0.86409 0.0
H525 H 0.08543 0.97695 0.84696 0.0
C526 C 0.00748 0.04155 0.91874 0.0
N527 N 0.02174 0.04369 0.90054 0.0
N528 N 0.03699 0.02618 0.90068 0.0
C529 C 0.03231 0.01191 0.91834 0.0
C530 C 0.01364 0.02123 0.93047 0.0
C531 C 0.98846 0.05865 0.92489 0.0
H532 H 0.99455 0.07696 0.92175 0.0
H533 H 0.97279 0.05526 0.91416 0.0
H534 H 0.98319 0.0567 0.94283 0.0
O535 O 0.05313 0.08553 0.87919 0.0
O536 O 0.07941 0.05694 0.88197 0.0
H537 H 0.06292 0.99559 0.93235 0.0
H538 H 0.03651 0.97874 0.93619 0.0
C539 C 0.04614 0.99027 0.92422 0.0
H540 H 0.05006 0.98008 0.90873 0.0
H541 H 0.09815 0.0255 0.91564 0.0
O542 O 0.99715 0.08845 0.87816 0.0
C543 C 0.07439 0.07876 0.88174 0.0
Co544 Co 0.81325 0.76469 0.62057 0.0
Co545 Co 0.78663 0.81258 0.62466 0.0
C546 C 0.78167 0.78074 0.58376 0.0
O547 O 0.7948 0.76482 0.59222 0.0
O548 O 0.7776 0.79996 0.59424 0.0
C549 C 0.84956 0.73374 0.61104 0.0
O550 O 0.85396 0.75093 0.59678 0.0
C551 C 0.74422 0.84161 0.63009 0.0
C552 C 0.7598 0.87704 0.63478 0.0
C553 C 0.73854 0.86515 0.63308 0.0
N554 N 0.76784 0.83965 0.63012 0.0
N555 N 0.77705 0.86086 0.63307 0.0
C556 C 0.72764 0.82167 0.62545 0.0
H557 H 0.7375 0.80511 0.62217 0.0
H558 H 0.71579 0.81908 0.64014 0.0
H559 H 0.71642 0.82606 0.61068 0.0
C560 C 0.79137 0.75701 0.66515 0.0
N561 N 0.79362 0.76945 0.64594 0.0
N562 N 0.7827 0.78981 0.64816 0.0
C563 C 0.77338 0.79106 0.66911 0.0
C564 C 0.77852 0.77027 0.68056 0.0
C565 C 0.80283 0.7336 0.66911 0.0
H566 H 0.80017 0.72211 0.65417 0.0
H567 H 0.79551 0.72477 0.6843 0.0
H568 H 0.82209 0.73622 0.67138 0.0
O569 O 0.83811 0.78946 0.62033 0.0
O570 O 0.81976 0.82362 0.62439 0.0
H571 H 0.76295 0.81238 0.69781 0.0
H572 H 0.7446 0.81496 0.67315 0.0
C573 C 0.76303 0.81301 0.67909 0.0
H574 H 0.77322 0.82866 0.67349 0.0
H575 H 0.79511 0.86437 0.63344 0.0
O576 O 0.83104 0.73473 0.62307 0.0
C577 C 0.83868 0.81179 0.62233 0.0
Co578 Co 0.48486 0.56003 0.87724 0.0
Co579 Co 0.43818 0.53043 0.87811 0.0
C580 C 0.4733 0.52693 0.83981 0.0
O581 O 0.48823 0.54069 0.84916 0.0
O582 O 0.45352 0.52228 0.84904 0.0
C583 C 0.5347 0.57695 0.87862 0.0
O584 O 0.54178 0.55687 0.86986 0.0
C585 C 0.4067 0.48933 0.87408 0.0
C586 C 0.3768 0.50017 0.89567 0.0
C587 C 0.38484 0.48202 0.88203 0.0
N588 N 0.41131 0.51081 0.88264 0.0
N589 N 0.39334 0.51721 0.89546 0.0
C590 C 0.42366 0.47572 0.85977 0.0
H591 H 0.44205 0.47976 0.86492 0.0
H592 H 0.42047 0.45646 0.86117 0.0
H593 H 0.42147 0.48112 0.84188 0.0
C594 C 0.48911 0.53911 0.92323 0.0
N595 N 0.47861 0.54081 0.90286 0.0
N596 N 0.45947 0.52764 0.90274 0.0
C597 C 0.45748 0.51673 0.92284 0.0
C598 C 0.47596 0.52385 0.93665 0.0
C599 C 0.50964 0.55398 0.93035 0.0
H600 H 0.50616 0.57269 0.92598 0.0
H601 H 0.52557 0.54829 0.92094 0.0
H602 H 0.5131 0.55265 0.94872 0.0
O603 O 0.45909 0.58334 0.87342 0.0
O604 O 0.42588 0.56297 0.87659 0.0
H605 H 0.42176 0.51014 0.9325 0.0
H606 H 0.44265 0.48934 0.94396 0.0
C607 C 0.43804 0.49999 0.92889 0.0
H608 H 0.43458 0.48789 0.91459 0.0
H609 H 0.39241 0.53321 0.90411 0.0
O610 O 0.51291 0.58023 0.88251 0.0
C611 C 0.43667 0.58247 0.87414 0.0
Co612 Co 0.68515 0.22954 0.12732 0.0
Co613 Co 0.71988 0.18724 0.12759 0.0
C614 C 0.71538 0.21703 0.0867 0.0
O615 O 0.70027 0.23013 0.09656 0.0
O616 O 0.72447 0.19947 0.09677 0.0
C617 C 0.64796 0.26496 0.13417 0.0
O618 O 0.63275 0.24757 0.13602 0.0
C619 C 0.76389 0.16117 0.12465 0.0
C620 C 0.7565 0.12991 0.14582 0.0
C621 C 0.77391 0.14065 0.13298 0.0
N622 N 0.74166 0.16251 0.13232 0.0
N623 N 0.73725 0.14374 0.14483 0.0
C624 C 0.77565 0.18038 0.11144 0.0
H625 H 0.76764 0.1977 0.11562 0.0
H626 H 0.79487 0.18093 0.11499 0.0
H627 H 0.77298 0.17706 0.09316 0.0
C628 C 0.70964 0.23881 0.17093 0.0
N629 N 0.70799 0.2276 0.15087 0.0
N630 N 0.72367 0.21055 0.15019 0.0
C631 C 0.73609 0.21062 0.16959 0.0
C632 C 0.72745 0.22829 0.18357 0.0
C633 C 0.69211 0.25669 0.17896 0.0
H634 H 0.67398 0.24998 0.176 0.0
H635 H 0.69426 0.27313 0.169 0.0
H636 H 0.69434 0.2608 0.19713 0.0
O637 O 0.66212 0.20267 0.13041 0.0
O638 O 0.68817 0.17341 0.1307 0.0
H639 H 0.7465 0.17568 0.17886 0.0
H640 H 0.76505 0.19861 0.19045 0.0
C641 C 0.75481 0.19302 0.1754 0.0
H642 H 0.76712 0.19108 0.16102 0.0
H643 H 0.72124 0.14058 0.15298 0.0
O644 O 0.66955 0.26046 0.13048 0.0
C645 C 0.66695 0.18071 0.13181 0.0
Co646 Co 0.024 0.43354 0.37889 0.0
Co647 Co 0.06296 0.47316 0.38212 0.0
C648 C 0.03542 0.46773 0.34032 0.0
O649 O 0.02398 0.45065 0.34915 0.0
O650 O 0.05165 0.47851 0.35106 0.0
C651 C 0.97597 0.42385 0.37375 0.0
O652 O 0.97706 0.44619 0.3679 0.0
C653 C 0.09121 0.5176 0.3841 0.0
C654 C 0.11372 0.5095 0.41359 0.0
C655 C 0.10848 0.52698 0.39811 0.0
N656 N 0.08628 0.49558 0.39124 0.0
N657 N 0.10008 0.4908 0.40863 0.0
C658 C 0.07838 0.52982 0.36542 0.0
H659 H 0.05967 0.52404 0.36504 0.0
H660 H 0.07935 0.54928 0.36737 0.0
H661 H 0.08659 0.52487 0.34909 0.0
C662 C 0.00793 0.45817 0.42085 0.0
N663 N 0.02246 0.45587 0.40293 0.0
N664 N 0.03757 0.47354 0.40295 0.0
C665 C 0.03255 0.48806 0.4203 0.0
C666 C 0.01373 0.47875 0.43223 0.0
C667 C 0.98893 0.44103 0.42706 0.0
H668 H 0.99437 0.42282 0.42262 0.0
H669 H 0.97267 0.44546 0.41755 0.0
H670 H 0.98479 0.44198 0.44533 0.0
O671 O 0.05294 0.41356 0.38198 0.0
O672 O 0.07922 0.44252 0.38379 0.0
H673 H 0.0632 0.50472 0.43389 0.0
H674 H 0.03658 0.52123 0.43817 0.0
C675 C 0.04621 0.50986 0.42606 0.0
H676 H 0.04987 0.52006 0.4105 0.0
H677 H 0.09966 0.47495 0.41757 0.0
O678 O 0.99495 0.41346 0.37943 0.0
C679 C 0.07423 0.42064 0.38382 0.0
Co680 Co 0.815 0.23735 0.89772 0.0
Co681 Co 0.78686 0.19067 0.89118 0.0
C682 C 0.78079 0.22071 0.93283 0.0
O683 O 0.79491 0.23637 0.92525 0.0
O684 O 0.77646 0.2018 0.92182 0.0
C685 C 0.8299 0.28811 0.90061 0.0
O686 O 0.80911 0.29471 0.90807 0.0
C687 C 0.74728 0.15704 0.88677 0.0
C688 C 0.76093 0.13421 0.85943 0.0
C689 C 0.74141 0.13824 0.87288 0.0
N690 N 0.76927 0.164 0.88151 0.0
N691 N 0.77744 0.15004 0.86544 0.0
C692 C 0.73158 0.16973 0.90302 0.0
H693 H 0.73519 0.18897 0.90242 0.0
H694 H 0.71269 0.16638 0.89926 0.0
H695 H 0.73546 0.16345 0.92037 0.0
C696 C 0.79275 0.2485 0.85353 0.0
N697 N 0.79631 0.23424 0.8714 0.0
N698 N 0.78352 0.21503 0.86903 0.0
C699 C 0.77093 0.21675 0.84972 0.0
C700 C 0.77645 0.23796 0.83919 0.0
C701 C 0.80586 0.27107 0.8496 0.0
H702 H 0.82473 0.26869 0.85396 0.0
H703 H 0.79842 0.28501 0.86064 0.0
H704 H 0.8046 0.27687 0.83177 0.0
O705 O 0.83944 0.21251 0.8985 0.0
O706 O 0.82005 0.1793 0.89226 0.0
H707 H 0.76187 0.18344 0.83522 0.0
H708 H 0.74105 0.2066 0.82904 0.0
C709 C 0.75284 0.19918 0.84218 0.0
H710 H 0.74191 0.19371 0.85674 0.0
H711 H 0.794 0.15193 0.85796 0.0
O712 O 0.83384 0.26652 0.89629 0.0
C713 C 0.83929 0.1903 0.89559 0.0
Co714 Co 0.01773 0.56114 0.1479 0.0
Co715 Co 0.06368 0.53065 0.14615 0.0
C716 C 0.02943 0.52836 0.18526 0.0
O717 O 0.01443 0.54212 0.17608 0.0
O718 O 0.04889 0.52334 0.17565 0.0
C719 C 0.96818 0.57866 0.14562 0.0
O720 O 0.9604 0.55798 0.15233 0.0
C721 C 0.09471 0.48945 0.15101 0.0
C722 C 0.12411 0.49894 0.12824 0.0
C723 C 0.11632 0.48165 0.14296 0.0
N724 N 0.08998 0.51043 0.14147 0.0
N725 N 0.10764 0.51602 0.12793 0.0
C726 C 0.07828 0.47688 0.1667 0.0
H727 H 0.05973 0.48016 0.1616 0.0
H728 H 0.08174 0.45761 0.16678 0.0
H729 H 0.08074 0.48388 0.18404 0.0
C730 C 0.0123 0.54055 0.10187 0.0
N731 N 0.02301 0.54174 0.12219 0.0
N732 N 0.04185 0.52818 0.12195 0.0
C733 C 0.04346 0.51759 0.10167 0.0
C734 C 0.02502 0.52527 0.08814 0.0
C735 C 0.9922 0.55606 0.09497 0.0
H736 H 0.99625 0.57463 0.09946 0.0
H737 H 0.97615 0.55071 0.10438 0.0
H738 H 0.9886 0.55493 0.0766 0.0
O739 O 0.04412 0.58384 0.15135 0.0
O740 O 0.07677 0.56281 0.14714 0.0
H741 H 0.07893 0.51143 0.09102 0.0
H742 H 0.05785 0.4907 0.07976 0.0
C743 C 0.06282 0.50109 0.09492 0.0
H744 H 0.06675 0.48878 0.10894 0.0
H745 H 0.1085 0.53158 0.11856 0.0
O746 O 0.99019 0.582 0.14316 0.0
C747 C 0.06648 0.58248 0.15002 0.0
Co748 Co 0.68153 0.77607 0.39291 0.0
Co749 Co 0.72083 0.81412 0.38733 0.0
C750 C 0.71749 0.78595 0.42958 0.0
O751 O 0.70002 0.77436 0.42166 0.0
O752 O 0.72744 0.8023 0.41826 0.0
C753 C 0.66249 0.72865 0.39686 0.0
O754 O 0.68386 0.72236 0.40298 0.0
C755 C 0.76613 0.83982 0.38411 0.0
C756 C 0.75874 0.86232 0.35443 0.0
C757 C 0.77619 0.85618 0.36963 0.0
N758 N 0.74376 0.83616 0.37745 0.0
N759 N 0.73938 0.84991 0.35993 0.0
C760 C 0.77794 0.82647 0.40272 0.0
H761 H 0.77224 0.80774 0.40233 0.0
H762 H 0.79744 0.82752 0.40132 0.0
H763 H 0.77241 0.83405 0.41916 0.0
C764 C 0.7027 0.75917 0.34954 0.0
N765 N 0.70192 0.77379 0.36753 0.0
N766 N 0.71927 0.78915 0.36594 0.0
C767 C 0.7319 0.78446 0.34717 0.0
C768 C 0.72169 0.76553 0.33606 0.0
C769 C 0.68475 0.74051 0.34457 0.0
H770 H 0.66692 0.74677 0.34936 0.0
H771 H 0.68892 0.72453 0.35461 0.0
H772 H 0.68481 0.73568 0.32642 0.0
O773 O 0.66273 0.80566 0.39147 0.0
O774 O 0.6911 0.83214 0.38731 0.0
H775 H 0.74941 0.81376 0.33186 0.0
H776 H 0.76473 0.7862 0.32863 0.0
C777 C 0.75405 0.79702 0.34043 0.0
H778 H 0.76483 0.80095 0.35555 0.0
H779 H 0.72334 0.85025 0.3513 0.0
O780 O 0.65829 0.75013 0.39227 0.0
C781 C 0.66935 0.82696 0.389 0.0
Co782 Co 0.48253 0.43197 0.64549 0.0
Co783 Co 0.44099 0.46846 0.64503 0.0
C784 C 0.47095 0.46288 0.68582 0.0
O785 O 0.48353 0.44721 0.67615 0.0
O786 O 0.45365 0.47251 0.67573 0.0
C787 C 0.53099 0.42365 0.64834 0.0
O788 O 0.52974 0.44554 0.65558 0.0
C789 C 0.41398 0.51246 0.64924 0.0
C790 C 0.3836 0.50531 0.62687 0.0
C791 C 0.39313 0.52219 0.64114 0.0
N792 N 0.41654 0.49088 0.64017 0.0
N793 N 0.3983 0.48669 0.62686 0.0
C794 C 0.43196 0.52376 0.66426 0.0
H795 H 0.44985 0.51713 0.66005 0.0
H796 H 0.43156 0.54326 0.66256 0.0
H797 H 0.42811 0.51901 0.68205 0.0
C798 C 0.49528 0.45949 0.60385 0.0
N799 N 0.48176 0.45549 0.62224 0.0
N800 N 0.46483 0.47138 0.62286 0.0
C801 C 0.46722 0.48615 0.6052 0.0
C802 C 0.48661 0.47917 0.59258 0.0
C803 C 0.5162 0.4449 0.59732 0.0
H804 H 0.51241 0.42595 0.60022 0.0
H805 H 0.53145 0.45007 0.60796 0.0
H806 H 0.52122 0.44765 0.57944 0.0
O807 O 0.45448 0.41046 0.64261 0.0
O808 O 0.42608 0.43738 0.64225 0.0
H809 H 0.43237 0.49738 0.59672 0.0
H810 H 0.45505 0.51506 0.58404 0.0
C811 C 0.45002 0.50529 0.5995 0.0
H812 H 0.44876 0.5178 0.61383 0.0
H813 H 0.39591 0.4711 0.61777 0.0
O814 O 0.51205 0.41318 0.64271 0.0
C815 C 0.43269 0.41596 0.64137 0.0
Co816 Co 0.18957 0.23726 0.39979 0.0
Co817 Co 0.21417 0.18786 0.3981 0.0
C818 C 0.22007 0.21995 0.43799 0.0
O819 O 0.20748 0.23594 0.4288 0.0
O820 O 0.2239 0.20029 0.42819 0.0
C821 C 0.18429 0.28785 0.40315 0.0
O822 O 0.20541 0.28719 0.41227 0.0
C823 C 0.25248 0.15287 0.39502 0.0
C824 C 0.23476 0.12467 0.37554 0.0
C825 C 0.25626 0.13132 0.38458 0.0
N826 N 0.22976 0.15886 0.39198 0.0
N827 N 0.21917 0.14169 0.38075 0.0
C828 C 0.27057 0.16863 0.40555 0.0
H829 H 0.26445 0.18723 0.40545 0.0
H830 H 0.28765 0.16714 0.39649 0.0
H831 H 0.2734 0.16307 0.42329 0.0
C832 C 0.21586 0.24298 0.35645 0.0
N833 N 0.20987 0.23058 0.37504 0.0
N834 N 0.22048 0.20992 0.37447 0.0
C835 C 0.23354 0.20855 0.35548 0.0
C836 C 0.23119 0.22946 0.34353 0.0
C837 C 0.2075 0.26748 0.35157 0.0
H838 H 0.18794 0.26796 0.3522 0.0
H839 H 0.21427 0.27955 0.3648 0.0
H840 H 0.21366 0.27383 0.33489 0.0
O841 O 0.1627 0.21476 0.40017 0.0
O842 O 0.18036 0.17997 0.39833 0.0
H843 H 0.2349 0.17144 0.34897 0.0
H844 H 0.25291 0.18861 0.33026 0.0
C845 C 0.24662 0.18701 0.34791 0.0
H846 H 0.26205 0.18418 0.35907 0.0
H847 H 0.20155 0.14213 0.37567 0.0
O848 O 0.17481 0.26879 0.39647 0.0
C849 C 0.16171 0.19235 0.39921 0.0
Co850 Co 0.52059 0.43748 0.14872 0.0
Co851 Co 0.56388 0.47145 0.14331 0.0
C852 C 0.53415 0.47231 0.18503 0.0
O853 O 0.5206 0.45636 0.17701 0.0
O854 O 0.55198 0.47999 0.17403 0.0
C855 C 0.4717 0.41927 0.15274 0.0
O856 O 0.46503 0.43967 0.16111 0.0
C857 C 0.59599 0.51297 0.13894 0.0
C858 C 0.6175 0.50084 0.11001 0.0
C859 C 0.6139 0.51975 0.12433 0.0
N860 N 0.58912 0.49102 0.13323 0.0
N861 N 0.60233 0.48381 0.11619 0.0
C862 C 0.58434 0.52761 0.15671 0.0
H863 H 0.56509 0.52405 0.1569 0.0
H864 H 0.58764 0.5467 0.1539 0.0
H865 H 0.59157 0.52259 0.17344 0.0
C866 C 0.50684 0.46025 0.10555 0.0
N867 N 0.52149 0.45757 0.12328 0.0
N868 N 0.53918 0.4725 0.12137 0.0
C869 C 0.53608 0.48543 0.10246 0.0
C870 C 0.51561 0.47799 0.09178 0.0
C871 C 0.4856 0.44518 0.1013 0.0
H872 H 0.48987 0.42645 0.10482 0.0
H873 H 0.47121 0.45069 0.11283 0.0
H874 H 0.47937 0.44677 0.08362 0.0
O875 O 0.54757 0.41566 0.14831 0.0
O876 O 0.57812 0.43959 0.1444 0.0
H877 H 0.56776 0.49822 0.08725 0.0
H878 H 0.54261 0.51709 0.08302 0.0
C879 C 0.55165 0.50541 0.09531 0.0
H880 H 0.55683 0.51601 0.11021 0.0
H881 H 0.60041 0.46748 0.10827 0.0
O882 O 0.4931 0.41613 0.14719 0.0
C883 C 0.56963 0.41893 0.14638 0.0
Co884 Co 0.31426 0.76682 0.89531 0.0
Co885 Co 0.28473 0.81303 0.89773 0.0
C886 C 0.28346 0.77676 0.93496 0.0
O887 O 0.29682 0.76231 0.92449 0.0
O888 O 0.27816 0.7967 0.92648 0.0
C889 C 0.32934 0.71703 0.89177 0.0
O890 O 0.30959 0.71075 0.90171 0.0
C891 C 0.24189 0.84108 0.90178 0.0
C892 C 0.25222 0.87412 0.88455 0.0
C893 C 0.23342 0.86288 0.89496 0.0
N894 N 0.26457 0.83947 0.89544 0.0
N895 N 0.27075 0.85936 0.88542 0.0
C896 C 0.22825 0.82103 0.9118 0.0
H897 H 0.23619 0.80393 0.90676 0.0
H898 H 0.20952 0.82157 0.90637 0.0
H899 H 0.22895 0.82235 0.93048 0.0
C900 C 0.29088 0.76448 0.85011 0.0
N901 N 0.29359 0.77392 0.87088 0.0
N902 N 0.28043 0.79296 0.87245 0.0
C903 C 0.26855 0.79598 0.85298 0.0
C904 C 0.27499 0.77829 0.83801 0.0
C905 C 0.30539 0.74442 0.84134 0.0
H906 H 0.32427 0.7476 0.84527 0.0
H907 H 0.29997 0.72794 0.85002 0.0
H908 H 0.30334 0.74211 0.82287 0.0
O909 O 0.33801 0.79248 0.89845 0.0
O910 O 0.31714 0.82552 0.89783 0.0
H911 H 0.26113 0.83254 0.84749 0.0
H912 H 0.24125 0.81276 0.83292 0.0
C913 C 0.25144 0.81558 0.84866 0.0
H914 H 0.23874 0.81664 0.86279 0.0
H915 H 0.28742 0.86256 0.8786 0.0
O916 O 0.33344 0.73871 0.88805 0.0
C917 C 0.33686 0.81492 0.89857 0.0
Co918 Co 0.99131 0.56609 0.64438 0.0
Co919 Co 0.94117 0.54274 0.64374 0.0
C920 C 0.97373 0.53694 0.68326 0.0
O921 O 0.98975 0.5491 0.67362 0.0
O922 O 0.95385 0.53321 0.67382 0.0
C923 C 0.04221 0.5702 0.64609 0.0
O924 O 0.04162 0.54871 0.65437 0.0
C925 C 0.90588 0.50457 0.64108 0.0
C926 C 0.87744 0.5224 0.62208 0.0
C927 C 0.88418 0.50084 0.63091 0.0
N928 N 0.91187 0.52732 0.63811 0.0
N929 N 0.89454 0.53797 0.62718 0.0
C930 C 0.92185 0.48634 0.65103 0.0
H931 H 0.9404 0.49263 0.651 0.0
H932 H 0.92042 0.46952 0.64153 0.0
H933 H 0.91638 0.48293 0.66872 0.0
C934 C 0.99493 0.54131 0.60055 0.0
N935 N 0.98381 0.54566 0.62021 0.0
N936 N 0.96282 0.53568 0.61985 0.0
C937 C 0.96007 0.52456 0.59986 0.0
C938 C 0.98034 0.52764 0.58711 0.0
C939 C 0.01784 0.55237 0.59377 0.0
H940 H 0.01684 0.57175 0.5962 0.0
H941 H 0.03208 0.54551 0.60479 0.0
H942 H 0.02231 0.54842 0.57593 0.0
O943 O 0.96956 0.59313 0.64379 0.0
O944 O 0.93395 0.57696 0.64345 0.0
H945 H 0.92323 0.52677 0.59234 0.0
H946 H 0.93923 0.50664 0.57438 0.0
C947 C 0.93759 0.51352 0.59185 0.0
H948 H 0.93289 0.49868 0.60312 0.0
H949 H 0.89495 0.55562 0.62218 0.0
O950 O 0.02303 0.58022 0.64058 0.0
C951 C 0.94722 0.59507 0.64325 0.0
Co952 Co 0.19042 0.76547 0.12922 0.0
Co953 Co 0.21714 0.81336 0.12641 0.0
C954 C 0.2191 0.77664 0.08898 0.0
O955 O 0.20671 0.76154 0.09966 0.0
O956 O 0.22361 0.79684 0.09742 0.0
C957 C 0.17494 0.71575 0.13089 0.0
O958 O 0.19219 0.71028 0.11705 0.0
C959 C 0.2605 0.84126 0.12534 0.0
C960 C 0.24688 0.87757 0.12919 0.0
C961 C 0.26741 0.86462 0.12665 0.0
N962 N 0.23689 0.84037 0.12722 0.0
N963 N 0.22884 0.86212 0.12946 0.0
C964 C 0.27579 0.82028 0.12081 0.0
H965 H 0.26542 0.80371 0.122 0.0
H966 H 0.29066 0.81972 0.13296 0.0
H967 H 0.28345 0.82184 0.10364 0.0
C968 C 0.21786 0.76188 0.17178 0.0
N969 N 0.21201 0.77311 0.15253 0.0
N970 N 0.2231 0.79351 0.1517 0.0
C971 C 0.23623 0.79596 0.17056 0.0
C972 C 0.23345 0.77596 0.18376 0.0
C973 C 0.20875 0.73809 0.17838 0.0
H974 H 0.18943 0.73918 0.1812 0.0
H975 H 0.21186 0.72546 0.16439 0.0
H976 H 0.21741 0.73146 0.19393 0.0
O977 O 0.16558 0.79013 0.12737 0.0
O978 O 0.1841 0.82455 0.12728 0.0
H979 H 0.24023 0.83367 0.17101 0.0
H980 H 0.25213 0.81881 0.19547 0.0
C981 C 0.24966 0.81771 0.17691 0.0
H982 H 0.26734 0.81715 0.16896 0.0
H983 H 0.21103 0.86642 0.13115 0.0
O984 O 0.17245 0.73693 0.13742 0.0
C985 C 0.16511 0.81259 0.12728 0.0
Co986 Co 0.98792 0.4414 0.87528 0.0
Co987 Co 0.94278 0.47303 0.87889 0.0
C988 C 0.9745 0.47319 0.83764 0.0
O989 O 0.98925 0.45892 0.84645 0.0
O990 O 0.95581 0.47946 0.84806 0.0
C991 C 0.03632 0.42147 0.87215 0.0
O992 O 0.04341 0.4406 0.86164 0.0
C993 C 0.91262 0.51524 0.87577 0.0
C994 C 0.8854 0.50721 0.90135 0.0
C995 C 0.8922 0.524 0.88565 0.0
N996 N 0.91755 0.49423 0.88518 0.0
N997 N 0.90121 0.48954 0.90043 0.0
C998 C 0.92807 0.52709 0.8587 0.0
H999 H 0.94685 0.52292 0.86216 0.0
H1000 H 0.92554 0.5465 0.85894 0.0
H1001 H 0.92364 0.5203 0.84165 0.0
C1002 C 0.99959 0.46634 0.91778 0.0
N1003 N 0.98544 0.46239 0.89992 0.0
N1004 N 0.96668 0.47599 0.90143 0.0
C1005 C 0.96843 0.48919 0.92031 0.0
C1006 C 0.98929 0.48347 0.9313 0.0
C1007 C 0.02171 0.45275 0.92241 0.0
H1008 H 0.01817 0.4336 0.92053 0.0
H1009 H 0.03532 0.45775 0.90984 0.0
H1010 H 0.02857 0.4561 0.93964 0.0
O1011 O 0.96099 0.41961 0.87515 0.0
O1012 O 0.92868 0.44095 0.87974 0.0
H1013 H 0.93469 0.49862 0.93354 0.0
H1014 H 0.95794 0.51903 0.94085 0.0
C1015 C 0.95088 0.50749 0.92731 0.0
H1016 H 0.94611 0.51858 0.91261 0.0
H1017 H 0.90085 0.47425 0.91022 0.0
O1018 O 0.01506 0.4198 0.87872 0.0
C1019 C 0.93877 0.42107 0.87747 0.0
Co1020 Co 0.32123 0.22866 0.62871 0.0
Co1021 Co 0.28473 0.18751 0.63318 0.0
C1022 C 0.28554 0.2166 0.59181 0.0
O1023 O 0.30242 0.22889 0.59992 0.0
O1024 O 0.27652 0.19958 0.60288 0.0
C1025 C 0.32943 0.27718 0.62447 0.0
O1026 O 0.30686 0.27619 0.61945 0.0
C1027 C 0.24141 0.1588 0.6368 0.0
C1028 C 0.2527 0.13258 0.66226 0.0
C1029 C 0.23357 0.1399 0.64959 0.0
N1030 N 0.26416 0.16272 0.64199 0.0
N1031 N 0.27089 0.14674 0.6569 0.0
C1032 C 0.22717 0.17409 0.6214 0.0
H1033 H 0.23305 0.19271 0.62287 0.0
H1034 H 0.20806 0.17273 0.62527 0.0
H1035 H 0.23012 0.16832 0.60373 0.0
C1036 C 0.30144 0.24001 0.67407 0.0
N1037 N 0.30107 0.22792 0.65445 0.0
N1038 N 0.28459 0.2116 0.65556 0.0
C1039 C 0.27347 0.2133 0.67564 0.0
C1040 C 0.2839 0.2312 0.68814 0.0
C1041 C 0.31924 0.25863 0.6797 0.0
H1042 H 0.3371 0.25267 0.67458 0.0
H1043 H 0.31501 0.27485 0.67007 0.0
H1044 H 0.31915 0.26309 0.69792 0.0
O1045 O 0.34305 0.20109 0.62954 0.0
O1046 O 0.31618 0.17278 0.6322 0.0
H1047 H 0.26411 0.17943 0.68862 0.0
H1048 H 0.24583 0.20287 0.69895 0.0
C1049 C 0.25531 0.19617 0.68392 0.0
H1050 H 0.24227 0.19265 0.67041 0.0
H1051 H 0.28771 0.14602 0.664 0.0
O1052 O 0.34015 0.25816 0.62927 0.0
C1053 C 0.33762 0.17932 0.63102 0.0
Co1054 Co 0.51386 0.56387 0.37784 0.0
Co1055 Co 0.56258 0.53764 0.38164 0.0
C1056 C 0.53164 0.53208 0.34088 0.0
O1057 O 0.51585 0.54531 0.34951 0.0
O1058 O 0.5509 0.52768 0.35123 0.0
C1059 C 0.46342 0.57007 0.37318 0.0
O1060 O 0.46382 0.54851 0.36502 0.0
C1061 C 0.59744 0.49878 0.38546 0.0
C1062 C 0.62436 0.51579 0.40703 0.0
C1063 C 0.61856 0.49469 0.39667 0.0
N1064 N 0.59096 0.52128 0.38927 0.0
N1065 N 0.60735 0.53141 0.40185 0.0
C1066 C 0.58258 0.48115 0.3732 0.0
H1067 H 0.56375 0.48652 0.37359 0.0
H1068 H 0.58465 0.46333 0.38072 0.0
H1069 H 0.5884 0.48033 0.35534 0.0
C1070 C 0.50727 0.5419 0.42266 0.0
N1071 N 0.51937 0.54447 0.40326 0.0
N1072 N 0.53939 0.53278 0.40469 0.0
C1073 C 0.54038 0.52206 0.42503 0.0
C1074 C 0.52011 0.52753 0.43707 0.0
C1075 C 0.48473 0.55449 0.42791 0.0
H1076 H 0.48716 0.57372 0.42527 0.0
H1077 H 0.47082 0.54835 0.41613 0.0
H1078 H 0.4788 0.55116 0.44546 0.0
O1079 O 0.53702 0.58977 0.37745 0.0
O1080 O 0.57144 0.57155 0.38085 0.0
H1081 H 0.57643 0.52184 0.43555 0.0
H1082 H 0.55803 0.50129 0.45069 0.0
C1083 C 0.56152 0.50929 0.43394 0.0
H1084 H 0.56662 0.49517 0.42197 0.0
H1085 H 0.60649 0.54878 0.4076 0.0
O1086 O 0.48256 0.57948 0.37977 0.0
C1087 C 0.55939 0.5904 0.37908 0.0
H1088 H 0.23662 0.25784 0.21147 0.0
H1089 H 0.31267 0.25203 0.21643 0.0
H1090 H 0.30914 0.24322 0.2572 0.0
H1091 H 0.22829 0.2872 0.26414 0.0
H1092 H 0.20102 0.27241 0.27086 0.0
H1093 H 0.20932 0.27683 0.24182 0.0
H1094 H 0.20582 0.23191 0.23431 0.0
H1095 H 0.19722 0.22738 0.26324 0.0
H1096 H 0.22205 0.21156 0.25178 0.0
H1097 H 0.29742 0.23633 0.29749 0.0
H1098 H 0.27809 0.23006 0.33448 0.0
H1099 H 0.20968 0.24127 0.30368 0.0
C1100 C 0.25245 0.25441 0.22117 0.0
C1101 C 0.27491 0.25531 0.21092 0.0
C1102 C 0.29531 0.251 0.22402 0.0
C1103 C 0.29347 0.24618 0.24716 0.0
C1104 C 0.27109 0.24585 0.2569 0.0
C1105 C 0.25092 0.24973 0.24433 0.0
C1106 C 0.22904 0.24888 0.25903 0.0
C1107 C 0.21616 0.27275 0.25895 0.0
C1108 C 0.21257 0.22873 0.25165 0.0
C1109 C 0.24007 0.24389 0.28183 0.0
C1110 C 0.26435 0.24225 0.28021 0.0
C1111 C 0.27843 0.23757 0.29896 0.0
C1112 C 0.26736 0.23411 0.31985 0.0
C1113 C 0.24253 0.23538 0.3218 0.0
C1114 C 0.22874 0.24055 0.30261 0.0
H1115 H 0.00625 0.01261 0.56524 0.0
H1116 H 0.02539 0.93968 0.55324 0.0
H1117 H 0.01936 0.94539 0.51224 0.0
H1118 H 0.96076 0.01621 0.52285 0.0
H1119 H 0.96788 0.04602 0.51473 0.0
H1120 H 0.97377 0.03614 0.54306 0.0
H1121 H 0.01758 0.04836 0.53858 0.0
H1122 H 0.01186 0.0581 0.51016 0.0
H1123 H 0.03459 0.03658 0.51548 0.0
H1124 H 0.01099 0.95884 0.47275 0.0
H1125 H 0.99933 0.97884 0.43732 0.0
H1126 H 0.98612 0.04333 0.47446 0.0
C1127 C 0.00911 0.9979 0.5539 0.0
C1128 C 0.01609 0.97564 0.56229 0.0
C1129 C 0.01974 0.95676 0.54707 0.0
C1130 C 0.01651 0.95989 0.5238 0.0
C1131 C 0.00974 0.98208 0.51599 0.0
C1132 C 0.006 1.00077 0.53056 0.0
C1133 C 0.99853 0.02271 0.51773 0.0
C1134 C 0.97376 0.03073 0.52503 0.0
C1135 C 0.01673 0.04261 0.52067 0.0
C1136 C 0.99848 0.01339 0.49373 0.0
C1137 C 0.00512 0.98993 0.49313 0.0
C1138 C 0.00587 0.97723 0.47299 0.0
C1139 C 0.9993 0.9887 0.45299 0.0
C1140 C 0.99209 0.01257 0.45325 0.0
C1141 C 0.99194 0.02515 0.47384 0.0
H1142 H 0.25865 0.74023 0.81394 0.0
H1143 H 0.2784 0.81381 0.80731 0.0
H1144 H 0.26561 0.81345 0.76747 0.0
H1145 H 0.27917 0.72303 0.75809 0.0
H1146 H 0.25569 0.70203 0.75388 0.0
H1147 H 0.26606 0.70833 0.78198 0.0
H1148 H 0.22344 0.71914 0.79402 0.0
H1149 H 0.21299 0.71315 0.76588 0.0
H1150 H 0.2076 0.74153 0.77861 0.0
H1151 H 0.24933 0.80547 0.7287 0.0
H1152 H 0.23503 0.78893 0.6924 0.0
H1153 H 0.22782 0.72023 0.72373 0.0
C1154 C 0.26045 0.75615 0.80398 0.0
C1155 C 0.2691 0.77716 0.8137 0.0
C1156 C 0.27133 0.79767 0.80022 0.0
C1157 C 0.26416 0.79763 0.7776 0.0
C1158 C 0.25515 0.7768 0.76862 0.0
C1159 C 0.25365 0.75632 0.78124 0.0
C1160 C 0.24404 0.73613 0.76727 0.0
C1161 C 0.26233 0.71621 0.76518 0.0
C1162 C 0.22062 0.72696 0.77703 0.0
C1163 C 0.24026 0.7485 0.74491 0.0
C1164 C 0.24655 0.77201 0.74608 0.0
C1165 C 0.24444 0.78705 0.72753 0.0
C1166 C 0.23619 0.77762 0.70709 0.0
C1167 C 0.23046 0.75342 0.70544 0.0
C1168 C 0.23222 0.73881 0.72464 0.0
H1169 H 0.49506 0.99437 0.06745 0.0
H1170 H 0.48354 0.06943 0.05898 0.0
H1171 H 0.49163 0.0657 0.01813 0.0
H1172 H 0.54181 0.98797 0.02665 0.0
H1173 H 0.5316 0.95977 0.01649 0.0
H1174 H 0.52565 0.96854 0.04514 0.0
H1175 H 0.48093 0.962 0.03848 0.0
H1176 H 0.48674 0.95332 1.00976 0.0
H1177 H 0.46649 0.97707 0.01553 0.0
H1178 H 0.50136 0.05389 0.97836 0.0
H1179 H 0.51147 0.03456 0.94211 0.0
H1180 H 0.51459 0.96683 0.97583 0.0
C1181 C 0.49434 0.00998 0.05693 0.0
C1182 C 0.48908 0.03227 0.06632 0.0
C1183 C 0.48806 0.05231 0.05212 0.0
C1184 C 0.49245 0.05032 0.02891 0.0
C1185 C 0.49754 0.02809 0.02013 0.0
C1186 C 0.4984 0.00824 0.03365 0.0
C1187 C 0.50379 0.98636 0.01985 0.0
C1188 C 0.5271 0.975 0.02749 0.0
C1189 C 0.48326 0.96864 0.02098 0.0
C1190 C 0.50602 0.99704 0.9965 0.0
C1191 C 0.50239 0.02116 0.99706 0.0
C1192 C 0.5041 0.03501 0.97769 0.0
C1193 C 0.50982 0.02395 0.95723 0.0
C1194 C 0.51359 0.99932 0.95633 0.0
C1195 C 0.5115 0.98568 0.97615 0.0
H1196 H 0.21234 0.7704 0.2249 0.0
H1197 H 0.28027 0.77078 0.19142 0.0
H1198 H 0.30005 0.76251 0.22787 0.0
H1199 H 0.23231 0.80008 0.2755 0.0
H1200 H 0.21346 0.78338 0.29408 0.0
H1201 H 0.20464 0.78855 0.26529 0.0
H1202 H 0.20004 0.74353 0.25903 0.0
H1203 H 0.20882 0.73821 0.2878 0.0
H1204 H 0.22457 0.72427 0.26499 0.0
H1205 H 0.31199 0.75218 0.26738 0.0
H1206 H 0.31586 0.74329 0.308 0.0
H1207 H 0.24064 0.75374 0.31678 0.0
C1208 C 0.23136 0.76861 0.22537 0.0
C1209 C 0.24493 0.7709 0.20554 0.0
C1210 C 0.26974 0.76889 0.20657 0.0
C1211 C 0.28105 0.76421 0.22712 0.0
C1212 C 0.26723 0.76201 0.24647 0.0
C1213 C 0.24296 0.76439 0.24585 0.0
C1214 C 0.23235 0.76194 0.26922 0.0
C1215 C 0.21996 0.78486 0.27644 0.0
C1216 C 0.21545 0.74072 0.27032 0.0
C1217 C 0.25442 0.7576 0.28303 0.0
C1218 C 0.2743 0.75748 0.26952 0.0
C1219 C 0.29662 0.75265 0.2782 0.0
C1220 C 0.29867 0.74779 0.3013 0.0
C1221 C 0.27862 0.74826 0.31555 0.0
C1222 C 0.25626 0.75338 0.30626 0.0
H1223 H 0.49115 0.96545 0.4761 0.0
H1224 H 0.50581 0.02966 0.43902 0.0
H1225 H 0.51829 0.04927 0.47444 0.0
H1226 H 0.46715 0.99272 0.52471 0.0
H1227 H 0.47986 0.97231 0.54461 0.0
H1228 H 0.47352 0.96284 0.51624 0.0
H1229 H 0.517 0.94985 0.51104 0.0
H1230 H 0.52344 0.9591 0.53948 0.0
H1231 H 0.54037 0.97074 0.51627 0.0
H1232 H 0.52727 0.06237 0.514 0.0
H1233 H 0.53336 0.0678 0.55506 0.0
H1234 H 0.51305 0.99512 0.56672 0.0
C1235 C 0.49743 0.98349 0.47549 0.0
C1236 C 0.49773 0.99612 0.45495 0.0
C1237 C 0.50559 0.01979 0.45468 0.0
C1238 C 0.51267 0.03102 0.47467 0.0
C1239 C 0.51185 0.01824 0.49476 0.0
C1240 C 0.50459 0.99495 0.49533 0.0
C1241 C 0.50474 0.98547 0.51927 0.0
C1242 C 0.47983 0.9779 0.52663 0.0
C1243 C 0.52244 0.96508 0.52165 0.0
C1244 C 0.51292 0.00714 0.5321 0.0
C1245 C 0.51697 0.02583 0.51761 0.0
C1246 C 0.52423 0.04785 0.52549 0.0
C1247 C 0.52751 0.05082 0.54878 0.0
C1248 C 0.52344 0.03194 0.56389 0.0
C1249 C 0.51619 0.00981 0.55542 0.0
H1250 H 0.24466 0.24628 0.71084 0.0
H1251 H 0.31685 0.22337 0.7206 0.0
H1252 H 0.31153 0.22567 0.76202 0.0
H1253 H 0.24263 0.2874 0.75766 0.0
H1254 H 0.21254 0.28033 0.76483 0.0
H1255 H 0.22249 0.27744 0.73611 0.0
H1256 H 0.20874 0.2338 0.73596 0.0
H1257 H 0.19909 0.23647 0.76482 0.0
H1258 H 0.2199 0.21383 0.75709 0.0
H1259 H 0.29822 0.23026 0.80228 0.0
H1260 H 0.27845 0.23919 0.83863 0.0
H1261 H 0.21461 0.25796 0.80279 0.0
C1262 C 0.25935 0.24199 0.72179 0.0
C1263 C 0.28123 0.23489 0.71271 0.0
C1264 C 0.30008 0.2292 0.72737 0.0
C1265 C 0.29714 0.23025 0.75085 0.0
C1266 C 0.2752 0.23692 0.75934 0.0
C1267 C 0.25666 0.24286 0.74527 0.0
C1268 C 0.23491 0.24948 0.75871 0.0
C1269 C 0.22773 0.27519 0.75405 0.0
C1270 C 0.21446 0.23237 0.75385 0.0
C1271 C 0.24412 0.24646 0.78253 0.0
C1272 C 0.26738 0.23909 0.78252 0.0
C1273 C 0.27996 0.23582 0.80251 0.0
C1274 C 0.26862 0.24074 0.82302 0.0
C1275 C 0.245 0.24866 0.8233 0.0
C1276 C 0.23252 0.2513 0.80288 0.0
H1277 H 0.01874 0.04019 0.97266 0.0
H1278 H 0.98886 0.98079 0.93663 0.0
H1279 H 0.97902 0.96153 0.97296 0.0
H1280 H 0.04566 0.0075 0.01609 0.0
H1281 H 0.03949 0.02828 0.03835 0.0
H1282 H 0.04242 0.03843 1.0097 0.0
H1283 H 1.00097 0.05758 1.01155 0.0
H1284 H 0.99809 0.04788 0.04038 0.0
H1285 H 0.97598 0.03992 0.01987 0.0
H1286 H 0.97492 0.94763 0.01307 0.0
H1287 H 0.97344 0.94162 0.05444 0.0
H1288 H 0.00616 0.00988 0.06468 0.0
C1289 C 0.00955 0.02343 0.97254 0.0
C1290 C 0.00423 0.01198 0.952 0.0
C1291 C 0.99274 0.98984 0.9523 0.0
C1292 C 0.98725 0.97876 0.97281 0.0
C1293 C 0.99334 0.99013 0.99285 0.0
C1294 C 0.00392 0.01213 0.99292 0.0
C1295 C 0.00912 0.02021 0.01683 0.0
C1296 C 0.03576 0.02381 0.02044 0.0
C1297 C 0.99521 0.04273 0.02249 0.0
C1298 C 1.00007 0.99923 0.03015 0.0
C1299 C 0.99108 0.98206 0.01598 0.0
C1300 C 0.98185 0.96098 0.02432 0.0
C1301 C 0.98127 0.95761 0.04778 0.0
C1302 C 0.98991 0.97517 0.06259 0.0
C1303 C 0.99963 0.99613 0.05363 0.0
H1304 H 0.71006 0.7481 0.79677 0.0
H1305 H 0.77839 0.73594 0.82746 0.0
H1306 H 0.79794 0.74538 0.79126 0.0
H1307 H 0.72297 0.72264 0.74387 0.0
H1308 H 0.70669 0.74383 0.7274 0.0
H1309 H 0.69803 0.73773 0.75604 0.0
H1310 H 0.70157 0.78212 0.76594 0.0
H1311 H 0.71006 0.7884 0.73725 0.0
H1312 H 0.7288 0.79747 0.76026 0.0
H1313 H 0.80985 0.75342 0.75145 0.0
H1314 H 0.81361 0.76135 0.71058 0.0
H1315 H 0.73774 0.76922 0.70543 0.0
C1316 C 0.72915 0.7479 0.79588 0.0
C1317 C 0.74282 0.74133 0.81478 0.0
C1318 C 0.7677 0.74086 0.81306 0.0
C1319 C 0.77892 0.74623 0.79262 0.0
C1320 C 0.76497 0.75222 0.77414 0.0
C1321 C 0.74064 0.75332 0.77558 0.0
C1322 C 0.72982 0.75955 0.75293 0.0
C1323 C 0.71341 0.73975 0.74457 0.0
C1324 C 0.71679 0.7833 0.75418 0.0
C1325 C 0.75182 0.76136 0.73848 0.0
C1326 C 0.77189 0.7571 0.7511 0.0
C1327 C 0.79429 0.75695 0.74142 0.0
C1328 C 0.79625 0.76131 0.71823 0.0
C1329 C 0.77596 0.76573 0.70501 0.0
C1330 C 0.7535 0.76594 0.71529 0.0
H1331 H 0.76749 0.29069 0.29877 0.0
H1332 H 0.76156 0.22205 0.33049 0.0
H1333 H 0.747 0.20512 0.29458 0.0
H1334 H 0.71552 0.28581 0.26261 0.0
H1335 H 0.72925 0.30069 0.23916 0.0
H1336 H 0.73803 0.30768 0.26763 0.0
H1337 H 0.78149 0.29817 0.25761 0.0
H1338 H 0.77286 0.29117 0.22914 0.0
H1339 H 0.7887 0.26977 0.24576 0.0
H1340 H 0.73364 0.19564 0.25547 0.0
H1341 H 0.72423 0.19347 0.21485 0.0
H1342 H 0.73997 0.26795 0.20766 0.0
C1343 C 0.76282 0.27217 0.29814 0.0
C1344 C 0.76545 0.25761 0.31732 0.0
C1345 C 0.75966 0.23339 0.31589 0.0
C1346 C 0.7513 0.2237 0.29564 0.0
C1347 C 0.74895 0.23848 0.27697 0.0
C1348 C 0.75463 0.26217 0.27796 0.0
C1349 C 0.75148 0.27389 0.25513 0.0
C1350 C 0.73243 0.29316 0.25621 0.0
C1351 C 0.77504 0.28383 0.2464 0.0
C1352 C 0.74333 0.25303 0.2411 0.0
C1353 C 0.7418 0.23286 0.25415 0.0
C1354 C 0.73486 0.21129 0.24507 0.0
C1355 C 0.72967 0.2102 0.222 0.0
C1356 C 0.73169 0.23047 0.20817 0.0
C1357 C 0.7383 0.25223 0.21791 0.0
H1358 H 0.74444 0.23729 0.70741 0.0
H1359 H 0.72395 0.31047 0.71536 0.0
H1360 H 0.73221 0.30811 0.75625 0.0
H1361 H 0.72104 0.21622 0.76149 0.0
H1362 H 0.7453 0.19631 0.76636 0.0
H1363 H 0.7364 0.20324 0.73792 0.0
H1364 H 0.77898 0.21684 0.7287 0.0
H1365 H 0.78799 0.20999 0.75709 0.0
H1366 H 0.7927 0.2392 0.74594 0.0
H1367 H 0.74376 0.29836 0.7958 0.0
H1368 H 0.75854 0.28185 0.83174 0.0
H1369 H 0.77297 0.21533 0.79835 0.0
C1370 C 0.74149 0.25265 0.71791 0.0
C1371 C 0.73364 0.27408 0.70842 0.0
C1372 C 0.73012 0.29397 0.72245 0.0
C1373 C 0.73466 0.29276 0.74564 0.0
C1374 C 0.74275 0.27151 0.75453 0.0
C1375 C 0.74615 0.25179 0.74116 0.0
C1376 C 0.75595 0.23146 0.75492 0.0
C1377 C 0.73864 0.21057 0.75519 0.0
C1378 C 0.78035 0.22394 0.74614 0.0
C1379 C 0.75772 0.24294 0.77799 0.0
C1380 C 0.74983 0.26599 0.77739 0.0
C1381 C 0.74998 0.28033 0.7965 0.0
C1382 C 0.7585 0.27088 0.81678 0.0
C1383 C 0.76692 0.24741 0.81774 0.0
C1384 C 0.76642 0.23327 0.79809 0.0
H1385 H 0.72845 0.78867 0.29622 0.0
H1386 H 0.73172 0.71945 0.3271 0.0
H1387 H 0.74636 0.70262 0.29111 0.0
H1388 H 0.70826 0.76884 0.24151 0.0
H1389 H 0.72525 0.79043 0.22618 0.0
H1390 H 0.71519 0.79684 0.25435 0.0
H1391 H 0.75821 0.80563 0.26657 0.0
H1392 H 0.76843 0.79908 0.23847 0.0
H1393 H 0.78064 0.78354 0.2623 0.0
H1394 H 0.76231 0.69394 0.25254 0.0
H1395 H 0.77498 0.69284 0.21274 0.0
H1396 H 0.75936 0.76741 0.20607 0.0
C1397 C 0.73226 0.76997 0.29531 0.0
C1398 C 0.72912 0.75525 0.31429 0.0
C1399 C 0.73398 0.73087 0.31261 0.0
C1400 C 0.74239 0.72125 0.29233 0.0
C1401 C 0.74561 0.73629 0.27394 0.0
C1402 C 0.74043 0.76007 0.27515 0.0
C1403 C 0.74497 0.77227 0.25279 0.0
C1404 C 0.72205 0.7827 0.24314 0.0
C1405 C 0.76421 0.79125 0.25519 0.0
C1406 C 0.75354 0.75162 0.23878 0.0
C1407 C 0.75398 0.7311 0.25142 0.0
C1408 C 0.76171 0.7098 0.2424 0.0
C1409 C 0.76875 0.70934 0.21976 0.0
C1410 C 0.76764 0.72992 0.20625 0.0
C1411 C 0.76026 0.75141 0.21601 0.0
H1412 H 0.51481 0.50833 0.96004 0.0
H1413 H 0.44201 0.53002 0.96845 0.0
H1414 H 0.44437 0.52114 1.00918 0.0
H1415 H 0.51368 0.46045 0.99888 0.0
H1416 H 0.54289 0.46564 1.00984 0.0
H1417 H 0.53576 0.47427 0.98141 0.0
H1418 H 0.54886 0.51714 0.99014 0.0
H1419 H 0.55611 0.50861 0.01861 0.0
H1420 H 0.53585 0.53256 0.01366 0.0
H1421 H 0.45397 0.50834 0.0485 0.0
H1422 H 0.47096 0.49389 0.08445 0.0
H1423 H 0.53784 0.48162 0.05103 0.0
C1424 C 0.49951 0.51141 0.97058 0.0
C1425 C 0.47816 0.51962 0.96119 0.0
C1426 C 0.4584 0.52338 0.97535 0.0
C1427 C 0.45961 0.51851 0.99848 0.0
C1428 C 0.4808 0.51012 1.00723 0.0
C1429 C 0.50047 0.50677 0.9938 0.0
C1430 C 0.521 0.49739 1.00749 0.0
C1431 C 0.52878 0.47299 0.99889 0.0
C1432 C 0.54168 0.51498 1.00747 0.0
C1433 C 0.50969 0.49572 0.0306 0.0
C1434 C 0.48648 0.50315 0.03006 0.0
C1435 C 0.47217 0.50262 0.04919 0.0
C1436 C 0.48187 0.49433 0.06945 0.0
C1437 C 0.50562 0.48678 0.07036 0.0
C1438 C 0.51969 0.48756 0.05072 0.0
H1439 H 0.99976 0.48972 0.56564 0.0
H1440 H 0.96557 0.55694 0.55404 0.0
H1441 H 0.96812 0.55058 0.51272 0.0
H1442 H 0.04059 0.49346 0.51963 0.0
H1443 H 0.03902 0.46252 0.51277 0.0
H1444 H 0.03379 0.47216 0.54128 0.0
H1445 H 0.99314 0.45116 0.54087 0.0
H1446 H 0.99817 0.44163 0.51225 0.0
H1447 H 0.97207 0.45831 0.51913 0.0
H1448 H 0.97545 0.53747 0.47299 0.0
H1449 H 0.9884 0.51899 0.43716 0.0
H1450 H 0.01749 0.46008 0.47443 0.0
C1451 C 0.99285 0.503 0.55427 0.0
C1452 C 0.98253 0.52381 0.56267 0.0
C1453 C 0.97358 0.54094 0.54762 0.0
C1454 C 0.97487 0.53742 0.52425 0.0
C1455 C 0.98509 0.51664 0.51636 0.0
C1456 C 0.99398 0.49972 0.53088 0.0
C1457 C 0.00461 0.47925 0.51796 0.0
C1458 C 0.03107 0.47671 0.52322 0.0
C1459 C 0.99119 0.45623 0.52285 0.0
C1460 C 1.00058 0.48744 0.49394 0.0
C1461 C 0.98914 0.50897 0.4934 0.0
C1462 C 0.98422 0.52052 0.47317 0.0
C1463 C 0.99154 0.50994 0.45297 0.0
C1464 C 0.00357 0.48813 0.45326 0.0
C1465 C 0.00789 0.4766 0.47391 0.0
H1466 H 0.98701 0.50925 0.06388 0.0
H1467 H 0.0588 0.53466 0.057 0.0
H1468 H 0.05694 0.52811 0.01582 0.0
H1469 H 0.99107 0.46343 0.02311 0.0
H1470 H 0.96166 0.46735 0.01218 0.0
H1471 H 0.96814 0.47514 0.04097 0.0
H1472 H 0.95258 0.51747 0.03386 0.0
H1473 H 0.94602 0.5098 1.00501 0.0
H1474 H 0.9648 0.53467 1.01109 0.0
H1475 H 0.04808 0.51718 0.9759 0.0
H1476 H 0.03238 0.50285 0.93938 0.0
H1477 H 0.96625 0.48477 0.97179 0.0
C1478 C 0.00217 0.51364 0.05357 0.0
C1479 C 0.02309 0.52231 0.06345 0.0
C1480 C 0.04272 0.52775 0.04964 0.0
C1481 C 0.04178 0.52421 0.02628 0.0
C1482 C 0.02102 0.51534 0.01701 0.0
C1483 C 1.00152 0.5102 0.03015 0.0
C1484 C 0.98164 0.50021 0.01594 0.0
C1485 C 0.97526 0.47504 0.0235 0.0
C1486 C 0.95998 0.51652 0.01651 0.0
C1487 C 0.99317 0.50025 0.99287 0.0
C1488 C 0.01585 0.50914 0.99387 0.0
C1489 C 0.03029 0.51032 0.97486 0.0
C1490 C 0.02131 0.5021 0.95427 0.0
C1491 C 0.99819 0.49284 0.95293 0.0
C1492 C 0.98392 0.49205 0.97243 0.0
H1493 H 0.5098 0.48677 0.45972 0.0
H1494 H 0.52251 0.5615 0.46912 0.0
H1495 H 0.51755 0.55678 0.51041 0.0
H1496 H 0.46444 0.48178 0.50182 0.0
H1497 H 0.47335 0.45281 0.51101 0.0
H1498 H 0.47889 0.462 0.48241 0.0
H1499 H 0.52334 0.45282 0.48763 0.0
H1500 H 0.51797 0.44379 0.51634 0.0
H1501 H 0.53935 0.46653 0.51044 0.0
H1502 H 0.51106 0.54401 0.55038 0.0
H1503 H 0.5007 0.52447 0.58642 0.0
H1504 H 0.49067 0.45829 0.55107 0.0
C1505 C 0.51153 0.50204 0.47059 0.0
C1506 C 0.51649 0.52449 0.46152 0.0
C1507 C 0.51861 0.54421 0.47598 0.0
C1508 C 0.51594 0.54166 0.49936 0.0
C1509 C 0.51109 0.51927 0.5079 0.0
C1510 C 0.5087 0.49982 0.49398 0.0
C1511 C 0.50251 0.47793 0.50744 0.0
C1512 C 0.47836 0.46806 0.50024 0.0
C1513 C 0.52196 0.45916 0.50533 0.0
C1514 C 0.50164 0.48815 0.53106 0.0
C1515 C 0.5069 0.51197 0.53095 0.0
C1516 C 0.50694 0.52536 0.55068 0.0
C1517 C 0.50108 0.51418 0.57101 0.0
C1518 C 0.4951 0.48996 0.5714 0.0
C1519 C 0.49559 0.47676 0.55121 0.0
H1520 H 0.36589 0.21057 0.12545 0.0
H1521 H 0.30067 0.17151 0.11601 0.0
H1522 H 0.32173 0.13439 0.124 0.0
H1523 H 0.40397 0.16707 0.09908 0.0
H1524 H 0.42805 0.17198 0.1184 0.0
H1525 H 0.40787 0.1956 0.11203 0.0
H1526 H 0.39919 0.20068 0.15467 0.0
H1527 H 0.41917 0.17691 0.16117 0.0
H1528 H 0.38903 0.1757 0.17083 0.0
H1529 H 0.34892 0.10203 0.13437 0.0
H1530 H 0.38151 0.07511 0.14274 0.0
H1531 H 0.43038 0.13429 0.1441 0.0
C1532 C 0.35607 0.19418 0.12495 0.0
C1533 C 0.33158 0.19394 0.12012 0.0
C1534 C 0.3194 0.17214 0.11955 0.0
C1535 C 0.33119 0.15097 0.12419 0.0
C1536 C 0.3552 0.15187 0.12918 0.0
C1537 C 0.36763 0.17281 0.1293 0.0
C1538 C 0.39352 0.16863 0.13469 0.0
C1539 C 0.40928 0.17627 0.11487 0.0
C1540 C 0.40064 0.18123 0.15665 0.0
C1541 C 0.39364 0.14204 0.13763 0.0
C1542 C 0.37124 0.13289 0.13458 0.0
C1543 C 0.36657 0.10894 0.13662 0.0
C1544 C 0.38534 0.09378 0.14143 0.0
C1545 C 0.40871 0.10246 0.14396 0.0
C1546 C 0.4128 0.12705 0.14229 0.0
H1547 H 0.07349 0.08556 0.37476 0.0
H1548 H 0.01592 0.13346 0.39018 0.0
H1549 H 0.04456 0.1651 0.39821 0.0
H1550 H 0.11293 0.10666 0.41818 0.0
H1551 H 0.13903 0.10339 0.40108 0.0
H1552 H 0.11399 0.0844 0.39647 0.0
H1553 H 0.11271 0.09701 0.35444 0.0
H1554 H 0.13777 0.11598 0.35892 0.0
H1555 H 0.11085 0.1279 0.34743 0.0
H1556 H 0.07934 0.19187 0.40368 0.0
H1557 H 0.11804 0.21167 0.40681 0.0
H1558 H 0.15288 0.14606 0.38883 0.0
C1559 C 0.06691 0.10271 0.37979 0.0
C1560 C 0.04246 0.10703 0.38177 0.0
C1561 C 0.03457 0.1297 0.38854 0.0
C1562 C 0.0507 0.14781 0.39315 0.0
C1563 C 0.07466 0.14296 0.39106 0.0
C1564 C 0.08277 0.12096 0.38462 0.0
C1565 C 0.10946 0.1204 0.38373 0.0
C1566 C 0.11943 0.10266 0.40089 0.0
C1567 C 0.1182 0.11501 0.3597 0.0
C1568 C 0.11503 0.14556 0.39051 0.0
C1569 C 0.09472 0.15829 0.39463 0.0
C1570 C 0.09539 0.18206 0.40061 0.0
C1571 C 0.11745 0.19316 0.40233 0.0
C1572 C 0.13851 0.18042 0.39819 0.0
C1573 C 0.13715 0.15627 0.39233 0.0
H1574 H 0.07176 0.86924 0.64215 0.0
H1575 H 0.12255 0.92547 0.63064 0.0
H1576 H 0.15326 0.89604 0.6229 0.0
H1577 H 0.11285 0.8294 0.67009 0.0
H1578 H 0.10042 0.80319 0.6576 0.0
H1579 H 0.08207 0.82863 0.66245 0.0
H1580 H 0.0703 0.82891 0.62022 0.0
H1581 H 0.08874 0.80356 0.61521 0.0
H1582 H 0.09303 0.8301 0.59896 0.0
H1583 H 0.17838 0.86123 0.61531 0.0
H1584 H 0.19733 0.82255 0.61053 0.0
H1585 H 0.13132 0.78784 0.62759 0.0
C1586 C 0.08936 0.87536 0.63812 0.0
C1587 C 0.09461 0.8998 0.63703 0.0
C1588 C 0.11795 0.90696 0.63167 0.0
C1589 C 0.13559 0.89035 0.62716 0.0
C1590 C 0.1298 0.86652 0.62815 0.0
C1591 C 0.10737 0.85892 0.63367 0.0
C1592 C 0.10615 0.83212 0.63373 0.0
C1593 C 0.10001 0.82279 0.65738 0.0
C1594 C 0.08851 0.82315 0.61597 0.0
C1595 C 0.13136 0.82596 0.62726 0.0
C1596 C 0.14459 0.84616 0.62405 0.0
C1597 C 0.16825 0.84526 0.61786 0.0
C1598 C 0.17885 0.82313 0.61513 0.0
C1599 C 0.16588 0.80206 0.61866 0.0
C1600 C 0.14173 0.80358 0.62471 0.0
H1601 H 0.41861 0.92721 0.87482 0.0
H1602 H 0.47786 0.88438 0.89684 0.0
H1603 H 0.45084 0.8516 0.9052 0.0
H1604 H 0.37711 0.90566 0.91715 0.0
H1605 H 0.35231 0.90602 0.8981 0.0
H1606 H 0.37621 0.92662 0.89428 0.0
H1607 H 0.38173 0.91196 0.85319 0.0
H1608 H 0.35786 0.89134 0.85689 0.0
H1609 H 0.38644 0.88098 0.84797 0.0
H1610 H 0.41809 0.82268 0.90934 0.0
H1611 H 0.38102 0.79984 0.91029 0.0
H1612 H 0.34259 0.86145 0.88694 0.0
C1613 C 0.42587 0.91098 0.8815 0.0
C1614 C 0.45039 0.90841 0.88512 0.0
C1615 C 0.45916 0.88686 0.89392 0.0
C1616 C 0.44396 0.86808 0.89875 0.0
C1617 C 0.41996 0.87111 0.89487 0.0
C1618 C 0.41088 0.89203 0.8866 0.0
C1619 C 0.38434 0.89045 0.88382 0.0
C1620 C 0.37175 0.90824 0.89926 0.0
C1621 C 0.37718 0.89388 0.85899 0.0
C1622 C 0.38006 0.8653 0.89152 0.0
C1623 C 0.40087 0.85448 0.8978 0.0
C1624 C 0.40162 0.83099 0.90468 0.0
C1625 C 0.38049 0.81815 0.90511 0.0
C1626 C 0.3589 0.82889 0.89884 0.0
C1627 C 0.35876 0.85284 0.89212 0.0
H1628 H 0.43767 0.87234 0.37975 0.0
H1629 H 0.39031 0.92628 0.40551 0.0
H1630 H 0.36061 0.89602 0.4138 0.0
H1631 H 0.39217 0.83756 0.35277 0.0
H1632 H 0.40537 0.80952 0.35955 0.0
H1633 H 0.42371 0.83524 0.3561 0.0
H1634 H 0.44126 0.82869 0.39596 0.0
H1635 H 0.42294 0.80296 0.39955 0.0
H1636 H 0.42175 0.82658 0.4199 0.0
H1637 H 0.33598 0.86085 0.41962 0.0
H1638 H 0.31656 0.82215 0.42111 0.0
H1639 H 0.37837 0.7898 0.39069 0.0
C1640 C 0.42109 0.87772 0.38721 0.0
C1641 C 0.4164 0.90177 0.39196 0.0
C1642 C 0.39437 0.90807 0.40157 0.0
C1643 C 0.37734 0.89098 0.40645 0.0
C1644 C 0.38241 0.86755 0.40153 0.0
C1645 C 0.40361 0.86079 0.392 0.0
C1646 C 0.40397 0.8343 0.38788 0.0
C1647 C 0.40645 0.82884 0.36257 0.0
C1648 C 0.42365 0.82244 0.40165 0.0
C1649 C 0.3797 0.8274 0.39662 0.0
C1650 C 0.36774 0.84694 0.40452 0.0
C1651 C 0.34511 0.84537 0.41347 0.0
C1652 C 0.33424 0.82323 0.41425 0.0
C1653 C 0.34587 0.80285 0.40602 0.0
C1654 C 0.369 0.80502 0.39714 0.0
H1655 H 0.38616 0.18516 0.63133 0.0
H1656 H 0.33111 0.13178 0.63428 0.0
H1657 H 0.36116 0.101 0.63889 0.0
H1658 H 0.42862 0.14935 0.60006 0.0
H1659 H 0.45373 0.16073 0.61525 0.0
H1660 H 0.42794 0.17886 0.61142 0.0
H1661 H 0.42511 0.18483 0.65468 0.0
H1662 H 0.45081 0.16663 0.65866 0.0
H1663 H 0.42365 0.1594 0.6729 0.0
H1664 H 0.39638 0.07608 0.64485 0.0
H1665 H 0.43545 0.058 0.65018 0.0
H1666 H 0.46842 0.12681 0.64283 0.0
C1667 C 0.38045 0.16699 0.63274 0.0
C1668 C 0.3562 0.16098 0.63243 0.0
C1669 C 0.34951 0.13694 0.63444 0.0
C1670 C 0.36646 0.11925 0.63709 0.0
C1671 C 0.3901 0.12577 0.63761 0.0
C1672 C 0.3972 0.14898 0.63534 0.0
C1673 C 0.42386 0.15102 0.63676 0.0
C1674 C 0.43414 0.16055 0.61455 0.0
C1675 C 0.43129 0.16638 0.65695 0.0
C1676 C 0.43049 0.12537 0.64038 0.0
C1677 C 0.41068 0.11118 0.64083 0.0
C1678 C 0.41208 0.08695 0.64441 0.0
C1679 C 0.43437 0.07687 0.64749 0.0
C1680 C 0.45501 0.09096 0.6469 0.0
C1681 C 0.45297 0.11556 0.64329 0.0
H1682 H 0.13712 0.20531 0.89547 0.0
H1683 H 0.20045 0.16718 0.9147 0.0
H1684 H 0.17938 0.1295 0.90944 0.0
H1685 H 0.09587 0.16611 0.92331 0.0
H1686 H 0.07376 0.16855 0.90157 0.0
H1687 H 0.09378 0.19267 0.90668 0.0
H1688 H 0.10653 0.19185 0.86472 0.0
H1689 H 0.08663 0.16766 0.85949 0.0
H1690 H 0.11748 0.16477 0.85267 0.0
H1691 H 0.15219 0.09613 0.90137 0.0
H1692 H 0.11987 0.06865 0.89304 0.0
H1693 H 0.07309 0.12781 0.87984 0.0
C1694 C 0.14654 0.18903 0.89863 0.0
C1695 C 0.17051 0.18924 0.9055 0.0
C1696 C 0.18213 0.16753 0.90951 0.0
C1697 C 0.17033 0.14601 0.9065 0.0
C1698 C 0.14682 0.14644 0.8996 0.0
C1699 C 0.13495 0.16734 0.89587 0.0
C1700 C 0.10956 0.16271 0.88885 0.0
C1701 C 0.09222 0.17313 0.90614 0.0
C1702 C 0.10478 0.17232 0.86502 0.0
C1703 C 0.10907 0.13593 0.88918 0.0
C1704 C 0.13084 0.12701 0.8953 0.0
C1705 C 0.13504 0.10289 0.89663 0.0
C1706 C 0.11648 0.08741 0.89177 0.0
C1707 C 0.09379 0.09597 0.88575 0.0
C1708 C 0.09015 0.12065 0.88439 0.0
H1709 H 0.15659 0.86 0.13372 0.0
H1710 H 0.12125 0.79275 0.12363 0.0
H1711 H 0.08272 0.81239 0.12757 0.0
H1712 H 0.1174 0.88178 0.1758 0.0
H1713 H 0.11813 0.91189 0.16602 0.0
H1714 H 0.14312 0.89288 0.16137 0.0
H1715 H 0.14098 0.90114 0.11842 0.0
H1716 H 0.11607 0.9203 0.12294 0.0
H1717 H 0.11373 0.89593 0.10352 0.0
H1718 H 0.04813 0.83878 0.1336 0.0
H1719 H 0.01943 0.87054 0.14065 0.0
H1720 H 0.07689 0.92085 0.14726 0.0
C1721 C 0.14076 0.84943 0.1321 0.0
C1722 C 0.14201 0.8248 0.12831 0.0
C1723 C 0.12082 0.81162 0.12651 0.0
C1724 C 0.09881 0.82261 0.12873 0.0
C1725 C 0.09822 0.8468 0.13275 0.0
C1726 C 0.11859 0.8601 0.13435 0.0
C1727 C 0.11296 0.88576 0.13922 0.0
C1728 C 0.12353 0.89352 0.16196 0.0
C1729 C 0.12144 0.90172 0.11987 0.0
C1730 C 0.08625 0.88473 0.14026 0.0
C1731 C 0.07816 0.86208 0.13641 0.0
C1732 C 0.05422 0.85661 0.13658 0.0
C1733 C 0.03806 0.8748 0.14065 0.0
C1734 C 0.04587 0.89822 0.14456 0.0
C1735 C 0.07034 0.90315 0.14441 0.0
H1736 H 0.67421 0.83522 0.90177 0.0
H1737 H 0.62978 0.77858 0.87644 0.0
H1738 H 0.59789 0.80699 0.86934 0.0
H1739 H 0.62865 0.86747 0.92987 0.0
H1740 H 0.63999 0.89613 0.92237 0.0
H1741 H 0.65982 0.87149 0.92515 0.0
H1742 H 0.67509 0.87859 0.8845 0.0
H1743 H 0.65532 0.90329 0.88161 0.0
H1744 H 0.65436 0.8795 0.86144 0.0
H1745 H 0.57016 0.84071 0.86645 0.0
H1746 H 0.54864 0.87846 0.86645 0.0
H1747 H 0.61096 0.91396 0.8924 0.0
C1748 C 0.65781 0.82883 0.89466 0.0
C1749 C 0.65453 0.80462 0.88972 0.0
C1750 C 0.63279 0.797 0.88036 0.0
C1751 C 0.61451 0.813 0.87626 0.0
C1752 C 0.61823 0.83665 0.88142 0.0
C1753 C 0.63934 0.84464 0.89025 0.0
C1754 C 0.63857 0.87107 0.89425 0.0
C1755 C 0.64195 0.87687 0.91941 0.0
C1756 C 0.65692 0.88386 0.87957 0.0
C1757 C 0.61364 0.87653 0.88654 0.0
C1758 C 0.60226 0.85637 0.87925 0.0
C1759 C 0.57891 0.85668 0.87195 0.0
C1760 C 0.56682 0.87821 0.87207 0.0
C1761 C 0.57812 0.8992 0.87932 0.0
C1762 C 0.6019 0.89827 0.88655 0.0
H1763 H 0.92874 0.91678 0.6498 0.0
H1764 H 0.98528 0.8683 0.63254 0.0
H1765 H 0.95596 0.83762 0.62355 0.0
H1766 H 0.8906 0.8739 0.67584 0.0
H1767 H 0.86385 0.88678 0.66495 0.0
H1768 H 0.88928 0.9051 0.67003 0.0
H1769 H 0.888 0.91948 0.62854 0.0
H1770 H 0.86262 0.90112 0.62332 0.0
H1771 H 0.88858 0.89813 0.60599 0.0
H1772 H 0.92086 0.81198 0.61689 0.0
H1773 H 0.88202 0.79283 0.61324 0.0
H1774 H 0.84791 0.85791 0.63412 0.0
C1775 C 0.93496 0.89969 0.6442 0.0
C1776 C 0.95935 0.89497 0.64194 0.0
C1777 C 0.96672 0.87239 0.63443 0.0
C1778 C 0.9502 0.85482 0.62924 0.0
C1779 C 0.92634 0.86008 0.63155 0.0
C1780 C 0.91868 0.88193 0.63883 0.0
C1781 C 0.89196 0.88289 0.63986 0.0
C1782 C 0.88343 0.88743 0.66412 0.0
C1783 C 0.88222 0.90151 0.62345 0.0
C1784 C 0.88586 0.85812 0.63214 0.0
C1785 C 0.90598 0.8453 0.62743 0.0
C1786 C 0.90496 0.82186 0.62045 0.0
C1787 C 0.88278 0.81114 0.61843 0.0
C1788 C 0.86186 0.82386 0.62331 0.0
C1789 C 0.86352 0.84775 0.63007 0.0
H1790 H 0.93195 0.13173 0.37921 0.0
H1791 H 0.87938 0.07649 0.38729 0.0
H1792 H 0.84864 0.10655 0.39244 0.0
H1793 H 0.90798 0.17142 0.42048 0.0
H1794 H 0.91421 0.19776 0.40452 0.0
H1795 H 0.93244 0.17199 0.40105 0.0
H1796 H 0.92427 0.17234 0.35804 0.0
H1797 H 0.90607 0.19816 0.36137 0.0
H1798 H 0.89422 0.17212 0.34806 0.0
H1799 H 0.82364 0.14196 0.39781 0.0
H1800 H 0.80535 0.1811 0.40169 0.0
H1801 H 0.87332 0.21423 0.38949 0.0
C1802 C 0.91397 0.12596 0.38197 0.0
C1803 C 0.90818 0.10165 0.38283 0.0
C1804 C 0.88437 0.09492 0.3865 0.0
C1805 C 0.86671 0.11189 0.38948 0.0
C1806 C 0.873 0.1356 0.38868 0.0
C1807 C 0.89598 0.14273 0.38489 0.0
C1808 C 0.89778 0.16948 0.38483 0.0
C1809 C 0.91407 0.17817 0.40386 0.0
C1810 C 0.90607 0.17855 0.36169 0.0
C1811 C 0.87226 0.17615 0.38931 0.0
C1812 C 0.85835 0.15626 0.39152 0.0
C1813 C 0.8343 0.15769 0.39603 0.0
C1814 C 0.82409 0.18006 0.39826 0.0
C1815 C 0.83785 0.2008 0.3959 0.0
C1816 C 0.8623 0.19874 0.39134 0.0
H1817 H 0.53576 0.12752 0.14491 0.0
H1818 H 0.56973 0.06196 0.16459 0.0
H1819 H 0.60858 0.08056 0.15998 0.0
H1820 H 0.57816 0.14449 0.10279 0.0
H1821 H 0.5774 0.1755 0.10953 0.0
H1822 H 0.5518 0.15737 0.11453 0.0
H1823 H 0.55144 0.17027 0.15646 0.0
H1824 H 0.57698 0.1885 0.15157 0.0
H1825 H 0.57759 0.16634 0.17337 0.0
H1826 H 0.64346 0.10494 0.15221 0.0
H1827 H 0.67336 0.13486 0.14373 0.0
H1828 H 0.61811 0.18609 0.12998 0.0
C1829 C 0.55139 0.11715 0.14835 0.0
C1830 C 0.54963 0.09322 0.15511 0.0
C1831 C 0.57052 0.08028 0.15945 0.0
C1832 C 0.59273 0.09067 0.15683 0.0
C1833 C 0.59387 0.11412 0.15001 0.0
C1834 C 0.57386 0.12736 0.14599 0.0
C1835 C 0.58037 0.15234 0.13897 0.0
C1836 C 0.5714 0.15773 0.11503 0.0
C1837 C 0.57104 0.17043 0.15612 0.0
C1838 C 0.60714 0.15093 0.13959 0.0
C1839 C 0.61438 0.12861 0.1459 0.0
C1840 C 0.63807 0.12253 0.14735 0.0
C1841 C 0.65494 0.13974 0.1424 0.0
C1842 C 0.64819 0.16295 0.13616 0.0
C1843 C 0.62387 0.16857 0.13475 0.0
H1844 H 0.63357 0.21786 0.63013 0.0
H1845 H 0.70179 0.18329 0.6345 0.0
H1846 H 0.68204 0.1454 0.64195 0.0
H1847 H 0.60445 0.18368 0.67389 0.0
H1848 H 0.57666 0.18213 0.65918 0.0
H1849 H 0.59597 0.20699 0.65486 0.0
H1850 H 0.59578 0.19915 0.61179 0.0
H1851 H 0.5764 0.17434 0.61597 0.0
H1852 H 0.60402 0.17042 0.60138 0.0
H1853 H 0.65561 0.11146 0.64855 0.0
H1854 H 0.62377 0.08239 0.65205 0.0
H1855 H 0.57176 0.13791 0.64277 0.0
C1856 C 0.64433 0.20232 0.63273 0.0
C1857 C 0.66927 0.20357 0.63175 0.0
C1858 C 0.6827 0.1828 0.63509 0.0
C1859 C 0.67165 0.16119 0.63944 0.0
C1860 C 0.64711 0.16055 0.64031 0.0
C1861 C 0.63354 0.18046 0.63693 0.0
C1862 C 0.6074 0.17453 0.63804 0.0
C1863 C 0.59542 0.18761 0.65766 0.0
C1864 C 0.59519 0.17993 0.61545 0.0
C1865 C 0.60849 0.14816 0.64245 0.0
C1866 C 0.63163 0.14063 0.64385 0.0
C1867 C 0.63741 0.11712 0.6475 0.0
C1868 C 0.6191 0.10072 0.64945 0.0
C1869 C 0.59514 0.10777 0.64766 0.0
C1870 C 0.58983 0.13194 0.64435 0.0
H1871 H 0.62093 0.8237 0.39308 0.0
H1872 H 0.67769 0.87369 0.38087 0.0
H1873 H 0.6486 0.90558 0.37662 0.0
H1874 H 0.58023 0.84796 0.35332 0.0
H1875 H 0.55457 0.8431 0.37069 0.0
H1876 H 0.57983 0.82405 0.37339 0.0
H1877 H 0.58207 0.83337 0.41615 0.0
H1878 H 0.55676 0.85239 0.41359 0.0
H1879 H 0.58387 0.86365 0.42533 0.0
H1880 H 0.61366 0.93185 0.37241 0.0
H1881 H 0.57485 0.95122 0.36974 0.0
H1882 H 0.54048 0.88464 0.38524 0.0
C1883 C 0.62726 0.84137 0.38963 0.0
C1884 C 0.65165 0.84612 0.38732 0.0
C1885 C 0.65915 0.86953 0.38277 0.0
C1886 C 0.64275 0.88781 0.38029 0.0
C1887 C 0.6189 0.88249 0.3825 0.0
C1888 C 0.61112 0.85991 0.38718 0.0
C1889 C 0.58442 0.85902 0.38858 0.0
C1890 C 0.57417 0.84256 0.37041 0.0
C1891 C 0.57631 0.85168 0.41233 0.0
C1892 C 0.57846 0.8846 0.38378 0.0
C1893 C 0.59864 0.89779 0.3803 0.0
C1894 C 0.59772 0.92175 0.3752 0.0
C1895 C 0.57557 0.93258 0.37367 0.0
C1896 C 0.55461 0.91948 0.37729 0.0
C1897 C 0.55617 0.89516 0.38245 0.0
H1898 H 0.93184 0.87429 0.14378 0.0
H1899 H 0.88218 0.93268 0.14423 0.0
H1900 H 0.8492 0.90472 0.14109 0.0
H1901 H 0.90116 0.83936 0.10315 0.0
H1902 H 0.9075 0.81152 0.11653 0.0
H1903 H 0.92751 0.83597 0.11989 0.0
H1904 H 0.92399 0.83256 0.16335 0.0
H1905 H 0.90402 0.80804 0.16013 0.0
H1906 H 0.89524 0.83348 0.17634 0.0
H1907 H 0.8215 0.87099 0.13634 0.0
H1908 H 0.80074 0.83316 0.13099 0.0
H1909 H 0.86773 0.79611 0.13381 0.0
C1910 C 0.91402 0.88117 0.14345 0.0
C1911 C 0.90971 0.90577 0.14429 0.0
C1912 C 0.88608 0.91399 0.14361 0.0
C1913 C 0.86714 0.89823 0.14184 0.0
C1914 C 0.87198 0.8742 0.1408 0.0
C1915 C 0.89479 0.86563 0.14166 0.0
C1916 C 0.89498 0.83892 0.13969 0.0
C1917 C 0.90859 0.83098 0.11856 0.0
C1918 C 0.90516 0.82758 0.16116 0.0
C1919 C 0.86877 0.83394 0.13741 0.0
C1920 C 0.85586 0.85458 0.13813 0.0
C1921 C 0.83139 0.85467 0.13587 0.0
C1922 C 0.81975 0.83307 0.13279 0.0
C1923 C 0.83254 0.81163 0.132 0.0
C1924 C 0.85741 0.81216 0.13444 0.0
H1925 H 0.92699 0.0828 0.86942 0.0
H1926 H 0.98435 0.12954 0.88871 0.0
H1927 H 0.95567 0.16088 0.89727 0.0
H1928 H 0.89101 0.12715 0.84274 0.0
H1929 H 0.86352 0.11495 0.85265 0.0
H1930 H 0.88853 0.09593 0.84813 0.0
H1931 H 0.88541 0.08109 0.88937 0.0
H1932 H 0.86045 0.10014 0.89404 0.0
H1933 H 0.8859 0.10213 0.91219 0.0
H1934 H 0.92121 0.18731 0.90347 0.0
H1935 H 0.88292 0.2076 0.9063 0.0
H1936 H 0.84741 0.144 0.88332 0.0
C1937 C 0.93352 0.09964 0.87539 0.0
C1938 C 0.95798 0.10367 0.87835 0.0
C1939 C 0.96575 0.12597 0.88627 0.0
C1940 C 0.94958 0.14391 0.89123 0.0
C1941 C 0.92566 0.13934 0.88824 0.0
C1942 C 0.91759 0.11781 0.88048 0.0
C1943 C 0.89088 0.11768 0.87863 0.0
C1944 C 0.88303 0.1137 0.85407 0.0
C1945 C 0.88002 0.09916 0.89451 0.0
C1946 C 0.88527 0.14254 0.88646 0.0
C1947 C 0.90563 0.15467 0.89195 0.0
C1948 C 0.90512 0.178 0.89927 0.0
C1949 C 0.88324 0.18937 0.90082 0.0
C1950 C 0.86208 0.17742 0.89509 0.0
C1951 C 0.8632 0.15359 0.88799 0.0
H1952 H 0.90057 0.60794 0.64754 0.0
H1953 H 0.97008 0.63559 0.63139 0.0
H1954 H 0.95244 0.67401 0.62207 0.0
H1955 H 0.86932 0.63675 0.60423 0.0
H1956 H 0.84353 0.64319 0.62092 0.0
H1957 H 0.86153 0.61798 0.62763 0.0
H1958 H 0.86697 0.63338 0.66848 0.0
H1959 H 0.84878 0.65854 0.66196 0.0
H1960 H 0.87811 0.66281 0.67301 0.0
H1961 H 0.92739 0.70787 0.61096 0.0
H1962 H 0.89653 0.73729 0.60293 0.0
H1963 H 0.84319 0.68911 0.62832 0.0
C1964 C 0.9121 0.62217 0.64234 0.0
C1965 C 0.93671 0.61872 0.64016 0.0
C1966 C 0.95121 0.6378 0.6333 0.0
C1967 C 0.94135 0.65969 0.62787 0.0
C1968 C 0.91703 0.66235 0.62971 0.0
C1969 C 0.9026 0.64431 0.63716 0.0
C1970 C 0.87696 0.65194 0.6375 0.0
C1971 C 0.86196 0.63655 0.62162 0.0
C1972 C 0.86713 0.65166 0.66168 0.0
C1973 C 0.87926 0.67691 0.62863 0.0
C1974 C 0.90254 0.68242 0.6241 0.0
C1975 C 0.90912 0.70393 0.61471 0.0
C1976 C 0.89145 0.72043 0.61005 0.0
C1977 C 0.86753 0.71545 0.61506 0.0
C1978 C 0.86138 0.69341 0.62451 0.0
H1979 H 0.65977 0.64261 0.8823 0.0
H1980 H 0.62222 0.70508 0.90491 0.0
H1981 H 0.58495 0.68255 0.90488 0.0
H1982 H 0.61516 0.6224 0.8445 0.0
H1983 H 0.61986 0.59156 0.85038 0.0
H1984 H 0.64385 0.61218 0.85329 0.0
H1985 H 0.6501 0.59875 0.89464 0.0
H1986 H 0.62613 0.57805 0.89187 0.0
H1987 H 0.6257 0.59973 0.91413 0.0
H1988 H 0.55184 0.65372 0.90189 0.0
H1989 H 0.52449 0.62081 0.89493 0.0
H1990 H 0.58315 0.57699 0.87327 0.0
C1991 C 0.64375 0.65151 0.88745 0.0
C1992 C 0.64395 0.67562 0.89372 0.0
C1993 C 0.62253 0.68666 0.90005 0.0
C1994 C 0.60128 0.67399 0.90014 0.0
C1995 C 0.6017 0.65034 0.89376 0.0
C1996 C 0.62233 0.63919 0.88746 0.0
C1997 C 0.61773 0.61384 0.88052 0.0
C1998 C 0.62455 0.60977 0.8557 0.0
C1999 C 0.63069 0.59657 0.89623 0.0
C2000 C 0.59124 0.61251 0.88382 0.0
C2001 C 0.58244 0.63374 0.89162 0.0
C2002 C 0.55852 0.63701 0.8958 0.0
C2003 C 0.54312 0.61815 0.89177 0.0
C2004 C 0.55162 0.59626 0.88349 0.0
C2005 C 0.57608 0.59345 0.87959 0.0
H2006 H 0.55748 0.37203 0.14721 0.0
H2007 H 0.61792 0.41912 0.14387 0.0
H2008 H 0.64442 0.38471 0.14139 0.0
H2009 H 0.5854 0.3264 0.18087 0.0
H2010 H 0.57092 0.30268 0.16605 0.0
H2011 H 0.55672 0.331 0.16845 0.0
H2012 H 0.5527 0.33306 0.12494 0.0
H2013 H 0.56694 0.3048 0.12238 0.0
H2014 H 0.57866 0.33001 0.10759 0.0
H2015 H 0.66418 0.34555 0.13809 0.0
H2016 H 0.67618 0.30401 0.13435 0.0
H2017 H 0.60288 0.2822 0.1397 0.0
C2018 C 0.57629 0.37515 0.14614 0.0
C2019 C 0.58561 0.39831 0.14578 0.0
C2020 C 0.61035 0.40157 0.14421 0.0
C2021 C 0.62555 0.38214 0.1428 0.0
C2022 C 0.61575 0.3596 0.14302 0.0
C2023 C 0.59172 0.35599 0.14469 0.0
C2024 C 0.5857 0.32994 0.144 0.0
C2025 C 0.574 0.32205 0.16616 0.0
C2026 C 0.57008 0.32412 0.12351 0.0
C2027 C 0.61013 0.31948 0.1415 0.0
C2028 C 0.62718 0.33692 0.14104 0.0
C2029 C 0.65101 0.33172 0.1385 0.0
C2030 C 0.65762 0.30804 0.13634 0.0
C2031 C 0.64046 0.28981 0.13671 0.0
C2032 C 0.61641 0.29569 0.13941 0.0
H2033 H 0.96635 0.37692 0.3834 0.0
H2034 H 0.93286 0.44375 0.3672 0.0
H2035 H 0.89389 0.42496 0.3699 0.0
H2036 H 0.92555 0.34029 0.35183 0.0
H2037 H 0.92552 0.31666 0.37218 0.0
H2038 H 0.95116 0.33521 0.36921 0.0
H2039 H 0.94942 0.3452 0.41184 0.0
H2040 H 0.92375 0.32671 0.41492 0.0
H2041 H 0.92265 0.35717 0.4236 0.0
H2042 H 0.85876 0.39988 0.37467 0.0
H2043 H 0.82874 0.36924 0.38005 0.0
H2044 H 0.88383 0.31751 0.39259 0.0
C2045 C 0.95081 0.38756 0.38039 0.0
C2046 C 0.95274 0.41186 0.37507 0.0
C2047 C 0.93195 0.42514 0.37124 0.0
C2048 C 0.90966 0.41464 0.37278 0.0
C2049 C 0.90835 0.39076 0.37808 0.0
C2050 C 0.92827 0.37728 0.38174 0.0
C2051 C 0.92162 0.35186 0.38695 0.0
C2052 C 0.93155 0.33501 0.36897 0.0
C2053 C 0.92985 0.34483 0.41074 0.0
C2054 C 0.89488 0.35329 0.38565 0.0
C2055 C 0.88775 0.37598 0.38059 0.0
C2056 C 0.86408 0.38201 0.3786 0.0
C2057 C 0.84713 0.36439 0.38174 0.0
C2058 C 0.85381 0.34083 0.38677 0.0
C2059 C 0.8781 0.33528 0.38875 0.0
H2060 H 0.89212 0.41494 0.88995 0.0
H2061 H 0.95424 0.37702 0.86683 0.0
H2062 H 0.93267 0.33959 0.86988 0.0
H2063 H 0.87403 0.37235 0.9307 0.0
H2064 H 0.84287 0.37565 0.9255 0.0
H2065 H 0.86258 0.40005 0.92053 0.0
H2066 H 0.84774 0.40312 0.87929 0.0
H2067 H 0.82786 0.37882 0.88417 0.0
H2068 H 0.84881 0.37747 0.86132 0.0
H2069 H 0.90582 0.30645 0.8765 0.0
H2070 H 0.87417 0.27854 0.88554 0.0
H2071 H 0.82851 0.33684 0.90466 0.0
C2072 C 0.90107 0.39879 0.88529 0.0
C2073 C 0.9249 0.39896 0.87814 0.0
C2074 C 0.93604 0.3774 0.8724 0.0
C2075 C 0.92394 0.356 0.87405 0.0
C2076 C 0.90068 0.35639 0.88144 0.0
C2077 C 0.88923 0.37711 0.8869 0.0
C2078 C 0.86424 0.37223 0.89489 0.0
C2079 C 0.86073 0.38056 0.91936 0.0
C2080 C 0.84609 0.38358 0.87896 0.0
C2081 C 0.86364 0.34551 0.89324 0.0
C2082 C 0.8849 0.33689 0.88537 0.0
C2083 C 0.88902 0.31292 0.88258 0.0
C2084 C 0.87087 0.2972 0.88782 0.0
C2085 C 0.84877 0.30545 0.89583 0.0
C2086 C 0.84517 0.32998 0.8986 0.0
H2087 H 0.8438 0.64435 0.13373 0.0
H2088 H 0.88327 0.70804 0.11814 0.0
H2089 H 0.92045 0.68565 0.1209 0.0
H2090 H 0.88406 0.62207 0.17473 0.0
H2091 H 0.88029 0.5916 0.16677 0.0
H2092 H 0.8566 0.61229 0.16253 0.0
H2093 H 0.85507 0.6013 0.12012 0.0
H2094 H 0.87873 0.58052 0.12422 0.0
H2095 H 0.8815 0.60346 0.10332 0.0
H2096 H 0.95318 0.65688 0.12593 0.0
H2097 H 0.97983 0.62363 0.13357 0.0
H2098 H 0.91942 0.57839 0.1467 0.0
C2099 C 0.86024 0.65356 0.13068 0.0
C2100 C 0.86059 0.67797 0.12562 0.0
C2101 C 0.88252 0.68938 0.12203 0.0
C2102 C 0.90374 0.67681 0.12352 0.0
C2103 C 0.90275 0.65286 0.12869 0.0
C2104 C 0.88162 0.64132 0.13225 0.0
C2105 C 0.88558 0.61561 0.13825 0.0
C2106 C 0.87607 0.61008 0.16198 0.0
C2107 C 0.87457 0.59926 0.12041 0.0
C2108 C 0.91229 0.61455 0.13762 0.0
C2109 C 0.92177 0.63623 0.13194 0.0
C2110 C 0.94598 0.63981 0.13036 0.0
C2111 C 0.96097 0.62075 0.13476 0.0
C2112 C 0.95175 0.59834 0.14079 0.0
C2113 C 0.92704 0.59527 0.14217 0.0
H2114 H 0.66606 0.68028 0.39989 0.0
H2115 H 0.61632 0.73686 0.38644 0.0
H2116 H 0.58496 0.70759 0.37985 0.0
H2117 H 0.644 0.64032 0.35771 0.0
H2118 H 0.6483 0.61428 0.37467 0.0
H2119 H 0.66704 0.63963 0.37868 0.0
H2120 H 0.65591 0.64077 0.42108 0.0
H2121 H 0.63724 0.61535 0.41723 0.0
H2122 H 0.62525 0.64206 0.4291 0.0
H2123 H 0.559 0.67261 0.37469 0.0
H2124 H 0.5397 0.63378 0.37184 0.0
H2125 H 0.60614 0.59958 0.38822 0.0
C2126 C 0.64855 0.68651 0.39567 0.0
C2127 C 0.64366 0.71088 0.39373 0.0
C2128 C 0.62052 0.7183 0.38804 0.0
C2129 C 0.60257 0.70181 0.38423 0.0
C2130 C 0.608 0.67796 0.38612 0.0
C2131 C 0.63038 0.67027 0.39173 0.0
C2132 C 0.63143 0.64356 0.39258 0.0
C2133 C 0.64872 0.63389 0.37485 0.0
C2134 C 0.63783 0.63493 0.41642 0.0
C2135 C 0.60613 0.63752 0.38664 0.0
C2136 C 0.59297 0.65765 0.38296 0.0
C2137 C 0.56911 0.65669 0.37749 0.0
C2138 C 0.55831 0.63452 0.37591 0.0
C2139 C 0.57138 0.61359 0.37976 0.0
C2140 C 0.59567 0.61521 0.38504 0.0
H2141 H 0.62348 0.31852 0.62793 0.0
H2142 H 0.67824 0.37215 0.63202 0.0
H2143 H 0.64807 0.40264 0.63715 0.0
H2144 H 0.58104 0.35489 0.59711 0.0
H2145 H 0.55583 0.3432 0.61191 0.0
H2146 H 0.58168 0.32517 0.60792 0.0
H2147 H 0.58423 0.31836 0.65108 0.0
H2148 H 0.55846 0.33644 0.65521 0.0
H2149 H 0.5855 0.34343 0.66977 0.0
H2150 H 0.61292 0.42726 0.64364 0.0
H2151 H 0.57386 0.4452 0.6493 0.0
H2152 H 0.54084 0.37667 0.64012 0.0
C2153 C 0.62909 0.33669 0.62972 0.0
C2154 C 0.65332 0.34282 0.62956 0.0
C2155 C 0.65987 0.36686 0.63204 0.0
C2156 C 0.64285 0.3844 0.635 0.0
C2157 C 0.61925 0.37778 0.63532 0.0
C2158 C 0.61223 0.3546 0.63259 0.0
C2159 C 0.58554 0.35252 0.63379 0.0
C2160 C 0.57543 0.34341 0.61135 0.0
C2161 C 0.578 0.33675 0.65365 0.0
C2162 C 0.57882 0.3781 0.63785 0.0
C2163 C 0.59862 0.39228 0.63872 0.0
C2164 C 0.59722 0.4164 0.64286 0.0
C2165 C 0.57493 0.42641 0.64614 0.0
C2166 C 0.55428 0.41237 0.64513 0.0
C2167 C 0.5563 0.38788 0.64087 0.0
H2168 H 0.0731 0.37182 0.3808 0.0
H2169 H 0.12004 0.43098 0.39379 0.0
H2170 H 0.15299 0.40355 0.3996 0.0
H2171 H 0.09813 0.33263 0.42191 0.0
H2172 H 0.09513 0.3066 0.40465 0.0
H2173 H 0.07493 0.33084 0.40114 0.0
H2174 H 0.08553 0.33311 0.35866 0.0
H2175 H 0.10575 0.30886 0.36204 0.0
H2176 H 0.11596 0.3364 0.35038 0.0
H2177 H 0.18079 0.37014 0.40519 0.0
H2178 H 0.20198 0.33233 0.40906 0.0
H2179 H 0.1378 0.29457 0.39163 0.0
C2180 C 0.0903 0.37899 0.38481 0.0
C2181 C 0.09387 0.40361 0.3868 0.0
C2182 C 0.11675 0.41224 0.39206 0.0
C2183 C 0.13566 0.3968 0.39545 0.0
C2184 C 0.13156 0.37271 0.39342 0.0
C2185 C 0.10954 0.36379 0.38812 0.0
C2186 C 0.1101 0.33706 0.38696 0.0
C2187 C 0.0936 0.32615 0.40473 0.0
C2188 C 0.10398 0.32835 0.36309 0.0
C2189 C 0.13581 0.33248 0.39259 0.0
C2190 C 0.14783 0.35331 0.3963 0.0
C2191 C 0.17162 0.35367 0.40222 0.0
C2192 C 0.1835 0.33211 0.40442 0.0
C2193 C 0.17161 0.3105 0.40059 0.0
C2194 C 0.14745 0.31079 0.39452 0.0
H2195 H 0.42341 0.42009 0.15862 0.0
H2196 H 0.48122 0.37481 0.13763 0.0
H2197 H 0.45313 0.34267 0.13008 0.0
H2198 H 0.38928 0.37477 0.18635 0.0
H2199 H 0.36127 0.38632 0.17713 0.0
H2200 H 0.38595 0.40592 0.1811 0.0
H2201 H 0.38144 0.42078 0.13996 0.0
H2202 H 0.35678 0.40118 0.13586 0.0
H2203 H 0.38177 0.3998 0.1171 0.0
H2204 H 0.41905 0.31535 0.12469 0.0
H2205 H 0.38088 0.29456 0.12202 0.0
H2206 H 0.34509 0.35748 0.14618 0.0
C2207 C 0.43016 0.4034 0.15252 0.0
C2208 C 0.45454 0.40001 0.14876 0.0
C2209 C 0.46263 0.37789 0.14066 0.0
C2210 C 0.44682 0.35948 0.1363 0.0
C2211 C 0.42293 0.36341 0.14008 0.0
C2212 C 0.41458 0.38477 0.14801 0.0
C2213 C 0.38799 0.38431 0.1505 0.0
C2214 C 0.3807 0.38805 0.17524 0.0
C2215 C 0.37631 0.4026 0.13492 0.0
C2216 C 0.38278 0.35936 0.14276 0.0
C2217 C 0.40319 0.34762 0.13683 0.0
C2218 C 0.4029 0.32434 0.12927 0.0
C2219 C 0.38113 0.31269 0.1278 0.0
C2220 C 0.35995 0.32435 0.13384 0.0
C2221 C 0.36091 0.34804 0.14135 0.0
H2222 H 0.32808 0.66877 0.89811 0.0
H2223 H 0.37158 0.7253 0.87116 0.0
H2224 H 0.40272 0.69666 0.86208 0.0
H2225 H 0.37444 0.63676 0.92398 0.0
H2226 H 0.36277 0.60802 0.9172 0.0
H2227 H 0.34309 0.6327 0.92053 0.0
H2228 H 0.32609 0.62519 0.88057 0.0
H2229 H 0.34572 0.60045 0.87713 0.0
H2230 H 0.3458 0.62402 0.85672 0.0
H2231 H 0.43023 0.6628 0.8582 0.0
H2232 H 0.45206 0.62519 0.8587 0.0
H2233 H 0.39074 0.59008 0.8871 0.0
C2234 C 0.34405 0.67508 0.8901 0.0
C2235 C 0.34735 0.69932 0.8854 0.0
C2236 C 0.36858 0.70685 0.87498 0.0
C2237 C 0.38641 0.69071 0.8697 0.0
C2238 C 0.38274 0.66704 0.87477 0.0
C2239 C 0.36207 0.65915 0.8846 0.0
C2240 C 0.363 0.63278 0.88881 0.0
C2241 C 0.36069 0.62725 0.91414 0.0
C2242 C 0.34403 0.61985 0.87498 0.0
C2243 C 0.38755 0.62724 0.88017 0.0
C2244 C 0.39858 0.64728 0.87212 0.0
C2245 C 0.42172 0.64691 0.86422 0.0
C2246 C 0.43399 0.62548 0.86464 0.0
C2247 C 0.42307 0.60467 0.8728 0.0
C2248 C 0.39945 0.60561 0.88046 0.0
H2249 H 0.12618 0.68171 0.625 0.0
H2250 H 0.18532 0.63447 0.6367 0.0
H2251 H 0.15794 0.60128 0.64127 0.0
H2252 H 0.08738 0.65575 0.66523 0.0
H2253 H 0.06118 0.65906 0.64828 0.0
H2254 H 0.0854 0.67934 0.64491 0.0
H2255 H 0.08728 0.66956 0.60222 0.0
H2256 H 0.063 0.64929 0.60546 0.0
H2257 H 0.0904 0.63929 0.59336 0.0
H2258 H 0.12456 0.57337 0.64653 0.0
H2259 H 0.08673 0.55222 0.65079 0.0
H2260 H 0.04896 0.6168 0.63501 0.0
C2261 C 0.13337 0.66436 0.62832 0.0
C2262 C 0.15797 0.66084 0.63047 0.0
C2263 C 0.1666 0.63778 0.63493 0.0
C2264 C 0.15118 0.61871 0.63758 0.0
C2265 C 0.12711 0.62281 0.6356 0.0
C2266 C 0.11818 0.64497 0.63094 0.0
C2267 C 0.09144 0.64444 0.63003 0.0
C2268 C 0.08073 0.6606 0.6482 0.0
C2269 C 0.08251 0.65103 0.60636 0.0
C2270 C 0.08687 0.61863 0.63522 0.0
C2271 C 0.10771 0.60649 0.63836 0.0
C2272 C 0.10808 0.58261 0.64394 0.0
C2273 C 0.08651 0.57076 0.64638 0.0
C2274 C 0.06489 0.58279 0.64317 0.0
C2275 C 0.06518 0.60704 0.63742 0.0
H2276 H 0.11102 0.59002 0.13341 0.0
H2277 H 0.05364 0.62433 0.16917 0.0
H2278 H 0.07656 0.66135 0.17023 0.0
H2279 H 0.15966 0.62065 0.16157 0.0
H2280 H 0.17692 0.62302 0.13612 0.0
H2281 H 0.1569 0.59861 0.13979 0.0
H2282 H 0.13616 0.60931 0.1022 0.0
H2283 H 0.15607 0.63374 0.09841 0.0
H2284 H 0.12466 0.63868 0.0983 0.0
H2285 H 0.10476 0.69464 0.16651 0.0
H2286 H 0.1356 0.72324 0.15637 0.0
H2287 H 0.17435 0.66805 0.1215 0.0
C2288 C 0.10344 0.60523 0.14176 0.0
C2289 C 0.08064 0.60429 0.15138 0.0
C2290 C 0.0711 0.62468 0.16173 0.0
C2291 C 0.084 0.64574 0.1625 0.0
C2292 C 0.10633 0.64614 0.1527 0.0
C2293 C 0.11596 0.62651 0.14241 0.0
C2294 C 0.13967 0.63217 0.13186 0.0
C2295 C 0.15946 0.61776 0.14301 0.0
C2296 C 0.13909 0.62825 0.10617 0.0
C2297 C 0.14172 0.65813 0.13764 0.0
C2298 C 0.12241 0.66569 0.14992 0.0
C2299 C 0.12 0.68896 0.15696 0.0
C2300 C 0.13766 0.70507 0.15108 0.0
C2301 C 0.15741 0.69792 0.13807 0.0
C2302 C 0.15951 0.67405 0.13147 0.0
H2303 H 0.08437 0.41954 0.86491 0.0
H2304 H 0.02485 0.37784 0.88829 0.0
H2305 H 0.05119 0.34398 0.89457 0.0
H2306 H 0.11465 0.37247 0.8359 0.0
H2307 H 0.14364 0.38227 0.84421 0.0
H2308 H 0.12007 0.40334 0.84114 0.0
H2309 H 0.12691 0.41771 0.88216 0.0
H2310 H 0.15053 0.39673 0.88531 0.0
H2311 H 0.12624 0.39664 0.90494 0.0
H2312 H 0.08377 0.31443 0.8982 0.0
H2313 H 0.12092 0.29181 0.90039 0.0
H2314 H 0.15934 0.35278 0.87533 0.0
C2315 C 0.07687 0.40328 0.8713 0.0
C2316 C 0.05251 0.40138 0.87604 0.0
C2317 C 0.04345 0.3798 0.88453 0.0
C2318 C 0.05825 0.36039 0.88812 0.0
C2319 C 0.08213 0.36282 0.88324 0.0
C2320 C 0.09144 0.38372 0.87513 0.0
C2321 C 0.11785 0.38172 0.87172 0.0
C2322 C 0.12443 0.38515 0.84676 0.0
C2323 C 0.13116 0.39924 0.88695 0.0
C2324 C 0.12185 0.35647 0.87919 0.0
C2325 C 0.101 0.34584 0.88566 0.0
C2326 C 0.10024 0.32256 0.8932 0.0
C2327 C 0.12143 0.30983 0.89434 0.0
C2328 C 0.14308 0.32048 0.88808 0.0
C2329 C 0.14313 0.34409 0.8803 0.0
H2330 H 0.43715 0.36719 0.64329 0.0
H2331 H 0.38627 0.42335 0.63199 0.0
H2332 H 0.35511 0.39397 0.62616 0.0
H2333 H 0.41346 0.32668 0.60191 0.0
H2334 H 0.41838 0.30074 0.61886 0.0
H2335 H 0.43725 0.32611 0.6221 0.0
H2336 H 0.42768 0.32743 0.66483 0.0
H2337 H 0.40881 0.30204 0.66173 0.0
H2338 H 0.39734 0.32885 0.67386 0.0
H2339 H 0.32933 0.35932 0.6212 0.0
H2340 H 0.30987 0.32062 0.61843 0.0
H2341 H 0.37645 0.28603 0.63345 0.0
C2342 C 0.41947 0.37327 0.63957 0.0
C2343 C 0.41427 0.39765 0.63812 0.0
C2344 C 0.39083 0.40484 0.63329 0.0
C2345 C 0.37292 0.38828 0.62988 0.0
C2346 C 0.37858 0.36449 0.63142 0.0
C2347 C 0.40119 0.35688 0.63622 0.0
C2348 C 0.40218 0.33013 0.63716 0.0
C2349 C 0.41881 0.32035 0.61892 0.0
C2350 C 0.40943 0.32162 0.6608 0.0
C2351 C 0.37662 0.32405 0.63209 0.0
C2352 C 0.36342 0.34421 0.62877 0.0
C2353 C 0.33944 0.34335 0.62379 0.0
C2354 C 0.32855 0.32125 0.62223 0.0
C2355 C 0.34159 0.30026 0.62572 0.0
C2356 C 0.36599 0.30175 0.63069 0.0
H2357 H 0.38098 0.68261 0.39455 0.0
H2358 H 0.32125 0.63726 0.37914 0.0
H2359 H 0.34819 0.60388 0.37317 0.0
H2360 H 0.42099 0.65765 0.35391 0.0
H2361 H 0.44647 0.65978 0.372 0.0
H2362 H 0.42253 0.6804 0.37513 0.0
H2363 H 0.41864 0.66905 0.41732 0.0
H2364 H 0.44258 0.6484 0.41432 0.0
H2365 H 0.41445 0.63854 0.42495 0.0
H2366 H 0.38132 0.57541 0.36814 0.0
H2367 H 0.4188 0.55345 0.36538 0.0
H2368 H 0.45719 0.61662 0.38483 0.0
C2369 C 0.37358 0.66567 0.38992 0.0
C2370 C 0.34894 0.66266 0.38733 0.0
C2371 C 0.34001 0.64011 0.38133 0.0
C2372 C 0.35517 0.62098 0.37784 0.0
C2373 C 0.37929 0.62452 0.38053 0.0
C2374 C 0.38849 0.64624 0.38652 0.0
C2375 C 0.41514 0.64511 0.38847 0.0
C2376 C 0.42697 0.66172 0.37135 0.0
C2377 C 0.42317 0.6506 0.41271 0.0
C2378 C 0.4194 0.61943 0.38252 0.0
C2379 C 0.39847 0.60791 0.37794 0.0
C2380 C 0.39785 0.5842 0.37175 0.0
C2381 C 0.41924 0.57187 0.37021 0.0
C2382 C 0.44094 0.58325 0.37493 0.0
C2383 C 0.4409 0.60736 0.38121 0.0
H2384 H 0.27217 0.25577 0.05897 0.0
H2385 H 0.25851 0.3293 0.07531 0.0
H2386 H 0.24197 0.33546 0.03758 0.0
H2387 H 0.28851 0.26473 1.00113 0.0
H2388 H 0.27382 0.23878 0.99052 0.0
H2389 H 0.28449 0.23942 0.01916 0.0
H2390 H 0.24267 0.22922 0.03377 0.0
H2391 H 0.23188 0.22849 1.00516 0.0
H2392 H 0.21805 0.24747 0.02567 0.0
H2393 H 0.22971 0.3352 0.99798 0.0
H2394 H 0.21868 0.32754 0.95853 0.0
H2395 H 0.23677 0.25362 0.96674 0.0
C2396 C 0.26558 0.27311 0.05461 0.0
C2397 C 0.26676 0.29205 0.07024 0.0
C2398 C 0.25782 0.31444 0.06383 0.0
C2399 C 0.2484 0.31819 0.04235 0.0
C2400 C 0.24764 0.29935 0.02735 0.0
C2401 C 0.25565 0.27715 0.03314 0.0
C2402 C 0.25235 0.26007 0.01352 0.0
C2403 C 0.27622 0.25017 1.00562 0.0
C2404 C 0.23521 0.24013 0.01992 0.0
C2405 C 0.24162 0.27633 0.99584 0.0
C2406 C 0.23933 0.29893 1.00431 0.0
C2407 C 0.23112 0.31753 0.99119 0.0
C2408 C 0.225 0.31301 0.96877 0.0
C2409 C 0.22672 0.28999 0.95962 0.0
C2410 C 0.23498 0.27131 0.97341 0.0
H2411 H 0.93905 0.9881 0.21478 0.0
H2412 H 0.01403 0.97803 0.20427 0.0
H2413 H 0.02201 0.99473 0.24227 0.0
H2414 H 0.94151 0.04194 0.24641 0.0
H2415 H 0.91819 0.03361 0.2655 0.0
H2416 H 0.91868 0.02196 0.23722 0.0
H2417 H 0.91765 0.97936 0.2531 0.0
H2418 H 0.91705 0.99088 0.28141 0.0
H2419 H 0.93969 0.97027 0.27323 0.0
H2420 H 0.02143 0.01476 0.2812 0.0
H2421 H 0.01221 0.03091 0.31913 0.0
H2422 H 0.9375 0.02364 0.30515 0.0
C2423 C 0.95716 0.98951 0.22045 0.0
C2424 C 0.97598 0.98206 0.20652 0.0
C2425 C 0.9994 0.98371 0.21469 0.0
C2426 C 0.00407 0.99326 0.23619 0.0
C2427 C 0.98508 1.00056 0.2495 0.0
C2428 C 0.96206 0.99832 0.24206 0.0
C2429 C 0.94467 0.00608 0.26001 0.0
C2430 C 0.9299 0.02715 0.25179 0.0
C2431 C 0.92884 0.98541 0.26737 0.0
C2432 C 0.96144 0.0133 0.27869 0.0
C2433 C 0.9847 0.0104 0.27222 0.0
C2434 C 0.00327 0.01683 0.28647 0.0
C2435 C 0.9979 0.02609 0.30793 0.0
C2436 C 0.97418 0.02834 0.31512 0.0
C2437 C 0.95581 0.02187 0.3002 0.0
H2438 H 0.20889 0.71709 0.54835 0.0
H2439 H 0.27396 0.72877 0.58514 0.0
H2440 H 0.29541 0.73386 0.54916 0.0
H2441 H 0.23485 0.68151 0.50597 0.0
H2442 H 0.21665 0.69216 0.4832 0.0
H2443 H 0.20561 0.69249 0.51169 0.0
H2444 H 0.19739 0.73732 0.50848 0.0
H2445 H 0.20835 0.7371 0.47992 0.0
H2446 H 0.22095 0.75697 0.5004 0.0
H2447 H 0.30998 0.73683 0.50962 0.0
H2448 H 0.31786 0.7336 0.46884 0.0
H2449 H 0.24427 0.71623 0.45703 0.0
C2450 C 0.22754 0.72124 0.54871 0.0
C2451 C 0.23979 0.72303 0.56942 0.0
C2452 C 0.26432 0.72763 0.56938 0.0
C2453 C 0.2766 0.7306 0.54907 0.0
C2454 C 0.26416 0.72847 0.52889 0.0
C2455 C 0.24024 0.72363 0.52847 0.0
C2456 C 0.23168 0.72004 0.50441 0.0
C2457 C 0.22161 0.69506 0.50113 0.0
C2458 C 0.21352 0.73899 0.49792 0.0
C2459 C 0.25458 0.7233 0.49148 0.0
C2460 C 0.27294 0.72866 0.50594 0.0
C2461 C 0.29576 0.73263 0.49811 0.0
C2462 C 0.30005 0.73081 0.47489 0.0
C2463 C 0.28172 0.72459 0.45975 0.0
C2464 C 0.25865 0.7209 0.46821 0.0
H2465 H 0.56342 0.9858 0.80836 0.0
H2466 H 0.48799 0.98566 0.82067 0.0
H2467 H 0.48122 1.00189 0.78238 0.0
H2468 H 0.56653 0.03882 0.77566 0.0
H2469 H 0.58832 0.02744 0.75636 0.0
H2470 H 0.58706 0.01654 0.78488 0.0
H2471 H 0.58283 0.9738 0.76983 0.0
H2472 H 0.58406 0.98457 0.74126 0.0
H2473 H 0.5594 0.96686 0.75034 0.0
H2474 H 0.48318 0.02026 0.74314 0.0
H2475 H 0.49329 0.03526 0.70505 0.0
H2476 H 0.56707 0.01979 0.71751 0.0
C2477 C 0.54547 0.98926 0.80303 0.0
C2478 C 0.52621 0.98468 0.81755 0.0
C2479 C 0.50298 0.98906 0.80982 0.0
C2480 C 0.49899 0.99834 0.78813 0.0
C2481 C 0.5184 0.00271 0.77424 0.0
C2482 C 0.54115 0.99796 0.7813 0.0
C2483 C 0.55892 0.00328 0.76288 0.0
C2484 C 0.57622 0.02267 0.7704 0.0
C2485 C 0.57207 0.98079 0.75565 0.0
C2486 C 0.54266 0.01198 0.74438 0.0
C2487 C 0.51938 0.01184 0.75133 0.0
C2488 C 0.50132 0.02016 0.73745 0.0
C2489 C 0.50722 0.0287 0.71589 0.0
C2490 C 0.5309 0.02842 0.70826 0.0
C2491 C 0.54876 0.01986 0.72275 0.0
H2492 H 0.76726 0.69344 0.05415 0.0
H2493 H 0.78222 0.76794 0.06336 0.0
H2494 H 0.76778 0.77589 0.02465 0.0
H2495 H 0.78625 0.69025 0.99654 0.0
H2496 H 0.7637 0.66947 0.98842 0.0
H2497 H 0.77444 0.66991 0.01702 0.0
H2498 H 0.73179 0.67573 0.03177 0.0
H2499 H 0.7209 0.67524 1.00322 0.0
H2500 H 0.7144 0.69999 0.02128 0.0
H2501 H 0.75007 0.77564 0.98519 0.0
H2502 H 0.73349 0.76689 0.94742 0.0
H2503 H 0.73306 0.69223 0.96343 0.0
C2504 C 0.76744 0.71147 0.04811 0.0
C2505 C 0.77574 0.73012 0.06187 0.0
C2506 C 0.77592 0.75339 0.05315 0.0
C2507 C 0.76771 0.75807 0.0312 0.0
C2508 C 0.75966 0.73924 0.0181 0.0
C2509 C 0.75969 0.71638 0.02619 0.0
C2510 C 0.75076 0.69916 1.00859 0.0
C2511 C 0.76994 0.68114 1.00227 0.0
C2512 C 0.72812 0.68681 0.0167 0.0
C2513 C 0.74572 0.71586 0.98925 0.0
C2514 C 0.75064 0.73896 0.99515 0.0
C2515 C 0.74639 0.7576 0.98034 0.0
C2516 C 0.73694 0.75248 0.95896 0.0
C2517 C 0.73225 0.72889 0.95244 0.0
C2518 C 0.73683 0.7104 0.96782 0.0
H2519 H 0.06677 0.01729 0.80539 0.0
H2520 H 0.99185 0.02669 0.81689 0.0
H2521 H 0.98345 0.00994 0.77903 0.0
H2522 H 0.065 0.03457 0.74627 0.0
H2523 H 0.08766 0.01398 0.73809 0.0
H2524 H 0.08746 0.02607 0.76621 0.0
H2525 H 0.08711 0.98378 0.78283 0.0
H2526 H 0.08717 0.97157 0.75477 0.0
H2527 H 0.06428 0.96344 0.77441 0.0
H2528 H 0.98352 0.98919 0.74057 0.0
H2529 H 0.99209 0.97195 0.70296 0.0
H2530 H 0.06702 0.98027 0.71529 0.0
C2531 C 0.04859 0.01587 0.79989 0.0
C2532 C 0.02991 0.02311 0.81412 0.0
C2533 C 0.0064 0.02128 0.80623 0.0
C2534 C 1.00149 0.01168 0.78481 0.0
C2535 C 0.02032 0.00448 0.77126 0.0
C2536 C 0.04344 0.00699 0.77834 0.0
C2537 C 0.06056 0.99899 0.76022 0.0
C2538 C 0.07608 0.01963 0.75223 0.0
C2539 C 0.07566 0.97821 0.76856 0.0
C2540 C 0.04352 0.99126 0.74192 0.0
C2541 C 0.02037 0.99418 0.74871 0.0
C2542 C 1.00158 0.98716 0.735 0.0
C2543 C 0.0066 0.97727 0.71372 0.0
C2544 C 0.03018 0.97496 0.70614 0.0
C2545 C 0.0488 0.98208 0.72052 0.0
H2546 H 0.73568 0.31816 0.55463 0.0
H2547 H 0.72885 0.24322 0.56775 0.0
H2548 H 0.74496 0.23456 0.5297 0.0
H2549 H 0.7171 0.31478 0.49619 0.0
H2550 H 0.73684 0.33784 0.48713 0.0
H2551 H 0.7255 0.33787 0.51552 0.0
H2552 H 0.76819 0.339 0.5312 0.0
H2553 H 0.77967 0.33891 0.50286 0.0
H2554 H 0.78894 0.31662 0.52264 0.0
H2555 H 0.76442 0.23449 0.49083 0.0
H2556 H 0.78053 0.24284 0.45276 0.0
H2557 H 0.77065 0.31777 0.46405 0.0
C2558 C 0.73759 0.29992 0.54947 0.0
C2559 C 0.73125 0.28132 0.56415 0.0
C2560 C 0.73362 0.2577 0.55672 0.0
C2561 C 0.74283 0.25265 0.53521 0.0
C2562 C 0.74909 0.27144 0.52119 0.0
C2563 C 0.74611 0.29461 0.5279 0.0
C2564 C 0.75314 0.31162 0.50936 0.0
C2565 C 0.73188 0.32639 0.50159 0.0
C2566 C 0.77371 0.32747 0.51697 0.0
C2567 C 0.76085 0.29446 0.49122 0.0
C2568 C 0.75873 0.27136 0.49845 0.0
C2569 C 0.76585 0.2525 0.48492 0.0
C2570 C 0.77507 0.2574 0.46339 0.0
C2571 C 0.77663 0.28091 0.45544 0.0
C2572 C 0.76938 0.2996 0.46959 0.0
H2573 H 0.43586 0.98336 0.30931 0.0
H2574 H 0.51098 0.97578 0.32107 0.0
H2575 H 0.5191 0.99208 0.28306 0.0
H2576 H 0.43806 0.96532 0.25045 0.0
H2577 H 0.41509 0.9854 0.24192 0.0
H2578 H 0.41539 0.97375 0.2702 0.0
H2579 H 0.415 0.01627 0.28628 0.0
H2580 H 0.4148 0.02805 0.25806 0.0
H2581 H 0.4375 0.03687 0.27763 0.0
H2582 H 0.51883 0.01211 0.24462 0.0
H2583 H 0.51017 0.029 0.20691 0.0
H2584 H 0.43532 0.01939 0.21878 0.0
C2585 C 0.45401 0.98509 0.30383 0.0
C2586 C 0.47283 0.97846 0.31815 0.0
C2587 C 0.49633 0.9807 0.31032 0.0
C2588 C 0.50109 0.99004 0.28882 0.0
C2589 C 0.48214 0.99658 0.27515 0.0
C2590 C 0.45906 0.99375 0.28219 0.0
C2591 C 0.44186 1.00117 0.26392 0.0
C2592 C 0.42671 0.98015 0.25617 0.0
C2593 C 0.42638 0.02182 0.27196 0.0
C2594 C 0.45884 0.00891 0.24559 0.0
C2595 C 0.48201 0.0065 0.25252 0.0
C2596 C 0.50076 0.01373 0.23891 0.0
C2597 C 0.49571 0.02338 0.21759 0.0
C2598 C 0.47213 0.02521 0.20989 0.0
C2599 C 0.45353 0.01783 0.22412 0.0
H2600 H 0.77268 0.81369 0.551 0.0
H2601 H 0.76729 0.7389 0.56559 0.0
H2602 H 0.74975 0.7321 0.5279 0.0
H2603 H 0.71931 0.81967 0.5185 0.0
H2604 H 0.7321 0.83972 0.4983 0.0
H2605 H 0.74321 0.83882 0.52676 0.0
H2606 H 0.78531 0.83077 0.51156 0.0
H2607 H 0.77433 0.8316 0.48304 0.0
H2608 H 0.79021 0.80608 0.49295 0.0
H2609 H 0.73131 0.7338 0.48918 0.0
H2610 H 0.71675 0.74322 0.45086 0.0
H2611 H 0.73758 0.81625 0.46013 0.0
C2612 C 0.76763 0.79593 0.54628 0.0
C2613 C 0.77108 0.77683 0.56125 0.0
C2614 C 0.76473 0.75376 0.55436 0.0
C2615 C 0.75472 0.74975 0.53303 0.0
C2616 C 0.7516 0.76894 0.51863 0.0
C2617 C 0.75817 0.79153 0.52483 0.0
C2618 C 0.75401 0.80887 0.50577 0.0
C2619 C 0.73609 0.82789 0.51275 0.0
C2620 C 0.77736 0.81998 0.49786 0.0
C2621 C 0.74386 0.79256 0.48796 0.0
C2622 C 0.74234 0.76965 0.49583 0.0
C2623 C 0.73264 0.75163 0.48276 0.0
C2624 C 0.72437 0.75714 0.46106 0.0
C2625 C 0.72625 0.78038 0.45249 0.0
C2626 C 0.73623 0.79825 0.46614 0.0
H2627 H 0.44149 0.51537 0.80722 0.0
H2628 H 0.51649 0.51559 0.82167 0.0
H2629 H 0.52429 0.49766 0.78419 0.0
H2630 H 0.43882 0.46109 0.77622 0.0
H2631 H 0.41771 0.47207 0.75604 0.0
H2632 H 0.41825 0.48382 0.78428 0.0
H2633 H 0.42332 0.52607 0.76822 0.0
H2634 H 0.42278 0.51447 0.73994 0.0
H2635 H 0.44736 0.53221 0.74918 0.0
H2636 H 0.52329 0.47825 0.74519 0.0
H2637 H 0.51413 0.46341 0.70679 0.0
H2638 H 0.44014 0.47934 0.71745 0.0
C2639 C 0.45956 0.51151 0.80257 0.0
C2640 C 0.4784 0.5166 0.81741 0.0
C2641 C 0.50183 0.51175 0.81054 0.0
C2642 C 0.50638 0.50151 0.78935 0.0
C2643 C 0.48734 0.49664 0.77514 0.0
C2644 C 0.46443 0.50185 0.78138 0.0
C2645 C 0.44714 0.49616 0.7627 0.0
C2646 C 0.42944 0.47715 0.77027 0.0
C2647 C 0.43441 0.51856 0.75453 0.0
C2648 C 0.46382 0.48679 0.74493 0.0
C2649 C 0.48691 0.48684 0.75247 0.0
C2650 C 0.50529 0.47832 0.73909 0.0
C2651 C 0.49994 0.46984 0.71737 0.0
C2652 C 0.47647 0.47039 0.70914 0.0
C2653 C 0.45827 0.47892 0.72321 0.0
H2654 H 0.73307 0.18611 0.05542 0.0
H2655 H 0.71452 0.25971 0.06491 0.0
H2656 H 0.72875 0.26862 0.02634 0.0
H2657 H 0.78546 0.19493 0.02345 0.0
H2658 H 0.78039 0.17032 1.00478 0.0
H2659 H 0.7687 0.16981 0.03303 0.0
H2660 H 0.72669 0.16276 0.01712 0.0
H2661 H 0.73826 0.16323 0.9888 0.0
H2662 H 0.71475 0.18302 0.99663 0.0
H2663 H 0.74783 0.26986 0.98772 0.0
H2664 H 0.76657 0.26275 0.95063 0.0
H2665 H 0.76946 0.1878 0.96508 0.0
C2666 C 0.73193 0.20411 0.04936 0.0
C2667 C 0.7228 0.22227 0.06322 0.0
C2668 C 0.72139 0.24552 0.05458 0.0
C2669 C 0.7295 0.25075 0.03273 0.0
C2670 C 0.73855 0.23245 0.01957 0.0
C2671 C 0.73945 0.20953 0.02744 0.0
C2672 C 0.74954 0.193 1.00978 0.0
C2673 C 0.77238 0.18133 0.01827 0.0
C2674 C 0.73121 0.17441 1.00266 0.0
C2675 C 0.75449 0.21024 0.99081 0.0
C2676 C 0.74827 0.23296 0.9969 0.0
C2677 C 0.75243 0.2521 0.98267 0.0
C2678 C 0.76315 0.24791 0.96168 0.0
C2679 C 0.7692 0.22472 0.95491 0.0
C2680 C 0.76463 0.20566 0.96966 0.0
H2681 H 0.06551 0.48526 0.30845 0.0
H2682 H 0.99213 0.46727 0.31998 0.0
H2683 H 0.9821 0.48133 0.28157 0.0
H2684 H 0.05654 0.53728 0.27557 0.0
H2685 H 0.08052 0.53127 0.25644 0.0
H2686 H 0.08163 0.52039 0.28497 0.0
H2687 H 0.08755 0.47781 0.27 0.0
H2688 H 0.08647 0.48857 0.24141 0.0
H2689 H 0.06652 0.46562 0.25035 0.0
H2690 H 0.98002 0.49972 0.24239 0.0
H2691 H 0.98682 0.51657 0.20428 0.0
H2692 H 0.06202 0.51875 0.21766 0.0
C2693 C 0.04733 0.48433 0.30288 0.0
C2694 C 0.02953 0.47539 0.31717 0.0
C2695 C 0.006 0.47407 0.30922 0.0
C2696 C 1.00014 0.48208 0.2875 0.0
C2697 C 0.01812 0.4909 0.27382 0.0
C2698 C 0.0413 0.49166 0.28108 0.0
C2699 C 0.05749 0.50094 0.26283 0.0
C2700 C 0.06976 0.52383 0.27041 0.0
C2701 C 0.07557 0.48211 0.25573 0.0
C2702 C 0.0398 0.50559 0.24424 0.0
C2703 C 0.01712 0.5 0.25094 0.0
C2704 C 0.99775 0.50386 0.23687 0.0
C2705 C 1.00173 0.51349 0.21533 0.0
C2706 C 0.02493 0.51866 0.208 0.0
C2707 C 0.04412 0.5146 0.2227 0.0
H2708 H 0.26612 0.18587 0.56131 0.0
H2709 H 0.28481 0.25947 0.57061 0.0
H2710 H 0.26952 0.26855 0.53246 0.0
H2711 H 0.28382 0.18311 0.50297 0.0
H2712 H 0.26047 0.16319 0.49497 0.0
H2713 H 0.27185 0.16274 0.52335 0.0
H2714 H 0.22972 0.16955 0.53904 0.0
H2715 H 0.2182 0.16999 0.51071 0.0
H2716 H 0.21287 0.19455 0.52935 0.0
H2717 H 0.25064 0.26972 0.49375 0.0
H2718 H 0.23311 0.26235 0.45615 0.0
H2719 H 0.23001 0.18745 0.47093 0.0
C2720 C 0.26685 0.20392 0.55535 0.0
C2721 C 0.27644 0.22203 0.56897 0.0
C2722 C 0.27751 0.24535 0.56045 0.0
C2723 C 0.26881 0.25067 0.53884 0.0
C2724 C 0.2595 0.2324 0.52582 0.0
C2725 C 0.25878 0.20943 0.53364 0.0
C2726 C 0.2489 0.19286 0.51591 0.0
C2727 C 0.26736 0.17439 0.50889 0.0
C2728 C 0.22607 0.18105 0.52426 0.0
C2729 C 0.24398 0.21009 0.49695 0.0
C2730 C 0.24993 0.23286 0.5031 0.0
C2731 C 0.24614 0.25193 0.48868 0.0
C2732 C 0.23612 0.24759 0.4674 0.0
C2733 C 0.23041 0.22433 0.46057 0.0
C2734 C 0.2345 0.20538 0.47557 0.0
H2735 H 0.56459 0.52097 0.30854 0.0
H2736 H 0.48928 0.52132 0.32172 0.0
H2737 H 0.48183 0.5061 0.28331 0.0
H2738 H 0.55995 0.54135 0.25125 0.0
H2739 H 0.58405 0.52359 0.24101 0.0
H2740 H 0.58371 0.53331 0.26995 0.0
H2741 H 0.58742 0.49001 0.28352 0.0
H2742 H 0.58793 0.48017 0.25462 0.0
H2743 H 0.56633 0.4684 0.27391 0.0
H2744 H 0.48255 0.48998 0.24397 0.0
H2745 H 0.49122 0.47601 0.20537 0.0
H2746 H 0.5658 0.48901 0.21639 0.0
C2747 C 0.54657 0.51759 0.30338 0.0
C2748 C 0.5275 0.5221 0.31815 0.0
C2749 C 0.50413 0.51793 0.31068 0.0
C2750 C 0.49973 0.50927 0.28892 0.0
C2751 C 0.51886 0.50523 0.27469 0.0
C2752 C 0.54181 0.50942 0.28151 0.0
C2753 C 0.55909 0.5045 0.26253 0.0
C2754 C 0.57249 0.52703 0.25579 0.0
C2755 C 0.5762 0.48458 0.26904 0.0
C2756 C 0.54227 0.49674 0.24405 0.0
C2757 C 0.51918 0.49708 0.25153 0.0
C2758 C 0.50054 0.48982 0.23786 0.0
C2759 C 0.50563 0.4819 0.21598 0.0
C2760 C 0.52913 0.48165 0.20785 0.0
C2761 C 0.54763 0.48937 0.22205 0.0
H2762 H 0.26808 0.80777 0.96681 0.0
H2763 H 0.27835 0.73297 0.95476 0.0
H2764 H 0.26226 0.72426 0.99282 0.0
H2765 H 0.28573 0.80692 0.02485 0.0
H2766 H 0.26461 0.82904 0.03316 0.0
H2767 H 0.27621 0.82894 1.00488 0.0
H2768 H 0.23369 0.82707 0.9888 0.0
H2769 H 0.22196 0.82716 0.01704 0.0
H2770 H 0.21416 0.80378 0.9978 0.0
H2771 H 0.24345 0.7242 0.03231 0.0
H2772 H 0.22702 0.73289 0.07021 0.0
H2773 H 0.23182 0.80785 0.05614 0.0
C2774 C 0.26688 0.7895 0.97207 0.0
C2775 C 0.27429 0.77101 0.95773 0.0
C2776 C 0.27275 0.7474 0.96546 0.0
C2777 C 0.26357 0.74231 0.98701 0.0
C2778 C 0.25635 0.76105 1.00068 0.0
C2779 C 0.2582 0.78418 0.99352 0.0
C2780 C 0.25005 0.80128 1.01149 0.0
C2781 C 0.27037 0.81749 0.01904 0.0
C2782 C 0.2287 0.81566 1.00329 0.0
C2783 C 0.24317 0.78422 0.02995 0.0
C2784 C 0.24665 0.76106 0.02341 0.0
C2785 C 0.24085 0.74229 0.03762 0.0
C2786 C 0.23147 0.74737 0.05907 0.0
C2787 C 0.22832 0.77103 0.0662 0.0
C2788 C 0.23427 0.78957 0.05133 0.0
H2789 H 0.94161 0.52524 0.71617 0.0
H2790 H 0.01665 0.52647 0.70156 0.0
H2791 H 0.02495 0.5101 0.73935 0.0
H2792 H 0.9473 0.54347 0.77423 0.0
H2793 H 0.92346 0.52512 0.78411 0.0
H2794 H 0.92324 0.53612 0.75559 0.0
H2795 H 0.91942 0.49343 0.74035 0.0
H2796 H 0.91954 0.4823 0.76882 0.0
H2797 H 0.9408 0.47155 0.74867 0.0
H2798 H 0.02506 0.49247 0.77819 0.0
H2799 H 0.01715 0.47722 0.8165 0.0
H2800 H 0.9423 0.48995 0.80695 0.0
C2801 C 0.95977 0.52193 0.7209 0.0
C2802 C 0.97849 0.52698 0.70589 0.0
C2803 C 0.00204 0.52275 0.7128 0.0
C2804 C 0.00693 0.5134 0.7342 0.0
C2805 C 0.9881 0.5087 0.74862 0.0
C2806 C 0.96501 0.51303 0.74238 0.0
C2807 C 0.94811 0.50716 0.76141 0.0
C2808 C 0.93475 0.52929 0.76929 0.0
C2809 C 0.93096 0.48743 0.75439 0.0
C2810 C 0.9653 0.4987 0.77924 0.0
C2811 C 0.98826 0.49953 0.77143 0.0
C2812 C 0.00717 0.49191 0.78456 0.0
C2813 C 0.0025 0.48323 0.80627 0.0
C2814 C 0.97915 0.48255 0.81476 0.0
C2815 C 0.96037 0.49052 0.80103 0.0
H2816 H 0.21442 0.38388 0.12478 0.0
H2817 H 0.21826 0.37816 0.19758 0.0
H2818 H 0.18295 0.40355 0.20118 0.0
H2819 H 0.20159 0.4436 0.12411 0.0
H2820 H 0.18209 0.44266 0.10009 0.0
H2821 H 0.20493 0.42087 0.10305 0.0
H2822 H 0.17375 0.38751 0.10047 0.0
H2823 H 0.15076 0.40924 0.09742 0.0
H2824 H 0.149 0.38752 0.11957 0.0
H2825 H 0.14971 0.43214 0.197 0.0
H2826 H 0.1228 0.46423 0.18555 0.0
H2827 H 0.14182 0.45292 0.11551 0.0
C2828 C 0.2073 0.38743 0.14139 0.0
C2829 C 0.21856 0.3788 0.16092 0.0
C2830 C 0.20955 0.3845 0.18248 0.0
C2831 C 0.1895 0.39876 0.18466 0.0
C2832 C 0.17891 0.40733 0.16508 0.0
C2833 C 0.18758 0.40201 0.14385 0.0
C2834 C 0.17475 0.41572 0.1257 0.0
C2835 C 0.19186 0.43166 0.11247 0.0
C2836 C 0.16126 0.399 0.10986 0.0
C2837 C 0.15798 0.43006 0.14008 0.0
C2838 C 0.16028 0.42456 0.1627 0.0
C2839 C 0.14744 0.43631 0.17931 0.0
C2840 C 0.13209 0.4544 0.17265 0.0
C2841 C 0.12996 0.46066 0.14963 0.0
C2842 C 0.14294 0.4482 0.13319 0.0
H2843 H 0.86892 0.94712 0.41347 0.0
H2844 H 0.89513 0.94994 0.3448 0.0
H2845 H 0.87348 0.91347 0.33585 0.0
H2846 H 0.86537 0.87996 0.41802 0.0
H2847 H 0.83842 0.88197 0.43405 0.0
H2848 H 0.86062 0.90462 0.43669 0.0
H2849 H 0.82952 0.93633 0.42636 0.0
H2850 H 0.80736 0.91389 0.42358 0.0
H2851 H 0.81326 0.93354 0.40033 0.0
H2852 H 0.84257 0.88308 0.33194 0.0
H2853 H 0.80557 0.8601 0.3338 0.0
H2854 H 0.79944 0.87595 0.40504 0.0
C2855 C 0.87077 0.93951 0.39679 0.0
C2856 C 0.88415 0.95098 0.37999 0.0
C2857 C 0.88572 0.94099 0.35817 0.0
C2858 C 0.87335 0.9203 0.3529 0.0
C2859 C 0.85971 0.90977 0.36969 0.0
C2860 C 0.85858 0.91886 0.39132 0.0
C2861 C 0.8402 0.90621 0.40538 0.0
C2862 C 0.85185 0.89237 0.42468 0.0
C2863 C 0.82149 0.92352 0.41442 0.0
C2864 C 0.83001 0.88972 0.38783 0.0
C2865 C 0.84184 0.89171 0.36748 0.0
C2866 C 0.83367 0.88073 0.34793 0.0
C2867 C 0.81264 0.86784 0.3491 0.0
C2868 C 0.80017 0.86595 0.36967 0.0
C2869 C 0.80926 0.87646 0.38937 0.0
H2870 H 0.29968 0.62398 0.62203 0.0
H2871 H 0.30436 0.6381 0.69375 0.0
H2872 H 0.33872 0.61142 0.69658 0.0
H2873 H 0.30951 0.56454 0.6261 0.0
H2874 H 0.32649 0.56154 0.60053 0.0
H2875 H 0.30539 0.58504 0.60317 0.0
H2876 H 0.33801 0.6158 0.59453 0.0
H2877 H 0.35925 0.59232 0.59168 0.0
H2878 H 0.36459 0.61609 0.61124 0.0
H2879 H 0.36883 0.57964 0.69261 0.0
H2880 H 0.39172 0.54426 0.68241 0.0
H2881 H 0.36729 0.5502 0.61328 0.0
C2882 C 0.30858 0.62214 0.6381 0.0
C2883 C 0.29986 0.63343 0.65759 0.0
C2884 C 0.31111 0.62978 0.67861 0.0
C2885 C 0.33065 0.61476 0.68034 0.0
C2886 C 0.33858 0.60344 0.6609 0.0
C2887 C 0.32793 0.60696 0.64016 0.0
C2888 C 0.33799 0.59053 0.62246 0.0
C2889 C 0.3187 0.57446 0.6125 0.0
C2890 C 0.35072 0.60453 0.60388 0.0
C2891 C 0.35532 0.57666 0.63668 0.0
C2892 C 0.35574 0.58469 0.65869 0.0
C2893 C 0.36913 0.57357 0.6753 0.0
C2894 C 0.38225 0.55356 0.6693 0.0
C2895 C 0.38178 0.54486 0.64691 0.0
C2896 C 0.36828 0.55673 0.63043 0.0
H2897 H 0.64307 0.04881 0.91347 0.0
H2898 H 0.62154 0.04317 0.84346 0.0
H2899 H 0.64796 0.07622 0.8336 0.0
H2900 H 0.65072 0.1145 0.91413 0.0
H2901 H 0.67611 0.11259 0.93235 0.0
H2902 H 0.6529 0.09092 0.93443 0.0
H2903 H 0.68348 0.05756 0.92827 0.0
H2904 H 0.7067 0.07905 0.92606 0.0
H2905 H 0.702 0.05817 0.90354 0.0
H2906 H 0.68101 0.105 0.83041 0.0
H2907 H 0.71691 0.12947 0.83452 0.0
H2908 H 0.71611 0.11774 0.90676 0.0
C2909 C 0.6435 0.05499 0.89618 0.0
C2910 C 0.62996 0.04384 0.87929 0.0
C2911 C 0.63123 0.05199 0.85676 0.0
C2912 C 0.64629 0.07065 0.85099 0.0
C2913 C 0.65972 0.08106 0.86801 0.0
C2914 C 0.65824 0.07374 0.89022 0.0
C2915 C 0.67583 0.08666 0.90498 0.0
C2916 C 0.66312 0.10209 0.92251 0.0
C2917 C 0.69301 0.06932 0.91637 0.0
C2918 C 0.68815 0.10162 0.88744 0.0
C2919 C 0.67847 0.09824 0.86624 0.0
C2920 C 0.68835 0.10829 0.84698 0.0
C2921 C 0.70874 0.12201 0.84944 0.0
C2922 C 0.71881 0.1257 0.87098 0.0
C2923 C 0.70822 0.11569 0.89023 0.0
H2924 H 0.12948 0.55019 0.36292 0.0
H2925 H 0.11275 0.55614 0.43401 0.0
H2926 H 0.13588 0.593 0.43632 0.0
H2927 H 0.18748 0.56528 0.36838 0.0
H2928 H 0.19013 0.58163 0.34241 0.0
H2929 H 0.16823 0.55884 0.34494 0.0
H2930 H 0.13546 0.58867 0.33428 0.0
H2931 H 0.15735 0.6116 0.33158 0.0
H2932 H 0.13249 0.61564 0.35015 0.0
H2933 H 0.16542 0.62503 0.43256 0.0
H2934 H 0.20001 0.64935 0.42335 0.0
H2935 H 0.19841 0.62308 0.35459 0.0
C2936 C 0.12997 0.55986 0.37868 0.0
C2937 C 0.11904 0.55075 0.3982 0.0
C2938 C 0.12083 0.56314 0.41885 0.0
C2939 C 0.13383 0.5841 0.42028 0.0
C2940 C 0.14505 0.59236 0.40091 0.0
C2941 C 0.14323 0.58068 0.38046 0.0
C2942 C 0.15955 0.5915 0.36303 0.0
C2943 C 0.1774 0.57323 0.35419 0.0
C2944 C 0.14536 0.60251 0.34361 0.0
C2945 C 0.17152 0.61033 0.37716 0.0
C2946 C 0.16251 0.61088 0.3988 0.0
C2947 C 0.17216 0.62531 0.41548 0.0
C2948 C 0.19175 0.63931 0.41 0.0
C2949 C 0.20153 0.63876 0.38803 0.0
C2950 C 0.191 0.62428 0.37139 0.0
H2951 H 0.65313 0.97093 0.60739 0.0
H2952 H 0.61009 0.94703 0.66349 0.0
H2953 H 0.63282 0.91008 0.66493 0.0
H2954 H 0.66538 0.91261 0.5814 0.0
H2955 H 0.6954 0.92082 0.57514 0.0
H2956 H 0.67258 0.94295 0.57542 0.0
H2957 H 0.69654 0.96726 0.60459 0.0
H2958 H 0.71932 0.94524 0.60447 0.0
H2959 H 0.70548 0.95354 0.63068 0.0
H2960 H 0.66352 0.87759 0.66306 0.0
H2961 H 0.70056 0.85455 0.65974 0.0
H2962 H 0.72476 0.90173 0.60713 0.0
C2963 C 0.64803 0.95772 0.61965 0.0
C2964 C 0.62927 0.96173 0.63484 0.0
C2965 C 0.62361 0.94414 0.65096 0.0
C2966 C 0.63662 0.92307 0.65204 0.0
C2967 C 0.6553 0.91996 0.63702 0.0
C2968 C 0.661 0.93691 0.62118 0.0
C2969 C 0.68361 0.93101 0.60893 0.0
C2970 C 0.67895 0.92658 0.58373 0.0
C2971 C 0.70233 0.95041 0.6124 0.0
C2972 C 0.6903 0.90849 0.62091 0.0
C2973 C 0.6735 0.90198 0.63666 0.0
C2974 C 0.67658 0.88233 0.65054 0.0
C2975 C 0.69756 0.8693 0.6485 0.0
C2976 C 0.71519 0.87637 0.63303 0.0
C2977 C 0.71134 0.89595 0.61893 0.0
H2978 H 0.35781 0.45592 0.91064 0.0
H2979 H 0.38039 0.46054 0.84086 0.0
H2980 H 0.35438 0.42711 0.83112 0.0
H2981 H 0.35127 0.39042 0.91228 0.0
H2982 H 0.32556 0.39207 0.93011 0.0
H2983 H 0.34819 0.41435 0.93211 0.0
H2984 H 0.31693 0.44682 0.92488 0.0
H2985 H 0.29427 0.42471 0.92276 0.0
H2986 H 0.29879 0.44522 0.89993 0.0
H2987 H 0.32203 0.39744 0.828 0.0
H2988 H 0.28701 0.37175 0.8321 0.0
H2989 H 0.28632 0.38502 0.90412 0.0
C2990 C 0.35765 0.44949 0.89342 0.0
C2991 C 0.37144 0.46043 0.87657 0.0
C2992 C 0.37052 0.45192 0.85415 0.0
C2993 C 0.35568 0.43304 0.84844 0.0
C2994 C 0.34209 0.42278 0.86541 0.0
C2995 C 0.34314 0.4305 0.88752 0.0
C2996 C 0.32563 0.41744 0.90226 0.0
C2997 C 0.33844 0.40269 0.92025 0.0
C2998 C 0.30786 0.43457 0.91308 0.0
C2999 C 0.31393 0.4018 0.88483 0.0
C3000 C 0.32377 0.4051 0.8637 0.0
C3001 C 0.31454 0.39428 0.84452 0.0
C3002 C 0.29464 0.37984 0.84698 0.0
C3003 C 0.2844 0.37619 0.86846 0.0
C3004 C 0.29434 0.38704 0.88764 0.0
H3005 H 0.87623 0.05122 0.15853 0.0
H3006 H 0.89449 0.05697 0.08784 0.0
H3007 H 0.86973 0.09264 0.08449 0.0
H3008 H 0.81884 0.06093 0.15138 0.0
H3009 H 0.81338 0.07758 0.17677 0.0
H3010 H 0.83759 0.05722 0.17571 0.0
H3011 H 0.86676 0.09055 0.18658 0.0
H3012 H 0.84251 0.11108 0.18801 0.0
H3013 H 0.86751 0.11733 0.17019 0.0
H3014 H 0.83749 0.12162 0.08662 0.0
H3015 H 0.79972 0.14167 0.0939 0.0
H3016 H 0.80098 0.11675 0.16307 0.0
C3017 C 0.87585 0.06081 0.14273 0.0
C3018 C 0.88751 0.05196 0.12356 0.0
C3019 C 0.88588 0.06396 0.10274 0.0
C3020 C 0.87197 0.08422 0.10074 0.0
C3021 C 0.85974 0.09205 0.11971 0.0
C3022 C 0.86164 0.08081 0.14039 0.0
C3023 C 0.84364 0.09014 0.157 0.0
C3024 C 0.82741 0.07029 0.1657 0.0
C3025 C 0.85584 0.10305 0.1766 0.0
C3026 C 0.83042 0.10724 0.14204 0.0
C3027 C 0.84043 0.10861 0.12081 0.0
C3028 C 0.82992 0.12135 0.10339 0.0
C3029 C 0.8085 0.13277 0.1077 0.0
C3030 C 0.79779 0.13121 0.1292 0.0
C3031 C 0.80907 0.11854 0.1466 0.0
H3032 H 0.86867 0.55261 0.91485 0.0
H3033 H 0.88362 0.54252 0.84375 0.0
H3034 H 0.85663 0.57515 0.83431 0.0
H3035 H 0.80925 0.56143 0.90933 0.0
H3036 H 0.80645 0.58367 0.93092 0.0
H3037 H 0.82994 0.56244 0.93243 0.0
H3038 H 0.86069 0.59625 0.93413 0.0
H3039 H 0.83722 0.61766 0.93272 0.0
H3040 H 0.86088 0.61851 0.9124 0.0
H3041 H 0.82332 0.60359 0.83218 0.0
H3042 H 0.78718 0.62735 0.83773 0.0
H3043 H 0.79455 0.62056 0.91017 0.0
C3044 C 0.86674 0.55777 0.89735 0.0
C3045 C 0.87865 0.54546 0.88006 0.0
C3046 C 0.87533 0.55225 0.85731 0.0
C3047 C 0.8599 0.57068 0.85178 0.0
C3048 C 0.84813 0.58225 0.86922 0.0
C3049 C 0.85158 0.57627 0.89159 0.0
C3050 C 0.83525 0.59005 0.90696 0.0
C3051 C 0.81928 0.5734 0.9207 0.0
C3052 C 0.84936 0.6066 0.92247 0.0
C3053 C 0.82127 0.60386 0.88967 0.0
C3054 C 0.82915 0.59926 0.868 0.0
C3055 C 0.81741 0.60787 0.84906 0.0
C3056 C 0.79692 0.62124 0.85233 0.0
C3057 C 0.78859 0.62602 0.87434 0.0
C3058 C 0.80113 0.61766 0.89323 0.0
H3059 H 0.13449 0.05438 0.60613 0.0
H3060 H 0.1134 0.04662 0.67606 0.0
H3061 H 0.13799 0.08078 0.68634 0.0
H3062 H 0.19211 0.06449 0.61619 0.0
H3063 H 0.19697 0.08594 0.59421 0.0
H3064 H 0.17375 0.06458 0.59133 0.0
H3065 H 0.14322 0.0981 0.58589 0.0
H3066 H 0.16645 0.11968 0.5886 0.0
H3067 H 0.14097 0.12117 0.60673 0.0
H3068 H 0.17065 0.10946 0.69032 0.0
H3069 H 0.20772 0.13224 0.68729 0.0
H3070 H 0.20729 0.12279 0.61478 0.0
C3071 C 0.13443 0.06047 0.62346 0.0
C3072 C 0.12158 0.04827 0.64019 0.0
C3073 C 0.12236 0.05622 0.66281 0.0
C3074 C 0.13643 0.07556 0.66884 0.0
C3075 C 0.1494 0.08683 0.65201 0.0
C3076 C 0.14828 0.07981 0.6297 0.0
C3077 C 0.16598 0.09306 0.61534 0.0
C3078 C 0.18322 0.076 0.6036 0.0
C3079 C 0.1534 0.10895 0.59812 0.0
C3080 C 0.17822 0.10758 0.63329 0.0
C3081 C 0.16816 0.10398 0.65429 0.0
C3082 C 0.17822 0.11305 0.67392 0.0
C3083 C 0.19928 0.12583 0.67207 0.0
C3084 C 0.20985 0.12954 0.65078 0.0
C3085 C 0.19896 0.12079 0.63112 0.0
H3086 H 0.63332 0.4643 0.36353 0.0
H3087 H 0.63443 0.47589 0.43581 0.0
H3088 H 0.65986 0.44088 0.4407 0.0
H3089 H 0.63592 0.39855 0.36479 0.0
H3090 H 0.65547 0.39731 0.34083 0.0
H3091 H 0.63441 0.421 0.34329 0.0
H3092 H 0.66828 0.45151 0.33978 0.0
H3093 H 0.6894 0.42797 0.33739 0.0
H3094 H 0.69286 0.45004 0.35905 0.0
H3095 H 0.68794 0.40728 0.43755 0.0
H3096 H 0.71838 0.37849 0.42647 0.0
H3097 H 0.70038 0.38903 0.35604 0.0
C3098 C 0.6384 0.45897 0.38039 0.0
C3099 C 0.63169 0.47242 0.39936 0.0
C3100 C 0.63931 0.46559 0.42113 0.0
C3101 C 0.65364 0.44571 0.42407 0.0
C3102 C 0.66037 0.43298 0.40501 0.0
C3103 C 0.65309 0.43935 0.38357 0.0
C3104 C 0.6649 0.42418 0.36579 0.0
C3105 C 0.64658 0.40938 0.35292 0.0
C3106 C 0.67974 0.43933 0.34956 0.0
C3107 C 0.68037 0.40876 0.38055 0.0
C3108 C 0.67713 0.41383 0.40314 0.0
C3109 C 0.6903 0.40278 0.41995 0.0
C3110 C 0.70743 0.38627 0.41349 0.0
C3111 C 0.71129 0.38104 0.39043 0.0
C3112 C 0.69749 0.3924 0.37382 0.0
H3113 H 0.35782 0.96602 0.10087 0.0
H3114 H 0.39688 0.94272 0.15979 0.0
H3115 H 0.37336 0.90627 0.16072 0.0
H3116 H 0.30414 0.95084 0.12176 0.0
H3117 H 0.29132 0.94206 0.09521 0.0
H3118 H 0.31481 0.96332 0.0957 0.0
H3119 H 0.33935 0.93725 0.06847 0.0
H3120 H 0.3158 0.91586 0.0678 0.0
H3121 H 0.34517 0.90691 0.07571 0.0
H3122 H 0.34176 0.87497 0.15852 0.0
H3123 H 0.30385 0.85353 0.1548 0.0
H3124 H 0.2839 0.89915 0.09941 0.0
C3125 C 0.36196 0.95298 0.11363 0.0
C3126 C 0.37979 0.95709 0.12982 0.0
C3127 C 0.38415 0.93976 0.14654 0.0
C3128 C 0.37067 0.91896 0.14733 0.0
C3129 C 0.35281 0.91584 0.13139 0.0
C3130 C 0.34845 0.93247 0.11487 0.0
C3131 C 0.32625 0.92685 0.10177 0.0
C3132 C 0.30807 0.94695 0.10375 0.0
C3133 C 0.332 0.92139 0.07697 0.0
C3134 C 0.31818 0.90498 0.1141 0.0
C3135 C 0.33403 0.89846 0.13073 0.0
C3136 C 0.3295 0.87963 0.14525 0.0
C3137 C 0.30803 0.86748 0.14296 0.0
C3138 C 0.29137 0.87453 0.12654 0.0
C3139 C 0.29665 0.89327 0.11181 0.0
H3140 H 0.80344 0.39232 0.66443 0.0
H3141 H 0.79059 0.38213 0.59296 0.0
H3142 H 0.82124 0.41169 0.58409 0.0
H3143 H 0.8094 0.45248 0.66299 0.0
H3144 H 0.83264 0.45461 0.68367 0.0
H3145 H 0.81249 0.43011 0.68442 0.0
H3146 H 0.84751 0.40084 0.68225 0.0
H3147 H 0.86786 0.4253 0.68168 0.0
H3148 H 0.8686 0.40341 0.65961 0.0
H3149 H 0.84797 0.44668 0.58325 0.0
H3150 H 0.87144 0.48274 0.59043 0.0
H3151 H 0.86868 0.46919 0.66231 0.0
C3152 C 0.80761 0.39586 0.64691 0.0
C3153 C 0.79505 0.38465 0.62935 0.0
C3154 C 0.80053 0.39 0.60664 0.0
C3155 C 0.8178 0.40688 0.60145 0.0
C3156 C 0.82957 0.41798 0.61919 0.0
C3157 C 0.82499 0.41243 0.64148 0.0
C3158 C 0.83889 0.42808 0.6574 0.0
C3159 C 0.82237 0.44215 0.67303 0.0
C3160 C 0.85678 0.41354 0.67104 0.0
C3161 C 0.85119 0.44401 0.64062 0.0
C3162 C 0.84565 0.4378 0.61866 0.0
C3163 C 0.85294 0.45134 0.60031 0.0
C3164 C 0.8661 0.4718 0.60453 0.0
C3165 C 0.87202 0.47832 0.62685 0.0
C3166 C 0.86481 0.4641 0.64508 0.0
H3167 H 0.28864 0.11772 0.41614 0.0
H3168 H 0.27358 0.11644 0.34447 0.0
H3169 H 0.30956 0.09281 0.33781 0.0
H3170 H 0.3544 0.11802 0.41207 0.0
H3171 H 0.3575 0.09836 0.4358 0.0
H3172 H 0.33292 0.11849 0.4345 0.0
H3173 H 0.3039 0.08344 0.43902 0.0
H3174 H 0.32833 0.06326 0.44029 0.0
H3175 H 0.30546 0.05905 0.41952 0.0
H3176 H 0.34451 0.06633 0.3393 0.0
H3177 H 0.37446 0.03648 0.34906 0.0
H3178 H 0.36619 0.05348 0.41998 0.0
C3179 C 0.29339 0.11297 0.39903 0.0
C3180 C 0.27874 0.11906 0.38074 0.0
C3181 C 0.28483 0.11196 0.35862 0.0
C3182 C 0.30525 0.09871 0.35468 0.0
C3183 C 0.31922 0.09257 0.37311 0.0
C3184 C 0.31352 0.09935 0.39487 0.0
C3185 C 0.32989 0.08805 0.41192 0.0
C3186 C 0.34455 0.10686 0.4243 0.0
C3187 C 0.31607 0.07253 0.42866 0.0
C3188 C 0.34517 0.07333 0.3964 0.0
C3189 C 0.33908 0.07662 0.37405 0.0
C3190 C 0.34979 0.06394 0.3567 0.0
C3191 C 0.36693 0.04715 0.36238 0.0
C3192 C 0.373 0.04312 0.38522 0.0
C3193 C 0.36212 0.05655 0.40236 0.0
H3194 H 0.71368 0.61049 0.1582 0.0
H3195 H 0.71119 0.63555 0.08909 0.0
H3196 H 0.67523 0.612 0.08248 0.0
H3197 H 0.69854 0.55267 0.14668 0.0
H3198 H 0.68084 0.54816 0.17159 0.0
H3199 H 0.70424 0.56959 0.17188 0.0
H3200 H 0.67456 0.60198 0.18398 0.0
H3201 H 0.65101 0.58058 0.18371 0.0
H3202 H 0.64857 0.60716 0.16717 0.0
H3203 H 0.64349 0.58167 0.08172 0.0
H3204 H 0.61758 0.54702 0.08709 0.0
H3205 H 0.63943 0.54224 0.15698 0.0
C3206 C 0.70524 0.61138 0.14182 0.0
C3207 C 0.71489 0.62525 0.12429 0.0
C3208 C 0.70367 0.62568 0.10297 0.0
C3209 C 0.68329 0.61225 0.09903 0.0
C3210 C 0.6743 0.59865 0.11664 0.0
C3211 C 0.6848 0.59824 0.13768 0.0
C3212 C 0.67273 0.58072 0.15318 0.0
C3213 C 0.69012 0.56166 0.16129 0.0
C3214 C 0.66102 0.59337 0.1732 0.0
C3215 C 0.65443 0.57059 0.13727 0.0
C3216 C 0.6555 0.58137 0.11634 0.0
C3217 C 0.64205 0.5735 0.09816 0.0
C3218 C 0.62745 0.55384 0.10134 0.0
C3219 C 0.62628 0.54247 0.12254 0.0
C3220 C 0.63953 0.55122 0.14084 0.0
H3221 H 0.13347 0.95352 0.86386 0.0
H3222 H 0.10599 0.94196 0.93107 0.0
H3223 H 0.13124 0.9067 0.93515 0.0
H3224 H 0.14562 0.88878 0.84898 0.0
H3225 H 0.17262 0.89686 0.83488 0.0
H3226 H 0.14782 0.91678 0.8347 0.0
H3227 H 0.1744 0.94966 0.85136 0.0
H3228 H 0.1991 0.92987 0.85196 0.0
H3229 H 0.18981 0.9444 0.87751 0.0
H3230 H 0.16436 0.87839 0.93504 0.0
H3231 H 0.20304 0.85898 0.93075 0.0
H3232 H 0.21031 0.88956 0.86405 0.0
C3233 C 0.13202 0.94275 0.87889 0.0
C3234 C 0.11757 0.94983 0.89696 0.0
C3235 C 0.11675 0.93631 0.91696 0.0
C3236 C 0.13095 0.91629 0.91937 0.0
C3237 C 0.14592 0.91024 0.90164 0.0
C3238 C 0.14645 0.92297 0.88169 0.0
C3239 C 0.16678 0.91529 0.86685 0.0
C3240 C 0.15766 0.90373 0.84506 0.0
C3241 C 0.1835 0.93604 0.86164 0.0
C3242 C 0.17834 0.89731 0.88212 0.0
C3243 C 0.16569 0.89416 0.90183 0.0
C3244 C 0.17406 0.88011 0.9194 0.0
C3245 C 0.19602 0.86911 0.91681 0.0
C3246 C 0.20935 0.87243 0.89689 0.0
C3247 C 0.20025 0.8865 0.87931 0.0
loop_
_geom_bond_atom_site_label_1
_geom_bond_atom_site_label_2
_geom_bond_distance
_geom_bond_site_symmetry_2
_ccdc_geom_bond_type
Co0 O3 1.970 . S
Co0 N17 1.989 . S
Co0 O25 1.967 . S
Co0 O32 1.920 . S
Co1 O4 1.966 . S
Co1 N10 2.022 . S
Co1 N18 1.993 . S
Co1 O26 1.941 . S
C2 O3 1.258 . S
C2 O4 1.263 . S
O3 Co0 1.970 . S
O3 C2 1.258 . S
O4 Co1 1.966 . S
O4 C2 1.263 . S
C5 O6 1.235 . S
C5 O32 1.289 . S
O6 C5 1.235 . S
C7 C9 1.400 . S
C7 N10 1.351 . S
C7 C12 1.501 . S
C8 C9 1.387 . S
C8 N11 1.341 . S
C9 C7 1.400 . S
C9 C8 1.387 . S
N10 Co1 2.022 . S
N10 C7 1.351 . S
N10 N11 1.365 . S
N11 C8 1.341 . S
N11 N10 1.365 . S
N11 H31 0.862 . S
C12 C7 1.501 . S
C12 H13 0.961 . S
C12 H14 0.961 . S
C12 H15 0.960 . S
H13 C12 0.961 . S
H14 C12 0.961 . S
H15 C12 0.960 . S
C16 N17 1.342 . S
C16 C20 1.401 . S
C16 C21 1.499 . S
N17 Co0 1.989 . S
N17 C16 1.342 . S
N17 N18 1.388 . S
N18 Co1 1.993 . S
N18 N17 1.388 . S
N18 C19 1.346 . S
C19 N18 1.346 . S
C19 C20 1.396 . S
C19 C29 1.510 . S
C20 C16 1.401 . S
C20 C19 1.396 . S
C21 C16 1.499 . S
C21 H22 0.959 . S
C21 H23 0.960 . S
C21 H24 0.961 . S
H22 C21 0.959 . S
H23 C21 0.960 . S
H24 C21 0.961 . S
O25 Co0 1.967 . S
O25 C33 1.258 . S
O26 Co1 1.941 . S
O26 C33 1.266 . S
H27 C29 0.959 . S
H28 C29 0.961 . S
C29 C19 1.510 . S
C29 H27 0.959 . S
C29 H28 0.961 . S
C29 H30 0.960 . S
H30 C29 0.960 . S
H31 N11 0.862 . S
O32 Co0 1.920 . S
O32 C5 1.289 . S
C33 O25 1.258 . S
C33 O26 1.266 . S
Co34 O37 1.970 . S
Co34 N51 1.989 . S
Co34 O59 1.967 . S
Co34 O66 1.920 1_655 S
Co35 O38 1.966 . S
Co35 N44 2.022 . S
Co35 N52 1.993 . S
Co35 O60 1.941 . S
C36 O37 1.258 . S
C36 O38 1.263 . S
O37 Co34 1.970 . S
O37 C36 1.258 . S
O38 Co35 1.966 . S
O38 C36 1.263 . S
C39 O40 1.235 . S
C39 O66 1.289 . S
O40 C39 1.235 . S
C41 C43 1.400 . S
C41 N44 1.351 1_565 S
C41 C46 1.501 . S
C42 C43 1.387 . S
C42 N45 1.341 1_565 S
C43 C41 1.400 . S
C43 C42 1.387 . S
N44 Co35 2.022 . S
N44 C41 1.351 1_545 S
N44 N45 1.365 . S
N45 C42 1.341 1_545 S
N45 N44 1.365 . S
N45 H65 0.862 . S
C46 C41 1.501 . S
C46 H47 0.961 . S
C46 H48 0.961 . S
C46 H49 0.960 . S
H47 C46 0.961 . S
H48 C46 0.961 . S
H49 C46 0.960 . S
C50 N51 1.342 . S
C50 C54 1.401 . S
C50 C55 1.499 1_655 S
N51 Co34 1.989 . S
N51 C50 1.342 . S
N51 N52 1.388 . S
N52 Co35 1.993 . S
N52 N51 1.388 . S
N52 C53 1.346 . S
C53 N52 1.346 . S
C53 C54 1.396 . S
C53 C63 1.510 1_545 S
C54 C50 1.401 . S
C54 C53 1.396 . S
C55 C50 1.499 1_455 S
C55 H56 0.959 . S
C55 H57 0.960 . S
C55 H58 0.961 . S
H56 C55 0.959 . S
H57 C55 0.960 . S
H58 C55 0.961 . S
O59 Co34 1.967 . S
O59 C67 1.258 . S
O60 Co35 1.941 . S
O60 C67 1.266 . S
H61 C63 0.959 . S
H62 C63 0.961 . S
C63 C53 1.510 1_565 S
C63 H61 0.959 . S
C63 H62 0.961 . S
C63 H64 0.960 . S
H64 C63 0.960 . S
H65 N45 0.862 . S
O66 Co34 1.920 1_455 S
O66 C39 1.289 . S
C67 O59 1.258 . S
C67 O60 1.266 . S
Co68 O71 1.970 . S
Co68 N85 1.989 . S
Co68 O93 1.967 . S
Co68 O100 1.920 . S
Co69 O72 1.966 . S
Co69 N78 2.022 . S
Co69 N86 1.993 . S
Co69 O94 1.941 . S
C70 O71 1.258 . S
C70 O72 1.263 . S
O71 Co68 1.970 . S
O71 C70 1.258 . S
O72 Co69 1.966 . S
O72 C70 1.263 . S
C73 O74 1.235 . S
C73 O100 1.289 . S
O74 C73 1.235 . S
C75 C77 1.400 . S
C75 N78 1.351 . S
C75 C80 1.501 . S
C76 C77 1.387 . S
C76 N79 1.341 . S
C77 C75 1.400 . S
C77 C76 1.387 . S
N78 Co69 2.022 . S
N78 C75 1.351 . S
N78 N79 1.365 . S
N79 C76 1.341 . S
N79 N78 1.365 . S
N79 H99 0.862 . S
C80 C75 1.501 . S
C80 H81 0.961 . S
C80 H82 0.961 . S
C80 H83 0.960 . S
H81 C80 0.961 . S
H82 C80 0.961 . S
H83 C80 0.960 . S
C84 N85 1.342 . S
C84 C88 1.401 . S
C84 C89 1.499 . S
N85 Co68 1.989 . S
N85 C84 1.342 . S
N85 N86 1.388 . S
N86 Co69 1.993 . S
N86 N85 1.388 . S
N86 C87 1.346 . S
C87 N86 1.346 . S
C87 C88 1.396 . S
C87 C97 1.510 . S
C88 C84 1.401 . S
C88 C87 1.396 . S
C89 C84 1.499 . S
C89 H90 0.959 . S
C89 H91 0.960 . S
C89 H92 0.961 . S
H90 C89 0.959 . S
H91 C89 0.960 . S
H92 C89 0.961 . S
O93 Co68 1.967 . S
O93 C101 1.258 . S
O94 Co69 1.941 . S
O94 C101 1.266 . S
H95 C97 0.959 . S
H96 C97 0.961 . S
C97 C87 1.510 . S
C97 H95 0.959 . S
C97 H96 0.961 . S
C97 H98 0.960 . S
H98 C97 0.960 . S
H99 N79 0.862 . S
O100 Co68 1.920 . S
O100 C73 1.289 . S
C101 O93 1.258 . S
C101 O94 1.266 . S
Co102 O105 1.970 . S
Co102 N119 1.989 . S
Co102 O127 1.967 . S
Co102 O134 1.920 . S
Co103 O106 1.966 . S
Co103 N112 2.022 . S
Co103 N120 1.993 . S
Co103 O128 1.941 . S
C104 O105 1.258 . S
C104 O106 1.263 . S
O105 Co102 1.970 . S
O105 C104 1.258 . S
O106 Co103 1.966 . S
O106 C104 1.263 . S
C107 O108 1.235 . S
C107 O134 1.289 . S
O108 C107 1.235 . S
C109 C111 1.400 . S
C109 N112 1.351 1_545 S
C109 C114 1.501 . S
C110 C111 1.387 . S
C110 N113 1.341 1_545 S
C111 C109 1.400 . S
C111 C110 1.387 . S
N112 Co103 2.022 . S
N112 C109 1.351 1_565 S
N112 N113 1.365 . S
N113 C110 1.341 1_565 S
N113 N112 1.365 . S
N113 H133 0.862 . S
C114 C109 1.501 . S
C114 H115 0.961 . S
C114 H116 0.961 . S
C114 H117 0.960 . S
H115 C114 0.961 . S
H116 C114 0.961 . S
H117 C114 0.960 . S
C118 N119 1.342 . S
C118 C122 1.401 . S
C118 C123 1.499 . S
N119 Co102 1.989 . S
N119 C118 1.342 . S
N119 N120 1.388 . S
N120 Co103 1.993 . S
N120 N119 1.388 . S
N120 C121 1.346 . S
C121 N120 1.346 . S
C121 C122 1.396 . S
C121 C131 1.510 1_565 S
C122 C118 1.401 . S
C122 C121 1.396 . S
C123 C118 1.499 . S
C123 H124 0.959 . S
C123 H125 0.960 . S
C123 H126 0.961 . S
H124 C123 0.959 . S
H125 C123 0.960 . S
H126 C123 0.961 . S
O127 Co102 1.967 . S
O127 C135 1.258 . S
O128 Co103 1.941 . S
O128 C135 1.266 . S
H129 C131 0.959 . S
H130 C131 0.961 . S
C131 C121 1.510 1_545 S
C131 H129 0.959 . S
C131 H130 0.961 . S
C131 H132 0.960 . S
H132 C131 0.960 . S
H133 N113 0.862 . S
O134 Co102 1.920 . S
O134 C107 1.289 . S
C135 O127 1.258 . S
C135 O128 1.266 . S
Co136 O139 1.970 . S
Co136 N153 1.989 . S
Co136 O161 1.967 . S
Co136 O168 1.920 . S
Co137 O140 1.966 . S
Co137 N146 2.022 . S
Co137 N154 1.993 . S
Co137 O162 1.941 . S
C138 O139 1.258 . S
C138 O140 1.263 . S
O139 Co136 1.970 . S
O139 C138 1.258 . S
O140 Co137 1.966 . S
O140 C138 1.263 . S
C141 O142 1.235 . S
C141 O168 1.289 . S
O142 C141 1.235 . S
C143 C145 1.400 . S
C143 N146 1.351 . S
C143 C148 1.501 . S
C144 C145 1.387 . S
C144 N147 1.341 . S
C145 C143 1.400 . S
C145 C144 1.387 . S
N146 Co137 2.022 . S
N146 C143 1.351 . S
N146 N147 1.365 . S
N147 C144 1.341 . S
N147 N146 1.365 . S
N147 H167 0.862 . S
C148 C143 1.501 . S
C148 H149 0.961 . S
C148 H150 0.961 . S
C148 H151 0.960 . S
H149 C148 0.961 . S
H150 C148 0.961 . S
H151 C148 0.960 . S
C152 N153 1.342 . S
C152 C156 1.401 . S
C152 C157 1.499 . S
N153 Co136 1.989 . S
N153 C152 1.342 . S
N153 N154 1.388 . S
N154 Co137 1.993 . S
N154 N153 1.388 . S
N154 C155 1.346 . S
C155 N154 1.346 . S
C155 C156 1.396 . S
C155 C165 1.510 . S
C156 C152 1.401 . S
C156 C155 1.396 . S
C157 C152 1.499 . S
C157 H158 0.959 . S
C157 H159 0.960 . S
C157 H160 0.961 . S
H158 C157 0.959 . S
H159 C157 0.960 . S
H160 C157 0.961 . S
O161 Co136 1.967 . S
O161 C169 1.258 . S
O162 Co137 1.941 . S
O162 C169 1.266 . S
H163 C165 0.959 . S
H164 C165 0.961 . S
C165 C155 1.510 . S
C165 H163 0.959 . S
C165 H164 0.961 . S
C165 H166 0.960 . S
H166 C165 0.960 . S
H167 N147 0.862 . S
O168 Co136 1.920 . S
O168 C141 1.289 . S
C169 O161 1.258 . S
C169 O162 1.266 . S
Co170 O173 1.970 . S
Co170 N187 1.989 . S
Co170 O195 1.967 . S
Co170 O202 1.920 . S
Co171 O174 1.966 . S
Co171 N180 2.022 . S
Co171 N188 1.993 . S
Co171 O196 1.941 . S
C172 O173 1.258 . S
C172 O174 1.263 . S
O173 Co170 1.970 . S
O173 C172 1.258 . S
O174 Co171 1.966 . S
O174 C172 1.263 . S
C175 O176 1.235 . S
C175 O202 1.289 . S
O176 C175 1.235 . S
C177 C179 1.400 . S
C177 N180 1.351 1_565 S
C177 C182 1.501 . S
C178 C179 1.387 . S
C178 N181 1.341 1_565 S
C179 C177 1.400 . S
C179 C178 1.387 . S
N180 Co171 2.022 . S
N180 C177 1.351 1_545 S
N180 N181 1.365 . S
N181 C178 1.341 1_545 S
N181 N180 1.365 . S
N181 H201 0.862 . S
C182 C177 1.501 . S
C182 H183 0.961 . S
C182 H184 0.961 . S
C182 H185 0.960 . S
H183 C182 0.961 . S
H184 C182 0.961 . S
H185 C182 0.960 . S
C186 N187 1.342 . S
C186 C190 1.401 . S
C186 C191 1.499 . S
N187 Co170 1.989 . S
N187 C186 1.342 . S
N187 N188 1.388 . S
N188 Co171 1.993 . S
N188 N187 1.388 . S
N188 C189 1.346 . S
C189 N188 1.346 . S
C189 C190 1.396 . S
C189 C199 1.510 1_545 S
C190 C186 1.401 . S
C190 C189 1.396 . S
C191 C186 1.499 . S
C191 H192 0.959 . S
C191 H193 0.960 . S
C191 H194 0.961 . S
H192 C191 0.959 . S
H193 C191 0.960 . S
H194 C191 0.961 . S
O195 Co170 1.967 . S
O195 C203 1.258 . S
O196 Co171 1.941 . S
O196 C203 1.266 . S
H197 C199 0.959 . S
H198 C199 0.961 . S
C199 C189 1.510 1_565 S
C199 H197 0.959 . S
C199 H198 0.961 . S
C199 H200 0.960 . S
H200 C199 0.960 . S
H201 N181 0.862 . S
O202 Co170 1.920 . S
O202 C175 1.289 . S
C203 O195 1.258 . S
C203 O196 1.266 . S
Co204 O207 1.970 . S
Co204 N221 1.989 . S
Co204 O229 1.967 . S
Co204 O236 1.920 . S
Co205 O208 1.966 . S
Co205 N214 2.022 . S
Co205 N222 1.993 . S
Co205 O230 1.941 . S
C206 O207 1.258 . S
C206 O208 1.263 . S
O207 Co204 1.970 . S
O207 C206 1.258 . S
O208 Co205 1.966 . S
O208 C206 1.263 . S
C209 O210 1.235 . S
C209 O236 1.289 . S
O210 C209 1.235 . S
C211 C213 1.400 . S
C211 N214 1.351 . S
C211 C216 1.501 . S
C212 C213 1.387 . S
C212 N215 1.341 . S
C213 C211 1.400 . S
C213 C212 1.387 . S
N214 Co205 2.022 . S
N214 C211 1.351 . S
N214 N215 1.365 . S
N215 C212 1.341 . S
N215 N214 1.365 . S
N215 H235 0.862 . S
C216 C211 1.501 . S
C216 H217 0.961 . S
C216 H218 0.961 . S
C216 H219 0.960 . S
H217 C216 0.961 . S
H218 C216 0.961 . S
H219 C216 0.960 . S
C220 N221 1.342 . S
C220 C224 1.401 . S
C220 C225 1.499 . S
N221 Co204 1.989 . S
N221 C220 1.342 . S
N221 N222 1.388 . S
N222 Co205 1.993 . S
N222 N221 1.388 . S
N222 C223 1.346 . S
C223 N222 1.346 . S
C223 C224 1.396 . S
C223 C233 1.510 . S
C224 C220 1.401 . S
C224 C223 1.396 . S
C225 C220 1.499 . S
C225 H226 0.959 . S
C225 H227 0.960 . S
C225 H228 0.961 . S
H226 C225 0.959 . S
H227 C225 0.960 . S
H228 C225 0.961 . S
O229 Co204 1.967 . S
O229 C237 1.258 . S
O230 Co205 1.941 . S
O230 C237 1.266 . S
H231 C233 0.959 . S
H232 C233 0.961 . S
C233 C223 1.510 . S
C233 H231 0.959 . S
C233 H232 0.961 . S
C233 H234 0.960 . S
H234 C233 0.960 . S
H235 N215 0.862 . S
O236 Co204 1.920 . S
O236 C209 1.289 . S
C237 O229 1.258 . S
C237 O230 1.266 . S
Co238 O241 1.970 . S
Co238 N255 1.989 . S
Co238 O263 1.967 . S
Co238 O270 1.920 1_655 S
Co239 O242 1.966 . S
Co239 N248 2.022 . S
Co239 N256 1.993 . S
Co239 O264 1.941 . S
C240 O241 1.258 . S
C240 O242 1.263 . S
O241 Co238 1.970 . S
O241 C240 1.258 . S
O242 Co239 1.966 . S
O242 C240 1.263 . S
C243 O244 1.235 . S
C243 O270 1.289 . S
O244 C243 1.235 . S
C245 C247 1.400 . S
C245 N248 1.351 1_545 S
C245 C250 1.501 . S
C246 C247 1.387 . S
C246 N249 1.341 1_545 S
C247 C245 1.400 . S
C247 C246 1.387 . S
N248 Co239 2.022 . S
N248 C245 1.351 1_565 S
N248 N249 1.365 . S
N249 C246 1.341 1_565 S
N249 N248 1.365 . S
N249 H269 0.862 . S
C250 C245 1.501 . S
C250 H251 0.961 . S
C250 H252 0.961 . S
C250 H253 0.960 . S
H251 C250 0.961 . S
H252 C250 0.961 . S
H253 C250 0.960 . S
C254 N255 1.342 . S
C254 C258 1.401 . S
C254 C259 1.499 1_655 S
N255 Co238 1.989 . S
N255 C254 1.342 . S
N255 N256 1.388 . S
N256 Co239 1.993 . S
N256 N255 1.388 . S
N256 C257 1.346 . S
C257 N256 1.346 . S
C257 C258 1.396 . S
C257 C267 1.510 1_565 S
C258 C254 1.401 . S
C258 C257 1.396 . S
C259 C254 1.499 1_455 S
C259 H260 0.959 . S
C259 H261 0.960 . S
C259 H262 0.961 . S
H260 C259 0.959 . S
H261 C259 0.960 . S
H262 C259 0.961 . S
O263 Co238 1.967 . S
O263 C271 1.258 . S
O264 Co239 1.941 . S
O264 C271 1.266 . S
H265 C267 0.959 . S
H266 C267 0.961 . S
C267 C257 1.510 1_545 S
C267 H265 0.959 . S
C267 H266 0.961 . S
C267 H268 0.960 . S
H268 C267 0.960 . S
H269 N249 0.862 . S
O270 Co238 1.920 1_455 S
O270 C243 1.289 . S
C271 O263 1.258 . S
C271 O264 1.266 . S
Co272 O275 1.970 . S
Co272 N289 1.989 . S
Co272 O297 1.967 . S
Co272 O304 1.920 . S
Co273 O276 1.966 . S
Co273 N282 2.022 . S
Co273 N290 1.993 . S
Co273 O298 1.941 . S
C274 O275 1.258 . S
C274 O276 1.263 . S
O275 Co272 1.970 . S
O275 C274 1.258 . S
O276 Co273 1.966 . S
O276 C274 1.263 . S
C277 O278 1.235 . S
C277 O304 1.289 . S
O278 C277 1.235 . S
C279 C281 1.400 . S
C279 N282 1.351 . S
C279 C284 1.501 . S
C280 C281 1.387 . S
C280 N283 1.341 . S
C281 C279 1.400 . S
C281 C280 1.387 . S
N282 Co273 2.022 . S
N282 C279 1.351 . S
N282 N283 1.365 . S
N283 C280 1.341 . S
N283 N282 1.365 . S
N283 H303 0.862 . S
C284 C279 1.501 . S
C284 H285 0.961 . S
C284 H286 0.961 . S
C284 H287 0.960 . S
H285 C284 0.961 . S
H286 C284 0.961 . S
H287 C284 0.960 . S
C288 N289 1.342 . S
C288 C292 1.401 . S
C288 C293 1.499 . S
N289 Co272 1.989 . S
N289 C288 1.342 . S
N289 N290 1.388 . S
N290 Co273 1.993 . S
N290 N289 1.388 . S
N290 C291 1.346 . S
C291 N290 1.346 . S
C291 C292 1.396 . S
C291 C301 1.510 . S
C292 C288 1.401 . S
C292 C291 1.396 . S
C293 C288 1.499 . S
C293 H294 0.959 . S
C293 H295 0.960 . S
C293 H296 0.961 . S
H294 C293 0.959 . S
H295 C293 0.960 . S
H296 C293 0.961 . S
O297 Co272 1.967 . S
O297 C305 1.258 . S
O298 Co273 1.941 . S
O298 C305 1.266 . S
H299 C301 0.959 . S
H300 C301 0.961 . S
C301 C291 1.510 . S
C301 H299 0.959 . S
C301 H300 0.961 . S
C301 H302 0.960 . S
H302 C301 0.960 . S
H303 N283 0.862 . S
O304 Co272 1.920 . S
O304 C277 1.289 . S
C305 O297 1.258 . S
C305 O298 1.266 . S
Co306 O309 1.970 . S
Co306 N323 1.989 . S
Co306 O331 1.967 . S
Co306 O338 1.920 1_455 S
Co307 O310 1.966 . S
Co307 N316 2.022 . S
Co307 N324 1.993 . S
Co307 O332 1.941 . S
C308 O309 1.258 . S
C308 O310 1.263 . S
O309 Co306 1.970 . S
O309 C308 1.258 . S
O310 Co307 1.966 . S
O310 C308 1.263 . S
C311 O312 1.235 . S
C311 O338 1.289 . S
O312 C311 1.235 . S
C313 C315 1.400 . S
C313 N316 1.351 1_545 S
C313 C318 1.501 . S
C314 C315 1.387 . S
C314 N317 1.341 1_545 S
C315 C313 1.400 . S
C315 C314 1.387 . S
N316 Co307 2.022 . S
N316 C313 1.351 1_565 S
N316 N317 1.365 . S
N317 C314 1.341 1_565 S
N317 N316 1.365 . S
N317 H337 0.862 . S
C318 C313 1.501 . S
C318 H319 0.961 . S
C318 H320 0.961 . S
C318 H321 0.960 . S
H319 C318 0.961 . S
H320 C318 0.961 . S
H321 C318 0.960 . S
C322 N323 1.342 . S
C322 C326 1.401 . S
C322 C327 1.499 1_455 S
N323 Co306 1.989 . S
N323 C322 1.342 . S
N323 N324 1.388 . S
N324 Co307 1.993 . S
N324 N323 1.388 . S
N324 C325 1.346 . S
C325 N324 1.346 . S
C325 C326 1.396 . S
C325 C335 1.510 1_565 S
C326 C322 1.401 . S
C326 C325 1.396 . S
C327 C322 1.499 1_655 S
C327 H328 0.959 . S
C327 H329 0.960 . S
C327 H330 0.961 . S
H328 C327 0.959 . S
H329 C327 0.960 . S
H330 C327 0.961 . S
O331 Co306 1.967 . S
O331 C339 1.258 . S
O332 Co307 1.941 . S
O332 C339 1.266 . S
H333 C335 0.959 . S
H334 C335 0.961 . S
C335 C325 1.510 1_545 S
C335 H333 0.959 . S
C335 H334 0.961 . S
C335 H336 0.960 . S
H336 C335 0.960 . S
H337 N317 0.862 . S
O338 Co306 1.920 1_655 S
O338 C311 1.289 . S
C339 O331 1.258 . S
C339 O332 1.266 . S
Co340 O343 1.970 . S
Co340 N357 1.989 . S
Co340 O365 1.967 . S
Co340 O372 1.920 . S
Co341 O344 1.966 . S
Co341 N350 2.022 . S
Co341 N358 1.993 . S
Co341 O366 1.941 . S
C342 O343 1.258 . S
C342 O344 1.263 . S
O343 Co340 1.970 . S
O343 C342 1.258 . S
O344 Co341 1.966 . S
O344 C342 1.263 . S
C345 O346 1.235 . S
C345 O372 1.289 . S
O346 C345 1.235 . S
C347 C349 1.400 . S
C347 N350 1.351 . S
C347 C352 1.501 . S
C348 C349 1.387 . S
C348 N351 1.341 . S
C349 C347 1.400 . S
C349 C348 1.387 . S
N350 Co341 2.022 . S
N350 C347 1.351 . S
N350 N351 1.365 . S
N351 C348 1.341 . S
N351 N350 1.365 . S
N351 H371 0.862 . S
C352 C347 1.501 . S
C352 H353 0.961 . S
C352 H354 0.961 . S
C352 H355 0.960 . S
H353 C352 0.961 . S
H354 C352 0.961 . S
H355 C352 0.960 . S
C356 N357 1.342 . S
C356 C360 1.401 . S
C356 C361 1.499 . S
N357 Co340 1.989 . S
N357 C356 1.342 . S
N357 N358 1.388 . S
N358 Co341 1.993 . S
N358 N357 1.388 . S
N358 C359 1.346 . S
C359 N358 1.346 . S
C359 C360 1.396 . S
C359 C369 1.510 . S
C360 C356 1.401 . S
C360 C359 1.396 . S
C361 C356 1.499 . S
C361 H362 0.959 . S
C361 H363 0.960 . S
C361 H364 0.961 . S
H362 C361 0.959 . S
H363 C361 0.960 . S
H364 C361 0.961 . S
O365 Co340 1.967 . S
O365 C373 1.258 . S
O366 Co341 1.941 . S
O366 C373 1.266 . S
H367 C369 0.959 . S
H368 C369 0.961 . S
C369 C359 1.510 . S
C369 H367 0.959 . S
C369 H368 0.961 . S
C369 H370 0.960 . S
H370 C369 0.960 . S
H371 N351 0.862 . S
O372 Co340 1.920 . S
O372 C345 1.289 . S
C373 O365 1.258 . S
C373 O366 1.266 . S
Co374 O377 1.970 . S
Co374 N391 1.989 . S
Co374 O399 1.967 . S
Co374 O406 1.920 . S
Co375 O378 1.966 . S
Co375 N384 2.022 . S
Co375 N392 1.993 . S
Co375 O400 1.941 . S
C376 O377 1.258 . S
C376 O378 1.263 . S
O377 Co374 1.970 . S
O377 C376 1.258 . S
O378 Co375 1.966 . S
O378 C376 1.263 . S
C379 O380 1.235 . S
C379 O406 1.289 . S
O380 C379 1.235 . S
C381 C383 1.400 . S
C381 N384 1.351 1_565 S
C381 C386 1.501 . S
C382 C383 1.387 . S
C382 N385 1.341 1_565 S
C383 C381 1.400 . S
C383 C382 1.387 . S
N384 Co375 2.022 . S
N384 C381 1.351 1_545 S
N384 N385 1.365 . S
N385 C382 1.341 1_545 S
N385 N384 1.365 . S
N385 H405 0.862 . S
C386 C381 1.501 . S
C386 H387 0.961 . S
C386 H388 0.961 . S
C386 H389 0.960 . S
H387 C386 0.961 . S
H388 C386 0.961 . S
H389 C386 0.960 . S
C390 N391 1.342 . S
C390 C394 1.401 . S
C390 C395 1.499 . S
N391 Co374 1.989 . S
N391 C390 1.342 . S
N391 N392 1.388 . S
N392 Co375 1.993 . S
N392 N391 1.388 . S
N392 C393 1.346 . S
C393 N392 1.346 . S
C393 C394 1.396 . S
C393 C403 1.510 1_545 S
C394 C390 1.401 . S
C394 C393 1.396 . S
C395 C390 1.499 . S
C395 H396 0.959 . S
C395 H397 0.960 . S
C395 H398 0.961 . S
H396 C395 0.959 . S
H397 C395 0.960 . S
H398 C395 0.961 . S
O399 Co374 1.967 . S
O399 C407 1.258 . S
O400 Co375 1.941 . S
O400 C407 1.266 . S
H401 C403 0.959 . S
H402 C403 0.961 . S
C403 C393 1.510 1_565 S
C403 H401 0.959 . S
C403 H402 0.961 . S
C403 H404 0.960 . S
H404 C403 0.960 . S
H405 N385 0.862 . S
O406 Co374 1.920 . S
O406 C379 1.289 . S
C407 O399 1.258 . S
C407 O400 1.266 . S
Co408 O411 1.970 . S
Co408 N425 1.989 . S
Co408 O433 1.967 . S
Co408 O440 1.920 . S
Co409 O412 1.966 . S
Co409 N418 2.022 . S
Co409 N426 1.993 . S
Co409 O434 1.941 . S
C410 O411 1.258 . S
C410 O412 1.263 . S
O411 Co408 1.970 . S
O411 C410 1.258 . S
O412 Co409 1.966 . S
O412 C410 1.263 . S
C413 O414 1.235 . S
C413 O440 1.289 . S
O414 C413 1.235 . S
C415 C417 1.400 . S
C415 N418 1.351 . S
C415 C420 1.501 . S
C416 C417 1.387 . S
C416 N419 1.341 . S
C417 C415 1.400 . S
C417 C416 1.387 . S
N418 Co409 2.022 . S
N418 C415 1.351 . S
N418 N419 1.365 . S
N419 C416 1.341 . S
N419 N418 1.365 . S
N419 H439 0.862 . S
C420 C415 1.501 . S
C420 H421 0.961 . S
C420 H422 0.961 . S
C420 H423 0.960 . S
H421 C420 0.961 . S
H422 C420 0.961 . S
H423 C420 0.960 . S
C424 N425 1.342 . S
C424 C428 1.401 . S
C424 C429 1.499 . S
N425 Co408 1.989 . S
N425 C424 1.342 . S
N425 N426 1.388 . S
N426 Co409 1.993 . S
N426 N425 1.388 . S
N426 C427 1.346 . S
C427 N426 1.346 . S
C427 C428 1.396 . S
C427 C437 1.510 . S
C428 C424 1.401 . S
C428 C427 1.396 . S
C429 C424 1.499 . S
C429 H430 0.959 . S
C429 H431 0.960 . S
C429 H432 0.961 . S
H430 C429 0.959 . S
H431 C429 0.960 . S
H432 C429 0.961 . S
O433 Co408 1.967 . S
O433 C441 1.258 . S
O434 Co409 1.941 . S
O434 C441 1.266 . S
H435 C437 0.959 . S
H436 C437 0.961 . S
C437 C427 1.510 . S
C437 H435 0.959 . S
C437 H436 0.961 . S
C437 H438 0.960 . S
H438 C437 0.960 . S
H439 N419 0.862 . S
O440 Co408 1.920 . S
O440 C413 1.289 . S
C441 O433 1.258 . S
C441 O434 1.266 . S
Co442 O445 1.970 . S
Co442 N459 1.989 . S
Co442 O467 1.967 . S
Co442 O474 1.920 . S
Co443 O446 1.966 . S
Co443 N452 2.022 . S
Co443 N460 1.993 . S
Co443 O468 1.941 . S
C444 O445 1.258 . S
C444 O446 1.263 . S
O445 Co442 1.970 . S
O445 C444 1.258 . S
O446 Co443 1.966 . S
O446 C444 1.263 . S
C447 O448 1.235 . S
C447 O474 1.289 . S
O448 C447 1.235 . S
C449 C451 1.400 . S
C449 N452 1.351 1_545 S
C449 C454 1.501 . S
C450 C451 1.387 . S
C450 N453 1.341 1_545 S
C451 C449 1.400 . S
C451 C450 1.387 . S
N452 Co443 2.022 . S
N452 C449 1.351 1_565 S
N452 N453 1.365 . S
N453 C450 1.341 1_565 S
N453 N452 1.365 . S
N453 H473 0.862 . S
C454 C449 1.501 . S
C454 H455 0.961 . S
C454 H456 0.961 . S
C454 H457 0.960 . S
H455 C454 0.961 . S
H456 C454 0.961 . S
H457 C454 0.960 . S
C458 N459 1.342 . S
C458 C462 1.401 . S
C458 C463 1.499 . S
N459 Co442 1.989 . S
N459 C458 1.342 . S
N459 N460 1.388 . S
N460 Co443 1.993 . S
N460 N459 1.388 . S
N460 C461 1.346 . S
C461 N460 1.346 . S
C461 C462 1.396 . S
C461 C471 1.510 1_565 S
C462 C458 1.401 . S
C462 C461 1.396 . S
C463 C458 1.499 . S
C463 H464 0.959 . S
C463 H465 0.960 . S
C463 H466 0.961 . S
H464 C463 0.959 . S
H465 C463 0.960 . S
H466 C463 0.961 . S
O467 Co442 1.967 . S
O467 C475 1.258 . S
O468 Co443 1.941 . S
O468 C475 1.266 . S
H469 C471 0.959 . S
H470 C471 0.961 . S
C471 C461 1.510 1_545 S
C471 H469 0.959 . S
C471 H470 0.961 . S
C471 H472 0.960 . S
H472 C471 0.960 . S
H473 N453 0.862 . S
O474 Co442 1.920 . S
O474 C447 1.289 . S
C475 O467 1.258 . S
C475 O468 1.266 . S
Co476 O479 1.970 . S
Co476 N493 1.989 . S
Co476 O501 1.967 . S
Co476 O508 1.920 . S
Co477 O480 1.966 . S
Co477 N486 2.022 . S
Co477 N494 1.993 . S
Co477 O502 1.941 . S
C478 O479 1.258 . S
C478 O480 1.263 . S
O479 Co476 1.970 . S
O479 C478 1.258 . S
O480 Co477 1.966 . S
O480 C478 1.263 . S
C481 O482 1.235 . S
C481 O508 1.289 . S
O482 C481 1.235 . S
C483 C485 1.400 . S
C483 N486 1.351 . S
C483 C488 1.501 . S
C484 C485 1.387 . S
C484 N487 1.341 . S
C485 C483 1.400 . S
C485 C484 1.387 . S
N486 Co477 2.022 . S
N486 C483 1.351 . S
N486 N487 1.365 . S
N487 C484 1.341 . S
N487 N486 1.365 . S
N487 H507 0.862 . S
C488 C483 1.501 . S
C488 H489 0.961 . S
C488 H490 0.961 . S
C488 H491 0.960 . S
H489 C488 0.961 . S
H490 C488 0.961 . S
H491 C488 0.960 . S
C492 N493 1.342 . S
C492 C496 1.401 . S
C492 C497 1.499 . S
N493 Co476 1.989 . S
N493 C492 1.342 . S
N493 N494 1.388 . S
N494 Co477 1.993 . S
N494 N493 1.388 . S
N494 C495 1.346 . S
C495 N494 1.346 . S
C495 C496 1.396 . S
C495 C505 1.510 . S
C496 C492 1.401 . S
C496 C495 1.396 . S
C497 C492 1.499 . S
C497 H498 0.959 . S
C497 H499 0.960 . S
C497 H500 0.961 . S
H498 C497 0.959 . S
H499 C497 0.960 . S
H500 C497 0.961 . S
O501 Co476 1.967 . S
O501 C509 1.258 . S
O502 Co477 1.941 . S
O502 C509 1.266 . S
H503 C505 0.959 . S
H504 C505 0.961 . S
C505 C495 1.510 . S
C505 H503 0.959 . S
C505 H504 0.961 . S
C505 H506 0.960 . S
H506 C505 0.960 . S
H507 N487 0.862 . S
O508 Co476 1.920 . S
O508 C481 1.289 . S
C509 O501 1.258 . S
C509 O502 1.266 . S
Co510 O513 1.970 . S
Co510 N527 1.989 . S
Co510 O535 1.967 . S
Co510 O542 1.920 1_455 S
Co511 O514 1.966 . S
Co511 N520 2.022 . S
Co511 N528 1.993 . S
Co511 O536 1.941 . S
C512 O513 1.258 . S
C512 O514 1.263 . S
O513 Co510 1.970 . S
O513 C512 1.258 . S
O514 Co511 1.966 . S
O514 C512 1.263 . S
C515 O516 1.235 . S
C515 O542 1.289 . S
O516 C515 1.235 . S
C517 C519 1.400 . S
C517 N520 1.351 1_565 S
C517 C522 1.501 . S
C518 C519 1.387 . S
C518 N521 1.341 1_565 S
C519 C517 1.400 . S
C519 C518 1.387 . S
N520 Co511 2.022 . S
N520 C517 1.351 1_545 S
N520 N521 1.365 . S
N521 C518 1.341 1_545 S
N521 N520 1.365 . S
N521 H541 0.862 . S
C522 C517 1.501 . S
C522 H523 0.961 . S
C522 H524 0.961 . S
C522 H525 0.960 . S
H523 C522 0.961 . S
H524 C522 0.961 . S
H525 C522 0.960 . S
C526 N527 1.342 . S
C526 C530 1.401 . S
C526 C531 1.499 1_455 S
N527 Co510 1.989 . S
N527 C526 1.342 . S
N527 N528 1.388 . S
N528 Co511 1.993 . S
N528 N527 1.388 . S
N528 C529 1.346 . S
C529 N528 1.346 . S
C529 C530 1.396 . S
C529 C539 1.510 1_545 S
C530 C526 1.401 . S
C530 C529 1.396 . S
C531 C526 1.499 1_655 S
C531 H532 0.959 . S
C531 H533 0.960 . S
C531 H534 0.961 . S
H532 C531 0.959 . S
H533 C531 0.960 . S
H534 C531 0.961 . S
O535 Co510 1.967 . S
O535 C543 1.258 . S
O536 Co511 1.941 . S
O536 C543 1.266 . S
H537 C539 0.959 . S
H538 C539 0.961 . S
C539 C529 1.510 1_565 S
C539 H537 0.959 . S
C539 H538 0.961 . S
C539 H540 0.960 . S
H540 C539 0.960 . S
H541 N521 0.862 . S
O542 Co510 1.920 1_655 S
O542 C515 1.289 . S
C543 O535 1.258 . S
C543 O536 1.266 . S
Co544 O547 1.970 . S
Co544 N561 1.989 . S
Co544 O569 1.967 . S
Co544 O576 1.920 . S
Co545 O548 1.966 . S
Co545 N554 2.022 . S
Co545 N562 1.993 . S
Co545 O570 1.941 . S
C546 O547 1.258 . S
C546 O548 1.263 . S
O547 Co544 1.970 . S
O547 C546 1.258 . S
O548 Co545 1.966 . S
O548 C546 1.263 . S
C549 O550 1.235 . S
C549 O576 1.289 . S
O550 C549 1.235 . S
C551 C553 1.400 . S
C551 N554 1.351 . S
C551 C556 1.501 . S
C552 C553 1.387 . S
C552 N555 1.341 . S
C553 C551 1.400 . S
C553 C552 1.387 . S
N554 Co545 2.022 . S
N554 C551 1.351 . S
N554 N555 1.365 . S
N555 C552 1.341 . S
N555 N554 1.365 . S
N555 H575 0.862 . S
C556 C551 1.501 . S
C556 H557 0.961 . S
C556 H558 0.961 . S
C556 H559 0.960 . S
H557 C556 0.961 . S
H558 C556 0.961 . S
H559 C556 0.960 . S
C560 N561 1.342 . S
C560 C564 1.401 . S
C560 C565 1.499 . S
N561 Co544 1.989 . S
N561 C560 1.342 . S
N561 N562 1.388 . S
N562 Co545 1.993 . S
N562 N561 1.388 . S
N562 C563 1.346 . S
C563 N562 1.346 . S
C563 C564 1.396 . S
C563 C573 1.510 . S
C564 C560 1.401 . S
C564 C563 1.396 . S
C565 C560 1.499 . S
C565 H566 0.959 . S
C565 H567 0.960 . S
C565 H568 0.961 . S
H566 C565 0.959 . S
H567 C565 0.960 . S
H568 C565 0.961 . S
O569 Co544 1.967 . S
O569 C577 1.258 . S
O570 Co545 1.941 . S
O570 C577 1.266 . S
H571 C573 0.959 . S
H572 C573 0.961 . S
C573 C563 1.510 . S
C573 H571 0.959 . S
C573 H572 0.961 . S
C573 H574 0.960 . S
H574 C573 0.960 . S
H575 N555 0.862 . S
O576 Co544 1.920 . S
O576 C549 1.289 . S
C577 O569 1.258 . S
C577 O570 1.266 . S
Co578 O581 1.970 . S
Co578 N595 1.989 . S
Co578 O603 1.967 . S
Co578 O610 1.920 . S
Co579 O582 1.966 . S
Co579 N588 2.022 . S
Co579 N596 1.993 . S
Co579 O604 1.941 . S
C580 O581 1.258 . S
C580 O582 1.263 . S
O581 Co578 1.970 . S
O581 C580 1.258 . S
O582 Co579 1.966 . S
O582 C580 1.263 . S
C583 O584 1.235 . S
C583 O610 1.289 . S
O584 C583 1.235 . S
C585 C587 1.400 . S
C585 N588 1.351 . S
C585 C590 1.501 . S
C586 C587 1.387 . S
C586 N589 1.341 . S
C587 C585 1.400 . S
C587 C586 1.387 . S
N588 Co579 2.022 . S
N588 C585 1.351 . S
N588 N589 1.365 . S
N589 C586 1.341 . S
N589 N588 1.365 . S
N589 H609 0.862 . S
C590 C585 1.501 . S
C590 H591 0.961 . S
C590 H592 0.961 . S
C590 H593 0.960 . S
H591 C590 0.961 . S
H592 C590 0.961 . S
H593 C590 0.960 . S
C594 N595 1.342 . S
C594 C598 1.401 . S
C594 C599 1.499 . S
N595 Co578 1.989 . S
N595 C594 1.342 . S
N595 N596 1.388 . S
N596 Co579 1.993 . S
N596 N595 1.388 . S
N596 C597 1.346 . S
C597 N596 1.346 . S
C597 C598 1.396 . S
C597 C607 1.510 . S
C598 C594 1.401 . S
C598 C597 1.396 . S
C599 C594 1.499 . S
C599 H600 0.959 . S
C599 H601 0.960 . S
C599 H602 0.961 . S
H600 C599 0.959 . S
H601 C599 0.960 . S
H602 C599 0.961 . S
O603 Co578 1.967 . S
O603 C611 1.258 . S
O604 Co579 1.941 . S
O604 C611 1.266 . S
H605 C607 0.959 . S
H606 C607 0.961 . S
C607 C597 1.510 . S
C607 H605 0.959 . S
C607 H606 0.961 . S
C607 H608 0.960 . S
H608 C607 0.960 . S
H609 N589 0.862 . S
O610 Co578 1.920 . S
O610 C583 1.289 . S
C611 O603 1.258 . S
C611 O604 1.266 . S
Co612 O615 1.970 . S
Co612 N629 1.989 . S
Co612 O637 1.967 . S
Co612 O644 1.920 . S
Co613 O616 1.966 . S
Co613 N622 2.022 . S
Co613 N630 1.993 . S
Co613 O638 1.941 . S
C614 O615 1.258 . S
C614 O616 1.263 . S
O615 Co612 1.970 . S
O615 C614 1.258 . S
O616 Co613 1.966 . S
O616 C614 1.263 . S
C617 O618 1.235 . S
C617 O644 1.289 . S
O618 C617 1.235 . S
C619 C621 1.400 . S
C619 N622 1.351 . S
C619 C624 1.501 . S
C620 C621 1.387 . S
C620 N623 1.341 . S
C621 C619 1.400 . S
C621 C620 1.387 . S
N622 Co613 2.022 . S
N622 C619 1.351 . S
N622 N623 1.365 . S
N623 C620 1.341 . S
N623 N622 1.365 . S
N623 H643 0.862 . S
C624 C619 1.501 . S
C624 H625 0.961 . S
C624 H626 0.961 . S
C624 H627 0.960 . S
H625 C624 0.961 . S
H626 C624 0.961 . S
H627 C624 0.960 . S
C628 N629 1.342 . S
C628 C632 1.401 . S
C628 C633 1.499 . S
N629 Co612 1.989 . S
N629 C628 1.342 . S
N629 N630 1.388 . S
N630 Co613 1.993 . S
N630 N629 1.388 . S
N630 C631 1.346 . S
C631 N630 1.346 . S
C631 C632 1.396 . S
C631 C641 1.510 . S
C632 C628 1.401 . S
C632 C631 1.396 . S
C633 C628 1.499 . S
C633 H634 0.959 . S
C633 H635 0.960 . S
C633 H636 0.961 . S
H634 C633 0.959 . S
H635 C633 0.960 . S
H636 C633 0.961 . S
O637 Co612 1.967 . S
O637 C645 1.258 . S
O638 Co613 1.941 . S
O638 C645 1.266 . S
H639 C641 0.959 . S
H640 C641 0.961 . S
C641 C631 1.510 . S
C641 H639 0.959 . S
C641 H640 0.961 . S
C641 H642 0.960 . S
H642 C641 0.960 . S
H643 N623 0.862 . S
O644 Co612 1.920 . S
O644 C617 1.289 . S
C645 O637 1.258 . S
C645 O638 1.266 . S
Co646 O649 1.970 . S
Co646 N663 1.989 . S
Co646 O671 1.967 . S
Co646 O678 1.920 1_455 S
Co647 O650 1.966 . S
Co647 N656 2.022 . S
Co647 N664 1.993 . S
Co647 O672 1.941 . S
C648 O649 1.258 . S
C648 O650 1.263 . S
O649 Co646 1.970 . S
O649 C648 1.258 . S
O650 Co647 1.966 . S
O650 C648 1.263 . S
C651 O652 1.235 . S
C651 O678 1.289 . S
O652 C651 1.235 . S
C653 C655 1.400 . S
C653 N656 1.351 . S
C653 C658 1.501 . S
C654 C655 1.387 . S
C654 N657 1.341 . S
C655 C653 1.400 . S
C655 C654 1.387 . S
N656 Co647 2.022 . S
N656 C653 1.351 . S
N656 N657 1.365 . S
N657 C654 1.341 . S
N657 N656 1.365 . S
N657 H677 0.862 . S
C658 C653 1.501 . S
C658 H659 0.961 . S
C658 H660 0.961 . S
C658 H661 0.960 . S
H659 C658 0.961 . S
H660 C658 0.961 . S
H661 C658 0.960 . S
C662 N663 1.342 . S
C662 C666 1.401 . S
C662 C667 1.499 1_455 S
N663 Co646 1.989 . S
N663 C662 1.342 . S
N663 N664 1.388 . S
N664 Co647 1.993 . S
N664 N663 1.388 . S
N664 C665 1.346 . S
C665 N664 1.346 . S
C665 C666 1.396 . S
C665 C675 1.510 . S
C666 C662 1.401 . S
C666 C665 1.396 . S
C667 C662 1.499 1_655 S
C667 H668 0.959 . S
C667 H669 0.960 . S
C667 H670 0.961 . S
H668 C667 0.959 . S
H669 C667 0.960 . S
H670 C667 0.961 . S
O671 Co646 1.967 . S
O671 C679 1.258 . S
O672 Co647 1.941 . S
O672 C679 1.266 . S
H673 C675 0.959 . S
H674 C675 0.961 . S
C675 C665 1.510 . S
C675 H673 0.959 . S
C675 H674 0.961 . S
C675 H676 0.960 . S
H676 C675 0.960 . S
H677 N657 0.862 . S
O678 Co646 1.920 1_655 S
O678 C651 1.289 . S
C679 O671 1.258 . S
C679 O672 1.266 . S
Co680 O683 1.970 . S
Co680 N697 1.989 . S
Co680 O705 1.967 . S
Co680 O712 1.920 . S
Co681 O684 1.966 . S
Co681 N690 2.022 . S
Co681 N698 1.993 . S
Co681 O706 1.941 . S
C682 O683 1.258 . S
C682 O684 1.263 . S
O683 Co680 1.970 . S
O683 C682 1.258 . S
O684 Co681 1.966 . S
O684 C682 1.263 . S
C685 O686 1.235 . S
C685 O712 1.289 . S
O686 C685 1.235 . S
C687 C689 1.400 . S
C687 N690 1.351 . S
C687 C692 1.501 . S
C688 C689 1.387 . S
C688 N691 1.341 . S
C689 C687 1.400 . S
C689 C688 1.387 . S
N690 Co681 2.022 . S
N690 C687 1.351 . S
N690 N691 1.365 . S
N691 C688 1.341 . S
N691 N690 1.365 . S
N691 H711 0.862 . S
C692 C687 1.501 . S
C692 H693 0.961 . S
C692 H694 0.961 . S
C692 H695 0.960 . S
H693 C692 0.961 . S
H694 C692 0.961 . S
H695 C692 0.960 . S
C696 N697 1.342 . S
C696 C700 1.401 . S
C696 C701 1.499 . S
N697 Co680 1.989 . S
N697 C696 1.342 . S
N697 N698 1.388 . S
N698 Co681 1.993 . S
N698 N697 1.388 . S
N698 C699 1.346 . S
C699 N698 1.346 . S
C699 C700 1.396 . S
C699 C709 1.510 . S
C700 C696 1.401 . S
C700 C699 1.396 . S
C701 C696 1.499 . S
C701 H702 0.959 . S
C701 H703 0.960 . S
C701 H704 0.961 . S
H702 C701 0.959 . S
H703 C701 0.960 . S
H704 C701 0.961 . S
O705 Co680 1.967 . S
O705 C713 1.258 . S
O706 Co681 1.941 . S
O706 C713 1.266 . S
H707 C709 0.959 . S
H708 C709 0.961 . S
C709 C699 1.510 . S
C709 H707 0.959 . S
C709 H708 0.961 . S
C709 H710 0.960 . S
H710 C709 0.960 . S
H711 N691 0.862 . S
O712 Co680 1.920 . S
O712 C685 1.289 . S
C713 O705 1.258 . S
C713 O706 1.266 . S
Co714 O717 1.970 . S
Co714 N731 1.989 . S
Co714 O739 1.967 . S
Co714 O746 1.920 1_455 S
Co715 O718 1.966 . S
Co715 N724 2.022 . S
Co715 N732 1.993 . S
Co715 O740 1.941 . S
C716 O717 1.258 . S
C716 O718 1.263 . S
O717 Co714 1.970 . S
O717 C716 1.258 . S
O718 Co715 1.966 . S
O718 C716 1.263 . S
C719 O720 1.235 . S
C719 O746 1.289 . S
O720 C719 1.235 . S
C721 C723 1.400 . S
C721 N724 1.351 . S
C721 C726 1.501 . S
C722 C723 1.387 . S
C722 N725 1.341 . S
C723 C721 1.400 . S
C723 C722 1.387 . S
N724 Co715 2.022 . S
N724 C721 1.351 . S
N724 N725 1.365 . S
N725 C722 1.341 . S
N725 N724 1.365 . S
N725 H745 0.862 . S
C726 C721 1.501 . S
C726 H727 0.961 . S
C726 H728 0.961 . S
C726 H729 0.960 . S
H727 C726 0.961 . S
H728 C726 0.961 . S
H729 C726 0.960 . S
C730 N731 1.342 . S
C730 C734 1.401 . S
C730 C735 1.499 1_455 S
N731 Co714 1.989 . S
N731 C730 1.342 . S
N731 N732 1.388 . S
N732 Co715 1.993 . S
N732 N731 1.388 . S
N732 C733 1.346 . S
C733 N732 1.346 . S
C733 C734 1.396 . S
C733 C743 1.510 . S
C734 C730 1.401 . S
C734 C733 1.396 . S
C735 C730 1.499 1_655 S
C735 H736 0.959 . S
C735 H737 0.960 . S
C735 H738 0.961 . S
H736 C735 0.959 . S
H737 C735 0.960 . S
H738 C735 0.961 . S
O739 Co714 1.967 . S
O739 C747 1.258 . S
O740 Co715 1.941 . S
O740 C747 1.266 . S
H741 C743 0.959 . S
H742 C743 0.961 . S
C743 C733 1.510 . S
C743 H741 0.959 . S
C743 H742 0.961 . S
C743 H744 0.960 . S
H744 C743 0.960 . S
H745 N725 0.862 . S
O746 Co714 1.920 1_655 S
O746 C719 1.289 . S
C747 O739 1.258 . S
C747 O740 1.266 . S
Co748 O751 1.970 . S
Co748 N765 1.989 . S
Co748 O773 1.967 . S
Co748 O780 1.920 . S
Co749 O752 1.966 . S
Co749 N758 2.022 . S
Co749 N766 1.993 . S
Co749 O774 1.941 . S
C750 O751 1.258 . S
C750 O752 1.263 . S
O751 Co748 1.970 . S
O751 C750 1.258 . S
O752 Co749 1.966 . S
O752 C750 1.263 . S
C753 O754 1.235 . S
C753 O780 1.289 . S
O754 C753 1.235 . S
C755 C757 1.400 . S
C755 N758 1.351 . S
C755 C760 1.501 . S
C756 C757 1.387 . S
C756 N759 1.341 . S
C757 C755 1.400 . S
C757 C756 1.387 . S
N758 Co749 2.022 . S
N758 C755 1.351 . S
N758 N759 1.365 . S
N759 C756 1.341 . S
N759 N758 1.365 . S
N759 H779 0.862 . S
C760 C755 1.501 . S
C760 H761 0.961 . S
C760 H762 0.961 . S
C760 H763 0.960 . S
H761 C760 0.961 . S
H762 C760 0.961 . S
H763 C760 0.960 . S
C764 N765 1.342 . S
C764 C768 1.401 . S
C764 C769 1.499 . S
N765 Co748 1.989 . S
N765 C764 1.342 . S
N765 N766 1.388 . S
N766 Co749 1.993 . S
N766 N765 1.388 . S
N766 C767 1.346 . S
C767 N766 1.346 . S
C767 C768 1.396 . S
C767 C777 1.510 . S
C768 C764 1.401 . S
C768 C767 1.396 . S
C769 C764 1.499 . S
C769 H770 0.959 . S
C769 H771 0.960 . S
C769 H772 0.961 . S
H770 C769 0.959 . S
H771 C769 0.960 . S
H772 C769 0.961 . S
O773 Co748 1.967 . S
O773 C781 1.258 . S
O774 Co749 1.941 . S
O774 C781 1.266 . S
H775 C777 0.959 . S
H776 C777 0.961 . S
C777 C767 1.510 . S
C777 H775 0.959 . S
C777 H776 0.961 . S
C777 H778 0.960 . S
H778 C777 0.960 . S
H779 N759 0.862 . S
O780 Co748 1.920 . S
O780 C753 1.289 . S
C781 O773 1.258 . S
C781 O774 1.266 . S
Co782 O785 1.970 . S
Co782 N799 1.989 . S
Co782 O807 1.967 . S
Co782 O814 1.920 . S
Co783 O786 1.966 . S
Co783 N792 2.022 . S
Co783 N800 1.993 . S
Co783 O808 1.941 . S
C784 O785 1.258 . S
C784 O786 1.263 . S
O785 Co782 1.970 . S
O785 C784 1.258 . S
O786 Co783 1.966 . S
O786 C784 1.263 . S
C787 O788 1.235 . S
C787 O814 1.289 . S
O788 C787 1.235 . S
C789 C791 1.400 . S
C789 N792 1.351 . S
C789 C794 1.501 . S
C790 C791 1.387 . S
C790 N793 1.341 . S
C791 C789 1.400 . S
C791 C790 1.387 . S
N792 Co783 2.022 . S
N792 C789 1.351 . S
N792 N793 1.365 . S
N793 C790 1.341 . S
N793 N792 1.365 . S
N793 H813 0.862 . S
C794 C789 1.501 . S
C794 H795 0.961 . S
C794 H796 0.961 . S
C794 H797 0.960 . S
H795 C794 0.961 . S
H796 C794 0.961 . S
H797 C794 0.960 . S
C798 N799 1.342 . S
C798 C802 1.401 . S
C798 C803 1.499 . S
N799 Co782 1.989 . S
N799 C798 1.342 . S
N799 N800 1.388 . S
N800 Co783 1.993 . S
N800 N799 1.388 . S
N800 C801 1.346 . S
C801 N800 1.346 . S
C801 C802 1.396 . S
C801 C811 1.510 . S
C802 C798 1.401 . S
C802 C801 1.396 . S
C803 C798 1.499 . S
C803 H804 0.959 . S
C803 H805 0.960 . S
C803 H806 0.961 . S
H804 C803 0.959 . S
H805 C803 0.960 . S
H806 C803 0.961 . S
O807 Co782 1.967 . S
O807 C815 1.258 . S
O808 Co783 1.941 . S
O808 C815 1.266 . S
H809 C811 0.959 . S
H810 C811 0.961 . S
C811 C801 1.510 . S
C811 H809 0.959 . S
C811 H810 0.961 . S
C811 H812 0.960 . S
H812 C811 0.960 . S
H813 N793 0.862 . S
O814 Co782 1.920 . S
O814 C787 1.289 . S
C815 O807 1.258 . S
C815 O808 1.266 . S
Co816 O819 1.970 . S
Co816 N833 1.989 . S
Co816 O841 1.967 . S
Co816 O848 1.920 . S
Co817 O820 1.966 . S
Co817 N826 2.022 . S
Co817 N834 1.993 . S
Co817 O842 1.941 . S
C818 O819 1.258 . S
C818 O820 1.263 . S
O819 Co816 1.970 . S
O819 C818 1.258 . S
O820 Co817 1.966 . S
O820 C818 1.263 . S
C821 O822 1.235 . S
C821 O848 1.289 . S
O822 C821 1.235 . S
C823 C825 1.400 . S
C823 N826 1.351 . S
C823 C828 1.501 . S
C824 C825 1.387 . S
C824 N827 1.341 . S
C825 C823 1.400 . S
C825 C824 1.387 . S
N826 Co817 2.022 . S
N826 C823 1.351 . S
N826 N827 1.365 . S
N827 C824 1.341 . S
N827 N826 1.365 . S
N827 H847 0.862 . S
C828 C823 1.501 . S
C828 H829 0.961 . S
C828 H830 0.961 . S
C828 H831 0.960 . S
H829 C828 0.961 . S
H830 C828 0.961 . S
H831 C828 0.960 . S
C832 N833 1.342 . S
C832 C836 1.401 . S
C832 C837 1.499 . S
N833 Co816 1.989 . S
N833 C832 1.342 . S
N833 N834 1.388 . S
N834 Co817 1.993 . S
N834 N833 1.388 . S
N834 C835 1.346 . S
C835 N834 1.346 . S
C835 C836 1.396 . S
C835 C845 1.510 . S
C836 C832 1.401 . S
C836 C835 1.396 . S
C837 C832 1.499 . S
C837 H838 0.959 . S
C837 H839 0.960 . S
C837 H840 0.961 . S
H838 C837 0.959 . S
H839 C837 0.960 . S
H840 C837 0.961 . S
O841 Co816 1.967 . S
O841 C849 1.258 . S
O842 Co817 1.941 . S
O842 C849 1.266 . S
H843 C845 0.959 . S
H844 C845 0.961 . S
C845 C835 1.510 . S
C845 H843 0.959 . S
C845 H844 0.961 . S
C845 H846 0.960 . S
H846 C845 0.960 . S
H847 N827 0.862 . S
O848 Co816 1.920 . S
O848 C821 1.289 . S
C849 O841 1.258 . S
C849 O842 1.266 . S
Co850 O853 1.970 . S
Co850 N867 1.989 . S
Co850 O875 1.967 . S
Co850 O882 1.920 . S
Co851 O854 1.966 . S
Co851 N860 2.022 . S
Co851 N868 1.993 . S
Co851 O876 1.941 . S
C852 O853 1.258 . S
C852 O854 1.263 . S
O853 Co850 1.970 . S
O853 C852 1.258 . S
O854 Co851 1.966 . S
O854 C852 1.263 . S
C855 O856 1.235 . S
C855 O882 1.289 . S
O856 C855 1.235 . S
C857 C859 1.400 . S
C857 N860 1.351 . S
C857 C862 1.501 . S
C858 C859 1.387 . S
C858 N861 1.341 . S
C859 C857 1.400 . S
C859 C858 1.387 . S
N860 Co851 2.022 . S
N860 C857 1.351 . S
N860 N861 1.365 . S
N861 C858 1.341 . S
N861 N860 1.365 . S
N861 H881 0.862 . S
C862 C857 1.501 . S
C862 H863 0.961 . S
C862 H864 0.961 . S
C862 H865 0.960 . S
H863 C862 0.961 . S
H864 C862 0.961 . S
H865 C862 0.960 . S
C866 N867 1.342 . S
C866 C870 1.401 . S
C866 C871 1.499 . S
N867 Co850 1.989 . S
N867 C866 1.342 . S
N867 N868 1.388 . S
N868 Co851 1.993 . S
N868 N867 1.388 . S
N868 C869 1.346 . S
C869 N868 1.346 . S
C869 C870 1.396 . S
C869 C879 1.510 . S
C870 C866 1.401 . S
C870 C869 1.396 . S
C871 C866 1.499 . S
C871 H872 0.959 . S
C871 H873 0.960 . S
C871 H874 0.961 . S
H872 C871 0.959 . S
H873 C871 0.960 . S
H874 C871 0.961 . S
O875 Co850 1.967 . S
O875 C883 1.258 . S
O876 Co851 1.941 . S
O876 C883 1.266 . S
H877 C879 0.959 . S
H878 C879 0.961 . S
C879 C869 1.510 . S
C879 H877 0.959 . S
C879 H878 0.961 . S
C879 H880 0.960 . S
H880 C879 0.960 . S
H881 N861 0.862 . S
O882 Co850 1.920 . S
O882 C855 1.289 . S
C883 O875 1.258 . S
C883 O876 1.266 . S
Co884 O887 1.970 . S
Co884 N901 1.989 . S
Co884 O909 1.967 . S
Co884 O916 1.920 . S
Co885 O888 1.966 . S
Co885 N894 2.022 . S
Co885 N902 1.993 . S
Co885 O910 1.941 . S
C886 O887 1.258 . S
C886 O888 1.263 . S
O887 Co884 1.970 . S
O887 C886 1.258 . S
O888 Co885 1.966 . S
O888 C886 1.263 . S
C889 O890 1.235 . S
C889 O916 1.289 . S
O890 C889 1.235 . S
C891 C893 1.400 . S
C891 N894 1.351 . S
C891 C896 1.501 . S
C892 C893 1.387 . S
C892 N895 1.341 . S
C893 C891 1.400 . S
C893 C892 1.387 . S
N894 Co885 2.022 . S
N894 C891 1.351 . S
N894 N895 1.365 . S
N895 C892 1.341 . S
N895 N894 1.365 . S
N895 H915 0.862 . S
C896 C891 1.501 . S
C896 H897 0.961 . S
C896 H898 0.961 . S
C896 H899 0.960 . S
H897 C896 0.961 . S
H898 C896 0.961 . S
H899 C896 0.960 . S
C900 N901 1.342 . S
C900 C904 1.401 . S
C900 C905 1.499 . S
N901 Co884 1.989 . S
N901 C900 1.342 . S
N901 N902 1.388 . S
N902 Co885 1.993 . S
N902 N901 1.388 . S
N902 C903 1.346 . S
C903 N902 1.346 . S
C903 C904 1.396 . S
C903 C913 1.510 . S
C904 C900 1.401 . S
C904 C903 1.396 . S
C905 C900 1.499 . S
C905 H906 0.959 . S
C905 H907 0.960 . S
C905 H908 0.961 . S
H906 C905 0.959 . S
H907 C905 0.960 . S
H908 C905 0.961 . S
O909 Co884 1.967 . S
O909 C917 1.258 . S
O910 Co885 1.941 . S
O910 C917 1.266 . S
H911 C913 0.959 . S
H912 C913 0.961 . S
C913 C903 1.510 . S
C913 H911 0.959 . S
C913 H912 0.961 . S
C913 H914 0.960 . S
H914 C913 0.960 . S
H915 N895 0.862 . S
O916 Co884 1.920 . S
O916 C889 1.289 . S
C917 O909 1.258 . S
C917 O910 1.266 . S
Co918 O921 1.970 . S
Co918 N935 1.989 . S
Co918 O943 1.967 . S
Co918 O950 1.920 1_655 S
Co919 O922 1.966 . S
Co919 N928 2.022 . S
Co919 N936 1.993 . S
Co919 O944 1.941 . S
C920 O921 1.258 . S
C920 O922 1.263 . S
O921 Co918 1.970 . S
O921 C920 1.258 . S
O922 Co919 1.966 . S
O922 C920 1.263 . S
C923 O924 1.235 . S
C923 O950 1.289 . S
O924 C923 1.235 . S
C925 C927 1.400 . S
C925 N928 1.351 . S
C925 C930 1.501 . S
C926 C927 1.387 . S
C926 N929 1.341 . S
C927 C925 1.400 . S
C927 C926 1.387 . S
N928 Co919 2.022 . S
N928 C925 1.351 . S
N928 N929 1.365 . S
N929 C926 1.341 . S
N929 N928 1.365 . S
N929 H949 0.862 . S
C930 C925 1.501 . S
C930 H931 0.961 . S
C930 H932 0.961 . S
C930 H933 0.960 . S
H931 C930 0.961 . S
H932 C930 0.961 . S
H933 C930 0.960 . S
C934 N935 1.342 . S
C934 C938 1.401 . S
C934 C939 1.499 1_655 S
N935 Co918 1.989 . S
N935 C934 1.342 . S
N935 N936 1.388 . S
N936 Co919 1.993 . S
N936 N935 1.388 . S
N936 C937 1.346 . S
C937 N936 1.346 . S
C937 C938 1.396 . S
C937 C947 1.510 . S
C938 C934 1.401 . S
C938 C937 1.396 . S
C939 C934 1.499 1_455 S
C939 H940 0.959 . S
C939 H941 0.960 . S
C939 H942 0.961 . S
H940 C939 0.959 . S
H941 C939 0.960 . S
H942 C939 0.961 . S
O943 Co918 1.967 . S
O943 C951 1.258 . S
O944 Co919 1.941 . S
O944 C951 1.266 . S
H945 C947 0.959 . S
H946 C947 0.961 . S
C947 C937 1.510 . S
C947 H945 0.959 . S
C947 H946 0.961 . S
C947 H948 0.960 . S
H948 C947 0.960 . S
H949 N929 0.862 . S
O950 Co918 1.920 1_455 S
O950 C923 1.289 . S
C951 O943 1.258 . S
C951 O944 1.266 . S
Co952 O955 1.970 . S
Co952 N969 1.989 . S
Co952 O977 1.967 . S
Co952 O984 1.920 . S
Co953 O956 1.966 . S
Co953 N962 2.022 . S
Co953 N970 1.993 . S
Co953 O978 1.941 . S
C954 O955 1.258 . S
C954 O956 1.263 . S
O955 Co952 1.970 . S
O955 C954 1.258 . S
O956 Co953 1.966 . S
O956 C954 1.263 . S
C957 O958 1.235 . S
C957 O984 1.289 . S
O958 C957 1.235 . S
C959 C961 1.400 . S
C959 N962 1.351 . S
C959 C964 1.501 . S
C960 C961 1.387 . S
C960 N963 1.341 . S
C961 C959 1.400 . S
C961 C960 1.387 . S
N962 Co953 2.022 . S
N962 C959 1.351 . S
N962 N963 1.365 . S
N963 C960 1.341 . S
N963 N962 1.365 . S
N963 H983 0.862 . S
C964 C959 1.501 . S
C964 H965 0.961 . S
C964 H966 0.961 . S
C964 H967 0.960 . S
H965 C964 0.961 . S
H966 C964 0.961 . S
H967 C964 0.960 . S
C968 N969 1.342 . S
C968 C972 1.401 . S
C968 C973 1.499 . S
N969 Co952 1.989 . S
N969 C968 1.342 . S
N969 N970 1.388 . S
N970 Co953 1.993 . S
N970 N969 1.388 . S
N970 C971 1.346 . S
C971 N970 1.346 . S
C971 C972 1.396 . S
C971 C981 1.510 . S
C972 C968 1.401 . S
C972 C971 1.396 . S
C973 C968 1.499 . S
C973 H974 0.959 . S
C973 H975 0.960 . S
C973 H976 0.961 . S
H974 C973 0.959 . S
H975 C973 0.960 . S
H976 C973 0.961 . S
O977 Co952 1.967 . S
O977 C985 1.258 . S
O978 Co953 1.941 . S
O978 C985 1.266 . S
H979 C981 0.959 . S
H980 C981 0.961 . S
C981 C971 1.510 . S
C981 H979 0.959 . S
C981 H980 0.961 . S
C981 H982 0.960 . S
H982 C981 0.960 . S
H983 N963 0.862 . S
O984 Co952 1.920 . S
O984 C957 1.289 . S
C985 O977 1.258 . S
C985 O978 1.266 . S
Co986 O989 1.970 . S
Co986 N1003 1.989 . S
Co986 O1011 1.967 . S
Co986 O1018 1.920 1_655 S
Co987 O990 1.966 . S
Co987 N996 2.022 . S
Co987 N1004 1.993 . S
Co987 O1012 1.941 . S
C988 O989 1.258 . S
C988 O990 1.263 . S
O989 Co986 1.970 . S
O989 C988 1.258 . S
O990 Co987 1.966 . S
O990 C988 1.263 . S
C991 O992 1.235 . S
C991 O1018 1.289 . S
O992 C991 1.235 . S
C993 C995 1.400 . S
C993 N996 1.351 . S
C993 C998 1.501 . S
C994 C995 1.387 . S
C994 N997 1.341 . S
C995 C993 1.400 . S
C995 C994 1.387 . S
N996 Co987 2.022 . S
N996 C993 1.351 . S
N996 N997 1.365 . S
N997 C994 1.341 . S
N997 N996 1.365 . S
N997 H1017 0.862 . S
C998 C993 1.501 . S
C998 H999 0.961 . S
C998 H1000 0.961 . S
C998 H1001 0.960 . S
H999 C998 0.961 . S
H1000 C998 0.961 . S
H1001 C998 0.960 . S
C1002 N1003 1.342 . S
C1002 C1006 1.401 . S
C1002 C1007 1.499 1_655 S
N1003 Co986 1.989 . S
N1003 C1002 1.342 . S
N1003 N1004 1.388 . S
N1004 Co987 1.993 . S
N1004 N1003 1.388 . S
N1004 C1005 1.346 . S
C1005 N1004 1.346 . S
C1005 C1006 1.396 . S
C1005 C1015 1.510 . S
C1006 C1002 1.401 . S
C1006 C1005 1.396 . S
C1007 C1002 1.499 1_455 S
C1007 H1008 0.959 . S
C1007 H1009 0.960 . S
C1007 H1010 0.961 . S
H1008 C1007 0.959 . S
H1009 C1007 0.960 . S
H1010 C1007 0.961 . S
O1011 Co986 1.967 . S
O1011 C1019 1.258 . S
O1012 Co987 1.941 . S
O1012 C1019 1.266 . S
H1013 C1015 0.959 . S
H1014 C1015 0.961 . S
C1015 C1005 1.510 . S
C1015 H1013 0.959 . S
C1015 H1014 0.961 . S
C1015 H1016 0.960 . S
H1016 C1015 0.960 . S
H1017 N997 0.862 . S
O1018 Co986 1.920 1_455 S
O1018 C991 1.289 . S
C1019 O1011 1.258 . S
C1019 O1012 1.266 . S
Co1020 O1023 1.970 . S
Co1020 N1037 1.989 . S
Co1020 O1045 1.967 . S
Co1020 O1052 1.920 . S
Co1021 O1024 1.966 . S
Co1021 N1030 2.022 . S
Co1021 N1038 1.993 . S
Co1021 O1046 1.941 . S
C1022 O1023 1.258 . S
C1022 O1024 1.263 . S
O1023 Co1020 1.970 . S
O1023 C1022 1.258 . S
O1024 Co1021 1.966 . S
O1024 C1022 1.263 . S
C1025 O1026 1.235 . S
C1025 O1052 1.289 . S
O1026 C1025 1.235 . S
C1027 C1029 1.400 . S
C1027 N1030 1.351 . S
C1027 C1032 1.501 . S
C1028 C1029 1.387 . S
C1028 N1031 1.341 . S
C1029 C1027 1.400 . S
C1029 C1028 1.387 . S
N1030 Co1021 2.022 . S
N1030 C1027 1.351 . S
N1030 N1031 1.365 . S
N1031 C1028 1.341 . S
N1031 N1030 1.365 . S
N1031 H1051 0.862 . S
C1032 C1027 1.501 . S
C1032 H1033 0.961 . S
C1032 H1034 0.961 . S
C1032 H1035 0.960 . S
H1033 C1032 0.961 . S
H1034 C1032 0.961 . S
H1035 C1032 0.960 . S
C1036 N1037 1.342 . S
C1036 C1040 1.401 . S
C1036 C1041 1.499 . S
N1037 Co1020 1.989 . S
N1037 C1036 1.342 . S
N1037 N1038 1.388 . S
N1038 Co1021 1.993 . S
N1038 N1037 1.388 . S
N1038 C1039 1.346 . S
C1039 N1038 1.346 . S
C1039 C1040 1.396 . S
C1039 C1049 1.510 . S
C1040 C1036 1.401 . S
C1040 C1039 1.396 . S
C1041 C1036 1.499 . S
C1041 H1042 0.959 . S
C1041 H1043 0.960 . S
C1041 H1044 0.961 . S
H1042 C1041 0.959 . S
H1043 C1041 0.960 . S
H1044 C1041 0.961 . S
O1045 Co1020 1.967 . S
O1045 C1053 1.258 . S
O1046 Co1021 1.941 . S
O1046 C1053 1.266 . S
H1047 C1049 0.959 . S
H1048 C1049 0.961 . S
C1049 C1039 1.510 . S
C1049 H1047 0.959 . S
C1049 H1048 0.961 . S
C1049 H1050 0.960 . S
H1050 C1049 0.960 . S
H1051 N1031 0.862 . S
O1052 Co1020 1.920 . S
O1052 C1025 1.289 . S
C1053 O1045 1.258 . S
C1053 O1046 1.266 . S
Co1054 O1057 1.970 . S
Co1054 N1071 1.989 . S
Co1054 O1079 1.967 . S
Co1054 O1086 1.920 . S
Co1055 O1058 1.966 . S
Co1055 N1064 2.022 . S
Co1055 N1072 1.993 . S
Co1055 O1080 1.941 . S
C1056 O1057 1.258 . S
C1056 O1058 1.263 . S
O1057 Co1054 1.970 . S
O1057 C1056 1.258 . S
O1058 Co1055 1.966 . S
O1058 C1056 1.263 . S
C1059 O1060 1.235 . S
C1059 O1086 1.289 . S
O1060 C1059 1.235 . S
C1061 C1063 1.400 . S
C1061 N1064 1.351 . S
C1061 C1066 1.501 . S
C1062 C1063 1.387 . S
C1062 N1065 1.341 . S
C1063 C1061 1.400 . S
C1063 C1062 1.387 . S
N1064 Co1055 2.022 . S
N1064 C1061 1.351 . S
N1064 N1065 1.365 . S
N1065 C1062 1.341 . S
N1065 N1064 1.365 . S
N1065 H1085 0.862 . S
C1066 C1061 1.501 . S
C1066 H1067 0.961 . S
C1066 H1068 0.961 . S
C1066 H1069 0.960 . S
H1067 C1066 0.961 . S
H1068 C1066 0.961 . S
H1069 C1066 0.960 . S
C1070 N1071 1.342 . S
C1070 C1074 1.401 . S
C1070 C1075 1.499 . S
N1071 Co1054 1.989 . S
N1071 C1070 1.342 . S
N1071 N1072 1.388 . S
N1072 Co1055 1.993 . S
N1072 N1071 1.388 . S
N1072 C1073 1.346 . S
C1073 N1072 1.346 . S
C1073 C1074 1.396 . S
C1073 C1083 1.510 . S
C1074 C1070 1.401 . S
C1074 C1073 1.396 . S
C1075 C1070 1.499 . S
C1075 H1076 0.959 . S
C1075 H1077 0.960 . S
C1075 H1078 0.961 . S
H1076 C1075 0.959 . S
H1077 C1075 0.960 . S
H1078 C1075 0.961 . S
O1079 Co1054 1.967 . S
O1079 C1087 1.258 . S
O1080 Co1055 1.941 . S
O1080 C1087 1.266 . S
H1081 C1083 0.959 . S
H1082 C1083 0.961 . S
C1083 C1073 1.510 . S
C1083 H1081 0.959 . S
C1083 H1082 0.961 . S
C1083 H1084 0.960 . S
H1084 C1083 0.960 . S
H1085 N1065 0.862 . S
O1086 Co1054 1.920 . S
O1086 C1059 1.289 . S
C1087 O1079 1.258 . S
C1087 O1080 1.266 . S
H1088 C1100 0.930 . S
H1089 C1102 0.930 . S
H1090 C1103 0.930 . S
H1091 C1107 0.959 . S
H1092 C1107 0.959 . S
H1093 C1107 0.961 . S
H1094 C1108 0.960 . S
H1095 C1108 0.961 . S
H1096 C1108 0.959 . S
H1097 C1111 0.929 . S
H1098 C1112 0.931 . S
H1099 C1114 0.930 . S
C1100 H1088 0.930 . S
C1100 C1101 1.399 . S
C1100 C1105 1.399 . S
C1101 C1100 1.399 . S
C1101 C1102 1.376 . S
C1102 H1089 0.930 . S
C1102 C1101 1.376 . S
C1102 C1103 1.388 . S
C1103 H1090 0.930 . S
C1103 C1102 1.388 . S
C1103 C1104 1.390 . S
C1104 C1103 1.390 . S
C1104 C1105 1.394 . S
C1104 C1110 1.465 . S
C1105 C1100 1.399 . S
C1105 C1104 1.394 . S
C1105 C1106 1.516 . S
C1106 C1105 1.516 . S
C1106 C1107 1.502 . S
C1106 C1108 1.561 . S
C1106 C1109 1.526 . S
C1107 H1091 0.959 . S
C1107 H1092 0.959 . S
C1107 H1093 0.961 . S
C1107 C1106 1.502 . S
C1108 H1094 0.960 . S
C1108 H1095 0.961 . S
C1108 H1096 0.959 . S
C1108 C1106 1.561 . S
C1109 C1106 1.526 . S
C1109 C1110 1.396 . S
C1109 C1114 1.390 . S
C1110 C1104 1.465 . S
C1110 C1109 1.396 . S
C1110 C1111 1.399 . S
C1111 H1097 0.929 . S
C1111 C1110 1.399 . S
C1111 C1112 1.385 . S
C1112 H1098 0.931 . S
C1112 C1111 1.385 . S
C1112 C1113 1.389 . S
C1113 C1112 1.389 . S
C1113 C1114 1.387 . S
C1114 H1099 0.930 . S
C1114 C1109 1.390 . S
C1114 C1113 1.387 . S
H1115 C1127 0.930 1_655 S
H1116 C1129 0.930 . S
H1117 C1130 0.930 . S
H1118 C1134 0.959 . S
H1119 C1134 0.959 . S
H1120 C1134 0.961 . S
H1121 C1135 0.960 . S
H1122 C1135 0.961 . S
H1123 C1135 0.959 . S
H1124 C1138 0.929 . S
H1125 C1139 0.930 1_455 S
H1126 C1141 0.930 . S
C1127 H1115 0.930 1_455 S
C1127 C1128 1.399 1_545 S
C1127 C1132 1.399 . S
C1128 C1127 1.399 1_565 S
C1128 C1129 1.376 . S
C1129 H1116 0.930 . S
C1129 C1128 1.376 . S
C1129 C1130 1.388 . S
C1130 H1117 0.930 . S
C1130 C1129 1.388 . S
C1130 C1131 1.390 . S
C1131 C1130 1.390 . S
C1131 C1132 1.394 1_565 S
C1131 C1137 1.465 . S
C1132 C1127 1.399 . S
C1132 C1131 1.394 1_545 S
C1132 C1133 1.516 1_455 S
C1133 C1132 1.516 1_655 S
C1133 C1134 1.502 . S
C1133 C1135 1.561 1_655 S
C1133 C1136 1.526 . S
C1134 H1118 0.959 . S
C1134 H1119 0.959 . S
C1134 H1120 0.961 . S
C1134 C1133 1.502 . S
C1135 H1121 0.960 . S
C1135 H1122 0.961 . S
C1135 H1123 0.959 . S
C1135 C1133 1.561 1_455 S
C1136 C1133 1.526 . S
C1136 C1137 1.396 1_645 S
C1136 C1141 1.390 . S
C1137 C1131 1.465 . S
C1137 C1136 1.396 1_465 S
C1137 C1138 1.399 . S
C1138 H1124 0.929 . S
C1138 C1137 1.399 . S
C1138 C1139 1.383 1_455 S
C1139 H1125 0.930 1_655 S
C1139 C1138 1.383 1_655 S
C1139 C1140 1.392 1_565 S
C1140 C1139 1.392 1_545 S
C1140 C1141 1.387 . S
C1141 H1126 0.930 . S
C1141 C1136 1.390 . S
C1141 C1140 1.387 . S
H1142 C1154 0.930 . S
H1143 C1156 0.930 . S
H1144 C1157 0.930 . S
H1145 C1161 0.959 . S
H1146 C1161 0.959 . S
H1147 C1161 0.961 . S
H1148 C1162 0.960 . S
H1149 C1162 0.961 . S
H1150 C1162 0.959 . S
H1151 C1165 0.929 . S
H1152 C1166 0.931 . S
H1153 C1168 0.930 . S
C1154 H1142 0.930 . S
C1154 C1155 1.399 . S
C1154 C1159 1.399 . S
C1155 C1154 1.399 . S
C1155 C1156 1.376 . S
C1156 H1143 0.930 . S
C1156 C1155 1.376 . S
C1156 C1157 1.388 . S
C1157 H1144 0.930 . S
C1157 C1156 1.388 . S
C1157 C1158 1.390 . S
C1158 C1157 1.390 . S
C1158 C1159 1.394 . S
C1158 C1164 1.465 . S
C1159 C1154 1.399 . S
C1159 C1158 1.394 . S
C1159 C1160 1.516 . S
C1160 C1159 1.516 . S
C1160 C1161 1.502 . S
C1160 C1162 1.561 . S
C1160 C1163 1.526 . S
C1161 H1145 0.959 . S
C1161 H1146 0.959 . S
C1161 H1147 0.961 . S
C1161 C1160 1.502 . S
C1162 H1148 0.960 . S
C1162 H1149 0.961 . S
C1162 H1150 0.959 . S
C1162 C1160 1.561 . S
C1163 C1160 1.526 . S
C1163 C1164 1.396 . S
C1163 C1168 1.390 . S
C1164 C1158 1.465 . S
C1164 C1163 1.396 . S
C1164 C1165 1.399 . S
C1165 H1151 0.929 . S
C1165 C1164 1.399 . S
C1165 C1166 1.385 . S
C1166 H1152 0.931 . S
C1166 C1165 1.385 . S
C1166 C1167 1.389 . S
C1167 C1166 1.389 . S
C1167 C1168 1.387 . S
C1168 H1153 0.930 . S
C1168 C1163 1.390 . S
C1168 C1167 1.387 . S
H1169 C1181 0.930 . S
H1170 C1183 0.930 . S
H1171 C1184 0.930 . S
H1172 C1188 0.959 . S
H1173 C1188 0.959 . S
H1174 C1188 0.961 . S
H1175 C1189 0.960 . S
H1176 C1189 0.961 1_556 S
H1177 C1189 0.959 . S
H1178 C1192 0.929 . S
H1179 C1193 0.931 . S
H1180 C1195 0.930 . S
C1181 H1169 0.930 . S
C1181 C1182 1.399 1_565 S
C1181 C1186 1.399 . S
C1182 C1181 1.399 1_545 S
C1182 C1183 1.376 . S
C1183 H1170 0.930 . S
C1183 C1182 1.376 . S
C1183 C1184 1.388 . S
C1184 H1171 0.930 . S
C1184 C1183 1.388 . S
C1184 C1185 1.390 . S
C1185 C1184 1.390 . S
C1185 C1186 1.394 1_545 S
C1185 C1191 1.465 1_554 S
C1186 C1181 1.399 . S
C1186 C1185 1.394 1_565 S
C1186 C1187 1.516 . S
C1187 C1186 1.516 . S
C1187 C1188 1.502 . S
C1187 C1189 1.561 . S
C1187 C1190 1.526 1_554 S
C1188 H1172 0.959 . S
C1188 H1173 0.959 . S
C1188 H1174 0.961 . S
C1188 C1187 1.502 . S
C1189 H1175 0.960 . S
C1189 H1176 0.961 1_554 S
C1189 H1177 0.959 . S
C1189 C1187 1.561 . S
C1190 C1187 1.526 1_556 S
C1190 C1191 1.396 1_565 S
C1190 C1195 1.390 . S
C1191 C1185 1.465 1_556 S
C1191 C1190 1.396 1_545 S
C1191 C1192 1.399 . S
C1192 H1178 0.929 . S
C1192 C1191 1.399 . S
C1192 C1193 1.385 . S
C1193 H1179 0.931 . S
C1193 C1192 1.385 . S
C1193 C1194 1.389 1_545 S
C1194 C1193 1.389 1_565 S
C1194 C1195 1.387 . S
C1195 H1180 0.930 . S
C1195 C1190 1.390 . S
C1195 C1194 1.387 . S
H1196 C1208 0.930 . S
H1197 C1210 0.930 . S
H1198 C1211 0.930 . S
H1199 C1215 0.959 . S
H1200 C1215 0.959 . S
H1201 C1215 0.961 . S
H1202 C1216 0.960 . S
H1203 C1216 0.961 . S
H1204 C1216 0.959 . S
H1205 C1219 0.929 . S
H1206 C1220 0.931 . S
H1207 C1222 0.930 . S
C1208 H1196 0.930 . S
C1208 C1209 1.399 . S
C1208 C1213 1.399 . S
C1209 C1208 1.399 . S
C1209 C1210 1.376 . S
C1210 H1197 0.930 . S
C1210 C1209 1.376 . S
C1210 C1211 1.388 . S
C1211 H1198 0.930 . S
C1211 C1210 1.388 . S
C1211 C1212 1.390 . S
C1212 C1211 1.390 . S
C1212 C1213 1.394 . S
C1212 C1218 1.465 . S
C1213 C1208 1.399 . S
C1213 C1212 1.394 . S
C1213 C1214 1.516 . S
C1214 C1213 1.516 . S
C1214 C1215 1.502 . S
C1214 C1216 1.561 . S
C1214 C1217 1.526 . S
C1215 H1199 0.959 . S
C1215 H1200 0.959 . S
C1215 H1201 0.961 . S
C1215 C1214 1.502 . S
C1216 H1202 0.960 . S
C1216 H1203 0.961 . S
C1216 H1204 0.959 . S
C1216 C1214 1.561 . S
C1217 C1214 1.526 . S
C1217 C1218 1.396 . S
C1217 C1222 1.390 . S
C1218 C1212 1.465 . S
C1218 C1217 1.396 . S
C1218 C1219 1.399 . S
C1219 H1205 0.929 . S
C1219 C1218 1.399 . S
C1219 C1220 1.385 . S
C1220 H1206 0.931 . S
C1220 C1219 1.385 . S
C1220 C1221 1.389 . S
C1221 C1220 1.389 . S
C1221 C1222 1.387 . S
C1222 H1207 0.930 . S
C1222 C1217 1.390 . S
C1222 C1221 1.387 . S
H1223 C1235 0.930 . S
H1224 C1237 0.930 . S
H1225 C1238 0.930 . S
H1226 C1242 0.959 . S
H1227 C1242 0.959 . S
H1228 C1242 0.961 . S
H1229 C1243 0.960 . S
H1230 C1243 0.961 . S
H1231 C1243 0.959 . S
H1232 C1246 0.929 . S
H1233 C1247 0.931 . S
H1234 C1249 0.930 . S
C1235 H1223 0.930 . S
C1235 C1236 1.399 . S
C1235 C1240 1.399 . S
C1236 C1235 1.399 . S
C1236 C1237 1.376 1_565 S
C1237 H1224 0.930 . S
C1237 C1236 1.376 1_545 S
C1237 C1238 1.388 . S
C1238 H1225 0.930 . S
C1238 C1237 1.388 . S
C1238 C1239 1.390 . S
C1239 C1238 1.390 . S
C1239 C1240 1.394 1_545 S
C1239 C1245 1.465 . S
C1240 C1235 1.399 . S
C1240 C1239 1.394 1_565 S
C1240 C1241 1.516 . S
C1241 C1240 1.516 . S
C1241 C1242 1.502 . S
C1241 C1243 1.561 . S
C1241 C1244 1.526 . S
C1242 H1226 0.959 . S
C1242 H1227 0.959 . S
C1242 H1228 0.961 . S
C1242 C1241 1.502 . S
C1243 H1229 0.960 . S
C1243 H1230 0.961 . S
C1243 H1231 0.959 . S
C1243 C1241 1.561 . S
C1244 C1241 1.526 . S
C1244 C1245 1.396 1_565 S
C1244 C1249 1.390 . S
C1245 C1239 1.465 . S
C1245 C1244 1.396 1_545 S
C1245 C1246 1.399 . S
C1246 H1232 0.929 . S
C1246 C1245 1.399 . S
C1246 C1247 1.385 . S
C1247 H1233 0.931 . S
C1247 C1246 1.385 . S
C1247 C1248 1.389 . S
C1248 C1247 1.389 . S
C1248 C1249 1.387 1_545 S
C1249 H1234 0.930 . S
C1249 C1244 1.390 . S
C1249 C1248 1.387 1_565 S
H1250 C1262 0.930 . S
H1251 C1264 0.930 . S
H1252 C1265 0.930 . S
H1253 C1269 0.959 . S
H1254 C1269 0.959 . S
H1255 C1269 0.961 . S
H1256 C1270 0.960 . S
H1257 C1270 0.961 . S
H1258 C1270 0.959 . S
H1259 C1273 0.929 . S
H1260 C1274 0.931 . S
H1261 C1276 0.930 . S
C1262 H1250 0.930 . S
C1262 C1263 1.399 . S
C1262 C1267 1.399 . S
C1263 C1262 1.399 . S
C1263 C1264 1.376 . S
C1264 H1251 0.930 . S
C1264 C1263 1.376 . S
C1264 C1265 1.388 . S
C1265 H1252 0.930 . S
C1265 C1264 1.388 . S
C1265 C1266 1.390 . S
C1266 C1265 1.390 . S
C1266 C1267 1.394 . S
C1266 C1272 1.465 . S
C1267 C1262 1.399 . S
C1267 C1266 1.394 . S
C1267 C1268 1.516 . S
C1268 C1267 1.516 . S
C1268 C1269 1.502 . S
C1268 C1270 1.561 . S
C1268 C1271 1.526 . S
C1269 H1253 0.959 . S
C1269 H1254 0.959 . S
C1269 H1255 0.961 . S
C1269 C1268 1.502 . S
C1270 H1256 0.960 . S
C1270 H1257 0.961 . S
C1270 H1258 0.959 . S
C1270 C1268 1.561 . S
C1271 C1268 1.526 . S
C1271 C1272 1.396 . S
C1271 C1276 1.390 . S
C1272 C1266 1.465 . S
C1272 C1271 1.396 . S
C1272 C1273 1.399 . S
C1273 H1259 0.929 . S
C1273 C1272 1.399 . S
C1273 C1274 1.385 . S
C1274 H1260 0.931 . S
C1274 C1273 1.385 . S
C1274 C1275 1.389 . S
C1275 C1274 1.389 . S
C1275 C1276 1.387 . S
C1276 H1261 0.930 . S
C1276 C1271 1.390 . S
C1276 C1275 1.387 . S
H1277 C1289 0.930 . S
H1278 C1291 0.930 . S
H1279 C1292 0.930 . S
H1280 C1296 0.959 . S
H1281 C1296 0.959 . S
H1282 C1296 0.961 . S
H1283 C1297 0.960 1_556 S
H1284 C1297 0.961 . S
H1285 C1297 0.959 . S
H1286 C1300 0.929 . S
H1287 C1301 0.931 . S
H1288 C1303 0.930 . S
C1289 H1277 0.930 . S
C1289 C1290 1.399 . S
C1289 C1294 1.399 . S
C1290 C1289 1.399 . S
C1290 C1291 1.376 1_545 S
C1291 H1278 0.930 . S
C1291 C1290 1.376 1_565 S
C1291 C1292 1.388 1_455 S
C1292 H1279 0.930 . S
C1292 C1291 1.388 1_655 S
C1292 C1293 1.390 . S
C1293 C1292 1.390 . S
C1293 C1294 1.394 1_665 S
C1293 C1299 1.465 1_556 S
C1294 C1289 1.399 . S
C1294 C1293 1.394 1_445 S
C1294 C1295 1.516 1_556 S
C1295 C1294 1.516 1_554 S
C1295 C1296 1.502 . S
C1295 C1297 1.561 1_455 S
C1295 C1298 1.526 1_455 S
C1296 H1280 0.959 . S
C1296 H1281 0.959 . S
C1296 H1282 0.961 . S
C1296 C1295 1.502 . S
C1297 H1283 0.960 1_554 S
C1297 H1284 0.961 . S
C1297 H1285 0.959 . S
C1297 C1295 1.561 1_655 S
C1298 C1295 1.526 1_655 S
C1298 C1299 1.396 1_545 S
C1298 C1303 1.390 . S
C1299 C1293 1.465 1_554 S
C1299 C1298 1.396 1_565 S
C1299 C1300 1.399 . S
C1300 H1286 0.929 . S
C1300 C1299 1.399 . S
C1300 C1301 1.385 . S
C1301 H1287 0.931 . S
C1301 C1300 1.385 . S
C1301 C1302 1.389 . S
C1302 C1301 1.389 . S
C1302 C1303 1.387 1_565 S
C1303 H1288 0.930 . S
C1303 C1298 1.390 . S
C1303 C1302 1.387 1_545 S
H1304 C1316 0.930 . S
H1305 C1318 0.930 . S
H1306 C1319 0.930 . S
H1307 C1323 0.959 . S
H1308 C1323 0.959 . S
H1309 C1323 0.961 . S
H1310 C1324 0.960 . S
H1311 C1324 0.961 . S
H1312 C1324 0.959 . S
H1313 C1327 0.929 . S
H1314 C1328 0.931 . S
H1315 C1330 0.930 . S
C1316 H1304 0.930 . S
C1316 C1317 1.399 . S
C1316 C1321 1.399 . S
C1317 C1316 1.399 . S
C1317 C1318 1.376 . S
C1318 H1305 0.930 . S
C1318 C1317 1.376 . S
C1318 C1319 1.388 . S
C1319 H1306 0.930 . S
C1319 C1318 1.388 . S
C1319 C1320 1.390 . S
C1320 C1319 1.390 . S
C1320 C1321 1.394 . S
C1320 C1326 1.465 . S
C1321 C1316 1.399 . S
C1321 C1320 1.394 . S
C1321 C1322 1.516 . S
C1322 C1321 1.516 . S
C1322 C1323 1.502 . S
C1322 C1324 1.561 . S
C1322 C1325 1.526 . S
C1323 H1307 0.959 . S
C1323 H1308 0.959 . S
C1323 H1309 0.961 . S
C1323 C1322 1.502 . S
C1324 H1310 0.960 . S
C1324 H1311 0.961 . S
C1324 H1312 0.959 . S
C1324 C1322 1.561 . S
C1325 C1322 1.526 . S
C1325 C1326 1.396 . S
C1325 C1330 1.390 . S
C1326 C1320 1.465 . S
C1326 C1325 1.396 . S
C1326 C1327 1.399 . S
C1327 H1313 0.929 . S
C1327 C1326 1.399 . S
C1327 C1328 1.385 . S
C1328 H1314 0.931 . S
C1328 C1327 1.385 . S
C1328 C1329 1.389 . S
C1329 C1328 1.389 . S
C1329 C1330 1.387 . S
C1330 H1315 0.930 . S
C1330 C1325 1.390 . S
C1330 C1329 1.387 . S
H1331 C1343 0.930 . S
H1332 C1345 0.930 . S
H1333 C1346 0.930 . S
H1334 C1350 0.959 . S
H1335 C1350 0.959 . S
H1336 C1350 0.961 . S
H1337 C1351 0.960 . S
H1338 C1351 0.961 . S
H1339 C1351 0.959 . S
H1340 C1354 0.929 . S
H1341 C1355 0.931 . S
H1342 C1357 0.930 . S
C1343 H1331 0.930 . S
C1343 C1344 1.399 . S
C1343 C1348 1.399 . S
C1344 C1343 1.399 . S
C1344 C1345 1.376 . S
C1345 H1332 0.930 . S
C1345 C1344 1.376 . S
C1345 C1346 1.388 . S
C1346 H1333 0.930 . S
C1346 C1345 1.388 . S
C1346 C1347 1.390 . S
C1347 C1346 1.390 . S
C1347 C1348 1.394 . S
C1347 C1353 1.465 . S
C1348 C1343 1.399 . S
C1348 C1347 1.394 . S
C1348 C1349 1.516 . S
C1349 C1348 1.516 . S
C1349 C1350 1.502 . S
C1349 C1351 1.561 . S
C1349 C1352 1.526 . S
C1350 H1334 0.959 . S
C1350 H1335 0.959 . S
C1350 H1336 0.961 . S
C1350 C1349 1.502 . S
C1351 H1337 0.960 . S
C1351 H1338 0.961 . S
C1351 H1339 0.959 . S
C1351 C1349 1.561 . S
C1352 C1349 1.526 . S
C1352 C1353 1.396 . S
C1352 C1357 1.390 . S
C1353 C1347 1.465 . S
C1353 C1352 1.396 . S
C1353 C1354 1.399 . S
C1354 H1340 0.929 . S
C1354 C1353 1.399 . S
C1354 C1355 1.385 . S
C1355 H1341 0.931 . S
C1355 C1354 1.385 . S
C1355 C1356 1.389 . S
C1356 C1355 1.389 . S
C1356 C1357 1.387 . S
C1357 H1342 0.930 . S
C1357 C1352 1.390 . S
C1357 C1356 1.387 . S
H1358 C1370 0.930 . S
H1359 C1372 0.930 . S
H1360 C1373 0.930 . S
H1361 C1377 0.959 . S
H1362 C1377 0.959 . S
H1363 C1377 0.961 . S
H1364 C1378 0.960 . S
H1365 C1378 0.961 . S
H1366 C1378 0.959 . S
H1367 C1381 0.929 . S
H1368 C1382 0.931 . S
H1369 C1384 0.930 . S
C1370 H1358 0.930 . S
C1370 C1371 1.399 . S
C1370 C1375 1.399 . S
C1371 C1370 1.399 . S
C1371 C1372 1.376 . S
C1372 H1359 0.930 . S
C1372 C1371 1.376 . S
C1372 C1373 1.388 . S
C1373 H1360 0.930 . S
C1373 C1372 1.388 . S
C1373 C1374 1.390 . S
C1374 C1373 1.390 . S
C1374 C1375 1.394 . S
C1374 C1380 1.465 . S
C1375 C1370 1.399 . S
C1375 C1374 1.394 . S
C1375 C1376 1.516 . S
C1376 C1375 1.516 . S
C1376 C1377 1.502 . S
C1376 C1378 1.561 . S
C1376 C1379 1.526 . S
C1377 H1361 0.959 . S
C1377 H1362 0.959 . S
C1377 H1363 0.961 . S
C1377 C1376 1.502 . S
C1378 H1364 0.960 . S
C1378 H1365 0.961 . S
C1378 H1366 0.959 . S
C1378 C1376 1.561 . S
C1379 C1376 1.526 . S
C1379 C1380 1.396 . S
C1379 C1384 1.390 . S
C1380 C1374 1.465 . S
C1380 C1379 1.396 . S
C1380 C1381 1.399 . S
C1381 H1367 0.929 . S
C1381 C1380 1.399 . S
C1381 C1382 1.385 . S
C1382 H1368 0.931 . S
C1382 C1381 1.385 . S
C1382 C1383 1.389 . S
C1383 C1382 1.389 . S
C1383 C1384 1.387 . S
C1384 H1369 0.930 . S
C1384 C1379 1.390 . S
C1384 C1383 1.387 . S
H1385 C1397 0.930 . S
H1386 C1399 0.930 . S
H1387 C1400 0.930 . S
H1388 C1404 0.959 . S
H1389 C1404 0.959 . S
H1390 C1404 0.961 . S
H1391 C1405 0.960 . S
H1392 C1405 0.961 . S
H1393 C1405 0.959 . S
H1394 C1408 0.929 . S
H1395 C1409 0.931 . S
H1396 C1411 0.930 . S
C1397 H1385 0.930 . S
C1397 C1398 1.399 . S
C1397 C1402 1.399 . S
C1398 C1397 1.399 . S
C1398 C1399 1.376 . S
C1399 H1386 0.930 . S
C1399 C1398 1.376 . S
C1399 C1400 1.388 . S
C1400 H1387 0.930 . S
C1400 C1399 1.388 . S
C1400 C1401 1.390 . S
C1401 C1400 1.390 . S
C1401 C1402 1.394 . S
C1401 C1407 1.465 . S
C1402 C1397 1.399 . S
C1402 C1401 1.394 . S
C1402 C1403 1.516 . S
C1403 C1402 1.516 . S
C1403 C1404 1.502 . S
C1403 C1405 1.561 . S
C1403 C1406 1.526 . S
C1404 H1388 0.959 . S
C1404 H1389 0.959 . S
C1404 H1390 0.961 . S
C1404 C1403 1.502 . S
C1405 H1391 0.960 . S
C1405 H1392 0.961 . S
C1405 H1393 0.959 . S
C1405 C1403 1.561 . S
C1406 C1403 1.526 . S
C1406 C1407 1.396 . S
C1406 C1411 1.390 . S
C1407 C1401 1.465 . S
C1407 C1406 1.396 . S
C1407 C1408 1.399 . S
C1408 H1394 0.929 . S
C1408 C1407 1.399 . S
C1408 C1409 1.385 . S
C1409 H1395 0.931 . S
C1409 C1408 1.385 . S
C1409 C1410 1.389 . S
C1410 C1409 1.389 . S
C1410 C1411 1.387 . S
C1411 H1396 0.930 . S
C1411 C1406 1.390 . S
C1411 C1410 1.387 . S
H1412 C1424 0.930 . S
H1413 C1426 0.930 . S
H1414 C1427 0.930 . S
H1415 C1431 0.959 . S
H1416 C1431 0.959 . S
H1417 C1431 0.961 . S
H1418 C1432 0.960 . S
H1419 C1432 0.961 . S
H1420 C1432 0.959 . S
H1421 C1435 0.929 . S
H1422 C1436 0.931 . S
H1423 C1438 0.930 . S
C1424 H1412 0.930 . S
C1424 C1425 1.399 . S
C1424 C1429 1.399 . S
C1425 C1424 1.399 . S
C1425 C1426 1.376 . S
C1426 H1413 0.930 . S
C1426 C1425 1.376 . S
C1426 C1427 1.388 . S
C1427 H1414 0.930 . S
C1427 C1426 1.388 . S
C1427 C1428 1.390 . S
C1428 C1427 1.390 . S
C1428 C1429 1.394 . S
C1428 C1434 1.465 1_556 S
C1429 C1424 1.399 . S
C1429 C1428 1.394 . S
C1429 C1430 1.516 . S
C1430 C1429 1.516 . S
C1430 C1431 1.502 . S
C1430 C1432 1.561 . S
C1430 C1433 1.526 1_556 S
C1431 H1415 0.959 . S
C1431 H1416 0.959 . S
C1431 H1417 0.961 . S
C1431 C1430 1.502 . S
C1432 H1418 0.960 . S
C1432 H1419 0.961 . S
C1432 H1420 0.959 . S
C1432 C1430 1.561 . S
C1433 C1430 1.526 1_554 S
C1433 C1434 1.396 . S
C1433 C1438 1.390 . S
C1434 C1428 1.465 1_554 S
C1434 C1433 1.396 . S
C1434 C1435 1.399 . S
C1435 H1421 0.929 . S
C1435 C1434 1.399 . S
C1435 C1436 1.385 . S
C1436 H1422 0.931 . S
C1436 C1435 1.385 . S
C1436 C1437 1.389 . S
C1437 C1436 1.389 . S
C1437 C1438 1.387 . S
C1438 H1423 0.930 . S
C1438 C1433 1.390 . S
C1438 C1437 1.387 . S
H1439 C1451 0.910 1_455 S
H1440 C1453 0.930 . S
H1441 C1454 0.930 . S
H1442 C1458 0.959 . S
H1443 C1458 0.959 . S
H1444 C1458 0.961 . S
H1445 C1459 0.960 . S
H1446 C1459 0.961 . S
H1447 C1459 0.959 1_655 S
H1448 C1462 0.929 . S
H1449 C1463 0.931 . S
H1450 C1465 0.930 . S
C1451 H1439 0.910 1_655 S
C1451 C1452 1.423 . S
C1451 C1456 1.397 1_655 S
C1452 C1451 1.423 . S
C1452 C1453 1.376 . S
C1453 H1440 0.930 . S
C1453 C1452 1.376 . S
C1453 C1454 1.388 . S
C1454 H1441 0.930 . S
C1454 C1453 1.388 . S
C1454 C1455 1.390 . S
C1455 C1454 1.390 . S
C1455 C1456 1.378 1_655 S
C1455 C1461 1.465 . S
C1456 C1451 1.397 1_455 S
C1456 C1455 1.378 1_455 S
C1456 C1457 1.532 . S
C1457 C1456 1.532 . S
C1457 C1458 1.502 . S
C1457 C1459 1.561 . S
C1457 C1460 1.526 . S
C1458 H1442 0.959 . S
C1458 H1443 0.959 . S
C1458 H1444 0.961 . S
C1458 C1457 1.502 . S
C1459 H1445 0.960 . S
C1459 H1446 0.961 . S
C1459 H1447 0.959 1_455 S
C1459 C1457 1.561 . S
C1460 C1457 1.526 . S
C1460 C1461 1.396 1_455 S
C1460 C1465 1.390 . S
C1461 C1455 1.465 . S
C1461 C1460 1.396 1_655 S
C1461 C1462 1.399 . S
C1462 H1448 0.929 . S
C1462 C1461 1.399 . S
C1462 C1463 1.385 . S
C1463 H1449 0.931 . S
C1463 C1462 1.385 . S
C1463 C1464 1.389 1_655 S
C1464 C1463 1.389 1_455 S
C1464 C1465 1.387 . S
C1465 H1450 0.930 . S
C1465 C1460 1.390 . S
C1465 C1464 1.387 . S
H1466 C1478 0.930 . S
H1467 C1480 0.930 . S
H1468 C1481 0.930 . S
H1469 C1485 0.959 . S
H1470 C1485 0.959 1_556 S
H1471 C1485 0.961 . S
H1472 C1486 0.960 1_554 S
H1473 C1486 0.961 . S
H1474 C1486 0.973 . S
H1475 C1489 0.929 . S
H1476 C1490 0.931 . S
H1477 C1492 0.930 . S
C1478 H1466 0.930 . S
C1478 C1479 1.399 1_655 S
C1478 C1483 1.399 . S
C1479 C1478 1.399 1_455 S
C1479 C1480 1.376 . S
C1480 H1467 0.930 . S
C1480 C1479 1.376 . S
C1480 C1481 1.388 . S
C1481 H1468 0.930 . S
C1481 C1480 1.388 . S
C1481 C1482 1.390 . S
C1482 C1481 1.390 . S
C1482 C1483 1.394 1_455 S
C1482 C1488 1.465 1_554 S
C1483 C1478 1.399 . S
C1483 C1482 1.394 1_655 S
C1483 C1484 1.518 . S
C1484 C1483 1.518 . S
C1484 C1485 1.502 . S
C1484 C1486 1.561 1_554 S
C1484 C1487 1.524 1_554 S
C1485 H1469 0.959 . S
C1485 H1470 0.959 1_554 S
C1485 H1471 0.961 . S
C1485 C1484 1.502 . S
C1486 H1472 0.960 1_556 S
C1486 H1473 0.961 . S
C1486 H1474 0.973 . S
C1486 C1484 1.561 1_556 S
C1487 C1484 1.524 1_556 S
C1487 C1488 1.396 1_655 S
C1487 C1492 1.390 . S
C1488 C1482 1.465 1_556 S
C1488 C1487 1.396 1_455 S
C1488 C1489 1.399 . S
C1489 H1475 0.929 . S
C1489 C1488 1.399 . S
C1489 C1490 1.385 . S
C1490 H1476 0.931 . S
C1490 C1489 1.385 . S
C1490 C1491 1.389 1_455 S
C1491 C1490 1.389 1_655 S
C1491 C1492 1.387 . S
C1492 H1477 0.930 . S
C1492 C1487 1.390 . S
C1492 C1491 1.387 . S
H1493 C1505 0.930 . S
H1494 C1507 0.930 . S
H1495 C1508 0.930 . S
H1496 C1512 0.959 . S
H1497 C1512 0.959 . S
H1498 C1512 0.961 . S
H1499 C1513 0.960 . S
H1500 C1513 0.961 . S
H1501 C1513 0.959 . S
H1502 C1516 0.929 . S
H1503 C1517 0.931 . S
H1504 C1519 0.930 . S
C1505 H1493 0.930 . S
C1505 C1506 1.399 . S
C1505 C1510 1.399 . S
C1506 C1505 1.399 . S
C1506 C1507 1.376 . S
C1507 H1494 0.930 . S
C1507 C1506 1.376 . S
C1507 C1508 1.388 . S
C1508 H1495 0.930 . S
C1508 C1507 1.388 . S
C1508 C1509 1.390 . S
C1509 C1508 1.390 . S
C1509 C1510 1.394 . S
C1509 C1515 1.465 . S
C1510 C1505 1.399 . S
C1510 C1509 1.394 . S
C1510 C1511 1.516 . S
C1511 C1510 1.516 . S
C1511 C1512 1.502 . S
C1511 C1513 1.561 . S
C1511 C1514 1.526 . S
C1512 H1496 0.959 . S
C1512 H1497 0.959 . S
C1512 H1498 0.961 . S
C1512 C1511 1.502 . S
C1513 H1499 0.960 . S
C1513 H1500 0.961 . S
C1513 H1501 0.959 . S
C1513 C1511 1.561 . S
C1514 C1511 1.526 . S
C1514 C1515 1.396 . S
C1514 C1519 1.390 . S
C1515 C1509 1.465 . S
C1515 C1514 1.396 . S
C1515 C1516 1.399 . S
C1516 H1502 0.929 . S
C1516 C1515 1.399 . S
C1516 C1517 1.385 . S
C1517 H1503 0.931 . S
C1517 C1516 1.385 . S
C1517 C1518 1.389 . S
C1518 C1517 1.389 . S
C1518 C1519 1.387 . S
C1519 H1504 0.930 . S
C1519 C1514 1.390 . S
C1519 C1518 1.387 . S
H1520 C1532 0.930 . S
H1521 C1534 0.930 . S
H1522 C1535 0.930 . S
H1523 C1539 0.959 . S
H1524 C1539 0.959 . S
H1525 C1539 0.961 . S
H1526 C1540 0.960 . S
H1527 C1540 0.961 . S
H1528 C1540 0.959 . S
H1529 C1543 0.929 . S
H1530 C1544 0.931 . S
H1531 C1546 0.930 . S
C1532 H1520 0.930 . S
C1532 C1533 1.399 . S
C1532 C1537 1.399 . S
C1533 C1532 1.399 . S
C1533 C1534 1.376 . S
C1534 H1521 0.930 . S
C1534 C1533 1.376 . S
C1534 C1535 1.388 . S
C1535 H1522 0.930 . S
C1535 C1534 1.388 . S
C1535 C1536 1.390 . S
C1536 C1535 1.390 . S
C1536 C1537 1.394 . S
C1536 C1542 1.465 . S
C1537 C1532 1.399 . S
C1537 C1536 1.394 . S
C1537 C1538 1.516 . S
C1538 C1537 1.516 . S
C1538 C1539 1.502 . S
C1538 C1540 1.561 . S
C1538 C1541 1.526 . S
C1539 H1523 0.959 . S
C1539 H1524 0.959 . S
C1539 H1525 0.961 . S
C1539 C1538 1.502 . S
C1540 H1526 0.960 . S
C1540 H1527 0.961 . S
C1540 H1528 0.959 . S
C1540 C1538 1.561 . S
C1541 C1538 1.526 . S
C1541 C1542 1.396 . S
C1541 C1546 1.390 . S
C1542 C1536 1.465 . S
C1542 C1541 1.396 . S
C1542 C1543 1.399 . S
C1543 H1529 0.929 . S
C1543 C1542 1.399 . S
C1543 C1544 1.385 . S
C1544 H1530 0.931 . S
C1544 C1543 1.385 . S
C1544 C1545 1.389 . S
C1545 C1544 1.389 . S
C1545 C1546 1.387 . S
C1546 H1531 0.930 . S
C1546 C1541 1.390 . S
C1546 C1545 1.387 . S
H1547 C1559 0.930 . S
H1548 C1561 0.930 . S
H1549 C1562 0.930 . S
H1550 C1566 0.959 . S
H1551 C1566 0.959 . S
H1552 C1566 0.961 . S
H1553 C1567 0.960 . S
H1554 C1567 0.961 . S
H1555 C1567 0.959 . S
H1556 C1570 0.929 . S
H1557 C1571 0.931 . S
H1558 C1573 0.930 . S
C1559 H1547 0.930 . S
C1559 C1560 1.399 . S
C1559 C1564 1.399 . S
C1560 C1559 1.399 . S
C1560 C1561 1.376 . S
C1561 H1548 0.930 . S
C1561 C1560 1.376 . S
C1561 C1562 1.388 . S
C1562 H1549 0.930 . S
C1562 C1561 1.388 . S
C1562 C1563 1.390 . S
C1563 C1562 1.390 . S
C1563 C1564 1.394 . S
C1563 C1569 1.465 . S
C1564 C1559 1.399 . S
C1564 C1563 1.394 . S
C1564 C1565 1.516 . S
C1565 C1564 1.516 . S
C1565 C1566 1.502 . S
C1565 C1567 1.561 . S
C1565 C1568 1.526 . S
C1566 H1550 0.959 . S
C1566 H1551 0.959 . S
C1566 H1552 0.961 . S
C1566 C1565 1.502 . S
C1567 H1553 0.960 . S
C1567 H1554 0.961 . S
C1567 H1555 0.959 . S
C1567 C1565 1.561 . S
C1568 C1565 1.526 . S
C1568 C1569 1.396 . S
C1568 C1573 1.390 . S
C1569 C1563 1.465 . S
C1569 C1568 1.396 . S
C1569 C1570 1.399 . S
C1570 H1556 0.929 . S
C1570 C1569 1.399 . S
C1570 C1571 1.385 . S
C1571 H1557 0.931 . S
C1571 C1570 1.385 . S
C1571 C1572 1.389 . S
C1572 C1571 1.389 . S
C1572 C1573 1.387 . S
C1573 H1558 0.930 . S
C1573 C1568 1.390 . S
C1573 C1572 1.387 . S
H1574 C1586 0.930 . S
H1575 C1588 0.930 . S
H1576 C1589 0.930 . S
H1577 C1593 0.959 . S
H1578 C1593 0.959 . S
H1579 C1593 0.961 . S
H1580 C1594 0.960 . S
H1581 C1594 0.961 . S
H1582 C1594 0.959 . S
H1583 C1597 0.929 . S
H1584 C1598 0.931 . S
H1585 C1600 0.930 . S
C1586 H1574 0.930 . S
C1586 C1587 1.399 . S
C1586 C1591 1.399 . S
C1587 C1586 1.399 . S
C1587 C1588 1.376 . S
C1588 H1575 0.930 . S
C1588 C1587 1.376 . S
C1588 C1589 1.388 . S
C1589 H1576 0.930 . S
C1589 C1588 1.388 . S
C1589 C1590 1.390 . S
C1590 C1589 1.390 . S
C1590 C1591 1.394 . S
C1590 C1596 1.465 . S
C1591 C1586 1.399 . S
C1591 C1590 1.394 . S
C1591 C1592 1.516 . S
C1592 C1591 1.516 . S
C1592 C1593 1.502 . S
C1592 C1594 1.561 . S
C1592 C1595 1.526 . S
C1593 H1577 0.959 . S
C1593 H1578 0.959 . S
C1593 H1579 0.961 . S
C1593 C1592 1.502 . S
C1594 H1580 0.960 . S
C1594 H1581 0.961 . S
C1594 H1582 0.959 . S
C1594 C1592 1.561 . S
C1595 C1592 1.526 . S
C1595 C1596 1.396 . S
C1595 C1600 1.390 . S
C1596 C1590 1.465 . S
C1596 C1595 1.396 . S
C1596 C1597 1.399 . S
C1597 H1583 0.929 . S
C1597 C1596 1.399 . S
C1597 C1598 1.385 . S
C1598 H1584 0.931 . S
C1598 C1597 1.385 . S
C1598 C1599 1.389 . S
C1599 C1598 1.389 . S
C1599 C1600 1.387 . S
C1600 H1585 0.930 . S
C1600 C1595 1.390 . S
C1600 C1599 1.387 . S
H1601 C1613 0.930 . S
H1602 C1615 0.930 . S
H1603 C1616 0.930 . S
H1604 C1620 0.959 . S
H1605 C1620 0.959 . S
H1606 C1620 0.961 . S
H1607 C1621 0.960 . S
H1608 C1621 0.961 . S
H1609 C1621 0.959 . S
H1610 C1624 0.929 . S
H1611 C1625 0.931 . S
H1612 C1627 0.930 . S
C1613 H1601 0.930 . S
C1613 C1614 1.399 . S
C1613 C1618 1.399 . S
C1614 C1613 1.399 . S
C1614 C1615 1.376 . S
C1615 H1602 0.930 . S
C1615 C1614 1.376 . S
C1615 C1616 1.388 . S
C1616 H1603 0.930 . S
C1616 C1615 1.388 . S
C1616 C1617 1.390 . S
C1617 C1616 1.390 . S
C1617 C1618 1.394 . S
C1617 C1623 1.465 . S
C1618 C1613 1.399 . S
C1618 C1617 1.394 . S
C1618 C1619 1.516 . S
C1619 C1618 1.516 . S
C1619 C1620 1.502 . S
C1619 C1621 1.561 . S
C1619 C1622 1.526 . S
C1620 H1604 0.959 . S
C1620 H1605 0.959 . S
C1620 H1606 0.961 . S
C1620 C1619 1.502 . S
C1621 H1607 0.960 . S
C1621 H1608 0.961 . S
C1621 H1609 0.959 . S
C1621 C1619 1.561 . S
C1622 C1619 1.526 . S
C1622 C1623 1.396 . S
C1622 C1627 1.390 . S
C1623 C1617 1.465 . S
C1623 C1622 1.396 . S
C1623 C1624 1.399 . S
C1624 H1610 0.929 . S
C1624 C1623 1.399 . S
C1624 C1625 1.385 . S
C1625 H1611 0.931 . S
C1625 C1624 1.385 . S
C1625 C1626 1.389 . S
C1626 C1625 1.389 . S
C1626 C1627 1.387 . S
C1627 H1612 0.930 . S
C1627 C1622 1.390 . S
C1627 C1626 1.387 . S
H1628 C1640 0.930 . S
H1629 C1642 0.930 . S
H1630 C1643 0.930 . S
H1631 C1647 0.959 . S
H1632 C1647 0.959 . S
H1633 C1647 0.961 . S
H1634 C1648 0.960 . S
H1635 C1648 0.961 . S
H1636 C1648 0.959 . S
H1637 C1651 0.929 . S
H1638 C1652 0.931 . S
H1639 C1654 0.930 . S
C1640 H1628 0.930 . S
C1640 C1641 1.399 . S
C1640 C1645 1.399 . S
C1641 C1640 1.399 . S
C1641 C1642 1.376 . S
C1642 H1629 0.930 . S
C1642 C1641 1.376 . S
C1642 C1643 1.388 . S
C1643 H1630 0.930 . S
C1643 C1642 1.388 . S
C1643 C1644 1.390 . S
C1644 C1643 1.390 . S
C1644 C1645 1.394 . S
C1644 C1650 1.465 . S
C1645 C1640 1.399 . S
C1645 C1644 1.394 . S
C1645 C1646 1.516 . S
C1646 C1645 1.516 . S
C1646 C1647 1.502 . S
C1646 C1648 1.561 . S
C1646 C1649 1.526 . S
C1647 H1631 0.959 . S
C1647 H1632 0.959 . S
C1647 H1633 0.961 . S
C1647 C1646 1.502 . S
C1648 H1634 0.960 . S
C1648 H1635 0.961 . S
C1648 H1636 0.959 . S
C1648 C1646 1.561 . S
C1649 C1646 1.526 . S
C1649 C1650 1.396 . S
C1649 C1654 1.390 . S
C1650 C1644 1.465 . S
C1650 C1649 1.396 . S
C1650 C1651 1.399 . S
C1651 H1637 0.929 . S
C1651 C1650 1.399 . S
C1651 C1652 1.385 . S
C1652 H1638 0.931 . S
C1652 C1651 1.385 . S
C1652 C1653 1.389 . S
C1653 C1652 1.389 . S
C1653 C1654 1.387 . S
C1654 H1639 0.930 . S
C1654 C1649 1.390 . S
C1654 C1653 1.387 . S
H1655 C1667 0.930 . S
H1656 C1669 0.930 . S
H1657 C1670 0.930 . S
H1658 C1674 0.959 . S
H1659 C1674 0.959 . S
H1660 C1674 0.961 . S
H1661 C1675 0.960 . S
H1662 C1675 0.961 . S
H1663 C1675 0.959 . S
H1664 C1678 0.929 . S
H1665 C1679 0.931 . S
H1666 C1681 0.930 . S
C1667 H1655 0.930 . S
C1667 C1668 1.399 . S
C1667 C1672 1.399 . S
C1668 C1667 1.399 . S
C1668 C1669 1.376 . S
C1669 H1656 0.930 . S
C1669 C1668 1.376 . S
C1669 C1670 1.388 . S
C1670 H1657 0.930 . S
C1670 C1669 1.388 . S
C1670 C1671 1.390 . S
C1671 C1670 1.390 . S
C1671 C1672 1.394 . S
C1671 C1677 1.465 . S
C1672 C1667 1.399 . S
C1672 C1671 1.394 . S
C1672 C1673 1.516 . S
C1673 C1672 1.516 . S
C1673 C1674 1.502 . S
C1673 C1675 1.561 . S
C1673 C1676 1.526 . S
C1674 H1658 0.959 . S
C1674 H1659 0.959 . S
C1674 H1660 0.961 . S
C1674 C1673 1.502 . S
C1675 H1661 0.960 . S
C1675 H1662 0.961 . S
C1675 H1663 0.959 . S
C1675 C1673 1.561 . S
C1676 C1673 1.526 . S
C1676 C1677 1.396 . S
C1676 C1681 1.390 . S
C1677 C1671 1.465 . S
C1677 C1676 1.396 . S
C1677 C1678 1.399 . S
C1678 H1664 0.929 . S
C1678 C1677 1.399 . S
C1678 C1679 1.385 . S
C1679 H1665 0.931 . S
C1679 C1678 1.385 . S
C1679 C1680 1.389 . S
C1680 C1679 1.389 . S
C1680 C1681 1.387 . S
C1681 H1666 0.930 . S
C1681 C1676 1.390 . S
C1681 C1680 1.387 . S
H1682 C1694 0.930 . S
H1683 C1696 0.930 . S
H1684 C1697 0.930 . S
H1685 C1701 0.959 . S
H1686 C1701 0.959 . S
H1687 C1701 0.961 . S
H1688 C1702 0.960 . S
H1689 C1702 0.961 . S
H1690 C1702 0.959 . S
H1691 C1705 0.929 . S
H1692 C1706 0.931 . S
H1693 C1708 0.930 . S
C1694 H1682 0.930 . S
C1694 C1695 1.399 . S
C1694 C1699 1.399 . S
C1695 C1694 1.399 . S
C1695 C1696 1.376 . S
C1696 H1683 0.930 . S
C1696 C1695 1.376 . S
C1696 C1697 1.388 . S
C1697 H1684 0.930 . S
C1697 C1696 1.388 . S
C1697 C1698 1.390 . S
C1698 C1697 1.390 . S
C1698 C1699 1.394 . S
C1698 C1704 1.465 . S
C1699 C1694 1.399 . S
C1699 C1698 1.394 . S
C1699 C1700 1.516 . S
C1700 C1699 1.516 . S
C1700 C1701 1.502 . S
C1700 C1702 1.561 . S
C1700 C1703 1.526 . S
C1701 H1685 0.959 . S
C1701 H1686 0.959 . S
C1701 H1687 0.961 . S
C1701 C1700 1.502 . S
C1702 H1688 0.960 . S
C1702 H1689 0.961 . S
C1702 H1690 0.959 . S
C1702 C1700 1.561 . S
C1703 C1700 1.526 . S
C1703 C1704 1.396 . S
C1703 C1708 1.390 . S
C1704 C1698 1.465 . S
C1704 C1703 1.396 . S
C1704 C1705 1.399 . S
C1705 H1691 0.929 . S
C1705 C1704 1.399 . S
C1705 C1706 1.385 . S
C1706 H1692 0.931 . S
C1706 C1705 1.385 . S
C1706 C1707 1.389 . S
C1707 C1706 1.389 . S
C1707 C1708 1.387 . S
C1708 H1693 0.930 . S
C1708 C1703 1.390 . S
C1708 C1707 1.387 . S
H1709 C1721 0.930 . S
H1710 C1723 0.930 . S
H1711 C1724 0.930 . S
H1712 C1728 0.959 . S
H1713 C1728 0.959 . S
H1714 C1728 0.961 . S
H1715 C1729 0.960 . S
H1716 C1729 0.961 . S
H1717 C1729 0.959 . S
H1718 C1732 0.929 . S
H1719 C1733 0.931 . S
H1720 C1735 0.930 . S
C1721 H1709 0.930 . S
C1721 C1722 1.399 . S
C1721 C1726 1.399 . S
C1722 C1721 1.399 . S
C1722 C1723 1.376 . S
C1723 H1710 0.930 . S
C1723 C1722 1.376 . S
C1723 C1724 1.388 . S
C1724 H1711 0.930 . S
C1724 C1723 1.388 . S
C1724 C1725 1.390 . S
C1725 C1724 1.390 . S
C1725 C1726 1.394 . S
C1725 C1731 1.465 . S
C1726 C1721 1.399 . S
C1726 C1725 1.394 . S
C1726 C1727 1.516 . S
C1727 C1726 1.516 . S
C1727 C1728 1.502 . S
C1727 C1729 1.561 . S
C1727 C1730 1.526 . S
C1728 H1712 0.959 . S
C1728 H1713 0.959 . S
C1728 H1714 0.961 . S
C1728 C1727 1.502 . S
C1729 H1715 0.960 . S
C1729 H1716 0.961 . S
C1729 H1717 0.959 . S
C1729 C1727 1.561 . S
C1730 C1727 1.526 . S
C1730 C1731 1.396 . S
C1730 C1735 1.390 . S
C1731 C1725 1.465 . S
C1731 C1730 1.396 . S
C1731 C1732 1.399 . S
C1732 H1718 0.929 . S
C1732 C1731 1.399 . S
C1732 C1733 1.385 . S
C1733 H1719 0.931 . S
C1733 C1732 1.385 . S
C1733 C1734 1.389 . S
C1734 C1733 1.389 . S
C1734 C1735 1.387 . S
C1735 H1720 0.930 . S
C1735 C1730 1.390 . S
C1735 C1734 1.387 . S
H1736 C1748 0.930 . S
H1737 C1750 0.930 . S
H1738 C1751 0.930 . S
H1739 C1755 0.959 . S
H1740 C1755 0.959 . S
H1741 C1755 0.961 . S
H1742 C1756 0.960 . S
H1743 C1756 0.961 . S
H1744 C1756 0.959 . S
H1745 C1759 0.929 . S
H1746 C1760 0.931 . S
H1747 C1762 0.930 . S
C1748 H1736 0.930 . S
C1748 C1749 1.399 . S
C1748 C1753 1.399 . S
C1749 C1748 1.399 . S
C1749 C1750 1.376 . S
C1750 H1737 0.930 . S
C1750 C1749 1.376 . S
C1750 C1751 1.388 . S
C1751 H1738 0.930 . S
C1751 C1750 1.388 . S
C1751 C1752 1.390 . S
C1752 C1751 1.390 . S
C1752 C1753 1.394 . S
C1752 C1758 1.465 . S
C1753 C1748 1.399 . S
C1753 C1752 1.394 . S
C1753 C1754 1.516 . S
C1754 C1753 1.516 . S
C1754 C1755 1.502 . S
C1754 C1756 1.561 . S
C1754 C1757 1.526 . S
C1755 H1739 0.959 . S
C1755 H1740 0.959 . S
C1755 H1741 0.961 . S
C1755 C1754 1.502 . S
C1756 H1742 0.960 . S
C1756 H1743 0.961 . S
C1756 H1744 0.959 . S
C1756 C1754 1.561 . S
C1757 C1754 1.526 . S
C1757 C1758 1.396 . S
C1757 C1762 1.390 . S
C1758 C1752 1.465 . S
C1758 C1757 1.396 . S
C1758 C1759 1.399 . S
C1759 H1745 0.929 . S
C1759 C1758 1.399 . S
C1759 C1760 1.385 . S
C1760 H1746 0.931 . S
C1760 C1759 1.385 . S
C1760 C1761 1.389 . S
C1761 C1760 1.389 . S
C1761 C1762 1.387 . S
C1762 H1747 0.930 . S
C1762 C1757 1.390 . S
C1762 C1761 1.387 . S
H1763 C1775 0.930 . S
H1764 C1777 0.930 . S
H1765 C1778 0.930 . S
H1766 C1782 0.959 . S
H1767 C1782 0.959 . S
H1768 C1782 0.961 . S
H1769 C1783 0.960 . S
H1770 C1783 0.961 . S
H1771 C1783 0.959 . S
H1772 C1786 0.929 . S
H1773 C1787 0.931 . S
H1774 C1789 0.930 . S
C1775 H1763 0.930 . S
C1775 C1776 1.399 . S
C1775 C1780 1.399 . S
C1776 C1775 1.399 . S
C1776 C1777 1.376 . S
C1777 H1764 0.930 . S
C1777 C1776 1.376 . S
C1777 C1778 1.388 . S
C1778 H1765 0.930 . S
C1778 C1777 1.388 . S
C1778 C1779 1.390 . S
C1779 C1778 1.390 . S
C1779 C1780 1.394 . S
C1779 C1785 1.465 . S
C1780 C1775 1.399 . S
C1780 C1779 1.394 . S
C1780 C1781 1.516 . S
C1781 C1780 1.516 . S
C1781 C1782 1.502 . S
C1781 C1783 1.561 . S
C1781 C1784 1.526 . S
C1782 H1766 0.959 . S
C1782 H1767 0.959 . S
C1782 H1768 0.961 . S
C1782 C1781 1.502 . S
C1783 H1769 0.960 . S
C1783 H1770 0.961 . S
C1783 H1771 0.959 . S
C1783 C1781 1.561 . S
C1784 C1781 1.526 . S
C1784 C1785 1.396 . S
C1784 C1789 1.390 . S
C1785 C1779 1.465 . S
C1785 C1784 1.396 . S
C1785 C1786 1.399 . S
C1786 H1772 0.929 . S
C1786 C1785 1.399 . S
C1786 C1787 1.385 . S
C1787 H1773 0.931 . S
C1787 C1786 1.385 . S
C1787 C1788 1.389 . S
C1788 C1787 1.389 . S
C1788 C1789 1.387 . S
C1789 H1774 0.930 . S
C1789 C1784 1.390 . S
C1789 C1788 1.387 . S
H1790 C1802 0.930 . S
H1791 C1804 0.930 . S
H1792 C1805 0.930 . S
H1793 C1809 0.959 . S
H1794 C1809 0.959 . S
H1795 C1809 0.961 . S
H1796 C1810 0.960 . S
H1797 C1810 0.961 . S
H1798 C1810 0.959 . S
H1799 C1813 0.929 . S
H1800 C1814 0.931 . S
H1801 C1816 0.930 . S
C1802 H1790 0.930 . S
C1802 C1803 1.399 . S
C1802 C1807 1.399 . S
C1803 C1802 1.399 . S
C1803 C1804 1.376 . S
C1804 H1791 0.930 . S
C1804 C1803 1.376 . S
C1804 C1805 1.388 . S
C1805 H1792 0.930 . S
C1805 C1804 1.388 . S
C1805 C1806 1.390 . S
C1806 C1805 1.390 . S
C1806 C1807 1.394 . S
C1806 C1812 1.465 . S
C1807 C1802 1.399 . S
C1807 C1806 1.394 . S
C1807 C1808 1.516 . S
C1808 C1807 1.516 . S
C1808 C1809 1.502 . S
C1808 C1810 1.561 . S
C1808 C1811 1.526 . S
C1809 H1793 0.959 . S
C1809 H1794 0.959 . S
C1809 H1795 0.961 . S
C1809 C1808 1.502 . S
C1810 H1796 0.960 . S
C1810 H1797 0.961 . S
C1810 H1798 0.959 . S
C1810 C1808 1.561 . S
C1811 C1808 1.526 . S
C1811 C1812 1.396 . S
C1811 C1816 1.390 . S
C1812 C1806 1.465 . S
C1812 C1811 1.396 . S
C1812 C1813 1.399 . S
C1813 H1799 0.929 . S
C1813 C1812 1.399 . S
C1813 C1814 1.385 . S
C1814 H1800 0.931 . S
C1814 C1813 1.385 . S
C1814 C1815 1.389 . S
C1815 C1814 1.389 . S
C1815 C1816 1.387 . S
C1816 H1801 0.930 . S
C1816 C1811 1.390 . S
C1816 C1815 1.387 . S
H1817 C1829 0.930 . S
H1818 C1831 0.930 . S
H1819 C1832 0.930 . S
H1820 C1836 0.959 . S
H1821 C1836 0.959 . S
H1822 C1836 0.961 . S
H1823 C1837 0.960 . S
H1824 C1837 0.961 . S
H1825 C1837 0.959 . S
H1826 C1840 0.929 . S
H1827 C1841 0.931 . S
H1828 C1843 0.930 . S
C1829 H1817 0.930 . S
C1829 C1830 1.399 . S
C1829 C1834 1.399 . S
C1830 C1829 1.399 . S
C1830 C1831 1.376 . S
C1831 H1818 0.930 . S
C1831 C1830 1.376 . S
C1831 C1832 1.388 . S
C1832 H1819 0.930 . S
C1832 C1831 1.388 . S
C1832 C1833 1.390 . S
C1833 C1832 1.390 . S
C1833 C1834 1.394 . S
C1833 C1839 1.465 . S
C1834 C1829 1.399 . S
C1834 C1833 1.394 . S
C1834 C1835 1.516 . S
C1835 C1834 1.516 . S
C1835 C1836 1.502 . S
C1835 C1837 1.561 . S
C1835 C1838 1.526 . S
C1836 H1820 0.959 . S
C1836 H1821 0.959 . S
C1836 H1822 0.961 . S
C1836 C1835 1.502 . S
C1837 H1823 0.960 . S
C1837 H1824 0.961 . S
C1837 H1825 0.959 . S
C1837 C1835 1.561 . S
C1838 C1835 1.526 . S
C1838 C1839 1.396 . S
C1838 C1843 1.390 . S
C1839 C1833 1.465 . S
C1839 C1838 1.396 . S
C1839 C1840 1.399 . S
C1840 H1826 0.929 . S
C1840 C1839 1.399 . S
C1840 C1841 1.385 . S
C1841 H1827 0.931 . S
C1841 C1840 1.385 . S
C1841 C1842 1.389 . S
C1842 C1841 1.389 . S
C1842 C1843 1.387 . S
C1843 H1828 0.930 . S
C1843 C1838 1.390 . S
C1843 C1842 1.387 . S
H1844 C1856 0.930 . S
H1845 C1858 0.930 . S
H1846 C1859 0.930 . S
H1847 C1863 0.959 . S
H1848 C1863 0.959 . S
H1849 C1863 0.961 . S
H1850 C1864 0.960 . S
H1851 C1864 0.961 . S
H1852 C1864 0.959 . S
H1853 C1867 0.929 . S
H1854 C1868 0.931 . S
H1855 C1870 0.930 . S
C1856 H1844 0.930 . S
C1856 C1857 1.399 . S
C1856 C1861 1.399 . S
C1857 C1856 1.399 . S
C1857 C1858 1.376 . S
C1858 H1845 0.930 . S
C1858 C1857 1.376 . S
C1858 C1859 1.388 . S
C1859 H1846 0.930 . S
C1859 C1858 1.388 . S
C1859 C1860 1.390 . S
C1860 C1859 1.390 . S
C1860 C1861 1.394 . S
C1860 C1866 1.465 . S
C1861 C1856 1.399 . S
C1861 C1860 1.394 . S
C1861 C1862 1.516 . S
C1862 C1861 1.516 . S
C1862 C1863 1.502 . S
C1862 C1864 1.561 . S
C1862 C1865 1.526 . S
C1863 H1847 0.959 . S
C1863 H1848 0.959 . S
C1863 H1849 0.961 . S
C1863 C1862 1.502 . S
C1864 H1850 0.960 . S
C1864 H1851 0.961 . S
C1864 H1852 0.959 . S
C1864 C1862 1.561 . S
C1865 C1862 1.526 . S
C1865 C1866 1.396 . S
C1865 C1870 1.390 . S
C1866 C1860 1.465 . S
C1866 C1865 1.396 . S
C1866 C1867 1.399 . S
C1867 H1853 0.929 . S
C1867 C1866 1.399 . S
C1867 C1868 1.385 . S
C1868 H1854 0.931 . S
C1868 C1867 1.385 . S
C1868 C1869 1.389 . S
C1869 C1868 1.389 . S
C1869 C1870 1.387 . S
C1870 H1855 0.930 . S
C1870 C1865 1.390 . S
C1870 C1869 1.387 . S
H1871 C1883 0.930 . S
H1872 C1885 0.930 . S
H1873 C1886 0.930 . S
H1874 C1890 0.959 . S
H1875 C1890 0.959 . S
H1876 C1890 0.961 . S
H1877 C1891 0.960 . S
H1878 C1891 0.961 . S
H1879 C1891 0.959 . S
H1880 C1894 0.929 . S
H1881 C1895 0.931 . S
H1882 C1897 0.930 . S
C1883 H1871 0.930 . S
C1883 C1884 1.399 . S
C1883 C1888 1.399 . S
C1884 C1883 1.399 . S
C1884 C1885 1.376 . S
C1885 H1872 0.930 . S
C1885 C1884 1.376 . S
C1885 C1886 1.388 . S
C1886 H1873 0.930 . S
C1886 C1885 1.388 . S
C1886 C1887 1.390 . S
C1887 C1886 1.390 . S
C1887 C1888 1.394 . S
C1887 C1893 1.465 . S
C1888 C1883 1.399 . S
C1888 C1887 1.394 . S
C1888 C1889 1.516 . S
C1889 C1888 1.516 . S
C1889 C1890 1.502 . S
C1889 C1891 1.561 . S
C1889 C1892 1.526 . S
C1890 H1874 0.959 . S
C1890 H1875 0.959 . S
C1890 H1876 0.961 . S
C1890 C1889 1.502 . S
C1891 H1877 0.960 . S
C1891 H1878 0.961 . S
C1891 H1879 0.959 . S
C1891 C1889 1.561 . S
C1892 C1889 1.526 . S
C1892 C1893 1.396 . S
C1892 C1897 1.390 . S
C1893 C1887 1.465 . S
C1893 C1892 1.396 . S
C1893 C1894 1.399 . S
C1894 H1880 0.929 . S
C1894 C1893 1.399 . S
C1894 C1895 1.385 . S
C1895 H1881 0.931 . S
C1895 C1894 1.385 . S
C1895 C1896 1.389 . S
C1896 C1895 1.389 . S
C1896 C1897 1.387 . S
C1897 H1882 0.930 . S
C1897 C1892 1.390 . S
C1897 C1896 1.387 . S
H1898 C1910 0.930 . S
H1899 C1912 0.930 . S
H1900 C1913 0.930 . S
H1901 C1917 0.959 . S
H1902 C1917 0.959 . S
H1903 C1917 0.961 . S
H1904 C1918 0.960 . S
H1905 C1918 0.961 . S
H1906 C1918 0.959 . S
H1907 C1921 0.929 . S
H1908 C1922 0.931 . S
H1909 C1924 0.930 . S
C1910 H1898 0.930 . S
C1910 C1911 1.399 . S
C1910 C1915 1.399 . S
C1911 C1910 1.399 . S
C1911 C1912 1.376 . S
C1912 H1899 0.930 . S
C1912 C1911 1.376 . S
C1912 C1913 1.388 . S
C1913 H1900 0.930 . S
C1913 C1912 1.388 . S
C1913 C1914 1.390 . S
C1914 C1913 1.390 . S
C1914 C1915 1.394 . S
C1914 C1920 1.465 . S
C1915 C1910 1.399 . S
C1915 C1914 1.394 . S
C1915 C1916 1.516 . S
C1916 C1915 1.516 . S
C1916 C1917 1.502 . S
C1916 C1918 1.561 . S
C1916 C1919 1.526 . S
C1917 H1901 0.959 . S
C1917 H1902 0.959 . S
C1917 H1903 0.961 . S
C1917 C1916 1.502 . S
C1918 H1904 0.960 . S
C1918 H1905 0.961 . S
C1918 H1906 0.959 . S
C1918 C1916 1.561 . S
C1919 C1916 1.526 . S
C1919 C1920 1.396 . S
C1919 C1924 1.390 . S
C1920 C1914 1.465 . S
C1920 C1919 1.396 . S
C1920 C1921 1.399 . S
C1921 H1907 0.929 . S
C1921 C1920 1.399 . S
C1921 C1922 1.385 . S
C1922 H1908 0.931 . S
C1922 C1921 1.385 . S
C1922 C1923 1.389 . S
C1923 C1922 1.389 . S
C1923 C1924 1.387 . S
C1924 H1909 0.930 . S
C1924 C1919 1.390 . S
C1924 C1923 1.387 . S
H1925 C1937 0.930 . S
H1926 C1939 0.930 . S
H1927 C1940 0.930 . S
H1928 C1944 0.959 . S
H1929 C1944 0.959 . S
H1930 C1944 0.961 . S
H1931 C1945 0.960 . S
H1932 C1945 0.961 . S
H1933 C1945 0.959 . S
H1934 C1948 0.929 . S
H1935 C1949 0.931 . S
H1936 C1951 0.930 . S
C1937 H1925 0.930 . S
C1937 C1938 1.399 . S
C1937 C1942 1.399 . S
C1938 C1937 1.399 . S
C1938 C1939 1.376 . S
C1939 H1926 0.930 . S
C1939 C1938 1.376 . S
C1939 C1940 1.388 . S
C1940 H1927 0.930 . S
C1940 C1939 1.388 . S
C1940 C1941 1.390 . S
C1941 C1940 1.390 . S
C1941 C1942 1.394 . S
C1941 C1947 1.465 . S
C1942 C1937 1.399 . S
C1942 C1941 1.394 . S
C1942 C1943 1.516 . S
C1943 C1942 1.516 . S
C1943 C1944 1.502 . S
C1943 C1945 1.561 . S
C1943 C1946 1.526 . S
C1944 H1928 0.959 . S
C1944 H1929 0.959 . S
C1944 H1930 0.961 . S
C1944 C1943 1.502 . S
C1945 H1931 0.960 . S
C1945 H1932 0.961 . S
C1945 H1933 0.959 . S
C1945 C1943 1.561 . S
C1946 C1943 1.526 . S
C1946 C1947 1.396 . S
C1946 C1951 1.390 . S
C1947 C1941 1.465 . S
C1947 C1946 1.396 . S
C1947 C1948 1.399 . S
C1948 H1934 0.929 . S
C1948 C1947 1.399 . S
C1948 C1949 1.385 . S
C1949 H1935 0.931 . S
C1949 C1948 1.385 . S
C1949 C1950 1.389 . S
C1950 C1949 1.389 . S
C1950 C1951 1.387 . S
C1951 H1936 0.930 . S
C1951 C1946 1.390 . S
C1951 C1950 1.387 . S
H1952 C1964 0.930 . S
H1953 C1966 0.930 . S
H1954 C1967 0.930 . S
H1955 C1971 0.959 . S
H1956 C1971 0.959 . S
H1957 C1971 0.961 . S
H1958 C1972 0.960 . S
H1959 C1972 0.961 . S
H1960 C1972 0.959 . S
H1961 C1975 0.929 . S
H1962 C1976 0.931 . S
H1963 C1978 0.930 . S
C1964 H1952 0.930 . S
C1964 C1965 1.399 . S
C1964 C1969 1.399 . S
C1965 C1964 1.399 . S
C1965 C1966 1.376 . S
C1966 H1953 0.930 . S
C1966 C1965 1.376 . S
C1966 C1967 1.388 . S
C1967 H1954 0.930 . S
C1967 C1966 1.388 . S
C1967 C1968 1.390 . S
C1968 C1967 1.390 . S
C1968 C1969 1.394 . S
C1968 C1974 1.465 . S
C1969 C1964 1.399 . S
C1969 C1968 1.394 . S
C1969 C1970 1.516 . S
C1970 C1969 1.516 . S
C1970 C1971 1.502 . S
C1970 C1972 1.561 . S
C1970 C1973 1.526 . S
C1971 H1955 0.959 . S
C1971 H1956 0.959 . S
C1971 H1957 0.961 . S
C1971 C1970 1.502 . S
C1972 H1958 0.960 . S
C1972 H1959 0.961 . S
C1972 H1960 0.959 . S
C1972 C1970 1.561 . S
C1973 C1970 1.526 . S
C1973 C1974 1.396 . S
C1973 C1978 1.390 . S
C1974 C1968 1.465 . S
C1974 C1973 1.396 . S
C1974 C1975 1.399 . S
C1975 H1961 0.929 . S
C1975 C1974 1.399 . S
C1975 C1976 1.385 . S
C1976 H1962 0.931 . S
C1976 C1975 1.385 . S
C1976 C1977 1.389 . S
C1977 C1976 1.389 . S
C1977 C1978 1.387 . S
C1978 H1963 0.930 . S
C1978 C1973 1.390 . S
C1978 C1977 1.387 . S
H1979 C1991 0.930 . S
H1980 C1993 0.930 . S
H1981 C1994 0.930 . S
H1982 C1998 0.959 . S
H1983 C1998 0.959 . S
H1984 C1998 0.961 . S
H1985 C1999 0.960 . S
H1986 C1999 0.961 . S
H1987 C1999 0.959 . S
H1988 C2002 0.929 . S
H1989 C2003 0.931 . S
H1990 C2005 0.930 . S
C1991 H1979 0.930 . S
C1991 C1992 1.399 . S
C1991 C1996 1.399 . S
C1992 C1991 1.399 . S
C1992 C1993 1.376 . S
C1993 H1980 0.930 . S
C1993 C1992 1.376 . S
C1993 C1994 1.388 . S
C1994 H1981 0.930 . S
C1994 C1993 1.388 . S
C1994 C1995 1.390 . S
C1995 C1994 1.390 . S
C1995 C1996 1.394 . S
C1995 C2001 1.465 . S
C1996 C1991 1.399 . S
C1996 C1995 1.394 . S
C1996 C1997 1.516 . S
C1997 C1996 1.516 . S
C1997 C1998 1.502 . S
C1997 C1999 1.561 . S
C1997 C2000 1.526 . S
C1998 H1982 0.959 . S
C1998 H1983 0.959 . S
C1998 H1984 0.961 . S
C1998 C1997 1.502 . S
C1999 H1985 0.960 . S
C1999 H1986 0.961 . S
C1999 H1987 0.959 . S
C1999 C1997 1.561 . S
C2000 C1997 1.526 . S
C2000 C2001 1.396 . S
C2000 C2005 1.390 . S
C2001 C1995 1.465 . S
C2001 C2000 1.396 . S
C2001 C2002 1.399 . S
C2002 H1988 0.929 . S
C2002 C2001 1.399 . S
C2002 C2003 1.385 . S
C2003 H1989 0.931 . S
C2003 C2002 1.385 . S
C2003 C2004 1.389 . S
C2004 C2003 1.389 . S
C2004 C2005 1.387 . S
C2005 H1990 0.930 . S
C2005 C2000 1.390 . S
C2005 C2004 1.387 . S
H2006 C2018 0.930 . S
H2007 C2020 0.930 . S
H2008 C2021 0.930 . S
H2009 C2025 0.959 . S
H2010 C2025 0.959 . S
H2011 C2025 0.961 . S
H2012 C2026 0.960 . S
H2013 C2026 0.961 . S
H2014 C2026 0.959 . S
H2015 C2029 0.929 . S
H2016 C2030 0.931 . S
H2017 C2032 0.930 . S
C2018 H2006 0.930 . S
C2018 C2019 1.399 . S
C2018 C2023 1.399 . S
C2019 C2018 1.399 . S
C2019 C2020 1.376 . S
C2020 H2007 0.930 . S
C2020 C2019 1.376 . S
C2020 C2021 1.388 . S
C2021 H2008 0.930 . S
C2021 C2020 1.388 . S
C2021 C2022 1.390 . S
C2022 C2021 1.390 . S
C2022 C2023 1.394 . S
C2022 C2028 1.465 . S
C2023 C2018 1.399 . S
C2023 C2022 1.394 . S
C2023 C2024 1.516 . S
C2024 C2023 1.516 . S
C2024 C2025 1.502 . S
C2024 C2026 1.561 . S
C2024 C2027 1.526 . S
C2025 H2009 0.959 . S
C2025 H2010 0.959 . S
C2025 H2011 0.961 . S
C2025 C2024 1.502 . S
C2026 H2012 0.960 . S
C2026 H2013 0.961 . S
C2026 H2014 0.959 . S
C2026 C2024 1.561 . S
C2027 C2024 1.526 . S
C2027 C2028 1.396 . S
C2027 C2032 1.390 . S
C2028 C2022 1.465 . S
C2028 C2027 1.396 . S
C2028 C2029 1.399 . S
C2029 H2015 0.929 . S
C2029 C2028 1.399 . S
C2029 C2030 1.385 . S
C2030 H2016 0.931 . S
C2030 C2029 1.385 . S
C2030 C2031 1.389 . S
C2031 C2030 1.389 . S
C2031 C2032 1.387 . S
C2032 H2017 0.930 . S
C2032 C2027 1.390 . S
C2032 C2031 1.387 . S
H2033 C2045 0.930 . S
H2034 C2047 0.930 . S
H2035 C2048 0.930 . S
H2036 C2052 0.959 . S
H2037 C2052 0.959 . S
H2038 C2052 0.961 . S
H2039 C2053 0.960 . S
H2040 C2053 0.961 . S
H2041 C2053 0.959 . S
H2042 C2056 0.929 . S
H2043 C2057 0.931 . S
H2044 C2059 0.930 . S
C2045 H2033 0.930 . S
C2045 C2046 1.399 . S
C2045 C2050 1.399 . S
C2046 C2045 1.399 . S
C2046 C2047 1.376 . S
C2047 H2034 0.930 . S
C2047 C2046 1.376 . S
C2047 C2048 1.388 . S
C2048 H2035 0.930 . S
C2048 C2047 1.388 . S
C2048 C2049 1.390 . S
C2049 C2048 1.390 . S
C2049 C2050 1.394 . S
C2049 C2055 1.465 . S
C2050 C2045 1.399 . S
C2050 C2049 1.394 . S
C2050 C2051 1.516 . S
C2051 C2050 1.516 . S
C2051 C2052 1.502 . S
C2051 C2053 1.561 . S
C2051 C2054 1.526 . S
C2052 H2036 0.959 . S
C2052 H2037 0.959 . S
C2052 H2038 0.961 . S
C2052 C2051 1.502 . S
C2053 H2039 0.960 . S
C2053 H2040 0.961 . S
C2053 H2041 0.959 . S
C2053 C2051 1.561 . S
C2054 C2051 1.526 . S
C2054 C2055 1.396 . S
C2054 C2059 1.390 . S
C2055 C2049 1.465 . S
C2055 C2054 1.396 . S
C2055 C2056 1.399 . S
C2056 H2042 0.929 . S
C2056 C2055 1.399 . S
C2056 C2057 1.385 . S
C2057 H2043 0.931 . S
C2057 C2056 1.385 . S
C2057 C2058 1.389 . S
C2058 C2057 1.389 . S
C2058 C2059 1.387 . S
C2059 H2044 0.930 . S
C2059 C2054 1.390 . S
C2059 C2058 1.387 . S
H2060 C2072 0.930 . S
H2061 C2074 0.930 . S
H2062 C2075 0.930 . S
H2063 C2079 0.959 . S
H2064 C2079 0.959 . S
H2065 C2079 0.961 . S
H2066 C2080 0.960 . S
H2067 C2080 0.961 . S
H2068 C2080 0.959 . S
H2069 C2083 0.929 . S
H2070 C2084 0.931 . S
H2071 C2086 0.930 . S
C2072 H2060 0.930 . S
C2072 C2073 1.399 . S
C2072 C2077 1.399 . S
C2073 C2072 1.399 . S
C2073 C2074 1.376 . S
C2074 H2061 0.930 . S
C2074 C2073 1.376 . S
C2074 C2075 1.388 . S
C2075 H2062 0.930 . S
C2075 C2074 1.388 . S
C2075 C2076 1.390 . S
C2076 C2075 1.390 . S
C2076 C2077 1.394 . S
C2076 C2082 1.465 . S
C2077 C2072 1.399 . S
C2077 C2076 1.394 . S
C2077 C2078 1.516 . S
C2078 C2077 1.516 . S
C2078 C2079 1.502 . S
C2078 C2080 1.561 . S
C2078 C2081 1.526 . S
C2079 H2063 0.959 . S
C2079 H2064 0.959 . S
C2079 H2065 0.961 . S
C2079 C2078 1.502 . S
C2080 H2066 0.960 . S
C2080 H2067 0.961 . S
C2080 H2068 0.959 . S
C2080 C2078 1.561 . S
C2081 C2078 1.526 . S
C2081 C2082 1.396 . S
C2081 C2086 1.390 . S
C2082 C2076 1.465 . S
C2082 C2081 1.396 . S
C2082 C2083 1.399 . S
C2083 H2069 0.929 . S
C2083 C2082 1.399 . S
C2083 C2084 1.385 . S
C2084 H2070 0.931 . S
C2084 C2083 1.385 . S
C2084 C2085 1.389 . S
C2085 C2084 1.389 . S
C2085 C2086 1.387 . S
C2086 H2071 0.930 . S
C2086 C2081 1.390 . S
C2086 C2085 1.387 . S
H2087 C2099 0.930 . S
H2088 C2101 0.930 . S
H2089 C2102 0.930 . S
H2090 C2106 0.959 . S
H2091 C2106 0.959 . S
H2092 C2106 0.961 . S
H2093 C2107 0.960 . S
H2094 C2107 0.961 . S
H2095 C2107 0.959 . S
H2096 C2110 0.929 . S
H2097 C2111 0.931 . S
H2098 C2113 0.930 . S
C2099 H2087 0.930 . S
C2099 C2100 1.399 . S
C2099 C2104 1.399 . S
C2100 C2099 1.399 . S
C2100 C2101 1.376 . S
C2101 H2088 0.930 . S
C2101 C2100 1.376 . S
C2101 C2102 1.388 . S
C2102 H2089 0.930 . S
C2102 C2101 1.388 . S
C2102 C2103 1.390 . S
C2103 C2102 1.390 . S
C2103 C2104 1.394 . S
C2103 C2109 1.465 . S
C2104 C2099 1.399 . S
C2104 C2103 1.394 . S
C2104 C2105 1.516 . S
C2105 C2104 1.516 . S
C2105 C2106 1.502 . S
C2105 C2107 1.561 . S
C2105 C2108 1.526 . S
C2106 H2090 0.959 . S
C2106 H2091 0.959 . S
C2106 H2092 0.961 . S
C2106 C2105 1.502 . S
C2107 H2093 0.960 . S
C2107 H2094 0.961 . S
C2107 H2095 0.959 . S
C2107 C2105 1.561 . S
C2108 C2105 1.526 . S
C2108 C2109 1.396 . S
C2108 C2113 1.390 . S
C2109 C2103 1.465 . S
C2109 C2108 1.396 . S
C2109 C2110 1.399 . S
C2110 H2096 0.929 . S
C2110 C2109 1.399 . S
C2110 C2111 1.385 . S
C2111 H2097 0.931 . S
C2111 C2110 1.385 . S
C2111 C2112 1.389 . S
C2112 C2111 1.389 . S
C2112 C2113 1.387 . S
C2113 H2098 0.930 . S
C2113 C2108 1.390 . S
C2113 C2112 1.387 . S
H2114 C2126 0.930 . S
H2115 C2128 0.930 . S
H2116 C2129 0.930 . S
H2117 C2133 0.959 . S
H2118 C2133 0.959 . S
H2119 C2133 0.961 . S
H2120 C2134 0.960 . S
H2121 C2134 0.961 . S
H2122 C2134 0.959 . S
H2123 C2137 0.929 . S
H2124 C2138 0.931 . S
H2125 C2140 0.930 . S
C2126 H2114 0.930 . S
C2126 C2127 1.399 . S
C2126 C2131 1.399 . S
C2127 C2126 1.399 . S
C2127 C2128 1.376 . S
C2128 H2115 0.930 . S
C2128 C2127 1.376 . S
C2128 C2129 1.388 . S
C2129 H2116 0.930 . S
C2129 C2128 1.388 . S
C2129 C2130 1.390 . S
C2130 C2129 1.390 . S
C2130 C2131 1.394 . S
C2130 C2136 1.465 . S
C2131 C2126 1.399 . S
C2131 C2130 1.394 . S
C2131 C2132 1.516 . S
C2132 C2131 1.516 . S
C2132 C2133 1.502 . S
C2132 C2134 1.561 . S
C2132 C2135 1.526 . S
C2133 H2117 0.959 . S
C2133 H2118 0.959 . S
C2133 H2119 0.961 . S
C2133 C2132 1.502 . S
C2134 H2120 0.960 . S
C2134 H2121 0.961 . S
C2134 H2122 0.959 . S
C2134 C2132 1.561 . S
C2135 C2132 1.526 . S
C2135 C2136 1.396 . S
C2135 C2140 1.390 . S
C2136 C2130 1.465 . S
C2136 C2135 1.396 . S
C2136 C2137 1.399 . S
C2137 H2123 0.929 . S
C2137 C2136 1.399 . S
C2137 C2138 1.385 . S
C2138 H2124 0.931 . S
C2138 C2137 1.385 . S
C2138 C2139 1.389 . S
C2139 C2138 1.389 . S
C2139 C2140 1.387 . S
C2140 H2125 0.930 . S
C2140 C2135 1.390 . S
C2140 C2139 1.387 . S
H2141 C2153 0.930 . S
H2142 C2155 0.930 . S
H2143 C2156 0.930 . S
H2144 C2160 0.959 . S
H2145 C2160 0.959 . S
H2146 C2160 0.961 . S
H2147 C2161 0.960 . S
H2148 C2161 0.961 . S
H2149 C2161 0.959 . S
H2150 C2164 0.929 . S
H2151 C2165 0.931 . S
H2152 C2167 0.930 . S
C2153 H2141 0.930 . S
C2153 C2154 1.399 . S
C2153 C2158 1.399 . S
C2154 C2153 1.399 . S
C2154 C2155 1.376 . S
C2155 H2142 0.930 . S
C2155 C2154 1.376 . S
C2155 C2156 1.388 . S
C2156 H2143 0.930 . S
C2156 C2155 1.388 . S
C2156 C2157 1.390 . S
C2157 C2156 1.390 . S
C2157 C2158 1.394 . S
C2157 C2163 1.465 . S
C2158 C2153 1.399 . S
C2158 C2157 1.394 . S
C2158 C2159 1.516 . S
C2159 C2158 1.516 . S
C2159 C2160 1.502 . S
C2159 C2161 1.561 . S
C2159 C2162 1.526 . S
C2160 H2144 0.959 . S
C2160 H2145 0.959 . S
C2160 H2146 0.961 . S
C2160 C2159 1.502 . S
C2161 H2147 0.960 . S
C2161 H2148 0.961 . S
C2161 H2149 0.959 . S
C2161 C2159 1.561 . S
C2162 C2159 1.526 . S
C2162 C2163 1.396 . S
C2162 C2167 1.390 . S
C2163 C2157 1.465 . S
C2163 C2162 1.396 . S
C2163 C2164 1.399 . S
C2164 H2150 0.929 . S
C2164 C2163 1.399 . S
C2164 C2165 1.385 . S
C2165 H2151 0.931 . S
C2165 C2164 1.385 . S
C2165 C2166 1.389 . S
C2166 C2165 1.389 . S
C2166 C2167 1.387 . S
C2167 H2152 0.930 . S
C2167 C2162 1.390 . S
C2167 C2166 1.387 . S
H2168 C2180 0.930 . S
H2169 C2182 0.930 . S
H2170 C2183 0.930 . S
H2171 C2187 0.959 . S
H2172 C2187 0.959 . S
H2173 C2187 0.961 . S
H2174 C2188 0.960 . S
H2175 C2188 0.961 . S
H2176 C2188 0.959 . S
H2177 C2191 0.929 . S
H2178 C2192 0.931 . S
H2179 C2194 0.930 . S
C2180 H2168 0.930 . S
C2180 C2181 1.399 . S
C2180 C2185 1.399 . S
C2181 C2180 1.399 . S
C2181 C2182 1.376 . S
C2182 H2169 0.930 . S
C2182 C2181 1.376 . S
C2182 C2183 1.388 . S
C2183 H2170 0.930 . S
C2183 C2182 1.388 . S
C2183 C2184 1.390 . S
C2184 C2183 1.390 . S
C2184 C2185 1.394 . S
C2184 C2190 1.465 . S
C2185 C2180 1.399 . S
C2185 C2184 1.394 . S
C2185 C2186 1.516 . S
C2186 C2185 1.516 . S
C2186 C2187 1.502 . S
C2186 C2188 1.561 . S
C2186 C2189 1.526 . S
C2187 H2171 0.959 . S
C2187 H2172 0.959 . S
C2187 H2173 0.961 . S
C2187 C2186 1.502 . S
C2188 H2174 0.960 . S
C2188 H2175 0.961 . S
C2188 H2176 0.959 . S
C2188 C2186 1.561 . S
C2189 C2186 1.526 . S
C2189 C2190 1.396 . S
C2189 C2194 1.390 . S
C2190 C2184 1.465 . S
C2190 C2189 1.396 . S
C2190 C2191 1.399 . S
C2191 H2177 0.929 . S
C2191 C2190 1.399 . S
C2191 C2192 1.385 . S
C2192 H2178 0.931 . S
C2192 C2191 1.385 . S
C2192 C2193 1.389 . S
C2193 C2192 1.389 . S
C2193 C2194 1.387 . S
C2194 H2179 0.930 . S
C2194 C2189 1.390 . S
C2194 C2193 1.387 . S
H2195 C2207 0.930 . S
H2196 C2209 0.930 . S
H2197 C2210 0.930 . S
H2198 C2214 0.959 . S
H2199 C2214 0.959 . S
H2200 C2214 0.961 . S
H2201 C2215 0.960 . S
H2202 C2215 0.961 . S
H2203 C2215 0.959 . S
H2204 C2218 0.929 . S
H2205 C2219 0.931 . S
H2206 C2221 0.930 . S
C2207 H2195 0.930 . S
C2207 C2208 1.399 . S
C2207 C2212 1.399 . S
C2208 C2207 1.399 . S
C2208 C2209 1.376 . S
C2209 H2196 0.930 . S
C2209 C2208 1.376 . S
C2209 C2210 1.388 . S
C2210 H2197 0.930 . S
C2210 C2209 1.388 . S
C2210 C2211 1.390 . S
C2211 C2210 1.390 . S
C2211 C2212 1.394 . S
C2211 C2217 1.465 . S
C2212 C2207 1.399 . S
C2212 C2211 1.394 . S
C2212 C2213 1.516 . S
C2213 C2212 1.516 . S
C2213 C2214 1.502 . S
C2213 C2215 1.561 . S
C2213 C2216 1.526 . S
C2214 H2198 0.959 . S
C2214 H2199 0.959 . S
C2214 H2200 0.961 . S
C2214 C2213 1.502 . S
C2215 H2201 0.960 . S
C2215 H2202 0.961 . S
C2215 H2203 0.959 . S
C2215 C2213 1.561 . S
C2216 C2213 1.526 . S
C2216 C2217 1.396 . S
C2216 C2221 1.390 . S
C2217 C2211 1.465 . S
C2217 C2216 1.396 . S
C2217 C2218 1.399 . S
C2218 H2204 0.929 . S
C2218 C2217 1.399 . S
C2218 C2219 1.385 . S
C2219 H2205 0.931 . S
C2219 C2218 1.385 . S
C2219 C2220 1.389 . S
C2220 C2219 1.389 . S
C2220 C2221 1.387 . S
C2221 H2206 0.930 . S
C2221 C2216 1.390 . S
C2221 C2220 1.387 . S
H2222 C2234 0.930 . S
H2223 C2236 0.930 . S
H2224 C2237 0.930 . S
H2225 C2241 0.959 . S
H2226 C2241 0.959 . S
H2227 C2241 0.961 . S
H2228 C2242 0.960 . S
H2229 C2242 0.961 . S
H2230 C2242 0.959 . S
H2231 C2245 0.929 . S
H2232 C2246 0.931 . S
H2233 C2248 0.930 . S
C2234 H2222 0.930 . S
C2234 C2235 1.399 . S
C2234 C2239 1.399 . S
C2235 C2234 1.399 . S
C2235 C2236 1.376 . S
C2236 H2223 0.930 . S
C2236 C2235 1.376 . S
C2236 C2237 1.388 . S
C2237 H2224 0.930 . S
C2237 C2236 1.388 . S
C2237 C2238 1.390 . S
C2238 C2237 1.390 . S
C2238 C2239 1.394 . S
C2238 C2244 1.465 . S
C2239 C2234 1.399 . S
C2239 C2238 1.394 . S
C2239 C2240 1.516 . S
C2240 C2239 1.516 . S
C2240 C2241 1.502 . S
C2240 C2242 1.561 . S
C2240 C2243 1.526 . S
C2241 H2225 0.959 . S
C2241 H2226 0.959 . S
C2241 H2227 0.961 . S
C2241 C2240 1.502 . S
C2242 H2228 0.960 . S
C2242 H2229 0.961 . S
C2242 H2230 0.959 . S
C2242 C2240 1.561 . S
C2243 C2240 1.526 . S
C2243 C2244 1.396 . S
C2243 C2248 1.390 . S
C2244 C2238 1.465 . S
C2244 C2243 1.396 . S
C2244 C2245 1.399 . S
C2245 H2231 0.929 . S
C2245 C2244 1.399 . S
C2245 C2246 1.385 . S
C2246 H2232 0.931 . S
C2246 C2245 1.385 . S
C2246 C2247 1.389 . S
C2247 C2246 1.389 . S
C2247 C2248 1.387 . S
C2248 H2233 0.930 . S
C2248 C2243 1.390 . S
C2248 C2247 1.387 . S
H2249 C2261 0.930 . S
H2250 C2263 0.930 . S
H2251 C2264 0.930 . S
H2252 C2268 0.959 . S
H2253 C2268 0.959 . S
H2254 C2268 0.961 . S
H2255 C2269 0.960 . S
H2256 C2269 0.961 . S
H2257 C2269 0.959 . S
H2258 C2272 0.929 . S
H2259 C2273 0.931 . S
H2260 C2275 0.930 . S
C2261 H2249 0.930 . S
C2261 C2262 1.399 . S
C2261 C2266 1.399 . S
C2262 C2261 1.399 . S
C2262 C2263 1.376 . S
C2263 H2250 0.930 . S
C2263 C2262 1.376 . S
C2263 C2264 1.388 . S
C2264 H2251 0.930 . S
C2264 C2263 1.388 . S
C2264 C2265 1.390 . S
C2265 C2264 1.390 . S
C2265 C2266 1.394 . S
C2265 C2271 1.465 . S
C2266 C2261 1.399 . S
C2266 C2265 1.394 . S
C2266 C2267 1.516 . S
C2267 C2266 1.516 . S
C2267 C2268 1.502 . S
C2267 C2269 1.561 . S
C2267 C2270 1.526 . S
C2268 H2252 0.959 . S
C2268 H2253 0.959 . S
C2268 H2254 0.961 . S
C2268 C2267 1.502 . S
C2269 H2255 0.960 . S
C2269 H2256 0.961 . S
C2269 H2257 0.959 . S
C2269 C2267 1.561 . S
C2270 C2267 1.526 . S
C2270 C2271 1.396 . S
C2270 C2275 1.390 . S
C2271 C2265 1.465 . S
C2271 C2270 1.396 . S
C2271 C2272 1.399 . S
C2272 H2258 0.929 . S
C2272 C2271 1.399 . S
C2272 C2273 1.385 . S
C2273 H2259 0.931 . S
C2273 C2272 1.385 . S
C2273 C2274 1.389 . S
C2274 C2273 1.389 . S
C2274 C2275 1.387 . S
C2275 H2260 0.930 . S
C2275 C2270 1.390 . S
C2275 C2274 1.387 . S
H2276 C2288 0.930 . S
H2277 C2290 0.930 . S
H2278 C2291 0.930 . S
H2279 C2295 0.959 . S
H2280 C2295 0.959 . S
H2281 C2295 0.961 . S
H2282 C2296 0.960 . S
H2283 C2296 0.961 . S
H2284 C2296 0.959 . S
H2285 C2299 0.929 . S
H2286 C2300 0.931 . S
H2287 C2302 0.930 . S
C2288 H2276 0.930 . S
C2288 C2289 1.399 . S
C2288 C2293 1.399 . S
C2289 C2288 1.399 . S
C2289 C2290 1.376 . S
C2290 H2277 0.930 . S
C2290 C2289 1.376 . S
C2290 C2291 1.388 . S
C2291 H2278 0.930 . S
C2291 C2290 1.388 . S
C2291 C2292 1.390 . S
C2292 C2291 1.390 . S
C2292 C2293 1.394 . S
C2292 C2298 1.465 . S
C2293 C2288 1.399 . S
C2293 C2292 1.394 . S
C2293 C2294 1.516 . S
C2294 C2293 1.516 . S
C2294 C2295 1.502 . S
C2294 C2296 1.561 . S
C2294 C2297 1.526 . S
C2295 H2279 0.959 . S
C2295 H2280 0.959 . S
C2295 H2281 0.961 . S
C2295 C2294 1.502 . S
C2296 H2282 0.960 . S
C2296 H2283 0.961 . S
C2296 H2284 0.959 . S
C2296 C2294 1.561 . S
C2297 C2294 1.526 . S
C2297 C2298 1.396 . S
C2297 C2302 1.390 . S
C2298 C2292 1.465 . S
C2298 C2297 1.396 . S
C2298 C2299 1.399 . S
C2299 H2285 0.929 . S
C2299 C2298 1.399 . S
C2299 C2300 1.385 . S
C2300 H2286 0.931 . S
C2300 C2299 1.385 . S
C2300 C2301 1.389 . S
C2301 C2300 1.389 . S
C2301 C2302 1.387 . S
C2302 H2287 0.930 . S
C2302 C2297 1.390 . S
C2302 C2301 1.387 . S
H2303 C2315 0.930 . S
H2304 C2317 0.930 . S
H2305 C2318 0.930 . S
H2306 C2322 0.959 . S
H2307 C2322 0.959 . S
H2308 C2322 0.961 . S
H2309 C2323 0.960 . S
H2310 C2323 0.961 . S
H2311 C2323 0.959 . S
H2312 C2326 0.929 . S
H2313 C2327 0.931 . S
H2314 C2329 0.930 . S
C2315 H2303 0.930 . S
C2315 C2316 1.399 . S
C2315 C2320 1.399 . S
C2316 C2315 1.399 . S
C2316 C2317 1.376 . S
C2317 H2304 0.930 . S
C2317 C2316 1.376 . S
C2317 C2318 1.388 . S
C2318 H2305 0.930 . S
C2318 C2317 1.388 . S
C2318 C2319 1.390 . S
C2319 C2318 1.390 . S
C2319 C2320 1.394 . S
C2319 C2325 1.465 . S
C2320 C2315 1.399 . S
C2320 C2319 1.394 . S
C2320 C2321 1.516 . S
C2321 C2320 1.516 . S
C2321 C2322 1.502 . S
C2321 C2323 1.561 . S
C2321 C2324 1.526 . S
C2322 H2306 0.959 . S
C2322 H2307 0.959 . S
C2322 H2308 0.961 . S
C2322 C2321 1.502 . S
C2323 H2309 0.960 . S
C2323 H2310 0.961 . S
C2323 H2311 0.959 . S
C2323 C2321 1.561 . S
C2324 C2321 1.526 . S
C2324 C2325 1.396 . S
C2324 C2329 1.390 . S
C2325 C2319 1.465 . S
C2325 C2324 1.396 . S
C2325 C2326 1.399 . S
C2326 H2312 0.929 . S
C2326 C2325 1.399 . S
C2326 C2327 1.385 . S
C2327 H2313 0.931 . S
C2327 C2326 1.385 . S
C2327 C2328 1.389 . S
C2328 C2327 1.389 . S
C2328 C2329 1.387 . S
C2329 H2314 0.930 . S
C2329 C2324 1.390 . S
C2329 C2328 1.387 . S
H2330 C2342 0.930 . S
H2331 C2344 0.930 . S
H2332 C2345 0.930 . S
H2333 C2349 0.959 . S
H2334 C2349 0.959 . S
H2335 C2349 0.961 . S
H2336 C2350 0.960 . S
H2337 C2350 0.961 . S
H2338 C2350 0.959 . S
H2339 C2353 0.929 . S
H2340 C2354 0.931 . S
H2341 C2356 0.930 . S
C2342 H2330 0.930 . S
C2342 C2343 1.399 . S
C2342 C2347 1.399 . S
C2343 C2342 1.399 . S
C2343 C2344 1.376 . S
C2344 H2331 0.930 . S
C2344 C2343 1.376 . S
C2344 C2345 1.388 . S
C2345 H2332 0.930 . S
C2345 C2344 1.388 . S
C2345 C2346 1.390 . S
C2346 C2345 1.390 . S
C2346 C2347 1.394 . S
C2346 C2352 1.465 . S
C2347 C2342 1.399 . S
C2347 C2346 1.394 . S
C2347 C2348 1.516 . S
C2348 C2347 1.516 . S
C2348 C2349 1.502 . S
C2348 C2350 1.561 . S
C2348 C2351 1.526 . S
C2349 H2333 0.959 . S
C2349 H2334 0.959 . S
C2349 H2335 0.961 . S
C2349 C2348 1.502 . S
C2350 H2336 0.960 . S
C2350 H2337 0.961 . S
C2350 H2338 0.959 . S
C2350 C2348 1.561 . S
C2351 C2348 1.526 . S
C2351 C2352 1.396 . S
C2351 C2356 1.390 . S
C2352 C2346 1.465 . S
C2352 C2351 1.396 . S
C2352 C2353 1.399 . S
C2353 H2339 0.929 . S
C2353 C2352 1.399 . S
C2353 C2354 1.385 . S
C2354 H2340 0.931 . S
C2354 C2353 1.385 . S
C2354 C2355 1.389 . S
C2355 C2354 1.389 . S
C2355 C2356 1.387 . S
C2356 H2341 0.930 . S
C2356 C2351 1.390 . S
C2356 C2355 1.387 . S
H2357 C2369 0.930 . S
H2358 C2371 0.930 . S
H2359 C2372 0.930 . S
H2360 C2376 0.959 . S
H2361 C2376 0.959 . S
H2362 C2376 0.961 . S
H2363 C2377 0.960 . S
H2364 C2377 0.961 . S
H2365 C2377 0.959 . S
H2366 C2380 0.929 . S
H2367 C2381 0.931 . S
H2368 C2383 0.930 . S
C2369 H2357 0.930 . S
C2369 C2370 1.399 . S
C2369 C2374 1.399 . S
C2370 C2369 1.399 . S
C2370 C2371 1.376 . S
C2371 H2358 0.930 . S
C2371 C2370 1.376 . S
C2371 C2372 1.388 . S
C2372 H2359 0.930 . S
C2372 C2371 1.388 . S
C2372 C2373 1.390 . S
C2373 C2372 1.390 . S
C2373 C2374 1.394 . S
C2373 C2379 1.465 . S
C2374 C2369 1.399 . S
C2374 C2373 1.394 . S
C2374 C2375 1.516 . S
C2375 C2374 1.516 . S
C2375 C2376 1.502 . S
C2375 C2377 1.561 . S
C2375 C2378 1.526 . S
C2376 H2360 0.959 . S
C2376 H2361 0.959 . S
C2376 H2362 0.961 . S
C2376 C2375 1.502 . S
C2377 H2363 0.960 . S
C2377 H2364 0.961 . S
C2377 H2365 0.959 . S
C2377 C2375 1.561 . S
C2378 C2375 1.526 . S
C2378 C2379 1.396 . S
C2378 C2383 1.390 . S
C2379 C2373 1.465 . S
C2379 C2378 1.396 . S
C2379 C2380 1.399 . S
C2380 H2366 0.929 . S
C2380 C2379 1.399 . S
C2380 C2381 1.385 . S
C2381 H2367 0.931 . S
C2381 C2380 1.385 . S
C2381 C2382 1.389 . S
C2382 C2381 1.389 . S
C2382 C2383 1.387 . S
C2383 H2368 0.930 . S
C2383 C2378 1.390 . S
C2383 C2382 1.387 . S
H2384 C2396 0.930 . S
H2385 C2398 0.930 . S
H2386 C2399 0.930 . S
H2387 C2403 0.959 . S
H2388 C2403 0.959 . S
H2389 C2403 0.961 1_554 S
H2390 C2404 0.960 . S
H2391 C2404 0.961 1_556 S
H2392 C2404 0.959 . S
H2393 C2407 0.929 . S
H2394 C2408 0.931 . S
H2395 C2410 0.930 . S
C2396 H2384 0.930 . S
C2396 C2397 1.399 . S
C2396 C2401 1.399 . S
C2397 C2396 1.399 . S
C2397 C2398 1.376 . S
C2398 H2385 0.930 . S
C2398 C2397 1.376 . S
C2398 C2399 1.388 . S
C2399 H2386 0.930 . S
C2399 C2398 1.388 . S
C2399 C2400 1.390 . S
C2400 C2399 1.390 . S
C2400 C2401 1.394 . S
C2400 C2406 1.465 1_554 S
C2401 C2396 1.399 . S
C2401 C2400 1.394 . S
C2401 C2402 1.516 1_554 S
C2402 C2401 1.516 1_556 S
C2402 C2403 1.502 . S
C2402 C2404 1.561 1_556 S
C2402 C2405 1.526 . S
C2403 H2387 0.959 . S
C2403 H2388 0.959 . S
C2403 H2389 0.961 1_556 S
C2403 C2402 1.502 . S
C2404 H2390 0.960 . S
C2404 H2391 0.961 1_554 S
C2404 H2392 0.959 . S
C2404 C2402 1.561 1_554 S
C2405 C2402 1.526 . S
C2405 C2406 1.396 . S
C2405 C2410 1.390 . S
C2406 C2400 1.465 1_556 S
C2406 C2405 1.396 . S
C2406 C2407 1.399 . S
C2407 H2393 0.929 . S
C2407 C2406 1.399 . S
C2407 C2408 1.385 . S
C2408 H2394 0.931 . S
C2408 C2407 1.385 . S
C2408 C2409 1.389 . S
C2409 C2408 1.389 . S
C2409 C2410 1.387 . S
C2410 H2395 0.930 . S
C2410 C2405 1.390 . S
C2410 C2409 1.387 . S
H2411 C2423 0.930 1_545 S
H2412 C2425 0.930 . S
H2413 C2426 0.930 . S
H2414 C2430 0.959 . S
H2415 C2430 0.959 . S
H2416 C2430 0.961 . S
H2417 C2431 0.960 . S
H2418 C2431 0.961 . S
H2419 C2431 0.959 . S
H2420 C2434 0.929 . S
H2421 C2435 0.931 1_565 S
H2422 C2437 0.930 . S
C2423 H2411 0.930 1_565 S
C2423 C2424 1.399 . S
C2423 C2428 1.399 1_565 S
C2424 C2423 1.399 . S
C2424 C2425 1.376 . S
C2425 H2412 0.930 . S
C2425 C2424 1.376 . S
C2425 C2426 1.388 . S
C2426 H2413 0.930 . S
C2426 C2425 1.388 . S
C2426 C2427 1.390 . S
C2427 C2426 1.390 . S
C2427 C2428 1.394 1_565 S
C2427 C2433 1.465 . S
C2428 C2423 1.399 1_545 S
C2428 C2427 1.394 1_545 S
C2428 C2429 1.516 . S
C2429 C2428 1.516 . S
C2429 C2430 1.502 1_655 S
C2429 C2431 1.561 . S
C2429 C2432 1.526 . S
C2430 H2414 0.959 . S
C2430 H2415 0.959 . S
C2430 H2416 0.961 . S
C2430 C2429 1.502 1_455 S
C2431 H2417 0.960 . S
C2431 H2418 0.961 . S
C2431 H2419 0.959 . S
C2431 C2429 1.561 . S
C2432 C2429 1.526 . S
C2432 C2433 1.396 1_545 S
C2432 C2437 1.390 . S
C2433 C2427 1.465 . S
C2433 C2432 1.396 1_565 S
C2433 C2434 1.399 . S
C2434 H2420 0.929 . S
C2434 C2433 1.399 . S
C2434 C2435 1.385 1_565 S
C2435 H2421 0.931 1_545 S
C2435 C2434 1.385 1_545 S
C2435 C2436 1.389 . S
C2436 C2435 1.389 . S
C2436 C2437 1.387 . S
C2437 H2422 0.930 . S
C2437 C2432 1.390 . S
C2437 C2436 1.387 . S
H2438 C2450 0.930 . S
H2439 C2452 0.930 . S
H2440 C2453 0.930 . S
H2441 C2457 0.959 . S
H2442 C2457 0.959 . S
H2443 C2457 0.961 . S
H2444 C2458 0.960 . S
H2445 C2458 0.961 . S
H2446 C2458 0.959 . S
H2447 C2461 0.929 . S
H2448 C2462 0.931 . S
H2449 C2464 0.930 . S
C2450 H2438 0.930 . S
C2450 C2451 1.399 . S
C2450 C2455 1.399 . S
C2451 C2450 1.399 . S
C2451 C2452 1.376 . S
C2452 H2439 0.930 . S
C2452 C2451 1.376 . S
C2452 C2453 1.388 . S
C2453 H2440 0.930 . S
C2453 C2452 1.388 . S
C2453 C2454 1.390 . S
C2454 C2453 1.390 . S
C2454 C2455 1.394 . S
C2454 C2460 1.465 . S
C2455 C2450 1.399 . S
C2455 C2454 1.394 . S
C2455 C2456 1.516 . S
C2456 C2455 1.516 . S
C2456 C2457 1.502 . S
C2456 C2458 1.561 . S
C2456 C2459 1.526 . S
C2457 H2441 0.959 . S
C2457 H2442 0.959 . S
C2457 H2443 0.961 . S
C2457 C2456 1.502 . S
C2458 H2444 0.960 . S
C2458 H2445 0.961 . S
C2458 H2446 0.959 . S
C2458 C2456 1.561 . S
C2459 C2456 1.526 . S
C2459 C2460 1.396 . S
C2459 C2464 1.390 . S
C2460 C2454 1.465 . S
C2460 C2459 1.396 . S
C2460 C2461 1.399 . S
C2461 H2447 0.929 . S
C2461 C2460 1.399 . S
C2461 C2462 1.385 . S
C2462 H2448 0.931 . S
C2462 C2461 1.385 . S
C2462 C2463 1.389 . S
C2463 C2462 1.389 . S
C2463 C2464 1.387 . S
C2464 H2449 0.930 . S
C2464 C2459 1.390 . S
C2464 C2463 1.387 . S
H2465 C2477 0.935 . S
H2466 C2479 0.930 . S
H2467 C2480 0.930 . S
H2468 C2484 0.959 . S
H2469 C2484 0.959 . S
H2470 C2484 0.961 . S
H2471 C2485 0.960 . S
H2472 C2485 0.961 . S
H2473 C2485 0.959 . S
H2474 C2488 0.929 . S
H2475 C2489 0.931 . S
H2476 C2491 0.930 . S
C2477 H2465 0.935 . S
C2477 C2478 1.393 1_545 S
C2477 C2482 1.400 . S
C2478 C2477 1.393 1_565 S
C2478 C2479 1.376 . S
C2479 H2466 0.930 . S
C2479 C2478 1.376 . S
C2479 C2480 1.388 . S
C2480 H2467 0.930 . S
C2480 C2479 1.388 . S
C2480 C2481 1.390 . S
C2481 C2480 1.390 . S
C2481 C2482 1.394 1_565 S
C2481 C2487 1.465 . S
C2482 C2477 1.400 . S
C2482 C2481 1.394 1_545 S
C2482 C2483 1.516 . S
C2483 C2482 1.516 . S
C2483 C2484 1.502 . S
C2483 C2485 1.561 . S
C2483 C2486 1.526 . S
C2484 H2468 0.959 . S
C2484 H2469 0.959 . S
C2484 H2470 0.961 . S
C2484 C2483 1.502 . S
C2485 H2471 0.960 . S
C2485 H2472 0.961 . S
C2485 H2473 0.959 . S
C2485 C2483 1.561 . S
C2486 C2483 1.526 . S
C2486 C2487 1.396 1_545 S
C2486 C2491 1.390 . S
C2487 C2481 1.465 . S
C2487 C2486 1.396 1_565 S
C2487 C2488 1.399 . S
C2488 H2474 0.929 . S
C2488 C2487 1.399 . S
C2488 C2489 1.385 . S
C2489 H2475 0.931 . S
C2489 C2488 1.385 . S
C2489 C2490 1.389 1_565 S
C2490 C2489 1.389 1_545 S
C2490 C2491 1.387 . S
C2491 H2476 0.930 . S
C2491 C2486 1.390 . S
C2491 C2490 1.387 . S
H2492 C2504 0.930 . S
H2493 C2506 0.930 . S
H2494 C2507 0.930 . S
H2495 C2511 0.959 . S
H2496 C2511 0.959 1_556 S
H2497 C2511 0.961 . S
H2498 C2512 0.960 1_554 S
H2499 C2512 0.961 . S
H2500 C2512 0.959 . S
H2501 C2515 0.929 . S
H2502 C2516 0.931 . S
H2503 C2518 0.930 . S
C2504 H2492 0.930 . S
C2504 C2505 1.399 . S
C2504 C2509 1.399 . S
C2505 C2504 1.399 . S
C2505 C2506 1.376 . S
C2506 H2493 0.930 . S
C2506 C2505 1.376 . S
C2506 C2507 1.388 . S
C2507 H2494 0.930 . S
C2507 C2506 1.388 . S
C2507 C2508 1.390 . S
C2508 C2507 1.390 . S
C2508 C2509 1.394 . S
C2508 C2514 1.465 1_554 S
C2509 C2504 1.399 . S
C2509 C2508 1.394 . S
C2509 C2510 1.516 1_554 S
C2510 C2509 1.516 1_556 S
C2510 C2511 1.502 1_556 S
C2510 C2512 1.561 . S
C2510 C2513 1.526 . S
C2511 H2495 0.959 . S
C2511 H2496 0.959 1_554 S
C2511 H2497 0.961 . S
C2511 C2510 1.502 1_554 S
C2512 H2498 0.960 1_556 S
C2512 H2499 0.961 . S
C2512 H2500 0.959 . S
C2512 C2510 1.561 . S
C2513 C2510 1.526 . S
C2513 C2514 1.396 . S
C2513 C2518 1.390 . S
C2514 C2508 1.465 1_556 S
C2514 C2513 1.396 . S
C2514 C2515 1.399 . S
C2515 H2501 0.929 . S
C2515 C2514 1.399 . S
C2515 C2516 1.385 . S
C2516 H2502 0.931 . S
C2516 C2515 1.385 . S
C2516 C2517 1.389 . S
C2517 C2516 1.389 . S
C2517 C2518 1.387 . S
C2518 H2503 0.930 . S
C2518 C2513 1.390 . S
C2518 C2517 1.387 . S
H2519 C2531 0.929 1_565 S
H2520 C2533 0.930 . S
H2521 C2534 0.930 . S
H2522 C2538 0.959 . S
H2523 C2538 0.959 . S
H2524 C2538 0.961 . S
H2525 C2539 0.960 . S
H2526 C2539 0.961 . S
H2527 C2539 0.959 . S
H2528 C2542 0.929 . S
H2529 C2543 0.931 . S
H2530 C2545 0.930 . S
C2531 H2519 0.929 1_545 S
C2531 C2532 1.400 . S
C2531 C2536 1.399 1_545 S
C2532 C2531 1.400 . S
C2532 C2533 1.376 . S
C2533 H2520 0.930 . S
C2533 C2532 1.376 . S
C2533 C2534 1.388 . S
C2534 H2521 0.930 . S
C2534 C2533 1.388 . S
C2534 C2535 1.390 . S
C2535 C2534 1.390 . S
C2535 C2536 1.394 1_545 S
C2535 C2541 1.465 . S
C2536 C2531 1.399 1_565 S
C2536 C2535 1.394 1_565 S
C2536 C2537 1.516 . S
C2537 C2536 1.516 . S
C2537 C2538 1.502 . S
C2537 C2539 1.561 . S
C2537 C2540 1.526 . S
C2538 H2522 0.959 . S
C2538 H2523 0.959 . S
C2538 H2524 0.961 . S
C2538 C2537 1.502 . S
C2539 H2525 0.960 . S
C2539 H2526 0.961 . S
C2539 H2527 0.959 . S
C2539 C2537 1.561 . S
C2540 C2537 1.526 . S
C2540 C2541 1.396 1_565 S
C2540 C2545 1.390 . S
C2541 C2535 1.465 . S
C2541 C2540 1.396 1_545 S
C2541 C2542 1.399 . S
C2542 H2528 0.929 . S
C2542 C2541 1.399 . S
C2542 C2543 1.385 . S
C2543 H2529 0.931 . S
C2543 C2542 1.385 . S
C2543 C2544 1.389 1_545 S
C2544 C2543 1.389 1_565 S
C2544 C2545 1.387 . S
C2545 H2530 0.930 . S
C2545 C2540 1.390 . S
C2545 C2544 1.387 . S
H2546 C2558 0.930 . S
H2547 C2560 0.930 . S
H2548 C2561 0.930 . S
H2549 C2565 0.959 . S
H2550 C2565 0.959 . S
H2551 C2565 0.961 . S
H2552 C2566 0.960 . S
H2553 C2566 0.961 . S
H2554 C2566 0.959 . S
H2555 C2569 0.929 . S
H2556 C2570 0.931 . S
H2557 C2572 0.930 . S
C2558 H2546 0.930 . S
C2558 C2559 1.399 . S
C2558 C2563 1.399 . S
C2559 C2558 1.399 . S
C2559 C2560 1.376 . S
C2560 H2547 0.930 . S
C2560 C2559 1.376 . S
C2560 C2561 1.388 . S
C2561 H2548 0.930 . S
C2561 C2560 1.388 . S
C2561 C2562 1.390 . S
C2562 C2561 1.390 . S
C2562 C2563 1.394 . S
C2562 C2568 1.465 . S
C2563 C2558 1.399 . S
C2563 C2562 1.394 . S
C2563 C2564 1.516 . S
C2564 C2563 1.516 . S
C2564 C2565 1.502 . S
C2564 C2566 1.561 . S
C2564 C2567 1.526 . S
C2565 H2549 0.959 . S
C2565 H2550 0.959 . S
C2565 H2551 0.961 . S
C2565 C2564 1.502 . S
C2566 H2552 0.960 . S
C2566 H2553 0.961 . S
C2566 H2554 0.959 . S
C2566 C2564 1.561 . S
C2567 C2564 1.526 . S
C2567 C2568 1.396 . S
C2567 C2572 1.390 . S
C2568 C2562 1.465 . S
C2568 C2567 1.396 . S
C2568 C2569 1.399 . S
C2569 H2555 0.929 . S
C2569 C2568 1.399 . S
C2569 C2570 1.385 . S
C2570 H2556 0.931 . S
C2570 C2569 1.385 . S
C2570 C2571 1.389 . S
C2571 C2570 1.389 . S
C2571 C2572 1.387 . S
C2572 H2557 0.930 . S
C2572 C2567 1.390 . S
C2572 C2571 1.387 . S
H2573 C2585 0.906 1_545 S
H2574 C2587 0.930 . S
H2575 C2588 0.930 . S
H2576 C2592 0.959 . S
H2577 C2592 0.959 . S
H2578 C2592 0.961 . S
H2579 C2593 0.960 . S
H2580 C2593 0.961 . S
H2581 C2593 0.959 . S
H2582 C2596 0.929 . S
H2583 C2597 0.931 . S
H2584 C2599 0.930 . S
C2585 H2573 0.906 1_565 S
C2585 C2586 1.429 . S
C2585 C2590 1.393 1_565 S
C2586 C2585 1.429 . S
C2586 C2587 1.376 . S
C2587 H2574 0.930 . S
C2587 C2586 1.376 . S
C2587 C2588 1.388 . S
C2588 H2575 0.930 . S
C2588 C2587 1.388 . S
C2588 C2589 1.390 . S
C2589 C2588 1.390 . S
C2589 C2590 1.394 1_565 S
C2589 C2595 1.465 . S
C2590 C2585 1.393 1_545 S
C2590 C2589 1.394 1_545 S
C2590 C2591 1.516 . S
C2591 C2590 1.516 . S
C2591 C2592 1.502 . S
C2591 C2593 1.561 . S
C2591 C2594 1.526 . S
C2592 H2576 0.959 . S
C2592 H2577 0.959 . S
C2592 H2578 0.961 . S
C2592 C2591 1.502 . S
C2593 H2579 0.960 . S
C2593 H2580 0.961 . S
C2593 H2581 0.959 . S
C2593 C2591 1.561 . S
C2594 C2591 1.526 . S
C2594 C2595 1.396 1_545 S
C2594 C2599 1.390 . S
C2595 C2589 1.465 . S
C2595 C2594 1.396 1_565 S
C2595 C2596 1.399 . S
C2596 H2582 0.929 . S
C2596 C2595 1.399 . S
C2596 C2597 1.385 . S
C2597 H2583 0.931 . S
C2597 C2596 1.385 . S
C2597 C2598 1.389 1_565 S
C2598 C2597 1.389 1_545 S
C2598 C2599 1.387 . S
C2599 H2584 0.930 . S
C2599 C2594 1.390 . S
C2599 C2598 1.387 . S
H2600 C2612 0.930 . S
H2601 C2614 0.930 . S
H2602 C2615 0.930 . S
H2603 C2619 0.959 . S
H2604 C2619 0.959 . S
H2605 C2619 0.961 . S
H2606 C2620 0.960 . S
H2607 C2620 0.961 . S
H2608 C2620 0.959 . S
H2609 C2623 0.929 . S
H2610 C2624 0.931 . S
H2611 C2626 0.930 . S
C2612 H2600 0.930 . S
C2612 C2613 1.399 . S
C2612 C2617 1.399 . S
C2613 C2612 1.399 . S
C2613 C2614 1.376 . S
C2614 H2601 0.930 . S
C2614 C2613 1.376 . S
C2614 C2615 1.388 . S
C2615 H2602 0.930 . S
C2615 C2614 1.388 . S
C2615 C2616 1.390 . S
C2616 C2615 1.390 . S
C2616 C2617 1.394 . S
C2616 C2622 1.465 . S
C2617 C2612 1.399 . S
C2617 C2616 1.394 . S
C2617 C2618 1.516 . S
C2618 C2617 1.516 . S
C2618 C2619 1.502 . S
C2618 C2620 1.561 . S
C2618 C2621 1.526 . S
C2619 H2603 0.959 . S
C2619 H2604 0.959 . S
C2619 H2605 0.961 . S
C2619 C2618 1.502 . S
C2620 H2606 0.960 . S
C2620 H2607 0.961 . S
C2620 H2608 0.959 . S
C2620 C2618 1.561 . S
C2621 C2618 1.526 . S
C2621 C2622 1.396 . S
C2621 C2626 1.390 . S
C2622 C2616 1.465 . S
C2622 C2621 1.396 . S
C2622 C2623 1.399 . S
C2623 H2609 0.929 . S
C2623 C2622 1.399 . S
C2623 C2624 1.385 . S
C2624 H2610 0.931 . S
C2624 C2623 1.385 . S
C2624 C2625 1.389 . S
C2625 C2624 1.389 . S
C2625 C2626 1.387 . S
C2626 H2611 0.930 . S
C2626 C2621 1.390 . S
C2626 C2625 1.387 . S
H2627 C2639 0.930 . S
H2628 C2641 0.930 . S
H2629 C2642 0.930 . S
H2630 C2646 0.959 . S
H2631 C2646 0.959 . S
H2632 C2646 0.961 . S
H2633 C2647 0.960 . S
H2634 C2647 0.961 . S
H2635 C2647 0.959 . S
H2636 C2650 0.929 . S
H2637 C2651 0.931 . S
H2638 C2653 0.930 . S
C2639 H2627 0.930 . S
C2639 C2640 1.399 . S
C2639 C2644 1.399 . S
C2640 C2639 1.399 . S
C2640 C2641 1.376 . S
C2641 H2628 0.930 . S
C2641 C2640 1.376 . S
C2641 C2642 1.388 . S
C2642 H2629 0.930 . S
C2642 C2641 1.388 . S
C2642 C2643 1.390 . S
C2643 C2642 1.390 . S
C2643 C2644 1.394 . S
C2643 C2649 1.465 . S
C2644 C2639 1.399 . S
C2644 C2643 1.394 . S
C2644 C2645 1.516 . S
C2645 C2644 1.516 . S
C2645 C2646 1.502 . S
C2645 C2647 1.561 . S
C2645 C2648 1.526 . S
C2646 H2630 0.959 . S
C2646 H2631 0.959 . S
C2646 H2632 0.961 . S
C2646 C2645 1.502 . S
C2647 H2633 0.960 . S
C2647 H2634 0.961 . S
C2647 H2635 0.959 . S
C2647 C2645 1.561 . S
C2648 C2645 1.526 . S
C2648 C2649 1.396 . S
C2648 C2653 1.390 . S
C2649 C2643 1.465 . S
C2649 C2648 1.396 . S
C2649 C2650 1.399 . S
C2650 H2636 0.929 . S
C2650 C2649 1.399 . S
C2650 C2651 1.385 . S
C2651 H2637 0.931 . S
C2651 C2650 1.385 . S
C2651 C2652 1.389 . S
C2652 C2651 1.389 . S
C2652 C2653 1.387 . S
C2653 H2638 0.930 . S
C2653 C2648 1.390 . S
C2653 C2652 1.387 . S
H2654 C2666 0.930 . S
H2655 C2668 0.930 . S
H2656 C2669 0.930 . S
H2657 C2673 0.959 . S
H2658 C2673 0.959 . S
H2659 C2673 0.961 1_554 S
H2660 C2674 0.960 . S
H2661 C2674 0.961 1_556 S
H2662 C2674 0.959 . S
H2663 C2677 0.929 . S
H2664 C2678 0.931 . S
H2665 C2680 0.930 . S
C2666 H2654 0.930 . S
C2666 C2667 1.399 . S
C2666 C2671 1.399 . S
C2667 C2666 1.399 . S
C2667 C2668 1.376 . S
C2668 H2655 0.930 . S
C2668 C2667 1.376 . S
C2668 C2669 1.388 . S
C2669 H2656 0.930 . S
C2669 C2668 1.388 . S
C2669 C2670 1.390 . S
C2670 C2669 1.390 . S
C2670 C2671 1.394 . S
C2670 C2676 1.465 1_554 S
C2671 C2666 1.399 . S
C2671 C2670 1.394 . S
C2671 C2672 1.518 . S
C2672 C2671 1.518 . S
C2672 C2673 1.501 1_554 S
C2672 C2674 1.562 . S
C2672 C2675 1.524 1_554 S
C2673 H2657 0.959 . S
C2673 H2658 0.959 . S
C2673 H2659 0.961 1_556 S
C2673 C2672 1.501 1_556 S
C2674 H2660 0.960 . S
C2674 H2661 0.961 1_554 S
C2674 H2662 0.959 . S
C2674 C2672 1.562 . S
C2675 C2672 1.524 1_556 S
C2675 C2676 1.396 . S
C2675 C2680 1.390 . S
C2676 C2670 1.465 1_556 S
C2676 C2675 1.396 . S
C2676 C2677 1.399 . S
C2677 H2663 0.929 . S
C2677 C2676 1.399 . S
C2677 C2678 1.385 . S
C2678 H2664 0.931 . S
C2678 C2677 1.385 . S
C2678 C2679 1.389 . S
C2679 C2678 1.389 . S
C2679 C2680 1.387 . S
C2680 H2665 0.930 . S
C2680 C2675 1.390 . S
C2680 C2679 1.387 . S
H2681 C2693 0.930 . S
H2682 C2695 0.930 . S
H2683 C2696 0.930 . S
H2684 C2700 0.959 . S
H2685 C2700 0.959 . S
H2686 C2700 0.961 . S
H2687 C2701 0.960 . S
H2688 C2701 0.961 . S
H2689 C2701 0.959 . S
H2690 C2704 0.929 . S
H2691 C2705 0.931 . S
H2692 C2707 0.930 . S
C2693 H2681 0.930 . S
C2693 C2694 1.399 . S
C2693 C2698 1.399 . S
C2694 C2693 1.399 . S
C2694 C2695 1.376 . S
C2695 H2682 0.930 . S
C2695 C2694 1.376 . S
C2695 C2696 1.388 . S
C2696 H2683 0.930 . S
C2696 C2695 1.388 . S
C2696 C2697 1.390 . S
C2697 C2696 1.390 . S
C2697 C2698 1.394 . S
C2697 C2703 1.465 . S
C2698 C2693 1.399 . S
C2698 C2697 1.394 . S
C2698 C2699 1.516 . S
C2699 C2698 1.516 . S
C2699 C2700 1.502 1_455 S
C2699 C2701 1.561 . S
C2699 C2702 1.526 . S
C2700 H2684 0.959 . S
C2700 H2685 0.959 . S
C2700 H2686 0.961 . S
C2700 C2699 1.502 1_655 S
C2701 H2687 0.960 . S
C2701 H2688 0.961 . S
C2701 H2689 0.959 . S
C2701 C2699 1.561 . S
C2702 C2699 1.526 . S
C2702 C2703 1.396 . S
C2702 C2707 1.390 . S
C2703 C2697 1.465 . S
C2703 C2702 1.396 . S
C2703 C2704 1.399 . S
C2704 H2690 0.929 . S
C2704 C2703 1.399 . S
C2704 C2705 1.385 . S
C2705 H2691 0.931 . S
C2705 C2704 1.385 . S
C2705 C2706 1.389 . S
C2706 C2705 1.389 . S
C2706 C2707 1.387 . S
C2707 H2692 0.930 . S
C2707 C2702 1.390 . S
C2707 C2706 1.387 . S
H2708 C2720 0.930 . S
H2709 C2722 0.930 . S
H2710 C2723 0.930 . S
H2711 C2727 0.959 . S
H2712 C2727 0.959 . S
H2713 C2727 0.961 . S
H2714 C2728 0.960 . S
H2715 C2728 0.961 . S
H2716 C2728 0.959 . S
H2717 C2731 0.929 . S
H2718 C2732 0.931 . S
H2719 C2734 0.930 . S
C2720 H2708 0.930 . S
C2720 C2721 1.399 . S
C2720 C2725 1.399 . S
C2721 C2720 1.399 . S
C2721 C2722 1.376 . S
C2722 H2709 0.930 . S
C2722 C2721 1.376 . S
C2722 C2723 1.388 . S
C2723 H2710 0.930 . S
C2723 C2722 1.388 . S
C2723 C2724 1.390 . S
C2724 C2723 1.390 . S
C2724 C2725 1.394 . S
C2724 C2730 1.465 . S
C2725 C2720 1.399 . S
C2725 C2724 1.394 . S
C2725 C2726 1.516 . S
C2726 C2725 1.516 . S
C2726 C2727 1.502 . S
C2726 C2728 1.561 . S
C2726 C2729 1.526 . S
C2727 H2711 0.959 . S
C2727 H2712 0.959 . S
C2727 H2713 0.961 . S
C2727 C2726 1.502 . S
C2728 H2714 0.960 . S
C2728 H2715 0.961 . S
C2728 H2716 0.959 . S
C2728 C2726 1.561 . S
C2729 C2726 1.526 . S
C2729 C2730 1.396 . S
C2729 C2734 1.390 . S
C2730 C2724 1.465 . S
C2730 C2729 1.396 . S
C2730 C2731 1.399 . S
C2731 H2717 0.929 . S
C2731 C2730 1.399 . S
C2731 C2732 1.385 . S
C2732 H2718 0.931 . S
C2732 C2731 1.385 . S
C2732 C2733 1.389 . S
C2733 C2732 1.389 . S
C2733 C2734 1.387 . S
C2734 H2719 0.930 . S
C2734 C2729 1.390 . S
C2734 C2733 1.387 . S
H2735 C2747 0.930 . S
H2736 C2749 0.930 . S
H2737 C2750 0.930 . S
H2738 C2754 0.959 . S
H2739 C2754 0.959 . S
H2740 C2754 0.961 . S
H2741 C2755 0.960 . S
H2742 C2755 0.961 . S
H2743 C2755 0.959 . S
H2744 C2758 0.929 . S
H2745 C2759 0.931 . S
H2746 C2761 0.930 . S
C2747 H2735 0.930 . S
C2747 C2748 1.399 . S
C2747 C2752 1.399 . S
C2748 C2747 1.399 . S
C2748 C2749 1.376 . S
C2749 H2736 0.930 . S
C2749 C2748 1.376 . S
C2749 C2750 1.388 . S
C2750 H2737 0.930 . S
C2750 C2749 1.388 . S
C2750 C2751 1.390 . S
C2751 C2750 1.390 . S
C2751 C2752 1.394 . S
C2751 C2757 1.465 . S
C2752 C2747 1.399 . S
C2752 C2751 1.394 . S
C2752 C2753 1.516 . S
C2753 C2752 1.516 . S
C2753 C2754 1.502 . S
C2753 C2755 1.561 . S
C2753 C2756 1.526 . S
C2754 H2738 0.959 . S
C2754 H2739 0.959 . S
C2754 H2740 0.961 . S
C2754 C2753 1.502 . S
C2755 H2741 0.960 . S
C2755 H2742 0.961 . S
C2755 H2743 0.959 . S
C2755 C2753 1.561 . S
C2756 C2753 1.526 . S
C2756 C2757 1.396 . S
C2756 C2761 1.390 . S
C2757 C2751 1.465 . S
C2757 C2756 1.396 . S
C2757 C2758 1.399 . S
C2758 H2744 0.929 . S
C2758 C2757 1.399 . S
C2758 C2759 1.385 . S
C2759 H2745 0.931 . S
C2759 C2758 1.385 . S
C2759 C2760 1.389 . S
C2760 C2759 1.389 . S
C2760 C2761 1.387 . S
C2761 H2746 0.930 . S
C2761 C2756 1.390 . S
C2761 C2760 1.387 . S
H2762 C2774 0.930 . S
H2763 C2776 0.930 . S
H2764 C2777 0.930 . S
H2765 C2781 0.959 . S
H2766 C2781 0.959 . S
H2767 C2781 0.961 1_556 S
H2768 C2782 0.960 . S
H2769 C2782 0.961 1_554 S
H2770 C2782 0.959 . S
H2771 C2785 0.929 . S
H2772 C2786 0.931 . S
H2773 C2788 0.930 . S
C2774 H2762 0.930 . S
C2774 C2775 1.399 . S
C2774 C2779 1.399 . S
C2775 C2774 1.399 . S
C2775 C2776 1.376 . S
C2776 H2763 0.930 . S
C2776 C2775 1.376 . S
C2776 C2777 1.388 . S
C2777 H2764 0.930 . S
C2777 C2776 1.388 . S
C2777 C2778 1.390 . S
C2778 C2777 1.390 . S
C2778 C2779 1.394 . S
C2778 C2784 1.465 1_556 S
C2779 C2774 1.399 . S
C2779 C2778 1.394 . S
C2779 C2780 1.516 1_556 S
C2780 C2779 1.516 1_554 S
C2780 C2781 1.502 . S
C2780 C2782 1.561 1_554 S
C2780 C2783 1.526 . S
C2781 H2765 0.959 . S
C2781 H2766 0.959 . S
C2781 H2767 0.961 1_554 S
C2781 C2780 1.502 . S
C2782 H2768 0.960 . S
C2782 H2769 0.961 1_556 S
C2782 H2770 0.959 . S
C2782 C2780 1.561 1_556 S
C2783 C2780 1.526 . S
C2783 C2784 1.396 . S
C2783 C2788 1.390 . S
C2784 C2778 1.465 1_554 S
C2784 C2783 1.396 . S
C2784 C2785 1.399 . S
C2785 H2771 0.929 . S
C2785 C2784 1.399 . S
C2785 C2786 1.385 . S
C2786 H2772 0.931 . S
C2786 C2785 1.385 . S
C2786 C2787 1.389 . S
C2787 C2786 1.389 . S
C2787 C2788 1.387 . S
C2788 H2773 0.930 . S
C2788 C2783 1.390 . S
C2788 C2787 1.387 . S
H2789 C2801 0.930 . S
H2790 C2803 0.930 . S
H2791 C2804 0.930 . S
H2792 C2808 0.959 1_455 S
H2793 C2808 0.956 1_455 S
H2794 C2808 0.961 1_455 S
H2795 C2809 0.960 . S
H2796 C2809 0.961 . S
H2797 C2809 0.959 . S
H2798 C2812 0.929 . S
H2799 C2813 0.931 . S
H2800 C2815 0.930 . S
C2801 H2789 0.930 . S
C2801 C2802 1.399 . S
C2801 C2806 1.399 . S
C2802 C2801 1.399 . S
C2802 C2803 1.376 . S
C2803 H2790 0.930 . S
C2803 C2802 1.376 . S
C2803 C2804 1.388 . S
C2804 H2791 0.930 . S
C2804 C2803 1.388 . S
C2804 C2805 1.390 . S
C2805 C2804 1.390 . S
C2805 C2806 1.394 . S
C2805 C2811 1.465 . S
C2806 C2801 1.399 . S
C2806 C2805 1.394 . S
C2806 C2807 1.516 . S
C2807 C2806 1.516 . S
C2807 C2808 1.502 . S
C2807 C2809 1.561 . S
C2807 C2810 1.526 . S
C2808 H2792 0.959 1_655 S
C2808 H2793 0.956 1_655 S
C2808 H2794 0.961 1_655 S
C2808 C2807 1.502 . S
C2809 H2795 0.960 . S
C2809 H2796 0.961 . S
C2809 H2797 0.959 . S
C2809 C2807 1.561 . S
C2810 C2807 1.526 . S
C2810 C2811 1.396 . S
C2810 C2815 1.390 . S
C2811 C2805 1.465 . S
C2811 C2810 1.396 . S
C2811 C2812 1.399 . S
C2812 H2798 0.929 . S
C2812 C2811 1.399 . S
C2812 C2813 1.385 . S
C2813 H2799 0.931 . S
C2813 C2812 1.385 . S
C2813 C2814 1.389 . S
C2814 C2813 1.389 . S
C2814 C2815 1.387 . S
C2815 H2800 0.930 . S
C2815 C2810 1.390 . S
C2815 C2814 1.387 . S
H2816 C2828 0.930 . S
H2817 C2830 0.930 . S
H2818 C2831 0.930 . S
H2819 C2835 0.959 . S
H2820 C2835 0.959 . S
H2821 C2835 0.961 . S
H2822 C2836 0.960 . S
H2823 C2836 0.961 . S
H2824 C2836 0.959 . S
H2825 C2839 0.929 . S
H2826 C2840 0.931 . S
H2827 C2842 0.930 . S
C2828 H2816 0.930 . S
C2828 C2829 1.399 . S
C2828 C2833 1.399 . S
C2829 C2828 1.399 . S
C2829 C2830 1.376 . S
C2830 H2817 0.930 . S
C2830 C2829 1.376 . S
C2830 C2831 1.388 . S
C2831 H2818 0.930 . S
C2831 C2830 1.388 . S
C2831 C2832 1.390 . S
C2832 C2831 1.390 . S
C2832 C2833 1.394 . S
C2832 C2838 1.465 . S
C2833 C2828 1.399 . S
C2833 C2832 1.394 . S
C2833 C2834 1.516 . S
C2834 C2833 1.516 . S
C2834 C2835 1.502 . S
C2834 C2836 1.561 . S
C2834 C2837 1.526 . S
C2835 H2819 0.959 . S
C2835 H2820 0.959 . S
C2835 H2821 0.961 . S
C2835 C2834 1.502 . S
C2836 H2822 0.960 . S
C2836 H2823 0.961 . S
C2836 H2824 0.959 . S
C2836 C2834 1.561 . S
C2837 C2834 1.526 . S
C2837 C2838 1.396 . S
C2837 C2842 1.390 . S
C2838 C2832 1.465 . S
C2838 C2837 1.396 . S
C2838 C2839 1.399 . S
C2839 H2825 0.929 . S
C2839 C2838 1.399 . S
C2839 C2840 1.385 . S
C2840 H2826 0.931 . S
C2840 C2839 1.385 . S
C2840 C2841 1.389 . S
C2841 C2840 1.389 . S
C2841 C2842 1.387 . S
C2842 H2827 0.930 . S
C2842 C2837 1.390 . S
C2842 C2841 1.387 . S
H2843 C2855 0.930 . S
H2844 C2857 0.930 . S
H2845 C2858 0.930 . S
H2846 C2862 0.959 . S
H2847 C2862 0.959 . S
H2848 C2862 0.961 . S
H2849 C2863 0.960 . S
H2850 C2863 0.961 . S
H2851 C2863 0.959 . S
H2852 C2866 0.929 . S
H2853 C2867 0.931 . S
H2854 C2869 0.930 . S
C2855 H2843 0.930 . S
C2855 C2856 1.399 . S
C2855 C2860 1.399 . S
C2856 C2855 1.399 . S
C2856 C2857 1.376 . S
C2857 H2844 0.930 . S
C2857 C2856 1.376 . S
C2857 C2858 1.388 . S
C2858 H2845 0.930 . S
C2858 C2857 1.388 . S
C2858 C2859 1.390 . S
C2859 C2858 1.390 . S
C2859 C2860 1.394 . S
C2859 C2865 1.465 . S
C2860 C2855 1.399 . S
C2860 C2859 1.394 . S
C2860 C2861 1.516 . S
C2861 C2860 1.516 . S
C2861 C2862 1.502 . S
C2861 C2863 1.561 . S
C2861 C2864 1.526 . S
C2862 H2846 0.959 . S
C2862 H2847 0.959 . S
C2862 H2848 0.961 . S
C2862 C2861 1.502 . S
C2863 H2849 0.960 . S
C2863 H2850 0.961 . S
C2863 H2851 0.959 . S
C2863 C2861 1.561 . S
C2864 C2861 1.526 . S
C2864 C2865 1.396 . S
C2864 C2869 1.390 . S
C2865 C2859 1.465 . S
C2865 C2864 1.396 . S
C2865 C2866 1.399 . S
C2866 H2852 0.929 . S
C2866 C2865 1.399 . S
C2866 C2867 1.385 . S
C2867 H2853 0.931 . S
C2867 C2866 1.385 . S
C2867 C2868 1.389 . S
C2868 C2867 1.389 . S
C2868 C2869 1.387 . S
C2869 H2854 0.930 . S
C2869 C2864 1.390 . S
C2869 C2868 1.387 . S
H2870 C2882 0.930 . S
H2871 C2884 0.930 . S
H2872 C2885 0.930 . S
H2873 C2889 0.959 . S
H2874 C2889 0.959 . S
H2875 C2889 0.961 . S
H2876 C2890 0.960 . S
H2877 C2890 0.961 . S
H2878 C2890 0.959 . S
H2879 C2893 0.929 . S
H2880 C2894 0.931 . S
H2881 C2896 0.930 . S
C2882 H2870 0.930 . S
C2882 C2883 1.399 . S
C2882 C2887 1.399 . S
C2883 C2882 1.399 . S
C2883 C2884 1.376 . S
C2884 H2871 0.930 . S
C2884 C2883 1.376 . S
C2884 C2885 1.388 . S
C2885 H2872 0.930 . S
C2885 C2884 1.388 . S
C2885 C2886 1.390 . S
C2886 C2885 1.390 . S
C2886 C2887 1.394 . S
C2886 C2892 1.465 . S
C2887 C2882 1.399 . S
C2887 C2886 1.394 . S
C2887 C2888 1.516 . S
C2888 C2887 1.516 . S
C2888 C2889 1.502 . S
C2888 C2890 1.561 . S
C2888 C2891 1.526 . S
C2889 H2873 0.959 . S
C2889 H2874 0.959 . S
C2889 H2875 0.961 . S
C2889 C2888 1.502 . S
C2890 H2876 0.960 . S
C2890 H2877 0.961 . S
C2890 H2878 0.959 . S
C2890 C2888 1.561 . S
C2891 C2888 1.526 . S
C2891 C2892 1.396 . S
C2891 C2896 1.390 . S
C2892 C2886 1.465 . S
C2892 C2891 1.396 . S
C2892 C2893 1.399 . S
C2893 H2879 0.929 . S
C2893 C2892 1.399 . S
C2893 C2894 1.385 . S
C2894 H2880 0.931 . S
C2894 C2893 1.385 . S
C2894 C2895 1.389 . S
C2895 C2894 1.389 . S
C2895 C2896 1.387 . S
C2896 H2881 0.930 . S
C2896 C2891 1.390 . S
C2896 C2895 1.387 . S
H2897 C2909 0.930 . S
H2898 C2911 0.930 . S
H2899 C2912 0.930 . S
H2900 C2916 0.959 . S
H2901 C2916 0.959 . S
H2902 C2916 0.961 . S
H2903 C2917 0.960 . S
H2904 C2917 0.961 . S
H2905 C2917 0.959 . S
H2906 C2920 0.929 . S
H2907 C2921 0.931 . S
H2908 C2923 0.930 . S
C2909 H2897 0.930 . S
C2909 C2910 1.399 . S
C2909 C2914 1.399 . S
C2910 C2909 1.399 . S
C2910 C2911 1.376 . S
C2911 H2898 0.930 . S
C2911 C2910 1.376 . S
C2911 C2912 1.388 . S
C2912 H2899 0.930 . S
C2912 C2911 1.388 . S
C2912 C2913 1.390 . S
C2913 C2912 1.390 . S
C2913 C2914 1.394 . S
C2913 C2919 1.465 . S
C2914 C2909 1.399 . S
C2914 C2913 1.394 . S
C2914 C2915 1.516 . S
C2915 C2914 1.516 . S
C2915 C2916 1.502 . S
C2915 C2917 1.561 . S
C2915 C2918 1.526 . S
C2916 H2900 0.959 . S
C2916 H2901 0.959 . S
C2916 H2902 0.961 . S
C2916 C2915 1.502 . S
C2917 H2903 0.960 . S
C2917 H2904 0.961 . S
C2917 H2905 0.959 . S
C2917 C2915 1.561 . S
C2918 C2915 1.526 . S
C2918 C2919 1.396 . S
C2918 C2923 1.390 . S
C2919 C2913 1.465 . S
C2919 C2918 1.396 . S
C2919 C2920 1.399 . S
C2920 H2906 0.929 . S
C2920 C2919 1.399 . S
C2920 C2921 1.385 . S
C2921 H2907 0.931 . S
C2921 C2920 1.385 . S
C2921 C2922 1.389 . S
C2922 C2921 1.389 . S
C2922 C2923 1.387 . S
C2923 H2908 0.930 . S
C2923 C2918 1.390 . S
C2923 C2922 1.387 . S
H2924 C2936 0.930 . S
H2925 C2938 0.930 . S
H2926 C2939 0.930 . S
H2927 C2943 0.959 . S
H2928 C2943 0.959 . S
H2929 C2943 0.961 . S
H2930 C2944 0.960 . S
H2931 C2944 0.961 . S
H2932 C2944 0.959 . S
H2933 C2947 0.929 . S
H2934 C2948 0.931 . S
H2935 C2950 0.930 . S
C2936 H2924 0.930 . S
C2936 C2937 1.399 . S
C2936 C2941 1.399 . S
C2937 C2936 1.399 . S
C2937 C2938 1.376 . S
C2938 H2925 0.930 . S
C2938 C2937 1.376 . S
C2938 C2939 1.388 . S
C2939 H2926 0.930 . S
C2939 C2938 1.388 . S
C2939 C2940 1.390 . S
C2940 C2939 1.390 . S
C2940 C2941 1.394 . S
C2940 C2946 1.465 . S
C2941 C2936 1.399 . S
C2941 C2940 1.394 . S
C2941 C2942 1.516 . S
C2942 C2941 1.516 . S
C2942 C2943 1.502 . S
C2942 C2944 1.561 . S
C2942 C2945 1.526 . S
C2943 H2927 0.959 . S
C2943 H2928 0.959 . S
C2943 H2929 0.961 . S
C2943 C2942 1.502 . S
C2944 H2930 0.960 . S
C2944 H2931 0.961 . S
C2944 H2932 0.959 . S
C2944 C2942 1.561 . S
C2945 C2942 1.526 . S
C2945 C2946 1.396 . S
C2945 C2950 1.390 . S
C2946 C2940 1.465 . S
C2946 C2945 1.396 . S
C2946 C2947 1.399 . S
C2947 H2933 0.929 . S
C2947 C2946 1.399 . S
C2947 C2948 1.385 . S
C2948 H2934 0.931 . S
C2948 C2947 1.385 . S
C2948 C2949 1.389 . S
C2949 C2948 1.389 . S
C2949 C2950 1.387 . S
C2950 H2935 0.930 . S
C2950 C2945 1.390 . S
C2950 C2949 1.387 . S
H2951 C2963 0.930 . S
H2952 C2965 0.930 . S
H2953 C2966 0.930 . S
H2954 C2970 0.959 . S
H2955 C2970 0.959 . S
H2956 C2970 0.961 . S
H2957 C2971 0.960 . S
H2958 C2971 0.961 . S
H2959 C2971 0.959 . S
H2960 C2974 0.929 . S
H2961 C2975 0.931 . S
H2962 C2977 0.930 . S
C2963 H2951 0.930 . S
C2963 C2964 1.399 . S
C2963 C2968 1.399 . S
C2964 C2963 1.399 . S
C2964 C2965 1.376 . S
C2965 H2952 0.930 . S
C2965 C2964 1.376 . S
C2965 C2966 1.388 . S
C2966 H2953 0.930 . S
C2966 C2965 1.388 . S
C2966 C2967 1.390 . S
C2967 C2966 1.390 . S
C2967 C2968 1.394 . S
C2967 C2973 1.465 . S
C2968 C2963 1.399 . S
C2968 C2967 1.394 . S
C2968 C2969 1.516 . S
C2969 C2968 1.516 . S
C2969 C2970 1.502 . S
C2969 C2971 1.561 . S
C2969 C2972 1.526 . S
C2970 H2954 0.959 . S
C2970 H2955 0.959 . S
C2970 H2956 0.961 . S
C2970 C2969 1.502 . S
C2971 H2957 0.960 . S
C2971 H2958 0.961 . S
C2971 H2959 0.959 . S
C2971 C2969 1.561 . S
C2972 C2969 1.526 . S
C2972 C2973 1.396 . S
C2972 C2977 1.390 . S
C2973 C2967 1.465 . S
C2973 C2972 1.396 . S
C2973 C2974 1.399 . S
C2974 H2960 0.929 . S
C2974 C2973 1.399 . S
C2974 C2975 1.385 . S
C2975 H2961 0.931 . S
C2975 C2974 1.385 . S
C2975 C2976 1.389 . S
C2976 C2975 1.389 . S
C2976 C2977 1.387 . S
C2977 H2962 0.930 . S
C2977 C2972 1.390 . S
C2977 C2976 1.387 . S
H2978 C2990 0.930 . S
H2979 C2992 0.930 . S
H2980 C2993 0.930 . S
H2981 C2997 0.959 . S
H2982 C2997 0.959 . S
H2983 C2997 0.961 . S
H2984 C2998 0.960 . S
H2985 C2998 0.961 . S
H2986 C2998 0.959 . S
H2987 C3001 0.929 . S
H2988 C3002 0.931 . S
H2989 C3004 0.930 . S
C2990 H2978 0.930 . S
C2990 C2991 1.399 . S
C2990 C2995 1.399 . S
C2991 C2990 1.399 . S
C2991 C2992 1.376 . S
C2992 H2979 0.930 . S
C2992 C2991 1.376 . S
C2992 C2993 1.388 . S
C2993 H2980 0.930 . S
C2993 C2992 1.388 . S
C2993 C2994 1.390 . S
C2994 C2993 1.390 . S
C2994 C2995 1.394 . S
C2994 C3000 1.465 . S
C2995 C2990 1.399 . S
C2995 C2994 1.394 . S
C2995 C2996 1.516 . S
C2996 C2995 1.516 . S
C2996 C2997 1.502 . S
C2996 C2998 1.561 . S
C2996 C2999 1.526 . S
C2997 H2981 0.959 . S
C2997 H2982 0.959 . S
C2997 H2983 0.961 . S
C2997 C2996 1.502 . S
C2998 H2984 0.960 . S
C2998 H2985 0.961 . S
C2998 H2986 0.959 . S
C2998 C2996 1.561 . S
C2999 C2996 1.526 . S
C2999 C3000 1.396 . S
C2999 C3004 1.390 . S
C3000 C2994 1.465 . S
C3000 C2999 1.396 . S
C3000 C3001 1.399 . S
C3001 H2987 0.929 . S
C3001 C3000 1.399 . S
C3001 C3002 1.385 . S
C3002 H2988 0.931 . S
C3002 C3001 1.385 . S
C3002 C3003 1.389 . S
C3003 C3002 1.389 . S
C3003 C3004 1.387 . S
C3004 H2989 0.930 . S
C3004 C2999 1.390 . S
C3004 C3003 1.387 . S
H3005 C3017 0.930 . S
H3006 C3019 0.930 . S
H3007 C3020 0.930 . S
H3008 C3024 0.959 . S
H3009 C3024 0.959 . S
H3010 C3024 0.961 . S
H3011 C3025 0.960 . S
H3012 C3025 0.961 . S
H3013 C3025 0.959 . S
H3014 C3028 0.929 . S
H3015 C3029 0.931 . S
H3016 C3031 0.930 . S
C3017 H3005 0.930 . S
C3017 C3018 1.399 . S
C3017 C3022 1.399 . S
C3018 C3017 1.399 . S
C3018 C3019 1.376 . S
C3019 H3006 0.930 . S
C3019 C3018 1.376 . S
C3019 C3020 1.388 . S
C3020 H3007 0.930 . S
C3020 C3019 1.388 . S
C3020 C3021 1.390 . S
C3021 C3020 1.390 . S
C3021 C3022 1.394 . S
C3021 C3027 1.465 . S
C3022 C3017 1.399 . S
C3022 C3021 1.394 . S
C3022 C3023 1.516 . S
C3023 C3022 1.516 . S
C3023 C3024 1.502 . S
C3023 C3025 1.561 . S
C3023 C3026 1.526 . S
C3024 H3008 0.959 . S
C3024 H3009 0.959 . S
C3024 H3010 0.961 . S
C3024 C3023 1.502 . S
C3025 H3011 0.960 . S
C3025 H3012 0.961 . S
C3025 H3013 0.959 . S
C3025 C3023 1.561 . S
C3026 C3023 1.526 . S
C3026 C3027 1.396 . S
C3026 C3031 1.390 . S
C3027 C3021 1.465 . S
C3027 C3026 1.396 . S
C3027 C3028 1.399 . S
C3028 H3014 0.929 . S
C3028 C3027 1.399 . S
C3028 C3029 1.385 . S
C3029 H3015 0.931 . S
C3029 C3028 1.385 . S
C3029 C3030 1.389 . S
C3030 C3029 1.389 . S
C3030 C3031 1.387 . S
C3031 H3016 0.930 . S
C3031 C3026 1.390 . S
C3031 C3030 1.387 . S
H3032 C3044 0.930 . S
H3033 C3046 0.930 . S
H3034 C3047 0.930 . S
H3035 C3051 0.959 . S
H3036 C3051 0.959 . S
H3037 C3051 0.961 . S
H3038 C3052 0.960 . S
H3039 C3052 0.961 . S
H3040 C3052 0.959 . S
H3041 C3055 0.929 . S
H3042 C3056 0.931 . S
H3043 C3058 0.930 . S
C3044 H3032 0.930 . S
C3044 C3045 1.399 . S
C3044 C3049 1.399 . S
C3045 C3044 1.399 . S
C3045 C3046 1.376 . S
C3046 H3033 0.930 . S
C3046 C3045 1.376 . S
C3046 C3047 1.388 . S
C3047 H3034 0.930 . S
C3047 C3046 1.388 . S
C3047 C3048 1.390 . S
C3048 C3047 1.390 . S
C3048 C3049 1.394 . S
C3048 C3054 1.465 . S
C3049 C3044 1.399 . S
C3049 C3048 1.394 . S
C3049 C3050 1.516 . S
C3050 C3049 1.516 . S
C3050 C3051 1.502 . S
C3050 C3052 1.561 . S
C3050 C3053 1.526 . S
C3051 H3035 0.959 . S
C3051 H3036 0.959 . S
C3051 H3037 0.961 . S
C3051 C3050 1.502 . S
C3052 H3038 0.960 . S
C3052 H3039 0.961 . S
C3052 H3040 0.959 . S
C3052 C3050 1.561 . S
C3053 C3050 1.526 . S
C3053 C3054 1.396 . S
C3053 C3058 1.390 . S
C3054 C3048 1.465 . S
C3054 C3053 1.396 . S
C3054 C3055 1.399 . S
C3055 H3041 0.929 . S
C3055 C3054 1.399 . S
C3055 C3056 1.385 . S
C3056 H3042 0.931 . S
C3056 C3055 1.385 . S
C3056 C3057 1.389 . S
C3057 C3056 1.389 . S
C3057 C3058 1.387 . S
C3058 H3043 0.930 . S
C3058 C3053 1.390 . S
C3058 C3057 1.387 . S
H3059 C3071 0.930 . S
H3060 C3073 0.930 . S
H3061 C3074 0.930 . S
H3062 C3078 0.959 . S
H3063 C3078 0.959 . S
H3064 C3078 0.961 . S
H3065 C3079 0.960 . S
H3066 C3079 0.961 . S
H3067 C3079 0.959 . S
H3068 C3082 0.929 . S
H3069 C3083 0.931 . S
H3070 C3085 0.930 . S
C3071 H3059 0.930 . S
C3071 C3072 1.399 . S
C3071 C3076 1.399 . S
C3072 C3071 1.399 . S
C3072 C3073 1.376 . S
C3073 H3060 0.930 . S
C3073 C3072 1.376 . S
C3073 C3074 1.388 . S
C3074 H3061 0.930 . S
C3074 C3073 1.388 . S
C3074 C3075 1.390 . S
C3075 C3074 1.390 . S
C3075 C3076 1.394 . S
C3075 C3081 1.465 . S
C3076 C3071 1.399 . S
C3076 C3075 1.394 . S
C3076 C3077 1.516 . S
C3077 C3076 1.516 . S
C3077 C3078 1.502 . S
C3077 C3079 1.561 . S
C3077 C3080 1.526 . S
C3078 H3062 0.959 . S
C3078 H3063 0.959 . S
C3078 H3064 0.961 . S
C3078 C3077 1.502 . S
C3079 H3065 0.960 . S
C3079 H3066 0.961 . S
C3079 H3067 0.959 . S
C3079 C3077 1.561 . S
C3080 C3077 1.526 . S
C3080 C3081 1.396 . S
C3080 C3085 1.390 . S
C3081 C3075 1.465 . S
C3081 C3080 1.396 . S
C3081 C3082 1.399 . S
C3082 H3068 0.929 . S
C3082 C3081 1.399 . S
C3082 C3083 1.385 . S
C3083 H3069 0.931 . S
C3083 C3082 1.385 . S
C3083 C3084 1.389 . S
C3084 C3083 1.389 . S
C3084 C3085 1.387 . S
C3085 H3070 0.930 . S
C3085 C3080 1.390 . S
C3085 C3084 1.387 . S
H3086 C3098 0.930 . S
H3087 C3100 0.930 . S
H3088 C3101 0.930 . S
H3089 C3105 0.959 . S
H3090 C3105 0.959 . S
H3091 C3105 0.961 . S
H3092 C3106 0.960 . S
H3093 C3106 0.961 . S
H3094 C3106 0.959 . S
H3095 C3109 0.929 . S
H3096 C3110 0.931 . S
H3097 C3112 0.930 . S
C3098 H3086 0.930 . S
C3098 C3099 1.399 . S
C3098 C3103 1.399 . S
C3099 C3098 1.399 . S
C3099 C3100 1.376 . S
C3100 H3087 0.930 . S
C3100 C3099 1.376 . S
C3100 C3101 1.388 . S
C3101 H3088 0.930 . S
C3101 C3100 1.388 . S
C3101 C3102 1.390 . S
C3102 C3101 1.390 . S
C3102 C3103 1.394 . S
C3102 C3108 1.465 . S
C3103 C3098 1.399 . S
C3103 C3102 1.394 . S
C3103 C3104 1.516 . S
C3104 C3103 1.516 . S
C3104 C3105 1.502 . S
C3104 C3106 1.561 . S
C3104 C3107 1.526 . S
C3105 H3089 0.959 . S
C3105 H3090 0.959 . S
C3105 H3091 0.961 . S
C3105 C3104 1.502 . S
C3106 H3092 0.960 . S
C3106 H3093 0.961 . S
C3106 H3094 0.959 . S
C3106 C3104 1.561 . S
C3107 C3104 1.526 . S
C3107 C3108 1.396 . S
C3107 C3112 1.390 . S
C3108 C3102 1.465 . S
C3108 C3107 1.396 . S
C3108 C3109 1.399 . S
C3109 H3095 0.929 . S
C3109 C3108 1.399 . S
C3109 C3110 1.385 . S
C3110 H3096 0.931 . S
C3110 C3109 1.385 . S
C3110 C3111 1.389 . S
C3111 C3110 1.389 . S
C3111 C3112 1.387 . S
C3112 H3097 0.930 . S
C3112 C3107 1.390 . S
C3112 C3111 1.387 . S
H3113 C3125 0.930 . S
H3114 C3127 0.930 . S
H3115 C3128 0.930 . S
H3116 C3132 0.959 . S
H3117 C3132 0.959 . S
H3118 C3132 0.961 . S
H3119 C3133 0.960 . S
H3120 C3133 0.961 . S
H3121 C3133 0.959 . S
H3122 C3136 0.929 . S
H3123 C3137 0.931 . S
H3124 C3139 0.930 . S
C3125 H3113 0.930 . S
C3125 C3126 1.399 . S
C3125 C3130 1.399 . S
C3126 C3125 1.399 . S
C3126 C3127 1.376 . S
C3127 H3114 0.930 . S
C3127 C3126 1.376 . S
C3127 C3128 1.388 . S
C3128 H3115 0.930 . S
C3128 C3127 1.388 . S
C3128 C3129 1.390 . S
C3129 C3128 1.390 . S
C3129 C3130 1.394 . S
C3129 C3135 1.465 . S
C3130 C3125 1.399 . S
C3130 C3129 1.394 . S
C3130 C3131 1.516 . S
C3131 C3130 1.516 . S
C3131 C3132 1.502 . S
C3131 C3133 1.561 . S
C3131 C3134 1.526 . S
C3132 H3116 0.959 . S
C3132 H3117 0.959 . S
C3132 H3118 0.961 . S
C3132 C3131 1.502 . S
C3133 H3119 0.960 . S
C3133 H3120 0.961 . S
C3133 H3121 0.959 . S
C3133 C3131 1.561 . S
C3134 C3131 1.526 . S
C3134 C3135 1.396 . S
C3134 C3139 1.390 . S
C3135 C3129 1.465 . S
C3135 C3134 1.396 . S
C3135 C3136 1.399 . S
C3136 H3122 0.929 . S
C3136 C3135 1.399 . S
C3136 C3137 1.385 . S
C3137 H3123 0.931 . S
C3137 C3136 1.385 . S
C3137 C3138 1.389 . S
C3138 C3137 1.389 . S
C3138 C3139 1.387 . S
C3139 H3124 0.930 . S
C3139 C3134 1.390 . S
C3139 C3138 1.387 . S
H3140 C3152 0.930 . S
H3141 C3154 0.930 . S
H3142 C3155 0.930 . S
H3143 C3159 0.959 . S
H3144 C3159 0.959 . S
H3145 C3159 0.961 . S
H3146 C3160 0.960 . S
H3147 C3160 0.961 . S
H3148 C3160 0.959 . S
H3149 C3163 0.929 . S
H3150 C3164 0.931 . S
H3151 C3166 0.930 . S
C3152 H3140 0.930 . S
C3152 C3153 1.399 . S
C3152 C3157 1.399 . S
C3153 C3152 1.399 . S
C3153 C3154 1.376 . S
C3154 H3141 0.930 . S
C3154 C3153 1.376 . S
C3154 C3155 1.388 . S
C3155 H3142 0.930 . S
C3155 C3154 1.388 . S
C3155 C3156 1.390 . S
C3156 C3155 1.390 . S
C3156 C3157 1.394 . S
C3156 C3162 1.465 . S
C3157 C3152 1.399 . S
C3157 C3156 1.394 . S
C3157 C3158 1.516 . S
C3158 C3157 1.516 . S
C3158 C3159 1.502 . S
C3158 C3160 1.561 . S
C3158 C3161 1.526 . S
C3159 H3143 0.959 . S
C3159 H3144 0.959 . S
C3159 H3145 0.961 . S
C3159 C3158 1.502 . S
C3160 H3146 0.960 . S
C3160 H3147 0.961 . S
C3160 H3148 0.959 . S
C3160 C3158 1.561 . S
C3161 C3158 1.526 . S
C3161 C3162 1.396 . S
C3161 C3166 1.390 . S
C3162 C3156 1.465 . S
C3162 C3161 1.396 . S
C3162 C3163 1.399 . S
C3163 H3149 0.929 . S
C3163 C3162 1.399 . S
C3163 C3164 1.385 . S
C3164 H3150 0.931 . S
C3164 C3163 1.385 . S
C3164 C3165 1.389 . S
C3165 C3164 1.389 . S
C3165 C3166 1.387 . S
C3166 H3151 0.930 . S
C3166 C3161 1.390 . S
C3166 C3165 1.387 . S
H3167 C3179 0.930 . S
H3168 C3181 0.930 . S
H3169 C3182 0.930 . S
H3170 C3186 0.959 . S
H3171 C3186 0.959 . S
H3172 C3186 0.961 . S
H3173 C3187 0.960 . S
H3174 C3187 0.961 . S
H3175 C3187 0.959 . S
H3176 C3190 0.929 . S
H3177 C3191 0.931 . S
H3178 C3193 0.930 . S
C3179 H3167 0.930 . S
C3179 C3180 1.399 . S
C3179 C3184 1.399 . S
C3180 C3179 1.399 . S
C3180 C3181 1.376 . S
C3181 H3168 0.930 . S
C3181 C3180 1.376 . S
C3181 C3182 1.388 . S
C3182 H3169 0.930 . S
C3182 C3181 1.388 . S
C3182 C3183 1.390 . S
C3183 C3182 1.390 . S
C3183 C3184 1.394 . S
C3183 C3189 1.465 . S
C3184 C3179 1.399 . S
C3184 C3183 1.394 . S
C3184 C3185 1.516 . S
C3185 C3184 1.516 . S
C3185 C3186 1.502 . S
C3185 C3187 1.561 . S
C3185 C3188 1.526 . S
C3186 H3170 0.959 . S
C3186 H3171 0.959 . S
C3186 H3172 0.961 . S
C3186 C3185 1.502 . S
C3187 H3173 0.960 . S
C3187 H3174 0.961 . S
C3187 H3175 0.959 . S
C3187 C3185 1.561 . S
C3188 C3185 1.526 . S
C3188 C3189 1.396 . S
C3188 C3193 1.390 . S
C3189 C3183 1.465 . S
C3189 C3188 1.396 . S
C3189 C3190 1.399 . S
C3190 H3176 0.929 . S
C3190 C3189 1.399 . S
C3190 C3191 1.385 . S
C3191 H3177 0.931 . S
C3191 C3190 1.385 . S
C3191 C3192 1.389 . S
C3192 C3191 1.389 . S
C3192 C3193 1.387 . S
C3193 H3178 0.930 . S
C3193 C3188 1.390 . S
C3193 C3192 1.387 . S
H3194 C3206 0.930 . S
H3195 C3208 0.930 . S
H3196 C3209 0.930 . S
H3197 C3213 0.959 . S
H3198 C3213 0.959 . S
H3199 C3213 0.961 . S
H3200 C3214 0.960 . S
H3201 C3214 0.961 . S
H3202 C3214 0.959 . S
H3203 C3217 0.929 . S
H3204 C3218 0.931 . S
H3205 C3220 0.930 . S
C3206 H3194 0.930 . S
C3206 C3207 1.399 . S
C3206 C3211 1.399 . S
C3207 C3206 1.399 . S
C3207 C3208 1.376 . S
C3208 H3195 0.930 . S
C3208 C3207 1.376 . S
C3208 C3209 1.388 . S
C3209 H3196 0.930 . S
C3209 C3208 1.388 . S
C3209 C3210 1.390 . S
C3210 C3209 1.390 . S
C3210 C3211 1.394 . S
C3210 C3216 1.465 . S
C3211 C3206 1.399 . S
C3211 C3210 1.394 . S
C3211 C3212 1.516 . S
C3212 C3211 1.516 . S
C3212 C3213 1.502 . S
C3212 C3214 1.561 . S
C3212 C3215 1.526 . S
C3213 H3197 0.959 . S
C3213 H3198 0.959 . S
C3213 H3199 0.961 . S
C3213 C3212 1.502 . S
C3214 H3200 0.960 . S
C3214 H3201 0.961 . S
C3214 H3202 0.959 . S
C3214 C3212 1.561 . S
C3215 C3212 1.526 . S
C3215 C3216 1.396 . S
C3215 C3220 1.390 . S
C3216 C3210 1.465 . S
C3216 C3215 1.396 . S
C3216 C3217 1.399 . S
C3217 H3203 0.929 . S
C3217 C3216 1.399 . S
C3217 C3218 1.385 . S
C3218 H3204 0.931 . S
C3218 C3217 1.385 . S
C3218 C3219 1.389 . S
C3219 C3218 1.389 . S
C3219 C3220 1.387 . S
C3220 H3205 0.930 . S
C3220 C3215 1.390 . S
C3220 C3219 1.387 . S
H3221 C3233 0.930 . S
H3222 C3235 0.930 . S
H3223 C3236 0.930 . S
H3224 C3240 0.959 . S
H3225 C3240 0.959 . S
H3226 C3240 0.961 . S
H3227 C3241 0.960 . S
H3228 C3241 0.961 . S
H3229 C3241 0.959 . S
H3230 C3244 0.929 . S
H3231 C3245 0.931 . S
H3232 C3247 0.930 . S
C3233 H3221 0.930 . S
C3233 C3234 1.399 . S
C3233 C3238 1.399 . S
C3234 C3233 1.399 . S
C3234 C3235 1.376 . S
C3235 H3222 0.930 . S
C3235 C3234 1.376 . S
C3235 C3236 1.388 . S
C3236 H3223 0.930 . S
C3236 C3235 1.388 . S
C3236 C3237 1.390 . S
C3237 C3236 1.390 . S
C3237 C3238 1.394 . S
C3237 C3243 1.465 . S
C3238 C3233 1.399 . S
C3238 C3237 1.394 . S
C3238 C3239 1.516 . S
C3239 C3238 1.516 . S
C3239 C3240 1.502 . S
C3239 C3241 1.561 . S
C3239 C3242 1.526 . S
C3240 H3224 0.959 . S
C3240 H3225 0.959 . S
C3240 H3226 0.961 . S
C3240 C3239 1.502 . S
C3241 H3227 0.960 . S
C3241 H3228 0.961 . S
C3241 H3229 0.959 . S
C3241 C3239 1.561 . S
C3242 C3239 1.526 . S
C3242 C3243 1.396 . S
C3242 C3247 1.390 . S
C3243 C3237 1.465 . S
C3243 C3242 1.396 . S
C3243 C3244 1.399 . S
C3244 H3230 0.929 . S
C3244 C3243 1.399 . S
C3244 C3245 1.385 . S
C3245 H3231 0.931 . S
C3245 C3244 1.385 . S
C3245 C3246 1.389 . S
C3246 C3245 1.389 . S
C3246 C3247 1.387 . S
C3247 H3232 0.930 . S
C3247 C3242 1.390 . S
C3247 C3246 1.387 . S
C1101 C20 1.176 . S
C1113 C836 1.188 . S
C1128 C326 1.178 . S
C1140 C54 1.187 . S
C1155 C904 1.185 . S
C1167 C88 1.181 . S
C1182 C394 1.178 . S
C1194 C122 1.187 . S
C1209 C972 1.185 . S
C1221 C156 1.178 . S
C1236 C462 1.186 . S
C1248 C190 1.178 . S
C1263 C1040 1.177 . S
C1275 C224 1.188 . S
C1290 C530 1.187 . S
C1302 C258 1.177 . S
C1317 C292 1.188 . S
C1329 C564 1.177 . S
C1344 C360 1.177 . S
C1356 C632 1.186 . S
C1371 C428 1.186 . S
C1383 C700 1.179 . S
C1398 C768 1.187 . S
C1410 C496 1.179 . S
C1425 C598 1.177 . S
C1437 C870 1.186 . S
C1452 C938 1.179 . S
C1464 C666 1.186 . S
C1479 C734 1.183 . S
C1491 C1006 1.180 . S
C1506 C1074 1.178 . S
C1518 C802 1.187 . S
C1533 C5 1.686 . S
C1545 C407 1.679 . S
C1560 C39 1.695 . S
C1572 C849 1.701 . S
C1587 C339 1.688 . S
C1599 C73 1.679 . S
C1614 C107 1.690 . S
C1626 C917 1.699 . S
C1641 C475 1.679 . S
C1653 C141 1.677 . S
C1668 C1053 1.677 . S
C1680 C175 1.683 . S
C1695 C209 1.681 . S
C1707 C543 1.678 . S
C1722 C985 1.686 . S
C1734 C243 1.696 . S
C1749 C277 1.700 . S
C1761 C135 1.686 . S
C1776 C311 1.699 . S
C1788 C577 1.684 . S
C1803 C67 1.678 . S
C1815 C345 1.686 . S
C1830 C379 1.677 . S
C1842 C645 1.692 . S
C1857 C413 1.677 . S
C1869 C203 1.693 . S
C1884 C781 1.677 . S
C1896 C447 1.688 . S
C1911 C271 1.688 . S
C1923 C481 1.677 . S
C1938 C515 1.678 . S
C1950 C713 1.694 . S
C1965 C951 1.687 . S
C1977 C549 1.697 . S
C1992 C305 1.689 . S
C2004 C583 1.698 . S
C2019 C883 1.691 . S
C2031 C617 1.681 . S
C2046 C651 1.684 . S
C2058 C373 1.695 . S
C2073 C1019 1.686 . S
C2085 C685 1.696 . S
C2100 C509 1.691 . S
C2112 C719 1.699 . S
C2127 C753 1.697 . S
C2139 C1087 1.701 . S
C2154 C441 1.677 . S
C2166 C787 1.682 . S
C2181 C679 1.677 . S
C2193 C821 1.688 . S
C2208 C855 1.684 . S
C2220 C33 1.700 . S
C2235 C889 1.678 . S
C2247 C611 1.695 . S
C2262 C101 1.677 . S
C2274 C923 1.687 . S
C2289 C747 1.701 . S
C2301 C957 1.690 . S
C2316 C991 1.700 . S
C2328 C237 1.687 . S
C2343 C815 1.698 . S
C2355 C1025 1.681 . S
C2370 C169 1.677 . S
C2382 C1059 1.689 . S
C2397 C2 1.876 . S
C2409 C206 1.883 . S
C2424 C240 1.882 . S
C2436 C36 1.877 . S
C2451 C70 1.877 . S
C2463 C138 1.882 . S
C2478 C104 1.887 . S
C2490 C172 1.876 . S
C2505 C478 1.882 . S
C2517 C274 1.880 . S
C2532 C512 1.889 . S
C2544 C308 1.877 . S
C2559 C410 1.877 . S
C2571 C342 1.889 . S
C2586 C444 1.888 . S
C2598 C376 1.878 . S
C2613 C546 1.887 . S
C2625 C750 1.884 . S
C2640 C580 1.878 . S
C2652 C784 1.889 . S
C2667 C614 1.877 . S
C2679 C682 1.882 . S
C2694 C648 1.885 . S
C2706 C716 1.876 . S
C2721 C1022 1.879 . S
C2733 C818 1.888 . S
C2748 C1056 1.876 . S
C2760 C852 1.887 . S
C2775 C886 1.880 . S
C2787 C954 1.887 . S
C2802 C920 1.876 . S
C2814 C988 1.887 . S
C2829 C9 1.179 . S
C2841 C723 1.186 . S
C2856 C43 1.148 . S
C2868 C757 1.142 . S
C2883 C77 1.188 . S
C2895 C791 1.194 . S
C2910 C111 1.143 . S
C2922 C689 1.137 . S
C2937 C655 1.203 . S
C2949 C145 1.206 . S
C2964 C179 1.173 . S
C2976 C553 1.166 . S
C2991 C587 1.130 . S
C3003 C213 1.125 . S
C3018 C247 1.203 . S
C3030 C621 1.206 . S
C3045 C995 1.205 . S
C3057 C281 1.174 . S
C3072 C315 1.205 . S
C3084 C1029 1.175 . S
C3099 C1063 1.118 . S
C3111 C349 1.146 . S
C3126 C383 1.204 . S
C3138 C961 1.174 . S
C3153 C417 1.155 . S
C3165 C927 1.124 . S
C3180 C825 1.141 . S
C3192 C451 1.179 . S
C3207 C485 1.195 . S
C3219 C859 1.160 . S
C3234 C519 1.133 . S
C3246 C893 1.170 . S
