# Generated by pormake.
# Topology atn, (4)-cn, num edge types: 1
# Building blocks:
#     Node 0, Type 0, BuildingBlock: QUQFOY_clean_sbu_1, # of connection points: 4
#     Node 1, Type 0, BuildingBlock: QUQFOY_clean_sbu_1, # of connection points: 4
#     Node 2, Type 0, BuildingBlock: QUQFOY_clean_sbu_1, # of connection points: 4
#     Node 3, Type 0, BuildingBlock: QUQFOY_clean_sbu_1, # of connection points: 4
#     Node 4, Type 0, BuildingBlock: QUQFOY_clean_sbu_1, # of connection points: 4
#     Node 5, Type 0, BuildingBlock: QUQFOY_clean_sbu_1, # of connection points: 4
#     Node 6, Type 0, BuildingBlock: QUQFOY_clean_sbu_1, # of connection points: 4
#     Node 7, Type 0, BuildingBlock: QUQFOY_clean_sbu_1, # of connection points: 4
#     Node 8, Type 0, BuildingBlock: QUQFOY_clean_sbu_1, # of connection points: 4
#     Node 9, Type 0, BuildingBlock: QUQFOY_clean_sbu_1, # of connection points: 4
#     Node 10, Type 0, BuildingBlock: QUQFOY_clean_sbu_1, # of connection points: 4
#     Node 11, Type 0, BuildingBlock: QUQFOY_clean_sbu_1, # of connection points: 4
#     Node 12, Type 0, BuildingBlock: QUQFOY_clean_sbu_1, # of connection points: 4
#     Node 13, Type 0, BuildingBlock: QUQFOY_clean_sbu_1, # of connection points: 4
#     Node 14, Type 0, BuildingBlock: QUQFOY_clean_sbu_1, # of connection points: 4
#     Node 15, Type 0, BuildingBlock: QUQFOY_clean_sbu_1, # of connection points: 4
#     Edge 16, Type (0, 0), BuildingBlock: XUDNAN_clean_linker_2, # of connection points: 2
#     Edge 17, Type (0, 0), BuildingBlock: XUDNAN_clean_linker_2, # of connection points: 2
#     Edge 18, Type (0, 0), BuildingBlock: XUDNAN_clean_linker_2, # of connection points: 2
#     Edge 19, Type (0, 0), BuildingBlock: XUDNAN_clean_linker_2, # of connection points: 2
#     Edge 20, Type (0, 0), BuildingBlock: XUDNAN_clean_linker_2, # of connection points: 2
#     Edge 21, Type (0, 0), BuildingBlock: XUDNAN_clean_linker_2, # of connection points: 2
#     Edge 22, Type (0, 0), BuildingBlock: XUDNAN_clean_linker_2, # of connection points: 2
#     Edge 23, Type (0, 0), BuildingBlock: XUDNAN_clean_linker_2, # of connection points: 2
#     Edge 24, Type (0, 0), BuildingBlock: XUDNAN_clean_linker_2, # of connection points: 2
#     Edge 25, Type (0, 0), BuildingBlock: XUDNAN_clean_linker_2, # of connection points: 2
#     Edge 26, Type (0, 0), BuildingBlock: XUDNAN_clean_linker_2, # of connection points: 2
#     Edge 27, Type (0, 0), BuildingBlock: XUDNAN_clean_linker_2, # of connection points: 2
#     Edge 28, Type (0, 0), BuildingBlock: XUDNAN_clean_linker_2, # of connection points: 2
#     Edge 29, Type (0, 0), BuildingBlock: XUDNAN_clean_linker_2, # of connection points: 2
#     Edge 30, Type (0, 0), BuildingBlock: XUDNAN_clean_linker_2, # of connection points: 2
#     Edge 31, Type (0, 0), BuildingBlock: XUDNAN_clean_linker_2, # of connection points: 2
#     Edge 32, Type (0, 0), BuildingBlock: XUDNAN_clean_linker_2, # of connection points: 2
#     Edge 33, Type (0, 0), BuildingBlock: XUDNAN_clean_linker_2, # of connection points: 2
#     Edge 34, Type (0, 0), BuildingBlock: XUDNAN_clean_linker_2, # of connection points: 2
#     Edge 35, Type (0, 0), BuildingBlock: XUDNAN_clean_linker_2, # of connection points: 2
#     Edge 36, Type (0, 0), BuildingBlock: XUDNAN_clean_linker_2, # of connection points: 2
#     Edge 37, Type (0, 0), BuildingBlock: XUDNAN_clean_linker_2, # of connection points: 2
#     Edge 38, Type (0, 0), BuildingBlock: XUDNAN_clean_linker_2, # of connection points: 2
#     Edge 39, Type (0, 0), BuildingBlock: XUDNAN_clean_linker_2, # of connection points: 2
#     Edge 40, Type (0, 0), BuildingBlock: XUDNAN_clean_linker_2, # of connection points: 2
#     Edge 41, Type (0, 0), BuildingBlock: XUDNAN_clean_linker_2, # of connection points: 2
#     Edge 42, Type (0, 0), BuildingBlock: XUDNAN_clean_linker_2, # of connection points: 2
#     Edge 43, Type (0, 0), BuildingBlock: XUDNAN_clean_linker_2, # of connection points: 2
#     Edge 44, Type (0, 0), BuildingBlock: XUDNAN_clean_linker_2, # of connection points: 2
#     Edge 45, Type (0, 0), BuildingBlock: XUDNAN_clean_linker_2, # of connection points: 2
#     Edge 46, Type (0, 0), BuildingBlock: XUDNAN_clean_linker_2, # of connection points: 2
#     Edge 47, Type (0, 0), BuildingBlock: XUDNAN_clean_linker_2, # of connection points: 2
# Relax obj value: 0.049
# Max RMSD: 0.085
# Mean RMSD: 0.085
data_MOF--net-atn--node1-QUQFOY_clean_sbu_1--edge1-XUDNAN_clean_linker_2
_symmetry_space_group_name_H-M    P1
_symmetry_Int_Tables_number       1
_symmetry_cell_setting            triclinic
loop_
_symmetry_equiv_pos_as_xyz
'x, y, z'
_cell_length_a     61.933745
_cell_length_b     61.821986
_cell_length_c     28.167058
_cell_angle_alpha  90.015741
_cell_angle_beta   89.883627
_cell_angle_gamma 90.01961
loop_
_atom_site_label
_atom_site_type_symbol
_atom_site_fract_x
_atom_site_fract_y
_atom_site_fract_z
_atom_type_partial_charge
O0 O 0.18589 0.37774 0.1049 0.0
Cd1 Cd 0.2071 0.38671 0.05192 0.0
Cd2 Cd 0.18636 0.35449 1.00472 0.0
O3 O 0.16637 0.35443 0.06399 0.0
O4 O 0.21718 0.41637 0.06938 0.0
O5 O 0.19958 0.40893 1.00293 0.0
C6 C 0.20893 0.42296 0.02996 0.0
C7 C 0.17352 0.35888 0.92705 0.0
C8 C 0.17016 0.36459 0.10243 0.0
C9 C 0.2336 0.34806 0.02649 0.0
O10 O 0.21611 0.33953 1.01196 0.0
O11 O 0.23383 0.36741 0.04175 0.0
O12 O 0.17118 0.34078 0.94936 0.0
O13 O 0.18244 0.37473 0.94961 0.0
O14 O 0.62988 0.19599 0.11468 0.0
Cd15 Cd 0.61983 0.21733 0.063 0.0
Cd16 Cd 0.65086 0.19505 1.01376 0.0
O17 O 0.65123 0.17493 0.07245 0.0
O18 O 0.5941 0.23004 0.09489 0.0
O19 O 0.592 0.21165 0.02776 0.0
C20 C 0.58237 0.22174 0.06191 0.0
C21 C 0.6446 0.18153 0.93745 0.0
C22 C 0.64194 0.17944 0.11151 0.0
C23 C 0.65889 0.24235 0.03224 0.0
O24 O 0.66696 0.22435 1.01934 0.0
O25 O 0.63957 0.24333 0.04749 0.0
O26 O 0.66306 0.17915 0.95799 0.0
O27 O 0.62944 0.19121 0.96089 0.0
O28 O 0.81465 0.62656 0.11736 0.0
Cd29 Cd 0.79444 0.62466 0.05938 0.0
Cd30 Cd 0.82617 0.65076 0.02414 0.0
O31 O 0.84223 0.6447 0.08739 0.0
O32 O 0.77791 0.59719 0.06973 0.0
O33 O 0.80014 0.60245 1.00909 0.0
C34 C 0.78744 0.58973 0.03238 0.0
C35 C 0.8398 0.64535 0.94747 0.0
C36 C 0.83332 0.63485 0.12198 0.0
C37 C 0.78109 0.66953 0.037 0.0
O38 O 0.80108 0.67242 0.02859 0.0
O39 O 0.774 0.65078 0.04744 0.0
O40 O 0.84599 0.66165 0.97272 0.0
O41 O 0.827 0.63146 0.9671 0.0
O42 O 0.38724 0.80887 0.12683 0.0
Cd43 Cd 0.39362 0.79237 0.06466 0.0
Cd44 Cd 0.35961 0.81702 0.0355 0.0
O45 O 0.36346 0.83257 0.10021 0.0
O46 O 0.42317 0.77959 0.07292 0.0
O47 O 0.41591 0.8062 0.02287 0.0
C48 C 0.42995 0.79373 0.04272 0.0
C49 C 0.36452 0.83317 0.96126 0.0
C50 C 0.37529 0.82532 0.13355 0.0
C51 C 0.35269 0.76912 0.03837 0.0
O52 O 0.34382 0.78765 0.0364 0.0
O53 O 0.37295 0.76746 0.04512 0.0
O54 O 0.34677 0.83589 0.98472 0.0
O55 O 0.37971 0.8221 0.98113 0.0
O56 O 0.19458 0.62822 0.94127 0.0
Cd57 Cd 0.21483 0.61838 0.99491 0.0
Cd58 Cd 0.19154 0.65058 0.04334 0.0
O59 O 0.17289 0.6494 0.98236 0.0
O60 O 0.22774 0.59224 0.96506 0.0
O61 O 0.20805 0.59081 0.03053 0.0
C62 C 0.21856 0.58081 0.99751 0.0
C63 C 0.17366 0.65218 0.11678 0.0
C64 C 0.17789 0.64007 0.94365 0.0
C65 C 0.23955 0.65742 0.02734 0.0
O66 O 0.22149 0.66564 0.03937 0.0
O67 O 0.24054 0.63812 1.01184 0.0
O68 O 0.17386 0.66839 0.08806 0.0
O69 O 0.18358 0.63476 0.10389 0.0
O70 O 0.38084 0.19366 0.95232 0.0
Cd71 Cd 0.38865 0.21446 1.00681 0.0
Cd72 Cd 0.35728 0.19158 0.05177 0.0
O73 O 0.35917 0.17186 0.99215 0.0
O74 O 0.41806 0.22567 0.99092 0.0
O75 O 0.41073 0.20672 0.05575 0.0
C76 C 0.42465 0.21679 0.0297 0.0
C77 C 0.36169 0.1789 0.12961 0.0
C78 C 0.369 0.17689 0.95395 0.0
C79 C 0.34869 0.23876 0.03181 0.0
O80 O 0.34087 0.22058 0.04428 0.0
O81 O 0.36824 0.24025 1.0183 0.0
O82 O 0.34401 0.17548 0.10658 0.0
O83 O 0.37716 0.18875 0.10762 0.0
O84 O 0.8184 0.38352 0.95647 0.0
Cd85 Cd 0.79608 0.39418 1.00586 0.0
Cd86 Cd 0.81801 0.36292 0.05865 0.0
O87 O 0.83818 0.36153 1.00006 0.0
O88 O 0.7832 0.41908 0.9709 0.0
O89 O 0.8 0.42291 0.03945 0.0
C90 C 0.79013 0.43164 1.00396 0.0
C91 C 0.83153 0.36825 0.13544 0.0
C92 C 0.83439 0.37079 0.96062 0.0
C93 C 0.77089 0.35508 0.03762 0.0
O94 O 0.78858 0.34725 0.05278 0.0
O95 O 0.7702 0.37411 1.02053 0.0
O96 O 0.83338 0.34985 0.11417 0.0
O97 O 0.82246 0.3839 0.11246 0.0
O98 O 0.62897 0.8114 0.94284 0.0
Cd99 Cd 0.62434 0.79462 1.00513 0.0
Cd100 Cd 0.64964 0.82747 0.03793 0.0
O101 O 0.64302 0.84146 0.97236 0.0
O102 O 0.59567 0.7794 1.00083 0.0
O103 O 0.60193 0.80797 0.04633 0.0
C104 C 0.58838 0.79426 0.02886 0.0
C105 C 0.64448 0.84273 0.11329 0.0
C106 C 0.63558 0.83074 0.93732 0.0
C107 C 0.66835 0.78217 0.03468 0.0
O108 O 0.67143 0.80249 0.03667 0.0
O109 O 0.64948 0.77468 0.02745 0.0
O110 O 0.66049 0.84871 0.08688 0.0
O111 O 0.63076 0.82933 0.09542 0.0
O112 O 0.69677 0.88812 0.62421 0.0
Cd113 Cd 0.71787 0.89576 0.56999 0.0
Cd114 Cd 0.69487 0.86478 0.52218 0.0
O115 O 0.6761 0.86595 0.58319 0.0
O116 O 0.72941 0.92488 0.58685 0.0
O117 O 0.71095 0.91825 0.52102 0.0
C118 C 0.72108 0.93184 0.54783 0.0
C119 C 0.67761 0.86453 0.44809 0.0
C120 C 0.68039 0.87581 0.62167 0.0
C121 C 0.74212 0.85601 0.54076 0.0
O122 O 0.72413 0.84859 0.52627 0.0
O123 O 0.7434 0.87503 0.55778 0.0
O124 O 0.67676 0.84814 0.47625 0.0
O125 O 0.68816 0.88141 0.46196 0.0
O126 O 0.12477 0.69738 0.6212 0.0
Cd127 Cd 0.12212 0.71668 0.56188 0.0
Cd128 Cd 0.1466 0.68412 0.52886 0.0
O129 O 0.13979 0.668 0.5915 0.0
O130 O 0.09848 0.73635 0.58265 0.0
O131 O 0.09511 0.71365 0.52244 0.0
C132 C 0.08638 0.7275 0.55097 0.0
C133 C 0.1398 0.6719 0.45209 0.0
C134 C 0.13139 0.67809 0.6263 0.0
C135 C 0.16731 0.728 0.53792 0.0
O136 O 0.16985 0.70769 0.53368 0.0
O137 O 0.14857 0.73585 0.54487 0.0
O138 O 0.15561 0.66414 0.47664 0.0
O139 O 0.12697 0.68554 0.47258 0.0
O140 O 0.3102 0.12004 0.62861 0.0
Cd141 Cd 0.29121 0.11378 0.57035 0.0
Cd142 Cd 0.31648 0.14935 0.53894 0.0
O143 O 0.33232 0.14552 0.60337 0.0
O144 O 0.27517 0.08856 0.5968 0.0
O145 O 0.29613 0.08593 0.53365 0.0
C146 C 0.284 0.07661 0.56486 0.0
C147 C 0.33478 0.15093 0.46626 0.0
C148 C 0.32602 0.13267 0.63583 0.0
C149 C 0.2684 0.15562 0.54538 0.0
O150 O 0.28679 0.16453 0.54064 0.0
O151 O 0.26689 0.13546 0.55407 0.0
O152 O 0.33572 0.16664 0.49634 0.0
O153 O 0.32404 0.13381 0.47807 0.0
O154 O 0.88193 0.30754 0.6331 0.0
Cd155 Cd 0.88332 0.29274 0.56766 0.0
Cd156 Cd 0.85955 0.32687 0.54311 0.0
O157 O 0.8684 0.33871 0.60933 0.0
O158 O 0.90732 0.27142 0.57224 0.0
O159 O 0.9088 0.30066 0.52683 0.0
C160 C 0.91813 0.28364 0.54372 0.0
C161 C 0.86246 0.34568 0.47134 0.0
C162 C 0.87623 0.32687 0.64204 0.0
C163 C 0.83772 0.28365 0.54181 0.0
O164 O 0.83537 0.30407 0.54313 0.0
O165 O 0.8564 0.27537 0.54626 0.0
O166 O 0.84869 0.35136 0.50342 0.0
O167 O 0.87565 0.33013 0.48125 0.0
O168 O 0.69855 0.12786 0.43793 0.0
Cd169 Cd 0.71561 0.12539 0.50028 0.0
Cd170 Cd 0.68168 0.14985 0.52901 0.0
O171 O 0.66809 0.14197 0.46407 0.0
O172 O 0.73596 0.10175 0.48318 0.0
O173 O 0.71119 0.09835 0.53938 0.0
C174 C 0.72599 0.08962 0.51326 0.0
C175 C 0.6635 0.14802 0.60172 0.0
C176 C 0.67928 0.13396 0.4305 0.0
C177 C 0.72576 0.17075 0.52579 0.0
O178 O 0.70537 0.17314 0.52711 0.0
O179 O 0.73392 0.15204 0.51994 0.0
O180 O 0.65833 0.16211 0.56996 0.0
O181 O 0.67823 0.13399 0.59113 0.0
O182 O 0.88628 0.69784 0.4369 0.0
Cd183 Cd 0.89327 0.71863 0.49204 0.0
Cd184 Cd 0.86166 0.69529 0.53749 0.0
O185 O 0.86379 0.67673 0.47616 0.0
O186 O 0.9223 0.73056 0.47613 0.0
O187 O 0.91553 0.7116 0.54134 0.0
C188 C 0.92912 0.72205 0.51509 0.0
C189 C 0.8609 0.67779 0.61145 0.0
C190 C 0.87412 0.68131 0.43837 0.0
C191 C 0.85337 0.74285 0.52019 0.0
O192 O 0.84564 0.72474 0.53343 0.0
O193 O 0.87255 0.74412 0.50424 0.0
O194 O 0.84475 0.67695 0.58272 0.0
O195 O 0.87782 0.68843 0.59816 0.0
O196 O 0.31382 0.87899 0.44824 0.0
Cd197 Cd 0.29332 0.88367 0.50492 0.0
Cd198 Cd 0.32392 0.86142 0.5516 0.0
O199 O 0.3413 0.8665 0.48951 0.0
O200 O 0.27787 0.9114 0.49316 0.0
O201 O 0.3001 0.90601 0.55388 0.0
C202 C 0.28758 0.91882 0.53028 0.0
C203 C 0.34097 0.86325 0.62596 0.0
C204 C 0.33323 0.87244 0.45009 0.0
C205 C 0.27987 0.8405 0.53658 0.0
O206 O 0.29964 0.83856 0.54807 0.0
O207 O 0.27274 0.85843 0.52101 0.0
O208 O 0.34558 0.84833 0.59569 0.0
O209 O 0.32713 0.87779 0.61362 0.0
O210 O 0.11696 0.30226 0.43043 0.0
Cd211 Cd 0.11214 0.28683 0.49442 0.0
Cd212 Cd 0.14579 0.31349 0.51893 0.0
O213 O 0.14003 0.32741 0.45297 0.0
O214 O 0.08633 0.26846 0.48162 0.0
O215 O 0.08585 0.29565 0.53256 0.0
C216 C 0.0757 0.28024 0.51116 0.0
C217 C 0.14581 0.3326 0.59051 0.0
C218 C 0.12818 0.31894 0.4211 0.0
C219 C 0.15475 0.26626 0.52079 0.0
O220 O 0.16317 0.28501 0.51965 0.0
O221 O 0.13449 0.26394 0.5156 0.0
O222 O 0.16126 0.33478 0.56005 0.0
O223 O 0.12969 0.32031 0.57936 0.0
H224 H 0.2144 0.55097 0.0697 0.0
H225 H 0.22274 0.55696 0.91725 0.0
H226 H 0.22069 0.51731 0.90899 0.0
H227 H 0.24765 0.50257 0.08093 0.0
H228 H 0.23105 0.49091 0.1269 0.0
H229 H 0.23281 0.51986 0.1209 0.0
H230 H 0.19116 0.52208 0.11404 0.0
H231 H 0.18928 0.49313 0.11972 0.0
H232 H 0.17753 0.50647 0.06908 0.0
H233 H 0.21516 0.47741 0.91632 0.0
H234 H 0.21124 0.43909 0.94013 0.0
H235 H 0.20988 0.45839 0.08819 0.0
C236 C 0.21587 0.54387 0.03469 0.0
C237 C 0.21866 0.55699 0.99409 0.0
C238 C 0.22071 0.54717 0.94885 0.0
C239 C 0.21945 0.52469 0.94374 0.0
C240 C 0.21654 0.51219 0.98432 0.0
C241 C 0.21518 0.52134 0.02903 0.0
C242 C 0.21286 0.50407 0.0669 0.0
C243 C 0.23225 0.50437 0.1009 0.0
C244 C 0.19143 0.50659 0.09402 0.0
C245 C 0.21285 0.48387 0.03635 0.0
C246 C 0.21467 0.48897 0.98877 0.0
C247 C 0.21401 0.47316 0.9535 0.0
C248 C 0.21169 0.45149 0.96729 0.0
C249 C 0.21048 0.44586 1.01589 0.0
C250 C 0.21108 0.46228 0.05079 0.0
H251 H 0.45999 0.2181 0.97146 0.0
H252 H 0.44073 0.21804 0.11959 0.0
H253 H 0.47906 0.22078 0.14349 0.0
H254 H 0.50661 0.18419 0.98837 0.0
H255 H 0.52267 0.19781 0.94408 0.0
H256 H 0.49371 0.19714 0.9386 0.0
H257 H 0.49291 0.239 0.93403 0.0
H258 H 0.52187 0.23979 0.93965 0.0
H259 H 0.50518 0.25466 0.98076 0.0
H260 H 0.51909 0.22484 0.15099 0.0
H261 H 0.55872 0.22555 0.14264 0.0
H262 H 0.55245 0.21954 0.98977 0.0
C263 C 0.4639 0.21882 1.0089 0.0
C264 C 0.44751 0.21813 0.04381 0.0
C265 C 0.45313 0.21862 0.09243 0.0
C266 C 0.4748 0.22025 0.10627 0.0
C267 C 0.49061 0.22095 0.07099 0.0
C268 C 0.48549 0.21988 0.02333 0.0
C269 C 0.50566 0.21961 0.99273 0.0
C270 C 0.50725 0.19842 0.96428 0.0
C271 C 0.50645 0.23945 0.95986 0.0
C272 C 0.52293 0.22082 0.03065 0.0
C273 C 0.51384 0.22194 0.07546 0.0
C274 C 0.52641 0.22381 0.11614 0.0
C275 C 0.54889 0.2243 0.11099 0.0
C276 C 0.5586 0.22252 0.06558 0.0
C277 C 0.54543 0.22078 0.0249 0.0
H278 H 0.78908 0.4622 0.07522 0.0
H279 H 0.78586 0.45455 0.92226 0.0
H280 H 0.78341 0.49414 0.91284 0.0
H281 H 0.75033 0.50687 0.08088 0.0
H282 H 0.76441 0.52046 0.12824 0.0
H283 H 0.7658 0.49144 0.12315 0.0
H284 H 0.80758 0.49343 0.12108 0.0
H285 H 0.80632 0.52243 0.12619 0.0
H286 H 0.82068 0.51022 0.07734 0.0
H287 H 0.78472 0.53458 0.91951 0.0
H288 H 0.78614 0.57322 0.94265 0.0
H289 H 0.78479 0.55477 0.0911 0.0
C290 C 0.78776 0.4689 0.03983 0.0
C291 C 0.78774 0.45535 0.99945 0.0
C292 C 0.78582 0.46465 0.95369 0.0
C293 C 0.78447 0.48712 0.94795 0.0
C294 C 0.78462 0.50007 0.98837 0.0
C295 C 0.78587 0.49133 0.03348 0.0
C296 C 0.78541 0.50893 0.07096 0.0
C297 C 0.76529 0.50679 0.10267 0.0
C298 C 0.80624 0.50873 0.10062 0.0
C299 C 0.78414 0.52889 0.03982 0.0
C300 C 0.78391 0.52342 0.99226 0.0
C301 C 0.78445 0.53908 0.95664 0.0
C302 C 0.78528 0.56094 0.97002 0.0
C303 C 0.7851 0.56686 1.0185 0.0
C304 C 0.78431 0.55063 0.05375 0.0
H305 H 0.55586 0.76367 0.0325 0.0
H306 H 0.56814 0.83274 0.03768 0.0
H307 H 0.52898 0.83982 0.03767 0.0
H308 H 0.50913 0.76468 0.95886 0.0
H309 H 0.49459 0.74412 0.9911 0.0
H310 H 0.52368 0.74408 0.99086 0.0
H311 H 0.52409 0.74495 0.08281 0.0
H312 H 0.495 0.74465 0.08334 0.0
H313 H 0.50942 0.76586 0.1137 0.0
H314 H 0.48898 0.83967 0.02943 0.0
H315 H 0.44979 0.83233 0.03048 0.0
H316 H 0.46259 0.7635 0.04065 0.0
C317 C 0.55021 0.78023 0.03415 0.0
C318 C 0.56496 0.79768 0.03498 0.0
C319 C 0.55709 0.81915 0.0374 0.0
C320 C 0.53489 0.82335 0.03697 0.0
C321 C 0.52074 0.80587 0.03525 0.0
C322 C 0.52799 0.78473 0.03531 0.0
C323 C 0.50917 0.769 0.03614 0.0
C324 C 0.50915 0.75462 0.99158 0.0
C325 C 0.50944 0.75531 0.08172 0.0
C326 C 0.49029 0.78465 0.03587 0.0
C327 C 0.49742 0.80582 0.03425 0.0
C328 C 0.48316 0.82318 0.0314 0.0
C329 C 0.46096 0.81885 0.03159 0.0
C330 C 0.45326 0.7974 0.03578 0.0
C331 C 0.46812 0.78006 0.03765 0.0
H332 H 0.71799 0.06002 0.58464 0.0
H333 H 0.74107 0.06574 0.43958 0.0
H334 H 0.74239 0.02605 0.4328 0.0
H335 H 0.75218 0.01285 0.61388 0.0
H336 H 0.73185 1.00079 0.65133 0.0
H337 H 0.73323 0.02978 0.64526 0.0
H338 H 0.69317 0.03041 0.61899 0.0
H339 H 0.69174 1.00143 0.6244 0.0
H340 H 0.68481 0.01424 0.56901 0.0
H341 H 0.73701 0.986 0.43827 0.0
H342 H 0.73135 0.94764 0.46058 0.0
H343 H 0.71579 0.96733 0.60435 0.0
C344 C 0.72364 0.05287 0.55178 0.0
C345 C 0.72942 0.06595 0.51264 0.0
C346 C 0.73674 0.05605 0.47018 0.0
C347 C 0.73741 0.0335 0.46582 0.0
C348 C 0.73119 0.02103 0.50462 0.0
C349 C 0.72499 0.0303 0.54722 0.0
C350 C 0.71957 0.01307 0.58366 0.0
C351 C 0.73514 0.01419 0.62604 0.0
C352 C 0.69592 0.0149 0.59996 0.0
C353 C 0.72323 0.99277 0.5545 0.0
C354 C 0.7296 0.99776 0.50876 0.0
C355 C 0.73246 0.98183 0.47423 0.0
C356 C 0.72909 0.96016 0.48705 0.0
C357 C 0.72343 0.95468 0.53415 0.0
C358 C 0.72048 0.97118 0.56826 0.0
H359 H 0.96469 0.71859 0.45837 0.0
H360 H 0.9446 0.73068 0.60347 0.0
H361 H 0.98277 0.73634 0.62656 0.0
H362 H 0.01146 0.6874 0.49045 0.0
H363 H 0.02761 0.69698 0.44147 0.0
H364 H 0.99869 0.69559 0.43587 0.0
H365 H 0.99775 0.73623 0.41345 0.0
H366 H 0.02667 0.73779 0.41945 0.0
H367 H 0.00961 0.75584 0.45296 0.0
H368 H 0.02275 0.74189 0.63289 0.0
H369 H 0.0624 0.74087 0.6262 0.0
H370 H 0.05702 0.72128 0.4787 0.0
C371 C 0.96841 0.72256 0.49491 0.0
C372 C 0.95185 0.72449 0.52919 0.0
C373 C 0.95716 0.7292 0.57686 0.0
C374 C 0.97873 0.73257 0.59013 0.0
C375 C 0.99472 0.7307 0.55542 0.0
C376 C 0.98989 0.72532 0.50903 0.0
C377 C 0.01024 0.72252 0.47963 0.0
C378 C 0.01211 0.69924 0.46076 0.0
C379 C 0.01111 0.73909 0.43897 0.0
C380 C 0.02729 0.72723 0.51673 0.0
C381 C 0.01793 0.73239 0.55988 0.0
C382 C 0.03027 0.73775 0.59939 0.0
C383 C 0.0528 0.73725 0.59511 0.0
C384 C 0.06278 0.73099 0.55193 0.0
C385 C 0.04982 0.72613 0.51211 0.0
H386 H 0.28725 0.04681 0.49217 0.0
H387 H 0.27613 0.05283 0.64377 0.0
H388 H 0.27512 0.01313 0.65124 0.0
H389 H 0.25096 1.0003 0.47653 0.0
H390 H 0.26784 0.98785 0.43207 0.0
H391 H 0.26754 0.01685 0.43837 0.0
H392 H 0.30906 0.01681 0.4494 0.0
H393 H 0.30948 0.98782 0.44335 0.0
H394 H 0.32087 1.00036 0.49537 0.0
H395 H 0.27904 0.973 0.64384 0.0
H396 H 0.28283 0.93462 0.61992 0.0
H397 H 0.28738 0.95415 0.47244 0.0
C398 C 0.28443 0.03971 0.52677 0.0
C399 C 0.28181 0.05285 0.56741 0.0
C400 C 0.27804 0.04305 0.61212 0.0
C401 C 0.27753 0.02051 0.6168 0.0
C402 C 0.28036 0.00797 0.57625 0.0
C403 C 0.28329 0.01716 0.53192 0.0
C404 C 0.28545 0.99988 0.49402 0.0
C405 C 0.26684 1.00131 0.45814 0.0
C406 C 0.30753 1.00131 0.46908 0.0
C407 C 0.28373 0.97962 0.52416 0.0
C408 C 0.28107 0.98468 0.57159 0.0
C409 C 0.28067 0.96879 0.60672 0.0
C410 C 0.2829 0.9471 0.59293 0.0
C411 C 0.28498 0.94157 0.54445 0.0
C412 C 0.28528 0.95802 0.50968 0.0
H413 H 0.04397 0.31045 0.52558 0.0
H414 H 0.05502 0.24153 0.51048 0.0
H415 H 0.01573 0.23489 0.51592 0.0
H416 H 0.99839 0.30761 0.60673 0.0
H417 H 0.9842 0.32966 0.57892 0.0
H418 H 0.01326 0.32877 0.57713 0.0
H419 H 0.01214 0.33131 0.48534 0.0
H420 H 0.98306 0.33194 0.48682 0.0
H421 H 0.99683 0.31167 0.45214 0.0
H422 H 0.97548 0.23567 0.52493 0.0
H423 H 0.93659 0.24399 0.53349 0.0
H424 H 0.95125 0.31258 0.53464 0.0
C425 C 0.03807 0.29396 0.52425 0.0
C426 C 0.05243 0.27643 0.51836 0.0
C427 C 0.0442 0.25512 0.51537 0.0
C428 C 0.02195 0.25121 0.51836 0.0
C429 C 0.00815 0.26885 0.52336 0.0
C430 C 0.01583 0.28982 0.52595 0.0
C431 C 0.99741 0.30592 0.52897 0.0
C432 C 0.99838 0.31874 0.57572 0.0
C433 C 0.99737 0.3211 0.48573 0.0
C434 C 0.97822 0.2907 0.52808 0.0
C435 C 0.9848 0.26938 0.52532 0.0
C436 C 0.9701 0.25231 0.52651 0.0
C437 C 0.94809 0.25717 0.53128 0.0
C438 C 0.941 0.27888 0.53378 0.0
C439 C 0.95625 0.29585 0.53154 0.0
H440 H 0.23757 0.30393 0.0242 0.0
H441 H 0.27512 0.36316 0.03003 0.0
H442 H 0.30876 0.34167 0.03172 0.0
H443 H 0.27078 0.27398 0.10505 0.0
H444 H 0.26765 0.2487 0.0739 0.0
H445 H 0.2466 0.26875 0.07139 0.0
H446 H 0.24846 0.26843 0.97945 0.0
H447 H 0.26947 0.24833 0.98167 0.0
H448 H 0.27393 0.27334 0.95027 0.0
H449 H 0.33831 0.31365 0.0311 0.0
H450 H 0.36153 0.28114 0.03213 0.0
H451 H 0.30448 0.24034 0.03102 0.0
C452 C 0.25287 0.31239 0.02547 0.0
C453 C 0.25375 0.33522 0.02665 0.0
C454 C 0.27408 0.34568 0.02907 0.0
C455 C 0.29326 0.33362 0.02997 0.0
C456 C 0.29181 0.31113 0.02897 0.0
C457 C 0.27214 0.30062 0.02712 0.0
C458 C 0.27499 0.2763 0.02786 0.0
C459 C 0.26438 0.26635 0.07219 0.0
C460 C 0.26619 0.266 0.98208 0.0
C461 C 0.29935 0.27476 0.03017 0.0
C462 C 0.30877 0.29503 0.03042 0.0
C463 C 0.33111 0.2977 0.0312 0.0
C464 C 0.34416 0.27915 0.03171 0.0
C465 C 0.33482 0.25823 0.03199 0.0
C466 C 0.3121 0.25611 0.0314 0.0
H467 H 0.76817 0.31084 0.04093 0.0
H468 H 0.72894 0.36891 0.03402 0.0
H469 H 0.69595 0.34641 0.03186 0.0
H470 H 0.73629 0.27993 0.95943 0.0
H471 H 0.73995 0.25472 0.99056 0.0
H472 H 0.76041 0.27538 0.99375 0.0
H473 H 0.75804 0.27498 0.08562 0.0
H474 H 0.73765 0.25424 0.08272 0.0
H475 H 0.73226 0.27908 0.1141 0.0
H476 H 0.66721 0.31751 0.03185 0.0
H477 H 0.64493 0.28434 0.03066 0.0
H478 H 0.70309 0.2452 0.03277 0.0
C479 C 0.75263 0.31884 0.03945 0.0
C480 C 0.7511 0.34164 0.03805 0.0
C481 C 0.73048 0.35147 0.03522 0.0
C482 C 0.71166 0.33883 0.03402 0.0
C483 C 0.71375 0.31639 0.03507 0.0
C484 C 0.73372 0.30647 0.03743 0.0
C485 C 0.73157 0.28206 0.03651 0.0
C486 C 0.74271 0.27246 0.99243 0.0
C487 C 0.7404 0.27201 0.08248 0.0
C488 C 0.70726 0.27978 0.0335 0.0
C489 C 0.69727 0.29977 0.03309 0.0
C490 C 0.67487 0.30177 0.03186 0.0
C491 C 0.66235 0.28285 0.03123 0.0
C492 C 0.67226 0.2622 0.03123 0.0
C493 C 0.69504 0.26075 0.03208 0.0
H494 H 0.73618 0.67091 0.04015 0.0
H495 H 0.79334 0.71165 0.033 0.0
H496 H 0.77052 0.74398 0.03404 0.0
H497 H 0.70331 0.70433 0.96325 0.0
H498 H 0.67869 0.70009 0.99619 0.0
H499 H 0.69937 0.6796 0.99607 0.0
H500 H 0.70032 0.6805 0.08796 0.0
H501 H 0.67969 0.70106 0.08835 0.0
H502 H 0.70502 0.70582 0.118 0.0
H503 H 0.74268 0.77182 0.03728 0.0
H504 H 0.71038 0.79459 0.03687 0.0
H505 H 0.66981 0.73715 0.03891 0.0
C506 C 0.74384 0.68664 0.03884 0.0
C507 C 0.76662 0.68865 0.03657 0.0
C508 C 0.77599 0.70956 0.03462 0.0
C509 C 0.76316 0.72811 0.03537 0.0
C510 C 0.7409 0.72562 0.03779 0.0
C511 C 0.73118 0.70552 0.03909 0.0
C512 C 0.70672 0.70778 0.04035 0.0
C513 C 0.69642 0.69733 0.99634 0.0
C514 C 0.69739 0.69822 0.08641 0.0
C515 C 0.70439 0.73227 0.03941 0.0
C516 C 0.72443 0.74207 0.03843 0.0
C517 C 0.72686 0.7644 0.03789 0.0
C518 C 0.70831 0.7772 0.0378 0.0
C519 C 0.68744 0.76774 0.0378 0.0
C520 C 0.6855 0.74489 0.03886 0.0
H521 H 0.24282 0.70142 0.03907 0.0
H522 H 0.28142 0.64344 1.01993 0.0
H523 H 0.31459 0.66562 1.02063 0.0
H524 H 0.2745 0.73533 0.96324 0.0
H525 H 0.27134 0.75912 0.99961 0.0
H526 H 0.25067 0.73863 0.9994 0.0
H527 H 0.25367 0.73506 0.09083 0.0
H528 H 0.27427 0.75562 0.09135 0.0
H529 H 0.27959 0.7295 0.11719 0.0
H530 H 0.34365 0.69423 0.02347 0.0
H531 H 0.36626 0.72714 0.02721 0.0
H532 H 0.30849 0.76639 0.0418 0.0
C533 C 0.25825 0.69334 0.03544 0.0
C534 C 0.2595 0.67065 0.02967 0.0
C535 C 0.28002 0.66078 0.02443 0.0
C536 C 0.29897 0.67324 0.0248 0.0
C537 C 0.29714 0.69557 0.03012 0.0
C538 C 0.2773 0.70554 0.03526 0.0
C539 C 0.27972 0.72985 0.03931 0.0
C540 C 0.26839 0.74141 0.99792 0.0
C541 C 0.27132 0.73798 0.08754 0.0
C542 C 0.30403 0.732 0.03572 0.0
C543 C 0.3138 0.71205 0.03064 0.0
C544 C 0.33616 0.70995 0.02732 0.0
C545 C 0.34887 0.72874 0.02948 0.0
C546 C 0.33918 0.74938 0.03457 0.0
C547 C 0.31643 0.75091 0.03749 0.0
H548 H 0.80916 0.74574 0.52522 0.0
H549 H 0.86743 0.78476 0.5222 0.0
H550 H 0.84534 0.81791 0.52796 0.0
H551 H 0.77743 0.78151 0.45263 0.0
H552 H 0.75272 0.77667 0.48483 0.0
H553 H 0.77313 0.75596 0.48203 0.0
H554 H 0.77405 0.75424 0.57393 0.0
H555 H 0.75364 0.77494 0.57702 0.0
H556 H 0.77897 0.77862 0.60736 0.0
H557 H 0.81699 0.84676 0.53627 0.0
H558 H 0.78421 0.86943 0.54131 0.0
H559 H 0.74434 0.81176 0.53434 0.0
C560 C 0.81727 0.76125 0.526 0.0
C561 C 0.84003 0.76266 0.52352 0.0
C562 C 0.85002 0.78329 0.524 0.0
C563 C 0.83762 0.80221 0.5274 0.0
C564 C 0.81523 0.80025 0.52972 0.0
C565 C 0.80513 0.78032 0.52862 0.0
C566 C 0.78079 0.78275 0.53011 0.0
C567 C 0.77041 0.77369 0.48469 0.0
C568 C 0.77131 0.772 0.57477 0.0
C569 C 0.7788 0.80715 0.53243 0.0
C570 C 0.79886 0.81693 0.53261 0.0
C571 C 0.80118 0.8393 0.53585 0.0
C572 C 0.78248 0.85203 0.53881 0.0
C573 C 0.76173 0.84238 0.53791 0.0
C574 C 0.75996 0.81963 0.53458 0.0
H575 H 0.23535 0.83856 0.52867 0.0
H576 H 0.29233 0.79877 0.55037 0.0
H577 H 0.26961 0.76622 0.55193 0.0
H578 H 0.20026 0.80747 0.60655 0.0
H579 H 0.17676 0.81066 0.56956 0.0
H580 H 0.19742 0.83118 0.5698 0.0
H581 H 0.20129 0.82759 0.47855 0.0
H582 H 0.1807 0.80699 0.47805 0.0
H583 H 0.20691 0.80147 0.4529 0.0
H584 H 0.24164 0.73796 0.54831 0.0
H585 H 0.20915 0.71523 0.54566 0.0
H586 H 0.16931 0.77262 0.52962 0.0
C587 C 0.24301 0.82299 0.53386 0.0
C588 C 0.26567 0.82126 0.5393 0.0
C589 C 0.27504 0.80059 0.54625 0.0
C590 C 0.26228 0.78195 0.54704 0.0
C591 C 0.24011 0.78418 0.54126 0.0
C592 C 0.23044 0.80412 0.53529 0.0
C593 C 0.20612 0.80178 0.53075 0.0
C594 C 0.19445 0.81347 0.5716 0.0
C595 C 0.1983 0.80994 0.48217 0.0
C596 C 0.20376 0.77741 0.53485 0.0
C597 C 0.22366 0.76767 0.54052 0.0
C598 C 0.22593 0.74536 0.54415 0.0
C599 C 0.20733 0.73259 0.54241 0.0
C600 C 0.18663 0.74211 0.5375 0.0
C601 C 0.18488 0.76487 0.53361 0.0
H602 H 0.26525 0.19976 0.53503 0.0
H603 H 0.22646 0.1415 0.54818 0.0
H604 H 0.19333 0.16353 0.54426 0.0
H605 H 0.23132 0.23372 0.60685 0.0
H606 H 0.2353 0.25744 0.57066 0.0
H607 H 0.25607 0.23711 0.57389 0.0
H608 H 0.25562 0.2333 0.48227 0.0
H609 H 0.23491 0.25368 0.47874 0.0
H610 H 0.23053 0.22743 0.45257 0.0
H611 H 0.16441 0.19175 0.53885 0.0
H612 H 0.14162 0.22427 0.53165 0.0
H613 H 0.19917 0.26429 0.52298 0.0
C614 C 0.24981 0.1916 0.53693 0.0
C615 C 0.24851 0.16886 0.54186 0.0
C616 C 0.22793 0.15888 0.5444 0.0
C617 C 0.20899 0.17125 0.54224 0.0
C618 C 0.21087 0.1936 0.53765 0.0
C619 C 0.23073 0.2037 0.53499 0.0
C620 C 0.22824 0.228 0.5303 0.0
C621 C 0.23833 0.23975 0.57297 0.0
C622 C 0.2379 0.23607 0.48316 0.0
C623 C 0.20386 0.22996 0.53062 0.0
C624 C 0.19417 0.20992 0.53489 0.0
C625 C 0.17181 0.20754 0.53555 0.0
C626 C 0.159 0.22613 0.53144 0.0
C627 C 0.16856 0.24688 0.52681 0.0
C628 C 0.19133 0.24871 0.52668 0.0
H629 H 0.83586 0.23902 0.53725 0.0
H630 H 0.7957 0.29666 0.53624 0.0
H631 H 0.76319 0.2739 0.53253 0.0
H632 H 0.80284 0.20785 0.45536 0.0
H633 H 0.80709 0.18262 0.48599 0.0
H634 H 0.82748 0.20339 0.4879 0.0
H635 H 0.82642 0.2026 0.57983 0.0
H636 H 0.80594 0.18192 0.57821 0.0
H637 H 0.8011 0.20671 0.61018 0.0
H638 H 0.73509 0.24551 0.5317 0.0
H639 H 0.71261 0.21279 0.52939 0.0
H640 H 0.7704 0.17289 0.52931 0.0
C641 C 0.82024 0.24685 0.53596 0.0
C642 C 0.81839 0.26967 0.53711 0.0
C643 C 0.79761 0.27925 0.5354 0.0
C644 C 0.779 0.26646 0.53336 0.0
C645 C 0.78137 0.24409 0.53283 0.0
C646 C 0.80141 0.23429 0.53372 0.0
C647 C 0.79925 0.20983 0.53273 0.0
C648 C 0.80979 0.20037 0.48782 0.0
C649 C 0.80874 0.19967 0.57793 0.0
C650 C 0.77487 0.20749 0.5314 0.0
C651 C 0.76496 0.22751 0.53168 0.0
C652 C 0.74263 0.22972 0.53125 0.0
C653 C 0.73 0.21097 0.53007 0.0
C654 C 0.73969 0.19019 0.5291 0.0
C655 C 0.76248 0.1885 0.52994 0.0
H656 H 0.15642 0.34818 0.38082 0.0
H657 H 0.10047 0.30838 0.34934 0.0
H658 H 0.10279 0.31899 0.26521 0.0
H659 H 0.14458 0.39176 0.29324 0.0
H660 H 0.17271 0.3951 0.2784 0.0
H661 H 0.16502 0.38664 0.3373 0.0
H662 H 0.18948 0.35284 0.32923 0.0
H663 H 0.19717 0.36114 0.2704 0.0
H664 H 0.18561 0.33472 0.27979 0.0
H665 H 0.11365 0.33028 0.18314 0.0
H666 H 0.13205 0.34205 0.1096 0.0
H667 H 0.18049 0.375 0.19416 0.0
C668 C 0.14433 0.34213 0.35647 0.0
C669 C 0.12822 0.32749 0.37185 0.0
C670 C 0.11297 0.31962 0.33855 0.0
C671 C 0.11409 0.32561 0.29061 0.0
C672 C 0.13048 0.3396 0.27638 0.0
C673 C 0.14524 0.34792 0.30835 0.0
C674 C 0.16224 0.36136 0.2832 0.0
C675 C 0.16105 0.38513 0.29898 0.0
C676 C 0.18496 0.35194 0.29113 0.0
C677 C 0.1551 0.35874 0.23207 0.0
C678 C 0.13663 0.3463 0.22891 0.0
C679 C 0.1279 0.34037 0.18518 0.0
C680 C 0.13849 0.34708 0.14358 0.0
C681 C 0.1576 0.35962 0.14599 0.0
C682 C 0.1657 0.36579 0.19097 0.0
H683 H 0.64896 0.16045 0.38986 0.0
H684 H 0.69209 0.10694 0.35951 0.0
H685 H 0.68354 0.10989 0.27429 0.0
H686 H 0.60852 0.14886 0.2933 0.0
H687 H 0.60496 0.17726 0.28121 0.0
H688 H 0.61128 0.16835 0.34052 0.0
H689 H 0.64438 0.19398 0.34162 0.0
H690 H 0.63833 0.20279 0.28232 0.0
H691 H 0.66454 0.19169 0.2956 0.0
H692 H 0.67462 0.12192 0.19189 0.0
H693 H 0.66534 0.14179 0.11863 0.0
H694 H 0.62823 0.18768 0.20226 0.0
C695 C 0.65594 0.14885 0.36546 0.0
C696 C 0.67101 0.13333 0.38131 0.0
C697 C 0.68041 0.11888 0.34811 0.0
C698 C 0.67561 0.12039 0.29964 0.0
C699 C 0.66134 0.13641 0.28483 0.0
C700 C 0.65147 0.15028 0.31677 0.0
C701 C 0.63862 0.16754 0.29117 0.0
C702 C 0.61441 0.16536 0.30221 0.0
C703 C 0.64698 0.19033 0.30341 0.0
C704 C 0.64346 0.16167 0.24001 0.0
C705 C 0.65634 0.14349 0.23706 0.0
C706 C 0.6642 0.13594 0.19367 0.0
C707 C 0.65891 0.14738 0.15224 0.0
C708 C 0.64598 0.16624 0.15454 0.0
C709 C 0.63793 0.17318 0.19908 0.0
H710 H 0.88447 0.69221 0.34666 0.0
H711 H 0.85552 0.64119 0.43138 0.0
H712 H 0.84676 0.62108 0.35817 0.0
H713 H 0.84528 0.69267 0.25955 0.0
H714 H 0.8633 0.69804 0.21062 0.0
H715 H 0.87037 0.70674 0.26947 0.0
H716 H 0.90641 0.68561 0.26367 0.0
H717 H 0.89941 0.6768 0.20464 0.0
H718 H 0.90599 0.65716 0.24961 0.0
H719 H 0.83724 0.60874 0.27658 0.0
H720 H 0.82648 0.60558 0.19264 0.0
H721 H 0.86147 0.66455 0.16 0.0
C722 C 0.87681 0.67653 0.34992 0.0
C723 C 0.87085 0.66819 0.39487 0.0
C724 C 0.86033 0.64787 0.39743 0.0
C725 C 0.85539 0.63628 0.35601 0.0
C726 C 0.86109 0.64517 0.31226 0.0
C727 C 0.87161 0.66483 0.3089 0.0
C728 C 0.87396 0.67184 0.25752 0.0
C729 C 0.86254 0.6936 0.2488 0.0
C730 C 0.89787 0.67291 0.24301 0.0
C731 C 0.86248 0.65341 0.23257 0.0
C732 C 0.85549 0.63804 0.26482 0.0
C733 C 0.84295 0.62045 0.25092 0.0
C734 C 0.8369 0.61882 0.20314 0.0
C735 C 0.84333 0.63469 0.16968 0.0
C736 C 0.85679 0.65188 0.18448 0.0
H737 H 0.3188 0.87809 0.3589 0.0
H738 H 0.37525 0.85906 0.43994 0.0
H739 H 0.39378 0.84884 0.36559 0.0
H740 H 0.31966 0.83533 0.28107 0.0
H741 H 0.31106 0.85025 0.22949 0.0
H742 H 0.30347 0.85938 0.28779 0.0
H743 H 0.32062 0.89683 0.27097 0.0
H744 H 0.32814 0.88788 0.2123 0.0
H745 H 0.34839 0.89841 0.25195 0.0
H746 H 0.40412 0.83597 0.28459 0.0
H747 H 0.40609 0.82247 0.20232 0.0
H748 H 0.34313 0.85018 0.17323 0.0
C749 C 0.33529 0.87237 0.36102 0.0
C750 C 0.3456 0.86949 0.40538 0.0
C751 C 0.36704 0.86153 0.40647 0.0
C752 C 0.37772 0.8557 0.36437 0.0
C753 C 0.36681 0.85809 0.32143 0.0
C754 C 0.34615 0.86645 0.31937 0.0
C755 C 0.33733 0.86563 0.26921 0.0
C756 C 0.31667 0.85182 0.26678 0.0
C757 C 0.33339 0.88856 0.24997 0.0
C758 C 0.35595 0.85479 0.24366 0.0
C759 C 0.37288 0.85078 0.27437 0.0
C760 C 0.39115 0.83939 0.26002 0.0
C761 C 0.39206 0.83169 0.21325 0.0
C762 C 0.37483 0.83541 0.18124 0.0
C763 C 0.35673 0.84746 0.19657 0.0
H764 H 0.15991 0.64915 0.66515 0.0
H765 H 0.10278 0.68706 0.69686 0.0
H766 H 0.10597 0.67747 0.78151 0.0
H767 H 0.15144 0.60635 0.75937 0.0
H768 H 0.17995 0.60515 0.77183 0.0
H769 H 0.17076 0.61136 0.71269 0.0
H770 H 0.19335 0.64663 0.71383 0.0
H771 H 0.20238 0.64071 0.77302 0.0
H772 H 0.18909 0.66602 0.76075 0.0
H773 H 0.11844 0.66883 0.8634 0.0
H774 H 0.13868 0.6605 0.93659 0.0
H775 H 0.18791 0.62834 0.85235 0.0
C776 C 0.1476 0.65466 0.68967 0.0
C777 C 0.13096 0.66862 0.67445 0.0
C778 C 0.11557 0.67621 0.7078 0.0
C779 C 0.11722 0.67082 0.75595 0.0
C780 C 0.13434 0.65779 0.77026 0.0
C781 C 0.14915 0.64959 0.73809 0.0
C782 C 0.16735 0.63799 0.76339 0.0
C783 C 0.16736 0.61377 0.75109 0.0
C784 C 0.18933 0.64847 0.75207 0.0
C785 C 0.16088 0.6417 0.81468 0.0
C786 C 0.14165 0.6529 0.81787 0.0
C787 C 0.1333 0.65967 0.86142 0.0
C788 C 0.14496 0.65496 0.90281 0.0
C789 C 0.16482 0.64366 0.90034 0.0
C790 C 0.17263 0.63673 0.8556 0.0
H791 H 0.35172 0.16433 0.67561 0.0
H792 H 0.3215 0.10243 0.70561 0.0
H793 H 0.33275 0.10523 0.78911 0.0
H794 H 0.39777 0.15807 0.76074 0.0
H795 H 0.39691 0.18625 0.77705 0.0
H796 H 0.38921 0.17802 0.71806 0.0
H797 H 0.35225 0.19703 0.72887 0.0
H798 H 0.35975 0.20518 0.78786 0.0
H799 H 0.33537 0.18983 0.77866 0.0
H800 H 0.34262 0.11687 0.87121 0.0
H801 H 0.352 0.13605 0.9454 0.0
H802 H 0.37667 0.18988 0.86256 0.0
C803 C 0.34804 0.15108 0.69943 0.0
C804 C 0.33577 0.13314 0.6839 0.0
C805 C 0.33088 0.11636 0.71654 0.0
C806 C 0.33725 0.11775 0.76412 0.0
C807 C 0.34869 0.13594 0.77868 0.0
C808 C 0.35428 0.15221 0.74725 0.0
C809 C 0.36517 0.1708 0.77291 0.0
C810 C 0.38866 0.17343 0.75619 0.0
C811 C 0.35236 0.19195 0.7667 0.0
C812 C 0.36413 0.16273 0.82371 0.0
C813 C 0.35472 0.14251 0.82624 0.0
C814 C 0.35042 0.13252 0.86965 0.0
C815 C 0.35573 0.14355 0.91162 0.0
C816 C 0.36529 0.16434 0.90986 0.0
C817 C 0.36981 0.17381 0.86517 0.0
H818 H 0.82806 0.38494 0.86949 0.0
H819 H 0.86962 0.34383 0.95451 0.0
H820 H 0.88815 0.33156 0.88157 0.0
H821 H 0.81972 0.34843 0.77903 0.0
H822 H 0.81959 0.36799 0.73159 0.0
H823 H 0.81188 0.37602 0.79057 0.0
H824 H 0.84101 0.40612 0.7896 0.0
H825 H 0.84879 0.39821 0.73038 0.0
H826 H 0.8687 0.39918 0.77693 0.0
H827 H 0.8988 0.32024 0.79923 0.0
H828 H 0.90096 0.31091 0.71417 0.0
H829 H 0.85272 0.35969 0.68266 0.0
C830 C 0.84142 0.37377 0.87303 0.0
C831 C 0.84743 0.36544 0.9179 0.0
C832 C 0.86477 0.35055 0.92066 0.0
C833 C 0.87543 0.34352 0.8794 0.0
C834 C 0.86869 0.35164 0.83567 0.0
C835 C 0.85219 0.36658 0.83227 0.0
C836 C 0.84674 0.37139 0.7809 0.0
C837 C 0.82309 0.3656 0.7699 0.0
C838 C 0.85161 0.39514 0.76874 0.0
C839 C 0.86226 0.35627 0.75584 0.0
C840 C 0.87495 0.34521 0.78806 0.0
C841 C 0.88924 0.32909 0.77366 0.0
C842 C 0.89031 0.32387 0.72525 0.0
C843 C 0.87715 0.33471 0.6917 0.0
C844 C 0.86332 0.35145 0.70726 0.0
H845 H 0.66325 0.86105 0.8997 0.0
H846 H 0.60845 0.82035 0.86501 0.0
H847 H 0.61117 0.83149 0.78118 0.0
H848 H 0.65227 0.9048 0.81032 0.0
H849 H 0.68059 0.90805 0.79724 0.0
H850 H 0.6721 0.89991 0.85584 0.0
H851 H 0.69668 0.86609 0.85022 0.0
H852 H 0.70513 0.87404 0.79168 0.0
H853 H 0.69344 0.84768 0.80109 0.0
H854 H 0.62251 0.84304 0.70022 0.0
H855 H 0.64192 0.85404 0.62757 0.0
H856 H 0.68974 0.88705 0.71376 0.0
C857 C 0.65141 0.85509 0.87468 0.0
C858 C 0.6355 0.84001 0.8889 0.0
C859 C 0.62071 0.83199 0.85489 0.0
C860 C 0.62206 0.83829 0.80721 0.0
C861 C 0.63832 0.85264 0.79396 0.0
C862 C 0.6527 0.86104 0.82668 0.0
C863 C 0.67005 0.87434 0.80226 0.0
C864 C 0.66866 0.89819 0.81731 0.0
C865 C 0.69265 0.86497 0.81188 0.0
C866 C 0.66359 0.87146 0.75073 0.0
C867 C 0.64506 0.85916 0.74681 0.0
C868 C 0.63683 0.85299 0.70281 0.0
C869 C 0.64801 0.85928 0.6617 0.0
C870 C 0.6673 0.87152 0.66482 0.0
C871 C 0.67487 0.878 0.71004 0.0
H872 H 0.87764 0.6919 0.69629 0.0
H873 H 0.84011 0.64033 0.63267 0.0
H874 H 0.83472 0.62388 0.71174 0.0
H875 H 0.90237 0.65988 0.79402 0.0
H876 H 0.89958 0.68163 0.83621 0.0
H877 H 0.90342 0.68757 0.7741 0.0
H878 H 0.86851 0.71064 0.77432 0.0
H879 H 0.86459 0.70479 0.83629 0.0
H880 H 0.84354 0.69867 0.79426 0.0
H881 H 0.83099 0.61451 0.79757 0.0
H882 H 0.82656 0.61441 0.88455 0.0
H883 H 0.86475 0.67316 0.89396 0.0
C884 C 0.86881 0.67683 0.69903 0.0
C885 C 0.85957 0.66714 0.65839 0.0
C886 C 0.84745 0.64787 0.66338 0.0
C887 C 0.84439 0.63837 0.7081 0.0
C888 C 0.85336 0.64848 0.74766 0.0
C889 C 0.8652 0.66737 0.7437 0.0
C890 C 0.87096 0.67622 0.79234 0.0
C891 C 0.89555 0.67632 0.79958 0.0
C892 C 0.86132 0.69892 0.79972 0.0
C893 C 0.86012 0.65962 0.82417 0.0
C894 C 0.85044 0.64353 0.7976 0.0
C895 C 0.83865 0.62692 0.81878 0.0
C896 C 0.83625 0.62699 0.86831 0.0
C897 C 0.84535 0.64373 0.89626 0.0
C898 C 0.85779 0.66 0.87375 0.0
H899 H 0.32149 0.87418 0.71009 0.0
H900 H 0.38107 0.84935 0.65036 0.0
H901 H 0.39535 0.84341 0.73115 0.0
H902 H 0.34496 0.89946 0.81925 0.0
H903 H 0.32252 0.89095 0.85557 0.0
H904 H 0.31845 0.89689 0.79357 0.0
H905 H 0.30196 0.85878 0.78133 0.0
H906 H 0.30606 0.8527 0.84309 0.0
H907 H 0.31734 0.83525 0.79816 0.0
H908 H 0.4018 0.83678 0.81732 0.0
H909 H 0.39933 0.82802 0.90252 0.0
H910 H 0.33477 0.8553 0.90716 0.0
C911 C 0.33781 0.86819 0.7142 0.0
C912 C 0.35039 0.8626 0.67412 0.0
C913 C 0.37132 0.85396 0.68068 0.0
C914 C 0.37957 0.8506 0.72642 0.0
C915 C 0.36659 0.85574 0.7653 0.0
C916 C 0.34612 0.86431 0.75974 0.0
C917 C 0.33457 0.866 0.80719 0.0
C918 C 0.32985 0.88974 0.81962 0.0
C919 C 0.31376 0.85237 0.80743 0.0
C920 C 0.3515 0.85652 0.84001 0.0
C921 C 0.37 0.85112 0.81519 0.0
C922 C 0.38749 0.84116 0.83724 0.0
C923 C 0.38592 0.83623 0.88573 0.0
C924 C 0.36689 0.84101 0.91169 0.0
C925 C 0.34963 0.85163 0.8885 0.0
H926 H 0.13245 0.31581 0.67553 0.0
H927 H 0.1645 0.37121 0.61277 0.0
H928 H 0.17149 0.386 0.69291 0.0
H929 H 0.10915 0.34345 0.78111 0.0
H930 H 0.1147 0.3208 0.81946 0.0
H931 H 0.10915 0.31635 0.75743 0.0
H932 H 0.14533 0.29569 0.74874 0.0
H933 H 0.15103 0.30014 0.81057 0.0
H934 H 0.17012 0.30877 0.76604 0.0
H935 H 0.17729 0.39346 0.77975 0.0
H936 H 0.18379 0.39181 0.86614 0.0
H937 H 0.15019 0.33026 0.87259 0.0
C938 C 0.14033 0.33139 0.67875 0.0
C939 C 0.14755 0.34264 0.63804 0.0
C940 C 0.1586 0.36252 0.64356 0.0
C941 C 0.1626 0.37105 0.68891 0.0
C942 C 0.15569 0.35935 0.72846 0.0
C943 C 0.14489 0.33987 0.72386 0.0
C944 C 0.14137 0.32934 0.77191 0.0
C945 C 0.11715 0.32738 0.78313 0.0
C946 C 0.15264 0.30718 0.77444 0.0
C947 C 0.1522 0.34571 0.80413 0.0
C948 C 0.15998 0.3631 0.77845 0.0
C949 C 0.17114 0.37999 0.80024 0.0
C950 C 0.17473 0.37892 0.8494 0.0
C951 C 0.1675 0.36092 0.87624 0.0
C952 C 0.15585 0.34427 0.85317 0.0
H953 H 0.67251 0.1581 0.8817 0.0
H954 H 0.60967 0.18913 0.88016 0.0
H955 H 0.60587 0.18016 0.79509 0.0
H956 H 0.68998 0.17653 0.77153 0.0
H957 H 0.7039 0.15206 0.75491 0.0
H958 H 0.70061 0.15881 0.81661 0.0
H959 H 0.68216 0.12182 0.83168 0.0
H960 H 0.68538 0.11494 0.76987 0.0
H961 H 0.65898 0.11419 0.79685 0.0
H962 H 0.61101 0.17201 0.70828 0.0
H963 H 0.62414 0.16418 0.62714 0.0
H964 H 0.68279 0.13679 0.68552 0.0
C965 C 0.65776 0.16267 0.86373 0.0
C966 C 0.64136 0.17431 0.8877 0.0
C967 C 0.6224 0.18012 0.8627 0.0
C968 C 0.62009 0.17507 0.81434 0.0
C969 C 0.63674 0.16393 0.79159 0.0
C970 C 0.65512 0.15759 0.81559 0.0
C971 C 0.67115 0.14685 0.78235 0.0
C972 C 0.69267 0.15931 0.78129 0.0
C973 C 0.67461 0.12303 0.79601 0.0
C974 C 0.65925 0.14877 0.73557 0.0
C975 C 0.63938 0.15859 0.74171 0.0
C976 C 0.62631 0.16389 0.70318 0.0
C977 C 0.6339 0.1594 0.65723 0.0
C978 C 0.65428 0.14952 0.65013 0.0
C979 C 0.66686 0.14375 0.68995 0.0
H980 H 0.87322 0.32651 0.38694 0.0
H981 H 0.84791 0.38588 0.44709 0.0
H982 H 0.84096 0.39986 0.36632 0.0
H983 H 0.89725 0.35024 0.27699 0.0
H984 H 0.889 0.32748 0.24137 0.0
H985 H 0.89535 0.32371 0.30324 0.0
H986 H 0.85772 0.30647 0.31689 0.0
H987 H 0.85119 0.31031 0.25529 0.0
H988 H 0.83384 0.32138 0.30064 0.0
H989 H 0.83352 0.40594 0.27945 0.0
H990 H 0.82496 0.4031 0.19402 0.0
H991 H 0.85347 0.339 0.19069 0.0
C992 C 0.86692 0.34275 0.383 0.0
C993 C 0.86147 0.3553 0.42323 0.0
C994 C 0.85244 0.37612 0.41672 0.0
C995 C 0.84846 0.3842 0.37097 0.0
C996 C 0.85344 0.37118 0.33201 0.0
C997 C 0.86248 0.35088 0.33755 0.0
C998 C 0.86413 0.33921 0.29031 0.0
C999 C 0.88784 0.33491 0.27721 0.0
C1000 C 0.85093 0.3181 0.29084 0.0
C1001 C 0.85415 0.35588 0.25754 0.0
C1002 C 0.84843 0.37436 0.28213 0.0
C1003 C 0.83813 0.39163 0.25976 0.0
C1004 C 0.83333 0.38987 0.21118 0.0
C1005 C 0.83856 0.37086 0.18552 0.0
C1006 C 0.84936 0.35381 0.20913 0.0
H1007 H 0.67324 0.86716 0.16551 0.0
H1008 H 0.61293 0.83168 0.17658 0.0
H1009 H 0.61317 0.83678 0.26327 0.0
H1010 H 0.69755 0.84548 0.26497 0.0
H1011 H 0.71074 0.8699 0.28445 0.0
H1012 H 0.70457 0.86619 0.22261 0.0
H1013 H 0.68309 0.90213 0.22207 0.0
H1014 H 0.68935 0.90607 0.28396 0.0
H1015 H 0.66164 0.90617 0.26451 0.0
H1016 H 0.62267 0.84046 0.34868 0.0
H1017 H 0.63937 0.84535 0.42754 0.0
H1018 H 0.69245 0.88039 0.3629 0.0
C1019 C 0.65977 0.86102 0.18602 0.0
C1020 C 0.64302 0.84907 0.16407 0.0
C1021 C 0.62589 0.84097 0.19238 0.0
C1022 C 0.62588 0.84378 0.24176 0.0
C1023 C 0.64295 0.855 0.26244 0.0
C1024 C 0.65942 0.86383 0.23551 0.0
C1025 C 0.6765 0.874 0.26705 0.0
C1026 C 0.69864 0.86324 0.2593 0.0
C1027 C 0.67771 0.89855 0.25891 0.0
C1028 C 0.66744 0.86882 0.31585 0.0
C1029 C 0.64803 0.85788 0.31225 0.0
C1030 C 0.63756 0.8495 0.35204 0.0
C1031 C 0.64719 0.85227 0.39663 0.0
C1032 C 0.66694 0.86357 0.40126 0.0
C1033 C 0.67701 0.87223 0.3604 0.0
H1034 H 0.1651 0.64475 0.39823 0.0
H1035 H 0.11087 0.68901 0.38909 0.0
H1036 H 0.11144 0.68574 0.30181 0.0
H1037 H 0.19364 0.66475 0.30261 0.0
H1038 H 0.2034 0.63908 0.28113 0.0
H1039 H 0.19697 0.64238 0.343 0.0
H1040 H 0.17049 0.61001 0.33878 0.0
H1041 H 0.17698 0.60646 0.27684 0.0
H1042 H 0.14929 0.61002 0.29502 0.0
H1043 H 0.1214 0.68222 0.21609 0.0
H1044 H 0.13824 0.67637 0.13757 0.0
H1045 H 0.18491 0.63294 0.20114 0.0
C1046 C 0.15295 0.65329 0.37798 0.0
C1047 C 0.13788 0.66709 0.40063 0.0
C1048 C 0.12248 0.67823 0.37269 0.0
C1049 C 0.12269 0.67649 0.32302 0.0
C1050 C 0.1382 0.66331 0.30175 0.0
C1051 C 0.15284 0.6516 0.32833 0.0
C1052 C 0.1687 0.63968 0.29657 0.0
C1053 C 0.19205 0.64692 0.30642 0.0
C1054 C 0.16621 0.61508 0.30213 0.0
C1055 C 0.16118 0.64713 0.24805 0.0
C1056 C 0.14351 0.6607 0.25191 0.0
C1057 C 0.13489 0.67122 0.21251 0.0
C1058 C 0.14462 0.66788 0.16811 0.0
C1059 C 0.16265 0.65397 0.16327 0.0
C1060 C 0.1708 0.64322 0.20369 0.0
H1061 H 0.31901 0.13661 0.38105 0.0
H1062 H 0.37224 0.17173 0.44435 0.0
H1063 H 0.38708 0.17921 0.36443 0.0
H1064 H 0.34833 0.11432 0.27679 0.0
H1065 H 0.32575 0.1186 0.23762 0.0
H1066 H 0.32115 0.1131 0.29967 0.0
H1067 H 0.29873 0.14832 0.30681 0.0
H1068 H 0.30331 0.15395 0.24495 0.0
H1069 H 0.31067 0.17369 0.28918 0.0
H1070 H 0.39484 0.18494 0.27783 0.0
H1071 H 0.39356 0.19096 0.19127 0.0
H1072 H 0.33385 0.15434 0.18374 0.0
C1073 C 0.33412 0.14531 0.37798 0.0
C1074 C 0.34477 0.15323 0.41878 0.0
C1075 C 0.36403 0.16531 0.41348 0.0
C1076 C 0.37259 0.16959 0.36826 0.0
C1077 C 0.36151 0.16193 0.32861 0.0
C1078 C 0.34261 0.15017 0.33297 0.0
C1079 C 0.33262 0.14591 0.2847 0.0
C1080 C 0.33193 0.12153 0.27407 0.0
C1081 C 0.31 0.15608 0.28123 0.0
C1082 C 0.34864 0.15741 0.25264 0.0
C1083 C 0.3654 0.16617 0.27863 0.0
C1084 C 0.38187 0.17804 0.25708 0.0
C1085 C 0.381 0.18135 0.20782 0.0
C1086 C 0.36362 0.17313 0.18061 0.0
C1087 C 0.3474 0.16077 0.20345 0.0
loop_
_geom_bond_atom_site_label_1
_geom_bond_atom_site_label_2
_geom_bond_distance
_geom_bond_site_symmetry_2
_ccdc_geom_bond_type
O0 Cd1 2.223 . S
O0 C8 1.315 . S
Cd1 O0 2.223 . S
Cd1 O4 2.297 . S
Cd1 O5 2.439 . S
Cd1 O11 2.230 1_554 S
Cd2 O3 2.240 1_556 S
Cd2 O10 2.223 1_556 S
Cd2 O12 2.297 . S
Cd2 O13 2.439 . S
O3 Cd2 2.240 1_554 S
O3 C8 1.279 . S
O4 Cd1 2.297 . S
O4 C6 1.247 . S
O5 Cd1 2.439 . S
O5 C6 1.208 . S
C6 O4 1.247 . S
C6 O5 1.208 . S
C7 O12 1.247 . S
C7 O13 1.208 . S
C8 O0 1.315 . S
C8 O3 1.279 . S
C9 O10 1.315 . S
C9 O11 1.273 1_554 S
O10 Cd2 2.223 1_554 S
O10 C9 1.315 . S
O11 Cd1 2.230 1_556 S
O11 C9 1.273 1_556 S
O12 Cd2 2.297 . S
O12 C7 1.247 . S
O13 Cd2 2.439 . S
O13 C7 1.208 . S
O14 Cd15 2.223 . S
O14 C22 1.315 . S
Cd15 O14 2.223 . S
Cd15 O18 2.297 . S
Cd15 O19 2.439 . S
Cd15 O25 2.230 1_554 S
Cd16 O17 2.240 1_556 S
Cd16 O24 2.223 1_556 S
Cd16 O26 2.297 . S
Cd16 O27 2.439 . S
O17 Cd16 2.240 1_554 S
O17 C22 1.279 . S
O18 Cd15 2.297 . S
O18 C20 1.247 . S
O19 Cd15 2.439 . S
O19 C20 1.208 . S
C20 O18 1.247 . S
C20 O19 1.208 . S
C21 O26 1.247 . S
C21 O27 1.208 . S
C22 O14 1.315 . S
C22 O17 1.279 . S
C23 O24 1.315 . S
C23 O25 1.273 1_554 S
O24 Cd16 2.223 1_554 S
O24 C23 1.315 . S
O25 Cd15 2.230 1_556 S
O25 C23 1.273 1_556 S
O26 Cd16 2.297 . S
O26 C21 1.247 . S
O27 Cd16 2.439 . S
O27 C21 1.208 . S
O28 Cd29 2.223 . S
O28 C36 1.315 . S
Cd29 O28 2.223 . S
Cd29 O32 2.297 . S
Cd29 O33 2.439 . S
Cd29 O39 2.230 1_554 S
Cd30 O31 2.240 1_556 S
Cd30 O38 2.223 1_556 S
Cd30 O40 2.297 . S
Cd30 O41 2.439 . S
O31 Cd30 2.240 1_554 S
O31 C36 1.279 . S
O32 Cd29 2.297 . S
O32 C34 1.247 . S
O33 Cd29 2.439 . S
O33 C34 1.208 . S
C34 O32 1.247 . S
C34 O33 1.208 . S
C35 O40 1.247 . S
C35 O41 1.208 . S
C36 O28 1.315 . S
C36 O31 1.279 . S
C37 O38 1.315 . S
C37 O39 1.273 1_554 S
O38 Cd30 2.223 1_554 S
O38 C37 1.315 . S
O39 Cd29 2.230 1_556 S
O39 C37 1.273 1_556 S
O40 Cd30 2.297 . S
O40 C35 1.247 . S
O41 Cd30 2.439 . S
O41 C35 1.208 . S
O42 Cd43 2.223 . S
O42 C50 1.315 . S
Cd43 O42 2.223 . S
Cd43 O46 2.297 . S
Cd43 O47 2.439 . S
Cd43 O53 2.230 1_554 S
Cd44 O45 2.240 1_556 S
Cd44 O52 2.223 1_556 S
Cd44 O54 2.297 . S
Cd44 O55 2.439 . S
O45 Cd44 2.240 1_554 S
O45 C50 1.279 . S
O46 Cd43 2.297 . S
O46 C48 1.247 . S
O47 Cd43 2.439 . S
O47 C48 1.208 . S
C48 O46 1.247 . S
C48 O47 1.208 . S
C49 O54 1.247 . S
C49 O55 1.208 . S
C50 O42 1.315 . S
C50 O45 1.279 . S
C51 O52 1.315 . S
C51 O53 1.273 1_554 S
O52 Cd44 2.223 1_554 S
O52 C51 1.315 . S
O53 Cd43 2.230 1_556 S
O53 C51 1.273 1_556 S
O54 Cd44 2.297 . S
O54 C49 1.247 . S
O55 Cd44 2.439 . S
O55 C49 1.208 . S
O56 Cd57 2.223 . S
O56 C64 1.315 . S
Cd57 O56 2.223 . S
Cd57 O60 2.297 . S
Cd57 O61 2.439 1_556 S
Cd57 O67 2.240 1_556 S
Cd58 O59 2.240 1_554 S
Cd58 O66 2.223 . S
Cd58 O68 2.297 . S
Cd58 O69 2.439 . S
O59 Cd58 2.240 1_556 S
O59 C64 1.279 . S
O60 Cd57 2.297 . S
O60 C62 1.247 . S
O61 Cd57 2.439 1_554 S
O61 C62 1.208 1_554 S
C62 O60 1.247 . S
C62 O61 1.208 1_556 S
C63 O68 1.247 . S
C63 O69 1.208 . S
C64 O56 1.315 . S
C64 O59 1.279 . S
C65 O66 1.315 . S
C65 O67 1.279 . S
O66 Cd58 2.223 . S
O66 C65 1.315 . S
O67 Cd57 2.240 1_554 S
O67 C65 1.279 . S
O68 Cd58 2.297 . S
O68 C63 1.247 . S
O69 Cd58 2.439 . S
O69 C63 1.208 . S
O70 Cd71 2.223 . S
O70 C78 1.315 . S
Cd71 O70 2.223 . S
Cd71 O74 2.297 . S
Cd71 O75 2.439 1_556 S
Cd71 O81 2.240 1_556 S
Cd72 O73 2.240 1_554 S
Cd72 O80 2.223 . S
Cd72 O82 2.297 . S
Cd72 O83 2.439 . S
O73 Cd72 2.240 1_556 S
O73 C78 1.279 . S
O74 Cd71 2.297 . S
O74 C76 1.247 . S
O75 Cd71 2.439 1_554 S
O75 C76 1.208 1_554 S
C76 O74 1.247 . S
C76 O75 1.208 1_556 S
C77 O82 1.247 . S
C77 O83 1.208 . S
C78 O70 1.315 . S
C78 O73 1.279 . S
C79 O80 1.315 . S
C79 O81 1.279 . S
O80 Cd72 2.223 . S
O80 C79 1.315 . S
O81 Cd71 2.240 1_554 S
O81 C79 1.279 . S
O82 Cd72 2.297 . S
O82 C77 1.247 . S
O83 Cd72 2.439 . S
O83 C77 1.208 . S
O84 Cd85 2.223 . S
O84 C92 1.315 . S
Cd85 O84 2.223 . S
Cd85 O88 2.297 . S
Cd85 O89 2.439 1_556 S
Cd85 O95 2.240 1_556 S
Cd86 O87 2.240 1_554 S
Cd86 O94 2.223 . S
Cd86 O96 2.297 . S
Cd86 O97 2.439 . S
O87 Cd86 2.240 1_556 S
O87 C92 1.279 . S
O88 Cd85 2.297 . S
O88 C90 1.247 . S
O89 Cd85 2.439 1_554 S
O89 C90 1.208 1_554 S
C90 O88 1.247 . S
C90 O89 1.208 1_556 S
C91 O96 1.247 . S
C91 O97 1.208 . S
C92 O84 1.315 . S
C92 O87 1.279 . S
C93 O94 1.315 . S
C93 O95 1.279 . S
O94 Cd86 2.223 . S
O94 C93 1.315 . S
O95 Cd85 2.240 1_554 S
O95 C93 1.279 . S
O96 Cd86 2.297 . S
O96 C91 1.247 . S
O97 Cd86 2.439 . S
O97 C91 1.208 . S
O98 Cd99 2.223 . S
O98 C106 1.315 . S
Cd99 O98 2.223 . S
Cd99 O102 2.297 . S
Cd99 O103 2.439 1_556 S
Cd99 O109 2.240 1_556 S
Cd100 O101 2.240 1_554 S
Cd100 O108 2.223 . S
Cd100 O110 2.297 . S
Cd100 O111 2.439 . S
O101 Cd100 2.240 1_556 S
O101 C106 1.279 . S
O102 Cd99 2.297 . S
O102 C104 1.247 . S
O103 Cd99 2.439 1_554 S
O103 C104 1.208 1_554 S
C104 O102 1.247 . S
C104 O103 1.208 1_556 S
C105 O110 1.247 . S
C105 O111 1.208 . S
C106 O98 1.315 . S
C106 O101 1.279 . S
C107 O108 1.315 . S
C107 O109 1.279 . S
O108 Cd100 2.223 . S
O108 C107 1.315 . S
O109 Cd99 2.240 1_554 S
O109 C107 1.279 . S
O110 Cd100 2.297 . S
O110 C105 1.247 . S
O111 Cd100 2.439 . S
O111 C105 1.208 . S
O112 Cd113 2.223 . S
O112 C120 1.315 . S
Cd113 O112 2.223 . S
Cd113 O116 2.297 . S
Cd113 O117 2.439 . S
Cd113 O123 2.240 . S
Cd114 O115 2.240 . S
Cd114 O122 2.223 . S
Cd114 O124 2.297 . S
Cd114 O125 2.439 . S
O115 Cd114 2.240 . S
O115 C120 1.279 . S
O116 Cd113 2.297 . S
O116 C118 1.247 . S
O117 Cd113 2.439 . S
O117 C118 1.208 . S
C118 O116 1.247 . S
C118 O117 1.208 . S
C119 O124 1.247 . S
C119 O125 1.208 . S
C120 O112 1.315 . S
C120 O115 1.279 . S
C121 O122 1.315 . S
C121 O123 1.279 . S
O122 Cd114 2.223 . S
O122 C121 1.315 . S
O123 Cd113 2.240 . S
O123 C121 1.279 . S
O124 Cd114 2.297 . S
O124 C119 1.247 . S
O125 Cd114 2.439 . S
O125 C119 1.208 . S
O126 Cd127 2.223 . S
O126 C134 1.315 . S
Cd127 O126 2.223 . S
Cd127 O130 2.297 . S
Cd127 O131 2.439 . S
Cd127 O137 2.240 . S
Cd128 O129 2.240 . S
Cd128 O136 2.223 . S
Cd128 O138 2.297 . S
Cd128 O139 2.439 . S
O129 Cd128 2.240 . S
O129 C134 1.279 . S
O130 Cd127 2.297 . S
O130 C132 1.247 . S
O131 Cd127 2.439 . S
O131 C132 1.208 . S
C132 O130 1.247 . S
C132 O131 1.208 . S
C133 O138 1.247 . S
C133 O139 1.208 . S
C134 O126 1.315 . S
C134 O129 1.279 . S
C135 O136 1.315 . S
C135 O137 1.279 . S
O136 Cd128 2.223 . S
O136 C135 1.315 . S
O137 Cd127 2.240 . S
O137 C135 1.279 . S
O138 Cd128 2.297 . S
O138 C133 1.247 . S
O139 Cd128 2.439 . S
O139 C133 1.208 . S
O140 Cd141 2.223 . S
O140 C148 1.315 . S
Cd141 O140 2.223 . S
Cd141 O144 2.297 . S
Cd141 O145 2.439 . S
Cd141 O151 2.240 . S
Cd142 O143 2.240 . S
Cd142 O150 2.223 . S
Cd142 O152 2.297 . S
Cd142 O153 2.439 . S
O143 Cd142 2.240 . S
O143 C148 1.279 . S
O144 Cd141 2.297 . S
O144 C146 1.247 . S
O145 Cd141 2.439 . S
O145 C146 1.208 . S
C146 O144 1.247 . S
C146 O145 1.208 . S
C147 O152 1.247 . S
C147 O153 1.208 . S
C148 O140 1.315 . S
C148 O143 1.279 . S
C149 O150 1.315 . S
C149 O151 1.279 . S
O150 Cd142 2.223 . S
O150 C149 1.315 . S
O151 Cd141 2.240 . S
O151 C149 1.279 . S
O152 Cd142 2.297 . S
O152 C147 1.247 . S
O153 Cd142 2.439 . S
O153 C147 1.208 . S
O154 Cd155 2.223 . S
O154 C162 1.315 . S
Cd155 O154 2.223 . S
Cd155 O158 2.297 . S
Cd155 O159 2.439 . S
Cd155 O165 2.240 . S
Cd156 O157 2.240 . S
Cd156 O164 2.223 . S
Cd156 O166 2.297 . S
Cd156 O167 2.439 . S
O157 Cd156 2.240 . S
O157 C162 1.279 . S
O158 Cd155 2.297 . S
O158 C160 1.247 . S
O159 Cd155 2.439 . S
O159 C160 1.208 . S
C160 O158 1.247 . S
C160 O159 1.208 . S
C161 O166 1.247 . S
C161 O167 1.208 . S
C162 O154 1.315 . S
C162 O157 1.279 . S
C163 O164 1.315 . S
C163 O165 1.279 . S
O164 Cd156 2.223 . S
O164 C163 1.315 . S
O165 Cd155 2.240 . S
O165 C163 1.279 . S
O166 Cd156 2.297 . S
O166 C161 1.247 . S
O167 Cd156 2.439 . S
O167 C161 1.208 . S
O168 Cd169 2.223 . S
O168 C176 1.315 . S
Cd169 O168 2.223 . S
Cd169 O172 2.297 . S
Cd169 O173 2.439 . S
Cd169 O179 2.240 . S
Cd170 O171 2.240 . S
Cd170 O178 2.223 . S
Cd170 O180 2.297 . S
Cd170 O181 2.439 . S
O171 Cd170 2.240 . S
O171 C176 1.279 . S
O172 Cd169 2.297 . S
O172 C174 1.247 . S
O173 Cd169 2.439 . S
O173 C174 1.208 . S
C174 O172 1.247 . S
C174 O173 1.208 . S
C175 O180 1.247 . S
C175 O181 1.208 . S
C176 O168 1.315 . S
C176 O171 1.279 . S
C177 O178 1.315 . S
C177 O179 1.279 . S
O178 Cd170 2.223 . S
O178 C177 1.315 . S
O179 Cd169 2.240 . S
O179 C177 1.279 . S
O180 Cd170 2.297 . S
O180 C175 1.247 . S
O181 Cd170 2.439 . S
O181 C175 1.208 . S
O182 Cd183 2.223 . S
O182 C190 1.315 . S
Cd183 O182 2.223 . S
Cd183 O186 2.297 . S
Cd183 O187 2.439 . S
Cd183 O193 2.240 . S
Cd184 O185 2.240 . S
Cd184 O192 2.223 . S
Cd184 O194 2.297 . S
Cd184 O195 2.439 . S
O185 Cd184 2.240 . S
O185 C190 1.279 . S
O186 Cd183 2.297 . S
O186 C188 1.247 . S
O187 Cd183 2.439 . S
O187 C188 1.208 . S
C188 O186 1.247 . S
C188 O187 1.208 . S
C189 O194 1.247 . S
C189 O195 1.208 . S
C190 O182 1.315 . S
C190 O185 1.279 . S
C191 O192 1.315 . S
C191 O193 1.279 . S
O192 Cd184 2.223 . S
O192 C191 1.315 . S
O193 Cd183 2.240 . S
O193 C191 1.279 . S
O194 Cd184 2.297 . S
O194 C189 1.247 . S
O195 Cd184 2.439 . S
O195 C189 1.208 . S
O196 Cd197 2.223 . S
O196 C204 1.315 . S
Cd197 O196 2.223 . S
Cd197 O200 2.297 . S
Cd197 O201 2.439 . S
Cd197 O207 2.240 . S
Cd198 O199 2.240 . S
Cd198 O206 2.223 . S
Cd198 O208 2.297 . S
Cd198 O209 2.439 . S
O199 Cd198 2.240 . S
O199 C204 1.279 . S
O200 Cd197 2.297 . S
O200 C202 1.247 . S
O201 Cd197 2.439 . S
O201 C202 1.208 . S
C202 O200 1.247 . S
C202 O201 1.208 . S
C203 O208 1.247 . S
C203 O209 1.208 . S
C204 O196 1.315 . S
C204 O199 1.279 . S
C205 O206 1.315 . S
C205 O207 1.279 . S
O206 Cd198 2.223 . S
O206 C205 1.315 . S
O207 Cd197 2.240 . S
O207 C205 1.279 . S
O208 Cd198 2.297 . S
O208 C203 1.247 . S
O209 Cd198 2.439 . S
O209 C203 1.208 . S
O210 Cd211 2.223 . S
O210 C218 1.315 . S
Cd211 O210 2.223 . S
Cd211 O214 2.297 . S
Cd211 O215 2.439 . S
Cd211 O221 2.240 . S
Cd212 O213 2.240 . S
Cd212 O220 2.223 . S
Cd212 O222 2.297 . S
Cd212 O223 2.439 . S
O213 Cd212 2.240 . S
O213 C218 1.279 . S
O214 Cd211 2.297 . S
O214 C216 1.247 . S
O215 Cd211 2.439 . S
O215 C216 1.208 . S
C216 O214 1.247 . S
C216 O215 1.208 . S
C217 O222 1.247 . S
C217 O223 1.208 . S
C218 O210 1.315 . S
C218 O213 1.279 . S
C219 O220 1.315 . S
C219 O221 1.279 . S
O220 Cd212 2.223 . S
O220 C219 1.315 . S
O221 Cd211 2.240 . S
O221 C219 1.279 . S
O222 Cd212 2.297 . S
O222 C217 1.247 . S
O223 Cd212 2.439 . S
O223 C217 1.208 . S
H224 C236 0.930 . S
H225 C238 0.930 . S
H226 C239 0.930 . S
H227 C243 0.959 . S
H228 C243 0.959 . S
H229 C243 0.961 . S
H230 C244 0.960 . S
H231 C244 0.961 . S
H232 C244 0.959 . S
H233 C247 0.929 . S
H234 C248 0.931 . S
H235 C250 0.930 . S
C236 H224 0.930 . S
C236 C237 1.399 1_554 S
C236 C241 1.399 . S
C237 C236 1.399 1_556 S
C237 C238 1.376 . S
C238 H225 0.930 . S
C238 C237 1.376 . S
C238 C239 1.388 . S
C239 H226 0.930 . S
C239 C238 1.388 . S
C239 C240 1.390 . S
C240 C239 1.390 . S
C240 C241 1.394 1_556 S
C240 C246 1.465 . S
C241 C236 1.399 . S
C241 C240 1.394 1_554 S
C241 C242 1.516 . S
C242 C241 1.516 . S
C242 C243 1.502 . S
C242 C244 1.561 . S
C242 C245 1.526 . S
C243 H227 0.959 . S
C243 H228 0.959 . S
C243 H229 0.961 . S
C243 C242 1.502 . S
C244 H230 0.960 . S
C244 H231 0.961 . S
C244 H232 0.959 . S
C244 C242 1.561 . S
C245 C242 1.526 . S
C245 C246 1.396 1_554 S
C245 C250 1.390 . S
C246 C240 1.465 . S
C246 C245 1.396 1_556 S
C246 C247 1.399 . S
C247 H233 0.929 . S
C247 C246 1.399 . S
C247 C248 1.385 . S
C248 H234 0.931 . S
C248 C247 1.385 . S
C248 C249 1.389 1_556 S
C249 C248 1.389 1_554 S
C249 C250 1.387 . S
C250 H235 0.930 . S
C250 C245 1.390 . S
C250 C249 1.387 . S
H251 C263 0.930 . S
H252 C265 0.930 . S
H253 C266 0.930 . S
H254 C270 0.959 . S
H255 C270 0.959 . S
H256 C270 0.961 . S
H257 C271 0.960 . S
H258 C271 0.961 . S
H259 C271 0.959 . S
H260 C274 0.929 . S
H261 C275 0.931 . S
H262 C277 0.930 . S
C263 H251 0.930 . S
C263 C264 1.399 . S
C263 C268 1.399 . S
C264 C263 1.399 . S
C264 C265 1.376 1_556 S
C265 H252 0.930 . S
C265 C264 1.376 1_554 S
C265 C266 1.388 . S
C266 H253 0.930 . S
C266 C265 1.388 . S
C266 C267 1.390 . S
C267 C266 1.390 . S
C267 C268 1.394 1_554 S
C267 C273 1.465 . S
C268 C263 1.399 . S
C268 C267 1.394 1_556 S
C268 C269 1.516 . S
C269 C268 1.516 . S
C269 C270 1.502 . S
C269 C271 1.561 . S
C269 C272 1.526 . S
C270 H254 0.959 . S
C270 H255 0.959 . S
C270 H256 0.961 . S
C270 C269 1.502 . S
C271 H257 0.960 . S
C271 H258 0.961 . S
C271 H259 0.959 . S
C271 C269 1.561 . S
C272 C269 1.526 . S
C272 C273 1.396 1_556 S
C272 C277 1.390 . S
C273 C267 1.465 . S
C273 C272 1.396 1_554 S
C273 C274 1.399 . S
C274 H260 0.929 . S
C274 C273 1.399 . S
C274 C275 1.385 . S
C275 H261 0.931 . S
C275 C274 1.385 . S
C275 C276 1.389 . S
C276 C275 1.389 . S
C276 C277 1.387 1_554 S
C277 H262 0.930 . S
C277 C272 1.390 . S
C277 C276 1.387 1_556 S
H278 C290 0.930 . S
H279 C292 0.930 . S
H280 C293 0.930 . S
H281 C297 0.959 . S
H282 C297 0.959 . S
H283 C297 0.961 . S
H284 C298 0.960 . S
H285 C298 0.961 . S
H286 C298 0.959 . S
H287 C301 0.929 . S
H288 C302 0.931 . S
H289 C304 0.930 . S
C290 H278 0.930 . S
C290 C291 1.399 1_554 S
C290 C295 1.399 . S
C291 C290 1.399 1_556 S
C291 C292 1.376 . S
C292 H279 0.930 . S
C292 C291 1.376 . S
C292 C293 1.388 . S
C293 H280 0.930 . S
C293 C292 1.388 . S
C293 C294 1.390 . S
C294 C293 1.390 . S
C294 C295 1.394 1_556 S
C294 C300 1.465 1_556 S
C295 C290 1.399 . S
C295 C294 1.394 1_554 S
C295 C296 1.516 . S
C296 C295 1.516 . S
C296 C297 1.502 . S
C296 C298 1.561 . S
C296 C299 1.526 . S
C297 H281 0.959 . S
C297 H282 0.959 . S
C297 H283 0.961 . S
C297 C296 1.502 . S
C298 H284 0.960 . S
C298 H285 0.961 . S
C298 H286 0.959 . S
C298 C296 1.561 . S
C299 C296 1.526 . S
C299 C300 1.396 . S
C299 C304 1.390 . S
C300 C294 1.465 1_554 S
C300 C299 1.396 . S
C300 C301 1.399 1_554 S
C301 H287 0.929 . S
C301 C300 1.399 1_556 S
C301 C302 1.385 . S
C302 H288 0.931 . S
C302 C301 1.385 . S
C302 C303 1.389 1_556 S
C303 C302 1.389 1_554 S
C303 C304 1.387 . S
C304 H289 0.930 . S
C304 C299 1.390 . S
C304 C303 1.387 . S
H305 C317 0.930 . S
H306 C319 0.930 . S
H307 C320 0.930 . S
H308 C324 0.959 . S
H309 C324 0.959 . S
H310 C324 0.961 . S
H311 C325 0.960 . S
H312 C325 0.961 . S
H313 C325 0.959 . S
H314 C328 0.929 . S
H315 C329 0.931 . S
H316 C331 0.930 . S
C317 H305 0.930 . S
C317 C318 1.399 1_554 S
C317 C322 1.399 . S
C318 C317 1.399 1_556 S
C318 C319 1.376 . S
C319 H306 0.930 . S
C319 C318 1.376 . S
C319 C320 1.388 1_556 S
C320 H307 0.930 . S
C320 C319 1.388 1_554 S
C320 C321 1.390 . S
C321 C320 1.390 . S
C321 C322 1.394 . S
C321 C327 1.465 . S
C322 C317 1.399 . S
C322 C321 1.394 . S
C322 C323 1.516 . S
C323 C322 1.516 . S
C323 C324 1.502 1_554 S
C323 C325 1.561 . S
C323 C326 1.526 . S
C324 H308 0.959 . S
C324 H309 0.959 . S
C324 H310 0.961 . S
C324 C323 1.502 1_556 S
C325 H311 0.960 . S
C325 H312 0.961 . S
C325 H313 0.959 . S
C325 C323 1.561 . S
C326 C323 1.526 . S
C326 C327 1.396 . S
C326 C331 1.390 . S
C327 C321 1.465 . S
C327 C326 1.396 . S
C327 C328 1.399 . S
C328 H314 0.929 . S
C328 C327 1.399 . S
C328 C329 1.385 . S
C329 H315 0.931 . S
C329 C328 1.385 . S
C329 C330 1.389 . S
C330 C329 1.389 . S
C330 C331 1.387 . S
C331 H316 0.930 . S
C331 C326 1.390 . S
C331 C330 1.387 . S
H332 C344 0.930 . S
H333 C346 0.930 . S
H334 C347 0.930 . S
H335 C351 0.959 . S
H336 C351 0.959 1_565 S
H337 C351 0.961 . S
H338 C352 0.960 . S
H339 C352 0.961 1_565 S
H340 C352 0.959 . S
H341 C355 0.929 . S
H342 C356 0.931 . S
H343 C358 0.930 . S
C344 H332 0.930 . S
C344 C345 1.399 . S
C344 C349 1.399 . S
C345 C344 1.399 . S
C345 C346 1.376 . S
C346 H333 0.930 . S
C346 C345 1.376 . S
C346 C347 1.388 . S
C347 H334 0.930 . S
C347 C346 1.388 . S
C347 C348 1.390 . S
C348 C347 1.390 . S
C348 C349 1.394 . S
C348 C354 1.465 1_545 S
C349 C344 1.399 . S
C349 C348 1.394 . S
C349 C350 1.516 . S
C350 C349 1.516 . S
C350 C351 1.502 . S
C350 C352 1.561 . S
C350 C353 1.526 1_545 S
C351 H335 0.959 . S
C351 H336 0.959 1_545 S
C351 H337 0.961 . S
C351 C350 1.502 . S
C352 H338 0.960 . S
C352 H339 0.961 1_545 S
C352 H340 0.959 . S
C352 C350 1.561 . S
C353 C350 1.526 1_565 S
C353 C354 1.396 . S
C353 C358 1.390 . S
C354 C348 1.465 1_565 S
C354 C353 1.396 . S
C354 C355 1.399 . S
C355 H341 0.929 . S
C355 C354 1.399 . S
C355 C356 1.385 . S
C356 H342 0.931 . S
C356 C355 1.385 . S
C356 C357 1.389 . S
C357 C356 1.389 . S
C357 C358 1.387 . S
C358 H343 0.930 . S
C358 C353 1.390 . S
C358 C357 1.387 . S
H359 C371 0.930 . S
H360 C373 0.930 . S
H361 C374 0.930 . S
H362 C378 0.959 . S
H363 C378 0.959 . S
H364 C378 0.961 1_655 S
H365 C379 0.960 1_655 S
H366 C379 0.961 . S
H367 C379 0.959 . S
H368 C382 0.929 . S
H369 C383 0.931 . S
H370 C385 0.930 . S
C371 H359 0.930 . S
C371 C372 1.399 . S
C371 C376 1.399 . S
C372 C371 1.399 . S
C372 C373 1.376 . S
C373 H360 0.930 . S
C373 C372 1.376 . S
C373 C374 1.388 . S
C374 H361 0.930 . S
C374 C373 1.388 . S
C374 C375 1.390 . S
C375 C374 1.390 . S
C375 C376 1.394 . S
C375 C381 1.465 1_655 S
C376 C371 1.399 . S
C376 C375 1.394 . S
C376 C377 1.516 1_655 S
C377 C376 1.516 1_455 S
C377 C378 1.502 . S
C377 C379 1.561 . S
C377 C380 1.526 . S
C378 H362 0.959 . S
C378 H363 0.959 . S
C378 H364 0.961 1_455 S
C378 C377 1.502 . S
C379 H365 0.960 1_455 S
C379 H366 0.961 . S
C379 H367 0.959 . S
C379 C377 1.561 . S
C380 C377 1.526 . S
C380 C381 1.396 . S
C380 C385 1.390 . S
C381 C375 1.465 1_455 S
C381 C380 1.396 . S
C381 C382 1.399 . S
C382 H368 0.929 . S
C382 C381 1.399 . S
C382 C383 1.385 . S
C383 H369 0.931 . S
C383 C382 1.385 . S
C383 C384 1.389 . S
C384 C383 1.389 . S
C384 C385 1.387 . S
C385 H370 0.930 . S
C385 C380 1.390 . S
C385 C384 1.387 . S
H386 C398 0.930 . S
H387 C400 0.930 . S
H388 C401 0.930 . S
H389 C405 0.959 . S
H390 C405 0.959 1_565 S
H391 C405 0.961 . S
H392 C406 0.978 . S
H393 C406 0.946 1_565 S
H394 C406 0.955 1_565 S
H395 C409 0.929 . S
H396 C410 0.931 . S
H397 C412 0.930 . S
C398 H386 0.930 . S
C398 C399 1.399 . S
C398 C403 1.399 . S
C399 C398 1.399 . S
C399 C400 1.376 . S
C400 H387 0.930 . S
C400 C399 1.376 . S
C400 C401 1.388 . S
C401 H388 0.930 . S
C401 C400 1.388 . S
C401 C402 1.390 . S
C402 C401 1.390 . S
C402 C403 1.394 . S
C402 C408 1.465 1_545 S
C403 C398 1.399 . S
C403 C402 1.394 . S
C403 C404 1.516 . S
C404 C403 1.516 . S
C404 C405 1.502 . S
C404 C406 1.562 . S
C404 C407 1.526 1_545 S
C405 H389 0.959 . S
C405 H390 0.959 1_545 S
C405 H391 0.961 . S
C405 C404 1.502 . S
C406 H392 0.978 . S
C406 H393 0.946 1_545 S
C406 H394 0.955 1_545 S
C406 C404 1.562 . S
C407 C404 1.526 1_565 S
C407 C408 1.396 . S
C407 C412 1.390 . S
C408 C402 1.465 1_565 S
C408 C407 1.396 . S
C408 C409 1.399 . S
C409 H395 0.929 . S
C409 C408 1.399 . S
C409 C410 1.385 . S
C410 H396 0.931 . S
C410 C409 1.385 . S
C410 C411 1.389 . S
C411 C410 1.389 . S
C411 C412 1.387 . S
C412 H397 0.930 . S
C412 C407 1.390 . S
C412 C411 1.387 . S
H413 C425 0.930 . S
H414 C427 0.930 . S
H415 C428 0.930 . S
H416 C432 0.959 . S
H417 C432 0.959 1_655 S
H418 C432 0.961 . S
H419 C433 0.919 1_455 S
H420 C433 0.997 . S
H421 C433 0.970 . S
H422 C436 0.929 . S
H423 C437 0.931 . S
H424 C439 0.930 . S
C425 H413 0.930 . S
C425 C426 1.399 . S
C425 C430 1.399 . S
C426 C425 1.399 . S
C426 C427 1.376 . S
C427 H414 0.930 . S
C427 C426 1.376 . S
C427 C428 1.388 . S
C428 H415 0.930 . S
C428 C427 1.388 . S
C428 C429 1.390 . S
C429 C428 1.390 . S
C429 C430 1.394 . S
C429 C435 1.465 1_455 S
C430 C425 1.399 . S
C430 C429 1.394 . S
C430 C431 1.516 . S
C431 C430 1.516 . S
C431 C432 1.502 . S
C431 C433 1.558 1_455 S
C431 C434 1.526 1_455 S
C432 H416 0.959 . S
C432 H417 0.959 1_455 S
C432 H418 0.961 . S
C432 C431 1.502 . S
C433 H419 0.919 1_655 S
C433 H420 0.997 . S
C433 H421 0.970 . S
C433 C431 1.558 1_655 S
C434 C431 1.526 1_655 S
C434 C435 1.396 . S
C434 C439 1.390 . S
C435 C429 1.465 1_655 S
C435 C434 1.396 . S
C435 C436 1.399 . S
C436 H422 0.929 . S
C436 C435 1.399 . S
C436 C437 1.385 . S
C437 H423 0.931 . S
C437 C436 1.385 . S
C437 C438 1.389 . S
C438 C437 1.389 . S
C438 C439 1.387 . S
C439 H424 0.930 . S
C439 C434 1.390 . S
C439 C438 1.387 . S
H440 C452 0.930 . S
H441 C454 0.930 . S
H442 C455 0.930 . S
H443 C459 0.959 . S
H444 C459 0.959 . S
H445 C459 0.961 . S
H446 C460 0.960 . S
H447 C460 0.961 . S
H448 C460 0.959 . S
H449 C463 0.929 . S
H450 C464 0.931 . S
H451 C466 0.930 . S
C452 H440 0.930 . S
C452 C453 1.399 1_556 S
C452 C457 1.399 . S
C453 C452 1.399 1_554 S
C453 C454 1.376 . S
C454 H441 0.930 . S
C454 C453 1.376 . S
C454 C455 1.388 . S
C455 H442 0.930 . S
C455 C454 1.388 . S
C455 C456 1.390 . S
C456 C455 1.390 . S
C456 C457 1.394 1_554 S
C456 C462 1.465 . S
C457 C452 1.399 . S
C457 C456 1.394 1_556 S
C457 C458 1.516 . S
C458 C457 1.516 . S
C458 C459 1.502 . S
C458 C460 1.561 . S
C458 C461 1.526 . S
C459 H443 0.959 . S
C459 H444 0.959 . S
C459 H445 0.961 . S
C459 C458 1.502 . S
C460 H446 0.960 . S
C460 H447 0.961 . S
C460 H448 0.959 . S
C460 C458 1.561 . S
C461 C458 1.526 . S
C461 C462 1.396 1_556 S
C461 C466 1.390 . S
C462 C456 1.465 . S
C462 C461 1.396 1_554 S
C462 C463 1.399 . S
C463 H449 0.929 . S
C463 C462 1.399 . S
C463 C464 1.385 . S
C464 H450 0.931 . S
C464 C463 1.385 . S
C464 C465 1.389 . S
C465 C464 1.389 . S
C465 C466 1.387 1_554 S
C466 H451 0.930 . S
C466 C461 1.390 . S
C466 C465 1.387 1_556 S
H467 C479 0.930 . S
H468 C481 0.930 . S
H469 C482 0.930 . S
H470 C486 0.959 1_556 S
H471 C486 0.959 . S
H472 C486 0.961 . S
H473 C487 0.960 . S
H474 C487 0.961 . S
H475 C487 0.959 . S
H476 C490 0.929 . S
H477 C491 0.931 1_556 S
H478 C493 0.930 . S
C479 H467 0.930 . S
C479 C480 1.399 . S
C479 C484 1.399 . S
C480 C479 1.399 . S
C480 C481 1.376 1_554 S
C481 H468 0.930 . S
C481 C480 1.376 1_556 S
C481 C482 1.388 . S
C482 H469 0.930 . S
C482 C481 1.388 . S
C482 C483 1.390 1_556 S
C483 C482 1.390 1_554 S
C483 C484 1.394 . S
C483 C489 1.465 . S
C484 C479 1.399 . S
C484 C483 1.394 . S
C484 C485 1.516 . S
C485 C484 1.516 . S
C485 C486 1.502 . S
C485 C487 1.561 . S
C485 C488 1.526 . S
C486 H470 0.959 1_554 S
C486 H471 0.959 . S
C486 H472 0.961 . S
C486 C485 1.502 . S
C487 H473 0.960 . S
C487 H474 0.961 . S
C487 H475 0.959 . S
C487 C485 1.561 . S
C488 C485 1.526 . S
C488 C489 1.396 . S
C488 C493 1.390 . S
C489 C483 1.465 . S
C489 C488 1.396 . S
C489 C490 1.399 1_554 S
C490 H476 0.929 . S
C490 C489 1.399 1_556 S
C490 C491 1.385 1_556 S
C491 H477 0.931 1_554 S
C491 C490 1.385 1_554 S
C491 C492 1.389 . S
C492 C491 1.389 . S
C492 C493 1.387 . S
C493 H478 0.930 . S
C493 C488 1.390 . S
C493 C492 1.387 . S
H494 C506 0.930 . S
H495 C508 0.930 . S
H496 C509 0.930 . S
H497 C513 0.959 . S
H498 C513 0.959 . S
H499 C513 0.961 . S
H500 C514 0.960 . S
H501 C514 0.961 . S
H502 C514 0.959 . S
H503 C517 0.929 . S
H504 C518 0.931 . S
H505 C520 0.930 . S
C506 H494 0.930 . S
C506 C507 1.399 . S
C506 C511 1.399 . S
C507 C506 1.399 . S
C507 C508 1.376 1_554 S
C508 H495 0.930 . S
C508 C507 1.376 1_556 S
C508 C509 1.388 . S
C509 H496 0.930 . S
C509 C508 1.388 . S
C509 C510 1.390 . S
C510 C509 1.390 . S
C510 C511 1.394 1_556 S
C510 C516 1.465 . S
C511 C506 1.399 . S
C511 C510 1.394 1_554 S
C511 C512 1.516 . S
C512 C511 1.516 . S
C512 C513 1.502 . S
C512 C514 1.561 . S
C512 C515 1.526 . S
C513 H497 0.959 . S
C513 H498 0.959 . S
C513 H499 0.961 . S
C513 C512 1.502 . S
C514 H500 0.960 . S
C514 H501 0.961 . S
C514 H502 0.959 . S
C514 C512 1.561 . S
C515 C512 1.526 . S
C515 C516 1.396 1_554 S
C515 C520 1.390 . S
C516 C510 1.465 . S
C516 C515 1.396 1_556 S
C516 C517 1.399 . S
C517 H503 0.929 . S
C517 C516 1.399 . S
C517 C518 1.385 . S
C518 H504 0.931 . S
C518 C517 1.385 . S
C518 C519 1.389 . S
C519 C518 1.389 . S
C519 C520 1.387 1_556 S
C520 H505 0.930 . S
C520 C515 1.390 . S
C520 C519 1.387 1_554 S
H521 C533 0.930 . S
H522 C535 0.930 . S
H523 C536 0.930 . S
H524 C540 0.959 . S
H525 C540 0.959 . S
H526 C540 0.961 . S
H527 C541 0.960 . S
H528 C541 0.961 . S
H529 C541 0.959 . S
H530 C544 0.929 . S
H531 C545 0.931 . S
H532 C547 0.930 . S
C533 H521 0.930 . S
C533 C534 1.399 1_556 S
C533 C538 1.399 . S
C534 C533 1.399 1_554 S
C534 C535 1.376 . S
C535 H522 0.930 . S
C535 C534 1.376 . S
C535 C536 1.388 . S
C536 H523 0.930 . S
C536 C535 1.388 . S
C536 C537 1.390 . S
C537 C536 1.390 . S
C537 C538 1.394 1_554 S
C537 C543 1.465 . S
C538 C533 1.399 . S
C538 C537 1.394 1_556 S
C538 C539 1.516 . S
C539 C538 1.516 . S
C539 C540 1.502 . S
C539 C541 1.561 . S
C539 C542 1.526 . S
C540 H524 0.959 . S
C540 H525 0.959 . S
C540 H526 0.961 . S
C540 C539 1.502 . S
C541 H527 0.960 . S
C541 H528 0.961 . S
C541 H529 0.959 . S
C541 C539 1.561 . S
C542 C539 1.526 . S
C542 C543 1.396 1_556 S
C542 C547 1.390 . S
C543 C537 1.465 . S
C543 C542 1.396 1_554 S
C543 C544 1.399 . S
C544 H530 0.929 . S
C544 C543 1.399 . S
C544 C545 1.385 . S
C545 H531 0.931 . S
C545 C544 1.385 . S
C545 C546 1.389 . S
C546 C545 1.389 . S
C546 C547 1.387 1_554 S
C547 H532 0.930 . S
C547 C542 1.390 . S
C547 C546 1.387 1_556 S
H548 C560 0.930 . S
H549 C562 0.930 . S
H550 C563 0.930 . S
H551 C567 0.959 . S
H552 C567 0.959 . S
H553 C567 0.961 . S
H554 C568 0.960 . S
H555 C568 0.961 . S
H556 C568 0.959 . S
H557 C571 0.929 . S
H558 C572 0.931 . S
H559 C574 0.930 . S
C560 H548 0.930 . S
C560 C561 1.399 . S
C560 C565 1.399 . S
C561 C560 1.399 . S
C561 C562 1.376 . S
C562 H549 0.930 . S
C562 C561 1.376 . S
C562 C563 1.388 . S
C563 H550 0.930 . S
C563 C562 1.388 . S
C563 C564 1.390 . S
C564 C563 1.390 . S
C564 C565 1.394 . S
C564 C570 1.465 . S
C565 C560 1.399 . S
C565 C564 1.394 . S
C565 C566 1.516 . S
C566 C565 1.516 . S
C566 C567 1.502 . S
C566 C568 1.561 . S
C566 C569 1.526 . S
C567 H551 0.959 . S
C567 H552 0.959 . S
C567 H553 0.961 . S
C567 C566 1.502 . S
C568 H554 0.960 . S
C568 H555 0.961 . S
C568 H556 0.959 . S
C568 C566 1.561 . S
C569 C566 1.526 . S
C569 C570 1.396 . S
C569 C574 1.390 . S
C570 C564 1.465 . S
C570 C569 1.396 . S
C570 C571 1.399 . S
C571 H557 0.929 . S
C571 C570 1.399 . S
C571 C572 1.385 . S
C572 H558 0.931 . S
C572 C571 1.385 . S
C572 C573 1.389 . S
C573 C572 1.389 . S
C573 C574 1.387 . S
C574 H559 0.930 . S
C574 C569 1.390 . S
C574 C573 1.387 . S
H575 C587 0.930 . S
H576 C589 0.930 . S
H577 C590 0.930 . S
H578 C594 0.959 . S
H579 C594 0.959 . S
H580 C594 0.961 . S
H581 C595 0.960 . S
H582 C595 0.961 . S
H583 C595 0.959 . S
H584 C598 0.929 . S
H585 C599 0.931 . S
H586 C601 0.930 . S
C587 H575 0.930 . S
C587 C588 1.399 . S
C587 C592 1.399 . S
C588 C587 1.399 . S
C588 C589 1.376 . S
C589 H576 0.930 . S
C589 C588 1.376 . S
C589 C590 1.388 . S
C590 H577 0.930 . S
C590 C589 1.388 . S
C590 C591 1.390 . S
C591 C590 1.390 . S
C591 C592 1.394 . S
C591 C597 1.465 . S
C592 C587 1.399 . S
C592 C591 1.394 . S
C592 C593 1.516 . S
C593 C592 1.516 . S
C593 C594 1.502 . S
C593 C595 1.561 . S
C593 C596 1.526 . S
C594 H578 0.959 . S
C594 H579 0.959 . S
C594 H580 0.961 . S
C594 C593 1.502 . S
C595 H581 0.960 . S
C595 H582 0.961 . S
C595 H583 0.959 . S
C595 C593 1.561 . S
C596 C593 1.526 . S
C596 C597 1.396 . S
C596 C601 1.390 . S
C597 C591 1.465 . S
C597 C596 1.396 . S
C597 C598 1.399 . S
C598 H584 0.929 . S
C598 C597 1.399 . S
C598 C599 1.385 . S
C599 H585 0.931 . S
C599 C598 1.385 . S
C599 C600 1.389 . S
C600 C599 1.389 . S
C600 C601 1.387 . S
C601 H586 0.930 . S
C601 C596 1.390 . S
C601 C600 1.387 . S
H602 C614 0.930 . S
H603 C616 0.930 . S
H604 C617 0.930 . S
H605 C621 0.959 . S
H606 C621 0.959 . S
H607 C621 0.961 . S
H608 C622 0.960 . S
H609 C622 0.961 . S
H610 C622 0.959 . S
H611 C625 0.929 . S
H612 C626 0.931 . S
H613 C628 0.930 . S
C614 H602 0.930 . S
C614 C615 1.399 . S
C614 C619 1.399 . S
C615 C614 1.399 . S
C615 C616 1.376 . S
C616 H603 0.930 . S
C616 C615 1.376 . S
C616 C617 1.388 . S
C617 H604 0.930 . S
C617 C616 1.388 . S
C617 C618 1.390 . S
C618 C617 1.390 . S
C618 C619 1.394 . S
C618 C624 1.465 . S
C619 C614 1.399 . S
C619 C618 1.394 . S
C619 C620 1.516 . S
C620 C619 1.516 . S
C620 C621 1.502 . S
C620 C622 1.561 . S
C620 C623 1.526 . S
C621 H605 0.959 . S
C621 H606 0.959 . S
C621 H607 0.961 . S
C621 C620 1.502 . S
C622 H608 0.960 . S
C622 H609 0.961 . S
C622 H610 0.959 . S
C622 C620 1.561 . S
C623 C620 1.526 . S
C623 C624 1.396 . S
C623 C628 1.390 . S
C624 C618 1.465 . S
C624 C623 1.396 . S
C624 C625 1.399 . S
C625 H611 0.929 . S
C625 C624 1.399 . S
C625 C626 1.385 . S
C626 H612 0.931 . S
C626 C625 1.385 . S
C626 C627 1.389 . S
C627 C626 1.389 . S
C627 C628 1.387 . S
C628 H613 0.930 . S
C628 C623 1.390 . S
C628 C627 1.387 . S
H629 C641 0.930 . S
H630 C643 0.930 . S
H631 C644 0.930 . S
H632 C648 0.959 . S
H633 C648 0.959 . S
H634 C648 0.961 . S
H635 C649 0.960 . S
H636 C649 0.961 . S
H637 C649 0.959 . S
H638 C652 0.929 . S
H639 C653 0.931 . S
H640 C655 0.930 . S
C641 H629 0.930 . S
C641 C642 1.399 . S
C641 C646 1.399 . S
C642 C641 1.399 . S
C642 C643 1.376 . S
C643 H630 0.930 . S
C643 C642 1.376 . S
C643 C644 1.388 . S
C644 H631 0.930 . S
C644 C643 1.388 . S
C644 C645 1.390 . S
C645 C644 1.390 . S
C645 C646 1.394 . S
C645 C651 1.465 . S
C646 C641 1.399 . S
C646 C645 1.394 . S
C646 C647 1.516 . S
C647 C646 1.516 . S
C647 C648 1.502 . S
C647 C649 1.561 . S
C647 C650 1.526 . S
C648 H632 0.959 . S
C648 H633 0.959 . S
C648 H634 0.961 . S
C648 C647 1.502 . S
C649 H635 0.960 . S
C649 H636 0.961 . S
C649 H637 0.959 . S
C649 C647 1.561 . S
C650 C647 1.526 . S
C650 C651 1.396 . S
C650 C655 1.390 . S
C651 C645 1.465 . S
C651 C650 1.396 . S
C651 C652 1.399 . S
C652 H638 0.929 . S
C652 C651 1.399 . S
C652 C653 1.385 . S
C653 H639 0.931 . S
C653 C652 1.385 . S
C653 C654 1.389 . S
C654 C653 1.389 . S
C654 C655 1.387 . S
C655 H640 0.930 . S
C655 C650 1.390 . S
C655 C654 1.387 . S
H656 C668 0.930 . S
H657 C670 0.930 . S
H658 C671 0.930 . S
H659 C675 0.959 . S
H660 C675 0.959 . S
H661 C675 0.961 . S
H662 C676 0.960 . S
H663 C676 0.961 . S
H664 C676 0.959 . S
H665 C679 0.929 . S
H666 C680 0.931 . S
H667 C682 0.930 . S
C668 H656 0.930 . S
C668 C669 1.399 . S
C668 C673 1.399 . S
C669 C668 1.399 . S
C669 C670 1.376 . S
C670 H657 0.930 . S
C670 C669 1.376 . S
C670 C671 1.388 . S
C671 H658 0.930 . S
C671 C670 1.388 . S
C671 C672 1.390 . S
C672 C671 1.390 . S
C672 C673 1.394 . S
C672 C678 1.465 . S
C673 C668 1.399 . S
C673 C672 1.394 . S
C673 C674 1.516 . S
C674 C673 1.516 . S
C674 C675 1.502 . S
C674 C676 1.561 . S
C674 C677 1.526 . S
C675 H659 0.959 . S
C675 H660 0.959 . S
C675 H661 0.961 . S
C675 C674 1.502 . S
C676 H662 0.960 . S
C676 H663 0.961 . S
C676 H664 0.959 . S
C676 C674 1.561 . S
C677 C674 1.526 . S
C677 C678 1.396 . S
C677 C682 1.390 . S
C678 C672 1.465 . S
C678 C677 1.396 . S
C678 C679 1.399 . S
C679 H665 0.929 . S
C679 C678 1.399 . S
C679 C680 1.385 . S
C680 H666 0.931 . S
C680 C679 1.385 . S
C680 C681 1.389 . S
C681 C680 1.389 . S
C681 C682 1.387 . S
C682 H667 0.930 . S
C682 C677 1.390 . S
C682 C681 1.387 . S
H683 C695 0.930 . S
H684 C697 0.930 . S
H685 C698 0.930 . S
H686 C702 0.959 . S
H687 C702 0.959 . S
H688 C702 0.961 . S
H689 C703 0.960 . S
H690 C703 0.961 . S
H691 C703 0.959 . S
H692 C706 0.929 . S
H693 C707 0.931 . S
H694 C709 0.930 . S
C695 H683 0.930 . S
C695 C696 1.399 . S
C695 C700 1.399 . S
C696 C695 1.399 . S
C696 C697 1.376 . S
C697 H684 0.930 . S
C697 C696 1.376 . S
C697 C698 1.388 . S
C698 H685 0.930 . S
C698 C697 1.388 . S
C698 C699 1.390 . S
C699 C698 1.390 . S
C699 C700 1.394 . S
C699 C705 1.465 . S
C700 C695 1.399 . S
C700 C699 1.394 . S
C700 C701 1.516 . S
C701 C700 1.516 . S
C701 C702 1.502 . S
C701 C703 1.561 . S
C701 C704 1.526 . S
C702 H686 0.959 . S
C702 H687 0.959 . S
C702 H688 0.961 . S
C702 C701 1.502 . S
C703 H689 0.960 . S
C703 H690 0.961 . S
C703 H691 0.959 . S
C703 C701 1.561 . S
C704 C701 1.526 . S
C704 C705 1.396 . S
C704 C709 1.390 . S
C705 C699 1.465 . S
C705 C704 1.396 . S
C705 C706 1.399 . S
C706 H692 0.929 . S
C706 C705 1.399 . S
C706 C707 1.385 . S
C707 H693 0.931 . S
C707 C706 1.385 . S
C707 C708 1.389 . S
C708 C707 1.389 . S
C708 C709 1.387 . S
C709 H694 0.930 . S
C709 C704 1.390 . S
C709 C708 1.387 . S
H710 C722 0.930 . S
H711 C724 0.930 . S
H712 C725 0.930 . S
H713 C729 0.959 . S
H714 C729 0.959 . S
H715 C729 0.961 . S
H716 C730 0.960 . S
H717 C730 0.961 . S
H718 C730 0.959 . S
H719 C733 0.929 . S
H720 C734 0.931 . S
H721 C736 0.930 . S
C722 H710 0.930 . S
C722 C723 1.399 . S
C722 C727 1.399 . S
C723 C722 1.399 . S
C723 C724 1.376 . S
C724 H711 0.930 . S
C724 C723 1.376 . S
C724 C725 1.388 . S
C725 H712 0.930 . S
C725 C724 1.388 . S
C725 C726 1.390 . S
C726 C725 1.390 . S
C726 C727 1.394 . S
C726 C732 1.465 . S
C727 C722 1.399 . S
C727 C726 1.394 . S
C727 C728 1.516 . S
C728 C727 1.516 . S
C728 C729 1.502 . S
C728 C730 1.561 . S
C728 C731 1.526 . S
C729 H713 0.959 . S
C729 H714 0.959 . S
C729 H715 0.961 . S
C729 C728 1.502 . S
C730 H716 0.960 . S
C730 H717 0.961 . S
C730 H718 0.959 . S
C730 C728 1.561 . S
C731 C728 1.526 . S
C731 C732 1.396 . S
C731 C736 1.390 . S
C732 C726 1.465 . S
C732 C731 1.396 . S
C732 C733 1.399 . S
C733 H719 0.929 . S
C733 C732 1.399 . S
C733 C734 1.385 . S
C734 H720 0.931 . S
C734 C733 1.385 . S
C734 C735 1.389 . S
C735 C734 1.389 . S
C735 C736 1.387 . S
C736 H721 0.930 . S
C736 C731 1.390 . S
C736 C735 1.387 . S
H737 C749 0.930 . S
H738 C751 0.930 . S
H739 C752 0.930 . S
H740 C756 0.959 . S
H741 C756 0.959 . S
H742 C756 0.961 . S
H743 C757 0.960 . S
H744 C757 0.961 . S
H745 C757 0.959 . S
H746 C760 0.929 . S
H747 C761 0.931 . S
H748 C763 0.930 . S
C749 H737 0.930 . S
C749 C750 1.399 . S
C749 C754 1.399 . S
C750 C749 1.399 . S
C750 C751 1.376 . S
C751 H738 0.930 . S
C751 C750 1.376 . S
C751 C752 1.388 . S
C752 H739 0.930 . S
C752 C751 1.388 . S
C752 C753 1.390 . S
C753 C752 1.390 . S
C753 C754 1.394 . S
C753 C759 1.465 . S
C754 C749 1.399 . S
C754 C753 1.394 . S
C754 C755 1.516 . S
C755 C754 1.516 . S
C755 C756 1.502 . S
C755 C757 1.561 . S
C755 C758 1.526 . S
C756 H740 0.959 . S
C756 H741 0.959 . S
C756 H742 0.961 . S
C756 C755 1.502 . S
C757 H743 0.960 . S
C757 H744 0.961 . S
C757 H745 0.959 . S
C757 C755 1.561 . S
C758 C755 1.526 . S
C758 C759 1.396 . S
C758 C763 1.390 . S
C759 C753 1.465 . S
C759 C758 1.396 . S
C759 C760 1.399 . S
C760 H746 0.929 . S
C760 C759 1.399 . S
C760 C761 1.385 . S
C761 H747 0.931 . S
C761 C760 1.385 . S
C761 C762 1.389 . S
C762 C761 1.389 . S
C762 C763 1.387 . S
C763 H748 0.930 . S
C763 C758 1.390 . S
C763 C762 1.387 . S
H764 C776 0.930 . S
H765 C778 0.930 . S
H766 C779 0.930 . S
H767 C783 0.959 . S
H768 C783 0.959 . S
H769 C783 0.961 . S
H770 C784 0.960 . S
H771 C784 0.961 . S
H772 C784 0.959 . S
H773 C787 0.929 . S
H774 C788 0.931 . S
H775 C790 0.930 . S
C776 H764 0.930 . S
C776 C777 1.399 . S
C776 C781 1.399 . S
C777 C776 1.399 . S
C777 C778 1.376 . S
C778 H765 0.930 . S
C778 C777 1.376 . S
C778 C779 1.388 . S
C779 H766 0.930 . S
C779 C778 1.388 . S
C779 C780 1.390 . S
C780 C779 1.390 . S
C780 C781 1.394 . S
C780 C786 1.465 . S
C781 C776 1.399 . S
C781 C780 1.394 . S
C781 C782 1.516 . S
C782 C781 1.516 . S
C782 C783 1.502 . S
C782 C784 1.561 . S
C782 C785 1.526 . S
C783 H767 0.959 . S
C783 H768 0.959 . S
C783 H769 0.961 . S
C783 C782 1.502 . S
C784 H770 0.960 . S
C784 H771 0.961 . S
C784 H772 0.959 . S
C784 C782 1.561 . S
C785 C782 1.526 . S
C785 C786 1.396 . S
C785 C790 1.390 . S
C786 C780 1.465 . S
C786 C785 1.396 . S
C786 C787 1.399 . S
C787 H773 0.929 . S
C787 C786 1.399 . S
C787 C788 1.385 . S
C788 H774 0.931 . S
C788 C787 1.385 . S
C788 C789 1.389 . S
C789 C788 1.389 . S
C789 C790 1.387 . S
C790 H775 0.930 . S
C790 C785 1.390 . S
C790 C789 1.387 . S
H791 C803 0.930 . S
H792 C805 0.930 . S
H793 C806 0.930 . S
H794 C810 0.959 . S
H795 C810 0.959 . S
H796 C810 0.961 . S
H797 C811 0.960 . S
H798 C811 0.961 . S
H799 C811 0.959 . S
H800 C814 0.929 . S
H801 C815 0.931 . S
H802 C817 0.930 . S
C803 H791 0.930 . S
C803 C804 1.399 . S
C803 C808 1.399 . S
C804 C803 1.399 . S
C804 C805 1.376 . S
C805 H792 0.930 . S
C805 C804 1.376 . S
C805 C806 1.388 . S
C806 H793 0.930 . S
C806 C805 1.388 . S
C806 C807 1.390 . S
C807 C806 1.390 . S
C807 C808 1.394 . S
C807 C813 1.465 . S
C808 C803 1.399 . S
C808 C807 1.394 . S
C808 C809 1.516 . S
C809 C808 1.516 . S
C809 C810 1.502 . S
C809 C811 1.561 . S
C809 C812 1.526 . S
C810 H794 0.959 . S
C810 H795 0.959 . S
C810 H796 0.961 . S
C810 C809 1.502 . S
C811 H797 0.960 . S
C811 H798 0.961 . S
C811 H799 0.959 . S
C811 C809 1.561 . S
C812 C809 1.526 . S
C812 C813 1.396 . S
C812 C817 1.390 . S
C813 C807 1.465 . S
C813 C812 1.396 . S
C813 C814 1.399 . S
C814 H800 0.929 . S
C814 C813 1.399 . S
C814 C815 1.385 . S
C815 H801 0.931 . S
C815 C814 1.385 . S
C815 C816 1.389 . S
C816 C815 1.389 . S
C816 C817 1.387 . S
C817 H802 0.930 . S
C817 C812 1.390 . S
C817 C816 1.387 . S
H818 C830 0.930 . S
H819 C832 0.930 . S
H820 C833 0.930 . S
H821 C837 0.959 . S
H822 C837 0.959 . S
H823 C837 0.961 . S
H824 C838 0.960 . S
H825 C838 0.961 . S
H826 C838 0.959 . S
H827 C841 0.929 . S
H828 C842 0.931 . S
H829 C844 0.930 . S
C830 H818 0.930 . S
C830 C831 1.399 . S
C830 C835 1.399 . S
C831 C830 1.399 . S
C831 C832 1.376 . S
C832 H819 0.930 . S
C832 C831 1.376 . S
C832 C833 1.388 . S
C833 H820 0.930 . S
C833 C832 1.388 . S
C833 C834 1.390 . S
C834 C833 1.390 . S
C834 C835 1.394 . S
C834 C840 1.465 . S
C835 C830 1.399 . S
C835 C834 1.394 . S
C835 C836 1.516 . S
C836 C835 1.516 . S
C836 C837 1.502 . S
C836 C838 1.561 . S
C836 C839 1.526 . S
C837 H821 0.959 . S
C837 H822 0.959 . S
C837 H823 0.961 . S
C837 C836 1.502 . S
C838 H824 0.960 . S
C838 H825 0.961 . S
C838 H826 0.959 . S
C838 C836 1.561 . S
C839 C836 1.526 . S
C839 C840 1.396 . S
C839 C844 1.390 . S
C840 C834 1.465 . S
C840 C839 1.396 . S
C840 C841 1.399 . S
C841 H827 0.929 . S
C841 C840 1.399 . S
C841 C842 1.385 . S
C842 H828 0.931 . S
C842 C841 1.385 . S
C842 C843 1.389 . S
C843 C842 1.389 . S
C843 C844 1.387 . S
C844 H829 0.930 . S
C844 C839 1.390 . S
C844 C843 1.387 . S
H845 C857 0.930 . S
H846 C859 0.930 . S
H847 C860 0.930 . S
H848 C864 0.959 . S
H849 C864 0.959 . S
H850 C864 0.961 . S
H851 C865 0.960 . S
H852 C865 0.961 . S
H853 C865 0.959 . S
H854 C868 0.929 . S
H855 C869 0.931 . S
H856 C871 0.930 . S
C857 H845 0.930 . S
C857 C858 1.399 . S
C857 C862 1.399 . S
C858 C857 1.399 . S
C858 C859 1.376 . S
C859 H846 0.930 . S
C859 C858 1.376 . S
C859 C860 1.388 . S
C860 H847 0.930 . S
C860 C859 1.388 . S
C860 C861 1.390 . S
C861 C860 1.390 . S
C861 C862 1.394 . S
C861 C867 1.465 . S
C862 C857 1.399 . S
C862 C861 1.394 . S
C862 C863 1.516 . S
C863 C862 1.516 . S
C863 C864 1.502 . S
C863 C865 1.561 . S
C863 C866 1.526 . S
C864 H848 0.959 . S
C864 H849 0.959 . S
C864 H850 0.961 . S
C864 C863 1.502 . S
C865 H851 0.960 . S
C865 H852 0.961 . S
C865 H853 0.959 . S
C865 C863 1.561 . S
C866 C863 1.526 . S
C866 C867 1.396 . S
C866 C871 1.390 . S
C867 C861 1.465 . S
C867 C866 1.396 . S
C867 C868 1.399 . S
C868 H854 0.929 . S
C868 C867 1.399 . S
C868 C869 1.385 . S
C869 H855 0.931 . S
C869 C868 1.385 . S
C869 C870 1.389 . S
C870 C869 1.389 . S
C870 C871 1.387 . S
C871 H856 0.930 . S
C871 C866 1.390 . S
C871 C870 1.387 . S
H872 C884 0.930 . S
H873 C886 0.930 . S
H874 C887 0.930 . S
H875 C891 0.959 . S
H876 C891 0.959 . S
H877 C891 0.961 . S
H878 C892 0.960 . S
H879 C892 0.961 . S
H880 C892 0.959 . S
H881 C895 0.929 . S
H882 C896 0.931 . S
H883 C898 0.930 . S
C884 H872 0.930 . S
C884 C885 1.399 . S
C884 C889 1.399 . S
C885 C884 1.399 . S
C885 C886 1.376 . S
C886 H873 0.930 . S
C886 C885 1.376 . S
C886 C887 1.388 . S
C887 H874 0.930 . S
C887 C886 1.388 . S
C887 C888 1.390 . S
C888 C887 1.390 . S
C888 C889 1.394 . S
C888 C894 1.465 . S
C889 C884 1.399 . S
C889 C888 1.394 . S
C889 C890 1.516 . S
C890 C889 1.516 . S
C890 C891 1.502 . S
C890 C892 1.561 . S
C890 C893 1.526 . S
C891 H875 0.959 . S
C891 H876 0.959 . S
C891 H877 0.961 . S
C891 C890 1.502 . S
C892 H878 0.960 . S
C892 H879 0.961 . S
C892 H880 0.959 . S
C892 C890 1.561 . S
C893 C890 1.526 . S
C893 C894 1.396 . S
C893 C898 1.390 . S
C894 C888 1.465 . S
C894 C893 1.396 . S
C894 C895 1.399 . S
C895 H881 0.929 . S
C895 C894 1.399 . S
C895 C896 1.385 . S
C896 H882 0.931 . S
C896 C895 1.385 . S
C896 C897 1.389 . S
C897 C896 1.389 . S
C897 C898 1.387 . S
C898 H883 0.930 . S
C898 C893 1.390 . S
C898 C897 1.387 . S
H899 C911 0.930 . S
H900 C913 0.930 . S
H901 C914 0.930 . S
H902 C918 0.959 . S
H903 C918 0.959 . S
H904 C918 0.961 . S
H905 C919 0.960 . S
H906 C919 0.961 . S
H907 C919 0.959 . S
H908 C922 0.929 . S
H909 C923 0.931 . S
H910 C925 0.930 . S
C911 H899 0.930 . S
C911 C912 1.399 . S
C911 C916 1.399 . S
C912 C911 1.399 . S
C912 C913 1.376 . S
C913 H900 0.930 . S
C913 C912 1.376 . S
C913 C914 1.388 . S
C914 H901 0.930 . S
C914 C913 1.388 . S
C914 C915 1.390 . S
C915 C914 1.390 . S
C915 C916 1.394 . S
C915 C921 1.465 . S
C916 C911 1.399 . S
C916 C915 1.394 . S
C916 C917 1.516 . S
C917 C916 1.516 . S
C917 C918 1.502 . S
C917 C919 1.561 . S
C917 C920 1.526 . S
C918 H902 0.959 . S
C918 H903 0.959 . S
C918 H904 0.961 . S
C918 C917 1.502 . S
C919 H905 0.960 . S
C919 H906 0.961 . S
C919 H907 0.959 . S
C919 C917 1.561 . S
C920 C917 1.526 . S
C920 C921 1.396 . S
C920 C925 1.390 . S
C921 C915 1.465 . S
C921 C920 1.396 . S
C921 C922 1.399 . S
C922 H908 0.929 . S
C922 C921 1.399 . S
C922 C923 1.385 . S
C923 H909 0.931 . S
C923 C922 1.385 . S
C923 C924 1.389 . S
C924 C923 1.389 . S
C924 C925 1.387 . S
C925 H910 0.930 . S
C925 C920 1.390 . S
C925 C924 1.387 . S
H926 C938 0.930 . S
H927 C940 0.930 . S
H928 C941 0.930 . S
H929 C945 0.959 . S
H930 C945 0.959 . S
H931 C945 0.961 . S
H932 C946 0.960 . S
H933 C946 0.961 . S
H934 C946 0.959 . S
H935 C949 0.929 . S
H936 C950 0.931 . S
H937 C952 0.930 . S
C938 H926 0.930 . S
C938 C939 1.399 . S
C938 C943 1.399 . S
C939 C938 1.399 . S
C939 C940 1.376 . S
C940 H927 0.930 . S
C940 C939 1.376 . S
C940 C941 1.388 . S
C941 H928 0.930 . S
C941 C940 1.388 . S
C941 C942 1.390 . S
C942 C941 1.390 . S
C942 C943 1.394 . S
C942 C948 1.465 . S
C943 C938 1.399 . S
C943 C942 1.394 . S
C943 C944 1.516 . S
C944 C943 1.516 . S
C944 C945 1.502 . S
C944 C946 1.561 . S
C944 C947 1.526 . S
C945 H929 0.959 . S
C945 H930 0.959 . S
C945 H931 0.961 . S
C945 C944 1.502 . S
C946 H932 0.960 . S
C946 H933 0.961 . S
C946 H934 0.959 . S
C946 C944 1.561 . S
C947 C944 1.526 . S
C947 C948 1.396 . S
C947 C952 1.390 . S
C948 C942 1.465 . S
C948 C947 1.396 . S
C948 C949 1.399 . S
C949 H935 0.929 . S
C949 C948 1.399 . S
C949 C950 1.385 . S
C950 H936 0.931 . S
C950 C949 1.385 . S
C950 C951 1.389 . S
C951 C950 1.389 . S
C951 C952 1.387 . S
C952 H937 0.930 . S
C952 C947 1.390 . S
C952 C951 1.387 . S
H953 C965 0.930 . S
H954 C967 0.930 . S
H955 C968 0.930 . S
H956 C972 0.959 . S
H957 C972 0.959 . S
H958 C972 0.961 . S
H959 C973 0.960 . S
H960 C973 0.961 . S
H961 C973 0.959 . S
H962 C976 0.929 . S
H963 C977 0.931 . S
H964 C979 0.930 . S
C965 H953 0.930 . S
C965 C966 1.399 . S
C965 C970 1.399 . S
C966 C965 1.399 . S
C966 C967 1.376 . S
C967 H954 0.930 . S
C967 C966 1.376 . S
C967 C968 1.388 . S
C968 H955 0.930 . S
C968 C967 1.388 . S
C968 C969 1.390 . S
C969 C968 1.390 . S
C969 C970 1.394 . S
C969 C975 1.465 . S
C970 C965 1.399 . S
C970 C969 1.394 . S
C970 C971 1.516 . S
C971 C970 1.516 . S
C971 C972 1.502 . S
C971 C973 1.561 . S
C971 C974 1.526 . S
C972 H956 0.959 . S
C972 H957 0.959 . S
C972 H958 0.961 . S
C972 C971 1.502 . S
C973 H959 0.960 . S
C973 H960 0.961 . S
C973 H961 0.959 . S
C973 C971 1.561 . S
C974 C971 1.526 . S
C974 C975 1.396 . S
C974 C979 1.390 . S
C975 C969 1.465 . S
C975 C974 1.396 . S
C975 C976 1.399 . S
C976 H962 0.929 . S
C976 C975 1.399 . S
C976 C977 1.385 . S
C977 H963 0.931 . S
C977 C976 1.385 . S
C977 C978 1.389 . S
C978 C977 1.389 . S
C978 C979 1.387 . S
C979 H964 0.930 . S
C979 C974 1.390 . S
C979 C978 1.387 . S
H980 C992 0.930 . S
H981 C994 0.930 . S
H982 C995 0.930 . S
H983 C999 0.959 . S
H984 C999 0.959 . S
H985 C999 0.961 . S
H986 C1000 0.960 . S
H987 C1000 0.961 . S
H988 C1000 0.959 . S
H989 C1003 0.929 . S
H990 C1004 0.931 . S
H991 C1006 0.930 . S
C992 H980 0.930 . S
C992 C993 1.399 . S
C992 C997 1.399 . S
C993 C992 1.399 . S
C993 C994 1.376 . S
C994 H981 0.930 . S
C994 C993 1.376 . S
C994 C995 1.388 . S
C995 H982 0.930 . S
C995 C994 1.388 . S
C995 C996 1.390 . S
C996 C995 1.390 . S
C996 C997 1.394 . S
C996 C1002 1.465 . S
C997 C992 1.399 . S
C997 C996 1.394 . S
C997 C998 1.516 . S
C998 C997 1.516 . S
C998 C999 1.502 . S
C998 C1000 1.561 . S
C998 C1001 1.526 . S
C999 H983 0.959 . S
C999 H984 0.959 . S
C999 H985 0.961 . S
C999 C998 1.502 . S
C1000 H986 0.960 . S
C1000 H987 0.961 . S
C1000 H988 0.959 . S
C1000 C998 1.561 . S
C1001 C998 1.526 . S
C1001 C1002 1.396 . S
C1001 C1006 1.390 . S
C1002 C996 1.465 . S
C1002 C1001 1.396 . S
C1002 C1003 1.399 . S
C1003 H989 0.929 . S
C1003 C1002 1.399 . S
C1003 C1004 1.385 . S
C1004 H990 0.931 . S
C1004 C1003 1.385 . S
C1004 C1005 1.389 . S
C1005 C1004 1.389 . S
C1005 C1006 1.387 . S
C1006 H991 0.930 . S
C1006 C1001 1.390 . S
C1006 C1005 1.387 . S
H1007 C1019 0.930 . S
H1008 C1021 0.930 . S
H1009 C1022 0.930 . S
H1010 C1026 0.959 . S
H1011 C1026 0.959 . S
H1012 C1026 0.961 . S
H1013 C1027 0.960 . S
H1014 C1027 0.961 . S
H1015 C1027 0.959 . S
H1016 C1030 0.929 . S
H1017 C1031 0.931 . S
H1018 C1033 0.930 . S
C1019 H1007 0.930 . S
C1019 C1020 1.399 . S
C1019 C1024 1.399 . S
C1020 C1019 1.399 . S
C1020 C1021 1.376 . S
C1021 H1008 0.930 . S
C1021 C1020 1.376 . S
C1021 C1022 1.388 . S
C1022 H1009 0.930 . S
C1022 C1021 1.388 . S
C1022 C1023 1.390 . S
C1023 C1022 1.390 . S
C1023 C1024 1.394 . S
C1023 C1029 1.465 . S
C1024 C1019 1.399 . S
C1024 C1023 1.394 . S
C1024 C1025 1.516 . S
C1025 C1024 1.516 . S
C1025 C1026 1.502 . S
C1025 C1027 1.561 . S
C1025 C1028 1.526 . S
C1026 H1010 0.959 . S
C1026 H1011 0.959 . S
C1026 H1012 0.961 . S
C1026 C1025 1.502 . S
C1027 H1013 0.960 . S
C1027 H1014 0.961 . S
C1027 H1015 0.959 . S
C1027 C1025 1.561 . S
C1028 C1025 1.526 . S
C1028 C1029 1.396 . S
C1028 C1033 1.390 . S
C1029 C1023 1.465 . S
C1029 C1028 1.396 . S
C1029 C1030 1.399 . S
C1030 H1016 0.929 . S
C1030 C1029 1.399 . S
C1030 C1031 1.385 . S
C1031 H1017 0.931 . S
C1031 C1030 1.385 . S
C1031 C1032 1.389 . S
C1032 C1031 1.389 . S
C1032 C1033 1.387 . S
C1033 H1018 0.930 . S
C1033 C1028 1.390 . S
C1033 C1032 1.387 . S
H1034 C1046 0.930 . S
H1035 C1048 0.930 . S
H1036 C1049 0.930 . S
H1037 C1053 0.959 . S
H1038 C1053 0.959 . S
H1039 C1053 0.961 . S
H1040 C1054 0.960 . S
H1041 C1054 0.961 . S
H1042 C1054 0.959 . S
H1043 C1057 0.929 . S
H1044 C1058 0.931 . S
H1045 C1060 0.930 . S
C1046 H1034 0.930 . S
C1046 C1047 1.399 . S
C1046 C1051 1.399 . S
C1047 C1046 1.399 . S
C1047 C1048 1.376 . S
C1048 H1035 0.930 . S
C1048 C1047 1.376 . S
C1048 C1049 1.388 . S
C1049 H1036 0.930 . S
C1049 C1048 1.388 . S
C1049 C1050 1.390 . S
C1050 C1049 1.390 . S
C1050 C1051 1.394 . S
C1050 C1056 1.465 . S
C1051 C1046 1.399 . S
C1051 C1050 1.394 . S
C1051 C1052 1.516 . S
C1052 C1051 1.516 . S
C1052 C1053 1.502 . S
C1052 C1054 1.561 . S
C1052 C1055 1.526 . S
C1053 H1037 0.959 . S
C1053 H1038 0.959 . S
C1053 H1039 0.961 . S
C1053 C1052 1.502 . S
C1054 H1040 0.960 . S
C1054 H1041 0.961 . S
C1054 H1042 0.959 . S
C1054 C1052 1.561 . S
C1055 C1052 1.526 . S
C1055 C1056 1.396 . S
C1055 C1060 1.390 . S
C1056 C1050 1.465 . S
C1056 C1055 1.396 . S
C1056 C1057 1.399 . S
C1057 H1043 0.929 . S
C1057 C1056 1.399 . S
C1057 C1058 1.385 . S
C1058 H1044 0.931 . S
C1058 C1057 1.385 . S
C1058 C1059 1.389 . S
C1059 C1058 1.389 . S
C1059 C1060 1.387 . S
C1060 H1045 0.930 . S
C1060 C1055 1.390 . S
C1060 C1059 1.387 . S
H1061 C1073 0.930 . S
H1062 C1075 0.930 . S
H1063 C1076 0.930 . S
H1064 C1080 0.959 . S
H1065 C1080 0.959 . S
H1066 C1080 0.961 . S
H1067 C1081 0.960 . S
H1068 C1081 0.961 . S
H1069 C1081 0.959 . S
H1070 C1084 0.929 . S
H1071 C1085 0.931 . S
H1072 C1087 0.930 . S
C1073 H1061 0.930 . S
C1073 C1074 1.399 . S
C1073 C1078 1.399 . S
C1074 C1073 1.399 . S
C1074 C1075 1.376 . S
C1075 H1062 0.930 . S
C1075 C1074 1.376 . S
C1075 C1076 1.388 . S
C1076 H1063 0.930 . S
C1076 C1075 1.388 . S
C1076 C1077 1.390 . S
C1077 C1076 1.390 . S
C1077 C1078 1.394 . S
C1077 C1083 1.465 . S
C1078 C1073 1.399 . S
C1078 C1077 1.394 . S
C1078 C1079 1.516 . S
C1079 C1078 1.516 . S
C1079 C1080 1.502 . S
C1079 C1081 1.561 . S
C1079 C1082 1.526 . S
C1080 H1064 0.959 . S
C1080 H1065 0.959 . S
C1080 H1066 0.961 . S
C1080 C1079 1.502 . S
C1081 H1067 0.960 . S
C1081 H1068 0.961 . S
C1081 H1069 0.959 . S
C1081 C1079 1.561 . S
C1082 C1079 1.526 . S
C1082 C1083 1.396 . S
C1082 C1087 1.390 . S
C1083 C1077 1.465 . S
C1083 C1082 1.396 . S
C1083 C1084 1.399 . S
C1084 H1070 0.929 . S
C1084 C1083 1.399 . S
C1084 C1085 1.385 . S
C1085 H1071 0.931 . S
C1085 C1084 1.385 . S
C1085 C1086 1.389 . S
C1086 C1085 1.389 . S
C1086 C1087 1.387 . S
C1087 H1072 0.930 . S
C1087 C1082 1.390 . S
C1087 C1086 1.387 . S
C237 C62 1.575 . S
C249 C6 1.568 . S
C264 C76 1.529 . S
C276 C20 1.537 . S
C291 C90 1.576 . S
C303 C34 1.572 . S
C318 C104 1.573 . S
C330 C48 1.576 . S
C345 C174 1.569 . S
C357 C118 1.558 . S
C372 C188 1.528 . S
C384 C132 1.535 . S
C399 C146 1.544 . S
C411 C202 1.534 . S
C426 C216 1.539 . S
C438 C160 1.531 . S
C453 C9 1.542 . S
C465 C79 1.504 . S
C480 C93 1.533 . S
C492 C23 1.532 . S
C507 C37 1.484 . S
C519 C107 1.517 1_556 S
C534 C65 1.486 . S
C546 C51 1.529 . S
C561 C191 1.543 . S
C573 C121 1.509 . S
C588 C205 1.486 . S
C600 C135 1.507 . S
C615 C149 1.486 . S
C627 C219 1.530 . S
C642 C163 1.484 . S
C654 C177 1.514 . S
C669 C218 1.936 . S
C681 C8 1.948 . S
C696 C176 1.927 . S
C708 C22 1.961 . S
C723 C190 1.943 . S
C735 C36 1.942 . S
C750 C204 1.961 . S
C762 C50 1.928 . S
C777 C134 1.944 . S
C789 C64 1.948 . S
C804 C148 1.927 . S
C816 C78 1.961 . S
C831 C92 1.961 . S
C843 C162 1.928 . S
C858 C106 1.945 . S
C870 C120 1.947 . S
C885 C189 0.976 . S
C897 C35 1.032 . S
C912 C203 0.984 . S
C924 C49 1.015 . S
C939 C217 0.978 . S
C951 C7 1.035 . S
C966 C21 1.032 . S
C978 C175 0.976 . S
C993 C161 1.001 . S
C1005 C91 1.025 . S
C1020 C105 1.017 . S
C1032 C119 0.983 . S
C1047 C133 1.035 . S
C1059 C63 0.977 . S
C1074 C147 0.999 . S
C1086 C77 0.998 . S
