# Generated by pormake.
# Topology umc, (4)-cn, num edge types: 1
# Building blocks:
#     Node 0, Type 0, BuildingBlock: MUDLON_clean_sbu_0, # of connection points: 4
#     Node 1, Type 0, BuildingBlock: MUDLON_clean_sbu_0, # of connection points: 4
#     Node 2, Type 0, BuildingBlock: MUDLON_clean_sbu_0, # of connection points: 4
#     Node 3, Type 0, BuildingBlock: MUDLON_clean_sbu_0, # of connection points: 4
#     Node 4, Type 0, BuildingBlock: MUDLON_clean_sbu_0, # of connection points: 4
#     Node 5, Type 0, BuildingBlock: MUDLON_clean_sbu_0, # of connection points: 4
#     Node 6, Type 0, BuildingBlock: MUDLON_clean_sbu_0, # of connection points: 4
#     Node 7, Type 0, BuildingBlock: MUDLON_clean_sbu_0, # of connection points: 4
#     Node 8, Type 0, BuildingBlock: MUDLON_clean_sbu_0, # of connection points: 4
#     Node 9, Type 0, BuildingBlock: MUDLON_clean_sbu_0, # of connection points: 4
#     Node 10, Type 0, BuildingBlock: MUDLON_clean_sbu_0, # of connection points: 4
#     Node 11, Type 0, BuildingBlock: MUDLON_clean_sbu_0, # of connection points: 4
#     Node 12, Type 0, BuildingBlock: MUDLON_clean_sbu_0, # of connection points: 4
#     Node 13, Type 0, BuildingBlock: MUDLON_clean_sbu_0, # of connection points: 4
#     Node 14, Type 0, BuildingBlock: MUDLON_clean_sbu_0, # of connection points: 4
#     Node 15, Type 0, BuildingBlock: MUDLON_clean_sbu_0, # of connection points: 4
#     Edge 16, Type (0, 0), BuildingBlock: AJUNOK_clean_linker_0, # of connection points: 2
#     Edge 17, Type (0, 0), BuildingBlock: AJUNOK_clean_linker_0, # of connection points: 2
#     Edge 18, Type (0, 0), BuildingBlock: AJUNOK_clean_linker_0, # of connection points: 2
#     Edge 19, Type (0, 0), BuildingBlock: AJUNOK_clean_linker_0, # of connection points: 2
#     Edge 20, Type (0, 0), BuildingBlock: AJUNOK_clean_linker_0, # of connection points: 2
#     Edge 21, Type (0, 0), BuildingBlock: AJUNOK_clean_linker_0, # of connection points: 2
#     Edge 22, Type (0, 0), BuildingBlock: AJUNOK_clean_linker_0, # of connection points: 2
#     Edge 23, Type (0, 0), BuildingBlock: AJUNOK_clean_linker_0, # of connection points: 2
#     Edge 24, Type (0, 0), BuildingBlock: AJUNOK_clean_linker_0, # of connection points: 2
#     Edge 25, Type (0, 0), BuildingBlock: AJUNOK_clean_linker_0, # of connection points: 2
#     Edge 26, Type (0, 0), BuildingBlock: AJUNOK_clean_linker_0, # of connection points: 2
#     Edge 27, Type (0, 0), BuildingBlock: AJUNOK_clean_linker_0, # of connection points: 2
#     Edge 28, Type (0, 0), BuildingBlock: AJUNOK_clean_linker_0, # of connection points: 2
#     Edge 29, Type (0, 0), BuildingBlock: AJUNOK_clean_linker_0, # of connection points: 2
#     Edge 30, Type (0, 0), BuildingBlock: AJUNOK_clean_linker_0, # of connection points: 2
#     Edge 31, Type (0, 0), BuildingBlock: AJUNOK_clean_linker_0, # of connection points: 2
#     Edge 32, Type (0, 0), BuildingBlock: AJUNOK_clean_linker_0, # of connection points: 2
#     Edge 33, Type (0, 0), BuildingBlock: AJUNOK_clean_linker_0, # of connection points: 2
#     Edge 34, Type (0, 0), BuildingBlock: AJUNOK_clean_linker_0, # of connection points: 2
#     Edge 35, Type (0, 0), BuildingBlock: AJUNOK_clean_linker_0, # of connection points: 2
#     Edge 36, Type (0, 0), BuildingBlock: AJUNOK_clean_linker_0, # of connection points: 2
#     Edge 37, Type (0, 0), BuildingBlock: AJUNOK_clean_linker_0, # of connection points: 2
#     Edge 38, Type (0, 0), BuildingBlock: AJUNOK_clean_linker_0, # of connection points: 2
#     Edge 39, Type (0, 0), BuildingBlock: AJUNOK_clean_linker_0, # of connection points: 2
#     Edge 40, Type (0, 0), BuildingBlock: AJUNOK_clean_linker_0, # of connection points: 2
#     Edge 41, Type (0, 0), BuildingBlock: AJUNOK_clean_linker_0, # of connection points: 2
#     Edge 42, Type (0, 0), BuildingBlock: AJUNOK_clean_linker_0, # of connection points: 2
#     Edge 43, Type (0, 0), BuildingBlock: AJUNOK_clean_linker_0, # of connection points: 2
#     Edge 44, Type (0, 0), BuildingBlock: AJUNOK_clean_linker_0, # of connection points: 2
#     Edge 45, Type (0, 0), BuildingBlock: AJUNOK_clean_linker_0, # of connection points: 2
#     Edge 46, Type (0, 0), BuildingBlock: AJUNOK_clean_linker_0, # of connection points: 2
#     Edge 47, Type (0, 0), BuildingBlock: AJUNOK_clean_linker_0, # of connection points: 2
# Relax obj value: 0.000
# Max RMSD: 0.076
# Mean RMSD: 0.076
data_MOF--net-umc--node1-MUDLON_clean_sbu_0--edge1-AJUNOK_clean_linker_0
_symmetry_space_group_name_H-M    P1
_symmetry_Int_Tables_number       1
_symmetry_cell_setting            triclinic
loop_
_symmetry_equiv_pos_as_xyz
'x, y, z'
_cell_length_a     43.452322
_cell_length_b     11.177637
_cell_length_c     44.527494
_cell_angle_alpha  90.053003
_cell_angle_beta   89.917136
_cell_angle_gamma 89.925012
loop_
_atom_site_label
_atom_site_type_symbol
_atom_site_fract_x
_atom_site_fract_y
_atom_site_fract_z
_atom_type_partial_charge
Mg0 Mg 0.39019 0.98497 0.40548 0.0
C1 C 0.36629 0.86327 0.46234 0.0
O2 O 0.34268 0.93367 0.45729 0.0
C3 C 0.38682 0.02316 0.34121 0.0
O4 O 0.38992 0.12917 0.35359 0.0
C5 C 0.32711 0.07984 0.40361 0.0
O6 O 0.32497 0.97165 0.39224 0.0
O7 O 0.35355 0.11691 0.41178 0.0
O8 O 0.38721 0.85525 0.44233 0.0
O9 O 0.43808 0.04317 0.40847 0.0
C10 C 0.45677 0.95592 0.40525 0.0
O11 O 0.44518 0.84895 0.40067 0.0
O12 O 0.38579 0.93217 0.35847 0.0
Mg13 Mg 0.65751 0.0115 0.40486 0.0
C14 C 0.68224 0.12572 0.46243 0.0
O15 O 0.70585 0.05669 0.45623 0.0
C16 C 0.66122 0.98468 0.34022 0.0
O17 O 0.65732 0.87667 0.35122 0.0
C18 C 0.72044 0.91502 0.40157 0.0
O19 O 0.72305 0.02542 0.3918 0.0
O20 O 0.69388 0.87763 0.40932 0.0
O21 O 0.66076 0.135 0.44309 0.0
O22 O 0.60992 0.94943 0.40695 0.0
C23 C 0.59002 0.03341 0.40744 0.0
O24 O 0.59989 0.14449 0.40724 0.0
O25 O 0.66251 0.07222 0.35859 0.0
Mg26 Mg 0.39278 0.9944 0.14568 0.0
C27 C 0.36768 0.10858 0.08841 0.0
O28 O 0.34465 0.03634 0.09417 0.0
C29 C 0.38955 0.9683 0.21059 0.0
O30 O 0.39315 0.85964 0.19983 0.0
C31 C 0.33004 0.8981 0.14935 0.0
O32 O 0.32764 0.00817 0.15947 0.0
O33 O 0.3565 0.86047 0.14126 0.0
O34 O 0.38891 0.11954 0.10794 0.0
O35 O 0.4405 0.93453 0.14238 0.0
C36 C 0.45985 0.01979 0.14452 0.0
O37 O 0.44925 0.1288 0.14855 0.0
O38 O 0.3883 0.05508 0.19204 0.0
Mg39 Mg 0.6599 0.99012 0.14535 0.0
C40 C 0.68302 0.87211 0.08788 0.0
O41 O 0.70572 0.94785 0.09185 0.0
C42 C 0.66407 0.03269 0.2095 0.0
O43 O 0.6607 0.13804 0.19686 0.0
C44 C 0.72214 0.09515 0.14637 0.0
O45 O 0.72593 0.98778 0.15781 0.0
O46 O 0.69517 0.12631 0.13824 0.0
O47 O 0.66348 0.85875 0.10895 0.0
O48 O 0.61164 0.04359 0.14219 0.0
C49 C 0.59344 0.95412 0.14171 0.0
O50 O 0.60547 0.84639 0.14311 0.0
O51 O 0.66499 0.94078 0.19249 0.0
Mg52 Mg 0.66079 0.99368 0.64542 0.0
C53 C 0.65144 0.13277 0.58773 0.0
O54 O 0.62347 0.09131 0.59158 0.0
C55 C 0.66734 0.95459 0.70968 0.0
O56 O 0.66441 0.84794 0.6976 0.0
C57 C 0.72298 0.90082 0.63789 0.0
O58 O 0.72589 0.01734 0.64051 0.0
O59 O 0.69594 0.85667 0.63873 0.0
O60 O 0.67099 0.11838 0.60873 0.0
O61 O 0.61226 0.94271 0.6428 0.0
C62 C 0.59377 0.02674 0.64996 0.0
O63 O 0.60541 0.12996 0.6583 0.0
O64 O 0.66721 0.0452 0.69226 0.0
Mg65 Mg 0.39265 0.98829 0.64516 0.0
C66 C 0.40017 0.85155 0.5868 0.0
O67 O 0.42853 0.88897 0.59052 0.0
C68 C 0.38622 0.02463 0.70935 0.0
O69 O 0.39079 0.13088 0.69759 0.0
C70 C 0.33154 0.09543 0.63872 0.0
O71 O 0.32662 0.97944 0.63883 0.0
O72 O 0.35924 0.13235 0.64014 0.0
O73 O 0.38092 0.86796 0.60801 0.0
O74 O 0.44124 0.0377 0.64242 0.0
C75 C 0.46055 0.95598 0.64907 0.0
O76 O 0.45004 0.84987 0.65653 0.0
O77 O 0.3856 0.93458 0.69173 0.0
Mg78 Mg 0.65738 0.98625 0.90476 0.0
C79 C 0.64878 0.85175 0.96347 0.0
O80 O 0.62031 0.88636 0.95885 0.0
C81 C 0.66264 0.01156 0.84008 0.0
O82 O 0.65687 0.11922 0.85058 0.0
C83 C 0.71852 0.09356 0.90926 0.0
O84 O 0.72347 0.97753 0.90896 0.0
O85 O 0.69078 0.13056 0.90857 0.0
O86 O 0.66867 0.87038 0.94295 0.0
O87 O 0.6088 0.03673 0.90689 0.0
C88 C 0.58955 0.95525 0.90001 0.0
O89 O 0.60013 0.8491 0.89253 0.0
O90 O 0.66461 0.92546 0.85877 0.0
Mg91 Mg 0.38932 0.99217 0.90445 0.0
C92 C 0.39835 0.12619 0.9631 0.0
O93 O 0.42662 0.08838 0.95877 0.0
C94 C 0.38466 0.9656 0.83969 0.0
O95 O 0.38923 0.85733 0.85028 0.0
C96 C 0.32724 0.89858 0.90988 0.0
O97 O 0.32443 0.01536 0.90792 0.0
O98 O 0.35428 0.85408 0.90932 0.0
O99 O 0.37873 0.11136 0.9422 0.0
O100 O 0.4379 0.94135 0.90665 0.0
C101 C 0.45627 0.026 0.89982 0.0
O102 O 0.44447 0.12973 0.89205 0.0
O103 O 0.38292 0.05201 0.85834 0.0
Mg104 Mg 0.88944 0.49333 0.40384 0.0
C105 C 0.86456 0.3795 0.46133 0.0
O106 O 0.84269 0.45858 0.45693 0.0
C107 C 0.88492 0.52956 0.33962 0.0
O108 O 0.88865 0.63576 0.35173 0.0
C109 C 0.82756 0.60052 0.40184 0.0
O110 O 0.82334 0.49007 0.39259 0.0
O111 O 0.85463 0.6327 0.4093 0.0
O112 O 0.88489 0.36524 0.44096 0.0
O113 O 0.93772 0.54672 0.4063 0.0
C114 C 0.95608 0.45771 0.40732 0.0
O115 O 0.94424 0.34964 0.40714 0.0
O116 O 0.88404 0.43906 0.35706 0.0
Mg117 Mg 0.15742 0.49365 0.40463 0.0
C118 C 0.15024 0.63743 0.46205 0.0
O119 O 0.12141 0.60702 0.45773 0.0
C120 C 0.16243 0.4541 0.34031 0.0
O121 O 0.15801 0.34834 0.3524 0.0
C122 C 0.21878 0.38837 0.41046 0.0
O123 O 0.22347 0.50442 0.40934 0.0
O124 O 0.19112 0.3506 0.40976 0.0
O125 O 0.16969 0.61526 0.44134 0.0
O126 O 0.10891 0.44463 0.40891 0.0
C127 C 0.08946 0.52337 0.40059 0.0
O128 O 0.09986 0.62545 0.39006 0.0
O129 O 0.16351 0.54475 0.35772 0.0
Mg130 Mg 0.89195 0.50103 0.1443 0.0
C131 C 0.90102 0.63918 0.08619 0.0
O132 O 0.92958 0.60649 0.09111 0.0
C133 C 0.88707 0.47353 0.20911 0.0
O134 O 0.89195 0.36551 0.19842 0.0
C135 C 0.83026 0.40348 0.13842 0.0
O136 O 0.82695 0.52031 0.13898 0.0
O137 O 0.85743 0.36068 0.13991 0.0
O138 O 0.88099 0.6193 0.10651 0.0
O139 O 0.94062 0.45227 0.14134 0.0
C140 C 0.959 0.53421 0.14999 0.0
O141 O 0.94714 0.63452 0.16019 0.0
O142 O 0.88539 0.56014 0.19054 0.0
Mg143 Mg 0.15955 0.48666 0.14512 0.0
C144 C 0.18161 0.38032 0.08578 0.0
O145 O 0.20352 0.45948 0.08978 0.0
C146 C 0.16352 0.51057 0.20982 0.0
O147 O 0.15981 0.61929 0.19919 0.0
C148 C 0.22233 0.58736 0.14695 0.0
O149 O 0.22641 0.47478 0.15446 0.0
O150 O 0.1952 0.62279 0.14069 0.0
O151 O 0.16237 0.36298 0.10694 0.0
O152 O 0.11191 0.54819 0.14396 0.0
C153 C 0.09221 0.46411 0.14203 0.0
O154 O 0.1023 0.35352 0.13999 0.0
O155 O 0.16484 0.42403 0.19116 0.0
Mg156 Mg 0.15992 0.49726 0.6443 0.0
C157 C 0.18318 0.6172 0.58685 0.0
O158 O 0.20718 0.54915 0.59221 0.0
C159 C 0.16348 0.47074 0.7092 0.0
O160 O 0.1603 0.36201 0.69839 0.0
C161 C 0.22342 0.40481 0.64674 0.0
O162 O 0.22542 0.51332 0.65793 0.0
O163 O 0.19704 0.3672 0.63855 0.0
O164 O 0.16201 0.62357 0.60664 0.0
O165 O 0.11261 0.43178 0.64244 0.0
C166 C 0.09267 0.51557 0.6419 0.0
O167 O 0.10252 0.62669 0.64183 0.0
O168 O 0.16456 0.55764 0.69067 0.0
Mg169 Mg 0.89207 0.483 0.64325 0.0
C170 C 0.89806 0.34086 0.58549 0.0
O171 O 0.92701 0.37064 0.58928 0.0
C172 C 0.88628 0.52456 0.70751 0.0
O173 O 0.89099 0.62999 0.69535 0.0
C174 C 0.83123 0.58994 0.63791 0.0
O175 O 0.82662 0.47467 0.6416 0.0
O176 O 0.85891 0.62754 0.63712 0.0
O177 O 0.87912 0.36174 0.60672 0.0
O178 O 0.94107 0.52569 0.63936 0.0
C179 C 0.95945 0.44234 0.64719 0.0
O180 O 0.94766 0.34153 0.65702 0.0
O181 O 0.88519 0.43365 0.69019 0.0
Mg182 Mg 0.15722 0.48646 0.90418 0.0
C183 C 0.14939 0.34016 0.96109 0.0
O184 O 0.12047 0.36724 0.956 0.0
C185 C 0.16229 0.52637 0.83981 0.0
O186 O 0.158 0.6322 0.85198 0.0
C187 C 0.21872 0.58999 0.90845 0.0
O188 O 0.22315 0.47478 0.90432 0.0
O189 O 0.19111 0.62828 0.90991 0.0
O190 O 0.16926 0.36502 0.94098 0.0
O191 O 0.10871 0.53606 0.90867 0.0
C192 C 0.08923 0.45918 0.89943 0.0
O193 O 0.09962 0.35915 0.88762 0.0
O194 O 0.16331 0.43566 0.85717 0.0
Mg195 Mg 0.88938 0.49785 0.90288 0.0
C196 C 0.86749 0.60952 0.96168 0.0
O197 O 0.84496 0.53295 0.95781 0.0
C198 C 0.88512 0.47051 0.83808 0.0
O199 O 0.88836 0.36187 0.84891 0.0
C200 C 0.82622 0.40433 0.90136 0.0
O201 O 0.82387 0.51437 0.89125 0.0
O202 O 0.85283 0.36581 0.9086 0.0
O203 O 0.88677 0.62446 0.94045 0.0
O204 O 0.93727 0.43838 0.90491 0.0
C205 C 0.95596 0.52582 0.90724 0.0
O206 O 0.94457 0.63467 0.90818 0.0
O207 O 0.88426 0.55769 0.85657 0.0
C208 C 0.40348 0.80447 0.50266 0.0
C209 C 0.37288 0.82524 0.49373 0.0
C210 C 0.41169 0.80253 0.53312 0.0
C211 C 0.38963 0.82035 0.55594 0.0
H212 H 0.42171 0.79893 0.4861 0.0
H213 H 0.43586 0.79466 0.53869 0.0
S214 S 0.30531 0.85063 0.54454 0.0
N215 N 0.31967 0.84347 0.51023 0.0
N216 N 0.33504 0.83923 0.56742 0.0
C217 C 0.35848 0.82761 0.54738 0.0
C218 C 0.35014 0.83031 0.5163 0.0
C219 C 0.63896 0.18659 0.53465 0.0
C220 C 0.66144 0.16546 0.55681 0.0
C221 C 0.64641 0.18543 0.50399 0.0
C222 C 0.67664 0.16203 0.49418 0.0
H223 H 0.61499 0.19648 0.54091 0.0
H224 H 0.62782 0.19378 0.48793 0.0
S225 S 0.74515 0.12552 0.54315 0.0
N226 N 0.71609 0.13933 0.56682 0.0
N227 N 0.73007 0.13674 0.50925 0.0
C228 C 0.69987 0.15332 0.51614 0.0
C229 C 0.6923 0.15524 0.54743 0.0
C230 C 0.40335 0.17206 0.04715 0.0
C231 C 0.37319 0.1471 0.05685 0.0
C232 C 0.41077 0.17566 1.01649 0.0
C233 C 0.38833 0.15551 0.99425 0.0
H234 H 0.42191 0.17982 0.06325 0.0
H235 H 0.43471 0.18681 1.01028 0.0
S236 S 0.3047 0.11254 1.00778 0.0
N237 N 0.31982 0.12136 0.04171 0.0
N238 N 0.33372 0.12873 0.98416 0.0
C239 C 0.3575 0.14361 1.0036 0.0
C240 C 0.34997 0.13914 0.03487 0.0
C241 C 0.68942 0.84361 1.00335 0.0
C242 C 0.65876 0.82281 0.99461 0.0
C243 C 0.69769 0.84863 0.03379 0.0
C244 C 0.67574 0.83211 0.05675 0.0
H245 H 0.70676 0.86525 0.98672 0.0
H246 H 0.72111 0.87333 0.03932 0.0
S247 S 0.59376 0.74935 0.04559 0.0
N248 N 0.60744 0.76657 1.01125 0.0
N249 N 0.62297 0.77506 0.06834 0.0
C250 C 0.64576 0.79828 0.04823 0.0
C251 C 0.63728 0.79407 1.01721 0.0
C252 C 0.90849 0.29423 0.53144 0.0
C253 C 0.8869 0.31626 0.55446 0.0
C254 C 0.90036 0.30318 0.50103 0.0
C255 C 0.87034 0.33549 0.49237 0.0
H256 H 0.9324 0.27766 0.53689 0.0
H257 H 0.9184 0.29387 0.48437 0.0
S258 S 0.80361 0.37734 0.54355 0.0
N259 N 0.83293 0.35228 0.56623 0.0
N260 N 0.81776 0.36979 0.50916 0.0
C261 C 0.8478 0.34514 0.51503 0.0
C262 C 0.85603 0.33522 0.54604 0.0
C263 C 0.14641 0.6787 0.54638 0.0
C264 C 0.17688 0.65616 0.55546 0.0
C265 C 0.13845 0.68319 0.51588 0.0
C266 C 0.16063 0.66596 0.49314 0.0
H267 H 0.12806 0.68406 0.56284 0.0
H268 H 0.11434 0.69254 0.5102 0.0
S269 S 0.2448 0.63216 0.50503 0.0
N270 N 0.23018 0.63728 0.53926 0.0
N271 N 0.21527 0.64604 0.48199 0.0
C272 C 0.19169 0.65682 0.50191 0.0
C273 C 0.19979 0.65172 0.53303 0.0
C274 C 0.85256 0.63529 1.01562 0.0
C275 C 0.8746 0.65101 0.99271 0.0
C276 C 0.86062 0.643 0.04607 0.0
C277 C 0.89117 0.66573 0.05488 0.0
H278 H 0.82923 0.60938 1.01007 0.0
H279 H 0.84323 0.62193 0.06269 0.0
S280 S 0.95633 0.73731 1.00392 0.0
N281 N 0.92731 0.70879 0.98113 0.0
N282 N 0.94247 0.72243 0.03826 0.0
C283 C 0.91273 0.69346 0.03227 0.0
C284 C 0.90445 0.68646 1.00123 0.0
C285 C 0.19723 0.35569 0.03197 0.0
C286 C 0.17523 0.33675 0.05476 0.0
C287 C 0.18953 0.3451 1.00147 0.0
C288 C 0.15939 0.31609 0.9925 0.0
H289 H 0.22016 0.38626 0.0376 0.0
H290 H 0.20677 0.36883 0.98493 0.0
S291 S 0.09489 0.23347 0.04319 0.0
N292 N 0.12329 0.26886 0.06611 0.0
N293 N 0.1088 0.24973 1.00891 0.0
C294 C 0.13805 0.28498 1.01503 0.0
C295 C 0.14597 0.295 0.04612 0.0
C296 C 0.53538 0.1056 0.41051 0.0
C297 C 0.55626 0.00949 0.40755 0.0
C298 C 0.50341 0.08764 0.40994 0.0
C299 C 0.49082 0.97273 0.40631 0.0
H300 H 0.54372 0.19624 0.41322 0.0
H301 H 0.48849 0.16484 0.4122 0.0
S302 S 0.53538 0.68998 0.39779 0.0
N303 N 0.5619 0.79469 0.40105 0.0
N304 N 0.50204 0.76036 0.39994 0.0
C305 C 0.51145 0.87544 0.4035 0.0
C306 C 0.54404 0.89388 0.40415 0.0
C307 C 0.51399 0.09682 0.14712 0.0
C308 C 0.49374 -0.00034 0.14284 0.0
C309 C 0.54606 0.08195 0.1462 0.0
C310 C 0.55937 0.96912 0.14102 0.0
H311 H 0.50508 0.18568 0.15151 0.0
H312 H 0.56048 0.1594 0.15005 0.0
S313 S 0.51679 0.68631 0.12662 0.0
N314 N 0.48954 0.78712 0.13202 0.0
N315 N 0.54965 0.75878 0.13018 0.0
C316 C 0.53943 0.87136 0.13612 0.0
C317 C 0.50672 0.88664 0.13706 0.0
C318 C 0.54687 0.89573 0.64911 0.0
C319 C 0.55981 0.0109 0.64856 0.0
C320 C 0.51483 0.87931 0.64913 0.0
C321 C 0.49435 0.97727 0.64818 0.0
H322 H 0.56157 0.8175 0.6501 0.0
H323 H 0.5061 0.78865 0.64993 0.0
S324 S 0.51649 0.29761 0.64494 0.0
N325 N 0.54956 0.22493 0.64605 0.0
N326 N 0.48953 0.19376 0.64579 0.0
C327 C 0.507 0.09291 0.64695 0.0
C328 C 0.53963 0.10975 0.64725 0.0
C329 C 0.53532 0.87864 0.8998 0.0
C330 C 0.55573 0.97657 0.90091 0.0
C331 C 0.50327 0.89505 0.90002 0.0
C332 C 0.49025 0.01019 0.90093 0.0
H333 H 0.5441 0.788 0.89877 0.0
H334 H 0.48862 0.81683 0.89892 0.0
S335 S 0.5334 0.2968 0.90497 0.0
N336 N 0.56043 0.19298 0.90375 0.0
N337 N 0.50038 0.22416 0.90386 0.0
C338 C 0.51037 0.10901 0.90235 0.0
C339 C 0.54302 0.09217 0.90245 0.0
C340 C 1.00314 0.58469 0.39969 0.0
C341 C 0.99013 0.47347 0.40713 0.0
C342 C 0.03517 0.59951 0.39774 0.0
C343 C 0.05564 0.50405 0.40336 0.0
H344 H 0.98849 0.6607 0.39481 0.0
H345 H 0.04388 0.68695 0.39165 0.0
S346 S 0.03345 0.19535 0.42505 0.0
N347 N 1.00041 0.26655 0.42111 0.0
N348 N 0.0604 0.29483 0.41751 0.0
C349 C 0.04297 0.39284 0.41138 0.0
C350 C 1.01032 0.37749 0.41323 0.0
C351 C 0.03776 0.39285 0.13722 0.0
C352 C 0.05845 0.487 0.14322 0.0
C353 C 1.00579 0.40896 0.13928 0.0
C354 C 0.99303 0.51982 0.14762 0.0
H355 H 0.04627 0.30519 0.13092 0.0
H356 H 0.99102 0.33334 0.13453 0.0
S357 S 0.03704 0.79648 0.16522 0.0
N358 N 0.06374 0.69595 0.15743 0.0
N359 N 1.00382 0.72666 0.16142 0.0
C360 C 1.01345 0.6153 0.15344 0.0
C361 C 0.04605 0.5989 0.15118 0.0
C362 C 1.00619 0.57067 0.63958 0.0
C363 C 0.99348 0.45716 0.64507 0.0
C364 C 0.03816 0.58766 0.63831 0.0
C365 C 0.05892 0.49183 0.64224 0.0
H366 H 0.99137 0.64774 0.63662 0.0
H367 H 0.04658 0.67741 0.63432 0.0
S368 S 0.03762 0.17516 0.65603 0.0
N369 N 1.00435 0.246 0.65367 0.0
N370 N 0.0643 0.27832 0.65114 0.0
C371 C 0.04657 0.37731 0.64721 0.0
C372 C 1.01395 0.35997 0.64869 0.0
C373 C 0.03486 0.38651 0.89404 0.0
C374 C 0.05541 0.478 0.90264 0.0
C375 C 1.00283 0.40112 0.89633 0.0
C376 C 0.98993 0.50824 0.90711 0.0
H377 H 0.0435 0.30256 0.88523 0.0
H378 H 0.9881 0.32873 0.88896 0.0
S379 S 0.03337 0.77332 0.93436 0.0
N380 N 0.06028 0.67799 0.92365 0.0
N381 N 1.00029 0.70572 0.92789 0.0
C382 C 1.01017 0.59969 0.91639 0.0
C383 C 0.0428 0.58458 0.91417 0.0
C384 C 0.27564 0.35273 0.4133 0.0
C385 C 0.24566 0.30566 0.4106 0.0
C386 C 0.30176 0.27911 0.41163 0.0
C387 C 0.29907 0.15522 0.40695 0.0
H388 H 0.27912 0.44787 0.41641 0.0
H389 H 0.32425 0.32022 0.41339 0.0
S390 S 0.22585 0.98523 0.40043 0.0
N391 N 0.21488 0.12577 0.40447 0.0
N392 N 0.26382 0.98738 0.40126 0.0
C393 C 0.26922 0.10628 0.40497 0.0
C394 C 0.24258 0.1813 0.40684 0.0
C395 C 0.74487 0.71198 0.40338 0.0
C396 C 0.74806 0.83703 0.40339 0.0
C397 C 0.77074 0.63676 0.40323 0.0
C398 C 0.80088 0.68344 0.40354 0.0
H399 H 0.72222 0.67163 0.40276 0.0
H400 H 0.76701 0.54099 0.40272 0.0
S401 S 0.82181 0.00503 0.4055 0.0
N402 N 0.78382 0.00456 0.40494 0.0
N403 N 0.83232 0.86305 0.40498 0.0
C404 C 0.8044 0.80833 0.40444 0.0
C405 C 0.77805 0.8851 0.40424 0.0
C406 C 0.27924 0.62178 0.14553 0.0
C407 C 0.24918 0.66947 0.14601 0.0
C408 C 0.30524 0.69613 0.14593 0.0
C409 C 0.30226 0.82122 0.14726 0.0
H410 H 0.28282 0.5259 0.14495 0.0
H411 H 0.32783 0.65496 0.14584 0.0
S412 S 0.22875 0.99184 0.14784 0.0
N413 N 0.21804 0.85026 0.14692 0.0
N414 N 0.26674 0.98999 0.14797 0.0
C415 C 0.27233 0.87033 0.14729 0.0
C416 C 0.24586 0.79454 0.14655 0.0
C417 C 0.77904 0.13058 0.1484 0.0
C418 C 0.74923 0.17526 0.14275 0.0
C419 C 0.80515 0.20376 0.14615 0.0
C420 C 0.80259 0.32518 0.13834 0.0
H421 H 0.78237 0.03808 0.15488 0.0
H422 H 0.82744 0.16527 0.15122 0.0
S423 S 0.73001 0.48565 0.1198 0.0
N424 N 0.7189 0.34825 0.12789 0.0
N425 N 0.76778 0.48593 0.12369 0.0
C426 C 0.77298 0.37064 0.13201 0.0
C427 C 0.74638 0.29582 0.13418 0.0
C428 C 0.74817 0.69866 0.63813 0.0
C429 C 0.75089 0.82364 0.63593 0.0
C430 C 0.77426 0.62463 0.63824 0.0
C431 C 0.80426 0.67202 0.63615 0.0
H432 H 0.72575 0.65742 0.64033 0.0
H433 H 0.77073 0.5291 0.6404 0.0
S434 S 0.82407 0.99326 0.62786 0.0
N435 N 0.78615 0.99151 0.63003 0.0
N436 N 0.83501 0.85216 0.63041 0.0
C437 C 0.80734 0.79669 0.63314 0.0
C438 C 0.78072 0.8723 0.633 0.0
C439 C 0.24888 0.20742 0.63637 0.0
C440 C 0.25152 0.32958 0.64345 0.0
C441 C 0.27494 0.13368 0.6343 0.0
C442 C 0.30483 0.17886 0.63901 0.0
H443 H 0.22645 0.16763 0.63288 0.0
H444 H 0.27147 0.03985 0.62923 0.0
S445 S 0.32466 0.49423 0.65647 0.0
N446 N 0.28676 0.4938 0.65397 0.0
N447 N 0.33558 0.35506 0.65002 0.0
C448 C 0.30793 0.30155 0.64533 0.0
C449 C 0.28134 0.37672 0.6476 0.0
C450 C 0.77523 0.13131 0.91232 0.0
C451 C 0.74519 0.17694 0.90873 0.0
C452 C 0.80118 0.20541 0.91034 0.0
C453 C 0.79827 0.32846 0.90447 0.0
H454 H 0.7789 0.03689 0.91648 0.0
H455 H 0.82372 0.1653 0.91299 0.0
S456 S 0.72471 0.49432 0.89442 0.0
N457 N 0.71406 0.35434 0.89991 0.0
N458 N 0.76265 0.49375 0.89611 0.0
C459 C 0.76832 0.37592 0.90134 0.0
C460 C 0.74185 0.30036 0.90351 0.0
C461 C 0.27575 0.62346 0.90807 0.0
C462 C 0.24577 0.67139 0.91026 0.0
C463 C 0.30189 0.69695 0.90853 0.0
C464 C 0.29926 0.82188 0.91115 0.0
H465 H 0.27921 0.52794 0.90564 0.0
H466 H 0.32431 0.65535 0.90633 0.0
S467 S 0.22614 0.99279 0.9192 0.0
N468 N 0.21513 0.852 0.91625 0.0
N469 N 0.26407 0.99029 0.91724 0.0
C470 C 0.26944 0.87107 0.91401 0.0
C471 C 0.24278 0.79603 0.91354 0.0
C472 C 0.38801 0.89829 0.29429 0.0
C473 C 0.38599 0.01157 0.30787 0.0
C474 C 0.38884 0.88586 0.26294 0.0
C475 C 0.38761 0.98607 0.24371 0.0
H476 H 0.38943 0.81834 0.30795 0.0
H477 H 0.39074 0.79634 0.25378 0.0
S478 S 0.38061 0.30286 0.26777 0.0
N479 N 0.38159 0.22645 0.29945 0.0
N480 N 0.3832 0.20247 0.24069 0.0
C481 C 0.38496 0.09983 0.25694 0.0
C482 C 0.38415 0.11267 0.28892 0.0
C483 C 0.66268 0.91034 0.25674 0.0
C484 C 0.66508 0.02276 0.24285 0.0
C485 C 0.66179 0.8996 0.28812 0.0
C486 C 0.66336 0.00072 0.30707 0.0
H487 H 0.66092 0.8298 0.24331 0.0
H488 H 0.65953 0.8107 0.29751 0.0
S489 S 0.67169 0.31565 0.28212 0.0
N490 N 0.67039 0.23769 0.25065 0.0
N491 N 0.66868 0.21689 0.30949 0.0
C492 C 0.66648 0.11358 0.29353 0.0
C493 C 0.66735 0.12469 0.26151 0.0
C494 C 0.66284 0.09303 0.78766 0.0
C495 C 0.66569 0.9938 0.80704 0.0
C496 C 0.66422 0.0802 0.75634 0.0
C497 C 0.66842 0.96746 0.74296 0.0
H498 H 0.65907 0.18193 0.79665 0.0
H499 H 0.66128 0.15916 0.74255 0.0
S500 S 0.67938 0.67964 0.78352 0.0
N501 N 0.6745 0.77948 0.81044 0.0
N502 N 0.67714 0.75484 0.7517 0.0
C503 C 0.67217 0.86767 0.76206 0.0
C504 C 0.6708 0.88091 0.79402 0.0
C505 C 0.38562 0.88451 0.78719 0.0
C506 C 0.38308 0.98397 0.8066 0.0
C507 C 0.38585 0.89794 0.75587 0.0
C508 C 0.38367 0.01149 0.74253 0.0
H509 H 0.38789 0.79496 0.79619 0.0
H510 H 0.38843 0.8187 0.74206 0.0
S511 S 0.37435 0.30057 0.78307 0.0
N512 N 0.37677 0.19965 0.80999 0.0
N513 N 0.37713 0.22538 0.75126 0.0
C514 C 0.38024 0.11164 0.76163 0.0
C515 C 0.37996 0.09781 0.79357 0.0
C516 C 0.88674 0.39132 0.26148 0.0
C517 C 0.88478 0.49122 0.2422 0.0
C518 C 0.88605 0.404 0.29283 0.0
C519 C 0.88348 0.51723 0.30634 0.0
H520 H 0.88921 0.30195 0.25236 0.0
H521 H 0.88817 0.3244 0.30654 0.0
S522 S 0.87562 0.80737 0.26612 0.0
N523 N 0.87874 0.70703 0.23908 0.0
N524 N 0.87739 0.73141 0.29784 0.0
C525 C 0.88071 0.61786 0.28735 0.0
C526 C 0.88136 0.60478 0.25538 0.0
C527 C 0.16316 0.57956 0.29358 0.0
C528 C 0.16453 0.46607 0.30706 0.0
C529 C 0.1633 0.59239 0.26224 0.0
C530 C 0.16492 0.49237 0.24293 0.0
H531 H 0.16139 0.65937 0.3073 0.0
H532 H 0.16176 0.68205 0.25316 0.0
S533 S 0.17096 0.17521 0.26676 0.0
N534 N 0.16906 0.25125 0.29851 0.0
N535 N 0.16927 0.27595 0.23974 0.0
C536 C 0.1671 0.37841 0.25607 0.0
C537 C 0.16691 0.36518 0.28804 0.0
C538 C 0.16274 0.40114 0.79294 0.0
C539 C 0.16434 0.51447 0.80653 0.0
C540 C 0.16287 0.38852 0.76158 0.0
C541 C 0.16471 0.48861 0.74235 0.0
H542 H 0.16081 0.32131 0.80659 0.0
H543 H 0.16116 0.299 0.75241 0.0
S544 S 0.17136 0.80533 0.7665 0.0
N545 N 0.16929 0.72913 0.79817 0.0
N546 N 0.16949 0.70487 0.73938 0.0
C547 C 0.16708 0.60238 0.75561 0.0
C548 C 0.1669 0.61538 0.7876 0.0
C549 C 0.88549 0.39986 0.75439 0.0
C550 C 0.88405 0.5131 0.74078 0.0
C551 C 0.88537 0.38761 0.78574 0.0
C552 C 0.88371 0.48799 0.80494 0.0
H553 H 0.88732 0.31983 0.74076 0.0
H554 H 0.88698 0.29815 0.79494 0.0
S555 S 0.87739 0.80461 0.78072 0.0
N556 N 0.87934 0.72799 0.74907 0.0
N557 N 0.87917 0.70442 0.80786 0.0
C558 C 0.88144 0.60167 0.79166 0.0
C559 C 0.8816 0.6143 0.75967 0.0
loop_
_geom_bond_atom_site_label_1
_geom_bond_atom_site_label_2
_geom_bond_distance
_geom_bond_site_symmetry_2
_ccdc_geom_bond_type
Mg0 O7 2.141 . S
Mg0 O8 2.048 . S
Mg0 O9 2.048 1_545 S
Mg0 O12 2.141 . S
C1 O2 1.313 . S
C1 O8 1.195 . S
O2 C1 1.313 . S
C3 O4 1.245 . S
C3 O12 1.289 . S
O4 C3 1.245 . S
C5 O6 1.245 . S
C5 O7 1.289 . S
O6 C5 1.245 . S
O7 Mg0 2.141 . S
O7 C5 1.289 . S
O8 Mg0 2.048 . S
O8 C1 1.195 . S
O9 Mg0 2.048 1_565 S
O9 C10 1.195 1_565 S
C10 O9 1.195 1_545 S
C10 O11 1.313 . S
O11 C10 1.313 . S
O12 Mg0 2.141 . S
O12 C3 1.289 . S
Mg13 O20 2.141 . S
Mg13 O21 2.048 . S
Mg13 O22 2.048 1_565 S
Mg13 O25 2.141 . S
C14 O15 1.313 . S
C14 O21 1.195 . S
O15 C14 1.313 . S
C16 O17 1.245 . S
C16 O25 1.289 . S
O17 C16 1.245 . S
C18 O19 1.245 . S
C18 O20 1.289 . S
O19 C18 1.245 . S
O20 Mg13 2.141 . S
O20 C18 1.289 . S
O21 Mg13 2.048 . S
O21 C14 1.195 . S
O22 Mg13 2.048 1_545 S
O22 C23 1.195 1_545 S
C23 O22 1.195 1_565 S
C23 O24 1.313 . S
O24 C23 1.313 . S
O25 Mg13 2.141 . S
O25 C16 1.289 . S
Mg26 O33 2.141 . S
Mg26 O34 2.048 . S
Mg26 O35 2.048 1_565 S
Mg26 O38 2.141 . S
C27 O28 1.313 . S
C27 O34 1.195 . S
O28 C27 1.313 . S
C29 O30 1.245 . S
C29 O38 1.289 . S
O30 C29 1.245 . S
C31 O32 1.245 . S
C31 O33 1.289 . S
O32 C31 1.245 . S
O33 Mg26 2.141 . S
O33 C31 1.289 . S
O34 Mg26 2.048 . S
O34 C27 1.195 . S
O35 Mg26 2.048 1_545 S
O35 C36 1.195 1_545 S
C36 O35 1.195 1_565 S
C36 O37 1.313 . S
O37 C36 1.313 . S
O38 Mg26 2.141 . S
O38 C29 1.289 . S
Mg39 O46 2.141 . S
Mg39 O47 2.048 . S
Mg39 O48 2.048 1_545 S
Mg39 O51 2.141 . S
C40 O41 1.313 . S
C40 O47 1.195 . S
O41 C40 1.313 . S
C42 O43 1.245 . S
C42 O51 1.289 . S
O43 C42 1.245 . S
C44 O45 1.245 . S
C44 O46 1.289 . S
O45 C44 1.245 . S
O46 Mg39 2.141 . S
O46 C44 1.289 . S
O47 Mg39 2.048 . S
O47 C40 1.195 . S
O48 Mg39 2.048 1_565 S
O48 C49 1.195 1_565 S
C49 O48 1.195 1_545 S
C49 O50 1.313 . S
O50 C49 1.313 . S
O51 Mg39 2.141 . S
O51 C42 1.289 . S
Mg52 O59 2.141 . S
Mg52 O60 2.048 . S
Mg52 O61 2.048 . S
Mg52 O64 2.141 . S
C53 O54 1.313 1_565 S
C53 O60 1.195 . S
O54 C53 1.313 1_545 S
C55 O56 1.245 1_565 S
C55 O64 1.289 . S
O56 C55 1.245 1_545 S
C57 O58 1.245 . S
C57 O59 1.289 . S
O58 C57 1.245 . S
O59 Mg52 2.141 . S
O59 C57 1.289 . S
O60 Mg52 2.048 . S
O60 C53 1.195 . S
O61 Mg52 2.048 . S
O61 C62 1.195 . S
C62 O61 1.195 . S
C62 O63 1.313 1_565 S
O63 C62 1.313 1_545 S
O64 Mg52 2.141 . S
O64 C55 1.289 . S
Mg65 O72 2.141 . S
Mg65 O73 2.048 . S
Mg65 O74 2.048 . S
Mg65 O77 2.141 . S
C66 O67 1.313 1_545 S
C66 O73 1.195 . S
O67 C66 1.313 1_565 S
C68 O69 1.245 1_545 S
C68 O77 1.289 . S
O69 C68 1.245 1_565 S
C70 O71 1.245 . S
C70 O72 1.289 . S
O71 C70 1.245 . S
O72 Mg65 2.141 . S
O72 C70 1.289 . S
O73 Mg65 2.048 . S
O73 C66 1.195 . S
O74 Mg65 2.048 . S
O74 C75 1.195 . S
C75 O74 1.195 . S
C75 O76 1.313 1_545 S
O76 C75 1.313 1_565 S
O77 Mg65 2.141 . S
O77 C68 1.289 . S
Mg78 O85 2.141 . S
Mg78 O86 2.048 . S
Mg78 O87 2.048 . S
Mg78 O90 2.141 . S
C79 O80 1.313 1_545 S
C79 O86 1.195 . S
O80 C79 1.313 1_565 S
C81 O82 1.245 1_545 S
C81 O90 1.289 . S
O82 C81 1.245 1_565 S
C83 O84 1.245 . S
C83 O85 1.289 . S
O84 C83 1.245 . S
O85 Mg78 2.141 . S
O85 C83 1.289 . S
O86 Mg78 2.048 . S
O86 C79 1.195 . S
O87 Mg78 2.048 . S
O87 C88 1.195 . S
C88 O87 1.195 . S
C88 O89 1.313 1_545 S
O89 C88 1.313 1_565 S
O90 Mg78 2.141 . S
O90 C81 1.289 . S
Mg91 O98 2.141 . S
Mg91 O99 2.048 . S
Mg91 O100 2.048 . S
Mg91 O103 2.141 . S
C92 O93 1.313 1_565 S
C92 O99 1.195 . S
O93 C92 1.313 1_545 S
C94 O95 1.245 1_565 S
C94 O103 1.289 . S
O95 C94 1.245 1_545 S
C96 O97 1.245 . S
C96 O98 1.289 . S
O97 C96 1.245 . S
O98 Mg91 2.141 . S
O98 C96 1.289 . S
O99 Mg91 2.048 . S
O99 C92 1.195 . S
O100 Mg91 2.048 . S
O100 C101 1.195 . S
C101 O100 1.195 . S
C101 O102 1.313 1_565 S
O102 C101 1.313 1_545 S
O103 Mg91 2.141 . S
O103 C94 1.289 . S
Mg104 O111 2.141 . S
Mg104 O112 2.048 . S
Mg104 O113 2.048 . S
Mg104 O116 2.141 . S
C105 O106 1.313 . S
C105 O112 1.195 . S
O106 C105 1.313 . S
C107 O108 1.245 . S
C107 O116 1.289 . S
O108 C107 1.245 . S
C109 O110 1.245 . S
C109 O111 1.289 . S
O110 C109 1.245 . S
O111 Mg104 2.141 . S
O111 C109 1.289 . S
O112 Mg104 2.048 . S
O112 C105 1.195 . S
O113 Mg104 2.048 . S
O113 C114 1.195 . S
C114 O113 1.195 . S
C114 O115 1.313 . S
O115 C114 1.313 . S
O116 Mg104 2.141 . S
O116 C107 1.289 . S
Mg117 O124 2.141 . S
Mg117 O125 2.048 . S
Mg117 O126 2.048 . S
Mg117 O129 2.141 . S
C118 O119 1.313 . S
C118 O125 1.195 . S
O119 C118 1.313 . S
C120 O121 1.245 . S
C120 O129 1.289 . S
O121 C120 1.245 . S
C122 O123 1.245 . S
C122 O124 1.289 . S
O123 C122 1.245 . S
O124 Mg117 2.141 . S
O124 C122 1.289 . S
O125 Mg117 2.048 . S
O125 C118 1.195 . S
O126 Mg117 2.048 . S
O126 C127 1.195 . S
C127 O126 1.195 . S
C127 O128 1.313 . S
O128 C127 1.313 . S
O129 Mg117 2.141 . S
O129 C120 1.289 . S
Mg130 O137 2.141 . S
Mg130 O138 2.048 . S
Mg130 O139 2.048 . S
Mg130 O142 2.141 . S
C131 O132 1.313 . S
C131 O138 1.195 . S
O132 C131 1.313 . S
C133 O134 1.245 . S
C133 O142 1.289 . S
O134 C133 1.245 . S
C135 O136 1.245 . S
C135 O137 1.289 . S
O136 C135 1.245 . S
O137 Mg130 2.141 . S
O137 C135 1.289 . S
O138 Mg130 2.048 . S
O138 C131 1.195 . S
O139 Mg130 2.048 . S
O139 C140 1.195 . S
C140 O139 1.195 . S
C140 O141 1.313 . S
O141 C140 1.313 . S
O142 Mg130 2.141 . S
O142 C133 1.289 . S
Mg143 O150 2.141 . S
Mg143 O151 2.048 . S
Mg143 O152 2.048 . S
Mg143 O155 2.141 . S
C144 O145 1.313 . S
C144 O151 1.195 . S
O145 C144 1.313 . S
C146 O147 1.245 . S
C146 O155 1.289 . S
O147 C146 1.245 . S
C148 O149 1.245 . S
C148 O150 1.289 . S
O149 C148 1.245 . S
O150 Mg143 2.141 . S
O150 C148 1.289 . S
O151 Mg143 2.048 . S
O151 C144 1.195 . S
O152 Mg143 2.048 . S
O152 C153 1.195 . S
C153 O152 1.195 . S
C153 O154 1.313 . S
O154 C153 1.313 . S
O155 Mg143 2.141 . S
O155 C146 1.289 . S
Mg156 O163 2.141 . S
Mg156 O164 2.048 . S
Mg156 O165 2.048 . S
Mg156 O168 2.141 . S
C157 O158 1.313 . S
C157 O164 1.195 . S
O158 C157 1.313 . S
C159 O160 1.245 . S
C159 O168 1.289 . S
O160 C159 1.245 . S
C161 O162 1.245 . S
C161 O163 1.289 . S
O162 C161 1.245 . S
O163 Mg156 2.141 . S
O163 C161 1.289 . S
O164 Mg156 2.048 . S
O164 C157 1.195 . S
O165 Mg156 2.048 . S
O165 C166 1.195 . S
C166 O165 1.195 . S
C166 O167 1.313 . S
O167 C166 1.313 . S
O168 Mg156 2.141 . S
O168 C159 1.289 . S
Mg169 O176 2.141 . S
Mg169 O177 2.048 . S
Mg169 O178 2.048 . S
Mg169 O181 2.141 . S
C170 O171 1.313 . S
C170 O177 1.195 . S
O171 C170 1.313 . S
C172 O173 1.245 . S
C172 O181 1.289 . S
O173 C172 1.245 . S
C174 O175 1.245 . S
C174 O176 1.289 . S
O175 C174 1.245 . S
O176 Mg169 2.141 . S
O176 C174 1.289 . S
O177 Mg169 2.048 . S
O177 C170 1.195 . S
O178 Mg169 2.048 . S
O178 C179 1.195 . S
C179 O178 1.195 . S
C179 O180 1.313 . S
O180 C179 1.313 . S
O181 Mg169 2.141 . S
O181 C172 1.289 . S
Mg182 O189 2.141 . S
Mg182 O190 2.048 . S
Mg182 O191 2.048 . S
Mg182 O194 2.141 . S
C183 O184 1.313 . S
C183 O190 1.195 . S
O184 C183 1.313 . S
C185 O186 1.245 . S
C185 O194 1.289 . S
O186 C185 1.245 . S
C187 O188 1.245 . S
C187 O189 1.289 . S
O188 C187 1.245 . S
O189 Mg182 2.141 . S
O189 C187 1.289 . S
O190 Mg182 2.048 . S
O190 C183 1.195 . S
O191 Mg182 2.048 . S
O191 C192 1.195 . S
C192 O191 1.195 . S
C192 O193 1.313 . S
O193 C192 1.313 . S
O194 Mg182 2.141 . S
O194 C185 1.289 . S
Mg195 O202 2.141 . S
Mg195 O203 2.048 . S
Mg195 O204 2.048 . S
Mg195 O207 2.141 . S
C196 O197 1.313 . S
C196 O203 1.195 . S
O197 C196 1.313 . S
C198 O199 1.245 . S
C198 O207 1.289 . S
O199 C198 1.245 . S
C200 O201 1.245 . S
C200 O202 1.289 . S
O201 C200 1.245 . S
O202 Mg195 2.141 . S
O202 C200 1.289 . S
O203 Mg195 2.048 . S
O203 C196 1.195 . S
O204 Mg195 2.048 . S
O204 C205 1.195 . S
C205 O204 1.195 . S
C205 O206 1.313 . S
O206 C205 1.313 . S
O207 Mg195 2.141 . S
O207 C198 1.289 . S
C208 C209 1.369 . S
C208 C210 1.419 . S
C208 H212 0.930 . S
C209 C208 1.369 . S
C209 C218 1.429 . S
C210 C208 1.419 . S
C210 C211 1.363 . S
C210 H213 0.929 . S
C211 C210 1.363 . S
C211 C217 1.428 . S
H212 C208 0.930 . S
H213 C210 0.929 . S
S214 N215 1.613 . S
S214 N216 1.610 . S
N215 S214 1.613 . S
N215 C218 1.350 . S
N216 S214 1.610 . S
N216 C217 1.351 . S
C217 C211 1.428 . S
C217 N216 1.351 . S
C217 C218 1.434 . S
C218 C209 1.429 . S
C218 N215 1.350 . S
C218 C217 1.434 . S
C219 C220 1.369 . S
C219 C221 1.419 . S
C219 H223 0.930 1_565 S
C220 C219 1.369 . S
C220 C229 1.429 . S
C221 C219 1.419 . S
C221 C222 1.363 . S
C221 H224 0.929 1_565 S
C222 C221 1.363 . S
C222 C228 1.428 . S
H223 C219 0.930 1_545 S
H224 C221 0.929 1_545 S
S225 N226 1.613 . S
S225 N227 1.610 . S
N226 S225 1.613 . S
N226 C229 1.350 . S
N227 S225 1.610 . S
N227 C228 1.351 . S
C228 C222 1.428 . S
C228 N227 1.351 . S
C228 C229 1.434 . S
C229 C220 1.429 . S
C229 N226 1.350 . S
C229 C228 1.434 . S
C230 C231 1.369 . S
C230 C232 1.419 1_554 S
C230 H234 0.930 1_565 S
C231 C230 1.369 . S
C231 C240 1.429 . S
C232 C230 1.419 1_556 S
C232 C233 1.363 . S
C232 H235 0.929 1_565 S
C233 C232 1.363 . S
C233 C239 1.428 . S
H234 C230 0.930 1_545 S
H235 C232 0.929 1_545 S
S236 N237 1.615 1_556 S
S236 N238 1.608 . S
N237 S236 1.615 1_554 S
N237 C240 1.350 . S
N238 S236 1.608 . S
N238 C239 1.351 . S
C239 C233 1.428 . S
C239 N238 1.351 . S
C239 C240 1.434 1_556 S
C240 C231 1.429 . S
C240 N237 1.350 . S
C240 C239 1.434 1_554 S
C241 C242 1.369 . S
C241 C243 1.419 1_556 S
C241 H245 0.930 . S
C242 C241 1.369 . S
C242 C251 1.431 . S
C243 C241 1.419 1_554 S
C243 C244 1.363 . S
C243 H246 0.929 . S
C244 C243 1.363 . S
C244 C250 1.434 . S
H245 C241 0.930 . S
H246 C243 0.929 . S
S247 N248 1.616 1_554 S
S247 N249 1.607 . S
N248 S247 1.616 1_556 S
N248 C251 1.347 1_565 S
N249 S247 1.607 . S
N249 C250 1.345 1_565 S
C250 C244 1.434 . S
C250 N249 1.345 1_545 S
C250 C251 1.434 1_554 S
C251 C242 1.431 . S
C251 N248 1.347 1_545 S
C251 C250 1.434 1_556 S
C252 C253 1.369 . S
C252 C254 1.419 . S
C252 H256 0.930 . S
C253 C252 1.369 . S
C253 C262 1.429 . S
C254 C252 1.419 . S
C254 C255 1.363 . S
C254 H257 0.929 . S
C255 C254 1.363 . S
C255 C261 1.428 . S
H256 C252 0.930 . S
H257 C254 0.929 . S
S258 N259 1.613 . S
S258 N260 1.610 . S
N259 S258 1.613 . S
N259 C262 1.350 . S
N260 S258 1.610 . S
N260 C261 1.351 . S
C261 C255 1.428 . S
C261 N260 1.351 . S
C261 C262 1.434 . S
C262 C253 1.429 . S
C262 N259 1.350 . S
C262 C261 1.434 . S
C263 C264 1.369 . S
C263 C265 1.419 . S
C263 H267 0.930 . S
C264 C263 1.369 . S
C264 C273 1.429 . S
C265 C263 1.419 . S
C265 C266 1.363 . S
C265 H268 0.929 . S
C266 C265 1.363 . S
C266 C272 1.428 . S
H267 C263 0.930 . S
H268 C265 0.929 . S
S269 N270 1.613 . S
S269 N271 1.610 . S
N270 S269 1.613 . S
N270 C273 1.350 . S
N271 S269 1.610 . S
N271 C272 1.351 . S
C272 C266 1.428 . S
C272 N271 1.351 . S
C272 C273 1.434 . S
C273 C264 1.429 . S
C273 N270 1.350 . S
C273 C272 1.434 . S
C274 C275 1.369 . S
C274 C276 1.419 1_556 S
C274 H278 0.930 . S
C275 C274 1.369 . S
C275 C284 1.429 . S
C276 C274 1.419 1_554 S
C276 C277 1.363 . S
C276 H279 0.929 . S
C277 C276 1.363 . S
C277 C283 1.428 . S
H278 C274 0.930 . S
H279 C276 0.929 . S
S280 N281 1.617 1_554 S
S280 N282 1.607 . S
N281 S280 1.617 1_556 S
N281 C284 1.350 . S
N282 S280 1.607 . S
N282 C283 1.351 . S
C283 C277 1.428 . S
C283 N282 1.351 . S
C283 C284 1.434 1_554 S
C284 C275 1.429 . S
C284 N281 1.350 . S
C284 C283 1.434 1_556 S
C285 C286 1.369 . S
C285 C287 1.419 1_554 S
C285 H289 0.930 . S
C286 C285 1.369 . S
C286 C295 1.429 . S
C287 C285 1.419 1_556 S
C287 C288 1.363 . S
C287 H290 0.929 . S
C288 C287 1.363 . S
C288 C294 1.428 . S
H289 C285 0.930 . S
H290 C287 0.929 . S
S291 N292 1.616 1_556 S
S291 N293 1.608 . S
N292 S291 1.616 1_554 S
N292 C295 1.350 . S
N293 S291 1.608 . S
N293 C294 1.351 . S
C294 C288 1.428 . S
C294 N293 1.351 . S
C294 C295 1.434 1_556 S
C295 C286 1.429 . S
C295 N292 1.350 . S
C295 C294 1.434 1_554 S
C296 C297 1.369 . S
C296 C298 1.419 . S
C296 H300 0.930 . S
C297 C296 1.369 . S
C297 C306 1.429 1_565 S
C298 C296 1.419 . S
C298 C299 1.363 1_565 S
C298 H301 0.929 . S
C299 C298 1.363 1_545 S
C299 C305 1.428 . S
H300 C296 0.930 . S
H301 C298 0.929 . S
S302 N303 1.613 . S
S302 N304 1.610 . S
N303 S302 1.613 . S
N303 C306 1.350 . S
N304 S302 1.610 . S
N304 C305 1.351 . S
C305 C299 1.428 . S
C305 N304 1.351 . S
C305 C306 1.434 . S
C306 C297 1.429 1_545 S
C306 N303 1.350 . S
C306 C305 1.434 . S
C307 C308 1.369 . S
C307 C309 1.419 . S
C307 H311 0.930 . S
C308 C307 1.369 . S
C308 C317 1.429 1_565 S
C309 C307 1.419 . S
C309 C310 1.363 1_565 S
C309 H312 0.929 . S
C310 C309 1.363 1_545 S
C310 C316 1.428 . S
H311 C307 0.930 . S
H312 C309 0.929 . S
S313 N314 1.613 . S
S313 N315 1.610 . S
N314 S313 1.613 . S
N314 C317 1.350 . S
N315 S313 1.610 . S
N315 C316 1.351 . S
C316 C310 1.428 . S
C316 N315 1.351 . S
C316 C317 1.434 . S
C317 C308 1.429 1_545 S
C317 N314 1.350 . S
C317 C316 1.434 . S
C318 C319 1.369 . S
C318 C320 1.419 . S
C318 H322 0.930 . S
C319 C318 1.369 . S
C319 C328 1.429 1_565 S
C320 C318 1.419 . S
C320 C321 1.363 1_565 S
C320 H323 0.929 . S
C321 C320 1.363 1_545 S
C321 C327 1.428 . S
H322 C318 0.930 . S
H323 C320 0.929 . S
S324 N325 1.613 . S
S324 N326 1.610 . S
N325 S324 1.613 . S
N325 C328 1.350 . S
N326 S324 1.610 . S
N326 C327 1.351 . S
C327 C321 1.428 . S
C327 N326 1.351 . S
C327 C328 1.434 . S
C328 C319 1.429 1_545 S
C328 N325 1.350 . S
C328 C327 1.434 . S
C329 C330 1.369 1_565 S
C329 C331 1.419 . S
C329 H333 0.930 . S
C330 C329 1.369 1_545 S
C330 C339 1.429 . S
C331 C329 1.419 . S
C331 C332 1.363 . S
C331 H334 0.929 . S
C332 C331 1.363 . S
C332 C338 1.428 1_565 S
H333 C329 0.930 . S
H334 C331 0.929 . S
S335 N336 1.613 . S
S335 N337 1.610 . S
N336 S335 1.613 . S
N336 C339 1.350 . S
N337 S335 1.610 . S
N337 C338 1.351 . S
C338 C332 1.428 1_545 S
C338 N337 1.351 . S
C338 C339 1.434 . S
C339 C330 1.429 . S
C339 N336 1.350 . S
C339 C338 1.434 . S
C340 C341 1.369 . S
C340 C342 1.419 1_655 S
C340 H344 0.930 . S
C341 C340 1.369 . S
C341 C350 1.429 . S
C342 C340 1.419 1_455 S
C342 C343 1.363 . S
C342 H345 0.929 . S
C343 C342 1.363 . S
C343 C349 1.428 . S
H344 C340 0.930 . S
H345 C342 0.929 . S
S346 N347 1.613 1_455 S
S346 N348 1.610 . S
N347 S346 1.613 1_655 S
N347 C350 1.350 . S
N348 S346 1.610 . S
N348 C349 1.351 . S
C349 C343 1.428 . S
C349 N348 1.351 . S
C349 C350 1.434 1_455 S
C350 C341 1.429 . S
C350 N347 1.350 . S
C350 C349 1.434 1_655 S
C351 C352 1.369 . S
C351 C353 1.419 1_455 S
C351 H355 0.930 . S
C352 C351 1.369 . S
C352 C361 1.429 . S
C353 C351 1.419 1_655 S
C353 C354 1.363 . S
C353 H356 0.929 . S
C354 C353 1.363 . S
C354 C360 1.428 . S
H355 C351 0.930 . S
H356 C353 0.929 . S
S357 N358 1.613 . S
S357 N359 1.610 1_455 S
N358 S357 1.613 . S
N358 C361 1.350 . S
N359 S357 1.610 1_655 S
N359 C360 1.351 . S
C360 C354 1.428 . S
C360 N359 1.351 . S
C360 C361 1.434 1_655 S
C361 C352 1.429 . S
C361 N358 1.350 . S
C361 C360 1.434 1_455 S
C362 C363 1.369 . S
C362 C364 1.419 1_655 S
C362 H366 0.930 . S
C363 C362 1.369 . S
C363 C372 1.429 . S
C364 C362 1.419 1_455 S
C364 C365 1.363 . S
C364 H367 0.929 . S
C365 C364 1.363 . S
C365 C371 1.428 . S
H366 C362 0.930 . S
H367 C364 0.929 . S
S368 N369 1.613 . S
S368 N370 1.610 1_655 S
N369 S368 1.613 . S
N369 C372 1.350 . S
N370 S368 1.610 1_455 S
N370 C371 1.351 . S
C371 C365 1.428 . S
C371 N370 1.351 . S
C371 C372 1.434 1_455 S
C372 C363 1.429 . S
C372 N369 1.350 . S
C372 C371 1.434 1_655 S
C373 C374 1.369 . S
C373 C375 1.419 1_455 S
C373 H377 0.930 . S
C374 C373 1.369 . S
C374 C383 1.429 . S
C375 C373 1.419 1_655 S
C375 C376 1.363 . S
C375 H378 0.929 . S
C376 C375 1.363 . S
C376 C382 1.428 . S
H377 C373 0.930 . S
H378 C375 0.929 . S
S379 N380 1.613 1_655 S
S379 N381 1.610 . S
N380 S379 1.613 1_455 S
N380 C383 1.350 . S
N381 S379 1.610 . S
N381 C382 1.351 . S
C382 C376 1.428 . S
C382 N381 1.351 . S
C382 C383 1.434 1_655 S
C383 C374 1.429 . S
C383 N380 1.350 . S
C383 C382 1.434 1_455 S
C384 C385 1.369 . S
C384 C386 1.419 . S
C384 H388 0.930 . S
C385 C384 1.369 . S
C385 C394 1.429 . S
C386 C384 1.419 . S
C386 C387 1.363 . S
C386 H389 0.929 . S
C387 C386 1.363 . S
C387 C393 1.428 . S
H388 C384 0.930 . S
H389 C386 0.929 . S
S390 N391 1.613 . S
S390 N392 1.610 . S
N391 S390 1.613 . S
N391 C394 1.350 . S
N392 S390 1.610 . S
N392 C393 1.351 . S
C393 C387 1.428 . S
C393 N392 1.351 . S
C393 C394 1.434 . S
C394 C385 1.429 . S
C394 N391 1.350 . S
C394 C393 1.434 . S
C395 C396 1.369 . S
C395 C397 1.419 . S
C395 H399 0.930 . S
C396 C395 1.369 . S
C396 C405 1.429 . S
C397 C395 1.419 . S
C397 C398 1.363 . S
C397 H400 0.929 . S
C398 C397 1.363 . S
C398 C404 1.428 . S
H399 C395 0.930 . S
H400 C397 0.929 . S
S401 N402 1.613 . S
S401 N403 1.610 . S
N402 S401 1.613 . S
N402 C405 1.350 . S
N403 S401 1.610 . S
N403 C404 1.351 . S
C404 C398 1.428 . S
C404 N403 1.351 . S
C404 C405 1.434 . S
C405 C396 1.429 . S
C405 N402 1.350 . S
C405 C404 1.434 . S
C406 C407 1.369 . S
C406 C408 1.419 . S
C406 H410 0.930 . S
C407 C406 1.369 . S
C407 C416 1.429 . S
C408 C406 1.419 . S
C408 C409 1.363 . S
C408 H411 0.929 . S
C409 C408 1.363 . S
C409 C415 1.428 . S
H410 C406 0.930 . S
H411 C408 0.929 . S
S412 N413 1.613 . S
S412 N414 1.610 . S
N413 S412 1.613 . S
N413 C416 1.350 . S
N414 S412 1.610 . S
N414 C415 1.351 . S
C415 C409 1.428 . S
C415 N414 1.351 . S
C415 C416 1.434 . S
C416 C407 1.429 . S
C416 N413 1.350 . S
C416 C415 1.434 . S
C417 C418 1.369 . S
C417 C419 1.419 . S
C417 H421 0.930 . S
C418 C417 1.369 . S
C418 C427 1.429 . S
C419 C417 1.419 . S
C419 C420 1.363 . S
C419 H422 0.929 . S
C420 C419 1.363 . S
C420 C426 1.428 . S
H421 C417 0.930 . S
H422 C419 0.929 . S
S423 N424 1.613 . S
S423 N425 1.610 . S
N424 S423 1.613 . S
N424 C427 1.350 . S
N425 S423 1.610 . S
N425 C426 1.351 . S
C426 C420 1.428 . S
C426 N425 1.351 . S
C426 C427 1.434 . S
C427 C418 1.429 . S
C427 N424 1.350 . S
C427 C426 1.434 . S
C428 C429 1.369 . S
C428 C430 1.419 . S
C428 H432 0.930 . S
C429 C428 1.369 . S
C429 C438 1.429 . S
C430 C428 1.419 . S
C430 C431 1.363 . S
C430 H433 0.929 . S
C431 C430 1.363 . S
C431 C437 1.428 . S
H432 C428 0.930 . S
H433 C430 0.929 . S
S434 N435 1.613 1_545 S
S434 N436 1.610 1_545 S
N435 S434 1.613 1_565 S
N435 C438 1.350 . S
N436 S434 1.610 1_565 S
N436 C437 1.351 . S
C437 C431 1.428 . S
C437 N436 1.351 . S
C437 C438 1.434 . S
C438 C429 1.429 . S
C438 N435 1.350 . S
C438 C437 1.434 . S
C439 C440 1.369 . S
C439 C441 1.419 . S
C439 H443 0.930 . S
C440 C439 1.369 . S
C440 C449 1.429 . S
C441 C439 1.419 . S
C441 C442 1.363 . S
C441 H444 0.929 . S
C442 C441 1.363 . S
C442 C448 1.428 . S
H443 C439 0.930 . S
H444 C441 0.929 . S
S445 N446 1.613 . S
S445 N447 1.610 . S
N446 S445 1.613 . S
N446 C449 1.350 . S
N447 S445 1.610 . S
N447 C448 1.351 . S
C448 C442 1.428 . S
C448 N447 1.351 . S
C448 C449 1.434 . S
C449 C440 1.429 . S
C449 N446 1.350 . S
C449 C448 1.434 . S
C450 C451 1.369 . S
C450 C452 1.419 . S
C450 H454 0.930 . S
C451 C450 1.369 . S
C451 C460 1.429 . S
C452 C450 1.419 . S
C452 C453 1.363 . S
C452 H455 0.929 . S
C453 C452 1.363 . S
C453 C459 1.428 . S
H454 C450 0.930 . S
H455 C452 0.929 . S
S456 N457 1.613 . S
S456 N458 1.610 . S
N457 S456 1.613 . S
N457 C460 1.350 . S
N458 S456 1.610 . S
N458 C459 1.351 . S
C459 C453 1.428 . S
C459 N458 1.351 . S
C459 C460 1.434 . S
C460 C451 1.429 . S
C460 N457 1.350 . S
C460 C459 1.434 . S
C461 C462 1.369 . S
C461 C463 1.419 . S
C461 H465 0.930 . S
C462 C461 1.369 . S
C462 C471 1.429 . S
C463 C461 1.419 . S
C463 C464 1.363 . S
C463 H466 0.929 . S
C464 C463 1.363 . S
C464 C470 1.428 . S
H465 C461 0.930 . S
H466 C463 0.929 . S
S467 N468 1.613 1_545 S
S467 N469 1.610 1_545 S
N468 S467 1.613 1_565 S
N468 C471 1.350 . S
N469 S467 1.610 1_565 S
N469 C470 1.352 . S
C470 C464 1.428 . S
C470 N469 1.352 . S
C470 C471 1.434 . S
C471 C462 1.429 . S
C471 N468 1.350 . S
C471 C470 1.434 . S
C472 C473 1.369 1_565 S
C472 C474 1.419 . S
C472 H476 0.930 . S
C473 C472 1.369 1_545 S
C473 C482 1.429 . S
C474 C472 1.419 . S
C474 C475 1.363 . S
C474 H477 0.929 . S
C475 C474 1.363 . S
C475 C481 1.428 1_565 S
H476 C472 0.930 . S
H477 C474 0.929 . S
S478 N479 1.613 . S
S478 N480 1.610 . S
N479 S478 1.613 . S
N479 C482 1.350 . S
N480 S478 1.610 . S
N480 C481 1.351 . S
C481 C475 1.428 1_545 S
C481 N480 1.351 . S
C481 C482 1.434 . S
C482 C473 1.429 . S
C482 N479 1.350 . S
C482 C481 1.434 . S
C483 C484 1.369 1_565 S
C483 C485 1.419 . S
C483 H487 0.930 . S
C484 C483 1.369 1_545 S
C484 C493 1.429 . S
C485 C483 1.419 . S
C485 C486 1.363 . S
C485 H488 0.929 . S
C486 C485 1.363 . S
C486 C492 1.428 1_565 S
H487 C483 0.930 . S
H488 C485 0.929 . S
S489 N490 1.613 . S
S489 N491 1.610 . S
N490 S489 1.613 . S
N490 C493 1.350 . S
N491 S489 1.610 . S
N491 C492 1.351 . S
C492 C486 1.428 1_545 S
C492 N491 1.351 . S
C492 C493 1.434 . S
C493 C484 1.429 . S
C493 N490 1.350 . S
C493 C492 1.434 . S
C494 C495 1.369 1_565 S
C494 C496 1.419 . S
C494 H498 0.930 . S
C495 C494 1.369 1_545 S
C495 C504 1.429 . S
C496 C494 1.419 . S
C496 C497 1.363 . S
C496 H499 0.929 . S
C497 C496 1.363 . S
C497 C503 1.428 1_565 S
H498 C494 0.930 . S
H499 C496 0.929 . S
S500 N501 1.613 . S
S500 N502 1.610 . S
N501 S500 1.613 . S
N501 C504 1.350 . S
N502 S500 1.610 . S
N502 C503 1.351 . S
C503 C497 1.428 1_545 S
C503 N502 1.351 . S
C503 C504 1.434 . S
C504 C495 1.429 . S
C504 N501 1.350 . S
C504 C503 1.434 . S
C505 C506 1.369 . S
C505 C507 1.419 1_565 S
C505 H509 0.930 . S
C506 C505 1.369 . S
C506 C515 1.429 . S
C507 C505 1.419 1_545 S
C507 C508 1.363 . S
C507 H510 0.929 . S
C508 C507 1.363 . S
C508 C514 1.429 . S
H509 C505 0.930 . S
H510 C507 0.929 . S
S511 N512 1.613 . S
S511 N513 1.610 . S
N512 S511 1.613 . S
N512 C515 1.350 . S
N513 S511 1.610 . S
N513 C514 1.351 1_565 S
C514 C508 1.429 . S
C514 N513 1.351 1_545 S
C514 C515 1.433 1_545 S
C515 C506 1.429 . S
C515 N512 1.350 . S
C515 C514 1.433 1_565 S
C516 C517 1.369 . S
C516 C518 1.419 . S
C516 H520 0.930 . S
C517 C516 1.369 . S
C517 C526 1.429 . S
C518 C516 1.419 . S
C518 C519 1.363 . S
C518 H521 0.929 . S
C519 C518 1.363 . S
C519 C525 1.428 . S
H520 C516 0.930 . S
H521 C518 0.929 . S
S522 N523 1.613 . S
S522 N524 1.610 . S
N523 S522 1.613 . S
N523 C526 1.350 . S
N524 S522 1.610 . S
N524 C525 1.351 . S
C525 C519 1.428 . S
C525 N524 1.351 . S
C525 C526 1.434 . S
C526 C517 1.429 . S
C526 N523 1.350 . S
C526 C525 1.434 . S
C527 C528 1.369 . S
C527 C529 1.419 . S
C527 H531 0.930 . S
C528 C527 1.369 . S
C528 C537 1.429 . S
C529 C527 1.419 . S
C529 C530 1.363 . S
C529 H532 0.929 . S
C530 C529 1.363 . S
C530 C536 1.428 . S
H531 C527 0.930 . S
H532 C529 0.929 . S
S533 N534 1.613 . S
S533 N535 1.610 . S
N534 S533 1.613 . S
N534 C537 1.350 . S
N535 S533 1.610 . S
N535 C536 1.351 . S
C536 C530 1.428 . S
C536 N535 1.351 . S
C536 C537 1.434 . S
C537 C528 1.429 . S
C537 N534 1.350 . S
C537 C536 1.434 . S
C538 C539 1.369 . S
C538 C540 1.419 . S
C538 H542 0.930 . S
C539 C538 1.369 . S
C539 C548 1.429 . S
C540 C538 1.419 . S
C540 C541 1.363 . S
C540 H543 0.929 . S
C541 C540 1.363 . S
C541 C547 1.428 . S
H542 C538 0.930 . S
H543 C540 0.929 . S
S544 N545 1.613 . S
S544 N546 1.610 . S
N545 S544 1.613 . S
N545 C548 1.350 . S
N546 S544 1.610 . S
N546 C547 1.351 . S
C547 C541 1.428 . S
C547 N546 1.351 . S
C547 C548 1.434 . S
C548 C539 1.429 . S
C548 N545 1.350 . S
C548 C547 1.434 . S
C549 C550 1.369 . S
C549 C551 1.419 . S
C549 H553 0.930 . S
C550 C549 1.369 . S
C550 C559 1.429 . S
C551 C549 1.419 . S
C551 C552 1.363 . S
C551 H554 0.929 . S
C552 C551 1.363 . S
C552 C558 1.428 . S
H553 C549 0.930 . S
H554 C551 0.929 . S
S555 N556 1.613 . S
S555 N557 1.610 . S
N556 S555 1.613 . S
N556 C559 1.350 . S
N557 S555 1.610 . S
N557 C558 1.351 . S
C558 C552 1.428 . S
C558 N557 1.351 . S
C558 C559 1.434 . S
C559 C550 1.429 . S
C559 N556 1.350 . S
C559 C558 1.434 . S
C209 C1 1.520 . S
C211 C66 1.511 . S
C220 C53 1.512 . S
C222 C14 1.520 . S
C231 C27 1.520 . S
C233 C92 1.511 . S
C242 C79 1.508 . S
C244 C40 1.521 . S
C253 C170 1.511 . S
C255 C105 1.521 . S
C264 C157 1.508 . S
C266 C118 1.521 . S
C275 C196 1.511 . S
C277 C131 1.520 . S
C286 C144 1.521 . S
C288 C183 1.508 . S
C297 C23 1.512 . S
C299 C10 1.506 . S
C308 C36 1.508 . S
C310 C49 1.508 . S
C319 C62 1.535 . S
C321 C75 1.535 . S
C330 C88 1.534 . S
C332 C101 1.534 . S
C341 C114 1.506 . S
C343 C127 1.510 . S
C352 C153 1.511 . S
C354 C140 1.506 . S
C363 C179 1.535 . S
C365 C166 1.535 . S
C374 C192 1.535 . S
C376 C205 1.535 . S
C385 C122 1.504 . S
C387 C5 1.499 . S
C396 C18 1.499 . S
C398 C109 1.501 . S
C407 C148 1.501 . S
C409 C31 1.500 . S
C418 C44 1.504 . S
C420 C135 1.498 . S
C429 C57 1.535 . S
C431 C174 1.536 . S
C440 C161 1.535 . S
C442 C70 1.536 . S
C451 C83 1.536 . S
C453 C200 1.535 . S
C462 C187 1.536 . S
C464 C96 1.535 . S
C473 C3 1.539 . S
C475 C29 1.540 . S
C484 C42 1.539 . S
C486 C16 1.540 . S
C495 C81 1.507 . S
C497 C55 1.501 . S
C506 C94 1.505 . S
C508 C68 1.502 . S
C517 C133 1.540 . S
C519 C107 1.539 . S
C528 C120 1.539 . S
C530 C146 1.540 . S
C539 C185 1.502 . S
C541 C159 1.503 . S
C550 C172 1.504 . S
C552 C198 1.503 . S
