# Generated by pormake.
# Topology lcs, (4)-cn, num edge types: 1
# Building blocks:
#     Node 0, Type 0, BuildingBlock: QUQFOY_clean_sbu_1, # of connection points: 4
#     Node 1, Type 0, BuildingBlock: QUQFOY_clean_sbu_1, # of connection points: 4
#     Node 2, Type 0, BuildingBlock: QUQFOY_clean_sbu_1, # of connection points: 4
#     Node 3, Type 0, BuildingBlock: QUQFOY_clean_sbu_1, # of connection points: 4
#     Node 4, Type 0, BuildingBlock: QUQFOY_clean_sbu_1, # of connection points: 4
#     Node 5, Type 0, BuildingBlock: QUQFOY_clean_sbu_1, # of connection points: 4
#     Node 6, Type 0, BuildingBlock: QUQFOY_clean_sbu_1, # of connection points: 4
#     Node 7, Type 0, BuildingBlock: QUQFOY_clean_sbu_1, # of connection points: 4
#     Node 8, Type 0, BuildingBlock: QUQFOY_clean_sbu_1, # of connection points: 4
#     Node 9, Type 0, BuildingBlock: QUQFOY_clean_sbu_1, # of connection points: 4
#     Node 10, Type 0, BuildingBlock: QUQFOY_clean_sbu_1, # of connection points: 4
#     Node 11, Type 0, BuildingBlock: QUQFOY_clean_sbu_1, # of connection points: 4
#     Node 12, Type 0, BuildingBlock: QUQFOY_clean_sbu_1, # of connection points: 4
#     Node 13, Type 0, BuildingBlock: QUQFOY_clean_sbu_1, # of connection points: 4
#     Node 14, Type 0, BuildingBlock: QUQFOY_clean_sbu_1, # of connection points: 4
#     Node 15, Type 0, BuildingBlock: QUQFOY_clean_sbu_1, # of connection points: 4
#     Node 16, Type 0, BuildingBlock: QUQFOY_clean_sbu_1, # of connection points: 4
#     Node 17, Type 0, BuildingBlock: QUQFOY_clean_sbu_1, # of connection points: 4
#     Node 18, Type 0, BuildingBlock: QUQFOY_clean_sbu_1, # of connection points: 4
#     Node 19, Type 0, BuildingBlock: QUQFOY_clean_sbu_1, # of connection points: 4
#     Node 20, Type 0, BuildingBlock: QUQFOY_clean_sbu_1, # of connection points: 4
#     Node 21, Type 0, BuildingBlock: QUQFOY_clean_sbu_1, # of connection points: 4
#     Node 22, Type 0, BuildingBlock: QUQFOY_clean_sbu_1, # of connection points: 4
#     Node 23, Type 0, BuildingBlock: QUQFOY_clean_sbu_1, # of connection points: 4
#     Edge 24, Type (0, 0), BuildingBlock: XUDNAN_clean_linker_2, # of connection points: 2
#     Edge 25, Type (0, 0), BuildingBlock: XUDNAN_clean_linker_2, # of connection points: 2
#     Edge 26, Type (0, 0), BuildingBlock: XUDNAN_clean_linker_2, # of connection points: 2
#     Edge 27, Type (0, 0), BuildingBlock: XUDNAN_clean_linker_2, # of connection points: 2
#     Edge 28, Type (0, 0), BuildingBlock: XUDNAN_clean_linker_2, # of connection points: 2
#     Edge 29, Type (0, 0), BuildingBlock: XUDNAN_clean_linker_2, # of connection points: 2
#     Edge 30, Type (0, 0), BuildingBlock: XUDNAN_clean_linker_2, # of connection points: 2
#     Edge 31, Type (0, 0), BuildingBlock: XUDNAN_clean_linker_2, # of connection points: 2
#     Edge 32, Type (0, 0), BuildingBlock: XUDNAN_clean_linker_2, # of connection points: 2
#     Edge 33, Type (0, 0), BuildingBlock: XUDNAN_clean_linker_2, # of connection points: 2
#     Edge 34, Type (0, 0), BuildingBlock: XUDNAN_clean_linker_2, # of connection points: 2
#     Edge 35, Type (0, 0), BuildingBlock: XUDNAN_clean_linker_2, # of connection points: 2
#     Edge 36, Type (0, 0), BuildingBlock: XUDNAN_clean_linker_2, # of connection points: 2
#     Edge 37, Type (0, 0), BuildingBlock: XUDNAN_clean_linker_2, # of connection points: 2
#     Edge 38, Type (0, 0), BuildingBlock: XUDNAN_clean_linker_2, # of connection points: 2
#     Edge 39, Type (0, 0), BuildingBlock: XUDNAN_clean_linker_2, # of connection points: 2
#     Edge 40, Type (0, 0), BuildingBlock: XUDNAN_clean_linker_2, # of connection points: 2
#     Edge 41, Type (0, 0), BuildingBlock: XUDNAN_clean_linker_2, # of connection points: 2
#     Edge 42, Type (0, 0), BuildingBlock: XUDNAN_clean_linker_2, # of connection points: 2
#     Edge 43, Type (0, 0), BuildingBlock: XUDNAN_clean_linker_2, # of connection points: 2
#     Edge 44, Type (0, 0), BuildingBlock: XUDNAN_clean_linker_2, # of connection points: 2
#     Edge 45, Type (0, 0), BuildingBlock: XUDNAN_clean_linker_2, # of connection points: 2
#     Edge 46, Type (0, 0), BuildingBlock: XUDNAN_clean_linker_2, # of connection points: 2
#     Edge 47, Type (0, 0), BuildingBlock: XUDNAN_clean_linker_2, # of connection points: 2
#     Edge 48, Type (0, 0), BuildingBlock: XUDNAN_clean_linker_2, # of connection points: 2
#     Edge 49, Type (0, 0), BuildingBlock: XUDNAN_clean_linker_2, # of connection points: 2
#     Edge 50, Type (0, 0), BuildingBlock: XUDNAN_clean_linker_2, # of connection points: 2
#     Edge 51, Type (0, 0), BuildingBlock: XUDNAN_clean_linker_2, # of connection points: 2
#     Edge 52, Type (0, 0), BuildingBlock: XUDNAN_clean_linker_2, # of connection points: 2
#     Edge 53, Type (0, 0), BuildingBlock: XUDNAN_clean_linker_2, # of connection points: 2
#     Edge 54, Type (0, 0), BuildingBlock: XUDNAN_clean_linker_2, # of connection points: 2
#     Edge 55, Type (0, 0), BuildingBlock: XUDNAN_clean_linker_2, # of connection points: 2
#     Edge 56, Type (0, 0), BuildingBlock: XUDNAN_clean_linker_2, # of connection points: 2
#     Edge 57, Type (0, 0), BuildingBlock: XUDNAN_clean_linker_2, # of connection points: 2
#     Edge 58, Type (0, 0), BuildingBlock: XUDNAN_clean_linker_2, # of connection points: 2
#     Edge 59, Type (0, 0), BuildingBlock: XUDNAN_clean_linker_2, # of connection points: 2
#     Edge 60, Type (0, 0), BuildingBlock: XUDNAN_clean_linker_2, # of connection points: 2
#     Edge 61, Type (0, 0), BuildingBlock: XUDNAN_clean_linker_2, # of connection points: 2
#     Edge 62, Type (0, 0), BuildingBlock: XUDNAN_clean_linker_2, # of connection points: 2
#     Edge 63, Type (0, 0), BuildingBlock: XUDNAN_clean_linker_2, # of connection points: 2
#     Edge 64, Type (0, 0), BuildingBlock: XUDNAN_clean_linker_2, # of connection points: 2
#     Edge 65, Type (0, 0), BuildingBlock: XUDNAN_clean_linker_2, # of connection points: 2
#     Edge 66, Type (0, 0), BuildingBlock: XUDNAN_clean_linker_2, # of connection points: 2
#     Edge 67, Type (0, 0), BuildingBlock: XUDNAN_clean_linker_2, # of connection points: 2
#     Edge 68, Type (0, 0), BuildingBlock: XUDNAN_clean_linker_2, # of connection points: 2
#     Edge 69, Type (0, 0), BuildingBlock: XUDNAN_clean_linker_2, # of connection points: 2
#     Edge 70, Type (0, 0), BuildingBlock: XUDNAN_clean_linker_2, # of connection points: 2
#     Edge 71, Type (0, 0), BuildingBlock: XUDNAN_clean_linker_2, # of connection points: 2
# Relax obj value: 0.057
# Max RMSD: 0.117
# Mean RMSD: 0.113
data_MOF--net-lcs--node1-QUQFOY_clean_sbu_1--edge1-XUDNAN_clean_linker_2
_symmetry_space_group_name_H-M    P1
_symmetry_Int_Tables_number       1
_symmetry_cell_setting            triclinic
loop_
_symmetry_equiv_pos_as_xyz
'x, y, z'
_cell_length_a     50.89766
_cell_length_b     51.04611
_cell_length_c     51.057409
_cell_angle_alpha  94.569045
_cell_angle_beta   94.503025
_cell_angle_gamma 94.53146
loop_
_atom_site_label
_atom_site_type_symbol
_atom_site_fract_x
_atom_site_fract_y
_atom_site_fract_z
_atom_type_partial_charge
O0 O 0.0648 0.26729 0.39882 0.0
Cd1 Cd 0.03873 0.27293 0.36714 0.0
Cd2 Cd 1.00215 0.26309 0.40402 0.0
O3 O 0.03644 0.26403 0.42933 0.0
O4 O 0.06177 0.28584 0.34008 0.0
O5 O 0.0316 0.30945 0.3567 0.0
C6 C 0.04996 0.30724 0.34077 0.0
C7 C 0.96598 0.28644 0.41495 0.0
C8 C 0.06002 0.2643 0.42252 0.0
C9 C 1.0023 0.2232 0.35709 0.0
O10 O 0.99303 0.22908 0.37901 0.0
O11 O 0.01961 0.23876 0.34835 0.0
O12 O 0.97144 0.26553 0.42617 0.0
O13 O 0.98171 0.29473 0.39811 0.0
O14 O 0.04894 0.7298 0.63607 0.0
Cd15 Cd 0.01836 0.74411 0.65567 0.0
Cd16 Cd 0.01716 0.7729 0.61014 0.0
O17 O 0.04719 0.7498 0.59926 0.0
O18 O 0.01465 0.71952 0.68426 0.0
O19 O 0.98233 0.72405 0.6539 0.0
C20 C 0.99079 0.71281 0.67436 0.0
C21 C 0.98045 0.77996 0.58166 0.0
C22 C 0.0578 0.73388 0.614 0.0
C23 C 0.02845 0.80342 0.66378 0.0
O24 O 0.02727 0.80362 0.63883 0.0
O25 O 0.02463 0.78185 0.67439 0.0
O26 O 1.00385 0.79027 0.57858 0.0
O27 O 0.97806 0.76418 0.60008 0.0
O28 O 0.56436 0.76851 0.88393 0.0
Cd29 Cd 0.53231 0.77813 0.86061 0.0
Cd30 Cd 0.50749 0.76081 0.9053 0.0
O31 O 0.54651 0.75907 0.92048 0.0
O32 O 0.55002 0.79002 0.82953 0.0
O33 O 0.52757 0.8163 0.85382 0.0
C34 C 0.54166 0.8129 0.83409 0.0
C35 C 0.47514 0.77791 0.93073 0.0
C36 C 0.56666 0.76147 0.90727 0.0
C37 C 0.49519 0.72848 0.85309 0.0
O38 O 0.49303 0.73021 0.87778 0.0
O39 O 0.50836 0.74643 0.84258 0.0
O40 O 0.4852 0.75618 0.93538 0.0
O41 O 0.48432 0.79084 0.9122 0.0
O42 O 0.55713 0.22699 0.1396 0.0
Cd43 Cd 0.52644 0.2403 0.16009 0.0
Cd44 Cd 0.52431 0.26751 0.11318 0.0
O45 O 0.55242 0.24315 0.10084 0.0
O46 O 0.53104 0.21984 0.1917 0.0
O47 O 0.49466 0.21481 0.1648 0.0
C48 C 0.50802 0.20782 0.18525 0.0
C49 C 0.48577 0.27466 0.08738 0.0
C50 C 0.56441 0.22902 0.1165 0.0
C51 C 0.5367 0.29952 0.16526 0.0
O52 O 0.53807 0.29837 0.14047 0.0
O53 O 0.52974 0.27906 0.17657 0.0
O54 O 0.50882 0.28413 0.08205 0.0
O55 O 0.48464 0.25981 0.1067 0.0
O56 O 0.04993 0.71619 0.13335 0.0
Cd57 Cd 0.03459 0.74364 0.11044 0.0
Cd58 Cd 0.01112 0.75292 0.16199 0.0
O59 O 0.03444 0.72294 0.17239 0.0
O60 O 0.05399 0.73769 0.07821 0.0
O61 O 0.05853 0.77544 0.10298 0.0
C62 C 0.06545 0.76115 0.08308 0.0
C63 C 1.00541 0.78936 0.19132 0.0
C64 C 0.04848 0.7104 0.15697 0.0
C65 C 0.9752 0.73896 0.11084 0.0
O66 O 0.97824 0.74376 0.13574 0.0
O67 O 0.9949 0.73827 0.09702 0.0
O68 O 0.99549 0.76599 0.19476 0.0
O69 O 0.02026 0.79186 0.17211 0.0
O70 O 0.51576 0.71209 0.38817 0.0
Cd71 Cd 0.50808 0.74165 0.41581 0.0
Cd72 Cd 0.50515 0.77087 0.3699 0.0
O73 O 0.5059 0.73262 0.35257 0.0
O74 O 0.49516 0.7244 0.44674 0.0
O75 O 0.47018 0.74778 0.42181 0.0
C76 C 0.47253 0.73343 0.44148 0.0
C77 C 0.4864 0.80229 0.34401 0.0
C78 C 0.51255 0.71211 0.36323 0.0
C79 C 0.54988 0.78514 0.41457 0.0
O80 O 0.53907 0.78766 0.3917 0.0
O81 O 0.53993 0.76841 0.42895 0.0
O82 O 0.50734 0.79136 0.33826 0.0
O83 O 0.47498 0.79461 0.36409 0.0
O84 O 0.55156 0.21843 0.63743 0.0
Cd85 Cd 0.53828 0.24281 0.60954 0.0
Cd86 Cd 0.50865 0.25961 0.64939 0.0
O87 O 0.52732 0.23156 0.66923 0.0
O88 O 0.56551 0.24569 0.58334 0.0
O89 O 0.55441 0.27979 0.60845 0.0
C90 C 0.56843 0.27069 0.5903 0.0
C91 C 0.50688 0.3025 0.66844 0.0
C92 C 0.54411 0.21662 0.66048 0.0
C93 C 0.47913 0.23593 0.59842 0.0
O94 O 0.47798 0.24635 0.6217 0.0
O95 O 0.5014 0.23257 0.58952 0.0
O96 O 0.49249 0.28295 0.67585 0.0
O97 O 0.52316 0.29748 0.65087 0.0
O98 O 0.01788 0.22189 0.89099 0.0
Cd99 Cd 1.00965 0.25379 0.91544 0.0
Cd100 Cd 0.01546 0.27713 0.86665 0.0
O101 O 0.01687 0.23786 0.85195 0.0
O102 O 0.99762 0.23762 0.94737 0.0
O103 O 0.97148 0.25916 0.92185 0.0
C104 C 0.97458 0.24564 0.94204 0.0
C105 C 0.99769 0.30952 0.8415 0.0
C106 C 0.01953 0.21867 0.86622 0.0
C107 C 0.05565 0.29332 0.91443 0.0
O108 O 0.04838 0.29351 0.89006 0.0
O109 O 0.04206 0.27978 0.92922 0.0
O110 O 0.0183 0.29811 0.83536 0.0
O111 O 0.98562 0.30112 0.86094 0.0
O112 O 0.39128 0.06129 0.26147 0.0
Cd113 Cd 0.36106 0.03423 0.26876 0.0
Cd114 Cd 0.40119 0.99854 0.25812 0.0
O115 O 0.42346 0.03468 0.25865 0.0
O116 O 0.33307 0.05623 0.28138 0.0
O117 O 0.352 0.02809 0.30585 0.0
C118 C 0.33497 0.04537 0.30327 0.0
C119 C 0.42216 0.96213 0.27307 0.0
C120 C 0.41532 0.05765 0.25848 0.0
C121 C 0.35122 0.99589 0.22057 0.0
O122 O 0.37406 0.98821 0.2258 0.0
O123 O 0.34207 0.01302 0.23597 0.0
O124 O 0.42779 0.97248 0.25182 0.0
O125 O 0.40503 0.97301 0.28674 0.0
O126 O 0.23003 0.13788 0.5603 0.0
Cd127 Cd 0.24141 0.16546 0.53491 0.0
Cd128 Cd 0.2618 0.12039 0.51062 0.0
O129 O 0.24514 0.10237 0.54112 0.0
O130 O 0.21893 0.19523 0.54188 0.0
O131 O 0.21682 0.17161 0.50342 0.0
C132 C 0.20821 0.19036 0.51807 0.0
C133 C 0.26051 0.09958 0.46798 0.0
C134 C 0.23337 0.11341 0.55958 0.0
C135 C 0.29978 0.16835 0.53031 0.0
O136 O 0.29572 0.145 0.51944 0.0
O137 O 0.28076 0.18067 0.53835 0.0
O138 O 0.27468 0.09168 0.48736 0.0
O139 O 0.24545 0.11823 0.47318 0.0
O140 O 0.13401 0.04953 0.71405 0.0
Cd141 Cd 0.10612 0.03791 0.73906 0.0
Cd142 Cd 0.14733 0.01148 0.76034 0.0
O143 O 0.16635 0.02725 0.72988 0.0
O144 O 0.08076 0.06584 0.74333 0.0
O145 O 0.10768 0.05461 0.77605 0.0
C146 C 0.08947 0.06908 0.76792 0.0
C147 C 0.16929 0.00956 0.80212 0.0
C148 C 0.15731 0.0423 0.71324 0.0
C149 C 0.09587 0.97973 0.73882 0.0
O150 O 0.11872 0.98071 0.75096 0.0
O151 O 0.0866 1.00047 0.731 0.0
O152 O 0.17477 0.99473 0.78201 0.0
O153 O 0.15237 0.02672 0.79821 0.0
O154 O 0.21314 0.87443 1.00451 0.0
Cd155 Cd 0.24017 0.9046 0.99708 0.0
Cd156 Cd 0.27634 0.86473 0.01056 0.0
O157 O 0.23992 0.84271 0.00971 0.0
O158 O 0.21752 0.93234 0.98515 0.0
O159 O 0.24557 0.91422 0.95992 0.0
C160 C 0.22811 0.93096 0.96307 0.0
C161 C 0.31317 0.84329 0.99704 0.0
C162 C 0.2168 0.85071 0.00865 0.0
C163 C 0.27783 0.91581 0.0461 0.0
O164 O 0.28581 0.89296 0.0421 0.0
O165 O 0.26099 0.92418 0.02981 0.0
O166 O 0.30234 0.83836 0.01825 0.0
O167 O 0.30263 0.86004 0.98269 0.0
O168 O 0.27011 0.3897 0.06497 0.0
Cd169 Cd 0.27574 0.36171 0.03493 0.0
Cd170 Cd 0.27953 0.40495 0.00641 0.0
O171 O 0.28018 0.42479 0.04377 0.0
O172 O 0.29674 0.33309 0.04848 0.0
O173 O 0.31155 0.3617 0.02151 0.0
C174 C 0.3157 0.34205 0.03532 0.0
C175 C 0.30587 0.41998 0.97378 0.0
C176 C 0.27386 0.41461 0.06466 0.0
C177 C 0.23229 0.36343 0.99368 0.0
O178 O 0.24381 0.3859 0.99072 0.0
O179 O 0.24242 0.34864 0.00995 0.0
O180 O 0.28622 0.43241 0.98103 0.0
O181 O 0.3116 0.39981 0.98613 0.0
O182 O 0.7327 0.13968 0.05257 0.0
Cd183 Cd 0.76036 0.11733 0.03625 0.0
Cd184 Cd 0.76426 0.16229 0.00832 0.0
O185 O 0.73507 0.17564 0.0312 0.0
O186 O 0.76246 0.08831 0.06047 0.0
O187 O 0.79678 0.11586 0.05458 0.0
C188 C 0.78706 0.09614 0.06614 0.0
C189 C 0.80666 0.18334 0.00792 0.0
C190 C 0.72484 0.16213 0.04832 0.0
C191 C 0.74891 0.11015 0.97687 0.0
O192 O 0.75255 0.13507 0.97676 0.0
O193 O 0.75146 0.09924 0.9984 0.0
O194 O 0.78661 0.1915 0.99477 0.0
O195 O 0.8023 0.16409 0.02246 0.0
O196 O 0.14915 0.55268 0.22812 0.0
Cd197 Cd 0.17264 0.52608 0.2444 0.0
Cd198 Cd 0.12341 0.514 0.26524 0.0
O199 O 0.11002 0.54327 0.24268 0.0
O200 O 0.20524 0.53091 0.22527 0.0
O201 O 0.17998 0.49343 0.22175 0.0
C202 C 0.20029 0.5071 0.2147 0.0
C203 C 0.10354 0.47118 0.26433 0.0
C204 C 0.12496 0.55696 0.22912 0.0
C205 C 0.17133 0.53151 0.30335 0.0
O206 O 0.14661 0.52516 0.29967 0.0
O207 O 0.18561 0.53274 0.28407 0.0
O208 O 0.0934 0.49083 0.27608 0.0
O209 O 0.12389 0.47621 0.25131 0.0
O210 O 0.76409 0.88878 0.55779 0.0
Cd211 Cd 0.77187 0.86659 0.52421 0.0
Cd212 Cd 0.7657 0.91392 0.50308 0.0
O213 O 0.7645 0.92804 0.54248 0.0
O214 O 0.79307 0.83747 0.53572 0.0
O215 O 0.80853 0.86886 0.51208 0.0
C216 C 0.81249 0.84809 0.52431 0.0
C217 C 0.78488 0.93935 0.47176 0.0
C218 C 0.76225 0.91349 0.56148 0.0
C219 C 0.72511 0.86679 0.4863 0.0
O220 O 0.73246 0.89117 0.48631 0.0
O221 O 0.73889 0.85184 0.49947 0.0
O222 O 0.76418 0.94581 0.48284 0.0
O223 O 0.79605 0.91921 0.47973 0.0
O224 O 0.8941 1.00516 0.21732 0.0
Cd225 Cd 0.91646 0.99625 0.25032 0.0
Cd226 Cd 0.87402 0.0155 0.27388 0.0
O227 O 0.85808 0.01671 0.23503 0.0
O228 O 0.94353 0.97401 0.23586 0.0
O229 O 0.91486 0.95967 0.26287 0.0
C230 C 0.93422 0.95514 0.24869 0.0
C231 C 0.84936 1.00088 0.3079 0.0
C232 C 0.87106 0.01313 0.21487 0.0
C233 C 0.92745 0.04685 0.28424 0.0
O234 O 0.90278 0.0455 0.28693 0.0
O235 O 0.93749 0.02834 0.27137 0.0
O236 O 0.84508 0.02232 0.29715 0.0
O237 O 0.86676 0.98663 0.29825 0.0
O238 O 0.22545 0.64351 0.55249 0.0
Cd239 Cd 0.25148 0.61811 0.53815 0.0
Cd240 Cd 0.25783 0.66264 0.50762 0.0
O241 O 0.22934 0.67856 0.52992 0.0
O242 O 0.24384 0.58835 0.56037 0.0
O243 O 0.28326 0.60984 0.56183 0.0
C244 C 0.26789 0.59179 0.57057 0.0
C245 C 0.30134 0.68082 0.50703 0.0
C246 C 0.21863 0.66614 0.54753 0.0
C247 C 0.24069 0.60984 0.47842 0.0
O248 O 0.24491 0.63456 0.47709 0.0
O249 O 0.2431 0.5999 0.50047 0.0
O250 O 0.28211 0.68982 0.49337 0.0
O251 O 0.29556 0.66241 0.52218 0.0
O252 O 0.38199 0.51039 0.71426 0.0
Cd253 Cd 0.4126 0.50338 0.74085 0.0
Cd254 Cd 0.37536 0.51247 0.7759 0.0
O255 O 0.35046 0.51258 0.74155 0.0
O256 O 0.44 0.49055 0.71827 0.0
O257 O 0.42156 0.46626 0.74688 0.0
C258 C 0.43808 0.46863 0.72908 0.0
C259 C 0.36458 0.48722 0.81055 0.0
C260 C 0.35805 0.51321 0.7184 0.0
C261 C 0.42253 0.55217 0.77817 0.0
O262 O 0.40007 0.54645 0.78648 0.0
O263 O 0.43173 0.53668 0.76114 0.0
O264 O 0.353 0.5082 0.80606 0.0
O265 O 0.3817 0.47994 0.79464 0.0
O266 O 0.64636 0.06518 0.72864 0.0
Cd267 Cd 0.6735 0.03974 0.741 0.0
Cd268 Cd 0.63104 0.01779 0.76497 0.0
O269 O 0.61304 0.04883 0.74932 0.0
O270 O 0.69986 0.03535 0.71412 0.0
O271 O 0.67187 1.00284 0.72408 0.0
C272 C 0.6908 0.01086 0.7104 0.0
C273 C 0.60749 0.97649 0.76506 0.0
C274 C 0.62273 0.06582 0.73498 0.0
C275 C 0.68144 0.03835 0.79909 0.0
O276 O 0.65861 0.02601 0.79683 0.0
O277 O 0.69154 0.047 0.7791 0.0
O278 O 0.60242 0.99642 0.78036 0.0
O279 O 0.62515 0.98031 0.74861 0.0
O280 O 0.72386 0.63162 0.04682 0.0
Cd281 Cd 0.74153 0.65485 0.02091 0.0
Cd282 Cd 0.7722 0.61044 0.01832 0.0
O283 O 0.74748 0.59711 0.04614 0.0
O284 O 0.71679 0.68333 0.01836 0.0
O285 O 0.72527 0.65729 0.98391 0.0
C286 C 0.71273 0.67639 0.99349 0.0
C287 C 0.78126 0.58379 0.98098 0.0
C288 C 0.72887 0.60954 0.05504 0.0
C289 C 0.80031 0.66424 0.03599 0.0
O290 O 0.80184 0.6396 0.03129 0.0
O291 O 0.77822 0.67414 0.03301 0.0
O292 O 0.791 0.58003 1.00434 0.0
O293 O 0.76516 0.60202 0.97885 0.0
O294 O 0.88125 0.55832 0.7588 0.0
Cd295 Cd 0.86104 0.52463 0.76904 0.0
Cd296 Cd 0.90915 0.5054 0.76182 0.0
O297 O 0.9215 0.54506 0.75845 0.0
O298 O 0.83261 0.53587 0.79143 0.0
O299 O 0.86595 0.51412 0.80609 0.0
C300 C 0.84488 0.5257 0.81075 0.0
C301 C 0.93588 0.47488 0.78069 0.0
C302 C 0.90569 0.56305 0.75576 0.0
C303 C 0.86101 0.48547 0.72355 0.0
O304 O 0.88573 0.48681 0.72998 0.0
O305 O 0.84589 0.49834 0.73743 0.0
O306 O 0.94154 0.4858 0.75971 0.0
O307 O 0.91612 0.48295 0.79253 0.0
O308 O 0.71618 0.38974 0.50788 0.0
Cd309 Cd 0.74943 0.41312 0.50119 0.0
Cd310 Cd 0.7708 0.36582 0.50435 0.0
O311 O 0.73179 0.35052 0.50611 0.0
O312 O 0.73761 0.44314 0.48118 0.0
O313 O 0.76172 0.41255 0.46486 0.0
C314 C 0.74928 0.4333 0.46156 0.0
C315 C 0.80142 0.34938 0.47651 0.0
C316 C 0.71267 0.36491 0.50904 0.0
C317 C 0.78787 0.41021 0.54731 0.0
O318 O 0.78815 0.38621 0.53854 0.0
O319 O 0.77444 0.42584 0.53465 0.0
O320 O 0.79471 0.33712 0.49645 0.0
O321 O 0.7893 0.36989 0.47134 0.0
O322 O 0.63644 0.54579 0.22233 0.0
Cd323 Cd 0.61668 0.53227 0.25341 0.0
Cd324 Cd 0.66452 0.50628 0.25557 0.0
O325 O 0.67583 0.53066 0.22723 0.0
O326 O 0.58405 0.55149 0.24925 0.0
O327 O 0.61155 0.5577 0.28509 0.0
C328 C 0.59036 0.5637 0.27215 0.0
C329 C 0.69173 0.49962 0.29328 0.0
C330 C 0.65967 0.54416 0.21504 0.0
C331 C 0.61297 0.47304 0.24358 0.0
O332 O 0.63785 0.47476 0.24222 0.0
O333 O 0.60113 0.4932 0.25038 0.0
O334 O 0.69654 0.49029 0.27008 0.0
O335 O 0.67206 0.51404 0.29502 0.0
H336 H 0.06769 0.45452 0.29826 0.0
H337 H 0.1187 0.42561 0.24014 0.0
H338 H 0.10768 0.38005 0.25126 0.0
H339 H 0.08585 0.41306 0.34619 0.0
H340 H 0.0535 0.40773 0.35786 0.0
H341 H 0.06251 0.43767 0.34314 0.0
H342 H 0.02173 0.42849 0.30904 0.0
H343 H 0.01241 0.3986 0.32383 0.0
H344 H 0.01689 0.39744 0.2891 0.0
H345 H 0.09508 0.33851 0.27187 0.0
H346 H 0.08041 0.30342 0.29926 0.0
H347 H 0.03727 0.35895 0.34415 0.0
C348 C 0.076 0.43855 0.28734 0.0
C349 C 0.09392 0.44365 0.26813 0.0
C350 C 0.1048 0.42221 0.25476 0.0
C351 C 0.09866 0.39626 0.26097 0.0
C352 C 0.08154 0.39202 0.28053 0.0
C353 C 0.07016 0.41253 0.29338 0.0
C354 C 0.05381 0.40282 0.31486 0.0
C355 C 0.06457 0.41611 0.34212 0.0
C356 C 0.02447 0.40709 0.30884 0.0
C357 C 0.05824 0.37373 0.31247 0.0
C358 C 0.0742 0.36794 0.29245 0.0
C359 C 0.08229 0.34274 0.28735 0.0
C360 C 0.07392 0.32296 0.30312 0.0
C361 C 0.05757 0.32837 0.32379 0.0
C362 C 0.04948 0.3541 0.32831 0.0
H363 H 0.92783 0.77129 0.59037 0.0
H364 H 0.98026 0.80801 0.53825 0.0
H365 H 0.94233 0.82669 0.51567 0.0
H366 H 0.86974 0.75648 0.54126 0.0
H367 H 0.8467 0.7641 0.56525 0.0
H368 H 0.87748 0.75117 0.5754 0.0
H369 H 0.88871 0.79139 0.60981 0.0
H370 H 0.8581 0.80452 0.59967 0.0
H371 H 0.88901 0.82423 0.59913 0.0
H372 H 0.89962 0.84522 0.50171 0.0
H373 H 0.85492 0.86085 0.49647 0.0
H374 H 0.82993 0.81184 0.55718 0.0
C375 C 0.93123 0.78269 0.57377 0.0
C376 C 0.95706 0.78801 0.56598 0.0
C377 C 0.96069 0.80353 0.54452 0.0
C378 C 0.93924 0.81425 0.53154 0.0
C379 C 0.91417 0.80922 0.54013 0.0
C380 C 0.91 0.79363 0.56061 0.0
C381 C 0.88135 0.79265 0.56704 0.0
C382 C 0.86803 0.76442 0.56193 0.0
C383 C 0.87918 0.80387 0.5956 0.0
C384 C 0.87023 0.81053 0.54736 0.0
C385 C 0.88946 0.8198 0.53194 0.0
C386 C 0.8843 0.83778 0.5134 0.0
C387 C 0.85885 0.84661 0.51061 0.0
C388 C 0.83883 0.83743 0.52622 0.0
C389 C 0.84466 0.81894 0.54464 0.0
H390 H 0.41692 0.58584 0.82191 0.0
H391 H 0.46043 0.57746 0.75229 0.0
H392 H 0.48183 0.62242 0.76297 0.0
H393 H 0.40586 0.65401 0.81927 0.0
H394 H 0.41105 0.66203 0.85442 0.0
H395 H 0.39875 0.62911 0.84146 0.0
H396 H 0.43744 0.60997 0.86761 0.0
H397 H 0.44967 0.6428 0.88091 0.0
H398 H 0.47101 0.62214 0.86366 0.0
H399 H 0.49676 0.6687 0.77955 0.0
H400 H 0.50937 0.71168 0.80457 0.0
H401 H 0.45842 0.68966 0.86506 0.0
C402 C 0.43106 0.59344 0.80902 0.0
C403 C 0.43695 0.57818 0.78623 0.0
C404 C 0.4557 0.58873 0.76993 0.0
C405 C 0.46783 0.61432 0.77571 0.0
C406 C 0.46127 0.629 0.79803 0.0
C407 C 0.44374 0.61885 0.81474 0.0
C408 C 0.44102 0.63856 0.838 0.0
C409 C 0.41247 0.64639 0.83829 0.0
C410 C 0.45035 0.62772 0.86409 0.0
C411 C 0.45969 0.66136 0.83163 0.0
C412 C 0.47081 0.65551 0.80827 0.0
C413 C 0.48833 0.67349 0.79797 0.0
C414 C 0.49523 0.69793 0.81227 0.0
C415 C 0.48493 0.70403 0.83681 0.0
C416 C 0.46666 0.68555 0.8464 0.0
H417 H 0.59422 0.23649 0.07392 0.0
H418 H 0.58822 0.19141 0.14222 0.0
H419 H 0.62899 0.17117 0.13267 0.0
H420 H 0.61983 0.18498 0.03186 0.0
H421 H 0.64198 0.20757 0.01694 0.0
H422 H 0.61182 0.21841 0.02865 0.0
H423 H 0.63884 0.25665 0.05777 0.0
H424 H 0.66911 0.24576 0.04636 0.0
H425 H 0.66507 0.24936 0.08119 0.0
H426 H 0.67021 0.15615 0.1169 0.0
H427 H 0.70911 0.14508 0.09409 0.0
H428 H 0.69016 0.19953 0.03558 0.0
C429 C 0.60136 0.22216 0.08667 0.0
C430 C 0.5879 0.2156 0.10887 0.0
C431 C 0.59808 0.19689 0.12517 0.0
C432 C 0.62131 0.18526 0.11995 0.0
C433 C 0.63432 0.19249 0.09833 0.0
C434 C 0.62475 0.21033 0.08179 0.0
C435 C 0.64292 0.21446 0.05991 0.0
C436 C 0.62826 0.20583 0.03273 0.0
C437 C 0.65468 0.24327 0.06141 0.0
C438 C 0.66407 0.1961 0.06682 0.0
C439 C 0.65859 0.18375 0.08913 0.0
C440 C 0.67473 0.16565 0.09939 0.0
C441 C 0.69684 0.15951 0.08625 0.0
C442 C 0.7028 0.17142 0.06303 0.0
C443 C 0.68633 0.1903 0.05342 0.0
H444 H 0.08292 0.58697 0.23883 0.0
H445 H 0.14494 0.57603 0.18619 0.0
H446 H 0.13208 0.61403 0.16307 0.0
H447 H 0.03437 0.60818 0.18962 0.0
H448 H 0.02244 0.63247 0.21231 0.0
H449 H 0.03548 0.60344 0.2243 0.0
H450 H 0.06885 0.633 0.25705 0.0
H451 H 0.0561 0.66211 0.24497 0.0
H452 H 0.09086 0.65768 0.24474 0.0
H453 H 0.11416 0.6531 0.14621 0.0
H454 H 0.09063 0.69137 0.13499 0.0
H455 H 0.04002 0.67934 0.19844 0.0
C456 C 0.09347 0.59239 0.22219 0.0
C457 C 0.11494 0.57846 0.21429 0.0
C458 C 0.12852 0.5864 0.19268 0.0
C459 C 0.12138 0.60799 0.17938 0.0
C460 C 0.10063 0.62164 0.18794 0.0
C461 C 0.08671 0.61424 0.20871 0.0
C462 C 0.0656 0.63306 0.21401 0.0
C463 C 0.03783 0.61841 0.2098 0.0
C464 C 0.07067 0.6473 0.24185 0.0
C465 C 0.06998 0.65206 0.19297 0.0
C466 C 0.09031 0.6449 0.17823 0.0
C467 C 0.09815 0.65893 0.15753 0.0
C468 C 0.08462 0.68068 0.15133 0.0
C469 C 0.06344 0.68843 0.16579 0.0
C470 C 0.05625 0.67405 0.18716 0.0
H471 H 0.58807 0.7765 0.45391 0.0
H472 H 0.56856 0.83021 0.39484 0.0
H473 H 0.61151 0.85571 0.40626 0.0
H474 H 0.62352 0.826 0.50223 0.0
H475 H 0.64827 0.80458 0.51225 0.0
H476 H 0.61546 0.79082 0.50017 0.0
H477 H 0.63532 0.76087 0.46481 0.0
H478 H 0.66817 0.77475 0.4766 0.0
H479 H 0.65661 0.77559 0.44241 0.0
H480 H 0.65611 0.87511 0.423 0.0
H481 H 0.70007 0.88869 0.44563 0.0
H482 H 0.69244 0.82243 0.49367 0.0
C483 C 0.59273 0.79383 0.44365 0.0
C484 C 0.57488 0.80137 0.42349 0.0
C485 C 0.58187 0.82398 0.41029 0.0
C486 C 0.60626 0.83861 0.41661 0.0
C487 C 0.62359 0.83039 0.43613 0.0
C488 C 0.61723 0.80865 0.44959 0.0
C489 C 0.63986 0.80407 0.46947 0.0
C490 C 0.63126 0.80652 0.4977 0.0
C491 C 0.65062 0.77722 0.46292 0.0
C492 C 0.65982 0.82667 0.46502 0.0
C493 C 0.64987 0.84153 0.44566 0.0
C494 C 0.66416 0.86367 0.4382 0.0
C495 C 0.68914 0.8712 0.45119 0.0
C496 C 0.69975 0.85661 0.47138 0.0
C497 C 0.68499 0.8338 0.47811 0.0
H498 H 0.47158 0.31919 0.70281 0.0
H499 H 0.53373 0.34792 0.65611 0.0
H500 H 0.52483 0.39375 0.66931 0.0
H501 H 0.42688 0.36513 0.68648 0.0
H502 H 0.41453 0.36904 0.71857 0.0
H503 H 0.42748 0.33859 0.70775 0.0
H504 H 0.46069 0.343 0.74931 0.0
H505 H 0.44773 0.37344 0.76037 0.0
H506 H 0.48259 0.37264 0.75665 0.0
H507 H 0.50652 0.43602 0.68407 0.0
H508 H 0.48104 0.47209 0.70048 0.0
H509 H 0.43101 0.41616 0.73822 0.0
C510 C 0.48368 0.33511 0.69575 0.0
C511 C 0.50346 0.32995 0.6785 0.0
C512 C 0.51859 0.35137 0.66944 0.0
C513 C 0.51367 0.37748 0.67683 0.0
C514 C 0.49368 0.38184 0.69342 0.0
C515 C 0.47905 0.36128 0.70295 0.0
C516 C 0.45777 0.37131 0.71938 0.0
C517 C 0.43003 0.36037 0.70732 0.0
C518 C 0.46249 0.36471 0.74814 0.0
C519 C 0.46233 0.40071 0.71713 0.0
C520 C 0.48323 0.40633 0.70216 0.0
C521 C 0.49036 0.4319 0.6961 0.0
C522 C 0.47568 0.45224 0.70544 0.0
C523 C 0.45412 0.44697 0.72076 0.0
C524 C 0.4476 0.42086 0.72687 0.0
H525 H 0.92137 0.25149 0.93153 0.0
H526 H 0.97748 0.2223 0.98833 0.0
H527 H 0.94075 0.20637 0.01325 0.0
H528 H 0.87407 0.27194 0.97895 0.0
H529 H 0.84564 0.26136 0.95617 0.0
H530 H 0.87647 0.27264 0.94396 0.0
H531 H 0.8758 0.22869 0.91471 0.0
H532 H 0.84504 0.21729 0.92683 0.0
H533 H 0.87307 0.19791 0.92973 0.0
H534 H 0.89797 0.19025 0.03008 0.0
H535 H 0.85202 0.17545 0.03771 0.0
H536 H 0.82332 0.21537 0.97055 0.0
C537 C 0.92595 0.2422 0.94948 0.0
C538 C 0.95238 0.23829 0.95801 0.0
C539 C 0.95745 0.22561 0.98138 0.0
C540 C 0.9367 0.21651 0.99574 0.0
C541 C 0.91088 0.22027 0.9866 0.0
C542 C 0.9054 0.2329 0.96408 0.0
C543 C 0.87577 0.23308 0.95778 0.0
C544 C 0.86751 0.26145 0.95932 0.0
C545 C 0.86691 0.21836 0.93066 0.0
C546 C 0.86551 0.21816 0.97998 0.0
C547 C 0.88612 0.21108 0.99646 0.0
C548 C 0.88166 0.19597 0.01752 0.0
C549 C 0.85547 0.18763 0.02169 0.0
C550 C 0.83402 0.19443 1.00492 0.0
C551 C 0.83923 0.21021 0.98401 0.0
H552 H 0.29553 0.06508 0.45126 0.0
H553 H 0.23395 0.11238 0.42251 0.0
H554 H 0.24423 0.10068 0.37676 0.0
H555 H 0.34148 0.08397 0.40814 0.0
H556 H 0.35455 0.0523 0.40336 0.0
H557 H 0.34019 0.06139 0.43352 0.0
H558 H 0.30761 0.01934 0.4262 0.0
H559 H 0.32206 0.00993 0.39611 0.0
H560 H 0.28697 0.01287 0.39566 0.0
H561 H 0.26446 0.08798 0.33483 0.0
H562 H 0.29177 0.07369 0.29942 0.0
H563 H 0.34023 0.03439 0.35533 0.0
C564 C 0.2837 0.07244 0.43533 0.0
C565 C 0.26377 0.08952 0.44049 0.0
C566 C 0.24915 0.09911 0.41906 0.0
C567 C 0.25488 0.09259 0.393 0.0
C568 C 0.27519 0.07636 0.38869 0.0
C569 C 0.28921 0.06619 0.40924 0.0
C570 C 0.31125 0.05065 0.39946 0.0
C571 C 0.33847 0.06282 0.41186 0.0
C572 C 0.30669 0.02146 0.40466 0.0
C573 C 0.30783 0.05417 0.37024 0.0
C574 C 0.28683 0.06895 0.36445 0.0
C575 C 0.2807 0.07608 0.33907 0.0
C576 C 0.29643 0.06795 0.31911 0.0
C577 C 0.31808 0.0528 0.32456 0.0
C578 C 0.32363 0.04566 0.35047 0.0
H579 H 0.15134 0.08362 0.68261 0.0
H580 H 0.19905 0.01809 0.69452 0.0
H581 H 0.22309 0.02846 0.6559 0.0
H582 H 0.14518 0.07691 0.61246 0.0
H583 H 0.14803 0.11187 0.60903 0.0
H584 H 0.13474 0.09952 0.63777 0.0
H585 H 0.17002 0.12957 0.66803 0.0
H586 H 0.18325 0.14223 0.6394 0.0
H587 H 0.20456 0.12781 0.66314 0.0
H588 H 0.23998 0.04441 0.61412 0.0
H589 H 0.25214 0.06795 0.57572 0.0
H590 H 0.19514 0.12451 0.59276 0.0
C591 C 0.16696 0.07155 0.6772 0.0
C592 C 0.17326 0.04998 0.69155 0.0
C593 C 0.19396 0.03478 0.68392 0.0
C594 C 0.20762 0.04043 0.66191 0.0
C595 C 0.20061 0.06156 0.64795 0.0
C596 C 0.18107 0.07716 0.65556 0.0
C597 C 0.17776 0.0991 0.63757 0.0
C598 C 0.14977 0.09669 0.62337 0.0
C599 C 0.18429 0.12629 0.65296 0.0
C600 C 0.1983 0.09327 0.61849 0.0
C601 C 0.21107 0.07136 0.62461 0.0
C602 C 0.23028 0.06173 0.60929 0.0
C603 C 0.23695 0.07513 0.58743 0.0
C604 C 0.22469 0.09812 0.58131 0.0
C605 C 0.20501 0.10712 0.59704 0.0
H606 H 0.20262 0.97244 0.81634 0.0
H607 H 0.15968 0.03588 0.84886 0.0
H608 H 0.17294 0.02446 0.89383 0.0
H609 H 0.18441 0.92663 0.85993 0.0
H610 H 0.2157 0.91238 0.86276 0.0
H611 H 0.20563 0.92734 0.83328 0.0
H612 H 0.24887 0.95836 0.83879 0.0
H613 H 0.25923 0.94331 0.86822 0.0
H614 H 0.25749 0.97851 0.86935 0.0
H615 H 0.18654 1.00317 0.9347 0.0
H616 H 0.20152 0.97503 0.969 0.0
H617 H 0.23639 0.92568 0.91023 0.0
C618 C 0.1965 0.98436 0.83292 0.0
C619 C 0.1802 1.00518 0.82905 0.0
C620 C 0.17231 0.01998 0.8513 0.0
C621 C 0.17972 0.01361 0.87693 0.0
C622 C 0.19519 0.99252 0.88 0.0
C623 C 0.20375 0.97829 0.85862 0.0
C624 C 0.21895 0.9556 0.86725 0.0
C625 C 0.20535 0.92892 0.85508 0.0
C626 C 0.24785 0.95917 0.8605 0.0
C627 C 0.21703 0.95889 0.89678 0.0
C628 C 0.20332 0.98038 0.90369 0.0
C629 C 0.19763 0.98654 0.92958 0.0
C630 C 0.20613 0.97034 0.9489 0.0
C631 C 0.22026 0.94823 0.94233 0.0
C632 C 0.22595 0.94263 0.91592 0.0
H633 H 0.31844 0.90844 0.08305 0.0
H634 H 0.25638 0.95984 0.06579 0.0
H635 H 0.26788 0.985 0.10887 0.0
H636 H 0.3103 0.90595 0.15152 0.0
H637 H 0.34515 0.90686 0.16148 0.0
H638 H 0.33255 0.89289 0.12899 0.0
H639 H 0.36519 0.92502 0.10809 0.0
H640 H 0.3781 0.93889 0.14053 0.0
H641 H 0.36556 0.96001 0.11666 0.0
H642 H 0.28424 1.00316 0.15444 0.0
H643 H 0.30768 0.01628 0.19813 0.0
H644 H 0.36039 0.95439 0.18555 0.0
C645 C 0.3074 0.9251 0.08825 0.0
C646 C 0.28646 0.93211 0.07103 0.0
C647 C 0.27256 0.95412 0.07856 0.0
C648 C 0.27885 0.96848 0.10307 0.0
C649 C 0.29925 0.96079 0.11973 0.0
C650 C 0.3136 0.93989 0.11256 0.0
C651 C 0.33487 0.93608 0.13408 0.0
C652 C 0.33044 0.90883 0.14464 0.0
C653 C 0.36257 0.94026 0.12425 0.0
C654 C 0.33003 0.95798 0.15451 0.0
C655 C 0.30924 0.97181 0.14588 0.0
C656 C 0.30068 0.99261 0.16139 0.0
C657 C 0.31406 0.99981 0.18625 0.0
C658 C 0.33593 0.98641 0.19528 0.0
C659 C 0.34382 0.96507 0.1792 0.0
H660 H 0.33486 0.30832 0.07035 0.0
H661 H 0.35592 0.35122 1.0039 0.0
H662 H 0.40046 0.33526 0.00774 0.0
H663 H 0.39614 0.32277 0.10798 0.0
H664 H 0.39657 0.29114 0.12132 0.0
H665 H 0.36551 0.30374 0.11182 0.0
H666 H 0.35182 0.26129 0.08095 0.0
H667 H 0.3829 0.24855 0.09035 0.0
H668 H 0.37308 0.25125 0.05604 0.0
H669 H 0.44355 0.31732 0.02052 0.0
H670 H 0.48262 0.29959 0.04202 0.0
H671 H 0.43422 0.26835 0.10056 0.0
C672 C 0.34868 0.31396 0.05631 0.0
C673 C 0.34179 0.33088 0.03668 0.0
C674 C 0.36067 0.33822 0.01903 0.0
C675 C 0.38602 0.32919 0.02101 0.0
C676 C 0.39229 0.31282 0.04076 0.0
C677 C 0.3742 0.30526 0.05813 0.0
C678 C 0.38658 0.2889 0.07861 0.0
C679 C 0.38618 0.30246 0.10658 0.0
C680 C 0.37277 0.26083 0.07634 0.0
C681 C 0.41457 0.28883 0.07031 0.0
C682 C 0.41732 0.30256 0.04828 0.0
C683 C 0.44157 0.3063 0.03761 0.0
C684 C 0.46367 0.29615 0.05 0.0
C685 C 0.46152 0.2824 0.07289 0.0
C686 C 0.43647 0.27838 0.08287 0.0
H687 H 0.01232 0.84163 0.18174 0.0
H688 H 0.97939 0.78943 0.23616 0.0
H689 H 0.96012 0.82691 0.25885 0.0
H690 H 0.02667 0.90083 0.22954 0.0
H691 H 0.0173 0.92283 0.20519 0.0
H692 H 0.03118 0.89255 0.19529 0.0
H693 H 0.99019 0.87924 0.16217 0.0
H694 H 0.97608 0.9093 0.17213 0.0
H695 H 0.95764 0.87795 0.17388 0.0
H696 H 0.94032 0.86902 0.27262 0.0
H697 H 0.92333 0.91307 0.27758 0.0
H698 H 0.96932 0.9379 0.21446 0.0
C699 C 1.0017 0.83822 0.19889 0.0
C700 C 0.99756 0.81259 0.20728 0.0
C701 C 0.98298 0.80889 0.22944 0.0
C702 C 0.97192 0.83007 0.24247 0.0
C703 C 0.97568 0.85493 0.23321 0.0
C704 C 0.99044 0.85916 0.21209 0.0
C705 C 0.99004 0.88742 0.20499 0.0
C706 C 0.01796 0.90175 0.209 0.0
C707 C 0.97775 0.88852 0.17662 0.0
C708 C 0.97232 0.89822 0.22504 0.0
C709 C 0.96433 0.87921 0.24122 0.0
C710 C 0.94676 0.88418 0.26031 0.0
C711 C 0.93713 0.90923 0.26293 0.0
C712 C 0.9451 0.92901 0.24656 0.0
C713 C 0.96308 0.92334 0.22752 0.0
H714 H 0.18372 0.70301 0.5332 0.0
H715 H 0.20453 0.65264 0.59497 0.0
H716 H 0.16597 0.66466 0.61774 0.0
H717 H 0.15855 0.75499 0.57709 0.0
H718 H 0.13197 0.76079 0.55335 0.0
H719 H 0.16232 0.74969 0.5423 0.0
H720 H 0.1357 0.7101 0.51485 0.0
H721 H 0.10532 0.72087 0.52608 0.0
H722 H 0.11413 0.68798 0.53096 0.0
H723 H 0.12438 0.67888 0.63252 0.0
H724 H 0.08297 0.69807 0.64115 0.0
H725 H 0.08741 0.74057 0.5709 0.0
C726 C 0.18041 0.695 0.55179 0.0
C727 C 0.19722 0.67683 0.56226 0.0
C728 C 0.19196 0.66646 0.58644 0.0
C729 C 0.17005 0.67316 0.59958 0.0
C730 C 0.15345 0.69036 0.58843 0.0
C731 C 0.15837 0.70148 0.5653 0.0
C732 C 0.13668 0.71904 0.55763 0.0
C733 C 0.14806 0.74784 0.5576 0.0
C734 C 0.1221 0.70888 0.53078 0.0
C735 C 0.11883 0.7157 0.57992 0.0
C736 C 0.12904 0.69898 0.59732 0.0
C737 C 0.11626 0.69222 0.61921 0.0
C738 C 0.0926 0.70322 0.62387 0.0
C739 C 0.08179 0.72098 0.60681 0.0
C740 C 0.09506 0.72707 0.58433 0.0
H741 H 1.00615 0.67142 0.70142 0.0
H742 H 0.93697 0.70919 0.6739 0.0
H743 H 0.90839 0.6767 0.69456 0.0
H744 H 0.9756 0.6052 0.68828 0.0
H745 H 0.9926 0.59297 0.71651 0.0
H746 H 1.00777 0.6202 0.70114 0.0
H747 H 0.01268 0.64844 0.74597 0.0
H748 H 0.99736 0.62133 0.76145 0.0
H749 H 0.98386 0.65296 0.76368 0.0
H750 H 0.88754 0.64092 0.71868 0.0
H751 H 0.87457 0.60082 0.73969 0.0
H752 H 0.95683 0.58346 0.74907 0.0
C753 C 0.98498 0.67293 0.69994 0.0
C754 C 0.97372 0.69299 0.68631 0.0
C755 C 0.94596 0.69402 0.68428 0.0
C756 C 0.92961 0.67574 0.69608 0.0
C757 C 0.94132 0.65628 0.70945 0.0
C758 C 0.96831 0.65443 0.71109 0.0
C759 C 0.97557 0.63049 0.72509 0.0
C760 C 0.98865 0.61107 0.70665 0.0
C761 C 0.99343 0.63881 0.75056 0.0
C762 C 0.94843 0.61917 0.7311 0.0
C763 C 0.92907 0.63468 0.72225 0.0
C764 C 0.9025 0.62856 0.72558 0.0
C765 C 0.89537 0.60569 0.73769 0.0
C766 C 0.91463 0.58878 0.74609 0.0
C767 C 0.94161 0.5959 0.74296 0.0
H768 H 0.18916 0.19449 0.4667 0.0
H769 H 0.17703 0.21975 0.54771 0.0
H770 H 0.13878 0.243 0.53226 0.0
H771 H 0.17226 0.25567 0.43957 0.0
H772 H 0.15624 0.23901 0.40937 0.0
H773 H 0.18293 0.22467 0.42682 0.0
H774 H 0.15275 0.18164 0.42866 0.0
H775 H 0.126 0.19583 0.41121 0.0
H776 H 0.12143 0.18323 0.44267 0.0
H777 H 0.09951 0.26058 0.508 0.0
H778 H 0.06438 0.27374 0.47649 0.0
H779 H 0.10414 0.23993 0.4114 0.0
C780 C 0.17853 0.20503 0.48116 0.0
C781 C 0.18605 0.20524 0.50842 0.0
C782 C 0.17171 0.21938 0.52672 0.0
C783 C 0.1499 0.23262 0.51814 0.0
C784 C 0.14289 0.23193 0.49115 0.0
C785 C 0.15698 0.21877 0.47291 0.0
C786 C 0.14539 0.22115 0.44503 0.0
C787 C 0.1654 0.23601 0.42928 0.0
C788 C 0.13582 0.19384 0.43108 0.0
C789 C 0.12237 0.23731 0.45046 0.0
C790 C 0.12112 0.24319 0.47719 0.0
C791 C 0.10054 0.25648 0.487 0.0
C792 C 0.08067 0.26386 0.469 0.0
C793 C 0.08179 0.25829 0.44153 0.0
C794 C 0.1031 0.24506 0.43227 0.0
H795 H 0.62183 0.43646 0.20436 0.0
H796 H 0.56939 0.45235 0.26555 0.0
H797 H 0.54433 0.40889 0.25297 0.0
H798 H 0.57072 0.4061 0.1564 0.0
H799 H 0.59157 0.38264 0.14249 0.0
H800 H 0.60592 0.41423 0.15734 0.0
H801 H 0.63745 0.39096 0.18852 0.0
H802 H 0.62317 0.35929 0.17379 0.0
H803 H 0.62379 0.36697 0.20892 0.0
H804 H 0.52663 0.36236 0.23472 0.0
H805 H 0.51446 0.31919 0.20902 0.0
H806 H 0.57594 0.33656 0.15727 0.0
C807 C 0.60517 0.43068 0.21521 0.0
C808 C 0.59766 0.44745 0.23612 0.0
C809 C 0.57543 0.43961 0.24952 0.0
C810 C 0.56118 0.415 0.24257 0.0
C811 C 0.56916 0.39883 0.22184 0.0
C812 C 0.59037 0.4066 0.20808 0.0
C813 C 0.59411 0.38638 0.18568 0.0
C814 C 0.59034 0.39804 0.1589 0.0
C815 C 0.62124 0.37524 0.18947 0.0
C816 C 0.57185 0.36584 0.18908 0.0
C817 C 0.55791 0.37312 0.21028 0.0
C818 C 0.53721 0.35662 0.2179 0.0
C819 C 0.53049 0.33217 0.2033 0.0
C820 C 0.54408 0.32483 0.18107 0.0
C821 C 0.56496 0.34193 0.17394 0.0
H822 H 0.34498 0.85265 0.95642 0.0
H823 H 0.3364 0.80527 0.02272 0.0
H824 H 0.37738 0.78502 0.01369 0.0
H825 H 0.37074 0.80244 0.9137 0.0
H826 H 0.39367 0.82526 0.90001 0.0
H827 H 0.36348 0.83624 0.91152 0.0
H828 H 0.3906 0.87317 0.94232 0.0
H829 H 0.42088 0.86217 0.93105 0.0
H830 H 0.41621 0.86461 0.96576 0.0
H831 H 0.41888 0.76961 0.99794 0.0
H832 H 0.45806 0.75876 0.97526 0.0
H833 H 0.44115 0.81597 0.91903 0.0
C834 C 0.35167 0.83792 0.96893 0.0
C835 C 0.33736 0.83058 0.9903 0.0
C836 C 0.34691 0.81129 1.00626 0.0
C837 C 0.37025 0.79967 1.00133 0.0
C838 C 0.384 0.80749 0.98037 0.0
C839 C 0.37512 0.82607 0.96432 0.0
C840 C 0.39381 0.83068 0.94301 0.0
C841 C 0.37957 0.8232 0.91543 0.0
C842 C 0.4061 0.85937 0.94571 0.0
C843 C 0.41444 0.8117 0.94959 0.0
C844 C 0.40832 0.79862 0.97128 0.0
C845 C 0.42393 0.77975 0.98097 0.0
C846 C 0.4462 0.77375 0.96793 0.0
C847 C 0.45282 0.78656 0.94542 0.0
C848 C 0.43681 0.80604 0.93635 0.0
H849 H 0.92436 0.4413 0.81927 0.0
H850 H 0.97899 0.45604 0.75983 0.0
H851 H 0.99934 0.41509 0.76834 0.0
H852 H 0.97189 0.41289 0.86478 0.0
H853 H 0.94748 0.38877 0.87436 0.0
H854 H 0.93771 0.41993 0.86445 0.0
H855 H 0.90337 0.39519 0.82908 0.0
H856 H 0.91331 0.36396 0.83861 0.0
H857 H 0.91415 0.37166 0.80482 0.0
H858 H 0.01225 0.37164 0.78091 0.0
H859 H 0.02034 0.33015 0.80028 0.0
H860 H 0.95848 0.34269 0.85276 0.0
C861 C 0.94091 0.43614 0.8084 0.0
C862 C 0.95006 0.45205 0.78887 0.0
C863 C 0.97159 0.44435 0.7749 0.0
C864 C 0.98326 0.421 0.77951 0.0
C865 C 0.97336 0.40546 0.79829 0.0
C866 C 0.95295 0.41279 0.81284 0.0
C867 C 0.9462 0.39222 0.83181 0.0
C868 C 0.95112 0.40416 0.86056 0.0
C869 C 0.91755 0.38004 0.82571 0.0
C870 C 0.96588 0.37218 0.82546 0.0
C871 C 0.98118 0.38026 0.80592 0.0
C872 C 1.00053 0.36518 0.79635 0.0
C873 C 1.00489 0.34151 0.80746 0.0
C874 C 0.99009 0.33301 0.82809 0.0
C875 C 0.97006 0.3485 0.83694 0.0
H876 H 0.32296 0.20354 0.57069 0.0
H877 H 0.33874 0.15965 0.49814 0.0
H878 H 0.38595 0.1756 0.50572 0.0
H879 H 0.37286 0.26031 0.56776 0.0
H880 H 0.38172 0.2626 0.6028 0.0
H881 H 0.34856 0.25081 0.58986 0.0
H882 H 0.35266 0.20808 0.61354 0.0
H883 H 0.38583 0.21964 0.62638 0.0
H884 H 0.3796 0.18817 0.60733 0.0
H885 H 0.43181 0.19295 0.52281 0.0
H886 H 0.47342 0.20998 0.54886 0.0
H887 H 0.42831 0.24148 0.6111 0.0
C888 C 0.33628 0.19794 0.55609 0.0
C889 C 0.32723 0.18061 0.53371 0.0
C890 C 0.34531 0.17301 0.51539 0.0
C891 C 0.37214 0.18203 0.51946 0.0
C892 C 0.38062 0.19854 0.54204 0.0
C893 C 0.36328 0.20647 0.56007 0.0
C894 C 0.37796 0.22231 0.58389 0.0
C895 C 0.36979 0.2507 0.5862 0.0
C896 C 0.37376 0.20873 0.60928 0.0
C897 C 0.40622 0.22155 0.57663 0.0
C898 C 0.40729 0.20804 0.55226 0.0
C899 C 0.43125 0.20382 0.54183 0.0
C900 C 0.45481 0.21352 0.55678 0.0
C901 C 0.45421 0.22708 0.58201 0.0
C902 C 0.42951 0.2313 0.59182 0.0
H903 H 0.54612 0.67465 0.37579 0.0
H904 H 0.49336 0.69738 0.31217 0.0
H905 H 0.50582 0.66025 0.28294 0.0
H906 H 0.59754 0.65911 0.33599 0.0
H907 H 0.60716 0.63171 0.35364 0.0
H908 H 0.59221 0.65833 0.37042 0.0
H909 H 0.55584 0.62513 0.3844 0.0
H910 H 0.57076 0.59836 0.36774 0.0
H911 H 0.53645 0.60307 0.35957 0.0
H912 H 0.5249 0.62171 0.26031 0.0
H913 H 0.55085 0.58571 0.24483 0.0
H914 H 0.59335 0.58918 0.32234 0.0
C915 C 0.53679 0.67148 0.35586 0.0
C916 C 0.51847 0.6887 0.34633 0.0
C917 C 0.50728 0.68435 0.31992 0.0
C918 C 0.51421 0.66329 0.3032 0.0
C919 C 0.53258 0.64691 0.3131 0.0
C920 C 0.54384 0.65082 0.33876 0.0
C921 C 0.56444 0.63147 0.3439 0.0
C922 C 0.59196 0.64603 0.35142 0.0
C923 C 0.55638 0.61344 0.36516 0.0
C924 C 0.56316 0.6162 0.31704 0.0
C925 C 0.54439 0.62525 0.29971 0.0
C926 C 0.5396 0.61443 0.27372 0.0
C927 C 0.55447 0.59393 0.26513 0.0
C928 C 0.57418 0.58458 0.28235 0.0
C929 C 0.57846 0.59588 0.3087 0.0
H930 H 0.08688 0.81212 0.07998 0.0
H931 H 0.09331 0.73085 0.05085 0.0
H932 H 0.13157 0.74497 0.02706 0.0
H933 H 0.10449 0.84074 0.0192 0.0
H934 H 0.12256 0.86949 0.03673 0.0
H935 H 0.09508 0.85311 0.05088 0.0
H936 H 0.12535 0.84785 0.09303 0.0
H937 H 0.1529 0.86415 0.079 0.0
H938 H 0.15541 0.83175 0.09017 0.0
H939 H 0.17189 0.76732 0.01 0.0
H940 H 0.20882 0.79712 0.99755 0.0
H941 H 0.17421 0.86412 0.03449 0.0
C942 C 0.09619 0.79736 0.06837 0.0
C943 C 0.08709 0.77037 0.06731 0.0
C944 C 0.0998 0.75166 0.05187 0.0
C945 C 0.12162 0.75946 0.03832 0.0
C946 C 0.1303 0.78614 0.03998 0.0
C947 C 0.11774 0.80488 0.05427 0.0
C948 C 0.13111 0.83228 0.0528 0.0
C949 C 0.11218 0.84994 0.03908 0.0
C950 C 0.14183 0.84473 0.08039 0.0
C951 C 0.1534 0.82592 0.03594 0.0
C952 C 0.15271 0.79917 0.0289 0.0
C953 C 0.17236 0.78837 0.01495 0.0
C954 C 0.19327 0.80539 0.008 0.0
C955 C 0.19408 0.8329 0.01462 0.0
C956 C 0.17372 0.84322 0.02857 0.0
H957 H 0.75679 0.96565 0.57847 0.0
H958 H 0.74971 0.88607 0.6032 0.0
H959 H 0.73192 0.90261 0.64413 0.0
H960 H 0.77626 0.99857 0.64507 0.0
H961 H 0.75789 0.0266 0.63913 0.0
H962 H 0.77148 0.00881 0.61216 0.0
H963 H 0.72492 1.0016 0.58703 0.0
H964 H 0.71115 0.01914 0.61399 0.0
H965 H 0.69791 0.98604 0.60259 0.0
H966 H 0.71055 0.92656 0.68015 0.0
H967 H 0.69162 0.95766 0.71161 0.0
H968 H 0.71488 0.02235 0.6658 0.0
C969 C 0.75192 0.95177 0.59269 0.0
C970 C 0.75468 0.9245 0.58744 0.0
C971 C 0.74791 0.90704 0.60661 0.0
C972 C 0.73767 0.91622 0.62999 0.0
C973 C 0.73461 0.94302 0.63425 0.0
C974 C 0.74194 0.96067 0.61641 0.0
C975 C 0.73627 0.98847 0.62586 0.0
C976 C 0.76201 1.00669 0.63085 0.0
C977 C 0.71638 0.99945 0.6062 0.0
C978 C 0.72421 0.98352 0.65148 0.0
C979 C 0.72327 0.95711 0.65579 0.0
C980 C 0.71157 0.94738 0.67724 0.0
C981 C 0.70074 0.96515 0.69493 0.0
C982 C 0.70202 0.9924 0.69129 0.0
C983 C 0.71401 1.00166 0.66929 0.0
H984 H 0.85753 0.96005 0.33959 0.0
H985 H 0.81122 0.02717 0.33052 0.0
H986 H 0.79142 0.01945 0.37195 0.0
H987 H 0.80651 0.91898 0.36727 0.0
H988 H 0.82962 0.90525 0.38984 0.0
H989 H 0.83998 0.91567 0.35908 0.0
H990 H 0.87831 0.94605 0.38458 0.0
H991 H 0.86787 0.93596 0.41544 0.0
H992 H 0.87102 0.97046 0.40988 0.0
H993 H 0.77739 1.00571 0.41465 0.0
H994 H 0.76721 0.98454 0.45472 0.0
H995 H 0.82193 0.92571 0.43714 0.0
C996 C 0.84302 0.97293 0.34619 0.0
C997 C 0.83595 0.99424 0.33167 0.0
C998 C 0.81699 0.01072 0.34115 0.0
C999 C 0.80566 1.00656 0.36477 0.0
C1000 C 0.81338 0.98578 0.37883 0.0
C1001 C 0.8314 0.96903 0.36986 0.0
C1002 C 0.83601 0.94809 0.38892 0.0
C1003 C 0.82752 0.92035 0.37547 0.0
C1004 C 0.86503 0.95028 0.40038 0.0
C1005 C 0.81778 0.95576 0.40993 0.0
C1006 C 0.80508 0.97767 0.40367 0.0
C1007 C 0.78716 0.98851 0.41975 0.0
C1008 C 0.78157 0.97634 0.44257 0.0
C1009 C 0.79378 0.95347 0.44922 0.0
C1010 C 0.81243 0.9433 0.43278 0.0
H1011 H 0.77206 0.07494 0.11087 0.0
H1012 H 0.83916 0.08772 0.0647 0.0
H1013 H 0.86657 0.0645 0.09606 0.0
H1014 H 0.80991 0.08789 0.17362 0.0
H1015 H 0.79043 0.06388 0.18963 0.0
H1016 H 0.77555 0.07954 0.16247 0.0
H1017 H 0.76116 0.03368 0.13789 0.0
H1018 H 0.77618 0.01787 0.16491 0.0
H1019 H 0.78568 0.01076 0.13199 0.0
H1020 H 0.88624 0.03932 0.13162 0.0
H1021 H 0.89949 0.01971 0.17249 0.0
H1022 H 0.82086 0.02656 0.19848 0.0
C1023 C 0.79248 0.07261 0.1073 0.0
C1024 C 0.80351 0.08277 0.08522 0.0
C1025 C 0.8304 0.07998 0.08146 0.0
C1026 C 0.84602 0.0667 0.09907 0.0
C1027 C 0.83456 0.0568 0.1206 0.0
C1028 C 0.80856 0.06003 0.12511 0.0
C1029 C 0.80179 0.04937 0.15093 0.0
C1030 C 0.79396 0.07149 0.17031 0.0
C1031 C 0.7799 0.02656 0.14613 0.0
C1032 C 0.82806 0.03962 0.16024 0.0
C1033 C 0.84646 0.04366 0.14211 0.0
C1034 C 0.87205 0.03618 0.14602 0.0
C1035 C 0.87933 0.0249 0.16934 0.0
C1036 C 0.86127 0.02156 0.18888 0.0
C1037 C 0.83513 0.02877 0.184 0.0
H1038 H 0.70993 0.0835 0.82174 0.0
H1039 H 0.68311 1.00372 0.83656 0.0
H1040 H 0.70121 0.01234 0.88302 0.0
H1041 H 0.77069 0.09106 0.86839 0.0
H1042 H 0.76589 0.12484 0.87866 0.0
H1043 H 0.75458 0.11122 0.84567 0.0
H1044 H 0.70742 0.1244 0.85303 0.0
H1045 H 0.7185 0.13783 0.88605 0.0
H1046 H 0.69109 0.11287 0.88056 0.0
H1047 H 0.71865 0.03045 0.9284 0.0
H1048 H 0.73333 0.05723 0.9701 0.0
H1049 H 0.74691 0.1261 0.9266 0.0
C1050 C 0.70868 0.06767 0.83464 0.0
C1051 C 0.69558 0.04282 0.82559 0.0
C1052 C 0.69334 0.02281 0.84316 0.0
C1053 C 0.70359 0.02751 0.86953 0.0
C1054 C 0.71578 0.05242 0.8781 0.0
C1055 C 0.71837 0.07221 0.86124 0.0
C1056 C 0.72991 0.09796 0.87614 0.0
C1057 C 0.75687 0.10678 0.86665 0.0
C1058 C 0.71057 0.11953 0.8738 0.0
C1059 C 0.73289 0.08962 0.90399 0.0
C1060 C 0.72499 0.06319 0.90461 0.0
C1061 C 0.72512 0.05114 0.92816 0.0
C1062 C 0.73346 0.06653 0.95177 0.0
C1063 C 0.74127 0.09379 0.9517 0.0
C1064 C 0.74111 0.10533 0.92738 0.0
H1065 H 0.58208 0.74807 0.95745 0.0
H1066 H 0.60964 0.75445 0.87961 0.0
H1067 H 0.65018 0.73439 0.89353 0.0
H1068 H 0.64826 0.76294 0.99367 0.0
H1069 H 0.6413 0.74011 0.01792 0.0
H1070 H 0.61486 0.75638 1.00234 0.0
H1071 H 0.58951 0.71092 0.9876 0.0
H1072 H 0.61599 0.69451 1.00286 0.0
H1073 H 0.60542 0.68655 0.96843 0.0
H1074 H 0.68521 0.70882 0.91382 0.0
H1075 H 0.71565 0.68498 0.94167 0.0
H1076 H 0.66787 0.69815 0.0074 0.0
C1077 C 0.59685 0.74569 0.9435 0.0
C1078 C 0.5925 0.75285 0.91739 0.0
C1079 C 0.61238 0.74928 0.89974 0.0
C1080 C 0.63553 0.73777 0.90741 0.0
C1081 C 0.63888 0.73029 0.93297 0.0
C1082 C 0.62042 0.7346 0.95097 0.0
C1083 C 0.62899 0.72456 0.97723 0.0
C1084 C 0.63363 0.74736 0.99908 0.0
C1085 C 0.60877 0.70285 0.98444 0.0
C1086 C 0.65478 0.71346 0.97089 0.0
C1087 C 0.65996 0.71675 0.94516 0.0
C1088 C 0.68167 0.70656 0.93417 0.0
C1089 C 0.69874 0.69293 0.95004 0.0
C1090 C 0.69424 0.69005 0.97667 0.0
C1091 C 0.672 0.70051 0.98719 0.0
H1092 H 0.06655 0.11444 0.75662 0.0
H1093 H 0.08823 0.06766 0.82101 0.0
H1094 H 0.06981 0.09939 0.85218 0.0
H1095 H 0.08453 0.17714 0.79338 0.0
H1096 H 0.05806 0.1934 0.77782 0.0
H1097 H 0.07127 0.16613 0.7602 0.0
H1098 H 0.02433 0.14186 0.75235 0.0
H1099 H 0.01098 0.169 0.7701 0.0
H1100 H 1.00555 0.13609 0.78015 0.0
H1101 H 0.04898 0.13554 0.87622 0.0
H1102 H 0.03154 0.17647 0.89304 0.0
H1103 H 0.02557 0.2023 0.81386 0.0
C1104 C 0.0672 0.11081 0.77726 0.0
C1105 C 0.07859 0.08844 0.78641 0.0
C1106 C 0.07957 0.08462 0.8136 0.0
C1107 C 0.06903 0.10247 0.83142 0.0
C1108 C 0.05791 0.12427 0.82181 0.0
C1109 C 0.05724 0.12878 0.79546 0.0
C1110 C 0.04569 0.15474 0.79071 0.0
C1111 C 0.06611 0.17399 0.77989 0.0
C1112 C 0.02011 0.15014 0.77223 0.0
C1113 C 0.04 0.16409 0.81853 0.0
C1114 C 0.04688 0.14594 0.836 0.0
C1115 C 0.0436 0.14994 0.86276 0.0
C1116 C 0.03356 0.17334 0.87209 0.0
C1117 C 0.02715 0.19283 0.85486 0.0
C1118 C 0.03017 0.18787 0.82759 0.0
H1119 H 0.93055 0.27463 0.45113 0.0
H1120 H 0.94634 0.32799 0.39107 0.0
H1121 H 0.90488 0.34848 0.39877 0.0
H1122 H 0.86005 0.26467 0.43637 0.0
H1123 H 0.85304 0.26408 0.47039 0.0
H1124 H 0.88386 0.25352 0.46012 0.0
H1125 H 0.90983 0.28741 0.49516 0.0
H1126 H 0.8791 0.29789 0.5057 0.0
H1127 H 0.90351 0.32169 0.49559 0.0
H1128 H 0.86136 0.36305 0.41301 0.0
H1129 H 0.82089 0.3724 0.4345 0.0
H1130 H 0.83369 0.30963 0.48543 0.0
C1131 C 0.92536 0.29067 0.43962 0.0
C1132 C 0.94176 0.29968 0.42046 0.0
C1133 C 0.93419 0.32076 0.40589 0.0
C1134 C 0.9106 0.33246 0.41005 0.0
C1135 C 0.89477 0.32291 0.4289 0.0
C1136 C 0.90195 0.30262 0.44358 0.0
C1137 C 0.88174 0.29635 0.46299 0.0
C1138 C 0.86892 0.26797 0.4571 0.0
C1139 C 0.8943 0.30113 0.49155 0.0
C1140 C 0.86208 0.31634 0.457 0.0
C1141 C 0.86987 0.33137 0.43717 0.0
C1142 C 0.85508 0.35136 0.42853 0.0
C1143 C 0.83203 0.35646 0.44081 0.0
C1144 C 0.82397 0.3417 0.4616 0.0
C1145 C 0.83912 0.32114 0.46947 0.0
H1146 H 0.57541 0.96175 0.80293 0.0
H1147 H 0.6122 0.93072 0.73447 0.0
H1148 H 0.59555 0.88555 0.74259 0.0
H1149 H 0.59187 0.91276 0.84324 0.0
H1150 H 0.56161 0.91129 0.8594 0.0
H1151 H 0.57333 0.94136 0.84635 0.0
H1152 H 0.52871 0.94168 0.81826 0.0
H1153 H 0.51676 0.91164 0.83136 0.0
H1154 H 0.51656 0.91322 0.7962 0.0
H1155 H 0.57898 0.84379 0.76066 0.0
H1156 H 0.5633 0.80821 0.78697 0.0
H1157 H 0.53721 0.86619 0.84396 0.0
C1158 C 0.57944 0.94553 0.78925 0.0
C1159 C 0.59496 0.94979 0.76792 0.0
C1160 C 0.60022 0.92796 0.75082 0.0
C1161 C 0.59082 0.90224 0.75527 0.0
C1162 C 0.57611 0.89869 0.77683 0.0
C1163 C 0.5703 0.91974 0.79347 0.0
C1164 C 0.5558 0.91045 0.81633 0.0
C1165 C 0.5716 0.9195 0.84289 0.0
C1166 C 0.52779 0.9198 0.81547 0.0
C1167 C 0.55495 0.88083 0.81035 0.0
C1168 C 0.56657 0.87451 0.78734 0.0
C1169 C 0.56953 0.8485 0.7785 0.0
C1170 C 0.56062 0.82842 0.79366 0.0
C1171 C 0.54891 0.8344 0.81747 0.0
C1172 C 0.54574 0.86098 0.82567 0.0
H1173 H 0.9589 0.18902 0.3626 0.0
H1174 H 0.02863 0.19816 0.31921 0.0
H1175 H 0.01813 0.15324 0.29752 0.0
H1176 H 0.9622 0.1208 0.3732 0.0
H1177 H 0.92695 0.1127 0.36823 0.0
H1178 H 0.93991 0.14558 0.38066 0.0
H1179 H 0.9133 0.16489 0.34243 0.0
H1180 H 0.90003 0.1321 0.33007 0.0
H1181 H 0.91708 0.15298 0.30885 0.0
H1182 H 1.00122 0.10674 0.28193 0.0
H1183 H 0.97594 0.06371 0.26926 0.0
H1184 H 0.91609 0.0855 0.32111 0.0
C1185 C 0.9719 0.1816 0.34846 0.0
C1186 C 0.99463 0.19708 0.34266 0.0
C1187 C 0.01104 0.18673 0.32389 0.0
C1188 C 1.00535 0.16116 0.31159 0.0
C1189 C 0.98303 0.14629 0.31804 0.0
C1190 C 0.96632 0.15624 0.33569 0.0
C1191 C 0.94311 0.13644 0.33842 0.0
C1192 C 0.94306 0.12841 0.36682 0.0
C1193 C 0.91683 0.14725 0.32939 0.0
C1194 C 0.94947 0.11381 0.31959 0.0
C1195 C 0.97276 0.11977 0.30831 0.0
C1196 C 0.98287 0.10187 0.29052 0.0
C1197 C 0.96845 0.07742 0.28357 0.0
C1198 C 0.94403 0.07126 0.29415 0.0
C1199 C 0.93466 0.08965 0.31263 0.0
H1200 H 0.63123 0.0984 0.69554 0.0
H1201 H 0.57859 0.08237 0.75634 0.0
H1202 H 0.55384 0.12018 0.74496 0.0
H1203 H 0.63395 0.16889 0.70386 0.0
H1204 H 0.63364 0.17307 0.66912 0.0
H1205 H 0.64742 0.14484 0.68207 0.0
H1206 H 0.61571 0.11359 0.64914 0.0
H1207 H 0.60201 0.14172 0.63592 0.0
H1208 H 0.58059 0.11652 0.64818 0.0
H1209 H 0.5359 0.1608 0.72815 0.0
H1210 H 0.52302 0.19843 0.70399 0.0
H1211 H 0.58605 0.18682 0.65274 0.0
C1212 C 0.61446 0.10279 0.70642 0.0
C1213 C 0.60691 0.08746 0.72691 0.0
C1214 C 0.5847 0.09375 0.74051 0.0
C1215 C 0.5706 0.11529 0.73429 0.0
C1216 C 0.57876 0.13018 0.71422 0.0
C1217 C 0.59993 0.12399 0.70022 0.0
C1218 C 0.6041 0.1427 0.67901 0.0
C1219 C 0.6314 0.1583 0.68381 0.0
C1220 C 0.60037 0.12773 0.65143 0.0
C1221 C 0.58206 0.16044 0.68336 0.0
C1222 C 0.56786 0.15305 0.70394 0.0
C1223 C 0.54678 0.16668 0.71189 0.0
C1224 C 0.53971 0.18813 0.69812 0.0
C1225 C 0.55347 0.19559 0.67642 0.0
C1226 C 0.57507 0.1816 0.66918 0.0
H1227 H 0.19436 0.32358 1.00209 0.0
H1228 H 0.21171 0.38555 0.9508 0.0
H1229 H 0.16803 0.37514 0.92658 0.0
H1230 H 0.15791 0.27744 0.95165 0.0
H1231 H 0.13392 0.26595 0.97322 0.0
H1232 H 0.16691 0.27784 0.98656 0.0
H1233 H 0.14755 0.31148 0.01885 0.0
H1234 H 0.1145 0.29987 1.00542 0.0
H1235 H 0.12561 0.33434 1.006 0.0
H1236 H 0.12318 0.35871 0.90775 0.0
H1237 H 0.07934 0.33574 0.8941 0.0
H1238 H 0.08925 0.28461 0.95756 0.0
C1239 C 0.18903 0.33477 0.98562 0.0
C1240 C 0.20654 0.35541 0.97838 0.0
C1241 C 0.19869 0.36973 0.95683 0.0
C1242 C 0.17387 0.364 0.94291 0.0
C1243 C 0.15695 0.34394 0.95077 0.0
C1244 C 0.16409 0.32941 0.9715 0.0
C1245 C 0.14184 0.30892 0.97571 0.0
C1246 C 0.15068 0.28088 0.97153 0.0
C1247 C 0.13178 0.31397 1.00313 0.0
C1248 C 0.12124 0.31423 0.95404 0.0
C1249 C 0.1305 0.33456 0.93998 0.0
C1250 C 0.11562 0.3428 0.91862 0.0
C1251 C 0.09073 0.32962 0.91103 0.0
C1252 C 0.08082 0.30846 0.92482 0.0
C1253 C 0.09616 0.30095 0.94688 0.0
H1254 H 0.42006 0.74234 0.43117 0.0
H1255 H 0.47366 0.70836 0.48684 0.0
H1256 H 0.43605 0.69415 0.51149 0.0
H1257 H 0.37453 0.7651 0.47898 0.0
H1258 H 0.34562 0.75673 0.45623 0.0
H1259 H 0.37699 0.7661 0.44403 0.0
H1260 H 0.37332 0.72238 0.41401 0.0
H1261 H 0.34199 0.71289 0.42609 0.0
H1262 H 0.36841 0.69145 0.42845 0.0
H1263 H 0.39239 0.68089 0.52848 0.0
H1264 H 0.34577 0.66938 0.53632 0.0
H1265 H 0.32024 0.71204 0.46996 0.0
C1266 C 0.42393 0.73228 0.44878 0.0
C1267 C 0.4499 0.7266 0.45711 0.0
C1268 C 0.45402 0.71302 0.48006 0.0
C1269 C 0.43276 0.7049 0.49426 0.0
C1270 C 0.4074 0.7105 0.48536 0.0
C1271 C 0.40287 0.72393 0.46319 0.0
C1272 C 0.37351 0.72623 0.4571 0.0
C1273 C 0.36731 0.75527 0.45922 0.0
C1274 C 0.36374 0.71241 0.4298 0.0
C1275 C 0.36226 0.71165 0.47905 0.0
C1276 C 0.38217 0.70288 0.49522 0.0
C1277 C 0.37664 0.6879 0.51612 0.0
C1278 C 0.35007 0.68145 0.52042 0.0
C1279 C 0.32929 0.68995 0.50393 0.0
C1280 C 0.33562 0.70555 0.48319 0.0
H1281 H 0.80862 0.55819 0.82927 0.0
H1282 H 0.86086 0.49965 0.85333 0.0
H1283 H 0.84747 0.50579 0.89876 0.0
H1284 H 0.82279 0.60178 0.88691 0.0
H1285 H 0.78964 0.61168 0.88794 0.0
H1286 H 0.80149 0.60102 0.85688 0.0
H1287 H 0.76182 0.56554 0.84796 0.0
H1288 H 0.74985 0.57609 0.87905 0.0
H1289 H 0.75596 0.54207 0.87188 0.0
H1290 H 0.83027 0.51997 0.94203 0.0
H1291 H 0.81181 0.5421 0.98029 0.0
H1292 H 0.77115 0.59212 0.9285 0.0
C1293 C 0.81693 0.54633 0.84399 0.0
C1294 C 0.83565 0.52824 0.83766 0.0
C1295 C 0.84642 0.51353 0.85765 0.0
C1296 C 0.83888 0.51684 0.88351 0.0
C1297 C 0.82059 0.53501 0.88914 0.0
C1298 C 0.80979 0.54957 0.86996 0.0
C1299 C 0.79178 0.56896 0.88155 0.0
C1300 C 0.80205 0.59755 0.87812 0.0
C1301 C 0.76315 0.56279 0.86939 0.0
C1302 C 0.79437 0.56326 0.91031 0.0
C1303 C 0.81091 0.54345 0.91419 0.0
C1304 C 0.81714 0.53536 0.93918 0.0
C1305 C 0.80652 0.54808 0.96082 0.0
C1306 C 0.78989 0.56879 0.95746 0.0
C1307 C 0.78351 0.57616 0.93173 0.0
H1308 H 0.7037 0.53845 0.18691 0.0
H1309 H 0.63161 0.57862 0.18861 0.0
H1310 H 0.64084 0.59756 0.1472 0.0
H1311 H 0.74317 0.59107 0.16045 0.0
H1312 H 0.76041 0.56894 0.14 0.0
H1313 H 0.74844 0.55855 0.17013 0.0
H1314 H 0.72248 0.5178 0.14393 0.0
H1315 H 0.73413 0.52824 0.11367 0.0
H1316 H 0.69913 0.52245 0.11662 0.0
H1317 H 0.65693 0.61192 0.10582 0.0
H1318 H 0.68067 0.62333 0.06762 0.0
H1319 H 0.74272 0.57415 0.09125 0.0
C1320 C 0.69 0.55142 0.17869 0.0
C1321 C 0.66688 0.55699 0.19114 0.0
C1322 C 0.6494 0.57394 0.17956 0.0
C1323 C 0.65443 0.58479 0.15594 0.0
C1324 C 0.67702 0.57855 0.14397 0.0
C1325 C 0.69468 0.56245 0.15493 0.0
C1326 C 0.71756 0.55919 0.13783 0.0
C1327 C 0.74396 0.5701 0.15301 0.0
C1328 C 0.71836 0.53019 0.1274 0.0
C1329 C 0.70996 0.57607 0.11566 0.0
C1330 C 0.68641 0.58689 0.11969 0.0
C1331 C 0.67539 0.60357 0.10242 0.0
C1332 C 0.68905 0.60991 0.08073 0.0
C1333 C 0.71354 0.59961 0.07632 0.0
C1334 C 0.72389 0.58207 0.09386 0.0
H1335 H 0.71445 0.46784 0.44376 0.0
H1336 H 0.77931 0.42342 0.42038 0.0
H1337 H 0.77417 0.43921 0.37595 0.0
H1338 H 0.67452 0.4533 0.38424 0.0
H1339 H 0.66146 0.4851 0.38403 0.0
H1340 H 0.67207 0.47281 0.41484 0.0
H1341 H 0.70381 0.51501 0.42689 0.0
H1342 H 0.69327 0.52745 0.39607 0.0
H1343 H 0.72789 0.52442 0.40453 0.0
H1344 H 0.76003 0.457 0.33328 0.0
H1345 H 0.73708 0.47436 0.29488 0.0
H1346 H 0.68073 0.5069 0.34532 0.0
C1347 C 0.72793 0.46189 0.42946 0.0
C1348 C 0.74747 0.44458 0.43564 0.0
C1349 C 0.7643 0.43676 0.41616 0.0
C1350 C 0.76157 0.44569 0.39088 0.0
C1351 C 0.74188 0.46241 0.3853 0.0
C1352 C 0.72531 0.47044 0.404 0.0
C1353 C 0.7045 0.4869 0.39229 0.0
C1354 C 0.67649 0.47373 0.39395 0.0
C1355 C 0.70757 0.51512 0.40575 0.0
C1356 C 0.71167 0.48646 0.36398 0.0
C1357 C 0.73347 0.47246 0.36048 0.0
C1358 C 0.74311 0.46823 0.33584 0.0
C1359 C 0.7299 0.47818 0.31412 0.0
C1360 C 0.70718 0.49216 0.31705 0.0
C1361 C 0.69827 0.49667 0.34246 0.0
H1362 H 0.82001 0.49449 0.68754 0.0
H1363 H 0.87974 0.4405 0.70398 0.0
H1364 H 0.86732 0.41584 0.66078 0.0
H1365 H 0.77077 0.4457 0.65041 0.0
H1366 H 0.76086 0.46832 0.62688 0.0
H1367 H 0.77287 0.4806 0.66008 0.0
H1368 H 0.8084 0.51165 0.64175 0.0
H1369 H 0.79677 0.4992 0.60852 0.0
H1370 H 0.83101 0.49792 0.62002 0.0
H1371 H 0.85041 0.39818 0.6158 0.0
H1372 H 0.82834 0.38695 0.57129 0.0
H1373 H 0.78006 0.45284 0.58204 0.0
C1374 C 0.82998 0.47711 0.68221 0.0
C1375 C 0.85068 0.46922 0.69915 0.0
C1376 C 0.86379 0.4468 0.6913 0.0
C1377 C 0.8569 0.43269 0.6668 0.0
C1378 C 0.837 0.44135 0.65023 0.0
C1379 C 0.82357 0.46292 0.65751 0.0
C1380 C 0.80374 0.46852 0.63526 0.0
C1381 C 0.77538 0.4656 0.64366 0.0
C1382 C 0.81039 0.49595 0.62584 0.0
C1383 C 0.80827 0.44678 0.61441 0.0
C1384 C 0.82752 0.43137 0.62364 0.0
C1385 C 0.83523 0.41002 0.60833 0.0
C1386 C 0.82259 0.40384 0.58304 0.0
C1387 C 0.80251 0.41903 0.57313 0.0
C1388 C 0.79552 0.44103 0.58896 0.0
H1389 H 0.4028 0.09922 0.23082 0.0
H1390 H 0.46875 0.06597 0.2714 0.0
H1391 H 0.49919 0.10236 0.259 0.0
H1392 H 0.43747 0.11649 0.17608 0.0
H1393 H 0.42136 0.14623 0.1717 0.0
H1394 H 0.40447 0.11919 0.18592 0.0
H1395 H 0.39742 0.15018 0.22701 0.0
H1396 H 0.41424 0.17736 0.21289 0.0
H1397 H 0.42556 0.16878 0.24519 0.0
H1398 H 0.52228 0.1421 0.24192 0.0
H1399 H 0.53731 0.18013 0.21841 0.0
H1400 H 0.45678 0.18562 0.18578 0.0
C1401 C 0.4236 0.0999 0.23752 0.0
C1402 C 0.43344 0.08008 0.25248 0.0
C1403 C 0.46084 0.08111 0.26014 0.0
C1404 C 0.47822 0.10171 0.25323 0.0
C1405 C 0.4679 0.12082 0.23827 0.0
C1406 C 0.44127 0.11994 0.23025 0.0
C1407 C 0.43555 0.14173 0.2126 0.0
C1408 C 0.42404 0.13021 0.18494 0.0
C1409 C 0.4171 0.16063 0.22518 0.0
C1410 C 0.46314 0.15505 0.21193 0.0
C1411 C 0.48143 0.14289 0.22719 0.0
C1412 C 0.50815 0.15173 0.22989 0.0
C1413 C 0.51647 0.17341 0.21648 0.0
C1414 C 0.49823 0.18583 0.2002 0.0
C1415 C 0.47119 0.17649 0.19799 0.0
H1416 H 0.03271 0.85367 0.64793 0.0
H1417 H 0.03928 0.81005 0.71747 0.0
H1418 H 0.05274 0.85163 0.74495 0.0
H1419 H 0.08852 0.89795 0.66505 0.0
H1420 H 0.0743 0.926 0.65212 0.0
H1421 H 0.06286 0.89319 0.63828 0.0
H1422 H 0.01483 0.90203 0.64739 0.0
H1423 H 0.02616 0.93492 0.66134 0.0
H1424 H 1.00764 0.91284 0.68034 0.0
H1425 H 0.07036 0.89671 0.76394 0.0
H1426 H 0.08982 0.9427 0.77342 0.0
H1427 H 0.06967 0.95787 0.69229 0.0
C1428 C 0.03663 0.85286 0.66899 0.0
C1429 C 0.03493 0.82853 0.68053 0.0
C1430 C 0.04034 0.8284 0.70816 0.0
C1431 C 0.04796 0.85194 0.72396 0.0
C1432 C 0.04973 0.87549 0.7119 0.0
C1433 C 0.04402 0.87619 0.68508 0.0
C1434 C 0.04874 0.90396 0.67686 0.0
C1435 C 0.06986 0.90534 0.65691 0.0
C1436 C 0.02279 0.91403 0.66584 0.0
C1437 C 0.05874 0.91867 0.70315 0.0
C1438 C 0.05904 0.90184 0.7231 0.0
C1439 C 0.06967 0.9102 0.74864 0.0
C1440 C 0.08068 0.9363 0.75383 0.0
C1441 C 0.08068 0.95381 0.7337 0.0
C1442 C 0.0691 0.94504 0.70818 0.0
H1443 H 0.44972 0.83788 0.35625 0.0
H1444 H 0.503 0.81606 0.29734 0.0
H1445 H 0.49199 0.85416 0.27335 0.0
H1446 H 0.39945 0.8618 0.31027 0.0
H1447 H 0.39266 0.88869 0.33314 0.0
H1448 H 0.40355 0.85881 0.34527 0.0
H1449 H 0.44233 0.88604 0.3735 0.0
H1450 H 0.43171 0.91597 0.36126 0.0
H1451 H 0.465 0.90737 0.35774 0.0
H1452 H 0.47751 0.89526 0.25674 0.0
H1453 H 0.45827 0.93636 0.24681 0.0
H1454 H 0.41364 0.93288 0.31576 0.0
C1455 C 0.4587 0.84092 0.33808 0.0
C1456 C 0.47721 0.82386 0.32867 0.0
C1457 C 0.48879 0.82875 0.30499 0.0
C1458 C 0.48269 0.8504 0.29119 0.0
C1459 C 0.46489 0.8671 0.30121 0.0
C1460 C 0.45284 0.86262 0.32396 0.0
C1461 C 0.43482 0.88419 0.33051 0.0
C1462 C 0.4059 0.87268 0.32975 0.0
C1463 C 0.44402 0.89928 0.35735 0.0
C1464 C 0.43887 0.9015 0.30801 0.0
C1465 C 0.45634 0.89115 0.29143 0.0
C1466 C 0.46367 0.90351 0.26948 0.0
C1467 C 0.45265 0.92695 0.26405 0.0
C1468 C 0.43438 0.93795 0.28045 0.0
C1469 C 0.42754 0.92503 0.30284 0.0
H1470 H 0.85202 0.65338 0.03315 0.0
H1471 H 0.80309 0.71374 0.06145 0.0
H1472 H 0.84316 0.74107 0.08079 0.0
H1473 H 0.89843 0.65862 0.08812 0.0
H1474 H 0.92668 0.65385 0.06965 0.0
H1475 H 0.89435 0.63984 0.05642 0.0
H1476 H 0.89928 0.66403 0.01411 0.0
H1477 H 0.93169 0.67811 0.02721 0.0
H1478 H 0.90685 0.69929 0.01687 0.0
H1479 H 0.88768 0.75917 0.10155 0.0
H1480 H 0.93435 0.76853 0.11949 0.0
H1481 H 0.95495 0.69832 0.07497 0.0
C1482 C 0.84975 0.67248 0.04316 0.0
C1483 C 0.82441 0.68141 0.04587 0.0
C1484 C 0.82228 0.70654 0.05904 0.0
C1485 C 0.84492 0.7222 0.0701 0.0
C1486 C 0.86956 0.71265 0.0674 0.0
C1487 C 0.87216 0.68855 0.05393 0.0
C1488 C 0.9009 0.6826 0.05445 0.0
C1489 C 0.90534 0.65723 0.06797 0.0
C1490 C 0.91023 0.68092 0.02649 0.0
C1491 C 0.91399 0.70678 0.07095 0.0
C1492 C 0.8955 0.72383 0.07827 0.0
C1493 C 0.90242 0.74632 0.09547 0.0
C1494 C 0.92888 0.75144 0.10559 0.0
C1495 C 0.94811 0.73439 0.09814 0.0
C1496 C 0.94065 0.71201 0.08032 0.0
H1497 H 0.61321 0.25853 0.56677 0.0
H1498 H 0.56511 0.323 0.58488 0.0
H1499 H 0.59484 0.35278 0.5624 0.0
H1500 H 0.67527 0.2976 0.57934 0.0
H1501 H 0.69095 0.2802 0.55356 0.0
H1502 H 0.6648 0.26347 0.56927 0.0
H1503 H 0.63886 0.25111 0.52368 0.0
H1504 H 0.66486 0.26802 0.50784 0.0
H1505 H 0.63133 0.27678 0.5027 0.0
H1506 H 0.62931 0.37541 0.53812 0.0
H1507 H 0.66947 0.39147 0.5186 0.0
H1508 H 0.69758 0.31324 0.51839 0.0
C1509 C 0.60887 0.27888 0.56579 0.0
C1510 C 0.58673 0.28846 0.57734 0.0
C1511 C 0.58194 0.31529 0.57615 0.0
C1512 C 0.59862 0.33228 0.56328 0.0
C1513 C 0.62021 0.32223 0.552 0.0
C1514 C 0.62567 0.29629 0.55347 0.0
C1515 C 0.65131 0.2911 0.5414 0.0
C1516 C 0.67179 0.2826 0.56213 0.0
C1517 C 0.64628 0.27053 0.51748 0.0
C1518 C 0.65944 0.31823 0.53301 0.0
C1519 C 0.64092 0.3357 0.53895 0.0
C1520 C 0.64399 0.36195 0.53343 0.0
C1521 C 0.66694 0.37084 0.52223 0.0
C1522 C 0.68688 0.35369 0.51694 0.0
C1523 C 0.68273 0.32686 0.52201 0.0
H1524 H 0.24215 0.40252 0.10371 0.0
H1525 H 0.29321 0.46598 0.07815 0.0
H1526 H 0.28223 0.49554 0.11578 0.0
H1527 H 0.19138 0.44218 0.12104 0.0
H1528 H 0.18304 0.42472 0.14899 0.0
H1529 H 0.19701 0.40781 0.1218 0.0
H1530 H 0.23468 0.3943 0.15377 0.0
H1531 H 0.22078 0.41114 0.1811 0.0
H1532 H 0.25471 0.41939 0.17497 0.0
H1533 H 0.26447 0.51853 0.15516 0.0
H1534 H 0.23938 0.53431 0.19176 0.0
H1535 H 0.1979 0.45649 0.19049 0.0
C1536 C 0.25145 0.42249 0.10633 0.0
C1537 C 0.26885 0.43187 0.08819 0.0
C1538 C 0.27999 0.45834 0.09189 0.0
C1539 C 0.27391 0.47523 0.11324 0.0
C1540 C 0.25644 0.46543 0.13056 0.0
C1541 C 0.24524 0.43972 0.12725 0.0
C1542 C 0.22554 0.43466 0.14749 0.0
C1543 C 0.19759 0.42689 0.13402 0.0
C1544 C 0.23447 0.41363 0.16539 0.0
C1545 C 0.22723 0.46163 0.16258 0.0
C1546 C 0.24544 0.47897 0.15269 0.0
C1547 C 0.25023 0.50511 0.16311 0.0
C1548 C 0.23587 0.51386 0.18396 0.0
C1549 C 0.21664 0.49665 0.19407 0.0
C1550 C 0.21249 0.47011 0.18329 0.0
H1551 H 0.32889 0.49776 0.84675 0.0
H1552 H 0.38832 0.44444 0.82773 0.0
H1553 H 0.38093 0.42225 0.8682 0.0
H1554 H 0.34503 0.50516 0.91659 0.0
H1555 H 0.31115 0.50588 0.92441 0.0
H1556 H 0.32092 0.51734 0.89386 0.0
H1557 H 0.28498 0.48451 0.86769 0.0
H1558 H 0.27493 0.47313 0.89816 0.0
H1559 H 0.28429 0.44993 0.87279 0.0
H1560 H 0.36719 0.40621 0.9114 0.0
H1561 H 0.34668 0.39623 0.9522 0.0
H1562 H 0.29636 0.46019 0.94261 0.0
C1563 C 0.3403 0.48134 0.85098 0.0
C1564 C 0.3592 0.47284 0.834 0.0
C1565 C 0.37368 0.45127 0.84036 0.0
C1566 C 0.36968 0.4386 0.86337 0.0
C1567 C 0.35111 0.44769 0.87982 0.0
C1568 C 0.33654 0.46847 0.87379 0.0
C1569 C 0.31762 0.47433 0.89456 0.0
C1570 C 0.32408 0.50234 0.90816 0.0
C1571 C 0.28875 0.47022 0.88258 0.0
C1572 C 0.32378 0.45361 0.91325 0.0
C1573 C 0.34322 0.43849 0.90449 0.0
C1574 C 0.35197 0.41796 0.91842 0.0
C1575 C 0.34026 0.41248 0.94165 0.0
C1576 C 0.31996 0.42745 0.95072 0.0
C1577 C 0.31192 0.44845 0.93636 0.0
H1578 H 0.31896 0.58599 0.59019 0.0
H1579 H 0.23681 0.56258 0.60046 0.0
H1580 H 0.25079 0.53825 0.63825 0.0
H1581 H 0.34413 0.52361 0.60666 0.0
H1582 H 0.37445 0.53937 0.62346 0.0
H1583 H 0.35802 0.55451 0.59675 0.0
H1584 H 0.3566 0.59735 0.62728 0.0
H1585 H 0.37302 0.58236 0.65404 0.0
H1586 H 0.34171 0.59573 0.65807 0.0
H1587 H 0.27353 0.51942 0.67728 0.0
H1588 H 0.30382 0.50504 0.71271 0.0
H1589 H 0.37102 0.53798 0.67521 0.0
C1590 C 0.30395 0.57559 0.60029 0.0
C1591 C 0.2768 0.57623 0.59238 0.0
C1592 C 0.25775 0.56231 0.60608 0.0
C1593 C 0.26547 0.54844 0.62762 0.0
C1594 C 0.29236 0.54832 0.63505 0.0
C1595 C 0.31134 0.56126 0.62162 0.0
C1596 C 0.33892 0.55805 0.6337 0.0
C1597 C 0.35481 0.54299 0.61396 0.0
C1598 C 0.3534 0.58497 0.64388 0.0
C1599 C 0.33244 0.5417 0.65624 0.0
C1600 C 0.30547 0.53641 0.65679 0.0
C1601 C 0.29472 0.52306 0.67681 0.0
C1602 C 0.31202 0.51499 0.69686 0.0
C1603 C 0.33973 0.51998 0.69647 0.0
C1604 C 0.34994 0.5333 0.67571 0.0
H1605 H 0.20499 0.57395 0.32379 0.0
H1606 H 0.16329 0.50206 0.34421 0.0
H1607 H 0.18019 0.51249 0.39092 0.0
H1608 H 0.26283 0.57592 0.37274 0.0
H1609 H 0.26388 0.61116 0.37987 0.0
H1610 H 0.25169 0.5963 0.34755 0.0
H1611 H 0.20789 0.61842 0.35145 0.0
H1612 H 0.21989 0.63325 0.38376 0.0
H1613 H 0.18897 0.61296 0.37922 0.0
H1614 H 0.19959 0.53151 0.43531 0.0
H1615 H 0.21728 0.55954 0.47534 0.0
H1616 H 0.24368 0.62097 0.42684 0.0
C1617 C 0.20004 0.56018 0.33809 0.0
C1618 C 0.1833 0.53701 0.33057 0.0
C1619 C 0.17634 0.51979 0.34975 0.0
C1620 C 0.18589 0.5255 0.37623 0.0
C1621 C 0.20203 0.54872 0.3832 0.0
C1622 C 0.20888 0.56594 0.36477 0.0
C1623 C 0.22417 0.59084 0.37794 0.0
C1624 C 0.25232 0.59371 0.36899 0.0
C1625 C 0.20934 0.6153 0.37279 0.0
C1626 C 0.2245 0.58504 0.40661 0.0
C1627 C 0.21206 0.56043 0.40912 0.0
C1628 C 0.20948 0.55079 0.43363 0.0
C1629 C 0.21961 0.56686 0.45625 0.0
C1630 C 0.23179 0.59247 0.45424 0.0
C1631 C 0.23442 0.60151 0.42903 0.0
loop_
_geom_bond_atom_site_label_1
_geom_bond_atom_site_label_2
_geom_bond_distance
_geom_bond_site_symmetry_2
_ccdc_geom_bond_type
O0 Cd1 2.223 . S
O0 C8 1.315 . S
Cd1 O0 2.223 . S
Cd1 O4 2.297 . S
Cd1 O5 2.439 . S
Cd1 O11 2.240 1_455 S
Cd2 O3 2.240 1_655 S
Cd2 O10 2.223 . S
Cd2 O12 2.297 . S
Cd2 O13 2.439 . S
O3 Cd2 2.240 1_455 S
O3 C8 1.279 . S
O4 Cd1 2.297 . S
O4 C6 1.247 . S
O5 Cd1 2.439 . S
O5 C6 1.208 . S
C6 O4 1.247 . S
C6 O5 1.208 . S
C7 O12 1.247 . S
C7 O13 1.208 . S
C8 O0 1.315 . S
C8 O3 1.279 . S
C9 O10 1.315 . S
C9 O11 1.279 . S
O10 Cd2 2.223 . S
O10 C9 1.315 . S
O11 Cd1 2.240 1_655 S
O11 C9 1.279 . S
O12 Cd2 2.297 . S
O12 C7 1.247 . S
O13 Cd2 2.439 . S
O13 C7 1.208 . S
O14 Cd15 2.223 . S
O14 C22 1.315 . S
Cd15 O14 2.223 . S
Cd15 O18 2.297 . S
Cd15 O19 2.439 1_455 S
Cd15 O25 2.240 . S
Cd16 O17 2.240 . S
Cd16 O24 2.223 . S
Cd16 O26 2.297 1_455 S
Cd16 O27 2.439 1_455 S
O17 Cd16 2.240 . S
O17 C22 1.279 . S
O18 Cd15 2.297 . S
O18 C20 1.247 1_455 S
O19 Cd15 2.439 1_655 S
O19 C20 1.208 . S
C20 O18 1.247 1_655 S
C20 O19 1.208 . S
C21 O26 1.247 . S
C21 O27 1.208 . S
C22 O14 1.315 . S
C22 O17 1.279 . S
C23 O24 1.315 . S
C23 O25 1.279 . S
O24 Cd16 2.223 . S
O24 C23 1.315 . S
O25 Cd15 2.240 . S
O25 C23 1.279 . S
O26 Cd16 2.297 1_655 S
O26 C21 1.247 . S
O27 Cd16 2.439 1_655 S
O27 C21 1.208 . S
O28 Cd29 2.223 . S
O28 C36 1.315 . S
Cd29 O28 2.223 . S
Cd29 O32 2.297 . S
Cd29 O33 2.439 . S
Cd29 O39 2.240 . S
Cd30 O31 2.240 . S
Cd30 O38 2.223 . S
Cd30 O40 2.297 . S
Cd30 O41 2.439 . S
O31 Cd30 2.240 . S
O31 C36 1.279 . S
O32 Cd29 2.297 . S
O32 C34 1.247 . S
O33 Cd29 2.439 . S
O33 C34 1.208 . S
C34 O32 1.247 . S
C34 O33 1.208 . S
C35 O40 1.247 . S
C35 O41 1.208 . S
C36 O28 1.315 . S
C36 O31 1.279 . S
C37 O38 1.315 . S
C37 O39 1.279 . S
O38 Cd30 2.223 . S
O38 C37 1.315 . S
O39 Cd29 2.240 . S
O39 C37 1.279 . S
O40 Cd30 2.297 . S
O40 C35 1.247 . S
O41 Cd30 2.439 . S
O41 C35 1.208 . S
O42 Cd43 2.223 . S
O42 C50 1.315 . S
Cd43 O42 2.223 . S
Cd43 O46 2.297 . S
Cd43 O47 2.439 . S
Cd43 O53 2.240 . S
Cd44 O45 2.240 . S
Cd44 O52 2.223 . S
Cd44 O54 2.297 . S
Cd44 O55 2.439 . S
O45 Cd44 2.240 . S
O45 C50 1.279 . S
O46 Cd43 2.297 . S
O46 C48 1.247 . S
O47 Cd43 2.439 . S
O47 C48 1.208 . S
C48 O46 1.247 . S
C48 O47 1.208 . S
C49 O54 1.247 . S
C49 O55 1.208 . S
C50 O42 1.315 . S
C50 O45 1.279 . S
C51 O52 1.315 . S
C51 O53 1.279 . S
O52 Cd44 2.223 . S
O52 C51 1.315 . S
O53 Cd43 2.240 . S
O53 C51 1.279 . S
O54 Cd44 2.297 . S
O54 C49 1.247 . S
O55 Cd44 2.439 . S
O55 C49 1.208 . S
O56 Cd57 2.223 . S
O56 C64 1.315 . S
Cd57 O56 2.223 . S
Cd57 O60 2.297 . S
Cd57 O61 2.439 . S
Cd57 O67 2.240 1_455 S
Cd58 O59 2.240 1_655 S
Cd58 O66 2.223 . S
Cd58 O68 2.297 . S
Cd58 O69 2.439 . S
O59 Cd58 2.240 1_455 S
O59 C64 1.279 . S
O60 Cd57 2.297 . S
O60 C62 1.247 . S
O61 Cd57 2.439 . S
O61 C62 1.208 . S
C62 O60 1.247 . S
C62 O61 1.208 . S
C63 O68 1.247 . S
C63 O69 1.208 . S
C64 O56 1.315 . S
C64 O59 1.279 . S
C65 O66 1.315 . S
C65 O67 1.279 . S
O66 Cd58 2.223 . S
O66 C65 1.315 . S
O67 Cd57 2.240 1_655 S
O67 C65 1.279 . S
O68 Cd58 2.297 . S
O68 C63 1.247 . S
O69 Cd58 2.439 . S
O69 C63 1.208 . S
O70 Cd71 2.223 . S
O70 C78 1.315 . S
Cd71 O70 2.223 . S
Cd71 O74 2.297 . S
Cd71 O75 2.439 . S
Cd71 O81 2.240 . S
Cd72 O73 2.240 . S
Cd72 O80 2.223 . S
Cd72 O82 2.297 . S
Cd72 O83 2.439 . S
O73 Cd72 2.240 . S
O73 C78 1.279 . S
O74 Cd71 2.297 . S
O74 C76 1.247 . S
O75 Cd71 2.439 . S
O75 C76 1.208 . S
C76 O74 1.247 . S
C76 O75 1.208 . S
C77 O82 1.247 . S
C77 O83 1.208 . S
C78 O70 1.315 . S
C78 O73 1.279 . S
C79 O80 1.315 . S
C79 O81 1.279 . S
O80 Cd72 2.223 . S
O80 C79 1.315 . S
O81 Cd71 2.240 . S
O81 C79 1.279 . S
O82 Cd72 2.297 . S
O82 C77 1.247 . S
O83 Cd72 2.439 . S
O83 C77 1.208 . S
O84 Cd85 2.223 . S
O84 C92 1.315 . S
Cd85 O84 2.223 . S
Cd85 O88 2.297 . S
Cd85 O89 2.439 . S
Cd85 O95 2.240 . S
Cd86 O87 2.240 . S
Cd86 O94 2.223 . S
Cd86 O96 2.297 . S
Cd86 O97 2.439 . S
O87 Cd86 2.240 . S
O87 C92 1.279 . S
O88 Cd85 2.297 . S
O88 C90 1.247 . S
O89 Cd85 2.439 . S
O89 C90 1.208 . S
C90 O88 1.247 . S
C90 O89 1.208 . S
C91 O96 1.247 . S
C91 O97 1.208 . S
C92 O84 1.315 . S
C92 O87 1.279 . S
C93 O94 1.315 . S
C93 O95 1.279 . S
O94 Cd86 2.223 . S
O94 C93 1.315 . S
O95 Cd85 2.240 . S
O95 C93 1.279 . S
O96 Cd86 2.297 . S
O96 C91 1.247 . S
O97 Cd86 2.439 . S
O97 C91 1.208 . S
O98 Cd99 2.223 . S
O98 C106 1.315 . S
Cd99 O98 2.223 . S
Cd99 O102 2.297 1_455 S
Cd99 O103 2.439 1_455 S
Cd99 O109 2.240 . S
Cd100 O101 2.240 . S
Cd100 O108 2.223 . S
Cd100 O110 2.297 . S
Cd100 O111 2.439 1_455 S
O101 Cd100 2.240 . S
O101 C106 1.279 . S
O102 Cd99 2.297 1_655 S
O102 C104 1.247 . S
O103 Cd99 2.439 1_655 S
O103 C104 1.208 . S
C104 O102 1.247 . S
C104 O103 1.208 . S
C105 O110 1.247 1_655 S
C105 O111 1.208 . S
C106 O98 1.315 . S
C106 O101 1.279 . S
C107 O108 1.315 . S
C107 O109 1.279 . S
O108 Cd100 2.223 . S
O108 C107 1.315 . S
O109 Cd99 2.240 . S
O109 C107 1.279 . S
O110 Cd100 2.297 . S
O110 C105 1.247 1_455 S
O111 Cd100 2.439 1_655 S
O111 C105 1.208 . S
O112 Cd113 2.223 . S
O112 C120 1.315 . S
Cd113 O112 2.223 . S
Cd113 O116 2.297 . S
Cd113 O117 2.439 . S
Cd113 O123 2.240 1_545 S
Cd114 O115 2.240 1_565 S
Cd114 O122 2.223 . S
Cd114 O124 2.297 . S
Cd114 O125 2.439 . S
O115 Cd114 2.240 1_545 S
O115 C120 1.279 . S
O116 Cd113 2.297 . S
O116 C118 1.247 . S
O117 Cd113 2.439 . S
O117 C118 1.208 . S
C118 O116 1.247 . S
C118 O117 1.208 . S
C119 O124 1.247 . S
C119 O125 1.208 . S
C120 O112 1.315 . S
C120 O115 1.279 . S
C121 O122 1.315 . S
C121 O123 1.279 . S
O122 Cd114 2.223 . S
O122 C121 1.315 . S
O123 Cd113 2.240 1_565 S
O123 C121 1.279 . S
O124 Cd114 2.297 . S
O124 C119 1.247 . S
O125 Cd114 2.439 . S
O125 C119 1.208 . S
O126 Cd127 2.223 . S
O126 C134 1.315 . S
Cd127 O126 2.223 . S
Cd127 O130 2.297 . S
Cd127 O131 2.439 . S
Cd127 O137 2.240 . S
Cd128 O129 2.240 . S
Cd128 O136 2.223 . S
Cd128 O138 2.297 . S
Cd128 O139 2.439 . S
O129 Cd128 2.240 . S
O129 C134 1.279 . S
O130 Cd127 2.297 . S
O130 C132 1.247 . S
O131 Cd127 2.439 . S
O131 C132 1.208 . S
C132 O130 1.247 . S
C132 O131 1.208 . S
C133 O138 1.247 . S
C133 O139 1.208 . S
C134 O126 1.315 . S
C134 O129 1.279 . S
C135 O136 1.315 . S
C135 O137 1.279 . S
O136 Cd128 2.223 . S
O136 C135 1.315 . S
O137 Cd127 2.240 . S
O137 C135 1.279 . S
O138 Cd128 2.297 . S
O138 C133 1.247 . S
O139 Cd128 2.439 . S
O139 C133 1.208 . S
O140 Cd141 2.223 . S
O140 C148 1.315 . S
Cd141 O140 2.223 . S
Cd141 O144 2.297 . S
Cd141 O145 2.439 . S
Cd141 O151 2.240 1_545 S
Cd142 O143 2.240 1_565 S
Cd142 O150 2.223 . S
Cd142 O152 2.297 . S
Cd142 O153 2.439 . S
O143 Cd142 2.240 1_545 S
O143 C148 1.279 . S
O144 Cd141 2.297 . S
O144 C146 1.247 . S
O145 Cd141 2.439 . S
O145 C146 1.208 . S
C146 O144 1.247 . S
C146 O145 1.208 . S
C147 O152 1.247 . S
C147 O153 1.208 . S
C148 O140 1.315 . S
C148 O143 1.279 . S
C149 O150 1.315 . S
C149 O151 1.279 . S
O150 Cd142 2.223 . S
O150 C149 1.315 . S
O151 Cd141 2.240 1_565 S
O151 C149 1.279 . S
O152 Cd142 2.297 . S
O152 C147 1.247 . S
O153 Cd142 2.439 . S
O153 C147 1.208 . S
O154 Cd155 2.223 . S
O154 C162 1.315 . S
Cd155 O154 2.223 . S
Cd155 O158 2.297 1_554 S
Cd155 O159 2.439 1_554 S
Cd155 O165 2.240 . S
Cd156 O157 2.240 . S
Cd156 O164 2.223 . S
Cd156 O166 2.297 . S
Cd156 O167 2.439 1_554 S
O157 Cd156 2.240 . S
O157 C162 1.279 . S
O158 Cd155 2.297 1_556 S
O158 C160 1.247 . S
O159 Cd155 2.439 1_556 S
O159 C160 1.208 . S
C160 O158 1.247 . S
C160 O159 1.208 . S
C161 O166 1.247 1_556 S
C161 O167 1.208 . S
C162 O154 1.315 . S
C162 O157 1.279 . S
C163 O164 1.315 . S
C163 O165 1.279 . S
O164 Cd156 2.223 . S
O164 C163 1.315 . S
O165 Cd155 2.240 . S
O165 C163 1.279 . S
O166 Cd156 2.297 . S
O166 C161 1.247 1_554 S
O167 Cd156 2.439 1_556 S
O167 C161 1.208 . S
O168 Cd169 2.223 . S
O168 C176 1.315 . S
Cd169 O168 2.223 . S
Cd169 O172 2.297 . S
Cd169 O173 2.439 . S
Cd169 O179 2.240 1_554 S
Cd170 O171 2.240 1_556 S
Cd170 O178 2.223 . S
Cd170 O180 2.297 . S
Cd170 O181 2.439 . S
O171 Cd170 2.240 1_554 S
O171 C176 1.279 . S
O172 Cd169 2.297 . S
O172 C174 1.247 . S
O173 Cd169 2.439 . S
O173 C174 1.208 . S
C174 O172 1.247 . S
C174 O173 1.208 . S
C175 O180 1.247 . S
C175 O181 1.208 . S
C176 O168 1.315 . S
C176 O171 1.279 . S
C177 O178 1.315 . S
C177 O179 1.279 . S
O178 Cd170 2.223 . S
O178 C177 1.315 . S
O179 Cd169 2.240 1_556 S
O179 C177 1.279 . S
O180 Cd170 2.297 . S
O180 C175 1.247 . S
O181 Cd170 2.439 . S
O181 C175 1.208 . S
O182 Cd183 2.223 . S
O182 C190 1.315 . S
Cd183 O182 2.223 . S
Cd183 O186 2.297 . S
Cd183 O187 2.439 . S
Cd183 O193 2.240 1_554 S
Cd184 O185 2.240 1_556 S
Cd184 O192 2.223 . S
Cd184 O194 2.297 . S
Cd184 O195 2.439 . S
O185 Cd184 2.240 1_554 S
O185 C190 1.279 . S
O186 Cd183 2.297 . S
O186 C188 1.247 . S
O187 Cd183 2.439 . S
O187 C188 1.208 . S
C188 O186 1.247 . S
C188 O187 1.208 . S
C189 O194 1.247 . S
C189 O195 1.208 . S
C190 O182 1.315 . S
C190 O185 1.279 . S
C191 O192 1.315 . S
C191 O193 1.279 . S
O192 Cd184 2.223 . S
O192 C191 1.315 . S
O193 Cd183 2.240 1_556 S
O193 C191 1.279 . S
O194 Cd184 2.297 . S
O194 C189 1.247 . S
O195 Cd184 2.439 . S
O195 C189 1.208 . S
O196 Cd197 2.223 . S
O196 C204 1.315 . S
Cd197 O196 2.223 . S
Cd197 O200 2.297 . S
Cd197 O201 2.439 . S
Cd197 O207 2.240 . S
Cd198 O199 2.240 . S
Cd198 O206 2.223 . S
Cd198 O208 2.297 . S
Cd198 O209 2.439 . S
O199 Cd198 2.240 . S
O199 C204 1.279 . S
O200 Cd197 2.297 . S
O200 C202 1.247 . S
O201 Cd197 2.439 . S
O201 C202 1.208 . S
C202 O200 1.247 . S
C202 O201 1.208 . S
C203 O208 1.247 . S
C203 O209 1.208 . S
C204 O196 1.315 . S
C204 O199 1.279 . S
C205 O206 1.315 . S
C205 O207 1.279 . S
O206 Cd198 2.223 . S
O206 C205 1.315 . S
O207 Cd197 2.240 . S
O207 C205 1.279 . S
O208 Cd198 2.297 . S
O208 C203 1.247 . S
O209 Cd198 2.439 . S
O209 C203 1.208 . S
O210 Cd211 2.223 . S
O210 C218 1.315 . S
Cd211 O210 2.223 . S
Cd211 O214 2.297 . S
Cd211 O215 2.439 . S
Cd211 O221 2.240 . S
Cd212 O213 2.240 . S
Cd212 O220 2.223 . S
Cd212 O222 2.297 . S
Cd212 O223 2.439 . S
O213 Cd212 2.240 . S
O213 C218 1.279 . S
O214 Cd211 2.297 . S
O214 C216 1.247 . S
O215 Cd211 2.439 . S
O215 C216 1.208 . S
C216 O214 1.247 . S
C216 O215 1.208 . S
C217 O222 1.247 . S
C217 O223 1.208 . S
C218 O210 1.315 . S
C218 O213 1.279 . S
C219 O220 1.315 . S
C219 O221 1.279 . S
O220 Cd212 2.223 . S
O220 C219 1.315 . S
O221 Cd211 2.240 . S
O221 C219 1.279 . S
O222 Cd212 2.297 . S
O222 C217 1.247 . S
O223 Cd212 2.439 . S
O223 C217 1.208 . S
O224 Cd225 2.223 . S
O224 C232 1.315 . S
Cd225 O224 2.223 . S
Cd225 O228 2.297 1_545 S
Cd225 O229 2.439 1_545 S
Cd225 O235 2.240 . S
Cd226 O227 2.240 . S
Cd226 O234 2.223 . S
Cd226 O236 2.297 . S
Cd226 O237 2.439 1_545 S
O227 Cd226 2.240 . S
O227 C232 1.279 . S
O228 Cd225 2.297 1_565 S
O228 C230 1.247 . S
O229 Cd225 2.439 1_565 S
O229 C230 1.208 . S
C230 O228 1.247 . S
C230 O229 1.208 . S
C231 O236 1.247 1_565 S
C231 O237 1.208 . S
C232 O224 1.315 . S
C232 O227 1.279 . S
C233 O234 1.315 . S
C233 O235 1.279 . S
O234 Cd226 2.223 . S
O234 C233 1.315 . S
O235 Cd225 2.240 . S
O235 C233 1.279 . S
O236 Cd226 2.297 . S
O236 C231 1.247 1_545 S
O237 Cd226 2.439 1_565 S
O237 C231 1.208 . S
O238 Cd239 2.223 . S
O238 C246 1.315 . S
Cd239 O238 2.223 . S
Cd239 O242 2.297 . S
Cd239 O243 2.439 . S
Cd239 O249 2.240 . S
Cd240 O241 2.240 . S
Cd240 O248 2.223 . S
Cd240 O250 2.297 . S
Cd240 O251 2.439 . S
O241 Cd240 2.240 . S
O241 C246 1.279 . S
O242 Cd239 2.297 . S
O242 C244 1.247 . S
O243 Cd239 2.439 . S
O243 C244 1.208 . S
C244 O242 1.247 . S
C244 O243 1.208 . S
C245 O250 1.247 . S
C245 O251 1.208 . S
C246 O238 1.315 . S
C246 O241 1.279 . S
C247 O248 1.315 . S
C247 O249 1.279 . S
O248 Cd240 2.223 . S
O248 C247 1.315 . S
O249 Cd239 2.240 . S
O249 C247 1.279 . S
O250 Cd240 2.297 . S
O250 C245 1.247 . S
O251 Cd240 2.439 . S
O251 C245 1.208 . S
O252 Cd253 2.223 . S
O252 C260 1.315 . S
Cd253 O252 2.223 . S
Cd253 O256 2.297 . S
Cd253 O257 2.439 . S
Cd253 O263 2.240 . S
Cd254 O255 2.240 . S
Cd254 O262 2.223 . S
Cd254 O264 2.297 . S
Cd254 O265 2.439 . S
O255 Cd254 2.240 . S
O255 C260 1.279 . S
O256 Cd253 2.297 . S
O256 C258 1.247 . S
O257 Cd253 2.439 . S
O257 C258 1.208 . S
C258 O256 1.247 . S
C258 O257 1.208 . S
C259 O264 1.247 . S
C259 O265 1.208 . S
C260 O252 1.315 . S
C260 O255 1.279 . S
C261 O262 1.315 . S
C261 O263 1.279 . S
O262 Cd254 2.223 . S
O262 C261 1.315 . S
O263 Cd253 2.240 . S
O263 C261 1.279 . S
O264 Cd254 2.297 . S
O264 C259 1.247 . S
O265 Cd254 2.439 . S
O265 C259 1.208 . S
O266 Cd267 2.223 . S
O266 C274 1.315 . S
Cd267 O266 2.223 . S
Cd267 O270 2.297 . S
Cd267 O271 2.439 1_545 S
Cd267 O277 2.240 . S
Cd268 O269 2.240 . S
Cd268 O276 2.223 . S
Cd268 O278 2.297 1_545 S
Cd268 O279 2.439 1_545 S
O269 Cd268 2.240 . S
O269 C274 1.279 . S
O270 Cd267 2.297 . S
O270 C272 1.247 1_545 S
O271 Cd267 2.439 1_565 S
O271 C272 1.208 . S
C272 O270 1.247 1_565 S
C272 O271 1.208 . S
C273 O278 1.247 . S
C273 O279 1.208 . S
C274 O266 1.315 . S
C274 O269 1.279 . S
C275 O276 1.315 . S
C275 O277 1.279 . S
O276 Cd268 2.223 . S
O276 C275 1.315 . S
O277 Cd267 2.240 . S
O277 C275 1.279 . S
O278 Cd268 2.297 1_565 S
O278 C273 1.247 . S
O279 Cd268 2.439 1_565 S
O279 C273 1.208 . S
O280 Cd281 2.223 . S
O280 C288 1.315 . S
Cd281 O280 2.223 . S
Cd281 O284 2.297 . S
Cd281 O285 2.439 1_554 S
Cd281 O291 2.240 . S
Cd282 O283 2.240 . S
Cd282 O290 2.223 . S
Cd282 O292 2.297 1_554 S
Cd282 O293 2.439 1_554 S
O283 Cd282 2.240 . S
O283 C288 1.279 . S
O284 Cd281 2.297 . S
O284 C286 1.247 1_554 S
O285 Cd281 2.439 1_556 S
O285 C286 1.208 . S
C286 O284 1.247 1_556 S
C286 O285 1.208 . S
C287 O292 1.247 . S
C287 O293 1.208 . S
C288 O280 1.315 . S
C288 O283 1.279 . S
C289 O290 1.315 . S
C289 O291 1.279 . S
O290 Cd282 2.223 . S
O290 C289 1.315 . S
O291 Cd281 2.240 . S
O291 C289 1.279 . S
O292 Cd282 2.297 1_556 S
O292 C287 1.247 . S
O293 Cd282 2.439 1_556 S
O293 C287 1.208 . S
O294 Cd295 2.223 . S
O294 C302 1.315 . S
Cd295 O294 2.223 . S
Cd295 O298 2.297 . S
Cd295 O299 2.439 . S
Cd295 O305 2.240 . S
Cd296 O297 2.240 . S
Cd296 O304 2.223 . S
Cd296 O306 2.297 . S
Cd296 O307 2.439 . S
O297 Cd296 2.240 . S
O297 C302 1.279 . S
O298 Cd295 2.297 . S
O298 C300 1.247 . S
O299 Cd295 2.439 . S
O299 C300 1.208 . S
C300 O298 1.247 . S
C300 O299 1.208 . S
C301 O306 1.247 . S
C301 O307 1.208 . S
C302 O294 1.315 . S
C302 O297 1.279 . S
C303 O304 1.315 . S
C303 O305 1.279 . S
O304 Cd296 2.223 . S
O304 C303 1.315 . S
O305 Cd295 2.240 . S
O305 C303 1.279 . S
O306 Cd296 2.297 . S
O306 C301 1.247 . S
O307 Cd296 2.439 . S
O307 C301 1.208 . S
O308 Cd309 2.223 . S
O308 C316 1.315 . S
Cd309 O308 2.223 . S
Cd309 O312 2.297 . S
Cd309 O313 2.439 . S
Cd309 O319 2.240 . S
Cd310 O311 2.240 . S
Cd310 O318 2.223 . S
Cd310 O320 2.297 . S
Cd310 O321 2.439 . S
O311 Cd310 2.240 . S
O311 C316 1.279 . S
O312 Cd309 2.297 . S
O312 C314 1.247 . S
O313 Cd309 2.439 . S
O313 C314 1.208 . S
C314 O312 1.247 . S
C314 O313 1.208 . S
C315 O320 1.247 . S
C315 O321 1.208 . S
C316 O308 1.315 . S
C316 O311 1.279 . S
C317 O318 1.315 . S
C317 O319 1.279 . S
O318 Cd310 2.223 . S
O318 C317 1.315 . S
O319 Cd309 2.240 . S
O319 C317 1.279 . S
O320 Cd310 2.297 . S
O320 C315 1.247 . S
O321 Cd310 2.439 . S
O321 C315 1.208 . S
O322 Cd323 2.223 . S
O322 C330 1.315 . S
Cd323 O322 2.223 . S
Cd323 O326 2.297 . S
Cd323 O327 2.439 . S
Cd323 O333 2.240 . S
Cd324 O325 2.240 . S
Cd324 O332 2.223 . S
Cd324 O334 2.297 . S
Cd324 O335 2.439 . S
O325 Cd324 2.240 . S
O325 C330 1.279 . S
O326 Cd323 2.297 . S
O326 C328 1.247 . S
O327 Cd323 2.439 . S
O327 C328 1.208 . S
C328 O326 1.247 . S
C328 O327 1.208 . S
C329 O334 1.247 . S
C329 O335 1.208 . S
C330 O322 1.315 . S
C330 O325 1.279 . S
C331 O332 1.315 . S
C331 O333 1.279 . S
O332 Cd324 2.223 . S
O332 C331 1.315 . S
O333 Cd323 2.240 . S
O333 C331 1.279 . S
O334 Cd324 2.297 . S
O334 C329 1.247 . S
O335 Cd324 2.439 . S
O335 C329 1.208 . S
H336 C348 0.930 . S
H337 C350 0.930 . S
H338 C351 0.930 . S
H339 C355 0.959 . S
H340 C355 0.959 . S
H341 C355 0.961 . S
H342 C356 0.960 . S
H343 C356 0.961 . S
H344 C356 0.959 . S
H345 C359 0.929 . S
H346 C360 0.931 . S
H347 C362 0.930 . S
C348 H336 0.930 . S
C348 C349 1.399 . S
C348 C353 1.399 . S
C349 C348 1.399 . S
C349 C350 1.376 . S
C350 H337 0.930 . S
C350 C349 1.376 . S
C350 C351 1.388 . S
C351 H338 0.930 . S
C351 C350 1.388 . S
C351 C352 1.390 . S
C352 C351 1.390 . S
C352 C353 1.394 . S
C352 C358 1.465 . S
C353 C348 1.399 . S
C353 C352 1.394 . S
C353 C354 1.516 . S
C354 C353 1.516 . S
C354 C355 1.502 . S
C354 C356 1.561 . S
C354 C357 1.526 . S
C355 H339 0.959 . S
C355 H340 0.959 . S
C355 H341 0.961 . S
C355 C354 1.502 . S
C356 H342 0.960 . S
C356 H343 0.961 . S
C356 H344 0.959 . S
C356 C354 1.561 . S
C357 C354 1.526 . S
C357 C358 1.396 . S
C357 C362 1.390 . S
C358 C352 1.465 . S
C358 C357 1.396 . S
C358 C359 1.399 . S
C359 H345 0.929 . S
C359 C358 1.399 . S
C359 C360 1.385 . S
C360 H346 0.931 . S
C360 C359 1.385 . S
C360 C361 1.389 . S
C361 C360 1.389 . S
C361 C362 1.387 . S
C362 H347 0.930 . S
C362 C357 1.390 . S
C362 C361 1.387 . S
H363 C375 0.930 . S
H364 C377 0.930 . S
H365 C378 0.930 . S
H366 C382 0.959 . S
H367 C382 0.959 . S
H368 C382 0.961 . S
H369 C383 0.960 . S
H370 C383 0.961 . S
H371 C383 0.959 . S
H372 C386 0.929 . S
H373 C387 0.931 . S
H374 C389 0.930 . S
C375 H363 0.930 . S
C375 C376 1.399 . S
C375 C380 1.399 . S
C376 C375 1.399 . S
C376 C377 1.376 . S
C377 H364 0.930 . S
C377 C376 1.376 . S
C377 C378 1.388 . S
C378 H365 0.930 . S
C378 C377 1.388 . S
C378 C379 1.390 . S
C379 C378 1.390 . S
C379 C380 1.394 . S
C379 C385 1.465 . S
C380 C375 1.399 . S
C380 C379 1.394 . S
C380 C381 1.516 . S
C381 C380 1.516 . S
C381 C382 1.502 . S
C381 C383 1.561 . S
C381 C384 1.526 . S
C382 H366 0.959 . S
C382 H367 0.959 . S
C382 H368 0.961 . S
C382 C381 1.502 . S
C383 H369 0.960 . S
C383 H370 0.961 . S
C383 H371 0.959 . S
C383 C381 1.561 . S
C384 C381 1.526 . S
C384 C385 1.396 . S
C384 C389 1.390 . S
C385 C379 1.465 . S
C385 C384 1.396 . S
C385 C386 1.399 . S
C386 H372 0.929 . S
C386 C385 1.399 . S
C386 C387 1.385 . S
C387 H373 0.931 . S
C387 C386 1.385 . S
C387 C388 1.389 . S
C388 C387 1.389 . S
C388 C389 1.387 . S
C389 H374 0.930 . S
C389 C384 1.390 . S
C389 C388 1.387 . S
H390 C402 0.930 . S
H391 C404 0.930 . S
H392 C405 0.930 . S
H393 C409 0.959 . S
H394 C409 0.959 . S
H395 C409 0.961 . S
H396 C410 0.960 . S
H397 C410 0.961 . S
H398 C410 0.959 . S
H399 C413 0.929 . S
H400 C414 0.931 . S
H401 C416 0.930 . S
C402 H390 0.930 . S
C402 C403 1.399 . S
C402 C407 1.399 . S
C403 C402 1.399 . S
C403 C404 1.376 . S
C404 H391 0.930 . S
C404 C403 1.376 . S
C404 C405 1.388 . S
C405 H392 0.930 . S
C405 C404 1.388 . S
C405 C406 1.390 . S
C406 C405 1.390 . S
C406 C407 1.394 . S
C406 C412 1.465 . S
C407 C402 1.399 . S
C407 C406 1.394 . S
C407 C408 1.516 . S
C408 C407 1.516 . S
C408 C409 1.502 . S
C408 C410 1.561 . S
C408 C411 1.526 . S
C409 H393 0.959 . S
C409 H394 0.959 . S
C409 H395 0.961 . S
C409 C408 1.502 . S
C410 H396 0.960 . S
C410 H397 0.961 . S
C410 H398 0.959 . S
C410 C408 1.561 . S
C411 C408 1.526 . S
C411 C412 1.396 . S
C411 C416 1.390 . S
C412 C406 1.465 . S
C412 C411 1.396 . S
C412 C413 1.399 . S
C413 H399 0.929 . S
C413 C412 1.399 . S
C413 C414 1.385 . S
C414 H400 0.931 . S
C414 C413 1.385 . S
C414 C415 1.389 . S
C415 C414 1.389 . S
C415 C416 1.387 . S
C416 H401 0.930 . S
C416 C411 1.390 . S
C416 C415 1.387 . S
H417 C429 0.930 . S
H418 C431 0.930 . S
H419 C432 0.930 . S
H420 C436 0.959 . S
H421 C436 0.959 . S
H422 C436 0.961 . S
H423 C437 0.960 . S
H424 C437 0.961 . S
H425 C437 0.959 . S
H426 C440 0.929 . S
H427 C441 0.931 . S
H428 C443 0.930 . S
C429 H417 0.930 . S
C429 C430 1.399 . S
C429 C434 1.399 . S
C430 C429 1.399 . S
C430 C431 1.376 . S
C431 H418 0.930 . S
C431 C430 1.376 . S
C431 C432 1.388 . S
C432 H419 0.930 . S
C432 C431 1.388 . S
C432 C433 1.390 . S
C433 C432 1.390 . S
C433 C434 1.394 . S
C433 C439 1.465 . S
C434 C429 1.399 . S
C434 C433 1.394 . S
C434 C435 1.516 . S
C435 C434 1.516 . S
C435 C436 1.502 . S
C435 C437 1.561 . S
C435 C438 1.526 . S
C436 H420 0.959 . S
C436 H421 0.959 . S
C436 H422 0.961 . S
C436 C435 1.502 . S
C437 H423 0.960 . S
C437 H424 0.961 . S
C437 H425 0.959 . S
C437 C435 1.561 . S
C438 C435 1.526 . S
C438 C439 1.396 . S
C438 C443 1.390 . S
C439 C433 1.465 . S
C439 C438 1.396 . S
C439 C440 1.399 . S
C440 H426 0.929 . S
C440 C439 1.399 . S
C440 C441 1.385 . S
C441 H427 0.931 . S
C441 C440 1.385 . S
C441 C442 1.389 . S
C442 C441 1.389 . S
C442 C443 1.387 . S
C443 H428 0.930 . S
C443 C438 1.390 . S
C443 C442 1.387 . S
H444 C456 0.930 . S
H445 C458 0.930 . S
H446 C459 0.930 . S
H447 C463 0.959 . S
H448 C463 0.959 . S
H449 C463 0.961 . S
H450 C464 0.960 . S
H451 C464 0.961 . S
H452 C464 0.959 . S
H453 C467 0.929 . S
H454 C468 0.931 . S
H455 C470 0.930 . S
C456 H444 0.930 . S
C456 C457 1.399 . S
C456 C461 1.399 . S
C457 C456 1.399 . S
C457 C458 1.376 . S
C458 H445 0.930 . S
C458 C457 1.376 . S
C458 C459 1.388 . S
C459 H446 0.930 . S
C459 C458 1.388 . S
C459 C460 1.390 . S
C460 C459 1.390 . S
C460 C461 1.394 . S
C460 C466 1.465 . S
C461 C456 1.399 . S
C461 C460 1.394 . S
C461 C462 1.516 . S
C462 C461 1.516 . S
C462 C463 1.502 . S
C462 C464 1.561 . S
C462 C465 1.526 . S
C463 H447 0.959 . S
C463 H448 0.959 . S
C463 H449 0.961 . S
C463 C462 1.502 . S
C464 H450 0.960 . S
C464 H451 0.961 . S
C464 H452 0.959 . S
C464 C462 1.561 . S
C465 C462 1.526 . S
C465 C466 1.396 . S
C465 C470 1.390 . S
C466 C460 1.465 . S
C466 C465 1.396 . S
C466 C467 1.399 . S
C467 H453 0.929 . S
C467 C466 1.399 . S
C467 C468 1.385 . S
C468 H454 0.931 . S
C468 C467 1.385 . S
C468 C469 1.389 . S
C469 C468 1.389 . S
C469 C470 1.387 . S
C470 H455 0.930 . S
C470 C465 1.390 . S
C470 C469 1.387 . S
H471 C483 0.930 . S
H472 C485 0.930 . S
H473 C486 0.930 . S
H474 C490 0.959 . S
H475 C490 0.959 . S
H476 C490 0.961 . S
H477 C491 0.960 . S
H478 C491 0.961 . S
H479 C491 0.959 . S
H480 C494 0.929 . S
H481 C495 0.931 . S
H482 C497 0.930 . S
C483 H471 0.930 . S
C483 C484 1.399 . S
C483 C488 1.399 . S
C484 C483 1.399 . S
C484 C485 1.376 . S
C485 H472 0.930 . S
C485 C484 1.376 . S
C485 C486 1.388 . S
C486 H473 0.930 . S
C486 C485 1.388 . S
C486 C487 1.390 . S
C487 C486 1.390 . S
C487 C488 1.394 . S
C487 C493 1.465 . S
C488 C483 1.399 . S
C488 C487 1.394 . S
C488 C489 1.516 . S
C489 C488 1.516 . S
C489 C490 1.502 . S
C489 C491 1.561 . S
C489 C492 1.526 . S
C490 H474 0.959 . S
C490 H475 0.959 . S
C490 H476 0.961 . S
C490 C489 1.502 . S
C491 H477 0.960 . S
C491 H478 0.961 . S
C491 H479 0.959 . S
C491 C489 1.561 . S
C492 C489 1.526 . S
C492 C493 1.396 . S
C492 C497 1.390 . S
C493 C487 1.465 . S
C493 C492 1.396 . S
C493 C494 1.399 . S
C494 H480 0.929 . S
C494 C493 1.399 . S
C494 C495 1.385 . S
C495 H481 0.931 . S
C495 C494 1.385 . S
C495 C496 1.389 . S
C496 C495 1.389 . S
C496 C497 1.387 . S
C497 H482 0.930 . S
C497 C492 1.390 . S
C497 C496 1.387 . S
H498 C510 0.930 . S
H499 C512 0.930 . S
H500 C513 0.930 . S
H501 C517 0.959 . S
H502 C517 0.959 . S
H503 C517 0.961 . S
H504 C518 0.960 . S
H505 C518 0.961 . S
H506 C518 0.959 . S
H507 C521 0.929 . S
H508 C522 0.931 . S
H509 C524 0.930 . S
C510 H498 0.930 . S
C510 C511 1.399 . S
C510 C515 1.399 . S
C511 C510 1.399 . S
C511 C512 1.376 . S
C512 H499 0.930 . S
C512 C511 1.376 . S
C512 C513 1.388 . S
C513 H500 0.930 . S
C513 C512 1.388 . S
C513 C514 1.390 . S
C514 C513 1.390 . S
C514 C515 1.394 . S
C514 C520 1.465 . S
C515 C510 1.399 . S
C515 C514 1.394 . S
C515 C516 1.516 . S
C516 C515 1.516 . S
C516 C517 1.502 . S
C516 C518 1.561 . S
C516 C519 1.526 . S
C517 H501 0.959 . S
C517 H502 0.959 . S
C517 H503 0.961 . S
C517 C516 1.502 . S
C518 H504 0.960 . S
C518 H505 0.961 . S
C518 H506 0.959 . S
C518 C516 1.561 . S
C519 C516 1.526 . S
C519 C520 1.396 . S
C519 C524 1.390 . S
C520 C514 1.465 . S
C520 C519 1.396 . S
C520 C521 1.399 . S
C521 H507 0.929 . S
C521 C520 1.399 . S
C521 C522 1.385 . S
C522 H508 0.931 . S
C522 C521 1.385 . S
C522 C523 1.389 . S
C523 C522 1.389 . S
C523 C524 1.387 . S
C524 H509 0.930 . S
C524 C519 1.390 . S
C524 C523 1.387 . S
H525 C537 0.930 . S
H526 C539 0.930 . S
H527 C540 0.930 . S
H528 C544 0.959 . S
H529 C544 0.959 . S
H530 C544 0.961 . S
H531 C545 0.960 . S
H532 C545 0.961 . S
H533 C545 0.959 . S
H534 C548 0.929 . S
H535 C549 0.931 1_554 S
H536 C551 0.930 . S
C537 H525 0.930 . S
C537 C538 1.399 . S
C537 C542 1.399 . S
C538 C537 1.399 . S
C538 C539 1.376 . S
C539 H526 0.930 . S
C539 C538 1.376 . S
C539 C540 1.388 . S
C540 H527 0.930 . S
C540 C539 1.388 . S
C540 C541 1.390 . S
C541 C540 1.390 . S
C541 C542 1.394 . S
C541 C547 1.465 . S
C542 C537 1.399 . S
C542 C541 1.394 . S
C542 C543 1.516 . S
C543 C542 1.516 . S
C543 C544 1.502 . S
C543 C545 1.561 . S
C543 C546 1.526 . S
C544 H528 0.959 . S
C544 H529 0.959 . S
C544 H530 0.961 . S
C544 C543 1.502 . S
C545 H531 0.960 . S
C545 H532 0.961 . S
C545 H533 0.959 . S
C545 C543 1.561 . S
C546 C543 1.526 . S
C546 C547 1.396 . S
C546 C551 1.390 . S
C547 C541 1.465 . S
C547 C546 1.396 . S
C547 C548 1.399 . S
C548 H534 0.929 . S
C548 C547 1.399 . S
C548 C549 1.385 . S
C549 H535 0.931 1_556 S
C549 C548 1.385 . S
C549 C550 1.389 . S
C550 C549 1.389 . S
C550 C551 1.387 . S
C551 H536 0.930 . S
C551 C546 1.390 . S
C551 C550 1.387 . S
H552 C564 0.930 . S
H553 C566 0.930 . S
H554 C567 0.930 . S
H555 C571 0.959 . S
H556 C571 0.959 . S
H557 C571 0.961 . S
H558 C572 0.960 . S
H559 C572 0.961 . S
H560 C572 0.959 . S
H561 C575 0.929 . S
H562 C576 0.931 . S
H563 C578 0.930 . S
C564 H552 0.930 . S
C564 C565 1.399 . S
C564 C569 1.399 . S
C565 C564 1.399 . S
C565 C566 1.376 . S
C566 H553 0.930 . S
C566 C565 1.376 . S
C566 C567 1.388 . S
C567 H554 0.930 . S
C567 C566 1.388 . S
C567 C568 1.390 . S
C568 C567 1.390 . S
C568 C569 1.394 . S
C568 C574 1.465 . S
C569 C564 1.399 . S
C569 C568 1.394 . S
C569 C570 1.516 . S
C570 C569 1.516 . S
C570 C571 1.502 . S
C570 C572 1.561 . S
C570 C573 1.526 . S
C571 H555 0.959 . S
C571 H556 0.959 . S
C571 H557 0.961 . S
C571 C570 1.502 . S
C572 H558 0.960 . S
C572 H559 0.961 . S
C572 H560 0.959 . S
C572 C570 1.561 . S
C573 C570 1.526 . S
C573 C574 1.396 . S
C573 C578 1.390 . S
C574 C568 1.465 . S
C574 C573 1.396 . S
C574 C575 1.399 . S
C575 H561 0.929 . S
C575 C574 1.399 . S
C575 C576 1.385 . S
C576 H562 0.931 . S
C576 C575 1.385 . S
C576 C577 1.389 . S
C577 C576 1.389 . S
C577 C578 1.387 . S
C578 H563 0.930 . S
C578 C573 1.390 . S
C578 C577 1.387 . S
H579 C591 0.930 . S
H580 C593 0.930 . S
H581 C594 0.930 . S
H582 C598 0.959 . S
H583 C598 0.959 . S
H584 C598 0.961 . S
H585 C599 0.960 . S
H586 C599 0.961 . S
H587 C599 0.959 . S
H588 C602 0.929 . S
H589 C603 0.931 . S
H590 C605 0.930 . S
C591 H579 0.930 . S
C591 C592 1.399 . S
C591 C596 1.399 . S
C592 C591 1.399 . S
C592 C593 1.376 . S
C593 H580 0.930 . S
C593 C592 1.376 . S
C593 C594 1.388 . S
C594 H581 0.930 . S
C594 C593 1.388 . S
C594 C595 1.390 . S
C595 C594 1.390 . S
C595 C596 1.394 . S
C595 C601 1.465 . S
C596 C591 1.399 . S
C596 C595 1.394 . S
C596 C597 1.516 . S
C597 C596 1.516 . S
C597 C598 1.502 . S
C597 C599 1.561 . S
C597 C600 1.526 . S
C598 H582 0.959 . S
C598 H583 0.959 . S
C598 H584 0.961 . S
C598 C597 1.502 . S
C599 H585 0.960 . S
C599 H586 0.961 . S
C599 H587 0.959 . S
C599 C597 1.561 . S
C600 C597 1.526 . S
C600 C601 1.396 . S
C600 C605 1.390 . S
C601 C595 1.465 . S
C601 C600 1.396 . S
C601 C602 1.399 . S
C602 H588 0.929 . S
C602 C601 1.399 . S
C602 C603 1.385 . S
C603 H589 0.931 . S
C603 C602 1.385 . S
C603 C604 1.389 . S
C604 C603 1.389 . S
C604 C605 1.387 . S
C605 H590 0.930 . S
C605 C600 1.390 . S
C605 C604 1.387 . S
H606 C618 0.930 . S
H607 C620 0.930 1_545 S
H608 C621 0.930 . S
H609 C625 0.959 . S
H610 C625 0.959 . S
H611 C625 0.961 . S
H612 C626 0.960 . S
H613 C626 0.961 . S
H614 C626 0.959 . S
H615 C629 0.929 . S
H616 C630 0.931 . S
H617 C632 0.930 . S
C618 H606 0.930 . S
C618 C619 1.399 . S
C618 C623 1.399 . S
C619 C618 1.399 . S
C619 C620 1.376 . S
C620 H607 0.930 1_565 S
C620 C619 1.376 . S
C620 C621 1.388 . S
C621 H608 0.930 . S
C621 C620 1.388 . S
C621 C622 1.390 . S
C622 C621 1.390 . S
C622 C623 1.394 . S
C622 C628 1.465 . S
C623 C618 1.399 . S
C623 C622 1.394 . S
C623 C624 1.516 . S
C624 C623 1.516 . S
C624 C625 1.502 . S
C624 C626 1.561 . S
C624 C627 1.526 . S
C625 H609 0.959 . S
C625 H610 0.959 . S
C625 H611 0.961 . S
C625 C624 1.502 . S
C626 H612 0.960 . S
C626 H613 0.961 . S
C626 H614 0.959 . S
C626 C624 1.561 . S
C627 C624 1.526 . S
C627 C628 1.396 . S
C627 C632 1.390 . S
C628 C622 1.465 . S
C628 C627 1.396 . S
C628 C629 1.399 . S
C629 H615 0.929 . S
C629 C628 1.399 . S
C629 C630 1.385 . S
C630 H616 0.931 . S
C630 C629 1.385 . S
C630 C631 1.389 . S
C631 C630 1.389 . S
C631 C632 1.387 . S
C632 H617 0.930 . S
C632 C627 1.390 . S
C632 C631 1.387 . S
H633 C645 0.930 . S
H634 C647 0.930 . S
H635 C648 0.930 . S
H636 C652 0.959 . S
H637 C652 0.959 . S
H638 C652 0.961 . S
H639 C653 0.960 . S
H640 C653 0.961 . S
H641 C653 0.959 . S
H642 C656 0.929 . S
H643 C657 0.931 . S
H644 C659 0.930 . S
C645 H633 0.930 . S
C645 C646 1.399 . S
C645 C650 1.399 . S
C646 C645 1.399 . S
C646 C647 1.376 . S
C647 H634 0.930 . S
C647 C646 1.376 . S
C647 C648 1.388 . S
C648 H635 0.930 . S
C648 C647 1.388 . S
C648 C649 1.390 . S
C649 C648 1.390 . S
C649 C650 1.394 . S
C649 C655 1.465 . S
C650 C645 1.399 . S
C650 C649 1.394 . S
C650 C651 1.516 . S
C651 C650 1.516 . S
C651 C652 1.502 . S
C651 C653 1.561 . S
C651 C654 1.526 . S
C652 H636 0.959 . S
C652 H637 0.959 . S
C652 H638 0.961 . S
C652 C651 1.502 . S
C653 H639 0.960 . S
C653 H640 0.961 . S
C653 H641 0.959 . S
C653 C651 1.561 . S
C654 C651 1.526 . S
C654 C655 1.396 . S
C654 C659 1.390 . S
C655 C649 1.465 . S
C655 C654 1.396 . S
C655 C656 1.399 . S
C656 H642 0.929 . S
C656 C655 1.399 . S
C656 C657 1.385 . S
C657 H643 0.931 . S
C657 C656 1.385 . S
C657 C658 1.389 . S
C658 C657 1.389 . S
C658 C659 1.387 . S
C659 H644 0.930 . S
C659 C654 1.390 . S
C659 C658 1.387 . S
H660 C672 0.930 . S
H661 C674 0.930 . S
H662 C675 0.930 . S
H663 C679 0.959 . S
H664 C679 0.959 . S
H665 C679 0.961 . S
H666 C680 0.960 . S
H667 C680 0.961 . S
H668 C680 0.959 . S
H669 C683 0.929 . S
H670 C684 0.931 . S
H671 C686 0.930 . S
C672 H660 0.930 . S
C672 C673 1.399 . S
C672 C677 1.399 . S
C673 C672 1.399 . S
C673 C674 1.376 . S
C674 H661 0.930 . S
C674 C673 1.376 . S
C674 C675 1.388 . S
C675 H662 0.930 . S
C675 C674 1.388 . S
C675 C676 1.390 . S
C676 C675 1.390 . S
C676 C677 1.394 . S
C676 C682 1.465 . S
C677 C672 1.399 . S
C677 C676 1.394 . S
C677 C678 1.516 . S
C678 C677 1.516 . S
C678 C679 1.502 . S
C678 C680 1.561 . S
C678 C681 1.526 . S
C679 H663 0.959 . S
C679 H664 0.959 . S
C679 H665 0.961 . S
C679 C678 1.502 . S
C680 H666 0.960 . S
C680 H667 0.961 . S
C680 H668 0.959 . S
C680 C678 1.561 . S
C681 C678 1.526 . S
C681 C682 1.396 . S
C681 C686 1.390 . S
C682 C676 1.465 . S
C682 C681 1.396 . S
C682 C683 1.399 . S
C683 H669 0.929 . S
C683 C682 1.399 . S
C683 C684 1.385 . S
C684 H670 0.931 . S
C684 C683 1.385 . S
C684 C685 1.389 . S
C685 C684 1.389 . S
C685 C686 1.387 . S
C686 H671 0.930 . S
C686 C681 1.390 . S
C686 C685 1.387 . S
H687 C699 0.930 . S
H688 C701 0.930 . S
H689 C702 0.930 . S
H690 C706 0.959 . S
H691 C706 0.959 . S
H692 C706 0.961 . S
H693 C707 0.960 . S
H694 C707 0.961 . S
H695 C707 0.959 . S
H696 C710 0.929 . S
H697 C711 0.931 . S
H698 C713 0.930 . S
C699 H687 0.930 . S
C699 C700 1.399 . S
C699 C704 1.399 . S
C700 C699 1.399 . S
C700 C701 1.376 . S
C701 H688 0.930 . S
C701 C700 1.376 . S
C701 C702 1.388 . S
C702 H689 0.930 . S
C702 C701 1.388 . S
C702 C703 1.390 . S
C703 C702 1.390 . S
C703 C704 1.394 . S
C703 C709 1.465 . S
C704 C699 1.399 . S
C704 C703 1.394 . S
C704 C705 1.516 . S
C705 C704 1.516 . S
C705 C706 1.502 . S
C705 C707 1.561 . S
C705 C708 1.526 . S
C706 H690 0.959 . S
C706 H691 0.959 . S
C706 H692 0.961 . S
C706 C705 1.502 . S
C707 H693 0.960 . S
C707 H694 0.961 . S
C707 H695 0.959 . S
C707 C705 1.561 . S
C708 C705 1.526 . S
C708 C709 1.396 . S
C708 C713 1.390 . S
C709 C703 1.465 . S
C709 C708 1.396 . S
C709 C710 1.399 . S
C710 H696 0.929 . S
C710 C709 1.399 . S
C710 C711 1.385 . S
C711 H697 0.931 . S
C711 C710 1.385 . S
C711 C712 1.389 . S
C712 C711 1.389 . S
C712 C713 1.387 . S
C713 H698 0.930 . S
C713 C708 1.390 . S
C713 C712 1.387 . S
H714 C726 0.930 . S
H715 C728 0.930 . S
H716 C729 0.930 . S
H717 C733 0.959 . S
H718 C733 0.959 . S
H719 C733 0.961 . S
H720 C734 0.960 . S
H721 C734 0.961 . S
H722 C734 0.959 . S
H723 C737 0.929 . S
H724 C738 0.931 . S
H725 C740 0.930 . S
C726 H714 0.930 . S
C726 C727 1.399 . S
C726 C731 1.399 . S
C727 C726 1.399 . S
C727 C728 1.376 . S
C728 H715 0.930 . S
C728 C727 1.376 . S
C728 C729 1.388 . S
C729 H716 0.930 . S
C729 C728 1.388 . S
C729 C730 1.390 . S
C730 C729 1.390 . S
C730 C731 1.394 . S
C730 C736 1.465 . S
C731 C726 1.399 . S
C731 C730 1.394 . S
C731 C732 1.516 . S
C732 C731 1.516 . S
C732 C733 1.502 . S
C732 C734 1.561 . S
C732 C735 1.526 . S
C733 H717 0.959 . S
C733 H718 0.959 . S
C733 H719 0.961 . S
C733 C732 1.502 . S
C734 H720 0.960 . S
C734 H721 0.961 . S
C734 H722 0.959 . S
C734 C732 1.561 . S
C735 C732 1.526 . S
C735 C736 1.396 . S
C735 C740 1.390 . S
C736 C730 1.465 . S
C736 C735 1.396 . S
C736 C737 1.399 . S
C737 H723 0.929 . S
C737 C736 1.399 . S
C737 C738 1.385 . S
C738 H724 0.931 . S
C738 C737 1.385 . S
C738 C739 1.389 . S
C739 C738 1.389 . S
C739 C740 1.387 . S
C740 H725 0.930 . S
C740 C735 1.390 . S
C740 C739 1.387 . S
H741 C753 0.930 . S
H742 C755 0.930 . S
H743 C756 0.930 . S
H744 C760 0.959 . S
H745 C760 0.959 . S
H746 C760 0.961 . S
H747 C761 0.960 . S
H748 C761 0.961 . S
H749 C761 0.959 . S
H750 C764 0.929 . S
H751 C765 0.931 . S
H752 C767 0.930 . S
C753 H741 0.930 . S
C753 C754 1.399 . S
C753 C758 1.399 . S
C754 C753 1.399 . S
C754 C755 1.376 . S
C755 H742 0.930 . S
C755 C754 1.376 . S
C755 C756 1.388 . S
C756 H743 0.930 . S
C756 C755 1.388 . S
C756 C757 1.390 . S
C757 C756 1.390 . S
C757 C758 1.394 . S
C757 C763 1.465 . S
C758 C753 1.399 . S
C758 C757 1.394 . S
C758 C759 1.516 . S
C759 C758 1.516 . S
C759 C760 1.502 . S
C759 C761 1.561 . S
C759 C762 1.526 . S
C760 H744 0.959 . S
C760 H745 0.959 . S
C760 H746 0.961 . S
C760 C759 1.502 . S
C761 H747 0.960 . S
C761 H748 0.961 . S
C761 H749 0.959 . S
C761 C759 1.561 . S
C762 C759 1.526 . S
C762 C763 1.396 . S
C762 C767 1.390 . S
C763 C757 1.465 . S
C763 C762 1.396 . S
C763 C764 1.399 . S
C764 H750 0.929 . S
C764 C763 1.399 . S
C764 C765 1.385 . S
C765 H751 0.931 . S
C765 C764 1.385 . S
C765 C766 1.389 . S
C766 C765 1.389 . S
C766 C767 1.387 . S
C767 H752 0.930 . S
C767 C762 1.390 . S
C767 C766 1.387 . S
H768 C780 0.930 . S
H769 C782 0.930 . S
H770 C783 0.930 . S
H771 C787 0.959 . S
H772 C787 0.959 . S
H773 C787 0.961 . S
H774 C788 0.960 . S
H775 C788 0.961 . S
H776 C788 0.959 . S
H777 C791 0.929 . S
H778 C792 0.931 . S
H779 C794 0.930 . S
C780 H768 0.930 . S
C780 C781 1.399 . S
C780 C785 1.399 . S
C781 C780 1.399 . S
C781 C782 1.376 . S
C782 H769 0.930 . S
C782 C781 1.376 . S
C782 C783 1.388 . S
C783 H770 0.930 . S
C783 C782 1.388 . S
C783 C784 1.390 . S
C784 C783 1.390 . S
C784 C785 1.394 . S
C784 C790 1.465 . S
C785 C780 1.399 . S
C785 C784 1.394 . S
C785 C786 1.516 . S
C786 C785 1.516 . S
C786 C787 1.502 . S
C786 C788 1.561 . S
C786 C789 1.526 . S
C787 H771 0.959 . S
C787 H772 0.959 . S
C787 H773 0.961 . S
C787 C786 1.502 . S
C788 H774 0.960 . S
C788 H775 0.961 . S
C788 H776 0.959 . S
C788 C786 1.561 . S
C789 C786 1.526 . S
C789 C790 1.396 . S
C789 C794 1.390 . S
C790 C784 1.465 . S
C790 C789 1.396 . S
C790 C791 1.399 . S
C791 H777 0.929 . S
C791 C790 1.399 . S
C791 C792 1.385 . S
C792 H778 0.931 . S
C792 C791 1.385 . S
C792 C793 1.389 . S
C793 C792 1.389 . S
C793 C794 1.387 . S
C794 H779 0.930 . S
C794 C789 1.390 . S
C794 C793 1.387 . S
H795 C807 0.930 . S
H796 C809 0.930 . S
H797 C810 0.930 . S
H798 C814 0.959 . S
H799 C814 0.959 . S
H800 C814 0.961 . S
H801 C815 0.960 . S
H802 C815 0.961 . S
H803 C815 0.959 . S
H804 C818 0.929 . S
H805 C819 0.931 . S
H806 C821 0.930 . S
C807 H795 0.930 . S
C807 C808 1.399 . S
C807 C812 1.399 . S
C808 C807 1.399 . S
C808 C809 1.376 . S
C809 H796 0.930 . S
C809 C808 1.376 . S
C809 C810 1.388 . S
C810 H797 0.930 . S
C810 C809 1.388 . S
C810 C811 1.390 . S
C811 C810 1.390 . S
C811 C812 1.394 . S
C811 C817 1.465 . S
C812 C807 1.399 . S
C812 C811 1.394 . S
C812 C813 1.516 . S
C813 C812 1.516 . S
C813 C814 1.502 . S
C813 C815 1.561 . S
C813 C816 1.526 . S
C814 H798 0.959 . S
C814 H799 0.959 . S
C814 H800 0.961 . S
C814 C813 1.502 . S
C815 H801 0.960 . S
C815 H802 0.961 . S
C815 H803 0.959 . S
C815 C813 1.561 . S
C816 C813 1.526 . S
C816 C817 1.396 . S
C816 C821 1.390 . S
C817 C811 1.465 . S
C817 C816 1.396 . S
C817 C818 1.399 . S
C818 H804 0.929 . S
C818 C817 1.399 . S
C818 C819 1.385 . S
C819 H805 0.931 . S
C819 C818 1.385 . S
C819 C820 1.389 . S
C820 C819 1.389 . S
C820 C821 1.387 . S
C821 H806 0.930 . S
C821 C816 1.390 . S
C821 C820 1.387 . S
H822 C834 0.930 . S
H823 C836 0.930 1_554 S
H824 C837 0.930 1_554 S
H825 C841 0.959 . S
H826 C841 0.959 . S
H827 C841 0.961 . S
H828 C842 0.960 . S
H829 C842 0.961 . S
H830 C842 0.959 . S
H831 C845 0.929 . S
H832 C846 0.931 . S
H833 C848 0.930 . S
C834 H822 0.930 . S
C834 C835 1.399 . S
C834 C839 1.399 . S
C835 C834 1.399 . S
C835 C836 1.376 . S
C836 H823 0.930 1_556 S
C836 C835 1.376 . S
C836 C837 1.388 . S
C837 H824 0.930 1_556 S
C837 C836 1.388 . S
C837 C838 1.390 . S
C838 C837 1.390 . S
C838 C839 1.394 . S
C838 C844 1.465 . S
C839 C834 1.399 . S
C839 C838 1.394 . S
C839 C840 1.516 . S
C840 C839 1.516 . S
C840 C841 1.502 . S
C840 C842 1.561 . S
C840 C843 1.526 . S
C841 H825 0.959 . S
C841 H826 0.959 . S
C841 H827 0.961 . S
C841 C840 1.502 . S
C842 H828 0.960 . S
C842 H829 0.961 . S
C842 H830 0.959 . S
C842 C840 1.561 . S
C843 C840 1.526 . S
C843 C844 1.396 . S
C843 C848 1.390 . S
C844 C838 1.465 . S
C844 C843 1.396 . S
C844 C845 1.399 . S
C845 H831 0.929 . S
C845 C844 1.399 . S
C845 C846 1.385 . S
C846 H832 0.931 . S
C846 C845 1.385 . S
C846 C847 1.389 . S
C847 C846 1.389 . S
C847 C848 1.387 . S
C848 H833 0.930 . S
C848 C843 1.390 . S
C848 C847 1.387 . S
H849 C861 0.930 . S
H850 C863 0.930 . S
H851 C864 0.930 . S
H852 C868 0.959 . S
H853 C868 0.959 . S
H854 C868 0.961 . S
H855 C869 0.960 . S
H856 C869 0.961 . S
H857 C869 0.959 . S
H858 C872 0.929 . S
H859 C873 0.931 . S
H860 C875 0.930 . S
C861 H849 0.930 . S
C861 C862 1.399 . S
C861 C866 1.399 . S
C862 C861 1.399 . S
C862 C863 1.376 . S
C863 H850 0.930 . S
C863 C862 1.376 . S
C863 C864 1.388 . S
C864 H851 0.930 . S
C864 C863 1.388 . S
C864 C865 1.390 . S
C865 C864 1.390 . S
C865 C866 1.394 . S
C865 C871 1.465 . S
C866 C861 1.399 . S
C866 C865 1.394 . S
C866 C867 1.516 . S
C867 C866 1.516 . S
C867 C868 1.502 . S
C867 C869 1.561 . S
C867 C870 1.526 . S
C868 H852 0.959 . S
C868 H853 0.959 . S
C868 H854 0.961 . S
C868 C867 1.502 . S
C869 H855 0.960 . S
C869 H856 0.961 . S
C869 H857 0.959 . S
C869 C867 1.561 . S
C870 C867 1.526 . S
C870 C871 1.396 . S
C870 C875 1.390 . S
C871 C865 1.465 . S
C871 C870 1.396 . S
C871 C872 1.399 . S
C872 H858 0.929 . S
C872 C871 1.399 . S
C872 C873 1.385 . S
C873 H859 0.931 . S
C873 C872 1.385 . S
C873 C874 1.389 . S
C874 C873 1.389 . S
C874 C875 1.387 . S
C875 H860 0.930 . S
C875 C870 1.390 . S
C875 C874 1.387 . S
H876 C888 0.930 . S
H877 C890 0.930 . S
H878 C891 0.930 . S
H879 C895 0.959 . S
H880 C895 0.959 . S
H881 C895 0.961 . S
H882 C896 0.960 . S
H883 C896 0.961 . S
H884 C896 0.959 . S
H885 C899 0.929 . S
H886 C900 0.931 . S
H887 C902 0.930 . S
C888 H876 0.930 . S
C888 C889 1.399 . S
C888 C893 1.399 . S
C889 C888 1.399 . S
C889 C890 1.376 . S
C890 H877 0.930 . S
C890 C889 1.376 . S
C890 C891 1.388 . S
C891 H878 0.930 . S
C891 C890 1.388 . S
C891 C892 1.390 . S
C892 C891 1.390 . S
C892 C893 1.394 . S
C892 C898 1.465 . S
C893 C888 1.399 . S
C893 C892 1.394 . S
C893 C894 1.516 . S
C894 C893 1.516 . S
C894 C895 1.502 . S
C894 C896 1.561 . S
C894 C897 1.526 . S
C895 H879 0.959 . S
C895 H880 0.959 . S
C895 H881 0.961 . S
C895 C894 1.502 . S
C896 H882 0.960 . S
C896 H883 0.961 . S
C896 H884 0.959 . S
C896 C894 1.561 . S
C897 C894 1.526 . S
C897 C898 1.396 . S
C897 C902 1.390 . S
C898 C892 1.465 . S
C898 C897 1.396 . S
C898 C899 1.399 . S
C899 H885 0.929 . S
C899 C898 1.399 . S
C899 C900 1.385 . S
C900 H886 0.931 . S
C900 C899 1.385 . S
C900 C901 1.389 . S
C901 C900 1.389 . S
C901 C902 1.387 . S
C902 H887 0.930 . S
C902 C897 1.390 . S
C902 C901 1.387 . S
H903 C915 0.930 . S
H904 C917 0.930 . S
H905 C918 0.930 . S
H906 C922 0.959 . S
H907 C922 0.959 . S
H908 C922 0.961 . S
H909 C923 0.960 . S
H910 C923 0.961 . S
H911 C923 0.959 . S
H912 C926 0.929 . S
H913 C927 0.931 . S
H914 C929 0.930 . S
C915 H903 0.930 . S
C915 C916 1.399 . S
C915 C920 1.399 . S
C916 C915 1.399 . S
C916 C917 1.376 . S
C917 H904 0.930 . S
C917 C916 1.376 . S
C917 C918 1.388 . S
C918 H905 0.930 . S
C918 C917 1.388 . S
C918 C919 1.390 . S
C919 C918 1.390 . S
C919 C920 1.394 . S
C919 C925 1.465 . S
C920 C915 1.399 . S
C920 C919 1.394 . S
C920 C921 1.516 . S
C921 C920 1.516 . S
C921 C922 1.502 . S
C921 C923 1.561 . S
C921 C924 1.526 . S
C922 H906 0.959 . S
C922 H907 0.959 . S
C922 H908 0.961 . S
C922 C921 1.502 . S
C923 H909 0.960 . S
C923 H910 0.961 . S
C923 H911 0.959 . S
C923 C921 1.561 . S
C924 C921 1.526 . S
C924 C925 1.396 . S
C924 C929 1.390 . S
C925 C919 1.465 . S
C925 C924 1.396 . S
C925 C926 1.399 . S
C926 H912 0.929 . S
C926 C925 1.399 . S
C926 C927 1.385 . S
C927 H913 0.931 . S
C927 C926 1.385 . S
C927 C928 1.389 . S
C928 C927 1.389 . S
C928 C929 1.387 . S
C929 H914 0.930 . S
C929 C924 1.390 . S
C929 C928 1.387 . S
H930 C942 0.930 . S
H931 C944 0.930 . S
H932 C945 0.930 . S
H933 C949 0.959 . S
H934 C949 0.959 . S
H935 C949 0.961 . S
H936 C950 0.960 . S
H937 C950 0.961 . S
H938 C950 0.959 . S
H939 C953 0.929 . S
H940 C954 0.931 . S
H941 C956 0.930 . S
C942 H930 0.930 . S
C942 C943 1.399 . S
C942 C947 1.399 . S
C943 C942 1.399 . S
C943 C944 1.376 . S
C944 H931 0.930 . S
C944 C943 1.376 . S
C944 C945 1.388 . S
C945 H932 0.930 . S
C945 C944 1.388 . S
C945 C946 1.390 . S
C946 C945 1.390 . S
C946 C947 1.394 . S
C946 C952 1.465 . S
C947 C942 1.399 . S
C947 C946 1.394 . S
C947 C948 1.516 . S
C948 C947 1.516 . S
C948 C949 1.502 . S
C948 C950 1.561 . S
C948 C951 1.526 . S
C949 H933 0.959 . S
C949 H934 0.959 . S
C949 H935 0.961 . S
C949 C948 1.502 . S
C950 H936 0.960 . S
C950 H937 0.961 . S
C950 H938 0.959 . S
C950 C948 1.561 . S
C951 C948 1.526 . S
C951 C952 1.396 . S
C951 C956 1.390 . S
C952 C946 1.465 . S
C952 C951 1.396 . S
C952 C953 1.399 . S
C953 H939 0.929 . S
C953 C952 1.399 . S
C953 C954 1.385 . S
C954 H940 0.931 . S
C954 C953 1.385 . S
C954 C955 1.389 . S
C955 C954 1.389 . S
C955 C956 1.387 . S
C956 H941 0.930 . S
C956 C951 1.390 . S
C956 C955 1.387 . S
H957 C969 0.930 . S
H958 C971 0.930 . S
H959 C972 0.930 . S
H960 C976 0.959 . S
H961 C976 0.959 . S
H962 C976 0.961 . S
H963 C977 0.960 . S
H964 C977 0.961 1_545 S
H965 C977 0.959 . S
H966 C980 0.929 . S
H967 C981 0.931 . S
H968 C983 0.930 . S
C969 H957 0.930 . S
C969 C970 1.399 . S
C969 C974 1.399 . S
C970 C969 1.399 . S
C970 C971 1.376 . S
C971 H958 0.930 . S
C971 C970 1.376 . S
C971 C972 1.388 . S
C972 H959 0.930 . S
C972 C971 1.388 . S
C972 C973 1.390 . S
C973 C972 1.390 . S
C973 C974 1.394 . S
C973 C979 1.465 . S
C974 C969 1.399 . S
C974 C973 1.394 . S
C974 C975 1.516 . S
C975 C974 1.516 . S
C975 C976 1.502 . S
C975 C977 1.561 . S
C975 C978 1.526 . S
C976 H960 0.959 . S
C976 H961 0.959 . S
C976 H962 0.961 . S
C976 C975 1.502 . S
C977 H963 0.960 . S
C977 H964 0.961 1_565 S
C977 H965 0.959 . S
C977 C975 1.561 . S
C978 C975 1.526 . S
C978 C979 1.396 . S
C978 C983 1.390 . S
C979 C973 1.465 . S
C979 C978 1.396 . S
C979 C980 1.399 . S
C980 H966 0.929 . S
C980 C979 1.399 . S
C980 C981 1.385 . S
C981 H967 0.931 . S
C981 C980 1.385 . S
C981 C982 1.389 . S
C982 C981 1.389 . S
C982 C983 1.387 . S
C983 H968 0.930 . S
C983 C978 1.390 . S
C983 C982 1.387 . S
H984 C996 0.930 . S
H985 C998 0.930 . S
H986 C999 0.930 . S
H987 C1003 0.959 . S
H988 C1003 0.959 . S
H989 C1003 0.961 . S
H990 C1004 0.960 . S
H991 C1004 0.961 . S
H992 C1004 0.959 . S
H993 C1007 0.929 . S
H994 C1008 0.931 . S
H995 C1010 0.930 . S
C996 H984 0.930 . S
C996 C997 1.399 . S
C996 C1001 1.399 . S
C997 C996 1.399 . S
C997 C998 1.376 . S
C998 H985 0.930 . S
C998 C997 1.376 . S
C998 C999 1.388 . S
C999 H986 0.930 . S
C999 C998 1.388 . S
C999 C1000 1.390 . S
C1000 C999 1.390 . S
C1000 C1001 1.394 . S
C1000 C1006 1.465 . S
C1001 C996 1.399 . S
C1001 C1000 1.394 . S
C1001 C1002 1.516 . S
C1002 C1001 1.516 . S
C1002 C1003 1.502 . S
C1002 C1004 1.561 . S
C1002 C1005 1.526 . S
C1003 H987 0.959 . S
C1003 H988 0.959 . S
C1003 H989 0.961 . S
C1003 C1002 1.502 . S
C1004 H990 0.960 . S
C1004 H991 0.961 . S
C1004 H992 0.959 . S
C1004 C1002 1.561 . S
C1005 C1002 1.526 . S
C1005 C1006 1.396 . S
C1005 C1010 1.390 . S
C1006 C1000 1.465 . S
C1006 C1005 1.396 . S
C1006 C1007 1.399 . S
C1007 H993 0.929 . S
C1007 C1006 1.399 . S
C1007 C1008 1.385 . S
C1008 H994 0.931 . S
C1008 C1007 1.385 . S
C1008 C1009 1.389 . S
C1009 C1008 1.389 . S
C1009 C1010 1.387 . S
C1010 H995 0.930 . S
C1010 C1005 1.390 . S
C1010 C1009 1.387 . S
H1011 C1023 0.930 . S
H1012 C1025 0.930 . S
H1013 C1026 0.930 . S
H1014 C1030 0.959 . S
H1015 C1030 0.959 . S
H1016 C1030 0.961 . S
H1017 C1031 0.960 . S
H1018 C1031 0.961 . S
H1019 C1031 0.959 . S
H1020 C1034 0.929 . S
H1021 C1035 0.931 . S
H1022 C1037 0.930 . S
C1023 H1011 0.930 . S
C1023 C1024 1.399 . S
C1023 C1028 1.399 . S
C1024 C1023 1.399 . S
C1024 C1025 1.376 . S
C1025 H1012 0.930 . S
C1025 C1024 1.376 . S
C1025 C1026 1.388 . S
C1026 H1013 0.930 . S
C1026 C1025 1.388 . S
C1026 C1027 1.390 . S
C1027 C1026 1.390 . S
C1027 C1028 1.394 . S
C1027 C1033 1.465 . S
C1028 C1023 1.399 . S
C1028 C1027 1.394 . S
C1028 C1029 1.516 . S
C1029 C1028 1.516 . S
C1029 C1030 1.502 . S
C1029 C1031 1.561 . S
C1029 C1032 1.526 . S
C1030 H1014 0.959 . S
C1030 H1015 0.959 . S
C1030 H1016 0.961 . S
C1030 C1029 1.502 . S
C1031 H1017 0.960 . S
C1031 H1018 0.961 . S
C1031 H1019 0.959 . S
C1031 C1029 1.561 . S
C1032 C1029 1.526 . S
C1032 C1033 1.396 . S
C1032 C1037 1.390 . S
C1033 C1027 1.465 . S
C1033 C1032 1.396 . S
C1033 C1034 1.399 . S
C1034 H1020 0.929 . S
C1034 C1033 1.399 . S
C1034 C1035 1.385 . S
C1035 H1021 0.931 . S
C1035 C1034 1.385 . S
C1035 C1036 1.389 . S
C1036 C1035 1.389 . S
C1036 C1037 1.387 . S
C1037 H1022 0.930 . S
C1037 C1032 1.390 . S
C1037 C1036 1.387 . S
H1038 C1050 0.930 . S
H1039 C1052 0.930 . S
H1040 C1053 0.930 . S
H1041 C1057 0.959 . S
H1042 C1057 0.959 . S
H1043 C1057 0.961 . S
H1044 C1058 0.960 . S
H1045 C1058 0.961 . S
H1046 C1058 0.959 . S
H1047 C1061 0.929 . S
H1048 C1062 0.931 . S
H1049 C1064 0.930 . S
C1050 H1038 0.930 . S
C1050 C1051 1.399 . S
C1050 C1055 1.399 . S
C1051 C1050 1.399 . S
C1051 C1052 1.376 . S
C1052 H1039 0.930 . S
C1052 C1051 1.376 . S
C1052 C1053 1.388 . S
C1053 H1040 0.930 . S
C1053 C1052 1.388 . S
C1053 C1054 1.390 . S
C1054 C1053 1.390 . S
C1054 C1055 1.394 . S
C1054 C1060 1.465 . S
C1055 C1050 1.399 . S
C1055 C1054 1.394 . S
C1055 C1056 1.516 . S
C1056 C1055 1.516 . S
C1056 C1057 1.502 . S
C1056 C1058 1.561 . S
C1056 C1059 1.526 . S
C1057 H1041 0.959 . S
C1057 H1042 0.959 . S
C1057 H1043 0.961 . S
C1057 C1056 1.502 . S
C1058 H1044 0.960 . S
C1058 H1045 0.961 . S
C1058 H1046 0.959 . S
C1058 C1056 1.561 . S
C1059 C1056 1.526 . S
C1059 C1060 1.396 . S
C1059 C1064 1.390 . S
C1060 C1054 1.465 . S
C1060 C1059 1.396 . S
C1060 C1061 1.399 . S
C1061 H1047 0.929 . S
C1061 C1060 1.399 . S
C1061 C1062 1.385 . S
C1062 H1048 0.931 . S
C1062 C1061 1.385 . S
C1062 C1063 1.389 . S
C1063 C1062 1.389 . S
C1063 C1064 1.387 . S
C1064 H1049 0.930 . S
C1064 C1059 1.390 . S
C1064 C1063 1.387 . S
H1065 C1077 0.930 . S
H1066 C1079 0.930 . S
H1067 C1080 0.930 . S
H1068 C1084 0.959 . S
H1069 C1084 0.959 . S
H1070 C1084 0.961 . S
H1071 C1085 0.960 . S
H1072 C1085 0.961 . S
H1073 C1085 0.959 . S
H1074 C1088 0.929 . S
H1075 C1089 0.931 . S
H1076 C1091 0.930 . S
C1077 H1065 0.930 . S
C1077 C1078 1.399 . S
C1077 C1082 1.399 . S
C1078 C1077 1.399 . S
C1078 C1079 1.376 . S
C1079 H1066 0.930 . S
C1079 C1078 1.376 . S
C1079 C1080 1.388 . S
C1080 H1067 0.930 . S
C1080 C1079 1.388 . S
C1080 C1081 1.390 . S
C1081 C1080 1.390 . S
C1081 C1082 1.394 . S
C1081 C1087 1.465 . S
C1082 C1077 1.399 . S
C1082 C1081 1.394 . S
C1082 C1083 1.516 . S
C1083 C1082 1.516 . S
C1083 C1084 1.502 . S
C1083 C1085 1.561 . S
C1083 C1086 1.526 . S
C1084 H1068 0.959 . S
C1084 H1069 0.959 . S
C1084 H1070 0.961 . S
C1084 C1083 1.502 . S
C1085 H1071 0.960 . S
C1085 H1072 0.961 . S
C1085 H1073 0.959 . S
C1085 C1083 1.561 . S
C1086 C1083 1.526 . S
C1086 C1087 1.396 . S
C1086 C1091 1.390 . S
C1087 C1081 1.465 . S
C1087 C1086 1.396 . S
C1087 C1088 1.399 . S
C1088 H1074 0.929 . S
C1088 C1087 1.399 . S
C1088 C1089 1.385 . S
C1089 H1075 0.931 . S
C1089 C1088 1.385 . S
C1089 C1090 1.389 . S
C1090 C1089 1.389 . S
C1090 C1091 1.387 . S
C1091 H1076 0.930 . S
C1091 C1086 1.390 . S
C1091 C1090 1.387 . S
H1092 C1104 0.930 . S
H1093 C1106 0.930 . S
H1094 C1107 0.930 . S
H1095 C1111 0.959 . S
H1096 C1111 0.959 . S
H1097 C1111 0.961 . S
H1098 C1112 0.960 . S
H1099 C1112 0.961 . S
H1100 C1112 0.959 . S
H1101 C1115 0.929 . S
H1102 C1116 0.931 . S
H1103 C1118 0.930 . S
C1104 H1092 0.930 . S
C1104 C1105 1.399 . S
C1104 C1109 1.399 . S
C1105 C1104 1.399 . S
C1105 C1106 1.376 . S
C1106 H1093 0.930 . S
C1106 C1105 1.376 . S
C1106 C1107 1.388 . S
C1107 H1094 0.930 . S
C1107 C1106 1.388 . S
C1107 C1108 1.390 . S
C1108 C1107 1.390 . S
C1108 C1109 1.394 . S
C1108 C1114 1.465 . S
C1109 C1104 1.399 . S
C1109 C1108 1.394 . S
C1109 C1110 1.516 . S
C1110 C1109 1.516 . S
C1110 C1111 1.502 . S
C1110 C1112 1.561 . S
C1110 C1113 1.526 . S
C1111 H1095 0.959 . S
C1111 H1096 0.959 . S
C1111 H1097 0.961 . S
C1111 C1110 1.502 . S
C1112 H1098 0.960 . S
C1112 H1099 0.961 . S
C1112 H1100 0.959 . S
C1112 C1110 1.561 . S
C1113 C1110 1.526 . S
C1113 C1114 1.396 . S
C1113 C1118 1.390 . S
C1114 C1108 1.465 . S
C1114 C1113 1.396 . S
C1114 C1115 1.399 . S
C1115 H1101 0.929 . S
C1115 C1114 1.399 . S
C1115 C1116 1.385 . S
C1116 H1102 0.931 . S
C1116 C1115 1.385 . S
C1116 C1117 1.389 . S
C1117 C1116 1.389 . S
C1117 C1118 1.387 . S
C1118 H1103 0.930 . S
C1118 C1113 1.390 . S
C1118 C1117 1.387 . S
H1119 C1131 0.930 . S
H1120 C1133 0.930 . S
H1121 C1134 0.930 . S
H1122 C1138 0.959 . S
H1123 C1138 0.959 . S
H1124 C1138 0.961 . S
H1125 C1139 0.960 . S
H1126 C1139 0.961 . S
H1127 C1139 0.959 . S
H1128 C1142 0.929 . S
H1129 C1143 0.931 . S
H1130 C1145 0.930 . S
C1131 H1119 0.930 . S
C1131 C1132 1.399 . S
C1131 C1136 1.399 . S
C1132 C1131 1.399 . S
C1132 C1133 1.376 . S
C1133 H1120 0.930 . S
C1133 C1132 1.376 . S
C1133 C1134 1.388 . S
C1134 H1121 0.930 . S
C1134 C1133 1.388 . S
C1134 C1135 1.390 . S
C1135 C1134 1.390 . S
C1135 C1136 1.394 . S
C1135 C1141 1.465 . S
C1136 C1131 1.399 . S
C1136 C1135 1.394 . S
C1136 C1137 1.516 . S
C1137 C1136 1.516 . S
C1137 C1138 1.502 . S
C1137 C1139 1.561 . S
C1137 C1140 1.526 . S
C1138 H1122 0.959 . S
C1138 H1123 0.959 . S
C1138 H1124 0.961 . S
C1138 C1137 1.502 . S
C1139 H1125 0.960 . S
C1139 H1126 0.961 . S
C1139 H1127 0.959 . S
C1139 C1137 1.561 . S
C1140 C1137 1.526 . S
C1140 C1141 1.396 . S
C1140 C1145 1.390 . S
C1141 C1135 1.465 . S
C1141 C1140 1.396 . S
C1141 C1142 1.399 . S
C1142 H1128 0.929 . S
C1142 C1141 1.399 . S
C1142 C1143 1.385 . S
C1143 H1129 0.931 . S
C1143 C1142 1.385 . S
C1143 C1144 1.389 . S
C1144 C1143 1.389 . S
C1144 C1145 1.387 . S
C1145 H1130 0.930 . S
C1145 C1140 1.390 . S
C1145 C1144 1.387 . S
H1146 C1158 0.930 . S
H1147 C1160 0.930 . S
H1148 C1161 0.930 . S
H1149 C1165 0.959 . S
H1150 C1165 0.959 . S
H1151 C1165 0.961 . S
H1152 C1166 0.960 . S
H1153 C1166 0.961 . S
H1154 C1166 0.959 . S
H1155 C1169 0.929 . S
H1156 C1170 0.931 . S
H1157 C1172 0.930 . S
C1158 H1146 0.930 . S
C1158 C1159 1.399 . S
C1158 C1163 1.399 . S
C1159 C1158 1.399 . S
C1159 C1160 1.376 . S
C1160 H1147 0.930 . S
C1160 C1159 1.376 . S
C1160 C1161 1.388 . S
C1161 H1148 0.930 . S
C1161 C1160 1.388 . S
C1161 C1162 1.390 . S
C1162 C1161 1.390 . S
C1162 C1163 1.394 . S
C1162 C1168 1.465 . S
C1163 C1158 1.399 . S
C1163 C1162 1.394 . S
C1163 C1164 1.516 . S
C1164 C1163 1.516 . S
C1164 C1165 1.502 . S
C1164 C1166 1.561 . S
C1164 C1167 1.526 . S
C1165 H1149 0.959 . S
C1165 H1150 0.959 . S
C1165 H1151 0.961 . S
C1165 C1164 1.502 . S
C1166 H1152 0.960 . S
C1166 H1153 0.961 . S
C1166 H1154 0.959 . S
C1166 C1164 1.561 . S
C1167 C1164 1.526 . S
C1167 C1168 1.396 . S
C1167 C1172 1.390 . S
C1168 C1162 1.465 . S
C1168 C1167 1.396 . S
C1168 C1169 1.399 . S
C1169 H1155 0.929 . S
C1169 C1168 1.399 . S
C1169 C1170 1.385 . S
C1170 H1156 0.931 . S
C1170 C1169 1.385 . S
C1170 C1171 1.389 . S
C1171 C1170 1.389 . S
C1171 C1172 1.387 . S
C1172 H1157 0.930 . S
C1172 C1167 1.390 . S
C1172 C1171 1.387 . S
H1173 C1185 0.930 . S
H1174 C1187 0.930 . S
H1175 C1188 0.930 . S
H1176 C1192 0.959 . S
H1177 C1192 0.959 . S
H1178 C1192 0.961 . S
H1179 C1193 0.960 . S
H1180 C1193 0.961 . S
H1181 C1193 0.959 . S
H1182 C1196 0.929 . S
H1183 C1197 0.931 . S
H1184 C1199 0.930 . S
C1185 H1173 0.930 . S
C1185 C1186 1.399 . S
C1185 C1190 1.399 . S
C1186 C1185 1.399 . S
C1186 C1187 1.376 . S
C1187 H1174 0.930 . S
C1187 C1186 1.376 . S
C1187 C1188 1.388 . S
C1188 H1175 0.930 . S
C1188 C1187 1.388 . S
C1188 C1189 1.390 . S
C1189 C1188 1.390 . S
C1189 C1190 1.394 . S
C1189 C1195 1.465 . S
C1190 C1185 1.399 . S
C1190 C1189 1.394 . S
C1190 C1191 1.516 . S
C1191 C1190 1.516 . S
C1191 C1192 1.502 . S
C1191 C1193 1.561 . S
C1191 C1194 1.526 . S
C1192 H1176 0.959 . S
C1192 H1177 0.959 . S
C1192 H1178 0.961 . S
C1192 C1191 1.502 . S
C1193 H1179 0.960 . S
C1193 H1180 0.961 . S
C1193 H1181 0.959 . S
C1193 C1191 1.561 . S
C1194 C1191 1.526 . S
C1194 C1195 1.396 . S
C1194 C1199 1.390 . S
C1195 C1189 1.465 . S
C1195 C1194 1.396 . S
C1195 C1196 1.399 . S
C1196 H1182 0.929 . S
C1196 C1195 1.399 . S
C1196 C1197 1.385 . S
C1197 H1183 0.931 . S
C1197 C1196 1.385 . S
C1197 C1198 1.389 . S
C1198 C1197 1.389 . S
C1198 C1199 1.387 . S
C1199 H1184 0.930 . S
C1199 C1194 1.390 . S
C1199 C1198 1.387 . S
H1200 C1212 0.930 . S
H1201 C1214 0.930 . S
H1202 C1215 0.930 . S
H1203 C1219 0.959 . S
H1204 C1219 0.959 . S
H1205 C1219 0.961 . S
H1206 C1220 0.960 . S
H1207 C1220 0.961 . S
H1208 C1220 0.959 . S
H1209 C1223 0.929 . S
H1210 C1224 0.931 . S
H1211 C1226 0.930 . S
C1212 H1200 0.930 . S
C1212 C1213 1.399 . S
C1212 C1217 1.399 . S
C1213 C1212 1.399 . S
C1213 C1214 1.376 . S
C1214 H1201 0.930 . S
C1214 C1213 1.376 . S
C1214 C1215 1.388 . S
C1215 H1202 0.930 . S
C1215 C1214 1.388 . S
C1215 C1216 1.390 . S
C1216 C1215 1.390 . S
C1216 C1217 1.394 . S
C1216 C1222 1.465 . S
C1217 C1212 1.399 . S
C1217 C1216 1.394 . S
C1217 C1218 1.516 . S
C1218 C1217 1.516 . S
C1218 C1219 1.502 . S
C1218 C1220 1.561 . S
C1218 C1221 1.526 . S
C1219 H1203 0.959 . S
C1219 H1204 0.959 . S
C1219 H1205 0.961 . S
C1219 C1218 1.502 . S
C1220 H1206 0.960 . S
C1220 H1207 0.961 . S
C1220 H1208 0.959 . S
C1220 C1218 1.561 . S
C1221 C1218 1.526 . S
C1221 C1222 1.396 . S
C1221 C1226 1.390 . S
C1222 C1216 1.465 . S
C1222 C1221 1.396 . S
C1222 C1223 1.399 . S
C1223 H1209 0.929 . S
C1223 C1222 1.399 . S
C1223 C1224 1.385 . S
C1224 H1210 0.931 . S
C1224 C1223 1.385 . S
C1224 C1225 1.389 . S
C1225 C1224 1.389 . S
C1225 C1226 1.387 . S
C1226 H1211 0.930 . S
C1226 C1221 1.390 . S
C1226 C1225 1.387 . S
H1227 C1239 0.930 . S
H1228 C1241 0.930 . S
H1229 C1242 0.930 . S
H1230 C1246 0.959 . S
H1231 C1246 0.959 . S
H1232 C1246 0.961 . S
H1233 C1247 0.960 . S
H1234 C1247 0.961 . S
H1235 C1247 0.959 . S
H1236 C1250 0.929 . S
H1237 C1251 0.931 . S
H1238 C1253 0.930 . S
C1239 H1227 0.930 . S
C1239 C1240 1.399 . S
C1239 C1244 1.399 . S
C1240 C1239 1.399 . S
C1240 C1241 1.376 . S
C1241 H1228 0.930 . S
C1241 C1240 1.376 . S
C1241 C1242 1.388 . S
C1242 H1229 0.930 . S
C1242 C1241 1.388 . S
C1242 C1243 1.390 . S
C1243 C1242 1.390 . S
C1243 C1244 1.394 . S
C1243 C1249 1.465 . S
C1244 C1239 1.399 . S
C1244 C1243 1.394 . S
C1244 C1245 1.516 . S
C1245 C1244 1.516 . S
C1245 C1246 1.502 . S
C1245 C1247 1.561 . S
C1245 C1248 1.526 . S
C1246 H1230 0.959 . S
C1246 H1231 0.959 . S
C1246 H1232 0.961 . S
C1246 C1245 1.502 . S
C1247 H1233 0.960 . S
C1247 H1234 0.961 . S
C1247 H1235 0.959 . S
C1247 C1245 1.561 . S
C1248 C1245 1.526 . S
C1248 C1249 1.396 . S
C1248 C1253 1.390 . S
C1249 C1243 1.465 . S
C1249 C1248 1.396 . S
C1249 C1250 1.399 . S
C1250 H1236 0.929 . S
C1250 C1249 1.399 . S
C1250 C1251 1.385 . S
C1251 H1237 0.931 . S
C1251 C1250 1.385 . S
C1251 C1252 1.389 . S
C1252 C1251 1.389 . S
C1252 C1253 1.387 . S
C1253 H1238 0.930 . S
C1253 C1248 1.390 . S
C1253 C1252 1.387 . S
H1254 C1266 0.930 . S
H1255 C1268 0.930 . S
H1256 C1269 0.930 . S
H1257 C1273 0.959 . S
H1258 C1273 0.959 . S
H1259 C1273 0.961 . S
H1260 C1274 0.960 . S
H1261 C1274 0.961 . S
H1262 C1274 0.959 . S
H1263 C1277 0.929 . S
H1264 C1278 0.931 . S
H1265 C1280 0.930 . S
C1266 H1254 0.930 . S
C1266 C1267 1.399 . S
C1266 C1271 1.399 . S
C1267 C1266 1.399 . S
C1267 C1268 1.376 . S
C1268 H1255 0.930 . S
C1268 C1267 1.376 . S
C1268 C1269 1.388 . S
C1269 H1256 0.930 . S
C1269 C1268 1.388 . S
C1269 C1270 1.390 . S
C1270 C1269 1.390 . S
C1270 C1271 1.394 . S
C1270 C1276 1.465 . S
C1271 C1266 1.399 . S
C1271 C1270 1.394 . S
C1271 C1272 1.516 . S
C1272 C1271 1.516 . S
C1272 C1273 1.502 . S
C1272 C1274 1.561 . S
C1272 C1275 1.526 . S
C1273 H1257 0.959 . S
C1273 H1258 0.959 . S
C1273 H1259 0.961 . S
C1273 C1272 1.502 . S
C1274 H1260 0.960 . S
C1274 H1261 0.961 . S
C1274 H1262 0.959 . S
C1274 C1272 1.561 . S
C1275 C1272 1.526 . S
C1275 C1276 1.396 . S
C1275 C1280 1.390 . S
C1276 C1270 1.465 . S
C1276 C1275 1.396 . S
C1276 C1277 1.399 . S
C1277 H1263 0.929 . S
C1277 C1276 1.399 . S
C1277 C1278 1.385 . S
C1278 H1264 0.931 . S
C1278 C1277 1.385 . S
C1278 C1279 1.389 . S
C1279 C1278 1.389 . S
C1279 C1280 1.387 . S
C1280 H1265 0.930 . S
C1280 C1275 1.390 . S
C1280 C1279 1.387 . S
H1281 C1293 0.930 . S
H1282 C1295 0.930 . S
H1283 C1296 0.930 . S
H1284 C1300 0.959 . S
H1285 C1300 0.959 . S
H1286 C1300 0.961 . S
H1287 C1301 0.960 . S
H1288 C1301 0.961 . S
H1289 C1301 0.959 . S
H1290 C1304 0.929 . S
H1291 C1305 0.931 . S
H1292 C1307 0.930 . S
C1293 H1281 0.930 . S
C1293 C1294 1.399 . S
C1293 C1298 1.399 . S
C1294 C1293 1.399 . S
C1294 C1295 1.376 . S
C1295 H1282 0.930 . S
C1295 C1294 1.376 . S
C1295 C1296 1.388 . S
C1296 H1283 0.930 . S
C1296 C1295 1.388 . S
C1296 C1297 1.390 . S
C1297 C1296 1.390 . S
C1297 C1298 1.394 . S
C1297 C1303 1.465 . S
C1298 C1293 1.399 . S
C1298 C1297 1.394 . S
C1298 C1299 1.516 . S
C1299 C1298 1.516 . S
C1299 C1300 1.502 . S
C1299 C1301 1.561 . S
C1299 C1302 1.526 . S
C1300 H1284 0.959 . S
C1300 H1285 0.959 . S
C1300 H1286 0.961 . S
C1300 C1299 1.502 . S
C1301 H1287 0.960 . S
C1301 H1288 0.961 . S
C1301 H1289 0.959 . S
C1301 C1299 1.561 . S
C1302 C1299 1.526 . S
C1302 C1303 1.396 . S
C1302 C1307 1.390 . S
C1303 C1297 1.465 . S
C1303 C1302 1.396 . S
C1303 C1304 1.399 . S
C1304 H1290 0.929 . S
C1304 C1303 1.399 . S
C1304 C1305 1.385 . S
C1305 H1291 0.931 . S
C1305 C1304 1.385 . S
C1305 C1306 1.389 . S
C1306 C1305 1.389 . S
C1306 C1307 1.387 . S
C1307 H1292 0.930 . S
C1307 C1302 1.390 . S
C1307 C1306 1.387 . S
H1308 C1320 0.930 . S
H1309 C1322 0.930 . S
H1310 C1323 0.930 . S
H1311 C1327 0.959 . S
H1312 C1327 0.959 . S
H1313 C1327 0.961 . S
H1314 C1328 0.960 . S
H1315 C1328 0.961 . S
H1316 C1328 0.959 . S
H1317 C1331 0.929 . S
H1318 C1332 0.931 . S
H1319 C1334 0.930 . S
C1320 H1308 0.930 . S
C1320 C1321 1.399 . S
C1320 C1325 1.399 . S
C1321 C1320 1.399 . S
C1321 C1322 1.376 . S
C1322 H1309 0.930 . S
C1322 C1321 1.376 . S
C1322 C1323 1.388 . S
C1323 H1310 0.930 . S
C1323 C1322 1.388 . S
C1323 C1324 1.390 . S
C1324 C1323 1.390 . S
C1324 C1325 1.394 . S
C1324 C1330 1.465 . S
C1325 C1320 1.399 . S
C1325 C1324 1.394 . S
C1325 C1326 1.516 . S
C1326 C1325 1.516 . S
C1326 C1327 1.502 . S
C1326 C1328 1.561 . S
C1326 C1329 1.526 . S
C1327 H1311 0.959 . S
C1327 H1312 0.959 . S
C1327 H1313 0.961 . S
C1327 C1326 1.502 . S
C1328 H1314 0.960 . S
C1328 H1315 0.961 . S
C1328 H1316 0.959 . S
C1328 C1326 1.561 . S
C1329 C1326 1.526 . S
C1329 C1330 1.396 . S
C1329 C1334 1.390 . S
C1330 C1324 1.465 . S
C1330 C1329 1.396 . S
C1330 C1331 1.399 . S
C1331 H1317 0.929 . S
C1331 C1330 1.399 . S
C1331 C1332 1.385 . S
C1332 H1318 0.931 . S
C1332 C1331 1.385 . S
C1332 C1333 1.389 . S
C1333 C1332 1.389 . S
C1333 C1334 1.387 . S
C1334 H1319 0.930 . S
C1334 C1329 1.390 . S
C1334 C1333 1.387 . S
H1335 C1347 0.930 . S
H1336 C1349 0.930 . S
H1337 C1350 0.930 . S
H1338 C1354 0.959 . S
H1339 C1354 0.959 . S
H1340 C1354 0.961 . S
H1341 C1355 0.960 . S
H1342 C1355 0.961 . S
H1343 C1355 0.959 . S
H1344 C1358 0.929 . S
H1345 C1359 0.931 . S
H1346 C1361 0.930 . S
C1347 H1335 0.930 . S
C1347 C1348 1.399 . S
C1347 C1352 1.399 . S
C1348 C1347 1.399 . S
C1348 C1349 1.376 . S
C1349 H1336 0.930 . S
C1349 C1348 1.376 . S
C1349 C1350 1.388 . S
C1350 H1337 0.930 . S
C1350 C1349 1.388 . S
C1350 C1351 1.390 . S
C1351 C1350 1.390 . S
C1351 C1352 1.394 . S
C1351 C1357 1.465 . S
C1352 C1347 1.399 . S
C1352 C1351 1.394 . S
C1352 C1353 1.516 . S
C1353 C1352 1.516 . S
C1353 C1354 1.502 . S
C1353 C1355 1.561 . S
C1353 C1356 1.526 . S
C1354 H1338 0.959 . S
C1354 H1339 0.959 . S
C1354 H1340 0.961 . S
C1354 C1353 1.502 . S
C1355 H1341 0.960 . S
C1355 H1342 0.961 . S
C1355 H1343 0.959 . S
C1355 C1353 1.561 . S
C1356 C1353 1.526 . S
C1356 C1357 1.396 . S
C1356 C1361 1.390 . S
C1357 C1351 1.465 . S
C1357 C1356 1.396 . S
C1357 C1358 1.399 . S
C1358 H1344 0.929 . S
C1358 C1357 1.399 . S
C1358 C1359 1.385 . S
C1359 H1345 0.931 . S
C1359 C1358 1.385 . S
C1359 C1360 1.389 . S
C1360 C1359 1.389 . S
C1360 C1361 1.387 . S
C1361 H1346 0.930 . S
C1361 C1356 1.390 . S
C1361 C1360 1.387 . S
H1362 C1374 0.930 . S
H1363 C1376 0.930 . S
H1364 C1377 0.930 . S
H1365 C1381 0.959 . S
H1366 C1381 0.959 . S
H1367 C1381 0.961 . S
H1368 C1382 0.960 . S
H1369 C1382 0.961 . S
H1370 C1382 0.959 . S
H1371 C1385 0.929 . S
H1372 C1386 0.931 . S
H1373 C1388 0.930 . S
C1374 H1362 0.930 . S
C1374 C1375 1.399 . S
C1374 C1379 1.399 . S
C1375 C1374 1.399 . S
C1375 C1376 1.376 . S
C1376 H1363 0.930 . S
C1376 C1375 1.376 . S
C1376 C1377 1.388 . S
C1377 H1364 0.930 . S
C1377 C1376 1.388 . S
C1377 C1378 1.390 . S
C1378 C1377 1.390 . S
C1378 C1379 1.394 . S
C1378 C1384 1.465 . S
C1379 C1374 1.399 . S
C1379 C1378 1.394 . S
C1379 C1380 1.516 . S
C1380 C1379 1.516 . S
C1380 C1381 1.502 . S
C1380 C1382 1.561 . S
C1380 C1383 1.526 . S
C1381 H1365 0.959 . S
C1381 H1366 0.959 . S
C1381 H1367 0.961 . S
C1381 C1380 1.502 . S
C1382 H1368 0.960 . S
C1382 H1369 0.961 . S
C1382 H1370 0.959 . S
C1382 C1380 1.561 . S
C1383 C1380 1.526 . S
C1383 C1384 1.396 . S
C1383 C1388 1.390 . S
C1384 C1378 1.465 . S
C1384 C1383 1.396 . S
C1384 C1385 1.399 . S
C1385 H1371 0.929 . S
C1385 C1384 1.399 . S
C1385 C1386 1.385 . S
C1386 H1372 0.931 . S
C1386 C1385 1.385 . S
C1386 C1387 1.389 . S
C1387 C1386 1.389 . S
C1387 C1388 1.387 . S
C1388 H1373 0.930 . S
C1388 C1383 1.390 . S
C1388 C1387 1.387 . S
H1389 C1401 0.930 . S
H1390 C1403 0.930 . S
H1391 C1404 0.930 . S
H1392 C1408 0.959 . S
H1393 C1408 0.959 . S
H1394 C1408 0.961 . S
H1395 C1409 0.960 . S
H1396 C1409 0.961 . S
H1397 C1409 0.959 . S
H1398 C1412 0.929 . S
H1399 C1413 0.931 . S
H1400 C1415 0.930 . S
C1401 H1389 0.930 . S
C1401 C1402 1.399 . S
C1401 C1406 1.399 . S
C1402 C1401 1.399 . S
C1402 C1403 1.376 . S
C1403 H1390 0.930 . S
C1403 C1402 1.376 . S
C1403 C1404 1.388 . S
C1404 H1391 0.930 . S
C1404 C1403 1.388 . S
C1404 C1405 1.390 . S
C1405 C1404 1.390 . S
C1405 C1406 1.394 . S
C1405 C1411 1.465 . S
C1406 C1401 1.399 . S
C1406 C1405 1.394 . S
C1406 C1407 1.516 . S
C1407 C1406 1.516 . S
C1407 C1408 1.502 . S
C1407 C1409 1.561 . S
C1407 C1410 1.526 . S
C1408 H1392 0.959 . S
C1408 H1393 0.959 . S
C1408 H1394 0.961 . S
C1408 C1407 1.502 . S
C1409 H1395 0.960 . S
C1409 H1396 0.961 . S
C1409 H1397 0.959 . S
C1409 C1407 1.561 . S
C1410 C1407 1.526 . S
C1410 C1411 1.396 . S
C1410 C1415 1.390 . S
C1411 C1405 1.465 . S
C1411 C1410 1.396 . S
C1411 C1412 1.399 . S
C1412 H1398 0.929 . S
C1412 C1411 1.399 . S
C1412 C1413 1.385 . S
C1413 H1399 0.931 . S
C1413 C1412 1.385 . S
C1413 C1414 1.389 . S
C1414 C1413 1.389 . S
C1414 C1415 1.387 . S
C1415 H1400 0.930 . S
C1415 C1410 1.390 . S
C1415 C1414 1.387 . S
H1416 C1428 0.930 . S
H1417 C1430 0.930 . S
H1418 C1431 0.930 . S
H1419 C1435 0.959 . S
H1420 C1435 0.959 . S
H1421 C1435 0.961 . S
H1422 C1436 0.960 . S
H1423 C1436 0.961 . S
H1424 C1436 0.959 . S
H1425 C1439 0.929 . S
H1426 C1440 0.931 . S
H1427 C1442 0.930 . S
C1428 H1416 0.930 . S
C1428 C1429 1.399 . S
C1428 C1433 1.399 . S
C1429 C1428 1.399 . S
C1429 C1430 1.376 . S
C1430 H1417 0.930 . S
C1430 C1429 1.376 . S
C1430 C1431 1.388 . S
C1431 H1418 0.930 . S
C1431 C1430 1.388 . S
C1431 C1432 1.390 . S
C1432 C1431 1.390 . S
C1432 C1433 1.394 . S
C1432 C1438 1.465 . S
C1433 C1428 1.399 . S
C1433 C1432 1.394 . S
C1433 C1434 1.516 . S
C1434 C1433 1.516 . S
C1434 C1435 1.502 . S
C1434 C1436 1.561 . S
C1434 C1437 1.526 . S
C1435 H1419 0.959 . S
C1435 H1420 0.959 . S
C1435 H1421 0.961 . S
C1435 C1434 1.502 . S
C1436 H1422 0.960 . S
C1436 H1423 0.961 . S
C1436 H1424 0.959 . S
C1436 C1434 1.561 . S
C1437 C1434 1.526 . S
C1437 C1438 1.396 . S
C1437 C1442 1.390 . S
C1438 C1432 1.465 . S
C1438 C1437 1.396 . S
C1438 C1439 1.399 . S
C1439 H1425 0.929 . S
C1439 C1438 1.399 . S
C1439 C1440 1.385 . S
C1440 H1426 0.931 . S
C1440 C1439 1.385 . S
C1440 C1441 1.389 . S
C1441 C1440 1.389 . S
C1441 C1442 1.387 . S
C1442 H1427 0.930 . S
C1442 C1437 1.390 . S
C1442 C1441 1.387 . S
H1443 C1455 0.930 . S
H1444 C1457 0.930 . S
H1445 C1458 0.930 . S
H1446 C1462 0.959 . S
H1447 C1462 0.959 . S
H1448 C1462 0.961 . S
H1449 C1463 0.960 . S
H1450 C1463 0.961 . S
H1451 C1463 0.959 . S
H1452 C1466 0.929 . S
H1453 C1467 0.931 . S
H1454 C1469 0.930 . S
C1455 H1443 0.930 . S
C1455 C1456 1.399 . S
C1455 C1460 1.399 . S
C1456 C1455 1.399 . S
C1456 C1457 1.376 . S
C1457 H1444 0.930 . S
C1457 C1456 1.376 . S
C1457 C1458 1.388 . S
C1458 H1445 0.930 . S
C1458 C1457 1.388 . S
C1458 C1459 1.390 . S
C1459 C1458 1.390 . S
C1459 C1460 1.394 . S
C1459 C1465 1.465 . S
C1460 C1455 1.399 . S
C1460 C1459 1.394 . S
C1460 C1461 1.516 . S
C1461 C1460 1.516 . S
C1461 C1462 1.502 . S
C1461 C1463 1.561 . S
C1461 C1464 1.526 . S
C1462 H1446 0.959 . S
C1462 H1447 0.959 . S
C1462 H1448 0.961 . S
C1462 C1461 1.502 . S
C1463 H1449 0.960 . S
C1463 H1450 0.961 . S
C1463 H1451 0.959 . S
C1463 C1461 1.561 . S
C1464 C1461 1.526 . S
C1464 C1465 1.396 . S
C1464 C1469 1.390 . S
C1465 C1459 1.465 . S
C1465 C1464 1.396 . S
C1465 C1466 1.399 . S
C1466 H1452 0.929 . S
C1466 C1465 1.399 . S
C1466 C1467 1.385 . S
C1467 H1453 0.931 . S
C1467 C1466 1.385 . S
C1467 C1468 1.389 . S
C1468 C1467 1.389 . S
C1468 C1469 1.387 . S
C1469 H1454 0.930 . S
C1469 C1464 1.390 . S
C1469 C1468 1.387 . S
H1470 C1482 0.930 . S
H1471 C1484 0.930 . S
H1472 C1485 0.930 . S
H1473 C1489 0.959 . S
H1474 C1489 0.959 . S
H1475 C1489 0.961 . S
H1476 C1490 0.960 . S
H1477 C1490 0.961 . S
H1478 C1490 0.959 . S
H1479 C1493 0.929 . S
H1480 C1494 0.931 . S
H1481 C1496 0.930 . S
C1482 H1470 0.930 . S
C1482 C1483 1.399 . S
C1482 C1487 1.399 . S
C1483 C1482 1.399 . S
C1483 C1484 1.376 . S
C1484 H1471 0.930 . S
C1484 C1483 1.376 . S
C1484 C1485 1.388 . S
C1485 H1472 0.930 . S
C1485 C1484 1.388 . S
C1485 C1486 1.390 . S
C1486 C1485 1.390 . S
C1486 C1487 1.394 . S
C1486 C1492 1.465 . S
C1487 C1482 1.399 . S
C1487 C1486 1.394 . S
C1487 C1488 1.516 . S
C1488 C1487 1.516 . S
C1488 C1489 1.502 . S
C1488 C1490 1.561 . S
C1488 C1491 1.526 . S
C1489 H1473 0.959 . S
C1489 H1474 0.959 . S
C1489 H1475 0.961 . S
C1489 C1488 1.502 . S
C1490 H1476 0.960 . S
C1490 H1477 0.961 . S
C1490 H1478 0.959 . S
C1490 C1488 1.561 . S
C1491 C1488 1.526 . S
C1491 C1492 1.396 . S
C1491 C1496 1.390 . S
C1492 C1486 1.465 . S
C1492 C1491 1.396 . S
C1492 C1493 1.399 . S
C1493 H1479 0.929 . S
C1493 C1492 1.399 . S
C1493 C1494 1.385 . S
C1494 H1480 0.931 . S
C1494 C1493 1.385 . S
C1494 C1495 1.389 . S
C1495 C1494 1.389 . S
C1495 C1496 1.387 . S
C1496 H1481 0.930 . S
C1496 C1491 1.390 . S
C1496 C1495 1.387 . S
H1497 C1509 0.930 . S
H1498 C1511 0.930 . S
H1499 C1512 0.930 . S
H1500 C1516 0.959 . S
H1501 C1516 0.959 . S
H1502 C1516 0.961 . S
H1503 C1517 0.960 . S
H1504 C1517 0.961 . S
H1505 C1517 0.959 . S
H1506 C1520 0.929 . S
H1507 C1521 0.931 . S
H1508 C1523 0.930 . S
C1509 H1497 0.930 . S
C1509 C1510 1.399 . S
C1509 C1514 1.399 . S
C1510 C1509 1.399 . S
C1510 C1511 1.376 . S
C1511 H1498 0.930 . S
C1511 C1510 1.376 . S
C1511 C1512 1.388 . S
C1512 H1499 0.930 . S
C1512 C1511 1.388 . S
C1512 C1513 1.390 . S
C1513 C1512 1.390 . S
C1513 C1514 1.394 . S
C1513 C1519 1.465 . S
C1514 C1509 1.399 . S
C1514 C1513 1.394 . S
C1514 C1515 1.516 . S
C1515 C1514 1.516 . S
C1515 C1516 1.502 . S
C1515 C1517 1.561 . S
C1515 C1518 1.526 . S
C1516 H1500 0.959 . S
C1516 H1501 0.959 . S
C1516 H1502 0.961 . S
C1516 C1515 1.502 . S
C1517 H1503 0.960 . S
C1517 H1504 0.961 . S
C1517 H1505 0.959 . S
C1517 C1515 1.561 . S
C1518 C1515 1.526 . S
C1518 C1519 1.396 . S
C1518 C1523 1.390 . S
C1519 C1513 1.465 . S
C1519 C1518 1.396 . S
C1519 C1520 1.399 . S
C1520 H1506 0.929 . S
C1520 C1519 1.399 . S
C1520 C1521 1.385 . S
C1521 H1507 0.931 . S
C1521 C1520 1.385 . S
C1521 C1522 1.389 . S
C1522 C1521 1.389 . S
C1522 C1523 1.387 . S
C1523 H1508 0.930 . S
C1523 C1518 1.390 . S
C1523 C1522 1.387 . S
H1524 C1536 0.930 . S
H1525 C1538 0.930 . S
H1526 C1539 0.930 . S
H1527 C1543 0.959 . S
H1528 C1543 0.959 . S
H1529 C1543 0.961 . S
H1530 C1544 0.960 . S
H1531 C1544 0.961 . S
H1532 C1544 0.959 . S
H1533 C1547 0.929 . S
H1534 C1548 0.931 . S
H1535 C1550 0.930 . S
C1536 H1524 0.930 . S
C1536 C1537 1.399 . S
C1536 C1541 1.399 . S
C1537 C1536 1.399 . S
C1537 C1538 1.376 . S
C1538 H1525 0.930 . S
C1538 C1537 1.376 . S
C1538 C1539 1.388 . S
C1539 H1526 0.930 . S
C1539 C1538 1.388 . S
C1539 C1540 1.390 . S
C1540 C1539 1.390 . S
C1540 C1541 1.394 . S
C1540 C1546 1.465 . S
C1541 C1536 1.399 . S
C1541 C1540 1.394 . S
C1541 C1542 1.516 . S
C1542 C1541 1.516 . S
C1542 C1543 1.502 . S
C1542 C1544 1.561 . S
C1542 C1545 1.526 . S
C1543 H1527 0.959 . S
C1543 H1528 0.959 . S
C1543 H1529 0.961 . S
C1543 C1542 1.502 . S
C1544 H1530 0.960 . S
C1544 H1531 0.961 . S
C1544 H1532 0.959 . S
C1544 C1542 1.561 . S
C1545 C1542 1.526 . S
C1545 C1546 1.396 . S
C1545 C1550 1.390 . S
C1546 C1540 1.465 . S
C1546 C1545 1.396 . S
C1546 C1547 1.399 . S
C1547 H1533 0.929 . S
C1547 C1546 1.399 . S
C1547 C1548 1.385 . S
C1548 H1534 0.931 . S
C1548 C1547 1.385 . S
C1548 C1549 1.389 . S
C1549 C1548 1.389 . S
C1549 C1550 1.387 . S
C1550 H1535 0.930 . S
C1550 C1545 1.390 . S
C1550 C1549 1.387 . S
H1551 C1563 0.930 . S
H1552 C1565 0.930 . S
H1553 C1566 0.930 . S
H1554 C1570 0.959 . S
H1555 C1570 0.959 . S
H1556 C1570 0.961 . S
H1557 C1571 0.960 . S
H1558 C1571 0.961 . S
H1559 C1571 0.959 . S
H1560 C1574 0.929 . S
H1561 C1575 0.931 . S
H1562 C1577 0.930 . S
C1563 H1551 0.930 . S
C1563 C1564 1.399 . S
C1563 C1568 1.399 . S
C1564 C1563 1.399 . S
C1564 C1565 1.376 . S
C1565 H1552 0.930 . S
C1565 C1564 1.376 . S
C1565 C1566 1.388 . S
C1566 H1553 0.930 . S
C1566 C1565 1.388 . S
C1566 C1567 1.390 . S
C1567 C1566 1.390 . S
C1567 C1568 1.394 . S
C1567 C1573 1.465 . S
C1568 C1563 1.399 . S
C1568 C1567 1.394 . S
C1568 C1569 1.516 . S
C1569 C1568 1.516 . S
C1569 C1570 1.502 . S
C1569 C1571 1.561 . S
C1569 C1572 1.526 . S
C1570 H1554 0.959 . S
C1570 H1555 0.959 . S
C1570 H1556 0.961 . S
C1570 C1569 1.502 . S
C1571 H1557 0.960 . S
C1571 H1558 0.961 . S
C1571 H1559 0.959 . S
C1571 C1569 1.561 . S
C1572 C1569 1.526 . S
C1572 C1573 1.396 . S
C1572 C1577 1.390 . S
C1573 C1567 1.465 . S
C1573 C1572 1.396 . S
C1573 C1574 1.399 . S
C1574 H1560 0.929 . S
C1574 C1573 1.399 . S
C1574 C1575 1.385 . S
C1575 H1561 0.931 . S
C1575 C1574 1.385 . S
C1575 C1576 1.389 . S
C1576 C1575 1.389 . S
C1576 C1577 1.387 . S
C1577 H1562 0.930 . S
C1577 C1572 1.390 . S
C1577 C1576 1.387 . S
H1578 C1590 0.930 . S
H1579 C1592 0.930 . S
H1580 C1593 0.930 . S
H1581 C1597 0.959 . S
H1582 C1597 0.959 . S
H1583 C1597 0.961 . S
H1584 C1598 0.960 . S
H1585 C1598 0.961 . S
H1586 C1598 0.959 . S
H1587 C1601 0.929 . S
H1588 C1602 0.931 . S
H1589 C1604 0.930 . S
C1590 H1578 0.930 . S
C1590 C1591 1.399 . S
C1590 C1595 1.399 . S
C1591 C1590 1.399 . S
C1591 C1592 1.376 . S
C1592 H1579 0.930 . S
C1592 C1591 1.376 . S
C1592 C1593 1.388 . S
C1593 H1580 0.930 . S
C1593 C1592 1.388 . S
C1593 C1594 1.390 . S
C1594 C1593 1.390 . S
C1594 C1595 1.394 . S
C1594 C1600 1.465 . S
C1595 C1590 1.399 . S
C1595 C1594 1.394 . S
C1595 C1596 1.516 . S
C1596 C1595 1.516 . S
C1596 C1597 1.502 . S
C1596 C1598 1.561 . S
C1596 C1599 1.526 . S
C1597 H1581 0.959 . S
C1597 H1582 0.959 . S
C1597 H1583 0.961 . S
C1597 C1596 1.502 . S
C1598 H1584 0.960 . S
C1598 H1585 0.961 . S
C1598 H1586 0.959 . S
C1598 C1596 1.561 . S
C1599 C1596 1.526 . S
C1599 C1600 1.396 . S
C1599 C1604 1.390 . S
C1600 C1594 1.465 . S
C1600 C1599 1.396 . S
C1600 C1601 1.399 . S
C1601 H1587 0.929 . S
C1601 C1600 1.399 . S
C1601 C1602 1.385 . S
C1602 H1588 0.931 . S
C1602 C1601 1.385 . S
C1602 C1603 1.389 . S
C1603 C1602 1.389 . S
C1603 C1604 1.387 . S
C1604 H1589 0.930 . S
C1604 C1599 1.390 . S
C1604 C1603 1.387 . S
H1605 C1617 0.930 . S
H1606 C1619 0.930 . S
H1607 C1620 0.930 . S
H1608 C1624 0.959 . S
H1609 C1624 0.959 . S
H1610 C1624 0.961 . S
H1611 C1625 0.960 . S
H1612 C1625 0.961 . S
H1613 C1625 0.959 . S
H1614 C1628 0.929 . S
H1615 C1629 0.931 . S
H1616 C1631 0.930 . S
C1617 H1605 0.930 . S
C1617 C1618 1.399 . S
C1617 C1622 1.399 . S
C1618 C1617 1.399 . S
C1618 C1619 1.376 . S
C1619 H1606 0.930 . S
C1619 C1618 1.376 . S
C1619 C1620 1.388 . S
C1620 H1607 0.930 . S
C1620 C1619 1.388 . S
C1620 C1621 1.390 . S
C1621 C1620 1.390 . S
C1621 C1622 1.394 . S
C1621 C1627 1.465 . S
C1622 C1617 1.399 . S
C1622 C1621 1.394 . S
C1622 C1623 1.516 . S
C1623 C1622 1.516 . S
C1623 C1624 1.502 . S
C1623 C1625 1.561 . S
C1623 C1626 1.526 . S
C1624 H1608 0.959 . S
C1624 H1609 0.959 . S
C1624 H1610 0.961 . S
C1624 C1623 1.502 . S
C1625 H1611 0.960 . S
C1625 H1612 0.961 . S
C1625 H1613 0.959 . S
C1625 C1623 1.561 . S
C1626 C1623 1.526 . S
C1626 C1627 1.396 . S
C1626 C1631 1.390 . S
C1627 C1621 1.465 . S
C1627 C1626 1.396 . S
C1627 C1628 1.399 . S
C1628 H1614 0.929 . S
C1628 C1627 1.399 . S
C1628 C1629 1.385 . S
C1629 H1615 0.931 . S
C1629 C1628 1.385 . S
C1629 C1630 1.389 . S
C1630 C1629 1.389 . S
C1630 C1631 1.387 . S
C1631 H1616 0.930 . S
C1631 C1626 1.390 . S
C1631 C1630 1.387 . S
C349 C203 1.455 . S
C361 C6 1.407 . S
C376 C21 1.438 . S
C388 C216 1.424 . S
C403 C261 1.700 . S
C415 C37 1.696 . S
C430 C50 2.081 . S
C442 C190 2.076 . S
C457 C204 2.074 . S
C469 C64 2.074 . S
C484 C79 1.662 . S
C496 C219 1.670 . S
C511 C91 1.478 . S
C523 C258 1.434 . S
C538 C104 1.407 . S
C550 C189 1.468 . S
C565 C133 1.478 . S
C577 C118 1.439 . S
C592 C148 2.106 . S
C604 C134 2.107 . S
C619 C147 1.449 . S
C631 C160 1.410 . S
C646 C163 1.674 . S
C658 C121 1.692 . S
C673 C174 1.467 . S
C685 C49 1.442 . S
C700 C63 1.433 . S
C712 C230 1.454 . S
C727 C246 2.087 . S
C739 C22 2.081 . S
C754 C20 1.592 . S
C766 C302 1.587 . S
C781 C132 1.559 . S
C793 C8 1.601 . S
C808 C331 1.718 . S
C820 C51 1.744 . S
C835 C161 0.909 . S
C847 C35 0.889 . S
C862 C301 0.948 . S
C874 C105 0.905 . S
C889 C135 1.736 . S
C901 C93 1.732 . S
C916 C78 1.597 . S
C928 C328 1.550 . S
C943 C62 1.557 . S
C955 C162 1.600 . S
C970 C218 1.592 . S
C982 C272 1.593 . S
C997 C231 0.888 . S
C1009 C217 0.913 . S
C1024 C188 1.576 . S
C1036 C232 1.573 . S
C1051 C275 1.708 . S
C1063 C191 1.756 . S
C1078 C36 1.569 . S
C1090 C286 1.555 . S
C1105 C146 1.555 . S
C1117 C106 1.570 . S
C1132 C7 0.933 . S
C1144 C315 0.964 . S
C1159 C273 1.452 . S
C1171 C34 1.408 . S
C1186 C9 1.688 . S
C1198 C233 1.670 . S
C1213 C274 2.105 . S
C1225 C92 2.107 . S
C1240 C177 1.671 . S
C1252 C107 1.662 . S
C1267 C76 1.465 . S
C1279 C245 1.464 . S
C1294 C300 1.417 . S
C1306 C287 1.442 . S
C1321 C330 2.074 . S
C1333 C288 2.074 . S
C1348 C314 1.451 . S
C1360 C329 1.433 . S
C1375 C303 1.662 . S
C1387 C317 1.670 . S
C1402 C120 1.571 . S
C1414 C48 1.546 . S
C1429 C23 1.753 . S
C1441 C149 1.711 . S
C1456 C77 0.895 . S
C1468 C119 0.894 . S
C1483 C289 1.756 . S
C1495 C65 1.709 . S
C1510 C90 1.559 . S
C1522 C316 1.570 . S
C1537 C176 1.597 . S
C1549 C202 1.550 . S
C1564 C259 0.911 . S
C1576 C175 0.953 . S
C1591 C244 1.567 . S
C1603 C260 1.603 . S
C1618 C205 1.710 . S
C1630 C247 1.755 . S
