# Generated by pormake.
# Topology cdl, (4)-cn, num edge types: 1
# Building blocks:
#     Node 0, Type 0, BuildingBlock: KOZSID_clean_sbu_0, # of connection points: 4
#     Node 1, Type 0, BuildingBlock: KOZSID_clean_sbu_0, # of connection points: 4
#     Node 2, Type 0, BuildingBlock: KOZSID_clean_sbu_0, # of connection points: 4
#     Node 3, Type 0, BuildingBlock: KOZSID_clean_sbu_0, # of connection points: 4
#     Edge 4, Type (0, 0), BuildingBlock: FUNLAD_clean_linker_0, # of connection points: 2
#     Edge 5, Type (0, 0), BuildingBlock: FUNLAD_clean_linker_0, # of connection points: 2
#     Edge 6, Type (0, 0), BuildingBlock: FUNLAD_clean_linker_0, # of connection points: 2
#     Edge 7, Type (0, 0), BuildingBlock: FUNLAD_clean_linker_0, # of connection points: 2
#     Edge 8, Type (0, 0), BuildingBlock: FUNLAD_clean_linker_0, # of connection points: 2
#     Edge 9, Type (0, 0), BuildingBlock: FUNLAD_clean_linker_0, # of connection points: 2
#     Edge 10, Type (0, 0), BuildingBlock: FUNLAD_clean_linker_0, # of connection points: 2
#     Edge 11, Type (0, 0), BuildingBlock: FUNLAD_clean_linker_0, # of connection points: 2
# Relax obj value: 0.000
# Max RMSD: 0.025
# Mean RMSD: 0.023
data_MOF--net-cdl--node1-KOZSID_clean_sbu_0--edge1-FUNLAD_clean_linker_0
_symmetry_space_group_name_H-M    P1
_symmetry_Int_Tables_number       1
_symmetry_cell_setting            triclinic
loop_
_symmetry_equiv_pos_as_xyz
'x, y, z'
_cell_length_a     19.160405
_cell_length_b     22.123908
_cell_length_c     82.54797
_cell_angle_alpha  107.58386
_cell_angle_beta   105.98801
_cell_angle_gamma 84.270445
loop_
_atom_site_label
_atom_site_type_symbol
_atom_site_fract_x
_atom_site_fract_y
_atom_site_fract_z
_atom_type_partial_charge
C0 C 0.16631 0.14935 0.15995 0.0
C1 C 0.23382 0.15574 0.17203 0.0
C2 C 0.28435 0.14664 0.16263 0.0
C3 C 0.24502 0.13515 0.14544 0.0
N4 N 0.17229 0.1369 0.14326 0.0
Co5 Co 0.09503 0.12094 0.12043 0.0
N6 N 0.16962 0.10477 0.10656 0.0
C7 C 0.24269 0.10559 0.11297 0.0
C8 C 0.27975 0.09494 0.10032 0.0
C9 C 0.22732 0.08758 0.0849 0.0
C10 C 0.161 0.09402 0.08907 0.0
N11 N 0.01779 0.10503 0.09762 0.0
C12 C 0.02373 0.09421 0.08099 0.0
C13 C 0.95633 0.08661 0.06887 0.0
C14 C 0.90581 0.09408 0.0782 0.0
C15 C 0.94508 0.10554 0.09539 0.0
N16 N 0.0204 0.13719 0.13428 0.0
C17 C 0.94732 0.13614 0.12787 0.0
C18 C 0.91024 0.14832 0.14056 0.0
C19 C 0.96267 0.1571 0.15602 0.0
C20 C 0.02897 0.14954 0.15182 0.0
N21 N 0.0928 0.21263 0.1219 0.0
C22 C 0.08956 0.34191 0.12297 0.0
C23 C 0.02541 0.30895 0.11882 0.0
C24 C 0.02825 0.24504 0.11837 0.0
C25 C 0.15537 0.30893 0.1267 0.0
C26 C 0.15574 0.24503 0.12612 0.0
N27 N 0.09727 0.02913 0.11896 0.0
C28 C 0.03479 0.93298 0.11441 0.0
C29 C 0.10057 0.89976 0.11788 0.0
C30 C 0.16465 0.9325 0.12178 0.0
C31 C 0.16178 0.99642 0.12224 0.0
C32 C 0.03439 0.99689 0.11499 0.0
H33 H 0.21261 0.01842 0.12542 0.0
H34 H 0.98243 0.01915 0.11222 0.0
H35 H 0.97742 0.22274 0.11498 0.0
H36 H 0.20768 0.22283 0.12909 0.0
C37 C 0.27482 0.1202 0.13103 0.0
C38 C 0.09836 0.15285 0.16492 0.0
C39 C 0.09147 0.09285 0.0761 0.0
C40 C 0.91519 0.12076 0.10979 0.0
H41 H 0.24541 0.16494 0.18614 0.0
H42 H 0.34282 0.14711 0.16769 0.0
H43 H 0.33795 0.09438 0.10216 0.0
H44 H 0.23691 0.07985 0.07211 0.0
H45 H 0.94489 0.07775 0.05477 0.0
H46 H 0.84736 0.09291 0.07311 0.0
H47 H 0.85203 0.14949 0.13875 0.0
H48 H 0.95326 0.16704 0.16893 0.0
H49 H 0.97293 0.33197 0.11562 0.0
H50 H 0.20668 0.33239 0.13026 0.0
H51 H 0.98348 0.9097 0.11104 0.0
H52 H 0.21716 0.9093 0.12478 0.0
C53 C 0.19623 0.15089 0.64577 0.0
C54 C 0.23132 0.20853 0.65346 0.0
C55 C 0.17862 0.25423 0.65558 0.0
C56 C 0.11466 0.22209 0.64905 0.0
N57 N 0.12326 0.15844 0.64308 0.0
Co58 Co 0.0447 0.09378 0.63188 0.0
N59 N 0.96707 0.16154 0.63373 0.0
C60 C 0.97636 0.225 0.64013 0.0
C61 C 0.9127 0.25938 0.63991 0.0
C62 C 0.8595 0.21527 0.6332 0.0
C63 C 0.89408 0.15633 0.62977 0.0
N64 N 0.96615 0.02909 0.62075 0.0
C65 C 0.89319 0.03666 0.61809 0.0
C66 C 0.85812 0.97898 0.61055 0.0
C67 C 0.91082 0.93325 0.60849 0.0
C68 C 0.97476 0.96539 0.61491 0.0
N69 N 0.12236 0.02603 0.62996 0.0
C70 C 0.11308 0.96259 0.62345 0.0
C71 C 0.17672 0.92825 0.62354 0.0
C72 C 0.2299 0.97239 0.63028 0.0
C73 C 0.19533 0.03129 0.63386 0.0
N74 N 0.04539 0.08756 0.65545 0.0
C75 C 0.03939 0.07866 0.68843 0.0
C76 C 0.04235 0.02428 0.67456 0.0
C77 C 0.04534 0.02977 0.65835 0.0
C78 C 0.04064 0.1376 0.68557 0.0
C79 C 0.04372 0.14092 0.66914 0.0
N80 N 0.0438 0.09999 0.6083 0.0
C81 C 0.04313 0.04967 0.57785 0.0
C82 C 0.04414 0.10847 0.5749 0.0
C83 C 0.04496 0.16296 0.58897 0.0
C84 C 0.04488 0.15768 0.60541 0.0
C85 C 0.04293 0.04656 0.59448 0.0
H86 H 0.04615 0.20098 0.61559 0.0
H87 H 0.04213 1.00033 0.59581 0.0
H88 H 0.04709 0.9865 0.64836 0.0
H89 H 0.04385 0.18723 0.6678 0.0
C90 C 0.04567 0.25063 0.64723 0.0
C91 C 0.23404 0.09078 0.64029 0.0
C92 C 0.85538 0.09687 0.62344 0.0
C93 C 0.04376 0.93689 0.61654 0.0
H94 H 0.28889 0.21695 0.65677 0.0
H95 H 0.1859 0.30499 0.66073 0.0
H96 H 0.9059 0.31034 0.64452 0.0
H97 H 0.80182 0.22519 0.63137 0.0
H98 H 0.80055 0.9706 0.60727 0.0
H99 H 0.90353 0.88247 0.60339 0.0
H100 H 0.18352 0.87731 0.61888 0.0
H101 H 0.28756 0.9625 0.63205 0.0
H102 H 0.04286 0.97745 0.67619 0.0
H103 H 0.03782 0.1812 0.69584 0.0
H104 H 0.04155 1.00604 0.56731 0.0
H105 H 0.04673 0.20965 0.58742 0.0
C106 C 0.10432 0.13459 0.92195 0.0
C107 C 0.17188 0.13986 0.93398 0.0
C108 C 0.22237 0.12919 0.92452 0.0
C109 C 0.18293 0.11832 0.90736 0.0
N110 N 0.1102 0.12227 0.90527 0.0
Co111 Co 0.03265 0.10838 0.88255 0.0
N112 N 0.10692 0.0876 0.86853 0.0
C113 C 0.17993 0.08495 0.87481 0.0
C114 C 0.21682 0.07167 0.86205 0.0
C115 C 0.16438 0.06644 0.84671 0.0
C116 C 0.09826 0.0768 0.85104 0.0
N117 N 0.95515 0.09482 0.85983 0.0
C118 C 0.96118 0.08403 0.84321 0.0
C119 C 0.89375 0.07977 0.83117 0.0
C120 C 0.84313 0.08945 0.84057 0.0
C121 C 0.88242 0.0989 0.85771 0.0
N122 N 0.95837 0.12893 0.89657 0.0
C123 C 0.8853 0.13049 0.89025 0.0
C124 C 0.84836 0.14346 0.90299 0.0
C125 C 0.90081 0.14974 0.91837 0.0
C126 C 0.96705 0.1404 0.9141 0.0
N127 N 0.03571 0.19945 0.88382 0.0
C128 C 0.03953 0.3264 0.88339 0.0
C129 C 0.97366 0.29729 0.88021 0.0
C130 C 0.97301 0.23448 0.88052 0.0
C131 C 0.10351 0.29113 0.8872 0.0
C132 C 0.1004 0.22845 0.88737 0.0
N133 N 0.02957 0.01725 0.88127 0.0
C134 C 0.96148 0.92503 0.87735 0.0
C135 C 0.02536 0.89019 0.88161 0.0
C136 C 0.09139 0.91977 0.88531 0.0
C137 C 0.09224 0.98261 0.88504 0.0
C138 C 0.96479 0.98774 0.87722 0.0
H139 H 0.14435 1.00236 0.88819 0.0
H140 H 0.91413 0.0115 0.87396 0.0
H141 H 0.92099 0.21503 0.87777 0.0
H142 H 0.15109 0.20426 0.89025 0.0
C143 C 0.21243 0.10025 0.89286 0.0
C144 C 0.03637 0.13924 0.92698 0.0
C145 C 0.02923 0.08014 0.83829 0.0
C146 C 0.85287 0.11592 0.8722 0.0
H147 H 0.1834 0.14915 0.9481 0.0
H148 H 0.28082 0.12779 0.92952 0.0
H149 H 0.27502 0.0685 0.86377 0.0
H150 H 0.17394 0.0579 0.83387 0.0
H151 H 0.88248 0.0719 0.81711 0.0
H152 H 0.78471 0.09131 0.83557 0.0
H153 H 0.79014 0.14614 0.90124 0.0
H154 H 0.89118 0.15857 0.93121 0.0
H155 H 0.92244 0.3222 0.87705 0.0
H156 H 0.15608 0.31176 0.89008 0.0
H157 H 0.90884 0.90403 0.87406 0.0
H158 H 0.14253 0.89518 0.88884 0.0
C159 C 0.23079 0.17338 0.38178 0.0
C160 C 0.26835 0.22984 0.38917 0.0
C161 C 0.21757 0.27732 0.39129 0.0
C162 C 0.1523 0.24722 0.38517 0.0
N163 N 0.15829 0.18328 0.37943 0.0
Co164 Co 0.07744 0.12083 0.36942 0.0
N165 N 0.00241 0.19095 0.37124 0.0
C166 C 0.01415 0.25411 0.37693 0.0
C167 C 0.95195 0.29047 0.37696 0.0
C168 C 0.89712 0.2481 0.37108 0.0
C169 C 0.9293 0.18807 0.36779 0.0
N170 N 0.99661 0.05835 0.35967 0.0
C171 C 0.92421 0.06829 0.35759 0.0
C172 C 0.88676 0.01175 0.35074 0.0
C173 C 0.9375 0.9642 0.34871 0.0
C174 C 0.00264 0.99432 0.35437 0.0
N175 N 0.15245 0.05073 0.36735 0.0
C176 C 0.14064 0.98757 0.36114 0.0
C177 C 0.20273 0.95129 0.36071 0.0
C178 C 0.25756 0.99373 0.36679 0.0
C179 C 0.22551 0.05368 0.37064 0.0
N180 N 0.08134 0.11855 0.39353 0.0
C181 C 0.08509 0.11502 0.42765 0.0
C182 C 0.08507 0.05916 0.41404 0.0
C183 C 0.08313 0.06199 0.39725 0.0
C184 C 0.08321 0.17271 0.42388 0.0
C185 C 0.08142 0.17337 0.4069 0.0
N186 N 0.07358 0.12311 0.3453 0.0
C187 C 0.06423 0.06887 0.31459 0.0
C188 C 0.07078 0.12585 0.31118 0.0
C189 C 0.07862 0.1815 0.32514 0.0
C190 C 0.07958 0.17911 0.34192 0.0
C191 C 0.06597 0.06856 0.33158 0.0
H192 H 0.0854 0.22319 0.35195 0.0
H193 H 0.06161 0.02349 0.33329 0.0
H194 H 0.08267 0.01772 0.38748 0.0
H195 H 0.08003 0.21885 0.40491 0.0
C196 C 0.08444 0.27778 0.38348 0.0
C197 C 0.26622 0.11195 0.37654 0.0
C198 C 0.88872 0.12996 0.36242 0.0
C199 C 0.07042 0.96382 0.3553 0.0
H200 H 0.32638 0.23604 0.39235 0.0
H201 H 0.22697 0.32782 0.39626 0.0
H202 H 0.94722 0.34168 0.38127 0.0
H203 H 0.84011 0.26009 0.36982 0.0
H204 H 0.82881 1.00558 0.34778 0.0
H205 H 0.92813 0.91368 0.34395 0.0
H206 H 0.20743 0.90013 0.35617 0.0
H207 H 0.31453 0.98186 0.36792 0.0
H208 H 0.08543 0.01323 0.41622 0.0
H209 H 0.084 0.21734 0.43402 0.0
H210 H 0.05903 0.02435 0.30425 0.0
H211 H 0.08318 0.22693 0.3231 0.0
C212 C 0.13747 0.43301 0.11702 0.0
C213 C 0.0878 0.41 0.12342 0.0
C214 C 0.13585 0.49692 0.11745 0.0
C215 C 0.08412 0.53955 0.12425 0.0
C216 C 0.03505 0.51656 0.13079 0.0
C217 C 0.03661 0.4527 0.13033 0.0
C218 C 0.0806 0.60841 0.12532 0.0
C219 C 0.10963 0.63327 0.11561 0.0
C220 C 0.10608 0.70213 0.11665 0.0
C221 C 0.15461 0.72494 0.10992 0.0
C222 C 0.15302 0.78879 0.11037 0.0
C223 C 0.10236 0.83166 0.11745 0.0
H224 H 0.01504 0.72958 0.12854 0.0
C225 C 0.05325 0.80884 0.12405 0.0
C226 C 0.05487 0.74494 0.12363 0.0
H227 H 0.01374 0.84051 0.1297 0.0
H228 H 0.17742 0.40147 0.11151 0.0
H229 H 0.1761 0.51248 0.11271 0.0
H230 H 0.99506 0.54817 0.13628 0.0
H231 H 0.99828 0.43702 0.13565 0.0
H232 H 0.05206 0.63933 0.13444 0.0
H233 H 0.13811 0.60229 0.10648 0.0
H234 H 0.19418 0.6932 0.1043 0.0
H235 H 0.1909 0.80431 0.1049 0.0
C236 C 0.3273 0.07805 0.62354 0.0
C237 C 0.31064 0.09032 0.63974 0.0
C238 C 0.39938 0.07729 0.62285 0.0
C239 C 0.45606 0.08922 0.63844 0.0
C240 C 0.43889 0.10029 0.6546 0.0
C241 C 0.36672 0.101 0.65526 0.0
C242 C 0.53359 0.08874 0.63838 0.0
C243 C 0.55579 0.09943 0.62535 0.0
C244 C 0.63333 0.09888 0.62529 0.0
C245 C 0.65053 0.08748 0.60913 0.0
C246 C 0.72272 0.08663 0.60847 0.0
C247 C 0.77877 0.09751 0.62399 0.0
H248 H 0.67917 0.12235 0.65366 0.0
C249 C 0.76207 0.11013 0.64019 0.0
C250 C 0.68997 0.11102 0.64088 0.0
H251 H 0.80494 0.11948 0.65231 0.0
H252 H 0.28441 0.06885 0.61143 0.0
H253 H 0.41013 0.06621 0.61007 0.0
H254 H 0.48143 0.1089 0.66677 0.0
H255 H 0.35458 0.10991 0.66785 0.0
H256 H 0.57343 0.07999 0.64967 0.0
H257 H 0.51597 0.10817 0.61405 0.0
H258 H 0.60802 0.07871 0.59695 0.0
H259 H 0.7349 0.07745 0.59587 0.0
C260 C 0.99276 0.43952 0.8888 0.0
C261 C 0.04145 0.39243 0.88241 0.0
C262 C 0.99374 0.50114 0.88754 0.0
C263 C 0.04388 0.51736 0.87991 0.0
C264 C 0.09216 0.47012 0.87345 0.0
C265 C 0.09118 0.4086 0.87472 0.0
C266 C 0.04651 0.5819 0.87787 0.0
C267 C 0.01733 0.6348 0.88707 0.0
C268 C 0.02011 0.69926 0.88502 0.0
C269 C 0.9708 0.74623 0.89109 0.0
C270 C 0.97204 0.80773 0.88983 0.0
C271 C 0.02313 0.82415 0.88255 0.0
H272 H 0.11197 0.68188 0.87337 0.0
C273 C 0.07284 0.77733 0.87655 0.0
C274 C 0.07156 0.71572 0.87779 0.0
H275 H 0.11276 0.78819 0.8708 0.0
H276 H 0.95392 0.42888 0.89488 0.0
H277 H 0.95414 0.53515 0.8923 0.0
H278 H 0.13092 0.48079 0.86734 0.0
H279 H 0.12862 0.37337 0.86936 0.0
H280 H 0.07437 0.58536 0.8684 0.0
H281 H 0.9893 0.63144 0.89651 0.0
H282 H 0.93102 0.73535 0.89688 0.0
H283 H 0.93375 0.84276 0.89488 0.0
C284 C 0.35879 0.12487 0.36187 0.0
C285 C 0.34242 0.10933 0.37563 0.0
C286 C 0.43065 0.12351 0.36101 0.0
C287 C 0.48742 0.10712 0.37405 0.0
C288 C 0.47034 0.0907 0.38766 0.0
C289 C 0.39837 0.09211 0.38851 0.0
C290 C 0.56465 0.10503 0.37369 0.0
C291 C 0.59041 0.13859 0.36548 0.0
C292 C 0.66761 0.13626 0.36508 0.0
C293 C 0.68461 0.15146 0.35128 0.0
C294 C 0.75656 0.14956 0.35038 0.0
C295 C 0.81255 0.13317 0.3634 0.0
H296 H 0.71403 0.11089 0.38945 0.0
C297 C 0.79624 0.11892 0.37735 0.0
C298 C 0.72439 0.12071 0.37826 0.0
H299 H 0.83925 0.10665 0.38757 0.0
H300 H 0.3158 0.13778 0.35177 0.0
H301 H 0.44098 0.13427 0.34995 0.0
H302 H 0.51288 0.07738 0.39778 0.0
H303 H 0.38629 0.07996 0.3992 0.0
H304 H 0.60134 0.07518 0.38068 0.0
H305 H 0.55381 0.16842 0.35846 0.0
H306 H 0.64204 0.16412 0.34106 0.0
H307 H 0.76859 0.1607 0.33954 0.0
C308 C 0.05556 0.08201 0.94974 0.0
C309 C 0.03799 0.13837 0.94497 0.0
C310 C 0.05793 0.08083 0.96671 0.0
C311 C 0.04332 0.13641 0.97928 0.0
C312 C 0.02503 0.19258 0.97431 0.0
C313 C 0.02278 0.19367 0.95733 0.0
C314 C 0.04447 0.13752 0.99748 0.0
C315 C 0.08204 0.09518 0.00557 0.0
C316 C 0.08336 0.09617 0.02377 0.0
C317 C 0.10349 0.04032 0.02883 0.0
C318 C 0.10608 0.03906 0.04581 0.0
C319 C 0.08927 0.09388 0.0581 0.0
H320 H 0.05367 0.19589 0.03321 0.0
C321 C 0.06977 0.14992 0.05324 0.0
C322 C 0.06712 0.15128 0.03627 0.0
H323 H 0.05709 0.19275 0.06266 0.0
H324 H 0.067 0.03881 0.94026 0.0
H325 H 0.06989 0.03604 0.96973 0.0
H326 H 0.01299 0.23593 0.98365 0.0
H327 H 0.00921 0.2376 0.95383 0.0
H328 H 0.01363 0.17542 0.00439 0.0
H329 H 0.11296 0.0574 0.99863 0.0
H330 H 0.11679 0.99733 0.01956 0.0
H331 H 0.1212 0.99539 0.04939 0.0
C332 C 0.04437 0.1557 0.45555 0.0
C333 C 0.0869 0.11302 0.4456 0.0
C334 C 0.04565 0.15345 0.47238 0.0
C335 C 0.08934 0.10808 0.47962 0.0
C336 C 0.13261 0.06615 0.46976 0.0
C337 C 0.13123 0.06835 0.45294 0.0
C338 C 0.0929 0.10371 0.49748 0.0
C339 C 0.04042 0.1261 0.50592 0.0
C340 C 0.04372 0.12088 0.52368 0.0
C341 C 0.00127 0.163 0.53373 0.0
C342 C 0.00174 0.15931 0.55037 0.0
C343 C 0.04423 0.11288 0.55729 0.0
H344 H 0.11769 0.03931 0.52308 0.0
C345 C 0.08623 0.07027 0.54717 0.0
C346 C 0.08588 0.07403 0.53055 0.0
H347 H 0.11981 0.0341 0.55215 0.0
H348 H 0.00941 0.19056 0.45026 0.0
H349 H 0.01311 0.188 0.47966 0.0
H350 H 0.1674 0.03119 0.47506 0.0
H351 H 0.16561 0.03548 0.44576 0.0
H352 H 0.14052 0.08009 0.50368 0.0
H353 H 0.99284 0.14988 0.49976 0.0
H354 H 0.96765 0.19909 0.52872 0.0
H355 H 0.96786 0.19222 0.55769 0.0
C356 C 0.11951 0.16375 0.29072 0.0
C357 C 0.06987 0.12696 0.29323 0.0
C358 C 0.11992 0.1634 0.27377 0.0
C359 C 0.06992 0.12669 0.25892 0.0
C360 C 0.02034 0.09007 0.2615 0.0
C361 C 0.02022 0.0902 0.27842 0.0
C362 C 0.06909 0.12306 0.24055 0.0
C363 C 0.10113 0.16524 0.23616 0.0
C364 C 0.09994 0.16058 0.2177 0.0
C365 C 0.11231 0.21542 0.21372 0.0
C366 C 0.11194 0.21303 0.19658 0.0
C367 C 0.09971 0.15562 0.18316 0.0
H368 H 0.08167 0.05894 0.20669 0.0
C369 C 0.0883 0.10056 0.18703 0.0
C370 C 0.08882 0.10279 0.20416 0.0
H371 H 0.07941 0.05576 0.17679 0.0
H372 H 0.15932 0.19167 0.30186 0.0
H373 H 0.16063 0.19084 0.27248 0.0
H374 H 0.98141 0.06111 0.25036 0.0
H375 H 0.98084 0.06177 0.27992 0.0
H376 H 0.03823 0.08491 0.2302 0.0
H377 H 0.12673 0.20654 0.24628 0.0
H378 H 0.12176 0.26038 0.22388 0.0
H379 H 0.12103 0.25593 0.19376 0.0
C380 C 0.07371 0.11506 0.72151 0.0
C381 C 0.03464 0.07383 0.70568 0.0
C382 C 0.06958 0.11018 0.73772 0.0
C383 C 0.02581 0.06411 0.73846 0.0
C384 C 0.98728 0.02267 0.72265 0.0
C385 C 0.9913 0.02761 0.70646 0.0
C386 C 0.02127 0.05613 0.7554 0.0
C387 C 0.03406 0.10318 0.77064 0.0
C388 C 0.03045 0.09514 0.78765 0.0
C389 C 0.01931 0.14912 0.80104 0.0
C390 C 0.01795 0.14399 0.81741 0.0
C391 C 0.02847 0.08484 0.82072 0.0
H392 H 0.05183 0.99324 0.78135 0.0
C393 C 0.03962 0.03071 0.80747 0.0
C394 C 0.0409 0.03573 0.79107 0.0
H395 H 0.0483 0.98476 0.80992 0.0
H396 H 0.10876 0.15034 0.72139 0.0
H397 H 0.10214 0.14164 0.74957 0.0
H398 H 0.95348 0.98651 0.72282 0.0
H399 H 0.95981 0.99555 0.69453 0.0
H400 H 0.00366 0.01047 0.75502 0.0
H401 H 0.04485 0.15045 0.77066 0.0
H402 H 0.0117 0.19547 0.79883 0.0
H403 H 0.00949 0.18625 0.82756 0.0
loop_
_geom_bond_atom_site_label_1
_geom_bond_atom_site_label_2
_geom_bond_distance
_geom_bond_site_symmetry_2
_ccdc_geom_bond_type
C0 C1 1.443 . S
C0 N4 1.376 . S
C0 C38 1.389 . S
C1 C0 1.443 . S
C1 C2 1.340 . S
C1 H41 0.951 . S
C2 C1 1.340 . S
C2 C3 1.439 . S
C2 H42 0.950 . S
C3 C2 1.439 . S
C3 N4 1.374 . S
C3 C37 1.395 . S
N4 C0 1.376 . S
N4 C3 1.374 . S
N4 Co5 2.008 . S
Co5 N4 2.008 . S
Co5 N6 1.995 . S
Co5 N11 2.008 . S
Co5 N16 1.995 . S
Co5 N21 2.282 . S
Co5 N27 2.282 . S
N6 Co5 1.995 . S
N6 C7 1.376 . S
N6 C10 1.383 . S
C7 N6 1.376 . S
C7 C8 1.446 . S
C7 C37 1.391 . S
C8 C7 1.446 . S
C8 C9 1.339 . S
C8 H43 0.949 . S
C9 C8 1.339 . S
C9 C10 1.439 . S
C9 H44 0.950 . S
C10 N6 1.383 . S
C10 C9 1.439 . S
C10 C39 1.392 . S
N11 Co5 2.008 . S
N11 C12 1.376 . S
N11 C15 1.374 1_455 S
C12 N11 1.376 . S
C12 C13 1.443 1_455 S
C12 C39 1.389 . S
C13 C12 1.443 1_655 S
C13 C14 1.340 . S
C13 H45 0.951 . S
C14 C13 1.340 . S
C14 C15 1.439 . S
C14 H46 0.950 . S
C15 N11 1.374 1_655 S
C15 C14 1.439 . S
C15 C40 1.395 . S
N16 Co5 1.995 . S
N16 C17 1.376 1_455 S
N16 C20 1.383 . S
C17 N16 1.376 1_655 S
C17 C18 1.446 . S
C17 C40 1.391 . S
C18 C17 1.446 . S
C18 C19 1.339 . S
C18 H47 0.949 . S
C19 C18 1.339 . S
C19 C20 1.439 1_655 S
C19 H48 0.950 . S
C20 N16 1.383 . S
C20 C19 1.439 1_455 S
C20 C38 1.392 . S
N21 Co5 2.282 . S
N21 C24 1.332 . S
N21 C26 1.332 . S
C22 C23 1.386 . S
C22 C25 1.388 . S
C23 C22 1.386 . S
C23 C24 1.382 . S
C23 H49 0.950 1_455 S
C24 N21 1.332 . S
C24 C23 1.382 . S
C24 H35 0.952 . S
C25 C22 1.388 . S
C25 C26 1.382 . S
C25 H50 0.950 . S
C26 N21 1.332 . S
C26 C25 1.382 . S
C26 H36 0.948 . S
N27 Co5 2.282 . S
N27 C31 1.332 1_545 S
N27 C32 1.332 1_545 S
C28 C29 1.388 . S
C28 C32 1.382 . S
C28 H51 0.950 1_455 S
C29 C28 1.388 . S
C29 C30 1.386 . S
C30 C29 1.386 . S
C30 C31 1.382 . S
C30 H52 0.950 . S
C31 N27 1.332 1_565 S
C31 C30 1.382 . S
C31 H33 0.952 . S
C32 N27 1.332 1_565 S
C32 C28 1.382 . S
C32 H34 0.948 1_465 S
H33 C31 0.952 . S
H34 C32 0.948 1_645 S
H35 C24 0.952 . S
H36 C26 0.948 . S
C37 C3 1.395 . S
C37 C7 1.391 . S
C38 C0 1.389 . S
C38 C20 1.392 . S
C39 C10 1.392 . S
C39 C12 1.389 . S
C40 C15 1.395 . S
C40 C17 1.391 . S
H41 C1 0.951 . S
H42 C2 0.950 . S
H43 C8 0.949 . S
H44 C9 0.950 . S
H45 C13 0.951 . S
H46 C14 0.950 . S
H47 C18 0.949 . S
H48 C19 0.950 . S
H49 C23 0.950 1_655 S
H50 C25 0.950 . S
H51 C28 0.950 1_655 S
H52 C30 0.950 . S
C53 C54 1.443 . S
C53 N57 1.376 . S
C53 C91 1.389 . S
C54 C53 1.443 . S
C54 C55 1.340 . S
C54 H94 0.951 . S
C55 C54 1.340 . S
C55 C56 1.439 . S
C55 H95 0.950 . S
C56 C55 1.439 . S
C56 N57 1.374 . S
C56 C90 1.395 . S
N57 C53 1.376 . S
N57 C56 1.374 . S
N57 Co58 2.008 . S
Co58 N57 2.008 . S
Co58 N59 1.995 1_455 S
Co58 N64 2.008 1_455 S
Co58 N69 1.995 . S
Co58 N74 2.282 . S
Co58 N80 2.282 . S
N59 Co58 1.995 1_655 S
N59 C60 1.376 . S
N59 C63 1.383 . S
C60 N59 1.376 . S
C60 C61 1.446 . S
C60 C90 1.391 1_655 S
C61 C60 1.446 . S
C61 C62 1.339 . S
C61 H96 0.949 . S
C62 C61 1.339 . S
C62 C63 1.439 . S
C62 H97 0.950 . S
C63 N59 1.383 . S
C63 C62 1.439 . S
C63 C92 1.392 . S
N64 Co58 2.008 1_655 S
N64 C65 1.376 . S
N64 C68 1.374 1_545 S
C65 N64 1.376 . S
C65 C66 1.443 1_545 S
C65 C92 1.389 . S
C66 C65 1.443 1_565 S
C66 C67 1.340 . S
C66 H98 0.951 . S
C67 C66 1.340 . S
C67 C68 1.439 . S
C67 H99 0.950 . S
C68 N64 1.374 1_565 S
C68 C67 1.439 . S
C68 C93 1.395 1_655 S
N69 Co58 1.995 . S
N69 C70 1.376 1_545 S
N69 C73 1.383 . S
C70 N69 1.376 1_565 S
C70 C71 1.446 . S
C70 C93 1.391 . S
C71 C70 1.446 . S
C71 C72 1.339 . S
C71 H100 0.949 . S
C72 C71 1.339 . S
C72 C73 1.439 1_565 S
C72 H101 0.950 . S
C73 N69 1.383 . S
C73 C72 1.439 1_545 S
C73 C91 1.392 . S
N74 Co58 2.282 . S
N74 C77 1.332 . S
N74 C79 1.332 . S
C75 C76 1.386 . S
C75 C78 1.388 . S
C76 C75 1.386 . S
C76 C77 1.382 . S
C76 H102 0.950 1_545 S
C77 N74 1.332 . S
C77 C76 1.382 . S
C77 H88 0.952 1_545 S
C78 C75 1.388 . S
C78 C79 1.382 . S
C78 H103 0.950 . S
C79 N74 1.332 . S
C79 C78 1.382 . S
C79 H89 0.948 . S
N80 Co58 2.282 . S
N80 C84 1.332 . S
N80 C85 1.332 . S
C81 C82 1.388 . S
C81 C85 1.382 . S
C81 H104 0.950 1_545 S
C82 C81 1.388 . S
C82 C83 1.386 . S
C83 C82 1.386 . S
C83 C84 1.382 . S
C83 H105 0.950 . S
C84 N80 1.332 . S
C84 C83 1.382 . S
C84 H86 0.952 . S
C85 N80 1.332 . S
C85 C81 1.382 . S
C85 H87 0.948 1_545 S
H86 C84 0.952 . S
H87 C85 0.948 1_565 S
H88 C77 0.952 1_565 S
H89 C79 0.948 . S
C90 C56 1.395 . S
C90 C60 1.391 1_455 S
C91 C53 1.389 . S
C91 C73 1.392 . S
C92 C63 1.392 . S
C92 C65 1.389 . S
C93 C68 1.395 1_455 S
C93 C70 1.391 . S
H94 C54 0.951 . S
H95 C55 0.950 . S
H96 C61 0.949 . S
H97 C62 0.950 . S
H98 C66 0.951 . S
H99 C67 0.950 . S
H100 C71 0.949 . S
H101 C72 0.950 . S
H102 C76 0.950 1_565 S
H103 C78 0.950 . S
H104 C81 0.950 1_565 S
H105 C83 0.950 . S
C106 C107 1.443 . S
C106 N110 1.376 . S
C106 C144 1.389 . S
C107 C106 1.443 . S
C107 C108 1.340 . S
C107 H147 0.951 . S
C108 C107 1.340 . S
C108 C109 1.439 . S
C108 H148 0.950 . S
C109 C108 1.439 . S
C109 N110 1.374 . S
C109 C143 1.395 . S
N110 C106 1.376 . S
N110 C109 1.374 . S
N110 Co111 2.008 . S
Co111 N110 2.008 . S
Co111 N112 1.995 . S
Co111 N117 2.008 1_455 S
Co111 N122 1.995 1_455 S
Co111 N127 2.282 . S
Co111 N133 2.282 1_545 S
N112 Co111 1.995 . S
N112 C113 1.376 . S
N112 C116 1.383 . S
C113 N112 1.376 . S
C113 C114 1.446 . S
C113 C143 1.391 . S
C114 C113 1.446 . S
C114 C115 1.339 . S
C114 H149 0.949 . S
C115 C114 1.339 . S
C115 C116 1.439 . S
C115 H150 0.950 . S
C116 N112 1.383 . S
C116 C115 1.439 . S
C116 C145 1.392 . S
N117 Co111 2.008 1_655 S
N117 C118 1.376 . S
N117 C121 1.374 . S
C118 N117 1.376 . S
C118 C119 1.443 . S
C118 C145 1.389 1_655 S
C119 C118 1.443 . S
C119 C120 1.340 . S
C119 H151 0.951 . S
C120 C119 1.340 . S
C120 C121 1.439 . S
C120 H152 0.950 . S
C121 N117 1.374 . S
C121 C120 1.439 . S
C121 C146 1.395 . S
N122 Co111 1.995 1_655 S
N122 C123 1.376 . S
N122 C126 1.383 . S
C123 N122 1.376 . S
C123 C124 1.446 . S
C123 C146 1.391 . S
C124 C123 1.446 . S
C124 C125 1.339 . S
C124 H153 0.949 . S
C125 C124 1.339 . S
C125 C126 1.439 . S
C125 H154 0.950 . S
C126 N122 1.383 . S
C126 C125 1.439 . S
C126 C144 1.392 1_655 S
N127 Co111 2.282 . S
N127 C130 1.332 1_455 S
N127 C132 1.332 . S
C128 C129 1.386 1_455 S
C128 C131 1.388 . S
C129 C128 1.386 1_655 S
C129 C130 1.382 . S
C129 H155 0.950 . S
C130 N127 1.332 1_655 S
C130 C129 1.382 . S
C130 H141 0.952 . S
C131 C128 1.388 . S
C131 C132 1.382 . S
C131 H156 0.950 . S
C132 N127 1.332 . S
C132 C131 1.382 . S
C132 H142 0.948 . S
N133 Co111 2.282 1_565 S
N133 C137 1.332 . S
N133 C138 1.332 1_455 S
C134 C135 1.388 1_655 S
C134 C138 1.382 . S
C134 H157 0.950 . S
C135 C134 1.388 1_455 S
C135 C136 1.386 . S
C136 C135 1.386 . S
C136 C137 1.382 . S
C136 H158 0.950 . S
C137 N133 1.332 . S
C137 C136 1.382 . S
C137 H139 0.952 . S
C138 N133 1.332 1_655 S
C138 C134 1.382 . S
C138 H140 0.948 . S
H139 C137 0.952 . S
H140 C138 0.948 . S
H141 C130 0.952 . S
H142 C132 0.948 . S
C143 C109 1.395 . S
C143 C113 1.391 . S
C144 C106 1.389 . S
C144 C126 1.392 1_455 S
C145 C116 1.392 . S
C145 C118 1.389 1_455 S
C146 C121 1.395 . S
C146 C123 1.391 . S
H147 C107 0.951 . S
H148 C108 0.950 . S
H149 C114 0.949 . S
H150 C115 0.950 . S
H151 C119 0.951 . S
H152 C120 0.950 . S
H153 C124 0.949 . S
H154 C125 0.950 . S
H155 C129 0.950 . S
H156 C131 0.950 . S
H157 C134 0.950 . S
H158 C136 0.950 . S
C159 C160 1.443 . S
C159 N163 1.376 . S
C159 C197 1.389 . S
C160 C159 1.443 . S
C160 C161 1.340 . S
C160 H200 0.951 . S
C161 C160 1.340 . S
C161 C162 1.439 . S
C161 H201 0.950 . S
C162 C161 1.439 . S
C162 N163 1.374 . S
C162 C196 1.395 . S
N163 C159 1.376 . S
N163 C162 1.374 . S
N163 Co164 2.008 . S
Co164 N163 2.008 . S
Co164 N165 1.995 1_455 S
Co164 N170 2.008 . S
Co164 N175 1.995 . S
Co164 N180 2.282 . S
Co164 N186 2.282 . S
N165 Co164 1.995 1_655 S
N165 C166 1.376 1_655 S
N165 C169 1.383 . S
C166 N165 1.376 1_455 S
C166 C167 1.446 1_455 S
C166 C196 1.391 . S
C167 C166 1.446 1_655 S
C167 C168 1.339 . S
C167 H202 0.949 . S
C168 C167 1.339 . S
C168 C169 1.439 . S
C168 H203 0.950 . S
C169 N165 1.383 . S
C169 C168 1.439 . S
C169 C198 1.392 . S
N170 Co164 2.008 . S
N170 C171 1.376 1_455 S
N170 C174 1.374 1_545 S
C171 N170 1.376 1_655 S
C171 C172 1.443 . S
C171 C198 1.389 . S
C172 C171 1.443 . S
C172 C173 1.340 1_545 S
C172 H204 0.951 . S
C173 C172 1.340 1_565 S
C173 C174 1.439 1_655 S
C173 H205 0.950 . S
C174 N170 1.374 1_565 S
C174 C173 1.439 1_455 S
C174 C199 1.395 . S
N175 Co164 1.995 . S
N175 C176 1.376 1_545 S
N175 C179 1.383 . S
C176 N175 1.376 1_565 S
C176 C177 1.446 . S
C176 C199 1.391 . S
C177 C176 1.446 . S
C177 C178 1.339 1_565 S
C177 H206 0.949 . S
C178 C177 1.339 1_545 S
C178 C179 1.439 . S
C178 H207 0.950 . S
C179 N175 1.383 . S
C179 C178 1.439 . S
C179 C197 1.392 . S
N180 Co164 2.282 . S
N180 C183 1.332 . S
N180 C185 1.332 . S
C181 C182 1.386 . S
C181 C184 1.388 . S
C182 C181 1.386 . S
C182 C183 1.382 . S
C182 H208 0.950 . S
C183 N180 1.332 . S
C183 C182 1.382 . S
C183 H194 0.952 . S
C184 C181 1.388 . S
C184 C185 1.382 . S
C184 H209 0.950 . S
C185 N180 1.332 . S
C185 C184 1.382 . S
C185 H195 0.948 . S
N186 Co164 2.282 . S
N186 C190 1.332 . S
N186 C191 1.332 . S
C187 C188 1.388 . S
C187 C191 1.382 . S
C187 H210 0.950 . S
C188 C187 1.388 . S
C188 C189 1.386 . S
C189 C188 1.386 . S
C189 C190 1.382 . S
C189 H211 0.950 . S
C190 N186 1.332 . S
C190 C189 1.382 . S
C190 H192 0.952 . S
C191 N186 1.332 . S
C191 C187 1.382 . S
C191 H193 0.948 . S
H192 C190 0.952 . S
H193 C191 0.948 . S
H194 C183 0.952 . S
H195 C185 0.948 . S
C196 C162 1.395 . S
C196 C166 1.391 . S
C197 C159 1.389 . S
C197 C179 1.392 . S
C198 C169 1.392 . S
C198 C171 1.389 . S
C199 C174 1.395 . S
C199 C176 1.391 . S
H200 C160 0.951 . S
H201 C161 0.950 . S
H202 C167 0.949 . S
H203 C168 0.950 . S
H204 C172 0.951 . S
H205 C173 0.950 . S
H206 C177 0.949 . S
H207 C178 0.950 . S
H208 C182 0.950 . S
H209 C184 0.950 . S
H210 C187 0.950 . S
H211 C189 0.950 . S
C212 C213 1.386 . S
C212 C214 1.383 . S
C212 H228 0.951 . S
C213 C212 1.386 . S
C213 C217 1.383 . S
C214 C212 1.383 . S
C214 C215 1.402 . S
C214 H229 0.951 . S
C215 C214 1.402 . S
C215 C216 1.375 . S
C215 C218 1.481 . S
C216 C215 1.375 . S
C216 C217 1.367 . S
C216 H230 0.951 . S
C217 C213 1.383 . S
C217 C216 1.367 . S
C217 H231 0.950 . S
C218 C215 1.481 . S
C218 C219 1.297 . S
C218 H232 0.950 . S
C219 C218 1.297 . S
C219 C220 1.479 . S
C219 H233 0.950 . S
C220 C219 1.479 . S
C220 C221 1.375 . S
C220 C226 1.404 . S
C221 C220 1.375 . S
C221 C222 1.369 . S
C221 H234 0.950 . S
C222 C221 1.369 . S
C222 C223 1.392 . S
C222 H235 0.951 . S
C223 C222 1.392 . S
C223 C225 1.384 . S
H224 C226 0.949 . S
C225 C223 1.384 . S
C225 C226 1.385 . S
C225 H227 0.950 . S
C226 C220 1.404 . S
C226 H224 0.949 . S
C226 C225 1.385 . S
H227 C225 0.950 . S
H228 C212 0.951 . S
H229 C214 0.951 . S
H230 C216 0.951 . S
H231 C217 0.950 . S
H232 C218 0.950 . S
H233 C219 0.950 . S
H234 C221 0.950 . S
H235 C222 0.951 . S
C236 C237 1.386 . S
C236 C238 1.383 . S
C236 H252 0.951 . S
C237 C236 1.386 . S
C237 C241 1.383 . S
C238 C236 1.383 . S
C238 C239 1.402 . S
C238 H253 0.951 . S
C239 C238 1.402 . S
C239 C240 1.375 . S
C239 C242 1.481 . S
C240 C239 1.375 . S
C240 C241 1.367 . S
C240 H254 0.951 . S
C241 C237 1.383 . S
C241 C240 1.367 . S
C241 H255 0.950 . S
C242 C239 1.481 . S
C242 C243 1.297 . S
C242 H256 0.950 . S
C243 C242 1.297 . S
C243 C244 1.479 . S
C243 H257 0.950 . S
C244 C243 1.479 . S
C244 C245 1.375 . S
C244 C250 1.404 . S
C245 C244 1.375 . S
C245 C246 1.369 . S
C245 H258 0.950 . S
C246 C245 1.369 . S
C246 C247 1.392 . S
C246 H259 0.951 . S
C247 C246 1.392 . S
C247 C249 1.384 . S
H248 C250 0.949 . S
C249 C247 1.384 . S
C249 C250 1.385 . S
C249 H251 0.950 . S
C250 C244 1.404 . S
C250 H248 0.949 . S
C250 C249 1.385 . S
H251 C249 0.950 . S
H252 C236 0.951 . S
H253 C238 0.951 . S
H254 C240 0.951 . S
H255 C241 0.950 . S
H256 C242 0.950 . S
H257 C243 0.950 . S
H258 C245 0.950 . S
H259 C246 0.951 . S
C260 C261 1.386 . S
C260 C262 1.383 . S
C260 H276 0.951 . S
C261 C260 1.386 . S
C261 C265 1.383 . S
C262 C260 1.383 . S
C262 C263 1.402 . S
C262 H277 0.951 . S
C263 C262 1.402 . S
C263 C264 1.375 . S
C263 C266 1.481 . S
C264 C263 1.375 . S
C264 C265 1.367 . S
C264 H278 0.951 . S
C265 C261 1.383 . S
C265 C264 1.367 . S
C265 H279 0.950 . S
C266 C263 1.481 . S
C266 C267 1.297 . S
C266 H280 0.950 . S
C267 C266 1.297 . S
C267 C268 1.479 . S
C267 H281 0.950 . S
C268 C267 1.479 . S
C268 C269 1.375 . S
C268 C274 1.404 . S
C269 C268 1.375 . S
C269 C270 1.369 . S
C269 H282 0.950 . S
C270 C269 1.369 . S
C270 C271 1.392 . S
C270 H283 0.951 . S
C271 C270 1.392 . S
C271 C273 1.384 . S
H272 C274 0.949 . S
C273 C271 1.384 . S
C273 C274 1.385 . S
C273 H275 0.950 . S
C274 C268 1.404 . S
C274 H272 0.949 . S
C274 C273 1.385 . S
H275 C273 0.950 . S
H276 C260 0.951 . S
H277 C262 0.951 . S
H278 C264 0.951 . S
H279 C265 0.950 . S
H280 C266 0.950 . S
H281 C267 0.950 . S
H282 C269 0.950 . S
H283 C270 0.951 . S
C284 C285 1.386 . S
C284 C286 1.383 . S
C284 H300 0.951 . S
C285 C284 1.386 . S
C285 C289 1.383 . S
C286 C284 1.383 . S
C286 C287 1.402 . S
C286 H301 0.951 . S
C287 C286 1.402 . S
C287 C288 1.375 . S
C287 C290 1.481 . S
C288 C287 1.375 . S
C288 C289 1.367 . S
C288 H302 0.951 . S
C289 C285 1.383 . S
C289 C288 1.367 . S
C289 H303 0.950 . S
C290 C287 1.481 . S
C290 C291 1.297 . S
C290 H304 0.950 . S
C291 C290 1.297 . S
C291 C292 1.479 . S
C291 H305 0.950 . S
C292 C291 1.479 . S
C292 C293 1.375 . S
C292 C298 1.404 . S
C293 C292 1.375 . S
C293 C294 1.369 . S
C293 H306 0.950 . S
C294 C293 1.369 . S
C294 C295 1.392 . S
C294 H307 0.951 . S
C295 C294 1.392 . S
C295 C297 1.384 . S
H296 C298 0.949 . S
C297 C295 1.384 . S
C297 C298 1.385 . S
C297 H299 0.950 . S
C298 C292 1.404 . S
C298 H296 0.949 . S
C298 C297 1.385 . S
H299 C297 0.950 . S
H300 C284 0.951 . S
H301 C286 0.951 . S
H302 C288 0.951 . S
H303 C289 0.950 . S
H304 C290 0.950 . S
H305 C291 0.950 . S
H306 C293 0.950 . S
H307 C294 0.951 . S
C308 C309 1.386 . S
C308 C310 1.383 . S
C308 H324 0.951 . S
C309 C308 1.386 . S
C309 C313 1.383 1_455 S
C310 C308 1.383 . S
C310 C311 1.402 . S
C310 H325 0.951 . S
C311 C310 1.402 . S
C311 C312 1.375 1_455 S
C311 C314 1.481 . S
C312 C311 1.375 1_655 S
C312 C313 1.367 . S
C312 H326 0.951 . S
C313 C309 1.383 1_655 S
C313 C312 1.367 . S
C313 H327 0.950 . S
C314 C311 1.481 . S
C314 C315 1.297 1_556 S
C314 H328 0.924 1_556 S
C315 C314 1.297 1_554 S
C315 C316 1.479 . S
C315 H329 0.950 . S
C316 C315 1.479 . S
C316 C317 1.375 . S
C316 C322 1.404 . S
C317 C316 1.375 . S
C317 C318 1.369 . S
C317 H330 0.950 . S
C318 C317 1.369 . S
C318 C319 1.392 . S
C318 H331 0.951 . S
C319 C318 1.392 . S
C319 C321 1.384 . S
H320 C322 0.949 . S
C321 C319 1.384 . S
C321 C322 1.385 . S
C321 H323 0.950 . S
C322 C316 1.404 . S
C322 H320 0.949 . S
C322 C321 1.385 . S
H323 C321 0.950 . S
H324 C308 0.951 . S
H325 C310 0.951 . S
H326 C312 0.951 . S
H327 C313 0.950 . S
H328 C314 0.924 1_554 S
H329 C315 0.950 . S
H330 C317 0.950 . S
H331 C318 0.951 . S
C332 C333 1.386 . S
C332 C334 1.383 . S
C332 H348 0.951 1_455 S
C333 C332 1.386 . S
C333 C337 1.383 . S
C334 C332 1.383 . S
C334 C335 1.402 . S
C334 H349 0.951 1_455 S
C335 C334 1.402 . S
C335 C336 1.375 . S
C335 C338 1.481 . S
C336 C335 1.375 . S
C336 C337 1.367 . S
C336 H350 0.951 . S
C337 C333 1.383 . S
C337 C336 1.367 . S
C337 H351 0.950 . S
C338 C335 1.481 . S
C338 C339 1.297 . S
C338 H352 0.950 . S
C339 C338 1.297 . S
C339 C340 1.479 . S
C339 H353 0.950 1_455 S
C340 C339 1.479 . S
C340 C341 1.375 1_455 S
C340 C346 1.404 . S
C341 C340 1.375 1_655 S
C341 C342 1.369 . S
C341 H354 0.950 . S
C342 C341 1.369 . S
C342 C343 1.392 1_655 S
C342 H355 0.951 . S
C343 C342 1.392 1_455 S
C343 C345 1.384 . S
H344 C346 0.949 . S
C345 C343 1.384 . S
C345 C346 1.385 . S
C345 H347 0.950 . S
C346 C340 1.404 . S
C346 H344 0.949 . S
C346 C345 1.385 . S
H347 C345 0.950 . S
H348 C332 0.951 1_655 S
H349 C334 0.951 1_655 S
H350 C336 0.951 . S
H351 C337 0.950 . S
H352 C338 0.950 . S
H353 C339 0.950 1_655 S
H354 C341 0.950 . S
H355 C342 0.951 . S
C356 C357 1.386 . S
C356 C358 1.383 . S
C356 H372 0.951 . S
C357 C356 1.386 . S
C357 C361 1.383 . S
C358 C356 1.383 . S
C358 C359 1.402 . S
C358 H373 0.951 . S
C359 C358 1.402 . S
C359 C360 1.375 . S
C359 C362 1.481 . S
C360 C359 1.375 . S
C360 C361 1.367 . S
C360 H374 0.951 . S
C361 C357 1.383 . S
C361 C360 1.367 . S
C361 H375 0.950 . S
C362 C359 1.481 . S
C362 C363 1.297 . S
C362 H376 0.950 . S
C363 C362 1.297 . S
C363 C364 1.479 . S
C363 H377 0.950 . S
C364 C363 1.479 . S
C364 C365 1.375 . S
C364 C370 1.404 . S
C365 C364 1.375 . S
C365 C366 1.369 . S
C365 H378 0.950 . S
C366 C365 1.369 . S
C366 C367 1.392 . S
C366 H379 0.951 . S
C367 C366 1.392 . S
C367 C369 1.384 . S
H368 C370 0.949 . S
C369 C367 1.384 . S
C369 C370 1.385 . S
C369 H371 0.950 . S
C370 C364 1.404 . S
C370 H368 0.949 . S
C370 C369 1.385 . S
H371 C369 0.950 . S
H372 C356 0.951 . S
H373 C358 0.951 . S
H374 C360 0.951 . S
H375 C361 0.950 . S
H376 C362 0.950 . S
H377 C363 0.950 . S
H378 C365 0.950 . S
H379 C366 0.951 . S
C380 C381 1.386 . S
C380 C382 1.383 . S
C380 H396 0.951 . S
C381 C380 1.386 . S
C381 C385 1.383 . S
C382 C380 1.383 . S
C382 C383 1.402 . S
C382 H397 0.951 . S
C383 C382 1.402 . S
C383 C384 1.375 . S
C383 C386 1.481 . S
C384 C383 1.375 . S
C384 C385 1.367 . S
C384 H398 0.951 1_545 S
C385 C381 1.383 . S
C385 C384 1.367 . S
C385 H399 0.950 1_545 S
C386 C383 1.481 . S
C386 C387 1.297 1_455 S
C386 H400 0.950 . S
C387 C386 1.297 1_655 S
C387 C388 1.479 . S
C387 H401 0.950 . S
C388 C387 1.479 . S
C388 C389 1.375 . S
C388 C394 1.404 1_655 S
C389 C388 1.375 . S
C389 C390 1.369 1_655 S
C389 H402 0.950 . S
C390 C389 1.369 1_455 S
C390 C391 1.392 . S
C390 H403 0.951 . S
C391 C390 1.392 . S
C391 C393 1.384 . S
H392 C394 0.945 1_565 S
C393 C391 1.384 . S
C393 C394 1.385 . S
C393 H395 0.952 1_545 S
C394 C388 1.404 1_455 S
C394 H392 0.945 1_545 S
C394 C393 1.385 . S
H395 C393 0.952 1_565 S
H396 C380 0.951 . S
H397 C382 0.951 . S
H398 C384 0.951 1_565 S
H399 C385 0.950 1_565 S
H400 C386 0.950 . S
H401 C387 0.950 . S
H402 C389 0.950 . S
H403 C390 0.951 . S
C213 C22 1.496 . S
C223 C29 1.484 . S
C237 C91 1.494 . S
C247 C92 1.484 . S
C261 C128 1.497 . S
C271 C135 1.490 . S
C285 C197 1.493 . S
C295 C198 1.493 . S
C309 C144 1.507 . S
C319 C39 1.511 . S
C333 C181 1.498 . S
C343 C82 1.495 . S
C357 C188 1.500 . S
C367 C38 1.502 . S
C381 C75 1.507 . S
C391 C145 1.499 . S
