# Generated by pormake.
# Topology snk, (6)-cn, num edge types: 1
# Building blocks:
#     Node 0, Type 0, BuildingBlock: KUMBUR_clean_sbu_0, # of connection points: 6
#     Node 1, Type 0, BuildingBlock: KUMBUR_clean_sbu_0, # of connection points: 6
#     Node 2, Type 0, BuildingBlock: KUMBUR_clean_sbu_0, # of connection points: 6
#     Node 3, Type 0, BuildingBlock: KUMBUR_clean_sbu_0, # of connection points: 6
#     Node 4, Type 0, BuildingBlock: KUMBUR_clean_sbu_0, # of connection points: 6
#     Node 5, Type 0, BuildingBlock: KUMBUR_clean_sbu_0, # of connection points: 6
#     Node 6, Type 0, BuildingBlock: KUMBUR_clean_sbu_0, # of connection points: 6
#     Node 7, Type 0, BuildingBlock: KUMBUR_clean_sbu_0, # of connection points: 6
#     Edge 8, Type (0, 0), BuildingBlock: MIFKUJ_clean_linker_0, # of connection points: 2
#     Edge 9, Type (0, 0), BuildingBlock: MIFKUJ_clean_linker_0, # of connection points: 2
#     Edge 10, Type (0, 0), BuildingBlock: MIFKUJ_clean_linker_0, # of connection points: 2
#     Edge 11, Type (0, 0), BuildingBlock: MIFKUJ_clean_linker_0, # of connection points: 2
#     Edge 12, Type (0, 0), BuildingBlock: MIFKUJ_clean_linker_0, # of connection points: 2
#     Edge 13, Type (0, 0), BuildingBlock: MIFKUJ_clean_linker_0, # of connection points: 2
#     Edge 14, Type (0, 0), BuildingBlock: MIFKUJ_clean_linker_0, # of connection points: 2
#     Edge 15, Type (0, 0), BuildingBlock: MIFKUJ_clean_linker_0, # of connection points: 2
#     Edge 16, Type (0, 0), BuildingBlock: MIFKUJ_clean_linker_0, # of connection points: 2
#     Edge 17, Type (0, 0), BuildingBlock: MIFKUJ_clean_linker_0, # of connection points: 2
#     Edge 18, Type (0, 0), BuildingBlock: MIFKUJ_clean_linker_0, # of connection points: 2
#     Edge 19, Type (0, 0), BuildingBlock: MIFKUJ_clean_linker_0, # of connection points: 2
#     Edge 20, Type (0, 0), BuildingBlock: MIFKUJ_clean_linker_0, # of connection points: 2
#     Edge 21, Type (0, 0), BuildingBlock: MIFKUJ_clean_linker_0, # of connection points: 2
#     Edge 22, Type (0, 0), BuildingBlock: MIFKUJ_clean_linker_0, # of connection points: 2
#     Edge 23, Type (0, 0), BuildingBlock: MIFKUJ_clean_linker_0, # of connection points: 2
#     Edge 24, Type (0, 0), BuildingBlock: MIFKUJ_clean_linker_0, # of connection points: 2
#     Edge 25, Type (0, 0), BuildingBlock: MIFKUJ_clean_linker_0, # of connection points: 2
#     Edge 26, Type (0, 0), BuildingBlock: MIFKUJ_clean_linker_0, # of connection points: 2
#     Edge 27, Type (0, 0), BuildingBlock: MIFKUJ_clean_linker_0, # of connection points: 2
#     Edge 28, Type (0, 0), BuildingBlock: MIFKUJ_clean_linker_0, # of connection points: 2
#     Edge 29, Type (0, 0), BuildingBlock: MIFKUJ_clean_linker_0, # of connection points: 2
#     Edge 30, Type (0, 0), BuildingBlock: MIFKUJ_clean_linker_0, # of connection points: 2
#     Edge 31, Type (0, 0), BuildingBlock: MIFKUJ_clean_linker_0, # of connection points: 2
# Relax obj value: 0.014
# Max RMSD: 0.073
# Mean RMSD: 0.068
data_MOF--net-snk--node1-KUMBUR_clean_sbu_0--edge1-MIFKUJ_clean_linker_0
_symmetry_space_group_name_H-M    P1
_symmetry_Int_Tables_number       1
_symmetry_cell_setting            triclinic
loop_
_symmetry_equiv_pos_as_xyz
'x, y, z'
_cell_length_a     50.233667
_cell_length_b     50.187724
_cell_length_c     29.2018
_cell_angle_alpha  88.944349
_cell_angle_beta   88.925906
_cell_angle_gamma 89.974962
loop_
_atom_site_label
_atom_site_type_symbol
_atom_site_fract_x
_atom_site_fract_y
_atom_site_fract_z
_atom_type_partial_charge
Tb0 Tb 0.00446 0.98422 0.46854 0.0
C1 C 0.00879 0.08537 0.57777 0.0
C2 C 0.05424 0.1003 0.56706 0.0
C3 C 0.01893 0.13268 0.57924 0.0
C4 C 0.03518 0.07967 0.56911 0.0
C5 C 1.00036 0.11184 0.58416 0.0
C6 C 0.04586 0.12691 0.57066 0.0
C7 C 0.95661 0.09484 0.60422 0.0
N8 N 0.99166 0.06462 0.5829 0.0
C9 C 0.96598 0.0689 0.59762 0.0
C10 C 0.97378 0.11645 0.59685 0.0
Tb11 Tb 0.00859 0.02285 0.57018 0.0
N12 N 0.04244 0.05367 0.56712 0.0
C13 C 0.06885 0.04693 0.56708 0.0
C14 C 0.08119 0.09349 0.56357 0.0
C15 C 0.08853 0.06667 0.5645 0.0
H16 H 0.95247 0.05239 0.60307 0.0
H17 H 0.10935 0.06115 0.56303 0.0
H18 H 0.06015 0.14307 0.56853 0.0
H19 H 0.93613 0.09814 0.61483 0.0
H20 H 0.075 0.02635 0.56751 0.0
H21 H 0.90517 0.94322 0.46843 0.0
H22 H 0.09647 0.10873 0.56172 0.0
H23 H 0.06322 0.9569 0.44258 0.0
H24 H 0.93861 0.97873 0.47266 0.0
H25 H 0.08102 0.91236 0.42667 0.0
H26 H 0.01282 0.15321 0.58349 0.0
H27 H 0.91932 0.89654 0.4586 0.0
H28 H 0.95662 0.8641 0.44415 0.0
H29 H 0.96649 0.1365 0.60213 0.0
H30 H 0.00442 0.85541 0.43485 0.0
N31 N 0.97182 0.95233 0.46941 0.0
C32 C 0.94527 0.9584 0.46975 0.0
C33 C 0.93421 0.91192 0.46201 0.0
C34 C 0.96137 0.90594 0.45905 0.0
C35 C 0.92614 0.93829 0.46717 0.0
C36 C 0.97991 0.92682 0.46319 0.0
H37 H 0.05102 0.8733 0.42804 0.0
N38 N 0.02342 0.94337 0.4553 0.0
C39 C 0.06006 0.91483 0.43479 0.0
C40 C 0.00667 0.92219 0.45549 0.0
C41 C 0.0498 0.94013 0.44383 0.0
C42 C 0.0431 0.89282 0.4358 0.0
C43 C 0.01596 0.8964 0.44538 0.0
O44 O 0.02144 0.98832 0.40202 0.0
O45 O 0.02048 0.02016 0.4986 0.0
O46 O 0.98685 0.04706 0.52012 0.0
O47 O 0.97168 0.01374 0.47269 0.0
O48 O 0.04462 1.00028 0.45485 0.0
O49 O 0.97928 0.99247 0.41319 0.0
O50 O 0.99159 0.01922 0.63672 0.0
O51 O 0.99217 0.98722 0.53982 0.0
O52 O 0.02453 0.95943 0.5199 0.0
O53 O 0.0409 0.99282 0.56573 0.0
O54 O 0.9682 0.00696 0.58402 0.0
O55 O 0.03363 0.01435 0.62565 0.0
C56 C 0.04336 0.02114 0.47938 0.0
C57 C 0.99367 0.97502 0.34187 0.0
C58 C 0.99728 0.96842 0.25898 0.0
C59 C 1.00148 0.98429 0.29769 0.0
C60 C 0.98527 0.94328 0.26516 0.0
C61 C 0.98111 0.95014 0.34657 0.0
C62 C 0.97718 0.93431 0.30863 0.0
C63 C 0.97076 0.03849 0.48811 0.0
C64 C 0.99848 0.99137 0.38265 0.0
C65 C 0.99775 0.87531 0.44311 0.0
C66 C 0.97049 0.88018 0.44917 0.0
C67 C 0.96924 0.98625 0.55891 0.0
C68 C 0.01959 0.03263 0.6963 0.0
C69 C 0.0145 0.0228 0.74123 0.0
C70 C 0.01887 0.03911 0.77934 0.0
C71 C 0.02856 0.06514 0.77176 0.0
C72 C 0.02953 0.05857 0.69007 0.0
C73 C 0.0339 0.0747 0.72747 0.0
C74 C 0.04107 0.96787 0.5513 0.0
C75 C 0.01448 0.01591 0.65617 0.0
H76 H 0.01086 1.00366 0.29348 0.0
H77 H 0.98149 0.9308 0.23611 0.0
H78 H 0.97398 0.94296 0.37938 0.0
H79 H 0.96753 0.91512 0.31288 0.0
H80 H 0.00691 1.00274 0.74645 0.0
H81 H 0.03249 0.078 0.80025 0.0
H82 H 0.03414 0.06639 0.65639 0.0
H83 H 0.0416 0.09468 0.7221 0.0
Tb84 Tb 0.27187 0.74644 0.72378 0.0
C85 C 0.17091 0.76982 0.836 0.0
C86 C 0.16248 0.8167 0.82262 0.0
C87 C 0.12544 0.78634 0.83713 0.0
C88 C 0.18027 0.79505 0.82598 0.0
C89 C 0.14345 0.76513 0.84258 0.0
C90 C 0.13495 0.81211 0.82718 0.0
C91 C 0.15397 0.71954 0.8632 0.0
N92 N 0.189 0.75001 0.84121 0.0
C93 C 0.18103 0.72525 0.85648 0.0
C94 C 0.13504 0.73946 0.85561 0.0
Tb95 Tb 0.2328 0.7609 0.82745 0.0
N96 N 0.207 0.79856 0.8221 0.0
C97 C 0.21732 0.82373 0.81796 0.0
C98 C 0.17294 0.84232 0.81595 0.0
C99 C 0.2005 0.84587 0.81421 0.0
H100 H 0.19551 0.70968 0.86205 0.0
H101 H 0.20882 0.86566 0.80981 0.0
H102 H 0.12093 0.82843 0.82414 0.0
H103 H 0.14776 0.69979 0.87434 0.0
H104 H 0.23852 0.82693 0.81625 0.0
H105 H 0.29647 0.64145 0.7319 0.0
H106 H 0.15997 0.85951 0.81312 0.0
H107 H 0.30861 0.79913 0.69394 0.0
H108 H 0.26672 0.68013 0.73279 0.0
H109 H 0.35594 0.8094 0.6785 0.0
H110 H 0.10421 0.78314 0.84162 0.0
H111 H 0.34506 0.64769 0.72164 0.0
H112 H 0.38364 0.67901 0.70832 0.0
H113 H 0.1141 0.73501 0.861 0.0
H114 H 0.3999 0.72479 0.69434 0.0
N115 N 0.29788 0.70876 0.72407 0.0
C116 C 0.28775 0.6835 0.72819 0.0
C117 C 0.33204 0.66491 0.72192 0.0
C118 C 0.34226 0.69067 0.71596 0.0
C119 C 0.30463 0.66132 0.72769 0.0
C120 C 0.32442 0.71238 0.71686 0.0
H121 H 0.38969 0.77356 0.68282 0.0
N122 N 0.31539 0.7579 0.70824 0.0
C123 C 0.34992 0.7892 0.68714 0.0
C124 C 0.33351 0.73791 0.70881 0.0
C125 C 0.32307 0.78326 0.69578 0.0
C126 C 0.36891 0.76893 0.6897 0.0
C127 C 0.36077 0.74281 0.69996 0.0
O128 O 0.26985 0.76266 0.65661 0.0
O129 O 0.23944 0.76847 0.75497 0.0
O130 O 0.20712 0.74121 0.7795 0.0
O131 O 0.23888 0.71818 0.73623 0.0
O132 O 0.26121 0.78778 0.70567 0.0
O133 O 0.25802 0.72223 0.67106 0.0
O134 O 0.23348 0.74586 0.89549 0.0
O135 O 0.2649 0.73858 0.79613 0.0
O136 O 0.29813 0.76487 0.77269 0.0
O137 O 0.26675 0.78812 0.8164 0.0
O138 O 0.24421 0.72003 0.8478 0.0
O139 O 0.24501 0.78626 0.87979 0.0
C140 C 0.24088 0.79014 0.73252 0.0
C141 C 0.27627 0.7318 0.59695 0.0
C142 C 0.28007 0.72981 0.51301 0.0
C143 C 0.26677 0.73886 0.55302 0.0
C144 C 0.30326 0.71436 0.51783 0.0
C145 C 0.29925 0.71608 0.60024 0.0
C146 C 0.31272 0.70761 0.56104 0.0
C147 C 0.21414 0.72203 0.75135 0.0
C148 C 0.26202 0.74039 0.63913 0.0
C149 C 0.37884 0.72144 0.7007 0.0
C150 C 0.36958 0.69539 0.70863 0.0
C151 C 0.26401 0.7173 0.81985 0.0
C152 C 0.22505 0.77771 0.95296 0.0
C153 C 0.23401 0.77242 0.99791 0.0
C154 C 0.21958 0.78197 0.03642 0.0
C155 C 0.19588 0.79626 0.02907 0.0
C156 C 0.20143 0.79215 0.94711 0.0
C157 C 0.18693 0.80122 0.98484 0.0
C158 C 0.29154 0.78372 0.80193 0.0
C159 C 0.24048 0.76859 0.91235 0.0
H160 H 0.24886 0.75078 0.55005 0.0
H161 H 0.31424 0.70753 0.488 0.0
H162 H 0.30676 0.71008 0.63306 0.0
H163 H 0.33052 0.6956 0.56418 0.0
H164 H 0.25235 0.76145 1.0028 0.0
H165 H 0.18407 0.80345 0.05769 0.0
H166 H 0.1942 0.79664 0.91339 0.0
H167 H 0.16867 0.81227 0.97976 0.0
Tb168 Tb 0.50269 0.98822 0.07005 0.0
C169 C 0.50323 0.08935 0.95471 0.0
C170 C 0.45693 0.10123 0.94563 0.0
C171 C 0.49076 0.13587 0.94469 0.0
C172 C 0.47686 0.08188 0.95243 0.0
C173 C 0.5106 0.11637 0.94997 0.0
C174 C 0.46396 0.12831 0.94258 0.0
C175 C 0.55664 0.10258 0.95244 0.0
N176 N 0.5218 0.06992 0.95981 0.0
C177 C 0.54838 0.07605 0.95712 0.0
C178 C 0.53769 0.12287 0.94945 0.0
Tb179 Tb 0.50596 0.02716 0.96505 0.0
N180 N 0.47084 0.05554 0.95527 0.0
C181 C 0.44531 0.0471 0.9489 0.0
C182 C 0.43065 0.09274 0.94101 0.0
C183 C 0.42481 0.06556 0.94233 0.0
H184 H 0.5632 0.06051 0.9594 0.0
H185 H 0.40456 0.0588 0.93812 0.0
H186 H 0.44888 0.14349 0.93769 0.0
H187 H 0.57758 0.10737 0.95094 0.0
H188 H 0.44053 0.02613 0.94967 0.0
H189 H 0.60503 0.95551 0.08832 0.0
H190 H 0.41491 0.107 0.93532 0.0
H191 H 0.44623 0.95572 0.09899 0.0
H192 H 0.56954 0.98856 0.08292 0.0
H193 H 0.43215 0.90927 0.11133 0.0
H194 H 0.49598 0.15676 0.94132 0.0
H195 H 0.59423 0.90752 0.08827 0.0
H196 H 0.55996 0.87152 0.0891 0.0
H197 H 0.54419 0.14339 0.94574 0.0
H198 H 0.51273 0.85881 0.09546 0.0
N199 N 0.53831 0.95988 0.07669 0.0
C200 C 0.56413 0.96785 0.08218 0.0
C201 C 0.57849 0.922 0.08513 0.0
C202 C 0.55197 0.91389 0.08339 0.0
C203 C 0.58458 0.94906 0.08544 0.0
C204 C 0.532 0.93354 0.0799 0.0
H205 H 0.46501 0.87278 0.10498 0.0
N206 N 0.48681 0.94601 0.08429 0.0
C207 C 0.4528 0.91377 0.10329 0.0
C208 C 0.50541 0.92637 0.08373 0.0
C209 C 0.46096 0.9402 0.09655 0.0
C210 C 0.47138 0.89323 0.09946 0.0
C211 C 0.49816 0.89941 0.09071 0.0
O212 O 0.49228 0.01498 0.12259 0.0
O213 O 0.48669 0.02134 0.0314 0.0
O214 O 0.51834 0.05142 0.02206 0.0
O215 O 0.53485 0.01752 0.06811 0.0
O216 O 0.46034 0.99894 0.0695 0.0
O217 O 0.51135 0.97825 0.13885 0.0
O218 O 0.53051 0.02433 0.90622 0.0
O219 O 0.5203 0.99201 1.00159 0.0
O220 O 0.48135 0.96471 0.02095 0.0
O221 O 0.47749 0.99433 0.95799 0.0
O222 O 0.54744 0.01342 0.96368 0.0
O223 O 0.48793 0.02212 0.90083 0.0
C224 C 0.46229 0.01982 0.04308 0.0
C225 C 0.48144 0.99503 0.1945 0.0
C226 C 0.47286 0.99185 0.27721 0.0
C227 C 0.49041 0.99696 0.23981 0.0
C228 C 0.44635 0.98489 0.2688 0.0
C229 C 0.45465 0.9888 0.18711 0.0
C230 C 0.4373 0.98358 0.22403 0.0
C231 C 0.53298 0.04298 0.05652 0.0
C232 C 0.50013 0.99933 0.15538 0.0
C233 C 0.51795 0.87965 0.09079 0.0
C234 C 0.54483 0.88688 0.08717 0.0
C235 C 0.54443 0.99213 0.98835 0.0
C236 C 0.51215 0.04092 0.83717 0.0
C237 C 0.50493 0.03161 0.79371 0.0
C238 C 0.50819 0.04803 0.75394 0.0
C239 C 0.51885 0.07378 0.7589 0.0
C240 C 0.52227 0.06684 0.84048 0.0
C241 C 0.52552 0.0831 0.80175 0.0
C242 C 0.47225 0.97157 0.98016 0.0
C243 C 0.51058 0.02317 0.87835 0.0
H244 H 0.51097 1.00217 0.24594 0.0
H245 H 0.43246 0.98105 0.29699 0.0
H246 H 0.44703 0.98809 0.15289 0.0
H247 H 0.41671 0.97866 0.21792 0.0
H248 H 0.49694 0.01166 0.79105 0.0
H249 H 0.52268 0.08675 0.72949 0.0
H250 H 0.52835 0.07447 0.87272 0.0
H251 H 0.53374 0.10291 0.80487 0.0
Tb252 Tb 0.27444 0.25686 0.31737 0.0
C253 C 0.17029 0.25294 0.21561 0.0
C254 C 0.15606 0.20705 0.22303 0.0
C255 C 0.12308 0.24235 0.21719 0.0
C256 C 0.17645 0.22637 0.22094 0.0
C257 C 0.14358 0.26129 0.21265 0.0
C258 C 0.12932 0.21524 0.22238 0.0
C259 C 0.15957 0.30598 0.19692 0.0
N260 N 0.1907 0.27048 0.21085 0.0
C261 C 0.18575 0.29666 0.19986 0.0
C262 C 0.13837 0.28828 0.2039 0.0
Tb263 Tb 0.23293 0.25364 0.2185 0.0
N264 N 0.20254 0.21937 0.2207 0.0
C265 C 0.20951 0.19303 0.21884 0.0
C266 C 0.16319 0.18012 0.22411 0.0
C267 C 0.19003 0.1731 0.22121 0.0
H268 H 0.20197 0.31056 0.19478 0.0
H269 H 0.19577 0.15231 0.22105 0.0
H270 H 0.11336 0.20073 0.22452 0.0
H271 H 0.15577 0.32681 0.18935 0.0
H272 H 0.23008 0.18704 0.21694 0.0
H273 H 0.31257 0.35775 0.31392 0.0
H274 H 0.14815 0.16464 0.22592 0.0
H275 H 0.30478 0.19965 0.34203 0.0
H276 H 0.27789 0.32331 0.31809 0.0
H277 H 0.35077 0.18297 0.34806 0.0
H278 H 0.1024 0.24836 0.21548 0.0
H279 H 0.36009 0.34495 0.3097 0.0
H280 H 0.39454 0.30852 0.31182 0.0
H281 H 0.11812 0.29553 0.20143 0.0
H282 H 0.405 0.2608 0.32149 0.0
N283 N 0.30518 0.29077 0.31491 0.0
C284 C 0.29843 0.31717 0.31644 0.0
C285 C 0.3449 0.32962 0.31152 0.0
C286 C 0.35177 0.30262 0.31297 0.0
C287 C 0.31811 0.33691 0.31404 0.0
C288 C 0.33119 0.28351 0.31506 0.0
H289 H 0.38877 0.2138 0.33586 0.0
N290 N 0.31648 0.23957 0.32557 0.0
C291 C 0.34721 0.20381 0.34018 0.0
C292 C 0.33708 0.25689 0.32078 0.0
C293 C 0.32114 0.21339 0.33692 0.0
C294 C 0.36861 0.22126 0.33315 0.0
C295 C 0.36369 0.24828 0.32408 0.0
O296 O 0.2729 0.23873 0.38326 0.0
O297 O 0.23819 0.24078 0.28897 0.0
O298 O 0.20986 0.2735 0.27256 0.0
O299 O 0.24444 0.28935 0.31638 0.0
O300 O 0.25894 0.2163 0.33096 0.0
O301 O 0.26613 0.2807 0.37454 0.0
O302 O 0.23426 0.27223 0.15298 0.0
O303 O 0.26928 0.26973 0.24678 0.0
O304 O 0.29745 0.23645 0.26374 0.0
O305 O 0.26281 0.22116 0.21944 0.0
O306 O 0.24812 0.29434 0.2056 0.0
O307 O 0.24128 0.23025 0.16079 0.0
C308 C 0.23762 0.21772 0.30754 0.0
C309 C 0.28501 0.26636 0.44448 0.0
C310 C 0.28961 0.26978 0.52778 0.0
C311 C 0.27415 0.26361 0.48936 0.0
C312 C 0.31608 0.27822 0.52048 0.0
C313 C 0.31146 0.27482 0.43856 0.0
C314 C 0.32687 0.28062 0.47627 0.0
C315 C 0.21913 0.28966 0.3039 0.0
C316 C 0.2686 0.26109 0.40402 0.0
C317 C 0.38439 0.26701 0.31952 0.0
C318 C 0.37843 0.29417 0.31398 0.0
C319 C 0.26964 0.29289 0.2285 0.0
C320 C 0.22216 0.24499 0.09125 0.0
C321 C 0.23295 0.24799 0.04635 0.0
C322 C 0.21744 0.24197 1.0079 0.0
C323 C 0.19098 0.23352 1.0152 0.0
C324 C 0.19572 0.23651 0.09716 0.0
C325 C 0.18025 0.23092 0.05943 0.0
C326 C 0.28802 0.22042 0.23233 0.0
C327 C 0.23864 0.25004 0.13172 0.0
H328 H 0.25366 0.25724 0.49428 0.0
H329 H 0.32858 0.28275 0.54914 0.0
H330 H 0.32021 0.27714 0.40481 0.0
H331 H 0.34728 0.2871 0.47118 0.0
H332 H 0.25343 0.25438 0.04143 0.0
H333 H 0.17844 0.22911 0.98652 0.0
H334 H 0.18703 0.23401 0.13093 0.0
H335 H 0.15984 0.22442 0.06451 0.0
Tb336 Tb 0.77446 0.24757 0.21157 0.0
C337 C 0.67816 0.26187 0.34129 0.0
C338 C 0.66441 0.30784 0.33435 0.0
C339 C 0.63179 0.27368 0.3548 0.0
C340 C 0.68422 0.28807 0.33108 0.0
C341 C 0.65195 0.25428 0.35363 0.0
C342 C 0.63805 0.30047 0.34538 0.0
C343 C 0.668 0.20941 0.36588 0.0
N344 N 0.69829 0.2439 0.34032 0.0
C345 C 0.69373 0.21798 0.35381 0.0
C346 C 0.64695 0.22757 0.36537 0.0
Tb347 Tb 0.73966 0.25996 0.31956 0.0
N348 N 0.70991 0.2944 0.32068 0.0
C349 C 0.71747 0.32051 0.31638 0.0
C350 C 0.67189 0.33446 0.3281 0.0
C351 C 0.69858 0.34086 0.31955 0.0
H352 H 0.70972 0.20365 0.35409 0.0
H353 H 0.70472 0.36141 0.31572 0.0
H354 H 0.62249 0.31537 0.34761 0.0
H355 H 0.66448 0.18881 0.37571 0.0
H356 H 0.73802 0.32581 0.31005 0.0
H357 H 0.80689 0.14516 0.21659 0.0
H358 H 0.65732 0.35013 0.33127 0.0
H359 H 0.80556 0.30358 0.17991 0.0
H360 H 0.77508 0.18186 0.22651 0.0
H361 H 0.85026 0.31704 0.15227 0.0
H362 H 0.61148 0.26827 0.36399 0.0
H363 H 0.85297 0.15458 0.19012 0.0
H364 H 0.88654 0.18823 0.16078 0.0
H365 H 0.62707 0.22088 0.37491 0.0
H366 H 0.89909 0.23496 0.14637 0.0
N367 N 0.80344 0.2124 0.21049 0.0
C368 C 0.79538 0.18654 0.21679 0.0
C369 C 0.83938 0.17095 0.19618 0.0
C370 C 0.84726 0.19735 0.18788 0.0
C371 C 0.81334 0.16554 0.21086 0.0
C372 C 0.82868 0.21788 0.19591 0.0
H373 H 0.88578 0.28325 0.14366 0.0
N374 N 0.81592 0.26269 0.18982 0.0
C375 C 0.84629 0.2964 0.16142 0.0
C376 C 0.83516 0.24397 0.18523 0.0
C377 C 0.82094 0.28866 0.17711 0.0
C378 C 0.86631 0.2773 0.15679 0.0
C379 C 0.86075 0.25063 0.16795 0.0
O380 O 0.77056 0.26073 0.14275 0.0
O381 O 0.74263 0.26851 0.24671 0.0
O382 O 0.71249 0.24055 0.2737 0.0
O383 O 0.7434 0.21794 0.22848 0.0
O384 O 0.76011 0.28762 0.19232 0.0
O385 O 0.75917 0.22099 0.16386 0.0
O386 O 0.7437 0.24696 0.38842 0.0
O387 O 0.77169 0.23939 0.28439 0.0
O388 O 0.8016 0.26738 0.25709 0.0
O389 O 0.77033 0.28988 0.30199 0.0
O390 O 0.75448 0.21996 0.33837 0.0
O391 O 0.75449 0.28683 0.36728 0.0
C392 C 0.74172 0.28978 0.22301 0.0
C393 C 0.77592 0.22667 0.08767 0.0
C394 C 0.7801 0.22379 1.00399 0.0
C395 C 0.76846 0.23538 0.04339 0.0
C396 C 0.79984 0.20419 1.00958 0.0
C397 C 0.79529 0.20663 0.09176 0.0
C398 C 0.80736 0.19576 0.05311 0.0
C399 C 0.71897 0.22129 0.24533 0.0
C400 C 0.76262 0.2375 0.12922 0.0
C401 C 0.8795 0.23036 0.16054 0.0
C402 C 0.87254 0.20375 0.16956 0.0
C403 C 0.77288 0.21805 0.30766 0.0
C404 C 0.73796 0.28095 0.44347 0.0
C405 C 0.74658 0.27347 0.48768 0.0
C406 C 0.73484 0.28499 0.52703 0.0
C407 C 0.71406 0.30347 0.52155 0.0
C408 C 0.7172 0.29955 0.43941 0.0
C409 C 0.70529 0.31057 0.47808 0.0
C410 C 0.79481 0.28675 0.28511 0.0
C411 C 0.75134 0.2703 0.40192 0.0
H412 H 0.75316 0.25045 0.03965 0.0
H413 H 0.80948 0.19528 0.98009 0.0
H414 H 0.80089 0.19889 0.12471 0.0
H415 H 0.82238 0.18044 0.05693 0.0
H416 H 0.76278 0.25937 0.49139 0.0
H417 H 0.70444 0.31236 0.55107 0.0
H418 H 0.71029 0.30598 0.40644 0.0
H419 H 0.6893 0.32487 0.47431 0.0
Tb420 Tb 0.77523 0.75655 0.82569 0.0
C421 C 0.67239 0.75194 0.72231 0.0
C422 C 0.65826 0.70607 0.73068 0.0
C423 C 0.6252 0.74125 0.72395 0.0
C424 C 0.6786 0.72542 0.72838 0.0
C425 C 0.64567 0.76021 0.71891 0.0
C426 C 0.63149 0.71419 0.72983 0.0
C427 C 0.66164 0.80469 0.70126 0.0
N428 N 0.69278 0.76947 0.71697 0.0
C429 C 0.68782 0.79547 0.70475 0.0
C430 C 0.64044 0.78708 0.70905 0.0
Tb431 Tb 0.73503 0.75278 0.72551 0.0
N432 N 0.70471 0.71846 0.72818 0.0
C433 C 0.71176 0.69215 0.72647 0.0
C434 C 0.66545 0.67915 0.73202 0.0
C435 C 0.69232 0.67217 0.72905 0.0
H436 H 0.70404 0.80932 0.69908 0.0
H437 H 0.69811 0.6514 0.72902 0.0
H438 H 0.61556 0.69965 0.73222 0.0
H439 H 0.65785 0.82536 0.69251 0.0
H440 H 0.73237 0.68625 0.72452 0.0
H441 H 0.81346 0.85698 0.82708 0.0
H442 H 0.65045 0.66364 0.73399 0.0
H443 H 0.80477 0.69908 0.85196 0.0
H444 H 0.77889 0.82281 0.82589 0.0
H445 H 0.8504 0.68229 0.86196 0.0
H446 H 0.60452 0.7472 0.72195 0.0
H447 H 0.8611 0.84411 0.8279 0.0
H448 H 0.89536 0.80771 0.831 0.0
H449 H 0.62019 0.79428 0.70617 0.0
H450 H 0.90545 0.75992 0.84063 0.0
N451 N 0.80615 0.7902 0.82462 0.0
C452 C 0.79941 0.81658 0.826 0.0
C453 C 0.84589 0.82889 0.82673 0.0
C454 C 0.85269 0.80189 0.82751 0.0
C455 C 0.8191 0.83623 0.82653 0.0
C456 C 0.83209 0.78283 0.8269 0.0
H457 H 0.88874 0.71301 0.85322 0.0
N458 N 0.81697 0.73897 0.83622 0.0
C459 C 0.84713 0.70313 0.85368 0.0
C460 C 0.83772 0.75619 0.83302 0.0
C461 C 0.82124 0.71278 0.84807 0.0
C462 C 0.86872 0.7205 0.84854 0.0
C463 C 0.86415 0.74751 0.8389 0.0
O464 O 0.77257 0.73874 0.89175 0.0
O465 O 0.73929 0.74022 0.79638 0.0
O466 O 0.7114 0.77312 0.77832 0.0
O467 O 0.7455 0.78921 0.82283 0.0
O468 O 0.75988 0.71596 0.83893 0.0
O469 O 0.76616 0.7807 0.88216 0.0
O470 O 0.73644 0.77085 0.65958 0.0
O471 O 0.771 0.76926 0.75472 0.0
O472 O 0.79914 0.73631 0.77322 0.0
O473 O 0.76539 0.72061 0.72733 0.0
O474 O 0.75038 0.79339 0.71191 0.0
O475 O 0.74331 0.7289 0.66836 0.0
C476 C 0.73877 0.71716 0.815 0.0
C477 C 0.78424 0.7666 0.95286 0.0
C478 C 0.78811 0.77014 0.0362 0.0
C479 C 0.77297 0.76398 0.99742 0.0
C480 C 0.8147 0.77836 0.02962 0.0
C481 C 0.81076 0.77494 0.94766 0.0
C482 C 0.82589 0.78067 0.98572 0.0
C483 C 0.72039 0.78958 0.8094 0.0
C484 C 0.7682 0.76124 0.91202 0.0
C485 C 0.88497 0.76619 0.83661 0.0
C486 C 0.87923 0.79338 0.83105 0.0
C487 C 0.77153 0.79231 0.73585 0.0
C488 C 0.72356 0.74312 0.59903 0.0
C489 C 0.73368 0.74622 0.55374 0.0
C490 C 0.7176 0.74023 0.51597 0.0
C491 C 0.69125 0.73172 0.52435 0.0
C492 C 0.69726 0.73444 0.60598 0.0
C493 C 0.68122 0.72891 0.56897 0.0
C494 C 0.79037 0.72006 0.74159 0.0
C495 C 0.74051 0.74844 0.63884 0.0
H496 H 0.75242 0.75772 1.00179 0.0
H497 H 0.827 0.7828 0.05859 0.0
H498 H 0.81981 0.77722 0.91425 0.0
H499 H 0.84637 0.78702 0.98114 0.0
H500 H 0.75406 0.75271 0.54799 0.0
H501 H 0.67824 0.72742 0.49626 0.0
H502 H 0.68908 0.73175 0.63998 0.0
H503 H 0.66091 0.7223 0.57492 0.0
Tb504 Tb 0.50461 0.48279 0.96746 0.0
C505 C 0.50541 0.58274 0.0799 0.0
C506 C 0.55058 0.59864 0.06821 0.0
C507 C 0.51482 0.63023 0.08205 0.0
C508 C 0.53199 0.57752 0.07023 0.0
C509 C 0.49677 0.60904 0.08779 0.0
C510 C 0.54169 0.62504 0.0722 0.0
C511 C 0.4543 0.59117 0.11337 0.0
N512 N 0.48856 0.56176 0.0859 0.0
C513 C 0.46373 0.56547 0.10495 0.0
C514 C 0.47064 0.61311 0.10361 0.0
Tb515 Tb 0.50591 0.52092 0.06868 0.0
N516 N 0.53998 0.55166 0.06748 0.0
C517 C 0.5666 0.54573 0.06869 0.0
C518 C 0.57768 0.59256 0.06477 0.0
C519 C 0.58572 0.56599 0.06627 0.0
H520 H 0.45084 0.54878 0.1128 0.0
H521 H 0.6067 0.56105 0.06538 0.0
H522 H 0.55564 0.6415 0.06991 0.0
H523 H 0.43439 0.59404 0.12722 0.0
H524 H 0.57372 0.52556 0.06987 0.0
H525 H 0.40246 0.44879 0.96307 0.0
H526 H 0.59257 0.60818 0.063 0.0
H527 H 0.56061 0.44987 0.94538 0.0
H528 H 0.43839 0.48209 0.9597 0.0
H529 H 0.5754 0.40302 0.9423 0.0
H530 H 0.50845 0.65061 0.0872 0.0
H531 H 0.41315 0.4009 0.97251 0.0
H532 H 0.4481 0.36499 0.97665 0.0
H533 H 0.4633 0.63299 0.11026 0.0
H534 H 0.49545 0.35241 0.97125 0.0
N535 N 0.46947 0.45355 0.96819 0.0
C536 C 0.44353 0.4613 0.96352 0.0
C537 C 0.42909 0.41545 0.971 0.0
C538 C 0.45575 0.40749 0.97279 0.0
C539 C 0.42299 0.44245 0.96549 0.0
C540 C 0.47569 0.42727 0.97095 0.0
H541 H 0.54318 0.36647 0.95735 0.0
N542 N 0.52038 0.43998 0.9627 0.0
C543 C 0.55481 0.40755 0.95015 0.0
C544 C 0.50216 0.42018 0.96823 0.0
C545 C 0.54632 0.43407 0.95158 0.0
C546 C 0.53654 0.38699 0.95873 0.0
C547 C 0.5097 0.39316 0.96689 0.0
O548 O 0.52516 0.48309 0.90383 0.0
O549 O 0.51962 0.51932 0.99745 0.0
O550 O 0.48005 0.54398 0.02313 0.0
O551 O 0.47423 0.51469 0.9627 0.0
O552 O 0.54525 0.49833 0.95711 0.0
O553 O 0.48281 0.48886 0.90715 0.0
O554 O 0.50313 0.49194 0.12202 0.0
O555 O 0.48925 0.48605 0.037 0.0
O556 O 0.5242 0.45973 0.02181 0.0
O557 O 0.54077 0.49436 0.06386 0.0
O558 O 0.46375 0.50923 0.07342 0.0
O559 O 0.51327 0.53201 0.13684 0.0
C560 C 0.54299 0.5199 0.97988 0.0
C561 C 0.5005 0.46824 0.84098 0.0
C562 C 0.49718 0.46169 0.75828 0.0
C563 C 0.50018 0.47874 0.79585 0.0
C564 C 0.49505 0.43405 0.76674 0.0
C565 C 0.49791 0.44068 0.84812 0.0
C566 C 0.49534 0.42372 0.8113 0.0
C567 C 0.4689 0.53727 0.98418 0.0
C568 C 0.50357 0.48606 0.88027 0.0
C569 C 0.49007 0.37332 0.97158 0.0
C570 C 0.46311 0.38048 0.97459 0.0
C571 C 0.46523 0.4873 0.05133 0.0
C572 C 0.48847 0.50822 0.19372 0.0
C573 C 0.49803 0.50958 0.23872 0.0
C574 C 0.48006 0.50999 0.27637 0.0
C575 C 0.45259 0.50884 0.26869 0.0
C576 C 0.46088 0.50647 0.18713 0.0
C577 C 0.44312 0.5069 0.22434 0.0
C578 C 0.54115 0.46909 0.05159 0.0
C579 C 0.50734 0.50877 0.15418 0.0
H580 H 0.50182 0.50008 0.79013 0.0
H581 H 0.49337 0.4203 0.73879 0.0
H582 H 0.4979 0.43216 0.88203 0.0
H583 H 0.49358 0.40244 0.81734 0.0
H584 H 0.51926 0.51059 0.2444 0.0
H585 H 0.43845 0.50892 0.29719 0.0
H586 H 0.45285 0.50469 0.15343 0.0
H587 H 0.42192 0.50559 0.21879 0.0
Tb588 Tb 0.00694 0.48116 0.57609 0.0
C589 C 0.99658 0.58519 0.46332 0.0
C590 C 0.94977 0.59632 0.46237 0.0
C591 C 0.98294 0.63132 0.45291 0.0
C592 C 0.97033 0.57738 0.46691 0.0
C593 C 1.00327 0.61223 0.45611 0.0
C594 C 0.95621 0.62332 0.45562 0.0
C595 C 0.0494 0.59905 0.44997 0.0
N596 N 0.01551 0.56593 0.46378 0.0
C597 C 0.0417 0.57242 0.45588 0.0
C598 C 0.03013 0.61908 0.45034 0.0
Tb599 Tb 1.00098 0.52279 0.47307 0.0
N600 N 0.96501 0.55093 0.47057 0.0
C601 C 0.93933 0.5421 0.46805 0.0
C602 C 0.92341 0.58742 0.46233 0.0
C603 C 0.9182 0.56015 0.46462 0.0
H604 H 0.05681 0.55714 0.45527 0.0
H605 H 0.89792 0.55297 0.46359 0.0
H606 H 0.94067 0.63808 0.45137 0.0
H607 H 0.07016 0.60411 0.44462 0.0
H608 H 0.93478 0.52114 0.46936 0.0
H609 H 0.11054 0.45186 0.57997 0.0
H610 H 0.90704 0.60136 0.45912 0.0
H611 H 0.95231 0.4457 0.59746 0.0
H612 H 0.0731 0.48345 0.58182 0.0
H613 H 0.9394 0.39817 0.60127 0.0
H614 H 0.98764 0.65218 0.44703 0.0
H615 H 0.10205 0.40351 0.57385 0.0
H616 H 0.06875 0.36601 0.57238 0.0
H617 H 0.03611 0.63966 0.44495 0.0
H618 H 0.02199 0.3513 0.57847 0.0
N619 N 0.04334 0.45349 0.57617 0.0
C620 C 0.06892 0.46245 0.57956 0.0
C621 C 0.08545 0.4173 0.57482 0.0
C622 C 0.05918 0.40812 0.5741 0.0
C623 C 0.09031 0.44456 0.57845 0.0
C624 C 0.03837 0.42695 0.57527 0.0
H625 H 0.97354 0.36318 0.5901 0.0
N626 N 0.99321 0.43765 0.58314 0.0
C627 C 0.95998 0.40368 0.59483 0.0
C628 C 0.01229 0.41868 0.57902 0.0
C629 C 0.96737 0.43056 0.59289 0.0
C630 C 0.97929 0.38398 0.58835 0.0
C631 C 0.00594 0.39136 0.58116 0.0
O632 O 0.98783 0.48077 0.64103 0.0
O633 O 0.98823 0.51479 0.54283 0.0
O634 O 0.01625 0.54715 0.52737 0.0
O635 O 0.03599 0.51416 0.5728 0.0
O636 O 0.96552 0.49457 0.58899 0.0
O637 O 0.02929 0.49087 0.63383 0.0
O638 O 0.02033 0.52134 0.40842 0.0
O639 O 0.01978 0.4891 0.50627 0.0
O640 O 0.99035 0.45743 0.52211 0.0
O641 O 0.97099 0.49085 0.4774 0.0
O642 O 0.04271 0.51048 0.46154 0.0
O643 O 0.97876 0.51191 0.41579 0.0
C644 C 0.96544 0.51485 0.5615 0.0
C645 C 0.01551 0.46931 0.70305 0.0
C646 C 0.01949 0.46317 0.78626 0.0
C647 C 0.0134 0.47947 0.74777 0.0
C648 C 0.02727 0.4366 0.77908 0.0
C649 C 0.02344 0.4428 0.69726 0.0
C650 C 0.02921 0.42658 0.73496 0.0
C651 C 0.03316 0.53936 0.55909 0.0
C652 C 0.00957 0.48632 0.66258 0.0
C653 C 0.02644 0.37242 0.57739 0.0
C654 C 0.05306 0.3808 0.57389 0.0
C655 C 0.04276 0.48991 0.48825 0.0
C656 C 0.99321 0.53096 0.34489 0.0
C657 C 0.99505 0.51917 0.30137 0.0
C658 C 0.98937 0.53427 0.26132 0.0
C659 C 0.98229 0.56126 0.26567 0.0
C660 C 0.98602 0.55785 0.34784 0.0
C661 C 0.98065 0.57288 0.30857 0.0
C662 C 0.97325 0.46567 0.49115 0.0
C663 C 0.99869 0.51528 0.38705 0.0
H664 H 0.00744 0.5 0.75248 0.0
H665 H 0.03154 0.42336 0.80772 0.0
H666 H 0.02517 0.43457 0.66365 0.0
H667 H 0.03519 0.40609 0.72997 0.0
H668 H 1.00049 0.49834 0.29879 0.0
H669 H 0.97835 0.57358 0.2357 0.0
H670 H 0.98458 0.56732 0.38045 0.0
H671 H 0.97524 0.59368 0.31139 0.0
H672 H 0.02989 0.07515 0.46729 0.0
H673 H 0.05905 0.11149 0.43764 0.0
H674 H 0.12494 0.0566 0.43099 0.0
H675 H 0.09608 0.02072 0.45996 0.0
H676 H 0.10539 0.13692 0.4618 0.0
H677 H 0.16393 0.06762 0.33855 0.0
H678 H 0.15616 0.02699 0.29442 0.0
H679 H 0.07249 0.04433 0.29165 0.0
H680 H 0.0798 0.08527 0.33509 0.0
H681 H 0.23816 0.16446 0.32355 0.0
H682 H 0.20233 0.13504 0.35127 0.0
H683 H 0.14779 0.20137 0.35034 0.0
H684 H 0.18408 0.23107 0.32293 0.0
H685 H 0.15674 0.11857 0.31908 0.0
H686 H 0.09814 0.18963 0.43475 0.0
H687 H 0.10515 0.23104 0.47721 0.0
H688 H 0.18769 0.21121 0.49284 0.0
H689 H 0.18108 0.16953 0.45104 0.0
C690 C 0.05071 0.071 0.46026 0.0
C691 C 0.06064 0.04492 0.4668 0.0
C692 C 0.06745 0.09184 0.44304 0.0
C693 C 0.09444 0.08707 0.43106 0.0
C694 C 0.10429 0.06113 0.43886 0.0
C695 C 0.0877 0.04049 0.45582 0.0
C696 C 0.11228 0.10838 0.40873 0.0
C697 C 0.11624 0.13299 0.43018 0.0
C698 C 0.12692 0.10371 0.36746 0.0
C699 C 0.12242 0.0794 0.34045 0.0
C700 C 0.1439 0.06285 0.3283 0.0
C701 C 0.13957 0.03975 0.30344 0.0
C702 C 0.11384 0.03305 0.29035 0.0
C703 C 0.0924 0.0495 0.30192 0.0
C704 C 0.09663 0.07264 0.32669 0.0
C705 C 0.21847 0.17281 0.32876 0.0
C706 C 0.21407 0.20014 0.31991 0.0
C707 C 0.19783 0.15585 0.34471 0.0
C708 C 0.17198 0.1656 0.35358 0.0
C709 C 0.16742 0.19303 0.34454 0.0
C710 C 0.18818 0.21007 0.32822 0.0
C711 C 0.15044 0.14686 0.37266 0.0
C712 C 0.14577 0.12264 0.35053 0.0
C713 C 0.13508 0.15204 0.41301 0.0
C714 C 0.13916 0.17663 0.4393 0.0
C715 C 0.11775 0.19406 0.44744 0.0
C716 C 0.12166 0.21758 0.47136 0.0
C717 C 0.14687 0.2238 0.48755 0.0
C718 C 0.16819 0.20642 0.48013 0.0
C719 C 0.16438 0.18285 0.4563 0.0
H720 H 0.14988 0.24206 0.50593 0.0
H721 H 0.11053 0.01513 0.27119 0.0
H722 H 0.04501 0.914 0.5373 0.0
H723 H 0.07718 0.88266 0.56951 0.0
H724 H 0.1131 0.94634 0.64381 0.0
H725 H 0.08127 0.97796 0.61116 0.0
H726 H 0.13156 0.88062 0.56334 0.0
H727 H 0.1339 0.92029 0.74806 0.0
H728 H 0.10443 0.94407 0.80211 0.0
H729 H 0.03576 0.91302 0.73588 0.0
H730 H 0.06479 0.88872 0.68192 0.0
H731 H 0.24411 0.84078 0.69982 0.0
H732 H 0.20818 0.86902 0.67011 0.0
H733 H 0.1512 0.8072 0.70344 0.0
H734 H 0.18722 0.7784 0.73082 0.0
H735 H 0.14072 0.86866 0.73142 0.0
H736 H 0.15708 0.80628 0.60933 0.0
H737 H 0.18525 0.7817 0.55442 0.0
H738 H 0.2134 0.85558 0.49502 0.0
H739 H 0.18576 0.88062 0.55025 0.0
C740 C 0.05991 0.92149 0.56005 0.0
C741 C 0.0606 0.94868 0.57114 0.0
C742 C 0.07828 0.90346 0.5786 0.0
C743 C 0.09754 0.91203 0.60933 0.0
C744 C 0.09829 0.93914 0.62055 0.0
C745 C 0.08005 0.95724 0.60173 0.0
C746 C 0.1168 0.89264 0.62959 0.0
C747 C 0.13346 0.87802 0.6001 0.0
C748 C 0.11924 0.88893 0.6776 0.0
C749 C 0.10156 0.90293 0.71061 0.0
C750 C 0.11252 0.91843 0.74517 0.0
C751 C 0.09588 0.93202 0.77578 0.0
C752 C 0.06824 0.93015 0.77232 0.0
C753 C 0.05717 0.91455 0.73841 0.0
C754 C 0.07371 0.90089 0.70777 0.0
C755 C 0.22387 0.83332 0.70117 0.0
C756 C 0.2184 0.80768 0.71913 0.0
C757 C 0.2034 0.84944 0.68418 0.0
C758 C 0.17702 0.84027 0.68486 0.0
C759 C 0.1714 0.81475 0.70298 0.0
C760 C 0.19199 0.79838 0.71906 0.0
C761 C 0.15559 0.85713 0.66514 0.0
C762 C 0.13868 0.87132 0.69471 0.0
C763 C 0.15275 0.8603 0.61724 0.0
C764 C 0.16964 0.84532 0.58438 0.0
C765 C 0.16957 0.81729 0.58502 0.0
C766 C 0.18537 0.80327 0.55372 0.0
C767 C 0.20117 0.81707 0.52133 0.0
C768 C 0.20119 0.84492 0.52019 0.0
C769 C 0.18547 0.85903 0.55149 0.0
H770 H 0.21332 0.80618 0.49703 0.0
H771 H 0.05541 0.94074 0.79597 0.0
H772 H 0.34538 0.77495 0.80006 0.0
H773 H 0.38009 0.80483 0.82741 0.0
H774 H 0.31979 0.86109 0.86918 0.0
H775 H 0.28522 0.83163 0.84234 0.0
H776 H 0.35986 0.88392 0.81629 0.0
H777 H 0.34723 0.82558 0.94635 0.0
H778 H 0.34685 0.78541 0.99614 0.0
H779 H 0.43026 0.77372 0.96864 0.0
H780 H 0.43102 0.81353 0.91783 0.0
H781 H 0.43272 0.94214 1.01954 0.0
H782 H 0.406 0.90806 0.98396 0.0
H783 H 0.44561 0.92463 0.85403 0.0
H784 H 0.47276 0.9588 0.89015 0.0
H785 H 0.42078 0.86316 0.94375 0.0
H786 H 0.39829 0.9147 0.77047 0.0
H787 H 0.39454 0.96016 0.73743 0.0
H788 H 0.37308 0.99021 0.86983 0.0
H789 H 0.37631 0.94492 0.90345 0.0
C790 C 0.33959 0.79373 0.815 0.0
C791 C 0.31262 0.80112 0.8187 0.0
C792 C 0.35937 0.81062 0.8308 0.0
C793 C 0.35235 0.83508 0.85005 0.0
C794 C 0.32549 0.8423 0.85413 0.0
C795 C 0.30578 0.82541 0.83887 0.0
C796 C 0.37277 0.8539 0.8648 0.0
C797 C 0.37345 0.87928 0.84377 0.0
C798 C 0.39016 0.84781 0.90101 0.0
C799 C 0.38906 0.8223 0.92751 0.0
C800 C 0.36535 0.81412 0.94999 0.0
C801 C 0.36513 0.79155 0.97879 0.0
C802 C 0.38854 0.7771 0.98573 0.0
C803 C 0.41216 0.785 0.96342 0.0
C804 C 0.41246 0.80748 0.93443 0.0
C805 C 0.43607 0.93815 0.98371 0.0
C806 C 0.4551 0.95249 0.95777 0.0
C807 C 0.42072 0.91885 0.96331 0.0
C808 C 0.42407 0.91373 0.91655 0.0
C809 C 0.44277 0.92839 0.8902 0.0
C810 C 0.45812 0.94786 0.91071 0.0
C811 C 0.40749 0.89319 0.89584 0.0
C812 C 0.4077 0.86748 0.91539 0.0
C813 C 0.39023 0.89922 0.85949 0.0
C814 C 0.38794 0.92649 0.83952 0.0
C815 C 0.39273 0.93102 0.79247 0.0
C816 C 0.39068 0.95675 0.77365 0.0
C817 C 0.3837 0.97807 0.80155 0.0
C818 C 0.37862 0.9737 0.84829 0.0
C819 C 0.38058 0.94801 0.86724 0.0
H820 H 0.38215 0.99797 0.78692 0.0
H821 H 0.38833 0.75968 1.00814 0.0
H822 H 0.40912 0.01763 0.05855 0.0
H823 H 0.37947 0.05312 0.0851 0.0
H824 H 0.4443 0.10918 0.07532 0.0
H825 H 0.47447 0.07333 0.05148 0.0
H826 H 0.40763 0.09673 0.16897 0.0
H827 H 0.38359 0.1579 1.01095 0.0
H828 H 0.37389 0.1555 0.92857 0.0
H829 H 0.34579 0.07523 0.94801 0.0
H830 H 0.35423 0.07762 0.03064 0.0
H831 H 0.34263 0.21726 0.23722 0.0
H832 H 0.37233 0.18477 0.20136 0.0
H833 H 0.30482 0.14655 0.14143 0.0
H834 H 0.27507 0.17898 0.17693 0.0
H835 H 0.34341 0.1508 0.07988 0.0
H836 H 0.33748 0.12014 0.23651 0.0
H837 H 0.34082 0.12397 0.32028 0.0
H838 H 0.42427 0.14129 0.3057 0.0
H839 H 0.42135 0.13798 0.22172 0.0
C840 C 0.41694 0.03766 0.06099 0.0
C841 C 0.44403 0.04273 0.05148 0.0
C842 C 0.39989 0.05801 0.07584 0.0
C843 C 0.40935 0.0841 0.0807 0.0
C844 C 0.43634 0.08938 0.07067 0.0
C845 C 0.45357 0.06887 0.05665 0.0
C846 C 0.39195 0.10476 0.10204 0.0
C847 C 0.39374 0.10873 0.14941 0.0
C848 C 0.37351 0.12019 0.07681 0.0
C849 C 0.37044 0.11761 0.02675 0.0
C850 C 0.37561 0.13964 0.9975 0.0
C851 C 0.37 0.13842 0.95086 0.0
C852 C 0.35935 0.11517 0.93301 0.0
C853 C 0.35424 0.09315 0.96181 0.0
C854 C 0.35952 0.0944 1.00857 0.0
C855 C 0.33402 0.20179 0.21685 0.0
C856 C 0.30631 0.20065 0.2106 0.0
C857 C 0.3511 0.18317 0.19623 0.0
C858 C 0.34091 0.16286 0.16895 0.0
C859 C 0.31329 0.16193 0.16224 0.0
C860 C 0.29623 0.18052 0.18278 0.0
C861 C 0.35887 0.14272 0.147 0.0
C862 C 0.35739 0.13896 0.09953 0.0
C863 C 0.37731 0.12722 0.17228 0.0
C864 C 0.37914 0.12908 0.22278 0.0
C865 C 0.35651 0.12497 0.25113 0.0
C866 C 0.35833 0.127 0.29865 0.0
C867 C 0.38273 0.1329 0.31829 0.0
C868 C 0.40538 0.13674 0.29043 0.0
C869 C 0.40365 0.13478 0.24287 0.0
H870 H 0.3841 0.13447 0.35509 0.0
H871 H 0.35506 0.11423 0.8969 0.0
H872 H 0.98209 0.93264 0.57636 0.0
H873 H 0.95247 0.89761 0.60779 0.0
H874 H 0.88578 0.95146 0.59779 0.0
H875 H 0.91566 0.98662 0.56988 0.0
H876 H 0.87952 0.93063 0.67218 0.0
H877 H 0.88769 0.87051 0.52846 0.0
H878 H 0.91298 0.84386 0.47228 0.0
H879 H 0.96823 0.82064 0.57616 0.0
H880 H 0.94242 0.84618 0.63333 0.0
H881 H 0.7692 0.84474 0.71296 0.0
H882 H 0.80417 0.87469 0.685 0.0
H883 H 0.8622 0.81225 0.70343 0.0
H884 H 0.82635 0.78146 0.72836 0.0
H885 H 0.87654 0.83534 0.63194 0.0
H886 H 0.86049 0.88107 0.7756 0.0
H887 H 0.83392 0.9022 0.83714 0.0
H888 H 0.79597 0.95263 0.7375 0.0
H889 H 0.82268 0.93202 0.6757 0.0
C890 C 0.96101 0.93678 0.58003 0.0
C891 C 0.95136 0.96259 0.56992 0.0
C892 C 0.94376 0.91645 0.59783 0.0
C893 C 0.91615 0.92107 0.60534 0.0
C894 C 0.90669 0.94673 0.59334 0.0
C895 C 0.9239 0.96704 0.57681 0.0
C896 C 0.89726 0.90082 0.62903 0.0
C897 C 0.87884 0.90991 0.6624 0.0
C898 C 0.89638 0.8731 0.61946 0.0
C899 C 0.91373 0.86087 0.58457 0.0
C900 C 0.90549 0.86005 0.53901 0.0
C901 C 0.91964 0.84481 0.50724 0.0
C902 C 0.94234 0.83075 0.52055 0.0
C903 C 0.95076 0.83168 0.56581 0.0
C904 C 0.93627 0.84635 0.59796 0.0
C905 C 0.78948 0.83739 0.71181 0.0
C906 C 0.79479 0.8107 0.72456 0.0
C907 C 0.80981 0.85486 0.69619 0.0
C908 C 0.83665 0.84664 0.69305 0.0
C909 C 0.84201 0.81975 0.7056 0.0
C910 C 0.82144 0.80204 0.72063 0.0
C911 C 0.85835 0.86544 0.67375 0.0
C912 C 0.87724 0.8561 0.6415 0.0
C913 C 0.85989 0.89293 0.68469 0.0
C914 C 0.84309 0.90462 0.72122 0.0
C915 C 0.84618 0.89638 0.76697 0.0
C916 C 0.83128 0.90842 0.80183 0.0
C917 C 0.81306 0.92854 0.79118 0.0
C918 C 0.80996 0.93692 0.74569 0.0
C919 C 0.82508 0.92519 0.71079 0.0
H920 H 0.80147 0.93776 0.81821 0.0
H921 H 0.95335 0.81908 0.4958 0.0
H922 H 0.96473 0.09184 0.5053 0.0
H923 H 0.93187 0.12277 0.47394 0.0
H924 H 0.90046 0.06021 0.39166 0.0
H925 H 0.93234 0.02863 0.42469 0.0
H926 H 0.92047 0.12119 0.35268 0.0
H927 H 0.86068 0.06687 0.4537 0.0
H928 H 0.84887 0.0477 0.52977 0.0
H929 H 0.8491 0.12589 0.58711 0.0
H930 H 0.86138 0.14544 0.51144 0.0
H931 H 0.77135 0.16552 0.32732 0.0
H932 H 0.80764 0.13659 0.35206 0.0
H933 H 0.8626 0.20227 0.33566 0.0
H934 H 0.82642 0.23074 0.30823 0.0
H935 H 0.83361 0.14183 0.42714 0.0
H936 H 0.91094 0.19085 0.33817 0.0
H937 H 0.93458 0.20781 0.26875 0.0
H938 H 0.90693 0.14082 0.19359 0.0
H939 H 0.8823 0.12409 0.26226 0.0
C940 C 0.95047 0.08437 0.48147 0.0
C941 C 0.95094 0.05746 0.46848 0.0
C942 C 0.93181 0.10221 0.46325 0.0
C943 C 0.91355 0.09371 0.43088 0.0
C944 C 0.91424 0.06709 0.41698 0.0
C945 C 0.93255 0.04908 0.43588 0.0
C946 C 0.89442 0.11288 0.41025 0.0
C947 C 0.90135 0.12563 0.36874 0.0
C948 C 0.86995 0.11928 0.4319 0.0
C949 C 0.86227 0.10754 0.47711 0.0
C950 C 0.8585 0.07992 0.48264 0.0
C951 C 0.85166 0.069 0.52565 0.0
C952 C 0.84833 0.08555 0.56329 0.0
C953 C 0.85175 0.11308 0.55796 0.0
C954 C 0.85864 0.12408 0.51502 0.0
C955 C 0.79138 0.17351 0.32758 0.0
C956 C 0.7961 0.20022 0.3149 0.0
C957 C 0.81218 0.15699 0.34194 0.0
C958 C 0.83827 0.16686 0.34539 0.0
C959 C 0.84313 0.19357 0.33186 0.0
C960 C 0.82229 0.21002 0.31641 0.0
C961 C 0.859 0.14974 0.36787 0.0
C962 C 0.85255 0.13742 0.41048 0.0
C963 C 0.88425 0.14418 0.34767 0.0
C964 C 0.89404 0.15681 0.30468 0.0
C965 C 0.90917 0.18029 0.30634 0.0
C966 C 0.92293 0.18972 0.26731 0.0
C967 C 0.92234 0.17535 0.22686 0.0
C968 C 0.90737 0.15192 0.22499 0.0
C969 C 0.89316 0.1427 0.26372 0.0
H970 H 0.93337 0.18243 0.19686 0.0
H971 H 0.84302 0.07706 0.59656 0.0
H972 H 0.66523 0.22736 0.25574 0.0
H973 H 0.63061 0.19765 0.22878 0.0
H974 H 0.6909 0.14434 0.17644 0.0
H975 H 0.72559 0.17394 0.20281 0.0
H976 H 0.65399 0.15536 0.11406 0.0
H977 H 0.65607 0.12836 0.2737 0.0
H978 H 0.65414 0.13663 0.35668 0.0
H979 H 0.57507 0.16815 0.34435 0.0
H980 H 0.5766 0.16021 0.26116 0.0
H981 H 0.56778 0.03286 0.12524 0.0
H982 H 0.59584 0.06494 0.16345 0.0
H983 H 0.56137 0.12898 0.08385 0.0
H984 H 0.53237 0.09724 0.0467 0.0
H985 H 0.58361 0.11363 0.21309 0.0
H986 H 0.61915 0.16434 0.04407 0.0
H987 H 0.62586 0.15444 0.96217 0.0
H988 H 0.63476 0.07127 0.99559 0.0
H989 H 0.62862 0.08075 0.07764 0.0
C990 C 0.6711 0.20916 0.23894 0.0
C991 C 0.69809 0.20293 0.23133 0.0
C992 C 0.65132 0.19226 0.22362 0.0
C993 C 0.65832 0.16886 0.20086 0.0
C994 C 0.68521 0.16242 0.19384 0.0
C995 C 0.70497 0.17933 0.20893 0.0
C996 C 0.63772 0.15141 0.18268 0.0
C997 C 0.63852 0.14633 0.13566 0.0
C998 C 0.61772 0.13966 0.21109 0.0
C999 C 0.61653 0.14388 0.26121 0.0
C1000 C 0.63831 0.13714 0.28867 0.0
C1001 C 0.63727 0.14173 0.33574 0.0
C1002 C 0.61452 0.15297 0.35576 0.0
C1003 C 0.59268 0.15947 0.32879 0.0
C1004 C 0.5936 0.15486 0.2817 0.0
C1005 C 0.56595 0.05377 0.11609 0.0
C1006 C 0.54851 0.06245 0.08181 0.0
C1007 C 0.58184 0.07203 0.1382 0.0
C1008 C 0.5807 0.09909 0.12593 0.0
C1009 C 0.56255 0.10803 0.09327 0.0
C1010 C 0.5463 0.08984 0.07172 0.0
C1011 C 0.60008 0.11758 0.14463 0.0
C1012 C 0.59893 0.12294 0.19156 0.0
C1013 C 0.6201 0.12929 0.1163 0.0
C1014 C 0.62305 0.12324 0.06692 0.0
C1015 C 0.62251 0.14395 0.03389 0.0
C1016 C 0.62633 0.13842 0.98748 0.0
C1017 C 0.63084 0.11226 0.97372 0.0
C1018 C 0.63131 0.09153 1.0063 0.0
C1019 C 0.62758 0.09697 0.05276 0.0
H1020 H 0.6338 0.10802 0.93777 0.0
H1021 H 0.61381 0.15662 0.39217 0.0
H1022 H 0.66574 0.79026 0.80641 0.0
H1023 H 0.63506 0.82246 0.84047 0.0
H1024 H 0.70159 0.86578 0.89336 0.0
H1025 H 0.73232 0.83342 0.85997 0.0
H1026 H 0.66467 0.86225 0.95659 0.0
H1027 H 0.66472 0.88778 0.79679 0.0
H1028 H 0.65954 0.88035 0.71418 0.0
H1029 H 0.57816 0.85699 0.73797 0.0
H1030 H 0.58293 0.86407 0.82083 0.0
H1031 H 0.59752 0.99272 0.97293 0.0
H1032 H 0.62639 0.95631 0.94826 0.0
H1033 H 0.56011 0.90197 0.9578 0.0
H1034 H 0.53056 0.93899 0.97997 0.0
H1035 H 0.5954 0.90913 0.8671 0.0
H1036 H 0.62375 0.85571 0.028 0.0
H1037 H 0.63549 0.86019 0.10922 0.0
H1038 H 0.66435 0.93946 0.08127 0.0
H1039 H 0.65404 0.93487 0.9997 0.0
C1040 C 0.6739 0.80678 0.82489 0.0
C1041 C 0.70162 0.80931 0.82992 0.0
C1042 C 0.65627 0.82527 0.8444 0.0
C1043 C 0.66587 0.84695 0.86912 0.0
C1044 C 0.69354 0.84934 0.8745 0.0
C1045 C 0.71116 0.83078 0.85523 0.0
C1046 C 0.64726 0.86688 0.89013 0.0
C1047 C 0.64964 0.87257 0.9368 0.0
C1048 C 0.62725 0.88022 0.86485 0.0
C1049 C 0.62425 0.87624 0.81503 0.0
C1050 C 0.64576 0.88093 0.78443 0.0
C1051 C 0.64288 0.87684 0.73756 0.0
C1052 C 0.61854 0.86817 0.72085 0.0
C1053 C 0.597 0.86369 0.75097 0.0
C1054 C 0.59977 0.86779 0.79787 0.0
C1055 C 0.58917 0.97289 0.97076 0.0
C1056 C 0.56188 0.96863 0.97976 0.0
C1057 C 0.60583 0.95196 0.95725 0.0
C1058 C 0.59583 0.92603 0.95314 0.0
C1059 C 0.56852 0.92161 0.96206 0.0
C1060 C 0.55165 0.94275 0.97494 0.0
C1061 C 0.61315 0.90474 0.93333 0.0
C1062 C 0.61035 0.89867 0.88685 0.0
C1063 C 0.63305 0.89128 0.95862 0.0
C1064 C 0.63698 0.89541 1.00809 0.0
C1065 C 0.63226 0.87423 0.03938 0.0
C1066 C 0.63905 0.87661 0.08535 0.0
C1067 C 0.65042 0.9002 0.10051 0.0
C1068 C 0.65523 0.92133 0.06962 0.0
C1069 C 0.64883 0.91887 0.02348 0.0
H1070 H 0.6556 0.90206 0.13611 0.0
H1071 H 0.61638 0.86493 0.68457 0.0
H1072 H 0.52959 0.57369 0.96631 0.0
H1073 H 0.55926 0.61032 0.93983 0.0
H1074 H 0.62546 0.55568 0.93631 0.0
H1075 H 0.59609 0.51953 0.96278 0.0
H1076 H 0.64189 0.6008 0.97091 0.0
H1077 H 0.59157 0.57822 0.8378 0.0
H1078 H 0.55055 0.57219 0.79405 0.0
H1079 H 0.53063 0.65463 0.81165 0.0
H1080 H 0.57137 0.66105 0.85608 0.0
H1081 H 0.7397 0.66407 0.83216 0.0
H1082 H 0.70409 0.63455 0.86029 0.0
H1083 H 0.64891 0.70029 0.85762 0.0
H1084 H 0.68494 0.73011 0.82913 0.0
H1085 H 0.62393 0.65424 0.83029 0.0
H1086 H 0.67514 0.67793 0.95872 0.0
H1087 H 0.71594 0.68456 1.00275 0.0
H1088 H 0.73343 0.60096 0.99583 0.0
H1089 H 0.69293 0.59388 0.95112 0.0
C1090 C 0.55054 0.56962 0.96045 0.0
C1091 C 0.56045 0.54359 0.96755 0.0
C1092 C 0.56756 0.59059 0.94476 0.0
C1093 C 0.59496 0.58611 0.93543 0.0
C1094 C 0.60467 0.56012 0.94312 0.0
C1095 C 0.58774 0.53929 0.95832 0.0
C1096 C 0.61375 0.60791 0.91741 0.0
C1097 C 0.6379 0.61224 0.93992 0.0
C1098 C 0.60871 0.62383 0.87765 0.0
C1099 C 0.58434 0.62003 0.85073 0.0
C1100 C 0.57833 0.59501 0.83264 0.0
C1101 C 0.55515 0.59152 0.80768 0.0
C1102 C 0.53795 0.61299 0.80021 0.0
C1103 C 0.54394 0.63801 0.81755 0.0
C1104 C 0.56708 0.64158 0.84262 0.0
C1105 C 0.71992 0.67228 0.83703 0.0
C1106 C 0.71528 0.69948 0.82738 0.0
C1107 C 0.69945 0.6553 0.85349 0.0
C1108 C 0.67349 0.6649 0.86201 0.0
C1109 C 0.66857 0.69207 0.85157 0.0
C1110 C 0.68923 0.70919 0.83498 0.0
C1111 C 0.65227 0.6466 0.88332 0.0
C1112 C 0.62776 0.64294 0.86149 0.0
C1113 C 0.65686 0.63133 0.92394 0.0
C1114 C 0.68109 0.63541 0.95125 0.0
C1115 C 0.68777 0.66098 0.96634 0.0
C1116 C 0.71084 0.66482 0.99144 0.0
C1117 C 0.72729 0.6432 1.00201 0.0
C1118 C 0.72067 0.61769 0.98759 0.0
C1119 C 0.69765 0.61374 0.9624 0.0
H1120 H 0.74514 0.64621 0.02144 0.0
H1121 H 0.52001 0.61026 0.78087 0.0
H1122 H 0.74621 0.34144 0.1981 0.0
H1123 H 0.71097 0.37241 0.17582 0.0
H1124 H 0.65185 0.31279 0.20986 0.0
H1125 H 0.68738 0.28106 0.22994 0.0
H1126 H 0.65811 0.34178 0.11017 0.0
H1127 H 0.61546 0.3842 0.27326 0.0
H1128 H 0.62635 0.40117 0.34947 0.0
H1129 H 0.70515 0.42125 0.30097 0.0
H1130 H 0.69437 0.40529 0.22426 0.0
H1131 H 0.54035 0.41447 0.05434 0.0
H1132 H 0.57322 0.38415 0.08728 0.0
H1133 H 0.62041 0.45144 0.12696 0.0
H1134 H 0.58732 0.48177 0.09496 0.0
H1135 H 0.61936 0.41816 0.19353 0.0
H1136 H 0.63846 0.40916 0.03339 0.0
H1137 H 0.6296 0.40043 0.95225 0.0
H1138 H 0.60258 0.32152 0.98837 0.0
H1139 H 0.61127 0.32981 0.06981 0.0
C1140 C 0.72565 0.33514 0.20201 0.0
C1141 C 0.71956 0.3091 0.21731 0.0
C1142 C 0.70547 0.35301 0.18979 0.0
C1143 C 0.67861 0.34545 0.19306 0.0
C1144 C 0.67237 0.3194 0.20846 0.0
C1145 C 0.69267 0.3013 0.22014 0.0
C1146 C 0.65775 0.36319 0.17333 0.0
C1147 C 0.64939 0.35831 0.12862 0.0
C1148 C 0.64686 0.38527 0.1967 0.0
C1149 C 0.65453 0.39235 0.24359 0.0
C1150 C 0.63524 0.39186 0.27911 0.0
C1151 C 0.64127 0.40165 0.32224 0.0
C1152 C 0.66655 0.41195 0.33024 0.0
C1153 C 0.68571 0.41287 0.29494 0.0
C1154 C 0.67971 0.40328 0.25167 0.0
C1155 C 0.55786 0.42283 0.06967 0.0
C1156 C 0.56126 0.45064 0.07152 0.0
C1157 C 0.57674 0.40541 0.08845 0.0
C1158 C 0.59967 0.41534 0.10918 0.0
C1159 C 0.60298 0.44313 0.11124 0.0
C1160 C 0.584 0.46054 0.09281 0.0
C1161 C 0.61979 0.39697 0.13008 0.0
C1162 C 0.62786 0.40153 0.17505 0.0
C1163 C 0.63099 0.3751 0.10643 0.0
C1164 C 0.62526 0.3702 0.0577 0.0
C1165 C 0.63044 0.39002 0.02406 0.0
C1166 C 0.62558 0.38511 0.97801 0.0
C1167 C 0.61549 0.36045 0.96518 0.0
C1168 C 0.61036 0.34062 0.99837 0.0
C1169 C 0.61533 0.34538 0.04446 0.0
H1170 H 0.61166 0.35672 0.92951 0.0
H1171 H 0.67122 0.41944 0.36367 0.0
H1172 H 0.9838 0.41309 0.48003 0.0
H1173 H 0.95537 0.38016 0.44398 0.0
H1174 H 0.89522 0.44026 0.42279 0.0
H1175 H 0.92379 0.47352 0.4575 0.0
H1176 H 0.88161 0.38303 0.46767 0.0
H1177 H 0.92064 0.4335 0.33765 0.0
H1178 H 0.95874 0.45222 0.29336 0.0
H1179 H 0.99219 0.3739 0.28036 0.0
H1180 H 0.95453 0.35481 0.32549 0.0
H1181 H 0.78735 0.33577 0.32062 0.0
H1182 H 0.8208 0.36408 0.35421 0.0
H1183 H 0.88204 0.3074 0.31827 0.0
H1184 H 0.84861 0.27911 0.28328 0.0
H1185 H 0.89885 0.35833 0.30584 0.0
H1186 H 0.85611 0.30669 0.42445 0.0
H1187 H 0.8181 0.28748 0.46836 0.0
H1188 H 0.79239 0.36591 0.50533 0.0
H1189 H 0.82991 0.38566 0.46086 0.0
C1190 C 0.9645 0.41924 0.46771 0.0
C1191 C 0.95596 0.4458 0.47106 0.0
C1192 C 0.94839 0.40048 0.44726 0.0
C1193 C 0.92346 0.40805 0.43089 0.0
C1194 C 0.91454 0.43431 0.43536 0.0
C1195 C 0.93087 0.45322 0.45484 0.0
C1196 C 0.90682 0.38871 0.40793 0.0
C1197 C 0.88515 0.37763 0.43226 0.0
C1198 C 0.9123 0.38133 0.36235 0.0
C1199 C 0.93499 0.39279 0.33548 0.0
C1200 C 0.93631 0.42033 0.32592 0.0
C1201 C 0.95778 0.431 0.30056 0.0
C1202 C 0.9779 0.41427 0.28416 0.0
C1203 C 0.97663 0.38685 0.29318 0.0
C1204 C 0.95523 0.37609 0.31866 0.0
C1205 C 0.80796 0.32942 0.31949 0.0
C1206 C 0.8154 0.30508 0.30016 0.0
C1207 C 0.827 0.34556 0.33874 0.0
C1208 C 0.85365 0.33736 0.33975 0.0
C1209 C 0.86145 0.31383 0.31814 0.0
C1210 C 0.84238 0.29775 0.29826 0.0
C1211 C 0.87298 0.35305 0.36511 0.0
C1212 C 0.89533 0.36335 0.34143 0.0
C1213 C 0.86821 0.35955 0.41154 0.0
C1214 C 0.8458 0.34769 0.43903 0.0
C1215 C 0.84227 0.31987 0.44169 0.0
C1216 C 0.8208 0.30888 0.46668 0.0
C1217 C 0.80285 0.32547 0.48959 0.0
C1218 C 0.80632 0.35309 0.48756 0.0
C1219 C 0.8277 0.36419 0.46248 0.0
H1220 H 0.78629 0.31695 0.50903 0.0
H1221 H 0.99439 0.42255 0.26424 0.0
H1222 H 0.77953 0.67902 0.68346 0.0
H1223 H 0.81046 0.64615 0.65215 0.0
H1224 H 0.87491 0.68241 0.72408 0.0
H1225 H 0.8444 0.71616 0.75333 0.0
H1226 H 0.89261 0.66994 0.6451 0.0
H1227 H 0.84357 0.62174 0.76042 0.0
H1228 H 0.80339 0.60485 0.80114 0.0
H1229 H 0.78037 0.56315 0.68105 0.0
H1230 H 0.82023 0.58012 0.63937 0.0
H1231 H 0.98274 0.56158 0.59699 0.0
H1232 H 0.95589 0.59702 0.62909 0.0
H1233 H 0.88474 0.55844 0.58239 0.0
H1234 H 0.91178 0.52096 0.55672 0.0
H1235 H 0.87204 0.57353 0.65513 0.0
H1236 H 0.91472 0.64565 0.53908 0.0
H1237 H 0.95334 0.67105 0.50759 0.0
H1238 H 0.99074 0.66698 0.63833 0.0
H1239 H 0.95138 0.64371 0.6715 0.0
C1240 C 0.80029 0.68008 0.69262 0.0
C1241 C 0.80925 0.70008 0.72183 0.0
C1242 C 0.818 0.66105 0.67491 0.0
C1243 C 0.84511 0.66122 0.68639 0.0
C1244 C 0.85416 0.68153 0.71479 0.0
C1245 C 0.83653 0.70074 0.73203 0.0
C1246 C 0.86407 0.64056 0.66843 0.0
C1247 C 0.88808 0.64881 0.64733 0.0
C1248 C 0.85859 0.6129 0.6715 0.0
C1249 C 0.83477 0.60239 0.69666 0.0
C1250 C 0.82986 0.60909 0.74261 0.0
C1251 C 0.80715 0.5995 0.76587 0.0
C1252 C 0.78931 0.58299 0.74367 0.0
C1253 C 0.79419 0.57597 0.69819 0.0
C1254 C 0.81685 0.58555 0.67474 0.0
C1255 C 0.96141 0.56106 0.59258 0.0
C1256 C 0.94945 0.53888 0.57277 0.0
C1257 C 0.94583 0.58181 0.61051 0.0
C1258 C 0.91782 0.58168 0.60724 0.0
C1259 C 0.90611 0.55958 0.58608 0.0
C1260 C 0.9216 0.53813 0.57068 0.0
C1261 C 0.9003 0.60277 0.62895 0.0
C1262 C 0.8765 0.5946 0.65163 0.0
C1263 C 0.90622 0.63054 0.62807 0.0
C1264 C 0.93072 0.64198 0.60718 0.0
C1265 C 0.9314 0.6498 0.56082 0.0
C1266 C 0.95325 0.66407 0.54284 0.0
C1267 C 0.97482 0.66983 0.57049 0.0
C1268 C 0.97422 0.66215 0.6167 0.0
C1269 C 0.952 0.64881 0.63528 0.0
H1270 H 0.99179 0.68063 0.55629 0.0
H1271 H 0.77172 0.5756 0.76172 0.0
H1272 H 0.26825 0.34574 0.20897 0.0
H1273 H 0.30362 0.3752 0.17962 0.0
H1274 H 0.35956 0.31024 0.18638 0.0
H1275 H 0.3237 0.28034 0.21537 0.0
H1276 H 0.38263 0.35956 0.21423 0.0
H1277 H 0.33541 0.3282 0.08545 0.0
H1278 H 0.29575 0.31836 0.04024 0.0
H1279 H 0.2755 0.40149 0.03607 0.0
H1280 H 0.31482 0.41178 0.08192 0.0
H1281 H 0.47821 0.43458 0.07352 0.0
H1282 H 0.44821 0.39913 0.10313 0.0
H1283 H 0.38178 0.45326 0.09463 0.0
H1284 H 0.41162 0.48841 0.06507 0.0
H1285 H 0.36661 0.40563 0.06552 0.0
H1286 H 0.41217 0.43694 0.19709 0.0
H1287 H 0.45151 0.4473 0.24281 0.0
H1288 H 0.47483 0.365 0.24189 0.0
H1289 H 0.43583 0.35419 0.19554 0.0
C1290 C 0.28814 0.33768 0.20476 0.0
C1291 C 0.29302 0.31065 0.21559 0.0
C1292 C 0.30848 0.35464 0.18771 0.0
C1293 C 0.33459 0.34526 0.18017 0.0
C1294 C 0.33978 0.3183 0.19181 0.0
C1295 C 0.31922 0.30114 0.20871 0.0
C1296 C 0.35562 0.36347 0.15816 0.0
C1297 C 0.37928 0.36922 0.18132 0.0
C1298 C 0.35148 0.37678 0.11547 0.0
C1299 C 0.32796 0.37073 0.08746 0.0
C1300 C 0.3224 0.34436 0.07517 0.0
C1301 C 0.29999 0.3387 0.0494 0.0
C1302 C 0.28309 0.35928 0.03537 0.0
C1303 C 0.2886 0.38557 0.04699 0.0
C1304 C 0.31096 0.39133 0.07285 0.0
C1305 C 0.45715 0.43879 0.07735 0.0
C1306 C 0.44733 0.46434 0.0659 0.0
C1307 C 0.43992 0.41851 0.09481 0.0
C1308 C 0.41237 0.42319 0.1017 0.0
C1309 C 0.40271 0.4487 0.08976 0.0
C1310 C 0.41988 0.46893 0.07278 0.0
C1311 C 0.39353 0.40205 0.12173 0.0
C1312 C 0.37016 0.39581 0.09823 0.0
C1313 C 0.39797 0.38839 0.16408 0.0
C1314 C 0.42124 0.3948 0.19238 0.0
C1315 C 0.42579 0.42108 0.20633 0.0
C1316 C 0.44801 0.42704 0.23239 0.0
C1317 C 0.46569 0.40684 0.24511 0.0
C1318 C 0.46114 0.38063 0.23192 0.0
C1319 C 0.43898 0.37457 0.20577 0.0
H1320 H 0.48289 0.4115 0.26528 0.0
H1321 H 0.26574 0.35486 1.01542 0.0
H1322 H 0.44882 0.58361 1.0196 0.0
H1323 H 0.41493 0.61287 0.98828 0.0
H1324 H 0.4116 0.56441 0.868 0.0
H1325 H 0.44424 0.53391 0.90099 0.0
H1326 H 0.41094 0.64443 0.92176 0.0
H1327 H 0.35202 0.56748 0.81821 0.0
H1328 H 0.34147 0.51944 0.82106 0.0
H1329 H 0.3519 0.5177 0.9667 0.0
H1330 H 0.36212 0.56578 0.96481 0.0
H1331 H 0.31817 0.72401 0.80704 0.0
H1332 H 0.35303 0.69169 0.82105 0.0
H1333 H 0.29505 0.63866 0.88506 0.0
H1334 H 0.25957 0.66843 0.8601 0.0
H1335 H 0.3277 0.60891 0.85776 0.0
H1336 H 0.34434 0.69089 0.94135 0.0
H1337 H 0.34885 0.73981 0.93661 0.0
H1338 H 0.41778 0.7321 0.84866 0.0
H1339 H 0.41329 0.68313 0.85202 0.0
C1340 C 0.44062 0.5788 0.98695 0.0
C1341 C 0.44896 0.55587 0.96367 0.0
C1342 C 0.42132 0.59585 0.96862 0.0
C1343 C 0.41008 0.5908 0.92594 0.0
C1344 C 0.41918 0.56849 0.90161 0.0
C1345 C 0.43809 0.55107 0.92047 0.0
C1346 C 0.38883 0.60884 0.90738 0.0
C1347 C 0.39265 0.63658 0.90818 0.0
C1348 C 0.36474 0.59897 0.88964 0.0
C1349 C 0.35812 0.57016 0.89124 0.0
C1350 C 0.35194 0.55686 0.85085 0.0
C1351 C 0.34604 0.52963 0.8523 0.0
C1352 C 0.34611 0.51551 0.89401 0.0
C1353 C 0.35194 0.52863 0.9344 0.0
C1354 C 0.3578 0.55587 0.93315 0.0
C1355 C 0.3127 0.70484 0.82159 0.0
C1356 C 0.2859 0.6982 0.82963 0.0
C1357 C 0.33295 0.68662 0.83176 0.0
C1358 C 0.32738 0.66275 0.8563 0.0
C1359 C 0.30045 0.65659 0.86592 0.0
C1360 C 0.28003 0.67384 0.85207 0.0
C1361 C 0.34926 0.6447 0.87342 0.0
C1362 C 0.34575 0.61688 0.87199 0.0
C1363 C 0.37314 0.65452 0.89251 0.0
C1364 C 0.37835 0.68342 0.89666 0.0
C1365 C 0.3607 0.69964 0.92163 0.0
C1366 C 0.36311 0.72737 0.91881 0.0
C1367 C 0.38345 0.73903 0.89199 0.0
C1368 C 0.40195 0.72301 0.86916 0.0
C1369 C 0.39951 0.69527 0.87155 0.0
H1370 H 0.38483 0.76048 0.8887 0.0
H1371 H 0.34159 0.49442 0.89504 0.0
H1372 H 0.16214 0.73415 0.73789 0.0
H1373 H 0.12845 0.70558 0.7048 0.0
H1374 H 0.18544 0.64117 0.69834 0.0
H1375 H 0.21948 0.67017 0.72878 0.0
H1376 H 0.16186 0.64449 0.62244 0.0
H1377 H 0.13115 0.64342 0.78052 0.0
H1378 H 0.11645 0.66344 0.85324 0.0
H1379 H 0.05216 0.70282 0.78465 0.0
H1380 H 0.06641 0.68287 0.71153 0.0
H1381 H 0.07948 0.53203 0.60445 0.0
H1382 H 0.10747 0.56641 0.63696 0.0
H1383 H 0.05182 0.62696 0.59391 0.0
H1384 H 0.0237 0.59276 0.56093 0.0
H1385 H 0.07147 0.62938 0.68937 0.0
H1386 H 0.10185 0.62411 0.53171 0.0
H1387 H 0.11742 0.60054 0.46278 0.0
H1388 H 0.18411 0.56937 0.53624 0.0
H1389 H 0.1689 0.59256 0.60574 0.0
C1390 C 0.16734 0.71383 0.72955 0.0
C1391 C 0.19336 0.70431 0.73532 0.0
C1392 C 0.14807 0.69749 0.71096 0.0
C1393 C 0.15439 0.67118 0.69942 0.0
C1394 C 0.18021 0.66148 0.70665 0.0
C1395 C 0.19962 0.67801 0.72406 0.0
C1396 C 0.13462 0.65392 0.67787 0.0
C1397 C 0.14221 0.64102 0.63744 0.0
C1398 C 0.1087 0.65001 0.69663 0.0
C1399 C 0.1 0.66188 0.74054 0.0
C1400 C 0.11396 0.65646 0.78094 0.0
C1401 C 0.10569 0.66776 0.82221 0.0
C1402 C 0.08349 0.68454 0.82351 0.0
C1403 C 0.06939 0.68987 0.78358 0.0
C1404 C 0.07749 0.67849 0.74225 0.0
C1405 C 0.07313 0.55263 0.6021 0.0
C1406 C 0.04958 0.55979 0.57994 0.0
C1407 C 0.08912 0.57217 0.62055 0.0
C1408 C 0.08161 0.59903 0.61741 0.0
C1409 C 0.05779 0.60625 0.59643 0.0
C1410 C 0.04193 0.58674 0.57746 0.0
C1411 C 0.09921 0.61951 0.63521 0.0
C1412 C 0.0911 0.63312 0.67451 0.0
C1413 C 0.12486 0.6237 0.61598 0.0
C1414 C 0.13412 0.60993 0.57404 0.0
C1415 C 0.11973 0.61207 0.53328 0.0
C1416 C 0.12849 0.59881 0.49409 0.0
C1417 C 0.15165 0.5834 0.49519 0.0
C1418 C 0.16616 0.5813 0.53544 0.0
C1419 C 0.15751 0.59454 0.57471 0.0
H1420 H 0.15838 0.57314 0.46482 0.0
H1421 H 0.07718 0.69334 0.85549 0.0
H1422 H 0.23108 0.33221 0.35778 0.0
H1423 H 0.20031 0.36371 0.39351 0.0
H1424 H 0.13384 0.32192 0.33705 0.0
H1425 H 0.16452 0.29053 0.30089 0.0
H1426 H 0.12571 0.37274 0.32698 0.0
H1427 H 0.15014 0.31711 0.4523 0.0
H1428 H 0.18012 0.29311 0.50468 0.0
H1429 H 0.21221 0.36747 0.54863 0.0
H1430 H 0.18278 0.39194 0.4958 0.0
H1431 H 0.02833 0.43854 0.46916 0.0
H1432 H 0.05748 0.40235 0.44314 0.0
H1433 H 0.12577 0.45354 0.45506 0.0
H1434 H 0.09654 0.48998 0.48008 0.0
H1435 H 0.13079 0.39601 0.49101 0.0
H1436 H 0.10608 0.45032 0.35906 0.0
H1437 H 0.07359 0.47219 0.30849 0.0
H1438 H 0.03902 0.39621 0.27983 0.0
H1439 H 0.07079 0.37397 0.33137 0.0
C1440 C 0.20992 0.32964 0.35298 0.0
C1441 C 0.20039 0.30884 0.32605 0.0
C1442 C 0.19226 0.34766 0.37371 0.0
C1443 C 0.16457 0.34518 0.36858 0.0
C1444 C 0.15504 0.32443 0.34162 0.0
C1445 C 0.17268 0.30646 0.32078 0.0
C1446 C 0.14564 0.36451 0.39045 0.0
C1447 C 0.12668 0.37744 0.36302 0.0
C1448 C 0.14676 0.37099 0.43754 0.0
C1449 C 0.16445 0.35637 0.4696 0.0
C1450 C 0.16376 0.32836 0.47279 0.0
C1451 C 0.18064 0.31466 0.50261 0.0
C1452 C 0.19816 0.32875 0.52979 0.0
C1453 C 0.19871 0.35658 0.52741 0.0
C1454 C 0.18192 0.37038 0.49753 0.0
C1455 C 0.04958 0.44188 0.46726 0.0
C1456 C 0.06026 0.46687 0.47787 0.0
C1457 C 0.06622 0.42123 0.45212 0.0
C1458 C 0.09386 0.42516 0.44745 0.0
C1459 C 0.10457 0.44995 0.45887 0.0
C1460 C 0.08788 0.47075 0.47303 0.0
C1461 C 0.11136 0.40421 0.4273 0.0
C1462 C 0.12993 0.39105 0.45507 0.0
C1463 C 0.10962 0.39715 0.38076 0.0
C1464 C 0.09058 0.41052 0.3496 0.0
C1465 C 0.09131 0.43831 0.34249 0.0
C1466 C 0.07303 0.45078 0.31362 0.0
C1467 C 0.05414 0.43563 0.29116 0.0
C1468 C 0.05353 0.40796 0.29748 0.0
C1469 C 0.07166 0.39541 0.32655 0.0
H1470 H 0.04008 0.44533 0.2687 0.0
H1471 H 0.21127 0.31811 0.55276 0.0
H1472 H 0.99234 0.06481 0.84781 0.0
H1473 H 0.98949 0.05228 0.92897 0.0
H1474 H 0.03201 0.97948 0.9012 0.0
H1475 H 0.03465 0.99188 0.81944 0.0
H1476 H 0.99262 0.97109 0.96423 0.0
H1477 H 0.06404 0.03392 0.94343 0.0
H1478 H 0.08468 0.07622 0.91719 0.0
H1479 H 0.03041 0.11985 1.00293 0.0
H1480 H 0.00916 0.07782 0.02918 0.0
H1481 H 0.02491 0.94167 0.19299 0.0
H1482 H 0.03001 0.95378 0.11183 0.0
H1483 H 0.98928 0.02805 0.13603 0.0
H1484 H 0.98464 0.01615 0.21773 0.0
H1485 H 0.02866 0.03532 0.0745 0.0
H1486 H 0.95661 0.97309 0.09416 0.0
H1487 H 0.93537 0.93107 0.12032 0.0
H1488 H 0.99009 0.88663 0.03666 0.0
H1489 H 0.01192 0.92839 1.01052 0.0
C1490 C 1.00091 0.04602 0.85892 0.0
C1491 C 0.01399 0.02946 0.8273 0.0
C1492 C 0.99935 0.03892 0.90538 0.0
C1493 C 0.01112 0.01525 0.92151 0.0
C1494 C 0.02295 0.99795 0.88968 0.0
C1495 C 0.02437 0.00498 0.84294 0.0
C1496 C 0.01171 0.00911 0.97165 0.0
C1497 C 1.00086 0.98496 0.98824 0.0
C1498 C 0.02191 0.02745 1.00328 0.0
C1499 C 0.03487 0.05273 0.98797 0.0
C1500 C 0.0564 0.05255 0.95647 0.0
C1501 C 0.06821 0.07647 0.94161 0.0
C1502 C 0.05883 0.10071 0.95831 0.0
C1503 C 0.03764 0.10106 0.99 0.0
C1504 C 0.02572 0.07719 1.0049 0.0
C1505 C 0.01737 0.96075 0.18109 0.0
C1506 C 0.00417 0.97787 0.21163 0.0
C1507 C 0.02015 0.96759 0.13463 0.0
C1508 C 0.0094 0.99152 0.11744 0.0
C1509 C 0.99758 0.00938 0.14834 0.0
C1510 C 0.99502 1.00263 0.19506 0.0
C1511 C 0.00952 0.99732 0.06712 0.0
C1512 C 0.02048 0.02141 0.05049 0.0
C1513 C 0.99935 0.97896 0.03546 0.0
C1514 C 0.98605 0.95385 0.05072 0.0
C1515 C 0.96422 0.95434 0.08157 0.0
C1516 C 0.95207 0.93058 0.09637 0.0
C1517 C 0.96141 0.90619 0.08024 0.0
C1518 C 0.98289 0.90553 0.04917 0.0
C1519 C 0.99515 0.92925 0.03432 0.0
H1520 H 0.95198 0.88781 0.09175 0.0
H1521 H 0.068 0.11921 0.94675 0.0
H1522 H 0.26342 0.77793 0.47639 0.0
H1523 H 0.25307 0.78811 0.39604 0.0
H1524 H 0.26452 0.70542 0.36298 0.0
H1525 H 0.2751 0.69532 0.44263 0.0
H1526 H 0.29032 0.73574 0.30228 0.0
H1527 H 0.20146 0.73568 0.36923 0.0
H1528 H 0.16747 0.75043 0.42532 0.0
H1529 H 0.17625 0.83116 0.37619 0.0
H1530 H 0.21054 0.81694 0.32014 0.0
H1531 H 0.23752 0.7355 0.07691 0.0
H1532 H 0.24747 0.72753 0.15796 0.0
H1533 H 0.23177 0.81025 0.18568 0.0
H1534 H 0.22144 0.81812 0.10516 0.0
H1535 H 0.20868 0.78159 0.24961 0.0
H1536 H 0.29623 0.78303 0.18271 0.0
H1537 H 0.33235 0.77029 0.1291 0.0
H1538 H 0.32813 0.68947 0.17959 0.0
H1539 H 0.29171 0.70166 0.23308 0.0
C1540 C 0.26329 0.76189 0.45208 0.0
C1541 C 0.2703 0.73586 0.46591 0.0
C1542 C 0.25742 0.76771 0.40606 0.0
C1543 C 0.25804 0.74753 0.3731 0.0
C1544 C 0.26416 0.72142 0.38738 0.0
C1545 C 0.27015 0.71566 0.43307 0.0
C1546 C 0.25312 0.75343 0.32349 0.0
C1547 C 0.27228 0.74545 0.29077 0.0
C1548 C 0.23002 0.76686 0.30825 0.0
C1549 C 0.20872 0.77527 0.34075 0.0
C1550 C 0.19619 0.75659 0.37048 0.0
C1551 C 0.17688 0.76486 0.40228 0.0
C1552 C 0.16976 0.79173 0.40441 0.0
C1553 C 0.18181 0.81036 0.37453 0.0
C1554 C 0.20115 0.8022 0.34269 0.0
C1555 C 0.2366 0.75204 0.10018 0.0
C1556 C 0.22861 0.77742 0.08448 0.0
C1557 C 0.24225 0.74749 0.14664 0.0
C1558 C 0.24048 0.7683 0.17833 0.0
C1559 C 0.2331 0.79376 0.16233 0.0
C1560 C 0.22727 0.79825 0.11612 0.0
C1561 C 0.24576 0.76358 0.22822 0.0
C1562 C 0.22671 0.77183 0.26102 0.0
C1563 C 0.2691 0.75061 0.24362 0.0
C1564 C 0.29105 0.74321 0.21158 0.0
C1565 C 0.30286 0.7625 0.18214 0.0
C1566 C 0.32341 0.75538 0.15181 0.0
C1567 C 0.33248 0.72907 0.15085 0.0
C1568 C 0.32106 0.70984 0.18032 0.0
C1569 C 0.30047 0.71684 0.21067 0.0
H1570 H 0.34839 0.7236 0.12735 0.0
H1571 H 0.15489 0.79811 0.42918 0.0
H1572 H 0.5122 0.99723 0.71855 0.0
H1573 H 0.50532 0.98388 0.63959 0.0
H1574 H 0.48474 0.0649 0.60285 0.0
H1575 H 0.48858 0.07759 0.68197 0.0
H1576 H 0.45677 0.03743 0.55594 0.0
H1577 H 0.5507 0.03254 0.58407 0.0
H1578 H 0.59132 0.01751 0.6231 0.0
H1579 H 0.57401 0.93643 0.5898 0.0
H1580 H 0.5331 0.95097 0.551 0.0
H1581 H 0.49204 0.03617 0.31794 0.0
H1582 H 0.49898 0.04244 0.40021 0.0
H1583 H 0.47938 0.95993 0.42698 0.0
H1584 H 0.47168 0.95382 0.34499 0.0
H1585 H 0.52721 0.98492 0.47759 0.0
H1586 H 0.43254 0.99479 0.445 0.0
H1587 H 0.39581 0.01439 0.40073 0.0
H1588 H 0.42005 0.09288 0.43863 0.0
H1589 H 0.45721 0.07373 0.48255 0.0
C1590 C 0.50557 0.01209 0.69396 0.0
C1591 C 0.5016 0.03872 0.70694 0.0
C1592 C 0.50213 0.00451 0.64837 0.0
C1593 C 0.49539 0.0235 0.61436 0.0
C1594 C 0.49023 0.04975 0.62783 0.0
C1595 C 0.49289 0.05713 0.67339 0.0
C1596 C 0.494 0.01656 0.56471 0.0
C1597 C 0.47242 0.02615 0.5391 0.0
C1598 C 0.51412 1.00158 0.54193 0.0
C1599 C 0.5387 0.9928 0.56512 0.0
C1600 C 0.55548 0.01149 0.58534 0.0
C1601 C 0.57856 1.00307 0.60737 0.0
C1602 C 0.5852 0.97603 0.60905 0.0
C1603 C 0.56881 0.95736 0.58856 0.0
C1604 C 0.54569 0.96568 0.56652 0.0
C1605 C 0.48979 0.01928 0.34133 0.0
C1606 C 0.4814 0.99451 0.32528 0.0
C1607 C 0.49367 0.02288 0.38822 0.0
C1608 C 0.48965 1.00164 0.41962 0.0
C1609 C 0.48269 0.97652 0.4033 0.0
C1610 C 0.47827 0.97306 0.35658 0.0
C1611 C 0.49041 0.00623 0.46969 0.0
C1612 C 0.51172 0.99613 0.49504 0.0
C1613 C 0.47054 0.02141 0.49202 0.0
C1614 C 0.44777 0.03284 0.4667 0.0
C1615 C 0.43014 0.01623 0.44363 0.0
C1616 C 0.40923 0.02726 0.41864 0.0
C1617 C 0.40563 0.05487 0.41678 0.0
C1618 C 0.42287 0.0715 0.44008 0.0
C1619 C 0.44384 0.06057 0.46505 0.0
H1620 H 0.38946 0.06338 0.39736 0.0
H1621 H 0.60307 0.96954 0.62614 0.0
H1622 H 0.21383 0.20534 0.94045 0.0
H1623 H 0.22668 0.21036 0.85964 0.0
H1624 H 0.25783 0.28864 0.88512 0.0
H1625 H 0.24481 0.2837 0.96651 0.0
H1626 H 0.22545 0.28836 0.80954 0.0
H1627 H 0.29983 0.2383 0.86361 0.0
H1628 H 0.32286 0.20155 0.90369 0.0
H1629 H 0.28734 0.14505 0.81467 0.0
H1630 H 0.26379 0.18144 0.77442 0.0
H1631 H 0.29318 0.3065 0.5951 0.0
H1632 H 0.28056 0.30143 0.676 0.0
H1633 H 0.24944 0.22311 0.6507 0.0
H1634 H 0.2623 0.22808 0.56924 0.0
H1635 H 0.28193 0.22343 0.72615 0.0
H1636 H 0.20711 0.27315 0.67285 0.0
H1637 H 0.18454 0.30981 0.63176 0.0
H1638 H 0.22118 0.36674 0.71865 0.0
H1639 H 0.24415 0.3304 0.76008 0.0
C1640 C 0.22363 0.22356 0.92897 0.0
C1641 C 0.22824 0.24415 0.95995 0.0
C1642 C 0.23107 0.22636 0.88271 0.0
C1643 C 0.2433 0.24985 0.86608 0.0
C1644 C 0.24841 0.27032 0.89706 0.0
C1645 C 0.24117 0.2674 0.94363 0.0
C1646 C 0.24979 0.2532 0.81611 0.0
C1647 C 0.23815 0.27439 0.79149 0.0
C1648 C 0.26574 0.23457 0.79208 0.0
C1649 C 0.27982 0.2126 0.81627 0.0
C1650 C 0.29673 0.21802 0.85283 0.0
C1651 C 0.30993 0.19726 0.87553 0.0
C1652 C 0.30652 0.17097 0.86182 0.0
C1653 C 0.28994 0.16541 0.8253 0.0
C1654 C 0.27668 0.18611 0.80249 0.0
C1655 C 0.28344 0.28826 0.60664 0.0
C1656 C 0.27881 0.26766 0.57571 0.0
C1657 C 0.27614 0.28542 0.65295 0.0
C1658 C 0.26399 0.2619 0.66965 0.0
C1659 C 0.25882 0.24144 0.6387 0.0
C1660 C 0.26594 0.24438 0.59209 0.0
C1661 C 0.25757 0.25855 0.71964 0.0
C1662 C 0.26922 0.23737 0.74423 0.0
C1663 C 0.24162 0.27715 0.74365 0.0
C1664 C 0.22754 0.29906 0.71931 0.0
C1665 C 0.21049 0.2935 0.68302 0.0
C1666 C 0.1976 0.31422 0.65969 0.0
C1667 C 0.20152 0.3406 0.67243 0.0
C1668 C 0.2182 0.3463 0.70876 0.0
C1669 C 0.23111 0.32564 0.73225 0.0
H1670 H 0.19158 0.35662 0.65423 0.0
H1671 H 0.31676 0.15493 0.87942 0.0
H1672 H 0.77488 0.27386 0.96513 0.0
H1673 H 0.7672 0.28499 0.88414 0.0
H1674 H 0.75925 0.20139 0.85533 0.0
H1675 H 0.76723 0.1903 0.93564 0.0
H1676 H 0.79166 0.22349 0.79473 0.0
H1677 H 0.70524 0.24527 0.85671 0.0
H1678 H 0.67313 0.26774 0.90796 0.0
H1679 H 0.69971 0.34401 0.85621 0.0
H1680 H 0.73225 0.322 0.80507 0.0
H1681 H 0.74106 0.23559 0.56729 0.0
H1682 H 0.74918 0.22549 0.64842 0.0
H1683 H 0.75653 0.30952 0.67428 0.0
H1684 H 0.74795 0.31958 0.59367 0.0
H1685 H 0.72488 0.28782 0.73648 0.0
H1686 H 0.81107 0.26573 0.67374 0.0
H1687 H 0.84269 0.24297 0.62201 0.0
H1688 H 0.81618 0.16695 0.67506 0.0
H1689 H 0.78413 0.18926 0.72671 0.0
C1690 C 0.77101 0.25795 0.94159 0.0
C1691 C 0.77183 0.23121 0.95669 0.0
C1692 C 0.76666 0.2643 0.89527 0.0
C1693 C 0.76267 0.24402 0.86336 0.0
C1694 C 0.76252 0.2174 0.87896 0.0
C1695 C 0.76702 0.21109 0.92497 0.0
C1696 C 0.75981 0.25019 0.81343 0.0
C1697 C 0.77681 0.23733 0.78201 0.0
C1698 C 0.74092 0.26871 0.79663 0.0
C1699 C 0.72139 0.28198 0.82741 0.0
C1700 C 0.7044 0.26684 0.85654 0.0
C1701 C 0.68609 0.27949 0.88551 0.0
C1702 C 0.68443 0.30729 0.88544 0.0
C1703 C 0.70105 0.32248 0.85629 0.0
C1704 C 0.71941 0.30993 0.82728 0.0
C1705 C 0.74494 0.25181 0.59018 0.0
C1706 C 0.74378 0.27835 0.5742 0.0
C1707 C 0.74953 0.24606 0.63661 0.0
C1708 C 0.7535 0.26675 0.66774 0.0
C1709 C 0.75332 0.2932 0.65124 0.0
C1710 C 0.74852 0.29893 0.60509 0.0
C1711 C 0.75669 0.26107 0.71777 0.0
C1712 C 0.73977 0.27403 0.7492 0.0
C1713 C 0.77563 0.24261 0.73461 0.0
C1714 C 0.79502 0.22917 0.70379 0.0
C1715 C 0.81185 0.24416 0.67415 0.0
C1716 C 0.82987 0.23134 0.64488 0.0
C1717 C 0.8314 0.20353 0.64516 0.0
C1718 C 0.81495 0.18849 0.67483 0.0
C1719 C 0.79688 0.20121 0.70415 0.0
H1720 H 0.84535 0.19364 0.62246 0.0
H1721 H 0.67023 0.31705 0.90788 0.0
H1722 H 0.71164 0.7045 0.44759 0.0
H1723 H 0.72328 0.71004 0.36646 0.0
H1724 H 0.75784 0.78674 0.39295 0.0
H1725 H 0.74574 0.78145 0.47462 0.0
H1726 H 0.72521 0.78894 0.31906 0.0
H1727 H 0.79723 0.73356 0.36854 0.0
H1728 H 0.81816 0.69474 0.40628 0.0
H1729 H 0.77786 0.6422 0.31615 0.0
H1730 H 0.75639 0.68071 0.27826 0.0
H1731 H 0.79226 0.80644 0.10409 0.0
H1732 H 0.77902 0.8013 0.18461 0.0
H1733 H 0.7454 0.72428 0.15727 0.0
H1734 H 0.75907 0.72921 0.07627 0.0
H1735 H 0.77705 0.72219 0.23141 0.0
H1736 H 0.70533 0.77711 0.18127 0.0
H1737 H 0.68406 0.81565 0.14321 0.0
H1738 H 0.72318 0.86872 0.23393 0.0
H1739 H 0.74498 0.83052 0.27217 0.0
C1740 C 0.72185 0.72252 0.43626 0.0
C1741 C 0.72766 0.74259 0.46762 0.0
C1742 C 0.72864 0.72559 0.38981 0.0
C1743 C 0.74155 0.74877 0.37341 0.0
C1744 C 0.74788 0.76868 0.40473 0.0
C1745 C 0.74118 0.76554 0.45146 0.0
C1746 C 0.74756 0.75239 0.32339 0.0
C1747 C 0.73691 0.77457 0.30004 0.0
C1748 C 0.76211 0.73322 0.29813 0.0
C1749 C 0.775 0.71002 0.32085 0.0
C1750 C 0.79265 0.71372 0.35702 0.0
C1751 C 0.80465 0.69177 0.37839 0.0
C1752 C 0.79929 0.66601 0.36371 0.0
C1753 C 0.78197 0.66216 0.32753 0.0
C1754 C 0.7699 0.68404 0.30606 0.0
C1755 C 0.78185 0.78847 0.1151 0.0
C1756 C 0.77684 0.76816 0.08377 0.0
C1757 C 0.77413 0.78563 0.16117 0.0
C1758 C 0.76109 0.76244 0.17718 0.0
C1759 C 0.75543 0.74236 0.14578 0.0
C1760 C 0.76304 0.74528 0.09943 0.0
C1761 C 0.75472 0.75875 0.22705 0.0
C1762 C 0.76532 0.73657 0.25039 0.0
C1763 C 0.74007 0.77788 0.25224 0.0
C1764 C 0.72699 0.80094 0.22933 0.0
C1765 C 0.70958 0.79701 0.19287 0.0
C1766 C 0.69739 0.8188 0.17131 0.0
C1767 C 0.70232 0.84462 0.18607 0.0
C1768 C 0.7194 0.84871 0.2225 0.0
C1769 C 0.73166 0.82699 0.24417 0.0
H1770 H 0.69285 0.86146 0.16934 0.0
H1771 H 0.8086 0.64905 0.38029 0.0
H1772 H 0.46412 0.44577 0.69094 0.0
H1773 H 0.46526 0.4587 0.61024 0.0
H1774 H 0.52794 0.51504 0.63543 0.0
H1775 H 0.52772 0.50117 0.7165 0.0
H1776 H 0.45579 0.50145 0.56431 0.0
H1777 H 0.56857 0.51999 0.53893 0.0
H1778 H 0.61108 0.50596 0.57293 0.0
H1779 H 0.57533 0.43239 0.61959 0.0
H1780 H 0.53275 0.44585 0.58537 0.0
H1781 H 0.46974 0.54833 0.33867 0.0
H1782 H 0.47758 0.54601 0.42117 0.0
H1783 H 0.51707 0.47029 0.40482 0.0
H1784 H 0.51014 0.47323 0.32184 0.0
H1785 H 0.53952 0.49631 0.472 0.0
H1786 H 0.45001 0.47442 0.43195 0.0
H1787 H 0.40664 0.48213 0.39577 0.0
H1788 H 0.39392 0.55115 0.47816 0.0
H1789 H 0.43744 0.54407 0.51432 0.0
C1790 C 0.4783 0.46082 0.6794 0.0
C1791 C 0.49614 0.4721 0.71017 0.0
C1792 C 0.47876 0.4684 0.63318 0.0
C1793 C 0.49693 0.4876 0.61638 0.0
C1794 C 0.51403 0.49983 0.64732 0.0
C1795 C 0.51369 0.4921 0.69378 0.0
C1796 C 0.49802 0.49412 0.56632 0.0
C1797 C 0.47418 0.50055 0.54431 0.0
C1798 C 0.52187 0.49249 0.53976 0.0
C1799 C 0.54742 0.48409 0.5601 0.0
C1800 C 0.56983 0.5008 0.55637 0.0
C1801 C 0.59392 0.49295 0.57567 0.0
C1802 C 0.59587 0.46835 0.59856 0.0
C1803 C 0.57377 0.45149 0.60203 0.0
C1804 C 0.54964 0.45924 0.58273 0.0
C1805 C 0.48072 0.53158 0.35266 0.0
C1806 C 0.48931 0.51092 0.32415 0.0
C1807 C 0.48506 0.53016 0.39978 0.0
C1808 C 0.49736 0.50766 0.41949 0.0
C1809 C 0.50748 0.48782 0.39054 0.0
C1810 C 0.50355 0.48948 0.34317 0.0
C1811 C 0.4973 0.50362 0.47021 0.0
C1812 C 0.52125 0.49763 0.49223 0.0
C1813 C 0.47341 0.50477 0.49672 0.0
C1814 C 0.44708 0.50888 0.47548 0.0
C1815 C 0.43803 0.49133 0.44215 0.0
C1816 C 0.41342 0.49558 0.42165 0.0
C1817 C 0.39756 0.51716 0.43458 0.0
C1818 C 0.40625 0.53447 0.46813 0.0
C1819 C 0.43088 0.53035 0.48864 0.0
H1820 H 0.37852 0.52042 0.41868 0.0
H1821 H 0.61454 0.46231 0.61352 0.0
H1822 H 0.05452 0.45469 0.85559 0.0
H1823 H 0.04922 0.46617 0.9361 0.0
H1824 H 0.97513 0.50574 0.90655 0.0
H1825 H 0.98026 0.49413 0.82552 0.0
H1826 H 0.00458 0.53382 0.96679 0.0
H1827 H 0.97518 0.44348 0.95352 0.0
H1828 H 0.97893 0.39649 0.93107 0.0
H1829 H 0.04683 0.3864 1.01686 0.0
H1830 H 0.04372 0.43348 0.0393 0.0
H1831 H 0.95404 0.54058 0.19206 0.0
H1832 H 0.95952 0.52768 0.11229 0.0
H1833 H 0.0337 0.48894 0.14421 0.0
H1834 H 0.02833 0.50192 0.22463 0.0
H1835 H 0.00474 0.46034 0.08299 0.0
H1836 H 0.03411 0.55054 0.09652 0.0
H1837 H 0.03044 0.59752 0.11905 0.0
H1838 H 0.96283 0.6079 0.0327 0.0
H1839 H 0.96583 0.56083 1.01018 0.0
C1840 C 0.03706 0.46585 0.86612 0.0
C1841 C 0.01761 0.47315 0.8341 0.0
C1842 C 0.03407 0.4724 0.91225 0.0
C1843 C 0.01149 0.48633 0.92771 0.0
C1844 C 0.99265 0.49483 0.89553 0.0
C1845 C 0.99565 0.48828 0.84917 0.0
C1846 C 0.00737 0.49138 0.97756 0.0
C1847 C 0.00425 0.51771 0.99209 0.0
C1848 C 0.00758 0.47045 1.01088 0.0
C1849 C 0.00937 0.44208 0.99774 0.0
C1850 C 0.99103 0.4313 0.96733 0.0
C1851 C 0.99302 0.40464 0.95465 0.0
C1852 C 0.01314 0.38849 0.97244 0.0
C1853 C 0.03127 0.39895 1.00306 0.0
C1854 C 0.0294 0.42561 1.0158 0.0
C1855 C 0.9715 0.52919 0.18224 0.0
C1856 C 0.99099 0.52269 0.21462 0.0
C1857 C 0.9746 0.52184 0.13654 0.0
C1858 C 0.99734 0.5079 0.12189 0.0
C1859 C 0.01608 0.4999 0.1546 0.0
C1860 C 0.01295 0.50723 0.2006 0.0
C1861 C 1.00187 0.50277 0.07217 0.0
C1862 C 0.00509 0.47644 0.05767 0.0
C1863 C 1.00177 0.5237 0.03886 0.0
C1864 C 1.00005 0.55208 0.052 0.0
C1865 C 0.01833 0.56278 0.08259 0.0
C1866 C 0.01639 0.58943 0.09533 0.0
C1867 C 0.99637 0.60567 0.0774 0.0
C1868 C 0.9783 0.59529 0.0466 0.0
C1869 C 0.98013 0.56863 0.03381 0.0
H1870 H 0.9949 0.6263 0.0873 0.0
H1871 H 0.01465 0.36785 0.96257 0.0
loop_
_geom_bond_atom_site_label_1
_geom_bond_atom_site_label_2
_geom_bond_distance
_geom_bond_site_symmetry_2
_ccdc_geom_bond_type
Tb0 N31 2.654 1_455 S
Tb0 N38 2.600 1_455 S
Tb0 O44 2.549 . S
Tb0 O45 2.612 1_565 S
Tb0 O47 2.315 1_465 S
Tb0 O48 2.556 1_565 S
Tb0 O49 2.412 1_455 S
Tb0 O51 2.359 1_455 S
Tb0 O52 2.426 . S
Tb0 C64 2.834 . S
C1 C4 1.432 . S
C1 C5 1.414 . S
C1 N8 1.359 . S
C2 C4 1.417 . S
C2 C6 1.432 . S
C2 C14 1.410 . S
C3 C5 1.444 . S
C3 C6 1.317 . S
C3 H26 0.929 . S
C4 C1 1.432 . S
C4 C2 1.417 . S
C4 N12 1.360 . S
C5 C1 1.414 . S
C5 C3 1.444 . S
C5 C10 1.423 . S
C6 C2 1.432 . S
C6 C3 1.317 . S
C6 H18 0.930 . S
C7 C9 1.392 . S
C7 C10 1.332 1_655 S
C7 H19 0.931 . S
N8 C1 1.359 . S
N8 C9 1.327 1_455 S
N8 Tb11 2.600 1_455 S
C9 C7 1.392 . S
C9 N8 1.327 1_655 S
C9 H16 0.930 . S
C10 C5 1.423 . S
C10 C7 1.332 1_455 S
C10 H29 0.929 . S
Tb11 N8 2.600 1_655 S
Tb11 N12 2.663 1_655 S
Tb11 O45 2.363 1_655 S
Tb11 O46 2.418 . S
Tb11 O50 2.544 . S
Tb11 O51 2.609 1_545 S
Tb11 O53 2.322 1_645 S
Tb11 O54 2.550 1_545 S
Tb11 O55 2.414 1_655 S
Tb11 C75 2.832 . S
N12 C4 1.360 . S
N12 Tb11 2.663 1_455 S
N12 C13 1.305 . S
C13 N12 1.305 . S
C13 C15 1.407 . S
C13 H20 0.930 . S
C14 C2 1.410 . S
C14 C15 1.345 . S
C14 H22 0.930 . S
C15 C13 1.407 . S
C15 C14 1.345 . S
C15 H17 0.930 . S
H16 C9 0.930 . S
H17 C15 0.930 . S
H18 C6 0.930 . S
H19 C7 0.931 . S
H20 C13 0.930 . S
H21 C35 0.930 . S
H22 C14 0.930 . S
H23 C41 0.930 . S
H24 C32 0.930 . S
H25 C39 0.931 . S
H26 C3 0.929 . S
H27 C33 0.930 . S
H28 C66 0.930 . S
H29 C10 0.929 . S
H30 C65 0.929 . S
N31 Tb0 2.654 1_655 S
N31 C32 1.305 . S
N31 C36 1.360 . S
C32 H24 0.930 . S
C32 N31 1.305 . S
C32 C35 1.407 . S
C33 H27 0.930 . S
C33 C34 1.410 . S
C33 C35 1.345 . S
C34 C33 1.410 . S
C34 C36 1.417 . S
C34 C66 1.432 . S
C35 H21 0.930 . S
C35 C32 1.407 . S
C35 C33 1.345 . S
C36 N31 1.360 . S
C36 C34 1.417 . S
C36 C40 1.432 . S
H37 C42 0.929 . S
N38 Tb0 2.600 1_655 S
N38 C40 1.359 . S
N38 C41 1.327 1_655 S
C39 H25 0.931 . S
C39 C41 1.392 . S
C39 C42 1.341 1_455 S
C40 C36 1.432 . S
C40 N38 1.359 . S
C40 C43 1.414 . S
C41 H23 0.930 . S
C41 N38 1.327 1_455 S
C41 C39 1.392 . S
C42 H37 0.929 . S
C42 C39 1.341 1_655 S
C42 C43 1.414 . S
C43 C40 1.414 . S
C43 C42 1.414 . S
C43 C65 1.444 . S
O44 Tb0 2.549 . S
O44 C64 1.251 . S
O45 Tb0 2.612 1_545 S
O45 Tb11 2.363 1_455 S
O45 C56 1.283 . S
O46 Tb11 2.418 . S
O46 C63 1.262 . S
O47 Tb0 2.315 1_645 S
O47 C63 1.260 . S
O48 Tb0 2.556 1_545 S
O48 C56 1.243 . S
O49 Tb0 2.412 1_655 S
O49 C64 1.256 1_655 S
O50 Tb11 2.544 . S
O50 C75 1.251 . S
O51 Tb0 2.359 1_655 S
O51 Tb11 2.609 1_565 S
O51 C67 1.283 . S
O52 Tb0 2.426 . S
O52 C74 1.262 . S
O53 Tb11 2.322 1_465 S
O53 C74 1.260 . S
O54 Tb11 2.550 1_565 S
O54 C67 1.243 . S
O55 Tb11 2.414 1_455 S
O55 C75 1.256 1_455 S
C56 O45 1.283 . S
C56 O48 1.243 . S
C57 C59 1.382 . S
C57 C61 1.393 . S
C57 C64 1.500 . S
C58 C59 1.400 . S
C58 C60 1.384 . S
C59 C57 1.382 . S
C59 C58 1.400 . S
C59 H76 0.930 1_465 S
C60 C58 1.384 . S
C60 C62 1.392 . S
C60 H77 0.931 . S
C61 C57 1.393 . S
C61 C62 1.401 . S
C61 H78 0.930 . S
C62 C60 1.392 . S
C62 C61 1.401 . S
C62 H79 0.930 . S
C63 O46 1.262 . S
C63 O47 1.260 . S
C64 Tb0 2.834 . S
C64 O44 1.251 . S
C64 O49 1.256 1_455 S
C64 C57 1.500 . S
C65 H30 0.929 . S
C65 C43 1.444 . S
C65 C66 1.317 . S
C66 H28 0.930 . S
C66 C34 1.432 . S
C66 C65 1.317 . S
C67 O51 1.283 . S
C67 O54 1.243 . S
C68 C69 1.382 . S
C68 C72 1.393 . S
C68 C75 1.500 . S
C69 C68 1.382 . S
C69 C70 1.400 . S
C69 H80 0.930 1_645 S
C70 C69 1.400 . S
C70 C71 1.384 . S
C71 C70 1.384 . S
C71 C73 1.392 . S
C71 H81 0.931 . S
C72 C68 1.393 . S
C72 C73 1.401 . S
C72 H82 0.930 . S
C73 C71 1.392 . S
C73 C72 1.401 . S
C73 H83 0.930 . S
C74 O52 1.262 . S
C74 O53 1.260 . S
C75 Tb11 2.832 . S
C75 O50 1.251 . S
C75 O55 1.256 1_655 S
C75 C68 1.500 . S
H76 C59 0.930 1_645 S
H77 C60 0.931 . S
H78 C61 0.930 . S
H79 C62 0.930 . S
H80 C69 0.930 1_465 S
H81 C71 0.931 . S
H82 C72 0.930 . S
H83 C73 0.930 . S
Tb84 N115 2.660 . S
Tb84 N122 2.600 . S
Tb84 O128 2.546 . S
Tb84 O129 2.610 . S
Tb84 O131 2.320 . S
Tb84 O132 2.552 . S
Tb84 O133 2.413 . S
Tb84 O135 2.362 . S
Tb84 O136 2.421 . S
Tb84 C148 2.833 . S
C85 C88 1.432 . S
C85 C89 1.414 . S
C85 N92 1.359 . S
C86 C88 1.417 . S
C86 C90 1.432 . S
C86 C98 1.410 . S
C87 C89 1.444 . S
C87 C90 1.317 . S
C87 H110 0.929 . S
C88 C85 1.432 . S
C88 C86 1.417 . S
C88 N96 1.360 . S
C89 C85 1.414 . S
C89 C87 1.444 . S
C89 C94 1.385 . S
C90 C86 1.432 . S
C90 C87 1.317 . S
C90 H102 0.930 . S
C91 C93 1.392 . S
C91 C94 1.370 . S
C91 H103 0.931 . S
N92 C85 1.359 . S
N92 C93 1.327 . S
N92 Tb95 2.600 . S
C93 C91 1.392 . S
C93 N92 1.327 . S
C93 H100 0.930 . S
C94 C89 1.385 . S
C94 C91 1.370 . S
C94 H113 0.930 . S
Tb95 N92 2.600 . S
Tb95 N96 2.660 . S
Tb95 O129 2.362 . S
Tb95 O130 2.421 . S
Tb95 O134 2.546 . S
Tb95 O135 2.610 . S
Tb95 O137 2.320 . S
Tb95 O138 2.552 . S
Tb95 O139 2.413 . S
Tb95 C159 2.833 . S
N96 C88 1.360 . S
N96 Tb95 2.660 . S
N96 C97 1.305 . S
C97 N96 1.305 . S
C97 C99 1.407 . S
C97 H104 0.930 . S
C98 C86 1.410 . S
C98 C99 1.345 . S
C98 H106 0.930 . S
C99 C97 1.407 . S
C99 C98 1.345 . S
C99 H101 0.930 . S
H100 C93 0.930 . S
H101 C99 0.930 . S
H102 C90 0.930 . S
H103 C91 0.931 . S
H104 C97 0.930 . S
H105 C119 0.930 . S
H106 C98 0.930 . S
H107 C125 0.930 . S
H108 C116 0.930 . S
H109 C123 0.931 . S
H110 C87 0.929 . S
H111 C117 0.930 . S
H112 C150 0.930 . S
H113 C94 0.930 . S
H114 C149 0.929 . S
N115 Tb84 2.660 . S
N115 C116 1.305 . S
N115 C120 1.360 . S
C116 H108 0.930 . S
C116 N115 1.305 . S
C116 C119 1.407 . S
C117 H111 0.930 . S
C117 C118 1.410 . S
C117 C119 1.345 . S
C118 C117 1.410 . S
C118 C120 1.417 . S
C118 C150 1.432 . S
C119 H105 0.930 . S
C119 C116 1.407 . S
C119 C117 1.345 . S
C120 N115 1.360 . S
C120 C118 1.417 . S
C120 C124 1.432 . S
H121 C126 0.930 . S
N122 Tb84 2.600 . S
N122 C124 1.359 . S
N122 C125 1.327 . S
C123 H109 0.931 . S
C123 C125 1.392 . S
C123 C126 1.370 . S
C124 C120 1.432 . S
C124 N122 1.359 . S
C124 C127 1.414 . S
C125 H107 0.930 . S
C125 N122 1.327 . S
C125 C123 1.392 . S
C126 H121 0.930 . S
C126 C123 1.370 . S
C126 C127 1.385 . S
C127 C124 1.414 . S
C127 C126 1.385 . S
C127 C149 1.444 . S
O128 Tb84 2.546 . S
O128 C148 1.251 . S
O129 Tb84 2.610 . S
O129 Tb95 2.362 . S
O129 C140 1.283 . S
O130 Tb95 2.421 . S
O130 C147 1.262 . S
O131 Tb84 2.320 . S
O131 C147 1.260 . S
O132 Tb84 2.552 . S
O132 C140 1.243 . S
O133 Tb84 2.413 . S
O133 C148 1.256 . S
O134 Tb95 2.546 . S
O134 C159 1.251 . S
O135 Tb84 2.362 . S
O135 Tb95 2.610 . S
O135 C151 1.283 . S
O136 Tb84 2.421 . S
O136 C158 1.262 . S
O137 Tb95 2.320 . S
O137 C158 1.260 . S
O138 Tb95 2.552 . S
O138 C151 1.243 . S
O139 Tb95 2.413 . S
O139 C159 1.256 . S
C140 O129 1.283 . S
C140 O132 1.243 . S
C141 C143 1.382 . S
C141 C145 1.393 . S
C141 C148 1.500 . S
C142 C143 1.400 . S
C142 C144 1.384 . S
C143 C141 1.382 . S
C143 C142 1.400 . S
C143 H160 0.930 . S
C144 C142 1.384 . S
C144 C146 1.392 . S
C144 H161 0.931 . S
C145 C141 1.393 . S
C145 C146 1.401 . S
C145 H162 0.930 . S
C146 C144 1.392 . S
C146 C145 1.401 . S
C146 H163 0.930 . S
C147 O130 1.262 . S
C147 O131 1.260 . S
C148 Tb84 2.833 . S
C148 O128 1.251 . S
C148 O133 1.256 . S
C148 C141 1.500 . S
C149 H114 0.929 . S
C149 C127 1.444 . S
C149 C150 1.317 . S
C150 H112 0.930 . S
C150 C118 1.432 . S
C150 C149 1.317 . S
C151 O135 1.283 . S
C151 O138 1.243 . S
C152 C153 1.382 . S
C152 C156 1.393 . S
C152 C159 1.500 . S
C153 C152 1.382 . S
C153 C154 1.400 1_556 S
C153 H164 0.930 . S
C154 C153 1.400 1_554 S
C154 C155 1.384 . S
C155 C154 1.384 . S
C155 C157 1.392 . S
C155 H165 0.931 . S
C156 C152 1.393 . S
C156 C157 1.401 1_556 S
C156 H166 0.930 . S
C157 C155 1.392 . S
C157 C156 1.401 1_554 S
C157 H167 0.930 . S
C158 O136 1.262 . S
C158 O137 1.260 . S
C159 Tb95 2.833 . S
C159 O134 1.251 . S
C159 O139 1.256 . S
C159 C152 1.500 . S
H160 C143 0.930 . S
H161 C144 0.931 . S
H162 C145 0.930 . S
H163 C146 0.930 . S
H164 C153 0.930 . S
H165 C155 0.931 . S
H166 C156 0.930 . S
H167 C157 0.930 . S
Tb168 N199 2.660 . S
Tb168 N206 2.600 . S
Tb168 O212 2.546 . S
Tb168 O213 2.610 1_565 S
Tb168 O215 2.320 1_565 S
Tb168 O216 2.552 1_565 S
Tb168 O217 2.413 . S
Tb168 O219 2.362 1_554 S
Tb168 O220 2.421 . S
Tb168 C232 2.833 . S
C169 C172 1.432 . S
C169 C173 1.414 . S
C169 N176 1.359 . S
C170 C172 1.417 . S
C170 C174 1.432 . S
C170 C182 1.410 . S
C171 C173 1.444 . S
C171 C174 1.317 . S
C171 H194 0.929 . S
C172 C169 1.432 . S
C172 C170 1.417 . S
C172 N180 1.360 . S
C173 C169 1.414 . S
C173 C171 1.444 . S
C173 C178 1.385 . S
C174 C170 1.432 . S
C174 C171 1.317 . S
C174 H186 0.930 . S
C175 C177 1.392 . S
C175 C178 1.370 . S
C175 H187 0.931 . S
N176 C169 1.359 . S
N176 C177 1.327 . S
N176 Tb179 2.600 . S
C177 C175 1.392 . S
C177 N176 1.327 . S
C177 H184 0.930 . S
C178 C173 1.385 . S
C178 C175 1.370 . S
C178 H197 0.930 . S
Tb179 N176 2.600 . S
Tb179 N180 2.660 . S
Tb179 O213 2.362 1_556 S
Tb179 O214 2.421 . S
Tb179 O218 2.546 . S
Tb179 O219 2.610 1_545 S
Tb179 O221 2.320 1_545 S
Tb179 O222 2.552 1_545 S
Tb179 O223 2.413 . S
Tb179 C243 2.833 . S
N180 C172 1.360 . S
N180 Tb179 2.660 . S
N180 C181 1.305 . S
C181 N180 1.305 . S
C181 C183 1.407 . S
C181 H188 0.930 . S
C182 C170 1.410 . S
C182 C183 1.345 . S
C182 H190 0.930 . S
C183 C181 1.407 . S
C183 C182 1.345 . S
C183 H185 0.930 . S
H184 C177 0.930 . S
H185 C183 0.930 . S
H186 C174 0.930 . S
H187 C175 0.931 . S
H188 C181 0.930 . S
H189 C203 0.930 . S
H190 C182 0.930 . S
H191 C209 0.930 . S
H192 C200 0.930 . S
H193 C207 0.931 . S
H194 C171 0.929 . S
H195 C201 0.930 . S
H196 C234 0.930 . S
H197 C178 0.930 . S
H198 C233 0.929 . S
N199 Tb168 2.660 . S
N199 C200 1.305 . S
N199 C204 1.360 . S
C200 H192 0.930 . S
C200 N199 1.305 . S
C200 C203 1.407 . S
C201 H195 0.930 . S
C201 C202 1.410 . S
C201 C203 1.345 . S
C202 C201 1.410 . S
C202 C204 1.417 . S
C202 C234 1.432 . S
C203 H189 0.930 . S
C203 C200 1.407 . S
C203 C201 1.345 . S
C204 N199 1.360 . S
C204 C202 1.417 . S
C204 C208 1.432 . S
H205 C210 0.930 . S
N206 Tb168 2.600 . S
N206 C208 1.359 . S
N206 C209 1.327 . S
C207 H193 0.931 . S
C207 C209 1.392 . S
C207 C210 1.370 . S
C208 C204 1.432 . S
C208 N206 1.359 . S
C208 C211 1.414 . S
C209 H191 0.930 . S
C209 N206 1.327 . S
C209 C207 1.392 . S
C210 H205 0.930 . S
C210 C207 1.370 . S
C210 C211 1.385 . S
C211 C208 1.414 . S
C211 C210 1.385 . S
C211 C233 1.444 . S
O212 Tb168 2.546 . S
O212 C232 1.251 . S
O213 Tb168 2.610 1_545 S
O213 Tb179 2.362 1_554 S
O213 C224 1.283 . S
O214 Tb179 2.421 . S
O214 C231 1.262 1_556 S
O215 Tb168 2.320 1_545 S
O215 C231 1.260 . S
O216 Tb168 2.552 1_545 S
O216 C224 1.243 . S
O217 Tb168 2.413 . S
O217 C232 1.256 . S
O218 Tb179 2.546 . S
O218 C243 1.251 . S
O219 Tb168 2.362 1_556 S
O219 Tb179 2.610 1_565 S
O219 C235 1.283 . S
O220 Tb168 2.421 . S
O220 C242 1.262 1_554 S
O221 Tb179 2.320 1_565 S
O221 C242 1.260 . S
O222 Tb179 2.552 1_565 S
O222 C235 1.243 . S
O223 Tb179 2.413 . S
O223 C243 1.256 . S
C224 O213 1.283 . S
C224 O216 1.243 . S
C225 C227 1.382 . S
C225 C229 1.393 . S
C225 C232 1.500 . S
C226 C227 1.400 . S
C226 C228 1.384 . S
C227 C225 1.382 . S
C227 C226 1.400 . S
C227 H244 0.930 1_565 S
C228 C226 1.384 . S
C228 C230 1.392 . S
C228 H245 0.931 . S
C229 C225 1.393 . S
C229 C230 1.401 . S
C229 H246 0.930 . S
C230 C228 1.392 . S
C230 C229 1.401 . S
C230 H247 0.930 . S
C231 O214 1.262 1_554 S
C231 O215 1.260 . S
C232 Tb168 2.833 . S
C232 O212 1.251 . S
C232 O217 1.256 . S
C232 C225 1.500 . S
C233 H198 0.929 . S
C233 C211 1.444 . S
C233 C234 1.317 . S
C234 H196 0.930 . S
C234 C202 1.432 . S
C234 C233 1.317 . S
C235 O219 1.283 . S
C235 O222 1.243 . S
C236 C237 1.382 . S
C236 C240 1.393 . S
C236 C243 1.500 . S
C237 C236 1.382 . S
C237 C238 1.400 . S
C237 H248 0.930 1_545 S
C238 C237 1.400 . S
C238 C239 1.384 . S
C239 C238 1.384 . S
C239 C241 1.392 . S
C239 H249 0.931 . S
C240 C236 1.393 . S
C240 C241 1.401 . S
C240 H250 0.930 . S
C241 C239 1.392 . S
C241 C240 1.401 . S
C241 H251 0.930 . S
C242 O220 1.262 1_556 S
C242 O221 1.260 . S
C243 Tb179 2.833 . S
C243 O218 1.251 . S
C243 O223 1.256 . S
C243 C236 1.500 . S
H244 C227 0.930 1_545 S
H245 C228 0.931 . S
H246 C229 0.930 . S
H247 C230 0.930 . S
H248 C237 0.930 1_565 S
H249 C239 0.931 . S
H250 C240 0.930 . S
H251 C241 0.930 . S
Tb252 N283 2.660 . S
Tb252 N290 2.600 . S
Tb252 O296 2.546 . S
Tb252 O297 2.610 . S
Tb252 O299 2.320 . S
Tb252 O300 2.552 . S
Tb252 O301 2.413 . S
Tb252 O303 2.362 . S
Tb252 O304 2.421 . S
Tb252 C316 2.833 . S
C253 C256 1.432 . S
C253 C257 1.414 . S
C253 N260 1.359 . S
C254 C256 1.417 . S
C254 C258 1.432 . S
C254 C266 1.410 . S
C255 C257 1.444 . S
C255 C258 1.317 . S
C255 H278 0.929 . S
C256 C253 1.432 . S
C256 C254 1.417 . S
C256 N264 1.360 . S
C257 C253 1.414 . S
C257 C255 1.444 . S
C257 C262 1.385 . S
C258 C254 1.432 . S
C258 C255 1.317 . S
C258 H270 0.930 . S
C259 C261 1.392 . S
C259 C262 1.370 . S
C259 H271 0.931 . S
N260 C253 1.359 . S
N260 C261 1.327 . S
N260 Tb263 2.600 . S
C261 C259 1.392 . S
C261 N260 1.327 . S
C261 H268 0.930 . S
C262 C257 1.385 . S
C262 C259 1.370 . S
C262 H281 0.930 . S
Tb263 N260 2.600 . S
Tb263 N264 2.660 . S
Tb263 O297 2.362 . S
Tb263 O298 2.421 . S
Tb263 O302 2.546 . S
Tb263 O303 2.610 . S
Tb263 O305 2.320 . S
Tb263 O306 2.552 . S
Tb263 O307 2.413 . S
Tb263 C327 2.833 . S
N264 C256 1.360 . S
N264 Tb263 2.660 . S
N264 C265 1.305 . S
C265 N264 1.305 . S
C265 C267 1.407 . S
C265 H272 0.930 . S
C266 C254 1.410 . S
C266 C267 1.345 . S
C266 H274 0.930 . S
C267 C265 1.407 . S
C267 C266 1.345 . S
C267 H269 0.930 . S
H268 C261 0.930 . S
H269 C267 0.930 . S
H270 C258 0.930 . S
H271 C259 0.931 . S
H272 C265 0.930 . S
H273 C287 0.930 . S
H274 C266 0.930 . S
H275 C293 0.930 . S
H276 C284 0.930 . S
H277 C291 0.931 . S
H278 C255 0.929 . S
H279 C285 0.930 . S
H280 C318 0.930 . S
H281 C262 0.930 . S
H282 C317 0.929 . S
N283 Tb252 2.660 . S
N283 C284 1.305 . S
N283 C288 1.360 . S
C284 H276 0.930 . S
C284 N283 1.305 . S
C284 C287 1.407 . S
C285 H279 0.930 . S
C285 C286 1.410 . S
C285 C287 1.345 . S
C286 C285 1.410 . S
C286 C288 1.417 . S
C286 C318 1.432 . S
C287 H273 0.930 . S
C287 C284 1.407 . S
C287 C285 1.345 . S
C288 N283 1.360 . S
C288 C286 1.417 . S
C288 C292 1.432 . S
H289 C294 0.930 . S
N290 Tb252 2.600 . S
N290 C292 1.359 . S
N290 C293 1.327 . S
C291 H277 0.931 . S
C291 C293 1.392 . S
C291 C294 1.370 . S
C292 C288 1.432 . S
C292 N290 1.359 . S
C292 C295 1.414 . S
C293 H275 0.930 . S
C293 N290 1.327 . S
C293 C291 1.392 . S
C294 H289 0.930 . S
C294 C291 1.370 . S
C294 C295 1.385 . S
C295 C292 1.414 . S
C295 C294 1.385 . S
C295 C317 1.444 . S
O296 Tb252 2.546 . S
O296 C316 1.251 . S
O297 Tb252 2.610 . S
O297 Tb263 2.362 . S
O297 C308 1.283 . S
O298 Tb263 2.421 . S
O298 C315 1.262 . S
O299 Tb252 2.320 . S
O299 C315 1.260 . S
O300 Tb252 2.552 . S
O300 C308 1.243 . S
O301 Tb252 2.413 . S
O301 C316 1.256 . S
O302 Tb263 2.546 . S
O302 C327 1.251 . S
O303 Tb252 2.362 . S
O303 Tb263 2.610 . S
O303 C319 1.283 . S
O304 Tb252 2.421 . S
O304 C326 1.262 . S
O305 Tb263 2.320 . S
O305 C326 1.260 . S
O306 Tb263 2.552 . S
O306 C319 1.243 . S
O307 Tb263 2.413 . S
O307 C327 1.256 . S
C308 O297 1.283 . S
C308 O300 1.243 . S
C309 C311 1.382 . S
C309 C313 1.393 . S
C309 C316 1.500 . S
C310 C311 1.400 . S
C310 C312 1.384 . S
C311 C309 1.382 . S
C311 C310 1.400 . S
C311 H328 0.930 . S
C312 C310 1.384 . S
C312 C314 1.392 . S
C312 H329 0.931 . S
C313 C309 1.393 . S
C313 C314 1.401 . S
C313 H330 0.930 . S
C314 C312 1.392 . S
C314 C313 1.401 . S
C314 H331 0.930 . S
C315 O298 1.262 . S
C315 O299 1.260 . S
C316 Tb252 2.833 . S
C316 O296 1.251 . S
C316 O301 1.256 . S
C316 C309 1.500 . S
C317 H282 0.929 . S
C317 C295 1.444 . S
C317 C318 1.317 . S
C318 H280 0.930 . S
C318 C286 1.432 . S
C318 C317 1.317 . S
C319 O303 1.283 . S
C319 O306 1.243 . S
C320 C321 1.382 . S
C320 C324 1.393 . S
C320 C327 1.500 . S
C321 C320 1.382 . S
C321 C322 1.400 1_554 S
C321 H332 0.930 . S
C322 C321 1.400 1_556 S
C322 C323 1.384 . S
C323 C322 1.384 . S
C323 C325 1.392 . S
C323 H333 0.931 . S
C324 C320 1.393 . S
C324 C325 1.401 1_554 S
C324 H334 0.930 . S
C325 C323 1.392 . S
C325 C324 1.401 1_556 S
C325 H335 0.930 . S
C326 O304 1.262 . S
C326 O305 1.260 . S
C327 Tb263 2.833 . S
C327 O302 1.251 . S
C327 O307 1.256 . S
C327 C320 1.500 . S
H328 C311 0.930 . S
H329 C312 0.931 . S
H330 C313 0.930 . S
H331 C314 0.930 . S
H332 C321 0.930 . S
H333 C323 0.931 . S
H334 C324 0.930 . S
H335 C325 0.930 . S
Tb336 N367 2.660 . S
Tb336 N374 2.600 . S
Tb336 O380 2.546 . S
Tb336 O381 2.610 . S
Tb336 O383 2.320 . S
Tb336 O384 2.552 . S
Tb336 O385 2.413 . S
Tb336 O387 2.362 . S
Tb336 O388 2.421 . S
Tb336 C400 2.833 . S
C337 C340 1.432 . S
C337 C341 1.414 . S
C337 N344 1.359 . S
C338 C340 1.417 . S
C338 C342 1.432 . S
C338 C350 1.410 . S
C339 C341 1.444 . S
C339 C342 1.317 . S
C339 H362 0.929 . S
C340 C337 1.432 . S
C340 C338 1.417 . S
C340 N348 1.360 . S
C341 C337 1.414 . S
C341 C339 1.444 . S
C341 C346 1.385 . S
C342 C338 1.432 . S
C342 C339 1.317 . S
C342 H354 0.930 . S
C343 C345 1.392 . S
C343 C346 1.370 . S
C343 H355 0.931 . S
N344 C337 1.359 . S
N344 C345 1.327 . S
N344 Tb347 2.600 . S
C345 C343 1.392 . S
C345 N344 1.327 . S
C345 H352 0.930 . S
C346 C341 1.385 . S
C346 C343 1.370 . S
C346 H365 0.930 . S
Tb347 N344 2.600 . S
Tb347 N348 2.660 . S
Tb347 O381 2.362 . S
Tb347 O382 2.421 . S
Tb347 O386 2.546 . S
Tb347 O387 2.610 . S
Tb347 O389 2.320 . S
Tb347 O390 2.552 . S
Tb347 O391 2.413 . S
Tb347 C411 2.833 . S
N348 C340 1.360 . S
N348 Tb347 2.660 . S
N348 C349 1.305 . S
C349 N348 1.305 . S
C349 C351 1.407 . S
C349 H356 0.930 . S
C350 C338 1.410 . S
C350 C351 1.345 . S
C350 H358 0.930 . S
C351 C349 1.407 . S
C351 C350 1.345 . S
C351 H353 0.930 . S
H352 C345 0.930 . S
H353 C351 0.930 . S
H354 C342 0.930 . S
H355 C343 0.931 . S
H356 C349 0.930 . S
H357 C371 0.930 . S
H358 C350 0.930 . S
H359 C377 0.930 . S
H360 C368 0.930 . S
H361 C375 0.931 . S
H362 C339 0.929 . S
H363 C369 0.930 . S
H364 C402 0.930 . S
H365 C346 0.930 . S
H366 C401 0.929 . S
N367 Tb336 2.660 . S
N367 C368 1.305 . S
N367 C372 1.360 . S
C368 H360 0.930 . S
C368 N367 1.305 . S
C368 C371 1.407 . S
C369 H363 0.930 . S
C369 C370 1.410 . S
C369 C371 1.345 . S
C370 C369 1.410 . S
C370 C372 1.417 . S
C370 C402 1.432 . S
C371 H357 0.930 . S
C371 C368 1.407 . S
C371 C369 1.345 . S
C372 N367 1.360 . S
C372 C370 1.417 . S
C372 C376 1.432 . S
H373 C378 0.930 . S
N374 Tb336 2.600 . S
N374 C376 1.359 . S
N374 C377 1.327 . S
C375 H361 0.931 . S
C375 C377 1.392 . S
C375 C378 1.370 . S
C376 C372 1.432 . S
C376 N374 1.359 . S
C376 C379 1.414 . S
C377 H359 0.930 . S
C377 N374 1.327 . S
C377 C375 1.392 . S
C378 H373 0.930 . S
C378 C375 1.370 . S
C378 C379 1.385 . S
C379 C376 1.414 . S
C379 C378 1.385 . S
C379 C401 1.444 . S
O380 Tb336 2.546 . S
O380 C400 1.251 . S
O381 Tb336 2.610 . S
O381 Tb347 2.362 . S
O381 C392 1.283 . S
O382 Tb347 2.421 . S
O382 C399 1.262 . S
O383 Tb336 2.320 . S
O383 C399 1.260 . S
O384 Tb336 2.552 . S
O384 C392 1.243 . S
O385 Tb336 2.413 . S
O385 C400 1.256 . S
O386 Tb347 2.546 . S
O386 C411 1.251 . S
O387 Tb336 2.362 . S
O387 Tb347 2.610 . S
O387 C403 1.283 . S
O388 Tb336 2.421 . S
O388 C410 1.262 . S
O389 Tb347 2.320 . S
O389 C410 1.260 . S
O390 Tb347 2.552 . S
O390 C403 1.243 . S
O391 Tb347 2.413 . S
O391 C411 1.256 . S
C392 O381 1.283 . S
C392 O384 1.243 . S
C393 C395 1.382 . S
C393 C397 1.393 . S
C393 C400 1.500 . S
C394 C395 1.400 1_556 S
C394 C396 1.384 . S
C395 C393 1.382 . S
C395 C394 1.400 1_554 S
C395 H412 0.930 . S
C396 C394 1.384 . S
C396 C398 1.392 . S
C396 H413 0.931 . S
C397 C393 1.393 . S
C397 C398 1.401 1_554 S
C397 H414 0.930 . S
C398 C396 1.392 . S
C398 C397 1.401 1_556 S
C398 H415 0.930 . S
C399 O382 1.262 . S
C399 O383 1.260 . S
C400 Tb336 2.833 . S
C400 O380 1.251 . S
C400 O385 1.256 . S
C400 C393 1.500 . S
C401 H366 0.929 . S
C401 C379 1.444 . S
C401 C402 1.317 . S
C402 H364 0.930 . S
C402 C370 1.432 . S
C402 C401 1.317 . S
C403 O387 1.283 . S
C403 O390 1.243 . S
C404 C405 1.382 . S
C404 C408 1.393 . S
C404 C411 1.500 . S
C405 C404 1.382 . S
C405 C406 1.400 . S
C405 H416 0.930 . S
C406 C405 1.400 . S
C406 C407 1.384 . S
C407 C406 1.384 . S
C407 C409 1.392 . S
C407 H417 0.931 . S
C408 C404 1.393 . S
C408 C409 1.401 . S
C408 H418 0.930 . S
C409 C407 1.392 . S
C409 C408 1.401 . S
C409 H419 0.930 . S
C410 O388 1.262 . S
C410 O389 1.260 . S
C411 Tb347 2.833 . S
C411 O386 1.251 . S
C411 O391 1.256 . S
C411 C404 1.500 . S
H412 C395 0.930 . S
H413 C396 0.931 . S
H414 C397 0.930 . S
H415 C398 0.930 . S
H416 C405 0.930 . S
H417 C407 0.931 . S
H418 C408 0.930 . S
H419 C409 0.930 . S
Tb420 N451 2.660 . S
Tb420 N458 2.600 . S
Tb420 O464 2.546 . S
Tb420 O465 2.610 . S
Tb420 O467 2.320 . S
Tb420 O468 2.552 . S
Tb420 O469 2.413 . S
Tb420 O471 2.362 . S
Tb420 O472 2.421 . S
Tb420 C484 2.833 . S
C421 C424 1.432 . S
C421 C425 1.414 . S
C421 N428 1.359 . S
C422 C424 1.417 . S
C422 C426 1.432 . S
C422 C434 1.410 . S
C423 C425 1.444 . S
C423 C426 1.317 . S
C423 H446 0.929 . S
C424 C421 1.432 . S
C424 C422 1.417 . S
C424 N432 1.360 . S
C425 C421 1.414 . S
C425 C423 1.444 . S
C425 C430 1.385 . S
C426 C422 1.432 . S
C426 C423 1.317 . S
C426 H438 0.930 . S
C427 C429 1.392 . S
C427 C430 1.370 . S
C427 H439 0.931 . S
N428 C421 1.359 . S
N428 C429 1.327 . S
N428 Tb431 2.600 . S
C429 C427 1.392 . S
C429 N428 1.327 . S
C429 H436 0.930 . S
C430 C425 1.385 . S
C430 C427 1.370 . S
C430 H449 0.930 . S
Tb431 N428 2.600 . S
Tb431 N432 2.660 . S
Tb431 O465 2.362 . S
Tb431 O466 2.421 . S
Tb431 O470 2.546 . S
Tb431 O471 2.610 . S
Tb431 O473 2.320 . S
Tb431 O474 2.552 . S
Tb431 O475 2.413 . S
Tb431 C495 2.833 . S
N432 C424 1.360 . S
N432 Tb431 2.660 . S
N432 C433 1.305 . S
C433 N432 1.305 . S
C433 C435 1.407 . S
C433 H440 0.930 . S
C434 C422 1.410 . S
C434 C435 1.345 . S
C434 H442 0.930 . S
C435 C433 1.407 . S
C435 C434 1.345 . S
C435 H437 0.930 . S
H436 C429 0.930 . S
H437 C435 0.930 . S
H438 C426 0.930 . S
H439 C427 0.931 . S
H440 C433 0.930 . S
H441 C455 0.930 . S
H442 C434 0.930 . S
H443 C461 0.930 . S
H444 C452 0.930 . S
H445 C459 0.931 . S
H446 C423 0.929 . S
H447 C453 0.930 . S
H448 C486 0.930 . S
H449 C430 0.930 . S
H450 C485 0.929 . S
N451 Tb420 2.660 . S
N451 C452 1.305 . S
N451 C456 1.360 . S
C452 H444 0.930 . S
C452 N451 1.305 . S
C452 C455 1.407 . S
C453 H447 0.930 . S
C453 C454 1.410 . S
C453 C455 1.345 . S
C454 C453 1.410 . S
C454 C456 1.417 . S
C454 C486 1.432 . S
C455 H441 0.930 . S
C455 C452 1.407 . S
C455 C453 1.345 . S
C456 N451 1.360 . S
C456 C454 1.417 . S
C456 C460 1.432 . S
H457 C462 0.930 . S
N458 Tb420 2.600 . S
N458 C460 1.359 . S
N458 C461 1.327 . S
C459 H445 0.931 . S
C459 C461 1.392 . S
C459 C462 1.370 . S
C460 C456 1.432 . S
C460 N458 1.359 . S
C460 C463 1.414 . S
C461 H443 0.930 . S
C461 N458 1.327 . S
C461 C459 1.392 . S
C462 H457 0.930 . S
C462 C459 1.370 . S
C462 C463 1.385 . S
C463 C460 1.414 . S
C463 C462 1.385 . S
C463 C485 1.444 . S
O464 Tb420 2.546 . S
O464 C484 1.251 . S
O465 Tb420 2.610 . S
O465 Tb431 2.362 . S
O465 C476 1.283 . S
O466 Tb431 2.421 . S
O466 C483 1.262 . S
O467 Tb420 2.320 . S
O467 C483 1.260 . S
O468 Tb420 2.552 . S
O468 C476 1.243 . S
O469 Tb420 2.413 . S
O469 C484 1.256 . S
O470 Tb431 2.546 . S
O470 C495 1.251 . S
O471 Tb420 2.362 . S
O471 Tb431 2.610 . S
O471 C487 1.283 . S
O472 Tb420 2.421 . S
O472 C494 1.262 . S
O473 Tb431 2.320 . S
O473 C494 1.260 . S
O474 Tb431 2.552 . S
O474 C487 1.243 . S
O475 Tb431 2.413 . S
O475 C495 1.256 . S
C476 O465 1.283 . S
C476 O468 1.243 . S
C477 C479 1.382 . S
C477 C481 1.393 . S
C477 C484 1.500 . S
C478 C479 1.400 1_554 S
C478 C480 1.384 . S
C479 C477 1.382 . S
C479 C478 1.400 1_556 S
C479 H496 0.930 . S
C480 C478 1.384 . S
C480 C482 1.392 . S
C480 H497 0.931 . S
C481 C477 1.393 . S
C481 C482 1.401 1_556 S
C481 H498 0.930 . S
C482 C480 1.392 . S
C482 C481 1.401 1_554 S
C482 H499 0.930 . S
C483 O466 1.262 . S
C483 O467 1.260 . S
C484 Tb420 2.833 . S
C484 O464 1.251 . S
C484 O469 1.256 . S
C484 C477 1.500 . S
C485 H450 0.929 . S
C485 C463 1.444 . S
C485 C486 1.317 . S
C486 H448 0.930 . S
C486 C454 1.432 . S
C486 C485 1.317 . S
C487 O471 1.283 . S
C487 O474 1.243 . S
C488 C489 1.382 . S
C488 C492 1.393 . S
C488 C495 1.500 . S
C489 C488 1.382 . S
C489 C490 1.400 . S
C489 H500 0.930 . S
C490 C489 1.400 . S
C490 C491 1.384 . S
C491 C490 1.384 . S
C491 C493 1.392 . S
C491 H501 0.931 . S
C492 C488 1.393 . S
C492 C493 1.401 . S
C492 H502 0.930 . S
C493 C491 1.392 . S
C493 C492 1.401 . S
C493 H503 0.930 . S
C494 O472 1.262 . S
C494 O473 1.260 . S
C495 Tb431 2.833 . S
C495 O470 1.251 . S
C495 O475 1.256 . S
C495 C488 1.500 . S
H496 C479 0.930 . S
H497 C480 0.931 . S
H498 C481 0.930 . S
H499 C482 0.930 . S
H500 C489 0.930 . S
H501 C491 0.931 . S
H502 C492 0.930 . S
H503 C493 0.930 . S
Tb504 N535 2.660 . S
Tb504 N542 2.600 . S
Tb504 O548 2.546 . S
Tb504 O549 2.610 . S
Tb504 O551 2.320 . S
Tb504 O552 2.552 . S
Tb504 O553 2.413 . S
Tb504 O555 2.362 1_556 S
Tb504 O556 2.421 . S
Tb504 C568 2.833 . S
C505 C508 1.432 . S
C505 C509 1.414 . S
C505 N512 1.359 . S
C506 C508 1.417 . S
C506 C510 1.432 . S
C506 C518 1.410 . S
C507 C509 1.444 . S
C507 C510 1.317 . S
C507 H530 0.929 . S
C508 C505 1.432 . S
C508 C506 1.417 . S
C508 N516 1.360 . S
C509 C505 1.414 . S
C509 C507 1.444 . S
C509 C514 1.385 . S
C510 C506 1.432 . S
C510 C507 1.317 . S
C510 H522 0.930 . S
C511 C513 1.392 . S
C511 C514 1.370 . S
C511 H523 0.931 . S
N512 C505 1.359 . S
N512 C513 1.327 . S
N512 Tb515 2.600 . S
C513 C511 1.392 . S
C513 N512 1.327 . S
C513 H520 0.930 . S
C514 C509 1.385 . S
C514 C511 1.370 . S
C514 H533 0.930 . S
Tb515 N512 2.600 . S
Tb515 N516 2.660 . S
Tb515 O549 2.362 1_554 S
Tb515 O550 2.421 . S
Tb515 O554 2.546 . S
Tb515 O555 2.610 . S
Tb515 O557 2.320 . S
Tb515 O558 2.552 . S
Tb515 O559 2.413 . S
Tb515 C579 2.833 . S
N516 C508 1.360 . S
N516 Tb515 2.660 . S
N516 C517 1.305 . S
C517 N516 1.305 . S
C517 C519 1.407 . S
C517 H524 0.930 . S
C518 C506 1.410 . S
C518 C519 1.345 . S
C518 H526 0.930 . S
C519 C517 1.407 . S
C519 C518 1.345 . S
C519 H521 0.930 . S
H520 C513 0.930 . S
H521 C519 0.930 . S
H522 C510 0.930 . S
H523 C511 0.931 . S
H524 C517 0.930 . S
H525 C539 0.930 . S
H526 C518 0.930 . S
H527 C545 0.930 . S
H528 C536 0.930 . S
H529 C543 0.931 . S
H530 C507 0.929 . S
H531 C537 0.930 . S
H532 C570 0.930 . S
H533 C514 0.930 . S
H534 C569 0.929 . S
N535 Tb504 2.660 . S
N535 C536 1.305 . S
N535 C540 1.360 . S
C536 H528 0.930 . S
C536 N535 1.305 . S
C536 C539 1.407 . S
C537 H531 0.930 . S
C537 C538 1.410 . S
C537 C539 1.345 . S
C538 C537 1.410 . S
C538 C540 1.417 . S
C538 C570 1.432 . S
C539 H525 0.930 . S
C539 C536 1.407 . S
C539 C537 1.345 . S
C540 N535 1.360 . S
C540 C538 1.417 . S
C540 C544 1.432 . S
H541 C546 0.930 . S
N542 Tb504 2.600 . S
N542 C544 1.359 . S
N542 C545 1.327 . S
C543 H529 0.931 . S
C543 C545 1.392 . S
C543 C546 1.370 . S
C544 C540 1.432 . S
C544 N542 1.359 . S
C544 C547 1.414 . S
C545 H527 0.930 . S
C545 N542 1.327 . S
C545 C543 1.392 . S
C546 H541 0.930 . S
C546 C543 1.370 . S
C546 C547 1.385 . S
C547 C544 1.414 . S
C547 C546 1.385 . S
C547 C569 1.444 . S
O548 Tb504 2.546 . S
O548 C568 1.251 . S
O549 Tb504 2.610 . S
O549 Tb515 2.362 1_556 S
O549 C560 1.283 . S
O550 Tb515 2.421 . S
O550 C567 1.262 1_554 S
O551 Tb504 2.320 . S
O551 C567 1.260 . S
O552 Tb504 2.552 . S
O552 C560 1.243 . S
O553 Tb504 2.413 . S
O553 C568 1.256 . S
O554 Tb515 2.546 . S
O554 C579 1.251 . S
O555 Tb504 2.362 1_554 S
O555 Tb515 2.610 . S
O555 C571 1.283 . S
O556 Tb504 2.421 . S
O556 C578 1.262 1_556 S
O557 Tb515 2.320 . S
O557 C578 1.260 . S
O558 Tb515 2.552 . S
O558 C571 1.243 . S
O559 Tb515 2.413 . S
O559 C579 1.256 . S
C560 O549 1.283 . S
C560 O552 1.243 . S
C561 C563 1.382 . S
C561 C565 1.393 . S
C561 C568 1.500 . S
C562 C563 1.400 . S
C562 C564 1.384 . S
C563 C561 1.382 . S
C563 C562 1.400 . S
C563 H580 0.930 . S
C564 C562 1.384 . S
C564 C566 1.392 . S
C564 H581 0.931 . S
C565 C561 1.393 . S
C565 C566 1.401 . S
C565 H582 0.930 . S
C566 C564 1.392 . S
C566 C565 1.401 . S
C566 H583 0.930 . S
C567 O550 1.262 1_556 S
C567 O551 1.260 . S
C568 Tb504 2.833 . S
C568 O548 1.251 . S
C568 O553 1.256 . S
C568 C561 1.500 . S
C569 H534 0.929 . S
C569 C547 1.444 . S
C569 C570 1.317 . S
C570 H532 0.930 . S
C570 C538 1.432 . S
C570 C569 1.317 . S
C571 O555 1.283 . S
C571 O558 1.243 . S
C572 C573 1.382 . S
C572 C576 1.393 . S
C572 C579 1.500 . S
C573 C572 1.382 . S
C573 C574 1.400 . S
C573 H584 0.930 . S
C574 C573 1.400 . S
C574 C575 1.384 . S
C575 C574 1.384 . S
C575 C577 1.392 . S
C575 H585 0.931 . S
C576 C572 1.393 . S
C576 C577 1.401 . S
C576 H586 0.930 . S
C577 C575 1.392 . S
C577 C576 1.401 . S
C577 H587 0.930 . S
C578 O556 1.262 1_554 S
C578 O557 1.260 . S
C579 Tb515 2.833 . S
C579 O554 1.251 . S
C579 O559 1.256 . S
C579 C572 1.500 . S
H580 C563 0.930 . S
H581 C564 0.931 . S
H582 C565 0.930 . S
H583 C566 0.930 . S
H584 C573 0.930 . S
H585 C575 0.931 . S
H586 C576 0.930 . S
H587 C577 0.930 . S
Tb588 N619 2.663 1_655 S
Tb588 N626 2.600 1_655 S
Tb588 O632 2.544 . S
Tb588 O633 2.609 . S
Tb588 O635 2.322 1_655 S
Tb588 O636 2.550 . S
Tb588 O637 2.414 1_655 S
Tb588 O639 2.363 1_655 S
Tb588 O640 2.418 . S
Tb588 C652 2.832 . S
C589 C592 1.432 . S
C589 C593 1.414 . S
C589 N596 1.359 . S
C590 C592 1.417 . S
C590 C594 1.432 . S
C590 C602 1.410 . S
C591 C593 1.444 . S
C591 C594 1.317 . S
C591 H614 0.929 . S
C592 C589 1.432 . S
C592 C590 1.417 . S
C592 N600 1.360 . S
C593 C589 1.414 . S
C593 C591 1.444 . S
C593 C598 1.415 . S
C594 C590 1.432 . S
C594 C591 1.317 . S
C594 H606 0.930 . S
C595 C597 1.392 . S
C595 C598 1.341 1_455 S
C595 H607 0.931 . S
N596 C589 1.359 . S
N596 C597 1.327 1_655 S
N596 Tb599 2.600 1_655 S
C597 C595 1.392 . S
C597 N596 1.327 1_455 S
C597 H604 0.930 . S
C598 C593 1.415 . S
C598 C595 1.341 1_655 S
C598 H617 0.929 . S
Tb599 N596 2.600 1_455 S
Tb599 N600 2.654 1_455 S
Tb599 O633 2.359 1_455 S
Tb599 O634 2.426 . S
Tb599 O638 2.549 . S
Tb599 O639 2.612 . S
Tb599 O641 2.315 1_455 S
Tb599 O642 2.556 . S
Tb599 O643 2.412 1_455 S
Tb599 C663 2.834 . S
N600 C592 1.360 . S
N600 Tb599 2.654 1_655 S
N600 C601 1.305 . S
C601 N600 1.305 . S
C601 C603 1.407 . S
C601 H608 0.930 . S
C602 C590 1.410 . S
C602 C603 1.345 . S
C602 H610 0.930 . S
C603 C601 1.407 . S
C603 C602 1.345 . S
C603 H605 0.930 . S
H604 C597 0.930 . S
H605 C603 0.930 . S
H606 C594 0.930 . S
H607 C595 0.931 . S
H608 C601 0.930 . S
H609 C623 0.930 . S
H610 C602 0.930 . S
H611 C629 0.930 . S
H612 C620 0.930 . S
H613 C627 0.931 . S
H614 C591 0.929 . S
H615 C621 0.930 . S
H616 C654 0.930 . S
H617 C598 0.929 . S
H618 C653 0.929 . S
N619 Tb588 2.663 1_455 S
N619 C620 1.305 . S
N619 C624 1.360 . S
C620 H612 0.930 . S
C620 N619 1.305 . S
C620 C623 1.407 . S
C621 H615 0.930 . S
C621 C622 1.410 . S
C621 C623 1.345 . S
C622 C621 1.410 . S
C622 C624 1.417 . S
C622 C654 1.432 . S
C623 H609 0.930 . S
C623 C620 1.407 . S
C623 C621 1.345 . S
C624 N619 1.360 . S
C624 C622 1.417 . S
C624 C628 1.432 . S
H625 C630 0.929 . S
N626 Tb588 2.600 1_455 S
N626 C628 1.359 . S
N626 C629 1.327 1_455 S
C627 H613 0.931 . S
C627 C629 1.392 . S
C627 C630 1.332 1_655 S
C628 C624 1.432 . S
C628 N626 1.359 . S
C628 C631 1.414 . S
C629 H611 0.930 . S
C629 N626 1.327 1_655 S
C629 C627 1.392 . S
C630 H625 0.929 . S
C630 C627 1.332 1_455 S
C630 C631 1.424 . S
C631 C628 1.414 . S
C631 C630 1.424 . S
C631 C653 1.444 . S
O632 Tb588 2.544 . S
O632 C652 1.251 . S
O633 Tb588 2.609 . S
O633 Tb599 2.359 1_655 S
O633 C644 1.283 . S
O634 Tb599 2.426 . S
O634 C651 1.262 . S
O635 Tb588 2.322 1_455 S
O635 C651 1.260 . S
O636 Tb588 2.550 . S
O636 C644 1.243 . S
O637 Tb588 2.414 1_455 S
O637 C652 1.256 1_455 S
O638 Tb599 2.549 . S
O638 C663 1.251 . S
O639 Tb588 2.363 1_455 S
O639 Tb599 2.612 . S
O639 C655 1.283 . S
O640 Tb588 2.418 . S
O640 C662 1.262 . S
O641 Tb599 2.315 1_655 S
O641 C662 1.260 . S
O642 Tb599 2.556 . S
O642 C655 1.243 . S
O643 Tb599 2.412 1_655 S
O643 C663 1.256 1_655 S
C644 O633 1.283 . S
C644 O636 1.243 . S
C645 C647 1.382 . S
C645 C649 1.393 . S
C645 C652 1.500 . S
C646 C647 1.400 . S
C646 C648 1.384 . S
C647 C645 1.382 . S
C647 C646 1.400 . S
C647 H664 0.930 1_655 S
C648 C646 1.384 . S
C648 C650 1.392 . S
C648 H665 0.931 . S
C649 C645 1.393 . S
C649 C650 1.401 . S
C649 H666 0.930 . S
C650 C648 1.392 . S
C650 C649 1.401 . S
C650 H667 0.930 . S
C651 O634 1.262 . S
C651 O635 1.260 . S
C652 Tb588 2.832 . S
C652 O632 1.251 . S
C652 O637 1.256 1_655 S
C652 C645 1.500 . S
C653 H618 0.929 . S
C653 C631 1.444 . S
C653 C654 1.317 . S
C654 H616 0.930 . S
C654 C622 1.432 . S
C654 C653 1.317 . S
C655 O639 1.283 . S
C655 O642 1.243 . S
C656 C657 1.382 . S
C656 C660 1.393 . S
C656 C663 1.500 . S
C657 C656 1.382 . S
C657 C658 1.400 . S
C657 H668 0.930 1_455 S
C658 C657 1.400 . S
C658 C659 1.384 . S
C659 C658 1.384 . S
C659 C661 1.392 . S
C659 H669 0.931 . S
C660 C656 1.393 . S
C660 C661 1.401 . S
C660 H670 0.930 . S
C661 C659 1.392 . S
C661 C660 1.401 . S
C661 H671 0.930 . S
C662 O640 1.262 . S
C662 O641 1.260 . S
C663 Tb599 2.834 . S
C663 O638 1.251 . S
C663 O643 1.256 1_455 S
C663 C656 1.500 . S
H664 C647 0.930 1_455 S
H665 C648 0.931 . S
H666 C649 0.930 . S
H667 C650 0.930 . S
H668 C657 0.930 1_655 S
H669 C659 0.931 . S
H670 C660 0.930 . S
H671 C661 0.930 . S
H672 C690 0.951 . S
H673 C692 0.951 . S
H674 C694 0.950 . S
H675 C695 0.950 . S
H676 C697 0.950 . S
H677 C700 0.950 . S
H678 C701 0.950 . S
H679 C703 0.950 . S
H680 C704 0.950 . S
H681 C705 0.951 . S
H682 C707 0.951 . S
H683 C709 0.950 . S
H684 C710 0.950 . S
H685 C712 0.950 . S
H686 C715 0.950 . S
H687 C716 0.950 . S
H688 C718 0.950 . S
H689 C719 0.950 . S
C690 H672 0.951 . S
C690 C691 1.366 . S
C690 C692 1.388 . S
C691 C690 1.366 . S
C691 C695 1.385 . S
C692 H673 0.951 . S
C692 C690 1.388 . S
C692 C693 1.366 . S
C693 C692 1.366 . S
C693 C694 1.414 . S
C693 C696 1.499 . S
C694 H674 0.950 . S
C694 C693 1.414 . S
C694 C695 1.374 . S
C695 H675 0.950 . S
C695 C691 1.385 . S
C695 C694 1.374 . S
C696 C693 1.499 . S
C696 C697 1.373 . S
C696 C698 1.389 . S
C697 H676 0.950 . S
C697 C696 1.373 . S
C697 C713 1.377 . S
C698 C696 1.389 . S
C698 C699 1.524 . S
C698 C712 1.377 . S
C699 C698 1.524 . S
C699 C700 1.397 . S
C699 C704 1.363 . S
C700 H677 0.950 . S
C700 C699 1.397 . S
C700 C701 1.334 . S
C701 H678 0.950 . S
C701 C700 1.334 . S
C701 C702 1.287 . S
C702 C701 1.287 . S
C702 C703 1.524 . S
C702 H721 0.913 . S
C703 H679 0.950 . S
C703 C702 1.524 . S
C703 C704 1.415 . S
C704 H680 0.950 . S
C704 C699 1.363 . S
C704 C703 1.415 . S
C705 H681 0.951 . S
C705 C706 1.366 . S
C705 C707 1.388 . S
C706 C705 1.366 . S
C706 C710 1.385 . S
C707 H682 0.951 . S
C707 C705 1.388 . S
C707 C708 1.366 . S
C708 C707 1.366 . S
C708 C709 1.414 . S
C708 C711 1.499 . S
C709 H683 0.950 . S
C709 C708 1.414 . S
C709 C710 1.374 . S
C710 H684 0.950 . S
C710 C706 1.385 . S
C710 C709 1.374 . S
C711 C708 1.499 . S
C711 C712 1.373 . S
C711 C713 1.389 . S
C712 H685 0.950 . S
C712 C698 1.377 . S
C712 C711 1.373 . S
C713 C697 1.377 . S
C713 C711 1.389 . S
C713 C714 1.524 . S
C714 C713 1.524 . S
C714 C715 1.397 . S
C714 C719 1.363 . S
C715 H686 0.950 . S
C715 C714 1.397 . S
C715 C716 1.334 . S
C716 H687 0.950 . S
C716 C715 1.334 . S
C716 C717 1.287 . S
C717 C716 1.287 . S
C717 C718 1.524 . S
C717 H720 0.999 . S
C718 H688 0.950 . S
C718 C717 1.524 . S
C718 C719 1.415 . S
C719 H689 0.950 . S
C719 C714 1.363 . S
C719 C718 1.415 . S
H720 C717 0.999 . S
H721 C702 0.913 . S
H722 C740 0.951 . S
H723 C742 0.951 . S
H724 C744 0.950 . S
H725 C745 0.950 . S
H726 C747 0.950 . S
H727 C750 0.950 . S
H728 C751 0.950 . S
H729 C753 0.950 . S
H730 C754 0.950 . S
H731 C755 0.951 . S
H732 C757 0.951 . S
H733 C759 0.950 . S
H734 C760 0.950 . S
H735 C762 0.950 . S
H736 C765 0.950 . S
H737 C766 0.950 . S
H738 C768 0.950 . S
H739 C769 0.950 . S
C740 H722 0.951 . S
C740 C741 1.366 . S
C740 C742 1.388 . S
C741 C740 1.366 . S
C741 C745 1.385 . S
C742 H723 0.951 . S
C742 C740 1.388 . S
C742 C743 1.366 . S
C743 C742 1.366 . S
C743 C744 1.414 . S
C743 C746 1.499 . S
C744 H724 0.950 . S
C744 C743 1.414 . S
C744 C745 1.374 . S
C745 H725 0.950 . S
C745 C741 1.385 . S
C745 C744 1.374 . S
C746 C743 1.499 . S
C746 C747 1.373 . S
C746 C748 1.389 . S
C747 H726 0.950 . S
C747 C746 1.373 . S
C747 C763 1.377 . S
C748 C746 1.389 . S
C748 C749 1.524 . S
C748 C762 1.377 . S
C749 C748 1.524 . S
C749 C750 1.397 . S
C749 C754 1.363 . S
C750 H727 0.950 . S
C750 C749 1.397 . S
C750 C751 1.334 . S
C751 H728 0.950 . S
C751 C750 1.334 . S
C751 C752 1.287 . S
C752 C751 1.287 . S
C752 C753 1.524 . S
C752 H771 0.913 . S
C753 H729 0.950 . S
C753 C752 1.524 . S
C753 C754 1.415 . S
C754 H730 0.950 . S
C754 C749 1.363 . S
C754 C753 1.415 . S
C755 H731 0.951 . S
C755 C756 1.366 . S
C755 C757 1.388 . S
C756 C755 1.366 . S
C756 C760 1.385 . S
C757 H732 0.951 . S
C757 C755 1.388 . S
C757 C758 1.366 . S
C758 C757 1.366 . S
C758 C759 1.414 . S
C758 C761 1.499 . S
C759 H733 0.950 . S
C759 C758 1.414 . S
C759 C760 1.374 . S
C760 H734 0.950 . S
C760 C756 1.385 . S
C760 C759 1.374 . S
C761 C758 1.499 . S
C761 C762 1.373 . S
C761 C763 1.389 . S
C762 H735 0.950 . S
C762 C748 1.377 . S
C762 C761 1.373 . S
C763 C747 1.377 . S
C763 C761 1.389 . S
C763 C764 1.524 . S
C764 C763 1.524 . S
C764 C765 1.397 . S
C764 C769 1.363 . S
C765 H736 0.950 . S
C765 C764 1.397 . S
C765 C766 1.334 . S
C766 H737 0.950 . S
C766 C765 1.334 . S
C766 C767 1.287 . S
C767 C766 1.287 . S
C767 C768 1.524 . S
C767 H770 0.999 . S
C768 H738 0.950 . S
C768 C767 1.524 . S
C768 C769 1.415 . S
C769 H739 0.950 . S
C769 C764 1.363 . S
C769 C768 1.415 . S
H770 C767 0.999 . S
H771 C752 0.913 . S
H772 C790 0.951 . S
H773 C792 0.951 . S
H774 C794 0.950 . S
H775 C795 0.950 . S
H776 C797 0.950 . S
H777 C800 0.950 . S
H778 C801 0.950 . S
H779 C803 0.950 . S
H780 C804 0.950 . S
H781 C805 0.951 . S
H782 C807 0.951 . S
H783 C809 0.950 . S
H784 C810 0.950 . S
H785 C812 0.950 . S
H786 C815 0.950 . S
H787 C816 0.950 . S
H788 C818 0.950 . S
H789 C819 0.950 . S
C790 H772 0.951 . S
C790 C791 1.366 . S
C790 C792 1.388 . S
C791 C790 1.366 . S
C791 C795 1.385 . S
C792 H773 0.951 . S
C792 C790 1.388 . S
C792 C793 1.366 . S
C793 C792 1.366 . S
C793 C794 1.414 . S
C793 C796 1.499 . S
C794 H774 0.950 . S
C794 C793 1.414 . S
C794 C795 1.374 . S
C795 H775 0.950 . S
C795 C791 1.385 . S
C795 C794 1.374 . S
C796 C793 1.499 . S
C796 C797 1.373 . S
C796 C798 1.389 . S
C797 H776 0.950 . S
C797 C796 1.373 . S
C797 C813 1.377 . S
C798 C796 1.389 . S
C798 C799 1.524 . S
C798 C812 1.377 . S
C799 C798 1.524 . S
C799 C800 1.397 . S
C799 C804 1.363 . S
C800 H777 0.950 . S
C800 C799 1.397 . S
C800 C801 1.334 . S
C801 H778 0.950 . S
C801 C800 1.334 . S
C801 C802 1.287 . S
C802 C801 1.287 . S
C802 C803 1.524 . S
C802 H821 0.913 . S
C803 H779 0.950 . S
C803 C802 1.524 . S
C803 C804 1.415 . S
C804 H780 0.950 . S
C804 C799 1.363 . S
C804 C803 1.415 . S
C805 H781 0.951 . S
C805 C806 1.366 . S
C805 C807 1.388 . S
C806 C805 1.366 . S
C806 C810 1.385 . S
C807 H782 0.951 . S
C807 C805 1.388 . S
C807 C808 1.366 . S
C808 C807 1.366 . S
C808 C809 1.414 . S
C808 C811 1.499 . S
C809 H783 0.950 . S
C809 C808 1.414 . S
C809 C810 1.374 . S
C810 H784 0.950 . S
C810 C806 1.385 . S
C810 C809 1.374 . S
C811 C808 1.499 . S
C811 C812 1.373 . S
C811 C813 1.389 . S
C812 H785 0.950 . S
C812 C798 1.377 . S
C812 C811 1.373 . S
C813 C797 1.377 . S
C813 C811 1.389 . S
C813 C814 1.524 . S
C814 C813 1.524 . S
C814 C815 1.397 . S
C814 C819 1.363 . S
C815 H786 0.950 . S
C815 C814 1.397 . S
C815 C816 1.334 . S
C816 H787 0.950 . S
C816 C815 1.334 . S
C816 C817 1.287 . S
C817 C816 1.287 . S
C817 C818 1.524 . S
C817 H820 0.999 . S
C818 H788 0.950 . S
C818 C817 1.524 . S
C818 C819 1.415 . S
C819 H789 0.950 . S
C819 C814 1.363 . S
C819 C818 1.415 . S
H820 C817 0.999 . S
H821 C802 0.913 . S
H822 C840 0.951 . S
H823 C842 0.951 . S
H824 C844 0.950 . S
H825 C845 0.950 . S
H826 C847 0.950 . S
H827 C850 0.950 . S
H828 C851 0.950 . S
H829 C853 0.950 . S
H830 C854 0.950 . S
H831 C855 0.951 . S
H832 C857 0.951 . S
H833 C859 0.950 . S
H834 C860 0.950 . S
H835 C862 0.950 . S
H836 C865 0.950 . S
H837 C866 0.950 . S
H838 C868 0.950 . S
H839 C869 0.950 . S
C840 H822 0.951 . S
C840 C841 1.366 . S
C840 C842 1.388 . S
C841 C840 1.366 . S
C841 C845 1.385 . S
C842 H823 0.951 . S
C842 C840 1.388 . S
C842 C843 1.366 . S
C843 C842 1.366 . S
C843 C844 1.414 . S
C843 C846 1.499 . S
C844 H824 0.950 . S
C844 C843 1.414 . S
C844 C845 1.374 . S
C845 H825 0.950 . S
C845 C841 1.385 . S
C845 C844 1.374 . S
C846 C843 1.499 . S
C846 C847 1.373 . S
C846 C848 1.389 . S
C847 H826 0.950 . S
C847 C846 1.373 . S
C847 C863 1.377 . S
C848 C846 1.389 . S
C848 C849 1.524 . S
C848 C862 1.377 . S
C849 C848 1.524 . S
C849 C850 1.397 . S
C849 C854 1.363 . S
C850 H827 0.950 . S
C850 C849 1.397 . S
C850 C851 1.334 1_554 S
C851 H828 0.950 . S
C851 C850 1.334 1_556 S
C851 C852 1.287 . S
C852 C851 1.287 . S
C852 C853 1.524 . S
C852 H871 0.913 . S
C853 H829 0.950 . S
C853 C852 1.524 . S
C853 C854 1.415 1_556 S
C854 H830 0.950 . S
C854 C849 1.363 . S
C854 C853 1.415 1_554 S
C855 H831 0.951 . S
C855 C856 1.366 . S
C855 C857 1.388 . S
C856 C855 1.366 . S
C856 C860 1.385 . S
C857 H832 0.951 . S
C857 C855 1.388 . S
C857 C858 1.366 . S
C858 C857 1.366 . S
C858 C859 1.414 . S
C858 C861 1.499 . S
C859 H833 0.950 . S
C859 C858 1.414 . S
C859 C860 1.374 . S
C860 H834 0.950 . S
C860 C856 1.385 . S
C860 C859 1.374 . S
C861 C858 1.499 . S
C861 C862 1.373 . S
C861 C863 1.389 . S
C862 H835 0.950 . S
C862 C848 1.377 . S
C862 C861 1.373 . S
C863 C847 1.377 . S
C863 C861 1.389 . S
C863 C864 1.524 . S
C864 C863 1.524 . S
C864 C865 1.397 . S
C864 C869 1.363 . S
C865 H836 0.950 . S
C865 C864 1.397 . S
C865 C866 1.334 . S
C866 H837 0.950 . S
C866 C865 1.334 . S
C866 C867 1.287 . S
C867 C866 1.287 . S
C867 C868 1.524 . S
C867 H870 0.999 . S
C868 H838 0.950 . S
C868 C867 1.524 . S
C868 C869 1.415 . S
C869 H839 0.950 . S
C869 C864 1.363 . S
C869 C868 1.415 . S
H870 C867 0.999 . S
H871 C852 0.913 . S
H872 C890 0.951 . S
H873 C892 0.951 . S
H874 C894 0.950 . S
H875 C895 0.950 . S
H876 C897 0.950 . S
H877 C900 0.950 . S
H878 C901 0.950 . S
H879 C903 0.950 . S
H880 C904 0.950 . S
H881 C905 0.951 . S
H882 C907 0.951 . S
H883 C909 0.950 . S
H884 C910 0.950 . S
H885 C912 0.950 . S
H886 C915 0.950 . S
H887 C916 0.950 . S
H888 C918 0.950 . S
H889 C919 0.950 . S
C890 H872 0.951 . S
C890 C891 1.366 . S
C890 C892 1.388 . S
C891 C890 1.366 . S
C891 C895 1.385 . S
C892 H873 0.951 . S
C892 C890 1.388 . S
C892 C893 1.366 . S
C893 C892 1.366 . S
C893 C894 1.414 . S
C893 C896 1.499 . S
C894 H874 0.950 . S
C894 C893 1.414 . S
C894 C895 1.374 . S
C895 H875 0.950 . S
C895 C891 1.385 . S
C895 C894 1.374 . S
C896 C893 1.499 . S
C896 C897 1.373 . S
C896 C898 1.389 . S
C897 H876 0.950 . S
C897 C896 1.373 . S
C897 C913 1.377 . S
C898 C896 1.389 . S
C898 C899 1.524 . S
C898 C912 1.377 . S
C899 C898 1.524 . S
C899 C900 1.397 . S
C899 C904 1.363 . S
C900 H877 0.950 . S
C900 C899 1.397 . S
C900 C901 1.334 . S
C901 H878 0.950 . S
C901 C900 1.334 . S
C901 C902 1.287 . S
C902 C901 1.287 . S
C902 C903 1.524 . S
C902 H921 0.913 . S
C903 H879 0.950 . S
C903 C902 1.524 . S
C903 C904 1.415 . S
C904 H880 0.950 . S
C904 C899 1.363 . S
C904 C903 1.415 . S
C905 H881 0.951 . S
C905 C906 1.366 . S
C905 C907 1.388 . S
C906 C905 1.366 . S
C906 C910 1.385 . S
C907 H882 0.951 . S
C907 C905 1.388 . S
C907 C908 1.366 . S
C908 C907 1.366 . S
C908 C909 1.414 . S
C908 C911 1.499 . S
C909 H883 0.950 . S
C909 C908 1.414 . S
C909 C910 1.374 . S
C910 H884 0.950 . S
C910 C906 1.385 . S
C910 C909 1.374 . S
C911 C908 1.499 . S
C911 C912 1.373 . S
C911 C913 1.389 . S
C912 H885 0.950 . S
C912 C898 1.377 . S
C912 C911 1.373 . S
C913 C897 1.377 . S
C913 C911 1.389 . S
C913 C914 1.524 . S
C914 C913 1.524 . S
C914 C915 1.397 . S
C914 C919 1.363 . S
C915 H886 0.950 . S
C915 C914 1.397 . S
C915 C916 1.334 . S
C916 H887 0.950 . S
C916 C915 1.334 . S
C916 C917 1.287 . S
C917 C916 1.287 . S
C917 C918 1.524 . S
C917 H920 0.999 . S
C918 H888 0.950 . S
C918 C917 1.524 . S
C918 C919 1.415 . S
C919 H889 0.950 . S
C919 C914 1.363 . S
C919 C918 1.415 . S
H920 C917 0.999 . S
H921 C902 0.913 . S
H922 C940 0.951 . S
H923 C942 0.951 . S
H924 C944 0.950 . S
H925 C945 0.950 . S
H926 C947 0.950 . S
H927 C950 0.950 . S
H928 C951 0.950 . S
H929 C953 0.950 . S
H930 C954 0.950 . S
H931 C955 0.951 . S
H932 C957 0.951 . S
H933 C959 0.950 . S
H934 C960 0.950 . S
H935 C962 0.950 . S
H936 C965 0.950 . S
H937 C966 0.950 . S
H938 C968 0.950 . S
H939 C969 0.950 . S
C940 H922 0.951 . S
C940 C941 1.366 . S
C940 C942 1.388 . S
C941 C940 1.366 . S
C941 C945 1.385 . S
C942 H923 0.951 . S
C942 C940 1.388 . S
C942 C943 1.366 . S
C943 C942 1.366 . S
C943 C944 1.414 . S
C943 C946 1.499 . S
C944 H924 0.950 . S
C944 C943 1.414 . S
C944 C945 1.374 . S
C945 H925 0.950 . S
C945 C941 1.385 . S
C945 C944 1.374 . S
C946 C943 1.499 . S
C946 C947 1.373 . S
C946 C948 1.389 . S
C947 H926 0.950 . S
C947 C946 1.373 . S
C947 C963 1.377 . S
C948 C946 1.389 . S
C948 C949 1.524 . S
C948 C962 1.377 . S
C949 C948 1.524 . S
C949 C950 1.397 . S
C949 C954 1.363 . S
C950 H927 0.950 . S
C950 C949 1.397 . S
C950 C951 1.334 . S
C951 H928 0.950 . S
C951 C950 1.334 . S
C951 C952 1.287 . S
C952 C951 1.287 . S
C952 C953 1.524 . S
C952 H971 0.913 . S
C953 H929 0.950 . S
C953 C952 1.524 . S
C953 C954 1.415 . S
C954 H930 0.950 . S
C954 C949 1.363 . S
C954 C953 1.415 . S
C955 H931 0.951 . S
C955 C956 1.366 . S
C955 C957 1.388 . S
C956 C955 1.366 . S
C956 C960 1.385 . S
C957 H932 0.951 . S
C957 C955 1.388 . S
C957 C958 1.366 . S
C958 C957 1.366 . S
C958 C959 1.414 . S
C958 C961 1.499 . S
C959 H933 0.950 . S
C959 C958 1.414 . S
C959 C960 1.374 . S
C960 H934 0.950 . S
C960 C956 1.385 . S
C960 C959 1.374 . S
C961 C958 1.499 . S
C961 C962 1.373 . S
C961 C963 1.389 . S
C962 H935 0.950 . S
C962 C948 1.377 . S
C962 C961 1.373 . S
C963 C947 1.377 . S
C963 C961 1.389 . S
C963 C964 1.524 . S
C964 C963 1.524 . S
C964 C965 1.397 . S
C964 C969 1.363 . S
C965 H936 0.950 . S
C965 C964 1.397 . S
C965 C966 1.334 . S
C966 H937 0.950 . S
C966 C965 1.334 . S
C966 C967 1.287 . S
C967 C966 1.287 . S
C967 C968 1.524 . S
C967 H970 0.999 . S
C968 H938 0.950 . S
C968 C967 1.524 . S
C968 C969 1.415 . S
C969 H939 0.950 . S
C969 C964 1.363 . S
C969 C968 1.415 . S
H970 C967 0.999 . S
H971 C952 0.913 . S
H972 C990 0.951 . S
H973 C992 0.951 . S
H974 C994 0.950 . S
H975 C995 0.950 . S
H976 C997 0.950 . S
H977 C1000 0.950 . S
H978 C1001 0.950 . S
H979 C1003 0.950 . S
H980 C1004 0.950 . S
H981 C1005 0.951 . S
H982 C1007 0.951 . S
H983 C1009 0.950 . S
H984 C1010 0.950 . S
H985 C1012 0.950 . S
H986 C1015 0.950 . S
H987 C1016 0.950 . S
H988 C1018 0.950 . S
H989 C1019 0.950 . S
C990 H972 0.951 . S
C990 C991 1.366 . S
C990 C992 1.388 . S
C991 C990 1.366 . S
C991 C995 1.385 . S
C992 H973 0.951 . S
C992 C990 1.388 . S
C992 C993 1.366 . S
C993 C992 1.366 . S
C993 C994 1.414 . S
C993 C996 1.499 . S
C994 H974 0.950 . S
C994 C993 1.414 . S
C994 C995 1.374 . S
C995 H975 0.950 . S
C995 C991 1.385 . S
C995 C994 1.374 . S
C996 C993 1.499 . S
C996 C997 1.373 . S
C996 C998 1.389 . S
C997 H976 0.950 . S
C997 C996 1.373 . S
C997 C1013 1.377 . S
C998 C996 1.389 . S
C998 C999 1.524 . S
C998 C1012 1.377 . S
C999 C998 1.524 . S
C999 C1000 1.397 . S
C999 C1004 1.363 . S
C1000 H977 0.950 . S
C1000 C999 1.397 . S
C1000 C1001 1.334 . S
C1001 H978 0.950 . S
C1001 C1000 1.334 . S
C1001 C1002 1.287 . S
C1002 C1001 1.287 . S
C1002 C1003 1.524 . S
C1002 H1021 0.913 . S
C1003 H979 0.950 . S
C1003 C1002 1.524 . S
C1003 C1004 1.415 . S
C1004 H980 0.950 . S
C1004 C999 1.363 . S
C1004 C1003 1.415 . S
C1005 H981 0.951 . S
C1005 C1006 1.366 . S
C1005 C1007 1.388 . S
C1006 C1005 1.366 . S
C1006 C1010 1.385 . S
C1007 H982 0.951 . S
C1007 C1005 1.388 . S
C1007 C1008 1.366 . S
C1008 C1007 1.366 . S
C1008 C1009 1.414 . S
C1008 C1011 1.499 . S
C1009 H983 0.950 . S
C1009 C1008 1.414 . S
C1009 C1010 1.374 . S
C1010 H984 0.950 . S
C1010 C1006 1.385 . S
C1010 C1009 1.374 . S
C1011 C1008 1.499 . S
C1011 C1012 1.373 . S
C1011 C1013 1.389 . S
C1012 H985 0.950 . S
C1012 C998 1.377 . S
C1012 C1011 1.373 . S
C1013 C997 1.377 . S
C1013 C1011 1.389 . S
C1013 C1014 1.524 . S
C1014 C1013 1.524 . S
C1014 C1015 1.397 . S
C1014 C1019 1.363 . S
C1015 H986 0.950 . S
C1015 C1014 1.397 . S
C1015 C1016 1.334 1_554 S
C1016 H987 0.950 . S
C1016 C1015 1.334 1_556 S
C1016 C1017 1.287 . S
C1017 C1016 1.287 . S
C1017 C1018 1.524 . S
C1017 H1020 0.999 . S
C1018 H988 0.950 . S
C1018 C1017 1.524 . S
C1018 C1019 1.415 1_556 S
C1019 H989 0.950 . S
C1019 C1014 1.363 . S
C1019 C1018 1.415 1_554 S
H1020 C1017 0.999 . S
H1021 C1002 0.913 . S
H1022 C1040 0.951 . S
H1023 C1042 0.951 . S
H1024 C1044 0.950 . S
H1025 C1045 0.950 . S
H1026 C1047 0.950 . S
H1027 C1050 0.950 . S
H1028 C1051 0.950 . S
H1029 C1053 0.950 . S
H1030 C1054 0.950 . S
H1031 C1055 0.951 . S
H1032 C1057 0.951 . S
H1033 C1059 0.950 . S
H1034 C1060 0.950 . S
H1035 C1062 0.950 . S
H1036 C1065 0.950 . S
H1037 C1066 0.950 . S
H1038 C1068 0.950 . S
H1039 C1069 0.950 . S
C1040 H1022 0.951 . S
C1040 C1041 1.366 . S
C1040 C1042 1.388 . S
C1041 C1040 1.366 . S
C1041 C1045 1.385 . S
C1042 H1023 0.951 . S
C1042 C1040 1.388 . S
C1042 C1043 1.366 . S
C1043 C1042 1.366 . S
C1043 C1044 1.414 . S
C1043 C1046 1.499 . S
C1044 H1024 0.950 . S
C1044 C1043 1.414 . S
C1044 C1045 1.374 . S
C1045 H1025 0.950 . S
C1045 C1041 1.385 . S
C1045 C1044 1.374 . S
C1046 C1043 1.499 . S
C1046 C1047 1.373 . S
C1046 C1048 1.389 . S
C1047 H1026 0.950 . S
C1047 C1046 1.373 . S
C1047 C1063 1.377 . S
C1048 C1046 1.389 . S
C1048 C1049 1.524 . S
C1048 C1062 1.377 . S
C1049 C1048 1.524 . S
C1049 C1050 1.397 . S
C1049 C1054 1.363 . S
C1050 H1027 0.950 . S
C1050 C1049 1.397 . S
C1050 C1051 1.334 . S
C1051 H1028 0.950 . S
C1051 C1050 1.334 . S
C1051 C1052 1.287 . S
C1052 C1051 1.287 . S
C1052 C1053 1.524 . S
C1052 H1071 0.913 . S
C1053 H1029 0.950 . S
C1053 C1052 1.524 . S
C1053 C1054 1.415 . S
C1054 H1030 0.950 . S
C1054 C1049 1.363 . S
C1054 C1053 1.415 . S
C1055 H1031 0.951 . S
C1055 C1056 1.366 . S
C1055 C1057 1.388 . S
C1056 C1055 1.366 . S
C1056 C1060 1.385 . S
C1057 H1032 0.951 . S
C1057 C1055 1.388 . S
C1057 C1058 1.366 . S
C1058 C1057 1.366 . S
C1058 C1059 1.414 . S
C1058 C1061 1.499 . S
C1059 H1033 0.950 . S
C1059 C1058 1.414 . S
C1059 C1060 1.374 . S
C1060 H1034 0.950 . S
C1060 C1056 1.385 . S
C1060 C1059 1.374 . S
C1061 C1058 1.499 . S
C1061 C1062 1.373 . S
C1061 C1063 1.389 . S
C1062 H1035 0.950 . S
C1062 C1048 1.377 . S
C1062 C1061 1.373 . S
C1063 C1047 1.377 . S
C1063 C1061 1.389 . S
C1063 C1064 1.524 . S
C1064 C1063 1.524 . S
C1064 C1065 1.397 . S
C1064 C1069 1.363 . S
C1065 H1036 0.950 . S
C1065 C1064 1.397 . S
C1065 C1066 1.334 1_556 S
C1066 H1037 0.950 . S
C1066 C1065 1.334 1_554 S
C1066 C1067 1.287 . S
C1067 C1066 1.287 . S
C1067 C1068 1.524 . S
C1067 H1070 0.999 . S
C1068 H1038 0.950 . S
C1068 C1067 1.524 . S
C1068 C1069 1.415 1_554 S
C1069 H1039 0.950 . S
C1069 C1064 1.363 . S
C1069 C1068 1.415 1_556 S
H1070 C1067 0.999 . S
H1071 C1052 0.913 . S
H1072 C1090 0.951 . S
H1073 C1092 0.951 . S
H1074 C1094 0.950 . S
H1075 C1095 0.950 . S
H1076 C1097 0.950 . S
H1077 C1100 0.950 . S
H1078 C1101 0.950 . S
H1079 C1103 0.950 . S
H1080 C1104 0.950 . S
H1081 C1105 0.951 . S
H1082 C1107 0.951 . S
H1083 C1109 0.950 . S
H1084 C1110 0.950 . S
H1085 C1112 0.950 . S
H1086 C1115 0.950 . S
H1087 C1116 0.950 . S
H1088 C1118 0.950 . S
H1089 C1119 0.950 . S
C1090 H1072 0.951 . S
C1090 C1091 1.366 . S
C1090 C1092 1.388 . S
C1091 C1090 1.366 . S
C1091 C1095 1.385 . S
C1092 H1073 0.951 . S
C1092 C1090 1.388 . S
C1092 C1093 1.366 . S
C1093 C1092 1.366 . S
C1093 C1094 1.414 . S
C1093 C1096 1.499 . S
C1094 H1074 0.950 . S
C1094 C1093 1.414 . S
C1094 C1095 1.374 . S
C1095 H1075 0.950 . S
C1095 C1091 1.385 . S
C1095 C1094 1.374 . S
C1096 C1093 1.499 . S
C1096 C1097 1.373 . S
C1096 C1098 1.389 . S
C1097 H1076 0.950 . S
C1097 C1096 1.373 . S
C1097 C1113 1.377 . S
C1098 C1096 1.389 . S
C1098 C1099 1.524 . S
C1098 C1112 1.377 . S
C1099 C1098 1.524 . S
C1099 C1100 1.397 . S
C1099 C1104 1.363 . S
C1100 H1077 0.950 . S
C1100 C1099 1.397 . S
C1100 C1101 1.334 . S
C1101 H1078 0.950 . S
C1101 C1100 1.334 . S
C1101 C1102 1.287 . S
C1102 C1101 1.287 . S
C1102 C1103 1.524 . S
C1102 H1121 0.913 . S
C1103 H1079 0.950 . S
C1103 C1102 1.524 . S
C1103 C1104 1.415 . S
C1104 H1080 0.950 . S
C1104 C1099 1.363 . S
C1104 C1103 1.415 . S
C1105 H1081 0.951 . S
C1105 C1106 1.366 . S
C1105 C1107 1.388 . S
C1106 C1105 1.366 . S
C1106 C1110 1.385 . S
C1107 H1082 0.951 . S
C1107 C1105 1.388 . S
C1107 C1108 1.366 . S
C1108 C1107 1.366 . S
C1108 C1109 1.414 . S
C1108 C1111 1.499 . S
C1109 H1083 0.950 . S
C1109 C1108 1.414 . S
C1109 C1110 1.374 . S
C1110 H1084 0.950 . S
C1110 C1106 1.385 . S
C1110 C1109 1.374 . S
C1111 C1108 1.499 . S
C1111 C1112 1.373 . S
C1111 C1113 1.389 . S
C1112 H1085 0.950 . S
C1112 C1098 1.377 . S
C1112 C1111 1.373 . S
C1113 C1097 1.377 . S
C1113 C1111 1.389 . S
C1113 C1114 1.524 . S
C1114 C1113 1.524 . S
C1114 C1115 1.397 . S
C1114 C1119 1.363 . S
C1115 H1086 0.950 . S
C1115 C1114 1.397 . S
C1115 C1116 1.334 . S
C1116 H1087 0.950 . S
C1116 C1115 1.334 . S
C1116 C1117 1.287 . S
C1117 C1116 1.287 . S
C1117 C1118 1.524 1_556 S
C1117 H1120 0.999 1_556 S
C1118 H1088 0.950 . S
C1118 C1117 1.524 1_554 S
C1118 C1119 1.415 1_554 S
C1119 H1089 0.950 . S
C1119 C1114 1.363 . S
C1119 C1118 1.415 1_556 S
H1120 C1117 0.999 1_554 S
H1121 C1102 0.913 . S
H1122 C1140 0.951 . S
H1123 C1142 0.951 . S
H1124 C1144 0.950 . S
H1125 C1145 0.950 . S
H1126 C1147 0.950 . S
H1127 C1150 0.950 . S
H1128 C1151 0.950 . S
H1129 C1153 0.950 . S
H1130 C1154 0.950 . S
H1131 C1155 0.951 . S
H1132 C1157 0.951 . S
H1133 C1159 0.950 . S
H1134 C1160 0.950 . S
H1135 C1162 0.950 . S
H1136 C1165 0.950 . S
H1137 C1166 0.950 . S
H1138 C1168 0.950 . S
H1139 C1169 0.950 . S
C1140 H1122 0.951 . S
C1140 C1141 1.366 . S
C1140 C1142 1.388 . S
C1141 C1140 1.366 . S
C1141 C1145 1.385 . S
C1142 H1123 0.951 . S
C1142 C1140 1.388 . S
C1142 C1143 1.366 . S
C1143 C1142 1.366 . S
C1143 C1144 1.414 . S
C1143 C1146 1.499 . S
C1144 H1124 0.950 . S
C1144 C1143 1.414 . S
C1144 C1145 1.374 . S
C1145 H1125 0.950 . S
C1145 C1141 1.385 . S
C1145 C1144 1.374 . S
C1146 C1143 1.499 . S
C1146 C1147 1.373 . S
C1146 C1148 1.389 . S
C1147 H1126 0.950 . S
C1147 C1146 1.373 . S
C1147 C1163 1.377 . S
C1148 C1146 1.389 . S
C1148 C1149 1.524 . S
C1148 C1162 1.377 . S
C1149 C1148 1.524 . S
C1149 C1150 1.397 . S
C1149 C1154 1.363 . S
C1150 H1127 0.950 . S
C1150 C1149 1.397 . S
C1150 C1151 1.334 . S
C1151 H1128 0.950 . S
C1151 C1150 1.334 . S
C1151 C1152 1.287 . S
C1152 C1151 1.287 . S
C1152 C1153 1.524 . S
C1152 H1171 0.913 . S
C1153 H1129 0.950 . S
C1153 C1152 1.524 . S
C1153 C1154 1.415 . S
C1154 H1130 0.950 . S
C1154 C1149 1.363 . S
C1154 C1153 1.415 . S
C1155 H1131 0.951 . S
C1155 C1156 1.366 . S
C1155 C1157 1.388 . S
C1156 C1155 1.366 . S
C1156 C1160 1.385 . S
C1157 H1132 0.951 . S
C1157 C1155 1.388 . S
C1157 C1158 1.366 . S
C1158 C1157 1.366 . S
C1158 C1159 1.414 . S
C1158 C1161 1.499 . S
C1159 H1133 0.950 . S
C1159 C1158 1.414 . S
C1159 C1160 1.374 . S
C1160 H1134 0.950 . S
C1160 C1156 1.385 . S
C1160 C1159 1.374 . S
C1161 C1158 1.499 . S
C1161 C1162 1.373 . S
C1161 C1163 1.389 . S
C1162 H1135 0.950 . S
C1162 C1148 1.377 . S
C1162 C1161 1.373 . S
C1163 C1147 1.377 . S
C1163 C1161 1.389 . S
C1163 C1164 1.524 . S
C1164 C1163 1.524 . S
C1164 C1165 1.397 . S
C1164 C1169 1.363 . S
C1165 H1136 0.950 . S
C1165 C1164 1.397 . S
C1165 C1166 1.334 1_554 S
C1166 H1137 0.950 . S
C1166 C1165 1.334 1_556 S
C1166 C1167 1.287 . S
C1167 C1166 1.287 . S
C1167 C1168 1.524 . S
C1167 H1170 0.999 . S
C1168 H1138 0.950 . S
C1168 C1167 1.524 . S
C1168 C1169 1.415 1_556 S
C1169 H1139 0.950 . S
C1169 C1164 1.363 . S
C1169 C1168 1.415 1_554 S
H1170 C1167 0.999 . S
H1171 C1152 0.913 . S
H1172 C1190 0.951 . S
H1173 C1192 0.951 . S
H1174 C1194 0.950 . S
H1175 C1195 0.950 . S
H1176 C1197 0.950 . S
H1177 C1200 0.950 . S
H1178 C1201 0.950 . S
H1179 C1203 0.950 . S
H1180 C1204 0.950 . S
H1181 C1205 0.951 . S
H1182 C1207 0.951 . S
H1183 C1209 0.950 . S
H1184 C1210 0.950 . S
H1185 C1212 0.950 . S
H1186 C1215 0.950 . S
H1187 C1216 0.950 . S
H1188 C1218 0.950 . S
H1189 C1219 0.950 . S
C1190 H1172 0.951 . S
C1190 C1191 1.366 . S
C1190 C1192 1.388 . S
C1191 C1190 1.366 . S
C1191 C1195 1.385 . S
C1192 H1173 0.951 . S
C1192 C1190 1.388 . S
C1192 C1193 1.366 . S
C1193 C1192 1.366 . S
C1193 C1194 1.414 . S
C1193 C1196 1.499 . S
C1194 H1174 0.950 . S
C1194 C1193 1.414 . S
C1194 C1195 1.374 . S
C1195 H1175 0.950 . S
C1195 C1191 1.385 . S
C1195 C1194 1.374 . S
C1196 C1193 1.499 . S
C1196 C1197 1.373 . S
C1196 C1198 1.389 . S
C1197 H1176 0.950 . S
C1197 C1196 1.373 . S
C1197 C1213 1.377 . S
C1198 C1196 1.389 . S
C1198 C1199 1.524 . S
C1198 C1212 1.377 . S
C1199 C1198 1.524 . S
C1199 C1200 1.397 . S
C1199 C1204 1.363 . S
C1200 H1177 0.950 . S
C1200 C1199 1.397 . S
C1200 C1201 1.334 . S
C1201 H1178 0.950 . S
C1201 C1200 1.334 . S
C1201 C1202 1.287 . S
C1202 C1201 1.287 . S
C1202 C1203 1.524 . S
C1202 H1221 0.913 . S
C1203 H1179 0.950 . S
C1203 C1202 1.524 . S
C1203 C1204 1.415 . S
C1204 H1180 0.950 . S
C1204 C1199 1.363 . S
C1204 C1203 1.415 . S
C1205 H1181 0.951 . S
C1205 C1206 1.366 . S
C1205 C1207 1.388 . S
C1206 C1205 1.366 . S
C1206 C1210 1.385 . S
C1207 H1182 0.951 . S
C1207 C1205 1.388 . S
C1207 C1208 1.366 . S
C1208 C1207 1.366 . S
C1208 C1209 1.414 . S
C1208 C1211 1.499 . S
C1209 H1183 0.950 . S
C1209 C1208 1.414 . S
C1209 C1210 1.374 . S
C1210 H1184 0.950 . S
C1210 C1206 1.385 . S
C1210 C1209 1.374 . S
C1211 C1208 1.499 . S
C1211 C1212 1.373 . S
C1211 C1213 1.389 . S
C1212 H1185 0.950 . S
C1212 C1198 1.377 . S
C1212 C1211 1.373 . S
C1213 C1197 1.377 . S
C1213 C1211 1.389 . S
C1213 C1214 1.524 . S
C1214 C1213 1.524 . S
C1214 C1215 1.397 . S
C1214 C1219 1.363 . S
C1215 H1186 0.950 . S
C1215 C1214 1.397 . S
C1215 C1216 1.334 . S
C1216 H1187 0.950 . S
C1216 C1215 1.334 . S
C1216 C1217 1.287 . S
C1217 C1216 1.287 . S
C1217 C1218 1.524 . S
C1217 H1220 0.999 . S
C1218 H1188 0.950 . S
C1218 C1217 1.524 . S
C1218 C1219 1.415 . S
C1219 H1189 0.950 . S
C1219 C1214 1.363 . S
C1219 C1218 1.415 . S
H1220 C1217 0.999 . S
H1221 C1202 0.913 . S
H1222 C1240 0.951 . S
H1223 C1242 0.951 . S
H1224 C1244 0.950 . S
H1225 C1245 0.950 . S
H1226 C1247 0.950 . S
H1227 C1250 0.950 . S
H1228 C1251 0.950 . S
H1229 C1253 0.950 . S
H1230 C1254 0.950 . S
H1231 C1255 0.951 . S
H1232 C1257 0.951 . S
H1233 C1259 0.950 . S
H1234 C1260 0.950 . S
H1235 C1262 0.950 . S
H1236 C1265 0.950 . S
H1237 C1266 0.950 . S
H1238 C1268 0.950 . S
H1239 C1269 0.950 . S
C1240 H1222 0.951 . S
C1240 C1241 1.366 . S
C1240 C1242 1.388 . S
C1241 C1240 1.366 . S
C1241 C1245 1.385 . S
C1242 H1223 0.951 . S
C1242 C1240 1.388 . S
C1242 C1243 1.366 . S
C1243 C1242 1.366 . S
C1243 C1244 1.414 . S
C1243 C1246 1.499 . S
C1244 H1224 0.950 . S
C1244 C1243 1.414 . S
C1244 C1245 1.374 . S
C1245 H1225 0.950 . S
C1245 C1241 1.385 . S
C1245 C1244 1.374 . S
C1246 C1243 1.499 . S
C1246 C1247 1.373 . S
C1246 C1248 1.389 . S
C1247 H1226 0.950 . S
C1247 C1246 1.373 . S
C1247 C1263 1.377 . S
C1248 C1246 1.389 . S
C1248 C1249 1.524 . S
C1248 C1262 1.377 . S
C1249 C1248 1.524 . S
C1249 C1250 1.397 . S
C1249 C1254 1.363 . S
C1250 H1227 0.950 . S
C1250 C1249 1.397 . S
C1250 C1251 1.334 . S
C1251 H1228 0.950 . S
C1251 C1250 1.334 . S
C1251 C1252 1.287 . S
C1252 C1251 1.287 . S
C1252 C1253 1.524 . S
C1252 H1271 0.913 . S
C1253 H1229 0.950 . S
C1253 C1252 1.524 . S
C1253 C1254 1.415 . S
C1254 H1230 0.950 . S
C1254 C1249 1.363 . S
C1254 C1253 1.415 . S
C1255 H1231 0.951 . S
C1255 C1256 1.366 . S
C1255 C1257 1.388 . S
C1256 C1255 1.366 . S
C1256 C1260 1.385 . S
C1257 H1232 0.951 . S
C1257 C1255 1.388 . S
C1257 C1258 1.366 . S
C1258 C1257 1.366 . S
C1258 C1259 1.414 . S
C1258 C1261 1.499 . S
C1259 H1233 0.950 . S
C1259 C1258 1.414 . S
C1259 C1260 1.374 . S
C1260 H1234 0.950 . S
C1260 C1256 1.385 . S
C1260 C1259 1.374 . S
C1261 C1258 1.499 . S
C1261 C1262 1.373 . S
C1261 C1263 1.389 . S
C1262 H1235 0.950 . S
C1262 C1248 1.377 . S
C1262 C1261 1.373 . S
C1263 C1247 1.377 . S
C1263 C1261 1.389 . S
C1263 C1264 1.524 . S
C1264 C1263 1.524 . S
C1264 C1265 1.397 . S
C1264 C1269 1.363 . S
C1265 H1236 0.950 . S
C1265 C1264 1.397 . S
C1265 C1266 1.334 . S
C1266 H1237 0.950 . S
C1266 C1265 1.334 . S
C1266 C1267 1.287 . S
C1267 C1266 1.287 . S
C1267 C1268 1.524 . S
C1267 H1270 0.999 1_655 S
C1268 H1238 0.950 . S
C1268 C1267 1.524 . S
C1268 C1269 1.415 . S
C1269 H1239 0.950 . S
C1269 C1264 1.363 . S
C1269 C1268 1.415 . S
H1270 C1267 0.999 1_455 S
H1271 C1252 0.913 . S
H1272 C1290 0.951 . S
H1273 C1292 0.951 . S
H1274 C1294 0.950 . S
H1275 C1295 0.950 . S
H1276 C1297 0.950 . S
H1277 C1300 0.950 . S
H1278 C1301 0.950 . S
H1279 C1303 0.950 . S
H1280 C1304 0.950 . S
H1281 C1305 0.951 . S
H1282 C1307 0.951 . S
H1283 C1309 0.950 . S
H1284 C1310 0.950 . S
H1285 C1312 0.950 . S
H1286 C1315 0.950 . S
H1287 C1316 0.950 . S
H1288 C1318 0.950 . S
H1289 C1319 0.950 . S
C1290 H1272 0.951 . S
C1290 C1291 1.366 . S
C1290 C1292 1.388 . S
C1291 C1290 1.366 . S
C1291 C1295 1.385 . S
C1292 H1273 0.951 . S
C1292 C1290 1.388 . S
C1292 C1293 1.366 . S
C1293 C1292 1.366 . S
C1293 C1294 1.414 . S
C1293 C1296 1.499 . S
C1294 H1274 0.950 . S
C1294 C1293 1.414 . S
C1294 C1295 1.374 . S
C1295 H1275 0.950 . S
C1295 C1291 1.385 . S
C1295 C1294 1.374 . S
C1296 C1293 1.499 . S
C1296 C1297 1.373 . S
C1296 C1298 1.389 . S
C1297 H1276 0.950 . S
C1297 C1296 1.373 . S
C1297 C1313 1.377 . S
C1298 C1296 1.389 . S
C1298 C1299 1.524 . S
C1298 C1312 1.377 . S
C1299 C1298 1.524 . S
C1299 C1300 1.397 . S
C1299 C1304 1.363 . S
C1300 H1277 0.950 . S
C1300 C1299 1.397 . S
C1300 C1301 1.334 . S
C1301 H1278 0.950 . S
C1301 C1300 1.334 . S
C1301 C1302 1.287 . S
C1302 C1301 1.287 . S
C1302 C1303 1.524 . S
C1302 H1321 0.913 . S
C1303 H1279 0.950 . S
C1303 C1302 1.524 . S
C1303 C1304 1.415 . S
C1304 H1280 0.950 . S
C1304 C1299 1.363 . S
C1304 C1303 1.415 . S
C1305 H1281 0.951 . S
C1305 C1306 1.366 . S
C1305 C1307 1.388 . S
C1306 C1305 1.366 . S
C1306 C1310 1.385 . S
C1307 H1282 0.951 . S
C1307 C1305 1.388 . S
C1307 C1308 1.366 . S
C1308 C1307 1.366 . S
C1308 C1309 1.414 . S
C1308 C1311 1.499 . S
C1309 H1283 0.950 . S
C1309 C1308 1.414 . S
C1309 C1310 1.374 . S
C1310 H1284 0.950 . S
C1310 C1306 1.385 . S
C1310 C1309 1.374 . S
C1311 C1308 1.499 . S
C1311 C1312 1.373 . S
C1311 C1313 1.389 . S
C1312 H1285 0.950 . S
C1312 C1298 1.377 . S
C1312 C1311 1.373 . S
C1313 C1297 1.377 . S
C1313 C1311 1.389 . S
C1313 C1314 1.524 . S
C1314 C1313 1.524 . S
C1314 C1315 1.397 . S
C1314 C1319 1.363 . S
C1315 H1286 0.950 . S
C1315 C1314 1.397 . S
C1315 C1316 1.334 . S
C1316 H1287 0.950 . S
C1316 C1315 1.334 . S
C1316 C1317 1.287 . S
C1317 C1316 1.287 . S
C1317 C1318 1.524 . S
C1317 H1320 0.999 . S
C1318 H1288 0.950 . S
C1318 C1317 1.524 . S
C1318 C1319 1.415 . S
C1319 H1289 0.950 . S
C1319 C1314 1.363 . S
C1319 C1318 1.415 . S
H1320 C1317 0.999 . S
H1321 C1302 0.913 . S
H1322 C1340 0.951 . S
H1323 C1342 0.951 . S
H1324 C1344 0.950 . S
H1325 C1345 0.950 . S
H1326 C1347 0.950 . S
H1327 C1350 0.950 . S
H1328 C1351 0.950 . S
H1329 C1353 0.950 . S
H1330 C1354 0.950 . S
H1331 C1355 0.951 . S
H1332 C1357 0.951 . S
H1333 C1359 0.950 . S
H1334 C1360 0.950 . S
H1335 C1362 0.950 . S
H1336 C1365 0.950 . S
H1337 C1366 0.950 . S
H1338 C1368 0.950 . S
H1339 C1369 0.950 . S
C1340 H1322 0.951 . S
C1340 C1341 1.366 . S
C1340 C1342 1.388 . S
C1341 C1340 1.366 . S
C1341 C1345 1.385 . S
C1342 H1323 0.951 . S
C1342 C1340 1.388 . S
C1342 C1343 1.366 . S
C1343 C1342 1.366 . S
C1343 C1344 1.414 . S
C1343 C1346 1.499 . S
C1344 H1324 0.950 . S
C1344 C1343 1.414 . S
C1344 C1345 1.374 . S
C1345 H1325 0.950 . S
C1345 C1341 1.385 . S
C1345 C1344 1.374 . S
C1346 C1343 1.499 . S
C1346 C1347 1.373 . S
C1346 C1348 1.389 . S
C1347 H1326 0.950 . S
C1347 C1346 1.373 . S
C1347 C1363 1.377 . S
C1348 C1346 1.389 . S
C1348 C1349 1.524 . S
C1348 C1362 1.377 . S
C1349 C1348 1.524 . S
C1349 C1350 1.397 . S
C1349 C1354 1.363 . S
C1350 H1327 0.950 . S
C1350 C1349 1.397 . S
C1350 C1351 1.334 . S
C1351 H1328 0.950 . S
C1351 C1350 1.334 . S
C1351 C1352 1.287 . S
C1352 C1351 1.287 . S
C1352 C1353 1.524 . S
C1352 H1371 0.913 . S
C1353 H1329 0.950 . S
C1353 C1352 1.524 . S
C1353 C1354 1.415 . S
C1354 H1330 0.950 . S
C1354 C1349 1.363 . S
C1354 C1353 1.415 . S
C1355 H1331 0.951 . S
C1355 C1356 1.366 . S
C1355 C1357 1.388 . S
C1356 C1355 1.366 . S
C1356 C1360 1.385 . S
C1357 H1332 0.951 . S
C1357 C1355 1.388 . S
C1357 C1358 1.366 . S
C1358 C1357 1.366 . S
C1358 C1359 1.414 . S
C1358 C1361 1.499 . S
C1359 H1333 0.950 . S
C1359 C1358 1.414 . S
C1359 C1360 1.374 . S
C1360 H1334 0.950 . S
C1360 C1356 1.385 . S
C1360 C1359 1.374 . S
C1361 C1358 1.499 . S
C1361 C1362 1.373 . S
C1361 C1363 1.389 . S
C1362 H1335 0.950 . S
C1362 C1348 1.377 . S
C1362 C1361 1.373 . S
C1363 C1347 1.377 . S
C1363 C1361 1.389 . S
C1363 C1364 1.524 . S
C1364 C1363 1.524 . S
C1364 C1365 1.397 . S
C1364 C1369 1.363 . S
C1365 H1336 0.950 . S
C1365 C1364 1.397 . S
C1365 C1366 1.334 . S
C1366 H1337 0.950 . S
C1366 C1365 1.334 . S
C1366 C1367 1.287 . S
C1367 C1366 1.287 . S
C1367 C1368 1.524 . S
C1367 H1370 0.999 . S
C1368 H1338 0.950 . S
C1368 C1367 1.524 . S
C1368 C1369 1.415 . S
C1369 H1339 0.950 . S
C1369 C1364 1.363 . S
C1369 C1368 1.415 . S
H1370 C1367 0.999 . S
H1371 C1352 0.913 . S
H1372 C1390 0.951 . S
H1373 C1392 0.951 . S
H1374 C1394 0.950 . S
H1375 C1395 0.950 . S
H1376 C1397 0.950 . S
H1377 C1400 0.950 . S
H1378 C1401 0.950 . S
H1379 C1403 0.950 . S
H1380 C1404 0.950 . S
H1381 C1405 0.951 . S
H1382 C1407 0.951 . S
H1383 C1409 0.950 . S
H1384 C1410 0.950 . S
H1385 C1412 0.950 . S
H1386 C1415 0.950 . S
H1387 C1416 0.950 . S
H1388 C1418 0.950 . S
H1389 C1419 0.950 . S
C1390 H1372 0.951 . S
C1390 C1391 1.366 . S
C1390 C1392 1.388 . S
C1391 C1390 1.366 . S
C1391 C1395 1.385 . S
C1392 H1373 0.951 . S
C1392 C1390 1.388 . S
C1392 C1393 1.366 . S
C1393 C1392 1.366 . S
C1393 C1394 1.414 . S
C1393 C1396 1.499 . S
C1394 H1374 0.950 . S
C1394 C1393 1.414 . S
C1394 C1395 1.374 . S
C1395 H1375 0.950 . S
C1395 C1391 1.385 . S
C1395 C1394 1.374 . S
C1396 C1393 1.499 . S
C1396 C1397 1.373 . S
C1396 C1398 1.389 . S
C1397 H1376 0.950 . S
C1397 C1396 1.373 . S
C1397 C1413 1.377 . S
C1398 C1396 1.389 . S
C1398 C1399 1.524 . S
C1398 C1412 1.377 . S
C1399 C1398 1.524 . S
C1399 C1400 1.397 . S
C1399 C1404 1.363 . S
C1400 H1377 0.950 . S
C1400 C1399 1.397 . S
C1400 C1401 1.334 . S
C1401 H1378 0.950 . S
C1401 C1400 1.334 . S
C1401 C1402 1.287 . S
C1402 C1401 1.287 . S
C1402 C1403 1.524 . S
C1402 H1421 0.913 . S
C1403 H1379 0.950 . S
C1403 C1402 1.524 . S
C1403 C1404 1.415 . S
C1404 H1380 0.950 . S
C1404 C1399 1.363 . S
C1404 C1403 1.415 . S
C1405 H1381 0.951 . S
C1405 C1406 1.366 . S
C1405 C1407 1.388 . S
C1406 C1405 1.366 . S
C1406 C1410 1.385 . S
C1407 H1382 0.951 . S
C1407 C1405 1.388 . S
C1407 C1408 1.366 . S
C1408 C1407 1.366 . S
C1408 C1409 1.414 . S
C1408 C1411 1.499 . S
C1409 H1383 0.950 . S
C1409 C1408 1.414 . S
C1409 C1410 1.374 . S
C1410 H1384 0.950 . S
C1410 C1406 1.385 . S
C1410 C1409 1.374 . S
C1411 C1408 1.499 . S
C1411 C1412 1.373 . S
C1411 C1413 1.389 . S
C1412 H1385 0.950 . S
C1412 C1398 1.377 . S
C1412 C1411 1.373 . S
C1413 C1397 1.377 . S
C1413 C1411 1.389 . S
C1413 C1414 1.524 . S
C1414 C1413 1.524 . S
C1414 C1415 1.397 . S
C1414 C1419 1.363 . S
C1415 H1386 0.950 . S
C1415 C1414 1.397 . S
C1415 C1416 1.334 . S
C1416 H1387 0.950 . S
C1416 C1415 1.334 . S
C1416 C1417 1.287 . S
C1417 C1416 1.287 . S
C1417 C1418 1.524 . S
C1417 H1420 0.999 . S
C1418 H1388 0.950 . S
C1418 C1417 1.524 . S
C1418 C1419 1.415 . S
C1419 H1389 0.950 . S
C1419 C1414 1.363 . S
C1419 C1418 1.415 . S
H1420 C1417 0.999 . S
H1421 C1402 0.913 . S
H1422 C1440 0.951 . S
H1423 C1442 0.951 . S
H1424 C1444 0.950 . S
H1425 C1445 0.950 . S
H1426 C1447 0.950 . S
H1427 C1450 0.950 . S
H1428 C1451 0.950 . S
H1429 C1453 0.950 . S
H1430 C1454 0.950 . S
H1431 C1455 0.951 . S
H1432 C1457 0.951 . S
H1433 C1459 0.950 . S
H1434 C1460 0.950 . S
H1435 C1462 0.950 . S
H1436 C1465 0.950 . S
H1437 C1466 0.950 . S
H1438 C1468 0.950 . S
H1439 C1469 0.950 . S
C1440 H1422 0.951 . S
C1440 C1441 1.366 . S
C1440 C1442 1.388 . S
C1441 C1440 1.366 . S
C1441 C1445 1.385 . S
C1442 H1423 0.951 . S
C1442 C1440 1.388 . S
C1442 C1443 1.366 . S
C1443 C1442 1.366 . S
C1443 C1444 1.414 . S
C1443 C1446 1.499 . S
C1444 H1424 0.950 . S
C1444 C1443 1.414 . S
C1444 C1445 1.374 . S
C1445 H1425 0.950 . S
C1445 C1441 1.385 . S
C1445 C1444 1.374 . S
C1446 C1443 1.499 . S
C1446 C1447 1.373 . S
C1446 C1448 1.389 . S
C1447 H1426 0.950 . S
C1447 C1446 1.373 . S
C1447 C1463 1.377 . S
C1448 C1446 1.389 . S
C1448 C1449 1.524 . S
C1448 C1462 1.377 . S
C1449 C1448 1.524 . S
C1449 C1450 1.397 . S
C1449 C1454 1.363 . S
C1450 H1427 0.950 . S
C1450 C1449 1.397 . S
C1450 C1451 1.334 . S
C1451 H1428 0.950 . S
C1451 C1450 1.334 . S
C1451 C1452 1.287 . S
C1452 C1451 1.287 . S
C1452 C1453 1.524 . S
C1452 H1471 0.913 . S
C1453 H1429 0.950 . S
C1453 C1452 1.524 . S
C1453 C1454 1.415 . S
C1454 H1430 0.950 . S
C1454 C1449 1.363 . S
C1454 C1453 1.415 . S
C1455 H1431 0.951 . S
C1455 C1456 1.366 . S
C1455 C1457 1.388 . S
C1456 C1455 1.366 . S
C1456 C1460 1.385 . S
C1457 H1432 0.951 . S
C1457 C1455 1.388 . S
C1457 C1458 1.366 . S
C1458 C1457 1.366 . S
C1458 C1459 1.414 . S
C1458 C1461 1.499 . S
C1459 H1433 0.950 . S
C1459 C1458 1.414 . S
C1459 C1460 1.374 . S
C1460 H1434 0.950 . S
C1460 C1456 1.385 . S
C1460 C1459 1.374 . S
C1461 C1458 1.499 . S
C1461 C1462 1.373 . S
C1461 C1463 1.389 . S
C1462 H1435 0.950 . S
C1462 C1448 1.377 . S
C1462 C1461 1.373 . S
C1463 C1447 1.377 . S
C1463 C1461 1.389 . S
C1463 C1464 1.524 . S
C1464 C1463 1.524 . S
C1464 C1465 1.397 . S
C1464 C1469 1.363 . S
C1465 H1436 0.950 . S
C1465 C1464 1.397 . S
C1465 C1466 1.334 . S
C1466 H1437 0.950 . S
C1466 C1465 1.334 . S
C1466 C1467 1.287 . S
C1467 C1466 1.287 . S
C1467 C1468 1.524 . S
C1467 H1470 0.999 . S
C1468 H1438 0.950 . S
C1468 C1467 1.524 . S
C1468 C1469 1.415 . S
C1469 H1439 0.950 . S
C1469 C1464 1.363 . S
C1469 C1468 1.415 . S
H1470 C1467 0.999 . S
H1471 C1452 0.913 . S
H1472 C1490 0.951 . S
H1473 C1492 0.951 . S
H1474 C1494 0.950 . S
H1475 C1495 0.950 . S
H1476 C1497 0.950 . S
H1477 C1500 0.950 . S
H1478 C1501 0.950 . S
H1479 C1503 0.950 . S
H1480 C1504 0.950 1_655 S
H1481 C1505 0.951 . S
H1482 C1507 0.951 . S
H1483 C1509 0.950 . S
H1484 C1510 0.950 . S
H1485 C1512 0.950 . S
H1486 C1515 0.950 . S
H1487 C1516 0.950 . S
H1488 C1518 0.950 . S
H1489 C1519 0.950 1_455 S
C1490 H1472 0.951 . S
C1490 C1491 1.366 1_545 S
C1490 C1492 1.388 . S
C1491 C1490 1.366 1_565 S
C1491 C1495 1.385 1_655 S
C1492 H1473 0.951 . S
C1492 C1490 1.388 . S
C1492 C1493 1.368 1_545 S
C1493 C1492 1.368 1_565 S
C1493 C1494 1.412 1_655 S
C1493 C1496 1.498 1_655 S
C1494 H1474 0.950 . S
C1494 C1493 1.412 1_455 S
C1494 C1495 1.374 . S
C1495 H1475 0.950 . S
C1495 C1491 1.385 1_455 S
C1495 C1494 1.374 . S
C1496 C1493 1.498 1_455 S
C1496 C1497 1.373 1_455 S
C1496 C1498 1.389 1_565 S
C1497 H1476 0.950 . S
C1497 C1496 1.373 1_655 S
C1497 C1513 1.377 1_556 S
C1498 C1496 1.389 1_545 S
C1498 C1499 1.524 . S
C1498 C1512 1.377 1_556 S
C1499 C1498 1.524 . S
C1499 C1500 1.397 . S
C1499 C1504 1.363 . S
C1500 H1477 0.950 . S
C1500 C1499 1.397 . S
C1500 C1501 1.334 . S
C1501 H1478 0.950 . S
C1501 C1500 1.334 . S
C1501 C1502 1.287 . S
C1502 C1501 1.287 . S
C1502 C1503 1.524 . S
C1502 H1521 0.913 . S
C1503 H1479 0.950 . S
C1503 C1502 1.524 . S
C1503 C1504 1.415 . S
C1504 H1480 0.950 1_455 S
C1504 C1499 1.363 . S
C1504 C1503 1.415 . S
C1505 H1481 0.951 . S
C1505 C1506 1.366 1_565 S
C1505 C1507 1.388 . S
C1506 C1505 1.366 1_545 S
C1506 C1510 1.385 1_455 S
C1507 H1482 0.951 . S
C1507 C1505 1.388 . S
C1507 C1508 1.373 1_565 S
C1508 C1507 1.373 1_545 S
C1508 C1509 1.408 1_455 S
C1508 C1511 1.498 1_455 S
C1509 H1483 0.950 . S
C1509 C1508 1.408 1_655 S
C1509 C1510 1.374 . S
C1510 H1484 0.950 . S
C1510 C1506 1.385 1_655 S
C1510 C1509 1.374 . S
C1511 C1508 1.498 1_655 S
C1511 C1512 1.362 1_655 S
C1511 C1513 1.400 1_545 S
C1512 H1485 0.950 . S
C1512 C1498 1.377 1_554 S
C1512 C1511 1.362 1_455 S
C1513 C1497 1.377 1_554 S
C1513 C1511 1.400 1_565 S
C1513 C1514 1.524 . S
C1514 C1513 1.524 . S
C1514 C1515 1.397 . S
C1514 C1519 1.363 . S
C1515 H1486 0.950 . S
C1515 C1514 1.397 . S
C1515 C1516 1.334 . S
C1516 H1487 0.950 . S
C1516 C1515 1.334 . S
C1516 C1517 1.287 . S
C1517 C1516 1.287 . S
C1517 C1518 1.524 . S
C1517 H1520 0.999 . S
C1518 H1488 0.950 . S
C1518 C1517 1.524 . S
C1518 C1519 1.415 . S
C1519 H1489 0.950 1_655 S
C1519 C1514 1.363 . S
C1519 C1518 1.415 . S
H1520 C1517 0.999 . S
H1521 C1502 0.913 . S
H1522 C1540 0.951 . S
H1523 C1542 0.951 . S
H1524 C1544 0.950 . S
H1525 C1545 0.950 . S
H1526 C1547 0.950 . S
H1527 C1550 0.950 . S
H1528 C1551 0.950 . S
H1529 C1553 0.950 . S
H1530 C1554 0.950 . S
H1531 C1555 0.951 . S
H1532 C1557 0.951 . S
H1533 C1559 0.950 . S
H1534 C1560 0.950 . S
H1535 C1562 0.950 . S
H1536 C1565 0.950 . S
H1537 C1566 0.950 . S
H1538 C1568 0.950 . S
H1539 C1569 0.950 . S
C1540 H1522 0.951 . S
C1540 C1541 1.366 . S
C1540 C1542 1.388 . S
C1541 C1540 1.366 . S
C1541 C1545 1.385 . S
C1542 H1523 0.951 . S
C1542 C1540 1.388 . S
C1542 C1543 1.366 . S
C1543 C1542 1.366 . S
C1543 C1544 1.414 . S
C1543 C1546 1.499 . S
C1544 H1524 0.950 . S
C1544 C1543 1.414 . S
C1544 C1545 1.374 . S
C1545 H1525 0.950 . S
C1545 C1541 1.385 . S
C1545 C1544 1.374 . S
C1546 C1543 1.499 . S
C1546 C1547 1.373 . S
C1546 C1548 1.389 . S
C1547 H1526 0.950 . S
C1547 C1546 1.373 . S
C1547 C1563 1.377 . S
C1548 C1546 1.389 . S
C1548 C1549 1.524 . S
C1548 C1562 1.377 . S
C1549 C1548 1.524 . S
C1549 C1550 1.397 . S
C1549 C1554 1.363 . S
C1550 H1527 0.950 . S
C1550 C1549 1.397 . S
C1550 C1551 1.334 . S
C1551 H1528 0.950 . S
C1551 C1550 1.334 . S
C1551 C1552 1.287 . S
C1552 C1551 1.287 . S
C1552 C1553 1.524 . S
C1552 H1571 0.913 . S
C1553 H1529 0.950 . S
C1553 C1552 1.524 . S
C1553 C1554 1.415 . S
C1554 H1530 0.950 . S
C1554 C1549 1.363 . S
C1554 C1553 1.415 . S
C1555 H1531 0.951 . S
C1555 C1556 1.366 . S
C1555 C1557 1.388 . S
C1556 C1555 1.366 . S
C1556 C1560 1.385 . S
C1557 H1532 0.951 . S
C1557 C1555 1.388 . S
C1557 C1558 1.366 . S
C1558 C1557 1.366 . S
C1558 C1559 1.414 . S
C1558 C1561 1.499 . S
C1559 H1533 0.950 . S
C1559 C1558 1.414 . S
C1559 C1560 1.374 . S
C1560 H1534 0.950 . S
C1560 C1556 1.385 . S
C1560 C1559 1.374 . S
C1561 C1558 1.499 . S
C1561 C1562 1.373 . S
C1561 C1563 1.389 . S
C1562 H1535 0.950 . S
C1562 C1548 1.377 . S
C1562 C1561 1.373 . S
C1563 C1547 1.377 . S
C1563 C1561 1.389 . S
C1563 C1564 1.524 . S
C1564 C1563 1.524 . S
C1564 C1565 1.397 . S
C1564 C1569 1.363 . S
C1565 H1536 0.950 . S
C1565 C1564 1.397 . S
C1565 C1566 1.334 . S
C1566 H1537 0.950 . S
C1566 C1565 1.334 . S
C1566 C1567 1.287 . S
C1567 C1566 1.287 . S
C1567 C1568 1.524 . S
C1567 H1570 0.999 . S
C1568 H1538 0.950 . S
C1568 C1567 1.524 . S
C1568 C1569 1.415 . S
C1569 H1539 0.950 . S
C1569 C1564 1.363 . S
C1569 C1568 1.415 . S
H1570 C1567 0.999 . S
H1571 C1552 0.913 . S
H1572 C1590 0.951 . S
H1573 C1592 0.951 . S
H1574 C1594 0.950 . S
H1575 C1595 0.950 . S
H1576 C1597 0.950 . S
H1577 C1600 0.950 . S
H1578 C1601 0.950 . S
H1579 C1603 0.950 . S
H1580 C1604 0.950 . S
H1581 C1605 0.951 . S
H1582 C1607 0.951 . S
H1583 C1609 0.950 . S
H1584 C1610 0.950 . S
H1585 C1612 0.950 . S
H1586 C1615 0.950 . S
H1587 C1616 0.950 . S
H1588 C1618 0.950 . S
H1589 C1619 0.950 . S
C1590 H1572 0.951 . S
C1590 C1591 1.366 . S
C1590 C1592 1.388 . S
C1591 C1590 1.366 . S
C1591 C1595 1.385 1_565 S
C1592 H1573 0.951 . S
C1592 C1590 1.388 . S
C1592 C1593 1.366 . S
C1593 C1592 1.366 . S
C1593 C1594 1.414 1_565 S
C1593 C1596 1.499 . S
C1594 H1574 0.950 . S
C1594 C1593 1.414 1_545 S
C1594 C1595 1.374 . S
C1595 H1575 0.950 . S
C1595 C1591 1.385 1_545 S
C1595 C1594 1.374 . S
C1596 C1593 1.499 . S
C1596 C1597 1.373 1_565 S
C1596 C1598 1.389 . S
C1597 H1576 0.950 . S
C1597 C1596 1.373 1_545 S
C1597 C1613 1.377 . S
C1598 C1596 1.389 . S
C1598 C1599 1.524 . S
C1598 C1612 1.377 . S
C1599 C1598 1.524 . S
C1599 C1600 1.397 . S
C1599 C1604 1.363 . S
C1600 H1577 0.950 . S
C1600 C1599 1.397 . S
C1600 C1601 1.334 . S
C1601 H1578 0.950 . S
C1601 C1600 1.334 . S
C1601 C1602 1.287 . S
C1602 C1601 1.287 . S
C1602 C1603 1.524 . S
C1602 H1621 0.913 . S
C1603 H1579 0.950 . S
C1603 C1602 1.524 . S
C1603 C1604 1.415 . S
C1604 H1580 0.950 . S
C1604 C1599 1.363 . S
C1604 C1603 1.415 . S
C1605 H1581 0.951 . S
C1605 C1606 1.366 . S
C1605 C1607 1.388 . S
C1606 C1605 1.366 . S
C1606 C1610 1.385 1_545 S
C1607 H1582 0.951 . S
C1607 C1605 1.388 . S
C1607 C1608 1.366 . S
C1608 C1607 1.366 . S
C1608 C1609 1.414 1_545 S
C1608 C1611 1.499 . S
C1609 H1583 0.950 . S
C1609 C1608 1.414 1_565 S
C1609 C1610 1.374 . S
C1610 H1584 0.950 . S
C1610 C1606 1.385 1_565 S
C1610 C1609 1.374 . S
C1611 C1608 1.499 . S
C1611 C1612 1.373 1_545 S
C1611 C1613 1.389 . S
C1612 H1585 0.950 . S
C1612 C1598 1.377 . S
C1612 C1611 1.373 1_565 S
C1613 C1597 1.377 . S
C1613 C1611 1.389 . S
C1613 C1614 1.524 . S
C1614 C1613 1.524 . S
C1614 C1615 1.397 . S
C1614 C1619 1.363 . S
C1615 H1586 0.950 . S
C1615 C1614 1.397 . S
C1615 C1616 1.334 . S
C1616 H1587 0.950 . S
C1616 C1615 1.334 . S
C1616 C1617 1.287 . S
C1617 C1616 1.287 . S
C1617 C1618 1.524 . S
C1617 H1620 0.999 . S
C1618 H1588 0.950 . S
C1618 C1617 1.524 . S
C1618 C1619 1.415 . S
C1619 H1589 0.950 . S
C1619 C1614 1.363 . S
C1619 C1618 1.415 . S
H1620 C1617 0.999 . S
H1621 C1602 0.913 . S
H1622 C1640 0.951 . S
H1623 C1642 0.951 . S
H1624 C1644 0.950 . S
H1625 C1645 0.950 . S
H1626 C1647 0.950 . S
H1627 C1650 0.950 . S
H1628 C1651 0.950 . S
H1629 C1653 0.950 . S
H1630 C1654 0.950 . S
H1631 C1655 0.951 . S
H1632 C1657 0.951 . S
H1633 C1659 0.950 . S
H1634 C1660 0.950 . S
H1635 C1662 0.950 . S
H1636 C1665 0.950 . S
H1637 C1666 0.950 . S
H1638 C1668 0.950 . S
H1639 C1669 0.950 . S
C1640 H1622 0.951 . S
C1640 C1641 1.366 . S
C1640 C1642 1.388 . S
C1641 C1640 1.366 . S
C1641 C1645 1.385 . S
C1642 H1623 0.951 . S
C1642 C1640 1.388 . S
C1642 C1643 1.366 . S
C1643 C1642 1.366 . S
C1643 C1644 1.414 . S
C1643 C1646 1.499 . S
C1644 H1624 0.950 . S
C1644 C1643 1.414 . S
C1644 C1645 1.374 . S
C1645 H1625 0.950 . S
C1645 C1641 1.385 . S
C1645 C1644 1.374 . S
C1646 C1643 1.499 . S
C1646 C1647 1.373 . S
C1646 C1648 1.389 . S
C1647 H1626 0.950 . S
C1647 C1646 1.373 . S
C1647 C1663 1.377 . S
C1648 C1646 1.389 . S
C1648 C1649 1.524 . S
C1648 C1662 1.377 . S
C1649 C1648 1.524 . S
C1649 C1650 1.397 . S
C1649 C1654 1.363 . S
C1650 H1627 0.950 . S
C1650 C1649 1.397 . S
C1650 C1651 1.334 . S
C1651 H1628 0.950 . S
C1651 C1650 1.334 . S
C1651 C1652 1.287 . S
C1652 C1651 1.287 . S
C1652 C1653 1.524 . S
C1652 H1671 0.913 . S
C1653 H1629 0.950 . S
C1653 C1652 1.524 . S
C1653 C1654 1.415 . S
C1654 H1630 0.950 . S
C1654 C1649 1.363 . S
C1654 C1653 1.415 . S
C1655 H1631 0.951 . S
C1655 C1656 1.366 . S
C1655 C1657 1.388 . S
C1656 C1655 1.366 . S
C1656 C1660 1.385 . S
C1657 H1632 0.951 . S
C1657 C1655 1.388 . S
C1657 C1658 1.366 . S
C1658 C1657 1.366 . S
C1658 C1659 1.414 . S
C1658 C1661 1.499 . S
C1659 H1633 0.950 . S
C1659 C1658 1.414 . S
C1659 C1660 1.374 . S
C1660 H1634 0.950 . S
C1660 C1656 1.385 . S
C1660 C1659 1.374 . S
C1661 C1658 1.499 . S
C1661 C1662 1.373 . S
C1661 C1663 1.389 . S
C1662 H1635 0.950 . S
C1662 C1648 1.377 . S
C1662 C1661 1.373 . S
C1663 C1647 1.377 . S
C1663 C1661 1.389 . S
C1663 C1664 1.524 . S
C1664 C1663 1.524 . S
C1664 C1665 1.397 . S
C1664 C1669 1.363 . S
C1665 H1636 0.950 . S
C1665 C1664 1.397 . S
C1665 C1666 1.334 . S
C1666 H1637 0.950 . S
C1666 C1665 1.334 . S
C1666 C1667 1.287 . S
C1667 C1666 1.287 . S
C1667 C1668 1.524 . S
C1667 H1670 0.999 . S
C1668 H1638 0.950 . S
C1668 C1667 1.524 . S
C1668 C1669 1.415 . S
C1669 H1639 0.950 . S
C1669 C1664 1.363 . S
C1669 C1668 1.415 . S
H1670 C1667 0.999 . S
H1671 C1652 0.913 . S
H1672 C1690 0.951 . S
H1673 C1692 0.951 . S
H1674 C1694 0.950 . S
H1675 C1695 0.950 . S
H1676 C1697 0.950 . S
H1677 C1700 0.950 . S
H1678 C1701 0.950 . S
H1679 C1703 0.950 . S
H1680 C1704 0.950 . S
H1681 C1705 0.951 . S
H1682 C1707 0.951 . S
H1683 C1709 0.950 . S
H1684 C1710 0.950 . S
H1685 C1712 0.950 . S
H1686 C1715 0.950 . S
H1687 C1716 0.950 . S
H1688 C1718 0.950 . S
H1689 C1719 0.950 . S
C1690 H1672 0.951 . S
C1690 C1691 1.366 . S
C1690 C1692 1.388 . S
C1691 C1690 1.366 . S
C1691 C1695 1.385 . S
C1692 H1673 0.951 . S
C1692 C1690 1.388 . S
C1692 C1693 1.366 . S
C1693 C1692 1.366 . S
C1693 C1694 1.414 . S
C1693 C1696 1.499 . S
C1694 H1674 0.950 . S
C1694 C1693 1.414 . S
C1694 C1695 1.374 . S
C1695 H1675 0.950 . S
C1695 C1691 1.385 . S
C1695 C1694 1.374 . S
C1696 C1693 1.499 . S
C1696 C1697 1.373 . S
C1696 C1698 1.389 . S
C1697 H1676 0.950 . S
C1697 C1696 1.373 . S
C1697 C1713 1.377 . S
C1698 C1696 1.389 . S
C1698 C1699 1.524 . S
C1698 C1712 1.377 . S
C1699 C1698 1.524 . S
C1699 C1700 1.397 . S
C1699 C1704 1.363 . S
C1700 H1677 0.950 . S
C1700 C1699 1.397 . S
C1700 C1701 1.334 . S
C1701 H1678 0.950 . S
C1701 C1700 1.334 . S
C1701 C1702 1.287 . S
C1702 C1701 1.287 . S
C1702 C1703 1.524 . S
C1702 H1721 0.913 . S
C1703 H1679 0.950 . S
C1703 C1702 1.524 . S
C1703 C1704 1.415 . S
C1704 H1680 0.950 . S
C1704 C1699 1.363 . S
C1704 C1703 1.415 . S
C1705 H1681 0.951 . S
C1705 C1706 1.366 . S
C1705 C1707 1.388 . S
C1706 C1705 1.366 . S
C1706 C1710 1.385 . S
C1707 H1682 0.951 . S
C1707 C1705 1.388 . S
C1707 C1708 1.366 . S
C1708 C1707 1.366 . S
C1708 C1709 1.414 . S
C1708 C1711 1.499 . S
C1709 H1683 0.950 . S
C1709 C1708 1.414 . S
C1709 C1710 1.374 . S
C1710 H1684 0.950 . S
C1710 C1706 1.385 . S
C1710 C1709 1.374 . S
C1711 C1708 1.499 . S
C1711 C1712 1.373 . S
C1711 C1713 1.389 . S
C1712 H1685 0.950 . S
C1712 C1698 1.377 . S
C1712 C1711 1.373 . S
C1713 C1697 1.377 . S
C1713 C1711 1.389 . S
C1713 C1714 1.524 . S
C1714 C1713 1.524 . S
C1714 C1715 1.397 . S
C1714 C1719 1.363 . S
C1715 H1686 0.950 . S
C1715 C1714 1.397 . S
C1715 C1716 1.334 . S
C1716 H1687 0.950 . S
C1716 C1715 1.334 . S
C1716 C1717 1.287 . S
C1717 C1716 1.287 . S
C1717 C1718 1.524 . S
C1717 H1720 0.999 . S
C1718 H1688 0.950 . S
C1718 C1717 1.524 . S
C1718 C1719 1.415 . S
C1719 H1689 0.950 . S
C1719 C1714 1.363 . S
C1719 C1718 1.415 . S
H1720 C1717 0.999 . S
H1721 C1702 0.913 . S
H1722 C1740 0.951 . S
H1723 C1742 0.951 . S
H1724 C1744 0.950 . S
H1725 C1745 0.950 . S
H1726 C1747 0.950 . S
H1727 C1750 0.950 . S
H1728 C1751 0.950 . S
H1729 C1753 0.950 . S
H1730 C1754 0.950 . S
H1731 C1755 0.951 . S
H1732 C1757 0.951 . S
H1733 C1759 0.950 . S
H1734 C1760 0.950 . S
H1735 C1762 0.950 . S
H1736 C1765 0.950 . S
H1737 C1766 0.950 . S
H1738 C1768 0.950 . S
H1739 C1769 0.950 . S
C1740 H1722 0.951 . S
C1740 C1741 1.366 . S
C1740 C1742 1.388 . S
C1741 C1740 1.366 . S
C1741 C1745 1.385 . S
C1742 H1723 0.951 . S
C1742 C1740 1.388 . S
C1742 C1743 1.366 . S
C1743 C1742 1.366 . S
C1743 C1744 1.414 . S
C1743 C1746 1.499 . S
C1744 H1724 0.950 . S
C1744 C1743 1.414 . S
C1744 C1745 1.374 . S
C1745 H1725 0.950 . S
C1745 C1741 1.385 . S
C1745 C1744 1.374 . S
C1746 C1743 1.499 . S
C1746 C1747 1.373 . S
C1746 C1748 1.389 . S
C1747 H1726 0.950 . S
C1747 C1746 1.373 . S
C1747 C1763 1.377 . S
C1748 C1746 1.389 . S
C1748 C1749 1.524 . S
C1748 C1762 1.377 . S
C1749 C1748 1.524 . S
C1749 C1750 1.397 . S
C1749 C1754 1.363 . S
C1750 H1727 0.950 . S
C1750 C1749 1.397 . S
C1750 C1751 1.334 . S
C1751 H1728 0.950 . S
C1751 C1750 1.334 . S
C1751 C1752 1.287 . S
C1752 C1751 1.287 . S
C1752 C1753 1.524 . S
C1752 H1771 0.913 . S
C1753 H1729 0.950 . S
C1753 C1752 1.524 . S
C1753 C1754 1.415 . S
C1754 H1730 0.950 . S
C1754 C1749 1.363 . S
C1754 C1753 1.415 . S
C1755 H1731 0.951 . S
C1755 C1756 1.366 . S
C1755 C1757 1.388 . S
C1756 C1755 1.366 . S
C1756 C1760 1.385 . S
C1757 H1732 0.951 . S
C1757 C1755 1.388 . S
C1757 C1758 1.366 . S
C1758 C1757 1.366 . S
C1758 C1759 1.414 . S
C1758 C1761 1.499 . S
C1759 H1733 0.950 . S
C1759 C1758 1.414 . S
C1759 C1760 1.374 . S
C1760 H1734 0.950 . S
C1760 C1756 1.385 . S
C1760 C1759 1.374 . S
C1761 C1758 1.499 . S
C1761 C1762 1.373 . S
C1761 C1763 1.389 . S
C1762 H1735 0.950 . S
C1762 C1748 1.377 . S
C1762 C1761 1.373 . S
C1763 C1747 1.377 . S
C1763 C1761 1.389 . S
C1763 C1764 1.524 . S
C1764 C1763 1.524 . S
C1764 C1765 1.397 . S
C1764 C1769 1.363 . S
C1765 H1736 0.950 . S
C1765 C1764 1.397 . S
C1765 C1766 1.334 . S
C1766 H1737 0.950 . S
C1766 C1765 1.334 . S
C1766 C1767 1.287 . S
C1767 C1766 1.287 . S
C1767 C1768 1.524 . S
C1767 H1770 0.999 . S
C1768 H1738 0.950 . S
C1768 C1767 1.524 . S
C1768 C1769 1.415 . S
C1769 H1739 0.950 . S
C1769 C1764 1.363 . S
C1769 C1768 1.415 . S
H1770 C1767 0.999 . S
H1771 C1752 0.913 . S
H1772 C1790 0.951 . S
H1773 C1792 0.951 . S
H1774 C1794 0.950 . S
H1775 C1795 0.950 . S
H1776 C1797 0.950 . S
H1777 C1800 0.950 . S
H1778 C1801 0.950 . S
H1779 C1803 0.950 . S
H1780 C1804 0.950 . S
H1781 C1805 0.951 . S
H1782 C1807 0.951 . S
H1783 C1809 0.950 . S
H1784 C1810 0.950 . S
H1785 C1812 0.950 . S
H1786 C1815 0.950 . S
H1787 C1816 0.950 . S
H1788 C1818 0.950 . S
H1789 C1819 0.950 . S
C1790 H1772 0.951 . S
C1790 C1791 1.366 . S
C1790 C1792 1.388 . S
C1791 C1790 1.366 . S
C1791 C1795 1.385 . S
C1792 H1773 0.951 . S
C1792 C1790 1.388 . S
C1792 C1793 1.366 . S
C1793 C1792 1.366 . S
C1793 C1794 1.414 . S
C1793 C1796 1.499 . S
C1794 H1774 0.950 . S
C1794 C1793 1.414 . S
C1794 C1795 1.374 . S
C1795 H1775 0.950 . S
C1795 C1791 1.385 . S
C1795 C1794 1.374 . S
C1796 C1793 1.499 . S
C1796 C1797 1.373 . S
C1796 C1798 1.389 . S
C1797 H1776 0.950 . S
C1797 C1796 1.373 . S
C1797 C1813 1.377 . S
C1798 C1796 1.389 . S
C1798 C1799 1.524 . S
C1798 C1812 1.377 . S
C1799 C1798 1.524 . S
C1799 C1800 1.397 . S
C1799 C1804 1.363 . S
C1800 H1777 0.950 . S
C1800 C1799 1.397 . S
C1800 C1801 1.334 . S
C1801 H1778 0.950 . S
C1801 C1800 1.334 . S
C1801 C1802 1.287 . S
C1802 C1801 1.287 . S
C1802 C1803 1.524 . S
C1802 H1821 0.913 . S
C1803 H1779 0.950 . S
C1803 C1802 1.524 . S
C1803 C1804 1.415 . S
C1804 H1780 0.950 . S
C1804 C1799 1.363 . S
C1804 C1803 1.415 . S
C1805 H1781 0.951 . S
C1805 C1806 1.366 . S
C1805 C1807 1.388 . S
C1806 C1805 1.366 . S
C1806 C1810 1.385 . S
C1807 H1782 0.951 . S
C1807 C1805 1.388 . S
C1807 C1808 1.366 . S
C1808 C1807 1.366 . S
C1808 C1809 1.414 . S
C1808 C1811 1.499 . S
C1809 H1783 0.950 . S
C1809 C1808 1.414 . S
C1809 C1810 1.374 . S
C1810 H1784 0.950 . S
C1810 C1806 1.385 . S
C1810 C1809 1.374 . S
C1811 C1808 1.499 . S
C1811 C1812 1.373 . S
C1811 C1813 1.389 . S
C1812 H1785 0.950 . S
C1812 C1798 1.377 . S
C1812 C1811 1.373 . S
C1813 C1797 1.377 . S
C1813 C1811 1.389 . S
C1813 C1814 1.524 . S
C1814 C1813 1.524 . S
C1814 C1815 1.397 . S
C1814 C1819 1.363 . S
C1815 H1786 0.950 . S
C1815 C1814 1.397 . S
C1815 C1816 1.334 . S
C1816 H1787 0.950 . S
C1816 C1815 1.334 . S
C1816 C1817 1.287 . S
C1817 C1816 1.287 . S
C1817 C1818 1.524 . S
C1817 H1820 0.999 . S
C1818 H1788 0.950 . S
C1818 C1817 1.524 . S
C1818 C1819 1.415 . S
C1819 H1789 0.950 . S
C1819 C1814 1.363 . S
C1819 C1818 1.415 . S
H1820 C1817 0.999 . S
H1821 C1802 0.913 . S
H1822 C1840 0.951 . S
H1823 C1842 0.951 . S
H1824 C1844 0.950 . S
H1825 C1845 0.950 . S
H1826 C1847 0.950 . S
H1827 C1850 0.950 . S
H1828 C1851 0.950 . S
H1829 C1853 0.950 . S
H1830 C1854 0.950 . S
H1831 C1855 0.951 . S
H1832 C1857 0.951 . S
H1833 C1859 0.950 . S
H1834 C1860 0.950 . S
H1835 C1862 0.950 . S
H1836 C1865 0.950 . S
H1837 C1866 0.950 . S
H1838 C1868 0.950 . S
H1839 C1869 0.950 . S
C1840 H1822 0.951 . S
C1840 C1841 1.366 1_455 S
C1840 C1842 1.388 . S
C1841 C1840 1.366 1_655 S
C1841 C1845 1.385 . S
C1842 H1823 0.951 . S
C1842 C1840 1.388 . S
C1842 C1843 1.366 1_455 S
C1843 C1842 1.366 1_655 S
C1843 C1844 1.414 . S
C1843 C1846 1.499 . S
C1844 H1824 0.950 . S
C1844 C1843 1.414 . S
C1844 C1845 1.374 . S
C1845 H1825 0.950 . S
C1845 C1841 1.385 . S
C1845 C1844 1.374 . S
C1846 C1843 1.499 . S
C1846 C1847 1.373 1_655 S
C1846 C1848 1.389 . S
C1847 H1826 0.950 . S
C1847 C1846 1.373 1_455 S
C1847 C1863 1.377 1_556 S
C1848 C1846 1.389 . S
C1848 C1849 1.524 . S
C1848 C1862 1.377 1_556 S
C1849 C1848 1.524 . S
C1849 C1850 1.397 . S
C1849 C1854 1.363 . S
C1850 H1827 0.950 . S
C1850 C1849 1.397 . S
C1850 C1851 1.334 . S
C1851 H1828 0.950 . S
C1851 C1850 1.334 . S
C1851 C1852 1.287 . S
C1852 C1851 1.287 . S
C1852 C1853 1.524 . S
C1852 H1871 0.913 . S
C1853 H1829 0.950 . S
C1853 C1852 1.524 . S
C1853 C1854 1.415 . S
C1854 H1830 0.950 . S
C1854 C1849 1.363 . S
C1854 C1853 1.415 . S
C1855 H1831 0.951 . S
C1855 C1856 1.366 1_655 S
C1855 C1857 1.388 . S
C1856 C1855 1.366 1_455 S
C1856 C1860 1.385 . S
C1857 H1832 0.951 . S
C1857 C1855 1.388 . S
C1857 C1858 1.366 1_655 S
C1858 C1857 1.366 1_455 S
C1858 C1859 1.414 . S
C1858 C1861 1.499 . S
C1859 H1833 0.950 . S
C1859 C1858 1.414 . S
C1859 C1860 1.374 . S
C1860 H1834 0.950 . S
C1860 C1856 1.385 . S
C1860 C1859 1.374 . S
C1861 C1858 1.499 . S
C1861 C1862 1.373 1_455 S
C1861 C1863 1.389 . S
C1862 H1835 0.950 . S
C1862 C1848 1.377 1_554 S
C1862 C1861 1.373 1_655 S
C1863 C1847 1.377 1_554 S
C1863 C1861 1.389 . S
C1863 C1864 1.524 . S
C1864 C1863 1.524 . S
C1864 C1865 1.397 . S
C1864 C1869 1.363 . S
C1865 H1836 0.950 . S
C1865 C1864 1.397 . S
C1865 C1866 1.334 . S
C1866 H1837 0.950 . S
C1866 C1865 1.334 . S
C1866 C1867 1.287 . S
C1867 C1866 1.287 . S
C1867 C1868 1.524 . S
C1867 H1870 0.999 . S
C1868 H1838 0.950 . S
C1868 C1867 1.524 . S
C1868 C1869 1.415 . S
C1869 H1839 0.950 . S
C1869 C1864 1.363 . S
C1869 C1868 1.415 . S
H1870 C1867 0.999 . S
H1871 C1852 0.913 . S
C691 C56 1.619 . S
C706 C308 1.611 . S
C741 C74 1.471 . S
C756 C140 1.455 . S
C791 C158 1.307 . S
C806 C242 1.313 . S
C841 C224 1.456 . S
C856 C326 1.468 . S
C891 C67 1.618 . S
C906 C487 1.625 . S
C941 C63 1.472 . S
C956 C403 1.457 . S
C991 C399 1.308 . S
C1006 C231 1.303 . S
C1041 C483 1.472 . S
C1056 C235 1.460 . S
C1091 C560 1.619 . S
C1106 C476 1.619 . S
C1141 C392 1.456 . S
C1156 C578 1.471 . S
C1191 C662 1.307 . S
C1206 C410 1.311 . S
C1241 C494 1.472 . S
C1256 C644 1.459 . S
C1291 C319 1.619 . S
C1306 C571 1.618 . S
C1341 C567 1.472 . S
C1356 C151 1.456 . S
C1391 C147 1.308 . S
C1406 C651 1.306 . S
C1441 C315 1.472 . S
C1456 C655 1.454 . S
C1491 C70 1.537 1_565 S
C1506 C58 1.537 1_545 S
C1541 C142 1.533 . S
C1556 C154 1.533 . S
C1591 C238 1.533 1_565 S
C1606 C226 1.533 1_545 S
C1641 C322 1.535 . S
C1656 C310 1.535 . S
C1691 C394 1.533 . S
C1706 C406 1.533 . S
C1741 C490 1.535 . S
C1756 C478 1.535 . S
C1791 C562 1.536 . S
C1806 C574 1.536 . S
C1841 C646 1.535 . S
C1856 C658 1.535 . S
