# Generated by pormake.
# Topology upc, (4)-cn, num edge types: 1
# Building blocks:
#     Node 0, Type 0, BuildingBlock: NAWXER_clean_sbu_0, # of connection points: 4
#     Node 1, Type 0, BuildingBlock: NAWXER_clean_sbu_0, # of connection points: 4
#     Node 2, Type 0, BuildingBlock: NAWXER_clean_sbu_0, # of connection points: 4
#     Node 3, Type 0, BuildingBlock: NAWXER_clean_sbu_0, # of connection points: 4
#     Node 4, Type 0, BuildingBlock: NAWXER_clean_sbu_0, # of connection points: 4
#     Node 5, Type 0, BuildingBlock: NAWXER_clean_sbu_0, # of connection points: 4
#     Node 6, Type 0, BuildingBlock: NAWXER_clean_sbu_0, # of connection points: 4
#     Node 7, Type 0, BuildingBlock: NAWXER_clean_sbu_0, # of connection points: 4
#     Node 8, Type 0, BuildingBlock: NAWXER_clean_sbu_0, # of connection points: 4
#     Node 9, Type 0, BuildingBlock: NAWXER_clean_sbu_0, # of connection points: 4
#     Node 10, Type 0, BuildingBlock: NAWXER_clean_sbu_0, # of connection points: 4
#     Node 11, Type 0, BuildingBlock: NAWXER_clean_sbu_0, # of connection points: 4
#     Node 12, Type 0, BuildingBlock: NAWXER_clean_sbu_0, # of connection points: 4
#     Node 13, Type 0, BuildingBlock: NAWXER_clean_sbu_0, # of connection points: 4
#     Node 14, Type 0, BuildingBlock: NAWXER_clean_sbu_0, # of connection points: 4
#     Node 15, Type 0, BuildingBlock: NAWXER_clean_sbu_0, # of connection points: 4
#     Edge 16, Type (0, 0), BuildingBlock: UVAHIK_clean_linker_0, # of connection points: 2
#     Edge 17, Type (0, 0), BuildingBlock: UVAHIK_clean_linker_0, # of connection points: 2
#     Edge 18, Type (0, 0), BuildingBlock: UVAHIK_clean_linker_0, # of connection points: 2
#     Edge 19, Type (0, 0), BuildingBlock: UVAHIK_clean_linker_0, # of connection points: 2
#     Edge 20, Type (0, 0), BuildingBlock: UVAHIK_clean_linker_0, # of connection points: 2
#     Edge 21, Type (0, 0), BuildingBlock: UVAHIK_clean_linker_0, # of connection points: 2
#     Edge 22, Type (0, 0), BuildingBlock: UVAHIK_clean_linker_0, # of connection points: 2
#     Edge 23, Type (0, 0), BuildingBlock: UVAHIK_clean_linker_0, # of connection points: 2
#     Edge 24, Type (0, 0), BuildingBlock: UVAHIK_clean_linker_0, # of connection points: 2
#     Edge 25, Type (0, 0), BuildingBlock: UVAHIK_clean_linker_0, # of connection points: 2
#     Edge 26, Type (0, 0), BuildingBlock: UVAHIK_clean_linker_0, # of connection points: 2
#     Edge 27, Type (0, 0), BuildingBlock: UVAHIK_clean_linker_0, # of connection points: 2
#     Edge 28, Type (0, 0), BuildingBlock: UVAHIK_clean_linker_0, # of connection points: 2
#     Edge 29, Type (0, 0), BuildingBlock: UVAHIK_clean_linker_0, # of connection points: 2
#     Edge 30, Type (0, 0), BuildingBlock: UVAHIK_clean_linker_0, # of connection points: 2
#     Edge 31, Type (0, 0), BuildingBlock: UVAHIK_clean_linker_0, # of connection points: 2
#     Edge 32, Type (0, 0), BuildingBlock: UVAHIK_clean_linker_0, # of connection points: 2
#     Edge 33, Type (0, 0), BuildingBlock: UVAHIK_clean_linker_0, # of connection points: 2
#     Edge 34, Type (0, 0), BuildingBlock: UVAHIK_clean_linker_0, # of connection points: 2
#     Edge 35, Type (0, 0), BuildingBlock: UVAHIK_clean_linker_0, # of connection points: 2
#     Edge 36, Type (0, 0), BuildingBlock: UVAHIK_clean_linker_0, # of connection points: 2
#     Edge 37, Type (0, 0), BuildingBlock: UVAHIK_clean_linker_0, # of connection points: 2
#     Edge 38, Type (0, 0), BuildingBlock: UVAHIK_clean_linker_0, # of connection points: 2
#     Edge 39, Type (0, 0), BuildingBlock: UVAHIK_clean_linker_0, # of connection points: 2
#     Edge 40, Type (0, 0), BuildingBlock: UVAHIK_clean_linker_0, # of connection points: 2
#     Edge 41, Type (0, 0), BuildingBlock: UVAHIK_clean_linker_0, # of connection points: 2
#     Edge 42, Type (0, 0), BuildingBlock: UVAHIK_clean_linker_0, # of connection points: 2
#     Edge 43, Type (0, 0), BuildingBlock: UVAHIK_clean_linker_0, # of connection points: 2
#     Edge 44, Type (0, 0), BuildingBlock: UVAHIK_clean_linker_0, # of connection points: 2
#     Edge 45, Type (0, 0), BuildingBlock: UVAHIK_clean_linker_0, # of connection points: 2
#     Edge 46, Type (0, 0), BuildingBlock: UVAHIK_clean_linker_0, # of connection points: 2
#     Edge 47, Type (0, 0), BuildingBlock: UVAHIK_clean_linker_0, # of connection points: 2
# Relax obj value: 0.229
# Max RMSD: 0.220
# Mean RMSD: 0.220
data_MOF--net-upc--node1-NAWXER_clean_sbu_0--edge1-UVAHIK_clean_linker_0
_symmetry_space_group_name_H-M    P1
_symmetry_Int_Tables_number       1
_symmetry_cell_setting            triclinic
loop_
_symmetry_equiv_pos_as_xyz
'x, y, z'
_cell_length_a     45.455148
_cell_length_b     46.404787
_cell_length_c     52.733108
_cell_angle_alpha  89.654347
_cell_angle_beta   90.174166
_cell_angle_gamma 90.220645
loop_
_atom_site_label
_atom_site_type_symbol
_atom_site_fract_x
_atom_site_fract_y
_atom_site_fract_z
_atom_type_partial_charge
C0 C 0.04817 0.61661 0.16827 0.0
C1 C 0.1259 0.66656 0.12141 0.0
O2 O 0.03767 0.63197 0.15004 0.0
Zn3 Zn 0.05529 0.65926 0.11985 0.0
O4 O 0.0759 0.61452 0.17077 0.0
Zn5 Zn 0.08676 0.6387 0.14237 0.0
O6 O 0.07112 0.68044 0.15511 0.0
O7 O 0.0366 0.69465 0.12797 0.0
O8 O 0.12823 0.6458 0.13706 0.0
O9 O 0.10028 0.67378 0.1133 0.0
O10 O 0.04224 0.64211 0.0891 0.0
O11 O 0.07254 0.61388 0.11022 0.0
C12 C 0.05193 0.69897 0.14775 0.0
C13 C 0.05533 0.61819 0.09127 0.0
C14 C 0.91293 0.08043 0.07389 0.0
C15 C 0.84326 0.11018 0.13901 0.0
O16 O 0.92388 0.10123 0.0869 0.0
Zn17 Zn 0.90763 0.12879 0.11729 0.0
O18 O 0.88671 0.07258 0.07828 0.0
Zn19 Zn 0.87811 0.09768 0.10628 0.0
O20 O 0.8698 0.14058 0.09004 0.0
O21 O 0.90686 0.16697 0.10344 0.0
O22 O 0.84121 0.09043 0.12255 0.0
O23 O 0.86654 0.12607 0.13953 0.0
O24 O 0.93634 0.1237 0.14312 0.0
O25 O 0.90966 0.08473 0.13622 0.0
C26 C 0.88308 0.16507 0.091 0.0
C27 C 0.93043 0.09764 0.14841 0.0
C28 C 0.4455 0.79603 0.15187 0.0
C29 C 0.46254 0.8841 0.10459 0.0
O30 O 0.43052 0.81716 0.16063 0.0
Zn31 Zn 0.42469 0.86263 0.15226 0.0
O32 O 0.46412 0.80049 0.13435 0.0
Zn33 Zn 0.45464 0.84038 0.12962 0.0
O34 O 0.47413 0.86049 0.16275 0.0
O35 O 0.43764 0.88111 0.18303 0.0
O36 O 0.47312 0.85913 0.10161 0.0
O37 O 0.44419 0.88845 0.1226 0.0
O38 O 0.38288 0.86281 0.14466 0.0
O39 O 0.40861 0.83561 0.11884 0.0
C40 C 0.46486 0.87532 0.18157 0.0
C41 C 0.38361 0.84471 0.12667 0.0
C42 C 0.62724 0.4493 0.07625 0.0
C43 C 0.67583 0.39714 0.14678 0.0
O44 O 0.6185 0.42627 0.08712 0.0
Zn45 Zn 0.65093 0.42106 0.11123 0.0
O46 O 0.65193 0.4604 0.08297 0.0
Zn47 Zn 0.68617 0.45225 0.11015 0.0
O48 O 0.72131 0.44284 0.09034 0.0
O49 O 0.68773 0.40851 0.08916 0.0
O50 O 0.68964 0.41949 0.13883 0.0
O51 O 0.65173 0.38954 0.13628 0.0
O52 O 0.64613 0.45693 0.13594 0.0
O53 O 0.68398 0.48648 0.13178 0.0
C54 C 0.71334 0.41782 0.08316 0.0
C55 C 0.65967 0.48002 0.14241 0.0
C56 C 0.11568 0.96393 0.33708 0.0
C57 C 0.18837 0.89978 0.37562 0.0
O58 O 0.10405 0.94643 0.3532 0.0
Zn59 Zn 0.11947 0.91249 0.37903 0.0
O60 O 0.14352 0.96467 0.33466 0.0
Zn61 Zn 0.15194 0.93473 0.35908 0.0
O62 O 0.1303 0.89927 0.33953 0.0
O63 O 0.09716 0.88124 0.36598 0.0
O64 O 0.19248 0.92254 0.36266 0.0
O65 O 0.16226 0.89351 0.38296 0.0
O66 O 0.10822 0.92465 0.41182 0.0
O67 O 0.1393 0.95508 0.39409 0.0
C68 C 0.10935 0.88139 0.34433 0.0
C69 C 0.12209 0.94833 0.41246 0.0
C70 C 0.59554 0.07182 0.41848 0.0
C71 C 0.63747 0.1117 0.33915 0.0
O72 O 0.58359 0.09046 0.40395 0.0
Zn73 Zn 0.61544 0.09464 0.37908 0.0
O74 O 0.62189 0.06364 0.41383 0.0
Zn75 Zn 0.65555 0.07074 0.38604 0.0
O76 O 0.68757 0.09072 0.40399 0.0
O77 O 0.64919 0.11879 0.39782 0.0
O78 O 0.65468 0.09552 0.35204 0.0
O79 O 0.61155 0.11674 0.34713 0.0
O80 O 0.61639 0.05233 0.36404 0.0
O81 O 0.65943 0.0319 0.37121 0.0
C82 C 0.67563 0.11543 0.40582 0.0
C83 C 0.63357 0.03074 0.36182 0.0
C84 C 0.4481 0.60583 0.39756 0.0
C85 C 0.40257 0.61953 0.31576 0.0
O86 O 0.42675 0.59278 0.3872 0.0
Zn87 Zn 0.42412 0.61476 0.35678 0.0
O88 O 0.45939 0.6279 0.38646 0.0
Zn89 Zn 0.45087 0.65091 0.35156 0.0
O90 O 0.43761 0.68842 0.36133 0.0
O91 O 0.40361 0.65522 0.36731 0.0
O92 O 0.42128 0.6396 0.3206 0.0
O93 O 0.39735 0.59982 0.33192 0.0
O94 O 0.46574 0.60728 0.33728 0.0
O95 O 0.48823 0.64938 0.3346 0.0
C96 C 0.41164 0.68178 0.36791 0.0
C97 C 0.48773 0.6226 0.32979 0.0
C98 C 0.92463 0.41865 0.41367 0.0
C99 C 0.87871 0.3718 0.33908 0.0
O100 O 0.93566 0.39879 0.40017 0.0
Zn101 Zn 0.90282 0.39275 0.3763 0.0
O102 O 0.89844 0.42722 0.40877 0.0
Zn103 Zn 0.86414 0.41899 0.38198 0.0
O104 O 0.8315 0.40198 0.40155 0.0
O105 O 0.86883 0.37218 0.39768 0.0
O106 O 0.86284 0.39051 0.35026 0.0
O107 O 0.9044 0.36597 0.34746 0.0
O108 O 0.90181 0.43193 0.35522 0.0
O109 O 0.86153 0.45635 0.36401 0.0
C110 C 0.84268 0.37719 0.40546 0.0
C111 C 0.8855 0.45402 0.35171 0.0
C112 C 0.96937 0.30308 0.88115 0.0
C113 C 0.9577 0.3825 0.93802 0.0
O114 O 0.98256 0.3078 0.90196 0.0
Zn115 Zn 0.961 0.34162 0.90931 0.0
O116 O 0.9493 0.32037 0.87308 0.0
Zn117 Zn 0.92953 0.36054 0.88614 0.0
O118 O 0.93927 0.38605 0.8586 0.0
O119 O 0.97822 0.3702 0.87933 0.0
O120 O 0.94107 0.38613 0.9186 0.0
O121 O 0.97174 0.35918 0.94051 0.0
O122 O 0.9168 0.32408 0.91429 0.0
O123 O 0.88849 0.35098 0.88998 0.0
C124 C 0.96705 0.38536 0.86122 0.0
C125 C 0.89118 0.33015 0.90546 0.0
C126 C 0.12174 0.94991 0.83107 0.0
C127 C 0.17433 0.88713 0.8923 0.0
O128 O 0.10847 0.92655 0.83734 0.0
Zn129 Zn 0.11346 0.89004 0.86143 0.0
O130 O 0.14644 0.95594 0.84133 0.0
Zn131 Zn 0.14904 0.92152 0.86334 0.0
O132 O 0.1541 0.88904 0.83557 0.0
O133 O 0.11676 0.8584 0.83665 0.0
O134 O 0.18347 0.91171 0.88467 0.0
O135 O 0.14891 0.87826 0.88531 0.0
O136 O 0.08045 0.89473 0.88504 0.0
O137 O 0.11422 0.92849 0.88983 0.0
C138 C 0.14132 0.86641 0.82727 0.0
C139 C 0.08942 0.91739 0.89625 0.0
C140 C 0.57096 0.16576 0.86027 0.0
C141 C 0.5669 0.10065 0.93222 0.0
O142 O 0.55463 0.16787 0.87971 0.0
Zn143 Zn 0.57032 0.13451 0.89656 0.0
O144 O 0.58959 0.14515 0.85862 0.0
Zn145 Zn 0.60291 0.10801 0.88058 0.0
O146 O 0.59246 0.07778 0.85688 0.0
O147 O 0.55409 0.1018 0.87085 0.0
O148 O 0.58564 0.0922 0.91576 0.0
O149 O 0.55374 0.1244 0.92884 0.0
O150 O 0.61495 0.14843 0.90399 0.0
O151 O 0.6442 0.11609 0.88713 0.0
C152 C 0.56483 0.08209 0.85667 0.0
C153 C 0.64102 0.13951 0.89916 0.0
C154 C 0.38024 0.64869 0.83167 0.0
C155 C 0.43636 0.60779 0.90421 0.0
O156 O 0.36756 0.62831 0.84384 0.0
Zn157 Zn 0.37397 0.60062 0.87539 0.0
O158 O 0.40568 0.65741 0.83854 0.0
Zn159 Zn 0.40995 0.63085 0.86786 0.0
O160 O 0.41303 0.59056 0.84958 0.0
O161 O 0.37437 0.56307 0.85786 0.0
O162 O 0.44457 0.62894 0.89035 0.0
O163 O 0.41093 0.5965 0.90041 0.0
O164 O 0.34162 0.61452 0.89702 0.0
O165 O 0.37627 0.6472 0.89115 0.0
C166 C 0.39905 0.56681 0.84684 0.0
C167 C 0.35136 0.64001 0.90052 0.0
C168 C 0.9693 0.1446 0.56899 0.0
C169 C 0.96413 0.1964 0.64744 0.0
O170 O 0.98094 0.16853 0.57474 0.0
Zn171 Zn 0.96306 0.17328 0.60718 0.0
O172 O 0.94976 0.13352 0.58363 0.0
Zn173 Zn 0.92964 0.14491 0.61889 0.0
O174 O 0.88899 0.15528 0.61182 0.0
O175 O 0.91964 0.18981 0.60064 0.0
O176 O 0.94441 0.17656 0.64618 0.0
O177 O 0.97982 0.20239 0.62819 0.0
O178 O 0.97729 0.13572 0.62923 0.0
O179 O 0.93749 0.11062 0.63897 0.0
C180 C 0.8932 0.1806 0.60332 0.0
C181 C 0.96524 0.11413 0.64057 0.0
C182 C 0.3952 0.93924 0.66439 0.0
C183 C 0.34547 0.86766 0.60936 0.0
O184 O 0.40969 0.91639 0.65941 0.0
Zn185 Zn 0.40652 0.8776 0.63876 0.0
O186 O 0.36966 0.94273 0.65478 0.0
Zn187 Zn 0.36879 0.90654 0.63508 0.0
O188 O 0.36642 0.87652 0.66528 0.0
O189 O 0.40565 0.84854 0.66647 0.0
O190 O 0.33488 0.89221 0.61503 0.0
O191 O 0.37153 0.86131 0.61664 0.0
O192 O 0.43879 0.88284 0.61435 0.0
O193 O 0.40291 0.9139 0.60788 0.0
C194 C 0.38072 0.8558 0.67541 0.0
C195 C 0.42833 0.90414 0.60193 0.0
C196 C 0.57313 0.34166 0.64225 0.0
C197 C 0.57344 0.41874 0.58053 0.0
O198 O 0.55756 0.34393 0.6223 0.0
Zn199 Zn 0.5754 0.379 0.61116 0.0
O200 O 0.59246 0.36098 0.64765 0.0
Zn201 Zn 0.60771 0.40152 0.63132 0.0
O202 O 0.59777 0.42759 0.65837 0.0
O203 O 0.559 0.40753 0.64038 0.0
O204 O 0.59185 0.42421 0.59835 0.0
O205 O 0.56036 0.3946 0.58027 0.0
O206 O 0.61991 0.36492 0.60366 0.0
O207 O 0.6489 0.39412 0.62511 0.0
C208 C 0.57 0.42438 0.65717 0.0
C209 C 0.64588 0.37267 0.61049 0.0
C210 C 0.14097 0.62591 0.67534 0.0
C211 C 0.09332 0.57568 0.60313 0.0
O212 O 0.15511 0.60456 0.66637 0.0
Zn213 Zn 0.15241 0.57331 0.63722 0.0
O214 O 0.11616 0.63294 0.66581 0.0
Zn215 Zn 0.11519 0.60259 0.63961 0.0
O216 O 0.11166 0.56465 0.66213 0.0
O217 O 0.15135 0.53784 0.65817 0.0
O218 O 0.08312 0.59731 0.61496 0.0
O219 O 0.11849 0.56558 0.60968 0.0
O220 O 0.18674 0.58652 0.61715 0.0
O221 O 0.15061 0.61801 0.61746 0.0
C222 C 0.12609 0.54189 0.66797 0.0
C223 C 0.17665 0.61115 0.61074 0.0
C224 C 0.14895 0.71415 0.11059 0.0
C225 C 0.15203 0.68445 0.11514 0.0
C226 C 0.17377 0.73196 0.10819 0.0
C227 C 0.2547 0.73232 0.12265 0.0
H228 H 0.25259 0.80487 0.08577 0.0
C229 C 0.35799 0.80254 0.10704 0.0
C230 C 0.35622 0.82996 0.1182 0.0
C231 C 0.33272 0.78575 0.10348 0.0
C232 C 0.2534 0.78465 0.09614 0.0
H233 H 0.18347 0.64986 0.11937 0.0
H234 H 0.22667 0.68032 0.11348 0.0
H235 H 0.20997 0.77263 0.0845 0.0
H236 H 0.32616 0.86185 0.13298 0.0
H237 H 0.2817 0.83274 0.12577 0.0
H238 H 0.29862 0.74413 0.13342 0.0
C239 C 0.20524 0.69037 0.11297 0.0
C240 C 0.2289 0.76617 0.09561 0.0
C241 C 0.18042 0.67271 0.11604 0.0
C242 C 0.32829 0.84089 0.12425 0.0
C243 C 0.30286 0.82426 0.12016 0.0
C244 C 0.27934 0.75046 0.12264 0.0
C245 C 0.2024 0.72045 0.1097 0.0
C246 C 0.22902 0.73975 0.10906 0.0
C247 C 0.30499 0.79619 0.11046 0.0
C248 C 0.27888 0.77688 0.10957 0.0
H249 H 0.12734 0.72391 0.11016 0.0
H250 H 0.17032 0.75491 0.10613 0.0
H251 H 0.25573 0.71275 0.13387 0.0
H252 H 0.37911 0.79327 0.10233 0.0
H253 H 0.33493 0.76423 0.09588 0.0
C254 C 0.88502 0.21801 0.08133 0.0
C255 C 0.86947 0.19174 0.08051 0.0
C256 C 0.87112 0.24402 0.07539 0.0
C257 C 0.80447 0.27678 0.04616 0.0
H258 H 0.81855 0.33703 0.09541 0.0
C259 C 0.72401 0.37059 0.06269 0.0
C260 C 0.7345 0.39702 0.07214 0.0
C261 C 0.74321 0.34776 0.05815 0.0
C262 C 0.81475 0.32082 0.08108 0.0
H263 H 0.82735 0.17225 0.07143 0.0
H264 H 0.80301 0.21776 0.06105 0.0
H265 H 0.84653 0.29263 0.09786 0.0
H266 H 0.77387 0.4208 0.08229 0.0
H267 H 0.80762 0.38111 0.07375 0.0
H268 H 0.77228 0.30488 0.02964 0.0
C269 C 0.82608 0.21816 0.06622 0.0
C270 C 0.8308 0.29519 0.08255 0.0
C271 C 0.84003 0.19203 0.07221 0.0
C272 C 0.76502 0.40078 0.075 0.0
C273 C 0.78433 0.37785 0.07042 0.0
C274 C 0.78849 0.30254 0.04459 0.0
C275 C 0.84125 0.24457 0.06844 0.0
C276 C 0.82558 0.27263 0.06537 0.0
C277 C 0.77354 0.35067 0.06285 0.0
C278 C 0.79303 0.32475 0.06232 0.0
H279 H 0.90779 0.21865 0.08743 0.0
H280 H 0.88365 0.26385 0.07681 0.0
H281 H 0.80016 0.26004 0.0324 0.0
H282 H 0.70063 0.3669 0.0602 0.0
H283 H 0.73391 0.32726 0.05251 0.0
C284 C 0.24199 0.8869 0.37414 0.0
C285 C 0.21289 0.87935 0.3803 0.0
C286 C 0.26462 0.86663 0.37621 0.0
C287 C 0.28319 0.79393 0.4028 0.0
H288 H 0.34093 0.79462 0.34884 0.0
C289 C 0.3611 0.69803 0.38089 0.0
C290 C 0.39027 0.7048 0.37418 0.0
C291 C 0.34038 0.71993 0.38442 0.0
C292 C 0.32521 0.79431 0.36424 0.0
H293 H 0.18496 0.8447 0.39412 0.0
H294 H 0.22414 0.80927 0.39714 0.0
H295 H 0.30343 0.83178 0.34998 0.0
H296 H 0.42067 0.74004 0.36681 0.0
H297 H 0.3846 0.77802 0.37292 0.0
H298 H 0.30471 0.75579 0.41652 0.0
C299 C 0.22971 0.83097 0.39117 0.0
C300 C 0.3037 0.81573 0.36497 0.0
C301 C 0.20714 0.85131 0.38932 0.0
C302 C 0.3984 0.73398 0.37187 0.0
C303 C 0.37768 0.75579 0.37522 0.0
C304 C 0.30462 0.77232 0.40194 0.0
C305 C 0.25871 0.8382 0.38424 0.0
C306 C 0.28232 0.81586 0.38422 0.0
C307 C 0.34832 0.74905 0.38113 0.0
C308 C 0.32586 0.77226 0.38262 0.0
H309 H 0.24725 0.90836 0.3673 0.0
H310 H 0.28675 0.87324 0.37124 0.0
H311 H 0.2674 0.7935 0.41813 0.0
H312 H 0.35407 0.6758 0.38282 0.0
H313 H 0.31789 0.71401 0.38882 0.0
C314 C 0.79394 0.35269 0.41426 0.0
C315 C 0.82488 0.35243 0.41515 0.0
C316 C 0.77774 0.32718 0.41831 0.0
C317 C 0.78697 0.24822 0.41257 0.0
H318 H 0.71119 0.24375 0.44579 0.0
C319 C 0.72316 0.14006 0.41863 0.0
C320 C 0.69269 0.14132 0.41404 0.0
C321 C 0.73951 0.16538 0.42276 0.0
C322 C 0.73224 0.24461 0.43625 0.0
H323 H 0.86281 0.32548 0.42283 0.0
H324 H 0.83475 0.28155 0.43025 0.0
H325 H 0.7386 0.28916 0.44574 0.0
H326 H 0.65549 0.17039 0.41127 0.0
H327 H 0.68379 0.21408 0.41804 0.0
H328 H 0.78046 0.20409 0.40244 0.0
C329 C 0.82293 0.30117 0.42582 0.0
C330 C 0.74797 0.27072 0.43626 0.0
C331 C 0.83903 0.32652 0.42177 0.0
C332 C 0.6789 0.16843 0.41476 0.0
C333 C 0.69519 0.19366 0.41881 0.0
C334 C 0.77122 0.22222 0.41245 0.0
C335 C 0.79212 0.30088 0.42333 0.0
C336 C 0.77552 0.27293 0.42431 0.0
C337 C 0.72585 0.19265 0.42237 0.0
C338 C 0.7435 0.21999 0.42413 0.0
H339 H 0.7823 0.37217 0.40901 0.0
H340 H 0.75405 0.32781 0.41618 0.0
H341 H 0.80784 0.24915 0.40274 0.0
H342 H 0.73456 0.11962 0.41822 0.0
H343 H 0.76299 0.16359 0.42588 0.0
C344 C 0.86928 0.2821 0.91704 0.0
C345 C 0.86545 0.3114 0.91106 0.0
C346 C 0.84497 0.26351 0.91883 0.0
C347 C 0.76588 0.25914 0.89899 0.0
H348 H 0.76601 0.19019 0.94089 0.0
C349 C 0.66293 0.18728 0.9109 0.0
C350 C 0.66688 0.15793 0.90532 0.0
C351 C 0.68715 0.20563 0.91396 0.0
C352 C 0.76576 0.20935 0.92906 0.0
H353 H 0.83304 0.34452 0.90374 0.0
H354 H 0.79069 0.31271 0.90826 0.0
H355 H 0.80764 0.22362 0.94289 0.0
H356 H 0.69956 0.12469 0.89965 0.0
H357 H 0.74199 0.15677 0.90571 0.0
H358 H 0.72361 0.24512 0.88574 0.0
C359 C 0.81242 0.30357 0.91047 0.0
C360 C 0.78969 0.22851 0.93006 0.0
C361 C 0.83673 0.32198 0.90816 0.0
C362 C 0.69573 0.14717 0.90391 0.0
C363 C 0.72002 0.16549 0.90745 0.0
C364 C 0.74181 0.2403 0.89837 0.0
C365 C 0.81613 0.27384 0.91512 0.0
C366 C 0.79021 0.25369 0.91493 0.0
C367 C 0.71596 0.19504 0.91198 0.0
C368 C 0.7415 0.21514 0.91328 0.0
H369 H 0.89117 0.27322 0.91914 0.0
H370 H 0.84901 0.24082 0.92212 0.0
H371 H 0.76554 0.27771 0.88648 0.0
H372 H 0.64106 0.19637 0.91203 0.0
H373 H 0.68336 0.22826 0.91762 0.0
C374 C 0.30249 0.66002 0.9149 0.0
C375 C 0.33298 0.66326 0.91156 0.0
C376 C 0.28484 0.68409 0.92007 0.0
C377 C 0.28853 0.76368 0.93537 0.0
H378 H 0.21414 0.76506 0.89936 0.0
C379 C 0.2245 0.86713 0.90298 0.0
C380 C 0.19371 0.86604 0.90546 0.0
C381 C 0.24171 0.84308 0.90957 0.0
C382 C 0.23473 0.76494 0.90976 0.0
H383 H 0.36897 0.69415 0.91287 0.0
H384 H 0.33862 0.73555 0.92091 0.0
H385 H 0.24268 0.72091 0.90057 0.0
H386 H 0.15727 0.83982 0.91898 0.0
H387 H 0.18713 0.79828 0.93025 0.0
H388 H 0.28094 0.80847 0.94322 0.0
C389 C 0.328 0.71467 0.92003 0.0
C390 C 0.25108 0.73946 0.91065 0.0
C391 C 0.34554 0.69072 0.91518 0.0
C392 C 0.18089 0.84136 0.91657 0.0
C393 C 0.19795 0.81742 0.92292 0.0
C394 C 0.27236 0.78935 0.93407 0.0
C395 C 0.29725 0.71199 0.92181 0.0
C396 C 0.27842 0.73844 0.92324 0.0
C397 C 0.22838 0.81756 0.91859 0.0
C398 C 0.24535 0.79028 0.92113 0.0
H399 H 0.29207 0.63922 0.91229 0.0
H400 H 0.26135 0.6809 0.92194 0.0
H401 H 0.30912 0.7638 0.94572 0.0
H402 H 0.23504 0.88567 0.89431 0.0
H403 H 0.26517 0.84379 0.90605 0.0
C404 C 0.6679 0.32599 0.59634 0.0
C405 C 0.67173 0.35481 0.60377 0.0
C406 C 0.69219 0.30791 0.59316 0.0
C407 C 0.77133 0.30217 0.61169 0.0
H408 H 0.77021 0.23768 0.56526 0.0
C409 C 0.87287 0.23015 0.59609 0.0
C410 C 0.86802 0.20031 0.59866 0.0
C411 C 0.84921 0.24924 0.59428 0.0
C412 C 0.77076 0.25557 0.57836 0.0
H413 H 0.7042 0.38764 0.61239 0.0
H414 H 0.74658 0.35664 0.60569 0.0
H415 H 0.72905 0.27136 0.56562 0.0
H416 H 0.83435 0.16712 0.60035 0.0
H417 H 0.79296 0.20056 0.59664 0.0
H418 H 0.81334 0.28657 0.624 0.0
C419 C 0.7248 0.34754 0.60323 0.0
C420 C 0.7471 0.27486 0.57869 0.0
C421 C 0.70048 0.36548 0.60684 0.0
C422 C 0.83888 0.18996 0.59841 0.0
C423 C 0.81518 0.20909 0.59621 0.0
C424 C 0.79512 0.28317 0.61105 0.0
C425 C 0.72104 0.31826 0.59695 0.0
C426 C 0.74689 0.29837 0.59553 0.0
C427 C 0.8201 0.23898 0.59462 0.0
C428 C 0.79504 0.25955 0.59452 0.0
H429 H 0.64604 0.31698 0.59406 0.0
H430 H 0.68815 0.2855 0.58869 0.0
H431 H 0.77188 0.31945 0.62538 0.0
H432 H 0.89499 0.23891 0.59626 0.0
H433 H 0.85369 0.27214 0.59285 0.0
C434 C 0.18234 0.66062 0.5925 0.0
C435 C 0.19545 0.63431 0.59955 0.0
C436 C 0.19939 0.6851 0.58756 0.0
C437 C 0.2737 0.71501 0.60195 0.0
H438 H 0.24535 0.7792 0.56129 0.0
C439 C 0.34149 0.81874 0.59028 0.0
C440 C 0.32734 0.84407 0.59826 0.0
C441 C 0.32552 0.79353 0.58574 0.0
C442 C 0.25346 0.76146 0.57275 0.0
H443 H 0.23717 0.61274 0.60492 0.0
H444 H 0.26721 0.65519 0.59504 0.0
H445 H 0.21921 0.73312 0.56029 0.0
H446 H 0.28484 0.86313 0.60578 0.0
H447 H 0.25666 0.81892 0.59705 0.0
H448 H 0.30834 0.74336 0.61386 0.0
C449 C 0.24351 0.65718 0.59429 0.0
C450 C 0.23845 0.73498 0.57231 0.0
C451 C 0.22631 0.6326 0.59958 0.0
C452 C 0.29642 0.84412 0.59952 0.0
C453 C 0.28031 0.81876 0.59466 0.0
C454 C 0.28897 0.74127 0.60197 0.0
C455 C 0.23026 0.6841 0.58909 0.0
C456 C 0.24803 0.71142 0.58725 0.0
C457 C 0.29489 0.79294 0.58869 0.0
C458 C 0.27886 0.7649 0.58763 0.0
H459 H 0.15863 0.66287 0.59217 0.0
H460 H 0.18805 0.70518 0.58396 0.0
H461 H 0.2816 0.69789 0.61418 0.0
H462 H 0.36524 0.81788 0.58885 0.0
H463 H 0.33731 0.77412 0.58076 0.0
C464 C 0.89301 0.50477 0.33521 0.0
C465 C 0.89439 0.47482 0.33176 0.0
C466 C 0.9055 0.52355 0.31712 0.0
C467 C 0.93048 0.52769 0.25037 0.0
H468 H 0.98913 0.582 0.27442 0.0
C469 C 0.99757 0.60134 0.18226 0.0
C470 C 0.02809 0.60238 0.18674 0.0
C471 C 0.97859 0.58844 0.19991 0.0
C472 C 0.97276 0.56698 0.26742 0.0
H473 H 0.90842 0.44107 0.30632 0.0
H474 H 0.92927 0.47356 0.27475 0.0
H475 H 0.95884 0.55535 0.305 0.0
H476 H 0.06247 0.59084 0.21351 0.0
H477 H 0.02935 0.56847 0.24429 0.0
H478 H 0.94482 0.53869 0.21286 0.0
C479 C 0.91894 0.48271 0.29133 0.0
C480 C 0.9552 0.55198 0.28492 0.0
C481 C 0.90711 0.46409 0.3095 0.0
C482 C 0.03911 0.59035 0.20938 0.0
C483 C 0.0201 0.57775 0.22715 0.0
C484 C 0.94777 0.54291 0.23289 0.0
C485 C 0.91883 0.51262 0.29509 0.0
C486 C 0.93431 0.5317 0.2766 0.0
C487 C 0.98961 0.57659 0.22262 0.0
C488 C 0.96956 0.56229 0.24121 0.0
H489 H 0.8835 0.51355 0.3523 0.0
H490 H 0.90506 0.54655 0.32047 0.0
H491 H 0.9145 0.51227 0.24338 0.0
H492 H 0.9883 0.61044 0.16506 0.0
H493 H 0.95521 0.58803 0.19591 0.0
C494 C 0.96297 0.09934 0.18664 0.0
C495 C 0.94732 0.08288 0.16876 0.0
C496 C 0.97956 0.08601 0.20566 0.0
C497 C 0.02051 0.0208 0.22038 0.0
H498 H 1.01549 0.04678 0.29005 0.0
C499 C 0.1075 0.99151 0.29659 0.0
C500 C 0.09646 0.98061 0.31963 0.0
C501 C 0.08859 1.00401 0.27867 0.0
C502 C 1.01707 0.03925 0.2707 0.0
H503 H 0.9368 0.0394 0.15691 0.0
H504 H 0.96655 0.01595 0.19004 0.0
H505 H 0.98272 0.06737 0.25784 0.0
H506 H 0.05702 0.97527 0.34226 0.0
H507 H 0.02418 0.99779 0.31122 0.0
H508 H 0.05523 0.99306 0.23317 0.0
C509 C 0.96567 0.03927 0.18928 0.0
C510 C 0.99842 0.0511 0.25226 0.0
C511 C 0.94857 0.05266 0.17043 0.0
C512 C 0.06625 0.98349 0.32472 0.0
C513 C 0.04743 0.99639 0.30697 0.0
C514 C 0.03949 0.00928 0.23875 0.0
C515 C 0.98131 0.05586 0.20711 0.0
C516 C 1.0 0.04207 0.22689 0.0
C517 C 0.0583 1.0063 0.28356 0.0
C518 C 0.03804 0.01846 0.26409 0.0
H519 H 0.9624 0.12267 0.18599 0.0
H520 H 0.99157 0.09936 0.21897 0.0
H521 H 0.02236 0.01359 0.20095 0.0
H522 H 0.1306 0.98949 0.29199 0.0
H523 H 0.09763 0.01175 0.2609 0.0
C524 C 0.63963 0.99022 0.33051 0.0
C525 C 0.62224 1.00541 0.34784 0.0
C526 C 0.62656 0.97023 0.31392 0.0
C527 C 0.55703 0.92873 0.30254 0.0
H528 H 0.5758 0.93841 0.23133 0.0
C529 C 0.47513 0.899 0.22341 0.0
C530 C 0.4857 0.88584 0.2013 0.0
C531 C 0.49461 0.90928 0.24188 0.0
C532 C 0.57057 0.93508 0.25116 0.0
H533 H 0.57807 0.01045 0.36247 0.0
H534 H 0.55557 0.9758 0.33412 0.0
H535 H 0.6059 0.9625 0.26338 0.0
H536 H 0.52525 0.87319 0.18138 0.0
H537 H 0.55929 0.89137 0.21363 0.0
H538 H 0.52112 0.90218 0.29033 0.0
C539 C 0.57915 0.97901 0.33309 0.0
C540 C 0.58792 0.94882 0.26956 0.0
C541 C 0.59206 0.99904 0.34931 0.0
C542 C 0.51632 0.88318 0.19818 0.0
C543 C 0.53585 0.89372 0.2166 0.0
C544 C 0.53967 0.91514 0.28418 0.0
C545 C 0.596 0.96483 0.31471 0.0
C546 C 0.58087 0.94646 0.29546 0.0
C547 C 0.52523 0.90686 0.23871 0.0
C548 C 0.54574 0.91873 0.25823 0.0
H549 H 0.6629 0.99493 0.32882 0.0
H550 H 0.6402 0.95952 0.30009 0.0
H551 H 0.55129 0.92595 0.32232 0.0
H552 H 0.45172 0.90146 0.22647 0.0
H553 H 0.48564 0.91966 0.25848 0.0
C554 C 0.62407 0.48585 0.17781 0.0
C555 C 0.64708 0.49755 0.16317 0.0
C556 C 0.61182 0.50131 0.19767 0.0
C557 C 0.59852 0.57365 0.22127 0.0
H558 H 0.58 0.53245 0.28348 0.0
C559 C 0.53381 0.6265 0.30361 0.0
C560 C 0.51118 0.60947 0.31413 0.0
C561 C 0.55447 0.61444 0.28716 0.0
C562 C 0.58487 0.54427 0.26621 0.0
H563 H 0.67514 0.53498 0.15801 0.0
H564 H 0.65312 0.5625 0.19289 0.0
H565 H 0.60913 0.50902 0.2509 0.0
H566 H 0.493 0.56622 0.31592 0.0
H567 H 0.52878 0.54531 0.28728 0.0
H568 H 0.57338 0.60858 0.23628 0.0
C569 C 0.64483 0.54111 0.18881 0.0
C570 C 0.60166 0.53087 0.24757 0.0
C571 C 0.65746 0.52536 0.16892 0.0
C572 C 0.51017 0.57998 0.30828 0.0
C573 C 0.53083 0.56793 0.29192 0.0
C574 C 0.58159 0.58708 0.23995 0.0
C575 C 0.62201 0.52907 0.2035 0.0
C576 C 0.60802 0.54509 0.22461 0.0
C577 C 0.55309 0.58504 0.28094 0.0
C578 C 0.57392 0.57224 0.26237 0.0
H579 H 0.61548 0.46448 0.17407 0.0
H580 H 0.59395 0.49159 0.2083 0.0
H581 H 0.60292 0.58509 0.20371 0.0
H582 H 0.53526 0.64931 0.3077 0.0
H583 H 0.57149 0.62817 0.27925 0.0
C584 C 0.1297 0.50261 0.70154 0.0
C585 C 0.11276 0.5216 0.68665 0.0
C586 C 0.11652 0.48649 0.72121 0.0
C587 C 0.05054 0.48871 0.76258 0.0
H588 H 0.06745 0.40867 0.77784 0.0
C589 C 0.97381 0.42014 0.82506 0.0
C590 C 0.98624 0.40114 0.84295 0.0
C591 C 0.99146 0.43441 0.80726 0.0
C592 C 0.06276 0.43114 0.774 0.0
H593 H 0.06842 0.53702 0.67971 0.0
H594 H 0.04573 0.50889 0.71318 0.0
H595 H 0.09453 0.43351 0.74392 0.0
H596 H 0.02718 0.3822 0.85597 0.0
H597 H 0.05807 0.40721 0.82474 0.0
H598 H 0.0186 0.48644 0.79222 0.0
C599 C 0.06924 0.50697 0.71042 0.0
C600 C 0.07829 0.44537 0.75457 0.0
C601 C 0.0823 0.52301 0.69104 0.0
C602 C 1.01688 0.39679 0.84254 0.0
C603 C 0.03457 0.41095 0.82453 0.0
C604 C 0.03505 0.47455 0.78183 0.0
C605 C 0.08619 0.48908 0.72627 0.0
C606 C 0.0719 0.47419 0.74826 0.0
C607 C 0.02206 0.43002 0.80671 0.0
C608 C 0.0405 0.44543 0.78751 0.0
H609 H 0.15322 0.50107 0.69866 0.0
H610 H 0.13023 0.47285 0.73302 0.0
H611 H 0.04557 0.51114 0.75877 0.0
H612 H 0.95032 0.42396 0.82469 0.0
H613 H 0.98099 0.4486 0.79361 0.0
C614 C 0.07846 0.96329 0.80434 0.0
C615 C 0.10775 0.96879 0.81161 0.0
C616 C 0.06503 0.97923 0.78506 0.0
C617 C 0.0693 0.04706 0.74803 0.0
H618 H 0.01782 1.00525 0.70223 0.0
C619 C 1.0134 0.10177 0.66133 0.0
C620 C 0.98344 0.09535 0.65731 0.0
C621 C 0.03007 0.08604 0.67892 0.0
C622 C 0.03192 0.01731 0.71496 0.0
H623 H 0.14565 0.99608 0.80454 0.0
H624 H 0.12211 0.02405 0.77042 0.0
H625 H 0.0446 0.97924 0.73516 0.0
H626 H 0.94781 0.0668 0.66837 0.0
H627 H 0.97693 0.03924 0.69896 0.0
H628 H 0.05647 0.08518 0.72772 0.0
C629 C 0.10954 0.00733 0.77991 0.0
C630 C 0.0473 1.0024 0.73389 0.0
C631 C 0.12308 0.9913 0.79942 0.0
C632 C 0.97082 0.07226 0.67086 0.0
C633 C 0.98757 0.05642 0.68838 0.0
C634 C 0.05395 0.062 0.72898 0.0
C635 C 0.08044 1.00115 0.77224 0.0
C636 C 0.06586 0.01709 0.75096 0.0
C637 C 0.01732 0.06335 0.69288 0.0
C638 C 0.03476 0.04735 0.7124 0.0
H639 H 0.06573 0.94641 0.81347 0.0
H640 H 0.04238 0.97432 0.78024 0.0
H641 H 0.08316 0.05912 0.76094 0.0
H642 H 0.02392 0.11941 0.65128 0.0
H643 H 0.053 0.09171 0.68161 0.0
C644 C 0.51463 0.07094 0.8391 0.0
C645 C 0.54529 0.06675 0.83849 0.0
C646 C 0.49637 0.05921 0.82034 0.0
C647 C 0.49876 0.03439 0.75409 0.0
H648 H 0.42398 0.99765 0.76913 0.0
C649 C 0.44013 0.96143 0.68282 0.0
C650 C 0.40924 0.96052 0.68152 0.0
C651 C 0.45452 0.97796 0.70102 0.0
C652 C 0.44452 0.00834 0.76454 0.0
H653 H 0.58059 0.04612 0.81795 0.0
H654 H 0.54877 0.02556 0.7853 0.0
H655 H 0.4537 0.01767 0.8036 0.0
H656 H 0.36918 0.97714 0.69789 0.0
H657 H 0.39455 1.00649 0.73008 0.0
H658 H 0.48983 0.02504 0.71516 0.0
C659 C 0.53888 0.03823 0.80019 0.0
C660 C 0.46165 0.01968 0.78433 0.0
C661 C 0.55712 0.04979 0.81905 0.0
C662 C 0.393 0.97756 0.69835 0.0
C663 C 0.40753 0.99409 0.7169 0.0
C664 C 0.48163 0.02324 0.73436 0.0
C665 C 0.50834 0.04317 0.80036 0.0
C666 C 0.48927 0.03231 0.77938 0.0
C667 C 0.43853 0.99414 0.71864 0.0
C668 C 0.45459 0.00948 0.73934 0.0
H669 H 0.50472 0.08391 0.85378 0.0
H670 H 0.47299 0.06354 0.82101 0.0
H671 H 0.51954 0.04463 0.74951 0.0
H672 H 0.45334 0.94862 0.67009 0.0
H673 H 0.47831 0.97706 0.7019 0.0
C674 C 0.56228 0.45539 0.69546 0.0
C675 C 0.55044 0.43862 0.67579 0.0
C676 C 0.54394 0.46759 0.71372 0.0
C677 C 0.46964 0.46129 0.7425 0.0
H678 H 0.48843 0.53757 0.76743 0.0
C679 C 0.3969 0.52906 0.81257 0.0
C680 C 0.41288 0.5447 0.83076 0.0
C681 C 0.41183 0.51339 0.79382 0.0
C682 C 0.48299 0.51613 0.76084 0.0
H683 H 0.50985 0.42174 0.65986 0.0
H684 H 0.47786 0.44342 0.69148 0.0
H685 H 0.51791 0.51691 0.73383 0.0
H686 H 0.45657 0.55427 0.84503 0.0
H687 H 0.48228 0.52673 0.81304 0.0
H688 H 0.43445 0.46087 0.76969 0.0
C689 C 0.50139 0.4468 0.693 0.0
C690 C 0.49997 0.50425 0.74157 0.0
C691 C 0.51975 0.43456 0.67473 0.0
C692 C 0.4437 0.54268 0.83105 0.0
C693 C 0.45845 0.52708 0.81259 0.0
C694 C 0.45249 0.47331 0.76183 0.0
C695 C 0.51324 0.46343 0.71278 0.0
C696 C 0.49388 0.47649 0.73239 0.0
C697 C 0.44284 0.51323 0.79313 0.0
C698 C 0.45936 0.50067 0.77152 0.0
H699 H 0.5858 0.4588 0.697 0.0
H700 H 0.55394 0.47989 0.72888 0.0
H701 H 0.46439 0.43979 0.736 0.0
H702 H 0.37314 0.53047 0.81183 0.0
H703 H 0.3992 0.50282 0.7791 0.0
C704 C 0.07368 0.74028 0.17017 0.0
C705 C 0.04849 0.72547 0.16212 0.0
C706 C 0.07108 0.76386 0.18608 0.0
C707 C 0.03274 0.78393 0.23938 0.0
H708 H 0.0751 0.85614 0.23172 0.0
C709 C 0.06816 0.85323 0.32513 0.0
C710 C 0.09701 0.86409 0.32361 0.0
C711 C 0.05489 0.84068 0.30398 0.0
C712 C 0.0631 0.8361 0.23414 0.0
H713 H 1.0009 0.72366 0.1633 0.0
H714 H 0.9964 0.7645 0.19267 0.0
H715 H 0.06323 0.82763 0.19427 0.0
H716 H 0.13509 0.8692 0.2993 0.0
H717 H 0.1125 0.84625 0.26282 0.0
H718 H 0.03506 0.7908 0.27936 0.0
C719 C 0.01795 0.75825 0.18597 0.0
C720 C 0.05599 0.8201 0.21273 0.0
C721 C 0.02052 0.73505 0.16936 0.0
C722 C 0.11276 0.86117 0.30096 0.0
C723 C 0.09964 0.84842 0.27996 0.0
C724 C 0.04022 0.79974 0.26087 0.0
C725 C 0.0433 0.77248 0.19464 0.0
C726 C 0.04198 0.79333 0.21536 0.0
C727 C 0.07037 0.83861 0.28106 0.0
C728 C 0.05681 0.82523 0.25849 0.0
H729 H 0.09541 0.73317 0.16461 0.0
H730 H 0.09091 0.77433 0.1929 0.0
H731 H 0.02219 0.76311 0.24175 0.0
H732 H 0.0554 0.85546 0.34232 0.0
H733 H 0.03234 0.83325 0.3054 0.0
C734 C 0.8222 0.13301 0.17822 0.0
C735 C 0.81876 0.11486 0.15716 0.0
C736 C 0.79911 0.13676 0.19547 0.0
C737 C 0.72932 0.10195 0.21687 0.0
H738 H 0.71833 0.1742 0.25206 0.0
C739 C 0.63829 0.11355 0.29183 0.0
C740 C 0.64899 0.12355 0.31516 0.0
C741 C 0.65511 0.11711 0.26973 0.0
C742 C 0.72107 0.1539 0.24233 0.0
H743 H 0.78792 0.08711 0.13737 0.0
H744 H 0.74767 0.09417 0.16688 0.0
H745 H 0.75594 0.17066 0.21925 0.0
H746 H 0.68459 0.14634 0.33366 0.0
H747 H 0.71345 0.15336 0.29521 0.0
H748 H 0.69466 0.08514 0.24012 0.0
C749 C 0.76838 0.10496 0.17059 0.0
C750 C 0.7428 0.15178 0.22362 0.0
C751 C 0.79151 0.10101 0.15352 0.0
C752 C 0.67562 0.13896 0.31576 0.0
C753 C 0.69219 0.14287 0.29372 0.0
C754 C 0.70747 0.10415 0.2354 0.0
C755 C 0.77188 0.12265 0.19198 0.0
C756 C 0.74757 0.12562 0.21089 0.0
C757 C 0.68277 0.13094 0.27063 0.0
C758 C 0.70335 0.13001 0.24865 0.0
H759 H 0.84291 0.14397 0.18163 0.0
H760 H 0.8029 0.15023 0.21186 0.0
H761 H 0.73253 0.08128 0.2079 0.0
H762 H 0.61815 0.10101 0.29102 0.0
H763 H 0.64713 0.10786 0.25219 0.0
C764 C 0.39968 0.59713 0.27343 0.0
C765 C 0.38991 0.61824 0.29033 0.0
C766 C 0.39649 0.60139 0.24729 0.0
C767 C 0.36879 0.65339 0.19879 0.0
H768 H 0.45188 0.66591 0.18614 0.0
C769 C 0.41336 0.76195 0.1756 0.0
C770 C 0.43753 0.76637 0.15952 0.0
C771 C 0.40326 0.73426 0.18083 0.0
C772 C 0.42856 0.66194 0.18859 0.0
H773 H 0.36639 0.65833 0.29408 0.0
H774 H 0.35995 0.66552 0.24873 0.0
H775 H 0.43662 0.62828 0.21539 0.0
H776 H 0.47019 0.74506 0.13635 0.0
H777 H 0.45293 0.69615 0.14636 0.0
H778 H 0.36102 0.68902 0.17376 0.0
C779 C 0.37004 0.64569 0.25524 0.0
C780 C 0.41973 0.6402 0.20534 0.0
C781 C 0.37383 0.64175 0.28123 0.0
C782 C 0.45165 0.74232 0.149 0.0
C783 C 0.44163 0.71439 0.15448 0.0
C784 C 0.3776 0.67501 0.18192 0.0
C785 C 0.38316 0.62662 0.238 0.0
C786 C 0.38999 0.63761 0.21231 0.0
C787 C 0.41711 0.71017 0.17026 0.0
C788 C 0.40768 0.68106 0.17853 0.0
H789 H 0.41246 0.57898 0.28025 0.0
H790 H 0.40685 0.58646 0.23441 0.0
H791 H 0.34568 0.65145 0.20354 0.0
H792 H 0.40183 0.77993 0.18395 0.0
H793 H 0.38491 0.73172 0.19374 0.0
C794 C 0.70794 0.35748 0.16231 0.0
C795 C 0.68931 0.38069 0.1677 0.0
C796 C 0.72787 0.34736 0.18064 0.0
C797 C 0.74797 0.35156 0.24917 0.0
H798 H 0.82813 0.34497 0.22493 0.0
C799 C 0.87001 0.37018 0.29265 0.0
C800 C 0.8658 0.35779 0.31669 0.0
C801 C 0.84993 0.3648 0.27297 0.0
C802 C 0.80587 0.3466 0.23201 0.0
H803 H 0.67636 0.41122 0.19632 0.0
H804 H 0.71042 0.39325 0.22855 0.0
H805 H 0.78786 0.35084 0.19457 0.0
H806 H 0.83831 0.32914 0.33886 0.0
H807 H 0.80388 0.31878 0.30439 0.0
H808 H 0.76595 0.34878 0.28659 0.0
C809 C 0.70954 0.38246 0.21041 0.0
C810 C 0.7827 0.34966 0.21459 0.0
C811 C 0.68988 0.3927 0.19202 0.0
C812 C 0.84242 0.33837 0.32027 0.0
C813 C 0.82242 0.33289 0.30063 0.0
C814 C 0.77107 0.34839 0.26656 0.0
C815 C 0.7295 0.3603 0.2047 0.0
C816 C 0.75352 0.35288 0.22298 0.0
C817 C 0.8251 0.3471 0.27709 0.0
C818 C 0.80043 0.34649 0.25827 0.0
H819 H 0.70848 0.34848 0.1434 0.0
H820 H 0.74277 0.33015 0.17567 0.0
H821 H 0.72577 0.35372 0.2563 0.0
H822 H 0.88731 0.38598 0.2897 0.0
H823 H 0.85261 0.37637 0.25523 0.0
C824 C 1.00067 0.21725 0.67765 0.0
C825 C 0.97185 0.20781 0.6725 0.0
C826 C 1.00992 0.22126 0.70268 0.0
C827 C 0.98987 0.19859 0.7676 0.0
H828 H 0.02731 0.26962 0.78888 0.0
C829 C 0.95757 0.26436 0.85084 0.0
C830 C 0.97864 0.27935 0.86501 0.0
C831 C 0.9664 0.24595 0.83164 0.0
C832 C 0.01782 0.24918 0.78322 0.0
H833 H 0.92952 0.19734 0.68909 0.0
H834 H 0.94529 0.20527 0.73252 0.0
H835 H 0.02361 0.25875 0.74381 0.0
H836 H 0.02524 0.28584 0.87177 0.0
H837 H 0.04077 0.25448 0.837 0.0
H838 H 0.98154 0.19048 0.80692 0.0
C839 C 0.9611 0.20846 0.71741 0.0
C840 C 1.01554 0.24306 0.75743 0.0
C841 C 0.95192 0.20438 0.69254 0.0
C842 C 1.00869 0.27425 0.86103 0.0
C843 C 0.01756 0.25639 0.84127 0.0
C844 C 0.99191 0.20484 0.79332 0.0
C845 C 0.99043 0.21591 0.72278 0.0
C846 C 0.9999 0.21862 0.74944 0.0
C847 C 0.99639 0.24292 0.82595 0.0
C848 C 1.00432 0.231 0.80116 0.0
H849 H 1.01656 0.21982 0.66252 0.0
H850 H 0.03255 0.22738 0.70635 0.0
H851 H 0.97848 0.17914 0.76185 0.0
H852 H 0.93429 0.26802 0.85376 0.0
H853 H 0.94966 0.2361 0.81981 0.0
C854 C 0.36154 0.85318 0.71923 0.0
C855 C 0.3656 0.83972 0.69574 0.0
C856 C 0.33801 0.84527 0.73494 0.0
C857 C 0.28786 0.82127 0.76756 0.0
H858 H 0.21529 0.82187 0.72865 0.0
C859 C 0.17517 0.82617 0.81748 0.0
C860 C 0.15774 0.84912 0.80875 0.0
C861 C 0.19903 0.81645 0.80307 0.0
C862 C 0.23533 0.82139 0.73981 0.0
H863 H 0.34894 0.80677 0.67063 0.0
H864 H 0.30804 0.79253 0.69819 0.0
H865 H 0.26244 0.81982 0.70671 0.0
H866 H 0.15084 0.87923 0.77791 0.0
H867 H 0.19161 0.86168 0.75228 0.0
H868 H 0.26073 0.82415 0.80061 0.0
C869 C 0.32313 0.8091 0.7046 0.0
C870 C 0.26241 0.81995 0.72725 0.0
C871 C 0.34688 0.81684 0.68903 0.0
C872 C 0.16334 0.86087 0.78466 0.0
C873 C 0.18689 0.85092 0.7701 0.0
C874 C 0.26075 0.82242 0.78014 0.0
C875 C 0.31765 0.82409 0.72723 0.0
C876 C 0.28907 0.82068 0.74091 0.0
C877 C 0.20581 0.82944 0.77958 0.0
C878 C 0.23415 0.82332 0.76639 0.0
H879 H 0.37502 0.87155 0.72441 0.0
H880 H 0.33436 0.85751 0.75206 0.0
H881 H 0.30793 0.82171 0.77868 0.0
H882 H 0.1719 0.8174 0.83636 0.0
H883 H 0.21306 0.79977 0.81087 0.0
C884 C 0.59099 0.18919 0.82174 0.0
C885 C 0.5674 0.18523 0.83846 0.0
C886 C 0.58698 0.20393 0.79899 0.0
C887 C 0.53814 0.25364 0.76451 0.0
H888 H 0.58178 0.22426 0.70708 0.0
C889 C 0.53977 0.30735 0.66471 0.0
C890 C 0.5683 0.3178 0.66005 0.0
C891 C 0.53491 0.28736 0.68418 0.0
C892 C 0.56917 0.23238 0.72289 0.0
H893 H 0.52136 0.19434 0.84516 0.0
H894 H 0.5141 0.21991 0.80488 0.0
H895 H 0.58178 0.19746 0.74699 0.0
H896 H 0.61423 0.31473 0.67078 0.0
H897 H 0.60587 0.27897 0.70418 0.0
H898 H 0.5259 0.28878 0.74014 0.0
C899 C 0.53578 0.21184 0.80954 0.0
C900 C 0.5694 0.21731 0.74578 0.0
C901 C 0.53993 0.19733 0.83258 0.0
C902 C 0.59206 0.30697 0.67412 0.0
C903 C 0.58731 0.28651 0.69307 0.0
C904 C 0.53757 0.26851 0.74141 0.0
C905 C 0.55914 0.21463 0.79225 0.0
C906 C 0.55492 0.22841 0.76713 0.0
C907 C 0.55867 0.27709 0.69859 0.0
C908 C 0.55394 0.25844 0.72079 0.0
H909 H 0.61249 0.18035 0.82601 0.0
H910 H 0.60569 0.2066 0.78651 0.0
H911 H 0.52682 0.26274 0.78061 0.0
H912 H 0.52112 0.31566 0.65415 0.0
H913 H 0.51267 0.28033 0.68831 0.0
C914 C 0.3601 0.64866 0.78789 0.0
C915 C 0.36305 0.6626 0.81131 0.0
C916 C 0.33604 0.65453 0.77199 0.0
C917 C 0.28482 0.67537 0.73864 0.0
H918 H 0.21176 0.67032 0.77628 0.0
C919 C 0.17309 0.66716 0.68678 0.0
C920 C 0.1563 0.64327 0.69464 0.0
C921 C 0.19643 0.67729 0.7018 0.0
C922 C 0.23193 0.672 0.76547 0.0
H923 H 0.34373 0.69409 0.83623 0.0
H924 H 0.30194 0.7048 0.80836 0.0
H925 H 0.25841 0.67439 0.79905 0.0
H926 H 0.15002 0.61188 0.72459 0.0
H927 H 0.18984 0.63016 0.75132 0.0
H928 H 0.25835 0.67183 0.70508 0.0
C929 C 0.31825 0.68945 0.80213 0.0
C930 C 0.25871 0.67459 0.77852 0.0
C931 C 0.34246 0.68373 0.81789 0.0
C932 C 0.16197 0.63094 0.71851 0.0
C933 C 0.18499 0.6413 0.7337 0.0
C934 C 0.25799 0.67309 0.72558 0.0
C935 C 0.3141 0.67407 0.77946 0.0
C936 C 0.28558 0.6756 0.76531 0.0
C937 C 0.20333 0.6638 0.72505 0.0
C938 C 0.23124 0.67065 0.73885 0.0
H939 H 0.37509 0.63155 0.78282 0.0
H940 H 0.33344 0.64205 0.75484 0.0
H941 H 0.30506 0.67625 0.72786 0.0
H942 H 0.16981 0.6764 0.66807 0.0
H943 H 0.21 0.69476 0.69464 0.0
C944 C 0.05818 0.56652 0.0782 0.0
C945 C 0.04848 0.59474 0.07338 0.0
C946 C 0.04858 0.54378 0.06301 0.0
C947 C 0.98709 0.52388 0.02104 0.0
H948 H 0.03806 0.46093 0.00189 0.0
C949 C 0.95335 0.43429 0.95052 0.0
C950 C 0.96319 0.40625 0.95595 0.0
C951 C 0.9624 0.45741 0.96556 0.0
C952 C 0.02347 0.4782 0.00737 0.0
H953 H 0.02234 0.62147 0.04806 0.0
H954 H 1.00603 0.58186 0.02137 0.0
H955 H 0.05834 0.50147 0.02545 0.0
H956 H 0.98867 0.38018 0.98229 0.0
H957 H 1.00404 0.4204 0.00862 0.0
H958 H 0.95223 0.50059 0.00288 0.0
C959 C 0.0205 0.57722 0.03722 0.0
C960 C 0.03511 0.50142 0.0208 0.0
C961 C 0.03004 0.59993 0.05241 0.0
C962 C 0.98092 0.40157 0.97745 0.0
C963 C 0.98992 0.42463 0.99244 0.0
C964 C 0.97545 0.50066 0.00756 0.0
C965 C 0.02915 0.54884 0.04267 0.0
C966 C 1.01704 0.52449 0.02783 0.0
C967 C 0.9814 0.45286 0.98627 0.0
C968 C 0.9935 0.47752 0.00069 0.0
H969 H 0.07233 0.56181 0.09425 0.0
H970 H 0.05548 0.5221 0.06779 0.0
H971 H 0.97249 0.54112 0.02656 0.0
H972 H 0.93972 0.43859 0.93406 0.0
H973 H 0.95556 0.47897 0.9603 0.0
C974 C 0.08292 0.9559 0.92899 0.0
C975 C 0.07124 0.93217 0.91576 0.0
C976 C 0.06575 0.97134 0.94616 0.0
C977 C 0.99708 0.96788 0.98453 0.0
H978 H 1.00671 0.05094 0.98609 0.0
C979 C 0.91854 0.04124 0.04149 0.0
C980 C 0.93083 0.06459 0.05483 0.0
C981 C 0.93547 0.02522 0.02451 0.0
C982 C 1.00394 0.02775 0.98616 0.0
H983 H 0.03217 0.90591 0.91074 0.0
H984 H 1.00199 0.93305 0.9406 0.0
H985 H 0.03601 0.02249 0.95693 0.0
H986 H 0.97078 0.08943 0.0604 0.0
H987 H 1.00036 0.06148 0.03078 0.0
H988 H 0.96487 0.97324 0.01371 0.0
C989 C 0.02467 0.93953 0.93784 0.0
C990 C 0.0208 0.01135 0.96938 0.0
C991 C 0.04195 0.92397 0.92063 0.0
C992 C 0.9605 0.07171 0.05042 0.0
C993 C 0.97746 0.05569 0.03333 0.0
C994 C 0.98015 0.98431 0.00128 0.0
C995 C 0.03624 0.96368 0.95065 0.0
C996 C 0.01774 0.98113 0.96835 0.0
C997 C 0.96523 0.03206 0.02026 0.0
C998 C 0.98336 0.01451 0.00238 0.0
H999 H 0.10543 0.96282 0.92595 0.0
H1000 H 0.07574 0.98932 0.95599 0.0
H1001 H 0.99433 0.9447 0.98462 0.0
H1002 H 0.89577 0.03508 0.0443 0.0
H1003 H 0.92508 0.00754 0.01454 0.0
C1004 C 0.49483 0.90368 0.07026 0.0
C1005 C 0.47257 0.90817 0.08823 0.0
C1006 C 0.5056 0.92656 0.0557 0.0
C1007 C 0.48706 0.99834 0.03141 0.0
H1008 H 0.5713 1.0046 0.02101 0.0
C1009 C 0.53766 0.09024 0.97149 0.0
C1010 C 0.55913 0.08179 0.95392 0.0
C1011 C 0.52831 0.07122 0.9905 0.0
C1012 C 0.54772 1.00306 0.02361 0.0
H1013 H 0.44383 0.94019 0.10473 0.0
H1014 H 0.46261 0.98024 0.07906 0.0
H1015 H 0.55183 0.96692 0.04874 0.0
H1016 H 0.58832 0.04711 0.94308 0.0
H1017 H 0.57179 0.01392 0.97595 0.0
H1018 H 0.48285 0.034 0.00579 0.0
C1019 C 0.47165 0.95892 0.0763 0.0
C1020 C 0.53658 0.98149 0.03949 0.0
C1021 C 0.46096 0.93601 0.09101 0.0
C1022 C 0.57176 0.05432 0.95632 0.0
C1023 C 0.56239 0.03532 0.97528 0.0
C1024 C 0.49819 0.01986 0.01543 0.0
C1025 C 0.49429 0.95445 0.05868 0.0
C1026 C 0.50611 0.97863 0.04324 0.0
C1027 C 0.54022 0.04337 0.99234 0.0
C1028 C 0.52863 0.02219 0.01105 0.0
H1029 H 0.50425 0.88252 0.06759 0.0
H1030 H 0.5227 0.92236 0.04196 0.0
H1031 H 0.46346 0.99649 0.03379 0.0
H1032 H 0.52758 0.11131 0.97024 0.0
H1033 H 0.51151 0.07822 0.00359 0.0
C1034 C 0.48576 0.60323 0.92641 0.0
C1035 C 0.45633 0.59433 0.92344 0.0
C1036 C 0.50472 0.58857 0.9432 0.0
C1037 C 0.50453 0.53629 0.99776 0.0
H1038 H 0.58522 0.52259 0.97779 0.0
C1039 C 0.57931 0.4559 0.05248 0.0
C1040 C 0.60853 0.46454 0.05713 0.0
C1041 C 0.56121 0.47178 0.03595 0.0
C1042 C 0.56282 0.52641 0.9838 0.0
H1043 H 0.42384 0.56312 0.93629 0.0
H1044 H 0.45658 0.53771 0.96495 0.0
H1045 H 0.55317 0.55125 0.9504 0.0
H1046 H 0.64166 0.4965 0.0474 0.0
H1047 H 0.61027 0.52397 0.01867 0.0
H1048 H 0.5141 0.51122 0.03102 0.0
C1049 C 0.46513 0.55621 0.95472 0.0
C1050 C 0.54441 0.543 0.96809 0.0
C1051 C 0.44628 0.5708 0.93806 0.0
C1052 C 0.61932 0.48909 0.04431 0.0
C1053 C 0.6013 0.50485 0.02769 0.0
C1054 C 0.52288 0.51962 0.01338 0.0
C1055 C 0.49471 0.56467 0.95748 0.0
C1056 C 0.5149 0.54808 0.97476 0.0
C1057 C 0.57187 0.49665 0.02347 0.0
C1058 C 0.55228 0.51432 0.00661 0.0
H1059 H 0.49432 0.62119 0.91546 0.0
H1060 H 0.52723 0.59601 0.94499 0.0
H1061 H 0.48218 0.54012 0.0039 0.0
H1062 H 0.5702 0.43715 0.062 0.0
H1063 H 0.5388 0.46455 0.03293 0.0
C1064 C 0.09604 0.96135 0.45221 0.0
C1065 C 0.11477 0.96946 0.43224 0.0
C1066 C 0.08377 0.98211 0.46788 0.0
C1067 C 0.06251 0.05821 0.4657 0.0
H1068 H 0.04168 0.04357 0.53587 0.0
C1069 C 1.00389 0.13911 0.53254 0.0
C1070 C 0.9819 0.12737 0.54826 0.0
C1071 C 0.02043 0.12128 0.51685 0.0
C1072 C 0.04719 0.04781 0.51621 0.0
H1073 H 0.13722 1.00551 0.41432 0.0
H1074 H 0.11619 0.04187 0.44218 0.0
H1075 H 0.07432 0.01042 0.5141 0.0
H1076 H 0.95847 0.0881 0.55836 0.0
H1077 H 0.9874 0.05709 0.53099 0.0
H1078 H 0.03539 0.09583 0.46808 0.0
C1079 C 0.11047 0.01944 0.44526 0.0
C1080 C 0.06593 0.0289 0.50377 0.0
C1081 C 0.12276 0.9986 0.42949 0.0
C1082 C 0.97533 0.09783 0.54658 0.0
C1083 C 0.99204 0.08001 0.5311 0.0
C1084 C 0.04397 0.07733 0.47827 0.0
C1085 C 0.09006 0.01148 0.46406 0.0
C1086 C 0.07335 0.03355 0.47822 0.0
C1087 C 1.01538 0.09143 0.5168 0.0
C1088 C 0.0357 0.07194 0.50347 0.0
H1089 H 0.08954 0.93906 0.45491 0.0
H1090 H 0.06798 0.97517 0.48201 0.0
H1091 H 0.06742 0.06221 0.44591 0.0
H1092 H 1.00938 0.16183 0.53333 0.0
H1093 H 0.03826 0.1306 0.50591 0.0
C1094 C 0.54845 0.06212 0.44274 0.0
C1095 C 0.57871 0.05726 0.43925 0.0
C1096 C 0.53239 0.04599 0.46066 0.0
C1097 C 0.53495 0.97651 0.49645 0.0
H1098 H 0.47357 0.0108 0.53701 0.0
C1099 C 0.47569 0.91383 0.57803 0.0
C1100 C 0.44561 0.91933 0.58181 0.0
C1101 C 0.49209 0.93026 0.56053 0.0
C1102 C 0.49038 1.0007 0.52563 0.0
H1103 H 0.61583 0.03207 0.45268 0.0
H1104 H 0.5881 1.00447 0.48386 0.0
H1105 H 0.50136 0.04072 0.50736 0.0
H1106 H 0.40911 0.94594 0.56931 0.0
H1107 H 0.43728 0.97386 0.53873 0.0
H1108 H 0.52388 0.93646 0.5146 0.0
C1109 C 0.57656 0.02033 0.47248 0.0
C1110 C 0.50638 0.01796 0.50859 0.0
C1111 C 0.59256 0.03643 0.45467 0.0
C1112 C 0.43226 0.94113 0.56713 0.0
C1113 C 0.44854 0.95741 0.54965 0.0
C1114 C 0.5189 0.95923 0.51346 0.0
C1115 C 0.54615 0.02452 0.47552 0.0
C1116 C 0.52893 1.00615 0.49374 0.0
C1117 C 0.47881 0.95257 0.5463 0.0
C1118 C 0.4963 0.97102 0.52829 0.0
H1119 H 0.53698 0.07784 0.43116 0.0
H1120 H 0.50898 0.04975 0.46231 0.0
H1121 H 0.5518 0.96646 0.48508 0.0
H1122 H 0.48678 0.89736 0.58908 0.0
H1123 H 0.51537 0.92596 0.55868 0.0
C1124 C 0.53987 0.43741 0.54684 0.0
C1125 C 0.56498 0.44134 0.56207 0.0
C1126 C 0.52938 0.45981 0.53168 0.0
C1127 C 0.54797 0.52442 0.49729 0.0
H1128 H 0.46518 0.54211 0.50538 0.0
C1129 C 0.488 0.60459 0.43062 0.0
C1130 C 0.4611 0.59408 0.42116 0.0
C1131 C 0.50174 0.59097 0.45123 0.0
C1132 C 0.48831 0.53743 0.50284 0.0
H1133 H 0.59959 0.47145 0.57238 0.0
H1134 H 0.58145 0.5106 0.54506 0.0
H1135 H 0.48855 0.50743 0.53381 0.0
H1136 H 0.4269 0.56187 0.42657 0.0
H1137 H 0.45082 0.53808 0.46196 0.0
H1138 H 0.54739 0.55318 0.46538 0.0
C1139 C 0.56984 0.49017 0.54533 0.0
C1140 C 0.50166 0.51767 0.51915 0.0
C1141 C 0.58016 0.46781 0.56089 0.0
C1142 C 0.44763 0.57052 0.43335 0.0
C1143 C 0.46128 0.55698 0.45384 0.0
C1144 C 0.5345 0.54402 0.4807 0.0
C1145 C 0.54395 0.4865 0.53111 0.0
C1146 C 0.53135 0.51039 0.51605 0.0
C1147 C 0.48872 0.56669 0.46278 0.0
C1148 C 0.50427 0.55002 0.48282 0.0
H1149 H 0.52765 0.41734 0.54726 0.0
H1150 H 0.50961 0.45638 0.52055 0.0
H1151 H 0.57093 0.51907 0.49458 0.0
H1152 H 0.49891 0.62275 0.42164 0.0
H1153 H 0.52273 0.59912 0.45785 0.0
C1154 C 0.92929 0.45576 0.44805 0.0
C1155 C 0.942 0.43328 0.43403 0.0
C1156 C 0.94567 0.47095 0.46616 0.0
C1157 C 1.01315 0.46743 0.50619 0.0
H1158 H 1.00236 0.55009 0.51081 0.0
C1159 C 0.08873 0.53805 0.56919 0.0
C1160 C 0.07616 0.56102 0.58266 0.0
C1161 C 0.07254 0.52295 0.5509 0.0
C1162 C 1.00544 0.52699 0.51006 0.0
H1163 H 0.98214 0.40907 0.42855 0.0
H1164 H 1.01079 0.43562 0.46019 0.0
H1165 H 0.9743 0.5226 0.47972 0.0
H1166 H 0.03646 0.58619 0.58701 0.0
H1167 H 1.00803 0.55967 0.55526 0.0
H1168 H 0.04417 0.47175 0.53659 0.0
C1169 C 0.98796 0.44135 0.45724 0.0
C1170 C 0.98931 0.51115 0.49214 0.0
C1171 C 0.97154 0.42614 0.43901 0.0
C1172 C 0.04695 0.56873 0.57698 0.0
C1173 C 0.03066 0.55353 0.55866 0.0
C1174 C 0.02924 0.48325 0.52414 0.0
C1175 C 0.97533 0.4642 0.47093 0.0
C1176 C 0.99288 0.48111 0.48993 0.0
C1177 C 0.04314 0.53021 0.54548 0.0
C1178 C 0.02569 0.51331 0.52637 0.0
H1179 H 0.90661 0.46192 0.44489 0.0
H1180 H 0.93493 0.48798 0.47656 0.0
H1181 H 1.01623 0.44432 0.50539 0.0
H1182 H 0.1112 0.5315 0.57286 0.0
H1183 H 0.08323 0.5056 0.5409 0.0
loop_
_geom_bond_atom_site_label_1
_geom_bond_atom_site_label_2
_geom_bond_distance
_geom_bond_site_symmetry_2
_ccdc_geom_bond_type
C0 O2 1.247 . S
C0 O4 1.258 . S
C1 O8 1.247 . S
C1 O9 1.258 . S
O2 C0 1.247 . S
O2 Zn3 2.028 . S
Zn3 O2 2.028 . S
Zn3 O7 2.035 . S
Zn3 O9 2.035 . S
Zn3 O10 2.028 . S
O4 C0 1.258 . S
O4 Zn5 2.035 . S
Zn5 O4 2.035 . S
Zn5 O6 2.028 . S
Zn5 O8 2.028 . S
Zn5 O11 2.035 . S
O6 Zn5 2.028 . S
O6 C12 1.247 . S
O7 Zn3 2.035 . S
O7 C12 1.258 . S
O8 C1 1.247 . S
O8 Zn5 2.028 . S
O9 C1 1.258 . S
O9 Zn3 2.035 . S
O10 Zn3 2.028 . S
O10 C13 1.247 . S
O11 Zn5 2.035 . S
O11 C13 1.258 . S
C12 O6 1.247 . S
C12 O7 1.258 . S
C13 O10 1.247 . S
C13 O11 1.258 . S
C14 O16 1.247 . S
C14 O18 1.258 . S
C15 O22 1.247 . S
C15 O23 1.258 . S
O16 C14 1.247 . S
O16 Zn17 2.028 . S
Zn17 O16 2.028 . S
Zn17 O21 2.035 . S
Zn17 O23 2.035 . S
Zn17 O24 2.028 . S
O18 C14 1.258 . S
O18 Zn19 2.035 . S
Zn19 O18 2.035 . S
Zn19 O20 2.028 . S
Zn19 O22 2.028 . S
Zn19 O25 2.035 . S
O20 Zn19 2.028 . S
O20 C26 1.247 . S
O21 Zn17 2.035 . S
O21 C26 1.258 . S
O22 C15 1.247 . S
O22 Zn19 2.028 . S
O23 C15 1.258 . S
O23 Zn17 2.035 . S
O24 Zn17 2.028 . S
O24 C27 1.247 . S
O25 Zn19 2.035 . S
O25 C27 1.258 . S
C26 O20 1.247 . S
C26 O21 1.258 . S
C27 O24 1.247 . S
C27 O25 1.258 . S
C28 O30 1.247 . S
C28 O32 1.258 . S
C29 O36 1.247 . S
C29 O37 1.258 . S
O30 C28 1.247 . S
O30 Zn31 2.028 . S
Zn31 O30 2.028 . S
Zn31 O35 2.035 . S
Zn31 O37 2.035 . S
Zn31 O38 2.028 . S
O32 C28 1.258 . S
O32 Zn33 2.035 . S
Zn33 O32 2.035 . S
Zn33 O34 2.028 . S
Zn33 O36 2.028 . S
Zn33 O39 2.035 . S
O34 Zn33 2.028 . S
O34 C40 1.247 . S
O35 Zn31 2.035 . S
O35 C40 1.258 . S
O36 C29 1.247 . S
O36 Zn33 2.028 . S
O37 C29 1.258 . S
O37 Zn31 2.035 . S
O38 Zn31 2.028 . S
O38 C41 1.247 . S
O39 Zn33 2.035 . S
O39 C41 1.258 . S
C40 O34 1.247 . S
C40 O35 1.258 . S
C41 O38 1.247 . S
C41 O39 1.258 . S
C42 O44 1.247 . S
C42 O46 1.258 . S
C43 O50 1.247 . S
C43 O51 1.258 . S
O44 C42 1.247 . S
O44 Zn45 2.028 . S
Zn45 O44 2.028 . S
Zn45 O49 2.035 . S
Zn45 O51 2.035 . S
Zn45 O52 2.028 . S
O46 C42 1.258 . S
O46 Zn47 2.035 . S
Zn47 O46 2.035 . S
Zn47 O48 2.028 . S
Zn47 O50 2.028 . S
Zn47 O53 2.035 . S
O48 Zn47 2.028 . S
O48 C54 1.247 . S
O49 Zn45 2.035 . S
O49 C54 1.258 . S
O50 C43 1.247 . S
O50 Zn47 2.028 . S
O51 C43 1.258 . S
O51 Zn45 2.035 . S
O52 Zn45 2.028 . S
O52 C55 1.247 . S
O53 Zn47 2.035 . S
O53 C55 1.258 . S
C54 O48 1.247 . S
C54 O49 1.258 . S
C55 O52 1.247 . S
C55 O53 1.258 . S
C56 O58 1.247 . S
C56 O60 1.258 . S
C57 O64 1.247 . S
C57 O65 1.258 . S
O58 C56 1.247 . S
O58 Zn59 2.028 . S
Zn59 O58 2.028 . S
Zn59 O63 2.035 . S
Zn59 O65 2.035 . S
Zn59 O66 2.028 . S
O60 C56 1.258 . S
O60 Zn61 2.035 . S
Zn61 O60 2.035 . S
Zn61 O62 2.028 . S
Zn61 O64 2.028 . S
Zn61 O67 2.035 . S
O62 Zn61 2.028 . S
O62 C68 1.247 . S
O63 Zn59 2.035 . S
O63 C68 1.258 . S
O64 C57 1.247 . S
O64 Zn61 2.028 . S
O65 C57 1.258 . S
O65 Zn59 2.035 . S
O66 Zn59 2.028 . S
O66 C69 1.247 . S
O67 Zn61 2.035 . S
O67 C69 1.258 . S
C68 O62 1.247 . S
C68 O63 1.258 . S
C69 O66 1.247 . S
C69 O67 1.258 . S
C70 O72 1.247 . S
C70 O74 1.258 . S
C71 O78 1.247 . S
C71 O79 1.258 . S
O72 C70 1.247 . S
O72 Zn73 2.028 . S
Zn73 O72 2.028 . S
Zn73 O77 2.035 . S
Zn73 O79 2.035 . S
Zn73 O80 2.028 . S
O74 C70 1.258 . S
O74 Zn75 2.035 . S
Zn75 O74 2.035 . S
Zn75 O76 2.028 . S
Zn75 O78 2.028 . S
Zn75 O81 2.035 . S
O76 Zn75 2.028 . S
O76 C82 1.247 . S
O77 Zn73 2.035 . S
O77 C82 1.258 . S
O78 C71 1.247 . S
O78 Zn75 2.028 . S
O79 C71 1.258 . S
O79 Zn73 2.035 . S
O80 Zn73 2.028 . S
O80 C83 1.247 . S
O81 Zn75 2.035 . S
O81 C83 1.258 . S
C82 O76 1.247 . S
C82 O77 1.258 . S
C83 O80 1.247 . S
C83 O81 1.258 . S
C84 O86 1.247 . S
C84 O88 1.258 . S
C85 O92 1.247 . S
C85 O93 1.258 . S
O86 C84 1.247 . S
O86 Zn87 2.028 . S
Zn87 O86 2.028 . S
Zn87 O91 2.035 . S
Zn87 O93 2.035 . S
Zn87 O94 2.028 . S
O88 C84 1.258 . S
O88 Zn89 2.035 . S
Zn89 O88 2.035 . S
Zn89 O90 2.028 . S
Zn89 O92 2.028 . S
Zn89 O95 2.035 . S
O90 Zn89 2.028 . S
O90 C96 1.247 . S
O91 Zn87 2.035 . S
O91 C96 1.258 . S
O92 C85 1.247 . S
O92 Zn89 2.028 . S
O93 C85 1.258 . S
O93 Zn87 2.035 . S
O94 Zn87 2.028 . S
O94 C97 1.247 . S
O95 Zn89 2.035 . S
O95 C97 1.258 . S
C96 O90 1.247 . S
C96 O91 1.258 . S
C97 O94 1.247 . S
C97 O95 1.258 . S
C98 O100 1.247 . S
C98 O102 1.258 . S
C99 O106 1.247 . S
C99 O107 1.258 . S
O100 C98 1.247 . S
O100 Zn101 2.028 . S
Zn101 O100 2.028 . S
Zn101 O105 2.035 . S
Zn101 O107 2.035 . S
Zn101 O108 2.028 . S
O102 C98 1.258 . S
O102 Zn103 2.035 . S
Zn103 O102 2.035 . S
Zn103 O104 2.028 . S
Zn103 O106 2.028 . S
Zn103 O109 2.035 . S
O104 Zn103 2.028 . S
O104 C110 1.247 . S
O105 Zn101 2.035 . S
O105 C110 1.258 . S
O106 C99 1.247 . S
O106 Zn103 2.028 . S
O107 C99 1.258 . S
O107 Zn101 2.035 . S
O108 Zn101 2.028 . S
O108 C111 1.247 . S
O109 Zn103 2.035 . S
O109 C111 1.258 . S
C110 O104 1.247 . S
C110 O105 1.258 . S
C111 O108 1.247 . S
C111 O109 1.258 . S
C112 O114 1.247 . S
C112 O116 1.258 . S
C113 O120 1.247 . S
C113 O121 1.258 . S
O114 C112 1.247 . S
O114 Zn115 2.028 . S
Zn115 O114 2.028 . S
Zn115 O119 2.035 . S
Zn115 O121 2.035 . S
Zn115 O122 2.028 . S
O116 C112 1.258 . S
O116 Zn117 2.035 . S
Zn117 O116 2.035 . S
Zn117 O118 2.028 . S
Zn117 O120 2.028 . S
Zn117 O123 2.035 . S
O118 Zn117 2.028 . S
O118 C124 1.247 . S
O119 Zn115 2.035 . S
O119 C124 1.258 . S
O120 C113 1.247 . S
O120 Zn117 2.028 . S
O121 C113 1.258 . S
O121 Zn115 2.035 . S
O122 Zn115 2.028 . S
O122 C125 1.247 . S
O123 Zn117 2.035 . S
O123 C125 1.258 . S
C124 O118 1.247 . S
C124 O119 1.258 . S
C125 O122 1.247 . S
C125 O123 1.258 . S
C126 O128 1.247 . S
C126 O130 1.258 . S
C127 O134 1.247 . S
C127 O135 1.258 . S
O128 C126 1.247 . S
O128 Zn129 2.028 . S
Zn129 O128 2.028 . S
Zn129 O133 2.035 . S
Zn129 O135 2.035 . S
Zn129 O136 2.028 . S
O130 C126 1.258 . S
O130 Zn131 2.035 . S
Zn131 O130 2.035 . S
Zn131 O132 2.028 . S
Zn131 O134 2.028 . S
Zn131 O137 2.035 . S
O132 Zn131 2.028 . S
O132 C138 1.247 . S
O133 Zn129 2.035 . S
O133 C138 1.258 . S
O134 C127 1.247 . S
O134 Zn131 2.028 . S
O135 C127 1.258 . S
O135 Zn129 2.035 . S
O136 Zn129 2.028 . S
O136 C139 1.247 . S
O137 Zn131 2.035 . S
O137 C139 1.258 . S
C138 O132 1.247 . S
C138 O133 1.258 . S
C139 O136 1.247 . S
C139 O137 1.258 . S
C140 O142 1.247 . S
C140 O144 1.258 . S
C141 O148 1.247 . S
C141 O149 1.258 . S
O142 C140 1.247 . S
O142 Zn143 2.028 . S
Zn143 O142 2.028 . S
Zn143 O147 2.035 . S
Zn143 O149 2.035 . S
Zn143 O150 2.028 . S
O144 C140 1.258 . S
O144 Zn145 2.035 . S
Zn145 O144 2.035 . S
Zn145 O146 2.028 . S
Zn145 O148 2.028 . S
Zn145 O151 2.035 . S
O146 Zn145 2.028 . S
O146 C152 1.247 . S
O147 Zn143 2.035 . S
O147 C152 1.258 . S
O148 C141 1.247 . S
O148 Zn145 2.028 . S
O149 C141 1.258 . S
O149 Zn143 2.035 . S
O150 Zn143 2.028 . S
O150 C153 1.247 . S
O151 Zn145 2.035 . S
O151 C153 1.258 . S
C152 O146 1.247 . S
C152 O147 1.258 . S
C153 O150 1.247 . S
C153 O151 1.258 . S
C154 O156 1.247 . S
C154 O158 1.258 . S
C155 O162 1.247 . S
C155 O163 1.258 . S
O156 C154 1.247 . S
O156 Zn157 2.028 . S
Zn157 O156 2.028 . S
Zn157 O161 2.035 . S
Zn157 O163 2.035 . S
Zn157 O164 2.028 . S
O158 C154 1.258 . S
O158 Zn159 2.035 . S
Zn159 O158 2.035 . S
Zn159 O160 2.028 . S
Zn159 O162 2.028 . S
Zn159 O165 2.035 . S
O160 Zn159 2.028 . S
O160 C166 1.247 . S
O161 Zn157 2.035 . S
O161 C166 1.258 . S
O162 C155 1.247 . S
O162 Zn159 2.028 . S
O163 C155 1.258 . S
O163 Zn157 2.035 . S
O164 Zn157 2.028 . S
O164 C167 1.247 . S
O165 Zn159 2.035 . S
O165 C167 1.258 . S
C166 O160 1.247 . S
C166 O161 1.258 . S
C167 O164 1.247 . S
C167 O165 1.258 . S
C168 O170 1.247 . S
C168 O172 1.258 . S
C169 O176 1.247 . S
C169 O177 1.258 . S
O170 C168 1.247 . S
O170 Zn171 2.028 . S
Zn171 O170 2.028 . S
Zn171 O175 2.035 . S
Zn171 O177 2.035 . S
Zn171 O178 2.028 . S
O172 C168 1.258 . S
O172 Zn173 2.035 . S
Zn173 O172 2.035 . S
Zn173 O174 2.028 . S
Zn173 O176 2.028 . S
Zn173 O179 2.035 . S
O174 Zn173 2.028 . S
O174 C180 1.247 . S
O175 Zn171 2.035 . S
O175 C180 1.258 . S
O176 C169 1.247 . S
O176 Zn173 2.028 . S
O177 C169 1.258 . S
O177 Zn171 2.035 . S
O178 Zn171 2.028 . S
O178 C181 1.247 . S
O179 Zn173 2.035 . S
O179 C181 1.258 . S
C180 O174 1.247 . S
C180 O175 1.258 . S
C181 O178 1.247 . S
C181 O179 1.258 . S
C182 O184 1.247 . S
C182 O186 1.258 . S
C183 O190 1.247 . S
C183 O191 1.258 . S
O184 C182 1.247 . S
O184 Zn185 2.028 . S
Zn185 O184 2.028 . S
Zn185 O189 2.035 . S
Zn185 O191 2.035 . S
Zn185 O192 2.028 . S
O186 C182 1.258 . S
O186 Zn187 2.035 . S
Zn187 O186 2.035 . S
Zn187 O188 2.028 . S
Zn187 O190 2.028 . S
Zn187 O193 2.035 . S
O188 Zn187 2.028 . S
O188 C194 1.247 . S
O189 Zn185 2.035 . S
O189 C194 1.258 . S
O190 C183 1.247 . S
O190 Zn187 2.028 . S
O191 C183 1.258 . S
O191 Zn185 2.035 . S
O192 Zn185 2.028 . S
O192 C195 1.247 . S
O193 Zn187 2.035 . S
O193 C195 1.258 . S
C194 O188 1.247 . S
C194 O189 1.258 . S
C195 O192 1.247 . S
C195 O193 1.258 . S
C196 O198 1.247 . S
C196 O200 1.258 . S
C197 O204 1.247 . S
C197 O205 1.258 . S
O198 C196 1.247 . S
O198 Zn199 2.028 . S
Zn199 O198 2.028 . S
Zn199 O203 2.035 . S
Zn199 O205 2.035 . S
Zn199 O206 2.028 . S
O200 C196 1.258 . S
O200 Zn201 2.035 . S
Zn201 O200 2.035 . S
Zn201 O202 2.028 . S
Zn201 O204 2.028 . S
Zn201 O207 2.035 . S
O202 Zn201 2.028 . S
O202 C208 1.247 . S
O203 Zn199 2.035 . S
O203 C208 1.258 . S
O204 C197 1.247 . S
O204 Zn201 2.028 . S
O205 C197 1.258 . S
O205 Zn199 2.035 . S
O206 Zn199 2.028 . S
O206 C209 1.247 . S
O207 Zn201 2.035 . S
O207 C209 1.258 . S
C208 O202 1.247 . S
C208 O203 1.258 . S
C209 O206 1.247 . S
C209 O207 1.258 . S
C210 O212 1.247 . S
C210 O214 1.258 . S
C211 O218 1.247 . S
C211 O219 1.258 . S
O212 C210 1.247 . S
O212 Zn213 2.028 . S
Zn213 O212 2.028 . S
Zn213 O217 2.035 . S
Zn213 O219 2.035 . S
Zn213 O220 2.028 . S
O214 C210 1.258 . S
O214 Zn215 2.035 . S
Zn215 O214 2.035 . S
Zn215 O216 2.028 . S
Zn215 O218 2.028 . S
Zn215 O221 2.035 . S
O216 Zn215 2.028 . S
O216 C222 1.247 . S
O217 Zn213 2.035 . S
O217 C222 1.258 . S
O218 C211 1.247 . S
O218 Zn215 2.028 . S
O219 C211 1.258 . S
O219 Zn213 2.035 . S
O220 Zn213 2.028 . S
O220 C223 1.247 . S
O221 Zn215 2.035 . S
O221 C223 1.258 . S
C222 O216 1.247 . S
C222 O217 1.258 . S
C223 O220 1.247 . S
C223 O221 1.258 . S
C224 C225 1.349 . S
C224 C226 1.327 . S
C224 H249 0.950 . S
C225 C224 1.349 . S
C225 C241 1.349 . S
C226 C224 1.327 . S
C226 C245 1.429 . S
C226 H250 0.950 . S
C227 C244 1.574 . S
C227 C246 1.368 . S
C227 H251 0.949 . S
H228 C232 0.949 . S
C229 C230 1.349 . S
C229 C231 1.327 . S
C229 H252 0.950 . S
C230 C229 1.349 . S
C230 C242 1.349 . S
C231 C229 1.327 . S
C231 C247 1.429 . S
C231 H253 0.950 . S
C232 H228 0.949 . S
C232 C240 1.574 . S
C232 C248 1.368 . S
H233 C241 0.950 . S
H234 C239 0.950 . S
H235 C240 0.949 . S
H236 C242 0.950 . S
H237 C243 0.950 . S
H238 C244 0.949 . S
C239 H234 0.950 . S
C239 C241 1.327 . S
C239 C245 1.429 . S
C240 C232 1.574 . S
C240 H235 0.949 . S
C240 C246 1.368 . S
C241 C225 1.349 . S
C241 H233 0.950 . S
C241 C239 1.327 . S
C242 C230 1.349 . S
C242 H236 0.950 . S
C242 C243 1.327 . S
C243 H237 0.950 . S
C243 C242 1.327 . S
C243 C247 1.429 . S
C244 C227 1.574 . S
C244 H238 0.949 . S
C244 C248 1.368 . S
C245 C226 1.429 . S
C245 C239 1.429 . S
C245 C246 1.523 . S
C246 C227 1.368 . S
C246 C240 1.368 . S
C246 C245 1.523 . S
C247 C231 1.429 . S
C247 C243 1.429 . S
C247 C248 1.523 . S
C248 C232 1.368 . S
C248 C244 1.368 . S
C248 C247 1.523 . S
H249 C224 0.950 . S
H250 C226 0.950 . S
H251 C227 0.949 . S
H252 C229 0.950 . S
H253 C231 0.950 . S
C254 C255 1.349 . S
C254 C256 1.327 . S
C254 H279 0.950 . S
C255 C254 1.349 . S
C255 C271 1.349 . S
C256 C254 1.327 . S
C256 C275 1.429 . S
C256 H280 0.950 . S
C257 C274 1.574 . S
C257 C276 1.368 . S
C257 H281 0.949 . S
H258 C262 0.949 . S
C259 C260 1.349 . S
C259 C261 1.327 . S
C259 H282 0.950 . S
C260 C259 1.349 . S
C260 C272 1.349 . S
C261 C259 1.327 . S
C261 C277 1.429 . S
C261 H283 0.950 . S
C262 H258 0.949 . S
C262 C270 1.574 . S
C262 C278 1.368 . S
H263 C271 0.950 . S
H264 C269 0.950 . S
H265 C270 0.949 . S
H266 C272 0.950 . S
H267 C273 0.950 . S
H268 C274 0.949 . S
C269 H264 0.950 . S
C269 C271 1.327 . S
C269 C275 1.429 . S
C270 C262 1.574 . S
C270 H265 0.949 . S
C270 C276 1.368 . S
C271 C255 1.349 . S
C271 H263 0.950 . S
C271 C269 1.327 . S
C272 C260 1.349 . S
C272 H266 0.950 . S
C272 C273 1.327 . S
C273 H267 0.950 . S
C273 C272 1.327 . S
C273 C277 1.429 . S
C274 C257 1.574 . S
C274 H268 0.949 . S
C274 C278 1.368 . S
C275 C256 1.429 . S
C275 C269 1.429 . S
C275 C276 1.523 . S
C276 C257 1.368 . S
C276 C270 1.368 . S
C276 C275 1.523 . S
C277 C261 1.429 . S
C277 C273 1.429 . S
C277 C278 1.523 . S
C278 C262 1.368 . S
C278 C274 1.368 . S
C278 C277 1.523 . S
H279 C254 0.950 . S
H280 C256 0.950 . S
H281 C257 0.949 . S
H282 C259 0.950 . S
H283 C261 0.950 . S
C284 C285 1.349 . S
C284 C286 1.327 . S
C284 H309 0.950 . S
C285 C284 1.349 . S
C285 C301 1.349 . S
C286 C284 1.327 . S
C286 C305 1.429 . S
C286 H310 0.950 . S
C287 C304 1.574 . S
C287 C306 1.368 . S
C287 H311 0.949 . S
H288 C292 0.949 . S
C289 C290 1.349 . S
C289 C291 1.327 . S
C289 H312 0.950 . S
C290 C289 1.349 . S
C290 C302 1.349 . S
C291 C289 1.327 . S
C291 C307 1.429 . S
C291 H313 0.950 . S
C292 H288 0.949 . S
C292 C300 1.574 . S
C292 C308 1.368 . S
H293 C301 0.950 . S
H294 C299 0.950 . S
H295 C300 0.949 . S
H296 C302 0.950 . S
H297 C303 0.950 . S
H298 C304 0.949 . S
C299 H294 0.950 . S
C299 C301 1.327 . S
C299 C305 1.429 . S
C300 C292 1.574 . S
C300 H295 0.949 . S
C300 C306 1.368 . S
C301 C285 1.349 . S
C301 H293 0.950 . S
C301 C299 1.327 . S
C302 C290 1.349 . S
C302 H296 0.950 . S
C302 C303 1.327 . S
C303 H297 0.950 . S
C303 C302 1.327 . S
C303 C307 1.429 . S
C304 C287 1.574 . S
C304 H298 0.949 . S
C304 C308 1.368 . S
C305 C286 1.429 . S
C305 C299 1.429 . S
C305 C306 1.523 . S
C306 C287 1.368 . S
C306 C300 1.368 . S
C306 C305 1.523 . S
C307 C291 1.429 . S
C307 C303 1.429 . S
C307 C308 1.523 . S
C308 C292 1.368 . S
C308 C304 1.368 . S
C308 C307 1.523 . S
H309 C284 0.950 . S
H310 C286 0.950 . S
H311 C287 0.949 . S
H312 C289 0.950 . S
H313 C291 0.950 . S
C314 C315 1.349 . S
C314 C316 1.327 . S
C314 H339 0.950 . S
C315 C314 1.349 . S
C315 C331 1.349 . S
C316 C314 1.327 . S
C316 C335 1.429 . S
C316 H340 0.950 . S
C317 C334 1.574 . S
C317 C336 1.368 . S
C317 H341 0.949 . S
H318 C322 0.949 . S
C319 C320 1.349 . S
C319 C321 1.327 . S
C319 H342 0.950 . S
C320 C319 1.349 . S
C320 C332 1.349 . S
C321 C319 1.327 . S
C321 C337 1.429 . S
C321 H343 0.950 . S
C322 H318 0.949 . S
C322 C330 1.574 . S
C322 C338 1.368 . S
H323 C331 0.950 . S
H324 C329 0.950 . S
H325 C330 0.949 . S
H326 C332 0.950 . S
H327 C333 0.950 . S
H328 C334 0.949 . S
C329 H324 0.950 . S
C329 C331 1.327 . S
C329 C335 1.429 . S
C330 C322 1.574 . S
C330 H325 0.949 . S
C330 C336 1.368 . S
C331 C315 1.349 . S
C331 H323 0.950 . S
C331 C329 1.327 . S
C332 C320 1.349 . S
C332 H326 0.950 . S
C332 C333 1.327 . S
C333 H327 0.950 . S
C333 C332 1.327 . S
C333 C337 1.429 . S
C334 C317 1.574 . S
C334 H328 0.949 . S
C334 C338 1.368 . S
C335 C316 1.429 . S
C335 C329 1.429 . S
C335 C336 1.523 . S
C336 C317 1.368 . S
C336 C330 1.368 . S
C336 C335 1.523 . S
C337 C321 1.429 . S
C337 C333 1.429 . S
C337 C338 1.523 . S
C338 C322 1.368 . S
C338 C334 1.368 . S
C338 C337 1.523 . S
H339 C314 0.950 . S
H340 C316 0.950 . S
H341 C317 0.949 . S
H342 C319 0.950 . S
H343 C321 0.950 . S
C344 C345 1.349 . S
C344 C346 1.327 . S
C344 H369 0.950 . S
C345 C344 1.349 . S
C345 C361 1.349 . S
C346 C344 1.327 . S
C346 C365 1.429 . S
C346 H370 0.950 . S
C347 C364 1.574 . S
C347 C366 1.368 . S
C347 H371 0.949 . S
H348 C352 0.949 . S
C349 C350 1.349 . S
C349 C351 1.327 . S
C349 H372 0.950 . S
C350 C349 1.349 . S
C350 C362 1.349 . S
C351 C349 1.327 . S
C351 C367 1.429 . S
C351 H373 0.950 . S
C352 H348 0.949 . S
C352 C360 1.574 . S
C352 C368 1.368 . S
H353 C361 0.950 . S
H354 C359 0.950 . S
H355 C360 0.949 . S
H356 C362 0.950 . S
H357 C363 0.950 . S
H358 C364 0.949 . S
C359 H354 0.950 . S
C359 C361 1.327 . S
C359 C365 1.429 . S
C360 C352 1.574 . S
C360 H355 0.949 . S
C360 C366 1.368 . S
C361 C345 1.349 . S
C361 H353 0.950 . S
C361 C359 1.327 . S
C362 C350 1.349 . S
C362 H356 0.950 . S
C362 C363 1.327 . S
C363 H357 0.950 . S
C363 C362 1.327 . S
C363 C367 1.429 . S
C364 C347 1.574 . S
C364 H358 0.949 . S
C364 C368 1.368 . S
C365 C346 1.429 . S
C365 C359 1.429 . S
C365 C366 1.523 . S
C366 C347 1.368 . S
C366 C360 1.368 . S
C366 C365 1.523 . S
C367 C351 1.429 . S
C367 C363 1.429 . S
C367 C368 1.523 . S
C368 C352 1.368 . S
C368 C364 1.368 . S
C368 C367 1.523 . S
H369 C344 0.950 . S
H370 C346 0.950 . S
H371 C347 0.949 . S
H372 C349 0.950 . S
H373 C351 0.950 . S
C374 C375 1.349 . S
C374 C376 1.327 . S
C374 H399 0.950 . S
C375 C374 1.349 . S
C375 C391 1.349 . S
C376 C374 1.327 . S
C376 C395 1.429 . S
C376 H400 0.950 . S
C377 C394 1.574 . S
C377 C396 1.368 . S
C377 H401 0.949 . S
H378 C382 0.949 . S
C379 C380 1.349 . S
C379 C381 1.327 . S
C379 H402 0.950 . S
C380 C379 1.349 . S
C380 C392 1.349 . S
C381 C379 1.327 . S
C381 C397 1.429 . S
C381 H403 0.950 . S
C382 H378 0.949 . S
C382 C390 1.574 . S
C382 C398 1.368 . S
H383 C391 0.950 . S
H384 C389 0.950 . S
H385 C390 0.949 . S
H386 C392 0.950 . S
H387 C393 0.950 . S
H388 C394 0.949 . S
C389 H384 0.950 . S
C389 C391 1.327 . S
C389 C395 1.429 . S
C390 C382 1.574 . S
C390 H385 0.949 . S
C390 C396 1.368 . S
C391 C375 1.349 . S
C391 H383 0.950 . S
C391 C389 1.327 . S
C392 C380 1.349 . S
C392 H386 0.950 . S
C392 C393 1.327 . S
C393 H387 0.950 . S
C393 C392 1.327 . S
C393 C397 1.429 . S
C394 C377 1.574 . S
C394 H388 0.949 . S
C394 C398 1.368 . S
C395 C376 1.429 . S
C395 C389 1.429 . S
C395 C396 1.523 . S
C396 C377 1.368 . S
C396 C390 1.368 . S
C396 C395 1.523 . S
C397 C381 1.429 . S
C397 C393 1.429 . S
C397 C398 1.523 . S
C398 C382 1.368 . S
C398 C394 1.368 . S
C398 C397 1.523 . S
H399 C374 0.950 . S
H400 C376 0.950 . S
H401 C377 0.949 . S
H402 C379 0.950 . S
H403 C381 0.950 . S
C404 C405 1.349 . S
C404 C406 1.327 . S
C404 H429 0.950 . S
C405 C404 1.349 . S
C405 C421 1.349 . S
C406 C404 1.327 . S
C406 C425 1.429 . S
C406 H430 0.950 . S
C407 C424 1.574 . S
C407 C426 1.368 . S
C407 H431 0.949 . S
H408 C412 0.949 . S
C409 C410 1.349 . S
C409 C411 1.327 . S
C409 H432 0.950 . S
C410 C409 1.349 . S
C410 C422 1.349 . S
C411 C409 1.327 . S
C411 C427 1.429 . S
C411 H433 0.950 . S
C412 H408 0.949 . S
C412 C420 1.574 . S
C412 C428 1.368 . S
H413 C421 0.950 . S
H414 C419 0.950 . S
H415 C420 0.949 . S
H416 C422 0.950 . S
H417 C423 0.950 . S
H418 C424 0.949 . S
C419 H414 0.950 . S
C419 C421 1.327 . S
C419 C425 1.429 . S
C420 C412 1.574 . S
C420 H415 0.949 . S
C420 C426 1.368 . S
C421 C405 1.349 . S
C421 H413 0.950 . S
C421 C419 1.327 . S
C422 C410 1.349 . S
C422 H416 0.950 . S
C422 C423 1.327 . S
C423 H417 0.950 . S
C423 C422 1.327 . S
C423 C427 1.429 . S
C424 C407 1.574 . S
C424 H418 0.949 . S
C424 C428 1.368 . S
C425 C406 1.429 . S
C425 C419 1.429 . S
C425 C426 1.523 . S
C426 C407 1.368 . S
C426 C420 1.368 . S
C426 C425 1.523 . S
C427 C411 1.429 . S
C427 C423 1.429 . S
C427 C428 1.523 . S
C428 C412 1.368 . S
C428 C424 1.368 . S
C428 C427 1.523 . S
H429 C404 0.950 . S
H430 C406 0.950 . S
H431 C407 0.949 . S
H432 C409 0.950 . S
H433 C411 0.950 . S
C434 C435 1.349 . S
C434 C436 1.327 . S
C434 H459 0.950 . S
C435 C434 1.349 . S
C435 C451 1.349 . S
C436 C434 1.327 . S
C436 C455 1.429 . S
C436 H460 0.950 . S
C437 C454 1.574 . S
C437 C456 1.368 . S
C437 H461 0.949 . S
H438 C442 0.949 . S
C439 C440 1.349 . S
C439 C441 1.327 . S
C439 H462 0.950 . S
C440 C439 1.349 . S
C440 C452 1.349 . S
C441 C439 1.327 . S
C441 C457 1.429 . S
C441 H463 0.950 . S
C442 H438 0.949 . S
C442 C450 1.574 . S
C442 C458 1.368 . S
H443 C451 0.950 . S
H444 C449 0.950 . S
H445 C450 0.949 . S
H446 C452 0.950 . S
H447 C453 0.950 . S
H448 C454 0.949 . S
C449 H444 0.950 . S
C449 C451 1.327 . S
C449 C455 1.429 . S
C450 C442 1.574 . S
C450 H445 0.949 . S
C450 C456 1.368 . S
C451 C435 1.349 . S
C451 H443 0.950 . S
C451 C449 1.327 . S
C452 C440 1.349 . S
C452 H446 0.950 . S
C452 C453 1.327 . S
C453 H447 0.950 . S
C453 C452 1.327 . S
C453 C457 1.429 . S
C454 C437 1.574 . S
C454 H448 0.949 . S
C454 C458 1.368 . S
C455 C436 1.429 . S
C455 C449 1.429 . S
C455 C456 1.523 . S
C456 C437 1.368 . S
C456 C450 1.368 . S
C456 C455 1.523 . S
C457 C441 1.429 . S
C457 C453 1.429 . S
C457 C458 1.523 . S
C458 C442 1.368 . S
C458 C454 1.368 . S
C458 C457 1.523 . S
H459 C434 0.950 . S
H460 C436 0.950 . S
H461 C437 0.949 . S
H462 C439 0.950 . S
H463 C441 0.950 . S
C464 C465 1.349 . S
C464 C466 1.327 . S
C464 H489 0.950 . S
C465 C464 1.349 . S
C465 C481 1.349 . S
C466 C464 1.327 . S
C466 C485 1.429 . S
C466 H490 0.950 . S
C467 C484 1.574 . S
C467 C486 1.368 . S
C467 H491 0.949 . S
H468 C472 0.949 . S
C469 C470 1.349 1_655 S
C469 C471 1.327 . S
C469 H492 0.950 . S
C470 C469 1.349 1_455 S
C470 C482 1.349 . S
C471 C469 1.327 . S
C471 C487 1.429 . S
C471 H493 0.950 . S
C472 H468 0.949 . S
C472 C480 1.574 . S
C472 C488 1.368 . S
H473 C481 0.950 . S
H474 C479 0.950 . S
H475 C480 0.949 . S
H476 C482 0.950 . S
H477 C483 0.950 . S
H478 C484 0.949 . S
C479 H474 0.950 . S
C479 C481 1.327 . S
C479 C485 1.429 . S
C480 C472 1.574 . S
C480 H475 0.949 . S
C480 C486 1.368 . S
C481 C465 1.349 . S
C481 H473 0.950 . S
C481 C479 1.327 . S
C482 C470 1.349 . S
C482 H476 0.950 . S
C482 C483 1.327 . S
C483 H477 0.950 . S
C483 C482 1.327 . S
C483 C487 1.429 1_455 S
C484 C467 1.574 . S
C484 H478 0.949 . S
C484 C488 1.368 . S
C485 C466 1.429 . S
C485 C479 1.429 . S
C485 C486 1.523 . S
C486 C467 1.368 . S
C486 C480 1.368 . S
C486 C485 1.523 . S
C487 C471 1.429 . S
C487 C483 1.429 1_655 S
C487 C488 1.523 . S
C488 C472 1.368 . S
C488 C484 1.368 . S
C488 C487 1.523 . S
H489 C464 0.950 . S
H490 C466 0.950 . S
H491 C467 0.949 . S
H492 C469 0.950 . S
H493 C471 0.950 . S
C494 C495 1.349 . S
C494 C496 1.327 . S
C494 H519 0.950 . S
C495 C494 1.349 . S
C495 C511 1.349 1_545 S
C496 C494 1.327 . S
C496 C515 1.429 1_545 S
C496 H520 0.950 . S
C497 C514 1.574 . S
C497 C516 1.368 . S
C497 H521 0.949 . S
H498 C502 0.949 . S
C499 C500 1.349 . S
C499 C501 1.327 . S
C499 H522 0.950 . S
C500 C499 1.349 . S
C500 C512 1.349 1_455 S
C501 C499 1.327 . S
C501 C517 1.429 1_455 S
C501 H523 0.950 . S
C502 H498 0.949 . S
C502 C510 1.574 . S
C502 C518 1.368 . S
H503 C511 0.950 . S
H504 C509 0.950 . S
H505 C510 0.949 . S
H506 C512 0.950 . S
H507 C513 0.950 . S
H508 C514 0.949 . S
C509 H504 0.950 . S
C509 C511 1.327 . S
C509 C515 1.429 . S
C510 C502 1.574 . S
C510 H505 0.949 . S
C510 C516 1.368 . S
C511 C495 1.349 1_565 S
C511 H503 0.950 . S
C511 C509 1.327 . S
C512 C500 1.349 1_655 S
C512 H506 0.950 . S
C512 C513 1.327 . S
C513 H507 0.950 . S
C513 C512 1.327 . S
C513 C517 1.429 . S
C514 C497 1.574 . S
C514 H508 0.949 . S
C514 C518 1.368 . S
C515 C496 1.429 1_565 S
C515 C509 1.429 . S
C515 C516 1.523 . S
C516 C497 1.368 . S
C516 C510 1.368 . S
C516 C515 1.523 . S
C517 C501 1.429 1_655 S
C517 C513 1.429 . S
C517 C518 1.523 . S
C518 C502 1.368 . S
C518 C514 1.368 . S
C518 C517 1.523 . S
H519 C494 0.950 . S
H520 C496 0.950 . S
H521 C497 0.949 . S
H522 C499 0.950 . S
H523 C501 0.950 . S
C524 C525 1.349 . S
C524 C526 1.327 . S
C524 H549 0.950 . S
C525 C524 1.349 . S
C525 C541 1.349 1_545 S
C526 C524 1.327 . S
C526 C545 1.429 1_545 S
C526 H550 0.950 . S
C527 C544 1.574 . S
C527 C546 1.368 . S
C527 H551 0.949 . S
H528 C532 0.949 . S
C529 C530 1.349 . S
C529 C531 1.327 . S
C529 H552 0.950 . S
C530 C529 1.349 . S
C530 C542 1.349 . S
C531 C529 1.327 . S
C531 C547 1.429 . S
C531 H553 0.950 . S
C532 H528 0.949 . S
C532 C540 1.574 . S
C532 C548 1.368 . S
H533 C541 0.950 . S
H534 C539 0.950 . S
H535 C540 0.949 . S
H536 C542 0.950 . S
H537 C543 0.950 . S
H538 C544 0.949 . S
C539 H534 0.950 . S
C539 C541 1.327 . S
C539 C545 1.429 . S
C540 C532 1.574 . S
C540 H535 0.949 . S
C540 C546 1.368 . S
C541 C525 1.349 1_565 S
C541 H533 0.950 . S
C541 C539 1.327 . S
C542 C530 1.349 . S
C542 H536 0.950 . S
C542 C543 1.327 . S
C543 H537 0.950 . S
C543 C542 1.327 . S
C543 C547 1.429 . S
C544 C527 1.574 . S
C544 H538 0.949 . S
C544 C548 1.368 . S
C545 C526 1.429 1_565 S
C545 C539 1.429 . S
C545 C546 1.523 . S
C546 C527 1.368 . S
C546 C540 1.368 . S
C546 C545 1.523 . S
C547 C531 1.429 . S
C547 C543 1.429 . S
C547 C548 1.523 . S
C548 C532 1.368 . S
C548 C544 1.368 . S
C548 C547 1.523 . S
H549 C524 0.950 . S
H550 C526 0.950 . S
H551 C527 0.949 . S
H552 C529 0.950 . S
H553 C531 0.950 . S
C554 C555 1.349 . S
C554 C556 1.327 . S
C554 H579 0.950 . S
C555 C554 1.349 . S
C555 C571 1.349 . S
C556 C554 1.327 . S
C556 C575 1.429 . S
C556 H580 0.950 . S
C557 C574 1.574 . S
C557 C576 1.368 . S
C557 H581 0.949 . S
H558 C562 0.949 . S
C559 C560 1.349 . S
C559 C561 1.327 . S
C559 H582 0.950 . S
C560 C559 1.349 . S
C560 C572 1.349 . S
C561 C559 1.327 . S
C561 C577 1.429 . S
C561 H583 0.950 . S
C562 H558 0.949 . S
C562 C570 1.574 . S
C562 C578 1.368 . S
H563 C571 0.950 . S
H564 C569 0.950 . S
H565 C570 0.949 . S
H566 C572 0.950 . S
H567 C573 0.950 . S
H568 C574 0.949 . S
C569 H564 0.950 . S
C569 C571 1.327 . S
C569 C575 1.429 . S
C570 C562 1.574 . S
C570 H565 0.949 . S
C570 C576 1.368 . S
C571 C555 1.349 . S
C571 H563 0.950 . S
C571 C569 1.327 . S
C572 C560 1.349 . S
C572 H566 0.950 . S
C572 C573 1.327 . S
C573 H567 0.950 . S
C573 C572 1.327 . S
C573 C577 1.429 . S
C574 C557 1.574 . S
C574 H568 0.949 . S
C574 C578 1.368 . S
C575 C556 1.429 . S
C575 C569 1.429 . S
C575 C576 1.523 . S
C576 C557 1.368 . S
C576 C570 1.368 . S
C576 C575 1.523 . S
C577 C561 1.429 . S
C577 C573 1.429 . S
C577 C578 1.523 . S
C578 C562 1.368 . S
C578 C574 1.368 . S
C578 C577 1.523 . S
H579 C554 0.950 . S
H580 C556 0.950 . S
H581 C557 0.949 . S
H582 C559 0.950 . S
H583 C561 0.950 . S
C584 C585 1.349 . S
C584 C586 1.327 . S
C584 H609 0.950 . S
C585 C584 1.349 . S
C585 C601 1.349 . S
C586 C584 1.327 . S
C586 C605 1.429 . S
C586 H610 0.950 . S
C587 C604 1.574 . S
C587 C606 1.368 . S
C587 H611 0.949 . S
H588 C592 0.949 . S
C589 C590 1.349 . S
C589 C591 1.327 1_655 S
C589 H612 0.950 . S
C590 C589 1.349 . S
C590 C602 1.349 . S
C591 C589 1.327 1_455 S
C591 C607 1.429 . S
C591 H613 0.950 . S
C592 H588 0.949 . S
C592 C600 1.574 . S
C592 C608 1.368 . S
H593 C601 0.950 . S
H594 C599 0.950 . S
H595 C600 0.949 . S
H596 C602 0.950 . S
H597 C603 0.950 . S
H598 C604 0.949 . S
C599 H594 0.950 . S
C599 C601 1.327 . S
C599 C605 1.429 . S
C600 C592 1.574 . S
C600 H595 0.949 . S
C600 C606 1.368 . S
C601 C585 1.349 . S
C601 H593 0.950 . S
C601 C599 1.327 . S
C602 C590 1.349 . S
C602 H596 0.950 . S
C602 C603 1.327 1_655 S
C603 H597 0.950 . S
C603 C602 1.327 1_455 S
C603 C607 1.429 . S
C604 C587 1.574 . S
C604 H598 0.949 . S
C604 C608 1.368 . S
C605 C586 1.429 . S
C605 C599 1.429 . S
C605 C606 1.523 . S
C606 C587 1.368 . S
C606 C600 1.368 . S
C606 C605 1.523 . S
C607 C591 1.429 . S
C607 C603 1.429 . S
C607 C608 1.523 . S
C608 C592 1.368 . S
C608 C604 1.368 . S
C608 C607 1.523 . S
H609 C584 0.950 . S
H610 C586 0.950 . S
H611 C587 0.949 . S
H612 C589 0.950 . S
H613 C591 0.950 . S
C614 C615 1.349 . S
C614 C616 1.327 . S
C614 H639 0.950 . S
C615 C614 1.349 . S
C615 C631 1.349 1_565 S
C616 C614 1.327 . S
C616 C635 1.429 1_565 S
C616 H640 0.950 . S
C617 C634 1.574 . S
C617 C636 1.368 . S
C617 H641 0.949 . S
H618 C622 0.949 . S
C619 C620 1.349 1_455 S
C619 C621 1.327 . S
C619 H642 0.950 . S
C620 C619 1.349 1_655 S
C620 C632 1.349 . S
C621 C619 1.327 . S
C621 C637 1.429 . S
C621 H643 0.950 . S
C622 H618 0.949 . S
C622 C630 1.574 . S
C622 C638 1.368 . S
H623 C631 0.950 . S
H624 C629 0.950 . S
H625 C630 0.949 1_565 S
H626 C632 0.950 . S
H627 C633 0.950 . S
H628 C634 0.949 . S
C629 H624 0.950 . S
C629 C631 1.327 . S
C629 C635 1.429 . S
C630 C622 1.574 . S
C630 H625 0.949 1_545 S
C630 C636 1.368 . S
C631 C615 1.349 1_545 S
C631 H623 0.950 . S
C631 C629 1.327 . S
C632 C620 1.349 . S
C632 H626 0.950 . S
C632 C633 1.327 . S
C633 H627 0.950 . S
C633 C632 1.327 . S
C633 C637 1.429 1_655 S
C634 C617 1.574 . S
C634 H628 0.949 . S
C634 C638 1.368 . S
C635 C616 1.429 1_545 S
C635 C629 1.429 . S
C635 C636 1.523 . S
C636 C617 1.368 . S
C636 C630 1.368 . S
C636 C635 1.523 . S
C637 C621 1.429 . S
C637 C633 1.429 1_455 S
C637 C638 1.523 . S
C638 C622 1.368 . S
C638 C634 1.368 . S
C638 C637 1.523 . S
H639 C614 0.950 . S
H640 C616 0.950 . S
H641 C617 0.949 . S
H642 C619 0.950 . S
H643 C621 0.950 . S
C644 C645 1.349 . S
C644 C646 1.327 . S
C644 H669 0.950 . S
C645 C644 1.349 . S
C645 C661 1.349 . S
C646 C644 1.327 . S
C646 C665 1.429 . S
C646 H670 0.950 . S
C647 C664 1.574 . S
C647 C666 1.368 . S
C647 H671 0.949 . S
H648 C652 0.949 . S
C649 C650 1.349 1_545 S
C649 C651 1.327 . S
C649 H672 0.950 . S
C650 C649 1.349 1_565 S
C650 C662 1.349 . S
C651 C649 1.327 . S
C651 C667 1.429 . S
C651 H673 0.950 . S
C652 H648 0.949 . S
C652 C660 1.574 . S
C652 C668 1.368 . S
H653 C661 0.950 . S
H654 C659 0.950 . S
H655 C660 0.949 . S
H656 C662 0.950 . S
H657 C663 0.950 . S
H658 C664 0.949 . S
C659 H654 0.950 . S
C659 C661 1.327 . S
C659 C665 1.429 . S
C660 C652 1.574 . S
C660 H655 0.949 . S
C660 C666 1.368 . S
C661 C645 1.349 . S
C661 H653 0.950 . S
C661 C659 1.327 . S
C662 C650 1.349 . S
C662 H656 0.950 . S
C662 C663 1.327 . S
C663 H657 0.950 . S
C663 C662 1.327 . S
C663 C667 1.429 1_565 S
C664 C647 1.574 . S
C664 H658 0.949 . S
C664 C668 1.368 . S
C665 C646 1.429 . S
C665 C659 1.429 . S
C665 C666 1.523 . S
C666 C647 1.368 . S
C666 C660 1.368 . S
C666 C665 1.523 . S
C667 C651 1.429 . S
C667 C663 1.429 1_545 S
C667 C668 1.523 . S
C668 C652 1.368 . S
C668 C664 1.368 . S
C668 C667 1.523 . S
H669 C644 0.950 . S
H670 C646 0.950 . S
H671 C647 0.949 . S
H672 C649 0.950 . S
H673 C651 0.950 . S
C674 C675 1.349 . S
C674 C676 1.327 . S
C674 H699 0.950 . S
C675 C674 1.349 . S
C675 C691 1.349 . S
C676 C674 1.327 . S
C676 C695 1.429 . S
C676 H700 0.950 . S
C677 C694 1.574 . S
C677 C696 1.368 . S
C677 H701 0.949 . S
H678 C682 0.949 . S
C679 C680 1.349 . S
C679 C681 1.327 . S
C679 H702 0.950 . S
C680 C679 1.349 . S
C680 C692 1.349 . S
C681 C679 1.327 . S
C681 C697 1.429 . S
C681 H703 0.950 . S
C682 H678 0.949 . S
C682 C690 1.574 . S
C682 C698 1.368 . S
H683 C691 0.950 . S
H684 C689 0.950 . S
H685 C690 0.949 . S
H686 C692 0.950 . S
H687 C693 0.950 . S
H688 C694 0.949 . S
C689 H684 0.950 . S
C689 C691 1.327 . S
C689 C695 1.429 . S
C690 C682 1.574 . S
C690 H685 0.949 . S
C690 C696 1.368 . S
C691 C675 1.349 . S
C691 H683 0.950 . S
C691 C689 1.327 . S
C692 C680 1.349 . S
C692 H686 0.950 . S
C692 C693 1.327 . S
C693 H687 0.950 . S
C693 C692 1.327 . S
C693 C697 1.429 . S
C694 C677 1.574 . S
C694 H688 0.949 . S
C694 C698 1.368 . S
C695 C676 1.429 . S
C695 C689 1.429 . S
C695 C696 1.523 . S
C696 C677 1.368 . S
C696 C690 1.368 . S
C696 C695 1.523 . S
C697 C681 1.429 . S
C697 C693 1.429 . S
C697 C698 1.523 . S
C698 C682 1.368 . S
C698 C694 1.368 . S
C698 C697 1.523 . S
H699 C674 0.950 . S
H700 C676 0.950 . S
H701 C677 0.949 . S
H702 C679 0.950 . S
H703 C681 0.950 . S
C704 C705 1.349 . S
C704 C706 1.327 . S
C704 H729 0.950 . S
C705 C704 1.349 . S
C705 C721 1.349 . S
C706 C704 1.327 . S
C706 C725 1.429 . S
C706 H730 0.950 . S
C707 C724 1.574 . S
C707 C726 1.368 . S
C707 H731 0.949 . S
H708 C712 0.949 . S
C709 C710 1.349 . S
C709 C711 1.327 . S
C709 H732 0.950 . S
C710 C709 1.349 . S
C710 C722 1.349 . S
C711 C709 1.327 . S
C711 C727 1.429 . S
C711 H733 0.950 . S
C712 H708 0.949 . S
C712 C720 1.574 . S
C712 C728 1.368 . S
H713 C721 0.950 . S
H714 C719 0.950 . S
H715 C720 0.949 . S
H716 C722 0.950 . S
H717 C723 0.950 . S
H718 C724 0.949 . S
C719 H714 0.950 . S
C719 C721 1.327 . S
C719 C725 1.429 . S
C720 C712 1.574 . S
C720 H715 0.949 . S
C720 C726 1.368 . S
C721 C705 1.349 . S
C721 H713 0.950 . S
C721 C719 1.327 . S
C722 C710 1.349 . S
C722 H716 0.950 . S
C722 C723 1.327 . S
C723 H717 0.950 . S
C723 C722 1.327 . S
C723 C727 1.429 . S
C724 C707 1.574 . S
C724 H718 0.949 . S
C724 C728 1.368 . S
C725 C706 1.429 . S
C725 C719 1.429 . S
C725 C726 1.523 . S
C726 C707 1.368 . S
C726 C720 1.368 . S
C726 C725 1.523 . S
C727 C711 1.429 . S
C727 C723 1.429 . S
C727 C728 1.523 . S
C728 C712 1.368 . S
C728 C724 1.368 . S
C728 C727 1.523 . S
H729 C704 0.950 . S
H730 C706 0.950 . S
H731 C707 0.949 . S
H732 C709 0.950 . S
H733 C711 0.950 . S
C734 C735 1.349 . S
C734 C736 1.327 . S
C734 H759 0.950 . S
C735 C734 1.349 . S
C735 C751 1.349 . S
C736 C734 1.327 . S
C736 C755 1.429 . S
C736 H760 0.950 . S
C737 C754 1.574 . S
C737 C756 1.368 . S
C737 H761 0.949 . S
H738 C742 0.949 . S
C739 C740 1.349 . S
C739 C741 1.327 . S
C739 H762 0.950 . S
C740 C739 1.349 . S
C740 C752 1.349 . S
C741 C739 1.327 . S
C741 C757 1.429 . S
C741 H763 0.950 . S
C742 H738 0.949 . S
C742 C750 1.574 . S
C742 C758 1.368 . S
H743 C751 0.950 . S
H744 C749 0.950 . S
H745 C750 0.949 . S
H746 C752 0.950 . S
H747 C753 0.950 . S
H748 C754 0.949 . S
C749 H744 0.950 . S
C749 C751 1.327 . S
C749 C755 1.429 . S
C750 C742 1.574 . S
C750 H745 0.949 . S
C750 C756 1.368 . S
C751 C735 1.349 . S
C751 H743 0.950 . S
C751 C749 1.327 . S
C752 C740 1.349 . S
C752 H746 0.950 . S
C752 C753 1.327 . S
C753 H747 0.950 . S
C753 C752 1.327 . S
C753 C757 1.429 . S
C754 C737 1.574 . S
C754 H748 0.949 . S
C754 C758 1.368 . S
C755 C736 1.429 . S
C755 C749 1.429 . S
C755 C756 1.523 . S
C756 C737 1.368 . S
C756 C750 1.368 . S
C756 C755 1.523 . S
C757 C741 1.429 . S
C757 C753 1.429 . S
C757 C758 1.523 . S
C758 C742 1.368 . S
C758 C754 1.368 . S
C758 C757 1.523 . S
H759 C734 0.950 . S
H760 C736 0.950 . S
H761 C737 0.949 . S
H762 C739 0.950 . S
H763 C741 0.950 . S
C764 C765 1.349 . S
C764 C766 1.327 . S
C764 H789 0.950 . S
C765 C764 1.349 . S
C765 C781 1.349 . S
C766 C764 1.327 . S
C766 C785 1.429 . S
C766 H790 0.950 . S
C767 C784 1.574 . S
C767 C786 1.368 . S
C767 H791 0.949 . S
H768 C772 0.949 . S
C769 C770 1.349 . S
C769 C771 1.327 . S
C769 H792 0.950 . S
C770 C769 1.349 . S
C770 C782 1.349 . S
C771 C769 1.327 . S
C771 C787 1.429 . S
C771 H793 0.950 . S
C772 H768 0.949 . S
C772 C780 1.574 . S
C772 C788 1.368 . S
H773 C781 0.950 . S
H774 C779 0.950 . S
H775 C780 0.949 . S
H776 C782 0.950 . S
H777 C783 0.950 . S
H778 C784 0.949 . S
C779 H774 0.950 . S
C779 C781 1.327 . S
C779 C785 1.429 . S
C780 C772 1.574 . S
C780 H775 0.949 . S
C780 C786 1.368 . S
C781 C765 1.349 . S
C781 H773 0.950 . S
C781 C779 1.327 . S
C782 C770 1.349 . S
C782 H776 0.950 . S
C782 C783 1.327 . S
C783 H777 0.950 . S
C783 C782 1.327 . S
C783 C787 1.429 . S
C784 C767 1.574 . S
C784 H778 0.949 . S
C784 C788 1.368 . S
C785 C766 1.429 . S
C785 C779 1.429 . S
C785 C786 1.523 . S
C786 C767 1.368 . S
C786 C780 1.368 . S
C786 C785 1.523 . S
C787 C771 1.429 . S
C787 C783 1.429 . S
C787 C788 1.523 . S
C788 C772 1.368 . S
C788 C784 1.368 . S
C788 C787 1.523 . S
H789 C764 0.950 . S
H790 C766 0.950 . S
H791 C767 0.949 . S
H792 C769 0.950 . S
H793 C771 0.950 . S
C794 C795 1.349 . S
C794 C796 1.327 . S
C794 H819 0.950 . S
C795 C794 1.349 . S
C795 C811 1.349 . S
C796 C794 1.327 . S
C796 C815 1.429 . S
C796 H820 0.950 . S
C797 C814 1.574 . S
C797 C816 1.368 . S
C797 H821 0.949 . S
H798 C802 0.949 . S
C799 C800 1.349 . S
C799 C801 1.327 . S
C799 H822 0.950 . S
C800 C799 1.349 . S
C800 C812 1.349 . S
C801 C799 1.327 . S
C801 C817 1.429 . S
C801 H823 0.950 . S
C802 H798 0.949 . S
C802 C810 1.574 . S
C802 C818 1.368 . S
H803 C811 0.950 . S
H804 C809 0.950 . S
H805 C810 0.949 . S
H806 C812 0.950 . S
H807 C813 0.950 . S
H808 C814 0.949 . S
C809 H804 0.950 . S
C809 C811 1.327 . S
C809 C815 1.429 . S
C810 C802 1.574 . S
C810 H805 0.949 . S
C810 C816 1.368 . S
C811 C795 1.349 . S
C811 H803 0.950 . S
C811 C809 1.327 . S
C812 C800 1.349 . S
C812 H806 0.950 . S
C812 C813 1.327 . S
C813 H807 0.950 . S
C813 C812 1.327 . S
C813 C817 1.429 . S
C814 C797 1.574 . S
C814 H808 0.949 . S
C814 C818 1.368 . S
C815 C796 1.429 . S
C815 C809 1.429 . S
C815 C816 1.523 . S
C816 C797 1.368 . S
C816 C810 1.368 . S
C816 C815 1.523 . S
C817 C801 1.429 . S
C817 C813 1.429 . S
C817 C818 1.523 . S
C818 C802 1.368 . S
C818 C814 1.368 . S
C818 C817 1.523 . S
H819 C794 0.950 . S
H820 C796 0.950 . S
H821 C797 0.949 . S
H822 C799 0.950 . S
H823 C801 0.950 . S
C824 C825 1.349 . S
C824 C826 1.327 . S
C824 H849 0.950 . S
C825 C824 1.349 . S
C825 C841 1.349 . S
C826 C824 1.327 . S
C826 C845 1.429 . S
C826 H850 0.950 . S
C827 C844 1.574 . S
C827 C846 1.368 . S
C827 H851 0.949 . S
H828 C832 0.949 . S
C829 C830 1.349 . S
C829 C831 1.327 . S
C829 H852 0.950 . S
C830 C829 1.349 . S
C830 C842 1.349 . S
C831 C829 1.327 . S
C831 C847 1.429 . S
C831 H853 0.950 . S
C832 H828 0.949 . S
C832 C840 1.574 . S
C832 C848 1.368 . S
H833 C841 0.950 . S
H834 C839 0.950 . S
H835 C840 0.949 . S
H836 C842 0.950 . S
H837 C843 0.950 . S
H838 C844 0.949 . S
C839 H834 0.950 . S
C839 C841 1.327 . S
C839 C845 1.429 . S
C840 C832 1.574 . S
C840 H835 0.949 . S
C840 C846 1.368 . S
C841 C825 1.349 . S
C841 H833 0.950 . S
C841 C839 1.327 . S
C842 C830 1.349 . S
C842 H836 0.950 . S
C842 C843 1.327 . S
C843 H837 0.950 . S
C843 C842 1.327 . S
C843 C847 1.429 . S
C844 C827 1.574 . S
C844 H838 0.949 . S
C844 C848 1.368 . S
C845 C826 1.429 . S
C845 C839 1.429 . S
C845 C846 1.523 . S
C846 C827 1.368 . S
C846 C840 1.368 . S
C846 C845 1.523 . S
C847 C831 1.429 . S
C847 C843 1.429 . S
C847 C848 1.523 . S
C848 C832 1.368 . S
C848 C844 1.368 . S
C848 C847 1.523 . S
H849 C824 0.950 . S
H850 C826 0.950 . S
H851 C827 0.949 . S
H852 C829 0.950 . S
H853 C831 0.950 . S
C854 C855 1.349 . S
C854 C856 1.327 . S
C854 H879 0.950 . S
C855 C854 1.349 . S
C855 C871 1.349 . S
C856 C854 1.327 . S
C856 C875 1.429 . S
C856 H880 0.950 . S
C857 C874 1.574 . S
C857 C876 1.368 . S
C857 H881 0.949 . S
H858 C862 0.949 . S
C859 C860 1.349 . S
C859 C861 1.327 . S
C859 H882 0.950 . S
C860 C859 1.349 . S
C860 C872 1.349 . S
C861 C859 1.327 . S
C861 C877 1.429 . S
C861 H883 0.950 . S
C862 H858 0.949 . S
C862 C870 1.574 . S
C862 C878 1.368 . S
H863 C871 0.950 . S
H864 C869 0.950 . S
H865 C870 0.949 . S
H866 C872 0.950 . S
H867 C873 0.950 . S
H868 C874 0.949 . S
C869 H864 0.950 . S
C869 C871 1.327 . S
C869 C875 1.429 . S
C870 C862 1.574 . S
C870 H865 0.949 . S
C870 C876 1.368 . S
C871 C855 1.349 . S
C871 H863 0.950 . S
C871 C869 1.327 . S
C872 C860 1.349 . S
C872 H866 0.950 . S
C872 C873 1.327 . S
C873 H867 0.950 . S
C873 C872 1.327 . S
C873 C877 1.429 . S
C874 C857 1.574 . S
C874 H868 0.949 . S
C874 C878 1.368 . S
C875 C856 1.429 . S
C875 C869 1.429 . S
C875 C876 1.523 . S
C876 C857 1.368 . S
C876 C870 1.368 . S
C876 C875 1.523 . S
C877 C861 1.429 . S
C877 C873 1.429 . S
C877 C878 1.523 . S
C878 C862 1.368 . S
C878 C874 1.368 . S
C878 C877 1.523 . S
H879 C854 0.950 . S
H880 C856 0.950 . S
H881 C857 0.949 . S
H882 C859 0.950 . S
H883 C861 0.950 . S
C884 C885 1.349 . S
C884 C886 1.327 . S
C884 H909 0.950 . S
C885 C884 1.349 . S
C885 C901 1.349 . S
C886 C884 1.327 . S
C886 C905 1.429 . S
C886 H910 0.950 . S
C887 C904 1.574 . S
C887 C906 1.368 . S
C887 H911 0.949 . S
H888 C892 0.949 . S
C889 C890 1.349 . S
C889 C891 1.327 . S
C889 H912 0.950 . S
C890 C889 1.349 . S
C890 C902 1.349 . S
C891 C889 1.327 . S
C891 C907 1.429 . S
C891 H913 0.950 . S
C892 H888 0.949 . S
C892 C900 1.574 . S
C892 C908 1.368 . S
H893 C901 0.950 . S
H894 C899 0.950 . S
H895 C900 0.949 . S
H896 C902 0.950 . S
H897 C903 0.950 . S
H898 C904 0.949 . S
C899 H894 0.950 . S
C899 C901 1.327 . S
C899 C905 1.429 . S
C900 C892 1.574 . S
C900 H895 0.949 . S
C900 C906 1.368 . S
C901 C885 1.349 . S
C901 H893 0.950 . S
C901 C899 1.327 . S
C902 C890 1.349 . S
C902 H896 0.950 . S
C902 C903 1.327 . S
C903 H897 0.950 . S
C903 C902 1.327 . S
C903 C907 1.429 . S
C904 C887 1.574 . S
C904 H898 0.949 . S
C904 C908 1.368 . S
C905 C886 1.429 . S
C905 C899 1.429 . S
C905 C906 1.523 . S
C906 C887 1.368 . S
C906 C900 1.368 . S
C906 C905 1.523 . S
C907 C891 1.429 . S
C907 C903 1.429 . S
C907 C908 1.523 . S
C908 C892 1.368 . S
C908 C904 1.368 . S
C908 C907 1.523 . S
H909 C884 0.950 . S
H910 C886 0.950 . S
H911 C887 0.949 . S
H912 C889 0.950 . S
H913 C891 0.950 . S
C914 C915 1.349 . S
C914 C916 1.327 . S
C914 H939 0.950 . S
C915 C914 1.349 . S
C915 C931 1.349 . S
C916 C914 1.327 . S
C916 C935 1.429 . S
C916 H940 0.950 . S
C917 C934 1.574 . S
C917 C936 1.368 . S
C917 H941 0.949 . S
H918 C922 0.949 . S
C919 C920 1.349 . S
C919 C921 1.327 . S
C919 H942 0.950 . S
C920 C919 1.349 . S
C920 C932 1.349 . S
C921 C919 1.327 . S
C921 C937 1.429 . S
C921 H943 0.950 . S
C922 H918 0.949 . S
C922 C930 1.574 . S
C922 C938 1.368 . S
H923 C931 0.950 . S
H924 C929 0.950 . S
H925 C930 0.949 . S
H926 C932 0.950 . S
H927 C933 0.950 . S
H928 C934 0.949 . S
C929 H924 0.950 . S
C929 C931 1.327 . S
C929 C935 1.429 . S
C930 C922 1.574 . S
C930 H925 0.949 . S
C930 C936 1.368 . S
C931 C915 1.349 . S
C931 H923 0.950 . S
C931 C929 1.327 . S
C932 C920 1.349 . S
C932 H926 0.950 . S
C932 C933 1.327 . S
C933 H927 0.950 . S
C933 C932 1.327 . S
C933 C937 1.429 . S
C934 C917 1.574 . S
C934 H928 0.949 . S
C934 C938 1.368 . S
C935 C916 1.429 . S
C935 C929 1.429 . S
C935 C936 1.523 . S
C936 C917 1.368 . S
C936 C930 1.368 . S
C936 C935 1.523 . S
C937 C921 1.429 . S
C937 C933 1.429 . S
C937 C938 1.523 . S
C938 C922 1.368 . S
C938 C934 1.368 . S
C938 C937 1.523 . S
H939 C914 0.950 . S
H940 C916 0.950 . S
H941 C917 0.949 . S
H942 C919 0.950 . S
H943 C921 0.950 . S
C944 C945 1.349 . S
C944 C946 1.327 . S
C944 H969 0.950 . S
C945 C944 1.349 . S
C945 C961 1.349 . S
C946 C944 1.327 . S
C946 C965 1.429 . S
C946 H970 0.950 . S
C947 C964 1.574 . S
C947 C966 1.368 1_655 S
C947 H971 0.949 . S
H948 C952 0.949 . S
C949 C950 1.349 . S
C949 C951 1.327 . S
C949 H972 0.950 . S
C950 C949 1.349 . S
C950 C962 1.349 . S
C951 C949 1.327 . S
C951 C967 1.429 . S
C951 H973 0.950 . S
C952 H948 0.949 . S
C952 C960 1.574 . S
C952 C968 1.368 1_455 S
H953 C961 0.950 . S
H954 C959 0.950 1_655 S
H955 C960 0.949 . S
H956 C962 0.950 . S
H957 C963 0.950 1_455 S
H958 C964 0.949 . S
C959 H954 0.950 1_455 S
C959 C961 1.327 . S
C959 C965 1.429 . S
C960 C952 1.574 . S
C960 H955 0.949 . S
C960 C966 1.368 1_556 S
C961 C945 1.349 . S
C961 H953 0.950 . S
C961 C959 1.327 . S
C962 C950 1.349 . S
C962 H956 0.950 . S
C962 C963 1.327 . S
C963 H957 0.950 1_655 S
C963 C962 1.327 . S
C963 C967 1.429 . S
C964 C947 1.574 . S
C964 H958 0.949 . S
C964 C968 1.368 1_554 S
C965 C946 1.429 . S
C965 C959 1.429 . S
C965 C966 1.523 . S
C966 C947 1.368 1_455 S
C966 C960 1.368 1_554 S
C966 C965 1.523 . S
C967 C951 1.429 . S
C967 C963 1.429 . S
C967 C968 1.523 . S
C968 C952 1.368 1_655 S
C968 C964 1.368 1_556 S
C968 C967 1.523 . S
H969 C944 0.950 . S
H970 C946 0.950 . S
H971 C947 0.949 . S
H972 C949 0.950 . S
H973 C951 0.950 . S
C974 C975 1.349 . S
C974 C976 1.327 . S
C974 H999 0.950 . S
C975 C974 1.349 . S
C975 C991 1.349 . S
C976 C974 1.327 . S
C976 C995 1.429 . S
C976 H1000 0.950 1_565 S
C977 C994 1.574 1_556 S
C977 C996 1.368 1_655 S
C977 H1001 0.949 . S
H978 C982 0.949 . S
C979 C980 1.349 . S
C979 C981 1.327 . S
C979 H1002 0.950 . S
C980 C979 1.349 . S
C980 C992 1.349 . S
C981 C979 1.327 . S
C981 C997 1.429 . S
C981 H1003 0.950 1_545 S
C982 H978 0.949 . S
C982 C990 1.574 1_554 S
C982 C998 1.368 1_455 S
H983 C991 0.950 . S
H984 C989 0.950 . S
H985 C990 0.949 . S
H986 C992 0.950 . S
H987 C993 0.950 . S
H988 C994 0.949 . S
C989 H984 0.950 . S
C989 C991 1.327 . S
C989 C995 1.429 . S
C990 C982 1.574 1_556 S
C990 H985 0.949 . S
C990 C996 1.368 1_545 S
C991 C975 1.349 . S
C991 H983 0.950 . S
C991 C989 1.327 . S
C992 C980 1.349 . S
C992 H986 0.950 . S
C992 C993 1.327 . S
C993 H987 0.950 . S
C993 C992 1.327 . S
C993 C997 1.429 . S
C994 C977 1.574 1_554 S
C994 H988 0.949 . S
C994 C998 1.368 1_565 S
C995 C976 1.429 . S
C995 C989 1.429 . S
C995 C996 1.523 . S
C996 C977 1.368 1_455 S
C996 C990 1.368 1_565 S
C996 C995 1.523 . S
C997 C981 1.429 . S
C997 C993 1.429 . S
C997 C998 1.523 . S
C998 C982 1.368 1_655 S
C998 C994 1.368 1_545 S
C998 C997 1.523 . S
H999 C974 0.950 . S
H1000 C976 0.950 1_545 S
H1001 C977 0.949 . S
H1002 C979 0.950 . S
H1003 C981 0.950 1_565 S
C1004 C1005 1.349 . S
C1004 C1006 1.327 . S
C1004 H1029 0.950 . S
C1005 C1004 1.349 . S
C1005 C1021 1.349 . S
C1006 C1004 1.327 . S
C1006 C1025 1.429 . S
C1006 H1030 0.950 . S
C1007 C1024 1.601 1_554 S
C1007 C1026 1.341 1_545 S
C1007 H1031 0.950 . S
H1008 C1012 0.950 . S
C1009 C1010 1.349 . S
C1009 C1011 1.327 . S
C1009 H1032 0.950 . S
C1010 C1009 1.349 . S
C1010 C1022 1.349 . S
C1011 C1009 1.327 . S
C1011 C1027 1.429 . S
C1011 H1033 0.950 . S
C1012 H1008 0.950 . S
C1012 C1020 1.601 1_556 S
C1012 C1028 1.341 1_565 S
H1013 C1021 0.950 . S
H1014 C1019 0.950 . S
H1015 C1020 0.949 . S
H1016 C1022 0.950 . S
H1017 C1023 0.950 . S
H1018 C1024 0.949 . S
C1019 H1014 0.950 . S
C1019 C1021 1.327 . S
C1019 C1025 1.429 . S
C1020 C1012 1.601 1_554 S
C1020 H1015 0.949 . S
C1020 C1026 1.368 . S
C1021 C1005 1.349 . S
C1021 H1013 0.950 . S
C1021 C1019 1.327 . S
C1022 C1010 1.349 . S
C1022 H1016 0.950 . S
C1022 C1023 1.327 . S
C1023 H1017 0.950 . S
C1023 C1022 1.327 . S
C1023 C1027 1.429 . S
C1024 C1007 1.601 1_556 S
C1024 H1018 0.949 . S
C1024 C1028 1.368 . S
C1025 C1006 1.429 . S
C1025 C1019 1.429 . S
C1025 C1026 1.523 . S
C1026 C1007 1.341 1_565 S
C1026 C1020 1.368 . S
C1026 C1025 1.523 . S
C1027 C1011 1.429 . S
C1027 C1023 1.429 . S
C1027 C1028 1.523 . S
C1028 C1012 1.341 1_545 S
C1028 C1024 1.368 . S
C1028 C1027 1.523 . S
H1029 C1004 0.950 . S
H1030 C1006 0.950 . S
H1031 C1007 0.950 . S
H1032 C1009 0.950 . S
H1033 C1011 0.950 . S
C1034 C1035 1.349 . S
C1034 C1036 1.327 . S
C1034 H1059 0.950 . S
C1035 C1034 1.349 . S
C1035 C1051 1.349 . S
C1036 C1034 1.327 . S
C1036 C1055 1.429 . S
C1036 H1060 0.950 . S
C1037 C1054 1.574 . S
C1037 C1056 1.368 1_554 S
C1037 H1061 0.949 . S
H1038 C1042 0.949 . S
C1039 C1040 1.349 . S
C1039 C1041 1.327 . S
C1039 H1062 0.950 . S
C1040 C1039 1.349 . S
C1040 C1052 1.349 . S
C1041 C1039 1.327 . S
C1041 C1057 1.429 . S
C1041 H1063 0.950 . S
C1042 H1038 0.949 . S
C1042 C1050 1.574 . S
C1042 C1058 1.368 1_556 S
H1043 C1051 0.950 . S
H1044 C1049 0.950 . S
H1045 C1050 0.949 . S
H1046 C1052 0.950 . S
H1047 C1053 0.950 . S
H1048 C1054 0.949 . S
C1049 H1044 0.950 . S
C1049 C1051 1.327 . S
C1049 C1055 1.429 . S
C1050 C1042 1.574 . S
C1050 H1045 0.949 . S
C1050 C1056 1.368 . S
C1051 C1035 1.349 . S
C1051 H1043 0.950 . S
C1051 C1049 1.327 . S
C1052 C1040 1.349 . S
C1052 H1046 0.950 . S
C1052 C1053 1.327 . S
C1053 H1047 0.950 . S
C1053 C1052 1.327 . S
C1053 C1057 1.429 . S
C1054 C1037 1.574 . S
C1054 H1048 0.949 . S
C1054 C1058 1.368 . S
C1055 C1036 1.429 . S
C1055 C1049 1.429 . S
C1055 C1056 1.523 . S
C1056 C1037 1.368 1_556 S
C1056 C1050 1.368 . S
C1056 C1055 1.523 . S
C1057 C1041 1.429 . S
C1057 C1053 1.429 . S
C1057 C1058 1.523 . S
C1058 C1042 1.368 1_554 S
C1058 C1054 1.368 . S
C1058 C1057 1.523 . S
H1059 C1034 0.950 . S
H1060 C1036 0.950 . S
H1061 C1037 0.949 . S
H1062 C1039 0.950 . S
H1063 C1041 0.950 . S
C1064 C1065 1.349 . S
C1064 C1066 1.327 . S
C1064 H1089 0.950 . S
C1065 C1064 1.349 . S
C1065 C1081 1.349 . S
C1066 C1064 1.327 . S
C1066 C1085 1.429 . S
C1066 H1090 0.950 . S
C1067 C1084 1.574 . S
C1067 C1086 1.368 1_645 S
C1067 H1091 0.949 . S
H1068 C1072 0.949 . S
C1069 C1070 1.349 . S
C1069 C1071 1.327 . S
C1069 H1092 0.950 . S
C1070 C1069 1.349 . S
C1070 C1082 1.349 . S
C1071 C1069 1.327 . S
C1071 C1087 1.429 . S
C1071 H1093 0.950 . S
C1072 H1068 0.949 . S
C1072 C1080 1.574 . S
C1072 C1088 1.368 1_465 S
H1073 C1081 0.950 . S
H1074 C1079 0.950 . S
H1075 C1080 0.949 . S
H1076 C1082 0.950 . S
H1077 C1083 0.950 . S
H1078 C1084 0.949 . S
C1079 H1074 0.950 . S
C1079 C1081 1.327 . S
C1079 C1085 1.429 . S
C1080 C1072 1.574 . S
C1080 H1075 0.949 . S
C1080 C1086 1.368 . S
C1081 C1065 1.349 . S
C1081 H1073 0.950 . S
C1081 C1079 1.327 . S
C1082 C1070 1.349 . S
C1082 H1076 0.950 . S
C1082 C1083 1.327 . S
C1083 H1077 0.950 . S
C1083 C1082 1.327 . S
C1083 C1087 1.429 . S
C1084 C1067 1.574 . S
C1084 H1078 0.949 . S
C1084 C1088 1.368 . S
C1085 C1066 1.429 . S
C1085 C1079 1.429 . S
C1085 C1086 1.523 . S
C1086 C1067 1.368 1_465 S
C1086 C1080 1.368 . S
C1086 C1085 1.523 . S
C1087 C1071 1.429 . S
C1087 C1083 1.429 . S
C1087 C1088 1.523 . S
C1088 C1072 1.368 1_645 S
C1088 C1084 1.368 . S
C1088 C1087 1.523 . S
H1089 C1064 0.950 . S
H1090 C1066 0.950 . S
H1091 C1067 0.949 . S
H1092 C1069 0.950 . S
H1093 C1071 0.950 . S
C1094 C1095 1.349 . S
C1094 C1096 1.327 . S
C1094 H1119 0.950 . S
C1095 C1094 1.349 . S
C1095 C1111 1.349 . S
C1096 C1094 1.327 . S
C1096 C1115 1.429 . S
C1096 H1120 0.950 . S
C1097 C1114 1.574 . S
C1097 C1116 1.368 1_565 S
C1097 H1121 0.949 . S
H1098 C1102 0.949 . S
C1099 C1100 1.349 . S
C1099 C1101 1.327 . S
C1099 H1122 0.950 . S
C1100 C1099 1.349 . S
C1100 C1112 1.349 . S
C1101 C1099 1.327 . S
C1101 C1117 1.429 . S
C1101 H1123 0.950 . S
C1102 H1098 0.949 . S
C1102 C1110 1.574 . S
C1102 C1118 1.368 1_545 S
H1103 C1111 0.950 . S
H1104 C1109 0.950 1_565 S
H1105 C1110 0.949 . S
H1106 C1112 0.950 . S
H1107 C1113 0.950 1_545 S
H1108 C1114 0.949 . S
C1109 H1104 0.950 1_545 S
C1109 C1111 1.327 . S
C1109 C1115 1.429 . S
C1110 C1102 1.574 . S
C1110 H1105 0.949 . S
C1110 C1116 1.368 . S
C1111 C1095 1.349 . S
C1111 H1103 0.950 . S
C1111 C1109 1.327 . S
C1112 C1100 1.349 . S
C1112 H1106 0.950 . S
C1112 C1113 1.327 . S
C1113 H1107 0.950 1_565 S
C1113 C1112 1.327 . S
C1113 C1117 1.429 . S
C1114 C1097 1.574 . S
C1114 H1108 0.949 . S
C1114 C1118 1.368 . S
C1115 C1096 1.429 . S
C1115 C1109 1.429 . S
C1115 C1116 1.523 . S
C1116 C1097 1.368 1_545 S
C1116 C1110 1.368 . S
C1116 C1115 1.523 . S
C1117 C1101 1.429 . S
C1117 C1113 1.429 . S
C1117 C1118 1.523 . S
C1118 C1102 1.368 1_565 S
C1118 C1114 1.368 . S
C1118 C1117 1.523 . S
H1119 C1094 0.950 . S
H1120 C1096 0.950 . S
H1121 C1097 0.949 . S
H1122 C1099 0.950 . S
H1123 C1101 0.950 . S
C1124 C1125 1.349 . S
C1124 C1126 1.327 . S
C1124 H1149 0.950 . S
C1125 C1124 1.349 . S
C1125 C1141 1.349 . S
C1126 C1124 1.327 . S
C1126 C1145 1.429 . S
C1126 H1150 0.950 . S
C1127 C1144 1.574 . S
C1127 C1146 1.368 . S
C1127 H1151 0.949 . S
H1128 C1132 0.949 . S
C1129 C1130 1.349 . S
C1129 C1131 1.327 . S
C1129 H1152 0.950 . S
C1130 C1129 1.349 . S
C1130 C1142 1.349 . S
C1131 C1129 1.327 . S
C1131 C1147 1.429 . S
C1131 H1153 0.950 . S
C1132 H1128 0.949 . S
C1132 C1140 1.574 . S
C1132 C1148 1.368 . S
H1133 C1141 0.950 . S
H1134 C1139 0.950 . S
H1135 C1140 0.949 . S
H1136 C1142 0.950 . S
H1137 C1143 0.950 . S
H1138 C1144 0.949 . S
C1139 H1134 0.950 . S
C1139 C1141 1.327 . S
C1139 C1145 1.429 . S
C1140 C1132 1.574 . S
C1140 H1135 0.949 . S
C1140 C1146 1.368 . S
C1141 C1125 1.349 . S
C1141 H1133 0.950 . S
C1141 C1139 1.327 . S
C1142 C1130 1.349 . S
C1142 H1136 0.950 . S
C1142 C1143 1.327 . S
C1143 H1137 0.950 . S
C1143 C1142 1.327 . S
C1143 C1147 1.429 . S
C1144 C1127 1.574 . S
C1144 H1138 0.949 . S
C1144 C1148 1.368 . S
C1145 C1126 1.429 . S
C1145 C1139 1.429 . S
C1145 C1146 1.523 . S
C1146 C1127 1.368 . S
C1146 C1140 1.368 . S
C1146 C1145 1.523 . S
C1147 C1131 1.429 . S
C1147 C1143 1.429 . S
C1147 C1148 1.523 . S
C1148 C1132 1.368 . S
C1148 C1144 1.368 . S
C1148 C1147 1.523 . S
H1149 C1124 0.950 . S
H1150 C1126 0.950 . S
H1151 C1127 0.949 . S
H1152 C1129 0.950 . S
H1153 C1131 0.950 . S
C1154 C1155 1.349 . S
C1154 C1156 1.327 . S
C1154 H1179 0.950 . S
C1155 C1154 1.349 . S
C1155 C1171 1.349 . S
C1156 C1154 1.327 . S
C1156 C1175 1.429 . S
C1156 H1180 0.950 . S
C1157 C1174 1.574 . S
C1157 C1176 1.368 1_455 S
C1157 H1181 0.949 . S
H1158 C1162 0.949 . S
C1159 C1160 1.349 . S
C1159 C1161 1.327 . S
C1159 H1182 0.950 . S
C1160 C1159 1.349 . S
C1160 C1172 1.349 . S
C1161 C1159 1.327 . S
C1161 C1177 1.429 . S
C1161 H1183 0.950 . S
C1162 H1158 0.949 . S
C1162 C1170 1.574 . S
C1162 C1178 1.368 1_655 S
H1163 C1171 0.950 . S
H1164 C1169 0.950 . S
H1165 C1170 0.949 . S
H1166 C1172 0.950 . S
H1167 C1173 0.950 . S
H1168 C1174 0.949 . S
C1169 H1164 0.950 . S
C1169 C1171 1.327 . S
C1169 C1175 1.429 . S
C1170 C1162 1.574 . S
C1170 H1165 0.949 . S
C1170 C1176 1.368 . S
C1171 C1155 1.349 . S
C1171 H1163 0.950 . S
C1171 C1169 1.327 . S
C1172 C1160 1.349 . S
C1172 H1166 0.950 . S
C1172 C1173 1.327 . S
C1173 H1167 0.950 . S
C1173 C1172 1.327 . S
C1173 C1177 1.429 . S
C1174 C1157 1.574 . S
C1174 H1168 0.949 . S
C1174 C1178 1.368 . S
C1175 C1156 1.429 . S
C1175 C1169 1.429 . S
C1175 C1176 1.523 . S
C1176 C1157 1.368 1_655 S
C1176 C1170 1.368 . S
C1176 C1175 1.523 . S
C1177 C1161 1.429 . S
C1177 C1173 1.429 . S
C1177 C1178 1.523 . S
C1178 C1162 1.368 1_455 S
C1178 C1174 1.368 . S
C1178 C1177 1.523 . S
H1179 C1154 0.950 . S
H1180 C1156 0.950 . S
H1181 C1157 0.949 . S
H1182 C1159 0.950 . S
H1183 C1161 0.950 . S
C225 C1 1.999 . S
C230 C41 1.999 . S
C255 C26 2.001 . S
C260 C54 2.001 . S
C285 C57 1.999 . S
C290 C96 2.001 . S
C315 C110 2.001 . S
C320 C82 2.001 . S
C345 C125 2.001 . S
C350 C153 2.001 . S
C375 C167 2.001 . S
C380 C127 2.001 . S
C405 C209 2.001 . S
C410 C180 1.999 . S
C435 C223 2.001 . S
C440 C183 2.001 . S
C465 C111 1.625 . S
C470 C0 1.627 . S
C495 C27 1.625 . S
C500 C56 1.626 . S
C525 C83 1.625 . S
C530 C40 1.627 . S
C555 C55 1.625 . S
C560 C97 1.625 . S
C585 C222 1.625 . S
C590 C124 1.625 . S
C615 C126 1.625 . S
C620 C181 1.626 . S
C645 C152 1.625 . S
C650 C182 1.625 . S
C675 C208 1.625 . S
C680 C166 1.625 . S
C705 C12 0.269 . S
C710 C68 0.269 . S
C735 C15 0.270 . S
C740 C71 0.270 . S
C765 C85 0.270 . S
C770 C28 0.269 . S
C795 C43 0.270 . S
C800 C99 0.270 . S
C825 C169 0.270 . S
C830 C112 0.270 . S
C855 C194 0.270 . S
C860 C138 0.270 . S
C885 C140 0.270 . S
C890 C196 0.270 . S
C915 C154 0.270 . S
C920 C210 0.270 . S
C945 C13 1.838 . S
C950 C113 1.839 . S
C975 C139 1.839 . S
C980 C14 1.839 . S
C1005 C29 1.839 . S
C1010 C141 1.839 . S
C1035 C155 1.839 . S
C1040 C42 1.839 . S
C1065 C69 1.838 . S
C1070 C168 1.838 . S
C1095 C70 1.839 . S
C1100 C195 1.839 . S
C1125 C197 1.839 . S
C1130 C84 1.839 . S
C1155 C98 1.839 . S
C1160 C211 1.839 . S
