# Generated by pormake.
# Topology wnd, (6)-cn, num edge types: 1
# Building blocks:
#     Node 0, Type 0, BuildingBlock: PAMTUU_clean_sbu_0, # of connection points: 6
#     Node 1, Type 0, BuildingBlock: PAMTUU_clean_sbu_0, # of connection points: 6
#     Node 2, Type 0, BuildingBlock: PAMTUU_clean_sbu_0, # of connection points: 6
#     Node 3, Type 0, BuildingBlock: PAMTUU_clean_sbu_0, # of connection points: 6
#     Node 4, Type 0, BuildingBlock: PAMTUU_clean_sbu_0, # of connection points: 6
#     Node 5, Type 0, BuildingBlock: PAMTUU_clean_sbu_0, # of connection points: 6
#     Node 6, Type 0, BuildingBlock: PAMTUU_clean_sbu_0, # of connection points: 6
#     Node 7, Type 0, BuildingBlock: PAMTUU_clean_sbu_0, # of connection points: 6
#     Node 8, Type 0, BuildingBlock: PAMTUU_clean_sbu_0, # of connection points: 6
#     Node 9, Type 0, BuildingBlock: PAMTUU_clean_sbu_0, # of connection points: 6
#     Node 10, Type 0, BuildingBlock: PAMTUU_clean_sbu_0, # of connection points: 6
#     Node 11, Type 0, BuildingBlock: PAMTUU_clean_sbu_0, # of connection points: 6
#     Node 12, Type 0, BuildingBlock: PAMTUU_clean_sbu_0, # of connection points: 6
#     Node 13, Type 0, BuildingBlock: PAMTUU_clean_sbu_0, # of connection points: 6
#     Node 14, Type 0, BuildingBlock: PAMTUU_clean_sbu_0, # of connection points: 6
#     Node 15, Type 0, BuildingBlock: PAMTUU_clean_sbu_0, # of connection points: 6
#     Node 16, Type 0, BuildingBlock: PAMTUU_clean_sbu_0, # of connection points: 6
#     Node 17, Type 0, BuildingBlock: PAMTUU_clean_sbu_0, # of connection points: 6
#     Node 18, Type 0, BuildingBlock: PAMTUU_clean_sbu_0, # of connection points: 6
#     Node 19, Type 0, BuildingBlock: PAMTUU_clean_sbu_0, # of connection points: 6
#     Node 20, Type 0, BuildingBlock: PAMTUU_clean_sbu_0, # of connection points: 6
#     Node 21, Type 0, BuildingBlock: PAMTUU_clean_sbu_0, # of connection points: 6
#     Node 22, Type 0, BuildingBlock: PAMTUU_clean_sbu_0, # of connection points: 6
#     Node 23, Type 0, BuildingBlock: PAMTUU_clean_sbu_0, # of connection points: 6
#     Node 24, Type 0, BuildingBlock: PAMTUU_clean_sbu_0, # of connection points: 6
#     Node 25, Type 0, BuildingBlock: PAMTUU_clean_sbu_0, # of connection points: 6
#     Node 26, Type 0, BuildingBlock: PAMTUU_clean_sbu_0, # of connection points: 6
#     Node 27, Type 0, BuildingBlock: PAMTUU_clean_sbu_0, # of connection points: 6
#     Node 28, Type 0, BuildingBlock: PAMTUU_clean_sbu_0, # of connection points: 6
#     Node 29, Type 0, BuildingBlock: PAMTUU_clean_sbu_0, # of connection points: 6
#     Node 30, Type 0, BuildingBlock: PAMTUU_clean_sbu_0, # of connection points: 6
#     Node 31, Type 0, BuildingBlock: PAMTUU_clean_sbu_0, # of connection points: 6
#     Node 32, Type 0, BuildingBlock: PAMTUU_clean_sbu_0, # of connection points: 6
#     Node 33, Type 0, BuildingBlock: PAMTUU_clean_sbu_0, # of connection points: 6
#     Node 34, Type 0, BuildingBlock: PAMTUU_clean_sbu_0, # of connection points: 6
#     Node 35, Type 0, BuildingBlock: PAMTUU_clean_sbu_0, # of connection points: 6
#     Edge 36, Type (0, 0), BuildingBlock: OJICUG_clean_linker_0, # of connection points: 2
#     Edge 37, Type (0, 0), BuildingBlock: OJICUG_clean_linker_0, # of connection points: 2
#     Edge 38, Type (0, 0), BuildingBlock: OJICUG_clean_linker_0, # of connection points: 2
#     Edge 39, Type (0, 0), BuildingBlock: OJICUG_clean_linker_0, # of connection points: 2
#     Edge 40, Type (0, 0), BuildingBlock: OJICUG_clean_linker_0, # of connection points: 2
#     Edge 41, Type (0, 0), BuildingBlock: OJICUG_clean_linker_0, # of connection points: 2
#     Edge 42, Type (0, 0), BuildingBlock: OJICUG_clean_linker_0, # of connection points: 2
#     Edge 43, Type (0, 0), BuildingBlock: OJICUG_clean_linker_0, # of connection points: 2
#     Edge 44, Type (0, 0), BuildingBlock: OJICUG_clean_linker_0, # of connection points: 2
#     Edge 45, Type (0, 0), BuildingBlock: OJICUG_clean_linker_0, # of connection points: 2
#     Edge 46, Type (0, 0), BuildingBlock: OJICUG_clean_linker_0, # of connection points: 2
#     Edge 47, Type (0, 0), BuildingBlock: OJICUG_clean_linker_0, # of connection points: 2
#     Edge 48, Type (0, 0), BuildingBlock: OJICUG_clean_linker_0, # of connection points: 2
#     Edge 49, Type (0, 0), BuildingBlock: OJICUG_clean_linker_0, # of connection points: 2
#     Edge 50, Type (0, 0), BuildingBlock: OJICUG_clean_linker_0, # of connection points: 2
#     Edge 51, Type (0, 0), BuildingBlock: OJICUG_clean_linker_0, # of connection points: 2
#     Edge 52, Type (0, 0), BuildingBlock: OJICUG_clean_linker_0, # of connection points: 2
#     Edge 53, Type (0, 0), BuildingBlock: OJICUG_clean_linker_0, # of connection points: 2
#     Edge 54, Type (0, 0), BuildingBlock: OJICUG_clean_linker_0, # of connection points: 2
#     Edge 55, Type (0, 0), BuildingBlock: OJICUG_clean_linker_0, # of connection points: 2
#     Edge 56, Type (0, 0), BuildingBlock: OJICUG_clean_linker_0, # of connection points: 2
#     Edge 57, Type (0, 0), BuildingBlock: OJICUG_clean_linker_0, # of connection points: 2
#     Edge 58, Type (0, 0), BuildingBlock: OJICUG_clean_linker_0, # of connection points: 2
#     Edge 59, Type (0, 0), BuildingBlock: OJICUG_clean_linker_0, # of connection points: 2
#     Edge 60, Type (0, 0), BuildingBlock: OJICUG_clean_linker_0, # of connection points: 2
#     Edge 61, Type (0, 0), BuildingBlock: OJICUG_clean_linker_0, # of connection points: 2
#     Edge 62, Type (0, 0), BuildingBlock: OJICUG_clean_linker_0, # of connection points: 2
#     Edge 63, Type (0, 0), BuildingBlock: OJICUG_clean_linker_0, # of connection points: 2
#     Edge 64, Type (0, 0), BuildingBlock: OJICUG_clean_linker_0, # of connection points: 2
#     Edge 65, Type (0, 0), BuildingBlock: OJICUG_clean_linker_0, # of connection points: 2
#     Edge 66, Type (0, 0), BuildingBlock: OJICUG_clean_linker_0, # of connection points: 2
#     Edge 67, Type (0, 0), BuildingBlock: OJICUG_clean_linker_0, # of connection points: 2
#     Edge 68, Type (0, 0), BuildingBlock: OJICUG_clean_linker_0, # of connection points: 2
#     Edge 69, Type (0, 0), BuildingBlock: OJICUG_clean_linker_0, # of connection points: 2
#     Edge 70, Type (0, 0), BuildingBlock: OJICUG_clean_linker_0, # of connection points: 2
#     Edge 71, Type (0, 0), BuildingBlock: OJICUG_clean_linker_0, # of connection points: 2
#     Edge 72, Type (0, 0), BuildingBlock: OJICUG_clean_linker_0, # of connection points: 2
#     Edge 73, Type (0, 0), BuildingBlock: OJICUG_clean_linker_0, # of connection points: 2
#     Edge 74, Type (0, 0), BuildingBlock: OJICUG_clean_linker_0, # of connection points: 2
#     Edge 75, Type (0, 0), BuildingBlock: OJICUG_clean_linker_0, # of connection points: 2
#     Edge 76, Type (0, 0), BuildingBlock: OJICUG_clean_linker_0, # of connection points: 2
#     Edge 77, Type (0, 0), BuildingBlock: OJICUG_clean_linker_0, # of connection points: 2
#     Edge 78, Type (0, 0), BuildingBlock: OJICUG_clean_linker_0, # of connection points: 2
#     Edge 79, Type (0, 0), BuildingBlock: OJICUG_clean_linker_0, # of connection points: 2
#     Edge 80, Type (0, 0), BuildingBlock: OJICUG_clean_linker_0, # of connection points: 2
#     Edge 81, Type (0, 0), BuildingBlock: OJICUG_clean_linker_0, # of connection points: 2
#     Edge 82, Type (0, 0), BuildingBlock: OJICUG_clean_linker_0, # of connection points: 2
#     Edge 83, Type (0, 0), BuildingBlock: OJICUG_clean_linker_0, # of connection points: 2
#     Edge 84, Type (0, 0), BuildingBlock: OJICUG_clean_linker_0, # of connection points: 2
#     Edge 85, Type (0, 0), BuildingBlock: OJICUG_clean_linker_0, # of connection points: 2
#     Edge 86, Type (0, 0), BuildingBlock: OJICUG_clean_linker_0, # of connection points: 2
#     Edge 87, Type (0, 0), BuildingBlock: OJICUG_clean_linker_0, # of connection points: 2
#     Edge 88, Type (0, 0), BuildingBlock: OJICUG_clean_linker_0, # of connection points: 2
#     Edge 89, Type (0, 0), BuildingBlock: OJICUG_clean_linker_0, # of connection points: 2
#     Edge 90, Type (0, 0), BuildingBlock: OJICUG_clean_linker_0, # of connection points: 2
#     Edge 91, Type (0, 0), BuildingBlock: OJICUG_clean_linker_0, # of connection points: 2
#     Edge 92, Type (0, 0), BuildingBlock: OJICUG_clean_linker_0, # of connection points: 2
#     Edge 93, Type (0, 0), BuildingBlock: OJICUG_clean_linker_0, # of connection points: 2
#     Edge 94, Type (0, 0), BuildingBlock: OJICUG_clean_linker_0, # of connection points: 2
#     Edge 95, Type (0, 0), BuildingBlock: OJICUG_clean_linker_0, # of connection points: 2
#     Edge 96, Type (0, 0), BuildingBlock: OJICUG_clean_linker_0, # of connection points: 2
#     Edge 97, Type (0, 0), BuildingBlock: OJICUG_clean_linker_0, # of connection points: 2
#     Edge 98, Type (0, 0), BuildingBlock: OJICUG_clean_linker_0, # of connection points: 2
#     Edge 99, Type (0, 0), BuildingBlock: OJICUG_clean_linker_0, # of connection points: 2
#     Edge 100, Type (0, 0), BuildingBlock: OJICUG_clean_linker_0, # of connection points: 2
#     Edge 101, Type (0, 0), BuildingBlock: OJICUG_clean_linker_0, # of connection points: 2
#     Edge 102, Type (0, 0), BuildingBlock: OJICUG_clean_linker_0, # of connection points: 2
#     Edge 103, Type (0, 0), BuildingBlock: OJICUG_clean_linker_0, # of connection points: 2
#     Edge 104, Type (0, 0), BuildingBlock: OJICUG_clean_linker_0, # of connection points: 2
#     Edge 105, Type (0, 0), BuildingBlock: OJICUG_clean_linker_0, # of connection points: 2
#     Edge 106, Type (0, 0), BuildingBlock: OJICUG_clean_linker_0, # of connection points: 2
#     Edge 107, Type (0, 0), BuildingBlock: OJICUG_clean_linker_0, # of connection points: 2
#     Edge 108, Type (0, 0), BuildingBlock: OJICUG_clean_linker_0, # of connection points: 2
#     Edge 109, Type (0, 0), BuildingBlock: OJICUG_clean_linker_0, # of connection points: 2
#     Edge 110, Type (0, 0), BuildingBlock: OJICUG_clean_linker_0, # of connection points: 2
#     Edge 111, Type (0, 0), BuildingBlock: OJICUG_clean_linker_0, # of connection points: 2
#     Edge 112, Type (0, 0), BuildingBlock: OJICUG_clean_linker_0, # of connection points: 2
#     Edge 113, Type (0, 0), BuildingBlock: OJICUG_clean_linker_0, # of connection points: 2
#     Edge 114, Type (0, 0), BuildingBlock: OJICUG_clean_linker_0, # of connection points: 2
#     Edge 115, Type (0, 0), BuildingBlock: OJICUG_clean_linker_0, # of connection points: 2
#     Edge 116, Type (0, 0), BuildingBlock: OJICUG_clean_linker_0, # of connection points: 2
#     Edge 117, Type (0, 0), BuildingBlock: OJICUG_clean_linker_0, # of connection points: 2
#     Edge 118, Type (0, 0), BuildingBlock: OJICUG_clean_linker_0, # of connection points: 2
#     Edge 119, Type (0, 0), BuildingBlock: OJICUG_clean_linker_0, # of connection points: 2
#     Edge 120, Type (0, 0), BuildingBlock: OJICUG_clean_linker_0, # of connection points: 2
#     Edge 121, Type (0, 0), BuildingBlock: OJICUG_clean_linker_0, # of connection points: 2
#     Edge 122, Type (0, 0), BuildingBlock: OJICUG_clean_linker_0, # of connection points: 2
#     Edge 123, Type (0, 0), BuildingBlock: OJICUG_clean_linker_0, # of connection points: 2
#     Edge 124, Type (0, 0), BuildingBlock: OJICUG_clean_linker_0, # of connection points: 2
#     Edge 125, Type (0, 0), BuildingBlock: OJICUG_clean_linker_0, # of connection points: 2
#     Edge 126, Type (0, 0), BuildingBlock: OJICUG_clean_linker_0, # of connection points: 2
#     Edge 127, Type (0, 0), BuildingBlock: OJICUG_clean_linker_0, # of connection points: 2
#     Edge 128, Type (0, 0), BuildingBlock: OJICUG_clean_linker_0, # of connection points: 2
#     Edge 129, Type (0, 0), BuildingBlock: OJICUG_clean_linker_0, # of connection points: 2
#     Edge 130, Type (0, 0), BuildingBlock: OJICUG_clean_linker_0, # of connection points: 2
#     Edge 131, Type (0, 0), BuildingBlock: OJICUG_clean_linker_0, # of connection points: 2
#     Edge 132, Type (0, 0), BuildingBlock: OJICUG_clean_linker_0, # of connection points: 2
#     Edge 133, Type (0, 0), BuildingBlock: OJICUG_clean_linker_0, # of connection points: 2
#     Edge 134, Type (0, 0), BuildingBlock: OJICUG_clean_linker_0, # of connection points: 2
#     Edge 135, Type (0, 0), BuildingBlock: OJICUG_clean_linker_0, # of connection points: 2
#     Edge 136, Type (0, 0), BuildingBlock: OJICUG_clean_linker_0, # of connection points: 2
#     Edge 137, Type (0, 0), BuildingBlock: OJICUG_clean_linker_0, # of connection points: 2
#     Edge 138, Type (0, 0), BuildingBlock: OJICUG_clean_linker_0, # of connection points: 2
#     Edge 139, Type (0, 0), BuildingBlock: OJICUG_clean_linker_0, # of connection points: 2
#     Edge 140, Type (0, 0), BuildingBlock: OJICUG_clean_linker_0, # of connection points: 2
#     Edge 141, Type (0, 0), BuildingBlock: OJICUG_clean_linker_0, # of connection points: 2
#     Edge 142, Type (0, 0), BuildingBlock: OJICUG_clean_linker_0, # of connection points: 2
#     Edge 143, Type (0, 0), BuildingBlock: OJICUG_clean_linker_0, # of connection points: 2
# Relax obj value: 0.090
# Max RMSD: 0.219
# Mean RMSD: 0.219
data_MOF--net-wnd--node1-PAMTUU_clean_sbu_0--edge1-OJICUG_clean_linker_0
_symmetry_space_group_name_H-M    P1
_symmetry_Int_Tables_number       1
_symmetry_cell_setting            triclinic
loop_
_symmetry_equiv_pos_as_xyz
'x, y, z'
_cell_length_a     31.908471
_cell_length_b     31.9225
_cell_length_c     114.50895
_cell_angle_alpha  90.02076
_cell_angle_beta   89.994654
_cell_angle_gamma 120.03153
loop_
_atom_site_label
_atom_site_type_symbol
_atom_site_fract_x
_atom_site_fract_y
_atom_site_fract_z
_atom_type_partial_charge
Tb0 Tb 0.55609 0.03873 0.04685 0.0
Tb1 Tb 0.50276 0.09947 0.03788 0.0
C2 C 0.49734 0.06917 0.06266 0.0
C3 C 0.60236 0.94935 0.05031 0.0
C4 C 0.62088 0.87327 0.04466 0.0
C5 C 0.63201 0.89489 0.0558 0.0
C6 C 0.62285 0.93237 0.05857 0.0
C7 C 0.59112 0.9281 0.03917 0.0
C8 C 0.60019 0.89042 0.03638 0.0
C9 C 0.59626 0.99117 0.05337 0.0
O10 O 0.48292 0.98392 0.0418 0.0
O11 O 0.44511 0.02471 0.03443 0.0
O12 O 0.51915 0.08036 0.02144 0.0
O13 O 0.57111 0.05402 0.02797 0.0
O14 O 0.4795 0.14128 0.04667 0.0
O15 O 0.47751 0.13809 0.0278 0.0
O16 O 0.5822 0.14884 0.03842 0.0
O17 O 0.60799 0.11195 0.05132 0.0
O18 O 0.53926 0.071 0.06199 0.0
O19 O 0.47146 0.0571 0.05331 0.0
C20 C 0.44546 0.98428 0.03699 0.0
O21 O 0.61587 0.02816 0.04631 0.0
O22 O 0.55386 0.98248 0.05706 0.0
C23 C 0.5512 0.06693 0.01954 0.0
C24 C 0.4976 0.21391 0.03711 0.0
C25 C 0.53949 0.31623 0.03784 0.0
C26 C 0.52955 0.29158 0.02708 0.0
C27 C 0.50869 0.24093 0.02672 0.0
C28 C 0.50815 0.23883 0.04783 0.0
C29 C 0.52903 0.28906 0.04818 0.0
C30 C 0.47392 0.16007 0.03709 0.0
C31 C 0.61637 0.14927 0.04499 0.0
H32 H 0.64711 0.88233 0.06248 0.0
H33 H 0.6321 0.94839 0.0672 0.0
H34 H 0.57578 0.94091 0.0326 0.0
H35 H 0.59146 0.87511 0.02768 0.0
H36 H 0.53669 0.31123 0.01893 0.0
H37 H 0.50075 0.22295 0.01832 0.0
H38 H 0.49999 0.21948 0.05605 0.0
H39 H 0.53689 0.30662 0.05663 0.0
Tb40 Tb 0.10726 0.56622 0.04523 0.0
Tb41 Tb 0.03663 0.45617 0.03502 0.0
C42 C 0.04653 0.47472 0.06067 0.0
C43 C 0.20072 0.69983 0.04846 0.0
C44 C 0.27573 0.79302 0.0414 0.0
C45 C 0.2428 0.78784 0.05024 0.0
C46 C 0.20589 0.7419 0.05372 0.0
C47 C 0.23268 0.70458 0.03944 0.0
C48 C 0.2698 0.75064 0.03597 0.0
C49 C 0.16193 0.65194 0.05266 0.0
O50 O 0.15399 0.54618 0.03624 0.0
O51 O 0.10871 0.46444 0.03931 0.0
O52 O 0.07796 0.49607 0.02012 0.0
O53 O 0.09502 0.57142 0.02651 0.0
O54 O 1.00254 0.38164 0.03886 0.0
O55 O 0.98837 0.40702 0.02267 0.0
O56 O 0.99812 0.49669 0.03277 0.0
O57 O 1.03367 0.55188 0.04758 0.0
O58 O 0.09058 0.51179 0.05922 0.0
O59 O 1.01545 0.46318 0.05227 0.0
C60 C 0.15128 0.50416 0.03759 0.0
O61 O 0.11897 0.63632 0.04831 0.0
O62 O 0.17186 0.61709 0.0536 0.0
C63 C 0.08822 0.54053 0.018 0.0
C64 C 0.92144 0.34079 0.03202 0.0
C65 C 0.82091 0.28388 0.03702 0.0
C66 C 0.85143 0.26379 0.03756 0.0
C67 C 0.901 0.29188 0.03507 0.0
C68 C 0.89117 0.36112 0.03149 0.0
C69 C 0.84144 0.3329 0.03388 0.0
C70 C 0.97431 0.37031 0.02974 0.0
C71 C 0.99907 0.52995 0.0398 0.0
H72 H 0.24641 0.81924 0.05478 0.0
H73 H 0.18165 0.73921 0.06068 0.0
H74 H 0.22922 0.67274 0.03515 0.0
H75 H 0.29399 0.75301 0.02904 0.0
H76 H 0.83689 0.22605 0.03979 0.0
H77 H 0.92346 0.27535 0.03557 0.0
H78 H 0.90596 0.39894 0.02929 0.0
H79 H 0.81924 0.34972 0.03349 0.0
Tb80 Tb 0.57482 0.59495 0.0461 0.0
Tb81 Tb 0.68411 0.63388 0.03501 0.0
C82 C 0.66981 0.62852 0.06097 0.0
C83 C 0.44005 0.55214 0.05076 0.0
C84 C 0.3436 0.5282 0.04479 0.0
C85 C 0.35487 0.51876 0.05603 0.0
C86 C 0.40232 0.53058 0.05895 0.0
C87 C 0.42923 0.56135 0.03949 0.0
C88 C 0.38167 0.54963 0.03655 0.0
C89 C 0.48946 0.56255 0.05415 0.0
O90 O 0.59427 0.66192 0.03732 0.0
O91 O 0.67662 0.69768 0.0395 0.0
O92 O 0.64172 0.63623 0.02083 0.0
O93 O 0.56809 0.57585 0.0274 0.0
O94 O 0.75926 0.67782 0.03724 0.0
O95 O 0.72994 0.63148 0.02213 0.0
O96 O 0.6432 0.55445 0.03343 0.0
O97 O 0.5918 0.538 0.04891 0.0
O98 O 0.63117 0.63339 0.05981 0.0
O99 O 0.68236 0.61001 0.05251 0.0
C100 C 0.63697 0.70087 0.03818 0.0
O101 O 0.50508 0.53609 0.04929 0.0
O102 O 0.52389 0.60762 0.05493 0.0
C103 C 0.59788 0.60076 0.01879 0.0
C104 C 0.80135 0.63867 0.03031 0.0
C105 C 0.86252 0.5989 0.03375 0.0
C106 C 0.8558 0.61265 0.02253 0.0
C107 C 0.82568 0.63241 0.02085 0.0
C108 C 0.80757 0.62453 0.04152 0.0
C109 C 0.83798 0.60512 0.04322 0.0
C110 C 0.76871 0.65854 0.02828 0.0
C111 C 0.6114 0.52355 0.04094 0.0
H112 H 0.3272 0.50314 0.06271 0.0
H113 H 0.40959 0.52283 0.06769 0.0
H114 H 0.4575 0.57745 0.03295 0.0
H115 H 0.37469 0.55708 0.02776 0.0
H116 H 0.87449 0.6089 0.01506 0.0
H117 H 0.82133 0.64281 0.01212 0.0
H118 H 0.78881 0.62828 0.04898 0.0
H119 H 0.84182 0.59443 0.05195 0.0
Tb120 Tb 0.05165 0.54287 0.44364 0.0
Tb121 Tb 0.11947 0.50103 0.45459 0.0
C122 C 0.11315 0.5102 0.42876 0.0
C123 C 0.96006 0.58556 0.43886 0.0
C124 C 0.88544 0.60637 0.44472 0.0
C125 C 0.90887 0.61973 0.4338 0.0
C126 C 0.94558 0.60945 0.43094 0.0
C127 C 0.93736 0.57251 0.44983 0.0
C128 C 0.90046 0.58271 0.45271 0.0
C129 C 0.99977 0.57628 0.43553 0.0
O130 O 1.00263 0.47556 0.45214 0.0
O131 O 0.04776 0.43841 0.44974 0.0
O132 O 0.07507 0.49889 0.46885 0.0
O133 O 0.06256 0.55996 0.46244 0.0
O134 O 0.15162 0.45821 0.45159 0.0
O135 O 0.16473 0.49883 0.46759 0.0
O136 O 0.1591 0.58017 0.45679 0.0
O137 O 0.1262 0.60028 0.44148 0.0
O138 O 0.06958 0.50503 0.42984 0.0
O139 O 0.14345 0.52808 0.43737 0.0
C140 C 1.00531 0.43608 0.45108 0.0
O141 O 0.04111 0.60209 0.44078 0.0
O142 O 0.98946 0.53145 0.43437 0.0
C143 C 0.06693 0.53444 0.47098 0.0
C144 C 0.2309 0.49471 0.45941 0.0
C145 C 0.33162 0.53291 0.45593 0.0
C146 C 0.2995 0.48255 0.45617 0.0
C147 C 0.24976 0.46373 0.45791 0.0
C148 C 0.26275 0.54504 0.45914 0.0
C149 C 0.31258 0.56391 0.45749 0.0
C150 C 0.17807 0.47416 0.46101 0.0
C151 C 0.1597 0.61264 0.44954 0.0
H152 H 0.89812 0.63721 0.42732 0.0
H153 H 0.96266 0.62009 0.42244 0.0
H154 H 0.94818 0.55449 0.45615 0.0
H155 H 0.88389 0.57226 0.46126 0.0
H156 H 0.3129 0.45759 0.45513 0.0
H157 H 0.22596 0.42485 0.45806 0.0
H158 H 0.24911 0.56983 0.46014 0.0
H159 H 0.3361 0.6028 0.45722 0.0
Tb160 Tb 0.60792 0.56541 0.4437 0.0
Tb161 Tb 0.64891 0.6748 0.45477 0.0
C162 C 0.6403 0.65971 0.42892 0.0
C163 C 0.56568 0.43134 0.4388 0.0
C164 C 0.54465 0.33586 0.44462 0.0
C165 C 0.53033 0.34576 0.43381 0.0
C166 C 0.54073 0.39279 0.43096 0.0
C167 C 0.57964 0.42185 0.44966 0.0
C168 C 0.56931 0.37471 0.45253 0.0
C169 C 0.57524 0.48039 0.43547 0.0
O170 O 0.67478 0.58367 0.45243 0.0
O171 O 0.71193 0.66593 0.45011 0.0
O172 O 0.65025 0.63237 0.46908 0.0
O173 O 0.5898 0.55872 0.46245 0.0
O174 O 0.69299 0.74966 0.45211 0.0
O175 O 0.64863 0.72202 0.46757 0.0
O176 O 0.56958 0.6351 0.45671 0.0
O177 O 0.55003 0.58168 0.4415 0.0
O178 O 0.64585 0.62155 0.42999 0.0
O179 O 0.62209 0.67171 0.43753 0.0
C180 C 0.71432 0.62583 0.45143 0.0
O181 O 0.54894 0.49568 0.44057 0.0
O182 O 0.62017 0.515 0.43454 0.0
C183 C 0.61466 0.58851 0.47107 0.0
C184 C 0.65468 0.79252 0.45911 0.0
C185 C 0.61423 0.85319 0.45566 0.0
C186 C 0.6303 0.84845 0.46677 0.0
C187 C 0.65036 0.81857 0.46846 0.0
C188 C 0.63825 0.79677 0.44801 0.0
C189 C 0.6185 0.8269 0.4463 0.0
C190 C 0.67488 0.76011 0.46115 0.0
C191 C 0.53732 0.60277 0.44949 0.0
H192 H 0.51204 0.31737 0.42739 0.0
H193 H 0.52939 0.39911 0.42254 0.0
H194 H 0.59848 0.45084 0.45592 0.0
H195 H 0.5805 0.36871 0.46099 0.0
H196 H 0.62813 0.86849 0.47416 0.0
H197 H 0.66252 0.81576 0.47711 0.0
H198 H 0.64045 0.77666 0.44064 0.0
H199 H 0.60601 0.82913 0.43765 0.0
Tb200 Tb 0.58379 0.09754 0.44372 0.0
Tb201 Tb 0.47428 0.0306 0.45474 0.0
C202 C 0.48938 0.03684 0.42884 0.0
C203 C 0.71822 0.18985 0.43955 0.0
C204 C 0.81371 0.26668 0.44472 0.0
C205 C 0.80386 0.21867 0.44356 0.0
C206 C 0.7569 0.18093 0.44099 0.0
C207 C 0.72783 0.23771 0.44076 0.0
C208 C 0.77479 0.27548 0.44331 0.0
C209 C 0.66952 0.14959 0.43594 0.0
O210 O 0.56624 0.1471 0.45222 0.0
O211 O 0.48383 0.1026 0.45 0.0
O212 O 0.51687 0.07496 0.46897 0.0
O213 O 0.58984 0.08612 0.46249 0.0
O214 O 0.39937 1.0005 0.45226 0.0
O215 O 0.42728 0.98355 0.46764 0.0
O216 O 0.51355 0.99059 0.45675 0.0
O217 O 0.56597 1.02296 0.44133 0.0
O218 O 0.52825 0.0801 0.42991 0.0
O219 O 0.47611 1.00651 0.43746 0.0
C220 C 0.52427 0.14491 0.45122 0.0
O221 O 0.65376 0.10802 0.4411 0.0
O222 O 0.63455 0.15896 0.43427 0.0
C223 C 0.56034 0.08237 0.47106 0.0
C224 C 0.35634 0.91941 0.45927 0.0
C225 C 0.2957 0.8183 0.45585 0.0
C226 C 0.30053 0.83913 0.46697 0.0
C227 C 0.33041 0.8891 0.46864 0.0
C228 C 0.35197 0.8987 0.44817 0.0
C229 C 0.32184 0.84881 0.44647 0.0
C230 C 0.38902 0.97196 0.4613 0.0
C231 C 0.54489 0.98952 0.4494 0.0
H232 H 0.83241 0.21006 0.44468 0.0
H233 H 0.75094 0.14459 0.43998 0.0
H234 H 0.69926 0.24625 0.43957 0.0
H235 H 0.7807 0.31189 0.44389 0.0
H236 H 0.28059 0.8169 0.47436 0.0
H237 H 0.33337 0.9041 0.47729 0.0
H238 H 0.37203 0.92098 0.44079 0.0
H239 H 0.3195 0.83403 0.43783 0.0
Tb240 Tb 0.64741 0.02756 0.95514 0.0
Tb241 Tb 0.60666 0.09633 0.94433 0.0
C242 C 0.61474 0.08083 0.97169 0.0
C243 C 0.65281 0.91564 0.95967 0.0
C244 C 0.61383 0.81505 0.95593 0.0
C245 C 0.66426 0.84664 0.95645 0.0
C246 C 0.68348 0.89633 0.95832 0.0
C247 C 0.60241 0.88432 0.95911 0.0
C248 C 0.58314 0.83452 0.95734 0.0
C249 C 0.67374 0.96839 0.9614 0.0
O250 O 0.56813 0.98787 0.95713 0.0
O251 O 0.54886 1.02222 0.942 0.0
O252 O 0.64456 0.07883 0.9305 0.0
O253 O 0.62108 1.0045 0.93781 0.0
O254 O 0.61861 0.15877 0.93515 0.0
O255 O 0.5476 0.10718 0.94145 0.0
O256 O 0.67383 0.14464 0.95298 0.0
O257 O 0.71047 0.09919 0.95043 0.0
O258 O 0.64912 0.07079 0.96965 0.0
O259 O 0.58983 0.08601 0.96313 0.0
C260 C 0.53599 0.98817 0.94992 0.0
O261 O 0.68996 0.99519 0.95205 0.0
O262 O 0.64914 0.98168 0.96802 0.0
C263 C 0.63912 0.03524 0.92928 0.0
C264 C 0.56512 0.18908 0.9402 0.0
C265 C 0.5455 0.26519 0.94536 0.0
C266 C 0.50762 0.21702 0.94418 0.0
C267 C 0.5173 0.17963 0.94162 0.0
C268 C 0.60308 0.2371 0.94142 0.0
C269 C 0.59341 0.27452 0.94396 0.0
C270 C 0.57406 0.14923 0.93655 0.0
C271 C 0.71314 0.14172 0.95187 0.0
H272 H 0.68896 0.83286 0.95553 0.0
H273 H 0.7224 0.91975 0.95869 0.0
H274 H 0.57789 0.89835 0.95999 0.0
H275 H 0.54421 0.8114 0.95685 0.0
H276 H 0.47033 0.20804 0.94528 0.0
H277 H 0.48713 0.14316 0.9406 0.0
H278 H 0.64032 0.24604 0.94023 0.0
H279 H 0.6237 0.31108 0.94456 0.0
Tb280 Tb 0.11746 0.67263 0.95421 0.0
Tb281 Tb 0.04927 0.56317 0.94313 0.0
C282 C 0.06578 0.58581 0.97046 0.0
C283 C 0.22917 0.78998 0.95928 0.0
C284 C 0.33005 0.85234 0.95599 0.0
C285 C 0.29818 0.87084 0.95643 0.0
C286 C 0.24837 0.84001 0.95808 0.0
C287 C 0.26076 0.77124 0.95881 0.0
C288 C 0.31068 0.80212 0.95726 0.0
C289 C 0.17629 0.75782 0.96082 0.0
O290 O 0.15762 0.63351 0.95599 0.0
O291 O 0.12364 0.58027 0.94075 0.0
O292 O 0.06657 0.61889 0.92942 0.0
O293 O 0.14065 0.67032 0.93684 0.0
O294 O 0.03878 0.4935 0.94005 0.0
O295 O 0.98656 0.51248 0.93405 0.0
O296 O 1.00071 0.58129 0.95195 0.0
O297 O 0.0455 0.66361 0.94968 0.0
O298 O 0.07397 0.62966 0.96852 0.0
O299 O 0.06103 0.55628 0.96181 0.0
C300 C 0.15759 0.60142 0.94871 0.0
O301 O 0.14991 0.74777 0.9514 0.0
O302 O 0.16274 0.71951 0.9673 0.0
C303 C 0.10997 0.6575 0.9283 0.0
C304 C 0.95684 0.42886 0.93914 0.0
C305 C 0.88125 0.33332 0.94476 0.0
C306 C 0.87186 0.3719 0.94352 0.0
C307 C 0.90901 0.41888 0.94076 0.0
C308 C 0.96636 0.3905 0.94039 0.0
C309 C 0.92923 0.34352 0.94317 0.0
C310 C 0.99635 0.47763 0.93533 0.0
C311 C 1.00313 0.62335 0.95101 0.0
H312 H 0.31183 0.90933 0.95562 0.0
H313 H 0.22477 0.85529 0.95839 0.0
H314 H 0.24686 0.73268 0.95959 0.0
H315 H 0.334 0.78656 0.95683 0.0
H316 H 0.83541 0.3657 0.94442 0.0
H317 H 0.89999 0.44718 0.93972 0.0
H318 H 1.00267 0.39674 0.93908 0.0
H319 H 0.93828 0.31523 0.94414 0.0
Tb320 Tb 0.47202 0.49812 0.95456 0.0
Tb321 Tb 0.58233 0.54007 0.94391 0.0
C322 C 0.55764 0.53274 0.97116 0.0
C323 C 0.35441 0.49209 0.95908 0.0
C324 C 0.29259 0.53085 0.95534 0.0
C325 C 0.27385 0.48046 0.95582 0.0
C326 C 0.30442 0.46135 0.95769 0.0
C327 C 0.37338 0.54245 0.95856 0.0
C328 C 0.34277 0.56161 0.95678 0.0
C329 C 0.38636 0.4713 0.96083 0.0
O330 O 0.51099 0.57735 0.95649 0.0
O331 O 0.56492 0.59698 0.9414 0.0
O332 O 0.52736 0.50198 0.93001 0.0
O333 O 0.4751 0.524 0.93721 0.0
O334 O 0.65222 0.59934 0.94114 0.0
O335 O 0.63334 0.52866 0.93478 0.0
O336 O 0.5638 0.47311 0.95261 0.0
O337 O 0.48157 0.43561 0.94997 0.0
O338 O 0.51403 0.49697 0.96902 0.0
O339 O 0.58784 0.55796 0.96264 0.0
C340 C 0.54338 0.60959 0.94929 0.0
O341 O 0.39707 0.45514 0.95148 0.0
O342 O 0.42424 0.49601 0.96746 0.0
C343 C 0.48884 0.50676 0.92872 0.0
C344 C 0.71687 0.58307 0.93919 0.0
C345 C 0.8124 0.60393 0.94489 0.0
C346 C 0.8023 0.61811 0.93409 0.0
C347 C 0.75524 0.6078 0.9313 0.0
C348 C 0.72655 0.56925 0.95005 0.0
C349 C 0.77373 0.57949 0.95286 0.0
C350 C 0.66779 0.57355 0.93591 0.0
C351 C 0.52174 0.43352 0.9515 0.0
H352 H 0.23537 0.45569 0.95487 0.0
H353 H 0.28898 0.42245 0.95803 0.0
H354 H 0.41193 0.56704 0.95947 0.0
H355 H 0.35852 0.60052 0.95633 0.0
H356 H 0.83055 0.63621 0.92763 0.0
H357 H 0.74875 0.61902 0.92289 0.0
H358 H 0.69768 0.55056 0.95634 0.0
H359 H 0.7799 0.5684 0.96131 0.0
Tb360 Tb 0.03995 0.63417 0.53509 0.0
Tb361 Tb 0.10836 0.59317 0.54607 0.0
C362 C 0.09255 0.60076 0.51873 0.0
C363 C 0.92859 0.64086 0.53062 0.0
C364 C 0.82756 0.60108 0.53398 0.0
C365 C 0.84863 0.61755 0.52291 0.0
C366 C 0.89857 0.63731 0.52126 0.0
C367 C 0.90764 0.62404 0.54168 0.0
C368 C 0.85778 0.60462 0.54335 0.0
C369 C 0.98111 0.66061 0.52863 0.0
O370 O 1.00031 0.55489 0.53309 0.0
O371 O 1.03412 0.53546 0.54832 0.0
O372 O 0.09024 0.63107 0.55982 0.0
O373 O 1.01617 0.60757 0.55234 0.0
O374 O 0.17091 0.6052 0.55526 0.0
O375 O 0.11912 0.53418 0.54908 0.0
O376 O 0.15702 0.66021 0.53743 0.0
O377 O 0.11164 0.69703 0.53985 0.0
O378 O 0.0842 0.6362 0.52081 0.0
O379 O 0.09718 0.57551 0.52729 0.0
C380 C 1.00036 0.52267 0.54031 0.0
O381 O 1.00957 0.67859 0.53769 0.0
O382 O 0.99265 0.63402 0.52225 0.0
C383 C 0.04656 0.62567 0.56093 0.0
C384 C 0.20024 0.55095 0.55089 0.0
C385 C 0.27465 0.52991 0.545 0.0
C386 C 0.25127 0.51659 0.55592 0.0
C387 C 0.21466 0.52699 0.55881 0.0
C388 C 0.22287 0.56395 0.53991 0.0
C389 C 0.25967 0.55363 0.53701 0.0
C390 C 0.16063 0.56034 0.55424 0.0
C391 C 0.15415 0.69957 0.53846 0.0
H392 H 0.82663 0.6159 0.51553 0.0
H393 H 0.91378 0.64978 0.51265 0.0
H394 H 0.92973 0.62567 0.54904 0.0
H395 H 0.84278 0.59179 0.55196 0.0
H396 H 0.262 0.49906 0.5624 0.0
H397 H 0.19763 0.51638 0.56731 0.0
H398 H 0.21207 0.58201 0.5336 0.0
H399 H 0.2762 0.56405 0.52846 0.0
Tb400 Tb 0.51049 0.46078 0.53481 0.0
Tb401 Tb 0.55206 0.57021 0.54593 0.0
C402 C 0.5447 0.54711 0.51854 0.0
C403 C 0.50499 0.34321 0.53048 0.0
C404 C 0.54572 0.28279 0.534 0.0
C405 C 0.53052 0.28813 0.52283 0.0
C406 C 0.51031 0.31788 0.52111 0.0
C407 C 0.52059 0.33838 0.54164 0.0
C408 C 0.54047 0.30838 0.54338 0.0
C409 C 0.48466 0.37552 0.52842 0.0
O410 O 0.58971 0.50066 0.53276 0.0
O411 O 0.60956 0.55332 0.54814 0.0
O412 O 0.51402 0.51411 0.55964 0.0
O413 O 0.53729 0.46365 0.55204 0.0
O414 O 0.61118 0.63999 0.54893 0.0
O415 O 0.5403 0.62065 0.55523 0.0
O416 O 0.48506 0.55217 0.53729 0.0
O417 O 0.44763 0.4698 0.5395 0.0
O418 O 0.50902 0.5033 0.52054 0.0
O419 O 0.56978 0.5768 0.52716 0.0
C420 C 0.62204 0.53232 0.54008 0.0
O421 O 0.46638 0.38589 0.53743 0.0
O422 O 0.51088 0.41363 0.52199 0.0
C423 C 0.51926 0.47576 0.56067 0.0
C424 C 0.59445 0.70431 0.55088 0.0
C425 C 0.615 0.79973 0.54515 0.0
C426 C 0.6297 0.78985 0.5559 0.0
C427 C 0.61953 0.74286 0.55871 0.0
C428 C 0.58009 0.71377 0.54007 0.0
C429 C 0.59018 0.76087 0.53724 0.0
C430 C 0.58515 0.65529 0.55416 0.0
C431 C 0.44544 0.51004 0.53825 0.0
H432 H 0.53346 0.26864 0.51542 0.0
H433 H 0.49883 0.32114 0.51241 0.0
H434 H 0.51762 0.35792 0.54903 0.0
H435 H 0.55228 0.30569 0.55207 0.0
H436 H 0.64812 0.81823 0.56232 0.0
H437 H 0.63118 0.73657 0.56709 0.0
H438 H 0.56112 0.68478 0.53382 0.0
H439 H 0.57869 0.76684 0.52882 0.0
Tb440 Tb 0.68537 0.10501 0.53512 0.0
Tb441 Tb 0.57549 0.03809 0.54597 0.0
C442 C 0.59956 0.05375 0.51868 0.0
C443 C 0.80307 0.21617 0.53025 0.0
C444 C 0.86529 0.3169 0.53376 0.0
C445 C 0.88374 0.28498 0.53352 0.0
C446 C 0.85297 0.23523 0.53176 0.0
C447 C 0.7844 0.24784 0.53052 0.0
C448 C 0.81521 0.29767 0.53218 0.0
C449 C 0.77089 0.16334 0.52864 0.0
O450 O 0.64654 0.14543 0.53306 0.0
O451 O 0.59354 0.11276 0.54837 0.0
O452 O 0.6305 0.05509 0.55986 0.0
O453 O 0.68313 0.12878 0.55243 0.0
O454 O 0.5055 0.0277 0.54848 0.0
O455 O 0.52447 0.97666 0.55536 0.0
O456 O 0.59325 0.98859 0.5375 0.0
O457 O 0.67561 0.03294 0.53987 0.0
O458 O 0.64293 0.06097 0.52082 0.0
O459 O 0.56987 0.04987 0.52721 0.0
C460 C 0.61495 0.14637 0.54036 0.0
O461 O 0.76041 0.13689 0.53806 0.0
O462 O 0.73281 0.14995 0.52208 0.0
C463 C 0.66942 0.09823 0.56101 0.0
C464 C 0.44095 0.94591 0.54999 0.0
C465 C 0.34552 0.86915 0.54476 0.0
C466 C 0.38445 0.86035 0.54615 0.0
C467 C 0.43138 0.89809 0.54872 0.0
C468 C 0.40226 0.95484 0.54858 0.0
C469 C 0.35532 0.91712 0.54598 0.0
C470 C 0.48959 0.98611 0.55364 0.0
C471 C 0.63515 0.99068 0.53859 0.0
H472 H 0.92214 0.29853 0.53458 0.0
H473 H 0.86819 0.21157 0.53162 0.0
H474 H 0.74592 0.23406 0.52951 0.0
H475 H 0.79968 0.32104 0.53245 0.0
H476 H 0.37857 0.82396 0.54552 0.0
H477 H 0.45997 0.88956 0.54989 0.0
H478 H 0.40819 0.99115 0.54962 0.0
H479 H 0.32676 0.92571 0.54488 0.0
Tb480 Tb 0.22034 0.37205 0.37913 0.0
Tb481 Tb 0.17857 0.43987 0.36823 0.0
C482 C 0.18719 0.43289 0.39412 0.0
C483 C 0.26215 0.27946 0.38322 0.0
C484 C 0.28146 0.20311 0.37805 0.0
C485 C 0.31947 0.25116 0.37937 0.0
C486 C 0.30993 0.28866 0.38193 0.0
C487 C 0.22407 0.23157 0.38187 0.0
C488 C 0.23358 0.19405 0.37932 0.0
C489 C 0.25332 0.3194 0.38688 0.0
O490 O 0.15337 0.32325 0.37045 0.0
O491 O 0.11584 0.3679 0.37291 0.0
O492 O 0.17741 0.39627 0.35388 0.0
O493 O 0.23851 0.38406 0.36041 0.0
O494 O 0.13549 0.47178 0.37116 0.0
O495 O 0.17655 0.48514 0.35523 0.0
O496 O 0.25798 0.48027 0.36635 0.0
O497 O 0.27758 0.44638 0.38154 0.0
O498 O 0.18239 0.38951 0.39297 0.0
O499 O 0.20463 0.46344 0.38555 0.0
C500 C 0.11369 0.32555 0.37154 0.0
O501 O 0.27959 0.36135 0.38192 0.0
O502 O 0.20881 0.30985 0.38835 0.0
C503 C 0.2133 0.38858 0.35182 0.0
C504 C 0.1723 0.55115 0.36341 0.0
C505 C 0.21067 0.65178 0.367 0.0
C506 C 0.16028 0.61983 0.36662 0.0
C507 C 0.14136 0.57013 0.36482 0.0
C508 C 0.22266 0.58284 0.36384 0.0
C509 C 0.24162 0.63263 0.36554 0.0
C510 C 0.15169 0.49838 0.36177 0.0
C511 C 0.29025 0.48034 0.37359 0.0
H512 H 0.35675 0.25997 0.37836 0.0
H513 H 0.34018 0.32501 0.38306 0.0
H514 H 0.18683 0.22281 0.38295 0.0
H515 H 0.20318 0.15759 0.37862 0.0
H516 H 0.13537 0.63334 0.36759 0.0
H517 H 0.10246 0.54645 0.36456 0.0
H518 H 0.2474 0.5691 0.36291 0.0
H519 H 0.28053 0.65602 0.36592 0.0
Tb520 Tb 0.77675 0.90492 0.37927 0.0
Tb521 Tb 0.70896 0.79495 0.36838 0.0
C522 C 0.71664 0.81085 0.39428 0.0
C523 C 0.868 0.03937 0.38399 0.0
C524 C 0.94265 0.13479 0.37817 0.0
C525 C 0.91858 0.1249 0.389 0.0
C526 C 0.88185 0.07789 0.39185 0.0
C527 C 0.89131 0.04885 0.37311 0.0
C528 C 0.92822 0.09596 0.37024 0.0
C529 C 0.82843 0.99034 0.38733 0.0
O530 O 0.82578 0.88678 0.3707 0.0
O531 O 0.78102 0.80439 0.373 0.0
O532 O 0.75279 0.83743 0.35406 0.0
O533 O 0.76498 0.91086 0.36053 0.0
O534 O 0.67661 0.71987 0.3713 0.0
O535 O 0.66346 0.7477 0.35538 0.0
O536 O 0.66899 0.83414 0.36641 0.0
O537 O 0.7021 0.88697 0.38174 0.0
O538 O 0.75986 0.84965 0.39309 0.0
O539 O 0.68581 0.79741 0.38575 0.0
C540 C 0.82338 0.84473 0.37171 0.0
O541 O 0.78706 0.97463 0.38208 0.0
O542 O 0.83892 0.95597 0.38849 0.0
C543 C 0.76053 0.88102 0.35197 0.0
C544 C 0.59706 0.67758 0.36356 0.0
C545 C 0.49619 0.61562 0.3671 0.0
C546 C 0.52802 0.59704 0.36683 0.0
C547 C 0.57781 0.62766 0.36506 0.0
C548 C 0.5655 0.69639 0.36386 0.0
C549 C 0.51561 0.66572 0.36554 0.0
C550 C 0.64996 0.70958 0.36192 0.0
C551 C 0.66832 0.8657 0.37375 0.0
H552 H 0.92886 0.15326 0.39543 0.0
H553 H 0.8643 0.07158 0.40028 0.0
H554 H 0.88099 1.01987 0.36685 0.0
H555 H 0.9453 0.10195 0.36176 0.0
H556 H 0.51436 0.55863 0.36786 0.0
H557 H 0.60136 0.61231 0.36489 0.0
H558 H 0.5794 0.73488 0.36286 0.0
H559 H 0.49234 0.68137 0.36583 0.0
Tb560 Tb 0.24359 0.92779 0.37944 0.0
Tb561 Tb 0.35319 0.96888 0.36854 0.0
C562 C 0.3376 0.96005 0.39435 0.0
C563 C 0.10948 0.8856 0.38426 0.0
C564 C 1.01407 0.86466 0.37838 0.0
C565 C 1.02403 0.85112 0.38929 0.0
C566 C 0.07104 0.86147 0.39216 0.0
C567 C 0.09993 0.89882 0.37331 0.0
C568 C 0.05282 0.88854 0.37041 0.0
C569 C 0.15846 0.89497 0.38761 0.0
O570 O 0.26204 0.99476 0.37078 0.0
O571 O 0.34429 0.03173 0.37325 0.0
O572 O 0.31116 0.97077 0.3542 0.0
O573 O 0.23726 0.91023 0.36067 0.0
O574 O 0.42802 1.01308 0.37126 0.0
O575 O 0.40062 0.96887 0.35576 0.0
O576 O 0.31349 0.88965 0.36649 0.0
O577 O 0.25992 0.86998 0.38166 0.0
O578 O 0.2995 0.96566 0.39321 0.0
O579 O 0.34992 0.94197 0.38577 0.0
C580 C 0.30427 0.03418 0.37182 0.0
O581 O 0.17377 0.86881 0.38245 0.0
O582 O 0.19309 0.93983 0.38863 0.0
C583 C 0.26728 0.93539 0.35211 0.0
C584 C 0.47111 0.97506 0.36425 0.0
C585 C 0.53173 0.93462 0.36769 0.0
C586 C 0.52656 0.95016 0.35655 0.0
C587 C 0.4967 0.97024 0.35487 0.0
C588 C 0.47579 0.95915 0.37538 0.0
C589 C 0.50592 0.93941 0.37708 0.0
C590 C 0.43863 0.99514 0.36221 0.0
C591 C 0.28105 0.85733 0.37367 0.0
H592 H 0.99572 0.83346 0.39575 0.0
H593 H 0.07741 0.85071 0.40065 0.0
H594 H 0.12885 0.91702 0.367 0.0
H595 H 0.04675 0.89913 0.36188 0.0
H596 H 0.54625 0.94756 0.34914 0.0
H597 H 0.49353 0.98198 0.3462 0.0
H598 H 0.45603 0.96175 0.38277 0.0
H599 H 0.50854 0.92734 0.38575 0.0
Tb600 Tb 0.71741 0.87545 0.7771 0.0
Tb601 Tb 0.78498 0.83356 0.78813 0.0
C602 C 0.77871 0.84238 0.76226 0.0
C603 C 0.62583 0.91796 0.77218 0.0
C604 C 0.55073 0.93816 0.77792 0.0
C605 C 0.57509 0.95262 0.76713 0.0
C606 C 0.61205 0.94263 0.76432 0.0
C607 C 0.6022 0.90381 0.78302 0.0
C608 C 0.56507 0.91372 0.78585 0.0
C609 C 0.66571 0.9089 0.76891 0.0
O610 O 0.66812 0.80832 0.78563 0.0
O611 O 0.71305 0.77089 0.7834 0.0
O612 O 0.74078 0.83179 0.8024 0.0
O613 O 0.7285 0.89289 0.79588 0.0
O614 O 0.81519 0.78895 0.78556 0.0
O615 O 0.83247 0.83384 0.80095 0.0
O616 O 0.82461 0.91277 0.7902 0.0
O617 O 0.79196 0.93262 0.77481 0.0
O618 O 0.73521 0.83739 0.76335 0.0
O619 O 0.80902 0.85996 0.77088 0.0
C620 C 0.67061 0.76871 0.78465 0.0
O621 O 0.70685 0.93466 0.77426 0.0
O622 O 0.65553 0.86413 0.76771 0.0
C623 C 0.73279 0.86749 0.80446 0.0
C624 C 0.89651 0.82712 0.79246 0.0
C625 C 0.99756 0.86729 0.7889 0.0
C626 C 0.97704 0.852 0.80007 0.0
C627 C 0.92712 0.83206 0.80181 0.0
C628 C 0.91691 0.84275 0.7813 0.0
C629 C 0.96676 0.86235 0.77954 0.0
C630 C 0.84397 0.80723 0.79456 0.0
C631 C 0.82543 0.9451 0.78288 0.0
H632 H 0.56488 0.97074 0.76069 0.0
H633 H 0.62984 0.95411 0.75592 0.0
H634 H 0.61247 0.88515 0.7893 0.0
H635 H 0.54776 0.90242 0.7943 0.0
H636 H 0.99948 0.85471 0.80745 0.0
H637 H 0.91237 0.82054 0.8105 0.0
H638 H 0.89441 0.84006 0.77393 0.0
H639 H 0.98129 0.87424 0.77085 0.0
Tb640 Tb 0.27238 0.89724 0.77683 0.0
Tb641 Tb 0.31481 1.00717 0.78775 0.0
C642 C 0.30606 0.99129 0.76187 0.0
C643 C 0.2294 0.76294 0.77207 0.0
C644 C 0.20914 0.66771 0.77788 0.0
C645 C 0.19477 0.67747 0.76706 0.0
C646 C 0.20479 0.72438 0.76422 0.0
C647 C 0.24342 0.75359 0.78294 0.0
C648 C 0.23348 0.70658 0.7858 0.0
C649 C 0.23862 0.81187 0.76874 0.0
O650 O 0.33959 0.91528 0.78538 0.0
O651 O 0.37736 0.99766 0.7831 0.0
O652 O 0.3161 0.96463 0.80206 0.0
O653 O 0.25478 0.89122 0.79558 0.0
O654 O 0.35784 0.08221 0.78481 0.0
O655 O 0.31683 0.0546 0.80074 0.0
O656 O 0.2356 0.96801 0.7898 0.0
O657 O 0.21547 0.91498 0.7745 0.0
O658 O 0.31061 0.9526 0.76303 0.0
O659 O 0.28874 1.00461 0.77044 0.0
C660 C 0.37932 0.95732 0.78437 0.0
O661 O 0.21296 0.82744 0.77404 0.0
O662 O 0.28346 0.84637 0.76754 0.0
C663 C 0.28018 0.92104 0.80414 0.0
C664 C 0.32104 0.1249 0.79254 0.0
C665 C 0.28277 0.18734 0.789 0.0
C666 C 0.2518 0.1374 0.79075 0.0
C667 C 0.27069 0.10648 0.79243 0.0
C668 C 0.352 0.17467 0.79084 0.0
C669 C 0.33314 0.20552 0.78907 0.0
C670 C 0.34161 0.09266 0.79418 0.0
C671 C 0.20315 0.9363 0.78252 0.0
H672 H 0.17674 0.64908 0.76064 0.0
H673 H 0.19342 0.7306 0.75579 0.0
H674 H 0.26204 0.7826 0.7892 0.0
H675 H 0.2447 0.70068 0.79427 0.0
H676 H 0.21288 0.12203 0.79061 0.0
H677 H 0.24587 0.06812 0.79358 0.0
H678 H 0.39089 0.18972 0.79086 0.0
H679 H 0.35812 0.24381 0.78788 0.0
Tb680 Tb 0.25078 0.43114 0.77679 0.0
Tb681 Tb 0.14131 0.36317 0.78781 0.0
C682 C 0.15638 0.36969 0.76195 0.0
C683 C 0.38489 0.52282 0.77198 0.0
C684 C 0.48019 0.59753 0.77789 0.0
C685 C 0.47039 0.57385 0.767 0.0
C686 C 0.42344 0.53708 0.76411 0.0
C687 C 0.39427 0.54575 0.78291 0.0
C688 C 0.44132 0.5827 0.78582 0.0
C689 C 0.33595 0.48313 0.76862 0.0
O690 O 0.23276 0.48015 0.78539 0.0
O691 O 0.1504 0.43504 0.78312 0.0
O692 O 0.18378 0.40746 0.80206 0.0
O693 O 0.25724 0.41986 0.79555 0.0
O694 O 0.06641 0.33277 0.78527 0.0
O695 O 0.09424 0.31598 0.80069 0.0
O696 O 0.18075 0.32331 0.78978 0.0
O697 O 0.23387 0.35682 0.77451 0.0
O698 O 0.19483 0.41322 0.76305 0.0
O699 O 0.14371 0.33931 0.77054 0.0
C700 C 0.19059 0.47754 0.7844 0.0
O701 O 0.32055 0.44177 0.77384 0.0
O702 O 0.30136 0.49336 0.76752 0.0
C703 C 0.22748 0.41546 0.80413 0.0
C704 C 1.02326 0.25179 0.79233 0.0
C705 C 0.96213 0.15072 0.78898 0.0
C706 C 0.96669 0.17181 0.80005 0.0
C707 C 0.99681 0.22176 0.80169 0.0
C708 C 1.01918 0.23082 0.78128 0.0
C709 C 0.98881 0.18095 0.77961 0.0
C710 C 0.05602 0.30434 0.79432 0.0
C711 C 0.21284 0.32311 0.78252 0.0
H712 H 0.4988 0.58447 0.76057 0.0
H713 H 0.4172 0.51981 0.75564 0.0
H714 H 0.36526 0.53508 0.78918 0.0
H715 H 0.44725 0.59948 0.79434 0.0
H716 H 0.94634 0.14982 0.80743 0.0
H717 H 0.99952 0.23698 0.81031 0.0
H718 H 0.03963 0.2529 0.77391 0.0
H719 H 0.98669 0.16595 0.771 0.0
Tb720 Tb 0.31626 0.36404 0.28777 0.0
Tb721 Tb 0.27472 0.4324 0.27693 0.0
C722 C 0.28175 0.41562 0.30423 0.0
C723 C 0.3217 0.25206 0.29247 0.0
C724 C 0.28288 0.15122 0.28896 0.0
C725 C 0.33329 0.18323 0.28899 0.0
C726 C 0.35242 0.233 0.29075 0.0
C727 C 0.27131 0.22031 0.2924 0.0
C728 C 0.25214 0.17044 0.29073 0.0
C729 C 0.34258 0.30493 0.29413 0.0
O730 O 0.23697 0.32396 0.2897 0.0
O731 O 0.21739 0.35803 0.27455 0.0
O732 O 0.31291 0.41518 0.26312 0.0
O733 O 0.29021 0.34099 0.27043 0.0
O734 O 0.21552 0.4429 0.27397 0.0
O735 O 0.28651 0.495 0.26783 0.0
O736 O 0.34178 0.481 0.28561 0.0
O737 O 0.37913 0.43609 0.28318 0.0
O738 O 0.31739 0.4075 0.30216 0.0
O739 O 0.25672 0.42057 0.29566 0.0
C740 C 0.20472 0.32402 0.28248 0.0
O741 O 0.35885 0.33161 0.28475 0.0
O742 O 0.31805 0.31841 0.30072 0.0
C743 C 0.30794 0.37177 0.26191 0.0
C744 C 0.23191 0.52388 0.2722 0.0
C745 C 0.2108 0.59823 0.27806 0.0
C746 C 0.19685 0.57432 0.26721 0.0
C747 C 0.20729 0.53773 0.26434 0.0
C748 C 0.24551 0.54702 0.28311 0.0
C749 C 0.23515 0.58379 0.28599 0.0
C750 C 0.24156 0.48448 0.26884 0.0
C751 C 0.38138 0.4785 0.28455 0.0
H752 H 0.3581 0.16972 0.28779 0.0
H753 H 0.39134 0.25668 0.29075 0.0
H754 H 0.24667 0.23405 0.29357 0.0
H755 H 0.2132 0.14704 0.29062 0.0
H756 H 0.17882 0.58462 0.26077 0.0
H757 H 0.19623 0.5203 0.25588 0.0
H758 H 0.26411 0.53669 0.28938 0.0
H759 H 0.24605 0.60075 0.29449 0.0
Tb760 Tb 0.78672 1.00839 0.28798 0.0
Tb761 Tb 0.71881 0.89884 0.27695 0.0
C762 C 0.73422 0.92214 0.30431 0.0
C763 C 0.89838 0.126 0.29271 0.0
C764 C 0.99907 0.18822 0.28906 0.0
C765 C 0.97984 0.13812 0.29057 0.0
C766 C 0.93003 0.10731 0.2923 0.0
C767 C 0.91743 0.17591 0.29126 0.0
C768 C 0.96715 0.20666 0.28944 0.0
C769 C 0.84556 0.09387 0.29439 0.0
O770 O 0.82625 0.96882 0.29013 0.0
O771 O 0.7933 0.91587 0.2748 0.0
O772 O 0.73682 0.95479 0.26321 0.0
O773 O 0.81071 1.00533 0.27077 0.0
O774 O 0.65652 0.84824 0.26768 0.0
O775 O 0.7082 0.82912 0.27397 0.0
O776 O 0.66991 0.91704 0.28555 0.0
O777 O 0.715 0.99935 0.28319 0.0
O778 O 0.74253 0.96595 0.30226 0.0
O779 O 0.72968 0.89233 0.29573 0.0
C780 C 0.82681 0.93698 0.28286 0.0
O781 O 0.81889 0.08338 0.285 0.0
O782 O 0.83223 0.05585 0.30096 0.0
C783 C 0.78047 0.99311 0.26215 0.0
C784 C 0.62711 0.76467 0.27207 0.0
C785 C 0.55245 0.66921 0.2779 0.0
C786 C 0.57603 0.67928 0.267 0.0
C787 C 0.61276 0.72629 0.26415 0.0
C788 C 0.60426 0.75502 0.28302 0.0
C789 C 0.56735 0.7079 0.28589 0.0
C790 C 0.6668 0.81369 0.26875 0.0
C791 C 0.67257 0.9592 0.28454 0.0
H792 H 1.0032 0.12259 0.29019 0.0
H793 H 0.91624 0.06883 0.29326 0.0
H794 H 0.89379 0.19114 0.29152 0.0
H795 H 0.98068 0.24507 0.28844 0.0
H796 H 0.56538 0.65104 0.26051 0.0
H797 H 0.62995 0.73273 0.25566 0.0
H798 H 0.61498 0.78387 0.28934 0.0
H799 H 0.55066 0.70178 0.29442 0.0
Tb800 Tb 0.14117 0.83367 0.28801 0.0
Tb801 Tb 0.25078 0.87558 0.27713 0.0
C802 C 0.22694 0.86805 0.30444 0.0
C803 C 1.02324 0.82691 0.29251 0.0
C804 C 0.9627 0.86739 0.2891 0.0
C805 C 0.9673 0.85116 0.3002 0.0
C806 C 0.99714 0.83106 0.30187 0.0
C807 C 1.01912 0.84349 0.28143 0.0
C808 C 0.98902 0.86326 0.27973 0.0
C809 C 0.05591 0.80708 0.29454 0.0
O810 O 0.18033 0.91309 0.28987 0.0
O811 O 0.23349 0.93256 0.27462 0.0
O812 O 0.19537 0.83752 0.26328 0.0
O813 O 0.14325 0.85929 0.27069 0.0
O814 O 0.32081 0.9349 0.27446 0.0
O815 O 0.30154 0.86441 0.26783 0.0
O816 O 0.23279 0.80862 0.28574 0.0
O817 O 0.15052 0.77103 0.28335 0.0
O818 O 0.18345 0.83208 0.30233 0.0
O819 O 0.25667 0.89355 0.29587 0.0
C820 C 0.21232 0.9453 0.28258 0.0
O821 O 0.06629 0.78891 0.2855 0.0
O822 O 0.09413 0.83381 0.30089 0.0
C823 C 0.15664 0.84208 0.26212 0.0
C824 C 0.38524 0.91746 0.27307 0.0
C825 C 0.48082 0.93649 0.27826 0.0
C826 C 0.44203 0.88871 0.27682 0.0
C827 C 0.39503 0.87933 0.27426 0.0
C828 C 0.42381 0.96515 0.27453 0.0
C829 C 0.47081 0.97455 0.27711 0.0
C830 C 0.33653 0.90883 0.26941 0.0
C831 C 0.19079 0.76894 0.28468 0.0
H832 H 0.94722 0.85328 0.30758 0.0
H833 H 0.99993 0.81882 0.31051 0.0
H834 H 0.03933 0.84145 0.27406 0.0
H835 H 0.98684 0.87589 0.2711 0.0
H836 H 0.44808 0.85829 0.27739 0.0
H837 H 0.36657 0.84218 0.27304 0.0
H838 H 0.41772 0.99544 0.27354 0.0
H839 H 0.49926 1.01174 0.27825 0.0
Tb840 Tb 0.70794 0.96924 0.86846 0.0
Tb841 Tb 0.77576 0.92742 0.87946 0.0
C842 C 0.76013 0.93534 0.85211 0.0
C843 C 0.59631 0.97547 0.86392 0.0
C844 C 0.4951 0.9352 0.86723 0.0
C845 C 0.51626 0.95167 0.85616 0.0
C846 C 0.56626 0.97165 0.85454 0.0
C847 C 0.57528 0.95863 0.87497 0.0
C848 C 0.52535 0.93898 0.87661 0.0
C849 C 0.64894 0.99548 0.86196 0.0
O850 O 0.66843 0.89007 0.86638 0.0
O851 O 0.70124 0.87024 0.88175 0.0
O852 O 0.75783 0.96521 0.89326 0.0
O853 O 0.68402 0.9429 0.88572 0.0
O854 O 0.83797 0.93884 0.88871 0.0
O855 O 0.78628 0.86819 0.88231 0.0
O856 O 0.82478 0.99462 0.8709 0.0
O857 O 0.77975 0.03191 0.87322 0.0
O858 O 0.7522 0.97107 0.85419 0.0
O859 O 0.76447 0.90993 0.86068 0.0
C860 C 0.66775 0.85775 0.87369 0.0
O861 O 0.67733 1.01351 0.87103 0.0
O862 O 0.66074 0.96908 0.85558 0.0
C863 C 0.71436 0.96031 0.89435 0.0
C864 C 0.86731 0.88469 0.88422 0.0
C865 C 0.94186 0.86379 0.87835 0.0
C866 C 0.91834 0.8503 0.88925 0.0
C867 C 0.88166 0.86063 0.89213 0.0
C868 C 0.89011 0.89788 0.87327 0.0
C869 C 0.92697 0.88763 0.87037 0.0
C870 C 0.82763 0.894 0.88756 0.0
C871 C 0.82216 0.03414 0.87191 0.0
H872 H 0.49427 0.94987 0.84876 0.0
H873 H 0.5815 0.98412 0.84593 0.0
H874 H 0.59736 0.96044 0.88236 0.0
H875 H 0.51033 0.92616 0.88522 0.0
H876 H 0.92899 0.83267 0.89572 0.0
H877 H 0.86452 0.84988 0.90062 0.0
H878 H 0.87939 0.91603 0.86696 0.0
H879 H 0.94362 0.89819 0.86184 0.0
Tb880 Tb 0.17757 0.7945 0.86799 0.0
Tb881 Tb 0.21942 0.90383 0.87908 0.0
C882 C 0.21154 0.88058 0.8517 0.0
C883 C 0.17155 0.67684 0.8635 0.0
C884 C 0.21218 0.61634 0.86691 0.0
C885 C 0.19563 0.62072 0.85582 0.0
C886 C 0.17547 0.65053 0.85415 0.0
C887 C 0.18847 0.67296 0.87457 0.0
C888 C 0.2083 0.64291 0.87626 0.0
C889 C 0.1514 0.70928 0.86149 0.0
O890 O 0.25689 0.83423 0.86595 0.0
O891 O 0.27677 0.88677 0.88135 0.0
O892 O 0.18151 0.84795 0.89284 0.0
O893 O 0.20418 0.79699 0.88522 0.0
O894 O 0.27871 0.97379 0.88186 0.0
O895 O 0.20811 0.9544 0.88843 0.0
O896 O 0.15228 0.88586 0.87052 0.0
O897 O 0.11479 0.80354 0.87276 0.0
O898 O 0.17571 0.83694 0.85375 0.0
O899 O 0.237 0.91015 0.8603 0.0
C900 C 0.28926 0.8658 0.87329 0.0
O901 O 0.13324 0.7196 0.87054 0.0
O902 O 0.17778 0.74748 0.85511 0.0
C903 C 0.18647 0.80942 0.89386 0.0
C904 C 0.26121 0.0382 0.88327 0.0
C905 C 0.28032 0.13383 0.87812 0.0
C906 C 0.23254 0.09515 0.87967 0.0
C907 C 0.22313 0.04814 0.88221 0.0
C908 C 0.3089 0.07666 0.88171 0.0
C909 C 0.31834 0.12368 0.87915 0.0
C910 C 0.25255 0.98943 0.8869 0.0
C911 C 0.11262 0.8438 0.87153 0.0
H912 H 0.19752 0.60046 0.84845 0.0
H913 H 0.16296 0.65309 0.84553 0.0
H914 H 0.18659 0.69331 0.88192 0.0
H915 H 0.22118 0.64095 0.88488 0.0
H916 H 0.20215 0.10129 0.87919 0.0
H917 H 0.18598 1.01978 0.88351 0.0
H918 H 0.33919 0.07049 0.88261 0.0
H919 H 0.35553 0.15202 0.87793 0.0
Tb920 Tb 0.3533 0.43999 0.86812 0.0
Tb921 Tb 0.24391 0.37275 0.87913 0.0
C922 C 0.26747 0.38783 0.85176 0.0
C923 C 0.47147 0.55113 0.8638 0.0
C924 C 0.53217 0.65213 0.86731 0.0
C925 C 0.52766 0.6314 0.85619 0.0
C926 C 0.49774 0.58148 0.85447 0.0
C927 C 0.47554 0.57173 0.87491 0.0
C928 C 0.5057 0.62158 0.87664 0.0
C929 C 0.43879 0.49863 0.86174 0.0
O930 O 0.31378 0.47971 0.86597 0.0
O931 O 0.26097 0.44718 0.88133 0.0
O932 O 0.29974 0.39073 0.89292 0.0
O933 O 0.3505 0.46434 0.8853 0.0
O934 O 0.19332 0.31107 0.88854 0.0
O935 O 0.17392 0.36207 0.88185 0.0
O936 O 0.2617 0.32346 0.87059 0.0
O937 O 0.34398 0.36821 0.87298 0.0
O938 O 0.3111 0.39568 0.85386 0.0
O939 O 0.2378 0.38378 0.86033 0.0
C940 C 0.28206 0.48055 0.87324 0.0
O941 O 0.42809 0.47004 0.87077 0.0
O942 O 0.40077 0.48715 0.85531 0.0
C943 C 0.33824 0.43428 0.89395 0.0
C944 C 0.10954 0.28017 0.88334 0.0
C945 C 1.01396 0.2034 0.87819 0.0
C946 C 1.02391 0.25146 0.87932 0.0
C947 C 0.07091 0.28917 0.88187 0.0
C948 C 0.09981 0.23225 0.88217 0.0
C949 C 0.05282 0.19452 0.87963 0.0
C950 C 0.15828 0.3204 0.88695 0.0
C951 C 0.30372 0.32585 0.87166 0.0
H952 H 0.54786 0.65367 0.84883 0.0
H953 H 0.49503 0.56654 0.84583 0.0
H954 H 0.45522 0.54941 0.88225 0.0
H955 H 0.5078 0.63629 0.88529 0.0
H956 H 0.99543 0.26013 0.87817 0.0
H957 H 0.07694 0.32554 0.88285 0.0
H958 H 0.12833 0.22365 0.88339 0.0
H959 H 0.04683 0.15807 0.87908 0.0
Tb960 Tb 0.88718 0.70551 0.71272 0.0
Tb961 Tb 0.8447 0.7726 0.70178 0.0
C962 C 0.85396 0.76639 0.72766 0.0
C963 C 0.92899 0.613 0.71679 0.0
C964 C 0.94744 0.5361 0.71159 0.0
C965 C 0.89977 0.52725 0.71319 0.0
C966 C 0.89069 0.56505 0.71575 0.0
C967 C 0.97656 0.62197 0.71518 0.0
C968 C 0.98566 0.58419 0.7126 0.0
C969 C 0.9207 0.6533 0.72044 0.0
O970 O 0.8199 0.65606 0.70424 0.0
O971 O 0.7822 0.70063 0.70656 0.0
O972 O 0.8428 0.72847 0.68748 0.0
O973 O 0.90434 0.71679 0.69393 0.0
O974 O 0.79997 0.80265 0.70438 0.0
O975 O 0.8445 0.8197 0.68894 0.0
O976 O 0.92401 0.81258 0.69969 0.0
O977 O 0.94426 0.78005 0.71504 0.0
O978 O 0.84932 0.72306 0.72656 0.0
O979 O 0.87111 0.79671 0.71904 0.0
C980 C 0.78018 0.65829 0.7053 0.0
O981 O 0.94659 0.69489 0.71528 0.0
O982 O 0.87639 0.644 0.72214 0.0
C983 C 0.87863 0.72073 0.68538 0.0
C984 C 0.8377 0.8837 0.69737 0.0
C985 C 0.87794 0.98476 0.70078 0.0
C986 C 0.86124 0.96376 0.68971 0.0
C987 C 0.84127 0.91382 0.68804 0.0
C988 C 0.85472 0.90456 0.70843 0.0
C989 C 0.87435 0.95443 0.71012 0.0
C990 C 0.81791 0.83118 0.69534 0.0
C991 C 0.95654 0.81354 0.70699 0.0
H992 H 0.86924 0.49078 0.71273 0.0
H993 H 0.85363 0.55647 0.71709 0.0
H994 H 1.00699 0.65837 0.71605 0.0
H995 H 1.02277 0.59283 0.71134 0.0
H996 H 0.8629 0.98584 0.68235 0.0
H997 H 0.82868 0.89869 0.67942 0.0
H998 H 0.8531 0.88242 0.71577 0.0
H999 H 0.88734 0.96935 0.71873 0.0
Tb1000 Tb 0.4428 0.23823 0.7129 0.0
Tb1001 Tb 0.37523 0.12909 0.70165 0.0
C1002 C 0.38074 0.14347 0.72751 0.0
C1003 C 0.53437 0.37219 0.7179 0.0
C1004 C 0.6092 0.46755 0.71207 0.0
C1005 C 0.58511 0.4577 0.7229 0.0
C1006 C 0.54829 0.41073 0.72575 0.0
C1007 C 0.55771 0.38163 0.70702 0.0
C1008 C 0.59471 0.4287 0.70415 0.0
C1009 C 0.4946 0.32321 0.7212 0.0
O1010 O 0.49213 0.22051 0.70434 0.0
O1011 O 0.44704 0.13808 0.70641 0.0
O1012 O 0.41979 0.17185 0.68746 0.0
O1013 O 0.43234 0.24522 0.69411 0.0
O1014 O 0.34466 0.0542 0.70419 0.0
O1015 O 0.32787 0.08203 0.68878 0.0
O1016 O 0.33591 0.16893 0.69952 0.0
O1017 O 0.36828 0.22128 0.71497 0.0
O1018 O 0.42441 0.18185 0.72655 0.0
O1019 O 0.3508 0.13162 0.71884 0.0
C1020 C 0.48956 0.17835 0.70525 0.0
O1021 O 0.45329 0.30787 0.71596 0.0
O1022 O 0.50482 0.28861 0.72228 0.0
C1023 C 0.42807 0.2157 0.68548 0.0
C1024 C 0.26346 1.01124 0.69719 0.0
C1025 C 0.1623 0.95022 0.70065 0.0
C1026 C 0.18311 0.95518 0.68952 0.0
C1027 C 0.23308 0.98524 0.68783 0.0
C1028 C 0.24278 1.00677 0.7083 0.0
C1029 C 0.19288 0.97646 0.71002 0.0
C1030 C 0.31609 0.04384 0.69516 0.0
C1031 C 0.33504 0.20046 0.70684 0.0
H1032 H 0.59544 0.48609 0.72933 0.0
H1033 H 0.53071 0.40445 0.73418 0.0
H1034 H 0.54733 0.35265 0.70075 0.0
H1035 H 0.6118 0.43466 0.69567 0.0
H1036 H 0.16088 0.93518 0.68214 0.0
H1037 H 0.24804 0.98822 0.67917 0.0
H1038 H 0.26509 0.02682 0.71568 0.0
H1039 H 0.17816 0.97407 0.71867 0.0
Tb1040 Tb 0.90943 0.26008 0.71281 0.0
Tb1041 Tb 1.0189 0.30198 0.70171 0.0
C1042 C 1.00403 0.29324 0.72759 0.0
C1043 C 0.77528 0.21758 0.71768 0.0
C1044 C 0.67997 0.19726 0.71186 0.0
C1045 C 0.68977 0.183 0.72268 0.0
C1046 C 0.73672 0.19305 0.72554 0.0
C1047 C 0.76589 0.2315 0.7068 0.0
C1048 C 0.71884 0.22154 0.70393 0.0
C1049 C 0.82423 0.22671 0.72099 0.0
O1050 O 0.92737 0.32715 0.70424 0.0
O1051 O 1.00976 0.36456 0.70651 0.0
O1052 O 0.97628 0.30367 0.68749 0.0
O1053 O 0.90292 0.2425 0.69403 0.0
O1054 O 0.0938 0.34668 0.70422 0.0
O1055 O 0.06596 0.30183 0.68884 0.0
O1056 O 0.97926 0.22276 0.69967 0.0
O1057 O 0.92674 0.20291 0.71507 0.0
O1058 O 0.96548 0.29817 0.72653 0.0
O1059 O 1.01667 0.27562 0.71896 0.0
C1060 C 0.96953 0.36673 0.70522 0.0
O1061 O 0.85887 0.2715 0.72216 0.0
O1062 O 0.83961 0.20087 0.7157 0.0
C1063 C 0.93257 0.2679 0.68544 0.0
C1064 C 0.13704 0.30892 0.69719 0.0
C1065 C 0.19836 0.26926 0.70059 0.0
C1066 C 0.19381 0.28571 0.68951 0.0
C1067 C 0.16359 0.3054 0.68784 0.0
C1068 C 0.14112 0.29211 0.70825 0.0
C1069 C 0.17159 0.27276 0.70994 0.0
C1070 C 0.1042 0.32857 0.69518 0.0
C1071 C 0.9477 0.19043 0.707 0.0
H1072 H 0.66138 0.16502 0.72911 0.0
H1073 H 0.74296 0.18174 0.73397 0.0
H1074 H 0.79488 0.25003 0.70053 0.0
H1075 H 0.71292 0.23268 0.69546 0.0
H1076 H 0.21423 0.2841 0.68214 0.0
H1077 H 0.1609 0.31784 0.67923 0.0
H1078 H 0.1206 0.2937 0.71561 0.0
H1079 H 0.17369 0.25994 0.71855 0.0
Tb1080 Tb 0.38772 0.21061 0.11031 0.0
Tb1081 Tb 0.45417 0.16744 0.12133 0.0
C1082 C 0.44864 0.17651 0.09552 0.0
C1083 C 0.29543 0.25261 0.10615 0.0
C1084 C 0.21836 0.27079 0.11142 0.0
C1085 C 0.20971 0.22316 0.10993 0.0
C1086 C 0.24759 0.21421 0.10733 0.0
C1087 C 0.30421 0.30013 0.10766 0.0
C1088 C 0.26636 0.30911 0.11027 0.0
C1089 C 0.33586 0.24444 0.10252 0.0
O1090 O 0.33776 0.14336 0.11872 0.0
O1091 O 0.38198 0.10524 0.11646 0.0
O1092 O 0.40997 0.16585 0.13558 0.0
O1093 O 0.39888 0.22771 0.1291 0.0
O1094 O 0.48379 0.12228 0.11881 0.0
O1095 O 0.50096 0.16697 0.13423 0.0
O1096 O 0.49438 0.24671 0.12344 0.0
O1097 O 0.46236 0.26721 0.10802 0.0
O1098 O 0.40547 0.17245 0.09659 0.0
O1099 O 0.47892 0.19455 0.10413 0.0
C1100 C 0.33969 0.10348 0.11765 0.0
O1101 O 0.37732 0.27015 0.10776 0.0
O1102 O 0.32659 0.2002 0.10076 0.0
C1103 C 0.40259 0.20191 0.13767 0.0
C1104 C 0.56499 0.15971 0.12588 0.0
C1105 C 0.66613 0.19967 0.12244 0.0
C1106 C 0.64632 0.19087 0.13377 0.0
C1107 C 0.59638 0.17109 0.13546 0.0
C1108 C 0.58468 0.16851 0.11456 0.0
C1109 C 0.63454 0.18821 0.11286 0.0
C1110 C 0.51238 0.14026 0.12785 0.0
C1111 C 0.49564 0.27929 0.11612 0.0
H1112 H 0.17333 0.19253 0.11049 0.0
H1113 H 0.23916 0.17716 0.10609 0.0
H1114 H 0.34053 0.33063 0.10668 0.0
H1115 H 0.27487 0.3462 0.11145 0.0
H1116 H 0.66931 0.19856 0.14136 0.0
H1117 H 0.58223 0.16474 0.14428 0.0
H1118 H 0.56164 0.16041 0.10698 0.0
H1119 H 0.64837 0.19496 0.10401 0.0
Tb1120 Tb 0.9419 0.23146 0.11061 0.0
Tb1121 Tb 0.98357 0.34152 0.12136 0.0
C1122 C 0.97448 0.32477 0.09551 0.0
C1123 C 0.89892 0.09719 0.10579 0.0
C1124 C 0.87782 1.00172 0.11152 0.0
C1125 C 0.86444 1.01195 0.10063 0.0
C1126 C 0.87487 0.05899 0.09782 0.0
C1127 C 0.91195 0.08738 0.11674 0.0
C1128 C 0.90158 0.04021 0.11956 0.0
C1129 C 0.90848 0.14622 0.10251 0.0
O1130 O 1.00922 0.25019 0.1192 0.0
O1131 O 0.0463 0.33241 0.11665 0.0
O1132 O 0.98511 0.29947 0.13576 0.0
O1133 O 0.92428 0.22559 0.12935 0.0
O1134 O 1.02639 0.41646 0.11827 0.0
O1135 O 0.98545 0.3893 0.13423 0.0
O1136 O 0.90436 0.30212 0.12342 0.0
O1137 O 0.88468 0.24859 0.10824 0.0
O1138 O 0.97965 0.28649 0.09674 0.0
O1139 O 0.95712 0.33814 0.10406 0.0
C1140 C 0.04869 0.29237 0.11807 0.0
O1141 O 0.88262 0.16172 0.10774 0.0
O1142 O 0.95342 0.18063 0.10144 0.0
C1143 C 0.94948 0.25575 0.13788 0.0
C1144 C 0.98956 0.45932 0.12587 0.0
C1145 C 0.95126 0.52164 0.12217 0.0
C1146 C 0.9203 0.4717 0.12395 0.0
C1147 C 0.9392 0.44085 0.12571 0.0
C1148 C 1.0205 0.50907 0.12414 0.0
C1149 C 1.00163 0.53986 0.12229 0.0
C1150 C 1.01017 0.42717 0.12761 0.0
C1151 C 0.87205 0.26984 0.11621 0.0
H1152 H 0.84688 0.98382 0.09412 0.0
H1153 H 0.86427 0.06561 0.08934 0.0
H1154 H 0.93009 0.11613 0.12308 0.0
H1155 H 0.91205 0.03391 0.12808 0.0
H1156 H 0.88138 0.4563 0.12378 0.0
H1157 H 0.9144 0.40249 0.12689 0.0
H1158 H 0.0594 0.52416 0.1242 0.0
H1159 H 1.0266 0.57815 0.12108 0.0
Tb1160 Tb 0.91883 0.76528 0.10979 0.0
Tb1161 Tb 0.80972 0.69722 0.121 0.0
C1162 C 0.82362 0.70356 0.09513 0.0
C1163 C 0.05301 0.85746 0.10493 0.0
C1164 C 0.14842 0.93256 0.11077 0.0
C1165 C 0.13892 0.90735 0.10011 0.0
C1166 C 0.09195 0.87042 0.09725 0.0
C1167 C 0.0621 0.8819 0.11565 0.0
C1168 C 0.10918 0.919 0.11853 0.0
C1169 C 1.00396 0.81771 0.10158 0.0
O1170 O 0.90095 0.8141 0.11852 0.0
O1171 O 0.81855 0.76897 0.11636 0.0
O1172 O 0.85247 0.74171 0.13518 0.0
O1173 O 0.92578 0.75414 0.12856 0.0
O1174 O 0.73475 0.66668 0.11858 0.0
O1175 O 0.76312 0.6502 0.13395 0.0
O1176 O 0.84934 0.65755 0.12289 0.0
O1177 O 0.90221 0.69099 0.10757 0.0
O1178 O 0.86221 0.74714 0.09614 0.0
O1179 O 0.81185 0.6733 0.10372 0.0
C1180 C 0.85874 0.81143 0.11764 0.0
O1181 O 0.98867 0.77618 0.1067 0.0
O1182 O 0.96923 0.82781 0.10058 0.0
C1183 C 0.89622 0.7498 0.13719 0.0
C1184 C 0.69223 0.58583 0.12568 0.0
C1185 C 0.6319 0.48471 0.12235 0.0
C1186 C 0.63525 0.50594 0.13335 0.0
C1187 C 0.665 0.55594 0.13498 0.0
C1188 C 0.68939 0.56473 0.11471 0.0
C1189 C 0.6594 0.51482 0.11305 0.0
C1190 C 0.7247 0.63838 0.12765 0.0
C1191 C 0.88132 0.65734 0.1156 0.0
H1192 H 0.16758 0.91688 0.0938 0.0
H1193 H 0.08598 0.85203 0.08894 0.0
H1194 H 1.03285 0.87232 0.12179 0.0
H1195 H 0.11481 0.9369 0.12689 0.0
H1196 H 0.61424 0.48401 0.14067 0.0
H1197 H 0.66682 0.57129 0.14353 0.0
H1198 H 0.71052 0.58674 0.1074 0.0
H1199 H 0.65821 0.4997 0.10451 0.0
Tb1200 Tb 0.98009 0.69561 0.6213 0.0
Tb1201 Tb 0.93863 0.76372 0.6104 0.0
C1202 C 0.94589 0.74728 0.63771 0.0
C1203 C 0.98694 0.58448 0.6258 0.0
C1204 C 0.94682 0.48348 0.62244 0.0
C1205 C 0.96355 0.50455 0.63351 0.0
C1206 C 0.98347 0.55448 0.63515 0.0
C1207 C 0.96987 0.56354 0.61475 0.0
C1208 C 0.95028 0.51368 0.61309 0.0
C1209 C 1.00666 0.63696 0.62781 0.0
O1210 O 0.90069 0.65559 0.62315 0.0
O1211 O 0.88134 0.68949 0.60794 0.0
O1212 O 0.9766 0.74615 0.59657 0.0
O1213 O 0.95427 0.67214 0.60397 0.0
O1214 O 0.87944 0.77448 0.6076 0.0
O1215 O 0.95029 0.82609 0.60124 0.0
O1216 O 1.00559 0.81234 0.6191 0.0
O1217 O 0.04285 0.76744 0.61661 0.0
O1218 O 0.98168 0.73946 0.63562 0.0
O1219 O 0.92055 0.7517 0.62914 0.0
C1220 C 0.86852 0.65558 0.61589 0.0
O1221 O 1.02474 0.66544 0.61876 0.0
O1222 O 0.97991 0.64841 0.63415 0.0
C1223 C 0.97178 0.70275 0.59541 0.0
C1224 C 0.89689 0.8564 0.60639 0.0
C1225 C 0.87745 0.93261 0.61165 0.0
C1226 C 0.92534 0.94179 0.61031 0.0
C1227 C 0.93491 0.90434 0.60771 0.0
C1228 C 0.8491 0.84709 0.60776 0.0
C1229 C 0.8395 0.88452 0.61037 0.0
C1230 C 0.90577 0.81653 0.60269 0.0
C1231 C 0.04513 0.80979 0.61805 0.0
H1232 H 0.96196 0.48254 0.64087 0.0
H1233 H 0.99611 0.56971 0.64376 0.0
H1234 H 0.9714 0.58562 0.6074 0.0
H1235 H 0.93725 0.49867 0.60448 0.0
H1236 H 0.9557 0.97829 0.61098 0.0
H1237 H 0.97215 0.9132 0.60657 0.0
H1238 H 0.81887 0.8107 0.60666 0.0
H1239 H 0.80222 0.87562 0.61143 0.0
Tb1240 Tb 0.45019 0.34197 0.62144 0.0
Tb1241 Tb 0.38287 0.23192 0.61067 0.0
C1242 C 0.39966 0.25628 0.63794 0.0
C1243 C 0.56176 0.45944 0.62615 0.0
C1244 C 0.66255 0.52117 0.62252 0.0
C1245 C 0.6308 0.53982 0.62274 0.0
C1246 C 0.58102 0.50931 0.62456 0.0
C1247 C 0.59327 0.44056 0.62589 0.0
C1248 C 0.64312 0.47112 0.62417 0.0
C1249 C 0.50891 0.42749 0.62783 0.0
O1250 O 0.49069 0.3032 0.62337 0.0
O1251 O 0.4575 0.25005 0.6081 0.0
O1252 O 0.39942 0.28667 0.59676 0.0
O1253 O 0.47335 0.3396 0.60407 0.0
O1254 O 0.37245 0.16197 0.60813 0.0
O1255 O 0.32105 0.18078 0.6014 0.0
O1256 O 0.33372 0.24988 0.61926 0.0
O1257 O 0.37797 0.33215 0.6168 0.0
O1258 O 0.40683 0.29964 0.63583 0.0
O1259 O 0.39536 0.22651 0.62939 0.0
C1260 C 0.4914 0.27156 0.61606 0.0
O1261 O 0.48221 0.41697 0.61846 0.0
O1262 O 0.49551 0.38952 0.63442 0.0
C1263 C 0.44248 0.32562 0.59554 0.0
C1264 C 0.29062 0.09727 0.60671 0.0
C1265 C 0.21413 1.00166 0.61188 0.0
C1266 C 0.20504 0.04035 0.61043 0.0
C1267 C 0.24264 0.08737 0.60789 0.0
C1268 C 0.29986 0.05882 0.60819 0.0
C1269 C 0.26227 1.01179 0.61075 0.0
C1270 C 0.33066 0.14598 0.60305 0.0
C1271 C 0.33574 0.29172 0.61814 0.0
H1272 H 0.6445 0.57821 0.62163 0.0
H1273 H 0.5575 0.5247 0.62469 0.0
H1274 H 0.57934 0.4021 0.62696 0.0
H1275 H 0.66634 0.45541 0.62391 0.0
H1276 H 0.16851 0.0342 0.61099 0.0
H1277 H 0.23386 0.11575 0.60666 0.0
H1278 H 0.33629 0.065 0.60721 0.0
H1279 H 0.27109 0.98342 0.6119 0.0
Tb1280 Tb 0.80534 0.16649 0.62147 0.0
Tb1281 Tb 0.91489 0.20783 0.61044 0.0
C1282 C 0.89143 0.2 0.63782 0.0
C1283 C 0.68776 0.16106 0.62575 0.0
C1284 C 0.62754 0.20201 0.62226 0.0
C1285 C 0.63275 0.18664 0.63342 0.0
C1286 C 0.6624 0.16632 0.63513 0.0
C1287 C 0.68304 0.1768 0.61461 0.0
C1288 C 0.65313 0.19679 0.61288 0.0
C1289 C 0.72 0.14068 0.62781 0.0
O1290 O 0.84541 0.24564 0.62359 0.0
O1291 O 0.89819 0.26543 0.60824 0.0
O1292 O 0.85884 0.16993 0.59671 0.0
O1293 O 0.80852 0.19351 0.60426 0.0
O1294 O 0.98473 0.26689 0.60748 0.0
O1295 O 0.96543 0.196 0.60121 0.0
O1296 O 0.89654 0.14076 0.61906 0.0
O1297 O 0.81419 0.10363 0.61672 0.0
O1298 O 0.84754 0.16455 0.63576 0.0
O1299 O 0.9213 0.22522 0.62924 0.0
C1300 C 0.87722 0.27795 0.6163 0.0
O1301 O 0.73044 0.12252 0.61878 0.0
O1302 O 0.75807 0.16678 0.63426 0.0
C1303 C 0.82061 0.17539 0.59564 0.0
C1304 C 0.04909 0.25018 0.6056 0.0
C1305 C 0.14456 0.27101 0.61142 0.0
C1306 C 0.13469 0.28532 0.60061 0.0
C1307 C 0.08767 0.27502 0.59776 0.0
C1308 C 0.05854 0.23618 0.61646 0.0
C1309 C 0.10567 0.2464 0.61933 0.0
C1310 C 1.00007 0.24084 0.60228 0.0
C1311 C 0.85431 0.10129 0.61806 0.0
H1312 H 0.61324 0.18955 0.64083 0.0
H1313 H 0.66558 0.15473 0.64381 0.0
H1314 H 0.70261 0.17387 0.60721 0.0
H1315 H 0.65051 0.20871 0.60419 0.0
H1316 H 0.16309 0.30356 0.5942 0.0
H1317 H 0.08138 0.2864 0.58934 0.0
H1318 H 1.02954 0.21741 0.62271 0.0
H1319 H 0.11165 0.2352 0.62779 0.0
Tb1320 Tb 0.37646 0.30307 0.20159 0.0
Tb1321 Tb 0.44428 0.26158 0.21272 0.0
C1322 C 0.42916 0.26944 0.18532 0.0
C1323 C 0.26486 0.30939 0.19723 0.0
C1324 C 0.16382 0.26931 0.20075 0.0
C1325 C 0.1844 0.28449 0.18958 0.0
C1326 C 0.23433 0.30439 0.18786 0.0
C1327 C 0.2444 0.29385 0.20838 0.0
C1328 C 0.19454 0.27429 0.21013 0.0
C1329 C 0.31742 0.32931 0.19516 0.0
O1330 O 0.33718 0.22393 0.19946 0.0
O1331 O 0.36981 0.20407 0.21487 0.0
O1332 O 0.42608 0.29962 0.22642 0.0
O1333 O 0.3523 0.27621 0.2188 0.0
O1334 O 0.50645 0.2733 0.22204 0.0
O1335 O 0.45489 0.20248 0.21571 0.0
O1336 O 0.49332 0.32857 0.20411 0.0
O1337 O 0.44822 0.36582 0.20635 0.0
O1338 O 0.4208 0.30493 0.18735 0.0
O1339 O 0.43355 0.24416 0.19392 0.0
C1340 C 0.33647 0.19158 0.20677 0.0
O1341 O 0.3461 0.34753 0.20418 0.0
O1342 O 0.329 0.30278 0.18877 0.0
C1343 C 0.38243 0.29433 0.22744 0.0
C1344 C 0.53598 0.21922 0.21766 0.0
C1345 C 0.61076 0.19854 0.21187 0.0
C1346 C 0.58684 0.18468 0.22273 0.0
C1347 C 0.55006 0.1949 0.22556 0.0
C1348 C 0.55916 0.23276 0.20675 0.0
C1349 C 0.59613 0.22262 0.2039 0.0
C1350 C 0.49623 0.22848 0.22095 0.0
C1351 C 0.49064 0.36808 0.20504 0.0
H1352 H 0.16201 0.28174 0.18218 0.0
H1353 H 0.24913 0.31585 0.17917 0.0
H1354 H 0.26684 0.2966 0.21577 0.0
H1355 H 0.17996 0.26248 0.21882 0.0
H1356 H 0.59728 0.16686 0.22919 0.0
H1357 H 0.53262 0.18388 0.23401 0.0
H1358 H 0.54866 0.25112 0.20045 0.0
H1359 H 0.61307 0.23345 0.1954 0.0
Tb1360 Tb 0.84666 0.12931 0.20184 0.0
Tb1361 Tb 0.88877 0.23922 0.21279 0.0
C1362 C 0.88102 0.21548 0.18547 0.0
C1363 C 0.84127 1.01193 0.19696 0.0
C1364 C 0.88012 0.94983 0.20033 0.0
C1365 C 0.82971 0.93148 0.20041 0.0
C1366 C 0.81058 0.96215 0.19872 0.0
C1367 C 0.89166 0.03052 0.19691 0.0
C1368 C 0.91083 0.99978 0.19851 0.0
C1369 C 0.82036 0.04395 0.19538 0.0
O1370 O 0.92586 0.16875 0.19977 0.0
O1371 O 0.94591 0.22179 0.21507 0.0
O1372 O 0.85069 0.1837 0.22659 0.0
O1373 O 0.87303 0.13217 0.21913 0.0
O1374 O 0.94812 0.30898 0.21566 0.0
O1375 O 0.87742 0.29013 0.22199 0.0
O1376 O 0.8215 0.22092 0.20423 0.0
O1377 O 0.78392 0.13855 0.20652 0.0
O1378 O 0.84518 0.17185 0.18755 0.0
O1379 O 0.90637 0.24534 0.19403 0.0
C1380 C 0.95827 0.20052 0.20705 0.0
O1381 O 0.80415 0.05422 0.20479 0.0
O1382 O 0.84479 0.08206 0.18882 0.0
C1383 C 0.85546 0.14511 0.22771 0.0
C1384 C 0.93174 0.37358 0.21749 0.0
C1385 C 0.95253 0.46893 0.21158 0.0
C1386 C 0.96666 0.45917 0.22243 0.0
C1387 C 0.95639 0.41221 0.22532 0.0
C1388 C 0.91794 0.38292 0.20659 0.0
C1389 C 0.92815 0.42999 0.20368 0.0
C1390 C 0.92231 0.3246 0.22086 0.0
C1391 C 0.78183 0.17884 0.20526 0.0
H1392 H 0.80491 0.89319 0.20165 0.0
H1393 H 0.77167 0.94694 0.19882 0.0
H1394 H 0.9163 0.06889 0.1957 0.0
H1395 H 0.94977 1.0153 0.19852 0.0
H1396 H 0.98473 0.48761 0.22885 0.0
H1397 H 0.9676 0.40601 0.23377 0.0
H1398 H 0.89932 0.35388 0.20034 0.0
H1399 H 0.9171 0.43586 0.19518 0.0
Tb1400 Tb 1.02203 0.77397 0.20129 0.0
Tb1401 Tb 0.91254 0.70637 0.21217 0.0
C1402 C 0.93642 0.72237 0.18484 0.0
C1403 C 0.14019 0.88502 0.19691 0.0
C1404 C 0.2009 0.98601 0.20039 0.0
C1405 C 0.19685 0.96516 0.18931 0.0
C1406 C 0.16691 0.91524 0.18761 0.0
C1407 C 0.1438 0.90574 0.20798 0.0
C1408 C 0.17399 0.95559 0.20971 0.0
C1409 C 0.10744 0.83257 0.19485 0.0
O1410 O 0.98287 0.81423 0.19937 0.0
O1411 O 0.92964 0.78063 0.2146 0.0
O1412 O 0.96802 0.72397 0.22602 0.0
O1413 O 1.01972 0.79782 0.21857 0.0
O1414 O 0.84253 0.69567 0.21485 0.0
O1415 O 0.86181 0.64452 0.2215 0.0
O1416 O 0.93045 0.65724 0.2036 0.0
O1417 O 1.01267 0.70201 0.20603 0.0
O1418 O 0.97994 0.73002 0.18696 0.0
O1419 O 0.90667 0.71817 0.19341 0.0
C1420 C 0.95078 0.81446 0.20663 0.0
O1421 O 0.09685 0.80395 0.20387 0.0
O1422 O 0.06934 0.82119 0.18846 0.0
C1423 C 1.00662 0.76739 0.22716 0.0
C1424 C 0.77808 0.61381 0.21629 0.0
C1425 C 0.68245 0.53722 0.21116 0.0
C1426 C 0.72122 0.52822 0.2126 0.0
C1427 C 0.76825 0.56587 0.21513 0.0
C1428 C 0.73954 0.62295 0.21483 0.0
C1429 C 0.69251 0.58532 0.21228 0.0
C1430 C 0.82682 0.65394 0.21992 0.0
C1431 C 0.97243 0.65959 0.2047 0.0
H1432 H 0.2174 0.98734 0.18197 0.0
H1433 H 0.16453 0.90019 0.17899 0.0
H1434 H 0.1231 0.88351 0.2153 0.0
H1435 H 0.17574 0.97042 0.21832 0.0
H1436 H 0.71514 0.49173 0.21205 0.0
H1437 H 0.7967 0.55718 0.21635 0.0
H1438 H 0.74566 0.65935 0.21581 0.0
H1439 H 0.66407 0.59406 0.21114 0.0
C1440 C 0.42466 0.11224 0.08004 0.0
C1441 C 0.46076 0.15103 0.0864 0.0
H1442 H 0.40798 0.05495 0.06788 0.0
C1443 C 0.50912 0.16127 0.08526 0.0
H1444 H 0.38711 0.10278 0.08085 0.0
C1445 C 0.52101 0.13306 0.07813 0.0
C1446 C 0.48491 0.09422 0.0718 0.0
H1447 H 0.53801 0.19113 0.09 0.0
H1448 H 0.55859 0.14262 0.0773 0.0
C1449 C 0.43664 0.08428 0.07281 0.0
C1450 C 0.04189 0.38121 0.08208 0.0
C1451 C 0.99292 0.35828 0.08548 0.0
H1452 H 0.09854 0.43805 0.07178 0.0
C1453 C 0.96385 0.3764 0.08126 0.0
H1454 H 0.06554 0.36902 0.08557 0.0
C1455 C 0.98275 0.41611 0.07379 0.0
C1456 C 1.03157 0.43947 0.07037 0.0
H1457 H 0.9264 0.36037 0.08399 0.0
H1458 H 0.95879 0.42837 0.07055 0.0
C1459 C 0.06115 0.42163 0.07455 0.0
C1460 C 0.72333 0.61942 0.07503 0.0
C1461 C 0.70446 0.64795 0.07085 0.0
H1462 H 0.77655 0.6153 0.08548 0.0
C1463 C 0.72776 0.69717 0.07406 0.0
H1464 H 0.70716 0.5818 0.07244 0.0
C1465 C 0.76906 0.71708 0.08137 0.0
C1466 C 0.78761 0.68801 0.08551 0.0
H1467 H 0.71513 0.7205 0.07062 0.0
H1468 H 0.7856 0.75462 0.08402 0.0
C1469 C 0.76391 0.63898 0.08226 0.0
C1470 C 0.09947 0.44259 0.41491 0.0
C1471 C 0.12845 0.4903 0.419 0.0
H1472 H 0.09602 0.38548 0.40408 0.0
C1473 C 0.17723 0.51622 0.41557 0.0
H1474 H 0.06215 0.42121 0.41772 0.0
C1475 C 0.19664 0.49561 0.40817 0.0
C1476 C 0.1682 0.44808 0.40406 0.0
H1477 H 0.20078 0.55264 0.41877 0.0
H1478 H 0.23405 0.5174 0.40543 0.0
C1479 C 0.11925 0.42159 0.40747 0.0
C1480 C 0.63454 0.71879 0.41607 0.0
C1481 C 0.65998 0.69509 0.4192 0.0
H1482 H 0.63359 0.77502 0.40616 0.0
C1483 C 0.70712 0.71295 0.4148 0.0
H1484 H 0.59857 0.70659 0.41949 0.0
C1485 C 0.72799 0.75367 0.40735 0.0
C1486 C 0.70197 0.77694 0.40425 0.0
H1487 H 0.72815 0.69634 0.41735 0.0
H1488 H 0.76358 0.76585 0.4037 0.0
C1489 C 0.65503 0.75877 0.40866 0.0
C1490 C 0.39234 0.02782 0.40804 0.0
C1491 C 0.37276 0.97981 0.4041 0.0
H1492 H 0.44683 0.08501 0.4187 0.0
C1493 C 0.39492 0.95338 0.40763 0.0
H1494 H 0.37697 0.04956 0.40514 0.0
C1495 C 0.43511 0.97381 0.41498 0.0
C1496 C 0.45505 1.02165 0.41893 0.0
H1497 H 0.38142 0.91673 0.40454 0.0
H1498 H 0.4502 0.95168 0.41779 0.0
C1499 C 0.43327 0.04862 0.41543 0.0
C1500 C 0.70727 0.0475 0.91587 0.0
C1501 C 0.6585 1.02026 0.91938 0.0
H1502 H 0.76453 0.04912 0.90545 0.0
C1503 C 0.63058 0.97265 0.91527 0.0
H1504 H 0.73009 0.08375 0.91923 0.0
C1505 C 0.65033 0.95271 0.90777 0.0
C1506 C 0.69895 0.9794 0.90424 0.0
H1507 H 0.5933 0.95036 0.91805 0.0
H1508 H 0.62714 0.91627 0.90454 0.0
C1509 C 0.7274 0.02717 0.90834 0.0
C1510 C 0.19289 0.75134 0.90691 0.0
C1511 C 0.1669 0.77426 0.90361 0.0
H1512 H 0.19426 0.69545 0.91687 0.0
C1513 C 0.11927 0.75542 0.90777 0.0
H1514 H 0.22922 0.76424 0.90364 0.0
C1515 C 0.09845 0.71449 0.91516 0.0
C1516 C 0.125 0.69197 0.91843 0.0
H1517 H 0.09782 0.77137 0.90506 0.0
H1518 H 0.0624 0.70149 0.91861 0.0
C1519 C 0.17244 0.71115 0.91425 0.0
C1520 C 0.43039 0.43841 0.9158 0.0
C1521 C 0.45546 0.48802 0.91865 0.0
H1522 H 0.37173 0.38137 0.90599 0.0
C1523 C 0.43921 0.5179 0.91394 0.0
H1524 H 0.44104 0.41423 0.9197 0.0
C1525 C 0.39932 0.49915 0.9065 0.0
C1526 C 0.37382 0.4497 0.90363 0.0
H1527 H 0.45681 0.55588 0.91627 0.0
H1528 H 0.38855 0.52371 0.90288 0.0
C1529 C 0.38979 0.41934 0.90832 0.0
C1530 C 0.96276 0.63995 0.58145 0.0
C1531 C 0.99095 0.68762 0.5855 0.0
H1532 H 0.95902 0.58289 0.57095 0.0
C1533 C 0.03988 0.7143 0.58208 0.0
H1534 H 0.92538 0.61802 0.58419 0.0
C1535 C 0.05988 0.69338 0.57469 0.0
C1536 C 1.03116 0.64553 0.57066 0.0
H1537 H 0.06293 0.75052 0.58543 0.0
H1538 H 0.09716 0.71491 0.57187 0.0
C1539 C 0.9824 0.61941 0.57411 0.0
C1540 C 0.5241 0.41566 0.57335 0.0
C1541 C 0.49946 0.44036 0.57038 0.0
H1542 H 0.52425 0.35893 0.58323 0.0
C1543 C 0.45287 0.42372 0.57501 0.0
H1544 H 0.55964 0.42696 0.56977 0.0
C1545 C 0.43176 0.38324 0.58253 0.0
C1546 C 0.45698 0.35897 0.58547 0.0
H1547 H 0.43245 0.44115 0.5726 0.0
H1548 H 0.39667 0.37204 0.58636 0.0
C1549 C 0.50337 0.37591 0.58083 0.0
C1550 C 0.76109 0.18063 0.58283 0.0
C1551 C 0.78514 0.1555 0.58594 0.0
H1552 H 0.70456 0.18111 0.57292 0.0
C1553 C 0.76757 0.10844 0.58154 0.0
H1554 H 0.77307 0.21654 0.58625 0.0
C1555 C 0.72682 0.08733 0.57409 0.0
C1556 C 0.70319 0.11303 0.571 0.0
H1557 H 0.78446 0.08766 0.58407 0.0
H1558 H 0.71488 0.05181 0.57043 0.0
C1559 C 0.72106 0.15989 0.57543 0.0
C1560 C 0.78613 0.75421 0.74115 0.0
C1561 C 0.83475 0.78157 0.73755 0.0
H1562 H 0.72889 0.75274 0.75155 0.0
C1563 C 0.8624 0.82955 0.74144 0.0
H1564 H 0.76349 0.71768 0.73794 0.0
C1565 C 0.84253 0.84973 0.74883 0.0
C1566 C 0.79406 0.82292 0.75245 0.0
H1567 H 0.89953 0.85195 0.73856 0.0
H1568 H 0.86551 0.88648 0.75188 0.0
C1569 C 0.76588 0.77477 0.74857 0.0
C1570 C 0.3748 0.04941 0.74898 0.0
C1571 C 0.32529 0.02535 0.75194 0.0
H1572 H 0.43236 0.1076 0.73917 0.0
C1573 C 0.29619 0.04297 0.74745 0.0
H1574 H 0.39844 0.03767 0.75269 0.0
C1575 C 0.31557 0.08319 0.74012 0.0
C1576 C 0.36493 0.10768 0.73714 0.0
H1577 H 0.25832 0.02613 0.74986 0.0
H1578 H 0.29156 0.09497 0.73664 0.0
C1579 C 0.39453 0.09036 0.7416 0.0
C1580 C 0.05935 0.36111 0.74116 0.0
C1581 C 0.03902 0.31282 0.73737 0.0
H1582 H 0.11459 0.4184 0.75167 0.0
C1583 C 0.06053 0.28594 0.74101 0.0
H1584 H 0.04451 0.38319 0.73817 0.0
C1585 C 0.10084 0.30621 0.74833 0.0
C1586 C 0.12155 0.35433 0.75214 0.0
H1587 H 0.04649 0.24908 0.73801 0.0
H1588 H 0.11547 0.28376 0.7512 0.0
C1589 C 0.1004 0.38175 0.74852 0.0
C1590 C 0.37657 0.38255 0.24892 0.0
C1591 C 0.32717 0.35688 0.25197 0.0
H1592 H 0.43402 0.38216 0.239 0.0
C1593 C 0.29818 0.30998 0.24755 0.0
H1594 H 0.40015 0.4181 0.25257 0.0
C1595 C 0.31754 0.2892 0.24019 0.0
C1596 C 0.36679 0.31429 0.23711 0.0
H1597 H 0.26039 0.28879 0.25002 0.0
H1598 H 0.2936 0.25328 0.23677 0.0
C1599 C 0.39629 0.36139 0.24151 0.0
C1600 C 0.84481 0.05125 0.24904 0.0
C1601 C 0.79597 0.02843 0.25242 0.0
H1602 H 0.9019 0.10703 0.239 0.0
C1603 C 0.76718 0.04737 0.24835 0.0
H1604 H 0.86822 0.03823 0.25223 0.0
C1605 C 0.7872 0.0883 0.24096 0.0
C1606 C 0.8362 0.11071 0.2376 0.0
H1607 H 0.72983 0.03147 0.25112 0.0
H1608 H 0.76412 0.10134 0.23757 0.0
C1609 C 0.86446 0.09143 0.24169 0.0
C1610 C 0.06083 0.75434 0.24099 0.0
C1611 C 0.04106 0.78258 0.23706 0.0
H1612 H 0.11511 0.75175 0.25176 0.0
C1613 C 0.06262 0.83098 0.24073 0.0
H1614 H 0.04595 0.7174 0.23799 0.0
C1615 C 0.1024 0.85071 0.24821 0.0
C1616 C 0.12256 0.823 0.25216 0.0
H1617 H 0.049 0.85401 0.23763 0.0
H1618 H 0.11705 0.88778 0.25111 0.0
C1619 C 0.10137 0.77445 0.24851 0.0
C1620 C 0.5441 0.08024 -0.00174 0.0
C1621 C 0.56756 0.06995 0.00731 0.0
H1622 H 0.54088 0.09246 0.98 0.0
C1623 C 0.60786 0.06528 0.00458 0.0
H1624 H 0.51295 0.08426 2e-05 0.0
C1625 C 0.62413 0.0705 0.99305 0.0
C1626 C 0.60032 0.0803 0.984 0.0
H1627 H 0.62704 0.05786 0.01133 0.0
H1628 H 0.65503 0.06611 0.99125 0.0
C1629 C 0.56028 0.08533 0.98675 0.0
C1630 C 0.07003 0.53029 0.98524 0.0
C1631 C 0.06913 0.57277 0.98266 0.0
H1632 H 0.07799 0.48734 -0.00161 0.0
C1633 C 0.07623 0.60538 0.99176 0.0
H1634 H 0.06532 0.50476 0.97843 0.0
C1635 C 0.08419 0.59581 0.00318 0.0
C1636 C 0.08501 0.55332 0.00577 0.0
H1637 H 0.07609 0.6387 0.99008 0.0
H1638 H 0.08889 0.62139 0.00998 0.0
C1639 C 0.07789 0.52066 -0.00332 0.0
C1640 C 0.61801 0.61139 -0.00249 0.0
C1641 C 0.58574 0.58438 0.00655 0.0
H1642 H 0.63515 0.6159 0.97933 0.0
C1643 C 0.54507 0.53957 0.00389 0.0
H1644 H 0.64994 0.64603 -0.00074 0.0
C1645 C 0.53698 0.52208 0.99244 0.0
C1646 C 0.56935 0.54906 0.98341 0.0
H1647 H 0.51993 0.51759 0.01065 0.0
H1648 H 0.50505 0.48746 0.99068 0.0
C1649 C 0.60995 0.59389 0.98608 0.0
C1650 C 0.08447 0.54004 0.50375 0.0
C1651 C 0.08877 0.58484 0.50646 0.0
H1652 H 0.07273 0.4883 0.49048 0.0
C1653 C 0.08407 0.61223 0.49743 0.0
H1654 H 0.08717 0.51775 0.5105 0.0
C1655 C 0.07512 0.59513 0.48596 0.0
C1656 C 0.0708 0.55031 0.48325 0.0
H1657 H 0.08689 0.64687 0.49922 0.0
H1658 H 0.07242 0.61743 0.47922 0.0
C1659 C 0.07553 0.52293 0.49227 0.0
C1660 C 0.62458 0.6082 0.4924 0.0
C1661 C 0.59786 0.57623 0.48328 0.0
H1662 H 0.62839 0.62481 0.51061 0.0
C1663 C 0.55278 0.53569 0.48582 0.0
H1664 H 0.65939 0.64005 0.49074 0.0
C1665 C 0.53477 0.52739 0.49721 0.0
C1666 C 0.56148 0.55937 0.50633 0.0
H1667 H 0.53097 0.51079 0.479 0.0
H1668 H 0.49996 0.49554 0.49887 0.0
C1669 C 0.60657 0.5999 0.50378 0.0
C1670 C 0.54806 0.06391 0.50378 0.0
C1671 C 0.58794 0.05845 0.50643 0.0
H1672 H 0.50892 0.07727 0.4906 0.0
C1673 C 0.61987 0.06282 0.4974 0.0
H1674 H 0.52323 0.06152 0.51054 0.0
C1675 C 0.61209 0.07249 0.48596 0.0
C1676 C 0.57217 0.0779 0.4833 0.0
H1677 H 0.65124 0.05915 0.49915 0.0
H1678 H 0.63689 0.07485 0.47919 0.0
C1679 C 0.5403 0.0736 0.49234 0.0
C1680 C 0.22073 0.40773 0.3191 0.0
C1681 C 0.26537 0.41142 0.31647 0.0
H1682 H 0.16863 0.39621 0.33225 0.0
C1683 C 0.29207 0.40586 0.32553 0.0
H1684 H 0.19895 0.41112 0.31231 0.0
C1685 C 0.27446 0.39669 0.33696 0.0
C1686 C 0.22979 0.39295 0.33959 0.0
H1687 H 0.32654 0.40818 0.32381 0.0
H1688 H 0.29623 0.39329 0.34374 0.0
C1689 C 0.20311 0.39853 0.33052 0.0
C1690 C 0.75107 0.86081 0.33067 0.0
C1691 C 0.75627 0.893 0.33972 0.0
H1692 H 0.73899 0.84407 0.31245 0.0
C1693 C 0.75221 0.93369 0.33706 0.0
H1694 H 0.75365 0.82883 0.33242 0.0
C1695 C 0.74314 0.942 0.32562 0.0
C1696 C 0.73805 0.90987 0.31656 0.0
H1697 H 0.75528 0.95878 0.34384 0.0
H1698 H 0.74059 0.97399 0.32387 0.0
C1699 C 0.74202 0.86913 0.31922 0.0
C1700 C 0.2066 0.85709 0.32572 0.0
C1701 C 0.23877 0.88434 0.31669 0.0
H1702 H 0.18967 0.8522 0.34393 0.0
C1703 C 0.27919 0.9293 0.31936 0.0
H1704 H 0.17482 0.82235 0.32395 0.0
C1705 C 0.28726 0.94664 0.33082 0.0
C1706 C 0.25516 0.91934 0.33985 0.0
H1707 H 0.30423 0.95151 0.3126 0.0
H1708 H 0.31906 0.98136 0.33258 0.0
C1709 C 0.21467 0.87443 0.33717 0.0
C1710 C 0.74172 0.92882 0.81936 0.0
C1711 C 0.737 0.88377 0.81671 0.0
H1712 H 0.75422 0.98109 0.83255 0.0
C1713 C 0.74172 0.85653 0.82577 0.0
H1714 H 0.73903 0.95101 0.81258 0.0
C1715 C 0.75111 0.87401 0.83721 0.0
C1716 C 0.75584 0.91905 0.83986 0.0
H1717 H 0.7386 0.82173 0.82403 0.0
H1718 H 0.75381 0.85181 0.84399 0.0
C1719 C 0.7511 0.94629 0.8308 0.0
C1720 C 0.27317 0.93299 0.83687 0.0
C1721 C 0.22802 0.89268 0.83948 0.0
H1722 H 0.32572 0.97277 0.82373 0.0
C1723 C 0.20086 0.86073 0.8304 0.0
H1724 H 0.2953 0.95787 0.84366 0.0
C1725 C 0.21853 0.86882 0.81898 0.0
C1726 C 0.2637 0.90911 0.81637 0.0
H1727 H 0.16598 0.82906 0.83211 0.0
H1728 H 0.1964 0.84391 0.81219 0.0
C1729 C 0.29084 0.94109 0.82544 0.0
C1730 C 0.27953 0.40602 0.81903 0.0
C1731 C 0.23948 0.41121 0.81638 0.0
H1732 H 0.31892 0.39302 0.83221 0.0
C1733 C 0.20762 0.40686 0.82543 0.0
H1734 H 0.30432 0.40841 0.81225 0.0
C1735 C 0.21553 0.39737 0.83687 0.0
C1736 C 0.25556 0.39214 0.83952 0.0
H1737 H 0.17615 0.41037 0.82369 0.0
H1738 H 0.19074 0.39498 0.84364 0.0
C1739 C 0.28745 0.39652 0.83047 0.0
C1740 C 0.93972 0.7294 0.67045 0.0
C1741 C 0.89473 0.72481 0.67312 0.0
H1742 H 0.99181 0.74156 0.65725 0.0
C1743 C 0.86737 0.72941 0.66407 0.0
H1744 H 0.96201 0.72679 0.67722 0.0
C1745 C 0.88468 0.73853 0.65262 0.0
C1746 C 0.92967 0.74312 0.64995 0.0
H1747 H 0.8326 0.72639 0.66583 0.0
H1748 H 0.86241 0.74115 0.64585 0.0
C1749 C 0.95703 0.73852 0.659 0.0
C1750 C 0.40969 0.2766 0.65925 0.0
C1751 C 0.4047 0.24461 0.65017 0.0
H1752 H 0.42203 0.29327 0.67747 0.0
C1753 C 0.40967 0.20439 0.65275 0.0
H1754 H 0.40646 0.30824 0.65754 0.0
C1755 C 0.41932 0.19628 0.66416 0.0
C1756 C 0.42405 0.22811 0.67325 0.0
H1757 H 0.40683 0.17949 0.64595 0.0
H1758 H 0.42251 0.16461 0.66585 0.0
C1759 C 0.41929 0.26846 0.67066 0.0
C1760 C 0.87172 0.18904 0.65913 0.0
C1761 C 0.90367 0.21624 0.65006 0.0
H1762 H 0.85508 0.18438 0.67736 0.0
C1763 C 0.94412 0.26125 0.65269 0.0
H1764 H 0.83994 0.15426 0.6574 0.0
C1765 C 0.95236 0.27875 0.66413 0.0
C1766 C 0.9204 0.25156 0.6732 0.0
H1767 H 0.969 0.28341 0.6459 0.0
H1768 H 0.98414 0.31353 0.66586 0.0
C1769 C 0.87997 0.20654 0.67057 0.0
C1770 C 0.42055 0.2082 0.17043 0.0
C1771 C 0.42536 0.25328 0.17308 0.0
H1772 H 0.40813 0.15595 0.15724 0.0
C1773 C 0.42101 0.28069 0.16401 0.0
H1774 H 0.42298 0.18589 0.17722 0.0
C1775 C 0.41181 0.2633 0.15256 0.0
C1776 C 0.40689 0.21817 0.14992 0.0
H1777 H 0.42424 0.31554 0.16574 0.0
H1778 H 0.40934 0.28561 0.14578 0.0
C1779 C 0.41137 0.19081 0.15898 0.0
C1780 C 0.88835 0.20311 0.15278 0.0
C1781 C 0.9331 0.2439 0.15013 0.0
H1782 H 0.83613 0.16296 0.16594 0.0
C1783 C 0.95986 0.27633 0.15916 0.0
H1784 H 0.86651 0.17783 0.14601 0.0
C1785 C 0.94221 0.26821 0.17058 0.0
C1786 C 0.89745 0.22742 0.17323 0.0
H1787 H 0.99441 0.30838 0.15741 0.0
H1788 H 0.96404 0.29348 0.17735 0.0
C1789 C 0.87069 0.19501 0.1642 0.0
C1790 C 0.94853 0.74062 0.15209 0.0
C1791 C 0.90845 0.74576 0.14943 0.0
H1792 H 0.98799 0.72774 0.16529 0.0
C1793 C 0.87666 0.74151 0.1585 0.0
H1794 H 0.97326 0.74295 0.1453 0.0
C1795 C 0.88461 0.73209 0.16994 0.0
C1796 C 0.92463 0.72686 0.17259 0.0
H1797 H 0.84518 0.74501 0.15676 0.0
H1798 H 0.85982 0.72971 0.17672 0.0
C1799 C 0.95651 0.73123 0.16354 0.0
C1800 C 0.59414 0.79197 0.03543 0.0
C1801 C 0.62873 0.83162 0.04193 0.0
H1802 H 0.57018 0.72062 0.02903 0.0
C1803 C 0.66925 0.82972 0.04624 0.0
H1804 H 0.56227 0.79158 0.03204 0.0
C1805 C 0.67393 0.78854 0.04448 0.0
C1806 C 0.63796 0.74813 0.03845 0.0
H1807 H 0.69705 0.8598 0.05116 0.0
H1808 H 0.70449 0.78754 0.04828 0.0
C1809 C 0.59863 0.75096 0.03375 0.0
C1810 C 0.36391 0.8479 0.03649 0.0
C1811 C 0.3178 0.84208 0.03849 0.0
H1812 H 0.43968 0.89688 0.03425 0.0
C1813 C 0.31335 0.88394 0.0385 0.0
H1814 H 0.36919 0.81693 0.03651 0.0
C1815 C 0.35423 0.93034 0.03716 0.0
C1816 C 0.40062 0.936 0.03588 0.0
H1817 H 0.27837 0.88098 0.03983 0.0
H1818 H 0.34982 0.96177 0.03777 0.0
C1819 C 0.40458 0.89403 0.03525 0.0
C1820 C 0.24002 0.54384 0.03307 0.0
C1821 C 0.1985 0.50463 0.03807 0.0
H1822 H 0.31708 0.58217 0.03128 0.0
C1823 C 0.20466 0.47082 0.04462 0.0
H1824 H 0.23698 0.57078 0.02797 0.0
C1825 C 0.25136 0.47752 0.04656 0.0
C1826 C 0.29312 0.51799 0.04192 0.0
H1827 H 0.17374 0.44045 0.04868 0.0
H1828 H 0.25477 0.4513 0.05185 0.0
C1829 C 0.28633 0.55035 0.03493 0.0
C1830 C 0.80332 0.57972 0.4536 0.0
C1831 C 0.844 0.61481 0.44747 0.0
H1832 H 0.73171 0.55615 0.45977 0.0
C1833 C 0.84329 0.65645 0.44353 0.0
H1834 H 0.80183 0.54695 0.45668 0.0
C1835 C 0.80247 0.66185 0.44533 0.0
C1836 C 0.76113 0.62555 0.45102 0.0
H1837 H 0.87409 0.6847 0.43891 0.0
H1838 H 0.80256 0.69343 0.44184 0.0
C1839 C 0.7627 0.58496 0.45532 0.0
C1840 C 0.56631 0.23441 0.45487 0.0
C1841 C 0.52506 0.19222 0.4508 0.0
H1842 H 0.60495 0.31161 0.45609 0.0
C1843 C 0.48836 0.19733 0.44535 0.0
H1844 H 0.59545 0.23219 0.45913 0.0
C1845 C 0.49392 0.24362 0.44359 0.0
C1846 C 0.53615 0.28596 0.44732 0.0
H1847 H 0.45625 0.16583 0.44204 0.0
H1848 H 0.46532 0.24623 0.43918 0.0
C1849 C 0.57172 0.28032 0.45319 0.0
C1850 C 0.91717 0.38686 0.45595 0.0
C1851 C 0.95835 0.38935 0.45074 0.0
H1852 H 0.84053 0.3467 0.45846 0.0
C1853 C 0.95222 0.34936 0.44421 0.0
H1854 H 0.92043 0.41673 0.46114 0.0
C1855 C 0.90563 0.30901 0.44247 0.0
C1856 C 0.8641 0.30757 0.44727 0.0
H1857 H 0.98299 0.35023 0.43997 0.0
H1858 H 0.90207 0.27986 0.43695 0.0
C1859 C 0.871 0.34669 0.4543 0.0
C1860 C 0.48873 0.34687 0.94466 0.0
C1861 C 0.52222 0.38695 0.95124 0.0
H1862 H 0.47008 0.27756 0.93742 0.0
C1863 C 0.5609 0.38478 0.95655 0.0
H1864 H 0.45885 0.3475 0.94035 0.0
C1865 C 0.5673 0.34487 0.95495 0.0
C1866 C 0.53549 0.30571 0.94787 0.0
H1867 H 0.58723 0.41473 0.96178 0.0
H1868 H 0.5978 0.34513 0.95916 0.0
C1869 C 0.49535 0.30678 0.94297 0.0
C1870 C 0.83917 0.2414 0.94261 0.0
C1871 C 0.84098 0.2829 0.94754 0.0
H1872 H 0.79787 0.16403 0.94018 0.0
C1873 C 0.80273 0.27594 0.95491 0.0
H1874 H 0.86766 0.24502 0.93683 0.0
C1875 C 0.7629 0.22973 0.95676 0.0
C1876 C 0.75992 0.18858 0.95141 0.0
H1877 H 0.80307 0.3064 0.95917 0.0
H1878 H 0.73359 0.22641 0.96219 0.0
C1879 C 0.79917 0.19478 0.94455 0.0
C1880 C 0.86794 0.57666 0.95335 0.0
C1881 C 0.8623 0.61226 0.94751 0.0
H1882 H 0.91606 0.55266 0.95915 0.0
C1883 C 0.90462 0.65432 0.94371 0.0
H1884 H 0.83666 0.54356 0.95631 0.0
C1885 C 0.95088 0.65965 0.94535 0.0
C1886 C 0.95596 0.62288 0.95075 0.0
H1887 H 0.90199 0.68295 0.93932 0.0
H1888 H 0.98235 0.6916 0.94198 0.0
C1889 C 0.91384 0.58184 0.95492 0.0
C1890 C 0.39728 0.55114 0.5344 0.0
C1891 C 0.39871 0.51044 0.53867 0.0
H1892 H 0.3583 0.58932 0.53307 0.0
C1893 C 0.35732 0.47414 0.54434 0.0
H1894 H 0.42833 0.57996 0.52996 0.0
C1895 C 0.31656 0.47962 0.54614 0.0
C1896 C 0.31599 0.52137 0.54224 0.0
H1897 H 0.35712 0.44248 0.54781 0.0
H1898 H 0.2857 0.45138 0.55075 0.0
C1899 C 0.35673 0.55647 0.53613 0.0
C1900 C 0.66563 0.89198 0.54616 0.0
C1901 C 0.62333 0.8496 0.54248 0.0
H1902 H 0.70332 0.96978 0.54768 0.0
C1903 C 0.58759 0.85519 0.53669 0.0
H1904 H 0.69437 0.88942 0.55053 0.0
C1905 C 0.59293 0.90109 0.53502 0.0
C1906 C 0.63429 0.94332 0.53904 0.0
H1907 H 0.5543 0.82387 0.53382 0.0
H1908 H 0.56367 0.90325 0.53081 0.0
C1909 C 0.67112 0.93825 0.54442 0.0
C1910 C 0.28828 0.78929 0.53513 0.0
C1911 C 0.29516 0.82827 0.5422 0.0
H1912 H 0.2389 0.71927 0.52826 0.0
C1913 C 0.25364 0.82668 0.54706 0.0
H1914 H 0.31875 0.78941 0.53093 0.0
C1915 C 0.20709 0.78628 0.54533 0.0
C1916 C 0.20099 0.7464 0.53875 0.0
H1917 H 0.2572 0.85574 0.55262 0.0
H1918 H 0.17633 0.78527 0.54961 0.0
C1919 C 0.24214 0.74906 0.53349 0.0
C1920 C 0.33759 0.12079 0.37874 0.0
C1921 C 0.30414 0.08094 0.3721 0.0
H1922 H 0.35639 0.19003 0.38607 0.0
C1923 C 0.26573 0.08348 0.36674 0.0
H1924 H 0.36725 0.11987 0.3831 0.0
C1925 C 0.25955 0.12353 0.36837 0.0
C1926 C 0.29129 0.16246 0.37552 0.0
H1927 H 0.23944 0.05371 0.36147 0.0
H1928 H 0.22927 0.12353 0.36411 0.0
C1929 C 0.33117 0.16101 0.38046 0.0
C1930 C 0.06585 0.23611 0.36784 0.0
C1931 C 0.06703 0.27832 0.37197 0.0
H1932 H 1.027 0.15892 0.36658 0.0
C1933 C 1.02535 0.27328 0.37747 0.0
H1934 H 0.0971 0.23826 0.36353 0.0
C1935 C 0.98451 0.22703 0.37923 0.0
C1936 C 0.98416 0.18466 0.37546 0.0
H1937 H 1.02493 0.3048 0.38082 0.0
H1938 H 0.9534 0.22448 0.3837 0.0
C1939 C 1.02523 0.19023 0.36953 0.0
C1940 C 0.8756 0.80883 0.37772 0.0
C1941 C 0.87056 0.84527 0.37212 0.0
H1942 H 0.92442 0.78594 0.38404 0.0
C1943 C 0.91274 0.8861 0.3679 0.0
H1944 H 0.84409 0.77705 0.38114 0.0
C1945 C 0.95863 0.89142 0.3696 0.0
C1946 C 0.96421 0.85617 0.37564 0.0
H1947 H 0.91055 0.91502 0.36351 0.0
H1948 H 0.98995 0.92436 0.36658 0.0
C1949 C 0.92185 0.8143 0.37949 0.0
C1950 C 0.42713 0.91569 0.78807 0.0
C1951 C 0.42599 0.95678 0.78398 0.0
H1952 H 0.46608 0.87747 0.78934 0.0
C1953 C 0.4678 0.99362 0.77856 0.0
H1954 H 0.39578 0.88645 0.79232 0.0
C1955 C 0.50873 0.98836 0.77684 0.0
C1956 C 0.50906 0.9463 0.78058 0.0
H1957 H 0.46826 0.02562 0.77525 0.0
H1958 H 0.53994 1.01708 0.77245 0.0
C1959 C 0.46785 0.91058 0.78642 0.0
C1960 C 0.23679 0.61267 0.78648 0.0
C1961 C 0.20107 0.61797 0.78058 0.0
H1962 H 0.26106 0.56497 0.79242 0.0
C1963 C 0.15912 0.57545 0.77681 0.0
H1964 H 0.26982 0.64411 0.78942 0.0
C1965 C 0.154 0.52934 0.77855 0.0
C1966 C 0.19087 0.52459 0.78402 0.0
H1967 H 0.13041 0.57779 0.77237 0.0
H1968 H 0.12212 0.49771 0.7752 0.0
C1969 C 0.23181 0.56692 0.78814 0.0
C1970 C 0.58119 0.72058 0.78837 0.0
C1971 C 0.62348 0.722 0.78421 0.0
H1972 H 0.50396 0.68146 0.78961 0.0
C1973 C 0.61862 0.6805 0.77865 0.0
H1974 H 0.58324 0.75169 0.79272 0.0
C1975 C 0.57244 0.63962 0.77685 0.0
C1976 C 0.52997 0.63904 0.78065 0.0
H1977 H 0.65023 0.68029 0.77528 0.0
H1978 H 0.57001 0.60868 0.77233 0.0
C1979 C 0.53537 0.67991 0.78664 0.0
C1980 C 0.16029 0.63991 0.27698 0.0
C1981 C 0.20232 0.63961 0.28078 0.0
H1982 H 0.12288 0.68023 0.27536 0.0
C1983 C 0.23773 0.68065 0.28674 0.0
H1984 H 0.1318 0.60882 0.27249 0.0
C1985 C 0.23239 0.72119 0.28843 0.0
C1986 C 0.19138 0.72233 0.28427 0.0
H1987 H 0.27081 0.68245 0.28971 0.0
H1988 H 0.26143 0.75243 0.29276 0.0
C1989 C 0.1548 0.68067 0.27874 0.0
C1990 C 0.42961 0.56781 0.28842 0.0
C1991 C 0.42813 0.52565 0.28414 0.0
H1992 H 0.46867 0.64498 0.28977 0.0
C1993 C 0.46955 0.53073 0.27848 0.0
H1994 H 0.39856 0.56561 0.29284 0.0
C1995 C 0.51037 0.57697 0.27671 0.0
C1996 C 0.51099 0.61932 0.28062 0.0
H1997 H 0.46972 0.49925 0.27502 0.0
H1998 H 0.54124 0.57956 0.27212 0.0
C1999 C 0.47022 0.61369 0.28671 0.0
C2000 C 0.53827 0.91406 0.28783 0.0
C2001 C 0.53126 0.94618 0.28081 0.0
H2002 H 0.58784 0.89361 0.29465 0.0
C2003 C 0.57272 0.98634 0.27599 0.0
H2004 H 0.50785 0.88352 0.29199 0.0
C2005 C 0.61935 0.99271 0.27772 0.0
C2006 C 0.6256 0.95891 0.28424 0.0
H2007 H 0.56905 1.01187 0.27048 0.0
H2008 H 0.65006 1.02264 0.27347 0.0
C2009 C 0.58449 0.92018 0.28946 0.0
C2010 C 1.0245 0.80796 0.87765 0.0
C2011 C 0.06594 0.84431 0.87199 0.0
H2012 H 0.95287 0.78518 0.88405 0.0
C2013 C 0.06457 0.88511 0.86777 0.0
H2014 H 1.02425 0.77622 0.88108 0.0
C2015 C 1.02404 0.89046 0.86951 0.0
C2016 C 0.98324 0.85529 0.87559 0.0
H2017 H 0.09565 0.91397 0.86336 0.0
H2018 H 1.02567 0.92337 0.86649 0.0
C2019 C 0.98376 0.81347 0.87946 0.0
C2020 C 0.33711 0.27246 0.87847 0.0
C2021 C 0.30311 0.27871 0.87203 0.0
H2022 H 0.35635 0.22218 0.88568 0.0
C2023 C 0.26394 0.23751 0.86695 0.0
H2024 H 0.36739 0.30322 0.88262 0.0
C2025 C 0.25765 0.19126 0.86863 0.0
C2026 C 0.29005 0.18428 0.87556 0.0
H2027 H 0.23718 0.24081 0.86183 0.0
H2028 H 0.2268 0.16081 0.86457 0.0
C2029 C 0.3306 0.2258 0.88024 0.0
C2030 C 0.87541 0.12095 0.87871 0.0
C2031 C 0.86918 0.08084 0.87221 0.0
H2032 H 0.92567 0.19051 0.88593 0.0
C2033 C 0.91032 0.08317 0.86703 0.0
H2034 H 0.84467 0.12021 0.88294 0.0
C2035 C 0.95654 0.12331 0.86866 0.0
C2036 C 0.96353 0.16254 0.87565 0.0
H2037 H 0.907 0.05321 0.86186 0.0
H2038 H 0.98697 0.12317 0.86452 0.0
C2039 C 0.92204 0.16126 0.88044 0.0
C2040 C 1.00347 0.45368 0.71195 0.0
C2041 C 0.96921 0.41339 0.70556 0.0
H2042 H 1.02322 0.52342 0.71911 0.0
C2043 C 0.93012 0.41557 0.70049 0.0
H2044 H 1.03369 0.45306 0.71608 0.0
C2045 C 0.92417 0.45574 0.70214 0.0
C2046 C 0.95683 0.49517 0.70903 0.0
H2047 H 0.90318 0.38548 0.6954 0.0
H2048 H 0.89337 0.45549 0.6981 0.0
C2049 C 0.99728 0.49402 0.7137 0.0
C2050 C 0.65109 0.5598 0.71309 0.0
C2051 C 0.65074 0.51739 0.70935 0.0
H2052 H 0.69147 0.6376 0.71461 0.0
C2053 C 0.69181 0.5229 0.70344 0.0
H2054 H 0.61998 0.55729 0.71755 0.0
C2055 C 0.7324 0.56876 0.70171 0.0
C2056 C 0.73357 0.61102 0.70579 0.0
H2057 H 0.69357 0.49155 0.70052 0.0
H2058 H 0.76365 0.57087 0.69741 0.0
C2059 C 0.6919 0.60603 0.71129 0.0
C2060 C 0.54149 0.14192 0.71114 0.0
C2061 C 0.53667 0.17871 0.70566 0.0
H2062 H 0.59004 0.1185 0.71736 0.0
C2063 C 0.57901 0.21967 0.70154 0.0
H2064 H 0.50986 0.11003 0.71448 0.0
C2065 C 0.62481 0.22475 0.70323 0.0
C2066 C 0.63017 0.18911 0.70915 0.0
H2067 H 0.57701 0.24886 0.69725 0.0
H2068 H 0.65624 0.25778 0.7003 0.0
C2069 C 0.58766 0.14715 0.7129 0.0
C2070 C 0.17583 0.32021 0.10932 0.0
C2071 C 0.17736 0.28004 0.11403 0.0
H2072 H 0.13452 0.35628 0.10697 0.0
C2073 C 0.13826 0.24756 0.12103 0.0
H2074 H 0.20495 0.346 0.10383 0.0
C2075 C 0.09804 0.25341 0.12276 0.0
C2076 C 0.09546 0.29221 0.11765 0.0
H2077 H 0.1383 0.21699 0.12511 0.0
H2078 H 0.0682 0.2266 0.12793 0.0
C2079 C 0.13543 0.32629 0.11114 0.0
C2080 C 0.82763 0.90961 0.11023 0.0
C2081 C 0.86943 0.95188 0.11416 0.0
H2082 H 0.79067 0.83198 0.1084 0.0
C2083 C 0.90478 0.94628 0.12015 0.0
H2084 H 0.79921 0.91224 0.10573 0.0
C2085 C 0.89966 0.90046 0.12172 0.0
C2086 C 0.85895 0.8584 0.11741 0.0
H2087 H 0.93766 0.97756 0.12321 0.0
H2088 H 0.92866 0.89823 0.12606 0.0
C2089 C 0.82236 0.86342 0.11188 0.0
C2090 C 0.24977 0.05633 0.1209 0.0
C2091 C 0.29217 0.05702 0.11709 0.0
H2092 H 0.17246 1.01793 0.12186 0.0
C2093 C 0.28714 1.01493 0.11182 0.0
H2094 H 0.25183 0.08787 0.12501 0.0
C2095 C 0.24084 0.97415 0.11 0.0
C2096 C 0.19833 0.97422 0.11349 0.0
H2097 H 0.31877 1.01408 0.10872 0.0
H2098 H 0.23838 0.94271 0.10575 0.0
C2099 C 0.20384 1.01578 0.11915 0.0
C2100 C 0.8275 0.97452 0.60937 0.0
C2101 C 0.86756 0.97319 0.61424 0.0
H2102 H 0.79119 1.01551 0.60683 0.0
C2103 C 0.89939 1.01217 0.62136 0.0
H2104 H 0.80219 0.94547 0.60378 0.0
C2105 C 0.89312 0.05214 0.62303 0.0
C2106 C 0.85453 0.05457 0.61775 0.0
H2107 H 0.92982 1.01225 0.62556 0.0
H2108 H 0.9195 0.08195 0.62829 0.0
C2109 C 0.82099 1.01467 0.61113 0.0
C2110 C 0.17222 0.90983 0.60957 0.0
C2111 C 0.1734 0.9512 0.6144 0.0
H2112 H 0.13127 0.83254 0.60701 0.0
C2113 C 0.13415 0.94405 0.62141 0.0
H2114 H 0.2015 0.9136 0.60407 0.0
C2115 C 0.09407 0.89781 0.62302 0.0
C2116 C 0.09181 0.8568 0.61778 0.0
H2117 H 0.13395 0.9744 0.62558 0.0
H2118 H 0.06408 0.89437 0.62819 0.0
C2119 C 0.13196 0.86317 0.61127 0.0
C2120 C 0.24613 0.24953 0.62175 0.0
C2121 C 0.28833 0.29078 0.61768 0.0
H2122 H 0.16888 0.21082 0.62293 0.0
C2123 C 0.28316 0.32738 0.61221 0.0
H2124 H 0.24837 0.22044 0.62602 0.0
C2125 C 0.23684 0.32175 0.61042 0.0
C2126 C 0.19449 0.27953 0.61414 0.0
H2127 H 0.31466 0.35949 0.6089 0.0
H2128 H 0.23421 0.35029 0.60599 0.0
C2129 C 0.20017 0.24404 0.62003 0.0
C2130 C 0.69322 0.22547 0.20317 0.0
C2131 C 0.65226 0.19015 0.20917 0.0
H2132 H 0.765 0.24917 0.19711 0.0
C2133 C 0.65272 0.14827 0.21302 0.0
H2134 H 0.6949 0.25843 0.20016 0.0
C2135 C 0.69355 0.14285 0.21125 0.0
C2136 C 0.73513 0.17934 0.20567 0.0
H2137 H 0.62171 0.11985 0.21754 0.0
H2138 H 0.69322 0.11105 0.21466 0.0
C2139 C 0.73383 0.2202 0.20147 0.0
C2140 C 0.9308 0.57008 0.20109 0.0
C2141 C 0.97183 0.61237 0.2052 0.0
H2142 H 0.89239 0.49287 0.1999 0.0
C2143 C 1.00842 0.60743 0.21076 0.0
H2144 H 0.90173 0.57215 0.19674 0.0
C2145 C 1.00296 0.56121 0.21259 0.0
C2146 C 0.96093 0.51876 0.20882 0.0
H2147 H 0.04036 0.63901 0.21411 0.0
H2148 H 1.03147 0.55875 0.21709 0.0
C2149 C 0.92548 0.52423 0.20284 0.0
C2150 C 0.54394 0.45493 0.21179 0.0
C2151 C 0.53761 0.41479 0.20529 0.0
H2152 H 0.59433 0.5245 0.21897 0.0
C2153 C 0.57864 0.41708 0.20005 0.0
H2154 H 0.51327 0.45421 0.21605 0.0
C2155 C 0.62488 0.4572 0.20164 0.0
C2156 C 0.63199 0.49645 0.20864 0.0
H2157 H 0.57522 0.38708 0.19488 0.0
H2158 H 0.65525 0.45703 0.19747 0.0
C2159 C 0.59059 0.49523 0.21347 0.0
C2160 C 0.55934 0.43838 0.04795 0.0
C2161 C 0.59503 0.47095 0.04021 0.0
H2162 H 0.51328 0.36494 0.05308 0.0
C2163 C 0.61249 0.45222 0.03156 0.0
H2164 H 0.5445 0.45114 0.05466 0.0
C2165 C 0.59454 0.40211 0.03069 0.0
C2166 C 0.5588 0.36965 0.03847 0.0
H2167 H 0.63978 0.47617 0.02541 0.0
H2168 H 0.60903 0.38887 0.02401 0.0
C2169 C 0.54146 0.38865 0.04707 0.0
C2170 C 0.73249 0.25555 0.0329 0.0
C2171 C 0.76807 0.25353 0.03978 0.0
H2172 H 0.65665 0.22463 0.02913 0.0
C2173 C 0.7527 0.22068 0.04915 0.0
H2174 H 0.74297 0.28037 0.0256 0.0
C2175 C 0.70343 0.1891 0.05122 0.0
C2176 C 0.66777 0.18912 0.04396 0.0
H2177 H 0.7789 0.21879 0.05481 0.0
H2178 H 0.69342 0.16343 0.05832 0.0
C2179 C 0.68292 0.22364 0.03494 0.0
C2180 C 0.96036 0.57758 0.04663 0.0
C2181 C 0.96179 0.54477 0.03864 0.0
H2182 H 0.92843 0.62038 0.05133 0.0
C2183 C 0.92902 0.52856 0.02923 0.0
H2184 H 0.98503 0.59098 0.05397 0.0
C2185 C 0.89654 0.54566 0.0277 0.0
C2186 C 0.89571 0.5791 0.03559 0.0
H2187 H 0.92905 0.50335 0.0229 0.0
H2188 H 0.87203 0.53266 0.02032 0.0
C2189 C 0.92769 0.59435 0.04515 0.0
C2190 C 0.46912 0.6091 0.45897 0.0
C2191 C 0.48506 0.58752 0.45069 0.0
H2192 H 0.40842 0.60887 0.46714 0.0
C2193 C 0.45009 0.54902 0.44392 0.0
H2194 H 0.49491 0.63871 0.46436 0.0
C2195 C 0.40064 0.53182 0.44556 0.0
C2196 C 0.38458 0.55274 0.45396 0.0
H2197 H 0.46078 0.53139 0.43746 0.0
H2198 H 0.3749 0.50202 0.4402 0.0
C2199 C 0.41949 0.59206 0.46054 0.0
C2200 C 0.56284 0.88906 0.46202 0.0
C2201 C 0.5941 0.88616 0.45379 0.0
H2202 H 0.52221 0.92315 0.46706 0.0
C2203 C 0.60691 0.91591 0.44384 0.0
H2204 H 0.5517 0.8663 0.46972 0.0
C2205 C 0.58995 0.94843 0.4423 0.0
C2206 C 0.5594 0.95197 0.45063 0.0
H2207 H 0.63124 0.91511 0.43736 0.0
H2208 H 0.60152 0.97138 0.43464 0.0
C2209 C 0.54557 0.92141 0.46044 0.0
C2210 C 0.26028 0.73107 0.46216 0.0
C2211 C 0.26276 0.76522 0.45398 0.0
H2212 H 0.22661 0.65629 0.46711 0.0
C2213 C 0.23268 0.74829 0.44409 0.0
H2214 H 0.28332 0.74273 0.46981 0.0
C2215 C 0.20025 0.69882 0.44253 0.0
C2216 C 0.19712 0.66471 0.45079 0.0
H2217 H 0.2332 0.77345 0.43767 0.0
H2218 H 0.17704 0.68743 0.43491 0.0
C2219 C 0.22802 0.68143 0.46056 0.0
C2220 C 0.53646 0.67763 0.95862 0.0
C2221 C 0.55852 0.66178 0.95046 0.0
H2222 H 0.53655 0.73827 0.96678 0.0
C2223 C 0.59754 0.69676 0.94383 0.0
H2224 H 0.5064 0.6518 0.9639 0.0
C2225 C 0.6149 0.74617 0.94552 0.0
C2226 C 0.59362 0.76215 0.95384 0.0
H2227 H 0.61552 0.68612 0.93745 0.0
H2228 H 0.64517 0.77195 0.9403 0.0
C2229 C 0.55368 0.72724 0.96025 0.0
C2230 C 0.41782 0.88023 0.96056 0.0
C2231 C 0.38309 0.88542 0.95411 0.0
H2232 H 0.49318 0.9084 0.96437 0.0
C2233 C 0.39941 0.92316 0.94591 0.0
H2234 H 0.40654 0.85171 0.96699 0.0
C2235 C 0.44891 0.95542 0.94437 0.0
C2236 C 0.48369 0.95114 0.95103 0.0
H2237 H 0.37383 0.92783 0.94065 0.0
H2238 H 0.45977 0.98434 0.93807 0.0
C2239 C 0.46752 0.91284 0.95908 0.0
C2240 C 0.19047 0.54712 0.94325 0.0
C2241 C 0.19457 0.58616 0.94988 0.0
H2242 H 0.21797 0.49945 0.93972 0.0
C2243 C 0.2325 0.60816 0.95805 0.0
H2244 H 0.16182 0.52916 0.93688 0.0
C2245 C 0.26486 0.59092 0.95968 0.0
C2246 C 0.25982 0.55099 0.95326 0.0
H2247 H 0.23677 0.63823 0.96332 0.0
H2248 H 0.29304 0.60804 0.9662 0.0
C2249 C 0.2225 0.52972 0.94494 0.0
C2250 C 0.70809 0.57728 0.54723 0.0
C2251 C 0.67407 0.54685 0.53888 0.0
H2252 H 0.78269 0.61828 0.55223 0.0
C2253 C 0.69084 0.533 0.52907 0.0
H2254 H 0.69664 0.58883 0.55489 0.0
C2255 C 0.74045 0.55012 0.52752 0.0
C2256 C 0.77452 0.58121 0.5358 0.0
H2257 H 0.66578 0.50973 0.52243 0.0
H2258 H 0.75214 0.53899 0.51984 0.0
C2259 C 0.75756 0.59407 0.54574 0.0
C2260 C 0.61518 0.2152 0.52941 0.0
C2261 C 0.60056 0.18402 0.53912 0.0
H2262 H 0.60966 0.27077 0.52019 0.0
C2263 C 0.56929 0.18702 0.54733 0.0
H2264 H 0.63914 0.21393 0.5229 0.0
C2265 C 0.55235 0.21953 0.54576 0.0
C2266 C 0.5659 0.24986 0.53591 0.0
H2267 H 0.55709 0.1636 0.55491 0.0
H2268 H 0.52743 0.21987 0.55213 0.0
C2269 C 0.59792 0.24755 0.5278 0.0
C2270 C 0.92607 0.45432 0.53078 0.0
C2271 C 0.96351 0.47038 0.53908 0.0
H2272 H 0.86585 0.3935 0.52256 0.0
C2273 C 0.96718 0.43552 0.54585 0.0
H2274 H 0.92216 0.48003 0.52539 0.0
C2275 C 0.93514 0.38606 0.54418 0.0
C2276 C 0.89824 0.36987 0.53575 0.0
H2277 H 0.99544 0.44631 0.55233 0.0
H2278 H 0.93929 0.3604 0.54953 0.0
C2279 C 0.89368 0.40467 0.52917 0.0
C2280 C 0.27025 0.73963 0.36254 0.0
C2281 C 0.2306 0.70469 0.36903 0.0
H2282 H 0.31729 0.81506 0.35886 0.0
C2283 C 0.20949 0.72067 0.3774 0.0
H2284 H 0.28723 0.72861 0.35598 0.0
C2285 C 0.22682 0.77008 0.37909 0.0
C2286 C 0.26566 0.80509 0.37242 0.0
H2287 H 0.17942 0.69488 0.38268 0.0
H2288 H 0.20904 0.78072 0.38553 0.0
C2289 C 0.28743 0.78923 0.36418 0.0
C2290 C 0.40829 0.5875 0.36259 0.0
C2291 C 0.44315 0.58276 0.36911 0.0
H2292 H 0.33285 0.55912 0.35883 0.0
C2293 C 0.42696 0.54568 0.37748 0.0
H2294 H 0.41944 0.61549 0.35602 0.0
C2295 C 0.37747 0.5136 0.37913 0.0
C2296 C 0.34256 0.51739 0.37241 0.0
H2297 H 0.45263 0.54137 0.38279 0.0
H2298 H 0.36673 0.48516 0.38556 0.0
C2299 C 0.3586 0.55508 0.36418 0.0
C2300 C 0.56683 0.88254 0.3614 0.0
C2301 C 0.56467 0.91451 0.36954 0.0
H2302 H 0.60041 0.84144 0.3564 0.0
C2303 C 0.59519 0.92809 0.37937 0.0
H2304 H 0.54343 0.87081 0.35381 0.0
C2305 C 0.6278 0.91124 0.38086 0.0
C2306 C 0.63066 0.88005 0.37261 0.0
H2307 H 0.5949 0.95295 0.38576 0.0
H2308 H 0.6514 0.92343 0.38841 0.0
C2309 C 0.59926 0.86537 0.36294 0.0
C2310 C 0.1168 0.89056 0.77555 0.0
C2311 C 0.15111 0.92186 0.78375 0.0
H2312 H 0.04201 0.84876 0.77076 0.0
C2313 C 0.1346 0.93656 0.79345 0.0
H2314 H 0.12801 0.87832 0.76797 0.0
C2315 C 0.085 0.91936 0.79507 0.0
C2316 C 0.05063 0.88733 0.78697 0.0
H2317 H 0.15988 0.96056 0.79996 0.0
H2318 H 0.07354 0.93116 0.80268 0.0
C2319 C 0.06733 0.87368 0.77712 0.0
C2320 C 0.22387 0.21633 0.79368 0.0
C2321 C 0.26289 0.22044 0.78702 0.0
H2322 H 0.17745 0.24529 0.79755 0.0
C2323 C 0.28345 0.25709 0.77853 0.0
H2324 H 0.20732 0.18872 0.80035 0.0
C2325 C 0.26622 0.28929 0.77688 0.0
C2326 C 0.22804 0.28607 0.78373 0.0
H2327 H 0.31299 0.26092 0.77311 0.0
H2328 H 0.28359 0.31734 0.77035 0.0
C2329 C 0.2068 0.24887 0.79209 0.0
C2330 C 0.8993 0.08058 0.7772 0.0
C2331 C 0.929 0.09763 0.78716 0.0
H2332 H 0.84376 1.0196 0.76803 0.0
C2333 C 0.92594 0.06362 0.79545 0.0
H2334 H 0.90027 0.10564 0.77069 0.0
C2335 C 0.89349 1.014 0.79391 0.0
C2336 C 0.86298 0.99714 0.78408 0.0
H2337 H 0.94867 0.07537 0.80316 0.0
H2338 H 0.89163 0.989 0.80056 0.0
C2339 C 0.86667 0.0311 0.7757 0.0
C2340 C 0.20649 1.01373 0.29211 0.0
C2341 C 0.22755 0.99759 0.28374 0.0
H2342 H 0.20735 0.07461 0.30036 0.0
C2343 C 0.26566 0.03241 0.27686 0.0
H2344 H 0.1772 0.98807 0.2976 0.0
C2345 C 0.28305 0.08189 0.27848 0.0
C2346 C 0.26272 0.09818 0.28699 0.0
H2347 H 0.28288 1.02159 0.27031 0.0
H2348 H 0.31256 0.10749 0.27303 0.0
C2349 C 0.22372 0.0634 0.29368 0.0
C2350 C 0.13664 0.24908 0.29186 0.0
C2351 C 0.15248 0.28688 0.28367 0.0
H2352 H 0.07603 0.18845 0.30001 0.0
C2353 C 0.11743 0.29065 0.277 0.0
H2354 H 0.1625 0.24506 0.29716 0.0
C2355 C 0.068 0.25841 0.27867 0.0
C2356 C 0.05202 0.22122 0.28701 0.0
H2357 H 0.12805 0.31917 0.27059 0.0
H2358 H 0.04219 0.26268 0.2734 0.0
C2359 C 0.08702 0.21652 0.29347 0.0
C2360 C 0.89979 0.87444 0.27734 0.0
C2361 C 0.92983 0.88756 0.28724 0.0
H2362 H 0.84416 0.87966 0.26818 0.0
C2363 C 0.92736 0.91917 0.29544 0.0
H2364 H 0.90034 0.84984 0.27091 0.0
C2365 C 0.8951 0.93654 0.29385 0.0
C2366 C 0.86422 0.92238 0.28409 0.0
H2367 H 0.95038 0.93052 0.30309 0.0
H2368 H 0.89368 0.96022 0.30042 0.0
C2369 C 0.86736 0.89146 0.27581 0.0
C2370 C 0.35828 0.86682 0.86226 0.0
C2371 C 0.34136 0.88042 0.87208 0.0
H2372 H 0.41974 0.87314 0.85303 0.0
C2373 C 0.37531 0.91078 0.88046 0.0
H2374 H 0.33329 0.84362 0.85561 0.0
C2375 C 0.42483 0.92774 0.87898 0.0
C2376 C 0.44196 0.91513 0.86902 0.0
H2377 H 0.36378 0.92217 0.88813 0.0
H2378 H 0.44987 0.9519 0.88549 0.0
C2379 C 0.40795 0.88411 0.86073 0.0
C2380 C 0.26345 0.5804 0.8605 0.0
C2381 C 0.23239 0.58345 0.86877 0.0
H2382 H 0.30409 0.54631 0.85546 0.0
C2383 C 0.21989 0.55397 0.87876 0.0
H2384 H 0.27433 0.60294 0.85276 0.0
C2385 C 0.23699 0.5216 0.88032 0.0
C2386 C 0.26738 0.51792 0.87196 0.0
H2387 H 0.19571 0.5549 0.88526 0.0
H2388 H 0.22567 0.49886 0.88802 0.0
C2389 C 0.28088 0.54819 0.8621 0.0
C2390 C 0.56768 0.73931 0.861 0.0
C2391 C 0.56501 0.70519 0.8692 0.0
H2392 H 0.60143 0.81404 0.85603 0.0
C2393 C 0.59478 0.72212 0.87915 0.0
H2394 H 0.54486 0.72764 0.8533 0.0
C2395 C 0.62713 0.77161 0.88072 0.0
C2396 C 0.63043 0.80568 0.87243 0.0
H2397 H 0.5941 0.69696 0.88559 0.0
H2398 H 0.65013 0.78303 0.88838 0.0
C2399 C 0.59984 0.78893 0.86261 0.0
C2400 C 0.88566 0.05491 0.71262 0.0
C2401 C 0.89811 0.03785 0.70263 0.0
H2402 H 0.89145 0.11591 0.72184 0.0
C2403 C 0.9291 0.07187 0.69434 0.0
H2404 H 0.86155 0.02984 0.71913 0.0
C2405 C 0.94649 0.12151 0.69591 0.0
C2406 C 0.93303 0.13837 0.70577 0.0
H2407 H 0.93994 0.06013 0.68661 0.0
H2408 H 0.96965 0.14652 0.68926 0.0
C2409 C 0.90272 0.1044 0.71415 0.0
C2410 C 0.04283 0.85464 0.71402 0.0
C2411 C 1.00863 0.85111 0.70573 0.0
H2412 H 0.11754 0.88804 0.71892 0.0
C2413 C 1.02529 0.88175 0.69592 0.0
H2414 H 1.03152 0.83163 0.72168 0.0
C2415 C 0.07492 0.91417 0.69432 0.0
C2416 C 0.10918 0.91708 0.70253 0.0
H2417 H 1.00011 0.88001 0.68934 0.0
H2418 H 0.08647 0.937 0.68664 0.0
C2419 C 0.09232 0.88723 0.71247 0.0
C2420 C 0.2672 0.20136 0.69573 0.0
C2421 C 0.29758 0.21503 0.70558 0.0
H2422 H 0.2121 0.20746 0.68643 0.0
C2423 C 0.29381 0.24533 0.71394 0.0
H2424 H 0.26914 0.17819 0.68909 0.0
C2425 C 0.26118 0.26214 0.71241 0.0
C2426 C 0.23157 0.24943 0.70243 0.0
H2427 H 0.31663 0.25677 0.72163 0.0
H2428 H 0.26012 0.28624 0.71891 0.0
C2429 C 0.23475 0.21849 0.69415 0.0
C2430 C 0.78531 0.21935 0.1099 0.0
C2431 C 0.81985 0.25474 0.1174 0.0
H2432 H 0.71043 0.17392 0.10569 0.0
C2433 C 0.8035 0.27305 0.1264 0.0
H2434 H 0.79633 0.20412 0.10291 0.0
C2435 C 0.75383 0.25567 0.12798 0.0
C2436 C 0.71925 0.21962 0.12059 0.0
H2437 H 0.82898 0.30031 0.13234 0.0
H2438 H 0.74254 0.27058 0.13499 0.0
C2439 C 0.73582 0.20207 0.11147 0.0
C2440 C 0.952 0.59135 0.11166 0.0
C2441 C 0.93136 0.55469 0.12015 0.0
H2442 H 0.9522 0.65162 0.10346 0.0
C2443 C 0.89228 0.55057 0.12678 0.0
H2444 H 0.9816 0.59519 0.10626 0.0
C2445 C 0.87522 0.5831 0.12517 0.0
C2446 C 0.89654 0.62031 0.11682 0.0
H2447 H 0.87568 0.52297 0.13345 0.0
H2448 H 0.84582 0.5795 0.13061 0.0
C2449 C 0.93478 0.62355 0.10999 0.0
C2450 C 0.57024 0.41456 0.11042 0.0
C2451 C 0.59904 0.43165 0.12052 0.0
H2452 H 0.5155 0.35357 0.10109 0.0
C2453 C 0.59528 0.39771 0.12892 0.0
H2454 H 0.57178 0.43958 0.10382 0.0
C2455 C 0.56296 0.34808 0.12734 0.0
C2456 C 0.5333 0.33122 0.11737 0.0
H2457 H 0.61732 0.40953 0.13674 0.0
H2458 H 0.56044 0.3231 0.13407 0.0
C2459 C 0.53775 0.3651 0.10888 0.0
C2460 C 0.92238 0.36392 0.60916 0.0
C2461 C 0.89194 0.32999 0.61752 0.0
H2462 H 0.96359 0.43846 0.60416 0.0
C2463 C 0.87829 0.34684 0.62735 0.0
H2464 H 0.93378 0.3524 0.60148 0.0
C2465 C 0.89563 0.39646 0.6289 0.0
C2466 C 0.92673 0.43044 0.62062 0.0
H2467 H 0.85502 0.32184 0.63399 0.0
H2468 H 0.88466 0.40824 0.6366 0.0
C2469 C 0.93938 0.4134 0.61066 0.0
C2470 C 0.78134 0.62248 0.61033 0.0
C2471 C 0.81618 0.61877 0.61711 0.0
H2472 H 0.70619 0.59482 0.60667 0.0
C2473 C 0.80004 0.58143 0.62543 0.0
H2474 H 0.79217 0.65067 0.60383 0.0
C2475 C 0.75035 0.54923 0.62706 0.0
C2476 C 0.71557 0.55386 0.62048 0.0
H2477 H 0.82573 0.5775 0.63083 0.0
H2478 H 0.73914 0.52151 0.6337 0.0
C2479 C 0.73183 0.59062 0.61202 0.0
C2480 C 0.59265 0.25441 0.62849 0.0
C2481 C 0.59475 0.22233 0.62037 0.0
H2482 H 0.55924 0.29576 0.63343 0.0
C2483 C 0.56431 0.20882 0.61053 0.0
H2484 H 0.61598 0.26611 0.63609 0.0
C2485 C 0.53185 0.22585 0.609 0.0
C2486 C 0.52904 0.25716 0.61722 0.0
H2487 H 0.56451 0.18387 0.60415 0.0
H2488 H 0.5083 0.21368 0.60144 0.0
C2489 C 0.56037 0.27176 0.62691 0.0
C2490 C 1.02682 0.2001 0.19616 0.0
C2491 C 1.01031 0.21497 0.20583 0.0
H2492 H 0.08789 0.20531 0.18697 0.0
C2493 C 0.0446 0.24637 0.21402 0.0
H2494 H 1.00156 0.17601 0.18966 0.0
C2495 C 0.09406 0.26318 0.21247 0.0
C2496 C 0.11076 0.24935 0.20265 0.0
H2497 H 1.03338 0.25873 0.22157 0.0
H2498 H 0.11937 0.28818 0.21882 0.0
C2499 C 0.07642 0.21723 0.19456 0.0
C2500 C 0.88014 0.88039 0.21078 0.0
C2501 C 0.90029 0.91692 0.20225 0.0
H2502 H 0.88044 0.82035 0.21895 0.0
C2503 C 0.93914 0.92103 0.19551 0.0
H2504 H 0.85076 0.87655 0.21627 0.0
C2505 C 0.95639 0.8886 0.19706 0.0
C2506 C 0.93551 0.8515 0.20545 0.0
H2507 H 0.95539 0.94855 0.18882 0.0
H2508 H 0.98557 0.89216 0.19154 0.0
C2509 C 0.89754 0.8483 0.21238 0.0
C2510 C 0.23674 0.07312 0.19401 0.0
C2511 C 0.23374 0.03905 0.20228 0.0
H2512 H 0.27076 0.14781 0.189 0.0
C2513 C 0.26319 0.05602 0.21228 0.0
H2514 H 0.21418 0.06141 0.18628 0.0
C2515 C 0.29555 0.1055 0.21385 0.0
C2516 C 0.29918 0.13952 0.2055 0.0
H2517 H 0.26224 0.03089 0.21877 0.0
H2518 H 0.3183 0.11696 0.22155 0.0
C2519 C 0.26891 0.12274 0.19562 0.0
loop_
_geom_bond_atom_site_label_1
_geom_bond_atom_site_label_2
_geom_bond_distance
_geom_bond_site_symmetry_2
_ccdc_geom_bond_type
Tb0 C9 2.764 1_545 S
Tb0 O10 2.325 1_545 S
Tb0 O13 2.303 . S
Tb0 O17 2.322 . S
Tb0 O18 2.349 . S
Tb0 O21 2.415 1_545 S
Tb0 O22 2.399 1_545 S
Tb1 O11 2.322 . S
Tb1 O12 2.349 . S
Tb1 O14 2.415 . S
Tb1 O15 2.399 . S
Tb1 O16 2.325 . S
Tb1 O19 2.303 . S
Tb1 C30 2.764 . S
C2 O18 1.261 . S
C2 O19 1.257 . S
C3 C6 1.358 . S
C3 C7 1.332 . S
C3 C9 1.504 . S
C4 C5 1.373 . S
C4 C8 1.308 . S
C5 C4 1.373 . S
C5 C6 1.429 . S
C5 H32 0.932 . S
C6 C3 1.358 . S
C6 C5 1.429 . S
C6 H33 0.930 . S
C7 C3 1.332 . S
C7 C8 1.394 . S
C7 H34 0.932 . S
C8 C4 1.308 . S
C8 C7 1.394 . S
C8 H35 0.929 . S
C9 Tb0 2.764 1_565 S
C9 C3 1.504 . S
C9 O21 1.239 . S
C9 O22 1.263 . S
O10 Tb0 2.325 1_565 S
O10 C20 1.236 . S
O11 Tb1 2.322 . S
O11 C20 1.257 1_545 S
O12 Tb1 2.349 . S
O12 C23 1.261 . S
O13 Tb0 2.303 . S
O13 C23 1.257 . S
O14 Tb1 2.415 . S
O14 C30 1.239 . S
O15 Tb1 2.399 . S
O15 C30 1.263 . S
O16 Tb1 2.325 . S
O16 C31 1.236 . S
O17 Tb0 2.322 . S
O17 C31 1.257 . S
O18 Tb0 2.349 . S
O18 C2 1.261 . S
O19 Tb1 2.303 . S
O19 C2 1.257 . S
C20 O10 1.236 . S
C20 O11 1.257 1_565 S
O21 Tb0 2.415 1_565 S
O21 C9 1.239 . S
O22 Tb0 2.399 1_565 S
O22 C9 1.263 . S
C23 O12 1.261 . S
C23 O13 1.257 . S
C24 C27 1.358 . S
C24 C28 1.332 . S
C24 C30 1.504 . S
C25 C26 1.373 . S
C25 C29 1.308 . S
C26 C25 1.373 . S
C26 C27 1.429 . S
C26 H36 0.932 . S
C27 C24 1.358 . S
C27 C26 1.429 . S
C27 H37 0.930 . S
C28 C24 1.332 . S
C28 C29 1.394 . S
C28 H38 0.932 . S
C29 C25 1.308 . S
C29 C28 1.394 . S
C29 H39 0.929 . S
C30 Tb1 2.764 . S
C30 O14 1.239 . S
C30 O15 1.263 . S
C30 C24 1.504 . S
C31 O16 1.236 . S
C31 O17 1.257 . S
H32 C5 0.932 . S
H33 C6 0.930 . S
H34 C7 0.932 . S
H35 C8 0.929 . S
H36 C26 0.932 . S
H37 C27 0.930 . S
H38 C28 0.932 . S
H39 C29 0.929 . S
Tb40 C49 2.764 . S
Tb40 O50 2.325 . S
Tb40 O53 2.303 . S
Tb40 O57 2.322 1_455 S
Tb40 O58 2.349 . S
Tb40 O61 2.415 . S
Tb40 O62 2.399 . S
Tb41 O51 2.322 1_655 S
Tb41 O52 2.349 1_655 S
Tb41 O54 2.415 . S
Tb41 O55 2.399 . S
Tb41 O56 2.325 . S
Tb41 O59 2.303 1_655 S
Tb41 C70 2.764 . S
C42 O58 1.261 . S
C42 O59 1.257 . S
C43 C46 1.358 . S
C43 C47 1.332 . S
C43 C49 1.504 . S
C44 C45 1.373 . S
C44 C48 1.308 . S
C45 C44 1.373 . S
C45 C46 1.429 . S
C45 H72 0.932 . S
C46 C43 1.358 . S
C46 C45 1.429 . S
C46 H73 0.930 . S
C47 C43 1.332 . S
C47 C48 1.394 . S
C47 H74 0.932 . S
C48 C44 1.308 . S
C48 C47 1.394 . S
C48 H75 0.929 . S
C49 Tb40 2.764 . S
C49 C43 1.504 . S
C49 O61 1.239 . S
C49 O62 1.263 . S
O50 Tb40 2.325 . S
O50 C60 1.236 . S
O51 Tb41 2.322 1_455 S
O51 C60 1.257 . S
O52 Tb41 2.349 1_455 S
O52 C63 1.261 . S
O53 Tb40 2.303 . S
O53 C63 1.257 . S
O54 Tb41 2.415 . S
O54 C70 1.239 . S
O55 Tb41 2.399 . S
O55 C70 1.263 . S
O56 Tb41 2.325 . S
O56 C71 1.236 . S
O57 Tb40 2.322 1_655 S
O57 C71 1.257 . S
O58 Tb40 2.349 . S
O58 C42 1.261 . S
O59 Tb41 2.303 1_455 S
O59 C42 1.257 . S
C60 O50 1.236 . S
C60 O51 1.257 . S
O61 Tb40 2.415 . S
O61 C49 1.239 . S
O62 Tb40 2.399 . S
O62 C49 1.263 . S
C63 O52 1.261 . S
C63 O53 1.257 . S
C64 C67 1.358 . S
C64 C68 1.332 . S
C64 C70 1.504 . S
C65 C66 1.373 . S
C65 C69 1.308 . S
C66 C65 1.373 . S
C66 C67 1.429 . S
C66 H76 0.932 . S
C67 C64 1.358 . S
C67 C66 1.429 . S
C67 H77 0.930 . S
C68 C64 1.332 . S
C68 C69 1.394 . S
C68 H78 0.932 . S
C69 C65 1.308 . S
C69 C68 1.394 . S
C69 H79 0.929 . S
C70 Tb41 2.764 . S
C70 O54 1.239 . S
C70 O55 1.263 . S
C70 C64 1.504 . S
C71 O56 1.236 . S
C71 O57 1.257 . S
H72 C45 0.932 . S
H73 C46 0.930 . S
H74 C47 0.932 . S
H75 C48 0.929 . S
H76 C66 0.932 . S
H77 C67 0.930 . S
H78 C68 0.932 . S
H79 C69 0.929 . S
Tb80 C89 2.764 . S
Tb80 O90 2.325 . S
Tb80 O93 2.303 . S
Tb80 O97 2.322 . S
Tb80 O98 2.349 . S
Tb80 O101 2.415 . S
Tb80 O102 2.399 . S
Tb81 O91 2.322 . S
Tb81 O92 2.349 . S
Tb81 O94 2.415 . S
Tb81 O95 2.399 . S
Tb81 O96 2.325 . S
Tb81 O99 2.303 . S
Tb81 C110 2.764 . S
C82 O98 1.261 . S
C82 O99 1.257 . S
C83 C86 1.358 . S
C83 C87 1.332 . S
C83 C89 1.504 . S
C84 C85 1.373 . S
C84 C88 1.308 . S
C85 C84 1.373 . S
C85 C86 1.429 . S
C85 H112 0.932 . S
C86 C83 1.358 . S
C86 C85 1.429 . S
C86 H113 0.930 . S
C87 C83 1.332 . S
C87 C88 1.394 . S
C87 H114 0.932 . S
C88 C84 1.308 . S
C88 C87 1.394 . S
C88 H115 0.929 . S
C89 Tb80 2.764 . S
C89 C83 1.504 . S
C89 O101 1.239 . S
C89 O102 1.263 . S
O90 Tb80 2.325 . S
O90 C100 1.236 . S
O91 Tb81 2.322 . S
O91 C100 1.257 . S
O92 Tb81 2.349 . S
O92 C103 1.261 . S
O93 Tb80 2.303 . S
O93 C103 1.257 . S
O94 Tb81 2.415 . S
O94 C110 1.239 . S
O95 Tb81 2.399 . S
O95 C110 1.263 . S
O96 Tb81 2.325 . S
O96 C111 1.236 . S
O97 Tb80 2.322 . S
O97 C111 1.257 . S
O98 Tb80 2.349 . S
O98 C82 1.261 . S
O99 Tb81 2.303 . S
O99 C82 1.257 . S
C100 O90 1.236 . S
C100 O91 1.257 . S
O101 Tb80 2.415 . S
O101 C89 1.239 . S
O102 Tb80 2.399 . S
O102 C89 1.263 . S
C103 O92 1.261 . S
C103 O93 1.257 . S
C104 C107 1.358 . S
C104 C108 1.332 . S
C104 C110 1.504 . S
C105 C106 1.373 . S
C105 C109 1.308 . S
C106 C105 1.373 . S
C106 C107 1.429 . S
C106 H116 0.932 . S
C107 C104 1.358 . S
C107 C106 1.429 . S
C107 H117 0.930 . S
C108 C104 1.332 . S
C108 C109 1.394 . S
C108 H118 0.932 . S
C109 C105 1.308 . S
C109 C108 1.394 . S
C109 H119 0.929 . S
C110 Tb81 2.764 . S
C110 O94 1.239 . S
C110 O95 1.263 . S
C110 C104 1.504 . S
C111 O96 1.236 . S
C111 O97 1.257 . S
H112 C85 0.932 . S
H113 C86 0.930 . S
H114 C87 0.932 . S
H115 C88 0.929 . S
H116 C106 0.932 . S
H117 C107 0.930 . S
H118 C108 0.932 . S
H119 C109 0.929 . S
Tb120 C129 2.764 1_455 S
Tb120 O130 2.325 1_455 S
Tb120 O133 2.303 . S
Tb120 O137 2.322 . S
Tb120 O138 2.349 . S
Tb120 O141 2.415 1_455 S
Tb120 O142 2.399 1_455 S
Tb121 O131 2.322 . S
Tb121 O132 2.349 . S
Tb121 O134 2.415 . S
Tb121 O135 2.399 . S
Tb121 O136 2.325 . S
Tb121 O139 2.303 . S
Tb121 C150 2.764 . S
C122 O138 1.261 . S
C122 O139 1.257 . S
C123 C126 1.358 . S
C123 C127 1.332 . S
C123 C129 1.504 . S
C124 C125 1.373 . S
C124 C128 1.308 . S
C125 C124 1.373 . S
C125 C126 1.429 . S
C125 H152 0.932 . S
C126 C123 1.358 . S
C126 C125 1.429 . S
C126 H153 0.930 . S
C127 C123 1.332 . S
C127 C128 1.394 . S
C127 H154 0.932 . S
C128 C124 1.308 . S
C128 C127 1.394 . S
C128 H155 0.929 . S
C129 Tb120 2.764 1_655 S
C129 C123 1.504 . S
C129 O141 1.239 . S
C129 O142 1.263 . S
O130 Tb120 2.325 1_655 S
O130 C140 1.236 . S
O131 Tb121 2.322 . S
O131 C140 1.257 1_455 S
O132 Tb121 2.349 . S
O132 C143 1.261 . S
O133 Tb120 2.303 . S
O133 C143 1.257 . S
O134 Tb121 2.415 . S
O134 C150 1.239 . S
O135 Tb121 2.399 . S
O135 C150 1.263 . S
O136 Tb121 2.325 . S
O136 C151 1.236 . S
O137 Tb120 2.322 . S
O137 C151 1.257 . S
O138 Tb120 2.349 . S
O138 C122 1.261 . S
O139 Tb121 2.303 . S
O139 C122 1.257 . S
C140 O130 1.236 . S
C140 O131 1.257 1_655 S
O141 Tb120 2.415 1_655 S
O141 C129 1.239 . S
O142 Tb120 2.399 1_655 S
O142 C129 1.263 . S
C143 O132 1.261 . S
C143 O133 1.257 . S
C144 C147 1.358 . S
C144 C148 1.332 . S
C144 C150 1.504 . S
C145 C146 1.373 . S
C145 C149 1.308 . S
C146 C145 1.373 . S
C146 C147 1.429 . S
C146 H156 0.932 . S
C147 C144 1.358 . S
C147 C146 1.429 . S
C147 H157 0.930 . S
C148 C144 1.332 . S
C148 C149 1.394 . S
C148 H158 0.932 . S
C149 C145 1.308 . S
C149 C148 1.394 . S
C149 H159 0.929 . S
C150 Tb121 2.764 . S
C150 O134 1.239 . S
C150 O135 1.263 . S
C150 C144 1.504 . S
C151 O136 1.236 . S
C151 O137 1.257 . S
H152 C125 0.932 . S
H153 C126 0.930 . S
H154 C127 0.932 . S
H155 C128 0.929 . S
H156 C146 0.932 . S
H157 C147 0.930 . S
H158 C148 0.932 . S
H159 C149 0.929 . S
Tb160 C169 2.764 . S
Tb160 O170 2.325 . S
Tb160 O173 2.303 . S
Tb160 O177 2.322 . S
Tb160 O178 2.349 . S
Tb160 O181 2.415 . S
Tb160 O182 2.399 . S
Tb161 O171 2.322 . S
Tb161 O172 2.349 . S
Tb161 O174 2.415 . S
Tb161 O175 2.399 . S
Tb161 O176 2.325 . S
Tb161 O179 2.303 . S
Tb161 C190 2.764 . S
C162 O178 1.261 . S
C162 O179 1.257 . S
C163 C166 1.358 . S
C163 C167 1.332 . S
C163 C169 1.504 . S
C164 C165 1.373 . S
C164 C168 1.308 . S
C165 C164 1.373 . S
C165 C166 1.429 . S
C165 H192 0.932 . S
C166 C163 1.358 . S
C166 C165 1.429 . S
C166 H193 0.930 . S
C167 C163 1.332 . S
C167 C168 1.394 . S
C167 H194 0.932 . S
C168 C164 1.308 . S
C168 C167 1.394 . S
C168 H195 0.929 . S
C169 Tb160 2.764 . S
C169 C163 1.504 . S
C169 O181 1.239 . S
C169 O182 1.263 . S
O170 Tb160 2.325 . S
O170 C180 1.236 . S
O171 Tb161 2.322 . S
O171 C180 1.257 . S
O172 Tb161 2.349 . S
O172 C183 1.261 . S
O173 Tb160 2.303 . S
O173 C183 1.257 . S
O174 Tb161 2.415 . S
O174 C190 1.239 . S
O175 Tb161 2.399 . S
O175 C190 1.263 . S
O176 Tb161 2.325 . S
O176 C191 1.236 . S
O177 Tb160 2.322 . S
O177 C191 1.257 . S
O178 Tb160 2.349 . S
O178 C162 1.261 . S
O179 Tb161 2.303 . S
O179 C162 1.257 . S
C180 O170 1.236 . S
C180 O171 1.257 . S
O181 Tb160 2.415 . S
O181 C169 1.239 . S
O182 Tb160 2.399 . S
O182 C169 1.263 . S
C183 O172 1.261 . S
C183 O173 1.257 . S
C184 C187 1.358 . S
C184 C188 1.332 . S
C184 C190 1.504 . S
C185 C186 1.373 . S
C185 C189 1.308 . S
C186 C185 1.373 . S
C186 C187 1.429 . S
C186 H196 0.932 . S
C187 C184 1.358 . S
C187 C186 1.429 . S
C187 H197 0.930 . S
C188 C184 1.332 . S
C188 C189 1.394 . S
C188 H198 0.932 . S
C189 C185 1.308 . S
C189 C188 1.394 . S
C189 H199 0.929 . S
C190 Tb161 2.764 . S
C190 O174 1.239 . S
C190 O175 1.263 . S
C190 C184 1.504 . S
C191 O176 1.236 . S
C191 O177 1.257 . S
H192 C165 0.932 . S
H193 C166 0.930 . S
H194 C167 0.932 . S
H195 C168 0.929 . S
H196 C186 0.932 . S
H197 C187 0.930 . S
H198 C188 0.932 . S
H199 C189 0.929 . S
Tb200 C209 2.764 . S
Tb200 O210 2.325 . S
Tb200 O213 2.303 . S
Tb200 O217 2.322 1_545 S
Tb200 O218 2.349 . S
Tb200 O221 2.415 . S
Tb200 O222 2.399 . S
Tb201 O211 2.322 1_565 S
Tb201 O212 2.349 1_565 S
Tb201 O214 2.415 . S
Tb201 O215 2.399 . S
Tb201 O216 2.325 . S
Tb201 O219 2.303 1_565 S
Tb201 C230 2.764 . S
C202 O218 1.261 . S
C202 O219 1.257 . S
C203 C206 1.358 . S
C203 C207 1.332 . S
C203 C209 1.504 . S
C204 C205 1.373 . S
C204 C208 1.308 . S
C205 C204 1.373 . S
C205 C206 1.429 . S
C205 H232 0.932 . S
C206 C203 1.358 . S
C206 C205 1.429 . S
C206 H233 0.930 . S
C207 C203 1.332 . S
C207 C208 1.394 . S
C207 H234 0.932 . S
C208 C204 1.308 . S
C208 C207 1.394 . S
C208 H235 0.929 . S
C209 Tb200 2.764 . S
C209 C203 1.504 . S
C209 O221 1.239 . S
C209 O222 1.263 . S
O210 Tb200 2.325 . S
O210 C220 1.236 . S
O211 Tb201 2.322 1_545 S
O211 C220 1.257 . S
O212 Tb201 2.349 1_545 S
O212 C223 1.261 . S
O213 Tb200 2.303 . S
O213 C223 1.257 . S
O214 Tb201 2.415 . S
O214 C230 1.239 . S
O215 Tb201 2.399 . S
O215 C230 1.263 . S
O216 Tb201 2.325 . S
O216 C231 1.236 . S
O217 Tb200 2.322 1_565 S
O217 C231 1.257 . S
O218 Tb200 2.349 . S
O218 C202 1.261 . S
O219 Tb201 2.303 1_545 S
O219 C202 1.257 . S
C220 O210 1.236 . S
C220 O211 1.257 . S
O221 Tb200 2.415 . S
O221 C209 1.239 . S
O222 Tb200 2.399 . S
O222 C209 1.263 . S
C223 O212 1.261 . S
C223 O213 1.257 . S
C224 C227 1.358 . S
C224 C228 1.332 . S
C224 C230 1.504 . S
C225 C226 1.373 . S
C225 C229 1.308 . S
C226 C225 1.373 . S
C226 C227 1.429 . S
C226 H236 0.932 . S
C227 C224 1.358 . S
C227 C226 1.429 . S
C227 H237 0.930 . S
C228 C224 1.332 . S
C228 C229 1.394 . S
C228 H238 0.932 . S
C229 C225 1.308 . S
C229 C228 1.394 . S
C229 H239 0.929 . S
C230 Tb201 2.764 . S
C230 O214 1.239 . S
C230 O215 1.263 . S
C230 C224 1.504 . S
C231 O216 1.236 . S
C231 O217 1.257 . S
H232 C205 0.932 . S
H233 C206 0.930 . S
H234 C207 0.932 . S
H235 C208 0.929 . S
H236 C226 0.932 . S
H237 C227 0.930 . S
H238 C228 0.932 . S
H239 C229 0.929 . S
Tb240 C249 2.764 . S
Tb240 O250 2.325 . S
Tb240 O253 2.303 1_565 S
Tb240 O257 2.322 1_565 S
Tb240 O258 2.349 1_565 S
Tb240 O261 2.415 . S
Tb240 O262 2.399 . S
Tb241 O251 2.322 1_545 S
Tb241 O252 2.349 . S
Tb241 O254 2.415 . S
Tb241 O255 2.399 . S
Tb241 O256 2.325 . S
Tb241 O259 2.303 . S
Tb241 C270 2.764 . S
C242 O258 1.261 . S
C242 O259 1.257 . S
C243 C246 1.358 . S
C243 C247 1.332 . S
C243 C249 1.504 . S
C244 C245 1.373 . S
C244 C248 1.308 . S
C245 C244 1.373 . S
C245 C246 1.429 . S
C245 H272 0.932 . S
C246 C243 1.358 . S
C246 C245 1.429 . S
C246 H273 0.930 . S
C247 C243 1.332 . S
C247 C248 1.394 . S
C247 H274 0.932 . S
C248 C244 1.308 . S
C248 C247 1.394 . S
C248 H275 0.929 . S
C249 Tb240 2.764 . S
C249 C243 1.504 . S
C249 O261 1.239 . S
C249 O262 1.263 . S
O250 Tb240 2.325 . S
O250 C260 1.236 . S
O251 Tb241 2.322 1_565 S
O251 C260 1.257 . S
O252 Tb241 2.349 . S
O252 C263 1.261 . S
O253 Tb240 2.303 1_545 S
O253 C263 1.257 . S
O254 Tb241 2.415 . S
O254 C270 1.239 . S
O255 Tb241 2.399 . S
O255 C270 1.263 . S
O256 Tb241 2.325 . S
O256 C271 1.236 . S
O257 Tb240 2.322 1_545 S
O257 C271 1.257 . S
O258 Tb240 2.349 1_545 S
O258 C242 1.261 . S
O259 Tb241 2.303 . S
O259 C242 1.257 . S
C260 O250 1.236 . S
C260 O251 1.257 . S
O261 Tb240 2.415 . S
O261 C249 1.239 . S
O262 Tb240 2.399 . S
O262 C249 1.263 . S
C263 O252 1.261 . S
C263 O253 1.257 . S
C264 C267 1.358 . S
C264 C268 1.332 . S
C264 C270 1.504 . S
C265 C266 1.373 . S
C265 C269 1.308 . S
C266 C265 1.373 . S
C266 C267 1.429 . S
C266 H276 0.932 . S
C267 C264 1.358 . S
C267 C266 1.429 . S
C267 H277 0.930 . S
C268 C264 1.332 . S
C268 C269 1.394 . S
C268 H278 0.932 . S
C269 C265 1.308 . S
C269 C268 1.394 . S
C269 H279 0.929 . S
C270 Tb241 2.764 . S
C270 O254 1.239 . S
C270 O255 1.263 . S
C270 C264 1.504 . S
C271 O256 1.236 . S
C271 O257 1.257 . S
H272 C245 0.932 . S
H273 C246 0.930 . S
H274 C247 0.932 . S
H275 C248 0.929 . S
H276 C266 0.932 . S
H277 C267 0.930 . S
H278 C268 0.932 . S
H279 C269 0.929 . S
Tb280 C289 2.764 . S
Tb280 O290 2.325 . S
Tb280 O293 2.303 . S
Tb280 O297 2.322 . S
Tb280 O298 2.349 . S
Tb280 O301 2.415 . S
Tb280 O302 2.399 . S
Tb281 O291 2.322 . S
Tb281 O292 2.349 . S
Tb281 O294 2.415 1_455 S
Tb281 O295 2.399 1_455 S
Tb281 O296 2.325 1_455 S
Tb281 O299 2.303 . S
Tb281 C310 2.764 1_455 S
C282 O298 1.261 . S
C282 O299 1.257 . S
C283 C286 1.358 . S
C283 C287 1.332 . S
C283 C289 1.504 . S
C284 C285 1.373 . S
C284 C288 1.308 . S
C285 C284 1.373 . S
C285 C286 1.429 . S
C285 H312 0.932 . S
C286 C283 1.358 . S
C286 C285 1.429 . S
C286 H313 0.930 . S
C287 C283 1.332 . S
C287 C288 1.394 . S
C287 H314 0.932 . S
C288 C284 1.308 . S
C288 C287 1.394 . S
C288 H315 0.929 . S
C289 Tb280 2.764 . S
C289 C283 1.504 . S
C289 O301 1.239 . S
C289 O302 1.263 . S
O290 Tb280 2.325 . S
O290 C300 1.236 . S
O291 Tb281 2.322 . S
O291 C300 1.257 . S
O292 Tb281 2.349 . S
O292 C303 1.261 . S
O293 Tb280 2.303 . S
O293 C303 1.257 . S
O294 Tb281 2.415 1_655 S
O294 C310 1.239 . S
O295 Tb281 2.399 1_655 S
O295 C310 1.263 . S
O296 Tb281 2.325 1_655 S
O296 C311 1.236 . S
O297 Tb280 2.322 . S
O297 C311 1.257 1_455 S
O298 Tb280 2.349 . S
O298 C282 1.261 . S
O299 Tb281 2.303 . S
O299 C282 1.257 . S
C300 O290 1.236 . S
C300 O291 1.257 . S
O301 Tb280 2.415 . S
O301 C289 1.239 . S
O302 Tb280 2.399 . S
O302 C289 1.263 . S
C303 O292 1.261 . S
C303 O293 1.257 . S
C304 C307 1.358 . S
C304 C308 1.332 . S
C304 C310 1.504 . S
C305 C306 1.373 . S
C305 C309 1.308 . S
C306 C305 1.373 . S
C306 C307 1.429 . S
C306 H316 0.932 . S
C307 C304 1.358 . S
C307 C306 1.429 . S
C307 H317 0.930 . S
C308 C304 1.332 . S
C308 C309 1.394 . S
C308 H318 0.932 . S
C309 C305 1.308 . S
C309 C308 1.394 . S
C309 H319 0.929 . S
C310 Tb281 2.764 1_655 S
C310 O294 1.239 . S
C310 O295 1.263 . S
C310 C304 1.504 . S
C311 O296 1.236 . S
C311 O297 1.257 1_655 S
H312 C285 0.932 . S
H313 C286 0.930 . S
H314 C287 0.932 . S
H315 C288 0.929 . S
H316 C306 0.932 . S
H317 C307 0.930 . S
H318 C308 0.932 . S
H319 C309 0.929 . S
Tb320 C329 2.764 . S
Tb320 O330 2.325 . S
Tb320 O333 2.303 . S
Tb320 O337 2.322 . S
Tb320 O338 2.349 . S
Tb320 O341 2.415 . S
Tb320 O342 2.399 . S
Tb321 O331 2.322 . S
Tb321 O332 2.349 . S
Tb321 O334 2.415 . S
Tb321 O335 2.399 . S
Tb321 O336 2.325 . S
Tb321 O339 2.303 . S
Tb321 C350 2.764 . S
C322 O338 1.261 . S
C322 O339 1.257 . S
C323 C326 1.358 . S
C323 C327 1.332 . S
C323 C329 1.504 . S
C324 C325 1.373 . S
C324 C328 1.308 . S
C325 C324 1.373 . S
C325 C326 1.429 . S
C325 H352 0.932 . S
C326 C323 1.358 . S
C326 C325 1.429 . S
C326 H353 0.930 . S
C327 C323 1.332 . S
C327 C328 1.394 . S
C327 H354 0.932 . S
C328 C324 1.308 . S
C328 C327 1.394 . S
C328 H355 0.929 . S
C329 Tb320 2.764 . S
C329 C323 1.504 . S
C329 O341 1.239 . S
C329 O342 1.263 . S
O330 Tb320 2.325 . S
O330 C340 1.236 . S
O331 Tb321 2.322 . S
O331 C340 1.257 . S
O332 Tb321 2.349 . S
O332 C343 1.261 . S
O333 Tb320 2.303 . S
O333 C343 1.257 . S
O334 Tb321 2.415 . S
O334 C350 1.239 . S
O335 Tb321 2.399 . S
O335 C350 1.263 . S
O336 Tb321 2.325 . S
O336 C351 1.236 . S
O337 Tb320 2.322 . S
O337 C351 1.257 . S
O338 Tb320 2.349 . S
O338 C322 1.261 . S
O339 Tb321 2.303 . S
O339 C322 1.257 . S
C340 O330 1.236 . S
C340 O331 1.257 . S
O341 Tb320 2.415 . S
O341 C329 1.239 . S
O342 Tb320 2.399 . S
O342 C329 1.263 . S
C343 O332 1.261 . S
C343 O333 1.257 . S
C344 C347 1.358 . S
C344 C348 1.332 . S
C344 C350 1.504 . S
C345 C346 1.373 . S
C345 C349 1.308 . S
C346 C345 1.373 . S
C346 C347 1.429 . S
C346 H356 0.932 . S
C347 C344 1.358 . S
C347 C346 1.429 . S
C347 H357 0.930 . S
C348 C344 1.332 . S
C348 C349 1.394 . S
C348 H358 0.932 . S
C349 C345 1.308 . S
C349 C348 1.394 . S
C349 H359 0.929 . S
C350 Tb321 2.764 . S
C350 O334 1.239 . S
C350 O335 1.263 . S
C350 C344 1.504 . S
C351 O336 1.236 . S
C351 O337 1.257 . S
H352 C325 0.932 . S
H353 C326 0.930 . S
H354 C327 0.932 . S
H355 C328 0.929 . S
H356 C346 0.932 . S
H357 C347 0.930 . S
H358 C348 0.932 . S
H359 C349 0.929 . S
Tb360 C369 2.764 . S
Tb360 O370 2.325 . S
Tb360 O373 2.303 1_655 S
Tb360 O377 2.322 1_655 S
Tb360 O378 2.349 1_655 S
Tb360 O381 2.415 . S
Tb360 O382 2.399 . S
Tb361 O371 2.322 1_455 S
Tb361 O372 2.349 . S
Tb361 O374 2.415 . S
Tb361 O375 2.399 . S
Tb361 O376 2.325 . S
Tb361 O379 2.303 . S
Tb361 C390 2.764 . S
C362 O378 1.261 . S
C362 O379 1.257 . S
C363 C366 1.358 . S
C363 C367 1.332 . S
C363 C369 1.504 . S
C364 C365 1.373 . S
C364 C368 1.308 . S
C365 C364 1.373 . S
C365 C366 1.429 . S
C365 H392 0.932 . S
C366 C363 1.358 . S
C366 C365 1.429 . S
C366 H393 0.930 . S
C367 C363 1.332 . S
C367 C368 1.394 . S
C367 H394 0.932 . S
C368 C364 1.308 . S
C368 C367 1.394 . S
C368 H395 0.929 . S
C369 Tb360 2.764 . S
C369 C363 1.504 . S
C369 O381 1.239 . S
C369 O382 1.263 . S
O370 Tb360 2.325 . S
O370 C380 1.236 . S
O371 Tb361 2.322 1_655 S
O371 C380 1.257 . S
O372 Tb361 2.349 . S
O372 C383 1.261 . S
O373 Tb360 2.303 1_455 S
O373 C383 1.257 . S
O374 Tb361 2.415 . S
O374 C390 1.239 . S
O375 Tb361 2.399 . S
O375 C390 1.263 . S
O376 Tb361 2.325 . S
O376 C391 1.236 . S
O377 Tb360 2.322 1_455 S
O377 C391 1.257 . S
O378 Tb360 2.349 1_455 S
O378 C362 1.261 . S
O379 Tb361 2.303 . S
O379 C362 1.257 . S
C380 O370 1.236 . S
C380 O371 1.257 . S
O381 Tb360 2.415 . S
O381 C369 1.239 . S
O382 Tb360 2.399 . S
O382 C369 1.263 . S
C383 O372 1.261 . S
C383 O373 1.257 . S
C384 C387 1.358 . S
C384 C388 1.332 . S
C384 C390 1.504 . S
C385 C386 1.373 . S
C385 C389 1.308 . S
C386 C385 1.373 . S
C386 C387 1.429 . S
C386 H396 0.932 . S
C387 C384 1.358 . S
C387 C386 1.429 . S
C387 H397 0.930 . S
C388 C384 1.332 . S
C388 C389 1.394 . S
C388 H398 0.932 . S
C389 C385 1.308 . S
C389 C388 1.394 . S
C389 H399 0.929 . S
C390 Tb361 2.764 . S
C390 O374 1.239 . S
C390 O375 1.263 . S
C390 C384 1.504 . S
C391 O376 1.236 . S
C391 O377 1.257 . S
H392 C365 0.932 . S
H393 C366 0.930 . S
H394 C367 0.932 . S
H395 C368 0.929 . S
H396 C386 0.932 . S
H397 C387 0.930 . S
H398 C388 0.932 . S
H399 C389 0.929 . S
Tb400 C409 2.764 . S
Tb400 O410 2.325 . S
Tb400 O413 2.303 . S
Tb400 O417 2.322 . S
Tb400 O418 2.349 . S
Tb400 O421 2.415 . S
Tb400 O422 2.399 . S
Tb401 O411 2.322 . S
Tb401 O412 2.349 . S
Tb401 O414 2.415 . S
Tb401 O415 2.399 . S
Tb401 O416 2.325 . S
Tb401 O419 2.303 . S
Tb401 C430 2.764 . S
C402 O418 1.261 . S
C402 O419 1.257 . S
C403 C406 1.358 . S
C403 C407 1.332 . S
C403 C409 1.504 . S
C404 C405 1.373 . S
C404 C408 1.308 . S
C405 C404 1.373 . S
C405 C406 1.429 . S
C405 H432 0.932 . S
C406 C403 1.358 . S
C406 C405 1.429 . S
C406 H433 0.930 . S
C407 C403 1.332 . S
C407 C408 1.394 . S
C407 H434 0.932 . S
C408 C404 1.308 . S
C408 C407 1.394 . S
C408 H435 0.929 . S
C409 Tb400 2.764 . S
C409 C403 1.504 . S
C409 O421 1.239 . S
C409 O422 1.263 . S
O410 Tb400 2.325 . S
O410 C420 1.236 . S
O411 Tb401 2.322 . S
O411 C420 1.257 . S
O412 Tb401 2.349 . S
O412 C423 1.261 . S
O413 Tb400 2.303 . S
O413 C423 1.257 . S
O414 Tb401 2.415 . S
O414 C430 1.239 . S
O415 Tb401 2.399 . S
O415 C430 1.263 . S
O416 Tb401 2.325 . S
O416 C431 1.236 . S
O417 Tb400 2.322 . S
O417 C431 1.257 . S
O418 Tb400 2.349 . S
O418 C402 1.261 . S
O419 Tb401 2.303 . S
O419 C402 1.257 . S
C420 O410 1.236 . S
C420 O411 1.257 . S
O421 Tb400 2.415 . S
O421 C409 1.239 . S
O422 Tb400 2.399 . S
O422 C409 1.263 . S
C423 O412 1.261 . S
C423 O413 1.257 . S
C424 C427 1.358 . S
C424 C428 1.332 . S
C424 C430 1.504 . S
C425 C426 1.373 . S
C425 C429 1.308 . S
C426 C425 1.373 . S
C426 C427 1.429 . S
C426 H436 0.932 . S
C427 C424 1.358 . S
C427 C426 1.429 . S
C427 H437 0.930 . S
C428 C424 1.332 . S
C428 C429 1.394 . S
C428 H438 0.932 . S
C429 C425 1.308 . S
C429 C428 1.394 . S
C429 H439 0.929 . S
C430 Tb401 2.764 . S
C430 O414 1.239 . S
C430 O415 1.263 . S
C430 C424 1.504 . S
C431 O416 1.236 . S
C431 O417 1.257 . S
H432 C405 0.932 . S
H433 C406 0.930 . S
H434 C407 0.932 . S
H435 C408 0.929 . S
H436 C426 0.932 . S
H437 C427 0.930 . S
H438 C428 0.932 . S
H439 C429 0.929 . S
Tb440 C449 2.764 . S
Tb440 O450 2.325 . S
Tb440 O453 2.303 . S
Tb440 O457 2.322 . S
Tb440 O458 2.349 . S
Tb440 O461 2.415 . S
Tb440 O462 2.399 . S
Tb441 O451 2.322 . S
Tb441 O452 2.349 . S
Tb441 O454 2.415 1_545 S
Tb441 O455 2.399 1_545 S
Tb441 O456 2.325 1_545 S
Tb441 O459 2.303 . S
Tb441 C470 2.764 1_545 S
C442 O458 1.261 . S
C442 O459 1.257 . S
C443 C446 1.358 . S
C443 C447 1.332 . S
C443 C449 1.504 . S
C444 C445 1.373 . S
C444 C448 1.308 . S
C445 C444 1.373 . S
C445 C446 1.429 . S
C445 H472 0.932 . S
C446 C443 1.358 . S
C446 C445 1.429 . S
C446 H473 0.930 . S
C447 C443 1.332 . S
C447 C448 1.394 . S
C447 H474 0.932 . S
C448 C444 1.308 . S
C448 C447 1.394 . S
C448 H475 0.929 . S
C449 Tb440 2.764 . S
C449 C443 1.504 . S
C449 O461 1.239 . S
C449 O462 1.263 . S
O450 Tb440 2.325 . S
O450 C460 1.236 . S
O451 Tb441 2.322 . S
O451 C460 1.257 . S
O452 Tb441 2.349 . S
O452 C463 1.261 . S
O453 Tb440 2.303 . S
O453 C463 1.257 . S
O454 Tb441 2.415 1_565 S
O454 C470 1.239 . S
O455 Tb441 2.399 1_565 S
O455 C470 1.263 . S
O456 Tb441 2.325 1_565 S
O456 C471 1.236 . S
O457 Tb440 2.322 . S
O457 C471 1.257 1_545 S
O458 Tb440 2.349 . S
O458 C442 1.261 . S
O459 Tb441 2.303 . S
O459 C442 1.257 . S
C460 O450 1.236 . S
C460 O451 1.257 . S
O461 Tb440 2.415 . S
O461 C449 1.239 . S
O462 Tb440 2.399 . S
O462 C449 1.263 . S
C463 O452 1.261 . S
C463 O453 1.257 . S
C464 C467 1.358 . S
C464 C468 1.332 . S
C464 C470 1.504 . S
C465 C466 1.373 . S
C465 C469 1.308 . S
C466 C465 1.373 . S
C466 C467 1.429 . S
C466 H476 0.932 . S
C467 C464 1.358 . S
C467 C466 1.429 . S
C467 H477 0.930 . S
C468 C464 1.332 . S
C468 C469 1.394 . S
C468 H478 0.932 . S
C469 C465 1.308 . S
C469 C468 1.394 . S
C469 H479 0.929 . S
C470 Tb441 2.764 1_565 S
C470 O454 1.239 . S
C470 O455 1.263 . S
C470 C464 1.504 . S
C471 O456 1.236 . S
C471 O457 1.257 1_565 S
H472 C445 0.932 . S
H473 C446 0.930 . S
H474 C447 0.932 . S
H475 C448 0.929 . S
H476 C466 0.932 . S
H477 C467 0.930 . S
H478 C468 0.932 . S
H479 C469 0.929 . S
Tb480 C489 2.764 . S
Tb480 O490 2.325 . S
Tb480 O493 2.303 . S
Tb480 O497 2.322 . S
Tb480 O498 2.349 . S
Tb480 O501 2.415 . S
Tb480 O502 2.399 . S
Tb481 O491 2.322 . S
Tb481 O492 2.349 . S
Tb481 O494 2.415 . S
Tb481 O495 2.399 . S
Tb481 O496 2.325 . S
Tb481 O499 2.303 . S
Tb481 C510 2.764 . S
C482 O498 1.261 . S
C482 O499 1.257 . S
C483 C486 1.358 . S
C483 C487 1.332 . S
C483 C489 1.504 . S
C484 C485 1.373 . S
C484 C488 1.308 . S
C485 C484 1.373 . S
C485 C486 1.429 . S
C485 H512 0.932 . S
C486 C483 1.358 . S
C486 C485 1.429 . S
C486 H513 0.930 . S
C487 C483 1.332 . S
C487 C488 1.394 . S
C487 H514 0.932 . S
C488 C484 1.308 . S
C488 C487 1.394 . S
C488 H515 0.929 . S
C489 Tb480 2.764 . S
C489 C483 1.504 . S
C489 O501 1.239 . S
C489 O502 1.263 . S
O490 Tb480 2.325 . S
O490 C500 1.236 . S
O491 Tb481 2.322 . S
O491 C500 1.257 . S
O492 Tb481 2.349 . S
O492 C503 1.261 . S
O493 Tb480 2.303 . S
O493 C503 1.257 . S
O494 Tb481 2.415 . S
O494 C510 1.239 . S
O495 Tb481 2.399 . S
O495 C510 1.263 . S
O496 Tb481 2.325 . S
O496 C511 1.236 . S
O497 Tb480 2.322 . S
O497 C511 1.257 . S
O498 Tb480 2.349 . S
O498 C482 1.261 . S
O499 Tb481 2.303 . S
O499 C482 1.257 . S
C500 O490 1.236 . S
C500 O491 1.257 . S
O501 Tb480 2.415 . S
O501 C489 1.239 . S
O502 Tb480 2.399 . S
O502 C489 1.263 . S
C503 O492 1.261 . S
C503 O493 1.257 . S
C504 C507 1.358 . S
C504 C508 1.332 . S
C504 C510 1.504 . S
C505 C506 1.373 . S
C505 C509 1.308 . S
C506 C505 1.373 . S
C506 C507 1.429 . S
C506 H516 0.932 . S
C507 C504 1.358 . S
C507 C506 1.429 . S
C507 H517 0.930 . S
C508 C504 1.332 . S
C508 C509 1.394 . S
C508 H518 0.932 . S
C509 C505 1.308 . S
C509 C508 1.394 . S
C509 H519 0.929 . S
C510 Tb481 2.764 . S
C510 O494 1.239 . S
C510 O495 1.263 . S
C510 C504 1.504 . S
C511 O496 1.236 . S
C511 O497 1.257 . S
H512 C485 0.932 . S
H513 C486 0.930 . S
H514 C487 0.932 . S
H515 C488 0.929 . S
H516 C506 0.932 . S
H517 C507 0.930 . S
H518 C508 0.932 . S
H519 C509 0.929 . S
Tb520 C529 2.764 . S
Tb520 O530 2.325 . S
Tb520 O533 2.303 . S
Tb520 O537 2.322 . S
Tb520 O538 2.349 . S
Tb520 O541 2.415 . S
Tb520 O542 2.399 . S
Tb521 O531 2.322 . S
Tb521 O532 2.349 . S
Tb521 O534 2.415 . S
Tb521 O535 2.399 . S
Tb521 O536 2.325 . S
Tb521 O539 2.303 . S
Tb521 C550 2.764 . S
C522 O538 1.261 . S
C522 O539 1.257 . S
C523 C526 1.358 . S
C523 C527 1.332 . S
C523 C529 1.504 1_545 S
C524 C525 1.373 . S
C524 C528 1.308 . S
C525 C524 1.373 . S
C525 C526 1.429 . S
C525 H552 0.932 . S
C526 C523 1.358 . S
C526 C525 1.429 . S
C526 H553 0.930 . S
C527 C523 1.332 . S
C527 C528 1.394 . S
C527 H554 0.932 . S
C528 C524 1.308 . S
C528 C527 1.394 . S
C528 H555 0.929 . S
C529 Tb520 2.764 . S
C529 C523 1.504 1_565 S
C529 O541 1.239 . S
C529 O542 1.263 . S
O530 Tb520 2.325 . S
O530 C540 1.236 . S
O531 Tb521 2.322 . S
O531 C540 1.257 . S
O532 Tb521 2.349 . S
O532 C543 1.261 . S
O533 Tb520 2.303 . S
O533 C543 1.257 . S
O534 Tb521 2.415 . S
O534 C550 1.239 . S
O535 Tb521 2.399 . S
O535 C550 1.263 . S
O536 Tb521 2.325 . S
O536 C551 1.236 . S
O537 Tb520 2.322 . S
O537 C551 1.257 . S
O538 Tb520 2.349 . S
O538 C522 1.261 . S
O539 Tb521 2.303 . S
O539 C522 1.257 . S
C540 O530 1.236 . S
C540 O531 1.257 . S
O541 Tb520 2.415 . S
O541 C529 1.239 . S
O542 Tb520 2.399 . S
O542 C529 1.263 . S
C543 O532 1.261 . S
C543 O533 1.257 . S
C544 C547 1.358 . S
C544 C548 1.332 . S
C544 C550 1.504 . S
C545 C546 1.373 . S
C545 C549 1.308 . S
C546 C545 1.373 . S
C546 C547 1.429 . S
C546 H556 0.932 . S
C547 C544 1.358 . S
C547 C546 1.429 . S
C547 H557 0.930 . S
C548 C544 1.332 . S
C548 C549 1.394 . S
C548 H558 0.932 . S
C549 C545 1.308 . S
C549 C548 1.394 . S
C549 H559 0.929 . S
C550 Tb521 2.764 . S
C550 O534 1.239 . S
C550 O535 1.263 . S
C550 C544 1.504 . S
C551 O536 1.236 . S
C551 O537 1.257 . S
H552 C525 0.932 . S
H553 C526 0.930 . S
H554 C527 0.932 . S
H555 C528 0.929 . S
H556 C546 0.932 . S
H557 C547 0.930 . S
H558 C548 0.932 . S
H559 C549 0.929 . S
Tb560 C569 2.764 . S
Tb560 O570 2.325 . S
Tb560 O573 2.303 . S
Tb560 O577 2.322 . S
Tb560 O578 2.349 . S
Tb560 O581 2.415 . S
Tb560 O582 2.399 . S
Tb561 O571 2.322 . S
Tb561 O572 2.349 . S
Tb561 O574 2.415 . S
Tb561 O575 2.399 . S
Tb561 O576 2.325 . S
Tb561 O579 2.303 . S
Tb561 C590 2.764 . S
C562 O578 1.261 . S
C562 O579 1.257 . S
C563 C566 1.358 . S
C563 C567 1.332 . S
C563 C569 1.504 . S
C564 C565 1.373 . S
C564 C568 1.308 1_655 S
C565 C564 1.373 . S
C565 C566 1.429 1_655 S
C565 H592 0.932 . S
C566 C563 1.358 . S
C566 C565 1.429 1_455 S
C566 H593 0.930 . S
C567 C563 1.332 . S
C567 C568 1.394 . S
C567 H594 0.932 . S
C568 C564 1.308 1_455 S
C568 C567 1.394 . S
C568 H595 0.929 1_455 S
C569 Tb560 2.764 . S
C569 C563 1.504 . S
C569 O581 1.239 . S
C569 O582 1.263 . S
O570 Tb560 2.325 . S
O570 C580 1.236 . S
O571 Tb561 2.322 . S
O571 C580 1.257 . S
O572 Tb561 2.349 . S
O572 C583 1.261 . S
O573 Tb560 2.303 . S
O573 C583 1.257 . S
O574 Tb561 2.415 . S
O574 C590 1.239 . S
O575 Tb561 2.399 . S
O575 C590 1.263 . S
O576 Tb561 2.325 . S
O576 C591 1.236 . S
O577 Tb560 2.322 . S
O577 C591 1.257 . S
O578 Tb560 2.349 . S
O578 C562 1.261 . S
O579 Tb561 2.303 . S
O579 C562 1.257 . S
C580 O570 1.236 . S
C580 O571 1.257 . S
O581 Tb560 2.415 . S
O581 C569 1.239 . S
O582 Tb560 2.399 . S
O582 C569 1.263 . S
C583 O572 1.261 . S
C583 O573 1.257 . S
C584 C587 1.358 . S
C584 C588 1.332 . S
C584 C590 1.504 . S
C585 C586 1.373 . S
C585 C589 1.308 . S
C586 C585 1.373 . S
C586 C587 1.429 . S
C586 H596 0.932 . S
C587 C584 1.358 . S
C587 C586 1.429 . S
C587 H597 0.930 . S
C588 C584 1.332 . S
C588 C589 1.394 . S
C588 H598 0.932 . S
C589 C585 1.308 . S
C589 C588 1.394 . S
C589 H599 0.929 . S
C590 Tb561 2.764 . S
C590 O574 1.239 . S
C590 O575 1.263 . S
C590 C584 1.504 . S
C591 O576 1.236 . S
C591 O577 1.257 . S
H592 C565 0.932 . S
H593 C566 0.930 . S
H594 C567 0.932 . S
H595 C568 0.929 1_655 S
H596 C586 0.932 . S
H597 C587 0.930 . S
H598 C588 0.932 . S
H599 C589 0.929 . S
Tb600 C609 2.764 . S
Tb600 O610 2.325 . S
Tb600 O613 2.303 . S
Tb600 O617 2.322 . S
Tb600 O618 2.349 . S
Tb600 O621 2.415 . S
Tb600 O622 2.399 . S
Tb601 O611 2.322 . S
Tb601 O612 2.349 . S
Tb601 O614 2.415 . S
Tb601 O615 2.399 . S
Tb601 O616 2.325 . S
Tb601 O619 2.303 . S
Tb601 C630 2.764 . S
C602 O618 1.261 . S
C602 O619 1.257 . S
C603 C606 1.358 . S
C603 C607 1.332 . S
C603 C609 1.504 . S
C604 C605 1.373 . S
C604 C608 1.308 . S
C605 C604 1.373 . S
C605 C606 1.429 . S
C605 H632 0.932 . S
C606 C603 1.358 . S
C606 C605 1.429 . S
C606 H633 0.930 . S
C607 C603 1.332 . S
C607 C608 1.394 . S
C607 H634 0.932 . S
C608 C604 1.308 . S
C608 C607 1.394 . S
C608 H635 0.929 . S
C609 Tb600 2.764 . S
C609 C603 1.504 . S
C609 O621 1.239 . S
C609 O622 1.263 . S
O610 Tb600 2.325 . S
O610 C620 1.236 . S
O611 Tb601 2.322 . S
O611 C620 1.257 . S
O612 Tb601 2.349 . S
O612 C623 1.261 . S
O613 Tb600 2.303 . S
O613 C623 1.257 . S
O614 Tb601 2.415 . S
O614 C630 1.239 . S
O615 Tb601 2.399 . S
O615 C630 1.263 . S
O616 Tb601 2.325 . S
O616 C631 1.236 . S
O617 Tb600 2.322 . S
O617 C631 1.257 . S
O618 Tb600 2.349 . S
O618 C602 1.261 . S
O619 Tb601 2.303 . S
O619 C602 1.257 . S
C620 O610 1.236 . S
C620 O611 1.257 . S
O621 Tb600 2.415 . S
O621 C609 1.239 . S
O622 Tb600 2.399 . S
O622 C609 1.263 . S
C623 O612 1.261 . S
C623 O613 1.257 . S
C624 C627 1.358 . S
C624 C628 1.332 . S
C624 C630 1.504 . S
C625 C626 1.373 . S
C625 C629 1.308 . S
C626 C625 1.373 . S
C626 C627 1.429 . S
C626 H636 0.932 . S
C627 C624 1.358 . S
C627 C626 1.429 . S
C627 H637 0.930 . S
C628 C624 1.332 . S
C628 C629 1.394 . S
C628 H638 0.932 . S
C629 C625 1.308 . S
C629 C628 1.394 . S
C629 H639 0.929 . S
C630 Tb601 2.764 . S
C630 O614 1.239 . S
C630 O615 1.263 . S
C630 C624 1.504 . S
C631 O616 1.236 . S
C631 O617 1.257 . S
H632 C605 0.932 . S
H633 C606 0.930 . S
H634 C607 0.932 . S
H635 C608 0.929 . S
H636 C626 0.932 . S
H637 C627 0.930 . S
H638 C628 0.932 . S
H639 C629 0.929 . S
Tb640 C649 2.764 . S
Tb640 O650 2.325 . S
Tb640 O653 2.303 . S
Tb640 O657 2.322 . S
Tb640 O658 2.349 . S
Tb640 O661 2.415 . S
Tb640 O662 2.399 . S
Tb641 O651 2.322 . S
Tb641 O652 2.349 . S
Tb641 O654 2.415 1_565 S
Tb641 O655 2.399 1_565 S
Tb641 O656 2.325 . S
Tb641 O659 2.303 . S
Tb641 C670 2.764 1_565 S
C642 O658 1.261 . S
C642 O659 1.257 . S
C643 C646 1.358 . S
C643 C647 1.332 . S
C643 C649 1.504 . S
C644 C645 1.373 . S
C644 C648 1.308 . S
C645 C644 1.373 . S
C645 C646 1.429 . S
C645 H672 0.932 . S
C646 C643 1.358 . S
C646 C645 1.429 . S
C646 H673 0.930 . S
C647 C643 1.332 . S
C647 C648 1.394 . S
C647 H674 0.932 . S
C648 C644 1.308 . S
C648 C647 1.394 . S
C648 H675 0.929 . S
C649 Tb640 2.764 . S
C649 C643 1.504 . S
C649 O661 1.239 . S
C649 O662 1.263 . S
O650 Tb640 2.325 . S
O650 C660 1.236 . S
O651 Tb641 2.322 . S
O651 C660 1.257 . S
O652 Tb641 2.349 . S
O652 C663 1.261 . S
O653 Tb640 2.303 . S
O653 C663 1.257 . S
O654 Tb641 2.415 1_545 S
O654 C670 1.239 . S
O655 Tb641 2.399 1_545 S
O655 C670 1.263 . S
O656 Tb641 2.325 . S
O656 C671 1.236 . S
O657 Tb640 2.322 . S
O657 C671 1.257 . S
O658 Tb640 2.349 . S
O658 C642 1.261 . S
O659 Tb641 2.303 . S
O659 C642 1.257 . S
C660 O650 1.236 . S
C660 O651 1.257 . S
O661 Tb640 2.415 . S
O661 C649 1.239 . S
O662 Tb640 2.399 . S
O662 C649 1.263 . S
C663 O652 1.261 . S
C663 O653 1.257 . S
C664 C667 1.358 . S
C664 C668 1.332 . S
C664 C670 1.504 . S
C665 C666 1.373 . S
C665 C669 1.308 . S
C666 C665 1.373 . S
C666 C667 1.429 . S
C666 H676 0.932 . S
C667 C664 1.358 . S
C667 C666 1.429 . S
C667 H677 0.930 . S
C668 C664 1.332 . S
C668 C669 1.394 . S
C668 H678 0.932 . S
C669 C665 1.308 . S
C669 C668 1.394 . S
C669 H679 0.929 . S
C670 Tb641 2.764 1_545 S
C670 O654 1.239 . S
C670 O655 1.263 . S
C670 C664 1.504 . S
C671 O656 1.236 . S
C671 O657 1.257 . S
H672 C645 0.932 . S
H673 C646 0.930 . S
H674 C647 0.932 . S
H675 C648 0.929 . S
H676 C666 0.932 . S
H677 C667 0.930 . S
H678 C668 0.932 . S
H679 C669 0.929 . S
Tb680 C689 2.764 . S
Tb680 O690 2.325 . S
Tb680 O693 2.303 . S
Tb680 O697 2.322 . S
Tb680 O698 2.349 . S
Tb680 O701 2.415 . S
Tb680 O702 2.399 . S
Tb681 O691 2.322 . S
Tb681 O692 2.349 . S
Tb681 O694 2.415 . S
Tb681 O695 2.399 . S
Tb681 O696 2.325 . S
Tb681 O699 2.303 . S
Tb681 C710 2.764 . S
C682 O698 1.261 . S
C682 O699 1.257 . S
C683 C686 1.358 . S
C683 C687 1.332 . S
C683 C689 1.504 . S
C684 C685 1.373 . S
C684 C688 1.308 . S
C685 C684 1.373 . S
C685 C686 1.429 . S
C685 H712 0.932 . S
C686 C683 1.358 . S
C686 C685 1.429 . S
C686 H713 0.930 . S
C687 C683 1.332 . S
C687 C688 1.394 . S
C687 H714 0.932 . S
C688 C684 1.308 . S
C688 C687 1.394 . S
C688 H715 0.929 . S
C689 Tb680 2.764 . S
C689 C683 1.504 . S
C689 O701 1.239 . S
C689 O702 1.263 . S
O690 Tb680 2.325 . S
O690 C700 1.236 . S
O691 Tb681 2.322 . S
O691 C700 1.257 . S
O692 Tb681 2.349 . S
O692 C703 1.261 . S
O693 Tb680 2.303 . S
O693 C703 1.257 . S
O694 Tb681 2.415 . S
O694 C710 1.239 . S
O695 Tb681 2.399 . S
O695 C710 1.263 . S
O696 Tb681 2.325 . S
O696 C711 1.236 . S
O697 Tb680 2.322 . S
O697 C711 1.257 . S
O698 Tb680 2.349 . S
O698 C682 1.261 . S
O699 Tb681 2.303 . S
O699 C682 1.257 . S
C700 O690 1.236 . S
C700 O691 1.257 . S
O701 Tb680 2.415 . S
O701 C689 1.239 . S
O702 Tb680 2.399 . S
O702 C689 1.263 . S
C703 O692 1.261 . S
C703 O693 1.257 . S
C704 C707 1.358 1_455 S
C704 C708 1.332 1_455 S
C704 C710 1.504 . S
C705 C706 1.373 . S
C705 C709 1.308 . S
C706 C705 1.373 . S
C706 C707 1.429 . S
C706 H716 0.932 . S
C707 C704 1.358 1_655 S
C707 C706 1.429 . S
C707 H717 0.930 . S
C708 C704 1.332 1_655 S
C708 C709 1.394 . S
C708 H718 0.932 1_655 S
C709 C705 1.308 . S
C709 C708 1.394 . S
C709 H719 0.929 . S
C710 Tb681 2.764 . S
C710 O694 1.239 . S
C710 O695 1.263 . S
C710 C704 1.504 . S
C711 O696 1.236 . S
C711 O697 1.257 . S
H712 C685 0.932 . S
H713 C686 0.930 . S
H714 C687 0.932 . S
H715 C688 0.929 . S
H716 C706 0.932 . S
H717 C707 0.930 . S
H718 C708 0.932 1_455 S
H719 C709 0.929 . S
Tb720 C729 2.764 . S
Tb720 O730 2.325 . S
Tb720 O733 2.303 . S
Tb720 O737 2.322 . S
Tb720 O738 2.349 . S
Tb720 O741 2.415 . S
Tb720 O742 2.399 . S
Tb721 O731 2.322 . S
Tb721 O732 2.349 . S
Tb721 O734 2.415 . S
Tb721 O735 2.399 . S
Tb721 O736 2.325 . S
Tb721 O739 2.303 . S
Tb721 C750 2.764 . S
C722 O738 1.261 . S
C722 O739 1.257 . S
C723 C726 1.358 . S
C723 C727 1.332 . S
C723 C729 1.504 . S
C724 C725 1.373 . S
C724 C728 1.308 . S
C725 C724 1.373 . S
C725 C726 1.429 . S
C725 H752 0.932 . S
C726 C723 1.358 . S
C726 C725 1.429 . S
C726 H753 0.930 . S
C727 C723 1.332 . S
C727 C728 1.394 . S
C727 H754 0.932 . S
C728 C724 1.308 . S
C728 C727 1.394 . S
C728 H755 0.929 . S
C729 Tb720 2.764 . S
C729 C723 1.504 . S
C729 O741 1.239 . S
C729 O742 1.263 . S
O730 Tb720 2.325 . S
O730 C740 1.236 . S
O731 Tb721 2.322 . S
O731 C740 1.257 . S
O732 Tb721 2.349 . S
O732 C743 1.261 . S
O733 Tb720 2.303 . S
O733 C743 1.257 . S
O734 Tb721 2.415 . S
O734 C750 1.239 . S
O735 Tb721 2.399 . S
O735 C750 1.263 . S
O736 Tb721 2.325 . S
O736 C751 1.236 . S
O737 Tb720 2.322 . S
O737 C751 1.257 . S
O738 Tb720 2.349 . S
O738 C722 1.261 . S
O739 Tb721 2.303 . S
O739 C722 1.257 . S
C740 O730 1.236 . S
C740 O731 1.257 . S
O741 Tb720 2.415 . S
O741 C729 1.239 . S
O742 Tb720 2.399 . S
O742 C729 1.263 . S
C743 O732 1.261 . S
C743 O733 1.257 . S
C744 C747 1.358 . S
C744 C748 1.332 . S
C744 C750 1.504 . S
C745 C746 1.373 . S
C745 C749 1.308 . S
C746 C745 1.373 . S
C746 C747 1.429 . S
C746 H756 0.932 . S
C747 C744 1.358 . S
C747 C746 1.429 . S
C747 H757 0.930 . S
C748 C744 1.332 . S
C748 C749 1.394 . S
C748 H758 0.932 . S
C749 C745 1.308 . S
C749 C748 1.394 . S
C749 H759 0.929 . S
C750 Tb721 2.764 . S
C750 O734 1.239 . S
C750 O735 1.263 . S
C750 C744 1.504 . S
C751 O736 1.236 . S
C751 O737 1.257 . S
H752 C725 0.932 . S
H753 C726 0.930 . S
H754 C727 0.932 . S
H755 C728 0.929 . S
H756 C746 0.932 . S
H757 C747 0.930 . S
H758 C748 0.932 . S
H759 C749 0.929 . S
Tb760 C769 2.764 1_565 S
Tb760 O770 2.325 . S
Tb760 O773 2.303 . S
Tb760 O777 2.322 . S
Tb760 O778 2.349 . S
Tb760 O781 2.415 1_565 S
Tb760 O782 2.399 1_565 S
Tb761 O771 2.322 . S
Tb761 O772 2.349 . S
Tb761 O774 2.415 . S
Tb761 O775 2.399 . S
Tb761 O776 2.325 . S
Tb761 O779 2.303 . S
Tb761 C790 2.764 . S
C762 O778 1.261 . S
C762 O779 1.257 . S
C763 C766 1.358 . S
C763 C767 1.332 . S
C763 C769 1.504 . S
C764 C765 1.373 . S
C764 C768 1.308 . S
C765 C764 1.373 . S
C765 C766 1.429 . S
C765 H792 0.932 . S
C766 C763 1.358 . S
C766 C765 1.429 . S
C766 H793 0.930 . S
C767 C763 1.332 . S
C767 C768 1.394 . S
C767 H794 0.932 . S
C768 C764 1.308 . S
C768 C767 1.394 . S
C768 H795 0.929 . S
C769 Tb760 2.764 1_545 S
C769 C763 1.504 . S
C769 O781 1.239 . S
C769 O782 1.263 . S
O770 Tb760 2.325 . S
O770 C780 1.236 . S
O771 Tb761 2.322 . S
O771 C780 1.257 . S
O772 Tb761 2.349 . S
O772 C783 1.261 . S
O773 Tb760 2.303 . S
O773 C783 1.257 . S
O774 Tb761 2.415 . S
O774 C790 1.239 . S
O775 Tb761 2.399 . S
O775 C790 1.263 . S
O776 Tb761 2.325 . S
O776 C791 1.236 . S
O777 Tb760 2.322 . S
O777 C791 1.257 . S
O778 Tb760 2.349 . S
O778 C762 1.261 . S
O779 Tb761 2.303 . S
O779 C762 1.257 . S
C780 O770 1.236 . S
C780 O771 1.257 . S
O781 Tb760 2.415 1_545 S
O781 C769 1.239 . S
O782 Tb760 2.399 1_545 S
O782 C769 1.263 . S
C783 O772 1.261 . S
C783 O773 1.257 . S
C784 C787 1.358 . S
C784 C788 1.332 . S
C784 C790 1.504 . S
C785 C786 1.373 . S
C785 C789 1.308 . S
C786 C785 1.373 . S
C786 C787 1.429 . S
C786 H796 0.932 . S
C787 C784 1.358 . S
C787 C786 1.429 . S
C787 H797 0.930 . S
C788 C784 1.332 . S
C788 C789 1.394 . S
C788 H798 0.932 . S
C789 C785 1.308 . S
C789 C788 1.394 . S
C789 H799 0.929 . S
C790 Tb761 2.764 . S
C790 O774 1.239 . S
C790 O775 1.263 . S
C790 C784 1.504 . S
C791 O776 1.236 . S
C791 O777 1.257 . S
H792 C765 0.932 . S
H793 C766 0.930 . S
H794 C767 0.932 . S
H795 C768 0.929 . S
H796 C786 0.932 . S
H797 C787 0.930 . S
H798 C788 0.932 . S
H799 C789 0.929 . S
Tb800 C809 2.764 . S
Tb800 O810 2.325 . S
Tb800 O813 2.303 . S
Tb800 O817 2.322 . S
Tb800 O818 2.349 . S
Tb800 O821 2.415 . S
Tb800 O822 2.399 . S
Tb801 O811 2.322 . S
Tb801 O812 2.349 . S
Tb801 O814 2.415 . S
Tb801 O815 2.399 . S
Tb801 O816 2.325 . S
Tb801 O819 2.303 . S
Tb801 C830 2.764 . S
C802 O818 1.261 . S
C802 O819 1.257 . S
C803 C806 1.358 1_455 S
C803 C807 1.332 1_455 S
C803 C809 1.504 . S
C804 C805 1.373 . S
C804 C808 1.308 . S
C805 C804 1.373 . S
C805 C806 1.429 . S
C805 H832 0.932 . S
C806 C803 1.358 1_655 S
C806 C805 1.429 . S
C806 H833 0.930 . S
C807 C803 1.332 1_655 S
C807 C808 1.394 . S
C807 H834 0.932 1_655 S
C808 C804 1.308 . S
C808 C807 1.394 . S
C808 H835 0.929 . S
C809 Tb800 2.764 . S
C809 C803 1.504 . S
C809 O821 1.239 . S
C809 O822 1.263 . S
O810 Tb800 2.325 . S
O810 C820 1.236 . S
O811 Tb801 2.322 . S
O811 C820 1.257 . S
O812 Tb801 2.349 . S
O812 C823 1.261 . S
O813 Tb800 2.303 . S
O813 C823 1.257 . S
O814 Tb801 2.415 . S
O814 C830 1.239 . S
O815 Tb801 2.399 . S
O815 C830 1.263 . S
O816 Tb801 2.325 . S
O816 C831 1.236 . S
O817 Tb800 2.322 . S
O817 C831 1.257 . S
O818 Tb800 2.349 . S
O818 C802 1.261 . S
O819 Tb801 2.303 . S
O819 C802 1.257 . S
C820 O810 1.236 . S
C820 O811 1.257 . S
O821 Tb800 2.415 . S
O821 C809 1.239 . S
O822 Tb800 2.399 . S
O822 C809 1.263 . S
C823 O812 1.261 . S
C823 O813 1.257 . S
C824 C827 1.358 . S
C824 C828 1.332 . S
C824 C830 1.504 . S
C825 C826 1.373 . S
C825 C829 1.308 . S
C826 C825 1.373 . S
C826 C827 1.429 . S
C826 H836 0.932 . S
C827 C824 1.358 . S
C827 C826 1.429 . S
C827 H837 0.930 . S
C828 C824 1.332 . S
C828 C829 1.394 . S
C828 H838 0.932 . S
C829 C825 1.308 . S
C829 C828 1.394 . S
C829 H839 0.929 . S
C830 Tb801 2.764 . S
C830 O814 1.239 . S
C830 O815 1.263 . S
C830 C824 1.504 . S
C831 O816 1.236 . S
C831 O817 1.257 . S
H832 C805 0.932 . S
H833 C806 0.930 . S
H834 C807 0.932 1_455 S
H835 C808 0.929 . S
H836 C826 0.932 . S
H837 C827 0.930 . S
H838 C828 0.932 . S
H839 C829 0.929 . S
Tb840 C849 2.764 . S
Tb840 O850 2.325 . S
Tb840 O853 2.303 . S
Tb840 O857 2.322 . S
Tb840 O858 2.349 . S
Tb840 O861 2.415 . S
Tb840 O862 2.399 . S
Tb841 O851 2.322 . S
Tb841 O852 2.349 . S
Tb841 O854 2.415 . S
Tb841 O855 2.399 . S
Tb841 O856 2.325 . S
Tb841 O859 2.303 . S
Tb841 C870 2.764 . S
C842 O858 1.261 . S
C842 O859 1.257 . S
C843 C846 1.358 . S
C843 C847 1.332 . S
C843 C849 1.504 . S
C844 C845 1.373 . S
C844 C848 1.308 . S
C845 C844 1.373 . S
C845 C846 1.429 . S
C845 H872 0.932 . S
C846 C843 1.358 . S
C846 C845 1.429 . S
C846 H873 0.930 . S
C847 C843 1.332 . S
C847 C848 1.394 . S
C847 H874 0.932 . S
C848 C844 1.308 . S
C848 C847 1.394 . S
C848 H875 0.929 . S
C849 Tb840 2.764 . S
C849 C843 1.504 . S
C849 O861 1.239 . S
C849 O862 1.263 . S
O850 Tb840 2.325 . S
O850 C860 1.236 . S
O851 Tb841 2.322 . S
O851 C860 1.257 . S
O852 Tb841 2.349 . S
O852 C863 1.261 . S
O853 Tb840 2.303 . S
O853 C863 1.257 . S
O854 Tb841 2.415 . S
O854 C870 1.239 . S
O855 Tb841 2.399 . S
O855 C870 1.263 . S
O856 Tb841 2.325 . S
O856 C871 1.236 . S
O857 Tb840 2.322 . S
O857 C871 1.257 . S
O858 Tb840 2.349 . S
O858 C842 1.261 . S
O859 Tb841 2.303 . S
O859 C842 1.257 . S
C860 O850 1.236 . S
C860 O851 1.257 . S
O861 Tb840 2.415 . S
O861 C849 1.239 . S
O862 Tb840 2.399 . S
O862 C849 1.263 . S
C863 O852 1.261 . S
C863 O853 1.257 . S
C864 C867 1.358 . S
C864 C868 1.332 . S
C864 C870 1.504 . S
C865 C866 1.373 . S
C865 C869 1.308 . S
C866 C865 1.373 . S
C866 C867 1.429 . S
C866 H876 0.932 . S
C867 C864 1.358 . S
C867 C866 1.429 . S
C867 H877 0.930 . S
C868 C864 1.332 . S
C868 C869 1.394 . S
C868 H878 0.932 . S
C869 C865 1.308 . S
C869 C868 1.394 . S
C869 H879 0.929 . S
C870 Tb841 2.764 . S
C870 O854 1.239 . S
C870 O855 1.263 . S
C870 C864 1.504 . S
C871 O856 1.236 . S
C871 O857 1.257 . S
H872 C845 0.932 . S
H873 C846 0.930 . S
H874 C847 0.932 . S
H875 C848 0.929 . S
H876 C866 0.932 . S
H877 C867 0.930 . S
H878 C868 0.932 . S
H879 C869 0.929 . S
Tb880 C889 2.764 . S
Tb880 O890 2.325 . S
Tb880 O893 2.303 . S
Tb880 O897 2.322 . S
Tb880 O898 2.349 . S
Tb880 O901 2.415 . S
Tb880 O902 2.399 . S
Tb881 O891 2.322 . S
Tb881 O892 2.349 . S
Tb881 O894 2.415 . S
Tb881 O895 2.399 . S
Tb881 O896 2.325 . S
Tb881 O899 2.303 . S
Tb881 C910 2.764 . S
C882 O898 1.261 . S
C882 O899 1.257 . S
C883 C886 1.358 . S
C883 C887 1.332 . S
C883 C889 1.504 . S
C884 C885 1.373 . S
C884 C888 1.308 . S
C885 C884 1.373 . S
C885 C886 1.429 . S
C885 H912 0.932 . S
C886 C883 1.358 . S
C886 C885 1.429 . S
C886 H913 0.930 . S
C887 C883 1.332 . S
C887 C888 1.394 . S
C887 H914 0.932 . S
C888 C884 1.308 . S
C888 C887 1.394 . S
C888 H915 0.929 . S
C889 Tb880 2.764 . S
C889 C883 1.504 . S
C889 O901 1.239 . S
C889 O902 1.263 . S
O890 Tb880 2.325 . S
O890 C900 1.236 . S
O891 Tb881 2.322 . S
O891 C900 1.257 . S
O892 Tb881 2.349 . S
O892 C903 1.261 . S
O893 Tb880 2.303 . S
O893 C903 1.257 . S
O894 Tb881 2.415 . S
O894 C910 1.239 . S
O895 Tb881 2.399 . S
O895 C910 1.263 . S
O896 Tb881 2.325 . S
O896 C911 1.236 . S
O897 Tb880 2.322 . S
O897 C911 1.257 . S
O898 Tb880 2.349 . S
O898 C882 1.261 . S
O899 Tb881 2.303 . S
O899 C882 1.257 . S
C900 O890 1.236 . S
C900 O891 1.257 . S
O901 Tb880 2.415 . S
O901 C889 1.239 . S
O902 Tb880 2.399 . S
O902 C889 1.263 . S
C903 O892 1.261 . S
C903 O893 1.257 . S
C904 C907 1.358 . S
C904 C908 1.332 . S
C904 C910 1.504 1_545 S
C905 C906 1.373 . S
C905 C909 1.308 . S
C906 C905 1.373 . S
C906 C907 1.429 . S
C906 H916 0.932 . S
C907 C904 1.358 . S
C907 C906 1.429 . S
C907 H917 0.930 . S
C908 C904 1.332 . S
C908 C909 1.394 . S
C908 H918 0.932 . S
C909 C905 1.308 . S
C909 C908 1.394 . S
C909 H919 0.929 . S
C910 Tb881 2.764 . S
C910 O894 1.239 . S
C910 O895 1.263 . S
C910 C904 1.504 1_565 S
C911 O896 1.236 . S
C911 O897 1.257 . S
H912 C885 0.932 . S
H913 C886 0.930 . S
H914 C887 0.932 . S
H915 C888 0.929 . S
H916 C906 0.932 . S
H917 C907 0.930 . S
H918 C908 0.932 . S
H919 C909 0.929 . S
Tb920 C929 2.764 . S
Tb920 O930 2.325 . S
Tb920 O933 2.303 . S
Tb920 O937 2.322 . S
Tb920 O938 2.349 . S
Tb920 O941 2.415 . S
Tb920 O942 2.399 . S
Tb921 O931 2.322 . S
Tb921 O932 2.349 . S
Tb921 O934 2.415 . S
Tb921 O935 2.399 . S
Tb921 O936 2.325 . S
Tb921 O939 2.303 . S
Tb921 C950 2.764 . S
C922 O938 1.261 . S
C922 O939 1.257 . S
C923 C926 1.358 . S
C923 C927 1.332 . S
C923 C929 1.504 . S
C924 C925 1.373 . S
C924 C928 1.308 . S
C925 C924 1.373 . S
C925 C926 1.429 . S
C925 H952 0.932 . S
C926 C923 1.358 . S
C926 C925 1.429 . S
C926 H953 0.930 . S
C927 C923 1.332 . S
C927 C928 1.394 . S
C927 H954 0.932 . S
C928 C924 1.308 . S
C928 C927 1.394 . S
C928 H955 0.929 . S
C929 Tb920 2.764 . S
C929 C923 1.504 . S
C929 O941 1.239 . S
C929 O942 1.263 . S
O930 Tb920 2.325 . S
O930 C940 1.236 . S
O931 Tb921 2.322 . S
O931 C940 1.257 . S
O932 Tb921 2.349 . S
O932 C943 1.261 . S
O933 Tb920 2.303 . S
O933 C943 1.257 . S
O934 Tb921 2.415 . S
O934 C950 1.239 . S
O935 Tb921 2.399 . S
O935 C950 1.263 . S
O936 Tb921 2.325 . S
O936 C951 1.236 . S
O937 Tb920 2.322 . S
O937 C951 1.257 . S
O938 Tb920 2.349 . S
O938 C922 1.261 . S
O939 Tb921 2.303 . S
O939 C922 1.257 . S
C940 O930 1.236 . S
C940 O931 1.257 . S
O941 Tb920 2.415 . S
O941 C929 1.239 . S
O942 Tb920 2.399 . S
O942 C929 1.263 . S
C943 O932 1.261 . S
C943 O933 1.257 . S
C944 C947 1.358 . S
C944 C948 1.332 . S
C944 C950 1.504 . S
C945 C946 1.373 . S
C945 C949 1.308 1_655 S
C946 C945 1.373 . S
C946 C947 1.429 1_655 S
C946 H956 0.932 . S
C947 C944 1.358 . S
C947 C946 1.429 1_455 S
C947 H957 0.930 . S
C948 C944 1.332 . S
C948 C949 1.394 . S
C948 H958 0.932 . S
C949 C945 1.308 1_455 S
C949 C948 1.394 . S
C949 H959 0.929 1_455 S
C950 Tb921 2.764 . S
C950 O934 1.239 . S
C950 O935 1.263 . S
C950 C944 1.504 . S
C951 O936 1.236 . S
C951 O937 1.257 . S
H952 C925 0.932 . S
H953 C926 0.930 . S
H954 C927 0.932 . S
H955 C928 0.929 . S
H956 C946 0.932 . S
H957 C947 0.930 . S
H958 C948 0.932 . S
H959 C949 0.929 1_655 S
Tb960 C969 2.764 . S
Tb960 O970 2.325 . S
Tb960 O973 2.303 . S
Tb960 O977 2.322 . S
Tb960 O978 2.349 . S
Tb960 O981 2.415 . S
Tb960 O982 2.399 . S
Tb961 O971 2.322 . S
Tb961 O972 2.349 . S
Tb961 O974 2.415 . S
Tb961 O975 2.399 . S
Tb961 O976 2.325 . S
Tb961 O979 2.303 . S
Tb961 C990 2.764 . S
C962 O978 1.261 . S
C962 O979 1.257 . S
C963 C966 1.358 . S
C963 C967 1.332 . S
C963 C969 1.504 . S
C964 C965 1.373 . S
C964 C968 1.308 . S
C965 C964 1.373 . S
C965 C966 1.429 . S
C965 H992 0.932 . S
C966 C963 1.358 . S
C966 C965 1.429 . S
C966 H993 0.930 . S
C967 C963 1.332 . S
C967 C968 1.394 . S
C967 H994 0.932 . S
C968 C964 1.308 . S
C968 C967 1.394 . S
C968 H995 0.929 . S
C969 Tb960 2.764 . S
C969 C963 1.504 . S
C969 O981 1.239 . S
C969 O982 1.263 . S
O970 Tb960 2.325 . S
O970 C980 1.236 . S
O971 Tb961 2.322 . S
O971 C980 1.257 . S
O972 Tb961 2.349 . S
O972 C983 1.261 . S
O973 Tb960 2.303 . S
O973 C983 1.257 . S
O974 Tb961 2.415 . S
O974 C990 1.239 . S
O975 Tb961 2.399 . S
O975 C990 1.263 . S
O976 Tb961 2.325 . S
O976 C991 1.236 . S
O977 Tb960 2.322 . S
O977 C991 1.257 . S
O978 Tb960 2.349 . S
O978 C962 1.261 . S
O979 Tb961 2.303 . S
O979 C962 1.257 . S
C980 O970 1.236 . S
C980 O971 1.257 . S
O981 Tb960 2.415 . S
O981 C969 1.239 . S
O982 Tb960 2.399 . S
O982 C969 1.263 . S
C983 O972 1.261 . S
C983 O973 1.257 . S
C984 C987 1.358 . S
C984 C988 1.332 . S
C984 C990 1.504 . S
C985 C986 1.373 . S
C985 C989 1.308 . S
C986 C985 1.373 . S
C986 C987 1.429 . S
C986 H996 0.932 . S
C987 C984 1.358 . S
C987 C986 1.429 . S
C987 H997 0.930 . S
C988 C984 1.332 . S
C988 C989 1.394 . S
C988 H998 0.932 . S
C989 C985 1.308 . S
C989 C988 1.394 . S
C989 H999 0.929 . S
C990 Tb961 2.764 . S
C990 O974 1.239 . S
C990 O975 1.263 . S
C990 C984 1.504 . S
C991 O976 1.236 . S
C991 O977 1.257 . S
H992 C965 0.932 . S
H993 C966 0.930 . S
H994 C967 0.932 . S
H995 C968 0.929 . S
H996 C986 0.932 . S
H997 C987 0.930 . S
H998 C988 0.932 . S
H999 C989 0.929 . S
Tb1000 C1009 2.764 . S
Tb1000 O1010 2.325 . S
Tb1000 O1013 2.303 . S
Tb1000 O1017 2.322 . S
Tb1000 O1018 2.349 . S
Tb1000 O1021 2.415 . S
Tb1000 O1022 2.399 . S
Tb1001 O1011 2.322 . S
Tb1001 O1012 2.349 . S
Tb1001 O1014 2.415 . S
Tb1001 O1015 2.399 . S
Tb1001 O1016 2.325 . S
Tb1001 O1019 2.303 . S
Tb1001 C1030 2.764 . S
C1002 O1018 1.261 . S
C1002 O1019 1.257 . S
C1003 C1006 1.358 . S
C1003 C1007 1.332 . S
C1003 C1009 1.504 . S
C1004 C1005 1.373 . S
C1004 C1008 1.308 . S
C1005 C1004 1.373 . S
C1005 C1006 1.429 . S
C1005 H1032 0.932 . S
C1006 C1003 1.358 . S
C1006 C1005 1.429 . S
C1006 H1033 0.930 . S
C1007 C1003 1.332 . S
C1007 C1008 1.394 . S
C1007 H1034 0.932 . S
C1008 C1004 1.308 . S
C1008 C1007 1.394 . S
C1008 H1035 0.929 . S
C1009 Tb1000 2.764 . S
C1009 C1003 1.504 . S
C1009 O1021 1.239 . S
C1009 O1022 1.263 . S
O1010 Tb1000 2.325 . S
O1010 C1020 1.236 . S
O1011 Tb1001 2.322 . S
O1011 C1020 1.257 . S
O1012 Tb1001 2.349 . S
O1012 C1023 1.261 . S
O1013 Tb1000 2.303 . S
O1013 C1023 1.257 . S
O1014 Tb1001 2.415 . S
O1014 C1030 1.239 . S
O1015 Tb1001 2.399 . S
O1015 C1030 1.263 . S
O1016 Tb1001 2.325 . S
O1016 C1031 1.236 . S
O1017 Tb1000 2.322 . S
O1017 C1031 1.257 . S
O1018 Tb1000 2.349 . S
O1018 C1002 1.261 . S
O1019 Tb1001 2.303 . S
O1019 C1002 1.257 . S
C1020 O1010 1.236 . S
C1020 O1011 1.257 . S
O1021 Tb1000 2.415 . S
O1021 C1009 1.239 . S
O1022 Tb1000 2.399 . S
O1022 C1009 1.263 . S
C1023 O1012 1.261 . S
C1023 O1013 1.257 . S
C1024 C1027 1.358 1_545 S
C1024 C1028 1.332 1_545 S
C1024 C1030 1.504 . S
C1025 C1026 1.373 . S
C1025 C1029 1.308 . S
C1026 C1025 1.373 . S
C1026 C1027 1.429 . S
C1026 H1036 0.932 . S
C1027 C1024 1.358 1_565 S
C1027 C1026 1.429 . S
C1027 H1037 0.930 . S
C1028 C1024 1.332 1_565 S
C1028 C1029 1.394 . S
C1028 H1038 0.932 1_565 S
C1029 C1025 1.308 . S
C1029 C1028 1.394 . S
C1029 H1039 0.929 . S
C1030 Tb1001 2.764 . S
C1030 O1014 1.239 . S
C1030 O1015 1.263 . S
C1030 C1024 1.504 . S
C1031 O1016 1.236 . S
C1031 O1017 1.257 . S
H1032 C1005 0.932 . S
H1033 C1006 0.930 . S
H1034 C1007 0.932 . S
H1035 C1008 0.929 . S
H1036 C1026 0.932 . S
H1037 C1027 0.930 . S
H1038 C1028 0.932 1_545 S
H1039 C1029 0.929 . S
Tb1040 C1049 2.764 . S
Tb1040 O1050 2.325 . S
Tb1040 O1053 2.303 . S
Tb1040 O1057 2.322 . S
Tb1040 O1058 2.349 . S
Tb1040 O1061 2.415 . S
Tb1040 O1062 2.399 . S
Tb1041 O1051 2.322 . S
Tb1041 O1052 2.349 . S
Tb1041 O1054 2.415 1_655 S
Tb1041 O1055 2.399 1_655 S
Tb1041 O1056 2.325 . S
Tb1041 O1059 2.303 . S
Tb1041 C1070 2.764 1_655 S
C1042 O1058 1.261 . S
C1042 O1059 1.257 . S
C1043 C1046 1.358 . S
C1043 C1047 1.332 . S
C1043 C1049 1.504 . S
C1044 C1045 1.373 . S
C1044 C1048 1.308 . S
C1045 C1044 1.373 . S
C1045 C1046 1.429 . S
C1045 H1072 0.932 . S
C1046 C1043 1.358 . S
C1046 C1045 1.429 . S
C1046 H1073 0.930 . S
C1047 C1043 1.332 . S
C1047 C1048 1.394 . S
C1047 H1074 0.932 . S
C1048 C1044 1.308 . S
C1048 C1047 1.394 . S
C1048 H1075 0.929 . S
C1049 Tb1040 2.764 . S
C1049 C1043 1.504 . S
C1049 O1061 1.239 . S
C1049 O1062 1.263 . S
O1050 Tb1040 2.325 . S
O1050 C1060 1.236 . S
O1051 Tb1041 2.322 . S
O1051 C1060 1.257 . S
O1052 Tb1041 2.349 . S
O1052 C1063 1.261 . S
O1053 Tb1040 2.303 . S
O1053 C1063 1.257 . S
O1054 Tb1041 2.415 1_455 S
O1054 C1070 1.239 . S
O1055 Tb1041 2.399 1_455 S
O1055 C1070 1.263 . S
O1056 Tb1041 2.325 . S
O1056 C1071 1.236 . S
O1057 Tb1040 2.322 . S
O1057 C1071 1.257 . S
O1058 Tb1040 2.349 . S
O1058 C1042 1.261 . S
O1059 Tb1041 2.303 . S
O1059 C1042 1.257 . S
C1060 O1050 1.236 . S
C1060 O1051 1.257 . S
O1061 Tb1040 2.415 . S
O1061 C1049 1.239 . S
O1062 Tb1040 2.399 . S
O1062 C1049 1.263 . S
C1063 O1052 1.261 . S
C1063 O1053 1.257 . S
C1064 C1067 1.358 . S
C1064 C1068 1.332 . S
C1064 C1070 1.504 . S
C1065 C1066 1.373 . S
C1065 C1069 1.308 . S
C1066 C1065 1.373 . S
C1066 C1067 1.429 . S
C1066 H1076 0.932 . S
C1067 C1064 1.358 . S
C1067 C1066 1.429 . S
C1067 H1077 0.930 . S
C1068 C1064 1.332 . S
C1068 C1069 1.394 . S
C1068 H1078 0.932 . S
C1069 C1065 1.308 . S
C1069 C1068 1.394 . S
C1069 H1079 0.929 . S
C1070 Tb1041 2.764 1_455 S
C1070 O1054 1.239 . S
C1070 O1055 1.263 . S
C1070 C1064 1.504 . S
C1071 O1056 1.236 . S
C1071 O1057 1.257 . S
H1072 C1045 0.932 . S
H1073 C1046 0.930 . S
H1074 C1047 0.932 . S
H1075 C1048 0.929 . S
H1076 C1066 0.932 . S
H1077 C1067 0.930 . S
H1078 C1068 0.932 . S
H1079 C1069 0.929 . S
Tb1080 C1089 2.764 . S
Tb1080 O1090 2.325 . S
Tb1080 O1093 2.303 . S
Tb1080 O1097 2.322 . S
Tb1080 O1098 2.349 . S
Tb1080 O1101 2.415 . S
Tb1080 O1102 2.399 . S
Tb1081 O1091 2.322 . S
Tb1081 O1092 2.349 . S
Tb1081 O1094 2.415 . S
Tb1081 O1095 2.399 . S
Tb1081 O1096 2.325 . S
Tb1081 O1099 2.303 . S
Tb1081 C1110 2.764 . S
C1082 O1098 1.261 . S
C1082 O1099 1.257 . S
C1083 C1086 1.358 . S
C1083 C1087 1.332 . S
C1083 C1089 1.504 . S
C1084 C1085 1.373 . S
C1084 C1088 1.308 . S
C1085 C1084 1.373 . S
C1085 C1086 1.429 . S
C1085 H1112 0.932 . S
C1086 C1083 1.358 . S
C1086 C1085 1.429 . S
C1086 H1113 0.930 . S
C1087 C1083 1.332 . S
C1087 C1088 1.394 . S
C1087 H1114 0.932 . S
C1088 C1084 1.308 . S
C1088 C1087 1.394 . S
C1088 H1115 0.929 . S
C1089 Tb1080 2.764 . S
C1089 C1083 1.504 . S
C1089 O1101 1.239 . S
C1089 O1102 1.263 . S
O1090 Tb1080 2.325 . S
O1090 C1100 1.236 . S
O1091 Tb1081 2.322 . S
O1091 C1100 1.257 . S
O1092 Tb1081 2.349 . S
O1092 C1103 1.261 . S
O1093 Tb1080 2.303 . S
O1093 C1103 1.257 . S
O1094 Tb1081 2.415 . S
O1094 C1110 1.239 . S
O1095 Tb1081 2.399 . S
O1095 C1110 1.263 . S
O1096 Tb1081 2.325 . S
O1096 C1111 1.236 . S
O1097 Tb1080 2.322 . S
O1097 C1111 1.257 . S
O1098 Tb1080 2.349 . S
O1098 C1082 1.261 . S
O1099 Tb1081 2.303 . S
O1099 C1082 1.257 . S
C1100 O1090 1.236 . S
C1100 O1091 1.257 . S
O1101 Tb1080 2.415 . S
O1101 C1089 1.239 . S
O1102 Tb1080 2.399 . S
O1102 C1089 1.263 . S
C1103 O1092 1.261 . S
C1103 O1093 1.257 . S
C1104 C1107 1.358 . S
C1104 C1108 1.332 . S
C1104 C1110 1.504 . S
C1105 C1106 1.373 . S
C1105 C1109 1.308 . S
C1106 C1105 1.373 . S
C1106 C1107 1.429 . S
C1106 H1116 0.932 . S
C1107 C1104 1.358 . S
C1107 C1106 1.429 . S
C1107 H1117 0.930 . S
C1108 C1104 1.332 . S
C1108 C1109 1.394 . S
C1108 H1118 0.932 . S
C1109 C1105 1.308 . S
C1109 C1108 1.394 . S
C1109 H1119 0.929 . S
C1110 Tb1081 2.764 . S
C1110 O1094 1.239 . S
C1110 O1095 1.263 . S
C1110 C1104 1.504 . S
C1111 O1096 1.236 . S
C1111 O1097 1.257 . S
H1112 C1085 0.932 . S
H1113 C1086 0.930 . S
H1114 C1087 0.932 . S
H1115 C1088 0.929 . S
H1116 C1106 0.932 . S
H1117 C1107 0.930 . S
H1118 C1108 0.932 . S
H1119 C1109 0.929 . S
Tb1120 C1129 2.764 . S
Tb1120 O1130 2.325 . S
Tb1120 O1133 2.303 . S
Tb1120 O1137 2.322 . S
Tb1120 O1138 2.349 . S
Tb1120 O1141 2.415 . S
Tb1120 O1142 2.399 . S
Tb1121 O1131 2.322 . S
Tb1121 O1132 2.349 . S
Tb1121 O1134 2.415 . S
Tb1121 O1135 2.399 . S
Tb1121 O1136 2.325 . S
Tb1121 O1139 2.303 . S
Tb1121 C1150 2.764 . S
C1122 O1138 1.261 . S
C1122 O1139 1.257 . S
C1123 C1126 1.358 . S
C1123 C1127 1.332 . S
C1123 C1129 1.504 . S
C1124 C1125 1.373 . S
C1124 C1128 1.308 1_565 S
C1125 C1124 1.373 . S
C1125 C1126 1.429 1_565 S
C1125 H1152 0.932 . S
C1126 C1123 1.358 . S
C1126 C1125 1.429 1_545 S
C1126 H1153 0.930 . S
C1127 C1123 1.332 . S
C1127 C1128 1.394 . S
C1127 H1154 0.932 . S
C1128 C1124 1.308 1_545 S
C1128 C1127 1.394 . S
C1128 H1155 0.929 1_545 S
C1129 Tb1120 2.764 . S
C1129 C1123 1.504 . S
C1129 O1141 1.239 . S
C1129 O1142 1.263 . S
O1130 Tb1120 2.325 . S
O1130 C1140 1.236 . S
O1131 Tb1121 2.322 . S
O1131 C1140 1.257 . S
O1132 Tb1121 2.349 . S
O1132 C1143 1.261 . S
O1133 Tb1120 2.303 . S
O1133 C1143 1.257 . S
O1134 Tb1121 2.415 . S
O1134 C1150 1.239 . S
O1135 Tb1121 2.399 . S
O1135 C1150 1.263 . S
O1136 Tb1121 2.325 . S
O1136 C1151 1.236 . S
O1137 Tb1120 2.322 . S
O1137 C1151 1.257 . S
O1138 Tb1120 2.349 . S
O1138 C1122 1.261 . S
O1139 Tb1121 2.303 . S
O1139 C1122 1.257 . S
C1140 O1130 1.236 . S
C1140 O1131 1.257 . S
O1141 Tb1120 2.415 . S
O1141 C1129 1.239 . S
O1142 Tb1120 2.399 . S
O1142 C1129 1.263 . S
C1143 O1132 1.261 . S
C1143 O1133 1.257 . S
C1144 C1147 1.358 . S
C1144 C1148 1.332 . S
C1144 C1150 1.504 . S
C1145 C1146 1.373 . S
C1145 C1149 1.308 . S
C1146 C1145 1.373 . S
C1146 C1147 1.429 . S
C1146 H1156 0.932 . S
C1147 C1144 1.358 . S
C1147 C1146 1.429 . S
C1147 H1157 0.930 . S
C1148 C1144 1.332 . S
C1148 C1149 1.394 . S
C1148 H1158 0.932 . S
C1149 C1145 1.308 . S
C1149 C1148 1.394 . S
C1149 H1159 0.929 . S
C1150 Tb1121 2.764 . S
C1150 O1134 1.239 . S
C1150 O1135 1.263 . S
C1150 C1144 1.504 . S
C1151 O1136 1.236 . S
C1151 O1137 1.257 . S
H1152 C1125 0.932 . S
H1153 C1126 0.930 . S
H1154 C1127 0.932 . S
H1155 C1128 0.929 1_565 S
H1156 C1146 0.932 . S
H1157 C1147 0.930 . S
H1158 C1148 0.932 . S
H1159 C1149 0.929 . S
Tb1160 C1169 2.764 . S
Tb1160 O1170 2.325 . S
Tb1160 O1173 2.303 . S
Tb1160 O1177 2.322 . S
Tb1160 O1178 2.349 . S
Tb1160 O1181 2.415 . S
Tb1160 O1182 2.399 . S
Tb1161 O1171 2.322 . S
Tb1161 O1172 2.349 . S
Tb1161 O1174 2.415 . S
Tb1161 O1175 2.399 . S
Tb1161 O1176 2.325 . S
Tb1161 O1179 2.303 . S
Tb1161 C1190 2.764 . S
C1162 O1178 1.261 . S
C1162 O1179 1.257 . S
C1163 C1166 1.358 . S
C1163 C1167 1.332 . S
C1163 C1169 1.504 1_455 S
C1164 C1165 1.373 . S
C1164 C1168 1.308 . S
C1165 C1164 1.373 . S
C1165 C1166 1.429 . S
C1165 H1192 0.932 . S
C1166 C1163 1.358 . S
C1166 C1165 1.429 . S
C1166 H1193 0.930 . S
C1167 C1163 1.332 . S
C1167 C1168 1.394 . S
C1167 H1194 0.932 . S
C1168 C1164 1.308 . S
C1168 C1167 1.394 . S
C1168 H1195 0.929 . S
C1169 Tb1160 2.764 . S
C1169 C1163 1.504 1_655 S
C1169 O1181 1.239 . S
C1169 O1182 1.263 . S
O1170 Tb1160 2.325 . S
O1170 C1180 1.236 . S
O1171 Tb1161 2.322 . S
O1171 C1180 1.257 . S
O1172 Tb1161 2.349 . S
O1172 C1183 1.261 . S
O1173 Tb1160 2.303 . S
O1173 C1183 1.257 . S
O1174 Tb1161 2.415 . S
O1174 C1190 1.239 . S
O1175 Tb1161 2.399 . S
O1175 C1190 1.263 . S
O1176 Tb1161 2.325 . S
O1176 C1191 1.236 . S
O1177 Tb1160 2.322 . S
O1177 C1191 1.257 . S
O1178 Tb1160 2.349 . S
O1178 C1162 1.261 . S
O1179 Tb1161 2.303 . S
O1179 C1162 1.257 . S
C1180 O1170 1.236 . S
C1180 O1171 1.257 . S
O1181 Tb1160 2.415 . S
O1181 C1169 1.239 . S
O1182 Tb1160 2.399 . S
O1182 C1169 1.263 . S
C1183 O1172 1.261 . S
C1183 O1173 1.257 . S
C1184 C1187 1.358 . S
C1184 C1188 1.332 . S
C1184 C1190 1.504 . S
C1185 C1186 1.373 . S
C1185 C1189 1.308 . S
C1186 C1185 1.373 . S
C1186 C1187 1.429 . S
C1186 H1196 0.932 . S
C1187 C1184 1.358 . S
C1187 C1186 1.429 . S
C1187 H1197 0.930 . S
C1188 C1184 1.332 . S
C1188 C1189 1.394 . S
C1188 H1198 0.932 . S
C1189 C1185 1.308 . S
C1189 C1188 1.394 . S
C1189 H1199 0.929 . S
C1190 Tb1161 2.764 . S
C1190 O1174 1.239 . S
C1190 O1175 1.263 . S
C1190 C1184 1.504 . S
C1191 O1176 1.236 . S
C1191 O1177 1.257 . S
H1192 C1165 0.932 . S
H1193 C1166 0.930 . S
H1194 C1167 0.932 . S
H1195 C1168 0.929 . S
H1196 C1186 0.932 . S
H1197 C1187 0.930 . S
H1198 C1188 0.932 . S
H1199 C1189 0.929 . S
Tb1200 C1209 2.764 . S
Tb1200 O1210 2.325 . S
Tb1200 O1213 2.303 . S
Tb1200 O1217 2.322 . S
Tb1200 O1218 2.349 . S
Tb1200 O1221 2.415 . S
Tb1200 O1222 2.399 . S
Tb1201 O1211 2.322 . S
Tb1201 O1212 2.349 . S
Tb1201 O1214 2.415 . S
Tb1201 O1215 2.399 . S
Tb1201 O1216 2.325 . S
Tb1201 O1219 2.303 . S
Tb1201 C1230 2.764 . S
C1202 O1218 1.261 . S
C1202 O1219 1.257 . S
C1203 C1206 1.358 . S
C1203 C1207 1.332 . S
C1203 C1209 1.504 . S
C1204 C1205 1.373 . S
C1204 C1208 1.308 . S
C1205 C1204 1.373 . S
C1205 C1206 1.429 . S
C1205 H1232 0.932 . S
C1206 C1203 1.358 . S
C1206 C1205 1.429 . S
C1206 H1233 0.930 . S
C1207 C1203 1.332 . S
C1207 C1208 1.394 . S
C1207 H1234 0.932 . S
C1208 C1204 1.308 . S
C1208 C1207 1.394 . S
C1208 H1235 0.929 . S
C1209 Tb1200 2.764 . S
C1209 C1203 1.504 . S
C1209 O1221 1.239 . S
C1209 O1222 1.263 . S
O1210 Tb1200 2.325 . S
O1210 C1220 1.236 . S
O1211 Tb1201 2.322 . S
O1211 C1220 1.257 . S
O1212 Tb1201 2.349 . S
O1212 C1223 1.261 . S
O1213 Tb1200 2.303 . S
O1213 C1223 1.257 . S
O1214 Tb1201 2.415 . S
O1214 C1230 1.239 . S
O1215 Tb1201 2.399 . S
O1215 C1230 1.263 . S
O1216 Tb1201 2.325 . S
O1216 C1231 1.236 . S
O1217 Tb1200 2.322 . S
O1217 C1231 1.257 . S
O1218 Tb1200 2.349 . S
O1218 C1202 1.261 . S
O1219 Tb1201 2.303 . S
O1219 C1202 1.257 . S
C1220 O1210 1.236 . S
C1220 O1211 1.257 . S
O1221 Tb1200 2.415 . S
O1221 C1209 1.239 . S
O1222 Tb1200 2.399 . S
O1222 C1209 1.263 . S
C1223 O1212 1.261 . S
C1223 O1213 1.257 . S
C1224 C1227 1.358 . S
C1224 C1228 1.332 . S
C1224 C1230 1.504 . S
C1225 C1226 1.373 . S
C1225 C1229 1.308 . S
C1226 C1225 1.373 . S
C1226 C1227 1.429 . S
C1226 H1236 0.932 . S
C1227 C1224 1.358 . S
C1227 C1226 1.429 . S
C1227 H1237 0.930 . S
C1228 C1224 1.332 . S
C1228 C1229 1.394 . S
C1228 H1238 0.932 . S
C1229 C1225 1.308 . S
C1229 C1228 1.394 . S
C1229 H1239 0.929 . S
C1230 Tb1201 2.764 . S
C1230 O1214 1.239 . S
C1230 O1215 1.263 . S
C1230 C1224 1.504 . S
C1231 O1216 1.236 . S
C1231 O1217 1.257 . S
H1232 C1205 0.932 . S
H1233 C1206 0.930 . S
H1234 C1207 0.932 . S
H1235 C1208 0.929 . S
H1236 C1226 0.932 . S
H1237 C1227 0.930 . S
H1238 C1228 0.932 . S
H1239 C1229 0.929 . S
Tb1240 C1249 2.764 . S
Tb1240 O1250 2.325 . S
Tb1240 O1253 2.303 . S
Tb1240 O1257 2.322 . S
Tb1240 O1258 2.349 . S
Tb1240 O1261 2.415 . S
Tb1240 O1262 2.399 . S
Tb1241 O1251 2.322 . S
Tb1241 O1252 2.349 . S
Tb1241 O1254 2.415 . S
Tb1241 O1255 2.399 . S
Tb1241 O1256 2.325 . S
Tb1241 O1259 2.303 . S
Tb1241 C1270 2.764 . S
C1242 O1258 1.261 . S
C1242 O1259 1.257 . S
C1243 C1246 1.358 . S
C1243 C1247 1.332 . S
C1243 C1249 1.504 . S
C1244 C1245 1.373 . S
C1244 C1248 1.308 . S
C1245 C1244 1.373 . S
C1245 C1246 1.429 . S
C1245 H1272 0.932 . S
C1246 C1243 1.358 . S
C1246 C1245 1.429 . S
C1246 H1273 0.930 . S
C1247 C1243 1.332 . S
C1247 C1248 1.394 . S
C1247 H1274 0.932 . S
C1248 C1244 1.308 . S
C1248 C1247 1.394 . S
C1248 H1275 0.929 . S
C1249 Tb1240 2.764 . S
C1249 C1243 1.504 . S
C1249 O1261 1.239 . S
C1249 O1262 1.263 . S
O1250 Tb1240 2.325 . S
O1250 C1260 1.236 . S
O1251 Tb1241 2.322 . S
O1251 C1260 1.257 . S
O1252 Tb1241 2.349 . S
O1252 C1263 1.261 . S
O1253 Tb1240 2.303 . S
O1253 C1263 1.257 . S
O1254 Tb1241 2.415 . S
O1254 C1270 1.239 . S
O1255 Tb1241 2.399 . S
O1255 C1270 1.263 . S
O1256 Tb1241 2.325 . S
O1256 C1271 1.236 . S
O1257 Tb1240 2.322 . S
O1257 C1271 1.257 . S
O1258 Tb1240 2.349 . S
O1258 C1242 1.261 . S
O1259 Tb1241 2.303 . S
O1259 C1242 1.257 . S
C1260 O1250 1.236 . S
C1260 O1251 1.257 . S
O1261 Tb1240 2.415 . S
O1261 C1249 1.239 . S
O1262 Tb1240 2.399 . S
O1262 C1249 1.263 . S
C1263 O1252 1.261 . S
C1263 O1253 1.257 . S
C1264 C1267 1.358 . S
C1264 C1268 1.332 . S
C1264 C1270 1.504 . S
C1265 C1266 1.373 . S
C1265 C1269 1.308 1_565 S
C1266 C1265 1.373 . S
C1266 C1267 1.429 1_565 S
C1266 H1276 0.932 . S
C1267 C1264 1.358 . S
C1267 C1266 1.429 1_545 S
C1267 H1277 0.930 . S
C1268 C1264 1.332 . S
C1268 C1269 1.394 . S
C1268 H1278 0.932 . S
C1269 C1265 1.308 1_545 S
C1269 C1268 1.394 . S
C1269 H1279 0.929 1_545 S
C1270 Tb1241 2.764 . S
C1270 O1254 1.239 . S
C1270 O1255 1.263 . S
C1270 C1264 1.504 . S
C1271 O1256 1.236 . S
C1271 O1257 1.257 . S
H1272 C1245 0.932 . S
H1273 C1246 0.930 . S
H1274 C1247 0.932 . S
H1275 C1248 0.929 . S
H1276 C1266 0.932 . S
H1277 C1267 0.930 . S
H1278 C1268 0.932 . S
H1279 C1269 0.929 1_565 S
Tb1280 C1289 2.764 . S
Tb1280 O1290 2.325 . S
Tb1280 O1293 2.303 . S
Tb1280 O1297 2.322 . S
Tb1280 O1298 2.349 . S
Tb1280 O1301 2.415 . S
Tb1280 O1302 2.399 . S
Tb1281 O1291 2.322 . S
Tb1281 O1292 2.349 . S
Tb1281 O1294 2.415 . S
Tb1281 O1295 2.399 . S
Tb1281 O1296 2.325 . S
Tb1281 O1299 2.303 . S
Tb1281 C1310 2.764 . S
C1282 O1298 1.261 . S
C1282 O1299 1.257 . S
C1283 C1286 1.358 . S
C1283 C1287 1.332 . S
C1283 C1289 1.504 . S
C1284 C1285 1.373 . S
C1284 C1288 1.308 . S
C1285 C1284 1.373 . S
C1285 C1286 1.429 . S
C1285 H1312 0.932 . S
C1286 C1283 1.358 . S
C1286 C1285 1.429 . S
C1286 H1313 0.930 . S
C1287 C1283 1.332 . S
C1287 C1288 1.394 . S
C1287 H1314 0.932 . S
C1288 C1284 1.308 . S
C1288 C1287 1.394 . S
C1288 H1315 0.929 . S
C1289 Tb1280 2.764 . S
C1289 C1283 1.504 . S
C1289 O1301 1.239 . S
C1289 O1302 1.263 . S
O1290 Tb1280 2.325 . S
O1290 C1300 1.236 . S
O1291 Tb1281 2.322 . S
O1291 C1300 1.257 . S
O1292 Tb1281 2.349 . S
O1292 C1303 1.261 . S
O1293 Tb1280 2.303 . S
O1293 C1303 1.257 . S
O1294 Tb1281 2.415 . S
O1294 C1310 1.239 . S
O1295 Tb1281 2.399 . S
O1295 C1310 1.263 . S
O1296 Tb1281 2.325 . S
O1296 C1311 1.236 . S
O1297 Tb1280 2.322 . S
O1297 C1311 1.257 . S
O1298 Tb1280 2.349 . S
O1298 C1282 1.261 . S
O1299 Tb1281 2.303 . S
O1299 C1282 1.257 . S
C1300 O1290 1.236 . S
C1300 O1291 1.257 . S
O1301 Tb1280 2.415 . S
O1301 C1289 1.239 . S
O1302 Tb1280 2.399 . S
O1302 C1289 1.263 . S
C1303 O1292 1.261 . S
C1303 O1293 1.257 . S
C1304 C1307 1.358 . S
C1304 C1308 1.332 . S
C1304 C1310 1.504 1_455 S
C1305 C1306 1.373 . S
C1305 C1309 1.308 . S
C1306 C1305 1.373 . S
C1306 C1307 1.429 . S
C1306 H1316 0.932 . S
C1307 C1304 1.358 . S
C1307 C1306 1.429 . S
C1307 H1317 0.930 . S
C1308 C1304 1.332 . S
C1308 C1309 1.394 . S
C1308 H1318 0.932 . S
C1309 C1305 1.308 . S
C1309 C1308 1.394 . S
C1309 H1319 0.929 . S
C1310 Tb1281 2.764 . S
C1310 O1294 1.239 . S
C1310 O1295 1.263 . S
C1310 C1304 1.504 1_655 S
C1311 O1296 1.236 . S
C1311 O1297 1.257 . S
H1312 C1285 0.932 . S
H1313 C1286 0.930 . S
H1314 C1287 0.932 . S
H1315 C1288 0.929 . S
H1316 C1306 0.932 . S
H1317 C1307 0.930 . S
H1318 C1308 0.932 . S
H1319 C1309 0.929 . S
Tb1320 C1329 2.764 . S
Tb1320 O1330 2.325 . S
Tb1320 O1333 2.303 . S
Tb1320 O1337 2.322 . S
Tb1320 O1338 2.349 . S
Tb1320 O1341 2.415 . S
Tb1320 O1342 2.399 . S
Tb1321 O1331 2.322 . S
Tb1321 O1332 2.349 . S
Tb1321 O1334 2.415 . S
Tb1321 O1335 2.399 . S
Tb1321 O1336 2.325 . S
Tb1321 O1339 2.303 . S
Tb1321 C1350 2.764 . S
C1322 O1338 1.261 . S
C1322 O1339 1.257 . S
C1323 C1326 1.358 . S
C1323 C1327 1.332 . S
C1323 C1329 1.504 . S
C1324 C1325 1.373 . S
C1324 C1328 1.308 . S
C1325 C1324 1.373 . S
C1325 C1326 1.429 . S
C1325 H1352 0.932 . S
C1326 C1323 1.358 . S
C1326 C1325 1.429 . S
C1326 H1353 0.930 . S
C1327 C1323 1.332 . S
C1327 C1328 1.394 . S
C1327 H1354 0.932 . S
C1328 C1324 1.308 . S
C1328 C1327 1.394 . S
C1328 H1355 0.929 . S
C1329 Tb1320 2.764 . S
C1329 C1323 1.504 . S
C1329 O1341 1.239 . S
C1329 O1342 1.263 . S
O1330 Tb1320 2.325 . S
O1330 C1340 1.236 . S
O1331 Tb1321 2.322 . S
O1331 C1340 1.257 . S
O1332 Tb1321 2.349 . S
O1332 C1343 1.261 . S
O1333 Tb1320 2.303 . S
O1333 C1343 1.257 . S
O1334 Tb1321 2.415 . S
O1334 C1350 1.239 . S
O1335 Tb1321 2.399 . S
O1335 C1350 1.263 . S
O1336 Tb1321 2.325 . S
O1336 C1351 1.236 . S
O1337 Tb1320 2.322 . S
O1337 C1351 1.257 . S
O1338 Tb1320 2.349 . S
O1338 C1322 1.261 . S
O1339 Tb1321 2.303 . S
O1339 C1322 1.257 . S
C1340 O1330 1.236 . S
C1340 O1331 1.257 . S
O1341 Tb1320 2.415 . S
O1341 C1329 1.239 . S
O1342 Tb1320 2.399 . S
O1342 C1329 1.263 . S
C1343 O1332 1.261 . S
C1343 O1333 1.257 . S
C1344 C1347 1.358 . S
C1344 C1348 1.332 . S
C1344 C1350 1.504 . S
C1345 C1346 1.373 . S
C1345 C1349 1.308 . S
C1346 C1345 1.373 . S
C1346 C1347 1.429 . S
C1346 H1356 0.932 . S
C1347 C1344 1.358 . S
C1347 C1346 1.429 . S
C1347 H1357 0.930 . S
C1348 C1344 1.332 . S
C1348 C1349 1.394 . S
C1348 H1358 0.932 . S
C1349 C1345 1.308 . S
C1349 C1348 1.394 . S
C1349 H1359 0.929 . S
C1350 Tb1321 2.764 . S
C1350 O1334 1.239 . S
C1350 O1335 1.263 . S
C1350 C1344 1.504 . S
C1351 O1336 1.236 . S
C1351 O1337 1.257 . S
H1352 C1325 0.932 . S
H1353 C1326 0.930 . S
H1354 C1327 0.932 . S
H1355 C1328 0.929 . S
H1356 C1346 0.932 . S
H1357 C1347 0.930 . S
H1358 C1348 0.932 . S
H1359 C1349 0.929 . S
Tb1360 C1369 2.764 . S
Tb1360 O1370 2.325 . S
Tb1360 O1373 2.303 . S
Tb1360 O1377 2.322 . S
Tb1360 O1378 2.349 . S
Tb1360 O1381 2.415 . S
Tb1360 O1382 2.399 . S
Tb1361 O1371 2.322 . S
Tb1361 O1372 2.349 . S
Tb1361 O1374 2.415 . S
Tb1361 O1375 2.399 . S
Tb1361 O1376 2.325 . S
Tb1361 O1379 2.303 . S
Tb1361 C1390 2.764 . S
C1362 O1378 1.261 . S
C1362 O1379 1.257 . S
C1363 C1366 1.358 1_545 S
C1363 C1367 1.332 1_545 S
C1363 C1369 1.504 . S
C1364 C1365 1.373 . S
C1364 C1368 1.308 . S
C1365 C1364 1.373 . S
C1365 C1366 1.429 . S
C1365 H1392 0.932 . S
C1366 C1363 1.358 1_565 S
C1366 C1365 1.429 . S
C1366 H1393 0.930 . S
C1367 C1363 1.332 1_565 S
C1367 C1368 1.394 . S
C1367 H1394 0.932 1_565 S
C1368 C1364 1.308 . S
C1368 C1367 1.394 . S
C1368 H1395 0.929 . S
C1369 Tb1360 2.764 . S
C1369 C1363 1.504 . S
C1369 O1381 1.239 . S
C1369 O1382 1.263 . S
O1370 Tb1360 2.325 . S
O1370 C1380 1.236 . S
O1371 Tb1361 2.322 . S
O1371 C1380 1.257 . S
O1372 Tb1361 2.349 . S
O1372 C1383 1.261 . S
O1373 Tb1360 2.303 . S
O1373 C1383 1.257 . S
O1374 Tb1361 2.415 . S
O1374 C1390 1.239 . S
O1375 Tb1361 2.399 . S
O1375 C1390 1.263 . S
O1376 Tb1361 2.325 . S
O1376 C1391 1.236 . S
O1377 Tb1360 2.322 . S
O1377 C1391 1.257 . S
O1378 Tb1360 2.349 . S
O1378 C1362 1.261 . S
O1379 Tb1361 2.303 . S
O1379 C1362 1.257 . S
C1380 O1370 1.236 . S
C1380 O1371 1.257 . S
O1381 Tb1360 2.415 . S
O1381 C1369 1.239 . S
O1382 Tb1360 2.399 . S
O1382 C1369 1.263 . S
C1383 O1372 1.261 . S
C1383 O1373 1.257 . S
C1384 C1387 1.358 . S
C1384 C1388 1.332 . S
C1384 C1390 1.504 . S
C1385 C1386 1.373 . S
C1385 C1389 1.308 . S
C1386 C1385 1.373 . S
C1386 C1387 1.429 . S
C1386 H1396 0.932 . S
C1387 C1384 1.358 . S
C1387 C1386 1.429 . S
C1387 H1397 0.930 . S
C1388 C1384 1.332 . S
C1388 C1389 1.394 . S
C1388 H1398 0.932 . S
C1389 C1385 1.308 . S
C1389 C1388 1.394 . S
C1389 H1399 0.929 . S
C1390 Tb1361 2.764 . S
C1390 O1374 1.239 . S
C1390 O1375 1.263 . S
C1390 C1384 1.504 . S
C1391 O1376 1.236 . S
C1391 O1377 1.257 . S
H1392 C1365 0.932 . S
H1393 C1366 0.930 . S
H1394 C1367 0.932 1_545 S
H1395 C1368 0.929 . S
H1396 C1386 0.932 . S
H1397 C1387 0.930 . S
H1398 C1388 0.932 . S
H1399 C1389 0.929 . S
Tb1400 C1409 2.764 1_655 S
Tb1400 O1410 2.325 . S
Tb1400 O1413 2.303 . S
Tb1400 O1417 2.322 . S
Tb1400 O1418 2.349 . S
Tb1400 O1421 2.415 1_655 S
Tb1400 O1422 2.399 1_655 S
Tb1401 O1411 2.322 . S
Tb1401 O1412 2.349 . S
Tb1401 O1414 2.415 . S
Tb1401 O1415 2.399 . S
Tb1401 O1416 2.325 . S
Tb1401 O1419 2.303 . S
Tb1401 C1430 2.764 . S
C1402 O1418 1.261 . S
C1402 O1419 1.257 . S
C1403 C1406 1.358 . S
C1403 C1407 1.332 . S
C1403 C1409 1.504 . S
C1404 C1405 1.373 . S
C1404 C1408 1.308 . S
C1405 C1404 1.373 . S
C1405 C1406 1.429 . S
C1405 H1432 0.932 . S
C1406 C1403 1.358 . S
C1406 C1405 1.429 . S
C1406 H1433 0.930 . S
C1407 C1403 1.332 . S
C1407 C1408 1.394 . S
C1407 H1434 0.932 . S
C1408 C1404 1.308 . S
C1408 C1407 1.394 . S
C1408 H1435 0.929 . S
C1409 Tb1400 2.764 1_455 S
C1409 C1403 1.504 . S
C1409 O1421 1.239 . S
C1409 O1422 1.263 . S
O1410 Tb1400 2.325 . S
O1410 C1420 1.236 . S
O1411 Tb1401 2.322 . S
O1411 C1420 1.257 . S
O1412 Tb1401 2.349 . S
O1412 C1423 1.261 . S
O1413 Tb1400 2.303 . S
O1413 C1423 1.257 . S
O1414 Tb1401 2.415 . S
O1414 C1430 1.239 . S
O1415 Tb1401 2.399 . S
O1415 C1430 1.263 . S
O1416 Tb1401 2.325 . S
O1416 C1431 1.236 . S
O1417 Tb1400 2.322 . S
O1417 C1431 1.257 . S
O1418 Tb1400 2.349 . S
O1418 C1402 1.261 . S
O1419 Tb1401 2.303 . S
O1419 C1402 1.257 . S
C1420 O1410 1.236 . S
C1420 O1411 1.257 . S
O1421 Tb1400 2.415 1_455 S
O1421 C1409 1.239 . S
O1422 Tb1400 2.399 1_455 S
O1422 C1409 1.263 . S
C1423 O1412 1.261 . S
C1423 O1413 1.257 . S
C1424 C1427 1.358 . S
C1424 C1428 1.332 . S
C1424 C1430 1.504 . S
C1425 C1426 1.373 . S
C1425 C1429 1.308 . S
C1426 C1425 1.373 . S
C1426 C1427 1.429 . S
C1426 H1436 0.932 . S
C1427 C1424 1.358 . S
C1427 C1426 1.429 . S
C1427 H1437 0.930 . S
C1428 C1424 1.332 . S
C1428 C1429 1.394 . S
C1428 H1438 0.932 . S
C1429 C1425 1.308 . S
C1429 C1428 1.394 . S
C1429 H1439 0.929 . S
C1430 Tb1401 2.764 . S
C1430 O1414 1.239 . S
C1430 O1415 1.263 . S
C1430 C1424 1.504 . S
C1431 O1416 1.236 . S
C1431 O1417 1.257 . S
H1432 C1405 0.932 . S
H1433 C1406 0.930 . S
H1434 C1407 0.932 . S
H1435 C1408 0.929 . S
H1436 C1426 0.932 . S
H1437 C1427 0.930 . S
H1438 C1428 0.932 . S
H1439 C1429 0.929 . S
C1440 C1441 1.387 . S
C1440 H1444 0.950 . S
C1440 C1449 1.390 . S
C1441 C1440 1.387 . S
C1441 C1443 1.387 . S
H1442 C1449 0.950 . S
C1443 C1441 1.387 . S
C1443 C1445 1.390 . S
C1443 H1447 0.950 . S
H1444 C1440 0.950 . S
C1445 C1443 1.390 . S
C1445 C1446 1.387 . S
C1445 H1448 0.950 . S
C1446 C1445 1.387 . S
C1446 C1449 1.387 . S
H1447 C1443 0.950 . S
H1448 C1445 0.950 . S
C1449 C1440 1.390 . S
C1449 H1442 0.950 . S
C1449 C1446 1.387 . S
C1450 C1451 1.387 . S
C1450 H1454 0.950 1_655 S
C1450 C1459 1.390 1_655 S
C1451 C1450 1.387 . S
C1451 C1453 1.387 . S
H1452 C1459 0.950 . S
C1453 C1451 1.387 . S
C1453 C1455 1.390 . S
C1453 H1457 0.950 . S
H1454 C1450 0.950 1_455 S
C1455 C1453 1.390 . S
C1455 C1456 1.387 . S
C1455 H1458 0.950 . S
C1456 C1455 1.387 . S
C1456 C1459 1.387 1_655 S
H1457 C1453 0.950 . S
H1458 C1455 0.950 . S
C1459 C1450 1.390 1_455 S
C1459 H1452 0.950 . S
C1459 C1456 1.387 1_455 S
C1460 C1461 1.387 . S
C1460 H1464 0.950 . S
C1460 C1469 1.390 . S
C1461 C1460 1.387 . S
C1461 C1463 1.387 . S
H1462 C1469 0.950 . S
C1463 C1461 1.387 . S
C1463 C1465 1.390 . S
C1463 H1467 0.950 . S
H1464 C1460 0.950 . S
C1465 C1463 1.390 . S
C1465 C1466 1.387 . S
C1465 H1468 0.950 . S
C1466 C1465 1.387 . S
C1466 C1469 1.387 . S
H1467 C1463 0.950 . S
H1468 C1465 0.950 . S
C1469 C1460 1.390 . S
C1469 H1462 0.950 . S
C1469 C1466 1.387 . S
C1470 C1471 1.387 . S
C1470 H1474 0.950 . S
C1470 C1479 1.390 . S
C1471 C1470 1.387 . S
C1471 C1473 1.387 . S
H1472 C1479 0.950 . S
C1473 C1471 1.387 . S
C1473 C1475 1.390 . S
C1473 H1477 0.950 . S
H1474 C1470 0.950 . S
C1475 C1473 1.390 . S
C1475 C1476 1.387 . S
C1475 H1478 0.950 . S
C1476 C1475 1.387 . S
C1476 C1479 1.387 . S
H1477 C1473 0.950 . S
H1478 C1475 0.950 . S
C1479 C1470 1.390 . S
C1479 H1472 0.950 . S
C1479 C1476 1.387 . S
C1480 C1481 1.387 . S
C1480 H1484 0.950 . S
C1480 C1489 1.390 . S
C1481 C1480 1.387 . S
C1481 C1483 1.387 . S
H1482 C1489 0.950 . S
C1483 C1481 1.387 . S
C1483 C1485 1.390 . S
C1483 H1487 0.950 . S
H1484 C1480 0.950 . S
C1485 C1483 1.390 . S
C1485 C1486 1.387 . S
C1485 H1488 0.950 . S
C1486 C1485 1.387 . S
C1486 C1489 1.387 . S
H1487 C1483 0.950 . S
H1488 C1485 0.950 . S
C1489 C1480 1.390 . S
C1489 H1482 0.950 . S
C1489 C1486 1.387 . S
C1490 C1491 1.387 . S
C1490 H1494 0.950 . S
C1490 C1499 1.390 . S
C1491 C1490 1.387 . S
C1491 C1493 1.387 . S
H1492 C1499 0.950 1_545 S
C1493 C1491 1.387 . S
C1493 C1495 1.390 . S
C1493 H1497 0.950 . S
H1494 C1490 0.950 . S
C1495 C1493 1.390 . S
C1495 C1496 1.387 . S
C1495 H1498 0.950 . S
C1496 C1495 1.387 . S
C1496 C1499 1.387 . S
H1497 C1493 0.950 . S
H1498 C1495 0.950 . S
C1499 C1490 1.390 . S
C1499 H1492 0.950 1_565 S
C1499 C1496 1.387 . S
C1500 C1501 1.387 1_545 S
C1500 H1504 0.950 . S
C1500 C1509 1.390 1_545 S
C1501 C1500 1.387 1_565 S
C1501 C1503 1.387 . S
H1502 C1509 0.950 . S
C1503 C1501 1.387 . S
C1503 C1505 1.390 . S
C1503 H1507 0.950 . S
H1504 C1500 0.950 . S
C1505 C1503 1.390 . S
C1505 C1506 1.387 . S
C1505 H1508 0.950 . S
C1506 C1505 1.387 . S
C1506 C1509 1.387 . S
H1507 C1503 0.950 . S
H1508 C1505 0.950 . S
C1509 C1500 1.390 1_565 S
C1509 H1502 0.950 . S
C1509 C1506 1.387 . S
C1510 C1511 1.387 . S
C1510 H1514 0.950 . S
C1510 C1519 1.390 . S
C1511 C1510 1.387 . S
C1511 C1513 1.387 . S
H1512 C1519 0.950 . S
C1513 C1511 1.387 . S
C1513 C1515 1.390 . S
C1513 H1517 0.950 . S
H1514 C1510 0.950 . S
C1515 C1513 1.390 . S
C1515 C1516 1.387 . S
C1515 H1518 0.950 . S
C1516 C1515 1.387 . S
C1516 C1519 1.387 . S
H1517 C1513 0.950 . S
H1518 C1515 0.950 . S
C1519 C1510 1.390 . S
C1519 H1512 0.950 . S
C1519 C1516 1.387 . S
C1520 C1521 1.387 . S
C1520 H1524 0.950 . S
C1520 C1529 1.390 . S
C1521 C1520 1.387 . S
C1521 C1523 1.387 . S
H1522 C1529 0.950 . S
C1523 C1521 1.387 . S
C1523 C1525 1.390 . S
C1523 H1527 0.950 . S
H1524 C1520 0.950 . S
C1525 C1523 1.390 . S
C1525 C1526 1.387 . S
C1525 H1528 0.950 . S
C1526 C1525 1.387 . S
C1526 C1529 1.387 . S
H1527 C1523 0.950 . S
H1528 C1525 0.950 . S
C1529 C1520 1.390 . S
C1529 H1522 0.950 . S
C1529 C1526 1.387 . S
C1530 C1531 1.387 . S
C1530 H1534 0.950 . S
C1530 C1539 1.390 . S
C1531 C1530 1.387 . S
C1531 C1533 1.387 . S
H1532 C1539 0.950 . S
C1533 C1531 1.387 . S
C1533 C1535 1.390 . S
C1533 H1537 0.950 . S
H1534 C1530 0.950 . S
C1535 C1533 1.390 . S
C1535 C1536 1.387 . S
C1535 H1538 0.950 . S
C1536 C1535 1.387 . S
C1536 C1539 1.387 . S
H1537 C1533 0.950 . S
H1538 C1535 0.950 . S
C1539 C1530 1.390 . S
C1539 H1532 0.950 . S
C1539 C1536 1.387 . S
C1540 C1541 1.387 . S
C1540 H1544 0.950 . S
C1540 C1549 1.390 . S
C1541 C1540 1.387 . S
C1541 C1543 1.387 . S
H1542 C1549 0.950 . S
C1543 C1541 1.387 . S
C1543 C1545 1.390 . S
C1543 H1547 0.950 . S
H1544 C1540 0.950 . S
C1545 C1543 1.390 . S
C1545 C1546 1.387 . S
C1545 H1548 0.950 . S
C1546 C1545 1.387 . S
C1546 C1549 1.387 . S
H1547 C1543 0.950 . S
H1548 C1545 0.950 . S
C1549 C1540 1.390 . S
C1549 H1542 0.950 . S
C1549 C1546 1.387 . S
C1550 C1551 1.387 . S
C1550 H1554 0.950 . S
C1550 C1559 1.390 . S
C1551 C1550 1.387 . S
C1551 C1553 1.387 . S
H1552 C1559 0.950 . S
C1553 C1551 1.387 . S
C1553 C1555 1.390 . S
C1553 H1557 0.950 . S
H1554 C1550 0.950 . S
C1555 C1553 1.390 . S
C1555 C1556 1.387 . S
C1555 H1558 0.950 . S
C1556 C1555 1.387 . S
C1556 C1559 1.387 . S
H1557 C1553 0.950 . S
H1558 C1555 0.950 . S
C1559 C1550 1.390 . S
C1559 H1552 0.950 . S
C1559 C1556 1.387 . S
C1560 C1561 1.387 . S
C1560 H1564 0.950 . S
C1560 C1569 1.390 . S
C1561 C1560 1.387 . S
C1561 C1563 1.387 . S
H1562 C1569 0.950 . S
C1563 C1561 1.387 . S
C1563 C1565 1.390 . S
C1563 H1567 0.950 . S
H1564 C1560 0.950 . S
C1565 C1563 1.390 . S
C1565 C1566 1.387 . S
C1565 H1568 0.950 . S
C1566 C1565 1.387 . S
C1566 C1569 1.387 . S
H1567 C1563 0.950 . S
H1568 C1565 0.950 . S
C1569 C1560 1.390 . S
C1569 H1562 0.950 . S
C1569 C1566 1.387 . S
C1570 C1571 1.387 1_545 S
C1570 H1574 0.950 . S
C1570 C1579 1.390 . S
C1571 C1570 1.387 1_565 S
C1571 C1573 1.387 1_565 S
H1572 C1579 0.950 . S
C1573 C1571 1.387 1_545 S
C1573 C1575 1.390 . S
C1573 H1577 0.950 . S
H1574 C1570 0.950 . S
C1575 C1573 1.390 . S
C1575 C1576 1.387 . S
C1575 H1578 0.950 . S
C1576 C1575 1.387 . S
C1576 C1579 1.387 . S
H1577 C1573 0.950 . S
H1578 C1575 0.950 . S
C1579 C1570 1.390 . S
C1579 H1572 0.950 . S
C1579 C1576 1.387 . S
C1580 C1581 1.387 1_455 S
C1580 H1584 0.950 1_455 S
C1580 C1589 1.390 . S
C1581 C1580 1.387 1_655 S
C1581 C1583 1.387 1_655 S
H1582 C1589 0.950 . S
C1583 C1581 1.387 1_455 S
C1583 C1585 1.390 . S
C1583 H1587 0.950 . S
H1584 C1580 0.950 1_655 S
C1585 C1583 1.390 . S
C1585 C1586 1.387 . S
C1585 H1588 0.950 . S
C1586 C1585 1.387 . S
C1586 C1589 1.387 . S
H1587 C1583 0.950 . S
H1588 C1585 0.950 . S
C1589 C1580 1.390 . S
C1589 H1582 0.950 . S
C1589 C1586 1.387 . S
C1590 C1591 1.387 . S
C1590 H1594 0.950 . S
C1590 C1599 1.390 . S
C1591 C1590 1.387 . S
C1591 C1593 1.387 . S
H1592 C1599 0.950 . S
C1593 C1591 1.387 . S
C1593 C1595 1.390 . S
C1593 H1597 0.950 . S
H1594 C1590 0.950 . S
C1595 C1593 1.390 . S
C1595 C1596 1.387 . S
C1595 H1598 0.950 . S
C1596 C1595 1.387 . S
C1596 C1599 1.387 . S
H1597 C1593 0.950 . S
H1598 C1595 0.950 . S
C1599 C1590 1.390 . S
C1599 H1592 0.950 . S
C1599 C1596 1.387 . S
C1600 C1601 1.387 1_545 S
C1600 H1604 0.950 . S
C1600 C1609 1.390 . S
C1601 C1600 1.387 1_565 S
C1601 C1603 1.387 1_565 S
H1602 C1609 0.950 . S
C1603 C1601 1.387 1_545 S
C1603 C1605 1.390 . S
C1603 H1607 0.950 . S
H1604 C1600 0.950 . S
C1605 C1603 1.390 . S
C1605 C1606 1.387 . S
C1605 H1608 0.950 . S
C1606 C1605 1.387 . S
C1606 C1609 1.387 . S
H1607 C1603 0.950 . S
H1608 C1605 0.950 . S
C1609 C1600 1.390 . S
C1609 H1602 0.950 . S
C1609 C1606 1.387 . S
C1610 C1611 1.387 1_455 S
C1610 H1614 0.950 1_455 S
C1610 C1619 1.390 . S
C1611 C1610 1.387 1_655 S
C1611 C1613 1.387 1_655 S
H1612 C1619 0.950 . S
C1613 C1611 1.387 1_455 S
C1613 C1615 1.390 . S
C1613 H1617 0.950 . S
H1614 C1610 0.950 1_655 S
C1615 C1613 1.390 . S
C1615 C1616 1.387 . S
C1615 H1618 0.950 . S
C1616 C1615 1.387 . S
C1616 C1619 1.387 . S
H1617 C1613 0.950 . S
H1618 C1615 0.950 . S
C1619 C1610 1.390 . S
C1619 H1612 0.950 . S
C1619 C1616 1.387 . S
C1620 C1621 1.387 . S
C1620 H1624 0.950 . S
C1620 C1629 1.390 1_554 S
C1621 C1620 1.387 . S
C1621 C1623 1.388 . S
H1622 C1629 0.950 . S
C1623 C1621 1.388 . S
C1623 C1625 1.390 1_554 S
C1623 H1627 0.949 1_545 S
H1624 C1620 0.950 . S
C1625 C1623 1.390 1_556 S
C1625 C1626 1.387 . S
C1625 H1628 0.950 1_545 S
C1626 C1625 1.387 . S
C1626 C1629 1.387 . S
H1627 C1623 0.949 1_565 S
H1628 C1625 0.950 1_565 S
C1629 C1620 1.390 1_556 S
C1629 H1622 0.950 . S
C1629 C1626 1.387 . S
C1630 C1631 1.387 . S
C1630 H1634 0.950 . S
C1630 C1639 1.390 1_556 S
C1631 C1630 1.387 . S
C1631 C1633 1.387 . S
H1632 C1639 0.950 . S
C1633 C1631 1.387 . S
C1633 C1635 1.390 1_556 S
C1633 H1637 0.950 . S
H1634 C1630 0.950 . S
C1635 C1633 1.390 1_554 S
C1635 C1636 1.387 . S
C1635 H1638 0.950 . S
C1636 C1635 1.387 . S
C1636 C1639 1.387 . S
H1637 C1633 0.950 . S
H1638 C1635 0.950 . S
C1639 C1630 1.390 1_554 S
C1639 H1632 0.950 . S
C1639 C1636 1.387 . S
C1640 C1641 1.387 . S
C1640 H1644 0.950 . S
C1640 C1649 1.390 1_554 S
C1641 C1640 1.387 . S
C1641 C1643 1.387 . S
H1642 C1649 0.950 . S
C1643 C1641 1.387 . S
C1643 C1645 1.390 1_554 S
C1643 H1647 0.950 . S
H1644 C1640 0.950 . S
C1645 C1643 1.390 1_556 S
C1645 C1646 1.387 . S
C1645 H1648 0.950 . S
C1646 C1645 1.387 . S
C1646 C1649 1.387 . S
H1647 C1643 0.950 . S
H1648 C1645 0.950 . S
C1649 C1640 1.390 1_556 S
C1649 H1642 0.950 . S
C1649 C1646 1.387 . S
C1650 C1651 1.387 . S
C1650 H1654 0.950 . S
C1650 C1659 1.390 . S
C1651 C1650 1.387 . S
C1651 C1653 1.387 . S
H1652 C1659 0.950 . S
C1653 C1651 1.387 . S
C1653 C1655 1.390 . S
C1653 H1657 0.950 . S
H1654 C1650 0.950 . S
C1655 C1653 1.390 . S
C1655 C1656 1.387 . S
C1655 H1658 0.950 . S
C1656 C1655 1.387 . S
C1656 C1659 1.387 . S
H1657 C1653 0.950 . S
H1658 C1655 0.950 . S
C1659 C1650 1.390 . S
C1659 H1652 0.950 . S
C1659 C1656 1.387 . S
C1660 C1661 1.387 . S
C1660 H1664 0.950 . S
C1660 C1669 1.390 . S
C1661 C1660 1.387 . S
C1661 C1663 1.387 . S
H1662 C1669 0.950 . S
C1663 C1661 1.387 . S
C1663 C1665 1.390 . S
C1663 H1667 0.950 . S
H1664 C1660 0.950 . S
C1665 C1663 1.390 . S
C1665 C1666 1.387 . S
C1665 H1668 0.950 . S
C1666 C1665 1.387 . S
C1666 C1669 1.387 . S
H1667 C1663 0.950 . S
H1668 C1665 0.950 . S
C1669 C1660 1.390 . S
C1669 H1662 0.950 . S
C1669 C1666 1.387 . S
C1670 C1671 1.387 . S
C1670 H1674 0.950 1_545 S
C1670 C1679 1.390 . S
C1671 C1670 1.387 . S
C1671 C1673 1.387 . S
H1672 C1679 0.950 1_565 S
C1673 C1671 1.387 . S
C1673 C1675 1.390 . S
C1673 H1677 0.950 . S
H1674 C1670 0.950 1_565 S
C1675 C1673 1.390 . S
C1675 C1676 1.387 . S
C1675 H1678 0.950 . S
C1676 C1675 1.387 . S
C1676 C1679 1.387 . S
H1677 C1673 0.950 . S
H1678 C1675 0.950 . S
C1679 C1670 1.390 . S
C1679 H1672 0.950 1_545 S
C1679 C1676 1.387 . S
C1680 C1681 1.387 . S
C1680 H1684 0.950 . S
C1680 C1689 1.390 . S
C1681 C1680 1.387 . S
C1681 C1683 1.387 . S
H1682 C1689 0.950 . S
C1683 C1681 1.387 . S
C1683 C1685 1.390 . S
C1683 H1687 0.950 . S
H1684 C1680 0.950 . S
C1685 C1683 1.390 . S
C1685 C1686 1.387 . S
C1685 H1688 0.950 . S
C1686 C1685 1.387 . S
C1686 C1689 1.387 . S
H1687 C1683 0.950 . S
H1688 C1685 0.950 . S
C1689 C1680 1.390 . S
C1689 H1682 0.950 . S
C1689 C1686 1.387 . S
C1690 C1691 1.387 . S
C1690 H1694 0.950 . S
C1690 C1699 1.390 . S
C1691 C1690 1.387 . S
C1691 C1693 1.387 . S
H1692 C1699 0.950 . S
C1693 C1691 1.387 . S
C1693 C1695 1.390 . S
C1693 H1697 0.950 . S
H1694 C1690 0.950 . S
C1695 C1693 1.390 . S
C1695 C1696 1.387 . S
C1695 H1698 0.950 . S
C1696 C1695 1.387 . S
C1696 C1699 1.387 . S
H1697 C1693 0.950 . S
H1698 C1695 0.950 . S
C1699 C1690 1.390 . S
C1699 H1692 0.950 . S
C1699 C1696 1.387 . S
C1700 C1701 1.387 . S
C1700 H1704 0.950 . S
C1700 C1709 1.390 . S
C1701 C1700 1.387 . S
C1701 C1703 1.387 . S
H1702 C1709 0.950 . S
C1703 C1701 1.387 . S
C1703 C1705 1.390 . S
C1703 H1707 0.950 . S
H1704 C1700 0.950 . S
C1705 C1703 1.390 . S
C1705 C1706 1.387 . S
C1705 H1708 0.950 . S
C1706 C1705 1.387 . S
C1706 C1709 1.387 . S
H1707 C1703 0.950 . S
H1708 C1705 0.950 . S
C1709 C1700 1.390 . S
C1709 H1702 0.950 . S
C1709 C1706 1.387 . S
C1710 C1711 1.387 . S
C1710 H1714 0.950 . S
C1710 C1719 1.390 . S
C1711 C1710 1.387 . S
C1711 C1713 1.387 . S
H1712 C1719 0.950 . S
C1713 C1711 1.387 . S
C1713 C1715 1.390 . S
C1713 H1717 0.950 . S
H1714 C1710 0.950 . S
C1715 C1713 1.390 . S
C1715 C1716 1.387 . S
C1715 H1718 0.950 . S
C1716 C1715 1.387 . S
C1716 C1719 1.387 . S
H1717 C1713 0.950 . S
H1718 C1715 0.950 . S
C1719 C1710 1.390 . S
C1719 H1712 0.950 . S
C1719 C1716 1.387 . S
C1720 C1721 1.387 . S
C1720 H1724 0.950 . S
C1720 C1729 1.390 . S
C1721 C1720 1.387 . S
C1721 C1723 1.387 . S
H1722 C1729 0.950 . S
C1723 C1721 1.387 . S
C1723 C1725 1.390 . S
C1723 H1727 0.950 . S
H1724 C1720 0.950 . S
C1725 C1723 1.390 . S
C1725 C1726 1.387 . S
C1725 H1728 0.950 . S
C1726 C1725 1.387 . S
C1726 C1729 1.387 . S
H1727 C1723 0.950 . S
H1728 C1725 0.950 . S
C1729 C1720 1.390 . S
C1729 H1722 0.950 . S
C1729 C1726 1.387 . S
C1730 C1731 1.387 . S
C1730 H1734 0.950 . S
C1730 C1739 1.390 . S
C1731 C1730 1.387 . S
C1731 C1733 1.387 . S
H1732 C1739 0.950 . S
C1733 C1731 1.387 . S
C1733 C1735 1.390 . S
C1733 H1737 0.950 . S
H1734 C1730 0.950 . S
C1735 C1733 1.390 . S
C1735 C1736 1.387 . S
C1735 H1738 0.950 . S
C1736 C1735 1.387 . S
C1736 C1739 1.387 . S
H1737 C1733 0.950 . S
H1738 C1735 0.950 . S
C1739 C1730 1.390 . S
C1739 H1732 0.950 . S
C1739 C1736 1.387 . S
C1740 C1741 1.387 . S
C1740 H1744 0.950 . S
C1740 C1749 1.390 . S
C1741 C1740 1.387 . S
C1741 C1743 1.387 . S
H1742 C1749 0.950 . S
C1743 C1741 1.387 . S
C1743 C1745 1.390 . S
C1743 H1747 0.950 . S
H1744 C1740 0.950 . S
C1745 C1743 1.390 . S
C1745 C1746 1.387 . S
C1745 H1748 0.950 . S
C1746 C1745 1.387 . S
C1746 C1749 1.387 . S
H1747 C1743 0.950 . S
H1748 C1745 0.950 . S
C1749 C1740 1.390 . S
C1749 H1742 0.950 . S
C1749 C1746 1.387 . S
C1750 C1751 1.387 . S
C1750 H1754 0.950 . S
C1750 C1759 1.390 . S
C1751 C1750 1.387 . S
C1751 C1753 1.387 . S
H1752 C1759 0.950 . S
C1753 C1751 1.387 . S
C1753 C1755 1.390 . S
C1753 H1757 0.950 . S
H1754 C1750 0.950 . S
C1755 C1753 1.390 . S
C1755 C1756 1.387 . S
C1755 H1758 0.950 . S
C1756 C1755 1.387 . S
C1756 C1759 1.387 . S
H1757 C1753 0.950 . S
H1758 C1755 0.950 . S
C1759 C1750 1.390 . S
C1759 H1752 0.950 . S
C1759 C1756 1.387 . S
C1760 C1761 1.387 . S
C1760 H1764 0.950 . S
C1760 C1769 1.390 . S
C1761 C1760 1.387 . S
C1761 C1763 1.387 . S
H1762 C1769 0.950 . S
C1763 C1761 1.387 . S
C1763 C1765 1.390 . S
C1763 H1767 0.950 . S
H1764 C1760 0.950 . S
C1765 C1763 1.390 . S
C1765 C1766 1.387 . S
C1765 H1768 0.950 . S
C1766 C1765 1.387 . S
C1766 C1769 1.387 . S
H1767 C1763 0.950 . S
H1768 C1765 0.950 . S
C1769 C1760 1.390 . S
C1769 H1762 0.950 . S
C1769 C1766 1.387 . S
C1770 C1771 1.387 . S
C1770 H1774 0.950 . S
C1770 C1779 1.390 . S
C1771 C1770 1.387 . S
C1771 C1773 1.387 . S
H1772 C1779 0.950 . S
C1773 C1771 1.387 . S
C1773 C1775 1.390 . S
C1773 H1777 0.950 . S
H1774 C1770 0.950 . S
C1775 C1773 1.390 . S
C1775 C1776 1.387 . S
C1775 H1778 0.950 . S
C1776 C1775 1.387 . S
C1776 C1779 1.387 . S
H1777 C1773 0.950 . S
H1778 C1775 0.950 . S
C1779 C1770 1.390 . S
C1779 H1772 0.950 . S
C1779 C1776 1.387 . S
C1780 C1781 1.387 . S
C1780 H1784 0.950 . S
C1780 C1789 1.390 . S
C1781 C1780 1.387 . S
C1781 C1783 1.387 . S
H1782 C1789 0.950 . S
C1783 C1781 1.387 . S
C1783 C1785 1.390 . S
C1783 H1787 0.950 . S
H1784 C1780 0.950 . S
C1785 C1783 1.390 . S
C1785 C1786 1.387 . S
C1785 H1788 0.950 . S
C1786 C1785 1.387 . S
C1786 C1789 1.387 . S
H1787 C1783 0.950 . S
H1788 C1785 0.950 . S
C1789 C1780 1.390 . S
C1789 H1782 0.950 . S
C1789 C1786 1.387 . S
C1790 C1791 1.387 . S
C1790 H1794 0.950 . S
C1790 C1799 1.390 . S
C1791 C1790 1.387 . S
C1791 C1793 1.387 . S
H1792 C1799 0.950 . S
C1793 C1791 1.387 . S
C1793 C1795 1.390 . S
C1793 H1797 0.950 . S
H1794 C1790 0.950 . S
C1795 C1793 1.390 . S
C1795 C1796 1.387 . S
C1795 H1798 0.950 . S
C1796 C1795 1.387 . S
C1796 C1799 1.387 . S
H1797 C1793 0.950 . S
H1798 C1795 0.950 . S
C1799 C1790 1.390 . S
C1799 H1792 0.950 . S
C1799 C1796 1.387 . S
C1800 C1801 1.387 . S
C1800 H1804 0.950 . S
C1800 C1809 1.390 . S
C1801 C1800 1.387 . S
C1801 C1803 1.387 . S
H1802 C1809 0.950 . S
C1803 C1801 1.387 . S
C1803 C1805 1.390 . S
C1803 H1807 0.950 . S
H1804 C1800 0.950 . S
C1805 C1803 1.390 . S
C1805 C1806 1.387 . S
C1805 H1808 0.950 . S
C1806 C1805 1.387 . S
C1806 C1809 1.387 . S
H1807 C1803 0.950 . S
H1808 C1805 0.950 . S
C1809 C1800 1.390 . S
C1809 H1802 0.950 . S
C1809 C1806 1.387 . S
C1810 C1811 1.387 . S
C1810 H1814 0.950 . S
C1810 C1819 1.390 . S
C1811 C1810 1.387 . S
C1811 C1813 1.387 . S
H1812 C1819 0.950 . S
C1813 C1811 1.387 . S
C1813 C1815 1.390 . S
C1813 H1817 0.950 . S
H1814 C1810 0.950 . S
C1815 C1813 1.390 . S
C1815 C1816 1.387 . S
C1815 H1818 0.950 . S
C1816 C1815 1.387 . S
C1816 C1819 1.387 . S
H1817 C1813 0.950 . S
H1818 C1815 0.950 . S
C1819 C1810 1.390 . S
C1819 H1812 0.950 . S
C1819 C1816 1.387 . S
C1820 C1821 1.387 . S
C1820 H1824 0.950 . S
C1820 C1829 1.390 . S
C1821 C1820 1.387 . S
C1821 C1823 1.387 . S
H1822 C1829 0.950 . S
C1823 C1821 1.387 . S
C1823 C1825 1.390 . S
C1823 H1827 0.950 . S
H1824 C1820 0.950 . S
C1825 C1823 1.390 . S
C1825 C1826 1.387 . S
C1825 H1828 0.950 . S
C1826 C1825 1.387 . S
C1826 C1829 1.387 . S
H1827 C1823 0.950 . S
H1828 C1825 0.950 . S
C1829 C1820 1.390 . S
C1829 H1822 0.950 . S
C1829 C1826 1.387 . S
C1830 C1831 1.387 . S
C1830 H1834 0.950 . S
C1830 C1839 1.390 . S
C1831 C1830 1.387 . S
C1831 C1833 1.387 . S
H1832 C1839 0.950 . S
C1833 C1831 1.387 . S
C1833 C1835 1.390 . S
C1833 H1837 0.950 . S
H1834 C1830 0.950 . S
C1835 C1833 1.390 . S
C1835 C1836 1.387 . S
C1835 H1838 0.950 . S
C1836 C1835 1.387 . S
C1836 C1839 1.387 . S
H1837 C1833 0.950 . S
H1838 C1835 0.950 . S
C1839 C1830 1.390 . S
C1839 H1832 0.950 . S
C1839 C1836 1.387 . S
C1840 C1841 1.387 . S
C1840 H1844 0.950 . S
C1840 C1849 1.390 . S
C1841 C1840 1.387 . S
C1841 C1843 1.387 . S
H1842 C1849 0.950 . S
C1843 C1841 1.387 . S
C1843 C1845 1.390 . S
C1843 H1847 0.950 . S
H1844 C1840 0.950 . S
C1845 C1843 1.390 . S
C1845 C1846 1.387 . S
C1845 H1848 0.950 . S
C1846 C1845 1.387 . S
C1846 C1849 1.387 . S
H1847 C1843 0.950 . S
H1848 C1845 0.950 . S
C1849 C1840 1.390 . S
C1849 H1842 0.950 . S
C1849 C1846 1.387 . S
C1850 C1851 1.387 . S
C1850 H1854 0.950 . S
C1850 C1859 1.390 . S
C1851 C1850 1.387 . S
C1851 C1853 1.387 . S
H1852 C1859 0.950 . S
C1853 C1851 1.387 . S
C1853 C1855 1.390 . S
C1853 H1857 0.950 . S
H1854 C1850 0.950 . S
C1855 C1853 1.390 . S
C1855 C1856 1.387 . S
C1855 H1858 0.950 . S
C1856 C1855 1.387 . S
C1856 C1859 1.387 . S
H1857 C1853 0.950 . S
H1858 C1855 0.950 . S
C1859 C1850 1.390 . S
C1859 H1852 0.950 . S
C1859 C1856 1.387 . S
C1860 C1861 1.387 . S
C1860 H1864 0.950 . S
C1860 C1869 1.390 . S
C1861 C1860 1.387 . S
C1861 C1863 1.387 . S
H1862 C1869 0.950 . S
C1863 C1861 1.387 . S
C1863 C1865 1.390 . S
C1863 H1867 0.950 . S
H1864 C1860 0.950 . S
C1865 C1863 1.390 . S
C1865 C1866 1.387 . S
C1865 H1868 0.950 . S
C1866 C1865 1.387 . S
C1866 C1869 1.387 . S
H1867 C1863 0.950 . S
H1868 C1865 0.950 . S
C1869 C1860 1.390 . S
C1869 H1862 0.950 . S
C1869 C1866 1.387 . S
C1870 C1871 1.387 . S
C1870 H1874 0.950 . S
C1870 C1879 1.390 . S
C1871 C1870 1.387 . S
C1871 C1873 1.387 . S
H1872 C1879 0.950 . S
C1873 C1871 1.387 . S
C1873 C1875 1.390 . S
C1873 H1877 0.950 . S
H1874 C1870 0.950 . S
C1875 C1873 1.390 . S
C1875 C1876 1.387 . S
C1875 H1878 0.950 . S
C1876 C1875 1.387 . S
C1876 C1879 1.387 . S
H1877 C1873 0.950 . S
H1878 C1875 0.950 . S
C1879 C1870 1.390 . S
C1879 H1872 0.950 . S
C1879 C1876 1.387 . S
C1880 C1881 1.387 . S
C1880 H1884 0.950 . S
C1880 C1889 1.390 . S
C1881 C1880 1.387 . S
C1881 C1883 1.387 . S
H1882 C1889 0.950 . S
C1883 C1881 1.387 . S
C1883 C1885 1.390 . S
C1883 H1887 0.950 . S
H1884 C1880 0.950 . S
C1885 C1883 1.390 . S
C1885 C1886 1.387 . S
C1885 H1888 0.950 . S
C1886 C1885 1.387 . S
C1886 C1889 1.387 . S
H1887 C1883 0.950 . S
H1888 C1885 0.950 . S
C1889 C1880 1.390 . S
C1889 H1882 0.950 . S
C1889 C1886 1.387 . S
C1890 C1891 1.387 . S
C1890 H1894 0.950 . S
C1890 C1899 1.390 . S
C1891 C1890 1.387 . S
C1891 C1893 1.387 . S
H1892 C1899 0.950 . S
C1893 C1891 1.387 . S
C1893 C1895 1.390 . S
C1893 H1897 0.950 . S
H1894 C1890 0.950 . S
C1895 C1893 1.390 . S
C1895 C1896 1.387 . S
C1895 H1898 0.950 . S
C1896 C1895 1.387 . S
C1896 C1899 1.387 . S
H1897 C1893 0.950 . S
H1898 C1895 0.950 . S
C1899 C1890 1.390 . S
C1899 H1892 0.950 . S
C1899 C1896 1.387 . S
C1900 C1901 1.387 . S
C1900 H1904 0.950 . S
C1900 C1909 1.390 . S
C1901 C1900 1.387 . S
C1901 C1903 1.387 . S
H1902 C1909 0.950 . S
C1903 C1901 1.387 . S
C1903 C1905 1.390 . S
C1903 H1907 0.950 . S
H1904 C1900 0.950 . S
C1905 C1903 1.390 . S
C1905 C1906 1.387 . S
C1905 H1908 0.950 . S
C1906 C1905 1.387 . S
C1906 C1909 1.387 . S
H1907 C1903 0.950 . S
H1908 C1905 0.950 . S
C1909 C1900 1.390 . S
C1909 H1902 0.950 . S
C1909 C1906 1.387 . S
C1910 C1911 1.387 . S
C1910 H1914 0.950 . S
C1910 C1919 1.390 . S
C1911 C1910 1.387 . S
C1911 C1913 1.387 . S
H1912 C1919 0.950 . S
C1913 C1911 1.387 . S
C1913 C1915 1.390 . S
C1913 H1917 0.950 . S
H1914 C1910 0.950 . S
C1915 C1913 1.390 . S
C1915 C1916 1.387 . S
C1915 H1918 0.950 . S
C1916 C1915 1.387 . S
C1916 C1919 1.387 . S
H1917 C1913 0.950 . S
H1918 C1915 0.950 . S
C1919 C1910 1.390 . S
C1919 H1912 0.950 . S
C1919 C1916 1.387 . S
C1920 C1921 1.387 . S
C1920 H1924 0.950 1_545 S
C1920 C1929 1.390 . S
C1921 C1920 1.387 . S
C1921 C1923 1.387 . S
H1922 C1929 0.950 . S
C1923 C1921 1.387 . S
C1923 C1925 1.390 . S
C1923 H1927 0.950 . S
H1924 C1920 0.950 1_565 S
C1925 C1923 1.390 . S
C1925 C1926 1.387 . S
C1925 H1928 0.950 . S
C1926 C1925 1.387 . S
C1926 C1929 1.387 . S
H1927 C1923 0.950 . S
H1928 C1925 0.950 . S
C1929 C1920 1.390 . S
C1929 H1922 0.950 . S
C1929 C1926 1.387 . S
C1930 C1931 1.387 . S
C1930 H1934 0.950 . S
C1930 C1939 1.390 . S
C1931 C1930 1.387 . S
C1931 C1933 1.387 . S
H1932 C1939 0.950 . S
C1933 C1931 1.387 . S
C1933 C1935 1.390 1_455 S
C1933 H1937 0.950 . S
H1934 C1930 0.950 . S
C1935 C1933 1.390 1_655 S
C1935 C1936 1.387 1_655 S
C1935 H1938 0.950 . S
C1936 C1935 1.387 1_455 S
C1936 C1939 1.387 . S
H1937 C1933 0.950 . S
H1938 C1935 0.950 . S
C1939 C1930 1.390 . S
C1939 H1932 0.950 . S
C1939 C1936 1.387 . S
C1940 C1941 1.387 . S
C1940 H1944 0.950 . S
C1940 C1949 1.390 . S
C1941 C1940 1.387 . S
C1941 C1943 1.387 . S
H1942 C1949 0.950 . S
C1943 C1941 1.387 . S
C1943 C1945 1.390 . S
C1943 H1947 0.950 . S
H1944 C1940 0.950 . S
C1945 C1943 1.390 . S
C1945 C1946 1.387 . S
C1945 H1948 0.950 . S
C1946 C1945 1.387 . S
C1946 C1949 1.387 . S
H1947 C1943 0.950 . S
H1948 C1945 0.950 . S
C1949 C1940 1.390 . S
C1949 H1942 0.950 . S
C1949 C1946 1.387 . S
C1950 C1951 1.387 . S
C1950 H1954 0.950 . S
C1950 C1959 1.390 . S
C1951 C1950 1.387 . S
C1951 C1953 1.387 . S
H1952 C1959 0.950 . S
C1953 C1951 1.387 . S
C1953 C1955 1.390 . S
C1953 H1957 0.950 . S
H1954 C1950 0.950 . S
C1955 C1953 1.390 . S
C1955 C1956 1.387 . S
C1955 H1958 0.950 . S
C1956 C1955 1.387 . S
C1956 C1959 1.387 . S
H1957 C1953 0.950 . S
H1958 C1955 0.950 . S
C1959 C1950 1.390 . S
C1959 H1952 0.950 . S
C1959 C1956 1.387 . S
C1960 C1961 1.387 . S
C1960 H1964 0.950 . S
C1960 C1969 1.390 . S
C1961 C1960 1.387 . S
C1961 C1963 1.387 . S
H1962 C1969 0.950 . S
C1963 C1961 1.387 . S
C1963 C1965 1.390 . S
C1963 H1967 0.950 . S
H1964 C1960 0.950 . S
C1965 C1963 1.390 . S
C1965 C1966 1.387 . S
C1965 H1968 0.950 . S
C1966 C1965 1.387 . S
C1966 C1969 1.387 . S
H1967 C1963 0.950 . S
H1968 C1965 0.950 . S
C1969 C1960 1.390 . S
C1969 H1962 0.950 . S
C1969 C1966 1.387 . S
C1970 C1971 1.387 . S
C1970 H1974 0.950 . S
C1970 C1979 1.390 . S
C1971 C1970 1.387 . S
C1971 C1973 1.387 . S
H1972 C1979 0.950 . S
C1973 C1971 1.387 . S
C1973 C1975 1.390 . S
C1973 H1977 0.950 . S
H1974 C1970 0.950 . S
C1975 C1973 1.390 . S
C1975 C1976 1.387 . S
C1975 H1978 0.950 . S
C1976 C1975 1.387 . S
C1976 C1979 1.387 . S
H1977 C1973 0.950 . S
H1978 C1975 0.950 . S
C1979 C1970 1.390 . S
C1979 H1972 0.950 . S
C1979 C1976 1.387 . S
C1980 C1981 1.387 . S
C1980 H1984 0.950 . S
C1980 C1989 1.390 . S
C1981 C1980 1.387 . S
C1981 C1983 1.387 . S
H1982 C1989 0.950 . S
C1983 C1981 1.387 . S
C1983 C1985 1.390 . S
C1983 H1987 0.950 . S
H1984 C1980 0.950 . S
C1985 C1983 1.390 . S
C1985 C1986 1.387 . S
C1985 H1988 0.950 . S
C1986 C1985 1.387 . S
C1986 C1989 1.387 . S
H1987 C1983 0.950 . S
H1988 C1985 0.950 . S
C1989 C1980 1.390 . S
C1989 H1982 0.950 . S
C1989 C1986 1.387 . S
C1990 C1991 1.387 . S
C1990 H1994 0.950 . S
C1990 C1999 1.390 . S
C1991 C1990 1.387 . S
C1991 C1993 1.387 . S
H1992 C1999 0.950 . S
C1993 C1991 1.387 . S
C1993 C1995 1.390 . S
C1993 H1997 0.950 . S
H1994 C1990 0.950 . S
C1995 C1993 1.390 . S
C1995 C1996 1.387 . S
C1995 H1998 0.950 . S
C1996 C1995 1.387 . S
C1996 C1999 1.387 . S
H1997 C1993 0.950 . S
H1998 C1995 0.950 . S
C1999 C1990 1.390 . S
C1999 H1992 0.950 . S
C1999 C1996 1.387 . S
C2000 C2001 1.387 . S
C2000 H2004 0.950 . S
C2000 C2009 1.390 . S
C2001 C2000 1.387 . S
C2001 C2003 1.387 . S
H2002 C2009 0.950 . S
C2003 C2001 1.387 . S
C2003 C2005 1.390 . S
C2003 H2007 0.950 . S
H2004 C2000 0.950 . S
C2005 C2003 1.390 . S
C2005 C2006 1.387 . S
C2005 H2008 0.950 . S
C2006 C2005 1.387 . S
C2006 C2009 1.387 . S
H2007 C2003 0.950 . S
H2008 C2005 0.950 . S
C2009 C2000 1.390 . S
C2009 H2002 0.950 . S
C2009 C2006 1.387 . S
C2010 C2011 1.387 . S
C2010 H2014 0.950 . S
C2010 C2019 1.390 1_455 S
C2011 C2010 1.387 . S
C2011 C2013 1.387 . S
H2012 C2019 0.950 . S
C2013 C2011 1.387 . S
C2013 C2015 1.390 . S
C2013 H2017 0.950 . S
H2014 C2010 0.950 . S
C2015 C2013 1.390 . S
C2015 C2016 1.387 . S
C2015 H2018 0.950 . S
C2016 C2015 1.387 . S
C2016 C2019 1.387 1_455 S
H2017 C2013 0.950 . S
H2018 C2015 0.950 . S
C2019 C2010 1.390 1_655 S
C2019 H2012 0.950 . S
C2019 C2016 1.387 1_655 S
C2020 C2021 1.387 . S
C2020 H2024 0.950 . S
C2020 C2029 1.390 . S
C2021 C2020 1.387 . S
C2021 C2023 1.387 . S
H2022 C2029 0.950 . S
C2023 C2021 1.387 . S
C2023 C2025 1.390 . S
C2023 H2027 0.950 . S
H2024 C2020 0.950 . S
C2025 C2023 1.390 . S
C2025 C2026 1.387 . S
C2025 H2028 0.950 . S
C2026 C2025 1.387 . S
C2026 C2029 1.387 . S
H2027 C2023 0.950 . S
H2028 C2025 0.950 . S
C2029 C2020 1.390 . S
C2029 H2022 0.950 . S
C2029 C2026 1.387 . S
C2030 C2031 1.387 . S
C2030 H2034 0.950 1_545 S
C2030 C2039 1.390 . S
C2031 C2030 1.387 . S
C2031 C2033 1.387 . S
H2032 C2039 0.950 . S
C2033 C2031 1.387 . S
C2033 C2035 1.390 . S
C2033 H2037 0.950 . S
H2034 C2030 0.950 1_565 S
C2035 C2033 1.390 . S
C2035 C2036 1.387 . S
C2035 H2038 0.950 . S
C2036 C2035 1.387 . S
C2036 C2039 1.387 . S
H2037 C2033 0.950 . S
H2038 C2035 0.950 . S
C2039 C2030 1.390 . S
C2039 H2032 0.950 . S
C2039 C2036 1.387 . S
C2040 C2041 1.387 . S
C2040 H2044 0.950 . S
C2040 C2049 1.390 . S
C2041 C2040 1.387 . S
C2041 C2043 1.387 . S
H2042 C2049 0.950 . S
C2043 C2041 1.387 . S
C2043 C2045 1.390 . S
C2043 H2047 0.950 . S
H2044 C2040 0.950 . S
C2045 C2043 1.390 . S
C2045 C2046 1.387 . S
C2045 H2048 0.950 . S
C2046 C2045 1.387 . S
C2046 C2049 1.387 . S
H2047 C2043 0.950 . S
H2048 C2045 0.950 . S
C2049 C2040 1.390 . S
C2049 H2042 0.950 . S
C2049 C2046 1.387 . S
C2050 C2051 1.387 . S
C2050 H2054 0.950 . S
C2050 C2059 1.390 . S
C2051 C2050 1.387 . S
C2051 C2053 1.387 . S
H2052 C2059 0.950 . S
C2053 C2051 1.387 . S
C2053 C2055 1.390 . S
C2053 H2057 0.950 . S
H2054 C2050 0.950 . S
C2055 C2053 1.390 . S
C2055 C2056 1.387 . S
C2055 H2058 0.950 . S
C2056 C2055 1.387 . S
C2056 C2059 1.387 . S
H2057 C2053 0.950 . S
H2058 C2055 0.950 . S
C2059 C2050 1.390 . S
C2059 H2052 0.950 . S
C2059 C2056 1.387 . S
C2060 C2061 1.387 . S
C2060 H2064 0.950 . S
C2060 C2069 1.390 . S
C2061 C2060 1.387 . S
C2061 C2063 1.387 . S
H2062 C2069 0.950 . S
C2063 C2061 1.387 . S
C2063 C2065 1.390 . S
C2063 H2067 0.950 . S
H2064 C2060 0.950 . S
C2065 C2063 1.390 . S
C2065 C2066 1.387 . S
C2065 H2068 0.950 . S
C2066 C2065 1.387 . S
C2066 C2069 1.387 . S
H2067 C2063 0.950 . S
H2068 C2065 0.950 . S
C2069 C2060 1.390 . S
C2069 H2062 0.950 . S
C2069 C2066 1.387 . S
C2070 C2071 1.387 . S
C2070 H2074 0.950 . S
C2070 C2079 1.390 . S
C2071 C2070 1.387 . S
C2071 C2073 1.387 . S
H2072 C2079 0.950 . S
C2073 C2071 1.387 . S
C2073 C2075 1.390 . S
C2073 H2077 0.950 . S
H2074 C2070 0.950 . S
C2075 C2073 1.390 . S
C2075 C2076 1.387 . S
C2075 H2078 0.950 1_455 S
C2076 C2075 1.387 . S
C2076 C2079 1.387 . S
H2077 C2073 0.950 . S
H2078 C2075 0.950 1_655 S
C2079 C2070 1.390 . S
C2079 H2072 0.950 . S
C2079 C2076 1.387 . S
C2080 C2081 1.387 . S
C2080 H2084 0.950 . S
C2080 C2089 1.390 . S
C2081 C2080 1.387 . S
C2081 C2083 1.387 . S
H2082 C2089 0.950 . S
C2083 C2081 1.387 . S
C2083 C2085 1.390 . S
C2083 H2087 0.950 . S
H2084 C2080 0.950 . S
C2085 C2083 1.390 . S
C2085 C2086 1.387 . S
C2085 H2088 0.950 . S
C2086 C2085 1.387 . S
C2086 C2089 1.387 . S
H2087 C2083 0.950 . S
H2088 C2085 0.950 . S
C2089 C2080 1.390 . S
C2089 H2082 0.950 . S
C2089 C2086 1.387 . S
C2090 C2091 1.387 . S
C2090 H2094 0.950 . S
C2090 C2099 1.390 . S
C2091 C2090 1.387 . S
C2091 C2093 1.387 . S
H2092 C2099 0.950 . S
C2093 C2091 1.387 . S
C2093 C2095 1.390 . S
C2093 H2097 0.950 . S
H2094 C2090 0.950 . S
C2095 C2093 1.390 . S
C2095 C2096 1.387 . S
C2095 H2098 0.950 . S
C2096 C2095 1.387 . S
C2096 C2099 1.387 . S
H2097 C2093 0.950 . S
H2098 C2095 0.950 . S
C2099 C2090 1.390 . S
C2099 H2092 0.950 . S
C2099 C2096 1.387 . S
C2100 C2101 1.387 1_565 S
C2100 H2104 0.950 . S
C2100 C2109 1.390 1_565 S
C2101 C2100 1.387 1_545 S
C2101 C2103 1.387 . S
H2102 C2109 0.950 . S
C2103 C2101 1.387 . S
C2103 C2105 1.390 . S
C2103 H2107 0.950 . S
H2104 C2100 0.950 . S
C2105 C2103 1.390 . S
C2105 C2106 1.387 . S
C2105 H2108 0.950 . S
C2106 C2105 1.387 . S
C2106 C2109 1.387 . S
H2107 C2103 0.950 . S
H2108 C2105 0.950 . S
C2109 C2100 1.390 1_545 S
C2109 H2102 0.950 . S
C2109 C2106 1.387 . S
C2110 C2111 1.387 . S
C2110 H2114 0.950 . S
C2110 C2119 1.390 . S
C2111 C2110 1.387 . S
C2111 C2113 1.387 . S
H2112 C2119 0.950 . S
C2113 C2111 1.387 . S
C2113 C2115 1.390 . S
C2113 H2117 0.950 . S
H2114 C2110 0.950 . S
C2115 C2113 1.390 . S
C2115 C2116 1.387 . S
C2115 H2118 0.950 1_455 S
C2116 C2115 1.387 . S
C2116 C2119 1.387 . S
H2117 C2113 0.950 . S
H2118 C2115 0.950 1_655 S
C2119 C2110 1.390 . S
C2119 H2112 0.950 . S
C2119 C2116 1.387 . S
C2120 C2121 1.387 . S
C2120 H2124 0.950 . S
C2120 C2129 1.390 . S
C2121 C2120 1.387 . S
C2121 C2123 1.387 . S
H2122 C2129 0.950 . S
C2123 C2121 1.387 . S
C2123 C2125 1.390 . S
C2123 H2127 0.950 . S
H2124 C2120 0.950 . S
C2125 C2123 1.390 . S
C2125 C2126 1.387 . S
C2125 H2128 0.950 . S
C2126 C2125 1.387 . S
C2126 C2129 1.387 . S
H2127 C2123 0.950 . S
H2128 C2125 0.950 . S
C2129 C2120 1.390 . S
C2129 H2122 0.950 . S
C2129 C2126 1.387 . S
C2130 C2131 1.387 . S
C2130 H2134 0.950 . S
C2130 C2139 1.390 . S
C2131 C2130 1.387 . S
C2131 C2133 1.387 . S
H2132 C2139 0.950 . S
C2133 C2131 1.387 . S
C2133 C2135 1.390 . S
C2133 H2137 0.950 . S
H2134 C2130 0.950 . S
C2135 C2133 1.390 . S
C2135 C2136 1.387 . S
C2135 H2138 0.950 . S
C2136 C2135 1.387 . S
C2136 C2139 1.387 . S
H2137 C2133 0.950 . S
H2138 C2135 0.950 . S
C2139 C2130 1.390 . S
C2139 H2132 0.950 . S
C2139 C2136 1.387 . S
C2140 C2141 1.387 . S
C2140 H2144 0.950 . S
C2140 C2149 1.390 . S
C2141 C2140 1.387 . S
C2141 C2143 1.387 . S
H2142 C2149 0.950 . S
C2143 C2141 1.387 . S
C2143 C2145 1.390 . S
C2143 H2147 0.950 . S
H2144 C2140 0.950 . S
C2145 C2143 1.390 . S
C2145 C2146 1.387 . S
C2145 H2148 0.950 . S
C2146 C2145 1.387 . S
C2146 C2149 1.387 . S
H2147 C2143 0.950 . S
H2148 C2145 0.950 . S
C2149 C2140 1.390 . S
C2149 H2142 0.950 . S
C2149 C2146 1.387 . S
C2150 C2151 1.387 . S
C2150 H2154 0.950 . S
C2150 C2159 1.390 . S
C2151 C2150 1.387 . S
C2151 C2153 1.387 . S
H2152 C2159 0.950 . S
C2153 C2151 1.387 . S
C2153 C2155 1.390 . S
C2153 H2157 0.950 . S
H2154 C2150 0.950 . S
C2155 C2153 1.390 . S
C2155 C2156 1.387 . S
C2155 H2158 0.950 . S
C2156 C2155 1.387 . S
C2156 C2159 1.387 . S
H2157 C2153 0.950 . S
H2158 C2155 0.950 . S
C2159 C2150 1.390 . S
C2159 H2152 0.950 . S
C2159 C2156 1.387 . S
C2160 C2161 1.387 . S
C2160 H2164 0.950 . S
C2160 C2169 1.390 . S
C2161 C2160 1.387 . S
C2161 C2163 1.387 . S
H2162 C2169 0.950 . S
C2163 C2161 1.387 . S
C2163 C2165 1.390 . S
C2163 H2167 0.950 . S
H2164 C2160 0.950 . S
C2165 C2163 1.390 . S
C2165 C2166 1.387 . S
C2165 H2168 0.950 . S
C2166 C2165 1.387 . S
C2166 C2169 1.387 . S
H2167 C2163 0.950 . S
H2168 C2165 0.950 . S
C2169 C2160 1.390 . S
C2169 H2162 0.950 . S
C2169 C2166 1.387 . S
C2170 C2171 1.387 . S
C2170 H2174 0.950 . S
C2170 C2179 1.390 . S
C2171 C2170 1.387 . S
C2171 C2173 1.387 . S
H2172 C2179 0.950 . S
C2173 C2171 1.387 . S
C2173 C2175 1.390 . S
C2173 H2177 0.950 . S
H2174 C2170 0.950 . S
C2175 C2173 1.390 . S
C2175 C2176 1.387 . S
C2175 H2178 0.950 . S
C2176 C2175 1.387 . S
C2176 C2179 1.387 . S
H2177 C2173 0.950 . S
H2178 C2175 0.950 . S
C2179 C2170 1.390 . S
C2179 H2172 0.950 . S
C2179 C2176 1.387 . S
C2180 C2181 1.387 . S
C2180 H2184 0.950 . S
C2180 C2189 1.390 . S
C2181 C2180 1.387 . S
C2181 C2183 1.387 . S
H2182 C2189 0.950 . S
C2183 C2181 1.387 . S
C2183 C2185 1.390 . S
C2183 H2187 0.950 . S
H2184 C2180 0.950 . S
C2185 C2183 1.390 . S
C2185 C2186 1.387 . S
C2185 H2188 0.950 . S
C2186 C2185 1.387 . S
C2186 C2189 1.387 . S
H2187 C2183 0.950 . S
H2188 C2185 0.950 . S
C2189 C2180 1.390 . S
C2189 H2182 0.950 . S
C2189 C2186 1.387 . S
C2190 C2191 1.387 . S
C2190 H2194 0.950 . S
C2190 C2199 1.390 . S
C2191 C2190 1.387 . S
C2191 C2193 1.387 . S
H2192 C2199 0.950 . S
C2193 C2191 1.387 . S
C2193 C2195 1.390 . S
C2193 H2197 0.950 . S
H2194 C2190 0.950 . S
C2195 C2193 1.390 . S
C2195 C2196 1.387 . S
C2195 H2198 0.950 . S
C2196 C2195 1.387 . S
C2196 C2199 1.387 . S
H2197 C2193 0.950 . S
H2198 C2195 0.950 . S
C2199 C2190 1.390 . S
C2199 H2192 0.950 . S
C2199 C2196 1.387 . S
C2200 C2201 1.387 . S
C2200 H2204 0.950 . S
C2200 C2209 1.390 . S
C2201 C2200 1.387 . S
C2201 C2203 1.387 . S
H2202 C2209 0.950 . S
C2203 C2201 1.387 . S
C2203 C2205 1.390 . S
C2203 H2207 0.950 . S
H2204 C2200 0.950 . S
C2205 C2203 1.390 . S
C2205 C2206 1.387 . S
C2205 H2208 0.950 . S
C2206 C2205 1.387 . S
C2206 C2209 1.387 . S
H2207 C2203 0.950 . S
H2208 C2205 0.950 . S
C2209 C2200 1.390 . S
C2209 H2202 0.950 . S
C2209 C2206 1.387 . S
C2210 C2211 1.387 . S
C2210 H2214 0.950 . S
C2210 C2219 1.390 . S
C2211 C2210 1.387 . S
C2211 C2213 1.387 . S
H2212 C2219 0.950 . S
C2213 C2211 1.387 . S
C2213 C2215 1.390 . S
C2213 H2217 0.950 . S
H2214 C2210 0.950 . S
C2215 C2213 1.390 . S
C2215 C2216 1.387 . S
C2215 H2218 0.950 . S
C2216 C2215 1.387 . S
C2216 C2219 1.387 . S
H2217 C2213 0.950 . S
H2218 C2215 0.950 . S
C2219 C2210 1.390 . S
C2219 H2212 0.950 . S
C2219 C2216 1.387 . S
C2220 C2221 1.387 . S
C2220 H2224 0.950 . S
C2220 C2229 1.390 . S
C2221 C2220 1.387 . S
C2221 C2223 1.387 . S
H2222 C2229 0.950 . S
C2223 C2221 1.387 . S
C2223 C2225 1.390 . S
C2223 H2227 0.950 . S
H2224 C2220 0.950 . S
C2225 C2223 1.390 . S
C2225 C2226 1.387 . S
C2225 H2228 0.950 . S
C2226 C2225 1.387 . S
C2226 C2229 1.387 . S
H2227 C2223 0.950 . S
H2228 C2225 0.950 . S
C2229 C2220 1.390 . S
C2229 H2222 0.950 . S
C2229 C2226 1.387 . S
C2230 C2231 1.387 . S
C2230 H2234 0.950 . S
C2230 C2239 1.390 . S
C2231 C2230 1.387 . S
C2231 C2233 1.387 . S
H2232 C2239 0.950 . S
C2233 C2231 1.387 . S
C2233 C2235 1.390 . S
C2233 H2237 0.950 . S
H2234 C2230 0.950 . S
C2235 C2233 1.390 . S
C2235 C2236 1.387 . S
C2235 H2238 0.950 . S
C2236 C2235 1.387 . S
C2236 C2239 1.387 . S
H2237 C2233 0.950 . S
H2238 C2235 0.950 . S
C2239 C2230 1.390 . S
C2239 H2232 0.950 . S
C2239 C2236 1.387 . S
C2240 C2241 1.387 . S
C2240 H2244 0.950 . S
C2240 C2249 1.390 . S
C2241 C2240 1.387 . S
C2241 C2243 1.387 . S
H2242 C2249 0.950 . S
C2243 C2241 1.387 . S
C2243 C2245 1.390 . S
C2243 H2247 0.950 . S
H2244 C2240 0.950 . S
C2245 C2243 1.390 . S
C2245 C2246 1.387 . S
C2245 H2248 0.950 . S
C2246 C2245 1.387 . S
C2246 C2249 1.387 . S
H2247 C2243 0.950 . S
H2248 C2245 0.950 . S
C2249 C2240 1.390 . S
C2249 H2242 0.950 . S
C2249 C2246 1.387 . S
C2250 C2251 1.387 . S
C2250 H2254 0.950 . S
C2250 C2259 1.390 . S
C2251 C2250 1.387 . S
C2251 C2253 1.387 . S
H2252 C2259 0.950 . S
C2253 C2251 1.387 . S
C2253 C2255 1.390 . S
C2253 H2257 0.950 . S
H2254 C2250 0.950 . S
C2255 C2253 1.390 . S
C2255 C2256 1.387 . S
C2255 H2258 0.950 . S
C2256 C2255 1.387 . S
C2256 C2259 1.387 . S
H2257 C2253 0.950 . S
H2258 C2255 0.950 . S
C2259 C2250 1.390 . S
C2259 H2252 0.950 . S
C2259 C2256 1.387 . S
C2260 C2261 1.387 . S
C2260 H2264 0.950 . S
C2260 C2269 1.390 . S
C2261 C2260 1.387 . S
C2261 C2263 1.387 . S
H2262 C2269 0.950 . S
C2263 C2261 1.387 . S
C2263 C2265 1.390 . S
C2263 H2267 0.950 . S
H2264 C2260 0.950 . S
C2265 C2263 1.390 . S
C2265 C2266 1.387 . S
C2265 H2268 0.950 . S
C2266 C2265 1.387 . S
C2266 C2269 1.387 . S
H2267 C2263 0.950 . S
H2268 C2265 0.950 . S
C2269 C2260 1.390 . S
C2269 H2262 0.950 . S
C2269 C2266 1.387 . S
C2270 C2271 1.387 . S
C2270 H2274 0.950 . S
C2270 C2279 1.390 . S
C2271 C2270 1.387 . S
C2271 C2273 1.387 . S
H2272 C2279 0.950 . S
C2273 C2271 1.387 . S
C2273 C2275 1.390 . S
C2273 H2277 0.950 . S
H2274 C2270 0.950 . S
C2275 C2273 1.390 . S
C2275 C2276 1.387 . S
C2275 H2278 0.950 . S
C2276 C2275 1.387 . S
C2276 C2279 1.387 . S
H2277 C2273 0.950 . S
H2278 C2275 0.950 . S
C2279 C2270 1.390 . S
C2279 H2272 0.950 . S
C2279 C2276 1.387 . S
C2280 C2281 1.387 . S
C2280 H2284 0.950 . S
C2280 C2289 1.390 . S
C2281 C2280 1.387 . S
C2281 C2283 1.387 . S
H2282 C2289 0.950 . S
C2283 C2281 1.387 . S
C2283 C2285 1.390 . S
C2283 H2287 0.950 . S
H2284 C2280 0.950 . S
C2285 C2283 1.390 . S
C2285 C2286 1.387 . S
C2285 H2288 0.950 . S
C2286 C2285 1.387 . S
C2286 C2289 1.387 . S
H2287 C2283 0.950 . S
H2288 C2285 0.950 . S
C2289 C2280 1.390 . S
C2289 H2282 0.950 . S
C2289 C2286 1.387 . S
C2290 C2291 1.387 . S
C2290 H2294 0.950 . S
C2290 C2299 1.390 . S
C2291 C2290 1.387 . S
C2291 C2293 1.387 . S
H2292 C2299 0.950 . S
C2293 C2291 1.387 . S
C2293 C2295 1.390 . S
C2293 H2297 0.950 . S
H2294 C2290 0.950 . S
C2295 C2293 1.390 . S
C2295 C2296 1.387 . S
C2295 H2298 0.950 . S
C2296 C2295 1.387 . S
C2296 C2299 1.387 . S
H2297 C2293 0.950 . S
H2298 C2295 0.950 . S
C2299 C2290 1.390 . S
C2299 H2292 0.950 . S
C2299 C2296 1.387 . S
C2300 C2301 1.387 . S
C2300 H2304 0.950 . S
C2300 C2309 1.390 . S
C2301 C2300 1.387 . S
C2301 C2303 1.387 . S
H2302 C2309 0.950 . S
C2303 C2301 1.387 . S
C2303 C2305 1.390 . S
C2303 H2307 0.950 . S
H2304 C2300 0.950 . S
C2305 C2303 1.390 . S
C2305 C2306 1.387 . S
C2305 H2308 0.950 . S
C2306 C2305 1.387 . S
C2306 C2309 1.387 . S
H2307 C2303 0.950 . S
H2308 C2305 0.950 . S
C2309 C2300 1.390 . S
C2309 H2302 0.950 . S
C2309 C2306 1.387 . S
C2310 C2311 1.387 . S
C2310 H2314 0.950 . S
C2310 C2319 1.390 . S
C2311 C2310 1.387 . S
C2311 C2313 1.387 . S
H2312 C2319 0.954 . S
C2313 C2311 1.387 . S
C2313 C2315 1.390 . S
C2313 H2317 0.950 . S
H2314 C2310 0.950 . S
C2315 C2313 1.390 . S
C2315 C2316 1.387 . S
C2315 H2318 0.950 . S
C2316 C2315 1.387 . S
C2316 C2319 1.387 . S
H2317 C2313 0.950 . S
H2318 C2315 0.950 . S
C2319 C2310 1.390 . S
C2319 H2312 0.954 . S
C2319 C2316 1.387 . S
C2320 C2321 1.387 . S
C2320 H2324 0.950 . S
C2320 C2329 1.390 . S
C2321 C2320 1.387 . S
C2321 C2323 1.387 . S
H2322 C2329 0.950 . S
C2323 C2321 1.387 . S
C2323 C2325 1.390 . S
C2323 H2327 0.950 . S
H2324 C2320 0.950 . S
C2325 C2323 1.390 . S
C2325 C2326 1.387 . S
C2325 H2328 0.950 . S
C2326 C2325 1.387 . S
C2326 C2329 1.387 . S
H2327 C2323 0.950 . S
H2328 C2325 0.950 . S
C2329 C2320 1.390 . S
C2329 H2322 0.950 . S
C2329 C2326 1.387 . S
C2330 C2331 1.387 . S
C2330 H2334 0.950 . S
C2330 C2339 1.390 . S
C2331 C2330 1.387 . S
C2331 C2333 1.387 . S
H2332 C2339 0.950 . S
C2333 C2331 1.387 . S
C2333 C2335 1.390 1_545 S
C2333 H2337 0.950 . S
H2334 C2330 0.950 . S
C2335 C2333 1.390 1_565 S
C2335 C2336 1.387 . S
C2335 H2338 0.950 . S
C2336 C2335 1.387 . S
C2336 C2339 1.387 1_565 S
H2337 C2333 0.950 . S
H2338 C2335 0.950 . S
C2339 C2330 1.390 . S
C2339 H2332 0.950 . S
C2339 C2336 1.387 1_545 S
C2340 C2341 1.399 . S
C2340 H2344 0.950 . S
C2340 C2349 1.379 1_565 S
C2341 C2340 1.399 . S
C2341 C2343 1.387 1_565 S
H2342 C2349 0.950 . S
C2343 C2341 1.387 1_545 S
C2343 C2345 1.390 . S
C2343 H2347 0.950 1_545 S
H2344 C2340 0.950 . S
C2345 C2343 1.390 . S
C2345 C2346 1.387 . S
C2345 H2348 0.950 . S
C2346 C2345 1.387 . S
C2346 C2349 1.387 . S
H2347 C2343 0.950 1_565 S
H2348 C2345 0.950 . S
C2349 C2340 1.379 1_545 S
C2349 H2342 0.950 . S
C2349 C2346 1.387 . S
C2350 C2351 1.387 . S
C2350 H2354 0.950 . S
C2350 C2359 1.390 . S
C2351 C2350 1.387 . S
C2351 C2353 1.387 . S
H2352 C2359 0.950 . S
C2353 C2351 1.387 . S
C2353 C2355 1.390 . S
C2353 H2357 0.950 . S
H2354 C2350 0.950 . S
C2355 C2353 1.390 . S
C2355 C2356 1.387 . S
C2355 H2358 0.950 . S
C2356 C2355 1.387 . S
C2356 C2359 1.387 . S
H2357 C2353 0.950 . S
H2358 C2355 0.950 . S
C2359 C2350 1.390 . S
C2359 H2352 0.950 . S
C2359 C2356 1.387 . S
C2360 C2361 1.387 . S
C2360 H2364 0.950 . S
C2360 C2369 1.390 . S
C2361 C2360 1.387 . S
C2361 C2363 1.387 . S
H2362 C2369 0.950 . S
C2363 C2361 1.387 . S
C2363 C2365 1.390 . S
C2363 H2367 0.950 . S
H2364 C2360 0.950 . S
C2365 C2363 1.390 . S
C2365 C2366 1.387 . S
C2365 H2368 0.950 . S
C2366 C2365 1.387 . S
C2366 C2369 1.387 . S
H2367 C2363 0.950 . S
H2368 C2365 0.950 . S
C2369 C2360 1.390 . S
C2369 H2362 0.950 . S
C2369 C2366 1.387 . S
C2370 C2371 1.387 . S
C2370 H2374 0.950 . S
C2370 C2379 1.390 . S
C2371 C2370 1.387 . S
C2371 C2373 1.387 . S
H2372 C2379 0.950 . S
C2373 C2371 1.387 . S
C2373 C2375 1.390 . S
C2373 H2377 0.950 . S
H2374 C2370 0.950 . S
C2375 C2373 1.390 . S
C2375 C2376 1.387 . S
C2375 H2378 0.950 . S
C2376 C2375 1.387 . S
C2376 C2379 1.387 . S
H2377 C2373 0.950 . S
H2378 C2375 0.950 . S
C2379 C2370 1.390 . S
C2379 H2372 0.950 . S
C2379 C2376 1.387 . S
C2380 C2381 1.387 . S
C2380 H2384 0.950 . S
C2380 C2389 1.390 . S
C2381 C2380 1.387 . S
C2381 C2383 1.387 . S
H2382 C2389 0.950 . S
C2383 C2381 1.387 . S
C2383 C2385 1.390 . S
C2383 H2387 0.950 . S
H2384 C2380 0.950 . S
C2385 C2383 1.390 . S
C2385 C2386 1.387 . S
C2385 H2388 0.950 . S
C2386 C2385 1.387 . S
C2386 C2389 1.387 . S
H2387 C2383 0.950 . S
H2388 C2385 0.950 . S
C2389 C2380 1.390 . S
C2389 H2382 0.950 . S
C2389 C2386 1.387 . S
C2390 C2391 1.387 . S
C2390 H2394 0.950 . S
C2390 C2399 1.390 . S
C2391 C2390 1.387 . S
C2391 C2393 1.387 . S
H2392 C2399 0.950 . S
C2393 C2391 1.387 . S
C2393 C2395 1.390 . S
C2393 H2397 0.950 . S
H2394 C2390 0.950 . S
C2395 C2393 1.390 . S
C2395 C2396 1.387 . S
C2395 H2398 0.950 . S
C2396 C2395 1.387 . S
C2396 C2399 1.387 . S
H2397 C2393 0.950 . S
H2398 C2395 0.950 . S
C2399 C2390 1.390 . S
C2399 H2392 0.950 . S
C2399 C2396 1.387 . S
C2400 C2401 1.387 . S
C2400 H2404 0.950 1_545 S
C2400 C2409 1.390 . S
C2401 C2400 1.387 . S
C2401 C2403 1.387 . S
H2402 C2409 0.950 . S
C2403 C2401 1.387 . S
C2403 C2405 1.390 . S
C2403 H2407 0.950 . S
H2404 C2400 0.950 1_565 S
C2405 C2403 1.390 . S
C2405 C2406 1.387 . S
C2405 H2408 0.950 . S
C2406 C2405 1.387 . S
C2406 C2409 1.387 . S
H2407 C2403 0.950 . S
H2408 C2405 0.950 . S
C2409 C2400 1.390 . S
C2409 H2402 0.950 . S
C2409 C2406 1.387 . S
C2410 C2411 1.387 1_455 S
C2410 H2414 0.950 . S
C2410 C2419 1.390 . S
C2411 C2410 1.387 1_655 S
C2411 C2413 1.387 . S
H2412 C2419 0.950 . S
C2413 C2411 1.387 . S
C2413 C2415 1.390 1_655 S
C2413 H2417 0.950 . S
H2414 C2410 0.950 . S
C2415 C2413 1.390 1_455 S
C2415 C2416 1.387 . S
C2415 H2418 0.950 . S
C2416 C2415 1.387 . S
C2416 C2419 1.387 . S
H2417 C2413 0.950 . S
H2418 C2415 0.950 . S
C2419 C2410 1.390 . S
C2419 H2412 0.950 . S
C2419 C2416 1.387 . S
C2420 C2421 1.387 . S
C2420 H2424 0.950 . S
C2420 C2429 1.390 . S
C2421 C2420 1.387 . S
C2421 C2423 1.387 . S
H2422 C2429 0.950 . S
C2423 C2421 1.387 . S
C2423 C2425 1.390 . S
C2423 H2427 0.950 . S
H2424 C2420 0.950 . S
C2425 C2423 1.390 . S
C2425 C2426 1.387 . S
C2425 H2428 0.950 . S
C2426 C2425 1.387 . S
C2426 C2429 1.387 . S
H2427 C2423 0.950 . S
H2428 C2425 0.950 . S
C2429 C2420 1.390 . S
C2429 H2422 0.950 . S
C2429 C2426 1.387 . S
C2430 C2431 1.387 . S
C2430 H2434 0.950 . S
C2430 C2439 1.390 . S
C2431 C2430 1.387 . S
C2431 C2433 1.387 . S
H2432 C2439 0.950 . S
C2433 C2431 1.387 . S
C2433 C2435 1.390 . S
C2433 H2437 0.950 . S
H2434 C2430 0.950 . S
C2435 C2433 1.390 . S
C2435 C2436 1.387 . S
C2435 H2438 0.950 . S
C2436 C2435 1.387 . S
C2436 C2439 1.387 . S
H2437 C2433 0.950 . S
H2438 C2435 0.950 . S
C2439 C2430 1.390 . S
C2439 H2432 0.950 . S
C2439 C2436 1.387 . S
C2440 C2441 1.387 . S
C2440 H2444 0.950 . S
C2440 C2449 1.390 . S
C2441 C2440 1.387 . S
C2441 C2443 1.387 . S
H2442 C2449 0.950 . S
C2443 C2441 1.387 . S
C2443 C2445 1.390 . S
C2443 H2447 0.950 . S
H2444 C2440 0.950 . S
C2445 C2443 1.390 . S
C2445 C2446 1.387 . S
C2445 H2448 0.950 . S
C2446 C2445 1.387 . S
C2446 C2449 1.387 . S
H2447 C2443 0.950 . S
H2448 C2445 0.950 . S
C2449 C2440 1.390 . S
C2449 H2442 0.950 . S
C2449 C2446 1.387 . S
C2450 C2451 1.387 . S
C2450 H2454 0.950 . S
C2450 C2459 1.390 . S
C2451 C2450 1.387 . S
C2451 C2453 1.387 . S
H2452 C2459 0.950 . S
C2453 C2451 1.387 . S
C2453 C2455 1.390 . S
C2453 H2457 0.950 . S
H2454 C2450 0.950 . S
C2455 C2453 1.390 . S
C2455 C2456 1.387 . S
C2455 H2458 0.950 . S
C2456 C2455 1.387 . S
C2456 C2459 1.387 . S
H2457 C2453 0.950 . S
H2458 C2455 0.950 . S
C2459 C2450 1.390 . S
C2459 H2452 0.950 . S
C2459 C2456 1.387 . S
C2460 C2461 1.387 . S
C2460 H2464 0.950 . S
C2460 C2469 1.390 . S
C2461 C2460 1.387 . S
C2461 C2463 1.387 . S
H2462 C2469 0.950 . S
C2463 C2461 1.387 . S
C2463 C2465 1.390 . S
C2463 H2467 0.950 . S
H2464 C2460 0.950 . S
C2465 C2463 1.390 . S
C2465 C2466 1.387 . S
C2465 H2468 0.950 . S
C2466 C2465 1.387 . S
C2466 C2469 1.387 . S
H2467 C2463 0.950 . S
H2468 C2465 0.950 . S
C2469 C2460 1.390 . S
C2469 H2462 0.950 . S
C2469 C2466 1.387 . S
C2470 C2471 1.387 . S
C2470 H2474 0.950 . S
C2470 C2479 1.390 . S
C2471 C2470 1.387 . S
C2471 C2473 1.387 . S
H2472 C2479 0.950 . S
C2473 C2471 1.387 . S
C2473 C2475 1.390 . S
C2473 H2477 0.950 . S
H2474 C2470 0.950 . S
C2475 C2473 1.390 . S
C2475 C2476 1.387 . S
C2475 H2478 0.950 . S
C2476 C2475 1.387 . S
C2476 C2479 1.387 . S
H2477 C2473 0.950 . S
H2478 C2475 0.950 . S
C2479 C2470 1.390 . S
C2479 H2472 0.950 . S
C2479 C2476 1.387 . S
C2480 C2481 1.387 . S
C2480 H2484 0.950 . S
C2480 C2489 1.390 . S
C2481 C2480 1.387 . S
C2481 C2483 1.387 . S
H2482 C2489 0.950 . S
C2483 C2481 1.387 . S
C2483 C2485 1.390 . S
C2483 H2487 0.950 . S
H2484 C2480 0.950 . S
C2485 C2483 1.390 . S
C2485 C2486 1.387 . S
C2485 H2488 0.950 . S
C2486 C2485 1.387 . S
C2486 C2489 1.387 . S
H2487 C2483 0.950 . S
H2488 C2485 0.950 . S
C2489 C2480 1.390 . S
C2489 H2482 0.950 . S
C2489 C2486 1.387 . S
C2490 C2491 1.387 . S
C2490 H2494 0.950 . S
C2490 C2499 1.390 1_655 S
C2491 C2490 1.387 . S
C2491 C2493 1.387 1_655 S
H2492 C2499 0.950 . S
C2493 C2491 1.387 1_455 S
C2493 C2495 1.390 . S
C2493 H2497 0.950 . S
H2494 C2490 0.950 . S
C2495 C2493 1.390 . S
C2495 C2496 1.387 . S
C2495 H2498 0.950 . S
C2496 C2495 1.387 . S
C2496 C2499 1.387 . S
H2497 C2493 0.950 . S
H2498 C2495 0.950 . S
C2499 C2490 1.390 1_455 S
C2499 H2492 0.950 . S
C2499 C2496 1.387 . S
C2500 C2501 1.387 . S
C2500 H2504 0.950 . S
C2500 C2509 1.390 . S
C2501 C2500 1.387 . S
C2501 C2503 1.387 . S
H2502 C2509 0.950 . S
C2503 C2501 1.387 . S
C2503 C2505 1.390 . S
C2503 H2507 0.950 . S
H2504 C2500 0.950 . S
C2505 C2503 1.390 . S
C2505 C2506 1.387 . S
C2505 H2508 0.950 . S
C2506 C2505 1.387 . S
C2506 C2509 1.387 . S
H2507 C2503 0.950 . S
H2508 C2505 0.950 . S
C2509 C2500 1.390 . S
C2509 H2502 0.950 . S
C2509 C2506 1.387 . S
C2510 C2511 1.387 . S
C2510 H2514 0.950 . S
C2510 C2519 1.390 . S
C2511 C2510 1.387 . S
C2511 C2513 1.387 . S
H2512 C2519 0.950 . S
C2513 C2511 1.387 . S
C2513 C2515 1.390 . S
C2513 H2517 0.950 . S
H2514 C2510 0.950 . S
C2515 C2513 1.390 . S
C2515 C2516 1.387 . S
C2515 H2518 0.950 . S
C2516 C2515 1.387 . S
C2516 C2519 1.387 . S
H2517 C2513 0.950 . S
H2518 C2515 0.950 . S
C2519 C2510 1.390 . S
C2519 H2512 0.950 . S
C2519 C2516 1.387 . S
C1441 C1082 2.369 . S
C1446 C2 2.369 . S
C1451 C1122 2.368 . S
C1456 C42 2.368 1_655 S
C1461 C82 2.369 . S
C1466 C1162 2.369 . S
C1471 C122 2.368 . S
C1476 C482 2.369 . S
C1481 C162 2.370 . S
C1486 C522 2.370 . S
C1491 C562 2.368 . S
C1496 C202 2.368 1_565 S
C1501 C263 2.370 1_565 S
C1506 C863 2.370 . S
C1511 C903 2.368 . S
C1516 C303 2.368 . S
C1521 C343 2.369 . S
C1526 C943 2.370 . S
C1531 C1223 2.368 . S
C1536 C383 2.369 1_655 S
C1541 C423 2.368 . S
C1546 C1263 2.368 . S
C1551 C1303 2.369 . S
C1556 C463 2.368 . S
C1561 C962 2.368 . S
C1566 C602 2.368 . S
C1571 C642 2.368 . S
C1576 C1002 2.368 . S
C1581 C1042 2.369 . S
C1586 C682 2.369 . S
C1591 C743 2.369 . S
C1596 C1343 2.369 . S
C1601 C783 2.368 . S
C1606 C1383 2.368 . S
C1611 C1423 2.370 . S
C1616 C823 2.369 . S
C1621 C23 1.609 . S
C1626 C242 1.609 . S
C1631 C282 1.612 . S
C1636 C63 1.612 . S
C1641 C103 1.613 . S
C1646 C322 1.613 . S
C1651 C362 1.613 . S
C1656 C143 1.613 . S
C1661 C183 1.613 . S
C1666 C402 1.613 . S
C1671 C442 1.610 . S
C1676 C223 1.610 . S
C1681 C722 1.610 . S
C1686 C503 1.610 . S
C1691 C543 1.611 . S
C1696 C762 1.611 . S
C1701 C802 1.609 . S
C1706 C583 1.609 . S
C1711 C623 1.609 . S
C1716 C842 1.609 . S
C1721 C882 1.612 . S
C1726 C663 1.612 . S
C1731 C703 1.609 . S
C1736 C922 1.609 . S
C1741 C983 1.609 . S
C1746 C1202 1.609 . S
C1751 C1242 1.611 . S
C1756 C1023 1.611 . S
C1761 C1282 1.609 . S
C1766 C1063 1.609 . S
C1771 C1322 1.613 . S
C1776 C1103 1.613 . S
C1781 C1143 1.611 . S
C1786 C1362 1.611 . S
C1791 C1183 1.610 . S
C1796 C1402 1.610 . S
C1801 C4 1.783 . S
C1806 C100 1.780 . S
C1811 C44 1.783 . S
C1816 C20 1.780 . S
C1821 C60 1.781 . S
C1826 C84 1.783 . S
C1831 C124 1.783 . S
C1836 C180 1.781 . S
C1841 C220 1.781 . S
C1846 C164 1.783 . S
C1851 C140 1.780 . S
C1856 C204 1.782 . S
C1861 C351 1.780 . S
C1866 C265 1.782 . S
C1871 C305 1.782 . S
C1876 C271 1.780 . S
C1881 C345 1.781 . S
C1886 C311 1.778 . S
C1891 C431 1.778 . S
C1896 C385 1.781 . S
C1901 C425 1.783 . S
C1906 C471 1.781 . S
C1911 C465 1.781 . S
C1916 C391 1.779 . S
C1921 C580 1.780 1_545 S
C1926 C484 1.782 . S
C1931 C500 1.781 . S
C1936 C524 1.783 1_455 S
C1941 C540 1.778 . S
C1946 C564 1.780 . S
C1951 C660 1.781 . S
C1956 C604 1.783 . S
C1961 C644 1.783 . S
C1966 C700 1.781 . S
C1971 C620 1.781 . S
C1976 C684 1.783 . S
C1981 C745 1.783 . S
C1986 C831 1.780 . S
C1991 C751 1.779 . S
C1996 C785 1.781 . S
C2001 C825 1.782 . S
C2006 C791 1.779 . S
C2011 C911 1.781 . S
C2016 C865 1.783 1_455 S
C2021 C951 1.780 . S
C2026 C905 1.782 . S
C2031 C871 1.780 1_545 S
C2036 C945 1.782 . S
C2041 C1060 1.779 . S
C2046 C964 1.782 . S
C2051 C1004 1.781 . S
C2056 C980 1.779 . S
C2061 C1020 1.778 . S
C2066 C1044 1.780 . S
C2071 C1084 1.782 . S
C2076 C1140 1.779 1_455 S
C2081 C1124 1.780 . S
C2086 C1180 1.778 . S
C2091 C1100 1.780 . S
C2096 C1164 1.783 1_545 S
C2101 C1225 1.782 1_545 S
C2106 C1311 1.780 . S
C2111 C1265 1.782 . S
C2116 C1231 1.780 1_455 S
C2121 C1271 1.778 . S
C2126 C1305 1.780 . S
C2131 C1345 1.781 . S
C2136 C1391 1.778 . S
C2141 C1431 1.779 . S
C2146 C1385 1.781 . S
C2151 C1351 1.780 . S
C2156 C1425 1.782 . S
C2161 C111 1.286 . S
C2166 C25 1.297 . S
C2171 C65 1.294 . S
C2176 C31 1.284 . S
C2181 C71 1.288 . S
C2186 C105 1.298 . S
C2191 C191 1.284 . S
C2196 C145 1.295 . S
C2201 C185 1.294 . S
C2206 C231 1.283 . S
C2211 C225 1.294 . S
C2216 C151 1.283 . S
C2221 C340 1.286 . S
C2226 C244 1.297 . S
C2231 C284 1.297 . S
C2236 C260 1.286 . S
C2241 C300 1.285 . S
C2246 C324 1.296 . S
C2251 C420 1.283 . S
C2256 C364 1.294 . S
C2261 C460 1.288 . S
C2266 C404 1.298 . S
C2271 C380 1.285 . S
C2276 C444 1.296 . S
C2281 C505 1.295 . S
C2286 C591 1.285 . S
C2291 C545 1.295 . S
C2296 C511 1.285 . S
C2301 C585 1.294 . S
C2306 C551 1.283 . S
C2311 C671 1.288 . S
C2316 C625 1.298 1_455 S
C2321 C665 1.295 . S
C2326 C711 1.285 . S
C2331 C705 1.298 . S
C2336 C631 1.287 . S
C2341 C820 1.287 . S
C2346 C724 1.297 . S
C2351 C740 1.286 . S
C2356 C764 1.297 1_455 S
C2361 C804 1.294 . S
C2366 C780 1.283 . S
C2371 C900 1.287 . S
C2376 C844 1.298 . S
C2381 C884 1.297 . S
C2386 C940 1.286 . S
C2391 C924 1.298 . S
C2396 C860 1.288 . S
C2401 C985 1.298 1_545 S
C2406 C1071 1.287 . S
C2411 C991 1.288 . S
C2416 C1025 1.298 . S
C2421 C1031 1.283 . S
C2426 C1065 1.294 . S
C2431 C1151 1.288 . S
C2436 C1105 1.298 . S
C2441 C1145 1.296 . S
C2446 C1191 1.285 . S
C2451 C1185 1.297 . S
C2456 C1111 1.286 . S
C2461 C1300 1.283 . S
C2466 C1204 1.294 . S
C2471 C1220 1.285 . S
C2476 C1244 1.296 . S
C2481 C1284 1.298 . S
C2486 C1260 1.288 . S
C2491 C1380 1.288 . S
C2496 C1324 1.298 . S
C2501 C1364 1.295 . S
C2506 C1420 1.284 . S
C2511 C1404 1.298 1_545 S
C2516 C1340 1.288 . S
