# Generated by pormake.
# Topology xfg, (7)-cn, num edge types: 1
# Building blocks:
#     Node 0, Type 0, BuildingBlock: HICVOG_clean_sbu_0, # of connection points: 7
#     Node 1, Type 0, BuildingBlock: HICVOG_clean_sbu_0, # of connection points: 7
#     Node 2, Type 0, BuildingBlock: HICVOG_clean_sbu_0, # of connection points: 7
#     Node 3, Type 0, BuildingBlock: HICVOG_clean_sbu_0, # of connection points: 7
#     Node 4, Type 0, BuildingBlock: HICVOG_clean_sbu_0, # of connection points: 7
#     Node 5, Type 0, BuildingBlock: HICVOG_clean_sbu_0, # of connection points: 7
#     Node 6, Type 0, BuildingBlock: HICVOG_clean_sbu_0, # of connection points: 7
#     Node 7, Type 0, BuildingBlock: HICVOG_clean_sbu_0, # of connection points: 7
#     Node 8, Type 0, BuildingBlock: HICVOG_clean_sbu_0, # of connection points: 7
#     Node 9, Type 0, BuildingBlock: HICVOG_clean_sbu_0, # of connection points: 7
#     Node 10, Type 0, BuildingBlock: HICVOG_clean_sbu_0, # of connection points: 7
#     Node 11, Type 0, BuildingBlock: HICVOG_clean_sbu_0, # of connection points: 7
#     Node 12, Type 0, BuildingBlock: HICVOG_clean_sbu_0, # of connection points: 7
#     Node 13, Type 0, BuildingBlock: HICVOG_clean_sbu_0, # of connection points: 7
#     Node 14, Type 0, BuildingBlock: HICVOG_clean_sbu_0, # of connection points: 7
#     Node 15, Type 0, BuildingBlock: HICVOG_clean_sbu_0, # of connection points: 7
#     Edge 16, Type (0, 0), BuildingBlock: AJUNOK_clean_linker_0, # of connection points: 2
#     Edge 17, Type (0, 0), BuildingBlock: AJUNOK_clean_linker_0, # of connection points: 2
#     Edge 18, Type (0, 0), BuildingBlock: AJUNOK_clean_linker_0, # of connection points: 2
#     Edge 19, Type (0, 0), BuildingBlock: AJUNOK_clean_linker_0, # of connection points: 2
#     Edge 20, Type (0, 0), BuildingBlock: AJUNOK_clean_linker_0, # of connection points: 2
#     Edge 21, Type (0, 0), BuildingBlock: AJUNOK_clean_linker_0, # of connection points: 2
#     Edge 22, Type (0, 0), BuildingBlock: AJUNOK_clean_linker_0, # of connection points: 2
#     Edge 23, Type (0, 0), BuildingBlock: AJUNOK_clean_linker_0, # of connection points: 2
#     Edge 24, Type (0, 0), BuildingBlock: AJUNOK_clean_linker_0, # of connection points: 2
#     Edge 25, Type (0, 0), BuildingBlock: AJUNOK_clean_linker_0, # of connection points: 2
#     Edge 26, Type (0, 0), BuildingBlock: AJUNOK_clean_linker_0, # of connection points: 2
#     Edge 27, Type (0, 0), BuildingBlock: AJUNOK_clean_linker_0, # of connection points: 2
#     Edge 28, Type (0, 0), BuildingBlock: AJUNOK_clean_linker_0, # of connection points: 2
#     Edge 29, Type (0, 0), BuildingBlock: AJUNOK_clean_linker_0, # of connection points: 2
#     Edge 30, Type (0, 0), BuildingBlock: AJUNOK_clean_linker_0, # of connection points: 2
#     Edge 31, Type (0, 0), BuildingBlock: AJUNOK_clean_linker_0, # of connection points: 2
#     Edge 32, Type (0, 0), BuildingBlock: AJUNOK_clean_linker_0, # of connection points: 2
#     Edge 33, Type (0, 0), BuildingBlock: AJUNOK_clean_linker_0, # of connection points: 2
#     Edge 34, Type (0, 0), BuildingBlock: AJUNOK_clean_linker_0, # of connection points: 2
#     Edge 35, Type (0, 0), BuildingBlock: AJUNOK_clean_linker_0, # of connection points: 2
#     Edge 36, Type (0, 0), BuildingBlock: AJUNOK_clean_linker_0, # of connection points: 2
#     Edge 37, Type (0, 0), BuildingBlock: AJUNOK_clean_linker_0, # of connection points: 2
#     Edge 38, Type (0, 0), BuildingBlock: AJUNOK_clean_linker_0, # of connection points: 2
#     Edge 39, Type (0, 0), BuildingBlock: AJUNOK_clean_linker_0, # of connection points: 2
#     Edge 40, Type (0, 0), BuildingBlock: AJUNOK_clean_linker_0, # of connection points: 2
#     Edge 41, Type (0, 0), BuildingBlock: AJUNOK_clean_linker_0, # of connection points: 2
#     Edge 42, Type (0, 0), BuildingBlock: AJUNOK_clean_linker_0, # of connection points: 2
#     Edge 43, Type (0, 0), BuildingBlock: AJUNOK_clean_linker_0, # of connection points: 2
#     Edge 44, Type (0, 0), BuildingBlock: AJUNOK_clean_linker_0, # of connection points: 2
#     Edge 45, Type (0, 0), BuildingBlock: AJUNOK_clean_linker_0, # of connection points: 2
#     Edge 46, Type (0, 0), BuildingBlock: AJUNOK_clean_linker_0, # of connection points: 2
#     Edge 47, Type (0, 0), BuildingBlock: AJUNOK_clean_linker_0, # of connection points: 2
#     Edge 48, Type (0, 0), BuildingBlock: AJUNOK_clean_linker_0, # of connection points: 2
#     Edge 49, Type (0, 0), BuildingBlock: AJUNOK_clean_linker_0, # of connection points: 2
#     Edge 50, Type (0, 0), BuildingBlock: AJUNOK_clean_linker_0, # of connection points: 2
#     Edge 51, Type (0, 0), BuildingBlock: AJUNOK_clean_linker_0, # of connection points: 2
#     Edge 52, Type (0, 0), BuildingBlock: AJUNOK_clean_linker_0, # of connection points: 2
#     Edge 53, Type (0, 0), BuildingBlock: AJUNOK_clean_linker_0, # of connection points: 2
#     Edge 54, Type (0, 0), BuildingBlock: AJUNOK_clean_linker_0, # of connection points: 2
#     Edge 55, Type (0, 0), BuildingBlock: AJUNOK_clean_linker_0, # of connection points: 2
#     Edge 56, Type (0, 0), BuildingBlock: AJUNOK_clean_linker_0, # of connection points: 2
#     Edge 57, Type (0, 0), BuildingBlock: AJUNOK_clean_linker_0, # of connection points: 2
#     Edge 58, Type (0, 0), BuildingBlock: AJUNOK_clean_linker_0, # of connection points: 2
#     Edge 59, Type (0, 0), BuildingBlock: AJUNOK_clean_linker_0, # of connection points: 2
#     Edge 60, Type (0, 0), BuildingBlock: AJUNOK_clean_linker_0, # of connection points: 2
#     Edge 61, Type (0, 0), BuildingBlock: AJUNOK_clean_linker_0, # of connection points: 2
#     Edge 62, Type (0, 0), BuildingBlock: AJUNOK_clean_linker_0, # of connection points: 2
#     Edge 63, Type (0, 0), BuildingBlock: AJUNOK_clean_linker_0, # of connection points: 2
#     Edge 64, Type (0, 0), BuildingBlock: AJUNOK_clean_linker_0, # of connection points: 2
#     Edge 65, Type (0, 0), BuildingBlock: AJUNOK_clean_linker_0, # of connection points: 2
#     Edge 66, Type (0, 0), BuildingBlock: AJUNOK_clean_linker_0, # of connection points: 2
#     Edge 67, Type (0, 0), BuildingBlock: AJUNOK_clean_linker_0, # of connection points: 2
#     Edge 68, Type (0, 0), BuildingBlock: AJUNOK_clean_linker_0, # of connection points: 2
#     Edge 69, Type (0, 0), BuildingBlock: AJUNOK_clean_linker_0, # of connection points: 2
#     Edge 70, Type (0, 0), BuildingBlock: AJUNOK_clean_linker_0, # of connection points: 2
#     Edge 71, Type (0, 0), BuildingBlock: AJUNOK_clean_linker_0, # of connection points: 2
# Relax obj value: 0.179
# Max RMSD: 0.185
# Mean RMSD: 0.180
data_MOF--net-xfg--node1-HICVOG_clean_sbu_0--edge1-AJUNOK_clean_linker_0
_symmetry_space_group_name_H-M    P1
_symmetry_Int_Tables_number       1
_symmetry_cell_setting            triclinic
loop_
_symmetry_equiv_pos_as_xyz
'x, y, z'
_cell_length_a     21.705085
_cell_length_b     21.655568
_cell_length_c     54.041628
_cell_angle_alpha  90.137088
_cell_angle_beta   90.111604
_cell_angle_gamma 89.968335
loop_
_atom_site_label
_atom_site_type_symbol
_atom_site_fract_x
_atom_site_fract_y
_atom_site_fract_z
_atom_type_partial_charge
Zn0 Zn 0.25383 0.15565 0.06444 0.0
C1 C 0.29625 0.31913 0.0301 0.0
N2 N 0.30562 0.33594 0.05372 0.0
C3 C 0.29559 0.28405 0.06632 0.0
N4 N 0.28011 0.23645 0.05133 0.0
N5 N 0.28097 0.2577 0.0282 0.0
C6 C 0.20675 0.17428 0.95977 0.0
O7 O 0.18906 0.13094 0.97515 0.0
O8 O 0.29106 0.14233 0.09889 0.0
Zn9 Zn 0.28919 0.19986 0.9998 0.0
N10 N 0.16579 0.16005 0.06848 0.0
C11 C 0.06596 0.19255 0.05558 0.0
C12 C 0.12883 0.18495 0.05078 0.0
C13 C 0.14248 0.14138 0.09048 0.0
N14 N 1.04312 0.1761 0.07805 0.0
C15 C 0.08021 0.15071 0.09559 0.0
O16 O 0.28226 0.10334 0.00625 0.0
C17 C 0.27646 0.06177 0.02291 0.0
O18 O 0.26854 0.07662 0.04538 0.0
H19 H 0.14822 0.19977 0.03335 0.0
H20 H 0.17294 0.12244 0.10439 0.0
C21 C 0.41076 0.16488 0.99823 0.0
C22 C 0.4716 0.16297 0.99017 0.0
C23 C 0.45526 0.25579 0.96789 0.0
C24 C 0.39362 0.25613 0.97536 0.0
N25 N 0.37285 0.20999 0.99015 0.0
N26 N 0.49263 0.20858 0.97506 0.0
H27 H 0.39261 0.12899 0.00995 0.0
C28 C 0.34706 0.14553 0.10587 0.0
O29 O 0.39 0.15613 0.08931 0.0
O30 O 0.24133 0.21727 0.96799 0.0
H31 H 0.3625 0.29196 0.96916 0.0
H32 H 1.0359 0.21275 0.04181 0.0
H33 H 0.47281 0.29178 0.95598 0.0
Zn34 Zn 0.70735 0.47885 0.312 0.0
C35 C 0.54242 0.5179 0.27833 0.0
N36 N 0.52428 0.5114 0.30191 0.0
C37 C 0.57676 0.5004 0.31397 0.0
N38 N 0.62583 0.49985 0.29877 0.0
N39 N 0.60527 0.51185 0.27605 0.0
C40 C 0.6793 0.471 0.20529 0.0
O41 O 0.71342 0.43537 0.21938 0.0
O42 O 0.71587 0.51773 0.34637 0.0
Zn43 Zn 0.66312 0.54129 0.25036 0.0
N44 N 0.70777 0.39023 0.31589 0.0
C45 C 0.67536 0.29005 0.30313 0.0
C46 C 0.68272 0.35299 0.29826 0.0
C47 C 0.72771 0.36693 0.33776 0.0
N48 N 0.69226 0.26735 0.32558 0.0
C49 C 0.71879 0.30422 0.343 0.0
O50 O 0.7596 0.53123 0.25578 0.0
C51 C 0.80063 0.51657 0.27183 0.0
O52 O 0.78504 0.49834 0.29319 0.0
H53 H 0.66681 0.37239 0.28096 0.0
H54 H 0.74572 0.39808 0.35169 0.0
C55 C 0.69579 0.6653 0.25589 0.0
C56 C 0.69031 0.72907 0.253 0.0
C57 C 0.58898 0.71564 0.23748 0.0
C58 C 0.59553 0.65176 0.23961 0.0
N59 N 0.64886 0.62814 0.24882 0.0
N60 N 0.63685 0.75285 0.24385 0.0
H61 H 0.73822 0.64502 0.26251 0.0
C62 C 0.71076 0.57489 0.35165 0.0
O63 O 0.70126 0.61456 0.33369 0.0
O64 O 0.6469 0.51301 0.21533 0.0
H65 H 0.55918 0.62134 0.23346 0.0
H66 H 0.65464 0.25987 0.28947 0.0
H67 H 0.54695 0.73535 0.23015 0.0
Zn68 Zn 0.31086 0.90138 0.50138 0.0
C69 C 0.32479 0.81956 0.56787 0.0
N70 N 0.31521 0.76674 0.55573 0.0
C71 C 0.31931 0.78304 0.53186 0.0
N72 N 0.33027 0.84523 0.52936 0.0
N73 N 0.33485 0.8674 0.55235 0.0
C74 C 0.26857 0.96019 0.6057 0.0
O75 O 0.22631 0.95255 0.58852 0.0
O76 O 0.34755 0.88302 0.46759 0.0
Zn77 Zn 0.35869 0.95045 0.56435 0.0
N78 N 0.22483 0.88888 0.49573 0.0
C79 C 0.13882 0.83395 0.47956 0.0
C80 C 0.20183 0.83725 0.48476 0.0
C81 C 0.18791 0.93681 0.50181 0.0
N82 N 0.10208 0.88302 0.48501 0.0
C83 C 0.1253 0.93462 0.49606 0.0
O84 O 0.33614 1.02751 0.54532 0.0
C85 C 0.32512 1.04068 0.52289 0.0
O86 O 0.31838 0.99788 0.5067 0.0
H87 H 0.2322 0.79976 0.47966 0.0
H88 H 0.20776 0.97758 0.51008 0.0
C89 C 0.4731 0.98015 0.58668 0.0
C90 C 0.5366 0.97478 0.59102 0.0
C91 C 0.54723 0.92113 0.55298 0.0
C92 C 0.48357 0.9246 0.54921 0.0
N93 N 0.44774 0.95298 0.56643 0.0
N94 N 0.5721 0.94476 0.5741 0.0
H95 H 0.44315 1.00081 0.60039 0.0
C96 C 0.38235 0.92293 0.45746 0.0
O97 O 0.409 0.9648 0.47147 0.0
O98 O 0.32501 0.96191 0.59933 0.0
H99 H 0.46267 0.90342 0.53311 0.0
H100 H 0.11954 0.7934 0.47075 0.0
H101 H 0.57634 0.89781 0.53968 0.0
Zn102 Zn 0.89787 0.61084 0.81076 0.0
C103 C 0.05664 0.55194 0.77655 0.0
N104 N 0.07317 0.54749 0.80042 0.0
C105 C 1.02216 0.56358 0.81247 0.0
N106 N 0.97601 0.57931 0.79704 0.0
N107 N 0.99642 0.57097 0.77406 0.0
C108 C 0.91214 0.64389 0.70741 0.0
O109 O 0.87417 0.66603 0.72411 0.0
O110 O 0.88752 0.57439 0.84512 0.0
Zn111 Zn 0.93686 0.56005 0.74649 0.0
N112 N 0.90281 0.69929 0.81601 0.0
C113 C 0.93159 0.8016 0.80478 0.0
C114 C 0.92673 0.73871 0.79901 0.0
C115 C 0.88168 0.7205 0.8381 0.0
N116 N 0.91233 0.82236 0.82728 0.0
C117 C 0.88692 0.78319 0.84404 0.0
O118 O 0.84143 0.57131 0.75401 0.0
C119 C 0.8012 0.58314 0.77069 0.0
O120 O 0.8178 0.59633 0.79259 0.0
H121 H 0.94296 0.72126 0.78141 0.0
H122 H 0.86242 0.68848 0.8513 0.0
C123 C 0.89658 0.43879 0.74539 0.0
C124 C 0.89717 0.3757 0.74026 0.0
C125 C 0.99391 0.38722 0.72047 0.0
C126 C 0.99308 0.45042 0.7258 0.0
N127 N 0.94413 0.47465 0.7381 0.0
N128 N 0.94573 0.35133 0.72764 0.0
H129 H 0.85788 0.45962 0.75471 0.0
C130 C 0.88317 0.51822 0.85169 0.0
O131 O 0.88428 0.47479 0.83469 0.0
O132 O 0.9532 0.60548 0.71422 0.0
H133 H 1.03068 0.47986 0.72011 0.0
H134 H 0.95134 0.83349 0.79161 0.0
H135 H 1.03227 0.36696 0.71061 0.0
Zn136 Zn 0.84919 0.95526 0.94595 0.0
C137 C 0.79929 0.79384 0.98083 0.0
N138 N 0.8034 0.77474 0.95725 0.0
C139 C 0.81934 0.82584 0.94526 0.0
N140 N 0.82612 0.87479 0.96042 0.0
N141 N 0.8128 0.85565 0.98321 0.0
C142 C 0.86838 0.95268 0.05155 0.0
O143 O 0.88317 0.99629 0.0358 0.0
O144 O 0.81477 0.958 0.91082 0.0
Zn145 Zn 0.79349 0.91531 0.01005 0.0
N146 N 0.93805 0.96287 0.94342 0.0
C147 C 1.03914 0.95392 0.96025 0.0
C148 C 0.97524 0.94929 0.96293 0.0
C149 C 0.96206 0.98272 0.92162 0.0
N150 N 0.06321 0.97158 0.93815 0.0
C151 C 1.02621 0.98669 0.91873 0.0
O152 O 0.7954 1.01046 1.00103 0.0
C153 C 0.80413 1.05022 0.98388 0.0
O154 O 0.82199 1.03359 0.96257 0.0
H155 H 0.9554 0.93429 0.98025 0.0
H156 H 0.93148 0.99264 0.9063 0.0
C157 C 0.67037 0.94282 0.00757 0.0
C158 C 0.60822 0.94221 0.01379 0.0
C159 C 0.62497 0.85229 0.03784 0.0
C160 C 0.68777 0.8544 0.0321 0.0
N161 N 0.7089 0.90033 0.01729 0.0
N162 N 0.58679 0.89708 0.02903 0.0
H163 H 0.68882 0.97903 0.99612 0.0
C164 C 0.75779 0.95793 0.90514 0.0
O165 O 0.7167 0.95721 0.92294 0.0
O166 O 0.83744 0.9066 0.0436 0.0
H167 H 0.71939 0.82083 0.03974 0.0
H168 H 0.06942 0.94253 0.9755 0.0
H169 H 0.60711 0.81654 0.04978 0.0
Zn170 Zn 0.38739 0.59912 0.69563 0.0
C171 C 0.55558 0.60677 0.73121 0.0
N172 N 0.57378 0.62004 0.7082 0.0
C173 C 0.52235 0.61644 0.69464 0.0
N174 N 0.47276 0.60299 0.70889 0.0
N175 N 0.49322 0.59625 0.73202 0.0
C176 C 0.42322 0.62153 0.80408 0.0
O177 O 0.38713 0.65741 0.79089 0.0
O178 O 0.39144 0.55405 0.6622 0.0
Zn179 Zn 0.44012 0.55828 0.75743 0.0
N180 N 0.35825 0.68423 0.69371 0.0
C181 C 0.35452 0.7835 0.7128 0.0
C182 C 0.3694 0.7208 0.71372 0.0
C183 C 0.32889 0.70712 0.67348 0.0
N184 N 0.33214 0.80767 0.69142 0.0
C185 C 0.31902 0.77106 0.67161 0.0
O186 O 0.343 0.56433 0.75396 0.0
C187 C 0.302 0.55962 0.73696 0.0
O188 O 0.31676 0.56109 0.7143 0.0
H189 H 0.3908 0.70153 0.73007 0.0
H190 H 0.3198 0.67692 0.65792 0.0
C191 C 0.41429 0.43369 0.74931 0.0
C192 C 0.4229 0.37002 0.75093 0.0
C193 C 0.52507 0.38663 0.76502 0.0
C194 C 0.51526 0.45035 0.76426 0.0
N195 N 0.4599 0.47232 0.75644 0.0
N196 N 0.47829 0.34783 0.75879 0.0
H197 H 0.37039 0.45252 0.74381 0.0
C198 C 0.34594 0.53133 0.65042 0.0
O199 O 0.29014 0.53895 0.65929 0.0
O200 O 0.45735 0.58254 0.79301 0.0
H201 H 0.55071 0.48184 0.77041 0.0
H202 H 0.36389 0.81331 0.72845 0.0
H203 H 0.56871 0.36819 0.77128 0.0
Zn204 Zn 0.76336 0.13122 0.4478 0.0
C205 C 0.76605 0.29976 0.4819 0.0
N206 N 0.75275 0.31641 0.45856 0.0
C207 C 0.7485 0.26254 0.44669 0.0
N208 N 0.76 0.21439 0.46163 0.0
N209 N 0.76936 0.23671 0.48427 0.0
C210 C 0.71699 0.15214 0.55248 0.0
O211 O 0.69537 0.11228 0.53631 0.0
O212 O 0.79773 0.13449 0.41278 0.0
Zn213 Zn 0.79457 0.18066 0.51121 0.0
N214 N 0.68005 0.10312 0.44511 0.0
C215 C 0.58235 0.07876 0.46238 0.0
C216 C 0.64346 0.09767 0.46536 0.0
C217 C 0.65883 0.08919 0.4222 0.0
N218 N 0.56037 0.06724 0.43925 0.0
C219 C 0.59753 0.07152 0.41906 0.0
O220 O 0.78642 0.08436 0.50457 0.0
C221 C 0.79708 1.04486 0.48743 0.0
O222 O 0.80602 0.06183 0.46531 0.0
H223 H 0.66145 0.10849 0.48354 0.0
H224 H 0.68862 0.09485 0.40638 0.0
C225 C 0.91799 0.14979 0.50933 0.0
C226 C 0.98138 0.1553 0.51255 0.0
C227 C 0.96671 0.25523 0.52955 0.0
C228 C 0.90306 0.24927 0.52621 0.0
N229 N 0.8803 0.19633 0.51622 0.0
N230 N 1.00448 0.20782 0.5229 0.0
H231 H 0.89846 0.10783 0.50209 0.0
C232 C 0.85289 0.14291 0.40562 0.0
O233 O 0.89639 0.1511 0.42224 0.0
O234 O 0.75406 0.19375 0.545 0.0
H235 H 0.87219 0.28595 0.53177 0.0
H236 H 0.55228 0.07465 0.47823 0.0
H237 H 0.98581 0.29678 0.53763 0.0
Zn238 Zn 0.21131 0.50048 0.19452 0.0
C239 C 1.04415 0.50969 0.23088 0.0
N240 N 1.02369 0.50422 0.20763 0.0
C241 C 0.07489 0.50249 0.19406 0.0
N242 N 0.12634 0.50633 0.20829 0.0
N243 N 0.10751 0.51122 0.23176 0.0
C244 C 0.19762 0.46187 0.30076 0.0
O245 O 0.2373 0.43957 0.28474 0.0
O246 O 0.21233 0.53745 0.15951 0.0
Zn247 Zn 0.16624 0.53567 0.25846 0.0
N248 N 0.23308 0.41359 0.1931 0.0
C249 C 0.22574 0.31148 0.20904 0.0
C250 C 0.21455 0.37477 0.21136 0.0
C251 C 0.2653 0.3922 0.17334 0.0
N252 N 0.25301 0.28954 0.18818 0.0
C253 C 0.2735 0.32838 0.17023 0.0
O254 O 0.26148 0.52765 0.25166 0.0
C255 C 0.30185 0.53262 0.23458 0.0
O256 O 0.28599 0.53515 0.21201 0.0
H257 H 0.19014 0.39271 0.22726 0.0
H258 H 0.27849 0.42415 0.15891 0.0
C259 C 0.20249 0.65912 0.25741 0.0
C260 C 0.19833 0.72302 0.2601 0.0
C261 C 0.09577 0.71171 0.27445 0.0
C262 C 0.10027 0.64768 0.27152 0.0
N263 N 0.15372 0.62285 0.26301 0.0
N264 N 0.14501 0.74794 0.26885 0.0
H265 H 0.24498 0.63829 0.25152 0.0
C266 C 0.21104 0.59505 0.15462 0.0
O267 O 0.20934 0.63471 0.17303 0.0
O268 O 0.15486 0.49729 0.29289 0.0
H269 H 0.06197 0.61812 0.27622 0.0
H270 H 0.21039 0.27979 0.22319 0.0
H271 H 0.05374 0.73238 0.28132 0.0
Zn272 Zn 0.75271 0.63593 0.56109 0.0
C273 C 0.77098 0.80128 0.52531 0.0
N274 N 0.76011 0.8207 0.5485 0.0
C275 C 0.75319 0.76801 0.56089 0.0
N276 N 0.75993 0.71796 0.54637 0.0
N277 N 0.7707 0.73801 0.52354 0.0
C278 C 0.71628 0.64468 0.45622 0.0
O279 O 0.69956 0.60303 0.4725 0.0
O280 O 0.78948 0.63727 0.59584 0.0
Zn281 Zn 0.7944 0.68049 0.49664 0.0
N282 N 0.66673 0.61814 0.56457 0.0
C283 C 0.56689 0.5989 0.54806 0.0
C284 C 0.62888 0.61394 0.54459 0.0
C285 C 0.64581 0.60671 0.58769 0.0
N286 N 0.5455 0.58926 0.57137 0.0
C287 C 0.5837 0.59247 0.59136 0.0
O288 O 0.79238 0.58466 0.50434 0.0
C289 C 0.79081 0.54424 0.52158 0.0
O290 O 0.78312 0.56009 0.54393 0.0
H291 H 0.64677 0.62206 0.52621 0.0
H292 H 0.67693 0.61124 0.6032 0.0
C293 C 0.91878 0.65429 0.49649 0.0
C294 C 0.9811 0.66004 0.49076 0.0
C295 C 0.96079 0.75753 0.47259 0.0
C296 C 0.89809 0.75046 0.47774 0.0
N297 N 0.8787 0.69881 0.48964 0.0
N298 N 1.00081 0.71176 0.47887 0.0
H299 H 0.90158 0.61325 0.50537 0.0
C300 C 0.84559 0.64095 0.60256 0.0
O301 O 0.88872 0.6442 0.58559 0.0
O302 O 0.74976 0.68964 0.46344 0.0
H303 H 0.86524 0.78517 0.47203 0.0
H304 H 0.5359 0.59565 0.53241 0.0
H305 H 0.97729 0.79832 0.46317 0.0
Zn306 Zn 0.21576 1.01828 0.81379 0.0
C307 C 1.0456 1.0178 0.77943 0.0
N308 N 1.02794 1.01237 0.80308 0.0
C309 C 0.08098 1.01046 0.81555 0.0
N310 N 0.1304 1.01488 0.80049 0.0
N311 N 0.10887 1.0191 0.7774 0.0
C312 C 0.19687 0.95948 0.70995 0.0
O313 O 0.23454 0.9371 0.72672 0.0
O314 O 0.21222 0.05491 0.84871 0.0
Zn315 Zn 0.16651 1.03956 0.75008 0.0
N316 N 0.2484 0.93547 0.81629 0.0
C317 C 0.27701 0.83989 0.79777 0.0
C318 C 0.25199 0.8991 0.79582 0.0
C319 C 0.27024 0.91571 0.83847 0.0
N320 N 0.29499 0.81865 0.8203 0.0
C321 C 0.29207 0.85501 0.84086 0.0
O322 O 0.26252 1.03057 0.75707 0.0
C323 C 0.30206 1.04565 0.77364 0.0
O324 O 0.28462 0.06116 0.79521 0.0
H325 H 0.23565 0.91603 0.7782 0.0
H326 H 0.26597 0.94549 0.85448 0.0
C327 C 0.20508 0.16062 0.74457 0.0
C328 C 0.20157 0.22423 0.7413 0.0
C329 C 0.09483 0.21486 0.73293 0.0
C330 C 0.09848 0.15117 0.73708 0.0
N331 N 0.15374 0.12561 0.74308 0.0
N332 N 0.14645 0.25013 0.73521 0.0
H333 H 0.24877 0.13911 0.74815 0.0
C334 C 0.21197 0.11205 0.85443 0.0
O335 O 0.2151 0.15332 0.83671 0.0
O336 O 0.15414 0.99606 0.71684 0.0
H337 H 0.05799 0.12256 0.73536 0.0
H338 H 0.28023 0.81033 0.78166 0.0
H339 H 0.05133 0.23609 0.72807 0.0
Zn340 Zn 0.78735 0.41572 0.99539 0.0
C341 C 0.83394 0.32493 0.05798 0.0
N342 N 0.82435 0.27296 0.04534 0.0
C343 C 0.81136 0.29357 0.02253 0.0
N344 N 0.81316 0.3569 0.02126 0.0
N345 N 0.82756 0.37579 0.044 0.0
C346 C 0.7774 0.49923 0.10604 0.0
O347 O 0.79439 0.55408 0.09827 0.0
O348 O 0.83086 0.40835 0.96214 0.0
Zn349 Zn 0.83694 0.45666 0.06015 0.0
N350 N 0.70228 0.39916 0.98883 0.0
C351 C 0.618 0.3472 0.96982 0.0
C352 C 0.68071 0.34991 0.97581 0.0
C353 C 0.66412 0.44463 0.99645 0.0
N354 N 0.58031 0.39471 0.97646 0.0
C355 C 0.60218 0.44355 0.98975 0.0
O356 O 0.81004 0.53443 0.04302 0.0
C357 C 0.79627 0.55095 0.02123 0.0
O358 O 0.78985 0.51099 0.00395 0.0
H359 H 0.71196 0.31417 0.96965 0.0
H360 H 0.68268 0.48343 0.00652 0.0
C361 C 0.94598 0.48705 0.08803 0.0
C362 C 1.00922 0.49881 0.09097 0.0
C363 C 1.02408 0.48092 0.0481 0.0
C364 C 0.96129 0.46884 0.0453 0.0
N365 N 0.92369 0.47144 0.06536 0.0
N366 N 1.04673 0.49494 0.07087 0.0
H367 H 0.91513 0.4882 0.10373 0.0
C368 C 0.86734 0.45198 0.95629 0.0
O369 O 0.88688 0.48946 0.97375 0.0
O370 O 0.79132 0.45204 0.09315 0.0
H371 H 0.94248 0.45742 0.02731 0.0
H372 H 0.59987 0.30866 0.95933 0.0
H373 H 0.05468 0.47855 0.03235 0.0
Zn374 Zn 0.39702 0.09458 0.31528 0.0
C375 C 0.56403 0.08441 0.27906 0.0
N376 N 0.58463 0.08664 0.30237 0.0
C377 C 0.53347 0.08712 0.316 0.0
N378 N 0.48191 0.0857 0.30172 0.0
N379 N 0.50071 0.08329 0.2782 0.0
C380 C 0.41179 0.14018 0.21098 0.0
O381 O 0.37314 0.1611 0.22768 0.0
O382 O 0.39461 0.05224 0.3494 0.0
Zn383 Zn 0.44288 0.06067 0.25104 0.0
N384 N 0.38087 0.18292 0.31698 0.0
C385 C 0.39402 0.28245 0.29906 0.0
C386 C 0.39968 0.21829 0.29766 0.0
C387 C 0.35312 0.20892 0.33697 0.0
N388 N 0.37213 0.30871 0.32014 0.0
C389 C 0.35135 0.2735 0.33919 0.0
O390 O 0.34696 0.06469 0.2574 0.0
C391 C 0.30604 0.06297 0.27438 0.0
O392 O 0.3212 0.06593 0.29699 0.0
H393 H 0.42007 0.19684 0.28154 0.0
H394 H 0.33861 0.1797 0.3521 0.0
C395 C 0.41107 0.93611 0.25006 0.0
C396 C 0.41611 0.87313 0.2449 0.0
C397 C 0.5172 0.88997 0.2297 0.0
C398 C 0.51122 0.95315 0.2345 0.0
N399 N 0.4581 0.97474 0.2446 0.0
N400 N 0.46934 0.85148 0.23476 0.0
H401 H 0.36907 0.95468 0.25761 0.0
C402 C 0.36154 1.00591 0.35538 0.0
O403 O 0.32281 0.9828 0.33912 0.0
O404 O 0.45472 0.10384 0.21783 0.0
H405 H 0.54804 0.98466 0.22993 0.0
H406 H 0.40965 0.31124 0.28399 0.0
H407 H 0.55908 0.87182 0.22165 0.0
Zn408 Zn 0.30908 0.40256 0.50831 0.0
C409 C 0.33604 0.31936 0.44283 0.0
N410 N 0.32545 0.26633 0.45453 0.0
C411 C 0.32426 0.28295 0.47847 0.0
N412 N 0.33333 0.3455 0.48132 0.0
N413 N 0.34172 0.36746 0.45854 0.0
C414 C 0.26838 0.45906 0.40544 0.0
O415 O 0.22808 0.45553 0.42346 0.0
O416 O 0.33942 0.38629 0.54315 0.0
Zn417 Zn 0.36212 0.45044 0.44573 0.0
N418 N 0.22217 0.39152 0.51093 0.0
C419 C 0.13206 0.33764 0.52336 0.0
C420 C 0.196 0.33992 0.52054 0.0
C421 C 0.18755 0.44025 0.50381 0.0
N422 N 0.09747 0.38744 0.51683 0.0
C423 C 0.12391 0.4387 0.50688 0.0
O424 O 0.33901 0.52765 0.4647 0.0
C425 C 0.32729 0.54102 0.48707 0.0
O426 O 0.31928 0.49849 0.50316 0.0
H427 H 0.2245 0.30167 0.5264 0.0
H428 H 0.20971 0.48113 0.49681 0.0
C429 C 0.4747 0.47938 0.42181 0.0
C430 C 0.53864 0.47845 0.41801 0.0
C431 C 0.55213 0.43506 0.45787 0.0
C432 C 0.48827 0.43473 0.46131 0.0
N433 N 0.45087 0.45588 0.44298 0.0
N434 N 0.57582 0.45554 0.4361 0.0
H435 H 0.44374 0.49454 0.40732 0.0
C436 C 0.37951 0.42161 0.55294 0.0
O437 O 0.41392 0.45595 0.53852 0.0
O438 O 0.32564 0.45847 0.41077 0.0
H439 H 0.46856 0.41663 0.47817 0.0
H440 H 0.1103 0.29725 0.53119 0.0
H441 H 0.5825 0.41751 0.47211 0.0
Zn442 Zn 0.90159 0.11496 0.19643 0.0
C443 C 0.06391 0.07048 0.23167 0.0
N444 N 0.08249 0.07742 0.20819 0.0
C445 C 1.03026 0.08939 0.19618 0.0
N446 N 0.98111 0.09113 0.21119 0.0
N447 N 1.00128 0.079 0.23397 0.0
C448 C 0.9136 0.14444 0.30041 0.0
O449 O 0.87416 0.16463 0.28384 0.0
O450 O 0.89286 0.07281 0.16251 0.0
Zn451 Zn 0.94243 0.06162 0.261 0.0
N452 N 0.90628 0.2024 0.18946 0.0
C453 C 0.93716 0.30493 0.19964 0.0
C454 C 0.9296 0.24298 0.20627 0.0
C455 C 0.88887 0.22146 0.16657 0.0
N456 N 0.92105 0.32367 0.17649 0.0
C457 C 0.89659 0.28335 0.15983 0.0
O458 O 0.84705 0.06978 0.25289 0.0
C459 C 0.80619 0.08348 0.23666 0.0
O460 O 0.82185 0.10069 0.21513 0.0
H461 H 0.94358 0.22702 0.22438 0.0
H462 H 0.87075 0.18832 0.15343 0.0
C463 C 0.90558 0.93957 0.26373 0.0
C464 C 0.90899 0.87635 0.26831 0.0
C465 C 1.01023 0.88972 0.28398 0.0
C466 C 1.00663 0.95298 0.27904 0.0
N467 N 0.95426 0.9763 0.26888 0.0
N468 N 0.96123 0.85281 0.27863 0.0
H469 H 0.86389 0.95983 0.25658 0.0
C470 C 0.88079 1.01685 0.15696 0.0
O471 O 0.87155 0.97696 0.17483 0.0
O472 O 0.95574 0.10725 0.29357 0.0
H473 H 1.04474 0.98313 0.28347 0.0
H474 H 0.95647 0.33767 0.21267 0.0
H475 H 0.05141 0.87019 0.29213 0.0
Zn476 Zn 0.28544 0.69964 0.00892 0.0
C477 C 0.26169 0.78867 0.94327 0.0
N478 N 0.26053 0.83983 0.9571 0.0
C479 C 0.26175 0.81941 0.98042 0.0
N480 N 0.26315 0.75607 0.98121 0.0
N481 N 0.26222 0.737 0.95764 0.0
C482 C 0.3325 0.59757 0.90468 0.0
O483 O 0.33139 0.5453 0.91694 0.0
O484 O 0.24501 0.71288 0.04283 0.0
Zn485 Zn 0.25072 0.65155 0.9446 0.0
N486 N 0.3712 0.71437 0.01408 0.0
C487 C 0.45874 0.76421 0.03147 0.0
C488 C 0.39518 0.76234 0.02716 0.0
C489 C 0.40765 0.6696 0.00465 0.0
N490 N 0.49487 0.7172 0.02308 0.0
C491 C 0.47057 0.66997 0.00953 0.0
O492 O 0.27036 0.57524 0.9644 0.0
C493 C 0.2782 0.56121 0.9869 0.0
O494 O 0.28173 0.60323 1.00347 0.0
H495 H 0.36526 0.79779 0.03457 0.0
H496 H 0.38712 0.63185 0.99458 0.0
C497 C 0.13755 0.61348 0.91936 0.0
C498 C 0.07471 0.62093 0.91388 0.0
C499 C 0.06185 0.6777 0.951 0.0
C500 C 0.125 0.67367 0.95557 0.0
N501 N 0.16198 0.64344 0.93924 0.0
N502 N 1.03852 0.65313 0.92985 0.0
H503 H 0.16782 0.58974 0.90659 0.0
C504 C 0.20981 0.6698 0.05047 0.0
O505 O 0.18831 0.62999 0.03424 0.0
O506 O 0.30274 0.64373 0.91307 0.0
H507 H 0.14473 0.69611 0.97162 0.0
H508 H 0.47886 0.8016 0.04204 0.0
H509 H 1.03209 0.70266 0.96357 0.0
Zn510 Zn 0.66357 1.0385 0.75997 0.0
C511 C 0.5777 1.01105 0.69451 0.0
N512 N 0.52539 1.02356 0.70643 0.0
C513 C 0.54323 1.02779 0.73018 0.0
N514 N 0.60572 1.01864 0.73269 0.0
N515 N 0.62647 1.00771 0.70991 0.0
C516 C 0.71283 0.08318 0.65701 0.0
O517 O 0.70724 0.12334 0.67512 0.0
O518 O 0.65076 0.99357 0.79261 0.0
Zn519 Zn 0.708 0.98662 0.69645 0.0
N520 N 0.64769 0.12322 0.76725 0.0
C521 C 0.59146 0.20599 0.78533 0.0
C522 C 0.59782 0.14302 0.7802 0.0
C523 C 0.69084 0.16318 0.75906 0.0
N524 N 0.63591 0.24592 0.77774 0.0
C525 C 0.68559 0.22586 0.76462 0.0
O526 O 0.78646 1.00617 0.7152 0.0
C527 C 0.8014 1.02296 0.7369 0.0
O528 O 0.75984 1.03444 0.75308 0.0
H529 H 0.56393 0.11028 0.78668 0.0
H530 H 0.73025 0.14572 0.74907 0.0
C531 C 0.72685 0.87535 0.66981 0.0
C532 C 0.71686 0.81296 0.66434 0.0
C533 C 0.6761 0.7982 0.70453 0.0
C534 C 0.68429 0.86094 0.70965 0.0
N535 N 0.70845 0.89832 0.69198 0.0
N536 N 0.69123 0.77592 0.6818 0.0
H537 H 0.74453 0.90643 0.65586 0.0
C538 C 0.69385 0.95826 0.80013 0.0
O539 O 0.73576 0.9401 0.7842 0.0
O540 O 0.71521 1.0258 0.66214 0.0
H541 H 0.66961 0.88014 0.72717 0.0
H542 H 0.55219 0.22282 0.79565 0.0
H543 H 0.65604 0.76788 0.71821 0.0
C544 C 0.19298 0.08687 0.899 0.0
C545 C 0.20733 0.13121 0.88093 0.0
C546 C 0.1893 0.10237 0.92414 0.0
C547 C 0.20159 0.16276 0.93261 0.0
H548 H 0.18545 1.03922 0.89379 0.0
H549 H 0.1792 0.0657 0.93711 0.0
S550 S 0.24046 0.29699 0.89304 0.0
N551 N 0.23212 0.23918 0.87331 0.0
N552 N 0.22742 0.26776 0.92074 0.0
C553 C 0.21529 0.20799 0.91478 0.0
C554 C 0.21775 0.19239 0.88898 0.0
C555 C 0.75381 0.53914 0.14847 0.0
C556 C 0.74687 0.49243 0.13052 0.0
C557 C 0.72939 0.53253 0.17232 0.0
C558 C 0.69735 0.47887 0.1792 0.0
H559 H 0.77984 0.58051 0.14435 0.0
H560 H 0.7375 0.56884 0.18578 0.0
S561 S 0.65772 0.34738 0.13841 0.0
N562 N 0.69836 0.39403 0.12061 0.0
N563 N 0.65515 0.3807 0.16592 0.0
C564 C 0.688 0.43281 0.16137 0.0
C565 C 0.712 0.43987 0.13689 0.0
C566 C 0.4227 0.98397 0.39378 0.0
C567 C 0.3673 0.97804 0.38049 0.0
C568 C 0.42838 0.96314 0.41826 0.0
C569 C 0.37915 0.93374 0.43031 0.0
H570 H 0.462 1.00498 0.38512 0.0
H571 H 0.47134 0.97112 0.42798 0.0
S572 S 0.22497 0.90206 0.40317 0.0
N573 N 0.26284 0.93755 0.38086 0.0
N574 N 0.27365 0.89683 0.42659 0.0
C575 C 0.32436 0.92417 0.41678 0.0
C576 C 0.3184 0.94645 0.39193 0.0
C577 C 0.92385 0.64802 0.63705 0.0
C578 C 0.86177 0.64349 0.62942 0.0
C579 C 0.94015 0.64931 0.66228 0.0
C580 C 0.89494 0.64757 0.68085 0.0
H581 H 0.96038 0.64981 0.62345 0.0
H582 H 0.98845 0.65155 0.66729 0.0
S583 S 0.72624 0.63172 0.67114 0.0
N584 N 0.75516 0.63445 0.64297 0.0
N585 N 0.7857 0.63837 0.69 0.0
C586 C 0.83278 0.64334 0.67355 0.0
C587 C 0.81623 0.64091 0.64797 0.0
C588 C 0.89299 1.02434 0.08667 0.0
C589 C 0.87616 0.96465 0.07865 0.0
C590 C 0.89393 1.04037 0.11182 0.0
C591 C 0.87939 0.99727 0.13037 0.0
H592 H 0.90392 0.06005 0.07338 0.0
H593 H 0.90593 0.08743 0.11666 0.0
S594 S 0.83481 0.83362 0.11956 0.0
N595 N 0.84573 0.8616 0.09151 0.0
N596 N 0.84909 0.89115 0.13886 0.0
C597 C 0.86388 0.93682 0.12274 0.0
C598 C 0.86204 0.92067 0.09694 0.0
C599 C 0.37353 0.66087 0.8695 0.0
C600 C 0.36443 0.60244 0.88033 0.0
C601 C 0.39509 0.66704 0.84515 0.0
C602 C 0.41114 0.61502 0.83097 0.0
H603 H 0.36272 0.70232 0.87976 0.0
H604 H 0.3981 0.71283 0.83721 0.0
S605 S 0.40286 0.45159 0.85135 0.0
N606 N 0.37746 0.49148 0.87533 0.0
N607 N 0.42059 0.50312 0.83006 0.0
C608 C 0.40659 0.55646 0.84212 0.0
C609 C 0.38295 0.55012 0.86671 0.0
C610 C 0.70467 0.05934 0.61174 0.0
C611 C 0.71231 0.10353 0.63063 0.0
C612 C 0.7033 0.07628 0.58674 0.0
C613 C 0.71139 0.13806 0.57933 0.0
H614 H 0.69978 1.01088 0.61621 0.0
H615 H 0.69796 1.03997 0.57307 0.0
S616 S 0.73223 0.27233 0.6212 0.0
N617 N 0.72625 0.2127 0.64006 0.0
N618 N 0.72628 0.24396 0.59289 0.0
C619 C 0.71889 0.18298 0.59791 0.0
C620 C 0.71877 0.16589 0.62355 0.0
C621 C 0.27389 0.44829 0.33509 0.0
C622 C 0.2123 0.45787 0.32769 0.0
C623 C 0.29136 0.44987 0.36008 0.0
C624 C 0.24789 0.45932 0.37901 0.0
H625 H 0.30965 0.44125 0.32142 0.0
H626 H 0.33959 0.44334 0.36454 0.0
S627 S 0.08004 0.48501 0.36968 0.0
N628 N 0.10752 0.47704 0.34137 0.0
N629 N 0.1397 0.47753 0.38846 0.0
C630 C 0.1858 0.46787 0.37193 0.0
C631 C 0.1682 0.46769 0.34631 0.0
C632 C 0.70893 0.55067 0.39695 0.0
C633 C 0.71091 0.59524 0.37806 0.0
C634 C 0.70771 0.5676 0.42198 0.0
C635 C 0.71041 0.62993 0.42941 0.0
H636 H 0.70838 0.50192 0.39247 0.0
H637 H 0.70677 0.53106 0.43563 0.0
S638 S 0.7162 0.76522 0.38756 0.0
N639 N 0.71427 0.70515 0.36868 0.0
N640 N 0.7148 0.73665 0.41587 0.0
C641 C 0.71258 0.6752 0.41083 0.0
C642 C 0.71222 0.65798 0.38518 0.0
C643 C 0.18884 0.95405 0.63949 0.0
C644 C 0.25106 0.96098 0.63242 0.0
C645 C 0.1713 0.95311 0.66456 0.0
C646 C 0.21543 0.95748 0.68353 0.0
H647 H 0.15317 0.94943 0.62557 0.0
H648 H 0.12295 0.94845 0.66913 0.0
S649 S 0.38378 0.98064 0.67533 0.0
N650 N 0.35634 0.97623 0.64688 0.0
N651 N 0.32372 0.97193 0.69366 0.0
C652 C 0.27769 0.96463 0.67679 0.0
C653 C 0.29539 0.96706 0.65136 0.0
C654 C 0.87211 0.42381 0.91113 0.0
C655 C 0.87585 0.46891 0.92986 0.0
C656 C 0.87508 0.43999 0.88597 0.0
C657 C 0.8808 0.50207 0.87849 0.0
H658 H 0.86652 0.37561 0.91596 0.0
H659 H 0.87211 0.40348 0.87228 0.0
S660 S 0.8888 0.63846 0.92035 0.0
N661 N 0.88402 0.57871 0.93914 0.0
N662 N 0.88867 0.60908 0.89217 0.0
C663 C 0.88436 0.54767 0.89711 0.0
C664 C 0.88219 0.53112 0.92267 0.0
C665 C 0.42465 0.14881 0.14068 0.0
C666 C 0.36283 0.14345 0.13279 0.0
C667 C 0.44048 0.14835 0.16597 0.0
C668 C 0.395 0.1443 0.18437 0.0
H669 H 0.46133 0.15307 0.12725 0.0
H670 H 0.48861 0.15157 0.17116 0.0
S671 S 0.22661 0.12663 0.17394 0.0
N672 N 0.25621 0.13066 0.14589 0.0
N673 N 0.28566 0.13299 0.19305 0.0
C674 C 0.33306 0.13919 0.17681 0.0
C675 C 0.31708 0.13789 0.15115 0.0
C676 C 0.3057 0.4926 0.6097 0.0
C677 C 0.35524 0.49847 0.62642 0.0
C678 C 0.31342 0.46461 0.58644 0.0
C679 C 0.37102 0.44154 0.57892 0.0
H680 H 0.26083 0.51124 0.61429 0.0
H681 H 0.27452 0.46328 0.57385 0.0
S682 S 0.51266 0.43529 0.61691 0.0
N683 N 0.46223 0.47132 0.63473 0.0
N684 N 0.47669 0.42076 0.5906 0.0
C685 C 0.42031 0.44483 0.59564 0.0
C686 C 0.41242 0.47268 0.6195 0.0
C687 C 0.94344 0.15502 0.34522 0.0
C688 C 0.89754 0.14868 0.32702 0.0
C689 C 0.92856 0.1541 0.37056 0.0
C690 C 0.86741 0.14523 0.37866 0.0
H691 H 0.99116 0.16057 0.33983 0.0
H692 H 0.96551 0.15952 0.38388 0.0
S693 S 0.73096 0.12101 0.33801 0.0
N694 N 0.78882 0.13108 0.31869 0.0
N695 N 0.76112 0.12728 0.36595 0.0
C696 C 0.82126 0.1381 0.36047 0.0
C697 C 0.83624 0.14036 0.33477 0.0
C698 C 0.19761 0.59224 0.08431 0.0
C699 C 0.20629 0.6543 0.07732 0.0
C700 C 0.20031 0.57387 0.10915 0.0
C701 C 0.2096 0.61676 0.12837 0.0
H702 H 0.19081 0.55674 0.07041 0.0
H703 H 0.19573 0.5253 0.11322 0.0
S704 S 0.23444 0.78536 0.12017 0.0
N705 N 0.22548 0.75886 0.0917 0.0
N706 N 0.22772 0.7249 0.13855 0.0
C707 C 0.21748 0.67931 0.12173 0.0
C708 C 0.21639 0.69787 0.09623 0.0
C709 C 0.78356 0.94578 0.86022 0.0
C710 C 0.73871 0.95537 0.87862 0.0
C711 C 0.7678 0.94336 0.83509 0.0
C712 C 0.70662 0.95209 0.82706 0.0
H713 H 0.83162 0.9402 0.86519 0.0
H714 H 0.80458 0.93688 0.82181 0.0
S715 S 0.57093 0.97653 0.86753 0.0
N716 N 0.62953 0.97088 0.88694 0.0
N717 N 0.60046 0.96871 0.83956 0.0
C718 C 0.66101 0.96086 0.84518 0.0
C719 C 0.6769 0.96202 0.87093 0.0
C720 C 0.2434 0.27095 0.13267 0.0
C721 C 0.28888 0.30404 0.14551 0.0
C722 C 0.24619 0.26351 0.10699 0.0
C723 C 0.29737 0.28371 0.09357 0.0
H724 H 0.20271 0.25559 0.14224 0.0
H725 H 0.20674 0.2449 0.0975 0.0
S726 S 0.4335 0.36554 0.11913 0.0
N727 N 0.38846 0.35449 0.14334 0.0
N728 N 0.39727 0.33437 0.09525 0.0
C729 C 0.34566 0.31285 0.1065 0.0
C730 C 0.34108 0.32361 0.13249 0.0
C731 C 0.5985 0.44786 0.35413 0.0
C732 C 0.57909 0.50028 0.34114 0.0
C733 C 0.59355 0.44505 0.37996 0.0
C734 C 0.56322 0.49201 0.39319 0.0
H735 H 0.61368 0.40744 0.34424 0.0
H736 H 0.60841 0.40339 0.38928 0.0
S737 S 0.5099 0.64169 0.36805 0.0
N738 N 0.53583 0.60358 0.34368 0.0
N739 N 0.52004 0.59535 0.39196 0.0
C740 C 0.54618 0.54588 0.38057 0.0
C741 C 0.55459 0.55021 0.35452 0.0
C742 C 0.26537 0.79773 0.60605 0.0
C743 C 0.31893 0.82207 0.59504 0.0
C744 C 0.26285 0.78562 0.63155 0.0
C745 C 0.31343 0.7988 0.64685 0.0
H746 H 0.22641 0.78468 0.59462 0.0
H747 H 0.22261 0.76291 0.63908 0.0
S748 S 0.46452 0.85885 0.62729 0.0
N749 N 0.42439 0.85449 0.60138 0.0
N750 N 0.41769 0.83753 0.64961 0.0
C751 C 0.36564 0.82625 0.63636 0.0
C752 C 0.36914 0.83605 0.61031 0.0
C753 C 1.04378 0.54458 0.88135 0.0
C754 C 0.05141 0.60616 0.88899 0.0
C755 C 1.03058 0.53054 0.8565 0.0
C756 C 1.0243 0.57781 0.83888 0.0
H757 H 0.04991 0.50728 0.89445 0.0
H758 H 1.02691 0.48262 0.85089 0.0
S759 S 0.05275 0.74371 0.84849 0.0
N760 N 0.05688 0.71362 0.87654 0.0
N761 N 1.03612 0.68605 0.82979 0.0
C762 C 1.03307 0.63885 0.84623 0.0
C763 C 1.0452 0.65338 0.8714 0.0
C764 C 0.8069 0.79998 0.87639 0.0
C765 C 0.86869 0.80489 0.86885 0.0
C766 C 0.79027 0.80991 0.90116 0.0
C767 C 0.83514 0.82434 0.91902 0.0
H768 H 0.77161 0.78689 0.86318 0.0
H769 H 0.74247 0.80481 0.90651 0.0
S770 S 1.00299 0.82876 0.90991 0.0
N771 N 0.97445 0.82124 0.88173 0.0
N772 N 0.94334 0.8322 0.92858 0.0
C773 C 0.89668 0.8272 0.91194 0.0
C774 C 0.9134 0.81968 0.88669 0.0
C775 C 0.59312 0.55874 0.63533 0.0
C776 C 0.55933 0.5889 0.61679 0.0
C777 C 0.57706 0.56498 0.66023 0.0
C778 C 0.52851 0.60398 0.66775 0.0
H779 H 0.63299 0.53103 0.63061 0.0
H780 H 0.60488 0.54097 0.67382 0.0
S781 S 0.42574 0.69112 0.62581 0.0
N782 N 0.47183 0.65339 0.60701 0.0
N783 N 0.44798 0.67362 0.65421 0.0
C784 C 0.49413 0.63362 0.64929 0.0
C785 C 0.50782 0.62364 0.62373 0.0
C786 C 0.68368 0.25374 0.38196 0.0
C787 C 0.73138 0.28088 0.36811 0.0
C788 C 0.69058 0.24363 0.40749 0.0
C789 C 0.7455 0.25988 0.41962 0.0
H790 H 0.63958 0.24398 0.37337 0.0
H791 H 0.65173 0.22649 0.41798 0.0
S792 S 0.8865 0.3239 0.39103 0.0
N793 N 0.83726 0.31712 0.36785 0.0
N794 N 0.84972 0.29912 0.41582 0.0
C795 C 0.79449 0.28351 0.4057 0.0
C796 C 0.78767 0.29348 0.37986 0.0
C797 C 1.00849 0.54972 0.13253 0.0
C798 C 1.03569 0.50815 0.11588 0.0
C799 C 1.0261 0.55065 0.15747 0.0
C800 C 0.07001 0.5087 0.16687 0.0
H801 H 0.97201 0.58029 0.12641 0.0
H802 H 1.00265 0.58238 0.16981 0.0
S803 S 0.15512 0.3925 0.13023 0.0
N804 N 0.11295 0.42914 0.10963 0.0
N805 N 0.13858 0.42388 0.15728 0.0
C806 C 0.09797 0.46782 0.15023 0.0
C807 C 0.08279 0.46954 0.12453 0.0
C808 C 0.79469 0.78308 0.60313 0.0
C809 C 0.74482 0.76741 0.58776 0.0
C810 C 0.78602 0.79413 0.62843 0.0
C811 C 0.72712 0.79014 0.63902 0.0
H812 H 0.84031 0.78879 0.59535 0.0
H813 H 0.82514 0.808 0.63962 0.0
S814 S 0.58133 0.75752 0.60598 0.0
N815 N 0.63457 0.7531 0.5843 0.0
N816 N 0.6181 0.77186 0.63215 0.0
C817 C 0.67712 0.77361 0.62389 0.0
C818 C 0.68597 0.76307 0.59809 0.0
C819 C 1.04658 0.05649 0.85517 0.0
C820 C 0.08113 1.01093 0.8428 0.0
C821 C 1.03213 1.05073 0.88034 0.0
C822 C 0.05281 0.99976 0.89409 0.0
H823 H 1.02755 0.09507 0.84496 0.0
H824 H 1.0024 0.0849 0.88883 0.0
S825 S 0.14428 0.86867 0.87049 0.0
N826 N 0.13289 0.91234 0.84592 0.0
N827 N 0.11319 0.90566 0.89402 0.0
C828 C 0.09091 0.95634 0.88234 0.0
C829 C 0.10309 0.96071 0.85644 0.0
C830 C 0.81897 0.29725 0.12638 0.0
C831 C 0.88003 0.30359 0.13466 0.0
C832 C 0.80364 0.30729 0.10151 0.0
C833 C 0.84887 0.32422 0.08432 0.0
H834 H 0.7834 0.28235 0.13906 0.0
H835 H 0.75662 0.29973 0.09547 0.0
S836 S 1.01598 0.33375 0.09545 0.0
N837 N 0.98621 0.32251 0.12318 0.0
N838 N 0.95734 0.33716 0.07612 0.0
C839 C 0.90994 0.3289 0.09213 0.0
C840 C 0.92549 0.32002 0.11748 0.0
C841 C 0.59914 1.02875 0.37617 0.0
C842 C 0.57204 0.06742 0.39391 0.0
C843 C 0.58203 1.03277 0.35123 0.0
C844 C 0.53852 0.07667 0.34301 0.0
H845 H 0.63506 0.99663 0.3815 0.0
H846 H 0.60531 1.00308 0.33805 0.0
S847 S 0.45352 0.18554 0.38305 0.0
N848 N 0.49727 0.147 0.40246 0.0
N849 N 0.46969 0.15928 0.3551 0.0
C850 C 0.51105 0.11493 0.36078 0.0
C851 C 0.5267 0.10908 0.38635 0.0
C852 C 0.28435 0.30446 0.40229 0.0
C853 C 0.33707 0.3223 0.41571 0.0
C854 C 0.28731 0.29344 0.37671 0.0
C855 C 0.34285 0.30122 0.36384 0.0
H856 H 0.24142 0.29578 0.41186 0.0
H857 H 0.24698 0.2758 0.36721 0.0
S858 S 0.49421 0.33944 0.39089 0.0
N859 N 0.44685 0.34019 0.41469 0.0
N860 N 0.45126 0.32694 0.36619 0.0
C861 C 0.39481 0.32223 0.37684 0.0
C862 C 0.39239 0.33048 0.40299 0.0
C863 C 1.02695 0.0627 0.15159 0.0
C864 C 1.0306 0.1077 0.17027 0.0
C865 C 1.03935 0.0779 0.12691 0.0
C866 C 0.05715 0.13806 0.12052 0.0
H867 H 1.01658 1.01519 0.15623 0.0
H868 H 1.03761 1.04197 0.11294 0.0
S869 S 0.08291 0.26889 0.1636 0.0
N870 N 0.058 0.21243 0.18135 0.0
N871 N 0.08388 0.24069 0.13513 0.0
C872 C 0.06239 0.18279 0.1392 0.0
C873 C 1.04866 0.16758 0.16412 0.0
C874 C 0.31807 0.84314 0.90979 0.0
C875 C 0.27779 0.79463 0.91648 0.0
C876 C 0.32699 0.86013 0.88504 0.0
C877 C 0.29813 0.82755 0.8658 0.0
H878 H 0.34064 0.87064 0.92392 0.0
H879 H 0.35444 0.90063 0.881 0.0
S880 S 0.19665 0.69228 0.87218 0.0
N881 N 0.20955 0.71501 0.90091 0.0
N882 N 0.23582 0.73951 0.85442 0.0
C883 C 0.26311 0.77552 0.87188 0.0
C884 C 0.25017 0.76114 0.89717 0.0
C885 C 0.5949 0.95086 0.65574 0.0
C886 C 0.57973 1.00671 0.66738 0.0
C887 C 0.58818 0.94367 0.6301 0.0
C888 C 0.56151 0.99056 0.61566 0.0
H889 H 0.60759 0.9112 0.66666 0.0
H890 H 0.59828 0.89912 0.62193 0.0
S891 S 0.5189 0.1474 0.63706 0.0
N892 N 0.54284 0.1118 0.66232 0.0
N893 N 0.52544 0.09664 0.61434 0.0
C894 C 0.5485 1.04751 0.62692 0.0
C895 C 0.55787 0.05565 0.65281 0.0
C896 C 0.53686 1.02683 0.02517 0.0
C897 C 0.56957 0.99514 0.00675 0.0
C898 C 0.50742 0.0827 0.01993 0.0
C899 C 0.50946 0.10849 0.99604 0.0
H900 H 0.53562 1.00936 0.04394 0.0
H901 H 0.48289 0.10593 0.03471 0.0
S902 S 0.58562 1.04116 0.94099 0.0
N903 N 0.60007 0.99165 0.96345 0.0
N904 N 0.54468 0.09712 0.95366 0.0
C905 C 0.54159 0.07698 0.97742 0.0
C906 C 0.57137 1.01998 0.98272 0.0
C907 C 0.78169 0.76032 0.27819 0.0
C908 C 0.74428 0.76878 0.25716 0.0
C909 C 0.83621 0.79392 0.28126 0.0
C910 C 0.85499 0.8369 0.2634 0.0
H911 H 0.76859 0.72765 0.29239 0.0
H912 H 0.86304 0.78725 0.29797 0.0
S913 S 0.77606 0.87124 0.20392 0.0
N914 N 0.73106 0.8205 0.2177 0.0
N915 N 0.83449 0.88246 0.223 0.0
C916 C 0.8187 0.84452 0.24198 0.0
C917 C 0.7629 0.81096 0.23904 0.0
C918 C 0.06274 0.08114 0.52496 0.0
C919 C 1.02123 0.1021 0.50695 0.0
C920 C 0.0948 1.02576 0.52167 0.0
C921 C 0.0868 0.9898 0.50014 0.0
H922 H 0.06893 0.10661 0.54207 0.0
H923 H 0.12574 1.01077 0.53623 0.0
S924 S 0.98618 1.02692 0.44674 0.0
N925 N 0.9758 0.08465 0.4663 0.0
N926 N 1.03602 0.98013 0.46021 0.0
C927 C 1.04596 1.01069 0.48185 0.0
C928 C 1.01347 0.06718 0.48515 0.0
C929 C 0.76548 0.26275 0.73499 0.0
C930 C 0.73633 0.26796 0.75816 0.0
C931 C 0.81856 0.29666 0.7296 0.0
C932 C 0.84397 0.3372 0.74714 0.0
H933 H 0.74735 0.23188 0.72095 0.0
H934 H 0.83923 0.29188 0.71146 0.0
S935 S 0.78681 0.36507 0.81093 0.0
N936 N 0.73739 0.31539 0.79892 0.0
N937 N 0.83774 0.37886 0.78898 0.0
C938 C 0.81537 0.34275 0.77041 0.0
C939 C 0.76116 0.30843 0.77582 0.0
C940 C 0.27328 0.30526 0.72605 0.0
C941 C 0.25761 0.26183 0.74418 0.0
C942 C 0.32858 0.33823 0.72766 0.0
C943 C 0.36977 0.32874 0.74747 0.0
H944 H 0.24299 0.31327 0.71043 0.0
H945 H 0.33888 0.37193 0.71347 0.0
S946 S 0.34791 0.22295 0.8005 0.0
N947 N 0.28588 0.21327 0.78322 0.0
N948 N 0.39043 0.27434 0.78585 0.0
C949 C 0.35464 0.28534 0.76566 0.0
C950 C 0.29819 0.25234 0.76419 0.0
C951 C 0.26978 0.80722 0.27256 0.0
C952 C 0.25272 0.76204 0.25523 0.0
C953 C 0.32393 0.84132 0.26958 0.0
C954 C 0.36261 0.83208 0.24895 0.0
H955 H 0.24185 0.81528 0.28885 0.0
H956 H 0.33557 0.87514 0.28363 0.0
S957 S 0.33657 0.72134 0.19758 0.0
N958 N 0.2773 0.71118 0.21622 0.0
N959 N 0.37933 0.77532 0.21071 0.0
C960 C 0.346 0.78704 0.23147 0.0
C961 C 0.2908 0.75228 0.23449 0.0
C962 C 1.01561 0.57209 0.51711 0.0
C963 C 1.02267 0.60745 0.49544 0.0
C964 C 1.04704 0.51637 0.52021 0.0
C965 C 0.08739 0.49458 0.50196 0.0
H966 H 0.98487 0.58718 0.5317 0.0
H967 H 1.04057 0.49076 0.53721 0.0
S968 S 0.1227 0.56986 0.44201 0.0
N969 N 0.07332 0.61697 0.45558 0.0
N970 N 0.13305 0.51211 0.46147 0.0
C971 C 0.09587 0.5299 0.4804 0.0
C972 C 0.06366 0.58662 0.47721 0.0
C973 C 0.56921 0.52867 0.01787 0.0
C974 C 0.56411 0.4985 0.99483 0.0
C975 C 0.54147 0.586 0.02198 0.0
C976 C 0.50717 0.61485 1.00329 0.0
H977 H 0.59536 0.50798 0.03281 0.0
H978 H 0.54541 0.60699 0.04014 0.0
S979 S 0.48165 0.55638 0.93946 0.0
N980 N 0.52347 0.50229 0.95295 0.0
N981 N 0.47088 0.61034 0.96066 0.0
C982 C 0.50172 0.58535 0.98014 0.0
C983 C 0.52996 0.52688 0.97597 0.0
C984 C 0.22587 0.89287 0.01333 0.0
C985 C 0.27515 0.86639 1.00003 0.0
C986 C 0.22777 0.95507 0.02167 0.0
C987 C 0.27798 0.99428 0.01619 0.0
H988 H 0.18345 0.86713 0.01549 0.0
H989 H 0.18784 0.97377 0.03107 0.0
S990 S 0.42085 0.94661 0.98395 0.0
N991 N 0.3781 0.88357 0.98404 0.0
N992 N 0.38023 1.00003 0.99847 0.0
C993 C 0.32874 0.9675 0.00419 0.0
C994 C 0.32773 0.90386 0.99657 0.0
C995 C 0.95515 0.57139 0.24511 0.0
C996 C 0.99654 0.52239 0.25022 0.0
C997 C 0.89262 0.56979 0.25235 0.0
C998 C 0.8684 0.51979 0.26573 0.0
H999 H 0.96977 0.60873 0.23316 0.0
H1000 H 0.86258 0.60723 0.24674 0.0
S1001 S 0.95752 0.38241 0.28625 0.0
N1002 N 1.0084 0.42392 0.27081 0.0
N1003 N 0.89261 0.42234 0.28582 0.0
C1004 C 0.9103 0.47294 0.27284 0.0
C1005 C 0.97373 0.47397 0.26487 0.0
C1006 C 0.27258 0.12619 0.49915 0.0
C1007 C 0.31918 0.10755 0.5156 0.0
C1008 C 0.26902 0.18741 0.49043 0.0
C1009 C 0.3128 0.23303 0.49708 0.0
H1010 H 0.23949 0.09273 0.49235 0.0
H1011 H 0.23446 0.1978 0.47655 0.0
S1012 S 0.44136 0.20959 0.5413 0.0
N1013 N 0.40686 0.14158 0.5402 0.0
N1014 N 0.4021 0.25532 0.52256 0.0
C1015 C 0.35735 0.21606 0.51473 0.0
C1016 C 0.36016 0.15376 0.52417 0.0
C1017 C 0.64599 0.54117 0.74082 0.0
C1018 C 0.60531 0.58822 0.74891 0.0
C1019 C 0.70842 0.53899 0.74821 0.0
C1020 C 0.73334 0.58307 0.76456 0.0
H1021 H 0.63073 0.50875 0.72678 0.0
H1022 H 0.73786 0.50351 0.74044 0.0
S1023 S 0.64667 0.71372 0.7926 0.0
N1024 N 0.59511 0.67884 0.7749 0.0
N1025 N 0.71086 0.67316 0.78996 0.0
C1026 C 0.69231 0.62784 0.7742 0.0
C1027 C 0.62894 0.63077 0.76616 0.0
C1028 C 0.84221 0.16039 0.98076 0.0
C1029 C 0.79712 0.11807 0.98897 0.0
C1030 C 0.84138 0.22312 0.98819 0.0
C1031 C 0.79448 0.24661 1.00354 0.0
H1032 H 0.88105 0.14393 0.97004 0.0
H1033 H 0.88096 0.25165 0.98396 0.0
S1034 S 0.65909 0.15823 0.02589 0.0
N1035 N 0.6999 0.10656 0.01047 0.0
N1036 N 0.69721 0.22398 0.02362 0.0
C1037 C 0.7457 0.20613 0.00943 0.0
C1038 C 0.74744 0.14208 1.00253 0.0
C1039 C 0.1924 0.60055 0.73796 0.0
C1040 C 0.23498 0.55291 0.7433 0.0
C1041 C 0.12977 0.59685 0.74537 0.0
C1042 C 0.10673 0.54452 0.75777 0.0
H1043 H 0.20845 0.64255 0.72924 0.0
H1044 H 0.10083 0.63728 0.74331 0.0
S1045 S 0.1968 0.4032 0.77249 0.0
N1046 N 0.24765 0.44943 0.7594 0.0
N1047 N 0.13081 0.44123 0.7723 0.0
C1048 C 0.14789 0.4945 0.76097 0.0
C1049 C 0.21165 0.49902 0.75414 0.0
C1050 C 0.74393 0.9415 0.48692 0.0
C1051 C 0.79621 0.97726 0.49286 0.0
C1052 C 0.7395 0.87878 0.49393 0.0
C1053 C 0.78765 0.84888 0.50672 0.0
H1054 H 0.70469 0.96314 0.47805 0.0
H1055 H 0.6959 0.85528 0.49134 0.0
S1056 S 0.93766 0.92 0.5236 0.0
N1057 N 0.89945 0.97653 0.50996 0.0
N1058 N 0.8915 0.85934 0.52295 0.0
C1059 C 0.84201 0.88318 0.51084 0.0
C1060 C 0.84618 0.94709 0.50404 0.0
C1061 C 0.45087 0.58008 0.26717 0.0
C1062 C 0.49408 0.5347 0.25975 0.0
C1063 C 0.38968 0.58042 0.25841 0.0
C1064 C 0.36894 0.53642 0.24119 0.0
H1065 H 0.46291 0.61237 0.28175 0.0
H1066 H 0.35774 0.61404 0.2659 0.0
S1067 S 0.46426 0.41207 0.21329 0.0
N1068 N 0.51191 0.44707 0.23268 0.0
N1069 N 0.39817 0.44983 0.21502 0.0
C1070 C 0.41282 0.49423 0.23182 0.0
C1071 C 0.47502 0.49296 0.24129 0.0
C1072 C 0.83334 0.45364 0.49752 0.0
C1073 C 0.79287 0.47654 0.51558 0.0
C1074 C 0.83089 0.39148 0.48978 0.0
C1075 C 0.78671 0.34954 0.49914 0.0
H1076 H 0.86573 0.48449 0.48864 0.0
H1077 H 0.86018 0.37756 0.47453 0.0
S1078 S 0.67297 0.38505 0.54813 0.0
N1079 N 0.71077 0.45059 0.54437 0.0
N1080 N 0.70415 0.33517 0.52863 0.0
C1081 C 0.74858 0.37083 0.51829 0.0
C1082 C 0.75203 0.4339 0.5267 0.0
C1083 C 0.45338 0.09163 0.74246 0.0
C1084 C 0.49487 1.04379 0.74891 0.0
C1085 C 0.39213 0.09326 0.75116 0.0
C1086 C 0.36941 1.04777 0.76722 0.0
H1087 H 0.46675 0.12532 0.72868 0.0
H1088 H 0.36168 0.12909 0.7444 0.0
S1089 S 0.45965 0.91624 0.79228 0.0
N1090 N 0.50884 0.95195 0.77388 0.0
N1091 N 0.39505 0.95664 0.79124 0.0
C1092 C 0.41152 1.00256 0.77553 0.0
C1093 C 0.47383 1.00027 0.76625 0.0
C1094 C 0.74179 0.64034 1.00074 0.0
C1095 C 0.78981 0.61869 0.01586 0.0
C1096 C 0.73892 0.70262 0.99329 0.0
C1097 C 0.78507 0.74594 0.9998 0.0
H1098 H 0.70734 0.60843 0.99383 0.0
H1099 H 0.70362 0.71543 0.98004 0.0
S1100 S 0.91708 0.71436 0.04143 0.0
N1101 N 0.88065 0.64747 0.03966 0.0
N1102 N 0.87718 0.76317 0.02423 0.0
C1103 C 0.83056 0.72601 0.0165 0.0
C1104 C 0.83266 0.66275 0.02471 0.0
C1105 C 0.21776 1.01192 0.25176 0.0
C1106 C 0.2389 0.05842 0.26781 0.0
C1107 C 0.15601 1.0103 0.24361 0.0
C1108 C 0.11258 0.0561 0.25042 0.0
H1109 H 0.24968 0.97759 0.24479 0.0
H1110 H 0.14361 0.97599 0.22984 0.0
S1111 S 0.1436 0.18571 0.29356 0.0
N1112 N 0.20998 0.14838 0.29215 0.0
N1113 N 0.09534 0.14742 0.27547 0.0
C1114 C 0.13225 0.10067 0.26766 0.0
C1115 C 0.19497 0.10144 0.27656 0.0
C1116 C 0.26597 0.68816 0.51764 0.0
C1117 C 0.31168 0.73315 0.51285 0.0
C1118 C 0.27074 0.62698 0.50891 0.0
C1119 C 0.32075 0.6078 0.49433 0.0
H1120 H 0.22846 0.69901 0.53014 0.0
H1121 H 0.23575 0.59394 0.51426 0.0
S1122 S 0.4499 0.70795 0.47395 0.0
N1123 N 0.40698 0.75423 0.49114 0.0
N1124 N 0.41433 0.64046 0.47345 0.0
C1125 C 0.3642 0.65335 0.48755 0.0
C1126 C 0.36001 0.71563 0.49701 0.0
C1127 C 0.71479 1.02764 0.25517 0.0
C1128 C 0.73861 0.07957 0.24288 0.0
C1129 C 0.65269 1.02516 0.26289 0.0
C1130 C 0.61134 0.07498 0.25932 0.0
H1131 H 0.74489 0.98927 0.25959 0.0
H1132 H 0.63845 0.98606 0.27398 0.0
S1133 S 0.64965 0.22058 0.22686 0.0
N1134 N 0.71429 0.18028 0.22568 0.0
N1135 N 0.59919 0.17683 0.24152 0.0
C1136 C 0.63376 0.12567 0.24581 0.0
C1137 C 0.69679 0.1277 0.23737 0.0
C1138 C 0.33975 0.47485 0.00591 0.0
C1139 C 0.28616 0.49448 0.99364 0.0
C1140 C 0.3466 0.41339 0.014 0.0
C1141 C 0.29959 0.3687 0.01088 0.0
H1142 H 0.37606 0.50772 0.00995 0.0
H1143 H 0.38712 0.40214 0.02485 0.0
S1144 S 0.15223 0.39524 0.9778 0.0
N1145 N 0.18772 0.46269 0.97633 0.0
N1146 N 0.19912 0.34841 0.99295 0.0
C1147 C 0.24748 0.38675 0.99717 0.0
C1148 C 0.24107 0.44928 0.98833 0.0
C1149 C 0.8909 0.07504 0.75876 0.0
C1150 C 0.86891 1.02709 0.74354 0.0
C1151 C 0.95278 0.07677 0.76688 0.0
C1152 C 0.99586 1.03 0.76078 0.0
H1153 H 0.85955 0.11065 0.76509 0.0
H1154 H 0.9657 0.1125 0.77998 0.0
S1155 S 0.9628 0.89539 0.72044 0.0
N1156 N 0.89688 0.93363 0.72115 0.0
N1157 N 1.01162 0.93543 0.73764 0.0
C1158 C 0.9753 0.98352 0.74455 0.0
C1159 C 0.91243 0.98239 0.73572 0.0
loop_
_geom_bond_atom_site_label_1
_geom_bond_atom_site_label_2
_geom_bond_distance
_geom_bond_site_symmetry_2
_ccdc_geom_bond_type
Zn0 N4 2.020 . S
Zn0 O8 2.019 1_545 S
Zn0 N10 2.119 . S
Zn0 O18 1.975 1_545 S
C1 N2 1.334 . S
C1 N5 1.336 . S
N2 C1 1.334 . S
N2 C3 1.334 . S
C3 N2 1.334 . S
C3 N4 1.336 . S
N4 Zn0 2.020 . S
N4 C3 1.336 . S
N4 N5 1.354 . S
N5 C1 1.336 . S
N5 N4 1.354 . S
N5 Zn9 2.020 . S
C6 O7 1.244 . S
C6 O30 1.257 . S
O7 C6 1.244 . S
O8 Zn0 2.019 1_565 S
O8 C28 1.257 1_565 S
Zn9 N5 2.020 . S
Zn9 O16 1.975 1_545 S
Zn9 N25 2.119 . S
Zn9 O30 2.019 1_554 S
N10 Zn0 2.119 . S
N10 C12 1.334 . S
N10 C13 1.328 . S
C11 C12 1.391 . S
C11 N14 1.319 1_455 S
C11 H32 0.930 . S
C12 N10 1.334 . S
C12 C11 1.391 . S
C12 H19 0.930 . S
C13 N10 1.328 . S
C13 C15 1.392 . S
C13 H20 0.930 . S
N14 C11 1.319 1_655 S
N14 C15 1.323 1_655 S
C15 C13 1.392 . S
C15 N14 1.323 1_455 S
O16 Zn9 1.975 1_565 S
O16 C17 1.252 . S
C17 O16 1.252 . S
C17 O18 1.252 . S
O18 Zn0 1.975 1_565 S
O18 C17 1.252 . S
H19 C12 0.930 . S
H20 C13 0.930 . S
C21 C22 1.390 1_556 S
C21 N25 1.290 1_556 S
C21 H27 0.972 . S
C22 C21 1.390 1_554 S
C22 N26 1.345 . S
C23 C24 1.391 . S
C23 N26 1.329 . S
C23 H33 0.931 1_545 S
C24 C23 1.391 . S
C24 N25 1.334 . S
C24 H31 0.930 . S
N25 Zn9 2.119 . S
N25 C21 1.290 1_554 S
N25 C24 1.334 . S
N26 C22 1.345 . S
N26 C23 1.329 . S
H27 C21 0.972 . S
C28 O8 1.257 1_545 S
C28 O29 1.244 . S
O29 C28 1.244 . S
O30 C6 1.257 . S
O30 Zn9 2.019 1_556 S
H31 C24 0.930 . S
H32 C11 0.930 . S
H33 C23 0.931 1_565 S
Zn34 N38 2.020 . S
Zn34 O42 2.019 . S
Zn34 N44 2.119 . S
Zn34 O52 1.975 . S
C35 N36 1.334 . S
C35 N39 1.336 . S
N36 C35 1.334 . S
N36 C37 1.334 . S
C37 N36 1.334 . S
C37 N38 1.336 . S
N38 Zn34 2.020 . S
N38 C37 1.336 . S
N38 N39 1.354 . S
N39 C35 1.336 . S
N39 N38 1.354 . S
N39 Zn43 2.020 . S
C40 O41 1.244 . S
C40 O64 1.257 . S
O41 C40 1.244 . S
O42 Zn34 2.019 . S
O42 C62 1.257 . S
Zn43 N39 2.020 . S
Zn43 O50 1.975 . S
Zn43 N59 2.119 . S
Zn43 O64 2.019 . S
N44 Zn34 2.119 . S
N44 C46 1.334 . S
N44 C47 1.328 . S
C45 C46 1.391 . S
C45 N48 1.329 . S
C45 H66 0.930 . S
C46 N44 1.334 . S
C46 C45 1.391 . S
C46 H53 0.930 . S
C47 N44 1.328 . S
C47 C49 1.392 . S
C47 H54 0.930 . S
N48 C45 1.329 . S
N48 C49 1.331 . S
C49 C47 1.392 . S
C49 N48 1.331 . S
O50 Zn43 1.975 . S
O50 C51 1.252 . S
C51 O50 1.252 . S
C51 O52 1.252 . S
O52 Zn34 1.975 . S
O52 C51 1.252 . S
H53 C46 0.930 . S
H54 C47 0.930 . S
C55 C56 1.392 . S
C55 N59 1.328 . S
C55 H61 0.930 . S
C56 C55 1.392 . S
C56 N60 1.331 . S
C57 C58 1.391 . S
C57 N60 1.329 . S
C57 H67 0.930 . S
C58 C57 1.391 . S
C58 N59 1.334 . S
C58 H65 0.930 . S
N59 Zn43 2.119 . S
N59 C55 1.328 . S
N59 C58 1.334 . S
N60 C56 1.331 . S
N60 C57 1.329 . S
H61 C55 0.930 . S
C62 O42 1.257 . S
C62 O63 1.244 . S
O63 C62 1.244 . S
O64 C40 1.257 . S
O64 Zn43 2.019 . S
H65 C58 0.930 . S
H66 C45 0.930 . S
H67 C57 0.930 . S
Zn68 N72 2.020 . S
Zn68 O76 2.019 . S
Zn68 N78 2.119 . S
Zn68 O86 1.975 1_565 S
C69 N70 1.334 . S
C69 N73 1.336 . S
N70 C69 1.334 . S
N70 C71 1.334 . S
C71 N70 1.334 . S
C71 N72 1.336 . S
N72 Zn68 2.020 . S
N72 C71 1.336 . S
N72 N73 1.354 . S
N73 C69 1.336 . S
N73 N72 1.354 . S
N73 Zn77 2.020 . S
C74 O75 1.244 . S
C74 O98 1.257 1_565 S
O75 C74 1.244 . S
O76 Zn68 2.019 . S
O76 C96 1.257 . S
Zn77 N73 2.020 . S
Zn77 O84 1.975 1_565 S
Zn77 N93 2.119 . S
Zn77 O98 2.019 1_565 S
N78 Zn68 2.119 . S
N78 C80 1.334 . S
N78 C81 1.328 . S
C79 C80 1.391 . S
C79 N82 1.329 . S
C79 H100 0.931 1_565 S
C80 N78 1.334 . S
C80 C79 1.391 . S
C80 H87 0.930 . S
C81 N78 1.328 . S
C81 C83 1.392 . S
C81 H88 0.930 . S
N82 C79 1.329 . S
N82 C83 1.331 . S
C83 C81 1.392 . S
C83 N82 1.331 . S
O84 Zn77 1.975 1_545 S
O84 C85 1.252 . S
C85 O84 1.252 . S
C85 O86 1.252 . S
O86 Zn68 1.975 1_545 S
O86 C85 1.252 . S
H87 C80 0.930 . S
H88 C81 0.930 . S
C89 C90 1.392 . S
C89 N93 1.328 . S
C89 H95 0.930 . S
C90 C89 1.392 . S
C90 N94 1.331 . S
C91 C92 1.391 . S
C91 N94 1.329 . S
C91 H101 0.930 . S
C92 C91 1.391 . S
C92 N93 1.334 . S
C92 H99 0.930 . S
N93 Zn77 2.119 . S
N93 C89 1.328 . S
N93 C92 1.334 . S
N94 C90 1.331 . S
N94 C91 1.329 . S
H95 C89 0.930 . S
C96 O76 1.257 . S
C96 O97 1.244 . S
O97 C96 1.244 . S
O98 C74 1.257 1_545 S
O98 Zn77 2.019 1_545 S
H99 C92 0.930 . S
H100 C79 0.931 1_545 S
H101 C91 0.930 . S
Zn102 N106 2.020 . S
Zn102 O110 2.019 . S
Zn102 N112 2.119 . S
Zn102 O120 1.975 . S
C103 N104 1.334 . S
C103 N107 1.336 . S
N104 C103 1.334 . S
N104 C105 1.334 . S
C105 N104 1.334 . S
C105 N106 1.336 . S
N106 Zn102 2.020 . S
N106 C105 1.336 . S
N106 N107 1.354 . S
N107 C103 1.336 . S
N107 N106 1.354 . S
N107 Zn111 2.020 . S
C108 O109 1.244 . S
C108 O132 1.257 . S
O109 C108 1.244 . S
O110 Zn102 2.019 . S
O110 C130 1.257 . S
Zn111 N107 2.020 . S
Zn111 O118 1.975 . S
Zn111 N127 2.119 . S
Zn111 O132 2.019 . S
N112 Zn102 2.119 . S
N112 C114 1.334 . S
N112 C115 1.328 . S
C113 C114 1.391 . S
C113 N116 1.329 . S
C113 H134 0.930 . S
C114 N112 1.334 . S
C114 C113 1.391 . S
C114 H121 0.930 . S
C115 N112 1.328 . S
C115 C117 1.392 . S
C115 H122 0.930 . S
N116 C113 1.329 . S
N116 C117 1.331 . S
C117 C115 1.392 . S
C117 N116 1.331 . S
O118 Zn111 1.975 . S
O118 C119 1.252 . S
C119 O118 1.252 . S
C119 O120 1.252 . S
O120 Zn102 1.975 . S
O120 C119 1.252 . S
H121 C114 0.930 . S
H122 C115 0.930 . S
C123 C124 1.392 . S
C123 N127 1.328 . S
C123 H129 0.930 . S
C124 C123 1.392 . S
C124 N128 1.331 . S
C125 C126 1.391 . S
C125 N128 1.329 . S
C125 H135 0.930 . S
C126 C125 1.391 . S
C126 N127 1.334 . S
C126 H133 0.930 . S
N127 Zn111 2.119 . S
N127 C123 1.328 . S
N127 C126 1.334 . S
N128 C124 1.331 . S
N128 C125 1.329 . S
H129 C123 0.930 . S
C130 O110 1.257 . S
C130 O131 1.244 . S
O131 C130 1.244 . S
O132 C108 1.257 . S
O132 Zn111 2.019 . S
H133 C126 0.930 . S
H134 C113 0.930 . S
H135 C125 0.930 . S
Zn136 N140 2.020 . S
Zn136 O144 2.019 1_565 S
Zn136 N146 2.119 . S
Zn136 O154 1.975 1_565 S
C137 N138 1.334 . S
C137 N141 1.336 . S
N138 C137 1.334 . S
N138 C139 1.334 . S
C139 N138 1.334 . S
C139 N140 1.336 . S
N140 Zn136 2.020 . S
N140 C139 1.336 . S
N140 N141 1.354 . S
N141 C137 1.336 . S
N141 N140 1.354 . S
N141 Zn145 2.020 . S
C142 O143 1.244 . S
C142 O166 1.257 . S
O143 C142 1.244 . S
O144 Zn136 2.019 1_545 S
O144 C164 1.257 1_545 S
Zn145 N141 2.020 . S
Zn145 O152 1.975 1_565 S
Zn145 N161 2.119 . S
Zn145 O166 2.019 1_556 S
N146 Zn136 2.119 . S
N146 C148 1.334 . S
N146 C149 1.328 . S
C147 C148 1.391 . S
C147 N150 1.319 1_655 S
C147 H168 0.930 . S
C148 N146 1.334 . S
C148 C147 1.391 . S
C148 H155 0.930 . S
C149 N146 1.328 . S
C149 C151 1.392 . S
C149 H156 0.930 . S
N150 C147 1.319 1_455 S
N150 C151 1.323 1_455 S
C151 C149 1.392 . S
C151 N150 1.323 1_655 S
O152 Zn145 1.975 1_545 S
O152 C153 1.252 . S
C153 O152 1.252 . S
C153 O154 1.252 . S
O154 Zn136 1.975 1_545 S
O154 C153 1.252 . S
H155 C148 0.930 . S
H156 C149 0.930 . S
C157 C158 1.390 1_554 S
C157 N161 1.290 1_554 S
C157 H163 0.972 . S
C158 C157 1.390 1_556 S
C158 N162 1.345 . S
C159 C160 1.391 . S
C159 N162 1.329 . S
C159 H169 0.931 1_565 S
C160 C159 1.391 . S
C160 N161 1.334 . S
C160 H167 0.930 . S
N161 Zn145 2.119 . S
N161 C157 1.290 1_556 S
N161 C160 1.334 . S
N162 C158 1.345 . S
N162 C159 1.329 . S
H163 C157 0.972 . S
C164 O144 1.257 1_565 S
C164 O165 1.244 . S
O165 C164 1.244 . S
O166 C142 1.257 . S
O166 Zn145 2.019 1_554 S
H167 C160 0.930 . S
H168 C147 0.930 . S
H169 C159 0.931 1_545 S
Zn170 N174 2.020 . S
Zn170 O178 2.019 . S
Zn170 N180 2.119 . S
Zn170 O188 1.975 . S
C171 N172 1.334 . S
C171 N175 1.336 . S
N172 C171 1.334 . S
N172 C173 1.334 . S
C173 N172 1.334 . S
C173 N174 1.336 . S
N174 Zn170 2.020 . S
N174 C173 1.336 . S
N174 N175 1.354 . S
N175 C171 1.336 . S
N175 N174 1.354 . S
N175 Zn179 2.020 . S
C176 O177 1.244 . S
C176 O200 1.257 . S
O177 C176 1.244 . S
O178 Zn170 2.019 . S
O178 C198 1.257 . S
Zn179 N175 2.020 . S
Zn179 O186 1.975 . S
Zn179 N195 2.119 . S
Zn179 O200 2.019 . S
N180 Zn170 2.119 . S
N180 C182 1.334 . S
N180 C183 1.328 . S
C181 C182 1.391 . S
C181 N184 1.329 . S
C181 H202 0.930 . S
C182 N180 1.334 . S
C182 C181 1.391 . S
C182 H189 0.930 . S
C183 N180 1.328 . S
C183 C185 1.392 . S
C183 H190 0.930 . S
N184 C181 1.329 . S
N184 C185 1.331 . S
C185 C183 1.392 . S
C185 N184 1.331 . S
O186 Zn179 1.975 . S
O186 C187 1.252 . S
C187 O186 1.252 . S
C187 O188 1.252 . S
O188 Zn170 1.975 . S
O188 C187 1.252 . S
H189 C182 0.930 . S
H190 C183 0.930 . S
C191 C192 1.392 . S
C191 N195 1.328 . S
C191 H197 0.930 . S
C192 C191 1.392 . S
C192 N196 1.331 . S
C193 C194 1.391 . S
C193 N196 1.329 . S
C193 H203 0.930 . S
C194 C193 1.391 . S
C194 N195 1.334 . S
C194 H201 0.930 . S
N195 Zn179 2.119 . S
N195 C191 1.328 . S
N195 C194 1.334 . S
N196 C192 1.331 . S
N196 C193 1.329 . S
H197 C191 0.930 . S
C198 O178 1.257 . S
C198 O199 1.244 . S
O199 C198 1.244 . S
O200 C176 1.257 . S
O200 Zn179 2.019 . S
H201 C194 0.930 . S
H202 C181 0.930 . S
H203 C193 0.930 . S
Zn204 N208 2.020 . S
Zn204 O212 2.019 1_545 S
Zn204 N214 2.119 . S
Zn204 O222 1.975 1_545 S
C205 N206 1.334 . S
C205 N209 1.336 . S
N206 C205 1.334 . S
N206 C207 1.334 . S
C207 N206 1.334 . S
C207 N208 1.336 . S
N208 Zn204 2.020 . S
N208 C207 1.336 . S
N208 N209 1.354 . S
N209 C205 1.336 . S
N209 N208 1.354 . S
N209 Zn213 2.020 . S
C210 O211 1.244 . S
C210 O234 1.257 . S
O211 C210 1.244 . S
O212 Zn204 2.019 1_565 S
O212 C232 1.257 1_565 S
Zn213 N209 2.020 . S
Zn213 O220 1.975 1_545 S
Zn213 N229 2.119 . S
Zn213 O234 2.019 . S
N214 Zn204 2.119 . S
N214 C216 1.334 . S
N214 C217 1.328 . S
C215 C216 1.391 . S
C215 N218 1.329 . S
C215 H236 0.930 . S
C216 N214 1.334 . S
C216 C215 1.391 . S
C216 H223 0.930 . S
C217 N214 1.328 . S
C217 C219 1.392 . S
C217 H224 0.930 . S
N218 C215 1.329 . S
N218 C219 1.331 . S
C219 C217 1.392 . S
C219 N218 1.331 . S
O220 Zn213 1.975 1_565 S
O220 C221 1.252 . S
C221 O220 1.252 . S
C221 O222 1.252 . S
O222 Zn204 1.975 1_565 S
O222 C221 1.252 . S
H223 C216 0.930 . S
H224 C217 0.930 . S
C225 C226 1.392 . S
C225 N229 1.328 . S
C225 H231 0.930 . S
C226 C225 1.392 . S
C226 N230 1.331 . S
C227 C228 1.391 . S
C227 N230 1.329 . S
C227 H237 0.931 1_545 S
C228 C227 1.391 . S
C228 N229 1.334 . S
C228 H235 0.930 . S
N229 Zn213 2.119 . S
N229 C225 1.328 . S
N229 C228 1.334 . S
N230 C226 1.331 . S
N230 C227 1.329 . S
H231 C225 0.930 . S
C232 O212 1.257 1_545 S
C232 O233 1.244 . S
O233 C232 1.244 . S
O234 C210 1.257 . S
O234 Zn213 2.019 . S
H235 C228 0.930 . S
H236 C215 0.930 . S
H237 C227 0.931 1_565 S
Zn238 N242 2.020 . S
Zn238 O246 2.019 . S
Zn238 N248 2.119 . S
Zn238 O256 1.975 . S
C239 N240 1.334 . S
C239 N243 1.336 . S
N240 C239 1.334 . S
N240 C241 1.334 . S
C241 N240 1.334 . S
C241 N242 1.336 . S
N242 Zn238 2.020 . S
N242 C241 1.336 . S
N242 N243 1.354 . S
N243 C239 1.336 . S
N243 N242 1.354 . S
N243 Zn247 2.020 . S
C244 O245 1.244 . S
C244 O268 1.257 . S
O245 C244 1.244 . S
O246 Zn238 2.019 . S
O246 C266 1.257 . S
Zn247 N243 2.020 . S
Zn247 O254 1.975 . S
Zn247 N263 2.119 . S
Zn247 O268 2.019 . S
N248 Zn238 2.119 . S
N248 C250 1.334 . S
N248 C251 1.328 . S
C249 C250 1.391 . S
C249 N252 1.329 . S
C249 H270 0.930 . S
C250 N248 1.334 . S
C250 C249 1.391 . S
C250 H257 0.930 . S
C251 N248 1.328 . S
C251 C253 1.392 . S
C251 H258 0.930 . S
N252 C249 1.329 . S
N252 C253 1.331 . S
C253 C251 1.392 . S
C253 N252 1.331 . S
O254 Zn247 1.975 . S
O254 C255 1.252 . S
C255 O254 1.252 . S
C255 O256 1.252 . S
O256 Zn238 1.975 . S
O256 C255 1.252 . S
H257 C250 0.930 . S
H258 C251 0.930 . S
C259 C260 1.392 . S
C259 N263 1.328 . S
C259 H265 0.930 . S
C260 C259 1.392 . S
C260 N264 1.331 . S
C261 C262 1.391 . S
C261 N264 1.329 . S
C261 H271 0.930 . S
C262 C261 1.391 . S
C262 N263 1.334 . S
C262 H269 0.930 . S
N263 Zn247 2.119 . S
N263 C259 1.328 . S
N263 C262 1.334 . S
N264 C260 1.331 . S
N264 C261 1.329 . S
H265 C259 0.930 . S
C266 O246 1.257 . S
C266 O267 1.244 . S
O267 C266 1.244 . S
O268 C244 1.257 . S
O268 Zn247 2.019 . S
H269 C262 0.930 . S
H270 C249 0.930 . S
H271 C261 0.930 . S
Zn272 N276 2.020 . S
Zn272 O280 2.019 . S
Zn272 N282 2.119 . S
Zn272 O290 1.975 . S
C273 N274 1.334 . S
C273 N277 1.336 . S
N274 C273 1.334 . S
N274 C275 1.334 . S
C275 N274 1.334 . S
C275 N276 1.336 . S
N276 Zn272 2.020 . S
N276 C275 1.336 . S
N276 N277 1.354 . S
N277 C273 1.336 . S
N277 N276 1.354 . S
N277 Zn281 2.020 . S
C278 O279 1.244 . S
C278 O302 1.257 . S
O279 C278 1.244 . S
O280 Zn272 2.019 . S
O280 C300 1.257 . S
Zn281 N277 2.020 . S
Zn281 O288 1.975 . S
Zn281 N297 2.119 . S
Zn281 O302 2.019 . S
N282 Zn272 2.119 . S
N282 C284 1.334 . S
N282 C285 1.328 . S
C283 C284 1.391 . S
C283 N286 1.329 . S
C283 H304 0.930 . S
C284 N282 1.334 . S
C284 C283 1.391 . S
C284 H291 0.930 . S
C285 N282 1.328 . S
C285 C287 1.392 . S
C285 H292 0.930 . S
N286 C283 1.329 . S
N286 C287 1.331 . S
C287 C285 1.392 . S
C287 N286 1.331 . S
O288 Zn281 1.975 . S
O288 C289 1.252 . S
C289 O288 1.252 . S
C289 O290 1.252 . S
O290 Zn272 1.975 . S
O290 C289 1.252 . S
H291 C284 0.930 . S
H292 C285 0.930 . S
C293 C294 1.392 . S
C293 N297 1.328 . S
C293 H299 0.930 . S
C294 C293 1.392 . S
C294 N298 1.331 . S
C295 C296 1.391 . S
C295 N298 1.329 . S
C295 H305 0.930 . S
C296 C295 1.391 . S
C296 N297 1.334 . S
C296 H303 0.930 . S
N297 Zn281 2.119 . S
N297 C293 1.328 . S
N297 C296 1.334 . S
N298 C294 1.331 . S
N298 C295 1.329 . S
H299 C293 0.930 . S
C300 O280 1.257 . S
C300 O301 1.244 . S
O301 C300 1.244 . S
O302 C278 1.257 . S
O302 Zn281 2.019 . S
H303 C296 0.930 . S
H304 C283 0.930 . S
H305 C295 0.930 . S
Zn306 N310 2.020 . S
Zn306 O314 2.019 . S
Zn306 N316 2.119 . S
Zn306 O324 1.975 1_565 S
C307 N308 1.334 . S
C307 N311 1.336 . S
N308 C307 1.334 . S
N308 C309 1.334 1_545 S
C309 N308 1.334 1_565 S
C309 N310 1.336 . S
N310 Zn306 2.020 . S
N310 C309 1.336 . S
N310 N311 1.354 1_565 S
N311 C307 1.336 . S
N311 N310 1.354 1_545 S
N311 Zn315 2.020 . S
C312 O313 1.244 . S
C312 O336 1.257 1_565 S
O313 C312 1.244 . S
O314 Zn306 2.019 . S
O314 C334 1.257 1_565 S
Zn315 N311 2.020 . S
Zn315 O322 1.975 1_545 S
Zn315 N331 2.119 . S
Zn315 O336 2.019 . S
N316 Zn306 2.119 . S
N316 C318 1.334 . S
N316 C319 1.328 . S
C317 C318 1.391 . S
C317 N320 1.329 . S
C317 H338 0.930 . S
C318 N316 1.334 . S
C318 C317 1.391 . S
C318 H325 0.930 . S
C319 N316 1.328 . S
C319 C321 1.392 . S
C319 H326 0.930 . S
N320 C317 1.329 . S
N320 C321 1.331 . S
C321 C319 1.392 . S
C321 N320 1.331 . S
O322 Zn315 1.975 1_565 S
O322 C323 1.252 . S
C323 O322 1.252 . S
C323 O324 1.252 1_565 S
O324 Zn306 1.975 1_545 S
O324 C323 1.252 1_545 S
H325 C318 0.930 . S
H326 C319 0.930 . S
C327 C328 1.392 . S
C327 N331 1.328 . S
C327 H333 0.930 . S
C328 C327 1.392 . S
C328 N332 1.331 . S
C329 C330 1.391 . S
C329 N332 1.329 . S
C329 H339 0.930 . S
C330 C329 1.391 . S
C330 N331 1.334 . S
C330 H337 0.930 . S
N331 Zn315 2.119 . S
N331 C327 1.328 . S
N331 C330 1.334 . S
N332 C328 1.331 . S
N332 C329 1.329 . S
H333 C327 0.930 . S
C334 O314 1.257 1_545 S
C334 O335 1.244 . S
O335 C334 1.244 . S
O336 C312 1.257 1_545 S
O336 Zn315 2.019 . S
H337 C330 0.930 . S
H338 C317 0.930 . S
H339 C329 0.930 . S
Zn340 N344 2.020 . S
Zn340 O348 2.019 1_554 S
Zn340 N350 2.119 . S
Zn340 O358 1.975 . S
C341 N342 1.334 . S
C341 N345 1.336 . S
N342 C341 1.334 . S
N342 C343 1.334 . S
C343 N342 1.334 . S
C343 N344 1.336 . S
N344 Zn340 2.020 . S
N344 C343 1.336 . S
N344 N345 1.354 . S
N345 C341 1.336 . S
N345 N344 1.354 . S
N345 Zn349 2.020 . S
C346 O347 1.244 . S
C346 O370 1.257 . S
O347 C346 1.244 . S
O348 Zn340 2.019 1_556 S
O348 C368 1.257 . S
Zn349 N345 2.020 . S
Zn349 O356 1.975 . S
Zn349 N365 2.119 . S
Zn349 O370 2.019 . S
N350 Zn340 2.119 . S
N350 C352 1.334 . S
N350 C353 1.317 1_554 S
C351 C352 1.391 . S
C351 N354 1.329 . S
C351 H372 0.930 . S
C352 N350 1.334 . S
C352 C351 1.391 . S
C352 H359 0.930 . S
C353 N350 1.317 1_556 S
C353 C355 1.391 1_556 S
C353 H360 0.942 . S
N354 C351 1.329 . S
N354 C355 1.331 . S
C355 C353 1.391 1_554 S
C355 N354 1.331 . S
O356 Zn349 1.975 . S
O356 C357 1.252 . S
C357 O356 1.252 . S
C357 O358 1.252 . S
O358 Zn340 1.975 . S
O358 C357 1.252 . S
H359 C352 0.930 . S
H360 C353 0.942 . S
C361 C362 1.392 . S
C361 N365 1.328 . S
C361 H367 0.930 . S
C362 C361 1.392 . S
C362 N366 1.336 . S
C363 C364 1.391 . S
C363 N366 1.336 . S
C363 H373 0.930 . S
C364 C363 1.391 . S
C364 N365 1.334 . S
C364 H371 0.930 . S
N365 Zn349 2.119 . S
N365 C361 1.328 . S
N365 C364 1.334 . S
N366 C362 1.336 . S
N366 C363 1.336 . S
H367 C361 0.930 . S
C368 O348 1.257 . S
C368 O369 1.244 . S
O369 C368 1.244 . S
O370 C346 1.257 . S
O370 Zn349 2.019 . S
H371 C364 0.930 . S
H372 C351 0.930 . S
H373 C363 0.930 . S
Zn374 N378 2.020 . S
Zn374 O382 2.019 . S
Zn374 N384 2.119 . S
Zn374 O392 1.975 1_545 S
C375 N376 1.334 . S
C375 N379 1.336 . S
N376 C375 1.334 . S
N376 C377 1.334 1_565 S
C377 N376 1.334 1_545 S
C377 N378 1.336 . S
N378 Zn374 2.020 . S
N378 C377 1.336 . S
N378 N379 1.354 1_545 S
N379 C375 1.336 . S
N379 N378 1.354 1_565 S
N379 Zn383 2.020 . S
C380 O381 1.244 . S
C380 O404 1.257 1_545 S
O381 C380 1.244 . S
O382 Zn374 2.019 . S
O382 C402 1.257 1_545 S
Zn383 N379 2.020 . S
Zn383 O390 1.975 1_565 S
Zn383 N399 2.119 . S
Zn383 O404 2.019 . S
N384 Zn374 2.119 . S
N384 C386 1.334 . S
N384 C387 1.328 . S
C385 C386 1.391 . S
C385 N388 1.329 . S
C385 H406 0.930 . S
C386 N384 1.334 . S
C386 C385 1.391 . S
C386 H393 0.930 . S
C387 N384 1.328 . S
C387 C389 1.392 . S
C387 H394 0.930 . S
N388 C385 1.329 . S
N388 C389 1.331 . S
C389 C387 1.392 . S
C389 N388 1.331 . S
O390 Zn383 1.975 1_545 S
O390 C391 1.252 . S
C391 O390 1.252 . S
C391 O392 1.252 1_545 S
O392 Zn374 1.975 1_565 S
O392 C391 1.252 1_565 S
H393 C386 0.930 . S
H394 C387 0.930 . S
C395 C396 1.392 . S
C395 N399 1.328 . S
C395 H401 0.930 . S
C396 C395 1.392 . S
C396 N400 1.331 . S
C397 C398 1.391 . S
C397 N400 1.329 . S
C397 H407 0.930 . S
C398 C397 1.391 . S
C398 N399 1.334 . S
C398 H405 0.930 . S
N399 Zn383 2.119 . S
N399 C395 1.328 . S
N399 C398 1.334 . S
N400 C396 1.331 . S
N400 C397 1.329 . S
H401 C395 0.930 . S
C402 O382 1.257 1_565 S
C402 O403 1.244 . S
O403 C402 1.244 . S
O404 C380 1.257 1_565 S
O404 Zn383 2.019 . S
H405 C398 0.930 . S
H406 C385 0.930 . S
H407 C397 0.930 . S
Zn408 N412 2.020 . S
Zn408 O416 2.019 . S
Zn408 N418 2.119 . S
Zn408 O426 1.975 . S
C409 N410 1.334 . S
C409 N413 1.336 . S
N410 C409 1.334 . S
N410 C411 1.334 . S
C411 N410 1.334 . S
C411 N412 1.336 . S
N412 Zn408 2.020 . S
N412 C411 1.336 . S
N412 N413 1.354 . S
N413 C409 1.336 . S
N413 N412 1.354 . S
N413 Zn417 2.020 . S
C414 O415 1.244 . S
C414 O438 1.257 . S
O415 C414 1.244 . S
O416 Zn408 2.019 . S
O416 C436 1.257 . S
Zn417 N413 2.020 . S
Zn417 O424 1.975 . S
Zn417 N433 2.119 . S
Zn417 O438 2.019 . S
N418 Zn408 2.119 . S
N418 C420 1.334 . S
N418 C421 1.328 . S
C419 C420 1.391 . S
C419 N422 1.329 . S
C419 H440 0.930 . S
C420 N418 1.334 . S
C420 C419 1.391 . S
C420 H427 0.930 . S
C421 N418 1.328 . S
C421 C423 1.392 . S
C421 H428 0.930 . S
N422 C419 1.329 . S
N422 C423 1.331 . S
C423 C421 1.392 . S
C423 N422 1.331 . S
O424 Zn417 1.975 . S
O424 C425 1.252 . S
C425 O424 1.252 . S
C425 O426 1.252 . S
O426 Zn408 1.975 . S
O426 C425 1.252 . S
H427 C420 0.930 . S
H428 C421 0.930 . S
C429 C430 1.392 . S
C429 N433 1.328 . S
C429 H435 0.930 . S
C430 C429 1.392 . S
C430 N434 1.331 . S
C431 C432 1.391 . S
C431 N434 1.329 . S
C431 H441 0.930 . S
C432 C431 1.391 . S
C432 N433 1.334 . S
C432 H439 0.930 . S
N433 Zn417 2.119 . S
N433 C429 1.328 . S
N433 C432 1.334 . S
N434 C430 1.331 . S
N434 C431 1.329 . S
H435 C429 0.930 . S
C436 O416 1.257 . S
C436 O437 1.244 . S
O437 C436 1.244 . S
O438 C414 1.257 . S
O438 Zn417 2.019 . S
H439 C432 0.930 . S
H440 C419 0.930 . S
H441 C431 0.930 . S
Zn442 N446 2.020 . S
Zn442 O450 2.019 . S
Zn442 N452 2.119 . S
Zn442 O460 1.975 1_545 S
C443 N444 1.334 . S
C443 N447 1.336 . S
N444 C443 1.334 . S
N444 C445 1.334 1_565 S
C445 N444 1.334 1_545 S
C445 N446 1.336 . S
N446 Zn442 2.020 . S
N446 C445 1.336 . S
N446 N447 1.354 1_545 S
N447 C443 1.336 . S
N447 N446 1.354 1_565 S
N447 Zn451 2.020 . S
C448 O449 1.244 . S
C448 O472 1.257 1_545 S
O449 C448 1.244 . S
O450 Zn442 2.019 . S
O450 C470 1.257 1_545 S
Zn451 N447 2.020 . S
Zn451 O458 1.975 1_565 S
Zn451 N467 2.119 . S
Zn451 O472 2.019 . S
N452 Zn442 2.119 . S
N452 C454 1.334 . S
N452 C455 1.328 . S
C453 C454 1.391 . S
C453 N456 1.329 . S
C453 H474 0.930 . S
C454 N452 1.334 . S
C454 C453 1.391 . S
C454 H461 0.930 . S
C455 N452 1.328 . S
C455 C457 1.392 . S
C455 H462 0.930 . S
N456 C453 1.329 . S
N456 C457 1.331 . S
C457 C455 1.392 . S
C457 N456 1.331 . S
O458 Zn451 1.975 1_545 S
O458 C459 1.252 . S
C459 O458 1.252 . S
C459 O460 1.252 1_545 S
O460 Zn442 1.975 1_565 S
O460 C459 1.252 1_565 S
H461 C454 0.930 . S
H462 C455 0.930 . S
C463 C464 1.392 . S
C463 N467 1.328 . S
C463 H469 0.930 . S
C464 C463 1.392 . S
C464 N468 1.331 . S
C465 C466 1.391 . S
C465 N468 1.329 . S
C465 H475 0.930 . S
C466 C465 1.391 . S
C466 N467 1.334 . S
C466 H473 0.930 . S
N467 Zn451 2.119 . S
N467 C463 1.328 . S
N467 C466 1.334 . S
N468 C464 1.331 . S
N468 C465 1.329 . S
H469 C463 0.930 . S
C470 O450 1.257 1_565 S
C470 O471 1.244 . S
O471 C470 1.244 . S
O472 C448 1.257 1_565 S
O472 Zn451 2.019 . S
H473 C466 0.930 . S
H474 C453 0.930 . S
H475 C465 0.930 . S
Zn476 N480 2.020 . S
Zn476 O484 2.019 1_556 S
Zn476 N486 2.119 . S
Zn476 O494 1.975 . S
C477 N478 1.334 . S
C477 N481 1.336 . S
N478 C477 1.334 . S
N478 C479 1.334 . S
C479 N478 1.334 . S
C479 N480 1.336 . S
N480 Zn476 2.020 . S
N480 C479 1.336 . S
N480 N481 1.354 . S
N481 C477 1.336 . S
N481 N480 1.354 . S
N481 Zn485 2.020 . S
C482 O483 1.244 . S
C482 O506 1.257 . S
O483 C482 1.244 . S
O484 Zn476 2.019 1_554 S
O484 C504 1.257 . S
Zn485 N481 2.020 . S
Zn485 O492 1.975 . S
Zn485 N501 2.119 . S
Zn485 O506 2.019 . S
N486 Zn476 2.119 . S
N486 C488 1.334 . S
N486 C489 1.317 1_556 S
C487 C488 1.391 . S
C487 N490 1.329 . S
C487 H508 0.930 . S
C488 N486 1.334 . S
C488 C487 1.391 . S
C488 H495 0.930 . S
C489 N486 1.317 1_554 S
C489 C491 1.391 1_554 S
C489 H496 0.942 . S
N490 C487 1.329 . S
N490 C491 1.331 . S
C491 C489 1.391 1_556 S
C491 N490 1.331 . S
O492 Zn485 1.975 . S
O492 C493 1.252 . S
C493 O492 1.252 . S
C493 O494 1.252 . S
O494 Zn476 1.975 . S
O494 C493 1.252 . S
H495 C488 0.930 . S
H496 C489 0.942 . S
C497 C498 1.392 . S
C497 N501 1.328 . S
C497 H503 0.930 . S
C498 C497 1.392 . S
C498 N502 1.336 . S
C499 C500 1.391 . S
C499 N502 1.336 . S
C499 H509 0.930 . S
C500 C499 1.391 . S
C500 N501 1.334 . S
C500 H507 0.930 . S
N501 Zn485 2.119 . S
N501 C497 1.328 . S
N501 C500 1.334 . S
N502 C498 1.336 . S
N502 C499 1.336 . S
H503 C497 0.930 . S
C504 O484 1.257 . S
C504 O505 1.244 . S
O505 C504 1.244 . S
O506 C482 1.257 . S
O506 Zn485 2.019 . S
H507 C500 0.930 . S
H508 C487 0.930 . S
H509 C499 0.930 . S
Zn510 N514 2.020 . S
Zn510 O518 2.019 . S
Zn510 N520 2.119 . S
Zn510 O528 1.975 1_545 S
C511 N512 1.334 1_565 S
C511 N515 1.336 . S
N512 C511 1.334 1_545 S
N512 C513 1.334 . S
C513 N512 1.334 . S
C513 N514 1.336 . S
N514 Zn510 2.020 . S
N514 C513 1.336 . S
N514 N515 1.354 1_545 S
N515 C511 1.336 . S
N515 N514 1.354 1_565 S
N515 Zn519 2.020 . S
C516 O517 1.244 . S
C516 O540 1.257 1_545 S
O517 C516 1.244 . S
O518 Zn510 2.019 . S
O518 C538 1.257 1_545 S
Zn519 N515 2.020 . S
Zn519 O526 1.975 1_565 S
Zn519 N535 2.119 . S
Zn519 O540 2.019 . S
N520 Zn510 2.119 . S
N520 C522 1.334 . S
N520 C523 1.328 . S
C521 C522 1.391 . S
C521 N524 1.329 . S
C521 H542 0.930 . S
C522 N520 1.334 . S
C522 C521 1.391 . S
C522 H529 0.930 . S
C523 N520 1.328 . S
C523 C525 1.392 . S
C523 H530 0.930 . S
N524 C521 1.329 . S
N524 C525 1.331 . S
C525 C523 1.392 . S
C525 N524 1.331 . S
O526 Zn519 1.975 1_545 S
O526 C527 1.252 1_545 S
C527 O526 1.252 1_565 S
C527 O528 1.252 . S
O528 Zn510 1.975 1_565 S
O528 C527 1.252 . S
H529 C522 0.930 . S
H530 C523 0.930 . S
C531 C532 1.392 . S
C531 N535 1.328 . S
C531 H537 0.930 . S
C532 C531 1.392 . S
C532 N536 1.331 . S
C533 C534 1.391 . S
C533 N536 1.329 . S
C533 H543 0.930 . S
C534 C533 1.391 . S
C534 N535 1.334 . S
C534 H541 0.930 . S
N535 Zn519 2.119 . S
N535 C531 1.328 . S
N535 C534 1.334 . S
N536 C532 1.331 . S
N536 C533 1.329 . S
H537 C531 0.930 . S
C538 O518 1.257 1_565 S
C538 O539 1.244 . S
O539 C538 1.244 . S
O540 C516 1.257 1_565 S
O540 Zn519 2.019 . S
H541 C534 0.930 . S
H542 C521 0.930 . S
H543 C533 0.930 . S
C544 C545 1.369 . S
C544 C546 1.419 . S
C544 H548 0.930 . S
C545 C544 1.369 . S
C545 C554 1.429 1_545 S
C546 C544 1.419 . S
C546 C547 1.363 . S
C546 H549 0.929 . S
C547 C546 1.363 . S
C547 C553 1.428 . S
H548 C544 0.930 . S
H549 C546 0.929 . S
S550 N551 1.613 . S
S550 N552 1.610 . S
N551 S550 1.613 . S
N551 C554 1.350 . S
N552 S550 1.610 . S
N552 C553 1.351 1_565 S
C553 C547 1.428 . S
C553 N552 1.351 1_545 S
C553 C554 1.434 1_545 S
C554 C545 1.429 1_565 S
C554 N551 1.350 . S
C554 C553 1.434 1_565 S
C555 C556 1.369 . S
C555 C557 1.419 . S
C555 H559 0.930 . S
C556 C555 1.369 . S
C556 C565 1.429 . S
C557 C555 1.419 . S
C557 C558 1.363 . S
C557 H560 0.929 . S
C558 C557 1.363 . S
C558 C564 1.428 . S
H559 C555 0.930 . S
H560 C557 0.929 . S
S561 N562 1.613 . S
S561 N563 1.610 . S
N562 S561 1.613 . S
N562 C565 1.350 . S
N563 S561 1.610 . S
N563 C564 1.351 . S
C564 C558 1.428 . S
C564 N563 1.351 . S
C564 C565 1.434 . S
C565 C556 1.429 . S
C565 N562 1.350 . S
C565 C564 1.434 . S
C566 C567 1.369 1_545 S
C566 C568 1.419 . S
C566 H570 0.930 . S
C567 C566 1.369 1_565 S
C567 C576 1.429 . S
C568 C566 1.419 . S
C568 C569 1.363 1_545 S
C568 H571 0.929 . S
C569 C568 1.363 1_565 S
C569 C575 1.428 . S
H570 C566 0.930 . S
H571 C568 0.929 . S
S572 N573 1.613 . S
S572 N574 1.610 . S
N573 S572 1.613 . S
N573 C576 1.350 . S
N574 S572 1.610 . S
N574 C575 1.351 . S
C575 C569 1.428 . S
C575 N574 1.351 . S
C575 C576 1.434 . S
C576 C567 1.429 . S
C576 N573 1.350 . S
C576 C575 1.434 . S
C577 C578 1.369 . S
C577 C579 1.419 . S
C577 H581 0.930 . S
C578 C577 1.369 . S
C578 C587 1.429 . S
C579 C577 1.419 . S
C579 C580 1.363 . S
C579 H582 0.929 . S
C580 C579 1.363 . S
C580 C586 1.428 . S
H581 C577 0.930 . S
H582 C579 0.929 . S
S583 N584 1.613 . S
S583 N585 1.610 . S
N584 S583 1.613 . S
N584 C587 1.350 . S
N585 S583 1.610 . S
N585 C586 1.351 . S
C586 C580 1.428 . S
C586 N585 1.351 . S
C586 C587 1.434 . S
C587 C578 1.429 . S
C587 N584 1.350 . S
C587 C586 1.434 . S
C588 C589 1.369 . S
C588 C590 1.419 . S
C588 H592 0.930 . S
C589 C588 1.369 . S
C589 C598 1.429 . S
C590 C588 1.419 . S
C590 C591 1.363 . S
C590 H593 0.929 . S
C591 C590 1.363 . S
C591 C597 1.428 . S
H592 C588 0.930 . S
H593 C590 0.929 . S
S594 N595 1.612 1_545 S
S594 N596 1.610 . S
N595 S594 1.612 1_565 S
N595 C598 1.351 . S
N596 S594 1.610 . S
N596 C597 1.351 1_545 S
C597 C591 1.428 . S
C597 N596 1.351 1_565 S
C597 C598 1.434 . S
C598 C589 1.429 . S
C598 N595 1.351 . S
C598 C597 1.434 . S
C599 C600 1.369 . S
C599 C601 1.419 . S
C599 H603 0.930 . S
C600 C599 1.369 . S
C600 C609 1.429 . S
C601 C599 1.419 . S
C601 C602 1.363 . S
C601 H604 0.929 . S
C602 C601 1.363 . S
C602 C608 1.428 . S
H603 C599 0.930 . S
H604 C601 0.929 . S
S605 N606 1.613 . S
S605 N607 1.610 . S
N606 S605 1.613 . S
N606 C609 1.350 . S
N607 S605 1.610 . S
N607 C608 1.351 . S
C608 C602 1.428 . S
C608 N607 1.351 . S
C608 C609 1.434 . S
C609 C600 1.429 . S
C609 N606 1.350 . S
C609 C608 1.434 . S
C610 C611 1.369 . S
C610 C612 1.419 . S
C610 H614 0.930 1_545 S
C611 C610 1.369 . S
C611 C620 1.429 . S
C612 C610 1.419 . S
C612 C613 1.363 . S
C612 H615 0.929 . S
C613 C612 1.363 . S
C613 C619 1.428 . S
H614 C610 0.930 1_565 S
H615 C612 0.929 . S
S616 N617 1.613 . S
S616 N618 1.610 . S
N617 S616 1.613 . S
N617 C620 1.350 . S
N618 S616 1.610 . S
N618 C619 1.351 . S
C619 C613 1.428 . S
C619 N618 1.351 . S
C619 C620 1.434 . S
C620 C611 1.429 . S
C620 N617 1.350 . S
C620 C619 1.434 . S
C621 C622 1.369 . S
C621 C623 1.419 . S
C621 H625 0.930 . S
C622 C621 1.369 . S
C622 C631 1.429 . S
C623 C621 1.419 . S
C623 C624 1.363 . S
C623 H626 0.929 . S
C624 C623 1.363 . S
C624 C630 1.428 . S
H625 C621 0.930 . S
H626 C623 0.929 . S
S627 N628 1.613 . S
S627 N629 1.610 . S
N628 S627 1.613 . S
N628 C631 1.350 . S
N629 S627 1.610 . S
N629 C630 1.351 . S
C630 C624 1.428 . S
C630 N629 1.351 . S
C630 C631 1.434 . S
C631 C622 1.429 . S
C631 N628 1.350 . S
C631 C630 1.434 . S
C632 C633 1.369 . S
C632 C634 1.419 . S
C632 H636 0.930 . S
C633 C632 1.369 . S
C633 C642 1.429 . S
C634 C632 1.419 . S
C634 C635 1.363 . S
C634 H637 0.929 . S
C635 C634 1.363 . S
C635 C641 1.428 . S
H636 C632 0.930 . S
H637 C634 0.929 . S
S638 N639 1.613 . S
S638 N640 1.610 . S
N639 S638 1.613 . S
N639 C642 1.350 . S
N640 S638 1.610 . S
N640 C641 1.351 . S
C641 C635 1.428 . S
C641 N640 1.351 . S
C641 C642 1.434 . S
C642 C633 1.429 . S
C642 N639 1.350 . S
C642 C641 1.434 . S
C643 C644 1.359 1_545 S
C643 C645 1.419 . S
C643 H647 0.930 . S
C644 C643 1.359 1_565 S
C644 C653 1.442 . S
C645 C643 1.419 . S
C645 C646 1.363 1_545 S
C645 H648 0.929 . S
C646 C645 1.363 1_565 S
C646 C652 1.428 . S
H647 C643 0.930 . S
H648 C645 0.929 . S
S649 N650 1.613 . S
S649 N651 1.610 . S
N650 S649 1.613 . S
N650 C653 1.350 . S
N651 S649 1.610 . S
N651 C652 1.351 . S
C652 C646 1.428 . S
C652 N651 1.351 . S
C652 C653 1.434 . S
C653 C644 1.442 . S
C653 N650 1.350 . S
C653 C652 1.434 . S
C654 C655 1.369 . S
C654 C656 1.419 . S
C654 H658 0.930 . S
C655 C654 1.369 . S
C655 C664 1.429 . S
C656 C654 1.419 . S
C656 C657 1.363 . S
C656 H659 0.929 . S
C657 C656 1.363 . S
C657 C663 1.428 . S
H658 C654 0.930 . S
H659 C656 0.929 . S
S660 N661 1.613 . S
S660 N662 1.610 . S
N661 S660 1.613 . S
N661 C664 1.350 . S
N662 S660 1.610 . S
N662 C663 1.351 . S
C663 C657 1.428 . S
C663 N662 1.351 . S
C663 C664 1.434 . S
C664 C655 1.429 . S
C664 N661 1.350 . S
C664 C663 1.434 . S
C665 C666 1.364 1_565 S
C665 C667 1.419 . S
C665 H669 0.930 . S
C666 C665 1.364 1_545 S
C666 C675 1.436 . S
C667 C665 1.419 . S
C667 C668 1.363 1_565 S
C667 H670 0.929 . S
C668 C667 1.363 1_545 S
C668 C674 1.428 . S
H669 C665 0.930 . S
H670 C667 0.929 . S
S671 N672 1.613 . S
S671 N673 1.610 . S
N672 S671 1.613 . S
N672 C675 1.350 . S
N673 S671 1.610 . S
N673 C674 1.351 . S
C674 C668 1.428 . S
C674 N673 1.351 . S
C674 C675 1.434 . S
C675 C666 1.436 . S
C675 N672 1.350 . S
C675 C674 1.434 . S
C676 C677 1.369 . S
C676 C678 1.419 . S
C676 H680 0.930 . S
C677 C676 1.369 . S
C677 C686 1.429 . S
C678 C676 1.419 . S
C678 C679 1.363 . S
C678 H681 0.929 . S
C679 C678 1.363 . S
C679 C685 1.428 . S
H680 C676 0.930 . S
H681 C678 0.929 . S
S682 N683 1.613 . S
S682 N684 1.610 . S
N683 S682 1.613 . S
N683 C686 1.350 . S
N684 S682 1.610 . S
N684 C685 1.351 . S
C685 C679 1.428 . S
C685 N684 1.351 . S
C685 C686 1.434 . S
C686 C677 1.429 . S
C686 N683 1.350 . S
C686 C685 1.434 . S
C687 C688 1.369 1_565 S
C687 C689 1.419 . S
C687 H691 0.930 . S
C688 C687 1.369 1_545 S
C688 C697 1.429 . S
C689 C687 1.419 . S
C689 C690 1.360 1_565 S
C689 H692 0.929 . S
C690 C689 1.360 1_545 S
C690 C696 1.433 . S
H691 C687 0.930 . S
H692 C689 0.929 . S
S693 N694 1.613 . S
S693 N695 1.610 . S
N694 S693 1.613 . S
N694 C697 1.350 . S
N695 S693 1.610 . S
N695 C696 1.351 . S
C696 C690 1.433 . S
C696 N695 1.351 . S
C696 C697 1.434 . S
C697 C688 1.429 . S
C697 N694 1.350 . S
C697 C696 1.434 . S
C698 C699 1.369 . S
C698 C700 1.419 . S
C698 H702 0.930 . S
C699 C698 1.369 . S
C699 C708 1.429 . S
C700 C698 1.419 . S
C700 C701 1.363 . S
C700 H703 0.929 . S
C701 C700 1.363 . S
C701 C707 1.428 . S
H702 C698 0.930 . S
H703 C700 0.929 . S
S704 N705 1.613 . S
S704 N706 1.610 . S
N705 S704 1.613 . S
N705 C708 1.350 . S
N706 S704 1.610 . S
N706 C707 1.351 . S
C707 C701 1.428 . S
C707 N706 1.351 . S
C707 C708 1.434 . S
C708 C699 1.429 . S
C708 N705 1.350 . S
C708 C707 1.434 . S
C709 C710 1.368 1_565 S
C709 C711 1.419 . S
C709 H713 0.930 . S
C710 C709 1.368 1_545 S
C710 C719 1.429 . S
C711 C709 1.419 . S
C711 C712 1.363 . S
C711 H714 0.929 . S
C712 C711 1.363 . S
C712 C718 1.428 1_565 S
H713 C709 0.930 . S
H714 C711 0.929 . S
S715 N716 1.613 . S
S715 N717 1.610 . S
N716 S715 1.613 . S
N716 C719 1.350 . S
N717 S715 1.610 . S
N717 C718 1.351 . S
C718 C712 1.428 1_545 S
C718 N717 1.351 . S
C718 C719 1.434 . S
C719 C710 1.429 . S
C719 N716 1.350 . S
C719 C718 1.434 . S
C720 C721 1.369 . S
C720 C722 1.419 . S
C720 H724 0.930 . S
C721 C720 1.369 . S
C721 C730 1.429 . S
C722 C720 1.419 . S
C722 C723 1.363 . S
C722 H725 0.929 . S
C723 C722 1.363 . S
C723 C729 1.428 . S
H724 C720 0.930 . S
H725 C722 0.929 . S
S726 N727 1.613 . S
S726 N728 1.610 . S
N727 S726 1.613 . S
N727 C730 1.350 . S
N728 S726 1.610 . S
N728 C729 1.351 . S
C729 C723 1.428 . S
C729 N728 1.351 . S
C729 C730 1.434 . S
C730 C721 1.429 . S
C730 N727 1.350 . S
C730 C729 1.434 . S
C731 C732 1.369 . S
C731 C733 1.419 . S
C731 H735 0.930 . S
C732 C731 1.369 . S
C732 C741 1.429 . S
C733 C731 1.419 . S
C733 C734 1.363 . S
C733 H736 0.929 . S
C734 C733 1.363 . S
C734 C740 1.428 . S
H735 C731 0.930 . S
H736 C733 0.929 . S
S737 N738 1.613 . S
S737 N739 1.610 . S
N738 S737 1.613 . S
N738 C741 1.350 . S
N739 S737 1.610 . S
N739 C740 1.351 . S
C740 C734 1.428 . S
C740 N739 1.351 . S
C740 C741 1.434 . S
C741 C732 1.429 . S
C741 N738 1.350 . S
C741 C740 1.434 . S
C742 C743 1.369 . S
C742 C744 1.419 . S
C742 H746 0.930 . S
C743 C742 1.369 . S
C743 C752 1.429 . S
C744 C742 1.419 . S
C744 C745 1.363 . S
C744 H747 0.929 . S
C745 C744 1.363 . S
C745 C751 1.428 . S
H746 C742 0.930 . S
H747 C744 0.929 . S
S748 N749 1.613 . S
S748 N750 1.610 . S
N749 S748 1.613 . S
N749 C752 1.350 . S
N750 S748 1.610 . S
N750 C751 1.351 . S
C751 C745 1.428 . S
C751 N750 1.351 . S
C751 C752 1.434 . S
C752 C743 1.429 . S
C752 N749 1.350 . S
C752 C751 1.434 . S
C753 C754 1.369 . S
C753 C755 1.419 . S
C753 H757 0.930 . S
C754 C753 1.369 . S
C754 C763 1.429 1_655 S
C755 C753 1.419 . S
C755 C756 1.363 . S
C755 H758 0.929 . S
C756 C755 1.363 . S
C756 C762 1.428 . S
H757 C753 0.930 . S
H758 C755 0.929 . S
S759 N760 1.613 . S
S759 N761 1.610 1_455 S
N760 S759 1.613 . S
N760 C763 1.350 . S
N761 S759 1.610 1_655 S
N761 C762 1.351 . S
C762 C756 1.428 . S
C762 N761 1.351 . S
C762 C763 1.434 1_655 S
C763 C754 1.429 1_455 S
C763 N760 1.350 . S
C763 C762 1.434 1_455 S
C764 C765 1.369 . S
C764 C766 1.419 . S
C764 H768 0.930 . S
C765 C764 1.369 . S
C765 C774 1.429 . S
C766 C764 1.419 . S
C766 C767 1.363 . S
C766 H769 0.929 . S
C767 C766 1.363 . S
C767 C773 1.428 . S
H768 C764 0.930 . S
H769 C766 0.929 . S
S770 N771 1.613 . S
S770 N772 1.610 . S
N771 S770 1.613 . S
N771 C774 1.350 . S
N772 S770 1.610 . S
N772 C773 1.351 . S
C773 C767 1.428 . S
C773 N772 1.351 . S
C773 C774 1.434 . S
C774 C765 1.429 . S
C774 N771 1.350 . S
C774 C773 1.434 . S
C775 C776 1.369 . S
C775 C777 1.419 . S
C775 H779 0.930 . S
C776 C775 1.369 . S
C776 C785 1.429 . S
C777 C775 1.419 . S
C777 C778 1.363 . S
C777 H780 0.929 . S
C778 C777 1.363 . S
C778 C784 1.428 . S
H779 C775 0.930 . S
H780 C777 0.929 . S
S781 N782 1.613 . S
S781 N783 1.610 . S
N782 S781 1.613 . S
N782 C785 1.350 . S
N783 S781 1.610 . S
N783 C784 1.351 . S
C784 C778 1.428 . S
C784 N783 1.351 . S
C784 C785 1.434 . S
C785 C776 1.429 . S
C785 N782 1.350 . S
C785 C784 1.434 . S
C786 C787 1.369 . S
C786 C788 1.419 . S
C786 H790 0.930 . S
C787 C786 1.369 . S
C787 C796 1.429 . S
C788 C786 1.419 . S
C788 C789 1.363 . S
C788 H791 0.929 . S
C789 C788 1.363 . S
C789 C795 1.428 . S
H790 C786 0.930 . S
H791 C788 0.929 . S
S792 N793 1.613 . S
S792 N794 1.610 . S
N793 S792 1.613 . S
N793 C796 1.350 . S
N794 S792 1.610 . S
N794 C795 1.351 . S
C795 C789 1.428 . S
C795 N794 1.351 . S
C795 C796 1.434 . S
C796 C787 1.429 . S
C796 N793 1.350 . S
C796 C795 1.434 . S
C797 C798 1.369 1_655 S
C797 C799 1.419 1_655 S
C797 H801 0.930 . S
C798 C797 1.369 1_455 S
C798 C807 1.429 . S
C799 C797 1.419 1_455 S
C799 C800 1.363 . S
C799 H802 0.929 . S
C800 C799 1.363 . S
C800 C806 1.428 . S
H801 C797 0.930 . S
H802 C799 0.929 . S
S803 N804 1.613 . S
S803 N805 1.610 . S
N804 S803 1.613 . S
N804 C807 1.350 . S
N805 S803 1.610 . S
N805 C806 1.351 . S
C806 C800 1.428 . S
C806 N805 1.351 . S
C806 C807 1.434 . S
C807 C798 1.429 . S
C807 N804 1.350 . S
C807 C806 1.434 . S
C808 C809 1.369 . S
C808 C810 1.419 . S
C808 H812 0.930 . S
C809 C808 1.369 . S
C809 C818 1.429 . S
C810 C808 1.419 . S
C810 C811 1.363 . S
C810 H813 0.929 . S
C811 C810 1.363 . S
C811 C817 1.428 . S
H812 C808 0.930 . S
H813 C810 0.929 . S
S814 N815 1.613 . S
S814 N816 1.610 . S
N815 S814 1.613 . S
N815 C818 1.350 . S
N816 S814 1.610 . S
N816 C817 1.351 . S
C817 C811 1.428 . S
C817 N816 1.351 . S
C817 C818 1.434 . S
C818 C809 1.429 . S
C818 N815 1.350 . S
C818 C817 1.434 . S
C819 C820 1.369 1_545 S
C819 C821 1.419 . S
C819 H823 0.930 . S
C820 C819 1.369 1_565 S
C820 C829 1.429 . S
C821 C819 1.419 . S
C821 C822 1.363 1_545 S
C821 H824 0.929 1_455 S
C822 C821 1.363 1_565 S
C822 C828 1.428 . S
H823 C819 0.930 . S
H824 C821 0.929 1_655 S
S825 N826 1.613 . S
S825 N827 1.610 . S
N826 S825 1.613 . S
N826 C829 1.350 . S
N827 S825 1.610 . S
N827 C828 1.351 . S
C828 C822 1.428 . S
C828 N827 1.351 . S
C828 C829 1.434 . S
C829 C820 1.429 . S
C829 N826 1.350 . S
C829 C828 1.434 . S
C830 C831 1.369 . S
C830 C832 1.419 . S
C830 H834 0.930 . S
C831 C830 1.369 . S
C831 C840 1.429 . S
C832 C830 1.419 . S
C832 C833 1.363 . S
C832 H835 0.929 . S
C833 C832 1.363 . S
C833 C839 1.428 . S
H834 C830 0.930 . S
H835 C832 0.929 . S
S836 N837 1.613 . S
S836 N838 1.610 . S
N837 S836 1.613 . S
N837 C840 1.350 . S
N838 S836 1.610 . S
N838 C839 1.351 . S
C839 C833 1.428 . S
C839 N838 1.351 . S
C839 C840 1.434 . S
C840 C831 1.429 . S
C840 N837 1.350 . S
C840 C839 1.434 . S
C841 C842 1.369 . S
C841 C843 1.419 . S
C841 H845 0.930 1_545 S
C842 C841 1.369 . S
C842 C851 1.429 . S
C843 C841 1.419 . S
C843 C844 1.363 . S
C843 H846 0.929 . S
C844 C843 1.363 . S
C844 C850 1.428 . S
H845 C841 0.930 1_565 S
H846 C843 0.929 . S
S847 N848 1.613 . S
S847 N849 1.610 . S
N848 S847 1.613 . S
N848 C851 1.350 . S
N849 S847 1.610 . S
N849 C850 1.351 . S
C850 C844 1.428 . S
C850 N849 1.351 . S
C850 C851 1.434 . S
C851 C842 1.429 . S
C851 N848 1.350 . S
C851 C850 1.434 . S
C852 C853 1.369 . S
C852 C854 1.419 . S
C852 H856 0.930 . S
C853 C852 1.369 . S
C853 C862 1.429 . S
C854 C852 1.419 . S
C854 C855 1.363 . S
C854 H857 0.929 . S
C855 C854 1.363 . S
C855 C861 1.428 . S
H856 C852 0.930 . S
H857 C854 0.929 . S
S858 N859 1.613 . S
S858 N860 1.610 . S
N859 S858 1.613 . S
N859 C862 1.350 . S
N860 S858 1.610 . S
N860 C861 1.351 . S
C861 C855 1.428 . S
C861 N860 1.351 . S
C861 C862 1.434 . S
C862 C853 1.429 . S
C862 N859 1.350 . S
C862 C861 1.434 . S
C863 C864 1.369 1_565 S
C863 C865 1.419 . S
C863 H867 0.930 . S
C864 C863 1.369 1_545 S
C864 C873 1.429 . S
C865 C863 1.419 . S
C865 C866 1.363 1_565 S
C865 H868 0.929 . S
C866 C865 1.363 1_545 S
C866 C872 1.428 1_655 S
H867 C863 0.930 . S
H868 C865 0.929 . S
S869 N870 1.613 1_455 S
S869 N871 1.610 . S
N870 S869 1.613 1_655 S
N870 C873 1.350 . S
N871 S869 1.610 . S
N871 C872 1.351 . S
C872 C866 1.428 1_455 S
C872 N871 1.351 . S
C872 C873 1.434 1_455 S
C873 C864 1.429 . S
C873 N870 1.350 . S
C873 C872 1.434 1_655 S
C874 C875 1.369 . S
C874 C876 1.419 . S
C874 H878 0.930 . S
C875 C874 1.369 . S
C875 C884 1.429 . S
C876 C874 1.419 . S
C876 C877 1.363 . S
C876 H879 0.929 . S
C877 C876 1.363 . S
C877 C883 1.428 . S
H878 C874 0.930 . S
H879 C876 0.929 . S
S880 N881 1.613 . S
S880 N882 1.610 . S
N881 S880 1.613 . S
N881 C884 1.350 . S
N882 S880 1.610 . S
N882 C883 1.351 . S
C883 C877 1.428 . S
C883 N882 1.351 . S
C883 C884 1.434 . S
C884 C875 1.429 . S
C884 N881 1.350 . S
C884 C883 1.434 . S
C885 C886 1.369 . S
C885 C887 1.419 . S
C885 H889 0.930 . S
C886 C885 1.369 . S
C886 C895 1.429 1_565 S
C887 C885 1.419 . S
C887 C888 1.363 . S
C887 H890 0.929 . S
C888 C887 1.363 . S
C888 C894 1.428 1_565 S
H889 C885 0.930 . S
H890 C887 0.929 . S
S891 N892 1.613 . S
S891 N893 1.610 . S
N892 S891 1.613 . S
N892 C895 1.350 . S
N893 S891 1.610 . S
N893 C894 1.351 . S
C894 C888 1.428 1_545 S
C894 N893 1.351 . S
C894 C895 1.434 . S
C895 C886 1.429 1_545 S
C895 N892 1.350 . S
C895 C894 1.434 . S
C896 C897 1.369 . S
C896 C898 1.419 1_554 S
C896 H900 0.930 . S
C897 C896 1.369 . S
C897 C906 1.429 1_565 S
C898 C896 1.419 1_556 S
C898 C899 1.363 1_565 S
C898 H901 0.929 . S
C899 C898 1.363 1_545 S
C899 C905 1.428 . S
H900 C896 0.930 . S
H901 C898 0.929 . S
S902 N903 1.620 . S
S902 N904 1.603 1_554 S
N903 S902 1.620 . S
N903 C906 1.350 . S
N904 S902 1.603 1_556 S
N904 C905 1.351 . S
C905 C899 1.428 . S
C905 N904 1.351 . S
C905 C906 1.434 1_556 S
C906 C897 1.429 1_545 S
C906 N903 1.350 . S
C906 C905 1.434 1_554 S
C907 C908 1.369 . S
C907 C909 1.419 . S
C907 H911 0.930 . S
C908 C907 1.369 . S
C908 C917 1.429 . S
C909 C907 1.419 . S
C909 C910 1.363 . S
C909 H912 0.929 . S
C910 C909 1.363 . S
C910 C916 1.428 . S
H911 C907 0.930 . S
H912 C909 0.929 . S
S913 N914 1.613 . S
S913 N915 1.610 . S
N914 S913 1.613 . S
N914 C917 1.350 . S
N915 S913 1.610 . S
N915 C916 1.351 . S
C916 C910 1.428 . S
C916 N915 1.351 . S
C916 C917 1.434 . S
C917 C908 1.429 . S
C917 N914 1.350 . S
C917 C916 1.434 . S
C918 C919 1.365 1_455 S
C918 C920 1.423 . S
C918 H922 0.930 . S
C919 C918 1.365 1_655 S
C919 C928 1.429 1_545 S
C920 C918 1.423 . S
C920 C921 1.363 1_545 S
C920 H923 0.929 . S
C921 C920 1.363 1_565 S
C921 C927 1.428 1_455 S
H922 C918 0.930 . S
H923 C920 0.929 . S
S924 N925 1.613 . S
S924 N926 1.610 . S
N925 S924 1.613 . S
N925 C928 1.350 . S
N926 S924 1.610 . S
N926 C927 1.351 . S
C927 C921 1.428 1_655 S
C927 N926 1.351 . S
C927 C928 1.434 . S
C928 C919 1.429 1_565 S
C928 N925 1.350 . S
C928 C927 1.434 . S
C929 C930 1.369 . S
C929 C931 1.419 . S
C929 H933 0.930 . S
C930 C929 1.369 . S
C930 C939 1.429 . S
C931 C929 1.419 . S
C931 C932 1.363 . S
C931 H934 0.929 . S
C932 C931 1.363 . S
C932 C938 1.428 . S
H933 C929 0.930 . S
H934 C931 0.929 . S
S935 N936 1.613 . S
S935 N937 1.610 . S
N936 S935 1.613 . S
N936 C939 1.350 . S
N937 S935 1.610 . S
N937 C938 1.351 . S
C938 C932 1.428 . S
C938 N937 1.351 . S
C938 C939 1.434 . S
C939 C930 1.429 . S
C939 N936 1.350 . S
C939 C938 1.434 . S
C940 C941 1.369 . S
C940 C942 1.419 . S
C940 H944 0.930 . S
C941 C940 1.369 . S
C941 C950 1.429 . S
C942 C940 1.419 . S
C942 C943 1.363 . S
C942 H945 0.929 . S
C943 C942 1.363 . S
C943 C949 1.428 . S
H944 C940 0.930 . S
H945 C942 0.929 . S
S946 N947 1.613 . S
S946 N948 1.610 . S
N947 S946 1.613 . S
N947 C950 1.350 . S
N948 S946 1.610 . S
N948 C949 1.351 . S
C949 C943 1.428 . S
C949 N948 1.351 . S
C949 C950 1.434 . S
C950 C941 1.429 . S
C950 N947 1.350 . S
C950 C949 1.434 . S
C951 C952 1.369 . S
C951 C953 1.419 . S
C951 H955 0.930 . S
C952 C951 1.369 . S
C952 C961 1.429 . S
C953 C951 1.419 . S
C953 C954 1.363 . S
C953 H956 0.929 . S
C954 C953 1.363 . S
C954 C960 1.428 . S
H955 C951 0.930 . S
H956 C953 0.929 . S
S957 N958 1.613 . S
S957 N959 1.610 . S
N958 S957 1.613 . S
N958 C961 1.350 . S
N959 S957 1.610 . S
N959 C960 1.351 . S
C960 C954 1.428 . S
C960 N959 1.351 . S
C960 C961 1.434 . S
C961 C952 1.429 . S
C961 N958 1.350 . S
C961 C960 1.434 . S
C962 C963 1.369 . S
C962 C964 1.404 1_655 S
C962 H966 0.930 . S
C963 C962 1.369 . S
C963 C972 1.411 1_655 S
C964 C962 1.404 1_455 S
C964 C965 1.379 . S
C964 H967 0.928 1_455 S
C965 C964 1.379 . S
C965 C971 1.428 . S
H966 C962 0.930 . S
H967 C964 0.928 1_655 S
S968 N969 1.613 . S
S968 N970 1.610 . S
N969 S968 1.613 . S
N969 C972 1.353 . S
N970 S968 1.610 . S
N970 C971 1.351 . S
C971 C965 1.428 . S
C971 N970 1.351 . S
C971 C972 1.452 . S
C972 C963 1.411 1_455 S
C972 N969 1.353 . S
C972 C971 1.452 . S
C973 C974 1.369 . S
C973 C975 1.419 . S
C973 H977 0.930 . S
C974 C973 1.369 . S
C974 C983 1.429 1_556 S
C975 C973 1.419 . S
C975 C976 1.363 1_556 S
C975 H978 0.929 . S
C976 C975 1.363 1_554 S
C976 C982 1.428 . S
H977 C973 0.930 . S
H978 C975 0.929 . S
S979 N980 1.613 . S
S979 N981 1.610 . S
N980 S979 1.613 . S
N980 C983 1.350 . S
N981 S979 1.610 . S
N981 C982 1.351 . S
C982 C976 1.428 . S
C982 N981 1.351 . S
C982 C983 1.434 . S
C983 C974 1.429 1_554 S
C983 N980 1.350 . S
C983 C982 1.434 . S
C984 C985 1.369 1_554 S
C984 C986 1.419 . S
C984 H988 0.930 . S
C985 C984 1.369 1_556 S
C985 C994 1.429 . S
C986 C984 1.419 . S
C986 C987 1.363 . S
C986 H989 0.929 . S
C987 C986 1.363 . S
C987 C993 1.428 . S
H988 C984 0.930 . S
H989 C986 0.929 . S
S990 N991 1.613 . S
S990 N992 1.610 1_556 S
N991 S990 1.613 . S
N991 C994 1.350 . S
N992 S990 1.610 1_554 S
N992 C993 1.351 . S
C993 C987 1.428 . S
C993 N992 1.351 . S
C993 C994 1.434 1_554 S
C994 C985 1.429 . S
C994 N991 1.350 . S
C994 C993 1.434 1_556 S
C995 C996 1.369 1_655 S
C995 C997 1.419 . S
C995 H999 0.930 . S
C996 C995 1.369 1_455 S
C996 C1005 1.429 . S
C997 C995 1.419 . S
C997 C998 1.363 . S
C997 H1000 0.929 . S
C998 C997 1.363 . S
C998 C1004 1.428 . S
H999 C995 0.930 . S
H1000 C997 0.929 . S
S1001 N1002 1.613 . S
S1001 N1003 1.610 1_455 S
N1002 S1001 1.613 . S
N1002 C1005 1.350 . S
N1003 S1001 1.610 1_655 S
N1003 C1004 1.351 . S
C1004 C998 1.428 . S
C1004 N1003 1.351 . S
C1004 C1005 1.434 1_655 S
C1005 C996 1.429 . S
C1005 N1002 1.350 . S
C1005 C1004 1.434 1_455 S
C1006 C1007 1.369 . S
C1006 C1008 1.419 . S
C1006 H1010 0.930 . S
C1007 C1006 1.369 . S
C1007 C1016 1.429 . S
C1008 C1006 1.419 . S
C1008 C1009 1.363 . S
C1008 H1011 0.929 . S
C1009 C1008 1.363 . S
C1009 C1015 1.428 . S
H1010 C1006 0.930 . S
H1011 C1008 0.929 . S
S1012 N1013 1.613 . S
S1012 N1014 1.610 . S
N1013 S1012 1.613 . S
N1013 C1016 1.350 . S
N1014 S1012 1.610 . S
N1014 C1015 1.351 . S
C1015 C1009 1.428 . S
C1015 N1014 1.351 . S
C1015 C1016 1.434 . S
C1016 C1007 1.429 . S
C1016 N1013 1.350 . S
C1016 C1015 1.434 . S
C1017 C1018 1.369 . S
C1017 C1019 1.419 . S
C1017 H1021 0.930 . S
C1018 C1017 1.369 . S
C1018 C1027 1.429 . S
C1019 C1017 1.419 . S
C1019 C1020 1.363 . S
C1019 H1022 0.929 . S
C1020 C1019 1.363 . S
C1020 C1026 1.428 . S
H1021 C1017 0.930 . S
H1022 C1019 0.929 . S
S1023 N1024 1.613 . S
S1023 N1025 1.610 . S
N1024 S1023 1.613 . S
N1024 C1027 1.350 . S
N1025 S1023 1.610 . S
N1025 C1026 1.351 . S
C1026 C1020 1.428 . S
C1026 N1025 1.351 . S
C1026 C1027 1.434 . S
C1027 C1018 1.429 . S
C1027 N1024 1.350 . S
C1027 C1026 1.434 . S
C1028 C1029 1.369 . S
C1028 C1030 1.419 . S
C1028 H1032 0.930 . S
C1029 C1028 1.369 . S
C1029 C1038 1.429 . S
C1030 C1028 1.419 . S
C1030 C1031 1.363 1_556 S
C1030 H1033 0.929 . S
C1031 C1030 1.363 1_554 S
C1031 C1037 1.428 . S
H1032 C1028 0.930 . S
H1033 C1030 0.929 . S
S1034 N1035 1.613 1_554 S
S1034 N1036 1.610 . S
N1035 S1034 1.613 1_556 S
N1035 C1038 1.350 . S
N1036 S1034 1.610 . S
N1036 C1037 1.351 . S
C1037 C1031 1.428 . S
C1037 N1036 1.351 . S
C1037 C1038 1.434 1_554 S
C1038 C1029 1.429 . S
C1038 N1035 1.350 . S
C1038 C1037 1.434 1_556 S
C1039 C1040 1.369 . S
C1039 C1041 1.419 1_455 S
C1039 H1043 0.930 . S
C1040 C1039 1.369 . S
C1040 C1049 1.429 . S
C1041 C1039 1.419 1_655 S
C1041 C1042 1.363 . S
C1041 H1044 0.929 . S
C1042 C1041 1.363 . S
C1042 C1048 1.428 1_655 S
H1043 C1039 0.930 . S
H1044 C1041 0.929 . S
S1045 N1046 1.613 . S
S1045 N1047 1.610 . S
N1046 S1045 1.613 . S
N1046 C1049 1.350 . S
N1047 S1045 1.610 . S
N1047 C1048 1.351 . S
C1048 C1042 1.428 1_455 S
C1048 N1047 1.351 . S
C1048 C1049 1.434 . S
C1049 C1040 1.429 . S
C1049 N1046 1.350 . S
C1049 C1048 1.434 . S
C1050 C1051 1.369 . S
C1050 C1052 1.419 . S
C1050 H1054 0.930 . S
C1051 C1050 1.369 . S
C1051 C1060 1.429 . S
C1052 C1050 1.419 . S
C1052 C1053 1.363 . S
C1052 H1055 0.929 . S
C1053 C1052 1.363 . S
C1053 C1059 1.428 . S
H1054 C1050 0.930 . S
H1055 C1052 0.929 . S
S1056 N1057 1.613 . S
S1056 N1058 1.610 . S
N1057 S1056 1.613 . S
N1057 C1060 1.350 . S
N1058 S1056 1.610 . S
N1058 C1059 1.351 . S
C1059 C1053 1.428 . S
C1059 N1058 1.351 . S
C1059 C1060 1.434 . S
C1060 C1051 1.429 . S
C1060 N1057 1.350 . S
C1060 C1059 1.434 . S
C1061 C1062 1.369 . S
C1061 C1063 1.419 . S
C1061 H1065 0.930 . S
C1062 C1061 1.369 . S
C1062 C1071 1.429 . S
C1063 C1061 1.419 . S
C1063 C1064 1.363 . S
C1063 H1066 0.929 . S
C1064 C1063 1.363 . S
C1064 C1070 1.428 . S
H1065 C1061 0.930 . S
H1066 C1063 0.929 . S
S1067 N1068 1.613 . S
S1067 N1069 1.610 . S
N1068 S1067 1.613 . S
N1068 C1071 1.350 . S
N1069 S1067 1.610 . S
N1069 C1070 1.351 . S
C1070 C1064 1.428 . S
C1070 N1069 1.351 . S
C1070 C1071 1.434 . S
C1071 C1062 1.429 . S
C1071 N1068 1.350 . S
C1071 C1070 1.434 . S
C1072 C1073 1.369 . S
C1072 C1074 1.419 . S
C1072 H1076 0.930 . S
C1073 C1072 1.369 . S
C1073 C1082 1.429 . S
C1074 C1072 1.419 . S
C1074 C1075 1.363 . S
C1074 H1077 0.929 . S
C1075 C1074 1.363 . S
C1075 C1081 1.428 . S
H1076 C1072 0.930 . S
H1077 C1074 0.929 . S
S1078 N1079 1.613 . S
S1078 N1080 1.610 . S
N1079 S1078 1.613 . S
N1079 C1082 1.350 . S
N1080 S1078 1.610 . S
N1080 C1081 1.351 . S
C1081 C1075 1.428 . S
C1081 N1080 1.351 . S
C1081 C1082 1.434 . S
C1082 C1073 1.429 . S
C1082 N1079 1.350 . S
C1082 C1081 1.434 . S
C1083 C1084 1.369 . S
C1083 C1085 1.419 . S
C1083 H1087 0.930 . S
C1084 C1083 1.369 . S
C1084 C1093 1.429 1_545 S
C1085 C1083 1.419 . S
C1085 C1086 1.363 . S
C1085 H1088 0.929 . S
C1086 C1085 1.363 . S
C1086 C1092 1.428 1_545 S
H1087 C1083 0.930 . S
H1088 C1085 0.929 . S
S1089 N1090 1.613 . S
S1089 N1091 1.610 . S
N1090 S1089 1.613 . S
N1090 C1093 1.350 . S
N1091 S1089 1.610 . S
N1091 C1092 1.351 . S
C1092 C1086 1.428 1_565 S
C1092 N1091 1.351 . S
C1092 C1093 1.434 . S
C1093 C1084 1.429 1_565 S
C1093 N1090 1.350 . S
C1093 C1092 1.434 . S
C1094 C1095 1.369 . S
C1094 C1096 1.419 . S
C1094 H1098 0.930 . S
C1095 C1094 1.369 . S
C1095 C1104 1.434 1_554 S
C1096 C1094 1.419 . S
C1096 C1097 1.363 1_554 S
C1096 H1099 0.929 . S
C1097 C1096 1.363 1_556 S
C1097 C1103 1.428 . S
H1098 C1094 0.930 . S
H1099 C1096 0.929 . S
S1100 N1101 1.613 . S
S1100 N1102 1.610 . S
N1101 S1100 1.613 . S
N1101 C1104 1.347 . S
N1102 S1100 1.610 . S
N1102 C1103 1.351 . S
C1103 C1097 1.428 . S
C1103 N1102 1.351 . S
C1103 C1104 1.431 . S
C1104 C1095 1.434 1_556 S
C1104 N1101 1.347 . S
C1104 C1103 1.431 . S
C1105 C1106 1.369 . S
C1105 C1107 1.419 1_455 S
C1105 H1109 0.930 . S
C1106 C1105 1.369 . S
C1106 C1115 1.429 1_565 S
C1107 C1105 1.419 1_655 S
C1107 C1108 1.363 . S
C1107 H1110 0.929 . S
C1108 C1107 1.363 . S
C1108 C1114 1.428 1_665 S
H1109 C1105 0.930 . S
H1110 C1107 0.929 . S
S1111 N1112 1.613 . S
S1111 N1113 1.610 . S
N1112 S1111 1.613 . S
N1112 C1115 1.350 . S
N1113 S1111 1.610 . S
N1113 C1114 1.351 . S
C1114 C1108 1.428 1_445 S
C1114 N1113 1.351 . S
C1114 C1115 1.434 . S
C1115 C1106 1.429 1_545 S
C1115 N1112 1.350 . S
C1115 C1114 1.434 . S
C1116 C1117 1.369 . S
C1116 C1118 1.419 . S
C1116 H1120 0.930 . S
C1117 C1116 1.369 . S
C1117 C1126 1.429 . S
C1118 C1116 1.419 . S
C1118 C1119 1.363 . S
C1118 H1121 0.929 . S
C1119 C1118 1.363 . S
C1119 C1125 1.428 . S
H1120 C1116 0.930 . S
H1121 C1118 0.929 . S
S1122 N1123 1.613 . S
S1122 N1124 1.610 . S
N1123 S1122 1.613 . S
N1123 C1126 1.350 . S
N1124 S1122 1.610 . S
N1124 C1125 1.351 . S
C1125 C1119 1.428 . S
C1125 N1124 1.351 . S
C1125 C1126 1.434 . S
C1126 C1117 1.429 . S
C1126 N1123 1.350 . S
C1126 C1125 1.434 . S
C1127 C1128 1.369 . S
C1127 C1129 1.419 . S
C1127 H1131 0.930 . S
C1128 C1127 1.369 . S
C1128 C1137 1.429 1_565 S
C1129 C1127 1.419 . S
C1129 C1130 1.363 . S
C1129 H1132 0.929 . S
C1130 C1129 1.363 . S
C1130 C1136 1.428 1_565 S
H1131 C1127 0.930 . S
H1132 C1129 0.929 . S
S1133 N1134 1.613 . S
S1133 N1135 1.610 . S
N1134 S1133 1.613 . S
N1134 C1137 1.350 . S
N1135 S1133 1.610 . S
N1135 C1136 1.351 . S
C1136 C1130 1.428 1_545 S
C1136 N1135 1.351 . S
C1136 C1137 1.434 . S
C1137 C1128 1.429 1_545 S
C1137 N1134 1.350 . S
C1137 C1136 1.434 . S
C1138 C1139 1.369 . S
C1138 C1140 1.419 . S
C1138 H1142 0.930 . S
C1139 C1138 1.369 . S
C1139 C1148 1.429 . S
C1140 C1138 1.419 . S
C1140 C1141 1.363 1_556 S
C1140 H1143 0.929 . S
C1141 C1140 1.363 1_554 S
C1141 C1147 1.428 . S
H1142 C1138 0.930 . S
H1143 C1140 0.929 . S
S1144 N1145 1.615 1_554 S
S1144 N1146 1.610 . S
N1145 S1144 1.615 1_556 S
N1145 C1148 1.349 . S
N1146 S1144 1.610 . S
N1146 C1147 1.351 . S
C1147 C1141 1.428 . S
C1147 N1146 1.351 . S
C1147 C1148 1.434 1_554 S
C1148 C1139 1.429 . S
C1148 N1145 1.349 . S
C1148 C1147 1.434 1_556 S
C1149 C1150 1.369 . S
C1149 C1151 1.419 . S
C1149 H1153 0.930 . S
C1150 C1149 1.369 . S
C1150 C1159 1.429 1_545 S
C1151 C1149 1.419 . S
C1151 C1152 1.363 1_655 S
C1151 H1154 0.929 . S
C1152 C1151 1.363 1_455 S
C1152 C1158 1.428 1_445 S
H1153 C1149 0.930 . S
H1154 C1151 0.929 . S
S1155 N1156 1.613 . S
S1155 N1157 1.610 1_655 S
N1156 S1155 1.613 . S
N1156 C1159 1.350 . S
N1157 S1155 1.610 1_455 S
N1157 C1158 1.351 1_455 S
C1158 C1152 1.428 1_665 S
C1158 N1157 1.351 1_655 S
C1158 C1159 1.434 . S
C1159 C1150 1.429 1_565 S
C1159 N1156 1.350 . S
C1159 C1158 1.434 . S
C545 C334 1.205 . S
C547 C6 1.197 . S
C556 C346 1.261 . S
C558 C40 1.253 . S
C567 C402 1.207 . S
C569 C96 1.199 . S
C578 C300 1.259 . S
C580 C108 1.252 . S
C589 C142 1.195 . S
C591 C470 1.206 . S
C600 C482 1.268 . S
C602 C176 1.246 . S
C611 C516 1.208 . S
C613 C210 1.198 . S
C622 C244 1.245 . S
C624 C414 1.266 . S
C633 C62 1.306 . S
C635 C278 1.297 . S
C644 C74 1.275 . S
C646 C312 1.275 . S
C655 C368 1.297 . S
C657 C130 1.304 . S
C666 C28 1.275 . S
C668 C380 1.273 . S
C677 C198 1.302 . S
C679 C436 1.298 . S
C688 C448 1.274 . S
C690 C232 1.276 . S
C699 C504 1.295 . S
C701 C266 1.307 . S
C710 C164 1.279 1_545 S
C712 C538 1.272 . S
C721 C253 1.290 . S
C723 C3 1.233 . S
C732 C37 1.265 . S
C734 C430 1.312 . S
C743 C69 1.235 . S
C745 C185 1.286 . S
C754 C498 1.309 1_655 S
C756 C105 1.265 . S
C765 C117 1.287 . S
C767 C139 1.234 . S
C776 C287 1.311 . S
C778 C173 1.265 . S
C787 C49 1.290 . S
C789 C207 1.235 . S
C798 C362 1.309 1_455 S
C800 C241 1.267 . S
C809 C275 1.389 . S
C811 C532 1.448 . S
C820 C309 1.266 . S
C822 C151 1.302 1_455 S
C831 C457 1.446 . S
C833 C341 1.387 . S
C842 C219 1.304 . S
C844 C377 1.264 . S
C853 C409 1.391 . S
C855 C389 1.448 . S
C864 C445 1.262 . S
C866 C15 1.303 1_655 S
C875 C477 1.391 . S
C877 C321 1.448 . S
C886 C511 1.255 . S
C888 C90 1.306 . S
C897 C158 0.752 1_554 S
C899 C22 0.750 1_556 S
C908 C56 0.751 . S
C910 C464 0.745 . S
C919 C226 0.759 . S
C921 C83 0.767 . S
C930 C525 0.759 . S
C932 C124 0.737 . S
C941 C328 0.734 . S
C943 C192 0.756 . S
C952 C260 0.740 . S
C954 C396 0.754 . S
C963 C294 0.775 . S
C965 C423 0.745 . S
C974 C355 0.759 1_556 S
C976 C491 0.758 1_554 S
C985 C479 2.531 . S
C987 C17 2.613 . S
C996 C239 2.590 . S
C998 C51 2.665 . S
C1007 C85 2.615 . S
C1009 C411 2.528 . S
C1018 C171 2.585 . S
C1020 C119 2.662 . S
C1029 C153 2.613 . S
C1031 C343 2.530 . S
C1040 C187 2.661 . S
C1042 C103 2.587 . S
C1051 C221 2.612 . S
C1053 C273 2.527 . S
C1062 C35 2.585 . S
C1064 C255 2.662 . S
C1073 C289 2.729 . S
C1075 C205 2.666 . S
C1084 C513 2.626 . S
C1086 C323 2.695 1_545 S
C1095 C357 2.726 . S
C1097 C137 2.664 . S
C1106 C391 2.694 1_565 S
C1108 C443 2.624 . S
C1117 C71 2.664 . S
C1119 C425 2.727 . S
C1128 C459 2.692 1_565 S
C1130 C375 2.624 . S
C1139 C493 2.726 . S
C1141 C1 2.664 . S
C1150 C527 2.694 1_545 S
C1152 C307 2.625 . S
