# Generated by pormake.
# Topology bsn, (6)-cn, num edge types: 1
# Building blocks:
#     Node 0, Type 0, BuildingBlock: PAMTOO_clean_sbu_0, # of connection points: 6
#     Node 1, Type 0, BuildingBlock: PAMTOO_clean_sbu_0, # of connection points: 6
#     Node 2, Type 0, BuildingBlock: PAMTOO_clean_sbu_0, # of connection points: 6
#     Node 3, Type 0, BuildingBlock: PAMTOO_clean_sbu_0, # of connection points: 6
#     Edge 4, Type (0, 0), BuildingBlock: FUNLAD_clean_linker_1, # of connection points: 2
#     Edge 5, Type (0, 0), BuildingBlock: FUNLAD_clean_linker_1, # of connection points: 2
#     Edge 6, Type (0, 0), BuildingBlock: FUNLAD_clean_linker_1, # of connection points: 2
#     Edge 7, Type (0, 0), BuildingBlock: FUNLAD_clean_linker_1, # of connection points: 2
#     Edge 8, Type (0, 0), BuildingBlock: FUNLAD_clean_linker_1, # of connection points: 2
#     Edge 9, Type (0, 0), BuildingBlock: FUNLAD_clean_linker_1, # of connection points: 2
#     Edge 10, Type (0, 0), BuildingBlock: FUNLAD_clean_linker_1, # of connection points: 2
#     Edge 11, Type (0, 0), BuildingBlock: FUNLAD_clean_linker_1, # of connection points: 2
#     Edge 12, Type (0, 0), BuildingBlock: FUNLAD_clean_linker_1, # of connection points: 2
#     Edge 13, Type (0, 0), BuildingBlock: FUNLAD_clean_linker_1, # of connection points: 2
#     Edge 14, Type (0, 0), BuildingBlock: FUNLAD_clean_linker_1, # of connection points: 2
#     Edge 15, Type (0, 0), BuildingBlock: FUNLAD_clean_linker_1, # of connection points: 2
# Relax obj value: 0.037
# Max RMSD: 0.148
# Mean RMSD: 0.148
data_MOF--net-bsn--node1-PAMTOO_clean_sbu_0--edge1-FUNLAD_clean_linker_1
_symmetry_space_group_name_H-M    P1
_symmetry_Int_Tables_number       1
_symmetry_cell_setting            triclinic
loop_
_symmetry_equiv_pos_as_xyz
'x, y, z'
_cell_length_a     52.26122
_cell_length_b     30.615773
_cell_length_c     15.10881
_cell_angle_alpha  83.12859
_cell_angle_beta   96.647341
_cell_angle_gamma 118.32775
loop_
_atom_site_label
_atom_site_type_symbol
_atom_site_fract_x
_atom_site_fract_y
_atom_site_fract_z
_atom_type_partial_charge
Dy0 Dy 0.13724 0.29546 0.38039 0.0
Dy1 Dy 0.05485 0.24023 0.38583 0.0
C2 C 0.08134 0.26481 0.22281 0.0
O3 O 0.12559 0.35769 0.38298 0.0
O4 O 0.07387 0.32325 0.37086 0.0
O5 O 0.15943 0.29964 0.26509 0.0
O6 O 0.18382 0.34109 0.38063 0.0
O7 O 0.09497 0.26316 0.47329 0.0
O8 O 0.13894 0.29124 0.53077 0.0
O9 O 0.06773 0.17907 0.39977 0.0
O10 O 0.11938 0.21298 0.41229 0.0
O11 O 1.02924 0.24032 0.48819 0.0
O12 O 1.00925 0.18752 0.38528 0.0
C13 C 0.10082 0.36072 0.37876 0.0
O14 O 0.09635 0.27287 0.29921 0.0
O15 O 0.05383 0.24661 0.23506 0.0
C16 C 0.20816 0.31377 0.29453 0.0
C17 C 0.25373 0.29107 0.27628 0.0
C18 C 0.24413 0.31472 0.20442 0.0
C19 C 0.22155 0.32582 0.21362 0.0
C20 C 0.21746 0.28986 0.36621 0.0
C21 C 0.24016 0.27893 0.35723 0.0
C22 C 0.18514 0.32766 0.3028 0.0
C23 C 0.11162 0.2731 0.54688 0.0
C24 C 0.09232 0.17554 0.41305 0.0
C25 C 0.98034 0.2173 0.43847 0.0
C26 C 0.93134 0.23396 0.40821 0.0
C27 C 0.93372 0.20348 0.48249 0.0
C28 C 0.95796 0.19498 0.49722 0.0
C29 C 0.9786 0.24909 0.36576 0.0
C30 C 0.95431 0.25744 0.35068 0.0
C31 C 1.005 0.20622 0.45224 0.0
H32 H 0.25445 0.32605 0.14176 0.0
H33 H 0.21479 0.34454 0.15768 0.0
H34 H 0.20739 0.28007 0.4293 0.0
H35 H 0.24718 0.26097 0.41382 0.0
H36 H 0.91651 0.18538 0.52829 0.0
H37 H 0.95906 0.17052 0.55393 0.0
H38 H 0.99592 0.2671 0.32033 0.0
H39 H 0.95377 0.28254 0.2945 0.0
Dy40 Dy 0.11497 0.76234 0.60017 0.0
Dy41 Dy 0.04301 0.72716 0.56692 0.0
C42 C 0.08521 0.76991 0.4077 0.0
O43 O 0.11193 0.8327 0.57813 0.0
O44 O 0.06383 0.80562 0.60632 0.0
O45 O 0.15979 0.80459 0.56447 0.0
O46 O 0.14912 0.75801 0.68895 0.0
O47 O 0.05347 0.69835 0.70021 0.0
O48 O 0.0974 0.76507 0.72487 0.0
O49 O 0.04801 0.66526 0.51984 0.0
O50 O 0.093 0.68035 0.58966 0.0
O51 O 1.00271 0.69886 0.62978 0.0
O52 O 1.00289 0.71249 0.48581 0.0
C53 C 0.09052 0.8412 0.59331 0.0
O54 O 0.10366 0.7569 0.45425 0.0
O55 O 0.0637 0.77084 0.44316 0.0
C56 C 0.19183 0.77142 0.62353 0.0
C57 C 0.23856 0.74927 0.62231 0.0
C58 C 0.24126 0.79601 0.58754 0.0
C59 C 0.21818 0.8069 0.58872 0.0
C60 C 0.18846 0.72391 0.65397 0.0
C61 C 0.2116 0.71304 0.65327 0.0
C62 C 0.16952 0.78653 0.63517 0.0
C63 C 0.07328 0.72896 0.75474 0.0
C64 C 0.06868 0.65242 0.54385 0.0
C65 C 0.96668 0.7194 0.55774 0.0
C66 C 0.92217 0.74474 0.57637 0.0
C67 C 0.94854 0.76541 0.62973 0.0
C68 C 0.97057 0.75283 0.62048 0.0
C69 C 0.941 0.70059 0.5019 0.0
C70 C 0.91907 0.7134 0.51069 0.0
C71 C 0.98756 0.69981 0.55544 0.0
H72 H 0.26116 0.82496 0.56098 0.0
H73 H 0.22125 0.84377 0.56472 0.0
H74 H 0.16831 0.69559 0.6808 0.0
H75 H 0.20864 0.67655 0.67962 0.0
H76 H 0.95222 0.79104 0.67901 0.0
H77 H 0.99031 0.76827 0.66392 0.0
H78 H 0.9375 0.67472 0.45315 0.0
H79 H 0.89918 0.69737 0.46797 0.0
Dy80 Dy 0.63607 0.79116 0.8749 0.0
Dy81 Dy 0.56306 0.74113 0.83932 0.0
C82 C 0.6048 0.78924 0.68539 0.0
O83 O 0.62672 0.85588 0.86895 0.0
O84 O 0.57655 0.81736 0.87806 0.0
O85 O 0.67876 0.84255 0.83075 0.0
O86 O 0.67445 0.79431 0.95173 0.0
O87 O 0.57392 0.72108 -0.02064 0.0
O88 O 0.61802 0.79012 0.00094 0.0
O89 O 0.57505 0.68307 0.81381 0.0
O90 O 0.6183 0.70888 0.89973 0.0
O91 O 0.52076 0.71554 0.88898 0.0
O92 O 0.52431 0.7055 0.75185 0.0
C93 C 0.6023 0.85702 0.87894 0.0
O94 O 0.62274 0.77567 0.73285 0.0
O95 O 0.5837 0.79082 0.7213 0.0
C96 C 0.71524 0.81703 0.8687 0.0
C97 C 0.76073 0.80084 0.82126 0.0
C98 C 0.73419 0.78427 0.76842 0.0
C99 C 0.71166 0.79234 0.79204 0.0
C100 C 0.74143 0.83294 0.92185 0.0
C101 C 0.76386 0.82477 0.89859 0.0
C102 C 0.69221 0.82691 0.89459 0.0
C103 C 0.59409 0.75329 0.03142 0.0
C104 C 0.59517 0.67408 0.85957 0.0
C105 C 0.48331 0.71365 0.78351 0.0
C106 C 0.43671 0.73556 0.7316 0.0
C107 C 0.43344 0.69646 0.79642 0.0
C108 C 0.45648 0.68558 0.8216 0.0
C109 C 0.48699 0.75329 0.72014 0.0
C110 C 0.46386 0.76415 0.69457 0.0
C111 C 0.50693 0.70072 0.81203 0.0
H112 H 0.73047 0.76449 0.70969 0.0
H113 H 0.69145 0.77926 0.75057 0.0
H114 H 0.74459 0.85186 -0.01852 0.0
H115 H 0.78387 0.83757 0.94104 0.0
H116 H 0.4134 0.67456 0.82932 0.0
H117 H 0.45337 0.65524 0.87146 0.0
H118 H 0.50767 0.77578 0.69055 0.0
H119 H 0.46716 0.79486 0.64543 0.0
Dy120 Dy 0.61849 0.2622 0.06726 0.0
Dy121 Dy 0.54682 0.2214 0.08368 0.0
C122 C 0.57341 0.25405 0.89616 0.0
O123 O 0.61142 0.32799 0.02922 0.0
O124 O 0.56941 0.30353 0.10031 0.0
O125 O 0.65309 0.25985 0.00642 0.0
O126 O 0.66344 0.31073 0.1089 0.0
O127 O 0.56575 0.19582 0.20416 0.0
O128 O 0.61089 0.26252 0.20845 0.0
O129 O 0.5514 0.15889 0.03609 0.0
O130 O 0.59843 0.17983 0.09224 0.0
O131 O 0.51462 0.20901 0.17382 0.0
O132 O 0.50102 0.18631 0.03838 0.0
C133 C 0.59245 0.33784 0.06013 0.0
O134 O 0.59657 0.25011 0.93092 0.0
O135 O 0.55391 0.25338 0.94415 0.0
C136 C 0.69686 0.27973 0.09819 0.0
C137 C 0.74431 0.26208 0.1632 0.0
C138 C 0.71983 0.22591 0.11757 0.0
C139 C 0.69626 0.23444 0.08574 0.0
C140 C 0.7212 0.31575 0.14439 0.0
C141 C 0.74469 0.3071 0.1767 0.0
C142 C 0.67354 0.2917 0.05804 0.0
C143 C 0.58909 0.22637 0.24903 0.0
C144 C 0.57304 0.14803 0.05675 0.0
C145 C 0.47077 0.20903 0.10927 0.0
C146 C 0.42458 0.23257 0.11211 0.0
C147 C 0.44833 0.25004 0.17627 0.0
C148 C 0.47109 0.23825 0.17502 0.0
C149 C 0.44749 0.19289 0.04369 0.0
C150 C 0.4248 0.20491 0.04468 0.0
C151 C 0.49292 0.19141 0.11351 0.0
H152 H 0.71907 0.19109 0.10564 0.0
H153 H 0.67788 0.20596 0.04993 0.0
H154 H 0.72239 0.35125 0.15362 0.0
H155 H 0.76347 0.33655 0.20907 0.0
H156 H 0.4495 0.2728 0.22766 0.0
H157 H 0.48865 0.25135 0.22673 0.0
H158 H 0.44646 0.16997 -0.00733 0.0
H159 H 0.40694 0.19133 -0.00605 0.0
H160 H 0.12432 0.44283 0.38094 0.0
C161 C 0.10347 0.40989 0.38991 0.0
H162 H 0.06061 0.38102 0.43035 0.0
H163 H 0.12205 0.59249 0.62348 0.0
H164 H 0.14987 0.55806 0.71714 0.0
H165 H 0.14726 0.4787 0.68611 0.0
H166 H 0.11707 0.43372 0.56056 0.0
C167 C 0.08142 0.4138 0.41984 0.0
C168 C 0.08384 0.46226 0.4378 0.0
C169 C 0.1016 0.48805 0.51174 0.0
C170 C 0.10276 0.53347 0.53017 0.0
C171 C 0.12047 0.55815 0.60528 0.0
C172 C 0.13649 0.53865 0.66014 0.0
C173 C 0.13507 0.49405 0.6426 0.0
C174 C 0.11776 0.46876 0.56974 0.0
H175 H 0.04303 0.57374 0.51136 0.0
C176 C 0.06483 0.60491 0.51666 0.0
H177 H 0.10944 0.63261 0.49974 0.0
H178 H 0.04684 0.42049 0.29347 0.0
H179 H 1.01854 0.4539 0.1995 0.0
H180 H 1.02151 0.53347 0.22717 0.0
H181 H 0.05311 0.58129 0.34926 0.0
C182 C 0.08785 0.6007 0.49566 0.0
C183 C 0.08587 0.55269 0.47527 0.0
C184 C 0.06817 0.5268 0.4009 0.0
C185 C 0.06685 0.48111 0.38332 0.0
C186 C 0.04868 0.45535 0.3099 0.0
C187 C 1.03239 0.47417 0.25508 0.0
C188 C 0.03414 0.51922 0.27082 0.0
C189 C 0.05204 0.54578 0.34196 0.0
H190 H 0.80228 0.79761 0.8532 0.0
C191 C 0.7854 0.79299 0.80022 0.0
H192 H 0.7736 0.78069 0.66299 0.0
H193 H 0.90262 0.8479 0.56773 0.0
H194 H 0.89458 0.91571 0.49475 0.0
H195 H 0.85007 0.92101 0.51599 0.0
H196 H 0.81337 0.85863 0.61072 0.0
C197 C 0.78873 0.78234 0.71965 0.0
C198 C 0.81488 0.77734 0.70338 0.0
C199 C 0.83589 0.81354 0.64626 0.0
C200 C 0.86147 0.81018 0.63317 0.0
C201 C 0.88252 0.84793 0.57845 0.0
C202 C 0.87827 0.88726 0.53651 0.0
C203 C 0.85322 0.89027 0.54854 0.0
C204 C 0.83228 0.8541 0.60296 0.0
H205 H 0.88096 0.74764 0.5323 0.0
C206 C 0.89733 0.75431 0.58771 0.0
H207 H 0.90741 0.76977 0.72383 0.0
H208 H 0.7775 0.69841 0.80868 0.0
H209 H 0.78539 0.63032 0.88086 0.0
H210 H 0.83009 0.6254 0.86064 0.0
H211 H 0.86709 0.68839 0.76755 0.0
C212 C 0.89284 0.76679 0.66489 0.0
C213 C 0.86583 0.7702 0.67624 0.0
C214 C 0.84461 0.73361 0.7323 0.0
C215 C 0.81901 0.73687 0.74515 0.0
C216 C 0.79773 0.69866 0.79869 0.0
C217 C 0.80188 0.65911 0.84002 0.0
C218 C 0.82703 0.65631 0.82855 0.0
C219 C 0.84815 0.69286 0.77514 0.0
H220 H 0.61796 0.41714 0.01973 0.0
C221 C 0.59698 0.38921 0.04299 0.0
H222 H 0.55449 0.3748 0.06711 0.0
H223 H 0.59667 0.60615 0.09351 0.0
H224 H 0.58532 0.57406 0.24633 0.0
H225 H 0.57202 0.48648 0.2947 0.0
H226 H 0.56976 0.43028 0.18998 0.0
C227 C 0.57572 0.40181 0.04458 0.0
C228 C 0.58095 0.45319 0.01338 0.0
C229 C 0.58223 0.48549 0.07533 0.0
C230 C 0.59034 0.53617 0.04767 0.0
C231 C 0.59112 0.56751 0.11094 0.0
C232 C 0.58456 0.54953 0.19896 0.0
C233 C 0.57704 0.50022 0.22617 0.0
C234 C 0.57586 0.46839 0.1654 0.0
H235 H 0.56997 0.59377 0.84122 0.0
C236 C 0.58966 0.62194 0.87347 0.0
H237 H 0.62541 0.63554 0.96705 0.0
H238 H 0.57511 0.39885 0.87378 0.0
H239 H 0.58744 0.4309 0.72141 0.0
H240 H 0.60577 0.52031 0.67643 0.0
H241 H 0.61124 0.57788 0.783 0.0
C242 C 0.60648 0.60792 0.93104 0.0
C243 C 0.59736 0.55449 0.95814 0.0
C244 C 0.59552 0.52185 0.89564 0.0
C245 C 0.58647 0.47083 0.92273 0.0
C246 C 0.58317 0.43838 0.85784 0.0
C247 C 0.58995 0.45622 0.76994 0.0
C248 C 0.60015 0.5065 0.74455 0.0
C249 C 0.60299 0.53911 0.80635 0.0
H250 H 0.8922 0.23407 0.45064 0.0
C251 C 0.90476 0.24062 0.39342 0.0
H252 H 0.90607 0.25701 0.25321 0.0
H253 H 0.76743 0.1829 0.31992 0.0
H254 H 0.76437 0.1017 0.362 0.0
H255 H 0.80824 0.09006 0.37278 0.0
H256 H 0.85549 0.15972 0.34344 0.0
C257 C 0.89452 0.25115 0.31229 0.0
C258 C 0.86758 0.25693 0.30049 0.0
C259 C 0.83993 0.2153 0.31436 0.0
C260 C 0.8144 0.2215 0.30366 0.0
C261 C 0.78732 0.17991 0.32308 0.0
C262 C 0.78528 0.13312 0.34798 0.0
C263 C 0.81 0.12661 0.3544 0.0
C264 C 0.83704 0.16704 0.33786 0.0
H265 H 0.77228 0.22697 0.15341 0.0
C266 C 0.76978 0.25307 0.19004 0.0
H267 H 0.78769 0.30094 0.29567 0.0
H268 H 0.91718 0.34439 0.27016 0.0
H269 H 0.92006 0.42506 0.22301 0.0
H270 H 0.8756 0.43514 0.19787 0.0
H271 H 0.82804 0.36477 0.2203 0.0
C272 C 0.78968 0.27523 0.25681 0.0
C273 C 0.81639 0.26879 0.27464 0.0
C274 C 0.84404 0.31035 0.2607 0.0
C275 C 0.86964 0.30442 0.27386 0.0
C276 C 0.89699 0.34665 0.26018 0.0
C277 C 0.89897 0.39322 0.23322 0.0
C278 C 0.87395 0.3989 0.21917 0.0
C279 C 0.84676 0.35813 0.2325 0.0
H280 H 0.38585 0.2397 0.0516 0.0
C281 C 0.39929 0.24238 0.11338 0.0
H282 H 0.40267 0.25029 0.25218 0.0
H283 H 0.31959 0.3572 0.10697 0.0
H284 H 0.36218 0.42164 0.03604 0.0
H285 H 0.40646 0.41219 0.03493 0.0
H286 H 0.40837 0.33814 0.10439 0.0
C287 C 0.39122 0.25132 0.18794 0.0
C288 C 0.36445 0.25724 0.1874 0.0
C289 C 0.36371 0.30088 0.14667 0.0
C290 C 0.33824 0.30653 0.14812 0.0
C291 C 0.33824 0.35073 0.10751 0.0
C292 C 0.36259 0.38814 0.06675 0.0
C293 C 0.38751 0.38281 0.06606 0.0
C294 C 0.38825 0.33992 0.10579 0.0
H295 H 0.29017 0.27631 0.33309 0.0
C296 C 0.27865 0.28077 0.27079 0.0
H297 H 0.27614 0.2793 0.13012 0.0
H298 H 0.35859 0.169 0.27132 0.0
H299 H 0.3157 0.10378 0.33994 0.0
H300 H 0.27109 0.11245 0.33867 0.0
H301 H 0.26916 0.18653 0.26962 0.0
C302 C 0.28731 0.27584 0.1936 0.0
C303 C 0.31363 0.26884 0.19121 0.0
C304 C 0.31421 0.2248 0.23062 0.0
C305 C 0.33977 0.21934 0.22971 0.0
C306 C 0.3398 0.17515 0.27012 0.0
C307 C 0.31529 0.13732 0.30951 0.0
C308 C 0.29019 0.14223 0.30891 0.0
C309 C 0.28947 0.18522 0.26964 0.0
H310 H 0.41846 0.78525 0.67008 0.0
C311 C 0.41275 0.74864 0.7036 0.0
H312 H 0.37752 0.67947 0.74376 0.0
H313 H 0.31843 0.82957 0.73665 0.0
H314 H 0.35441 0.86942 0.85648 0.0
H315 H 0.39342 0.84618 0.90287 0.0
H316 H 0.3968 0.78327 0.82935 0.0
C317 C 0.38448 0.71754 0.71672 0.0
C318 C 0.36123 0.73237 0.68855 0.0
C319 C 0.35945 0.76906 0.73297 0.0
C320 C 0.33665 0.7819 0.70714 0.0
C321 C 0.33532 0.81847 0.753 0.0
C322 C 0.35579 0.84157 0.82226 0.0
C323 C 0.37777 0.82853 0.8483 0.0
C324 C 0.37958 0.79255 0.80489 0.0
H325 H 0.25898 0.70003 0.6591 0.0
C326 C 0.26335 0.73726 0.63176 0.0
H327 H 0.29704 0.80827 0.59059 0.0
H328 H 0.35828 0.66049 0.59001 0.0
H329 H 0.32223 0.62051 0.47014 0.0
H330 H 0.28316 0.64368 0.4239 0.0
H331 H 0.27979 0.70669 0.49763 0.0
C332 C 0.29103 0.77008 0.61427 0.0
C333 C 0.31532 0.75735 0.63826 0.0
C334 C 0.31723 0.72095 0.59342 0.0
C335 C 0.34005 0.70814 0.6192 0.0
C336 C 0.34136 0.67153 0.5735 0.0
C337 C 0.32087 0.6484 0.5043 0.0
C338 C 0.29886 0.66141 0.47833 0.0
C339 C 0.29705 0.6974 0.52175 0.0
H340 H 0.62592 0.93602 0.90902 0.0
C341 C 0.60437 0.90481 0.89807 0.0
H342 H 0.55901 0.87857 0.89814 0.0
H343 H 0.56514 0.0248 0.16772 0.0
H344 H 0.54147 0.94474 0.25155 0.0
H345 H 0.53653 0.8689 0.19384 0.0
H346 H 0.55544 0.87263 0.05264 0.0
C347 C 0.58061 0.90993 0.90681 0.0
C348 C 0.58288 0.95582 0.9392 0.0
C349 C 0.57146 0.95283 0.02185 0.0
C350 C 0.57414 0.99649 0.05502 0.0
C351 C 0.56323 0.99266 0.1387 0.0
C352 C 0.54966 0.94696 0.18766 0.0
C353 C 0.54685 0.90425 0.15512 0.0
C354 C 0.55776 0.90695 0.07365 0.0
H355 H 0.54749 0.07227 0.01029 0.0
C356 C 0.56895 0.09922 0.03552 0.0
H357 H 0.61331 0.11661 0.06038 0.0
H358 H 0.60327 0.97376 0.7723 0.0
H359 H 0.62713 0.05396 0.68933 0.0
H360 H 0.63394 0.13021 0.75057 0.0
H361 H 0.61636 0.12653 0.89429 0.0
C362 C 0.59143 0.08902 0.03979 0.0
C363 C 0.5881 0.04299 0.00534 0.0
C364 C 0.59936 0.04601 0.92256 0.0
C365 C 0.59625 1.00225 0.88855 0.0
C366 C 0.60613 1.00601 0.80315 0.0
C367 C 0.61967 0.05181 0.7544 0.0
C368 C 0.62349 0.09474 0.78884 0.0
C369 C 0.61334 0.09208 0.87159 0.0
H370 H 0.11954 0.92159 0.5811 0.0
C371 C 0.09701 0.89356 0.58857 0.0
H372 H 0.05343 0.88093 0.58656 0.0
H373 H 0.10544 0.11394 0.64924 0.0
H374 H 0.09481 0.07968 0.802 0.0
H375 H 0.07961 0.9908 0.84399 0.0
H376 H 0.07446 0.93535 0.73298 0.0
C377 C 0.07624 0.90783 0.58123 0.0
C378 C 0.08408 0.96071 0.5557 0.0
C379 C 0.08714 0.99246 0.62139 0.0
C380 C 0.09622 0.04376 0.59735 0.0
C381 C 0.09877 0.0747 0.66399 0.0
C382 C 0.09278 0.05553 0.75192 0.0
C383 C 0.08418 1.00546 0.77554 0.0
C384 C 0.08134 0.97408 0.71129 0.0
H385 H 0.06741 0.09409 0.41543 0.0
C386 C 0.08848 0.12484 0.43377 0.0
H387 H 0.12928 0.14507 0.50563 0.0
H388 H 0.07876 0.90907 0.41221 0.0
H389 H 0.09095 0.94392 0.26084 0.0
H390 H 0.10913 0.03364 0.22101 0.0
H391 H 0.11501 0.0892 0.33235 0.0
C392 C 0.10882 0.11519 0.48084 0.0
C393 C 0.10218 0.06291 0.5077 0.0
C394 C 0.0997 0.03132 0.44238 0.0
C395 C 0.09011 0.97992 0.46601 0.0
C396 C 0.08673 0.94874 0.39865 0.0
C397 C 0.0935 0.96816 0.31131 0.0
C398 C 0.10367 0.01869 0.28882 0.0
C399 C 0.10678 0.0501 0.35328 0.0
H400 H 0.1169 0.2874 0.13336 0.0
C401 C 0.0935 0.27237 0.1355 0.0
H402 H 0.05291 0.24594 0.0612 0.0
H403 H 0.10372 0.35106 0.68987 0.0
H404 H 0.08279 0.40205 0.7252 0.0
H405 H 0.06426 0.39185 0.8731 0.0
H406 H 0.06649 0.33048 -0.0132 0.0
C407 C 0.07625 0.25976 0.05972 0.0
C408 C 0.08814 0.26627 -0.02889 0.0
C409 C 0.08629 0.30178 0.90474 0.0
C410 C 0.09669 0.30726 0.81892 0.0
C411 C 0.09546 0.3443 0.75524 0.0
C412 C 0.08371 0.37416 0.77484 0.0
C413 C 0.07327 0.36841 0.85815 0.0
C414 C 0.07459 0.33288 0.9227 0.0
H415 H 0.0777 0.25287 0.64088 0.0
C416 C 0.10098 0.26769 0.63577 0.0
H417 H 0.14248 0.29534 0.70486 0.0
H418 H 0.0931 0.1919 0.0802 0.0
H419 H 0.11404 0.14101 0.04487 0.0
H420 H 0.13283 0.15157 0.89716 0.0
H421 H 0.13043 0.21275 0.78342 0.0
C422 C 0.11927 0.2817 0.70917 0.0
C423 C 0.10848 0.27656 0.79898 0.0
C424 C 0.11054 0.2413 0.86549 0.0
C425 C 0.10013 0.23579 0.95131 0.0
C426 C 0.10138 0.19876 0.01489 0.0
C427 C 0.11318 0.16898 -0.00473 0.0
C428 C 0.12371 0.17486 0.91206 0.0
C429 C 0.12231 0.2103 0.8475 0.0
H430 H 0.04339 0.70511 0.86212 0.0
C431 C 0.06589 0.72819 0.84554 0.0
H432 H 0.10801 0.78179 0.88767 0.0
H433 H 0.07991 0.87375 0.18174 0.0
H434 H 0.09973 0.94387 0.0702 0.0
H435 H 0.10846 0.93154 0.9201 0.0
H436 H 0.09813 0.8498 0.88131 0.0
C437 C 0.08572 0.75762 0.90532 0.0
C438 C 0.07732 0.76352 -0.00836 0.0
C439 C 0.08291 0.8116 0.01163 0.0
C440 C 0.07736 0.81875 0.09704 0.0
C441 C 0.08391 0.86697 0.11737 0.0
C442 C 0.09509 0.90721 0.05394 0.0
C443 C 0.10002 0.90027 0.96948 0.0
C444 C 0.09409 0.85313 0.94819 0.0
H445 H 0.10354 0.77271 0.28302 0.0
C446 C 0.08712 0.77833 0.3109 0.0
H447 H 0.05033 0.79104 0.28091 0.0
H448 H 0.06511 0.66592 -0.02071 0.0
H449 H 0.03851 0.59583 0.08316 0.0
H450 H 1.02203 0.60835 0.22098 0.0
H451 H 0.03403 0.69088 0.25766 0.0
C452 C 0.06725 0.78572 0.25587 0.0
C453 C 0.06558 0.77781 0.16045 0.0
C454 C 0.05661 0.72916 0.13661 0.0
C455 C 0.06387 0.722 0.05402 0.0
C456 C 0.05815 0.67341 0.03771 0.0
C457 C 0.04322 0.63281 0.09753 0.0
C458 C 0.0342 0.63972 0.17533 0.0
C459 C 0.04117 0.68731 0.19565 0.0
H460 H 0.56633 0.72448 0.14452 0.0
C461 C 0.58797 0.75092 0.12393 0.0
H462 H 0.62899 0.81012 0.16029 0.0
H463 H 0.58902 0.88167 0.46193 0.0
H464 H 0.60436 0.95308 0.35253 0.0
H465 H 0.61685 0.94777 0.20294 0.0
H466 H 0.6141 0.87142 0.16164 0.0
C467 C 0.60763 0.78249 0.18105 0.0
C468 C 0.5994 0.78496 0.26959 0.0
C469 C 0.60029 0.82963 0.29068 0.0
C470 C 0.59284 0.83268 0.37612 0.0
C471 C 0.59461 0.87781 0.39753 0.0
C472 C 0.60328 0.91887 0.33543 0.0
C473 C 0.61032 0.91588 0.25122 0.0
C474 C 0.60871 0.8718 0.22846 0.0
H475 H 0.62397 0.79387 0.56165 0.0
C476 C 0.6062 0.79592 0.58886 0.0
H477 H 0.56632 0.79906 0.55829 0.0
H478 H 0.59793 0.69477 0.25419 0.0
H479 H 0.5789 0.62241 0.35968 0.0
H480 H 0.56032 0.62537 0.50055 0.0
H481 H 0.56159 0.70158 0.53747 0.0
C482 C 0.58461 0.79751 0.53385 0.0
C483 C 0.5843 0.79104 0.43876 0.0
C484 C 0.58093 0.74518 0.41494 0.0
C485 C 0.58981 0.74264 0.33169 0.0
C486 C 0.58966 0.69804 0.31406 0.0
C487 C 0.5791 0.65628 0.37457 0.0
C488 C 0.56877 0.658 0.45403 0.0
C489 C 0.56974 0.70192 0.47455 0.0
H490 H 0.6087 0.25027 0.38219 0.0
C491 C 0.58897 0.22486 0.3456 0.0
H492 H 0.54396 0.17348 0.35202 0.0
H493 H 0.57252 0.1571 0.77742 0.0
H494 H 0.56152 0.07439 0.74204 0.0
H495 H 0.55223 0.05221 0.58564 0.0
H496 H 0.55278 0.11221 0.46364 0.0
C497 C 0.56415 0.19866 0.38685 0.0
C498 C 0.56353 0.20759 0.47967 0.0
C499 C 0.5631 0.17212 0.54908 0.0
C500 C 0.56909 0.18532 0.6385 0.0
C501 C 0.5685 0.14928 0.70772 0.0
C502 C 0.56225 0.10168 0.6884 0.0
C503 C 0.55691 0.08913 0.60034 0.0
C504 C 0.55737 0.12386 0.53107 0.0
H505 H 0.54664 0.25069 0.77087 0.0
C506 C 0.56727 0.25296 0.79955 0.0
H507 H 0.60528 0.24894 0.77701 0.0
H508 H 0.55838 0.27872 0.36162 0.0
H509 H 0.56724 0.3605 0.39629 0.0
H510 H 0.58091 0.38587 0.55101 0.0
H511 H 0.58535 0.32948 0.67169 0.0
C512 C 0.58518 0.24889 0.74854 0.0
C513 C 0.57564 0.23401 0.6569 0.0
C514 C 0.57378 0.26817 0.58794 0.0
C515 C 0.56701 0.25435 0.4989 0.0
C516 C 0.56441 0.28819 0.43038 0.0
C517 C 0.56927 0.33504 0.44943 0.0
C518 C 0.57688 0.34926 0.53653 0.0
C519 C 0.57924 0.31642 0.60528 0.0
loop_
_geom_bond_atom_site_label_1
_geom_bond_atom_site_label_2
_geom_bond_distance
_geom_bond_site_symmetry_2
_ccdc_geom_bond_type
Dy0 O3 2.307 . S
Dy0 O5 2.395 . S
Dy0 O6 2.379 . S
Dy0 O8 2.339 . S
Dy0 O10 2.298 . S
Dy0 O14 2.275 . S
Dy0 C22 2.738 . S
Dy1 O4 2.298 . S
Dy1 O7 2.275 . S
Dy1 O9 2.307 . S
Dy1 O11 2.395 1_455 S
Dy1 O12 2.379 1_455 S
Dy1 O15 2.339 . S
Dy1 C31 2.738 1_455 S
C2 O14 1.254 . S
C2 O15 1.257 . S
O3 Dy0 2.307 . S
O3 C13 1.266 . S
O4 Dy1 2.298 . S
O4 C13 1.236 . S
O5 Dy0 2.395 . S
O5 C22 1.255 . S
O6 Dy0 2.379 . S
O6 C22 1.249 . S
O7 Dy1 2.275 . S
O7 C23 1.254 . S
O8 Dy0 2.339 . S
O8 C23 1.257 . S
O9 Dy1 2.307 . S
O9 C24 1.266 . S
O10 Dy0 2.298 . S
O10 C24 1.236 . S
O11 Dy1 2.395 1_655 S
O11 C31 1.255 . S
O12 Dy1 2.379 1_655 S
O12 C31 1.249 . S
C13 O3 1.266 . S
C13 O4 1.236 . S
O14 Dy0 2.275 . S
O14 C2 1.254 . S
O15 Dy1 2.339 . S
O15 C2 1.257 . S
C16 C19 1.344 . S
C16 C20 1.328 . S
C16 C22 1.516 . S
C17 C18 1.304 . S
C17 C21 1.323 . S
C18 C17 1.304 . S
C18 C19 1.371 . S
C18 H32 0.930 . S
C19 C16 1.344 . S
C19 C18 1.371 . S
C19 H33 0.931 . S
C20 C16 1.328 . S
C20 C21 1.433 . S
C20 H34 0.931 . S
C21 C17 1.323 . S
C21 C20 1.433 . S
C21 H35 0.933 . S
C22 Dy0 2.738 . S
C22 O5 1.255 . S
C22 O6 1.249 . S
C22 C16 1.516 . S
C23 O7 1.254 . S
C23 O8 1.257 . S
C24 O9 1.266 . S
C24 O10 1.236 . S
C25 C28 1.344 . S
C25 C29 1.328 . S
C25 C31 1.516 . S
C26 C27 1.304 . S
C26 C30 1.323 . S
C27 C26 1.304 . S
C27 C28 1.371 . S
C27 H36 0.930 . S
C28 C25 1.344 . S
C28 C27 1.371 . S
C28 H37 0.931 . S
C29 C25 1.328 . S
C29 C30 1.433 . S
C29 H38 0.931 . S
C30 C26 1.323 . S
C30 C29 1.433 . S
C30 H39 0.933 . S
C31 Dy1 2.738 1_655 S
C31 O11 1.255 . S
C31 O12 1.249 . S
C31 C25 1.516 . S
H32 C18 0.930 . S
H33 C19 0.931 . S
H34 C20 0.931 . S
H35 C21 0.933 . S
H36 C27 0.930 . S
H37 C28 0.931 . S
H38 C29 0.931 . S
H39 C30 0.933 . S
Dy40 O43 2.307 . S
Dy40 O45 2.395 . S
Dy40 O46 2.379 . S
Dy40 O48 2.339 . S
Dy40 O50 2.298 . S
Dy40 O54 2.275 . S
Dy40 C62 2.738 . S
Dy41 O44 2.298 . S
Dy41 O47 2.275 . S
Dy41 O49 2.307 . S
Dy41 O51 2.395 1_455 S
Dy41 O52 2.379 1_455 S
Dy41 O55 2.339 . S
Dy41 C71 2.738 1_455 S
C42 O54 1.254 . S
C42 O55 1.257 . S
O43 Dy40 2.307 . S
O43 C53 1.266 . S
O44 Dy41 2.298 . S
O44 C53 1.236 . S
O45 Dy40 2.395 . S
O45 C62 1.255 . S
O46 Dy40 2.379 . S
O46 C62 1.249 . S
O47 Dy41 2.275 . S
O47 C63 1.254 . S
O48 Dy40 2.339 . S
O48 C63 1.257 . S
O49 Dy41 2.307 . S
O49 C64 1.266 . S
O50 Dy40 2.298 . S
O50 C64 1.236 . S
O51 Dy41 2.395 1_655 S
O51 C71 1.255 . S
O52 Dy41 2.379 1_655 S
O52 C71 1.249 . S
C53 O43 1.266 . S
C53 O44 1.236 . S
O54 Dy40 2.275 . S
O54 C42 1.254 . S
O55 Dy41 2.339 . S
O55 C42 1.257 . S
C56 C59 1.344 . S
C56 C60 1.328 . S
C56 C62 1.516 . S
C57 C58 1.304 . S
C57 C61 1.323 . S
C58 C57 1.304 . S
C58 C59 1.371 . S
C58 H72 0.930 . S
C59 C56 1.344 . S
C59 C58 1.371 . S
C59 H73 0.931 . S
C60 C56 1.328 . S
C60 C61 1.433 . S
C60 H74 0.931 . S
C61 C57 1.323 . S
C61 C60 1.433 . S
C61 H75 0.933 . S
C62 Dy40 2.738 . S
C62 O45 1.255 . S
C62 O46 1.249 . S
C62 C56 1.516 . S
C63 O47 1.254 . S
C63 O48 1.257 . S
C64 O49 1.266 . S
C64 O50 1.236 . S
C65 C68 1.344 . S
C65 C69 1.328 . S
C65 C71 1.516 . S
C66 C67 1.304 . S
C66 C70 1.323 . S
C67 C66 1.304 . S
C67 C68 1.371 . S
C67 H76 0.930 . S
C68 C65 1.344 . S
C68 C67 1.371 . S
C68 H77 0.931 . S
C69 C65 1.328 . S
C69 C70 1.433 . S
C69 H78 0.931 . S
C70 C66 1.323 . S
C70 C69 1.433 . S
C70 H79 0.933 . S
C71 Dy41 2.738 1_655 S
C71 O51 1.255 . S
C71 O52 1.249 . S
C71 C65 1.516 . S
H72 C58 0.930 . S
H73 C59 0.931 . S
H74 C60 0.931 . S
H75 C61 0.933 . S
H76 C67 0.930 . S
H77 C68 0.931 . S
H78 C69 0.931 . S
H79 C70 0.933 . S
Dy80 O83 2.307 . S
Dy80 O85 2.395 . S
Dy80 O86 2.379 . S
Dy80 O88 2.339 1_556 S
Dy80 O90 2.298 . S
Dy80 O94 2.275 . S
Dy80 C102 2.738 . S
Dy81 O84 2.298 . S
Dy81 O87 2.275 . S
Dy81 O89 2.307 . S
Dy81 O91 2.395 . S
Dy81 O92 2.379 . S
Dy81 O95 2.339 . S
Dy81 C111 2.738 . S
C82 O94 1.254 . S
C82 O95 1.257 . S
O83 Dy80 2.307 . S
O83 C93 1.266 . S
O84 Dy81 2.298 . S
O84 C93 1.236 . S
O85 Dy80 2.395 . S
O85 C102 1.255 . S
O86 Dy80 2.379 . S
O86 C102 1.249 . S
O87 Dy81 2.275 . S
O87 C103 1.254 1_556 S
O88 Dy80 2.339 1_554 S
O88 C103 1.257 . S
O89 Dy81 2.307 . S
O89 C104 1.266 . S
O90 Dy80 2.298 . S
O90 C104 1.236 . S
O91 Dy81 2.395 . S
O91 C111 1.255 . S
O92 Dy81 2.379 . S
O92 C111 1.249 . S
C93 O83 1.266 . S
C93 O84 1.236 . S
O94 Dy80 2.275 . S
O94 C82 1.254 . S
O95 Dy81 2.339 . S
O95 C82 1.257 . S
C96 C99 1.344 . S
C96 C100 1.328 . S
C96 C102 1.516 . S
C97 C98 1.304 . S
C97 C101 1.323 . S
C98 C97 1.304 . S
C98 C99 1.371 . S
C98 H112 0.930 . S
C99 C96 1.344 . S
C99 C98 1.371 . S
C99 H113 0.931 . S
C100 C96 1.328 . S
C100 C101 1.433 . S
C100 H114 0.931 1_556 S
C101 C97 1.323 . S
C101 C100 1.433 . S
C101 H115 0.933 . S
C102 Dy80 2.738 . S
C102 O85 1.255 . S
C102 O86 1.249 . S
C102 C96 1.516 . S
C103 O87 1.254 1_554 S
C103 O88 1.257 . S
C104 O89 1.266 . S
C104 O90 1.236 . S
C105 C108 1.344 . S
C105 C109 1.328 . S
C105 C111 1.516 . S
C106 C107 1.304 . S
C106 C110 1.323 . S
C107 C106 1.304 . S
C107 C108 1.371 . S
C107 H116 0.930 1_556 S
C108 C105 1.344 . S
C108 C107 1.371 . S
C108 H117 0.931 . S
C109 C105 1.328 . S
C109 C110 1.433 . S
C109 H118 0.931 . S
C110 C106 1.323 . S
C110 C109 1.433 . S
C110 H119 0.933 . S
C111 Dy81 2.738 . S
C111 O91 1.255 . S
C111 O92 1.249 . S
C111 C105 1.516 . S
H112 C98 0.930 . S
H113 C99 0.931 . S
H114 C100 0.931 1_554 S
H115 C101 0.933 . S
H116 C107 0.930 1_554 S
H117 C108 0.931 . S
H118 C109 0.931 . S
H119 C110 0.933 . S
Dy120 O123 2.307 . S
Dy120 O125 2.395 . S
Dy120 O126 2.379 . S
Dy120 O128 2.339 . S
Dy120 O130 2.298 . S
Dy120 O134 2.275 . S
Dy120 C142 2.738 . S
Dy121 O124 2.298 . S
Dy121 O127 2.275 . S
Dy121 O129 2.307 . S
Dy121 O131 2.395 . S
Dy121 O132 2.379 . S
Dy121 O135 2.339 1_554 S
Dy121 C151 2.738 . S
C122 O134 1.254 1_556 S
C122 O135 1.257 . S
O123 Dy120 2.307 . S
O123 C133 1.266 . S
O124 Dy121 2.298 . S
O124 C133 1.236 . S
O125 Dy120 2.395 . S
O125 C142 1.255 . S
O126 Dy120 2.379 . S
O126 C142 1.249 . S
O127 Dy121 2.275 . S
O127 C143 1.254 . S
O128 Dy120 2.339 . S
O128 C143 1.257 . S
O129 Dy121 2.307 . S
O129 C144 1.266 . S
O130 Dy120 2.298 . S
O130 C144 1.236 . S
O131 Dy121 2.395 . S
O131 C151 1.255 . S
O132 Dy121 2.379 . S
O132 C151 1.249 . S
C133 O123 1.266 . S
C133 O124 1.236 . S
O134 Dy120 2.275 . S
O134 C122 1.254 1_554 S
O135 Dy121 2.339 1_556 S
O135 C122 1.257 . S
C136 C139 1.344 . S
C136 C140 1.328 . S
C136 C142 1.516 . S
C137 C138 1.304 . S
C137 C141 1.323 . S
C138 C137 1.304 . S
C138 C139 1.371 . S
C138 H152 0.930 1_554 S
C139 C136 1.344 . S
C139 C138 1.371 . S
C139 H153 0.931 . S
C140 C136 1.328 . S
C140 C141 1.433 . S
C140 H154 0.931 . S
C141 C137 1.323 . S
C141 C140 1.433 . S
C141 H155 0.933 . S
C142 Dy120 2.738 . S
C142 O125 1.255 . S
C142 O126 1.249 . S
C142 C136 1.516 . S
C143 O127 1.254 . S
C143 O128 1.257 . S
C144 O129 1.266 . S
C144 O130 1.236 . S
C145 C148 1.344 . S
C145 C149 1.328 . S
C145 C151 1.516 . S
C146 C147 1.304 . S
C146 C150 1.323 . S
C147 C146 1.304 . S
C147 C148 1.371 . S
C147 H156 0.930 . S
C148 C145 1.344 . S
C148 C147 1.371 . S
C148 H157 0.931 . S
C149 C145 1.328 . S
C149 C150 1.433 . S
C149 H158 0.931 1_554 S
C150 C146 1.323 . S
C150 C149 1.433 . S
C150 H159 0.933 . S
C151 Dy121 2.738 . S
C151 O131 1.255 . S
C151 O132 1.249 . S
C151 C145 1.516 . S
H152 C138 0.930 1_556 S
H153 C139 0.931 . S
H154 C140 0.931 . S
H155 C141 0.933 . S
H156 C147 0.930 . S
H157 C148 0.931 . S
H158 C149 0.931 1_556 S
H159 C150 0.933 . S
H160 C161 0.951 . S
C161 H160 0.951 . S
C161 C167 1.265 . S
H162 C167 0.950 . S
H163 C171 0.949 . S
H164 C172 0.950 . S
H165 C173 0.951 . S
H166 C174 0.951 . S
C167 C161 1.265 . S
C167 H162 0.950 . S
C167 C168 1.478 . S
C168 C167 1.478 . S
C168 C169 1.397 . S
C168 C185 1.394 . S
C169 C168 1.397 . S
C169 C170 1.438 . S
C169 C174 1.429 . S
C170 C169 1.438 . S
C170 C171 1.428 . S
C170 C183 1.394 . S
C171 H163 0.949 . S
C171 C170 1.428 . S
C171 C172 1.345 . S
C172 H164 0.950 . S
C172 C171 1.345 . S
C172 C173 1.424 . S
C173 H165 0.951 . S
C173 C172 1.424 . S
C173 C174 1.347 . S
C174 H166 0.951 . S
C174 C169 1.429 . S
C174 C173 1.347 . S
H175 C176 0.951 . S
C176 H175 0.951 . S
C176 C182 1.265 . S
H177 C182 0.950 . S
H178 C186 0.949 . S
H179 C187 0.949 1_655 S
H180 C188 0.951 1_655 S
H181 C189 0.951 . S
C182 C176 1.265 . S
C182 H177 0.950 . S
C182 C183 1.478 . S
C183 C170 1.394 . S
C183 C182 1.478 . S
C183 C184 1.397 . S
C184 C183 1.397 . S
C184 C185 1.438 . S
C184 C189 1.429 . S
C185 C168 1.394 . S
C185 C184 1.438 . S
C185 C186 1.428 . S
C186 H178 0.949 . S
C186 C185 1.428 . S
C186 C187 1.345 . S
C187 H179 0.949 1_455 S
C187 C186 1.345 . S
C187 C188 1.424 . S
C188 H180 0.951 1_455 S
C188 C187 1.424 . S
C188 C189 1.347 . S
C189 H181 0.951 . S
C189 C184 1.429 . S
C189 C188 1.347 . S
H190 C191 0.951 . S
C191 H190 0.951 . S
C191 C197 1.265 . S
H192 C197 0.950 . S
H193 C201 0.949 . S
H194 C202 0.950 . S
H195 C203 0.951 . S
H196 C204 0.951 . S
C197 C191 1.265 . S
C197 H192 0.950 . S
C197 C198 1.478 . S
C198 C197 1.478 . S
C198 C199 1.397 . S
C198 C215 1.394 . S
C199 C198 1.397 . S
C199 C200 1.438 . S
C199 C204 1.429 . S
C200 C199 1.438 . S
C200 C201 1.428 . S
C200 C213 1.394 . S
C201 H193 0.949 . S
C201 C200 1.428 . S
C201 C202 1.345 . S
C202 H194 0.950 . S
C202 C201 1.345 . S
C202 C203 1.424 . S
C203 H195 0.951 . S
C203 C202 1.424 . S
C203 C204 1.347 . S
C204 H196 0.951 . S
C204 C199 1.429 . S
C204 C203 1.347 . S
H205 C206 0.951 . S
C206 H205 0.951 . S
C206 C212 1.265 . S
H207 C212 0.950 . S
H208 C216 0.949 . S
H209 C217 0.950 . S
H210 C218 0.951 . S
H211 C219 0.951 . S
C212 C206 1.265 . S
C212 H207 0.950 . S
C212 C213 1.478 . S
C213 C200 1.394 . S
C213 C212 1.478 . S
C213 C214 1.397 . S
C214 C213 1.397 . S
C214 C215 1.438 . S
C214 C219 1.429 . S
C215 C198 1.394 . S
C215 C214 1.438 . S
C215 C216 1.428 . S
C216 H208 0.949 . S
C216 C215 1.428 . S
C216 C217 1.345 . S
C217 H209 0.950 . S
C217 C216 1.345 . S
C217 C218 1.424 . S
C218 H210 0.951 . S
C218 C217 1.424 . S
C218 C219 1.347 . S
C219 H211 0.951 . S
C219 C214 1.429 . S
C219 C218 1.347 . S
H220 C221 0.951 . S
C221 H220 0.951 . S
C221 C227 1.265 . S
H222 C227 0.950 . S
H223 C231 0.949 . S
H224 C232 0.950 . S
H225 C233 0.951 . S
H226 C234 0.951 . S
C227 C221 1.265 . S
C227 H222 0.950 . S
C227 C228 1.478 . S
C228 C227 1.478 . S
C228 C229 1.397 . S
C228 C245 1.394 1_554 S
C229 C228 1.397 . S
C229 C230 1.438 . S
C229 C234 1.429 . S
C230 C229 1.438 . S
C230 C231 1.428 . S
C230 C243 1.394 1_554 S
C231 H223 0.949 . S
C231 C230 1.428 . S
C231 C232 1.345 . S
C232 H224 0.950 . S
C232 C231 1.345 . S
C232 C233 1.424 . S
C233 H225 0.951 . S
C233 C232 1.424 . S
C233 C234 1.347 . S
C234 H226 0.951 . S
C234 C229 1.429 . S
C234 C233 1.347 . S
H235 C236 0.951 . S
C236 H235 0.951 . S
C236 C242 1.265 . S
H237 C242 0.950 . S
H238 C246 0.949 . S
H239 C247 0.950 . S
H240 C248 0.951 . S
H241 C249 0.951 . S
C242 C236 1.265 . S
C242 H237 0.950 . S
C242 C243 1.478 . S
C243 C230 1.394 1_556 S
C243 C242 1.478 . S
C243 C244 1.397 . S
C244 C243 1.397 . S
C244 C245 1.438 . S
C244 C249 1.429 . S
C245 C228 1.394 1_556 S
C245 C244 1.438 . S
C245 C246 1.428 . S
C246 H238 0.949 . S
C246 C245 1.428 . S
C246 C247 1.345 . S
C247 H239 0.950 . S
C247 C246 1.345 . S
C247 C248 1.424 . S
C248 H240 0.951 . S
C248 C247 1.424 . S
C248 C249 1.347 . S
C249 H241 0.951 . S
C249 C244 1.429 . S
C249 C248 1.347 . S
H250 C251 0.951 . S
C251 H250 0.951 . S
C251 C257 1.265 . S
H252 C257 0.950 . S
H253 C261 0.949 . S
H254 C262 0.950 . S
H255 C263 0.951 . S
H256 C264 0.951 . S
C257 C251 1.265 . S
C257 H252 0.950 . S
C257 C258 1.478 . S
C258 C257 1.478 . S
C258 C259 1.397 . S
C258 C275 1.394 . S
C259 C258 1.397 . S
C259 C260 1.438 . S
C259 C264 1.429 . S
C260 C259 1.438 . S
C260 C261 1.428 . S
C260 C273 1.394 . S
C261 H253 0.949 . S
C261 C260 1.428 . S
C261 C262 1.345 . S
C262 H254 0.950 . S
C262 C261 1.345 . S
C262 C263 1.424 . S
C263 H255 0.951 . S
C263 C262 1.424 . S
C263 C264 1.347 . S
C264 H256 0.951 . S
C264 C259 1.429 . S
C264 C263 1.347 . S
H265 C266 0.951 . S
C266 H265 0.951 . S
C266 C272 1.265 . S
H267 C272 0.950 . S
H268 C276 0.949 . S
H269 C277 0.950 . S
H270 C278 0.951 . S
H271 C279 0.951 . S
C272 C266 1.265 . S
C272 H267 0.950 . S
C272 C273 1.478 . S
C273 C260 1.394 . S
C273 C272 1.478 . S
C273 C274 1.397 . S
C274 C273 1.397 . S
C274 C275 1.438 . S
C274 C279 1.429 . S
C275 C258 1.394 . S
C275 C274 1.438 . S
C275 C276 1.428 . S
C276 H268 0.949 . S
C276 C275 1.428 . S
C276 C277 1.345 . S
C277 H269 0.950 . S
C277 C276 1.345 . S
C277 C278 1.424 . S
C278 H270 0.951 . S
C278 C277 1.424 . S
C278 C279 1.347 . S
C279 H271 0.951 . S
C279 C274 1.429 . S
C279 C278 1.347 . S
H280 C281 0.951 . S
C281 H280 0.951 . S
C281 C287 1.265 . S
H282 C287 0.950 . S
H283 C291 0.949 . S
H284 C292 0.950 . S
H285 C293 0.951 . S
H286 C294 0.951 . S
C287 C281 1.265 . S
C287 H282 0.950 . S
C287 C288 1.478 . S
C288 C287 1.478 . S
C288 C289 1.397 . S
C288 C305 1.394 . S
C289 C288 1.397 . S
C289 C290 1.438 . S
C289 C294 1.429 . S
C290 C289 1.438 . S
C290 C291 1.428 . S
C290 C303 1.394 . S
C291 H283 0.949 . S
C291 C290 1.428 . S
C291 C292 1.345 . S
C292 H284 0.950 . S
C292 C291 1.345 . S
C292 C293 1.424 . S
C293 H285 0.951 . S
C293 C292 1.424 . S
C293 C294 1.347 . S
C294 H286 0.951 . S
C294 C289 1.429 . S
C294 C293 1.347 . S
H295 C296 0.951 . S
C296 H295 0.951 . S
C296 C302 1.265 . S
H297 C302 0.950 . S
H298 C306 0.949 . S
H299 C307 0.950 . S
H300 C308 0.951 . S
H301 C309 0.951 . S
C302 C296 1.265 . S
C302 H297 0.950 . S
C302 C303 1.478 . S
C303 C290 1.394 . S
C303 C302 1.478 . S
C303 C304 1.397 . S
C304 C303 1.397 . S
C304 C305 1.438 . S
C304 C309 1.429 . S
C305 C288 1.394 . S
C305 C304 1.438 . S
C305 C306 1.428 . S
C306 H298 0.949 . S
C306 C305 1.428 . S
C306 C307 1.345 . S
C307 H299 0.950 . S
C307 C306 1.345 . S
C307 C308 1.424 . S
C308 H300 0.951 . S
C308 C307 1.424 . S
C308 C309 1.347 . S
C309 H301 0.951 . S
C309 C304 1.429 . S
C309 C308 1.347 . S
H310 C311 0.951 . S
C311 H310 0.951 . S
C311 C317 1.265 . S
H312 C317 0.950 . S
H313 C321 0.949 . S
H314 C322 0.950 . S
H315 C323 0.951 . S
H316 C324 0.951 . S
C317 C311 1.265 . S
C317 H312 0.950 . S
C317 C318 1.478 . S
C318 C317 1.478 . S
C318 C319 1.397 . S
C318 C335 1.394 . S
C319 C318 1.397 . S
C319 C320 1.438 . S
C319 C324 1.429 . S
C320 C319 1.438 . S
C320 C321 1.428 . S
C320 C333 1.394 . S
C321 H313 0.949 . S
C321 C320 1.428 . S
C321 C322 1.345 . S
C322 H314 0.950 . S
C322 C321 1.345 . S
C322 C323 1.424 . S
C323 H315 0.951 . S
C323 C322 1.424 . S
C323 C324 1.347 . S
C324 H316 0.951 . S
C324 C319 1.429 . S
C324 C323 1.347 . S
H325 C326 0.951 . S
C326 H325 0.951 . S
C326 C332 1.265 . S
H327 C332 0.950 . S
H328 C336 0.949 . S
H329 C337 0.950 . S
H330 C338 0.951 . S
H331 C339 0.951 . S
C332 C326 1.265 . S
C332 H327 0.950 . S
C332 C333 1.478 . S
C333 C320 1.394 . S
C333 C332 1.478 . S
C333 C334 1.397 . S
C334 C333 1.397 . S
C334 C335 1.438 . S
C334 C339 1.429 . S
C335 C318 1.394 . S
C335 C334 1.438 . S
C335 C336 1.428 . S
C336 H328 0.949 . S
C336 C335 1.428 . S
C336 C337 1.345 . S
C337 H329 0.950 . S
C337 C336 1.345 . S
C337 C338 1.424 . S
C338 H330 0.951 . S
C338 C337 1.424 . S
C338 C339 1.347 . S
C339 H331 0.951 . S
C339 C334 1.429 . S
C339 C338 1.347 . S
H340 C341 0.951 . S
C341 H340 0.951 . S
C341 C347 1.265 . S
H342 C347 0.950 . S
H343 C351 0.949 1_545 S
H344 C352 0.950 . S
H345 C353 0.951 . S
H346 C354 0.951 . S
C347 C341 1.265 . S
C347 H342 0.950 . S
C347 C348 1.478 . S
C348 C347 1.478 . S
C348 C349 1.397 1_556 S
C348 C365 1.394 1_565 S
C349 C348 1.397 1_554 S
C349 C350 1.438 . S
C349 C354 1.429 . S
C350 C349 1.438 . S
C350 C351 1.428 . S
C350 C363 1.394 1_565 S
C351 H343 0.949 1_565 S
C351 C350 1.428 . S
C351 C352 1.345 . S
C352 H344 0.950 . S
C352 C351 1.345 . S
C352 C353 1.424 . S
C353 H345 0.951 . S
C353 C352 1.424 . S
C353 C354 1.347 . S
C354 H346 0.951 . S
C354 C349 1.429 . S
C354 C353 1.347 . S
H355 C356 0.951 . S
C356 H355 0.951 . S
C356 C362 1.265 . S
H357 C362 0.950 . S
H358 C366 0.949 1_565 S
H359 C367 0.950 . S
H360 C368 0.951 . S
H361 C369 0.951 . S
C362 C356 1.265 . S
C362 H357 0.950 . S
C362 C363 1.478 . S
C363 C350 1.394 1_545 S
C363 C362 1.478 . S
C363 C364 1.397 1_554 S
C364 C363 1.397 1_556 S
C364 C365 1.438 . S
C364 C369 1.429 . S
C365 C348 1.394 1_545 S
C365 C364 1.438 . S
C365 C366 1.428 . S
C366 H358 0.949 1_545 S
C366 C365 1.428 . S
C366 C367 1.345 . S
C367 H359 0.950 . S
C367 C366 1.345 . S
C367 C368 1.424 . S
C368 H360 0.951 . S
C368 C367 1.424 . S
C368 C369 1.347 . S
C369 H361 0.951 . S
C369 C364 1.429 . S
C369 C368 1.347 . S
H370 C371 0.951 . S
C371 H370 0.951 . S
C371 C377 1.265 . S
H372 C377 0.950 . S
H373 C381 0.949 . S
H374 C382 0.950 . S
H375 C383 0.951 . S
H376 C384 0.951 . S
C377 C371 1.265 . S
C377 H372 0.950 . S
C377 C378 1.478 . S
C378 C377 1.478 . S
C378 C379 1.397 . S
C378 C395 1.394 . S
C379 C378 1.397 . S
C379 C380 1.438 1_565 S
C379 C384 1.429 . S
C380 C379 1.438 1_545 S
C380 C381 1.428 . S
C380 C393 1.394 . S
C381 H373 0.949 . S
C381 C380 1.428 . S
C381 C382 1.345 1_455 S
C382 H374 0.950 . S
C382 C381 1.345 1_655 S
C382 C383 1.424 1_545 S
C383 H375 0.951 . S
C383 C382 1.424 1_565 S
C383 C384 1.347 1_655 S
C384 H376 0.951 . S
C384 C379 1.429 . S
C384 C383 1.347 1_455 S
H385 C386 0.951 . S
C386 H385 0.951 . S
C386 C392 1.265 . S
H387 C392 0.950 . S
H388 C396 0.949 . S
H389 C397 0.950 . S
H390 C398 0.951 . S
H391 C399 0.951 . S
C392 C386 1.265 . S
C392 H387 0.950 . S
C392 C393 1.478 . S
C393 C380 1.394 . S
C393 C392 1.478 . S
C393 C394 1.397 . S
C394 C393 1.397 . S
C394 C395 1.438 1_545 S
C394 C399 1.429 . S
C395 C378 1.394 . S
C395 C394 1.438 1_565 S
C395 C396 1.428 . S
C396 H388 0.949 . S
C396 C395 1.428 . S
C396 C397 1.345 . S
C397 H389 0.950 . S
C397 C396 1.345 . S
C397 C398 1.424 1_565 S
C398 H390 0.951 . S
C398 C397 1.424 1_545 S
C398 C399 1.347 . S
C399 H391 0.951 . S
C399 C394 1.429 . S
C399 C398 1.347 . S
H400 C401 0.951 . S
C401 H400 0.951 . S
C401 C407 1.265 . S
H402 C407 0.950 . S
H403 C411 0.949 . S
H404 C412 0.950 . S
H405 C413 0.951 . S
H406 C414 0.951 . S
C407 C401 1.265 . S
C407 H402 0.950 . S
C407 C408 1.478 1_554 S
C408 C407 1.478 1_556 S
C408 C409 1.397 . S
C408 C425 1.394 . S
C409 C408 1.397 . S
C409 C410 1.438 . S
C409 C414 1.429 . S
C410 C409 1.438 . S
C410 C411 1.428 . S
C410 C423 1.394 . S
C411 H403 0.949 . S
C411 C410 1.428 . S
C411 C412 1.345 . S
C412 H404 0.950 . S
C412 C411 1.345 . S
C412 C413 1.424 . S
C413 H405 0.951 . S
C413 C412 1.424 . S
C413 C414 1.347 . S
C414 H406 0.951 . S
C414 C409 1.429 . S
C414 C413 1.347 . S
H415 C416 0.951 . S
C416 H415 0.951 . S
C416 C422 1.265 . S
H417 C422 0.950 . S
H418 C426 0.949 . S
H419 C427 0.950 1_554 S
H420 C428 0.951 . S
H421 C429 0.951 . S
C422 C416 1.265 . S
C422 H417 0.950 . S
C422 C423 1.478 . S
C423 C410 1.394 . S
C423 C422 1.478 . S
C423 C424 1.397 . S
C424 C423 1.397 . S
C424 C425 1.438 . S
C424 C429 1.429 . S
C425 C408 1.394 . S
C425 C424 1.438 . S
C425 C426 1.428 1_556 S
C426 H418 0.949 . S
C426 C425 1.428 1_554 S
C426 C427 1.345 1_554 S
C427 H419 0.950 1_556 S
C427 C426 1.345 1_556 S
C427 C428 1.424 . S
C428 H420 0.951 . S
C428 C427 1.424 . S
C428 C429 1.347 . S
C429 H421 0.951 . S
C429 C424 1.429 . S
C429 C428 1.347 . S
H430 C431 0.951 . S
C431 H430 0.951 . S
C431 C437 1.265 . S
H432 C437 0.950 . S
H433 C441 0.949 . S
H434 C442 0.950 . S
H435 C443 0.951 . S
H436 C444 0.951 1_556 S
C437 C431 1.265 . S
C437 H432 0.950 . S
C437 C438 1.478 1_556 S
C438 C437 1.478 1_554 S
C438 C439 1.397 . S
C438 C455 1.394 . S
C439 C438 1.397 . S
C439 C440 1.438 . S
C439 C444 1.429 . S
C440 C439 1.438 . S
C440 C441 1.428 . S
C440 C453 1.394 . S
C441 H433 0.949 . S
C441 C440 1.428 . S
C441 C442 1.345 . S
C442 H434 0.950 . S
C442 C441 1.345 . S
C442 C443 1.424 . S
C443 H435 0.951 . S
C443 C442 1.424 . S
C443 C444 1.347 . S
C444 H436 0.951 1_554 S
C444 C439 1.429 . S
C444 C443 1.347 . S
H445 C446 0.951 . S
C446 H445 0.951 . S
C446 C452 1.265 . S
H447 C452 0.950 . S
H448 C456 0.949 1_556 S
H449 C457 0.950 . S
H450 C458 0.951 . S
H451 C459 0.951 . S
C452 C446 1.265 . S
C452 H447 0.950 . S
C452 C453 1.478 . S
C453 C440 1.394 . S
C453 C452 1.478 . S
C453 C454 1.397 . S
C454 C453 1.397 . S
C454 C455 1.438 . S
C454 C459 1.429 . S
C455 C438 1.394 . S
C455 C454 1.438 . S
C455 C456 1.428 . S
C456 H448 0.949 1_554 S
C456 C455 1.428 . S
C456 C457 1.345 1_455 S
C457 H449 0.950 . S
C457 C456 1.345 1_655 S
C457 C458 1.424 . S
C458 H450 0.951 . S
C458 C457 1.424 . S
C458 C459 1.347 1_655 S
C459 H451 0.951 . S
C459 C454 1.429 . S
C459 C458 1.347 1_455 S
H460 C461 0.951 . S
C461 H460 0.951 . S
C461 C467 1.265 . S
H462 C467 0.950 . S
H463 C471 0.949 . S
H464 C472 0.950 . S
H465 C473 0.951 . S
H466 C474 0.951 . S
C467 C461 1.265 . S
C467 H462 0.950 . S
C467 C468 1.478 . S
C468 C467 1.478 . S
C468 C469 1.397 . S
C468 C485 1.394 . S
C469 C468 1.397 . S
C469 C470 1.438 . S
C469 C474 1.429 . S
C470 C469 1.438 . S
C470 C471 1.428 . S
C470 C483 1.394 . S
C471 H463 0.949 . S
C471 C470 1.428 . S
C471 C472 1.345 . S
C472 H464 0.950 . S
C472 C471 1.345 . S
C472 C473 1.424 . S
C473 H465 0.951 . S
C473 C472 1.424 . S
C473 C474 1.347 . S
C474 H466 0.951 . S
C474 C469 1.429 . S
C474 C473 1.347 . S
H475 C476 0.951 . S
C476 H475 0.951 . S
C476 C482 1.265 . S
H477 C482 0.950 . S
H478 C486 0.949 . S
H479 C487 0.950 . S
H480 C488 0.951 . S
H481 C489 0.951 . S
C482 C476 1.265 . S
C482 H477 0.950 . S
C482 C483 1.478 . S
C483 C470 1.394 . S
C483 C482 1.478 . S
C483 C484 1.397 . S
C484 C483 1.397 . S
C484 C485 1.438 . S
C484 C489 1.429 . S
C485 C468 1.394 . S
C485 C484 1.438 . S
C485 C486 1.428 . S
C486 H478 0.949 . S
C486 C485 1.428 . S
C486 C487 1.345 . S
C487 H479 0.950 . S
C487 C486 1.345 . S
C487 C488 1.424 . S
C488 H480 0.951 . S
C488 C487 1.424 . S
C488 C489 1.347 . S
C489 H481 0.951 . S
C489 C484 1.429 . S
C489 C488 1.347 . S
H490 C491 0.951 . S
C491 H490 0.951 . S
C491 C497 1.265 . S
H492 C497 0.950 . S
H493 C501 0.949 . S
H494 C502 0.950 . S
H495 C503 0.951 . S
H496 C504 0.951 . S
C497 C491 1.265 . S
C497 H492 0.950 . S
C497 C498 1.478 . S
C498 C497 1.478 . S
C498 C499 1.397 . S
C498 C515 1.394 . S
C499 C498 1.397 . S
C499 C500 1.438 . S
C499 C504 1.429 . S
C500 C499 1.438 . S
C500 C501 1.428 . S
C500 C513 1.394 . S
C501 H493 0.949 . S
C501 C500 1.428 . S
C501 C502 1.345 . S
C502 H494 0.950 . S
C502 C501 1.345 . S
C502 C503 1.424 . S
C503 H495 0.951 . S
C503 C502 1.424 . S
C503 C504 1.347 . S
C504 H496 0.951 . S
C504 C499 1.429 . S
C504 C503 1.347 . S
H505 C506 0.951 . S
C506 H505 0.951 . S
C506 C512 1.265 . S
H507 C512 0.950 . S
H508 C516 0.949 . S
H509 C517 0.950 . S
H510 C518 0.951 . S
H511 C519 0.951 . S
C512 C506 1.265 . S
C512 H507 0.950 . S
C512 C513 1.478 . S
C513 C500 1.394 . S
C513 C512 1.478 . S
C513 C514 1.397 . S
C514 C513 1.397 . S
C514 C515 1.438 . S
C514 C519 1.429 . S
C515 C498 1.394 . S
C515 C514 1.438 . S
C515 C516 1.428 . S
C516 H508 0.949 . S
C516 C515 1.428 . S
C516 C517 1.345 . S
C517 H509 0.950 . S
C517 C516 1.345 . S
C517 C518 1.424 . S
C518 H510 0.951 . S
C518 C517 1.424 . S
C518 C519 1.347 . S
C519 H511 0.951 . S
C519 C514 1.429 . S
C519 C518 1.347 . S
C161 C13 1.893 . S
C176 C64 1.893 . S
C191 C97 1.933 . S
C206 C66 1.933 . S
C221 C133 1.558 . S
C236 C104 1.558 . S
C251 C26 1.638 . S
C266 C137 1.638 . S
C281 C146 1.920 . S
C296 C17 1.920 . S
C311 C106 1.591 . S
C326 C57 1.591 . S
C341 C93 1.886 . S
C356 C144 1.886 . S
C371 C53 1.594 . S
C386 C24 1.594 . S
C401 C2 0.937 . S
C416 C23 0.937 . S
C431 C63 0.936 . S
C446 C42 0.936 . S
C461 C103 0.936 . S
C476 C82 0.936 . S
C491 C143 0.810 . S
C506 C122 0.810 . S
