# Generated by pormake.
# Topology rkf, (6)-cn, num edge types: 1
# Building blocks:
#     Node 0, Type 0, BuildingBlock: INOVEN_clean_sbu_0, # of connection points: 6
#     Node 1, Type 0, BuildingBlock: INOVEN_clean_sbu_0, # of connection points: 6
#     Node 2, Type 0, BuildingBlock: INOVEN_clean_sbu_0, # of connection points: 6
#     Node 3, Type 0, BuildingBlock: INOVEN_clean_sbu_0, # of connection points: 6
#     Node 4, Type 0, BuildingBlock: INOVEN_clean_sbu_0, # of connection points: 6
#     Node 5, Type 0, BuildingBlock: INOVEN_clean_sbu_0, # of connection points: 6
#     Edge 6, Type (0, 0), BuildingBlock: FUNLAD_clean_linker_0, # of connection points: 2
#     Edge 7, Type (0, 0), BuildingBlock: FUNLAD_clean_linker_0, # of connection points: 2
#     Edge 8, Type (0, 0), BuildingBlock: FUNLAD_clean_linker_0, # of connection points: 2
#     Edge 9, Type (0, 0), BuildingBlock: FUNLAD_clean_linker_0, # of connection points: 2
#     Edge 10, Type (0, 0), BuildingBlock: FUNLAD_clean_linker_0, # of connection points: 2
#     Edge 11, Type (0, 0), BuildingBlock: FUNLAD_clean_linker_0, # of connection points: 2
#     Edge 12, Type (0, 0), BuildingBlock: FUNLAD_clean_linker_0, # of connection points: 2
#     Edge 13, Type (0, 0), BuildingBlock: FUNLAD_clean_linker_0, # of connection points: 2
#     Edge 14, Type (0, 0), BuildingBlock: FUNLAD_clean_linker_0, # of connection points: 2
#     Edge 15, Type (0, 0), BuildingBlock: FUNLAD_clean_linker_0, # of connection points: 2
#     Edge 16, Type (0, 0), BuildingBlock: FUNLAD_clean_linker_0, # of connection points: 2
#     Edge 17, Type (0, 0), BuildingBlock: FUNLAD_clean_linker_0, # of connection points: 2
#     Edge 18, Type (0, 0), BuildingBlock: FUNLAD_clean_linker_0, # of connection points: 2
#     Edge 19, Type (0, 0), BuildingBlock: FUNLAD_clean_linker_0, # of connection points: 2
#     Edge 20, Type (0, 0), BuildingBlock: FUNLAD_clean_linker_0, # of connection points: 2
#     Edge 21, Type (0, 0), BuildingBlock: FUNLAD_clean_linker_0, # of connection points: 2
#     Edge 22, Type (0, 0), BuildingBlock: FUNLAD_clean_linker_0, # of connection points: 2
#     Edge 23, Type (0, 0), BuildingBlock: FUNLAD_clean_linker_0, # of connection points: 2
# Relax obj value: 0.578
# Max RMSD: 0.253
# Mean RMSD: 0.253
data_MOF--net-rkf--node1-INOVEN_clean_sbu_0--edge1-FUNLAD_clean_linker_0
_symmetry_space_group_name_H-M    P1
_symmetry_Int_Tables_number       1
_symmetry_cell_setting            triclinic
loop_
_symmetry_equiv_pos_as_xyz
'x, y, z'
_cell_length_a     29.143492
_cell_length_b     29.427898
_cell_length_c     51.200688
_cell_angle_alpha  89.898698
_cell_angle_beta   90.075579
_cell_angle_gamma 119.85297
loop_
_atom_site_label
_atom_site_type_symbol
_atom_site_fract_x
_atom_site_fract_y
_atom_site_fract_z
_atom_type_partial_charge
Gd0 Gd 0.28215 0.04669 0.13238 0.0
Gd1 Gd 0.28601 0.14802 1.11972 0.0
C2 C 0.27581 0.11183 0.18019 0.0
C3 C 0.306 -0.02639 0.13824 0.0
C4 C 0.31918 0.95235 0.16109 0.0
C5 C 0.32709 -0.02279 0.18531 0.0
C6 C 0.31511 0.90297 0.15972 0.0
C7 C 0.3164 0.89909 0.20722 0.0
C8 C 0.3142 0.87663 0.18264 0.0
C9 C 0.32568 0.95083 0.2082 0.0
C10 C 0.185 0.03701 0.13074 0.0
C11 C 0.27055 0.07442 1.07065 0.0
C12 C 0.28178 0.23365 1.11714 0.0
C13 C 0.30844 0.28282 1.10233 0.0
C14 C 0.31831 0.32959 1.11435 0.0
C15 C 0.32627 0.28403 1.0768 0.0
C16 C 0.36217 0.37852 1.07506 0.0
C17 C 0.35263 0.3314 1.06324 0.0
C18 C 0.345 0.3771 1.10086 0.0
C19 C 0.38024 0.15122 1.1199 0.0
O20 O 0.29344 0.08 0.17319 0.0
O21 O 0.25967 0.13314 0.16221 0.0
O22 O 0.25746 0.96502 0.13815 0.0
O23 O 0.34067 0.02158 0.13145 0.0
O24 O 0.19868 0.01194 0.1471 0.0
O25 O 0.22371 0.06547 1.11619 0.0
O26 O 0.26783 0.11571 1.07882 0.0
O27 O 0.28059 0.04565 1.08735 0.0
O28 O 0.31187 0.22648 0.13357 0.0
O29 O 0.24965 0.19116 1.10419 0.0
O30 O 0.36767 0.17532 1.10258 0.0
O31 O 0.34346 0.12851 0.13608 0.0
H32 H 0.33032 0.01541 0.18669 0.0
H33 H 0.30913 0.88336 0.1411 0.0
H34 H 0.30813 0.83731 0.18116 0.0
H35 H 0.32707 0.96941 0.22665 0.0
H36 H 0.30545 0.32935 0.13422 0.0
H37 H 0.31958 0.24836 1.0673 0.0
H38 H 0.36434 0.33081 1.04323 0.0
H39 H 0.35215 0.41266 1.11062 0.0
Gd40 Gd 0.32256 0.30101 0.46698 0.0
Gd41 Gd 0.21156 0.28449 0.45844 0.0
C42 C 0.24647 0.28948 0.51726 0.0
C43 C 0.42127 0.34225 0.47956 0.0
C44 C 0.44943 0.34524 0.50389 0.0
C45 C 0.4279 0.34678 0.52812 0.0
C46 C 0.49482 0.34027 0.50309 0.0
C47 C 0.49345 0.33256 0.55048 0.0
C48 C 0.51677 0.33405 0.52621 0.0
C49 C 0.4497 0.34057 0.55118 0.0
C50 C 0.24765 0.19969 0.4641 0.0
C51 C 0.27386 0.27009 0.40895 0.0
C52 C 0.1163 0.26295 0.4472 0.0
C53 C 0.09142 0.29005 0.43424 0.0
C54 C 0.05637 0.30035 0.4484 0.0
C55 C 0.10239 0.30624 0.40808 0.0
C56 C 0.04221 0.34117 0.41022 0.0
C57 C 0.0779 0.33134 0.39619 0.0
C58 C 0.03214 0.32582 0.43656 0.0
C59 C 0.29246 0.38489 0.45713 0.0
O60 O 0.29572 0.3106 0.50815 0.0
O61 O 0.20596 0.26591 0.50114 0.0
O62 O 0.39347 0.29511 0.46988 0.0
O63 O 0.39627 0.36893 0.47876 0.0
O64 O 0.29737 0.21686 0.45939 0.0
O65 O 0.2424 0.23578 0.47449 0.0
O66 O 0.22785 0.25852 0.41962 0.0
O67 O 0.31869 0.29465 0.42255 0.0
O68 O 0.1391 0.28268 0.46954 0.0
O69 O 0.14354 0.2483 0.43266 0.0
O70 O 0.24757 0.37133 0.46803 0.0
O71 O 0.29147 0.34578 0.44719 0.0
H72 H 0.39272 0.3503 0.52922 0.0
H73 H 0.5119 0.33888 0.48453 0.0
H74 H 0.55075 0.32849 0.52503 0.0
H75 H 0.43009 0.33878 0.56942 0.0
H76 H 0.04754 0.28845 0.46865 0.0
H77 H 0.12938 0.29903 0.39666 0.0
H78 H 0.08579 0.34156 0.37572 0.0
H79 H 0.00526 0.33314 0.44799 0.0
Gd80 Gd 0.12149 0.32363 0.80694 0.0
Gd81 Gd 0.00707 0.28402 0.79222 0.0
C82 C 0.02948 0.2676 0.8514 0.0
C83 C 0.21648 0.38101 0.82439 0.0
C84 C 0.24197 0.41367 0.84736 0.0
C85 C 0.21704 0.40098 0.8718 0.0
C86 C 0.29109 0.45942 0.84454 0.0
C87 C 0.29142 0.47871 0.89073 0.0
C88 C 0.31566 0.49175 0.86602 0.0
C89 C 0.24166 0.43306 0.89332 0.0
C90 C 0.07103 0.22514 0.78838 0.0
C91 C 0.09437 0.31052 0.74576 0.0
C92 C 0.91084 0.24107 0.77515 0.0
C93 C 0.87117 0.1943 0.76103 0.0
C94 C 0.82457 0.15836 0.77399 0.0
C95 C 0.87752 0.18636 0.73455 0.0
C96 C 0.79016 0.10862 0.73401 0.0
C97 C 0.83725 0.14394 0.72115 0.0
C98 C 0.78453 0.11566 0.76065 0.0
C99 C 0.06111 0.38484 0.80939 0.0
O100 O 0.07931 0.3046 0.8469 0.0
O101 O -0.00423 0.24715 0.83181 0.0
O102 O 0.18892 0.33017 0.82807 0.0
O103 O 0.19326 0.39866 0.80882 0.0
O104 O 0.12157 0.25662 0.78555 0.0
O105 O 0.05173 0.2455 0.80304 0.0
O106 O 0.04379 0.28355 0.75283 0.0
O107 O 0.13218 0.33565 0.76329 0.0
O108 O 0.95154 0.27653 0.76205 0.0
O109 O 0.92325 0.23316 0.79857 0.0
O110 O 0.01196 0.35279 0.81453 0.0
O111 O 0.07776 0.36268 0.7944 0.0
H112 H 0.17878 0.36611 0.87431 0.0
H113 H 0.31046 0.47014 0.82567 0.0
H114 H 0.35364 0.52683 0.8633 0.0
H115 H 0.22226 0.42124 0.91213 0.0
H116 H 0.81867 0.16387 0.79438 0.0
H117 H 0.9131 0.21325 0.72405 0.0
H118 H 0.84276 0.13886 0.70066 0.0
H119 H 0.74852 0.08909 0.77095 0.0
Gd120 Gd 0.8643 0.12173 0.14117 0.0
Gd121 Gd 0.80535 0.01083 1.12265 0.0
C122 C 0.82515 0.02717 0.1836 0.0
C123 C 0.89319 0.21204 0.16185 0.0
C124 C 0.88064 0.23301 0.18499 0.0
C125 C 0.91862 0.28175 0.19481 0.0
C126 C 0.83118 0.2052 0.19729 0.0
C127 C 0.8588 0.27419 0.22984 0.0
C128 C 0.82028 0.22573 0.2195 0.0
C129 C 0.90791 0.30216 0.21706 0.0
C130 C 0.92585 0.08098 1.12668 0.0
C131 C 0.86384 0.10655 1.07975 0.0
C132 C 0.77081 0.92023 1.10078 0.0
C133 C 0.78998 0.88477 1.09248 0.0
C134 C 0.81917 0.87068 1.10919 0.0
C135 C 0.77799 0.86408 1.06718 0.0
C136 C 0.82354 0.8151 1.07528 0.0
C137 C 0.79462 0.82968 1.05865 0.0
C138 C 0.83603 0.83623 1.1006 0.0
C139 C 0.74196 0.05029 0.136 0.0
O140 O 0.83123 0.07433 0.17896 0.0
O141 O 0.82428 -0.00214 0.16382 0.0
O142 O 0.91833 0.18616 0.16592 0.0
O143 O 0.85539 0.18993 0.14451 0.0
O144 O 0.93839 0.12924 1.12221 0.0
O145 O 0.88369 0.05868 0.13944 0.0
O146 O 0.84563 0.05623 1.08512 0.0
O147 O 0.86829 0.13948 1.09836 0.0
O148 O 0.78859 0.96384 1.08764 0.0
O149 O 0.76757 0.92639 1.12583 0.0
O150 O 0.72993 0.00215 0.13934 0.0
O151 O 0.78497 0.07422 1.12383 0.0
H152 H 0.95696 0.30367 0.1855 0.0
H153 H 0.80124 0.16748 0.18986 0.0
H154 H 0.78197 0.20337 0.22875 0.0
H155 H 0.93893 0.33899 0.22477 0.0
H156 H 0.8291 0.88634 1.12881 0.0
H157 H 0.75565 0.87456 1.05397 0.0
H158 H 0.78531 0.81493 1.03885 0.0
H159 H 0.85831 0.82573 1.11382 0.0
Gd160 Gd 0.79077 0.84838 0.46955 0.0
Gd161 Gd 0.84414 0.78497 0.45393 0.0
C162 C 0.85012 0.81512 0.51435 0.0
C163 C 0.72524 0.87373 0.48913 0.0
C164 C 0.69625 0.86151 0.51384 0.0
C165 C 0.67759 0.8941 0.52293 0.0
C166 C 0.68976 0.81913 0.52919 0.0
C167 C 0.65023 0.84496 0.5637 0.0
C168 C 0.66682 0.81085 0.55393 0.0
C169 C 0.6547 0.88591 0.54766 0.0
C170 C 0.88969 0.90589 0.45172 0.0
C171 C 0.80726 0.83917 0.40813 0.0
C172 C 0.89759 0.74278 0.43668 0.0
C173 C 0.93395 0.74786 0.41579 0.0
C174 C 0.95518 0.7144 0.41582 0.0
C175 C 0.94903 0.78639 0.39641 0.0
C176 C 0.00657 0.75757 0.37709 0.0
C177 C -0.01496 0.79111 0.3771 0.0
C178 C -0.00873 0.71921 0.39665 0.0
C179 C 0.74331 0.7296 0.47134 0.0
O180 O 0.81262 0.8272 0.5093 0.0
O181 O 0.87276 0.80309 0.49532 0.0
O182 O 0.7767 0.90365 0.49098 0.0
O183 O 0.7109 0.83403 0.47329 0.0
O184 O 0.8541 0.92 0.44923 0.0
O185 O 0.87269 0.8658 0.46593 0.0
O186 O 0.83817 0.81964 0.41486 0.0
O187 O 0.77909 0.84768 0.42581 0.0
O188 O 0.84846 0.72657 0.43 0.0
O189 O 0.91604 0.78085 0.45374 0.0
O190 O 0.77906 0.7171 0.47661 0.0
O191 O 0.76199 0.76831 0.45631 0.0
H192 H 0.68245 0.92701 0.5113 0.0
H193 H 0.70385 0.7934 0.52236 0.0
H194 H 0.6636 0.7788 0.56573 0.0
H195 H 0.64326 0.9135 0.55474 0.0
H196 H 0.94393 0.68459 0.43077 0.0
H197 H 0.93327 0.81287 0.39634 0.0
H198 H -0.00342 0.82138 0.3624 0.0
H199 H 0.00672 0.6925 0.39695 0.0
Gd200 Gd 0.01216 0.79847 0.80437 0.0
Gd201 Gd 0.10441 0.90374 0.78706 0.0
C202 C 0.08893 0.8858 0.84778 0.0
C203 C 0.96041 0.7075 0.82596 0.0
C204 C -0.03542 0.68962 0.85225 0.0
C205 C 0.91849 0.65938 0.86679 0.0
C206 C 0.01412 0.70947 0.86446 0.0
C207 C -0.02903 0.67622 0.90637 0.0
C208 C 0.01727 0.70257 0.89127 0.0
C209 C 0.9216 0.65267 0.89363 0.0
C210 C -0.01431 0.87243 0.79584 0.0
C211 C 0.01487 0.82822 0.74376 0.0
C212 C 0.17315 -0.00673 0.76748 0.0
C213 C 0.22043 0.01424 0.75051 0.0
C214 C 0.27118 0.03394 0.7614 0.0
C215 C 0.21553 0.01682 0.72333 0.0
C216 C 0.31114 0.05889 0.7183 0.0
C217 C 0.26034 0.03875 0.70742 0.0
C218 C 0.31605 0.05592 0.74546 0.0
C219 C 0.12531 0.82406 0.79207 0.0
O220 O 0.06057 0.83521 0.8418 0.0
O221 O 0.1011 0.92158 0.82942 0.0
O222 O 0.94323 0.74101 0.82549 0.0
O223 O 0.00049 0.72047 0.81021 0.0
O224 O 0.95284 0.8225 0.79333 0.0
O225 O 0.02838 0.87974 0.80608 0.0
O226 O 0.05444 0.87532 0.7501 0.0
O227 O -0.00505 0.78891 0.76086 0.0
O228 O 0.17742 -0.02252 0.79075 0.0
O229 O 0.12725 0.96247 0.75665 0.0
O230 O 0.15859 0.87177 0.79847 0.0
O231 O 0.08487 0.82187 0.78246 0.0
H232 H 0.87994 0.64402 0.85775 0.0
H233 H 0.05037 0.73308 0.85367 0.0
H234 H 0.0559 0.72054 0.90042 0.0
H235 H 0.88511 0.63258 0.90464 0.0
H236 H 0.27639 0.03298 0.78231 0.0
H237 H 0.17712 0.00269 0.71434 0.0
H238 H 0.25522 0.04144 0.68662 0.0
H239 H 0.3546 0.07091 0.75441 0.0
C240 C 0.95837 0.06393 1.08472 0.0
C241 C 0.94331 0.0508 1.11093 0.0
C242 C -0.03605 0.02878 1.06848 0.0
C243 C 0.95694 -0.01851 1.07866 0.0
C244 C 0.94453 0.9697 1.10514 0.0
C245 C 0.93688 0.00367 1.12104 0.0
C246 C -0.03642 0.94441 1.06193 0.0
C247 C 0.00053 0.93095 1.06688 0.0
C248 C 0.0436 0.95909 1.08607 0.0
C249 C 0.07596 0.01375 1.08453 0.0
C250 C 0.11945 0.03986 1.10104 0.0
C251 C 0.13155 0.01181 1.11933 0.0
H252 H 0.02964 0.88898 1.10646 0.0
C253 C 0.09754 0.95743 1.12182 0.0
C254 C 0.05417 0.93117 1.10505 0.0
H255 H 0.10644 0.93465 0.13543 0.0
H256 H -0.03684 0.09995 1.07648 0.0
H257 H -0.02595 0.03859 1.04811 0.0
H258 H 0.93947 0.93352 1.11334 0.0
H259 H 0.92476 -0.00742 0.14113 0.0
H260 H 0.93563 0.92522 1.04613 0.0
H261 H -0.00016 0.89914 1.05583 0.0
H262 H 0.06915 0.036 1.06968 0.0
H263 H 0.14556 0.0816 1.09842 0.0
C264 C -0.02413 0.91323 0.43998 0.0
C265 C 0.93498 0.92355 0.43411 0.0
C266 C 0.02125 0.93467 0.42452 0.0
C267 C 0.02612 0.96661 0.40308 0.0
C268 C -0.01791 0.97083 0.3953 0.0
C269 C 0.93722 0.95032 0.41103 0.0
C270 C 0.08009 0.00461 0.39403 0.0
C271 C 0.09333 0.05527 0.39217 0.0
C272 C 0.13436 0.09315 0.40983 0.0
C273 C 0.1197 0.11884 0.42829 0.0
C274 C 0.15547 0.15069 0.44729 0.0
C275 C 0.20696 0.15856 0.44761 0.0
H276 H 0.19708 0.07959 0.39671 0.0
C277 C 0.22143 0.13222 0.42934 0.0
C278 C 0.18528 0.09955 0.41061 0.0
H279 H 0.26111 0.1379 0.42906 0.0
H280 H -0.02584 0.89138 0.45736 0.0
H281 H 0.05437 0.93026 0.43077 0.0
H282 H -0.01619 -0.00662 0.37822 0.0
H283 H 0.90501 0.95679 0.40553 0.0
H284 H 0.11085 -0.0043 0.3995 0.0
H285 H 0.06313 0.06502 0.38692 0.0
H286 H 0.08005 0.11333 0.42835 0.0
H287 H 0.14339 0.17036 0.46122 0.0
C288 C 0.02599 0.96137 0.77621 0.0
C289 C -0.01747 0.91072 0.77856 0.0
C290 C 0.0266 -0.00502 0.75687 0.0
C291 C -0.01691 -0.02092 0.74012 0.0
C292 C 0.93867 0.92919 0.743 0.0
C293 C 0.93859 0.89498 0.76199 0.0
C294 C -0.01659 0.01788 0.72188 0.0
C295 C 0.9535 0.03913 0.72831 0.0
C296 C -0.02043 0.09306 0.73916 0.0
C297 C 0.03126 0.13124 0.7319 0.0
C298 C 0.06104 0.1743 0.74796 0.0
C299 C 0.03902 0.18097 0.77095 0.0
H300 H 0.91617 0.07442 0.76675 0.0
C301 C -0.01436 0.14637 0.77662 0.0
C302 C 0.95615 0.10264 0.76087 0.0
H303 H -0.03263 0.15183 0.79385 0.0
H304 H 0.06009 -0.02547 0.78886 0.0
H305 H 0.0607 0.03397 0.75531 0.0
H306 H 0.90445 0.91673 0.73051 0.0
H307 H 0.9046 0.85594 0.76335 0.0
H308 H 0.02164 0.04241 0.71284 0.0
H309 H 0.91425 0.01262 0.73603 0.0
H310 H 0.04992 0.12678 0.7146 0.0
H311 H 0.10151 0.20192 0.74257 0.0
C312 C 0.36631 0.4624 1.06129 0.0
C313 C 0.38651 0.42794 1.0597 0.0
C314 C 0.38145 0.50286 1.04312 0.0
C315 C 0.41641 0.50897 1.02267 0.0
C316 C 0.4412 0.47846 1.0231 0.0
C317 C 0.42641 0.43835 1.04138 0.0
C318 C 0.42088 0.53861 0.99829 0.0
C319 C 0.38397 0.55106 0.99097 0.0
C320 C 0.36677 0.54793 0.96331 0.0
C321 C 0.39728 0.54774 0.94203 0.0
C322 C 0.37354 0.52842 0.91779 0.0
C323 C 0.31923 0.50992 0.91421 0.0
H324 H 0.28995 0.53627 0.97454 0.0
C325 C 0.29067 0.51661 0.93446 0.0
C326 C 0.31425 0.53548 0.95873 0.0
H327 H 0.24922 0.5045 0.93203 0.0
H328 H 0.33603 0.45605 1.0754 0.0
H329 H 0.36315 0.52693 1.04446 0.0
H330 H 0.46914 0.48282 1.008 0.0
H331 H 0.4442 0.4137 1.04025 0.0
H332 H 0.44792 0.53863 0.98377 0.0
H333 H 0.35703 0.55129 1.00545 0.0
H334 H 0.4386 0.55945 0.94422 0.0
H335 H 0.39701 0.52461 0.90248 0.0
C336 C 0.03699 0.40106 0.37687 0.0
C337 C 0.01259 0.36324 0.39659 0.0
C338 C 0.00667 0.413 0.3601 0.0
C339 C 0.95139 0.38733 0.36266 0.0
C340 C 0.9279 0.35479 0.3845 0.0
C341 C 0.95817 0.34247 0.40115 0.0
C342 C 0.92011 0.38821 0.33987 0.0
C343 C 0.87223 0.3471 0.33399 0.0
C344 C 0.85636 0.33026 0.30656 0.0
C345 C 0.82932 0.27626 0.3014 0.0
C346 C 0.82672 0.25785 0.27606 0.0
C347 C 0.85048 0.29318 0.25528 0.0
H348 H 0.89391 0.40741 0.28858 0.0
C349 C 0.87193 0.3471 0.26001 0.0
C350 C 0.87479 0.36555 0.28544 0.0
H351 H 0.88894 0.37522 0.24423 0.0
H352 H 0.07916 0.41926 0.37343 0.0
H353 H 0.02614 0.43915 0.34381 0.0
H354 H 0.88578 0.33618 0.38799 0.0
H355 H 0.93809 0.31375 0.4164 0.0
H356 H 0.94242 0.41642 0.32467 0.0
H357 H 0.8506 0.31764 0.34876 0.0
H358 H 0.81426 0.24813 0.31727 0.0
H359 H 0.80981 0.21608 0.27321 0.0
C360 C 0.73056 0.0758 0.69528 0.0
C361 C 0.74658 0.06549 0.71935 0.0
C362 C 0.69205 0.03499 0.68042 0.0
C363 C 0.6694 -0.01704 0.68908 0.0
C364 C 0.68329 -0.0272 0.71386 0.0
C365 C 0.72154 0.01387 0.72891 0.0
C366 C 0.63607 0.94082 0.67043 0.0
C367 C 0.63721 0.89568 0.669 0.0
C368 C 0.62771 0.8675 0.64384 0.0
C369 C 0.6617 0.84855 0.637 0.0
C370 C 0.66576 0.83665 0.61104 0.0
C371 C 0.63534 0.84294 0.59155 0.0
H372 H 0.56426 0.87973 0.6299 0.0
C373 C 0.59642 0.85529 0.599 0.0
C374 C 0.59247 0.86732 0.62499 0.0
H375 H 0.57129 0.85884 0.5845 0.0
H376 H 0.74849 0.11543 0.68775 0.0
H377 H 0.68184 0.04395 0.66148 0.0
H378 H 0.66563 0.93324 0.72139 0.0
H379 H 0.73293 0.00507 0.74757 0.0
H380 H 0.61986 0.95216 0.6542 0.0
H381 H 0.65732 0.88633 0.68416 0.0
H382 H 0.68885 0.84774 0.65123 0.0
H383 H 0.69609 0.82713 0.60603 0.0
C384 C 0.80657 0.73488 1.05073 0.0
C385 C 0.8411 0.77871 1.06568 0.0
C386 C 0.82482 0.70479 1.03832 0.0
C387 C 0.8781 0.71807 1.04033 0.0
C388 C 0.91172 0.75939 1.05704 0.0
C389 C 0.89326 0.78939 1.06963 0.0
C390 C 0.89738 0.6913 1.02253 0.0
C391 C 0.94742 0.71438 1.01346 0.0
C392 C 0.96102 0.69896 0.98825 0.0
C393 C 0.00147 0.7383 0.97315 0.0
C394 C 0.00743 0.72946 0.94695 0.0
C395 C -0.02664 0.68081 0.93531 0.0
H396 H 0.90076 0.61647 0.9888 0.0
C397 C 0.9367 0.63967 0.95115 0.0
C398 C 0.93073 0.64853 0.97744 0.0
H399 H 0.91084 0.60133 0.94291 0.0
H400 H 0.76574 0.72483 1.0479 0.0
H401 H 0.79777 0.67276 1.02591 0.0
H402 H 0.95256 0.76973 1.05988 0.0
H403 H 0.9205 0.82242 1.08143 0.0
H404 H 0.86714 0.65604 1.01307 0.0
H405 H -0.02305 0.75155 1.02168 0.0
H406 H 0.02584 0.77735 0.981 0.0
H407 H 0.03595 0.76213 0.93536 0.0
C408 C 0.03464 0.76793 0.33034 0.0
C409 C 0.04445 0.76211 0.35661 0.0
C410 C 0.07004 0.77187 0.31098 0.0
C411 C 0.11632 0.77077 0.31744 0.0
C412 C 0.12586 0.76416 0.34372 0.0
C413 C 0.09018 0.75985 0.36312 0.0
C414 C 0.15356 0.77753 0.29612 0.0
C415 C 0.20602 0.79739 0.29949 0.0
C416 C 0.24241 0.81549 0.27679 0.0
C417 C 0.22683 0.79011 0.25251 0.0
C418 C 0.25443 0.81536 0.2299 0.0
C419 C 0.29858 0.86618 0.2312 0.0
H420 H 0.30381 0.8827 0.29717 0.0
C421 C 0.31827 0.88816 0.25592 0.0
C422 C 0.29033 0.86294 0.27856 0.0
H423 H 0.35306 0.92658 0.25766 0.0
H424 H -0.0007 0.7689 0.32472 0.0
H425 H 0.06155 0.77661 0.29086 0.0
H426 H 0.16047 0.76195 0.34939 0.0
H427 H 0.09869 0.75536 0.38325 0.0
H428 H 0.13782 0.77168 0.27639 0.0
H429 H 0.22325 0.8084 0.31886 0.0
H430 H 0.19117 0.75238 0.25068 0.0
H431 H 0.23806 0.79682 0.21132 0.0
C432 C 0.40221 0.13388 0.7091 0.0
C433 C 0.35862 0.08593 0.70137 0.0
C434 C 0.44288 0.16367 0.69146 0.0
C435 C 0.44036 0.14624 0.66562 0.0
C436 C 0.3993 0.09615 0.65877 0.0
C437 C 0.35878 0.06638 0.67639 0.0
C438 C 0.47517 0.18071 0.6444 0.0
C439 C 0.49873 0.23347 0.64521 0.0
C440 C 0.51233 0.26605 0.62115 0.0
C441 C 0.52082 0.24901 0.59689 0.0
C442 C 0.51899 0.27349 0.57382 0.0
C443 C 0.50948 0.31587 0.57458 0.0
H444 H 0.50379 0.32688 0.64044 0.0
C445 C 0.50772 0.33678 0.59897 0.0
C446 C 0.50922 0.31213 0.62201 0.0
H447 H 0.50194 0.37033 0.60023 0.0
H448 H 0.40352 0.14987 0.7283 0.0
H449 H 0.47491 0.20105 0.69793 0.0
H450 H 0.39669 0.08123 0.63916 0.0
H451 H 0.32647 0.02891 0.67009 0.0
H452 H 0.47269 0.16159 0.62594 0.0
H453 H 0.49852 0.25254 0.66328 0.0
H454 H 0.52595 0.21515 0.59544 0.0
H455 H 0.52104 0.25659 0.55539 0.0
C456 C 0.4436 0.13377 0.14442 0.0
C457 C 0.43085 0.15136 1.12152 0.0
C458 C 0.49014 0.13138 0.14604 0.0
C459 C 0.52468 0.14552 1.12451 0.0
C460 C 0.51268 0.16486 1.10191 0.0
C461 C 0.46621 0.16784 1.10042 0.0
C462 C 0.57284 0.13988 1.12482 0.0
C463 C 0.57823 0.10658 0.14102 0.0
C464 C 0.62298 0.09573 0.14035 0.0
C465 C 0.61549 0.0495 0.15225 0.0
C466 C 0.65482 0.03573 0.15131 0.0
C467 C 0.70293 0.06807 0.1386 0.0
H468 H 0.68015 0.16602 1.11968 0.0
C469 C 0.71171 0.11548 1.12755 0.0
C470 C 0.67206 0.12927 1.1284 0.0
H471 H 0.74872 0.14134 1.11783 0.0
H472 H 0.41743 0.12166 0.16118 0.0
H473 H 0.49862 0.11851 0.16428 0.0
H474 H 0.53875 0.17665 1.08513 0.0
H475 H 0.45739 0.18187 1.08259 0.0
H476 H 0.60255 0.16085 1.10997 0.0
H477 H 0.54629 0.08258 0.15434 0.0
H478 H 0.57848 0.02316 0.16187 0.0
H479 H 0.64714 -0.00082 0.16021 0.0
C480 C 0.35161 0.46856 0.48055 0.0
C481 C 0.34029 0.43652 0.45847 0.0
C482 C 0.40049 0.5148 0.48264 0.0
C483 C 0.43775 0.52986 0.46234 0.0
C484 C 0.42513 0.49883 0.43985 0.0
C485 C 0.37721 0.4521 0.43812 0.0
C486 C 0.49057 0.57707 0.46394 0.0
C487 C 0.52051 0.59026 0.48566 0.0
C488 C 0.57739 0.63042 0.48481 0.0
C489 C 0.61409 0.62202 0.4987 0.0
C490 C 0.66845 0.65519 0.49497 0.0
C491 C 0.68667 0.69756 0.47755 0.0
H492 H 0.56851 0.68303 0.45819 0.0
C493 C 0.64996 0.70777 0.46494 0.0
C494 C 0.59585 0.67471 0.46862 0.0
H495 H 0.6629 0.74015 0.45139 0.0
H496 H 0.32365 0.45687 0.49653 0.0
H497 H 0.40917 0.53858 0.50004 0.0
H498 H 0.45323 0.50984 0.42395 0.0
H499 H 0.36918 0.42781 0.42093 0.0
H500 H 0.50807 0.59705 0.44567 0.0
H501 H 0.50512 0.5665 0.50319 0.0
H502 H 0.60074 0.58833 0.51144 0.0
H503 H 0.69608 0.64685 0.5051 0.0
C504 C 0.06218 0.46432 0.82718 0.0
C505 C 0.08519 0.4422 0.81132 0.0
C506 C 0.07989 0.51803 0.82591 0.0
C507 C 0.12062 0.55034 0.80853 0.0
C508 C 0.14521 0.52851 0.79366 0.0
C509 C 0.12812 0.47504 0.79526 0.0
C510 C 0.13285 0.6046 0.80278 0.0
C511 C 0.1277 0.63578 0.82028 0.0
C512 C 0.1305 0.68545 0.81223 0.0
C513 C 0.15555 0.72993 0.82826 0.0
C514 C 0.15604 0.77618 0.82118 0.0
C515 C 0.1298 0.77775 0.79847 0.0
H516 H 0.08439 0.6535 0.77686 0.0
C517 C 0.10444 0.7332 0.78259 0.0
C518 C 0.10518 0.68762 0.78925 0.0
H519 H 0.08354 0.73348 0.76512 0.0
H520 H 0.02904 0.43977 0.83974 0.0
H521 H 0.05939 0.5334 0.83729 0.0
H522 H 0.17646 0.55255 0.78004 0.0
H523 H 0.14664 0.45901 0.78283 0.0
H524 H 0.14498 0.61883 0.78295 0.0
H525 H 0.12052 0.62451 0.84073 0.0
H526 H 0.17466 0.72884 0.84622 0.0
H527 H 0.17515 0.80998 0.8339 0.0
C528 C 0.25714 0.15981 0.21598 0.0
C529 C 0.27662 0.12653 0.20838 0.0
C530 C 0.26107 0.17677 0.24201 0.0
C531 C 0.28467 0.16095 0.26141 0.0
C532 C 0.30392 0.12751 0.25379 0.0
C533 C 0.29974 0.11033 0.22778 0.0
C534 C 0.29184 0.17997 0.28934 0.0
C535 C 0.26263 0.19865 0.30085 0.0
C536 C 0.26787 0.21675 0.32881 0.0
C537 C 0.22479 0.21816 0.34028 0.0
C538 C 0.22729 0.2357 0.36596 0.0
C539 C 0.27342 0.25344 0.38116 0.0
H540 H 0.34883 0.23502 0.33578 0.0
C541 C 0.31705 0.2527 0.36972 0.0
C542 C 0.3143 0.23443 0.34391 0.0
H543 H 0.35317 0.26576 0.38077 0.0
H544 H 0.23951 0.17368 0.20169 0.0
H545 H 0.2468 0.20344 0.24655 0.0
H546 H 0.3226 0.11469 0.26805 0.0
H547 H 0.31561 0.08509 0.2228 0.0
H548 H 0.32089 0.17628 0.30106 0.0
H549 H 0.23086 0.1984 0.28966 0.0
H550 H 0.18854 0.20524 0.32934 0.0
H551 H 0.19269 0.23539 0.37387 0.0
C552 C 0.1824 0.26703 0.55474 0.0
C553 C 0.23514 0.29229 0.5457 0.0
C554 C 0.17021 0.27149 0.58083 0.0
C555 C 0.21037 0.30178 0.59898 0.0
C556 C 0.26322 0.3262 0.59004 0.0
C557 C 0.27545 0.32164 0.56385 0.0
C558 C 0.1993 0.30843 0.62722 0.0
C559 C 0.15059 0.29365 0.63726 0.0
C560 C 0.13836 0.29954 0.66536 0.0
C561 C 0.08497 0.27475 0.67333 0.0
C562 C 0.07079 0.27886 0.69909 0.0
C563 C 0.10951 0.30827 0.71791 0.0
H564 H 0.2188 0.34985 0.67919 0.0
C565 C 0.16301 0.33353 0.71001 0.0
C566 C 0.17726 0.32931 0.68418 0.0
H567 H 0.19413 0.35647 0.72384 0.0
H568 H 0.15002 0.24377 0.54157 0.0
H569 H 0.12903 0.25066 0.58643 0.0
H570 H 0.29539 0.34952 0.60334 0.0
H571 H 0.3165 0.34182 0.55778 0.0
H572 H 0.23334 0.3267 0.64009 0.0
H573 H 0.11668 0.27571 0.62434 0.0
H574 H 0.05377 0.25159 0.65953 0.0
H575 H 0.0292 0.25845 0.70426 0.0
C576 C 0.03896 0.26975 0.90122 0.0
C577 C 0.01034 0.24557 0.87829 0.0
C578 C 0.01894 0.24784 0.92612 0.0
C579 C -0.03 0.20081 0.92867 0.0
C580 C 0.9422 0.17664 0.90569 0.0
C581 C 0.96165 0.1987 0.88107 0.0
C582 C 0.94671 0.17429 0.95444 0.0
C583 C 0.9573 0.19873 0.9779 0.0
C584 C 0.93088 0.17264 1.00332 0.0
C585 C 0.93135 0.20423 1.02401 0.0
C586 C 0.90854 0.18253 1.04829 0.0
C587 C 0.88477 0.12825 1.05299 0.0
H588 H 0.90638 0.09217 0.99279 0.0
C589 C 0.88419 0.09631 1.03234 0.0
C590 C 0.9068 0.11811 1.00784 0.0
H591 H 0.86697 0.05448 1.0352 0.0
H592 H 0.07665 0.30571 0.89995 0.0
H593 H 0.04233 0.26737 0.9432 0.0
H594 H 0.90472 0.14038 0.90674 0.0
H595 H 0.93831 0.17836 0.86408 0.0
H596 H 0.91668 0.13317 0.95358 0.0
H597 H -0.01564 0.24071 0.97847 0.0
H598 H 0.9496 0.24625 1.02143 0.0
H599 H 0.91034 0.20879 1.06355 0.0
C600 C 0.81896 0.95929 0.21627 0.0
C601 C 0.82113 0.00747 0.21115 0.0
C602 C 0.81541 0.94066 0.242 0.0
C603 C 0.8139 0.96965 0.26358 0.0
C604 C 0.81562 0.01757 0.25838 0.0
C605 C 0.81945 0.03632 0.23267 0.0
C606 C 0.8087 0.95091 0.29156 0.0
C607 C 0.8196 0.91348 0.30009 0.0
C608 C 0.81526 0.89512 0.32808 0.0
C609 C 0.84131 0.86757 0.33546 0.0
C610 C 0.8382 0.849 0.36112 0.0
C611 C 0.80828 0.85673 0.38037 0.0
H612 H 0.76323 0.92249 0.34261 0.0
C613 C 0.7816 0.88374 0.37299 0.0
C614 C 0.78498 0.90263 0.3473 0.0
H615 H 0.75822 0.89073 0.38715 0.0
H616 H 0.8199 0.93563 0.20031 0.0
H617 H 0.81294 0.90307 0.24471 0.0
H618 H 0.81418 0.04092 0.27435 0.0
H619 H 0.82085 0.07342 0.2297 0.0
H620 H 0.79724 0.97062 0.30583 0.0
H621 H 0.83466 0.89644 0.28613 0.0
H622 H 0.86475 0.86065 0.3213 0.0
H623 H 0.85962 0.82878 0.36585 0.0
C624 C 0.84107 0.81489 0.56414 0.0
C625 C 0.87033 0.81757 0.54167 0.0
C626 C 0.86168 0.81703 0.58947 0.0
C627 C 0.91249 0.82291 0.59289 0.0
C628 C 0.94152 0.82612 0.57039 0.0
C629 C 0.9207 0.8229 0.54534 0.0
C630 C 0.93853 0.82906 0.61912 0.0
C631 C 0.91299 0.80737 0.64183 0.0
C632 C 0.94094 0.81248 0.66747 0.0
C633 C 0.91639 0.77349 0.68678 0.0
C634 C 0.94082 0.77756 0.71113 0.0
C635 C -0.00968 0.8213 0.71714 0.0
H636 H 0.01055 0.88781 0.65957 0.0
C637 C 0.01474 0.8605 0.69786 0.0
C638 C -0.00937 0.85612 0.67344 0.0
H639 H 0.05251 0.89516 0.7017 0.0
H640 H 0.80221 0.81087 0.56217 0.0
H641 H 0.83838 0.81536 0.60627 0.0
H642 H -0.01919 0.83107 0.57217 0.0
H643 H 0.94485 0.82554 0.52871 0.0
H644 H -0.01851 0.84989 0.61921 0.0
H645 H 0.87024 0.78257 0.64145 0.0
H646 H 0.878 0.73956 0.68304 0.0
H647 H 0.92028 0.74687 0.72545 0.0
C648 C 0.14009 0.95681 0.88118 0.0
C649 C 0.10848 0.90313 0.8752 0.0
C650 C 0.16037 -0.02632 0.90648 0.0
C651 C 0.14954 0.93738 0.92689 0.0
C652 C 0.11789 0.8837 0.92085 0.0
C653 C 0.09762 0.86681 0.8955 0.0
C654 C 0.17114 0.95325 0.95435 0.0
C655 C 0.19465 0.00296 0.96386 0.0
C656 C 0.21557 0.01965 0.9913 0.0
C657 C 0.22825 0.07022 0.99958 0.0
C658 C 0.24733 0.08818 1.02486 0.0
C659 C 0.25506 0.05645 1.0429 0.0
H660 H 0.21613 0.94923 1.00373 0.0
C661 C 0.24368 0.0062 1.03456 0.0
C662 C 0.22418 -0.012 1.00917 0.0
H663 H 0.24881 -0.01962 1.04783 0.0
H664 H 0.14989 -0.01382 0.86616 0.0
H665 H 0.18524 0.01528 0.90959 0.0
H666 H 0.10888 0.85449 0.93586 0.0
H667 H 0.07375 0.82518 0.89179 0.0
H668 H 0.16584 0.92191 0.96739 0.0
H669 H 0.19735 0.0338 0.95125 0.0
H670 H 0.22267 0.09602 0.98647 0.0
H671 H 0.25543 0.12702 1.03034 0.0
loop_
_geom_bond_atom_site_label_1
_geom_bond_atom_site_label_2
_geom_bond_distance
_geom_bond_site_symmetry_2
_ccdc_geom_bond_type
Gd0 C3 2.818 . S
Gd0 O20 2.377 . S
Gd0 O22 2.448 . S
Gd0 O23 2.506 . S
Gd0 O24 2.435 . S
Gd0 O25 2.717 1_554 S
Gd0 O27 2.395 1_554 S
Gd0 O31 2.327 . S
Gd1 C12 2.818 . S
Gd1 O21 2.395 1_556 S
Gd1 O25 2.327 . S
Gd1 O26 2.377 . S
Gd1 O28 2.448 . S
Gd1 O29 2.506 . S
Gd1 O30 2.435 . S
Gd1 O31 2.717 1_556 S
C2 O20 1.240 . S
C2 O21 1.240 . S
C3 Gd0 2.818 . S
C3 C4 1.510 . S
C3 O22 1.249 . S
C3 O23 1.252 . S
C4 C3 1.510 . S
C4 C5 1.404 . S
C4 C6 1.352 . S
C5 C4 1.404 . S
C5 C9 1.389 . S
C5 H32 0.930 . S
C6 C4 1.352 . S
C6 C8 1.374 . S
C6 H33 0.931 . S
C7 C8 1.359 . S
C7 C9 1.364 . S
C8 C6 1.374 . S
C8 C7 1.359 . S
C8 H34 0.931 . S
C9 C5 1.389 . S
C9 C7 1.364 . S
C9 H35 0.931 . S
C10 O24 1.256 . S
C10 O25 1.257 1_554 S
C11 O26 1.240 . S
C11 O27 1.240 . S
C12 Gd1 2.818 . S
C12 C13 1.510 . S
C12 O28 1.249 . S
C12 O29 1.252 . S
C13 C12 1.510 . S
C13 C14 1.404 . S
C13 C15 1.352 . S
C14 C13 1.404 . S
C14 C18 1.389 . S
C14 H36 0.930 . S
C15 C13 1.352 . S
C15 C17 1.374 . S
C15 H37 0.931 . S
C16 C17 1.359 . S
C16 C18 1.364 . S
C17 C15 1.374 . S
C17 C16 1.359 . S
C17 H38 0.931 . S
C18 C14 1.389 . S
C18 C16 1.364 . S
C18 H39 0.931 . S
C19 O30 1.256 1_554 S
C19 O31 1.257 . S
O20 Gd0 2.377 . S
O20 C2 1.240 . S
O21 Gd1 2.395 1_554 S
O21 C2 1.240 . S
O22 Gd0 2.448 . S
O22 C3 1.249 . S
O23 Gd0 2.506 . S
O23 C3 1.252 . S
O24 Gd0 2.435 . S
O24 C10 1.256 . S
O25 Gd0 2.717 1_556 S
O25 Gd1 2.327 . S
O25 C10 1.257 1_556 S
O26 Gd1 2.377 . S
O26 C11 1.240 . S
O27 Gd0 2.395 1_556 S
O27 C11 1.240 . S
O28 Gd1 2.448 . S
O28 C12 1.249 . S
O29 Gd1 2.506 . S
O29 C12 1.252 . S
O30 Gd1 2.435 . S
O30 C19 1.256 1_556 S
O31 Gd0 2.327 . S
O31 Gd1 2.717 1_554 S
O31 C19 1.257 . S
H32 C5 0.930 . S
H33 C6 0.931 . S
H34 C8 0.931 . S
H35 C9 0.931 . S
H36 C14 0.930 . S
H37 C15 0.931 . S
H38 C17 0.931 . S
H39 C18 0.931 . S
Gd40 C43 2.818 . S
Gd40 O60 2.377 . S
Gd40 O62 2.448 . S
Gd40 O63 2.506 . S
Gd40 O64 2.435 . S
Gd40 O65 2.717 . S
Gd40 O67 2.395 . S
Gd40 O71 2.327 . S
Gd41 C52 2.818 . S
Gd41 O61 2.395 . S
Gd41 O65 2.327 . S
Gd41 O66 2.377 . S
Gd41 O68 2.448 . S
Gd41 O69 2.506 . S
Gd41 O70 2.435 . S
Gd41 O71 2.717 . S
C42 O60 1.240 . S
C42 O61 1.240 . S
C43 Gd40 2.818 . S
C43 C44 1.510 . S
C43 O62 1.249 . S
C43 O63 1.252 . S
C44 C43 1.510 . S
C44 C45 1.404 . S
C44 C46 1.352 . S
C45 C44 1.404 . S
C45 C49 1.389 . S
C45 H72 0.930 . S
C46 C44 1.352 . S
C46 C48 1.374 . S
C46 H73 0.931 . S
C47 C48 1.359 . S
C47 C49 1.364 . S
C48 C46 1.374 . S
C48 C47 1.359 . S
C48 H74 0.931 . S
C49 C45 1.389 . S
C49 C47 1.364 . S
C49 H75 0.931 . S
C50 O64 1.256 . S
C50 O65 1.257 . S
C51 O66 1.240 . S
C51 O67 1.240 . S
C52 Gd41 2.818 . S
C52 C53 1.510 . S
C52 O68 1.249 . S
C52 O69 1.252 . S
C53 C52 1.510 . S
C53 C54 1.404 . S
C53 C55 1.352 . S
C54 C53 1.404 . S
C54 C58 1.389 . S
C54 H76 0.930 . S
C55 C53 1.352 . S
C55 C57 1.374 . S
C55 H77 0.931 . S
C56 C57 1.359 . S
C56 C58 1.364 . S
C57 C55 1.374 . S
C57 C56 1.359 . S
C57 H78 0.931 . S
C58 C54 1.389 . S
C58 C56 1.364 . S
C58 H79 0.931 . S
C59 O70 1.256 . S
C59 O71 1.257 . S
O60 Gd40 2.377 . S
O60 C42 1.240 . S
O61 Gd41 2.395 . S
O61 C42 1.240 . S
O62 Gd40 2.448 . S
O62 C43 1.249 . S
O63 Gd40 2.506 . S
O63 C43 1.252 . S
O64 Gd40 2.435 . S
O64 C50 1.256 . S
O65 Gd40 2.717 . S
O65 Gd41 2.327 . S
O65 C50 1.257 . S
O66 Gd41 2.377 . S
O66 C51 1.240 . S
O67 Gd40 2.395 . S
O67 C51 1.240 . S
O68 Gd41 2.448 . S
O68 C52 1.249 . S
O69 Gd41 2.506 . S
O69 C52 1.252 . S
O70 Gd41 2.435 . S
O70 C59 1.256 . S
O71 Gd40 2.327 . S
O71 Gd41 2.717 . S
O71 C59 1.257 . S
H72 C45 0.930 . S
H73 C46 0.931 . S
H74 C48 0.931 . S
H75 C49 0.931 . S
H76 C54 0.930 . S
H77 C55 0.931 . S
H78 C57 0.931 . S
H79 C58 0.931 . S
Gd80 C83 2.818 . S
Gd80 O100 2.377 1_455 S
Gd80 O102 2.448 . S
Gd80 O103 2.506 . S
Gd80 O104 2.435 . S
Gd80 O105 2.717 1_455 S
Gd80 O107 2.395 . S
Gd80 O111 2.327 . S
Gd81 C92 2.818 . S
Gd81 O101 2.395 . S
Gd81 O105 2.327 . S
Gd81 O106 2.377 1_655 S
Gd81 O108 2.448 . S
Gd81 O109 2.506 . S
Gd81 O110 2.435 . S
Gd81 O111 2.717 1_655 S
C82 O100 1.240 . S
C82 O101 1.240 . S
C83 Gd80 2.818 . S
C83 C84 1.510 . S
C83 O102 1.249 . S
C83 O103 1.252 . S
C84 C83 1.510 . S
C84 C85 1.404 . S
C84 C86 1.352 . S
C85 C84 1.404 . S
C85 C89 1.389 . S
C85 H112 0.930 . S
C86 C84 1.352 . S
C86 C88 1.374 . S
C86 H113 0.931 . S
C87 C88 1.359 . S
C87 C89 1.364 . S
C88 C86 1.374 . S
C88 C87 1.359 . S
C88 H114 0.931 . S
C89 C85 1.389 . S
C89 C87 1.364 . S
C89 H115 0.931 . S
C90 O104 1.256 . S
C90 O105 1.257 1_455 S
C91 O106 1.240 . S
C91 O107 1.240 . S
C92 Gd81 2.818 . S
C92 C93 1.510 . S
C92 O108 1.249 . S
C92 O109 1.252 . S
C93 C92 1.510 . S
C93 C94 1.404 . S
C93 C95 1.352 . S
C94 C93 1.404 . S
C94 C98 1.389 . S
C94 H116 0.930 . S
C95 C93 1.352 . S
C95 C97 1.374 . S
C95 H117 0.931 . S
C96 C97 1.359 . S
C96 C98 1.364 . S
C97 C95 1.374 . S
C97 C96 1.359 . S
C97 H118 0.931 . S
C98 C94 1.389 . S
C98 C96 1.364 . S
C98 H119 0.931 . S
C99 O110 1.256 . S
C99 O111 1.257 1_655 S
O100 Gd80 2.377 1_655 S
O100 C82 1.240 . S
O101 Gd81 2.395 . S
O101 C82 1.240 . S
O102 Gd80 2.448 . S
O102 C83 1.249 . S
O103 Gd80 2.506 . S
O103 C83 1.252 . S
O104 Gd80 2.435 . S
O104 C90 1.256 . S
O105 Gd80 2.717 1_655 S
O105 Gd81 2.327 . S
O105 C90 1.257 1_655 S
O106 Gd81 2.377 1_455 S
O106 C91 1.240 . S
O107 Gd80 2.395 . S
O107 C91 1.240 . S
O108 Gd81 2.448 . S
O108 C92 1.249 . S
O109 Gd81 2.506 . S
O109 C92 1.252 . S
O110 Gd81 2.435 . S
O110 C99 1.256 . S
O111 Gd80 2.327 . S
O111 Gd81 2.717 1_455 S
O111 C99 1.257 1_455 S
H112 C85 0.930 . S
H113 C86 0.931 . S
H114 C88 0.931 . S
H115 C89 0.931 . S
H116 C94 0.930 . S
H117 C95 0.931 . S
H118 C97 0.931 . S
H119 C98 0.931 . S
Gd120 C123 2.818 . S
Gd120 O140 2.377 . S
Gd120 O142 2.448 . S
Gd120 O143 2.506 . S
Gd120 O144 2.435 . S
Gd120 O145 2.717 1_554 S
Gd120 O147 2.395 1_554 S
Gd120 O151 2.327 . S
Gd121 C132 2.818 . S
Gd121 O141 2.395 1_556 S
Gd121 O145 2.327 1_565 S
Gd121 O146 2.377 1_565 S
Gd121 O148 2.448 . S
Gd121 O149 2.506 . S
Gd121 O150 2.435 . S
Gd121 O151 2.717 1_566 S
C122 O140 1.240 1_565 S
C122 O141 1.240 . S
C123 Gd120 2.818 . S
C123 C124 1.510 . S
C123 O142 1.249 . S
C123 O143 1.252 . S
C124 C123 1.510 . S
C124 C125 1.404 . S
C124 C126 1.352 . S
C125 C124 1.404 . S
C125 C129 1.389 . S
C125 H152 0.930 . S
C126 C124 1.352 . S
C126 C128 1.374 . S
C126 H153 0.931 . S
C127 C128 1.359 . S
C127 C129 1.364 . S
C128 C126 1.374 . S
C128 C127 1.359 . S
C128 H154 0.931 . S
C129 C125 1.389 . S
C129 C127 1.364 . S
C129 H155 0.931 . S
C130 O144 1.256 . S
C130 O145 1.257 1_554 S
C131 O146 1.240 . S
C131 O147 1.240 . S
C132 Gd121 2.818 . S
C132 C133 1.510 . S
C132 O148 1.249 . S
C132 O149 1.252 . S
C133 C132 1.510 . S
C133 C134 1.404 . S
C133 C135 1.352 . S
C134 C133 1.404 . S
C134 C138 1.389 . S
C134 H156 0.930 . S
C135 C133 1.352 . S
C135 C137 1.374 . S
C135 H157 0.931 . S
C136 C137 1.359 . S
C136 C138 1.364 . S
C137 C135 1.374 . S
C137 C136 1.359 . S
C137 H158 0.931 . S
C138 C134 1.389 . S
C138 C136 1.364 . S
C138 H159 0.931 . S
C139 O150 1.256 1_554 S
C139 O151 1.257 1_565 S
O140 Gd120 2.377 . S
O140 C122 1.240 1_545 S
O141 Gd121 2.395 1_554 S
O141 C122 1.240 . S
O142 Gd120 2.448 . S
O142 C123 1.249 . S
O143 Gd120 2.506 . S
O143 C123 1.252 . S
O144 Gd120 2.435 . S
O144 C130 1.256 . S
O145 Gd120 2.717 1_556 S
O145 Gd121 2.327 1_545 S
O145 C130 1.257 1_556 S
O146 Gd121 2.377 1_545 S
O146 C131 1.240 . S
O147 Gd120 2.395 1_556 S
O147 C131 1.240 . S
O148 Gd121 2.448 . S
O148 C132 1.249 . S
O149 Gd121 2.506 . S
O149 C132 1.252 . S
O150 Gd121 2.435 . S
O150 C139 1.256 1_556 S
O151 Gd120 2.327 . S
O151 Gd121 2.717 1_544 S
O151 C139 1.257 1_545 S
H152 C125 0.930 . S
H153 C126 0.931 . S
H154 C128 0.931 . S
H155 C129 0.931 . S
H156 C134 0.930 . S
H157 C135 0.931 . S
H158 C137 0.931 . S
H159 C138 0.931 . S
Gd160 C163 2.818 . S
Gd160 O180 2.377 . S
Gd160 O182 2.448 . S
Gd160 O183 2.506 . S
Gd160 O184 2.435 . S
Gd160 O185 2.717 . S
Gd160 O187 2.395 . S
Gd160 O191 2.327 . S
Gd161 C172 2.818 . S
Gd161 O181 2.395 . S
Gd161 O185 2.327 . S
Gd161 O186 2.377 . S
Gd161 O188 2.448 . S
Gd161 O189 2.506 1_655 S
Gd161 O190 2.435 . S
Gd161 O191 2.717 . S
C162 O180 1.240 . S
C162 O181 1.240 . S
C163 Gd160 2.818 . S
C163 C164 1.510 . S
C163 O182 1.249 . S
C163 O183 1.252 . S
C164 C163 1.510 . S
C164 C165 1.404 . S
C164 C166 1.352 . S
C165 C164 1.404 . S
C165 C169 1.389 . S
C165 H192 0.930 . S
C166 C164 1.352 . S
C166 C168 1.374 . S
C166 H193 0.931 . S
C167 C168 1.359 . S
C167 C169 1.364 . S
C168 C166 1.374 . S
C168 C167 1.359 . S
C168 H194 0.931 . S
C169 C165 1.389 . S
C169 C167 1.364 . S
C169 H195 0.931 . S
C170 O184 1.241 1_455 S
C170 O185 1.258 1_455 S
C171 O186 1.240 . S
C171 O187 1.240 . S
C172 Gd161 2.818 . S
C172 C173 1.510 1_655 S
C172 O188 1.249 . S
C172 O189 1.252 1_655 S
C173 C172 1.510 1_455 S
C173 C174 1.404 1_455 S
C173 C175 1.352 . S
C174 C173 1.404 1_655 S
C174 C178 1.389 1_655 S
C174 H196 0.930 . S
C175 C173 1.352 . S
C175 C177 1.374 . S
C175 H197 0.931 . S
C176 C177 1.359 . S
C176 C178 1.364 . S
C177 C175 1.374 . S
C177 C176 1.359 . S
C177 H198 0.931 . S
C178 C174 1.389 1_455 S
C178 C176 1.364 . S
C178 H199 0.931 1_455 S
C179 O190 1.256 . S
C179 O191 1.257 . S
O180 Gd160 2.377 . S
O180 C162 1.240 . S
O181 Gd161 2.395 . S
O181 C162 1.240 . S
O182 Gd160 2.448 . S
O182 C163 1.249 . S
O183 Gd160 2.506 . S
O183 C163 1.252 . S
O184 Gd160 2.435 . S
O184 C170 1.241 1_655 S
O185 Gd160 2.717 . S
O185 Gd161 2.327 . S
O185 C170 1.258 1_655 S
O186 Gd161 2.377 . S
O186 C171 1.240 . S
O187 Gd160 2.395 . S
O187 C171 1.240 . S
O188 Gd161 2.448 . S
O188 C172 1.249 . S
O189 Gd161 2.506 1_455 S
O189 C172 1.252 1_455 S
O190 Gd161 2.435 . S
O190 C179 1.256 . S
O191 Gd160 2.327 . S
O191 Gd161 2.717 . S
O191 C179 1.257 . S
H192 C165 0.930 . S
H193 C166 0.931 . S
H194 C168 0.931 . S
H195 C169 0.931 . S
H196 C174 0.930 . S
H197 C175 0.931 . S
H198 C177 0.931 . S
H199 C178 0.931 1_655 S
Gd200 C203 2.818 . S
Gd200 O220 2.377 . S
Gd200 O222 2.448 . S
Gd200 O223 2.506 . S
Gd200 O224 2.435 . S
Gd200 O225 2.717 . S
Gd200 O227 2.395 . S
Gd200 O231 2.327 . S
Gd201 C212 2.818 . S
Gd201 O221 2.395 . S
Gd201 O225 2.327 . S
Gd201 O226 2.377 . S
Gd201 O228 2.448 . S
Gd201 O229 2.506 1_565 S
Gd201 O230 2.435 . S
Gd201 O231 2.717 . S
C202 O220 1.240 . S
C202 O221 1.240 . S
C203 Gd200 2.818 . S
C203 C204 1.510 . S
C203 O222 1.249 . S
C203 O223 1.252 . S
C204 C203 1.510 . S
C204 C205 1.404 . S
C204 C206 1.352 . S
C205 C204 1.404 . S
C205 C209 1.389 . S
C205 H232 0.930 . S
C206 C204 1.352 . S
C206 C208 1.374 . S
C206 H233 0.931 . S
C207 C208 1.359 . S
C207 C209 1.364 . S
C208 C206 1.374 . S
C208 C207 1.359 . S
C208 H234 0.931 . S
C209 C205 1.389 . S
C209 C207 1.364 . S
C209 H235 0.931 1_455 S
C210 O224 1.256 1_545 S
C210 O225 1.257 1_545 S
C211 O226 1.240 . S
C211 O227 1.240 . S
C212 Gd201 2.818 . S
C212 C213 1.510 1_565 S
C212 O228 1.249 . S
C212 O229 1.252 1_565 S
C213 C212 1.510 1_545 S
C213 C214 1.404 1_545 S
C213 C215 1.352 . S
C214 C213 1.404 1_565 S
C214 C218 1.389 1_565 S
C214 H236 0.930 . S
C215 C213 1.352 . S
C215 C217 1.374 . S
C215 H237 0.931 . S
C216 C217 1.359 . S
C216 C218 1.364 . S
C217 C215 1.374 . S
C217 C216 1.359 . S
C217 H238 0.931 . S
C218 C214 1.389 1_545 S
C218 C216 1.364 . S
C218 H239 0.931 1_545 S
C219 O230 1.256 . S
C219 O231 1.257 . S
O220 Gd200 2.377 . S
O220 C202 1.240 . S
O221 Gd201 2.395 . S
O221 C202 1.240 . S
O222 Gd200 2.448 . S
O222 C203 1.249 . S
O223 Gd200 2.506 . S
O223 C203 1.252 . S
O224 Gd200 2.435 . S
O224 C210 1.256 1_565 S
O225 Gd200 2.717 . S
O225 Gd201 2.327 . S
O225 C210 1.257 1_565 S
O226 Gd201 2.377 . S
O226 C211 1.240 . S
O227 Gd200 2.395 . S
O227 C211 1.240 . S
O228 Gd201 2.448 . S
O228 C212 1.249 . S
O229 Gd201 2.506 1_545 S
O229 C212 1.252 1_545 S
O230 Gd201 2.435 . S
O230 C219 1.256 . S
O231 Gd200 2.327 . S
O231 Gd201 2.717 . S
O231 C219 1.257 . S
H232 C205 0.930 . S
H233 C206 0.931 . S
H234 C208 0.931 . S
H235 C209 0.931 1_655 S
H236 C214 0.930 . S
H237 C215 0.931 . S
H238 C217 0.931 . S
H239 C218 0.931 1_565 S
C240 C241 1.386 1_546 S
C240 C242 1.383 . S
C240 H256 0.951 . S
C241 C240 1.386 1_564 S
C241 C245 1.383 . S
C242 C240 1.383 . S
C242 C243 1.402 1_656 S
C242 H257 0.951 1_655 S
C243 C242 1.402 1_454 S
C243 C244 1.375 1_455 S
C243 C246 1.481 . S
C244 C243 1.375 1_655 S
C244 C245 1.367 1_545 S
C244 H258 0.951 1_645 S
C245 C241 1.383 . S
C245 C244 1.367 1_565 S
C245 H259 0.950 . S
C246 C243 1.481 . S
C246 C247 1.297 . S
C246 H260 0.950 . S
C247 C246 1.297 . S
C247 C248 1.479 . S
C247 H261 0.950 1_554 S
C248 C247 1.479 . S
C248 C249 1.375 1_554 S
C248 C254 1.404 . S
C249 C248 1.375 1_556 S
C249 C250 1.369 . S
C249 H262 0.950 . S
C250 C249 1.369 . S
C250 C251 1.392 1_556 S
C250 H263 0.951 . S
C251 C250 1.392 1_554 S
C251 C253 1.384 . S
H252 C254 0.949 . S
C253 C251 1.384 . S
C253 C254 1.385 . S
C253 H255 0.950 . S
C254 C248 1.404 . S
C254 H252 0.949 . S
C254 C253 1.385 . S
H255 C253 0.950 . S
H256 C240 0.951 . S
H257 C242 0.951 1_455 S
H258 C244 0.951 1_465 S
H259 C245 0.950 . S
H260 C246 0.950 . S
H261 C247 0.950 1_556 S
H262 C249 0.950 . S
H263 C250 0.951 . S
C264 C265 1.386 . S
C264 C266 1.383 1_565 S
C264 H280 0.951 . S
C265 C264 1.386 . S
C265 C269 1.383 1_455 S
C266 C264 1.383 1_545 S
C266 C267 1.402 . S
C266 H281 0.951 . S
C267 C266 1.402 . S
C267 C268 1.375 1_545 S
C267 C270 1.481 . S
C268 C267 1.375 1_565 S
C268 C269 1.367 1_455 S
C268 H282 0.951 1_565 S
C269 C265 1.383 1_655 S
C269 C268 1.367 1_655 S
C269 H283 0.950 . S
C270 C267 1.481 . S
C270 C271 1.297 . S
C270 H284 0.950 . S
C271 C270 1.297 . S
C271 C272 1.479 . S
C271 H285 0.950 . S
C272 C271 1.479 . S
C272 C273 1.375 . S
C272 C278 1.404 . S
C273 C272 1.375 . S
C273 C274 1.369 . S
C273 H286 0.950 . S
C274 C273 1.369 . S
C274 C275 1.392 . S
C274 H287 0.951 . S
C275 C274 1.392 . S
C275 C277 1.384 . S
H276 C278 0.949 . S
C277 C275 1.384 . S
C277 C278 1.385 . S
C277 H279 0.950 . S
C278 C272 1.404 . S
C278 H276 0.949 . S
C278 C277 1.385 . S
H279 C277 0.950 . S
H280 C264 0.951 . S
H281 C266 0.951 . S
H282 C268 0.951 1_545 S
H283 C269 0.950 . S
H284 C270 0.950 . S
H285 C271 0.950 . S
H286 C273 0.950 . S
H287 C274 0.951 . S
C288 C289 1.386 . S
C288 C290 1.383 . S
C288 H304 0.951 . S
C289 C288 1.386 . S
C289 C293 1.383 1_545 S
C290 C288 1.383 . S
C290 C291 1.402 . S
C290 H305 0.951 . S
C291 C290 1.402 . S
C291 C292 1.375 1_545 S
C291 C294 1.481 . S
C292 C291 1.375 1_565 S
C292 C293 1.367 . S
C292 H306 0.951 . S
C293 C289 1.383 1_565 S
C293 C292 1.367 . S
C293 H307 0.950 . S
C294 C291 1.481 . S
C294 C295 1.297 . S
C294 H308 0.950 . S
C295 C294 1.297 . S
C295 C296 1.479 . S
C295 H309 0.950 . S
C296 C295 1.479 . S
C296 C297 1.375 . S
C296 C302 1.404 . S
C297 C296 1.375 . S
C297 C298 1.369 . S
C297 H310 0.950 . S
C298 C297 1.369 . S
C298 C299 1.392 1_455 S
C298 H311 0.951 . S
C299 C298 1.392 1_655 S
C299 C301 1.384 . S
H300 C302 0.949 1_655 S
C301 C299 1.384 . S
C301 C302 1.385 1_655 S
C301 H303 0.950 . S
C302 C296 1.404 . S
C302 H300 0.949 1_455 S
C302 C301 1.385 1_455 S
H303 C301 0.950 . S
H304 C288 0.951 . S
H305 C290 0.951 . S
H306 C292 0.951 . S
H307 C293 0.950 . S
H308 C294 0.950 . S
H309 C295 0.950 . S
H310 C297 0.950 . S
H311 C298 0.951 . S
C312 C313 1.386 . S
C312 C314 1.383 . S
C312 H328 0.951 . S
C313 C312 1.386 . S
C313 C317 1.383 . S
C314 C312 1.383 . S
C314 C315 1.402 . S
C314 H329 0.951 . S
C315 C314 1.402 . S
C315 C316 1.375 . S
C315 C318 1.481 . S
C316 C315 1.375 . S
C316 C317 1.367 . S
C316 H330 0.951 . S
C317 C313 1.383 . S
C317 C316 1.367 . S
C317 H331 0.950 . S
C318 C315 1.481 . S
C318 C319 1.297 . S
C318 H332 0.950 . S
C319 C318 1.297 . S
C319 C320 1.479 . S
C319 H333 0.950 . S
C320 C319 1.479 . S
C320 C321 1.375 . S
C320 C326 1.404 . S
C321 C320 1.375 . S
C321 C322 1.369 . S
C321 H334 0.950 . S
C322 C321 1.369 . S
C322 C323 1.392 . S
C322 H335 0.951 . S
C323 C322 1.392 . S
C323 C325 1.384 . S
H324 C326 0.949 . S
C325 C323 1.384 . S
C325 C326 1.385 . S
C325 H327 0.950 . S
C326 C320 1.404 . S
C326 H324 0.949 . S
C326 C325 1.385 . S
H327 C325 0.950 . S
H328 C312 0.951 . S
H329 C314 0.951 . S
H330 C316 0.951 . S
H331 C317 0.950 . S
H332 C318 0.950 . S
H333 C319 0.950 . S
H334 C321 0.950 . S
H335 C322 0.951 . S
C336 C337 1.386 . S
C336 C338 1.383 . S
C336 H352 0.951 . S
C337 C336 1.386 . S
C337 C341 1.383 . S
C338 C336 1.383 . S
C338 C339 1.402 . S
C338 H353 0.951 . S
C339 C338 1.402 . S
C339 C340 1.375 . S
C339 C342 1.481 . S
C340 C339 1.375 . S
C340 C341 1.367 . S
C340 H354 0.951 . S
C341 C337 1.383 . S
C341 C340 1.367 . S
C341 H355 0.950 . S
C342 C339 1.481 . S
C342 C343 1.297 . S
C342 H356 0.950 1_455 S
C343 C342 1.297 . S
C343 C344 1.479 1_455 S
C343 H357 0.950 . S
C344 C343 1.479 1_655 S
C344 C345 1.375 . S
C344 C350 1.404 . S
C345 C344 1.375 . S
C345 C346 1.369 . S
C345 H358 0.950 1_655 S
C346 C345 1.369 . S
C346 C347 1.392 . S
C346 H359 0.951 . S
C347 C346 1.392 . S
C347 C349 1.384 . S
H348 C350 0.949 . S
C349 C347 1.384 . S
C349 C350 1.385 . S
C349 H351 0.950 . S
C350 C344 1.404 . S
C350 H348 0.949 . S
C350 C349 1.385 . S
H351 C349 0.950 . S
H352 C336 0.951 . S
H353 C338 0.951 . S
H354 C340 0.951 . S
H355 C341 0.950 . S
H356 C342 0.950 1_655 S
H357 C343 0.950 . S
H358 C345 0.950 1_455 S
H359 C346 0.951 . S
C360 C361 1.386 . S
C360 C362 1.383 . S
C360 H376 0.951 . S
C361 C360 1.386 . S
C361 C365 1.383 . S
C362 C360 1.383 . S
C362 C363 1.402 . S
C362 H377 0.951 . S
C363 C362 1.402 . S
C363 C364 1.375 . S
C363 C366 1.481 . S
C364 C363 1.375 . S
C364 C365 1.367 . S
C364 H378 0.951 . S
C365 C361 1.383 . S
C365 C364 1.367 . S
C365 H379 0.950 . S
C366 C363 1.481 . S
C366 C367 1.297 . S
C366 H380 0.950 1_545 S
C367 C366 1.297 . S
C367 C368 1.479 1_545 S
C367 H381 0.950 . S
C368 C367 1.479 1_565 S
C368 C369 1.375 . S
C368 C374 1.404 . S
C369 C368 1.375 . S
C369 C370 1.369 . S
C369 H382 0.950 1_565 S
C370 C369 1.369 . S
C370 C371 1.392 . S
C370 H383 0.951 . S
C371 C370 1.392 . S
C371 C373 1.384 . S
H372 C374 0.949 . S
C373 C371 1.384 . S
C373 C374 1.385 . S
C373 H375 0.950 . S
C374 C368 1.404 . S
C374 H372 0.949 . S
C374 C373 1.385 . S
H375 C373 0.950 . S
H376 C360 0.951 . S
H377 C362 0.951 . S
H378 C364 0.951 . S
H379 C365 0.950 . S
H380 C366 0.950 1_565 S
H381 C367 0.950 . S
H382 C369 0.950 1_545 S
H383 C370 0.951 . S
C384 C385 1.386 . S
C384 C386 1.383 . S
C384 H400 0.951 . S
C385 C384 1.386 . S
C385 C389 1.383 . S
C386 C384 1.383 . S
C386 C387 1.402 . S
C386 H401 0.951 . S
C387 C386 1.402 . S
C387 C388 1.375 . S
C387 C390 1.481 . S
C388 C387 1.375 . S
C388 C389 1.367 . S
C388 H402 0.951 . S
C389 C385 1.383 . S
C389 C388 1.367 . S
C389 H403 0.950 . S
C390 C387 1.481 . S
C390 C391 1.297 . S
C390 H404 0.950 . S
C391 C390 1.297 . S
C391 C392 1.479 . S
C391 H405 0.950 . S
C392 C391 1.479 . S
C392 C393 1.375 . S
C392 C398 1.404 . S
C393 C392 1.375 . S
C393 C394 1.369 1_655 S
C393 H406 0.950 . S
C394 C393 1.369 1_455 S
C394 C395 1.392 . S
C394 H407 0.951 . S
C395 C394 1.392 . S
C395 C397 1.384 . S
H396 C398 0.949 . S
C397 C395 1.384 . S
C397 C398 1.385 1_455 S
C397 H399 0.950 . S
C398 C392 1.404 . S
C398 H396 0.949 . S
C398 C397 1.385 1_655 S
H399 C397 0.950 . S
H400 C384 0.951 . S
H401 C386 0.951 . S
H402 C388 0.951 . S
H403 C389 0.950 . S
H404 C390 0.950 . S
H405 C391 0.950 . S
H406 C393 0.950 . S
H407 C394 0.951 . S
C408 C409 1.386 . S
C408 C410 1.383 . S
C408 H424 0.951 1_455 S
C409 C408 1.386 . S
C409 C413 1.383 . S
C410 C408 1.383 . S
C410 C411 1.402 . S
C410 H425 0.951 . S
C411 C410 1.402 . S
C411 C412 1.375 . S
C411 C414 1.481 . S
C412 C411 1.375 . S
C412 C413 1.367 . S
C412 H426 0.951 . S
C413 C409 1.383 . S
C413 C412 1.367 . S
C413 H427 0.950 . S
C414 C411 1.481 . S
C414 C415 1.297 . S
C414 H428 0.950 . S
C415 C414 1.297 . S
C415 C416 1.479 . S
C415 H429 0.950 . S
C416 C415 1.479 . S
C416 C417 1.375 . S
C416 C422 1.405 . S
C417 C416 1.375 . S
C417 C418 1.369 1_565 S
C417 H430 0.950 . S
C418 C417 1.369 1_545 S
C418 C419 1.392 . S
C418 H431 0.951 . S
C419 C418 1.392 . S
C419 C421 1.384 . S
H420 C422 0.953 . S
C421 C419 1.384 . S
C421 C422 1.380 1_545 S
C421 H423 0.950 . S
C422 C416 1.405 . S
C422 H420 0.953 . S
C422 C421 1.380 1_565 S
H423 C421 0.950 . S
H424 C408 0.951 1_655 S
H425 C410 0.951 . S
H426 C412 0.951 . S
H427 C413 0.950 . S
H428 C414 0.950 . S
H429 C415 0.950 . S
H430 C417 0.950 . S
H431 C418 0.951 . S
C432 C433 1.386 . S
C432 C434 1.383 . S
C432 H448 0.951 . S
C433 C432 1.386 . S
C433 C437 1.383 . S
C434 C432 1.383 . S
C434 C435 1.402 . S
C434 H449 0.951 . S
C435 C434 1.402 . S
C435 C436 1.375 . S
C435 C438 1.481 . S
C436 C435 1.375 . S
C436 C437 1.367 . S
C436 H450 0.951 . S
C437 C433 1.383 . S
C437 C436 1.367 . S
C437 H451 0.950 1_545 S
C438 C435 1.481 . S
C438 C439 1.297 . S
C438 H452 0.950 . S
C439 C438 1.297 . S
C439 C440 1.479 . S
C439 H453 0.950 . S
C440 C439 1.479 . S
C440 C441 1.375 . S
C440 C446 1.404 . S
C441 C440 1.375 . S
C441 C442 1.369 . S
C441 H454 0.950 . S
C442 C441 1.369 . S
C442 C443 1.392 . S
C442 H455 0.951 . S
C443 C442 1.392 . S
C443 C445 1.384 . S
H444 C446 0.949 . S
C445 C443 1.384 . S
C445 C446 1.385 . S
C445 H447 0.950 . S
C446 C440 1.404 . S
C446 H444 0.949 . S
C446 C445 1.385 . S
H447 C445 0.950 . S
H448 C432 0.951 . S
H449 C434 0.951 . S
H450 C436 0.951 . S
H451 C437 0.950 1_565 S
H452 C438 0.950 . S
H453 C439 0.950 . S
H454 C441 0.950 . S
H455 C442 0.951 . S
C456 C457 1.386 . S
C456 C458 1.383 . S
C456 H472 0.951 . S
C457 C456 1.386 . S
C457 C461 1.383 1_554 S
C458 C456 1.383 . S
C458 C459 1.402 . S
C458 H473 0.951 . S
C459 C458 1.402 . S
C459 C460 1.375 1_554 S
C459 C462 1.481 . S
C460 C459 1.375 1_556 S
C460 C461 1.367 . S
C460 H474 0.951 . S
C461 C457 1.383 1_556 S
C461 C460 1.367 . S
C461 H475 0.950 . S
C462 C459 1.481 . S
C462 C463 1.297 . S
C462 H476 0.950 1_554 S
C463 C462 1.297 . S
C463 C464 1.479 . S
C463 H477 0.950 . S
C464 C463 1.479 . S
C464 C465 1.375 . S
C464 C470 1.404 1_554 S
C465 C464 1.375 . S
C465 C466 1.369 . S
C465 H478 0.950 . S
C466 C465 1.369 . S
C466 C467 1.392 1_545 S
C466 H479 0.951 . S
C467 C466 1.392 1_565 S
C467 C469 1.384 1_554 S
H468 C470 0.949 . S
C469 C467 1.384 1_556 S
C469 C470 1.385 1_565 S
C469 H471 0.950 . S
C470 C464 1.404 1_556 S
C470 H468 0.949 . S
C470 C469 1.385 1_545 S
H471 C469 0.950 . S
H472 C456 0.951 . S
H473 C458 0.951 . S
H474 C460 0.951 . S
H475 C461 0.950 . S
H476 C462 0.950 1_556 S
H477 C463 0.950 . S
H478 C465 0.950 . S
H479 C466 0.951 . S
C480 C481 1.386 . S
C480 C482 1.383 . S
C480 H496 0.951 . S
C481 C480 1.386 . S
C481 C485 1.383 . S
C482 C480 1.383 . S
C482 C483 1.402 . S
C482 H497 0.951 . S
C483 C482 1.402 . S
C483 C484 1.375 . S
C483 C486 1.481 . S
C484 C483 1.375 . S
C484 C485 1.367 . S
C484 H498 0.951 . S
C485 C481 1.383 . S
C485 C484 1.367 . S
C485 H499 0.950 . S
C486 C483 1.481 . S
C486 C487 1.297 . S
C486 H500 0.950 . S
C487 C486 1.297 . S
C487 C488 1.479 . S
C487 H501 0.950 . S
C488 C487 1.479 . S
C488 C489 1.375 . S
C488 C494 1.404 . S
C489 C488 1.375 . S
C489 C490 1.369 . S
C489 H502 0.950 . S
C490 C489 1.369 . S
C490 C491 1.392 . S
C490 H503 0.951 . S
C491 C490 1.392 . S
C491 C493 1.384 . S
H492 C494 0.949 . S
C493 C491 1.384 . S
C493 C494 1.385 . S
C493 H495 0.950 . S
C494 C488 1.404 . S
C494 H492 0.949 . S
C494 C493 1.385 . S
H495 C493 0.950 . S
H496 C480 0.951 . S
H497 C482 0.951 . S
H498 C484 0.951 . S
H499 C485 0.950 . S
H500 C486 0.950 . S
H501 C487 0.950 . S
H502 C489 0.950 . S
H503 C490 0.951 . S
C504 C505 1.386 1_655 S
C504 C506 1.383 1_655 S
C504 H520 0.951 . S
C505 C504 1.386 1_455 S
C505 C509 1.383 . S
C506 C504 1.383 1_455 S
C506 C507 1.402 . S
C506 H521 0.951 . S
C507 C506 1.402 . S
C507 C508 1.375 . S
C507 C510 1.481 . S
C508 C507 1.375 . S
C508 C509 1.367 . S
C508 H522 0.951 . S
C509 C505 1.383 . S
C509 C508 1.367 . S
C509 H523 0.950 . S
C510 C507 1.481 . S
C510 C511 1.297 . S
C510 H524 0.950 . S
C511 C510 1.297 . S
C511 C512 1.479 . S
C511 H525 0.950 . S
C512 C511 1.479 . S
C512 C513 1.375 . S
C512 C518 1.404 . S
C513 C512 1.375 . S
C513 C514 1.369 . S
C513 H526 0.950 . S
C514 C513 1.369 . S
C514 C515 1.392 . S
C514 H527 0.951 . S
C515 C514 1.392 . S
C515 C517 1.384 . S
H516 C518 0.949 . S
C517 C515 1.384 . S
C517 C518 1.385 . S
C517 H519 0.950 . S
C518 C512 1.404 . S
C518 H516 0.949 . S
C518 C517 1.385 . S
H519 C517 0.950 . S
H520 C504 0.951 . S
H521 C506 0.951 . S
H522 C508 0.951 . S
H523 C509 0.950 . S
H524 C510 0.950 . S
H525 C511 0.950 . S
H526 C513 0.950 . S
H527 C514 0.951 . S
C528 C529 1.386 . S
C528 C530 1.383 . S
C528 H544 0.951 . S
C529 C528 1.386 . S
C529 C533 1.383 . S
C530 C528 1.383 . S
C530 C531 1.402 . S
C530 H545 0.951 . S
C531 C530 1.402 . S
C531 C532 1.375 . S
C531 C534 1.481 . S
C532 C531 1.375 . S
C532 C533 1.367 . S
C532 H546 0.951 . S
C533 C529 1.383 . S
C533 C532 1.367 . S
C533 H547 0.950 . S
C534 C531 1.481 . S
C534 C535 1.297 . S
C534 H548 0.950 . S
C535 C534 1.297 . S
C535 C536 1.479 . S
C535 H549 0.950 . S
C536 C535 1.479 . S
C536 C537 1.375 . S
C536 C542 1.404 . S
C537 C536 1.375 . S
C537 C538 1.369 . S
C537 H550 0.950 . S
C538 C537 1.369 . S
C538 C539 1.392 . S
C538 H551 0.951 . S
C539 C538 1.392 . S
C539 C541 1.384 . S
H540 C542 0.949 . S
C541 C539 1.384 . S
C541 C542 1.385 . S
C541 H543 0.950 . S
C542 C536 1.404 . S
C542 H540 0.949 . S
C542 C541 1.385 . S
H543 C541 0.950 . S
H544 C528 0.951 . S
H545 C530 0.951 . S
H546 C532 0.951 . S
H547 C533 0.950 . S
H548 C534 0.950 . S
H549 C535 0.950 . S
H550 C537 0.950 . S
H551 C538 0.951 . S
C552 C553 1.386 . S
C552 C554 1.383 . S
C552 H568 0.951 . S
C553 C552 1.386 . S
C553 C557 1.383 . S
C554 C552 1.383 . S
C554 C555 1.402 . S
C554 H569 0.951 . S
C555 C554 1.402 . S
C555 C556 1.375 . S
C555 C558 1.481 . S
C556 C555 1.375 . S
C556 C557 1.367 . S
C556 H570 0.951 . S
C557 C553 1.383 . S
C557 C556 1.367 . S
C557 H571 0.950 . S
C558 C555 1.481 . S
C558 C559 1.297 . S
C558 H572 0.950 . S
C559 C558 1.297 . S
C559 C560 1.479 . S
C559 H573 0.950 . S
C560 C559 1.479 . S
C560 C561 1.375 . S
C560 C566 1.404 . S
C561 C560 1.375 . S
C561 C562 1.369 . S
C561 H574 0.950 . S
C562 C561 1.369 . S
C562 C563 1.392 . S
C562 H575 0.951 . S
C563 C562 1.392 . S
C563 C565 1.384 . S
H564 C566 0.949 . S
C565 C563 1.384 . S
C565 C566 1.385 . S
C565 H567 0.950 . S
C566 C560 1.404 . S
C566 H564 0.949 . S
C566 C565 1.385 . S
H567 C565 0.950 . S
H568 C552 0.951 . S
H569 C554 0.951 . S
H570 C556 0.951 . S
H571 C557 0.950 . S
H572 C558 0.950 . S
H573 C559 0.950 . S
H574 C561 0.950 . S
H575 C562 0.951 . S
C576 C577 1.386 . S
C576 C578 1.383 . S
C576 H592 0.951 . S
C577 C576 1.386 . S
C577 C581 1.383 . S
C578 C576 1.383 . S
C578 C579 1.402 . S
C578 H593 0.951 . S
C579 C578 1.402 . S
C579 C580 1.375 . S
C579 C582 1.481 . S
C580 C579 1.375 . S
C580 C581 1.367 . S
C580 H594 0.951 . S
C581 C577 1.383 . S
C581 C580 1.367 . S
C581 H595 0.950 . S
C582 C579 1.481 . S
C582 C583 1.297 . S
C582 H596 0.950 . S
C583 C582 1.297 . S
C583 C584 1.479 . S
C583 H597 0.950 . S
C584 C583 1.479 . S
C584 C585 1.375 . S
C584 C590 1.404 . S
C585 C584 1.375 . S
C585 C586 1.369 . S
C585 H598 0.950 . S
C586 C585 1.369 . S
C586 C587 1.392 . S
C586 H599 0.951 . S
C587 C586 1.392 . S
C587 C589 1.384 . S
H588 C590 0.949 . S
C589 C587 1.384 . S
C589 C590 1.385 . S
C589 H591 0.950 . S
C590 C584 1.404 . S
C590 H588 0.949 . S
C590 C589 1.385 . S
H591 C589 0.950 . S
H592 C576 0.951 . S
H593 C578 0.951 . S
H594 C580 0.951 . S
H595 C581 0.950 . S
H596 C582 0.950 . S
H597 C583 0.950 . S
H598 C585 0.950 . S
H599 C586 0.951 . S
C600 C601 1.386 . S
C600 C602 1.383 . S
C600 H616 0.951 . S
C601 C600 1.386 . S
C601 C605 1.383 . S
C602 C600 1.383 . S
C602 C603 1.402 . S
C602 H617 0.951 . S
C603 C602 1.402 . S
C603 C604 1.375 . S
C603 C606 1.481 . S
C604 C603 1.375 . S
C604 C605 1.367 . S
C604 H618 0.951 1_565 S
C605 C601 1.383 . S
C605 C604 1.367 . S
C605 H619 0.950 1_565 S
C606 C603 1.481 . S
C606 C607 1.297 . S
C606 H620 0.950 . S
C607 C606 1.297 . S
C607 C608 1.479 . S
C607 H621 0.950 . S
C608 C607 1.479 . S
C608 C609 1.375 . S
C608 C614 1.404 . S
C609 C608 1.375 . S
C609 C610 1.369 . S
C609 H622 0.950 . S
C610 C609 1.369 . S
C610 C611 1.392 . S
C610 H623 0.951 . S
C611 C610 1.392 . S
C611 C613 1.384 . S
H612 C614 0.949 . S
C613 C611 1.384 . S
C613 C614 1.385 . S
C613 H615 0.950 . S
C614 C608 1.404 . S
C614 H612 0.949 . S
C614 C613 1.385 . S
H615 C613 0.950 . S
H616 C600 0.951 . S
H617 C602 0.951 . S
H618 C604 0.951 1_545 S
H619 C605 0.950 1_545 S
H620 C606 0.950 . S
H621 C607 0.950 . S
H622 C609 0.950 . S
H623 C610 0.951 . S
C624 C625 1.386 . S
C624 C626 1.383 . S
C624 H640 0.951 . S
C625 C624 1.386 . S
C625 C629 1.383 1_655 S
C626 C624 1.383 . S
C626 C627 1.402 1_655 S
C626 H641 0.951 . S
C627 C626 1.402 1_455 S
C627 C628 1.375 . S
C627 C630 1.481 . S
C628 C627 1.375 . S
C628 C629 1.367 . S
C628 H642 0.951 . S
C629 C625 1.383 1_455 S
C629 C628 1.367 . S
C629 H643 0.950 . S
C630 C627 1.481 . S
C630 C631 1.297 . S
C630 H644 0.950 . S
C631 C630 1.297 . S
C631 C632 1.479 . S
C631 H645 0.950 1_455 S
C632 C631 1.479 . S
C632 C633 1.375 . S
C632 C638 1.404 . S
C633 C632 1.375 . S
C633 C634 1.369 . S
C633 H646 0.950 . S
C634 C633 1.369 . S
C634 C635 1.392 . S
C634 H647 0.951 . S
C635 C634 1.392 . S
C635 C637 1.384 . S
H636 C638 0.949 . S
C637 C635 1.384 . S
C637 C638 1.385 . S
C637 H639 0.950 . S
C638 C632 1.404 . S
C638 H636 0.949 . S
C638 C637 1.385 . S
H639 C637 0.950 . S
H640 C624 0.951 . S
H641 C626 0.951 . S
H642 C628 0.951 . S
H643 C629 0.950 . S
H644 C630 0.950 . S
H645 C631 0.950 1_655 S
H646 C633 0.950 . S
H647 C634 0.951 . S
C648 C649 1.386 1_545 S
C648 C650 1.383 . S
C648 H664 0.951 . S
C649 C648 1.386 1_565 S
C649 C653 1.383 . S
C650 C648 1.383 . S
C650 C651 1.402 . S
C650 H665 0.951 . S
C651 C650 1.402 . S
C651 C652 1.375 1_545 S
C651 C654 1.481 . S
C652 C651 1.375 1_565 S
C652 C653 1.367 . S
C652 H666 0.951 . S
C653 C649 1.383 . S
C653 C652 1.367 . S
C653 H667 0.950 . S
C654 C651 1.481 . S
C654 C655 1.297 . S
C654 H668 0.950 1_545 S
C655 C654 1.297 . S
C655 C656 1.479 . S
C655 H669 0.950 . S
C656 C655 1.479 . S
C656 C657 1.375 . S
C656 C662 1.404 . S
C657 C656 1.375 . S
C657 C658 1.369 . S
C657 H670 0.950 . S
C658 C657 1.369 . S
C658 C659 1.392 . S
C658 H671 0.951 . S
C659 C658 1.392 . S
C659 C661 1.384 . S
H660 C662 0.949 1_565 S
C661 C659 1.384 . S
C661 C662 1.385 . S
C661 H663 0.950 . S
C662 C656 1.404 . S
C662 H660 0.949 1_545 S
C662 C661 1.385 . S
H663 C661 0.950 . S
H664 C648 0.951 . S
H665 C650 0.951 . S
H666 C652 0.951 . S
H667 C653 0.950 . S
H668 C654 0.950 1_565 S
H669 C655 0.950 . S
H670 C657 0.950 . S
H671 C658 0.951 . S
C241 C130 0.747 1_565 S
C251 C10 0.859 . S
C265 C170 0.825 . S
C275 C50 0.709 . S
C289 C210 0.745 . S
C299 C90 0.817 1_655 S
C313 C16 0.655 . S
C323 C87 0.467 . S
C337 C56 0.574 . S
C347 C127 0.674 . S
C361 C96 0.557 . S
C371 C167 0.630 . S
C385 C136 0.583 . S
C395 C207 0.688 . S
C409 C176 0.554 . S
C419 C7 0.618 . S
C433 C216 0.689 . S
C443 C47 0.496 . S
C457 C19 1.185 . S
C467 C139 1.243 . S
C481 C59 1.182 . S
C491 C179 1.236 . S
C505 C99 1.191 1_455 S
C515 C219 1.248 . S
C529 C2 3.956 . S
C539 C51 4.000 . S
C553 C42 3.950 . S
C563 C91 3.993 . S
C577 C82 3.968 . S
C587 C131 4.000 . S
C601 C122 3.951 . S
C611 C171 3.996 . S
C625 C162 3.968 . S
C635 C211 3.998 . S
C649 C202 3.960 . S
C659 C11 4.002 . S
