# Generated by pormake.
# Topology sml, (6)-cn, num edge types: 1
# Building blocks:
#     Node 0, Type 0, BuildingBlock: IZENUY_clean_sbu_0, # of connection points: 6
#     Node 1, Type 0, BuildingBlock: IZENUY_clean_sbu_0, # of connection points: 6
#     Node 2, Type 0, BuildingBlock: IZENUY_clean_sbu_0, # of connection points: 6
#     Node 3, Type 0, BuildingBlock: IZENUY_clean_sbu_0, # of connection points: 6
#     Node 4, Type 0, BuildingBlock: IZENUY_clean_sbu_0, # of connection points: 6
#     Node 5, Type 0, BuildingBlock: IZENUY_clean_sbu_0, # of connection points: 6
#     Edge 6, Type (0, 0), BuildingBlock: UVAHIK_clean_linker_0, # of connection points: 2
#     Edge 7, Type (0, 0), BuildingBlock: UVAHIK_clean_linker_0, # of connection points: 2
#     Edge 8, Type (0, 0), BuildingBlock: UVAHIK_clean_linker_0, # of connection points: 2
#     Edge 9, Type (0, 0), BuildingBlock: UVAHIK_clean_linker_0, # of connection points: 2
#     Edge 10, Type (0, 0), BuildingBlock: UVAHIK_clean_linker_0, # of connection points: 2
#     Edge 11, Type (0, 0), BuildingBlock: UVAHIK_clean_linker_0, # of connection points: 2
#     Edge 12, Type (0, 0), BuildingBlock: UVAHIK_clean_linker_0, # of connection points: 2
#     Edge 13, Type (0, 0), BuildingBlock: UVAHIK_clean_linker_0, # of connection points: 2
#     Edge 14, Type (0, 0), BuildingBlock: UVAHIK_clean_linker_0, # of connection points: 2
#     Edge 15, Type (0, 0), BuildingBlock: UVAHIK_clean_linker_0, # of connection points: 2
#     Edge 16, Type (0, 0), BuildingBlock: UVAHIK_clean_linker_0, # of connection points: 2
#     Edge 17, Type (0, 0), BuildingBlock: UVAHIK_clean_linker_0, # of connection points: 2
#     Edge 18, Type (0, 0), BuildingBlock: UVAHIK_clean_linker_0, # of connection points: 2
#     Edge 19, Type (0, 0), BuildingBlock: UVAHIK_clean_linker_0, # of connection points: 2
#     Edge 20, Type (0, 0), BuildingBlock: UVAHIK_clean_linker_0, # of connection points: 2
#     Edge 21, Type (0, 0), BuildingBlock: UVAHIK_clean_linker_0, # of connection points: 2
#     Edge 22, Type (0, 0), BuildingBlock: UVAHIK_clean_linker_0, # of connection points: 2
#     Edge 23, Type (0, 0), BuildingBlock: UVAHIK_clean_linker_0, # of connection points: 2
# Relax obj value: 0.327
# Max RMSD: 0.283
# Mean RMSD: 0.283
data_MOF--net-sml--node1-IZENUY_clean_sbu_0--edge1-UVAHIK_clean_linker_0
_symmetry_space_group_name_H-M    P1
_symmetry_Int_Tables_number       1
_symmetry_cell_setting            triclinic
loop_
_symmetry_equiv_pos_as_xyz
'x, y, z'
_cell_length_a     51.98649
_cell_length_b     51.992428
_cell_length_c     18.834497
_cell_angle_alpha  89.970392
_cell_angle_beta   89.892373
_cell_angle_gamma 119.95738
loop_
_atom_site_label
_atom_site_type_symbol
_atom_site_fract_x
_atom_site_fract_y
_atom_site_fract_z
_atom_type_partial_charge
Fe0 Fe 0.25255 0.44306 0.06875 0.0
Fe1 Fe 0.20172 0.38789 -0.00097 0.0
O2 O 0.22212 0.4269 0.00955 0.0
Fe3 Fe 0.21196 0.44947 0.96058 0.0
O4 O 0.22332 0.47783 0.02901 0.0
O5 O 0.23582 0.46039 0.12132 0.0
O6 O 0.23642 0.41185 0.13187 0.0
C7 C 0.20962 0.39183 0.14154 0.0
C8 C 0.2724 0.48288 0.95187 0.0
O9 O 0.19133 0.38264 0.09129 0.0
C10 C 0.2039 0.40479 0.86256 0.0
O11 O 0.27163 0.42747 0.01938 0.0
O12 O 0.23343 0.38231 0.01475 0.0
O13 O 0.2483 0.46927 0.91767 0.0
O14 O 0.27369 0.47681 0.01639 0.0
C15 C 0.15749 0.40404 0.00052 0.0
O16 O 0.2109 0.39095 0.90591 0.0
O17 O 0.19837 0.4247 0.88326 0.0
C18 C 0.2609 0.40021 0.00666 0.0
O19 O 0.16613 0.3862 0.98172 0.0
O20 O 0.17543 0.4316 0.00168 0.0
C21 C 0.2271 0.4771 0.09507 0.0
Fe22 Fe 0.81322 0.25565 0.35663 0.0
Fe23 Fe 0.81627 0.20003 0.3178 0.0
O24 O 0.79679 0.21981 0.31845 0.0
Fe25 Fe 0.76085 0.20374 0.28097 0.0
O26 O 0.74499 0.20533 0.36501 0.0
O27 O 0.77764 0.25196 0.3871 0.0
O28 O 0.81573 0.24143 0.44219 0.0
C29 C 0.82806 0.22623 0.45347 0.0
C30 C 0.78751 0.26488 0.24201 0.0
O31 O 0.83513 0.21502 0.40271 0.0
C32 C 0.78962 0.1887 0.18263 0.0
O33 O 0.85173 0.26602 0.33269 0.0
O34 O 0.84626 0.22876 0.26706 0.0
O35 O 0.76474 0.23954 0.25189 0.0
O36 O 0.81151 0.27181 0.27324 0.0
C37 C 0.76063 0.15539 0.35107 0.0
O38 O 0.8009 0.18144 0.23281 0.0
O39 O 0.77475 0.20134 0.1948 0.0
C40 C 0.86126 0.25556 0.28515 0.0
O41 O 0.78752 0.17011 0.36854 0.0
O42 O 0.75022 0.16509 0.3039 0.0
C43 C 0.75232 0.2292 0.3974 0.0
Fe44 Fe 0.56941 0.76647 0.58009 0.0
Fe45 Fe 0.56385 0.80751 0.68866 0.0
O46 O 0.586 0.79701 0.63898 0.0
Fe47 Fe 0.62505 0.81716 0.64843 0.0
O48 O 0.63019 0.78525 0.632 0.0
O49 O 0.58489 0.74723 0.62934 0.0
O50 O 0.53568 0.74573 0.63279 0.0
C51 C 0.52965 0.74728 0.69719 0.0
C52 C 0.62051 0.80898 0.50613 0.0
O53 O 0.54386 0.7712 0.73175 0.0
C54 C 0.60947 0.86175 0.6481 0.0
O55 O 0.55221 0.78337 0.52793 0.0
O56 O 0.53536 0.7964 0.62065 0.0
O57 O 0.62991 0.82743 0.55611 0.0
O58 O 0.60047 0.78224 0.5164 0.0
C59 C 0.60875 0.81516 0.78541 0.0
O60 O 0.58187 0.844 0.64752 0.0
O61 O 0.62719 0.8529 0.66629 0.0
C62 C 0.53573 0.79233 0.55457 0.0
O63 O 0.58891 0.82091 0.76548 0.0
O64 O 0.62234 0.80803 0.7415 0.0
C65 C 0.61222 0.75787 0.64111 0.0
Fe66 Fe 0.81057 0.56307 0.93791 0.0
Fe67 Fe 0.75904 0.56417 0.01457 0.0
O68 O 0.79485 0.58328 0.97574 0.0
Fe69 Fe 0.8149 0.62255 0.97453 0.0
O70 O 0.845 0.62365 0.02421 0.0
O71 O 0.84932 0.59081 0.9598 0.0
O72 O 0.80907 0.54575 0.02203 0.0
C73 C 0.78526 0.5295 0.05512 0.0
C74 C 0.82553 0.60672 0.83912 0.0
O75 O 0.76259 0.53226 0.04527 0.0
C76 C 0.75933 0.61233 0.94309 0.0
O77 O 0.77462 0.53128 0.90985 0.0
O78 O 0.74264 0.54616 0.93157 0.0
O79 O 0.83311 0.62538 0.88906 0.0
O80 O 0.81284 0.57925 0.85162 0.0
C81 C 0.78876 0.60854 0.11073 0.0
O82 O 0.74881 0.59235 -0.00938 0.0
O83 O 0.78612 0.62401 0.92466 0.0
C84 C 0.7493 0.52881 0.90058 0.0
O85 O 0.77341 0.58103 0.09976 0.0
O86 O 0.80028 0.62674 0.05986 0.0
C87 C 0.85943 0.61119 0.0062 0.0
Fe88 Fe 0.25394 0.80571 0.28189 0.0
Fe89 Fe 0.20265 0.75374 0.36043 0.0
O90 O 0.2182 0.78936 0.32106 0.0
Fe91 Fe 0.19813 0.80857 0.321 0.0
O92 O 0.22704 0.83929 0.36917 0.0
O93 O 0.26419 0.84433 0.30338 0.0
O94 O 0.27045 0.80495 0.36545 0.0
C95 C 0.26394 0.78123 0.39761 0.0
C96 C 0.22393 0.8195 0.18449 0.0
O97 O 0.23876 0.75817 0.38864 0.0
C98 C 0.15333 0.75252 0.29277 0.0
O99 O 0.2505 0.76996 0.25382 0.0
O100 O 0.20395 0.7374 0.27698 0.0
O101 O 0.21248 0.82653 0.23481 0.0
O102 O 0.23932 0.80738 0.19625 0.0
C103 C 0.18781 0.78305 0.45762 0.0
O104 O 0.16383 0.74255 0.33897 0.0
O105 O 0.16775 0.77917 0.27293 0.0
C106 C 0.22788 0.74443 0.24512 0.0
O107 O 0.20052 0.7682 0.44597 0.0
O108 O 0.18029 0.79401 0.40721 0.0
C109 C 0.25372 0.85426 0.34985 0.0
Fe110 Fe 0.44949 0.19826 0.70216 0.0
Fe111 Fe 0.39013 0.19405 0.66455 0.0
O112 O 0.42943 0.21401 0.66384 0.0
Fe113 Fe 0.44875 0.24983 0.62509 0.0
O114 O 0.46648 0.26624 0.70832 0.0
O115 O 0.48113 0.23414 0.731 0.0
O116 O 0.433 0.19588 0.78811 0.0
C117 C 0.4055 0.18326 0.80024 0.0
C118 C 0.4838 0.22373 0.58619 0.0
O119 O 0.38696 0.17583 0.7501 0.0
C120 C 0.40463 0.22017 0.52839 0.0
O121 O 0.42181 0.15958 0.67985 0.0
O122 O 0.38894 0.16375 0.61523 0.0
O123 O 0.48082 0.24631 0.59536 0.0
O124 O 0.46714 0.19982 0.61843 0.0
C125 C 0.40064 0.24975 0.69617 0.0
O126 O 0.38629 0.20873 0.57906 0.0
O127 O 0.43214 0.23543 0.53969 0.0
C128 C 0.40132 0.14931 0.63381 0.0
O129 O 0.3887 0.22291 0.71423 0.0
O130 O 0.42053 0.26013 0.64838 0.0
C131 C 0.48344 0.25939 0.74044 0.0
C132 C 0.36593 0.25587 0.77714 0.0
C133 C 0.38998 0.26859 0.72944 0.0
C134 C 0.35602 0.27327 0.81049 0.0
C135 C 0.35673 0.34446 0.79703 0.0
H136 H 0.32787 0.32507 -0.00921 0.0
C137 C 0.30834 0.40741 0.95294 0.0
C138 C 0.28043 0.3886 0.98378 0.0
C139 C 0.3255 0.39573 0.92591 0.0
C140 C 0.33587 0.33075 0.9367 0.0
H141 H 0.42257 0.30978 0.67969 0.0
H142 H 0.40537 0.34039 0.73883 0.0
H143 H 0.35121 0.29953 0.93526 0.0
H144 H 0.24905 0.34297 0.01227 0.0
H145 H 0.27911 0.32279 0.9663 0.0
H146 H 0.34109 0.37563 0.79885 0.0
C147 C 0.39397 0.31677 0.74958 0.0
C148 C 0.34913 0.31605 0.90469 0.0
C149 C 0.40387 0.29925 0.71581 0.0
C150 C 0.27044 0.35807 -0.01116 0.0
C151 C 0.28773 0.34651 0.96283 0.0
C152 C 0.34364 0.35938 0.82938 0.0
C153 C 0.37 0.30397 0.79764 0.0
C154 C 0.35901 0.32212 0.83382 0.0
C155 C 0.31527 0.36513 0.93033 0.0
C156 C 0.33243 0.35213 0.89895 0.0
H157 H 0.35458 0.23232 0.78889 0.0
H158 H 0.33709 0.26249 0.84587 0.0
H159 H 0.3639 0.34957 0.74227 0.0
H160 H 0.31655 0.43101 0.94789 0.0
H161 H 0.34671 0.41059 0.90135 0.0
C162 C 0.11726 0.40953 0.0604 0.0
C163 C 0.12611 0.3921 0.02174 0.0
C164 C 0.08837 0.39695 0.08767 0.0
C165 C 0.02586 0.32365 0.13919 0.0
H166 H 0.97984 0.3637 0.14473 0.0
C167 C 0.90207 0.26104 0.20507 0.0
C168 C 0.89139 0.2738 0.25445 0.0
C169 C 0.93069 0.27736 0.17742 0.0
C170 C 0.99261 0.35242 0.14416 0.0
H171 H 0.11111 0.34828 0.978 0.0
H172 H 0.06081 0.32666 0.02381 0.0
H173 H 0.02972 0.38886 0.09234 0.0
H174 H 0.90227 0.31419 0.31159 0.0
H175 H 0.95265 0.34288 0.26272 0.0
H176 H 0.98883 0.28716 0.19002 0.0
C177 C 0.07632 0.34979 0.03496 0.0
C178 C 0.02113 0.36679 0.11419 0.0
C179 C 0.10513 0.36226 0.00821 0.0
C180 C 0.90987 0.30365 0.27402 0.0
C181 C 0.93863 0.32011 0.24584 0.0
C182 C 0.99745 0.30932 0.16866 0.0
C183 C 0.06777 0.36674 0.07656 0.0
C184 C 0.0379 0.35235 0.11046 0.0
C185 C 0.94943 0.30693 0.19806 0.0
C186 C 0.98033 0.32334 0.17062 0.0
H187 H 0.13295 0.43257 0.07197 0.0
H188 H 0.08256 0.41059 0.11971 0.0
H189 H 0.03845 0.31219 0.13911 0.0
H190 H 0.88842 0.23824 0.188 0.0
H191 H 0.93818 0.26676 0.1397 0.0
C192 C 0.75482 0.11474 0.43191 0.0
C193 C 0.74215 0.12548 0.38254 0.0
C194 C 0.7382 0.08642 0.46081 0.0
C195 C 0.66281 0.02598 0.49805 0.0
H196 H 0.70153 0.97873 0.50451 0.0
C197 C 0.60428 0.90197 0.58755 0.0
C198 C 0.62161 0.89307 0.62635 0.0
C199 C 0.6171 0.93069 0.55922 0.0
C200 C 0.6905 0.99173 0.50402 0.0
H201 H 0.70163 0.11503 0.32666 0.0
H202 H 0.6724 0.06511 0.3777 0.0
H203 H 0.72704 0.02776 0.45071 0.0
H204 H 0.66548 0.90783 0.66944 0.0
H205 H 0.68751 0.95785 0.62172 0.0
H206 H 0.62631 0.98983 0.5523 0.0
C207 C 0.69533 0.07888 0.3936 0.0
C208 C 0.70509 0.0198 0.4729 0.0
C209 C 0.7121 0.10735 0.36415 0.0
C210 C 0.65157 0.91385 0.63913 0.0
C211 C 0.66427 0.94249 0.61131 0.0
C212 C 0.64816 0.99778 0.52963 0.0
C213 C 0.70841 0.06802 0.44146 0.0
C214 C 0.69163 0.03742 0.47044 0.0
C215 C 0.64744 0.95103 0.56939 0.0
C216 C 0.66208 0.98054 0.53389 0.0
H217 H 0.77778 0.12813 0.4481 0.0
H218 H 0.74873 0.07889 0.49858 0.0
H219 H 0.65197 0.03916 0.49713 0.0
H220 H 0.58115 0.88641 0.57655 0.0
H221 H 0.60354 0.93653 0.52699 0.0
C222 C 0.60541 0.71106 0.69788 0.0
C223 C 0.62393 0.7386 0.66512 0.0
C224 C 0.61754 0.69483 0.72816 0.0
C225 C 0.689 0.70703 0.79942 0.0
H226 H 0.65315 0.62142 0.78929 0.0
C227 C 0.75434 0.64896 0.86703 0.0
C228 C 0.74107 0.62417 0.91247 0.0
C229 C 0.73781 0.66092 0.83895 0.0
C230 C 0.66318 0.64531 0.79315 0.0
H231 H 0.66936 0.7698 0.63459 0.0
H232 H 0.69023 0.74134 0.6853 0.0
H233 H 0.62824 0.64576 0.73359 0.0
H234 H 0.69965 0.59196 0.96216 0.0
H235 H 0.67055 0.613 0.91221 0.0
H236 H 0.72414 0.70677 0.85748 0.0
C237 C 0.66652 0.73262 0.68985 0.0
C238 C 0.64896 0.65924 0.76133 0.0
C239 C 0.65451 0.74886 0.66027 0.0
C240 C 0.71058 0.61119 0.92777 0.0
C241 C 0.6939 0.62309 0.89895 0.0
C242 C 0.70321 0.6932 0.83062 0.0
C243 C 0.64836 0.70582 0.72588 0.0
C244 C 0.66204 0.69036 0.76298 0.0
C245 C 0.70751 0.64834 0.85504 0.0
C246 C 0.69076 0.66228 0.82679 0.0
H247 H 0.58176 0.70264 0.70266 0.0
H248 H 0.60294 0.67429 0.75564 0.0
H249 H 0.69928 0.73094 0.8036 0.0
H250 H 0.77769 0.65943 0.85344 0.0
H251 H 0.74879 0.68009 0.80433 0.0
C252 C 0.10872 0.70278 0.26663 0.0
C253 C 0.12258 0.73394 0.26698 0.0
C254 C 0.07965 0.6856 0.24122 0.0
C255 C 0.01068 0.6854 0.22508 0.0
H256 H 0.99298 0.63743 0.05513 0.0
C257 C 0.90375 0.64989 0.07085 0.0
C258 C 0.88936 0.62222 0.03663 0.0
C259 C 0.93156 0.66035 0.10164 0.0
C260 C 0.99733 0.6502 0.10347 0.0
H261 H 0.11682 0.7715 0.24166 0.0
H262 H 0.06595 0.7415 0.19975 0.0
H263 H 0.0429 0.66067 0.10628 0.0
H264 H 0.8929 0.58372 0.0081 0.0
H265 H 0.9414 0.60169 0.06382 0.0
H266 H 0.96547 0.675 0.22367 0.0
C267 C 0.07768 0.73044 0.2182 0.0
C268 C 0.02593 0.66353 0.1325 0.0
C269 C 0.10681 0.74755 0.24197 0.0
C270 C 0.90354 0.60524 0.0337 0.0
C271 C 0.93136 0.61559 0.06549 0.0
C272 C 0.98208 0.67173 0.19698 0.0
C273 C 0.06388 0.69938 0.21753 0.0
C274 C 0.03294 0.68184 0.19241 0.0
C275 C 0.94565 0.64324 0.10027 0.0
C276 C 0.97522 0.65471 0.13449 0.0
H277 H 0.12045 0.69174 0.2852 0.0
H278 H 0.06932 0.66163 0.24107 0.0
H279 H 0.0156 0.69923 0.27179 0.0
H280 H 0.89361 0.6637 0.07355 0.0
H281 H 0.94213 0.68211 0.12599 0.0
C282 C 0.36022 0.10301 0.58084 0.0
C283 C 0.38945 0.11878 0.60658 0.0
C284 C 0.3485 0.07402 0.55617 0.0
C285 C 0.36466 0.02248 0.47095 0.0
H286 H 0.29271 0.96167 0.5612 0.0
C287 C 0.30316 0.89942 0.37599 0.0
C288 C 0.27199 0.88459 0.37869 0.0
C289 C 0.31999 0.92761 0.40655 0.0
C290 C 0.31258 0.97838 0.53467 0.0
H291 H 0.42961 0.11682 0.62485 0.0
H292 H 0.40912 0.06598 0.57927 0.0
H293 H 0.31763 0.01196 0.60834 0.0
H294 H 0.23404 0.88811 0.4135 0.0
H295 H 0.26302 0.93723 0.46367 0.0
H296 H 0.35882 0.9894 0.39481 0.0
C297 C 0.39535 0.07618 0.57951 0.0
C298 C 0.32695 0.00709 0.56222 0.0
C299 C 0.40694 0.1051 0.60579 0.0
C300 C 0.25803 0.89874 0.41116 0.0
C301 C 0.27474 0.92691 0.44063 0.0
C302 C 0.34995 0.99376 0.44242 0.0
C303 C 0.36592 0.06037 0.55528 0.0
C304 C 0.35281 0.02946 0.52999 0.0
C305 C 0.30595 0.94163 0.43975 0.0
C306 C 0.32335 0.97149 0.47314 0.0
H307 H 0.34616 0.1129 0.58077 0.0
H308 H 0.32579 0.06225 0.53733 0.0
H309 H 0.38455 0.03952 0.44512 0.0
H310 H 0.31453 0.88899 0.35165 0.0
H311 H 0.34397 0.93814 0.40527 0.0
C312 C 0.21348 0.38366 0.75429 0.0
C313 C 0.19638 0.39352 0.79001 0.0
C314 C 0.20615 0.3728 0.68527 0.0
C315 C 0.18296 0.34242 0.54556 0.0
H316 H 0.15855 0.3866 0.42415 0.0
C317 C 0.16983 0.36549 0.23167 0.0
C318 C 0.19985 0.37834 0.21199 0.0
C319 C 0.16111 0.35607 0.30134 0.0
C320 C 0.16461 0.37349 0.45757 0.0
H321 H 0.15722 0.39807 0.78486 0.0
H322 H 0.14345 0.37777 0.66564 0.0
H323 H 0.15922 0.39297 0.55142 0.0
H324 H 0.2438 0.38916 0.24724 0.0
H325 H 0.22844 0.37238 0.369 0.0
H326 H 0.19119 0.32545 0.44965 0.0
C327 C 0.16329 0.3796 0.68908 0.0
C328 C 0.16497 0.37706 0.53078 0.0
C329 C 0.17115 0.39126 0.75727 0.0
C330 C 0.2206 0.37964 0.26144 0.0
C331 C 0.21176 0.3697 0.33067 0.0
C332 C 0.18323 0.33939 0.47201 0.0
C333 C 0.18106 0.37083 0.65155 0.0
C334 C 0.17524 0.36246 0.57557 0.0
C335 C 0.18219 0.35881 0.35161 0.0
C336 C 0.175 0.35571 0.42767 0.0
H337 H 0.23296 0.38511 0.77907 0.0
H338 H 0.22077 0.3669 0.65776 0.0
H339 H 0.19013 0.33014 0.57856 0.0
H340 H 0.1534 0.36421 0.19434 0.0
H341 H 0.13823 0.3479 0.31681 0.0
C342 C 0.77498 0.18093 0.05497 0.0
C343 C 0.79464 0.18308 0.10869 0.0
C344 C 0.78168 0.17935 0.98392 0.0
C345 C 0.84436 0.20842 0.86862 0.0
H346 H 0.78832 0.15612 0.72768 0.0
C347 C 0.83172 0.19351 0.54484 0.0
C348 C 0.83321 0.22049 0.52709 0.0
C349 C 0.83191 0.18593 0.61594 0.0
C350 C 0.80439 0.17055 0.76657 0.0
H351 H 0.83623 0.18439 0.13075 0.0
H352 H 0.84832 0.18252 0.00583 0.0
H353 H 0.77691 0.14536 0.85417 0.0
H354 H 0.83783 0.26141 0.56885 0.0
H355 H 0.83911 0.24854 0.6931 0.0
H356 H 0.87085 0.23474 0.78103 0.0
C357 C 0.82758 0.18158 0.01909 0.0
C358 C 0.79781 0.16449 0.83863 0.0
C359 C 0.82059 0.18254 0.09033 0.0
C360 C 0.83664 0.24049 0.58121 0.0
C361 C 0.83752 0.23321 0.6521 0.0
C362 C 0.85068 0.21478 0.79658 0.0
C363 C 0.80839 0.18047 0.96537 0.0
C364 C 0.81742 0.18377 0.89012 0.0
C365 C 0.83435 0.20555 0.67005 0.0
C366 C 0.83041 0.19627 0.74512 0.0
H367 H 0.75482 0.18126 0.06773 0.0
H368 H 0.7667 0.17882 0.94326 0.0
H369 H 0.85969 0.22373 0.90748 0.0
H370 H 0.82879 0.17758 0.50405 0.0
H371 H 0.82935 0.16446 0.62879 0.0
C372 C 0.64769 0.8485 0.41587 0.0
C373 C 0.63405 0.81844 0.43558 0.0
C374 C 0.65742 0.85704 0.3463 0.0
C375 C 0.64089 0.85435 0.18984 0.0
H376 H 0.68247 0.82643 0.06962 0.0
C377 C 0.6293 0.80477 0.89345 0.0
C378 C 0.62028 0.82254 0.85773 0.0
C379 C 0.64028 0.81191 0.9624 0.0
C380 C 0.67069 0.83429 0.10241 0.0
H381 H 0.62207 0.77413 0.4004 0.0
H382 H 0.63932 0.78916 0.2788 0.0
H383 H 0.68666 0.8251 0.19861 0.0
H384 H 0.61746 0.86267 0.86259 0.0
H385 H 0.63804 0.8761 0.98164 0.0
H386 H 0.62235 0.86076 0.09569 0.0
C387 C 0.6424 0.80602 0.31707 0.0
C388 C 0.67344 0.83385 0.17601 0.0
C389 C 0.63219 0.79739 0.38621 0.0
C390 C 0.62359 0.84825 0.89025 0.0
C391 C 0.6354 0.8559 0.95833 0.0
C392 C 0.63759 0.85418 0.11658 0.0
C393 C 0.65416 0.83572 0.29611 0.0
C394 C 0.65771 0.84294 0.22007 0.0
C395 C 0.64323 0.83745 -0.004 0.0
C396 C 0.65153 0.84305 0.07205 0.0
H397 H 0.64944 0.86517 0.45313 0.0
H398 H 0.66627 0.88002 0.33085 0.0
H399 H 0.62825 0.86111 0.22301 0.0
H400 H 0.62706 0.78493 0.86876 0.0
H401 H 0.64545 0.79678 -0.01002 0.0
C402 C 0.83138 0.64379 0.74721 0.0
C403 C 0.83081 0.61726 0.76511 0.0
C404 C 0.83218 0.6518 0.67612 0.0
C405 C 0.84938 0.63968 0.4954 0.0
H406 H 0.77906 0.64242 0.4386 0.0
C407 C 0.77398 0.60303 0.2382 0.0
C408 C 0.79421 0.61953 0.18423 0.0
C409 C 0.78101 0.61119 0.30909 0.0
C410 C 0.79904 0.64224 0.45394 0.0
H411 H 0.83233 0.57918 0.72345 0.0
H412 H 0.83455 0.59363 0.59911 0.0
H413 H 0.7898 0.64177 0.56495 0.0
H414 H 0.83719 0.65796 0.16141 0.0
H415 H 0.84984 0.67168 0.28618 0.0
H416 H 0.85805 0.63907 0.38439 0.0
C417 C 0.83415 0.60805 0.64008 0.0
C418 C 0.80525 0.64199 0.52591 0.0
C419 C 0.8327 0.59971 0.71102 0.0
C420 C 0.82111 0.64501 0.20208 0.0
C421 C 0.82841 0.6528 0.2732 0.0
C422 C 0.84348 0.6405 0.42344 0.0
C423 C 0.83313 0.63374 0.62207 0.0
C424 C 0.82992 0.6397 0.54706 0.0
C425 C 0.80861 0.63562 0.32719 0.0
C426 C 0.81774 0.64078 0.40226 0.0
H427 H 0.82969 0.6576 0.78793 0.0
H428 H 0.83131 0.67166 0.66324 0.0
H429 H 0.86853 0.63792 0.51072 0.0
H430 H 0.7531 0.58331 0.22574 0.0
H431 H 0.76553 0.59745 0.34999 0.0
C432 C 0.17976 0.76875 0.58547 0.0
C433 C 0.1823 0.7884 0.53122 0.0
C434 C 0.1781 0.77567 0.6562 0.0
C435 C 0.16294 0.7927 0.80008 0.0
H436 H 0.23499 0.8639 0.85738 0.0
C437 C 0.19238 0.82506 0.09332 0.0
C438 C 0.21861 0.82497 0.11083 0.0
C439 C 0.18523 0.82609 0.02238 0.0
C440 C 0.21454 0.8443 0.84188 0.0
H441 H 0.18427 0.83021 0.50771 0.0
H442 H 0.18234 0.84273 0.6322 0.0
H443 H 0.22395 0.85308 0.73095 0.0
H444 H 0.25876 0.8277 0.06884 0.0
H445 H 0.24657 0.83026 0.94477 0.0
H446 H 0.15409 0.78334 0.91099 0.0
C447 C 0.1811 0.82181 0.61955 0.0
C448 C 0.20816 0.83818 0.7699 0.0
C449 C 0.1821 0.81459 0.54863 0.0
C450 C 0.23837 0.82765 0.05666 0.0
C451 C 0.23151 0.82931 0.9859 0.0
C452 C 0.16902 0.79911 0.87205 0.0
C453 C 0.17955 0.8026 0.67378 0.0
C454 C 0.18286 0.81182 0.74862 0.0
C455 C 0.20454 0.82774 0.96822 0.0
C456 C 0.19538 0.82441 0.89334 0.0
H457 H 0.17981 0.74841 0.57334 0.0
H458 H 0.17724 0.7607 0.69739 0.0
H459 H 0.14333 0.77225 0.78458 0.0
H460 H 0.17668 0.82281 0.13416 0.0
H461 H 0.16429 0.82476 0.00966 0.0
C462 C 0.36782 0.18836 0.43702 0.0
C463 C 0.39376 0.21486 0.45481 0.0
C464 C 0.35989 0.18116 0.36595 0.0
C465 C 0.37138 0.16542 0.21558 0.0
H466 H 0.37165 0.21991 0.07437 0.0
C467 C 0.41204 0.17554 0.92814 0.0
C468 C 0.39481 0.17794 0.87409 0.0
C469 C 0.40367 0.17415 -0.00095 0.0
C470 C 0.37098 0.20425 0.11334 0.0
H471 H 0.43068 0.25544 0.41318 0.0
H472 H 0.41633 0.2432 0.28898 0.0
H473 H 0.37147 0.23088 0.20079 0.0
H474 H 0.35498 0.18001 0.85122 0.0
H475 H 0.34089 0.17852 0.97592 0.0
H476 H 0.37306 0.13991 0.12815 0.0
C477 C 0.40234 0.22794 0.32993 0.0
C478 C 0.37101 0.21058 0.18534 0.0
C479 C 0.41063 0.23485 0.40079 0.0
C480 C 0.36853 0.17792 0.89194 0.0
C481 C 0.36051 0.17718 0.96302 0.0
C482 C 0.37192 0.15938 0.14359 0.0
C483 C 0.37739 0.2007 0.31192 0.0
C484 C 0.37194 0.19157 0.23689 0.0
C485 C 0.37828 0.17575 0.01704 0.0
C486 C 0.37245 0.17913 0.09205 0.0
H487 H 0.35455 0.17247 0.47772 0.0
H488 H 0.34061 0.16001 0.35303 0.0
H489 H 0.37238 0.15061 0.25454 0.0
H490 H 0.43237 0.17549 0.91571 0.0
H491 H 0.41787 0.17337 0.04001 0.0
C492 C 0.25234 0.52386 0.1648 0.0
C493 C 0.22606 0.5002 0.1375 0.0
C494 C 0.25368 0.55074 0.18196 0.0
C495 C 0.21744 0.59237 0.12397 0.0
H496 H 0.26162 0.64691 0.27574 0.0
C497 C 0.20601 0.6938 0.19296 0.0
C498 C 0.23125 0.71999 0.21532 0.0
C499 C 0.2076 0.66826 0.17927 0.0
C500 C 0.24957 0.63207 0.23243 0.0
H501 H 0.18013 0.48487 0.11181 0.0
H502 H 0.18193 0.53106 0.14485 0.0
H503 H 0.25867 0.59847 0.27023 0.0
H504 H 0.27831 0.74035 0.23801 0.0
H505 H 0.28113 0.69561 0.21346 0.0
H506 H 0.20816 0.62569 0.08629 0.0
C507 C 0.20175 0.52939 0.15127 0.0
C508 C 0.24777 0.60428 0.22954 0.0
C509 C 0.20053 0.50279 0.1335 0.0
C510 C 0.25854 0.72058 0.22006 0.0
C511 C 0.26007 0.69487 0.20702 0.0
C512 C 0.21922 0.62001 0.12689 0.0
C513 C 0.22872 0.55418 0.17202 0.0
C514 C 0.23127 0.58394 0.17585 0.0
C515 C 0.23444 0.66825 0.18813 0.0
C516 C 0.23497 0.64004 0.1816 0.0
H517 H 0.27246 0.52251 0.16666 0.0
H518 H 0.27479 0.56941 0.19775 0.0
H519 H 0.20531 0.57762 0.08058 0.0
H520 H 0.18466 0.69266 0.18917 0.0
H521 H 0.1874 0.64809 0.1653 0.0
C522 C 0.70178 0.20637 0.45148 0.0
C523 C 0.72855 0.23202 0.43354 0.0
C524 C 0.67723 0.20838 0.47351 0.0
C525 C 0.64482 0.25665 0.45481 0.0
H526 H 0.58811 0.20192 0.59175 0.0
C527 C 0.53637 0.25535 0.5438 0.0
C528 C 0.51123 0.22709 0.55339 0.0
C529 C 0.56397 0.2582 0.5273 0.0
C530 C 0.60363 0.21719 0.55294 0.0
H531 H 0.75099 0.2801 0.42821 0.0
H532 H 0.70802 0.28364 0.46778 0.0
H533 H 0.63547 0.20375 0.5757 0.0
H534 H 0.49488 0.17972 0.54733 0.0
H535 H 0.54276 0.18474 0.51792 0.0
H536 H 0.61268 0.26996 0.43216 0.0
C537 C 0.70601 0.26193 0.46375 0.0
C538 C 0.6308 0.2183 0.54388 0.0
C539 C 0.73071 0.25992 0.44191 0.0
C540 C 0.51385 0.20182 0.54116 0.0
C541 C 0.54133 0.20468 0.52485 0.0
C542 C 0.6176 0.25565 0.4642 0.0
C543 C 0.67879 0.23611 0.47819 0.0
C544 C 0.65149 0.23759 0.4937 0.0
C545 C 0.56687 0.23285 0.52022 0.0
C546 C 0.59648 0.23543 0.5123 0.0
H547 H 0.6994 0.18455 0.44571 0.0
H548 H 0.65658 0.18802 0.48353 0.0
H549 H 0.66013 0.27155 0.41515 0.0
H550 H 0.53515 0.27527 0.55308 0.0
H551 H 0.58328 0.2802 0.52386 0.0
C552 C 0.29878 0.51889 0.85153 0.0
C553 C 0.29863 0.50921 0.92132 0.0
C554 C 0.32332 0.545 0.8261 0.0
C555 C 0.38601 0.61543 0.88861 0.0
H556 H 0.42217 0.61737 0.70724 0.0
C557 C 0.49918 0.71492 0.79915 0.0
C558 C 0.50245 0.72192 0.72654 0.0
C559 C 0.47375 0.68941 0.82385 0.0
C560 C 0.41211 0.61741 0.7576 0.0
H561 H 0.32457 0.51912 0.01833 0.0
H562 H 0.36674 0.56423 0.97408 0.0
H563 H 0.37808 0.57196 0.74549 0.0
H564 H 0.48102 0.70893 0.62359 0.0
H565 H 0.43674 0.66554 0.66658 0.0
H566 H 0.41973 0.66093 0.9006 0.0
C567 C 0.34789 0.55193 0.93933 0.0
C568 C 0.38686 0.59133 0.77939 0.0
C569 C 0.32369 0.52588 0.96439 0.0
C570 C 0.47945 0.70376 0.67974 0.0
C571 C 0.45406 0.67872 0.70434 0.0
C572 C 0.4111 0.64163 0.86653 0.0
C573 C 0.34789 0.56195 0.8703 0.0
C574 C 0.37368 0.59004 0.84527 0.0
C575 C 0.45107 0.6708 0.77638 0.0
C576 C 0.42451 0.64294 0.80076 0.0
H577 H 0.27987 0.50658 0.81702 0.0
H578 H 0.32282 0.55231 0.7725 0.0
H579 H 0.37609 0.61507 0.93951 0.0
H580 H 0.5166 0.72858 0.83625 0.0
H581 H 0.47223 0.68388 0.8797 0.0
C582 C 0.7563 0.28648 0.20114 0.0
C583 C 0.78442 0.28916 0.20965 0.0
C584 C 0.7538 0.31144 0.18504 0.0
C585 C 0.79584 0.39205 0.20992 0.0
H586 H 0.7414 0.39492 0.07413 0.0
C587 C 0.8078 0.50145 0.10852 0.0
C588 C 0.78226 0.50291 0.09149 0.0
C589 C 0.80552 0.47478 0.13066 0.0
C590 C 0.75633 0.39431 0.11325 0.0
H591 H 0.83188 0.31959 0.20203 0.0
H592 H 0.82746 0.36284 0.17331 0.0
H593 H 0.74235 0.34873 0.09067 0.0
H594 H 0.73413 0.47784 0.08803 0.0
H595 H 0.73013 0.43119 0.12777 0.0
H596 H 0.80997 0.43747 0.23256 0.0
C597 C 0.80737 0.34166 0.18081 0.0
C598 C 0.75697 0.3679 0.12236 0.0
C599 C 0.80988 0.31681 0.19671 0.0
C600 C 0.75424 0.47747 0.10097 0.0
C601 C 0.75195 0.45067 0.12292 0.0
C602 C 0.79511 0.41831 0.20113 0.0
C603 C 0.77936 0.33947 0.17727 0.0
C604 C 0.7772 0.36673 0.16971 0.0
C605 C 0.77762 0.44889 0.13635 0.0
C606 C 0.77579 0.41996 0.15168 0.0
H607 H 0.73624 0.26552 0.21096 0.0
H608 H 0.73191 0.3091 0.18243 0.0
H609 H 0.81115 0.39159 0.24816 0.0
H610 H 0.82972 0.52066 0.10189 0.0
H611 H 0.82577 0.47419 0.13991 0.0
C612 C 0.28925 0.75204 0.42304 0.0
C613 C 0.2887 0.77874 0.42838 0.0
C614 C 0.31539 0.7515 0.43719 0.0
C615 C 0.38909 0.79362 0.52177 0.0
H616 H 0.41456 0.75821 0.37642 0.0
C617 C 0.50817 0.81741 0.51947 0.0
C618 C 0.51216 0.79279 0.51291 0.0
C619 C 0.48115 0.81519 0.50144 0.0
C620 C 0.40765 0.76797 0.41771 0.0
H621 H 0.31435 0.82525 0.45672 0.0
H622 H 0.35968 0.82419 0.48273 0.0
H623 H 0.36523 0.75317 0.36931 0.0
H624 H 0.49197 0.74704 0.47897 0.0
H625 H 0.44433 0.74293 0.44756 0.0
H626 H 0.43123 0.80843 0.57036 0.0
C627 C 0.34008 0.80372 0.46736 0.0
C628 C 0.37937 0.76497 0.41387 0.0
C629 C 0.31413 0.80435 0.45246 0.0
C630 C 0.48953 0.7665 0.48292 0.0
C631 C 0.46222 0.76413 0.46555 0.0
C632 C 0.41722 0.79655 0.52571 0.0
C633 C 0.34127 0.77752 0.45786 0.0
C634 C 0.36999 0.77813 0.46539 0.0
C635 C 0.45734 0.78807 0.47786 0.0
C636 C 0.42706 0.78422 0.47313 0.0
H637 H 0.27008 0.73203 0.40376 0.0
H638 H 0.3156 0.73092 0.43018 0.0
H639 H 0.38232 0.8036 0.56285 0.0
H640 H 0.52531 0.83781 0.5431 0.0
H641 H 0.47838 0.83429 0.50968 0.0
C642 C 0.69701 0.49896 0.85829 0.0
C643 C 0.72477 0.50123 0.87002 0.0
C644 C 0.67201 0.47147 0.84471 0.0
C645 C 0.64519 0.39407 0.79178 0.0
H646 H 0.57687 0.37897 0.90618 0.0
C647 C 0.53596 0.28134 0.78295 0.0
C648 C 0.51027 0.28356 0.77445 0.0
C649 C 0.56289 0.30625 0.80212 0.0
C650 C 0.59567 0.38286 0.87359 0.0
H651 H 0.74839 0.47664 0.87146 0.0
H652 H 0.70455 0.42852 0.84705 0.0
H653 H 0.62279 0.42629 0.91657 0.0
H654 H 0.49225 0.31311 0.78391 0.0
H655 H 0.53895 0.35633 0.81707 0.0
H656 H 0.61779 0.35079 0.74767 0.0
C657 C 0.70224 0.44809 0.84877 0.0
C658 C 0.62195 0.41 0.87938 0.0
C659 C 0.72736 0.47568 0.86252 0.0
C660 C 0.51165 0.31066 0.78982 0.0
C661 C 0.53846 0.33545 0.80917 0.0
C662 C 0.61877 0.36688 0.78568 0.0
C663 C 0.67415 0.4456 0.84236 0.0
C664 C 0.64682 0.41612 0.83766 0.0
C665 C 0.56457 0.33377 0.81367 0.0
C666 C 0.59355 0.36118 0.82571 0.0
H667 H 0.69429 0.51824 0.8629 0.0
H668 H 0.65075 0.47032 0.8382 0.0
H669 H 0.66401 0.39819 0.75898 0.0
H670 H 0.53566 0.26079 0.7713 0.0
H671 H 0.58253 0.30415 0.8062 0.0
loop_
_geom_bond_atom_site_label_1
_geom_bond_atom_site_label_2
_geom_bond_distance
_geom_bond_site_symmetry_2
_ccdc_geom_bond_type
Fe0 O2 1.915 1_554 S
Fe0 O5 1.997 . S
Fe0 O6 2.002 . S
Fe0 O11 1.976 . S
Fe0 O14 1.996 1_554 S
Fe1 O2 1.918 1_554 S
Fe1 O9 1.997 . S
Fe1 O12 1.996 1_554 S
Fe1 O16 1.976 1_554 S
Fe1 O19 2.002 . S
O2 Fe0 1.915 1_556 S
O2 Fe1 1.918 1_556 S
O2 Fe3 1.921 . S
Fe3 O2 1.921 . S
Fe3 O4 2.002 1_556 S
Fe3 O13 1.976 . S
Fe3 O17 1.996 . S
Fe3 O20 1.997 . S
O4 Fe3 2.002 1_554 S
O4 C21 1.295 . S
O5 Fe0 1.997 . S
O5 C21 1.235 . S
O6 Fe0 2.002 . S
O6 C7 1.295 . S
C7 O6 1.295 . S
C7 O9 1.235 . S
C8 O13 1.287 . S
C8 O14 1.255 . S
O9 Fe1 1.997 . S
O9 C7 1.235 . S
C10 O16 1.287 . S
C10 O17 1.255 . S
O11 Fe0 1.976 . S
O11 C18 1.287 . S
O12 Fe1 1.996 1_556 S
O12 C18 1.255 1_556 S
O13 Fe3 1.976 . S
O13 C8 1.287 . S
O14 Fe0 1.996 1_556 S
O14 C8 1.255 . S
C15 O19 1.295 . S
C15 O20 1.235 1_554 S
O16 Fe1 1.976 1_556 S
O16 C10 1.287 . S
O17 Fe3 1.996 . S
O17 C10 1.255 . S
C18 O11 1.287 . S
C18 O12 1.255 1_554 S
O19 Fe1 2.002 . S
O19 C15 1.295 . S
O20 Fe3 1.997 . S
O20 C15 1.235 1_556 S
C21 O4 1.295 . S
C21 O5 1.235 . S
Fe22 O24 1.918 . S
Fe22 O27 1.997 . S
Fe22 O28 2.002 . S
Fe22 O33 1.976 . S
Fe22 O36 1.996 . S
Fe23 O24 1.918 . S
Fe23 O31 1.997 . S
Fe23 O34 1.996 . S
Fe23 O38 1.976 . S
Fe23 O41 2.002 . S
O24 Fe22 1.918 . S
O24 Fe23 1.918 . S
O24 Fe25 1.918 . S
Fe25 O24 1.918 . S
Fe25 O26 2.002 . S
Fe25 O35 1.976 . S
Fe25 O39 1.996 . S
Fe25 O42 1.997 . S
O26 Fe25 2.002 . S
O26 C43 1.295 . S
O27 Fe22 1.997 . S
O27 C43 1.235 . S
O28 Fe22 2.002 . S
O28 C29 1.295 . S
C29 O28 1.295 . S
C29 O31 1.235 . S
C30 O35 1.287 . S
C30 O36 1.255 . S
O31 Fe23 1.997 . S
O31 C29 1.235 . S
C32 O38 1.287 . S
C32 O39 1.255 . S
O33 Fe22 1.976 . S
O33 C40 1.287 . S
O34 Fe23 1.996 . S
O34 C40 1.255 . S
O35 Fe25 1.976 . S
O35 C30 1.287 . S
O36 Fe22 1.996 . S
O36 C30 1.255 . S
C37 O41 1.295 . S
C37 O42 1.235 . S
O38 Fe23 1.976 . S
O38 C32 1.287 . S
O39 Fe25 1.996 . S
O39 C32 1.255 . S
C40 O33 1.287 . S
C40 O34 1.255 . S
O41 Fe23 2.002 . S
O41 C37 1.295 . S
O42 Fe25 1.997 . S
O42 C37 1.235 . S
C43 O26 1.295 . S
C43 O27 1.235 . S
Fe44 O46 1.918 . S
Fe44 O49 1.997 . S
Fe44 O50 2.002 . S
Fe44 O55 1.976 . S
Fe44 O58 1.996 . S
Fe45 O46 1.918 . S
Fe45 O53 1.997 . S
Fe45 O56 1.996 . S
Fe45 O60 1.976 . S
Fe45 O63 2.002 . S
O46 Fe44 1.918 . S
O46 Fe45 1.918 . S
O46 Fe47 1.918 . S
Fe47 O46 1.918 . S
Fe47 O48 2.002 . S
Fe47 O57 1.976 . S
Fe47 O61 1.996 . S
Fe47 O64 1.997 . S
O48 Fe47 2.002 . S
O48 C65 1.295 . S
O49 Fe44 1.997 . S
O49 C65 1.235 . S
O50 Fe44 2.002 . S
O50 C51 1.295 . S
C51 O50 1.295 . S
C51 O53 1.235 . S
C52 O57 1.287 . S
C52 O58 1.255 . S
O53 Fe45 1.997 . S
O53 C51 1.235 . S
C54 O60 1.287 . S
C54 O61 1.255 . S
O55 Fe44 1.976 . S
O55 C62 1.287 . S
O56 Fe45 1.996 . S
O56 C62 1.255 . S
O57 Fe47 1.976 . S
O57 C52 1.287 . S
O58 Fe44 1.996 . S
O58 C52 1.255 . S
C59 O63 1.295 . S
C59 O64 1.235 . S
O60 Fe45 1.976 . S
O60 C54 1.287 . S
O61 Fe47 1.996 . S
O61 C54 1.255 . S
C62 O55 1.287 . S
C62 O56 1.255 . S
O63 Fe45 2.002 . S
O63 C59 1.295 . S
O64 Fe47 1.997 . S
O64 C59 1.235 . S
C65 O48 1.295 . S
C65 O49 1.235 . S
Fe66 O68 1.921 . S
Fe66 O71 1.997 . S
Fe66 O72 2.002 1_556 S
Fe66 O77 1.976 . S
Fe66 O80 1.996 . S
Fe67 O68 1.915 1_554 S
Fe67 O75 1.997 . S
Fe67 O78 1.996 1_554 S
Fe67 O82 1.976 . S
Fe67 O85 2.002 . S
O68 Fe66 1.921 . S
O68 Fe67 1.915 1_556 S
O68 Fe69 1.918 1_556 S
Fe69 O68 1.918 1_554 S
Fe69 O70 2.002 . S
Fe69 O79 1.976 1_554 S
Fe69 O83 1.996 1_554 S
Fe69 O86 1.997 . S
O70 Fe69 2.002 . S
O70 C87 1.295 . S
O71 Fe66 1.997 . S
O71 C87 1.235 1_556 S
O72 Fe66 2.002 1_554 S
O72 C73 1.295 . S
C73 O72 1.295 . S
C73 O75 1.235 . S
C74 O79 1.287 . S
C74 O80 1.255 . S
O75 Fe67 1.997 . S
O75 C73 1.235 . S
C76 O82 1.287 . S
C76 O83 1.255 1_554 S
O77 Fe66 1.976 . S
O77 C84 1.287 . S
O78 Fe67 1.996 1_556 S
O78 C84 1.255 . S
O79 Fe69 1.976 1_556 S
O79 C74 1.287 . S
O80 Fe66 1.996 . S
O80 C74 1.255 . S
C81 O85 1.295 . S
C81 O86 1.235 . S
O82 Fe67 1.976 . S
O82 C76 1.287 . S
O83 Fe69 1.996 1_556 S
O83 C76 1.255 1_556 S
C84 O77 1.287 . S
C84 O78 1.255 . S
O85 Fe67 2.002 . S
O85 C81 1.295 . S
O86 Fe69 1.997 . S
O86 C81 1.235 . S
C87 O70 1.295 . S
C87 O71 1.235 1_554 S
Fe88 O90 1.918 . S
Fe88 O93 1.997 . S
Fe88 O94 2.002 . S
Fe88 O99 1.976 . S
Fe88 O102 1.996 . S
Fe89 O90 1.918 . S
Fe89 O97 1.997 . S
Fe89 O100 1.996 . S
Fe89 O104 1.976 . S
Fe89 O107 2.002 . S
O90 Fe88 1.918 . S
O90 Fe89 1.918 . S
O90 Fe91 1.918 . S
Fe91 O90 1.918 . S
Fe91 O92 2.002 . S
Fe91 O101 1.976 . S
Fe91 O105 1.996 . S
Fe91 O108 1.997 . S
O92 Fe91 2.002 . S
O92 C109 1.295 . S
O93 Fe88 1.997 . S
O93 C109 1.235 . S
O94 Fe88 2.002 . S
O94 C95 1.295 . S
C95 O94 1.295 . S
C95 O97 1.235 . S
C96 O101 1.287 . S
C96 O102 1.255 . S
O97 Fe89 1.997 . S
O97 C95 1.235 . S
C98 O104 1.287 . S
C98 O105 1.255 . S
O99 Fe88 1.976 . S
O99 C106 1.287 . S
O100 Fe89 1.996 . S
O100 C106 1.255 . S
O101 Fe91 1.976 . S
O101 C96 1.287 . S
O102 Fe88 1.996 . S
O102 C96 1.255 . S
C103 O107 1.295 . S
C103 O108 1.235 . S
O104 Fe89 1.976 . S
O104 C98 1.287 . S
O105 Fe91 1.996 . S
O105 C98 1.255 . S
C106 O99 1.287 . S
C106 O100 1.255 . S
O107 Fe89 2.002 . S
O107 C103 1.295 . S
O108 Fe91 1.997 . S
O108 C103 1.235 . S
C109 O92 1.295 . S
C109 O93 1.235 . S
Fe110 O112 1.918 . S
Fe110 O115 1.997 . S
Fe110 O116 2.002 . S
Fe110 O121 1.976 . S
Fe110 O124 1.996 . S
Fe111 O112 1.918 . S
Fe111 O119 1.997 . S
Fe111 O122 1.996 . S
Fe111 O126 1.976 . S
Fe111 O129 2.002 . S
O112 Fe110 1.918 . S
O112 Fe111 1.918 . S
O112 Fe113 1.918 . S
Fe113 O112 1.918 . S
Fe113 O114 2.002 . S
Fe113 O123 1.976 . S
Fe113 O127 1.996 . S
Fe113 O130 1.997 . S
O114 Fe113 2.002 . S
O114 C131 1.295 . S
O115 Fe110 1.997 . S
O115 C131 1.235 . S
O116 Fe110 2.002 . S
O116 C117 1.295 . S
C117 O116 1.295 . S
C117 O119 1.235 . S
C118 O123 1.287 . S
C118 O124 1.255 . S
O119 Fe111 1.997 . S
O119 C117 1.235 . S
C120 O126 1.287 . S
C120 O127 1.255 . S
O121 Fe110 1.976 . S
O121 C128 1.287 . S
O122 Fe111 1.996 . S
O122 C128 1.255 . S
O123 Fe113 1.976 . S
O123 C118 1.287 . S
O124 Fe110 1.996 . S
O124 C118 1.255 . S
C125 O129 1.295 . S
C125 O130 1.235 . S
O126 Fe111 1.976 . S
O126 C120 1.287 . S
O127 Fe113 1.996 . S
O127 C120 1.255 . S
C128 O121 1.287 . S
C128 O122 1.255 . S
O129 Fe111 2.002 . S
O129 C125 1.295 . S
O130 Fe113 1.997 . S
O130 C125 1.235 . S
C131 O114 1.295 . S
C131 O115 1.235 . S
C132 C133 1.349 . S
C132 C134 1.327 . S
C132 H157 0.950 . S
C133 C132 1.349 . S
C133 C149 1.349 . S
C134 C132 1.327 . S
C134 C153 1.429 . S
C134 H158 0.950 . S
C135 C152 1.574 . S
C135 C154 1.368 . S
C135 H159 0.949 . S
H136 C140 0.949 . S
C137 C138 1.349 . S
C137 C139 1.327 . S
C137 H160 0.950 . S
C138 C137 1.349 . S
C138 C150 1.349 1_556 S
C139 C137 1.327 . S
C139 C155 1.429 . S
C139 H161 0.950 . S
C140 H136 0.949 . S
C140 C148 1.574 . S
C140 C156 1.368 . S
H141 C149 0.950 . S
H142 C147 0.950 . S
H143 C148 0.949 . S
H144 C150 0.950 . S
H145 C151 0.950 1_554 S
H146 C152 0.949 . S
C147 H142 0.950 . S
C147 C149 1.327 . S
C147 C153 1.429 . S
C148 C140 1.574 . S
C148 H143 0.949 . S
C148 C154 1.368 . S
C149 C133 1.349 . S
C149 H141 0.950 . S
C149 C147 1.327 . S
C150 C138 1.349 1_554 S
C150 H144 0.950 . S
C150 C151 1.327 1_554 S
C151 H145 0.950 1_556 S
C151 C150 1.327 1_556 S
C151 C155 1.429 . S
C152 C135 1.574 . S
C152 H146 0.949 . S
C152 C156 1.368 . S
C153 C134 1.429 . S
C153 C147 1.429 . S
C153 C154 1.523 . S
C154 C135 1.368 . S
C154 C148 1.368 . S
C154 C153 1.523 . S
C155 C139 1.429 . S
C155 C151 1.429 . S
C155 C156 1.523 . S
C156 C140 1.368 . S
C156 C152 1.368 . S
C156 C155 1.523 . S
H157 C132 0.950 . S
H158 C134 0.950 . S
H159 C135 0.949 . S
H160 C137 0.950 . S
H161 C139 0.950 . S
C162 C163 1.349 . S
C162 C164 1.327 . S
C162 H187 0.950 1_554 S
C163 C162 1.349 . S
C163 C179 1.349 . S
C164 C162 1.327 . S
C164 C183 1.429 . S
C164 H188 0.950 . S
C165 C182 1.574 1_455 S
C165 C184 1.368 . S
C165 H189 0.949 . S
H166 C170 0.949 . S
C167 C168 1.349 . S
C167 C169 1.327 . S
C167 H190 0.950 . S
C168 C167 1.349 . S
C168 C180 1.349 . S
C169 C167 1.327 . S
C169 C185 1.429 . S
C169 H191 0.950 . S
C170 H166 0.949 . S
C170 C178 1.574 1_655 S
C170 C186 1.368 . S
H171 C179 0.950 . S
H172 C177 0.950 . S
H173 C178 0.949 . S
H174 C180 0.950 . S
H175 C181 0.950 . S
H176 C182 0.949 . S
C177 H172 0.950 . S
C177 C179 1.327 . S
C177 C183 1.429 . S
C178 C170 1.574 1_455 S
C178 H173 0.949 . S
C178 C184 1.368 . S
C179 C163 1.349 . S
C179 H171 0.950 . S
C179 C177 1.327 . S
C180 C168 1.349 . S
C180 H174 0.950 . S
C180 C181 1.327 . S
C181 H175 0.950 . S
C181 C180 1.327 . S
C181 C185 1.429 . S
C182 C165 1.574 1_655 S
C182 H176 0.949 . S
C182 C186 1.368 . S
C183 C164 1.429 . S
C183 C177 1.429 . S
C183 C184 1.523 . S
C184 C165 1.368 . S
C184 C178 1.368 . S
C184 C183 1.523 . S
C185 C169 1.429 . S
C185 C181 1.429 . S
C185 C186 1.523 . S
C186 C170 1.368 . S
C186 C182 1.368 . S
C186 C185 1.523 . S
H187 C162 0.950 1_556 S
H188 C164 0.950 . S
H189 C165 0.949 . S
H190 C167 0.950 . S
H191 C169 0.950 . S
C192 C193 1.349 . S
C192 C194 1.327 . S
C192 H217 0.950 . S
C193 C192 1.349 . S
C193 C209 1.349 . S
C194 C192 1.327 . S
C194 C213 1.429 . S
C194 H218 0.950 . S
C195 C212 1.576 . S
C195 C214 1.368 . S
C195 H219 0.949 . S
H196 C200 0.949 . S
C197 C198 1.349 . S
C197 C199 1.327 . S
C197 H220 0.950 . S
C198 C197 1.349 . S
C198 C210 1.349 . S
C199 C197 1.327 . S
C199 C215 1.429 . S
C199 H221 0.950 . S
C200 H196 0.949 . S
C200 C208 1.574 1_565 S
C200 C216 1.368 . S
H201 C209 0.950 . S
H202 C207 0.950 . S
H203 C208 0.949 . S
H204 C210 0.950 . S
H205 C211 0.950 . S
H206 C212 0.949 1_565 S
C207 H202 0.950 . S
C207 C209 1.327 . S
C207 C213 1.429 . S
C208 C200 1.574 1_545 S
C208 H203 0.949 . S
C208 C214 1.368 . S
C209 C193 1.349 . S
C209 H201 0.950 . S
C209 C207 1.327 . S
C210 C198 1.349 . S
C210 H204 0.950 . S
C210 C211 1.327 . S
C211 H205 0.950 . S
C211 C210 1.327 . S
C211 C215 1.429 . S
C212 C195 1.576 . S
C212 H206 0.949 1_545 S
C212 C216 1.366 1_545 S
C213 C194 1.429 . S
C213 C207 1.429 . S
C213 C214 1.523 . S
C214 C195 1.368 . S
C214 C208 1.368 . S
C214 C213 1.523 . S
C215 C199 1.429 . S
C215 C211 1.429 . S
C215 C216 1.523 . S
C216 C200 1.368 . S
C216 C212 1.366 1_565 S
C216 C215 1.523 . S
H217 C192 0.950 . S
H218 C194 0.950 . S
H219 C195 0.949 . S
H220 C197 0.950 . S
H221 C199 0.950 . S
C222 C223 1.349 . S
C222 C224 1.327 . S
C222 H247 0.950 . S
C223 C222 1.349 . S
C223 C239 1.349 . S
C224 C222 1.327 . S
C224 C243 1.429 . S
C224 H248 0.950 . S
C225 C242 1.574 . S
C225 C244 1.368 . S
C225 H249 0.949 . S
H226 C230 0.949 . S
C227 C228 1.349 1_554 S
C227 C229 1.327 1_554 S
C227 H250 0.950 . S
C228 C227 1.349 1_556 S
C228 C240 1.349 . S
C229 C227 1.327 1_556 S
C229 C245 1.429 . S
C229 H251 0.950 1_556 S
C230 H226 0.949 . S
C230 C238 1.574 . S
C230 C246 1.368 . S
H231 C239 0.950 . S
H232 C237 0.950 . S
H233 C238 0.949 . S
H234 C240 0.950 . S
H235 C241 0.950 . S
H236 C242 0.949 . S
C237 H232 0.950 . S
C237 C239 1.327 . S
C237 C243 1.429 . S
C238 C230 1.574 . S
C238 H233 0.949 . S
C238 C244 1.368 . S
C239 C223 1.349 . S
C239 H231 0.950 . S
C239 C237 1.327 . S
C240 C228 1.349 . S
C240 H234 0.950 . S
C240 C241 1.327 . S
C241 H235 0.950 . S
C241 C240 1.327 . S
C241 C245 1.429 . S
C242 C225 1.574 . S
C242 H236 0.949 . S
C242 C246 1.368 . S
C243 C224 1.429 . S
C243 C237 1.429 . S
C243 C244 1.523 . S
C244 C225 1.368 . S
C244 C238 1.368 . S
C244 C243 1.523 . S
C245 C229 1.429 . S
C245 C241 1.429 . S
C245 C246 1.523 . S
C246 C230 1.368 . S
C246 C242 1.368 . S
C246 C245 1.523 . S
H247 C222 0.950 . S
H248 C224 0.950 . S
H249 C225 0.949 . S
H250 C227 0.950 . S
H251 C229 0.950 1_554 S
C252 C253 1.349 . S
C252 C254 1.327 . S
C252 H277 0.950 . S
C253 C252 1.349 . S
C253 C269 1.349 . S
C254 C252 1.327 . S
C254 C273 1.429 . S
C254 H278 0.950 . S
C255 C272 1.574 1_455 S
C255 C274 1.368 . S
C255 H279 0.949 . S
H256 C260 0.949 . S
C257 C258 1.349 . S
C257 C259 1.327 . S
C257 H280 0.950 . S
C258 C257 1.349 . S
C258 C270 1.349 . S
C259 C257 1.327 . S
C259 C275 1.429 . S
C259 H281 0.950 . S
C260 H256 0.949 . S
C260 C268 1.574 1_655 S
C260 C276 1.368 . S
H261 C269 0.950 . S
H262 C267 0.950 . S
H263 C268 0.949 . S
H264 C270 0.950 1_556 S
H265 C271 0.950 . S
H266 C272 0.949 . S
C267 H262 0.950 . S
C267 C269 1.327 . S
C267 C273 1.429 . S
C268 C260 1.574 1_455 S
C268 H263 0.949 . S
C268 C274 1.368 . S
C269 C253 1.349 . S
C269 H261 0.950 . S
C269 C267 1.327 . S
C270 C258 1.349 . S
C270 H264 0.950 1_554 S
C270 C271 1.327 . S
C271 H265 0.950 . S
C271 C270 1.327 . S
C271 C275 1.429 . S
C272 C255 1.574 1_655 S
C272 H266 0.949 . S
C272 C276 1.368 . S
C273 C254 1.429 . S
C273 C267 1.429 . S
C273 C274 1.523 . S
C274 C255 1.368 . S
C274 C268 1.368 . S
C274 C273 1.523 . S
C275 C259 1.429 . S
C275 C271 1.429 . S
C275 C276 1.523 . S
C276 C260 1.368 . S
C276 C272 1.368 . S
C276 C275 1.523 . S
H277 C252 0.950 . S
H278 C254 0.950 . S
H279 C255 0.949 . S
H280 C257 0.950 . S
H281 C259 0.950 . S
C282 C283 1.349 . S
C282 C284 1.327 . S
C282 H307 0.950 . S
C283 C282 1.349 . S
C283 C299 1.349 . S
C284 C282 1.327 . S
C284 C303 1.429 . S
C284 H308 0.950 . S
C285 C302 1.574 1_545 S
C285 C304 1.368 . S
C285 H309 0.949 . S
H286 C290 0.949 . S
C287 C288 1.349 . S
C287 C289 1.327 . S
C287 H310 0.950 . S
C288 C287 1.349 . S
C288 C300 1.349 . S
C289 C287 1.327 . S
C289 C305 1.429 . S
C289 H311 0.950 . S
C290 H286 0.949 . S
C290 C298 1.574 1_565 S
C290 C306 1.368 . S
H291 C299 0.950 . S
H292 C297 0.950 . S
H293 C298 0.949 . S
H294 C300 0.950 . S
H295 C301 0.950 . S
H296 C302 0.949 . S
C297 H292 0.950 . S
C297 C299 1.327 . S
C297 C303 1.429 . S
C298 C290 1.574 1_545 S
C298 H293 0.949 . S
C298 C304 1.368 . S
C299 C283 1.349 . S
C299 H291 0.950 . S
C299 C297 1.327 . S
C300 C288 1.349 . S
C300 H294 0.950 . S
C300 C301 1.327 . S
C301 H295 0.950 . S
C301 C300 1.327 . S
C301 C305 1.429 . S
C302 C285 1.574 1_565 S
C302 H296 0.949 . S
C302 C306 1.368 . S
C303 C284 1.429 . S
C303 C297 1.429 . S
C303 C304 1.523 . S
C304 C285 1.368 . S
C304 C298 1.368 . S
C304 C303 1.523 . S
C305 C289 1.429 . S
C305 C301 1.429 . S
C305 C306 1.523 . S
C306 C290 1.368 . S
C306 C302 1.368 . S
C306 C305 1.523 . S
H307 C282 0.950 . S
H308 C284 0.950 . S
H309 C285 0.949 . S
H310 C287 0.950 . S
H311 C289 0.950 . S
C312 C313 1.349 . S
C312 C314 1.327 . S
C312 H337 0.950 . S
C313 C312 1.349 . S
C313 C329 1.349 . S
C314 C312 1.327 . S
C314 C333 1.429 . S
C314 H338 0.950 . S
C315 C332 1.574 . S
C315 C334 1.368 . S
C315 H339 0.949 . S
H316 C320 0.949 . S
C317 C318 1.349 . S
C317 C319 1.327 . S
C317 H340 0.950 . S
C318 C317 1.349 . S
C318 C330 1.349 . S
C319 C317 1.327 . S
C319 C335 1.429 . S
C319 H341 0.950 . S
C320 H316 0.949 . S
C320 C328 1.574 . S
C320 C336 1.368 . S
H321 C329 0.950 . S
H322 C327 0.950 . S
H323 C328 0.949 . S
H324 C330 0.950 . S
H325 C331 0.950 . S
H326 C332 0.949 . S
C327 H322 0.950 . S
C327 C329 1.327 . S
C327 C333 1.429 . S
C328 C320 1.574 . S
C328 H323 0.949 . S
C328 C334 1.368 . S
C329 C313 1.349 . S
C329 H321 0.950 . S
C329 C327 1.327 . S
C330 C318 1.349 . S
C330 H324 0.950 . S
C330 C331 1.327 . S
C331 H325 0.950 . S
C331 C330 1.327 . S
C331 C335 1.429 . S
C332 C315 1.574 . S
C332 H326 0.949 . S
C332 C336 1.368 . S
C333 C314 1.429 . S
C333 C327 1.429 . S
C333 C334 1.523 . S
C334 C315 1.368 . S
C334 C328 1.368 . S
C334 C333 1.523 . S
C335 C319 1.429 . S
C335 C331 1.429 . S
C335 C336 1.523 . S
C336 C320 1.368 . S
C336 C332 1.368 . S
C336 C335 1.523 . S
H337 C312 0.950 . S
H338 C314 0.950 . S
H339 C315 0.949 . S
H340 C317 0.950 . S
H341 C319 0.950 . S
C342 C343 1.349 . S
C342 C344 1.327 . S
C342 H367 0.950 . S
C343 C342 1.349 . S
C343 C359 1.349 . S
C344 C342 1.327 . S
C344 C363 1.429 1_554 S
C344 H368 0.950 1_554 S
C345 C362 1.574 . S
C345 C364 1.368 . S
C345 H369 0.949 . S
H346 C350 0.949 . S
C347 C348 1.349 . S
C347 C349 1.327 . S
C347 H370 0.950 . S
C348 C347 1.349 . S
C348 C360 1.349 . S
C349 C347 1.327 . S
C349 C365 1.429 . S
C349 H371 0.950 . S
C350 H346 0.949 . S
C350 C358 1.574 . S
C350 C366 1.368 . S
H351 C359 0.950 . S
H352 C357 0.950 . S
H353 C358 0.949 . S
H354 C360 0.950 . S
H355 C361 0.950 . S
H356 C362 0.949 . S
C357 H352 0.950 . S
C357 C359 1.327 . S
C357 C363 1.429 1_554 S
C358 C350 1.574 . S
C358 H353 0.949 . S
C358 C364 1.368 . S
C359 C343 1.349 . S
C359 H351 0.950 . S
C359 C357 1.327 . S
C360 C348 1.349 . S
C360 H354 0.950 . S
C360 C361 1.327 . S
C361 H355 0.950 . S
C361 C360 1.327 . S
C361 C365 1.429 . S
C362 C345 1.574 . S
C362 H356 0.949 . S
C362 C366 1.368 . S
C363 C344 1.429 1_556 S
C363 C357 1.429 1_556 S
C363 C364 1.523 . S
C364 C345 1.368 . S
C364 C358 1.368 . S
C364 C363 1.523 . S
C365 C349 1.429 . S
C365 C361 1.429 . S
C365 C366 1.523 . S
C366 C350 1.368 . S
C366 C362 1.368 . S
C366 C365 1.523 . S
H367 C342 0.950 . S
H368 C344 0.950 1_556 S
H369 C345 0.949 . S
H370 C347 0.950 . S
H371 C349 0.950 . S
C372 C373 1.349 . S
C372 C374 1.327 . S
C372 H397 0.950 . S
C373 C372 1.349 . S
C373 C389 1.349 . S
C374 C372 1.327 . S
C374 C393 1.429 . S
C374 H398 0.950 . S
C375 C392 1.574 . S
C375 C394 1.368 . S
C375 H399 0.949 . S
H376 C380 0.949 . S
C377 C378 1.349 . S
C377 C379 1.327 . S
C377 H400 0.950 . S
C378 C377 1.349 . S
C378 C390 1.349 . S
C379 C377 1.327 . S
C379 C395 1.429 1_556 S
C379 H401 0.950 . S
C380 H376 0.949 . S
C380 C388 1.574 . S
C380 C396 1.368 . S
H381 C389 0.950 . S
H382 C387 0.950 . S
H383 C388 0.949 . S
H384 C390 0.950 . S
H385 C391 0.953 . S
H386 C392 0.949 . S
C387 H382 0.950 . S
C387 C389 1.327 . S
C387 C393 1.429 . S
C388 C380 1.574 . S
C388 H383 0.949 . S
C388 C394 1.368 . S
C389 C373 1.349 . S
C389 H381 0.950 . S
C389 C387 1.327 . S
C390 C378 1.349 . S
C390 H384 0.950 . S
C390 C391 1.327 . S
C391 H385 0.953 . S
C391 C390 1.327 . S
C391 C395 1.429 1_556 S
C392 C375 1.574 . S
C392 H386 0.949 . S
C392 C396 1.368 . S
C393 C374 1.429 . S
C393 C387 1.429 . S
C393 C394 1.523 . S
C394 C375 1.368 . S
C394 C388 1.368 . S
C394 C393 1.523 . S
C395 C379 1.429 1_554 S
C395 C391 1.429 1_554 S
C395 C396 1.523 . S
C396 C380 1.368 . S
C396 C392 1.368 . S
C396 C395 1.523 . S
H397 C372 0.950 . S
H398 C374 0.950 . S
H399 C375 0.949 . S
H400 C377 0.950 . S
H401 C379 0.950 . S
C402 C403 1.349 . S
C402 C404 1.327 . S
C402 H427 0.950 . S
C403 C402 1.349 . S
C403 C419 1.349 . S
C404 C402 1.327 . S
C404 C423 1.429 . S
C404 H428 0.950 . S
C405 C422 1.574 . S
C405 C424 1.368 . S
C405 H429 0.949 . S
H406 C410 0.949 . S
C407 C408 1.349 . S
C407 C409 1.327 . S
C407 H430 0.950 . S
C408 C407 1.349 . S
C408 C420 1.349 . S
C409 C407 1.327 . S
C409 C425 1.429 . S
C409 H431 0.950 . S
C410 H406 0.949 . S
C410 C418 1.574 . S
C410 C426 1.368 . S
H411 C419 0.950 . S
H412 C417 0.950 . S
H413 C418 0.949 . S
H414 C420 0.950 . S
H415 C421 0.950 . S
H416 C422 0.949 . S
C417 H412 0.950 . S
C417 C419 1.327 . S
C417 C423 1.429 . S
C418 C410 1.574 . S
C418 H413 0.949 . S
C418 C424 1.368 . S
C419 C403 1.349 . S
C419 H411 0.950 . S
C419 C417 1.327 . S
C420 C408 1.349 . S
C420 H414 0.950 . S
C420 C421 1.327 . S
C421 H415 0.950 . S
C421 C420 1.327 . S
C421 C425 1.429 . S
C422 C405 1.574 . S
C422 H416 0.949 . S
C422 C426 1.368 . S
C423 C404 1.429 . S
C423 C417 1.429 . S
C423 C424 1.523 . S
C424 C405 1.368 . S
C424 C418 1.368 . S
C424 C423 1.523 . S
C425 C409 1.429 . S
C425 C421 1.429 . S
C425 C426 1.523 . S
C426 C410 1.368 . S
C426 C422 1.368 . S
C426 C425 1.523 . S
H427 C402 0.950 . S
H428 C404 0.950 . S
H429 C405 0.949 . S
H430 C407 0.950 . S
H431 C409 0.950 . S
C432 C433 1.349 . S
C432 C434 1.327 . S
C432 H457 0.950 . S
C433 C432 1.349 . S
C433 C449 1.349 . S
C434 C432 1.327 . S
C434 C453 1.429 . S
C434 H458 0.950 . S
C435 C452 1.574 . S
C435 C454 1.368 . S
C435 H459 0.949 . S
H436 C440 0.949 . S
C437 C438 1.349 . S
C437 C439 1.327 . S
C437 H460 0.950 . S
C438 C437 1.349 . S
C438 C450 1.349 . S
C439 C437 1.327 . S
C439 C455 1.429 1_554 S
C439 H461 0.942 1_554 S
C440 H436 0.949 . S
C440 C448 1.574 . S
C440 C456 1.368 . S
H441 C449 0.950 . S
H442 C447 0.950 . S
H443 C448 0.949 . S
H444 C450 0.950 . S
H445 C451 0.950 . S
H446 C452 0.949 . S
C447 H442 0.950 . S
C447 C449 1.327 . S
C447 C453 1.429 . S
C448 C440 1.574 . S
C448 H443 0.949 . S
C448 C454 1.368 . S
C449 C433 1.349 . S
C449 H441 0.950 . S
C449 C447 1.327 . S
C450 C438 1.349 . S
C450 H444 0.950 . S
C450 C451 1.327 . S
C451 H445 0.950 . S
C451 C450 1.327 . S
C451 C455 1.429 1_554 S
C452 C435 1.574 . S
C452 H446 0.949 . S
C452 C456 1.368 . S
C453 C434 1.429 . S
C453 C447 1.429 . S
C453 C454 1.523 . S
C454 C435 1.368 . S
C454 C448 1.368 . S
C454 C453 1.523 . S
C455 C439 1.429 1_556 S
C455 C451 1.429 1_556 S
C455 C456 1.523 . S
C456 C440 1.368 . S
C456 C452 1.368 . S
C456 C455 1.523 . S
H457 C432 0.950 . S
H458 C434 0.950 . S
H459 C435 0.949 . S
H460 C437 0.950 . S
H461 C439 0.942 1_556 S
C462 C463 1.349 . S
C462 C464 1.327 . S
C462 H487 0.950 . S
C463 C462 1.349 . S
C463 C479 1.349 . S
C464 C462 1.327 . S
C464 C483 1.429 . S
C464 H488 0.950 . S
C465 C482 1.574 . S
C465 C484 1.368 . S
C465 H489 0.949 . S
H466 C470 0.949 . S
C467 C468 1.349 . S
C467 C469 1.327 . S
C467 H490 0.950 . S
C468 C467 1.349 . S
C468 C480 1.349 . S
C469 C467 1.327 . S
C469 C485 1.429 1_556 S
C469 H491 0.950 . S
C470 H466 0.949 . S
C470 C478 1.574 . S
C470 C486 1.368 . S
H471 C479 0.950 . S
H472 C477 0.950 . S
H473 C478 0.949 . S
H474 C480 0.950 . S
H475 C481 0.950 1_554 S
H476 C482 0.949 . S
C477 H472 0.950 . S
C477 C479 1.327 . S
C477 C483 1.429 . S
C478 C470 1.574 . S
C478 H473 0.949 . S
C478 C484 1.368 . S
C479 C463 1.349 . S
C479 H471 0.950 . S
C479 C477 1.327 . S
C480 C468 1.349 . S
C480 H474 0.950 . S
C480 C481 1.327 . S
C481 H475 0.950 1_556 S
C481 C480 1.327 . S
C481 C485 1.429 1_556 S
C482 C465 1.574 . S
C482 H476 0.949 . S
C482 C486 1.368 . S
C483 C464 1.429 . S
C483 C477 1.429 . S
C483 C484 1.523 . S
C484 C465 1.368 . S
C484 C478 1.368 . S
C484 C483 1.523 . S
C485 C469 1.429 1_554 S
C485 C481 1.429 1_554 S
C485 C486 1.523 . S
C486 C470 1.368 . S
C486 C482 1.368 . S
C486 C485 1.523 . S
H487 C462 0.950 . S
H488 C464 0.950 . S
H489 C465 0.949 . S
H490 C467 0.950 . S
H491 C469 0.950 . S
C492 C493 1.349 . S
C492 C494 1.327 . S
C492 H517 0.950 . S
C493 C492 1.349 . S
C493 C509 1.349 . S
C494 C492 1.327 . S
C494 C513 1.429 . S
C494 H518 0.950 . S
C495 C512 1.574 . S
C495 C514 1.368 . S
C495 H519 0.949 . S
H496 C500 0.949 . S
C497 C498 1.349 . S
C497 C499 1.327 . S
C497 H520 0.950 . S
C498 C497 1.349 . S
C498 C510 1.349 . S
C499 C497 1.327 . S
C499 C515 1.429 . S
C499 H521 0.950 . S
C500 H496 0.949 . S
C500 C508 1.574 . S
C500 C516 1.368 . S
H501 C509 0.950 . S
H502 C507 0.950 . S
H503 C508 0.949 . S
H504 C510 0.950 . S
H505 C511 0.950 . S
H506 C512 0.949 . S
C507 H502 0.950 . S
C507 C509 1.327 . S
C507 C513 1.429 . S
C508 C500 1.574 . S
C508 H503 0.949 . S
C508 C514 1.368 . S
C509 C493 1.349 . S
C509 H501 0.950 . S
C509 C507 1.327 . S
C510 C498 1.349 . S
C510 H504 0.950 . S
C510 C511 1.327 . S
C511 H505 0.950 . S
C511 C510 1.327 . S
C511 C515 1.429 . S
C512 C495 1.574 . S
C512 H506 0.949 . S
C512 C516 1.368 . S
C513 C494 1.429 . S
C513 C507 1.429 . S
C513 C514 1.523 . S
C514 C495 1.368 . S
C514 C508 1.368 . S
C514 C513 1.523 . S
C515 C499 1.429 . S
C515 C511 1.429 . S
C515 C516 1.523 . S
C516 C500 1.368 . S
C516 C512 1.368 . S
C516 C515 1.523 . S
H517 C492 0.950 . S
H518 C494 0.950 . S
H519 C495 0.949 . S
H520 C497 0.950 . S
H521 C499 0.950 . S
C522 C523 1.349 . S
C522 C524 1.327 . S
C522 H547 0.950 . S
C523 C522 1.349 . S
C523 C539 1.349 . S
C524 C522 1.327 . S
C524 C543 1.429 . S
C524 H548 0.950 . S
C525 C542 1.574 . S
C525 C544 1.368 . S
C525 H549 0.949 . S
H526 C530 0.949 . S
C527 C528 1.349 . S
C527 C529 1.327 . S
C527 H550 0.950 . S
C528 C527 1.349 . S
C528 C540 1.349 . S
C529 C527 1.327 . S
C529 C545 1.429 . S
C529 H551 0.950 . S
C530 H526 0.949 . S
C530 C538 1.574 . S
C530 C546 1.368 . S
H531 C539 0.950 . S
H532 C537 0.950 . S
H533 C538 0.949 . S
H534 C540 0.950 . S
H535 C541 0.950 . S
H536 C542 0.949 . S
C537 H532 0.950 . S
C537 C539 1.327 . S
C537 C543 1.429 . S
C538 C530 1.574 . S
C538 H533 0.949 . S
C538 C544 1.368 . S
C539 C523 1.349 . S
C539 H531 0.950 . S
C539 C537 1.327 . S
C540 C528 1.349 . S
C540 H534 0.950 . S
C540 C541 1.327 . S
C541 H535 0.950 . S
C541 C540 1.327 . S
C541 C545 1.429 . S
C542 C525 1.574 . S
C542 H536 0.949 . S
C542 C546 1.368 . S
C543 C524 1.429 . S
C543 C537 1.429 . S
C543 C544 1.523 . S
C544 C525 1.368 . S
C544 C538 1.368 . S
C544 C543 1.523 . S
C545 C529 1.429 . S
C545 C541 1.429 . S
C545 C546 1.523 . S
C546 C530 1.368 . S
C546 C542 1.368 . S
C546 C545 1.523 . S
H547 C522 0.950 . S
H548 C524 0.950 . S
H549 C525 0.949 . S
H550 C527 0.950 . S
H551 C529 0.950 . S
C552 C553 1.349 . S
C552 C554 1.327 . S
C552 H577 0.950 . S
C553 C552 1.349 . S
C553 C569 1.349 . S
C554 C552 1.327 . S
C554 C573 1.429 . S
C554 H578 0.950 . S
C555 C572 1.574 . S
C555 C574 1.368 . S
C555 H579 0.949 . S
H556 C560 0.949 . S
C557 C558 1.349 . S
C557 C559 1.327 . S
C557 H580 0.950 . S
C558 C557 1.349 . S
C558 C570 1.349 . S
C559 C557 1.327 . S
C559 C575 1.429 . S
C559 H581 0.950 . S
C560 H556 0.949 . S
C560 C568 1.574 . S
C560 C576 1.368 . S
H561 C569 0.950 . S
H562 C567 0.950 . S
H563 C568 0.949 . S
H564 C570 0.950 . S
H565 C571 0.950 . S
H566 C572 0.949 . S
C567 H562 0.950 . S
C567 C569 1.327 . S
C567 C573 1.429 . S
C568 C560 1.574 . S
C568 H563 0.949 . S
C568 C574 1.368 . S
C569 C553 1.349 . S
C569 H561 0.950 . S
C569 C567 1.327 . S
C570 C558 1.349 . S
C570 H564 0.950 . S
C570 C571 1.327 . S
C571 H565 0.950 . S
C571 C570 1.327 . S
C571 C575 1.429 . S
C572 C555 1.574 . S
C572 H566 0.949 . S
C572 C576 1.368 . S
C573 C554 1.429 . S
C573 C567 1.429 . S
C573 C574 1.523 . S
C574 C555 1.368 . S
C574 C568 1.368 . S
C574 C573 1.523 . S
C575 C559 1.429 . S
C575 C571 1.429 . S
C575 C576 1.523 . S
C576 C560 1.368 . S
C576 C572 1.368 . S
C576 C575 1.523 . S
H577 C552 0.950 . S
H578 C554 0.950 . S
H579 C555 0.949 . S
H580 C557 0.950 . S
H581 C559 0.950 . S
C582 C583 1.349 . S
C582 C584 1.327 . S
C582 H607 0.950 . S
C583 C582 1.349 . S
C583 C599 1.349 . S
C584 C582 1.327 . S
C584 C603 1.429 . S
C584 H608 0.950 . S
C585 C602 1.574 . S
C585 C604 1.368 . S
C585 H609 0.949 . S
H586 C590 0.949 . S
C587 C588 1.349 . S
C587 C589 1.327 . S
C587 H610 0.950 . S
C588 C587 1.349 . S
C588 C600 1.349 . S
C589 C587 1.327 . S
C589 C605 1.429 . S
C589 H611 0.950 . S
C590 H586 0.949 . S
C590 C598 1.574 . S
C590 C606 1.368 . S
H591 C599 0.950 . S
H592 C597 0.950 . S
H593 C598 0.949 . S
H594 C600 0.950 . S
H595 C601 0.950 . S
H596 C602 0.949 . S
C597 H592 0.950 . S
C597 C599 1.327 . S
C597 C603 1.429 . S
C598 C590 1.574 . S
C598 H593 0.949 . S
C598 C604 1.368 . S
C599 C583 1.349 . S
C599 H591 0.950 . S
C599 C597 1.327 . S
C600 C588 1.349 . S
C600 H594 0.950 . S
C600 C601 1.327 . S
C601 H595 0.950 . S
C601 C600 1.327 . S
C601 C605 1.429 . S
C602 C585 1.574 . S
C602 H596 0.949 . S
C602 C606 1.368 . S
C603 C584 1.429 . S
C603 C597 1.429 . S
C603 C604 1.523 . S
C604 C585 1.368 . S
C604 C598 1.368 . S
C604 C603 1.523 . S
C605 C589 1.429 . S
C605 C601 1.429 . S
C605 C606 1.523 . S
C606 C590 1.368 . S
C606 C602 1.368 . S
C606 C605 1.523 . S
H607 C582 0.950 . S
H608 C584 0.950 . S
H609 C585 0.949 . S
H610 C587 0.950 . S
H611 C589 0.950 . S
C612 C613 1.349 . S
C612 C614 1.327 . S
C612 H637 0.950 . S
C613 C612 1.349 . S
C613 C629 1.349 . S
C614 C612 1.327 . S
C614 C633 1.429 . S
C614 H638 0.950 . S
C615 C632 1.574 . S
C615 C634 1.368 . S
C615 H639 0.949 . S
H616 C620 0.949 . S
C617 C618 1.349 . S
C617 C619 1.327 . S
C617 H640 0.950 . S
C618 C617 1.349 . S
C618 C630 1.349 . S
C619 C617 1.327 . S
C619 C635 1.429 . S
C619 H641 0.950 . S
C620 H616 0.949 . S
C620 C628 1.574 . S
C620 C636 1.368 . S
H621 C629 0.950 . S
H622 C627 0.950 . S
H623 C628 0.949 . S
H624 C630 0.950 . S
H625 C631 0.950 . S
H626 C632 0.949 . S
C627 H622 0.950 . S
C627 C629 1.327 . S
C627 C633 1.429 . S
C628 C620 1.574 . S
C628 H623 0.949 . S
C628 C634 1.368 . S
C629 C613 1.349 . S
C629 H621 0.950 . S
C629 C627 1.327 . S
C630 C618 1.349 . S
C630 H624 0.950 . S
C630 C631 1.327 . S
C631 H625 0.950 . S
C631 C630 1.327 . S
C631 C635 1.429 . S
C632 C615 1.574 . S
C632 H626 0.949 . S
C632 C636 1.368 . S
C633 C614 1.429 . S
C633 C627 1.429 . S
C633 C634 1.523 . S
C634 C615 1.368 . S
C634 C628 1.368 . S
C634 C633 1.523 . S
C635 C619 1.429 . S
C635 C631 1.429 . S
C635 C636 1.523 . S
C636 C620 1.368 . S
C636 C632 1.368 . S
C636 C635 1.523 . S
H637 C612 0.950 . S
H638 C614 0.950 . S
H639 C615 0.949 . S
H640 C617 0.950 . S
H641 C619 0.950 . S
C642 C643 1.349 . S
C642 C644 1.327 . S
C642 H667 0.950 . S
C643 C642 1.349 . S
C643 C659 1.349 . S
C644 C642 1.327 . S
C644 C663 1.429 . S
C644 H668 0.950 . S
C645 C662 1.574 . S
C645 C664 1.368 . S
C645 H669 0.949 . S
H646 C650 0.949 . S
C647 C648 1.349 . S
C647 C649 1.327 . S
C647 H670 0.950 . S
C648 C647 1.349 . S
C648 C660 1.349 . S
C649 C647 1.327 . S
C649 C665 1.429 . S
C649 H671 0.950 . S
C650 H646 0.949 . S
C650 C658 1.574 . S
C650 C666 1.368 . S
H651 C659 0.950 . S
H652 C657 0.950 . S
H653 C658 0.949 . S
H654 C660 0.950 . S
H655 C661 0.950 . S
H656 C662 0.949 . S
C657 H652 0.950 . S
C657 C659 1.327 . S
C657 C663 1.429 . S
C658 C650 1.574 . S
C658 H653 0.949 . S
C658 C664 1.368 . S
C659 C643 1.349 . S
C659 H651 0.950 . S
C659 C657 1.327 . S
C660 C648 1.349 . S
C660 H654 0.950 . S
C660 C661 1.327 . S
C661 H655 0.950 . S
C661 C660 1.327 . S
C661 C665 1.429 . S
C662 C645 1.574 . S
C662 H656 0.949 . S
C662 C666 1.368 . S
C663 C644 1.429 . S
C663 C657 1.429 . S
C663 C664 1.523 . S
C664 C645 1.368 . S
C664 C658 1.368 . S
C664 C663 1.523 . S
C665 C649 1.429 . S
C665 C661 1.429 . S
C665 C666 1.523 . S
C666 C650 1.368 . S
C666 C662 1.368 . S
C666 C665 1.523 . S
H667 C642 0.950 . S
H668 C644 0.950 . S
H669 C645 0.949 . S
H670 C647 0.950 . S
H671 C649 0.950 . S
C133 C125 1.634 . S
C138 C18 1.619 1_556 S
C163 C15 1.634 . S
C168 C40 1.619 . S
C193 C37 1.634 . S
C198 C54 1.619 . S
C223 C65 1.634 . S
C228 C76 1.619 1_556 S
C253 C98 1.618 . S
C258 C87 1.634 . S
C283 C128 1.619 . S
C288 C109 1.634 . S
C313 C10 0.727 . S
C318 C7 0.726 . S
C343 C32 0.727 . S
C348 C29 0.726 . S
C373 C52 0.727 . S
C378 C59 0.726 . S
C403 C74 0.727 . S
C408 C81 0.726 . S
C433 C103 0.726 . S
C438 C96 0.727 . S
C463 C120 0.727 . S
C468 C117 0.726 . S
C493 C21 1.137 . S
C498 C106 1.150 . S
C523 C43 1.137 . S
C528 C118 1.150 . S
C553 C8 1.150 . S
C558 C51 1.137 . S
C583 C30 1.150 . S
C588 C73 1.137 . S
C613 C95 1.137 . S
C618 C62 1.150 . S
C643 C84 1.150 . S
C648 C131 1.137 . S
