# Generated by pormake.
# Topology soe, (5)-cn, num edge types: 1
# Building blocks:
#     Node 0, Type 0, BuildingBlock: XOMCOT_clean_sbu_1, # of connection points: 5
#     Node 1, Type 0, BuildingBlock: XOMCOT_clean_sbu_1, # of connection points: 5
#     Node 2, Type 0, BuildingBlock: XOMCOT_clean_sbu_1, # of connection points: 5
#     Node 3, Type 0, BuildingBlock: XOMCOT_clean_sbu_1, # of connection points: 5
#     Node 4, Type 0, BuildingBlock: XOMCOT_clean_sbu_1, # of connection points: 5
#     Node 5, Type 0, BuildingBlock: XOMCOT_clean_sbu_1, # of connection points: 5
#     Node 6, Type 0, BuildingBlock: XOMCOT_clean_sbu_1, # of connection points: 5
#     Node 7, Type 0, BuildingBlock: XOMCOT_clean_sbu_1, # of connection points: 5
#     Edge 8, Type (0, 0), BuildingBlock: XUDNAN_clean_linker_2, # of connection points: 2
#     Edge 9, Type (0, 0), BuildingBlock: XUDNAN_clean_linker_2, # of connection points: 2
#     Edge 10, Type (0, 0), BuildingBlock: XUDNAN_clean_linker_2, # of connection points: 2
#     Edge 11, Type (0, 0), BuildingBlock: XUDNAN_clean_linker_2, # of connection points: 2
#     Edge 12, Type (0, 0), BuildingBlock: XUDNAN_clean_linker_2, # of connection points: 2
#     Edge 13, Type (0, 0), BuildingBlock: XUDNAN_clean_linker_2, # of connection points: 2
#     Edge 14, Type (0, 0), BuildingBlock: XUDNAN_clean_linker_2, # of connection points: 2
#     Edge 15, Type (0, 0), BuildingBlock: XUDNAN_clean_linker_2, # of connection points: 2
#     Edge 16, Type (0, 0), BuildingBlock: XUDNAN_clean_linker_2, # of connection points: 2
#     Edge 17, Type (0, 0), BuildingBlock: XUDNAN_clean_linker_2, # of connection points: 2
#     Edge 18, Type (0, 0), BuildingBlock: XUDNAN_clean_linker_2, # of connection points: 2
#     Edge 19, Type (0, 0), BuildingBlock: XUDNAN_clean_linker_2, # of connection points: 2
#     Edge 20, Type (0, 0), BuildingBlock: XUDNAN_clean_linker_2, # of connection points: 2
#     Edge 21, Type (0, 0), BuildingBlock: XUDNAN_clean_linker_2, # of connection points: 2
#     Edge 22, Type (0, 0), BuildingBlock: XUDNAN_clean_linker_2, # of connection points: 2
#     Edge 23, Type (0, 0), BuildingBlock: XUDNAN_clean_linker_2, # of connection points: 2
#     Edge 24, Type (0, 0), BuildingBlock: XUDNAN_clean_linker_2, # of connection points: 2
#     Edge 25, Type (0, 0), BuildingBlock: XUDNAN_clean_linker_2, # of connection points: 2
#     Edge 26, Type (0, 0), BuildingBlock: XUDNAN_clean_linker_2, # of connection points: 2
#     Edge 27, Type (0, 0), BuildingBlock: XUDNAN_clean_linker_2, # of connection points: 2
# Relax obj value: 0.049
# Max RMSD: 0.083
# Mean RMSD: 0.083
data_MOF--net-soe--node1-XOMCOT_clean_sbu_1--edge1-XUDNAN_clean_linker_2
_symmetry_space_group_name_H-M    P1
_symmetry_Int_Tables_number       1
_symmetry_cell_setting            triclinic
loop_
_symmetry_equiv_pos_as_xyz
'x, y, z'
_cell_length_a     55.404718
_cell_length_b     46.55599
_cell_length_c     17.443886
_cell_angle_alpha  90.08954
_cell_angle_beta   90.211126
_cell_angle_gamma 89.880316
loop_
_atom_site_label
_atom_site_type_symbol
_atom_site_fract_x
_atom_site_fract_y
_atom_site_fract_z
_atom_type_partial_charge
C0 C 0.14651 0.13934 0.05049 0.0
C1 C 0.14932 0.1456 0.97415 0.0
N2 N 0.12905 0.13786 0.93664 0.0
N3 N 0.12452 0.12782 0.06169 0.0
C4 C 0.11424 0.12715 0.99105 0.0
H5 H 0.15985 0.14246 0.09512 0.0
Co6 Co 0.11418 0.11558 0.15858 0.0
C7 C 0.08135 0.06742 0.1114 0.0
O8 O 0.09321 0.04898 0.15441 0.0
N9 N 0.10415 0.105 0.25839 0.0
C10 C 0.08357 0.09341 0.36363 0.0
C11 C 0.08438 0.09127 0.28489 0.0
C12 C 0.11438 0.11622 0.32236 0.0
N13 N 0.10246 0.10926 0.38727 0.0
O14 O 0.09384 0.14901 0.16656 0.0
H15 H 0.07024 0.08209 0.25016 0.0
H16 H 0.12999 0.13011 0.32075 0.0
O17 O 0.08774 0.09384 0.11033 0.0
C18 C 0.10602 0.17107 0.18593 0.0
O19 O 0.12937 0.16827 0.197 0.0
N20 N 0.13609 0.08409 0.15166 0.0
C21 C 0.17801 0.05206 0.12472 0.0
C22 C 0.15937 0.05274 0.07033 0.0
C23 C 0.13848 0.06871 0.08507 0.0
C24 C 0.15375 0.08252 0.20635 0.0
C25 C 0.17461 0.06618 0.19467 0.0
H26 H 0.1252 0.07065 0.0399 0.0
H27 H 0.15297 0.09584 0.25666 0.0
H28 H 0.09638 0.11888 0.97949 0.0
H29 H 0.16534 0.15444 0.9479 0.0
H30 H 0.0693 0.08544 0.40003 0.0
H31 H 0.1615 0.04232 0.01519 0.0
H32 H 0.18887 0.06669 0.23732 0.0
C33 C 0.3846 0.88555 0.02114 0.0
C34 C 0.38574 0.88029 0.9434 0.0
N35 N 0.40681 0.89069 0.91674 0.0
N36 N 0.40476 0.89937 0.04367 0.0
C37 C 0.41808 0.90175 0.97911 0.0
H38 H 0.36967 0.88045 0.05848 0.0
Co39 Co 0.41129 0.91375 0.14265 0.0
C40 C 0.43991 0.96446 0.08214 0.0
O41 O 0.42204 0.98252 0.09308 0.0
N42 N 0.4185 0.92726 0.24347 0.0
C43 C 0.4322 0.95277 0.3428 0.0
C44 C 0.42809 0.95273 0.26516 0.0
C45 C 0.41646 0.91247 0.31025 0.0
N46 N 0.42485 0.92748 0.37102 0.0
O47 O 0.43354 0.88244 0.15813 0.0
H48 H 0.4322 0.97039 0.22798 0.0
H49 H 0.40958 0.89084 0.31442 0.0
O50 O 0.43768 0.938 0.10107 0.0
C51 C 0.42086 0.86136 0.18135 0.0
O52 O 0.39742 0.86516 0.18772 0.0
N53 N 0.38665 0.94242 0.12942 0.0
C54 C 0.3433 0.97348 0.11007 0.0
C55 C 0.35921 0.96906 0.04852 0.0
C56 C 0.38065 0.95365 0.05935 0.0
C57 C 0.3713 0.94644 0.1897 0.0
C58 C 0.3501 0.96248 0.1819 0.0
H59 H 0.39214 0.95024 1.01032 0.0
H60 H 0.37465 0.93614 0.24405 0.0
H61 H 0.43525 0.91264 0.97721 0.0
H62 H 0.37189 0.87001 0.90929 0.0
H63 H 0.44014 0.97001 0.37608 0.0
H64 H 0.35485 0.97635 0.99127 0.0
H65 H 0.3389 0.96543 0.23195 0.0
C66 C 0.14597 0.38972 0.47856 0.0
C67 C 0.14776 0.38271 0.55467 0.0
N68 N 0.12893 0.39453 0.59195 0.0
N69 N 0.12609 0.40587 0.46721 0.0
C70 C 0.11598 0.4085 0.5375 0.0
H71 H 0.15873 0.38403 0.43428 0.0
Co72 Co 0.11858 0.42027 0.37024 0.0
C73 C 0.09208 0.47373 0.40291 0.0
O74 O 0.10772 0.48625 0.35746 0.0
N75 N 0.11096 0.43304 0.26892 0.0
C76 C 0.08942 0.44391 0.16414 0.0
C77 C 0.09016 0.44496 0.24289 0.0
C78 C 0.12186 0.42368 0.20398 0.0
N79 N 0.1093 0.4302 0.13973 0.0
O80 O 0.09549 0.38979 0.35602 0.0
H81 H 0.07508 0.45134 0.27804 0.0
H82 H 0.13773 0.41017 0.20384 0.0
O83 O 0.09372 0.44655 0.41435 0.0
C84 C 0.10728 0.36955 0.32374 0.0
O85 O 0.13048 0.37333 0.31213 0.0
N86 N 0.14369 0.44793 0.38345 0.0
C87 C 0.18732 0.47553 0.41817 0.0
C88 C 0.16779 0.47702 0.46878 0.0
C89 C 0.14616 0.4631 0.45044 0.0
C90 C 0.16255 0.44671 0.33339 0.0
C91 C 0.18427 0.46082 0.34879 0.0
H92 H 0.13191 0.46312 0.49251 0.0
H93 H 0.16175 0.43301 0.28394 0.0
H94 H 0.09968 0.42063 0.54869 0.0
H95 H 0.16231 0.37065 0.58095 0.0
H96 H 0.07433 0.45017 0.12825 0.0
H97 H 0.1695 0.48798 0.52334 0.0
H98 H 0.19915 0.45848 0.30912 0.0
C99 C 0.41487 0.65083 0.50122 0.0
C100 C 0.41843 0.65274 0.57886 0.0
N101 N 0.42722 0.62743 0.60367 0.0
N102 N 0.42142 0.62444 0.47695 0.0
C103 C 0.42896 0.6106 0.54083 0.0
H104 H 0.40677 0.6672 0.46565 0.0
Co105 Co 0.41602 0.61084 0.3784 0.0
C106 C 0.44928 0.56051 0.35677 0.0
O107 O 0.43519 0.54981 0.30323 0.0
N108 N 0.40983 0.59796 0.27735 0.0
C109 C 0.39031 0.58463 0.17137 0.0
C110 C 0.38869 0.58783 0.24926 0.0
C111 C 0.42405 0.60064 0.21465 0.0
N112 N 0.41253 0.59264 0.14984 0.0
O113 O 0.43726 0.64016 0.33928 0.0
H114 H 0.37254 0.58402 0.2819 0.0
H115 H 0.44207 0.60956 0.21587 0.0
O116 O 0.4433 0.58382 0.39089 0.0
C117 C 0.42394 0.66089 0.31661 0.0
O118 O 0.4004 0.65735 0.31776 0.0
N119 N 0.39308 0.5852 0.41779 0.0
C120 C 0.35099 0.5557 0.45443 0.0
C121 C 0.37331 0.54136 0.45355 0.0
C122 C 0.39435 0.5566 0.43501 0.0
C123 C 0.37184 0.59974 0.42543 0.0
C124 C 0.35053 0.58537 0.44243 0.0
H125 H 0.41124 0.54518 0.43313 0.0
H126 H 0.37124 0.6225 0.41324 0.0
H127 H 0.43401 0.58813 0.54217 0.0
H128 H 0.41395 0.67092 0.61493 0.0
H129 H 0.37599 0.57792 0.13295 0.0
H130 H 0.37432 0.51846 0.46392 0.0
H131 H 0.3337 0.59725 0.44406 0.0
C132 C 0.90731 0.87982 0.98885 0.0
C133 C 0.91078 0.87675 0.06627 0.0
N134 N 0.92287 0.89989 0.09212 0.0
N135 N 0.91722 0.90474 0.96572 0.0
C136 C 0.92667 0.91654 0.03002 0.0
H137 H 0.89716 0.86542 0.95248 0.0
Co138 Co 0.91352 0.91899 0.86732 0.0
C139 C 0.94452 0.97091 0.85605 0.0
O140 O 0.92895 0.98224 0.80784 0.0
N141 N 0.90915 0.93271 0.76518 0.0
C142 C 0.89282 0.95012 0.65776 0.0
C143 C 0.89006 0.94721 0.73531 0.0
C144 C 0.92349 0.92767 0.70364 0.0
N145 N 0.9138 0.93785 0.63805 0.0
O146 O 0.93555 0.88998 0.8311 0.0
H147 H 0.87464 0.95505 0.76632 0.0
H148 H 0.94017 0.91557 0.70585 0.0
O149 O 0.9404 0.94607 0.88461 0.0
C150 C 0.92313 0.86882 0.80658 0.0
O151 O 0.89953 0.87151 0.80388 0.0
N152 N 0.88997 0.94439 0.90497 0.0
C153 C 0.84896 0.97616 0.94492 0.0
C154 C 0.87232 0.98636 0.96195 0.0
C155 C 0.89264 0.97006 0.94186 0.0
C156 C 0.86761 0.93265 0.89667 0.0
C157 C 0.84691 0.94838 0.91405 0.0
H158 H 0.91027 0.9782 0.9563 0.0
H159 H 0.86585 0.91158 0.87105 0.0
H160 H 0.93476 0.93767 0.0323 0.0
H161 H 0.90414 0.85935 0.10143 0.0
H162 H 0.88002 0.95972 0.61827 0.0
H163 H 0.87501 1.00689 0.98984 0.0
H164 H 0.82958 0.93915 0.8996 0.0
C165 C 0.64398 0.14265 0.97712 0.0
C166 C 0.64393 0.149 0.05405 0.0
N167 N 0.62479 0.13598 0.08585 0.0
N168 N 0.62472 0.1261 0.96022 0.0
C169 C 0.61343 0.12213 0.02806 0.0
H170 H 0.6573 0.14954 0.93594 0.0
Co171 Co 0.61774 0.11322 0.86132 0.0
C172 C 0.57164 0.08426 0.88554 0.0
O173 O 0.56217 0.10214 0.83556 0.0
N174 N 0.61114 0.10074 0.76143 0.0
C175 C 0.60266 0.07501 0.65751 0.0
C176 C 0.6054 0.07425 0.73601 0.0
C177 C 0.61217 0.11703 0.69763 0.0
N178 N 0.60693 0.10203 0.63319 0.0
O179 O 0.59383 0.14312 0.8507 0.0
H180 H 0.60351 0.05553 0.77211 0.0
H181 H 0.61735 0.13937 0.69863 0.0
O182 O 0.59413 0.08587 0.90166 0.0
C183 C 0.60353 0.16725 0.83577 0.0
O184 O 0.62712 0.1687 0.82997 0.0
N185 N 0.64285 0.08666 0.86962 0.0
C186 C 0.68851 0.06336 0.89572 0.0
C187 C 0.66885 0.05522 0.94151 0.0
C188 C 0.64598 0.06731 0.92762 0.0
C189 C 0.66138 0.09323 0.82182 0.0
C190 C 0.68423 0.08157 0.83321 0.0
H191 H 0.6314 0.06295 0.96694 0.0
H192 H 0.65887 0.1093 0.77782 0.0
H193 H 0.59714 0.10965 0.03513 0.0
H194 H 0.65715 0.16176 0.08468 0.0
H195 H 0.59787 0.05693 0.62159 0.0
H196 H 0.67146 0.04132 0.99059 0.0
H197 H 0.69877 0.08808 0.79576 0.0
C198 C 0.88051 0.63368 0.56183 0.0
C199 C 0.87781 0.63957 0.4851 0.0
N200 N 0.89823 0.6318 0.44881 0.0
N201 N 0.90257 0.62234 0.57423 0.0
C202 C 0.91298 0.62135 0.50411 0.0
H203 H 0.86728 0.63753 0.60612 0.0
Co204 Co 0.91399 0.61265 0.6717 0.0
C205 C 0.9462 0.56294 0.62533 0.0
O206 O 0.93433 0.54419 0.66684 0.0
N207 N 0.9255 0.60419 0.77252 0.0
C208 C 0.94647 0.59144 0.87677 0.0
C209 C 0.94461 0.58878 0.79828 0.0
C210 C 0.91679 0.61683 0.83681 0.0
N211 N 0.9289 0.60919 0.90101 0.0
O212 O 0.93447 0.64591 0.67108 0.0
H213 H 0.9574 0.57739 0.76322 0.0
H214 H 0.90178 0.63167 0.83648 0.0
O215 O 0.93968 0.58935 0.62509 0.0
C216 C 0.922 0.66668 0.6976 0.0
O217 O 0.89923 0.66192 0.71404 0.0
N218 N 0.89155 0.58201 0.67451 0.0
C219 C 0.85054 0.547 0.67833 0.0
C220 C 0.86685 0.54507 0.61711 0.0
C221 C 0.88729 0.56297 0.61607 0.0
C222 C 0.87517 0.58471 0.73216 0.0
C223 C 0.85501 0.56711 0.73616 0.0
H224 H 0.89907 0.56238 0.56682 0.0
H225 H 0.87664 0.60184 0.77312 0.0
H226 H 0.93116 0.61378 0.49389 0.0
H227 H 0.86196 0.6487 0.45795 0.0
H228 H 0.96033 0.58197 0.91265 0.0
H229 H 0.86368 0.53023 0.5703 0.0
H230 H 0.84234 0.57023 0.78262 0.0
C231 C 0.63056 0.36985 0.5203 0.0
C232 C 0.63374 0.36897 0.44205 0.0
N233 N 0.63146 0.39587 0.41476 0.0
N234 N 0.62592 0.39712 0.54199 0.0
C235 C 0.62687 0.41254 0.47639 0.0
H236 H 0.63106 0.35162 0.55857 0.0
Co237 Co 0.61771 0.40964 0.64018 0.0
C238 C 0.58482 0.46044 0.61023 0.0
O239 O 0.59162 0.47428 0.67232 0.0
N240 N 0.60912 0.42181 0.73971 0.0
C241 C 0.58636 0.42586 0.84415 0.0
C242 C 0.58618 0.42273 0.76588 0.0
C243 C 0.62294 0.42453 0.80355 0.0
N244 N 0.60946 0.42704 0.86754 0.0
O245 O 0.59367 0.37971 0.6466 0.0
H246 H 0.5703 0.41942 0.73074 0.0
H247 H 0.64236 0.42227 0.80429 0.0
O248 O 0.59423 0.43607 0.5939 0.0
C249 C 0.60238 0.36051 0.69105 0.0
O250 O 0.62421 0.36438 0.71893 0.0
N251 N 0.64338 0.43563 0.63752 0.0
C252 C 0.68819 0.46229 0.65266 0.0
C253 C 0.66839 0.47739 0.62189 0.0
C254 C 0.6459 0.46352 0.61443 0.0
C255 C 0.66285 0.42047 0.66274 0.0
C256 C 0.68525 0.43331 0.67126 0.0
H257 H 0.63088 0.47517 0.59028 0.0
H258 H 0.66074 0.39814 0.67811 0.0
H259 H 0.62338 0.4354 0.47336 0.0
H260 H 0.63729 0.35004 0.40774 0.0
H261 H 0.5708 0.42585 0.88151 0.0
H262 H 0.67013 0.49974 0.60574 0.0
H263 H 0.70017 0.42068 0.69339 0.0
H264 H 0.30062 0.96519 0.1902 0.0
H265 H 0.33118 1.01557 1.00452 0.0
H266 H 0.29147 0.03772 0.9821 0.0
H267 H 0.24174 0.95435 0.11206 0.0
H268 H 0.22648 0.95931 0.2022 0.0
H269 H 0.2569 0.94558 0.20064 0.0
H270 H 0.2708 0.98655 0.29118 0.0
H271 H 0.24039 1.00022 0.29378 0.0
H272 H 0.26478 0.02334 0.26508 0.0
H273 H 0.24811 0.05409 0.97831 0.0
H274 H 0.20583 0.06809 1.00453 0.0
H275 H 0.20488 1.01144 0.20144 0.0
C276 C 0.29934 0.98116 0.14542 0.0
C277 C 0.31941 0.98813 0.09868 0.0
C278 C 0.31623 1.00896 0.04002 0.0
C279 C 0.29368 0.0219 0.02701 0.0
C280 C 0.27443 1.01431 0.07388 0.0
C281 C 0.27715 0.99484 0.13283 0.0
C282 C 0.25398 0.99175 0.17811 0.0
C283 C 0.24421 0.96091 0.17291 0.0
C284 C 0.25771 1.00103 0.262 0.0
C285 C 0.2378 1.01262 0.13546 0.0
C286 C 0.24983 0.02499 0.07458 0.0
C287 C 0.23855 0.04462 0.02596 0.0
C288 C 0.21452 0.05228 0.04092 0.0
C289 C 0.20217 0.0407 0.10466 0.0
C290 C 0.21395 0.0205 0.15221 0.0
H291 H 0.21752 0.50967 0.33384 0.0
H292 H 0.2118 0.46565 0.5518 0.0
H293 H 0.25346 0.48042 0.58484 0.0
H294 H 0.27904 0.49268 0.29606 0.0
H295 H 0.2861 0.52719 0.25526 0.0
H296 H 0.25578 0.51347 0.24935 0.0
H297 H 0.23952 0.55951 0.3152 0.0
H298 H 0.26976 0.57349 0.32066 0.0
H299 H 0.25191 0.57042 0.40641 0.0
H300 H 0.297 0.49774 0.59011 0.0
H301 H 0.33698 0.52093 0.5731 0.0
H302 H 0.3131 0.55547 0.35508 0.0
C303 C 0.22503 0.50333 0.38869 0.0
C304 C 0.21148 0.48658 0.44038 0.0
C305 C 0.22182 0.47876 0.51179 0.0
C306 C 0.24551 0.48686 0.53077 0.0
C307 C 0.25852 0.50307 0.47807 0.0
C308 C 0.24849 0.51161 0.40901 0.0
C309 C 0.26606 0.52947 0.3631 0.0
C310 C 0.2721 0.51482 0.28641 0.0
C311 C 0.25622 0.56004 0.35064 0.0
C312 C 0.28761 0.52946 0.4167 0.0
C313 C 0.28307 0.51387 0.48241 0.0
C314 C 0.30066 0.51022 0.53919 0.0
C315 C 0.3233 0.52327 0.52901 0.0
C316 C 0.32793 0.54004 0.46317 0.0
C317 C 0.30988 0.54294 0.40632 0.0
H318 H 0.70731 1.01032 0.93693 0.0
H319 H 0.72694 0.09947 0.90094 0.0
H320 H 0.76966 0.08747 0.9229 0.0
H321 H 0.75394 0.99571 0.08769 0.0
H322 H 0.7595 0.95981 0.05306 0.0
H323 H 0.72998 0.97571 0.04239 0.0
H324 H 0.7315 0.96622 0.89611 0.0
H325 H 0.761 0.95043 0.90628 0.0
H326 H 0.75643 0.98001 0.84123 0.0
H327 H 0.81024 0.06551 0.93263 0.0
H328 H 0.84635 0.03504 0.93281 0.0
H329 H 0.80138 0.96009 0.97337 0.0
C330 C 0.72059 0.02734 0.93531 0.0
C331 C 0.71381 0.05577 0.9163 0.0
C332 C 0.73174 0.07744 0.91396 0.0
C333 C 0.75606 0.07091 0.92702 0.0
C334 C 0.76227 0.04263 0.94344 0.0
C335 C 0.74511 0.02118 0.94849 0.0
C336 C 0.75702 0.99226 0.96272 0.0
C337 C 0.74967 0.98016 0.04115 0.0
C338 C 0.75114 0.97099 0.89771 0.0
C339 C 0.78347 1.00078 0.96208 0.0
C340 C 0.78601 0.02997 0.95152 0.0
C341 C 0.80855 0.04268 0.94282 0.0
C342 C 0.82908 0.02507 0.9437 0.0
C343 C 0.82712 0.99491 0.95376 0.0
C344 C 0.80384 0.9829 0.96485 0.0
H345 H 0.81516 0.53948 0.56775 0.0
H346 H 0.83521 0.51607 0.80012 0.0
H347 H 0.79542 0.49361 0.81837 0.0
H348 H 0.75425 0.55747 0.60697 0.0
H349 H 0.7418 0.54255 0.52004 0.0
H350 H 0.77245 0.55536 0.52168 0.0
H351 H 0.78784 0.5058 0.47502 0.0
H352 H 0.75718 0.49301 0.47177 0.0
H353 H 0.77957 0.4739 0.52707 0.0
H354 H 0.75335 0.47693 0.81606 0.0
H355 H 0.71189 0.46103 0.78817 0.0
H356 H 0.71781 0.49382 0.55629 0.0
C357 C 0.81131 0.52896 0.62165 0.0
C358 C 0.82826 0.52945 0.68264 0.0
C359 C 0.82246 0.51596 0.75287 0.0
C360 C 0.7999 0.50325 0.76385 0.0
C361 C 0.78328 0.50404 0.7039 0.0
C362 C 0.78871 0.51606 0.63369 0.0
C363 C 0.76717 0.51412 0.57954 0.0
C364 C 0.75841 0.54417 0.55567 0.0
C365 C 0.77331 0.4956 0.50919 0.0
C366 C 0.74885 0.49934 0.6307 0.0
C367 C 0.75865 0.49396 0.70226 0.0
C368 C 0.74552 0.48075 0.76006 0.0
C369 C 0.72198 0.47187 0.74373 0.0
C370 C 0.71172 0.47606 0.67008 0.0
C371 C 0.72516 0.49055 0.61322 0.0
H372 H 0.97883 0.95808 0.96717 0.0
H373 H 0.95671 0.02442 0.80651 0.0
H374 H 0.98913 0.05576 0.85396 0.0
H375 H 0.99376 1.00523 0.1224 0.0
H376 H 0.01974 0.98494 0.15347 0.0
H377 H 0.99508 0.96703 0.1059 0.0
H378 H 0.02455 0.94683 1.00419 0.0
H379 H 0.04933 0.96459 0.05159 0.0
H380 H 0.0435 0.97119 0.95142 0.0
H381 H 0.0227 0.081 0.92142 0.0
H382 H 0.05676 0.09757 1.00115 0.0
H383 H 0.05849 1.01493 0.11625 0.0
C384 C 0.98094 0.9791 0.94157 0.0
C385 C 0.96511 0.98871 0.88303 0.0
C386 C 0.96848 0.01646 0.85141 0.0
C387 C 0.98689 0.03452 0.87799 0.0
C388 C 1.00196 0.02459 0.93614 0.0
C389 C 0.99937 0.99749 0.96731 0.0
C390 C 0.01809 0.9923 0.02956 0.0
C391 C 1.00594 0.98707 0.10744 0.0
C392 C 0.03486 0.96724 1.00786 0.0
C393 C 0.03144 0.02077 0.02858 0.0
C394 C 0.02175 0.03908 0.97438 0.0
C395 C 0.03058 0.06679 0.96373 0.0
C396 C 0.04996 0.07603 1.0094 0.0
C397 C 0.06049 0.05756 0.06467 0.0
C398 C 0.051 0.02955 0.07418 0.0
H399 H 0.44639 1.01308 0.99884 0.0
H400 H 0.48577 0.94216 0.1011 0.0
H401 H 0.52438 0.9647 0.06179 0.0
H402 H 0.4858 0.02213 0.83474 0.0
H403 H 0.4823 0.06063 0.8346 0.0
H404 H 0.45826 0.03819 0.86923 0.0
H405 H 0.45858 0.06597 0.99817 0.0
H406 H 0.48275 0.08832 0.96424 0.0
H407 H 0.48628 0.06854 0.05233 0.0
H408 H 0.55898 0.9978 0.01773 0.0
H409 H 0.5856 0.03539 0.96348 0.0
H410 H 0.52246 0.08275 0.88706 0.0
C411 C 0.46312 1.00213 1.01265 0.0
C412 C 0.46311 0.97595 0.0534 0.0
C413 C 0.48537 0.9622 0.06966 0.0
C414 C 0.50737 0.97492 0.04786 0.0
C415 C 0.5067 1.00114 1.00894 0.0
C416 C 0.48505 1.01428 0.99059 0.0
C417 C 0.48892 0.0422 0.94825 0.0
C418 C 0.47819 0.04068 0.86688 0.0
C419 C 0.47852 0.06776 0.99347 0.0
C420 C 0.51618 0.04309 0.9464 0.0
C421 C 0.52624 0.01937 0.98194 0.0
C422 C 0.55123 0.01627 0.98912 0.0
C423 C 0.56621 0.03777 0.95844 0.0
C424 C 0.55613 0.06192 0.92053 0.0
C425 C 0.53078 0.06444 0.91491 0.0
H426 H 0.05349 0.4568 0.49466 0.0
H427 H 0.08448 0.5307 0.3795 0.0
H428 H 0.05067 0.56058 0.42242 0.0
H429 H 0.99132 0.47359 0.45252 0.0
H430 H 0.98004 0.46222 0.54437 0.0
H431 H 1.00693 0.446 0.50571 0.0
H432 H 0.03061 0.4597 0.6287 0.0
H433 H 1.00375 0.47582 0.6679 0.0
H434 H 0.03103 0.49662 0.65999 0.0
H435 H 1.01349 0.58279 0.47396 0.0
H436 H 0.97553 0.59652 0.53732 0.0
H437 H 0.96777 0.50931 0.62196 0.0
C438 C 0.05318 0.47928 0.47882 0.0
C439 C 0.07174 0.49124 0.43332 0.0
C440 C 0.07059 0.52082 0.41403 0.0
C441 C 0.05138 0.53811 0.43809 0.0
C442 C 0.03332 0.52571 0.48195 0.0
C443 C 0.03402 0.49707 0.50278 0.0
C444 C 1.01213 0.48949 0.55092 0.0
C445 C 0.99669 0.46646 0.51097 0.0
C446 C 0.01985 0.47984 0.63167 0.0
C447 C 0.99911 0.51829 0.55321 0.0
C448 C 1.01172 0.53879 0.51281 0.0
C449 C 1.00346 0.56697 0.50606 0.0
C450 C 0.98181 0.57456 0.54223 0.0
C451 C 0.96858 0.55409 0.58485 0.0
C452 C 0.97739 0.52551 0.58986 0.0
H453 H 0.47724 0.56709 0.4878 0.0
H454 H 0.47019 0.51593 0.28054 0.0
H455 H 0.50467 0.48614 0.32107 0.0
H456 H 0.54316 0.56511 0.49831 0.0
H457 H 0.54384 0.56215 0.60131 0.0
H458 H 0.51919 0.58054 0.55474 0.0
H459 H 0.48873 0.54708 0.6224 0.0
H460 H 0.51325 0.52856 0.66914 0.0
H461 H 0.49179 0.5087 0.61214 0.0
H462 H 0.53879 0.46058 0.38508 0.0
H463 H 0.57069 0.44095 0.46899 0.0
H464 H 0.55618 0.5081 0.63587 0.0
C465 C 0.48314 0.54983 0.45058 0.0
C466 C 0.47096 0.54392 0.3808 0.0
C467 C 0.47912 0.5209 0.33427 0.0
C468 C 0.49876 0.50384 0.3567 0.0
C469 C 0.51017 0.50996 0.42601 0.0
C470 C 0.50275 0.53239 0.47234 0.0
C471 C 0.51781 0.53365 0.54521 0.0
C472 C 0.53183 0.56205 0.55015 0.0
C473 C 0.50195 0.52923 0.61642 0.0
C474 C 0.53469 0.50832 0.53258 0.0
C475 C 0.52996 0.49505 0.46329 0.0
C476 C 0.54275 0.47085 0.43937 0.0
C477 C 0.56083 0.45982 0.48758 0.0
C478 C 0.56604 0.47294 0.55909 0.0
C479 C 0.55279 0.49764 0.58142 0.0
H480 H 0.10406 0.10054 0.84524 0.0
H481 H 0.14545 0.17946 0.84272 0.0
H482 H 0.14199 0.18134 0.70178 0.0
H483 H 0.13026 0.0702 0.67821 0.0
H484 H 0.10284 0.05401 0.64311 0.0
H485 H 0.10698 0.05974 0.74442 0.0
H486 H 0.06717 0.0889 0.74955 0.0
H487 H 0.06281 0.08311 0.64826 0.0
H488 H 0.06309 0.11913 0.68631 0.0
H489 H 0.13578 0.17373 0.56133 0.0
H490 H 0.12665 0.15757 0.42999 0.0
H491 H 0.08981 0.08289 0.52115 0.0
C492 C 0.11196 0.11846 0.81499 0.0
C493 C 0.12503 0.1399 0.855 0.0
C494 C 0.13555 0.16272 0.81323 0.0
C495 C 0.13359 0.16403 0.73319 0.0
C496 C 0.12105 0.14232 0.69531 0.0
C497 C 0.11033 0.11999 0.73464 0.0
C498 C 0.09877 0.09882 0.67934 0.0
C499 C 0.11041 0.06893 0.68673 0.0
C500 C 0.07133 0.09742 0.69161 0.0
C501 C 0.10486 0.11266 0.60301 0.0
C502 C 0.11765 0.13777 0.61374 0.0
C503 C 0.12574 0.15411 0.55216 0.0
C504 C 0.12063 0.14458 0.47752 0.0
C505 C 0.10759 0.11884 0.46463 0.0
C506 C 0.09958 0.1028 0.52871 0.0
H507 H 0.39006 0.90562 0.46336 0.0
H508 H 0.46538 0.92979 0.45548 0.0
H509 H 0.46978 0.91841 0.59335 0.0
H510 H 0.37837 0.93791 0.64182 0.0
H511 H 0.35764 0.9109 0.67506 0.0
H512 H 0.36114 0.91704 0.57389 0.0
H513 H 0.37167 0.86332 0.55368 0.0
H514 H 0.36816 0.85699 0.65497 0.0
H515 H 0.39597 0.84741 0.60802 0.0
H516 H 0.4655 0.90727 0.73253 0.0
H517 H 0.45264 0.89969 0.86557 0.0
H518 H 0.37908 0.88582 0.78658 0.0
C519 C 0.40754 0.90775 0.49068 0.0
C520 C 0.42752 0.91816 0.44915 0.0
C521 C 0.45 0.92163 0.48669 0.0
C522 C 0.45264 0.91515 0.5647 0.0
C523 C 0.43253 0.90544 0.60468 0.0
C524 C 0.41036 0.90184 0.56921 0.0
C525 C 0.3912 0.89364 0.62715 0.0
C526 C 0.37089 0.91622 0.62961 0.0
C527 C 0.38116 0.86355 0.60992 0.0
C528 C 0.40596 0.89377 0.7007 0.0
C529 C 0.42982 0.90016 0.68607 0.0
C530 C 0.44685 0.90224 0.74472 0.0
C531 C 0.43926 0.89812 0.82051 0.0
C532 C 0.41472 0.89239 0.83771 0.0
C533 C 0.398 0.88982 0.77625 0.0
H534 H 0.10813 0.43563 0.68242 0.0
H535 H 0.14123 0.35113 0.6872 0.0
H536 H 0.13904 0.35089 0.8282 0.0
H537 H 0.13807 0.46347 0.84499 0.0
H538 H 0.11261 0.48339 0.88125 0.0
H539 H 0.11512 0.4764 0.78004 0.0
H540 H 0.07297 0.45246 0.77967 0.0
H541 H 0.0702 0.45964 0.88082 0.0
H542 H 0.06693 0.42348 0.84525 0.0
H543 H 0.13589 0.36084 0.96832 0.0
H544 H 0.12968 0.37934 0.09933 0.0
H545 H 0.09807 0.45719 1.00609 0.0
C546 C 0.11442 0.41686 0.71312 0.0
C547 C 0.12499 0.39344 0.67366 0.0
C548 C 0.13339 0.36946 0.71613 0.0
C549 C 0.13212 0.36906 0.79628 0.0
C550 C 0.12226 0.39275 0.83352 0.0
C551 C 0.11329 0.4161 0.79354 0.0
C552 C 0.10425 0.43911 0.84817 0.0
C553 C 0.11836 0.46725 0.83799 0.0
C554 C 0.07697 0.44395 0.83786 0.0
C555 C 0.10989 0.42517 0.92483 0.0
C556 C 0.12026 0.39843 0.9149 0.0
C557 C 0.1277 0.38172 0.97689 0.0
C558 C 0.12433 0.39253 0.05115 0.0
C559 C 0.11356 0.4198 0.06299 0.0
C560 C 0.10622 0.43622 0.99873 0.0
H561 H 0.38827 0.6197 0.03806 0.0
H562 H 0.45441 0.57374 0.08767 0.0
H563 H 0.46612 0.57705 0.95018 0.0
H564 H 0.37581 0.58903 0.85674 0.0
H565 H 0.36467 0.62194 0.81528 0.0
H566 H 0.36215 0.61602 0.91686 0.0
H567 H 0.3851 0.66351 0.94362 0.0
H568 H 0.38755 0.66969 0.84207 0.0
H569 H 0.41432 0.6691 0.90107 0.0
H570 H 0.46838 0.58281 0.80328 0.0
H571 H 0.46342 0.5955 0.66551 0.0
H572 H 0.39685 0.63998 0.71871 0.0
C573 C 0.40525 0.61044 0.01972 0.0
C574 C 0.42043 0.59626 0.07233 0.0
C575 C 0.44268 0.58471 0.04743 0.0
C576 C 0.44933 0.58639 0.96975 0.0
C577 C 0.43365 0.60018 0.91873 0.0
C578 C 0.41227 0.61243 0.94332 0.0
C579 C 0.3987 0.62662 0.87844 0.0
C580 C 0.37387 0.61255 0.86612 0.0
C581 C 0.39629 0.65916 0.89213 0.0
C582 C 0.41555 0.62017 0.81288 0.0
C583 C 0.43553 0.60465 0.83657 0.0
C584 C 0.45297 0.59529 0.78448 0.0
C585 C 0.45 0.60241 0.7066 0.0
C586 C 0.42998 0.61903 0.68235 0.0
C587 C 0.41258 0.62778 0.73626 0.0
H588 H 0.89275 0.89007 0.20978 0.0
H589 H 0.96213 0.92672 0.15243 0.0
H590 H 0.96907 0.9384 0.28997 0.0
H591 H 0.87675 0.94272 0.34743 0.0
H592 H 0.86134 0.91766 0.40871 0.0
H593 H 0.86302 0.91099 0.30724 0.0
H594 H 0.88231 0.86115 0.33364 0.0
H595 H 0.88079 0.86772 0.43529 0.0
H596 H 0.90927 0.85884 0.39153 0.0
H597 H 0.96798 0.94507 0.43687 0.0
H598 H 0.95693 0.95101 0.57441 0.0
H599 H 0.88752 0.91214 0.52902 0.0
C600 C 0.90956 0.90018 0.22632 0.0
C601 C 0.92711 0.90711 0.17115 0.0
C602 C 0.94856 0.92118 0.19435 0.0
C603 C 0.95266 0.9277 0.27215 0.0
C604 C 0.93496 0.92028 0.32538 0.0
C605 C 0.91371 0.90714 0.30292 0.0
C606 C 0.8968 0.90285 0.36952 0.0
C607 C 0.87308 0.91956 0.35749 0.0
C608 C 0.89202 0.87073 0.38329 0.0
C609 C 0.91172 0.91567 0.43337 0.0
C610 C 0.93386 0.92525 0.40757 0.0
C611 C 0.95065 0.93772 0.45742 0.0
C612 C 0.94437 0.94091 0.53513 0.0
C613 C 0.92141 0.93214 0.56113 0.0
C614 C 0.90511 0.91913 0.50979 0.0
H615 H 0.60735 0.07031 0.50044 0.0
H616 H 0.6059 0.15803 0.58638 0.0
H617 H 0.60806 0.17599 0.45443 0.0
H618 H 0.64828 0.08123 0.35037 0.0
H619 H 0.63329 0.05771 0.28333 0.0
H620 H 0.63061 0.05146 0.38473 0.0
H621 H 0.58401 0.05341 0.37308 0.0
H622 H 0.58653 0.05965 0.27148 0.0
H623 H 0.5698 0.08442 0.33051 0.0
H624 H 0.61403 0.18467 0.31427 0.0
H625 H 0.62118 0.18309 0.17422 0.0
H626 H 0.6155 0.09041 0.17737 0.0
C627 C 0.60708 0.0933 0.49207 0.0
C628 C 0.60674 0.11259 0.55507 0.0
C629 C 0.60668 0.14257 0.54018 0.0
C630 C 0.60768 0.15309 0.465 0.0
C631 C 0.60834 0.13347 0.40476 0.0
C632 C 0.60775 0.10421 0.41727 0.0
C633 C 0.60912 0.08774 0.34226 0.0
C634 C 0.63167 0.0684 0.34008 0.0
C635 C 0.58598 0.07027 0.32854 0.0
C636 C 0.61109 0.11234 0.28581 0.0
C637 C 0.61064 0.13855 0.32322 0.0
C638 C 0.61395 0.16433 0.28418 0.0
C639 C 0.61804 0.16327 0.20497 0.0
C640 C 0.61845 0.13672 0.16555 0.0
C641 C 0.61461 0.11097 0.2063 0.0
H642 H 0.92327 0.59491 0.35705 0.0
H643 H 0.88348 0.67516 0.35728 0.0
H644 H 0.88893 0.67922 0.21733 0.0
H645 H 0.96657 0.61408 0.20615 0.0
H646 H 0.96636 0.57867 0.16422 0.0
H647 H 0.96097 0.58312 0.26538 0.0
H648 H 0.92049 0.55582 0.2517 0.0
H649 H 0.92572 0.55137 0.15057 0.0
H650 H 0.89832 0.56823 0.1834 0.0
H651 H 0.89718 0.6738 0.07724 0.0
H652 H 0.90695 0.65881 0.94553 0.0
H653 H 0.94029 0.58104 0.03374 0.0
C654 C 0.91612 0.61355 0.32762 0.0
C655 C 0.903 0.63479 0.36797 0.0
C656 C 0.89344 0.65859 0.32737 0.0
C657 C 0.89656 0.66114 0.24797 0.0
C658 C 0.90921 0.63965 0.20963 0.0
C659 C 0.91885 0.61627 0.2479 0.0
C660 C 0.9305 0.59544 0.19206 0.0
C661 C 0.95772 0.59267 0.20791 0.0
C662 C 0.918 0.56598 0.1946 0.0
C663 C 0.92569 0.61064 0.11656 0.0
C664 C 0.91355 0.63621 0.12822 0.0
C665 C 0.90667 0.6538 0.06737 0.0
C666 C 0.91214 0.64495 0.99252 0.0
C667 C 0.92425 0.61859 0.97869 0.0
C668 C 0.93126 0.60142 0.04205 0.0
H669 H 0.61122 0.36832 0.29411 0.0
H670 H 0.65269 0.44347 0.35746 0.0
H671 H 0.65381 0.45853 0.22106 0.0
H672 H 0.63932 0.35418 0.11003 0.0
H673 H 0.61135 0.34414 0.06431 0.0
H674 H 0.61542 0.33839 0.16565 0.0
H675 H 0.57676 0.36804 0.19337 0.0
H676 H 0.57256 0.37377 0.09217 0.0
H677 H 0.57421 0.40407 0.15642 0.0
H678 H 0.65077 0.46463 0.07605 0.0
H679 H 0.63958 0.4643 0.93775 0.0
H680 H 0.59745 0.38735 0.97271 0.0
C681 C 0.62078 0.38774 0.27888 0.0
C682 C 0.63216 0.40461 0.33571 0.0
C683 C 0.64395 0.4303 0.31437 0.0
C684 C 0.64476 0.43888 0.23719 0.0
C685 C 0.63337 0.42171 0.18235 0.0
C686 C 0.62131 0.39688 0.2025 0.0
C687 C 0.60905 0.38328 0.13374 0.0
C688 C 0.61941 0.35322 0.11749 0.0
C689 C 0.58151 0.38225 0.14459 0.0
C690 C 0.61602 0.40436 0.07172 0.0
C691 C 0.63043 0.42611 0.1004 0.0
C692 C 0.63939 0.44778 0.05317 0.0
C693 C 0.63308 0.44743 0.97498 0.0
C694 C 0.61762 0.42595 0.94564 0.0
C695 C 0.60917 0.40409 0.99449 0.0
H696 H 0.12288 0.22018 0.12663 0.0
H697 H 0.06625 0.18658 0.27076 0.0
H698 H 0.05519 0.23636 0.30926 0.0
H699 H 0.14368 0.26994 0.2484 0.0
H700 H 0.15045 0.29709 0.17818 0.0
H701 H 0.15016 0.25995 0.15067 0.0
H702 H 0.11862 0.27091 0.04447 0.0
H703 H 0.11894 0.30833 0.07133 0.0
H704 H 0.09085 0.28889 0.06905 0.0
H705 H 0.056 0.28999 0.34942 0.0
H706 H 0.06787 0.34009 0.38238 0.0
H707 H 0.12304 0.33684 0.20728 0.0
C708 C 0.10751 0.22344 0.16392 0.0
C709 C 0.09517 0.19981 0.19506 0.0
C710 C 0.07553 0.20459 0.24507 0.0
C711 C 0.06924 0.23278 0.26739 0.0
C712 C 0.08248 0.25577 0.23774 0.0
C713 C 0.1009 0.25123 0.18561 0.0
C714 C 0.11412 0.27871 0.16742 0.0
C715 C 0.14118 0.27626 0.18743 0.0
C716 C 0.1104 0.28721 0.08306 0.0
C717 C 0.10125 0.29926 0.22042 0.0
C718 C 0.08277 0.28604 0.25993 0.0
C719 C 0.07006 0.30064 0.31737 0.0
C720 C 0.07684 0.32909 0.33571 0.0
C721 C 0.09634 0.34228 0.29732 0.0
C722 C 0.108 0.32735 0.23754 0.0
H723 H 0.4028 0.82664 0.28935 0.0
H724 H 0.46134 0.83273 0.12646 0.0
H725 H 0.47292 0.78215 0.15571 0.0
H726 H 0.43298 0.77815 0.42878 0.0
H727 H 0.40506 0.75964 0.44716 0.0
H728 H 0.40468 0.79718 0.42217 0.0
H729 H 0.37538 0.78623 0.30961 0.0
H730 H 0.37576 0.74877 0.33382 0.0
H731 H 0.38388 0.75998 0.23849 0.0
H732 H 0.47389 0.72763 0.19297 0.0
H733 H 0.46384 0.67751 0.23172 0.0
H734 H 0.40423 0.70994 0.36645 0.0
C735 C 0.41844 0.81761 0.26095 0.0
C736 C 0.43119 0.83349 0.20568 0.0
C737 C 0.4515 0.82094 0.16968 0.0
C738 C 0.45812 0.79223 0.1859 0.0
C739 C 0.44444 0.77675 0.23904 0.0
C740 C 0.42518 0.78939 0.27653 0.0
C741 C 0.41173 0.76821 0.32571 0.0
C742 C 0.41375 0.77628 0.41101 0.0
C743 C 0.38514 0.76565 0.30033 0.0
C744 C 0.42572 0.7412 0.30818 0.0
C745 C 0.44484 0.74628 0.25927 0.0
C746 C 0.45919 0.72365 0.23218 0.0
C747 C 0.45345 0.69529 0.2545 0.0
C748 C 0.43331 0.69003 0.30204 0.0
C749 C 0.41979 0.71338 0.33019 0.0
H750 H 0.90781 0.82051 0.87259 0.0
H751 H 0.96042 0.85227 0.71111 0.0
H752 H 0.97082 0.80189 0.67535 0.0
H753 H 0.94122 0.75376 0.93062 0.0
H754 H 0.91336 0.73404 0.93743 0.0
H755 H 0.91387 0.77194 0.95863 0.0
H756 H 0.87999 0.78035 0.85813 0.0
H757 H 0.87951 0.74269 0.83615 0.0
H758 H 0.88445 0.76844 0.76078 0.0
H759 H 0.9702 0.74709 0.64457 0.0
H760 H 0.95899 0.69583 0.62428 0.0
H761 H 0.90705 0.70251 0.80843 0.0
C762 C 0.92212 0.81682 0.83154 0.0
C763 C 0.93353 0.84 0.79503 0.0
C764 C 0.95184 0.83459 0.7406 0.0
C765 C 0.95774 0.80609 0.71994 0.0
C766 C 0.94542 0.78351 0.75542 0.0
C767 C 0.92825 0.7888 0.81118 0.0
C768 C 0.91576 0.76165 0.83625 0.0
C769 C 0.9214 0.75495 0.92074 0.0
C770 C 0.88833 0.7634 0.8219 0.0
C771 C 0.92766 0.74022 0.78359 0.0
C772 C 0.94503 0.75282 0.73798 0.0
C773 C 0.95694 0.73703 0.68109 0.0
C774 C 0.95054 0.70795 0.66995 0.0
C775 C 0.93214 0.69534 0.71469 0.0
C776 C 0.92117 0.7116 0.77323 0.0
H777 H 0.6074 0.21694 0.91229 0.0
H778 H 0.57086 0.17696 0.7208 0.0
H779 H 0.55838 0.22499 0.6732 0.0
H780 H 0.56487 0.28217 0.93248 0.0
H781 H 0.59028 0.30469 0.95596 0.0
H782 H 0.59014 0.26753 0.98493 0.0
H783 H 0.63105 0.25986 0.91632 0.0
H784 H 0.63119 0.29666 0.88655 0.0
H785 H 0.63356 0.2685 0.81592 0.0
H786 H 0.55875 0.27755 0.63144 0.0
H787 H 0.5711 0.32774 0.60327 0.0
H788 H 0.60639 0.3325 0.82471 0.0
C789 C 0.59558 0.21836 0.8628 0.0
C790 C 0.58947 0.1935 0.82118 0.0
C791 C 0.57496 0.19586 0.7547 0.0
C792 C 0.56794 0.22308 0.72716 0.0
C793 C 0.57528 0.24751 0.7677 0.0
C794 C 0.58835 0.24523 0.83534 0.0
C795 C 0.59711 0.27421 0.86283 0.0
C796 C 0.58486 0.28265 0.93853 0.0
C797 C 0.62485 0.27482 0.87075 0.0
C798 C 0.58845 0.29298 0.79767 0.0
C799 C 0.57542 0.27754 0.74388 0.0
C800 C 0.56829 0.28999 0.67433 0.0
C801 C 0.57528 0.31852 0.65872 0.0
C802 C 0.58954 0.33391 0.71209 0.0
C803 C 0.59527 0.32125 0.78326 0.0
loop_
_geom_bond_atom_site_label_1
_geom_bond_atom_site_label_2
_geom_bond_distance
_geom_bond_site_symmetry_2
_ccdc_geom_bond_type
C0 C1 1.351 . S
C0 N3 1.368 1_556 S
C0 H5 0.931 1_556 S
C1 C0 1.351 . S
C1 N2 1.373 . S
C1 H29 0.930 . S
N2 C1 1.373 . S
N2 C4 1.340 . S
N3 C0 1.368 1_554 S
N3 C4 1.321 1_554 S
N3 Co6 2.135 . S
C4 N2 1.340 . S
C4 N3 1.321 1_556 S
C4 H28 0.930 . S
H5 C0 0.931 1_554 S
Co6 N3 2.135 . S
Co6 N9 2.121 . S
Co6 O14 2.055 . S
Co6 O17 2.039 . S
Co6 N20 2.140 . S
C7 O8 1.227 . S
C7 O17 1.265 . S
O8 C7 1.227 . S
N9 Co6 2.121 . S
N9 C11 1.375 . S
N9 C12 1.313 . S
C10 C11 1.338 . S
C10 N13 1.377 . S
C10 H30 0.930 . S
C11 N9 1.375 . S
C11 C10 1.338 . S
C11 H15 0.931 . S
C12 N9 1.313 . S
C12 N13 1.344 . S
C12 H16 0.930 . S
N13 C10 1.377 . S
N13 C12 1.344 . S
O14 Co6 2.055 . S
O14 C18 1.253 . S
H15 C11 0.931 . S
H16 C12 0.930 . S
O17 Co6 2.039 . S
O17 C7 1.265 . S
C18 O14 1.253 . S
C18 O19 1.227 . S
O19 C18 1.227 . S
N20 Co6 2.140 . S
N20 C23 1.346 . S
N20 C24 1.345 . S
C21 C22 1.387 . S
C21 C25 1.391 . S
C22 C21 1.387 . S
C22 C23 1.369 . S
C22 H31 0.929 . S
C23 N20 1.346 . S
C23 C22 1.369 . S
C23 H26 0.928 . S
C24 N20 1.345 . S
C24 C25 1.371 . S
C24 H27 0.931 . S
C25 C21 1.391 . S
C25 C24 1.371 . S
C25 H32 0.930 . S
H26 C23 0.928 . S
H27 C24 0.931 . S
H28 C4 0.930 . S
H29 C1 0.930 . S
H30 C10 0.930 . S
H31 C22 0.929 . S
H32 C25 0.930 . S
C33 C34 1.351 . S
C33 N36 1.368 1_556 S
C33 H38 0.931 1_556 S
C34 C33 1.351 . S
C34 N35 1.373 . S
C34 H62 0.930 . S
N35 C34 1.373 . S
N35 C37 1.340 . S
N36 C33 1.368 1_554 S
N36 C37 1.321 1_554 S
N36 Co39 2.135 . S
C37 N35 1.340 . S
C37 N36 1.321 1_556 S
C37 H61 0.930 . S
H38 C33 0.931 1_554 S
Co39 N36 2.135 . S
Co39 N42 2.121 . S
Co39 O47 2.055 . S
Co39 O50 2.039 . S
Co39 N53 2.140 . S
C40 O41 1.227 . S
C40 O50 1.265 . S
O41 C40 1.227 . S
N42 Co39 2.121 . S
N42 C44 1.375 . S
N42 C45 1.313 . S
C43 C44 1.338 . S
C43 N46 1.377 . S
C43 H63 0.930 . S
C44 N42 1.375 . S
C44 C43 1.338 . S
C44 H48 0.931 . S
C45 N42 1.313 . S
C45 N46 1.344 . S
C45 H49 0.930 . S
N46 C43 1.377 . S
N46 C45 1.344 . S
O47 Co39 2.055 . S
O47 C51 1.253 . S
H48 C44 0.931 . S
H49 C45 0.930 . S
O50 Co39 2.039 . S
O50 C40 1.265 . S
C51 O47 1.253 . S
C51 O52 1.227 . S
O52 C51 1.227 . S
N53 Co39 2.140 . S
N53 C56 1.346 . S
N53 C57 1.345 . S
C54 C55 1.387 . S
C54 C58 1.391 . S
C55 C54 1.387 . S
C55 C56 1.369 . S
C55 H64 0.929 . S
C56 N53 1.346 . S
C56 C55 1.369 . S
C56 H59 0.928 . S
C57 N53 1.345 . S
C57 C58 1.371 . S
C57 H60 0.931 . S
C58 C54 1.391 . S
C58 C57 1.371 . S
C58 H65 0.930 . S
H59 C56 0.928 . S
H60 C57 0.931 . S
H61 C37 0.930 . S
H62 C34 0.930 . S
H63 C43 0.930 . S
H64 C55 0.929 . S
H65 C58 0.930 . S
C66 C67 1.351 . S
C66 N69 1.368 . S
C66 H71 0.931 . S
C67 C66 1.351 . S
C67 N68 1.373 . S
C67 H95 0.930 . S
N68 C67 1.373 . S
N68 C70 1.340 . S
N69 C66 1.368 . S
N69 C70 1.321 . S
N69 Co72 2.135 . S
C70 N68 1.340 . S
C70 N69 1.321 . S
C70 H94 0.930 . S
H71 C66 0.931 . S
Co72 N69 2.135 . S
Co72 N75 2.121 . S
Co72 O80 2.055 . S
Co72 O83 2.039 . S
Co72 N86 2.140 . S
C73 O74 1.227 . S
C73 O83 1.265 . S
O74 C73 1.227 . S
N75 Co72 2.121 . S
N75 C77 1.375 . S
N75 C78 1.313 . S
C76 C77 1.338 . S
C76 N79 1.377 . S
C76 H96 0.930 . S
C77 N75 1.375 . S
C77 C76 1.338 . S
C77 H81 0.931 . S
C78 N75 1.313 . S
C78 N79 1.344 . S
C78 H82 0.930 . S
N79 C76 1.377 . S
N79 C78 1.344 . S
O80 Co72 2.055 . S
O80 C84 1.253 . S
H81 C77 0.931 . S
H82 C78 0.930 . S
O83 Co72 2.039 . S
O83 C73 1.265 . S
C84 O80 1.253 . S
C84 O85 1.227 . S
O85 C84 1.227 . S
N86 Co72 2.140 . S
N86 C89 1.346 . S
N86 C90 1.345 . S
C87 C88 1.387 . S
C87 C91 1.391 . S
C88 C87 1.387 . S
C88 C89 1.369 . S
C88 H97 0.929 . S
C89 N86 1.346 . S
C89 C88 1.369 . S
C89 H92 0.928 . S
C90 N86 1.345 . S
C90 C91 1.371 . S
C90 H93 0.931 . S
C91 C87 1.391 . S
C91 C90 1.371 . S
C91 H98 0.930 . S
H92 C89 0.928 . S
H93 C90 0.931 . S
H94 C70 0.930 . S
H95 C67 0.930 . S
H96 C76 0.930 . S
H97 C88 0.929 . S
H98 C91 0.930 . S
C99 C100 1.351 . S
C99 N102 1.368 . S
C99 H104 0.931 . S
C100 C99 1.351 . S
C100 N101 1.373 . S
C100 H128 0.930 . S
N101 C100 1.373 . S
N101 C103 1.340 . S
N102 C99 1.368 . S
N102 C103 1.321 . S
N102 Co105 2.135 . S
C103 N101 1.340 . S
C103 N102 1.321 . S
C103 H127 0.930 . S
H104 C99 0.931 . S
Co105 N102 2.135 . S
Co105 N108 2.121 . S
Co105 O113 2.055 . S
Co105 O116 2.039 . S
Co105 N119 2.140 . S
C106 O107 1.227 . S
C106 O116 1.265 . S
O107 C106 1.227 . S
N108 Co105 2.121 . S
N108 C110 1.375 . S
N108 C111 1.313 . S
C109 C110 1.338 . S
C109 N112 1.377 . S
C109 H129 0.930 . S
C110 N108 1.375 . S
C110 C109 1.338 . S
C110 H114 0.931 . S
C111 N108 1.313 . S
C111 N112 1.344 . S
C111 H115 0.930 . S
N112 C109 1.377 . S
N112 C111 1.344 . S
O113 Co105 2.055 . S
O113 C117 1.253 . S
H114 C110 0.931 . S
H115 C111 0.930 . S
O116 Co105 2.039 . S
O116 C106 1.265 . S
C117 O113 1.253 . S
C117 O118 1.227 . S
O118 C117 1.227 . S
N119 Co105 2.140 . S
N119 C122 1.346 . S
N119 C123 1.345 . S
C120 C121 1.387 . S
C120 C124 1.391 . S
C121 C120 1.387 . S
C121 C122 1.369 . S
C121 H130 0.929 . S
C122 N119 1.346 . S
C122 C121 1.369 . S
C122 H125 0.928 . S
C123 N119 1.345 . S
C123 C124 1.371 . S
C123 H126 0.931 . S
C124 C120 1.391 . S
C124 C123 1.371 . S
C124 H131 0.930 . S
H125 C122 0.928 . S
H126 C123 0.931 . S
H127 C103 0.930 . S
H128 C100 0.930 . S
H129 C109 0.930 . S
H130 C121 0.929 . S
H131 C124 0.930 . S
C132 C133 1.351 . S
C132 N135 1.368 1_554 S
C132 H137 0.931 1_554 S
C133 C132 1.351 . S
C133 N134 1.373 . S
C133 H161 0.930 . S
N134 C133 1.373 . S
N134 C136 1.340 . S
N135 C132 1.368 1_556 S
N135 C136 1.321 1_556 S
N135 Co138 2.135 . S
C136 N134 1.340 . S
C136 N135 1.321 1_554 S
C136 H160 0.930 . S
H137 C132 0.931 1_556 S
Co138 N135 2.135 . S
Co138 N141 2.121 . S
Co138 O146 2.055 . S
Co138 O149 2.039 . S
Co138 N152 2.140 . S
C139 O140 1.227 . S
C139 O149 1.265 . S
O140 C139 1.227 . S
N141 Co138 2.121 . S
N141 C143 1.375 . S
N141 C144 1.313 . S
C142 C143 1.338 . S
C142 N145 1.377 . S
C142 H162 0.930 . S
C143 N141 1.375 . S
C143 C142 1.338 . S
C143 H147 0.931 . S
C144 N141 1.313 . S
C144 N145 1.344 . S
C144 H148 0.930 . S
N145 C142 1.377 . S
N145 C144 1.344 . S
O146 Co138 2.055 . S
O146 C150 1.253 . S
H147 C143 0.931 . S
H148 C144 0.930 . S
O149 Co138 2.039 . S
O149 C139 1.265 . S
C150 O146 1.253 . S
C150 O151 1.227 . S
O151 C150 1.227 . S
N152 Co138 2.140 . S
N152 C155 1.346 . S
N152 C156 1.345 . S
C153 C154 1.387 . S
C153 C157 1.391 . S
C154 C153 1.387 . S
C154 C155 1.369 . S
C154 H163 0.929 . S
C155 N152 1.346 . S
C155 C154 1.369 . S
C155 H158 0.928 . S
C156 N152 1.345 . S
C156 C157 1.371 . S
C156 H159 0.931 . S
C157 C153 1.391 . S
C157 C156 1.371 . S
C157 H164 0.930 . S
H158 C155 0.928 . S
H159 C156 0.931 . S
H160 C136 0.930 . S
H161 C133 0.930 . S
H162 C142 0.930 . S
H163 C154 0.929 . S
H164 C157 0.930 . S
C165 C166 1.351 . S
C165 N168 1.368 1_554 S
C165 H170 0.931 1_554 S
C166 C165 1.351 . S
C166 N167 1.373 . S
C166 H194 0.930 . S
N167 C166 1.373 . S
N167 C169 1.340 . S
N168 C165 1.368 1_556 S
N168 C169 1.321 1_556 S
N168 Co171 2.135 . S
C169 N167 1.340 . S
C169 N168 1.321 1_554 S
C169 H193 0.930 . S
H170 C165 0.931 1_556 S
Co171 N168 2.135 . S
Co171 N174 2.121 . S
Co171 O179 2.055 . S
Co171 O182 2.039 . S
Co171 N185 2.140 . S
C172 O173 1.227 . S
C172 O182 1.265 . S
O173 C172 1.227 . S
N174 Co171 2.121 . S
N174 C176 1.375 . S
N174 C177 1.313 . S
C175 C176 1.338 . S
C175 N178 1.377 . S
C175 H195 0.930 . S
C176 N174 1.375 . S
C176 C175 1.338 . S
C176 H180 0.931 . S
C177 N174 1.313 . S
C177 N178 1.344 . S
C177 H181 0.930 . S
N178 C175 1.377 . S
N178 C177 1.344 . S
O179 Co171 2.055 . S
O179 C183 1.253 . S
H180 C176 0.931 . S
H181 C177 0.930 . S
O182 Co171 2.039 . S
O182 C172 1.265 . S
C183 O179 1.253 . S
C183 O184 1.227 . S
O184 C183 1.227 . S
N185 Co171 2.140 . S
N185 C188 1.346 . S
N185 C189 1.345 . S
C186 C187 1.387 . S
C186 C190 1.391 . S
C187 C186 1.387 . S
C187 C188 1.369 . S
C187 H196 0.929 . S
C188 N185 1.346 . S
C188 C187 1.369 . S
C188 H191 0.928 . S
C189 N185 1.345 . S
C189 C190 1.371 . S
C189 H192 0.931 . S
C190 C186 1.391 . S
C190 C189 1.371 . S
C190 H197 0.930 . S
H191 C188 0.928 . S
H192 C189 0.931 . S
H193 C169 0.930 . S
H194 C166 0.930 . S
H195 C175 0.930 . S
H196 C187 0.929 . S
H197 C190 0.930 . S
C198 C199 1.351 . S
C198 N201 1.368 . S
C198 H203 0.931 . S
C199 C198 1.351 . S
C199 N200 1.373 . S
C199 H227 0.930 . S
N200 C199 1.373 . S
N200 C202 1.340 . S
N201 C198 1.368 . S
N201 C202 1.321 . S
N201 Co204 2.135 . S
C202 N200 1.340 . S
C202 N201 1.321 . S
C202 H226 0.930 . S
H203 C198 0.931 . S
Co204 N201 2.135 . S
Co204 N207 2.121 . S
Co204 O212 2.055 . S
Co204 O215 2.039 . S
Co204 N218 2.140 . S
C205 O206 1.227 . S
C205 O215 1.265 . S
O206 C205 1.227 . S
N207 Co204 2.121 . S
N207 C209 1.375 . S
N207 C210 1.313 . S
C208 C209 1.338 . S
C208 N211 1.377 . S
C208 H228 0.930 . S
C209 N207 1.375 . S
C209 C208 1.338 . S
C209 H213 0.931 . S
C210 N207 1.313 . S
C210 N211 1.344 . S
C210 H214 0.930 . S
N211 C208 1.377 . S
N211 C210 1.344 . S
O212 Co204 2.055 . S
O212 C216 1.253 . S
H213 C209 0.931 . S
H214 C210 0.930 . S
O215 Co204 2.039 . S
O215 C205 1.265 . S
C216 O212 1.253 . S
C216 O217 1.227 . S
O217 C216 1.227 . S
N218 Co204 2.140 . S
N218 C221 1.346 . S
N218 C222 1.345 . S
C219 C220 1.387 . S
C219 C223 1.391 . S
C220 C219 1.387 . S
C220 C221 1.369 . S
C220 H229 0.929 . S
C221 N218 1.346 . S
C221 C220 1.369 . S
C221 H224 0.928 . S
C222 N218 1.345 . S
C222 C223 1.371 . S
C222 H225 0.931 . S
C223 C219 1.391 . S
C223 C222 1.371 . S
C223 H230 0.930 . S
H224 C221 0.928 . S
H225 C222 0.931 . S
H226 C202 0.930 . S
H227 C199 0.930 . S
H228 C208 0.930 . S
H229 C220 0.929 . S
H230 C223 0.930 . S
C231 C232 1.351 . S
C231 N234 1.368 . S
C231 H236 0.931 . S
C232 C231 1.351 . S
C232 N233 1.373 . S
C232 H260 0.930 . S
N233 C232 1.373 . S
N233 C235 1.340 . S
N234 C231 1.368 . S
N234 C235 1.321 . S
N234 Co237 2.135 . S
C235 N233 1.340 . S
C235 N234 1.321 . S
C235 H259 0.930 . S
H236 C231 0.931 . S
Co237 N234 2.135 . S
Co237 N240 2.121 . S
Co237 O245 2.055 . S
Co237 O248 2.039 . S
Co237 N251 2.140 . S
C238 O239 1.227 . S
C238 O248 1.265 . S
O239 C238 1.227 . S
N240 Co237 2.121 . S
N240 C242 1.375 . S
N240 C243 1.313 . S
C241 C242 1.338 . S
C241 N244 1.377 . S
C241 H261 0.930 . S
C242 N240 1.375 . S
C242 C241 1.338 . S
C242 H246 0.931 . S
C243 N240 1.313 . S
C243 N244 1.344 . S
C243 H247 0.930 . S
N244 C241 1.377 . S
N244 C243 1.344 . S
O245 Co237 2.055 . S
O245 C249 1.253 . S
H246 C242 0.931 . S
H247 C243 0.930 . S
O248 Co237 2.039 . S
O248 C238 1.265 . S
C249 O245 1.253 . S
C249 O250 1.227 . S
O250 C249 1.227 . S
N251 Co237 2.140 . S
N251 C254 1.346 . S
N251 C255 1.345 . S
C252 C253 1.387 . S
C252 C256 1.391 . S
C253 C252 1.387 . S
C253 C254 1.369 . S
C253 H262 0.929 . S
C254 N251 1.346 . S
C254 C253 1.369 . S
C254 H257 0.928 . S
C255 N251 1.345 . S
C255 C256 1.371 . S
C255 H258 0.931 . S
C256 C252 1.391 . S
C256 C255 1.371 . S
C256 H263 0.930 . S
H257 C254 0.928 . S
H258 C255 0.931 . S
H259 C235 0.930 . S
H260 C232 0.930 . S
H261 C241 0.930 . S
H262 C253 0.929 . S
H263 C256 0.930 . S
H264 C276 0.930 . S
H265 C278 0.930 1_545 S
H266 C279 0.930 . S
H267 C283 0.959 . S
H268 C283 0.959 . S
H269 C283 0.961 . S
H270 C284 0.960 . S
H271 C284 0.961 . S
H272 C284 0.959 . S
H273 C287 0.929 . S
H274 C288 0.931 . S
H275 C290 0.930 1_565 S
C276 H264 0.930 . S
C276 C277 1.399 . S
C276 C281 1.399 . S
C277 C276 1.399 . S
C277 C278 1.376 . S
C278 H265 0.930 1_565 S
C278 C277 1.376 . S
C278 C279 1.388 1_565 S
C279 H266 0.930 . S
C279 C278 1.388 1_545 S
C279 C280 1.390 . S
C280 C279 1.390 . S
C280 C281 1.394 1_545 S
C280 C286 1.465 . S
C281 C276 1.399 . S
C281 C280 1.394 1_565 S
C281 C282 1.516 . S
C282 C281 1.516 . S
C282 C283 1.502 . S
C282 C284 1.561 . S
C282 C285 1.526 1_565 S
C283 H267 0.959 . S
C283 H268 0.959 . S
C283 H269 0.961 . S
C283 C282 1.502 . S
C284 H270 0.960 . S
C284 H271 0.961 . S
C284 H272 0.959 . S
C284 C282 1.561 . S
C285 C282 1.526 1_545 S
C285 C286 1.396 . S
C285 C290 1.390 . S
C286 C280 1.465 . S
C286 C285 1.396 . S
C286 C287 1.399 . S
C287 H273 0.929 . S
C287 C286 1.399 . S
C287 C288 1.385 . S
C288 H274 0.931 . S
C288 C287 1.385 . S
C288 C289 1.389 . S
C289 C288 1.389 . S
C289 C290 1.387 . S
C290 H275 0.930 1_545 S
C290 C285 1.390 . S
C290 C289 1.387 . S
H291 C303 0.930 . S
H292 C305 0.930 . S
H293 C306 0.930 . S
H294 C310 0.959 . S
H295 C310 0.959 . S
H296 C310 0.961 . S
H297 C311 0.960 . S
H298 C311 0.961 . S
H299 C311 0.959 . S
H300 C314 0.929 . S
H301 C315 0.931 . S
H302 C317 0.930 . S
C303 H291 0.930 . S
C303 C304 1.399 . S
C303 C308 1.399 . S
C304 C303 1.399 . S
C304 C305 1.376 . S
C305 H292 0.930 . S
C305 C304 1.376 . S
C305 C306 1.388 . S
C306 H293 0.930 . S
C306 C305 1.388 . S
C306 C307 1.390 . S
C307 C306 1.390 . S
C307 C308 1.394 . S
C307 C313 1.465 . S
C308 C303 1.399 . S
C308 C307 1.394 . S
C308 C309 1.516 . S
C309 C308 1.516 . S
C309 C310 1.502 . S
C309 C311 1.561 . S
C309 C312 1.526 . S
C310 H294 0.959 . S
C310 H295 0.959 . S
C310 H296 0.961 . S
C310 C309 1.502 . S
C311 H297 0.960 . S
C311 H298 0.961 . S
C311 H299 0.959 . S
C311 C309 1.561 . S
C312 C309 1.526 . S
C312 C313 1.396 . S
C312 C317 1.390 . S
C313 C307 1.465 . S
C313 C312 1.396 . S
C313 C314 1.399 . S
C314 H300 0.929 . S
C314 C313 1.399 . S
C314 C315 1.385 . S
C315 H301 0.931 . S
C315 C314 1.385 . S
C315 C316 1.389 . S
C316 C315 1.389 . S
C316 C317 1.387 . S
C317 H302 0.930 . S
C317 C312 1.390 . S
C317 C316 1.387 . S
H318 C330 0.930 1_565 S
H319 C332 0.930 . S
H320 C333 0.930 . S
H321 C337 0.959 1_554 S
H322 C337 0.959 . S
H323 C337 0.961 . S
H324 C338 0.960 . S
H325 C338 0.961 . S
H326 C338 0.959 . S
H327 C341 0.929 . S
H328 C342 0.931 1_545 S
H329 C344 0.930 . S
C330 H318 0.930 1_545 S
C330 C331 1.399 . S
C330 C335 1.389 1_545 S
C331 C330 1.399 . S
C331 C332 1.376 . S
C332 H319 0.930 . S
C332 C331 1.376 . S
C332 C333 1.388 . S
C333 H320 0.930 . S
C333 C332 1.388 . S
C333 C334 1.390 . S
C334 C333 1.390 . S
C334 C335 1.369 1_545 S
C334 C340 1.465 . S
C335 C330 1.389 1_565 S
C335 C334 1.369 1_565 S
C335 C336 1.550 . S
C336 C335 1.550 . S
C336 C337 1.502 . S
C336 C338 1.561 . S
C336 C339 1.526 . S
C337 H321 0.959 1_556 S
C337 H322 0.959 . S
C337 H323 0.961 . S
C337 C336 1.502 . S
C338 H324 0.960 . S
C338 H325 0.961 . S
C338 H326 0.959 . S
C338 C336 1.561 . S
C339 C336 1.526 . S
C339 C340 1.396 1_565 S
C339 C344 1.390 . S
C340 C334 1.465 . S
C340 C339 1.396 1_545 S
C340 C341 1.399 . S
C341 H327 0.929 . S
C341 C340 1.399 . S
C341 C342 1.385 1_545 S
C342 H328 0.931 1_565 S
C342 C341 1.385 1_565 S
C342 C343 1.389 . S
C343 C342 1.389 . S
C343 C344 1.387 . S
C344 H329 0.930 . S
C344 C339 1.390 . S
C344 C343 1.387 . S
H345 C357 0.930 . S
H346 C359 0.930 . S
H347 C360 0.930 . S
H348 C364 0.959 . S
H349 C364 0.959 . S
H350 C364 0.961 . S
H351 C365 0.960 . S
H352 C365 0.961 . S
H353 C365 0.959 . S
H354 C368 0.929 . S
H355 C369 0.931 . S
H356 C371 0.930 . S
C357 H345 0.930 . S
C357 C358 1.399 . S
C357 C362 1.399 . S
C358 C357 1.399 . S
C358 C359 1.376 . S
C359 H346 0.930 . S
C359 C358 1.376 . S
C359 C360 1.388 . S
C360 H347 0.930 . S
C360 C359 1.388 . S
C360 C361 1.390 . S
C361 C360 1.390 . S
C361 C362 1.394 . S
C361 C367 1.465 . S
C362 C357 1.399 . S
C362 C361 1.394 . S
C362 C363 1.516 . S
C363 C362 1.516 . S
C363 C364 1.502 . S
C363 C365 1.561 . S
C363 C366 1.526 . S
C364 H348 0.959 . S
C364 H349 0.959 . S
C364 H350 0.961 . S
C364 C363 1.502 . S
C365 H351 0.960 . S
C365 H352 0.961 . S
C365 H353 0.959 . S
C365 C363 1.561 . S
C366 C363 1.526 . S
C366 C367 1.396 . S
C366 C371 1.390 . S
C367 C361 1.465 . S
C367 C366 1.396 . S
C367 C368 1.399 . S
C368 H354 0.929 . S
C368 C367 1.399 . S
C368 C369 1.385 . S
C369 H355 0.931 . S
C369 C368 1.385 . S
C369 C370 1.389 . S
C370 C369 1.389 . S
C370 C371 1.387 . S
C371 H356 0.930 . S
C371 C366 1.390 . S
C371 C370 1.387 . S
H372 C384 0.930 . S
H373 C386 0.930 . S
H374 C387 0.930 . S
H375 C391 0.959 1_554 S
H376 C391 0.959 . S
H377 C391 0.961 . S
H378 C392 0.960 . S
H379 C392 0.961 . S
H380 C392 0.959 1_545 S
H381 C395 0.929 1_655 S
H382 C396 0.931 . S
H383 C398 0.930 . S
C384 H372 0.930 . S
C384 C385 1.399 . S
C384 C389 1.399 . S
C385 C384 1.399 . S
C385 C386 1.376 . S
C386 H373 0.930 . S
C386 C385 1.376 . S
C386 C387 1.388 1_566 S
C387 H374 0.930 . S
C387 C386 1.388 1_544 S
C387 C388 1.390 1_554 S
C388 C387 1.390 1_556 S
C388 C389 1.394 1_545 S
C388 C394 1.465 1_656 S
C389 C384 1.399 . S
C389 C388 1.394 1_565 S
C389 C390 1.516 1_655 S
C390 C389 1.516 1_455 S
C390 C391 1.502 . S
C390 C392 1.561 . S
C390 C393 1.526 1_566 S
C391 H375 0.959 1_556 S
C391 H376 0.959 . S
C391 H377 0.961 . S
C391 C390 1.502 . S
C392 H378 0.960 . S
C392 H379 0.961 . S
C392 H380 0.959 1_565 S
C392 C390 1.561 . S
C393 C390 1.526 1_544 S
C393 C394 1.396 . S
C393 C398 1.389 . S
C394 C388 1.465 1_454 S
C394 C393 1.396 . S
C394 C395 1.399 . S
C395 H381 0.929 1_455 S
C395 C394 1.399 . S
C395 C396 1.385 . S
C396 H382 0.931 . S
C396 C395 1.385 . S
C396 C397 1.389 . S
C397 C396 1.389 . S
C397 C398 1.387 . S
C398 H383 0.930 . S
C398 C393 1.389 . S
C398 C397 1.387 . S
H399 C411 0.930 . S
H400 C413 0.930 . S
H401 C414 0.930 1_545 S
H402 C418 0.959 . S
H403 C418 0.959 . S
H404 C418 0.961 . S
H405 C419 0.960 1_565 S
H406 C419 0.961 . S
H407 C419 0.959 . S
H408 C422 0.929 . S
H409 C423 0.931 . S
H410 C425 0.930 . S
C411 H399 0.930 . S
C411 C412 1.399 1_556 S
C411 C416 1.399 . S
C412 C411 1.399 1_554 S
C412 C413 1.376 . S
C413 H400 0.930 . S
C413 C412 1.376 . S
C413 C414 1.388 . S
C414 H401 0.930 1_565 S
C414 C413 1.388 . S
C414 C415 1.390 . S
C415 C414 1.390 . S
C415 C416 1.396 1_554 S
C415 C421 1.463 1_565 S
C416 C411 1.399 . S
C416 C415 1.396 1_556 S
C416 C417 1.516 . S
C417 C416 1.516 . S
C417 C418 1.502 . S
C417 C419 1.561 1_565 S
C417 C420 1.526 1_565 S
C418 H402 0.959 . S
C418 H403 0.959 . S
C418 H404 0.961 . S
C418 C417 1.502 . S
C419 H405 0.960 1_545 S
C419 H406 0.961 . S
C419 H407 0.959 . S
C419 C417 1.561 1_545 S
C420 C417 1.526 1_545 S
C420 C421 1.396 1_556 S
C420 C425 1.390 . S
C421 C415 1.463 1_545 S
C421 C420 1.396 1_554 S
C421 C422 1.399 . S
C422 H408 0.929 . S
C422 C421 1.399 . S
C422 C423 1.385 . S
C423 H409 0.931 . S
C423 C422 1.385 . S
C423 C424 1.389 1_554 S
C424 C423 1.389 1_556 S
C424 C425 1.387 . S
C425 H410 0.930 . S
C425 C420 1.390 . S
C425 C424 1.387 . S
H426 C438 0.930 . S
H427 C440 0.930 . S
H428 C441 0.930 . S
H429 C445 0.959 . S
H430 C445 0.959 . S
H431 C445 0.961 . S
H432 C446 0.982 . S
H433 C446 0.930 1_655 S
H434 C446 0.981 . S
H435 C449 0.947 . S
H436 C450 0.931 . S
H437 C452 0.930 . S
C438 H426 0.930 . S
C438 C439 1.399 . S
C438 C443 1.399 . S
C439 C438 1.399 . S
C439 C440 1.376 . S
C440 H427 0.930 . S
C440 C439 1.376 . S
C440 C441 1.388 . S
C441 H428 0.930 . S
C441 C440 1.388 . S
C441 C442 1.390 . S
C442 C441 1.390 . S
C442 C443 1.394 . S
C442 C448 1.465 1_455 S
C443 C438 1.399 . S
C443 C442 1.394 . S
C443 C444 1.516 1_455 S
C444 C443 1.516 1_655 S
C444 C445 1.502 . S
C444 C446 1.549 1_655 S
C444 C447 1.526 . S
C445 H429 0.959 . S
C445 H430 0.959 . S
C445 H431 0.961 . S
C445 C444 1.502 . S
C446 H432 0.982 . S
C446 H433 0.930 1_455 S
C446 H434 0.981 . S
C446 C444 1.549 1_455 S
C447 C444 1.526 . S
C447 C448 1.396 . S
C447 C452 1.390 . S
C448 C442 1.465 1_655 S
C448 C447 1.396 . S
C448 C449 1.399 . S
C449 H435 0.947 . S
C449 C448 1.399 . S
C449 C450 1.385 . S
C450 H436 0.931 . S
C450 C449 1.385 . S
C450 C451 1.389 . S
C451 C450 1.389 . S
C451 C452 1.387 . S
C452 H437 0.930 . S
C452 C447 1.390 . S
C452 C451 1.387 . S
H453 C465 0.930 . S
H454 C467 0.930 . S
H455 C468 0.930 . S
H456 C472 0.959 . S
H457 C472 0.959 . S
H458 C472 0.961 . S
H459 C473 0.960 . S
H460 C473 0.961 . S
H461 C473 0.959 . S
H462 C476 0.929 . S
H463 C477 0.931 . S
H464 C479 0.930 . S
C465 H453 0.930 . S
C465 C466 1.399 . S
C465 C470 1.399 . S
C466 C465 1.399 . S
C466 C467 1.376 . S
C467 H454 0.930 . S
C467 C466 1.376 . S
C467 C468 1.388 . S
C468 H455 0.930 . S
C468 C467 1.388 . S
C468 C469 1.390 . S
C469 C468 1.390 . S
C469 C470 1.394 . S
C469 C475 1.465 . S
C470 C465 1.399 . S
C470 C469 1.394 . S
C470 C471 1.516 . S
C471 C470 1.516 . S
C471 C472 1.502 . S
C471 C473 1.561 . S
C471 C474 1.526 . S
C472 H456 0.959 . S
C472 H457 0.959 . S
C472 H458 0.961 . S
C472 C471 1.502 . S
C473 H459 0.960 . S
C473 H460 0.961 . S
C473 H461 0.959 . S
C473 C471 1.561 . S
C474 C471 1.526 . S
C474 C475 1.396 . S
C474 C479 1.390 . S
C475 C469 1.465 . S
C475 C474 1.396 . S
C475 C476 1.399 . S
C476 H462 0.929 . S
C476 C475 1.399 . S
C476 C477 1.385 . S
C477 H463 0.931 . S
C477 C476 1.385 . S
C477 C478 1.389 . S
C478 C477 1.389 . S
C478 C479 1.387 . S
C479 H464 0.930 . S
C479 C474 1.390 . S
C479 C478 1.387 . S
H480 C492 0.930 . S
H481 C494 0.930 . S
H482 C495 0.930 . S
H483 C499 0.959 . S
H484 C499 0.959 . S
H485 C499 0.961 . S
H486 C500 0.960 . S
H487 C500 0.961 . S
H488 C500 0.959 . S
H489 C503 0.929 . S
H490 C504 0.931 . S
H491 C506 0.930 . S
C492 H480 0.930 . S
C492 C493 1.399 . S
C492 C497 1.399 . S
C493 C492 1.399 . S
C493 C494 1.376 . S
C494 H481 0.930 . S
C494 C493 1.376 . S
C494 C495 1.388 . S
C495 H482 0.930 . S
C495 C494 1.388 . S
C495 C496 1.390 . S
C496 C495 1.390 . S
C496 C497 1.394 . S
C496 C502 1.465 . S
C497 C492 1.399 . S
C497 C496 1.394 . S
C497 C498 1.516 . S
C498 C497 1.516 . S
C498 C499 1.502 . S
C498 C500 1.561 . S
C498 C501 1.526 . S
C499 H483 0.959 . S
C499 H484 0.959 . S
C499 H485 0.961 . S
C499 C498 1.502 . S
C500 H486 0.960 . S
C500 H487 0.961 . S
C500 H488 0.959 . S
C500 C498 1.561 . S
C501 C498 1.526 . S
C501 C502 1.396 . S
C501 C506 1.390 . S
C502 C496 1.465 . S
C502 C501 1.396 . S
C502 C503 1.399 . S
C503 H489 0.929 . S
C503 C502 1.399 . S
C503 C504 1.385 . S
C504 H490 0.931 . S
C504 C503 1.385 . S
C504 C505 1.389 . S
C505 C504 1.389 . S
C505 C506 1.387 . S
C506 H491 0.930 . S
C506 C501 1.390 . S
C506 C505 1.387 . S
H507 C519 0.930 . S
H508 C521 0.930 . S
H509 C522 0.930 . S
H510 C526 0.959 . S
H511 C526 0.959 . S
H512 C526 0.961 . S
H513 C527 0.960 . S
H514 C527 0.961 . S
H515 C527 0.959 . S
H516 C530 0.929 . S
H517 C531 0.931 . S
H518 C533 0.930 . S
C519 H507 0.930 . S
C519 C520 1.399 . S
C519 C524 1.399 . S
C520 C519 1.399 . S
C520 C521 1.376 . S
C521 H508 0.930 . S
C521 C520 1.376 . S
C521 C522 1.388 . S
C522 H509 0.930 . S
C522 C521 1.388 . S
C522 C523 1.390 . S
C523 C522 1.390 . S
C523 C524 1.394 . S
C523 C529 1.465 . S
C524 C519 1.399 . S
C524 C523 1.394 . S
C524 C525 1.516 . S
C525 C524 1.516 . S
C525 C526 1.502 . S
C525 C527 1.561 . S
C525 C528 1.526 . S
C526 H510 0.959 . S
C526 H511 0.959 . S
C526 H512 0.961 . S
C526 C525 1.502 . S
C527 H513 0.960 . S
C527 H514 0.961 . S
C527 H515 0.959 . S
C527 C525 1.561 . S
C528 C525 1.526 . S
C528 C529 1.396 . S
C528 C533 1.390 . S
C529 C523 1.465 . S
C529 C528 1.396 . S
C529 C530 1.399 . S
C530 H516 0.929 . S
C530 C529 1.399 . S
C530 C531 1.385 . S
C531 H517 0.931 . S
C531 C530 1.385 . S
C531 C532 1.389 . S
C532 C531 1.389 . S
C532 C533 1.387 . S
C533 H518 0.930 . S
C533 C528 1.390 . S
C533 C532 1.387 . S
H534 C546 0.930 . S
H535 C548 0.930 . S
H536 C549 0.930 . S
H537 C553 0.959 . S
H538 C553 0.959 . S
H539 C553 0.961 . S
H540 C554 0.960 . S
H541 C554 0.961 . S
H542 C554 0.959 . S
H543 C557 0.929 . S
H544 C558 0.931 . S
H545 C560 0.930 . S
C546 H534 0.930 . S
C546 C547 1.399 . S
C546 C551 1.399 . S
C547 C546 1.399 . S
C547 C548 1.376 . S
C548 H535 0.930 . S
C548 C547 1.376 . S
C548 C549 1.388 . S
C549 H536 0.930 . S
C549 C548 1.388 . S
C549 C550 1.390 . S
C550 C549 1.390 . S
C550 C551 1.394 . S
C550 C556 1.465 . S
C551 C546 1.399 . S
C551 C550 1.394 . S
C551 C552 1.516 . S
C552 C551 1.516 . S
C552 C553 1.502 . S
C552 C554 1.561 . S
C552 C555 1.526 . S
C553 H537 0.959 . S
C553 H538 0.959 . S
C553 H539 0.961 . S
C553 C552 1.502 . S
C554 H540 0.960 . S
C554 H541 0.961 . S
C554 H542 0.959 . S
C554 C552 1.561 . S
C555 C552 1.526 . S
C555 C556 1.396 . S
C555 C560 1.390 1_556 S
C556 C550 1.465 . S
C556 C555 1.396 . S
C556 C557 1.399 . S
C557 H543 0.929 . S
C557 C556 1.399 . S
C557 C558 1.385 1_556 S
C558 H544 0.931 . S
C558 C557 1.385 1_554 S
C558 C559 1.389 . S
C559 C558 1.389 . S
C559 C560 1.387 . S
C560 H545 0.930 . S
C560 C555 1.390 1_554 S
C560 C559 1.387 . S
H561 C573 0.930 . S
H562 C575 0.930 . S
H563 C576 0.930 . S
H564 C580 0.959 . S
H565 C580 0.959 . S
H566 C580 0.961 . S
H567 C581 0.960 . S
H568 C581 0.961 . S
H569 C581 0.959 . S
H570 C584 0.929 . S
H571 C585 0.931 . S
H572 C587 0.930 . S
C573 H561 0.930 . S
C573 C574 1.399 . S
C573 C578 1.399 1_554 S
C574 C573 1.399 . S
C574 C575 1.376 . S
C575 H562 0.930 . S
C575 C574 1.376 . S
C575 C576 1.388 1_554 S
C576 H563 0.930 . S
C576 C575 1.388 1_556 S
C576 C577 1.390 . S
C577 C576 1.390 . S
C577 C578 1.394 . S
C577 C583 1.465 . S
C578 C573 1.399 1_556 S
C578 C577 1.394 . S
C578 C579 1.516 . S
C579 C578 1.516 . S
C579 C580 1.502 . S
C579 C581 1.561 . S
C579 C582 1.526 . S
C580 H564 0.959 . S
C580 H565 0.959 . S
C580 H566 0.961 . S
C580 C579 1.502 . S
C581 H567 0.960 . S
C581 H568 0.961 . S
C581 H569 0.959 . S
C581 C579 1.561 . S
C582 C579 1.526 . S
C582 C583 1.396 . S
C582 C587 1.390 . S
C583 C577 1.465 . S
C583 C582 1.396 . S
C583 C584 1.399 . S
C584 H570 0.929 . S
C584 C583 1.399 . S
C584 C585 1.385 . S
C585 H571 0.931 . S
C585 C584 1.385 . S
C585 C586 1.389 . S
C586 C585 1.389 . S
C586 C587 1.387 . S
C587 H572 0.930 . S
C587 C582 1.390 . S
C587 C586 1.387 . S
H588 C600 0.930 . S
H589 C602 0.930 . S
H590 C603 0.930 . S
H591 C607 0.959 . S
H592 C607 0.959 . S
H593 C607 0.961 . S
H594 C608 0.960 . S
H595 C608 0.961 . S
H596 C608 0.959 . S
H597 C611 0.929 . S
H598 C612 0.931 . S
H599 C614 0.930 . S
C600 H588 0.930 . S
C600 C601 1.399 . S
C600 C605 1.399 . S
C601 C600 1.399 . S
C601 C602 1.376 . S
C602 H589 0.930 . S
C602 C601 1.376 . S
C602 C603 1.388 . S
C603 H590 0.930 . S
C603 C602 1.388 . S
C603 C604 1.390 . S
C604 C603 1.390 . S
C604 C605 1.394 . S
C604 C610 1.465 . S
C605 C600 1.399 . S
C605 C604 1.394 . S
C605 C606 1.516 . S
C606 C605 1.516 . S
C606 C607 1.502 . S
C606 C608 1.561 . S
C606 C609 1.526 . S
C607 H591 0.959 . S
C607 H592 0.959 . S
C607 H593 0.961 . S
C607 C606 1.502 . S
C608 H594 0.960 . S
C608 H595 0.961 . S
C608 H596 0.959 . S
C608 C606 1.561 . S
C609 C606 1.526 . S
C609 C610 1.396 . S
C609 C614 1.390 . S
C610 C604 1.465 . S
C610 C609 1.396 . S
C610 C611 1.399 . S
C611 H597 0.929 . S
C611 C610 1.399 . S
C611 C612 1.385 . S
C612 H598 0.931 . S
C612 C611 1.385 . S
C612 C613 1.389 . S
C613 C612 1.389 . S
C613 C614 1.387 . S
C614 H599 0.930 . S
C614 C609 1.390 . S
C614 C613 1.387 . S
H615 C627 0.930 . S
H616 C629 0.930 . S
H617 C630 0.930 . S
H618 C634 0.959 . S
H619 C634 0.959 . S
H620 C634 0.961 . S
H621 C635 0.960 . S
H622 C635 0.961 . S
H623 C635 0.959 . S
H624 C638 0.929 . S
H625 C639 0.931 . S
H626 C641 0.930 . S
C627 H615 0.930 . S
C627 C628 1.399 . S
C627 C632 1.399 . S
C628 C627 1.399 . S
C628 C629 1.376 . S
C629 H616 0.930 . S
C629 C628 1.376 . S
C629 C630 1.388 . S
C630 H617 0.930 . S
C630 C629 1.388 . S
C630 C631 1.390 . S
C631 C630 1.390 . S
C631 C632 1.394 . S
C631 C637 1.465 . S
C632 C627 1.399 . S
C632 C631 1.394 . S
C632 C633 1.516 . S
C633 C632 1.516 . S
C633 C634 1.502 . S
C633 C635 1.561 . S
C633 C636 1.526 . S
C634 H618 0.959 . S
C634 H619 0.959 . S
C634 H620 0.961 . S
C634 C633 1.502 . S
C635 H621 0.960 . S
C635 H622 0.961 . S
C635 H623 0.959 . S
C635 C633 1.561 . S
C636 C633 1.526 . S
C636 C637 1.396 . S
C636 C641 1.390 . S
C637 C631 1.465 . S
C637 C636 1.396 . S
C637 C638 1.399 . S
C638 H624 0.929 . S
C638 C637 1.399 . S
C638 C639 1.385 . S
C639 H625 0.931 . S
C639 C638 1.385 . S
C639 C640 1.389 . S
C640 C639 1.389 . S
C640 C641 1.387 . S
C641 H626 0.930 . S
C641 C636 1.390 . S
C641 C640 1.387 . S
H642 C654 0.930 . S
H643 C656 0.930 . S
H644 C657 0.930 . S
H645 C661 0.959 . S
H646 C661 0.959 . S
H647 C661 0.961 . S
H648 C662 0.960 . S
H649 C662 0.961 . S
H650 C662 0.959 . S
H651 C665 0.929 . S
H652 C666 0.931 . S
H653 C668 0.930 . S
C654 H642 0.930 . S
C654 C655 1.399 . S
C654 C659 1.399 . S
C655 C654 1.399 . S
C655 C656 1.376 . S
C656 H643 0.930 . S
C656 C655 1.376 . S
C656 C657 1.388 . S
C657 H644 0.930 . S
C657 C656 1.388 . S
C657 C658 1.390 . S
C658 C657 1.390 . S
C658 C659 1.394 . S
C658 C664 1.465 . S
C659 C654 1.399 . S
C659 C658 1.394 . S
C659 C660 1.516 . S
C660 C659 1.516 . S
C660 C661 1.502 . S
C660 C662 1.561 . S
C660 C663 1.526 . S
C661 H645 0.959 . S
C661 H646 0.959 . S
C661 H647 0.961 . S
C661 C660 1.502 . S
C662 H648 0.960 . S
C662 H649 0.961 . S
C662 H650 0.959 . S
C662 C660 1.561 . S
C663 C660 1.526 . S
C663 C664 1.396 . S
C663 C668 1.390 1_554 S
C664 C658 1.465 . S
C664 C663 1.396 . S
C664 C665 1.399 . S
C665 H651 0.929 . S
C665 C664 1.399 . S
C665 C666 1.385 1_554 S
C666 H652 0.931 . S
C666 C665 1.385 1_556 S
C666 C667 1.389 . S
C667 C666 1.389 . S
C667 C668 1.387 . S
C668 H653 0.930 . S
C668 C663 1.390 1_556 S
C668 C667 1.387 . S
H669 C681 0.930 . S
H670 C683 0.930 . S
H671 C684 0.930 . S
H672 C688 0.959 . S
H673 C688 0.959 . S
H674 C688 0.961 . S
H675 C689 0.960 . S
H676 C689 0.961 . S
H677 C689 0.959 . S
H678 C692 0.929 . S
H679 C693 0.931 . S
H680 C695 0.930 . S
C681 H669 0.930 . S
C681 C682 1.399 . S
C681 C686 1.399 . S
C682 C681 1.399 . S
C682 C683 1.376 . S
C683 H670 0.930 . S
C683 C682 1.376 . S
C683 C684 1.388 . S
C684 H671 0.930 . S
C684 C683 1.388 . S
C684 C685 1.390 . S
C685 C684 1.390 . S
C685 C686 1.394 . S
C685 C691 1.465 . S
C686 C681 1.399 . S
C686 C685 1.394 . S
C686 C687 1.516 . S
C687 C686 1.516 . S
C687 C688 1.502 . S
C687 C689 1.561 . S
C687 C690 1.526 . S
C688 H672 0.959 . S
C688 H673 0.959 . S
C688 H674 0.961 . S
C688 C687 1.502 . S
C689 H675 0.960 . S
C689 H676 0.961 . S
C689 H677 0.959 . S
C689 C687 1.561 . S
C690 C687 1.526 . S
C690 C691 1.396 . S
C690 C695 1.390 1_554 S
C691 C685 1.465 . S
C691 C690 1.396 . S
C691 C692 1.399 . S
C692 H678 0.929 . S
C692 C691 1.399 . S
C692 C693 1.385 1_554 S
C693 H679 0.931 . S
C693 C692 1.385 1_556 S
C693 C694 1.389 . S
C694 C693 1.389 . S
C694 C695 1.387 . S
C695 H680 0.930 . S
C695 C690 1.390 1_556 S
C695 C694 1.387 . S
H696 C708 0.930 . S
H697 C710 0.930 . S
H698 C711 0.930 . S
H699 C715 0.959 . S
H700 C715 0.959 . S
H701 C715 0.961 . S
H702 C716 0.960 . S
H703 C716 0.961 . S
H704 C716 0.959 . S
H705 C719 0.929 . S
H706 C720 0.931 . S
H707 C722 0.930 . S
C708 H696 0.930 . S
C708 C709 1.399 . S
C708 C713 1.399 . S
C709 C708 1.399 . S
C709 C710 1.376 . S
C710 H697 0.930 . S
C710 C709 1.376 . S
C710 C711 1.388 . S
C711 H698 0.930 . S
C711 C710 1.388 . S
C711 C712 1.390 . S
C712 C711 1.390 . S
C712 C713 1.394 . S
C712 C718 1.465 . S
C713 C708 1.399 . S
C713 C712 1.394 . S
C713 C714 1.516 . S
C714 C713 1.516 . S
C714 C715 1.502 . S
C714 C716 1.561 . S
C714 C717 1.526 . S
C715 H699 0.959 . S
C715 H700 0.959 . S
C715 H701 0.961 . S
C715 C714 1.502 . S
C716 H702 0.960 . S
C716 H703 0.961 . S
C716 H704 0.959 . S
C716 C714 1.561 . S
C717 C714 1.526 . S
C717 C718 1.396 . S
C717 C722 1.390 . S
C718 C712 1.465 . S
C718 C717 1.396 . S
C718 C719 1.399 . S
C719 H705 0.929 . S
C719 C718 1.399 . S
C719 C720 1.385 . S
C720 H706 0.931 . S
C720 C719 1.385 . S
C720 C721 1.389 . S
C721 C720 1.389 . S
C721 C722 1.387 . S
C722 H707 0.930 . S
C722 C717 1.390 . S
C722 C721 1.387 . S
H723 C735 0.930 . S
H724 C737 0.930 . S
H725 C738 0.930 . S
H726 C742 0.959 . S
H727 C742 0.959 . S
H728 C742 0.961 . S
H729 C743 0.960 . S
H730 C743 0.961 . S
H731 C743 0.959 . S
H732 C746 0.929 . S
H733 C747 0.931 . S
H734 C749 0.930 . S
C735 H723 0.930 . S
C735 C736 1.399 . S
C735 C740 1.399 . S
C736 C735 1.399 . S
C736 C737 1.376 . S
C737 H724 0.930 . S
C737 C736 1.376 . S
C737 C738 1.388 . S
C738 H725 0.930 . S
C738 C737 1.388 . S
C738 C739 1.390 . S
C739 C738 1.390 . S
C739 C740 1.394 . S
C739 C745 1.465 . S
C740 C735 1.399 . S
C740 C739 1.394 . S
C740 C741 1.516 . S
C741 C740 1.516 . S
C741 C742 1.502 . S
C741 C743 1.561 . S
C741 C744 1.526 . S
C742 H726 0.959 . S
C742 H727 0.959 . S
C742 H728 0.961 . S
C742 C741 1.502 . S
C743 H729 0.960 . S
C743 H730 0.961 . S
C743 H731 0.959 . S
C743 C741 1.561 . S
C744 C741 1.526 . S
C744 C745 1.396 . S
C744 C749 1.390 . S
C745 C739 1.465 . S
C745 C744 1.396 . S
C745 C746 1.399 . S
C746 H732 0.929 . S
C746 C745 1.399 . S
C746 C747 1.385 . S
C747 H733 0.931 . S
C747 C746 1.385 . S
C747 C748 1.389 . S
C748 C747 1.389 . S
C748 C749 1.387 . S
C749 H734 0.930 . S
C749 C744 1.390 . S
C749 C748 1.387 . S
H750 C762 0.930 . S
H751 C764 0.930 . S
H752 C765 0.930 . S
H753 C769 0.959 . S
H754 C769 0.959 . S
H755 C769 0.961 . S
H756 C770 0.960 . S
H757 C770 0.961 . S
H758 C770 0.959 . S
H759 C773 0.929 . S
H760 C774 0.931 . S
H761 C776 0.930 . S
C762 H750 0.930 . S
C762 C763 1.399 . S
C762 C767 1.399 . S
C763 C762 1.399 . S
C763 C764 1.376 . S
C764 H751 0.930 . S
C764 C763 1.376 . S
C764 C765 1.388 . S
C765 H752 0.930 . S
C765 C764 1.388 . S
C765 C766 1.390 . S
C766 C765 1.390 . S
C766 C767 1.394 . S
C766 C772 1.465 . S
C767 C762 1.399 . S
C767 C766 1.394 . S
C767 C768 1.516 . S
C768 C767 1.516 . S
C768 C769 1.502 . S
C768 C770 1.561 . S
C768 C771 1.526 . S
C769 H753 0.959 . S
C769 H754 0.959 . S
C769 H755 0.961 . S
C769 C768 1.502 . S
C770 H756 0.960 . S
C770 H757 0.961 . S
C770 H758 0.959 . S
C770 C768 1.561 . S
C771 C768 1.526 . S
C771 C772 1.396 . S
C771 C776 1.390 . S
C772 C766 1.465 . S
C772 C771 1.396 . S
C772 C773 1.399 . S
C773 H759 0.929 . S
C773 C772 1.399 . S
C773 C774 1.385 . S
C774 H760 0.931 . S
C774 C773 1.385 . S
C774 C775 1.389 . S
C775 C774 1.389 . S
C775 C776 1.387 . S
C776 H761 0.930 . S
C776 C771 1.390 . S
C776 C775 1.387 . S
H777 C789 0.930 . S
H778 C791 0.930 . S
H779 C792 0.930 . S
H780 C796 0.959 . S
H781 C796 0.959 . S
H782 C796 0.961 . S
H783 C797 0.960 . S
H784 C797 0.961 . S
H785 C797 0.959 . S
H786 C800 0.929 . S
H787 C801 0.931 . S
H788 C803 0.930 . S
C789 H777 0.930 . S
C789 C790 1.399 . S
C789 C794 1.399 . S
C790 C789 1.399 . S
C790 C791 1.376 . S
C791 H778 0.930 . S
C791 C790 1.376 . S
C791 C792 1.388 . S
C792 H779 0.930 . S
C792 C791 1.388 . S
C792 C793 1.390 . S
C793 C792 1.390 . S
C793 C794 1.394 . S
C793 C799 1.465 . S
C794 C789 1.399 . S
C794 C793 1.394 . S
C794 C795 1.516 . S
C795 C794 1.516 . S
C795 C796 1.502 . S
C795 C797 1.561 . S
C795 C798 1.526 . S
C796 H780 0.959 . S
C796 H781 0.959 . S
C796 H782 0.961 . S
C796 C795 1.502 . S
C797 H783 0.960 . S
C797 H784 0.961 . S
C797 H785 0.959 . S
C797 C795 1.561 . S
C798 C795 1.526 . S
C798 C799 1.396 . S
C798 C803 1.390 . S
C799 C793 1.465 . S
C799 C798 1.396 . S
C799 C800 1.399 . S
C800 H786 0.929 . S
C800 C799 1.399 . S
C800 C801 1.385 . S
C801 H787 0.931 . S
C801 C800 1.385 . S
C801 C802 1.389 . S
C802 C801 1.389 . S
C802 C803 1.387 . S
C803 H788 0.930 . S
C803 C798 1.390 . S
C803 C802 1.387 . S
C277 C54 1.505 . S
C289 C21 1.500 . S
C304 C87 1.505 . S
C316 C120 1.502 . S
C331 C186 1.498 . S
C343 C153 1.504 . S
C358 C219 1.503 . S
C370 C252 1.499 . S
C385 C139 1.494 . S
C397 C7 1.519 . S
C412 C40 1.514 . S
C424 C172 1.489 . S
C439 C73 1.499 . S
C451 C205 1.502 . S
C466 C106 1.492 . S
C478 C238 1.509 . S
C493 N2 1.303 . S
C505 N13 1.342 . S
C520 N46 1.302 . S
C532 N35 1.344 . S
C547 N68 1.306 . S
C559 N79 1.340 . S
C574 N112 1.301 . S
C586 N101 1.344 . S
C601 N134 1.340 . S
C613 N145 1.300 . S
C628 N178 1.338 . S
C640 N167 1.299 . S
C655 N200 1.301 . S
C667 N211 1.343 . S
C682 N233 1.343 . S
C694 N244 1.299 . S
C709 C18 1.516 . S
C721 C84 1.537 . S
C736 C51 1.534 . S
C748 C117 1.508 . S
C763 C150 1.509 . S
C775 C216 1.535 . S
C790 C183 1.511 . S
C802 C249 1.534 . S
