# Generated by pormake.
# Topology cha, (4)-cn, num edge types: 1
# Building blocks:
#     Node 0, Type 0, BuildingBlock: KUFVIS_clean_sbu_0, # of connection points: 4
#     Node 1, Type 0, BuildingBlock: KUFVIS_clean_sbu_0, # of connection points: 4
#     Node 2, Type 0, BuildingBlock: KUFVIS_clean_sbu_0, # of connection points: 4
#     Node 3, Type 0, BuildingBlock: KUFVIS_clean_sbu_0, # of connection points: 4
#     Node 4, Type 0, BuildingBlock: KUFVIS_clean_sbu_0, # of connection points: 4
#     Node 5, Type 0, BuildingBlock: KUFVIS_clean_sbu_0, # of connection points: 4
#     Node 6, Type 0, BuildingBlock: KUFVIS_clean_sbu_0, # of connection points: 4
#     Node 7, Type 0, BuildingBlock: KUFVIS_clean_sbu_0, # of connection points: 4
#     Node 8, Type 0, BuildingBlock: KUFVIS_clean_sbu_0, # of connection points: 4
#     Node 9, Type 0, BuildingBlock: KUFVIS_clean_sbu_0, # of connection points: 4
#     Node 10, Type 0, BuildingBlock: KUFVIS_clean_sbu_0, # of connection points: 4
#     Node 11, Type 0, BuildingBlock: KUFVIS_clean_sbu_0, # of connection points: 4
#     Node 12, Type 0, BuildingBlock: KUFVIS_clean_sbu_0, # of connection points: 4
#     Node 13, Type 0, BuildingBlock: KUFVIS_clean_sbu_0, # of connection points: 4
#     Node 14, Type 0, BuildingBlock: KUFVIS_clean_sbu_0, # of connection points: 4
#     Node 15, Type 0, BuildingBlock: KUFVIS_clean_sbu_0, # of connection points: 4
#     Node 16, Type 0, BuildingBlock: KUFVIS_clean_sbu_0, # of connection points: 4
#     Node 17, Type 0, BuildingBlock: KUFVIS_clean_sbu_0, # of connection points: 4
#     Node 18, Type 0, BuildingBlock: KUFVIS_clean_sbu_0, # of connection points: 4
#     Node 19, Type 0, BuildingBlock: KUFVIS_clean_sbu_0, # of connection points: 4
#     Node 20, Type 0, BuildingBlock: KUFVIS_clean_sbu_0, # of connection points: 4
#     Node 21, Type 0, BuildingBlock: KUFVIS_clean_sbu_0, # of connection points: 4
#     Node 22, Type 0, BuildingBlock: KUFVIS_clean_sbu_0, # of connection points: 4
#     Node 23, Type 0, BuildingBlock: KUFVIS_clean_sbu_0, # of connection points: 4
#     Node 24, Type 0, BuildingBlock: KUFVIS_clean_sbu_0, # of connection points: 4
#     Node 25, Type 0, BuildingBlock: KUFVIS_clean_sbu_0, # of connection points: 4
#     Node 26, Type 0, BuildingBlock: KUFVIS_clean_sbu_0, # of connection points: 4
#     Node 27, Type 0, BuildingBlock: KUFVIS_clean_sbu_0, # of connection points: 4
#     Node 28, Type 0, BuildingBlock: KUFVIS_clean_sbu_0, # of connection points: 4
#     Node 29, Type 0, BuildingBlock: KUFVIS_clean_sbu_0, # of connection points: 4
#     Node 30, Type 0, BuildingBlock: KUFVIS_clean_sbu_0, # of connection points: 4
#     Node 31, Type 0, BuildingBlock: KUFVIS_clean_sbu_0, # of connection points: 4
#     Node 32, Type 0, BuildingBlock: KUFVIS_clean_sbu_0, # of connection points: 4
#     Node 33, Type 0, BuildingBlock: KUFVIS_clean_sbu_0, # of connection points: 4
#     Node 34, Type 0, BuildingBlock: KUFVIS_clean_sbu_0, # of connection points: 4
#     Node 35, Type 0, BuildingBlock: KUFVIS_clean_sbu_0, # of connection points: 4
#     Edge 36, Type (0, 0), BuildingBlock: XIVTED_clean_linker_0, # of connection points: 2
#     Edge 37, Type (0, 0), BuildingBlock: XIVTED_clean_linker_0, # of connection points: 2
#     Edge 38, Type (0, 0), BuildingBlock: XIVTED_clean_linker_0, # of connection points: 2
#     Edge 39, Type (0, 0), BuildingBlock: XIVTED_clean_linker_0, # of connection points: 2
#     Edge 40, Type (0, 0), BuildingBlock: XIVTED_clean_linker_0, # of connection points: 2
#     Edge 41, Type (0, 0), BuildingBlock: XIVTED_clean_linker_0, # of connection points: 2
#     Edge 42, Type (0, 0), BuildingBlock: XIVTED_clean_linker_0, # of connection points: 2
#     Edge 43, Type (0, 0), BuildingBlock: XIVTED_clean_linker_0, # of connection points: 2
#     Edge 44, Type (0, 0), BuildingBlock: XIVTED_clean_linker_0, # of connection points: 2
#     Edge 45, Type (0, 0), BuildingBlock: XIVTED_clean_linker_0, # of connection points: 2
#     Edge 46, Type (0, 0), BuildingBlock: XIVTED_clean_linker_0, # of connection points: 2
#     Edge 47, Type (0, 0), BuildingBlock: XIVTED_clean_linker_0, # of connection points: 2
#     Edge 48, Type (0, 0), BuildingBlock: XIVTED_clean_linker_0, # of connection points: 2
#     Edge 49, Type (0, 0), BuildingBlock: XIVTED_clean_linker_0, # of connection points: 2
#     Edge 50, Type (0, 0), BuildingBlock: XIVTED_clean_linker_0, # of connection points: 2
#     Edge 51, Type (0, 0), BuildingBlock: XIVTED_clean_linker_0, # of connection points: 2
#     Edge 52, Type (0, 0), BuildingBlock: XIVTED_clean_linker_0, # of connection points: 2
#     Edge 53, Type (0, 0), BuildingBlock: XIVTED_clean_linker_0, # of connection points: 2
#     Edge 54, Type (0, 0), BuildingBlock: XIVTED_clean_linker_0, # of connection points: 2
#     Edge 55, Type (0, 0), BuildingBlock: XIVTED_clean_linker_0, # of connection points: 2
#     Edge 56, Type (0, 0), BuildingBlock: XIVTED_clean_linker_0, # of connection points: 2
#     Edge 57, Type (0, 0), BuildingBlock: XIVTED_clean_linker_0, # of connection points: 2
#     Edge 58, Type (0, 0), BuildingBlock: XIVTED_clean_linker_0, # of connection points: 2
#     Edge 59, Type (0, 0), BuildingBlock: XIVTED_clean_linker_0, # of connection points: 2
#     Edge 60, Type (0, 0), BuildingBlock: XIVTED_clean_linker_0, # of connection points: 2
#     Edge 61, Type (0, 0), BuildingBlock: XIVTED_clean_linker_0, # of connection points: 2
#     Edge 62, Type (0, 0), BuildingBlock: XIVTED_clean_linker_0, # of connection points: 2
#     Edge 63, Type (0, 0), BuildingBlock: XIVTED_clean_linker_0, # of connection points: 2
#     Edge 64, Type (0, 0), BuildingBlock: XIVTED_clean_linker_0, # of connection points: 2
#     Edge 65, Type (0, 0), BuildingBlock: XIVTED_clean_linker_0, # of connection points: 2
#     Edge 66, Type (0, 0), BuildingBlock: XIVTED_clean_linker_0, # of connection points: 2
#     Edge 67, Type (0, 0), BuildingBlock: XIVTED_clean_linker_0, # of connection points: 2
#     Edge 68, Type (0, 0), BuildingBlock: XIVTED_clean_linker_0, # of connection points: 2
#     Edge 69, Type (0, 0), BuildingBlock: XIVTED_clean_linker_0, # of connection points: 2
#     Edge 70, Type (0, 0), BuildingBlock: XIVTED_clean_linker_0, # of connection points: 2
#     Edge 71, Type (0, 0), BuildingBlock: XIVTED_clean_linker_0, # of connection points: 2
#     Edge 72, Type (0, 0), BuildingBlock: XIVTED_clean_linker_0, # of connection points: 2
#     Edge 73, Type (0, 0), BuildingBlock: XIVTED_clean_linker_0, # of connection points: 2
#     Edge 74, Type (0, 0), BuildingBlock: XIVTED_clean_linker_0, # of connection points: 2
#     Edge 75, Type (0, 0), BuildingBlock: XIVTED_clean_linker_0, # of connection points: 2
#     Edge 76, Type (0, 0), BuildingBlock: XIVTED_clean_linker_0, # of connection points: 2
#     Edge 77, Type (0, 0), BuildingBlock: XIVTED_clean_linker_0, # of connection points: 2
#     Edge 78, Type (0, 0), BuildingBlock: XIVTED_clean_linker_0, # of connection points: 2
#     Edge 79, Type (0, 0), BuildingBlock: XIVTED_clean_linker_0, # of connection points: 2
#     Edge 80, Type (0, 0), BuildingBlock: XIVTED_clean_linker_0, # of connection points: 2
#     Edge 81, Type (0, 0), BuildingBlock: XIVTED_clean_linker_0, # of connection points: 2
#     Edge 82, Type (0, 0), BuildingBlock: XIVTED_clean_linker_0, # of connection points: 2
#     Edge 83, Type (0, 0), BuildingBlock: XIVTED_clean_linker_0, # of connection points: 2
#     Edge 84, Type (0, 0), BuildingBlock: XIVTED_clean_linker_0, # of connection points: 2
#     Edge 85, Type (0, 0), BuildingBlock: XIVTED_clean_linker_0, # of connection points: 2
#     Edge 86, Type (0, 0), BuildingBlock: XIVTED_clean_linker_0, # of connection points: 2
#     Edge 87, Type (0, 0), BuildingBlock: XIVTED_clean_linker_0, # of connection points: 2
#     Edge 88, Type (0, 0), BuildingBlock: XIVTED_clean_linker_0, # of connection points: 2
#     Edge 89, Type (0, 0), BuildingBlock: XIVTED_clean_linker_0, # of connection points: 2
#     Edge 90, Type (0, 0), BuildingBlock: XIVTED_clean_linker_0, # of connection points: 2
#     Edge 91, Type (0, 0), BuildingBlock: XIVTED_clean_linker_0, # of connection points: 2
#     Edge 92, Type (0, 0), BuildingBlock: XIVTED_clean_linker_0, # of connection points: 2
#     Edge 93, Type (0, 0), BuildingBlock: XIVTED_clean_linker_0, # of connection points: 2
#     Edge 94, Type (0, 0), BuildingBlock: XIVTED_clean_linker_0, # of connection points: 2
#     Edge 95, Type (0, 0), BuildingBlock: XIVTED_clean_linker_0, # of connection points: 2
#     Edge 96, Type (0, 0), BuildingBlock: XIVTED_clean_linker_0, # of connection points: 2
#     Edge 97, Type (0, 0), BuildingBlock: XIVTED_clean_linker_0, # of connection points: 2
#     Edge 98, Type (0, 0), BuildingBlock: XIVTED_clean_linker_0, # of connection points: 2
#     Edge 99, Type (0, 0), BuildingBlock: XIVTED_clean_linker_0, # of connection points: 2
#     Edge 100, Type (0, 0), BuildingBlock: XIVTED_clean_linker_0, # of connection points: 2
#     Edge 101, Type (0, 0), BuildingBlock: XIVTED_clean_linker_0, # of connection points: 2
#     Edge 102, Type (0, 0), BuildingBlock: XIVTED_clean_linker_0, # of connection points: 2
#     Edge 103, Type (0, 0), BuildingBlock: XIVTED_clean_linker_0, # of connection points: 2
#     Edge 104, Type (0, 0), BuildingBlock: XIVTED_clean_linker_0, # of connection points: 2
#     Edge 105, Type (0, 0), BuildingBlock: XIVTED_clean_linker_0, # of connection points: 2
#     Edge 106, Type (0, 0), BuildingBlock: XIVTED_clean_linker_0, # of connection points: 2
#     Edge 107, Type (0, 0), BuildingBlock: XIVTED_clean_linker_0, # of connection points: 2
# Relax obj value: 0.089
# Max RMSD: 0.120
# Mean RMSD: 0.120
data_MOF--net-cha--node1-KUFVIS_clean_sbu_0--edge1-XIVTED_clean_linker_0
_symmetry_space_group_name_H-M    P1
_symmetry_Int_Tables_number       1
_symmetry_cell_setting            triclinic
loop_
_symmetry_equiv_pos_as_xyz
'x, y, z'
_cell_length_a     55.544658
_cell_length_b     55.542956
_cell_length_c     85.580697
_cell_angle_alpha  90.00748
_cell_angle_beta   90.007246
_cell_angle_gamma 120.01671
loop_
_atom_site_label
_atom_site_type_symbol
_atom_site_fract_x
_atom_site_fract_y
_atom_site_fract_z
_atom_type_partial_charge
Mn0 Mn 0.01752 0.29015 0.08761 0.0
Mn1 Mn 0.03124 0.24888 0.0647 0.0
C2 C 0.98206 0.24619 0.08087 0.0
C3 C 0.01624 0.30748 0.11217 0.0
C4 C 0.02316 0.29503 0.05199 0.0
O5 O 0.05978 0.30949 0.08845 0.0
O6 O 0.06601 0.28015 0.07313 0.0
C7 C 0.05223 0.22736 0.0897 0.0
N8 N 0.03442 0.2226 0.07762 0.0
C9 C 0.01661 0.17332 0.07898 0.0
C10 C 0.0348 0.17764 0.09141 0.0
C11 C 0.05253 0.20478 0.09687 0.0
C12 C 0.01679 0.19657 0.07255 0.0
H13 H 0.06618 0.24823 0.09376 0.0
C14 C 0.07522 0.30184 0.08166 0.0
O15 O 0.01793 0.32114 0.09951 0.0
O16 O 0.0155 0.28389 0.11055 0.0
N17 N 0.00012 0.21742 0.05543 0.0
C18 C 0.98375 0.21687 0.04341 0.0
C19 C 0.96489 0.19134 0.03652 0.0
C20 C 0.96364 0.16676 0.04174 0.0
C21 C 0.98081 0.16784 0.05407 0.0
C22 C 0.99891 0.19385 0.06062 0.0
H23 H 0.98527 0.23582 0.03903 0.0
O24 O 0.97666 0.26508 0.08577 0.0
O25 O 0.0082 0.25306 0.08066 0.0
O26 O 0.01884 0.30347 0.065 0.0
O27 O 0.02784 0.27488 0.05056 0.0
C28 C 0.98114 0.14427 0.05993 0.0
C29 C 0.99863 0.14693 0.07256 0.0
H30 H 0.03537 0.1603 0.09682 0.0
H31 H 0.06663 0.2083 0.10646 0.0
H32 H 0.95177 0.19066 0.02699 0.0
H33 H 0.9496 0.14727 0.03606 0.0
H34 H 0.96819 0.12398 0.05479 0.0
H35 H 0.99837 0.12859 0.07709 0.0
Mn36 Mn 0.76522 0.7533 0.08985 0.0
Mn37 Mn 0.81225 0.80901 0.06979 0.0
C38 C 0.80775 0.75723 0.08395 0.0
C39 C 0.74518 0.73462 0.11389 0.0
C40 C 0.76013 0.76116 0.05549 0.0
O41 O 0.75075 0.7807 0.09075 0.0
O42 O 0.78878 0.81954 0.08213 0.0
C43 C 0.84619 0.84622 0.09547 0.0
N44 N 0.84434 0.83203 0.08213 0.0
C45 C 0.89338 0.84811 0.0826 0.0
C46 C 0.89586 0.86308 0.09628 0.0
C47 C 0.87215 0.86213 0.10274 0.0
C48 C 0.86703 0.83295 0.07575 0.0
H49 H 0.82796 0.84529 0.10057 0.0
C50 C 0.76472 0.80693 0.08851 0.0
O51 O 0.73162 0.72433 0.10095 0.0
O52 O 0.77018 0.7557 0.11282 0.0
N53 N 0.8364 0.8013 0.05752 0.0
C54 C 0.83024 0.7844 0.04482 0.0
C55 C 0.85156 0.78236 0.03723 0.0
C56 C 0.87895 0.7977 0.04278 0.0
C57 C 0.88479 0.81513 0.05578 0.0
C58 C 0.86283 0.81675 0.06268 0.0
H59 H 0.80924 0.77246 0.04051 0.0
O60 O 0.78691 0.73342 0.08808 0.0
O61 O 0.80319 0.778 0.08393 0.0
O62 O 0.75323 0.74449 0.06702 0.0
O63 O 0.78018 0.7863 0.05588 0.0
C64 C 0.91139 0.83019 0.06247 0.0
C65 C 0.91579 0.84679 0.07582 0.0
H66 H 0.91579 0.87507 0.10203 0.0
H67 H 0.87386 0.87346 0.11336 0.0
H68 H 0.84684 0.76883 0.02722 0.0
H69 H 0.8953 0.79571 0.03708 0.0
H70 H 0.92831 0.82831 0.05771 0.0
H71 H 0.93631 0.8579 0.08099 0.0
Mn72 Mn 0.29832 0.04026 0.09228 0.0
Mn73 Mn 0.2424 0.029 0.07101 0.0
C74 C 0.29299 0.07741 0.08511 0.0
C75 C 0.31856 0.04311 0.11651 0.0
C76 C 0.29312 0.03118 0.05674 0.0
O77 O 0.2726 0.99848 0.09459 0.0
O78 O 0.23713 0.99357 0.07962 0.0
C79 C 0.20329 0.01239 0.09763 0.0
N80 N 0.21597 0.02931 0.08516 0.0
C81 C 0.19251 0.05505 0.09003 0.0
C82 C 0.17903 0.03777 0.10284 0.0
C83 C 0.18446 0.01636 0.10666 0.0
C84 C 0.2109 0.04996 0.08138 0.0
H85 H 0.20758 0.99605 0.10069 0.0
C86 C 0.24896 0.98371 0.08821 0.0
O87 O 0.32831 0.03792 0.10394 0.0
O88 O 0.29683 0.04582 0.11501 0.0
N89 N 0.24393 0.06107 0.0618 0.0
C90 C 0.25878 0.07596 0.04914 0.0
C91 C 0.25593 0.09835 0.04387 0.0
C92 C 0.23765 0.10496 0.05156 0.0
C93 C 0.22197 0.0888 0.06428 0.0
C94 C 0.22543 0.06655 0.06888 0.0
H95 H 0.27296 0.071 0.04325 0.0
O96 O 0.31714 0.08122 0.08915 0.0
O97 O 0.27231 0.0519 0.08577 0.0
O98 O 0.30682 0.03519 0.06942 0.0
O99 O 0.26911 0.02897 0.05593 0.0
C100 C 0.20356 0.09428 0.07283 0.0
C101 C 0.18881 0.07742 0.08566 0.0
H102 H 0.16463 0.0409 0.1099 0.0
H103 H 0.17426 0.00302 0.11659 0.0
H104 H 0.268 0.11065 0.03401 0.0
H105 H 0.23597 0.12258 0.04766 0.0
H106 H 0.20086 0.11162 0.06983 0.0
H107 H 0.17488 0.08202 0.09219 0.0
Mn108 Mn 0.29637 0.0231 0.91174 0.0
Mn109 Mn 0.25058 0.03376 0.93171 0.0
C110 C 0.2531 0.98544 0.9175 0.0
C111 C 0.31591 0.02389 0.88759 0.0
C112 C 0.30169 0.03596 0.94611 0.0
O113 O 0.31231 0.06518 0.91099 0.0
O114 O 0.27512 0.06766 0.9195 0.0
C115 C 0.21766 0.03874 0.90603 0.0
N116 N 0.21888 0.0259 0.91931 0.0
C117 C 0.1695 0.99437 0.91878 0.0
C118 C 0.16766 0.00737 0.90515 0.0
C119 C 0.19186 0.02965 0.89875 0.0
C120 C 0.19573 0.00455 0.92562 0.0
H121 H 0.23625 0.05571 0.901 0.0
C122 C 0.29925 0.07834 0.91326 0.0
O123 O 0.3294 0.02649 0.90048 0.0
O124 O 0.29132 0.02093 0.88879 0.0
N125 N 0.22555 0.00209 0.94385 0.0
C126 C 0.23108 0.9907 0.95649 0.0
C127 C 0.20923 0.9676 0.96395 0.0
C128 C 0.18194 0.95648 0.95837 0.0
C129 C 0.17676 0.96876 0.94547 0.0
C130 C 0.19927 0.992 0.93864 0.0
H131 H 0.25197 0.99904 0.96083 0.0
O132 O 0.27338 0.98156 0.91337 0.0
O133 O 0.25866 0.01111 0.91759 0.0
O134 O 0.30815 0.02569 0.93462 0.0
O135 O 0.28223 0.04188 0.94565 0.0
C136 C 0.15024 0.95829 0.93882 0.0
C137 C 0.14651 0.97111 0.92554 0.0
H138 H 0.14785 0.00021 0.8994 0.0
H139 H 0.19064 0.03968 0.88818 0.0
H140 H 0.21344 0.95827 0.97392 0.0
H141 H 0.16517 0.93838 0.964 0.0
H142 H 0.13284 0.93988 0.94363 0.0
H143 H 0.12602 0.96253 0.9204 0.0
Mn144 Mn 0.03654 0.30094 0.90769 0.0
Mn145 Mn 0.02663 0.2445 0.9274 0.0
C146 C 0.07475 0.29661 0.91402 0.0
C147 C 0.03652 0.32052 0.88371 0.0
C148 C 0.0219 0.29201 0.9418 0.0
O149 O 0.99465 0.27377 0.90631 0.0
O150 O 0.99311 0.23442 0.91462 0.0
C151 C 0.02435 0.20789 0.90163 0.0
N152 N 0.03618 0.22177 0.91513 0.0
C153 C 0.06918 0.20573 0.91503 0.0
C154 C 0.05723 0.19109 0.90118 0.0
C155 C 0.03471 0.19217 0.89446 0.0
C156 C 0.0577 0.2207 0.92177 0.0
H157 H 0.00723 0.20892 0.89635 0.0
C158 C 0.98203 0.24748 0.90834 0.0
O159 O 0.03265 0.3304 0.89664 0.0
O160 O 0.04008 0.29922 0.88474 0.0
N161 N 0.05792 0.2518 0.94009 0.0
C162 C 0.06811 0.26835 0.95297 0.0
C163 C 0.09117 0.27023 0.96083 0.0
C164 C 0.1035 0.25509 0.95538 0.0
C165 C 0.09246 0.23801 0.94221 0.0
C166 C 0.06913 0.23653 0.93503 0.0
H167 H 0.05886 0.28016 0.9572 0.0
O168 O 0.07801 0.32059 0.91 0.0
O169 O 0.04937 0.27591 0.91366 0.0
O170 O 0.03242 0.30911 0.9305 0.0
O171 O 0.01673 0.26686 0.94122 0.0
C172 C 0.1043 0.22316 0.93562 0.0
C173 C 0.09264 0.20689 0.92209 0.0
H174 H 0.0654 0.17924 0.8955 0.0
H175 H 0.02549 0.18108 0.88371 0.0
H176 H 0.09956 0.28349 0.97099 0.0
H177 H 0.1216 0.25696 0.9613 0.0
H178 H 0.12291 0.22495 0.94063 0.0
H179 H 0.10228 0.19591 0.91702 0.0
Mn180 Mn 0.75452 0.76302 0.90972 0.0
Mn181 Mn 0.80919 0.80782 0.93166 0.0
C182 C 0.7604 0.80636 0.91545 0.0
C183 C 0.7366 0.74394 0.88536 0.0
C184 C 0.75798 0.75772 0.94484 0.0
O185 O 0.78027 0.74669 0.90942 0.0
O186 O 0.81804 0.7812 0.92142 0.0
C187 C 0.85037 0.83767 0.90669 0.0
N188 N 0.83548 0.83814 0.9192 0.0
C189 C 0.85584 0.88778 0.91738 0.0
C190 C 0.87158 0.88788 0.90454 0.0
C191 C 0.86881 0.86271 0.89917 0.0
C192 C 0.83803 0.86223 0.9245 0.0
H193 H 0.84811 0.81831 0.90246 0.0
C194 C 0.80546 0.7581 0.91403 0.0
O195 O 0.72522 0.7304 0.89814 0.0
O196 O 0.75848 0.76838 0.88674 0.0
N197 N 0.80329 0.83472 0.94225 0.0
C198 C 0.78571 0.83088 0.95432 0.0
C199 C 0.7854 0.85393 0.96083 0.0
C200 C 0.80323 0.88065 0.9549 0.0
C201 C 0.82142 0.88407 0.94264 0.0
C202 C 0.82113 0.86042 0.93679 0.0
H203 H 0.77188 0.8104 0.9589 0.0
O204 O 0.7364 0.78632 0.9109 0.0
O205 O 0.78038 0.8006 0.91612 0.0
O206 O 0.74336 0.75047 0.93241 0.0
O207 O 0.78304 0.77772 0.94553 0.0
C208 C 0.8392 0.90992 0.93568 0.0
C209 C 0.85651 0.91189 0.92311 0.0
H210 H 0.88561 0.90712 0.89861 0.0
H211 H 0.88076 0.86259 0.88921 0.0
H212 H 0.77132 0.85108 0.97031 0.0
H213 H 0.80263 0.89835 0.95976 0.0
H214 H 0.83902 0.92819 0.93969 0.0
H215 H 0.86982 0.93193 0.91775 0.0
Mn216 Mn 0.03358 0.76918 0.90969 0.0
Mn217 Mn 0.01938 0.81118 0.93149 0.0
C218 C 0.06947 0.81148 0.91831 0.0
C219 C 0.03843 0.75382 0.88525 0.0
C220 C 0.02127 0.7617 0.94479 0.0
O221 O 0.99191 0.7524 0.90649 0.0
O222 O 0.98521 0.78218 0.92116 0.0
C223 C 0.00544 0.83705 0.90542 0.0
N224 N 0.02079 0.83965 0.91838 0.0
C225 C 0.04236 0.88946 0.91777 0.0
C226 C 0.02674 0.88737 0.90444 0.0
C227 C 0.00835 0.86105 0.89817 0.0
C228 C 0.03904 0.86487 0.92427 0.0
H229 H 0.991 0.81683 0.90072 0.0
C230 C 0.97646 0.76101 0.91223 0.0
O231 O 0.03282 0.73812 0.89752 0.0
O232 O 0.04063 0.77799 0.88716 0.0
N233 N 0.05009 0.84058 0.94235 0.0
C234 C 0.06395 0.83896 0.95508 0.0
C235 C 0.08333 0.86348 0.96269 0.0
C236 C 0.08767 0.88931 0.95741 0.0
C237 C 0.07296 0.89043 0.94436 0.0
C238 C 0.05432 0.86535 0.93708 0.0
H239 H 0.06009 0.81909 0.95943 0.0
O240 O 0.07415 0.79185 0.91389 0.0
O241 O 0.04392 0.80621 0.91703 0.0
O242 O 0.02727 0.75372 0.93211 0.0
O243 O 0.01791 0.78278 0.94582 0.0
C244 C 0.07567 0.91536 0.93844 0.0
C245 C 0.06078 0.91493 0.925 0.0
H246 H 0.02865 0.90582 0.89894 0.0
H247 H 0.99623 0.85924 0.88788 0.0
H248 H 0.09455 0.86246 0.97277 0.0
H249 H 0.10222 0.90809 0.96353 0.0
H250 H 0.08903 0.93501 0.94415 0.0
H251 H 0.06341 0.9343 0.92042 0.0
Mn252 Mn 0.29369 0.29733 0.91014 0.0
Mn253 Mn 0.2515 0.24158 0.93224 0.0
C254 C 0.25036 0.28995 0.9174 0.0
C255 C 0.31091 0.31662 0.88572 0.0
C256 C 0.29978 0.29412 0.94549 0.0
O257 O 0.31155 0.27315 0.90833 0.0
O258 O 0.28113 0.23653 0.92269 0.0
C259 C 0.22692 0.2004 0.90667 0.0
N260 N 0.22367 0.21355 0.91924 0.0
C261 C 0.17397 0.18434 0.91836 0.0
C262 C 0.17674 0.17039 0.90543 0.0
C263 C 0.20334 0.17861 0.89949 0.0
C264 C 0.19819 0.20628 0.9248 0.0
H265 H 0.24737 0.20641 0.90222 0.0
C266 C 0.30289 0.24918 0.91423 0.0
O267 O 0.32504 0.32781 0.89837 0.0
O268 O 0.28688 0.29426 0.88727 0.0
N269 N 0.22146 0.24281 0.94236 0.0
C270 C 0.22241 0.25893 0.95461 0.0
C271 C 0.19752 0.25369 0.9618 0.0
C272 C 0.17205 0.23147 0.95661 0.0
C273 C 0.17163 0.21501 0.94407 0.0
C274 C 0.19703 0.22156 0.93718 0.0
H275 H 0.24201 0.27553 0.9589 0.0
O276 O 0.26978 0.31427 0.91285 0.0
O277 O 0.25644 0.27013 0.91701 0.0
O278 O 0.30767 0.30784 0.93274 0.0
O279 O 0.27923 0.26937 0.94654 0.0
C280 C 0.14709 0.19211 0.93824 0.0
C281 C 0.1482 0.17712 0.92523 0.0
H282 H 0.15861 0.15333 0.89999 0.0
H283 H 0.20566 0.16797 0.88951 0.0
H284 H 0.198 0.26643 0.97149 0.0
H285 H 0.15297 0.22721 0.9624 0.0
H286 H 0.1272 0.18578 0.94367 0.0
H287 H 0.12912 0.15991 0.92069 0.0
Mn288 Mn 0.76073 0.02486 0.90934 0.0
Mn289 Mn 0.81694 0.03891 0.93118 0.0
C290 C 0.76845 0.98919 0.91658 0.0
C291 C 0.7405 0.02205 0.88513 0.0
C292 C 0.76424 0.0334 0.94479 0.0
O293 O 0.78467 0.06693 0.90733 0.0
O294 O 0.82105 0.07349 0.92201 0.0
C295 C 0.85756 0.05686 0.90525 0.0
N296 N 0.84495 0.04005 0.91776 0.0
C297 C 0.87478 0.02036 0.91604 0.0
C298 C 0.88819 0.03753 0.90317 0.0
C299 C 0.87938 0.0557 0.89767 0.0
C300 C 0.85274 0.02198 0.92288 0.0
H301 H 0.85112 0.07115 0.90113 0.0
C302 C 0.80841 0.08247 0.91344 0.0
O303 O 0.72974 0.02523 0.89789 0.0
O304 O 0.76313 0.0208 0.88643 0.0
N305 N 0.81679 0.00787 0.94092 0.0
C306 C 0.80152 0.99259 0.95338 0.0
C307 C 0.80756 0.97326 0.96024 0.0
C308 C 0.82977 0.97048 0.95455 0.0
C309 C 0.84542 0.98668 0.94183 0.0
C310 C 0.83807 0.00519 0.93528 0.0
H311 H 0.78495 0.99526 0.95808 0.0
O312 O 0.74403 0.98412 0.91214 0.0
O313 O 0.78826 0.01511 0.91603 0.0
O314 O 0.75065 0.02826 0.93203 0.0
O315 O 0.78901 0.03769 0.94581 0.0
C316 C 0.86838 0.98564 0.93557 0.0
C317 C 0.88271 0.00207 0.92252 0.0
H318 H 0.90529 0.03697 0.89744 0.0
H319 H 0.8896 0.06901 0.88774 0.0
H320 H 0.79547 0.96091 0.97009 0.0
H321 H 0.83472 0.95599 0.96013 0.0
H322 H 0.87543 0.97248 0.94075 0.0
H323 H 0.90004 0.00076 0.91769 0.0
Mn324 Mn 0.76128 0.02964 0.08866 0.0
Mn325 Mn 0.80578 0.01969 0.06659 0.0
C326 C 0.80262 0.06761 0.08061 0.0
C327 C 0.74549 0.03219 0.11338 0.0
C328 C 0.75277 0.01561 0.05406 0.0
O329 O 0.74749 0.98824 0.09119 0.0
O330 O 0.78142 0.98521 0.07839 0.0
C331 C 0.83905 0.01373 0.0917 0.0
N332 N 0.83766 0.02702 0.07865 0.0
C333 C 0.88689 0.05916 0.07942 0.0
C334 C 0.88891 0.04567 0.09279 0.0
C335 C 0.86488 0.02285 0.09894 0.0
C336 C 0.86065 0.04887 0.07257 0.0
H337 H 0.82056 0.9964 0.09658 0.0
C338 C 0.75935 0.97485 0.08672 0.0
O339 O 0.7294 0.02614 0.10125 0.0
O340 O 0.77021 0.03596 0.11116 0.0
N341 N 0.83062 0.05164 0.05462 0.0
C342 C 0.82488 0.06323 0.04216 0.0
C343 C 0.84659 0.08668 0.03485 0.0
C344 C 0.8739 0.09796 0.04044 0.0
C345 C 0.87927 0.08545 0.05317 0.0
C346 C 0.85693 0.06179 0.05978 0.0
H347 H 0.8039 0.05481 0.0379 0.0
O348 O 0.78208 0.07076 0.08515 0.0
O349 O 0.79842 0.04239 0.08118 0.0
O350 O 0.74566 0.02341 0.06638 0.0
O351 O 0.77393 0.01237 0.05319 0.0
C352 C 0.90576 0.09608 0.05988 0.0
C353 C 0.90968 0.08295 0.07294 0.0
H354 H 0.90874 0.05288 0.09853 0.0
H355 H 0.86623 0.01245 0.10932 0.0
H356 H 0.84224 0.09622 0.02504 0.0
H357 H 0.89054 0.11638 0.03497 0.0
H358 H 0.92303 0.11478 0.05529 0.0
H359 H 0.93018 0.09165 0.07809 0.0
Mn360 Mn 0.02783 0.7603 0.08933 0.0
Mn361 Mn 0.04075 0.81584 0.06719 0.0
C362 C 0.99153 0.76702 0.0819 0.0
C363 C 0.02531 0.74091 0.11379 0.0
C364 C 0.03717 0.76359 0.05402 0.0
O365 O 0.06989 0.78493 0.09122 0.0
O366 O 0.07548 0.82143 0.07695 0.0
C367 C 0.05637 0.85694 0.09273 0.0
N368 N 0.04027 0.84362 0.08009 0.0
C369 C 0.01922 0.87233 0.08063 0.0
C370 C 0.03561 0.88644 0.09363 0.0
C371 C 0.05411 0.87856 0.09978 0.0
C372 C 0.02192 0.85055 0.07433 0.0
H373 H 0.07092 0.85121 0.09733 0.0
C374 C 0.08488 0.80909 0.08544 0.0
O375 O 0.02879 0.72994 0.1012 0.0
O376 O 0.02372 0.76329 0.11217 0.0
N377 N 0.00941 0.81406 0.05685 0.0
C378 C 0.99466 0.79787 0.04452 0.0
C379 C 0.97512 0.80291 0.03704 0.0
C380 C 0.9715 0.82498 0.04205 0.0
C381 C 0.98702 0.84145 0.05473 0.0
C382 C 0.00584 0.83514 0.06188 0.0
H383 H 0.99798 0.78141 0.04034 0.0
O384 O 0.98696 0.74285 0.08651 0.0
O385 O 0.0173 0.78712 0.08236 0.0
O386 O 0.03147 0.74983 0.06675 0.0
O387 O 0.04124 0.78827 0.05296 0.0
C388 C 0.98489 0.86413 0.06044 0.0
C389 C 0.00059 0.87923 0.07354 0.0
H390 H 0.03419 0.90338 0.09897 0.0
H391 H 0.06682 0.88933 0.10982 0.0
H392 H 0.96324 0.79015 0.02726 0.0
H393 H 0.95681 0.82913 0.03602 0.0
H394 H 0.97119 0.87015 0.05487 0.0
H395 H 0.99836 0.89628 0.07798 0.0
Mn396 Mn 0.29429 0.29676 0.08818 0.0
Mn397 Mn 0.24513 0.25672 0.06185 0.0
C398 C 0.29009 0.25499 0.08014 0.0
C399 C 0.30782 0.31011 0.11393 0.0
C400 C 0.29917 0.30789 0.05302 0.0
O401 O 0.26838 0.31277 0.08858 0.0
O402 O 0.23639 0.28415 0.07115 0.0
C403 C 0.19773 0.22693 0.08354 0.0
N404 N 0.21471 0.22635 0.07225 0.0
C405 C 0.1878 0.17649 0.07061 0.0
C406 C 0.16993 0.1765 0.08219 0.0
C407 C 0.17504 0.20183 0.08875 0.0
C408 C 0.21031 0.20209 0.06607 0.0
H409 H 0.20139 0.2464 0.08844 0.0
C410 C 0.24608 0.3045 0.08077 0.0
O411 O 0.32094 0.32675 0.10239 0.0
O412 O 0.28656 0.28612 0.11051 0.0
N413 N 0.25066 0.22916 0.05177 0.0
C414 C 0.27049 0.23272 0.04117 0.0
C415 C 0.26893 0.20936 0.03385 0.0
C416 C 0.24666 0.18269 0.0372 0.0
C417 C 0.22632 0.17962 0.048 0.0
C418 C 0.22924 0.20359 0.05514 0.0
H419 H 0.28734 0.25321 0.03834 0.0
O420 O 0.31307 0.2743 0.08626 0.0
O421 O 0.2699 0.26042 0.07915 0.0
O422 O 0.30964 0.31454 0.06669 0.0
O423 O 0.27547 0.28688 0.05004 0.0
C424 C 0.20315 0.15374 0.05189 0.0
C425 C 0.18406 0.15212 0.06331 0.0
H426 H 0.15226 0.15721 0.08613 0.0
H427 H 0.16137 0.20202 0.0977 0.0
H428 H 0.28468 0.21192 0.0255 0.0
H429 H 0.24536 0.16476 0.03139 0.0
H430 H 0.19984 0.13492 0.04619 0.0
H431 H 0.16657 0.13203 0.06637 0.0
Mn432 Mn 0.69286 0.62936 0.42278 0.0
Mn433 Mn 0.70304 0.5852 0.40054 0.0
C434 C 0.65499 0.58779 0.4148 0.0
C435 C 0.69083 0.64515 0.44765 0.0
C436 C 0.70675 0.63818 0.38818 0.0
O437 O 0.73437 0.64342 0.42511 0.0
O438 O 0.73729 0.60915 0.41262 0.0
C439 C 0.7086 0.55121 0.42536 0.0
N440 N 0.69551 0.55298 0.41232 0.0
C441 C 0.66359 0.50368 0.41252 0.0
C442 C 0.67686 0.50128 0.42587 0.0
C443 C 0.69947 0.52516 0.43232 0.0
C444 C 0.67386 0.53014 0.40596 0.0
H445 H 0.72578 0.56956 0.43045 0.0
C446 C 0.74767 0.63132 0.42087 0.0
O447 O 0.69637 0.66115 0.43551 0.0
O448 O 0.68706 0.62046 0.44531 0.0
N449 N 0.67123 0.56069 0.38836 0.0
C450 C 0.65975 0.56677 0.37597 0.0
C451 C 0.6365 0.54524 0.36841 0.0
C452 C 0.62531 0.51775 0.37366 0.0
C453 C 0.63766 0.51203 0.38633 0.0
C454 C 0.66111 0.53421 0.39321 0.0
H455 H 0.66813 0.58788 0.37194 0.0
O456 O 0.65162 0.60814 0.41947 0.0
O457 O 0.68032 0.59232 0.41522 0.0
O458 O 0.69858 0.64494 0.4005 0.0
O459 O 0.71059 0.61738 0.38736 0.0
C460 C 0.62709 0.48529 0.3927 0.0
C461 C 0.64003 0.48103 0.40575 0.0
H462 H 0.66965 0.48126 0.43139 0.0
H463 H 0.7097 0.52351 0.44269 0.0
H464 H 0.62708 0.54987 0.35865 0.0
H465 H 0.60707 0.50123 0.36798 0.0
H466 H 0.60858 0.46808 0.38786 0.0
H467 H 0.63138 0.46038 0.41067 0.0
Mn468 Mn 0.42903 0.09286 0.4245 0.0
Mn469 Mn 0.46984 0.1482 0.4018 0.0
C470 C 0.47122 0.09941 0.41558 0.0
C471 C 0.41444 0.07309 0.44909 0.0
C472 C 0.42042 0.09597 0.38934 0.0
O473 O 0.4121 0.11765 0.42768 0.0
O474 O 0.44054 0.15304 0.41197 0.0
C475 C 0.49543 0.18929 0.42734 0.0
N476 N 0.49819 0.1762 0.41459 0.0
C477 C 0.54791 0.20533 0.41496 0.0
C478 C 0.54564 0.21922 0.42807 0.0
C479 C 0.51928 0.211 0.43436 0.0
C480 C 0.52345 0.18345 0.40869 0.0
H481 H 0.47517 0.1833 0.43207 0.0
C482 C 0.41994 0.14112 0.42132 0.0
O483 O 0.39845 0.06272 0.43695 0.0
O484 O 0.43847 0.09518 0.44699 0.0
N485 N 0.49949 0.14721 0.39105 0.0
C486 C 0.49806 0.13141 0.37852 0.0
C487 C 0.52266 0.13677 0.37092 0.0
C488 C 0.54834 0.1588 0.37598 0.0
C489 C 0.54927 0.17499 0.38881 0.0
C490 C 0.52413 0.16832 0.39609 0.0
H491 H 0.47829 0.11495 0.37432 0.0
O492 O 0.45186 0.07516 0.42025 0.0
O493 O 0.46576 0.11959 0.41672 0.0
O494 O 0.41278 0.08283 0.40229 0.0
O495 O 0.44152 0.12028 0.3878 0.0
C496 C 0.57403 0.19779 0.39449 0.0
C497 C 0.57342 0.21262 0.40772 0.0
H498 H 0.56398 0.23623 0.43338 0.0
H499 H 0.51734 0.22159 0.44448 0.0
H500 H 0.52178 0.12426 0.361 0.0
H501 H 0.56717 0.16319 0.36986 0.0
H502 H 0.59368 0.20432 0.38873 0.0
H503 H 0.59266 0.22981 0.4121 0.0
Mn504 Mn 0.96146 0.36313 0.42122 0.0
Mn505 Mn 0.90824 0.35061 0.39723 0.0
C506 C 0.95682 0.39971 0.41193 0.0
C507 C 0.97914 0.36729 0.44633 0.0
C508 C 0.96053 0.3522 0.38606 0.0
O509 O 0.9355 0.32155 0.42406 0.0
O510 O 0.90179 0.31582 0.40732 0.0
C511 C 0.86546 0.33525 0.42177 0.0
N512 N 0.87971 0.35132 0.40931 0.0
C513 C 0.85133 0.37272 0.40878 0.0
C514 C 0.83626 0.35637 0.42158 0.0
C515 C 0.84352 0.33771 0.42819 0.0
C516 C 0.8734 0.36984 0.40313 0.0
H517 H 0.8707 0.32058 0.42672 0.0
C518 C 0.91254 0.30647 0.41705 0.0
O519 O 0.99015 0.36154 0.43454 0.0
O520 O 0.95767 0.36997 0.44356 0.0
N521 N 0.91086 0.38197 0.38645 0.0
C522 C 0.92786 0.3966 0.37436 0.0
C523 C 0.92363 0.41642 0.36656 0.0
C524 C 0.90149 0.42038 0.37097 0.0
C525 C 0.88408 0.40485 0.38336 0.0
C526 C 0.88968 0.38584 0.3909 0.0
H527 H 0.9444 0.39303 0.37065 0.0
O528 O 0.98049 0.4038 0.41716 0.0
O529 O 0.93607 0.3743 0.41273 0.0
O530 O 0.9727 0.35691 0.3993 0.0
O531 O 0.93672 0.34989 0.38395 0.0
C532 C 0.86111 0.40712 0.38837 0.0
C533 C 0.84506 0.39146 0.40124 0.0
H534 H 0.81907 0.35793 0.42642 0.0
H535 H 0.83202 0.32502 0.43808 0.0
H536 H 0.9371 0.42827 0.35699 0.0
H537 H 0.898 0.43533 0.36473 0.0
H538 H 0.85558 0.42089 0.38244 0.0
H539 H 0.82779 0.39379 0.40514 0.0
Mn540 Mn 0.96369 0.36076 0.2426 0.0
Mn541 Mn 0.92319 0.37497 0.26581 0.0
C542 C 0.92028 0.32528 0.25012 0.0
C543 C 0.97944 0.35833 0.21777 0.0
C544 C 0.97097 0.3688 0.27797 0.0
O545 O 0.98261 0.40304 0.2413 0.0
O546 O 0.95303 0.40952 0.2563 0.0
C547 C 0.89846 0.39298 0.24104 0.0
N548 N 0.89528 0.37616 0.25338 0.0
C549 C 0.84565 0.35642 0.25304 0.0
C550 C 0.84835 0.37358 0.24035 0.0
C551 C 0.87487 0.39179 0.23425 0.0
C552 C 0.86985 0.35812 0.2591 0.0
H553 H 0.91885 0.40727 0.23648 0.0
C554 C 0.97454 0.41853 0.24763 0.0
O555 O 0.99405 0.36084 0.23016 0.0
O556 O 0.956 0.35771 0.21981 0.0
N557 N 0.89313 0.34388 0.27603 0.0
C558 C 0.89414 0.32841 0.28809 0.0
C559 C 0.86937 0.30906 0.2955 0.0
C560 C 0.84395 0.30635 0.2907 0.0
C561 C 0.84344 0.32263 0.27831 0.0
C562 C 0.86874 0.34127 0.27124 0.0
H563 H 0.91373 0.33098 0.2921 0.0
O564 O 0.93907 0.31994 0.245 0.0
O565 O 0.92693 0.35136 0.25008 0.0
O566 O 0.97822 0.36306 0.26497 0.0
O567 O 0.951 0.37375 0.27952 0.0
C568 C 0.81892 0.32146 0.27283 0.0
C569 C 0.81996 0.33797 0.26004 0.0
H570 H 0.83022 0.37296 0.23521 0.0
H571 H 0.87713 0.40509 0.22446 0.0
H572 H 0.86992 0.29662 0.30507 0.0
H573 H 0.82501 0.29184 0.2967 0.0
H574 H 0.79913 0.30804 0.27839 0.0
H575 H 0.8009 0.33653 0.2558 0.0
Mn576 Mn 0.69813 0.63061 0.24353 0.0
Mn577 Mn 0.68956 0.57729 0.26632 0.0
C578 C 0.73619 0.62603 0.24965 0.0
C579 C 0.6969 0.64758 0.2189 0.0
C580 C 0.69066 0.62882 0.27888 0.0
O581 O 0.65621 0.60417 0.24309 0.0
O582 O 0.65347 0.56814 0.25674 0.0
C583 C 0.67649 0.53531 0.24157 0.0
N584 N 0.69265 0.55051 0.2538 0.0
C585 C 0.72216 0.53058 0.25101 0.0
C586 C 0.7057 0.51452 0.23848 0.0
C587 C 0.68275 0.51689 0.23374 0.0
C588 C 0.71468 0.5483 0.2585 0.0
H589 H 0.65904 0.53734 0.23777 0.0
C590 C 0.6426 0.57965 0.24866 0.0
O591 O 0.69424 0.65913 0.23148 0.0
O592 O 0.6999 0.62603 0.22065 0.0
N593 N 0.72285 0.58324 0.27634 0.0
C594 C 0.73716 0.60089 0.28829 0.0
C595 C 0.76093 0.60137 0.29427 0.0
C596 C 0.7697 0.58371 0.28792 0.0
C597 C 0.75433 0.56543 0.2758 0.0
C598 C 0.7305 0.56543 0.27055 0.0
H599 H 0.73065 0.61466 0.29313 0.0
O600 O 0.73952 0.64965 0.24485 0.0
O601 O 0.71063 0.60557 0.25039 0.0
O602 O 0.6963 0.64231 0.26607 0.0
O603 O 0.68676 0.60421 0.28011 0.0
C604 C 0.76223 0.54785 0.2684 0.0
C605 C 0.74616 0.53034 0.25607 0.0
H606 H 0.71066 0.50053 0.23229 0.0
H607 H 0.67006 0.50471 0.22401 0.0
H608 H 0.77265 0.61553 0.30363 0.0
H609 H 0.78837 0.58454 0.29234 0.0
H610 H 0.78105 0.54828 0.27185 0.0
H611 H 0.75274 0.51716 0.25039 0.0
Mn612 Mn 0.42487 0.09526 0.24686 0.0
Mn613 Mn 0.47711 0.13524 0.27159 0.0
C614 C 0.42975 0.13676 0.2559 0.0
C615 C 0.4085 0.08207 0.22148 0.0
C616 C 0.42472 0.08314 0.28164 0.0
O617 O 0.45121 0.07997 0.24448 0.0
O618 O 0.48599 0.10945 0.26035 0.0
C619 C 0.52183 0.16764 0.24875 0.0
N620 N 0.50567 0.16683 0.26093 0.0
C621 C 0.53148 0.21658 0.26358 0.0
C622 C 0.54848 0.21801 0.25108 0.0
C623 C 0.54349 0.19343 0.24356 0.0
C624 C 0.50995 0.19036 0.26805 0.0
H625 H 0.51831 0.14875 0.24311 0.0
C626 C 0.47505 0.0891 0.25073 0.0
O627 O 0.39683 0.06524 0.23316 0.0
O628 O 0.42984 0.10621 0.22452 0.0
N629 N 0.4714 0.16136 0.28321 0.0
C630 C 0.45212 0.15647 0.29446 0.0
C631 C 0.45331 0.17898 0.30262 0.0
C632 C 0.47465 0.20619 0.29936 0.0
C633 C 0.4944 0.21064 0.28783 0.0
C634 C 0.49182 0.18746 0.27987 0.0
H635 H 0.43597 0.13556 0.29719 0.0
O636 O 0.40609 0.11736 0.25049 0.0
O637 O 0.45007 0.13146 0.25564 0.0
O638 O 0.41216 0.07722 0.26852 0.0
O639 O 0.44899 0.10385 0.28382 0.0
C640 C 0.51664 0.23713 0.28398 0.0
C641 C 0.53511 0.24013 0.27181 0.0
H642 H 0.56537 0.23784 0.24714 0.0
H643 H 0.55649 0.19435 0.2339 0.0
H644 H 0.43801 0.17536 0.31151 0.0
H645 H 0.47566 0.22349 0.30576 0.0
H646 H 0.51955 0.25542 0.29016 0.0
H647 H 0.55187 0.26068 0.26879 0.0
Mn648 Mn 0.70527 0.10254 0.24197 0.0
Mn649 Mn 0.69574 0.14792 0.26322 0.0
C650 C 0.74359 0.14426 0.24933 0.0
C651 C 0.70614 0.08533 0.21739 0.0
C652 C 0.69049 0.09451 0.27618 0.0
O653 O 0.66363 0.08846 0.2403 0.0
O654 O 0.66193 0.12506 0.25052 0.0
C655 C 0.69301 0.1833 0.23824 0.0
N656 N 0.70507 0.1807 0.2515 0.0
C657 C 0.73815 0.22973 0.25186 0.0
C658 C 0.72595 0.23298 0.23827 0.0
C659 C 0.70328 0.20966 0.23144 0.0
C660 C 0.72676 0.20301 0.25824 0.0
H661 H 0.67579 0.16537 0.23285 0.0
C662 C 0.65096 0.10176 0.2433 0.0
O663 O 0.70094 0.06996 0.22977 0.0
O664 O 0.71021 0.11024 0.21931 0.0
N665 N 0.72728 0.17138 0.27589 0.0
C666 C 0.73774 0.16447 0.28843 0.0
C667 C 0.76099 0.18533 0.29634 0.0
C668 C 0.77324 0.21303 0.29128 0.0
C669 C 0.76194 0.21962 0.27844 0.0
C670 C 0.73845 0.19808 0.2712 0.0
H671 H 0.72855 0.14322 0.29234 0.0
O672 O 0.74666 0.12366 0.2448 0.0
O673 O 0.71833 0.1399 0.24898 0.0
O674 O 0.70013 0.08811 0.26438 0.0
O675 O 0.68616 0.11506 0.27645 0.0
C676 C 0.77363 0.2466 0.27224 0.0
C677 C 0.76174 0.25174 0.25901 0.0
H678 H 0.73405 0.25322 0.23288 0.0
H679 H 0.69387 0.21196 0.22089 0.0
H680 H 0.7696 0.18003 0.30622 0.0
H681 H 0.79148 0.22901 0.29722 0.0
H682 H 0.79223 0.26328 0.27736 0.0
H683 H 0.77126 0.27257 0.25422 0.0
Mn684 Mn 0.95718 0.62996 0.24262 0.0
Mn685 Mn 0.91535 0.57527 0.26554 0.0
C686 C 0.91328 0.62185 0.24911 0.0
C687 C 0.97497 0.64887 0.21819 0.0
C688 C 0.96098 0.62958 0.27837 0.0
O689 O 0.97613 0.60672 0.24182 0.0
O690 O 0.94733 0.57215 0.25782 0.0
C691 C 0.89556 0.53267 0.24059 0.0
N692 N 0.88998 0.54558 0.2524 0.0
C693 C 0.84087 0.51369 0.25024 0.0
C694 C 0.84606 0.49996 0.23809 0.0
C695 C 0.87353 0.50964 0.23316 0.0
C696 C 0.86361 0.53691 0.25695 0.0
H697 H 0.91668 0.53979 0.23693 0.0
C698 C 0.96884 0.58416 0.24911 0.0
O699 O 0.9885 0.66053 0.23093 0.0
O700 O 0.95127 0.62607 0.21963 0.0
N701 N 0.88319 0.5744 0.27415 0.0
C702 C 0.88179 0.58997 0.28605 0.0
C703 C 0.85582 0.58292 0.29245 0.0
C704 C 0.83169 0.55949 0.28689 0.0
C705 C 0.83363 0.54364 0.2747 0.0
C706 C 0.86004 0.5519 0.26865 0.0
H707 H 0.90038 0.60746 0.29071 0.0
O708 O 0.93247 0.6461 0.24434 0.0
O709 O 0.91983 0.60233 0.24937 0.0
O710 O 0.97031 0.64178 0.26529 0.0
O711 O 0.94036 0.605 0.27984 0.0
C712 C 0.81054 0.51965 0.26854 0.0
C713 C 0.81408 0.50498 0.25614 0.0
H714 H 0.82914 0.48194 0.23248 0.0
H715 H 0.87772 0.49917 0.22378 0.0
H716 H 0.85447 0.59517 0.30189 0.0
H717 H 0.81184 0.55371 0.29221 0.0
H718 H 0.78992 0.51211 0.27328 0.0
H719 H 0.79612 0.4868 0.25138 0.0
Mn720 Mn 0.42259 0.35179 0.24132 0.0
Mn721 Mn 0.48129 0.36271 0.25935 0.0
C722 C 0.4272 0.31413 0.24845 0.0
C723 C 0.39938 0.34803 0.21805 0.0
C724 C 0.4348 0.36624 0.27588 0.0
O725 O 0.44918 0.3932 0.23789 0.0
O726 O 0.48805 0.39707 0.24855 0.0
C727 C 0.51472 0.37011 0.23098 0.0
N728 N 0.50356 0.3566 0.24468 0.0
C729 C 0.5225 0.32647 0.2408 0.0
C730 C 0.53442 0.34021 0.22673 0.0
C731 C 0.5305 0.36213 0.2218 0.0
C732 C 0.50725 0.33554 0.24955 0.0
H733 H 0.5115 0.38675 0.22707 0.0
C734 C 0.47494 0.40706 0.24126 0.0
O735 O 0.39185 0.35474 0.23096 0.0
O736 O 0.42059 0.34433 0.21863 0.0
N737 N 0.4783 0.33134 0.27032 0.0
C738 C 0.46475 0.31974 0.28395 0.0
C739 C 0.46624 0.29725 0.29036 0.0
C740 C 0.48173 0.28705 0.28275 0.0
C741 C 0.49597 0.29975 0.26892 0.0
C742 C 0.49414 0.32238 0.26323 0.0
H743 H 0.45268 0.32741 0.28979 0.0
O744 O 0.4029 0.31094 0.24543 0.0
O745 O 0.44825 0.33919 0.24672 0.0
O746 O 0.41802 0.35919 0.26433 0.0
O747 O 0.45898 0.36879 0.27518 0.0
C748 C 0.5112 0.29031 0.26028 0.0
C749 C 0.52454 0.30366 0.24627 0.0
H750 H 0.54638 0.33393 0.21954 0.0
H751 H 0.53947 0.37272 0.2109 0.0
H752 H 0.45523 0.28761 0.30106 0.0
H753 H 0.48234 0.26933 0.28756 0.0
H754 H 0.51221 0.27237 0.26406 0.0
H755 H 0.53592 0.29594 0.23969 0.0
Mn756 Mn 0.43601 0.3702 0.42209 0.0
Mn757 Mn 0.47752 0.35571 0.39996 0.0
C758 C 0.4794 0.40572 0.41463 0.0
C759 C 0.41926 0.37293 0.44656 0.0
C760 C 0.42989 0.36098 0.38675 0.0
O761 O 0.41758 0.32811 0.42399 0.0
O762 O 0.44755 0.32128 0.40959 0.0
C763 C 0.50182 0.33895 0.4256 0.0
N764 N 0.50521 0.35526 0.41296 0.0
C765 C 0.55488 0.3755 0.41389 0.0
C766 C 0.55197 0.35887 0.42689 0.0
C767 C 0.52532 0.34066 0.43283 0.0
C768 C 0.53075 0.3733 0.40738 0.0
H769 H 0.48134 0.32467 0.43005 0.0
C770 C 0.42588 0.31249 0.41812 0.0
O771 O 0.40504 0.36999 0.43395 0.0
O772 O 0.44304 0.37408 0.44495 0.0
N773 N 0.50772 0.3866 0.3897 0.0
C774 C 0.5069 0.40152 0.37728 0.0
C775 C 0.53179 0.42072 0.36994 0.0
C776 C 0.55717 0.42385 0.37517 0.0
C777 C 0.5575 0.40818 0.38795 0.0
C778 C 0.53206 0.38962 0.39491 0.0
H779 H 0.48736 0.39862 0.37294 0.0
O780 O 0.46028 0.41097 0.41929 0.0
O781 O 0.47306 0.37974 0.41511 0.0
O782 O 0.42202 0.36689 0.39949 0.0
O783 O 0.45007 0.35626 0.38569 0.0
C784 C 0.58197 0.40987 0.3939 0.0
C785 C 0.58072 0.39391 0.40702 0.0
H786 H 0.57003 0.35989 0.43238 0.0
H787 H 0.5229 0.32778 0.44287 0.0
H788 H 0.53138 0.4327 0.36007 0.0
H789 H 0.57621 0.4382 0.3692 0.0
H790 H 0.60189 0.42326 0.38847 0.0
H791 H 0.59974 0.39574 0.41162 0.0
Mn792 Mn 0.68429 0.087 0.42097 0.0
Mn793 Mn 0.69425 0.14181 0.39941 0.0
C794 C 0.64666 0.09262 0.41532 0.0
C795 C 0.68623 0.06982 0.44537 0.0
C796 C 0.69427 0.09109 0.38618 0.0
O797 O 0.72638 0.11282 0.42099 0.0
O798 O 0.72925 0.15154 0.41056 0.0
C799 C 0.70277 0.18245 0.42421 0.0
N800 N 0.68842 0.16734 0.4115 0.0
C801 C 0.65786 0.18632 0.41237 0.0
C802 C 0.67243 0.20225 0.42541 0.0
C803 C 0.69497 0.20029 0.43136 0.0
C804 C 0.66679 0.16915 0.40563 0.0
H805 H 0.71996 0.18081 0.42888 0.0
C806 C 0.73988 0.13855 0.4174 0.0
O807 O 0.68799 0.05801 0.43265 0.0
O808 O 0.6834 0.09151 0.44388 0.0
N809 N 0.66171 0.13487 0.38809 0.0
C810 C 0.6489 0.11699 0.37598 0.0
C811 C 0.62544 0.11575 0.369 0.0
C812 C 0.61545 0.13294 0.37451 0.0
C813 C 0.62922 0.15139 0.38684 0.0
C814 C 0.65273 0.15204 0.39319 0.0
H815 H 0.65637 0.10365 0.37172 0.0
O816 O 0.64279 0.06872 0.41999 0.0
O817 O 0.67239 0.11262 0.41462 0.0
O818 O 0.68538 0.07578 0.3983 0.0
O819 O 0.70016 0.11646 0.38582 0.0
C820 C 0.62 0.16856 0.39338 0.0
C821 C 0.63432 0.18613 0.40609 0.0
H822 H 0.66629 0.21581 0.43106 0.0
H823 H 0.70621 0.21239 0.44148 0.0
H824 H 0.61496 0.10145 0.35948 0.0
H825 H 0.59708 0.13164 0.36926 0.0
H826 H 0.60146 0.16773 0.38893 0.0
H827 H 0.6267 0.19893 0.41115 0.0
Mn828 Mn 0.96841 0.62428 0.42238 0.0
Mn829 Mn 0.9123 0.57748 0.40242 0.0
C830 C 0.96553 0.58295 0.41455 0.0
C831 C 0.98855 0.64181 0.44659 0.0
C832 C 0.9581 0.63155 0.38856 0.0
O833 O 0.93993 0.63698 0.42539 0.0
O834 O 0.90145 0.59947 0.41594 0.0
C835 C 0.87681 0.54123 0.42798 0.0
N836 N 0.8906 0.54441 0.4143 0.0
C837 C 0.87576 0.49565 0.41339 0.0
C838 C 0.86121 0.49179 0.4274 0.0
C839 C 0.86175 0.5147 0.43473 0.0
C840 C 0.89008 0.5225 0.40709 0.0
H841 H 0.87741 0.55882 0.43372 0.0
C842 C 0.91371 0.6228 0.42314 0.0
O843 O 0.99718 0.65731 0.43416 0.0
O844 O 0.96801 0.61667 0.44496 0.0
N845 N 0.92043 0.55484 0.38906 0.0
C846 C 0.93711 0.56238 0.37619 0.0
C847 C 0.93977 0.54207 0.36785 0.0
C848 C 0.92531 0.51428 0.37283 0.0
C849 C 0.90811 0.50703 0.38603 0.0
C850 C 0.90588 0.52804 0.39372 0.0
H851 H 0.94844 0.58371 0.37234 0.0
O852 O 0.98937 0.60406 0.41841 0.0
O853 O 0.94433 0.58668 0.4157 0.0
O854 O 0.97526 0.63866 0.39987 0.0
O855 O 0.93354 0.61048 0.38897 0.0
C856 C 0.89388 0.47993 0.39214 0.0
C857 C 0.87754 0.47413 0.40574 0.0
H858 H 0.84988 0.47143 0.43276 0.0
H859 H 0.85073 0.51193 0.44561 0.0
H860 H 0.95313 0.54787 0.35769 0.0
H861 H 0.92776 0.49871 0.36653 0.0
H862 H 0.89621 0.46373 0.3867 0.0
H863 H 0.86708 0.45325 0.41047 0.0
Mn864 Mn 0.35531 0.96091 0.7577 0.0
Mn865 Mn 0.36401 0.91478 0.7368 0.0
C866 C 0.31672 0.91841 0.75169 0.0
C867 C 0.35725 0.98017 0.7821 0.0
C868 C 0.36781 0.96723 0.72334 0.0
O869 O 0.39725 0.97569 0.75803 0.0
O870 O 0.3982 0.93787 0.74916 0.0
C871 C 0.36762 0.87976 0.76169 0.0
N872 N 0.35508 0.88218 0.74859 0.0
C873 C 0.32229 0.83307 0.74839 0.0
C874 C 0.33497 0.83 0.76182 0.0
C875 C 0.35774 0.85346 0.7685 0.0
C876 C 0.33327 0.85975 0.74201 0.0
H877 H 0.38497 0.89778 0.76693 0.0
C878 C 0.40968 0.96197 0.75552 0.0
O879 O 0.36006 0.99408 0.76936 0.0
O880 O 0.35346 0.95528 0.78062 0.0
N881 N 0.332 0.89113 0.72448 0.0
C882 C 0.32106 0.89783 0.71208 0.0
C883 C 0.29757 0.87685 0.70441 0.0
C884 C 0.28561 0.84921 0.70952 0.0
C885 C 0.29746 0.84281 0.72218 0.0
C886 C 0.3211 0.86449 0.72922 0.0
H887 H 0.33003 0.91901 0.70809 0.0
O888 O 0.31368 0.939 0.75628 0.0
O889 O 0.34212 0.92317 0.75135 0.0
O890 O 0.35779 0.97349 0.73502 0.0
O891 O 0.37322 0.9474 0.72342 0.0
C892 C 0.28615 0.81588 0.72837 0.0
C893 C 0.29859 0.8109 0.74141 0.0
H894 H 0.32719 0.8098 0.76721 0.0
H895 H 0.36753 0.85129 0.77892 0.0
H896 H 0.28859 0.882 0.69465 0.0
H897 H 0.26722 0.83311 0.70374 0.0
H898 H 0.26738 0.79915 0.72344 0.0
H899 H 0.28937 0.7901 0.7462 0.0
Mn900 Mn 0.09922 0.42848 0.75462 0.0
Mn901 Mn 0.14233 0.48382 0.73249 0.0
C902 C 0.14281 0.43574 0.74816 0.0
C903 C 0.08084 0.40916 0.77886 0.0
C904 C 0.0955 0.4308 0.71899 0.0
O905 O 0.08118 0.45252 0.75574 0.0
O906 O 0.11142 0.48817 0.74078 0.0
C907 C 0.16403 0.52534 0.75802 0.0
N908 N 0.16869 0.51238 0.74585 0.0
C909 C 0.21813 0.54262 0.74785 0.0
C910 C 0.21391 0.55639 0.76037 0.0
C911 C 0.18674 0.54755 0.76556 0.0
C912 C 0.19473 0.52021 0.74105 0.0
H913 H 0.14315 0.51887 0.76187 0.0
C914 C 0.08955 0.47593 0.74919 0.0
O915 O 0.06734 0.39802 0.76603 0.0
O916 O 0.10488 0.4316 0.7776 0.0
N917 N 0.17359 0.48343 0.72345 0.0
C918 C 0.17403 0.46767 0.71138 0.0
C919 C 0.19962 0.47376 0.70479 0.0
C920 C 0.22436 0.49645 0.71039 0.0
C921 C 0.22337 0.51249 0.72277 0.0
C922 C 0.19732 0.50515 0.72902 0.0
H923 H 0.15499 0.45075 0.70672 0.0
O924 O 0.12317 0.41151 0.75267 0.0
O925 O 0.13685 0.45567 0.74816 0.0
O926 O 0.08635 0.41771 0.73185 0.0
O927 O 0.11627 0.45537 0.71789 0.0
C928 C 0.24713 0.53577 0.729 0.0
C929 C 0.24457 0.5505 0.74171 0.0
H930 H 0.23136 0.57379 0.76607 0.0
H931 H 0.1833 0.55805 0.77522 0.0
H932 H 0.20023 0.46134 0.69522 0.0
H933 H 0.24396 0.50144 0.705 0.0
H934 H 0.26752 0.54262 0.72411 0.0
H935 H 0.26304 0.56806 0.74654 0.0
Mn936 Mn 0.62898 0.70151 0.75688 0.0
Mn937 Mn 0.57514 0.69491 0.73519 0.0
C938 C 0.62438 0.73999 0.75222 0.0
C939 C 0.6472 0.69902 0.78089 0.0
C940 C 0.62752 0.70097 0.72098 0.0
O941 O 0.60313 0.65965 0.75662 0.0
O942 O 0.56966 0.65797 0.74112 0.0
C943 C 0.53368 0.67178 0.76072 0.0
N944 N 0.54716 0.69143 0.7495 0.0
C945 C 0.52248 0.71514 0.75652 0.0
C946 C 0.50818 0.69506 0.76807 0.0
C947 C 0.51383 0.67329 0.77018 0.0
C948 C 0.54195 0.71249 0.7474 0.0
H949 H 0.53808 0.65513 0.76249 0.0
C950 C 0.58038 0.64631 0.74916 0.0
O951 O 0.65822 0.69716 0.76788 0.0
O952 O 0.62547 0.70187 0.77991 0.0
N953 N 0.57655 0.72836 0.7284 0.0
C954 C 0.59152 0.74554 0.71643 0.0
C955 C 0.58821 0.76833 0.71273 0.0
C956 C 0.56922 0.77292 0.72119 0.0
C957 C 0.55319 0.7543 0.73302 0.0
C958 C 0.55717 0.73178 0.73605 0.0
H959 H 0.60612 0.74206 0.70989 0.0
O960 O 0.64806 0.7428 0.75644 0.0
O961 O 0.60352 0.71457 0.75134 0.0
O962 O 0.63946 0.70107 0.73378 0.0
O963 O 0.60378 0.69932 0.7201 0.0
C964 C 0.5338 0.75742 0.74212 0.0
C965 C 0.51843 0.73787 0.75384 0.0
H966 H 0.49294 0.69623 0.77544 0.0
H967 H 0.50299 0.65778 0.77912 0.0
H968 H 0.60045 0.78248 0.70349 0.0
H969 H 0.56726 0.79088 0.71854 0.0
H970 H 0.5307 0.7749 0.74035 0.0
H971 H 0.50366 0.74061 0.76078 0.0
Mn972 Mn 0.62331 0.68932 0.57626 0.0
Mn973 Mn 0.57596 0.69804 0.59596 0.0
C974 C 0.58203 0.65058 0.58379 0.0
C975 C 0.64103 0.6873 0.55199 0.0
C976 C 0.62972 0.70609 0.6102 0.0
O977 O 0.6361 0.73055 0.57361 0.0
O978 O 0.5983 0.73125 0.58273 0.0
C979 C 0.54051 0.69761 0.57002 0.0
N980 N 0.54326 0.68681 0.58375 0.0
C981 C 0.49458 0.65251 0.58401 0.0
C982 C 0.49117 0.66342 0.56995 0.0
C983 C 0.51425 0.68607 0.56293 0.0
C984 C 0.52118 0.66515 0.59067 0.0
H985 H 0.55827 0.7148 0.5645 0.0
C986 C 0.62192 0.74257 0.57582 0.0
O987 O 0.65647 0.69388 0.56445 0.0
O988 O 0.61592 0.6827 0.55365 0.0
N989 N 0.55294 0.66703 0.60907 0.0
C990 C 0.56006 0.65782 0.62208 0.0
C991 C 0.53951 0.63471 0.63022 0.0
C992 C 0.5119 0.6213 0.62491 0.0
C993 C 0.50508 0.63132 0.61157 0.0
C994 C 0.5263 0.65473 0.6041 0.0
H995 H 0.58124 0.66789 0.62619 0.0
O996 O 0.60325 0.64809 0.5799 0.0
O997 O 0.58558 0.67547 0.58276 0.0
O998 O 0.63723 0.69636 0.59888 0.0
O999 O 0.60861 0.70951 0.60966 0.0
C1000 C 0.47823 0.61837 0.60511 0.0
C1001 C 0.47288 0.62898 0.59139 0.0
H1002 H 0.47101 0.65433 0.56434 0.0
H1003 H 0.51183 0.69448 0.55202 0.0
H1004 H 0.54498 0.6271 0.64049 0.0
H1005 H 0.49616 0.60317 0.63104 0.0
H1006 H 0.46185 0.59974 0.61039 0.0
H1007 H 0.45219 0.61849 0.58639 0.0
Mn1008 Mn 0.37144 0.96311 0.57835 0.0
Mn1009 Mn 0.3605 0.91045 0.60242 0.0
C1010 C 0.40855 0.95832 0.58652 0.0
C1011 C 0.3737 0.98051 0.55335 0.0
C1012 C 0.36377 0.96334 0.61382 0.0
O1013 O 0.32963 0.93734 0.57649 0.0
O1014 O 0.32502 0.9043 0.59341 0.0
C1015 C 0.34236 0.86688 0.5781 0.0
N1016 N 0.35957 0.88127 0.59017 0.0
C1017 C 0.38025 0.85223 0.58989 0.0
C1018 C 0.36272 0.83701 0.57747 0.0
C1019 C 0.34384 0.84452 0.57148 0.0
C1020 C 0.37826 0.87468 0.59577 0.0
H1021 H 0.32754 0.87234 0.57362 0.0
C1022 C 0.315 0.91478 0.58393 0.0
O1023 O 0.36898 0.99169 0.56544 0.0
O1024 O 0.37649 0.95899 0.55576 0.0
N1025 N 0.39246 0.91276 0.61226 0.0
C1026 C 0.4082 0.92989 0.62406 0.0
C1027 C 0.42817 0.92528 0.63135 0.0
C1028 C 0.43122 0.90268 0.62673 0.0
C1029 C 0.41467 0.88522 0.61461 0.0
C1030 C 0.39542 0.89111 0.60763 0.0
H1031 H 0.40534 0.94679 0.62796 0.0
O1032 O 0.41237 0.98194 0.58137 0.0
O1033 O 0.38302 0.93767 0.58634 0.0
O1034 O 0.36703 0.97495 0.6005 0.0
O1035 O 0.36162 0.9396 0.61589 0.0
C1036 C 0.41618 0.86196 0.60932 0.0
C1037 C 0.39935 0.84578 0.5968 0.0
H1038 H 0.36355 0.81952 0.57248 0.0
H1039 H 0.33024 0.8329 0.5619 0.0
H1040 H 0.44083 0.93879 0.64071 0.0
H1041 H 0.44622 0.89887 0.63265 0.0
H1042 H 0.43018 0.85626 0.6148 0.0
H1043 H 0.40106 0.82825 0.59268 0.0
Mn1044 Mn 0.09467 0.43307 0.57433 0.0
Mn1045 Mn 0.15318 0.47601 0.59414 0.0
C1046 C 0.10193 0.47587 0.58272 0.0
C1047 C 0.07258 0.41649 0.55044 0.0
C1048 C 0.10342 0.42622 0.60882 0.0
O1049 O 0.11918 0.41596 0.57065 0.0
O1050 O 0.15847 0.44829 0.58236 0.0
C1051 C 0.19037 0.50414 0.56731 0.0
N1052 N 0.17853 0.50556 0.58095 0.0
C1053 C 0.20619 0.55543 0.58134 0.0
C1054 C 0.21878 0.55456 0.5673 0.0
C1055 C 0.21066 0.5288 0.56019 0.0
C1056 C 0.18569 0.53022 0.58769 0.0
H1057 H 0.18449 0.48433 0.56196 0.0
C1058 C 0.14461 0.42608 0.57437 0.0
O1059 O 0.06341 0.40144 0.563 0.0
O1060 O 0.09464 0.44076 0.55174 0.0
N1061 N 0.15174 0.50425 0.60616 0.0
C1062 C 0.13676 0.50148 0.61932 0.0
C1063 C 0.14198 0.52531 0.62774 0.0
C1064 C 0.16301 0.55163 0.62277 0.0
C1065 C 0.17819 0.55394 0.60919 0.0
C1066 C 0.1717 0.52952 0.60114 0.0
H1067 H 0.12114 0.48123 0.62343 0.0
O1068 O 0.07727 0.45611 0.5789 0.0
O1069 O 0.122 0.47041 0.5809 0.0
O1070 O 0.08743 0.41873 0.59692 0.0
O1071 O 0.12835 0.44662 0.60879 0.0
C1072 C 0.19976 0.57945 0.60344 0.0
C1073 C 0.2134 0.58026 0.58938 0.0
H1074 H 0.23469 0.57352 0.5619 0.0
H1075 H 0.22026 0.52794 0.54936 0.0
H1076 H 0.1302 0.52337 0.6382 0.0
H1077 H 0.16733 0.56988 0.62949 0.0
H1078 H 0.20609 0.5986 0.60973 0.0
H1079 H 0.22958 0.60007 0.58494 0.0
Mn1080 Mn 0.3668 0.43007 0.57624 0.0
Mn1081 Mn 0.35103 0.47023 0.59874 0.0
C1082 C 0.40176 0.47316 0.58451 0.0
C1083 C 0.37091 0.41472 0.55163 0.0
C1084 C 0.35584 0.42199 0.6114 0.0
O1085 O 0.32482 0.41171 0.57365 0.0
O1086 O 0.31714 0.44068 0.58848 0.0
C1087 C 0.33497 0.49556 0.57334 0.0
N1088 N 0.35087 0.49845 0.58609 0.0
C1089 C 0.3707 0.54809 0.58596 0.0
C1090 C 0.35449 0.5457 0.57286 0.0
C1091 C 0.3367 0.51933 0.56645 0.0
C1092 C 0.36852 0.52374 0.59212 0.0
H1093 H 0.32099 0.47529 0.56853 0.0
C1094 C 0.30884 0.41955 0.57955 0.0
O1095 O 0.36736 0.39983 0.56403 0.0
O1096 O 0.37185 0.43834 0.55353 0.0
N1097 N 0.38147 0.50004 0.60954 0.0
C1098 C 0.39623 0.49877 0.62191 0.0
C1099 C 0.41526 0.52341 0.62957 0.0
C1100 C 0.41835 0.54896 0.62469 0.0
C1101 C 0.40276 0.54972 0.612 0.0
C1102 C 0.38449 0.52456 0.60467 0.0
H1103 H 0.39337 0.47909 0.62596 0.0
O1104 O 0.40737 0.45433 0.57977 0.0
O1105 O 0.37577 0.46669 0.58371 0.0
O1106 O 0.36238 0.41488 0.59862 0.0
O1107 O 0.35109 0.44213 0.6127 0.0
C1108 C 0.40432 0.57436 0.60644 0.0
C1109 C 0.38869 0.57362 0.59328 0.0
H1110 H 0.35551 0.56395 0.56763 0.0
H1111 H 0.32413 0.51729 0.55633 0.0
H1112 H 0.42718 0.52267 0.63937 0.0
H1113 H 0.43268 0.56783 0.63083 0.0
H1114 H 0.41745 0.59404 0.61219 0.0
H1115 H 0.39047 0.59278 0.58896 0.0
Mn1116 Mn 0.6346 0.97264 0.57686 0.0
Mn1117 Mn 0.5905 0.91894 0.59948 0.0
C1118 C 0.59265 0.96872 0.58412 0.0
C1119 C 0.65139 0.98937 0.55201 0.0
C1120 C 0.6432 0.96898 0.61152 0.0
O1121 O 0.64925 0.94552 0.57552 0.0
O1122 O 0.61447 0.90832 0.58773 0.0
C1123 C 0.55649 0.87828 0.57509 0.0
N1124 N 0.55826 0.89366 0.58789 0.0
C1125 C 0.50893 0.87607 0.58764 0.0
C1126 C 0.50652 0.85985 0.57453 0.0
C1127 C 0.53042 0.86096 0.56824 0.0
C1128 C 0.5354 0.89261 0.59411 0.0
H1129 H 0.57486 0.87933 0.57011 0.0
C1130 C 0.63699 0.92012 0.57979 0.0
O1131 O 0.66652 0.00085 0.56434 0.0
O1132 O 0.62671 0.96824 0.55416 0.0
N1133 N 0.56597 0.92663 0.61137 0.0
C1134 C 0.57203 0.94466 0.62351 0.0
C1135 C 0.55049 0.94659 0.63089 0.0
C1136 C 0.52299 0.93001 0.6257 0.0
C1137 C 0.51728 0.91142 0.61329 0.0
C1138 C 0.53948 0.90996 0.60661 0.0
H1139 H 0.59313 0.9576 0.62749 0.0
O1140 O 0.61285 0.99229 0.57918 0.0
O1141 O 0.59746 0.94809 0.58428 0.0
O1142 O 0.64952 0.98371 0.59916 0.0
O1143 O 0.62275 0.94416 0.61249 0.0
C1144 C 0.49055 0.89501 0.60695 0.0
C1145 C 0.48627 0.87723 0.5942 0.0
H1146 H 0.4865 0.84676 0.56909 0.0
H1147 H 0.52877 0.84866 0.55806 0.0
H1148 H 0.5551 0.96101 0.64045 0.0
H1149 H 0.50646 0.93192 0.63121 0.0
H1150 H 0.4734 0.89666 0.61154 0.0
H1151 H 0.46562 0.86503 0.5893 0.0
Mn1152 Mn 0.09135 0.68984 0.5772 0.0
Mn1153 Mn 0.14112 0.69587 0.60217 0.0
C1154 C 0.09349 0.65073 0.58437 0.0
C1155 C 0.07729 0.69084 0.55172 0.0
C1156 C 0.08988 0.69764 0.61241 0.0
O1157 O 0.11926 0.73147 0.57692 0.0
O1158 O 0.15247 0.73247 0.59257 0.0
C1159 C 0.18535 0.70786 0.57907 0.0
N1160 N 0.16851 0.69182 0.59087 0.0
C1161 C 0.18714 0.66102 0.58945 0.0
C1162 C 0.20485 0.67732 0.57737 0.0
C1163 C 0.20396 0.70085 0.57216 0.0
C1164 C 0.16929 0.66923 0.59602 0.0
H1165 H 0.18447 0.72577 0.57493 0.0
C1166 C 0.14284 0.74423 0.5837 0.0
O1167 O 0.06523 0.69517 0.56352 0.0
O1168 O 0.09785 0.68678 0.55474 0.0
N1169 N 0.13277 0.66197 0.61237 0.0
C1170 C 0.11354 0.64786 0.6237 0.0
C1171 C 0.1115 0.6236 0.63006 0.0
C1172 C 0.12922 0.61415 0.62471 0.0
C1173 C 0.14905 0.62926 0.61319 0.0
C1174 C 0.15054 0.65358 0.60752 0.0
H1175 H 0.09975 0.65494 0.62778 0.0
O1176 O 0.07065 0.64829 0.5788 0.0
O1177 O 0.11437 0.67595 0.58545 0.0
O1178 O 0.07793 0.69304 0.59912 0.0
O1179 O 0.1135 0.69962 0.61468 0.0
C1180 C 0.16682 0.62067 0.60677 0.0
C1181 C 0.18589 0.63651 0.59492 0.0
H1182 H 0.21901 0.67179 0.57189 0.0
H1183 H 0.21743 0.71343 0.56277 0.0
H1184 H 0.09612 0.61208 0.63895 0.0
H1185 H 0.12726 0.59515 0.62943 0.0
H1186 H 0.16536 0.60152 0.61063 0.0
H1187 H 0.19916 0.62943 0.5899 0.0
Mn1188 Mn 0.09733 0.70118 0.75617 0.0
Mn1189 Mn 0.13843 0.68773 0.73309 0.0
C1190 C 0.13969 0.73725 0.74769 0.0
C1191 C 0.0825 0.70517 0.78094 0.0
C1192 C 0.0892 0.69101 0.72087 0.0
O1193 O 0.08036 0.65936 0.75876 0.0
O1194 O 0.1088 0.65307 0.74269 0.0
C1195 C 0.16341 0.67074 0.75824 0.0
N1196 N 0.16647 0.68728 0.74577 0.0
C1197 C 0.21614 0.70748 0.74624 0.0
C1198 C 0.21357 0.69063 0.75906 0.0
C1199 C 0.18709 0.67234 0.76517 0.0
C1200 C 0.19185 0.70544 0.74007 0.0
H1201 H 0.14305 0.65635 0.7628 0.0
C1202 C 0.0881 0.64398 0.75199 0.0
O1203 O 0.06663 0.70017 0.7688 0.0
O1204 O 0.10656 0.70729 0.77872 0.0
N1205 N 0.16834 0.71887 0.72281 0.0
C1206 C 0.16719 0.73398 0.71059 0.0
C1207 C 0.19194 0.75346 0.70321 0.0
C1208 C 0.21747 0.75659 0.70816 0.0
C1209 C 0.21809 0.74059 0.72068 0.0
C1210 C 0.19283 0.72194 0.72778 0.0
H1211 H 0.14752 0.73105 0.70646 0.0
O1212 O 0.12024 0.74191 0.75246 0.0
O1213 O 0.13417 0.71155 0.74843 0.0
O1214 O 0.08124 0.69577 0.73393 0.0
O1215 O 0.11046 0.68814 0.71919 0.0
C1216 C 0.24268 0.74202 0.72623 0.0
C1217 C 0.24178 0.72588 0.73917 0.0
H1218 H 0.23177 0.69152 0.76428 0.0
H1219 H 0.18492 0.65927 0.77506 0.0
H1220 H 0.1913 0.76567 0.69353 0.0
H1221 H 0.23642 0.77122 0.7022 0.0
H1222 H 0.26244 0.7554 0.72062 0.0
H1223 H 0.2609 0.72754 0.74348 0.0
Mn1224 Mn 0.35567 0.42222 0.75606 0.0
Mn1225 Mn 0.36419 0.47618 0.73395 0.0
C1226 C 0.31755 0.42703 0.75039 0.0
C1227 C 0.35716 0.40493 0.78057 0.0
C1228 C 0.36393 0.42527 0.7209 0.0
O1229 O 0.39776 0.44841 0.75599 0.0
O1230 O 0.40003 0.48565 0.74391 0.0
C1231 C 0.37538 0.51724 0.75897 0.0
N1232 N 0.35994 0.50223 0.7465 0.0
C1233 C 0.32974 0.52145 0.74883 0.0
C1234 C 0.34545 0.53731 0.76163 0.0
C1235 C 0.36837 0.53519 0.76671 0.0
C1236 C 0.33794 0.50421 0.74145 0.0
H1237 H 0.39281 0.51539 0.76302 0.0
C1238 C 0.41111 0.47349 0.75117 0.0
O1239 O 0.35956 0.39344 0.76788 0.0
O1240 O 0.35448 0.42669 0.77899 0.0
N1241 N 0.33108 0.46979 0.72354 0.0
C1242 C 0.31747 0.45229 0.71141 0.0
C1243 C 0.29381 0.45158 0.70506 0.0
C1244 C 0.28443 0.46884 0.71125 0.0
C1245 C 0.29905 0.48694 0.72358 0.0
C1246 C 0.32283 0.48722 0.72919 0.0
H1247 H 0.32447 0.43883 0.70667 0.0
O1248 O 0.31419 0.40335 0.75509 0.0
O1249 O 0.34313 0.44737 0.74956 0.0
O1250 O 0.35702 0.41083 0.73341 0.0
O1251 O 0.36834 0.45011 0.72009 0.0
C1252 C 0.29041 0.50401 0.73087 0.0
C1253 C 0.30575 0.52137 0.74343 0.0
H1254 H 0.3399 0.55092 0.76775 0.0
H1255 H 0.38049 0.54721 0.77664 0.0
H1256 H 0.28267 0.43755 0.69554 0.0
H1257 H 0.26583 0.46782 0.70655 0.0
H1258 H 0.27149 0.50317 0.7272 0.0
H1259 H 0.29858 0.53414 0.74904 0.0
Mn1260 Mn 0.63289 0.96298 0.75522 0.0
Mn1261 Mn 0.57838 0.9218 0.73209 0.0
C1262 C 0.62556 0.91975 0.7478 0.0
C1263 C 0.65152 0.97939 0.77987 0.0
C1264 C 0.63133 0.97128 0.72012 0.0
O1265 O 0.60831 0.98052 0.75682 0.0
O1266 O 0.57162 0.94967 0.74254 0.0
C1267 C 0.53509 0.89326 0.75624 0.0
N1268 N 0.54987 0.89203 0.74388 0.0
C1269 C 0.52214 0.84218 0.7429 0.0
C1270 C 0.50654 0.84286 0.7556 0.0
C1271 C 0.51319 0.86851 0.76238 0.0
C1272 C 0.54403 0.86747 0.73748 0.0
H1273 H 0.53989 0.91298 0.76131 0.0
C1274 C 0.58403 0.9713 0.75116 0.0
O1275 O 0.66293 0.99391 0.76737 0.0
O1276 O 0.62903 0.95552 0.77807 0.0
N1277 N 0.58185 0.89364 0.72121 0.0
C1278 C 0.59979 0.89655 0.70953 0.0
C1279 C 0.59661 0.87279 0.70184 0.0
C1280 C 0.57466 0.8464 0.70599 0.0
C1281 C 0.55635 0.84398 0.71798 0.0
C1282 C 0.56087 0.86833 0.72541 0.0
H1283 H 0.61633 0.91684 0.70608 0.0
O1284 O 0.64979 0.93896 0.75264 0.0
O1285 O 0.60595 0.9261 0.74784 0.0
O1286 O 0.64478 0.97783 0.73294 0.0
O1287 O 0.6064 0.95133 0.71871 0.0
C1288 C 0.53365 0.81841 0.72276 0.0
C1289 C 0.51673 0.81746 0.73532 0.0
H1290 H 0.48944 0.82383 0.76026 0.0
H1291 H 0.50126 0.86921 0.77219 0.0
H1292 H 0.61081 0.87484 0.6926 0.0
H1293 H 0.57205 0.82817 0.69988 0.0
H1294 H 0.52902 0.79931 0.71688 0.0
H1295 H 0.49959 0.79761 0.73904 0.0
H1296 H 0.10467 0.31152 0.10874 0.0
H1297 H 0.23059 0.32763 0.05811 0.0
H1298 H 0.11382 0.32621 0.05912 0.0
H1299 H 0.22385 0.31184 0.10764 0.0
H1300 H 0.19467 0.34048 0.05997 0.0
H1301 H 0.1539 0.32445 0.11032 0.0
C1302 C 0.11741 0.3186 0.09831 0.0
C1303 C 0.10544 0.31779 0.08377 0.0
C1304 C 0.20131 0.33478 0.07054 0.0
C1305 C 0.16113 0.33187 0.08535 0.0
C1306 C 0.22188 0.32754 0.06946 0.0
C1307 C 0.22985 0.31853 0.08272 0.0
C1308 C 0.18793 0.33206 0.08492 0.0
C1309 C 0.21811 0.31873 0.09717 0.0
C1310 C 0.14538 0.32572 0.09917 0.0
C1311 C 0.12245 0.32655 0.07052 0.0
N1312 N 0.19718 0.32474 0.09785 0.0
N1313 N 0.14933 0.33286 0.07159 0.0
H1314 H 0.76986 0.95659 0.11373 0.0
H1315 H 0.71873 0.80655 0.0771 0.0
H1316 H 0.72525 0.92831 0.07027 0.0
H1317 H 0.78556 0.84764 0.11024 0.0
H1318 H 0.70752 0.84386 0.08055 0.0
H1319 H 0.76177 0.90956 0.11854 0.0
C1320 C 0.75748 0.94013 0.10551 0.0
C1321 C 0.74804 0.94597 0.09166 0.0
C1322 C 0.72413 0.84426 0.08738 0.0
C1323 C 0.73933 0.89268 0.0968 0.0
C1324 C 0.73036 0.82295 0.0855 0.0
C1325 C 0.75311 0.82433 0.09337 0.0
C1326 C 0.74074 0.86679 0.09727 0.0
C1327 C 0.76793 0.84607 0.10394 0.0
C1328 C 0.75305 0.91343 0.10817 0.0
C1329 C 0.73263 0.92432 0.08114 0.0
N1330 N 0.76166 0.86663 0.10548 0.0
N1331 N 0.72902 0.8986 0.08383 0.0
H1332 H 0.12652 0.82153 0.06508 0.0
H1333 H 0.22874 0.95412 0.11528 0.0
H1334 H 0.11035 0.83401 0.11272 0.0
H1335 H 0.23401 0.9451 0.06562 0.0
H1336 H 0.19386 0.9043 0.11699 0.0
H1337 H 0.17436 0.85965 0.06783 0.0
C1338 C 0.13348 0.83173 0.07631 0.0
C1339 C 0.11477 0.82474 0.08872 0.0
C1340 C 0.20324 0.91308 0.1058 0.0
C1341 C 0.16888 0.86918 0.09178 0.0
C1342 C 0.22321 0.94137 0.10486 0.0
C1343 C 0.23398 0.95344 0.09029 0.0
C1344 C 0.19427 0.89704 0.09205 0.0
C1345 C 0.22599 0.93639 0.07705 0.0
C1346 C 0.16067 0.85365 0.07786 0.0
C1347 C 0.12443 0.83877 0.10296 0.0
N1348 N 0.20643 0.90912 0.07822 0.0
N1349 N 0.15076 0.86081 0.10403 0.0
H1350 H 0.34285 0.12221 0.92743 0.0
H1351 H 0.30558 0.22817 0.88609 0.0
H1352 H 0.28392 0.10067 0.88989 0.0
H1353 H 0.33001 0.23329 0.93428 0.0
H1354 H 0.3156 0.1902 0.88213 0.0
H1355 H 0.35571 0.17127 0.92447 0.0
C1356 C 0.33344 0.12805 0.91819 0.0
C1357 C 0.31237 0.10771 0.90887 0.0
C1358 C 0.31969 0.20034 0.89341 0.0
C1359 C 0.32666 0.16316 0.90549 0.0
C1360 C 0.31423 0.22208 0.89562 0.0
C1361 C 0.3171 0.23368 0.9105 0.0
C1362 C 0.32817 0.19046 0.90618 0.0
C1363 C 0.32768 0.22477 0.92264 0.0
C1364 C 0.34062 0.15589 0.91656 0.0
C1365 C 0.3003 0.11597 0.89725 0.0
N1366 N 0.33257 0.20342 0.92026 0.0
N1367 N 0.30742 0.14311 0.89597 0.0
H1368 H 0.95955 0.20678 0.88652 0.0
H1369 H 0.82569 0.1263 0.93309 0.0
H1370 H 0.93815 0.24908 0.92122 0.0
H1371 H 0.82882 0.10503 0.88504 0.0
H1372 H 0.8641 0.1734 0.92808 0.0
H1373 H 0.91037 0.17138 0.88418 0.0
C1374 C 0.94426 0.20898 0.89328 0.0
C1375 C 0.95262 0.23073 0.90401 0.0
C1376 C 0.85578 0.15879 0.91847 0.0
C1377 C 0.89671 0.18998 0.9019 0.0
C1378 C 0.83382 0.132 0.92133 0.0
C1379 C 0.82414 0.11207 0.90941 0.0
C1380 C 0.86876 0.16519 0.90377 0.0
C1381 C 0.83563 0.12008 0.89445 0.0
C1382 C 0.91624 0.18884 0.89196 0.0
C1383 C 0.93228 0.23262 0.91272 0.0
N1384 N 0.85792 0.14587 0.89213 0.0
N1385 N 0.90524 0.21205 0.91177 0.0
H1386 H 0.82704 0.75438 0.88618 0.0
H1387 H 0.93545 0.7266 0.93167 0.0
H1388 H 0.82214 0.73306 0.9349 0.0
H1389 H 0.95031 0.76373 0.88597 0.0
H1390 H 0.88652 0.71369 0.9296 0.0
H1391 H 0.86447 0.74337 0.88281 0.0
C1392 C 0.83322 0.74638 0.89601 0.0
C1393 C 0.82171 0.74449 0.91082 0.0
C1394 C 0.90023 0.72398 0.91982 0.0
C1395 C 0.86446 0.73244 0.9072 0.0
C1396 C 0.92804 0.7311 0.92096 0.0
C1397 C 0.9466 0.74604 0.90893 0.0
C1398 C 0.89118 0.73253 0.90671 0.0
C1399 C 0.93637 0.75195 0.8954 0.0
C1400 C 0.85464 0.74031 0.89413 0.0
C1401 C 0.8306 0.73464 0.9233 0.0
N1402 N 0.90935 0.74562 0.89475 0.0
N1403 N 0.85167 0.72926 0.92125 0.0
H1404 H 0.76337 0.61715 0.44752 0.0
H1405 H 0.91655 0.67151 0.41482 0.0
H1406 H 0.79577 0.66736 0.40614 0.0
H1407 H 0.86994 0.59805 0.44289 0.0
H1408 H 0.8795 0.68303 0.41858 0.0
H1409 H 0.80962 0.6237 0.45294 0.0
C1410 C 0.78057 0.63042 0.43992 0.0
C1411 C 0.7761 0.64189 0.42645 0.0
C1412 C 0.87783 0.66484 0.42427 0.0
C1413 C 0.82854 0.64889 0.43227 0.0
C1414 C 0.89897 0.6584 0.42222 0.0
C1415 C 0.896 0.63378 0.42852 0.0
C1416 C 0.85394 0.64661 0.43281 0.0
C1417 C 0.87277 0.61714 0.4378 0.0
C1418 C 0.80683 0.63399 0.44293 0.0
C1419 C 0.7987 0.65843 0.41672 0.0
N1420 N 0.85248 0.62373 0.43957 0.0
N1421 N 0.824 0.66117 0.41971 0.0
H1422 H 0.41786 0.2865 0.44627 0.0
H1423 H 0.38624 0.14834 0.40164 0.0
H1424 H 0.40102 0.27105 0.39705 0.0
H1425 H 0.42237 0.16983 0.44762 0.0
H1426 H 0.37493 0.18551 0.40331 0.0
H1427 H 0.40392 0.23727 0.45001 0.0
C1428 C 0.41021 0.27244 0.43638 0.0
C1429 C 0.41056 0.28255 0.42134 0.0
C1430 C 0.38459 0.18165 0.41325 0.0
C1431 C 0.395 0.2268 0.42542 0.0
C1432 C 0.39078 0.16029 0.41234 0.0
C1433 C 0.40508 0.15615 0.42454 0.0
C1434 C 0.39348 0.19942 0.42629 0.0
C1435 C 0.41107 0.17238 0.43805 0.0
C1436 C 0.40247 0.24449 0.43848 0.0
C1437 C 0.40102 0.26386 0.40882 0.0
N1438 N 0.40575 0.19378 0.43846 0.0
N1439 N 0.39389 0.23694 0.41111 0.0
H1440 H 0.90014 0.26458 0.39686 0.0
H1441 H 0.76392 0.16738 0.44392 0.0
H1442 H 0.88674 0.28132 0.44422 0.0
H1443 H 0.78257 0.14769 0.39847 0.0
H1444 H 0.81283 0.20359 0.44686 0.0
H1445 H 0.86246 0.21661 0.39972 0.0
C1446 C 0.88975 0.25774 0.40805 0.0
C1447 C 0.89639 0.27663 0.42034 0.0
C1448 C 0.80647 0.19086 0.43642 0.0
C1449 C 0.85246 0.2223 0.42354 0.0
C1450 C 0.77864 0.17017 0.43481 0.0
C1451 C 0.76958 0.15472 0.42098 0.0
C1452 C 0.82502 0.19635 0.42396 0.0
C1453 C 0.78903 0.15923 0.40933 0.0
C1454 C 0.86812 0.23044 0.40968 0.0
C1455 C 0.88222 0.26712 0.43454 0.0
N1456 N 0.81581 0.17994 0.41098 0.0
N1457 N 0.86043 0.24069 0.43566 0.0
H1458 H 0.0046 0.45795 0.26895 0.0
H1459 H 0.98251 0.56853 0.22176 0.0
H1460 H 0.9773 0.44685 0.22106 0.0
H1461 H 0.98923 0.5655 0.27178 0.0
H1462 H 0.99687 0.53336 0.21918 0.0
H1463 H 0.01644 0.50662 0.26759 0.0
C1464 C 0.00213 0.46618 0.25796 0.0
C1465 C 0.9901 0.44865 0.24509 0.0
C1466 C 0.996 0.54103 0.23068 0.0
C1467 C 0.00229 0.50375 0.24361 0.0
C1468 C 0.98803 0.56119 0.23213 0.0
C1469 C 0.98459 0.56962 0.247 0.0
C1470 C 0.0007 0.5296 0.24421 0.0
C1471 C 0.99152 0.55931 0.26013 0.0
C1472 C 0.00863 0.49384 0.25721 0.0
C1473 C 0.9868 0.45997 0.23117 0.0
N1474 N 0.99897 0.53963 0.25843 0.0
N1475 N 0.9923 0.48676 0.23088 0.0
H1476 H 0.61873 0.56253 0.22004 0.0
H1477 H 0.47544 0.44828 0.25823 0.0
H1478 H 0.59984 0.55641 0.2692 0.0
H1479 H 0.51188 0.433 0.21774 0.0
H1480 H 0.51229 0.4973 0.25773 0.0
H1481 H 0.57114 0.5243 0.21499 0.0
C1482 C 0.60419 0.55379 0.22966 0.0
C1483 C 0.61292 0.56241 0.24504 0.0
C1484 C 0.51165 0.48341 0.24864 0.0
C1485 C 0.55902 0.51915 0.23941 0.0
C1486 C 0.49056 0.45561 0.24884 0.0
C1487 C 0.49072 0.43691 0.23794 0.0
C1488 C 0.53292 0.49238 0.23745 0.0
C1489 C 0.51107 0.44703 0.22624 0.0
C1490 C 0.57723 0.53196 0.2268 0.0
C1491 C 0.59368 0.55022 0.25719 0.0
N1492 N 0.53163 0.47412 0.22639 0.0
N1493 N 0.56763 0.52904 0.25414 0.0
H1494 H 0.49601 0.09145 0.22182 0.0
H1495 H 0.60782 0.05383 0.25449 0.0
H1496 H 0.49531 0.06316 0.26877 0.0
H1497 H 0.62762 0.12258 0.22365 0.0
H1498 H 0.55834 0.04016 0.25285 0.0
H1499 H 0.53592 0.0853 0.2158 0.0
C1500 C 0.50356 0.08282 0.23063 0.0
C1501 C 0.49259 0.07773 0.24578 0.0
C1502 C 0.57349 0.05767 0.24606 0.0
C1503 C 0.53776 0.07075 0.23905 0.0
C1504 C 0.60155 0.06535 0.24692 0.0
C1505 C 0.62151 0.08931 0.2392 0.0
C1506 C 0.56558 0.0739 0.23723 0.0
C1507 C 0.61265 0.10398 0.22976 0.0
C1508 C 0.52635 0.07953 0.22723 0.0
C1509 C 0.50333 0.06721 0.25695 0.0
N1510 N 0.58527 0.09615 0.22911 0.0
N1511 N 0.52554 0.06426 0.2534 0.0
H1512 H 0.45333 0.00844 0.74319 0.0
H1513 H 0.56242 0.97033 0.77966 0.0
H1514 H 0.43256 0.94256 0.77636 0.0
H1515 H 0.56666 0.99898 0.73243 0.0
H1516 H 0.52299 0.9777 0.78464 0.0
H1517 H 0.50269 0.02183 0.74548 0.0
C1518 C 0.45936 0.99749 0.75136 0.0
C1519 C 0.43916 0.9744 0.75959 0.0
C1520 C 0.53324 0.98332 0.77337 0.0
C1521 C 0.49496 0.98949 0.76229 0.0
C1522 C 0.55581 0.97938 0.77059 0.0
C1523 C 0.56766 0.98423 0.75566 0.0
C1524 C 0.52278 0.99232 0.76115 0.0
C1525 C 0.55803 0.99521 0.74412 0.0
C1526 C 0.48736 0.00501 0.7526 0.0
C1527 C 0.44771 0.96047 0.76983 0.0
N1528 N 0.53589 0.99864 0.74704 0.0
N1529 N 0.47501 0.96811 0.77082 0.0
H1530 H 0.07842 0.49261 0.77693 0.0
H1531 H 0.05687 0.60458 0.73095 0.0
H1532 H 0.06834 0.49478 0.72714 0.0
H1533 H 0.08671 0.61566 0.77832 0.0
H1534 H 0.04402 0.55564 0.73223 0.0
H1535 H 0.06547 0.52875 0.78006 0.0
C1536 C 0.07243 0.49998 0.76675 0.0
C1537 C 0.07448 0.49101 0.75176 0.0
C1538 C 0.05268 0.5685 0.74252 0.0
C1539 C 0.06005 0.53213 0.75516 0.0
C1540 C 0.05978 0.59632 0.74181 0.0
C1541 C 0.07277 0.61388 0.75455 0.0
C1542 C 0.05936 0.55843 0.75593 0.0
C1543 C 0.07652 0.60252 0.76832 0.0
C1544 C 0.06527 0.52068 0.76851 0.0
C1545 C 0.06705 0.50137 0.73887 0.0
N1546 N 0.07039 0.57552 0.76855 0.0
N1547 N 0.06043 0.52159 0.74085 0.0
H1548 H 0.44929 0.48441 0.72886 0.0
H1549 H 0.56608 0.6148 0.77573 0.0
H1550 H 0.4408 0.50072 0.77714 0.0
H1551 H 0.55634 0.60919 0.72567 0.0
H1552 H 0.52934 0.5657 0.77784 0.0
H1553 H 0.4978 0.52195 0.72938 0.0
C1554 C 0.45807 0.49535 0.73973 0.0
C1555 C 0.44136 0.48961 0.75299 0.0
C1556 C 0.53582 0.57507 0.76639 0.0
C1557 C 0.49626 0.53303 0.75357 0.0
C1558 C 0.55685 0.60292 0.76518 0.0
C1559 C 0.56395 0.61587 0.75051 0.0
C1560 C 0.5223 0.56024 0.7528 0.0
C1561 C 0.55122 0.59988 0.73719 0.0
C1562 C 0.48561 0.51687 0.74 0.0
C1563 C 0.45331 0.50454 0.76674 0.0
N1564 N 0.53087 0.57296 0.73866 0.0
N1565 N 0.48004 0.52599 0.76662 0.0
H1566 H 0.6717 0.78709 0.5841 0.0
H1567 H 0.62523 0.89282 0.55233 0.0
H1568 H 0.59758 0.7638 0.55726 0.0
H1569 H 0.66987 0.9049 0.59544 0.0
H1570 H 0.62997 0.85205 0.54674 0.0
H1571 H 0.6851 0.83633 0.58101 0.0
C1572 C 0.65879 0.79246 0.57711 0.0
C1573 C 0.63348 0.77163 0.57097 0.0
C1574 C 0.63953 0.86418 0.55716 0.0
C1575 C 0.6486 0.8273 0.56735 0.0
C1576 C 0.63703 0.88748 0.56027 0.0
C1577 C 0.64737 0.90207 0.57428 0.0
C1578 C 0.65235 0.85553 0.56819 0.0
C1579 C 0.6619 0.89414 0.58445 0.0
C1580 C 0.66633 0.82041 0.57544 0.0
C1581 C 0.61718 0.7794 0.56222 0.0
N1582 N 0.6637 0.8711 0.5813 0.0
N1583 N 0.62493 0.80665 0.56074 0.0
H1584 H 0.1627 0.77411 0.5566 0.0
H1585 H 0.27597 0.90208 0.60601 0.0
H1586 H 0.16346 0.78234 0.60668 0.0
H1587 H 0.28604 0.89053 0.55718 0.0
H1588 H 0.22728 0.86566 0.60439 0.0
H1589 H 0.20042 0.8229 0.55479 0.0
C1590 C 0.17027 0.7865 0.56713 0.0
C1591 C 0.16035 0.77442 0.58182 0.0
C1592 C 0.23985 0.87141 0.5939 0.0
C1593 C 0.2031 0.82962 0.5799 0.0
C1594 C 0.26756 0.89231 0.59482 0.0
C1595 C 0.28479 0.89907 0.58172 0.0
C1596 C 0.22955 0.85658 0.57987 0.0
C1597 C 0.27318 0.88583 0.5675 0.0
C1598 C 0.19181 0.8142 0.56612 0.0
C1599 C 0.17085 0.791 0.59516 0.0
N1600 N 0.2463 0.86468 0.567 0.0
N1601 N 0.1918 0.81766 0.5939 0.0
H1602 H 0.28677 0.41599 0.55073 0.0
H1603 H 0.14346 0.38316 0.58989 0.0
H1604 H 0.26464 0.39305 0.59888 0.0
H1605 H 0.18039 0.43713 0.55027 0.0
H1606 H 0.17867 0.36892 0.58792 0.0
H1607 H 0.23906 0.40593 0.54555 0.0
C1608 C 0.27148 0.40766 0.56002 0.0
C1609 C 0.27936 0.40528 0.57523 0.0
C1610 C 0.17848 0.38315 0.57932 0.0
C1611 C 0.22535 0.39413 0.56951 0.0
C1612 C 0.15833 0.39107 0.58038 0.0
C1613 C 0.15917 0.41116 0.57017 0.0
C1614 C 0.1996 0.39563 0.56805 0.0
C1615 C 0.17911 0.42142 0.55827 0.0
C1616 C 0.24443 0.40217 0.55711 0.0
C1617 C 0.25916 0.39506 0.587 0.0
N1618 N 0.19885 0.41381 0.55764 0.0
N1619 N 0.2331 0.39013 0.58394 0.0
H1620 H 0.02546 0.29111 0.14056 0.0
H1621 H 0.96128 0.36603 0.18961 0.0
H1622 H 0.00261 0.34721 0.11919 0.0
H1623 H 0.01727 0.34233 0.21025 0.0
H1624 H 0.97327 0.35653 0.16369 0.0
H1625 H 0.01969 0.30667 0.16635 0.0
C1626 C 0.01934 0.30679 0.14131 0.0
C1627 C 0.0144 0.31784 0.12774 0.0
C1628 C 0.98312 0.35368 0.17389 0.0
C1629 C 0.00747 0.33543 0.15714 0.0
C1630 C 0.97624 0.359 0.18867 0.0
C1631 C 0.98827 0.35488 0.20207 0.0
C1632 C 0.0017 0.3436 0.17254 0.0
C1633 C 0.00758 0.34583 0.2002 0.0
C1634 C 0.01618 0.31573 0.15601 0.0
C1635 C 0.00664 0.33818 0.12936 0.0
N1636 N 0.01345 0.34013 0.1857 0.0
N1637 N 0.00309 0.3461 0.14381 0.0
H1638 H 0.75996 0.76001 0.14227 0.0
H1639 H 0.68829 0.62155 0.19072 0.0
H1640 H 0.70382 0.68159 0.12037 0.0
H1641 H 0.70877 0.70028 0.21156 0.0
H1642 H 0.69538 0.64272 0.1648 0.0
H1643 H 0.74331 0.73854 0.16789 0.0
C1644 C 0.74396 0.7383 0.14287 0.0
C1645 C 0.73333 0.72245 0.12923 0.0
C1646 C 0.69794 0.65524 0.17505 0.0
C1647 C 0.71454 0.69775 0.15843 0.0
C1648 C 0.69402 0.64323 0.18982 0.0
C1649 C 0.69814 0.65928 0.20327 0.0
C1650 C 0.70665 0.68362 0.17376 0.0
C1651 C 0.70541 0.68721 0.20147 0.0
C1652 C 0.73439 0.72612 0.15747 0.0
C1653 C 0.71252 0.69449 0.13064 0.0
N1654 N 0.70989 0.69865 0.18697 0.0
N1655 N 0.70409 0.68285 0.14502 0.0
H1656 H 0.32122 0.07824 0.13916 0.0
H1657 H 0.37844 0.03038 0.20812 0.0
H1658 H 0.34736 0.01886 0.12846 0.0
H1659 H 0.41233 0.11779 0.19872 0.0
H1660 H 0.35775 0.0198 0.18172 0.0
H1661 H 0.34486 0.08721 0.16441 0.0
C1662 C 0.33179 0.06695 0.14219 0.0
C1663 C 0.33245 0.04783 0.13177 0.0
C1664 C 0.36996 0.04124 0.18549 0.0
C1665 C 0.35893 0.05762 0.16064 0.0
C1666 C 0.38158 0.04727 0.20049 0.0
C1667 C 0.39706 0.07498 0.20553 0.0
C1668 C 0.37316 0.06304 0.17584 0.0
C1669 C 0.40063 0.09616 0.19524 0.0
C1670 C 0.34534 0.07219 0.15652 0.0
C1671 C 0.34658 0.03387 0.13621 0.0
N1672 N 0.38837 0.08973 0.18096 0.0
N1673 N 0.35908 0.03879 0.15048 0.0
H1674 H 0.30154 0.03574 0.85946 0.0
H1675 H 0.36675 0.96339 0.81019 0.0
H1676 H 0.3557 0.01018 0.8806 0.0
H1677 H 0.34712 0.02227 0.78941 0.0
H1678 H 0.36177 0.97893 0.83613 0.0
H1679 H 0.31672 0.02988 0.83363 0.0
C1680 C 0.31683 0.02912 0.85864 0.0
C1681 C 0.32728 0.02324 0.87214 0.0
C1682 C 0.35893 0.9887 0.82589 0.0
C1683 C 0.34438 0.01612 0.84268 0.0
C1684 C 0.36163 0.97977 0.8111 0.0
C1685 C 0.35712 0.99145 0.79767 0.0
C1686 C 0.35107 0.009 0.82724 0.0
C1687 C 0.35073 0.01272 0.79949 0.0
C1688 C 0.32557 0.02591 0.84392 0.0
C1689 C 0.34716 0.01491 0.87046 0.0
N1690 N 0.34743 0.02053 0.81403 0.0
N1691 N 0.35476 0.01114 0.85596 0.0
H1692 H 0.04034 0.35573 0.78501 0.0
H1693 H 0.04886 0.37393 0.87779 0.0
H1694 H 0.09655 0.43341 0.80762 0.0
H1695 H 0.02807 0.29663 0.85496 0.0
H1696 H 0.05609 0.39608 0.85205 0.0
H1697 H 0.02534 0.3339 0.81076 0.0
C1698 C 0.04927 0.36825 0.79539 0.0
C1699 C 0.06989 0.39633 0.79423 0.0
C1700 C 0.04969 0.37421 0.85273 0.0
C1701 C 0.05266 0.37163 0.82357 0.0
C1702 C 0.04543 0.36156 0.86737 0.0
C1703 C 0.0381 0.33351 0.86845 0.0
C1704 C 0.04602 0.35851 0.83917 0.0
C1705 C 0.03399 0.3184 0.85461 0.0
C1706 C 0.04079 0.35577 0.81004 0.0
C1707 C 0.0808 0.41162 0.80803 0.0
N1708 N 0.03801 0.33109 0.84052 0.0
N1709 N 0.07205 0.39906 0.82216 0.0
H1710 H 0.62193 0.68753 0.80935 0.0
H1711 H 0.76177 0.76031 0.85689 0.0
H1712 H 0.70079 0.7125 0.78725 0.0
H1713 H 0.68385 0.70239 0.87864 0.0
H1714 H 0.74006 0.74454 0.83121 0.0
H1715 H 0.64402 0.69397 0.83492 0.0
C1716 C 0.64385 0.69409 0.8099 0.0
C1717 C 0.65963 0.69965 0.79621 0.0
C1718 C 0.72783 0.73504 0.8416 0.0
C1719 C 0.68507 0.70748 0.82536 0.0
C1720 C 0.74015 0.74411 0.85624 0.0
C1721 C 0.72449 0.73275 0.86988 0.0
C1722 C 0.69953 0.71492 0.84062 0.0
C1723 C 0.69663 0.71171 0.8684 0.0
C1724 C 0.65641 0.69767 0.82448 0.0
C1725 C 0.68791 0.70799 0.79755 0.0
N1726 N 0.68489 0.70375 0.85402 0.0
N1727 N 0.69987 0.71211 0.8119 0.0
H1728 H 0.07349 0.78767 0.8629 0.0
H1729 H 0.03011 0.68329 0.79337 0.0
H1730 H 0.01548 0.70137 0.87272 0.0
H1731 H 0.11684 0.73832 0.8038 0.0
H1732 H 0.01806 0.6934 0.81938 0.0
H1733 H 0.08348 0.77418 0.83753 0.0
C1734 C 0.0627 0.7659 0.85964 0.0
C1735 C 0.04372 0.74554 0.86987 0.0
C1736 C 0.03967 0.70303 0.8159 0.0
C1737 C 0.05462 0.73021 0.84088 0.0
C1738 C 0.04653 0.69743 0.80113 0.0
C1739 C 0.07448 0.70999 0.79653 0.0
C1740 C 0.0609 0.72198 0.82575 0.0
C1741 C 0.09506 0.72811 0.80697 0.0
C1742 C 0.06851 0.75827 0.84525 0.0
C1743 C 0.03039 0.7176 0.86515 0.0
N1744 N 0.08783 0.73391 0.82102 0.0
N1745 N 0.03588 0.71069 0.85084 0.0
H1746 H 0.36651 0.43071 0.80885 0.0
H1747 H 0.29413 0.29149 0.85727 0.0
H1748 H 0.34373 0.35164 0.78766 0.0
H1749 H 0.3511 0.36994 0.87888 0.0
H1750 H 0.30952 0.31312 0.83155 0.0
H1751 H 0.35888 0.40913 0.83468 0.0
C1752 C 0.36016 0.40886 0.80965 0.0
C1753 C 0.35563 0.39287 0.79613 0.0
C1754 C 0.31883 0.32551 0.84193 0.0
C1755 C 0.34643 0.36804 0.82555 0.0
C1756 C 0.30997 0.31324 0.85659 0.0
C1757 C 0.32129 0.32902 0.8702 0.0
C1758 C 0.3387 0.35388 0.84088 0.0
C1759 C 0.34187 0.35706 0.86867 0.0
C1760 C 0.3559 0.3966 0.82437 0.0
C1761 C 0.34749 0.36469 0.79781 0.0
N1762 N 0.34967 0.36873 0.85425 0.0
N1763 N 0.34273 0.35303 0.81227 0.0
H1764 H 0.6864 0.00696 0.87911 0.0
H1765 H 0.70486 0.01938 0.78652 0.0
H1766 H 0.7643 0.03006 0.85632 0.0
H1767 H 0.62729 0.9611 0.80849 0.0
H1768 H 0.72663 0.03257 0.81236 0.0
H1769 H 0.66411 0.99898 0.85339 0.0
C1770 C 0.69884 0.01062 0.8687 0.0
C1771 C 0.72717 0.01901 0.8698 0.0
C1772 C 0.70481 0.01702 0.81149 0.0
C1773 C 0.70197 0.01026 0.84051 0.0
C1774 C 0.69235 0.00958 0.79679 0.0
C1775 C 0.66429 0.989 0.79539 0.0
C1776 C 0.68896 0.00414 0.82487 0.0
C1777 C 0.64905 0.97691 0.80907 0.0
C1778 C 0.68611 0.00596 0.85407 0.0
C1779 C 0.74235 0.02338 0.85596 0.0
N1780 N 0.66158 0.9847 0.82327 0.0
N1781 N 0.72957 0.01902 0.84187 0.0
H1782 H 0.69293 0.01006 0.12584 0.0
H1783 H 0.73718 0.11775 0.19344 0.0
H1784 H 0.77966 0.06567 0.13607 0.0
H1785 H 0.6826 0.03191 0.20605 0.0
H1786 H 0.74493 0.10266 0.16804 0.0
H1787 H 0.68093 0.02092 0.15171 0.0
C1788 C 0.70935 0.02442 0.13353 0.0
C1789 C 0.7373 0.03699 0.12891 0.0
C1790 C 0.7311 0.08721 0.17635 0.0
C1791 C 0.72378 0.04979 0.1579 0.0
C1792 C 0.72657 0.09573 0.19078 0.0
C1793 C 0.70934 0.07599 0.20183 0.0
C1794 C 0.71775 0.05882 0.1728 0.0
C1795 C 0.6962 0.04769 0.19783 0.0
C1796 C 0.70252 0.03045 0.14821 0.0
C1797 C 0.75788 0.05543 0.13924 0.0
N1798 N 0.70053 0.03985 0.1835 0.0
N1799 N 0.75068 0.06161 0.15316 0.0
H1800 H 0.03228 0.7653 0.14235 0.0
H1801 H 0.95885 0.62426 0.1895 0.0
H1802 H 0.01033 0.687 0.12041 0.0
H1803 H 0.01475 0.70244 0.21173 0.0
H1804 H 0.9744 0.64664 0.16394 0.0
H1805 H 0.02306 0.74266 0.16792 0.0
C1806 C 0.02569 0.74337 0.14293 0.0
C1807 C 0.02198 0.72795 0.12927 0.0
C1808 C 0.98343 0.65879 0.17442 0.0
C1809 C 0.01102 0.70191 0.15841 0.0
C1810 C 0.9745 0.64609 0.18899 0.0
C1811 C 0.98548 0.66157 0.20273 0.0
C1812 C 0.00302 0.68728 0.17361 0.0
C1813 C 0.00578 0.68976 0.20141 0.0
C1814 C 0.02053 0.73051 0.15752 0.0
C1815 C 0.0135 0.69963 0.13068 0.0
N1816 N 0.01365 0.70182 0.1871 0.0
N1817 N 0.00793 0.6874 0.145 0.0
H1818 H 0.3405 0.36171 0.12697 0.0
H1819 H 0.38918 0.3082 0.1968 0.0
H1820 H 0.2985 0.27405 0.13766 0.0
H1821 H 0.37409 0.37585 0.20611 0.0
H1822 H 0.36376 0.29927 0.17216 0.0
H1823 H 0.3603 0.37168 0.15354 0.0
C1824 C 0.33527 0.34465 0.13494 0.0
C1825 C 0.31793 0.31703 0.13015 0.0
C1826 C 0.36596 0.316 0.17964 0.0
C1827 C 0.34079 0.32822 0.16011 0.0
C1828 C 0.38053 0.32121 0.1936 0.0
C1829 C 0.38362 0.34275 0.20342 0.0
C1830 C 0.35515 0.33299 0.17523 0.0
C1831 C 0.37194 0.35895 0.19882 0.0
C1832 C 0.34642 0.35035 0.15004 0.0
C1833 C 0.31172 0.29563 0.1409 0.0
N1834 N 0.35848 0.35402 0.18485 0.0
N1835 N 0.32358 0.30165 0.15528 0.0
H1836 H 0.60875 0.65231 0.5293 0.0
H1837 H 0.71206 0.69797 0.45966 0.0
H1838 H 0.69419 0.7123 0.5399 0.0
H1839 H 0.6604 0.61116 0.47127 0.0
H1840 H 0.70259 0.71022 0.48582 0.0
H1841 H 0.62344 0.64357 0.50406 0.0
C1842 C 0.63061 0.66382 0.52624 0.0
C1843 C 0.65035 0.68298 0.53667 0.0
C1844 C 0.69366 0.68857 0.48257 0.0
C1845 C 0.66705 0.6734 0.50777 0.0
C1846 C 0.69887 0.68158 0.46771 0.0
C1847 C 0.68694 0.65354 0.46335 0.0
C1848 C 0.67577 0.66732 0.49275 0.0
C1849 C 0.67007 0.63303 0.47418 0.0
C1850 C 0.63891 0.65873 0.51191 0.0
C1851 C 0.67843 0.69723 0.53217 0.0
N1852 N 0.66462 0.64033 0.48828 0.0
N1853 N 0.68603 0.69233 0.51789 0.0
H1854 H 0.36231 0.04301 0.46186 0.0
H1855 H 0.40592 0.97888 0.53005 0.0
H1856 H 0.44894 0.07211 0.47112 0.0
H1857 H 0.35058 0.00994 0.54105 0.0
H1858 H 0.41476 0.00153 0.50444 0.0
H1859 H 0.35054 0.0198 0.48759 0.0
C1860 C 0.37877 0.04447 0.4693 0.0
C1861 C 0.40662 0.05951 0.46448 0.0
C1862 C 0.40054 0.00315 0.51246 0.0
C1863 C 0.39331 0.03266 0.49334 0.0
C1864 C 0.39539 0.99019 0.52698 0.0
C1865 C 0.37759 0.9927 0.53763 0.0
C1866 C 0.3872 0.01801 0.50841 0.0
C1867 C 0.36458 0.00773 0.53315 0.0
C1868 C 0.37207 0.03138 0.4839 0.0
C1869 C 0.42724 0.06087 0.47449 0.0
N1870 N 0.36947 0.01972 0.51875 0.0
N1871 N 0.42014 0.04727 0.48838 0.0
H1872 H 0.97701 0.4008 0.46863 0.0
H1873 H 0.04309 0.36336 0.53883 0.0
H1874 H 0.00914 0.34564 0.45977 0.0
H1875 H 0.06922 0.44878 0.52786 0.0
H1876 H 0.01952 0.3494 0.51322 0.0
H1877 H 0.99935 0.41147 0.49434 0.0
C1878 C 0.98851 0.3907 0.47218 0.0
C1879 C 0.99139 0.37241 0.46209 0.0
C1880 C 0.03049 0.37114 0.51652 0.0
C1881 C 0.01637 0.38412 0.49148 0.0
C1882 C 0.04374 0.37908 0.53106 0.0
C1883 C 0.05809 0.40723 0.53535 0.0
C1884 C 0.03094 0.39146 0.5066 0.0
C1885 C 0.05849 0.42688 0.52491 0.0
C1886 C 0.00129 0.39689 0.48677 0.0
C1887 C 0.00665 0.36 0.46721 0.0
N1888 N 0.0448 0.41859 0.51109 0.0
N1889 N 0.01848 0.36592 0.48168 0.0
H1890 H 0.36437 0.43313 0.52327 0.0
H1891 H 0.43621 0.36497 0.47505 0.0
H1892 H 0.38615 0.37617 0.54454 0.0
H1893 H 0.38006 0.38742 0.45336 0.0
H1894 H 0.42158 0.37233 0.50075 0.0
H1895 H 0.37336 0.42012 0.4975 0.0
C1896 C 0.37093 0.41779 0.5225 0.0
C1897 C 0.37461 0.40574 0.53603 0.0
C1898 C 0.41231 0.37541 0.49036 0.0
C1899 C 0.38525 0.39109 0.50668 0.0
C1900 C 0.42071 0.37134 0.47571 0.0
C1901 C 0.40936 0.37568 0.46209 0.0
C1902 C 0.39287 0.38446 0.49136 0.0
C1903 C 0.38927 0.3838 0.46359 0.0
C1904 C 0.37593 0.41031 0.50781 0.0
C1905 C 0.38302 0.3859 0.53438 0.0
N1906 N 0.3819 0.38828 0.47798 0.0
N1907 N 0.3884 0.37943 0.51996 0.0
H1908 H 0.63266 0.96194 0.52438 0.0
H1909 H 0.69857 0.0973 0.47318 0.0
H1910 H 0.69198 0.04171 0.54372 0.0
H1911 H 0.6741 0.01709 0.45299 0.0
H1912 H 0.6947 0.07757 0.49923 0.0
H1913 H 0.64577 0.98155 0.4981 0.0
C1914 C 0.64861 0.98354 0.52307 0.0
C1915 C 0.66115 0.00033 0.53619 0.0
C1916 C 0.69053 0.06439 0.48909 0.0
C1917 C 0.67591 0.0229 0.50626 0.0
C1918 C 0.69258 0.07557 0.47424 0.0
C1919 C 0.68644 0.0587 0.46096 0.0
C1920 C 0.68166 0.03601 0.49065 0.0
C1921 C 0.67897 0.03076 0.46296 0.0
C1922 C 0.65616 0.99466 0.50809 0.0
C1923 C 0.68182 0.02811 0.53387 0.0
N1924 N 0.67635 0.02014 0.47757 0.0
N1925 N 0.68827 0.03869 0.51916 0.0
H1926 H 0.99372 0.6101 0.46873 0.0
H1927 H 0.04546 0.71133 0.5392 0.0
H1928 H 0.01486 0.69466 0.45901 0.0
H1929 H 0.08469 0.66334 0.52775 0.0
H1930 H 0.0252 0.70227 0.51269 0.0
H1931 H 0.01736 0.62512 0.49393 0.0
C1932 C 0.0032 0.63182 0.47197 0.0
C1933 C 0.00247 0.65123 0.46182 0.0
C1934 C 0.03855 0.69412 0.51604 0.0
C1935 C 0.02896 0.66831 0.49066 0.0
C1936 C 0.04996 0.69913 0.53109 0.0
C1937 C 0.0667 0.68801 0.53563 0.0
C1938 C 0.04331 0.67722 0.50581 0.0
C1939 C 0.07197 0.67236 0.52471 0.0
C1940 C 0.01675 0.64034 0.48627 0.0
C1941 C 0.01519 0.67917 0.46654 0.0
N1942 N 0.0599 0.66701 0.5104 0.0
N1943 N 0.02775 0.68693 0.48079 0.0
H1944 H 0.97573 0.2835 0.03709 0.0
H1945 H 0.05684 0.34088 0.95653 0.0
H1946 H 0.06491 0.33186 0.03337 0.0
H1947 H 0.97836 0.26498 0.96172 0.0
H1948 H 0.05484 0.35136 0.98426 0.0
H1949 H 0.97196 0.29124 0.00917 0.0
C1950 C 0.99443 0.29681 0.0305 0.0
C1951 C 0.02064 0.3073 0.03739 0.0
C1952 C 0.03772 0.33284 0.97917 0.0
C1953 C 0.0166 0.31567 0.00564 0.0
C1954 C 0.03876 0.32694 0.96338 0.0
C1955 C 0.01784 0.30192 0.95698 0.0
C1956 C 0.01538 0.31377 0.98841 0.0
C1957 C 0.99501 0.28435 0.96633 0.0
C1958 C 0.9923 0.30099 0.0146 0.0
C1959 C 0.04436 0.32373 0.02839 0.0
N1960 N 0.99449 0.29049 0.98163 0.0
N1961 N 0.04181 0.32717 0.01287 0.0
H1962 H 0.71638 0.76056 0.95963 0.0
H1963 H 0.74998 0.71336 0.04098 0.0
H1964 H 0.7722 0.72826 0.96426 0.0
H1965 H 0.74135 0.78577 0.03523 0.0
H1966 H 0.73865 0.70229 0.01317 0.0
H1967 H 0.70594 0.75261 0.9877 0.0
C1968 C 0.7254 0.7506 0.96645 0.0
C1969 C 0.74503 0.74489 0.95977 0.0
C1970 C 0.7384 0.72008 0.01817 0.0
C1971 C 0.73341 0.73595 0.99159 0.0
C1972 C 0.74467 0.7263 0.03399 0.0
C1973 C 0.74669 0.75056 0.04026 0.0
C1974 C 0.73358 0.73796 0.00877 0.0
C1975 C 0.74012 0.76697 0.03072 0.0
C1976 C 0.71966 0.74633 0.98242 0.0
C1977 C 0.75684 0.73275 0.96908 0.0
N1978 N 0.73402 0.76048 0.01539 0.0
N1979 N 0.75102 0.72887 0.9846 0.0
H1980 H 0.32513 0.08099 0.9652 0.0
H1981 H 0.34181 0.07152 0.04421 0.0
H1982 H 0.30519 0.99555 0.9621 0.0
H1983 H 0.27205 0.98998 0.03519 0.0
H1984 H 0.35559 0.07479 0.0166 0.0
H1985 H 0.33408 0.08062 0.99317 0.0
C1986 C 0.32369 0.06249 0.97036 0.0
C1987 C 0.31464 0.03833 0.96143 0.0
C1988 C 0.33768 0.05594 0.02079 0.0
C1989 C 0.32403 0.03744 0.99337 0.0
C1990 C 0.33002 0.05397 0.03652 0.0
C1991 C 0.30577 0.0305 0.04181 0.0
C1992 C 0.321 0.03416 0.0105 0.0
C1993 C 0.29084 0.00843 0.03143 0.0
C1994 C 0.32887 0.06229 0.98629 0.0
C1995 C 0.3125 0.01467 0.96863 0.0
N1996 N 0.2986 0.01086 0.01621 0.0
N1997 N 0.31631 0.01453 0.98432 0.0
H1998 H 0.05901 0.74792 0.95567 0.0
H1999 H 0.07989 0.77715 0.03401 0.0
H2000 H 0.98237 0.74531 0.96762 0.0
H2001 H 0.99209 0.72137 0.04006 0.0
H2002 H 0.07524 0.76488 0.00628 0.0
H2003 H 0.0636 0.737 0.98299 0.0
C2004 C 0.04272 0.74411 0.96394 0.0
C2005 C 0.02044 0.74777 0.95955 0.0
C2006 C 0.05718 0.7543 0.01376 0.0
C2007 C 0.02568 0.73579 0.99057 0.0
C2008 C 0.05986 0.76136 0.02957 0.0
C2009 C 0.03638 0.74993 0.03922 0.0
C2010 C 0.03064 0.73645 0.00756 0.0
C2011 C 0.0107 0.73021 0.03294 0.0
C2012 C 0.04549 0.73821 0.97951 0.0
C2013 C -2e-05 0.74292 0.97066 0.0
N2014 N 0.00833 0.72469 0.01736 0.0
N2015 N 0.00321 0.7374 0.98572 0.0
H2016 H 0.29149 0.34308 0.03459 0.0
H2017 H 0.31517 0.34649 0.95594 0.0
H2018 H 0.34117 0.30399 0.03975 0.0
H2019 H 0.3157 0.27159 0.96847 0.0
H2020 H 0.32848 0.36336 0.98292 0.0
H2021 H 0.30428 0.35131 0.007 0.0
C2022 C 0.30637 0.33765 0.03005 0.0
C2023 C 0.31559 0.32314 0.03937 0.0
C2024 C 0.32617 0.34348 0.97965 0.0
C2025 C 0.32949 0.33142 0.00778 0.0
C2026 C 0.31885 0.334 0.96427 0.0
C2027 C 0.31392 0.30747 0.96017 0.0
C2028 C 0.32872 0.32628 0.9908 0.0
C2029 C 0.31888 0.29199 0.97131 0.0
C2030 C 0.31365 0.34226 0.01427 0.0
C2031 C 0.33404 0.31562 0.03291 0.0
N2032 N 0.32578 0.30152 0.98616 0.0
N2033 N 0.3397 0.31905 0.01736 0.0
H2034 H 0.77883 0.07459 0.96605 0.0
H2035 H 0.73172 0.97309 0.0332 0.0
H2036 H 0.71954 0.9884 0.9573 0.0
H2037 H 0.74446 0.0553 0.04091 0.0
H2038 H 0.72282 0.97679 0.00554 0.0
H2039 H 0.76341 0.06852 0.99331 0.0
C2040 C 0.76189 0.05463 0.96982 0.0
C2041 C 0.75025 0.03198 0.95956 0.0
C2042 C 0.72657 0.99365 0.01337 0.0
C2043 C 0.73334 0.02455 0.99067 0.0
C2044 C 0.73157 0.99149 0.02912 0.0
C2045 C 0.73872 0.0139 0.03923 0.0
C2046 C 0.72988 0.01882 0.00764 0.0
C2047 C 0.73875 0.03751 0.03343 0.0
C2048 C 0.75308 0.05114 0.98533 0.0
C2049 C 0.72874 0.00637 0.96493 0.0
N2050 N 0.73525 0.03973 0.01788 0.0
N2051 N 0.72144 0.00311 0.98028 0.0
H2052 H 0.64829 0.6145 0.29929 0.0
H2053 H 0.66907 0.65125 0.37649 0.0
H2054 H 0.73524 0.6728 0.29215 0.0
H2055 H 0.74661 0.65482 0.36577 0.0
H2056 H 0.66428 0.65986 0.34881 0.0
H2057 H 0.6531 0.6289 0.32668 0.0
C2058 C 0.66813 0.63118 0.3034 0.0
C2059 C 0.69134 0.64279 0.29355 0.0
C2060 C 0.68267 0.65947 0.35263 0.0
C2061 C 0.69729 0.65878 0.32483 0.0
C2062 C 0.6856 0.65494 0.36842 0.0
C2063 C 0.70815 0.65209 0.3733 0.0
C2064 C 0.70258 0.66134 0.34182 0.0
C2065 C 0.72882 0.65666 0.36238 0.0
C2066 C 0.67089 0.63947 0.319 0.0
C2067 C 0.71682 0.66376 0.29942 0.0
N2068 N 0.7254 0.66078 0.34709 0.0
N2069 N 0.71933 0.67053 0.31484 0.0
H2070 H 0.39568 0.11356 0.36862 0.0
H2071 H 0.37523 0.07521 0.29243 0.0
H2072 H 0.41438 0.04821 0.37698 0.0
H2073 H 0.44186 0.05954 0.30342 0.0
H2074 H 0.36086 0.06727 0.31997 0.0
H2075 H 0.38343 0.09765 0.34164 0.0
C2076 C 0.39613 0.09516 0.36486 0.0
C2077 C 0.40582 0.082 0.37492 0.0
C2078 C 0.3781 0.06476 0.31624 0.0
C2079 C 0.39253 0.06402 0.34408 0.0
C2080 C 0.38601 0.06884 0.30052 0.0
C2081 C 0.40984 0.0682 0.2958 0.0
C2082 C 0.39421 0.06 0.32714 0.0
C2083 C 0.42345 0.06035 0.30672 0.0
C2084 C 0.389 0.08594 0.3495 0.0
C2085 C 0.40666 0.05862 0.36953 0.0
N2086 N 0.41568 0.05694 0.32196 0.0
N2087 N 0.40093 0.05085 0.35429 0.0
H2088 H 0.00826 0.39464 0.37427 0.0
H2089 H 0.97118 0.32377 0.29011 0.0
H2090 H 0.94458 0.31003 0.36532 0.0
H2091 H 0.99875 0.41006 0.29903 0.0
H2092 H 0.97996 0.31813 0.31766 0.0
H2093 H 0.02306 0.399 0.34685 0.0
C2094 C 0.99829 0.37662 0.36669 0.0
C2095 C 0.97525 0.35195 0.37191 0.0
C2096 C 0.98505 0.33851 0.31341 0.0
C2097 C 0.99172 0.3568 0.34078 0.0
C2098 C 0.98026 0.34177 0.29773 0.0
C2099 C 0.98429 0.36739 0.29246 0.0
C2100 C 0.99414 0.36113 0.3237 0.0
C2101 C 0.99545 0.39 0.30277 0.0
C2102 C 0.00655 0.37917 0.35107 0.0
C2103 C 0.96249 0.32935 0.36163 0.0
N2104 N 0.99972 0.38629 0.31798 0.0
N2105 N 0.97068 0.3324 0.34646 0.0
H2106 H 0.65248 0.04441 0.37279 0.0
H2107 H 0.64591 0.07333 0.29564 0.0
H2108 H 0.73636 0.11094 0.36511 0.0
H2109 H 0.72811 0.08456 0.29073 0.0
H2110 H 0.64534 0.06022 0.323 0.0
H2111 H 0.64862 0.0331 0.34478 0.0
C2112 C 0.67042 0.05586 0.3653 0.0
C2113 C 0.69471 0.07871 0.3711 0.0
C2114 C 0.66307 0.06445 0.31579 0.0
C2115 C 0.69036 0.06627 0.33935 0.0
C2116 C 0.66343 0.07206 0.30023 0.0
C2117 C 0.68704 0.07986 0.29102 0.0
C2118 C 0.68687 0.0656 0.32225 0.0
C2119 C 0.70944 0.07836 0.29749 0.0
C2120 C 0.6681 0.04963 0.34936 0.0
C2121 C 0.71726 0.09326 0.36096 0.0
N2122 N 0.70919 0.07226 0.3129 0.0
N2123 N 0.71446 0.08695 0.34551 0.0
H2124 H 0.00961 0.65328 0.37515 0.0
H2125 H 0.00169 0.62968 0.29598 0.0
H2126 H 0.92761 0.64121 0.36727 0.0
H2127 H 0.94492 0.66112 0.29421 0.0
H2128 H 0.01008 0.64218 0.32365 0.0
H2129 H 0.02046 0.66518 0.34744 0.0
C2130 C 0.99418 0.65389 0.36767 0.0
C2131 C 0.96751 0.6458 0.37338 0.0
C2132 C 0.9968 0.64762 0.31712 0.0
C2133 C 0.97943 0.65858 0.34176 0.0
C2134 C 0.99204 0.64044 0.30132 0.0
C2135 C 0.97292 0.64478 0.29292 0.0
C2136 C 0.98175 0.65857 0.32454 0.0
C2137 C 0.96012 0.65787 0.30036 0.0
C2138 C 0.00024 0.66027 0.35183 0.0
C2139 C 0.94826 0.64688 0.36324 0.0
N2140 N 0.96428 0.66376 0.31586 0.0
N2141 N 0.95449 0.65281 0.34789 0.0
H2142 H 0.39654 0.31794 0.36777 0.0
H2143 H 0.46269 0.40896 0.29612 0.0
H2144 H 0.4376 0.40709 0.37174 0.0
H2145 H 0.38659 0.33076 0.29088 0.0
H2146 H 0.45182 0.40976 0.32375 0.0
H2147 H 0.38909 0.32177 0.33986 0.0
C2148 C 0.40293 0.33822 0.36283 0.0
C2149 C 0.41736 0.36223 0.37194 0.0
C2150 C 0.43709 0.39278 0.31649 0.0
C2151 C 0.41024 0.36692 0.34009 0.0
C2152 C 0.44334 0.39231 0.30076 0.0
C2153 C 0.42548 0.36976 0.29134 0.0
C2154 C 0.41334 0.37003 0.32292 0.0
C2155 C 0.40075 0.34856 0.29783 0.0
C2156 C 0.39882 0.34045 0.34693 0.0
C2157 C 0.426 0.38814 0.36504 0.0
N2158 N 0.39571 0.34883 0.31337 0.0
N2159 N 0.42293 0.38988 0.34939 0.0
H2160 H 0.32977 0.97698 0.7089 0.0
H2161 H 0.40979 0.00406 0.62774 0.0
H2162 H 0.41151 0.98725 0.70331 0.0
H2163 H 0.32085 0.95485 0.6326 0.0
H2164 H 0.4133 0.01727 0.65538 0.0
H2165 H 0.32981 0.98792 0.68105 0.0
C2166 C 0.34813 0.98261 0.70194 0.0
C2167 C 0.37061 0.98108 0.70826 0.0
C2168 C 0.39295 0.00443 0.65024 0.0
C2169 C 0.37082 0.99358 0.67669 0.0
C2170 C 0.39094 0.99714 0.63448 0.0
C2171 C 0.36499 0.97859 0.62802 0.0
C2172 C 0.36881 0.993 0.65946 0.0
C2173 C 0.34117 0.96943 0.63724 0.0
C2174 C 0.34806 0.98864 0.68608 0.0
C2175 C 0.39373 0.98808 0.69876 0.0
N2176 N 0.34365 0.97646 0.65261 0.0
N2177 N 0.39315 0.99379 0.68339 0.0
H2178 H 0.06175 0.43935 0.69975 0.0
H2179 H 0.05216 0.4101 0.6212 0.0
H2180 H 0.10412 0.39265 0.70436 0.0
H2181 H 0.12984 0.41338 0.63119 0.0
H2182 H 0.03927 0.39987 0.64888 0.0
H2183 H 0.05367 0.42671 0.67207 0.0
C2184 C 0.06823 0.42539 0.69501 0.0
C2185 C 0.08322 0.41663 0.70423 0.0
C2186 C 0.0589 0.40236 0.64493 0.0
C2187 C 0.07484 0.40269 0.67263 0.0
C2188 C 0.0661 0.40783 0.62914 0.0
C2189 C 0.09225 0.41296 0.62404 0.0
C2190 C 0.07799 0.40186 0.65553 0.0
C2191 C 0.10965 0.40994 0.63475 0.0
C2192 C 0.0636 0.41811 0.67923 0.0
C2193 C 0.09206 0.39935 0.69758 0.0
N2194 N 0.10232 0.40484 0.65003 0.0
N2195 N 0.08836 0.3935 0.68204 0.0
H2196 H 0.63087 0.6616 0.70368 0.0
H2197 H 0.65118 0.67623 0.6239 0.0
H2198 H 0.65498 0.74828 0.70435 0.0
H2199 H 0.6389 0.74611 0.63142 0.0
H2200 H 0.66259 0.67728 0.65168 0.0
H2201 H 0.64293 0.66565 0.67592 0.0
C2202 C 0.63988 0.68176 0.69806 0.0
C2203 C 0.64216 0.70469 0.70616 0.0
C2204 C 0.65766 0.69255 0.64724 0.0
C2205 C 0.65566 0.70963 0.67448 0.0
C2206 C 0.6516 0.69223 0.63133 0.0
C2207 C 0.64364 0.71082 0.62548 0.0
C2208 C 0.65573 0.71164 0.65722 0.0
C2209 C 0.64447 0.73111 0.63555 0.0
C2210 C 0.64681 0.68415 0.6822 0.0
C2211 C 0.65312 0.73021 0.69841 0.0
N2212 N 0.65007 0.73078 0.65095 0.0
N2213 N 0.659 0.73188 0.68292 0.0
H2214 H 0.32209 0.37907 0.70723 0.0
H2215 H 0.39971 0.42128 0.62486 0.0
H2216 H 0.4071 0.44385 0.70067 0.0
H2217 H 0.31284 0.3938 0.6314 0.0
H2218 H 0.40295 0.41146 0.65256 0.0
H2219 H 0.31979 0.36675 0.67944 0.0
C2220 C 0.34058 0.38987 0.70006 0.0
C2221 C 0.3648 0.41247 0.70608 0.0
C2222 C 0.38298 0.40665 0.64776 0.0
C2223 C 0.36234 0.39869 0.67459 0.0
C2224 C 0.38109 0.41202 0.63199 0.0
C2225 C 0.35597 0.40825 0.626 0.0
C2226 C 0.35951 0.39724 0.65741 0.0
C2227 C 0.33253 0.39687 0.6357 0.0
C2228 C 0.3392 0.383 0.68425 0.0
C2229 C 0.38808 0.42629 0.69635 0.0
N2230 N 0.3349 0.392 0.65101 0.0
N2231 N 0.38621 0.41936 0.681 0.0
H2232 H 0.68148 0.98045 0.70946 0.0
H2233 H 0.66784 0.94997 0.63149 0.0
H2234 H 0.61265 0.99223 0.69762 0.0
H2235 H 0.64831 0.01526 0.6253 0.0
H2236 H 0.67743 0.96239 0.65911 0.0
H2237 H 0.69769 0.99095 0.68223 0.0
C2238 C 0.67041 0.98626 0.70125 0.0
C2239 C 0.6456 0.98524 0.70561 0.0
C2240 C 0.67229 0.97488 0.6516 0.0
C2241 C 0.66363 0.99683 0.67473 0.0
C2242 C 0.66676 0.96772 0.63587 0.0
C2243 C 0.65748 0.98177 0.62622 0.0
C2244 C 0.66751 0.99557 0.65776 0.0
C2245 C 0.65576 0.00421 0.63241 0.0
C2246 C 0.67948 0.99195 0.68574 0.0
C2247 C 0.63175 0.99258 0.69458 0.0
N2248 N 0.65981 0.00985 0.64796 0.0
N2249 N 0.64082 0.99783 0.67958 0.0
H2250 H 0.05972 0.6466 0.70206 0.0
H2251 H 0.10319 0.74239 0.63066 0.0
H2252 H 0.08724 0.73377 0.70675 0.0
H2253 H 0.04596 0.65449 0.62666 0.0
H2254 H 0.0907 0.74041 0.65822 0.0
H2255 H 0.04725 0.64829 0.67484 0.0
C2256 C 0.06217 0.66587 0.69743 0.0
C2257 C 0.07434 0.69006 0.70652 0.0
C2258 C 0.08004 0.72169 0.65123 0.0
C2259 C 0.06135 0.69256 0.67532 0.0
C2260 C 0.08706 0.72291 0.63548 0.0
C2261 C 0.07538 0.69861 0.62649 0.0
C2262 C 0.06205 0.69578 0.65808 0.0
C2263 C 0.05512 0.6737 0.63326 0.0
C2264 C 0.05514 0.6669 0.6819 0.0
C2265 C 0.07764 0.71467 0.70005 0.0
N2266 N 0.04959 0.67275 0.6488 0.0
N2267 N 0.07182 0.71548 0.68468 0.0
H2268 H 0.81708 0.11125 0.06096 0.0
H2269 H 0.97406 0.19686 0.09249 0.0
H2270 H 0.85004 0.08074 0.09642 0.0
H2271 H 0.9364 0.23214 0.06332 0.0
H2272 H 0.93138 0.15138 0.09055 0.0
H2273 H 0.86278 0.15352 0.05876 0.0
C2274 C 0.83413 0.11342 0.06814 0.0
C2275 C 0.83029 0.09225 0.07846 0.0
C2276 C 0.93257 0.16899 0.08441 0.0
C2277 C 0.88225 0.14058 0.07636 0.0
C2278 C 0.95702 0.19479 0.08535 0.0
C2279 C 0.95879 0.21799 0.07779 0.0
C2280 C 0.90964 0.16663 0.07608 0.0
C2281 C 0.93584 0.21459 0.06918 0.0
C2282 C 0.86014 0.13748 0.06691 0.0
C2283 C 0.85261 0.09627 0.0879 0.0
N2284 N 0.91218 0.18942 0.06858 0.0
N2285 N 0.87771 0.11993 0.0866 0.0
H2286 H 0.98134 0.8064 0.09429 0.0
H2287 H 0.82345 0.72959 0.06388 0.0
H2288 H 0.9464 0.73475 0.0641 0.0
H2289 H 0.85427 0.79061 0.10069 0.0
H2290 H 0.86989 0.73483 0.06135 0.0
H2291 H 0.93701 0.80613 0.09346 0.0
C2292 C 0.96456 0.79115 0.08712 0.0
C2293 C 0.96755 0.7709 0.079 0.0
C2294 C 0.86658 0.74722 0.06992 0.0
C2295 C 0.91653 0.76952 0.07861 0.0
C2296 C 0.84015 0.74422 0.07134 0.0
C2297 C 0.83554 0.76048 0.08209 0.0
C2298 C 0.88835 0.76627 0.07954 0.0
C2299 C 0.85743 0.77849 0.09187 0.0
C2300 C 0.93915 0.79069 0.08685 0.0
C2301 C 0.9449 0.75088 0.07038 0.0
N2302 N 0.88298 0.78105 0.09031 0.0
N2303 N 0.92031 0.75061 0.07045 0.0
H2304 H 0.32244 0.11996 0.06501 0.0
H2305 H 0.24784 0.20551 0.09077 0.0
H2306 H 0.25818 0.09127 0.09996 0.0
H2307 H 0.32515 0.24166 0.06543 0.0
H2308 H 0.2459 0.16036 0.09025 0.0
H2309 H 0.31923 0.16214 0.06166 0.0
C2310 C 0.30742 0.12249 0.07183 0.0
C2311 C 0.28977 0.1018 0.08231 0.0
C2312 C 0.26312 0.17809 0.08464 0.0
C2313 C 0.28638 0.15007 0.07888 0.0
C2314 C 0.26402 0.2037 0.08475 0.0
C2315 C 0.28638 0.22705 0.07782 0.0
C2316 C 0.285 0.17603 0.07777 0.0
C2317 C 0.30742 0.22399 0.07073 0.0
C2318 C 0.30561 0.14651 0.06995 0.0
C2319 C 0.27132 0.10634 0.0913 0.0
N2320 N 0.30624 0.19895 0.07089 0.0
N2321 N 0.26998 0.12995 0.08933 0.0
H2322 H 0.20757 0.97438 0.90039 0.0
H2323 H 0.11256 0.82394 0.93778 0.0
H2324 H 0.2353 0.94144 0.93733 0.0
H2325 H 0.08152 0.8611 0.90525 0.0
H2326 H 0.15672 0.86787 0.93906 0.0
H2327 H 0.16085 0.93359 0.90244 0.0
C2328 C 0.20359 0.95864 0.90909 0.0
C2329 C 0.22482 0.96154 0.9191 0.0
C2330 C 0.14014 0.86666 0.93184 0.0
C2331 C 0.17182 0.91466 0.92133 0.0
C2332 C 0.11493 0.84166 0.93119 0.0
C2333 C 0.09335 0.83919 0.92162 0.0
C2334 C 0.14408 0.88912 0.92248 0.0
C2335 C 0.0975 0.86246 0.91305 0.0
C2336 C 0.17701 0.93536 0.91023 0.0
C2337 C 0.21915 0.94015 0.92969 0.0
N2338 N 0.1225 0.88642 0.91357 0.0
N2339 N 0.19312 0.91766 0.93061 0.0
H2340 H 0.20132 0.25005 0.90469 0.0
H2341 H 0.11711 0.32381 0.93472 0.0
H2342 H 0.23631 0.3215 0.93503 0.0
H2343 H 0.08877 0.26365 0.89748 0.0
H2344 H 0.15855 0.31911 0.93765 0.0
H2345 H 0.15667 0.24916 0.90535 0.0
C2346 C 0.1993 0.26502 0.91185 0.0
C2347 C 0.22223 0.28553 0.92008 0.0
C2348 C 0.14319 0.30676 0.92891 0.0
C2349 C 0.17189 0.28558 0.92028 0.0
C2350 C 0.11961 0.30944 0.92727 0.0
C2351 C 0.09921 0.29331 0.91626 0.0
C2352 C 0.14657 0.28817 0.91925 0.0
C2353 C 0.10367 0.27565 0.9065 0.0
C2354 C 0.17401 0.26481 0.91203 0.0
C2355 C 0.21895 0.30517 0.92868 0.0
N2356 N 0.12681 0.27342 0.90827 0.0
N2357 N 0.1943 0.30479 0.92852 0.0
H2358 H 0.79702 0.8528 0.89952 0.0
H2359 H 0.73808 0.94581 0.93579 0.0
H2360 H 0.73212 0.82331 0.9341 0.0
H2361 H 0.80682 0.97803 0.90359 0.0
H2362 H 0.73842 0.902 0.93698 0.0
H2363 H 0.80273 0.89947 0.90164 0.0
C2364 C 0.78429 0.85638 0.90773 0.0
C2365 C 0.7648 0.83465 0.91709 0.0
C2366 C 0.75377 0.91874 0.92983 0.0
C2367 C 0.77067 0.88756 0.91936 0.0
C2368 C 0.75365 0.94376 0.92924 0.0
C2369 C 0.77273 0.96557 0.91979 0.0
C2370 C 0.7726 0.91518 0.92054 0.0
C2371 C 0.79218 0.96184 0.91128 0.0
C2372 C 0.78744 0.88291 0.9089 0.0
C2373 C 0.74787 0.83982 0.92701 0.0
N2374 N 0.79148 0.93698 0.91174 0.0
N2375 N 0.75133 0.8658 0.92798 0.0
H2376 H 0.52894 0.41534 0.42678 0.0
H2377 H 0.61101 0.57241 0.39521 0.0
H2378 H 0.49271 0.45032 0.39628 0.0
H2379 H 0.64287 0.54074 0.43064 0.0
H2380 H 0.56961 0.52607 0.39283 0.0
H2381 H 0.57371 0.45881 0.425 0.0
C2382 C 0.53069 0.43193 0.41936 0.0
C2383 C 0.50741 0.42919 0.4114 0.0
C2384 C 0.58575 0.52915 0.40103 0.0
C2385 C 0.5579 0.47931 0.40992 0.0
C2386 C 0.60929 0.55553 0.40236 0.0
C2387 C 0.63061 0.55992 0.41272 0.0
C2388 C 0.58332 0.50721 0.41039 0.0
C2389 C 0.62721 0.53777 0.42211 0.0
C2390 C 0.55607 0.45686 0.41852 0.0
C2391 C 0.51036 0.45163 0.40244 0.0
N2392 N 0.60405 0.51232 0.4207 0.0
N2393 N 0.5351 0.47579 0.40199 0.0
H2394 H 0.63668 0.12899 0.43132 0.0
H2395 H 0.48359 0.06828 0.39645 0.0
H2396 H 0.60153 0.06441 0.39653 0.0
H2397 H 0.52112 0.1381 0.42792 0.0
H2398 H 0.52793 0.06901 0.39473 0.0
H2399 H 0.5955 0.13431 0.4294 0.0
C2400 C 0.62039 0.11627 0.42309 0.0
C2401 C 0.62274 0.09695 0.41365 0.0
C2402 C 0.5267 0.08451 0.40182 0.0
C2403 C 0.57539 0.10231 0.41163 0.0
C2404 C 0.50144 0.08416 0.40273 0.0
C2405 C 0.49897 0.10346 0.41211 0.0
C2406 C 0.54945 0.10383 0.41074 0.0
C2407 C 0.52246 0.12329 0.42026 0.0
C2408 C 0.59688 0.11919 0.42204 0.0
C2409 C 0.60066 0.08002 0.4037 0.0
N2410 N 0.54671 0.12284 0.4195 0.0
N2411 N 0.57796 0.08319 0.40288 0.0
H2412 H 0.99022 0.44438 0.39399 0.0
H2413 H 0.93365 0.5374 0.43209 0.0
H2414 H 0.91796 0.41107 0.42364 0.0
H2415 H 0.99215 0.56639 0.39402 0.0
H2416 H 0.92871 0.49123 0.42958 0.0
H2417 H 0.99112 0.48895 0.39328 0.0
C2418 C 0.97415 0.44635 0.40004 0.0
C2419 C 0.95371 0.42403 0.40866 0.0
C2420 C 0.94243 0.50754 0.42165 0.0
C2421 C 0.95523 0.47509 0.40847 0.0
C2422 C 0.94519 0.53382 0.42307 0.0
C2423 C 0.96251 0.55522 0.41285 0.0
C2424 C 0.95746 0.50277 0.41006 0.0
C2425 C 0.97803 0.55008 0.40183 0.0
C2426 C 0.97474 0.47177 0.3997 0.0
C2427 C 0.93366 0.42765 0.41656 0.0
N2428 N 0.97501 0.52426 0.40064 0.0
N2429 N 0.93508 0.45282 0.41641 0.0
H2430 H 0.78689 0.15916 0.26936 0.0
H2431 H 0.87073 0.31668 0.23854 0.0
H2432 H 0.75681 0.19141 0.23326 0.0
H2433 H 0.90676 0.27997 0.26787 0.0
H2434 H 0.82572 0.27341 0.24016 0.0
H2435 H 0.82862 0.20524 0.27191 0.0
C2436 C 0.78906 0.17611 0.26209 0.0
C2437 C 0.76815 0.17197 0.25149 0.0
C2438 C 0.84338 0.27494 0.24642 0.0
C2439 C 0.8158 0.22436 0.25404 0.0
C2440 C 0.8689 0.29974 0.24568 0.0
C2441 C 0.89219 0.30193 0.25335 0.0
C2442 C 0.84141 0.25209 0.25464 0.0
C2443 C 0.88911 0.27908 0.26194 0.0
C2444 C 0.8128 0.20233 0.26352 0.0
C2445 C 0.77215 0.19419 0.24197 0.0
N2446 N 0.86423 0.25507 0.26232 0.0
N2447 N 0.79546 0.21949 0.2435 0.0
H2448 H 0.86356 0.58085 0.2375 0.0
H2449 H 0.78128 0.6563 0.26803 0.0
H2450 H 0.89992 0.65415 0.26642 0.0
H2451 H 0.74752 0.5898 0.23435 0.0
H2452 H 0.82316 0.65228 0.26994 0.0
H2453 H 0.81852 0.57912 0.2392 0.0
C2454 C 0.86182 0.59613 0.24453 0.0
C2455 C 0.88521 0.61736 0.25209 0.0
C2456 C 0.80653 0.63835 0.26222 0.0
C2457 C 0.83438 0.61636 0.25351 0.0
C2458 C 0.78268 0.64065 0.26117 0.0
C2459 C 0.76067 0.62263 0.2515 0.0
C2460 C 0.80863 0.61829 0.25323 0.0
C2461 C 0.76372 0.60332 0.24241 0.0
C2462 C 0.83627 0.59539 0.24533 0.0
C2463 C 0.88223 0.6373 0.26056 0.0
N2464 N 0.78724 0.60156 0.24353 0.0
N2465 N 0.85734 0.63637 0.26101 0.0
H2466 H 0.4007 0.27428 0.27052 0.0
H2467 H 0.47097 0.18527 0.2438 0.0
H2468 H 0.45773 0.29694 0.23194 0.0
H2469 H 0.39667 0.15141 0.27181 0.0
H2470 H 0.47268 0.23025 0.24348 0.0
H2471 H 0.40391 0.23217 0.27449 0.0
C2472 C 0.41412 0.27043 0.26301 0.0
C2473 C 0.42992 0.28949 0.25133 0.0
C2474 C 0.45622 0.2131 0.24988 0.0
C2475 C 0.43329 0.24138 0.25553 0.0
C2476 C 0.4555 0.18761 0.25027 0.0
C2477 C 0.43396 0.1649 0.25812 0.0
C2478 C 0.43502 0.21572 0.25723 0.0
C2479 C 0.41376 0.1686 0.26578 0.0
C2480 C 0.41592 0.24647 0.26524 0.0
C2481 C 0.44619 0.28323 0.2415 0.0
N2482 N 0.41473 0.19353 0.26513 0.0
N2483 N 0.44764 0.25978 0.24388 0.0
H2484 H 0.30397 0.87142 0.76783 0.0
H2485 H 0.15312 0.78241 0.72973 0.0
H2486 H 0.27301 0.90314 0.73193 0.0
H2487 H 0.18898 0.74714 0.76028 0.0
H2488 H 0.19761 0.8261 0.72931 0.0
H2489 H 0.26223 0.82551 0.76503 0.0
C2490 C 0.28846 0.86849 0.7592 0.0
C2491 C 0.2922 0.89061 0.74968 0.0
C2492 C 0.19597 0.8087 0.7359 0.0
C2493 C 0.24425 0.83854 0.7466 0.0
C2494 C 0.17065 0.78376 0.73606 0.0
C2495 C 0.16765 0.76113 0.74483 0.0
C2496 C 0.21825 0.81126 0.74495 0.0
C2497 C 0.19072 0.76397 0.75309 0.0
C2498 C 0.26464 0.84239 0.75763 0.0
C2499 C 0.27108 0.88629 0.73918 0.0
N2500 N 0.21501 0.7887 0.75307 0.0
N2501 N 0.24806 0.86068 0.73783 0.0
H2502 H 0.2729 0.39748 0.73156 0.0
H2503 H 0.19233 0.47562 0.76056 0.0
H2504 H 0.30594 0.4628 0.76596 0.0
H2505 H 0.15603 0.40332 0.73086 0.0
H2506 H 0.23668 0.47581 0.75984 0.0
H2507 H 0.23162 0.40244 0.72912 0.0
C2508 C 0.27145 0.41303 0.7385 0.0
C2509 C 0.29315 0.43054 0.74849 0.0
C2510 C 0.21911 0.46011 0.75332 0.0
C2511 C 0.24589 0.43599 0.74611 0.0
C2512 C 0.19399 0.46029 0.75354 0.0
C2513 C 0.17079 0.43974 0.74551 0.0
C2514 C 0.22074 0.43892 0.74523 0.0
C2515 C 0.1736 0.41966 0.73707 0.0
C2516 C 0.24794 0.41587 0.73713 0.0
C2517 C 0.29001 0.44971 0.75766 0.0
N2518 N 0.19805 0.41968 0.7372 0.0
N2519 N 0.26687 0.45204 0.7562 0.0
H2520 H 0.65573 0.78365 0.73329 0.0
H2521 H 0.58418 0.87147 0.76033 0.0
H2522 H 0.58959 0.75396 0.76712 0.0
H2523 H 0.65728 0.90427 0.73138 0.0
H2524 H 0.58141 0.82594 0.7601 0.0
H2525 H 0.65348 0.82636 0.73036 0.0
C2526 C 0.64057 0.78615 0.73999 0.0
C2527 C 0.62207 0.765 0.74998 0.0
C2528 C 0.59786 0.84299 0.75363 0.0
C2529 C 0.61974 0.81391 0.74705 0.0
C2530 C 0.59916 0.8688 0.75356 0.0
C2531 C 0.62061 0.89134 0.74555 0.0
C2532 C 0.61853 0.83998 0.74589 0.0
C2533 C 0.64024 0.88724 0.73753 0.0
C2534 C 0.63928 0.81047 0.73835 0.0
C2535 C 0.60344 0.76946 0.75884 0.0
N2536 N 0.63878 0.86209 0.73793 0.0
N2537 N 0.60263 0.79341 0.75712 0.0
H2538 H 0.56696 0.6082 0.60457 0.0
H2539 H 0.41044 0.52233 0.57241 0.0
H2540 H 0.53567 0.63562 0.56662 0.0
H2541 H 0.44666 0.48717 0.60279 0.0
H2542 H 0.45363 0.56737 0.57392 0.0
H2543 H 0.52104 0.56615 0.60703 0.0
C2544 C 0.55027 0.60536 0.59686 0.0
C2545 C 0.55456 0.62564 0.58577 0.0
C2546 C 0.45201 0.5499 0.58044 0.0
C2547 C 0.50242 0.57771 0.58824 0.0
C2548 C 0.42724 0.52438 0.57977 0.0
C2549 C 0.42495 0.50131 0.58775 0.0
C2550 C 0.47473 0.55211 0.58891 0.0
C2551 C 0.44763 0.50465 0.59661 0.0
C2552 C 0.52414 0.58146 0.59824 0.0
C2553 C 0.53272 0.6208 0.57569 0.0
N2554 N 0.47164 0.52955 0.59692 0.0
N2555 N 0.50751 0.59739 0.57721 0.0
H2556 H 0.41852 0.91805 0.5754 0.0
H2557 H 0.57784 0.99823 0.60331 0.0
H2558 H 0.45483 0.99298 0.60296 0.0
H2559 H 0.54511 0.93296 0.56887 0.0
H2560 H 0.53147 0.99309 0.60604 0.0
H2561 H 0.46283 0.91835 0.57642 0.0
C2562 C 0.43564 0.93411 0.58203 0.0
C2563 C 0.433 0.95521 0.58938 0.0
C2564 C 0.53434 0.97973 0.59797 0.0
C2565 C 0.484 0.95656 0.58996 0.0
C2566 C 0.56073 0.98266 0.59644 0.0
C2567 C 0.56482 0.96525 0.58631 0.0
C2568 C 0.51208 0.95958 0.58906 0.0
C2569 C 0.54239 0.94601 0.57725 0.0
C2570 C 0.46102 0.93454 0.58241 0.0
C2571 C 0.45606 0.9762 0.59729 0.0
N2572 N 0.5169 0.94357 0.57889 0.0
N2573 N 0.48063 0.97641 0.59733 0.0
H2574 H 0.06171 0.60388 0.60143 0.0
H2575 H 0.14015 0.52543 0.5698 0.0
H2576 H 0.13081 0.6408 0.5695 0.0
H2577 H 0.07126 0.48878 0.6019 0.0
H2578 H 0.14052 0.56967 0.57172 0.0
H2579 H 0.0667 0.56246 0.60307 0.0
C2580 C 0.07805 0.60323 0.59487 0.0
C2581 C 0.09654 0.62599 0.58579 0.0
C2582 C 0.12558 0.55209 0.57853 0.0
C2583 C 0.10209 0.57869 0.58725 0.0
C2584 C 0.12571 0.52702 0.57764 0.0
C2585 C 0.10611 0.50375 0.58602 0.0
C2586 C 0.10517 0.5536 0.58754 0.0
C2587 C 0.08692 0.50643 0.59541 0.0
C2588 C 0.08095 0.57968 0.59579 0.0
C2589 C 0.11682 0.62396 0.57708 0.0
N2590 N 0.08681 0.53083 0.59586 0.0
N2591 N 0.11914 0.60077 0.57806 0.0
loop_
_geom_bond_atom_site_label_1
_geom_bond_atom_site_label_2
_geom_bond_distance
_geom_bond_site_symmetry_2
_ccdc_geom_bond_type
Mn0 O5 2.095 . S
Mn0 O15 2.162 . S
Mn0 O16 2.297 . S
Mn0 O24 2.385 1_455 S
Mn0 O25 2.209 . S
Mn0 O26 2.094 . S
Mn1 O6 2.121 . S
Mn1 N8 2.257 . S
Mn1 N17 2.282 1_455 S
Mn1 O25 2.215 . S
Mn1 O27 2.117 . S
C2 O24 1.234 . S
C2 O25 1.283 1_655 S
C3 O15 1.281 . S
C3 O16 1.236 . S
C4 O26 1.240 . S
C4 O27 1.264 . S
O5 Mn0 2.095 . S
O5 C14 1.250 . S
O6 Mn1 2.121 . S
O6 C14 1.258 . S
C7 N8 1.326 . S
C7 C11 1.460 . S
C7 H13 0.929 . S
N8 Mn1 2.257 . S
N8 C7 1.326 . S
N8 C12 1.362 1_455 S
C9 C10 1.258 1_655 S
C9 C12 1.431 . S
C9 C29 1.449 . S
C10 C9 1.258 1_455 S
C10 C11 1.477 . S
C10 H30 0.931 1_455 S
C11 C7 1.460 . S
C11 C10 1.477 . S
C11 H31 0.930 . S
C12 N8 1.362 1_655 S
C12 C9 1.431 . S
C12 C22 1.476 . S
H13 C7 0.929 . S
C14 O5 1.250 . S
C14 O6 1.258 . S
O15 Mn0 2.162 . S
O15 C3 1.281 . S
O16 Mn0 2.297 . S
O16 C3 1.236 . S
N17 Mn1 2.282 1_655 S
N17 C18 1.328 . S
N17 C22 1.318 . S
C18 N17 1.328 . S
C18 C19 1.457 . S
C18 H23 0.929 . S
C19 C18 1.457 . S
C19 C20 1.291 . S
C19 H32 0.931 . S
C20 C19 1.291 . S
C20 C21 1.373 . S
C20 H33 0.929 . S
C21 C20 1.373 . S
C21 C22 1.396 . S
C21 C28 1.403 . S
C22 C12 1.476 . S
C22 N17 1.318 . S
C22 C21 1.396 . S
H23 C18 0.929 . S
O24 Mn0 2.385 1_655 S
O24 C2 1.234 . S
O25 Mn0 2.209 . S
O25 Mn1 2.215 . S
O25 C2 1.283 1_455 S
O26 Mn0 2.094 . S
O26 C4 1.240 . S
O27 Mn1 2.117 . S
O27 C4 1.264 . S
C28 C21 1.403 . S
C28 C29 1.399 . S
C28 H34 0.929 . S
C29 C9 1.449 . S
C29 C28 1.399 . S
C29 H35 0.930 . S
H30 C10 0.931 1_655 S
H31 C11 0.930 . S
H32 C19 0.931 . S
H33 C20 0.929 . S
H34 C28 0.929 . S
H35 C29 0.930 . S
Mn36 O41 2.095 . S
Mn36 O51 2.162 . S
Mn36 O52 2.297 . S
Mn36 O60 2.385 . S
Mn36 O61 2.209 . S
Mn36 O62 2.094 . S
Mn37 O42 2.121 . S
Mn37 N44 2.257 . S
Mn37 N53 2.282 . S
Mn37 O61 2.215 . S
Mn37 O63 2.117 . S
C38 O60 1.234 . S
C38 O61 1.283 . S
C39 O51 1.281 . S
C39 O52 1.236 . S
C40 O62 1.240 . S
C40 O63 1.264 . S
O41 Mn36 2.095 . S
O41 C50 1.250 . S
O42 Mn37 2.121 . S
O42 C50 1.258 . S
C43 N44 1.326 . S
C43 C47 1.460 . S
C43 H49 0.929 . S
N44 Mn37 2.257 . S
N44 C43 1.326 . S
N44 C48 1.362 . S
C45 C46 1.258 . S
C45 C48 1.431 . S
C45 C65 1.449 . S
C46 C45 1.258 . S
C46 C47 1.477 . S
C46 H66 0.931 . S
C47 C43 1.460 . S
C47 C46 1.477 . S
C47 H67 0.930 . S
C48 N44 1.362 . S
C48 C45 1.431 . S
C48 C58 1.476 . S
H49 C43 0.929 . S
C50 O41 1.250 . S
C50 O42 1.258 . S
O51 Mn36 2.162 . S
O51 C39 1.281 . S
O52 Mn36 2.297 . S
O52 C39 1.236 . S
N53 Mn37 2.282 . S
N53 C54 1.328 . S
N53 C58 1.318 . S
C54 N53 1.328 . S
C54 C55 1.457 . S
C54 H59 0.929 . S
C55 C54 1.457 . S
C55 C56 1.291 . S
C55 H68 0.931 . S
C56 C55 1.291 . S
C56 C57 1.373 . S
C56 H69 0.929 . S
C57 C56 1.373 . S
C57 C58 1.396 . S
C57 C64 1.403 . S
C58 C48 1.476 . S
C58 N53 1.318 . S
C58 C57 1.396 . S
H59 C54 0.929 . S
O60 Mn36 2.385 . S
O60 C38 1.234 . S
O61 Mn36 2.209 . S
O61 Mn37 2.215 . S
O61 C38 1.283 . S
O62 Mn36 2.094 . S
O62 C40 1.240 . S
O63 Mn37 2.117 . S
O63 C40 1.264 . S
C64 C57 1.403 . S
C64 C65 1.399 . S
C64 H70 0.929 . S
C65 C45 1.449 . S
C65 C64 1.399 . S
C65 H71 0.930 . S
H66 C46 0.931 . S
H67 C47 0.930 . S
H68 C55 0.931 . S
H69 C56 0.929 . S
H70 C64 0.929 . S
H71 C65 0.930 . S
Mn72 O77 2.095 1_545 S
Mn72 O87 2.162 . S
Mn72 O88 2.297 . S
Mn72 O96 2.385 . S
Mn72 O97 2.209 . S
Mn72 O98 2.094 . S
Mn73 O78 2.121 1_545 S
Mn73 N80 2.257 . S
Mn73 N89 2.282 . S
Mn73 O97 2.215 . S
Mn73 O99 2.117 . S
C74 O96 1.234 . S
C74 O97 1.283 . S
C75 O87 1.281 . S
C75 O88 1.236 . S
C76 O98 1.240 . S
C76 O99 1.264 . S
O77 Mn72 2.095 1_565 S
O77 C86 1.250 . S
O78 Mn73 2.121 1_565 S
O78 C86 1.258 . S
C79 N80 1.326 . S
C79 C83 1.460 . S
C79 H85 0.929 . S
N80 Mn73 2.257 . S
N80 C79 1.326 . S
N80 C84 1.362 . S
C81 C82 1.258 . S
C81 C84 1.431 . S
C81 C101 1.449 . S
C82 C81 1.258 . S
C82 C83 1.477 . S
C82 H102 0.931 . S
C83 C79 1.460 . S
C83 C82 1.477 . S
C83 H103 0.930 . S
C84 N80 1.362 . S
C84 C81 1.431 . S
C84 C94 1.476 . S
H85 C79 0.929 . S
C86 O77 1.250 . S
C86 O78 1.258 . S
O87 Mn72 2.162 . S
O87 C75 1.281 . S
O88 Mn72 2.297 . S
O88 C75 1.236 . S
N89 Mn73 2.282 . S
N89 C90 1.328 . S
N89 C94 1.318 . S
C90 N89 1.328 . S
C90 C91 1.457 . S
C90 H95 0.929 . S
C91 C90 1.457 . S
C91 C92 1.291 . S
C91 H104 0.931 . S
C92 C91 1.291 . S
C92 C93 1.373 . S
C92 H105 0.929 . S
C93 C92 1.373 . S
C93 C94 1.396 . S
C93 C100 1.403 . S
C94 C84 1.476 . S
C94 N89 1.318 . S
C94 C93 1.396 . S
H95 C90 0.929 . S
O96 Mn72 2.385 . S
O96 C74 1.234 . S
O97 Mn72 2.209 . S
O97 Mn73 2.215 . S
O97 C74 1.283 . S
O98 Mn72 2.094 . S
O98 C76 1.240 . S
O99 Mn73 2.117 . S
O99 C76 1.264 . S
C100 C93 1.403 . S
C100 C101 1.399 . S
C100 H106 0.929 . S
C101 C81 1.449 . S
C101 C100 1.399 . S
C101 H107 0.930 . S
H102 C82 0.931 . S
H103 C83 0.930 . S
H104 C91 0.931 . S
H105 C92 0.929 . S
H106 C100 0.929 . S
H107 C101 0.930 . S
Mn108 O113 2.095 . S
Mn108 O123 2.162 . S
Mn108 O124 2.297 . S
Mn108 O132 2.385 1_545 S
Mn108 O133 2.209 . S
Mn108 O134 2.094 . S
Mn109 O114 2.121 . S
Mn109 N116 2.257 . S
Mn109 N125 2.282 1_545 S
Mn109 O133 2.215 . S
Mn109 O135 2.117 . S
C110 O132 1.234 . S
C110 O133 1.283 1_565 S
C111 O123 1.281 . S
C111 O124 1.236 . S
C112 O134 1.240 . S
C112 O135 1.264 . S
O113 Mn108 2.095 . S
O113 C122 1.250 . S
O114 Mn109 2.121 . S
O114 C122 1.258 . S
C115 N116 1.326 . S
C115 C119 1.460 . S
C115 H121 0.929 . S
N116 Mn109 2.257 . S
N116 C115 1.326 . S
N116 C120 1.362 1_545 S
C117 C118 1.258 1_565 S
C117 C120 1.431 . S
C117 C137 1.449 . S
C118 C117 1.258 1_545 S
C118 C119 1.477 . S
C118 H138 0.931 1_545 S
C119 C115 1.460 . S
C119 C118 1.477 . S
C119 H139 0.930 . S
C120 N116 1.362 1_565 S
C120 C117 1.431 . S
C120 C130 1.476 . S
H121 C115 0.929 . S
C122 O113 1.250 . S
C122 O114 1.258 . S
O123 Mn108 2.162 . S
O123 C111 1.281 . S
O124 Mn108 2.297 . S
O124 C111 1.236 . S
N125 Mn109 2.282 1_565 S
N125 C126 1.328 . S
N125 C130 1.318 . S
C126 N125 1.328 . S
C126 C127 1.457 . S
C126 H131 0.929 . S
C127 C126 1.457 . S
C127 C128 1.291 . S
C127 H140 0.931 . S
C128 C127 1.291 . S
C128 C129 1.373 . S
C128 H141 0.929 . S
C129 C128 1.373 . S
C129 C130 1.396 . S
C129 C136 1.403 . S
C130 C120 1.476 . S
C130 N125 1.318 . S
C130 C129 1.396 . S
H131 C126 0.929 . S
O132 Mn108 2.385 1_565 S
O132 C110 1.234 . S
O133 Mn108 2.209 . S
O133 Mn109 2.215 . S
O133 C110 1.283 1_545 S
O134 Mn108 2.094 . S
O134 C112 1.240 . S
O135 Mn109 2.117 . S
O135 C112 1.264 . S
C136 C129 1.403 . S
C136 C137 1.399 . S
C136 H142 0.929 . S
C137 C117 1.449 . S
C137 C136 1.399 . S
C137 H143 0.930 . S
H138 C118 0.931 1_565 S
H139 C119 0.930 . S
H140 C127 0.931 . S
H141 C128 0.929 . S
H142 C136 0.929 . S
H143 C137 0.930 . S
Mn144 O149 2.095 1_455 S
Mn144 O159 2.162 . S
Mn144 O160 2.297 . S
Mn144 O168 2.385 . S
Mn144 O169 2.209 . S
Mn144 O170 2.094 . S
Mn145 O150 2.121 1_455 S
Mn145 N152 2.257 . S
Mn145 N161 2.282 . S
Mn145 O169 2.215 . S
Mn145 O171 2.117 . S
C146 O168 1.234 . S
C146 O169 1.283 . S
C147 O159 1.281 . S
C147 O160 1.236 . S
C148 O170 1.240 . S
C148 O171 1.264 . S
O149 Mn144 2.095 1_655 S
O149 C158 1.250 . S
O150 Mn145 2.121 1_655 S
O150 C158 1.258 . S
C151 N152 1.326 . S
C151 C155 1.460 . S
C151 H157 0.929 . S
N152 Mn145 2.257 . S
N152 C151 1.326 . S
N152 C156 1.362 . S
C153 C154 1.258 . S
C153 C156 1.431 . S
C153 C173 1.449 . S
C154 C153 1.258 . S
C154 C155 1.477 . S
C154 H174 0.931 . S
C155 C151 1.460 . S
C155 C154 1.477 . S
C155 H175 0.930 . S
C156 N152 1.362 . S
C156 C153 1.431 . S
C156 C166 1.476 . S
H157 C151 0.929 . S
C158 O149 1.250 . S
C158 O150 1.258 . S
O159 Mn144 2.162 . S
O159 C147 1.281 . S
O160 Mn144 2.297 . S
O160 C147 1.236 . S
N161 Mn145 2.282 . S
N161 C162 1.328 . S
N161 C166 1.318 . S
C162 N161 1.328 . S
C162 C163 1.457 . S
C162 H167 0.929 . S
C163 C162 1.457 . S
C163 C164 1.291 . S
C163 H176 0.931 . S
C164 C163 1.291 . S
C164 C165 1.373 . S
C164 H177 0.929 . S
C165 C164 1.373 . S
C165 C166 1.396 . S
C165 C172 1.403 . S
C166 C156 1.476 . S
C166 N161 1.318 . S
C166 C165 1.396 . S
H167 C162 0.929 . S
O168 Mn144 2.385 . S
O168 C146 1.234 . S
O169 Mn144 2.209 . S
O169 Mn145 2.215 . S
O169 C146 1.283 . S
O170 Mn144 2.094 . S
O170 C148 1.240 . S
O171 Mn145 2.117 . S
O171 C148 1.264 . S
C172 C165 1.403 . S
C172 C173 1.399 . S
C172 H178 0.929 . S
C173 C153 1.449 . S
C173 C172 1.399 . S
C173 H179 0.930 . S
H174 C154 0.931 . S
H175 C155 0.930 . S
H176 C163 0.931 . S
H177 C164 0.929 . S
H178 C172 0.929 . S
H179 C173 0.930 . S
Mn180 O185 2.095 . S
Mn180 O195 2.162 . S
Mn180 O196 2.297 . S
Mn180 O204 2.385 . S
Mn180 O205 2.209 . S
Mn180 O206 2.094 . S
Mn181 O186 2.121 . S
Mn181 N188 2.257 . S
Mn181 N197 2.282 . S
Mn181 O205 2.215 . S
Mn181 O207 2.117 . S
C182 O204 1.234 . S
C182 O205 1.283 . S
C183 O195 1.281 . S
C183 O196 1.236 . S
C184 O206 1.240 . S
C184 O207 1.264 . S
O185 Mn180 2.095 . S
O185 C194 1.250 . S
O186 Mn181 2.121 . S
O186 C194 1.258 . S
C187 N188 1.326 . S
C187 C191 1.460 . S
C187 H193 0.929 . S
N188 Mn181 2.257 . S
N188 C187 1.326 . S
N188 C192 1.362 . S
C189 C190 1.258 . S
C189 C192 1.431 . S
C189 C209 1.449 . S
C190 C189 1.258 . S
C190 C191 1.477 . S
C190 H210 0.931 . S
C191 C187 1.460 . S
C191 C190 1.477 . S
C191 H211 0.930 . S
C192 N188 1.362 . S
C192 C189 1.431 . S
C192 C202 1.476 . S
H193 C187 0.929 . S
C194 O185 1.250 . S
C194 O186 1.258 . S
O195 Mn180 2.162 . S
O195 C183 1.281 . S
O196 Mn180 2.297 . S
O196 C183 1.236 . S
N197 Mn181 2.282 . S
N197 C198 1.328 . S
N197 C202 1.318 . S
C198 N197 1.328 . S
C198 C199 1.457 . S
C198 H203 0.929 . S
C199 C198 1.457 . S
C199 C200 1.291 . S
C199 H212 0.931 . S
C200 C199 1.291 . S
C200 C201 1.373 . S
C200 H213 0.929 . S
C201 C200 1.373 . S
C201 C202 1.396 . S
C201 C208 1.403 . S
C202 C192 1.476 . S
C202 N197 1.318 . S
C202 C201 1.396 . S
H203 C198 0.929 . S
O204 Mn180 2.385 . S
O204 C182 1.234 . S
O205 Mn180 2.209 . S
O205 Mn181 2.215 . S
O205 C182 1.283 . S
O206 Mn180 2.094 . S
O206 C184 1.240 . S
O207 Mn181 2.117 . S
O207 C184 1.264 . S
C208 C201 1.403 . S
C208 C209 1.399 . S
C208 H214 0.929 . S
C209 C189 1.449 . S
C209 C208 1.399 . S
C209 H215 0.930 . S
H210 C190 0.931 . S
H211 C191 0.930 . S
H212 C199 0.931 . S
H213 C200 0.929 . S
H214 C208 0.929 . S
H215 C209 0.930 . S
Mn216 O221 2.095 1_455 S
Mn216 O231 2.162 . S
Mn216 O232 2.297 . S
Mn216 O240 2.385 . S
Mn216 O241 2.209 . S
Mn216 O242 2.094 . S
Mn217 O222 2.121 1_455 S
Mn217 N224 2.257 . S
Mn217 N233 2.282 . S
Mn217 O241 2.215 . S
Mn217 O243 2.117 . S
C218 O240 1.234 . S
C218 O241 1.283 . S
C219 O231 1.281 . S
C219 O232 1.236 . S
C220 O242 1.240 . S
C220 O243 1.264 . S
O221 Mn216 2.095 1_655 S
O221 C230 1.250 . S
O222 Mn217 2.121 1_655 S
O222 C230 1.258 . S
C223 N224 1.326 . S
C223 C227 1.460 . S
C223 H229 0.929 . S
N224 Mn217 2.257 . S
N224 C223 1.326 . S
N224 C228 1.362 . S
C225 C226 1.258 . S
C225 C228 1.431 . S
C225 C245 1.449 . S
C226 C225 1.258 . S
C226 C227 1.477 . S
C226 H246 0.931 . S
C227 C223 1.460 . S
C227 C226 1.477 . S
C227 H247 0.930 . S
C228 N224 1.362 . S
C228 C225 1.431 . S
C228 C238 1.476 . S
H229 C223 0.929 . S
C230 O221 1.250 . S
C230 O222 1.258 . S
O231 Mn216 2.162 . S
O231 C219 1.281 . S
O232 Mn216 2.297 . S
O232 C219 1.236 . S
N233 Mn217 2.282 . S
N233 C234 1.328 . S
N233 C238 1.318 . S
C234 N233 1.328 . S
C234 C235 1.457 . S
C234 H239 0.929 . S
C235 C234 1.457 . S
C235 C236 1.291 . S
C235 H248 0.931 . S
C236 C235 1.291 . S
C236 C237 1.373 . S
C236 H249 0.929 . S
C237 C236 1.373 . S
C237 C238 1.396 . S
C237 C244 1.403 . S
C238 C228 1.476 . S
C238 N233 1.318 . S
C238 C237 1.396 . S
H239 C234 0.929 . S
O240 Mn216 2.385 . S
O240 C218 1.234 . S
O241 Mn216 2.209 . S
O241 Mn217 2.215 . S
O241 C218 1.283 . S
O242 Mn216 2.094 . S
O242 C220 1.240 . S
O243 Mn217 2.117 . S
O243 C220 1.264 . S
C244 C237 1.403 . S
C244 C245 1.399 . S
C244 H250 0.929 . S
C245 C225 1.449 . S
C245 C244 1.399 . S
C245 H251 0.930 . S
H246 C226 0.931 . S
H247 C227 0.930 . S
H248 C235 0.931 . S
H249 C236 0.929 . S
H250 C244 0.929 . S
H251 C245 0.930 . S
Mn252 O257 2.095 . S
Mn252 O267 2.162 . S
Mn252 O268 2.297 . S
Mn252 O276 2.385 . S
Mn252 O277 2.209 . S
Mn252 O278 2.094 . S
Mn253 O258 2.121 . S
Mn253 N260 2.257 . S
Mn253 N269 2.282 . S
Mn253 O277 2.215 . S
Mn253 O279 2.117 . S
C254 O276 1.234 . S
C254 O277 1.283 . S
C255 O267 1.281 . S
C255 O268 1.236 . S
C256 O278 1.240 . S
C256 O279 1.264 . S
O257 Mn252 2.095 . S
O257 C266 1.250 . S
O258 Mn253 2.121 . S
O258 C266 1.258 . S
C259 N260 1.326 . S
C259 C263 1.460 . S
C259 H265 0.929 . S
N260 Mn253 2.257 . S
N260 C259 1.326 . S
N260 C264 1.362 . S
C261 C262 1.258 . S
C261 C264 1.431 . S
C261 C281 1.449 . S
C262 C261 1.258 . S
C262 C263 1.477 . S
C262 H282 0.931 . S
C263 C259 1.460 . S
C263 C262 1.477 . S
C263 H283 0.930 . S
C264 N260 1.362 . S
C264 C261 1.431 . S
C264 C274 1.476 . S
H265 C259 0.929 . S
C266 O257 1.250 . S
C266 O258 1.258 . S
O267 Mn252 2.162 . S
O267 C255 1.281 . S
O268 Mn252 2.297 . S
O268 C255 1.236 . S
N269 Mn253 2.282 . S
N269 C270 1.328 . S
N269 C274 1.318 . S
C270 N269 1.328 . S
C270 C271 1.457 . S
C270 H275 0.929 . S
C271 C270 1.457 . S
C271 C272 1.291 . S
C271 H284 0.931 . S
C272 C271 1.291 . S
C272 C273 1.373 . S
C272 H285 0.929 . S
C273 C272 1.373 . S
C273 C274 1.396 . S
C273 C280 1.403 . S
C274 C264 1.476 . S
C274 N269 1.318 . S
C274 C273 1.396 . S
H275 C270 0.929 . S
O276 Mn252 2.385 . S
O276 C254 1.234 . S
O277 Mn252 2.209 . S
O277 Mn253 2.215 . S
O277 C254 1.283 . S
O278 Mn252 2.094 . S
O278 C256 1.240 . S
O279 Mn253 2.117 . S
O279 C256 1.264 . S
C280 C273 1.403 . S
C280 C281 1.399 . S
C280 H286 0.929 . S
C281 C261 1.449 . S
C281 C280 1.399 . S
C281 H287 0.930 . S
H282 C262 0.931 . S
H283 C263 0.930 . S
H284 C271 0.931 . S
H285 C272 0.929 . S
H286 C280 0.929 . S
H287 C281 0.930 . S
Mn288 O293 2.095 . S
Mn288 O303 2.162 . S
Mn288 O304 2.297 . S
Mn288 O312 2.385 1_545 S
Mn288 O313 2.209 . S
Mn288 O314 2.094 . S
Mn289 O294 2.121 . S
Mn289 N296 2.257 . S
Mn289 N305 2.282 1_545 S
Mn289 O313 2.215 . S
Mn289 O315 2.117 . S
C290 O312 1.234 . S
C290 O313 1.283 1_565 S
C291 O303 1.281 . S
C291 O304 1.236 . S
C292 O314 1.240 . S
C292 O315 1.264 . S
O293 Mn288 2.095 . S
O293 C302 1.250 . S
O294 Mn289 2.121 . S
O294 C302 1.258 . S
C295 N296 1.326 . S
C295 C299 1.460 . S
C295 H301 0.929 . S
N296 Mn289 2.257 . S
N296 C295 1.326 . S
N296 C300 1.362 1_545 S
C297 C298 1.258 1_565 S
C297 C300 1.431 . S
C297 C317 1.449 . S
C298 C297 1.258 1_545 S
C298 C299 1.477 . S
C298 H318 0.931 1_545 S
C299 C295 1.460 . S
C299 C298 1.477 . S
C299 H319 0.930 . S
C300 N296 1.362 1_565 S
C300 C297 1.431 . S
C300 C310 1.476 . S
H301 C295 0.929 . S
C302 O293 1.250 . S
C302 O294 1.258 . S
O303 Mn288 2.162 . S
O303 C291 1.281 . S
O304 Mn288 2.297 . S
O304 C291 1.236 . S
N305 Mn289 2.282 1_565 S
N305 C306 1.328 . S
N305 C310 1.318 . S
C306 N305 1.328 . S
C306 C307 1.457 . S
C306 H311 0.929 . S
C307 C306 1.457 . S
C307 C308 1.291 . S
C307 H320 0.931 . S
C308 C307 1.291 . S
C308 C309 1.373 . S
C308 H321 0.929 . S
C309 C308 1.373 . S
C309 C310 1.396 . S
C309 C316 1.403 . S
C310 C300 1.476 . S
C310 N305 1.318 . S
C310 C309 1.396 . S
H311 C306 0.929 . S
O312 Mn288 2.385 1_565 S
O312 C290 1.234 . S
O313 Mn288 2.209 . S
O313 Mn289 2.215 . S
O313 C290 1.283 1_545 S
O314 Mn288 2.094 . S
O314 C292 1.240 . S
O315 Mn289 2.117 . S
O315 C292 1.264 . S
C316 C309 1.403 . S
C316 C317 1.399 . S
C316 H322 0.929 . S
C317 C297 1.449 . S
C317 C316 1.399 . S
C317 H323 0.930 . S
H318 C298 0.931 1_565 S
H319 C299 0.930 . S
H320 C307 0.931 . S
H321 C308 0.929 . S
H322 C316 0.929 . S
H323 C317 0.930 . S
Mn324 O329 2.095 1_545 S
Mn324 O339 2.162 . S
Mn324 O340 2.297 . S
Mn324 O348 2.385 . S
Mn324 O349 2.209 . S
Mn324 O350 2.094 . S
Mn325 O330 2.121 1_545 S
Mn325 N332 2.257 . S
Mn325 N341 2.282 . S
Mn325 O349 2.215 . S
Mn325 O351 2.117 . S
C326 O348 1.234 . S
C326 O349 1.283 . S
C327 O339 1.281 . S
C327 O340 1.236 . S
C328 O350 1.240 . S
C328 O351 1.264 . S
O329 Mn324 2.095 1_565 S
O329 C338 1.250 . S
O330 Mn325 2.121 1_565 S
O330 C338 1.258 . S
C331 N332 1.326 . S
C331 C335 1.460 . S
C331 H337 0.929 . S
N332 Mn325 2.257 . S
N332 C331 1.326 . S
N332 C336 1.362 . S
C333 C334 1.258 . S
C333 C336 1.431 . S
C333 C353 1.449 . S
C334 C333 1.258 . S
C334 C335 1.477 . S
C334 H354 0.931 . S
C335 C331 1.460 . S
C335 C334 1.477 . S
C335 H355 0.930 . S
C336 N332 1.362 . S
C336 C333 1.431 . S
C336 C346 1.476 . S
H337 C331 0.929 . S
C338 O329 1.250 . S
C338 O330 1.258 . S
O339 Mn324 2.162 . S
O339 C327 1.281 . S
O340 Mn324 2.297 . S
O340 C327 1.236 . S
N341 Mn325 2.282 . S
N341 C342 1.328 . S
N341 C346 1.318 . S
C342 N341 1.328 . S
C342 C343 1.457 . S
C342 H347 0.929 . S
C343 C342 1.457 . S
C343 C344 1.291 . S
C343 H356 0.931 . S
C344 C343 1.291 . S
C344 C345 1.373 . S
C344 H357 0.929 . S
C345 C344 1.373 . S
C345 C346 1.396 . S
C345 C352 1.403 . S
C346 C336 1.476 . S
C346 N341 1.318 . S
C346 C345 1.396 . S
H347 C342 0.929 . S
O348 Mn324 2.385 . S
O348 C326 1.234 . S
O349 Mn324 2.209 . S
O349 Mn325 2.215 . S
O349 C326 1.283 . S
O350 Mn324 2.094 . S
O350 C328 1.240 . S
O351 Mn325 2.117 . S
O351 C328 1.264 . S
C352 C345 1.403 . S
C352 C353 1.399 . S
C352 H358 0.929 . S
C353 C333 1.449 . S
C353 C352 1.399 . S
C353 H359 0.930 . S
H354 C334 0.931 . S
H355 C335 0.930 . S
H356 C343 0.931 . S
H357 C344 0.929 . S
H358 C352 0.929 . S
H359 C353 0.930 . S
Mn360 O365 2.095 . S
Mn360 O375 2.162 . S
Mn360 O376 2.297 . S
Mn360 O384 2.385 1_455 S
Mn360 O385 2.209 . S
Mn360 O386 2.094 . S
Mn361 O366 2.121 . S
Mn361 N368 2.257 . S
Mn361 N377 2.282 1_455 S
Mn361 O385 2.215 . S
Mn361 O387 2.117 . S
C362 O384 1.234 . S
C362 O385 1.283 1_655 S
C363 O375 1.281 . S
C363 O376 1.236 . S
C364 O386 1.240 . S
C364 O387 1.264 . S
O365 Mn360 2.095 . S
O365 C374 1.250 . S
O366 Mn361 2.121 . S
O366 C374 1.258 . S
C367 N368 1.326 . S
C367 C371 1.460 . S
C367 H373 0.929 . S
N368 Mn361 2.257 . S
N368 C367 1.326 . S
N368 C372 1.362 1_455 S
C369 C370 1.258 1_655 S
C369 C372 1.431 . S
C369 C389 1.449 . S
C370 C369 1.258 1_455 S
C370 C371 1.477 . S
C370 H390 0.931 1_455 S
C371 C367 1.460 . S
C371 C370 1.477 . S
C371 H391 0.930 . S
C372 N368 1.362 1_655 S
C372 C369 1.431 . S
C372 C382 1.476 . S
H373 C367 0.929 . S
C374 O365 1.250 . S
C374 O366 1.258 . S
O375 Mn360 2.162 . S
O375 C363 1.281 . S
O376 Mn360 2.297 . S
O376 C363 1.236 . S
N377 Mn361 2.282 1_655 S
N377 C378 1.328 . S
N377 C382 1.318 . S
C378 N377 1.328 . S
C378 C379 1.457 . S
C378 H383 0.929 . S
C379 C378 1.457 . S
C379 C380 1.291 . S
C379 H392 0.931 . S
C380 C379 1.291 . S
C380 C381 1.373 . S
C380 H393 0.929 . S
C381 C380 1.373 . S
C381 C382 1.396 . S
C381 C388 1.403 . S
C382 C372 1.476 . S
C382 N377 1.318 . S
C382 C381 1.396 . S
H383 C378 0.929 . S
O384 Mn360 2.385 1_655 S
O384 C362 1.234 . S
O385 Mn360 2.209 . S
O385 Mn361 2.215 . S
O385 C362 1.283 1_455 S
O386 Mn360 2.094 . S
O386 C364 1.240 . S
O387 Mn361 2.117 . S
O387 C364 1.264 . S
C388 C381 1.403 . S
C388 C389 1.399 . S
C388 H394 0.929 . S
C389 C369 1.449 . S
C389 C388 1.399 . S
C389 H395 0.930 . S
H390 C370 0.931 1_655 S
H391 C371 0.930 . S
H392 C379 0.931 . S
H393 C380 0.929 . S
H394 C388 0.929 . S
H395 C389 0.930 . S
Mn396 O401 2.095 . S
Mn396 O411 2.162 . S
Mn396 O412 2.297 . S
Mn396 O420 2.385 . S
Mn396 O421 2.209 . S
Mn396 O422 2.094 . S
Mn397 O402 2.121 . S
Mn397 N404 2.257 . S
Mn397 N413 2.282 . S
Mn397 O421 2.215 . S
Mn397 O423 2.117 . S
C398 O420 1.234 . S
C398 O421 1.283 . S
C399 O411 1.281 . S
C399 O412 1.236 . S
C400 O422 1.240 . S
C400 O423 1.264 . S
O401 Mn396 2.095 . S
O401 C410 1.250 . S
O402 Mn397 2.121 . S
O402 C410 1.258 . S
C403 N404 1.326 . S
C403 C407 1.460 . S
C403 H409 0.929 . S
N404 Mn397 2.257 . S
N404 C403 1.326 . S
N404 C408 1.362 . S
C405 C406 1.258 . S
C405 C408 1.431 . S
C405 C425 1.449 . S
C406 C405 1.258 . S
C406 C407 1.477 . S
C406 H426 0.931 . S
C407 C403 1.460 . S
C407 C406 1.477 . S
C407 H427 0.930 . S
C408 N404 1.362 . S
C408 C405 1.431 . S
C408 C418 1.476 . S
H409 C403 0.929 . S
C410 O401 1.250 . S
C410 O402 1.258 . S
O411 Mn396 2.162 . S
O411 C399 1.281 . S
O412 Mn396 2.297 . S
O412 C399 1.236 . S
N413 Mn397 2.282 . S
N413 C414 1.328 . S
N413 C418 1.318 . S
C414 N413 1.328 . S
C414 C415 1.457 . S
C414 H419 0.929 . S
C415 C414 1.457 . S
C415 C416 1.291 . S
C415 H428 0.931 . S
C416 C415 1.291 . S
C416 C417 1.373 . S
C416 H429 0.929 . S
C417 C416 1.373 . S
C417 C418 1.396 . S
C417 C424 1.403 . S
C418 C408 1.476 . S
C418 N413 1.318 . S
C418 C417 1.396 . S
H419 C414 0.929 . S
O420 Mn396 2.385 . S
O420 C398 1.234 . S
O421 Mn396 2.209 . S
O421 Mn397 2.215 . S
O421 C398 1.283 . S
O422 Mn396 2.094 . S
O422 C400 1.240 . S
O423 Mn397 2.117 . S
O423 C400 1.264 . S
C424 C417 1.403 . S
C424 C425 1.399 . S
C424 H430 0.929 . S
C425 C405 1.449 . S
C425 C424 1.399 . S
C425 H431 0.930 . S
H426 C406 0.931 . S
H427 C407 0.930 . S
H428 C415 0.931 . S
H429 C416 0.929 . S
H430 C424 0.929 . S
H431 C425 0.930 . S
Mn432 O437 2.095 . S
Mn432 O447 2.162 . S
Mn432 O448 2.297 . S
Mn432 O456 2.385 . S
Mn432 O457 2.209 . S
Mn432 O458 2.094 . S
Mn433 O438 2.121 . S
Mn433 N440 2.257 . S
Mn433 N449 2.282 . S
Mn433 O457 2.215 . S
Mn433 O459 2.117 . S
C434 O456 1.234 . S
C434 O457 1.283 . S
C435 O447 1.281 . S
C435 O448 1.236 . S
C436 O458 1.240 . S
C436 O459 1.264 . S
O437 Mn432 2.095 . S
O437 C446 1.250 . S
O438 Mn433 2.121 . S
O438 C446 1.258 . S
C439 N440 1.326 . S
C439 C443 1.460 . S
C439 H445 0.929 . S
N440 Mn433 2.257 . S
N440 C439 1.326 . S
N440 C444 1.362 . S
C441 C442 1.258 . S
C441 C444 1.431 . S
C441 C461 1.449 . S
C442 C441 1.258 . S
C442 C443 1.477 . S
C442 H462 0.931 . S
C443 C439 1.460 . S
C443 C442 1.477 . S
C443 H463 0.930 . S
C444 N440 1.362 . S
C444 C441 1.431 . S
C444 C454 1.476 . S
H445 C439 0.929 . S
C446 O437 1.250 . S
C446 O438 1.258 . S
O447 Mn432 2.162 . S
O447 C435 1.281 . S
O448 Mn432 2.297 . S
O448 C435 1.236 . S
N449 Mn433 2.282 . S
N449 C450 1.328 . S
N449 C454 1.318 . S
C450 N449 1.328 . S
C450 C451 1.457 . S
C450 H455 0.929 . S
C451 C450 1.457 . S
C451 C452 1.291 . S
C451 H464 0.931 . S
C452 C451 1.291 . S
C452 C453 1.373 . S
C452 H465 0.929 . S
C453 C452 1.373 . S
C453 C454 1.396 . S
C453 C460 1.403 . S
C454 C444 1.476 . S
C454 N449 1.318 . S
C454 C453 1.396 . S
H455 C450 0.929 . S
O456 Mn432 2.385 . S
O456 C434 1.234 . S
O457 Mn432 2.209 . S
O457 Mn433 2.215 . S
O457 C434 1.283 . S
O458 Mn432 2.094 . S
O458 C436 1.240 . S
O459 Mn433 2.117 . S
O459 C436 1.264 . S
C460 C453 1.403 . S
C460 C461 1.399 . S
C460 H466 0.929 . S
C461 C441 1.449 . S
C461 C460 1.399 . S
C461 H467 0.930 . S
H462 C442 0.931 . S
H463 C443 0.930 . S
H464 C451 0.931 . S
H465 C452 0.929 . S
H466 C460 0.929 . S
H467 C461 0.930 . S
Mn468 O473 2.095 . S
Mn468 O483 2.162 . S
Mn468 O484 2.297 . S
Mn468 O492 2.385 . S
Mn468 O493 2.209 . S
Mn468 O494 2.094 . S
Mn469 O474 2.121 . S
Mn469 N476 2.257 . S
Mn469 N485 2.282 . S
Mn469 O493 2.215 . S
Mn469 O495 2.117 . S
C470 O492 1.234 . S
C470 O493 1.283 . S
C471 O483 1.281 . S
C471 O484 1.236 . S
C472 O494 1.240 . S
C472 O495 1.264 . S
O473 Mn468 2.095 . S
O473 C482 1.250 . S
O474 Mn469 2.121 . S
O474 C482 1.258 . S
C475 N476 1.326 . S
C475 C479 1.460 . S
C475 H481 0.929 . S
N476 Mn469 2.257 . S
N476 C475 1.326 . S
N476 C480 1.362 . S
C477 C478 1.258 . S
C477 C480 1.431 . S
C477 C497 1.449 . S
C478 C477 1.258 . S
C478 C479 1.477 . S
C478 H498 0.931 . S
C479 C475 1.460 . S
C479 C478 1.477 . S
C479 H499 0.930 . S
C480 N476 1.362 . S
C480 C477 1.431 . S
C480 C490 1.476 . S
H481 C475 0.929 . S
C482 O473 1.250 . S
C482 O474 1.258 . S
O483 Mn468 2.162 . S
O483 C471 1.281 . S
O484 Mn468 2.297 . S
O484 C471 1.236 . S
N485 Mn469 2.282 . S
N485 C486 1.328 . S
N485 C490 1.318 . S
C486 N485 1.328 . S
C486 C487 1.457 . S
C486 H491 0.929 . S
C487 C486 1.457 . S
C487 C488 1.291 . S
C487 H500 0.931 . S
C488 C487 1.291 . S
C488 C489 1.373 . S
C488 H501 0.929 . S
C489 C488 1.373 . S
C489 C490 1.396 . S
C489 C496 1.403 . S
C490 C480 1.476 . S
C490 N485 1.318 . S
C490 C489 1.396 . S
H491 C486 0.929 . S
O492 Mn468 2.385 . S
O492 C470 1.234 . S
O493 Mn468 2.209 . S
O493 Mn469 2.215 . S
O493 C470 1.283 . S
O494 Mn468 2.094 . S
O494 C472 1.240 . S
O495 Mn469 2.117 . S
O495 C472 1.264 . S
C496 C489 1.403 . S
C496 C497 1.399 . S
C496 H502 0.929 . S
C497 C477 1.449 . S
C497 C496 1.399 . S
C497 H503 0.930 . S
H498 C478 0.931 . S
H499 C479 0.930 . S
H500 C487 0.931 . S
H501 C488 0.929 . S
H502 C496 0.929 . S
H503 C497 0.930 . S
Mn504 O509 2.095 . S
Mn504 O519 2.162 1_655 S
Mn504 O520 2.297 . S
Mn504 O528 2.385 . S
Mn504 O529 2.209 . S
Mn504 O530 2.094 . S
Mn505 O510 2.121 . S
Mn505 N512 2.257 . S
Mn505 N521 2.282 . S
Mn505 O529 2.215 . S
Mn505 O531 2.117 . S
C506 O528 1.234 . S
C506 O529 1.283 . S
C507 O519 1.281 1_655 S
C507 O520 1.236 . S
C508 O530 1.240 . S
C508 O531 1.264 . S
O509 Mn504 2.095 . S
O509 C518 1.250 . S
O510 Mn505 2.121 . S
O510 C518 1.258 . S
C511 N512 1.326 . S
C511 C515 1.460 . S
C511 H517 0.929 . S
N512 Mn505 2.257 . S
N512 C511 1.326 . S
N512 C516 1.362 . S
C513 C514 1.258 . S
C513 C516 1.431 . S
C513 C533 1.449 . S
C514 C513 1.258 . S
C514 C515 1.477 . S
C514 H534 0.931 . S
C515 C511 1.460 . S
C515 C514 1.477 . S
C515 H535 0.930 . S
C516 N512 1.362 . S
C516 C513 1.431 . S
C516 C526 1.476 . S
H517 C511 0.929 . S
C518 O509 1.250 . S
C518 O510 1.258 . S
O519 Mn504 2.162 1_455 S
O519 C507 1.281 1_455 S
O520 Mn504 2.297 . S
O520 C507 1.236 . S
N521 Mn505 2.282 . S
N521 C522 1.328 . S
N521 C526 1.318 . S
C522 N521 1.328 . S
C522 C523 1.457 . S
C522 H527 0.929 . S
C523 C522 1.457 . S
C523 C524 1.291 . S
C523 H536 0.931 . S
C524 C523 1.291 . S
C524 C525 1.373 . S
C524 H537 0.929 . S
C525 C524 1.373 . S
C525 C526 1.396 . S
C525 C532 1.403 . S
C526 C516 1.476 . S
C526 N521 1.318 . S
C526 C525 1.396 . S
H527 C522 0.929 . S
O528 Mn504 2.385 . S
O528 C506 1.234 . S
O529 Mn504 2.209 . S
O529 Mn505 2.215 . S
O529 C506 1.283 . S
O530 Mn504 2.094 . S
O530 C508 1.240 . S
O531 Mn505 2.117 . S
O531 C508 1.264 . S
C532 C525 1.403 . S
C532 C533 1.399 . S
C532 H538 0.929 . S
C533 C513 1.449 . S
C533 C532 1.399 . S
C533 H539 0.930 . S
H534 C514 0.931 . S
H535 C515 0.930 . S
H536 C523 0.931 . S
H537 C524 0.929 . S
H538 C532 0.929 . S
H539 C533 0.930 . S
Mn540 O545 2.095 . S
Mn540 O555 2.162 1_655 S
Mn540 O556 2.297 . S
Mn540 O564 2.385 . S
Mn540 O565 2.209 . S
Mn540 O566 2.094 . S
Mn541 O546 2.121 . S
Mn541 N548 2.257 . S
Mn541 N557 2.282 . S
Mn541 O565 2.215 . S
Mn541 O567 2.117 . S
C542 O564 1.234 . S
C542 O565 1.283 . S
C543 O555 1.281 1_655 S
C543 O556 1.236 . S
C544 O566 1.240 . S
C544 O567 1.264 . S
O545 Mn540 2.095 . S
O545 C554 1.250 . S
O546 Mn541 2.121 . S
O546 C554 1.258 . S
C547 N548 1.326 . S
C547 C551 1.460 . S
C547 H553 0.929 . S
N548 Mn541 2.257 . S
N548 C547 1.326 . S
N548 C552 1.362 . S
C549 C550 1.258 . S
C549 C552 1.431 . S
C549 C569 1.449 . S
C550 C549 1.258 . S
C550 C551 1.477 . S
C550 H570 0.931 . S
C551 C547 1.460 . S
C551 C550 1.477 . S
C551 H571 0.930 . S
C552 N548 1.362 . S
C552 C549 1.431 . S
C552 C562 1.476 . S
H553 C547 0.929 . S
C554 O545 1.250 . S
C554 O546 1.258 . S
O555 Mn540 2.162 1_455 S
O555 C543 1.281 1_455 S
O556 Mn540 2.297 . S
O556 C543 1.236 . S
N557 Mn541 2.282 . S
N557 C558 1.328 . S
N557 C562 1.318 . S
C558 N557 1.328 . S
C558 C559 1.457 . S
C558 H563 0.929 . S
C559 C558 1.457 . S
C559 C560 1.291 . S
C559 H572 0.931 . S
C560 C559 1.291 . S
C560 C561 1.373 . S
C560 H573 0.929 . S
C561 C560 1.373 . S
C561 C562 1.396 . S
C561 C568 1.403 . S
C562 C552 1.476 . S
C562 N557 1.318 . S
C562 C561 1.396 . S
H563 C558 0.929 . S
O564 Mn540 2.385 . S
O564 C542 1.234 . S
O565 Mn540 2.209 . S
O565 Mn541 2.215 . S
O565 C542 1.283 . S
O566 Mn540 2.094 . S
O566 C544 1.240 . S
O567 Mn541 2.117 . S
O567 C544 1.264 . S
C568 C561 1.403 . S
C568 C569 1.399 . S
C568 H574 0.929 . S
C569 C549 1.449 . S
C569 C568 1.399 . S
C569 H575 0.930 . S
H570 C550 0.931 . S
H571 C551 0.930 . S
H572 C559 0.931 . S
H573 C560 0.929 . S
H574 C568 0.929 . S
H575 C569 0.930 . S
Mn576 O581 2.095 . S
Mn576 O591 2.162 . S
Mn576 O592 2.297 . S
Mn576 O600 2.385 . S
Mn576 O601 2.209 . S
Mn576 O602 2.094 . S
Mn577 O582 2.121 . S
Mn577 N584 2.257 . S
Mn577 N593 2.282 . S
Mn577 O601 2.215 . S
Mn577 O603 2.117 . S
C578 O600 1.234 . S
C578 O601 1.283 . S
C579 O591 1.281 . S
C579 O592 1.236 . S
C580 O602 1.240 . S
C580 O603 1.264 . S
O581 Mn576 2.095 . S
O581 C590 1.250 . S
O582 Mn577 2.121 . S
O582 C590 1.258 . S
C583 N584 1.326 . S
C583 C587 1.460 . S
C583 H589 0.929 . S
N584 Mn577 2.257 . S
N584 C583 1.326 . S
N584 C588 1.362 . S
C585 C586 1.258 . S
C585 C588 1.431 . S
C585 C605 1.449 . S
C586 C585 1.258 . S
C586 C587 1.477 . S
C586 H606 0.931 . S
C587 C583 1.460 . S
C587 C586 1.477 . S
C587 H607 0.930 . S
C588 N584 1.362 . S
C588 C585 1.431 . S
C588 C598 1.476 . S
H589 C583 0.929 . S
C590 O581 1.250 . S
C590 O582 1.258 . S
O591 Mn576 2.162 . S
O591 C579 1.281 . S
O592 Mn576 2.297 . S
O592 C579 1.236 . S
N593 Mn577 2.282 . S
N593 C594 1.328 . S
N593 C598 1.318 . S
C594 N593 1.328 . S
C594 C595 1.457 . S
C594 H599 0.929 . S
C595 C594 1.457 . S
C595 C596 1.291 . S
C595 H608 0.931 . S
C596 C595 1.291 . S
C596 C597 1.373 . S
C596 H609 0.929 . S
C597 C596 1.373 . S
C597 C598 1.396 . S
C597 C604 1.403 . S
C598 C588 1.476 . S
C598 N593 1.318 . S
C598 C597 1.396 . S
H599 C594 0.929 . S
O600 Mn576 2.385 . S
O600 C578 1.234 . S
O601 Mn576 2.209 . S
O601 Mn577 2.215 . S
O601 C578 1.283 . S
O602 Mn576 2.094 . S
O602 C580 1.240 . S
O603 Mn577 2.117 . S
O603 C580 1.264 . S
C604 C597 1.403 . S
C604 C605 1.399 . S
C604 H610 0.929 . S
C605 C585 1.449 . S
C605 C604 1.399 . S
C605 H611 0.930 . S
H606 C586 0.931 . S
H607 C587 0.930 . S
H608 C595 0.931 . S
H609 C596 0.929 . S
H610 C604 0.929 . S
H611 C605 0.930 . S
Mn612 O617 2.095 . S
Mn612 O627 2.162 . S
Mn612 O628 2.297 . S
Mn612 O636 2.385 . S
Mn612 O637 2.209 . S
Mn612 O638 2.094 . S
Mn613 O618 2.121 . S
Mn613 N620 2.257 . S
Mn613 N629 2.282 . S
Mn613 O637 2.215 . S
Mn613 O639 2.117 . S
C614 O636 1.234 . S
C614 O637 1.283 . S
C615 O627 1.281 . S
C615 O628 1.236 . S
C616 O638 1.240 . S
C616 O639 1.264 . S
O617 Mn612 2.095 . S
O617 C626 1.250 . S
O618 Mn613 2.121 . S
O618 C626 1.258 . S
C619 N620 1.326 . S
C619 C623 1.460 . S
C619 H625 0.929 . S
N620 Mn613 2.257 . S
N620 C619 1.326 . S
N620 C624 1.362 . S
C621 C622 1.258 . S
C621 C624 1.431 . S
C621 C641 1.449 . S
C622 C621 1.258 . S
C622 C623 1.477 . S
C622 H642 0.931 . S
C623 C619 1.460 . S
C623 C622 1.477 . S
C623 H643 0.930 . S
C624 N620 1.362 . S
C624 C621 1.431 . S
C624 C634 1.476 . S
H625 C619 0.929 . S
C626 O617 1.250 . S
C626 O618 1.258 . S
O627 Mn612 2.162 . S
O627 C615 1.281 . S
O628 Mn612 2.297 . S
O628 C615 1.236 . S
N629 Mn613 2.282 . S
N629 C630 1.328 . S
N629 C634 1.318 . S
C630 N629 1.328 . S
C630 C631 1.457 . S
C630 H635 0.929 . S
C631 C630 1.457 . S
C631 C632 1.291 . S
C631 H644 0.931 . S
C632 C631 1.291 . S
C632 C633 1.373 . S
C632 H645 0.929 . S
C633 C632 1.373 . S
C633 C634 1.396 . S
C633 C640 1.403 . S
C634 C624 1.476 . S
C634 N629 1.318 . S
C634 C633 1.396 . S
H635 C630 0.929 . S
O636 Mn612 2.385 . S
O636 C614 1.234 . S
O637 Mn612 2.209 . S
O637 Mn613 2.215 . S
O637 C614 1.283 . S
O638 Mn612 2.094 . S
O638 C616 1.240 . S
O639 Mn613 2.117 . S
O639 C616 1.264 . S
C640 C633 1.403 . S
C640 C641 1.399 . S
C640 H646 0.929 . S
C641 C621 1.449 . S
C641 C640 1.399 . S
C641 H647 0.930 . S
H642 C622 0.931 . S
H643 C623 0.930 . S
H644 C631 0.931 . S
H645 C632 0.929 . S
H646 C640 0.929 . S
H647 C641 0.930 . S
Mn648 O653 2.095 . S
Mn648 O663 2.162 . S
Mn648 O664 2.297 . S
Mn648 O672 2.385 . S
Mn648 O673 2.209 . S
Mn648 O674 2.094 . S
Mn649 O654 2.121 . S
Mn649 N656 2.257 . S
Mn649 N665 2.282 . S
Mn649 O673 2.215 . S
Mn649 O675 2.117 . S
C650 O672 1.234 . S
C650 O673 1.283 . S
C651 O663 1.281 . S
C651 O664 1.236 . S
C652 O674 1.240 . S
C652 O675 1.264 . S
O653 Mn648 2.095 . S
O653 C662 1.250 . S
O654 Mn649 2.121 . S
O654 C662 1.258 . S
C655 N656 1.326 . S
C655 C659 1.460 . S
C655 H661 0.929 . S
N656 Mn649 2.257 . S
N656 C655 1.326 . S
N656 C660 1.362 . S
C657 C658 1.258 . S
C657 C660 1.431 . S
C657 C677 1.449 . S
C658 C657 1.258 . S
C658 C659 1.477 . S
C658 H678 0.931 . S
C659 C655 1.460 . S
C659 C658 1.477 . S
C659 H679 0.930 . S
C660 N656 1.362 . S
C660 C657 1.431 . S
C660 C670 1.476 . S
H661 C655 0.929 . S
C662 O653 1.250 . S
C662 O654 1.258 . S
O663 Mn648 2.162 . S
O663 C651 1.281 . S
O664 Mn648 2.297 . S
O664 C651 1.236 . S
N665 Mn649 2.282 . S
N665 C666 1.328 . S
N665 C670 1.318 . S
C666 N665 1.328 . S
C666 C667 1.457 . S
C666 H671 0.929 . S
C667 C666 1.457 . S
C667 C668 1.291 . S
C667 H680 0.931 . S
C668 C667 1.291 . S
C668 C669 1.373 . S
C668 H681 0.929 . S
C669 C668 1.373 . S
C669 C670 1.396 . S
C669 C676 1.403 . S
C670 C660 1.476 . S
C670 N665 1.318 . S
C670 C669 1.396 . S
H671 C666 0.929 . S
O672 Mn648 2.385 . S
O672 C650 1.234 . S
O673 Mn648 2.209 . S
O673 Mn649 2.215 . S
O673 C650 1.283 . S
O674 Mn648 2.094 . S
O674 C652 1.240 . S
O675 Mn649 2.117 . S
O675 C652 1.264 . S
C676 C669 1.403 . S
C676 C677 1.399 . S
C676 H682 0.929 . S
C677 C657 1.449 . S
C677 C676 1.399 . S
C677 H683 0.930 . S
H678 C658 0.931 . S
H679 C659 0.930 . S
H680 C667 0.931 . S
H681 C668 0.929 . S
H682 C676 0.929 . S
H683 C677 0.930 . S
Mn684 O689 2.095 . S
Mn684 O699 2.162 1_655 S
Mn684 O700 2.297 . S
Mn684 O708 2.385 . S
Mn684 O709 2.209 . S
Mn684 O710 2.094 . S
Mn685 O690 2.121 . S
Mn685 N692 2.257 . S
Mn685 N701 2.282 . S
Mn685 O709 2.215 . S
Mn685 O711 2.117 . S
C686 O708 1.234 . S
C686 O709 1.283 . S
C687 O699 1.281 1_655 S
C687 O700 1.236 . S
C688 O710 1.240 . S
C688 O711 1.264 . S
O689 Mn684 2.095 . S
O689 C698 1.250 . S
O690 Mn685 2.121 . S
O690 C698 1.258 . S
C691 N692 1.326 . S
C691 C695 1.460 . S
C691 H697 0.929 . S
N692 Mn685 2.257 . S
N692 C691 1.326 . S
N692 C696 1.362 . S
C693 C694 1.258 . S
C693 C696 1.431 . S
C693 C713 1.449 . S
C694 C693 1.258 . S
C694 C695 1.477 . S
C694 H714 0.931 . S
C695 C691 1.460 . S
C695 C694 1.477 . S
C695 H715 0.930 . S
C696 N692 1.362 . S
C696 C693 1.431 . S
C696 C706 1.476 . S
H697 C691 0.929 . S
C698 O689 1.250 . S
C698 O690 1.258 . S
O699 Mn684 2.162 1_455 S
O699 C687 1.281 1_455 S
O700 Mn684 2.297 . S
O700 C687 1.236 . S
N701 Mn685 2.282 . S
N701 C702 1.328 . S
N701 C706 1.318 . S
C702 N701 1.328 . S
C702 C703 1.457 . S
C702 H707 0.929 . S
C703 C702 1.457 . S
C703 C704 1.291 . S
C703 H716 0.931 . S
C704 C703 1.291 . S
C704 C705 1.373 . S
C704 H717 0.929 . S
C705 C704 1.373 . S
C705 C706 1.396 . S
C705 C712 1.403 . S
C706 C696 1.476 . S
C706 N701 1.318 . S
C706 C705 1.396 . S
H707 C702 0.929 . S
O708 Mn684 2.385 . S
O708 C686 1.234 . S
O709 Mn684 2.209 . S
O709 Mn685 2.215 . S
O709 C686 1.283 . S
O710 Mn684 2.094 . S
O710 C688 1.240 . S
O711 Mn685 2.117 . S
O711 C688 1.264 . S
C712 C705 1.403 . S
C712 C713 1.399 . S
C712 H718 0.929 . S
C713 C693 1.449 . S
C713 C712 1.399 . S
C713 H719 0.930 . S
H714 C694 0.931 . S
H715 C695 0.930 . S
H716 C703 0.931 . S
H717 C704 0.929 . S
H718 C712 0.929 . S
H719 C713 0.930 . S
Mn720 O725 2.095 . S
Mn720 O735 2.162 . S
Mn720 O736 2.297 . S
Mn720 O744 2.385 . S
Mn720 O745 2.209 . S
Mn720 O746 2.094 . S
Mn721 O726 2.121 . S
Mn721 N728 2.257 . S
Mn721 N737 2.282 . S
Mn721 O745 2.215 . S
Mn721 O747 2.117 . S
C722 O744 1.234 . S
C722 O745 1.283 . S
C723 O735 1.281 . S
C723 O736 1.236 . S
C724 O746 1.240 . S
C724 O747 1.264 . S
O725 Mn720 2.095 . S
O725 C734 1.250 . S
O726 Mn721 2.121 . S
O726 C734 1.258 . S
C727 N728 1.326 . S
C727 C731 1.460 . S
C727 H733 0.929 . S
N728 Mn721 2.257 . S
N728 C727 1.326 . S
N728 C732 1.362 . S
C729 C730 1.258 . S
C729 C732 1.431 . S
C729 C749 1.449 . S
C730 C729 1.258 . S
C730 C731 1.477 . S
C730 H750 0.931 . S
C731 C727 1.460 . S
C731 C730 1.477 . S
C731 H751 0.930 . S
C732 N728 1.362 . S
C732 C729 1.431 . S
C732 C742 1.476 . S
H733 C727 0.929 . S
C734 O725 1.250 . S
C734 O726 1.258 . S
O735 Mn720 2.162 . S
O735 C723 1.281 . S
O736 Mn720 2.297 . S
O736 C723 1.236 . S
N737 Mn721 2.282 . S
N737 C738 1.328 . S
N737 C742 1.318 . S
C738 N737 1.328 . S
C738 C739 1.457 . S
C738 H743 0.929 . S
C739 C738 1.457 . S
C739 C740 1.291 . S
C739 H752 0.931 . S
C740 C739 1.291 . S
C740 C741 1.373 . S
C740 H753 0.929 . S
C741 C740 1.373 . S
C741 C742 1.396 . S
C741 C748 1.403 . S
C742 C732 1.476 . S
C742 N737 1.318 . S
C742 C741 1.396 . S
H743 C738 0.929 . S
O744 Mn720 2.385 . S
O744 C722 1.234 . S
O745 Mn720 2.209 . S
O745 Mn721 2.215 . S
O745 C722 1.283 . S
O746 Mn720 2.094 . S
O746 C724 1.240 . S
O747 Mn721 2.117 . S
O747 C724 1.264 . S
C748 C741 1.403 . S
C748 C749 1.399 . S
C748 H754 0.929 . S
C749 C729 1.449 . S
C749 C748 1.399 . S
C749 H755 0.930 . S
H750 C730 0.931 . S
H751 C731 0.930 . S
H752 C739 0.931 . S
H753 C740 0.929 . S
H754 C748 0.929 . S
H755 C749 0.930 . S
Mn756 O761 2.095 . S
Mn756 O771 2.162 . S
Mn756 O772 2.297 . S
Mn756 O780 2.385 . S
Mn756 O781 2.209 . S
Mn756 O782 2.094 . S
Mn757 O762 2.121 . S
Mn757 N764 2.257 . S
Mn757 N773 2.282 . S
Mn757 O781 2.215 . S
Mn757 O783 2.117 . S
C758 O780 1.234 . S
C758 O781 1.283 . S
C759 O771 1.281 . S
C759 O772 1.236 . S
C760 O782 1.240 . S
C760 O783 1.264 . S
O761 Mn756 2.095 . S
O761 C770 1.250 . S
O762 Mn757 2.121 . S
O762 C770 1.258 . S
C763 N764 1.326 . S
C763 C767 1.460 . S
C763 H769 0.929 . S
N764 Mn757 2.257 . S
N764 C763 1.326 . S
N764 C768 1.362 . S
C765 C766 1.258 . S
C765 C768 1.431 . S
C765 C785 1.449 . S
C766 C765 1.258 . S
C766 C767 1.477 . S
C766 H786 0.931 . S
C767 C763 1.460 . S
C767 C766 1.477 . S
C767 H787 0.930 . S
C768 N764 1.362 . S
C768 C765 1.431 . S
C768 C778 1.476 . S
H769 C763 0.929 . S
C770 O761 1.250 . S
C770 O762 1.258 . S
O771 Mn756 2.162 . S
O771 C759 1.281 . S
O772 Mn756 2.297 . S
O772 C759 1.236 . S
N773 Mn757 2.282 . S
N773 C774 1.328 . S
N773 C778 1.318 . S
C774 N773 1.328 . S
C774 C775 1.457 . S
C774 H779 0.929 . S
C775 C774 1.457 . S
C775 C776 1.291 . S
C775 H788 0.931 . S
C776 C775 1.291 . S
C776 C777 1.373 . S
C776 H789 0.929 . S
C777 C776 1.373 . S
C777 C778 1.396 . S
C777 C784 1.403 . S
C778 C768 1.476 . S
C778 N773 1.318 . S
C778 C777 1.396 . S
H779 C774 0.929 . S
O780 Mn756 2.385 . S
O780 C758 1.234 . S
O781 Mn756 2.209 . S
O781 Mn757 2.215 . S
O781 C758 1.283 . S
O782 Mn756 2.094 . S
O782 C760 1.240 . S
O783 Mn757 2.117 . S
O783 C760 1.264 . S
C784 C777 1.403 . S
C784 C785 1.399 . S
C784 H790 0.929 . S
C785 C765 1.449 . S
C785 C784 1.399 . S
C785 H791 0.930 . S
H786 C766 0.931 . S
H787 C767 0.930 . S
H788 C775 0.931 . S
H789 C776 0.929 . S
H790 C784 0.929 . S
H791 C785 0.930 . S
Mn792 O797 2.095 . S
Mn792 O807 2.162 . S
Mn792 O808 2.297 . S
Mn792 O816 2.385 . S
Mn792 O817 2.209 . S
Mn792 O818 2.094 . S
Mn793 O798 2.121 . S
Mn793 N800 2.257 . S
Mn793 N809 2.282 . S
Mn793 O817 2.215 . S
Mn793 O819 2.117 . S
C794 O816 1.234 . S
C794 O817 1.283 . S
C795 O807 1.281 . S
C795 O808 1.236 . S
C796 O818 1.240 . S
C796 O819 1.264 . S
O797 Mn792 2.095 . S
O797 C806 1.250 . S
O798 Mn793 2.121 . S
O798 C806 1.258 . S
C799 N800 1.326 . S
C799 C803 1.460 . S
C799 H805 0.929 . S
N800 Mn793 2.257 . S
N800 C799 1.326 . S
N800 C804 1.362 . S
C801 C802 1.258 . S
C801 C804 1.431 . S
C801 C821 1.449 . S
C802 C801 1.258 . S
C802 C803 1.477 . S
C802 H822 0.931 . S
C803 C799 1.460 . S
C803 C802 1.477 . S
C803 H823 0.930 . S
C804 N800 1.362 . S
C804 C801 1.431 . S
C804 C814 1.476 . S
H805 C799 0.929 . S
C806 O797 1.250 . S
C806 O798 1.258 . S
O807 Mn792 2.162 . S
O807 C795 1.281 . S
O808 Mn792 2.297 . S
O808 C795 1.236 . S
N809 Mn793 2.282 . S
N809 C810 1.328 . S
N809 C814 1.318 . S
C810 N809 1.328 . S
C810 C811 1.457 . S
C810 H815 0.929 . S
C811 C810 1.457 . S
C811 C812 1.291 . S
C811 H824 0.931 . S
C812 C811 1.291 . S
C812 C813 1.373 . S
C812 H825 0.929 . S
C813 C812 1.373 . S
C813 C814 1.396 . S
C813 C820 1.403 . S
C814 C804 1.476 . S
C814 N809 1.318 . S
C814 C813 1.396 . S
H815 C810 0.929 . S
O816 Mn792 2.385 . S
O816 C794 1.234 . S
O817 Mn792 2.209 . S
O817 Mn793 2.215 . S
O817 C794 1.283 . S
O818 Mn792 2.094 . S
O818 C796 1.240 . S
O819 Mn793 2.117 . S
O819 C796 1.264 . S
C820 C813 1.403 . S
C820 C821 1.399 . S
C820 H826 0.929 . S
C821 C801 1.449 . S
C821 C820 1.399 . S
C821 H827 0.930 . S
H822 C802 0.931 . S
H823 C803 0.930 . S
H824 C811 0.931 . S
H825 C812 0.929 . S
H826 C820 0.929 . S
H827 C821 0.930 . S
Mn828 O833 2.095 . S
Mn828 O843 2.162 1_655 S
Mn828 O844 2.297 . S
Mn828 O852 2.385 . S
Mn828 O853 2.209 . S
Mn828 O854 2.094 . S
Mn829 O834 2.121 . S
Mn829 N836 2.257 . S
Mn829 N845 2.282 . S
Mn829 O853 2.215 . S
Mn829 O855 2.117 . S
C830 O852 1.234 . S
C830 O853 1.283 . S
C831 O843 1.281 1_655 S
C831 O844 1.236 . S
C832 O854 1.240 . S
C832 O855 1.264 . S
O833 Mn828 2.095 . S
O833 C842 1.250 . S
O834 Mn829 2.121 . S
O834 C842 1.258 . S
C835 N836 1.326 . S
C835 C839 1.460 . S
C835 H841 0.929 . S
N836 Mn829 2.257 . S
N836 C835 1.326 . S
N836 C840 1.362 . S
C837 C838 1.258 . S
C837 C840 1.431 . S
C837 C857 1.449 . S
C838 C837 1.258 . S
C838 C839 1.477 . S
C838 H858 0.931 . S
C839 C835 1.460 . S
C839 C838 1.477 . S
C839 H859 0.930 . S
C840 N836 1.362 . S
C840 C837 1.431 . S
C840 C850 1.476 . S
H841 C835 0.929 . S
C842 O833 1.250 . S
C842 O834 1.258 . S
O843 Mn828 2.162 1_455 S
O843 C831 1.281 1_455 S
O844 Mn828 2.297 . S
O844 C831 1.236 . S
N845 Mn829 2.282 . S
N845 C846 1.328 . S
N845 C850 1.318 . S
C846 N845 1.328 . S
C846 C847 1.457 . S
C846 H851 0.929 . S
C847 C846 1.457 . S
C847 C848 1.291 . S
C847 H860 0.931 . S
C848 C847 1.291 . S
C848 C849 1.373 . S
C848 H861 0.929 . S
C849 C848 1.373 . S
C849 C850 1.396 . S
C849 C856 1.403 . S
C850 C840 1.476 . S
C850 N845 1.318 . S
C850 C849 1.396 . S
H851 C846 0.929 . S
O852 Mn828 2.385 . S
O852 C830 1.234 . S
O853 Mn828 2.209 . S
O853 Mn829 2.215 . S
O853 C830 1.283 . S
O854 Mn828 2.094 . S
O854 C832 1.240 . S
O855 Mn829 2.117 . S
O855 C832 1.264 . S
C856 C849 1.403 . S
C856 C857 1.399 . S
C856 H862 0.929 . S
C857 C837 1.449 . S
C857 C856 1.399 . S
C857 H863 0.930 . S
H858 C838 0.931 . S
H859 C839 0.930 . S
H860 C847 0.931 . S
H861 C848 0.929 . S
H862 C856 0.929 . S
H863 C857 0.930 . S
Mn864 O869 2.095 . S
Mn864 O879 2.162 1_565 S
Mn864 O880 2.297 . S
Mn864 O888 2.385 . S
Mn864 O889 2.209 . S
Mn864 O890 2.094 . S
Mn865 O870 2.121 . S
Mn865 N872 2.257 . S
Mn865 N881 2.282 . S
Mn865 O889 2.215 . S
Mn865 O891 2.117 . S
C866 O888 1.234 . S
C866 O889 1.283 . S
C867 O879 1.281 1_565 S
C867 O880 1.236 . S
C868 O890 1.240 . S
C868 O891 1.264 . S
O869 Mn864 2.095 . S
O869 C878 1.250 . S
O870 Mn865 2.121 . S
O870 C878 1.258 . S
C871 N872 1.326 . S
C871 C875 1.460 . S
C871 H877 0.929 . S
N872 Mn865 2.257 . S
N872 C871 1.326 . S
N872 C876 1.362 . S
C873 C874 1.258 . S
C873 C876 1.431 . S
C873 C893 1.449 . S
C874 C873 1.258 . S
C874 C875 1.477 . S
C874 H894 0.931 . S
C875 C871 1.460 . S
C875 C874 1.477 . S
C875 H895 0.930 . S
C876 N872 1.362 . S
C876 C873 1.431 . S
C876 C886 1.476 . S
H877 C871 0.929 . S
C878 O869 1.250 . S
C878 O870 1.258 . S
O879 Mn864 2.162 1_545 S
O879 C867 1.281 1_545 S
O880 Mn864 2.297 . S
O880 C867 1.236 . S
N881 Mn865 2.282 . S
N881 C882 1.328 . S
N881 C886 1.318 . S
C882 N881 1.328 . S
C882 C883 1.457 . S
C882 H887 0.929 . S
C883 C882 1.457 . S
C883 C884 1.291 . S
C883 H896 0.931 . S
C884 C883 1.291 . S
C884 C885 1.373 . S
C884 H897 0.929 . S
C885 C884 1.373 . S
C885 C886 1.396 . S
C885 C892 1.403 . S
C886 C876 1.476 . S
C886 N881 1.318 . S
C886 C885 1.396 . S
H887 C882 0.929 . S
O888 Mn864 2.385 . S
O888 C866 1.234 . S
O889 Mn864 2.209 . S
O889 Mn865 2.215 . S
O889 C866 1.283 . S
O890 Mn864 2.094 . S
O890 C868 1.240 . S
O891 Mn865 2.117 . S
O891 C868 1.264 . S
C892 C885 1.403 . S
C892 C893 1.399 . S
C892 H898 0.929 . S
C893 C873 1.449 . S
C893 C892 1.399 . S
C893 H899 0.930 . S
H894 C874 0.931 . S
H895 C875 0.930 . S
H896 C883 0.931 . S
H897 C884 0.929 . S
H898 C892 0.929 . S
H899 C893 0.930 . S
Mn900 O905 2.095 . S
Mn900 O915 2.162 . S
Mn900 O916 2.297 . S
Mn900 O924 2.385 . S
Mn900 O925 2.209 . S
Mn900 O926 2.094 . S
Mn901 O906 2.121 . S
Mn901 N908 2.257 . S
Mn901 N917 2.282 . S
Mn901 O925 2.215 . S
Mn901 O927 2.117 . S
C902 O924 1.234 . S
C902 O925 1.283 . S
C903 O915 1.281 . S
C903 O916 1.236 . S
C904 O926 1.240 . S
C904 O927 1.264 . S
O905 Mn900 2.095 . S
O905 C914 1.250 . S
O906 Mn901 2.121 . S
O906 C914 1.258 . S
C907 N908 1.326 . S
C907 C911 1.460 . S
C907 H913 0.929 . S
N908 Mn901 2.257 . S
N908 C907 1.326 . S
N908 C912 1.362 . S
C909 C910 1.258 . S
C909 C912 1.431 . S
C909 C929 1.449 . S
C910 C909 1.258 . S
C910 C911 1.477 . S
C910 H930 0.931 . S
C911 C907 1.460 . S
C911 C910 1.477 . S
C911 H931 0.930 . S
C912 N908 1.362 . S
C912 C909 1.431 . S
C912 C922 1.476 . S
H913 C907 0.929 . S
C914 O905 1.250 . S
C914 O906 1.258 . S
O915 Mn900 2.162 . S
O915 C903 1.281 . S
O916 Mn900 2.297 . S
O916 C903 1.236 . S
N917 Mn901 2.282 . S
N917 C918 1.328 . S
N917 C922 1.318 . S
C918 N917 1.328 . S
C918 C919 1.457 . S
C918 H923 0.929 . S
C919 C918 1.457 . S
C919 C920 1.291 . S
C919 H932 0.931 . S
C920 C919 1.291 . S
C920 C921 1.373 . S
C920 H933 0.929 . S
C921 C920 1.373 . S
C921 C922 1.396 . S
C921 C928 1.403 . S
C922 C912 1.476 . S
C922 N917 1.318 . S
C922 C921 1.396 . S
H923 C918 0.929 . S
O924 Mn900 2.385 . S
O924 C902 1.234 . S
O925 Mn900 2.209 . S
O925 Mn901 2.215 . S
O925 C902 1.283 . S
O926 Mn900 2.094 . S
O926 C904 1.240 . S
O927 Mn901 2.117 . S
O927 C904 1.264 . S
C928 C921 1.403 . S
C928 C929 1.399 . S
C928 H934 0.929 . S
C929 C909 1.449 . S
C929 C928 1.399 . S
C929 H935 0.930 . S
H930 C910 0.931 . S
H931 C911 0.930 . S
H932 C919 0.931 . S
H933 C920 0.929 . S
H934 C928 0.929 . S
H935 C929 0.930 . S
Mn936 O941 2.095 . S
Mn936 O951 2.162 . S
Mn936 O952 2.297 . S
Mn936 O960 2.385 . S
Mn936 O961 2.209 . S
Mn936 O962 2.094 . S
Mn937 O942 2.121 . S
Mn937 N944 2.257 . S
Mn937 N953 2.282 . S
Mn937 O961 2.215 . S
Mn937 O963 2.117 . S
C938 O960 1.234 . S
C938 O961 1.283 . S
C939 O951 1.281 . S
C939 O952 1.236 . S
C940 O962 1.240 . S
C940 O963 1.264 . S
O941 Mn936 2.095 . S
O941 C950 1.250 . S
O942 Mn937 2.121 . S
O942 C950 1.258 . S
C943 N944 1.326 . S
C943 C947 1.460 . S
C943 H949 0.929 . S
N944 Mn937 2.257 . S
N944 C943 1.326 . S
N944 C948 1.362 . S
C945 C946 1.258 . S
C945 C948 1.431 . S
C945 C965 1.449 . S
C946 C945 1.258 . S
C946 C947 1.477 . S
C946 H966 0.931 . S
C947 C943 1.460 . S
C947 C946 1.477 . S
C947 H967 0.930 . S
C948 N944 1.362 . S
C948 C945 1.431 . S
C948 C958 1.476 . S
H949 C943 0.929 . S
C950 O941 1.250 . S
C950 O942 1.258 . S
O951 Mn936 2.162 . S
O951 C939 1.281 . S
O952 Mn936 2.297 . S
O952 C939 1.236 . S
N953 Mn937 2.282 . S
N953 C954 1.328 . S
N953 C958 1.318 . S
C954 N953 1.328 . S
C954 C955 1.457 . S
C954 H959 0.929 . S
C955 C954 1.457 . S
C955 C956 1.291 . S
C955 H968 0.931 . S
C956 C955 1.291 . S
C956 C957 1.373 . S
C956 H969 0.929 . S
C957 C956 1.373 . S
C957 C958 1.396 . S
C957 C964 1.403 . S
C958 C948 1.476 . S
C958 N953 1.318 . S
C958 C957 1.396 . S
H959 C954 0.929 . S
O960 Mn936 2.385 . S
O960 C938 1.234 . S
O961 Mn936 2.209 . S
O961 Mn937 2.215 . S
O961 C938 1.283 . S
O962 Mn936 2.094 . S
O962 C940 1.240 . S
O963 Mn937 2.117 . S
O963 C940 1.264 . S
C964 C957 1.403 . S
C964 C965 1.399 . S
C964 H970 0.929 . S
C965 C945 1.449 . S
C965 C964 1.399 . S
C965 H971 0.930 . S
H966 C946 0.931 . S
H967 C947 0.930 . S
H968 C955 0.931 . S
H969 C956 0.929 . S
H970 C964 0.929 . S
H971 C965 0.930 . S
Mn972 O977 2.095 . S
Mn972 O987 2.162 . S
Mn972 O988 2.297 . S
Mn972 O996 2.385 . S
Mn972 O997 2.209 . S
Mn972 O998 2.094 . S
Mn973 O978 2.121 . S
Mn973 N980 2.257 . S
Mn973 N989 2.282 . S
Mn973 O997 2.215 . S
Mn973 O999 2.117 . S
C974 O996 1.234 . S
C974 O997 1.283 . S
C975 O987 1.281 . S
C975 O988 1.236 . S
C976 O998 1.240 . S
C976 O999 1.264 . S
O977 Mn972 2.095 . S
O977 C986 1.250 . S
O978 Mn973 2.121 . S
O978 C986 1.258 . S
C979 N980 1.326 . S
C979 C983 1.460 . S
C979 H985 0.929 . S
N980 Mn973 2.257 . S
N980 C979 1.326 . S
N980 C984 1.362 . S
C981 C982 1.258 . S
C981 C984 1.431 . S
C981 C1001 1.449 . S
C982 C981 1.258 . S
C982 C983 1.477 . S
C982 H1002 0.931 . S
C983 C979 1.460 . S
C983 C982 1.477 . S
C983 H1003 0.930 . S
C984 N980 1.362 . S
C984 C981 1.431 . S
C984 C994 1.476 . S
H985 C979 0.929 . S
C986 O977 1.250 . S
C986 O978 1.258 . S
O987 Mn972 2.162 . S
O987 C975 1.281 . S
O988 Mn972 2.297 . S
O988 C975 1.236 . S
N989 Mn973 2.282 . S
N989 C990 1.328 . S
N989 C994 1.318 . S
C990 N989 1.328 . S
C990 C991 1.457 . S
C990 H995 0.929 . S
C991 C990 1.457 . S
C991 C992 1.291 . S
C991 H1004 0.931 . S
C992 C991 1.291 . S
C992 C993 1.373 . S
C992 H1005 0.929 . S
C993 C992 1.373 . S
C993 C994 1.396 . S
C993 C1000 1.403 . S
C994 C984 1.476 . S
C994 N989 1.318 . S
C994 C993 1.396 . S
H995 C990 0.929 . S
O996 Mn972 2.385 . S
O996 C974 1.234 . S
O997 Mn972 2.209 . S
O997 Mn973 2.215 . S
O997 C974 1.283 . S
O998 Mn972 2.094 . S
O998 C976 1.240 . S
O999 Mn973 2.117 . S
O999 C976 1.264 . S
C1000 C993 1.403 . S
C1000 C1001 1.399 . S
C1000 H1006 0.929 . S
C1001 C981 1.449 . S
C1001 C1000 1.399 . S
C1001 H1007 0.930 . S
H1002 C982 0.931 . S
H1003 C983 0.930 . S
H1004 C991 0.931 . S
H1005 C992 0.929 . S
H1006 C1000 0.929 . S
H1007 C1001 0.930 . S
Mn1008 O1013 2.095 . S
Mn1008 O1023 2.162 1_565 S
Mn1008 O1024 2.297 . S
Mn1008 O1032 2.385 . S
Mn1008 O1033 2.209 . S
Mn1008 O1034 2.094 . S
Mn1009 O1014 2.121 . S
Mn1009 N1016 2.257 . S
Mn1009 N1025 2.282 . S
Mn1009 O1033 2.215 . S
Mn1009 O1035 2.117 . S
C1010 O1032 1.234 . S
C1010 O1033 1.283 . S
C1011 O1023 1.281 1_565 S
C1011 O1024 1.236 . S
C1012 O1034 1.240 . S
C1012 O1035 1.264 . S
O1013 Mn1008 2.095 . S
O1013 C1022 1.250 . S
O1014 Mn1009 2.121 . S
O1014 C1022 1.258 . S
C1015 N1016 1.326 . S
C1015 C1019 1.460 . S
C1015 H1021 0.929 . S
N1016 Mn1009 2.257 . S
N1016 C1015 1.326 . S
N1016 C1020 1.362 . S
C1017 C1018 1.258 . S
C1017 C1020 1.431 . S
C1017 C1037 1.449 . S
C1018 C1017 1.258 . S
C1018 C1019 1.477 . S
C1018 H1038 0.931 . S
C1019 C1015 1.460 . S
C1019 C1018 1.477 . S
C1019 H1039 0.930 . S
C1020 N1016 1.362 . S
C1020 C1017 1.431 . S
C1020 C1030 1.476 . S
H1021 C1015 0.929 . S
C1022 O1013 1.250 . S
C1022 O1014 1.258 . S
O1023 Mn1008 2.162 1_545 S
O1023 C1011 1.281 1_545 S
O1024 Mn1008 2.297 . S
O1024 C1011 1.236 . S
N1025 Mn1009 2.282 . S
N1025 C1026 1.328 . S
N1025 C1030 1.318 . S
C1026 N1025 1.328 . S
C1026 C1027 1.457 . S
C1026 H1031 0.929 . S
C1027 C1026 1.457 . S
C1027 C1028 1.291 . S
C1027 H1040 0.931 . S
C1028 C1027 1.291 . S
C1028 C1029 1.373 . S
C1028 H1041 0.929 . S
C1029 C1028 1.373 . S
C1029 C1030 1.396 . S
C1029 C1036 1.403 . S
C1030 C1020 1.476 . S
C1030 N1025 1.318 . S
C1030 C1029 1.396 . S
H1031 C1026 0.929 . S
O1032 Mn1008 2.385 . S
O1032 C1010 1.234 . S
O1033 Mn1008 2.209 . S
O1033 Mn1009 2.215 . S
O1033 C1010 1.283 . S
O1034 Mn1008 2.094 . S
O1034 C1012 1.240 . S
O1035 Mn1009 2.117 . S
O1035 C1012 1.264 . S
C1036 C1029 1.403 . S
C1036 C1037 1.399 . S
C1036 H1042 0.929 . S
C1037 C1017 1.449 . S
C1037 C1036 1.399 . S
C1037 H1043 0.930 . S
H1038 C1018 0.931 . S
H1039 C1019 0.930 . S
H1040 C1027 0.931 . S
H1041 C1028 0.929 . S
H1042 C1036 0.929 . S
H1043 C1037 0.930 . S
Mn1044 O1049 2.095 . S
Mn1044 O1059 2.162 . S
Mn1044 O1060 2.297 . S
Mn1044 O1068 2.385 . S
Mn1044 O1069 2.209 . S
Mn1044 O1070 2.094 . S
Mn1045 O1050 2.121 . S
Mn1045 N1052 2.257 . S
Mn1045 N1061 2.282 . S
Mn1045 O1069 2.215 . S
Mn1045 O1071 2.117 . S
C1046 O1068 1.234 . S
C1046 O1069 1.283 . S
C1047 O1059 1.281 . S
C1047 O1060 1.236 . S
C1048 O1070 1.240 . S
C1048 O1071 1.264 . S
O1049 Mn1044 2.095 . S
O1049 C1058 1.250 . S
O1050 Mn1045 2.121 . S
O1050 C1058 1.258 . S
C1051 N1052 1.326 . S
C1051 C1055 1.460 . S
C1051 H1057 0.929 . S
N1052 Mn1045 2.257 . S
N1052 C1051 1.326 . S
N1052 C1056 1.362 . S
C1053 C1054 1.258 . S
C1053 C1056 1.431 . S
C1053 C1073 1.449 . S
C1054 C1053 1.258 . S
C1054 C1055 1.477 . S
C1054 H1074 0.931 . S
C1055 C1051 1.460 . S
C1055 C1054 1.477 . S
C1055 H1075 0.930 . S
C1056 N1052 1.362 . S
C1056 C1053 1.431 . S
C1056 C1066 1.476 . S
H1057 C1051 0.929 . S
C1058 O1049 1.250 . S
C1058 O1050 1.258 . S
O1059 Mn1044 2.162 . S
O1059 C1047 1.281 . S
O1060 Mn1044 2.297 . S
O1060 C1047 1.236 . S
N1061 Mn1045 2.282 . S
N1061 C1062 1.328 . S
N1061 C1066 1.318 . S
C1062 N1061 1.328 . S
C1062 C1063 1.457 . S
C1062 H1067 0.929 . S
C1063 C1062 1.457 . S
C1063 C1064 1.291 . S
C1063 H1076 0.931 . S
C1064 C1063 1.291 . S
C1064 C1065 1.373 . S
C1064 H1077 0.929 . S
C1065 C1064 1.373 . S
C1065 C1066 1.396 . S
C1065 C1072 1.403 . S
C1066 C1056 1.476 . S
C1066 N1061 1.318 . S
C1066 C1065 1.396 . S
H1067 C1062 0.929 . S
O1068 Mn1044 2.385 . S
O1068 C1046 1.234 . S
O1069 Mn1044 2.209 . S
O1069 Mn1045 2.215 . S
O1069 C1046 1.283 . S
O1070 Mn1044 2.094 . S
O1070 C1048 1.240 . S
O1071 Mn1045 2.117 . S
O1071 C1048 1.264 . S
C1072 C1065 1.403 . S
C1072 C1073 1.399 . S
C1072 H1078 0.929 . S
C1073 C1053 1.449 . S
C1073 C1072 1.399 . S
C1073 H1079 0.930 . S
H1074 C1054 0.931 . S
H1075 C1055 0.930 . S
H1076 C1063 0.931 . S
H1077 C1064 0.929 . S
H1078 C1072 0.929 . S
H1079 C1073 0.930 . S
Mn1080 O1085 2.095 . S
Mn1080 O1095 2.162 . S
Mn1080 O1096 2.297 . S
Mn1080 O1104 2.385 . S
Mn1080 O1105 2.209 . S
Mn1080 O1106 2.094 . S
Mn1081 O1086 2.121 . S
Mn1081 N1088 2.257 . S
Mn1081 N1097 2.282 . S
Mn1081 O1105 2.215 . S
Mn1081 O1107 2.117 . S
C1082 O1104 1.234 . S
C1082 O1105 1.283 . S
C1083 O1095 1.281 . S
C1083 O1096 1.236 . S
C1084 O1106 1.240 . S
C1084 O1107 1.264 . S
O1085 Mn1080 2.095 . S
O1085 C1094 1.250 . S
O1086 Mn1081 2.121 . S
O1086 C1094 1.258 . S
C1087 N1088 1.326 . S
C1087 C1091 1.460 . S
C1087 H1093 0.929 . S
N1088 Mn1081 2.257 . S
N1088 C1087 1.326 . S
N1088 C1092 1.362 . S
C1089 C1090 1.258 . S
C1089 C1092 1.431 . S
C1089 C1109 1.449 . S
C1090 C1089 1.258 . S
C1090 C1091 1.477 . S
C1090 H1110 0.931 . S
C1091 C1087 1.460 . S
C1091 C1090 1.477 . S
C1091 H1111 0.930 . S
C1092 N1088 1.362 . S
C1092 C1089 1.431 . S
C1092 C1102 1.476 . S
H1093 C1087 0.929 . S
C1094 O1085 1.250 . S
C1094 O1086 1.258 . S
O1095 Mn1080 2.162 . S
O1095 C1083 1.281 . S
O1096 Mn1080 2.297 . S
O1096 C1083 1.236 . S
N1097 Mn1081 2.282 . S
N1097 C1098 1.328 . S
N1097 C1102 1.318 . S
C1098 N1097 1.328 . S
C1098 C1099 1.457 . S
C1098 H1103 0.929 . S
C1099 C1098 1.457 . S
C1099 C1100 1.291 . S
C1099 H1112 0.931 . S
C1100 C1099 1.291 . S
C1100 C1101 1.373 . S
C1100 H1113 0.929 . S
C1101 C1100 1.373 . S
C1101 C1102 1.396 . S
C1101 C1108 1.403 . S
C1102 C1092 1.476 . S
C1102 N1097 1.318 . S
C1102 C1101 1.396 . S
H1103 C1098 0.929 . S
O1104 Mn1080 2.385 . S
O1104 C1082 1.234 . S
O1105 Mn1080 2.209 . S
O1105 Mn1081 2.215 . S
O1105 C1082 1.283 . S
O1106 Mn1080 2.094 . S
O1106 C1084 1.240 . S
O1107 Mn1081 2.117 . S
O1107 C1084 1.264 . S
C1108 C1101 1.403 . S
C1108 C1109 1.399 . S
C1108 H1114 0.929 . S
C1109 C1089 1.449 . S
C1109 C1108 1.399 . S
C1109 H1115 0.930 . S
H1110 C1090 0.931 . S
H1111 C1091 0.930 . S
H1112 C1099 0.931 . S
H1113 C1100 0.929 . S
H1114 C1108 0.929 . S
H1115 C1109 0.930 . S
Mn1116 O1121 2.095 . S
Mn1116 O1131 2.162 1_565 S
Mn1116 O1132 2.297 . S
Mn1116 O1140 2.385 . S
Mn1116 O1141 2.209 . S
Mn1116 O1142 2.094 . S
Mn1117 O1122 2.121 . S
Mn1117 N1124 2.257 . S
Mn1117 N1133 2.282 . S
Mn1117 O1141 2.215 . S
Mn1117 O1143 2.117 . S
C1118 O1140 1.234 . S
C1118 O1141 1.283 . S
C1119 O1131 1.281 1_565 S
C1119 O1132 1.236 . S
C1120 O1142 1.240 . S
C1120 O1143 1.264 . S
O1121 Mn1116 2.095 . S
O1121 C1130 1.250 . S
O1122 Mn1117 2.121 . S
O1122 C1130 1.258 . S
C1123 N1124 1.326 . S
C1123 C1127 1.460 . S
C1123 H1129 0.929 . S
N1124 Mn1117 2.257 . S
N1124 C1123 1.326 . S
N1124 C1128 1.362 . S
C1125 C1126 1.258 . S
C1125 C1128 1.431 . S
C1125 C1145 1.449 . S
C1126 C1125 1.258 . S
C1126 C1127 1.477 . S
C1126 H1146 0.931 . S
C1127 C1123 1.460 . S
C1127 C1126 1.477 . S
C1127 H1147 0.930 . S
C1128 N1124 1.362 . S
C1128 C1125 1.431 . S
C1128 C1138 1.476 . S
H1129 C1123 0.929 . S
C1130 O1121 1.250 . S
C1130 O1122 1.258 . S
O1131 Mn1116 2.162 1_545 S
O1131 C1119 1.281 1_545 S
O1132 Mn1116 2.297 . S
O1132 C1119 1.236 . S
N1133 Mn1117 2.282 . S
N1133 C1134 1.328 . S
N1133 C1138 1.318 . S
C1134 N1133 1.328 . S
C1134 C1135 1.457 . S
C1134 H1139 0.929 . S
C1135 C1134 1.457 . S
C1135 C1136 1.291 . S
C1135 H1148 0.931 . S
C1136 C1135 1.291 . S
C1136 C1137 1.373 . S
C1136 H1149 0.929 . S
C1137 C1136 1.373 . S
C1137 C1138 1.396 . S
C1137 C1144 1.403 . S
C1138 C1128 1.476 . S
C1138 N1133 1.318 . S
C1138 C1137 1.396 . S
H1139 C1134 0.929 . S
O1140 Mn1116 2.385 . S
O1140 C1118 1.234 . S
O1141 Mn1116 2.209 . S
O1141 Mn1117 2.215 . S
O1141 C1118 1.283 . S
O1142 Mn1116 2.094 . S
O1142 C1120 1.240 . S
O1143 Mn1117 2.117 . S
O1143 C1120 1.264 . S
C1144 C1137 1.403 . S
C1144 C1145 1.399 . S
C1144 H1150 0.929 . S
C1145 C1125 1.449 . S
C1145 C1144 1.399 . S
C1145 H1151 0.930 . S
H1146 C1126 0.931 . S
H1147 C1127 0.930 . S
H1148 C1135 0.931 . S
H1149 C1136 0.929 . S
H1150 C1144 0.929 . S
H1151 C1145 0.930 . S
Mn1152 O1157 2.095 . S
Mn1152 O1167 2.162 . S
Mn1152 O1168 2.297 . S
Mn1152 O1176 2.385 . S
Mn1152 O1177 2.209 . S
Mn1152 O1178 2.094 . S
Mn1153 O1158 2.121 . S
Mn1153 N1160 2.257 . S
Mn1153 N1169 2.282 . S
Mn1153 O1177 2.215 . S
Mn1153 O1179 2.117 . S
C1154 O1176 1.234 . S
C1154 O1177 1.283 . S
C1155 O1167 1.281 . S
C1155 O1168 1.236 . S
C1156 O1178 1.240 . S
C1156 O1179 1.264 . S
O1157 Mn1152 2.095 . S
O1157 C1166 1.250 . S
O1158 Mn1153 2.121 . S
O1158 C1166 1.258 . S
C1159 N1160 1.326 . S
C1159 C1163 1.460 . S
C1159 H1165 0.929 . S
N1160 Mn1153 2.257 . S
N1160 C1159 1.326 . S
N1160 C1164 1.362 . S
C1161 C1162 1.258 . S
C1161 C1164 1.431 . S
C1161 C1181 1.449 . S
C1162 C1161 1.258 . S
C1162 C1163 1.477 . S
C1162 H1182 0.931 . S
C1163 C1159 1.460 . S
C1163 C1162 1.477 . S
C1163 H1183 0.930 . S
C1164 N1160 1.362 . S
C1164 C1161 1.431 . S
C1164 C1174 1.476 . S
H1165 C1159 0.929 . S
C1166 O1157 1.250 . S
C1166 O1158 1.258 . S
O1167 Mn1152 2.162 . S
O1167 C1155 1.281 . S
O1168 Mn1152 2.297 . S
O1168 C1155 1.236 . S
N1169 Mn1153 2.282 . S
N1169 C1170 1.328 . S
N1169 C1174 1.318 . S
C1170 N1169 1.328 . S
C1170 C1171 1.457 . S
C1170 H1175 0.929 . S
C1171 C1170 1.457 . S
C1171 C1172 1.291 . S
C1171 H1184 0.931 . S
C1172 C1171 1.291 . S
C1172 C1173 1.373 . S
C1172 H1185 0.929 . S
C1173 C1172 1.373 . S
C1173 C1174 1.396 . S
C1173 C1180 1.403 . S
C1174 C1164 1.476 . S
C1174 N1169 1.318 . S
C1174 C1173 1.396 . S
H1175 C1170 0.929 . S
O1176 Mn1152 2.385 . S
O1176 C1154 1.234 . S
O1177 Mn1152 2.209 . S
O1177 Mn1153 2.215 . S
O1177 C1154 1.283 . S
O1178 Mn1152 2.094 . S
O1178 C1156 1.240 . S
O1179 Mn1153 2.117 . S
O1179 C1156 1.264 . S
C1180 C1173 1.403 . S
C1180 C1181 1.399 . S
C1180 H1186 0.929 . S
C1181 C1161 1.449 . S
C1181 C1180 1.399 . S
C1181 H1187 0.930 . S
H1182 C1162 0.931 . S
H1183 C1163 0.930 . S
H1184 C1171 0.931 . S
H1185 C1172 0.929 . S
H1186 C1180 0.929 . S
H1187 C1181 0.930 . S
Mn1188 O1193 2.095 . S
Mn1188 O1203 2.162 . S
Mn1188 O1204 2.297 . S
Mn1188 O1212 2.385 . S
Mn1188 O1213 2.209 . S
Mn1188 O1214 2.094 . S
Mn1189 O1194 2.121 . S
Mn1189 N1196 2.257 . S
Mn1189 N1205 2.282 . S
Mn1189 O1213 2.215 . S
Mn1189 O1215 2.117 . S
C1190 O1212 1.234 . S
C1190 O1213 1.283 . S
C1191 O1203 1.281 . S
C1191 O1204 1.236 . S
C1192 O1214 1.240 . S
C1192 O1215 1.264 . S
O1193 Mn1188 2.095 . S
O1193 C1202 1.250 . S
O1194 Mn1189 2.121 . S
O1194 C1202 1.258 . S
C1195 N1196 1.326 . S
C1195 C1199 1.460 . S
C1195 H1201 0.929 . S
N1196 Mn1189 2.257 . S
N1196 C1195 1.326 . S
N1196 C1200 1.362 . S
C1197 C1198 1.258 . S
C1197 C1200 1.431 . S
C1197 C1217 1.449 . S
C1198 C1197 1.258 . S
C1198 C1199 1.477 . S
C1198 H1218 0.931 . S
C1199 C1195 1.460 . S
C1199 C1198 1.477 . S
C1199 H1219 0.930 . S
C1200 N1196 1.362 . S
C1200 C1197 1.431 . S
C1200 C1210 1.476 . S
H1201 C1195 0.929 . S
C1202 O1193 1.250 . S
C1202 O1194 1.258 . S
O1203 Mn1188 2.162 . S
O1203 C1191 1.281 . S
O1204 Mn1188 2.297 . S
O1204 C1191 1.236 . S
N1205 Mn1189 2.282 . S
N1205 C1206 1.328 . S
N1205 C1210 1.318 . S
C1206 N1205 1.328 . S
C1206 C1207 1.457 . S
C1206 H1211 0.929 . S
C1207 C1206 1.457 . S
C1207 C1208 1.291 . S
C1207 H1220 0.931 . S
C1208 C1207 1.291 . S
C1208 C1209 1.373 . S
C1208 H1221 0.929 . S
C1209 C1208 1.373 . S
C1209 C1210 1.396 . S
C1209 C1216 1.403 . S
C1210 C1200 1.476 . S
C1210 N1205 1.318 . S
C1210 C1209 1.396 . S
H1211 C1206 0.929 . S
O1212 Mn1188 2.385 . S
O1212 C1190 1.234 . S
O1213 Mn1188 2.209 . S
O1213 Mn1189 2.215 . S
O1213 C1190 1.283 . S
O1214 Mn1188 2.094 . S
O1214 C1192 1.240 . S
O1215 Mn1189 2.117 . S
O1215 C1192 1.264 . S
C1216 C1209 1.403 . S
C1216 C1217 1.399 . S
C1216 H1222 0.929 . S
C1217 C1197 1.449 . S
C1217 C1216 1.399 . S
C1217 H1223 0.930 . S
H1218 C1198 0.931 . S
H1219 C1199 0.930 . S
H1220 C1207 0.931 . S
H1221 C1208 0.929 . S
H1222 C1216 0.929 . S
H1223 C1217 0.930 . S
Mn1224 O1229 2.095 . S
Mn1224 O1239 2.162 . S
Mn1224 O1240 2.297 . S
Mn1224 O1248 2.385 . S
Mn1224 O1249 2.209 . S
Mn1224 O1250 2.094 . S
Mn1225 O1230 2.121 . S
Mn1225 N1232 2.257 . S
Mn1225 N1241 2.282 . S
Mn1225 O1249 2.215 . S
Mn1225 O1251 2.117 . S
C1226 O1248 1.234 . S
C1226 O1249 1.283 . S
C1227 O1239 1.281 . S
C1227 O1240 1.236 . S
C1228 O1250 1.240 . S
C1228 O1251 1.264 . S
O1229 Mn1224 2.095 . S
O1229 C1238 1.250 . S
O1230 Mn1225 2.121 . S
O1230 C1238 1.258 . S
C1231 N1232 1.326 . S
C1231 C1235 1.460 . S
C1231 H1237 0.929 . S
N1232 Mn1225 2.257 . S
N1232 C1231 1.326 . S
N1232 C1236 1.362 . S
C1233 C1234 1.258 . S
C1233 C1236 1.431 . S
C1233 C1253 1.449 . S
C1234 C1233 1.258 . S
C1234 C1235 1.477 . S
C1234 H1254 0.931 . S
C1235 C1231 1.460 . S
C1235 C1234 1.477 . S
C1235 H1255 0.930 . S
C1236 N1232 1.362 . S
C1236 C1233 1.431 . S
C1236 C1246 1.476 . S
H1237 C1231 0.929 . S
C1238 O1229 1.250 . S
C1238 O1230 1.258 . S
O1239 Mn1224 2.162 . S
O1239 C1227 1.281 . S
O1240 Mn1224 2.297 . S
O1240 C1227 1.236 . S
N1241 Mn1225 2.282 . S
N1241 C1242 1.328 . S
N1241 C1246 1.318 . S
C1242 N1241 1.328 . S
C1242 C1243 1.457 . S
C1242 H1247 0.929 . S
C1243 C1242 1.457 . S
C1243 C1244 1.291 . S
C1243 H1256 0.931 . S
C1244 C1243 1.291 . S
C1244 C1245 1.373 . S
C1244 H1257 0.929 . S
C1245 C1244 1.373 . S
C1245 C1246 1.396 . S
C1245 C1252 1.403 . S
C1246 C1236 1.476 . S
C1246 N1241 1.318 . S
C1246 C1245 1.396 . S
H1247 C1242 0.929 . S
O1248 Mn1224 2.385 . S
O1248 C1226 1.234 . S
O1249 Mn1224 2.209 . S
O1249 Mn1225 2.215 . S
O1249 C1226 1.283 . S
O1250 Mn1224 2.094 . S
O1250 C1228 1.240 . S
O1251 Mn1225 2.117 . S
O1251 C1228 1.264 . S
C1252 C1245 1.403 . S
C1252 C1253 1.399 . S
C1252 H1258 0.929 . S
C1253 C1233 1.449 . S
C1253 C1252 1.399 . S
C1253 H1259 0.930 . S
H1254 C1234 0.931 . S
H1255 C1235 0.930 . S
H1256 C1243 0.931 . S
H1257 C1244 0.929 . S
H1258 C1252 0.929 . S
H1259 C1253 0.930 . S
Mn1260 O1265 2.095 . S
Mn1260 O1275 2.162 1_565 S
Mn1260 O1276 2.297 . S
Mn1260 O1284 2.385 . S
Mn1260 O1285 2.209 . S
Mn1260 O1286 2.094 . S
Mn1261 O1266 2.121 . S
Mn1261 N1268 2.257 . S
Mn1261 N1277 2.282 . S
Mn1261 O1285 2.215 . S
Mn1261 O1287 2.117 . S
C1262 O1284 1.234 . S
C1262 O1285 1.283 . S
C1263 O1275 1.281 1_565 S
C1263 O1276 1.236 . S
C1264 O1286 1.240 . S
C1264 O1287 1.264 . S
O1265 Mn1260 2.095 . S
O1265 C1274 1.250 . S
O1266 Mn1261 2.121 . S
O1266 C1274 1.258 . S
C1267 N1268 1.326 . S
C1267 C1271 1.460 . S
C1267 H1273 0.929 . S
N1268 Mn1261 2.257 . S
N1268 C1267 1.326 . S
N1268 C1272 1.362 . S
C1269 C1270 1.258 . S
C1269 C1272 1.431 . S
C1269 C1289 1.449 . S
C1270 C1269 1.258 . S
C1270 C1271 1.477 . S
C1270 H1290 0.931 . S
C1271 C1267 1.460 . S
C1271 C1270 1.477 . S
C1271 H1291 0.930 . S
C1272 N1268 1.362 . S
C1272 C1269 1.431 . S
C1272 C1282 1.476 . S
H1273 C1267 0.929 . S
C1274 O1265 1.250 . S
C1274 O1266 1.258 . S
O1275 Mn1260 2.162 1_545 S
O1275 C1263 1.281 1_545 S
O1276 Mn1260 2.297 . S
O1276 C1263 1.236 . S
N1277 Mn1261 2.282 . S
N1277 C1278 1.328 . S
N1277 C1282 1.318 . S
C1278 N1277 1.328 . S
C1278 C1279 1.457 . S
C1278 H1283 0.929 . S
C1279 C1278 1.457 . S
C1279 C1280 1.291 . S
C1279 H1292 0.931 . S
C1280 C1279 1.291 . S
C1280 C1281 1.373 . S
C1280 H1293 0.929 . S
C1281 C1280 1.373 . S
C1281 C1282 1.396 . S
C1281 C1288 1.403 . S
C1282 C1272 1.476 . S
C1282 N1277 1.318 . S
C1282 C1281 1.396 . S
H1283 C1278 0.929 . S
O1284 Mn1260 2.385 . S
O1284 C1262 1.234 . S
O1285 Mn1260 2.209 . S
O1285 Mn1261 2.215 . S
O1285 C1262 1.283 . S
O1286 Mn1260 2.094 . S
O1286 C1264 1.240 . S
O1287 Mn1261 2.117 . S
O1287 C1264 1.264 . S
C1288 C1281 1.403 . S
C1288 C1289 1.399 . S
C1288 H1294 0.929 . S
C1289 C1269 1.449 . S
C1289 C1288 1.399 . S
C1289 H1295 0.930 . S
H1290 C1270 0.931 . S
H1291 C1271 0.930 . S
H1292 C1279 0.931 . S
H1293 C1280 0.929 . S
H1294 C1288 0.929 . S
H1295 C1289 0.930 . S
H1296 C1302 0.930 . S
H1297 C1306 0.930 . S
H1298 C1311 0.929 . S
H1299 C1309 0.929 . S
H1300 C1304 0.929 . S
H1301 C1310 0.929 . S
C1302 H1296 0.930 . S
C1302 C1303 1.367 . S
C1302 C1310 1.378 . S
C1303 C1302 1.367 . S
C1303 C1311 1.433 . S
C1304 H1300 0.929 . S
C1304 C1306 1.378 . S
C1304 C1308 1.350 . S
C1305 C1308 1.463 . S
C1305 C1310 1.350 . S
C1305 N1313 1.427 . S
C1306 H1297 0.930 . S
C1306 C1304 1.378 . S
C1306 C1307 1.367 . S
C1307 C1306 1.367 . S
C1307 C1309 1.433 . S
C1308 C1304 1.350 . S
C1308 C1305 1.463 . S
C1308 N1312 1.427 . S
C1309 H1299 0.929 . S
C1309 C1307 1.433 . S
C1309 N1312 1.384 . S
C1310 H1301 0.929 . S
C1310 C1302 1.378 . S
C1310 C1305 1.350 . S
C1311 H1298 0.929 . S
C1311 C1303 1.433 . S
C1311 N1313 1.384 . S
N1312 C1308 1.427 . S
N1312 C1309 1.384 . S
N1313 C1305 1.427 . S
N1313 C1311 1.384 . S
H1314 C1320 0.930 . S
H1315 C1324 0.930 . S
H1316 C1329 0.929 . S
H1317 C1327 0.929 . S
H1318 C1322 0.929 . S
H1319 C1328 0.929 . S
C1320 H1314 0.930 . S
C1320 C1321 1.367 . S
C1320 C1328 1.378 . S
C1321 C1320 1.367 . S
C1321 C1329 1.433 . S
C1322 H1318 0.929 . S
C1322 C1324 1.378 . S
C1322 C1326 1.350 . S
C1323 C1326 1.463 . S
C1323 C1328 1.350 . S
C1323 N1331 1.427 . S
C1324 H1315 0.930 . S
C1324 C1322 1.378 . S
C1324 C1325 1.367 . S
C1325 C1324 1.367 . S
C1325 C1327 1.433 . S
C1326 C1322 1.350 . S
C1326 C1323 1.463 . S
C1326 N1330 1.427 . S
C1327 H1317 0.929 . S
C1327 C1325 1.433 . S
C1327 N1330 1.384 . S
C1328 H1319 0.929 . S
C1328 C1320 1.378 . S
C1328 C1323 1.350 . S
C1329 H1316 0.929 . S
C1329 C1321 1.433 . S
C1329 N1331 1.384 . S
N1330 C1326 1.427 . S
N1330 C1327 1.384 . S
N1331 C1323 1.427 . S
N1331 C1329 1.384 . S
H1332 C1338 0.930 . S
H1333 C1342 0.930 . S
H1334 C1347 0.929 . S
H1335 C1345 0.929 . S
H1336 C1340 0.929 . S
H1337 C1346 0.929 . S
C1338 H1332 0.930 . S
C1338 C1339 1.367 . S
C1338 C1346 1.378 . S
C1339 C1338 1.367 . S
C1339 C1347 1.433 . S
C1340 H1336 0.929 . S
C1340 C1342 1.378 . S
C1340 C1344 1.350 . S
C1341 C1344 1.463 . S
C1341 C1346 1.350 . S
C1341 N1349 1.427 . S
C1342 H1333 0.930 . S
C1342 C1340 1.378 . S
C1342 C1343 1.367 . S
C1343 C1342 1.367 . S
C1343 C1345 1.433 . S
C1344 C1340 1.350 . S
C1344 C1341 1.463 . S
C1344 N1348 1.427 . S
C1345 H1335 0.929 . S
C1345 C1343 1.433 . S
C1345 N1348 1.384 . S
C1346 H1337 0.929 . S
C1346 C1338 1.378 . S
C1346 C1341 1.350 . S
C1347 H1334 0.929 . S
C1347 C1339 1.433 . S
C1347 N1349 1.384 . S
N1348 C1344 1.427 . S
N1348 C1345 1.384 . S
N1349 C1341 1.427 . S
N1349 C1347 1.384 . S
H1350 C1356 0.930 . S
H1351 C1360 0.930 . S
H1352 C1365 0.929 . S
H1353 C1363 0.929 . S
H1354 C1358 0.929 . S
H1355 C1364 0.929 . S
C1356 H1350 0.930 . S
C1356 C1357 1.367 . S
C1356 C1364 1.378 . S
C1357 C1356 1.367 . S
C1357 C1365 1.433 . S
C1358 H1354 0.929 . S
C1358 C1360 1.378 . S
C1358 C1362 1.350 . S
C1359 C1362 1.463 . S
C1359 C1364 1.350 . S
C1359 N1367 1.427 . S
C1360 H1351 0.930 . S
C1360 C1358 1.378 . S
C1360 C1361 1.367 . S
C1361 C1360 1.367 . S
C1361 C1363 1.433 . S
C1362 C1358 1.350 . S
C1362 C1359 1.463 . S
C1362 N1366 1.427 . S
C1363 H1353 0.929 . S
C1363 C1361 1.433 . S
C1363 N1366 1.384 . S
C1364 H1355 0.929 . S
C1364 C1356 1.378 . S
C1364 C1359 1.350 . S
C1365 H1352 0.929 . S
C1365 C1357 1.433 . S
C1365 N1367 1.384 . S
N1366 C1362 1.427 . S
N1366 C1363 1.384 . S
N1367 C1359 1.427 . S
N1367 C1365 1.384 . S
H1368 C1374 0.930 . S
H1369 C1378 0.930 . S
H1370 C1383 0.929 . S
H1371 C1381 0.929 . S
H1372 C1376 0.929 . S
H1373 C1382 0.929 . S
C1374 H1368 0.930 . S
C1374 C1375 1.367 . S
C1374 C1382 1.378 . S
C1375 C1374 1.367 . S
C1375 C1383 1.433 . S
C1376 H1372 0.929 . S
C1376 C1378 1.378 . S
C1376 C1380 1.350 . S
C1377 C1380 1.463 . S
C1377 C1382 1.350 . S
C1377 N1385 1.427 . S
C1378 H1369 0.930 . S
C1378 C1376 1.378 . S
C1378 C1379 1.367 . S
C1379 C1378 1.367 . S
C1379 C1381 1.433 . S
C1380 C1376 1.350 . S
C1380 C1377 1.463 . S
C1380 N1384 1.427 . S
C1381 H1371 0.929 . S
C1381 C1379 1.433 . S
C1381 N1384 1.384 . S
C1382 H1373 0.929 . S
C1382 C1374 1.378 . S
C1382 C1377 1.350 . S
C1383 H1370 0.929 . S
C1383 C1375 1.433 . S
C1383 N1385 1.384 . S
N1384 C1380 1.427 . S
N1384 C1381 1.384 . S
N1385 C1377 1.427 . S
N1385 C1383 1.384 . S
H1386 C1392 0.930 . S
H1387 C1396 0.930 . S
H1388 C1401 0.929 . S
H1389 C1399 0.929 . S
H1390 C1394 0.929 . S
H1391 C1400 0.929 . S
C1392 H1386 0.930 . S
C1392 C1393 1.367 . S
C1392 C1400 1.378 . S
C1393 C1392 1.367 . S
C1393 C1401 1.433 . S
C1394 H1390 0.929 . S
C1394 C1396 1.378 . S
C1394 C1398 1.350 . S
C1395 C1398 1.463 . S
C1395 C1400 1.350 . S
C1395 N1403 1.427 . S
C1396 H1387 0.930 . S
C1396 C1394 1.378 . S
C1396 C1397 1.367 . S
C1397 C1396 1.367 . S
C1397 C1399 1.433 . S
C1398 C1394 1.350 . S
C1398 C1395 1.463 . S
C1398 N1402 1.427 . S
C1399 H1389 0.929 . S
C1399 C1397 1.433 . S
C1399 N1402 1.384 . S
C1400 H1391 0.929 . S
C1400 C1392 1.378 . S
C1400 C1395 1.350 . S
C1401 H1388 0.929 . S
C1401 C1393 1.433 . S
C1401 N1403 1.384 . S
N1402 C1398 1.427 . S
N1402 C1399 1.384 . S
N1403 C1395 1.427 . S
N1403 C1401 1.384 . S
H1404 C1410 0.930 . S
H1405 C1414 0.930 . S
H1406 C1419 0.929 . S
H1407 C1417 0.929 . S
H1408 C1412 0.929 . S
H1409 C1418 0.929 . S
C1410 H1404 0.930 . S
C1410 C1411 1.367 . S
C1410 C1418 1.378 . S
C1411 C1410 1.367 . S
C1411 C1419 1.433 . S
C1412 H1408 0.929 . S
C1412 C1414 1.378 . S
C1412 C1416 1.350 . S
C1413 C1416 1.463 . S
C1413 C1418 1.350 . S
C1413 N1421 1.427 . S
C1414 H1405 0.930 . S
C1414 C1412 1.378 . S
C1414 C1415 1.367 . S
C1415 C1414 1.367 . S
C1415 C1417 1.433 . S
C1416 C1412 1.350 . S
C1416 C1413 1.463 . S
C1416 N1420 1.427 . S
C1417 H1407 0.929 . S
C1417 C1415 1.433 . S
C1417 N1420 1.384 . S
C1418 H1409 0.929 . S
C1418 C1410 1.378 . S
C1418 C1413 1.350 . S
C1419 H1406 0.929 . S
C1419 C1411 1.433 . S
C1419 N1421 1.384 . S
N1420 C1416 1.427 . S
N1420 C1417 1.384 . S
N1421 C1413 1.427 . S
N1421 C1419 1.384 . S
H1422 C1428 0.930 . S
H1423 C1432 0.930 . S
H1424 C1437 0.929 . S
H1425 C1435 0.929 . S
H1426 C1430 0.929 . S
H1427 C1436 0.929 . S
C1428 H1422 0.930 . S
C1428 C1429 1.367 . S
C1428 C1436 1.378 . S
C1429 C1428 1.367 . S
C1429 C1437 1.433 . S
C1430 H1426 0.929 . S
C1430 C1432 1.378 . S
C1430 C1434 1.350 . S
C1431 C1434 1.463 . S
C1431 C1436 1.350 . S
C1431 N1439 1.427 . S
C1432 H1423 0.930 . S
C1432 C1430 1.378 . S
C1432 C1433 1.367 . S
C1433 C1432 1.367 . S
C1433 C1435 1.433 . S
C1434 C1430 1.350 . S
C1434 C1431 1.463 . S
C1434 N1438 1.427 . S
C1435 H1425 0.929 . S
C1435 C1433 1.433 . S
C1435 N1438 1.384 . S
C1436 H1427 0.929 . S
C1436 C1428 1.378 . S
C1436 C1431 1.350 . S
C1437 H1424 0.929 . S
C1437 C1429 1.433 . S
C1437 N1439 1.384 . S
N1438 C1434 1.427 . S
N1438 C1435 1.384 . S
N1439 C1431 1.427 . S
N1439 C1437 1.384 . S
H1440 C1446 0.930 . S
H1441 C1450 0.930 . S
H1442 C1455 0.929 . S
H1443 C1453 0.929 . S
H1444 C1448 0.929 . S
H1445 C1454 0.929 . S
C1446 H1440 0.930 . S
C1446 C1447 1.367 . S
C1446 C1454 1.378 . S
C1447 C1446 1.367 . S
C1447 C1455 1.433 . S
C1448 H1444 0.929 . S
C1448 C1450 1.378 . S
C1448 C1452 1.350 . S
C1449 C1452 1.463 . S
C1449 C1454 1.350 . S
C1449 N1457 1.427 . S
C1450 H1441 0.930 . S
C1450 C1448 1.378 . S
C1450 C1451 1.367 . S
C1451 C1450 1.367 . S
C1451 C1453 1.433 . S
C1452 C1448 1.350 . S
C1452 C1449 1.463 . S
C1452 N1456 1.427 . S
C1453 H1443 0.929 . S
C1453 C1451 1.433 . S
C1453 N1456 1.384 . S
C1454 H1445 0.929 . S
C1454 C1446 1.378 . S
C1454 C1449 1.350 . S
C1455 H1442 0.929 . S
C1455 C1447 1.433 . S
C1455 N1457 1.384 . S
N1456 C1452 1.427 . S
N1456 C1453 1.384 . S
N1457 C1449 1.427 . S
N1457 C1455 1.384 . S
H1458 C1464 0.930 . S
H1459 C1468 0.930 . S
H1460 C1473 0.929 . S
H1461 C1471 0.929 . S
H1462 C1466 0.929 . S
H1463 C1472 0.929 . S
C1464 H1458 0.930 . S
C1464 C1465 1.367 . S
C1464 C1472 1.378 . S
C1465 C1464 1.367 . S
C1465 C1473 1.433 . S
C1466 H1462 0.929 . S
C1466 C1468 1.378 . S
C1466 C1470 1.350 . S
C1467 C1470 1.463 . S
C1467 C1472 1.350 . S
C1467 N1475 1.427 . S
C1468 H1459 0.930 . S
C1468 C1466 1.378 . S
C1468 C1469 1.367 . S
C1469 C1468 1.367 . S
C1469 C1471 1.433 . S
C1470 C1466 1.350 . S
C1470 C1467 1.463 . S
C1470 N1474 1.427 . S
C1471 H1461 0.929 . S
C1471 C1469 1.433 . S
C1471 N1474 1.384 . S
C1472 H1463 0.929 . S
C1472 C1464 1.378 . S
C1472 C1467 1.350 . S
C1473 H1460 0.929 . S
C1473 C1465 1.433 . S
C1473 N1475 1.384 . S
N1474 C1470 1.427 . S
N1474 C1471 1.384 . S
N1475 C1467 1.427 . S
N1475 C1473 1.384 . S
H1476 C1482 0.930 . S
H1477 C1486 0.930 . S
H1478 C1491 0.929 . S
H1479 C1489 0.929 . S
H1480 C1484 0.929 . S
H1481 C1490 0.929 . S
C1482 H1476 0.930 . S
C1482 C1483 1.367 . S
C1482 C1490 1.378 . S
C1483 C1482 1.367 . S
C1483 C1491 1.433 . S
C1484 H1480 0.929 . S
C1484 C1486 1.378 . S
C1484 C1488 1.350 . S
C1485 C1488 1.463 . S
C1485 C1490 1.350 . S
C1485 N1493 1.427 . S
C1486 H1477 0.930 . S
C1486 C1484 1.378 . S
C1486 C1487 1.367 . S
C1487 C1486 1.367 . S
C1487 C1489 1.433 . S
C1488 C1484 1.350 . S
C1488 C1485 1.463 . S
C1488 N1492 1.427 . S
C1489 H1479 0.929 . S
C1489 C1487 1.433 . S
C1489 N1492 1.384 . S
C1490 H1481 0.929 . S
C1490 C1482 1.378 . S
C1490 C1485 1.350 . S
C1491 H1478 0.929 . S
C1491 C1483 1.433 . S
C1491 N1493 1.384 . S
N1492 C1488 1.427 . S
N1492 C1489 1.384 . S
N1493 C1485 1.427 . S
N1493 C1491 1.384 . S
H1494 C1500 0.930 . S
H1495 C1504 0.930 . S
H1496 C1509 0.929 . S
H1497 C1507 0.929 . S
H1498 C1502 0.929 . S
H1499 C1508 0.929 . S
C1500 H1494 0.930 . S
C1500 C1501 1.367 . S
C1500 C1508 1.378 . S
C1501 C1500 1.367 . S
C1501 C1509 1.433 . S
C1502 H1498 0.929 . S
C1502 C1504 1.378 . S
C1502 C1506 1.350 . S
C1503 C1506 1.463 . S
C1503 C1508 1.350 . S
C1503 N1511 1.427 . S
C1504 H1495 0.930 . S
C1504 C1502 1.378 . S
C1504 C1505 1.367 . S
C1505 C1504 1.367 . S
C1505 C1507 1.433 . S
C1506 C1502 1.350 . S
C1506 C1503 1.463 . S
C1506 N1510 1.427 . S
C1507 H1497 0.929 . S
C1507 C1505 1.433 . S
C1507 N1510 1.384 . S
C1508 H1499 0.929 . S
C1508 C1500 1.378 . S
C1508 C1503 1.350 . S
C1509 H1496 0.929 . S
C1509 C1501 1.433 . S
C1509 N1511 1.384 . S
N1510 C1506 1.427 . S
N1510 C1507 1.384 . S
N1511 C1503 1.427 . S
N1511 C1509 1.384 . S
H1512 C1518 0.930 1_545 S
H1513 C1522 0.930 . S
H1514 C1527 0.929 . S
H1515 C1525 0.929 1_545 S
H1516 C1520 0.929 . S
H1517 C1526 0.929 1_545 S
C1518 H1512 0.930 1_565 S
C1518 C1519 1.367 . S
C1518 C1526 1.378 . S
C1519 C1518 1.367 . S
C1519 C1527 1.433 . S
C1520 H1516 0.929 . S
C1520 C1522 1.378 . S
C1520 C1524 1.350 . S
C1521 C1524 1.463 . S
C1521 C1526 1.350 . S
C1521 N1529 1.427 . S
C1522 H1513 0.930 . S
C1522 C1520 1.378 . S
C1522 C1523 1.367 . S
C1523 C1522 1.367 . S
C1523 C1525 1.433 . S
C1524 C1520 1.350 . S
C1524 C1521 1.463 . S
C1524 N1528 1.427 . S
C1525 H1515 0.929 1_565 S
C1525 C1523 1.433 . S
C1525 N1528 1.384 . S
C1526 H1517 0.929 1_565 S
C1526 C1518 1.378 . S
C1526 C1521 1.350 . S
C1527 H1514 0.929 . S
C1527 C1519 1.433 . S
C1527 N1529 1.384 . S
N1528 C1524 1.427 . S
N1528 C1525 1.384 . S
N1529 C1521 1.427 . S
N1529 C1527 1.384 . S
H1530 C1536 0.930 . S
H1531 C1540 0.930 . S
H1532 C1545 0.929 . S
H1533 C1543 0.929 . S
H1534 C1538 0.929 . S
H1535 C1544 0.929 . S
C1536 H1530 0.930 . S
C1536 C1537 1.367 . S
C1536 C1544 1.378 . S
C1537 C1536 1.367 . S
C1537 C1545 1.433 . S
C1538 H1534 0.929 . S
C1538 C1540 1.378 . S
C1538 C1542 1.350 . S
C1539 C1542 1.463 . S
C1539 C1544 1.350 . S
C1539 N1547 1.427 . S
C1540 H1531 0.930 . S
C1540 C1538 1.378 . S
C1540 C1541 1.367 . S
C1541 C1540 1.367 . S
C1541 C1543 1.433 . S
C1542 C1538 1.350 . S
C1542 C1539 1.463 . S
C1542 N1546 1.427 . S
C1543 H1533 0.929 . S
C1543 C1541 1.433 . S
C1543 N1546 1.384 . S
C1544 H1535 0.929 . S
C1544 C1536 1.378 . S
C1544 C1539 1.350 . S
C1545 H1532 0.929 . S
C1545 C1537 1.433 . S
C1545 N1547 1.384 . S
N1546 C1542 1.427 . S
N1546 C1543 1.384 . S
N1547 C1539 1.427 . S
N1547 C1545 1.384 . S
H1548 C1554 0.930 . S
H1549 C1558 0.930 . S
H1550 C1563 0.929 . S
H1551 C1561 0.929 . S
H1552 C1556 0.929 . S
H1553 C1562 0.929 . S
C1554 H1548 0.930 . S
C1554 C1555 1.367 . S
C1554 C1562 1.378 . S
C1555 C1554 1.367 . S
C1555 C1563 1.433 . S
C1556 H1552 0.929 . S
C1556 C1558 1.378 . S
C1556 C1560 1.350 . S
C1557 C1560 1.463 . S
C1557 C1562 1.350 . S
C1557 N1565 1.427 . S
C1558 H1549 0.930 . S
C1558 C1556 1.378 . S
C1558 C1559 1.367 . S
C1559 C1558 1.367 . S
C1559 C1561 1.433 . S
C1560 C1556 1.350 . S
C1560 C1557 1.463 . S
C1560 N1564 1.427 . S
C1561 H1551 0.929 . S
C1561 C1559 1.433 . S
C1561 N1564 1.384 . S
C1562 H1553 0.929 . S
C1562 C1554 1.378 . S
C1562 C1557 1.350 . S
C1563 H1550 0.929 . S
C1563 C1555 1.433 . S
C1563 N1565 1.384 . S
N1564 C1560 1.427 . S
N1564 C1561 1.384 . S
N1565 C1557 1.427 . S
N1565 C1563 1.384 . S
H1566 C1572 0.930 . S
H1567 C1576 0.930 . S
H1568 C1581 0.929 . S
H1569 C1579 0.929 . S
H1570 C1574 0.929 . S
H1571 C1580 0.929 . S
C1572 H1566 0.930 . S
C1572 C1573 1.367 . S
C1572 C1580 1.378 . S
C1573 C1572 1.367 . S
C1573 C1581 1.433 . S
C1574 H1570 0.929 . S
C1574 C1576 1.378 . S
C1574 C1578 1.350 . S
C1575 C1578 1.463 . S
C1575 C1580 1.350 . S
C1575 N1583 1.427 . S
C1576 H1567 0.930 . S
C1576 C1574 1.378 . S
C1576 C1577 1.367 . S
C1577 C1576 1.367 . S
C1577 C1579 1.433 . S
C1578 C1574 1.350 . S
C1578 C1575 1.463 . S
C1578 N1582 1.427 . S
C1579 H1569 0.929 . S
C1579 C1577 1.433 . S
C1579 N1582 1.384 . S
C1580 H1571 0.929 . S
C1580 C1572 1.378 . S
C1580 C1575 1.350 . S
C1581 H1568 0.929 . S
C1581 C1573 1.433 . S
C1581 N1583 1.384 . S
N1582 C1578 1.427 . S
N1582 C1579 1.384 . S
N1583 C1575 1.427 . S
N1583 C1581 1.384 . S
H1584 C1590 0.930 . S
H1585 C1594 0.930 . S
H1586 C1599 0.929 . S
H1587 C1597 0.929 . S
H1588 C1592 0.929 . S
H1589 C1598 0.929 . S
C1590 H1584 0.930 . S
C1590 C1591 1.367 . S
C1590 C1598 1.378 . S
C1591 C1590 1.367 . S
C1591 C1599 1.433 . S
C1592 H1588 0.929 . S
C1592 C1594 1.378 . S
C1592 C1596 1.350 . S
C1593 C1596 1.463 . S
C1593 C1598 1.350 . S
C1593 N1601 1.427 . S
C1594 H1585 0.930 . S
C1594 C1592 1.378 . S
C1594 C1595 1.367 . S
C1595 C1594 1.367 . S
C1595 C1597 1.433 . S
C1596 C1592 1.350 . S
C1596 C1593 1.463 . S
C1596 N1600 1.427 . S
C1597 H1587 0.929 . S
C1597 C1595 1.433 . S
C1597 N1600 1.384 . S
C1598 H1589 0.929 . S
C1598 C1590 1.378 . S
C1598 C1593 1.350 . S
C1599 H1586 0.929 . S
C1599 C1591 1.433 . S
C1599 N1601 1.384 . S
N1600 C1596 1.427 . S
N1600 C1597 1.384 . S
N1601 C1593 1.427 . S
N1601 C1599 1.384 . S
H1602 C1608 0.930 . S
H1603 C1612 0.930 . S
H1604 C1617 0.929 . S
H1605 C1615 0.929 . S
H1606 C1610 0.929 . S
H1607 C1616 0.929 . S
C1608 H1602 0.930 . S
C1608 C1609 1.367 . S
C1608 C1616 1.378 . S
C1609 C1608 1.367 . S
C1609 C1617 1.433 . S
C1610 H1606 0.929 . S
C1610 C1612 1.378 . S
C1610 C1614 1.350 . S
C1611 C1614 1.463 . S
C1611 C1616 1.350 . S
C1611 N1619 1.427 . S
C1612 H1603 0.930 . S
C1612 C1610 1.378 . S
C1612 C1613 1.367 . S
C1613 C1612 1.367 . S
C1613 C1615 1.433 . S
C1614 C1610 1.350 . S
C1614 C1611 1.463 . S
C1614 N1618 1.427 . S
C1615 H1605 0.929 . S
C1615 C1613 1.433 . S
C1615 N1618 1.384 . S
C1616 H1607 0.929 . S
C1616 C1608 1.378 . S
C1616 C1611 1.350 . S
C1617 H1604 0.929 . S
C1617 C1609 1.433 . S
C1617 N1619 1.384 . S
N1618 C1614 1.427 . S
N1618 C1615 1.384 . S
N1619 C1611 1.427 . S
N1619 C1617 1.384 . S
H1620 C1626 0.930 . S
H1621 C1630 0.936 . S
H1622 C1635 0.929 . S
H1623 C1633 0.929 . S
H1624 C1628 0.929 . S
H1625 C1634 0.929 . S
C1626 H1620 0.930 . S
C1626 C1627 1.367 . S
C1626 C1634 1.378 . S
C1627 C1626 1.367 . S
C1627 C1635 1.433 . S
C1628 H1624 0.929 . S
C1628 C1630 1.375 1_455 S
C1628 C1632 1.350 . S
C1629 C1632 1.463 . S
C1629 C1634 1.350 . S
C1629 N1637 1.427 . S
C1630 H1621 0.936 . S
C1630 C1628 1.375 1_655 S
C1630 C1631 1.364 . S
C1631 C1630 1.364 . S
C1631 C1633 1.433 1_655 S
C1632 C1628 1.350 . S
C1632 C1629 1.463 . S
C1632 N1636 1.427 . S
C1633 H1623 0.929 . S
C1633 C1631 1.433 1_455 S
C1633 N1636 1.384 . S
C1634 H1625 0.929 . S
C1634 C1626 1.378 . S
C1634 C1629 1.350 . S
C1635 H1622 0.929 . S
C1635 C1627 1.433 . S
C1635 N1637 1.384 . S
N1636 C1632 1.427 . S
N1636 C1633 1.384 . S
N1637 C1629 1.427 . S
N1637 C1635 1.384 . S
H1638 C1644 0.930 . S
H1639 C1648 0.930 . S
H1640 C1653 0.929 . S
H1641 C1651 0.929 . S
H1642 C1646 0.929 . S
H1643 C1652 0.929 . S
C1644 H1638 0.930 . S
C1644 C1645 1.367 . S
C1644 C1652 1.378 . S
C1645 C1644 1.367 . S
C1645 C1653 1.433 . S
C1646 H1642 0.929 . S
C1646 C1648 1.378 . S
C1646 C1650 1.350 . S
C1647 C1650 1.463 . S
C1647 C1652 1.350 . S
C1647 N1655 1.427 . S
C1648 H1639 0.930 . S
C1648 C1646 1.378 . S
C1648 C1649 1.367 . S
C1649 C1648 1.367 . S
C1649 C1651 1.433 . S
C1650 C1646 1.350 . S
C1650 C1647 1.463 . S
C1650 N1654 1.427 . S
C1651 H1641 0.929 . S
C1651 C1649 1.433 . S
C1651 N1654 1.384 . S
C1652 H1643 0.929 . S
C1652 C1644 1.378 . S
C1652 C1647 1.350 . S
C1653 H1640 0.929 . S
C1653 C1645 1.433 . S
C1653 N1655 1.384 . S
N1654 C1650 1.427 . S
N1654 C1651 1.384 . S
N1655 C1647 1.427 . S
N1655 C1653 1.384 . S
H1656 C1662 0.930 . S
H1657 C1666 0.930 . S
H1658 C1671 0.929 1_565 S
H1659 C1669 0.929 . S
H1660 C1664 0.929 . S
H1661 C1670 0.929 . S
C1662 H1656 0.930 . S
C1662 C1663 1.367 . S
C1662 C1670 1.378 . S
C1663 C1662 1.367 . S
C1663 C1671 1.433 . S
C1664 H1660 0.929 . S
C1664 C1666 1.378 . S
C1664 C1668 1.350 . S
C1665 C1668 1.463 . S
C1665 C1670 1.350 . S
C1665 N1673 1.427 . S
C1666 H1657 0.930 . S
C1666 C1664 1.378 . S
C1666 C1667 1.367 . S
C1667 C1666 1.367 . S
C1667 C1669 1.433 . S
C1668 C1664 1.350 . S
C1668 C1665 1.463 . S
C1668 N1672 1.427 . S
C1669 H1659 0.929 . S
C1669 C1667 1.433 . S
C1669 N1672 1.384 . S
C1670 H1661 0.929 . S
C1670 C1662 1.378 . S
C1670 C1665 1.350 . S
C1671 H1658 0.929 1_545 S
C1671 C1663 1.433 . S
C1671 N1673 1.384 . S
N1672 C1668 1.427 . S
N1672 C1669 1.384 . S
N1673 C1665 1.427 . S
N1673 C1671 1.384 . S
H1674 C1680 0.930 . S
H1675 C1684 0.942 . S
H1676 C1689 0.929 . S
H1677 C1687 0.929 . S
H1678 C1682 0.929 . S
H1679 C1688 0.929 . S
C1680 H1674 0.930 . S
C1680 C1681 1.367 . S
C1680 C1688 1.378 . S
C1681 C1680 1.367 . S
C1681 C1689 1.433 . S
C1682 H1678 0.929 . S
C1682 C1684 1.373 1_545 S
C1682 C1686 1.350 . S
C1683 C1686 1.463 . S
C1683 C1688 1.350 . S
C1683 N1691 1.427 . S
C1684 H1675 0.942 . S
C1684 C1682 1.373 1_565 S
C1684 C1685 1.361 . S
C1685 C1684 1.361 . S
C1685 C1687 1.433 1_565 S
C1686 C1682 1.350 . S
C1686 C1683 1.463 . S
C1686 N1690 1.427 . S
C1687 H1677 0.929 . S
C1687 C1685 1.433 1_545 S
C1687 N1690 1.384 . S
C1688 H1679 0.929 . S
C1688 C1680 1.378 . S
C1688 C1683 1.350 . S
C1689 H1676 0.929 . S
C1689 C1681 1.433 . S
C1689 N1691 1.384 . S
N1690 C1686 1.427 . S
N1690 C1687 1.384 . S
N1691 C1683 1.427 . S
N1691 C1689 1.384 . S
H1692 C1698 0.930 . S
H1693 C1702 0.930 . S
H1694 C1707 0.929 . S
H1695 C1705 0.929 . S
H1696 C1700 0.929 . S
H1697 C1706 0.929 . S
C1698 H1692 0.930 . S
C1698 C1699 1.367 . S
C1698 C1706 1.378 . S
C1699 C1698 1.367 . S
C1699 C1707 1.433 . S
C1700 H1696 0.929 . S
C1700 C1702 1.378 . S
C1700 C1704 1.350 . S
C1701 C1704 1.463 . S
C1701 C1706 1.350 . S
C1701 N1709 1.427 . S
C1702 H1693 0.930 . S
C1702 C1700 1.378 . S
C1702 C1703 1.367 . S
C1703 C1702 1.367 . S
C1703 C1705 1.433 . S
C1704 C1700 1.350 . S
C1704 C1701 1.463 . S
C1704 N1708 1.427 . S
C1705 H1695 0.929 . S
C1705 C1703 1.433 . S
C1705 N1708 1.384 . S
C1706 H1697 0.929 . S
C1706 C1698 1.378 . S
C1706 C1701 1.350 . S
C1707 H1694 0.929 . S
C1707 C1699 1.433 . S
C1707 N1709 1.384 . S
N1708 C1704 1.427 . S
N1708 C1705 1.384 . S
N1709 C1701 1.427 . S
N1709 C1707 1.384 . S
H1710 C1716 0.930 . S
H1711 C1720 0.930 . S
H1712 C1725 0.929 . S
H1713 C1723 0.929 . S
H1714 C1718 0.929 . S
H1715 C1724 0.929 . S
C1716 H1710 0.930 . S
C1716 C1717 1.367 . S
C1716 C1724 1.378 . S
C1717 C1716 1.367 . S
C1717 C1725 1.433 . S
C1718 H1714 0.929 . S
C1718 C1720 1.378 . S
C1718 C1722 1.350 . S
C1719 C1722 1.463 . S
C1719 C1724 1.350 . S
C1719 N1727 1.427 . S
C1720 H1711 0.930 . S
C1720 C1718 1.378 . S
C1720 C1721 1.367 . S
C1721 C1720 1.367 . S
C1721 C1723 1.433 . S
C1722 C1718 1.350 . S
C1722 C1719 1.463 . S
C1722 N1726 1.427 . S
C1723 H1713 0.929 . S
C1723 C1721 1.433 . S
C1723 N1726 1.384 . S
C1724 H1715 0.929 . S
C1724 C1716 1.378 . S
C1724 C1719 1.350 . S
C1725 H1712 0.929 . S
C1725 C1717 1.433 . S
C1725 N1727 1.384 . S
N1726 C1722 1.427 . S
N1726 C1723 1.384 . S
N1727 C1719 1.427 . S
N1727 C1725 1.384 . S
H1728 C1734 0.930 . S
H1729 C1738 0.930 . S
H1730 C1743 0.929 . S
H1731 C1741 0.929 . S
H1732 C1736 0.929 . S
H1733 C1742 0.929 . S
C1734 H1728 0.930 . S
C1734 C1735 1.367 . S
C1734 C1742 1.378 . S
C1735 C1734 1.367 . S
C1735 C1743 1.433 . S
C1736 H1732 0.929 . S
C1736 C1738 1.378 . S
C1736 C1740 1.350 . S
C1737 C1740 1.463 . S
C1737 C1742 1.350 . S
C1737 N1745 1.427 . S
C1738 H1729 0.930 . S
C1738 C1736 1.378 . S
C1738 C1739 1.367 . S
C1739 C1738 1.367 . S
C1739 C1741 1.433 . S
C1740 C1736 1.350 . S
C1740 C1737 1.463 . S
C1740 N1744 1.427 . S
C1741 H1731 0.929 . S
C1741 C1739 1.433 . S
C1741 N1744 1.384 . S
C1742 H1733 0.929 . S
C1742 C1734 1.378 . S
C1742 C1737 1.350 . S
C1743 H1730 0.929 . S
C1743 C1735 1.433 . S
C1743 N1745 1.384 . S
N1744 C1740 1.427 . S
N1744 C1741 1.384 . S
N1745 C1737 1.427 . S
N1745 C1743 1.384 . S
H1746 C1752 0.930 . S
H1747 C1756 0.930 . S
H1748 C1761 0.929 . S
H1749 C1759 0.929 . S
H1750 C1754 0.929 . S
H1751 C1760 0.929 . S
C1752 H1746 0.930 . S
C1752 C1753 1.367 . S
C1752 C1760 1.378 . S
C1753 C1752 1.367 . S
C1753 C1761 1.433 . S
C1754 H1750 0.929 . S
C1754 C1756 1.378 . S
C1754 C1758 1.350 . S
C1755 C1758 1.463 . S
C1755 C1760 1.350 . S
C1755 N1763 1.427 . S
C1756 H1747 0.930 . S
C1756 C1754 1.378 . S
C1756 C1757 1.367 . S
C1757 C1756 1.367 . S
C1757 C1759 1.433 . S
C1758 C1754 1.350 . S
C1758 C1755 1.463 . S
C1758 N1762 1.427 . S
C1759 H1749 0.929 . S
C1759 C1757 1.433 . S
C1759 N1762 1.384 . S
C1760 H1751 0.929 . S
C1760 C1752 1.378 . S
C1760 C1755 1.350 . S
C1761 H1748 0.929 . S
C1761 C1753 1.433 . S
C1761 N1763 1.384 . S
N1762 C1758 1.427 . S
N1762 C1759 1.384 . S
N1763 C1755 1.427 . S
N1763 C1761 1.384 . S
H1764 C1770 0.930 . S
H1765 C1774 0.930 . S
H1766 C1779 0.929 . S
H1767 C1777 0.929 . S
H1768 C1772 0.929 . S
H1769 C1778 0.929 . S
C1770 H1764 0.930 . S
C1770 C1771 1.367 1_565 S
C1770 C1778 1.378 . S
C1771 C1770 1.367 1_545 S
C1771 C1779 1.433 . S
C1772 H1768 0.929 . S
C1772 C1774 1.378 . S
C1772 C1776 1.350 . S
C1773 C1776 1.463 . S
C1773 C1778 1.350 1_545 S
C1773 N1781 1.427 . S
C1774 H1765 0.930 . S
C1774 C1772 1.378 . S
C1774 C1775 1.344 1_545 S
C1775 C1774 1.344 1_565 S
C1775 C1777 1.457 . S
C1776 C1772 1.350 . S
C1776 C1773 1.463 . S
C1776 N1780 1.427 1_545 S
C1777 H1767 0.929 . S
C1777 C1775 1.457 . S
C1777 N1780 1.384 . S
C1778 H1769 0.929 . S
C1778 C1770 1.378 . S
C1778 C1773 1.350 1_565 S
C1779 H1766 0.929 . S
C1779 C1771 1.433 . S
C1779 N1781 1.384 . S
N1780 C1776 1.427 1_565 S
N1780 C1777 1.384 . S
N1781 C1773 1.427 . S
N1781 C1779 1.384 . S
H1782 C1788 0.930 . S
H1783 C1792 0.930 . S
H1784 C1797 0.929 . S
H1785 C1795 0.929 . S
H1786 C1790 0.929 . S
H1787 C1796 0.929 . S
C1788 H1782 0.930 . S
C1788 C1789 1.367 . S
C1788 C1796 1.378 . S
C1789 C1788 1.367 . S
C1789 C1797 1.433 . S
C1790 H1786 0.929 . S
C1790 C1792 1.378 . S
C1790 C1794 1.350 . S
C1791 C1794 1.463 . S
C1791 C1796 1.350 . S
C1791 N1799 1.427 . S
C1792 H1783 0.930 . S
C1792 C1790 1.378 . S
C1792 C1793 1.367 . S
C1793 C1792 1.367 . S
C1793 C1795 1.433 . S
C1794 C1790 1.350 . S
C1794 C1791 1.463 . S
C1794 N1798 1.427 . S
C1795 H1785 0.929 . S
C1795 C1793 1.433 . S
C1795 N1798 1.384 . S
C1796 H1787 0.929 . S
C1796 C1788 1.378 . S
C1796 C1791 1.350 . S
C1797 H1784 0.929 . S
C1797 C1789 1.433 . S
C1797 N1799 1.384 . S
N1798 C1794 1.427 . S
N1798 C1795 1.384 . S
N1799 C1791 1.427 . S
N1799 C1797 1.384 . S
H1800 C1806 0.930 . S
H1801 C1810 0.930 . S
H1802 C1815 0.929 . S
H1803 C1813 0.929 . S
H1804 C1808 0.929 . S
H1805 C1814 0.929 . S
C1806 H1800 0.930 . S
C1806 C1807 1.367 . S
C1806 C1814 1.378 . S
C1807 C1806 1.367 . S
C1807 C1815 1.433 . S
C1808 H1804 0.929 . S
C1808 C1810 1.378 . S
C1808 C1812 1.350 . S
C1809 C1812 1.463 . S
C1809 C1814 1.350 . S
C1809 N1817 1.427 . S
C1810 H1801 0.930 . S
C1810 C1808 1.378 . S
C1810 C1811 1.367 1_455 S
C1811 C1810 1.367 1_655 S
C1811 C1813 1.433 . S
C1812 C1808 1.350 . S
C1812 C1809 1.463 . S
C1812 N1816 1.427 . S
C1813 H1803 0.929 . S
C1813 C1811 1.433 . S
C1813 N1816 1.384 1_655 S
C1814 H1805 0.929 . S
C1814 C1806 1.378 . S
C1814 C1809 1.350 . S
C1815 H1802 0.929 . S
C1815 C1807 1.433 . S
C1815 N1817 1.384 . S
N1816 C1812 1.427 . S
N1816 C1813 1.384 1_455 S
N1817 C1809 1.427 . S
N1817 C1815 1.384 . S
H1818 C1824 0.930 . S
H1819 C1828 0.930 . S
H1820 C1833 0.929 . S
H1821 C1831 0.929 . S
H1822 C1826 0.929 . S
H1823 C1832 0.929 . S
C1824 H1818 0.930 . S
C1824 C1825 1.367 . S
C1824 C1832 1.378 . S
C1825 C1824 1.367 . S
C1825 C1833 1.433 . S
C1826 H1822 0.929 . S
C1826 C1828 1.378 . S
C1826 C1830 1.350 . S
C1827 C1830 1.463 . S
C1827 C1832 1.350 . S
C1827 N1835 1.427 . S
C1828 H1819 0.930 . S
C1828 C1826 1.378 . S
C1828 C1829 1.367 . S
C1829 C1828 1.367 . S
C1829 C1831 1.433 . S
C1830 C1826 1.350 . S
C1830 C1827 1.463 . S
C1830 N1834 1.427 . S
C1831 H1821 0.929 . S
C1831 C1829 1.433 . S
C1831 N1834 1.384 . S
C1832 H1823 0.929 . S
C1832 C1824 1.378 . S
C1832 C1827 1.350 . S
C1833 H1820 0.929 . S
C1833 C1825 1.433 . S
C1833 N1835 1.384 . S
N1834 C1830 1.427 . S
N1834 C1831 1.384 . S
N1835 C1827 1.427 . S
N1835 C1833 1.384 . S
H1836 C1842 0.930 . S
H1837 C1846 0.930 . S
H1838 C1851 0.929 . S
H1839 C1849 0.929 . S
H1840 C1844 0.929 . S
H1841 C1850 0.929 . S
C1842 H1836 0.930 . S
C1842 C1843 1.367 . S
C1842 C1850 1.378 . S
C1843 C1842 1.367 . S
C1843 C1851 1.433 . S
C1844 H1840 0.929 . S
C1844 C1846 1.378 . S
C1844 C1848 1.350 . S
C1845 C1848 1.463 . S
C1845 C1850 1.350 . S
C1845 N1853 1.427 . S
C1846 H1837 0.930 . S
C1846 C1844 1.378 . S
C1846 C1847 1.367 . S
C1847 C1846 1.367 . S
C1847 C1849 1.433 . S
C1848 C1844 1.350 . S
C1848 C1845 1.463 . S
C1848 N1852 1.427 . S
C1849 H1839 0.929 . S
C1849 C1847 1.433 . S
C1849 N1852 1.384 . S
C1850 H1841 0.929 . S
C1850 C1842 1.378 . S
C1850 C1845 1.350 . S
C1851 H1838 0.929 . S
C1851 C1843 1.433 . S
C1851 N1853 1.384 . S
N1852 C1848 1.427 . S
N1852 C1849 1.384 . S
N1853 C1845 1.427 . S
N1853 C1851 1.384 . S
H1854 C1860 0.930 . S
H1855 C1864 0.947 . S
H1856 C1869 0.929 . S
H1857 C1867 0.929 . S
H1858 C1862 0.929 . S
H1859 C1868 0.929 . S
C1860 H1854 0.930 . S
C1860 C1861 1.367 . S
C1860 C1868 1.378 . S
C1861 C1860 1.367 . S
C1861 C1869 1.433 . S
C1862 H1858 0.929 . S
C1862 C1864 1.378 . S
C1862 C1866 1.350 . S
C1863 C1866 1.463 . S
C1863 C1868 1.350 . S
C1863 N1871 1.427 . S
C1864 H1855 0.947 . S
C1864 C1862 1.378 . S
C1864 C1865 1.367 . S
C1865 C1864 1.367 . S
C1865 C1867 1.433 . S
C1866 C1862 1.350 . S
C1866 C1863 1.463 . S
C1866 N1870 1.427 . S
C1867 H1857 0.929 . S
C1867 C1865 1.433 . S
C1867 N1870 1.384 . S
C1868 H1859 0.929 . S
C1868 C1860 1.378 . S
C1868 C1863 1.350 . S
C1869 H1856 0.929 . S
C1869 C1861 1.433 . S
C1869 N1871 1.384 . S
N1870 C1866 1.427 . S
N1870 C1867 1.384 . S
N1871 C1863 1.427 . S
N1871 C1869 1.384 . S
H1872 C1878 0.930 . S
H1873 C1882 0.930 . S
H1874 C1887 0.929 . S
H1875 C1885 0.929 . S
H1876 C1880 0.929 . S
H1877 C1886 0.929 . S
C1878 H1872 0.930 . S
C1878 C1879 1.367 . S
C1878 C1886 1.378 . S
C1879 C1878 1.367 . S
C1879 C1887 1.433 . S
C1880 H1876 0.929 . S
C1880 C1882 1.378 . S
C1880 C1884 1.350 . S
C1881 C1884 1.463 . S
C1881 C1886 1.350 . S
C1881 N1889 1.427 . S
C1882 H1873 0.930 . S
C1882 C1880 1.378 . S
C1882 C1883 1.367 . S
C1883 C1882 1.367 . S
C1883 C1885 1.433 . S
C1884 C1880 1.350 . S
C1884 C1881 1.463 . S
C1884 N1888 1.427 . S
C1885 H1875 0.929 . S
C1885 C1883 1.433 . S
C1885 N1888 1.384 . S
C1886 H1877 0.929 . S
C1886 C1878 1.378 . S
C1886 C1881 1.350 . S
C1887 H1874 0.929 . S
C1887 C1879 1.433 . S
C1887 N1889 1.384 . S
N1888 C1884 1.427 . S
N1888 C1885 1.384 . S
N1889 C1881 1.427 . S
N1889 C1887 1.384 . S
H1890 C1896 0.930 . S
H1891 C1900 0.930 . S
H1892 C1905 0.929 . S
H1893 C1903 0.929 . S
H1894 C1898 0.929 . S
H1895 C1904 0.929 . S
C1896 H1890 0.930 . S
C1896 C1897 1.367 . S
C1896 C1904 1.378 . S
C1897 C1896 1.367 . S
C1897 C1905 1.433 . S
C1898 H1894 0.929 . S
C1898 C1900 1.378 . S
C1898 C1902 1.350 . S
C1899 C1902 1.463 . S
C1899 C1904 1.350 . S
C1899 N1907 1.427 . S
C1900 H1891 0.930 . S
C1900 C1898 1.378 . S
C1900 C1901 1.367 . S
C1901 C1900 1.367 . S
C1901 C1903 1.433 . S
C1902 C1898 1.350 . S
C1902 C1899 1.463 . S
C1902 N1906 1.427 . S
C1903 H1893 0.929 . S
C1903 C1901 1.433 . S
C1903 N1906 1.384 . S
C1904 H1895 0.929 . S
C1904 C1896 1.378 . S
C1904 C1899 1.350 . S
C1905 H1892 0.929 . S
C1905 C1897 1.433 . S
C1905 N1907 1.384 . S
N1906 C1902 1.427 . S
N1906 C1903 1.384 . S
N1907 C1899 1.427 . S
N1907 C1905 1.384 . S
H1908 C1914 0.930 . S
H1909 C1918 0.930 . S
H1910 C1923 0.929 . S
H1911 C1921 0.929 . S
H1912 C1916 0.929 . S
H1913 C1922 0.929 . S
C1914 H1908 0.930 . S
C1914 C1915 1.367 1_565 S
C1914 C1922 1.378 . S
C1915 C1914 1.367 1_545 S
C1915 C1923 1.433 . S
C1916 H1912 0.929 . S
C1916 C1918 1.378 . S
C1916 C1920 1.350 . S
C1917 C1920 1.463 . S
C1917 C1922 1.350 1_545 S
C1917 N1925 1.427 . S
C1918 H1909 0.930 . S
C1918 C1916 1.378 . S
C1918 C1919 1.367 . S
C1919 C1918 1.367 . S
C1919 C1921 1.433 . S
C1920 C1916 1.350 . S
C1920 C1917 1.463 . S
C1920 N1924 1.427 . S
C1921 H1911 0.929 . S
C1921 C1919 1.433 . S
C1921 N1924 1.384 . S
C1922 H1913 0.929 . S
C1922 C1914 1.378 . S
C1922 C1917 1.350 1_565 S
C1923 H1910 0.929 . S
C1923 C1915 1.433 . S
C1923 N1925 1.384 . S
N1924 C1920 1.427 . S
N1924 C1921 1.384 . S
N1925 C1917 1.427 . S
N1925 C1923 1.384 . S
H1926 C1932 0.930 1_655 S
H1927 C1936 0.930 . S
H1928 C1941 0.929 . S
H1929 C1939 0.929 . S
H1930 C1934 0.929 . S
H1931 C1940 0.929 . S
C1932 H1926 0.930 1_455 S
C1932 C1933 1.367 . S
C1932 C1940 1.378 . S
C1933 C1932 1.367 . S
C1933 C1941 1.433 . S
C1934 H1930 0.929 . S
C1934 C1936 1.378 . S
C1934 C1938 1.350 . S
C1935 C1938 1.463 . S
C1935 C1940 1.350 . S
C1935 N1943 1.427 . S
C1936 H1927 0.930 . S
C1936 C1934 1.378 . S
C1936 C1937 1.367 . S
C1937 C1936 1.367 . S
C1937 C1939 1.433 . S
C1938 C1934 1.350 . S
C1938 C1935 1.463 . S
C1938 N1942 1.427 . S
C1939 H1929 0.929 . S
C1939 C1937 1.433 . S
C1939 N1942 1.384 . S
C1940 H1931 0.929 . S
C1940 C1932 1.378 . S
C1940 C1935 1.350 . S
C1941 H1928 0.929 . S
C1941 C1933 1.433 . S
C1941 N1943 1.384 . S
N1942 C1938 1.427 . S
N1942 C1939 1.384 . S
N1943 C1935 1.427 . S
N1943 C1941 1.384 . S
H1944 C1950 0.932 . S
H1945 C1954 0.930 . S
H1946 C1959 0.929 . S
H1947 C1957 0.929 1_655 S
H1948 C1952 0.929 . S
H1949 C1958 0.929 1_655 S
C1950 H1944 0.932 . S
C1950 C1951 1.367 . S
C1950 C1958 1.378 . S
C1951 C1950 1.367 . S
C1951 C1959 1.433 . S
C1952 H1948 0.929 . S
C1952 C1954 1.378 . S
C1952 C1956 1.350 . S
C1953 C1956 1.463 1_554 S
C1953 C1958 1.350 . S
C1953 N1961 1.427 . S
C1954 H1945 0.930 . S
C1954 C1952 1.378 . S
C1954 C1955 1.367 . S
C1955 C1954 1.367 . S
C1955 C1957 1.433 . S
C1956 C1952 1.350 . S
C1956 C1953 1.463 1_556 S
C1956 N1960 1.427 . S
C1957 H1947 0.929 1_455 S
C1957 C1955 1.433 . S
C1957 N1960 1.384 . S
C1958 H1949 0.929 1_455 S
C1958 C1950 1.378 . S
C1958 C1953 1.350 . S
C1959 H1946 0.929 . S
C1959 C1951 1.433 . S
C1959 N1961 1.384 . S
N1960 C1956 1.427 . S
N1960 C1957 1.384 . S
N1961 C1953 1.427 . S
N1961 C1959 1.384 . S
H1962 C1968 0.930 . S
H1963 C1972 0.930 . S
H1964 C1977 0.929 . S
H1965 C1975 0.929 . S
H1966 C1970 0.929 . S
H1967 C1976 0.929 . S
C1968 H1962 0.930 . S
C1968 C1969 1.367 . S
C1968 C1976 1.378 . S
C1969 C1968 1.367 . S
C1969 C1977 1.433 . S
C1970 H1966 0.929 . S
C1970 C1972 1.378 . S
C1970 C1974 1.350 . S
C1971 C1974 1.463 1_556 S
C1971 C1976 1.350 . S
C1971 N1979 1.427 . S
C1972 H1963 0.930 . S
C1972 C1970 1.378 . S
C1972 C1973 1.367 . S
C1973 C1972 1.367 . S
C1973 C1975 1.433 . S
C1974 C1970 1.350 . S
C1974 C1971 1.463 1_554 S
C1974 N1978 1.427 . S
C1975 H1965 0.929 . S
C1975 C1973 1.433 . S
C1975 N1978 1.384 . S
C1976 H1967 0.929 . S
C1976 C1968 1.378 . S
C1976 C1971 1.350 . S
C1977 H1964 0.929 . S
C1977 C1969 1.433 . S
C1977 N1979 1.384 . S
N1978 C1974 1.427 . S
N1978 C1975 1.384 . S
N1979 C1971 1.427 . S
N1979 C1977 1.384 . S
H1980 C1986 0.930 . S
H1981 C1990 0.930 . S
H1982 C1995 0.929 . S
H1983 C1993 0.929 . S
H1984 C1988 0.929 . S
H1985 C1994 0.929 . S
C1986 H1980 0.930 . S
C1986 C1987 1.367 . S
C1986 C1994 1.378 . S
C1987 C1986 1.367 . S
C1987 C1995 1.433 . S
C1988 H1984 0.929 . S
C1988 C1990 1.378 . S
C1988 C1992 1.350 . S
C1989 C1992 1.463 1_556 S
C1989 C1994 1.350 . S
C1989 N1997 1.427 . S
C1990 H1981 0.930 . S
C1990 C1988 1.378 . S
C1990 C1991 1.367 . S
C1991 C1990 1.367 . S
C1991 C1993 1.433 . S
C1992 C1988 1.350 . S
C1992 C1989 1.463 1_554 S
C1992 N1996 1.427 . S
C1993 H1983 0.929 . S
C1993 C1991 1.433 . S
C1993 N1996 1.384 . S
C1994 H1985 0.929 . S
C1994 C1986 1.378 . S
C1994 C1989 1.350 . S
C1995 H1982 0.929 . S
C1995 C1987 1.433 . S
C1995 N1997 1.384 . S
N1996 C1992 1.427 . S
N1996 C1993 1.384 . S
N1997 C1989 1.427 . S
N1997 C1995 1.384 . S
H1998 C2004 0.930 . S
H1999 C2008 0.930 . S
H2000 C2013 0.929 . S
H2001 C2011 0.929 . S
H2002 C2006 0.929 . S
H2003 C2012 0.929 . S
C2004 H1998 0.930 . S
C2004 C2005 1.367 . S
C2004 C2012 1.378 . S
C2005 C2004 1.367 . S
C2005 C2013 1.433 . S
C2006 H2002 0.929 . S
C2006 C2008 1.378 . S
C2006 C2010 1.350 . S
C2007 C2010 1.463 1_556 S
C2007 C2012 1.350 . S
C2007 N2015 1.427 . S
C2008 H1999 0.930 . S
C2008 C2006 1.378 . S
C2008 C2009 1.367 . S
C2009 C2008 1.367 . S
C2009 C2011 1.433 . S
C2010 C2006 1.350 . S
C2010 C2007 1.463 1_554 S
C2010 N2014 1.427 . S
C2011 H2001 0.929 . S
C2011 C2009 1.433 . S
C2011 N2014 1.384 . S
C2012 H2003 0.929 . S
C2012 C2004 1.378 . S
C2012 C2007 1.350 . S
C2013 H2000 0.929 . S
C2013 C2005 1.433 . S
C2013 N2015 1.384 . S
N2014 C2010 1.427 . S
N2014 C2011 1.384 . S
N2015 C2007 1.427 . S
N2015 C2013 1.384 . S
H2016 C2022 0.930 . S
H2017 C2026 0.930 . S
H2018 C2031 0.929 . S
H2019 C2029 0.929 . S
H2020 C2024 0.929 . S
H2021 C2030 0.929 . S
C2022 H2016 0.930 . S
C2022 C2023 1.367 . S
C2022 C2030 1.378 . S
C2023 C2022 1.367 . S
C2023 C2031 1.433 . S
C2024 H2020 0.929 . S
C2024 C2026 1.378 . S
C2024 C2028 1.350 . S
C2025 C2028 1.463 1_554 S
C2025 C2030 1.350 . S
C2025 N2033 1.427 . S
C2026 H2017 0.930 . S
C2026 C2024 1.378 . S
C2026 C2027 1.367 . S
C2027 C2026 1.367 . S
C2027 C2029 1.433 . S
C2028 C2024 1.350 . S
C2028 C2025 1.463 1_556 S
C2028 N2032 1.427 . S
C2029 H2019 0.929 . S
C2029 C2027 1.433 . S
C2029 N2032 1.384 . S
C2030 H2021 0.929 . S
C2030 C2022 1.378 . S
C2030 C2025 1.350 . S
C2031 H2018 0.929 . S
C2031 C2023 1.433 . S
C2031 N2033 1.384 . S
N2032 C2028 1.427 . S
N2032 C2029 1.384 . S
N2033 C2025 1.427 . S
N2033 C2031 1.384 . S
H2034 C2040 0.930 . S
H2035 C2044 0.930 1_565 S
H2036 C2049 0.929 1_565 S
H2037 C2047 0.929 . S
H2038 C2042 0.929 1_565 S
H2039 C2048 0.929 . S
C2040 H2034 0.930 . S
C2040 C2041 1.367 . S
C2040 C2048 1.378 . S
C2041 C2040 1.367 . S
C2041 C2049 1.433 . S
C2042 H2038 0.929 1_545 S
C2042 C2044 1.378 . S
C2042 C2046 1.350 . S
C2043 C2046 1.463 1_556 S
C2043 C2048 1.350 . S
C2043 N2051 1.427 . S
C2044 H2035 0.930 1_545 S
C2044 C2042 1.378 . S
C2044 C2045 1.367 . S
C2045 C2044 1.367 . S
C2045 C2047 1.433 . S
C2046 C2042 1.350 . S
C2046 C2043 1.463 1_554 S
C2046 N2050 1.427 . S
C2047 H2037 0.929 . S
C2047 C2045 1.433 . S
C2047 N2050 1.384 . S
C2048 H2039 0.929 . S
C2048 C2040 1.378 . S
C2048 C2043 1.350 . S
C2049 H2036 0.929 1_545 S
C2049 C2041 1.433 . S
C2049 N2051 1.384 . S
N2050 C2046 1.427 . S
N2050 C2047 1.384 . S
N2051 C2043 1.427 . S
N2051 C2049 1.384 . S
H2052 C2058 0.930 . S
H2053 C2062 0.930 . S
H2054 C2067 0.929 . S
H2055 C2065 0.929 . S
H2056 C2060 0.929 . S
H2057 C2066 0.929 . S
C2058 H2052 0.930 . S
C2058 C2059 1.367 . S
C2058 C2066 1.378 . S
C2059 C2058 1.367 . S
C2059 C2067 1.433 . S
C2060 H2056 0.929 . S
C2060 C2062 1.378 . S
C2060 C2064 1.350 . S
C2061 C2064 1.463 . S
C2061 C2066 1.350 . S
C2061 N2069 1.427 . S
C2062 H2053 0.930 . S
C2062 C2060 1.378 . S
C2062 C2063 1.367 . S
C2063 C2062 1.367 . S
C2063 C2065 1.433 . S
C2064 C2060 1.350 . S
C2064 C2061 1.463 . S
C2064 N2068 1.427 . S
C2065 H2055 0.929 . S
C2065 C2063 1.433 . S
C2065 N2068 1.384 . S
C2066 H2057 0.929 . S
C2066 C2058 1.378 . S
C2066 C2061 1.350 . S
C2067 H2054 0.929 . S
C2067 C2059 1.433 . S
C2067 N2069 1.384 . S
N2068 C2064 1.427 . S
N2068 C2065 1.384 . S
N2069 C2061 1.427 . S
N2069 C2067 1.384 . S
H2070 C2076 0.930 . S
H2071 C2080 0.930 . S
H2072 C2085 0.929 . S
H2073 C2083 0.929 . S
H2074 C2078 0.929 . S
H2075 C2084 0.929 . S
C2076 H2070 0.930 . S
C2076 C2077 1.367 . S
C2076 C2084 1.378 . S
C2077 C2076 1.367 . S
C2077 C2085 1.433 . S
C2078 H2074 0.929 . S
C2078 C2080 1.378 . S
C2078 C2082 1.350 . S
C2079 C2082 1.463 . S
C2079 C2084 1.350 . S
C2079 N2087 1.427 . S
C2080 H2071 0.930 . S
C2080 C2078 1.378 . S
C2080 C2081 1.367 . S
C2081 C2080 1.367 . S
C2081 C2083 1.433 . S
C2082 C2078 1.350 . S
C2082 C2079 1.463 . S
C2082 N2086 1.427 . S
C2083 H2073 0.929 . S
C2083 C2081 1.433 . S
C2083 N2086 1.384 . S
C2084 H2075 0.929 . S
C2084 C2076 1.378 . S
C2084 C2079 1.350 . S
C2085 H2072 0.929 . S
C2085 C2077 1.433 . S
C2085 N2087 1.384 . S
N2086 C2082 1.427 . S
N2086 C2083 1.384 . S
N2087 C2079 1.427 . S
N2087 C2085 1.384 . S
H2088 C2094 0.930 . S
H2089 C2098 0.930 . S
H2090 C2103 0.929 . S
H2091 C2101 0.929 . S
H2092 C2096 0.929 . S
H2093 C2102 0.929 . S
C2094 H2088 0.930 . S
C2094 C2095 1.367 1_455 S
C2094 C2102 1.378 . S
C2095 C2094 1.367 1_655 S
C2095 C2103 1.433 . S
C2096 H2092 0.929 . S
C2096 C2098 1.378 . S
C2096 C2100 1.350 . S
C2097 C2100 1.463 . S
C2097 C2102 1.350 1_655 S
C2097 N2105 1.427 . S
C2098 H2089 0.930 . S
C2098 C2096 1.378 . S
C2098 C2099 1.367 . S
C2099 C2098 1.367 . S
C2099 C2101 1.433 1_655 S
C2100 C2096 1.350 . S
C2100 C2097 1.463 . S
C2100 N2104 1.427 1_655 S
C2101 H2091 0.929 . S
C2101 C2099 1.433 1_455 S
C2101 N2104 1.384 . S
C2102 H2093 0.929 . S
C2102 C2094 1.378 . S
C2102 C2097 1.350 1_455 S
C2103 H2090 0.929 . S
C2103 C2095 1.433 . S
C2103 N2105 1.384 . S
N2104 C2100 1.427 1_455 S
N2104 C2101 1.384 . S
N2105 C2097 1.427 . S
N2105 C2103 1.384 . S
H2106 C2112 0.930 . S
H2107 C2116 0.930 . S
H2108 C2121 0.929 . S
H2109 C2119 0.929 . S
H2110 C2114 0.929 . S
H2111 C2120 0.929 . S
C2112 H2106 0.930 . S
C2112 C2113 1.367 . S
C2112 C2120 1.378 . S
C2113 C2112 1.367 . S
C2113 C2121 1.433 . S
C2114 H2110 0.929 . S
C2114 C2116 1.378 . S
C2114 C2118 1.350 . S
C2115 C2118 1.463 . S
C2115 C2120 1.350 . S
C2115 N2123 1.427 . S
C2116 H2107 0.930 . S
C2116 C2114 1.378 . S
C2116 C2117 1.367 . S
C2117 C2116 1.367 . S
C2117 C2119 1.433 . S
C2118 C2114 1.350 . S
C2118 C2115 1.463 . S
C2118 N2122 1.427 . S
C2119 H2109 0.929 . S
C2119 C2117 1.433 . S
C2119 N2122 1.384 . S
C2120 H2111 0.929 . S
C2120 C2112 1.378 . S
C2120 C2115 1.350 . S
C2121 H2108 0.929 . S
C2121 C2113 1.433 . S
C2121 N2123 1.384 . S
N2122 C2118 1.427 . S
N2122 C2119 1.384 . S
N2123 C2115 1.427 . S
N2123 C2121 1.384 . S
H2124 C2130 0.930 . S
H2125 C2134 0.930 . S
H2126 C2139 0.929 . S
H2127 C2137 0.929 . S
H2128 C2132 0.929 . S
H2129 C2138 0.929 . S
C2130 H2124 0.930 . S
C2130 C2131 1.367 1_455 S
C2130 C2138 1.378 . S
C2131 C2130 1.367 1_655 S
C2131 C2139 1.433 . S
C2132 H2128 0.929 . S
C2132 C2134 1.378 . S
C2132 C2136 1.350 . S
C2133 C2136 1.463 . S
C2133 C2138 1.350 1_655 S
C2133 N2141 1.427 . S
C2134 H2125 0.930 . S
C2134 C2132 1.378 . S
C2134 C2135 1.367 . S
C2135 C2134 1.367 . S
C2135 C2137 1.433 1_655 S
C2136 C2132 1.350 . S
C2136 C2133 1.463 . S
C2136 N2140 1.427 1_655 S
C2137 H2127 0.929 . S
C2137 C2135 1.433 1_455 S
C2137 N2140 1.384 . S
C2138 H2129 0.929 . S
C2138 C2130 1.378 . S
C2138 C2133 1.350 1_455 S
C2139 H2126 0.929 . S
C2139 C2131 1.433 . S
C2139 N2141 1.384 . S
N2140 C2136 1.427 1_455 S
N2140 C2137 1.384 . S
N2141 C2133 1.427 . S
N2141 C2139 1.384 . S
H2142 C2148 0.930 . S
H2143 C2152 0.930 . S
H2144 C2157 0.929 . S
H2145 C2155 0.929 . S
H2146 C2150 0.929 . S
H2147 C2156 0.929 . S
C2148 H2142 0.930 . S
C2148 C2149 1.367 . S
C2148 C2156 1.378 . S
C2149 C2148 1.367 . S
C2149 C2157 1.433 . S
C2150 H2146 0.929 . S
C2150 C2152 1.378 . S
C2150 C2154 1.350 . S
C2151 C2154 1.463 . S
C2151 C2156 1.350 . S
C2151 N2159 1.427 . S
C2152 H2143 0.930 . S
C2152 C2150 1.378 . S
C2152 C2153 1.367 . S
C2153 C2152 1.367 . S
C2153 C2155 1.433 . S
C2154 C2150 1.350 . S
C2154 C2151 1.463 . S
C2154 N2158 1.427 . S
C2155 H2145 0.929 . S
C2155 C2153 1.433 . S
C2155 N2158 1.384 . S
C2156 H2147 0.929 . S
C2156 C2148 1.378 . S
C2156 C2151 1.350 . S
C2157 H2144 0.929 . S
C2157 C2149 1.433 . S
C2157 N2159 1.384 . S
N2158 C2154 1.427 . S
N2158 C2155 1.384 . S
N2159 C2151 1.427 . S
N2159 C2157 1.384 . S
H2160 C2166 0.930 . S
H2161 C2170 0.930 . S
H2162 C2175 0.929 . S
H2163 C2173 0.929 . S
H2164 C2168 0.929 . S
H2165 C2174 0.929 . S
C2166 H2160 0.930 . S
C2166 C2167 1.367 . S
C2166 C2174 1.378 . S
C2167 C2166 1.367 . S
C2167 C2175 1.433 1_565 S
C2168 H2164 0.929 . S
C2168 C2170 1.378 . S
C2168 C2172 1.350 1_545 S
C2169 C2172 1.463 . S
C2169 C2174 1.350 . S
C2169 N2177 1.427 1_565 S
C2170 H2161 0.930 . S
C2170 C2168 1.378 . S
C2170 C2171 1.367 1_545 S
C2171 C2170 1.367 1_565 S
C2171 C2173 1.433 . S
C2172 C2168 1.350 1_565 S
C2172 C2169 1.463 . S
C2172 N2176 1.427 . S
C2173 H2163 0.929 . S
C2173 C2171 1.433 . S
C2173 N2176 1.384 . S
C2174 H2165 0.929 . S
C2174 C2166 1.378 . S
C2174 C2169 1.350 . S
C2175 H2162 0.929 . S
C2175 C2167 1.433 1_545 S
C2175 N2177 1.384 . S
N2176 C2172 1.427 . S
N2176 C2173 1.384 . S
N2177 C2169 1.427 1_545 S
N2177 C2175 1.384 . S
H2178 C2184 0.930 . S
H2179 C2188 0.930 . S
H2180 C2193 0.929 . S
H2181 C2191 0.929 . S
H2182 C2186 0.929 . S
H2183 C2192 0.929 . S
C2184 H2178 0.930 . S
C2184 C2185 1.367 . S
C2184 C2192 1.378 . S
C2185 C2184 1.367 . S
C2185 C2193 1.433 . S
C2186 H2182 0.929 . S
C2186 C2188 1.378 . S
C2186 C2190 1.350 . S
C2187 C2190 1.463 . S
C2187 C2192 1.350 . S
C2187 N2195 1.427 . S
C2188 H2179 0.930 . S
C2188 C2186 1.378 . S
C2188 C2189 1.367 . S
C2189 C2188 1.367 . S
C2189 C2191 1.433 . S
C2190 C2186 1.350 . S
C2190 C2187 1.463 . S
C2190 N2194 1.427 . S
C2191 H2181 0.929 . S
C2191 C2189 1.433 . S
C2191 N2194 1.384 . S
C2192 H2183 0.929 . S
C2192 C2184 1.378 . S
C2192 C2187 1.350 . S
C2193 H2180 0.929 . S
C2193 C2185 1.433 . S
C2193 N2195 1.384 . S
N2194 C2190 1.427 . S
N2194 C2191 1.384 . S
N2195 C2187 1.427 . S
N2195 C2193 1.384 . S
H2196 C2202 0.930 . S
H2197 C2206 0.930 . S
H2198 C2211 0.929 . S
H2199 C2209 0.929 . S
H2200 C2204 0.929 . S
H2201 C2210 0.929 . S
C2202 H2196 0.930 . S
C2202 C2203 1.367 . S
C2202 C2210 1.378 . S
C2203 C2202 1.367 . S
C2203 C2211 1.433 . S
C2204 H2200 0.929 . S
C2204 C2206 1.378 . S
C2204 C2208 1.350 . S
C2205 C2208 1.463 . S
C2205 C2210 1.350 . S
C2205 N2213 1.427 . S
C2206 H2197 0.930 . S
C2206 C2204 1.378 . S
C2206 C2207 1.367 . S
C2207 C2206 1.367 . S
C2207 C2209 1.433 . S
C2208 C2204 1.350 . S
C2208 C2205 1.463 . S
C2208 N2212 1.427 . S
C2209 H2199 0.929 . S
C2209 C2207 1.433 . S
C2209 N2212 1.384 . S
C2210 H2201 0.929 . S
C2210 C2202 1.378 . S
C2210 C2205 1.350 . S
C2211 H2198 0.929 . S
C2211 C2203 1.433 . S
C2211 N2213 1.384 . S
N2212 C2208 1.427 . S
N2212 C2209 1.384 . S
N2213 C2205 1.427 . S
N2213 C2211 1.384 . S
H2214 C2220 0.930 . S
H2215 C2224 0.930 . S
H2216 C2229 0.929 . S
H2217 C2227 0.929 . S
H2218 C2222 0.929 . S
H2219 C2228 0.929 . S
C2220 H2214 0.930 . S
C2220 C2221 1.367 . S
C2220 C2228 1.378 . S
C2221 C2220 1.367 . S
C2221 C2229 1.433 . S
C2222 H2218 0.929 . S
C2222 C2224 1.378 . S
C2222 C2226 1.350 . S
C2223 C2226 1.463 . S
C2223 C2228 1.350 . S
C2223 N2231 1.427 . S
C2224 H2215 0.930 . S
C2224 C2222 1.378 . S
C2224 C2225 1.367 . S
C2225 C2224 1.367 . S
C2225 C2227 1.433 . S
C2226 C2222 1.350 . S
C2226 C2223 1.463 . S
C2226 N2230 1.427 . S
C2227 H2217 0.929 . S
C2227 C2225 1.433 . S
C2227 N2230 1.384 . S
C2228 H2219 0.929 . S
C2228 C2220 1.378 . S
C2228 C2223 1.350 . S
C2229 H2216 0.929 . S
C2229 C2221 1.433 . S
C2229 N2231 1.384 . S
N2230 C2226 1.427 . S
N2230 C2227 1.384 . S
N2231 C2223 1.427 . S
N2231 C2229 1.384 . S
H2232 C2238 0.930 . S
H2233 C2242 0.930 . S
H2234 C2247 0.929 . S
H2235 C2245 0.929 . S
H2236 C2240 0.929 . S
H2237 C2246 0.929 . S
C2238 H2232 0.930 . S
C2238 C2239 1.367 1_545 S
C2238 C2246 1.378 . S
C2239 C2238 1.367 1_565 S
C2239 C2247 1.433 . S
C2240 H2236 0.929 . S
C2240 C2242 1.378 . S
C2240 C2244 1.350 . S
C2241 C2244 1.463 . S
C2241 C2246 1.350 1_565 S
C2241 N2249 1.427 . S
C2242 H2233 0.930 . S
C2242 C2240 1.378 . S
C2242 C2243 1.367 . S
C2243 C2242 1.367 . S
C2243 C2245 1.433 1_565 S
C2244 C2240 1.350 . S
C2244 C2241 1.463 . S
C2244 N2248 1.427 1_565 S
C2245 H2235 0.929 . S
C2245 C2243 1.433 1_545 S
C2245 N2248 1.384 . S
C2246 H2237 0.929 . S
C2246 C2238 1.378 . S
C2246 C2241 1.350 1_545 S
C2247 H2234 0.929 . S
C2247 C2239 1.433 . S
C2247 N2249 1.384 . S
N2248 C2244 1.427 1_545 S
N2248 C2245 1.384 . S
N2249 C2241 1.427 . S
N2249 C2247 1.384 . S
H2250 C2256 0.930 . S
H2251 C2260 0.930 . S
H2252 C2265 0.929 . S
H2253 C2263 0.929 . S
H2254 C2258 0.929 . S
H2255 C2264 0.929 . S
C2256 H2250 0.930 . S
C2256 C2257 1.367 . S
C2256 C2264 1.378 . S
C2257 C2256 1.367 . S
C2257 C2265 1.433 . S
C2258 H2254 0.929 . S
C2258 C2260 1.378 . S
C2258 C2262 1.350 . S
C2259 C2262 1.463 . S
C2259 C2264 1.350 . S
C2259 N2267 1.427 . S
C2260 H2251 0.930 . S
C2260 C2258 1.378 . S
C2260 C2261 1.367 . S
C2261 C2260 1.367 . S
C2261 C2263 1.433 . S
C2262 C2258 1.350 . S
C2262 C2259 1.463 . S
C2262 N2266 1.427 . S
C2263 H2253 0.929 . S
C2263 C2261 1.433 . S
C2263 N2266 1.384 . S
C2264 H2255 0.929 . S
C2264 C2256 1.378 . S
C2264 C2259 1.350 . S
C2265 H2252 0.929 . S
C2265 C2257 1.433 . S
C2265 N2267 1.384 . S
N2266 C2262 1.427 . S
N2266 C2263 1.384 . S
N2267 C2259 1.427 . S
N2267 C2265 1.384 . S
H2268 C2274 0.930 . S
H2269 C2278 0.930 . S
H2270 C2283 0.929 . S
H2271 C2281 0.929 . S
H2272 C2276 0.929 . S
H2273 C2282 0.929 . S
C2274 H2268 0.930 . S
C2274 C2275 1.367 . S
C2274 C2282 1.378 . S
C2275 C2274 1.367 . S
C2275 C2283 1.433 . S
C2276 H2272 0.929 . S
C2276 C2278 1.378 . S
C2276 C2280 1.350 . S
C2277 C2280 1.463 . S
C2277 C2282 1.350 . S
C2277 N2285 1.427 . S
C2278 H2269 0.930 . S
C2278 C2276 1.378 . S
C2278 C2279 1.367 . S
C2279 C2278 1.367 . S
C2279 C2281 1.433 . S
C2280 C2276 1.350 . S
C2280 C2277 1.463 . S
C2280 N2284 1.427 . S
C2281 H2271 0.929 . S
C2281 C2279 1.433 . S
C2281 N2284 1.384 . S
C2282 H2273 0.929 . S
C2282 C2274 1.378 . S
C2282 C2277 1.350 . S
C2283 H2270 0.929 . S
C2283 C2275 1.433 . S
C2283 N2285 1.384 . S
N2284 C2280 1.427 . S
N2284 C2281 1.384 . S
N2285 C2277 1.427 . S
N2285 C2283 1.384 . S
H2286 C2292 0.930 . S
H2287 C2296 0.930 . S
H2288 C2301 0.929 . S
H2289 C2299 0.929 . S
H2290 C2294 0.929 . S
H2291 C2300 0.929 . S
C2292 H2286 0.930 . S
C2292 C2293 1.367 . S
C2292 C2300 1.378 . S
C2293 C2292 1.367 . S
C2293 C2301 1.433 . S
C2294 H2290 0.929 . S
C2294 C2296 1.378 . S
C2294 C2298 1.350 . S
C2295 C2298 1.463 . S
C2295 C2300 1.350 . S
C2295 N2303 1.427 . S
C2296 H2287 0.930 . S
C2296 C2294 1.378 . S
C2296 C2297 1.367 . S
C2297 C2296 1.367 . S
C2297 C2299 1.433 . S
C2298 C2294 1.350 . S
C2298 C2295 1.463 . S
C2298 N2302 1.427 . S
C2299 H2289 0.929 . S
C2299 C2297 1.433 . S
C2299 N2302 1.384 . S
C2300 H2291 0.929 . S
C2300 C2292 1.378 . S
C2300 C2295 1.350 . S
C2301 H2288 0.929 . S
C2301 C2293 1.433 . S
C2301 N2303 1.384 . S
N2302 C2298 1.427 . S
N2302 C2299 1.384 . S
N2303 C2295 1.427 . S
N2303 C2301 1.384 . S
H2304 C2310 0.930 . S
H2305 C2314 0.930 . S
H2306 C2319 0.929 . S
H2307 C2317 0.929 . S
H2308 C2312 0.929 . S
H2309 C2318 0.929 . S
C2310 H2304 0.930 . S
C2310 C2311 1.367 . S
C2310 C2318 1.378 . S
C2311 C2310 1.367 . S
C2311 C2319 1.433 . S
C2312 H2308 0.929 . S
C2312 C2314 1.378 . S
C2312 C2316 1.350 . S
C2313 C2316 1.463 . S
C2313 C2318 1.350 . S
C2313 N2321 1.427 . S
C2314 H2305 0.930 . S
C2314 C2312 1.378 . S
C2314 C2315 1.367 . S
C2315 C2314 1.367 . S
C2315 C2317 1.433 . S
C2316 C2312 1.350 . S
C2316 C2313 1.463 . S
C2316 N2320 1.427 . S
C2317 H2307 0.929 . S
C2317 C2315 1.433 . S
C2317 N2320 1.384 . S
C2318 H2309 0.929 . S
C2318 C2310 1.378 . S
C2318 C2313 1.350 . S
C2319 H2306 0.929 . S
C2319 C2311 1.433 . S
C2319 N2321 1.384 . S
N2320 C2316 1.427 . S
N2320 C2317 1.384 . S
N2321 C2313 1.427 . S
N2321 C2319 1.384 . S
H2322 C2328 0.930 . S
H2323 C2332 0.930 . S
H2324 C2337 0.929 . S
H2325 C2335 0.929 . S
H2326 C2330 0.929 . S
H2327 C2336 0.929 . S
C2328 H2322 0.930 . S
C2328 C2329 1.367 . S
C2328 C2336 1.378 . S
C2329 C2328 1.367 . S
C2329 C2337 1.433 . S
C2330 H2326 0.929 . S
C2330 C2332 1.378 . S
C2330 C2334 1.350 . S
C2331 C2334 1.463 . S
C2331 C2336 1.350 . S
C2331 N2339 1.427 . S
C2332 H2323 0.930 . S
C2332 C2330 1.378 . S
C2332 C2333 1.367 . S
C2333 C2332 1.367 . S
C2333 C2335 1.433 . S
C2334 C2330 1.350 . S
C2334 C2331 1.463 . S
C2334 N2338 1.427 . S
C2335 H2325 0.929 . S
C2335 C2333 1.433 . S
C2335 N2338 1.384 . S
C2336 H2327 0.929 . S
C2336 C2328 1.378 . S
C2336 C2331 1.350 . S
C2337 H2324 0.929 . S
C2337 C2329 1.433 . S
C2337 N2339 1.384 . S
N2338 C2334 1.427 . S
N2338 C2335 1.384 . S
N2339 C2331 1.427 . S
N2339 C2337 1.384 . S
H2340 C2346 0.930 . S
H2341 C2350 0.930 . S
H2342 C2355 0.929 . S
H2343 C2353 0.929 . S
H2344 C2348 0.929 . S
H2345 C2354 0.929 . S
C2346 H2340 0.930 . S
C2346 C2347 1.367 . S
C2346 C2354 1.378 . S
C2347 C2346 1.367 . S
C2347 C2355 1.433 . S
C2348 H2344 0.929 . S
C2348 C2350 1.378 . S
C2348 C2352 1.350 . S
C2349 C2352 1.463 . S
C2349 C2354 1.350 . S
C2349 N2357 1.427 . S
C2350 H2341 0.930 . S
C2350 C2348 1.378 . S
C2350 C2351 1.367 . S
C2351 C2350 1.367 . S
C2351 C2353 1.433 . S
C2352 C2348 1.350 . S
C2352 C2349 1.463 . S
C2352 N2356 1.427 . S
C2353 H2343 0.929 . S
C2353 C2351 1.433 . S
C2353 N2356 1.384 . S
C2354 H2345 0.929 . S
C2354 C2346 1.378 . S
C2354 C2349 1.350 . S
C2355 H2342 0.929 . S
C2355 C2347 1.433 . S
C2355 N2357 1.384 . S
N2356 C2352 1.427 . S
N2356 C2353 1.384 . S
N2357 C2349 1.427 . S
N2357 C2355 1.384 . S
H2358 C2364 0.930 . S
H2359 C2368 0.930 . S
H2360 C2373 0.929 . S
H2361 C2371 0.929 . S
H2362 C2366 0.929 . S
H2363 C2372 0.929 . S
C2364 H2358 0.930 . S
C2364 C2365 1.367 . S
C2364 C2372 1.378 . S
C2365 C2364 1.367 . S
C2365 C2373 1.433 . S
C2366 H2362 0.929 . S
C2366 C2368 1.378 . S
C2366 C2370 1.350 . S
C2367 C2370 1.463 . S
C2367 C2372 1.350 . S
C2367 N2375 1.427 . S
C2368 H2359 0.930 . S
C2368 C2366 1.378 . S
C2368 C2369 1.367 . S
C2369 C2368 1.367 . S
C2369 C2371 1.433 . S
C2370 C2366 1.350 . S
C2370 C2367 1.463 . S
C2370 N2374 1.427 . S
C2371 H2361 0.929 . S
C2371 C2369 1.433 . S
C2371 N2374 1.384 . S
C2372 H2363 0.929 . S
C2372 C2364 1.378 . S
C2372 C2367 1.350 . S
C2373 H2360 0.929 . S
C2373 C2365 1.433 . S
C2373 N2375 1.384 . S
N2374 C2370 1.427 . S
N2374 C2371 1.384 . S
N2375 C2367 1.427 . S
N2375 C2373 1.384 . S
H2376 C2382 0.930 . S
H2377 C2386 0.930 . S
H2378 C2391 0.929 . S
H2379 C2389 0.929 . S
H2380 C2384 0.929 . S
H2381 C2390 0.929 . S
C2382 H2376 0.930 . S
C2382 C2383 1.367 . S
C2382 C2390 1.378 . S
C2383 C2382 1.367 . S
C2383 C2391 1.433 . S
C2384 H2380 0.929 . S
C2384 C2386 1.378 . S
C2384 C2388 1.350 . S
C2385 C2388 1.463 . S
C2385 C2390 1.350 . S
C2385 N2393 1.427 . S
C2386 H2377 0.930 . S
C2386 C2384 1.378 . S
C2386 C2387 1.367 . S
C2387 C2386 1.367 . S
C2387 C2389 1.433 . S
C2388 C2384 1.350 . S
C2388 C2385 1.463 . S
C2388 N2392 1.427 . S
C2389 H2379 0.929 . S
C2389 C2387 1.433 . S
C2389 N2392 1.384 . S
C2390 H2381 0.929 . S
C2390 C2382 1.378 . S
C2390 C2385 1.350 . S
C2391 H2378 0.929 . S
C2391 C2383 1.433 . S
C2391 N2393 1.384 . S
N2392 C2388 1.427 . S
N2392 C2389 1.384 . S
N2393 C2385 1.427 . S
N2393 C2391 1.384 . S
H2394 C2400 0.930 . S
H2395 C2404 0.930 . S
H2396 C2409 0.929 . S
H2397 C2407 0.929 . S
H2398 C2402 0.929 . S
H2399 C2408 0.929 . S
C2400 H2394 0.930 . S
C2400 C2401 1.367 . S
C2400 C2408 1.378 . S
C2401 C2400 1.367 . S
C2401 C2409 1.433 . S
C2402 H2398 0.929 . S
C2402 C2404 1.378 . S
C2402 C2406 1.350 . S
C2403 C2406 1.463 . S
C2403 C2408 1.350 . S
C2403 N2411 1.427 . S
C2404 H2395 0.930 . S
C2404 C2402 1.378 . S
C2404 C2405 1.367 . S
C2405 C2404 1.367 . S
C2405 C2407 1.433 . S
C2406 C2402 1.350 . S
C2406 C2403 1.463 . S
C2406 N2410 1.427 . S
C2407 H2397 0.929 . S
C2407 C2405 1.433 . S
C2407 N2410 1.384 . S
C2408 H2399 0.929 . S
C2408 C2400 1.378 . S
C2408 C2403 1.350 . S
C2409 H2396 0.929 . S
C2409 C2401 1.433 . S
C2409 N2411 1.384 . S
N2410 C2406 1.427 . S
N2410 C2407 1.384 . S
N2411 C2403 1.427 . S
N2411 C2409 1.384 . S
H2412 C2418 0.930 . S
H2413 C2422 0.930 . S
H2414 C2427 0.929 . S
H2415 C2425 0.929 . S
H2416 C2420 0.929 . S
H2417 C2426 0.929 . S
C2418 H2412 0.930 . S
C2418 C2419 1.367 . S
C2418 C2426 1.378 . S
C2419 C2418 1.367 . S
C2419 C2427 1.433 . S
C2420 H2416 0.929 . S
C2420 C2422 1.378 . S
C2420 C2424 1.350 . S
C2421 C2424 1.463 . S
C2421 C2426 1.350 . S
C2421 N2429 1.427 . S
C2422 H2413 0.930 . S
C2422 C2420 1.378 . S
C2422 C2423 1.367 . S
C2423 C2422 1.367 . S
C2423 C2425 1.433 . S
C2424 C2420 1.350 . S
C2424 C2421 1.463 . S
C2424 N2428 1.427 . S
C2425 H2415 0.929 . S
C2425 C2423 1.433 . S
C2425 N2428 1.384 . S
C2426 H2417 0.929 . S
C2426 C2418 1.378 . S
C2426 C2421 1.350 . S
C2427 H2414 0.929 . S
C2427 C2419 1.433 . S
C2427 N2429 1.384 . S
N2428 C2424 1.427 . S
N2428 C2425 1.384 . S
N2429 C2421 1.427 . S
N2429 C2427 1.384 . S
H2430 C2436 0.930 . S
H2431 C2440 0.930 . S
H2432 C2445 0.929 . S
H2433 C2443 0.929 . S
H2434 C2438 0.929 . S
H2435 C2444 0.929 . S
C2436 H2430 0.930 . S
C2436 C2437 1.367 . S
C2436 C2444 1.378 . S
C2437 C2436 1.367 . S
C2437 C2445 1.433 . S
C2438 H2434 0.929 . S
C2438 C2440 1.378 . S
C2438 C2442 1.350 . S
C2439 C2442 1.463 . S
C2439 C2444 1.350 . S
C2439 N2447 1.427 . S
C2440 H2431 0.930 . S
C2440 C2438 1.378 . S
C2440 C2441 1.367 . S
C2441 C2440 1.367 . S
C2441 C2443 1.433 . S
C2442 C2438 1.350 . S
C2442 C2439 1.463 . S
C2442 N2446 1.427 . S
C2443 H2433 0.929 . S
C2443 C2441 1.433 . S
C2443 N2446 1.384 . S
C2444 H2435 0.929 . S
C2444 C2436 1.378 . S
C2444 C2439 1.350 . S
C2445 H2432 0.929 . S
C2445 C2437 1.433 . S
C2445 N2447 1.384 . S
N2446 C2442 1.427 . S
N2446 C2443 1.384 . S
N2447 C2439 1.427 . S
N2447 C2445 1.384 . S
H2448 C2454 0.930 . S
H2449 C2458 0.930 . S
H2450 C2463 0.929 . S
H2451 C2461 0.929 . S
H2452 C2456 0.929 . S
H2453 C2462 0.929 . S
C2454 H2448 0.930 . S
C2454 C2455 1.367 . S
C2454 C2462 1.378 . S
C2455 C2454 1.367 . S
C2455 C2463 1.433 . S
C2456 H2452 0.929 . S
C2456 C2458 1.378 . S
C2456 C2460 1.350 . S
C2457 C2460 1.463 . S
C2457 C2462 1.350 . S
C2457 N2465 1.427 . S
C2458 H2449 0.930 . S
C2458 C2456 1.378 . S
C2458 C2459 1.367 . S
C2459 C2458 1.367 . S
C2459 C2461 1.433 . S
C2460 C2456 1.350 . S
C2460 C2457 1.463 . S
C2460 N2464 1.427 . S
C2461 H2451 0.929 . S
C2461 C2459 1.433 . S
C2461 N2464 1.384 . S
C2462 H2453 0.929 . S
C2462 C2454 1.378 . S
C2462 C2457 1.350 . S
C2463 H2450 0.929 . S
C2463 C2455 1.433 . S
C2463 N2465 1.384 . S
N2464 C2460 1.427 . S
N2464 C2461 1.384 . S
N2465 C2457 1.427 . S
N2465 C2463 1.384 . S
H2466 C2472 0.930 . S
H2467 C2476 0.930 . S
H2468 C2481 0.929 . S
H2469 C2479 0.929 . S
H2470 C2474 0.929 . S
H2471 C2480 0.929 . S
C2472 H2466 0.930 . S
C2472 C2473 1.367 . S
C2472 C2480 1.378 . S
C2473 C2472 1.367 . S
C2473 C2481 1.433 . S
C2474 H2470 0.929 . S
C2474 C2476 1.378 . S
C2474 C2478 1.350 . S
C2475 C2478 1.463 . S
C2475 C2480 1.350 . S
C2475 N2483 1.427 . S
C2476 H2467 0.930 . S
C2476 C2474 1.378 . S
C2476 C2477 1.367 . S
C2477 C2476 1.367 . S
C2477 C2479 1.433 . S
C2478 C2474 1.350 . S
C2478 C2475 1.463 . S
C2478 N2482 1.427 . S
C2479 H2469 0.929 . S
C2479 C2477 1.433 . S
C2479 N2482 1.384 . S
C2480 H2471 0.929 . S
C2480 C2472 1.378 . S
C2480 C2475 1.350 . S
C2481 H2468 0.929 . S
C2481 C2473 1.433 . S
C2481 N2483 1.384 . S
N2482 C2478 1.427 . S
N2482 C2479 1.384 . S
N2483 C2475 1.427 . S
N2483 C2481 1.384 . S
H2484 C2490 0.930 . S
H2485 C2494 0.930 . S
H2486 C2499 0.929 . S
H2487 C2497 0.929 . S
H2488 C2492 0.929 . S
H2489 C2498 0.929 . S
C2490 H2484 0.930 . S
C2490 C2491 1.367 . S
C2490 C2498 1.378 . S
C2491 C2490 1.367 . S
C2491 C2499 1.433 . S
C2492 H2488 0.929 . S
C2492 C2494 1.378 . S
C2492 C2496 1.350 . S
C2493 C2496 1.463 . S
C2493 C2498 1.350 . S
C2493 N2501 1.427 . S
C2494 H2485 0.930 . S
C2494 C2492 1.378 . S
C2494 C2495 1.367 . S
C2495 C2494 1.367 . S
C2495 C2497 1.433 . S
C2496 C2492 1.350 . S
C2496 C2493 1.463 . S
C2496 N2500 1.427 . S
C2497 H2487 0.929 . S
C2497 C2495 1.433 . S
C2497 N2500 1.384 . S
C2498 H2489 0.929 . S
C2498 C2490 1.378 . S
C2498 C2493 1.350 . S
C2499 H2486 0.929 . S
C2499 C2491 1.433 . S
C2499 N2501 1.384 . S
N2500 C2496 1.427 . S
N2500 C2497 1.384 . S
N2501 C2493 1.427 . S
N2501 C2499 1.384 . S
H2502 C2508 0.930 . S
H2503 C2512 0.930 . S
H2504 C2517 0.929 . S
H2505 C2515 0.929 . S
H2506 C2510 0.929 . S
H2507 C2516 0.929 . S
C2508 H2502 0.930 . S
C2508 C2509 1.367 . S
C2508 C2516 1.378 . S
C2509 C2508 1.367 . S
C2509 C2517 1.433 . S
C2510 H2506 0.929 . S
C2510 C2512 1.378 . S
C2510 C2514 1.350 . S
C2511 C2514 1.463 . S
C2511 C2516 1.350 . S
C2511 N2519 1.427 . S
C2512 H2503 0.930 . S
C2512 C2510 1.378 . S
C2512 C2513 1.367 . S
C2513 C2512 1.367 . S
C2513 C2515 1.433 . S
C2514 C2510 1.350 . S
C2514 C2511 1.463 . S
C2514 N2518 1.427 . S
C2515 H2505 0.929 . S
C2515 C2513 1.433 . S
C2515 N2518 1.384 . S
C2516 H2507 0.929 . S
C2516 C2508 1.378 . S
C2516 C2511 1.350 . S
C2517 H2504 0.929 . S
C2517 C2509 1.433 . S
C2517 N2519 1.384 . S
N2518 C2514 1.427 . S
N2518 C2515 1.384 . S
N2519 C2511 1.427 . S
N2519 C2517 1.384 . S
H2520 C2526 0.930 . S
H2521 C2530 0.930 . S
H2522 C2535 0.929 . S
H2523 C2533 0.929 . S
H2524 C2528 0.929 . S
H2525 C2534 0.929 . S
C2526 H2520 0.930 . S
C2526 C2527 1.367 . S
C2526 C2534 1.378 . S
C2527 C2526 1.367 . S
C2527 C2535 1.433 . S
C2528 H2524 0.929 . S
C2528 C2530 1.378 . S
C2528 C2532 1.350 . S
C2529 C2532 1.463 . S
C2529 C2534 1.350 . S
C2529 N2537 1.427 . S
C2530 H2521 0.930 . S
C2530 C2528 1.378 . S
C2530 C2531 1.367 . S
C2531 C2530 1.367 . S
C2531 C2533 1.433 . S
C2532 C2528 1.350 . S
C2532 C2529 1.463 . S
C2532 N2536 1.427 . S
C2533 H2523 0.929 . S
C2533 C2531 1.433 . S
C2533 N2536 1.384 . S
C2534 H2525 0.929 . S
C2534 C2526 1.378 . S
C2534 C2529 1.350 . S
C2535 H2522 0.929 . S
C2535 C2527 1.433 . S
C2535 N2537 1.384 . S
N2536 C2532 1.427 . S
N2536 C2533 1.384 . S
N2537 C2529 1.427 . S
N2537 C2535 1.384 . S
H2538 C2544 0.930 . S
H2539 C2548 0.930 . S
H2540 C2553 0.929 . S
H2541 C2551 0.929 . S
H2542 C2546 0.929 . S
H2543 C2552 0.929 . S
C2544 H2538 0.930 . S
C2544 C2545 1.367 . S
C2544 C2552 1.378 . S
C2545 C2544 1.367 . S
C2545 C2553 1.433 . S
C2546 H2542 0.929 . S
C2546 C2548 1.378 . S
C2546 C2550 1.350 . S
C2547 C2550 1.463 . S
C2547 C2552 1.350 . S
C2547 N2555 1.427 . S
C2548 H2539 0.930 . S
C2548 C2546 1.378 . S
C2548 C2549 1.367 . S
C2549 C2548 1.367 . S
C2549 C2551 1.433 . S
C2550 C2546 1.350 . S
C2550 C2547 1.463 . S
C2550 N2554 1.427 . S
C2551 H2541 0.929 . S
C2551 C2549 1.433 . S
C2551 N2554 1.384 . S
C2552 H2543 0.929 . S
C2552 C2544 1.378 . S
C2552 C2547 1.350 . S
C2553 H2540 0.929 . S
C2553 C2545 1.433 . S
C2553 N2555 1.384 . S
N2554 C2550 1.427 . S
N2554 C2551 1.384 . S
N2555 C2547 1.427 . S
N2555 C2553 1.384 . S
H2556 C2562 0.930 . S
H2557 C2566 0.930 1_545 S
H2558 C2571 0.929 1_545 S
H2559 C2569 0.929 . S
H2560 C2564 0.929 1_545 S
H2561 C2570 0.929 . S
C2562 H2556 0.930 . S
C2562 C2563 1.367 . S
C2562 C2570 1.378 . S
C2563 C2562 1.367 . S
C2563 C2571 1.433 . S
C2564 H2560 0.929 1_565 S
C2564 C2566 1.378 . S
C2564 C2568 1.350 . S
C2565 C2568 1.463 . S
C2565 C2570 1.350 . S
C2565 N2573 1.427 . S
C2566 H2557 0.930 1_565 S
C2566 C2564 1.378 . S
C2566 C2567 1.367 . S
C2567 C2566 1.367 . S
C2567 C2569 1.433 . S
C2568 C2564 1.350 . S
C2568 C2565 1.463 . S
C2568 N2572 1.427 . S
C2569 H2559 0.929 . S
C2569 C2567 1.433 . S
C2569 N2572 1.384 . S
C2570 H2561 0.929 . S
C2570 C2562 1.378 . S
C2570 C2565 1.350 . S
C2571 H2558 0.929 1_565 S
C2571 C2563 1.433 . S
C2571 N2573 1.384 . S
N2572 C2568 1.427 . S
N2572 C2569 1.384 . S
N2573 C2565 1.427 . S
N2573 C2571 1.384 . S
H2574 C2580 0.930 . S
H2575 C2584 0.930 . S
H2576 C2589 0.929 . S
H2577 C2587 0.929 . S
H2578 C2582 0.929 . S
H2579 C2588 0.929 . S
C2580 H2574 0.930 . S
C2580 C2581 1.367 . S
C2580 C2588 1.378 . S
C2581 C2580 1.367 . S
C2581 C2589 1.433 . S
C2582 H2578 0.929 . S
C2582 C2584 1.378 . S
C2582 C2586 1.350 . S
C2583 C2586 1.463 . S
C2583 C2588 1.350 . S
C2583 N2591 1.427 . S
C2584 H2575 0.930 . S
C2584 C2582 1.378 . S
C2584 C2585 1.367 . S
C2585 C2584 1.367 . S
C2585 C2587 1.433 . S
C2586 C2582 1.350 . S
C2586 C2583 1.463 . S
C2586 N2590 1.427 . S
C2587 H2577 0.929 . S
C2587 C2585 1.433 . S
C2587 N2590 1.384 . S
C2588 H2579 0.929 . S
C2588 C2580 1.378 . S
C2588 C2583 1.350 . S
C2589 H2576 0.929 . S
C2589 C2581 1.433 . S
C2589 N2591 1.384 . S
N2590 C2586 1.427 . S
N2590 C2587 1.384 . S
N2591 C2583 1.427 . S
N2591 C2589 1.384 . S
C1303 C14 1.395 . S
C1307 C410 1.377 . S
C1321 C338 1.378 . S
C1325 C50 1.394 . S
C1339 C374 1.378 . S
C1343 C86 1.393 . S
C1357 C122 1.385 . S
C1361 C266 1.387 . S
C1375 C158 1.389 . S
C1379 C302 1.382 . S
C1393 C194 1.392 . S
C1397 C230 1.380 . S
C1411 C446 1.386 . S
C1415 C842 1.386 . S
C1429 C770 1.378 . S
C1433 C482 1.393 . S
C1447 C518 1.381 . S
C1451 C806 1.390 . S
C1465 C554 1.383 . S
C1469 C698 1.388 . S
C1483 C590 1.383 . S
C1487 C734 1.389 . S
C1501 C626 1.379 . S
C1505 C662 1.393 . S
C1519 C878 1.390 . S
C1523 C1274 1.382 . S
C1537 C914 1.389 . S
C1541 C1202 1.383 . S
C1555 C1238 1.377 . S
C1559 C950 1.395 . S
C1573 C986 1.379 . S
C1577 C1130 1.392 . S
C1591 C1166 1.395 . S
C1595 C1022 1.377 . S
C1609 C1094 1.395 . S
C1613 C1058 1.377 . S
C1627 C3 1.214 . S
C1631 C543 1.216 . S
C1645 C39 1.216 . S
C1649 C579 1.214 . S
C1663 C75 1.217 . S
C1667 C615 1.222 . S
C1681 C111 1.214 . S
C1685 C867 1.216 . S
C1699 C903 1.222 . S
C1703 C147 1.223 . S
C1717 C939 1.215 . S
C1721 C183 1.214 . S
C1735 C219 1.216 . S
C1739 C1191 1.221 . S
C1753 C1227 1.213 . S
C1757 C255 1.216 . S
C1771 C291 1.219 . S
C1775 C1263 1.227 . S
C1789 C327 1.221 . S
C1793 C651 1.217 . S
C1807 C363 1.214 . S
C1811 C687 1.216 . S
C1825 C399 1.220 . S
C1829 C723 1.216 . S
C1843 C975 1.215 . S
C1847 C435 1.219 . S
C1861 C471 1.220 . S
C1865 C1011 1.215 1_545 S
C1879 C507 1.215 1_455 S
C1883 C1047 1.220 . S
C1897 C1083 1.214 . S
C1901 C759 1.214 . S
C1915 C1119 1.214 1_545 S
C1919 C795 1.216 . S
C1933 C831 1.215 1_455 S
C1937 C1155 1.219 . S
C1951 C4 1.269 . S
C1955 C148 1.279 . S
C1969 C184 1.273 . S
C1973 C40 1.275 . S
C1987 C112 1.269 . S
C1991 C76 1.283 . S
C2005 C220 1.283 . S
C2009 C364 1.268 . S
C2023 C400 1.270 . S
C2027 C256 1.283 . S
C2041 C292 1.281 . S
C2045 C328 1.273 . S
C2059 C580 1.269 . S
C2063 C436 1.283 . S
C2077 C472 1.268 . S
C2081 C616 1.281 . S
C2095 C508 1.278 . S
C2099 C544 1.270 . S
C2113 C796 1.280 . S
C2117 C652 1.269 . S
C2131 C832 1.282 . S
C2135 C688 1.268 . S
C2149 C760 1.282 . S
C2153 C724 1.271 . S
C2167 C868 1.270 . S
C2171 C1012 1.278 . S
C2185 C904 1.269 . S
C2189 C1048 1.283 . S
C2203 C940 1.268 . S
C2207 C976 1.281 . S
C2221 C1228 1.278 . S
C2225 C1084 1.270 . S
C2239 C1264 1.283 . S
C2243 C1120 1.269 . S
C2257 C1192 1.281 . S
C2261 C1156 1.273 . S
C2275 C326 1.572 . S
C2279 C2 1.573 . S
C2293 C362 1.575 . S
C2297 C38 1.570 . S
C2311 C74 1.571 . S
C2315 C398 1.574 . S
C2329 C110 1.574 . S
C2333 C218 1.571 . S
C2347 C254 1.575 . S
C2351 C146 1.570 . S
C2365 C182 1.575 . S
C2369 C290 1.570 . S
C2383 C758 1.575 . S
C2387 C434 1.570 . S
C2401 C794 1.576 . S
C2405 C470 1.570 . S
C2419 C506 1.571 . S
C2423 C830 1.574 . S
C2437 C650 1.570 . S
C2441 C542 1.575 . S
C2455 C686 1.575 . S
C2459 C578 1.571 . S
C2473 C722 1.571 . S
C2477 C614 1.575 . S
C2491 C866 1.573 . S
C2495 C1190 1.572 . S
C2509 C1226 1.570 . S
C2513 C902 1.576 . S
C2527 C938 1.571 . S
C2531 C1262 1.574 . S
C2545 C974 1.572 . S
C2549 C1082 1.573 . S
C2563 C1010 1.575 . S
C2567 C1118 1.570 . S
C2581 C1154 1.571 . S
C2585 C1046 1.574 . S
