# Generated by pormake.
# Topology hbo, (4)-cn, num edge types: 1
# Building blocks:
#     Node 0, Type 0, BuildingBlock: ICAMEG_clean_sbu_1, # of connection points: 4
#     Node 1, Type 0, BuildingBlock: ICAMEG_clean_sbu_1, # of connection points: 4
#     Node 2, Type 0, BuildingBlock: ICAMEG_clean_sbu_1, # of connection points: 4
#     Node 3, Type 0, BuildingBlock: ICAMEG_clean_sbu_1, # of connection points: 4
#     Node 4, Type 0, BuildingBlock: ICAMEG_clean_sbu_1, # of connection points: 4
#     Node 5, Type 0, BuildingBlock: ICAMEG_clean_sbu_1, # of connection points: 4
#     Node 6, Type 0, BuildingBlock: ICAMEG_clean_sbu_1, # of connection points: 4
#     Node 7, Type 0, BuildingBlock: ICAMEG_clean_sbu_1, # of connection points: 4
#     Node 8, Type 0, BuildingBlock: ICAMEG_clean_sbu_1, # of connection points: 4
#     Node 9, Type 0, BuildingBlock: ICAMEG_clean_sbu_1, # of connection points: 4
#     Node 10, Type 0, BuildingBlock: ICAMEG_clean_sbu_1, # of connection points: 4
#     Node 11, Type 0, BuildingBlock: ICAMEG_clean_sbu_1, # of connection points: 4
#     Node 12, Type 0, BuildingBlock: ICAMEG_clean_sbu_1, # of connection points: 4
#     Node 13, Type 0, BuildingBlock: ICAMEG_clean_sbu_1, # of connection points: 4
#     Node 14, Type 0, BuildingBlock: ICAMEG_clean_sbu_1, # of connection points: 4
#     Node 15, Type 0, BuildingBlock: ICAMEG_clean_sbu_1, # of connection points: 4
#     Node 16, Type 0, BuildingBlock: ICAMEG_clean_sbu_1, # of connection points: 4
#     Node 17, Type 0, BuildingBlock: ICAMEG_clean_sbu_1, # of connection points: 4
#     Node 18, Type 0, BuildingBlock: ICAMEG_clean_sbu_1, # of connection points: 4
#     Node 19, Type 0, BuildingBlock: ICAMEG_clean_sbu_1, # of connection points: 4
#     Node 20, Type 0, BuildingBlock: ICAMEG_clean_sbu_1, # of connection points: 4
#     Node 21, Type 0, BuildingBlock: ICAMEG_clean_sbu_1, # of connection points: 4
#     Node 22, Type 0, BuildingBlock: ICAMEG_clean_sbu_1, # of connection points: 4
#     Node 23, Type 0, BuildingBlock: ICAMEG_clean_sbu_1, # of connection points: 4
#     Edge 24, Type (0, 0), BuildingBlock: KIFKEQ_clean_linker_1, # of connection points: 2
#     Edge 25, Type (0, 0), BuildingBlock: KIFKEQ_clean_linker_1, # of connection points: 2
#     Edge 26, Type (0, 0), BuildingBlock: KIFKEQ_clean_linker_1, # of connection points: 2
#     Edge 27, Type (0, 0), BuildingBlock: KIFKEQ_clean_linker_1, # of connection points: 2
#     Edge 28, Type (0, 0), BuildingBlock: KIFKEQ_clean_linker_1, # of connection points: 2
#     Edge 29, Type (0, 0), BuildingBlock: KIFKEQ_clean_linker_1, # of connection points: 2
#     Edge 30, Type (0, 0), BuildingBlock: KIFKEQ_clean_linker_1, # of connection points: 2
#     Edge 31, Type (0, 0), BuildingBlock: KIFKEQ_clean_linker_1, # of connection points: 2
#     Edge 32, Type (0, 0), BuildingBlock: KIFKEQ_clean_linker_1, # of connection points: 2
#     Edge 33, Type (0, 0), BuildingBlock: KIFKEQ_clean_linker_1, # of connection points: 2
#     Edge 34, Type (0, 0), BuildingBlock: KIFKEQ_clean_linker_1, # of connection points: 2
#     Edge 35, Type (0, 0), BuildingBlock: KIFKEQ_clean_linker_1, # of connection points: 2
#     Edge 36, Type (0, 0), BuildingBlock: KIFKEQ_clean_linker_1, # of connection points: 2
#     Edge 37, Type (0, 0), BuildingBlock: KIFKEQ_clean_linker_1, # of connection points: 2
#     Edge 38, Type (0, 0), BuildingBlock: KIFKEQ_clean_linker_1, # of connection points: 2
#     Edge 39, Type (0, 0), BuildingBlock: KIFKEQ_clean_linker_1, # of connection points: 2
#     Edge 40, Type (0, 0), BuildingBlock: KIFKEQ_clean_linker_1, # of connection points: 2
#     Edge 41, Type (0, 0), BuildingBlock: KIFKEQ_clean_linker_1, # of connection points: 2
#     Edge 42, Type (0, 0), BuildingBlock: KIFKEQ_clean_linker_1, # of connection points: 2
#     Edge 43, Type (0, 0), BuildingBlock: KIFKEQ_clean_linker_1, # of connection points: 2
#     Edge 44, Type (0, 0), BuildingBlock: KIFKEQ_clean_linker_1, # of connection points: 2
#     Edge 45, Type (0, 0), BuildingBlock: KIFKEQ_clean_linker_1, # of connection points: 2
#     Edge 46, Type (0, 0), BuildingBlock: KIFKEQ_clean_linker_1, # of connection points: 2
#     Edge 47, Type (0, 0), BuildingBlock: KIFKEQ_clean_linker_1, # of connection points: 2
#     Edge 48, Type (0, 0), BuildingBlock: KIFKEQ_clean_linker_1, # of connection points: 2
#     Edge 49, Type (0, 0), BuildingBlock: KIFKEQ_clean_linker_1, # of connection points: 2
#     Edge 50, Type (0, 0), BuildingBlock: KIFKEQ_clean_linker_1, # of connection points: 2
#     Edge 51, Type (0, 0), BuildingBlock: KIFKEQ_clean_linker_1, # of connection points: 2
#     Edge 52, Type (0, 0), BuildingBlock: KIFKEQ_clean_linker_1, # of connection points: 2
#     Edge 53, Type (0, 0), BuildingBlock: KIFKEQ_clean_linker_1, # of connection points: 2
#     Edge 54, Type (0, 0), BuildingBlock: KIFKEQ_clean_linker_1, # of connection points: 2
#     Edge 55, Type (0, 0), BuildingBlock: KIFKEQ_clean_linker_1, # of connection points: 2
#     Edge 56, Type (0, 0), BuildingBlock: KIFKEQ_clean_linker_1, # of connection points: 2
#     Edge 57, Type (0, 0), BuildingBlock: KIFKEQ_clean_linker_1, # of connection points: 2
#     Edge 58, Type (0, 0), BuildingBlock: KIFKEQ_clean_linker_1, # of connection points: 2
#     Edge 59, Type (0, 0), BuildingBlock: KIFKEQ_clean_linker_1, # of connection points: 2
#     Edge 60, Type (0, 0), BuildingBlock: KIFKEQ_clean_linker_1, # of connection points: 2
#     Edge 61, Type (0, 0), BuildingBlock: KIFKEQ_clean_linker_1, # of connection points: 2
#     Edge 62, Type (0, 0), BuildingBlock: KIFKEQ_clean_linker_1, # of connection points: 2
#     Edge 63, Type (0, 0), BuildingBlock: KIFKEQ_clean_linker_1, # of connection points: 2
#     Edge 64, Type (0, 0), BuildingBlock: KIFKEQ_clean_linker_1, # of connection points: 2
#     Edge 65, Type (0, 0), BuildingBlock: KIFKEQ_clean_linker_1, # of connection points: 2
#     Edge 66, Type (0, 0), BuildingBlock: KIFKEQ_clean_linker_1, # of connection points: 2
#     Edge 67, Type (0, 0), BuildingBlock: KIFKEQ_clean_linker_1, # of connection points: 2
#     Edge 68, Type (0, 0), BuildingBlock: KIFKEQ_clean_linker_1, # of connection points: 2
#     Edge 69, Type (0, 0), BuildingBlock: KIFKEQ_clean_linker_1, # of connection points: 2
#     Edge 70, Type (0, 0), BuildingBlock: KIFKEQ_clean_linker_1, # of connection points: 2
#     Edge 71, Type (0, 0), BuildingBlock: KIFKEQ_clean_linker_1, # of connection points: 2
# Relax obj value: 0.141
# Max RMSD: 0.173
# Mean RMSD: 0.173
data_MOF--net-hbo--node1-ICAMEG_clean_sbu_1--edge1-KIFKEQ_clean_linker_1
_symmetry_space_group_name_H-M    P1
_symmetry_Int_Tables_number       1
_symmetry_cell_setting            triclinic
loop_
_symmetry_equiv_pos_as_xyz
'x, y, z'
_cell_length_a     57.395317
_cell_length_b     57.37998
_cell_length_c     57.370679
_cell_angle_alpha  89.995163
_cell_angle_beta   89.994286
_cell_angle_gamma 90.004272
loop_
_atom_site_label
_atom_site_type_symbol
_atom_site_fract_x
_atom_site_fract_y
_atom_site_fract_z
_atom_type_partial_charge
Co0 Co 0.16174 0.36866 0.26845 0.0
Co1 Co 0.12745 0.33493 0.23217 0.0
O2 O 0.13339 0.36303 0.25045 0.0
C3 C 0.15887 0.4089 0.2364 0.0
O4 O 0.15332 0.39445 0.21956 0.0
C5 C 0.08716 0.33788 0.26437 0.0
O6 O 0.10145 0.34375 0.28124 0.0
O7 O 0.13723 0.3145 0.2585 0.0
O8 O 0.16162 0.33609 0.28022 0.0
H9 H 0.14626 0.25577 0.19983 0.0
H10 H 0.12145 0.40056 0.27371 0.0
O11 O 0.16261 0.40141 0.25695 0.0
H12 H 0.13481 0.36765 0.35198 0.0
H13 H 0.21419 0.41621 0.32027 0.0
H14 H 0.20532 0.34232 0.27729 0.0
H15 H 0.16009 0.35659 0.31902 0.0
H16 H 0.17846 0.40817 0.29776 0.0
O17 O 0.09479 0.33397 0.24391 0.0
H18 H 0.1537 0.2915 0.22257 0.0
H19 H 0.08759 0.31848 0.20312 0.0
H20 H 0.24126 0.34954 0.29973 0.0
H21 H 0.09587 0.41224 0.30623 0.0
H22 H 0.24586 0.38673 0.32143 0.0
H23 H 0.10245 0.39569 0.34569 0.0
O24 O 0.18187 0.35903 0.2419 0.0
H25 H 0.08419 0.4019 0.19598 0.0
H26 H 0.13818 0.33671 0.18127 0.0
H27 H 0.12693 0.36256 0.14883 0.0
H28 H 0.09972 0.39543 0.15609 0.0
H29 H 0.09608 0.37574 0.22796 0.0
H30 H 0.07934 0.28296 0.18035 0.0
H31 H 0.10884 0.25134 0.17853 0.0
O32 O 0.15991 0.3352 0.2199 0.0
C33 C 0.15131 0.317 0.27553 0.0
C34 C 0.1333 0.26946 0.20043 0.0
C35 C 0.09572 0.28471 0.18952 0.0
N36 N 0.12118 0.30712 0.21401 0.0
C37 C 0.13744 0.28975 0.21321 0.0
C38 C 0.10047 0.30475 0.20249 0.0
C39 C 0.11229 0.26697 0.1885 0.0
C40 C 0.12456 0.39346 0.29088 0.0
N41 N 0.14231 0.37801 0.29448 0.0
C42 C 0.10996 0.40006 0.3092 0.0
C43 C 0.11364 0.39074 0.33133 0.0
C44 C 0.13178 0.37499 0.33487 0.0
C45 C 0.14601 0.36876 0.31613 0.0
C46 C 0.21237 0.39992 0.31093 0.0
C47 C 0.20714 0.35847 0.28681 0.0
C48 C 0.1922 0.3953 0.29812 0.0
N49 N 0.18975 0.37472 0.28637 0.0
C50 C 0.22755 0.3625 0.29943 0.0
C51 C 0.23013 0.38337 0.31158 0.0
C52 C 0.1791 0.3453 0.22464 0.0
C53 C 0.09603 0.38761 0.19259 0.0
C54 C 0.12645 0.35104 0.18459 0.0
C55 C 0.12006 0.36558 0.16614 0.0
C56 C 0.10477 0.384 0.17022 0.0
N57 N 0.11782 0.35471 0.20649 0.0
C58 C 0.10276 0.3727 0.21061 0.0
Co59 Co 0.16221 0.62633 0.7306 0.0
Co60 Co 0.12732 0.6616 0.76461 0.0
O61 O 0.1333 0.63269 0.74755 0.0
C62 C 0.15773 0.5862 0.76267 0.0
O63 O 0.15156 0.60063 0.77931 0.0
C64 C 0.08693 0.65768 0.73271 0.0
O65 O 0.10093 0.65057 0.71608 0.0
O66 O 0.1368 0.68069 0.73733 0.0
O67 O 0.16331 0.65888 0.71857 0.0
H68 H 0.14565 0.7425 0.79266 0.0
H69 H 0.1216 0.59515 0.72392 0.0
O70 O 0.16204 0.59364 0.74222 0.0
H71 H 0.13858 0.62736 0.64606 0.0
H72 H 0.21557 0.57755 0.68088 0.0
H73 H 0.20676 0.65156 0.72368 0.0
H74 H 0.16271 0.63823 0.67993 0.0
H75 H 0.17915 0.58643 0.70192 0.0
O76 O 0.09465 0.66207 0.75302 0.0
H77 H 0.15318 0.70577 0.77162 0.0
H78 H 0.08769 0.67904 0.79339 0.0
H79 H 0.24341 0.64349 0.70271 0.0
H80 H 0.09716 0.58365 0.69047 0.0
H81 H 0.24798 0.60625 0.68112 0.0
H82 H 0.10556 0.59986 0.65122 0.0
O83 O 0.18141 0.63551 0.75793 0.0
H84 H 0.08393 0.5968 0.80439 0.0
H85 H 0.13911 0.66178 0.81531 0.0
H86 H 0.12801 0.63756 0.84905 0.0
H87 H 0.1002 0.60482 0.8437 0.0
H88 H 0.09566 0.62135 0.77109 0.0
H89 H 0.07936 0.71555 0.8145 0.0
H90 H 0.1085 0.74755 0.8143 0.0
O91 O 0.15981 0.66218 0.77668 0.0
C92 C 0.15215 0.67784 0.72153 0.0
C93 C 0.13285 0.72864 0.79295 0.0
C94 C 0.09563 0.71353 0.80519 0.0
N95 N 0.12101 0.6902 0.78148 0.0
C96 C 0.13705 0.70778 0.78114 0.0
C97 C 0.10044 0.69291 0.79318 0.0
C98 C 0.11199 0.73148 0.80507 0.0
C99 C 0.12549 0.6021 0.70685 0.0
N100 N 0.14361 0.61726 0.70387 0.0
C101 C 0.11154 0.5956 0.68799 0.0
C102 C 0.11624 0.60473 0.66598 0.0
C103 C 0.13475 0.62018 0.66308 0.0
C104 C 0.14831 0.62632 0.68234 0.0
C105 C 0.21377 0.59387 0.69017 0.0
C106 C 0.20856 0.63539 0.71418 0.0
C107 C 0.1932 0.59897 0.70214 0.0
N108 N 0.19076 0.61959 0.71382 0.0
C109 C 0.22938 0.63089 0.70241 0.0
C110 C 0.23194 0.60998 0.69031 0.0
C111 C 0.17866 0.65085 0.77376 0.0
C112 C 0.096 0.61106 0.80696 0.0
C113 C 0.12705 0.64752 0.81283 0.0
C114 C 0.12079 0.6339 0.83201 0.0
C115 C 0.10517 0.61554 0.829 0.0
N116 N 0.11796 0.64303 0.79127 0.0
C117 C 0.10263 0.62507 0.78819 0.0
Co118 Co 0.83597 0.6266 0.26691 0.0
Co119 Co 0.86972 0.66382 0.23447 0.0
O120 O 0.86486 0.63437 0.25072 0.0
C121 C 0.84287 0.58587 0.23584 0.0
O122 O 0.84421 0.60003 0.2179 0.0
C123 C 0.9106 0.66005 0.26559 0.0
O124 O 0.89669 0.65342 0.28249 0.0
O125 O 0.86022 0.68162 0.26257 0.0
O126 O 0.83213 0.6593 0.27816 0.0
H127 H 0.84881 0.74506 0.20937 0.0
H128 H 0.87848 0.59858 0.27591 0.0
O129 O 0.83932 0.59376 0.25626 0.0
H130 H 0.856 0.63101 0.35226 0.0
H131 H 0.78423 0.57507 0.31557 0.0
H132 H 0.78958 0.64884 0.27178 0.0
H133 H 0.8326 0.63944 0.31722 0.0
H134 H 0.82073 0.5861 0.29571 0.0
O135 O 0.9026 0.66452 0.2454 0.0
H136 H 0.84258 0.70748 0.2293 0.0
H137 H 0.90838 0.68323 0.20565 0.0
H138 H 0.75281 0.63858 0.29153 0.0
H139 H 0.90222 0.58951 0.31056 0.0
H140 H 0.74998 0.60145 0.31362 0.0
H141 H 0.89106 0.60583 0.34907 0.0
O142 O 0.81724 0.63409 0.2387 0.0
H143 H 0.91336 0.60113 0.19171 0.0
H144 H 0.85716 0.66567 0.18399 0.0
H145 H 0.86808 0.64288 0.14922 0.0
H146 H 0.89642 0.61037 0.15296 0.0
H147 H 0.90181 0.62427 0.22606 0.0
H148 H 0.91541 0.72062 0.18561 0.0
H149 H 0.88545 0.75181 0.18733 0.0
O150 O 0.83696 0.66399 0.22304 0.0
C151 C 0.84353 0.67833 0.27685 0.0
C152 C 0.86196 0.73158 0.20843 0.0
C153 C 0.89935 0.71787 0.19512 0.0
N154 N 0.875 0.69312 0.21846 0.0
C155 C 0.8585 0.71024 0.21962 0.0
C156 C 0.89529 0.69675 0.20653 0.0
C157 C 0.88253 0.73536 0.19608 0.0
C158 C 0.87337 0.60556 0.29264 0.0
N159 N 0.85412 0.61945 0.29454 0.0
C160 C 0.88694 0.60044 0.31219 0.0
C161 C 0.88069 0.60964 0.33378 0.0
C162 C 0.86104 0.62379 0.33558 0.0
C163 C 0.8479 0.62856 0.31566 0.0
C164 C 0.78527 0.59132 0.30605 0.0
C165 C 0.78853 0.63273 0.2815 0.0
C166 C 0.80588 0.59764 0.29474 0.0
N167 N 0.80735 0.6182 0.2828 0.0
C168 C 0.76764 0.62698 0.29258 0.0
C169 C 0.76606 0.60614 0.30496 0.0
C170 C 0.81903 0.65097 0.22435 0.0
C171 C 0.90105 0.61529 0.18985 0.0
C172 C 0.86945 0.65151 0.18577 0.0
C173 C 0.8756 0.6387 0.16601 0.0
C174 C 0.89151 0.62047 0.16811 0.0
N175 N 0.87893 0.64637 0.20701 0.0
C176 C 0.89451 0.6285 0.20922 0.0
Co177 Co 0.87043 0.33774 0.76358 0.0
Co178 Co 0.83694 0.37267 0.72772 0.0
O179 O 0.86524 0.36614 0.74554 0.0
C180 C 0.91105 0.33989 0.73171 0.0
O181 O 0.89719 0.34654 0.71477 0.0
C182 C 0.84113 0.41298 0.75963 0.0
O183 O 0.84579 0.39842 0.77665 0.0
O184 O 0.81665 0.36373 0.75443 0.0
O185 O 0.83797 0.33866 0.77566 0.0
H186 H 0.75659 0.35628 0.69703 0.0
H187 H 0.9027 0.37777 0.76828 0.0
O188 O 0.9031 0.33602 0.75204 0.0
H189 H 0.87131 0.36455 0.84719 0.0
H190 H 0.91693 0.28414 0.81523 0.0
H191 H 0.84307 0.29488 0.77265 0.0
H192 H 0.85958 0.33927 0.81447 0.0
H193 H 0.90972 0.32004 0.7927 0.0
O194 O 0.83732 0.40548 0.73909 0.0
H195 H 0.79237 0.34789 0.71931 0.0
H196 H 0.82148 0.41261 0.69829 0.0
H197 H 0.84947 0.2588 0.79514 0.0
H198 H 0.91509 0.40335 0.80053 0.0
H199 H 0.88663 0.25326 0.81663 0.0
H200 H 0.89929 0.39686 0.84031 0.0
O201 O 0.86028 0.31782 0.737 0.0
H202 H 0.90399 0.41393 0.68936 0.0
H203 H 0.83791 0.36035 0.67719 0.0
H204 H 0.86335 0.37043 0.64404 0.0
H205 H 0.89665 0.39742 0.65002 0.0
H206 H 0.87823 0.40323 0.72208 0.0
H207 H 0.78594 0.42181 0.67593 0.0
H208 H 0.75322 0.39348 0.67513 0.0
O209 O 0.83584 0.34008 0.71603 0.0
C210 C 0.81909 0.34948 0.77132 0.0
C211 C 0.77076 0.36873 0.69718 0.0
C212 C 0.78722 0.40552 0.68537 0.0
N213 N 0.80905 0.37965 0.70996 0.0
C214 C 0.79108 0.36405 0.70971 0.0
C215 C 0.80728 0.40024 0.6981 0.0
C216 C 0.76887 0.38962 0.68492 0.0
C217 C 0.89589 0.37472 0.78558 0.0
N218 N 0.88042 0.35705 0.78949 0.0
C219 C 0.90291 0.38931 0.80376 0.0
C220 C 0.89401 0.38568 0.82607 0.0
C221 C 0.87829 0.36758 0.82993 0.0
C222 C 0.87164 0.35337 0.81132 0.0
C223 C 0.90065 0.28637 0.80597 0.0
C224 C 0.85922 0.29265 0.78208 0.0
C225 C 0.89649 0.30663 0.79314 0.0
N226 N 0.87592 0.30962 0.78152 0.0
C227 C 0.86277 0.27216 0.79473 0.0
C228 C 0.88364 0.26905 0.80676 0.0
C229 C 0.84588 0.32076 0.72032 0.0
C230 C 0.88949 0.40221 0.68652 0.0
C231 C 0.8524 0.37206 0.67995 0.0
C232 C 0.86671 0.37775 0.6611 0.0
C233 C 0.88539 0.39291 0.66446 0.0
N234 N 0.85652 0.38128 0.70153 0.0
C235 C 0.87479 0.39617 0.70496 0.0
Co236 Co 0.23365 0.12354 0.33078 0.0
Co237 Co 0.26514 0.15746 0.36851 0.0
O238 O 0.24933 0.12847 0.3605 0.0
C239 C 0.26481 0.08278 0.33528 0.0
O240 O 0.28168 0.09697 0.34136 0.0
C241 C 0.23382 0.1503 0.40901 0.0
O242 O 0.21599 0.14897 0.39473 0.0
O243 O 0.23678 0.17585 0.36084 0.0
O244 O 0.2222 0.15634 0.33025 0.0
H245 H 0.28884 0.241 0.35715 0.0
H246 H 0.22447 0.09157 0.3703 0.0
O247 O 0.24461 0.09062 0.33055 0.0
H248 H 0.14806 0.12528 0.3501 0.0
H249 H 0.18582 0.0776 0.27333 0.0
H250 H 0.22932 0.15047 0.28688 0.0
H251 H 0.18324 0.13612 0.32793 0.0
H252 H 0.20522 0.08478 0.31102 0.0
O253 O 0.25429 0.15385 0.40126 0.0
H254 H 0.26957 0.20406 0.34658 0.0
H255 H 0.29352 0.17279 0.40925 0.0
H256 H 0.21003 0.14409 0.24899 0.0
H257 H 0.18969 0.08011 0.39282 0.0
H258 H 0.18807 0.10743 0.24203 0.0
H259 H 0.15115 0.09705 0.38278 0.0
O260 O 0.26207 0.13303 0.31347 0.0
H261 H 0.30919 0.09139 0.40546 0.0
H262 H 0.31549 0.16144 0.35605 0.0
H263 H 0.35068 0.1383 0.36452 0.0
H264 H 0.34767 0.10302 0.38943 0.0
H265 H 0.27439 0.11489 0.39637 0.0
H266 H 0.31291 0.20944 0.4206 0.0
H267 H 0.31071 0.24385 0.3944 0.0
O268 O 0.27658 0.16161 0.33589 0.0
C269 C 0.22294 0.17413 0.34354 0.0
C270 C 0.29 0.2261 0.36867 0.0
C271 C 0.30349 0.2084 0.40429 0.0
N272 N 0.28063 0.18622 0.37716 0.0
C273 C 0.27919 0.20512 0.36273 0.0
C274 C 0.29245 0.1877 0.39779 0.0
C275 C 0.30225 0.22769 0.38958 0.0
C276 C 0.20772 0.09887 0.36571 0.0
N277 N 0.20587 0.11439 0.34774 0.0
C278 C 0.18811 0.09238 0.37857 0.0
C279 C 0.16649 0.10191 0.37295 0.0
C280 C 0.16475 0.11776 0.35463 0.0
C281 C 0.18475 0.12387 0.34216 0.0
C282 C 0.19529 0.09366 0.27617 0.0
C283 C 0.21968 0.13454 0.28402 0.0
C284 C 0.20634 0.0978 0.29745 0.0
N285 N 0.21821 0.11811 0.3012 0.0
C286 C 0.20885 0.131 0.26252 0.0
C287 C 0.19656 0.11041 0.25862 0.0
C288 C 0.27587 0.1501 0.31689 0.0
C289 C 0.31074 0.10677 0.39465 0.0
C290 C 0.31401 0.14606 0.36682 0.0
C291 C 0.33401 0.13306 0.37161 0.0
C292 C 0.33231 0.11328 0.38561 0.0
N293 N 0.2929 0.13957 0.37576 0.0
C294 C 0.29111 0.12021 0.38952 0.0
Co295 Co 0.33555 0.7627 0.873 0.0
Co296 Co 0.37095 0.72928 0.83764 0.0
O297 O 0.36466 0.74611 0.86663 0.0
C298 C 0.34047 0.73065 0.91319 0.0
O299 O 0.34731 0.71413 0.89891 0.0
C300 C 0.41071 0.76191 0.84164 0.0
O301 O 0.39637 0.77822 0.84878 0.0
O302 O 0.36102 0.75642 0.81857 0.0
O303 O 0.33447 0.7749 0.84054 0.0
H304 H 0.35317 0.70117 0.75662 0.0
H305 H 0.37597 0.7696 0.90437 0.0
O306 O 0.33566 0.75093 0.90563 0.0
H307 H 0.35828 0.84748 0.87262 0.0
H308 H 0.28142 0.81154 0.92183 0.0
H309 H 0.29107 0.76934 0.84757 0.0
H310 H 0.33456 0.81343 0.86144 0.0
H311 H 0.3181 0.79094 0.91301 0.0
O312 O 0.40342 0.74145 0.83722 0.0
H313 H 0.34524 0.72195 0.79342 0.0
H314 H 0.41108 0.70126 0.82013 0.0
H315 H 0.25417 0.78987 0.85559 0.0
H316 H 0.40002 0.80323 0.91618 0.0
H317 H 0.24917 0.81116 0.89295 0.0
H318 H 0.39125 0.8425 0.90022 0.0
O319 O 0.31668 0.73524 0.86353 0.0
H320 H 0.41509 0.69 0.90223 0.0
H321 H 0.35995 0.67842 0.83733 0.0
H322 H 0.37166 0.64478 0.8614 0.0
H323 H 0.39945 0.65046 0.8941 0.0
H324 H 0.40276 0.72319 0.87784 0.0
H325 H 0.41981 0.68042 0.78355 0.0
H326 H 0.3907 0.68021 0.75152 0.0
O327 O 0.33864 0.71673 0.83698 0.0
C328 C 0.34555 0.77207 0.82152 0.0
C329 C 0.36596 0.70105 0.77049 0.0
C330 C 0.40337 0.68943 0.78559 0.0
N331 N 0.37756 0.7126 0.80899 0.0
C332 C 0.36153 0.71272 0.79139 0.0
C333 C 0.39834 0.70128 0.80625 0.0
C334 C 0.38703 0.68932 0.76763 0.0
C335 C 0.37192 0.78668 0.89752 0.0
N336 N 0.35383 0.78957 0.88232 0.0
C337 C 0.38565 0.80563 0.9042 0.0
C338 C 0.38075 0.82765 0.8952 0.0
C339 C 0.36226 0.83046 0.8797 0.0
C340 C 0.34893 0.8111 0.87339 0.0
C341 C 0.28341 0.80237 0.90546 0.0
C342 C 0.28908 0.7787 0.8638 0.0
C343 C 0.30412 0.79065 0.90038 0.0
N344 N 0.30679 0.77914 0.8797 0.0
C345 C 0.26812 0.79023 0.86827 0.0
C346 C 0.26532 0.80216 0.88925 0.0
C347 C 0.31966 0.71949 0.84815 0.0
C348 C 0.40302 0.68729 0.88799 0.0
C349 C 0.37199 0.68105 0.85158 0.0
C350 C 0.3786 0.66192 0.86511 0.0
C351 C 0.39421 0.66512 0.88344 0.0
N352 N 0.38074 0.70273 0.85613 0.0
C353 C 0.39605 0.706 0.87406 0.0
Co354 Co 0.76193 0.87062 0.33511 0.0
Co355 Co 0.72675 0.8374 0.37016 0.0
O356 O 0.74445 0.86564 0.36376 0.0
C357 C 0.73232 0.91269 0.33843 0.0
O358 O 0.71408 0.89912 0.34099 0.0
C359 C 0.75695 0.84176 0.41171 0.0
O360 O 0.77509 0.84303 0.39782 0.0
O361 O 0.75426 0.81755 0.36296 0.0
O362 O 0.77188 0.83739 0.33421 0.0
H363 H 0.6986 0.75587 0.35505 0.0
H364 H 0.77038 0.90101 0.37607 0.0
O365 O 0.75251 0.90399 0.33557 0.0
H366 H 0.8462 0.86449 0.35877 0.0
H367 H 0.81469 0.91607 0.28171 0.0
H368 H 0.76769 0.84469 0.29077 0.0
H369 H 0.81179 0.85586 0.33453 0.0
H370 H 0.7929 0.90872 0.31805 0.0
O371 O 0.73653 0.8393 0.40341 0.0
H372 H 0.7204 0.7919 0.34646 0.0
H373 H 0.69597 0.82251 0.40928 0.0
H374 H 0.78935 0.85126 0.25422 0.0
H375 H 0.8044 0.91028 0.40063 0.0
H376 H 0.81307 0.88717 0.24952 0.0
H377 H 0.84264 0.89192 0.39207 0.0
O378 O 0.73413 0.86281 0.3159 0.0
H379 H 0.68533 0.90512 0.40714 0.0
H380 H 0.67679 0.83675 0.35576 0.0
H381 H 0.64274 0.8618 0.36347 0.0
H382 H 0.64688 0.89625 0.38935 0.0
H383 H 0.71897 0.87971 0.39882 0.0
H384 H 0.67403 0.78674 0.41864 0.0
H385 H 0.67519 0.75313 0.39138 0.0
O386 O 0.71648 0.83502 0.33704 0.0
C387 C 0.76928 0.81917 0.34664 0.0
C388 C 0.69788 0.77042 0.36703 0.0
C389 C 0.68411 0.78774 0.40273 0.0
N390 N 0.70926 0.80936 0.37723 0.0
C391 C 0.71013 0.7909 0.36222 0.0
C392 C 0.6966 0.80793 0.39735 0.0
C393 C 0.68477 0.76889 0.38742 0.0
C394 C 0.787 0.89309 0.37211 0.0
N395 N 0.78911 0.878 0.35381 0.0
C396 C 0.80619 0.89835 0.38613 0.0
C397 C 0.82763 0.88802 0.38134 0.0
C398 C 0.82964 0.87261 0.36267 0.0
C399 C 0.81007 0.86775 0.34903 0.0
C400 C 0.80445 0.90034 0.28357 0.0
C401 C 0.77808 0.86029 0.28891 0.0
C402 C 0.79204 0.8961 0.30408 0.0
N403 N 0.7792 0.8762 0.30659 0.0
C404 C 0.79025 0.86395 0.26815 0.0
C405 C 0.80354 0.88411 0.26552 0.0
C406 C 0.71906 0.84664 0.31827 0.0
C407 C 0.68328 0.89012 0.39589 0.0
C408 C 0.67875 0.85174 0.367 0.0
C409 C 0.65939 0.86583 0.37134 0.0
C410 C 0.66173 0.88515 0.38587 0.0
N411 N 0.69983 0.8567 0.37692 0.0
C412 C 0.70225 0.87562 0.39119 0.0
Co413 Co 0.66383 0.23033 0.86947 0.0
Co414 Co 0.62854 0.26926 0.84 0.0
O415 O 0.63595 0.24957 0.8667 0.0
C416 C 0.66565 0.26197 0.90999 0.0
O417 O 0.65937 0.27904 0.89613 0.0
C418 C 0.58785 0.23759 0.84346 0.0
O419 O 0.60215 0.21977 0.84451 0.0
O420 O 0.63642 0.2438 0.81758 0.0
O421 O 0.65985 0.21902 0.83699 0.0
H422 H 0.64223 0.30546 0.76142 0.0
H423 H 0.62601 0.22673 0.9045 0.0
O424 O 0.66829 0.2414 0.9021 0.0
H425 H 0.63378 0.14789 0.87118 0.0
H426 H 0.71855 0.17605 0.9114 0.0
H427 H 0.7039 0.21952 0.8387 0.0
H428 H 0.65937 0.17982 0.858 0.0
H429 H 0.68322 0.20017 0.9071 0.0
O430 O 0.59566 0.25824 0.84131 0.0
H431 H 0.65187 0.28089 0.79535 0.0
H432 H 0.58804 0.29948 0.82787 0.0
H433 H 0.73934 0.19545 0.84217 0.0
H434 H 0.6002 0.19527 0.91836 0.0
H435 H 0.74685 0.17351 0.87873 0.0
H436 H 0.60396 0.15553 0.90162 0.0
O437 O 0.6842 0.25607 0.85816 0.0
H438 H 0.59116 0.30325 0.91156 0.0
H439 H 0.64075 0.3197 0.84332 0.0
H440 H 0.63223 0.35116 0.87134 0.0
H441 H 0.60725 0.34301 0.90576 0.0
H442 H 0.60029 0.27226 0.8832 0.0
H443 H 0.57763 0.32412 0.79421 0.0
H444 H 0.60486 0.32729 0.76071 0.0
O445 O 0.66114 0.28076 0.83836 0.0
C446 C 0.64908 0.22551 0.81869 0.0
C447 C 0.63025 0.30427 0.77594 0.0
C448 C 0.59397 0.31471 0.79433 0.0
N449 N 0.6206 0.28885 0.81362 0.0
C450 C 0.63564 0.29043 0.79522 0.0
C451 C 0.59994 0.30069 0.81331 0.0
C452 C 0.60927 0.31649 0.77554 0.0
C453 C 0.62785 0.20944 0.89724 0.0
N454 N 0.64419 0.2051 0.88048 0.0
C455 C 0.61314 0.19172 0.90511 0.0
C456 C 0.61525 0.16943 0.89569 0.0
C457 C 0.63196 0.16514 0.8786 0.0
C458 C 0.64635 0.1833 0.87114 0.0
C459 C 0.71545 0.1855 0.89536 0.0
C460 C 0.70698 0.2099 0.85461 0.0
C461 C 0.69551 0.19923 0.89285 0.0
N462 N 0.69144 0.21111 0.87261 0.0
C463 C 0.72711 0.19636 0.85649 0.0
C464 C 0.73132 0.18407 0.87703 0.0
C465 C 0.68099 0.27438 0.84596 0.0
C466 C 0.60203 0.30703 0.8966 0.0
C467 C 0.62995 0.316 0.85829 0.0
C468 C 0.62512 0.3339 0.87407 0.0
C469 C 0.61109 0.32932 0.89336 0.0
N470 N 0.62101 0.29417 0.86159 0.0
C471 C 0.60718 0.28957 0.88044 0.0
Co472 Co 0.26555 0.83831 0.62922 0.0
Co473 Co 0.23161 0.87168 0.66551 0.0
O474 O 0.24864 0.86685 0.63651 0.0
C475 C 0.23474 0.84422 0.58826 0.0
O476 O 0.21682 0.84572 0.60242 0.0
C477 C 0.2629 0.91235 0.66239 0.0
O478 O 0.27994 0.89807 0.65705 0.0
O479 O 0.25918 0.86232 0.68421 0.0
O480 O 0.27642 0.83506 0.66208 0.0
H481 H 0.20413 0.8509 0.74603 0.0
H482 H 0.27386 0.8808 0.60095 0.0
O483 O 0.25519 0.84106 0.59622 0.0
H484 H 0.35025 0.86059 0.63469 0.0
H485 H 0.3161 0.78731 0.57881 0.0
H486 H 0.27122 0.79224 0.65195 0.0
H487 H 0.31573 0.83629 0.64272 0.0
H488 H 0.29523 0.82342 0.58924 0.0
O489 O 0.24248 0.90461 0.66626 0.0
H490 H 0.22524 0.84464 0.7091 0.0
H491 H 0.2022 0.91033 0.68396 0.0
H492 H 0.29197 0.75585 0.64229 0.0
H493 H 0.30798 0.90546 0.59229 0.0
H494 H 0.31462 0.75323 0.60548 0.0
H495 H 0.3465 0.89544 0.60928 0.0
O496 O 0.23773 0.81898 0.63655 0.0
H497 H 0.19039 0.91504 0.60158 0.0
H498 H 0.18122 0.85879 0.66593 0.0
H499 H 0.14706 0.86948 0.64215 0.0
H500 H 0.15152 0.89784 0.60974 0.0
H501 H 0.22413 0.90372 0.62568 0.0
H502 H 0.181 0.91741 0.72069 0.0
H503 H 0.1818 0.88751 0.752 0.0
O504 O 0.22037 0.83883 0.66545 0.0
C505 C 0.2741 0.84615 0.68119 0.0
C506 C 0.20358 0.86403 0.73249 0.0
C507 C 0.19062 0.90136 0.71828 0.0
N508 N 0.21477 0.87701 0.69432 0.0
C509 C 0.21544 0.86055 0.71152 0.0
C510 C 0.20269 0.89728 0.69754 0.0
C511 C 0.19107 0.88458 0.73584 0.0
C512 C 0.29061 0.87619 0.60821 0.0
N513 N 0.29281 0.85707 0.62225 0.0
C514 C 0.30985 0.89028 0.60333 0.0
C515 C 0.33145 0.88467 0.6129 0.0
C516 C 0.33356 0.86513 0.62717 0.0
C517 C 0.31393 0.85147 0.63171 0.0
C518 C 0.30635 0.78826 0.59493 0.0
C519 C 0.28117 0.79128 0.63598 0.0
C520 C 0.29446 0.80864 0.60091 0.0
N521 N 0.28221 0.81 0.62129 0.0
C522 C 0.29282 0.77061 0.63057 0.0
C523 C 0.30551 0.76915 0.6099 0.0
C524 C 0.22265 0.82072 0.65278 0.0
C525 C 0.18821 0.90272 0.6157 0.0
C526 C 0.18332 0.87109 0.65182 0.0
C527 C 0.1639 0.87712 0.63844 0.0
C528 C 0.16641 0.89304 0.62027 0.0
N529 N 0.20463 0.88072 0.64727 0.0
C530 C 0.20723 0.89631 0.62946 0.0
Co531 Co 0.62681 0.73024 0.15888 0.0
Co532 Co 0.66291 0.76367 0.12485 0.0
O533 O 0.63379 0.74699 0.13014 0.0
C534 C 0.58581 0.76115 0.15339 0.0
O535 O 0.59992 0.77908 0.15159 0.0
C536 C 0.65884 0.73273 0.08386 0.0
O537 O 0.65361 0.71553 0.09802 0.0
O538 O 0.68137 0.73575 0.13371 0.0
O539 O 0.65964 0.71918 0.1617 0.0
H540 H 0.74419 0.78985 0.14416 0.0
H541 H 0.59794 0.7219 0.11682 0.0
O542 O 0.59383 0.74072 0.15657 0.0
H543 H 0.63144 0.64537 0.13696 0.0
H544 H 0.57697 0.6801 0.21086 0.0
H545 H 0.6502 0.72464 0.20463 0.0
H546 H 0.64003 0.67996 0.16097 0.0
H547 H 0.58692 0.70083 0.17452 0.0
O548 O 0.6629 0.75304 0.09181 0.0
H549 H 0.70711 0.76919 0.15102 0.0
H550 H 0.68095 0.79318 0.08606 0.0
H551 H 0.64102 0.70403 0.24123 0.0
H552 H 0.58871 0.68771 0.09247 0.0
H553 H 0.60417 0.68155 0.2445 0.0
H554 H 0.60557 0.64912 0.10245 0.0
O555 O 0.63456 0.75816 0.17796 0.0
H556 H 0.59869 0.80599 0.08302 0.0
H557 H 0.66424 0.814 0.13801 0.0
H558 H 0.64068 0.84853 0.12802 0.0
H559 H 0.60766 0.84464 0.10031 0.0
H560 H 0.62259 0.77187 0.09364 0.0
H561 H 0.71781 0.81394 0.0784 0.0
H562 H 0.7497 0.81243 0.10763 0.0
O563 O 0.66366 0.77476 0.15776 0.0
C564 C 0.6785 0.72104 0.15012 0.0
C565 C 0.73039 0.7907 0.13133 0.0
C566 C 0.7156 0.8042 0.09441 0.0
N567 N 0.69183 0.78016 0.11906 0.0
C568 C 0.70934 0.7791 0.13514 0.0
C569 C 0.69479 0.79238 0.09882 0.0
C570 C 0.73348 0.80335 0.11082 0.0
C571 C 0.60516 0.70512 0.12141 0.0
N572 N 0.61943 0.70293 0.14035 0.0
C573 C 0.59995 0.68584 0.1075 0.0
C574 C 0.60945 0.6642 0.11309 0.0
C575 C 0.62398 0.66209 0.13244 0.0
C576 C 0.62883 0.68176 0.14593 0.0
C577 C 0.5931 0.68979 0.20963 0.0
C578 C 0.6342 0.71477 0.20587 0.0
C579 C 0.59881 0.70159 0.18911 0.0
N580 N 0.61922 0.71375 0.18739 0.0
C581 C 0.62907 0.7032 0.22666 0.0
C582 C 0.60838 0.69061 0.2285 0.0
C583 C 0.65111 0.77287 0.176 0.0
C584 C 0.61308 0.80791 0.09506 0.0
C585 C 0.64987 0.81215 0.12598 0.0
C586 C 0.63662 0.83178 0.12035 0.0
C587 C 0.6181 0.82959 0.10479 0.0
N588 N 0.64486 0.79096 0.11632 0.0
C589 C 0.62672 0.78868 0.10107 0.0
Co590 Co 0.72989 0.16095 0.62732 0.0
Co591 Co 0.76439 0.12712 0.66326 0.0
O592 O 0.74732 0.13247 0.63422 0.0
C593 C 0.76222 0.15631 0.58718 0.0
O594 O 0.77897 0.15048 0.60162 0.0
C595 C 0.73279 0.08639 0.6598 0.0
O596 O 0.71604 0.10029 0.65278 0.0
O597 O 0.73715 0.13697 0.68231 0.0
O598 O 0.71739 0.16207 0.65969 0.0
H599 H 0.79269 0.14716 0.74368 0.0
H600 H 0.72464 0.11959 0.59685 0.0
O601 O 0.74181 0.16067 0.5947 0.0
H602 H 0.64583 0.13568 0.62706 0.0
H603 H 0.67982 0.2129 0.57736 0.0
H604 H 0.72147 0.20545 0.65218 0.0
H605 H 0.67895 0.16077 0.63799 0.0
H606 H 0.70148 0.177 0.58682 0.0
O607 O 0.75299 0.09435 0.66427 0.0
H608 H 0.77152 0.15391 0.70688 0.0
H609 H 0.7933 0.08792 0.68141 0.0
H610 H 0.69984 0.24158 0.64352 0.0
H611 H 0.69197 0.09418 0.58527 0.0
H612 H 0.67883 0.24547 0.60587 0.0
H613 H 0.65223 0.10212 0.60047 0.0
O614 O 0.75674 0.18089 0.6367 0.0
H615 H 0.80432 0.08273 0.59921 0.0
H616 H 0.81498 0.13919 0.66314 0.0
H617 H 0.84875 0.1278 0.63911 0.0
H618 H 0.84353 0.09935 0.6069 0.0
H619 H 0.77098 0.09475 0.62355 0.0
H620 H 0.81456 0.08037 0.718 0.0
H621 H 0.81442 0.11016 0.74941 0.0
O622 O 0.7762 0.15966 0.66318 0.0
C623 C 0.72085 0.1517 0.67903 0.0
C624 C 0.79296 0.13408 0.73009 0.0
C625 C 0.80521 0.09658 0.71569 0.0
N626 N 0.78135 0.12143 0.69194 0.0
C627 C 0.78106 0.13784 0.70919 0.0
C628 C 0.79311 0.10094 0.69502 0.0
C629 C 0.80512 0.11331 0.7333 0.0
C630 C 0.70736 0.12327 0.60338 0.0
N631 N 0.70371 0.14166 0.61807 0.0
C632 C 0.68894 0.10877 0.59683 0.0
C633 C 0.66666 0.11322 0.6054 0.0
C634 C 0.66306 0.13203 0.62033 0.0
C635 C 0.6819 0.14613 0.62654 0.0
C636 C 0.68887 0.2114 0.59384 0.0
C637 C 0.71224 0.20696 0.63582 0.0
C638 C 0.70121 0.19114 0.59927 0.0
N639 N 0.71259 0.18908 0.6201 0.0
C640 C 0.70008 0.22748 0.63099 0.0
C641 C 0.68832 0.22966 0.60985 0.0
C642 C 0.77277 0.17846 0.6519 0.0
C643 C 0.80683 0.09509 0.61324 0.0
C644 C 0.81256 0.12685 0.64912 0.0
C645 C 0.83175 0.12042 0.6356 0.0
C646 C 0.82881 0.10445 0.61755 0.0
N647 N 0.79105 0.11756 0.64481 0.0
C648 C 0.78804 0.10188 0.62714 0.0
Co649 Co 0.37015 0.26845 0.15855 0.0
Co650 Co 0.33663 0.23137 0.12489 0.0
O651 O 0.36463 0.24992 0.13049 0.0
C652 C 0.41081 0.23679 0.1562 0.0
O653 O 0.39668 0.21968 0.15062 0.0
C654 C 0.33938 0.2628 0.08401 0.0
O655 O 0.34508 0.27997 0.09801 0.0
O656 O 0.316 0.25765 0.13422 0.0
O657 O 0.33748 0.2801 0.15809 0.0
H658 H 0.2577 0.19872 0.14416 0.0
H659 H 0.40175 0.27299 0.11795 0.0
O660 O 0.40298 0.25724 0.15971 0.0
H661 H 0.36936 0.3516 0.13041 0.0
H662 H 0.41722 0.32134 0.21039 0.0
H663 H 0.34355 0.27793 0.20182 0.0
H664 H 0.35842 0.31909 0.15631 0.0
H665 H 0.40946 0.29823 0.17497 0.0
O666 O 0.33564 0.24245 0.09199 0.0
H667 H 0.29319 0.2219 0.15125 0.0
H668 H 0.32054 0.20139 0.08559 0.0
H669 H 0.35049 0.30099 0.23744 0.0
H670 H 0.41336 0.30505 0.09175 0.0
H671 H 0.38756 0.32289 0.24189 0.0
H672 H 0.39705 0.34468 0.09786 0.0
O673 O 0.36071 0.24212 0.17916 0.0
H674 H 0.40345 0.19442 0.08205 0.0
H675 H 0.3391 0.18095 0.13741 0.0
H676 H 0.36505 0.14836 0.12681 0.0
H677 H 0.39748 0.155 0.09892 0.0
H678 H 0.3772 0.22655 0.09326 0.0
H679 H 0.28526 0.17814 0.0777 0.0
H680 H 0.25357 0.17663 0.10715 0.0
O681 O 0.33684 0.21992 0.15753 0.0
C682 C 0.31841 0.27497 0.14795 0.0
C683 C 0.27141 0.19919 0.13122 0.0
C684 C 0.28687 0.18766 0.09391 0.0
N685 N 0.30898 0.21287 0.11893 0.0
C686 C 0.29157 0.21223 0.13516 0.0
C687 C 0.30678 0.20089 0.09845 0.0
C688 C 0.2691 0.18681 0.11044 0.0
C689 C 0.39474 0.29023 0.12083 0.0
N690 N 0.37943 0.29417 0.13865 0.0
C691 C 0.4013 0.30829 0.10589 0.0
C692 C 0.39212 0.33052 0.10931 0.0
C693 C 0.37657 0.33441 0.12755 0.0
C694 C 0.37036 0.31592 0.14212 0.0
C695 C 0.40098 0.31191 0.20863 0.0
C696 C 0.35965 0.28754 0.20357 0.0
C697 C 0.39652 0.29875 0.18864 0.0
N698 N 0.376 0.28689 0.18627 0.0
C699 C 0.36352 0.30051 0.2238 0.0
C700 C 0.38433 0.31278 0.2263 0.0
C701 C 0.34691 0.22488 0.17667 0.0
C702 C 0.38933 0.19129 0.09416 0.0
C703 C 0.35321 0.18399 0.1253 0.0
C704 C 0.36781 0.16546 0.11933 0.0
C705 C 0.386 0.16919 0.10366 0.0
N706 N 0.35657 0.20561 0.11587 0.0
C707 C 0.37435 0.20939 0.10049 0.0
Co708 Co 0.87188 0.66492 0.76824 0.0
Co709 Co 0.83914 0.62848 0.73381 0.0
O710 O 0.8673 0.63596 0.75117 0.0
C711 C 0.91287 0.66219 0.73722 0.0
O712 O 0.89863 0.65862 0.71967 0.0
C713 C 0.84458 0.58736 0.76484 0.0
O714 O 0.84488 0.60118 0.78308 0.0
O715 O 0.81924 0.6361 0.76129 0.0
O716 O 0.83901 0.66476 0.77917 0.0
H717 H 0.75737 0.64138 0.70537 0.0
H718 H 0.90382 0.62501 0.77595 0.0
O719 O 0.90492 0.66548 0.75767 0.0
H720 H 0.86914 0.64163 0.85282 0.0
H721 H 0.91735 0.72016 0.81901 0.0
H722 H 0.84463 0.70835 0.77478 0.0
H723 H 0.85867 0.66535 0.81853 0.0
H724 H 0.91043 0.68345 0.79773 0.0
O725 O 0.8419 0.59557 0.74441 0.0
H726 H 0.79332 0.65126 0.72676 0.0
H727 H 0.82475 0.58806 0.70446 0.0
H728 H 0.85075 0.74526 0.79595 0.0
H729 H 0.91492 0.60097 0.80981 0.0
H730 H 0.88733 0.75134 0.81827 0.0
H731 H 0.89749 0.6092 0.84858 0.0
O732 O 0.86251 0.68375 0.74065 0.0
H733 H 0.90781 0.59212 0.6934 0.0
H734 H 0.83761 0.64056 0.68321 0.0
H735 H 0.86271 0.63237 0.64931 0.0
H736 H 0.8981 0.60794 0.65429 0.0
H737 H 0.88234 0.60096 0.72686 0.0
H738 H 0.78908 0.57742 0.68298 0.0
H739 H 0.7551 0.60422 0.68327 0.0
O740 O 0.83612 0.66121 0.72252 0.0
C741 C 0.82086 0.65225 0.77651 0.0
C742 C 0.77208 0.6296 0.70504 0.0
C743 C 0.78987 0.59368 0.6925 0.0
N744 N 0.81117 0.62035 0.71669 0.0
C745 C 0.79251 0.63513 0.71706 0.0
C746 C 0.81001 0.59978 0.70474 0.0
C747 C 0.77081 0.60873 0.69267 0.0
C748 C 0.89631 0.62882 0.7928 0.0
N749 N 0.88073 0.64665 0.79528 0.0
C750 C 0.90259 0.61509 0.81189 0.0
C751 C 0.89279 0.6197 0.83363 0.0
C752 C 0.87687 0.63789 0.83602 0.0
C753 C 0.87098 0.65123 0.81653 0.0
C754 C 0.90132 0.7177 0.80938 0.0
C755 C 0.86053 0.71082 0.78457 0.0
C756 C 0.89733 0.69697 0.79726 0.0
N757 N 0.87707 0.6937 0.78517 0.0
C758 C 0.86393 0.73178 0.79647 0.0
C759 C 0.88447 0.73519 0.80897 0.0
C760 C 0.84679 0.68051 0.72526 0.0
C761 C 0.89242 0.60276 0.691 0.0
C762 C 0.85304 0.63005 0.68554 0.0
C763 C 0.86715 0.62539 0.66627 0.0
C764 C 0.88698 0.61167 0.66907 0.0
N765 N 0.85849 0.62127 0.707 0.0
C766 C 0.87788 0.60776 0.70987 0.0
Co767 Co 0.83534 0.37065 0.26692 0.0
Co768 Co 0.87141 0.3365 0.2336 0.0
O769 O 0.8644 0.36537 0.25012 0.0
C770 C 0.83909 0.41147 0.23569 0.0
O771 O 0.84448 0.39728 0.21858 0.0
C772 C 0.91271 0.34251 0.26408 0.0
O773 O 0.89876 0.34442 0.28213 0.0
O774 O 0.864 0.31767 0.26178 0.0
O775 O 0.83483 0.33783 0.27827 0.0
H776 H 0.85744 0.25384 0.20832 0.0
H777 H 0.87554 0.40212 0.27466 0.0
O778 O 0.8351 0.40361 0.25605 0.0
H779 H 0.85798 0.3683 0.35171 0.0
H780 H 0.78041 0.41717 0.31708 0.0
H781 H 0.79132 0.34427 0.27288 0.0
H782 H 0.83432 0.35789 0.31738 0.0
H783 H 0.81722 0.40956 0.29622 0.0
O784 O 0.90448 0.3391 0.24377 0.0
H785 H 0.84826 0.29056 0.22868 0.0
H786 H 0.91112 0.32082 0.20397 0.0
H787 H 0.7543 0.35108 0.29365 0.0
H788 H 0.89954 0.41316 0.30858 0.0
H789 H 0.74868 0.38776 0.31596 0.0
H790 H 0.89084 0.39615 0.34744 0.0
O791 O 0.81679 0.36151 0.23916 0.0
H792 H 0.90878 0.40269 0.19006 0.0
H793 H 0.85774 0.33385 0.18346 0.0
H794 H 0.86589 0.35757 0.14855 0.0
H795 H 0.8916 0.39225 0.15172 0.0
H796 H 0.9 0.37862 0.22457 0.0
H797 H 0.92108 0.28436 0.18347 0.0
H798 H 0.89408 0.25058 0.18549 0.0
O799 O 0.83851 0.33337 0.22284 0.0
C800 C 0.84748 0.31966 0.27653 0.0
C801 C 0.8693 0.26846 0.20723 0.0
C802 C 0.90503 0.28559 0.19331 0.0
N803 N 0.87902 0.30788 0.21732 0.0
C804 C 0.86416 0.28932 0.21867 0.0
C805 C 0.89932 0.30617 0.20498 0.0
C806 C 0.88988 0.26664 0.19445 0.0
C807 C 0.87153 0.39481 0.29155 0.0
N808 N 0.85348 0.37948 0.29406 0.0
C809 C 0.88523 0.40105 0.31068 0.0
C810 C 0.88036 0.39148 0.33247 0.0
C811 C 0.86193 0.37584 0.33487 0.0
C812 C 0.84863 0.36998 0.31536 0.0
C813 C 0.78267 0.40111 0.30747 0.0
C814 C 0.78905 0.36021 0.28267 0.0
C815 C 0.80346 0.39672 0.29559 0.0
N816 N 0.80647 0.37641 0.28352 0.0
C817 C 0.76803 0.364 0.29434 0.0
C818 C 0.76488 0.38459 0.30683 0.0
C819 C 0.81962 0.34493 0.22464 0.0
C820 C 0.8976 0.38758 0.18844 0.0
C821 C 0.86888 0.34896 0.18501 0.0
C822 C 0.87348 0.36229 0.16516 0.0
C823 C 0.88793 0.38173 0.16694 0.0
N824 N 0.87845 0.3548 0.20603 0.0
C825 C 0.89265 0.37382 0.20791 0.0
Co826 Co 0.16159 0.37004 0.7342 0.0
Co827 Co 0.12632 0.33581 0.76812 0.0
O828 O 0.13271 0.36447 0.75109 0.0
C829 C 0.15718 0.41175 0.76426 0.0
O830 O 0.15466 0.39802 0.7824 0.0
C831 C 0.08533 0.3408 0.73733 0.0
O832 O 0.09963 0.34304 0.7196 0.0
O833 O 0.13408 0.31665 0.74029 0.0
O834 O 0.16313 0.33696 0.72377 0.0
H835 H 0.14188 0.25389 0.79487 0.0
H836 H 0.12045 0.40006 0.72538 0.0
O837 O 0.1605 0.40326 0.74405 0.0
H838 H 0.13956 0.36472 0.64939 0.0
H839 H 0.21535 0.41692 0.68309 0.0
H840 H 0.20637 0.34479 0.72897 0.0
H841 H 0.16328 0.35595 0.68414 0.0
H842 H 0.17871 0.40877 0.70406 0.0
O843 O 0.09322 0.33758 0.75782 0.0
H844 H 0.15039 0.29044 0.77389 0.0
H845 H 0.08691 0.31988 0.79798 0.0
H846 H 0.24324 0.35216 0.70814 0.0
H847 H 0.0964 0.40947 0.69102 0.0
H848 H 0.24789 0.38845 0.68498 0.0
H849 H 0.10587 0.39169 0.6527 0.0
O850 O 0.18034 0.36207 0.76226 0.0
H851 H 0.08804 0.40224 0.81043 0.0
H852 H 0.13997 0.33422 0.81829 0.0
H853 H 0.13148 0.35844 0.85277 0.0
H854 H 0.10531 0.39271 0.84897 0.0
H855 H 0.09714 0.37767 0.77636 0.0
H856 H 0.07761 0.28358 0.81908 0.0
H857 H 0.10526 0.2503 0.81767 0.0
O858 O 0.15932 0.33354 0.77885 0.0
C859 C 0.15071 0.31865 0.72567 0.0
C860 C 0.12973 0.2683 0.79569 0.0
C861 C 0.09365 0.28495 0.80925 0.0
N862 N 0.11928 0.30734 0.78491 0.0
C863 C 0.13449 0.28906 0.7839 0.0
C864 C 0.09899 0.30545 0.79724 0.0
C865 C 0.10917 0.26629 0.80846 0.0
C866 C 0.12482 0.39242 0.70872 0.0
N867 N 0.14332 0.37756 0.70676 0.0
C868 C 0.11108 0.39774 0.68934 0.0
C869 C 0.11638 0.38773 0.66786 0.0
C870 C 0.13527 0.37259 0.66599 0.0
C871 C 0.1486 0.36765 0.68574 0.0
C872 C 0.21351 0.40102 0.69308 0.0
C873 C 0.20822 0.36056 0.71882 0.0
C874 C 0.19283 0.39634 0.70502 0.0
N875 N 0.19034 0.37623 0.71755 0.0
C876 C 0.22916 0.36466 0.70711 0.0
C877 C 0.23176 0.38504 0.69414 0.0
C878 C 0.17796 0.34549 0.77689 0.0
C879 C 0.09941 0.38732 0.81233 0.0
C880 C 0.12861 0.34914 0.81648 0.0
C881 C 0.12383 0.36276 0.83608 0.0
C882 C 0.10914 0.38198 0.83393 0.0
N883 N 0.11897 0.35447 0.79535 0.0
C884 C 0.10456 0.37329 0.79311 0.0
Co885 Co 0.12566 0.65997 0.22854 0.0
Co886 Co 0.16037 0.62519 0.26243 0.0
O887 O 0.13158 0.63123 0.24556 0.0
C888 C 0.08471 0.65569 0.25941 0.0
O889 O 0.09902 0.65314 0.27708 0.0
C890 C 0.15546 0.58336 0.23252 0.0
O891 O 0.15374 0.59695 0.21418 0.0
O892 O 0.17921 0.63273 0.2343 0.0
O893 O 0.15866 0.66162 0.21776 0.0
H894 H 0.24244 0.64147 0.28819 0.0
H895 H 0.09579 0.6186 0.22037 0.0
O896 O 0.09258 0.6588 0.2389 0.0
H897 H 0.13012 0.63737 0.14384 0.0
H898 H 0.07779 0.71312 0.17774 0.0
H899 H 0.15057 0.70488 0.22267 0.0
H900 H 0.13919 0.66136 0.17833 0.0
H901 H 0.08647 0.67663 0.19878 0.0
O902 O 0.15856 0.59196 0.25272 0.0
H903 H 0.20567 0.64954 0.26746 0.0
H904 H 0.17676 0.58622 0.29266 0.0
H905 H 0.14267 0.7416 0.20175 0.0
H906 H 0.0861 0.59425 0.1863 0.0
H907 H 0.10605 0.74588 0.17908 0.0
H908 H 0.10336 0.60356 0.1477 0.0
O909 O 0.1338 0.679 0.25634 0.0
H910 H 0.09448 0.58722 0.30588 0.0
H911 H 0.16243 0.63941 0.31244 0.0
H912 H 0.13859 0.63126 0.34726 0.0
H913 H 0.10436 0.60496 0.34411 0.0
H914 H 0.11866 0.59601 0.27145 0.0
H915 H 0.21328 0.57738 0.31353 0.0
H916 H 0.24641 0.60516 0.31144 0.0
O917 O 0.1626 0.65828 0.27275 0.0
C918 C 0.17708 0.64933 0.21966 0.0
C919 C 0.2281 0.62927 0.28931 0.0
C920 C 0.21174 0.59328 0.3035 0.0
N921 N 0.18902 0.61848 0.27903 0.0
C922 C 0.20722 0.63378 0.27766 0.0
C923 C 0.19113 0.59836 0.29162 0.0
C924 C 0.23032 0.60888 0.30233 0.0
C925 C 0.10322 0.62287 0.2036 0.0
N926 N 0.11794 0.64145 0.20133 0.0
C927 C 0.09773 0.60897 0.18438 0.0
C928 C 0.10745 0.61419 0.16274 0.0
C929 C 0.12247 0.63314 0.16056 0.0
C930 C 0.12759 0.64664 0.18017 0.0
C931 C 0.09383 0.71144 0.18751 0.0
C932 C 0.13467 0.70656 0.21272 0.0
C933 C 0.09882 0.69084 0.19949 0.0
N934 N 0.11911 0.68856 0.21175 0.0
C935 C 0.13026 0.72741 0.20096 0.0
C936 C 0.1097 0.72981 0.18827 0.0
C937 C 0.15045 0.67678 0.27088 0.0
C938 C 0.10939 0.59866 0.30748 0.0
C939 C 0.14752 0.62801 0.3109 0.0
C940 C 0.13412 0.62341 0.3307 0.0
C941 C 0.11492 0.60864 0.32892 0.0
N942 N 0.14201 0.61812 0.28994 0.0
C943 C 0.1232 0.60363 0.28807 0.0
Co944 Co 0.7683 0.87063 0.65816 0.0
Co945 Co 0.72794 0.838 0.62753 0.0
O946 O 0.74806 0.86514 0.63141 0.0
C947 C 0.73735 0.91193 0.65716 0.0
O948 O 0.71948 0.89789 0.65454 0.0
C949 C 0.7589 0.83737 0.58634 0.0
O950 O 0.77641 0.84264 0.60007 0.0
O951 O 0.75317 0.81627 0.63758 0.0
O952 O 0.77914 0.83777 0.65756 0.0
H953 H 0.69083 0.76239 0.65152 0.0
H954 H 0.77108 0.90137 0.61667 0.0
O955 O 0.75788 0.90376 0.65914 0.0
H956 H 0.84955 0.86743 0.62514 0.0
H957 H 0.82506 0.91753 0.7059 0.0
H958 H 0.78023 0.84436 0.70105 0.0
H959 H 0.81843 0.85778 0.65318 0.0
H960 H 0.79958 0.90972 0.67216 0.0
O961 O 0.73846 0.83482 0.59457 0.0
H962 H 0.71613 0.7968 0.65642 0.0
H963 H 0.69675 0.8215 0.58938 0.0
H964 H 0.80564 0.85138 0.735 0.0
H965 H 0.80172 0.91165 0.58835 0.0
H966 H 0.82827 0.88819 0.73758 0.0
H967 H 0.84127 0.89456 0.59244 0.0
O968 O 0.74311 0.86189 0.68057 0.0
H969 H 0.69443 0.90513 0.58236 0.0
H970 H 0.67778 0.84355 0.63995 0.0
H971 H 0.6466 0.87087 0.62859 0.0
H972 H 0.65485 0.90192 0.59957 0.0
H973 H 0.72514 0.87756 0.59438 0.0
H974 H 0.67139 0.78726 0.58366 0.0
H975 H 0.66825 0.75746 0.61491 0.0
O976 O 0.71712 0.84067 0.66027 0.0
C977 C 0.77192 0.81845 0.64935 0.0
C978 C 0.69201 0.77529 0.6378 0.0
C979 C 0.68113 0.78922 0.5997 0.0
N980 N 0.70781 0.81119 0.62326 0.0
C981 C 0.70626 0.79483 0.6405 0.0
C982 C 0.69556 0.80854 0.60301 0.0
C983 C 0.67936 0.77252 0.61725 0.0
C984 C 0.7883 0.89402 0.61869 0.0
N985 N 0.79297 0.87901 0.63659 0.0
C986 C 0.80555 0.89984 0.60255 0.0
C987 C 0.82773 0.89022 0.60483 0.0
C988 C 0.83238 0.87498 0.62316 0.0
C989 C 0.81467 0.86952 0.63895 0.0
C990 C 0.8153 0.90142 0.70497 0.0
C991 C 0.79011 0.86037 0.702 0.0
C992 C 0.80079 0.89693 0.68594 0.0
N993 N 0.78851 0.87656 0.6846 0.0
C994 C 0.80443 0.86427 0.72129 0.0
C995 C 0.8171 0.88494 0.72273 0.0
C996 C 0.72436 0.85 0.67907 0.0
C997 C 0.69061 0.89165 0.59499 0.0
C998 C 0.68152 0.85708 0.6274 0.0
C999 C 0.66378 0.87245 0.62098 0.0
C1000 C 0.66841 0.88986 0.60468 0.0
N1001 N 0.70324 0.85894 0.61782 0.0
C1002 C 0.70791 0.87594 0.60181 0.0
Co1003 Co 0.66229 0.23059 0.12629 0.0
Co1004 Co 0.62715 0.26596 0.15925 0.0
O1005 O 0.63372 0.24823 0.13105 0.0
C1006 C 0.66012 0.2605 0.08437 0.0
O1007 O 0.65769 0.27867 0.09807 0.0
C1008 C 0.58543 0.23599 0.15437 0.0
O1009 O 0.59915 0.21772 0.15315 0.0
O1010 O 0.63415 0.23844 0.17922 0.0
O1011 O 0.66281 0.22057 0.1595 0.0
H1012 H 0.64183 0.29423 0.24083 0.0
H1013 H 0.62165 0.22253 0.09541 0.0
O1014 O 0.66229 0.24015 0.09294 0.0
H1015 H 0.63794 0.14646 0.13196 0.0
H1016 H 0.7158 0.17773 0.08112 0.0
H1017 H 0.70632 0.22445 0.15264 0.0
H1018 H 0.66235 0.18068 0.14093 0.0
H1019 H 0.67951 0.19964 0.08825 0.0
O1020 O 0.5939 0.25631 0.1571 0.0
H1021 H 0.65058 0.27233 0.20489 0.0
H1022 H 0.58803 0.29685 0.17386 0.0
H1023 H 0.74282 0.20267 0.14629 0.0
H1024 H 0.59692 0.18871 0.0858 0.0
H1025 H 0.74773 0.17909 0.11031 0.0
H1026 H 0.60498 0.15035 0.10417 0.0
O1027 O 0.68163 0.25821 0.13441 0.0
H1028 H 0.59082 0.30748 0.09123 0.0
H1029 H 0.64165 0.3159 0.16001 0.0
H1030 H 0.63419 0.34999 0.13492 0.0
H1031 H 0.60857 0.34591 0.10027 0.0
H1032 H 0.59889 0.27379 0.11667 0.0
H1033 H 0.57851 0.31888 0.20954 0.0
H1034 H 0.60556 0.31772 0.24331 0.0
O1035 O 0.66025 0.27612 0.16184 0.0
C1036 C 0.65042 0.22337 0.17773 0.0
C1037 C 0.62994 0.29494 0.22621 0.0
C1038 C 0.59439 0.30876 0.20865 0.0
N1039 N 0.61994 0.2835 0.18723 0.0
C1040 C 0.63484 0.28264 0.20578 0.0
C1041 C 0.59985 0.29622 0.18851 0.0
C1042 C 0.60958 0.3081 0.22759 0.0
C1043 C 0.62538 0.20585 0.10333 0.0
N1044 N 0.64349 0.20356 0.11862 0.0
C1045 C 0.61127 0.18678 0.09788 0.0
C1046 C 0.61578 0.16527 0.10822 0.0
C1047 C 0.63426 0.16308 0.12383 0.0
C1048 C 0.64799 0.18253 0.12888 0.0
C1049 C 0.71385 0.1879 0.09689 0.0
C1050 C 0.70827 0.21411 0.13701 0.0
C1051 C 0.69336 0.20037 0.101 0.0
N1052 N 0.69074 0.21314 0.12094 0.0
C1053 C 0.72901 0.20187 0.13348 0.0
C1054 C 0.73176 0.18866 0.11328 0.0
C1055 C 0.67914 0.27337 0.15047 0.0
C1056 C 0.60195 0.3095 0.10631 0.0
C1057 C 0.63054 0.31396 0.14493 0.0
C1058 C 0.62634 0.33334 0.13081 0.0
C1059 C 0.61195 0.33104 0.11138 0.0
N1060 N 0.62063 0.2929 0.13987 0.0
C1061 C 0.60652 0.2905 0.12084 0.0
Co1062 Co 0.23001 0.12695 0.65822 0.0
Co1063 Co 0.26292 0.16357 0.62428 0.0
O1064 O 0.24661 0.13422 0.62948 0.0
C1065 C 0.26133 0.0863 0.65263 0.0
O1066 O 0.27915 0.10058 0.65112 0.0
C1067 C 0.23212 0.15895 0.58325 0.0
O1068 O 0.21499 0.15349 0.59739 0.0
O1069 O 0.23477 0.18164 0.6332 0.0
O1070 O 0.21868 0.15965 0.66127 0.0
H1071 H 0.28801 0.24513 0.64389 0.0
H1072 H 0.22179 0.09818 0.61605 0.0
O1073 O 0.24081 0.09411 0.65569 0.0
H1074 H 0.14504 0.13085 0.63666 0.0
H1075 H 0.18064 0.07626 0.71012 0.0
H1076 H 0.22435 0.15002 0.70413 0.0
H1077 H 0.17964 0.1397 0.66055 0.0
H1078 H 0.20107 0.08667 0.67374 0.0
O1079 O 0.25232 0.16348 0.59122 0.0
H1080 H 0.2679 0.20774 0.65063 0.0
H1081 H 0.29214 0.18216 0.58553 0.0
H1082 H 0.20405 0.14039 0.74078 0.0
H1083 H 0.1876 0.08871 0.59181 0.0
H1084 H 0.18199 0.10327 0.74394 0.0
H1085 H 0.14889 0.10515 0.60203 0.0
O1086 O 0.25789 0.13487 0.67724 0.0
H1087 H 0.3061 0.1 0.58232 0.0
H1088 H 0.31322 0.16559 0.6374 0.0
H1089 H 0.34806 0.14255 0.62734 0.0
H1090 H 0.34463 0.10951 0.59958 0.0
H1091 H 0.27166 0.12339 0.59301 0.0
H1092 H 0.31236 0.21935 0.57799 0.0
H1093 H 0.31045 0.25111 0.60734 0.0
O1094 O 0.274 0.16435 0.6572 0.0
C1095 C 0.22024 0.17858 0.64973 0.0
C1096 C 0.28904 0.2314 0.631 0.0
C1097 C 0.30268 0.21694 0.594 0.0
N1098 N 0.27901 0.19273 0.61858 0.0
C1099 C 0.27774 0.21017 0.63475 0.0
C1100 C 0.29116 0.19594 0.59834 0.0
C1101 C 0.30161 0.23475 0.61048 0.0
C1102 C 0.20497 0.10522 0.62075 0.0
N1103 N 0.20271 0.1194 0.63975 0.0
C1104 C 0.18568 0.09987 0.6069 0.0
C1105 C 0.16398 0.10914 0.61262 0.0
C1106 C 0.16181 0.12357 0.63203 0.0
C1107 C 0.18148 0.12857 0.64546 0.0
C1108 C 0.19014 0.09252 0.70894 0.0
C1109 C 0.21466 0.13391 0.70532 0.0
C1110 C 0.20177 0.09848 0.6884 0.0
N1111 N 0.21369 0.11904 0.68675 0.0
C1112 C 0.20326 0.12852 0.72614 0.0
C1113 C 0.1909 0.10768 0.72791 0.0
C1114 C 0.27235 0.15164 0.67535 0.0
C1115 C 0.30783 0.1144 0.59438 0.0
C1116 C 0.31157 0.15121 0.62535 0.0
C1117 C 0.33137 0.13825 0.61968 0.0
C1118 C 0.32944 0.11972 0.6041 0.0
N1119 N 0.29044 0.14591 0.61571 0.0
C1120 C 0.28841 0.12775 0.60044 0.0
Co1121 Co 0.33659 0.76565 0.1282 0.0
Co1122 Co 0.37058 0.73204 0.16425 0.0
O1123 O 0.36532 0.74889 0.13519 0.0
C1124 C 0.34242 0.73462 0.0874 0.0
O1125 O 0.34494 0.71696 0.10174 0.0
C1126 C 0.41148 0.76312 0.16026 0.0
O1127 O 0.39736 0.7802 0.15459 0.0
O1128 O 0.36153 0.7598 0.18285 0.0
O1129 O 0.33383 0.77675 0.16105 0.0
H1130 H 0.35103 0.70531 0.24533 0.0
H1131 H 0.37853 0.77391 0.09914 0.0
O1132 O 0.33879 0.75506 0.09523 0.0
H1133 H 0.35861 0.8505 0.13263 0.0
H1134 H 0.28464 0.81579 0.07835 0.0
H1135 H 0.29089 0.77133 0.15165 0.0
H1136 H 0.33463 0.81594 0.14141 0.0
H1137 H 0.32095 0.79503 0.08828 0.0
O1138 O 0.40356 0.74284 0.16449 0.0
H1139 H 0.34424 0.72613 0.20832 0.0
H1140 H 0.40942 0.70263 0.1823 0.0
H1141 H 0.25432 0.79197 0.14249 0.0
H1142 H 0.40285 0.80807 0.08973 0.0
H1143 H 0.25104 0.81441 0.1056 0.0
H1144 H 0.39297 0.8467 0.10658 0.0
O1145 O 0.31748 0.73778 0.13597 0.0
H1146 H 0.41293 0.69035 0.09995 0.0
H1147 H 0.35764 0.68165 0.16519 0.0
H1148 H 0.3679 0.64733 0.14143 0.0
H1149 H 0.39575 0.65156 0.10856 0.0
H1150 H 0.40204 0.72425 0.12404 0.0
H1151 H 0.41701 0.68171 0.2191 0.0
H1152 H 0.38764 0.6829 0.25089 0.0
O1153 O 0.33773 0.72078 0.16479 0.0
C1154 C 0.34527 0.77466 0.17998 0.0
C1155 C 0.36393 0.7046 0.23158 0.0
C1156 C 0.40097 0.69137 0.21687 0.0
N1157 N 0.37632 0.71541 0.19311 0.0
C1158 C 0.36015 0.71629 0.21056 0.0
C1159 C 0.39659 0.70328 0.19609 0.0
C1160 C 0.38448 0.69204 0.23469 0.0
C1161 C 0.37399 0.7907 0.10636 0.0
N1162 N 0.35513 0.79293 0.12074 0.0
C1163 C 0.38788 0.80997 0.10105 0.0
C1164 C 0.38235 0.83162 0.11054 0.0
C1165 C 0.36309 0.83377 0.12517 0.0
C1166 C 0.34961 0.81411 0.13014 0.0
C1167 C 0.28588 0.80612 0.0945 0.0
C1168 C 0.28964 0.78118 0.13564 0.0
C1169 C 0.30638 0.7943 0.1002 0.0
N1170 N 0.3081 0.78217 0.12063 0.0
C1171 C 0.26887 0.79278 0.13051 0.0
C1172 C 0.26703 0.80534 0.1098 0.0
C1173 C 0.31948 0.72285 0.15231 0.0
C1174 C 0.40082 0.68827 0.11427 0.0
C1175 C 0.36973 0.68364 0.15088 0.0
C1176 C 0.37551 0.66414 0.13752 0.0
C1177 C 0.39116 0.66652 0.11909 0.0
N1178 N 0.37933 0.70491 0.14607 0.0
C1179 C 0.39467 0.70739 0.12803 0.0
Co1180 Co 0.73331 0.16175 0.37125 0.0
Co1181 Co 0.7658 0.12741 0.3346 0.0
O1182 O 0.74924 0.13263 0.36382 0.0
C1183 C 0.76369 0.15451 0.41252 0.0
O1184 O 0.78178 0.15259 0.39862 0.0
C1185 C 0.73384 0.08716 0.33785 0.0
O1186 O 0.71715 0.10149 0.34413 0.0
O1187 O 0.73809 0.13723 0.31638 0.0
O1188 O 0.72245 0.16555 0.33838 0.0
H1189 H 0.79226 0.1476 0.25359 0.0
H1190 H 0.72349 0.11947 0.39936 0.0
O1191 O 0.74349 0.15847 0.40428 0.0
H1192 H 0.64783 0.14261 0.36584 0.0
H1193 H 0.68455 0.21431 0.42184 0.0
H1194 H 0.72927 0.20808 0.3487 0.0
H1195 H 0.68321 0.16563 0.35779 0.0
H1196 H 0.70417 0.17754 0.41129 0.0
O1197 O 0.75431 0.09468 0.33384 0.0
H1198 H 0.77194 0.15429 0.29088 0.0
H1199 H 0.79424 0.08822 0.31572 0.0
H1200 H 0.70979 0.24513 0.35848 0.0
H1201 H 0.6885 0.0961 0.40805 0.0
H1202 H 0.68722 0.2484 0.39528 0.0
H1203 H 0.65034 0.10759 0.39118 0.0
O1204 O 0.76183 0.18011 0.36399 0.0
H1205 H 0.80702 0.08321 0.39792 0.0
H1206 H 0.81645 0.13925 0.33342 0.0
H1207 H 0.85072 0.12782 0.35669 0.0
H1208 H 0.84613 0.09958 0.38918 0.0
H1209 H 0.77318 0.09525 0.3743 0.0
H1210 H 0.81465 0.08073 0.27862 0.0
H1211 H 0.81382 0.11059 0.24728 0.0
O1212 O 0.77773 0.16002 0.33445 0.0
C1213 C 0.72387 0.15401 0.31944 0.0
C1214 C 0.79283 0.13449 0.26714 0.0
C1215 C 0.80537 0.09695 0.28118 0.0
N1216 N 0.7821 0.12176 0.30553 0.0
C1217 C 0.78141 0.13821 0.28832 0.0
C1218 C 0.79375 0.10127 0.30213 0.0
C1219 C 0.8049 0.11371 0.26361 0.0
C1220 C 0.70691 0.12472 0.39214 0.0
N1221 N 0.7054 0.14395 0.37815 0.0
C1222 C 0.68717 0.11136 0.39704 0.0
C1223 C 0.66577 0.11779 0.38754 0.0
C1224 C 0.66436 0.13743 0.3733 0.0
C1225 C 0.68447 0.15036 0.36875 0.0
C1226 C 0.69428 0.21308 0.40572 0.0
C1227 C 0.71935 0.20933 0.36467 0.0
C1228 C 0.70546 0.19232 0.39968 0.0
N1229 N 0.71766 0.19061 0.37929 0.0
C1230 C 0.70842 0.23037 0.37015 0.0
C1231 C 0.69578 0.2322 0.39081 0.0
C1232 C 0.77641 0.17806 0.34734 0.0
C1233 C 0.80926 0.09548 0.38377 0.0
C1234 C 0.81429 0.127 0.34757 0.0
C1235 C 0.83378 0.12056 0.36066 0.0
C1236 C 0.83119 0.1047 0.37887 0.0
N1237 N 0.79285 0.11783 0.35244 0.0
C1238 C 0.79018 0.1023 0.37029 0.0
Co1239 Co 0.37178 0.26328 0.83216 0.0
Co1240 Co 0.33838 0.22932 0.86834 0.0
O1241 O 0.36685 0.2465 0.8613 0.0
C1242 C 0.41343 0.23321 0.83627 0.0
O1243 O 0.39971 0.21573 0.84169 0.0
C1244 C 0.34366 0.26017 0.90944 0.0
O1245 O 0.34528 0.27812 0.89533 0.0
O1246 O 0.3189 0.25701 0.86078 0.0
O1247 O 0.33868 0.27377 0.83149 0.0
H1248 H 0.25637 0.20205 0.85438 0.0
H1249 H 0.4029 0.27206 0.87243 0.0
O1250 O 0.40502 0.25329 0.83208 0.0
H1251 H 0.36716 0.34809 0.85431 0.0
H1252 H 0.41717 0.31427 0.77702 0.0
H1253 H 0.34541 0.26828 0.788 0.0
H1254 H 0.35774 0.31337 0.8308 0.0
H1255 H 0.40996 0.29349 0.81397 0.0
O1256 O 0.34067 0.23972 0.90138 0.0
H1257 H 0.29263 0.22319 0.84512 0.0
H1258 H 0.32332 0.19954 0.9082 0.0
H1259 H 0.35183 0.28893 0.75084 0.0
H1260 H 0.41296 0.30639 0.89628 0.0
H1261 H 0.38793 0.31213 0.74517 0.0
H1262 H 0.39499 0.34473 0.8873 0.0
O1263 O 0.36339 0.2352 0.81372 0.0
H1264 H 0.40542 0.18752 0.90612 0.0
H1265 H 0.33694 0.17909 0.85489 0.0
H1266 H 0.36141 0.14477 0.86331 0.0
H1267 H 0.39591 0.14887 0.88912 0.0
H1268 H 0.38062 0.22143 0.89707 0.0
H1269 H 0.28733 0.17828 0.91823 0.0
H1270 H 0.25357 0.17938 0.89116 0.0
O1271 O 0.33556 0.21837 0.83545 0.0
C1272 C 0.32055 0.27169 0.84416 0.0
C1273 C 0.27099 0.20136 0.86627 0.0
C1274 C 0.28836 0.18805 0.90212 0.0
N1275 N 0.31014 0.21241 0.87599 0.0
C1276 C 0.29159 0.21324 0.86109 0.0
C1277 C 0.30868 0.20015 0.89636 0.0
C1278 C 0.26943 0.18867 0.88692 0.0
C1279 C 0.39517 0.28873 0.86829 0.0
N1280 N 0.37985 0.29073 0.85017 0.0
C1281 C 0.40086 0.30809 0.88191 0.0
C1282 C 0.39075 0.32959 0.87688 0.0
C1283 C 0.37512 0.33148 0.85838 0.0
C1284 C 0.36981 0.31175 0.84516 0.0
C1285 C 0.40135 0.30426 0.7793 0.0
C1286 C 0.36109 0.27846 0.78571 0.0
C1287 C 0.39719 0.29242 0.80016 0.0
N1288 N 0.37719 0.27985 0.8032 0.0
C1289 C 0.36466 0.29006 0.76461 0.0
C1290 C 0.38493 0.30306 0.76144 0.0
C1291 C 0.34709 0.22037 0.81656 0.0
C1292 C 0.3904 0.1855 0.8949 0.0
C1293 C 0.35198 0.18104 0.86607 0.0
C1294 C 0.36573 0.16153 0.87082 0.0
C1295 C 0.38507 0.16383 0.88533 0.0
N1296 N 0.3573 0.20224 0.87554 0.0
C1297 C 0.37623 0.20462 0.88979 0.0
Co1298 Co 0.26317 0.83141 0.37289 0.0
Co1299 Co 0.22984 0.86822 0.33951 0.0
O1300 O 0.24672 0.86074 0.36804 0.0
C1301 C 0.23246 0.83546 0.414 0.0
O1302 O 0.21532 0.84109 0.39994 0.0
C1303 C 0.26127 0.90877 0.34517 0.0
O1304 O 0.27901 0.8944 0.34673 0.0
O1305 O 0.2575 0.86039 0.32012 0.0
O1306 O 0.2741 0.83103 0.33993 0.0
H1307 H 0.20294 0.8553 0.25717 0.0
H1308 H 0.27183 0.87127 0.40458 0.0
O1309 O 0.25266 0.83108 0.40596 0.0
H1310 H 0.34819 0.85289 0.36974 0.0
H1311 H 0.31301 0.77539 0.41844 0.0
H1312 H 0.2683 0.78754 0.34605 0.0
H1313 H 0.31342 0.82979 0.35955 0.0
H1314 H 0.29258 0.81255 0.41135 0.0
O1315 O 0.24071 0.90105 0.34211 0.0
H1316 H 0.22367 0.84545 0.29352 0.0
H1317 H 0.20075 0.90861 0.32457 0.0
H1318 H 0.28861 0.75018 0.35234 0.0
H1319 H 0.3062 0.89471 0.41541 0.0
H1320 H 0.31117 0.74393 0.38875 0.0
H1321 H 0.34471 0.88559 0.39789 0.0
O1322 O 0.23509 0.81326 0.36388 0.0
H1323 H 0.18821 0.90605 0.40665 0.0
H1324 H 0.17944 0.8555 0.33768 0.0
H1325 H 0.14513 0.86418 0.36205 0.0
H1326 H 0.14939 0.88965 0.3968 0.0
H1327 H 0.22211 0.89676 0.38193 0.0
H1328 H 0.17991 0.91923 0.2885 0.0
H1329 H 0.18085 0.89243 0.25451 0.0
O1330 O 0.21845 0.83554 0.33638 0.0
C1331 C 0.27214 0.84375 0.32182 0.0
C1332 C 0.20232 0.86708 0.2719 0.0
C1333 C 0.18942 0.90298 0.28947 0.0
N1334 N 0.21322 0.87632 0.31122 0.0
C1335 C 0.21397 0.86156 0.29254 0.0
C1336 C 0.20128 0.89688 0.30983 0.0
C1337 C 0.18995 0.88793 0.2704 0.0
C1338 C 0.28857 0.86708 0.39704 0.0
N1339 N 0.29063 0.84911 0.38155 0.0
C1340 C 0.30795 0.88046 0.40317 0.0
C1341 C 0.32955 0.87535 0.39331 0.0
C1342 C 0.33151 0.85701 0.3775 0.0
C1343 C 0.31174 0.84403 0.37176 0.0
C1344 C 0.30327 0.77792 0.40248 0.0
C1345 C 0.27819 0.78499 0.36188 0.0
C1346 C 0.29164 0.7989 0.39839 0.0
N1347 N 0.27942 0.80227 0.37822 0.0
C1348 C 0.28961 0.76378 0.36537 0.0
C1349 C 0.30224 0.76028 0.38582 0.0
C1350 C 0.22032 0.81646 0.3476 0.0
C1351 C 0.18611 0.89499 0.39151 0.0
C1352 C 0.18146 0.86653 0.35282 0.0
C1353 C 0.16195 0.87143 0.36652 0.0
C1354 C 0.16435 0.88575 0.386 0.0
N1355 N 0.20275 0.87568 0.35833 0.0
C1356 C 0.20523 0.88974 0.37739 0.0
Co1357 Co 0.62614 0.73073 0.83219 0.0
Co1358 Co 0.65896 0.76475 0.86892 0.0
O1359 O 0.63083 0.74736 0.8614 0.0
C1360 C 0.58476 0.7612 0.83583 0.0
O1361 O 0.59873 0.77893 0.83957 0.0
C1362 C 0.65388 0.73302 0.90946 0.0
O1363 O 0.65308 0.71513 0.89521 0.0
O1364 O 0.67892 0.73749 0.86075 0.0
O1365 O 0.6591 0.72007 0.83184 0.0
H1366 H 0.74047 0.79383 0.85571 0.0
H1367 H 0.59463 0.72204 0.87225 0.0
O1368 O 0.59301 0.74095 0.83212 0.0
H1369 H 0.62987 0.64581 0.85404 0.0
H1370 H 0.58065 0.68041 0.77655 0.0
H1371 H 0.65299 0.72527 0.78835 0.0
H1372 H 0.63981 0.68057 0.83079 0.0
H1373 H 0.58773 0.70113 0.81355 0.0
O1374 O 0.6566 0.7536 0.90167 0.0
H1375 H 0.70454 0.77239 0.84584 0.0
H1376 H 0.67356 0.79355 0.90966 0.0
H1377 H 0.64672 0.70467 0.75114 0.0
H1378 H 0.58406 0.68768 0.89583 0.0
H1379 H 0.61032 0.68204 0.74506 0.0
H1380 H 0.60178 0.64923 0.8868 0.0
O1381 O 0.63507 0.75874 0.81377 0.0
H1382 H 0.59048 0.80422 0.90662 0.0
H1383 H 0.6601 0.81553 0.85757 0.0
H1384 H 0.6349 0.84915 0.86655 0.0
H1385 H 0.59981 0.84361 0.89129 0.0
H1386 H 0.61602 0.77104 0.897 0.0
H1387 H 0.70922 0.81507 0.9203 0.0
H1388 H 0.74295 0.81537 0.89318 0.0
O1389 O 0.66163 0.77657 0.83635 0.0
C1390 C 0.67728 0.72253 0.84436 0.0
C1391 C 0.72585 0.7939 0.86763 0.0
C1392 C 0.70833 0.80579 0.9039 0.0
N1393 N 0.68692 0.78189 0.87706 0.0
C1394 C 0.70545 0.78185 0.86211 0.0
C1395 C 0.6882 0.79354 0.8978 0.0
C1396 C 0.72725 0.80596 0.88867 0.0
C1397 C 0.60226 0.70533 0.86809 0.0
N1398 N 0.61771 0.7033 0.85008 0.0
C1399 C 0.59628 0.68596 0.88156 0.0
C1400 C 0.60624 0.66439 0.8765 0.0
C1401 C 0.62202 0.66246 0.85813 0.0
C1402 C 0.62761 0.68222 0.84506 0.0
C1403 C 0.5966 0.69018 0.779 0.0
C1404 C 0.63718 0.71534 0.78588 0.0
C1405 C 0.60068 0.70199 0.7999 0.0
N1406 N 0.62083 0.71425 0.80316 0.0
C1407 C 0.63369 0.70377 0.76476 0.0
C1408 C 0.61326 0.69109 0.76135 0.0
C1409 C 0.65075 0.77415 0.81712 0.0
C1410 C 0.60573 0.80686 0.89585 0.0
C1411 C 0.64479 0.81295 0.86821 0.0
C1412 C 0.63063 0.83207 0.87332 0.0
C1413 C 0.61096 0.82895 0.88722 0.0
N1414 N 0.63955 0.79133 0.87673 0.0
C1415 C 0.62031 0.78815 0.8904 0.0
H1416 H 0.16022 0.55644 0.19303 0.0
H1417 H 0.14737 0.55249 0.26718 0.0
H1418 H 0.1616 0.51365 0.19122 0.0
H1419 H 0.14828 0.51038 0.26526 0.0
H1420 H 0.18137 0.44087 0.26269 0.0
H1421 H 0.18029 0.48293 0.25898 0.0
H1422 H 0.1375 0.47673 0.19734 0.0
H1423 H 0.139 0.43407 0.20079 0.0
C1424 C 0.15744 0.54647 0.20882 0.0
C1425 C 0.15414 0.55779 0.23031 0.0
C1426 C 0.15817 0.52206 0.20777 0.0
C1427 C 0.15556 0.50875 0.2282 0.0
C1428 C 0.15104 0.52017 0.24935 0.0
C1429 C 0.15044 0.54434 0.25042 0.0
C1430 C 0.17184 0.44839 0.24823 0.0
C1431 C 0.15996 0.43422 0.23224 0.0
C1432 C 0.17117 0.47251 0.24614 0.0
C1433 C 0.15838 0.4831 0.22817 0.0
C1434 C 0.14745 0.46898 0.21139 0.0
C1435 C 0.14827 0.44464 0.21339 0.0
H1436 H 0.94598 0.66527 0.77077 0.0
H1437 H 0.93752 0.65821 0.69619 0.0
H1438 H 0.98779 0.66523 0.76617 0.0
H1439 H 0.98005 0.65871 0.69154 0.0
H1440 H 0.0586 0.6333 0.7028 0.0
H1441 H 0.01584 0.63522 0.70112 0.0
H1442 H 0.01673 0.69171 0.75093 0.0
H1443 H 0.05886 0.68921 0.75319 0.0
C1444 C 0.95303 0.6639 0.7533 0.0
C1445 C 0.93837 0.662 0.7338 0.0
C1446 C 0.97709 0.66401 0.75066 0.0
C1447 C 0.98723 0.66241 0.72844 0.0
C1448 C 0.97268 0.66002 0.70887 0.0
C1449 C 0.94839 0.65984 0.71153 0.0
C1450 C 0.04954 0.6463 0.71306 0.0
C1451 C 0.06185 0.66079 0.72847 0.0
C1452 C 0.02515 0.64746 0.71207 0.0
C1453 C 0.01294 0.66327 0.7263 0.0
C1454 C 0.02558 0.67888 0.74028 0.0
C1455 C 0.04971 0.6775 0.74152 0.0
H1456 H 0.81736 0.44321 0.26289 0.0
H1457 H 0.85901 0.43713 0.20041 0.0
H1458 H 0.81906 0.4853 0.26009 0.0
H1459 H 0.86107 0.47986 0.19785 0.0
H1460 H 0.85248 0.55428 0.26943 0.0
H1461 H 0.85183 0.5122 0.26648 0.0
H1462 H 0.83677 0.5172 0.19288 0.0
H1463 H 0.83786 0.55995 0.19573 0.0
C1464 C 0.82687 0.4509 0.2485 0.0
C1465 C 0.83837 0.4369 0.23207 0.0
C1466 C 0.82789 0.47503 0.24694 0.0
C1467 C 0.84063 0.48583 0.22906 0.0
C1468 C 0.85118 0.47193 0.21185 0.0
C1469 C 0.85004 0.44756 0.21334 0.0
C1470 C 0.84915 0.54651 0.25253 0.0
C1471 C 0.8448 0.56041 0.23287 0.0
C1472 C 0.8487 0.52237 0.25088 0.0
C1473 C 0.8437 0.51145 0.22957 0.0
C1474 C 0.84057 0.52523 0.20954 0.0
C1475 C 0.84115 0.54962 0.21118 0.0
H1476 H 0.06071 0.34041 0.69613 0.0
H1477 H 0.05228 0.34319 0.77098 0.0
H1478 H 0.01818 0.33904 0.6916 0.0
H1479 H 0.01039 0.34228 0.76643 0.0
H1480 H 0.9406 0.31243 0.75586 0.0
H1481 H 0.98283 0.31223 0.75436 0.0
H1482 H 0.98135 0.36266 0.69844 0.0
H1483 H 0.93853 0.36241 0.69957 0.0
C1484 C 0.04983 0.34089 0.71155 0.0
C1485 C 0.05984 0.34154 0.73392 0.0
C1486 C 0.02554 0.34018 0.70894 0.0
C1487 C 0.01102 0.34009 0.72868 0.0
C1488 C 0.02113 0.34166 0.75091 0.0
C1489 C 0.04519 0.3423 0.7535 0.0
C1490 C 0.94923 0.3233 0.74304 0.0
C1491 C 0.93635 0.33773 0.72808 0.0
C1492 C 0.97343 0.32325 0.74224 0.0
C1493 C 0.98538 0.33786 0.72667 0.0
C1494 C 0.97255 0.35127 0.71065 0.0
C1495 C 0.94812 0.35115 0.71131 0.0
H1496 H 0.1538 0.44334 0.7294 0.0
H1497 H 0.15807 0.43806 0.80447 0.0
H1498 H 0.1544 0.48536 0.73216 0.0
H1499 H 0.15913 0.48081 0.80717 0.0
H1500 H 0.18444 0.5555 0.73912 0.0
H1501 H 0.18469 0.51339 0.7425 0.0
H1502 H 0.13506 0.51732 0.799 0.0
H1503 H 0.13529 0.56007 0.79598 0.0
C1504 C 0.15498 0.45116 0.74655 0.0
C1505 C 0.15627 0.43734 0.76672 0.0
C1506 C 0.15541 0.4753 0.74811 0.0
C1507 C 0.15733 0.48635 0.76985 0.0
C1508 C 0.15773 0.47269 0.79019 0.0
C1509 C 0.1572 0.44829 0.78863 0.0
C1510 C 0.1737 0.54745 0.75241 0.0
C1511 C 0.15951 0.56098 0.76702 0.0
C1512 C 0.17381 0.52332 0.75431 0.0
C1513 C 0.15948 0.51206 0.77064 0.0
C1514 C 0.14624 0.52558 0.78623 0.0
C1515 C 0.14632 0.54996 0.78447 0.0
H1516 H 0.93767 0.6363 0.29713 0.0
H1517 H 0.94061 0.68741 0.2419 0.0
H1518 H 0.98047 0.63522 0.29817 0.0
H1519 H 0.98284 0.68678 0.24334 0.0
H1520 H 0.05152 0.65456 0.22584 0.0
H1521 H 0.00969 0.65629 0.23057 0.0
H1522 H 0.01777 0.65811 0.30541 0.0
H1523 H 0.06025 0.65593 0.30071 0.0
C1524 C 0.94746 0.64762 0.28561 0.0
C1525 C 0.93594 0.66161 0.26914 0.0
C1526 C 0.97187 0.64703 0.28623 0.0
C1527 C 0.98493 0.66054 0.27047 0.0
C1528 C 0.97324 0.67569 0.25523 0.0
C1529 C 0.94905 0.67611 0.25446 0.0
C1530 C 0.04451 0.65532 0.24337 0.0
C1531 C 0.05923 0.65545 0.26291 0.0
C1532 C 0.02049 0.65642 0.24606 0.0
C1533 C 0.01049 0.65783 0.26835 0.0
C1534 C 0.02506 0.65711 0.28803 0.0
C1535 C 0.04931 0.65594 0.28532 0.0
H1536 H 0.83616 0.56012 0.80349 0.0
H1537 H 0.85874 0.55714 0.73168 0.0
H1538 H 0.83566 0.51727 0.80488 0.0
H1539 H 0.85871 0.51496 0.73324 0.0
H1540 H 0.82338 0.44598 0.73097 0.0
H1541 H 0.82545 0.4879 0.73511 0.0
H1542 H 0.86064 0.48005 0.80119 0.0
H1543 H 0.85826 0.43745 0.79721 0.0
C1544 C 0.84136 0.55035 0.7882 0.0
C1545 C 0.84701 0.5619 0.76734 0.0
C1546 C 0.84113 0.5259 0.78901 0.0
C1547 C 0.84664 0.51285 0.769 0.0
C1548 C 0.85374 0.52456 0.74873 0.0
C1549 C 0.85381 0.54874 0.74787 0.0
C1550 C 0.83151 0.45306 0.74646 0.0
C1551 C 0.84096 0.4384 0.76361 0.0
C1552 C 0.83276 0.47713 0.7488 0.0
C1553 C 0.84363 0.48722 0.76825 0.0
C1554 C 0.85221 0.47267 0.786 0.0
C1555 C 0.85089 0.44837 0.78369 0.0
H1556 H 0.93862 0.33948 0.30441 0.0
H1557 H 0.94459 0.34829 0.2298 0.0
H1558 H 0.9813 0.33768 0.30739 0.0
H1559 H 0.98661 0.34693 0.23286 0.0
H1560 H 0.05578 0.31377 0.23887 0.0
H1561 H 0.01365 0.31511 0.24158 0.0
H1562 H 0.01861 0.36111 0.30098 0.0
H1563 H 0.06133 0.35935 0.29857 0.0
C1564 C 0.949 0.34128 0.28875 0.0
C1565 C 0.93826 0.3436 0.26684 0.0
C1566 C 0.97337 0.3403 0.29047 0.0
C1567 C 0.98722 0.34166 0.27029 0.0
C1568 C 0.97639 0.34516 0.24864 0.0
C1569 C 0.95226 0.34603 0.24691 0.0
C1570 C 0.04796 0.32403 0.25266 0.0
C1571 C 0.06181 0.33676 0.26829 0.0
C1572 C 0.0238 0.32486 0.25416 0.0
C1573 C 0.01285 0.33865 0.27116 0.0
C1574 C 0.02663 0.35039 0.28768 0.0
C1575 C 0.05101 0.34941 0.28628 0.0
H1576 H 0.25982 0.17938 0.55102 0.0
H1577 H 0.19705 0.13831 0.5579 0.0
H1578 H 0.25748 0.17617 0.50898 0.0
H1579 H 0.19493 0.13477 0.51526 0.0
H1580 H 0.19356 0.15598 0.43451 0.0
H1581 H 0.19041 0.15806 0.47719 0.0
H1582 H 0.2638 0.14249 0.4831 0.0
H1583 H 0.26704 0.14083 0.44104 0.0
C1584 C 0.24545 0.16969 0.54353 0.0
C1585 C 0.2288 0.1588 0.55776 0.0
C1586 C 0.24416 0.16779 0.51942 0.0
C1587 C 0.22631 0.15479 0.50889 0.0
C1588 C 0.20891 0.14484 0.52297 0.0
C1589 C 0.21014 0.14684 0.54731 0.0
C1590 C 0.20889 0.15275 0.44503 0.0
C1591 C 0.23063 0.1487 0.43447 0.0
C1592 C 0.20708 0.1539 0.46938 0.0
C1593 C 0.22697 0.15095 0.48338 0.0
C1594 C 0.2483 0.14548 0.47274 0.0
C1595 C 0.25013 0.14446 0.44861 0.0
H1596 H 0.31196 0.75274 0.94329 0.0
H1597 H 0.36488 0.6993 0.93997 0.0
H1598 H 0.31212 0.75052 0.98551 0.0
H1599 H 0.36546 0.69747 0.98281 0.0
H1600 H 0.34338 0.69345 0.06264 0.0
H1601 H 0.34194 0.68904 0.02004 0.0
H1602 H 0.34254 0.76394 0.01254 0.0
H1603 H 0.34361 0.76838 0.05442 0.0
C1604 C 0.32356 0.74039 0.95165 0.0
C1605 C 0.33872 0.72648 0.93844 0.0
C1606 C 0.32369 0.73917 0.97583 0.0
C1607 C 0.33921 0.72423 0.98743 0.0
C1608 C 0.35337 0.70917 0.97426 0.0
C1609 C 0.35307 0.71024 0.94983 0.0
C1610 C 0.34329 0.70891 0.0518 0.0
C1611 C 0.34323 0.73126 0.0619 0.0
C1612 C 0.34253 0.70637 0.02749 0.0
C1613 C 0.34165 0.72615 0.01305 0.0
C1614 C 0.34256 0.74837 0.02323 0.0
C1615 C 0.34327 0.7509 0.04729 0.0
H1616 H 0.72306 0.84914 0.4437 0.0
H1617 H 0.79703 0.83639 0.43748 0.0
H1618 H 0.72618 0.8476 0.48575 0.0
H1619 H 0.80006 0.8343 0.48012 0.0
H1620 H 0.794 0.8561 0.55975 0.0
H1621 H 0.79573 0.85758 0.51703 0.0
H1622 H 0.7329 0.81625 0.51333 0.0
H1623 H 0.73087 0.81527 0.55554 0.0
C1624 C 0.74003 0.84594 0.45133 0.0
C1625 C 0.75975 0.84253 0.43726 0.0
C1626 C 0.74179 0.84494 0.47546 0.0
C1627 C 0.76327 0.8403 0.48622 0.0
C1628 C 0.78327 0.83784 0.47227 0.0
C1629 C 0.78153 0.83898 0.44792 0.0
C1630 C 0.78078 0.8471 0.54971 0.0
C1631 C 0.76211 0.83588 0.5609 0.0
C1632 C 0.78179 0.84792 0.52531 0.0
C1633 C 0.76418 0.83744 0.51187 0.0
C1634 C 0.74636 0.82506 0.52321 0.0
C1635 C 0.74526 0.8244 0.5474 0.0
H1636 H 0.65804 0.22599 0.0522 0.0
H1637 H 0.66347 0.30088 0.05867 0.0
H1638 H 0.66084 0.22926 0.01029 0.0
H1639 H 0.66684 0.3041 0.01614 0.0
H1640 H 0.64521 0.29593 0.93664 0.0
H1641 H 0.64451 0.29788 0.97933 0.0
H1642 H 0.69101 0.23872 0.98255 0.0
H1643 H 0.69109 0.23635 0.94029 0.0
C1644 C 0.65997 0.2432 0.04467 0.0
C1645 C 0.6608 0.26317 0.05879 0.0
C1646 C 0.66173 0.24505 0.02059 0.0
C1647 C 0.66455 0.2669 0.00993 0.0
C1648 C 0.66472 0.28703 0.02391 0.0
C1649 C 0.66285 0.28518 0.0482 0.0
C1650 C 0.65554 0.28362 0.94656 0.0
C1651 C 0.6679 0.26575 0.93526 0.0
C1652 C 0.65518 0.28476 0.97095 0.0
C1653 C 0.66732 0.26815 0.98427 0.0
C1654 C 0.68094 0.25136 0.97278 0.0
C1655 C 0.68108 0.25006 0.94857 0.0
H1656 H 0.25972 0.81397 0.44587 0.0
H1657 H 0.19788 0.85651 0.43964 0.0
H1658 H 0.25759 0.81679 0.48796 0.0
H1659 H 0.19601 0.8597 0.48231 0.0
H1660 H 0.19437 0.83912 0.56285 0.0
H1661 H 0.19109 0.83668 0.52021 0.0
H1662 H 0.26491 0.84997 0.51402 0.0
H1663 H 0.26828 0.85196 0.55605 0.0
C1664 C 0.2456 0.82389 0.45352 0.0
C1665 C 0.22916 0.83531 0.43947 0.0
C1666 C 0.24443 0.82557 0.47765 0.0
C1667 C 0.22693 0.8389 0.48837 0.0
C1668 C 0.2097 0.84937 0.47445 0.0
C1669 C 0.2108 0.84756 0.4501 0.0
C1670 C 0.20979 0.84172 0.55228 0.0
C1671 C 0.23165 0.84529 0.56276 0.0
C1672 C 0.2079 0.84037 0.52795 0.0
C1673 C 0.22784 0.84263 0.51389 0.0
C1674 C 0.24936 0.8475 0.52444 0.0
C1675 C 0.25126 0.84872 0.54855 0.0
H1676 H 0.67915 0.76077 0.05187 0.0
H1677 H 0.63971 0.6969 0.05833 0.0
H1678 H 0.6771 0.75795 0.0098 0.0
H1679 H 0.63734 0.6943 0.01562 0.0
H1680 H 0.6428 0.76605 0.94113 0.0
H1681 H 0.64366 0.76306 0.98321 0.0
H1682 H 0.6619 0.69022 0.97806 0.0
H1683 H 0.66064 0.69309 0.9353 0.0
C1684 C 0.67005 0.74607 0.04428 0.0
C1685 C 0.65928 0.72924 0.0584 0.0
C1686 C 0.66883 0.74449 0.02015 0.0
C1687 C 0.65664 0.72617 0.00947 0.0
C1688 C 0.6468 0.70863 0.02346 0.0
C1689 C 0.64812 0.71015 0.04783 0.0
C1690 C 0.64689 0.74931 0.94886 0.0
C1691 C 0.6521 0.72989 0.93492 0.0
C1692 C 0.64743 0.74763 0.973 0.0
C1693 C 0.65339 0.72655 0.98388 0.0
C1694 C 0.65736 0.7067 0.97006 0.0
C1695 C 0.65668 0.70835 0.94567 0.0
H1696 H 0.79663 0.13488 0.56149 0.0
H1697 H 0.73686 0.1803 0.55559 0.0
H1698 H 0.79951 0.13346 0.51873 0.0
H1699 H 0.74 0.17926 0.5135 0.0
H1700 H 0.72921 0.14739 0.44387 0.0
H1701 H 0.73181 0.14762 0.48597 0.0
H1702 H 0.80627 0.1577 0.48172 0.0
H1703 H 0.80375 0.15703 0.43893 0.0
C1704 C 0.78439 0.14481 0.5511 0.0
C1705 C 0.76626 0.15734 0.56181 0.0
C1706 C 0.78606 0.14403 0.5267 0.0
C1707 C 0.76967 0.15584 0.51282 0.0
C1708 C 0.75249 0.16944 0.52371 0.0
C1709 C 0.75074 0.17009 0.54786 0.0
C1710 C 0.74621 0.14958 0.45179 0.0
C1711 C 0.76624 0.15261 0.43806 0.0
C1712 C 0.74767 0.14978 0.47596 0.0
C1713 C 0.76916 0.15321 0.48713 0.0
C1714 C 0.78946 0.15511 0.47352 0.0
C1715 C 0.78801 0.15479 0.4491 0.0
H1716 H 0.36055 0.29671 0.05757 0.0
H1717 H 0.31535 0.23664 0.0531 0.0
H1718 H 0.36211 0.2985 0.01479 0.0
H1719 H 0.31648 0.23874 0.01091 0.0
H1720 H 0.34937 0.22626 0.94176 0.0
H1721 H 0.34804 0.22983 0.98376 0.0
H1722 H 0.33864 0.30426 0.97755 0.0
H1723 H 0.34043 0.30077 0.93489 0.0
C1724 C 0.35065 0.2842 0.04747 0.0
C1725 C 0.33816 0.26629 0.05859 0.0
C1726 C 0.35151 0.28525 0.02305 0.0
C1727 C 0.33982 0.26845 0.00956 0.0
C1728 C 0.3262 0.25153 0.02084 0.0
C1729 C 0.32549 0.25038 0.04502 0.0
C1730 C 0.34708 0.24346 0.94923 0.0
C1731 C 0.34463 0.26321 0.93498 0.0
C1732 C 0.34621 0.24547 0.97335 0.0
C1733 C 0.34271 0.26726 0.98392 0.0
C1734 C 0.34128 0.28725 0.96981 0.0
C1735 C 0.34224 0.28524 0.94546 0.0
H1736 H 0.55904 0.19608 0.15832 0.0
H1737 H 0.55401 0.27043 0.14714 0.0
H1738 H 0.51632 0.19357 0.15943 0.0
H1739 H 0.51194 0.26782 0.14777 0.0
H1740 H 0.44192 0.26334 0.17954 0.0
H1741 H 0.48405 0.2605 0.17899 0.0
H1742 H 0.47966 0.19935 0.13528 0.0
H1743 H 0.43693 0.2019 0.13627 0.0
C1744 C 0.54885 0.21178 0.15587 0.0
C1745 C 0.55986 0.2335 0.15307 0.0
C1746 C 0.52446 0.21033 0.15645 0.0
C1747 C 0.51084 0.23057 0.15417 0.0
C1748 C 0.52196 0.25201 0.15024 0.0
C1749 C 0.54612 0.25348 0.14979 0.0
C1750 C 0.44986 0.24917 0.16993 0.0
C1751 C 0.43617 0.23305 0.15764 0.0
C1752 C 0.47402 0.24758 0.16955 0.0
C1753 C 0.48515 0.23001 0.15665 0.0
C1754 C 0.47151 0.21309 0.14532 0.0
C1755 C 0.44712 0.21458 0.14585 0.0
H1756 H 0.5523 0.72702 0.83313 0.0
H1757 H 0.55934 0.80174 0.84018 0.0
H1758 H 0.51042 0.73077 0.83353 0.0
H1759 H 0.5167 0.80552 0.84005 0.0
H1760 H 0.43848 0.79236 0.86599 0.0
H1761 H 0.48118 0.79506 0.86381 0.0
H1762 H 0.48111 0.7455 0.8071 0.0
H1763 H 0.43906 0.74222 0.80986 0.0
C1764 C 0.54491 0.74434 0.83457 0.0
C1765 C 0.5592 0.76413 0.83635 0.0
C1766 C 0.52082 0.74649 0.83467 0.0
C1767 C 0.51025 0.76849 0.83636 0.0
C1768 C 0.52441 0.78835 0.83866 0.0
C1769 C 0.54875 0.78619 0.83864 0.0
C1770 C 0.4477 0.78237 0.85289 0.0
C1771 C 0.43567 0.76673 0.83842 0.0
C1772 C 0.47205 0.78395 0.85159 0.0
C1773 C 0.48449 0.77008 0.83563 0.0
C1774 C 0.47209 0.75588 0.82003 0.0
C1775 C 0.448 0.75405 0.82156 0.0
H1776 H 0.76735 0.94427 0.34015 0.0
H1777 H 0.69221 0.93908 0.33793 0.0
H1778 H 0.76464 0.98627 0.3392 0.0
H1779 H 0.68955 0.98179 0.33647 0.0
H1780 H 0.70079 0.06074 0.36022 0.0
H1781 H 0.69791 0.01802 0.36007 0.0
H1782 H 0.75391 0.01472 0.30983 0.0
H1783 H 0.75721 0.05685 0.31053 0.0
C1784 C 0.75019 0.9521 0.33932 0.0
C1785 C 0.72999 0.93831 0.33879 0.0
C1786 C 0.74866 0.97624 0.33866 0.0
C1787 C 0.7269 0.98732 0.33728 0.0
C1788 C 0.70655 0.97367 0.33748 0.0
C1789 C 0.70808 0.94929 0.33823 0.0
C1790 C 0.71222 0.05078 0.34896 0.0
C1791 C 0.72952 0.06197 0.33573 0.0
C1792 C 0.71053 0.02641 0.34882 0.0
C1793 C 0.72602 0.01305 0.33531 0.0
C1794 C 0.74218 0.0245 0.32093 0.0
C1795 C 0.74403 0.04864 0.32127 0.0
H1796 H 0.43986 0.19862 0.85639 0.0
H1797 H 0.44467 0.26146 0.81511 0.0
H1798 H 0.48258 0.19728 0.85897 0.0
H1799 H 0.4868 0.25987 0.81732 0.0
H1800 H 0.55528 0.27067 0.85176 0.0
H1801 H 0.51331 0.26684 0.8501 0.0
H1802 H 0.52021 0.19333 0.83538 0.0
H1803 H 0.56281 0.19707 0.83748 0.0
C1804 C 0.45002 0.21189 0.8476 0.0
C1805 C 0.43897 0.23036 0.83588 0.0
C1806 C 0.4744 0.2111 0.84905 0.0
C1807 C 0.48794 0.22874 0.83874 0.0
C1808 C 0.4768 0.24638 0.82597 0.0
C1809 C 0.45264 0.24725 0.82465 0.0
C1810 C 0.54796 0.25362 0.84823 0.0
C1811 C 0.56237 0.23424 0.84433 0.0
C1812 C 0.52387 0.25145 0.84721 0.0
C1813 C 0.51351 0.22989 0.84209 0.0
C1814 C 0.52778 0.21017 0.83928 0.0
C1815 C 0.5521 0.21233 0.84042 0.0
H1816 H 0.22801 0.94152 0.35178 0.0
H1817 H 0.3021 0.93362 0.3406 0.0
H1818 H 0.23197 0.98345 0.34928 0.0
H1819 H 0.30598 0.9762 0.33774 0.0
H1820 H 0.29874 0.05724 0.35748 0.0
H1821 H 0.30053 0.01456 0.36079 0.0
H1822 H 0.24072 0.0088 0.31547 0.0
H1823 H 0.23868 0.05089 0.31248 0.0
C1824 C 0.2452 0.94875 0.34881 0.0
C1825 C 0.2647 0.93424 0.34597 0.0
C1826 C 0.24744 0.9728 0.34731 0.0
C1827 C 0.26919 0.98302 0.34278 0.0
C1828 C 0.28899 0.9687 0.34114 0.0
C1829 C 0.28676 0.94441 0.34273 0.0
C1830 C 0.28624 0.04675 0.348 0.0
C1831 C 0.26833 0.05734 0.33506 0.0
C1832 C 0.28728 0.0224 0.34988 0.0
C1833 C 0.27046 0.00847 0.33879 0.0
C1834 C 0.25354 0.01914 0.32471 0.0
C1835 C 0.25242 0.04326 0.32295 0.0
H1836 H 0.5536 0.7273 0.14709 0.0
H1837 H 0.56032 0.80166 0.15728 0.0
H1838 H 0.51162 0.7307 0.14886 0.0
H1839 H 0.51768 0.80498 0.15949 0.0
H1840 H 0.43733 0.79724 0.1387 0.0
H1841 H 0.48004 0.79925 0.13628 0.0
H1842 H 0.48513 0.73912 0.18132 0.0
H1843 H 0.443 0.73682 0.18333 0.0
C1844 C 0.5461 0.74443 0.14973 0.0
C1845 C 0.56029 0.76417 0.15244 0.0
C1846 C 0.522 0.74635 0.15083 0.0
C1847 C 0.5114 0.76802 0.15485 0.0
C1848 C 0.52544 0.78805 0.15646 0.0
C1849 C 0.54978 0.78613 0.15525 0.0
C1850 C 0.44768 0.78469 0.14828 0.0
C1851 C 0.43691 0.76663 0.16087 0.0
C1852 C 0.47205 0.78586 0.14692 0.0
C1853 C 0.48584 0.76904 0.15821 0.0
C1854 C 0.47494 0.75194 0.17191 0.0
C1855 C 0.4508 0.75067 0.17312 0.0
H1856 H 0.77128 0.94482 0.6584 0.0
H1857 H 0.69636 0.93693 0.65677 0.0
H1858 H 0.76698 0.98667 0.66011 0.0
H1859 H 0.69206 0.97944 0.65898 0.0
H1860 H 0.7015 0.05891 0.63619 0.0
H1861 H 0.70009 0.01612 0.63619 0.0
H1862 H 0.75387 0.01463 0.68888 0.0
H1863 H 0.75573 0.05687 0.68834 0.0
C1864 C 0.75382 0.952 0.65857 0.0
C1865 C 0.73414 0.93748 0.65771 0.0
C1866 C 0.75137 0.97607 0.65968 0.0
C1867 C 0.72917 0.98635 0.66012 0.0
C1868 C 0.70938 0.97197 0.6587 0.0
C1869 C 0.71185 0.94768 0.65753 0.0
C1870 C 0.71272 0.04933 0.64797 0.0
C1871 C 0.72902 0.06109 0.66194 0.0
C1872 C 0.71189 0.0249 0.64802 0.0
C1873 C 0.72723 0.01204 0.66218 0.0
C1874 C 0.7423 0.02402 0.67729 0.0
C1875 C 0.74331 0.04823 0.67704 0.0
H1876 H 0.22806 0.05394 0.64459 0.0
H1877 H 0.30176 0.0611 0.65848 0.0
H1878 H 0.23151 0.01197 0.64712 0.0
H1879 H 0.30512 0.01848 0.6614 0.0
H1880 H 0.2979 0.93756 0.64156 0.0
H1881 H 0.30021 0.9802 0.63829 0.0
H1882 H 0.23865 0.98654 0.68115 0.0
H1883 H 0.2361 0.94446 0.68406 0.0
C1884 C 0.24506 0.04653 0.64816 0.0
C1885 C 0.26458 0.06083 0.65175 0.0
C1886 C 0.247 0.02246 0.64968 0.0
C1887 C 0.26847 0.01203 0.65501 0.0
C1888 C 0.28835 0.02615 0.65738 0.0
C1889 C 0.28641 0.05046 0.65574 0.0
C1890 C 0.28511 0.94817 0.65051 0.0
C1891 C 0.26659 0.93775 0.66272 0.0
C1892 C 0.28645 0.97249 0.64866 0.0
C1893 C 0.26932 0.98658 0.65906 0.0
C1894 C 0.25174 0.97608 0.67244 0.0
C1895 C 0.25032 0.95197 0.67416 0.0
H1896 H 0.13048 0.27394 0.2755 0.0
H1897 H 0.18585 0.31337 0.30803 0.0
H1898 H 0.14338 0.2391 0.29609 0.0
H1899 H 0.19938 0.27854 0.32752 0.0
H1900 H 0.21638 0.21482 0.36796 0.0
H1901 H 0.19448 0.24905 0.35552 0.0
H1902 H 0.17476 0.21324 0.29219 0.0
H1903 H 0.1955 0.17895 0.30503 0.0
C1904 C 0.14531 0.27522 0.28711 0.0
C1905 C 0.1573 0.29639 0.28984 0.0
C1906 C 0.1528 0.25522 0.29883 0.0
C1907 C 0.17264 0.25587 0.31327 0.0
C1908 C 0.18389 0.27733 0.31682 0.0
C1909 C 0.17622 0.29735 0.30539 0.0
C1910 C 0.20705 0.21417 0.35156 0.0
C1911 C 0.20794 0.19421 0.33741 0.0
C1912 C 0.19459 0.23384 0.34435 0.0
C1913 C 0.18298 0.23405 0.32272 0.0
C1914 C 0.18313 0.21371 0.3091 0.0
C1915 C 0.19531 0.19402 0.3164 0.0
H1916 H 0.31684 0.68932 0.81148 0.0
H1917 H 0.27706 0.71613 0.86962 0.0
H1918 H 0.2826 0.66952 0.79701 0.0
H1919 H 0.24286 0.69518 0.85569 0.0
H1920 H 0.22037 0.62786 0.77799 0.0
H1921 H 0.25437 0.64009 0.80032 0.0
H1922 H 0.21636 0.70034 0.82495 0.0
H1923 H 0.18229 0.68758 0.80372 0.0
C1924 C 0.3009 0.6906 0.8215 0.0
C1925 C 0.29963 0.70468 0.84152 0.0
C1926 C 0.28122 0.67899 0.81327 0.0
C1927 C 0.25982 0.68088 0.82503 0.0
C1928 C 0.25892 0.69377 0.84589 0.0
C1929 C 0.27857 0.70567 0.85397 0.0
C1930 C 0.21921 0.64353 0.78845 0.0
C1931 C 0.19868 0.65686 0.78884 0.0
C1932 C 0.23874 0.65062 0.80117 0.0
C1933 C 0.23825 0.67135 0.8143 0.0
C1934 C 0.21737 0.68411 0.81537 0.0
C1935 C 0.19781 0.67688 0.80294 0.0
H1936 H 0.86591 0.71982 0.2844 0.0
H1937 H 0.80391 0.68127 0.30305 0.0
H1938 H 0.85137 0.75341 0.30587 0.0
H1939 H 0.78897 0.71504 0.32354 0.0
H1940 H 0.76983 0.77615 0.36778 0.0
H1941 H 0.79127 0.74161 0.35526 0.0
H1942 H 0.8219 0.78122 0.29893 0.0
H1943 H 0.80145 0.81563 0.31186 0.0
C1944 C 0.84924 0.71846 0.29315 0.0
C1945 C 0.83595 0.69795 0.29173 0.0
C1946 C 0.84085 0.73776 0.30538 0.0
C1947 C 0.81885 0.73707 0.31621 0.0
C1948 C 0.80609 0.71617 0.31568 0.0
C1949 C 0.81459 0.69681 0.3037 0.0
C1950 C 0.78143 0.77753 0.35295 0.0
C1951 C 0.78372 0.79864 0.34073 0.0
C1952 C 0.79363 0.75771 0.34569 0.0
C1953 C 0.80823 0.75857 0.32599 0.0
C1954 C 0.81114 0.77992 0.31438 0.0
C1955 C 0.79915 0.79969 0.32171 0.0
H1956 H 0.77303 0.35521 0.76045 0.0
H1957 H 0.81876 0.33002 0.81472 0.0
H1958 H 0.7397 0.33945 0.78135 0.0
H1959 H 0.78542 0.31529 0.83617 0.0
H1960 H 0.72692 0.26191 0.84766 0.0
H1961 H 0.75998 0.28332 0.83217 0.0
H1962 H 0.71453 0.34059 0.81393 0.0
H1963 H 0.68131 0.31872 0.8285 0.0
C1964 C 0.77592 0.34685 0.77713 0.0
C1965 C 0.79859 0.34362 0.78576 0.0
C1966 C 0.75677 0.33787 0.78921 0.0
C1967 C 0.75987 0.32579 0.81035 0.0
C1968 C 0.78243 0.32394 0.81966 0.0
C1969 C 0.80157 0.33258 0.80743 0.0
C1970 C 0.72401 0.27918 0.84061 0.0
C1971 C 0.70144 0.28851 0.83917 0.0
C1972 C 0.74302 0.29157 0.83183 0.0
C1973 C 0.73995 0.3137 0.82168 0.0
C1974 C 0.71749 0.32343 0.8212 0.0
C1975 C 0.69844 0.31093 0.82971 0.0
H1976 H 0.19194 0.81633 0.6888 0.0
H1977 H 0.2201 0.77877 0.62981 0.0
H1978 H 0.17181 0.78161 0.70147 0.0
H1979 H 0.19888 0.74402 0.64202 0.0
H1980 H 0.18949 0.68173 0.6923 0.0
H1981 H 0.20293 0.71625 0.6721 0.0
H1982 H 0.14216 0.75392 0.6959 0.0
H1983 H 0.12923 0.71952 0.71716 0.0
C1984 C 0.19348 0.80077 0.67822 0.0
C1985 C 0.20796 0.80029 0.65845 0.0
C1986 C 0.18167 0.78082 0.6854 0.0
C1987 C 0.18378 0.75989 0.67287 0.0
C1988 C 0.19723 0.75972 0.65235 0.0
C1989 C 0.20929 0.77969 0.64526 0.0
C1990 C 0.17882 0.69728 0.69307 0.0
C1991 C 0.15848 0.69796 0.70671 0.0
C1992 C 0.18645 0.71709 0.68125 0.0
C1993 C 0.17377 0.73801 0.68251 0.0
C1994 C 0.15265 0.73826 0.69498 0.0
C1995 C 0.14516 0.7185 0.70708 0.0
H1996 H 0.68133 0.69241 0.18803 0.0
H1997 H 0.72075 0.71608 0.1283 0.0
H1998 H 0.71527 0.67196 0.20247 0.0
H1999 H 0.75459 0.69463 0.14231 0.0
H2000 H 0.81565 0.68715 0.19372 0.0
H2001 H 0.78157 0.70023 0.17281 0.0
H2002 H 0.74267 0.64124 0.199 0.0
H2003 H 0.77681 0.62855 0.22094 0.0
C2004 C 0.69712 0.6929 0.17771 0.0
C2005 C 0.6984 0.70624 0.15717 0.0
C2006 C 0.71659 0.68092 0.18592 0.0
C2007 C 0.73778 0.68175 0.17368 0.0
C2008 C 0.73868 0.694 0.15243 0.0
C2009 C 0.71924 0.70622 0.14433 0.0
C2010 C 0.79995 0.67675 0.19492 0.0
C2011 C 0.79892 0.65694 0.20933 0.0
C2012 C 0.78037 0.68418 0.18266 0.0
C2013 C 0.75927 0.67188 0.18425 0.0
C2014 C 0.75854 0.65136 0.1977 0.0
C2015 C 0.77815 0.644 0.21018 0.0
H2016 H 0.77618 0.22048 0.62916 0.0
H2017 H 0.80271 0.18244 0.68856 0.0
H2018 H 0.79802 0.25476 0.64156 0.0
H2019 H 0.82328 0.21674 0.70157 0.0
H2020 H 0.8093 0.31749 0.69014 0.0
H2021 H 0.79495 0.28307 0.67058 0.0
H2022 H 0.85339 0.24355 0.69714 0.0
H2023 H 0.86707 0.27795 0.71796 0.0
C2024 C 0.7867 0.21939 0.6448 0.0
C2025 C 0.78747 0.19876 0.65797 0.0
C2026 C 0.79912 0.23909 0.65201 0.0
C2027 C 0.8123 0.23869 0.67273 0.0
C2028 C 0.8137 0.21774 0.68535 0.0
C2029 C 0.80162 0.19802 0.67797 0.0
C2030 C 0.81926 0.30154 0.69171 0.0
C2031 C 0.83915 0.30041 0.70597 0.0
C2032 C 0.81111 0.28175 0.68022 0.0
C2033 C 0.82285 0.26036 0.68237 0.0
C2034 C 0.84356 0.25957 0.69553 0.0
C2035 C 0.85151 0.27933 0.70737 0.0
H2036 H 0.17923 0.32685 0.18072 0.0
H2037 H 0.22517 0.35049 0.23551 0.0
H2038 H 0.21261 0.31367 0.15827 0.0
H2039 H 0.25848 0.33621 0.21368 0.0
H2040 H 0.31713 0.31876 0.16662 0.0
H2041 H 0.28335 0.3395 0.18149 0.0
H2042 H 0.23903 0.28264 0.1595 0.0
H2043 H 0.27266 0.26255 0.14355 0.0
C2044 C 0.19647 0.32933 0.18794 0.0
C2045 C 0.19951 0.3396 0.20998 0.0
C2046 C 0.21563 0.32161 0.17513 0.0
C2047 C 0.2383 0.32358 0.18421 0.0
C2048 C 0.24137 0.33466 0.2059 0.0
C2049 C 0.22221 0.34274 0.21855 0.0
C2050 C 0.30012 0.31089 0.16457 0.0
C2051 C 0.29762 0.28891 0.15405 0.0
C2052 C 0.28074 0.32271 0.17329 0.0
C2053 C 0.25843 0.31265 0.17206 0.0
C2054 C 0.25584 0.29113 0.16055 0.0
C2055 C 0.27519 0.27948 0.15148 0.0
H2056 H 0.36584 0.22678 0.22064 0.0
H2057 H 0.31433 0.19037 0.17938 0.0
H2058 H 0.35306 0.20544 0.25512 0.0
H2059 H 0.30092 0.1701 0.21374 0.0
H2060 H 0.29995 0.19098 0.31372 0.0
H2061 H 0.32064 0.20625 0.28026 0.0
H2062 H 0.30746 0.14218 0.24281 0.0
H2063 H 0.28564 0.12731 0.27606 0.0
C2064 C 0.3519 0.21417 0.21888 0.0
C2065 C 0.34098 0.2105 0.19726 0.0
C2066 C 0.34446 0.20203 0.23868 0.0
C2067 C 0.3258 0.18616 0.23732 0.0
C2068 C 0.31556 0.18188 0.21549 0.0
C2069 C 0.32315 0.19375 0.19572 0.0
C2070 C 0.30161 0.18002 0.29845 0.0
C2071 C 0.29082 0.15804 0.29745 0.0
C2072 C 0.31372 0.18873 0.27926 0.0
C2073 C 0.31562 0.17556 0.25869 0.0
C2074 C 0.30591 0.15303 0.25817 0.0
C2075 C 0.29349 0.14444 0.27728 0.0
H2076 H 0.3092 0.80263 0.81884 0.0
H2077 H 0.36682 0.77512 0.77879 0.0
H2078 H 0.2953 0.82329 0.78481 0.0
H2079 H 0.35342 0.79679 0.74482 0.0
H2080 H 0.30213 0.80784 0.68409 0.0
H2081 H 0.32241 0.79319 0.71805 0.0
H2082 H 0.30031 0.85353 0.75742 0.0
H2083 H 0.27899 0.86774 0.72355 0.0
C2084 C 0.3192 0.80133 0.80288 0.0
C2085 C 0.33896 0.78691 0.80149 0.0
C2086 C 0.31131 0.81341 0.78334 0.0
C2087 C 0.32313 0.81162 0.76196 0.0
C2088 C 0.34362 0.79819 0.76089 0.0
C2089 C 0.35138 0.78586 0.7804 0.0
C2090 C 0.30172 0.81815 0.6999 0.0
C2091 C 0.28864 0.83883 0.70117 0.0
C2092 C 0.31359 0.80982 0.71939 0.0
C2093 C 0.31293 0.82209 0.74058 0.0
C2094 C 0.30081 0.84339 0.74151 0.0
C2095 C 0.28868 0.85161 0.72206 0.0
H2096 H 0.7162 0.86802 0.27552 0.0
H2097 H 0.68965 0.80942 0.31481 0.0
H2098 H 0.69567 0.85403 0.24105 0.0
H2099 H 0.67019 0.79497 0.28033 0.0
H2100 H 0.62814 0.7768 0.21786 0.0
H2101 H 0.64058 0.79865 0.25213 0.0
H2102 H 0.70091 0.82335 0.21432 0.0
H2103 H 0.68803 0.80256 0.18003 0.0
C2104 C 0.70591 0.85225 0.27686 0.0
C2105 C 0.70481 0.83974 0.29789 0.0
C2106 C 0.69423 0.84414 0.25706 0.0
C2107 C 0.68144 0.82321 0.25779 0.0
C2108 C 0.67957 0.8113 0.2791 0.0
C2109 C 0.69098 0.81952 0.29891 0.0
C2110 C 0.64387 0.78719 0.21679 0.0
C2111 C 0.65719 0.7877 0.19624 0.0
C2112 C 0.65108 0.79962 0.23648 0.0
C2113 C 0.67188 0.81264 0.23612 0.0
C2114 C 0.68464 0.81384 0.21525 0.0
C2115 C 0.67733 0.80166 0.19555 0.0
H2116 H 0.67972 0.17581 0.67808 0.0
H2117 H 0.72855 0.14325 0.7253 0.0
H2118 H 0.65755 0.19049 0.71105 0.0
H2119 H 0.70708 0.15884 0.75822 0.0
H2120 H 0.66021 0.17947 0.81555 0.0
H2121 H 0.67321 0.15841 0.78118 0.0
H2122 H 0.66165 0.22001 0.73929 0.0
H2123 H 0.6476 0.24066 0.77357 0.0
C2124 C 0.68566 0.17163 0.69549 0.0
C2125 C 0.706 0.15842 0.69902 0.0
C2126 C 0.67302 0.18022 0.71443 0.0
C2127 C 0.68057 0.17608 0.73736 0.0
C2128 C 0.70046 0.16213 0.74086 0.0
C2129 C 0.71292 0.15327 0.72193 0.0
C2130 C 0.66003 0.18836 0.79891 0.0
C2131 C 0.65312 0.2118 0.7973 0.0
C2132 C 0.66766 0.17634 0.77921 0.0
C2133 C 0.66894 0.18759 0.75748 0.0
C2134 C 0.66074 0.21066 0.75566 0.0
C2135 C 0.65274 0.22258 0.77534 0.0
H2136 H 0.81773 0.81578 0.66178 0.0
H2137 H 0.7564 0.77348 0.65102 0.0
H2138 H 0.83857 0.782 0.67655 0.0
H2139 H 0.77681 0.7399 0.66683 0.0
H2140 H 0.82127 0.67908 0.68507 0.0
H2141 H 0.80605 0.71166 0.66283 0.0
H2142 H 0.83892 0.75959 0.71082 0.0
H2143 H 0.8552 0.72694 0.73232 0.0
C2144 C 0.80873 0.79922 0.66244 0.0
C2145 C 0.78536 0.79734 0.65536 0.0
C2146 C 0.82063 0.77986 0.6711 0.0
C2147 C 0.80934 0.75822 0.67323 0.0
C2148 C 0.78623 0.75616 0.66521 0.0
C2149 C 0.77444 0.77547 0.6562 0.0
C2150 C 0.82561 0.69656 0.69067 0.0
C2151 C 0.83943 0.70037 0.71055 0.0
C2152 C 0.81667 0.71529 0.678 0.0
C2153 C 0.821 0.73832 0.6851 0.0
C2154 C 0.83546 0.74213 0.70457 0.0
C2155 C 0.84471 0.72337 0.71704 0.0
H2156 H 0.72246 0.27525 0.13017 0.0
H2157 H 0.68187 0.30381 0.1869 0.0
H2158 H 0.75665 0.29612 0.14434 0.0
H2159 H 0.71602 0.32364 0.20153 0.0
H2160 H 0.77766 0.3671 0.21892 0.0
H2161 H 0.744 0.35335 0.19699 0.0
H2162 H 0.78274 0.29222 0.17598 0.0
H2163 H 0.81651 0.3064 0.1969 0.0
C2164 C 0.72077 0.28605 0.14556 0.0
C2165 C 0.69945 0.28764 0.15749 0.0
C2166 C 0.74041 0.29791 0.15378 0.0
C2167 C 0.73919 0.31143 0.17422 0.0
C2168 C 0.71762 0.31371 0.18557 0.0
C2169 C 0.69799 0.30208 0.17725 0.0
C2170 C 0.77907 0.35088 0.20936 0.0
C2171 C 0.79973 0.33776 0.20989 0.0
C2172 C 0.75973 0.34293 0.19687 0.0
C2173 C 0.76054 0.32155 0.18486 0.0
C2174 C 0.78151 0.30891 0.18471 0.0
C2175 C 0.80088 0.31697 0.19695 0.0
H2176 H 0.18706 0.3153 0.69525 0.0
H2177 H 0.12858 0.27628 0.72247 0.0
H2178 H 0.20003 0.28133 0.67404 0.0
H2179 H 0.14116 0.24228 0.70025 0.0
H2180 H 0.19196 0.18092 0.68793 0.0
H2181 H 0.17183 0.21475 0.70308 0.0
H2182 H 0.19389 0.25481 0.64317 0.0
H2183 H 0.21503 0.22106 0.62843 0.0
C2184 C 0.17669 0.29958 0.69641 0.0
C2185 C 0.15691 0.29848 0.71085 0.0
C2186 C 0.18404 0.28008 0.68398 0.0
C2187 C 0.1717 0.25899 0.68544 0.0
C2188 C 0.1513 0.25815 0.69904 0.0
C2189 C 0.14402 0.27767 0.71169 0.0
C2190 C 0.19238 0.19685 0.6778 0.0
C2191 C 0.20547 0.19836 0.65713 0.0
C2192 C 0.18059 0.21626 0.68643 0.0
C2193 C 0.18137 0.23761 0.67447 0.0
C2194 C 0.19333 0.23875 0.65308 0.0
C2195 C 0.20536 0.21938 0.64456 0.0
H2196 H 0.21957 0.6275 0.21648 0.0
H2197 H 0.18071 0.68648 0.19016 0.0
H2198 H 0.25411 0.64133 0.19597 0.0
H2199 H 0.21525 0.70074 0.17071 0.0
H2200 H 0.27783 0.71897 0.12904 0.0
H2201 H 0.24352 0.69701 0.14113 0.0
H2202 H 0.28093 0.67196 0.20156 0.0
H2203 H 0.31529 0.69288 0.18902 0.0
C2204 C 0.21832 0.6433 0.20622 0.0
C2205 C 0.19741 0.656 0.20523 0.0
C2206 C 0.23817 0.65131 0.19456 0.0
C2207 C 0.23759 0.67231 0.18187 0.0
C2208 C 0.21636 0.68437 0.18003 0.0
C2209 C 0.19651 0.67625 0.19144 0.0
C2210 C 0.27881 0.70848 0.14471 0.0
C2211 C 0.29926 0.70792 0.15817 0.0
C2212 C 0.25909 0.69598 0.15172 0.0
C2213 C 0.25933 0.68285 0.17246 0.0
C2214 C 0.28012 0.68157 0.18533 0.0
C2215 C 0.29984 0.69383 0.17822 0.0
H2216 H 0.87008 0.27757 0.28011 0.0
H2217 H 0.81103 0.31601 0.30686 0.0
H2218 H 0.85734 0.24327 0.30174 0.0
H2219 H 0.79783 0.28171 0.32741 0.0
H2220 H 0.78073 0.21991 0.37026 0.0
H2221 H 0.80246 0.25412 0.35745 0.0
H2222 H 0.82712 0.21583 0.2974 0.0
H2223 H 0.80648 0.18162 0.31065 0.0
C2224 C 0.8545 0.27878 0.2907 0.0
C2225 C 0.84146 0.29949 0.29148 0.0
C2226 C 0.84711 0.25907 0.30301 0.0
C2227 C 0.82639 0.25958 0.31616 0.0
C2228 C 0.81402 0.28065 0.31777 0.0
C2229 C 0.82151 0.30035 0.30571 0.0
C2230 C 0.79113 0.21871 0.35455 0.0
C2231 C 0.79157 0.19808 0.34135 0.0
C2232 C 0.80349 0.23836 0.34712 0.0
C2233 C 0.81637 0.23788 0.32622 0.0
C2234 C 0.81769 0.21687 0.31371 0.0
C2235 C 0.80558 0.19721 0.32124 0.0
H2236 H 0.22049 0.36711 0.7805 0.0
H2237 H 0.18142 0.30781 0.80576 0.0
H2238 H 0.25493 0.35291 0.80089 0.0
H2239 H 0.2159 0.29317 0.82511 0.0
H2240 H 0.31617 0.30168 0.80751 0.0
H2241 H 0.28171 0.32234 0.79492 0.0
H2242 H 0.24413 0.29649 0.85491 0.0
H2243 H 0.2786 0.2748 0.86709 0.0
C2244 C 0.21918 0.35114 0.7905 0.0
C2245 C 0.19823 0.33849 0.79123 0.0
C2246 C 0.23897 0.34291 0.80208 0.0
C2247 C 0.23832 0.32172 0.81445 0.0
C2248 C 0.21706 0.30968 0.81604 0.0
C2249 C 0.19726 0.31801 0.80469 0.0
C2250 C 0.30066 0.30049 0.81821 0.0
C2251 C 0.30012 0.28629 0.83819 0.0
C2252 C 0.28087 0.3126 0.81106 0.0
C2253 C 0.26003 0.31108 0.82382 0.0
C2254 C 0.25977 0.29774 0.84443 0.0
C2255 C 0.27957 0.2854 0.85149 0.0
H2256 H 0.19142 0.81448 0.30984 0.0
H2257 H 0.21591 0.77354 0.36821 0.0
H2258 H 0.17144 0.78069 0.2944 0.0
H2259 H 0.19493 0.73982 0.3532 0.0
H2260 H 0.18751 0.68003 0.30045 0.0
H2261 H 0.20072 0.71384 0.32181 0.0
H2262 H 0.1411 0.75284 0.29728 0.0
H2263 H 0.12828 0.71902 0.27492 0.0
C2264 C 0.19218 0.79838 0.31967 0.0
C2265 C 0.20561 0.79665 0.3401 0.0
C2266 C 0.18049 0.77898 0.31088 0.0
C2267 C 0.18171 0.75742 0.32242 0.0
C2268 C 0.19403 0.75604 0.34359 0.0
C2269 C 0.20596 0.77541 0.35228 0.0
C2270 C 0.17704 0.69572 0.29969 0.0
C2271 C 0.15695 0.69686 0.28569 0.0
C2272 C 0.18454 0.71512 0.3122 0.0
C2273 C 0.17203 0.73614 0.31127 0.0
C2274 C 0.15137 0.73702 0.29808 0.0
C2275 C 0.14395 0.71761 0.28534 0.0
H2276 H 0.77852 0.62986 0.77849 0.0
H2277 H 0.8166 0.68813 0.80741 0.0
H2278 H 0.7437 0.64256 0.7993 0.0
H2279 H 0.78185 0.70135 0.82703 0.0
H2280 H 0.71875 0.71859 0.86801 0.0
H2281 H 0.7533 0.69697 0.85593 0.0
H2282 H 0.71665 0.67284 0.79465 0.0
H2283 H 0.6821 0.69328 0.80721 0.0
C2284 C 0.77954 0.64525 0.78937 0.0
C2285 C 0.80031 0.6581 0.79099 0.0
C2286 C 0.75954 0.65264 0.8012 0.0
C2287 C 0.75982 0.67317 0.81467 0.0
C2288 C 0.78093 0.68531 0.81713 0.0
C2289 C 0.80091 0.6778 0.80559 0.0
C2290 C 0.71801 0.70837 0.85215 0.0
C2291 C 0.69772 0.70794 0.83847 0.0
C2292 C 0.73785 0.69606 0.84515 0.0
C2293 C 0.73791 0.68329 0.82416 0.0
C2294 C 0.71726 0.68213 0.81106 0.0
C2295 C 0.69742 0.69415 0.81819 0.0
H2296 H 0.67819 0.83944 0.6825 0.0
H2297 H 0.74038 0.84866 0.72387 0.0
H2298 H 0.65752 0.82506 0.71657 0.0
H2299 H 0.7201 0.83325 0.75776 0.0
H2300 H 0.67651 0.81418 0.81897 0.0
H2301 H 0.69131 0.83703 0.7866 0.0
H2302 H 0.65727 0.7903 0.73825 0.0
H2303 H 0.64144 0.76818 0.77071 0.0
C2304 C 0.68739 0.83857 0.69895 0.0
C2305 C 0.71097 0.84499 0.70047 0.0
C2306 C 0.67559 0.83014 0.71846 0.0
C2307 C 0.68719 0.82757 0.73988 0.0
C2308 C 0.71047 0.83518 0.74165 0.0
C2309 C 0.72218 0.84397 0.72218 0.0
C2310 C 0.67182 0.809 0.80145 0.0
C2311 C 0.65782 0.78927 0.79746 0.0
C2312 C 0.6805 0.82202 0.78284 0.0
C2313 C 0.67572 0.81545 0.75974 0.0
C2314 C 0.66107 0.79616 0.75578 0.0
C2315 C 0.65208 0.78332 0.77442 0.0
H2316 H 0.71524 0.13027 0.27896 0.0
H2317 H 0.69848 0.19407 0.31537 0.0
H2318 H 0.6929 0.14362 0.24543 0.0
H2319 H 0.67711 0.20782 0.28159 0.0
H2320 H 0.63069 0.22463 0.22143 0.0
H2321 H 0.64439 0.20463 0.25639 0.0
H2322 H 0.69873 0.17158 0.21599 0.0
H2323 H 0.6846 0.19056 0.18122 0.0
C2324 C 0.70677 0.14712 0.27983 0.0
C2325 C 0.70889 0.16121 0.29974 0.0
C2326 C 0.69402 0.15482 0.26058 0.0
C2327 C 0.68338 0.17692 0.26067 0.0
C2328 C 0.68477 0.19059 0.28095 0.0
C2329 C 0.69726 0.18277 0.3003 0.0
C2330 C 0.64529 0.21275 0.21997 0.0
C2331 C 0.65665 0.20941 0.19852 0.0
C2332 C 0.65325 0.20141 0.24004 0.0
C2333 C 0.67279 0.18661 0.23909 0.0
C2334 C 0.68344 0.18254 0.21742 0.0
C2335 C 0.67542 0.19368 0.19741 0.0
H2336 H 0.30233 0.18834 0.67915 0.0
H2337 H 0.27606 0.1289 0.71736 0.0
H2338 H 0.3233 0.2012 0.71332 0.0
H2339 H 0.29803 0.14137 0.75156 0.0
H2340 H 0.30943 0.1914 0.81372 0.0
H2341 H 0.29468 0.17153 0.77955 0.0
H2342 H 0.35415 0.19536 0.73988 0.0
H2343 H 0.36847 0.21623 0.77398 0.0
C2344 C 0.30134 0.17773 0.69473 0.0
C2345 C 0.28721 0.15771 0.69555 0.0
C2346 C 0.31363 0.18503 0.71435 0.0
C2347 C 0.31234 0.1724 0.73529 0.0
C2348 C 0.2991 0.15174 0.73582 0.0
C2349 C 0.28659 0.14452 0.71619 0.0
C2350 C 0.31955 0.19226 0.7978 0.0
C2351 C 0.33997 0.20576 0.79652 0.0
C2352 C 0.31115 0.18063 0.77819 0.0
C2353 C 0.32309 0.18197 0.75684 0.0
C2354 C 0.34425 0.19436 0.75592 0.0
C2355 C 0.35253 0.20623 0.77551 0.0
H2356 H 0.30273 0.8076 0.31787 0.0
H2357 H 0.27466 0.86611 0.27951 0.0
H2358 H 0.32318 0.79467 0.28343 0.0
H2359 H 0.29613 0.85358 0.24501 0.0
H2360 H 0.30709 0.8029 0.18324 0.0
H2361 H 0.29269 0.82297 0.21746 0.0
H2362 H 0.35335 0.80069 0.25618 0.0
H2363 H 0.36733 0.77962 0.22208 0.0
C2364 C 0.30124 0.818 0.30219 0.0
C2365 C 0.28676 0.83777 0.30143 0.0
C2366 C 0.31323 0.81066 0.2824 0.0
C2367 C 0.31128 0.823 0.26134 0.0
C2368 C 0.2977 0.84343 0.26084 0.0
C2369 C 0.2855 0.8507 0.28066 0.0
C2370 C 0.31753 0.80242 0.19896 0.0
C2371 C 0.3382 0.7893 0.2 0.0
C2372 C 0.30934 0.81417 0.21859 0.0
C2373 C 0.32173 0.81332 0.2397 0.0
C2374 C 0.3431 0.8013 0.24035 0.0
C2375 C 0.35118 0.7893 0.22076 0.0
loop_
_geom_bond_atom_site_label_1
_geom_bond_atom_site_label_2
_geom_bond_distance
_geom_bond_site_symmetry_2
_ccdc_geom_bond_type
Co0 O2 2.143 . S
Co0 O8 2.074 . S
Co0 O11 2.093 . S
Co0 O24 2.097 . S
Co0 N41 2.151 . S
Co0 N49 2.214 . S
Co1 O2 2.160 . S
Co1 O7 2.058 . S
Co1 O17 2.057 . S
Co1 O32 2.037 . S
Co1 N36 2.145 . S
Co1 N57 2.257 . S
O2 Co0 2.143 . S
O2 Co1 2.160 . S
C3 O4 1.278 . S
C3 O11 1.224 . S
O4 C3 1.278 . S
C5 O6 1.245 . S
C5 O17 1.232 . S
O6 C5 1.245 . S
O7 Co1 2.058 . S
O7 C33 1.269 . S
O8 Co0 2.074 . S
O8 C33 1.257 . S
H9 C34 0.930 . S
H10 C40 0.930 . S
O11 Co0 2.093 . S
O11 C3 1.224 . S
H12 C44 0.929 . S
H13 C46 0.930 . S
H14 C47 0.930 . S
H15 C45 0.929 . S
H16 C48 0.928 . S
O17 Co1 2.057 . S
O17 C5 1.232 . S
H18 C37 0.929 . S
H19 C38 0.929 . S
H20 C50 0.931 . S
H21 C42 0.929 . S
H22 C51 0.930 . S
H23 C43 0.931 . S
O24 Co0 2.097 . S
O24 C52 1.214 . S
H25 C53 0.929 . S
H26 C54 0.929 . S
H27 C55 0.930 . S
H28 C56 0.929 . S
H29 C58 0.930 . S
H30 C35 0.930 . S
H31 C39 0.930 . S
O32 Co1 2.037 . S
O32 C52 1.234 . S
C33 O7 1.269 . S
C33 O8 1.257 . S
C34 H9 0.930 . S
C34 C37 1.388 . S
C34 C39 1.418 . S
C35 H30 0.930 . S
C35 C38 1.404 . S
C35 C39 1.353 . S
N36 Co1 2.145 . S
N36 C37 1.397 . S
N36 C38 1.334 . S
C37 H18 0.929 . S
C37 C34 1.388 . S
C37 N36 1.397 . S
C38 H19 0.929 . S
C38 C35 1.404 . S
C38 N36 1.334 . S
C39 H31 0.930 . S
C39 C34 1.418 . S
C39 C35 1.353 . S
C40 H10 0.930 . S
C40 N41 1.330 . S
C40 C42 1.446 . S
N41 Co0 2.151 . S
N41 C40 1.330 . S
N41 C45 1.418 . S
C42 H21 0.929 . S
C42 C40 1.446 . S
C42 C43 1.332 . S
C43 H23 0.931 . S
C43 C42 1.332 . S
C43 C44 1.267 . S
C44 H12 0.929 . S
C44 C43 1.267 . S
C44 C45 1.251 . S
C45 H15 0.929 . S
C45 N41 1.418 . S
C45 C44 1.251 . S
C46 H13 0.930 . S
C46 C48 1.406 . S
C46 C51 1.261 . S
C47 H14 0.930 . S
C47 N49 1.325 . S
C47 C50 1.357 . S
C48 H16 0.928 . S
C48 C46 1.406 . S
C48 N49 1.261 . S
N49 Co0 2.214 . S
N49 C47 1.325 . S
N49 C48 1.261 . S
C50 H20 0.931 . S
C50 C47 1.357 . S
C50 C51 1.312 . S
C51 H22 0.930 . S
C51 C46 1.261 . S
C51 C50 1.312 . S
C52 O24 1.214 . S
C52 O32 1.234 . S
C53 H25 0.929 . S
C53 C56 1.391 . S
C53 C58 1.391 . S
C54 H26 0.929 . S
C54 C55 1.390 . S
C54 N57 1.391 . S
C55 H27 0.930 . S
C55 C54 1.390 . S
C55 C56 1.392 . S
C56 H28 0.929 . S
C56 C53 1.391 . S
C56 C55 1.392 . S
N57 Co1 2.257 . S
N57 C54 1.391 . S
N57 C58 1.388 . S
C58 H29 0.930 . S
C58 C53 1.391 . S
C58 N57 1.388 . S
Co59 O61 2.143 . S
Co59 O67 2.074 . S
Co59 O70 2.093 . S
Co59 O83 2.097 . S
Co59 N100 2.151 . S
Co59 N108 2.214 . S
Co60 O61 2.160 . S
Co60 O66 2.058 . S
Co60 O76 2.057 . S
Co60 O91 2.037 . S
Co60 N95 2.145 . S
Co60 N116 2.257 . S
O61 Co59 2.143 . S
O61 Co60 2.160 . S
C62 O63 1.278 . S
C62 O70 1.224 . S
O63 C62 1.278 . S
C64 O65 1.245 . S
C64 O76 1.232 . S
O65 C64 1.245 . S
O66 Co60 2.058 . S
O66 C92 1.269 . S
O67 Co59 2.074 . S
O67 C92 1.257 . S
H68 C93 0.930 . S
H69 C99 0.930 . S
O70 Co59 2.093 . S
O70 C62 1.224 . S
H71 C103 0.929 . S
H72 C105 0.930 . S
H73 C106 0.930 . S
H74 C104 0.929 . S
H75 C107 0.928 . S
O76 Co60 2.057 . S
O76 C64 1.232 . S
H77 C96 0.929 . S
H78 C97 0.929 . S
H79 C109 0.931 . S
H80 C101 0.929 . S
H81 C110 0.930 . S
H82 C102 0.931 . S
O83 Co59 2.097 . S
O83 C111 1.214 . S
H84 C112 0.929 . S
H85 C113 0.929 . S
H86 C114 0.930 . S
H87 C115 0.929 . S
H88 C117 0.930 . S
H89 C94 0.930 . S
H90 C98 0.930 . S
O91 Co60 2.037 . S
O91 C111 1.234 . S
C92 O66 1.269 . S
C92 O67 1.257 . S
C93 H68 0.930 . S
C93 C96 1.388 . S
C93 C98 1.418 . S
C94 H89 0.930 . S
C94 C97 1.404 . S
C94 C98 1.353 . S
N95 Co60 2.145 . S
N95 C96 1.397 . S
N95 C97 1.334 . S
C96 H77 0.929 . S
C96 C93 1.388 . S
C96 N95 1.397 . S
C97 H78 0.929 . S
C97 C94 1.404 . S
C97 N95 1.334 . S
C98 H90 0.930 . S
C98 C93 1.418 . S
C98 C94 1.353 . S
C99 H69 0.930 . S
C99 N100 1.330 . S
C99 C101 1.446 . S
N100 Co59 2.151 . S
N100 C99 1.330 . S
N100 C104 1.418 . S
C101 H80 0.929 . S
C101 C99 1.446 . S
C101 C102 1.332 . S
C102 H82 0.931 . S
C102 C101 1.332 . S
C102 C103 1.267 . S
C103 H71 0.929 . S
C103 C102 1.267 . S
C103 C104 1.251 . S
C104 H74 0.929 . S
C104 N100 1.418 . S
C104 C103 1.251 . S
C105 H72 0.930 . S
C105 C107 1.406 . S
C105 C110 1.261 . S
C106 H73 0.930 . S
C106 N108 1.325 . S
C106 C109 1.357 . S
C107 H75 0.928 . S
C107 C105 1.406 . S
C107 N108 1.261 . S
N108 Co59 2.214 . S
N108 C106 1.325 . S
N108 C107 1.261 . S
C109 H79 0.931 . S
C109 C106 1.357 . S
C109 C110 1.312 . S
C110 H81 0.930 . S
C110 C105 1.261 . S
C110 C109 1.312 . S
C111 O83 1.214 . S
C111 O91 1.234 . S
C112 H84 0.929 . S
C112 C115 1.391 . S
C112 C117 1.391 . S
C113 H85 0.929 . S
C113 C114 1.390 . S
C113 N116 1.391 . S
C114 H86 0.930 . S
C114 C113 1.390 . S
C114 C115 1.392 . S
C115 H87 0.929 . S
C115 C112 1.391 . S
C115 C114 1.392 . S
N116 Co60 2.257 . S
N116 C113 1.391 . S
N116 C117 1.388 . S
C117 H88 0.930 . S
C117 C112 1.391 . S
C117 N116 1.388 . S
Co118 O120 2.143 . S
Co118 O126 2.074 . S
Co118 O129 2.093 . S
Co118 O142 2.097 . S
Co118 N159 2.151 . S
Co118 N167 2.214 . S
Co119 O120 2.160 . S
Co119 O125 2.058 . S
Co119 O135 2.057 . S
Co119 O150 2.037 . S
Co119 N154 2.145 . S
Co119 N175 2.257 . S
O120 Co118 2.143 . S
O120 Co119 2.160 . S
C121 O122 1.278 . S
C121 O129 1.224 . S
O122 C121 1.278 . S
C123 O124 1.245 . S
C123 O135 1.232 . S
O124 C123 1.245 . S
O125 Co119 2.058 . S
O125 C151 1.269 . S
O126 Co118 2.074 . S
O126 C151 1.257 . S
H127 C152 0.930 . S
H128 C158 0.930 . S
O129 Co118 2.093 . S
O129 C121 1.224 . S
H130 C162 0.929 . S
H131 C164 0.930 . S
H132 C165 0.930 . S
H133 C163 0.929 . S
H134 C166 0.928 . S
O135 Co119 2.057 . S
O135 C123 1.232 . S
H136 C155 0.929 . S
H137 C156 0.929 . S
H138 C168 0.931 . S
H139 C160 0.929 . S
H140 C169 0.930 . S
H141 C161 0.931 . S
O142 Co118 2.097 . S
O142 C170 1.214 . S
H143 C171 0.929 . S
H144 C172 0.929 . S
H145 C173 0.930 . S
H146 C174 0.929 . S
H147 C176 0.930 . S
H148 C153 0.930 . S
H149 C157 0.930 . S
O150 Co119 2.037 . S
O150 C170 1.234 . S
C151 O125 1.269 . S
C151 O126 1.257 . S
C152 H127 0.930 . S
C152 C155 1.388 . S
C152 C157 1.418 . S
C153 H148 0.930 . S
C153 C156 1.404 . S
C153 C157 1.353 . S
N154 Co119 2.145 . S
N154 C155 1.397 . S
N154 C156 1.334 . S
C155 H136 0.929 . S
C155 C152 1.388 . S
C155 N154 1.397 . S
C156 H137 0.929 . S
C156 C153 1.404 . S
C156 N154 1.334 . S
C157 H149 0.930 . S
C157 C152 1.418 . S
C157 C153 1.353 . S
C158 H128 0.930 . S
C158 N159 1.330 . S
C158 C160 1.446 . S
N159 Co118 2.151 . S
N159 C158 1.330 . S
N159 C163 1.418 . S
C160 H139 0.929 . S
C160 C158 1.446 . S
C160 C161 1.332 . S
C161 H141 0.931 . S
C161 C160 1.332 . S
C161 C162 1.267 . S
C162 H130 0.929 . S
C162 C161 1.267 . S
C162 C163 1.251 . S
C163 H133 0.929 . S
C163 N159 1.418 . S
C163 C162 1.251 . S
C164 H131 0.930 . S
C164 C166 1.406 . S
C164 C169 1.261 . S
C165 H132 0.930 . S
C165 N167 1.325 . S
C165 C168 1.357 . S
C166 H134 0.928 . S
C166 C164 1.406 . S
C166 N167 1.261 . S
N167 Co118 2.214 . S
N167 C165 1.325 . S
N167 C166 1.261 . S
C168 H138 0.931 . S
C168 C165 1.357 . S
C168 C169 1.312 . S
C169 H140 0.930 . S
C169 C164 1.261 . S
C169 C168 1.312 . S
C170 O142 1.214 . S
C170 O150 1.234 . S
C171 H143 0.929 . S
C171 C174 1.391 . S
C171 C176 1.391 . S
C172 H144 0.929 . S
C172 C173 1.390 . S
C172 N175 1.391 . S
C173 H145 0.930 . S
C173 C172 1.390 . S
C173 C174 1.392 . S
C174 H146 0.929 . S
C174 C171 1.391 . S
C174 C173 1.392 . S
N175 Co119 2.257 . S
N175 C172 1.391 . S
N175 C176 1.388 . S
C176 H147 0.930 . S
C176 C171 1.391 . S
C176 N175 1.388 . S
Co177 O179 2.143 . S
Co177 O185 2.074 . S
Co177 O188 2.093 . S
Co177 O201 2.097 . S
Co177 N218 2.151 . S
Co177 N226 2.214 . S
Co178 O179 2.160 . S
Co178 O184 2.058 . S
Co178 O194 2.057 . S
Co178 O209 2.037 . S
Co178 N213 2.145 . S
Co178 N234 2.257 . S
O179 Co177 2.143 . S
O179 Co178 2.160 . S
C180 O181 1.278 . S
C180 O188 1.224 . S
O181 C180 1.278 . S
C182 O183 1.245 . S
C182 O194 1.232 . S
O183 C182 1.245 . S
O184 Co178 2.058 . S
O184 C210 1.269 . S
O185 Co177 2.074 . S
O185 C210 1.257 . S
H186 C211 0.930 . S
H187 C217 0.930 . S
O188 Co177 2.093 . S
O188 C180 1.224 . S
H189 C221 0.929 . S
H190 C223 0.930 . S
H191 C224 0.930 . S
H192 C222 0.929 . S
H193 C225 0.928 . S
O194 Co178 2.057 . S
O194 C182 1.232 . S
H195 C214 0.929 . S
H196 C215 0.929 . S
H197 C227 0.931 . S
H198 C219 0.929 . S
H199 C228 0.930 . S
H200 C220 0.931 . S
O201 Co177 2.097 . S
O201 C229 1.214 . S
H202 C230 0.929 . S
H203 C231 0.929 . S
H204 C232 0.930 . S
H205 C233 0.929 . S
H206 C235 0.930 . S
H207 C212 0.930 . S
H208 C216 0.930 . S
O209 Co178 2.037 . S
O209 C229 1.234 . S
C210 O184 1.269 . S
C210 O185 1.257 . S
C211 H186 0.930 . S
C211 C214 1.388 . S
C211 C216 1.418 . S
C212 H207 0.930 . S
C212 C215 1.404 . S
C212 C216 1.353 . S
N213 Co178 2.145 . S
N213 C214 1.397 . S
N213 C215 1.334 . S
C214 H195 0.929 . S
C214 C211 1.388 . S
C214 N213 1.397 . S
C215 H196 0.929 . S
C215 C212 1.404 . S
C215 N213 1.334 . S
C216 H208 0.930 . S
C216 C211 1.418 . S
C216 C212 1.353 . S
C217 H187 0.930 . S
C217 N218 1.330 . S
C217 C219 1.446 . S
N218 Co177 2.151 . S
N218 C217 1.330 . S
N218 C222 1.418 . S
C219 H198 0.929 . S
C219 C217 1.446 . S
C219 C220 1.332 . S
C220 H200 0.931 . S
C220 C219 1.332 . S
C220 C221 1.267 . S
C221 H189 0.929 . S
C221 C220 1.267 . S
C221 C222 1.251 . S
C222 H192 0.929 . S
C222 N218 1.418 . S
C222 C221 1.251 . S
C223 H190 0.930 . S
C223 C225 1.406 . S
C223 C228 1.261 . S
C224 H191 0.930 . S
C224 N226 1.325 . S
C224 C227 1.357 . S
C225 H193 0.928 . S
C225 C223 1.406 . S
C225 N226 1.261 . S
N226 Co177 2.214 . S
N226 C224 1.325 . S
N226 C225 1.261 . S
C227 H197 0.931 . S
C227 C224 1.357 . S
C227 C228 1.312 . S
C228 H199 0.930 . S
C228 C223 1.261 . S
C228 C227 1.312 . S
C229 O201 1.214 . S
C229 O209 1.234 . S
C230 H202 0.929 . S
C230 C233 1.391 . S
C230 C235 1.391 . S
C231 H203 0.929 . S
C231 C232 1.390 . S
C231 N234 1.391 . S
C232 H204 0.930 . S
C232 C231 1.390 . S
C232 C233 1.392 . S
C233 H205 0.929 . S
C233 C230 1.391 . S
C233 C232 1.392 . S
N234 Co178 2.257 . S
N234 C231 1.391 . S
N234 C235 1.388 . S
C235 H206 0.930 . S
C235 C230 1.391 . S
C235 N234 1.388 . S
Co236 O238 2.143 . S
Co236 O244 2.074 . S
Co236 O247 2.093 . S
Co236 O260 2.097 . S
Co236 N277 2.151 . S
Co236 N285 2.214 . S
Co237 O238 2.160 . S
Co237 O243 2.058 . S
Co237 O253 2.057 . S
Co237 O268 2.037 . S
Co237 N272 2.145 . S
Co237 N293 2.257 . S
O238 Co236 2.143 . S
O238 Co237 2.160 . S
C239 O240 1.278 . S
C239 O247 1.224 . S
O240 C239 1.278 . S
C241 O242 1.245 . S
C241 O253 1.232 . S
O242 C241 1.245 . S
O243 Co237 2.058 . S
O243 C269 1.269 . S
O244 Co236 2.074 . S
O244 C269 1.257 . S
H245 C270 0.930 . S
H246 C276 0.930 . S
O247 Co236 2.093 . S
O247 C239 1.224 . S
H248 C280 0.929 . S
H249 C282 0.930 . S
H250 C283 0.930 . S
H251 C281 0.929 . S
H252 C284 0.928 . S
O253 Co237 2.057 . S
O253 C241 1.232 . S
H254 C273 0.929 . S
H255 C274 0.929 . S
H256 C286 0.931 . S
H257 C278 0.929 . S
H258 C287 0.930 . S
H259 C279 0.931 . S
O260 Co236 2.097 . S
O260 C288 1.214 . S
H261 C289 0.929 . S
H262 C290 0.929 . S
H263 C291 0.930 . S
H264 C292 0.929 . S
H265 C294 0.930 . S
H266 C271 0.930 . S
H267 C275 0.930 . S
O268 Co237 2.037 . S
O268 C288 1.234 . S
C269 O243 1.269 . S
C269 O244 1.257 . S
C270 H245 0.930 . S
C270 C273 1.388 . S
C270 C275 1.418 . S
C271 H266 0.930 . S
C271 C274 1.404 . S
C271 C275 1.353 . S
N272 Co237 2.145 . S
N272 C273 1.397 . S
N272 C274 1.334 . S
C273 H254 0.929 . S
C273 C270 1.388 . S
C273 N272 1.397 . S
C274 H255 0.929 . S
C274 C271 1.404 . S
C274 N272 1.334 . S
C275 H267 0.930 . S
C275 C270 1.418 . S
C275 C271 1.353 . S
C276 H246 0.930 . S
C276 N277 1.330 . S
C276 C278 1.446 . S
N277 Co236 2.151 . S
N277 C276 1.330 . S
N277 C281 1.418 . S
C278 H257 0.929 . S
C278 C276 1.446 . S
C278 C279 1.332 . S
C279 H259 0.931 . S
C279 C278 1.332 . S
C279 C280 1.267 . S
C280 H248 0.929 . S
C280 C279 1.267 . S
C280 C281 1.251 . S
C281 H251 0.929 . S
C281 N277 1.418 . S
C281 C280 1.251 . S
C282 H249 0.930 . S
C282 C284 1.406 . S
C282 C287 1.261 . S
C283 H250 0.930 . S
C283 N285 1.325 . S
C283 C286 1.357 . S
C284 H252 0.928 . S
C284 C282 1.406 . S
C284 N285 1.261 . S
N285 Co236 2.214 . S
N285 C283 1.325 . S
N285 C284 1.261 . S
C286 H256 0.931 . S
C286 C283 1.357 . S
C286 C287 1.312 . S
C287 H258 0.930 . S
C287 C282 1.261 . S
C287 C286 1.312 . S
C288 O260 1.214 . S
C288 O268 1.234 . S
C289 H261 0.929 . S
C289 C292 1.391 . S
C289 C294 1.391 . S
C290 H262 0.929 . S
C290 C291 1.390 . S
C290 N293 1.391 . S
C291 H263 0.930 . S
C291 C290 1.390 . S
C291 C292 1.392 . S
C292 H264 0.929 . S
C292 C289 1.391 . S
C292 C291 1.392 . S
N293 Co237 2.257 . S
N293 C290 1.391 . S
N293 C294 1.388 . S
C294 H265 0.930 . S
C294 C289 1.391 . S
C294 N293 1.388 . S
Co295 O297 2.143 . S
Co295 O303 2.074 . S
Co295 O306 2.093 . S
Co295 O319 2.097 . S
Co295 N336 2.151 . S
Co295 N344 2.214 . S
Co296 O297 2.160 . S
Co296 O302 2.058 . S
Co296 O312 2.057 . S
Co296 O327 2.037 . S
Co296 N331 2.145 . S
Co296 N352 2.257 . S
O297 Co295 2.143 . S
O297 Co296 2.160 . S
C298 O299 1.278 . S
C298 O306 1.224 . S
O299 C298 1.278 . S
C300 O301 1.245 . S
C300 O312 1.232 . S
O301 C300 1.245 . S
O302 Co296 2.058 . S
O302 C328 1.269 . S
O303 Co295 2.074 . S
O303 C328 1.257 . S
H304 C329 0.930 . S
H305 C335 0.930 . S
O306 Co295 2.093 . S
O306 C298 1.224 . S
H307 C339 0.929 . S
H308 C341 0.930 . S
H309 C342 0.930 . S
H310 C340 0.929 . S
H311 C343 0.928 . S
O312 Co296 2.057 . S
O312 C300 1.232 . S
H313 C332 0.929 . S
H314 C333 0.929 . S
H315 C345 0.931 . S
H316 C337 0.929 . S
H317 C346 0.930 . S
H318 C338 0.931 . S
O319 Co295 2.097 . S
O319 C347 1.214 . S
H320 C348 0.929 . S
H321 C349 0.929 . S
H322 C350 0.930 . S
H323 C351 0.929 . S
H324 C353 0.930 . S
H325 C330 0.930 . S
H326 C334 0.930 . S
O327 Co296 2.037 . S
O327 C347 1.234 . S
C328 O302 1.269 . S
C328 O303 1.257 . S
C329 H304 0.930 . S
C329 C332 1.388 . S
C329 C334 1.418 . S
C330 H325 0.930 . S
C330 C333 1.404 . S
C330 C334 1.353 . S
N331 Co296 2.145 . S
N331 C332 1.397 . S
N331 C333 1.334 . S
C332 H313 0.929 . S
C332 C329 1.388 . S
C332 N331 1.397 . S
C333 H314 0.929 . S
C333 C330 1.404 . S
C333 N331 1.334 . S
C334 H326 0.930 . S
C334 C329 1.418 . S
C334 C330 1.353 . S
C335 H305 0.930 . S
C335 N336 1.330 . S
C335 C337 1.446 . S
N336 Co295 2.151 . S
N336 C335 1.330 . S
N336 C340 1.418 . S
C337 H316 0.929 . S
C337 C335 1.446 . S
C337 C338 1.332 . S
C338 H318 0.931 . S
C338 C337 1.332 . S
C338 C339 1.267 . S
C339 H307 0.929 . S
C339 C338 1.267 . S
C339 C340 1.251 . S
C340 H310 0.929 . S
C340 N336 1.418 . S
C340 C339 1.251 . S
C341 H308 0.930 . S
C341 C343 1.406 . S
C341 C346 1.261 . S
C342 H309 0.930 . S
C342 N344 1.325 . S
C342 C345 1.357 . S
C343 H311 0.928 . S
C343 C341 1.406 . S
C343 N344 1.261 . S
N344 Co295 2.214 . S
N344 C342 1.325 . S
N344 C343 1.261 . S
C345 H315 0.931 . S
C345 C342 1.357 . S
C345 C346 1.312 . S
C346 H317 0.930 . S
C346 C341 1.261 . S
C346 C345 1.312 . S
C347 O319 1.214 . S
C347 O327 1.234 . S
C348 H320 0.929 . S
C348 C351 1.391 . S
C348 C353 1.391 . S
C349 H321 0.929 . S
C349 C350 1.390 . S
C349 N352 1.391 . S
C350 H322 0.930 . S
C350 C349 1.390 . S
C350 C351 1.392 . S
C351 H323 0.929 . S
C351 C348 1.391 . S
C351 C350 1.392 . S
N352 Co296 2.257 . S
N352 C349 1.391 . S
N352 C353 1.388 . S
C353 H324 0.930 . S
C353 C348 1.391 . S
C353 N352 1.388 . S
Co354 O356 2.143 . S
Co354 O362 2.074 . S
Co354 O365 2.093 . S
Co354 O378 2.097 . S
Co354 N395 2.151 . S
Co354 N403 2.214 . S
Co355 O356 2.160 . S
Co355 O361 2.058 . S
Co355 O371 2.057 . S
Co355 O386 2.037 . S
Co355 N390 2.145 . S
Co355 N411 2.257 . S
O356 Co354 2.143 . S
O356 Co355 2.160 . S
C357 O358 1.278 . S
C357 O365 1.224 . S
O358 C357 1.278 . S
C359 O360 1.245 . S
C359 O371 1.232 . S
O360 C359 1.245 . S
O361 Co355 2.058 . S
O361 C387 1.269 . S
O362 Co354 2.074 . S
O362 C387 1.257 . S
H363 C388 0.930 . S
H364 C394 0.930 . S
O365 Co354 2.093 . S
O365 C357 1.224 . S
H366 C398 0.929 . S
H367 C400 0.930 . S
H368 C401 0.930 . S
H369 C399 0.929 . S
H370 C402 0.928 . S
O371 Co355 2.057 . S
O371 C359 1.232 . S
H372 C391 0.929 . S
H373 C392 0.929 . S
H374 C404 0.931 . S
H375 C396 0.929 . S
H376 C405 0.930 . S
H377 C397 0.931 . S
O378 Co354 2.097 . S
O378 C406 1.214 . S
H379 C407 0.929 . S
H380 C408 0.929 . S
H381 C409 0.930 . S
H382 C410 0.929 . S
H383 C412 0.930 . S
H384 C389 0.930 . S
H385 C393 0.930 . S
O386 Co355 2.037 . S
O386 C406 1.234 . S
C387 O361 1.269 . S
C387 O362 1.257 . S
C388 H363 0.930 . S
C388 C391 1.388 . S
C388 C393 1.418 . S
C389 H384 0.930 . S
C389 C392 1.404 . S
C389 C393 1.353 . S
N390 Co355 2.145 . S
N390 C391 1.397 . S
N390 C392 1.334 . S
C391 H372 0.929 . S
C391 C388 1.388 . S
C391 N390 1.397 . S
C392 H373 0.929 . S
C392 C389 1.404 . S
C392 N390 1.334 . S
C393 H385 0.930 . S
C393 C388 1.418 . S
C393 C389 1.353 . S
C394 H364 0.930 . S
C394 N395 1.330 . S
C394 C396 1.446 . S
N395 Co354 2.151 . S
N395 C394 1.330 . S
N395 C399 1.418 . S
C396 H375 0.929 . S
C396 C394 1.446 . S
C396 C397 1.332 . S
C397 H377 0.931 . S
C397 C396 1.332 . S
C397 C398 1.267 . S
C398 H366 0.929 . S
C398 C397 1.267 . S
C398 C399 1.251 . S
C399 H369 0.929 . S
C399 N395 1.418 . S
C399 C398 1.251 . S
C400 H367 0.930 . S
C400 C402 1.406 . S
C400 C405 1.261 . S
C401 H368 0.930 . S
C401 N403 1.325 . S
C401 C404 1.357 . S
C402 H370 0.928 . S
C402 C400 1.406 . S
C402 N403 1.261 . S
N403 Co354 2.214 . S
N403 C401 1.325 . S
N403 C402 1.261 . S
C404 H374 0.931 . S
C404 C401 1.357 . S
C404 C405 1.312 . S
C405 H376 0.930 . S
C405 C400 1.261 . S
C405 C404 1.312 . S
C406 O378 1.214 . S
C406 O386 1.234 . S
C407 H379 0.929 . S
C407 C410 1.391 . S
C407 C412 1.391 . S
C408 H380 0.929 . S
C408 C409 1.390 . S
C408 N411 1.391 . S
C409 H381 0.930 . S
C409 C408 1.390 . S
C409 C410 1.392 . S
C410 H382 0.929 . S
C410 C407 1.391 . S
C410 C409 1.392 . S
N411 Co355 2.257 . S
N411 C408 1.391 . S
N411 C412 1.388 . S
C412 H383 0.930 . S
C412 C407 1.391 . S
C412 N411 1.388 . S
Co413 O415 2.143 . S
Co413 O421 2.074 . S
Co413 O424 2.093 . S
Co413 O437 2.097 . S
Co413 N454 2.151 . S
Co413 N462 2.214 . S
Co414 O415 2.160 . S
Co414 O420 2.058 . S
Co414 O430 2.057 . S
Co414 O445 2.037 . S
Co414 N449 2.145 . S
Co414 N470 2.257 . S
O415 Co413 2.143 . S
O415 Co414 2.160 . S
C416 O417 1.278 . S
C416 O424 1.224 . S
O417 C416 1.278 . S
C418 O419 1.245 . S
C418 O430 1.232 . S
O419 C418 1.245 . S
O420 Co414 2.058 . S
O420 C446 1.269 . S
O421 Co413 2.074 . S
O421 C446 1.257 . S
H422 C447 0.930 . S
H423 C453 0.930 . S
O424 Co413 2.093 . S
O424 C416 1.224 . S
H425 C457 0.929 . S
H426 C459 0.930 . S
H427 C460 0.930 . S
H428 C458 0.929 . S
H429 C461 0.928 . S
O430 Co414 2.057 . S
O430 C418 1.232 . S
H431 C450 0.929 . S
H432 C451 0.929 . S
H433 C463 0.931 . S
H434 C455 0.929 . S
H435 C464 0.930 . S
H436 C456 0.931 . S
O437 Co413 2.097 . S
O437 C465 1.214 . S
H438 C466 0.929 . S
H439 C467 0.929 . S
H440 C468 0.930 . S
H441 C469 0.929 . S
H442 C471 0.930 . S
H443 C448 0.930 . S
H444 C452 0.930 . S
O445 Co414 2.037 . S
O445 C465 1.234 . S
C446 O420 1.269 . S
C446 O421 1.257 . S
C447 H422 0.930 . S
C447 C450 1.388 . S
C447 C452 1.418 . S
C448 H443 0.930 . S
C448 C451 1.404 . S
C448 C452 1.353 . S
N449 Co414 2.145 . S
N449 C450 1.397 . S
N449 C451 1.334 . S
C450 H431 0.929 . S
C450 C447 1.388 . S
C450 N449 1.397 . S
C451 H432 0.929 . S
C451 C448 1.404 . S
C451 N449 1.334 . S
C452 H444 0.930 . S
C452 C447 1.418 . S
C452 C448 1.353 . S
C453 H423 0.930 . S
C453 N454 1.330 . S
C453 C455 1.446 . S
N454 Co413 2.151 . S
N454 C453 1.330 . S
N454 C458 1.418 . S
C455 H434 0.929 . S
C455 C453 1.446 . S
C455 C456 1.332 . S
C456 H436 0.931 . S
C456 C455 1.332 . S
C456 C457 1.267 . S
C457 H425 0.929 . S
C457 C456 1.267 . S
C457 C458 1.251 . S
C458 H428 0.929 . S
C458 N454 1.418 . S
C458 C457 1.251 . S
C459 H426 0.930 . S
C459 C461 1.406 . S
C459 C464 1.261 . S
C460 H427 0.930 . S
C460 N462 1.325 . S
C460 C463 1.357 . S
C461 H429 0.928 . S
C461 C459 1.406 . S
C461 N462 1.261 . S
N462 Co413 2.214 . S
N462 C460 1.325 . S
N462 C461 1.261 . S
C463 H433 0.931 . S
C463 C460 1.357 . S
C463 C464 1.312 . S
C464 H435 0.930 . S
C464 C459 1.261 . S
C464 C463 1.312 . S
C465 O437 1.214 . S
C465 O445 1.234 . S
C466 H438 0.929 . S
C466 C469 1.391 . S
C466 C471 1.391 . S
C467 H439 0.929 . S
C467 C468 1.390 . S
C467 N470 1.391 . S
C468 H440 0.930 . S
C468 C467 1.390 . S
C468 C469 1.392 . S
C469 H441 0.929 . S
C469 C466 1.391 . S
C469 C468 1.392 . S
N470 Co414 2.257 . S
N470 C467 1.391 . S
N470 C471 1.388 . S
C471 H442 0.930 . S
C471 C466 1.391 . S
C471 N470 1.388 . S
Co472 O474 2.143 . S
Co472 O480 2.074 . S
Co472 O483 2.093 . S
Co472 O496 2.097 . S
Co472 N513 2.151 . S
Co472 N521 2.214 . S
Co473 O474 2.160 . S
Co473 O479 2.058 . S
Co473 O489 2.057 . S
Co473 O504 2.037 . S
Co473 N508 2.145 . S
Co473 N529 2.257 . S
O474 Co472 2.143 . S
O474 Co473 2.160 . S
C475 O476 1.278 . S
C475 O483 1.224 . S
O476 C475 1.278 . S
C477 O478 1.245 . S
C477 O489 1.232 . S
O478 C477 1.245 . S
O479 Co473 2.058 . S
O479 C505 1.269 . S
O480 Co472 2.074 . S
O480 C505 1.257 . S
H481 C506 0.930 . S
H482 C512 0.930 . S
O483 Co472 2.093 . S
O483 C475 1.224 . S
H484 C516 0.929 . S
H485 C518 0.930 . S
H486 C519 0.930 . S
H487 C517 0.929 . S
H488 C520 0.928 . S
O489 Co473 2.057 . S
O489 C477 1.232 . S
H490 C509 0.929 . S
H491 C510 0.929 . S
H492 C522 0.931 . S
H493 C514 0.929 . S
H494 C523 0.930 . S
H495 C515 0.931 . S
O496 Co472 2.097 . S
O496 C524 1.214 . S
H497 C525 0.929 . S
H498 C526 0.929 . S
H499 C527 0.930 . S
H500 C528 0.929 . S
H501 C530 0.930 . S
H502 C507 0.930 . S
H503 C511 0.930 . S
O504 Co473 2.037 . S
O504 C524 1.234 . S
C505 O479 1.269 . S
C505 O480 1.257 . S
C506 H481 0.930 . S
C506 C509 1.388 . S
C506 C511 1.418 . S
C507 H502 0.930 . S
C507 C510 1.404 . S
C507 C511 1.353 . S
N508 Co473 2.145 . S
N508 C509 1.397 . S
N508 C510 1.334 . S
C509 H490 0.929 . S
C509 C506 1.388 . S
C509 N508 1.397 . S
C510 H491 0.929 . S
C510 C507 1.404 . S
C510 N508 1.334 . S
C511 H503 0.930 . S
C511 C506 1.418 . S
C511 C507 1.353 . S
C512 H482 0.930 . S
C512 N513 1.330 . S
C512 C514 1.446 . S
N513 Co472 2.151 . S
N513 C512 1.330 . S
N513 C517 1.418 . S
C514 H493 0.929 . S
C514 C512 1.446 . S
C514 C515 1.332 . S
C515 H495 0.931 . S
C515 C514 1.332 . S
C515 C516 1.267 . S
C516 H484 0.929 . S
C516 C515 1.267 . S
C516 C517 1.251 . S
C517 H487 0.929 . S
C517 N513 1.418 . S
C517 C516 1.251 . S
C518 H485 0.930 . S
C518 C520 1.406 . S
C518 C523 1.261 . S
C519 H486 0.930 . S
C519 N521 1.325 . S
C519 C522 1.357 . S
C520 H488 0.928 . S
C520 C518 1.406 . S
C520 N521 1.261 . S
N521 Co472 2.214 . S
N521 C519 1.325 . S
N521 C520 1.261 . S
C522 H492 0.931 . S
C522 C519 1.357 . S
C522 C523 1.312 . S
C523 H494 0.930 . S
C523 C518 1.261 . S
C523 C522 1.312 . S
C524 O496 1.214 . S
C524 O504 1.234 . S
C525 H497 0.929 . S
C525 C528 1.391 . S
C525 C530 1.391 . S
C526 H498 0.929 . S
C526 C527 1.390 . S
C526 N529 1.391 . S
C527 H499 0.930 . S
C527 C526 1.390 . S
C527 C528 1.392 . S
C528 H500 0.929 . S
C528 C525 1.391 . S
C528 C527 1.392 . S
N529 Co473 2.257 . S
N529 C526 1.391 . S
N529 C530 1.388 . S
C530 H501 0.930 . S
C530 C525 1.391 . S
C530 N529 1.388 . S
Co531 O533 2.143 . S
Co531 O539 2.074 . S
Co531 O542 2.093 . S
Co531 O555 2.097 . S
Co531 N572 2.151 . S
Co531 N580 2.214 . S
Co532 O533 2.160 . S
Co532 O538 2.058 . S
Co532 O548 2.057 . S
Co532 O563 2.037 . S
Co532 N567 2.145 . S
Co532 N588 2.257 . S
O533 Co531 2.143 . S
O533 Co532 2.160 . S
C534 O535 1.278 . S
C534 O542 1.224 . S
O535 C534 1.278 . S
C536 O537 1.245 . S
C536 O548 1.232 . S
O537 C536 1.245 . S
O538 Co532 2.058 . S
O538 C564 1.269 . S
O539 Co531 2.074 . S
O539 C564 1.257 . S
H540 C565 0.930 . S
H541 C571 0.930 . S
O542 Co531 2.093 . S
O542 C534 1.224 . S
H543 C575 0.929 . S
H544 C577 0.930 . S
H545 C578 0.930 . S
H546 C576 0.929 . S
H547 C579 0.928 . S
O548 Co532 2.057 . S
O548 C536 1.232 . S
H549 C568 0.929 . S
H550 C569 0.929 . S
H551 C581 0.931 . S
H552 C573 0.929 . S
H553 C582 0.930 . S
H554 C574 0.931 . S
O555 Co531 2.097 . S
O555 C583 1.214 . S
H556 C584 0.929 . S
H557 C585 0.929 . S
H558 C586 0.930 . S
H559 C587 0.929 . S
H560 C589 0.930 . S
H561 C566 0.930 . S
H562 C570 0.930 . S
O563 Co532 2.037 . S
O563 C583 1.234 . S
C564 O538 1.269 . S
C564 O539 1.257 . S
C565 H540 0.930 . S
C565 C568 1.388 . S
C565 C570 1.418 . S
C566 H561 0.930 . S
C566 C569 1.404 . S
C566 C570 1.353 . S
N567 Co532 2.145 . S
N567 C568 1.397 . S
N567 C569 1.334 . S
C568 H549 0.929 . S
C568 C565 1.388 . S
C568 N567 1.397 . S
C569 H550 0.929 . S
C569 C566 1.404 . S
C569 N567 1.334 . S
C570 H562 0.930 . S
C570 C565 1.418 . S
C570 C566 1.353 . S
C571 H541 0.930 . S
C571 N572 1.330 . S
C571 C573 1.446 . S
N572 Co531 2.151 . S
N572 C571 1.330 . S
N572 C576 1.418 . S
C573 H552 0.929 . S
C573 C571 1.446 . S
C573 C574 1.332 . S
C574 H554 0.931 . S
C574 C573 1.332 . S
C574 C575 1.267 . S
C575 H543 0.929 . S
C575 C574 1.267 . S
C575 C576 1.251 . S
C576 H546 0.929 . S
C576 N572 1.418 . S
C576 C575 1.251 . S
C577 H544 0.930 . S
C577 C579 1.406 . S
C577 C582 1.261 . S
C578 H545 0.930 . S
C578 N580 1.325 . S
C578 C581 1.357 . S
C579 H547 0.928 . S
C579 C577 1.406 . S
C579 N580 1.261 . S
N580 Co531 2.214 . S
N580 C578 1.325 . S
N580 C579 1.261 . S
C581 H551 0.931 . S
C581 C578 1.357 . S
C581 C582 1.312 . S
C582 H553 0.930 . S
C582 C577 1.261 . S
C582 C581 1.312 . S
C583 O555 1.214 . S
C583 O563 1.234 . S
C584 H556 0.929 . S
C584 C587 1.391 . S
C584 C589 1.391 . S
C585 H557 0.929 . S
C585 C586 1.390 . S
C585 N588 1.391 . S
C586 H558 0.930 . S
C586 C585 1.390 . S
C586 C587 1.392 . S
C587 H559 0.929 . S
C587 C584 1.391 . S
C587 C586 1.392 . S
N588 Co532 2.257 . S
N588 C585 1.391 . S
N588 C589 1.388 . S
C589 H560 0.930 . S
C589 C584 1.391 . S
C589 N588 1.388 . S
Co590 O592 2.143 . S
Co590 O598 2.074 . S
Co590 O601 2.093 . S
Co590 O614 2.097 . S
Co590 N631 2.151 . S
Co590 N639 2.214 . S
Co591 O592 2.160 . S
Co591 O597 2.058 . S
Co591 O607 2.057 . S
Co591 O622 2.037 . S
Co591 N626 2.145 . S
Co591 N647 2.257 . S
O592 Co590 2.143 . S
O592 Co591 2.160 . S
C593 O594 1.278 . S
C593 O601 1.224 . S
O594 C593 1.278 . S
C595 O596 1.245 . S
C595 O607 1.232 . S
O596 C595 1.245 . S
O597 Co591 2.058 . S
O597 C623 1.269 . S
O598 Co590 2.074 . S
O598 C623 1.257 . S
H599 C624 0.930 . S
H600 C630 0.930 . S
O601 Co590 2.093 . S
O601 C593 1.224 . S
H602 C634 0.929 . S
H603 C636 0.930 . S
H604 C637 0.930 . S
H605 C635 0.929 . S
H606 C638 0.928 . S
O607 Co591 2.057 . S
O607 C595 1.232 . S
H608 C627 0.929 . S
H609 C628 0.929 . S
H610 C640 0.931 . S
H611 C632 0.929 . S
H612 C641 0.930 . S
H613 C633 0.931 . S
O614 Co590 2.097 . S
O614 C642 1.214 . S
H615 C643 0.929 . S
H616 C644 0.929 . S
H617 C645 0.930 . S
H618 C646 0.929 . S
H619 C648 0.930 . S
H620 C625 0.930 . S
H621 C629 0.930 . S
O622 Co591 2.037 . S
O622 C642 1.234 . S
C623 O597 1.269 . S
C623 O598 1.257 . S
C624 H599 0.930 . S
C624 C627 1.388 . S
C624 C629 1.418 . S
C625 H620 0.930 . S
C625 C628 1.404 . S
C625 C629 1.353 . S
N626 Co591 2.145 . S
N626 C627 1.397 . S
N626 C628 1.334 . S
C627 H608 0.929 . S
C627 C624 1.388 . S
C627 N626 1.397 . S
C628 H609 0.929 . S
C628 C625 1.404 . S
C628 N626 1.334 . S
C629 H621 0.930 . S
C629 C624 1.418 . S
C629 C625 1.353 . S
C630 H600 0.930 . S
C630 N631 1.330 . S
C630 C632 1.446 . S
N631 Co590 2.151 . S
N631 C630 1.330 . S
N631 C635 1.418 . S
C632 H611 0.929 . S
C632 C630 1.446 . S
C632 C633 1.332 . S
C633 H613 0.931 . S
C633 C632 1.332 . S
C633 C634 1.267 . S
C634 H602 0.929 . S
C634 C633 1.267 . S
C634 C635 1.251 . S
C635 H605 0.929 . S
C635 N631 1.418 . S
C635 C634 1.251 . S
C636 H603 0.930 . S
C636 C638 1.406 . S
C636 C641 1.261 . S
C637 H604 0.930 . S
C637 N639 1.325 . S
C637 C640 1.357 . S
C638 H606 0.928 . S
C638 C636 1.406 . S
C638 N639 1.261 . S
N639 Co590 2.214 . S
N639 C637 1.325 . S
N639 C638 1.261 . S
C640 H610 0.931 . S
C640 C637 1.357 . S
C640 C641 1.312 . S
C641 H612 0.930 . S
C641 C636 1.261 . S
C641 C640 1.312 . S
C642 O614 1.214 . S
C642 O622 1.234 . S
C643 H615 0.929 . S
C643 C646 1.391 . S
C643 C648 1.391 . S
C644 H616 0.929 . S
C644 C645 1.390 . S
C644 N647 1.391 . S
C645 H617 0.930 . S
C645 C644 1.390 . S
C645 C646 1.392 . S
C646 H618 0.929 . S
C646 C643 1.391 . S
C646 C645 1.392 . S
N647 Co591 2.257 . S
N647 C644 1.391 . S
N647 C648 1.388 . S
C648 H619 0.930 . S
C648 C643 1.391 . S
C648 N647 1.388 . S
Co649 O651 2.143 . S
Co649 O657 2.074 . S
Co649 O660 2.093 . S
Co649 O673 2.097 . S
Co649 N690 2.151 . S
Co649 N698 2.214 . S
Co650 O651 2.160 . S
Co650 O656 2.058 . S
Co650 O666 2.057 . S
Co650 O681 2.037 . S
Co650 N685 2.145 . S
Co650 N706 2.257 . S
O651 Co649 2.143 . S
O651 Co650 2.160 . S
C652 O653 1.278 . S
C652 O660 1.224 . S
O653 C652 1.278 . S
C654 O655 1.245 . S
C654 O666 1.232 . S
O655 C654 1.245 . S
O656 Co650 2.058 . S
O656 C682 1.269 . S
O657 Co649 2.074 . S
O657 C682 1.257 . S
H658 C683 0.930 . S
H659 C689 0.930 . S
O660 Co649 2.093 . S
O660 C652 1.224 . S
H661 C693 0.929 . S
H662 C695 0.930 . S
H663 C696 0.930 . S
H664 C694 0.929 . S
H665 C697 0.928 . S
O666 Co650 2.057 . S
O666 C654 1.232 . S
H667 C686 0.929 . S
H668 C687 0.929 . S
H669 C699 0.931 . S
H670 C691 0.929 . S
H671 C700 0.930 . S
H672 C692 0.931 . S
O673 Co649 2.097 . S
O673 C701 1.214 . S
H674 C702 0.929 . S
H675 C703 0.929 . S
H676 C704 0.930 . S
H677 C705 0.929 . S
H678 C707 0.930 . S
H679 C684 0.930 . S
H680 C688 0.930 . S
O681 Co650 2.037 . S
O681 C701 1.234 . S
C682 O656 1.269 . S
C682 O657 1.257 . S
C683 H658 0.930 . S
C683 C686 1.388 . S
C683 C688 1.418 . S
C684 H679 0.930 . S
C684 C687 1.404 . S
C684 C688 1.353 . S
N685 Co650 2.145 . S
N685 C686 1.397 . S
N685 C687 1.334 . S
C686 H667 0.929 . S
C686 C683 1.388 . S
C686 N685 1.397 . S
C687 H668 0.929 . S
C687 C684 1.404 . S
C687 N685 1.334 . S
C688 H680 0.930 . S
C688 C683 1.418 . S
C688 C684 1.353 . S
C689 H659 0.930 . S
C689 N690 1.330 . S
C689 C691 1.446 . S
N690 Co649 2.151 . S
N690 C689 1.330 . S
N690 C694 1.418 . S
C691 H670 0.929 . S
C691 C689 1.446 . S
C691 C692 1.332 . S
C692 H672 0.931 . S
C692 C691 1.332 . S
C692 C693 1.267 . S
C693 H661 0.929 . S
C693 C692 1.267 . S
C693 C694 1.251 . S
C694 H664 0.929 . S
C694 N690 1.418 . S
C694 C693 1.251 . S
C695 H662 0.930 . S
C695 C697 1.406 . S
C695 C700 1.261 . S
C696 H663 0.930 . S
C696 N698 1.325 . S
C696 C699 1.357 . S
C697 H665 0.928 . S
C697 C695 1.406 . S
C697 N698 1.261 . S
N698 Co649 2.214 . S
N698 C696 1.325 . S
N698 C697 1.261 . S
C699 H669 0.931 . S
C699 C696 1.357 . S
C699 C700 1.312 . S
C700 H671 0.930 . S
C700 C695 1.261 . S
C700 C699 1.312 . S
C701 O673 1.214 . S
C701 O681 1.234 . S
C702 H674 0.929 . S
C702 C705 1.391 . S
C702 C707 1.391 . S
C703 H675 0.929 . S
C703 C704 1.390 . S
C703 N706 1.391 . S
C704 H676 0.930 . S
C704 C703 1.390 . S
C704 C705 1.392 . S
C705 H677 0.929 . S
C705 C702 1.391 . S
C705 C704 1.392 . S
N706 Co650 2.257 . S
N706 C703 1.391 . S
N706 C707 1.388 . S
C707 H678 0.930 . S
C707 C702 1.391 . S
C707 N706 1.388 . S
Co708 O710 2.143 . S
Co708 O716 2.074 . S
Co708 O719 2.093 . S
Co708 O732 2.097 . S
Co708 N749 2.151 . S
Co708 N757 2.214 . S
Co709 O710 2.160 . S
Co709 O715 2.058 . S
Co709 O725 2.057 . S
Co709 O740 2.037 . S
Co709 N744 2.145 . S
Co709 N765 2.257 . S
O710 Co708 2.143 . S
O710 Co709 2.160 . S
C711 O712 1.278 . S
C711 O719 1.224 . S
O712 C711 1.278 . S
C713 O714 1.245 . S
C713 O725 1.232 . S
O714 C713 1.245 . S
O715 Co709 2.058 . S
O715 C741 1.269 . S
O716 Co708 2.074 . S
O716 C741 1.257 . S
H717 C742 0.930 . S
H718 C748 0.930 . S
O719 Co708 2.093 . S
O719 C711 1.224 . S
H720 C752 0.929 . S
H721 C754 0.930 . S
H722 C755 0.930 . S
H723 C753 0.929 . S
H724 C756 0.928 . S
O725 Co709 2.057 . S
O725 C713 1.232 . S
H726 C745 0.929 . S
H727 C746 0.929 . S
H728 C758 0.931 . S
H729 C750 0.929 . S
H730 C759 0.930 . S
H731 C751 0.931 . S
O732 Co708 2.097 . S
O732 C760 1.214 . S
H733 C761 0.929 . S
H734 C762 0.929 . S
H735 C763 0.930 . S
H736 C764 0.929 . S
H737 C766 0.930 . S
H738 C743 0.930 . S
H739 C747 0.930 . S
O740 Co709 2.037 . S
O740 C760 1.234 . S
C741 O715 1.269 . S
C741 O716 1.257 . S
C742 H717 0.930 . S
C742 C745 1.388 . S
C742 C747 1.418 . S
C743 H738 0.930 . S
C743 C746 1.404 . S
C743 C747 1.353 . S
N744 Co709 2.145 . S
N744 C745 1.397 . S
N744 C746 1.334 . S
C745 H726 0.929 . S
C745 C742 1.388 . S
C745 N744 1.397 . S
C746 H727 0.929 . S
C746 C743 1.404 . S
C746 N744 1.334 . S
C747 H739 0.930 . S
C747 C742 1.418 . S
C747 C743 1.353 . S
C748 H718 0.930 . S
C748 N749 1.330 . S
C748 C750 1.446 . S
N749 Co708 2.151 . S
N749 C748 1.330 . S
N749 C753 1.418 . S
C750 H729 0.929 . S
C750 C748 1.446 . S
C750 C751 1.332 . S
C751 H731 0.931 . S
C751 C750 1.332 . S
C751 C752 1.267 . S
C752 H720 0.929 . S
C752 C751 1.267 . S
C752 C753 1.251 . S
C753 H723 0.929 . S
C753 N749 1.418 . S
C753 C752 1.251 . S
C754 H721 0.930 . S
C754 C756 1.406 . S
C754 C759 1.261 . S
C755 H722 0.930 . S
C755 N757 1.325 . S
C755 C758 1.357 . S
C756 H724 0.928 . S
C756 C754 1.406 . S
C756 N757 1.261 . S
N757 Co708 2.214 . S
N757 C755 1.325 . S
N757 C756 1.261 . S
C758 H728 0.931 . S
C758 C755 1.357 . S
C758 C759 1.312 . S
C759 H730 0.930 . S
C759 C754 1.261 . S
C759 C758 1.312 . S
C760 O732 1.214 . S
C760 O740 1.234 . S
C761 H733 0.929 . S
C761 C764 1.391 . S
C761 C766 1.391 . S
C762 H734 0.929 . S
C762 C763 1.390 . S
C762 N765 1.391 . S
C763 H735 0.930 . S
C763 C762 1.390 . S
C763 C764 1.392 . S
C764 H736 0.929 . S
C764 C761 1.391 . S
C764 C763 1.392 . S
N765 Co709 2.257 . S
N765 C762 1.391 . S
N765 C766 1.388 . S
C766 H737 0.930 . S
C766 C761 1.391 . S
C766 N765 1.388 . S
Co767 O769 2.143 . S
Co767 O775 2.074 . S
Co767 O778 2.093 . S
Co767 O791 2.097 . S
Co767 N808 2.151 . S
Co767 N816 2.214 . S
Co768 O769 2.160 . S
Co768 O774 2.058 . S
Co768 O784 2.057 . S
Co768 O799 2.037 . S
Co768 N803 2.145 . S
Co768 N824 2.257 . S
O769 Co767 2.143 . S
O769 Co768 2.160 . S
C770 O771 1.278 . S
C770 O778 1.224 . S
O771 C770 1.278 . S
C772 O773 1.245 . S
C772 O784 1.232 . S
O773 C772 1.245 . S
O774 Co768 2.058 . S
O774 C800 1.269 . S
O775 Co767 2.074 . S
O775 C800 1.257 . S
H776 C801 0.930 . S
H777 C807 0.930 . S
O778 Co767 2.093 . S
O778 C770 1.224 . S
H779 C811 0.929 . S
H780 C813 0.930 . S
H781 C814 0.930 . S
H782 C812 0.929 . S
H783 C815 0.928 . S
O784 Co768 2.057 . S
O784 C772 1.232 . S
H785 C804 0.929 . S
H786 C805 0.929 . S
H787 C817 0.931 . S
H788 C809 0.929 . S
H789 C818 0.930 . S
H790 C810 0.931 . S
O791 Co767 2.097 . S
O791 C819 1.214 . S
H792 C820 0.929 . S
H793 C821 0.929 . S
H794 C822 0.930 . S
H795 C823 0.929 . S
H796 C825 0.930 . S
H797 C802 0.930 . S
H798 C806 0.930 . S
O799 Co768 2.037 . S
O799 C819 1.234 . S
C800 O774 1.269 . S
C800 O775 1.257 . S
C801 H776 0.930 . S
C801 C804 1.388 . S
C801 C806 1.418 . S
C802 H797 0.930 . S
C802 C805 1.404 . S
C802 C806 1.353 . S
N803 Co768 2.145 . S
N803 C804 1.397 . S
N803 C805 1.334 . S
C804 H785 0.929 . S
C804 C801 1.388 . S
C804 N803 1.397 . S
C805 H786 0.929 . S
C805 C802 1.404 . S
C805 N803 1.334 . S
C806 H798 0.930 . S
C806 C801 1.418 . S
C806 C802 1.353 . S
C807 H777 0.930 . S
C807 N808 1.330 . S
C807 C809 1.446 . S
N808 Co767 2.151 . S
N808 C807 1.330 . S
N808 C812 1.418 . S
C809 H788 0.929 . S
C809 C807 1.446 . S
C809 C810 1.332 . S
C810 H790 0.931 . S
C810 C809 1.332 . S
C810 C811 1.267 . S
C811 H779 0.929 . S
C811 C810 1.267 . S
C811 C812 1.251 . S
C812 H782 0.929 . S
C812 N808 1.418 . S
C812 C811 1.251 . S
C813 H780 0.930 . S
C813 C815 1.406 . S
C813 C818 1.261 . S
C814 H781 0.930 . S
C814 N816 1.325 . S
C814 C817 1.357 . S
C815 H783 0.928 . S
C815 C813 1.406 . S
C815 N816 1.261 . S
N816 Co767 2.214 . S
N816 C814 1.325 . S
N816 C815 1.261 . S
C817 H787 0.931 . S
C817 C814 1.357 . S
C817 C818 1.312 . S
C818 H789 0.930 . S
C818 C813 1.261 . S
C818 C817 1.312 . S
C819 O791 1.214 . S
C819 O799 1.234 . S
C820 H792 0.929 . S
C820 C823 1.391 . S
C820 C825 1.391 . S
C821 H793 0.929 . S
C821 C822 1.390 . S
C821 N824 1.391 . S
C822 H794 0.930 . S
C822 C821 1.390 . S
C822 C823 1.392 . S
C823 H795 0.929 . S
C823 C820 1.391 . S
C823 C822 1.392 . S
N824 Co768 2.257 . S
N824 C821 1.391 . S
N824 C825 1.388 . S
C825 H796 0.930 . S
C825 C820 1.391 . S
C825 N824 1.388 . S
Co826 O828 2.143 . S
Co826 O834 2.074 . S
Co826 O837 2.093 . S
Co826 O850 2.097 . S
Co826 N867 2.151 . S
Co826 N875 2.214 . S
Co827 O828 2.160 . S
Co827 O833 2.058 . S
Co827 O843 2.057 . S
Co827 O858 2.037 . S
Co827 N862 2.145 . S
Co827 N883 2.257 . S
O828 Co826 2.143 . S
O828 Co827 2.160 . S
C829 O830 1.278 . S
C829 O837 1.224 . S
O830 C829 1.278 . S
C831 O832 1.245 . S
C831 O843 1.232 . S
O832 C831 1.245 . S
O833 Co827 2.058 . S
O833 C859 1.269 . S
O834 Co826 2.074 . S
O834 C859 1.257 . S
H835 C860 0.930 . S
H836 C866 0.930 . S
O837 Co826 2.093 . S
O837 C829 1.224 . S
H838 C870 0.929 . S
H839 C872 0.930 . S
H840 C873 0.930 . S
H841 C871 0.929 . S
H842 C874 0.928 . S
O843 Co827 2.057 . S
O843 C831 1.232 . S
H844 C863 0.929 . S
H845 C864 0.929 . S
H846 C876 0.931 . S
H847 C868 0.929 . S
H848 C877 0.930 . S
H849 C869 0.931 . S
O850 Co826 2.097 . S
O850 C878 1.214 . S
H851 C879 0.929 . S
H852 C880 0.929 . S
H853 C881 0.930 . S
H854 C882 0.929 . S
H855 C884 0.930 . S
H856 C861 0.930 . S
H857 C865 0.930 . S
O858 Co827 2.037 . S
O858 C878 1.234 . S
C859 O833 1.269 . S
C859 O834 1.257 . S
C860 H835 0.930 . S
C860 C863 1.388 . S
C860 C865 1.418 . S
C861 H856 0.930 . S
C861 C864 1.404 . S
C861 C865 1.353 . S
N862 Co827 2.145 . S
N862 C863 1.397 . S
N862 C864 1.334 . S
C863 H844 0.929 . S
C863 C860 1.388 . S
C863 N862 1.397 . S
C864 H845 0.929 . S
C864 C861 1.404 . S
C864 N862 1.334 . S
C865 H857 0.930 . S
C865 C860 1.418 . S
C865 C861 1.353 . S
C866 H836 0.930 . S
C866 N867 1.330 . S
C866 C868 1.446 . S
N867 Co826 2.151 . S
N867 C866 1.330 . S
N867 C871 1.418 . S
C868 H847 0.929 . S
C868 C866 1.446 . S
C868 C869 1.332 . S
C869 H849 0.931 . S
C869 C868 1.332 . S
C869 C870 1.267 . S
C870 H838 0.929 . S
C870 C869 1.267 . S
C870 C871 1.251 . S
C871 H841 0.929 . S
C871 N867 1.418 . S
C871 C870 1.251 . S
C872 H839 0.930 . S
C872 C874 1.406 . S
C872 C877 1.261 . S
C873 H840 0.930 . S
C873 N875 1.325 . S
C873 C876 1.357 . S
C874 H842 0.928 . S
C874 C872 1.406 . S
C874 N875 1.261 . S
N875 Co826 2.214 . S
N875 C873 1.325 . S
N875 C874 1.261 . S
C876 H846 0.931 . S
C876 C873 1.357 . S
C876 C877 1.312 . S
C877 H848 0.930 . S
C877 C872 1.261 . S
C877 C876 1.312 . S
C878 O850 1.214 . S
C878 O858 1.234 . S
C879 H851 0.929 . S
C879 C882 1.391 . S
C879 C884 1.391 . S
C880 H852 0.929 . S
C880 C881 1.390 . S
C880 N883 1.391 . S
C881 H853 0.930 . S
C881 C880 1.390 . S
C881 C882 1.392 . S
C882 H854 0.929 . S
C882 C879 1.391 . S
C882 C881 1.392 . S
N883 Co827 2.257 . S
N883 C880 1.391 . S
N883 C884 1.388 . S
C884 H855 0.930 . S
C884 C879 1.391 . S
C884 N883 1.388 . S
Co885 O887 2.143 . S
Co885 O893 2.074 . S
Co885 O896 2.093 . S
Co885 O909 2.097 . S
Co885 N926 2.151 . S
Co885 N934 2.214 . S
Co886 O887 2.160 . S
Co886 O892 2.058 . S
Co886 O902 2.057 . S
Co886 O917 2.037 . S
Co886 N921 2.145 . S
Co886 N942 2.257 . S
O887 Co885 2.143 . S
O887 Co886 2.160 . S
C888 O889 1.278 . S
C888 O896 1.224 . S
O889 C888 1.278 . S
C890 O891 1.245 . S
C890 O902 1.232 . S
O891 C890 1.245 . S
O892 Co886 2.058 . S
O892 C918 1.269 . S
O893 Co885 2.074 . S
O893 C918 1.257 . S
H894 C919 0.930 . S
H895 C925 0.930 . S
O896 Co885 2.093 . S
O896 C888 1.224 . S
H897 C929 0.929 . S
H898 C931 0.930 . S
H899 C932 0.930 . S
H900 C930 0.929 . S
H901 C933 0.928 . S
O902 Co886 2.057 . S
O902 C890 1.232 . S
H903 C922 0.929 . S
H904 C923 0.929 . S
H905 C935 0.931 . S
H906 C927 0.929 . S
H907 C936 0.930 . S
H908 C928 0.931 . S
O909 Co885 2.097 . S
O909 C937 1.214 . S
H910 C938 0.929 . S
H911 C939 0.929 . S
H912 C940 0.930 . S
H913 C941 0.929 . S
H914 C943 0.930 . S
H915 C920 0.930 . S
H916 C924 0.930 . S
O917 Co886 2.037 . S
O917 C937 1.234 . S
C918 O892 1.269 . S
C918 O893 1.257 . S
C919 H894 0.930 . S
C919 C922 1.388 . S
C919 C924 1.418 . S
C920 H915 0.930 . S
C920 C923 1.404 . S
C920 C924 1.353 . S
N921 Co886 2.145 . S
N921 C922 1.397 . S
N921 C923 1.334 . S
C922 H903 0.929 . S
C922 C919 1.388 . S
C922 N921 1.397 . S
C923 H904 0.929 . S
C923 C920 1.404 . S
C923 N921 1.334 . S
C924 H916 0.930 . S
C924 C919 1.418 . S
C924 C920 1.353 . S
C925 H895 0.930 . S
C925 N926 1.330 . S
C925 C927 1.446 . S
N926 Co885 2.151 . S
N926 C925 1.330 . S
N926 C930 1.418 . S
C927 H906 0.929 . S
C927 C925 1.446 . S
C927 C928 1.332 . S
C928 H908 0.931 . S
C928 C927 1.332 . S
C928 C929 1.267 . S
C929 H897 0.929 . S
C929 C928 1.267 . S
C929 C930 1.251 . S
C930 H900 0.929 . S
C930 N926 1.418 . S
C930 C929 1.251 . S
C931 H898 0.930 . S
C931 C933 1.406 . S
C931 C936 1.261 . S
C932 H899 0.930 . S
C932 N934 1.325 . S
C932 C935 1.357 . S
C933 H901 0.928 . S
C933 C931 1.406 . S
C933 N934 1.261 . S
N934 Co885 2.214 . S
N934 C932 1.325 . S
N934 C933 1.261 . S
C935 H905 0.931 . S
C935 C932 1.357 . S
C935 C936 1.312 . S
C936 H907 0.930 . S
C936 C931 1.261 . S
C936 C935 1.312 . S
C937 O909 1.214 . S
C937 O917 1.234 . S
C938 H910 0.929 . S
C938 C941 1.391 . S
C938 C943 1.391 . S
C939 H911 0.929 . S
C939 C940 1.390 . S
C939 N942 1.391 . S
C940 H912 0.930 . S
C940 C939 1.390 . S
C940 C941 1.392 . S
C941 H913 0.929 . S
C941 C938 1.391 . S
C941 C940 1.392 . S
N942 Co886 2.257 . S
N942 C939 1.391 . S
N942 C943 1.388 . S
C943 H914 0.930 . S
C943 C938 1.391 . S
C943 N942 1.388 . S
Co944 O946 2.143 . S
Co944 O952 2.074 . S
Co944 O955 2.093 . S
Co944 O968 2.097 . S
Co944 N985 2.151 . S
Co944 N993 2.214 . S
Co945 O946 2.160 . S
Co945 O951 2.058 . S
Co945 O961 2.057 . S
Co945 O976 2.037 . S
Co945 N980 2.145 . S
Co945 N1001 2.257 . S
O946 Co944 2.143 . S
O946 Co945 2.160 . S
C947 O948 1.278 . S
C947 O955 1.224 . S
O948 C947 1.278 . S
C949 O950 1.245 . S
C949 O961 1.232 . S
O950 C949 1.245 . S
O951 Co945 2.058 . S
O951 C977 1.269 . S
O952 Co944 2.074 . S
O952 C977 1.257 . S
H953 C978 0.930 . S
H954 C984 0.930 . S
O955 Co944 2.093 . S
O955 C947 1.224 . S
H956 C988 0.929 . S
H957 C990 0.930 . S
H958 C991 0.930 . S
H959 C989 0.929 . S
H960 C992 0.928 . S
O961 Co945 2.057 . S
O961 C949 1.232 . S
H962 C981 0.929 . S
H963 C982 0.929 . S
H964 C994 0.931 . S
H965 C986 0.929 . S
H966 C995 0.930 . S
H967 C987 0.931 . S
O968 Co944 2.097 . S
O968 C996 1.214 . S
H969 C997 0.929 . S
H970 C998 0.929 . S
H971 C999 0.930 . S
H972 C1000 0.929 . S
H973 C1002 0.930 . S
H974 C979 0.930 . S
H975 C983 0.930 . S
O976 Co945 2.037 . S
O976 C996 1.234 . S
C977 O951 1.269 . S
C977 O952 1.257 . S
C978 H953 0.930 . S
C978 C981 1.388 . S
C978 C983 1.418 . S
C979 H974 0.930 . S
C979 C982 1.404 . S
C979 C983 1.353 . S
N980 Co945 2.145 . S
N980 C981 1.397 . S
N980 C982 1.334 . S
C981 H962 0.929 . S
C981 C978 1.388 . S
C981 N980 1.397 . S
C982 H963 0.929 . S
C982 C979 1.404 . S
C982 N980 1.334 . S
C983 H975 0.930 . S
C983 C978 1.418 . S
C983 C979 1.353 . S
C984 H954 0.930 . S
C984 N985 1.330 . S
C984 C986 1.446 . S
N985 Co944 2.151 . S
N985 C984 1.330 . S
N985 C989 1.418 . S
C986 H965 0.929 . S
C986 C984 1.446 . S
C986 C987 1.332 . S
C987 H967 0.931 . S
C987 C986 1.332 . S
C987 C988 1.267 . S
C988 H956 0.929 . S
C988 C987 1.267 . S
C988 C989 1.251 . S
C989 H959 0.929 . S
C989 N985 1.418 . S
C989 C988 1.251 . S
C990 H957 0.930 . S
C990 C992 1.406 . S
C990 C995 1.261 . S
C991 H958 0.930 . S
C991 N993 1.325 . S
C991 C994 1.357 . S
C992 H960 0.928 . S
C992 C990 1.406 . S
C992 N993 1.261 . S
N993 Co944 2.214 . S
N993 C991 1.325 . S
N993 C992 1.261 . S
C994 H964 0.931 . S
C994 C991 1.357 . S
C994 C995 1.312 . S
C995 H966 0.930 . S
C995 C990 1.261 . S
C995 C994 1.312 . S
C996 O968 1.214 . S
C996 O976 1.234 . S
C997 H969 0.929 . S
C997 C1000 1.391 . S
C997 C1002 1.391 . S
C998 H970 0.929 . S
C998 C999 1.390 . S
C998 N1001 1.391 . S
C999 H971 0.930 . S
C999 C998 1.390 . S
C999 C1000 1.392 . S
C1000 H972 0.929 . S
C1000 C997 1.391 . S
C1000 C999 1.392 . S
N1001 Co945 2.257 . S
N1001 C998 1.391 . S
N1001 C1002 1.388 . S
C1002 H973 0.930 . S
C1002 C997 1.391 . S
C1002 N1001 1.388 . S
Co1003 O1005 2.143 . S
Co1003 O1011 2.074 . S
Co1003 O1014 2.093 . S
Co1003 O1027 2.097 . S
Co1003 N1044 2.151 . S
Co1003 N1052 2.214 . S
Co1004 O1005 2.160 . S
Co1004 O1010 2.058 . S
Co1004 O1020 2.057 . S
Co1004 O1035 2.037 . S
Co1004 N1039 2.145 . S
Co1004 N1060 2.257 . S
O1005 Co1003 2.143 . S
O1005 Co1004 2.160 . S
C1006 O1007 1.278 . S
C1006 O1014 1.224 . S
O1007 C1006 1.278 . S
C1008 O1009 1.245 . S
C1008 O1020 1.232 . S
O1009 C1008 1.245 . S
O1010 Co1004 2.058 . S
O1010 C1036 1.269 . S
O1011 Co1003 2.074 . S
O1011 C1036 1.257 . S
H1012 C1037 0.930 . S
H1013 C1043 0.930 . S
O1014 Co1003 2.093 . S
O1014 C1006 1.224 . S
H1015 C1047 0.929 . S
H1016 C1049 0.930 . S
H1017 C1050 0.930 . S
H1018 C1048 0.929 . S
H1019 C1051 0.928 . S
O1020 Co1004 2.057 . S
O1020 C1008 1.232 . S
H1021 C1040 0.929 . S
H1022 C1041 0.929 . S
H1023 C1053 0.931 . S
H1024 C1045 0.929 . S
H1025 C1054 0.930 . S
H1026 C1046 0.931 . S
O1027 Co1003 2.097 . S
O1027 C1055 1.214 . S
H1028 C1056 0.929 . S
H1029 C1057 0.929 . S
H1030 C1058 0.930 . S
H1031 C1059 0.929 . S
H1032 C1061 0.930 . S
H1033 C1038 0.930 . S
H1034 C1042 0.930 . S
O1035 Co1004 2.037 . S
O1035 C1055 1.234 . S
C1036 O1010 1.269 . S
C1036 O1011 1.257 . S
C1037 H1012 0.930 . S
C1037 C1040 1.388 . S
C1037 C1042 1.418 . S
C1038 H1033 0.930 . S
C1038 C1041 1.404 . S
C1038 C1042 1.353 . S
N1039 Co1004 2.145 . S
N1039 C1040 1.397 . S
N1039 C1041 1.334 . S
C1040 H1021 0.929 . S
C1040 C1037 1.388 . S
C1040 N1039 1.397 . S
C1041 H1022 0.929 . S
C1041 C1038 1.404 . S
C1041 N1039 1.334 . S
C1042 H1034 0.930 . S
C1042 C1037 1.418 . S
C1042 C1038 1.353 . S
C1043 H1013 0.930 . S
C1043 N1044 1.330 . S
C1043 C1045 1.446 . S
N1044 Co1003 2.151 . S
N1044 C1043 1.330 . S
N1044 C1048 1.418 . S
C1045 H1024 0.929 . S
C1045 C1043 1.446 . S
C1045 C1046 1.332 . S
C1046 H1026 0.931 . S
C1046 C1045 1.332 . S
C1046 C1047 1.267 . S
C1047 H1015 0.929 . S
C1047 C1046 1.267 . S
C1047 C1048 1.251 . S
C1048 H1018 0.929 . S
C1048 N1044 1.418 . S
C1048 C1047 1.251 . S
C1049 H1016 0.930 . S
C1049 C1051 1.406 . S
C1049 C1054 1.261 . S
C1050 H1017 0.930 . S
C1050 N1052 1.325 . S
C1050 C1053 1.357 . S
C1051 H1019 0.928 . S
C1051 C1049 1.406 . S
C1051 N1052 1.261 . S
N1052 Co1003 2.214 . S
N1052 C1050 1.325 . S
N1052 C1051 1.261 . S
C1053 H1023 0.931 . S
C1053 C1050 1.357 . S
C1053 C1054 1.312 . S
C1054 H1025 0.930 . S
C1054 C1049 1.261 . S
C1054 C1053 1.312 . S
C1055 O1027 1.214 . S
C1055 O1035 1.234 . S
C1056 H1028 0.929 . S
C1056 C1059 1.391 . S
C1056 C1061 1.391 . S
C1057 H1029 0.929 . S
C1057 C1058 1.390 . S
C1057 N1060 1.391 . S
C1058 H1030 0.930 . S
C1058 C1057 1.390 . S
C1058 C1059 1.392 . S
C1059 H1031 0.929 . S
C1059 C1056 1.391 . S
C1059 C1058 1.392 . S
N1060 Co1004 2.257 . S
N1060 C1057 1.391 . S
N1060 C1061 1.388 . S
C1061 H1032 0.930 . S
C1061 C1056 1.391 . S
C1061 N1060 1.388 . S
Co1062 O1064 2.143 . S
Co1062 O1070 2.074 . S
Co1062 O1073 2.093 . S
Co1062 O1086 2.097 . S
Co1062 N1103 2.151 . S
Co1062 N1111 2.214 . S
Co1063 O1064 2.160 . S
Co1063 O1069 2.058 . S
Co1063 O1079 2.057 . S
Co1063 O1094 2.037 . S
Co1063 N1098 2.145 . S
Co1063 N1119 2.257 . S
O1064 Co1062 2.143 . S
O1064 Co1063 2.160 . S
C1065 O1066 1.278 . S
C1065 O1073 1.224 . S
O1066 C1065 1.278 . S
C1067 O1068 1.245 . S
C1067 O1079 1.232 . S
O1068 C1067 1.245 . S
O1069 Co1063 2.058 . S
O1069 C1095 1.269 . S
O1070 Co1062 2.074 . S
O1070 C1095 1.257 . S
H1071 C1096 0.930 . S
H1072 C1102 0.930 . S
O1073 Co1062 2.093 . S
O1073 C1065 1.224 . S
H1074 C1106 0.929 . S
H1075 C1108 0.930 . S
H1076 C1109 0.930 . S
H1077 C1107 0.929 . S
H1078 C1110 0.928 . S
O1079 Co1063 2.057 . S
O1079 C1067 1.232 . S
H1080 C1099 0.929 . S
H1081 C1100 0.929 . S
H1082 C1112 0.931 . S
H1083 C1104 0.929 . S
H1084 C1113 0.930 . S
H1085 C1105 0.931 . S
O1086 Co1062 2.097 . S
O1086 C1114 1.214 . S
H1087 C1115 0.929 . S
H1088 C1116 0.929 . S
H1089 C1117 0.930 . S
H1090 C1118 0.929 . S
H1091 C1120 0.930 . S
H1092 C1097 0.930 . S
H1093 C1101 0.930 . S
O1094 Co1063 2.037 . S
O1094 C1114 1.234 . S
C1095 O1069 1.269 . S
C1095 O1070 1.257 . S
C1096 H1071 0.930 . S
C1096 C1099 1.388 . S
C1096 C1101 1.418 . S
C1097 H1092 0.930 . S
C1097 C1100 1.404 . S
C1097 C1101 1.353 . S
N1098 Co1063 2.145 . S
N1098 C1099 1.397 . S
N1098 C1100 1.334 . S
C1099 H1080 0.929 . S
C1099 C1096 1.388 . S
C1099 N1098 1.397 . S
C1100 H1081 0.929 . S
C1100 C1097 1.404 . S
C1100 N1098 1.334 . S
C1101 H1093 0.930 . S
C1101 C1096 1.418 . S
C1101 C1097 1.353 . S
C1102 H1072 0.930 . S
C1102 N1103 1.330 . S
C1102 C1104 1.446 . S
N1103 Co1062 2.151 . S
N1103 C1102 1.330 . S
N1103 C1107 1.418 . S
C1104 H1083 0.929 . S
C1104 C1102 1.446 . S
C1104 C1105 1.332 . S
C1105 H1085 0.931 . S
C1105 C1104 1.332 . S
C1105 C1106 1.267 . S
C1106 H1074 0.929 . S
C1106 C1105 1.267 . S
C1106 C1107 1.251 . S
C1107 H1077 0.929 . S
C1107 N1103 1.418 . S
C1107 C1106 1.251 . S
C1108 H1075 0.930 . S
C1108 C1110 1.406 . S
C1108 C1113 1.261 . S
C1109 H1076 0.930 . S
C1109 N1111 1.325 . S
C1109 C1112 1.357 . S
C1110 H1078 0.928 . S
C1110 C1108 1.406 . S
C1110 N1111 1.261 . S
N1111 Co1062 2.214 . S
N1111 C1109 1.325 . S
N1111 C1110 1.261 . S
C1112 H1082 0.931 . S
C1112 C1109 1.357 . S
C1112 C1113 1.312 . S
C1113 H1084 0.930 . S
C1113 C1108 1.261 . S
C1113 C1112 1.312 . S
C1114 O1086 1.214 . S
C1114 O1094 1.234 . S
C1115 H1087 0.929 . S
C1115 C1118 1.391 . S
C1115 C1120 1.391 . S
C1116 H1088 0.929 . S
C1116 C1117 1.390 . S
C1116 N1119 1.391 . S
C1117 H1089 0.930 . S
C1117 C1116 1.390 . S
C1117 C1118 1.392 . S
C1118 H1090 0.929 . S
C1118 C1115 1.391 . S
C1118 C1117 1.392 . S
N1119 Co1063 2.257 . S
N1119 C1116 1.391 . S
N1119 C1120 1.388 . S
C1120 H1091 0.930 . S
C1120 C1115 1.391 . S
C1120 N1119 1.388 . S
Co1121 O1123 2.143 . S
Co1121 O1129 2.074 . S
Co1121 O1132 2.093 . S
Co1121 O1145 2.097 . S
Co1121 N1162 2.151 . S
Co1121 N1170 2.214 . S
Co1122 O1123 2.160 . S
Co1122 O1128 2.058 . S
Co1122 O1138 2.057 . S
Co1122 O1153 2.037 . S
Co1122 N1157 2.145 . S
Co1122 N1178 2.257 . S
O1123 Co1121 2.143 . S
O1123 Co1122 2.160 . S
C1124 O1125 1.278 . S
C1124 O1132 1.224 . S
O1125 C1124 1.278 . S
C1126 O1127 1.245 . S
C1126 O1138 1.232 . S
O1127 C1126 1.245 . S
O1128 Co1122 2.058 . S
O1128 C1154 1.269 . S
O1129 Co1121 2.074 . S
O1129 C1154 1.257 . S
H1130 C1155 0.930 . S
H1131 C1161 0.930 . S
O1132 Co1121 2.093 . S
O1132 C1124 1.224 . S
H1133 C1165 0.929 . S
H1134 C1167 0.930 . S
H1135 C1168 0.930 . S
H1136 C1166 0.929 . S
H1137 C1169 0.928 . S
O1138 Co1122 2.057 . S
O1138 C1126 1.232 . S
H1139 C1158 0.929 . S
H1140 C1159 0.929 . S
H1141 C1171 0.931 . S
H1142 C1163 0.929 . S
H1143 C1172 0.930 . S
H1144 C1164 0.931 . S
O1145 Co1121 2.097 . S
O1145 C1173 1.214 . S
H1146 C1174 0.929 . S
H1147 C1175 0.929 . S
H1148 C1176 0.930 . S
H1149 C1177 0.929 . S
H1150 C1179 0.930 . S
H1151 C1156 0.930 . S
H1152 C1160 0.930 . S
O1153 Co1122 2.037 . S
O1153 C1173 1.234 . S
C1154 O1128 1.269 . S
C1154 O1129 1.257 . S
C1155 H1130 0.930 . S
C1155 C1158 1.388 . S
C1155 C1160 1.418 . S
C1156 H1151 0.930 . S
C1156 C1159 1.404 . S
C1156 C1160 1.353 . S
N1157 Co1122 2.145 . S
N1157 C1158 1.397 . S
N1157 C1159 1.334 . S
C1158 H1139 0.929 . S
C1158 C1155 1.388 . S
C1158 N1157 1.397 . S
C1159 H1140 0.929 . S
C1159 C1156 1.404 . S
C1159 N1157 1.334 . S
C1160 H1152 0.930 . S
C1160 C1155 1.418 . S
C1160 C1156 1.353 . S
C1161 H1131 0.930 . S
C1161 N1162 1.330 . S
C1161 C1163 1.446 . S
N1162 Co1121 2.151 . S
N1162 C1161 1.330 . S
N1162 C1166 1.418 . S
C1163 H1142 0.929 . S
C1163 C1161 1.446 . S
C1163 C1164 1.332 . S
C1164 H1144 0.931 . S
C1164 C1163 1.332 . S
C1164 C1165 1.267 . S
C1165 H1133 0.929 . S
C1165 C1164 1.267 . S
C1165 C1166 1.251 . S
C1166 H1136 0.929 . S
C1166 N1162 1.418 . S
C1166 C1165 1.251 . S
C1167 H1134 0.930 . S
C1167 C1169 1.406 . S
C1167 C1172 1.261 . S
C1168 H1135 0.930 . S
C1168 N1170 1.325 . S
C1168 C1171 1.357 . S
C1169 H1137 0.928 . S
C1169 C1167 1.406 . S
C1169 N1170 1.261 . S
N1170 Co1121 2.214 . S
N1170 C1168 1.325 . S
N1170 C1169 1.261 . S
C1171 H1141 0.931 . S
C1171 C1168 1.357 . S
C1171 C1172 1.312 . S
C1172 H1143 0.930 . S
C1172 C1167 1.261 . S
C1172 C1171 1.312 . S
C1173 O1145 1.214 . S
C1173 O1153 1.234 . S
C1174 H1146 0.929 . S
C1174 C1177 1.391 . S
C1174 C1179 1.391 . S
C1175 H1147 0.929 . S
C1175 C1176 1.390 . S
C1175 N1178 1.391 . S
C1176 H1148 0.930 . S
C1176 C1175 1.390 . S
C1176 C1177 1.392 . S
C1177 H1149 0.929 . S
C1177 C1174 1.391 . S
C1177 C1176 1.392 . S
N1178 Co1122 2.257 . S
N1178 C1175 1.391 . S
N1178 C1179 1.388 . S
C1179 H1150 0.930 . S
C1179 C1174 1.391 . S
C1179 N1178 1.388 . S
Co1180 O1182 2.143 . S
Co1180 O1188 2.074 . S
Co1180 O1191 2.093 . S
Co1180 O1204 2.097 . S
Co1180 N1221 2.151 . S
Co1180 N1229 2.214 . S
Co1181 O1182 2.160 . S
Co1181 O1187 2.058 . S
Co1181 O1197 2.057 . S
Co1181 O1212 2.037 . S
Co1181 N1216 2.145 . S
Co1181 N1237 2.257 . S
O1182 Co1180 2.143 . S
O1182 Co1181 2.160 . S
C1183 O1184 1.278 . S
C1183 O1191 1.224 . S
O1184 C1183 1.278 . S
C1185 O1186 1.245 . S
C1185 O1197 1.232 . S
O1186 C1185 1.245 . S
O1187 Co1181 2.058 . S
O1187 C1213 1.269 . S
O1188 Co1180 2.074 . S
O1188 C1213 1.257 . S
H1189 C1214 0.930 . S
H1190 C1220 0.930 . S
O1191 Co1180 2.093 . S
O1191 C1183 1.224 . S
H1192 C1224 0.929 . S
H1193 C1226 0.930 . S
H1194 C1227 0.930 . S
H1195 C1225 0.929 . S
H1196 C1228 0.928 . S
O1197 Co1181 2.057 . S
O1197 C1185 1.232 . S
H1198 C1217 0.929 . S
H1199 C1218 0.929 . S
H1200 C1230 0.931 . S
H1201 C1222 0.929 . S
H1202 C1231 0.930 . S
H1203 C1223 0.931 . S
O1204 Co1180 2.097 . S
O1204 C1232 1.214 . S
H1205 C1233 0.929 . S
H1206 C1234 0.929 . S
H1207 C1235 0.930 . S
H1208 C1236 0.929 . S
H1209 C1238 0.930 . S
H1210 C1215 0.930 . S
H1211 C1219 0.930 . S
O1212 Co1181 2.037 . S
O1212 C1232 1.234 . S
C1213 O1187 1.269 . S
C1213 O1188 1.257 . S
C1214 H1189 0.930 . S
C1214 C1217 1.388 . S
C1214 C1219 1.418 . S
C1215 H1210 0.930 . S
C1215 C1218 1.404 . S
C1215 C1219 1.353 . S
N1216 Co1181 2.145 . S
N1216 C1217 1.397 . S
N1216 C1218 1.334 . S
C1217 H1198 0.929 . S
C1217 C1214 1.388 . S
C1217 N1216 1.397 . S
C1218 H1199 0.929 . S
C1218 C1215 1.404 . S
C1218 N1216 1.334 . S
C1219 H1211 0.930 . S
C1219 C1214 1.418 . S
C1219 C1215 1.353 . S
C1220 H1190 0.930 . S
C1220 N1221 1.330 . S
C1220 C1222 1.446 . S
N1221 Co1180 2.151 . S
N1221 C1220 1.330 . S
N1221 C1225 1.418 . S
C1222 H1201 0.929 . S
C1222 C1220 1.446 . S
C1222 C1223 1.332 . S
C1223 H1203 0.931 . S
C1223 C1222 1.332 . S
C1223 C1224 1.267 . S
C1224 H1192 0.929 . S
C1224 C1223 1.267 . S
C1224 C1225 1.251 . S
C1225 H1195 0.929 . S
C1225 N1221 1.418 . S
C1225 C1224 1.251 . S
C1226 H1193 0.930 . S
C1226 C1228 1.406 . S
C1226 C1231 1.261 . S
C1227 H1194 0.930 . S
C1227 N1229 1.325 . S
C1227 C1230 1.357 . S
C1228 H1196 0.928 . S
C1228 C1226 1.406 . S
C1228 N1229 1.261 . S
N1229 Co1180 2.214 . S
N1229 C1227 1.325 . S
N1229 C1228 1.261 . S
C1230 H1200 0.931 . S
C1230 C1227 1.357 . S
C1230 C1231 1.312 . S
C1231 H1202 0.930 . S
C1231 C1226 1.261 . S
C1231 C1230 1.312 . S
C1232 O1204 1.214 . S
C1232 O1212 1.234 . S
C1233 H1205 0.929 . S
C1233 C1236 1.391 . S
C1233 C1238 1.391 . S
C1234 H1206 0.929 . S
C1234 C1235 1.390 . S
C1234 N1237 1.391 . S
C1235 H1207 0.930 . S
C1235 C1234 1.390 . S
C1235 C1236 1.392 . S
C1236 H1208 0.929 . S
C1236 C1233 1.391 . S
C1236 C1235 1.392 . S
N1237 Co1181 2.257 . S
N1237 C1234 1.391 . S
N1237 C1238 1.388 . S
C1238 H1209 0.930 . S
C1238 C1233 1.391 . S
C1238 N1237 1.388 . S
Co1239 O1241 2.143 . S
Co1239 O1247 2.074 . S
Co1239 O1250 2.093 . S
Co1239 O1263 2.097 . S
Co1239 N1280 2.151 . S
Co1239 N1288 2.214 . S
Co1240 O1241 2.160 . S
Co1240 O1246 2.058 . S
Co1240 O1256 2.057 . S
Co1240 O1271 2.037 . S
Co1240 N1275 2.145 . S
Co1240 N1296 2.257 . S
O1241 Co1239 2.143 . S
O1241 Co1240 2.160 . S
C1242 O1243 1.278 . S
C1242 O1250 1.224 . S
O1243 C1242 1.278 . S
C1244 O1245 1.245 . S
C1244 O1256 1.232 . S
O1245 C1244 1.245 . S
O1246 Co1240 2.058 . S
O1246 C1272 1.269 . S
O1247 Co1239 2.074 . S
O1247 C1272 1.257 . S
H1248 C1273 0.930 . S
H1249 C1279 0.930 . S
O1250 Co1239 2.093 . S
O1250 C1242 1.224 . S
H1251 C1283 0.929 . S
H1252 C1285 0.930 . S
H1253 C1286 0.930 . S
H1254 C1284 0.929 . S
H1255 C1287 0.928 . S
O1256 Co1240 2.057 . S
O1256 C1244 1.232 . S
H1257 C1276 0.929 . S
H1258 C1277 0.929 . S
H1259 C1289 0.931 . S
H1260 C1281 0.929 . S
H1261 C1290 0.930 . S
H1262 C1282 0.931 . S
O1263 Co1239 2.097 . S
O1263 C1291 1.214 . S
H1264 C1292 0.929 . S
H1265 C1293 0.929 . S
H1266 C1294 0.930 . S
H1267 C1295 0.929 . S
H1268 C1297 0.930 . S
H1269 C1274 0.930 . S
H1270 C1278 0.930 . S
O1271 Co1240 2.037 . S
O1271 C1291 1.234 . S
C1272 O1246 1.269 . S
C1272 O1247 1.257 . S
C1273 H1248 0.930 . S
C1273 C1276 1.388 . S
C1273 C1278 1.418 . S
C1274 H1269 0.930 . S
C1274 C1277 1.404 . S
C1274 C1278 1.353 . S
N1275 Co1240 2.145 . S
N1275 C1276 1.397 . S
N1275 C1277 1.334 . S
C1276 H1257 0.929 . S
C1276 C1273 1.388 . S
C1276 N1275 1.397 . S
C1277 H1258 0.929 . S
C1277 C1274 1.404 . S
C1277 N1275 1.334 . S
C1278 H1270 0.930 . S
C1278 C1273 1.418 . S
C1278 C1274 1.353 . S
C1279 H1249 0.930 . S
C1279 N1280 1.330 . S
C1279 C1281 1.446 . S
N1280 Co1239 2.151 . S
N1280 C1279 1.330 . S
N1280 C1284 1.418 . S
C1281 H1260 0.929 . S
C1281 C1279 1.446 . S
C1281 C1282 1.332 . S
C1282 H1262 0.931 . S
C1282 C1281 1.332 . S
C1282 C1283 1.267 . S
C1283 H1251 0.929 . S
C1283 C1282 1.267 . S
C1283 C1284 1.251 . S
C1284 H1254 0.929 . S
C1284 N1280 1.418 . S
C1284 C1283 1.251 . S
C1285 H1252 0.930 . S
C1285 C1287 1.406 . S
C1285 C1290 1.261 . S
C1286 H1253 0.930 . S
C1286 N1288 1.325 . S
C1286 C1289 1.357 . S
C1287 H1255 0.928 . S
C1287 C1285 1.406 . S
C1287 N1288 1.261 . S
N1288 Co1239 2.214 . S
N1288 C1286 1.325 . S
N1288 C1287 1.261 . S
C1289 H1259 0.931 . S
C1289 C1286 1.357 . S
C1289 C1290 1.312 . S
C1290 H1261 0.930 . S
C1290 C1285 1.261 . S
C1290 C1289 1.312 . S
C1291 O1263 1.214 . S
C1291 O1271 1.234 . S
C1292 H1264 0.929 . S
C1292 C1295 1.391 . S
C1292 C1297 1.391 . S
C1293 H1265 0.929 . S
C1293 C1294 1.390 . S
C1293 N1296 1.391 . S
C1294 H1266 0.930 . S
C1294 C1293 1.390 . S
C1294 C1295 1.392 . S
C1295 H1267 0.929 . S
C1295 C1292 1.391 . S
C1295 C1294 1.392 . S
N1296 Co1240 2.257 . S
N1296 C1293 1.391 . S
N1296 C1297 1.388 . S
C1297 H1268 0.930 . S
C1297 C1292 1.391 . S
C1297 N1296 1.388 . S
Co1298 O1300 2.143 . S
Co1298 O1306 2.074 . S
Co1298 O1309 2.093 . S
Co1298 O1322 2.097 . S
Co1298 N1339 2.151 . S
Co1298 N1347 2.214 . S
Co1299 O1300 2.160 . S
Co1299 O1305 2.058 . S
Co1299 O1315 2.057 . S
Co1299 O1330 2.037 . S
Co1299 N1334 2.145 . S
Co1299 N1355 2.257 . S
O1300 Co1298 2.143 . S
O1300 Co1299 2.160 . S
C1301 O1302 1.278 . S
C1301 O1309 1.224 . S
O1302 C1301 1.278 . S
C1303 O1304 1.245 . S
C1303 O1315 1.232 . S
O1304 C1303 1.245 . S
O1305 Co1299 2.058 . S
O1305 C1331 1.269 . S
O1306 Co1298 2.074 . S
O1306 C1331 1.257 . S
H1307 C1332 0.930 . S
H1308 C1338 0.930 . S
O1309 Co1298 2.093 . S
O1309 C1301 1.224 . S
H1310 C1342 0.929 . S
H1311 C1344 0.930 . S
H1312 C1345 0.930 . S
H1313 C1343 0.929 . S
H1314 C1346 0.928 . S
O1315 Co1299 2.057 . S
O1315 C1303 1.232 . S
H1316 C1335 0.929 . S
H1317 C1336 0.929 . S
H1318 C1348 0.931 . S
H1319 C1340 0.929 . S
H1320 C1349 0.930 . S
H1321 C1341 0.931 . S
O1322 Co1298 2.097 . S
O1322 C1350 1.214 . S
H1323 C1351 0.929 . S
H1324 C1352 0.929 . S
H1325 C1353 0.930 . S
H1326 C1354 0.929 . S
H1327 C1356 0.930 . S
H1328 C1333 0.930 . S
H1329 C1337 0.930 . S
O1330 Co1299 2.037 . S
O1330 C1350 1.234 . S
C1331 O1305 1.269 . S
C1331 O1306 1.257 . S
C1332 H1307 0.930 . S
C1332 C1335 1.388 . S
C1332 C1337 1.418 . S
C1333 H1328 0.930 . S
C1333 C1336 1.404 . S
C1333 C1337 1.353 . S
N1334 Co1299 2.145 . S
N1334 C1335 1.397 . S
N1334 C1336 1.334 . S
C1335 H1316 0.929 . S
C1335 C1332 1.388 . S
C1335 N1334 1.397 . S
C1336 H1317 0.929 . S
C1336 C1333 1.404 . S
C1336 N1334 1.334 . S
C1337 H1329 0.930 . S
C1337 C1332 1.418 . S
C1337 C1333 1.353 . S
C1338 H1308 0.930 . S
C1338 N1339 1.330 . S
C1338 C1340 1.446 . S
N1339 Co1298 2.151 . S
N1339 C1338 1.330 . S
N1339 C1343 1.418 . S
C1340 H1319 0.929 . S
C1340 C1338 1.446 . S
C1340 C1341 1.332 . S
C1341 H1321 0.931 . S
C1341 C1340 1.332 . S
C1341 C1342 1.267 . S
C1342 H1310 0.929 . S
C1342 C1341 1.267 . S
C1342 C1343 1.251 . S
C1343 H1313 0.929 . S
C1343 N1339 1.418 . S
C1343 C1342 1.251 . S
C1344 H1311 0.930 . S
C1344 C1346 1.406 . S
C1344 C1349 1.261 . S
C1345 H1312 0.930 . S
C1345 N1347 1.325 . S
C1345 C1348 1.357 . S
C1346 H1314 0.928 . S
C1346 C1344 1.406 . S
C1346 N1347 1.261 . S
N1347 Co1298 2.214 . S
N1347 C1345 1.325 . S
N1347 C1346 1.261 . S
C1348 H1318 0.931 . S
C1348 C1345 1.357 . S
C1348 C1349 1.312 . S
C1349 H1320 0.930 . S
C1349 C1344 1.261 . S
C1349 C1348 1.312 . S
C1350 O1322 1.214 . S
C1350 O1330 1.234 . S
C1351 H1323 0.929 . S
C1351 C1354 1.391 . S
C1351 C1356 1.391 . S
C1352 H1324 0.929 . S
C1352 C1353 1.390 . S
C1352 N1355 1.391 . S
C1353 H1325 0.930 . S
C1353 C1352 1.390 . S
C1353 C1354 1.392 . S
C1354 H1326 0.929 . S
C1354 C1351 1.391 . S
C1354 C1353 1.392 . S
N1355 Co1299 2.257 . S
N1355 C1352 1.391 . S
N1355 C1356 1.388 . S
C1356 H1327 0.930 . S
C1356 C1351 1.391 . S
C1356 N1355 1.388 . S
Co1357 O1359 2.143 . S
Co1357 O1365 2.074 . S
Co1357 O1368 2.093 . S
Co1357 O1381 2.097 . S
Co1357 N1398 2.151 . S
Co1357 N1406 2.214 . S
Co1358 O1359 2.160 . S
Co1358 O1364 2.058 . S
Co1358 O1374 2.057 . S
Co1358 O1389 2.037 . S
Co1358 N1393 2.145 . S
Co1358 N1414 2.257 . S
O1359 Co1357 2.143 . S
O1359 Co1358 2.160 . S
C1360 O1361 1.278 . S
C1360 O1368 1.224 . S
O1361 C1360 1.278 . S
C1362 O1363 1.245 . S
C1362 O1374 1.232 . S
O1363 C1362 1.245 . S
O1364 Co1358 2.058 . S
O1364 C1390 1.269 . S
O1365 Co1357 2.074 . S
O1365 C1390 1.257 . S
H1366 C1391 0.930 . S
H1367 C1397 0.930 . S
O1368 Co1357 2.093 . S
O1368 C1360 1.224 . S
H1369 C1401 0.929 . S
H1370 C1403 0.930 . S
H1371 C1404 0.930 . S
H1372 C1402 0.929 . S
H1373 C1405 0.928 . S
O1374 Co1358 2.057 . S
O1374 C1362 1.232 . S
H1375 C1394 0.929 . S
H1376 C1395 0.929 . S
H1377 C1407 0.931 . S
H1378 C1399 0.929 . S
H1379 C1408 0.930 . S
H1380 C1400 0.931 . S
O1381 Co1357 2.097 . S
O1381 C1409 1.214 . S
H1382 C1410 0.929 . S
H1383 C1411 0.929 . S
H1384 C1412 0.930 . S
H1385 C1413 0.929 . S
H1386 C1415 0.930 . S
H1387 C1392 0.930 . S
H1388 C1396 0.930 . S
O1389 Co1358 2.037 . S
O1389 C1409 1.234 . S
C1390 O1364 1.269 . S
C1390 O1365 1.257 . S
C1391 H1366 0.930 . S
C1391 C1394 1.388 . S
C1391 C1396 1.418 . S
C1392 H1387 0.930 . S
C1392 C1395 1.404 . S
C1392 C1396 1.353 . S
N1393 Co1358 2.145 . S
N1393 C1394 1.397 . S
N1393 C1395 1.334 . S
C1394 H1375 0.929 . S
C1394 C1391 1.388 . S
C1394 N1393 1.397 . S
C1395 H1376 0.929 . S
C1395 C1392 1.404 . S
C1395 N1393 1.334 . S
C1396 H1388 0.930 . S
C1396 C1391 1.418 . S
C1396 C1392 1.353 . S
C1397 H1367 0.930 . S
C1397 N1398 1.330 . S
C1397 C1399 1.446 . S
N1398 Co1357 2.151 . S
N1398 C1397 1.330 . S
N1398 C1402 1.418 . S
C1399 H1378 0.929 . S
C1399 C1397 1.446 . S
C1399 C1400 1.332 . S
C1400 H1380 0.931 . S
C1400 C1399 1.332 . S
C1400 C1401 1.267 . S
C1401 H1369 0.929 . S
C1401 C1400 1.267 . S
C1401 C1402 1.251 . S
C1402 H1372 0.929 . S
C1402 N1398 1.418 . S
C1402 C1401 1.251 . S
C1403 H1370 0.930 . S
C1403 C1405 1.406 . S
C1403 C1408 1.261 . S
C1404 H1371 0.930 . S
C1404 N1406 1.325 . S
C1404 C1407 1.357 . S
C1405 H1373 0.928 . S
C1405 C1403 1.406 . S
C1405 N1406 1.261 . S
N1406 Co1357 2.214 . S
N1406 C1404 1.325 . S
N1406 C1405 1.261 . S
C1407 H1377 0.931 . S
C1407 C1404 1.357 . S
C1407 C1408 1.312 . S
C1408 H1379 0.930 . S
C1408 C1403 1.261 . S
C1408 C1407 1.312 . S
C1409 O1381 1.214 . S
C1409 O1389 1.234 . S
C1410 H1382 0.929 . S
C1410 C1413 1.391 . S
C1410 C1415 1.391 . S
C1411 H1383 0.929 . S
C1411 C1412 1.390 . S
C1411 N1414 1.391 . S
C1412 H1384 0.930 . S
C1412 C1411 1.390 . S
C1412 C1413 1.392 . S
C1413 H1385 0.929 . S
C1413 C1410 1.391 . S
C1413 C1412 1.392 . S
N1414 Co1358 2.257 . S
N1414 C1411 1.391 . S
N1414 C1415 1.388 . S
C1415 H1386 0.930 . S
C1415 C1410 1.391 . S
C1415 N1414 1.388 . S
H1416 C1424 0.950 . S
H1417 C1429 0.950 . S
H1418 C1426 0.950 . S
H1419 C1428 0.950 . S
H1420 C1430 0.950 . S
H1421 C1432 0.950 . S
H1422 C1434 0.950 . S
H1423 C1435 0.950 . S
C1424 H1416 0.950 . S
C1424 C1425 1.386 . S
C1424 C1426 1.391 . S
C1425 C1424 1.386 . S
C1425 C1429 1.393 . S
C1426 H1418 0.950 . S
C1426 C1424 1.391 . S
C1426 C1427 1.400 . S
C1427 C1426 1.400 . S
C1427 C1428 1.398 . S
C1427 C1433 1.491 . S
C1428 H1419 0.950 . S
C1428 C1427 1.398 . S
C1428 C1429 1.391 . S
C1429 H1417 0.950 . S
C1429 C1425 1.393 . S
C1429 C1428 1.391 . S
C1430 H1420 0.950 . S
C1430 C1431 1.386 . S
C1430 C1432 1.391 . S
C1431 C1430 1.386 . S
C1431 C1435 1.393 . S
C1432 H1421 0.950 . S
C1432 C1430 1.391 . S
C1432 C1433 1.400 . S
C1433 C1427 1.491 . S
C1433 C1432 1.400 . S
C1433 C1434 1.398 . S
C1434 H1422 0.950 . S
C1434 C1433 1.398 . S
C1434 C1435 1.391 . S
C1435 H1423 0.950 . S
C1435 C1431 1.393 . S
C1435 C1434 1.391 . S
H1436 C1444 0.950 . S
H1437 C1449 0.950 . S
H1438 C1446 0.950 . S
H1439 C1448 0.950 . S
H1440 C1450 0.950 . S
H1441 C1452 0.950 . S
H1442 C1454 0.950 . S
H1443 C1455 0.950 . S
C1444 H1436 0.950 . S
C1444 C1445 1.386 . S
C1444 C1446 1.391 . S
C1445 C1444 1.386 . S
C1445 C1449 1.393 . S
C1446 H1438 0.950 . S
C1446 C1444 1.391 . S
C1446 C1447 1.400 . S
C1447 C1446 1.400 . S
C1447 C1448 1.398 . S
C1447 C1453 1.491 1_655 S
C1448 H1439 0.950 . S
C1448 C1447 1.398 . S
C1448 C1449 1.391 . S
C1449 H1437 0.950 . S
C1449 C1445 1.393 . S
C1449 C1448 1.391 . S
C1450 H1440 0.950 . S
C1450 C1451 1.386 . S
C1450 C1452 1.391 . S
C1451 C1450 1.386 . S
C1451 C1455 1.393 . S
C1452 H1441 0.950 . S
C1452 C1450 1.391 . S
C1452 C1453 1.400 . S
C1453 C1447 1.491 1_455 S
C1453 C1452 1.400 . S
C1453 C1454 1.398 . S
C1454 H1442 0.950 . S
C1454 C1453 1.398 . S
C1454 C1455 1.391 . S
C1455 H1443 0.950 . S
C1455 C1451 1.393 . S
C1455 C1454 1.391 . S
H1456 C1464 0.950 . S
H1457 C1469 0.950 . S
H1458 C1466 0.950 . S
H1459 C1468 0.950 . S
H1460 C1470 0.950 . S
H1461 C1472 0.950 . S
H1462 C1474 0.950 . S
H1463 C1475 0.950 . S
C1464 H1456 0.950 . S
C1464 C1465 1.386 . S
C1464 C1466 1.391 . S
C1465 C1464 1.386 . S
C1465 C1469 1.393 . S
C1466 H1458 0.950 . S
C1466 C1464 1.391 . S
C1466 C1467 1.400 . S
C1467 C1466 1.400 . S
C1467 C1468 1.398 . S
C1467 C1473 1.491 . S
C1468 H1459 0.950 . S
C1468 C1467 1.398 . S
C1468 C1469 1.391 . S
C1469 H1457 0.950 . S
C1469 C1465 1.393 . S
C1469 C1468 1.391 . S
C1470 H1460 0.950 . S
C1470 C1471 1.386 . S
C1470 C1472 1.391 . S
C1471 C1470 1.386 . S
C1471 C1475 1.393 . S
C1472 H1461 0.950 . S
C1472 C1470 1.391 . S
C1472 C1473 1.400 . S
C1473 C1467 1.491 . S
C1473 C1472 1.400 . S
C1473 C1474 1.398 . S
C1474 H1462 0.950 . S
C1474 C1473 1.398 . S
C1474 C1475 1.391 . S
C1475 H1463 0.950 . S
C1475 C1471 1.393 . S
C1475 C1474 1.391 . S
H1476 C1484 0.950 . S
H1477 C1489 0.950 . S
H1478 C1486 0.950 . S
H1479 C1488 0.950 . S
H1480 C1490 0.950 . S
H1481 C1492 0.950 . S
H1482 C1494 0.950 . S
H1483 C1495 0.950 . S
C1484 H1476 0.950 . S
C1484 C1485 1.386 . S
C1484 C1486 1.391 . S
C1485 C1484 1.386 . S
C1485 C1489 1.393 . S
C1486 H1478 0.950 . S
C1486 C1484 1.391 . S
C1486 C1487 1.400 . S
C1487 C1486 1.400 . S
C1487 C1488 1.398 . S
C1487 C1493 1.491 1_455 S
C1488 H1479 0.950 . S
C1488 C1487 1.398 . S
C1488 C1489 1.391 . S
C1489 H1477 0.950 . S
C1489 C1485 1.393 . S
C1489 C1488 1.391 . S
C1490 H1480 0.950 . S
C1490 C1491 1.386 . S
C1490 C1492 1.391 . S
C1491 C1490 1.386 . S
C1491 C1495 1.393 . S
C1492 H1481 0.950 . S
C1492 C1490 1.391 . S
C1492 C1493 1.400 . S
C1493 C1487 1.491 1_655 S
C1493 C1492 1.400 . S
C1493 C1494 1.398 . S
C1494 H1482 0.950 . S
C1494 C1493 1.398 . S
C1494 C1495 1.391 . S
C1495 H1483 0.950 . S
C1495 C1491 1.393 . S
C1495 C1494 1.391 . S
H1496 C1504 0.950 . S
H1497 C1509 0.950 . S
H1498 C1506 0.950 . S
H1499 C1508 0.950 . S
H1500 C1510 0.950 . S
H1501 C1512 0.950 . S
H1502 C1514 0.950 . S
H1503 C1515 0.950 . S
C1504 H1496 0.950 . S
C1504 C1505 1.386 . S
C1504 C1506 1.391 . S
C1505 C1504 1.386 . S
C1505 C1509 1.393 . S
C1506 H1498 0.950 . S
C1506 C1504 1.391 . S
C1506 C1507 1.400 . S
C1507 C1506 1.400 . S
C1507 C1508 1.398 . S
C1507 C1513 1.491 . S
C1508 H1499 0.950 . S
C1508 C1507 1.398 . S
C1508 C1509 1.391 . S
C1509 H1497 0.950 . S
C1509 C1505 1.393 . S
C1509 C1508 1.391 . S
C1510 H1500 0.950 . S
C1510 C1511 1.386 . S
C1510 C1512 1.391 . S
C1511 C1510 1.386 . S
C1511 C1515 1.393 . S
C1512 H1501 0.950 . S
C1512 C1510 1.391 . S
C1512 C1513 1.400 . S
C1513 C1507 1.491 . S
C1513 C1512 1.400 . S
C1513 C1514 1.398 . S
C1514 H1502 0.950 . S
C1514 C1513 1.398 . S
C1514 C1515 1.391 . S
C1515 H1503 0.950 . S
C1515 C1511 1.393 . S
C1515 C1514 1.391 . S
H1516 C1524 0.950 . S
H1517 C1529 0.950 . S
H1518 C1526 0.950 . S
H1519 C1528 0.950 . S
H1520 C1530 0.950 . S
H1521 C1532 0.950 . S
H1522 C1534 0.950 . S
H1523 C1535 0.950 . S
C1524 H1516 0.950 . S
C1524 C1525 1.386 . S
C1524 C1526 1.391 . S
C1525 C1524 1.386 . S
C1525 C1529 1.393 . S
C1526 H1518 0.950 . S
C1526 C1524 1.391 . S
C1526 C1527 1.400 . S
C1527 C1526 1.400 . S
C1527 C1528 1.398 . S
C1527 C1533 1.491 1_655 S
C1528 H1519 0.950 . S
C1528 C1527 1.398 . S
C1528 C1529 1.391 . S
C1529 H1517 0.950 . S
C1529 C1525 1.393 . S
C1529 C1528 1.391 . S
C1530 H1520 0.950 . S
C1530 C1531 1.386 . S
C1530 C1532 1.391 . S
C1531 C1530 1.386 . S
C1531 C1535 1.393 . S
C1532 H1521 0.950 . S
C1532 C1530 1.391 . S
C1532 C1533 1.400 . S
C1533 C1527 1.491 1_455 S
C1533 C1532 1.400 . S
C1533 C1534 1.398 . S
C1534 H1522 0.950 . S
C1534 C1533 1.398 . S
C1534 C1535 1.391 . S
C1535 H1523 0.950 . S
C1535 C1531 1.393 . S
C1535 C1534 1.391 . S
H1536 C1544 0.950 . S
H1537 C1549 0.950 . S
H1538 C1546 0.950 . S
H1539 C1548 0.950 . S
H1540 C1550 0.950 . S
H1541 C1552 0.950 . S
H1542 C1554 0.950 . S
H1543 C1555 0.950 . S
C1544 H1536 0.950 . S
C1544 C1545 1.386 . S
C1544 C1546 1.391 . S
C1545 C1544 1.386 . S
C1545 C1549 1.393 . S
C1546 H1538 0.950 . S
C1546 C1544 1.391 . S
C1546 C1547 1.400 . S
C1547 C1546 1.400 . S
C1547 C1548 1.398 . S
C1547 C1553 1.491 . S
C1548 H1539 0.950 . S
C1548 C1547 1.398 . S
C1548 C1549 1.391 . S
C1549 H1537 0.950 . S
C1549 C1545 1.393 . S
C1549 C1548 1.391 . S
C1550 H1540 0.950 . S
C1550 C1551 1.386 . S
C1550 C1552 1.391 . S
C1551 C1550 1.386 . S
C1551 C1555 1.393 . S
C1552 H1541 0.950 . S
C1552 C1550 1.391 . S
C1552 C1553 1.400 . S
C1553 C1547 1.491 . S
C1553 C1552 1.400 . S
C1553 C1554 1.398 . S
C1554 H1542 0.950 . S
C1554 C1553 1.398 . S
C1554 C1555 1.391 . S
C1555 H1543 0.950 . S
C1555 C1551 1.393 . S
C1555 C1554 1.391 . S
H1556 C1564 0.950 . S
H1557 C1569 0.950 . S
H1558 C1566 0.950 . S
H1559 C1568 0.950 . S
H1560 C1570 0.950 . S
H1561 C1572 0.950 . S
H1562 C1574 0.950 . S
H1563 C1575 0.950 . S
C1564 H1556 0.950 . S
C1564 C1565 1.386 . S
C1564 C1566 1.391 . S
C1565 C1564 1.386 . S
C1565 C1569 1.393 . S
C1566 H1558 0.950 . S
C1566 C1564 1.391 . S
C1566 C1567 1.400 . S
C1567 C1566 1.400 . S
C1567 C1568 1.398 . S
C1567 C1573 1.491 1_655 S
C1568 H1559 0.950 . S
C1568 C1567 1.398 . S
C1568 C1569 1.391 . S
C1569 H1557 0.950 . S
C1569 C1565 1.393 . S
C1569 C1568 1.391 . S
C1570 H1560 0.950 . S
C1570 C1571 1.386 . S
C1570 C1572 1.391 . S
C1571 C1570 1.386 . S
C1571 C1575 1.393 . S
C1572 H1561 0.950 . S
C1572 C1570 1.391 . S
C1572 C1573 1.400 . S
C1573 C1567 1.491 1_455 S
C1573 C1572 1.400 . S
C1573 C1574 1.398 . S
C1574 H1562 0.950 . S
C1574 C1573 1.398 . S
C1574 C1575 1.391 . S
C1575 H1563 0.950 . S
C1575 C1571 1.393 . S
C1575 C1574 1.391 . S
H1576 C1584 0.950 . S
H1577 C1589 0.950 . S
H1578 C1586 0.950 . S
H1579 C1588 0.950 . S
H1580 C1590 0.950 . S
H1581 C1592 0.950 . S
H1582 C1594 0.950 . S
H1583 C1595 0.950 . S
C1584 H1576 0.950 . S
C1584 C1585 1.386 . S
C1584 C1586 1.391 . S
C1585 C1584 1.386 . S
C1585 C1589 1.393 . S
C1586 H1578 0.950 . S
C1586 C1584 1.391 . S
C1586 C1587 1.400 . S
C1587 C1586 1.400 . S
C1587 C1588 1.398 . S
C1587 C1593 1.491 . S
C1588 H1579 0.950 . S
C1588 C1587 1.398 . S
C1588 C1589 1.391 . S
C1589 H1577 0.950 . S
C1589 C1585 1.393 . S
C1589 C1588 1.391 . S
C1590 H1580 0.950 . S
C1590 C1591 1.386 . S
C1590 C1592 1.391 . S
C1591 C1590 1.386 . S
C1591 C1595 1.393 . S
C1592 H1581 0.950 . S
C1592 C1590 1.391 . S
C1592 C1593 1.400 . S
C1593 C1587 1.491 . S
C1593 C1592 1.400 . S
C1593 C1594 1.398 . S
C1594 H1582 0.950 . S
C1594 C1593 1.398 . S
C1594 C1595 1.391 . S
C1595 H1583 0.950 . S
C1595 C1591 1.393 . S
C1595 C1594 1.391 . S
H1596 C1604 0.950 . S
H1597 C1609 0.950 . S
H1598 C1606 0.950 . S
H1599 C1608 0.950 . S
H1600 C1610 0.950 . S
H1601 C1612 0.950 . S
H1602 C1614 0.950 . S
H1603 C1615 0.950 . S
C1604 H1596 0.950 . S
C1604 C1605 1.386 . S
C1604 C1606 1.391 . S
C1605 C1604 1.386 . S
C1605 C1609 1.393 . S
C1606 H1598 0.950 . S
C1606 C1604 1.391 . S
C1606 C1607 1.400 . S
C1607 C1606 1.400 . S
C1607 C1608 1.398 . S
C1607 C1613 1.491 1_556 S
C1608 H1599 0.950 . S
C1608 C1607 1.398 . S
C1608 C1609 1.391 . S
C1609 H1597 0.950 . S
C1609 C1605 1.393 . S
C1609 C1608 1.391 . S
C1610 H1600 0.950 . S
C1610 C1611 1.386 . S
C1610 C1612 1.391 . S
C1611 C1610 1.386 . S
C1611 C1615 1.393 . S
C1612 H1601 0.950 . S
C1612 C1610 1.391 . S
C1612 C1613 1.400 . S
C1613 C1607 1.491 1_554 S
C1613 C1612 1.400 . S
C1613 C1614 1.398 . S
C1614 H1602 0.950 . S
C1614 C1613 1.398 . S
C1614 C1615 1.391 . S
C1615 H1603 0.950 . S
C1615 C1611 1.393 . S
C1615 C1614 1.391 . S
H1616 C1624 0.950 . S
H1617 C1629 0.950 . S
H1618 C1626 0.950 . S
H1619 C1628 0.950 . S
H1620 C1630 0.950 . S
H1621 C1632 0.950 . S
H1622 C1634 0.950 . S
H1623 C1635 0.950 . S
C1624 H1616 0.950 . S
C1624 C1625 1.386 . S
C1624 C1626 1.391 . S
C1625 C1624 1.386 . S
C1625 C1629 1.393 . S
C1626 H1618 0.950 . S
C1626 C1624 1.391 . S
C1626 C1627 1.400 . S
C1627 C1626 1.400 . S
C1627 C1628 1.398 . S
C1627 C1633 1.491 . S
C1628 H1619 0.950 . S
C1628 C1627 1.398 . S
C1628 C1629 1.391 . S
C1629 H1617 0.950 . S
C1629 C1625 1.393 . S
C1629 C1628 1.391 . S
C1630 H1620 0.950 . S
C1630 C1631 1.386 . S
C1630 C1632 1.391 . S
C1631 C1630 1.386 . S
C1631 C1635 1.393 . S
C1632 H1621 0.950 . S
C1632 C1630 1.391 . S
C1632 C1633 1.400 . S
C1633 C1627 1.491 . S
C1633 C1632 1.400 . S
C1633 C1634 1.398 . S
C1634 H1622 0.950 . S
C1634 C1633 1.398 . S
C1634 C1635 1.391 . S
C1635 H1623 0.950 . S
C1635 C1631 1.393 . S
C1635 C1634 1.391 . S
H1636 C1644 0.950 . S
H1637 C1649 0.950 . S
H1638 C1646 0.950 . S
H1639 C1648 0.950 . S
H1640 C1650 0.950 . S
H1641 C1652 0.950 . S
H1642 C1654 0.950 . S
H1643 C1655 0.950 . S
C1644 H1636 0.950 . S
C1644 C1645 1.386 . S
C1644 C1646 1.391 . S
C1645 C1644 1.386 . S
C1645 C1649 1.393 . S
C1646 H1638 0.950 . S
C1646 C1644 1.391 . S
C1646 C1647 1.400 . S
C1647 C1646 1.400 . S
C1647 C1648 1.398 . S
C1647 C1653 1.491 1_554 S
C1648 H1639 0.950 . S
C1648 C1647 1.398 . S
C1648 C1649 1.391 . S
C1649 H1637 0.950 . S
C1649 C1645 1.393 . S
C1649 C1648 1.391 . S
C1650 H1640 0.950 . S
C1650 C1651 1.386 . S
C1650 C1652 1.391 . S
C1651 C1650 1.386 . S
C1651 C1655 1.393 . S
C1652 H1641 0.950 . S
C1652 C1650 1.391 . S
C1652 C1653 1.400 . S
C1653 C1647 1.491 1_556 S
C1653 C1652 1.400 . S
C1653 C1654 1.398 . S
C1654 H1642 0.950 . S
C1654 C1653 1.398 . S
C1654 C1655 1.391 . S
C1655 H1643 0.950 . S
C1655 C1651 1.393 . S
C1655 C1654 1.391 . S
H1656 C1664 0.950 . S
H1657 C1669 0.950 . S
H1658 C1666 0.950 . S
H1659 C1668 0.950 . S
H1660 C1670 0.950 . S
H1661 C1672 0.950 . S
H1662 C1674 0.950 . S
H1663 C1675 0.950 . S
C1664 H1656 0.950 . S
C1664 C1665 1.386 . S
C1664 C1666 1.391 . S
C1665 C1664 1.386 . S
C1665 C1669 1.393 . S
C1666 H1658 0.950 . S
C1666 C1664 1.391 . S
C1666 C1667 1.400 . S
C1667 C1666 1.400 . S
C1667 C1668 1.398 . S
C1667 C1673 1.491 . S
C1668 H1659 0.950 . S
C1668 C1667 1.398 . S
C1668 C1669 1.391 . S
C1669 H1657 0.950 . S
C1669 C1665 1.393 . S
C1669 C1668 1.391 . S
C1670 H1660 0.950 . S
C1670 C1671 1.386 . S
C1670 C1672 1.391 . S
C1671 C1670 1.386 . S
C1671 C1675 1.393 . S
C1672 H1661 0.950 . S
C1672 C1670 1.391 . S
C1672 C1673 1.400 . S
C1673 C1667 1.491 . S
C1673 C1672 1.400 . S
C1673 C1674 1.398 . S
C1674 H1662 0.950 . S
C1674 C1673 1.398 . S
C1674 C1675 1.391 . S
C1675 H1663 0.950 . S
C1675 C1671 1.393 . S
C1675 C1674 1.391 . S
H1676 C1684 0.950 . S
H1677 C1689 0.950 . S
H1678 C1686 0.950 . S
H1679 C1688 0.950 . S
H1680 C1690 0.950 . S
H1681 C1692 0.950 . S
H1682 C1694 0.950 . S
H1683 C1695 0.950 . S
C1684 H1676 0.950 . S
C1684 C1685 1.386 . S
C1684 C1686 1.391 . S
C1685 C1684 1.386 . S
C1685 C1689 1.393 . S
C1686 H1678 0.950 . S
C1686 C1684 1.391 . S
C1686 C1687 1.400 . S
C1687 C1686 1.400 . S
C1687 C1688 1.398 . S
C1687 C1693 1.491 1_554 S
C1688 H1679 0.950 . S
C1688 C1687 1.398 . S
C1688 C1689 1.391 . S
C1689 H1677 0.950 . S
C1689 C1685 1.393 . S
C1689 C1688 1.391 . S
C1690 H1680 0.950 . S
C1690 C1691 1.386 . S
C1690 C1692 1.391 . S
C1691 C1690 1.386 . S
C1691 C1695 1.393 . S
C1692 H1681 0.950 . S
C1692 C1690 1.391 . S
C1692 C1693 1.400 . S
C1693 C1687 1.491 1_556 S
C1693 C1692 1.400 . S
C1693 C1694 1.398 . S
C1694 H1682 0.950 . S
C1694 C1693 1.398 . S
C1694 C1695 1.391 . S
C1695 H1683 0.950 . S
C1695 C1691 1.393 . S
C1695 C1694 1.391 . S
H1696 C1704 0.950 . S
H1697 C1709 0.950 . S
H1698 C1706 0.950 . S
H1699 C1708 0.950 . S
H1700 C1710 0.950 . S
H1701 C1712 0.950 . S
H1702 C1714 0.950 . S
H1703 C1715 0.950 . S
C1704 H1696 0.950 . S
C1704 C1705 1.386 . S
C1704 C1706 1.391 . S
C1705 C1704 1.386 . S
C1705 C1709 1.393 . S
C1706 H1698 0.950 . S
C1706 C1704 1.391 . S
C1706 C1707 1.400 . S
C1707 C1706 1.400 . S
C1707 C1708 1.398 . S
C1707 C1713 1.491 . S
C1708 H1699 0.950 . S
C1708 C1707 1.398 . S
C1708 C1709 1.391 . S
C1709 H1697 0.950 . S
C1709 C1705 1.393 . S
C1709 C1708 1.391 . S
C1710 H1700 0.950 . S
C1710 C1711 1.386 . S
C1710 C1712 1.391 . S
C1711 C1710 1.386 . S
C1711 C1715 1.393 . S
C1712 H1701 0.950 . S
C1712 C1710 1.391 . S
C1712 C1713 1.400 . S
C1713 C1707 1.491 . S
C1713 C1712 1.400 . S
C1713 C1714 1.398 . S
C1714 H1702 0.950 . S
C1714 C1713 1.398 . S
C1714 C1715 1.391 . S
C1715 H1703 0.950 . S
C1715 C1711 1.393 . S
C1715 C1714 1.391 . S
H1716 C1724 0.950 . S
H1717 C1729 0.950 . S
H1718 C1726 0.950 . S
H1719 C1728 0.950 . S
H1720 C1730 0.950 . S
H1721 C1732 0.950 . S
H1722 C1734 0.950 . S
H1723 C1735 0.950 . S
C1724 H1716 0.950 . S
C1724 C1725 1.386 . S
C1724 C1726 1.391 . S
C1725 C1724 1.386 . S
C1725 C1729 1.393 . S
C1726 H1718 0.950 . S
C1726 C1724 1.391 . S
C1726 C1727 1.400 . S
C1727 C1726 1.400 . S
C1727 C1728 1.398 . S
C1727 C1733 1.491 1_554 S
C1728 H1719 0.950 . S
C1728 C1727 1.398 . S
C1728 C1729 1.391 . S
C1729 H1717 0.950 . S
C1729 C1725 1.393 . S
C1729 C1728 1.391 . S
C1730 H1720 0.950 . S
C1730 C1731 1.386 . S
C1730 C1732 1.391 . S
C1731 C1730 1.386 . S
C1731 C1735 1.393 . S
C1732 H1721 0.950 . S
C1732 C1730 1.391 . S
C1732 C1733 1.400 . S
C1733 C1727 1.491 1_556 S
C1733 C1732 1.400 . S
C1733 C1734 1.398 . S
C1734 H1722 0.950 . S
C1734 C1733 1.398 . S
C1734 C1735 1.391 . S
C1735 H1723 0.950 . S
C1735 C1731 1.393 . S
C1735 C1734 1.391 . S
H1736 C1744 0.950 . S
H1737 C1749 0.950 . S
H1738 C1746 0.950 . S
H1739 C1748 0.950 . S
H1740 C1750 0.950 . S
H1741 C1752 0.950 . S
H1742 C1754 0.950 . S
H1743 C1755 0.950 . S
C1744 H1736 0.950 . S
C1744 C1745 1.386 . S
C1744 C1746 1.391 . S
C1745 C1744 1.386 . S
C1745 C1749 1.393 . S
C1746 H1738 0.950 . S
C1746 C1744 1.391 . S
C1746 C1747 1.400 . S
C1747 C1746 1.400 . S
C1747 C1748 1.398 . S
C1747 C1753 1.491 . S
C1748 H1739 0.950 . S
C1748 C1747 1.398 . S
C1748 C1749 1.391 . S
C1749 H1737 0.950 . S
C1749 C1745 1.393 . S
C1749 C1748 1.391 . S
C1750 H1740 0.950 . S
C1750 C1751 1.386 . S
C1750 C1752 1.391 . S
C1751 C1750 1.386 . S
C1751 C1755 1.393 . S
C1752 H1741 0.950 . S
C1752 C1750 1.391 . S
C1752 C1753 1.400 . S
C1753 C1747 1.491 . S
C1753 C1752 1.400 . S
C1753 C1754 1.398 . S
C1754 H1742 0.950 . S
C1754 C1753 1.398 . S
C1754 C1755 1.391 . S
C1755 H1743 0.950 . S
C1755 C1751 1.393 . S
C1755 C1754 1.391 . S
H1756 C1764 0.950 . S
H1757 C1769 0.950 . S
H1758 C1766 0.950 . S
H1759 C1768 0.950 . S
H1760 C1770 0.950 . S
H1761 C1772 0.950 . S
H1762 C1774 0.950 . S
H1763 C1775 0.950 . S
C1764 H1756 0.950 . S
C1764 C1765 1.386 . S
C1764 C1766 1.391 . S
C1765 C1764 1.386 . S
C1765 C1769 1.393 . S
C1766 H1758 0.950 . S
C1766 C1764 1.391 . S
C1766 C1767 1.400 . S
C1767 C1766 1.400 . S
C1767 C1768 1.398 . S
C1767 C1773 1.491 . S
C1768 H1759 0.950 . S
C1768 C1767 1.398 . S
C1768 C1769 1.391 . S
C1769 H1757 0.950 . S
C1769 C1765 1.393 . S
C1769 C1768 1.391 . S
C1770 H1760 0.950 . S
C1770 C1771 1.386 . S
C1770 C1772 1.391 . S
C1771 C1770 1.386 . S
C1771 C1775 1.393 . S
C1772 H1761 0.950 . S
C1772 C1770 1.391 . S
C1772 C1773 1.400 . S
C1773 C1767 1.491 . S
C1773 C1772 1.400 . S
C1773 C1774 1.398 . S
C1774 H1762 0.950 . S
C1774 C1773 1.398 . S
C1774 C1775 1.391 . S
C1775 H1763 0.950 . S
C1775 C1771 1.393 . S
C1775 C1774 1.391 . S
H1776 C1784 0.950 . S
H1777 C1789 0.950 . S
H1778 C1786 0.950 . S
H1779 C1788 0.950 . S
H1780 C1790 0.950 . S
H1781 C1792 0.950 . S
H1782 C1794 0.950 . S
H1783 C1795 0.950 . S
C1784 H1776 0.950 . S
C1784 C1785 1.386 . S
C1784 C1786 1.391 . S
C1785 C1784 1.386 . S
C1785 C1789 1.393 . S
C1786 H1778 0.950 . S
C1786 C1784 1.391 . S
C1786 C1787 1.400 . S
C1787 C1786 1.400 . S
C1787 C1788 1.398 . S
C1787 C1793 1.491 1_565 S
C1788 H1779 0.950 . S
C1788 C1787 1.398 . S
C1788 C1789 1.391 . S
C1789 H1777 0.950 . S
C1789 C1785 1.393 . S
C1789 C1788 1.391 . S
C1790 H1780 0.950 . S
C1790 C1791 1.386 . S
C1790 C1792 1.391 . S
C1791 C1790 1.386 . S
C1791 C1795 1.393 . S
C1792 H1781 0.950 . S
C1792 C1790 1.391 . S
C1792 C1793 1.400 . S
C1793 C1787 1.491 1_545 S
C1793 C1792 1.400 . S
C1793 C1794 1.398 . S
C1794 H1782 0.950 . S
C1794 C1793 1.398 . S
C1794 C1795 1.391 . S
C1795 H1783 0.950 . S
C1795 C1791 1.393 . S
C1795 C1794 1.391 . S
H1796 C1804 0.950 . S
H1797 C1809 0.950 . S
H1798 C1806 0.950 . S
H1799 C1808 0.950 . S
H1800 C1810 0.950 . S
H1801 C1812 0.950 . S
H1802 C1814 0.950 . S
H1803 C1815 0.950 . S
C1804 H1796 0.950 . S
C1804 C1805 1.386 . S
C1804 C1806 1.391 . S
C1805 C1804 1.386 . S
C1805 C1809 1.393 . S
C1806 H1798 0.950 . S
C1806 C1804 1.391 . S
C1806 C1807 1.400 . S
C1807 C1806 1.400 . S
C1807 C1808 1.398 . S
C1807 C1813 1.491 . S
C1808 H1799 0.950 . S
C1808 C1807 1.398 . S
C1808 C1809 1.391 . S
C1809 H1797 0.950 . S
C1809 C1805 1.393 . S
C1809 C1808 1.391 . S
C1810 H1800 0.950 . S
C1810 C1811 1.386 . S
C1810 C1812 1.391 . S
C1811 C1810 1.386 . S
C1811 C1815 1.393 . S
C1812 H1801 0.950 . S
C1812 C1810 1.391 . S
C1812 C1813 1.400 . S
C1813 C1807 1.491 . S
C1813 C1812 1.400 . S
C1813 C1814 1.398 . S
C1814 H1802 0.950 . S
C1814 C1813 1.398 . S
C1814 C1815 1.391 . S
C1815 H1803 0.950 . S
C1815 C1811 1.393 . S
C1815 C1814 1.391 . S
H1816 C1824 0.950 . S
H1817 C1829 0.950 . S
H1818 C1826 0.950 . S
H1819 C1828 0.950 . S
H1820 C1830 0.950 . S
H1821 C1832 0.950 . S
H1822 C1834 0.950 . S
H1823 C1835 0.950 . S
C1824 H1816 0.950 . S
C1824 C1825 1.386 . S
C1824 C1826 1.391 . S
C1825 C1824 1.386 . S
C1825 C1829 1.393 . S
C1826 H1818 0.950 . S
C1826 C1824 1.391 . S
C1826 C1827 1.400 . S
C1827 C1826 1.400 . S
C1827 C1828 1.398 . S
C1827 C1833 1.491 1_565 S
C1828 H1819 0.950 . S
C1828 C1827 1.398 . S
C1828 C1829 1.391 . S
C1829 H1817 0.950 . S
C1829 C1825 1.393 . S
C1829 C1828 1.391 . S
C1830 H1820 0.950 . S
C1830 C1831 1.386 . S
C1830 C1832 1.391 . S
C1831 C1830 1.386 . S
C1831 C1835 1.393 . S
C1832 H1821 0.950 . S
C1832 C1830 1.391 . S
C1832 C1833 1.400 . S
C1833 C1827 1.491 1_545 S
C1833 C1832 1.400 . S
C1833 C1834 1.398 . S
C1834 H1822 0.950 . S
C1834 C1833 1.398 . S
C1834 C1835 1.391 . S
C1835 H1823 0.950 . S
C1835 C1831 1.393 . S
C1835 C1834 1.391 . S
H1836 C1844 0.950 . S
H1837 C1849 0.950 . S
H1838 C1846 0.950 . S
H1839 C1848 0.950 . S
H1840 C1850 0.950 . S
H1841 C1852 0.950 . S
H1842 C1854 0.950 . S
H1843 C1855 0.950 . S
C1844 H1836 0.950 . S
C1844 C1845 1.386 . S
C1844 C1846 1.391 . S
C1845 C1844 1.386 . S
C1845 C1849 1.393 . S
C1846 H1838 0.950 . S
C1846 C1844 1.391 . S
C1846 C1847 1.400 . S
C1847 C1846 1.400 . S
C1847 C1848 1.398 . S
C1847 C1853 1.491 . S
C1848 H1839 0.950 . S
C1848 C1847 1.398 . S
C1848 C1849 1.391 . S
C1849 H1837 0.950 . S
C1849 C1845 1.393 . S
C1849 C1848 1.391 . S
C1850 H1840 0.950 . S
C1850 C1851 1.386 . S
C1850 C1852 1.391 . S
C1851 C1850 1.386 . S
C1851 C1855 1.393 . S
C1852 H1841 0.950 . S
C1852 C1850 1.391 . S
C1852 C1853 1.400 . S
C1853 C1847 1.491 . S
C1853 C1852 1.400 . S
C1853 C1854 1.398 . S
C1854 H1842 0.950 . S
C1854 C1853 1.398 . S
C1854 C1855 1.391 . S
C1855 H1843 0.950 . S
C1855 C1851 1.393 . S
C1855 C1854 1.391 . S
H1856 C1864 0.950 . S
H1857 C1869 0.950 . S
H1858 C1866 0.950 . S
H1859 C1868 0.950 . S
H1860 C1870 0.950 . S
H1861 C1872 0.950 . S
H1862 C1874 0.950 . S
H1863 C1875 0.950 . S
C1864 H1856 0.950 . S
C1864 C1865 1.386 . S
C1864 C1866 1.391 . S
C1865 C1864 1.386 . S
C1865 C1869 1.393 . S
C1866 H1858 0.950 . S
C1866 C1864 1.391 . S
C1866 C1867 1.400 . S
C1867 C1866 1.400 . S
C1867 C1868 1.398 . S
C1867 C1873 1.491 1_565 S
C1868 H1859 0.950 . S
C1868 C1867 1.398 . S
C1868 C1869 1.391 . S
C1869 H1857 0.950 . S
C1869 C1865 1.393 . S
C1869 C1868 1.391 . S
C1870 H1860 0.950 . S
C1870 C1871 1.386 . S
C1870 C1872 1.391 . S
C1871 C1870 1.386 . S
C1871 C1875 1.393 . S
C1872 H1861 0.950 . S
C1872 C1870 1.391 . S
C1872 C1873 1.400 . S
C1873 C1867 1.491 1_545 S
C1873 C1872 1.400 . S
C1873 C1874 1.398 . S
C1874 H1862 0.950 . S
C1874 C1873 1.398 . S
C1874 C1875 1.391 . S
C1875 H1863 0.950 . S
C1875 C1871 1.393 . S
C1875 C1874 1.391 . S
H1876 C1884 0.950 . S
H1877 C1889 0.950 . S
H1878 C1886 0.950 . S
H1879 C1888 0.950 . S
H1880 C1890 0.950 . S
H1881 C1892 0.950 . S
H1882 C1894 0.950 . S
H1883 C1895 0.950 . S
C1884 H1876 0.950 . S
C1884 C1885 1.386 . S
C1884 C1886 1.391 . S
C1885 C1884 1.386 . S
C1885 C1889 1.393 . S
C1886 H1878 0.950 . S
C1886 C1884 1.391 . S
C1886 C1887 1.400 . S
C1887 C1886 1.400 . S
C1887 C1888 1.398 . S
C1887 C1893 1.491 1_545 S
C1888 H1879 0.950 . S
C1888 C1887 1.398 . S
C1888 C1889 1.391 . S
C1889 H1877 0.950 . S
C1889 C1885 1.393 . S
C1889 C1888 1.391 . S
C1890 H1880 0.950 . S
C1890 C1891 1.386 . S
C1890 C1892 1.391 . S
C1891 C1890 1.386 . S
C1891 C1895 1.393 . S
C1892 H1881 0.950 . S
C1892 C1890 1.391 . S
C1892 C1893 1.400 . S
C1893 C1887 1.491 1_565 S
C1893 C1892 1.400 . S
C1893 C1894 1.398 . S
C1894 H1882 0.950 . S
C1894 C1893 1.398 . S
C1894 C1895 1.391 . S
C1895 H1883 0.950 . S
C1895 C1891 1.393 . S
C1895 C1894 1.391 . S
H1896 C1904 0.950 . S
H1897 C1909 0.950 . S
H1898 C1906 0.950 . S
H1899 C1908 0.950 . S
H1900 C1910 0.950 . S
H1901 C1912 0.950 . S
H1902 C1914 0.950 . S
H1903 C1915 0.950 . S
C1904 H1896 0.950 . S
C1904 C1905 1.386 . S
C1904 C1906 1.391 . S
C1905 C1904 1.386 . S
C1905 C1909 1.393 . S
C1906 H1898 0.950 . S
C1906 C1904 1.391 . S
C1906 C1907 1.400 . S
C1907 C1906 1.400 . S
C1907 C1908 1.398 . S
C1907 C1913 1.491 . S
C1908 H1899 0.950 . S
C1908 C1907 1.398 . S
C1908 C1909 1.391 . S
C1909 H1897 0.950 . S
C1909 C1905 1.393 . S
C1909 C1908 1.391 . S
C1910 H1900 0.950 . S
C1910 C1911 1.386 . S
C1910 C1912 1.391 . S
C1911 C1910 1.386 . S
C1911 C1915 1.393 . S
C1912 H1901 0.950 . S
C1912 C1910 1.391 . S
C1912 C1913 1.400 . S
C1913 C1907 1.491 . S
C1913 C1912 1.400 . S
C1913 C1914 1.398 . S
C1914 H1902 0.950 . S
C1914 C1913 1.398 . S
C1914 C1915 1.391 . S
C1915 H1903 0.950 . S
C1915 C1911 1.393 . S
C1915 C1914 1.391 . S
H1916 C1924 0.950 . S
H1917 C1929 0.950 . S
H1918 C1926 0.950 . S
H1919 C1928 0.950 . S
H1920 C1930 0.950 . S
H1921 C1932 0.950 . S
H1922 C1934 0.950 . S
H1923 C1935 0.950 . S
C1924 H1916 0.950 . S
C1924 C1925 1.386 . S
C1924 C1926 1.391 . S
C1925 C1924 1.386 . S
C1925 C1929 1.393 . S
C1926 H1918 0.950 . S
C1926 C1924 1.391 . S
C1926 C1927 1.400 . S
C1927 C1926 1.400 . S
C1927 C1928 1.398 . S
C1927 C1933 1.491 . S
C1928 H1919 0.950 . S
C1928 C1927 1.398 . S
C1928 C1929 1.391 . S
C1929 H1917 0.950 . S
C1929 C1925 1.393 . S
C1929 C1928 1.391 . S
C1930 H1920 0.950 . S
C1930 C1931 1.386 . S
C1930 C1932 1.391 . S
C1931 C1930 1.386 . S
C1931 C1935 1.393 . S
C1932 H1921 0.950 . S
C1932 C1930 1.391 . S
C1932 C1933 1.400 . S
C1933 C1927 1.491 . S
C1933 C1932 1.400 . S
C1933 C1934 1.398 . S
C1934 H1922 0.950 . S
C1934 C1933 1.398 . S
C1934 C1935 1.391 . S
C1935 H1923 0.950 . S
C1935 C1931 1.393 . S
C1935 C1934 1.391 . S
H1936 C1944 0.950 . S
H1937 C1949 0.950 . S
H1938 C1946 0.950 . S
H1939 C1948 0.950 . S
H1940 C1950 0.950 . S
H1941 C1952 0.950 . S
H1942 C1954 0.950 . S
H1943 C1955 0.950 . S
C1944 H1936 0.950 . S
C1944 C1945 1.386 . S
C1944 C1946 1.391 . S
C1945 C1944 1.386 . S
C1945 C1949 1.393 . S
C1946 H1938 0.950 . S
C1946 C1944 1.391 . S
C1946 C1947 1.400 . S
C1947 C1946 1.400 . S
C1947 C1948 1.398 . S
C1947 C1953 1.491 . S
C1948 H1939 0.950 . S
C1948 C1947 1.398 . S
C1948 C1949 1.391 . S
C1949 H1937 0.950 . S
C1949 C1945 1.393 . S
C1949 C1948 1.391 . S
C1950 H1940 0.950 . S
C1950 C1951 1.386 . S
C1950 C1952 1.391 . S
C1951 C1950 1.386 . S
C1951 C1955 1.393 . S
C1952 H1941 0.950 . S
C1952 C1950 1.391 . S
C1952 C1953 1.400 . S
C1953 C1947 1.491 . S
C1953 C1952 1.400 . S
C1953 C1954 1.398 . S
C1954 H1942 0.950 . S
C1954 C1953 1.398 . S
C1954 C1955 1.391 . S
C1955 H1943 0.950 . S
C1955 C1951 1.393 . S
C1955 C1954 1.391 . S
H1956 C1964 0.950 . S
H1957 C1969 0.950 . S
H1958 C1966 0.950 . S
H1959 C1968 0.950 . S
H1960 C1970 0.950 . S
H1961 C1972 0.950 . S
H1962 C1974 0.950 . S
H1963 C1975 0.950 . S
C1964 H1956 0.950 . S
C1964 C1965 1.386 . S
C1964 C1966 1.391 . S
C1965 C1964 1.386 . S
C1965 C1969 1.393 . S
C1966 H1958 0.950 . S
C1966 C1964 1.391 . S
C1966 C1967 1.400 . S
C1967 C1966 1.400 . S
C1967 C1968 1.398 . S
C1967 C1973 1.491 . S
C1968 H1959 0.950 . S
C1968 C1967 1.398 . S
C1968 C1969 1.391 . S
C1969 H1957 0.950 . S
C1969 C1965 1.393 . S
C1969 C1968 1.391 . S
C1970 H1960 0.950 . S
C1970 C1971 1.386 . S
C1970 C1972 1.391 . S
C1971 C1970 1.386 . S
C1971 C1975 1.393 . S
C1972 H1961 0.950 . S
C1972 C1970 1.391 . S
C1972 C1973 1.400 . S
C1973 C1967 1.491 . S
C1973 C1972 1.400 . S
C1973 C1974 1.398 . S
C1974 H1962 0.950 . S
C1974 C1973 1.398 . S
C1974 C1975 1.391 . S
C1975 H1963 0.950 . S
C1975 C1971 1.393 . S
C1975 C1974 1.391 . S
H1976 C1984 0.950 . S
H1977 C1989 0.950 . S
H1978 C1986 0.950 . S
H1979 C1988 0.950 . S
H1980 C1990 0.950 . S
H1981 C1992 0.950 . S
H1982 C1994 0.950 . S
H1983 C1995 0.950 . S
C1984 H1976 0.950 . S
C1984 C1985 1.386 . S
C1984 C1986 1.391 . S
C1985 C1984 1.386 . S
C1985 C1989 1.393 . S
C1986 H1978 0.950 . S
C1986 C1984 1.391 . S
C1986 C1987 1.400 . S
C1987 C1986 1.400 . S
C1987 C1988 1.398 . S
C1987 C1993 1.491 . S
C1988 H1979 0.950 . S
C1988 C1987 1.398 . S
C1988 C1989 1.391 . S
C1989 H1977 0.950 . S
C1989 C1985 1.393 . S
C1989 C1988 1.391 . S
C1990 H1980 0.950 . S
C1990 C1991 1.386 . S
C1990 C1992 1.391 . S
C1991 C1990 1.386 . S
C1991 C1995 1.393 . S
C1992 H1981 0.950 . S
C1992 C1990 1.391 . S
C1992 C1993 1.400 . S
C1993 C1987 1.491 . S
C1993 C1992 1.400 . S
C1993 C1994 1.398 . S
C1994 H1982 0.950 . S
C1994 C1993 1.398 . S
C1994 C1995 1.391 . S
C1995 H1983 0.950 . S
C1995 C1991 1.393 . S
C1995 C1994 1.391 . S
H1996 C2004 0.950 . S
H1997 C2009 0.950 . S
H1998 C2006 0.950 . S
H1999 C2008 0.950 . S
H2000 C2010 0.950 . S
H2001 C2012 0.950 . S
H2002 C2014 0.950 . S
H2003 C2015 0.950 . S
C2004 H1996 0.950 . S
C2004 C2005 1.386 . S
C2004 C2006 1.391 . S
C2005 C2004 1.386 . S
C2005 C2009 1.393 . S
C2006 H1998 0.950 . S
C2006 C2004 1.391 . S
C2006 C2007 1.400 . S
C2007 C2006 1.400 . S
C2007 C2008 1.398 . S
C2007 C2013 1.491 . S
C2008 H1999 0.950 . S
C2008 C2007 1.398 . S
C2008 C2009 1.391 . S
C2009 H1997 0.950 . S
C2009 C2005 1.393 . S
C2009 C2008 1.391 . S
C2010 H2000 0.950 . S
C2010 C2011 1.386 . S
C2010 C2012 1.391 . S
C2011 C2010 1.386 . S
C2011 C2015 1.393 . S
C2012 H2001 0.950 . S
C2012 C2010 1.391 . S
C2012 C2013 1.400 . S
C2013 C2007 1.491 . S
C2013 C2012 1.400 . S
C2013 C2014 1.398 . S
C2014 H2002 0.950 . S
C2014 C2013 1.398 . S
C2014 C2015 1.391 . S
C2015 H2003 0.950 . S
C2015 C2011 1.393 . S
C2015 C2014 1.391 . S
H2016 C2024 0.950 . S
H2017 C2029 0.950 . S
H2018 C2026 0.950 . S
H2019 C2028 0.950 . S
H2020 C2030 0.950 . S
H2021 C2032 0.950 . S
H2022 C2034 0.950 . S
H2023 C2035 0.950 . S
C2024 H2016 0.950 . S
C2024 C2025 1.386 . S
C2024 C2026 1.391 . S
C2025 C2024 1.386 . S
C2025 C2029 1.393 . S
C2026 H2018 0.950 . S
C2026 C2024 1.391 . S
C2026 C2027 1.400 . S
C2027 C2026 1.400 . S
C2027 C2028 1.398 . S
C2027 C2033 1.491 . S
C2028 H2019 0.950 . S
C2028 C2027 1.398 . S
C2028 C2029 1.391 . S
C2029 H2017 0.950 . S
C2029 C2025 1.393 . S
C2029 C2028 1.391 . S
C2030 H2020 0.950 . S
C2030 C2031 1.386 . S
C2030 C2032 1.391 . S
C2031 C2030 1.386 . S
C2031 C2035 1.393 . S
C2032 H2021 0.950 . S
C2032 C2030 1.391 . S
C2032 C2033 1.400 . S
C2033 C2027 1.491 . S
C2033 C2032 1.400 . S
C2033 C2034 1.398 . S
C2034 H2022 0.950 . S
C2034 C2033 1.398 . S
C2034 C2035 1.391 . S
C2035 H2023 0.950 . S
C2035 C2031 1.393 . S
C2035 C2034 1.391 . S
H2036 C2044 0.950 . S
H2037 C2049 0.950 . S
H2038 C2046 0.950 . S
H2039 C2048 0.950 . S
H2040 C2050 0.950 . S
H2041 C2052 0.950 . S
H2042 C2054 0.950 . S
H2043 C2055 0.950 . S
C2044 H2036 0.950 . S
C2044 C2045 1.386 . S
C2044 C2046 1.391 . S
C2045 C2044 1.386 . S
C2045 C2049 1.393 . S
C2046 H2038 0.950 . S
C2046 C2044 1.391 . S
C2046 C2047 1.400 . S
C2047 C2046 1.400 . S
C2047 C2048 1.398 . S
C2047 C2053 1.491 . S
C2048 H2039 0.950 . S
C2048 C2047 1.398 . S
C2048 C2049 1.391 . S
C2049 H2037 0.950 . S
C2049 C2045 1.393 . S
C2049 C2048 1.391 . S
C2050 H2040 0.950 . S
C2050 C2051 1.386 . S
C2050 C2052 1.391 . S
C2051 C2050 1.386 . S
C2051 C2055 1.393 . S
C2052 H2041 0.950 . S
C2052 C2050 1.391 . S
C2052 C2053 1.400 . S
C2053 C2047 1.491 . S
C2053 C2052 1.400 . S
C2053 C2054 1.398 . S
C2054 H2042 0.950 . S
C2054 C2053 1.398 . S
C2054 C2055 1.391 . S
C2055 H2043 0.950 . S
C2055 C2051 1.393 . S
C2055 C2054 1.391 . S
H2056 C2064 0.950 . S
H2057 C2069 0.950 . S
H2058 C2066 0.950 . S
H2059 C2068 0.950 . S
H2060 C2070 0.950 . S
H2061 C2072 0.950 . S
H2062 C2074 0.950 . S
H2063 C2075 0.950 . S
C2064 H2056 0.950 . S
C2064 C2065 1.386 . S
C2064 C2066 1.391 . S
C2065 C2064 1.386 . S
C2065 C2069 1.393 . S
C2066 H2058 0.950 . S
C2066 C2064 1.391 . S
C2066 C2067 1.400 . S
C2067 C2066 1.400 . S
C2067 C2068 1.398 . S
C2067 C2073 1.491 . S
C2068 H2059 0.950 . S
C2068 C2067 1.398 . S
C2068 C2069 1.391 . S
C2069 H2057 0.950 . S
C2069 C2065 1.393 . S
C2069 C2068 1.391 . S
C2070 H2060 0.950 . S
C2070 C2071 1.386 . S
C2070 C2072 1.391 . S
C2071 C2070 1.386 . S
C2071 C2075 1.393 . S
C2072 H2061 0.950 . S
C2072 C2070 1.391 . S
C2072 C2073 1.400 . S
C2073 C2067 1.491 . S
C2073 C2072 1.400 . S
C2073 C2074 1.398 . S
C2074 H2062 0.950 . S
C2074 C2073 1.398 . S
C2074 C2075 1.391 . S
C2075 H2063 0.950 . S
C2075 C2071 1.393 . S
C2075 C2074 1.391 . S
H2076 C2084 0.950 . S
H2077 C2089 0.950 . S
H2078 C2086 0.950 . S
H2079 C2088 0.950 . S
H2080 C2090 0.950 . S
H2081 C2092 0.950 . S
H2082 C2094 0.950 . S
H2083 C2095 0.950 . S
C2084 H2076 0.950 . S
C2084 C2085 1.386 . S
C2084 C2086 1.391 . S
C2085 C2084 1.386 . S
C2085 C2089 1.393 . S
C2086 H2078 0.950 . S
C2086 C2084 1.391 . S
C2086 C2087 1.400 . S
C2087 C2086 1.400 . S
C2087 C2088 1.398 . S
C2087 C2093 1.491 . S
C2088 H2079 0.950 . S
C2088 C2087 1.398 . S
C2088 C2089 1.391 . S
C2089 H2077 0.950 . S
C2089 C2085 1.393 . S
C2089 C2088 1.391 . S
C2090 H2080 0.950 . S
C2090 C2091 1.386 . S
C2090 C2092 1.391 . S
C2091 C2090 1.386 . S
C2091 C2095 1.393 . S
C2092 H2081 0.950 . S
C2092 C2090 1.391 . S
C2092 C2093 1.400 . S
C2093 C2087 1.491 . S
C2093 C2092 1.400 . S
C2093 C2094 1.398 . S
C2094 H2082 0.950 . S
C2094 C2093 1.398 . S
C2094 C2095 1.391 . S
C2095 H2083 0.950 . S
C2095 C2091 1.393 . S
C2095 C2094 1.391 . S
H2096 C2104 0.950 . S
H2097 C2109 0.950 . S
H2098 C2106 0.950 . S
H2099 C2108 0.950 . S
H2100 C2110 0.950 . S
H2101 C2112 0.950 . S
H2102 C2114 0.950 . S
H2103 C2115 0.950 . S
C2104 H2096 0.950 . S
C2104 C2105 1.386 . S
C2104 C2106 1.391 . S
C2105 C2104 1.386 . S
C2105 C2109 1.393 . S
C2106 H2098 0.950 . S
C2106 C2104 1.391 . S
C2106 C2107 1.400 . S
C2107 C2106 1.400 . S
C2107 C2108 1.398 . S
C2107 C2113 1.491 . S
C2108 H2099 0.950 . S
C2108 C2107 1.398 . S
C2108 C2109 1.391 . S
C2109 H2097 0.950 . S
C2109 C2105 1.393 . S
C2109 C2108 1.391 . S
C2110 H2100 0.950 . S
C2110 C2111 1.386 . S
C2110 C2112 1.391 . S
C2111 C2110 1.386 . S
C2111 C2115 1.393 . S
C2112 H2101 0.950 . S
C2112 C2110 1.391 . S
C2112 C2113 1.400 . S
C2113 C2107 1.491 . S
C2113 C2112 1.400 . S
C2113 C2114 1.398 . S
C2114 H2102 0.950 . S
C2114 C2113 1.398 . S
C2114 C2115 1.391 . S
C2115 H2103 0.950 . S
C2115 C2111 1.393 . S
C2115 C2114 1.391 . S
H2116 C2124 0.950 . S
H2117 C2129 0.950 . S
H2118 C2126 0.950 . S
H2119 C2128 0.950 . S
H2120 C2130 0.950 . S
H2121 C2132 0.950 . S
H2122 C2134 0.950 . S
H2123 C2135 0.950 . S
C2124 H2116 0.950 . S
C2124 C2125 1.386 . S
C2124 C2126 1.391 . S
C2125 C2124 1.386 . S
C2125 C2129 1.393 . S
C2126 H2118 0.950 . S
C2126 C2124 1.391 . S
C2126 C2127 1.400 . S
C2127 C2126 1.400 . S
C2127 C2128 1.398 . S
C2127 C2133 1.491 . S
C2128 H2119 0.950 . S
C2128 C2127 1.398 . S
C2128 C2129 1.391 . S
C2129 H2117 0.950 . S
C2129 C2125 1.393 . S
C2129 C2128 1.391 . S
C2130 H2120 0.950 . S
C2130 C2131 1.386 . S
C2130 C2132 1.391 . S
C2131 C2130 1.386 . S
C2131 C2135 1.393 . S
C2132 H2121 0.950 . S
C2132 C2130 1.391 . S
C2132 C2133 1.400 . S
C2133 C2127 1.491 . S
C2133 C2132 1.400 . S
C2133 C2134 1.398 . S
C2134 H2122 0.950 . S
C2134 C2133 1.398 . S
C2134 C2135 1.391 . S
C2135 H2123 0.950 . S
C2135 C2131 1.393 . S
C2135 C2134 1.391 . S
H2136 C2144 0.950 . S
H2137 C2149 0.950 . S
H2138 C2146 0.950 . S
H2139 C2148 0.950 . S
H2140 C2150 0.950 . S
H2141 C2152 0.950 . S
H2142 C2154 0.950 . S
H2143 C2155 0.950 . S
C2144 H2136 0.950 . S
C2144 C2145 1.386 . S
C2144 C2146 1.391 . S
C2145 C2144 1.386 . S
C2145 C2149 1.393 . S
C2146 H2138 0.950 . S
C2146 C2144 1.391 . S
C2146 C2147 1.400 . S
C2147 C2146 1.400 . S
C2147 C2148 1.398 . S
C2147 C2153 1.491 . S
C2148 H2139 0.950 . S
C2148 C2147 1.398 . S
C2148 C2149 1.391 . S
C2149 H2137 0.950 . S
C2149 C2145 1.393 . S
C2149 C2148 1.391 . S
C2150 H2140 0.950 . S
C2150 C2151 1.386 . S
C2150 C2152 1.391 . S
C2151 C2150 1.386 . S
C2151 C2155 1.393 . S
C2152 H2141 0.950 . S
C2152 C2150 1.391 . S
C2152 C2153 1.400 . S
C2153 C2147 1.491 . S
C2153 C2152 1.400 . S
C2153 C2154 1.398 . S
C2154 H2142 0.950 . S
C2154 C2153 1.398 . S
C2154 C2155 1.391 . S
C2155 H2143 0.950 . S
C2155 C2151 1.393 . S
C2155 C2154 1.391 . S
H2156 C2164 0.950 . S
H2157 C2169 0.950 . S
H2158 C2166 0.950 . S
H2159 C2168 0.950 . S
H2160 C2170 0.950 . S
H2161 C2172 0.950 . S
H2162 C2174 0.950 . S
H2163 C2175 0.950 . S
C2164 H2156 0.950 . S
C2164 C2165 1.386 . S
C2164 C2166 1.391 . S
C2165 C2164 1.386 . S
C2165 C2169 1.393 . S
C2166 H2158 0.950 . S
C2166 C2164 1.391 . S
C2166 C2167 1.400 . S
C2167 C2166 1.400 . S
C2167 C2168 1.398 . S
C2167 C2173 1.491 . S
C2168 H2159 0.950 . S
C2168 C2167 1.398 . S
C2168 C2169 1.391 . S
C2169 H2157 0.950 . S
C2169 C2165 1.393 . S
C2169 C2168 1.391 . S
C2170 H2160 0.950 . S
C2170 C2171 1.386 . S
C2170 C2172 1.391 . S
C2171 C2170 1.386 . S
C2171 C2175 1.393 . S
C2172 H2161 0.950 . S
C2172 C2170 1.391 . S
C2172 C2173 1.400 . S
C2173 C2167 1.491 . S
C2173 C2172 1.400 . S
C2173 C2174 1.398 . S
C2174 H2162 0.950 . S
C2174 C2173 1.398 . S
C2174 C2175 1.391 . S
C2175 H2163 0.950 . S
C2175 C2171 1.393 . S
C2175 C2174 1.391 . S
H2176 C2184 0.950 . S
H2177 C2189 0.950 . S
H2178 C2186 0.950 . S
H2179 C2188 0.950 . S
H2180 C2190 0.950 . S
H2181 C2192 0.950 . S
H2182 C2194 0.950 . S
H2183 C2195 0.950 . S
C2184 H2176 0.950 . S
C2184 C2185 1.386 . S
C2184 C2186 1.391 . S
C2185 C2184 1.386 . S
C2185 C2189 1.393 . S
C2186 H2178 0.950 . S
C2186 C2184 1.391 . S
C2186 C2187 1.400 . S
C2187 C2186 1.400 . S
C2187 C2188 1.398 . S
C2187 C2193 1.491 . S
C2188 H2179 0.950 . S
C2188 C2187 1.398 . S
C2188 C2189 1.391 . S
C2189 H2177 0.950 . S
C2189 C2185 1.393 . S
C2189 C2188 1.391 . S
C2190 H2180 0.950 . S
C2190 C2191 1.386 . S
C2190 C2192 1.391 . S
C2191 C2190 1.386 . S
C2191 C2195 1.393 . S
C2192 H2181 0.950 . S
C2192 C2190 1.391 . S
C2192 C2193 1.400 . S
C2193 C2187 1.491 . S
C2193 C2192 1.400 . S
C2193 C2194 1.398 . S
C2194 H2182 0.950 . S
C2194 C2193 1.398 . S
C2194 C2195 1.391 . S
C2195 H2183 0.950 . S
C2195 C2191 1.393 . S
C2195 C2194 1.391 . S
H2196 C2204 0.950 . S
H2197 C2209 0.950 . S
H2198 C2206 0.950 . S
H2199 C2208 0.950 . S
H2200 C2210 0.950 . S
H2201 C2212 0.950 . S
H2202 C2214 0.950 . S
H2203 C2215 0.950 . S
C2204 H2196 0.950 . S
C2204 C2205 1.386 . S
C2204 C2206 1.391 . S
C2205 C2204 1.386 . S
C2205 C2209 1.393 . S
C2206 H2198 0.950 . S
C2206 C2204 1.391 . S
C2206 C2207 1.400 . S
C2207 C2206 1.400 . S
C2207 C2208 1.398 . S
C2207 C2213 1.491 . S
C2208 H2199 0.950 . S
C2208 C2207 1.398 . S
C2208 C2209 1.391 . S
C2209 H2197 0.950 . S
C2209 C2205 1.393 . S
C2209 C2208 1.391 . S
C2210 H2200 0.950 . S
C2210 C2211 1.386 . S
C2210 C2212 1.391 . S
C2211 C2210 1.386 . S
C2211 C2215 1.393 . S
C2212 H2201 0.950 . S
C2212 C2210 1.391 . S
C2212 C2213 1.400 . S
C2213 C2207 1.491 . S
C2213 C2212 1.400 . S
C2213 C2214 1.398 . S
C2214 H2202 0.950 . S
C2214 C2213 1.398 . S
C2214 C2215 1.391 . S
C2215 H2203 0.950 . S
C2215 C2211 1.393 . S
C2215 C2214 1.391 . S
H2216 C2224 0.950 . S
H2217 C2229 0.950 . S
H2218 C2226 0.950 . S
H2219 C2228 0.950 . S
H2220 C2230 0.950 . S
H2221 C2232 0.950 . S
H2222 C2234 0.950 . S
H2223 C2235 0.950 . S
C2224 H2216 0.950 . S
C2224 C2225 1.386 . S
C2224 C2226 1.391 . S
C2225 C2224 1.386 . S
C2225 C2229 1.393 . S
C2226 H2218 0.950 . S
C2226 C2224 1.391 . S
C2226 C2227 1.400 . S
C2227 C2226 1.400 . S
C2227 C2228 1.398 . S
C2227 C2233 1.491 . S
C2228 H2219 0.950 . S
C2228 C2227 1.398 . S
C2228 C2229 1.391 . S
C2229 H2217 0.950 . S
C2229 C2225 1.393 . S
C2229 C2228 1.391 . S
C2230 H2220 0.950 . S
C2230 C2231 1.386 . S
C2230 C2232 1.391 . S
C2231 C2230 1.386 . S
C2231 C2235 1.393 . S
C2232 H2221 0.950 . S
C2232 C2230 1.391 . S
C2232 C2233 1.400 . S
C2233 C2227 1.491 . S
C2233 C2232 1.400 . S
C2233 C2234 1.398 . S
C2234 H2222 0.950 . S
C2234 C2233 1.398 . S
C2234 C2235 1.391 . S
C2235 H2223 0.950 . S
C2235 C2231 1.393 . S
C2235 C2234 1.391 . S
H2236 C2244 0.950 . S
H2237 C2249 0.950 . S
H2238 C2246 0.950 . S
H2239 C2248 0.950 . S
H2240 C2250 0.950 . S
H2241 C2252 0.950 . S
H2242 C2254 0.950 . S
H2243 C2255 0.950 . S
C2244 H2236 0.950 . S
C2244 C2245 1.386 . S
C2244 C2246 1.391 . S
C2245 C2244 1.386 . S
C2245 C2249 1.393 . S
C2246 H2238 0.950 . S
C2246 C2244 1.391 . S
C2246 C2247 1.400 . S
C2247 C2246 1.400 . S
C2247 C2248 1.398 . S
C2247 C2253 1.491 . S
C2248 H2239 0.950 . S
C2248 C2247 1.398 . S
C2248 C2249 1.391 . S
C2249 H2237 0.950 . S
C2249 C2245 1.393 . S
C2249 C2248 1.391 . S
C2250 H2240 0.950 . S
C2250 C2251 1.386 . S
C2250 C2252 1.391 . S
C2251 C2250 1.386 . S
C2251 C2255 1.393 . S
C2252 H2241 0.950 . S
C2252 C2250 1.391 . S
C2252 C2253 1.400 . S
C2253 C2247 1.491 . S
C2253 C2252 1.400 . S
C2253 C2254 1.398 . S
C2254 H2242 0.950 . S
C2254 C2253 1.398 . S
C2254 C2255 1.391 . S
C2255 H2243 0.950 . S
C2255 C2251 1.393 . S
C2255 C2254 1.391 . S
H2256 C2264 0.950 . S
H2257 C2269 0.950 . S
H2258 C2266 0.950 . S
H2259 C2268 0.950 . S
H2260 C2270 0.950 . S
H2261 C2272 0.950 . S
H2262 C2274 0.950 . S
H2263 C2275 0.950 . S
C2264 H2256 0.950 . S
C2264 C2265 1.386 . S
C2264 C2266 1.391 . S
C2265 C2264 1.386 . S
C2265 C2269 1.393 . S
C2266 H2258 0.950 . S
C2266 C2264 1.391 . S
C2266 C2267 1.400 . S
C2267 C2266 1.400 . S
C2267 C2268 1.398 . S
C2267 C2273 1.491 . S
C2268 H2259 0.950 . S
C2268 C2267 1.398 . S
C2268 C2269 1.391 . S
C2269 H2257 0.950 . S
C2269 C2265 1.393 . S
C2269 C2268 1.391 . S
C2270 H2260 0.950 . S
C2270 C2271 1.386 . S
C2270 C2272 1.391 . S
C2271 C2270 1.386 . S
C2271 C2275 1.393 . S
C2272 H2261 0.950 . S
C2272 C2270 1.391 . S
C2272 C2273 1.400 . S
C2273 C2267 1.491 . S
C2273 C2272 1.400 . S
C2273 C2274 1.398 . S
C2274 H2262 0.950 . S
C2274 C2273 1.398 . S
C2274 C2275 1.391 . S
C2275 H2263 0.950 . S
C2275 C2271 1.393 . S
C2275 C2274 1.391 . S
H2276 C2284 0.950 . S
H2277 C2289 0.950 . S
H2278 C2286 0.950 . S
H2279 C2288 0.950 . S
H2280 C2290 0.950 . S
H2281 C2292 0.950 . S
H2282 C2294 0.950 . S
H2283 C2295 0.950 . S
C2284 H2276 0.950 . S
C2284 C2285 1.386 . S
C2284 C2286 1.391 . S
C2285 C2284 1.386 . S
C2285 C2289 1.393 . S
C2286 H2278 0.950 . S
C2286 C2284 1.391 . S
C2286 C2287 1.400 . S
C2287 C2286 1.400 . S
C2287 C2288 1.398 . S
C2287 C2293 1.491 . S
C2288 H2279 0.950 . S
C2288 C2287 1.398 . S
C2288 C2289 1.391 . S
C2289 H2277 0.950 . S
C2289 C2285 1.393 . S
C2289 C2288 1.391 . S
C2290 H2280 0.950 . S
C2290 C2291 1.386 . S
C2290 C2292 1.391 . S
C2291 C2290 1.386 . S
C2291 C2295 1.393 . S
C2292 H2281 0.950 . S
C2292 C2290 1.391 . S
C2292 C2293 1.400 . S
C2293 C2287 1.491 . S
C2293 C2292 1.400 . S
C2293 C2294 1.398 . S
C2294 H2282 0.950 . S
C2294 C2293 1.398 . S
C2294 C2295 1.391 . S
C2295 H2283 0.950 . S
C2295 C2291 1.393 . S
C2295 C2294 1.391 . S
H2296 C2304 0.950 . S
H2297 C2309 0.950 . S
H2298 C2306 0.950 . S
H2299 C2308 0.950 . S
H2300 C2310 0.950 . S
H2301 C2312 0.950 . S
H2302 C2314 0.950 . S
H2303 C2315 0.950 . S
C2304 H2296 0.950 . S
C2304 C2305 1.386 . S
C2304 C2306 1.391 . S
C2305 C2304 1.386 . S
C2305 C2309 1.393 . S
C2306 H2298 0.950 . S
C2306 C2304 1.391 . S
C2306 C2307 1.400 . S
C2307 C2306 1.400 . S
C2307 C2308 1.398 . S
C2307 C2313 1.491 . S
C2308 H2299 0.950 . S
C2308 C2307 1.398 . S
C2308 C2309 1.391 . S
C2309 H2297 0.950 . S
C2309 C2305 1.393 . S
C2309 C2308 1.391 . S
C2310 H2300 0.950 . S
C2310 C2311 1.386 . S
C2310 C2312 1.391 . S
C2311 C2310 1.386 . S
C2311 C2315 1.393 . S
C2312 H2301 0.950 . S
C2312 C2310 1.391 . S
C2312 C2313 1.400 . S
C2313 C2307 1.491 . S
C2313 C2312 1.400 . S
C2313 C2314 1.398 . S
C2314 H2302 0.950 . S
C2314 C2313 1.398 . S
C2314 C2315 1.391 . S
C2315 H2303 0.950 . S
C2315 C2311 1.393 . S
C2315 C2314 1.391 . S
H2316 C2324 0.950 . S
H2317 C2329 0.950 . S
H2318 C2326 0.950 . S
H2319 C2328 0.950 . S
H2320 C2330 0.950 . S
H2321 C2332 0.950 . S
H2322 C2334 0.950 . S
H2323 C2335 0.950 . S
C2324 H2316 0.950 . S
C2324 C2325 1.386 . S
C2324 C2326 1.391 . S
C2325 C2324 1.386 . S
C2325 C2329 1.393 . S
C2326 H2318 0.950 . S
C2326 C2324 1.391 . S
C2326 C2327 1.400 . S
C2327 C2326 1.400 . S
C2327 C2328 1.398 . S
C2327 C2333 1.491 . S
C2328 H2319 0.950 . S
C2328 C2327 1.398 . S
C2328 C2329 1.391 . S
C2329 H2317 0.950 . S
C2329 C2325 1.393 . S
C2329 C2328 1.391 . S
C2330 H2320 0.950 . S
C2330 C2331 1.386 . S
C2330 C2332 1.391 . S
C2331 C2330 1.386 . S
C2331 C2335 1.393 . S
C2332 H2321 0.950 . S
C2332 C2330 1.391 . S
C2332 C2333 1.400 . S
C2333 C2327 1.491 . S
C2333 C2332 1.400 . S
C2333 C2334 1.398 . S
C2334 H2322 0.950 . S
C2334 C2333 1.398 . S
C2334 C2335 1.391 . S
C2335 H2323 0.950 . S
C2335 C2331 1.393 . S
C2335 C2334 1.391 . S
H2336 C2344 0.950 . S
H2337 C2349 0.950 . S
H2338 C2346 0.950 . S
H2339 C2348 0.950 . S
H2340 C2350 0.950 . S
H2341 C2352 0.950 . S
H2342 C2354 0.950 . S
H2343 C2355 0.950 . S
C2344 H2336 0.950 . S
C2344 C2345 1.386 . S
C2344 C2346 1.391 . S
C2345 C2344 1.386 . S
C2345 C2349 1.393 . S
C2346 H2338 0.950 . S
C2346 C2344 1.391 . S
C2346 C2347 1.400 . S
C2347 C2346 1.400 . S
C2347 C2348 1.398 . S
C2347 C2353 1.491 . S
C2348 H2339 0.950 . S
C2348 C2347 1.398 . S
C2348 C2349 1.391 . S
C2349 H2337 0.950 . S
C2349 C2345 1.393 . S
C2349 C2348 1.391 . S
C2350 H2340 0.950 . S
C2350 C2351 1.386 . S
C2350 C2352 1.391 . S
C2351 C2350 1.386 . S
C2351 C2355 1.393 . S
C2352 H2341 0.950 . S
C2352 C2350 1.391 . S
C2352 C2353 1.400 . S
C2353 C2347 1.491 . S
C2353 C2352 1.400 . S
C2353 C2354 1.398 . S
C2354 H2342 0.950 . S
C2354 C2353 1.398 . S
C2354 C2355 1.391 . S
C2355 H2343 0.950 . S
C2355 C2351 1.393 . S
C2355 C2354 1.391 . S
H2356 C2364 0.950 . S
H2357 C2369 0.950 . S
H2358 C2366 0.950 . S
H2359 C2368 0.950 . S
H2360 C2370 0.950 . S
H2361 C2372 0.950 . S
H2362 C2374 0.950 . S
H2363 C2375 0.950 . S
C2364 H2356 0.950 . S
C2364 C2365 1.386 . S
C2364 C2366 1.391 . S
C2365 C2364 1.386 . S
C2365 C2369 1.393 . S
C2366 H2358 0.950 . S
C2366 C2364 1.391 . S
C2366 C2367 1.400 . S
C2367 C2366 1.400 . S
C2367 C2368 1.398 . S
C2367 C2373 1.491 . S
C2368 H2359 0.950 . S
C2368 C2367 1.398 . S
C2368 C2369 1.391 . S
C2369 H2357 0.950 . S
C2369 C2365 1.393 . S
C2369 C2368 1.391 . S
C2370 H2360 0.950 . S
C2370 C2371 1.386 . S
C2370 C2372 1.391 . S
C2371 C2370 1.386 . S
C2371 C2375 1.393 . S
C2372 H2361 0.950 . S
C2372 C2370 1.391 . S
C2372 C2373 1.400 . S
C2373 C2367 1.491 . S
C2373 C2372 1.400 . S
C2373 C2374 1.398 . S
C2374 H2362 0.950 . S
C2374 C2373 1.398 . S
C2374 C2375 1.391 . S
C2375 H2363 0.950 . S
C2375 C2371 1.393 . S
C2375 C2374 1.391 . S
C1425 C890 1.394 . S
C1431 C3 1.391 . S
C1445 C711 1.397 . S
C1451 C64 1.395 . S
C1465 C770 1.399 . S
C1471 C121 1.394 . S
C1485 C831 1.398 . S
C1491 C180 1.394 . S
C1505 C829 1.397 . S
C1511 C62 1.401 . S
C1525 C123 1.400 . S
C1531 C888 1.393 . S
C1545 C713 1.391 . S
C1551 C182 1.387 . S
C1565 C772 1.393 . S
C1571 C5 1.392 . S
C1585 C1067 1.386 . S
C1591 C241 1.388 . S
C1605 C298 1.400 . S
C1611 C1124 1.405 . S
C1625 C359 1.389 . S
C1631 C949 1.385 . S
C1645 C1006 1.405 . S
C1651 C416 1.398 . S
C1665 C1301 1.406 . S
C1671 C475 1.399 . S
C1685 C536 1.385 . S
C1691 C1362 1.389 . S
C1705 C593 1.403 . S
C1711 C1183 1.399 . S
C1725 C654 1.388 . S
C1731 C1244 1.385 . S
C1745 C1008 1.396 . S
C1751 C652 1.393 . S
C1765 C1360 1.397 . S
C1771 C300 1.395 . S
C1785 C357 1.393 . S
C1791 C1185 1.399 . S
C1805 C1242 1.391 . S
C1811 C418 1.395 . S
C1825 C1303 1.395 . S
C1831 C239 1.389 . S
C1845 C534 1.390 . S
C1851 C1126 1.397 . S
C1865 C947 1.394 . S
C1871 C595 1.392 . S
C1885 C1065 1.399 . S
C1891 C477 1.397 . S
C1905 C33 1.018 . S
C1911 C269 1.037 . S
C1925 C347 1.038 . S
C1931 C111 1.038 . S
C1945 C151 1.022 . S
C1951 C387 1.038 . S
C1965 C210 1.022 . S
C1971 C465 1.041 . S
C1985 C524 1.041 . S
C1991 C92 1.025 . S
C2005 C564 1.031 . S
C2011 C170 1.034 . S
C2025 C642 1.032 . S
C2031 C229 1.034 . S
C2045 C52 1.038 . S
C2051 C682 1.017 . S
C2065 C701 1.028 . S
C2071 C288 1.033 . S
C2085 C328 1.036 . S
C2091 C505 1.030 . S
C2105 C406 1.025 . S
C2111 C583 1.036 . S
C2125 C623 1.042 . S
C2131 C446 1.028 . S
C2145 C977 1.017 . S
C2151 C760 1.038 . S
C2165 C1055 1.041 . S
C2171 C819 1.031 . S
C2185 C859 1.027 . S
C2191 C1095 1.037 . S
C2205 C918 1.041 . S
C2211 C1173 1.030 . S
C2225 C800 1.035 . S
C2231 C1232 1.034 . S
C2245 C878 1.035 . S
C2251 C1272 1.033 . S
C2265 C1350 1.029 . S
C2271 C937 1.042 . S
C2285 C741 1.036 . S
C2291 C1390 1.019 . S
C2305 C996 1.026 . S
C2311 C1409 1.036 . S
C2325 C1213 1.038 . S
C2331 C1036 1.027 . S
C2345 C1114 1.025 . S
C2351 C1291 1.035 . S
C2365 C1331 1.028 . S
C2371 C1154 1.039 . S
