# Generated by pormake.
# Topology wjt, (5)-cn, num edge types: 1
# Building blocks:
#     Node 0, Type 0, BuildingBlock: XOMCOT_clean_sbu_1, # of connection points: 5
#     Node 1, Type 0, BuildingBlock: XOMCOT_clean_sbu_1, # of connection points: 5
#     Node 2, Type 0, BuildingBlock: XOMCOT_clean_sbu_1, # of connection points: 5
#     Node 3, Type 0, BuildingBlock: XOMCOT_clean_sbu_1, # of connection points: 5
#     Node 4, Type 0, BuildingBlock: XOMCOT_clean_sbu_1, # of connection points: 5
#     Node 5, Type 0, BuildingBlock: XOMCOT_clean_sbu_1, # of connection points: 5
#     Node 6, Type 0, BuildingBlock: XOMCOT_clean_sbu_1, # of connection points: 5
#     Node 7, Type 0, BuildingBlock: XOMCOT_clean_sbu_1, # of connection points: 5
#     Node 8, Type 0, BuildingBlock: XOMCOT_clean_sbu_1, # of connection points: 5
#     Node 9, Type 0, BuildingBlock: XOMCOT_clean_sbu_1, # of connection points: 5
#     Node 10, Type 0, BuildingBlock: XOMCOT_clean_sbu_1, # of connection points: 5
#     Node 11, Type 0, BuildingBlock: XOMCOT_clean_sbu_1, # of connection points: 5
#     Edge 12, Type (0, 0), BuildingBlock: EZIPEK_clean_linker_0, # of connection points: 2
#     Edge 13, Type (0, 0), BuildingBlock: EZIPEK_clean_linker_0, # of connection points: 2
#     Edge 14, Type (0, 0), BuildingBlock: EZIPEK_clean_linker_0, # of connection points: 2
#     Edge 15, Type (0, 0), BuildingBlock: EZIPEK_clean_linker_0, # of connection points: 2
#     Edge 16, Type (0, 0), BuildingBlock: EZIPEK_clean_linker_0, # of connection points: 2
#     Edge 17, Type (0, 0), BuildingBlock: EZIPEK_clean_linker_0, # of connection points: 2
#     Edge 18, Type (0, 0), BuildingBlock: EZIPEK_clean_linker_0, # of connection points: 2
#     Edge 19, Type (0, 0), BuildingBlock: EZIPEK_clean_linker_0, # of connection points: 2
#     Edge 20, Type (0, 0), BuildingBlock: EZIPEK_clean_linker_0, # of connection points: 2
#     Edge 21, Type (0, 0), BuildingBlock: EZIPEK_clean_linker_0, # of connection points: 2
#     Edge 22, Type (0, 0), BuildingBlock: EZIPEK_clean_linker_0, # of connection points: 2
#     Edge 23, Type (0, 0), BuildingBlock: EZIPEK_clean_linker_0, # of connection points: 2
#     Edge 24, Type (0, 0), BuildingBlock: EZIPEK_clean_linker_0, # of connection points: 2
#     Edge 25, Type (0, 0), BuildingBlock: EZIPEK_clean_linker_0, # of connection points: 2
#     Edge 26, Type (0, 0), BuildingBlock: EZIPEK_clean_linker_0, # of connection points: 2
#     Edge 27, Type (0, 0), BuildingBlock: EZIPEK_clean_linker_0, # of connection points: 2
#     Edge 28, Type (0, 0), BuildingBlock: EZIPEK_clean_linker_0, # of connection points: 2
#     Edge 29, Type (0, 0), BuildingBlock: EZIPEK_clean_linker_0, # of connection points: 2
#     Edge 30, Type (0, 0), BuildingBlock: EZIPEK_clean_linker_0, # of connection points: 2
#     Edge 31, Type (0, 0), BuildingBlock: EZIPEK_clean_linker_0, # of connection points: 2
#     Edge 32, Type (0, 0), BuildingBlock: EZIPEK_clean_linker_0, # of connection points: 2
#     Edge 33, Type (0, 0), BuildingBlock: EZIPEK_clean_linker_0, # of connection points: 2
#     Edge 34, Type (0, 0), BuildingBlock: EZIPEK_clean_linker_0, # of connection points: 2
#     Edge 35, Type (0, 0), BuildingBlock: EZIPEK_clean_linker_0, # of connection points: 2
#     Edge 36, Type (0, 0), BuildingBlock: EZIPEK_clean_linker_0, # of connection points: 2
#     Edge 37, Type (0, 0), BuildingBlock: EZIPEK_clean_linker_0, # of connection points: 2
#     Edge 38, Type (0, 0), BuildingBlock: EZIPEK_clean_linker_0, # of connection points: 2
#     Edge 39, Type (0, 0), BuildingBlock: EZIPEK_clean_linker_0, # of connection points: 2
#     Edge 40, Type (0, 0), BuildingBlock: EZIPEK_clean_linker_0, # of connection points: 2
#     Edge 41, Type (0, 0), BuildingBlock: EZIPEK_clean_linker_0, # of connection points: 2
# Relax obj value: 0.223
# Max RMSD: 0.166
# Mean RMSD: 0.166
data_MOF--net-wjt--node1-XOMCOT_clean_sbu_1--edge1-EZIPEK_clean_linker_0
_symmetry_space_group_name_H-M    P1
_symmetry_Int_Tables_number       1
_symmetry_cell_setting            triclinic
loop_
_symmetry_equiv_pos_as_xyz
'x, y, z'
_cell_length_a     51.348512
_cell_length_b     51.460665
_cell_length_c     13.291146
_cell_angle_alpha  89.965947
_cell_angle_beta   90.009348
_cell_angle_gamma 119.88586
loop_
_atom_site_label
_atom_site_type_symbol
_atom_site_fract_x
_atom_site_fract_y
_atom_site_fract_z
_atom_type_partial_charge
C0 C 0.30807 0.46259 0.36715 0.0
C1 C 0.30617 0.46488 0.46989 0.0
N2 N 0.2944 0.43721 0.50959 0.0
N3 N 0.2979 0.43366 0.34246 0.0
C4 C 0.28819 0.41861 0.4303 0.0
H5 H 0.31865 0.48111 0.31486 0.0
Co6 Co 0.30345 0.4208 0.21606 0.0
C7 C 0.32685 0.3789 0.27151 0.0
O8 O 0.34764 0.39216 0.20225 0.0
N9 N 0.30753 0.40856 0.0854 0.0
C10 C 0.29811 0.37953 0.9497 0.0
C11 C 0.29975 0.38067 0.05333 0.0
C12 C 0.30894 0.42343 0.99937 0.0
N13 N 0.30376 0.40649 0.91642 0.0
O14 O 0.26042 0.39621 0.19993 0.0
H15 H 0.29244 0.36146 0.10167 0.0
H16 H 0.31084 0.44529 0.99721 0.0
O17 O 0.30683 0.38686 0.28242 0.0
C18 C 0.25128 0.41183 0.15293 0.0
O19 O 0.27103 0.44017 0.13631 0.0
N20 N 0.34591 0.44776 0.22874 0.0
C21 C 0.40323 0.49633 0.26985 0.0
C22 C 0.38975 0.47181 0.33506 0.0
C23 C 0.36123 0.44789 0.31317 0.0
C24 C 0.35915 0.4714 0.16354 0.0
C25 C 0.38804 0.49552 0.18131 0.0
H26 H 0.35071 0.43072 0.36865 0.0
H27 H 0.34673 0.47307 0.10136 0.0
H28 H 0.27838 0.3946 0.43706 0.0
H29 H 0.3154 0.48544 0.51289 0.0
H30 H 0.29107 0.35992 0.90301 0.0
H31 H 0.40056 0.47182 0.40511 0.0
H32 H 0.39758 0.51436 0.12986 0.0
C33 C 0.85185 0.27977 0.6336 0.0
C34 C 0.84964 0.27639 0.73672 0.0
N35 N 0.87761 0.28849 0.77431 0.0
N36 N 0.88109 0.29373 0.6063 0.0
C37 C 0.89607 0.29825 0.69421 0.0
H38 H 0.83328 0.27407 0.58326 0.0
Co39 Co 0.89749 0.30867 0.4783 0.0
C40 C 0.96272 0.33 0.50777 0.0
O41 O 0.96865 0.3541 0.45649 0.0
N42 N 0.91407 0.3238 0.34633 0.0
C43 C 0.93153 0.3529 0.20935 0.0
C44 C 0.9291 0.35251 0.3123 0.0
C45 C 0.90894 0.30746 0.26102 0.0
N46 N 0.91802 0.32443 0.17718 0.0
O47 O 0.88086 0.26787 0.42918 0.0
H48 H 0.93687 0.37236 0.35798 0.0
H49 H 0.8972 0.28334 0.25807 0.0
O50 O 0.9352 0.31022 0.52157 0.0
C51 C 0.8544 0.25836 0.39362 0.0
O52 O 0.84278 0.27601 0.39954 0.0
N53 N 0.90922 0.34775 0.52457 0.0
C54 C 0.91314 0.40159 0.58736 0.0
C55 C 0.93008 0.39049 0.63501 0.0
C56 C 0.92844 0.36392 0.60067 0.0
C57 C 0.89166 0.35759 0.48098 0.0
C58 C 0.89447 0.38507 0.50713 0.0
H59 H 0.94195 0.35616 0.63774 0.0
H60 H 0.87567 0.3441 0.42357 0.0
H61 H 0.9202 0.31016 0.70116 0.0
H62 H 0.82935 0.2679 0.78118 0.0
H63 H 0.94009 0.37245 0.16125 0.0
H64 H 0.94437 0.40219 0.69849 0.0
H65 H 0.88102 0.39269 0.46785 0.0
C66 C 0.55198 0.83996 0.95801 0.0
C67 C 0.55068 0.83587 0.06073 0.0
N68 N 0.57259 0.86117 0.10224 0.0
N69 N 0.57481 0.86757 0.93504 0.0
C70 C 0.58723 0.87961 0.02491 0.0
H71 H 0.53567 0.82467 0.90467 0.0
Co72 Co 0.58108 0.88567 0.80771 0.0
C73 C 0.62281 0.95007 0.87461 0.0
O74 O 0.60218 0.95732 0.85529 0.0
N75 N 0.5866 0.9023 0.67597 0.0
C76 C 0.59645 0.93033 0.53711 0.0
C77 C 0.59659 0.93043 0.64062 0.0
C78 C 0.58015 0.88559 0.59112 0.0
N79 N 0.58622 0.90208 0.50687 0.0
O80 O 0.60664 0.86909 0.77083 0.0
H81 H 0.60341 0.95016 0.68461 0.0
H82 H 0.57071 0.86162 0.58982 0.0
O83 O 0.61735 0.92317 0.85909 0.0
C84 C 0.59122 0.8422 0.73856 0.0
O85 O 0.56181 0.82966 0.73932 0.0
N86 N 0.55313 0.89873 0.84184 0.0
C87 C 0.50323 0.90391 0.89745 0.0
C88 C 0.52765 0.91328 0.96247 0.0
C89 C 0.55219 0.91035 0.93371 0.0
C90 C 0.52946 0.88976 0.77721 0.0
C91 C 0.50451 0.89259 0.80281 0.0
H92 H 0.5703 0.9174 0.98665 0.0
H93 H 0.52911 0.87897 0.70709 0.0
H94 H 0.60421 0.90264 0.03538 0.0
H95 H 0.5334 0.81704 0.10214 0.0
H96 H 0.60328 0.94942 0.48785 0.0
H97 H 0.52735 0.92199 0.03641 0.0
H98 H 0.48578 0.88475 0.75113 0.0
C99 C 0.73326 0.57044 0.34844 0.0
C100 C 0.7351 0.57152 0.45196 0.0
N101 N 0.72204 0.58692 0.48524 0.0
N102 N 0.71918 0.58524 0.31646 0.0
C103 C 0.71293 0.59519 0.40245 0.0
H104 H 0.73997 0.55774 0.30144 0.0
Co105 Co 0.7046 0.58619 0.18658 0.0
C106 C 0.71211 0.64794 0.20772 0.0
O107 O 0.73516 0.66137 0.14655 0.0
N108 N 0.68952 0.58767 0.0569 0.0
C109 C 0.65909 0.58106 0.92715 0.0
C110 C 0.66095 0.57941 0.03021 0.0
C111 C 0.70468 0.59591 0.96864 0.0
N112 N 0.68668 0.59101 0.889 0.0
O113 O 0.74557 0.61032 0.13662 0.0
H114 H 0.64218 0.57154 0.08143 0.0
H115 H 0.72849 0.60488 0.96077 0.0
O116 O 0.70021 0.62002 0.22559 0.0
C117 C 0.7547 0.59248 0.10643 0.0
O118 O 0.7373 0.56368 0.12302 0.0
N119 N 0.66564 0.55928 0.23156 0.0
C120 C 0.61176 0.51127 0.30015 0.0
C121 C 0.6216 0.54045 0.33518 0.0
C122 C 0.64832 0.56439 0.29789 0.0
C123 C 0.65622 0.53116 0.19613 0.0
C124 C 0.62901 0.50698 0.22731 0.0
H125 H 0.65532 0.58669 0.32483 0.0
H126 H 0.67024 0.52753 0.14384 0.0
H127 H 0.70001 0.60646 0.40589 0.0
H128 H 0.74332 0.56003 0.49938 0.0
H129 H 0.63888 0.57394 0.88329 0.0
H130 H 0.60885 0.54462 0.39143 0.0
H131 H 0.62208 0.48484 0.19801 0.0
C132 C 0.16429 0.72469 0.69038 0.0
C133 C 0.16628 0.72562 0.79387 0.0
N134 N 0.13827 0.70997 0.83074 0.0
N135 N 0.13513 0.70889 0.66252 0.0
C136 C 0.11991 0.69994 0.75045 0.0
H137 H 0.18314 0.7334 0.63967 0.0
Co138 Co 0.11921 0.69621 0.53308 0.0
C139 C 0.07259 0.71013 0.6107 0.0
O140 O 0.09117 0.73917 0.61422 0.0
N141 N 0.10319 0.68303 0.40409 0.0
C142 C 0.07209 0.66232 0.27404 0.0
C143 C 0.0742 0.66475 0.37749 0.0
C144 C 0.11822 0.69096 0.31575 0.0
N145 N 0.09988 0.67902 0.23622 0.0
O146 O 0.13513 0.73756 0.48941 0.0
H147 H 0.0556 0.6543 0.42957 0.0
H148 H 0.14212 0.70561 0.30829 0.0
O149 O 0.08138 0.6926 0.577 0.0
C150 C 0.16135 0.7477 0.45177 0.0
O151 O 0.17346 0.73043 0.45594 0.0
N152 N 0.1065 0.65669 0.57186 0.0
C153 C 0.09747 0.60162 0.6395 0.0
C154 C 0.07377 0.60776 0.64025 0.0
C155 C 0.07875 0.63563 0.60608 0.0
C156 C 0.12944 0.65063 0.56824 0.0
C157 C 0.12544 0.62322 0.60197 0.0
H158 H 0.06039 0.64017 0.60881 0.0
H159 H 0.15122 0.66758 0.541 0.0
H160 H 0.09592 0.68497 0.75601 0.0
H161 H 0.18662 0.73572 0.83849 0.0
H162 H 0.0518 0.65009 0.22997 0.0
H163 H 0.05182 0.59133 0.6682 0.0
H164 H 0.14411 0.61901 0.59992 0.0
C165 C 0.4509 0.15942 0.02404 0.0
C166 C 0.45012 0.16228 0.12657 0.0
N167 N 0.4249 0.13856 0.16134 0.0
N168 N 0.42662 0.13363 0.99443 0.0
C169 C 0.41041 0.12228 0.07936 0.0
H170 H 0.46936 0.17396 0.9755 0.0
Co171 Co 0.4243 0.11672 0.86788 0.0
C172 C 0.37673 0.05091 0.88168 0.0
O173 O 0.38763 0.04487 0.80135 0.0
N174 N 0.42381 0.1016 0.73614 0.0
C175 C 0.44408 0.0961 0.59512 0.0
C176 C 0.44472 0.0956 0.69797 0.0
C177 C 0.40961 0.10383 0.65313 0.0
N178 N 0.42233 0.10181 0.56671 0.0
O179 O 0.3988 0.13237 0.82359 0.0
H180 H 0.46127 0.09315 0.74028 0.0
H181 H 0.39209 0.10954 0.6548 0.0
O182 O 0.38872 0.07814 0.91232 0.0
C183 C 0.41602 0.1582 0.78577 0.0
O184 O 0.44487 0.16714 0.78076 0.0
N185 N 0.45222 0.10511 0.91286 0.0
C186 C 0.50043 0.09942 0.98417 0.0
C187 C 0.47082 0.07594 0.99508 0.0
C188 C 0.44713 0.07883 0.9558 0.0
C189 C 0.481 0.128 0.9006 0.0
C190 C 0.5054 0.12544 0.93392 0.0
H191 H 0.42514 0.05972 0.96078 0.0
H192 H 0.48503 0.14835 0.86336 0.0
H193 H 0.38937 0.10153 0.083 0.0
H194 H 0.46804 0.17884 0.17298 0.0
H195 H 0.45974 0.09436 0.54487 0.0
H196 H 0.46608 0.05533 0.03253 0.0
H197 H 0.52798 0.14393 0.92248 0.0
C198 C 0.54757 0.69387 0.30607 0.0
C199 C 0.54588 0.6948 0.20288 0.0
N200 N 0.57389 0.70649 0.16593 0.0
N201 N 0.57649 0.70468 0.33366 0.0
C202 C 0.59207 0.71323 0.24657 0.0
H203 H 0.52868 0.68379 0.35715 0.0
Co204 Co 0.58907 0.70007 0.46158 0.0
C205 C 0.6341 0.6802 0.41359 0.0
O206 O 0.62118 0.65942 0.483 0.0
N207 N 0.60178 0.69635 0.59139 0.0
C208 C 0.63315 0.71015 0.72249 0.0
C209 C 0.63096 0.70964 0.61943 0.0
C210 C 0.58674 0.69005 0.6799 0.0
N211 N 0.60529 0.69845 0.7601 0.0
O212 O 0.61212 0.7434 0.48172 0.0
H213 H 0.64969 0.72163 0.56895 0.0
H214 H 0.56307 0.68233 0.68687 0.0
O215 O 0.62438 0.69864 0.3983 0.0
C216 C 0.59719 0.75719 0.48905 0.0
O217 O 0.56981 0.74436 0.45254 0.0
N218 N 0.56316 0.6579 0.44799 0.0
C219 C 0.51298 0.60259 0.3993 0.0
C220 C 0.53965 0.6136 0.34449 0.0
C221 C 0.56441 0.64123 0.36995 0.0
C222 C 0.53739 0.64702 0.50323 0.0
C223 C 0.51234 0.61913 0.48192 0.0
H224 H 0.58331 0.65008 0.32058 0.0
H225 H 0.53488 0.66121 0.55712 0.0
H226 H 0.61609 0.72245 0.24142 0.0
H227 H 0.52558 0.68533 0.15812 0.0
H228 H 0.65363 0.72132 0.76624 0.0
H229 H 0.5408 0.6017 0.27892 0.0
H230 H 0.49185 0.61162 0.52467 0.0
C231 C 0.87179 0.61038 0.65467 0.0
C232 C 0.86847 0.61009 0.55214 0.0
N233 N 0.87641 0.59093 0.51415 0.0
N234 N 0.88072 0.59061 0.68222 0.0
C235 C 0.8829 0.57891 0.59346 0.0
H236 H 0.86973 0.62589 0.70403 0.0
Co237 Co 0.89366 0.58669 0.81286 0.0
C238 C 0.96054 0.63205 0.80063 0.0
O239 O 0.96789 0.61796 0.86691 0.0
N240 N 0.90637 0.58279 0.94421 0.0
C241 C 0.9233 0.56852 0.07665 0.0
C242 C 0.923 0.5702 0.97343 0.0
C243 C 0.89675 0.58819 0.03222 0.0
N244 N 0.90666 0.57983 0.11233 0.0
O245 O 0.87833 0.6119 0.86717 0.0
H246 H 0.93398 0.5621 0.92352 0.0
H247 H 0.88175 0.59696 0.03952 0.0
O248 O 0.93288 0.62219 0.77921 0.0
C249 C 0.85025 0.5954 0.88559 0.0
O250 O 0.83794 0.56655 0.86721 0.0
N251 N 0.90474 0.55896 0.7641 0.0
C252 C 0.91061 0.50946 0.71038 0.0
C253 C 0.93146 0.53844 0.67682 0.0
C254 C 0.92883 0.56309 0.7079 0.0
C255 C 0.88399 0.53091 0.79527 0.0
C256 C 0.88721 0.50619 0.77323 0.0
H257 H 0.94546 0.58499 0.68309 0.0
H258 H 0.86519 0.52792 0.84058 0.0
H259 H 0.89055 0.563 0.58465 0.0
H260 H 0.86355 0.62486 0.50831 0.0
H261 H 0.93433 0.55932 0.12183 0.0
H262 H 0.94975 0.54204 0.62747 0.0
H263 H 0.87084 0.4844 0.80235 0.0
C264 C 0.29749 0.83861 0.98527 0.0
C265 C 0.29721 0.83489 0.88261 0.0
N266 N 0.29209 0.85557 0.83964 0.0
N267 N 0.29224 0.86128 0.00646 0.0
C268 C 0.28883 0.87097 0.9157 0.0
H269 H 0.30314 0.82688 0.04097 0.0
Co270 Co 0.29883 0.87887 0.13372 0.0
C271 C 0.3195 0.94294 0.09555 0.0
O272 O 0.34139 0.94804 0.15822 0.0
N273 N 0.30472 0.89516 0.26478 0.0
C274 C 0.29552 0.91433 0.40218 0.0
C275 C 0.29466 0.91339 0.29907 0.0
C276 C 0.30989 0.88399 0.34995 0.0
N277 N 0.30439 0.89521 0.43386 0.0
O278 O 0.25571 0.85972 0.16217 0.0
H279 H 0.28404 0.92283 0.25344 0.0
H280 H 0.31459 0.86577 0.35164 0.0
O281 O 0.29974 0.91561 0.0759 0.0
C282 C 0.23733 0.83145 0.1588 0.0
O283 O 0.24383 0.81451 0.10274 0.0
N284 N 0.34086 0.89514 0.10983 0.0
C285 C 0.39696 0.90383 0.04972 0.0
C286 C 0.38289 0.9166 0.99519 0.0
C287 C 0.35474 0.9117 0.02557 0.0
C288 C 0.35479 0.88318 0.16491 0.0
C289 C 0.38305 0.88769 0.13728 0.0
H290 H 0.34331 0.91944 0.97638 0.0
H291 H 0.34305 0.8679 0.22547 0.0
H292 H 0.28661 0.89043 0.90441 0.0
H293 H 0.30247 0.81977 0.84251 0.0
H294 H 0.28685 0.92527 0.45018 0.0
H295 H 0.39271 0.92868 0.92599 0.0
H296 H 0.393 0.8769 0.17994 0.0
C297 C 0.46242 0.30908 0.36443 0.0
C298 C 0.46093 0.30692 0.26183 0.0
N299 N 0.43195 0.29499 0.23424 0.0
N300 N 0.43459 0.29947 0.40096 0.0
C301 C 0.41629 0.28948 0.32043 0.0
H302 H 0.48275 0.31968 0.40888 0.0
Co303 Co 0.42798 0.30875 0.52872 0.0
C304 C 0.38502 0.33152 0.49151 0.0
O305 O 0.40427 0.35667 0.53512 0.0
N306 N 0.42232 0.31863 0.66107 0.0
C307 C 0.42724 0.3433 0.80426 0.0
C308 C 0.43045 0.34579 0.7021 0.0
C309 C 0.41394 0.30003 0.74133 0.0
N310 N 0.41715 0.31458 0.82839 0.0
O311 O 0.40261 0.26593 0.56134 0.0
H312 H 0.4406 0.36695 0.66283 0.0
H313 H 0.40782 0.27671 0.73821 0.0
O314 O 0.39183 0.31083 0.48071 0.0
C315 C 0.40958 0.24561 0.54419 0.0
O316 O 0.43057 0.25067 0.47815 0.0
N317 N 0.45543 0.34954 0.4992 0.0
C318 C 0.50513 0.40408 0.44295 0.0
C319 C 0.47883 0.39114 0.38477 0.0
C320 C 0.45407 0.36407 0.415 0.0
C321 C 0.48116 0.36153 0.55502 0.0
C322 C 0.5057 0.38938 0.53098 0.0
H323 H 0.43455 0.35391 0.36744 0.0
H324 H 0.48286 0.34904 0.61773 0.0
H325 H 0.39238 0.28066 0.32377 0.0
H326 H 0.47985 0.31525 0.2108 0.0
H327 H 0.43378 0.36145 0.85745 0.0
H328 H 0.4777 0.40156 0.31531 0.0
H329 H 0.52566 0.39855 0.57753 0.0
C330 C 0.165 0.451 0.70462 0.0
C331 C 0.16887 0.4518 0.60179 0.0
N332 N 0.14474 0.42793 0.56185 0.0
N333 N 0.13848 0.42677 0.7297 0.0
C334 C 0.12743 0.41257 0.64086 0.0
H335 H 0.18003 0.46785 0.75708 0.0
Co336 Co 0.11964 0.41924 0.85768 0.0
C337 C 0.05487 0.36739 0.80386 0.0
O338 O 0.04344 0.36113 0.89485 0.0
N339 N 0.10209 0.4128 0.98712 0.0
C340 C 0.07661 0.41042 0.12641 0.0
C341 C 0.07673 0.41146 0.02272 0.0
C342 C 0.11697 0.41291 0.07136 0.0
N343 N 0.10209 0.41146 0.15642 0.0
O344 O 0.13307 0.39056 0.8928 0.0
H345 H 0.0597 0.41228 0.97776 0.0
H346 H 0.13894 0.41524 0.0713 0.0
O347 O 0.08236 0.38765 0.79253 0.0
C348 C 0.15823 0.39175 0.87564 0.0
O349 O 0.17266 0.40362 0.79162 0.0
N350 N 0.10872 0.44893 0.83076 0.0
C351 C 0.09982 0.49668 0.78122 0.0
C352 C 0.07568 0.46735 0.782 0.0
C353 C 0.08054 0.4438 0.80807 0.0
C354 C 0.1319 0.47768 0.83828 0.0
C355 C 0.12809 0.50193 0.81224 0.0
H356 H 0.06143 0.42153 0.80841 0.0
H357 H 0.15366 0.48185 0.86329 0.0
H358 H 0.10643 0.39193 0.63245 0.0
H359 H 0.18672 0.46974 0.55903 0.0
H360 H 0.05994 0.41053 0.17605 0.0
H361 H 0.05337 0.46265 0.76082 0.0
H362 H 0.14708 0.52451 0.81497 0.0
C363 C 0.70735 0.15533 0.00993 0.0
C364 C 0.71254 0.16113 0.90911 0.0
N365 N 0.72502 0.14545 0.87048 0.0
N366 N 0.71469 0.13464 0.03646 0.0
C367 C 0.72607 0.12964 0.95145 0.0
H368 H 0.69633 0.16363 0.05909 0.0
Co369 Co 0.70597 0.11601 0.16451 0.0
C370 C 0.67739 0.05172 0.08999 0.0
O371 O 0.65157 0.04538 0.13034 0.0
N372 N 0.69889 0.09959 0.29738 0.0
C373 C 0.68472 0.07396 0.44212 0.0
C374 C 0.68252 0.07197 0.33841 0.0
C375 C 0.71101 0.11769 0.37854 0.0
N376 N 0.70298 0.10282 0.46704 0.0
O377 O 0.74847 0.13123 0.18511 0.0
H378 H 0.66948 0.05144 0.29775 0.0
H379 H 0.72503 0.14173 0.37366 0.0
O380 O 0.70054 0.07796 0.10112 0.0
C381 C 0.76072 0.15889 0.20907 0.0
O382 O 0.74403 0.17166 0.20933 0.0
N383 N 0.66428 0.10384 0.14704 0.0
C384 C 0.60741 0.09737 0.1141 0.0
C385 C 0.62293 0.09277 0.03612 0.0
C386 C 0.65097 0.0957 0.05435 0.0
C387 C 0.64924 0.10817 0.22427 0.0
C388 C 0.6204 0.1041 0.21021 0.0
H389 H 0.66251 0.0927 0.99203 0.0
H390 H 0.65987 0.11601 0.29651 0.0
H391 H 0.73277 0.11286 0.94879 0.0
H392 H 0.70472 0.17391 0.86746 0.0
H393 H 0.67389 0.05562 0.49512 0.0
H394 H 0.61373 0.08762 0.96067 0.0
H395 H 0.60906 0.10786 0.27244 0.0
C396 C 0.20994 0.42071 0.10325 0.0
C397 C 0.22033 0.39994 0.10969 0.0
C398 C 0.18167 0.36846 0.98504 0.0
C399 C 0.17688 0.39278 0.9633 0.0
N400 N 0.19082 0.4445 0.99317 0.0
N401 N 0.21399 0.35181 0.06057 0.0
C402 C 0.19206 0.41952 0.02051 0.0
C403 C 0.20517 0.37276 0.05339 0.0
N404 N 0.21737 0.44179 0.17672 0.0
N405 N 0.16394 0.34144 0.93974 0.0
H406 H 0.22925 0.35275 0.11379 0.0
H407 H 0.20683 0.33382 0.01127 0.0
H408 H 0.1471 0.33806 0.88863 0.0
H409 H 0.16423 0.32195 0.95862 0.0
H410 H 0.20842 0.45605 0.17988 0.0
H411 H 0.22963 0.4424 0.24029 0.0
H412 H 0.20427 0.46539 0.02631 0.0
H413 H 0.17782 0.44484 0.93347 0.0
C414 C 0.80213 0.17561 0.33699 0.0
C415 C 0.79272 0.17773 0.23856 0.0
C416 C 0.82914 0.23116 0.2331 0.0
C417 C 0.83769 0.22997 0.33461 0.0
N418 N 0.8374 0.19991 0.47454 0.0
N419 N 0.80498 0.20346 0.08094 0.0
C420 C 0.82621 0.20167 0.38315 0.0
C421 C 0.80937 0.20416 0.18248 0.0
N422 N 0.78681 0.14917 0.38802 0.0
N423 N 0.83787 0.258 0.18689 0.0
H424 H 0.79006 0.18363 0.04386 0.0
H425 H 0.81822 0.22135 0.03335 0.0
H426 H 0.85129 0.27863 0.22081 0.0
H427 H 0.82958 0.25992 0.11741 0.0
H428 H 0.78944 0.14673 0.46448 0.0
H429 H 0.77078 0.12955 0.35282 0.0
H430 H 0.8317 0.17977 0.51032 0.0
H431 H 0.85412 0.21862 0.51181 0.0
C432 C 0.62471 0.81095 0.55038 0.0
C433 C 0.60441 0.78016 0.56919 0.0
C434 C 0.5898 0.79367 0.7281 0.0
C435 C 0.60419 0.82398 0.69762 0.0
N436 N 0.63917 0.86285 0.58714 0.0
N437 N 0.56648 0.74199 0.67599 0.0
C438 C 0.62341 0.83321 0.612 0.0
C439 C 0.58705 0.77144 0.65913 0.0
N440 N 0.64442 0.81868 0.47203 0.0
N441 N 0.57811 0.78627 0.82298 0.0
H442 H 0.56344 0.7249 0.62724 0.0
H443 H 0.55088 0.73466 0.73432 0.0
H444 H 0.58055 0.80255 0.87501 0.0
H445 H 0.56901 0.76482 0.85322 0.0
H446 H 0.66125 0.84048 0.45654 0.0
H447 H 0.64522 0.80264 0.42616 0.0
H448 H 0.65188 0.87106 0.52199 0.0
H449 H 0.63949 0.87955 0.63218 0.0
C450 C 0.83564 0.6227 0.01585 0.0
C451 C 0.83013 0.60662 0.92397 0.0
C452 C 0.77622 0.58759 0.94122 0.0
C453 C 0.78094 0.60181 0.03708 0.0
N454 N 0.81549 0.63829 0.15495 0.0
N455 N 0.79772 0.58635 0.78074 0.0
C456 C 0.81086 0.6215 0.07029 0.0
C457 C 0.80124 0.59355 0.88059 0.0
N458 N 0.86421 0.63814 0.05265 0.0
N459 N 0.74805 0.5668 0.90944 0.0
H460 H 0.81583 0.59049 0.73481 0.0
H461 H 0.77773 0.5796 0.74182 0.0
H462 H 0.72844 0.56091 0.94899 0.0
H463 H 0.74418 0.55336 0.84631 0.0
H464 H 0.86956 0.64684 0.12515 0.0
H465 H 0.88282 0.64217 0.00975 0.0
H466 H 0.83655 0.65483 0.17932 0.0
H467 H 0.79793 0.63707 0.19789 0.0
C468 C 0.21014 0.79226 0.41122 0.0
C469 C 0.17864 0.77701 0.39733 0.0
C470 C 0.18632 0.80689 0.2433 0.0
C471 C 0.21745 0.81651 0.24697 0.0
N472 N 0.25852 0.81496 0.33005 0.0
N473 N 0.13601 0.77142 0.30235 0.0
C474 C 0.22932 0.8086 0.33044 0.0
C475 C 0.16638 0.78523 0.31507 0.0
N476 N 0.22162 0.79055 0.50204 0.0
N477 N 0.17594 0.81807 0.17015 0.0
H478 H 0.12075 0.75651 0.35437 0.0
H479 H 0.12578 0.77425 0.23908 0.0
H480 H 0.19017 0.83348 0.11666 0.0
H481 H 0.154 0.81409 0.16701 0.0
H482 H 0.24445 0.80234 0.51913 0.0
H483 H 0.20778 0.78009 0.56382 0.0
H484 H 0.26739 0.80687 0.38408 0.0
H485 H 0.27329 0.82612 0.27105 0.0
C486 C 0.42805 0.23191 0.6976 0.0
C487 C 0.40508 0.22368 0.62472 0.0
C488 C 0.38203 0.17103 0.67956 0.0
C489 C 0.40601 0.17944 0.74928 0.0
N490 N 0.44386 0.21854 0.85109 0.0
N491 N 0.35701 0.18724 0.55915 0.0
C492 C 0.42621 0.21021 0.76708 0.0
C493 C 0.38086 0.19377 0.62041 0.0
N494 N 0.45263 0.26006 0.6969 0.0
N495 N 0.36124 0.14151 0.66683 0.0
H496 H 0.35605 0.20356 0.5152 0.0
H497 H 0.3374 0.1665 0.55728 0.0
H498 H 0.35937 0.12486 0.71562 0.0
H499 H 0.34588 0.13343 0.60785 0.0
H500 H 0.47212 0.26575 0.7374 0.0
H501 H 0.45447 0.27734 0.65097 0.0
H502 H 0.45866 0.2407 0.87012 0.0
H503 H 0.44144 0.20315 0.90668 0.0
C504 C 0.45979 0.57772 0.33431 0.0
C505 C 0.48508 0.57538 0.36435 0.0
C506 C 0.4583 0.52229 0.31598 0.0
C507 C 0.43174 0.52377 0.29956 0.0
N508 N 0.40579 0.55192 0.31755 0.0
N509 N 0.5064 0.54396 0.40075 0.0
C510 C 0.43205 0.55123 0.31551 0.0
C511 C 0.48381 0.54723 0.35979 0.0
N512 N 0.46242 0.60523 0.31987 0.0
N513 N 0.45953 0.49747 0.28689 0.0
H514 H 0.52511 0.56144 0.43576 0.0
H515 H 0.50506 0.52326 0.40904 0.0
H516 H 0.44154 0.47903 0.25261 0.0
H517 H 0.4793 0.49651 0.28743 0.0
H518 H 0.44533 0.608 0.28873 0.0
H519 H 0.48265 0.62526 0.32842 0.0
H520 H 0.40474 0.57088 0.33869 0.0
H521 H 0.38475 0.53285 0.30897 0.0
C522 C 0.93941 0.48138 0.68351 0.0
C523 C 0.9122 0.48233 0.67781 0.0
C524 C 0.88568 0.42895 0.63656 0.0
C525 C 0.91333 0.42936 0.62326 0.0
N526 N 0.96749 0.45985 0.6107 0.0
N527 N 0.86116 0.458 0.61432 0.0
C528 C 0.94059 0.45671 0.64 0.0
C529 C 0.8858 0.45641 0.64389 0.0
N530 N 0.9637 0.50307 0.73387 0.0
N531 N 0.85932 0.4025 0.64608 0.0
H532 H 0.86111 0.47821 0.6093 0.0
H533 H 0.84229 0.43977 0.58285 0.0
H534 H 0.85844 0.38183 0.65019 0.0
H535 H 0.83904 0.40164 0.66257 0.0
H536 H 0.9831 0.5018 0.746 0.0
H537 H 0.96316 0.52026 0.77352 0.0
H538 H 0.98753 0.48027 0.6147 0.0
H539 H 0.96931 0.44325 0.57185 0.0
C540 C 0.47666 0.93171 0.95156 0.0
C541 C 0.47569 0.90411 0.93205 0.0
C542 C 0.42219 0.87699 0.97586 0.0
C543 C 0.42419 0.90422 0.0084 0.0
N544 N 0.45462 0.95725 0.04027 0.0
N545 N 0.44885 0.85009 0.94534 0.0
C546 C 0.4518 0.93158 0.99965 0.0
C547 C 0.4488 0.8766 0.94958 0.0
N548 N 0.50097 0.95802 0.92146 0.0
N549 N 0.39476 0.85167 0.96617 0.0
H550 H 0.46798 0.84872 0.92875 0.0
H551 H 0.43064 0.82974 0.968 0.0
H552 H 0.37456 0.85114 0.98121 0.0
H553 H 0.3919 0.83206 0.93308 0.0
H554 H 0.50148 0.9785 0.92336 0.0
H555 H 0.51947 0.95897 0.88536 0.0
H556 H 0.47505 0.9772 0.04526 0.0
H557 H 0.43704 0.95795 0.07702 0.0
C558 C 0.5559 0.48294 0.33946 0.0
C559 C 0.58446 0.48481 0.34249 0.0
C560 C 0.56036 0.4327 0.39939 0.0
C561 C 0.53251 0.43207 0.40917 0.0
N562 N 0.5062 0.45998 0.41273 0.0
N563 N 0.61425 0.46396 0.4066 0.0
C564 C 0.53096 0.45823 0.38646 0.0
C565 C 0.58683 0.46046 0.38226 0.0
N566 N 0.55211 0.50383 0.28824 0.0
N567 N 0.56156 0.40678 0.40115 0.0
H568 H 0.63413 0.48447 0.40078 0.0
H569 H 0.61668 0.44741 0.4435 0.0
H570 H 0.54246 0.38562 0.40572 0.0
H571 H 0.5812 0.40622 0.38587 0.0
H572 H 0.53109 0.50174 0.27638 0.0
H573 H 0.56939 0.5215 0.24864 0.0
H574 H 0.50519 0.47956 0.40539 0.0
H575 H 0.48812 0.4431 0.45219 0.0
C576 C 0.0939 0.52619 0.641 0.0
C577 C 0.09568 0.52183 0.7458 0.0
C578 C 0.09501 0.56825 0.78225 0.0
C579 C 0.09344 0.57265 0.6774 0.0
N580 N 0.08444 0.55306 0.50881 0.0
N581 N 0.09154 0.53466 0.91691 0.0
C582 C 0.09069 0.55068 0.60733 0.0
C583 C 0.09425 0.54166 0.81676 0.0
N584 N 0.09644 0.50754 0.57353 0.0
N585 N 0.09822 0.58998 0.84842 0.0
H586 H 0.09106 0.51543 0.9444 0.0
H587 H 0.08736 0.54644 0.97215 0.0
H588 H 0.09775 0.60917 0.82618 0.0
H589 H 0.10283 0.58985 0.92459 0.0
H590 H 0.09886 0.51148 0.49639 0.0
H591 H 0.09799 0.48889 0.59514 0.0
H592 H 0.07906 0.53634 0.45548 0.0
H593 H 0.082 0.57079 0.48195 0.0
C594 C 0.57512 0.12188 0.11067 0.0
C595 C 0.57844 0.09648 0.09214 0.0
C596 C 0.53105 0.07319 0.99835 0.0
C597 C 0.52628 0.09719 0.02589 0.0
N598 N 0.53981 0.13935 0.13629 0.0
N599 N 0.55481 0.04439 0.04383 0.0
C600 C 0.54705 0.11994 0.09112 0.0
C601 C 0.55482 0.07093 0.04429 0.0
N602 N 0.59903 0.14846 0.14085 0.0
N603 N 0.51424 0.05354 0.92435 0.0
H604 H 0.57134 0.04164 0.07987 0.0
H605 H 0.53672 0.0245 0.01758 0.0
H606 H 0.4979 0.05542 0.88367 0.0
H607 H 0.51885 0.03739 0.89593 0.0
H608 H 0.59806 0.16817 0.14596 0.0
H609 H 0.62061 0.15173 0.14984 0.0
H610 H 0.55334 0.15471 0.19088 0.0
H611 H 0.51885 0.13774 0.1279 0.0
C612 C 0.333 0.33335 0.2956 0.0
C613 C 0.32926 0.3566 0.33973 0.0
C614 C 0.34606 0.34657 0.50154 0.0
C615 C 0.35703 0.33002 0.45055 0.0
N616 N 0.34518 0.29359 0.32128 0.0
N617 N 0.32919 0.38238 0.49206 0.0
C618 C 0.34572 0.31895 0.3537 0.0
C619 C 0.33393 0.3616 0.44563 0.0
N620 N 0.32494 0.32558 0.19764 0.0
N621 N 0.34716 0.34748 0.6043 0.0
H622 H 0.31888 0.39251 0.45627 0.0
H623 H 0.3364 0.39026 0.56463 0.0
H624 H 0.35542 0.3358 0.64533 0.0
H625 H 0.33708 0.35672 0.64851 0.0
H626 H 0.32935 0.31086 0.15756 0.0
H627 H 0.31382 0.33423 0.15594 0.0
H628 H 0.33607 0.28309 0.25306 0.0
H629 H 0.35043 0.28095 0.36975 0.0
C630 C 0.03821 0.36807 0.61988 0.0
C631 C 0.03433 0.35301 0.71421 0.0
C632 C 0.98438 0.31348 0.65477 0.0
C633 C 0.98819 0.33034 0.56572 0.0
N634 N 0.02534 0.36102 0.44341 0.0
N635 N 0.00889 0.30476 0.79695 0.0
C636 C 0.01746 0.35318 0.5415 0.0
C637 C 0.00889 0.32359 0.7244 0.0
N638 N 0.05958 0.39725 0.6049 0.0
N639 N 0.95806 0.28763 0.67219 0.0
H640 H 0.02751 0.31038 0.84241 0.0
H641 H 0.99214 0.28243 0.80387 0.0
H642 H 0.94212 0.27656 0.6162 0.0
H643 H 0.9524 0.27698 0.74188 0.0
H644 H 0.06037 0.40904 0.54 0.0
H645 H 0.07483 0.41073 0.65839 0.0
H646 H 0.04728 0.37634 0.42159 0.0
H647 H 0.01072 0.34929 0.38441 0.0
C648 C 0.67278 1.00101 0.07164 0.0
C649 C 0.67769 0.02805 0.02544 0.0
C650 C 0.66409 1.00225 0.86224 0.0
C651 C 0.65214 0.97463 0.91278 0.0
N652 N 0.65878 0.94849 0.0497 0.0
N653 N 0.67982 0.05476 0.87334 0.0
C654 C 0.66088 0.97419 0.01307 0.0
C655 C 0.67496 0.02904 0.91898 0.0
N656 N 0.67818 1.00089 0.17217 0.0
N657 N 0.66404 1.0023 0.75959 0.0
H658 H 0.68741 0.0745 0.91285 0.0
H659 H 0.67487 0.05621 0.79831 0.0
H660 H 0.65631 0.98242 0.71899 0.0
H661 H 0.67433 0.02168 0.71595 0.0
H662 H 0.67223 0.98157 0.21366 0.0
H663 H 0.68846 0.0206 0.21442 0.0
H664 H 0.66547 0.94628 0.12156 0.0
H665 H 0.65329 0.93031 1.00232 0.0
C666 C 0.65713 0.6759 0.24745 0.0
C667 C 0.65935 0.68073 0.35376 0.0
C668 C 0.70179 0.67093 0.35832 0.0
C669 C 0.69819 0.66446 0.25402 0.0
N670 N 0.67833 0.66811 0.09432 0.0
N671 N 0.6889 0.69048 0.50449 0.0
C672 C 0.67791 0.66959 0.19702 0.0
C673 C 0.68339 0.68067 0.40715 0.0
N674 N 0.634 0.67522 0.19513 0.0
N675 N 0.72249 0.66709 0.41102 0.0
H676 H 0.67615 0.69803 0.54188 0.0
H677 H 0.7075 0.69368 0.54572 0.0
H678 H 0.73781 0.66231 0.37598 0.0
H679 H 0.72382 0.66745 0.48912 0.0
H680 H 0.62827 0.66732 0.1218 0.0
H681 H 0.61949 0.68136 0.22657 0.0
H682 H 0.66662 0.67486 0.04711 0.0
H683 H 0.69251 0.66255 0.05542 0.0
C684 C 0.03801 0.69832 0.76065 0.0
C685 C 0.04191 0.69653 0.65545 0.0
C686 C 0.98891 0.65752 0.63977 0.0
C687 C 0.98543 0.65806 0.746 0.0
N688 N 1.0033 0.68534 0.90086 0.0
N689 N 0.01944 0.68137 0.49191 0.0
C690 C 0.00897 0.68067 0.80404 0.0
C691 C 0.01677 0.67829 0.59417 0.0
N692 N 0.06226 0.71542 0.82035 0.0
N693 N 0.96631 0.6363 0.58247 0.0
H694 H 0.03946 0.69678 0.45683 0.0
H695 H 1.00135 0.67093 0.44258 0.0
H696 H 0.94445 0.6234 0.60839 0.0
H697 H 0.96947 0.63105 0.50945 0.0
H698 H 0.06151 0.7145 0.89861 0.0
H699 H 0.0837 0.72931 0.79188 0.0
H700 H 0.01853 0.70319 0.945 0.0
H701 H 0.98204 0.67304 0.93341 0.0
C702 C 0.3559 0.02339 0.04984 0.0
C703 C 0.35366 0.0249 0.94306 0.0
C704 C 0.31475 0.9712 0.94376 0.0
C705 C 0.32048 0.96985 0.04728 0.0
N706 N 0.33152 0.99675 0.2027 0.0
N707 N 0.32288 1.00253 0.7962 0.0
C708 C 0.33561 0.99687 0.10122 0.0
C709 C 0.33042 0.9994 0.89224 0.0
N710 N 0.37911 0.04539 0.10247 0.0
N711 N 0.29395 0.94592 0.89611 0.0
H712 H 0.33271 0.02322 0.7596 0.0
H713 H 0.30525 0.98549 0.75604 0.0
H714 H 0.27803 0.92755 0.93686 0.0
H715 H 0.29152 0.94376 0.81832 0.0
H716 H 0.38282 0.04324 0.17829 0.0
H717 H 0.39661 0.06399 0.06935 0.0
H718 H 0.34024 0.01632 0.24543 0.0
H719 H 0.31645 0.97724 0.24086 0.0
C720 C 0.27055 0.41523 0.6731 0.0
C721 C 0.29677 0.43016 0.61333 0.0
C722 C 0.32763 0.43107 0.75652 0.0
C723 C 0.30127 0.41461 0.81431 0.0
N724 N 0.24765 0.3899 0.83045 0.0
N725 N 0.34999 0.44994 0.59292 0.0
C726 C 0.27266 0.40635 0.77318 0.0
C727 C 0.32531 0.43764 0.65395 0.0
N728 N 0.24386 0.41037 0.63412 0.0
N729 N 0.35493 0.44063 0.80092 0.0
H730 H 0.34919 0.45525 0.51798 0.0
H731 H 0.37087 0.453 0.61368 0.0
H732 H 0.3571 0.43496 0.87461 0.0
H733 H 0.37537 0.45551 0.76768 0.0
H734 H 0.22395 0.40167 0.67473 0.0
H735 H 0.24206 0.41673 0.56101 0.0
H736 H 0.22574 0.3808 0.80423 0.0
H737 H 0.249 0.38433 0.90483 0.0
C738 C 0.91556 0.29577 0.02395 0.0
C739 C 0.90698 0.31422 0.07674 0.0
C740 C 0.88055 0.31698 0.92763 0.0
C741 C 0.88672 0.29637 0.87756 0.0
N742 N 0.90588 0.26231 0.88225 0.0
N743 N 0.87377 0.33463 0.08828 0.0
C744 C 0.90304 0.2846 0.92713 0.0
C745 C 0.88723 0.32256 0.03136 0.0
N746 N 0.93633 0.28977 0.06523 0.0
N747 N 0.86971 0.3324 0.87516 0.0
H748 H 0.87656 0.33725 0.16599 0.0
H749 H 0.85713 0.33864 0.06025 0.0
H750 H 0.86613 0.3302 0.7977 0.0
H751 H 0.86752 0.34976 0.90663 0.0
H752 H 0.94572 0.2788 0.02671 0.0
H753 H 0.9459 0.29793 0.13565 0.0
H754 H 0.91526 0.25086 0.91778 0.0
H755 H 0.89657 0.25368 0.81189 0.0
C756 C 0.55272 0.87468 0.25091 0.0
C757 C 0.57528 0.87022 0.20594 0.0
C758 C 0.60635 0.88999 0.35692 0.0
C759 C 0.58257 0.89147 0.40507 0.0
N760 N 0.5319 0.88213 0.40498 0.0
N761 N 0.62184 0.87006 0.21834 0.0
C762 C 0.5553 0.88276 0.35411 0.0
C763 C 0.60167 0.87691 0.25975 0.0
N764 N 0.52983 0.87294 0.19354 0.0
N765 N 0.63363 0.90198 0.40327 0.0
H766 H 0.6187 0.86032 0.14726 0.0
H767 H 0.64022 0.87173 0.25718 0.0
H768 H 0.63745 0.91153 0.47484 0.0
H769 H 0.65288 0.90444 0.36831 0.0
H770 H 0.51441 0.8789 0.2196 0.0
H771 H 0.52785 0.86824 0.11679 0.0
H772 H 0.51033 0.87304 0.37534 0.0
H773 H 0.53362 0.8888 0.47999 0.0
C774 C 0.68347 0.56223 0.73595 0.0
C775 C 0.69469 0.59018 0.78559 0.0
C776 C 0.72642 0.61564 0.63943 0.0
C777 C 0.71295 0.58807 0.58685 0.0
N778 N 0.67391 0.53642 0.57635 0.0
N779 N 0.72381 0.6439 0.78175 0.0
C780 C 0.69005 0.56171 0.63261 0.0
C781 C 0.71537 0.61708 0.73635 0.0
N782 N 0.66788 0.53616 0.78884 0.0
N783 N 0.7503 0.64012 0.59744 0.0
H784 H 0.71573 0.64535 0.85238 0.0
H785 H 0.73672 0.66453 0.74648 0.0
H786 H 0.75866 0.63943 0.52652 0.0
H787 H 0.76303 0.66032 0.63527 0.0
H788 H 0.66174 0.5152 0.75857 0.0
H789 H 0.66382 0.53563 0.86584 0.0
H790 H 0.65496 0.51738 0.60342 0.0
H791 H 0.67764 0.53554 0.49962 0.0
C792 C 0.1206 0.67018 0.08091 0.0
C793 C 0.1085 0.68586 0.13243 0.0
C794 C 0.11969 0.71956 0.98876 0.0
C795 C 0.12956 0.70254 0.93418 0.0
N796 N 0.14009 0.66215 0.92382 0.0
N797 N 0.09268 0.72262 0.13352 0.0
C798 C 0.13024 0.67792 0.97918 0.0
C799 C 0.10693 0.70975 0.08565 0.0
N800 N 0.1226 0.64792 0.13011 0.0
N801 N 0.12386 0.74584 0.94914 0.0
H802 H 0.0839 0.71648 0.20598 0.0
H803 H 0.08781 0.7379 0.09922 0.0
H804 H 0.13348 0.75353 0.87836 0.0
H805 H 0.12002 0.76103 0.98891 0.0
H806 H 0.13247 0.63621 0.10055 0.0
H807 H 0.11474 0.6415 0.20349 0.0
H808 H 0.14116 0.64369 0.95004 0.0
H809 H 0.14685 0.66732 0.84895 0.0
C810 C 0.41764 0.09095 0.38545 0.0
C811 C 0.41822 0.10937 0.46533 0.0
C812 C 0.41634 0.14378 0.34119 0.0
C813 C 0.42078 0.12775 0.26329 0.0
N814 N 0.43647 0.09217 0.21888 0.0
N815 N 0.42666 0.15829 0.51535 0.0
C816 C 0.42424 0.10282 0.28704 0.0
C817 C 0.41944 0.13707 0.44277 0.0
N818 N 0.41117 0.06227 0.40382 0.0
N819 N 0.41012 0.16593 0.31793 0.0
H820 H 0.43342 0.15621 0.58702 0.0
H821 H 0.42992 0.1796 0.50051 0.0
H822 H 0.40828 0.17141 0.24362 0.0
H823 H 0.40424 0.17677 0.37203 0.0
H824 H 0.40884 0.04746 0.34635 0.0
H825 H 0.40499 0.05258 0.47512 0.0
H826 H 0.44171 0.07555 0.23649 0.0
H827 H 0.44442 0.10224 0.14908 0.0
C828 C 0.57588 0.67646 0.02405 0.0
C829 C 0.58179 0.70453 0.06334 0.0
C830 C 0.60466 0.729 0.90343 0.0
C831 C 0.59745 0.70064 0.86264 0.0
N832 N 0.57467 0.64728 0.87848 0.0
N833 N 0.59945 0.75692 0.04256 0.0
C834 C 0.58252 0.67432 0.92153 0.0
C835 C 0.59573 0.73071 1.00358 0.0
N836 N 0.56495 0.65215 0.0864 0.0
N837 N 0.62002 0.7542 0.84598 0.0
H838 H 0.59302 0.75845 0.11584 0.0
H839 H 0.60737 0.77673 1.00206 0.0
H840 H 0.62457 0.75353 0.76998 0.0
H841 H 0.62905 0.77591 0.87345 0.0
H842 H 0.56286 0.63165 0.06655 0.0
H843 H 0.55977 0.65304 0.16152 0.0
H844 H 0.56096 0.6267 0.91276 0.0
H845 H 0.58081 0.64536 0.80523 0.0
C846 C 0.87288 0.55872 0.25762 0.0
C847 C 0.8996 0.582 0.21499 0.0
C848 C 0.90944 0.61253 0.36595 0.0
C849 C 0.88346 0.58857 0.41118 0.0
N850 N 0.8412 0.53863 0.40567 0.0
N851 N 0.94496 0.6294 0.22709 0.0
C852 C 0.86539 0.56153 0.35842 0.0
C853 C 0.91832 0.60849 0.26883 0.0
N854 N 0.8545 0.53438 0.20013 0.0
N855 N 0.9254 0.63919 0.41541 0.0
H856 H 0.95151 0.62714 0.15474 0.0
H857 H 0.96147 0.64789 0.26547 0.0
H858 H 0.92105 0.64254 0.48929 0.0
H859 H 0.94234 0.65861 0.38243 0.0
H860 H 0.83325 0.51767 0.22221 0.0
H861 H 0.86011 0.53157 0.127 0.0
H862 H 0.82857 0.51717 0.37618 0.0
H863 H 0.83432 0.5409 0.47747 0.0
C864 C 0.27212 0.86614 0.57691 0.0
C865 C 0.30122 0.88359 0.53444 0.0
C866 C 0.32432 0.88132 0.69307 0.0
C867 C 0.29525 0.86371 0.73504 0.0
N868 N 0.24173 0.83643 0.71852 0.0
N869 N 0.35477 0.9058 0.5454 0.0
C870 C 0.26918 0.85537 0.67724 0.0
C871 C 0.32727 0.89043 0.59064 0.0
N872 N 0.24739 0.85991 0.5207 0.0
N873 N 0.34895 0.89021 0.75296 0.0
H874 H 0.35756 0.91411 0.47223 0.0
H875 H 0.37469 0.90927 0.57776 0.0
H876 H 0.34736 0.88328 0.82741 0.0
H877 H 0.37083 0.90543 0.73141 0.0
H878 H 0.2257 0.85038 0.54928 0.0
H879 H 0.24849 0.86452 0.44401 0.0
H880 H 0.22148 0.82741 0.6798 0.0
H881 H 0.23932 0.82828 0.79188 0.0
C882 C 0.39814 0.30772 1.00038 0.0
C883 C 0.41583 0.30363 0.92827 0.0
C884 C 0.43372 0.28301 0.0577 0.0
C885 C 0.42176 0.29355 0.13249 0.0
N886 N 0.39749 0.32273 0.17051 0.0
N887 N 0.45719 0.29508 0.89505 0.0
C888 C 0.40469 0.30729 0.10343 0.0
C889 C 0.4352 0.29285 0.95785 0.0
N890 N 0.37598 0.31323 0.96998 0.0
N891 N 0.44468 0.26461 0.08316 0.0
H892 H 0.46113 0.30516 0.8245 0.0
H893 H 0.47388 0.29057 0.91894 0.0
H894 H 0.4428 0.25628 0.15608 0.0
H895 H 0.45264 0.25541 0.03001 0.0
H896 H 0.36098 0.3144 0.02 0.0
H897 H 0.3709 0.31357 0.89407 0.0
H898 H 0.38793 0.33561 0.14881 0.0
H899 H 0.4039 0.32566 0.24533 0.0
C900 C 0.12908 0.44552 0.4122 0.0
C901 C 0.13497 0.42408 0.45817 0.0
C902 C 0.11723 0.39311 0.3056 0.0
C903 C 0.11375 0.4158 0.2576 0.0
N904 N 0.12327 0.4665 0.25631 0.0
N905 N 0.13863 0.37949 0.44557 0.0
C906 C 0.12177 0.44291 0.30837 0.0
C907 C 0.13015 0.39837 0.4038 0.0
N908 N 0.12886 0.4675 0.46894 0.0
N909 N 0.10735 0.3663 0.25813 0.0
H910 H 0.14827 0.38313 0.51701 0.0
H911 H 0.13832 0.36175 0.40696 0.0
H912 H 0.09781 0.36203 0.18646 0.0
H913 H 0.10659 0.34771 0.29216 0.0
H914 H 0.12231 0.48223 0.44068 0.0
H915 H 0.13207 0.46903 0.54657 0.0
H916 H 0.13193 0.48789 0.28676 0.0
H917 H 0.11877 0.4655 0.17945 0.0
C918 C 0.72792 0.10651 0.63246 0.0
C919 C 0.71207 0.11573 0.56686 0.0
C920 C 0.72001 0.15481 0.68802 0.0
C921 C 0.72834 0.14077 0.76302 0.0
N922 N 0.75851 0.11755 0.78317 0.0
N923 N 0.69029 0.14729 0.5394 0.0
C924 C 0.73731 0.12019 0.72955 0.0
C925 C 0.70757 0.13967 0.59635 0.0
N926 N 0.73443 0.08511 0.60141 0.0
N927 N 0.72761 0.18408 0.69857 0.0
H928 H 0.67896 0.13544 0.47516 0.0
H929 H 0.68469 0.16324 0.56276 0.0
H930 H 0.74158 0.19722 0.75694 0.0
H931 H 0.72406 0.19607 0.64211 0.0
H932 H 0.74213 0.07442 0.64952 0.0
H933 H 0.73127 0.07737 0.52752 0.0
H934 H 0.7677 0.10441 0.76132 0.0
H935 H 0.77014 0.13221 0.84203 0.0
loop_
_geom_bond_atom_site_label_1
_geom_bond_atom_site_label_2
_geom_bond_distance
_geom_bond_site_symmetry_2
_ccdc_geom_bond_type
C0 C1 1.351 . S
C0 N3 1.368 . S
C0 H5 0.931 . S
C1 C0 1.351 . S
C1 N2 1.373 . S
C1 H29 0.930 . S
N2 C1 1.373 . S
N2 C4 1.340 . S
N3 C0 1.368 . S
N3 C4 1.321 . S
N3 Co6 2.135 . S
C4 N2 1.340 . S
C4 N3 1.321 . S
C4 H28 0.930 . S
H5 C0 0.931 . S
Co6 N3 2.135 . S
Co6 N9 2.121 . S
Co6 O14 2.055 . S
Co6 O17 2.039 . S
Co6 N20 2.140 . S
C7 O8 1.227 . S
C7 O17 1.265 . S
O8 C7 1.227 . S
N9 Co6 2.121 . S
N9 C11 1.375 . S
N9 C12 1.313 . S
C10 C11 1.338 1_556 S
C10 N13 1.377 . S
C10 H30 0.930 . S
C11 N9 1.375 . S
C11 C10 1.338 1_554 S
C11 H15 0.931 . S
C12 N9 1.313 . S
C12 N13 1.344 1_554 S
C12 H16 0.930 1_554 S
N13 C10 1.377 . S
N13 C12 1.344 1_556 S
O14 Co6 2.055 . S
O14 C18 1.253 . S
H15 C11 0.931 . S
H16 C12 0.930 1_556 S
O17 Co6 2.039 . S
O17 C7 1.265 . S
C18 O14 1.253 . S
C18 O19 1.227 . S
O19 C18 1.227 . S
N20 Co6 2.140 . S
N20 C23 1.346 . S
N20 C24 1.345 . S
C21 C22 1.387 . S
C21 C25 1.391 . S
C22 C21 1.387 . S
C22 C23 1.369 . S
C22 H31 0.929 . S
C23 N20 1.346 . S
C23 C22 1.369 . S
C23 H26 0.928 . S
C24 N20 1.345 . S
C24 C25 1.371 . S
C24 H27 0.931 . S
C25 C21 1.391 . S
C25 C24 1.371 . S
C25 H32 0.930 . S
H26 C23 0.928 . S
H27 C24 0.931 . S
H28 C4 0.930 . S
H29 C1 0.930 . S
H30 C10 0.930 . S
H31 C22 0.929 . S
H32 C25 0.930 . S
C33 C34 1.351 . S
C33 N36 1.368 . S
C33 H38 0.931 . S
C34 C33 1.351 . S
C34 N35 1.373 . S
C34 H62 0.930 . S
N35 C34 1.373 . S
N35 C37 1.340 . S
N36 C33 1.368 . S
N36 C37 1.321 . S
N36 Co39 2.135 . S
C37 N35 1.340 . S
C37 N36 1.321 . S
C37 H61 0.930 . S
H38 C33 0.931 . S
Co39 N36 2.135 . S
Co39 N42 2.121 . S
Co39 O47 2.055 . S
Co39 O50 2.039 . S
Co39 N53 2.140 . S
C40 O41 1.227 . S
C40 O50 1.265 . S
O41 C40 1.227 . S
N42 Co39 2.121 . S
N42 C44 1.375 . S
N42 C45 1.313 . S
C43 C44 1.338 . S
C43 N46 1.377 . S
C43 H63 0.930 . S
C44 N42 1.375 . S
C44 C43 1.338 . S
C44 H48 0.931 . S
C45 N42 1.313 . S
C45 N46 1.344 . S
C45 H49 0.930 . S
N46 C43 1.377 . S
N46 C45 1.344 . S
O47 Co39 2.055 . S
O47 C51 1.253 . S
H48 C44 0.931 . S
H49 C45 0.930 . S
O50 Co39 2.039 . S
O50 C40 1.265 . S
C51 O47 1.253 . S
C51 O52 1.227 . S
O52 C51 1.227 . S
N53 Co39 2.140 . S
N53 C56 1.346 . S
N53 C57 1.345 . S
C54 C55 1.387 . S
C54 C58 1.391 . S
C55 C54 1.387 . S
C55 C56 1.369 . S
C55 H64 0.929 . S
C56 N53 1.346 . S
C56 C55 1.369 . S
C56 H59 0.928 . S
C57 N53 1.345 . S
C57 C58 1.371 . S
C57 H60 0.931 . S
C58 C54 1.391 . S
C58 C57 1.371 . S
C58 H65 0.930 . S
H59 C56 0.928 . S
H60 C57 0.931 . S
H61 C37 0.930 . S
H62 C34 0.930 . S
H63 C43 0.930 . S
H64 C55 0.929 . S
H65 C58 0.930 . S
C66 C67 1.351 . S
C66 N69 1.368 . S
C66 H71 0.931 . S
C67 C66 1.351 . S
C67 N68 1.373 . S
C67 H95 0.930 . S
N68 C67 1.373 . S
N68 C70 1.340 . S
N69 C66 1.368 . S
N69 C70 1.321 . S
N69 Co72 2.135 1_554 S
C70 N68 1.340 . S
C70 N69 1.321 . S
C70 H94 0.930 . S
H71 C66 0.931 . S
Co72 N69 2.135 1_556 S
Co72 N75 2.121 . S
Co72 O80 2.055 . S
Co72 O83 2.039 . S
Co72 N86 2.140 . S
C73 O74 1.227 . S
C73 O83 1.265 . S
O74 C73 1.227 . S
N75 Co72 2.121 . S
N75 C77 1.375 . S
N75 C78 1.313 . S
C76 C77 1.338 . S
C76 N79 1.377 . S
C76 H96 0.930 . S
C77 N75 1.375 . S
C77 C76 1.338 . S
C77 H81 0.931 . S
C78 N75 1.313 . S
C78 N79 1.344 . S
C78 H82 0.930 . S
N79 C76 1.377 . S
N79 C78 1.344 . S
O80 Co72 2.055 . S
O80 C84 1.253 . S
H81 C77 0.931 . S
H82 C78 0.930 . S
O83 Co72 2.039 . S
O83 C73 1.265 . S
C84 O80 1.253 . S
C84 O85 1.227 . S
O85 C84 1.227 . S
N86 Co72 2.140 . S
N86 C89 1.346 1_556 S
N86 C90 1.345 . S
C87 C88 1.387 1_556 S
C87 C91 1.391 . S
C88 C87 1.387 1_554 S
C88 C89 1.369 . S
C88 H97 0.929 . S
C89 N86 1.346 1_554 S
C89 C88 1.369 . S
C89 H92 0.928 . S
C90 N86 1.345 . S
C90 C91 1.371 . S
C90 H93 0.931 . S
C91 C87 1.391 . S
C91 C90 1.371 . S
C91 H98 0.930 . S
H92 C89 0.928 . S
H93 C90 0.931 . S
H94 C70 0.930 . S
H95 C67 0.930 . S
H96 C76 0.930 . S
H97 C88 0.929 . S
H98 C91 0.930 . S
C99 C100 1.351 . S
C99 N102 1.368 . S
C99 H104 0.931 . S
C100 C99 1.351 . S
C100 N101 1.373 . S
C100 H128 0.930 . S
N101 C100 1.373 . S
N101 C103 1.340 . S
N102 C99 1.368 . S
N102 C103 1.321 . S
N102 Co105 2.135 . S
C103 N101 1.340 . S
C103 N102 1.321 . S
C103 H127 0.930 . S
H104 C99 0.931 . S
Co105 N102 2.135 . S
Co105 N108 2.121 . S
Co105 O113 2.055 . S
Co105 O116 2.039 . S
Co105 N119 2.140 . S
C106 O107 1.227 . S
C106 O116 1.265 . S
O107 C106 1.227 . S
N108 Co105 2.121 . S
N108 C110 1.375 . S
N108 C111 1.313 . S
C109 C110 1.338 1_556 S
C109 N112 1.377 . S
C109 H129 0.930 . S
C110 N108 1.375 . S
C110 C109 1.338 1_554 S
C110 H114 0.931 . S
C111 N108 1.313 . S
C111 N112 1.344 1_554 S
C111 H115 0.930 1_554 S
N112 C109 1.377 . S
N112 C111 1.344 1_556 S
O113 Co105 2.055 . S
O113 C117 1.253 . S
H114 C110 0.931 . S
H115 C111 0.930 1_556 S
O116 Co105 2.039 . S
O116 C106 1.265 . S
C117 O113 1.253 . S
C117 O118 1.227 . S
O118 C117 1.227 . S
N119 Co105 2.140 . S
N119 C122 1.346 . S
N119 C123 1.345 . S
C120 C121 1.387 . S
C120 C124 1.391 . S
C121 C120 1.387 . S
C121 C122 1.369 . S
C121 H130 0.929 . S
C122 N119 1.346 . S
C122 C121 1.369 . S
C122 H125 0.928 . S
C123 N119 1.345 . S
C123 C124 1.371 . S
C123 H126 0.931 . S
C124 C120 1.391 . S
C124 C123 1.371 . S
C124 H131 0.930 . S
H125 C122 0.928 . S
H126 C123 0.931 . S
H127 C103 0.930 . S
H128 C100 0.930 . S
H129 C109 0.930 . S
H130 C121 0.929 . S
H131 C124 0.930 . S
C132 C133 1.351 . S
C132 N135 1.368 . S
C132 H137 0.931 . S
C133 C132 1.351 . S
C133 N134 1.373 . S
C133 H161 0.930 . S
N134 C133 1.373 . S
N134 C136 1.340 . S
N135 C132 1.368 . S
N135 C136 1.321 . S
N135 Co138 2.135 . S
C136 N134 1.340 . S
C136 N135 1.321 . S
C136 H160 0.930 . S
H137 C132 0.931 . S
Co138 N135 2.135 . S
Co138 N141 2.121 . S
Co138 O146 2.055 . S
Co138 O149 2.039 . S
Co138 N152 2.140 . S
C139 O140 1.227 . S
C139 O149 1.265 . S
O140 C139 1.227 . S
N141 Co138 2.121 . S
N141 C143 1.375 . S
N141 C144 1.313 . S
C142 C143 1.338 . S
C142 N145 1.377 . S
C142 H162 0.930 . S
C143 N141 1.375 . S
C143 C142 1.338 . S
C143 H147 0.931 . S
C144 N141 1.313 . S
C144 N145 1.344 . S
C144 H148 0.930 . S
N145 C142 1.377 . S
N145 C144 1.344 . S
O146 Co138 2.055 . S
O146 C150 1.253 . S
H147 C143 0.931 . S
H148 C144 0.930 . S
O149 Co138 2.039 . S
O149 C139 1.265 . S
C150 O146 1.253 . S
C150 O151 1.227 . S
O151 C150 1.227 . S
N152 Co138 2.140 . S
N152 C155 1.346 . S
N152 C156 1.345 . S
C153 C154 1.387 . S
C153 C157 1.391 . S
C154 C153 1.387 . S
C154 C155 1.369 . S
C154 H163 0.929 . S
C155 N152 1.346 . S
C155 C154 1.369 . S
C155 H158 0.928 . S
C156 N152 1.345 . S
C156 C157 1.371 . S
C156 H159 0.931 . S
C157 C153 1.391 . S
C157 C156 1.371 . S
C157 H164 0.930 . S
H158 C155 0.928 . S
H159 C156 0.931 . S
H160 C136 0.930 . S
H161 C133 0.930 . S
H162 C142 0.930 . S
H163 C154 0.929 . S
H164 C157 0.930 . S
C165 C166 1.351 . S
C165 N168 1.368 . S
C165 H170 0.931 . S
C166 C165 1.351 . S
C166 N167 1.373 . S
C166 H194 0.930 . S
N167 C166 1.373 . S
N167 C169 1.340 . S
N168 C165 1.368 . S
N168 C169 1.321 . S
N168 Co171 2.135 1_554 S
C169 N167 1.340 . S
C169 N168 1.321 . S
C169 H193 0.930 . S
H170 C165 0.931 . S
Co171 N168 2.135 1_556 S
Co171 N174 2.121 . S
Co171 O179 2.055 . S
Co171 O182 2.039 . S
Co171 N185 2.140 . S
C172 O173 1.227 . S
C172 O182 1.265 . S
O173 C172 1.227 . S
N174 Co171 2.121 . S
N174 C176 1.375 . S
N174 C177 1.313 . S
C175 C176 1.338 . S
C175 N178 1.377 . S
C175 H195 0.930 . S
C176 N174 1.375 . S
C176 C175 1.338 . S
C176 H180 0.931 . S
C177 N174 1.313 . S
C177 N178 1.344 . S
C177 H181 0.930 . S
N178 C175 1.377 . S
N178 C177 1.344 . S
O179 Co171 2.055 . S
O179 C183 1.253 . S
H180 C176 0.931 . S
H181 C177 0.930 . S
O182 Co171 2.039 . S
O182 C172 1.265 . S
C183 O179 1.253 . S
C183 O184 1.227 . S
O184 C183 1.227 . S
N185 Co171 2.140 . S
N185 C188 1.346 1_556 S
N185 C189 1.345 . S
C186 C187 1.387 1_556 S
C186 C190 1.391 . S
C187 C186 1.387 1_554 S
C187 C188 1.369 . S
C187 H196 0.929 . S
C188 N185 1.346 1_554 S
C188 C187 1.369 . S
C188 H191 0.928 . S
C189 N185 1.345 . S
C189 C190 1.371 . S
C189 H192 0.931 . S
C190 C186 1.391 . S
C190 C189 1.371 . S
C190 H197 0.930 . S
H191 C188 0.928 . S
H192 C189 0.931 . S
H193 C169 0.930 . S
H194 C166 0.930 . S
H195 C175 0.930 . S
H196 C187 0.929 . S
H197 C190 0.930 . S
C198 C199 1.351 . S
C198 N201 1.368 . S
C198 H203 0.931 . S
C199 C198 1.351 . S
C199 N200 1.373 . S
C199 H227 0.930 . S
N200 C199 1.373 . S
N200 C202 1.340 . S
N201 C198 1.368 . S
N201 C202 1.321 . S
N201 Co204 2.135 . S
C202 N200 1.340 . S
C202 N201 1.321 . S
C202 H226 0.930 . S
H203 C198 0.931 . S
Co204 N201 2.135 . S
Co204 N207 2.121 . S
Co204 O212 2.055 . S
Co204 O215 2.039 . S
Co204 N218 2.140 . S
C205 O206 1.227 . S
C205 O215 1.265 . S
O206 C205 1.227 . S
N207 Co204 2.121 . S
N207 C209 1.375 . S
N207 C210 1.313 . S
C208 C209 1.338 . S
C208 N211 1.377 . S
C208 H228 0.930 . S
C209 N207 1.375 . S
C209 C208 1.338 . S
C209 H213 0.931 . S
C210 N207 1.313 . S
C210 N211 1.344 . S
C210 H214 0.930 . S
N211 C208 1.377 . S
N211 C210 1.344 . S
O212 Co204 2.055 . S
O212 C216 1.253 . S
H213 C209 0.931 . S
H214 C210 0.930 . S
O215 Co204 2.039 . S
O215 C205 1.265 . S
C216 O212 1.253 . S
C216 O217 1.227 . S
O217 C216 1.227 . S
N218 Co204 2.140 . S
N218 C221 1.346 . S
N218 C222 1.345 . S
C219 C220 1.387 . S
C219 C223 1.391 . S
C220 C219 1.387 . S
C220 C221 1.369 . S
C220 H229 0.929 . S
C221 N218 1.346 . S
C221 C220 1.369 . S
C221 H224 0.928 . S
C222 N218 1.345 . S
C222 C223 1.371 . S
C222 H225 0.931 . S
C223 C219 1.391 . S
C223 C222 1.371 . S
C223 H230 0.930 . S
H224 C221 0.928 . S
H225 C222 0.931 . S
H226 C202 0.930 . S
H227 C199 0.930 . S
H228 C208 0.930 . S
H229 C220 0.929 . S
H230 C223 0.930 . S
C231 C232 1.351 . S
C231 N234 1.368 . S
C231 H236 0.931 . S
C232 C231 1.351 . S
C232 N233 1.373 . S
C232 H260 0.930 . S
N233 C232 1.373 . S
N233 C235 1.340 . S
N234 C231 1.368 . S
N234 C235 1.321 . S
N234 Co237 2.135 . S
C235 N233 1.340 . S
C235 N234 1.321 . S
C235 H259 0.930 . S
H236 C231 0.931 . S
Co237 N234 2.135 . S
Co237 N240 2.121 . S
Co237 O245 2.055 . S
Co237 O248 2.039 . S
Co237 N251 2.140 . S
C238 O239 1.227 . S
C238 O248 1.265 . S
O239 C238 1.227 . S
N240 Co237 2.121 . S
N240 C242 1.375 . S
N240 C243 1.313 . S
C241 C242 1.338 1_554 S
C241 N244 1.377 . S
C241 H261 0.930 . S
C242 N240 1.375 . S
C242 C241 1.338 1_556 S
C242 H246 0.931 . S
C243 N240 1.313 . S
C243 N244 1.344 1_556 S
C243 H247 0.930 1_556 S
N244 C241 1.377 . S
N244 C243 1.344 1_554 S
O245 Co237 2.055 . S
O245 C249 1.253 . S
H246 C242 0.931 . S
H247 C243 0.930 1_554 S
O248 Co237 2.039 . S
O248 C238 1.265 . S
C249 O245 1.253 . S
C249 O250 1.227 . S
O250 C249 1.227 . S
N251 Co237 2.140 . S
N251 C254 1.346 . S
N251 C255 1.345 . S
C252 C253 1.387 . S
C252 C256 1.391 . S
C253 C252 1.387 . S
C253 C254 1.369 . S
C253 H262 0.929 . S
C254 N251 1.346 . S
C254 C253 1.369 . S
C254 H257 0.928 . S
C255 N251 1.345 . S
C255 C256 1.371 . S
C255 H258 0.931 . S
C256 C252 1.391 . S
C256 C255 1.371 . S
C256 H263 0.930 . S
H257 C254 0.928 . S
H258 C255 0.931 . S
H259 C235 0.930 . S
H260 C232 0.930 . S
H261 C241 0.930 . S
H262 C253 0.929 . S
H263 C256 0.930 . S
C264 C265 1.351 . S
C264 N267 1.368 . S
C264 H269 0.931 . S
C265 C264 1.351 . S
C265 N266 1.373 . S
C265 H293 0.930 . S
N266 C265 1.373 . S
N266 C268 1.340 . S
N267 C264 1.368 . S
N267 C268 1.321 . S
N267 Co270 2.135 1_556 S
C268 N266 1.340 . S
C268 N267 1.321 . S
C268 H292 0.930 . S
H269 C264 0.931 . S
Co270 N267 2.135 1_554 S
Co270 N273 2.121 . S
Co270 O278 2.055 . S
Co270 O281 2.039 . S
Co270 N284 2.140 . S
C271 O272 1.227 . S
C271 O281 1.265 . S
O272 C271 1.227 . S
N273 Co270 2.121 . S
N273 C275 1.375 . S
N273 C276 1.313 . S
C274 C275 1.338 . S
C274 N277 1.377 . S
C274 H294 0.930 . S
C275 N273 1.375 . S
C275 C274 1.338 . S
C275 H279 0.931 . S
C276 N273 1.313 . S
C276 N277 1.344 . S
C276 H280 0.930 . S
N277 C274 1.377 . S
N277 C276 1.344 . S
O278 Co270 2.055 . S
O278 C282 1.253 . S
H279 C275 0.931 . S
H280 C276 0.930 . S
O281 Co270 2.039 . S
O281 C271 1.265 . S
C282 O278 1.253 . S
C282 O283 1.227 . S
O283 C282 1.227 . S
N284 Co270 2.140 . S
N284 C287 1.346 1_554 S
N284 C288 1.345 . S
C285 C286 1.387 1_554 S
C285 C289 1.391 . S
C286 C285 1.387 1_556 S
C286 C287 1.369 . S
C286 H295 0.929 . S
C287 N284 1.346 1_556 S
C287 C286 1.369 . S
C287 H290 0.928 . S
C288 N284 1.345 . S
C288 C289 1.371 . S
C288 H291 0.931 . S
C289 C285 1.391 . S
C289 C288 1.371 . S
C289 H296 0.930 . S
H290 C287 0.928 . S
H291 C288 0.931 . S
H292 C268 0.930 . S
H293 C265 0.930 . S
H294 C274 0.930 . S
H295 C286 0.929 . S
H296 C289 0.930 . S
C297 C298 1.351 . S
C297 N300 1.368 . S
C297 H302 0.931 . S
C298 C297 1.351 . S
C298 N299 1.373 . S
C298 H326 0.930 . S
N299 C298 1.373 . S
N299 C301 1.340 . S
N300 C297 1.368 . S
N300 C301 1.321 . S
N300 Co303 2.135 . S
C301 N299 1.340 . S
C301 N300 1.321 . S
C301 H325 0.930 . S
H302 C297 0.931 . S
Co303 N300 2.135 . S
Co303 N306 2.121 . S
Co303 O311 2.055 . S
Co303 O314 2.039 . S
Co303 N317 2.140 . S
C304 O305 1.227 . S
C304 O314 1.265 . S
O305 C304 1.227 . S
N306 Co303 2.121 . S
N306 C308 1.375 . S
N306 C309 1.313 . S
C307 C308 1.338 . S
C307 N310 1.377 . S
C307 H327 0.930 . S
C308 N306 1.375 . S
C308 C307 1.338 . S
C308 H312 0.931 . S
C309 N306 1.313 . S
C309 N310 1.344 . S
C309 H313 0.930 . S
N310 C307 1.377 . S
N310 C309 1.344 . S
O311 Co303 2.055 . S
O311 C315 1.253 . S
H312 C308 0.931 . S
H313 C309 0.930 . S
O314 Co303 2.039 . S
O314 C304 1.265 . S
C315 O311 1.253 . S
C315 O316 1.227 . S
O316 C315 1.227 . S
N317 Co303 2.140 . S
N317 C320 1.346 . S
N317 C321 1.345 . S
C318 C319 1.387 . S
C318 C322 1.391 . S
C319 C318 1.387 . S
C319 C320 1.369 . S
C319 H328 0.929 . S
C320 N317 1.346 . S
C320 C319 1.369 . S
C320 H323 0.928 . S
C321 N317 1.345 . S
C321 C322 1.371 . S
C321 H324 0.931 . S
C322 C318 1.391 . S
C322 C321 1.371 . S
C322 H329 0.930 . S
H323 C320 0.928 . S
H324 C321 0.931 . S
H325 C301 0.930 . S
H326 C298 0.930 . S
H327 C307 0.930 . S
H328 C319 0.929 . S
H329 C322 0.930 . S
C330 C331 1.351 . S
C330 N333 1.368 . S
C330 H335 0.931 . S
C331 C330 1.351 . S
C331 N332 1.373 . S
C331 H359 0.930 . S
N332 C331 1.373 . S
N332 C334 1.340 . S
N333 C330 1.368 . S
N333 C334 1.321 . S
N333 Co336 2.135 . S
C334 N332 1.340 . S
C334 N333 1.321 . S
C334 H358 0.930 . S
H335 C330 0.931 . S
Co336 N333 2.135 . S
Co336 N339 2.121 . S
Co336 O344 2.055 . S
Co336 O347 2.039 . S
Co336 N350 2.140 . S
C337 O338 1.227 . S
C337 O347 1.265 . S
O338 C337 1.227 . S
N339 Co336 2.121 . S
N339 C341 1.375 . S
N339 C342 1.313 . S
C340 C341 1.338 1_554 S
C340 N343 1.377 . S
C340 H360 0.930 . S
C341 N339 1.375 . S
C341 C340 1.338 1_556 S
C341 H345 0.931 . S
C342 N339 1.313 . S
C342 N343 1.344 1_556 S
C342 H346 0.930 1_556 S
N343 C340 1.377 . S
N343 C342 1.344 1_554 S
O344 Co336 2.055 . S
O344 C348 1.253 . S
H345 C341 0.931 . S
H346 C342 0.930 1_554 S
O347 Co336 2.039 . S
O347 C337 1.265 . S
C348 O344 1.253 . S
C348 O349 1.227 . S
O349 C348 1.227 . S
N350 Co336 2.140 . S
N350 C353 1.346 . S
N350 C354 1.345 . S
C351 C352 1.387 . S
C351 C355 1.391 . S
C352 C351 1.387 . S
C352 C353 1.369 . S
C352 H361 0.929 . S
C353 N350 1.346 . S
C353 C352 1.369 . S
C353 H356 0.928 . S
C354 N350 1.345 . S
C354 C355 1.371 . S
C354 H357 0.931 . S
C355 C351 1.391 . S
C355 C354 1.371 . S
C355 H362 0.930 . S
H356 C353 0.928 . S
H357 C354 0.931 . S
H358 C334 0.930 . S
H359 C331 0.930 . S
H360 C340 0.930 . S
H361 C352 0.929 . S
H362 C355 0.930 . S
C363 C364 1.351 . S
C363 N366 1.368 . S
C363 H368 0.931 . S
C364 C363 1.351 . S
C364 N365 1.373 . S
C364 H392 0.930 . S
N365 C364 1.373 . S
N365 C367 1.340 . S
N366 C363 1.368 . S
N366 C367 1.321 . S
N366 Co369 2.135 1_556 S
C367 N365 1.340 . S
C367 N366 1.321 . S
C367 H391 0.930 . S
H368 C363 0.931 . S
Co369 N366 2.135 1_554 S
Co369 N372 2.121 . S
Co369 O377 2.055 . S
Co369 O380 2.039 . S
Co369 N383 2.140 . S
C370 O371 1.227 . S
C370 O380 1.265 . S
O371 C370 1.227 . S
N372 Co369 2.121 . S
N372 C374 1.375 . S
N372 C375 1.313 . S
C373 C374 1.338 . S
C373 N376 1.377 . S
C373 H393 0.930 . S
C374 N372 1.375 . S
C374 C373 1.338 . S
C374 H378 0.931 . S
C375 N372 1.313 . S
C375 N376 1.344 . S
C375 H379 0.930 . S
N376 C373 1.377 . S
N376 C375 1.344 . S
O377 Co369 2.055 . S
O377 C381 1.253 . S
H378 C374 0.931 . S
H379 C375 0.930 . S
O380 Co369 2.039 . S
O380 C370 1.265 . S
C381 O377 1.253 . S
C381 O382 1.227 . S
O382 C381 1.227 . S
N383 Co369 2.140 . S
N383 C386 1.346 1_554 S
N383 C387 1.345 . S
C384 C385 1.387 1_554 S
C384 C388 1.391 . S
C385 C384 1.387 1_556 S
C385 C386 1.369 . S
C385 H394 0.929 . S
C386 N383 1.346 1_556 S
C386 C385 1.369 . S
C386 H389 0.928 . S
C387 N383 1.345 . S
C387 C388 1.371 . S
C387 H390 0.931 . S
C388 C384 1.391 . S
C388 C387 1.371 . S
C388 H395 0.930 . S
H389 C386 0.928 . S
H390 C387 0.931 . S
H391 C367 0.930 . S
H392 C364 0.930 . S
H393 C373 0.930 . S
H394 C385 0.929 . S
H395 C388 0.930 . S
C396 C397 1.363 . S
C396 C402 1.379 1_554 S
C396 N404 1.356 . S
C397 C396 1.363 . S
C397 C403 1.363 . S
C398 C399 1.363 . S
C398 C403 1.379 1_556 S
C398 N405 1.356 . S
C399 C398 1.363 . S
C399 C402 1.363 . S
N400 C402 1.356 . S
N400 H412 0.984 . S
N400 H413 0.985 . S
N401 C403 1.356 . S
N401 H406 0.984 . S
N401 H407 0.985 . S
C402 C396 1.379 1_556 S
C402 C399 1.363 . S
C402 N400 1.356 . S
C403 C397 1.363 . S
C403 C398 1.379 1_554 S
C403 N401 1.356 . S
N404 C396 1.356 . S
N404 H410 0.984 . S
N404 H411 0.984 . S
N405 C398 1.356 . S
N405 H408 0.984 . S
N405 H409 0.985 . S
H406 N401 0.984 . S
H407 N401 0.985 . S
H408 N405 0.984 . S
H409 N405 0.985 . S
H410 N404 0.984 . S
H411 N404 0.984 . S
H412 N400 0.984 . S
H413 N400 0.985 . S
C414 C415 1.363 . S
C414 C420 1.379 . S
C414 N422 1.356 . S
C415 C414 1.363 . S
C415 C421 1.363 . S
C416 C417 1.363 . S
C416 C421 1.379 . S
C416 N423 1.356 . S
C417 C416 1.363 . S
C417 C420 1.363 . S
N418 C420 1.356 . S
N418 H430 0.984 . S
N418 H431 0.985 . S
N419 C421 1.356 . S
N419 H424 0.984 . S
N419 H425 0.985 . S
C420 C414 1.379 . S
C420 C417 1.363 . S
C420 N418 1.356 . S
C421 C415 1.363 . S
C421 C416 1.379 . S
C421 N419 1.356 . S
N422 C414 1.356 . S
N422 H428 0.984 . S
N422 H429 0.984 . S
N423 C416 1.356 . S
N423 H426 0.984 . S
N423 H427 0.985 . S
H424 N419 0.984 . S
H425 N419 0.985 . S
H426 N423 0.984 . S
H427 N423 0.985 . S
H428 N422 0.984 . S
H429 N422 0.984 . S
H430 N418 0.984 . S
H431 N418 0.985 . S
C432 C433 1.363 . S
C432 C438 1.379 . S
C432 N440 1.356 . S
C433 C432 1.363 . S
C433 C439 1.363 . S
C434 C435 1.363 . S
C434 C439 1.379 . S
C434 N441 1.356 . S
C435 C434 1.363 . S
C435 C438 1.363 . S
N436 C438 1.356 . S
N436 H448 0.984 . S
N436 H449 0.985 . S
N437 C439 1.356 . S
N437 H442 0.984 . S
N437 H443 0.985 . S
C438 C432 1.379 . S
C438 C435 1.363 . S
C438 N436 1.356 . S
C439 C433 1.363 . S
C439 C434 1.379 . S
C439 N437 1.356 . S
N440 C432 1.356 . S
N440 H446 0.984 . S
N440 H447 0.984 . S
N441 C434 1.356 . S
N441 H444 0.984 . S
N441 H445 0.985 . S
H442 N437 0.984 . S
H443 N437 0.985 . S
H444 N441 0.984 . S
H445 N441 0.985 . S
H446 N440 0.984 . S
H447 N440 0.984 . S
H448 N436 0.984 . S
H449 N436 0.985 . S
C450 C451 1.363 . S
C450 C456 1.379 1_556 S
C450 N458 1.356 . S
C451 C450 1.363 . S
C451 C457 1.363 . S
C452 C453 1.363 . S
C452 C457 1.379 1_554 S
C452 N459 1.356 . S
C453 C452 1.363 . S
C453 C456 1.363 . S
N454 C456 1.356 . S
N454 H466 0.984 . S
N454 H467 0.985 . S
N455 C457 1.356 . S
N455 H460 0.984 . S
N455 H461 0.985 . S
C456 C450 1.379 1_554 S
C456 C453 1.363 . S
C456 N454 1.356 . S
C457 C451 1.363 . S
C457 C452 1.379 1_556 S
C457 N455 1.356 . S
N458 C450 1.356 . S
N458 H464 0.984 . S
N458 H465 0.984 . S
N459 C452 1.356 . S
N459 H462 0.984 . S
N459 H463 0.985 . S
H460 N455 0.984 . S
H461 N455 0.985 . S
H462 N459 0.984 . S
H463 N459 0.985 . S
H464 N458 0.984 . S
H465 N458 0.984 . S
H466 N454 0.984 . S
H467 N454 0.985 . S
C468 C469 1.363 . S
C468 C474 1.379 . S
C468 N476 1.356 . S
C469 C468 1.363 . S
C469 C475 1.363 . S
C470 C471 1.363 . S
C470 C475 1.379 . S
C470 N477 1.356 . S
C471 C470 1.363 . S
C471 C474 1.363 . S
N472 C474 1.356 . S
N472 H484 0.984 . S
N472 H485 0.985 . S
N473 C475 1.356 . S
N473 H478 0.984 . S
N473 H479 0.985 . S
C474 C468 1.379 . S
C474 C471 1.363 . S
C474 N472 1.356 . S
C475 C469 1.363 . S
C475 C470 1.379 . S
C475 N473 1.356 . S
N476 C468 1.356 . S
N476 H482 0.984 . S
N476 H483 0.984 . S
N477 C470 1.356 . S
N477 H480 0.984 . S
N477 H481 0.985 . S
H478 N473 0.984 . S
H479 N473 0.985 . S
H480 N477 0.984 . S
H481 N477 0.985 . S
H482 N476 0.984 . S
H483 N476 0.984 . S
H484 N472 0.984 . S
H485 N472 0.985 . S
C486 C487 1.363 . S
C486 C492 1.379 . S
C486 N494 1.356 . S
C487 C486 1.363 . S
C487 C493 1.363 . S
C488 C489 1.363 . S
C488 C493 1.379 . S
C488 N495 1.356 . S
C489 C488 1.363 . S
C489 C492 1.363 . S
N490 C492 1.356 . S
N490 H502 0.984 . S
N490 H503 0.985 . S
N491 C493 1.356 . S
N491 H496 0.984 . S
N491 H497 0.985 . S
C492 C486 1.379 . S
C492 C489 1.363 . S
C492 N490 1.356 . S
C493 C487 1.363 . S
C493 C488 1.379 . S
C493 N491 1.356 . S
N494 C486 1.356 . S
N494 H500 0.984 . S
N494 H501 0.984 . S
N495 C488 1.356 . S
N495 H498 0.984 . S
N495 H499 0.985 . S
H496 N491 0.984 . S
H497 N491 0.985 . S
H498 N495 0.984 . S
H499 N495 0.985 . S
H500 N494 0.984 . S
H501 N494 0.984 . S
H502 N490 0.984 . S
H503 N490 0.985 . S
C504 C505 1.363 . S
C504 C510 1.379 . S
C504 N512 1.356 . S
C505 C504 1.363 . S
C505 C511 1.363 . S
C506 C507 1.363 . S
C506 C511 1.379 . S
C506 N513 1.356 . S
C507 C506 1.363 . S
C507 C510 1.363 . S
N508 C510 1.356 . S
N508 H520 0.984 . S
N508 H521 0.985 . S
N509 C511 1.356 . S
N509 H514 0.984 . S
N509 H515 0.985 . S
C510 C504 1.379 . S
C510 C507 1.363 . S
C510 N508 1.356 . S
C511 C505 1.363 . S
C511 C506 1.379 . S
C511 N509 1.356 . S
N512 C504 1.356 . S
N512 H518 0.984 . S
N512 H519 0.984 . S
N513 C506 1.356 . S
N513 H516 0.984 . S
N513 H517 0.985 . S
H514 N509 0.984 . S
H515 N509 0.985 . S
H516 N513 0.984 . S
H517 N513 0.985 . S
H518 N512 0.984 . S
H519 N512 0.984 . S
H520 N508 0.984 . S
H521 N508 0.985 . S
C522 C523 1.363 . S
C522 C528 1.379 . S
C522 N530 1.356 . S
C523 C522 1.363 . S
C523 C529 1.363 . S
C524 C525 1.363 . S
C524 C529 1.379 . S
C524 N531 1.356 . S
C525 C524 1.363 . S
C525 C528 1.363 . S
N526 C528 1.356 . S
N526 H538 0.984 . S
N526 H539 0.985 . S
N527 C529 1.356 . S
N527 H532 0.984 . S
N527 H533 0.985 . S
C528 C522 1.379 . S
C528 C525 1.363 . S
C528 N526 1.356 . S
C529 C523 1.363 . S
C529 C524 1.379 . S
C529 N527 1.356 . S
N530 C522 1.356 . S
N530 H536 0.984 . S
N530 H537 0.984 . S
N531 C524 1.356 . S
N531 H534 0.984 . S
N531 H535 0.985 . S
H532 N527 0.984 . S
H533 N527 0.985 . S
H534 N531 0.984 . S
H535 N531 0.985 . S
H536 N530 0.984 . S
H537 N530 0.984 . S
H538 N526 0.984 . S
H539 N526 0.985 . S
C540 C541 1.363 1_554 S
C540 C546 1.379 . S
C540 N548 1.356 . S
C541 C540 1.363 1_556 S
C541 C547 1.363 . S
C542 C543 1.363 1_556 S
C542 C547 1.379 . S
C542 N549 1.356 . S
C543 C542 1.363 1_554 S
C543 C546 1.363 . S
N544 C546 1.356 . S
N544 H556 0.984 . S
N544 H557 0.985 . S
N545 C547 1.356 . S
N545 H550 0.984 . S
N545 H551 0.985 . S
C546 C540 1.379 . S
C546 C543 1.363 . S
C546 N544 1.356 . S
C547 C541 1.363 . S
C547 C542 1.379 . S
C547 N545 1.356 . S
N548 C540 1.356 . S
N548 H554 0.984 . S
N548 H555 0.984 . S
N549 C542 1.356 . S
N549 H552 0.984 . S
N549 H553 0.985 . S
H550 N545 0.984 . S
H551 N545 0.985 . S
H552 N549 0.984 . S
H553 N549 0.985 . S
H554 N548 0.984 . S
H555 N548 0.984 . S
H556 N544 0.984 . S
H557 N544 0.985 . S
C558 C559 1.363 . S
C558 C564 1.379 . S
C558 N566 1.356 . S
C559 C558 1.363 . S
C559 C565 1.363 . S
C560 C561 1.363 . S
C560 C565 1.379 . S
C560 N567 1.356 . S
C561 C560 1.363 . S
C561 C564 1.363 . S
N562 C564 1.356 . S
N562 H574 0.984 . S
N562 H575 0.985 . S
N563 C565 1.356 . S
N563 H568 0.984 . S
N563 H569 0.985 . S
C564 C558 1.379 . S
C564 C561 1.363 . S
C564 N562 1.356 . S
C565 C559 1.363 . S
C565 C560 1.379 . S
C565 N563 1.356 . S
N566 C558 1.356 . S
N566 H572 0.984 . S
N566 H573 0.984 . S
N567 C560 1.356 . S
N567 H570 0.984 . S
N567 H571 0.985 . S
H568 N563 0.984 . S
H569 N563 0.985 . S
H570 N567 0.984 . S
H571 N567 0.985 . S
H572 N566 0.984 . S
H573 N566 0.984 . S
H574 N562 0.984 . S
H575 N562 0.985 . S
C576 C577 1.363 . S
C576 C582 1.379 . S
C576 N584 1.356 . S
C577 C576 1.363 . S
C577 C583 1.363 . S
C578 C579 1.363 . S
C578 C583 1.379 . S
C578 N585 1.356 . S
C579 C578 1.363 . S
C579 C582 1.363 . S
N580 C582 1.356 . S
N580 H592 0.984 . S
N580 H593 0.985 . S
N581 C583 1.356 . S
N581 H586 0.984 . S
N581 H587 0.985 . S
C582 C576 1.379 . S
C582 C579 1.363 . S
C582 N580 1.356 . S
C583 C577 1.363 . S
C583 C578 1.379 . S
C583 N581 1.356 . S
N584 C576 1.356 . S
N584 H590 0.984 . S
N584 H591 0.984 . S
N585 C578 1.356 . S
N585 H588 0.984 . S
N585 H589 0.985 . S
H586 N581 0.984 . S
H587 N581 0.985 . S
H588 N585 0.984 . S
H589 N585 0.985 . S
H590 N584 0.984 . S
H591 N584 0.984 . S
H592 N580 0.984 . S
H593 N580 0.985 . S
C594 C595 1.363 . S
C594 C600 1.379 . S
C594 N602 1.356 . S
C595 C594 1.363 . S
C595 C601 1.363 1_554 S
C596 C597 1.363 . S
C596 C601 1.379 . S
C596 N603 1.356 . S
C597 C596 1.363 . S
C597 C600 1.363 1_556 S
N598 C600 1.356 . S
N598 H610 0.984 . S
N598 H611 0.985 . S
N599 C601 1.356 . S
N599 H604 0.984 . S
N599 H605 0.985 . S
C600 C594 1.379 . S
C600 C597 1.363 1_554 S
C600 N598 1.356 . S
C601 C595 1.363 1_556 S
C601 C596 1.379 . S
C601 N599 1.356 . S
N602 C594 1.356 . S
N602 H608 0.984 . S
N602 H609 0.984 . S
N603 C596 1.356 . S
N603 H606 0.984 . S
N603 H607 0.985 . S
H604 N599 0.984 . S
H605 N599 0.985 . S
H606 N603 0.984 . S
H607 N603 0.985 . S
H608 N602 0.984 . S
H609 N602 0.984 . S
H610 N598 0.984 . S
H611 N598 0.985 . S
C612 C613 1.363 . S
C612 C618 1.379 . S
C612 N620 1.356 . S
C613 C612 1.363 . S
C613 C619 1.363 . S
C614 C615 1.363 . S
C614 C619 1.379 . S
C614 N621 1.356 . S
C615 C614 1.363 . S
C615 C618 1.363 . S
N616 C618 1.356 . S
N616 H628 0.984 . S
N616 H629 0.985 . S
N617 C619 1.356 . S
N617 H622 0.984 . S
N617 H623 0.985 . S
C618 C612 1.379 . S
C618 C615 1.363 . S
C618 N616 1.356 . S
C619 C613 1.363 . S
C619 C614 1.379 . S
C619 N617 1.356 . S
N620 C612 1.356 . S
N620 H626 0.984 . S
N620 H627 0.984 . S
N621 C614 1.356 . S
N621 H624 0.984 . S
N621 H625 0.985 . S
H622 N617 0.984 . S
H623 N617 0.985 . S
H624 N621 0.984 . S
H625 N621 0.985 . S
H626 N620 0.984 . S
H627 N620 0.984 . S
H628 N616 0.984 . S
H629 N616 0.985 . S
C630 C631 1.363 . S
C630 C636 1.379 1_455 S
C630 N638 1.356 . S
C631 C630 1.363 . S
C631 C637 1.363 . S
C632 C633 1.363 . S
C632 C637 1.379 1_655 S
C632 N639 1.356 . S
C633 C632 1.363 . S
C633 C636 1.363 . S
N634 C636 1.356 . S
N634 H646 0.984 . S
N634 H647 0.985 . S
N635 C637 1.356 . S
N635 H640 0.984 . S
N635 H641 0.985 . S
C636 C630 1.379 1_655 S
C636 C633 1.363 . S
C636 N634 1.356 . S
C637 C631 1.363 . S
C637 C632 1.379 1_455 S
C637 N635 1.356 . S
N638 C630 1.356 . S
N638 H644 0.984 . S
N638 H645 0.984 . S
N639 C632 1.356 . S
N639 H642 0.984 . S
N639 H643 0.985 . S
H640 N635 0.984 . S
H641 N635 0.985 . S
H642 N639 0.984 . S
H643 N639 0.985 . S
H644 N638 0.984 . S
H645 N638 0.984 . S
H646 N634 0.984 . S
H647 N634 0.985 . S
C648 C649 1.363 . S
C648 C654 1.379 1_545 S
C648 N656 1.356 . S
C649 C648 1.363 . S
C649 C655 1.363 1_554 S
C650 C651 1.363 . S
C650 C655 1.379 1_565 S
C650 N657 1.356 . S
C651 C650 1.363 . S
C651 C654 1.363 1_556 S
N652 C654 1.356 . S
N652 H664 0.984 . S
N652 H665 0.985 . S
N653 C655 1.356 . S
N653 H658 0.984 . S
N653 H659 0.985 . S
C654 C648 1.379 1_565 S
C654 C651 1.363 1_554 S
C654 N652 1.356 . S
C655 C649 1.363 1_556 S
C655 C650 1.379 1_545 S
C655 N653 1.356 . S
N656 C648 1.356 . S
N656 H662 0.984 . S
N656 H663 0.984 . S
N657 C650 1.356 . S
N657 H660 0.984 . S
N657 H661 0.985 . S
H658 N653 0.984 . S
H659 N653 0.985 . S
H660 N657 0.984 . S
H661 N657 0.985 . S
H662 N656 0.984 . S
H663 N656 0.984 . S
H664 N652 0.984 . S
H665 N652 0.985 . S
C666 C667 1.363 . S
C666 C672 1.379 . S
C666 N674 1.356 . S
C667 C666 1.363 . S
C667 C673 1.363 . S
C668 C669 1.363 . S
C668 C673 1.379 . S
C668 N675 1.356 . S
C669 C668 1.363 . S
C669 C672 1.363 . S
N670 C672 1.356 . S
N670 H682 0.984 . S
N670 H683 0.985 . S
N671 C673 1.356 . S
N671 H676 0.984 . S
N671 H677 0.985 . S
C672 C666 1.379 . S
C672 C669 1.363 . S
C672 N670 1.356 . S
C673 C667 1.363 . S
C673 C668 1.379 . S
C673 N671 1.356 . S
N674 C666 1.356 . S
N674 H680 0.984 . S
N674 H681 0.984 . S
N675 C668 1.356 . S
N675 H678 0.984 . S
N675 H679 0.985 . S
H676 N671 0.984 . S
H677 N671 0.985 . S
H678 N675 0.984 . S
H679 N675 0.985 . S
H680 N674 0.984 . S
H681 N674 0.984 . S
H682 N670 0.984 . S
H683 N670 0.985 . S
C684 C685 1.363 . S
C684 C690 1.379 1_455 S
C684 N692 1.356 . S
C685 C684 1.363 . S
C685 C691 1.363 . S
C686 C687 1.363 . S
C686 C691 1.379 1_655 S
C686 N693 1.356 . S
C687 C686 1.363 . S
C687 C690 1.363 . S
N688 C690 1.356 . S
N688 H700 0.984 . S
N688 H701 0.985 . S
N689 C691 1.356 . S
N689 H694 0.984 . S
N689 H695 0.985 . S
C690 C684 1.379 1_655 S
C690 C687 1.363 . S
C690 N688 1.356 . S
C691 C685 1.363 . S
C691 C686 1.379 1_455 S
C691 N689 1.356 . S
N692 C684 1.356 . S
N692 H698 0.984 . S
N692 H699 0.984 . S
N693 C686 1.356 . S
N693 H696 0.984 . S
N693 H697 0.985 . S
H694 N689 0.984 . S
H695 N689 0.985 . S
H696 N693 0.984 . S
H697 N693 0.985 . S
H698 N692 0.984 . S
H699 N692 0.984 . S
H700 N688 0.984 . S
H701 N688 0.985 . S
C702 C703 1.363 1_554 S
C702 C708 1.379 1_545 S
C702 N710 1.356 . S
C703 C702 1.363 1_556 S
C703 C709 1.363 . S
C704 C705 1.363 1_556 S
C704 C709 1.379 1_565 S
C704 N711 1.356 . S
C705 C704 1.363 1_554 S
C705 C708 1.363 . S
N706 C708 1.356 . S
N706 H718 0.984 . S
N706 H719 0.985 . S
N707 C709 1.356 . S
N707 H712 0.984 . S
N707 H713 0.985 . S
C708 C702 1.379 1_565 S
C708 C705 1.363 . S
C708 N706 1.356 . S
C709 C703 1.363 . S
C709 C704 1.379 1_545 S
C709 N707 1.356 . S
N710 C702 1.356 . S
N710 H716 0.984 . S
N710 H717 0.984 . S
N711 C704 1.356 . S
N711 H714 0.984 . S
N711 H715 0.985 . S
H712 N707 0.984 . S
H713 N707 0.985 . S
H714 N711 0.984 . S
H715 N711 0.985 . S
H716 N710 0.984 . S
H717 N710 0.984 . S
H718 N706 0.984 . S
H719 N706 0.985 . S
C720 C721 1.363 . S
C720 C726 1.379 . S
C720 N728 1.356 . S
C721 C720 1.363 . S
C721 C727 1.363 . S
C722 C723 1.363 . S
C722 C727 1.379 . S
C722 N729 1.356 . S
C723 C722 1.363 . S
C723 C726 1.363 . S
N724 C726 1.356 . S
N724 H736 0.984 . S
N724 H737 0.985 . S
N725 C727 1.356 . S
N725 H730 0.984 . S
N725 H731 0.985 . S
C726 C720 1.379 . S
C726 C723 1.363 . S
C726 N724 1.356 . S
C727 C721 1.363 . S
C727 C722 1.379 . S
C727 N725 1.356 . S
N728 C720 1.356 . S
N728 H734 0.984 . S
N728 H735 0.984 . S
N729 C722 1.356 . S
N729 H732 0.984 . S
N729 H733 0.985 . S
H730 N725 0.984 . S
H731 N725 0.985 . S
H732 N729 0.984 . S
H733 N729 0.985 . S
H734 N728 0.984 . S
H735 N728 0.984 . S
H736 N724 0.984 . S
H737 N724 0.985 . S
C738 C739 1.363 . S
C738 C744 1.379 . S
C738 N746 1.356 . S
C739 C738 1.363 . S
C739 C745 1.363 . S
C740 C741 1.363 1_554 S
C740 C745 1.379 . S
C740 N747 1.356 1_554 S
C741 C740 1.363 1_556 S
C741 C744 1.363 1_556 S
N742 C744 1.356 1_556 S
N742 H754 0.984 1_556 S
N742 H755 0.985 . S
N743 C745 1.356 . S
N743 H748 0.984 . S
N743 H749 0.985 . S
C744 C738 1.379 . S
C744 C741 1.363 1_554 S
C744 N742 1.356 1_554 S
C745 C739 1.363 . S
C745 C740 1.379 . S
C745 N743 1.356 . S
N746 C738 1.356 . S
N746 H752 0.984 . S
N746 H753 0.984 . S
N747 C740 1.356 1_556 S
N747 H750 0.984 . S
N747 H751 0.985 . S
H748 N743 0.984 . S
H749 N743 0.985 . S
H750 N747 0.984 . S
H751 N747 0.985 . S
H752 N746 0.984 . S
H753 N746 0.984 . S
H754 N742 0.984 1_554 S
H755 N742 0.985 . S
C756 C757 1.363 . S
C756 C762 1.379 . S
C756 N764 1.356 . S
C757 C756 1.363 . S
C757 C763 1.363 . S
C758 C759 1.363 . S
C758 C763 1.379 . S
C758 N765 1.356 . S
C759 C758 1.363 . S
C759 C762 1.363 . S
N760 C762 1.356 . S
N760 H772 0.984 . S
N760 H773 0.985 . S
N761 C763 1.356 . S
N761 H766 0.984 . S
N761 H767 0.985 . S
C762 C756 1.379 . S
C762 C759 1.363 . S
C762 N760 1.356 . S
C763 C757 1.363 . S
C763 C758 1.379 . S
C763 N761 1.356 . S
N764 C756 1.356 . S
N764 H770 0.984 . S
N764 H771 0.984 . S
N765 C758 1.356 . S
N765 H768 0.984 . S
N765 H769 0.985 . S
H766 N761 0.984 . S
H767 N761 0.985 . S
H768 N765 0.984 . S
H769 N765 0.985 . S
H770 N764 0.984 . S
H771 N764 0.984 . S
H772 N760 0.984 . S
H773 N760 0.985 . S
C774 C775 1.363 . S
C774 C780 1.379 . S
C774 N782 1.356 . S
C775 C774 1.363 . S
C775 C781 1.363 . S
C776 C777 1.363 . S
C776 C781 1.379 . S
C776 N783 1.356 . S
C777 C776 1.363 . S
C777 C780 1.363 . S
N778 C780 1.356 . S
N778 H790 0.984 . S
N778 H791 0.985 . S
N779 C781 1.356 . S
N779 H784 0.984 . S
N779 H785 0.985 . S
C780 C774 1.379 . S
C780 C777 1.363 . S
C780 N778 1.356 . S
C781 C775 1.363 . S
C781 C776 1.379 . S
C781 N779 1.356 . S
N782 C774 1.356 . S
N782 H788 0.984 . S
N782 H789 0.984 . S
N783 C776 1.356 . S
N783 H786 0.984 . S
N783 H787 0.985 . S
H784 N779 0.984 . S
H785 N779 0.985 . S
H786 N783 0.984 . S
H787 N783 0.985 . S
H788 N782 0.984 . S
H789 N782 0.984 . S
H790 N778 0.984 . S
H791 N778 0.985 . S
C792 C793 1.363 . S
C792 C798 1.379 . S
C792 N800 1.356 . S
C793 C792 1.363 . S
C793 C799 1.363 . S
C794 C795 1.363 1_554 S
C794 C799 1.379 . S
C794 N801 1.356 1_554 S
C795 C794 1.363 1_556 S
C795 C798 1.363 1_556 S
N796 C798 1.356 1_556 S
N796 H808 0.984 . S
N796 H809 0.985 . S
N797 C799 1.356 . S
N797 H802 0.984 . S
N797 H803 0.985 . S
C798 C792 1.379 . S
C798 C795 1.363 1_554 S
C798 N796 1.356 1_554 S
C799 C793 1.363 . S
C799 C794 1.379 . S
C799 N797 1.356 . S
N800 C792 1.356 . S
N800 H806 0.984 . S
N800 H807 0.984 . S
N801 C794 1.356 1_556 S
N801 H804 0.984 . S
N801 H805 0.985 1_556 S
H802 N797 0.984 . S
H803 N797 0.985 . S
H804 N801 0.984 . S
H805 N801 0.985 1_554 S
H806 N800 0.984 . S
H807 N800 0.984 . S
H808 N796 0.984 . S
H809 N796 0.985 . S
C810 C811 1.363 . S
C810 C816 1.379 . S
C810 N818 1.356 . S
C811 C810 1.363 . S
C811 C817 1.363 . S
C812 C813 1.363 . S
C812 C817 1.379 . S
C812 N819 1.356 . S
C813 C812 1.363 . S
C813 C816 1.363 . S
N814 C816 1.356 . S
N814 H826 0.984 . S
N814 H827 0.985 . S
N815 C817 1.356 . S
N815 H820 0.984 . S
N815 H821 0.985 . S
C816 C810 1.379 . S
C816 C813 1.363 . S
C816 N814 1.356 . S
C817 C811 1.363 . S
C817 C812 1.379 . S
C817 N815 1.356 . S
N818 C810 1.356 . S
N818 H824 0.984 . S
N818 H825 0.984 . S
N819 C812 1.356 . S
N819 H822 0.984 . S
N819 H823 0.985 . S
H820 N815 0.984 . S
H821 N815 0.985 . S
H822 N819 0.984 . S
H823 N819 0.985 . S
H824 N818 0.984 . S
H825 N818 0.984 . S
H826 N814 0.984 . S
H827 N814 0.985 . S
C828 C829 1.363 1_556 S
C828 C834 1.379 . S
C828 N836 1.356 1_556 S
C829 C828 1.363 1_554 S
C829 C835 1.363 1_554 S
C830 C831 1.363 . S
C830 C835 1.379 . S
C830 N837 1.356 . S
C831 C830 1.363 . S
C831 C834 1.363 . S
N832 C834 1.356 . S
N832 H844 0.984 . S
N832 H845 0.985 . S
N833 C835 1.356 1_554 S
N833 H838 0.984 . S
N833 H839 0.985 1_554 S
C834 C828 1.379 . S
C834 C831 1.363 . S
C834 N832 1.356 . S
C835 C829 1.363 1_556 S
C835 C830 1.379 . S
C835 N833 1.356 1_556 S
N836 C828 1.356 1_554 S
N836 H842 0.984 . S
N836 H843 0.984 . S
N837 C830 1.356 . S
N837 H840 0.984 . S
N837 H841 0.985 . S
H838 N833 0.984 . S
H839 N833 0.985 1_556 S
H840 N837 0.984 . S
H841 N837 0.985 . S
H842 N836 0.984 . S
H843 N836 0.984 . S
H844 N832 0.984 . S
H845 N832 0.985 . S
C846 C847 1.363 . S
C846 C852 1.379 . S
C846 N854 1.356 . S
C847 C846 1.363 . S
C847 C853 1.363 . S
C848 C849 1.363 . S
C848 C853 1.379 . S
C848 N855 1.356 . S
C849 C848 1.363 . S
C849 C852 1.363 . S
N850 C852 1.356 . S
N850 H862 0.984 . S
N850 H863 0.985 . S
N851 C853 1.356 . S
N851 H856 0.984 . S
N851 H857 0.985 . S
C852 C846 1.379 . S
C852 C849 1.363 . S
C852 N850 1.356 . S
C853 C847 1.363 . S
C853 C848 1.379 . S
C853 N851 1.356 . S
N854 C846 1.356 . S
N854 H860 0.984 . S
N854 H861 0.984 . S
N855 C848 1.356 . S
N855 H858 0.984 . S
N855 H859 0.985 . S
H856 N851 0.984 . S
H857 N851 0.985 . S
H858 N855 0.984 . S
H859 N855 0.985 . S
H860 N854 0.984 . S
H861 N854 0.984 . S
H862 N850 0.984 . S
H863 N850 0.985 . S
C864 C865 1.363 . S
C864 C870 1.379 . S
C864 N872 1.356 . S
C865 C864 1.363 . S
C865 C871 1.363 . S
C866 C867 1.363 . S
C866 C871 1.379 . S
C866 N873 1.356 . S
C867 C866 1.363 . S
C867 C870 1.363 . S
N868 C870 1.356 . S
N868 H880 0.984 . S
N868 H881 0.985 . S
N869 C871 1.356 . S
N869 H874 0.984 . S
N869 H875 0.985 . S
C870 C864 1.379 . S
C870 C867 1.363 . S
C870 N868 1.356 . S
C871 C865 1.363 . S
C871 C866 1.379 . S
C871 N869 1.356 . S
N872 C864 1.356 . S
N872 H878 0.984 . S
N872 H879 0.984 . S
N873 C866 1.356 . S
N873 H876 0.984 . S
N873 H877 0.985 . S
H874 N869 0.984 . S
H875 N869 0.985 . S
H876 N873 0.984 . S
H877 N873 0.985 . S
H878 N872 0.984 . S
H879 N872 0.984 . S
H880 N868 0.984 . S
H881 N868 0.985 . S
C882 C883 1.363 . S
C882 C888 1.379 1_556 S
C882 N890 1.356 . S
C883 C882 1.363 . S
C883 C889 1.363 . S
C884 C885 1.363 1_556 S
C884 C889 1.379 . S
C884 N891 1.356 1_556 S
C885 C884 1.363 1_554 S
C885 C888 1.363 . S
N886 C888 1.356 . S
N886 H898 0.984 . S
N886 H899 0.985 . S
N887 C889 1.356 . S
N887 H892 0.984 . S
N887 H893 0.985 . S
C888 C882 1.379 1_554 S
C888 C885 1.363 . S
C888 N886 1.356 . S
C889 C883 1.363 . S
C889 C884 1.379 . S
C889 N887 1.356 . S
N890 C882 1.356 . S
N890 H896 0.984 . S
N890 H897 0.984 . S
N891 C884 1.356 1_554 S
N891 H894 0.984 . S
N891 H895 0.985 1_554 S
H892 N887 0.984 . S
H893 N887 0.985 . S
H894 N891 0.984 . S
H895 N891 0.985 1_556 S
H896 N890 0.984 . S
H897 N890 0.984 . S
H898 N886 0.984 . S
H899 N886 0.985 . S
C900 C901 1.363 . S
C900 C906 1.379 . S
C900 N908 1.356 . S
C901 C900 1.363 . S
C901 C907 1.363 . S
C902 C903 1.363 . S
C902 C907 1.379 . S
C902 N909 1.356 . S
C903 C902 1.363 . S
C903 C906 1.363 . S
N904 C906 1.356 . S
N904 H916 0.984 . S
N904 H917 0.985 . S
N905 C907 1.356 . S
N905 H910 0.984 . S
N905 H911 0.985 . S
C906 C900 1.379 . S
C906 C903 1.363 . S
C906 N904 1.356 . S
C907 C901 1.363 . S
C907 C902 1.379 . S
C907 N905 1.356 . S
N908 C900 1.356 . S
N908 H914 0.984 . S
N908 H915 0.984 . S
N909 C902 1.356 . S
N909 H912 0.984 . S
N909 H913 0.985 . S
H910 N905 0.984 . S
H911 N905 0.985 . S
H912 N909 0.984 . S
H913 N909 0.985 . S
H914 N908 0.984 . S
H915 N908 0.984 . S
H916 N904 0.984 . S
H917 N904 0.985 . S
C918 C919 1.363 . S
C918 C924 1.379 . S
C918 N926 1.356 . S
C919 C918 1.363 . S
C919 C925 1.363 . S
C920 C921 1.363 . S
C920 C925 1.379 . S
C920 N927 1.356 . S
C921 C920 1.363 . S
C921 C924 1.363 . S
N922 C924 1.356 . S
N922 H934 0.984 . S
N922 H935 0.985 . S
N923 C925 1.356 . S
N923 H928 0.984 . S
N923 H929 0.985 . S
C924 C918 1.379 . S
C924 C921 1.363 . S
C924 N922 1.356 . S
C925 C919 1.363 . S
C925 C920 1.379 . S
C925 N923 1.356 . S
N926 C918 1.356 . S
N926 H932 0.984 . S
N926 H933 0.984 . S
N927 C920 1.356 . S
N927 H930 0.984 . S
N927 H931 0.985 . S
H928 N923 0.984 . S
H929 N923 0.985 . S
H930 N927 0.984 . S
H931 N927 0.985 . S
H932 N926 0.984 . S
H933 N926 0.984 . S
H934 N922 0.984 . S
H935 N922 0.985 . S
C397 C18 1.574 . S
C399 C348 1.574 . S
C415 C381 1.574 . S
C417 C51 1.574 . S
C433 C216 1.574 . S
C435 C84 1.574 . S
C451 C249 1.574 . S
C453 C117 1.574 . S
C469 C150 1.574 . S
C471 C282 1.574 . S
C487 C315 1.574 . S
C489 C183 1.574 . S
C505 C219 1.588 . S
C507 C21 1.588 . S
C523 C252 1.588 . S
C525 C54 1.588 . S
C541 C87 1.588 . S
C543 C285 1.588 . S
C559 C120 1.588 . S
C561 C318 1.588 . S
C577 C351 1.588 . S
C579 C153 1.588 . S
C595 C384 1.588 . S
C597 C186 1.588 . S
C613 C7 1.427 . S
C615 C304 1.427 . S
C631 C337 1.427 . S
C633 C40 1.427 . S
C649 C370 1.427 . S
C651 C73 1.427 . S
C667 C205 1.427 . S
C669 C106 1.427 . S
C685 C139 1.427 . S
C687 C238 1.427 . S
C703 C172 1.427 . S
C705 C271 1.427 . S
C721 N2 1.230 . S
C723 N13 1.229 . S
C739 N46 1.229 . S
C741 N35 1.230 . S
C757 N68 1.230 . S
C759 N79 1.229 . S
C775 N112 1.229 . S
C777 N101 1.230 . S
C793 N145 1.229 . S
C795 N134 1.230 . S
C811 N178 1.229 . S
C813 N167 1.230 . S
C829 N200 1.230 . S
C831 N211 1.229 . S
C847 N244 1.229 . S
C849 N233 1.230 . S
C865 N277 1.229 . S
C867 N266 1.230 . S
C883 N310 1.229 . S
C885 N299 1.230 . S
C901 N332 1.230 . S
C903 N343 1.229 . S
C919 N376 1.229 . S
C921 N365 1.230 . S
