# Generated by pormake.
# Topology umj, (4)-cn, num edge types: 1
# Building blocks:
#     Node 0, Type 0, BuildingBlock: ESEHIV_clean_sbu_0, # of connection points: 4
#     Node 1, Type 0, BuildingBlock: ESEHIV_clean_sbu_0, # of connection points: 4
#     Node 2, Type 0, BuildingBlock: ESEHIV_clean_sbu_0, # of connection points: 4
#     Node 3, Type 0, BuildingBlock: ESEHIV_clean_sbu_0, # of connection points: 4
#     Node 4, Type 0, BuildingBlock: ESEHIV_clean_sbu_0, # of connection points: 4
#     Node 5, Type 0, BuildingBlock: ESEHIV_clean_sbu_0, # of connection points: 4
#     Node 6, Type 0, BuildingBlock: ESEHIV_clean_sbu_0, # of connection points: 4
#     Node 7, Type 0, BuildingBlock: ESEHIV_clean_sbu_0, # of connection points: 4
#     Node 8, Type 0, BuildingBlock: ESEHIV_clean_sbu_0, # of connection points: 4
#     Node 9, Type 0, BuildingBlock: ESEHIV_clean_sbu_0, # of connection points: 4
#     Node 10, Type 0, BuildingBlock: ESEHIV_clean_sbu_0, # of connection points: 4
#     Node 11, Type 0, BuildingBlock: ESEHIV_clean_sbu_0, # of connection points: 4
#     Edge 12, Type (0, 0), BuildingBlock: EZIPEK_clean_linker_0, # of connection points: 2
#     Edge 13, Type (0, 0), BuildingBlock: EZIPEK_clean_linker_0, # of connection points: 2
#     Edge 14, Type (0, 0), BuildingBlock: EZIPEK_clean_linker_0, # of connection points: 2
#     Edge 15, Type (0, 0), BuildingBlock: EZIPEK_clean_linker_0, # of connection points: 2
#     Edge 16, Type (0, 0), BuildingBlock: EZIPEK_clean_linker_0, # of connection points: 2
#     Edge 17, Type (0, 0), BuildingBlock: EZIPEK_clean_linker_0, # of connection points: 2
#     Edge 18, Type (0, 0), BuildingBlock: EZIPEK_clean_linker_0, # of connection points: 2
#     Edge 19, Type (0, 0), BuildingBlock: EZIPEK_clean_linker_0, # of connection points: 2
#     Edge 20, Type (0, 0), BuildingBlock: EZIPEK_clean_linker_0, # of connection points: 2
#     Edge 21, Type (0, 0), BuildingBlock: EZIPEK_clean_linker_0, # of connection points: 2
#     Edge 22, Type (0, 0), BuildingBlock: EZIPEK_clean_linker_0, # of connection points: 2
#     Edge 23, Type (0, 0), BuildingBlock: EZIPEK_clean_linker_0, # of connection points: 2
#     Edge 24, Type (0, 0), BuildingBlock: EZIPEK_clean_linker_0, # of connection points: 2
#     Edge 25, Type (0, 0), BuildingBlock: EZIPEK_clean_linker_0, # of connection points: 2
#     Edge 26, Type (0, 0), BuildingBlock: EZIPEK_clean_linker_0, # of connection points: 2
#     Edge 27, Type (0, 0), BuildingBlock: EZIPEK_clean_linker_0, # of connection points: 2
#     Edge 28, Type (0, 0), BuildingBlock: EZIPEK_clean_linker_0, # of connection points: 2
#     Edge 29, Type (0, 0), BuildingBlock: EZIPEK_clean_linker_0, # of connection points: 2
#     Edge 30, Type (0, 0), BuildingBlock: EZIPEK_clean_linker_0, # of connection points: 2
#     Edge 31, Type (0, 0), BuildingBlock: EZIPEK_clean_linker_0, # of connection points: 2
#     Edge 32, Type (0, 0), BuildingBlock: EZIPEK_clean_linker_0, # of connection points: 2
#     Edge 33, Type (0, 0), BuildingBlock: EZIPEK_clean_linker_0, # of connection points: 2
#     Edge 34, Type (0, 0), BuildingBlock: EZIPEK_clean_linker_0, # of connection points: 2
#     Edge 35, Type (0, 0), BuildingBlock: EZIPEK_clean_linker_0, # of connection points: 2
# Relax obj value: 0.040
# Max RMSD: 0.104
# Mean RMSD: 0.087
data_MOF--net-umj--node1-ESEHIV_clean_sbu_0--edge1-EZIPEK_clean_linker_0
_symmetry_space_group_name_H-M    P1
_symmetry_Int_Tables_number       1
_symmetry_cell_setting            triclinic
loop_
_symmetry_equiv_pos_as_xyz
'x, y, z'
_cell_length_a     21.162561
_cell_length_b     26.104169
_cell_length_c     65.825246
_cell_angle_alpha  89.781817
_cell_angle_beta   90.065489
_cell_angle_gamma 113.94098
loop_
_atom_site_label
_atom_site_type_symbol
_atom_site_fract_x
_atom_site_fract_y
_atom_site_fract_z
_atom_type_partial_charge
Cu0 Cu 0.05603 0.29046 0.09682 0.0
N1 N 1.00678 0.21366 0.09294 0.0
N2 N 0.99677 0.12555 0.09001 0.0
C3 C 1.03679 0.17773 0.09621 0.0
C4 C 0.93882 0.12827 0.08252 0.0
C5 C 0.94525 0.18309 0.0843 0.0
O6 O 0.12631 0.3113 0.07565 0.0
C7 C 1.03647 0.28049 0.13755 0.0
O8 O 0.97296 0.25609 0.13067 0.0
H9 H 0.08855 0.19022 0.10221 0.0
H10 H 0.90928 0.19982 0.07881 0.0
N11 N 1.00815 0.33627 0.09381 0.0
N12 N 0.99791 0.41771 0.09175 0.0
C13 C 1.04174 0.39235 0.09286 0.0
C14 C 0.94031 0.32565 0.09341 0.0
C15 C 0.93382 0.37631 0.09212 0.0
C16 C 0.10687 0.31911 0.05796 0.0
O17 O 0.04555 0.31973 0.05564 0.0
H18 H 0.09749 0.41427 0.09334 0.0
H19 H 0.89875 0.28439 0.09442 0.0
O20 O 0.08651 0.29958 0.12494 0.0
H21 H 0.89643 0.09375 0.07558 0.0
H22 H 0.8862 0.3824 0.09185 0.0
Cu23 Cu 0.81913 0.08644 0.42343 0.0
N24 N 0.78473 1.02765 0.44211 0.0
N25 N 0.76246 0.98819 0.47282 0.0
C26 C 0.79794 0.03509 0.46212 0.0
C27 C 0.72504 0.94943 0.45915 0.0
C28 C 0.73867 0.97409 0.4401 0.0
O29 O 0.76624 0.13142 0.42885 0.0
C30 C 0.95041 0.08855 0.42464 0.0
O31 O 0.9136 0.0366 0.41914 0.0
H32 H 0.83148 0.07466 0.4688 0.0
H33 H 0.71479 0.95489 0.42598 0.0
N34 N 0.80321 0.06411 0.39625 0.0
N35 N 0.80408 0.0746 0.36257 0.0
C36 C 0.81177 0.10004 0.38074 0.0
C37 C 0.78941 1.01402 0.38758 0.0
C38 C 0.79013 1.02047 0.36671 0.0
C39 C 0.70182 0.10542 0.42499 0.0
O40 O 0.67941 0.05492 0.41719 0.0
H41 H 0.82777 0.14472 0.38269 0.0
H42 H 0.78335 0.97631 0.39573 0.0
O43 O 0.91977 0.12121 0.42761 0.0
H44 H 0.68947 0.90701 0.46277 0.0
H45 H 0.78529 0.98893 0.35548 0.0
Cu46 Cu 0.7792 0.78705 0.77866 0.0
N47 N 0.87447 0.82696 0.7772 0.0
N48 N 0.97212 0.90414 0.77651 0.0
C49 C 0.90282 0.88323 0.77706 0.0
C50 C 0.9888 0.85944 0.77651 0.0
C51 C 0.92789 0.81142 0.77693 0.0
O52 O 0.74341 0.82587 0.75934 0.0
C53 C 0.78119 0.76422 0.81915 0.0
O54 O 0.81519 0.73628 0.81163 0.0
H55 H 0.87301 0.90853 0.77737 0.0
H56 H 0.92298 0.76854 0.77722 0.0
N57 N 0.74804 0.71177 0.7711 0.0
N58 N 0.67268 0.62343 0.76612 0.0
C59 C 0.68561 0.67187 0.77597 0.0
C60 C 0.77622 0.68736 0.75805 0.0
C61 C 0.72953 0.63287 0.75483 0.0
C62 C 0.76297 0.82455 0.74108 0.0
O63 O 0.7994 0.79531 0.73715 0.0
H64 H 0.649 0.67898 0.78581 0.0
H65 H 0.82591 0.70833 0.75073 0.0
O66 O 0.75641 0.78977 0.80709 0.0
H67 H 1.04092 0.86152 0.77625 0.0
H68 H 0.73592 0.60291 0.74462 0.0
Cu69 Cu 1.02978 0.78119 0.09683 0.0
N70 N 0.07658 0.85817 0.09262 0.0
N71 N 0.08554 0.94613 0.09016 0.0
C72 C 0.04422 0.89278 0.0948 0.0
C73 C 0.14693 0.94554 0.08495 0.0
C74 C 0.14116 0.89081 0.08642 0.0
O75 O 0.9563 0.75756 0.07675 0.0
C76 C 0.05269 0.79316 0.13762 0.0
O77 O 0.11527 0.82151 0.1305 0.0
H78 H 0.9906 0.87881 0.09931 0.0
H79 H 0.18064 0.87588 0.0829 0.0
N80 N 0.07855 0.73658 0.0928 0.0
N81 N 0.08844 0.65496 0.09086 0.0
C82 C 0.04512 0.68087 0.09033 0.0
C83 C 0.14578 0.7464 0.09504 0.0
C84 C 0.15204 0.69566 0.09383 0.0
C85 C 0.97695 0.75713 0.05856 0.0
O86 O 0.04281 0.77028 0.05512 0.0
H87 H 0.98942 0.65932 0.08931 0.0
H88 H 0.18653 0.7868 0.09842 0.0
O89 O 1.00262 0.77102 0.12521 0.0
H90 H 0.19192 0.98176 0.08007 0.0
H91 H 0.19877 0.68882 0.09591 0.0
Cu92 Cu 0.30151 1.02851 0.42634 0.0
N93 N 0.27779 0.9895 0.45117 0.0
N94 N 0.2653 0.96868 0.48428 0.0
C95 C 0.29245 1.00968 0.47025 0.0
C96 C 0.23214 0.92106 0.47381 0.0
C97 C 0.2394 0.93409 0.45342 0.0
O98 O 0.40122 0.0739 0.42539 0.0
C99 C 0.22403 0.09513 0.43468 0.0
O100 O 0.26289 0.11213 0.45094 0.0
H101 H 0.32146 0.05336 0.47389 0.0
H102 H 0.21691 0.90515 0.4411 0.0
N103 N 0.28708 0.97573 0.40569 0.0
N104 N 0.25668 0.92891 0.37639 0.0
C105 C 0.261 0.97468 0.3869 0.0
C106 C 0.30165 0.93014 0.40677 0.0
C107 C 0.28214 0.90084 0.38886 0.0
C108 C 0.44051 0.11106 0.43754 0.0
O109 O 0.41389 0.13077 0.45196 0.0
H110 H 0.24379 1.00586 0.38124 0.0
H111 H 0.32407 0.9186 0.41985 0.0
O112 O 0.23739 0.0647 0.42171 0.0
H113 H 0.20334 0.88021 0.48051 0.0
H114 H 0.28549 0.86155 0.38531 0.0
Cu115 Cu 0.31784 0.26203 0.77888 0.0
N116 N 0.22317 0.21946 0.77518 0.0
N117 N 0.12816 0.14003 0.77346 0.0
C118 C 0.19142 0.16606 0.78157 0.0
C119 C 0.11808 0.17882 0.76192 0.0
C120 C 0.17701 0.22814 0.76306 0.0
O121 O 0.36572 0.23016 0.76081 0.0
C122 C 0.30512 0.28522 0.81897 0.0
O123 O 0.26955 0.31037 0.81025 0.0
H124 H 0.21565 0.14533 0.79105 0.0
H125 H 0.18712 0.2661 0.75452 0.0
N126 N 0.3464 0.33596 0.76989 0.0
N127 N 0.42337 0.42364 0.76425 0.0
C128 C 0.40015 0.38028 0.7775 0.0
C129 C 0.33492 0.35215 0.7513 0.0
C130 C 0.38217 0.40626 0.74781 0.0
C131 C 0.34894 0.17793 0.75837 0.0
O132 O 0.31421 0.1425 0.7726 0.0
H133 H 0.42626 0.37879 0.79149 0.0
H134 H 0.29938 0.32483 0.74028 0.0
O135 O 0.33459 0.26126 0.80793 0.0
H136 H 0.07354 0.17091 0.75232 0.0
H137 H 0.38906 0.42963 0.73377 0.0
Cu138 Cu 0.78589 1.02624 0.61717 0.0
N139 N 0.77792 0.98979 0.59216 0.0
N140 N 0.77101 0.97037 0.559 0.0
C141 C 0.77521 1.00878 0.57322 0.0
C142 C 0.77153 0.9258 0.56923 0.0
C143 C 0.77636 0.93807 0.58965 0.0
O144 O 0.72727 0.0681 0.61747 0.0
C145 C 0.92948 0.09568 0.61018 0.0
O146 O 0.90835 0.11028 0.59321 0.0
H147 H 0.77726 0.04994 0.56981 0.0
H148 H 0.77949 0.91134 0.60185 0.0
N149 N 0.7477 0.971 0.63718 0.0
N150 N 0.72967 0.92351 0.66648 0.0
C151 C 0.76719 0.97218 0.65675 0.0
C152 C 0.69488 0.92064 0.63468 0.0
C153 C 0.68416 0.89105 0.65264 0.0
C154 C 0.72682 0.10724 0.60595 0.0
O155 O 0.7767 0.13096 0.59272 0.0
H156 H 0.80951 1.0071 0.66354 0.0
H157 H 0.66694 0.90601 0.62063 0.0
O158 O 0.88489 0.06571 0.62312 0.0
H159 H 0.76984 0.88766 0.56235 0.0
H160 H 0.64683 0.84856 0.65528 0.0
Cu161 Cu 0.79298 0.77134 0.94741 0.0
N162 N 0.8216 0.84824 0.95141 0.0
N163 N 0.90056 0.93611 0.95442 0.0
C164 C 0.88875 0.88303 0.94956 0.0
C165 C 0.83839 0.93521 0.95952 0.0
C166 C 0.78945 0.88055 0.95771 0.0
O167 O 0.84376 0.74989 0.96801 0.0
C168 C 0.77687 0.77733 0.90672 0.0
O169 O 0.73372 0.79757 0.9138 0.0
H170 H 0.92868 0.86935 0.94515 0.0
H171 H 0.73502 0.86548 0.96123 0.0
N172 N 0.69955 0.72518 0.95094 0.0
N173 N 0.6087 0.64322 0.95333 0.0
C174 C 0.67744 0.66909 0.95085 0.0
C175 C 0.64245 0.73529 0.95347 0.0
C176 C 0.58586 0.68432 0.95499 0.0
C177 C 0.81808 0.74258 0.98587 0.0
O178 O 0.75727 0.74373 0.98871 0.0
H179 H 0.7113 0.64757 0.94892 0.0
H180 H 0.64177 0.77642 0.954 0.0
O181 O 0.81252 0.76234 0.91916 0.0
H182 H 0.82944 0.97112 0.96456 0.0
H183 H 0.53239 0.67784 0.95699 0.0
Cu184 Cu 0.06077 0.79413 0.26563 0.0
N185 N 1.00848 0.8362 0.26832 0.0
N186 N 0.99338 0.91565 0.26989 0.0
C187 C 1.03938 0.89235 0.26936 0.0
C188 C 0.93051 0.87269 0.26907 0.0
C189 C 0.94004 0.82325 0.26811 0.0
O190 O 0.13685 0.83062 0.28463 0.0
C191 C 1.03223 0.77601 0.22519 0.0
O192 O 0.97007 0.7512 0.23304 0.0
H193 H 0.09491 0.91588 0.26936 0.0
H194 H 0.90021 0.78125 0.26687 0.0
N195 N 1.01483 0.71837 0.27252 0.0
N196 N 1.00101 0.62963 0.27706 0.0
C197 C 1.03815 0.67894 0.26783 0.0
C198 C 0.95992 0.69277 0.28475 0.0
C199 C 0.95163 0.638 0.28772 0.0
C200 C 0.11841 0.82444 0.30326 0.0
O201 O 0.05487 0.78997 0.30776 0.0
H202 H 0.08368 0.68702 0.25866 0.0
H203 H 0.93019 0.71319 0.2918 0.0
O204 O 0.08411 0.7982 0.23698 0.0
H205 H 0.88171 0.87692 0.26889 0.0
H206 H 0.9137 0.60716 0.29741 0.0
Cu207 Cu 0.32288 0.08498 0.61966 0.0
N208 N 0.29112 1.02587 0.60118 0.0
N209 N 0.271 0.98599 0.57061 0.0
C210 C 0.3037 0.03357 0.58112 0.0
C211 C 0.23597 0.94654 0.58446 0.0
C212 C 0.2482 0.97145 0.6034 0.0
O213 O 0.42061 0.12731 0.61311 0.0
C214 C 0.1984 0.09503 0.6233 0.0
O215 O 0.18432 0.04728 0.63276 0.0
H216 H 0.33427 0.07381 0.57425 0.0
H217 H 0.22507 0.95174 0.61757 0.0
N218 N 0.32103 0.06331 0.64685 0.0
N219 N 0.33121 0.07419 0.68047 0.0
C220 C 0.33697 0.09982 0.66234 0.0
C221 C 0.30558 1.01273 0.65547 0.0
C222 C 0.31117 1.0193 0.67633 0.0
C223 C 0.45603 0.09781 0.6147 0.0
O224 O 0.42483 0.04507 0.62024 0.0
H225 H 0.3507 0.14427 0.66041 0.0
H226 H 0.29096 0.97382 0.6473 0.0
O227 O 0.25966 0.12253 0.61657 0.0
H228 H 0.20211 0.90359 0.58101 0.0
H229 H 0.30025 0.98645 0.68758 0.0
Cu230 Cu 0.2791 0.27814 0.94714 0.0
N231 N 0.24967 0.20126 0.95157 0.0
N232 N 0.17036 0.1135 0.95463 0.0
C233 C 0.1832 0.16611 0.94866 0.0
C234 C 0.23126 0.11505 0.96145 0.0
C235 C 0.28036 0.16965 0.95963 0.0
O236 O 0.22762 0.30156 0.96667 0.0
C237 C 0.30021 0.27285 0.90668 0.0
O238 O 0.34238 0.25229 0.91433 0.0
H239 H 0.14419 0.17938 0.94297 0.0
H240 H 0.33365 0.1853 0.96449 0.0
N241 N 0.37183 0.324 0.95172 0.0
N242 N 0.46219 0.40604 0.95447 0.0
C243 C 0.39388 0.38006 0.95123 0.0
C244 C 0.4285 0.314 0.95535 0.0
C245 C 0.48482 0.36506 0.95709 0.0
C246 C 0.2477 0.30201 0.98499 0.0
O247 O 0.30032 0.28902 0.98881 0.0
H248 H 0.36035 0.40148 0.94836 0.0
H249 H 0.42915 0.2729 0.95641 0.0
O250 O 0.26327 0.28765 0.91861 0.0
H251 H 0.23896 0.07978 0.96787 0.0
H252 H 0.53802 0.37166 0.95981 0.0
Cu253 Cu 1.00385 0.27063 0.26532 0.0
N254 N 0.05814 0.23019 0.26991 0.0
N255 N 0.07595 0.15194 0.27268 0.0
C256 C 1.03956 0.17722 0.2635 0.0
C257 C 0.12156 0.19095 0.28485 0.0
C258 C 0.11056 0.23953 0.28305 0.0
O259 O 0.92224 0.23633 0.28271 0.0
C260 C 0.04351 0.28881 0.22526 0.0
O261 O 0.10416 0.30822 0.23423 0.0
H262 H 0.99674 0.15601 0.25338 0.0
H263 H 0.13533 0.27721 0.2919 0.0
N264 N 0.04603 0.34457 0.27435 0.0
N265 N 0.05386 0.43153 0.27954 0.0
C266 C 1.03673 0.38858 0.26629 0.0
C267 C 0.07072 0.36065 0.2932 0.0
C268 C 0.07576 0.41427 0.29642 0.0
C269 C 0.88968 0.1837 0.28526 0.0
O270 O 0.89232 0.14923 0.2712 0.0
H271 H 1.01152 0.38714 0.25185 0.0
H272 H 0.07818 0.33356 0.30452 0.0
O273 O 0.98883 0.27018 0.23612 0.0
H274 H 0.15639 0.1835 0.29533 0.0
H275 H 0.08977 0.43737 0.31053 0.0
C276 C 1.02221 0.23497 0.1926 0.0
C277 C 1.04065 0.28701 0.20272 0.0
C278 C 0.06262 0.33627 0.16983 0.0
C279 C 0.04715 0.28452 0.15983 0.0
N280 N 1.02446 0.18654 0.16133 0.0
N281 N 0.08647 0.38802 0.20151 0.0
C282 C 1.03038 0.23438 0.17115 0.0
C283 C 0.0636 0.33796 0.19147 0.0
N284 N 0.99645 0.18605 0.20347 0.0
N285 N 0.07314 0.38327 0.15862 0.0
H286 H 0.08354 0.39095 0.21725 0.0
H287 H 0.11168 0.42672 0.19441 0.0
H288 H 0.0749 0.38397 0.14278 0.0
H289 H 0.07609 0.42075 0.16485 0.0
H290 H 0.9749 0.14651 0.19688 0.0
H291 H 0.99206 0.1848 0.21924 0.0
H292 H 1.01896 0.14965 0.16871 0.0
H293 H 1.03138 0.18517 0.14567 0.0
C294 C 0.70871 0.9843 0.5064 0.0
C295 C 0.76342 0.98228 0.49454 0.0
C296 C 0.82624 0.97872 0.5254 0.0
C297 C 0.76908 0.97603 0.53725 0.0
N298 N 0.65236 0.96883 0.53936 0.0
N299 N 0.87014 0.97104 0.49197 0.0
C300 C 0.70929 0.97698 0.52783 0.0
C301 C 0.82114 0.97767 0.50386 0.0
N302 N 0.65743 0.99485 0.49714 0.0
N303 N 0.88614 0.98425 0.53484 0.0
H304 H 0.86728 0.97016 0.47614 0.0
H305 H 0.91055 0.96225 0.49769 0.0
H306 H 0.89132 0.98568 0.55059 0.0
H307 H 0.93214 0.99194 0.52719 0.0
H308 H 0.61963 1.00265 0.50502 0.0
H309 H 0.65574 0.99989 0.48145 0.0
H310 H 0.60477 0.96381 0.53329 0.0
H311 H 0.65125 0.96279 0.55504 0.0
C312 C 0.81515 0.82051 0.85127 0.0
C313 C 0.77733 0.76854 0.84153 0.0
C314 C 0.74952 0.72092 0.87469 0.0
C315 C 0.78308 0.77348 0.88442 0.0
N316 N 0.84212 0.87411 0.88252 0.0
N317 N 0.70082 0.67073 0.84353 0.0
C318 C 0.81413 0.82353 0.87284 0.0
C319 C 0.74264 0.71903 0.85314 0.0
N320 N 0.85473 0.8664 0.83995 0.0
N321 N 0.72422 0.67287 0.88609 0.0
H322 H 0.6938 0.6682 0.82781 0.0
H323 H 0.66855 0.63446 0.85107 0.0
H324 H 0.72637 0.67287 0.90192 0.0
H325 H 0.70542 0.63276 0.87996 0.0
H326 H 0.88993 0.90365 0.84619 0.0
H327 H 0.85625 0.86624 0.82413 0.0
H328 H 0.85756 0.91255 0.87508 0.0
H329 H 0.84673 0.87775 0.89828 0.0
C330 C 1.00836 0.81338 0.17062 0.0
C331 C 0.04313 0.78546 0.1599 0.0
C332 C 0.06994 0.75023 0.19206 0.0
C333 C 1.03944 0.78134 0.20281 0.0
N334 N 0.98653 0.84752 0.20299 0.0
N335 N 0.11191 0.7309 0.15996 0.0
C336 C 1.01012 0.81404 0.19225 0.0
C337 C 0.07545 0.75499 0.17051 0.0
N338 N 0.97389 0.83945 0.1601 0.0
N339 N 0.0908 0.71422 0.20239 0.0
H340 H 0.11304 0.72981 0.14414 0.0
H341 H 0.1439 0.71431 0.16678 0.0
H342 H 0.08846 0.71026 0.21817 0.0
H343 H 0.10597 0.68537 0.19537 0.0
H344 H 0.94105 0.85518 0.16685 0.0
H345 H 0.97449 0.84246 0.1443 0.0
H346 H 0.97153 0.87712 0.19639 0.0
H347 H 0.98674 0.84888 0.21881 0.0
C348 C 0.21044 0.97914 0.538 0.0
C349 C 0.26907 0.9807 0.54883 0.0
C350 C 0.32761 0.97925 0.5168 0.0
C351 C 0.26743 0.97448 0.50605 0.0
N352 N 0.15008 0.96601 0.50574 0.0
N353 N 0.3814 0.97878 0.5495 0.0
C354 C 0.20832 0.97327 0.5165 0.0
C355 C 0.32737 0.98009 0.53845 0.0
N356 N 0.15816 0.9855 0.54834 0.0
N357 N 0.38464 0.98285 0.50614 0.0
H358 H 0.38181 0.97908 0.56535 0.0
H359 H 0.42404 0.97441 0.54325 0.0
H360 H 0.38474 0.97971 0.49035 0.0
H361 H 0.43264 0.99131 0.51264 0.0
H362 H 0.11671 0.99034 0.54142 0.0
H363 H 0.15844 0.98959 0.56409 0.0
H364 H 0.10259 0.95891 0.51234 0.0
H365 H 0.14832 0.96436 0.48992 0.0
C366 C 0.34123 0.33071 0.853 0.0
C367 C 0.30515 0.28154 0.84147 0.0
C368 C 0.26277 0.22728 0.87285 0.0
C369 C 0.29609 0.27696 0.88433 0.0
N370 N 0.36017 0.37703 0.88583 0.0
N371 N 0.22181 0.1855 0.83996 0.0
C372 C 0.33306 0.32912 0.87452 0.0
C373 C 0.26338 0.23039 0.85127 0.0
N374 N 0.38519 0.37837 0.84337 0.0
N375 N 0.23121 0.17692 0.88264 0.0
H376 H 0.22109 0.18607 0.82415 0.0
H377 H 0.18417 0.14921 0.84615 0.0
H378 H 0.22575 0.17341 0.89839 0.0
H379 H 0.21368 0.13837 0.8753 0.0
H380 H 0.41852 0.41412 0.85089 0.0
H381 H 0.39228 0.3809 0.82766 0.0
H382 H 0.38189 0.41717 0.87963 0.0
H383 H 0.35672 0.37707 0.90164 0.0
C384 C 0.11267 0.26745 0.02663 0.0
C385 C 0.14439 0.31466 0.03953 0.0
C386 C 0.23781 0.35758 1.01471 0.0
C387 C 0.20793 0.30912 1.00239 0.0
N388 N 0.12226 0.21516 0.9973 0.0
N389 N 0.23893 0.40248 0.04714 0.0
C390 C 0.14638 0.26352 1.00842 0.0
C391 C 0.20769 0.35911 0.03396 0.0
N392 N 0.05012 0.2261 0.03185 0.0
N393 N 0.29404 0.40254 1.00766 0.0
H394 H 0.21696 0.40565 0.061 0.0
H395 H 0.28824 0.43371 0.04505 0.0
H396 H 0.31663 0.40261 0.99357 0.0
H397 H 0.31559 0.44114 1.01491 0.0
H398 H 1.01931 0.19506 1.02192 0.0
H399 H 1.02716 0.22365 0.04602 0.0
H400 H 0.08299 0.17781 1.00211 0.0
H401 H 0.14422 0.21103 0.98359 0.0
C402 C 0.89489 0.13487 0.33935 0.0
C403 C 0.82421 0.10243 0.34323 0.0
C404 C 0.79474 0.12456 0.30917 0.0
C405 C 0.8653 0.16075 0.30591 0.0
N406 N 0.98055 0.20891 0.31997 0.0
N407 N 0.70532 0.07124 0.3335 0.0
C408 C 0.91463 0.1689 0.32169 0.0
C409 C 0.77357 0.09862 0.32858 0.0
N410 N 0.94358 0.13063 0.35209 0.0
N411 N 0.74824 0.11478 0.2937 0.0
H412 H 0.68917 0.05165 0.34756 0.0
H413 H 0.66511 0.07115 0.32436 0.0
H414 H 0.76121 0.13562 0.27976 0.0
H415 H 0.69783 0.08431 0.29431 0.0
H416 H 0.99635 0.14818 0.34892 0.0
H417 H 0.9307 0.10442 0.3648 0.0
H418 H 1.01546 0.22075 0.33201 0.0
H419 H 0.99938 0.23363 0.30716 0.0
C420 C 0.8135 0.89147 0.7125 0.0
C421 C 0.75462 0.8604 0.72453 0.0
C422 C 0.68327 0.88587 0.70053 0.0
C423 C 0.73967 0.90652 0.68673 0.0
N424 N 0.85602 0.91864 0.67846 0.0
N425 N 0.63094 0.82458 0.72918 0.0
C426 C 0.80447 0.90718 0.69247 0.0
C427 C 0.68868 0.8572 0.71851 0.0
N428 N 0.87832 0.90636 0.7203 0.0
N429 N 0.62507 0.89453 0.69655 0.0
H430 H 0.63269 0.80296 0.74235 0.0
H431 H 0.58096 0.81585 0.72413 0.0
H432 H 0.62087 0.91686 0.68381 0.0
H433 H 0.58438 0.88473 0.70682 0.0
H434 H 0.9228 0.93314 0.71275 0.0
H435 H 0.8867 0.8973 0.73524 0.0
H436 H 0.90196 0.91437 0.68156 0.0
H437 H 0.85003 0.92602 0.66317 0.0
C438 C 0.92069 0.79902 0.0342 0.0
C439 C 0.93135 0.75147 0.04092 0.0
C440 C 0.87591 0.7003 1.01 0.0
C441 C 0.86145 0.74662 1.00395 0.0
N442 N 0.86454 0.83854 1.01067 0.0
N443 N 0.91501 0.65536 0.03676 0.0
C444 C 0.88214 0.79546 1.0162 0.0
C445 C 0.90789 0.70163 0.02921 0.0
N446 N 0.95052 0.84857 0.04447 0.0
N447 N 0.85936 0.65538 0.9973 0.0
H448 H 0.93818 0.65528 0.05076 0.0
H449 H 0.89409 0.61604 0.03001 0.0
H450 H 0.83436 0.65274 0.98343 0.0
H451 H 0.87385 0.62226 0.99977 0.0
H452 H 0.9526 0.88668 0.039 0.0
H453 H 0.9776 0.85263 0.05801 0.0
H454 H 0.86858 0.87124 1.02031 0.0
H455 H 0.84274 0.84061 0.99664 0.0
C456 C 0.12911 0.88582 0.33313 0.0
C457 C 0.16141 0.86138 0.31968 0.0
C458 C 0.26441 0.89688 0.34138 0.0
C459 C 0.2263 0.91044 0.35662 0.0
N460 N 0.11633 0.90703 0.36809 0.0
N461 N 0.2596 0.84013 0.31185 0.0
C462 C 0.15716 0.90258 0.35275 0.0
C463 C 0.22952 0.86648 0.32386 0.0
N464 N 0.0719 0.89367 0.32708 0.0
N465 N 0.33413 0.91402 0.34354 0.0
H466 H 0.23572 0.8173 0.29899 0.0
H467 H 0.30608 0.83748 0.31554 0.0
H468 H 0.36105 0.938 0.35588 0.0
H469 H 0.36577 0.90957 0.33219 0.0
H470 H 0.05004 0.91567 0.33573 0.0
H471 H 0.05152 0.88404 0.31247 0.0
H472 H 0.06356 0.89647 0.36631 0.0
H473 H 0.13287 0.91483 0.38311 0.0
C474 C 0.29176 0.1258 0.70499 0.0
C475 C 0.33679 0.09991 0.70011 0.0
C476 C 0.39146 0.12531 0.73364 0.0
C477 C 0.3506 0.1559 0.73766 0.0
N478 N 0.27265 0.19557 0.72476 0.0
N479 N 0.43717 0.08253 0.70806 0.0
C480 C 0.30445 0.15967 0.72255 0.0
C481 C 0.38883 0.10161 0.71399 0.0
N482 N 0.23442 0.11545 0.69334 0.0
N483 N 0.43255 0.11885 0.74856 0.0
H484 H 0.43693 0.06595 0.69365 0.0
H485 H 0.48047 0.08737 0.7167 0.0
H486 H 0.43846 0.13817 0.76271 0.0
H487 H 0.45768 0.09199 0.74732 0.0
H488 H 0.19565 0.12852 0.6973 0.0
H489 H 0.22168 0.08833 0.68095 0.0
H490 H 0.24477 0.20403 0.71313 0.0
H491 H 0.27844 0.22056 0.73744 0.0
C492 C 0.0594 0.56609 0.07256 0.0
C493 C 0.06794 0.59521 0.09116 0.0
C494 C 1.02809 0.50658 0.11011 0.0
C495 C 1.01743 0.47731 0.09149 0.0
N496 N 1.01859 0.47621 0.0551 0.0
N497 N 0.05446 0.59504 0.12737 0.0
C498 C 1.03186 0.50636 0.07269 0.0
C499 C 0.05076 0.56588 0.1099 0.0
N500 N 0.07836 0.5962 0.05491 0.0
N501 N 1.01794 0.47732 0.12794 0.0
H502 H 0.07254 0.63859 0.12761 0.0
H503 H 1.03649 0.57642 0.14141 0.0
H504 H 0.99885 0.43368 0.12841 0.0
H505 H 1.03132 0.49588 0.14215 0.0
H506 H 0.07745 0.57883 0.04067 0.0
H507 H 0.09802 0.6399 0.05464 0.0
H508 H 1.02402 0.49354 0.04062 0.0
H509 H 0.99907 0.43251 0.05503 0.0
C510 C 0.61718 0.14511 0.4145 0.0
C511 C 0.64952 0.12761 0.43031 0.0
C512 C 0.55027 0.11056 0.45267 0.0
C513 C 0.51641 0.12602 0.43656 0.0
N514 N 0.52426 0.1719 0.40432 0.0
N515 N 0.65704 0.10906 0.46577 0.0
C516 C 0.55234 0.14806 0.41817 0.0
C517 C 0.6196 0.11615 0.44992 0.0
N518 N 0.64725 0.15645 0.39572 0.0
N519 N 0.51462 0.08618 0.46992 0.0
H520 H 0.70745 0.11214 0.464 0.0
H521 H 0.64096 0.10553 0.48085 0.0
H522 H 0.46375 0.08056 0.47262 0.0
H523 H 0.53364 0.06769 0.48103 0.0
H524 H 0.62286 0.16267 0.38278 0.0
H525 H 0.69636 0.1575 0.39298 0.0
H526 H 0.54999 0.19289 0.39133 0.0
H527 H 0.47724 0.17502 0.4068 0.0
C528 C 0.48323 0.52704 0.76306 0.0
C529 C 0.48612 0.47413 0.76558 0.0
C530 C 0.61097 0.5211 0.77148 0.0
C531 C 0.60933 0.57327 0.76633 0.0
N532 N 0.54519 0.62366 0.75267 0.0
N533 N 0.5561 0.42065 0.76713 0.0
C534 C 0.5457 0.57577 0.76091 0.0
C535 C 0.55095 0.47098 0.76847 0.0
N536 N 0.42078 0.5308 0.76317 0.0
N537 N 0.66929 0.51955 0.77977 0.0
H538 H 0.51431 0.38356 0.76343 0.0
H539 H 0.60329 0.41691 0.76735 0.0
H540 H 0.71321 0.55577 0.78289 0.0
H541 H 0.67128 0.48294 0.78548 0.0
H542 H 0.41582 0.56892 0.76322 0.0
H543 H 0.37431 0.49592 0.7653 0.0
H544 H 0.50076 0.62611 0.74679 0.0
H545 H 0.59029 0.65901 0.74964 0.0
C546 C 0.55376 0.11087 0.59131 0.0
C547 C 0.53146 0.12023 0.61065 0.0
C548 C 0.64684 0.14027 0.62455 0.0
C549 C 0.66474 0.12074 0.60626 0.0
N550 N 0.63405 0.08501 0.57216 0.0
N551 N 0.55551 0.14515 0.6458 0.0
C552 C 0.61856 0.1066 0.58941 0.0
C553 C 0.57815 0.13633 0.62724 0.0
N554 N 0.51201 0.10497 0.57485 0.0
N555 N 0.69587 0.16276 0.63927 0.0
H556 H 0.50665 0.14523 0.6479 0.0
H557 H 0.58365 0.1501 0.65917 0.0
H558 H 0.74659 0.1665 0.63755 0.0
H559 H 0.68829 0.18208 0.65229 0.0
H560 H 0.52705 0.10268 0.55995 0.0
H561 H 0.46438 0.10784 0.57603 0.0
H562 H 0.59899 0.06742 0.56042 0.0
H563 H 0.68057 0.08101 0.57004 0.0
C564 C 0.52334 0.49394 0.93552 0.0
C565 C 0.5017 0.4657 0.95432 0.0
C566 C 0.55063 0.55507 0.9725 0.0
C567 C 0.56911 0.58356 0.95365 0.0
N568 N 0.56881 0.58279 0.91721 0.0
N569 N 0.48575 0.46768 0.99035 0.0
C570 C 0.55426 0.55361 0.93511 0.0
C571 C 0.51296 0.49586 0.97275 0.0
N572 N 0.51469 0.46317 0.91819 0.0
N573 N 0.57131 0.58478 0.9901 0.0
H574 H 0.4593 0.42415 0.9909 0.0
H575 H 0.48555 0.48731 1.00406 0.0
H576 H 0.59824 0.62827 0.99025 0.0
H577 H 0.56577 0.56636 1.00441 0.0
H578 H 0.53359 0.48021 0.90402 0.0
H579 H 0.49154 0.41945 0.91824 0.0
H580 H 0.55517 0.56444 0.90298 0.0
H581 H 0.59129 0.62651 0.91668 0.0
C582 C 0.96257 0.52779 0.27111 0.0
C583 C 1.01493 0.57983 0.27702 0.0
C584 C 0.0956 0.53464 0.28103 0.0
C585 C 1.04086 0.48159 0.27778 0.0
N586 N 0.91794 0.42707 0.27466 0.0
N587 N 0.127 0.63001 0.29218 0.0
C588 C 0.97301 0.47785 0.27409 0.0
C589 C 0.08053 0.58264 0.28319 0.0
N590 N 0.90365 0.52622 0.26215 0.0
N591 N 0.16214 0.53923 0.28164 0.0
H592 H 0.11595 0.66462 0.29531 0.0
H593 H 0.17321 0.63247 0.29857 0.0
H594 H 0.17475 0.50491 0.2795 0.0
H595 H 0.20474 0.57765 0.28217 0.0
H596 H 0.86641 0.48988 0.25589 0.0
H597 H 0.89566 0.56237 0.25907 0.0
H598 H 0.86684 0.42277 0.27386 0.0
H599 H 0.92273 0.38992 0.27828 0.0
C600 C 1.01909 0.05186 0.10828 0.0
C601 C 1.01656 0.07879 0.08978 0.0
C602 C 0.05784 1.01679 0.07134 0.0
C603 C 0.06545 0.99276 0.09003 0.0
N604 N 0.06287 0.9919 0.12651 0.0
N605 N 0.04399 0.09411 0.05426 0.0
C606 C 0.04858 1.01157 0.1086 0.0
C607 C 1.03879 0.06318 0.07143 0.0
N608 N 0.9918 0.06425 0.1254 0.0
N609 N 0.06609 0.99371 0.0535 0.0
H610 H 1.03002 0.12806 0.05389 0.0
H611 H 0.06726 0.08908 0.04094 0.0
H612 H 0.0791 0.95926 0.05294 0.0
H613 H 0.05452 1.00563 0.03935 0.0
H614 H 0.98624 0.04291 0.13912 0.0
H615 H 0.96951 0.09333 0.12538 0.0
H616 H 0.05757 1.00718 0.14069 0.0
H617 H 0.08565 0.96318 0.12708 0.0
C618 C 0.04329 0.0863 0.44749 0.0
C619 C 1.02518 0.10497 0.42906 0.0
C620 C 0.14297 0.12879 0.41611 0.0
C621 C 0.15737 0.10215 0.43329 0.0
N622 N 0.11664 0.0482 0.46419 0.0
N623 N 0.05624 0.14384 0.39556 0.0
C624 C 0.10671 0.07968 0.44886 0.0
C625 C 0.07494 0.12677 0.41335 0.0
N626 N 0.99927 0.07452 0.46369 0.0
N627 N 0.19474 0.15692 0.40266 0.0
H628 H 1.00848 0.14613 0.39371 0.0
H629 H 0.08656 0.15361 0.38249 0.0
H630 H 0.24492 0.15936 0.40434 0.0
H631 H 0.18972 0.18154 0.39082 0.0
H632 H 1.01202 0.06588 0.47821 0.0
H633 H 0.9526 0.07914 0.46303 0.0
H634 H 0.07842 1.02564 0.47462 0.0
H635 H 0.16062 0.03987 0.46543 0.0
C636 C 0.0892 0.04708 0.75711 0.0
C637 C 0.08796 0.08041 0.77396 0.0
C638 C 1.02206 0.9956 0.79362 0.0
C639 C 1.01712 0.96281 0.77612 0.0
N640 N 1.0396 0.95633 0.74067 0.0
N641 N 0.05023 0.08827 0.80769 0.0
C642 C 0.04928 0.98827 0.75771 0.0
C643 C 0.05358 0.05506 0.79211 0.0
N644 N 0.13075 0.07155 0.74089 0.0
N645 N 0.99797 0.96927 0.81173 0.0
H646 H 0.0731 0.13195 0.80682 0.0
H647 H 1.02108 0.07302 0.8208 0.0
H648 H 0.97669 0.9257 0.81312 0.0
H649 H 1.00428 0.99002 0.82554 0.0
H650 H 0.14013 0.04906 0.7291 0.0
H651 H 0.16033 0.11449 0.74001 0.0
H652 H 0.05503 0.97302 0.72621 0.0
H653 H 1.01179 0.91297 0.74078 0.0
C654 C 1.04169 0.13044 0.63004 0.0
C655 C 1.0035 0.10417 0.61243 0.0
C656 C 0.10554 0.09212 0.59931 0.0
C657 C 0.13947 0.11009 0.61816 0.0
N658 N 0.14048 0.14548 0.65187 0.0
N659 N 0.99588 0.0506 0.5819 0.0
C660 C 0.10783 0.12941 0.6336 0.0
C661 C 1.03488 0.08326 0.59731 0.0
N662 N 1.01533 0.15734 0.6431 0.0
N663 N 0.14043 0.08228 0.5834 0.0
H664 H 0.94297 0.03958 0.58047 0.0
H665 H 1.01422 1.02923 0.57178 0.0
H666 H 0.19175 0.0872 0.58447 0.0
H667 H 0.1208 0.0748 0.56867 0.0
H668 H 0.04304 0.18168 0.65521 0.0
H669 H 0.96754 0.15923 0.64079 0.0
H670 H 0.11711 0.15339 0.66468 0.0
H671 H 0.19065 0.14865 0.65437 0.0
C672 C 1.00091 1.00488 0.93607 0.0
C673 C 0.96728 0.98277 0.95469 0.0
C674 C 0.06777 0.04815 0.97345 0.0
C675 C 0.1034 0.0671 0.95483 0.0
N676 N 0.10897 0.05876 0.91866 0.0
N677 N 0.9709 0.977 0.99107 0.0
C678 C 0.07122 0.04407 0.93618 0.0
C679 C 1.00133 1.00276 0.97341 0.0
N680 N 0.96454 0.98922 0.91837 0.0
N681 N 0.09644 0.07505 0.99106 0.0
H682 H 0.92189 0.94435 0.99145 0.0
H683 H 0.99585 0.98519 1.00507 0.0
H684 H 0.14486 0.10846 0.99156 0.0
H685 H 0.07014 0.06727 1.00484 0.0
H686 H 0.98364 1.00704 0.90429 0.0
H687 H 0.91257 0.96147 0.91809 0.0
H688 H 0.09093 0.0402 0.90466 0.0
H689 H 0.16097 0.08648 0.91854 0.0
C690 C 1.042 1.00826 0.25319 0.0
C691 C 1.01031 0.97488 0.27036 0.0
C692 C 1.02019 0.0587 0.28903 0.0
C693 C 0.05759 0.09248 0.27251 0.0
N694 N 0.11043 0.10129 0.23975 0.0
N695 N 0.97712 0.96761 0.3055 0.0
C696 C 0.07025 0.06765 0.2548 0.0
C697 C 1.0014 0.99992 0.28854 0.0
N698 N 0.04305 0.98272 0.23521 0.0
N699 N 1.0001 0.0826 0.30475 0.0
H700 H 0.96196 0.9243 0.30547 0.0
H701 H 0.97665 0.98406 0.31986 0.0
H702 H 1.01295 0.12547 0.30553 0.0
H703 H 0.96626 0.05963 0.31615 0.0
H704 H 0.05989 1.00409 0.22154 0.0
H705 H 1.02137 0.93927 0.23368 0.0
H706 H 0.12711 0.08634 0.22712 0.0
H707 H 0.13155 0.14494 0.24073 0.0
loop_
_geom_bond_atom_site_label_1
_geom_bond_atom_site_label_2
_geom_bond_distance
_geom_bond_site_symmetry_2
_ccdc_geom_bond_type
Cu0 N1 1.999 . S
Cu0 O6 1.974 . S
Cu0 N11 1.985 . S
Cu0 O20 1.959 . S
N1 Cu0 1.999 . S
N1 C3 1.263 . S
N1 C5 1.389 . S
N2 C3 1.358 . S
N2 C4 1.400 . S
C3 N1 1.263 . S
C3 N2 1.358 . S
C3 H9 0.930 1_655 S
C4 N2 1.400 . S
C4 C5 1.351 . S
C4 H21 0.930 . S
C5 N1 1.389 . S
C5 C4 1.351 . S
C5 H10 0.930 . S
O6 Cu0 1.974 . S
O6 C16 1.282 1_655 S
C7 O8 1.261 1_655 S
C7 O20 1.251 . S
O8 C7 1.261 1_455 S
H9 C3 0.930 1_455 S
H10 C5 0.930 . S
N11 Cu0 1.985 . S
N11 C13 1.335 . S
N11 C14 1.390 1_655 S
N12 C13 1.345 . S
N12 C15 1.336 1_655 S
C13 N11 1.335 . S
C13 N12 1.345 . S
C13 H18 0.930 . S
C14 N11 1.390 1_455 S
C14 C15 1.346 . S
C14 H19 0.930 . S
C15 N12 1.336 1_455 S
C15 C14 1.346 . S
C15 H22 0.929 . S
C16 O6 1.282 1_455 S
C16 O17 1.216 . S
O17 C16 1.216 . S
H18 C13 0.930 . S
H19 C14 0.930 . S
O20 Cu0 1.959 . S
O20 C7 1.251 . S
H21 C4 0.930 . S
H22 C15 0.929 . S
Cu23 N24 1.999 . S
Cu23 O29 1.974 . S
Cu23 N34 1.985 . S
Cu23 O43 1.959 . S
N24 Cu23 1.999 . S
N24 C26 1.263 . S
N24 C28 1.389 . S
N25 C26 1.358 . S
N25 C27 1.400 . S
C26 N24 1.263 . S
C26 N25 1.358 . S
C26 H32 0.932 . S
C27 N25 1.400 . S
C27 C28 1.351 . S
C27 H44 0.930 . S
C28 N24 1.389 . S
C28 C27 1.351 . S
C28 H33 0.930 . S
O29 Cu23 1.974 . S
O29 C39 1.282 . S
C30 O31 1.261 1_545 S
C30 O43 1.251 . S
O31 C30 1.261 1_565 S
H32 C26 0.932 . S
H33 C28 0.930 . S
N34 Cu23 1.985 . S
N34 C36 1.335 . S
N34 C37 1.390 . S
N35 C36 1.345 . S
N35 C38 1.336 . S
C36 N34 1.335 . S
C36 N35 1.345 . S
C36 H41 0.930 . S
C37 N34 1.390 . S
C37 C38 1.346 . S
C37 H42 0.930 . S
C38 N35 1.336 . S
C38 C37 1.346 . S
C38 H45 0.929 . S
C39 O29 1.282 . S
C39 O40 1.216 1_545 S
O40 C39 1.216 1_565 S
H41 C36 0.930 . S
H42 C37 0.930 . S
O43 Cu23 1.959 . S
O43 C30 1.251 . S
H44 C27 0.930 . S
H45 C38 0.929 . S
Cu46 N47 1.999 . S
Cu46 O52 1.974 . S
Cu46 N57 1.985 . S
Cu46 O66 1.959 . S
N47 Cu46 1.999 . S
N47 C49 1.263 . S
N47 C51 1.389 . S
N48 C49 1.358 . S
N48 C50 1.400 . S
C49 N47 1.263 . S
C49 N48 1.358 . S
C49 H55 0.930 . S
C50 N48 1.400 . S
C50 C51 1.351 . S
C50 H67 0.930 . S
C51 N47 1.389 . S
C51 C50 1.351 . S
C51 H56 0.930 . S
O52 Cu46 1.974 . S
O52 C62 1.282 . S
C53 O54 1.261 . S
C53 O66 1.251 . S
O54 C53 1.261 . S
H55 C49 0.930 . S
H56 C51 0.930 . S
N57 Cu46 1.985 . S
N57 C59 1.335 . S
N57 C60 1.390 . S
N58 C59 1.345 . S
N58 C61 1.336 . S
C59 N57 1.335 . S
C59 N58 1.345 . S
C59 H64 0.930 . S
C60 N57 1.390 . S
C60 C61 1.346 . S
C60 H65 0.930 . S
C61 N58 1.336 . S
C61 C60 1.346 . S
C61 H68 0.929 . S
C62 O52 1.282 . S
C62 O63 1.216 . S
O63 C62 1.216 . S
H64 C59 0.930 . S
H65 C60 0.930 . S
O66 Cu46 1.959 . S
O66 C53 1.251 . S
H67 C50 0.930 . S
H68 C61 0.929 . S
Cu69 N70 1.999 . S
Cu69 O75 1.974 . S
Cu69 N80 1.985 . S
Cu69 O89 1.959 . S
N70 Cu69 1.999 . S
N70 C72 1.263 . S
N70 C74 1.389 . S
N71 C72 1.358 . S
N71 C73 1.400 . S
C72 N70 1.263 . S
C72 N71 1.358 . S
C72 H78 0.930 1_455 S
C73 N71 1.400 . S
C73 C74 1.351 . S
C73 H90 0.930 . S
C74 N70 1.389 . S
C74 C73 1.351 . S
C74 H79 0.930 . S
O75 Cu69 1.974 . S
O75 C85 1.282 1_455 S
C76 O77 1.261 1_455 S
C76 O89 1.251 . S
O77 C76 1.261 1_655 S
H78 C72 0.930 1_655 S
H79 C74 0.930 . S
N80 Cu69 1.985 . S
N80 C82 1.335 . S
N80 C83 1.390 1_455 S
N81 C82 1.345 . S
N81 C84 1.336 1_455 S
C82 N80 1.335 . S
C82 N81 1.345 . S
C82 H87 0.930 . S
C83 N80 1.390 1_655 S
C83 C84 1.346 . S
C83 H88 0.930 . S
C84 N81 1.336 1_655 S
C84 C83 1.346 . S
C84 H91 0.929 . S
C85 O75 1.282 1_655 S
C85 O86 1.216 . S
O86 C85 1.216 . S
H87 C82 0.930 . S
H88 C83 0.930 . S
O89 Cu69 1.959 . S
O89 C76 1.251 . S
H90 C73 0.930 . S
H91 C84 0.929 . S
Cu92 N93 1.999 . S
Cu92 O98 1.974 . S
Cu92 N103 1.985 . S
Cu92 O112 1.959 . S
N93 Cu92 1.999 . S
N93 C95 1.263 . S
N93 C97 1.389 . S
N94 C95 1.358 . S
N94 C96 1.400 . S
C95 N93 1.263 . S
C95 N94 1.358 . S
C95 H101 0.931 . S
C96 N94 1.400 . S
C96 C97 1.351 . S
C96 H113 0.930 . S
C97 N93 1.389 . S
C97 C96 1.351 . S
C97 H102 0.930 . S
O98 Cu92 1.974 . S
O98 C108 1.282 . S
C99 O100 1.261 1_565 S
C99 O112 1.251 . S
O100 C99 1.261 1_545 S
H101 C95 0.931 . S
H102 C97 0.930 . S
N103 Cu92 1.985 . S
N103 C105 1.335 . S
N103 C106 1.390 . S
N104 C105 1.345 . S
N104 C107 1.336 . S
C105 N103 1.335 . S
C105 N104 1.345 . S
C105 H110 0.930 . S
C106 N103 1.390 . S
C106 C107 1.346 . S
C106 H111 0.930 . S
C107 N104 1.336 . S
C107 C106 1.346 . S
C107 H114 0.929 . S
C108 O98 1.282 . S
C108 O109 1.216 1_565 S
O109 C108 1.216 1_545 S
H110 C105 0.930 . S
H111 C106 0.930 . S
O112 Cu92 1.959 . S
O112 C99 1.251 . S
H113 C96 0.930 . S
H114 C107 0.929 . S
Cu115 N116 1.999 . S
Cu115 O121 1.974 . S
Cu115 N126 1.985 . S
Cu115 O135 1.959 . S
N116 Cu115 1.999 . S
N116 C118 1.263 . S
N116 C120 1.389 . S
N117 C118 1.358 . S
N117 C119 1.400 . S
C118 N116 1.263 . S
C118 N117 1.358 . S
C118 H124 0.930 . S
C119 N117 1.400 . S
C119 C120 1.351 . S
C119 H136 0.930 . S
C120 N116 1.389 . S
C120 C119 1.351 . S
C120 H125 0.930 . S
O121 Cu115 1.974 . S
O121 C131 1.282 . S
C122 O123 1.261 . S
C122 O135 1.251 . S
O123 C122 1.261 . S
H124 C118 0.930 . S
H125 C120 0.930 . S
N126 Cu115 1.985 . S
N126 C128 1.335 . S
N126 C129 1.390 . S
N127 C128 1.345 . S
N127 C130 1.336 . S
C128 N126 1.335 . S
C128 N127 1.345 . S
C128 H133 0.930 . S
C129 N126 1.390 . S
C129 C130 1.346 . S
C129 H134 0.930 . S
C130 N127 1.336 . S
C130 C129 1.346 . S
C130 H137 0.929 . S
C131 O121 1.282 . S
C131 O132 1.216 . S
O132 C131 1.216 . S
H133 C128 0.930 . S
H134 C129 0.930 . S
O135 Cu115 1.959 . S
O135 C122 1.251 . S
H136 C119 0.930 . S
H137 C130 0.929 . S
Cu138 N139 1.999 . S
Cu138 O144 1.974 . S
Cu138 N149 1.985 . S
Cu138 O158 1.959 . S
N139 Cu138 1.999 . S
N139 C141 1.263 . S
N139 C143 1.389 . S
N140 C141 1.358 . S
N140 C142 1.400 . S
C141 N139 1.263 . S
C141 N140 1.358 . S
C141 H147 0.938 . S
C142 N140 1.400 . S
C142 C143 1.351 . S
C142 H159 0.930 . S
C143 N139 1.389 . S
C143 C142 1.351 . S
C143 H148 0.930 . S
O144 Cu138 1.974 . S
O144 C154 1.282 . S
C145 O146 1.261 1_565 S
C145 O158 1.251 . S
O146 C145 1.261 1_545 S
H147 C141 0.938 . S
H148 C143 0.930 . S
N149 Cu138 1.985 . S
N149 C151 1.335 . S
N149 C152 1.390 . S
N150 C151 1.345 . S
N150 C153 1.336 . S
C151 N149 1.335 . S
C151 N150 1.345 . S
C151 H156 0.930 . S
C152 N149 1.390 . S
C152 C153 1.346 . S
C152 H157 0.930 . S
C153 N150 1.336 . S
C153 C152 1.346 . S
C153 H160 0.929 . S
C154 O144 1.282 . S
C154 O155 1.216 1_565 S
O155 C154 1.216 1_545 S
H156 C151 0.930 . S
H157 C152 0.930 . S
O158 Cu138 1.959 . S
O158 C145 1.251 . S
H159 C142 0.930 . S
H160 C153 0.929 . S
Cu161 N162 1.999 . S
Cu161 O167 1.974 . S
Cu161 N172 1.985 . S
Cu161 O181 1.959 . S
N162 Cu161 1.999 . S
N162 C164 1.263 . S
N162 C166 1.389 . S
N163 C164 1.358 . S
N163 C165 1.400 . S
C164 N162 1.263 . S
C164 N163 1.358 . S
C164 H170 0.930 . S
C165 N163 1.400 . S
C165 C166 1.351 . S
C165 H182 0.930 . S
C166 N162 1.389 . S
C166 C165 1.351 . S
C166 H171 0.930 . S
O167 Cu161 1.974 . S
O167 C177 1.282 . S
C168 O169 1.261 . S
C168 O181 1.251 . S
O169 C168 1.261 . S
H170 C164 0.930 . S
H171 C166 0.930 . S
N172 Cu161 1.985 . S
N172 C174 1.335 . S
N172 C175 1.390 . S
N173 C174 1.345 . S
N173 C176 1.336 . S
C174 N172 1.335 . S
C174 N173 1.345 . S
C174 H179 0.930 . S
C175 N172 1.390 . S
C175 C176 1.346 . S
C175 H180 0.930 . S
C176 N173 1.336 . S
C176 C175 1.346 . S
C176 H183 0.929 . S
C177 O167 1.282 . S
C177 O178 1.216 . S
O178 C177 1.216 . S
H179 C174 0.930 . S
H180 C175 0.930 . S
O181 Cu161 1.959 . S
O181 C168 1.251 . S
H182 C165 0.930 . S
H183 C176 0.929 . S
Cu184 N185 1.999 . S
Cu184 O190 1.974 1_655 S
Cu184 N195 1.985 1_655 S
Cu184 O204 1.959 . S
N185 Cu184 1.999 . S
N185 C187 1.263 1_655 S
N185 C189 1.389 . S
N186 C187 1.358 1_655 S
N186 C188 1.400 . S
C187 N185 1.263 1_455 S
C187 N186 1.358 1_455 S
C187 H193 0.930 . S
C188 N186 1.400 . S
C188 C189 1.351 . S
C188 H205 0.930 . S
C189 N185 1.389 . S
C189 C188 1.351 . S
C189 H194 0.930 . S
O190 Cu184 1.974 1_455 S
O190 C200 1.282 . S
C191 O192 1.261 . S
C191 O204 1.251 1_455 S
O192 C191 1.261 . S
H193 C187 0.930 . S
H194 C189 0.930 . S
N195 Cu184 1.985 1_455 S
N195 C197 1.335 1_455 S
N195 C198 1.390 . S
N196 C197 1.345 1_455 S
N196 C199 1.336 . S
C197 N195 1.335 1_655 S
C197 N196 1.345 1_655 S
C197 H202 0.930 . S
C198 N195 1.390 . S
C198 C199 1.346 . S
C198 H203 0.930 . S
C199 N196 1.336 . S
C199 C198 1.346 . S
C199 H206 0.929 . S
C200 O190 1.282 . S
C200 O201 1.216 . S
O201 C200 1.216 . S
H202 C197 0.930 . S
H203 C198 0.930 . S
O204 Cu184 1.959 . S
O204 C191 1.251 1_655 S
H205 C188 0.930 . S
H206 C199 0.929 . S
Cu207 N208 1.999 . S
Cu207 O213 1.974 . S
Cu207 N218 1.985 . S
Cu207 O227 1.959 . S
N208 Cu207 1.999 . S
N208 C210 1.263 . S
N208 C212 1.389 . S
N209 C210 1.358 . S
N209 C211 1.400 . S
C210 N208 1.263 . S
C210 N209 1.358 . S
C210 H216 0.940 . S
C211 N209 1.400 . S
C211 C212 1.351 . S
C211 H228 0.930 . S
C212 N208 1.389 . S
C212 C211 1.351 . S
C212 H217 0.930 . S
O213 Cu207 1.974 . S
O213 C223 1.282 . S
C214 O215 1.261 1_545 S
C214 O227 1.251 . S
O215 C214 1.261 1_565 S
H216 C210 0.940 . S
H217 C212 0.930 . S
N218 Cu207 1.985 . S
N218 C220 1.335 . S
N218 C221 1.390 . S
N219 C220 1.345 . S
N219 C222 1.336 . S
C220 N218 1.335 . S
C220 N219 1.345 . S
C220 H225 0.930 . S
C221 N218 1.390 . S
C221 C222 1.346 . S
C221 H226 0.930 . S
C222 N219 1.336 . S
C222 C221 1.346 . S
C222 H229 0.929 . S
C223 O213 1.282 . S
C223 O224 1.216 1_545 S
O224 C223 1.216 1_565 S
H225 C220 0.930 . S
H226 C221 0.930 . S
O227 Cu207 1.959 . S
O227 C214 1.251 . S
H228 C211 0.930 . S
H229 C222 0.929 . S
Cu230 N231 1.999 . S
Cu230 O236 1.974 . S
Cu230 N241 1.985 . S
Cu230 O250 1.959 . S
N231 Cu230 1.999 . S
N231 C233 1.263 . S
N231 C235 1.389 . S
N232 C233 1.358 . S
N232 C234 1.400 . S
C233 N231 1.263 . S
C233 N232 1.358 . S
C233 H239 0.930 . S
C234 N232 1.400 . S
C234 C235 1.351 . S
C234 H251 0.930 . S
C235 N231 1.389 . S
C235 C234 1.351 . S
C235 H240 0.930 . S
O236 Cu230 1.974 . S
O236 C246 1.282 . S
C237 O238 1.261 . S
C237 O250 1.251 . S
O238 C237 1.261 . S
H239 C233 0.930 . S
H240 C235 0.930 . S
N241 Cu230 1.985 . S
N241 C243 1.335 . S
N241 C244 1.390 . S
N242 C243 1.345 . S
N242 C245 1.336 . S
C243 N241 1.335 . S
C243 N242 1.345 . S
C243 H248 0.930 . S
C244 N241 1.390 . S
C244 C245 1.346 . S
C244 H249 0.930 . S
C245 N242 1.336 . S
C245 C244 1.346 . S
C245 H252 0.929 . S
C246 O236 1.282 . S
C246 O247 1.216 . S
O247 C246 1.216 . S
H248 C243 0.930 . S
H249 C244 0.930 . S
O250 Cu230 1.959 . S
O250 C237 1.251 . S
H251 C234 0.930 . S
H252 C245 0.929 . S
Cu253 N254 1.999 . S
Cu253 O259 1.974 1_455 S
Cu253 N264 1.985 1_455 S
Cu253 O273 1.959 . S
N254 Cu253 1.999 . S
N254 C256 1.263 1_455 S
N254 C258 1.389 . S
N255 C256 1.358 1_455 S
N255 C257 1.400 . S
C256 N254 1.263 1_655 S
C256 N255 1.358 1_655 S
C256 H262 0.930 . S
C257 N255 1.400 . S
C257 C258 1.351 . S
C257 H274 0.930 . S
C258 N254 1.389 . S
C258 C257 1.351 . S
C258 H263 0.930 . S
O259 Cu253 1.974 1_655 S
O259 C269 1.282 . S
C260 O261 1.261 . S
C260 O273 1.251 1_655 S
O261 C260 1.261 . S
H262 C256 0.930 . S
H263 C258 0.930 . S
N264 Cu253 1.985 1_655 S
N264 C266 1.335 1_655 S
N264 C267 1.390 . S
N265 C266 1.345 1_655 S
N265 C268 1.336 . S
C266 N264 1.335 1_455 S
C266 N265 1.345 1_455 S
C266 H271 0.930 . S
C267 N264 1.390 . S
C267 C268 1.346 . S
C267 H272 0.930 . S
C268 N265 1.336 . S
C268 C267 1.346 . S
C268 H275 0.929 . S
C269 O259 1.282 . S
C269 O270 1.216 . S
O270 C269 1.216 . S
H271 C266 0.930 . S
H272 C267 0.930 . S
O273 Cu253 1.959 . S
O273 C260 1.251 1_455 S
H274 C257 0.930 . S
H275 C268 0.929 . S
C276 C277 1.363 . S
C276 C282 1.379 . S
C276 N284 1.356 . S
C277 C276 1.363 . S
C277 C283 1.363 1_655 S
C278 C279 1.371 . S
C278 C283 1.378 1_655 S
C278 N285 1.352 1_655 S
C279 C278 1.371 . S
C279 C282 1.363 . S
N280 C282 1.356 . S
N280 H292 0.984 . S
N280 H293 0.985 . S
N281 C283 1.356 . S
N281 H286 0.984 . S
N281 H287 0.985 . S
C282 C276 1.379 . S
C282 C279 1.363 . S
C282 N280 1.356 . S
C283 C277 1.363 1_455 S
C283 C278 1.378 1_455 S
C283 N281 1.356 . S
N284 C276 1.356 . S
N284 H290 0.984 . S
N284 H291 0.984 . S
N285 C278 1.352 1_455 S
N285 H288 0.984 1_455 S
N285 H289 0.985 . S
H286 N281 0.984 . S
H287 N281 0.985 . S
H288 N285 0.984 1_655 S
H289 N285 0.985 . S
H290 N284 0.984 . S
H291 N284 0.984 . S
H292 N280 0.984 . S
H293 N280 0.985 . S
C294 C295 1.356 1_565 S
C294 C300 1.379 . S
C294 N302 1.356 . S
C295 C294 1.356 1_545 S
C295 C301 1.370 . S
C296 C297 1.356 1_545 S
C296 C301 1.379 . S
C296 N303 1.356 . S
C297 C296 1.356 1_565 S
C297 C300 1.370 . S
N298 C300 1.356 . S
N298 H310 0.984 . S
N298 H311 0.985 . S
N299 C301 1.356 . S
N299 H304 0.984 . S
N299 H305 0.985 . S
C300 C294 1.379 . S
C300 C297 1.370 . S
C300 N298 1.356 . S
C301 C295 1.370 . S
C301 C296 1.379 . S
C301 N299 1.356 . S
N302 C294 1.356 . S
N302 H308 0.984 . S
N302 H309 0.984 . S
N303 C296 1.356 . S
N303 H306 0.984 . S
N303 H307 0.985 . S
H304 N299 0.984 . S
H305 N299 0.985 . S
H306 N303 0.984 . S
H307 N303 0.985 . S
H308 N302 0.984 . S
H309 N302 0.984 . S
H310 N298 0.984 . S
H311 N298 0.985 . S
C312 C313 1.363 . S
C312 C318 1.379 . S
C312 N320 1.356 . S
C313 C312 1.363 . S
C313 C319 1.363 . S
C314 C315 1.363 . S
C314 C319 1.379 . S
C314 N321 1.356 . S
C315 C314 1.363 . S
C315 C318 1.363 . S
N316 C318 1.356 . S
N316 H328 0.984 . S
N316 H329 0.985 . S
N317 C319 1.356 . S
N317 H322 0.984 . S
N317 H323 0.985 . S
C318 C312 1.379 . S
C318 C315 1.363 . S
C318 N316 1.356 . S
C319 C313 1.363 . S
C319 C314 1.379 . S
C319 N317 1.356 . S
N320 C312 1.356 . S
N320 H326 0.984 . S
N320 H327 0.984 . S
N321 C314 1.356 . S
N321 H324 0.984 . S
N321 H325 0.985 . S
H322 N317 0.984 . S
H323 N317 0.985 . S
H324 N321 0.984 . S
H325 N321 0.985 . S
H326 N320 0.984 . S
H327 N320 0.984 . S
H328 N316 0.984 . S
H329 N316 0.985 . S
C330 C331 1.363 1_655 S
C330 C336 1.379 . S
C330 N338 1.356 . S
C331 C330 1.363 1_455 S
C331 C337 1.363 . S
C332 C333 1.363 . S
C332 C337 1.379 . S
C332 N339 1.356 . S
C333 C332 1.363 . S
C333 C336 1.363 1_455 S
N334 C336 1.356 . S
N334 H346 0.984 . S
N334 H347 0.985 . S
N335 C337 1.356 . S
N335 H340 0.984 . S
N335 H341 0.985 . S
C336 C330 1.379 . S
C336 C333 1.363 1_655 S
C336 N334 1.356 . S
C337 C331 1.363 . S
C337 C332 1.379 . S
C337 N335 1.356 . S
N338 C330 1.356 . S
N338 H344 0.984 . S
N338 H345 0.984 . S
N339 C332 1.356 . S
N339 H342 0.984 . S
N339 H343 0.985 . S
H340 N335 0.984 . S
H341 N335 0.985 . S
H342 N339 0.984 . S
H343 N339 0.985 . S
H344 N338 0.984 . S
H345 N338 0.984 . S
H346 N334 0.984 . S
H347 N334 0.985 . S
C348 C349 1.378 . S
C348 C354 1.379 . S
C348 N356 1.356 . S
C349 C348 1.378 . S
C349 C355 1.347 1_545 S
C350 C351 1.377 . S
C350 C355 1.379 . S
C350 N357 1.356 . S
C351 C350 1.377 . S
C351 C354 1.349 1_565 S
N352 C354 1.356 . S
N352 H364 0.984 . S
N352 H365 0.985 . S
N353 C355 1.356 . S
N353 H358 0.984 . S
N353 H359 0.985 . S
C354 C348 1.379 . S
C354 C351 1.349 1_545 S
C354 N352 1.356 . S
C355 C349 1.347 1_565 S
C355 C350 1.379 . S
C355 N353 1.356 . S
N356 C348 1.356 . S
N356 H362 0.984 . S
N356 H363 0.984 . S
N357 C350 1.356 . S
N357 H360 0.984 . S
N357 H361 0.985 . S
H358 N353 0.984 . S
H359 N353 0.985 . S
H360 N357 0.984 . S
H361 N357 0.985 . S
H362 N356 0.984 . S
H363 N356 0.984 . S
H364 N352 0.984 . S
H365 N352 0.985 . S
C366 C367 1.363 . S
C366 C372 1.379 . S
C366 N374 1.356 . S
C367 C366 1.363 . S
C367 C373 1.363 . S
C368 C369 1.363 . S
C368 C373 1.379 . S
C368 N375 1.356 . S
C369 C368 1.363 . S
C369 C372 1.363 . S
N370 C372 1.356 . S
N370 H382 0.984 . S
N370 H383 0.985 . S
N371 C373 1.356 . S
N371 H376 0.984 . S
N371 H377 0.985 . S
C372 C366 1.379 . S
C372 C369 1.363 . S
C372 N370 1.356 . S
C373 C367 1.363 . S
C373 C368 1.379 . S
C373 N371 1.356 . S
N374 C366 1.356 . S
N374 H380 0.984 . S
N374 H381 0.984 . S
N375 C368 1.356 . S
N375 H378 0.984 . S
N375 H379 0.985 . S
H376 N371 0.984 . S
H377 N371 0.985 . S
H378 N375 0.984 . S
H379 N375 0.985 . S
H380 N374 0.984 . S
H381 N374 0.984 . S
H382 N370 0.984 . S
H383 N370 0.985 . S
C384 C385 1.363 . S
C384 C390 1.379 1_554 S
C384 N392 1.356 . S
C385 C384 1.363 . S
C385 C391 1.363 . S
C386 C387 1.363 . S
C386 C391 1.379 1_556 S
C386 N393 1.356 . S
C387 C386 1.363 . S
C387 C390 1.363 . S
N388 C390 1.356 . S
N388 H400 0.984 . S
N388 H401 0.985 . S
N389 C391 1.356 . S
N389 H394 0.984 . S
N389 H395 0.985 . S
C390 C384 1.379 1_556 S
C390 C387 1.363 . S
C390 N388 1.356 . S
C391 C385 1.363 . S
C391 C386 1.379 1_554 S
C391 N389 1.356 . S
N392 C384 1.356 . S
N392 H398 0.984 . S
N392 H399 0.984 . S
N393 C386 1.356 . S
N393 H396 0.984 . S
N393 H397 0.985 . S
H394 N389 0.984 . S
H395 N389 0.985 . S
H396 N393 0.984 . S
H397 N393 0.985 . S
H398 N392 0.984 . S
H399 N392 0.984 . S
H400 N388 0.984 . S
H401 N388 0.985 . S
C402 C403 1.363 . S
C402 C408 1.379 . S
C402 N410 1.356 . S
C403 C402 1.363 . S
C403 C409 1.363 . S
C404 C405 1.363 . S
C404 C409 1.379 . S
C404 N411 1.356 . S
C405 C404 1.363 . S
C405 C408 1.363 . S
N406 C408 1.356 . S
N406 H418 0.984 . S
N406 H419 0.985 . S
N407 C409 1.356 . S
N407 H412 0.984 . S
N407 H413 0.985 . S
C408 C402 1.379 . S
C408 C405 1.363 . S
C408 N406 1.356 . S
C409 C403 1.363 . S
C409 C404 1.379 . S
C409 N407 1.356 . S
N410 C402 1.356 . S
N410 H416 0.984 . S
N410 H417 0.984 . S
N411 C404 1.356 . S
N411 H414 0.984 . S
N411 H415 0.985 . S
H412 N407 0.984 . S
H413 N407 0.985 . S
H414 N411 0.984 . S
H415 N411 0.985 . S
H416 N410 0.984 . S
H417 N410 0.984 . S
H418 N406 0.984 . S
H419 N406 0.985 . S
C420 C421 1.363 . S
C420 C426 1.379 . S
C420 N428 1.356 . S
C421 C420 1.363 . S
C421 C427 1.363 . S
C422 C423 1.363 . S
C422 C427 1.379 . S
C422 N429 1.356 . S
C423 C422 1.363 . S
C423 C426 1.363 . S
N424 C426 1.356 . S
N424 H436 0.984 . S
N424 H437 0.985 . S
N425 C427 1.356 . S
N425 H430 0.984 . S
N425 H431 0.985 . S
C426 C420 1.379 . S
C426 C423 1.363 . S
C426 N424 1.356 . S
C427 C421 1.363 . S
C427 C422 1.379 . S
C427 N425 1.356 . S
N428 C420 1.356 . S
N428 H434 0.984 . S
N428 H435 0.984 . S
N429 C422 1.356 . S
N429 H432 0.984 . S
N429 H433 0.985 . S
H430 N425 0.984 . S
H431 N425 0.985 . S
H432 N429 0.984 . S
H433 N429 0.985 . S
H434 N428 0.984 . S
H435 N428 0.984 . S
H436 N424 0.984 . S
H437 N424 0.985 . S
C438 C439 1.363 . S
C438 C444 1.379 1_554 S
C438 N446 1.356 . S
C439 C438 1.363 . S
C439 C445 1.363 . S
C440 C441 1.363 . S
C440 C445 1.379 1_556 S
C440 N447 1.356 . S
C441 C440 1.363 . S
C441 C444 1.363 . S
N442 C444 1.356 . S
N442 H454 0.984 . S
N442 H455 0.985 . S
N443 C445 1.356 . S
N443 H448 0.984 . S
N443 H449 0.985 . S
C444 C438 1.379 1_556 S
C444 C441 1.363 . S
C444 N442 1.356 . S
C445 C439 1.363 . S
C445 C440 1.379 1_554 S
C445 N443 1.356 . S
N446 C438 1.356 . S
N446 H452 0.984 . S
N446 H453 0.984 . S
N447 C440 1.356 . S
N447 H450 0.984 . S
N447 H451 0.985 . S
H448 N443 0.984 . S
H449 N443 0.985 . S
H450 N447 0.984 . S
H451 N447 0.985 . S
H452 N446 0.984 . S
H453 N446 0.984 . S
H454 N442 0.984 . S
H455 N442 0.985 . S
C456 C457 1.363 . S
C456 C462 1.379 . S
C456 N464 1.356 . S
C457 C456 1.363 . S
C457 C463 1.363 . S
C458 C459 1.363 . S
C458 C463 1.379 . S
C458 N465 1.356 . S
C459 C458 1.363 . S
C459 C462 1.363 . S
N460 C462 1.356 . S
N460 H472 0.984 . S
N460 H473 0.985 . S
N461 C463 1.356 . S
N461 H466 0.984 . S
N461 H467 0.985 . S
C462 C456 1.379 . S
C462 C459 1.363 . S
C462 N460 1.356 . S
C463 C457 1.363 . S
C463 C458 1.379 . S
C463 N461 1.356 . S
N464 C456 1.356 . S
N464 H470 0.984 . S
N464 H471 0.984 . S
N465 C458 1.356 . S
N465 H468 0.984 . S
N465 H469 0.985 . S
H466 N461 0.984 . S
H467 N461 0.985 . S
H468 N465 0.984 . S
H469 N465 0.985 . S
H470 N464 0.984 . S
H471 N464 0.984 . S
H472 N460 0.984 . S
H473 N460 0.985 . S
C474 C475 1.363 . S
C474 C480 1.379 . S
C474 N482 1.356 . S
C475 C474 1.363 . S
C475 C481 1.363 . S
C476 C477 1.363 . S
C476 C481 1.379 . S
C476 N483 1.356 . S
C477 C476 1.363 . S
C477 C480 1.363 . S
N478 C480 1.356 . S
N478 H490 0.984 . S
N478 H491 0.985 . S
N479 C481 1.356 . S
N479 H484 0.984 . S
N479 H485 0.985 . S
C480 C474 1.379 . S
C480 C477 1.363 . S
C480 N478 1.356 . S
C481 C475 1.363 . S
C481 C476 1.379 . S
C481 N479 1.356 . S
N482 C474 1.356 . S
N482 H488 0.984 . S
N482 H489 0.984 . S
N483 C476 1.356 . S
N483 H486 0.984 . S
N483 H487 0.985 . S
H484 N479 0.984 . S
H485 N479 0.985 . S
H486 N483 0.984 . S
H487 N483 0.985 . S
H488 N482 0.984 . S
H489 N482 0.984 . S
H490 N478 0.984 . S
H491 N478 0.985 . S
C492 C493 1.363 . S
C492 C498 1.379 . S
C492 N500 1.356 . S
C493 C492 1.363 . S
C493 C499 1.363 1_455 S
C494 C495 1.363 . S
C494 C499 1.379 . S
C494 N501 1.356 . S
C495 C494 1.363 . S
C495 C498 1.363 1_655 S
N496 C498 1.356 . S
N496 H508 0.984 . S
N496 H509 0.985 . S
N497 C499 1.356 . S
N497 H502 0.984 . S
N497 H503 0.985 . S
C498 C492 1.379 . S
C498 C495 1.363 1_455 S
C498 N496 1.356 . S
C499 C493 1.363 1_655 S
C499 C494 1.379 . S
C499 N497 1.356 . S
N500 C492 1.356 . S
N500 H506 0.984 . S
N500 H507 0.984 . S
N501 C494 1.356 . S
N501 H504 0.984 . S
N501 H505 0.985 . S
H502 N497 0.984 . S
H503 N497 0.985 . S
H504 N501 0.984 . S
H505 N501 0.985 . S
H506 N500 0.984 . S
H507 N500 0.984 . S
H508 N496 0.984 . S
H509 N496 0.985 . S
C510 C511 1.363 . S
C510 C516 1.379 . S
C510 N518 1.356 . S
C511 C510 1.363 . S
C511 C517 1.363 1_545 S
C512 C513 1.363 . S
C512 C517 1.379 . S
C512 N519 1.356 . S
C513 C512 1.363 . S
C513 C516 1.363 1_565 S
N514 C516 1.356 . S
N514 H526 0.984 . S
N514 H527 0.985 . S
N515 C517 1.356 . S
N515 H520 0.984 . S
N515 H521 0.985 . S
C516 C510 1.379 . S
C516 C513 1.363 1_545 S
C516 N514 1.356 . S
C517 C511 1.363 1_565 S
C517 C512 1.379 . S
C517 N515 1.356 . S
N518 C510 1.356 . S
N518 H524 0.984 . S
N518 H525 0.984 . S
N519 C512 1.356 . S
N519 H522 0.984 . S
N519 H523 0.985 . S
H520 N515 0.984 . S
H521 N515 0.985 . S
H522 N519 0.984 . S
H523 N519 0.985 . S
H524 N518 0.984 . S
H525 N518 0.984 . S
H526 N514 0.984 . S
H527 N514 0.985 . S
C528 C529 1.363 . S
C528 C534 1.379 . S
C528 N536 1.356 . S
C529 C528 1.363 . S
C529 C535 1.363 . S
C530 C531 1.363 . S
C530 C535 1.379 . S
C530 N537 1.356 . S
C531 C530 1.363 . S
C531 C534 1.363 . S
N532 C534 1.356 . S
N532 H544 0.984 . S
N532 H545 0.985 . S
N533 C535 1.356 . S
N533 H538 0.984 . S
N533 H539 0.985 . S
C534 C528 1.379 . S
C534 C531 1.363 . S
C534 N532 1.356 . S
C535 C529 1.363 . S
C535 C530 1.379 . S
C535 N533 1.356 . S
N536 C528 1.356 . S
N536 H542 0.984 . S
N536 H543 0.984 . S
N537 C530 1.356 . S
N537 H540 0.984 . S
N537 H541 0.985 . S
H538 N533 0.984 . S
H539 N533 0.985 . S
H540 N537 0.984 . S
H541 N537 0.985 . S
H542 N536 0.984 . S
H543 N536 0.984 . S
H544 N532 0.984 . S
H545 N532 0.985 . S
C546 C547 1.363 1_565 S
C546 C552 1.379 . S
C546 N554 1.356 . S
C547 C546 1.363 1_545 S
C547 C553 1.363 . S
C548 C549 1.363 1_545 S
C548 C553 1.379 . S
C548 N555 1.356 . S
C549 C548 1.363 1_565 S
C549 C552 1.363 . S
N550 C552 1.356 . S
N550 H562 0.984 . S
N550 H563 0.985 . S
N551 C553 1.356 . S
N551 H556 0.984 . S
N551 H557 0.985 . S
C552 C546 1.379 . S
C552 C549 1.363 . S
C552 N550 1.356 . S
C553 C547 1.363 . S
C553 C548 1.379 . S
C553 N551 1.356 . S
N554 C546 1.356 . S
N554 H560 0.984 . S
N554 H561 0.984 . S
N555 C548 1.356 . S
N555 H558 0.984 . S
N555 H559 0.985 . S
H556 N551 0.984 . S
H557 N551 0.985 . S
H558 N555 0.984 . S
H559 N555 0.985 . S
H560 N554 0.984 . S
H561 N554 0.984 . S
H562 N550 0.984 . S
H563 N550 0.985 . S
C564 C565 1.363 . S
C564 C570 1.379 . S
C564 N572 1.356 . S
C565 C564 1.363 . S
C565 C571 1.363 . S
C566 C567 1.363 . S
C566 C571 1.379 . S
C566 N573 1.356 . S
C567 C566 1.363 . S
C567 C570 1.363 . S
N568 C570 1.356 . S
N568 H580 0.984 . S
N568 H581 0.985 . S
N569 C571 1.356 . S
N569 H574 0.984 . S
N569 H575 0.985 . S
C570 C564 1.379 . S
C570 C567 1.363 . S
C570 N568 1.356 . S
C571 C565 1.363 . S
C571 C566 1.379 . S
C571 N569 1.356 . S
N572 C564 1.356 . S
N572 H578 0.984 . S
N572 H579 0.984 . S
N573 C566 1.356 . S
N573 H576 0.984 . S
N573 H577 0.985 . S
H574 N569 0.984 . S
H575 N569 0.985 . S
H576 N573 0.984 . S
H577 N573 0.985 . S
H578 N572 0.984 . S
H579 N572 0.984 . S
H580 N568 0.984 . S
H581 N568 0.985 . S
C582 C583 1.363 . S
C582 C588 1.379 . S
C582 N590 1.356 . S
C583 C582 1.363 . S
C583 C589 1.363 1_655 S
C584 C585 1.363 . S
C584 C589 1.379 . S
C584 N591 1.356 . S
C585 C584 1.363 . S
C585 C588 1.363 1_455 S
N586 C588 1.356 . S
N586 H598 0.984 . S
N586 H599 0.985 . S
N587 C589 1.356 . S
N587 H592 0.984 . S
N587 H593 0.985 . S
C588 C582 1.379 . S
C588 C585 1.363 1_655 S
C588 N586 1.356 . S
C589 C583 1.363 1_455 S
C589 C584 1.379 . S
C589 N587 1.356 . S
N590 C582 1.356 . S
N590 H596 0.984 . S
N590 H597 0.984 . S
N591 C584 1.356 . S
N591 H594 0.984 . S
N591 H595 0.985 . S
H592 N587 0.984 . S
H593 N587 0.985 . S
H594 N591 0.984 . S
H595 N591 0.985 . S
H596 N590 0.984 . S
H597 N590 0.984 . S
H598 N586 0.984 . S
H599 N586 0.985 . S
C600 C601 1.363 1_455 S
C600 C606 1.379 1_545 S
C600 N608 1.356 . S
C601 C600 1.363 1_655 S
C601 C607 1.363 . S
C602 C603 1.363 1_655 S
C602 C607 1.379 1_565 S
C602 N609 1.356 . S
C603 C602 1.363 1_455 S
C603 C606 1.363 . S
N604 C606 1.356 . S
N604 H616 0.984 . S
N604 H617 0.985 . S
N605 C607 1.356 . S
N605 H610 0.984 . S
N605 H611 0.985 . S
C606 C600 1.379 1_565 S
C606 C603 1.363 . S
C606 N604 1.356 . S
C607 C601 1.363 . S
C607 C602 1.379 1_545 S
C607 N605 1.356 . S
N608 C600 1.356 . S
N608 H614 0.984 . S
N608 H615 0.984 . S
N609 C602 1.356 . S
N609 H612 0.984 . S
N609 H613 0.985 . S
H610 N605 0.984 . S
H611 N605 0.985 . S
H612 N609 0.984 . S
H613 N609 0.985 . S
H614 N608 0.984 . S
H615 N608 0.984 . S
H616 N604 0.984 . S
H617 N604 0.985 . S
C618 C619 1.363 . S
C618 C624 1.379 1_655 S
C618 N626 1.356 . S
C619 C618 1.363 . S
C619 C625 1.363 1_545 S
C620 C621 1.363 . S
C620 C625 1.379 1_455 S
C620 N627 1.356 . S
C621 C620 1.363 . S
C621 C624 1.363 1_565 S
N622 C624 1.356 . S
N622 H634 0.984 . S
N622 H635 0.985 . S
N623 C625 1.356 . S
N623 H628 0.984 . S
N623 H629 0.985 . S
C624 C618 1.379 1_455 S
C624 C621 1.363 1_545 S
C624 N622 1.356 . S
C625 C619 1.363 1_565 S
C625 C620 1.379 1_655 S
C625 N623 1.356 . S
N626 C618 1.356 . S
N626 H632 0.984 . S
N626 H633 0.984 . S
N627 C620 1.356 . S
N627 H630 0.984 . S
N627 H631 0.991 . S
H628 N623 0.984 . S
H629 N623 0.985 . S
H630 N627 0.984 . S
H631 N627 0.991 . S
H632 N626 0.984 . S
H633 N626 0.984 . S
H634 N622 0.984 . S
H635 N622 0.985 . S
C636 C637 1.354 1_655 S
C636 C642 1.384 1_545 S
C636 N644 1.358 1_655 S
C637 C636 1.354 1_455 S
C637 C643 1.363 . S
C638 C639 1.365 . S
C638 C643 1.378 1_665 S
C638 N645 1.356 . S
C639 C638 1.365 . S
C639 C642 1.363 . S
N640 C642 1.356 . S
N640 H652 0.984 . S
N640 H653 0.985 . S
N641 C643 1.356 . S
N641 H646 0.984 . S
N641 H647 0.985 . S
C642 C636 1.384 1_565 S
C642 C639 1.363 . S
C642 N640 1.356 . S
C643 C637 1.363 . S
C643 C638 1.378 1_445 S
C643 N641 1.356 . S
N644 C636 1.358 1_455 S
N644 H650 0.984 1_455 S
N644 H651 0.984 . S
N645 C638 1.356 . S
N645 H648 0.984 . S
N645 H649 0.985 1_655 S
H646 N641 0.984 . S
H647 N641 0.985 . S
H648 N645 0.984 . S
H649 N645 0.985 1_455 S
H650 N644 0.984 1_655 S
H651 N644 0.984 . S
H652 N640 0.984 . S
H653 N640 0.985 . S
C654 C655 1.363 1_545 S
C654 C660 1.379 1_655 S
C654 N662 1.356 . S
C655 C654 1.363 1_565 S
C655 C661 1.363 . S
C656 C657 1.363 1_565 S
C656 C661 1.379 1_455 S
C656 N663 1.356 . S
C657 C656 1.363 1_545 S
C657 C660 1.363 . S
N658 C660 1.356 . S
N658 H670 0.984 . S
N658 H671 0.985 . S
N659 C661 1.356 . S
N659 H664 0.984 . S
N659 H665 0.985 . S
C660 C654 1.379 1_455 S
C660 C657 1.363 . S
C660 N658 1.356 . S
C661 C655 1.363 . S
C661 C656 1.379 1_655 S
C661 N659 1.356 . S
N662 C654 1.356 . S
N662 H668 0.984 . S
N662 H669 0.984 . S
N663 C656 1.356 . S
N663 H666 0.984 . S
N663 H667 0.985 . S
H664 N659 0.984 . S
H665 N659 0.985 . S
H666 N663 0.984 . S
H667 N663 0.985 . S
H668 N662 0.984 . S
H669 N662 0.984 . S
H670 N658 0.984 . S
H671 N658 0.985 . S
C672 C673 1.363 . S
C672 C678 1.379 1_665 S
C672 N680 1.356 . S
C673 C672 1.363 . S
C673 C679 1.363 . S
C674 C675 1.363 . S
C674 C679 1.379 1_445 S
C674 N681 1.356 . S
C675 C674 1.363 . S
C675 C678 1.363 . S
N676 C678 1.356 . S
N676 H688 0.984 . S
N676 H689 0.985 . S
N677 C679 1.356 . S
N677 H682 0.984 . S
N677 H683 0.985 . S
C678 C672 1.379 1_445 S
C678 C675 1.363 . S
C678 N676 1.356 . S
C679 C673 1.363 . S
C679 C674 1.379 1_665 S
C679 N677 1.356 . S
N680 C672 1.356 . S
N680 H686 0.984 . S
N680 H687 0.984 . S
N681 C674 1.356 . S
N681 H684 0.984 . S
N681 H685 0.985 . S
H682 N677 0.984 . S
H683 N677 0.985 . S
H684 N681 0.984 . S
H685 N681 0.985 . S
H686 N680 0.984 . S
H687 N680 0.984 . S
H688 N676 0.984 . S
H689 N676 0.985 . S
C690 C691 1.363 1_455 S
C690 C696 1.379 1_565 S
C690 N698 1.356 . S
C691 C690 1.363 1_655 S
C691 C697 1.363 . S
C692 C693 1.363 1_655 S
C692 C697 1.379 1_545 S
C692 N699 1.356 . S
C693 C692 1.363 1_455 S
C693 C696 1.363 . S
N694 C696 1.356 . S
N694 H706 0.984 . S
N694 H707 0.985 . S
N695 C697 1.356 . S
N695 H700 0.984 . S
N695 H701 0.985 . S
C696 C690 1.379 1_545 S
C696 C693 1.363 . S
C696 N694 1.356 . S
C697 C691 1.363 . S
C697 C692 1.379 1_565 S
C697 N695 1.356 . S
N698 C690 1.356 . S
N698 H704 0.984 . S
N698 H705 0.984 . S
N699 C692 1.356 . S
N699 H702 0.984 . S
N699 H703 0.985 . S
H700 N695 0.984 . S
H701 N695 0.985 . S
H702 N699 0.984 . S
H703 N699 0.985 . S
H704 N698 0.984 . S
H705 N698 0.984 . S
H706 N694 0.984 . S
H707 N694 0.985 . S
C277 C260 1.634 . S
C279 C7 1.634 . S
C295 N25 1.524 . S
C297 N140 1.527 . S
C313 C53 1.634 . S
C315 C168 1.635 . S
C331 C76 1.635 . S
C333 C191 1.634 . S
C349 N209 1.526 . S
C351 N94 1.523 . S
C367 C122 1.634 . S
C369 C237 1.635 . S
C385 C16 1.585 . S
C387 C246 1.584 . S
C403 N35 1.583 . S
C405 C269 1.572 . S
C421 C62 1.572 . S
C423 N150 1.584 . S
C439 C85 1.584 . S
C441 C177 1.584 . S
C457 C200 1.572 . S
C459 N104 1.584 . S
C475 N219 1.584 . S
C477 C131 1.572 . S
C493 N81 1.458 . S
C495 N12 1.457 . S
C511 C39 1.522 . S
C513 C108 1.522 . S
C529 N127 1.482 . S
C531 N58 1.482 . S
C547 C223 1.522 . S
C549 C154 1.522 . S
C565 N242 1.458 . S
C567 N173 1.458 . S
C583 N196 1.482 1_655 S
C585 N265 1.482 1_455 S
C601 N2 1.482 . S
C603 N71 1.482 . S
C619 C30 1.694 . S
C621 C99 1.694 . S
C637 N117 1.413 . S
C639 N48 1.413 . S
C655 C145 1.694 . S
C657 C214 1.694 . S
C673 N163 1.482 . S
C675 N232 1.482 . S
C691 N186 1.413 . S
C693 N255 1.413 . S
