# Generated by pormake.
# Topology sne, (6)-cn, num edge types: 1
# Building blocks:
#     Node 0, Type 0, BuildingBlock: IZENUY_clean_sbu_0, # of connection points: 6
#     Node 1, Type 0, BuildingBlock: IZENUY_clean_sbu_0, # of connection points: 6
#     Node 2, Type 0, BuildingBlock: IZENUY_clean_sbu_0, # of connection points: 6
#     Node 3, Type 0, BuildingBlock: IZENUY_clean_sbu_0, # of connection points: 6
#     Node 4, Type 0, BuildingBlock: IZENUY_clean_sbu_0, # of connection points: 6
#     Node 5, Type 0, BuildingBlock: IZENUY_clean_sbu_0, # of connection points: 6
#     Node 6, Type 0, BuildingBlock: IZENUY_clean_sbu_0, # of connection points: 6
#     Node 7, Type 0, BuildingBlock: IZENUY_clean_sbu_0, # of connection points: 6
#     Edge 8, Type (0, 0), BuildingBlock: ZUJKAS_clean_linker_0, # of connection points: 2
#     Edge 9, Type (0, 0), BuildingBlock: ZUJKAS_clean_linker_0, # of connection points: 2
#     Edge 10, Type (0, 0), BuildingBlock: ZUJKAS_clean_linker_0, # of connection points: 2
#     Edge 11, Type (0, 0), BuildingBlock: ZUJKAS_clean_linker_0, # of connection points: 2
#     Edge 12, Type (0, 0), BuildingBlock: ZUJKAS_clean_linker_0, # of connection points: 2
#     Edge 13, Type (0, 0), BuildingBlock: ZUJKAS_clean_linker_0, # of connection points: 2
#     Edge 14, Type (0, 0), BuildingBlock: ZUJKAS_clean_linker_0, # of connection points: 2
#     Edge 15, Type (0, 0), BuildingBlock: ZUJKAS_clean_linker_0, # of connection points: 2
#     Edge 16, Type (0, 0), BuildingBlock: ZUJKAS_clean_linker_0, # of connection points: 2
#     Edge 17, Type (0, 0), BuildingBlock: ZUJKAS_clean_linker_0, # of connection points: 2
#     Edge 18, Type (0, 0), BuildingBlock: ZUJKAS_clean_linker_0, # of connection points: 2
#     Edge 19, Type (0, 0), BuildingBlock: ZUJKAS_clean_linker_0, # of connection points: 2
#     Edge 20, Type (0, 0), BuildingBlock: ZUJKAS_clean_linker_0, # of connection points: 2
#     Edge 21, Type (0, 0), BuildingBlock: ZUJKAS_clean_linker_0, # of connection points: 2
#     Edge 22, Type (0, 0), BuildingBlock: ZUJKAS_clean_linker_0, # of connection points: 2
#     Edge 23, Type (0, 0), BuildingBlock: ZUJKAS_clean_linker_0, # of connection points: 2
#     Edge 24, Type (0, 0), BuildingBlock: ZUJKAS_clean_linker_0, # of connection points: 2
#     Edge 25, Type (0, 0), BuildingBlock: ZUJKAS_clean_linker_0, # of connection points: 2
#     Edge 26, Type (0, 0), BuildingBlock: ZUJKAS_clean_linker_0, # of connection points: 2
#     Edge 27, Type (0, 0), BuildingBlock: ZUJKAS_clean_linker_0, # of connection points: 2
#     Edge 28, Type (0, 0), BuildingBlock: ZUJKAS_clean_linker_0, # of connection points: 2
#     Edge 29, Type (0, 0), BuildingBlock: ZUJKAS_clean_linker_0, # of connection points: 2
#     Edge 30, Type (0, 0), BuildingBlock: ZUJKAS_clean_linker_0, # of connection points: 2
#     Edge 31, Type (0, 0), BuildingBlock: ZUJKAS_clean_linker_0, # of connection points: 2
# Relax obj value: 0.264
# Max RMSD: 0.254
# Mean RMSD: 0.252
data_MOF--net-sne--node1-IZENUY_clean_sbu_0--edge1-ZUJKAS_clean_linker_0
_symmetry_space_group_name_H-M    P1
_symmetry_Int_Tables_number       1
_symmetry_cell_setting            triclinic
loop_
_symmetry_equiv_pos_as_xyz
'x, y, z'
_cell_length_a     45.288052
_cell_length_b     45.064349
_cell_length_c     33.290468
_cell_angle_alpha  89.983188
_cell_angle_beta   90.308775
_cell_angle_gamma 89.946954
loop_
_atom_site_label
_atom_site_type_symbol
_atom_site_fract_x
_atom_site_fract_y
_atom_site_fract_z
_atom_type_partial_charge
Fe0 Fe 0.23522 0.17469 0.34957 0.0
Fe1 Fe 0.20836 0.11336 0.33525 0.0
O2 O 0.23729 0.13558 0.35476 0.0
Fe3 Fe 0.26804 0.11935 0.37954 0.0
O4 O 0.26129 0.14051 0.42526 0.0
O5 O 0.25638 0.18313 0.39456 0.0
O6 O 0.20211 0.17588 0.38007 0.0
C7 C 0.17898 0.16134 0.37195 0.0
C8 C 0.29277 0.16393 0.33027 0.0
O9 O 0.17941 0.14064 0.34618 0.0
C10 C 0.25966 0.07939 0.31829 0.0
O11 O 0.21346 0.17421 0.30348 0.0
O12 O 0.21404 0.12772 0.28456 0.0
O13 O 0.29423 0.14675 0.36042 0.0
O14 O 0.26843 0.17513 0.31904 0.0
C15 C 0.21961 0.08513 0.40701 0.0
O16 O 0.23203 0.08224 0.32167 0.0
O17 O 0.27727 0.09653 0.33639 0.0
C18 C 0.21189 0.15492 0.27621 0.0
O19 O 0.20076 0.09724 0.38417 0.0
O20 O 0.24697 0.08927 0.40217 0.0
C21 C 0.25944 0.16839 0.42639 0.0
Fe22 Fe 0.17128 0.75811 0.62078 0.0
Fe23 Fe 0.1084 0.77835 0.63854 0.0
O24 O 0.13288 0.75339 0.61469 0.0
Fe25 Fe 0.11879 0.72387 0.58527 0.0
O26 O 0.13658 0.69652 0.61628 0.0
O27 O 0.18006 0.71818 0.62017 0.0
O28 O 0.1684 0.75425 0.67429 0.0
C29 C 0.15367 0.77127 0.69621 0.0
C30 C 0.16927 0.74304 0.54176 0.0
O31 O 0.13305 0.78684 0.68144 0.0
C32 C 0.07968 0.76649 0.56413 0.0
O33 O 0.1693 0.79911 0.62241 0.0
O34 O 0.12256 0.80892 0.60978 0.0
O35 O 0.14953 0.72386 0.54912 0.0
O36 O 0.17661 0.76195 0.56767 0.0
C37 C 0.08077 0.72611 0.65293 0.0
O38 O 0.07909 0.77485 0.60044 0.0
O39 O 0.09963 0.74923 0.55208 0.0
C40 C 0.1493 0.81652 0.60943 0.0
O41 O 0.09296 0.74869 0.6681 0.0
O42 O 0.08588 0.71852 0.61686 0.0
C43 C 0.16358 0.69578 0.62508 0.0
Fe44 Fe 0.7447 0.8228 0.36109 0.0
Fe45 Fe 0.7196 0.88057 0.39499 0.0
O46 O 0.74793 0.86151 0.36918 0.0
Fe47 Fe 0.77929 0.88064 0.35096 0.0
O48 O 0.77167 0.86922 0.29936 0.0
O49 O 0.76555 0.82241 0.3147 0.0
O50 O 0.71171 0.82839 0.33087 0.0
C51 C 0.68903 0.84186 0.34312 0.0
C52 C 0.80253 0.82747 0.38323 0.0
O53 O 0.68979 0.85726 0.37495 0.0
C54 C 0.77209 0.90823 0.42358 0.0
O55 O 0.72293 0.81545 0.40587 0.0
O56 O 0.72423 0.85722 0.43939 0.0
O57 O 0.80443 0.84948 0.35965 0.0
O58 O 0.77782 0.81566 0.39073 0.0
C59 C 0.73244 0.92085 0.33558 0.0
O60 O 0.74438 0.90726 0.41881 0.0
O61 O 0.78917 0.89392 0.40079 0.0
C62 C 0.72131 0.82939 0.43861 0.0
O63 O 0.71296 0.90539 0.35275 0.0
O64 O 0.75957 0.91494 0.33968 0.0
C65 C 0.76847 0.84256 0.28885 0.0
Fe66 Fe 0.87459 0.27731 0.60277 0.0
Fe67 Fe 0.88028 0.21804 0.64859 0.0
O68 O 0.85819 0.24607 0.62613 0.0
Fe69 Fe 0.81924 0.2426 0.62721 0.0
O70 O 0.81247 0.26258 0.58059 0.0
O71 O 0.85627 0.26985 0.55494 0.0
O72 O 0.90633 0.25671 0.5837 0.0
C73 C 0.91154 0.22925 0.57985 0.0
C74 C 0.82653 0.30126 0.64611 0.0
O75 O 0.89869 0.21023 0.60146 0.0
C76 C 0.83605 0.22236 0.70354 0.0
O77 O 0.89451 0.28766 0.64825 0.0
O78 O 0.90987 0.24292 0.66421 0.0
O79 O 0.81586 0.27649 0.65646 0.0
O80 O 0.84553 0.30304 0.61838 0.0
C81 C 0.83577 0.18602 0.60844 0.0
O82 O 0.86349 0.22405 0.69764 0.0
O83 O 0.81825 0.22209 0.67428 0.0
C84 C 0.91157 0.27076 0.66776 0.0
O85 O 0.85475 0.18793 0.63636 0.0
O86 O 0.82085 0.20848 0.59789 0.0
C87 C 0.82868 0.26763 0.55073 0.0
Fe88 Fe 0.28433 0.38456 0.83458 0.0
Fe89 Fe 0.25182 0.32568 0.84677 0.0
O90 O 0.25409 0.36456 0.85443 0.0
Fe91 Fe 0.22599 0.38272 0.88213 0.0
O92 O 0.21703 0.40724 0.84054 0.0
O93 O 0.26276 0.4176 0.82257 0.0
O94 O 0.27661 0.37202 0.78354 0.0
C95 C 0.27617 0.34507 0.77386 0.0
C96 C 0.278 0.41279 0.90724 0.0
O97 O 0.27202 0.32523 0.79978 0.0
C98 C 0.23237 0.33164 0.9255 0.0
O99 O 0.31094 0.35459 0.8438 0.0
O100 O 0.28569 0.31975 0.8751 0.0
O101 O 0.25027 0.41054 0.90443 0.0
O102 O 0.29477 0.3991 0.88347 0.0
C103 C 0.19506 0.3429 0.83185 0.0
O104 O 0.23148 0.31809 0.89247 0.0
O105 O 0.23315 0.35961 0.92625 0.0
C106 C 0.30991 0.3324 0.86724 0.0
O107 O 0.21775 0.33008 0.81807 0.0
O108 O 0.19658 0.35825 0.86374 0.0
C109 C 0.23528 0.42248 0.82077 0.0
Fe110 Fe 0.326 0.742 0.11767 0.0
Fe111 Fe 0.37778 0.78055 0.09009 0.0
O112 O 0.36449 0.74833 0.11469 0.0
Fe113 Fe 0.38906 0.72256 0.1369 0.0
O114 O 0.36603 0.69019 0.12481 0.0
O115 O 0.32936 0.70818 0.08841 0.0
O116 O 0.3169 0.7614 0.07122 0.0
C117 C 0.33216 0.7664 0.04035 0.0
C118 C 0.3457 0.72252 0.19299 0.0
O119 O 0.35962 0.77042 0.04323 0.0
C120 C 0.41496 0.7782 0.15525 0.0
O121 O 0.32135 0.77562 0.14732 0.0
O122 O 0.34661 0.8038 0.10569 0.0
O123 O 0.37248 0.72753 0.18604 0.0
O124 O 0.32727 0.72111 0.1646 0.0
C125 C 0.41949 0.73602 0.06856 0.0
O126 O 0.39703 0.79338 0.13471 0.0
O127 O 0.41615 0.75028 0.15214 0.0
C128 C 0.32964 0.80099 0.13564 0.0
O129 O 0.41131 0.76282 0.07107 0.0
O130 O 0.40784 0.7161 0.08986 0.0
C131 C 0.3461 0.68686 0.09822 0.0
Fe132 Fe 0.78003 0.61562 0.89744 0.0
Fe133 Fe 0.75737 0.6766 0.87131 0.0
O134 O 0.75211 0.63776 0.8753 0.0
Fe135 Fe 0.7189 0.62174 0.85711 0.0
O136 O 0.70995 0.60627 0.90611 0.0
O137 O 0.75453 0.58963 0.92063 0.0
O138 O 0.77866 0.63678 0.94413 0.0
C139 C 0.78347 0.66425 0.94584 0.0
C140 C 0.76231 0.57904 0.836 0.0
O141 O 0.78166 0.68006 0.91479 0.0
C142 C 0.7291 0.66296 0.79873 0.0
O143 O 0.81034 0.63789 0.87711 0.0
O144 O 0.78865 0.67125 0.83842 0.0
O145 O 0.73582 0.58687 0.84142 0.0
O146 O 0.78334 0.59255 0.85297 0.0
C147 C 0.70037 0.67422 0.89602 0.0
O148 O 0.73449 0.68103 0.82669 0.0
O149 O 0.72546 0.63578 0.80641 0.0
C150 C 0.81077 0.65538 0.84726 0.0
O151 O 0.72606 0.68349 0.90415 0.0
O152 O 0.69616 0.65392 0.87027 0.0
C153 C 0.72707 0.59039 0.92719 0.0
Fe154 Fe 0.66962 0.25635 0.12802 0.0
Fe155 Fe 0.60877 0.28306 0.14471 0.0
O156 O 0.6308 0.25443 0.12445 0.0
Fe157 Fe 0.61397 0.22373 0.10065 0.0
O158 O 0.62937 0.19881 0.13722 0.0
O159 O 0.67477 0.21572 0.13336 0.0
O160 O 0.66819 0.25735 0.18182 0.0
C161 C 0.65485 0.2766 0.20203 0.0
C162 C 0.66461 0.23411 0.05284 0.0
O163 O 0.63456 0.29226 0.18633 0.0
C164 C 0.57942 0.26786 0.07166 0.0
O165 O 0.67129 0.29735 0.12358 0.0
O166 O 0.62513 0.30991 0.11193 0.0
O167 O 0.64453 0.21684 0.06521 0.0
O168 O 0.67338 0.25531 0.07425 0.0
C169 C 0.57574 0.2357 0.1662 0.0
O170 O 0.57936 0.27927 0.10656 0.0
O171 O 0.59724 0.24733 0.06301 0.0
C172 C 0.65226 0.3154 0.10958 0.0
O173 O 0.59058 0.25759 0.17849 0.0
O174 O 0.58053 0.22461 0.13182 0.0
C175 C 0.65647 0.19612 0.14479 0.0
H176 H 0.23261 0.04878 0.25844 0.0
H177 H 0.2466 0.00051 0.23135 0.0
H178 H 0.32491 0.00038 0.30572 0.0
H179 H 0.31141 0.04935 0.33219 0.0
H180 H 0.33602 0.97843 0.23231 0.0
H181 H 0.2363 0.92419 0.29279 0.0
H182 H 0.22682 0.95483 0.26087 0.0
H183 H 0.24702 0.96134 0.3068 0.0
C184 C 0.253 0.03863 0.26869 0.0
C185 C 0.27079 0.05267 0.29769 0.0
C186 C 0.2608 0.01092 0.2535 0.0
C187 C 0.28623 0.99639 0.26759 0.0
C188 C 0.30495 0.01105 0.29489 0.0
H189 H 0.31201 0.80694 0.21385 0.0
H190 H 0.30258 0.8536 0.24976 0.0
C191 C 0.29733 0.03907 0.30979 0.0
C192 C 0.293 0.96591 0.2537 0.0
H193 H 0.26243 0.8972 0.24177 0.0
C194 C 0.32008 0.96058 0.23478 0.0
C195 C 0.27254 0.94236 0.25793 0.0
C196 C 0.24421 0.94586 0.28112 0.0
C197 C 0.32659 0.93277 0.21808 0.0
C198 C 0.30506 0.91 0.21931 0.0
C199 C 0.27866 0.91484 0.24013 0.0
C200 C 0.30904 0.88157 0.19762 0.0
C201 C 0.35651 0.92812 0.19932 0.0
C202 C 0.31453 0.88178 0.15622 0.0
C203 C 0.32009 0.85538 0.13587 0.0
C204 C 0.31964 0.82811 0.15633 0.0
C205 C 0.31239 0.82766 0.19733 0.0
C206 C 0.30719 0.85426 0.21787 0.0
H207 H 0.37328 0.94321 0.21269 0.0
H208 H 0.3642 0.90488 0.20305 0.0
H209 H 0.35509 0.93315 0.16673 0.0
H210 H 0.315 0.90248 0.13969 0.0
H211 H 0.32524 0.85638 0.10415 0.0
H212 H 0.04942 0.67651 0.63175 0.0
H213 H 0.00484 0.65741 0.66398 0.0
H214 H 0.01138 0.7257 0.75439 0.0
H215 H 0.05622 0.74428 0.7234 0.0
H216 H 0.99552 0.67339 0.7862 0.0
H217 H 0.92607 0.69925 0.65243 0.0
H218 H 0.9559 0.67393 0.6432 0.0
H219 H 0.96377 0.71165 0.65718 0.0
C220 C 0.04153 0.68722 0.65878 0.0
C221 C 0.05612 0.71216 0.67471 0.0
C222 C 0.01598 0.67641 0.67695 0.0
C223 C 0.00447 0.69064 0.71092 0.0
C224 C 0.01982 0.71454 0.72799 0.0
H225 H 0.82818 0.70246 0.80126 0.0
H226 H 0.87553 0.70849 0.76708 0.0
C227 C 0.04546 0.72515 0.71018 0.0
C228 C 0.9759 0.68162 0.72823 0.0
H229 H 0.90206 0.67787 0.708 0.0
C230 C 0.97507 0.67416 0.7691 0.0
C231 C 0.94929 0.68316 0.70584 0.0
C232 C 0.94862 0.69268 0.66234 0.0
C233 C 0.94827 0.66881 0.78855 0.0
C234 C 0.92168 0.66997 0.76608 0.0
C235 C 0.92254 0.67684 0.725 0.0
C236 C 0.89262 0.66556 0.78509 0.0
C237 C 0.94866 0.66328 0.8333 0.0
C238 C 0.88637 0.6392 0.80571 0.0
C239 C 0.85965 0.63596 0.82579 0.0
C240 C 0.83848 0.65877 0.82484 0.0
C241 C 0.84419 0.68462 0.80267 0.0
C242 C 0.87116 0.68804 0.7831 0.0
H243 H 0.96951 0.67115 0.84745 0.0
H244 H 0.92985 0.67451 0.84822 0.0
H245 H 0.94688 0.63909 0.83898 0.0
H246 H 0.90226 0.62124 0.80656 0.0
H247 H 0.85554 0.61553 0.84198 0.0
H248 H 0.7692 0.95822 0.29556 0.0
H249 H 0.757 0.00512 0.26334 0.0
H250 H 0.66518 0.99262 0.29249 0.0
H251 H 0.67724 0.94552 0.32571 0.0
H252 H 0.71939 0.01762 0.1998 0.0
H253 H 0.68406 0.07466 0.33948 0.0
H254 H 0.70391 0.03991 0.34005 0.0
H255 H 0.665 0.04054 0.32918 0.0
C256 C 0.74634 0.9653 0.2952 0.0
C257 C 0.72421 0.94821 0.31365 0.0
C258 C 0.73945 0.99214 0.27665 0.0
C259 C 0.71032 0.00254 0.27616 0.0
C260 C 0.68792 0.9852 0.29334 0.0
H261 H 0.62207 0.15405 0.17942 0.0
H262 H 0.63745 0.10791 0.21106 0.0
C263 C 0.69481 0.95824 0.31205 0.0
C264 C 0.70369 0.03165 0.25773 0.0
H265 H 0.67693 0.10076 0.27831 0.0
C266 C 0.71022 0.03587 0.21695 0.0
C267 C 0.69205 0.05543 0.28039 0.0
C268 C 0.68607 0.05262 0.32479 0.0
C269 C 0.70463 0.06308 0.19789 0.0
C270 C 0.69253 0.08666 0.22041 0.0
C271 C 0.68632 0.08257 0.26127 0.0
C272 C 0.68407 0.11506 0.20147 0.0
C273 C 0.71087 0.0662 0.15362 0.0
C274 C 0.70535 0.13455 0.18597 0.0
C275 C 0.69664 0.16119 0.16771 0.0
C276 C 0.66653 0.16854 0.16468 0.0
C277 C 0.64545 0.14902 0.18084 0.0
C278 C 0.65415 0.12263 0.1991 0.0
H279 H 0.7156 0.04447 0.13924 0.0
H280 H 0.69183 0.07666 0.13791 0.0
H281 H 0.73035 0.08078 0.14946 0.0
H282 H 0.72862 0.12916 0.18806 0.0
H283 H 0.71338 0.17583 0.15573 0.0
H284 H 0.14485 0.37401 0.84643 0.0
H285 H 0.09568 0.36563 0.81881 0.0
H286 H 0.12896 0.29297 0.74792 0.0
H287 H 0.17877 0.30157 0.775 0.0
H288 H 0.08998 0.33002 0.70583 0.0
H289 H 0.04319 0.29682 0.85286 0.0
H290 H 0.06067 0.33255 0.85343 0.0
H291 H 0.08239 0.2998 0.84446 0.0
C292 C 0.14181 0.35616 0.82502 0.0
C293 C 0.16567 0.33812 0.81338 0.0
C294 C 0.11363 0.3514 0.80934 0.0
C295 C 0.10857 0.32828 0.78206 0.0
C296 C 0.13243 0.31079 0.76925 0.0
H297 H 0.94766 0.24134 0.71966 0.0
H298 H 0.9943 0.25833 0.74794 0.0
C299 C 0.16082 0.31569 0.78476 0.0
C300 C 0.07823 0.32222 0.76748 0.0
H301 H 0.0092 0.30336 0.79924 0.0
C302 C 0.07228 0.3242 0.72617 0.0
C303 C 0.05528 0.31444 0.79417 0.0
C304 C 0.06068 0.31048 0.83865 0.0
C305 C 0.04391 0.31853 0.71077 0.0
C306 C 0.02085 0.31127 0.73756 0.0
C307 C 0.02683 0.3094 0.77887 0.0
C308 C 0.99113 0.30257 0.72305 0.0
C309 C 0.03911 0.31938 0.66588 0.0
C310 C 0.97329 0.32221 0.70084 0.0
C311 C 0.94644 0.31251 0.68442 0.0
C312 C 0.93711 0.28304 0.69009 0.0
C313 C 0.95431 0.26409 0.71433 0.0
C314 C 0.981 0.27376 0.7306 0.0
H315 H 0.0603 0.31923 0.64921 0.0
H316 H 0.02565 0.30015 0.65583 0.0
H317 H 0.02701 0.33996 0.65778 0.0
H318 H 0.98045 0.34478 0.69545 0.0
H319 H 0.93365 0.32768 0.66602 0.0
H320 H 0.37768 0.63646 0.11351 0.0
H321 H 0.37095 0.58742 0.08389 0.0
H322 H 0.29725 0.62019 0.01426 0.0
H323 H 0.30403 0.66962 0.04334 0.0
H324 H 0.32237 0.55037 0.08656 0.0
H325 H 0.34969 0.58087 0.92968 0.0
H326 H 0.35785 0.60474 0.97184 0.0
H327 H 0.32111 0.60339 0.95115 0.0
C328 C 0.36001 0.63333 0.09188 0.0
C329 C 0.34139 0.65702 0.08076 0.0
C330 C 0.35623 0.60526 0.07499 0.0
C331 C 0.3339 0.60031 0.04651 0.0
C332 C 0.31501 0.62373 0.03564 0.0
H333 H 0.24905 0.44298 0.966 0.0
H334 H 0.26653 0.48603 0.00327 0.0
C335 C 0.31879 0.6519 0.05249 0.0
C336 C 0.33004 0.57044 0.0288 0.0
H337 H 0.32777 0.53333 0.93957 0.0
C338 C 0.32379 0.54656 0.05445 0.0
C339 C 0.33253 0.56544 0.98703 0.0
C340 C 0.34096 0.58989 0.95832 0.0
C341 C 0.31876 0.51797 0.03922 0.0
C342 C 0.3196 0.51334 -0.00276 0.0
C343 C 0.32701 0.53698 0.97176 0.0
C344 C 0.31066 0.48486 0.97874 0.0
C345 C 0.31248 0.49304 0.06819 0.0
C346 C 0.32975 0.46975 0.95267 0.0
C347 C 0.31976 0.4451 0.93101 0.0
C348 C 0.29037 0.43543 0.93475 0.0
C349 C 0.27179 0.44986 0.96229 0.0
C350 C 0.2818 0.47439 0.98391 0.0
H351 H 0.32188 0.49772 0.09843 0.0
H352 H 0.28823 0.49056 0.07144 0.0
H353 H 0.32161 0.47167 0.0572 0.0
H354 H 0.35209 0.47761 0.94816 0.0
H355 H 0.33462 0.43452 0.91002 0.0
H356 H 0.69198 0.69135 0.97391 0.0
H357 H 0.64441 0.70474 0.00449 0.0
H358 H 0.60289 0.7025 0.88757 0.0
H359 H 0.64977 0.68817 0.85738 0.0
H360 H 0.6019 0.74887 -0.00576 0.0
H361 H 0.55816 0.63906 0.94897 0.0
H362 H 0.59684 0.64825 0.94602 0.0
H363 H 0.57166 0.65996 0.90708 0.0
C364 C 0.67275 0.69436 0.95483 0.0
C365 C 0.67423 0.68838 0.91353 0.0
C366 C 0.64566 0.70188 0.97224 0.0
C367 C 0.62004 0.7037 0.94834 0.0
C368 C 0.62223 0.7003 0.90663 0.0
H369 H 0.44734 0.77057 0.013 0.0
H370 H 0.49611 0.76244 0.98392 0.0
C371 C 0.64901 0.69232 0.88943 0.0
C372 C 0.59063 0.70712 0.96682 0.0
H373 H 0.52286 0.67435 0.97184 0.0
C374 C 0.58463 0.73255 0.98961 0.0
C375 C 0.56838 0.68541 0.96145 0.0
C376 C 0.57414 0.65649 0.93992 0.0
C377 C 0.55658 0.73729 0.00619 0.0
C378 C 0.53385 0.71639 -0.00126 0.0
C379 C 0.54016 0.69058 0.97692 0.0
C380 C 0.50348 0.72047 0.01401 0.0
C381 C 0.55174 0.76435 0.03204 0.0
C382 C 0.49073 0.6987 0.03855 0.0
C383 C 0.4626 0.70295 0.05449 0.0
C384 C 0.44681 0.72916 0.04634 0.0
C385 C 0.45908 0.75027 0.02017 0.0
C386 C 0.48708 0.74584 0.0039 0.0
H387 H 0.5729 0.77303 0.04433 0.0
H388 H 0.54154 0.78216 0.01358 0.0
H389 H 0.53679 0.75937 0.05748 0.0
H390 H 0.50289 0.67878 0.04633 0.0
H391 H 0.45383 0.68626 0.07457 0.0
H392 H 0.61768 0.35322 0.0668 0.0
H393 H 0.63031 0.40188 0.04057 0.0
H394 H 0.71882 0.39276 0.08732 0.0
H395 H 0.7063 0.34347 0.11423 0.0
H396 H 0.68651 0.44967 0.10449 0.0
H397 H 0.68628 0.41756 0.94333 0.0
H398 H 0.65474 0.40535 0.97139 0.0
H399 H 0.69068 0.39086 0.98342 0.0
C400 C 0.63991 0.3614 0.0716 0.0
C401 C 0.66102 0.34444 0.09272 0.0
C402 C 0.64707 0.38921 0.05639 0.0
C403 C 0.67548 0.40072 0.06179 0.0
C404 C 0.69675 0.38407 0.08283 0.0
H405 H 0.75618 0.56423 0.98915 0.0
H406 H 0.74111 0.52033 0.02639 0.0
C407 C 0.68963 0.35595 0.09799 0.0
C408 C 0.68241 0.43039 0.04557 0.0
H409 H 0.68691 0.46902 0.95774 0.0
C410 C 0.68686 0.45396 0.07243 0.0
C411 C 0.68244 0.43582 0.00378 0.0
C412 C 0.67852 0.41106 0.9737 0.0
C413 C 0.6909 0.48309 0.05846 0.0
C414 C 0.69088 0.48852 0.0166 0.0
C415 C 0.68651 0.46486 0.98984 0.0
C416 C 0.69758 0.51805 -0.0005 0.0
C417 C 0.69459 0.50783 0.08857 0.0
C418 C 0.67788 0.5317 0.97243 0.0
C419 C 0.6865 0.55688 0.95085 0.0
C420 C 0.71511 0.56842 0.95569 0.0
C421 C 0.73403 0.55574 0.98463 0.0
C422 C 0.72539 0.53075 0.00621 0.0
H423 H 0.68519 0.50178 0.11822 0.0
H424 H 0.71847 0.51233 0.09295 0.0
H425 H 0.68385 0.52856 0.07786 0.0
H426 H 0.65635 0.52209 0.96674 0.0
H427 H 0.67151 0.56608 0.92864 0.0
H428 H 0.54029 0.31383 0.07515 0.0
H429 H 0.49492 0.31981 0.03592 0.0
H430 H 0.51571 0.24086 0.96845 0.0
H431 H 0.56155 0.23518 0.00669 0.0
H432 H 0.49323 0.28327 0.92081 0.0
H433 H 0.42233 0.26968 0.05433 0.0
H434 H 0.44805 0.29959 0.06051 0.0
H435 H 0.46146 0.26214 0.05547 0.0
C436 C 0.53537 0.29793 0.05167 0.0
C437 C 0.55433 0.27386 0.04434 0.0
C438 C 0.50932 0.30121 0.02955 0.0
C439 C 0.50154 0.28023 0.00021 0.0
C440 C 0.52116 0.25708 0.99133 0.0
H441 H 0.31896 0.28103 0.9102 0.0
H442 H 0.36567 0.2634 0.93927 0.0
C443 C 0.54739 0.25395 0.01314 0.0
C444 C 0.4728 0.28236 0.97909 0.0
H445 H 0.39884 0.28946 -0.00465 0.0
C446 C 0.47255 0.2843 0.93704 0.0
C447 C 0.44577 0.28274 0.00022 0.0
C448 C 0.44433 0.27808 0.04508 0.0
C449 C 0.44608 0.28827 0.91569 0.0
C450 C 0.41933 0.29119 0.93713 0.0
C451 C 0.41941 0.28762 0.97898 0.0
C452 C 0.39149 0.30034 0.91722 0.0
C453 C 0.4471 0.28942 0.87042 0.0
C454 C 0.39053 0.327 0.8956 0.0
C455 C 0.36411 0.33695 0.87881 0.0
C456 C 0.3379 0.32069 0.88382 0.0
C457 C 0.3388 0.29398 0.90566 0.0
C458 C 0.36544 0.28389 0.92224 0.0
H459 H 0.46601 0.27637 0.85869 0.0
H460 H 0.42641 0.28078 0.85674 0.0
H461 H 0.45012 0.31277 0.86067 0.0
H462 H 0.41012 0.34057 0.89248 0.0
H463 H 0.36418 0.35781 0.86263 0.0
H464 H 0.72174 0.54292 0.8001 0.0
H465 H 0.73012 0.49486 0.76879 0.0
H466 H 0.8238 0.50382 0.78933 0.0
H467 H 0.81563 0.55195 0.82163 0.0
H468 H 0.76236 0.47952 0.70319 0.0
H469 H 0.80546 0.42324 0.83971 0.0
H470 H 0.78719 0.45884 0.84142 0.0
H471 H 0.82527 0.45636 0.82675 0.0
C472 C 0.7442 0.53482 0.79794 0.0
C473 C 0.76802 0.55122 0.81374 0.0
C474 C 0.7489 0.50728 0.78002 0.0
C475 C 0.77748 0.49554 0.77751 0.0
C476 C 0.80147 0.51222 0.79191 0.0
H477 H 0.84181 0.35771 0.62596 0.0
H478 H 0.82699 0.40364 0.65832 0.0
C479 C 0.79679 0.53981 0.81002 0.0
C480 C 0.782 0.46594 0.75934 0.0
H481 H 0.80979 0.39684 0.778 0.0
C482 C 0.77259 0.46139 0.7196 0.0
C483 C 0.79471 0.44215 0.78115 0.0
C484 C 0.80348 0.44521 0.82475 0.0
C485 C 0.77647 0.43393 0.70059 0.0
C486 C 0.79063 0.41064 0.72168 0.0
C487 C 0.79913 0.41484 0.76186 0.0
C488 C 0.79855 0.38247 0.70172 0.0
C489 C 0.76535 0.43011 0.65809 0.0
C490 C 0.7879 0.3552 0.71598 0.0
C491 C 0.79648 0.32864 0.69759 0.0
C492 C 0.81602 0.32904 0.66489 0.0
C493 C 0.82658 0.3565 0.65088 0.0
C494 C 0.81801 0.38288 0.66919 0.0
H495 H 0.74747 0.44618 0.65089 0.0
H496 H 0.78377 0.43413 0.63692 0.0
H497 H 0.75692 0.40727 0.653 0.0
H498 H 0.77303 0.35449 0.74135 0.0
H499 H 0.78814 0.30785 0.70928 0.0
H500 H 0.54794 0.26611 0.22628 0.0
H501 H 0.49943 0.25568 0.25459 0.0
H502 H 0.49336 0.17607 0.18311 0.0
H503 H 0.54154 0.18674 0.15376 0.0
H504 H 0.44398 0.20994 0.17688 0.0
H505 H 0.4747 0.19535 0.33728 0.0
H506 H 0.48652 0.23006 0.31646 0.0
H507 H 0.50177 0.19591 0.29774 0.0
C508 C 0.53655 0.24608 0.2171 0.0
C509 C 0.54859 0.22723 0.18775 0.0
C510 C 0.50882 0.24015 0.23337 0.0
C511 C 0.4929 0.21499 0.22118 0.0
C512 C 0.50528 0.19564 0.19286 0.0
H513 H 0.3447 0.13431 0.33385 0.0
H514 H 0.39186 0.14857 0.30518 0.0
C515 C 0.53286 0.2017 0.17627 0.0
C516 C 0.46278 0.20946 0.23647 0.0
H517 H 0.42357 0.19754 0.32209 0.0
C518 C 0.43947 0.20717 0.20863 0.0
C519 C 0.45704 0.20581 0.27787 0.0
C520 C 0.48135 0.20662 0.30906 0.0
C521 C 0.41057 0.20093 0.22104 0.0
C522 C 0.4048 0.19759 0.26248 0.0
C523 C 0.42805 0.20033 0.29033 0.0
C524 C 0.3754 0.18888 0.27767 0.0
C525 C 0.38674 0.19697 0.18963 0.0
C526 C 0.3503 0.20668 0.27131 0.0
C527 C 0.323 0.19837 0.28742 0.0
C528 C 0.32067 0.17244 0.31068 0.0
C529 C 0.34582 0.1546 0.31646 0.0
C530 C 0.37282 0.1627 0.30009 0.0
H531 H 0.39612 0.19341 0.15923 0.0
H532 H 0.37232 0.17785 0.19707 0.0
H533 H 0.37281 0.21722 0.18852 0.0
H534 H 0.35193 0.22724 0.25464 0.0
H535 H 0.30401 0.21258 0.28262 0.0
H536 H 0.20127 0.68815 0.68816 0.0
H537 H 0.21444 0.64096 0.72031 0.0
H538 H 0.16658 0.5935 0.62801 0.0
H539 H 0.152 0.64062 0.59747 0.0
H540 H 0.15115 0.57382 0.69705 0.0
H541 H 0.27327 0.57858 0.69575 0.0
H542 H 0.25751 0.60987 0.72102 0.0
H543 H 0.25077 0.60462 0.6681 0.0
C544 C 0.19419 0.66754 0.67441 0.0
C545 C 0.1758 0.6678 0.64038 0.0
C546 C 0.20177 0.6406 0.69266 0.0
C547 C 0.19181 0.61359 0.67632 0.0
C548 C 0.17447 0.614 0.64124 0.0
H549 H 0.25716 0.44175 0.7501 0.0
H550 H 0.24439 0.48726 0.71411 0.0
C551 C 0.16628 0.64086 0.6237 0.0
C552 C 0.19745 0.58499 0.69709 0.0
H553 H 0.25165 0.54134 0.73708 0.0
C554 C 0.17319 0.5666 0.70547 0.0
C555 C 0.22618 0.57544 0.70784 0.0
C556 C 0.25342 0.59303 0.69734 0.0
C557 C 0.17683 0.53891 0.72405 0.0
C558 C 0.20542 0.52989 0.73622 0.0
C559 C 0.22968 0.54833 0.728 0.0
C560 C 0.21101 0.50112 0.75656 0.0
C561 C 0.15006 0.51936 0.72926 0.0
C562 C 0.19612 0.49343 0.79203 0.0
C563 C 0.20283 0.46694 0.81201 0.0
C564 C 0.22518 0.4483 0.79746 0.0
C565 C 0.23985 0.45585 0.76188 0.0
C566 C 0.23265 0.48188 0.74144 0.0
H567 H 0.13237 0.52508 0.70732 0.0
H568 H 0.15574 0.49555 0.72555 0.0
H569 H 0.14098 0.52266 0.75982 0.0
H570 H 0.17994 0.50827 0.80494 0.0
H571 H 0.19158 0.46175 0.83978 0.0
H572 H 0.6805 0.82645 0.26463 0.0
H573 H 0.63342 0.82324 0.22839 0.0
H574 H 0.58695 0.84585 0.33705 0.0
H575 H 0.63381 0.85021 0.37289 0.0
H576 H 0.58951 0.78722 0.23919 0.0
H577 H 0.54739 0.90112 0.26016 0.0
H578 H 0.58509 0.89102 0.27159 0.0
H579 H 0.55625 0.88456 0.30767 0.0
C580 C 0.66021 0.83079 0.28069 0.0
C581 C 0.66077 0.83859 0.32152 0.0
C582 C 0.63338 0.82914 0.25994 0.0
C583 C 0.60671 0.83505 0.27978 0.0
C584 C 0.60727 0.84227 0.32075 0.0
H585 H 0.44032 0.75861 0.22392 0.0
H586 H 0.48632 0.77635 0.25406 0.0
C587 C 0.63406 0.84439 0.34132 0.0
C588 C 0.57815 0.83139 0.25861 0.0
H589 H 0.51076 0.86381 0.24376 0.0
C590 C 0.57248 0.80417 0.23971 0.0
C591 C 0.55609 0.85371 0.25854 0.0
C592 C 0.56166 0.88434 0.2752 0.0
C593 C 0.54492 0.79809 0.22248 0.0
C594 C 0.5221 0.81943 0.22551 0.0
C595 C 0.52813 0.84725 0.24244 0.0
C596 C 0.49177 0.81259 0.21208 0.0
C597 C 0.54048 0.76877 0.20134 0.0
C598 C 0.47859 0.82856 0.18053 0.0
C599 C 0.45192 0.81882 0.16378 0.0
C600 C 0.43847 0.7929 0.17832 0.0
C601 C 0.45054 0.77845 0.21195 0.0
C602 C 0.47683 0.78843 0.22897 0.0
H603 H 0.56179 0.75929 0.19101 0.0
H604 H 0.53045 0.7527 0.22251 0.0
H605 H 0.52554 0.77117 0.17497 0.0
H606 H 0.48973 0.84746 0.16742 0.0
H607 H 0.44302 0.83025 0.13777 0.0
H608 H 0.86768 0.13572 0.6206 0.0
H609 H 0.86003 0.08701 0.59107 0.0
H610 H 0.78416 0.12 0.52609 0.0
H611 H 0.79199 0.16947 0.55515 0.0
H612 H 0.81271 0.05035 0.59782 0.0
H613 H 0.83238 0.07979 0.43825 0.0
H614 H 0.84183 0.10431 0.47921 0.0
H615 H 0.80423 0.10161 0.46199 0.0
C616 C 0.8493 0.13278 0.60003 0.0
C617 C 0.83035 0.15653 0.59032 0.0
C618 C 0.84502 0.10485 0.58315 0.0
C619 C 0.82175 0.09996 0.55611 0.0
C620 C 0.8026 0.12348 0.54637 0.0
H621 H 0.74326 0.93604 0.48425 0.0
H622 H 0.75867 0.98072 0.51965 0.0
C623 C 0.80697 0.15165 0.56318 0.0
C624 C 0.8174 0.06992 0.53912 0.0
H625 H 0.81422 0.03125 0.45113 0.0
C626 C 0.81316 0.04614 0.56575 0.0
C627 C 0.81862 0.06441 0.49736 0.0
C628 C 0.8248 0.0888 0.4675 0.0
C629 C 0.80937 0.01706 0.55166 0.0
C630 C 0.8093 0.01176 0.50982 0.0
C631 C 0.81426 0.03541 0.48323 0.0
C632 C 0.80203 0.98234 0.49275 0.0
C633 C 0.80562 0.99229 0.5817 0.0
C634 C 0.82147 0.96815 0.46621 0.0
C635 C 0.81266 0.94252 0.44568 0.0
C636 C 0.78411 0.93101 0.45106 0.0
C637 C 0.76537 0.9444 0.47935 0.0
C638 C 0.7742 0.96988 0.49983 0.0
H639 H 0.81548 -0.00185 0.61129 0.0
H640 H 0.78172 0.98821 0.5863 0.0
H641 H 0.8159 0.97141 0.5709 0.0
H642 H 0.84303 0.97753 0.46029 0.0
H643 H 0.82754 0.93282 0.42396 0.0
H644 H 0.16836 0.20409 0.42889 0.0
H645 H 0.12134 0.21479 0.46202 0.0
H646 H 0.07885 0.14649 0.39186 0.0
H647 H 0.12531 0.13592 0.35828 0.0
H648 H 0.04665 0.19879 0.39512 0.0
H649 H 0.08238 0.16163 0.54693 0.0
H650 H 0.10561 0.18936 0.52465 0.0
H651 H 0.10305 0.15321 0.50213 0.0
C652 C 0.14897 0.19147 0.42038 0.0
C653 C 0.15061 0.16914 0.39098 0.0
C654 C 0.12221 0.19746 0.43952 0.0
C655 C 0.09681 0.1811 0.42973 0.0
C656 C 0.09826 0.15926 0.3999 0.0
H657 H 0.93559 0.17366 0.57098 0.0
H658 H 0.97917 0.16026 0.5316 0.0
C659 C 0.12489 0.15328 0.38077 0.0
C660 C 0.06853 0.18663 0.45033 0.0
H661 H 0.03535 0.18464 0.54203 0.0
C662 C 0.04412 0.19565 0.42722 0.0
C663 C 0.06524 0.18193 0.49206 0.0
C664 C 0.09036 0.17073 0.51793 0.0
C665 C 0.01656 0.20072 0.44492 0.0
C666 C 0.01356 0.19709 0.48688 0.0
C667 C 0.03781 0.18748 0.50986 0.0
C668 C 0.98585 0.20444 0.50787 0.0
C669 C 0.99086 0.20967 0.41853 0.0
C670 C 0.97519 0.23362 0.50723 0.0
C671 C 0.95038 0.24132 0.5295 0.0
C672 C 0.93589 0.22002 0.5532 0.0
C673 C 0.94621 0.19058 0.55303 0.0
C674 C 0.97112 0.1829 0.53066 0.0
H675 H 0.99441 0.20307 0.38676 0.0
H676 H 0.96996 0.19957 0.42916 0.0
H677 H 0.98837 0.23416 0.41939 0.0
H678 H 0.98657 0.25068 0.49043 0.0
H679 H 0.94306 0.26421 0.52891 0.0
H680 H 0.1125 0.85684 0.57429 0.0
H681 H 0.12508 0.90542 0.54736 0.0
H682 H 0.21534 0.89369 0.58628 0.0
H683 H 0.20311 0.84447 0.61267 0.0
H684 H 0.14801 0.95579 0.58239 0.0
H685 H 0.22376 0.91036 0.46678 0.0
H686 H 0.19925 0.88712 0.49544 0.0
H687 H 0.23313 0.90028 0.51744 0.0
C688 C 0.13505 0.86455 0.57735 0.0
C689 C 0.15689 0.84666 0.59538 0.0
C690 C 0.14215 0.89239 0.56199 0.0
C691 C 0.17118 0.90294 0.56434 0.0
C692 C 0.19289 0.88564 0.58349 0.0
H693 H 0.25384 0.05846 0.46395 0.0
H694 H 0.24092 0.01657 0.5066 0.0
C695 C 0.18585 0.85761 0.59868 0.0
C696 C 0.17868 0.93162 0.54543 0.0
H697 H 0.22 0.96248 0.47098 0.0
C698 C 0.1638 0.95732 0.55809 0.0
C699 C 0.19909 0.93341 0.51352 0.0
C700 C 0.21455 0.90632 0.49716 0.0
C701 C 0.16899 0.98488 0.53978 0.0
C702 C 0.18939 0.98658 0.50797 0.0
C703 C 0.20443 0.96098 0.49557 0.0
C704 C 0.19549 0.01456 0.48655 0.0
C705 C 0.15286 0.01199 0.55467 0.0
C706 C 0.17395 0.02762 0.46176 0.0
C707 C 0.18125 0.05163 0.43708 0.0
C708 C 0.21029 0.06268 0.43673 0.0
C709 C 0.23134 0.05033 0.46314 0.0
C710 C 0.22403 0.02643 0.48765 0.0
H711 H 0.14257 0.00815 0.58444 0.0
H712 H 0.16812 0.0312 0.55696 0.0
H713 H 0.13513 0.01788 0.53294 0.0
H714 H 0.15188 0.01844 0.46018 0.0
H715 H 0.16454 0.06065 0.41712 0.0
H716 H 0.03655 0.80799 0.57373 0.0
H717 H 0.98886 0.81012 0.53922 0.0
H718 H 0.01408 0.73584 0.46517 0.0
H719 H 0.06222 0.73416 0.49864 0.0
H720 H 0.98551 0.77599 0.42217 0.0
H721 H 0.92178 0.75378 0.55979 0.0
H722 H 0.94495 0.78564 0.56639 0.0
H723 H 0.9614 0.74976 0.55791 0.0
C724 C 0.03207 0.79234 0.54976 0.0
C725 C 0.05302 0.77078 0.53912 0.0
C726 C 0.00469 0.79333 0.53043 0.0
C727 C -0.00244 0.77243 0.50068 0.0
C728 C 0.01899 0.75187 0.4885 0.0
H729 H 0.81094 0.77408 0.42229 0.0
H730 H 0.85794 0.75406 0.44794 0.0
C731 C 0.04656 0.7511 0.50748 0.0
C732 C 0.96785 0.77248 0.48198 0.0
H733 H 0.89457 0.77611 0.50469 0.0
C734 C 0.96561 0.77551 0.44015 0.0
C735 C 0.94182 0.77077 0.50523 0.0
C736 C 0.94259 0.76444 0.54975 0.0
C737 C 0.93812 0.7792 0.42132 0.0
C738 C 0.91237 0.78081 0.44514 0.0
C739 C 0.91439 0.77544 0.48655 0.0
C740 C 0.88401 0.79161 0.42847 0.0
C741 C 0.93703 0.78199 0.37617 0.0
C742 C 0.88309 0.81951 0.40997 0.0
C743 C 0.8566 0.83082 0.3953 0.0
C744 C 0.83022 0.81469 0.39928 0.0
C745 C 0.83094 0.78693 0.41859 0.0
C746 C 0.85772 0.77547 0.43313 0.0
H747 H 0.95527 0.76928 0.36205 0.0
H748 H 0.91569 0.77395 0.36373 0.0
H749 H 0.93983 0.80564 0.36771 0.0
H750 H 0.90288 0.83284 0.40738 0.0
H751 H 0.85684 0.8525 0.38124 0.0
H752 H 0.25016 0.27498 0.9342 0.0
H753 H 0.244 0.2426 0.99207 0.0
H754 H 0.2045 0.31454 0.05822 0.0
H755 H 0.21067 0.34756 -0.00024 0.0
H756 H 0.26539 0.25273 0.0753 0.0
H757 H 0.14346 0.24208 0.05793 0.0
H758 H 0.16694 0.25392 0.01726 0.0
H759 H 0.15888 0.27892 0.05764 0.0
C760 C 0.24019 0.28403 0.96106 0.0
C761 C 0.23054 0.3137 0.9624 0.0
C762 C 0.23679 0.26549 -0.00592 0.0
C763 C 0.22347 0.27613 0.02899 0.0
C764 C 0.21454 0.30597 0.03114 0.0
H765 H 0.17981 0.20274 0.25469 0.0
H766 H 0.18078 0.22834 0.19041 0.0
C767 C 0.21822 0.32478 -0.00201 0.0
C768 C 0.21884 0.2555 0.06273 0.0
H769 H 0.16567 0.21659 0.11215 0.0
C770 C 0.24364 0.24476 0.08348 0.0
C771 C 0.19044 0.24502 0.07266 0.0
C772 C 0.1633 0.25534 0.05017 0.0
C773 C 0.24071 0.22436 0.11499 0.0
C774 C 0.21224 0.21388 0.12513 0.0
C775 C 0.18747 0.22437 0.10389 0.0
C776 C 0.20747 0.1951 0.1609 0.0
C777 C 0.26798 0.21512 0.13814 0.0
C778 C 0.22082 0.16705 0.16494 0.0
C779 C 0.22032 0.15224 0.20197 0.0
C780 C 0.20645 0.16548 0.23504 0.0
C781 C 0.19096 0.19223 0.22971 0.0
C782 C 0.19143 0.20687 0.19299 0.0
H783 H 0.28718 0.22962 0.13152 0.0
H784 H 0.26386 0.21569 0.17099 0.0
H785 H 0.27398 0.19206 0.12982 0.0
H786 H 0.23281 0.15735 0.14013 0.0
H787 H 0.23242 0.13164 0.20543 0.0
H788 H 0.35006 0.79973 0.97559 0.0
H789 H 0.31999 0.81302 0.91646 0.0
H790 H 0.24888 0.75869 0.96089 0.0
H791 H 0.27827 0.74583 0.01968 0.0
H792 H 0.29556 0.77844 0.85839 0.0
H793 H 0.20646 0.83612 0.93918 0.0
H794 H 0.24169 0.82785 0.96237 0.0
H795 H 0.21286 0.8003 0.96097 0.0
C796 C 0.32807 0.79055 0.97247 0.0
C797 C 0.31633 0.77203 0.00236 0.0
C798 C 0.31087 0.79834 0.93898 0.0
C799 C 0.28185 0.78769 0.93517 0.0
C800 C 0.27077 0.76812 0.96409 0.0
H801 H 0.17782 0.73126 0.74666 0.0
H802 H 0.20871 0.74174 0.8052 0.0
C803 C 0.28773 0.76053 -0.00257 0.0
C804 C 0.26329 0.79515 0.89998 0.0
H805 H 0.1923 0.8133 0.87516 0.0
C806 C 0.27325 0.78681 0.86186 0.0
C807 C 0.23441 0.80676 0.90436 0.0
C808 C 0.22339 0.81858 0.94393 0.0
C809 C 0.25413 0.78707 0.82869 0.0
C810 C 0.22425 0.79527 0.83419 0.0
C811 C 0.21505 0.80635 0.87136 0.0
C812 C 0.20191 0.78925 0.80288 0.0
C813 C 0.26574 0.77732 0.78839 0.0
C814 C 0.18618 0.81236 0.78425 0.0
C815 C 0.16798 0.80632 0.7511 0.0
C816 C 0.1656 0.77717 0.73648 0.0
C817 C 0.17952 0.75393 0.75729 0.0
C818 C 0.19735 0.75991 0.79041 0.0
H819 H 0.2899 0.7812 0.78611 0.0
H820 H 0.2618 0.75318 0.78464 0.0
H821 H 0.25444 0.78922 0.76344 0.0
H822 H 0.1892 0.8351 0.79394 0.0
H823 H 0.15759 0.82459 0.73527 0.0
H824 H 0.80762 0.85983 0.23045 0.0
H825 H 0.81469 0.83497 0.16511 0.0
H826 H 0.73981 0.77867 0.18927 0.0
H827 H 0.73284 0.80311 0.25357 0.0
H828 H 0.82645 0.77349 0.16 0.0
H829 H 0.72619 0.80164 0.07262 0.0
H830 H 0.73837 0.82332 0.11523 0.0
H831 H 0.71718 0.78996 0.12256 0.0
C832 C 0.7922 0.84284 0.22093 0.0
C833 C 0.76968 0.83331 0.24667 0.0
C834 C 0.79633 0.82857 0.18393 0.0
C835 C 0.77756 0.80521 0.17229 0.0
C836 C 0.75415 0.79701 0.19724 0.0
H837 H 0.76027 0.65444 0.02013 0.0
H838 H 0.76348 0.68863 0.07759 0.0
C839 C 0.75027 0.8109 0.23404 0.0
C840 C 0.78389 0.78668 0.1368 0.0
H841 H 0.74988 0.75509 0.05583 0.0
C842 C 0.81005 0.7699 0.13664 0.0
C843 C 0.76236 0.78197 0.10658 0.0
C844 C 0.73459 0.80043 0.104 0.0
C845 C 0.81447 0.74738 0.10817 0.0
C846 C 0.79214 0.74161 0.07956 0.0
C847 C 0.76663 0.75924 0.07857 0.0
C848 C 0.79495 0.71797 0.0493 0.0
C849 C 0.84234 0.72908 0.1096 0.0
C850 C 0.8123 0.72287 0.01532 0.0
C851 C 0.81034 0.70364 0.98267 0.0
C852 C 0.79113 0.67916 0.98369 0.0
C853 C 0.77549 0.67295 0.01895 0.0
C854 C 0.77718 0.6925 0.05153 0.0
H855 H 0.85638 0.73457 0.13603 0.0
H856 H 0.83675 0.7051 0.11053 0.0
H857 H 0.85529 0.73303 0.0819 0.0
H858 H 0.82591 0.74256 0.01305 0.0
H859 H 0.82256 0.70886 0.95569 0.0
H860 H 0.86286 0.1995 0.77172 0.0
H861 H 0.83891 0.18992 0.83687 0.0
H862 H 0.7579 0.22776 0.79111 0.0
H863 H 0.78111 0.23676 0.72682 0.0
H864 H 0.81261 0.22726 0.89074 0.0
H865 H 0.72915 0.1491 0.83358 0.0
H866 H 0.76142 0.15904 0.80492 0.0
H867 H 0.72878 0.182 0.80337 0.0
C868 C 0.83997 0.20572 0.77581 0.0
C869 C 0.82368 0.21837 0.74407 0.0
C870 C 0.8263 0.20012 0.81281 0.0
C871 C 0.79632 0.20715 0.81824 0.0
C872 C 0.78067 0.22102 0.78708 0.0
H873 H 0.69396 0.27225 0.0046 0.0
H874 H 0.72841 0.26008 0.95105 0.0
C875 C 0.79408 0.22636 0.7504 0.0
C876 C 0.78104 0.20172 0.85671 0.0
H877 H 0.71429 0.17868 0.89188 0.0
C878 C 0.79147 0.21598 0.89138 0.0
C879 C 0.75389 0.18621 0.85799 0.0
C880 C 0.74288 0.16794 0.82302 0.0
C881 C 0.77405 0.21763 0.92603 0.0
C882 C 0.74517 0.20554 0.92532 0.0
C883 C 0.73606 0.18871 0.89209 0.0
C884 C 0.72326 0.21248 0.95689 0.0
C885 C 0.78653 0.23303 0.96259 0.0
C886 C 0.70729 0.18987 0.97606 0.0
C887 C 0.68681 0.19688 0.00597 0.0
C888 C 0.68223 0.22658 0.0172 0.0
C889 C 0.69732 0.24916 -0.00321 0.0
C890 C 0.71734 0.24219 0.96661 0.0
H891 H 0.8109 0.23032 0.96422 0.0
H892 H 0.78183 0.25716 0.96051 0.0
H893 H 0.77675 0.22432 0.99074 0.0
H894 H 0.71115 0.16681 0.96854 0.0
H895 H 0.67558 0.17904 0.02144 0.0
H896 H 0.69676 0.77456 0.44196 0.0
H897 H 0.68957 0.74346 0.50084 0.0
H898 H 0.72296 0.81353 0.57671 0.0
H899 H 0.72981 0.84527 0.51753 0.0
H900 H 0.73381 0.72462 0.54965 0.0
H901 H 0.65019 0.78602 0.63763 0.0
H902 H 0.65718 0.79377 0.5853 0.0
H903 H 0.68106 0.80865 0.62367 0.0
C904 C 0.70223 0.78361 0.47121 0.0
C905 C 0.71403 0.81236 0.47514 0.0
C906 C 0.69804 0.76576 0.50482 0.0
C907 C 0.70553 0.77622 0.54311 0.0
C908 C 0.71648 0.80525 0.54743 0.0
H909 H 0.74632 0.7169 0.77281 0.0
H910 H 0.73673 0.74011 0.70838 0.0
C911 C 0.72051 0.82332 0.51366 0.0
C912 C 0.70432 0.75578 0.57785 0.0
H913 H 0.67805 0.74886 0.67315 0.0
C914 C 0.7212 0.72961 0.57643 0.0
C915 C 0.68762 0.76222 0.61248 0.0
C916 C 0.66774 0.78904 0.6148 0.0
C917 C 0.72324 0.71063 0.60972 0.0
C918 C 0.70781 0.71797 0.64507 0.0
C919 C 0.6898 0.74333 0.64583 0.0
C920 C 0.71363 0.70242 0.68332 0.0
C921 C 0.74317 0.68383 0.60781 0.0
C922 C 0.70414 0.67319 0.6903 0.0
C923 C 0.70966 0.65959 0.72755 0.0
C924 C 0.72453 0.67527 0.75805 0.0
C925 C 0.73444 0.70428 0.75024 0.0
C926 C 0.72899 0.71767 0.7134 0.0
H927 H 0.75545 0.68257 0.57905 0.0
H928 H 0.75932 0.68431 0.63302 0.0
H929 H 0.72976 0.66337 0.611 0.0
H930 H 0.69216 0.66115 0.66728 0.0
H931 H 0.70177 0.63724 0.73276 0.0
H932 H 0.85099 0.29715 0.48478 0.0
H933 H 0.82353 0.31154 0.42373 0.0
H934 H 0.74608 0.2673 0.46888 0.0
H935 H 0.77284 0.25328 0.5293 0.0
H936 H 0.79616 0.27714 0.36699 0.0
H937 H 0.71278 0.34794 0.43963 0.0
H938 H 0.74656 0.33698 0.4647 0.0
H939 H 0.71493 0.31272 0.46451 0.0
C940 C 0.82814 0.29048 0.48149 0.0
C941 C 0.81398 0.27439 0.51204 0.0
C942 C 0.81245 0.29888 0.44684 0.0
C943 C 0.78247 0.29138 0.4425 0.0
C944 C 0.76882 0.27435 0.47229 0.0
H945 H 0.6749 0.2373 0.25648 0.0
H946 H 0.70666 0.24755 0.31419 0.0
C947 C 0.7843 0.26609 0.50668 0.0
C948 C 0.76539 0.29927 0.40598 0.0
H949 H 0.69712 0.32384 0.37712 0.0
C950 C 0.77487 0.28807 0.36896 0.0
C951 C 0.73787 0.31414 0.40829 0.0
C952 C 0.72764 0.32892 0.4464 0.0
C953 C 0.75631 0.28881 0.33515 0.0
C954 C 0.72742 0.30049 0.33881 0.0
C955 C 0.71903 0.31428 0.37468 0.0
C956 C 0.70486 0.29527 0.30735 0.0
C957 C 0.76733 0.27585 0.29621 0.0
C958 C 0.69163 0.31883 0.28625 0.0
C959 C 0.6729 0.31299 0.25349 0.0
C960 C 0.66741 0.28355 0.24174 0.0
C961 C 0.67895 0.26018 0.26488 0.0
C962 C 0.69731 0.266 0.29754 0.0
H963 H 0.7918 0.27702 0.2944 0.0
H964 H 0.7609 0.25213 0.29451 0.0
H965 H 0.75767 0.28758 0.26989 0.0
H966 H 0.69694 0.34159 0.29383 0.0
H967 H 0.66445 0.33134 0.2358 0.0
H968 H 0.31762 0.30471 0.75625 0.0
H969 H 0.32237 0.27743 0.69329 0.0
H970 H 0.25683 0.33425 0.63856 0.0
H971 H 0.25231 0.36204 0.70187 0.0
H972 H 0.26982 0.24884 0.66648 0.0
H973 H 0.31948 0.32018 0.5485 0.0
H974 H 0.32524 0.32671 0.60155 0.0
H975 H 0.2909 0.33696 0.57822 0.0
C976 C 0.30506 0.31206 0.73027 0.0
C977 C 0.28456 0.33529 0.73358 0.0
C978 C 0.30776 0.29646 0.69446 0.0
C979 C 0.28992 0.30381 0.66147 0.0
C980 C 0.27107 0.32857 0.66364 0.0
H981 H 0.23569 0.2216 0.44345 0.0
H982 H 0.24471 0.2526 0.50206 0.0
C983 C 0.26852 0.34443 0.69963 0.0
C984 C 0.28756 0.28268 0.62781 0.0
H985 H 0.29764 0.27494 0.52708 0.0
C986 C 0.27614 0.25437 0.636 0.0
C987 C 0.29576 0.29017 0.58832 0.0
C988 C 0.30875 0.32007 0.57844 0.0
C989 C 0.2718 0.23352 0.60535 0.0
C990 C 0.27972 0.24106 0.56567 0.0
C991 C 0.2917 0.26922 0.55763 0.0
C992 C 0.27365 0.22105 0.53148 0.0
C993 C 0.25767 0.20415 0.61548 0.0
C994 C 0.28652 0.19269 0.529 0.0
C995 C 0.28103 0.17461 0.49557 0.0
C996 C 0.26309 0.18503 0.46407 0.0
C997 C 0.24986 0.21314 0.46717 0.0
C998 C 0.25504 0.23092 0.50055 0.0
H999 H 0.24685 0.20459 0.64535 0.0
H1000 H 0.24094 0.19792 0.59249 0.0
H1001 H 0.2749 0.18663 0.61615 0.0
H1002 H 0.30128 0.18486 0.5524 0.0
H1003 H 0.29164 0.15311 0.49364 0.0
H1004 H 0.2993 0.68897 0.21598 0.0
H1005 H 0.27486 0.68973 0.28111 0.0
H1006 H 0.34248 0.74782 0.32765 0.0
H1007 H 0.36738 0.74702 0.26218 0.0
H1008 H 0.29697 0.6799 0.36732 0.0
H1009 H 0.25925 0.79388 0.32622 0.0
H1010 H 0.27266 0.76805 0.28909 0.0
H1011 H 0.29806 0.78555 0.32307 0.0
C1012 C 0.30936 0.70134 0.24037 0.0
C1013 C 0.33501 0.7182 0.23413 0.0
C1014 C 0.29545 0.70164 0.2775 0.0
C1015 C 0.30681 0.71903 0.30876 0.0
C1016 C 0.3335 0.73432 0.3036 0.0
H1017 H 0.21471 0.77904 0.51998 0.0
H1018 H 0.24872 0.77235 0.46454 0.0
C1019 C 0.34769 0.73377 0.26641 0.0
C1020 C 0.28856 0.7238 0.34457 0.0
H1021 H 0.24003 0.77309 0.38508 0.0
C1022 C 0.28471 0.70033 0.37164 0.0
C1023 C 0.27255 0.75044 0.34953 0.0
C1024 C 0.27556 0.77598 0.32045 0.0
C1025 C 0.26512 0.70287 0.40394 0.0
C1026 C 0.24844 0.72924 0.40828 0.0
C1027 C 0.2527 0.75284 0.38144 0.0
C1028 C 0.22698 0.73325 0.44108 0.0
C1029 C 0.26275 0.67747 0.43329 0.0
C1030 C 0.20289 0.71394 0.44555 0.0
C1031 C 0.18336 0.71755 0.47757 0.0
C1032 C 0.1875 0.74074 0.50525 0.0
C1033 C 0.21092 0.76078 0.49944 0.0
C1034 C 0.23047 0.75701 0.46776 0.0
H1035 H 0.28248 0.66282 0.43218 0.0
H1036 H 0.26013 0.68572 0.4645 0.0
H1037 H 0.24314 0.66385 0.42554 0.0
H1038 H 0.19935 0.69596 0.4245 0.0
H1039 H 0.16544 0.70188 0.48106 0.0
loop_
_geom_bond_atom_site_label_1
_geom_bond_atom_site_label_2
_geom_bond_distance
_geom_bond_site_symmetry_2
_ccdc_geom_bond_type
Fe0 O2 1.918 . S
Fe0 O5 1.997 . S
Fe0 O6 2.002 . S
Fe0 O11 1.976 . S
Fe0 O14 1.996 . S
Fe1 O2 1.918 . S
Fe1 O9 1.997 . S
Fe1 O12 1.996 . S
Fe1 O16 1.976 . S
Fe1 O19 2.002 . S
O2 Fe0 1.918 . S
O2 Fe1 1.918 . S
O2 Fe3 1.918 . S
Fe3 O2 1.918 . S
Fe3 O4 2.002 . S
Fe3 O13 1.976 . S
Fe3 O17 1.996 . S
Fe3 O20 1.997 . S
O4 Fe3 2.002 . S
O4 C21 1.295 . S
O5 Fe0 1.997 . S
O5 C21 1.235 . S
O6 Fe0 2.002 . S
O6 C7 1.295 . S
C7 O6 1.295 . S
C7 O9 1.235 . S
C8 O13 1.287 . S
C8 O14 1.255 . S
O9 Fe1 1.997 . S
O9 C7 1.235 . S
C10 O16 1.287 . S
C10 O17 1.255 . S
O11 Fe0 1.976 . S
O11 C18 1.287 . S
O12 Fe1 1.996 . S
O12 C18 1.255 . S
O13 Fe3 1.976 . S
O13 C8 1.287 . S
O14 Fe0 1.996 . S
O14 C8 1.255 . S
C15 O19 1.295 . S
C15 O20 1.235 . S
O16 Fe1 1.976 . S
O16 C10 1.287 . S
O17 Fe3 1.996 . S
O17 C10 1.255 . S
C18 O11 1.287 . S
C18 O12 1.255 . S
O19 Fe1 2.002 . S
O19 C15 1.295 . S
O20 Fe3 1.997 . S
O20 C15 1.235 . S
C21 O4 1.295 . S
C21 O5 1.235 . S
Fe22 O24 1.918 . S
Fe22 O27 1.997 . S
Fe22 O28 2.002 . S
Fe22 O33 1.976 . S
Fe22 O36 1.996 . S
Fe23 O24 1.918 . S
Fe23 O31 1.997 . S
Fe23 O34 1.996 . S
Fe23 O38 1.976 . S
Fe23 O41 2.002 . S
O24 Fe22 1.918 . S
O24 Fe23 1.918 . S
O24 Fe25 1.918 . S
Fe25 O24 1.918 . S
Fe25 O26 2.002 . S
Fe25 O35 1.976 . S
Fe25 O39 1.996 . S
Fe25 O42 1.997 . S
O26 Fe25 2.002 . S
O26 C43 1.295 . S
O27 Fe22 1.997 . S
O27 C43 1.235 . S
O28 Fe22 2.002 . S
O28 C29 1.295 . S
C29 O28 1.295 . S
C29 O31 1.235 . S
C30 O35 1.287 . S
C30 O36 1.255 . S
O31 Fe23 1.997 . S
O31 C29 1.235 . S
C32 O38 1.287 . S
C32 O39 1.255 . S
O33 Fe22 1.976 . S
O33 C40 1.287 . S
O34 Fe23 1.996 . S
O34 C40 1.255 . S
O35 Fe25 1.976 . S
O35 C30 1.287 . S
O36 Fe22 1.996 . S
O36 C30 1.255 . S
C37 O41 1.295 . S
C37 O42 1.235 . S
O38 Fe23 1.976 . S
O38 C32 1.287 . S
O39 Fe25 1.996 . S
O39 C32 1.255 . S
C40 O33 1.287 . S
C40 O34 1.255 . S
O41 Fe23 2.002 . S
O41 C37 1.295 . S
O42 Fe25 1.997 . S
O42 C37 1.235 . S
C43 O26 1.295 . S
C43 O27 1.235 . S
Fe44 O46 1.918 . S
Fe44 O49 1.997 . S
Fe44 O50 2.002 . S
Fe44 O55 1.976 . S
Fe44 O58 1.996 . S
Fe45 O46 1.918 . S
Fe45 O53 1.997 . S
Fe45 O56 1.996 . S
Fe45 O60 1.976 . S
Fe45 O63 2.002 . S
O46 Fe44 1.918 . S
O46 Fe45 1.918 . S
O46 Fe47 1.918 . S
Fe47 O46 1.918 . S
Fe47 O48 2.002 . S
Fe47 O57 1.976 . S
Fe47 O61 1.996 . S
Fe47 O64 1.997 . S
O48 Fe47 2.002 . S
O48 C65 1.295 . S
O49 Fe44 1.997 . S
O49 C65 1.235 . S
O50 Fe44 2.002 . S
O50 C51 1.295 . S
C51 O50 1.295 . S
C51 O53 1.235 . S
C52 O57 1.287 . S
C52 O58 1.255 . S
O53 Fe45 1.997 . S
O53 C51 1.235 . S
C54 O60 1.287 . S
C54 O61 1.255 . S
O55 Fe44 1.976 . S
O55 C62 1.287 . S
O56 Fe45 1.996 . S
O56 C62 1.255 . S
O57 Fe47 1.976 . S
O57 C52 1.287 . S
O58 Fe44 1.996 . S
O58 C52 1.255 . S
C59 O63 1.295 . S
C59 O64 1.235 . S
O60 Fe45 1.976 . S
O60 C54 1.287 . S
O61 Fe47 1.996 . S
O61 C54 1.255 . S
C62 O55 1.287 . S
C62 O56 1.255 . S
O63 Fe45 2.002 . S
O63 C59 1.295 . S
O64 Fe47 1.997 . S
O64 C59 1.235 . S
C65 O48 1.295 . S
C65 O49 1.235 . S
Fe66 O68 1.918 . S
Fe66 O71 1.997 . S
Fe66 O72 2.002 . S
Fe66 O77 1.976 . S
Fe66 O80 1.996 . S
Fe67 O68 1.918 . S
Fe67 O75 1.997 . S
Fe67 O78 1.996 . S
Fe67 O82 1.976 . S
Fe67 O85 2.002 . S
O68 Fe66 1.918 . S
O68 Fe67 1.918 . S
O68 Fe69 1.918 . S
Fe69 O68 1.918 . S
Fe69 O70 2.002 . S
Fe69 O79 1.976 . S
Fe69 O83 1.996 . S
Fe69 O86 1.997 . S
O70 Fe69 2.002 . S
O70 C87 1.295 . S
O71 Fe66 1.997 . S
O71 C87 1.235 . S
O72 Fe66 2.002 . S
O72 C73 1.295 . S
C73 O72 1.295 . S
C73 O75 1.235 . S
C74 O79 1.287 . S
C74 O80 1.255 . S
O75 Fe67 1.997 . S
O75 C73 1.235 . S
C76 O82 1.287 . S
C76 O83 1.255 . S
O77 Fe66 1.976 . S
O77 C84 1.287 . S
O78 Fe67 1.996 . S
O78 C84 1.255 . S
O79 Fe69 1.976 . S
O79 C74 1.287 . S
O80 Fe66 1.996 . S
O80 C74 1.255 . S
C81 O85 1.295 . S
C81 O86 1.235 . S
O82 Fe67 1.976 . S
O82 C76 1.287 . S
O83 Fe69 1.996 . S
O83 C76 1.255 . S
C84 O77 1.287 . S
C84 O78 1.255 . S
O85 Fe67 2.002 . S
O85 C81 1.295 . S
O86 Fe69 1.997 . S
O86 C81 1.235 . S
C87 O70 1.295 . S
C87 O71 1.235 . S
Fe88 O90 1.918 . S
Fe88 O93 1.997 . S
Fe88 O94 2.002 . S
Fe88 O99 1.976 . S
Fe88 O102 1.996 . S
Fe89 O90 1.918 . S
Fe89 O97 1.997 . S
Fe89 O100 1.996 . S
Fe89 O104 1.976 . S
Fe89 O107 2.002 . S
O90 Fe88 1.918 . S
O90 Fe89 1.918 . S
O90 Fe91 1.918 . S
Fe91 O90 1.918 . S
Fe91 O92 2.002 . S
Fe91 O101 1.976 . S
Fe91 O105 1.996 . S
Fe91 O108 1.997 . S
O92 Fe91 2.002 . S
O92 C109 1.295 . S
O93 Fe88 1.997 . S
O93 C109 1.235 . S
O94 Fe88 2.002 . S
O94 C95 1.295 . S
C95 O94 1.295 . S
C95 O97 1.235 . S
C96 O101 1.287 . S
C96 O102 1.255 . S
O97 Fe89 1.997 . S
O97 C95 1.235 . S
C98 O104 1.287 . S
C98 O105 1.255 . S
O99 Fe88 1.976 . S
O99 C106 1.287 . S
O100 Fe89 1.996 . S
O100 C106 1.255 . S
O101 Fe91 1.976 . S
O101 C96 1.287 . S
O102 Fe88 1.996 . S
O102 C96 1.255 . S
C103 O107 1.295 . S
C103 O108 1.235 . S
O104 Fe89 1.976 . S
O104 C98 1.287 . S
O105 Fe91 1.996 . S
O105 C98 1.255 . S
C106 O99 1.287 . S
C106 O100 1.255 . S
O107 Fe89 2.002 . S
O107 C103 1.295 . S
O108 Fe91 1.997 . S
O108 C103 1.235 . S
C109 O92 1.295 . S
C109 O93 1.235 . S
Fe110 O112 1.918 . S
Fe110 O115 1.997 . S
Fe110 O116 2.002 . S
Fe110 O121 1.976 . S
Fe110 O124 1.996 . S
Fe111 O112 1.918 . S
Fe111 O119 1.997 . S
Fe111 O122 1.996 . S
Fe111 O126 1.976 . S
Fe111 O129 2.002 . S
O112 Fe110 1.918 . S
O112 Fe111 1.918 . S
O112 Fe113 1.918 . S
Fe113 O112 1.918 . S
Fe113 O114 2.002 . S
Fe113 O123 1.976 . S
Fe113 O127 1.996 . S
Fe113 O130 1.997 . S
O114 Fe113 2.002 . S
O114 C131 1.295 . S
O115 Fe110 1.997 . S
O115 C131 1.235 . S
O116 Fe110 2.002 . S
O116 C117 1.295 . S
C117 O116 1.295 . S
C117 O119 1.235 . S
C118 O123 1.287 . S
C118 O124 1.255 . S
O119 Fe111 1.997 . S
O119 C117 1.235 . S
C120 O126 1.287 . S
C120 O127 1.255 . S
O121 Fe110 1.976 . S
O121 C128 1.287 . S
O122 Fe111 1.996 . S
O122 C128 1.255 . S
O123 Fe113 1.976 . S
O123 C118 1.287 . S
O124 Fe110 1.996 . S
O124 C118 1.255 . S
C125 O129 1.295 . S
C125 O130 1.235 . S
O126 Fe111 1.976 . S
O126 C120 1.287 . S
O127 Fe113 1.996 . S
O127 C120 1.255 . S
C128 O121 1.287 . S
C128 O122 1.255 . S
O129 Fe111 2.002 . S
O129 C125 1.295 . S
O130 Fe113 1.997 . S
O130 C125 1.235 . S
C131 O114 1.295 . S
C131 O115 1.235 . S
Fe132 O134 1.918 . S
Fe132 O137 1.997 . S
Fe132 O138 2.002 . S
Fe132 O143 1.976 . S
Fe132 O146 1.996 . S
Fe133 O134 1.918 . S
Fe133 O141 1.997 . S
Fe133 O144 1.996 . S
Fe133 O148 1.976 . S
Fe133 O151 2.002 . S
O134 Fe132 1.918 . S
O134 Fe133 1.918 . S
O134 Fe135 1.918 . S
Fe135 O134 1.918 . S
Fe135 O136 2.002 . S
Fe135 O145 1.976 . S
Fe135 O149 1.996 . S
Fe135 O152 1.997 . S
O136 Fe135 2.002 . S
O136 C153 1.295 . S
O137 Fe132 1.997 . S
O137 C153 1.235 . S
O138 Fe132 2.002 . S
O138 C139 1.295 . S
C139 O138 1.295 . S
C139 O141 1.235 . S
C140 O145 1.287 . S
C140 O146 1.255 . S
O141 Fe133 1.997 . S
O141 C139 1.235 . S
C142 O148 1.287 . S
C142 O149 1.255 . S
O143 Fe132 1.976 . S
O143 C150 1.287 . S
O144 Fe133 1.996 . S
O144 C150 1.255 . S
O145 Fe135 1.976 . S
O145 C140 1.287 . S
O146 Fe132 1.996 . S
O146 C140 1.255 . S
C147 O151 1.295 . S
C147 O152 1.235 . S
O148 Fe133 1.976 . S
O148 C142 1.287 . S
O149 Fe135 1.996 . S
O149 C142 1.255 . S
C150 O143 1.287 . S
C150 O144 1.255 . S
O151 Fe133 2.002 . S
O151 C147 1.295 . S
O152 Fe135 1.997 . S
O152 C147 1.235 . S
C153 O136 1.295 . S
C153 O137 1.235 . S
Fe154 O156 1.918 . S
Fe154 O159 1.997 . S
Fe154 O160 2.002 . S
Fe154 O165 1.976 . S
Fe154 O168 1.996 . S
Fe155 O156 1.918 . S
Fe155 O163 1.997 . S
Fe155 O166 1.996 . S
Fe155 O170 1.976 . S
Fe155 O173 2.002 . S
O156 Fe154 1.918 . S
O156 Fe155 1.918 . S
O156 Fe157 1.918 . S
Fe157 O156 1.918 . S
Fe157 O158 2.002 . S
Fe157 O167 1.976 . S
Fe157 O171 1.996 . S
Fe157 O174 1.997 . S
O158 Fe157 2.002 . S
O158 C175 1.295 . S
O159 Fe154 1.997 . S
O159 C175 1.235 . S
O160 Fe154 2.002 . S
O160 C161 1.295 . S
C161 O160 1.295 . S
C161 O163 1.235 . S
C162 O167 1.287 . S
C162 O168 1.255 . S
O163 Fe155 1.997 . S
O163 C161 1.235 . S
C164 O170 1.287 . S
C164 O171 1.255 . S
O165 Fe154 1.976 . S
O165 C172 1.287 . S
O166 Fe155 1.996 . S
O166 C172 1.255 . S
O167 Fe157 1.976 . S
O167 C162 1.287 . S
O168 Fe154 1.996 . S
O168 C162 1.255 . S
C169 O173 1.295 . S
C169 O174 1.235 . S
O170 Fe155 1.976 . S
O170 C164 1.287 . S
O171 Fe157 1.996 . S
O171 C164 1.255 . S
C172 O165 1.287 . S
C172 O166 1.255 . S
O173 Fe155 2.002 . S
O173 C169 1.295 . S
O174 Fe157 1.997 . S
O174 C169 1.235 . S
C175 O158 1.295 . S
C175 O159 1.235 . S
H176 C184 0.929 . S
H177 C186 0.930 . S
H178 C188 0.930 1_565 S
H179 C191 0.929 . S
H180 C194 0.930 . S
H181 C196 0.960 . S
H182 C196 0.960 . S
H183 C196 0.960 . S
C184 H176 0.929 . S
C184 C185 1.377 . S
C184 C186 1.384 . S
C185 C184 1.377 . S
C185 C191 1.390 . S
C186 H177 0.930 . S
C186 C184 1.384 . S
C186 C187 1.372 . S
C187 C186 1.372 . S
C187 C188 1.400 . S
C187 C192 1.490 1_545 S
C188 H178 0.930 1_545 S
C188 C187 1.400 . S
C188 C191 1.386 . S
H189 C205 0.930 . S
H190 C206 0.931 . S
C191 H179 0.929 . S
C191 C185 1.390 . S
C191 C188 1.386 . S
C192 C187 1.490 1_565 S
C192 C194 1.395 . S
C192 C195 1.403 . S
H193 C199 0.930 . S
C194 H180 0.930 . S
C194 C192 1.395 . S
C194 C197 1.403 . S
C195 C192 1.403 . S
C195 C196 1.524 . S
C195 C199 1.400 . S
C196 H181 0.960 . S
C196 H182 0.960 . S
C196 H183 0.960 . S
C196 C195 1.524 . S
C197 C194 1.403 . S
C197 C198 1.392 . S
C197 C201 1.495 . S
C198 C197 1.392 . S
C198 C199 1.385 . S
C198 C200 1.478 . S
C199 H193 0.930 . S
C199 C195 1.400 . S
C199 C198 1.385 . S
C200 C198 1.478 . S
C200 C202 1.381 . S
C200 C206 1.383 . S
C201 C197 1.495 . S
C201 H207 0.959 . S
C201 H208 0.961 . S
C201 H209 0.960 . S
C202 C200 1.381 . S
C202 C203 1.394 . S
C202 H210 0.930 . S
C203 C202 1.394 . S
C203 C204 1.383 . S
C203 H211 0.929 . S
C204 C203 1.383 . S
C204 C205 1.377 . S
C205 H189 0.930 . S
C205 C204 1.377 . S
C205 C206 1.379 . S
C206 H190 0.931 . S
C206 C200 1.383 . S
C206 C205 1.379 . S
H207 C201 0.959 . S
H208 C201 0.961 . S
H209 C201 0.960 . S
H210 C202 0.930 . S
H211 C203 0.929 . S
H212 C220 0.929 . S
H213 C222 0.930 . S
H214 C224 0.930 1_655 S
H215 C227 0.929 . S
H216 C230 0.930 . S
H217 C232 0.960 . S
H218 C232 0.960 . S
H219 C232 0.960 . S
C220 H212 0.929 . S
C220 C221 1.377 . S
C220 C222 1.384 . S
C221 C220 1.377 . S
C221 C227 1.390 . S
C222 H213 0.930 . S
C222 C220 1.384 . S
C222 C223 1.372 . S
C223 C222 1.372 . S
C223 C224 1.400 . S
C223 C228 1.490 1_455 S
C224 H214 0.930 1_455 S
C224 C223 1.400 . S
C224 C227 1.386 . S
H225 C241 0.930 . S
H226 C242 0.931 . S
C227 H215 0.929 . S
C227 C221 1.390 . S
C227 C224 1.386 . S
C228 C223 1.490 1_655 S
C228 C230 1.395 . S
C228 C231 1.403 . S
H229 C235 0.930 . S
C230 H216 0.930 . S
C230 C228 1.395 . S
C230 C233 1.403 . S
C231 C228 1.403 . S
C231 C232 1.524 . S
C231 C235 1.400 . S
C232 H217 0.960 . S
C232 H218 0.960 . S
C232 H219 0.960 . S
C232 C231 1.524 . S
C233 C230 1.403 . S
C233 C234 1.392 . S
C233 C237 1.495 . S
C234 C233 1.392 . S
C234 C235 1.385 . S
C234 C236 1.478 . S
C235 H229 0.930 . S
C235 C231 1.400 . S
C235 C234 1.385 . S
C236 C234 1.478 . S
C236 C238 1.381 . S
C236 C242 1.383 . S
C237 C233 1.495 . S
C237 H243 0.959 . S
C237 H244 0.961 . S
C237 H245 0.960 . S
C238 C236 1.381 . S
C238 C239 1.394 . S
C238 H246 0.930 . S
C239 C238 1.394 . S
C239 C240 1.383 . S
C239 H247 0.929 . S
C240 C239 1.383 . S
C240 C241 1.377 . S
C241 H225 0.930 . S
C241 C240 1.377 . S
C241 C242 1.379 . S
C242 H226 0.931 . S
C242 C236 1.383 . S
C242 C241 1.379 . S
H243 C237 0.959 . S
H244 C237 0.961 . S
H245 C237 0.960 . S
H246 C238 0.930 . S
H247 C239 0.929 . S
H248 C256 0.929 . S
H249 C258 0.930 1_545 S
H250 C260 0.930 . S
H251 C263 0.929 . S
H252 C266 0.930 . S
H253 C268 0.960 . S
H254 C268 0.960 . S
H255 C268 0.960 . S
C256 H248 0.929 . S
C256 C257 1.377 . S
C256 C258 1.384 . S
C257 C256 1.377 . S
C257 C263 1.390 . S
C258 H249 0.930 1_565 S
C258 C256 1.384 . S
C258 C259 1.372 . S
C259 C258 1.372 . S
C259 C260 1.401 . S
C259 C264 1.488 1_565 S
C260 H250 0.930 . S
C260 C259 1.401 . S
C260 C263 1.386 . S
H261 C277 0.930 . S
H262 C278 0.931 . S
C263 H251 0.929 . S
C263 C257 1.390 . S
C263 C260 1.386 . S
C264 C259 1.488 1_545 S
C264 C266 1.395 . S
C264 C267 1.403 . S
H265 C271 0.930 . S
C266 H252 0.930 . S
C266 C264 1.395 . S
C266 C269 1.403 . S
C267 C264 1.403 . S
C267 C268 1.524 . S
C267 C271 1.400 . S
C268 H253 0.960 . S
C268 H254 0.960 . S
C268 H255 0.960 . S
C268 C267 1.524 . S
C269 C266 1.403 . S
C269 C270 1.392 . S
C269 C273 1.495 . S
C270 C269 1.392 . S
C270 C271 1.385 . S
C270 C272 1.478 . S
C271 H265 0.930 . S
C271 C267 1.400 . S
C271 C270 1.385 . S
C272 C270 1.478 . S
C272 C274 1.381 . S
C272 C278 1.383 . S
C273 C269 1.495 . S
C273 H279 0.959 . S
C273 H280 0.961 . S
C273 H281 0.960 . S
C274 C272 1.381 . S
C274 C275 1.394 . S
C274 H282 0.930 . S
C275 C274 1.394 . S
C275 C276 1.383 . S
C275 H283 0.929 . S
C276 C275 1.383 . S
C276 C277 1.377 . S
C277 H261 0.930 . S
C277 C276 1.377 . S
C277 C278 1.379 . S
C278 H262 0.931 . S
C278 C272 1.383 . S
C278 C277 1.379 . S
H279 C273 0.959 . S
H280 C273 0.961 . S
H281 C273 0.960 . S
H282 C274 0.930 . S
H283 C275 0.929 . S
H284 C292 0.929 . S
H285 C294 0.930 . S
H286 C296 0.930 . S
H287 C299 0.929 . S
H288 C302 0.930 . S
H289 C304 0.960 . S
H290 C304 0.960 . S
H291 C304 0.960 . S
C292 H284 0.929 . S
C292 C293 1.377 . S
C292 C294 1.384 . S
C293 C292 1.377 . S
C293 C299 1.390 . S
C294 H285 0.930 . S
C294 C292 1.384 . S
C294 C295 1.372 . S
C295 C294 1.372 . S
C295 C296 1.400 . S
C295 C300 1.490 . S
C296 H286 0.930 . S
C296 C295 1.400 . S
C296 C299 1.386 . S
H297 C313 0.930 . S
H298 C314 0.931 1_455 S
C299 H287 0.929 . S
C299 C293 1.390 . S
C299 C296 1.386 . S
C300 C295 1.490 . S
C300 C302 1.395 . S
C300 C303 1.403 . S
H301 C307 0.930 . S
C302 H288 0.930 . S
C302 C300 1.395 . S
C302 C305 1.403 . S
C303 C300 1.403 . S
C303 C304 1.524 . S
C303 C307 1.400 . S
C304 H289 0.960 . S
C304 H290 0.960 . S
C304 H291 0.960 . S
C304 C303 1.524 . S
C305 C302 1.403 . S
C305 C306 1.392 . S
C305 C309 1.495 . S
C306 C305 1.392 . S
C306 C307 1.385 . S
C306 C308 1.478 . S
C307 H301 0.930 . S
C307 C303 1.400 . S
C307 C306 1.385 . S
C308 C306 1.478 . S
C308 C310 1.381 1_455 S
C308 C314 1.383 1_455 S
C309 C305 1.495 . S
C309 H315 0.959 . S
C309 H316 0.961 . S
C309 H317 0.960 . S
C310 C308 1.381 1_655 S
C310 C311 1.394 . S
C310 H318 0.930 . S
C311 C310 1.394 . S
C311 C312 1.383 . S
C311 H319 0.929 . S
C312 C311 1.383 . S
C312 C313 1.377 . S
C313 H297 0.930 . S
C313 C312 1.377 . S
C313 C314 1.379 . S
C314 H298 0.931 1_655 S
C314 C308 1.383 1_655 S
C314 C313 1.379 . S
H315 C309 0.959 . S
H316 C309 0.961 . S
H317 C309 0.960 . S
H318 C310 0.930 . S
H319 C311 0.929 . S
H320 C328 0.929 . S
H321 C330 0.930 . S
H322 C332 0.930 . S
H323 C335 0.929 . S
H324 C338 0.930 . S
H325 C340 0.960 . S
H326 C340 0.960 . S
H327 C340 0.960 . S
C328 H320 0.929 . S
C328 C329 1.377 . S
C328 C330 1.384 . S
C329 C328 1.377 . S
C329 C335 1.390 . S
C330 H321 0.930 . S
C330 C328 1.384 . S
C330 C331 1.372 . S
C331 C330 1.372 . S
C331 C332 1.400 . S
C331 C336 1.490 . S
C332 H322 0.930 . S
C332 C331 1.400 . S
C332 C335 1.386 . S
H333 C349 0.930 . S
H334 C350 0.931 . S
C335 H323 0.929 . S
C335 C329 1.390 . S
C335 C332 1.386 . S
C336 C331 1.490 . S
C336 C338 1.395 . S
C336 C339 1.403 . S
H337 C343 0.930 . S
C338 H324 0.930 . S
C338 C336 1.395 . S
C338 C341 1.403 . S
C339 C336 1.403 . S
C339 C340 1.524 1_554 S
C339 C343 1.400 1_554 S
C340 H325 0.960 . S
C340 H326 0.960 . S
C340 H327 0.960 . S
C340 C339 1.524 1_556 S
C341 C338 1.403 . S
C341 C342 1.392 . S
C341 C345 1.495 . S
C342 C341 1.392 . S
C342 C343 1.385 1_554 S
C342 C344 1.478 1_554 S
C343 H337 0.930 . S
C343 C339 1.400 1_556 S
C343 C342 1.385 1_556 S
C344 C342 1.478 1_556 S
C344 C346 1.381 . S
C344 C350 1.383 . S
C345 C341 1.495 . S
C345 H351 0.959 . S
C345 H352 0.961 . S
C345 H353 0.960 . S
C346 C344 1.381 . S
C346 C347 1.394 . S
C346 H354 0.930 . S
C347 C346 1.394 . S
C347 C348 1.383 . S
C347 H355 0.929 . S
C348 C347 1.383 . S
C348 C349 1.377 . S
C349 H333 0.930 . S
C349 C348 1.377 . S
C349 C350 1.379 . S
C350 H334 0.931 . S
C350 C344 1.383 . S
C350 C349 1.379 . S
H351 C345 0.959 . S
H352 C345 0.961 . S
H353 C345 0.960 . S
H354 C346 0.930 . S
H355 C347 0.929 . S
H356 C364 0.929 . S
H357 C366 0.930 . S
H358 C368 0.930 . S
H359 C371 0.929 . S
H360 C374 0.920 1_554 S
H361 C376 0.960 . S
H362 C376 0.960 . S
H363 C376 0.960 . S
C364 H356 0.929 . S
C364 C365 1.377 . S
C364 C366 1.384 . S
C365 C364 1.377 . S
C365 C371 1.390 . S
C366 H357 0.930 . S
C366 C364 1.384 . S
C366 C367 1.372 . S
C367 C366 1.372 . S
C367 C368 1.400 . S
C367 C372 1.490 . S
C368 H358 0.930 . S
C368 C367 1.400 . S
C368 C371 1.386 . S
H369 C385 0.930 . S
H370 C386 0.931 1_556 S
C371 H359 0.929 . S
C371 C365 1.390 . S
C371 C368 1.386 . S
C372 C367 1.490 . S
C372 C374 1.419 . S
C372 C375 1.403 . S
H373 C379 0.930 . S
C374 H360 0.920 1_556 S
C374 C372 1.419 . S
C374 C377 1.389 1_556 S
C375 C372 1.403 . S
C375 C376 1.524 . S
C375 C379 1.400 . S
C376 H361 0.960 . S
C376 H362 0.960 . S
C376 H363 0.960 . S
C376 C375 1.524 . S
C377 C374 1.389 1_554 S
C377 C378 1.392 . S
C377 C381 1.495 . S
C378 C377 1.392 . S
C378 C379 1.385 1_554 S
C378 C380 1.478 . S
C379 H373 0.930 . S
C379 C375 1.400 . S
C379 C378 1.385 1_556 S
C380 C378 1.478 . S
C380 C382 1.381 . S
C380 C386 1.383 . S
C381 C377 1.495 . S
C381 H387 0.959 . S
C381 H388 0.961 . S
C381 H389 0.960 . S
C382 C380 1.381 . S
C382 C383 1.394 . S
C382 H390 0.930 . S
C383 C382 1.394 . S
C383 C384 1.383 . S
C383 H391 0.929 . S
C384 C383 1.383 . S
C384 C385 1.377 . S
C385 H369 0.930 . S
C385 C384 1.377 . S
C385 C386 1.379 . S
C386 H370 0.931 1_554 S
C386 C380 1.383 . S
C386 C385 1.379 . S
H387 C381 0.959 . S
H388 C381 0.961 . S
H389 C381 0.960 . S
H390 C382 0.930 . S
H391 C383 0.929 . S
H392 C400 0.929 . S
H393 C402 0.930 . S
H394 C404 0.930 . S
H395 C407 0.929 . S
H396 C410 0.930 . S
H397 C412 0.960 . S
H398 C412 0.960 . S
H399 C412 0.960 . S
C400 H392 0.929 . S
C400 C401 1.377 . S
C400 C402 1.384 . S
C401 C400 1.377 . S
C401 C407 1.390 . S
C402 H393 0.930 . S
C402 C400 1.384 . S
C402 C403 1.372 . S
C403 C402 1.372 . S
C403 C404 1.400 . S
C403 C408 1.490 . S
C404 H394 0.930 . S
C404 C403 1.400 . S
C404 C407 1.386 . S
H405 C421 0.930 . S
H406 C422 0.931 . S
C407 H395 0.929 . S
C407 C401 1.390 . S
C407 C404 1.386 . S
C408 C403 1.490 . S
C408 C410 1.395 . S
C408 C411 1.403 . S
H409 C415 0.930 . S
C410 H396 0.930 . S
C410 C408 1.395 . S
C410 C413 1.403 . S
C411 C408 1.403 . S
C411 C412 1.524 1_554 S
C411 C415 1.400 1_554 S
C412 H397 0.960 . S
C412 H398 0.960 . S
C412 H399 0.960 . S
C412 C411 1.524 1_556 S
C413 C410 1.403 . S
C413 C414 1.392 . S
C413 C417 1.495 . S
C414 C413 1.392 . S
C414 C415 1.385 1_554 S
C414 C416 1.478 1_554 S
C415 H409 0.930 . S
C415 C411 1.400 1_556 S
C415 C414 1.385 1_556 S
C416 C414 1.478 1_556 S
C416 C418 1.381 . S
C416 C422 1.383 . S
C417 C413 1.495 . S
C417 H423 0.959 . S
C417 H424 0.961 . S
C417 H425 0.960 . S
C418 C416 1.381 . S
C418 C419 1.394 . S
C418 H426 0.930 . S
C419 C418 1.394 . S
C419 C420 1.383 . S
C419 H427 0.929 . S
C420 C419 1.383 . S
C420 C421 1.377 . S
C421 H405 0.930 . S
C421 C420 1.377 . S
C421 C422 1.379 . S
C422 H406 0.931 . S
C422 C416 1.383 . S
C422 C421 1.379 . S
H423 C417 0.959 . S
H424 C417 0.961 . S
H425 C417 0.960 . S
H426 C418 0.930 . S
H427 C419 0.929 . S
H428 C436 0.929 . S
H429 C438 0.930 . S
H430 C440 0.930 . S
H431 C443 0.929 . S
H432 C446 0.930 . S
H433 C448 0.960 . S
H434 C448 0.960 . S
H435 C448 0.960 . S
C436 H428 0.929 . S
C436 C437 1.377 . S
C436 C438 1.384 . S
C437 C436 1.377 . S
C437 C443 1.390 . S
C438 H429 0.930 . S
C438 C436 1.384 . S
C438 C439 1.372 . S
C439 C438 1.372 . S
C439 C440 1.400 . S
C439 C444 1.490 1_554 S
C440 H430 0.930 . S
C440 C439 1.400 . S
C440 C443 1.386 . S
H441 C457 0.930 . S
H442 C458 0.931 . S
C443 H431 0.929 . S
C443 C437 1.390 . S
C443 C440 1.386 . S
C444 C439 1.490 1_556 S
C444 C446 1.395 . S
C444 C447 1.403 1_556 S
H445 C451 0.930 1_554 S
C446 H432 0.930 . S
C446 C444 1.395 . S
C446 C449 1.403 . S
C447 C444 1.403 1_554 S
C447 C448 1.524 . S
C447 C451 1.400 1_554 S
C448 H433 0.960 . S
C448 H434 0.960 . S
C448 H435 0.960 . S
C448 C447 1.524 . S
C449 C446 1.403 . S
C449 C450 1.392 . S
C449 C453 1.495 . S
C450 C449 1.392 . S
C450 C451 1.385 . S
C450 C452 1.478 . S
C451 H445 0.930 1_556 S
C451 C447 1.400 1_556 S
C451 C450 1.385 . S
C452 C450 1.478 . S
C452 C454 1.381 . S
C452 C458 1.383 . S
C453 C449 1.495 . S
C453 H459 0.959 . S
C453 H460 0.961 . S
C453 H461 0.960 . S
C454 C452 1.381 . S
C454 C455 1.394 . S
C454 H462 0.930 . S
C455 C454 1.394 . S
C455 C456 1.383 . S
C455 H463 0.929 . S
C456 C455 1.383 . S
C456 C457 1.377 . S
C457 H441 0.930 . S
C457 C456 1.377 . S
C457 C458 1.379 . S
C458 H442 0.931 . S
C458 C452 1.383 . S
C458 C457 1.379 . S
H459 C453 0.959 . S
H460 C453 0.961 . S
H461 C453 0.960 . S
H462 C454 0.930 . S
H463 C455 0.929 . S
H464 C472 0.929 . S
H465 C474 0.930 . S
H466 C476 0.930 . S
H467 C479 0.929 . S
H468 C482 0.930 . S
H469 C484 0.960 . S
H470 C484 0.960 . S
H471 C484 0.960 . S
C472 H464 0.929 . S
C472 C473 1.377 . S
C472 C474 1.384 . S
C473 C472 1.377 . S
C473 C479 1.390 . S
C474 H465 0.930 . S
C474 C472 1.384 . S
C474 C475 1.372 . S
C475 C474 1.372 . S
C475 C476 1.400 . S
C475 C480 1.490 . S
C476 H466 0.930 . S
C476 C475 1.400 . S
C476 C479 1.386 . S
H477 C493 0.930 . S
H478 C494 0.931 . S
C479 H467 0.929 . S
C479 C473 1.390 . S
C479 C476 1.386 . S
C480 C475 1.490 . S
C480 C482 1.395 . S
C480 C483 1.403 . S
H481 C487 0.930 . S
C482 H468 0.930 . S
C482 C480 1.395 . S
C482 C485 1.403 . S
C483 C480 1.403 . S
C483 C484 1.524 . S
C483 C487 1.400 . S
C484 H469 0.960 . S
C484 H470 0.960 . S
C484 H471 0.960 . S
C484 C483 1.524 . S
C485 C482 1.403 . S
C485 C486 1.392 . S
C485 C489 1.495 . S
C486 C485 1.392 . S
C486 C487 1.385 . S
C486 C488 1.478 . S
C487 H481 0.930 . S
C487 C483 1.400 . S
C487 C486 1.385 . S
C488 C486 1.478 . S
C488 C490 1.381 . S
C488 C494 1.383 . S
C489 C485 1.495 . S
C489 H495 0.959 . S
C489 H496 0.961 . S
C489 H497 0.960 . S
C490 C488 1.381 . S
C490 C491 1.394 . S
C490 H498 0.930 . S
C491 C490 1.394 . S
C491 C492 1.383 . S
C491 H499 0.929 . S
C492 C491 1.383 . S
C492 C493 1.377 . S
C493 H477 0.930 . S
C493 C492 1.377 . S
C493 C494 1.379 . S
C494 H478 0.931 . S
C494 C488 1.383 . S
C494 C493 1.379 . S
H495 C489 0.959 . S
H496 C489 0.961 . S
H497 C489 0.960 . S
H498 C490 0.930 . S
H499 C491 0.929 . S
H500 C508 0.929 . S
H501 C510 0.930 . S
H502 C512 0.930 . S
H503 C515 0.929 . S
H504 C518 0.930 . S
H505 C520 0.960 . S
H506 C520 0.960 . S
H507 C520 0.960 . S
C508 H500 0.929 . S
C508 C509 1.377 . S
C508 C510 1.384 . S
C509 C508 1.377 . S
C509 C515 1.390 . S
C510 H501 0.930 . S
C510 C508 1.384 . S
C510 C511 1.372 . S
C511 C510 1.372 . S
C511 C512 1.400 . S
C511 C516 1.490 . S
C512 H502 0.930 . S
C512 C511 1.400 . S
C512 C515 1.386 . S
H513 C529 0.930 . S
H514 C530 0.931 . S
C515 H503 0.929 . S
C515 C509 1.390 . S
C515 C512 1.386 . S
C516 C511 1.490 . S
C516 C518 1.395 . S
C516 C519 1.403 . S
H517 C523 0.930 . S
C518 H504 0.930 . S
C518 C516 1.395 . S
C518 C521 1.403 . S
C519 C516 1.403 . S
C519 C520 1.524 . S
C519 C523 1.400 . S
C520 H505 0.960 . S
C520 H506 0.960 . S
C520 H507 0.960 . S
C520 C519 1.524 . S
C521 C518 1.403 . S
C521 C522 1.392 . S
C521 C525 1.495 . S
C522 C521 1.392 . S
C522 C523 1.385 . S
C522 C524 1.478 . S
C523 H517 0.930 . S
C523 C519 1.400 . S
C523 C522 1.385 . S
C524 C522 1.478 . S
C524 C526 1.381 . S
C524 C530 1.383 . S
C525 C521 1.495 . S
C525 H531 0.959 . S
C525 H532 0.961 . S
C525 H533 0.960 . S
C526 C524 1.381 . S
C526 C527 1.394 . S
C526 H534 0.930 . S
C527 C526 1.394 . S
C527 C528 1.383 . S
C527 H535 0.929 . S
C528 C527 1.383 . S
C528 C529 1.377 . S
C529 H513 0.930 . S
C529 C528 1.377 . S
C529 C530 1.379 . S
C530 H514 0.931 . S
C530 C524 1.383 . S
C530 C529 1.379 . S
H531 C525 0.959 . S
H532 C525 0.961 . S
H533 C525 0.960 . S
H534 C526 0.930 . S
H535 C527 0.929 . S
H536 C544 0.929 . S
H537 C546 0.930 . S
H538 C548 0.930 . S
H539 C551 0.929 . S
H540 C554 0.930 . S
H541 C556 0.960 . S
H542 C556 0.960 . S
H543 C556 0.960 . S
C544 H536 0.929 . S
C544 C545 1.377 . S
C544 C546 1.384 . S
C545 C544 1.377 . S
C545 C551 1.390 . S
C546 H537 0.930 . S
C546 C544 1.384 . S
C546 C547 1.372 . S
C547 C546 1.372 . S
C547 C548 1.400 . S
C547 C552 1.490 . S
C548 H538 0.930 . S
C548 C547 1.400 . S
C548 C551 1.386 . S
H549 C565 0.930 . S
H550 C566 0.931 . S
C551 H539 0.929 . S
C551 C545 1.390 . S
C551 C548 1.386 . S
C552 C547 1.490 . S
C552 C554 1.395 . S
C552 C555 1.403 . S
H553 C559 0.930 . S
C554 H540 0.930 . S
C554 C552 1.395 . S
C554 C557 1.403 . S
C555 C552 1.403 . S
C555 C556 1.524 . S
C555 C559 1.400 . S
C556 H541 0.960 . S
C556 H542 0.960 . S
C556 H543 0.960 . S
C556 C555 1.524 . S
C557 C554 1.403 . S
C557 C558 1.392 . S
C557 C561 1.495 . S
C558 C557 1.392 . S
C558 C559 1.385 . S
C558 C560 1.478 . S
C559 H553 0.930 . S
C559 C555 1.400 . S
C559 C558 1.385 . S
C560 C558 1.478 . S
C560 C562 1.381 . S
C560 C566 1.383 . S
C561 C557 1.495 . S
C561 H567 0.959 . S
C561 H568 0.961 . S
C561 H569 0.960 . S
C562 C560 1.381 . S
C562 C563 1.394 . S
C562 H570 0.930 . S
C563 C562 1.394 . S
C563 C564 1.383 . S
C563 H571 0.929 . S
C564 C563 1.383 . S
C564 C565 1.377 . S
C565 H549 0.930 . S
C565 C564 1.377 . S
C565 C566 1.379 . S
C566 H550 0.931 . S
C566 C560 1.383 . S
C566 C565 1.379 . S
H567 C561 0.959 . S
H568 C561 0.961 . S
H569 C561 0.960 . S
H570 C562 0.930 . S
H571 C563 0.929 . S
H572 C580 0.929 . S
H573 C582 0.930 . S
H574 C584 0.930 . S
H575 C587 0.929 . S
H576 C590 0.930 . S
H577 C592 0.960 . S
H578 C592 0.960 . S
H579 C592 0.960 . S
C580 H572 0.929 . S
C580 C581 1.377 . S
C580 C582 1.384 . S
C581 C580 1.377 . S
C581 C587 1.390 . S
C582 H573 0.930 . S
C582 C580 1.384 . S
C582 C583 1.372 . S
C583 C582 1.372 . S
C583 C584 1.400 . S
C583 C588 1.490 . S
C584 H574 0.930 . S
C584 C583 1.400 . S
C584 C587 1.386 . S
H585 C601 0.930 . S
H586 C602 0.931 . S
C587 H575 0.929 . S
C587 C581 1.390 . S
C587 C584 1.386 . S
C588 C583 1.490 . S
C588 C590 1.395 . S
C588 C591 1.403 . S
H589 C595 0.930 . S
C590 H576 0.930 . S
C590 C588 1.395 . S
C590 C593 1.403 . S
C591 C588 1.403 . S
C591 C592 1.524 . S
C591 C595 1.400 . S
C592 H577 0.960 . S
C592 H578 0.960 . S
C592 H579 0.960 . S
C592 C591 1.524 . S
C593 C590 1.403 . S
C593 C594 1.392 . S
C593 C597 1.495 . S
C594 C593 1.392 . S
C594 C595 1.385 . S
C594 C596 1.478 . S
C595 H589 0.930 . S
C595 C591 1.400 . S
C595 C594 1.385 . S
C596 C594 1.478 . S
C596 C598 1.381 . S
C596 C602 1.383 . S
C597 C593 1.495 . S
C597 H603 0.959 . S
C597 H604 0.961 . S
C597 H605 0.960 . S
C598 C596 1.381 . S
C598 C599 1.394 . S
C598 H606 0.930 . S
C599 C598 1.394 . S
C599 C600 1.383 . S
C599 H607 0.929 . S
C600 C599 1.383 . S
C600 C601 1.377 . S
C601 H585 0.930 . S
C601 C600 1.377 . S
C601 C602 1.379 . S
C602 H586 0.931 . S
C602 C596 1.383 . S
C602 C601 1.379 . S
H603 C597 0.959 . S
H604 C597 0.961 . S
H605 C597 0.960 . S
H606 C598 0.930 . S
H607 C599 0.929 . S
H608 C616 0.929 . S
H609 C618 0.930 . S
H610 C620 0.930 . S
H611 C623 0.929 . S
H612 C626 0.930 . S
H613 C628 0.960 . S
H614 C628 0.960 . S
H615 C628 0.960 . S
C616 H608 0.929 . S
C616 C617 1.377 . S
C616 C618 1.384 . S
C617 C616 1.377 . S
C617 C623 1.390 . S
C618 H609 0.930 . S
C618 C616 1.384 . S
C618 C619 1.372 . S
C619 C618 1.372 . S
C619 C620 1.400 . S
C619 C624 1.490 . S
C620 H610 0.930 . S
C620 C619 1.400 . S
C620 C623 1.386 . S
H621 C637 0.930 . S
H622 C638 0.931 . S
C623 H611 0.929 . S
C623 C617 1.390 . S
C623 C620 1.386 . S
C624 C619 1.490 . S
C624 C626 1.395 . S
C624 C627 1.403 . S
H625 C631 0.930 . S
C626 H612 0.930 . S
C626 C624 1.395 . S
C626 C629 1.403 . S
C627 C624 1.403 . S
C627 C628 1.524 . S
C627 C631 1.400 . S
C628 H613 0.960 . S
C628 H614 0.960 . S
C628 H615 0.960 . S
C628 C627 1.524 . S
C629 C626 1.403 . S
C629 C630 1.392 . S
C629 C633 1.495 . S
C630 C629 1.392 . S
C630 C631 1.385 . S
C630 C632 1.478 1_545 S
C631 H625 0.930 . S
C631 C627 1.400 . S
C631 C630 1.385 . S
C632 C630 1.478 1_565 S
C632 C634 1.381 . S
C632 C638 1.383 . S
C633 C629 1.495 . S
C633 H639 0.959 . S
C633 H640 0.961 1_545 S
C633 H641 0.960 1_545 S
C634 C632 1.381 . S
C634 C635 1.394 . S
C634 H642 0.930 . S
C635 C634 1.394 . S
C635 C636 1.383 . S
C635 H643 0.929 . S
C636 C635 1.383 . S
C636 C637 1.377 . S
C637 H621 0.930 . S
C637 C636 1.377 . S
C637 C638 1.379 . S
C638 H622 0.931 . S
C638 C632 1.383 . S
C638 C637 1.379 . S
H639 C633 0.959 . S
H640 C633 0.961 1_565 S
H641 C633 0.960 1_565 S
H642 C634 0.930 . S
H643 C635 0.929 . S
H644 C652 0.929 . S
H645 C654 0.930 . S
H646 C656 0.930 . S
H647 C659 0.929 . S
H648 C662 0.930 . S
H649 C664 0.960 . S
H650 C664 0.960 . S
H651 C664 0.960 . S
C652 H644 0.929 . S
C652 C653 1.377 . S
C652 C654 1.384 . S
C653 C652 1.377 . S
C653 C659 1.390 . S
C654 H645 0.930 . S
C654 C652 1.384 . S
C654 C655 1.372 . S
C655 C654 1.372 . S
C655 C656 1.400 . S
C655 C660 1.490 . S
C656 H646 0.930 . S
C656 C655 1.400 . S
C656 C659 1.386 . S
H657 C673 0.930 . S
H658 C674 0.931 . S
C659 H647 0.929 . S
C659 C653 1.390 . S
C659 C656 1.386 . S
C660 C655 1.490 . S
C660 C662 1.395 . S
C660 C663 1.403 . S
H661 C667 0.930 . S
C662 H648 0.930 . S
C662 C660 1.395 . S
C662 C665 1.403 . S
C663 C660 1.403 . S
C663 C664 1.524 . S
C663 C667 1.400 . S
C664 H649 0.960 . S
C664 H650 0.960 . S
C664 H651 0.960 . S
C664 C663 1.524 . S
C665 C662 1.403 . S
C665 C666 1.392 . S
C665 C669 1.495 . S
C666 C665 1.392 . S
C666 C667 1.385 . S
C666 C668 1.478 1_455 S
C667 H661 0.930 . S
C667 C663 1.400 . S
C667 C666 1.385 . S
C668 C666 1.478 1_655 S
C668 C670 1.381 . S
C668 C674 1.383 . S
C669 C665 1.495 . S
C669 H675 0.959 . S
C669 H676 0.961 . S
C669 H677 0.960 . S
C670 C668 1.381 . S
C670 C671 1.394 . S
C670 H678 0.930 1_655 S
C671 C670 1.394 . S
C671 C672 1.383 . S
C671 H679 0.929 . S
C672 C671 1.383 . S
C672 C673 1.377 . S
C673 H657 0.930 . S
C673 C672 1.377 . S
C673 C674 1.379 . S
C674 H658 0.931 . S
C674 C668 1.383 . S
C674 C673 1.379 . S
H675 C669 0.959 . S
H676 C669 0.961 . S
H677 C669 0.960 . S
H678 C670 0.930 1_455 S
H679 C671 0.929 . S
H680 C688 0.929 . S
H681 C690 0.930 . S
H682 C692 0.930 . S
H683 C695 0.929 . S
H684 C698 0.930 . S
H685 C700 0.960 . S
H686 C700 0.960 . S
H687 C700 0.960 . S
C688 H680 0.929 . S
C688 C689 1.377 . S
C688 C690 1.384 . S
C689 C688 1.377 . S
C689 C695 1.390 . S
C690 H681 0.930 . S
C690 C688 1.384 . S
C690 C691 1.372 . S
C691 C690 1.372 . S
C691 C692 1.400 . S
C691 C696 1.490 . S
C692 H682 0.930 . S
C692 C691 1.400 . S
C692 C695 1.386 . S
H693 C709 0.930 . S
H694 C710 0.931 . S
C695 H683 0.929 . S
C695 C689 1.390 . S
C695 C692 1.386 . S
C696 C691 1.490 . S
C696 C698 1.395 . S
C696 C699 1.403 . S
H697 C703 0.930 . S
C698 H684 0.930 . S
C698 C696 1.395 . S
C698 C701 1.403 . S
C699 C696 1.403 . S
C699 C700 1.524 . S
C699 C703 1.400 . S
C700 H685 0.960 . S
C700 H686 0.960 . S
C700 H687 0.960 . S
C700 C699 1.524 . S
C701 C698 1.403 . S
C701 C702 1.392 . S
C701 C705 1.495 1_565 S
C702 C701 1.392 . S
C702 C703 1.385 . S
C702 C704 1.478 1_565 S
C703 H697 0.930 . S
C703 C699 1.400 . S
C703 C702 1.385 . S
C704 C702 1.478 1_545 S
C704 C706 1.381 . S
C704 C710 1.383 . S
C705 C701 1.495 1_545 S
C705 H711 0.959 1_545 S
C705 H712 0.961 . S
C705 H713 0.960 . S
C706 C704 1.381 . S
C706 C707 1.394 . S
C706 H714 0.930 . S
C707 C706 1.394 . S
C707 C708 1.383 . S
C707 H715 0.929 . S
C708 C707 1.383 . S
C708 C709 1.377 . S
C709 H693 0.930 . S
C709 C708 1.377 . S
C709 C710 1.379 . S
C710 H694 0.931 . S
C710 C704 1.383 . S
C710 C709 1.379 . S
H711 C705 0.959 1_565 S
H712 C705 0.961 . S
H713 C705 0.960 . S
H714 C706 0.930 . S
H715 C707 0.929 . S
H716 C724 0.929 . S
H717 C726 0.930 . S
H718 C728 0.945 . S
H719 C731 0.929 . S
H720 C734 0.930 . S
H721 C736 0.960 . S
H722 C736 0.960 . S
H723 C736 0.960 . S
C724 H716 0.929 . S
C724 C725 1.377 . S
C724 C726 1.384 . S
C725 C724 1.377 . S
C725 C731 1.390 . S
C726 H717 0.930 . S
C726 C724 1.384 . S
C726 C727 1.372 . S
C727 C726 1.372 . S
C727 C728 1.400 . S
C727 C732 1.490 1_455 S
C728 H718 0.945 . S
C728 C727 1.400 . S
C728 C731 1.386 . S
H729 C745 0.930 . S
H730 C746 0.931 . S
C731 H719 0.929 . S
C731 C725 1.390 . S
C731 C728 1.386 . S
C732 C727 1.490 1_655 S
C732 C734 1.395 . S
C732 C735 1.403 . S
H733 C739 0.930 . S
C734 H720 0.930 . S
C734 C732 1.395 . S
C734 C737 1.403 . S
C735 C732 1.403 . S
C735 C736 1.524 . S
C735 C739 1.400 . S
C736 H721 0.960 . S
C736 H722 0.960 . S
C736 H723 0.960 . S
C736 C735 1.524 . S
C737 C734 1.403 . S
C737 C738 1.392 . S
C737 C741 1.495 . S
C738 C737 1.392 . S
C738 C739 1.385 . S
C738 C740 1.478 . S
C739 H733 0.930 . S
C739 C735 1.400 . S
C739 C738 1.385 . S
C740 C738 1.478 . S
C740 C742 1.381 . S
C740 C746 1.383 . S
C741 C737 1.495 . S
C741 H747 0.959 . S
C741 H748 0.961 . S
C741 H749 0.960 . S
C742 C740 1.381 . S
C742 C743 1.394 . S
C742 H750 0.930 . S
C743 C742 1.394 . S
C743 C744 1.383 . S
C743 H751 0.929 . S
C744 C743 1.383 . S
C744 C745 1.377 . S
C745 H729 0.930 . S
C745 C744 1.377 . S
C745 C746 1.379 . S
C746 H730 0.931 . S
C746 C740 1.383 . S
C746 C745 1.379 . S
H747 C741 0.959 . S
H748 C741 0.961 . S
H749 C741 0.960 . S
H750 C742 0.930 . S
H751 C743 0.929 . S
H752 C760 0.929 . S
H753 C762 0.930 . S
H754 C764 0.930 . S
H755 C767 0.929 . S
H756 C770 0.930 . S
H757 C772 0.960 . S
H758 C772 0.960 . S
H759 C772 0.960 . S
C760 H752 0.929 . S
C760 C761 1.377 . S
C760 C762 1.384 1_556 S
C761 C760 1.377 . S
C761 C767 1.390 1_556 S
C762 H753 0.930 . S
C762 C760 1.384 1_554 S
C762 C763 1.372 . S
C763 C762 1.372 . S
C763 C764 1.400 . S
C763 C768 1.490 . S
C764 H754 0.930 . S
C764 C763 1.400 . S
C764 C767 1.386 . S
H765 C781 0.930 . S
H766 C782 0.931 . S
C767 H755 0.929 . S
C767 C761 1.390 1_554 S
C767 C764 1.386 . S
C768 C763 1.490 . S
C768 C770 1.395 . S
C768 C771 1.403 . S
H769 C775 0.930 . S
C770 H756 0.930 . S
C770 C768 1.395 . S
C770 C773 1.403 . S
C771 C768 1.403 . S
C771 C772 1.524 . S
C771 C775 1.400 . S
C772 H757 0.960 . S
C772 H758 0.960 . S
C772 H759 0.960 . S
C772 C771 1.524 . S
C773 C770 1.403 . S
C773 C774 1.392 . S
C773 C777 1.495 . S
C774 C773 1.392 . S
C774 C775 1.385 . S
C774 C776 1.478 . S
C775 H769 0.930 . S
C775 C771 1.400 . S
C775 C774 1.385 . S
C776 C774 1.478 . S
C776 C778 1.381 . S
C776 C782 1.383 . S
C777 C773 1.495 . S
C777 H783 0.959 . S
C777 H784 0.961 . S
C777 H785 0.960 . S
C778 C776 1.381 . S
C778 C779 1.394 . S
C778 H786 0.930 . S
C779 C778 1.394 . S
C779 C780 1.383 . S
C779 H787 0.929 . S
C780 C779 1.383 . S
C780 C781 1.377 . S
C781 H765 0.930 . S
C781 C780 1.377 . S
C781 C782 1.379 . S
C782 H766 0.931 . S
C782 C776 1.383 . S
C782 C781 1.379 . S
H783 C777 0.959 . S
H784 C777 0.961 . S
H785 C777 0.960 . S
H786 C778 0.930 . S
H787 C779 0.929 . S
H788 C796 0.929 . S
H789 C798 0.930 . S
H790 C800 0.930 . S
H791 C803 0.929 . S
H792 C806 0.930 . S
H793 C808 0.960 . S
H794 C808 0.960 . S
H795 C808 0.960 . S
C796 H788 0.929 . S
C796 C797 1.377 1_556 S
C796 C798 1.384 . S
C797 C796 1.377 1_554 S
C797 C803 1.390 . S
C798 H789 0.930 . S
C798 C796 1.384 . S
C798 C799 1.372 . S
C799 C798 1.372 . S
C799 C800 1.400 . S
C799 C804 1.490 . S
C800 H790 0.930 . S
C800 C799 1.400 . S
C800 C803 1.386 1_556 S
H801 C817 0.930 . S
H802 C818 0.931 . S
C803 H791 0.929 . S
C803 C797 1.390 . S
C803 C800 1.386 1_554 S
C804 C799 1.490 . S
C804 C806 1.395 . S
C804 C807 1.403 . S
H805 C811 0.930 . S
C806 H792 0.930 . S
C806 C804 1.395 . S
C806 C809 1.403 . S
C807 C804 1.403 . S
C807 C808 1.524 . S
C807 C811 1.400 . S
C808 H793 0.960 . S
C808 H794 0.960 . S
C808 H795 0.960 . S
C808 C807 1.524 . S
C809 C806 1.403 . S
C809 C810 1.392 . S
C809 C813 1.495 . S
C810 C809 1.392 . S
C810 C811 1.385 . S
C810 C812 1.478 . S
C811 H805 0.930 . S
C811 C807 1.400 . S
C811 C810 1.385 . S
C812 C810 1.478 . S
C812 C814 1.381 . S
C812 C818 1.383 . S
C813 C809 1.495 . S
C813 H819 0.959 . S
C813 H820 0.961 . S
C813 H821 0.960 . S
C814 C812 1.381 . S
C814 C815 1.394 . S
C814 H822 0.930 . S
C815 C814 1.394 . S
C815 C816 1.383 . S
C815 H823 0.929 . S
C816 C815 1.383 . S
C816 C817 1.377 . S
C817 H801 0.930 . S
C817 C816 1.377 . S
C817 C818 1.379 . S
C818 H802 0.931 . S
C818 C812 1.383 . S
C818 C817 1.379 . S
H819 C813 0.959 . S
H820 C813 0.961 . S
H821 C813 0.960 . S
H822 C814 0.930 . S
H823 C815 0.929 . S
H824 C832 0.929 . S
H825 C834 0.930 . S
H826 C836 0.930 . S
H827 C839 0.929 . S
H828 C842 0.930 . S
H829 C844 0.960 . S
H830 C844 0.960 . S
H831 C844 0.960 . S
C832 H824 0.929 . S
C832 C833 1.377 . S
C832 C834 1.384 . S
C833 C832 1.377 . S
C833 C839 1.390 . S
C834 H825 0.930 . S
C834 C832 1.384 . S
C834 C835 1.372 . S
C835 C834 1.372 . S
C835 C836 1.400 . S
C835 C840 1.490 . S
C836 H826 0.930 . S
C836 C835 1.400 . S
C836 C839 1.386 . S
H837 C853 0.930 . S
H838 C854 0.931 . S
C839 H827 0.929 . S
C839 C833 1.390 . S
C839 C836 1.386 . S
C840 C835 1.490 . S
C840 C842 1.395 . S
C840 C843 1.403 . S
H841 C847 0.930 . S
C842 H828 0.930 . S
C842 C840 1.395 . S
C842 C845 1.403 . S
C843 C840 1.403 . S
C843 C844 1.524 . S
C843 C847 1.400 . S
C844 H829 0.960 . S
C844 H830 0.960 . S
C844 H831 0.960 . S
C844 C843 1.524 . S
C845 C842 1.403 . S
C845 C846 1.392 . S
C845 C849 1.495 . S
C846 C845 1.392 . S
C846 C847 1.385 . S
C846 C848 1.478 . S
C847 H841 0.930 . S
C847 C843 1.400 . S
C847 C846 1.385 . S
C848 C846 1.478 . S
C848 C850 1.381 . S
C848 C854 1.383 . S
C849 C845 1.495 . S
C849 H855 0.959 . S
C849 H856 0.961 . S
C849 H857 0.960 . S
C850 C848 1.381 . S
C850 C851 1.394 1_554 S
C850 H858 0.930 . S
C851 C850 1.394 1_556 S
C851 C852 1.383 . S
C851 H859 0.929 . S
C852 C851 1.383 . S
C852 C853 1.377 1_556 S
C853 H837 0.930 . S
C853 C852 1.377 1_554 S
C853 C854 1.379 . S
C854 H838 0.931 . S
C854 C848 1.383 . S
C854 C853 1.379 . S
H855 C849 0.959 . S
H856 C849 0.961 . S
H857 C849 0.960 . S
H858 C850 0.930 . S
H859 C851 0.929 . S
H860 C868 0.929 . S
H861 C870 0.930 . S
H862 C872 0.930 . S
H863 C875 0.929 . S
H864 C878 0.930 . S
H865 C880 0.960 . S
H866 C880 0.960 . S
H867 C880 0.960 . S
C868 H860 0.929 . S
C868 C869 1.377 . S
C868 C870 1.384 . S
C869 C868 1.377 . S
C869 C875 1.390 . S
C870 H861 0.930 . S
C870 C868 1.384 . S
C870 C871 1.372 . S
C871 C870 1.372 . S
C871 C872 1.400 . S
C871 C876 1.490 . S
C872 H862 0.930 . S
C872 C871 1.400 . S
C872 C875 1.386 . S
H873 C889 0.930 . S
H874 C890 0.931 . S
C875 H863 0.929 . S
C875 C869 1.390 . S
C875 C872 1.386 . S
C876 C871 1.490 . S
C876 C878 1.395 . S
C876 C879 1.403 . S
H877 C883 0.930 . S
C878 H864 0.930 . S
C878 C876 1.395 . S
C878 C881 1.403 . S
C879 C876 1.403 . S
C879 C880 1.524 . S
C879 C883 1.400 . S
C880 H865 0.960 . S
C880 H866 0.960 . S
C880 H867 0.960 . S
C880 C879 1.524 . S
C881 C878 1.403 . S
C881 C882 1.392 . S
C881 C885 1.495 . S
C882 C881 1.392 . S
C882 C883 1.385 . S
C882 C884 1.478 . S
C883 H877 0.930 . S
C883 C879 1.400 . S
C883 C882 1.385 . S
C884 C882 1.478 . S
C884 C886 1.381 . S
C884 C890 1.383 . S
C885 C881 1.495 . S
C885 H891 0.959 . S
C885 H892 0.961 . S
C885 H893 0.960 . S
C886 C884 1.381 . S
C886 C887 1.394 1_556 S
C886 H894 0.930 . S
C887 C886 1.394 1_554 S
C887 C888 1.383 . S
C887 H895 0.929 . S
C888 C887 1.383 . S
C888 C889 1.377 1_554 S
C889 H873 0.930 . S
C889 C888 1.377 1_556 S
C889 C890 1.379 . S
C890 H874 0.931 . S
C890 C884 1.383 . S
C890 C889 1.379 . S
H891 C885 0.959 . S
H892 C885 0.961 . S
H893 C885 0.960 . S
H894 C886 0.930 . S
H895 C887 0.929 . S
H896 C904 0.929 . S
H897 C906 0.930 . S
H898 C908 0.930 . S
H899 C911 0.929 . S
H900 C914 0.930 . S
H901 C916 0.960 . S
H902 C916 0.960 . S
H903 C916 0.960 . S
C904 H896 0.929 . S
C904 C905 1.377 . S
C904 C906 1.384 . S
C905 C904 1.377 . S
C905 C911 1.390 . S
C906 H897 0.930 . S
C906 C904 1.384 . S
C906 C907 1.372 . S
C907 C906 1.372 . S
C907 C908 1.400 . S
C907 C912 1.490 . S
C908 H898 0.930 . S
C908 C907 1.400 . S
C908 C911 1.386 . S
H909 C925 0.930 . S
H910 C926 0.931 . S
C911 H899 0.929 . S
C911 C905 1.390 . S
C911 C908 1.386 . S
C912 C907 1.490 . S
C912 C914 1.395 . S
C912 C915 1.403 . S
H913 C919 0.930 . S
C914 H900 0.930 . S
C914 C912 1.395 . S
C914 C917 1.403 . S
C915 C912 1.403 . S
C915 C916 1.524 . S
C915 C919 1.400 . S
C916 H901 0.960 . S
C916 H902 0.960 . S
C916 H903 0.960 . S
C916 C915 1.524 . S
C917 C914 1.403 . S
C917 C918 1.392 . S
C917 C921 1.495 . S
C918 C917 1.392 . S
C918 C919 1.385 . S
C918 C920 1.478 . S
C919 H913 0.930 . S
C919 C915 1.400 . S
C919 C918 1.385 . S
C920 C918 1.478 . S
C920 C922 1.381 . S
C920 C926 1.383 . S
C921 C917 1.495 . S
C921 H927 0.959 . S
C921 H928 0.961 . S
C921 H929 0.960 . S
C922 C920 1.381 . S
C922 C923 1.394 . S
C922 H930 0.930 . S
C923 C922 1.394 . S
C923 C924 1.383 . S
C923 H931 0.929 . S
C924 C923 1.383 . S
C924 C925 1.377 . S
C925 H909 0.930 . S
C925 C924 1.377 . S
C925 C926 1.379 . S
C926 H910 0.931 . S
C926 C920 1.383 . S
C926 C925 1.379 . S
H927 C921 0.959 . S
H928 C921 0.961 . S
H929 C921 0.960 . S
H930 C922 0.930 . S
H931 C923 0.929 . S
H932 C940 0.929 . S
H933 C942 0.930 . S
H934 C944 0.930 . S
H935 C947 0.929 . S
H936 C950 0.930 . S
H937 C952 0.960 . S
H938 C952 0.960 . S
H939 C952 0.960 . S
C940 H932 0.929 . S
C940 C941 1.377 . S
C940 C942 1.384 . S
C941 C940 1.377 . S
C941 C947 1.390 . S
C942 H933 0.930 . S
C942 C940 1.384 . S
C942 C943 1.372 . S
C943 C942 1.372 . S
C943 C944 1.400 . S
C943 C948 1.490 . S
C944 H934 0.930 . S
C944 C943 1.400 . S
C944 C947 1.386 . S
H945 C961 0.930 . S
H946 C962 0.931 . S
C947 H935 0.929 . S
C947 C941 1.390 . S
C947 C944 1.386 . S
C948 C943 1.490 . S
C948 C950 1.395 . S
C948 C951 1.403 . S
H949 C955 0.930 . S
C950 H936 0.930 . S
C950 C948 1.395 . S
C950 C953 1.403 . S
C951 C948 1.403 . S
C951 C952 1.524 . S
C951 C955 1.400 . S
C952 H937 0.960 . S
C952 H938 0.960 . S
C952 H939 0.960 . S
C952 C951 1.524 . S
C953 C950 1.403 . S
C953 C954 1.392 . S
C953 C957 1.495 . S
C954 C953 1.392 . S
C954 C955 1.385 . S
C954 C956 1.478 . S
C955 H949 0.930 . S
C955 C951 1.400 . S
C955 C954 1.385 . S
C956 C954 1.478 . S
C956 C958 1.381 . S
C956 C962 1.383 . S
C957 C953 1.495 . S
C957 H963 0.959 . S
C957 H964 0.961 . S
C957 H965 0.960 . S
C958 C956 1.381 . S
C958 C959 1.394 . S
C958 H966 0.930 . S
C959 C958 1.394 . S
C959 C960 1.383 . S
C959 H967 0.929 . S
C960 C959 1.383 . S
C960 C961 1.377 . S
C961 H945 0.930 . S
C961 C960 1.377 . S
C961 C962 1.379 . S
C962 H946 0.931 . S
C962 C956 1.383 . S
C962 C961 1.379 . S
H963 C957 0.959 . S
H964 C957 0.961 . S
H965 C957 0.960 . S
H966 C958 0.930 . S
H967 C959 0.929 . S
H968 C976 0.929 . S
H969 C978 0.930 . S
H970 C980 0.930 . S
H971 C983 0.929 . S
H972 C986 0.930 . S
H973 C988 0.960 . S
H974 C988 0.960 . S
H975 C988 0.960 . S
C976 H968 0.929 . S
C976 C977 1.377 . S
C976 C978 1.384 . S
C977 C976 1.377 . S
C977 C983 1.390 . S
C978 H969 0.930 . S
C978 C976 1.384 . S
C978 C979 1.372 . S
C979 C978 1.372 . S
C979 C980 1.400 . S
C979 C984 1.490 . S
C980 H970 0.930 . S
C980 C979 1.400 . S
C980 C983 1.386 . S
H981 C997 0.930 . S
H982 C998 0.931 . S
C983 H971 0.929 . S
C983 C977 1.390 . S
C983 C980 1.386 . S
C984 C979 1.490 . S
C984 C986 1.395 . S
C984 C987 1.403 . S
H985 C991 0.930 . S
C986 H972 0.930 . S
C986 C984 1.395 . S
C986 C989 1.403 . S
C987 C984 1.403 . S
C987 C988 1.524 . S
C987 C991 1.400 . S
C988 H973 0.960 . S
C988 H974 0.960 . S
C988 H975 0.960 . S
C988 C987 1.524 . S
C989 C986 1.403 . S
C989 C990 1.392 . S
C989 C993 1.495 . S
C990 C989 1.392 . S
C990 C991 1.385 . S
C990 C992 1.478 . S
C991 H985 0.930 . S
C991 C987 1.400 . S
C991 C990 1.385 . S
C992 C990 1.478 . S
C992 C994 1.381 . S
C992 C998 1.383 . S
C993 C989 1.495 . S
C993 H999 0.959 . S
C993 H1000 0.961 . S
C993 H1001 0.960 . S
C994 C992 1.381 . S
C994 C995 1.394 . S
C994 H1002 0.930 . S
C995 C994 1.394 . S
C995 C996 1.383 . S
C995 H1003 0.929 . S
C996 C995 1.383 . S
C996 C997 1.377 . S
C997 H981 0.930 . S
C997 C996 1.377 . S
C997 C998 1.379 . S
C998 H982 0.931 . S
C998 C992 1.383 . S
C998 C997 1.379 . S
H999 C993 0.959 . S
H1000 C993 0.961 . S
H1001 C993 0.960 . S
H1002 C994 0.930 . S
H1003 C995 0.929 . S
H1004 C1012 0.929 . S
H1005 C1014 0.930 . S
H1006 C1016 0.930 . S
H1007 C1019 0.929 . S
H1008 C1022 0.930 . S
H1009 C1024 0.960 . S
H1010 C1024 0.960 . S
H1011 C1024 0.960 . S
C1012 H1004 0.929 . S
C1012 C1013 1.377 . S
C1012 C1014 1.384 . S
C1013 C1012 1.377 . S
C1013 C1019 1.390 . S
C1014 H1005 0.930 . S
C1014 C1012 1.384 . S
C1014 C1015 1.372 . S
C1015 C1014 1.372 . S
C1015 C1016 1.400 . S
C1015 C1020 1.490 . S
C1016 H1006 0.930 . S
C1016 C1015 1.400 . S
C1016 C1019 1.386 . S
H1017 C1033 0.930 . S
H1018 C1034 0.931 . S
C1019 H1007 0.929 . S
C1019 C1013 1.390 . S
C1019 C1016 1.386 . S
C1020 C1015 1.490 . S
C1020 C1022 1.395 . S
C1020 C1023 1.403 . S
H1021 C1027 0.930 . S
C1022 H1008 0.930 . S
C1022 C1020 1.395 . S
C1022 C1025 1.403 . S
C1023 C1020 1.403 . S
C1023 C1024 1.524 . S
C1023 C1027 1.400 . S
C1024 H1009 0.960 . S
C1024 H1010 0.960 . S
C1024 H1011 0.960 . S
C1024 C1023 1.524 . S
C1025 C1022 1.403 . S
C1025 C1026 1.392 . S
C1025 C1029 1.495 . S
C1026 C1025 1.392 . S
C1026 C1027 1.385 . S
C1026 C1028 1.478 . S
C1027 H1021 0.930 . S
C1027 C1023 1.400 . S
C1027 C1026 1.385 . S
C1028 C1026 1.478 . S
C1028 C1030 1.381 . S
C1028 C1034 1.383 . S
C1029 C1025 1.495 . S
C1029 H1035 0.959 . S
C1029 H1036 0.961 . S
C1029 H1037 0.960 . S
C1030 C1028 1.381 . S
C1030 C1031 1.394 . S
C1030 H1038 0.930 . S
C1031 C1030 1.394 . S
C1031 C1032 1.383 . S
C1031 H1039 0.929 . S
C1032 C1031 1.383 . S
C1032 C1033 1.377 . S
C1033 H1017 0.930 . S
C1033 C1032 1.377 . S
C1033 C1034 1.379 . S
C1034 H1018 0.931 . S
C1034 C1028 1.383 . S
C1034 C1033 1.379 . S
H1035 C1029 0.959 . S
H1036 C1029 0.961 . S
H1037 C1029 0.960 . S
H1038 C1030 0.930 . S
H1039 C1031 0.929 . S
C185 C10 1.074 . S
C204 C128 1.060 . S
C221 C37 1.133 . S
C240 C150 1.157 . S
C257 C59 1.157 . S
C276 C175 1.186 . S
C293 C103 1.092 . S
C312 C84 1.073 . S
C329 C131 1.098 . S
C348 C96 1.109 . S
C365 C147 1.173 . S
C384 C125 1.124 . S
C401 C172 1.148 . S
C420 C153 1.162 . S
C437 C164 1.066 . S
C456 C106 1.077 . S
C473 C140 1.071 . S
C492 C74 1.088 . S
C509 C169 1.135 . S
C528 C8 1.139 . S
C545 C43 1.182 . S
C564 C109 1.161 . S
C581 C51 1.091 . S
C600 C120 1.067 . S
C617 C81 1.098 . S
C636 C54 1.109 . S
C653 C7 1.174 . S
C672 C73 1.148 . S
C689 C40 1.148 . S
C708 C15 1.163 . S
C725 C32 1.064 . S
C744 C52 1.071 . S
C761 C98 0.983 . S
C780 C18 0.966 . S
C797 C117 1.084 . S
C816 C29 1.058 . S
C833 C65 1.083 . S
C852 C139 1.077 . S
C869 C76 0.995 . S
C888 C162 0.965 . S
C905 C62 0.991 . S
C924 C142 1.005 . S
C941 C87 1.088 . S
C960 C161 1.063 . S
C977 C95 1.079 . S
C996 C21 1.093 . S
C1013 C118 0.987 . S
C1032 C30 1.009 . S
