# Generated by pormake.
# Topology uka, (4)-cn, num edge types: 1
# Building blocks:
#     Node 0, Type 0, BuildingBlock: KUFVIS_clean_sbu_0, # of connection points: 4
#     Node 1, Type 0, BuildingBlock: KUFVIS_clean_sbu_0, # of connection points: 4
#     Node 2, Type 0, BuildingBlock: KUFVIS_clean_sbu_0, # of connection points: 4
#     Node 3, Type 0, BuildingBlock: KUFVIS_clean_sbu_0, # of connection points: 4
#     Node 4, Type 0, BuildingBlock: KUFVIS_clean_sbu_0, # of connection points: 4
#     Node 5, Type 0, BuildingBlock: KUFVIS_clean_sbu_0, # of connection points: 4
#     Node 6, Type 0, BuildingBlock: KUFVIS_clean_sbu_0, # of connection points: 4
#     Node 7, Type 0, BuildingBlock: KUFVIS_clean_sbu_0, # of connection points: 4
#     Node 8, Type 0, BuildingBlock: KUFVIS_clean_sbu_0, # of connection points: 4
#     Node 9, Type 0, BuildingBlock: KUFVIS_clean_sbu_0, # of connection points: 4
#     Node 10, Type 0, BuildingBlock: KUFVIS_clean_sbu_0, # of connection points: 4
#     Node 11, Type 0, BuildingBlock: KUFVIS_clean_sbu_0, # of connection points: 4
#     Node 12, Type 0, BuildingBlock: KUFVIS_clean_sbu_0, # of connection points: 4
#     Node 13, Type 0, BuildingBlock: KUFVIS_clean_sbu_0, # of connection points: 4
#     Node 14, Type 0, BuildingBlock: KUFVIS_clean_sbu_0, # of connection points: 4
#     Node 15, Type 0, BuildingBlock: KUFVIS_clean_sbu_0, # of connection points: 4
#     Node 16, Type 0, BuildingBlock: KUFVIS_clean_sbu_0, # of connection points: 4
#     Node 17, Type 0, BuildingBlock: KUFVIS_clean_sbu_0, # of connection points: 4
#     Node 18, Type 0, BuildingBlock: KUFVIS_clean_sbu_0, # of connection points: 4
#     Node 19, Type 0, BuildingBlock: KUFVIS_clean_sbu_0, # of connection points: 4
#     Node 20, Type 0, BuildingBlock: KUFVIS_clean_sbu_0, # of connection points: 4
#     Node 21, Type 0, BuildingBlock: KUFVIS_clean_sbu_0, # of connection points: 4
#     Node 22, Type 0, BuildingBlock: KUFVIS_clean_sbu_0, # of connection points: 4
#     Node 23, Type 0, BuildingBlock: KUFVIS_clean_sbu_0, # of connection points: 4
#     Node 24, Type 0, BuildingBlock: KUFVIS_clean_sbu_0, # of connection points: 4
#     Node 25, Type 0, BuildingBlock: KUFVIS_clean_sbu_0, # of connection points: 4
#     Node 26, Type 0, BuildingBlock: KUFVIS_clean_sbu_0, # of connection points: 4
#     Node 27, Type 0, BuildingBlock: KUFVIS_clean_sbu_0, # of connection points: 4
#     Node 28, Type 0, BuildingBlock: KUFVIS_clean_sbu_0, # of connection points: 4
#     Node 29, Type 0, BuildingBlock: KUFVIS_clean_sbu_0, # of connection points: 4
#     Node 30, Type 0, BuildingBlock: KUFVIS_clean_sbu_0, # of connection points: 4
#     Node 31, Type 0, BuildingBlock: KUFVIS_clean_sbu_0, # of connection points: 4
#     Edge 32, Type (0, 0), BuildingBlock: OJICUG_clean_linker_0, # of connection points: 2
#     Edge 33, Type (0, 0), BuildingBlock: OJICUG_clean_linker_0, # of connection points: 2
#     Edge 34, Type (0, 0), BuildingBlock: OJICUG_clean_linker_0, # of connection points: 2
#     Edge 35, Type (0, 0), BuildingBlock: OJICUG_clean_linker_0, # of connection points: 2
#     Edge 36, Type (0, 0), BuildingBlock: OJICUG_clean_linker_0, # of connection points: 2
#     Edge 37, Type (0, 0), BuildingBlock: OJICUG_clean_linker_0, # of connection points: 2
#     Edge 38, Type (0, 0), BuildingBlock: OJICUG_clean_linker_0, # of connection points: 2
#     Edge 39, Type (0, 0), BuildingBlock: OJICUG_clean_linker_0, # of connection points: 2
#     Edge 40, Type (0, 0), BuildingBlock: OJICUG_clean_linker_0, # of connection points: 2
#     Edge 41, Type (0, 0), BuildingBlock: OJICUG_clean_linker_0, # of connection points: 2
#     Edge 42, Type (0, 0), BuildingBlock: OJICUG_clean_linker_0, # of connection points: 2
#     Edge 43, Type (0, 0), BuildingBlock: OJICUG_clean_linker_0, # of connection points: 2
#     Edge 44, Type (0, 0), BuildingBlock: OJICUG_clean_linker_0, # of connection points: 2
#     Edge 45, Type (0, 0), BuildingBlock: OJICUG_clean_linker_0, # of connection points: 2
#     Edge 46, Type (0, 0), BuildingBlock: OJICUG_clean_linker_0, # of connection points: 2
#     Edge 47, Type (0, 0), BuildingBlock: OJICUG_clean_linker_0, # of connection points: 2
#     Edge 48, Type (0, 0), BuildingBlock: OJICUG_clean_linker_0, # of connection points: 2
#     Edge 49, Type (0, 0), BuildingBlock: OJICUG_clean_linker_0, # of connection points: 2
#     Edge 50, Type (0, 0), BuildingBlock: OJICUG_clean_linker_0, # of connection points: 2
#     Edge 51, Type (0, 0), BuildingBlock: OJICUG_clean_linker_0, # of connection points: 2
#     Edge 52, Type (0, 0), BuildingBlock: OJICUG_clean_linker_0, # of connection points: 2
#     Edge 53, Type (0, 0), BuildingBlock: OJICUG_clean_linker_0, # of connection points: 2
#     Edge 54, Type (0, 0), BuildingBlock: OJICUG_clean_linker_0, # of connection points: 2
#     Edge 55, Type (0, 0), BuildingBlock: OJICUG_clean_linker_0, # of connection points: 2
#     Edge 56, Type (0, 0), BuildingBlock: OJICUG_clean_linker_0, # of connection points: 2
#     Edge 57, Type (0, 0), BuildingBlock: OJICUG_clean_linker_0, # of connection points: 2
#     Edge 58, Type (0, 0), BuildingBlock: OJICUG_clean_linker_0, # of connection points: 2
#     Edge 59, Type (0, 0), BuildingBlock: OJICUG_clean_linker_0, # of connection points: 2
#     Edge 60, Type (0, 0), BuildingBlock: OJICUG_clean_linker_0, # of connection points: 2
#     Edge 61, Type (0, 0), BuildingBlock: OJICUG_clean_linker_0, # of connection points: 2
#     Edge 62, Type (0, 0), BuildingBlock: OJICUG_clean_linker_0, # of connection points: 2
#     Edge 63, Type (0, 0), BuildingBlock: OJICUG_clean_linker_0, # of connection points: 2
#     Edge 64, Type (0, 0), BuildingBlock: OJICUG_clean_linker_0, # of connection points: 2
#     Edge 65, Type (0, 0), BuildingBlock: OJICUG_clean_linker_0, # of connection points: 2
#     Edge 66, Type (0, 0), BuildingBlock: OJICUG_clean_linker_0, # of connection points: 2
#     Edge 67, Type (0, 0), BuildingBlock: OJICUG_clean_linker_0, # of connection points: 2
#     Edge 68, Type (0, 0), BuildingBlock: OJICUG_clean_linker_0, # of connection points: 2
#     Edge 69, Type (0, 0), BuildingBlock: OJICUG_clean_linker_0, # of connection points: 2
#     Edge 70, Type (0, 0), BuildingBlock: OJICUG_clean_linker_0, # of connection points: 2
#     Edge 71, Type (0, 0), BuildingBlock: OJICUG_clean_linker_0, # of connection points: 2
#     Edge 72, Type (0, 0), BuildingBlock: OJICUG_clean_linker_0, # of connection points: 2
#     Edge 73, Type (0, 0), BuildingBlock: OJICUG_clean_linker_0, # of connection points: 2
#     Edge 74, Type (0, 0), BuildingBlock: OJICUG_clean_linker_0, # of connection points: 2
#     Edge 75, Type (0, 0), BuildingBlock: OJICUG_clean_linker_0, # of connection points: 2
#     Edge 76, Type (0, 0), BuildingBlock: OJICUG_clean_linker_0, # of connection points: 2
#     Edge 77, Type (0, 0), BuildingBlock: OJICUG_clean_linker_0, # of connection points: 2
#     Edge 78, Type (0, 0), BuildingBlock: OJICUG_clean_linker_0, # of connection points: 2
#     Edge 79, Type (0, 0), BuildingBlock: OJICUG_clean_linker_0, # of connection points: 2
#     Edge 80, Type (0, 0), BuildingBlock: OJICUG_clean_linker_0, # of connection points: 2
#     Edge 81, Type (0, 0), BuildingBlock: OJICUG_clean_linker_0, # of connection points: 2
#     Edge 82, Type (0, 0), BuildingBlock: OJICUG_clean_linker_0, # of connection points: 2
#     Edge 83, Type (0, 0), BuildingBlock: OJICUG_clean_linker_0, # of connection points: 2
#     Edge 84, Type (0, 0), BuildingBlock: OJICUG_clean_linker_0, # of connection points: 2
#     Edge 85, Type (0, 0), BuildingBlock: OJICUG_clean_linker_0, # of connection points: 2
#     Edge 86, Type (0, 0), BuildingBlock: OJICUG_clean_linker_0, # of connection points: 2
#     Edge 87, Type (0, 0), BuildingBlock: OJICUG_clean_linker_0, # of connection points: 2
#     Edge 88, Type (0, 0), BuildingBlock: OJICUG_clean_linker_0, # of connection points: 2
#     Edge 89, Type (0, 0), BuildingBlock: OJICUG_clean_linker_0, # of connection points: 2
#     Edge 90, Type (0, 0), BuildingBlock: OJICUG_clean_linker_0, # of connection points: 2
#     Edge 91, Type (0, 0), BuildingBlock: OJICUG_clean_linker_0, # of connection points: 2
#     Edge 92, Type (0, 0), BuildingBlock: OJICUG_clean_linker_0, # of connection points: 2
#     Edge 93, Type (0, 0), BuildingBlock: OJICUG_clean_linker_0, # of connection points: 2
#     Edge 94, Type (0, 0), BuildingBlock: OJICUG_clean_linker_0, # of connection points: 2
#     Edge 95, Type (0, 0), BuildingBlock: OJICUG_clean_linker_0, # of connection points: 2
# Relax obj value: 0.146
# Max RMSD: 0.209
# Mean RMSD: 0.204
data_MOF--net-uka--node1-KUFVIS_clean_sbu_0--edge1-OJICUG_clean_linker_0
_symmetry_space_group_name_H-M    P1
_symmetry_Int_Tables_number       1
_symmetry_cell_setting            triclinic
loop_
_symmetry_equiv_pos_as_xyz
'x, y, z'
_cell_length_a     41.932755
_cell_length_b     44.111672
_cell_length_c     30.668494
_cell_angle_alpha  90.005636
_cell_angle_beta   89.999926
_cell_angle_gamma 89.99899
loop_
_atom_site_label
_atom_site_type_symbol
_atom_site_fract_x
_atom_site_fract_y
_atom_site_fract_z
_atom_type_partial_charge
Mn0 Mn 0.13303 0.2631 0.29108 0.0
Mn1 Mn 0.11705 0.20644 0.22058 0.0
C2 C 0.12129 0.2153 0.31623 0.0
C3 C 0.11505 0.30214 0.33563 0.0
C4 C 0.18425 0.2268 0.24288 0.0
O5 O 0.12249 0.28592 0.23542 0.0
O6 O 0.11373 0.24646 0.19005 0.0
C7 C 0.04914 0.21864 0.19933 0.0
N8 N 0.07185 0.20025 0.21705 0.0
C9 C 0.03279 0.16163 0.23231 0.0
C10 C 0.00905 0.18027 0.21464 0.0
C11 C 0.01731 0.20873 0.19768 0.0
C12 C 0.06424 0.17237 0.2322 0.0
H13 H 0.05527 0.24054 0.18603 0.0
C14 C 0.115 0.275 0.19827 0.0
O15 O 0.1446 0.30142 0.32286 0.0
O16 O 0.09611 0.28142 0.32086 0.0
N17 N 0.11843 0.16697 0.24675 0.0
C18 C 0.14406 0.15152 0.26268 0.0
C19 C 0.13973 0.12257 0.28072 0.0
C20 C 0.10911 0.10977 0.28229 0.0
C21 C 0.08308 0.12605 0.26575 0.0
C22 C 0.08886 0.1548 0.24798 0.0
H23 H 0.16754 0.16142 0.26248 0.0
O24 O 0.13743 0.23404 0.34023 0.0
O25 O 0.11262 0.22512 0.27803 0.0
O26 O 0.17652 0.24909 0.26733 0.0
O27 O 0.16383 0.21015 0.22332 0.0
C28 C 0.05158 0.11499 0.26666 0.0
C29 C 0.02647 0.13272 0.24977 0.0
H30 H 0.98444 0.17285 0.21356 0.0
H31 H -0.00088 0.22278 0.18306 0.0
H32 H 0.15992 0.11025 0.29373 0.0
H33 H 0.10582 0.08752 0.29652 0.0
H34 H 0.04639 0.09288 0.28027 0.0
H35 H 0.00236 0.12391 0.25044 0.0
Mn36 Mn 0.95049 0.86565 0.53217 0.0
Mn37 Mn 0.01098 0.87092 0.46036 0.0
C38 C 0.00152 0.87219 0.5577 0.0
C39 C 0.91731 0.83634 0.57509 0.0
C40 C 0.9696 0.92428 0.48599 0.0
O41 O 0.93049 0.84969 0.47678 0.0
O42 O 0.97155 0.85574 0.43053 0.0
C43 C 0.01869 0.80561 0.43954 0.0
N44 N 0.0312 0.83221 0.45443 0.0
C45 C 0.08311 0.8096 0.4624 0.0
C46 C 0.07078 0.78202 0.44714 0.0
C47 C 0.03844 0.78004 0.43561 0.0
C48 C 0.06237 0.83442 0.46518 0.0
H49 H 0.99387 0.80389 0.43054 0.0
C50 C 0.94291 0.84747 0.43911 0.0
O51 O 0.90882 0.86355 0.56374 0.0
O52 O 0.94413 0.82602 0.56049 0.0
N53 N 0.0508 0.88441 0.4838 0.0
C54 C 0.05876 0.91235 0.49932 0.0
C55 C 0.09015 0.9179 0.51299 0.0
C56 C 0.11306 0.89474 0.51039 0.0
C57 C 0.10437 0.86622 0.49412 0.0
C58 C 0.07277 0.86208 0.48062 0.0
H59 H 0.04128 0.93026 0.50142 0.0
O60 O 0.97685 0.87898 0.58122 0.0
O61 O 0.9957 0.86038 0.51927 0.0
O62 O 0.95008 0.90957 0.50995 0.0
O63 O 0.99257 0.91178 0.46539 0.0
C64 C 0.12572 0.84163 0.49128 0.0
C65 C 0.11511 0.81335 0.4754 0.0
H66 H 0.08588 0.7622 0.44433 0.0
H67 H 0.02878 0.75884 0.42369 0.0
H68 H 0.09665 0.94003 0.52527 0.0
H69 H 0.13725 0.89911 0.52088 0.0
H70 H 0.15029 0.84416 0.50154 0.0
H71 H 0.13169 0.79456 0.47364 0.0
Mn72 Mn 0.36518 0.73486 0.79104 0.0
Mn73 Mn 0.38103 0.79152 0.7205 0.0
C74 C 0.37688 0.78267 0.81616 0.0
C75 C 0.38323 0.69584 0.83556 0.0
C76 C 0.31387 0.77112 0.74294 0.0
O77 O 0.37568 0.71203 0.73536 0.0
O78 O 0.38435 0.75149 0.68997 0.0
C79 C 0.44892 0.77937 0.69905 0.0
N80 N 0.42622 0.79774 0.71684 0.0
C81 C 0.46527 0.83641 0.73194 0.0
C82 C 0.489 0.81779 0.71419 0.0
C83 C 0.48074 0.78931 0.69727 0.0
C84 C 0.43383 0.82563 0.73195 0.0
H85 H 0.44279 0.75746 0.68577 0.0
C86 C 0.38312 0.72295 0.69819 0.0
O87 O 0.35367 0.69654 0.82284 0.0
O88 O 0.40214 0.71657 0.82076 0.0
N89 N 0.37966 0.83099 0.74666 0.0
C90 C 0.35404 0.84643 0.76266 0.0
C91 C 0.35837 0.87539 0.78066 0.0
C92 C 0.38899 0.88822 0.78212 0.0
C93 C 0.415 0.87195 0.76551 0.0
C94 C 0.40922 0.84319 0.74779 0.0
H95 H 0.33057 0.83651 0.76254 0.0
O96 O 0.36078 0.76392 0.84018 0.0
O97 O 0.38554 0.77286 0.77795 0.0
O98 O 0.32164 0.74883 0.76737 0.0
O99 O 0.33426 0.78778 0.72335 0.0
C100 C 0.44649 0.88304 0.76631 0.0
C101 C 0.47159 0.86534 0.74935 0.0
H102 H 0.51359 0.82524 0.71301 0.0
H103 H 0.49892 0.77528 0.68257 0.0
H104 H 0.33819 0.8877 0.79372 0.0
H105 H 0.39227 0.91049 0.79632 0.0
H106 H 0.45168 0.90517 0.77988 0.0
H107 H 0.49569 0.87418 0.74992 0.0
Mn108 Mn 0.54772 0.13242 0.03173 0.0
Mn109 Mn 0.48726 0.1271 0.95987 0.0
C110 C 0.49669 0.12594 0.05723 0.0
C111 C 0.58092 0.16177 0.07458 0.0
C112 C 0.52859 0.07374 0.98567 0.0
O113 O 0.56776 0.14828 0.9763 0.0
O114 O 0.52671 0.14223 0.93005 0.0
C115 C 0.47958 0.19238 0.93889 0.0
N116 N 0.46706 0.16582 0.95385 0.0
C117 C 0.41515 0.18845 0.96172 0.0
C118 C 0.4275 0.21601 0.94639 0.0
C119 C 0.45985 0.21796 0.93488 0.0
C120 C 0.43588 0.16363 0.96458 0.0
H121 H 0.5044 0.19408 0.9299 0.0
C122 C 0.55535 0.15048 0.93863 0.0
O123 O 0.58938 0.13454 0.06332 0.0
O124 O 0.55411 0.17209 0.05993 0.0
N125 N 0.44742 0.11365 0.9833 0.0
C126 C 0.43944 0.08573 0.99885 0.0
C127 C 0.40804 0.08021 0.01249 0.0
C128 C 0.38514 0.10337 0.00984 0.0
C129 C 0.39386 0.13188 0.99353 0.0
C130 C 0.42547 0.13599 0.98006 0.0
H131 H 0.4569 0.06782 1.00099 0.0
O132 O 0.52134 0.11919 0.0808 0.0
O133 O 0.50252 0.1377 0.01877 0.0
O134 O 0.5481 0.08847 0.00964 0.0
O135 O 0.50565 0.08624 0.965 0.0
C136 C 0.37252 0.15647 0.99061 0.0
C137 C 0.38315 0.18473 0.97469 0.0
H138 H 0.41241 0.23583 0.94352 0.0
H139 H 0.46951 0.23914 0.9229 0.0
H140 H 0.40152 0.05809 0.02479 0.0
H141 H 0.36094 0.09902 0.02031 0.0
H142 H 0.34793 0.15396 1.00085 0.0
H143 H 0.36657 0.20352 0.97287 0.0
Mn144 Mn 0.13299 0.73482 0.2124 0.0
Mn145 Mn 0.1171 0.79148 0.28294 0.0
C146 C 0.12128 0.78262 0.18728 0.0
C147 C 0.11495 0.69579 0.16788 0.0
C148 C 0.18427 0.77108 0.26053 0.0
O149 O 0.12249 0.712 0.26808 0.0
O150 O 0.11378 0.75146 0.31346 0.0
C151 C 0.0492 0.77932 0.30427 0.0
N152 N 0.07191 0.7977 0.28654 0.0
C153 C 0.03287 0.83636 0.27138 0.0
C154 C 0.00912 0.81773 0.28906 0.0
C155 C 0.01738 0.78925 0.30598 0.0
C156 C 0.06431 0.82559 0.27142 0.0
H157 H 0.05532 0.75741 0.31753 0.0
C158 C 0.11503 0.72292 0.30525 0.0
O159 O 0.14452 0.69649 0.18061 0.0
O160 O 0.09604 0.71651 0.18268 0.0
N161 N 0.11849 0.83095 0.25678 0.0
C162 C 0.14412 0.84639 0.24081 0.0
C163 C 0.13979 0.87535 0.22281 0.0
C164 C 0.10918 0.88818 0.22131 0.0
C165 C 0.08316 0.87191 0.23788 0.0
C166 C 0.08893 0.84315 0.25562 0.0
H167 H 0.16759 0.83647 0.24095 0.0
O168 O 0.13739 0.76387 0.16325 0.0
O169 O 0.11262 0.77281 0.22549 0.0
O170 O 0.17652 0.7488 0.23609 0.0
O171 O 0.16387 0.78774 0.28013 0.0
C172 C 0.05166 0.883 0.23704 0.0
C173 C 0.02656 0.86529 0.25396 0.0
H174 H 0.98453 0.82517 0.29019 0.0
H175 H -0.00082 0.77521 0.32062 0.0
H176 H 0.15998 0.88765 0.20977 0.0
H177 H 0.10591 0.91044 0.2071 0.0
H178 H 0.04648 0.90512 0.22346 0.0
H179 H 0.00245 0.87412 0.25334 0.0
Mn180 Mn 0.54769 0.86563 0.47138 0.0
Mn181 Mn 0.48723 0.87097 0.54324 0.0
C182 C 0.49665 0.87212 0.44588 0.0
C183 C 0.58088 0.83627 0.42853 0.0
C184 C 0.52858 0.92431 0.51743 0.0
O185 O 0.56772 0.84977 0.5268 0.0
O186 O 0.52668 0.85582 0.57306 0.0
C187 C 0.47953 0.80569 0.56422 0.0
N188 N 0.46702 0.83226 0.54926 0.0
C189 C 0.4151 0.80965 0.5414 0.0
C190 C 0.42744 0.78209 0.55672 0.0
C191 C 0.45979 0.78012 0.56823 0.0
C192 C 0.43584 0.83446 0.53854 0.0
H193 H 0.50435 0.80398 0.57321 0.0
C194 C 0.55532 0.84757 0.56448 0.0
O195 O 0.58934 0.8635 0.43978 0.0
O196 O 0.55407 0.82596 0.44318 0.0
N197 N 0.4474 0.88443 0.51981 0.0
C198 C 0.43943 0.91236 0.50425 0.0
C199 C 0.40803 0.91789 0.49062 0.0
C200 C 0.38512 0.89474 0.49328 0.0
C201 C 0.39383 0.86623 0.50958 0.0
C202 C 0.42543 0.8621 0.52305 0.0
H203 H 0.4569 0.93026 0.50211 0.0
O204 O 0.5213 0.87887 0.42231 0.0
O205 O 0.50249 0.86036 0.48434 0.0
O206 O 0.54808 0.90959 0.49346 0.0
O207 O 0.50564 0.91183 0.53811 0.0
C208 C 0.37248 0.84165 0.5125 0.0
C209 C 0.3831 0.81338 0.52843 0.0
H210 H 0.41234 0.76227 0.5596 0.0
H211 H 0.46945 0.75894 0.58021 0.0
H212 H 0.40152 0.94001 0.47832 0.0
H213 H 0.36092 0.89909 0.48281 0.0
H214 H 0.34789 0.84417 0.50227 0.0
H215 H 0.36651 0.7946 0.53026 0.0
Mn216 Mn 0.36514 0.26314 0.71214 0.0
Mn217 Mn 0.38106 0.20648 0.78266 0.0
C218 C 0.37686 0.21533 0.68701 0.0
C219 C 0.38316 0.30216 0.6676 0.0
C220 C 0.31388 0.22687 0.76029 0.0
O221 O 0.37567 0.28596 0.76781 0.0
O222 O 0.38437 0.24651 0.81319 0.0
C223 C 0.44895 0.21865 0.80404 0.0
N224 N 0.42625 0.20028 0.78627 0.0
C225 C 0.4653 0.16163 0.7711 0.0
C226 C 0.48904 0.18025 0.78883 0.0
C227 C 0.48077 0.20871 0.80578 0.0
C228 C 0.43386 0.17239 0.77113 0.0
H229 H 0.44282 0.24055 0.81734 0.0
C230 C 0.38313 0.27504 0.80497 0.0
O231 O 0.35361 0.30146 0.68035 0.0
O232 O 0.40209 0.28144 0.68239 0.0
N233 N 0.37968 0.16701 0.75649 0.0
C234 C 0.35406 0.15157 0.74052 0.0
C235 C 0.35839 0.12261 0.7225 0.0
C236 C 0.38901 0.1098 0.72099 0.0
C237 C 0.41503 0.12607 0.73757 0.0
C238 C 0.40925 0.15482 0.75531 0.0
H239 H 0.33058 0.16148 0.74068 0.0
O240 O 0.36074 0.23407 0.663 0.0
O241 O 0.38553 0.22515 0.72521 0.0
O242 O 0.32163 0.24915 0.73585 0.0
O243 O 0.33428 0.21021 0.77986 0.0
C244 C 0.44653 0.11499 0.73673 0.0
C245 C 0.47163 0.1327 0.75366 0.0
H246 H 0.51364 0.1728 0.78997 0.0
H247 H 0.49896 0.22275 0.82046 0.0
H248 H 0.33821 0.1103 0.70946 0.0
H249 H 0.39229 0.08753 0.70677 0.0
H250 H 0.45171 0.09287 0.72313 0.0
H251 H 0.49573 0.12387 0.75305 0.0
Mn252 Mn 0.95051 0.13241 0.97144 0.0
Mn253 Mn 0.01101 0.12718 0.04325 0.0
C254 C 0.00153 0.12589 0.94591 0.0
C255 C 0.9173 0.16168 0.92851 0.0
C256 C 0.96966 0.07379 0.01764 0.0
O257 O 0.93051 0.14837 0.02684 0.0
O258 O 0.97156 0.14233 0.07308 0.0
C259 C 0.01868 0.19249 0.06406 0.0
N260 N 0.0312 0.1659 0.04916 0.0
C261 C 0.0831 0.18854 0.04117 0.0
C262 C 0.07075 0.21611 0.05643 0.0
C263 C 0.03841 0.21808 0.06798 0.0
C264 C 0.06237 0.16371 0.03841 0.0
H265 H 0.99386 0.1942 0.07307 0.0
C266 C 0.94292 0.15059 0.0645 0.0
O267 O 0.90884 0.13448 0.93988 0.0
O268 O 0.94412 0.17202 0.94311 0.0
N269 N 0.05083 0.1137 0.01981 0.0
C270 C 0.05881 0.08577 0.00429 0.0
C271 C 0.0902 0.08024 0.99061 0.0
C272 C 0.1131 0.10341 0.9932 0.0
C273 C 0.10439 0.13193 0.00946 0.0
C274 C 0.07279 0.13605 0.02297 0.0
H275 H 0.04135 0.06785 0.0022 0.0
O276 O 0.97687 0.11908 0.92239 0.0
O277 O 0.99571 0.1377 0.98434 0.0
O278 O 0.95013 0.08849 0.99368 0.0
O279 O 0.99262 0.0863 0.03823 0.0
C280 C 0.12572 0.15653 0.01229 0.0
C281 C 0.11509 0.18481 0.02816 0.0
H282 H 0.08584 0.23595 0.05922 0.0
H283 H 0.02874 0.23927 0.0799 0.0
H284 H 0.09672 0.05812 0.97834 0.0
H285 H 0.13729 0.09906 0.98269 0.0
H286 H 0.1503 0.15401 0.00201 0.0
H287 H 0.13166 0.20361 0.02991 0.0
Mn288 Mn 0.88138 0.69555 0.72208 0.0
Mn289 Mn 0.85404 0.6243 0.72758 0.0
C290 C 0.90835 0.65806 0.68402 0.0
C291 C 0.87861 0.74241 0.68748 0.0
C292 C 0.89227 0.6544 0.80011 0.0
O293 O 0.83681 0.70085 0.74668 0.0
O294 O 0.81844 0.65356 0.73708 0.0
C295 C 0.81273 0.62565 0.6492 0.0
N296 N 0.83697 0.61271 0.67219 0.0
C297 C 0.84483 0.57495 0.61664 0.0
C298 C 0.81934 0.58733 0.59302 0.0
C299 C 0.80347 0.61301 0.60914 0.0
C300 C 0.85321 0.58873 0.65614 0.0
H301 H 0.8007 0.64559 0.66113 0.0
C302 C 0.81412 0.68177 0.74514 0.0
O303 O 0.88959 0.74008 0.72704 0.0
O304 O 0.86854 0.71782 0.66911 0.0
N305 N 0.88522 0.59328 0.71786 0.0
C306 C 0.90786 0.5827 0.74599 0.0
C307 C 0.92581 0.55697 0.73477 0.0
C308 C 0.91993 0.54198 0.69518 0.0
C309 C 0.89572 0.55253 0.66755 0.0
C310 C 0.87846 0.57819 0.68057 0.0
H311 H 0.9122 0.59367 0.77685 0.0
O312 O 0.92184 0.68364 0.69357 0.0
O313 O 0.87896 0.65533 0.6971 0.0
O314 O 0.89834 0.67895 0.7797 0.0
O315 O 0.87302 0.63414 0.78574 0.0
C316 C 0.8876 0.5382 0.62802 0.0
C317 C 0.8622 0.54943 0.60257 0.0
H318 H 0.81197 0.57749 0.56227 0.0
H319 H 0.78411 0.62302 0.59076 0.0
H320 H 0.94404 0.54863 0.75668 0.0
H321 H 0.93381 0.52214 0.68666 0.0
H322 H 0.90059 0.5184 0.61703 0.0
H323 H 0.85611 0.53818 0.5723 0.0
Mn324 Mn 0.0106 0.11139 0.46417 0.0
Mn325 Mn 0.95058 0.11288 0.5364 0.0
C326 C 0.95895 0.11991 0.44081 0.0
C327 C 0.04884 0.1366 0.4242 0.0
C328 C 0.98005 0.05463 0.50237 0.0
O329 O 0.03421 0.11694 0.5217 0.0
O330 O 0.99223 0.11922 0.56751 0.0
C331 C 0.95604 0.17748 0.56195 0.0
N332 N 0.93832 0.15419 0.54569 0.0
C333 C 0.89358 0.1873 0.53337 0.0
C334 C 0.91113 0.21144 0.55092 0.0
C335 C 0.94253 0.20652 0.56513 0.0
C336 C 0.90814 0.15873 0.5316 0.0
H337 H 0.98042 0.17407 0.5719 0.0
C338 C 0.02234 0.12053 0.55968 0.0
O339 O 0.05137 0.1076 0.43086 0.0
O340 O 0.02558 0.15084 0.44288 0.0
N341 N 0.90943 0.10814 0.51008 0.0
C342 C 0.89662 0.08312 0.49075 0.0
C343 C 0.86585 0.08468 0.47285 0.0
C344 C 0.84858 0.11191 0.47494 0.0
C345 C 0.86222 0.13734 0.49503 0.0
C346 C 0.89284 0.13436 0.51276 0.0
H347 H 0.90986 0.06218 0.48861 0.0
O348 O 0.98025 0.10943 0.41417 0.0
O349 O 0.96869 0.12472 0.48047 0.0
O350 O 0.0009 0.06741 0.4784 0.0
O351 O 0.96076 0.06934 0.52686 0.0
C352 C 0.84689 0.16571 0.49727 0.0
C353 C 0.86255 0.19067 0.51643 0.0
H354 H 0.90093 0.23396 0.55293 0.0
H355 H 0.95642 0.22514 0.57808 0.0
H356 H 0.85555 0.06498 0.45722 0.0
H357 H 0.82498 0.1131 0.46068 0.0
H358 H 0.82322 0.1687 0.48379 0.0
H359 H 0.85072 0.21249 0.51733 0.0
Mn360 Mn 0.61681 0.30251 0.2218 0.0
Mn361 Mn 0.64408 0.37377 0.22741 0.0
C362 C 0.58979 0.33999 0.1838 0.0
C363 C 0.61961 0.25568 0.18707 0.0
C364 C 0.60589 0.34359 0.29989 0.0
O365 O 0.66138 0.29723 0.24636 0.0
O366 O 0.67971 0.34454 0.23687 0.0
C367 C 0.68541 0.37252 0.14903 0.0
N368 N 0.66114 0.38541 0.17203 0.0
C369 C 0.65323 0.4232 0.11655 0.0
C370 C 0.67874 0.41086 0.09291 0.0
C371 C 0.69466 0.38519 0.109 0.0
C372 C 0.64487 0.40939 0.15603 0.0
H373 H 0.69747 0.35259 0.16095 0.0
C374 C 0.68406 0.31633 0.24489 0.0
O375 O 0.60864 0.25796 0.22664 0.0
O376 O 0.62966 0.2803 0.16877 0.0
N377 N 0.61287 0.40477 0.21774 0.0
C378 C 0.59021 0.4153 0.24587 0.0
C379 C 0.57223 0.44102 0.23469 0.0
C380 C 0.5781 0.45604 0.19513 0.0
C381 C 0.60233 0.44554 0.16748 0.0
C382 C 0.61961 0.41989 0.18047 0.0
H383 H 0.58588 0.40431 0.27671 0.0
O384 O 0.57633 0.3144 0.19334 0.0
O385 O 0.61919 0.34274 0.19688 0.0
O386 O 0.59984 0.31905 0.27946 0.0
O387 O 0.62511 0.36387 0.28554 0.0
C388 C 0.61043 0.4599 0.12798 0.0
C389 C 0.63584 0.44871 0.10251 0.0
H390 H 0.6861 0.42073 0.06217 0.0
H391 H 0.71403 0.37523 0.09061 0.0
H392 H 0.55399 0.44933 0.25662 0.0
H393 H 0.56419 0.47588 0.18664 0.0
H394 H 0.59741 0.47969 0.11702 0.0
H395 H 0.64192 0.45999 0.07226 0.0
Mn396 Mn 0.48742 0.88666 0.96418 0.0
Mn397 Mn 0.54744 0.88518 0.03639 0.0
C398 C 0.53906 0.87814 0.94081 0.0
C399 C 0.44918 0.86145 0.92419 0.0
C400 C 0.51799 0.94342 0.00235 0.0
O401 O 0.46381 0.88111 0.02171 0.0
O402 O 0.5058 0.87887 0.06751 0.0
C403 C 0.54195 0.82059 0.06196 0.0
N404 N 0.55968 0.84387 0.04569 0.0
C405 C 0.6044 0.81073 0.03337 0.0
C406 C 0.58683 0.78659 0.05091 0.0
C407 C 0.55544 0.79154 0.06514 0.0
C408 C 0.58986 0.8393 0.0316 0.0
H409 H 0.51756 0.82401 0.0719 0.0
C410 C 0.47568 0.87754 0.0597 0.0
O411 O 0.44665 0.89045 0.93086 0.0
O412 O 0.47243 0.84721 0.94288 0.0
N413 N 0.58859 0.88989 0.01007 0.0
C414 C 0.60142 0.9149 0.99073 0.0
C415 C 0.63219 0.91332 0.97284 0.0
C416 C 0.64944 0.88608 0.97492 0.0
C417 C 0.63579 0.86066 0.99502 0.0
C418 C 0.60517 0.86367 0.01276 0.0
H419 H 0.5882 0.93584 0.98859 0.0
O420 O 0.51776 0.88862 0.91417 0.0
O421 O 0.52932 0.87333 0.98047 0.0
O422 O 0.49712 0.93064 0.97842 0.0
O423 O 0.53729 0.92872 0.02683 0.0
C424 C 0.6511 0.83228 0.99726 0.0
C425 C 0.63542 0.80733 0.01642 0.0
H426 H 0.59702 0.76407 0.05293 0.0
H427 H 0.54154 0.77293 0.07809 0.0
H428 H 0.6425 0.93301 0.9572 0.0
H429 H 0.67304 0.88487 0.96066 0.0
H430 H 0.67477 0.82927 0.98377 0.0
H431 H 0.64724 0.7855 0.01732 0.0
Mn432 Mn 0.88142 0.30239 0.78136 0.0
Mn433 Mn 0.85412 0.37365 0.77581 0.0
C434 C 0.9084 0.33987 0.81943 0.0
C435 C 0.87861 0.25554 0.81599 0.0
C436 C 0.89237 0.34351 0.70333 0.0
O437 O 0.83687 0.29711 0.75673 0.0
O438 O 0.81851 0.34441 0.76629 0.0
C439 C 0.81277 0.37234 0.85416 0.0
N440 N 0.83704 0.38526 0.83118 0.0
C441 C 0.8449 0.42304 0.88671 0.0
C442 C 0.81939 0.41067 0.91032 0.0
C443 C 0.8035 0.385 0.8942 0.0
C444 C 0.85328 0.40924 0.84723 0.0
H445 H 0.80073 0.35241 0.84222 0.0
C446 C 0.81418 0.3162 0.75823 0.0
O447 O 0.88961 0.25785 0.77644 0.0
O448 O 0.86855 0.28014 0.83433 0.0
N449 N 0.88532 0.40466 0.78553 0.0
C450 C 0.90797 0.41521 0.75742 0.0
C451 C 0.92593 0.44095 0.76864 0.0
C452 C 0.92004 0.45594 0.80821 0.0
C453 C 0.89581 0.44542 0.83584 0.0
C454 C 0.87855 0.41976 0.82281 0.0
H455 H 0.91232 0.40424 0.72657 0.0
O456 O 0.92188 0.31428 0.80989 0.0
O457 O 0.87902 0.34261 0.80632 0.0
O458 O 0.89842 0.31897 0.72374 0.0
O459 O 0.87312 0.36378 0.71768 0.0
C460 C 0.88768 0.45976 0.87535 0.0
C461 C 0.86227 0.44855 0.90079 0.0
H462 H 0.81201 0.42053 0.94106 0.0
H463 H 0.78413 0.37501 0.91257 0.0
H464 H 0.94417 0.44927 0.74673 0.0
H465 H 0.93393 0.47579 0.81674 0.0
H466 H 0.90068 0.47956 0.88634 0.0
H467 H 0.85617 0.45981 0.93105 0.0
Mn468 Mn 0.48746 0.11141 0.53894 0.0
Mn469 Mn 0.54748 0.11287 0.46672 0.0
C470 C 0.53911 0.11992 0.5623 0.0
C471 C 0.44923 0.13662 0.57893 0.0
C472 C 0.51802 0.05464 0.50077 0.0
O473 O 0.46385 0.11696 0.48141 0.0
O474 O 0.50584 0.11919 0.4356 0.0
C475 C 0.54199 0.17747 0.44114 0.0
N476 N 0.55972 0.15418 0.4574 0.0
C477 C 0.60445 0.18732 0.46969 0.0
C478 C 0.58689 0.21145 0.45214 0.0
C479 C 0.55549 0.20651 0.43794 0.0
C480 C 0.58991 0.15875 0.47148 0.0
H481 H 0.51761 0.17405 0.4312 0.0
C482 C 0.47572 0.12052 0.44342 0.0
O483 O 0.44669 0.10762 0.57226 0.0
O484 O 0.47248 0.15086 0.56024 0.0
N485 N 0.58864 0.10816 0.49303 0.0
C486 C 0.60146 0.08315 0.51237 0.0
C487 C 0.63223 0.08473 0.53026 0.0
C488 C 0.64949 0.11196 0.52815 0.0
C489 C 0.63584 0.13739 0.50805 0.0
C490 C 0.60521 0.13438 0.49033 0.0
H491 H 0.58824 0.06221 0.51453 0.0
O492 O 0.5178 0.10945 0.58895 0.0
O493 O 0.52937 0.12473 0.52265 0.0
O494 O 0.49716 0.06743 0.52471 0.0
O495 O 0.53732 0.06934 0.47629 0.0
C496 C 0.65116 0.16576 0.50579 0.0
C497 C 0.63548 0.19071 0.48662 0.0
H498 H 0.59708 0.23397 0.45012 0.0
H499 H 0.54159 0.22512 0.42499 0.0
H500 H 0.64255 0.06504 0.5459 0.0
H501 H 0.67309 0.11317 0.54241 0.0
H502 H 0.67483 0.16876 0.51927 0.0
H503 H 0.6473 0.21253 0.48571 0.0
Mn504 Mn 0.61683 0.6955 0.2814 0.0
Mn505 Mn 0.64413 0.62424 0.27582 0.0
C506 C 0.58982 0.658 0.31939 0.0
C507 C 0.6196 0.74233 0.31611 0.0
C508 C 0.60595 0.65441 0.20331 0.0
O509 O 0.66141 0.70079 0.25686 0.0
O510 O 0.67975 0.65348 0.26638 0.0
C511 C 0.68542 0.62551 0.35423 0.0
N512 N 0.66117 0.61261 0.3312 0.0
C513 C 0.65326 0.57481 0.38668 0.0
C514 C 0.67875 0.58716 0.41034 0.0
C515 C 0.69466 0.61284 0.39427 0.0
C516 C 0.64491 0.58863 0.3472 0.0
H517 H 0.69747 0.64545 0.34233 0.0
C518 C 0.68409 0.6817 0.25837 0.0
O519 O 0.60864 0.74004 0.27654 0.0
O520 O 0.62965 0.71772 0.33443 0.0
N521 N 0.61292 0.59324 0.28546 0.0
C522 C 0.59028 0.5827 0.25732 0.0
C523 C 0.5723 0.55697 0.26849 0.0
C524 C 0.57816 0.54195 0.30805 0.0
C525 C 0.60238 0.55246 0.33571 0.0
C526 C 0.61966 0.57812 0.32273 0.0
H527 H 0.58595 0.59369 0.22648 0.0
O528 O 0.57634 0.68359 0.30985 0.0
O529 O 0.61921 0.65526 0.30632 0.0
O530 O 0.59988 0.67895 0.22374 0.0
O531 O 0.62518 0.63413 0.21766 0.0
C532 C 0.61047 0.5381 0.37522 0.0
C533 C 0.63587 0.5493 0.40071 0.0
H534 H 0.68611 0.5773 0.44108 0.0
H535 H 0.71402 0.62282 0.41267 0.0
H536 H 0.55407 0.54866 0.24655 0.0
H537 H 0.56426 0.52211 0.31653 0.0
H538 H 0.59746 0.5183 0.38617 0.0
H539 H 0.64194 0.53802 0.43096 0.0
Mn540 Mn 0.0107 0.88668 0.03944 0.0
Mn541 Mn 0.95067 0.8852 0.96723 0.0
C542 C 0.95905 0.87816 0.06281 0.0
C543 C 0.04893 0.86145 0.07939 0.0
C544 C 0.98015 0.94344 1.00125 0.0
O545 O 0.0343 0.88113 0.9819 0.0
O546 O 0.99231 0.87885 0.93611 0.0
C547 C 0.95611 0.82059 0.94168 0.0
N548 N 0.93841 0.84389 0.95795 0.0
C549 C 0.89367 0.81078 0.97031 0.0
C550 C 0.91121 0.78663 0.95276 0.0
C551 C 0.94261 0.79155 0.93852 0.0
C552 C 0.90823 0.83934 0.97206 0.0
H553 H 0.9805 0.824 0.93172 0.0
C554 C 0.02243 0.87754 0.94392 0.0
O555 O 0.05147 0.89045 0.07275 0.0
O556 O 0.02567 0.84723 0.0607 0.0
N557 N 0.90953 0.88994 0.99356 0.0
C558 C 0.89672 0.91497 0.0129 0.0
C559 C 0.86596 0.91341 0.03082 0.0
C560 C 0.84869 0.88618 0.02875 0.0
C561 C 0.86232 0.86074 0.00866 0.0
C562 C 0.89294 0.86373 0.9909 0.0
H563 H 0.90996 0.9359 0.01503 0.0
O564 O 0.98036 0.88863 0.08946 0.0
O565 O 0.96879 0.87336 0.02315 0.0
O566 O 0.001 0.93066 0.02522 0.0
O567 O 0.96086 0.92874 0.97677 0.0
C568 C 0.84699 0.83237 0.00643 0.0
C569 C 0.86265 0.80741 0.98727 0.0
H570 H 0.90101 0.76411 0.95076 0.0
H571 H 0.95649 0.77293 0.92557 0.0
H572 H 0.85566 0.93311 0.04646 0.0
H573 H 0.8251 0.88498 0.04303 0.0
H574 H 0.82332 0.82938 0.01993 0.0
H575 H 0.85081 0.78559 0.98638 0.0
Mn576 Mn 0.63296 0.76311 0.79089 0.0
Mn577 Mn 0.617 0.70643 0.72041 0.0
C578 C 0.62128 0.71531 0.81606 0.0
C579 C 0.61496 0.80216 0.83541 0.0
C580 C 0.68419 0.72682 0.7427 0.0
O581 O 0.62239 0.78591 0.73523 0.0
O582 O 0.61366 0.74644 0.68987 0.0
C583 C 0.54909 0.7186 0.69913 0.0
N584 N 0.5718 0.70023 0.71687 0.0
C585 C 0.53276 0.66158 0.73209 0.0
C586 C 0.50901 0.6802 0.7144 0.0
C587 C 0.51726 0.70867 0.69745 0.0
C588 C 0.5642 0.67234 0.73202 0.0
H589 H 0.55521 0.7405 0.68584 0.0
C590 C 0.61491 0.77498 0.69808 0.0
O591 O 0.64452 0.80145 0.82263 0.0
O592 O 0.59603 0.78142 0.82067 0.0
N593 N 0.61839 0.66697 0.74659 0.0
C594 C 0.64402 0.65152 0.76253 0.0
C595 C 0.6397 0.62257 0.78055 0.0
C596 C 0.60909 0.60975 0.78211 0.0
C597 C 0.58305 0.62602 0.76556 0.0
C598 C 0.58882 0.65478 0.7478 0.0
H599 H 0.6675 0.66143 0.76234 0.0
O600 O 0.6374 0.73407 0.84004 0.0
O601 O 0.61256 0.72511 0.77787 0.0
O602 O 0.67645 0.74912 0.76713 0.0
O603 O 0.66377 0.71015 0.72316 0.0
C604 C 0.55156 0.61495 0.76644 0.0
C605 C 0.52645 0.63265 0.74954 0.0
H606 H 0.48441 0.67276 0.71329 0.0
H607 H 0.49907 0.7227 0.6828 0.0
H608 H 0.6599 0.61026 0.79357 0.0
H609 H 0.60581 0.58749 0.79633 0.0
H610 H 0.54638 0.59282 0.78004 0.0
H611 H 0.50234 0.62383 0.75018 0.0
Mn612 Mn 0.45045 0.36566 0.03168 0.0
Mn613 Mn 0.51087 0.37098 0.95976 0.0
C614 C 0.5015 0.37214 0.05713 0.0
C615 C 0.41728 0.33631 0.07458 0.0
C616 C 0.46956 0.42434 0.98563 0.0
O617 O 0.43038 0.3498 0.97627 0.0
O618 O 0.47139 0.35586 0.92997 0.0
C619 C 0.51852 0.3057 0.93874 0.0
N620 N 0.53105 0.33227 0.95369 0.0
C621 C 0.58297 0.30962 0.9615 0.0
C622 C 0.5706 0.28207 0.94618 0.0
C623 C 0.53825 0.28012 0.9347 0.0
C624 C 0.56224 0.33445 0.96439 0.0
H625 H 0.49369 0.30401 0.92977 0.0
C626 C 0.44276 0.34761 0.93858 0.0
O627 O 0.40881 0.36354 0.06333 0.0
O628 O 0.44408 0.32599 0.05988 0.0
N629 N 0.55072 0.38443 0.98314 0.0
C630 C 0.55872 0.41235 0.9987 0.0
C631 C 0.59013 0.41786 0.0123 0.0
C632 C 0.61302 0.3947 0.00962 0.0
C633 C 0.60429 0.36619 0.99331 0.0
C634 C 0.57267 0.36209 0.97987 0.0
H635 H 0.54126 0.43026 1.00086 0.0
O636 O 0.47686 0.37889 0.08072 0.0
O637 O 0.49564 0.36038 0.01867 0.0
O638 O 0.45006 0.40962 0.0096 0.0
O639 O 0.49248 0.41185 0.96493 0.0
C640 C 0.62562 0.3416 0.99036 0.0
C641 C 0.61497 0.31334 0.97444 0.0
H642 H 0.58569 0.26224 0.94329 0.0
H643 H 0.52857 0.25895 0.92273 0.0
H644 H 0.59666 0.43998 0.0246 0.0
H645 H 0.63723 0.39904 0.02007 0.0
H646 H 0.65021 0.3441 1.00058 0.0
H647 H 0.63155 0.29455 0.97259 0.0
Mn648 Mn 0.86521 0.23503 0.29091 0.0
Mn649 Mn 0.88124 0.29172 0.22051 0.0
C650 C 0.87692 0.28281 0.31614 0.0
C651 C 0.88314 0.19596 0.33542 0.0
C652 C 0.81403 0.27136 0.24269 0.0
O653 O 0.87579 0.21224 0.23524 0.0
O654 O 0.88457 0.25172 0.18992 0.0
C655 C 0.94915 0.27952 0.19928 0.0
N656 N 0.92645 0.2979 0.21703 0.0
C657 C 0.96551 0.3365 0.23239 0.0
C658 C 0.98926 0.31787 0.21469 0.0
C659 C 0.98099 0.28943 0.19766 0.0
C660 C 0.93406 0.32577 0.23224 0.0
H661 H 0.94303 0.25764 0.18593 0.0
C662 C 0.8833 0.22317 0.1981 0.0
O663 O 0.8536 0.19669 0.3226 0.0
O664 O 0.90209 0.21668 0.32072 0.0
N665 N 0.87986 0.33117 0.24674 0.0
C666 C 0.85423 0.34663 0.26266 0.0
C667 C 0.85856 0.37557 0.28075 0.0
C668 C 0.88919 0.38835 0.28238 0.0
C669 C 0.91522 0.37207 0.26584 0.0
C670 C 0.90944 0.34334 0.24802 0.0
H671 H 0.83074 0.33674 0.26241 0.0
O672 O 0.86076 0.26406 0.34009 0.0
O673 O 0.88564 0.27301 0.27794 0.0
O674 O 0.82174 0.24906 0.26711 0.0
O675 O 0.83446 0.28803 0.22319 0.0
C676 C 0.94673 0.38312 0.2668 0.0
C677 C 0.97183 0.3654 0.2499 0.0
H678 H 0.01386 0.32529 0.21364 0.0
H679 H -0.00082 0.27539 0.18301 0.0
H680 H 0.83837 0.38788 0.29375 0.0
H681 H 0.89247 0.4106 0.29665 0.0
H682 H 0.95191 0.40522 0.28045 0.0
H683 H 0.99595 0.37421 0.2506 0.0
Mn684 Mn 0.04772 0.63236 0.53198 0.0
Mn685 Mn 0.98733 0.62697 0.46001 0.0
C686 C 0.99665 0.62585 0.55739 0.0
C687 C 0.08084 0.66174 0.5749 0.0
C688 C 0.02868 0.57365 0.48592 0.0
O689 O 0.0678 0.64822 0.47658 0.0
O690 O 0.0268 0.64211 0.43025 0.0
C691 C 0.97963 0.69224 0.43899 0.0
N692 N 0.96711 0.66566 0.45393 0.0
C693 C 0.91517 0.68826 0.46169 0.0
C694 C 0.92752 0.71582 0.44638 0.0
C695 C 0.95987 0.7178 0.43493 0.0
C696 C 0.93592 0.66346 0.4646 0.0
H697 H 0.00445 0.69395 0.43004 0.0
C698 C 0.05543 0.65039 0.43888 0.0
O699 O 0.08933 0.63451 0.56367 0.0
O700 O 0.05404 0.67204 0.56017 0.0
N701 N 0.94749 0.61349 0.48337 0.0
C702 C 0.93951 0.58556 0.49891 0.0
C703 C 0.9081 0.58002 0.51248 0.0
C704 C 0.88518 0.60316 0.50977 0.0
C705 C 0.89389 0.63168 0.49348 0.0
C706 C 0.92551 0.63581 0.48008 0.0
H707 H 0.95698 0.56767 0.50109 0.0
O708 O 0.02128 0.61912 0.58101 0.0
O709 O 0.00252 0.6376 0.51893 0.0
O710 O 0.04815 0.58839 0.50992 0.0
O711 O 0.00575 0.58612 0.4652 0.0
C712 C 0.87253 0.65625 0.49051 0.0
C713 C 0.88316 0.68451 0.4746 0.0
H714 H 0.91241 0.73563 0.44349 0.0
H715 H 0.96954 0.73898 0.42297 0.0
H716 H 0.90158 0.5579 0.52477 0.0
H717 H 0.86097 0.5988 0.52019 0.0
H718 H 0.84794 0.65372 0.5007 0.0
H719 H 0.86657 0.70329 0.47273 0.0
Mn720 Mn 0.63301 0.23493 0.71222 0.0
Mn721 Mn 0.61703 0.29161 0.78268 0.0
C722 C 0.62132 0.28272 0.68703 0.0
C723 C 0.61503 0.19587 0.66769 0.0
C724 C 0.68422 0.27122 0.76043 0.0
O725 O 0.62244 0.21212 0.76788 0.0
O726 O 0.61368 0.2516 0.81323 0.0
C727 C 0.54911 0.27944 0.80391 0.0
N728 N 0.57183 0.29781 0.78619 0.0
C729 C 0.53279 0.33645 0.77091 0.0
C730 C 0.50903 0.31783 0.78859 0.0
C731 C 0.51728 0.28937 0.80557 0.0
C732 C 0.56423 0.32569 0.77102 0.0
H733 H 0.55523 0.25754 0.81723 0.0
C734 C 0.61494 0.22306 0.80502 0.0
O735 O 0.64458 0.19659 0.68049 0.0
O736 O 0.5961 0.21661 0.68243 0.0
N737 N 0.61842 0.33107 0.75649 0.0
C738 C 0.64406 0.34651 0.74056 0.0
C739 C 0.63974 0.37546 0.72251 0.0
C740 C 0.60913 0.38827 0.72093 0.0
C741 C 0.58309 0.372 0.73747 0.0
C742 C 0.58885 0.34325 0.75524 0.0
H743 H 0.66754 0.3366 0.74077 0.0
O744 O 0.63745 0.26397 0.66306 0.0
O745 O 0.61261 0.27292 0.72523 0.0
O746 O 0.6765 0.24893 0.73599 0.0
O747 O 0.6638 0.28788 0.77997 0.0
C748 C 0.55159 0.38307 0.73655 0.0
C749 C 0.52648 0.36537 0.75344 0.0
H750 H 0.48443 0.32527 0.78968 0.0
H751 H 0.49908 0.27533 0.8202 0.0
H752 H 0.65994 0.38777 0.70951 0.0
H753 H 0.60586 0.41053 0.70669 0.0
H754 H 0.54642 0.40519 0.72293 0.0
H755 H 0.50237 0.37419 0.75278 0.0
Mn756 Mn 0.04771 0.36562 0.97157 0.0
Mn757 Mn 0.98729 0.37094 0.04349 0.0
C758 C 0.99666 0.3721 0.94613 0.0
C759 C 0.08088 0.33628 0.92866 0.0
C760 C 0.0286 0.4243 0.01766 0.0
O761 O 0.06778 0.34975 0.02698 0.0
O762 O 0.02676 0.35581 0.07328 0.0
C763 C 0.97963 0.30566 0.06446 0.0
N764 N 0.9671 0.33223 0.04953 0.0
C765 C 0.91518 0.30959 0.04168 0.0
C766 C 0.92755 0.28203 0.05698 0.0
C767 C 0.9599 0.28008 0.06847 0.0
C768 C 0.93591 0.33441 0.03883 0.0
H769 H 0.00445 0.30396 0.07343 0.0
C770 C 0.05539 0.34756 0.06467 0.0
O771 O 0.08934 0.36351 0.93992 0.0
O772 O 0.05408 0.32596 0.94335 0.0
N773 N 0.94744 0.38439 0.0201 0.0
C774 C 0.93945 0.41232 0.00457 0.0
C775 C 0.90804 0.41784 0.99096 0.0
C776 C 0.88514 0.39468 0.99363 0.0
C777 C 0.89387 0.36617 0.00991 0.0
C778 C 0.92549 0.36206 0.02336 0.0
H779 H 0.95691 0.43023 0.00242 0.0
O780 O 0.02129 0.37886 0.92254 0.0
O781 O 0.00252 0.36034 0.98458 0.0
O782 O 0.0481 0.40958 0.99367 0.0
O783 O 0.00567 0.4118 0.03835 0.0
C784 C 0.87253 0.34158 0.01284 0.0
C785 C 0.88318 0.31332 0.02874 0.0
H786 H 0.91246 0.26221 0.05984 0.0
H787 H 0.96957 0.2589 0.08043 0.0
H788 H 0.90151 0.43996 0.97868 0.0
H789 H 0.86094 0.39903 0.98317 0.0
H790 H 0.84795 0.34409 0.00262 0.0
H791 H 0.8666 0.29452 0.03057 0.0
Mn792 Mn 0.86526 0.76303 0.21268 0.0
Mn793 Mn 0.88123 0.70633 0.2831 0.0
C794 C 0.87694 0.71524 0.18746 0.0
C795 C 0.88322 0.80209 0.16818 0.0
C796 C 0.81403 0.72671 0.26084 0.0
O797 O 0.87583 0.78582 0.26835 0.0
O798 O 0.88455 0.74634 0.31368 0.0
C799 C 0.94913 0.71851 0.30441 0.0
N800 N 0.92643 0.70014 0.28664 0.0
C801 C 0.96549 0.66151 0.27138 0.0
C802 C 0.98923 0.68013 0.2891 0.0
C803 C 0.98096 0.70858 0.3061 0.0
C804 C 0.93404 0.67226 0.27146 0.0
H805 H 0.943 0.7404 0.31775 0.0
C806 C 0.88331 0.77488 0.30549 0.0
O807 O 0.85368 0.80137 0.18098 0.0
O808 O 0.90216 0.78136 0.18289 0.0
N809 N 0.87986 0.66687 0.25689 0.0
C810 C 0.85422 0.65143 0.24095 0.0
C811 C 0.85856 0.62248 0.22289 0.0
C812 C 0.88918 0.60968 0.22131 0.0
C813 C 0.91521 0.62595 0.23787 0.0
C814 C 0.90943 0.6547 0.25566 0.0
H815 H 0.83074 0.66132 0.24115 0.0
O816 O 0.8608 0.734 0.1635 0.0
O817 O 0.88566 0.72503 0.22566 0.0
O818 O 0.82177 0.74902 0.23644 0.0
O819 O 0.83445 0.71004 0.28036 0.0
C820 C 0.94671 0.61489 0.23698 0.0
C821 C 0.97181 0.6326 0.2539 0.0
H822 H 0.01383 0.6727 0.29021 0.0
H823 H -0.00085 0.72262 0.32077 0.0
H824 H 0.83837 0.61017 0.20986 0.0
H825 H 0.89246 0.58742 0.20707 0.0
H826 H 0.95189 0.59277 0.22335 0.0
H827 H 0.99592 0.62378 0.25325 0.0
Mn828 Mn 0.45046 0.63235 0.47147 0.0
Mn829 Mn 0.51086 0.62701 0.54342 0.0
C830 C 0.50152 0.62585 0.44605 0.0
C831 C 0.41732 0.66169 0.42854 0.0
C832 C 0.46955 0.57367 0.51754 0.0
O833 O 0.43038 0.64823 0.52686 0.0
O834 O 0.47138 0.64213 0.57319 0.0
C835 C 0.5185 0.69229 0.56444 0.0
N836 N 0.53104 0.66573 0.5495 0.0
C837 C 0.58296 0.68837 0.54171 0.0
C838 C 0.57059 0.71593 0.55703 0.0
C839 C 0.53823 0.71788 0.5685 0.0
C840 C 0.56223 0.66355 0.53881 0.0
H841 H 0.49368 0.69399 0.5734 0.0
C842 C 0.44275 0.6504 0.56457 0.0
O843 O 0.40884 0.63447 0.4398 0.0
O844 O 0.44411 0.67201 0.44324 0.0
N845 N 0.55072 0.61357 0.52005 0.0
C846 C 0.55873 0.58565 0.50451 0.0
C847 C 0.59014 0.58013 0.49092 0.0
C848 C 0.61303 0.6033 0.49362 0.0
C849 C 0.60429 0.63181 0.50991 0.0
C850 C 0.57267 0.63591 0.52334 0.0
H851 H 0.54127 0.56773 0.50234 0.0
O852 O 0.47689 0.61909 0.42245 0.0
O853 O 0.49565 0.63762 0.4845 0.0
O854 O 0.45005 0.5884 0.49357 0.0
O855 O 0.49248 0.58615 0.53824 0.0
C856 C 0.62562 0.6564 0.51287 0.0
C857 C 0.61497 0.68466 0.52879 0.0
H858 H 0.58567 0.73575 0.55992 0.0
H859 H 0.52855 0.73905 0.58046 0.0
H860 H 0.59668 0.55802 0.47863 0.0
H861 H 0.63724 0.59896 0.48317 0.0
H862 H 0.65022 0.65389 0.50267 0.0
H863 H 0.63154 0.70345 0.53065 0.0
Mn864 Mn 0.38146 0.19565 0.22198 0.0
Mn865 Mn 0.35417 0.12439 0.22762 0.0
C866 C 0.40846 0.15814 0.18399 0.0
C867 C 0.37866 0.24246 0.18721 0.0
C868 C 0.39238 0.15459 0.30008 0.0
O869 O 0.3369 0.20095 0.24655 0.0
O870 O 0.31855 0.15363 0.23707 0.0
C871 C 0.31285 0.12562 0.14925 0.0
N872 N 0.33711 0.11273 0.17225 0.0
C873 C 0.345 0.07491 0.1168 0.0
C874 C 0.31949 0.08724 0.09316 0.0
C875 C 0.30359 0.11292 0.10923 0.0
C876 C 0.35337 0.08874 0.15626 0.0
H877 H 0.30079 0.14556 0.16115 0.0
C878 C 0.31421 0.18184 0.24508 0.0
O879 O 0.38964 0.2402 0.22678 0.0
O880 O 0.36861 0.21783 0.16894 0.0
N881 N 0.38538 0.09339 0.21796 0.0
C882 C 0.40805 0.08287 0.24609 0.0
C883 C 0.42602 0.05714 0.23493 0.0
C884 C 0.42015 0.0421 0.19538 0.0
C885 C 0.39591 0.05259 0.16773 0.0
C886 C 0.37864 0.07825 0.18071 0.0
H887 H 0.41239 0.09387 0.27692 0.0
O888 O 0.42194 0.18373 0.19351 0.0
O889 O 0.37908 0.1554 0.19708 0.0
O890 O 0.39844 0.17912 0.27964 0.0
O891 O 0.37315 0.13431 0.28574 0.0
C892 C 0.3878 0.03821 0.12824 0.0
C893 C 0.36239 0.04939 0.10277 0.0
H894 H 0.31211 0.07736 0.06244 0.0
H895 H 0.28421 0.12289 0.09084 0.0
H896 H 0.44427 0.04884 0.25685 0.0
H897 H 0.43405 0.02225 0.1869 0.0
H898 H 0.40081 0.0184 0.11729 0.0
H899 H 0.3563 0.0381 0.07253 0.0
Mn900 Mn 0.51088 0.6114 0.96434 0.0
Mn901 Mn 0.45085 0.6129 0.03655 0.0
C902 C 0.45924 0.61995 0.94097 0.0
C903 C 0.54912 0.63659 0.92434 0.0
C904 C 0.48024 0.55465 0.00244 0.0
O905 O 0.5345 0.61692 0.02188 0.0
O906 O 0.49251 0.61914 0.06767 0.0
C907 C 0.45645 0.67748 0.0622 0.0
N908 N 0.43868 0.65423 0.04591 0.0
C909 C 0.39401 0.68744 0.03365 0.0
C910 C 0.41162 0.71154 0.05122 0.0
C911 C 0.44301 0.70654 0.06543 0.0
C912 C 0.40851 0.65885 0.03183 0.0
H913 H 0.48083 0.67401 0.07214 0.0
C914 C 0.52263 0.62045 0.05987 0.0
O915 O 0.55163 0.60759 0.931 0.0
O916 O 0.52589 0.65084 0.94307 0.0
N917 N 0.40969 0.60826 0.01024 0.0
C918 C 0.39682 0.58328 0.99088 0.0
C919 C 0.36605 0.58491 0.973 0.0
C920 C 0.34884 0.61218 0.97512 0.0
C921 C 0.36254 0.63757 0.99524 0.0
C922 C 0.39316 0.63451 0.01296 0.0
H923 H 0.41 0.56232 0.98871 0.0
O924 O 0.48054 0.60947 0.91433 0.0
O925 O 0.46898 0.62476 0.98063 0.0
O926 O 0.50114 0.56742 0.97854 0.0
O927 O 0.46094 0.56936 0.02692 0.0
C928 C 0.34727 0.66597 0.99753 0.0
C929 C 0.36299 0.69089 0.01671 0.0
H930 H 0.40147 0.73408 0.05327 0.0
H931 H 0.45694 0.72513 0.0784 0.0
H932 H 0.3557 0.56525 0.95734 0.0
H933 H 0.32524 0.61343 0.96087 0.0
H934 H 0.32361 0.66902 0.98405 0.0
H935 H 0.35121 0.71273 0.01765 0.0
Mn936 Mn 0.11666 0.80238 0.72246 0.0
Mn937 Mn 0.14399 0.87362 0.72817 0.0
C938 C 0.08967 0.83993 0.68454 0.0
C939 C 0.11942 0.75559 0.68762 0.0
C940 C 0.10578 0.84341 0.80062 0.0
O941 O 0.16124 0.79705 0.74699 0.0
O942 O 0.1796 0.84436 0.73756 0.0
C943 C 0.18528 0.87241 0.64976 0.0
N944 N 0.16103 0.8853 0.67281 0.0
C945 C 0.15315 0.92316 0.61741 0.0
C946 C 0.17865 0.91083 0.59374 0.0
C947 C 0.19453 0.88512 0.60976 0.0
C948 C 0.14479 0.90931 0.65687 0.0
H949 H 0.19732 0.85245 0.66162 0.0
C950 C 0.18393 0.81614 0.74553 0.0
O951 O 0.10846 0.75783 0.72719 0.0
O952 O 0.12948 0.78023 0.66938 0.0
N953 N 0.11279 0.90464 0.71858 0.0
C954 C 0.09013 0.91515 0.74673 0.0
C955 C 0.07217 0.9409 0.73561 0.0
C956 C 0.07804 0.95596 0.69608 0.0
C957 C 0.10227 0.94547 0.66841 0.0
C958 C 0.11953 0.9198 0.68134 0.0
H959 H 0.08579 0.90413 0.77754 0.0
O960 O 0.07618 0.81434 0.69403 0.0
O961 O 0.11906 0.84264 0.69761 0.0
O962 O 0.09972 0.81888 0.78016 0.0
O963 O 0.12503 0.86369 0.7863 0.0
C964 C 0.11037 0.95987 0.62893 0.0
C965 C 0.13577 0.94869 0.60343 0.0
H966 H 0.18601 0.92072 0.56303 0.0
H967 H 0.21389 0.87515 0.59133 0.0
H968 H 0.05393 0.94919 0.75755 0.0
H969 H 0.06415 0.97581 0.68764 0.0
H970 H 0.09736 0.97968 0.61801 0.0
H971 H 0.14184 0.95999 0.5732 0.0
Mn972 Mn 0.9875 0.38658 0.46447 0.0
Mn973 Mn 0.04752 0.38509 0.5367 0.0
C974 C 0.03915 0.37805 0.44112 0.0
C975 C 0.94926 0.3614 0.42446 0.0
C976 C 0.01811 0.44333 0.50263 0.0
O977 O 0.96387 0.38105 0.522 0.0
O978 O 0.00586 0.37883 0.56781 0.0
C979 C 0.04195 0.32051 0.56233 0.0
N980 N 0.0597 0.34377 0.54605 0.0
C981 C 0.1044 0.31058 0.5338 0.0
C982 C 0.0868 0.28647 0.55137 0.0
C983 C 0.05541 0.29145 0.56556 0.0
C984 C 0.08988 0.33916 0.53199 0.0
H985 H 0.01756 0.32396 0.57227 0.0
C986 C 0.97574 0.37751 0.55999 0.0
O987 O 0.94674 0.3904 0.43114 0.0
O988 O 0.9725 0.34714 0.44317 0.0
N989 N 0.08868 0.38975 0.51041 0.0
C990 C 0.10154 0.41474 0.49106 0.0
C991 C 0.13232 0.41312 0.4732 0.0
C992 C 0.14954 0.38587 0.47532 0.0
C993 C 0.13586 0.36047 0.49543 0.0
C994 C 0.10523 0.36351 0.51313 0.0
H995 H 0.08835 0.43569 0.4889 0.0
O996 O 0.01785 0.38853 0.41447 0.0
O997 O 0.0294 0.37323 0.48078 0.0
O998 O 0.99723 0.43056 0.47871 0.0
O999 O 0.03741 0.42863 0.5271 0.0
C1000 C 0.15114 0.33207 0.49771 0.0
C1001 C 0.13542 0.30715 0.51689 0.0
H1002 H 0.09697 0.26394 0.55342 0.0
H1003 H 0.04149 0.27286 0.57853 0.0
H1004 H 0.14266 0.43279 0.45755 0.0
H1005 H 0.17315 0.38463 0.46108 0.0
H1006 H 0.17481 0.32904 0.48426 0.0
H1007 H 0.14723 0.28531 0.51783 0.0
Mn1008 Mn 0.38147 0.80235 0.28113 0.0
Mn1009 Mn 0.35413 0.87359 0.2755 0.0
C1010 C 0.40845 0.83987 0.31912 0.0
C1011 C 0.3787 0.75553 0.31588 0.0
C1012 C 0.39236 0.84342 0.20303 0.0
O1013 O 0.33691 0.79703 0.25656 0.0
O1014 O 0.31853 0.84433 0.26607 0.0
C1015 C 0.31283 0.87234 0.3539 0.0
N1016 N 0.33708 0.88524 0.33087 0.0
C1017 C 0.34494 0.92308 0.38632 0.0
C1018 C 0.31944 0.91073 0.40997 0.0
C1019 C 0.30357 0.88503 0.39392 0.0
C1020 C 0.35332 0.90924 0.34685 0.0
H1021 H 0.3008 0.85238 0.34201 0.0
C1022 C 0.31421 0.81611 0.25805 0.0
O1023 O 0.38968 0.7578 0.27632 0.0
O1024 O 0.36863 0.78015 0.33417 0.0
N1025 N 0.38533 0.90461 0.28515 0.0
C1026 C 0.40798 0.91514 0.25701 0.0
C1027 C 0.42594 0.94089 0.26817 0.0
C1028 C 0.42006 0.95592 0.30772 0.0
C1029 C 0.39583 0.94542 0.33537 0.0
C1030 C 0.37857 0.91975 0.3224 0.0
H1031 H 0.41233 0.90414 0.22618 0.0
O1032 O 0.42194 0.81429 0.30961 0.0
O1033 O 0.37906 0.84259 0.30603 0.0
O1034 O 0.39843 0.81889 0.22347 0.0
O1035 O 0.3731 0.86369 0.21737 0.0
C1036 C 0.38771 0.9598 0.37486 0.0
C1037 C 0.36231 0.9486 0.40034 0.0
H1038 H 0.31207 0.92061 0.44069 0.0
H1039 H 0.28421 0.87505 0.41232 0.0
H1040 H 0.44418 0.94919 0.24624 0.0
H1041 H 0.43394 0.97577 0.31619 0.0
H1042 H 0.40071 0.97961 0.3858 0.0
H1043 H 0.35622 0.9599 0.43058 0.0
Mn1044 Mn 0.98733 0.61136 0.03906 0.0
Mn1045 Mn 0.04735 0.61286 0.96685 0.0
C1046 C 0.03897 0.6199 0.06243 0.0
C1047 C 0.94909 0.63656 0.07908 0.0
C1048 C 0.01795 0.55461 1.00093 0.0
O1049 O 0.9637 0.61689 0.98153 0.0
O1050 O 0.00569 0.6191 0.93573 0.0
C1051 C 0.04176 0.67743 0.9412 0.0
N1052 N 0.05952 0.65418 0.95749 0.0
C1053 C 0.1042 0.68739 0.96975 0.0
C1054 C 0.08659 0.71149 0.95218 0.0
C1055 C 0.0552 0.70649 0.93798 0.0
C1056 C 0.0897 0.6588 0.97157 0.0
H1057 H 0.01738 0.67397 0.93127 0.0
C1058 C 0.97558 0.62042 0.94353 0.0
O1059 O 0.94657 0.60756 0.0724 0.0
O1060 O 0.97232 0.6508 0.06036 0.0
N1061 N 0.08851 0.60821 0.99315 0.0
C1062 C 0.10139 0.58323 0.0125 0.0
C1063 C 0.13216 0.58486 0.03038 0.0
C1064 C 0.14937 0.61212 0.02826 0.0
C1065 C 0.13567 0.63752 0.00815 0.0
C1066 C 0.10505 0.63446 0.99043 0.0
H1067 H 0.0882 0.56227 0.01467 0.0
O1068 O 0.01767 0.60942 0.08907 0.0
O1069 O 0.02923 0.62471 0.02277 0.0
O1070 O 0.99706 0.56739 0.02483 0.0
O1071 O 0.03726 0.56931 0.97647 0.0
C1072 C 0.15094 0.66592 0.00586 0.0
C1073 C 0.13522 0.69083 0.98668 0.0
H1074 H 0.09675 0.73402 0.95014 0.0
H1075 H 0.04128 0.72508 0.92501 0.0
H1076 H 0.14251 0.56519 0.04603 0.0
H1077 H 0.17297 0.61337 0.04251 0.0
H1078 H 0.17461 0.66896 0.01933 0.0
H1079 H 0.14701 0.71267 0.98575 0.0
Mn1080 Mn 0.11666 0.19568 0.78108 0.0
Mn1081 Mn 0.14396 0.12443 0.77537 0.0
C1082 C 0.08967 0.15816 0.81904 0.0
C1083 C 0.11947 0.24248 0.8159 0.0
C1084 C 0.10574 0.15465 0.70295 0.0
O1085 O 0.16123 0.20099 0.7565 0.0
O1086 O 0.17958 0.15367 0.76595 0.0
C1087 C 0.18528 0.12563 0.85375 0.0
N1088 N 0.16102 0.11275 0.83073 0.0
C1089 C 0.15314 0.07491 0.88615 0.0
C1090 C 0.17865 0.08724 0.90979 0.0
C1091 C 0.19455 0.11293 0.89376 0.0
C1092 C 0.14477 0.08876 0.84669 0.0
H1093 H 0.19733 0.14558 0.84187 0.0
C1094 C 0.18392 0.18189 0.75796 0.0
O1095 O 0.10848 0.24024 0.77634 0.0
O1096 O 0.12953 0.21784 0.83414 0.0
N1097 N 0.11275 0.09342 0.785 0.0
C1098 C 0.09009 0.08291 0.75686 0.0
C1099 C 0.07212 0.05717 0.768 0.0
C1100 C 0.078 0.04212 0.80754 0.0
C1101 C 0.10223 0.0526 0.83519 0.0
C1102 C 0.1195 0.07827 0.82224 0.0
H1103 H 0.08574 0.09393 0.72605 0.0
O1104 O 0.07619 0.18375 0.80955 0.0
O1105 O 0.11906 0.15543 0.80595 0.0
O1106 O 0.09969 0.17918 0.72341 0.0
O1107 O 0.12498 0.13436 0.71726 0.0
C1108 C 0.11034 0.03821 0.87467 0.0
C1109 C 0.13575 0.04939 0.90015 0.0
H1110 H 0.18602 0.07734 0.94051 0.0
H1111 H 0.21392 0.12289 0.91216 0.0
H1112 H 0.05387 0.04888 0.74608 0.0
H1113 H 0.0641 0.02227 0.816 0.0
H1114 H 0.09733 0.01841 0.8856 0.0
H1115 H 0.14184 0.03809 0.93038 0.0
Mn1116 Mn 0.51079 0.38659 0.53883 0.0
Mn1117 Mn 0.45077 0.38511 0.46662 0.0
C1118 C 0.45915 0.37805 0.56219 0.0
C1119 C 0.54904 0.36139 0.57881 0.0
C1120 C 0.48018 0.44335 0.50073 0.0
O1121 O 0.53441 0.38108 0.48129 0.0
O1122 O 0.49242 0.37886 0.43549 0.0
C1123 C 0.45634 0.32054 0.44095 0.0
N1124 N 0.43858 0.34379 0.45724 0.0
C1125 C 0.39389 0.3106 0.4695 0.0
C1126 C 0.41149 0.2865 0.45192 0.0
C1127 C 0.44288 0.29148 0.43772 0.0
C1128 C 0.4084 0.33919 0.47132 0.0
H1129 H 0.48072 0.32399 0.43101 0.0
C1130 C 0.52254 0.37754 0.4433 0.0
O1131 O 0.55156 0.3904 0.57215 0.0
O1132 O 0.5258 0.34715 0.56009 0.0
N1133 N 0.40961 0.38977 0.49293 0.0
C1134 C 0.39675 0.41476 0.51229 0.0
C1135 C 0.36598 0.41314 0.53017 0.0
C1136 C 0.34875 0.38588 0.52803 0.0
C1137 C 0.36244 0.36048 0.50791 0.0
C1138 C 0.39306 0.36353 0.4902 0.0
H1139 H 0.40994 0.43571 0.51446 0.0
O1140 O 0.48046 0.38852 0.58884 0.0
O1141 O 0.46889 0.37325 0.52253 0.0
O1142 O 0.50106 0.43057 0.52463 0.0
O1143 O 0.46088 0.42866 0.47625 0.0
C1144 C 0.34716 0.33209 0.50562 0.0
C1145 C 0.36287 0.30717 0.48642 0.0
H1146 H 0.40133 0.26396 0.44986 0.0
H1147 H 0.4568 0.27289 0.42474 0.0
H1148 H 0.35564 0.4328 0.54583 0.0
H1149 H 0.32516 0.38464 0.54229 0.0
H1150 H 0.32349 0.32905 0.51909 0.0
H1151 H 0.35107 0.28533 0.48548 0.0
C1152 C 0.05303 0.17208 0.36287 0.0
C1153 C 0.06844 0.1527 0.39234 0.0
H1154 H 0.05814 0.20679 0.31497 0.0
C1155 C 0.10183 0.15129 0.39311 0.0
H1156 H 0.02722 0.17333 0.36172 0.0
C1157 C 0.1196 0.17081 0.36651 0.0
C1158 C 0.10399 0.19083 0.33798 0.0
H1159 H 0.11401 0.13653 0.41588 0.0
H1160 H 0.14537 0.17093 0.36903 0.0
C1161 C 0.07065 0.19094 0.33586 0.0
C1162 C 0.05235 0.84541 0.57554 0.0
C1163 C 0.03238 0.8706 0.58069 0.0
H1164 H 0.08913 0.81801 0.6034 0.0
C1165 C 0.03675 0.88946 0.61721 0.0
H1166 H 0.04792 0.82904 0.55006 0.0
C1167 C 0.05765 0.88105 0.65045 0.0
C1168 C 0.07707 0.85552 0.64586 0.0
H1169 H 0.02096 0.90851 0.62286 0.0
H1170 H 0.05591 0.89261 0.68122 0.0
C1171 C 0.07548 0.83875 0.6069 0.0
C1172 C 0.44505 0.82606 0.86275 0.0
C1173 C 0.42961 0.84536 0.89228 0.0
H1174 H 0.44001 0.79137 0.81478 0.0
C1175 C 0.39622 0.84669 0.89309 0.0
H1176 H 0.47086 0.82487 0.86157 0.0
C1177 C 0.37848 0.82715 0.86647 0.0
C1178 C 0.39413 0.80719 0.83789 0.0
H1179 H 0.38401 0.8614 0.91592 0.0
H1180 H 0.35271 0.82697 0.86903 0.0
C1181 C 0.42746 0.80718 0.83571 0.0
C1182 C 0.44051 0.11704 0.1499 0.0
C1183 C 0.42108 0.14255 0.14531 0.0
H1184 H 0.47722 0.0896 0.12234 0.0
C1185 C 0.42266 0.15934 0.10635 0.0
H1186 H 0.44225 0.10548 0.18067 0.0
C1187 C 0.44581 0.15268 0.075 0.0
C1188 C 0.4658 0.12751 0.08016 0.0
H1189 H 0.40899 0.18006 0.10286 0.0
H1190 H 0.45024 0.16906 0.04953 0.0
C1191 C 0.46142 0.10864 0.11667 0.0
C1192 C 0.11966 0.82712 0.13702 0.0
C1193 C 0.10402 0.80713 0.16556 0.0
H1194 H 0.11411 0.86141 0.08764 0.0
C1195 C 0.07069 0.8071 0.16773 0.0
H1196 H 0.14542 0.82695 0.13446 0.0
C1197 C 0.05309 0.826 0.14074 0.0
C1198 C 0.06852 0.84534 0.11125 0.0
H1199 H 0.05815 0.79126 0.18863 0.0
H1200 H 0.02728 0.8248 0.14192 0.0
C1201 C 0.10191 0.84668 0.11044 0.0
C1202 C 0.42264 0.83871 0.39675 0.0
C1203 C 0.42105 0.85548 0.35779 0.0
H1204 H 0.4502 0.829 0.45359 0.0
C1205 C 0.44049 0.88099 0.3532 0.0
H1206 H 0.40897 0.81799 0.40024 0.0
C1207 C 0.46139 0.8894 0.38643 0.0
C1208 C 0.46576 0.87054 0.42295 0.0
H1209 H 0.44223 0.89255 0.32242 0.0
H1210 H 0.47719 0.90844 0.38076 0.0
C1211 C 0.44578 0.84537 0.42811 0.0
C1212 C 0.42747 0.19089 0.6674 0.0
C1213 C 0.39413 0.19083 0.66526 0.0
H1214 H 0.47088 0.17326 0.6415 0.0
C1215 C 0.3785 0.17085 0.63669 0.0
H1216 H 0.44 0.20672 0.68831 0.0
C1217 C 0.39625 0.15134 0.61006 0.0
C1218 C 0.42964 0.15271 0.61083 0.0
H1219 H 0.35273 0.171 0.63415 0.0
H1220 H 0.38406 0.13661 0.58724 0.0
C1221 C 0.44507 0.17203 0.64035 0.0
C1222 C 0.05765 0.11705 0.85314 0.0
C1223 C 0.07707 0.14257 0.85772 0.0
H1224 H 0.02098 0.08958 0.88074 0.0
C1225 C 0.07548 0.15936 0.89668 0.0
H1226 H 0.05591 0.10548 0.82237 0.0
C1227 C 0.05235 0.15269 0.92805 0.0
C1228 C 0.03239 0.12749 0.92291 0.0
H1229 H 0.08914 0.18009 0.90016 0.0
H1230 H 0.04793 0.16906 0.95352 0.0
C1231 C 0.03677 0.10863 0.88639 0.0
C1232 C 0.88047 0.79409 0.59001 0.0
C1233 C 0.89903 0.818 0.60582 0.0
H1234 H 0.85854 0.75157 0.60419 0.0
C1235 C 0.90654 0.81943 0.65034 0.0
H1236 H 0.87504 0.7924 0.55554 0.0
C1237 C 0.89759 0.79586 0.67828 0.0
C1238 C 0.8812 0.77059 0.66177 0.0
H1239 H 0.92148 0.83752 0.66278 0.0
H1240 H 0.9055 0.79643 0.7119 0.0
C1241 C 0.87132 0.77067 0.61789 0.0
C1242 C 0.91392 0.1245 0.3878 0.0
C1243 C 0.93212 0.1369 0.42195 0.0
H1244 H 0.88275 0.13377 0.33361 0.0
C1245 C 0.92993 0.16799 0.43079 0.0
H1246 H 0.91587 0.10064 0.37989 0.0
C1247 C 0.91155 0.18673 0.40431 0.0
C1248 C 0.89499 0.17474 0.36853 0.0
H1249 H 0.94455 0.1783 0.45586 0.0
H1250 H 0.91194 0.21097 0.41012 0.0
C1251 C 0.89506 0.14334 0.36145 0.0
C1252 C 0.61759 0.20417 0.08942 0.0
C1253 C 0.59921 0.18014 0.10526 0.0
H1254 H 0.63938 0.24675 0.1036 0.0
C1255 C 0.59187 0.17861 0.14983 0.0
H1256 H 0.62287 0.20595 0.05492 0.0
C1257 C 0.60081 0.20216 0.1778 0.0
C1258 C 0.61702 0.22754 0.16128 0.0
H1259 H 0.57707 0.16043 0.1623 0.0
H1260 H 0.59304 0.2015 0.21147 0.0
C1261 C 0.62673 0.22758 0.11732 0.0
C1262 C 0.5681 0.83007 0.93076 0.0
C1263 C 0.5659 0.86117 0.92194 0.0
H1264 H 0.58611 0.78711 0.91007 0.0
C1265 C 0.58411 0.87358 0.88782 0.0
H1266 H 0.55346 0.81976 0.9558 0.0
C1267 C 0.603 0.85476 0.86147 0.0
C1268 C 0.60307 0.82335 0.86853 0.0
H1269 H 0.58217 0.89745 0.87993 0.0
H1270 H 0.61532 0.86434 0.83366 0.0
C1271 C 0.58649 0.81135 0.90428 0.0
C1272 C 0.87131 0.22733 0.88562 0.0
C1273 C 0.8812 0.22737 0.84173 0.0
H1274 H 0.87502 0.20564 0.94799 0.0
C1275 C 0.89759 0.20209 0.82526 0.0
H1276 H 0.85851 0.24643 0.89928 0.0
C1277 C 0.90654 0.17855 0.85325 0.0
C1278 C 0.89902 0.18 0.89777 0.0
H1279 H 0.90551 0.2015 0.79166 0.0
H1280 H 0.92149 0.16045 0.84084 0.0
C1281 C 0.88045 0.20392 0.91352 0.0
C1282 C 0.58659 0.18669 0.59881 0.0
C1283 C 0.60315 0.17468 0.63457 0.0
H1284 H 0.55356 0.1783 0.54728 0.0
C1285 C 0.60305 0.14327 0.64164 0.0
H1286 H 0.58623 0.21093 0.59302 0.0
C1287 C 0.58415 0.12446 0.6153 0.0
C1288 C 0.56595 0.13688 0.58117 0.0
H1289 H 0.61535 0.13369 0.66947 0.0
H1290 H 0.58218 0.1006 0.6232 0.0
C1291 C 0.56818 0.16797 0.57233 0.0
C1292 C 0.60078 0.79584 0.32534 0.0
C1293 C 0.617 0.77048 0.34189 0.0
H1294 H 0.57703 0.83758 0.34081 0.0
C1295 C 0.6267 0.77045 0.38585 0.0
H1296 H 0.59301 0.79649 0.29167 0.0
C1297 C 0.61755 0.79387 0.41373 0.0
C1298 C 0.59917 0.81789 0.39787 0.0
H1299 H 0.63936 0.75129 0.39958 0.0
H1300 H 0.62284 0.7921 0.44823 0.0
C1301 C 0.59184 0.81941 0.35329 0.0
C1302 C 0.91168 0.81132 0.09932 0.0
C1303 C 0.8951 0.82331 0.13508 0.0
H1304 H 0.94469 0.81976 0.04778 0.0
C1305 C 0.89515 0.85471 0.14216 0.0
H1306 H 0.91208 0.78708 0.09351 0.0
C1307 C 0.91402 0.87356 0.11582 0.0
C1308 C 0.93223 0.86116 0.08168 0.0
H1309 H 0.88283 0.86428 0.16999 0.0
H1310 H 0.91595 0.89742 0.12372 0.0
C1311 C 0.93005 0.83006 0.07284 0.0
C1312 C 0.60204 0.65134 0.8931 0.0
C1313 C 0.56865 0.65267 0.89238 0.0
H1314 H 0.64552 0.67104 0.86891 0.0
C1315 C 0.55317 0.67195 0.86286 0.0
H1316 H 0.61428 0.63664 0.91592 0.0
C1317 C 0.57072 0.69081 0.83576 0.0
C1318 C 0.60406 0.6908 0.83785 0.0
H1319 H 0.52736 0.67314 0.86175 0.0
H1320 H 0.55815 0.70661 0.81485 0.0
C1321 C 0.61975 0.67085 0.86641 0.0
C1322 C 0.55772 0.38108 0.14973 0.0
C1323 C 0.57716 0.35557 0.14513 0.0
H1324 H 0.52099 0.4085 0.1222 0.0
C1325 C 0.57556 0.33878 0.10618 0.0
H1326 H 0.556 0.39264 0.1805 0.0
C1327 C 0.55239 0.34541 0.07485 0.0
C1328 C 0.5324 0.37059 0.08002 0.0
H1329 H 0.58923 0.31806 0.10268 0.0
H1330 H 0.54796 0.32904 0.04938 0.0
C1331 C 0.5368 0.38946 0.11652 0.0
C1332 C 0.87856 0.32725 0.36653 0.0
C1333 C 0.8942 0.30727 0.33797 0.0
H1334 H 0.88409 0.36147 0.41601 0.0
C1335 C 0.92754 0.30717 0.33592 0.0
H1336 H 0.85279 0.32713 0.369 0.0
C1337 C 0.94513 0.32599 0.36303 0.0
C1338 C 0.92969 0.34532 0.39252 0.0
H1339 H 0.94008 0.29134 0.31501 0.0
H1340 H 0.97094 0.32474 0.36193 0.0
C1341 C 0.8963 0.34674 0.39322 0.0
C1342 C 0.92258 0.65923 0.6064 0.0
C1343 C 0.92098 0.64246 0.64536 0.0
H1344 H 0.95017 0.66894 0.54959 0.0
C1345 C 0.94042 0.61695 0.64998 0.0
H1346 H 0.90891 0.67995 0.60289 0.0
C1347 C 0.96135 0.60855 0.61677 0.0
C1348 C 0.96574 0.62741 0.58026 0.0
H1349 H 0.94216 0.6054 0.68076 0.0
H1350 H 0.97716 0.58952 0.62246 0.0
C1351 C 0.94574 0.65258 0.57507 0.0
C1352 C 0.55315 0.326 0.64024 0.0
C1353 C 0.5686 0.34531 0.61074 0.0
H1354 H 0.55817 0.29133 0.68823 0.0
C1355 C 0.60199 0.34668 0.61002 0.0
H1356 H 0.52734 0.32478 0.64135 0.0
C1357 C 0.61972 0.32718 0.63669 0.0
C1358 C 0.60406 0.30721 0.66524 0.0
H1359 H 0.61421 0.3614 0.58722 0.0
H1360 H 0.64549 0.32702 0.63419 0.0
C1361 C 0.57072 0.30715 0.66732 0.0
C1362 C 0.96137 0.38938 0.88672 0.0
C1363 C 0.96576 0.37052 0.92322 0.0
H1364 H 0.9422 0.39253 0.82272 0.0
C1365 C 0.94578 0.34534 0.92839 0.0
H1366 H 0.97717 0.40843 0.88105 0.0
C1367 C 0.92263 0.33868 0.89705 0.0
C1368 C 0.92102 0.35547 0.85809 0.0
H1369 H 0.95022 0.32897 0.95386 0.0
H1370 H 0.90897 0.31796 0.90055 0.0
C1371 C 0.94045 0.38098 0.85349 0.0
C1372 C 0.94504 0.6719 0.14058 0.0
C1373 C 0.92956 0.65263 0.11106 0.0
H1374 H 0.94007 0.70655 0.18863 0.0
C1375 C 0.89617 0.65129 0.11036 0.0
H1376 H 0.97086 0.6731 0.14169 0.0
C1377 C 0.87847 0.6708 0.13707 0.0
C1378 C 0.89416 0.69074 0.16564 0.0
H1379 H 0.88393 0.6366 0.08754 0.0
H1380 H 0.8527 0.67098 0.13459 0.0
C1381 C 0.9275 0.69076 0.16771 0.0
C1382 C 0.57558 0.65921 0.397 0.0
C1383 C 0.57719 0.64242 0.35805 0.0
H1384 H 0.54798 0.66895 0.4538 0.0
C1385 C 0.55775 0.61691 0.35345 0.0
H1386 H 0.58925 0.67993 0.40049 0.0
C1387 C 0.53682 0.60852 0.38667 0.0
C1388 C 0.53242 0.6274 0.42317 0.0
H1389 H 0.55602 0.60534 0.32268 0.0
H1390 H 0.52102 0.58948 0.38099 0.0
C1391 C 0.55242 0.65257 0.42833 0.0
C1392 C 0.38064 0.29391 0.0895 0.0
C1393 C 0.39903 0.31794 0.1053 0.0
H1394 H 0.35885 0.25134 0.10375 0.0
C1395 C 0.40639 0.31951 0.14986 0.0
H1396 H 0.37532 0.29211 0.05501 0.0
C1397 C 0.39747 0.29596 0.17786 0.0
C1398 C 0.38125 0.27058 0.16138 0.0
H1399 H 0.4212 0.33769 0.16229 0.0
H1400 H 0.40527 0.29664 0.21152 0.0
C1401 C 0.37151 0.27052 0.11743 0.0
C1402 C 0.41417 0.62447 0.88801 0.0
C1403 C 0.43239 0.63691 0.9221 0.0
H1404 H 0.38293 0.63365 0.83387 0.0
C1405 C 0.43018 0.66802 0.93089 0.0
H1406 H 0.41613 0.6006 0.88015 0.0
C1407 C 0.41176 0.68671 0.90441 0.0
C1408 C 0.39517 0.67467 0.86868 0.0
H1409 H 0.44481 0.67835 0.95592 0.0
H1410 H 0.41212 0.71096 0.91017 0.0
C1411 C 0.39526 0.64326 0.86166 0.0
C1412 C 0.12655 0.72758 0.61779 0.0
C1413 C 0.11683 0.72748 0.66175 0.0
H1414 H 0.12273 0.70601 0.55534 0.0
C1415 C 0.10063 0.70208 0.67821 0.0
H1416 H 0.13919 0.74677 0.60413 0.0
C1417 C 0.09172 0.67855 0.65018 0.0
C1418 C 0.09907 0.68013 0.60562 0.0
H1419 H 0.09285 0.70138 0.71187 0.0
H1420 H 0.07693 0.66034 0.66261 0.0
C1421 C 0.11743 0.70419 0.58984 0.0
C1422 C 0.06822 0.33 0.43105 0.0
C1423 C 0.066 0.3611 0.42225 0.0
H1424 H 0.08625 0.28705 0.41031 0.0
C1425 C 0.0842 0.37353 0.38813 0.0
H1426 H 0.0536 0.31967 0.4561 0.0
C1427 C 0.10308 0.35473 0.36175 0.0
C1428 C 0.10317 0.32332 0.36878 0.0
H1429 H 0.08223 0.3974 0.38025 0.0
H1430 H 0.11538 0.36432 0.33393 0.0
C1431 C 0.08662 0.31129 0.40454 0.0
C1432 C 0.40652 0.67852 0.35326 0.0
C1433 C 0.39908 0.68005 0.3978 0.0
H1434 H 0.40545 0.7014 0.29161 0.0
C1435 C 0.38061 0.70405 0.41356 0.0
H1436 H 0.42138 0.66037 0.34085 0.0
C1437 C 0.37149 0.72744 0.38562 0.0
C1438 C 0.38129 0.7274 0.3417 0.0
H1439 H 0.37524 0.70582 0.44804 0.0
H1440 H 0.35877 0.74659 0.39928 0.0
C1441 C 0.39759 0.70206 0.32524 0.0
C1442 C 0.06804 0.66795 0.07252 0.0
C1443 C 0.06582 0.63685 0.0813 0.0
H1444 H 0.08608 0.7109 0.09326 0.0
C1445 C 0.08403 0.62441 0.1154 0.0
H1446 H 0.05341 0.67829 0.04749 0.0
C1447 C 0.10294 0.64321 0.14176 0.0
C1448 C 0.10303 0.67462 0.13475 0.0
H1449 H 0.08207 0.60054 0.12326 0.0
H1450 H 0.11526 0.6336 0.16956 0.0
C1451 C 0.08645 0.68665 0.09901 0.0
C1452 C 0.10067 0.29598 0.82532 0.0
C1453 C 0.11689 0.27059 0.84176 0.0
H1454 H 0.07695 0.33771 0.84094 0.0
C1455 C 0.12663 0.2705 0.88571 0.0
H1456 H 0.09287 0.29668 0.79167 0.0
C1457 C 0.11751 0.29388 0.91368 0.0
C1458 C 0.09913 0.31793 0.89791 0.0
H1459 H 0.13929 0.25131 0.89937 0.0
H1460 H 0.12283 0.29206 0.94817 0.0
C1461 C 0.09176 0.31951 0.85336 0.0
C1462 C 0.41409 0.37354 0.61516 0.0
C1463 C 0.4323 0.3611 0.58106 0.0
H1464 H 0.38287 0.36435 0.66932 0.0
C1465 C 0.43007 0.33 0.57225 0.0
H1466 H 0.41606 0.39741 0.62304 0.0
C1467 C 0.41165 0.3113 0.59873 0.0
C1468 C 0.39508 0.32334 0.63448 0.0
H1469 H 0.4447 0.31966 0.54721 0.0
H1470 H 0.41201 0.28706 0.59296 0.0
C1471 C 0.39518 0.35475 0.64152 0.0
C1472 C 0.25632 0.17624 0.22807 0.0
C1473 C 0.28099 0.19343 0.24665 0.0
H1474 H 0.2075 0.17388 0.20971 0.0
C1475 C 0.27392 0.22264 0.26252 0.0
H1476 H 0.26075 0.1538 0.21516 0.0
C1477 C 0.24269 0.23405 0.26049 0.0
C1478 C 0.21811 0.21681 0.24148 0.0
H1479 H 0.29246 0.23662 0.27667 0.0
H1480 H 0.23782 0.25628 0.27394 0.0
C1481 C 0.22557 0.18795 0.22474 0.0
C1482 C 0.95019 0.97376 0.51742 0.0
C1483 C 0.96903 0.95792 0.487 0.0
H1484 H 0.9391 0.01665 0.54675 0.0
C1485 C 0.99089 0.97433 0.46149 0.0
H1486 H 0.93331 0.96185 0.53792 0.0
C1487 C 0.99466 0.00544 0.46718 0.0
C1488 C 0.9765 0.02126 0.49831 0.0
H1489 H 0.0059 0.96303 0.43777 0.0
H1490 H 0.012 0.01704 0.447 0.0
C1491 C 0.95383 0.00513 0.52294 0.0
C1492 C 0.25545 0.76389 0.76071 0.0
C1493 C 0.28001 0.78112 0.74164 0.0
H1494 H 0.2057 0.76134 0.77702 0.0
C1495 C 0.27253 0.80998 0.72494 0.0
H1496 H 0.26033 0.74166 0.77414 0.0
C1497 C 0.24181 0.82171 0.72837 0.0
C1498 C 0.21714 0.80453 0.74701 0.0
H1499 H 0.29059 0.82404 0.70987 0.0
H1500 H 0.23737 0.84416 0.7155 0.0
C1501 C 0.22423 0.77531 0.76283 0.0
C1502 C 0.54793 0.02428 0.01724 0.0
C1503 C 0.52911 0.04011 0.98677 0.0
H1504 H 0.55896 0.98143 0.04669 0.0
C1505 C 0.50725 0.02369 0.96128 0.0
H1506 H 0.56481 0.03621 0.03773 0.0
C1507 C 0.50343 0.99259 0.96705 0.0
C1508 C 0.52157 0.97679 0.99823 0.0
H1509 H 0.49226 0.03497 0.93753 0.0
H1510 H 0.48609 0.98098 0.94689 0.0
C1511 C 0.54425 0.99292 0.02283 0.0
C1512 C 0.2256 0.80994 0.2786 0.0
C1513 C 0.21813 0.78109 0.26187 0.0
H1514 H 0.26076 0.84412 0.28809 0.0
C1515 C 0.2427 0.76386 0.24279 0.0
H1516 H 0.20754 0.824 0.29368 0.0
C1517 C 0.27392 0.77529 0.24069 0.0
C1518 C 0.281 0.8045 0.25655 0.0
H1519 H 0.23783 0.74164 0.22933 0.0
H1520 H 0.29246 0.76133 0.22649 0.0
C1521 C 0.25633 0.82168 0.27519 0.0
C1522 C 0.50726 0.97438 0.54183 0.0
C1523 C 0.52912 0.95795 0.51634 0.0
H1524 H 0.48612 0.01709 0.55623 0.0
C1525 C 0.54793 0.97377 0.48587 0.0
H1526 H 0.49226 0.9631 0.56558 0.0
C1527 C 0.54426 0.00513 0.48028 0.0
C1528 C 0.52159 0.02128 0.50489 0.0
H1529 H 0.56481 0.96184 0.46538 0.0
H1530 H 0.55897 0.01663 0.45643 0.0
C1531 C 0.50346 0.00548 0.53607 0.0
C1532 C 0.24181 0.1763 0.77501 0.0
C1533 C 0.21714 0.19349 0.75641 0.0
H1534 H 0.29061 0.17395 0.79341 0.0
C1535 C 0.22422 0.22269 0.74056 0.0
H1536 H 0.23738 0.15385 0.78791 0.0
C1537 C 0.25544 0.23411 0.74262 0.0
C1538 C 0.28002 0.21687 0.76165 0.0
H1539 H 0.20568 0.23667 0.7264 0.0
H1540 H 0.26032 0.25633 0.72918 0.0
C1541 C 0.27255 0.18802 0.77837 0.0
C1542 C 0.99099 0.02375 0.04211 0.0
C1543 C 0.96911 0.04015 0.01663 0.0
H1544 H 0.01213 0.98105 0.05657 0.0
C1545 C 0.95025 0.0243 0.98624 0.0
H1546 H 0.00602 0.03506 0.0658 0.0
C1547 C 0.9539 0.99293 0.98072 0.0
C1548 C 0.97659 0.97681 0.00532 0.0
H1549 H 0.93335 0.03621 0.96575 0.0
H1550 H 0.93916 0.98141 0.95692 0.0
C1551 C 0.99477 0.99264 0.03642 0.0
C1552 C 0.77383 0.72259 0.76251 0.0
C1553 C 0.7809 0.69338 0.74666 0.0
H1554 H 0.73775 0.75626 0.77387 0.0
C1555 C 0.75623 0.67621 0.72802 0.0
H1556 H 0.79238 0.73655 0.77671 0.0
C1557 C 0.7255 0.68795 0.72462 0.0
C1558 C 0.71804 0.71681 0.74135 0.0
H1559 H 0.76065 0.65376 0.71512 0.0
H1560 H 0.70744 0.6739 0.70955 0.0
C1561 C 0.74262 0.73403 0.76042 0.0
C1562 C 0.72435 0.27553 0.26229 0.0
C1563 C 0.71728 0.30474 0.24645 0.0
H1564 H 0.76045 0.24189 0.2737 0.0
C1565 C 0.74197 0.32194 0.22789 0.0
H1566 H 0.70581 0.26155 0.27643 0.0
C1567 C 0.77271 0.31023 0.22457 0.0
C1568 C 0.78017 0.28137 0.24128 0.0
H1569 H 0.73754 0.34439 0.215 0.0
H1570 H 0.79079 0.3243 0.20957 0.0
C1571 C 0.75558 0.26412 0.26026 0.0
C1572 C 0.74267 0.26398 0.74282 0.0
C1573 C 0.71808 0.28122 0.76183 0.0
H1574 H 0.79244 0.26143 0.72663 0.0
C1575 C 0.72554 0.31007 0.77857 0.0
H1576 H 0.7378 0.24176 0.72936 0.0
C1577 C 0.75628 0.32179 0.77524 0.0
C1578 C 0.78096 0.30461 0.75665 0.0
H1579 H 0.70747 0.32414 0.79361 0.0
H1580 H 0.76071 0.34424 0.78816 0.0
C1581 C 0.77389 0.2754 0.74078 0.0
C1582 C 0.7556 0.73394 0.24315 0.0
C1583 C 0.78018 0.7167 0.26219 0.0
H1584 H 0.70585 0.73649 0.22688 0.0
C1585 C 0.77271 0.68784 0.27888 0.0
H1586 H 0.76048 0.75617 0.22973 0.0
C1587 C 0.74198 0.67611 0.27548 0.0
C1588 C 0.71731 0.6933 0.25687 0.0
H1589 H 0.79078 0.67377 0.29393 0.0
H1590 H 0.73755 0.65366 0.28836 0.0
C1591 C 0.72439 0.72251 0.24105 0.0
C1592 C 0.49089 0.4744 0.96125 0.0
C1593 C 0.46904 0.45798 0.98675 0.0
H1594 H 0.51206 0.5171 0.94688 0.0
C1595 C 0.45025 0.4738 0.01727 0.0
H1596 H 0.50586 0.46312 0.93747 0.0
C1597 C 0.45396 0.50515 0.02289 0.0
C1598 C 0.47663 0.52129 0.99827 0.0
H1599 H 0.43338 0.46187 0.03777 0.0
H1600 H 0.43927 0.51665 0.04678 0.0
C1601 C 0.49473 0.50549 0.96705 0.0
C1602 C 0.04433 0.49285 0.52316 0.0
C1603 C 0.0217 0.47669 0.49848 0.0
H1604 H 0.06484 0.53614 0.53811 0.0
C1605 C 0.00362 0.49248 0.46723 0.0
H1606 H 0.059 0.48136 0.54707 0.0
C1607 C 0.00743 0.52358 0.46146 0.0
C1608 C 0.02924 0.54002 0.48702 0.0
H1609 H 0.98632 0.48087 0.44701 0.0
H1610 H 0.99248 0.53485 0.43765 0.0
C1611 C 0.04801 0.52421 0.51756 0.0
C1612 C 0.00728 0.47435 0.04206 0.0
C1613 C 0.02913 0.45793 0.01656 0.0
H1614 H 0.98611 0.51705 0.05646 0.0
C1615 C 0.04792 0.47376 0.98606 0.0
H1616 H 0.9923 0.46307 0.06584 0.0
C1617 C 0.04423 0.50511 0.98046 0.0
C1618 C 0.02156 0.52125 0.00508 0.0
H1619 H 0.0648 0.46183 0.96556 0.0
H1620 H 0.05892 0.51661 0.95658 0.0
C1621 C 0.00345 0.50545 0.03629 0.0
C1622 C 0.45391 0.49286 0.48028 0.0
C1623 C 0.47658 0.47671 0.5049 0.0
H1624 H 0.43335 0.53615 0.46541 0.0
C1625 C 0.49468 0.4925 0.53612 0.0
H1626 H 0.43922 0.48137 0.4564 0.0
C1627 C 0.49086 0.5236 0.54191 0.0
C1628 C 0.46901 0.54003 0.51642 0.0
H1629 H 0.51202 0.4809 0.55629 0.0
H1630 H 0.50584 0.53488 0.5657 0.0
C1631 C 0.45022 0.52421 0.48591 0.0
C1632 C 0.06912 0.33827 0.14331 0.0
C1633 C 0.07377 0.33159 0.09898 0.0
H1634 H 0.07951 0.32612 0.20951 0.0
C1635 C 0.09422 0.30755 0.08759 0.0
H1636 H 0.05335 0.35651 0.15304 0.0
C1637 C 0.10853 0.2897 0.11984 0.0
C1638 C 0.10349 0.29608 0.16415 0.0
H1639 H 0.09794 0.30158 0.0537 0.0
H1640 H 0.12303 0.27053 0.11015 0.0
C1641 C 0.08423 0.32097 0.17557 0.0
C1642 C 0.88977 0.78961 0.38392 0.0
C1643 C 0.89485 0.79595 0.33961 0.0
H1644 H 0.90032 0.80152 0.45006 0.0
C1645 C 0.91415 0.82081 0.32819 0.0
H1646 H 0.87522 0.77046 0.39361 0.0
C1647 C 0.92926 0.83811 0.36046 0.0
C1648 C 0.92456 0.83148 0.40479 0.0
H1649 H 0.9189 0.82593 0.29426 0.0
H1650 H 0.94505 0.85633 0.35073 0.0
C1651 C 0.90408 0.80746 0.41617 0.0
C1652 C 0.41391 0.67699 0.67548 0.0
C1653 C 0.39464 0.70188 0.66407 0.0
H1654 H 0.44479 0.64145 0.65294 0.0
C1655 C 0.3896 0.70825 0.61976 0.0
H1656 H 0.41863 0.67185 0.70941 0.0
C1657 C 0.40391 0.6904 0.5875 0.0
C1658 C 0.42436 0.66637 0.59888 0.0
H1659 H 0.37508 0.72742 0.61007 0.0
H1660 H 0.40019 0.69638 0.55361 0.0
C1661 C 0.42902 0.6597 0.64321 0.0
C1662 C 0.60849 0.20833 0.88344 0.0
C1663 C 0.60342 0.20198 0.83913 0.0
H1664 H 0.59794 0.19643 0.94959 0.0
C1665 C 0.58412 0.17712 0.82772 0.0
H1666 H 0.62303 0.22749 0.89314 0.0
C1667 C 0.56902 0.15981 0.85998 0.0
C1668 C 0.57372 0.16646 0.90431 0.0
H1669 H 0.57938 0.17199 0.79378 0.0
H1670 H 0.55323 0.14159 0.85025 0.0
C1671 C 0.59419 0.19048 0.91569 0.0
C1672 C 0.06918 0.65964 0.36024 0.0
C1673 C 0.07381 0.66635 0.40457 0.0
H1674 H 0.07959 0.67176 0.29404 0.0
C1675 C 0.09423 0.69041 0.41594 0.0
H1676 H 0.05344 0.64138 0.35052 0.0
C1677 C 0.10853 0.70826 0.38368 0.0
C1678 C 0.10352 0.70185 0.33937 0.0
H1679 H 0.09793 0.69641 0.44983 0.0
H1680 H 0.12302 0.72745 0.39337 0.0
C1681 C 0.08429 0.67693 0.32797 0.0
C1682 C 0.60846 0.78971 0.61966 0.0
C1683 C 0.60338 0.79606 0.66397 0.0
H1684 H 0.59791 0.80161 0.55352 0.0
C1685 C 0.58409 0.82093 0.67539 0.0
H1686 H 0.62299 0.77056 0.60996 0.0
C1687 C 0.56898 0.83823 0.64313 0.0
C1688 C 0.57368 0.83159 0.5988 0.0
H1689 H 0.57934 0.82605 0.70933 0.0
H1690 H 0.5532 0.85646 0.65286 0.0
C1691 C 0.59415 0.80757 0.58741 0.0
C1692 C 0.38959 0.28977 0.88339 0.0
C1693 C 0.39465 0.29613 0.83908 0.0
H1694 H 0.40016 0.30166 0.94954 0.0
C1695 C 0.41394 0.321 0.82767 0.0
H1696 H 0.37506 0.27061 0.89309 0.0
C1697 C 0.42905 0.33829 0.85993 0.0
C1698 C 0.42437 0.33164 0.90426 0.0
H1699 H 0.41867 0.32613 0.79373 0.0
H1700 H 0.44484 0.35652 0.8502 0.0
C1701 C 0.40391 0.30762 0.91565 0.0
C1702 C 0.88977 0.20845 0.11969 0.0
C1703 C 0.89484 0.20211 0.16399 0.0
H1704 H 0.90032 0.19654 0.05354 0.0
C1705 C 0.91415 0.17725 0.17541 0.0
H1706 H 0.87522 0.22759 0.10999 0.0
C1707 C 0.92927 0.15995 0.14315 0.0
C1708 C 0.92457 0.16658 0.09882 0.0
H1709 H 0.91889 0.17213 0.20935 0.0
H1710 H 0.94506 0.14173 0.15289 0.0
C1711 C 0.90408 0.19059 0.08743 0.0
C1712 C 0.9212 0.62064 0.90762 0.0
C1713 C 0.95374 0.62866 0.90705 0.0
H1714 H 0.87613 0.62204 0.87395 0.0
C1715 C 0.96517 0.64592 0.87182 0.0
H1716 H 0.91161 0.60733 0.93424 0.0
C1717 C 0.94468 0.65532 0.83851 0.0
C1718 C 0.91232 0.64695 0.83861 0.0
H1719 H 0.99 0.6525 0.87006 0.0
H1720 H 0.9545 0.66839 0.81178 0.0
C1721 C 0.90084 0.62919 0.8733 0.0
C1722 C 0.05332 0.15562 0.66455 0.0
C1723 C 0.08567 0.14722 0.66445 0.0
H1724 H 0.00797 0.15277 0.63306 0.0
C1725 C 0.09712 0.1294 0.62979 0.0
H1726 H 0.04352 0.16873 0.69126 0.0
C1727 C 0.07673 0.1208 0.59553 0.0
C1728 C 0.04419 0.12884 0.59612 0.0
H1729 H 0.12182 0.12221 0.62915 0.0
H1730 H 0.0863 0.10743 0.56894 0.0
C1731 C 0.0328 0.14617 0.63129 0.0
C1732 C 0.57691 0.37734 0.4074 0.0
C1733 C 0.54438 0.36929 0.40682 0.0
H1734 H 0.62199 0.37596 0.37374 0.0
C1735 C 0.53297 0.35202 0.3716 0.0
H1736 H 0.58649 0.39067 0.43402 0.0
C1737 C 0.55347 0.34262 0.3383 0.0
C1738 C 0.58582 0.35101 0.3384 0.0
H1739 H 0.50814 0.34542 0.36984 0.0
H1740 H 0.54367 0.32954 0.31157 0.0
C1741 C 0.59729 0.36879 0.37309 0.0
C1742 C 0.4213 0.87726 0.09557 0.0
C1743 C 0.45385 0.86924 0.09615 0.0
H1744 H 0.37623 0.87581 0.12922 0.0
C1745 C 0.46527 0.85194 0.13134 0.0
H1746 H 0.41171 0.89059 0.06898 0.0
C1747 C 0.44477 0.8425 0.16461 0.0
C1748 C 0.41241 0.85086 0.16452 0.0
H1749 H 0.4901 0.84536 0.1331 0.0
H1750 H 0.45459 0.82941 0.19133 0.0
C1751 C 0.40093 0.86865 0.12986 0.0
C1752 C 0.92136 0.37729 0.59586 0.0
C1753 C 0.9539 0.36926 0.59646 0.0
H1754 H 0.87627 0.3759 0.62949 0.0
C1755 C 0.96531 0.35199 0.63168 0.0
H1756 H 0.91178 0.39062 0.56924 0.0
C1757 C 0.9448 0.34258 0.66496 0.0
C1758 C 0.91244 0.35095 0.66484 0.0
H1759 H 0.99014 0.34539 0.63345 0.0
H1760 H 0.9546 0.3295 0.69169 0.0
C1761 C 0.90097 0.36873 0.63015 0.0
C1762 C 0.40097 0.12937 0.37326 0.0
C1763 C 0.41244 0.14716 0.33859 0.0
H1764 H 0.41176 0.10744 0.43414 0.0
C1765 C 0.44479 0.15554 0.3385 0.0
H1766 H 0.37627 0.1222 0.3739 0.0
C1767 C 0.4653 0.14611 0.37178 0.0
C1768 C 0.45388 0.12881 0.40697 0.0
H1769 H 0.45461 0.16863 0.31179 0.0
H1770 H 0.49013 0.1527 0.37002 0.0
C1771 C 0.42134 0.12078 0.40755 0.0
C1772 C 0.53304 0.64597 0.13158 0.0
C1773 C 0.54446 0.6287 0.09635 0.0
H1774 H 0.54372 0.66844 0.19162 0.0
C1775 C 0.577 0.62066 0.09578 0.0
H1776 H 0.50821 0.65256 0.13334 0.0
C1777 C 0.59737 0.62921 0.1301 0.0
C1778 C 0.58589 0.64698 0.16479 0.0
H1779 H 0.58659 0.60734 0.06916 0.0
H1780 H 0.62207 0.62204 0.12945 0.0
C1781 C 0.55354 0.65536 0.16488 0.0
C1782 C 0.09719 0.86866 0.87378 0.0
C1783 C 0.08572 0.85084 0.83913 0.0
H1784 H 0.08638 0.89063 0.93463 0.0
C1785 C 0.05337 0.84245 0.83904 0.0
H1786 H 0.12188 0.87584 0.87441 0.0
C1787 C 0.03286 0.85189 0.87231 0.0
C1788 C 0.04427 0.86922 0.90747 0.0
H1789 H 0.04357 0.82933 0.81234 0.0
H1790 H 0.00803 0.84529 0.87056 0.0
C1791 C 0.0768 0.87726 0.90805 0.0
loop_
_geom_bond_atom_site_label_1
_geom_bond_atom_site_label_2
_geom_bond_distance
_geom_bond_site_symmetry_2
_ccdc_geom_bond_type
Mn0 O5 2.095 . S
Mn0 O15 2.162 . S
Mn0 O16 2.297 . S
Mn0 O24 2.385 . S
Mn0 O25 2.209 . S
Mn0 O26 2.094 . S
Mn1 O6 2.121 . S
Mn1 N8 2.257 . S
Mn1 N17 2.282 . S
Mn1 O25 2.215 . S
Mn1 O27 2.117 . S
C2 O24 1.234 . S
C2 O25 1.283 . S
C3 O15 1.281 . S
C3 O16 1.236 . S
C4 O26 1.240 . S
C4 O27 1.264 . S
O5 Mn0 2.095 . S
O5 C14 1.250 . S
O6 Mn1 2.121 . S
O6 C14 1.258 . S
C7 N8 1.326 . S
C7 C11 1.460 . S
C7 H13 0.929 . S
N8 Mn1 2.257 . S
N8 C7 1.326 . S
N8 C12 1.362 . S
C9 C10 1.258 . S
C9 C12 1.431 . S
C9 C29 1.449 . S
C10 C9 1.258 . S
C10 C11 1.477 . S
C10 H30 0.931 . S
C11 C7 1.460 . S
C11 C10 1.477 . S
C11 H31 0.930 . S
C12 N8 1.362 . S
C12 C9 1.431 . S
C12 C22 1.476 . S
H13 C7 0.929 . S
C14 O5 1.250 . S
C14 O6 1.258 . S
O15 Mn0 2.162 . S
O15 C3 1.281 . S
O16 Mn0 2.297 . S
O16 C3 1.236 . S
N17 Mn1 2.282 . S
N17 C18 1.328 . S
N17 C22 1.318 . S
C18 N17 1.328 . S
C18 C19 1.457 . S
C18 H23 0.929 . S
C19 C18 1.457 . S
C19 C20 1.291 . S
C19 H32 0.931 . S
C20 C19 1.291 . S
C20 C21 1.373 . S
C20 H33 0.929 . S
C21 C20 1.373 . S
C21 C22 1.396 . S
C21 C28 1.403 . S
C22 C12 1.476 . S
C22 N17 1.318 . S
C22 C21 1.396 . S
H23 C18 0.929 . S
O24 Mn0 2.385 . S
O24 C2 1.234 . S
O25 Mn0 2.209 . S
O25 Mn1 2.215 . S
O25 C2 1.283 . S
O26 Mn0 2.094 . S
O26 C4 1.240 . S
O27 Mn1 2.117 . S
O27 C4 1.264 . S
C28 C21 1.403 . S
C28 C29 1.399 . S
C28 H34 0.929 . S
C29 C9 1.449 . S
C29 C28 1.399 . S
C29 H35 0.930 . S
H30 C10 0.931 . S
H31 C11 0.930 . S
H32 C19 0.931 . S
H33 C20 0.929 . S
H34 C28 0.929 . S
H35 C29 0.930 . S
Mn36 O41 2.095 . S
Mn36 O51 2.162 . S
Mn36 O52 2.297 . S
Mn36 O60 2.385 . S
Mn36 O61 2.209 . S
Mn36 O62 2.094 . S
Mn37 O42 2.121 1_455 S
Mn37 N44 2.257 . S
Mn37 N53 2.282 . S
Mn37 O61 2.215 1_455 S
Mn37 O63 2.117 1_455 S
C38 O60 1.234 1_455 S
C38 O61 1.283 1_455 S
C39 O51 1.281 . S
C39 O52 1.236 . S
C40 O62 1.240 . S
C40 O63 1.264 . S
O41 Mn36 2.095 . S
O41 C50 1.250 . S
O42 Mn37 2.121 1_655 S
O42 C50 1.258 . S
C43 N44 1.326 . S
C43 C47 1.460 . S
C43 H49 0.929 . S
N44 Mn37 2.257 . S
N44 C43 1.326 . S
N44 C48 1.362 . S
C45 C46 1.258 . S
C45 C48 1.431 . S
C45 C65 1.449 . S
C46 C45 1.258 . S
C46 C47 1.477 . S
C46 H66 0.931 . S
C47 C43 1.460 . S
C47 C46 1.477 . S
C47 H67 0.930 . S
C48 N44 1.362 . S
C48 C45 1.431 . S
C48 C58 1.476 . S
H49 C43 0.929 . S
C50 O41 1.250 . S
C50 O42 1.258 . S
O51 Mn36 2.162 . S
O51 C39 1.281 . S
O52 Mn36 2.297 . S
O52 C39 1.236 . S
N53 Mn37 2.282 . S
N53 C54 1.328 . S
N53 C58 1.318 . S
C54 N53 1.328 . S
C54 C55 1.457 . S
C54 H59 0.929 . S
C55 C54 1.457 . S
C55 C56 1.291 . S
C55 H68 0.931 . S
C56 C55 1.291 . S
C56 C57 1.373 . S
C56 H69 0.929 . S
C57 C56 1.373 . S
C57 C58 1.396 . S
C57 C64 1.403 . S
C58 C48 1.476 . S
C58 N53 1.318 . S
C58 C57 1.396 . S
H59 C54 0.929 . S
O60 Mn36 2.385 . S
O60 C38 1.234 1_655 S
O61 Mn36 2.209 . S
O61 Mn37 2.215 1_655 S
O61 C38 1.283 1_655 S
O62 Mn36 2.094 . S
O62 C40 1.240 . S
O63 Mn37 2.117 1_655 S
O63 C40 1.264 . S
C64 C57 1.403 . S
C64 C65 1.399 . S
C64 H70 0.929 . S
C65 C45 1.449 . S
C65 C64 1.399 . S
C65 H71 0.930 . S
H66 C46 0.931 . S
H67 C47 0.930 . S
H68 C55 0.931 . S
H69 C56 0.929 . S
H70 C64 0.929 . S
H71 C65 0.930 . S
Mn72 O77 2.095 . S
Mn72 O87 2.162 . S
Mn72 O88 2.297 . S
Mn72 O96 2.385 . S
Mn72 O97 2.209 . S
Mn72 O98 2.094 . S
Mn73 O78 2.121 . S
Mn73 N80 2.257 . S
Mn73 N89 2.282 . S
Mn73 O97 2.215 . S
Mn73 O99 2.117 . S
C74 O96 1.234 . S
C74 O97 1.283 . S
C75 O87 1.281 . S
C75 O88 1.236 . S
C76 O98 1.240 . S
C76 O99 1.264 . S
O77 Mn72 2.095 . S
O77 C86 1.250 . S
O78 Mn73 2.121 . S
O78 C86 1.258 . S
C79 N80 1.326 . S
C79 C83 1.460 . S
C79 H85 0.929 . S
N80 Mn73 2.257 . S
N80 C79 1.326 . S
N80 C84 1.362 . S
C81 C82 1.258 . S
C81 C84 1.431 . S
C81 C101 1.449 . S
C82 C81 1.258 . S
C82 C83 1.477 . S
C82 H102 0.931 . S
C83 C79 1.460 . S
C83 C82 1.477 . S
C83 H103 0.930 . S
C84 N80 1.362 . S
C84 C81 1.431 . S
C84 C94 1.476 . S
H85 C79 0.929 . S
C86 O77 1.250 . S
C86 O78 1.258 . S
O87 Mn72 2.162 . S
O87 C75 1.281 . S
O88 Mn72 2.297 . S
O88 C75 1.236 . S
N89 Mn73 2.282 . S
N89 C90 1.328 . S
N89 C94 1.318 . S
C90 N89 1.328 . S
C90 C91 1.457 . S
C90 H95 0.929 . S
C91 C90 1.457 . S
C91 C92 1.291 . S
C91 H104 0.931 . S
C92 C91 1.291 . S
C92 C93 1.373 . S
C92 H105 0.929 . S
C93 C92 1.373 . S
C93 C94 1.396 . S
C93 C100 1.403 . S
C94 C84 1.476 . S
C94 N89 1.318 . S
C94 C93 1.396 . S
H95 C90 0.929 . S
O96 Mn72 2.385 . S
O96 C74 1.234 . S
O97 Mn72 2.209 . S
O97 Mn73 2.215 . S
O97 C74 1.283 . S
O98 Mn72 2.094 . S
O98 C76 1.240 . S
O99 Mn73 2.117 . S
O99 C76 1.264 . S
C100 C93 1.403 . S
C100 C101 1.399 . S
C100 H106 0.929 . S
C101 C81 1.449 . S
C101 C100 1.399 . S
C101 H107 0.930 . S
H102 C82 0.931 . S
H103 C83 0.930 . S
H104 C91 0.931 . S
H105 C92 0.929 . S
H106 C100 0.929 . S
H107 C101 0.930 . S
Mn108 O113 2.095 1_554 S
Mn108 O123 2.162 . S
Mn108 O124 2.297 . S
Mn108 O132 2.385 . S
Mn108 O133 2.209 . S
Mn108 O134 2.094 . S
Mn109 O114 2.121 . S
Mn109 N116 2.257 . S
Mn109 N125 2.282 1_556 S
Mn109 O133 2.215 1_556 S
Mn109 O135 2.117 . S
C110 O132 1.234 . S
C110 O133 1.283 . S
C111 O123 1.281 . S
C111 O124 1.236 . S
C112 O134 1.240 . S
C112 O135 1.264 1_554 S
O113 Mn108 2.095 1_556 S
O113 C122 1.250 . S
O114 Mn109 2.121 . S
O114 C122 1.258 . S
C115 N116 1.326 . S
C115 C119 1.460 . S
C115 H121 0.929 . S
N116 Mn109 2.257 . S
N116 C115 1.326 . S
N116 C120 1.362 . S
C117 C118 1.258 . S
C117 C120 1.431 . S
C117 C137 1.449 . S
C118 C117 1.258 . S
C118 C119 1.477 . S
C118 H138 0.931 . S
C119 C115 1.460 . S
C119 C118 1.477 . S
C119 H139 0.930 . S
C120 N116 1.362 . S
C120 C117 1.431 . S
C120 C130 1.476 . S
H121 C115 0.929 . S
C122 O113 1.250 . S
C122 O114 1.258 . S
O123 Mn108 2.162 . S
O123 C111 1.281 . S
O124 Mn108 2.297 . S
O124 C111 1.236 . S
N125 Mn109 2.282 1_554 S
N125 C126 1.328 . S
N125 C130 1.318 1_554 S
C126 N125 1.328 . S
C126 C127 1.457 . S
C126 H131 0.929 . S
C127 C126 1.457 . S
C127 C128 1.291 . S
C127 H140 0.931 . S
C128 C127 1.291 . S
C128 C129 1.373 . S
C128 H141 0.929 . S
C129 C128 1.373 . S
C129 C130 1.396 1_554 S
C129 C136 1.403 . S
C130 C120 1.476 . S
C130 N125 1.318 1_556 S
C130 C129 1.396 1_556 S
H131 C126 0.929 . S
O132 Mn108 2.385 . S
O132 C110 1.234 . S
O133 Mn108 2.209 . S
O133 Mn109 2.215 1_554 S
O133 C110 1.283 . S
O134 Mn108 2.094 . S
O134 C112 1.240 . S
O135 Mn109 2.117 . S
O135 C112 1.264 1_556 S
C136 C129 1.403 . S
C136 C137 1.399 1_554 S
C136 H142 0.929 . S
C137 C117 1.449 . S
C137 C136 1.399 1_556 S
C137 H143 0.930 . S
H138 C118 0.931 . S
H139 C119 0.930 . S
H140 C127 0.931 . S
H141 C128 0.929 . S
H142 C136 0.929 . S
H143 C137 0.930 . S
Mn144 O149 2.095 . S
Mn144 O159 2.162 . S
Mn144 O160 2.297 . S
Mn144 O168 2.385 . S
Mn144 O169 2.209 . S
Mn144 O170 2.094 . S
Mn145 O150 2.121 . S
Mn145 N152 2.257 . S
Mn145 N161 2.282 . S
Mn145 O169 2.215 . S
Mn145 O171 2.117 . S
C146 O168 1.234 . S
C146 O169 1.283 . S
C147 O159 1.281 . S
C147 O160 1.236 . S
C148 O170 1.240 . S
C148 O171 1.264 . S
O149 Mn144 2.095 . S
O149 C158 1.250 . S
O150 Mn145 2.121 . S
O150 C158 1.258 . S
C151 N152 1.326 . S
C151 C155 1.460 . S
C151 H157 0.929 . S
N152 Mn145 2.257 . S
N152 C151 1.326 . S
N152 C156 1.362 . S
C153 C154 1.258 . S
C153 C156 1.431 . S
C153 C173 1.449 . S
C154 C153 1.258 . S
C154 C155 1.477 . S
C154 H174 0.931 . S
C155 C151 1.460 . S
C155 C154 1.477 . S
C155 H175 0.930 . S
C156 N152 1.362 . S
C156 C153 1.431 . S
C156 C166 1.476 . S
H157 C151 0.929 . S
C158 O149 1.250 . S
C158 O150 1.258 . S
O159 Mn144 2.162 . S
O159 C147 1.281 . S
O160 Mn144 2.297 . S
O160 C147 1.236 . S
N161 Mn145 2.282 . S
N161 C162 1.328 . S
N161 C166 1.318 . S
C162 N161 1.328 . S
C162 C163 1.457 . S
C162 H167 0.929 . S
C163 C162 1.457 . S
C163 C164 1.291 . S
C163 H176 0.931 . S
C164 C163 1.291 . S
C164 C165 1.373 . S
C164 H177 0.929 . S
C165 C164 1.373 . S
C165 C166 1.396 . S
C165 C172 1.403 . S
C166 C156 1.476 . S
C166 N161 1.318 . S
C166 C165 1.396 . S
H167 C162 0.929 . S
O168 Mn144 2.385 . S
O168 C146 1.234 . S
O169 Mn144 2.209 . S
O169 Mn145 2.215 . S
O169 C146 1.283 . S
O170 Mn144 2.094 . S
O170 C148 1.240 . S
O171 Mn145 2.117 . S
O171 C148 1.264 . S
C172 C165 1.403 . S
C172 C173 1.399 . S
C172 H178 0.929 . S
C173 C153 1.449 . S
C173 C172 1.399 . S
C173 H179 0.930 . S
H174 C154 0.931 . S
H175 C155 0.930 . S
H176 C163 0.931 . S
H177 C164 0.929 . S
H178 C172 0.929 . S
H179 C173 0.930 . S
Mn180 O185 2.095 . S
Mn180 O195 2.162 . S
Mn180 O196 2.297 . S
Mn180 O204 2.385 . S
Mn180 O205 2.209 . S
Mn180 O206 2.094 . S
Mn181 O186 2.121 . S
Mn181 N188 2.257 . S
Mn181 N197 2.282 . S
Mn181 O205 2.215 . S
Mn181 O207 2.117 . S
C182 O204 1.234 . S
C182 O205 1.283 . S
C183 O195 1.281 . S
C183 O196 1.236 . S
C184 O206 1.240 . S
C184 O207 1.264 . S
O185 Mn180 2.095 . S
O185 C194 1.250 . S
O186 Mn181 2.121 . S
O186 C194 1.258 . S
C187 N188 1.326 . S
C187 C191 1.460 . S
C187 H193 0.929 . S
N188 Mn181 2.257 . S
N188 C187 1.326 . S
N188 C192 1.362 . S
C189 C190 1.258 . S
C189 C192 1.431 . S
C189 C209 1.449 . S
C190 C189 1.258 . S
C190 C191 1.477 . S
C190 H210 0.931 . S
C191 C187 1.460 . S
C191 C190 1.477 . S
C191 H211 0.930 . S
C192 N188 1.362 . S
C192 C189 1.431 . S
C192 C202 1.476 . S
H193 C187 0.929 . S
C194 O185 1.250 . S
C194 O186 1.258 . S
O195 Mn180 2.162 . S
O195 C183 1.281 . S
O196 Mn180 2.297 . S
O196 C183 1.236 . S
N197 Mn181 2.282 . S
N197 C198 1.328 . S
N197 C202 1.318 . S
C198 N197 1.328 . S
C198 C199 1.457 . S
C198 H203 0.929 . S
C199 C198 1.457 . S
C199 C200 1.291 . S
C199 H212 0.931 . S
C200 C199 1.291 . S
C200 C201 1.373 . S
C200 H213 0.929 . S
C201 C200 1.373 . S
C201 C202 1.396 . S
C201 C208 1.403 . S
C202 C192 1.476 . S
C202 N197 1.318 . S
C202 C201 1.396 . S
H203 C198 0.929 . S
O204 Mn180 2.385 . S
O204 C182 1.234 . S
O205 Mn180 2.209 . S
O205 Mn181 2.215 . S
O205 C182 1.283 . S
O206 Mn180 2.094 . S
O206 C184 1.240 . S
O207 Mn181 2.117 . S
O207 C184 1.264 . S
C208 C201 1.403 . S
C208 C209 1.399 . S
C208 H214 0.929 . S
C209 C189 1.449 . S
C209 C208 1.399 . S
C209 H215 0.930 . S
H210 C190 0.931 . S
H211 C191 0.930 . S
H212 C199 0.931 . S
H213 C200 0.929 . S
H214 C208 0.929 . S
H215 C209 0.930 . S
Mn216 O221 2.095 . S
Mn216 O231 2.162 . S
Mn216 O232 2.297 . S
Mn216 O240 2.385 . S
Mn216 O241 2.209 . S
Mn216 O242 2.094 . S
Mn217 O222 2.121 . S
Mn217 N224 2.257 . S
Mn217 N233 2.282 . S
Mn217 O241 2.215 . S
Mn217 O243 2.117 . S
C218 O240 1.234 . S
C218 O241 1.283 . S
C219 O231 1.281 . S
C219 O232 1.236 . S
C220 O242 1.240 . S
C220 O243 1.264 . S
O221 Mn216 2.095 . S
O221 C230 1.250 . S
O222 Mn217 2.121 . S
O222 C230 1.258 . S
C223 N224 1.326 . S
C223 C227 1.460 . S
C223 H229 0.929 . S
N224 Mn217 2.257 . S
N224 C223 1.326 . S
N224 C228 1.362 . S
C225 C226 1.258 . S
C225 C228 1.431 . S
C225 C245 1.449 . S
C226 C225 1.258 . S
C226 C227 1.477 . S
C226 H246 0.931 . S
C227 C223 1.460 . S
C227 C226 1.477 . S
C227 H247 0.930 . S
C228 N224 1.362 . S
C228 C225 1.431 . S
C228 C238 1.476 . S
H229 C223 0.929 . S
C230 O221 1.250 . S
C230 O222 1.258 . S
O231 Mn216 2.162 . S
O231 C219 1.281 . S
O232 Mn216 2.297 . S
O232 C219 1.236 . S
N233 Mn217 2.282 . S
N233 C234 1.328 . S
N233 C238 1.318 . S
C234 N233 1.328 . S
C234 C235 1.457 . S
C234 H239 0.929 . S
C235 C234 1.457 . S
C235 C236 1.291 . S
C235 H248 0.931 . S
C236 C235 1.291 . S
C236 C237 1.373 . S
C236 H249 0.929 . S
C237 C236 1.373 . S
C237 C238 1.396 . S
C237 C244 1.403 . S
C238 C228 1.476 . S
C238 N233 1.318 . S
C238 C237 1.396 . S
H239 C234 0.929 . S
O240 Mn216 2.385 . S
O240 C218 1.234 . S
O241 Mn216 2.209 . S
O241 Mn217 2.215 . S
O241 C218 1.283 . S
O242 Mn216 2.094 . S
O242 C220 1.240 . S
O243 Mn217 2.117 . S
O243 C220 1.264 . S
C244 C237 1.403 . S
C244 C245 1.399 . S
C244 H250 0.929 . S
C245 C225 1.449 . S
C245 C244 1.399 . S
C245 H251 0.930 . S
H246 C226 0.931 . S
H247 C227 0.930 . S
H248 C235 0.931 . S
H249 C236 0.929 . S
H250 C244 0.929 . S
H251 C245 0.930 . S
Mn252 O257 2.095 1_556 S
Mn252 O267 2.162 . S
Mn252 O268 2.297 . S
Mn252 O276 2.385 . S
Mn252 O277 2.209 . S
Mn252 O278 2.094 . S
Mn253 O258 2.121 1_455 S
Mn253 N260 2.257 . S
Mn253 N269 2.282 1_554 S
Mn253 O277 2.215 1_454 S
Mn253 O279 2.117 1_455 S
C254 O276 1.234 1_455 S
C254 O277 1.283 1_455 S
C255 O267 1.281 . S
C255 O268 1.236 . S
C256 O278 1.240 . S
C256 O279 1.264 1_556 S
O257 Mn252 2.095 1_554 S
O257 C266 1.250 . S
O258 Mn253 2.121 1_655 S
O258 C266 1.258 . S
C259 N260 1.326 . S
C259 C263 1.460 . S
C259 H265 0.929 . S
N260 Mn253 2.257 . S
N260 C259 1.326 . S
N260 C264 1.362 . S
C261 C262 1.258 . S
C261 C264 1.431 . S
C261 C281 1.449 . S
C262 C261 1.258 . S
C262 C263 1.477 . S
C262 H282 0.931 . S
C263 C259 1.460 . S
C263 C262 1.477 . S
C263 H283 0.930 . S
C264 N260 1.362 . S
C264 C261 1.431 . S
C264 C274 1.476 . S
H265 C259 0.929 . S
C266 O257 1.250 . S
C266 O258 1.258 . S
O267 Mn252 2.162 . S
O267 C255 1.281 . S
O268 Mn252 2.297 . S
O268 C255 1.236 . S
N269 Mn253 2.282 1_556 S
N269 C270 1.328 . S
N269 C274 1.318 1_556 S
C270 N269 1.328 . S
C270 C271 1.457 . S
C270 H275 0.929 . S
C271 C270 1.457 . S
C271 C272 1.291 . S
C271 H284 0.931 . S
C272 C271 1.291 . S
C272 C273 1.373 . S
C272 H285 0.929 . S
C273 C272 1.373 . S
C273 C274 1.396 1_556 S
C273 C280 1.403 . S
C274 C264 1.476 . S
C274 N269 1.318 1_554 S
C274 C273 1.396 1_554 S
H275 C270 0.929 . S
O276 Mn252 2.385 . S
O276 C254 1.234 1_655 S
O277 Mn252 2.209 . S
O277 Mn253 2.215 1_656 S
O277 C254 1.283 1_655 S
O278 Mn252 2.094 . S
O278 C256 1.240 . S
O279 Mn253 2.117 1_655 S
O279 C256 1.264 1_554 S
C280 C273 1.403 . S
C280 C281 1.399 1_556 S
C280 H286 0.929 . S
C281 C261 1.449 . S
C281 C280 1.399 1_554 S
C281 H287 0.930 . S
H282 C262 0.931 . S
H283 C263 0.930 . S
H284 C271 0.931 . S
H285 C272 0.929 . S
H286 C280 0.929 . S
H287 C281 0.930 . S
Mn288 O293 2.095 . S
Mn288 O303 2.162 . S
Mn288 O304 2.297 . S
Mn288 O312 2.385 . S
Mn288 O313 2.209 . S
Mn288 O314 2.094 . S
Mn289 O294 2.121 . S
Mn289 N296 2.257 . S
Mn289 N305 2.282 . S
Mn289 O313 2.215 . S
Mn289 O315 2.117 . S
C290 O312 1.234 . S
C290 O313 1.283 . S
C291 O303 1.281 . S
C291 O304 1.236 . S
C292 O314 1.240 . S
C292 O315 1.264 . S
O293 Mn288 2.095 . S
O293 C302 1.250 . S
O294 Mn289 2.121 . S
O294 C302 1.258 . S
C295 N296 1.326 . S
C295 C299 1.460 . S
C295 H301 0.929 . S
N296 Mn289 2.257 . S
N296 C295 1.326 . S
N296 C300 1.362 . S
C297 C298 1.258 . S
C297 C300 1.431 . S
C297 C317 1.449 . S
C298 C297 1.258 . S
C298 C299 1.477 . S
C298 H318 0.931 . S
C299 C295 1.460 . S
C299 C298 1.477 . S
C299 H319 0.930 . S
C300 N296 1.362 . S
C300 C297 1.431 . S
C300 C310 1.476 . S
H301 C295 0.929 . S
C302 O293 1.250 . S
C302 O294 1.258 . S
O303 Mn288 2.162 . S
O303 C291 1.281 . S
O304 Mn288 2.297 . S
O304 C291 1.236 . S
N305 Mn289 2.282 . S
N305 C306 1.328 . S
N305 C310 1.318 . S
C306 N305 1.328 . S
C306 C307 1.457 . S
C306 H311 0.929 . S
C307 C306 1.457 . S
C307 C308 1.291 . S
C307 H320 0.931 . S
C308 C307 1.291 . S
C308 C309 1.373 . S
C308 H321 0.929 . S
C309 C308 1.373 . S
C309 C310 1.396 . S
C309 C316 1.403 . S
C310 C300 1.476 . S
C310 N305 1.318 . S
C310 C309 1.396 . S
H311 C306 0.929 . S
O312 Mn288 2.385 . S
O312 C290 1.234 . S
O313 Mn288 2.209 . S
O313 Mn289 2.215 . S
O313 C290 1.283 . S
O314 Mn288 2.094 . S
O314 C292 1.240 . S
O315 Mn289 2.117 . S
O315 C292 1.264 . S
C316 C309 1.403 . S
C316 C317 1.399 . S
C316 H322 0.929 . S
C317 C297 1.449 . S
C317 C316 1.399 . S
C317 H323 0.930 . S
H318 C298 0.931 . S
H319 C299 0.930 . S
H320 C307 0.931 . S
H321 C308 0.929 . S
H322 C316 0.929 . S
H323 C317 0.930 . S
Mn324 O329 2.095 . S
Mn324 O339 2.162 . S
Mn324 O340 2.297 . S
Mn324 O348 2.385 . S
Mn324 O349 2.209 . S
Mn324 O350 2.094 . S
Mn325 O330 2.121 1_655 S
Mn325 N332 2.257 . S
Mn325 N341 2.282 . S
Mn325 O349 2.215 1_655 S
Mn325 O351 2.117 1_655 S
C326 O348 1.234 . S
C326 O349 1.283 . S
C327 O339 1.281 . S
C327 O340 1.236 . S
C328 O350 1.240 . S
C328 O351 1.264 . S
O329 Mn324 2.095 . S
O329 C338 1.250 . S
O330 Mn325 2.121 1_455 S
O330 C338 1.258 . S
C331 N332 1.326 . S
C331 C335 1.460 . S
C331 H337 0.929 . S
N332 Mn325 2.257 . S
N332 C331 1.326 . S
N332 C336 1.362 . S
C333 C334 1.258 . S
C333 C336 1.431 . S
C333 C353 1.449 . S
C334 C333 1.258 . S
C334 C335 1.477 . S
C334 H354 0.931 . S
C335 C331 1.460 . S
C335 C334 1.477 . S
C335 H355 0.930 . S
C336 N332 1.362 . S
C336 C333 1.431 . S
C336 C346 1.476 . S
H337 C331 0.929 . S
C338 O329 1.250 . S
C338 O330 1.258 . S
O339 Mn324 2.162 . S
O339 C327 1.281 . S
O340 Mn324 2.297 . S
O340 C327 1.236 . S
N341 Mn325 2.282 . S
N341 C342 1.328 . S
N341 C346 1.318 . S
C342 N341 1.328 . S
C342 C343 1.457 . S
C342 H347 0.929 . S
C343 C342 1.457 . S
C343 C344 1.291 . S
C343 H356 0.931 . S
C344 C343 1.291 . S
C344 C345 1.373 . S
C344 H357 0.929 . S
C345 C344 1.373 . S
C345 C346 1.396 . S
C345 C352 1.403 . S
C346 C336 1.476 . S
C346 N341 1.318 . S
C346 C345 1.396 . S
H347 C342 0.929 . S
O348 Mn324 2.385 . S
O348 C326 1.234 . S
O349 Mn324 2.209 . S
O349 Mn325 2.215 1_455 S
O349 C326 1.283 . S
O350 Mn324 2.094 . S
O350 C328 1.240 . S
O351 Mn325 2.117 1_455 S
O351 C328 1.264 . S
C352 C345 1.403 . S
C352 C353 1.399 . S
C352 H358 0.929 . S
C353 C333 1.449 . S
C353 C352 1.399 . S
C353 H359 0.930 . S
H354 C334 0.931 . S
H355 C335 0.930 . S
H356 C343 0.931 . S
H357 C344 0.929 . S
H358 C352 0.929 . S
H359 C353 0.930 . S
Mn360 O365 2.095 . S
Mn360 O375 2.162 . S
Mn360 O376 2.297 . S
Mn360 O384 2.385 . S
Mn360 O385 2.209 . S
Mn360 O386 2.094 . S
Mn361 O366 2.121 . S
Mn361 N368 2.257 . S
Mn361 N377 2.282 . S
Mn361 O385 2.215 . S
Mn361 O387 2.117 . S
C362 O384 1.234 . S
C362 O385 1.283 . S
C363 O375 1.281 . S
C363 O376 1.236 . S
C364 O386 1.240 . S
C364 O387 1.264 . S
O365 Mn360 2.095 . S
O365 C374 1.250 . S
O366 Mn361 2.121 . S
O366 C374 1.258 . S
C367 N368 1.326 . S
C367 C371 1.460 . S
C367 H373 0.929 . S
N368 Mn361 2.257 . S
N368 C367 1.326 . S
N368 C372 1.362 . S
C369 C370 1.258 . S
C369 C372 1.431 . S
C369 C389 1.449 . S
C370 C369 1.258 . S
C370 C371 1.477 . S
C370 H390 0.931 . S
C371 C367 1.460 . S
C371 C370 1.477 . S
C371 H391 0.930 . S
C372 N368 1.362 . S
C372 C369 1.431 . S
C372 C382 1.476 . S
H373 C367 0.929 . S
C374 O365 1.250 . S
C374 O366 1.258 . S
O375 Mn360 2.162 . S
O375 C363 1.281 . S
O376 Mn360 2.297 . S
O376 C363 1.236 . S
N377 Mn361 2.282 . S
N377 C378 1.328 . S
N377 C382 1.318 . S
C378 N377 1.328 . S
C378 C379 1.457 . S
C378 H383 0.929 . S
C379 C378 1.457 . S
C379 C380 1.291 . S
C379 H392 0.931 . S
C380 C379 1.291 . S
C380 C381 1.373 . S
C380 H393 0.929 . S
C381 C380 1.373 . S
C381 C382 1.396 . S
C381 C388 1.403 . S
C382 C372 1.476 . S
C382 N377 1.318 . S
C382 C381 1.396 . S
H383 C378 0.929 . S
O384 Mn360 2.385 . S
O384 C362 1.234 . S
O385 Mn360 2.209 . S
O385 Mn361 2.215 . S
O385 C362 1.283 . S
O386 Mn360 2.094 . S
O386 C364 1.240 . S
O387 Mn361 2.117 . S
O387 C364 1.264 . S
C388 C381 1.403 . S
C388 C389 1.399 . S
C388 H394 0.929 . S
C389 C369 1.449 . S
C389 C388 1.399 . S
C389 H395 0.930 . S
H390 C370 0.931 . S
H391 C371 0.930 . S
H392 C379 0.931 . S
H393 C380 0.929 . S
H394 C388 0.929 . S
H395 C389 0.930 . S
Mn396 O401 2.095 1_556 S
Mn396 O411 2.162 . S
Mn396 O412 2.297 . S
Mn396 O420 2.385 . S
Mn396 O421 2.209 . S
Mn396 O422 2.094 . S
Mn397 O402 2.121 . S
Mn397 N404 2.257 . S
Mn397 N413 2.282 1_554 S
Mn397 O421 2.215 1_554 S
Mn397 O423 2.117 1_554 S
C398 O420 1.234 . S
C398 O421 1.283 . S
C399 O411 1.281 . S
C399 O412 1.236 . S
C400 O422 1.240 . S
C400 O423 1.264 . S
O401 Mn396 2.095 1_554 S
O401 C410 1.250 . S
O402 Mn397 2.121 . S
O402 C410 1.258 . S
C403 N404 1.326 . S
C403 C407 1.460 . S
C403 H409 0.929 . S
N404 Mn397 2.257 . S
N404 C403 1.326 . S
N404 C408 1.362 . S
C405 C406 1.258 . S
C405 C408 1.431 . S
C405 C425 1.449 . S
C406 C405 1.258 . S
C406 C407 1.477 . S
C406 H426 0.931 . S
C407 C403 1.460 . S
C407 C406 1.477 . S
C407 H427 0.930 . S
C408 N404 1.362 . S
C408 C405 1.431 . S
C408 C418 1.476 1_554 S
H409 C403 0.929 . S
C410 O401 1.250 . S
C410 O402 1.258 . S
O411 Mn396 2.162 . S
O411 C399 1.281 . S
O412 Mn396 2.297 . S
O412 C399 1.236 . S
N413 Mn397 2.282 1_556 S
N413 C414 1.328 . S
N413 C418 1.318 . S
C414 N413 1.328 . S
C414 C415 1.457 . S
C414 H419 0.929 . S
C415 C414 1.457 . S
C415 C416 1.291 . S
C415 H428 0.931 . S
C416 C415 1.291 . S
C416 C417 1.373 . S
C416 H429 0.929 . S
C417 C416 1.373 . S
C417 C418 1.396 . S
C417 C424 1.403 . S
C418 C408 1.476 1_556 S
C418 N413 1.318 . S
C418 C417 1.396 . S
H419 C414 0.929 . S
O420 Mn396 2.385 . S
O420 C398 1.234 . S
O421 Mn396 2.209 . S
O421 Mn397 2.215 1_556 S
O421 C398 1.283 . S
O422 Mn396 2.094 . S
O422 C400 1.240 . S
O423 Mn397 2.117 1_556 S
O423 C400 1.264 . S
C424 C417 1.403 . S
C424 C425 1.399 1_556 S
C424 H430 0.929 . S
C425 C405 1.449 . S
C425 C424 1.399 1_554 S
C425 H431 0.930 . S
H426 C406 0.931 . S
H427 C407 0.930 . S
H428 C415 0.931 . S
H429 C416 0.929 . S
H430 C424 0.929 . S
H431 C425 0.930 . S
Mn432 O437 2.095 . S
Mn432 O447 2.162 . S
Mn432 O448 2.297 . S
Mn432 O456 2.385 . S
Mn432 O457 2.209 . S
Mn432 O458 2.094 . S
Mn433 O438 2.121 . S
Mn433 N440 2.257 . S
Mn433 N449 2.282 . S
Mn433 O457 2.215 . S
Mn433 O459 2.117 . S
C434 O456 1.234 . S
C434 O457 1.283 . S
C435 O447 1.281 . S
C435 O448 1.236 . S
C436 O458 1.240 . S
C436 O459 1.264 . S
O437 Mn432 2.095 . S
O437 C446 1.250 . S
O438 Mn433 2.121 . S
O438 C446 1.258 . S
C439 N440 1.326 . S
C439 C443 1.460 . S
C439 H445 0.929 . S
N440 Mn433 2.257 . S
N440 C439 1.326 . S
N440 C444 1.362 . S
C441 C442 1.258 . S
C441 C444 1.431 . S
C441 C461 1.449 . S
C442 C441 1.258 . S
C442 C443 1.477 . S
C442 H462 0.931 . S
C443 C439 1.460 . S
C443 C442 1.477 . S
C443 H463 0.930 . S
C444 N440 1.362 . S
C444 C441 1.431 . S
C444 C454 1.476 . S
H445 C439 0.929 . S
C446 O437 1.250 . S
C446 O438 1.258 . S
O447 Mn432 2.162 . S
O447 C435 1.281 . S
O448 Mn432 2.297 . S
O448 C435 1.236 . S
N449 Mn433 2.282 . S
N449 C450 1.328 . S
N449 C454 1.318 . S
C450 N449 1.328 . S
C450 C451 1.457 . S
C450 H455 0.929 . S
C451 C450 1.457 . S
C451 C452 1.291 . S
C451 H464 0.931 . S
C452 C451 1.291 . S
C452 C453 1.373 . S
C452 H465 0.929 . S
C453 C452 1.373 . S
C453 C454 1.396 . S
C453 C460 1.403 . S
C454 C444 1.476 . S
C454 N449 1.318 . S
C454 C453 1.396 . S
H455 C450 0.929 . S
O456 Mn432 2.385 . S
O456 C434 1.234 . S
O457 Mn432 2.209 . S
O457 Mn433 2.215 . S
O457 C434 1.283 . S
O458 Mn432 2.094 . S
O458 C436 1.240 . S
O459 Mn433 2.117 . S
O459 C436 1.264 . S
C460 C453 1.403 . S
C460 C461 1.399 . S
C460 H466 0.929 . S
C461 C441 1.449 . S
C461 C460 1.399 . S
C461 H467 0.930 . S
H462 C442 0.931 . S
H463 C443 0.930 . S
H464 C451 0.931 . S
H465 C452 0.929 . S
H466 C460 0.929 . S
H467 C461 0.930 . S
Mn468 O473 2.095 . S
Mn468 O483 2.162 . S
Mn468 O484 2.297 . S
Mn468 O492 2.385 . S
Mn468 O493 2.209 . S
Mn468 O494 2.094 . S
Mn469 O474 2.121 . S
Mn469 N476 2.257 . S
Mn469 N485 2.282 . S
Mn469 O493 2.215 . S
Mn469 O495 2.117 . S
C470 O492 1.234 . S
C470 O493 1.283 . S
C471 O483 1.281 . S
C471 O484 1.236 . S
C472 O494 1.240 . S
C472 O495 1.264 . S
O473 Mn468 2.095 . S
O473 C482 1.250 . S
O474 Mn469 2.121 . S
O474 C482 1.258 . S
C475 N476 1.326 . S
C475 C479 1.460 . S
C475 H481 0.929 . S
N476 Mn469 2.257 . S
N476 C475 1.326 . S
N476 C480 1.362 . S
C477 C478 1.258 . S
C477 C480 1.431 . S
C477 C497 1.449 . S
C478 C477 1.258 . S
C478 C479 1.477 . S
C478 H498 0.931 . S
C479 C475 1.460 . S
C479 C478 1.477 . S
C479 H499 0.930 . S
C480 N476 1.362 . S
C480 C477 1.431 . S
C480 C490 1.476 . S
H481 C475 0.929 . S
C482 O473 1.250 . S
C482 O474 1.258 . S
O483 Mn468 2.162 . S
O483 C471 1.281 . S
O484 Mn468 2.297 . S
O484 C471 1.236 . S
N485 Mn469 2.282 . S
N485 C486 1.328 . S
N485 C490 1.318 . S
C486 N485 1.328 . S
C486 C487 1.457 . S
C486 H491 0.929 . S
C487 C486 1.457 . S
C487 C488 1.291 . S
C487 H500 0.931 . S
C488 C487 1.291 . S
C488 C489 1.373 . S
C488 H501 0.929 . S
C489 C488 1.373 . S
C489 C490 1.396 . S
C489 C496 1.403 . S
C490 C480 1.476 . S
C490 N485 1.318 . S
C490 C489 1.396 . S
H491 C486 0.929 . S
O492 Mn468 2.385 . S
O492 C470 1.234 . S
O493 Mn468 2.209 . S
O493 Mn469 2.215 . S
O493 C470 1.283 . S
O494 Mn468 2.094 . S
O494 C472 1.240 . S
O495 Mn469 2.117 . S
O495 C472 1.264 . S
C496 C489 1.403 . S
C496 C497 1.399 . S
C496 H502 0.929 . S
C497 C477 1.449 . S
C497 C496 1.399 . S
C497 H503 0.930 . S
H498 C478 0.931 . S
H499 C479 0.930 . S
H500 C487 0.931 . S
H501 C488 0.929 . S
H502 C496 0.929 . S
H503 C497 0.930 . S
Mn504 O509 2.095 . S
Mn504 O519 2.162 . S
Mn504 O520 2.297 . S
Mn504 O528 2.385 . S
Mn504 O529 2.209 . S
Mn504 O530 2.094 . S
Mn505 O510 2.121 . S
Mn505 N512 2.257 . S
Mn505 N521 2.282 . S
Mn505 O529 2.215 . S
Mn505 O531 2.117 . S
C506 O528 1.234 . S
C506 O529 1.283 . S
C507 O519 1.281 . S
C507 O520 1.236 . S
C508 O530 1.240 . S
C508 O531 1.264 . S
O509 Mn504 2.095 . S
O509 C518 1.250 . S
O510 Mn505 2.121 . S
O510 C518 1.258 . S
C511 N512 1.326 . S
C511 C515 1.460 . S
C511 H517 0.929 . S
N512 Mn505 2.257 . S
N512 C511 1.326 . S
N512 C516 1.362 . S
C513 C514 1.258 . S
C513 C516 1.431 . S
C513 C533 1.449 . S
C514 C513 1.258 . S
C514 C515 1.477 . S
C514 H534 0.931 . S
C515 C511 1.460 . S
C515 C514 1.477 . S
C515 H535 0.930 . S
C516 N512 1.362 . S
C516 C513 1.431 . S
C516 C526 1.476 . S
H517 C511 0.929 . S
C518 O509 1.250 . S
C518 O510 1.258 . S
O519 Mn504 2.162 . S
O519 C507 1.281 . S
O520 Mn504 2.297 . S
O520 C507 1.236 . S
N521 Mn505 2.282 . S
N521 C522 1.328 . S
N521 C526 1.318 . S
C522 N521 1.328 . S
C522 C523 1.457 . S
C522 H527 0.929 . S
C523 C522 1.457 . S
C523 C524 1.291 . S
C523 H536 0.931 . S
C524 C523 1.291 . S
C524 C525 1.373 . S
C524 H537 0.929 . S
C525 C524 1.373 . S
C525 C526 1.396 . S
C525 C532 1.403 . S
C526 C516 1.476 . S
C526 N521 1.318 . S
C526 C525 1.396 . S
H527 C522 0.929 . S
O528 Mn504 2.385 . S
O528 C506 1.234 . S
O529 Mn504 2.209 . S
O529 Mn505 2.215 . S
O529 C506 1.283 . S
O530 Mn504 2.094 . S
O530 C508 1.240 . S
O531 Mn505 2.117 . S
O531 C508 1.264 . S
C532 C525 1.403 . S
C532 C533 1.399 . S
C532 H538 0.929 . S
C533 C513 1.449 . S
C533 C532 1.399 . S
C533 H539 0.930 . S
H534 C514 0.931 . S
H535 C515 0.930 . S
H536 C523 0.931 . S
H537 C524 0.929 . S
H538 C532 0.929 . S
H539 C533 0.930 . S
Mn540 O545 2.095 1_554 S
Mn540 O555 2.162 . S
Mn540 O556 2.297 . S
Mn540 O564 2.385 . S
Mn540 O565 2.209 . S
Mn540 O566 2.094 . S
Mn541 O546 2.121 1_655 S
Mn541 N548 2.257 . S
Mn541 N557 2.282 1_556 S
Mn541 O565 2.215 1_656 S
Mn541 O567 2.117 1_656 S
C542 O564 1.234 . S
C542 O565 1.283 . S
C543 O555 1.281 . S
C543 O556 1.236 . S
C544 O566 1.240 . S
C544 O567 1.264 . S
O545 Mn540 2.095 1_556 S
O545 C554 1.250 . S
O546 Mn541 2.121 1_455 S
O546 C554 1.258 . S
C547 N548 1.326 . S
C547 C551 1.460 . S
C547 H553 0.929 . S
N548 Mn541 2.257 . S
N548 C547 1.326 . S
N548 C552 1.362 . S
C549 C550 1.258 . S
C549 C552 1.431 . S
C549 C569 1.449 . S
C550 C549 1.258 . S
C550 C551 1.477 . S
C550 H570 0.931 . S
C551 C547 1.460 . S
C551 C550 1.477 . S
C551 H571 0.930 . S
C552 N548 1.362 . S
C552 C549 1.431 . S
C552 C562 1.476 1_556 S
H553 C547 0.929 . S
C554 O545 1.250 . S
C554 O546 1.258 . S
O555 Mn540 2.162 . S
O555 C543 1.281 . S
O556 Mn540 2.297 . S
O556 C543 1.236 . S
N557 Mn541 2.282 1_554 S
N557 C558 1.328 . S
N557 C562 1.318 . S
C558 N557 1.328 . S
C558 C559 1.457 . S
C558 H563 0.929 . S
C559 C558 1.457 . S
C559 C560 1.291 . S
C559 H572 0.931 . S
C560 C559 1.291 . S
C560 C561 1.373 . S
C560 H573 0.929 . S
C561 C560 1.373 . S
C561 C562 1.396 . S
C561 C568 1.403 . S
C562 C552 1.476 1_554 S
C562 N557 1.318 . S
C562 C561 1.396 . S
H563 C558 0.929 . S
O564 Mn540 2.385 . S
O564 C542 1.234 . S
O565 Mn540 2.209 . S
O565 Mn541 2.215 1_454 S
O565 C542 1.283 . S
O566 Mn540 2.094 . S
O566 C544 1.240 . S
O567 Mn541 2.117 1_454 S
O567 C544 1.264 . S
C568 C561 1.403 . S
C568 C569 1.399 1_554 S
C568 H574 0.929 . S
C569 C549 1.449 . S
C569 C568 1.399 1_556 S
C569 H575 0.930 . S
H570 C550 0.931 . S
H571 C551 0.930 . S
H572 C559 0.931 . S
H573 C560 0.929 . S
H574 C568 0.929 . S
H575 C569 0.930 . S
Mn576 O581 2.095 . S
Mn576 O591 2.162 . S
Mn576 O592 2.297 . S
Mn576 O600 2.385 . S
Mn576 O601 2.209 . S
Mn576 O602 2.094 . S
Mn577 O582 2.121 . S
Mn577 N584 2.257 . S
Mn577 N593 2.282 . S
Mn577 O601 2.215 . S
Mn577 O603 2.117 . S
C578 O600 1.234 . S
C578 O601 1.283 . S
C579 O591 1.281 . S
C579 O592 1.236 . S
C580 O602 1.240 . S
C580 O603 1.264 . S
O581 Mn576 2.095 . S
O581 C590 1.250 . S
O582 Mn577 2.121 . S
O582 C590 1.258 . S
C583 N584 1.326 . S
C583 C587 1.460 . S
C583 H589 0.929 . S
N584 Mn577 2.257 . S
N584 C583 1.326 . S
N584 C588 1.362 . S
C585 C586 1.258 . S
C585 C588 1.431 . S
C585 C605 1.449 . S
C586 C585 1.258 . S
C586 C587 1.477 . S
C586 H606 0.931 . S
C587 C583 1.460 . S
C587 C586 1.477 . S
C587 H607 0.930 . S
C588 N584 1.362 . S
C588 C585 1.431 . S
C588 C598 1.476 . S
H589 C583 0.929 . S
C590 O581 1.250 . S
C590 O582 1.258 . S
O591 Mn576 2.162 . S
O591 C579 1.281 . S
O592 Mn576 2.297 . S
O592 C579 1.236 . S
N593 Mn577 2.282 . S
N593 C594 1.328 . S
N593 C598 1.318 . S
C594 N593 1.328 . S
C594 C595 1.457 . S
C594 H599 0.929 . S
C595 C594 1.457 . S
C595 C596 1.291 . S
C595 H608 0.931 . S
C596 C595 1.291 . S
C596 C597 1.373 . S
C596 H609 0.929 . S
C597 C596 1.373 . S
C597 C598 1.396 . S
C597 C604 1.403 . S
C598 C588 1.476 . S
C598 N593 1.318 . S
C598 C597 1.396 . S
H599 C594 0.929 . S
O600 Mn576 2.385 . S
O600 C578 1.234 . S
O601 Mn576 2.209 . S
O601 Mn577 2.215 . S
O601 C578 1.283 . S
O602 Mn576 2.094 . S
O602 C580 1.240 . S
O603 Mn577 2.117 . S
O603 C580 1.264 . S
C604 C597 1.403 . S
C604 C605 1.399 . S
C604 H610 0.929 . S
C605 C585 1.449 . S
C605 C604 1.399 . S
C605 H611 0.930 . S
H606 C586 0.931 . S
H607 C587 0.930 . S
H608 C595 0.931 . S
H609 C596 0.929 . S
H610 C604 0.929 . S
H611 C605 0.930 . S
Mn612 O617 2.095 1_554 S
Mn612 O627 2.162 . S
Mn612 O628 2.297 . S
Mn612 O636 2.385 . S
Mn612 O637 2.209 . S
Mn612 O638 2.094 . S
Mn613 O618 2.121 . S
Mn613 N620 2.257 . S
Mn613 N629 2.282 1_556 S
Mn613 O637 2.215 1_556 S
Mn613 O639 2.117 . S
C614 O636 1.234 . S
C614 O637 1.283 . S
C615 O627 1.281 . S
C615 O628 1.236 . S
C616 O638 1.240 . S
C616 O639 1.264 1_554 S
O617 Mn612 2.095 1_556 S
O617 C626 1.250 . S
O618 Mn613 2.121 . S
O618 C626 1.258 . S
C619 N620 1.326 . S
C619 C623 1.460 . S
C619 H625 0.929 . S
N620 Mn613 2.257 . S
N620 C619 1.326 . S
N620 C624 1.362 . S
C621 C622 1.258 . S
C621 C624 1.431 . S
C621 C641 1.449 . S
C622 C621 1.258 . S
C622 C623 1.477 . S
C622 H642 0.931 . S
C623 C619 1.460 . S
C623 C622 1.477 . S
C623 H643 0.930 . S
C624 N620 1.362 . S
C624 C621 1.431 . S
C624 C634 1.476 . S
H625 C619 0.929 . S
C626 O617 1.250 . S
C626 O618 1.258 . S
O627 Mn612 2.162 . S
O627 C615 1.281 . S
O628 Mn612 2.297 . S
O628 C615 1.236 . S
N629 Mn613 2.282 1_554 S
N629 C630 1.328 . S
N629 C634 1.318 1_554 S
C630 N629 1.328 . S
C630 C631 1.457 . S
C630 H635 0.929 . S
C631 C630 1.457 . S
C631 C632 1.291 . S
C631 H644 0.931 . S
C632 C631 1.291 . S
C632 C633 1.373 . S
C632 H645 0.929 . S
C633 C632 1.373 . S
C633 C634 1.396 1_554 S
C633 C640 1.403 . S
C634 C624 1.476 . S
C634 N629 1.318 1_556 S
C634 C633 1.396 1_556 S
H635 C630 0.929 . S
O636 Mn612 2.385 . S
O636 C614 1.234 . S
O637 Mn612 2.209 . S
O637 Mn613 2.215 1_554 S
O637 C614 1.283 . S
O638 Mn612 2.094 . S
O638 C616 1.240 . S
O639 Mn613 2.117 . S
O639 C616 1.264 1_556 S
C640 C633 1.403 . S
C640 C641 1.399 1_554 S
C640 H646 0.929 . S
C641 C621 1.449 . S
C641 C640 1.399 1_556 S
C641 H647 0.930 . S
H642 C622 0.931 . S
H643 C623 0.930 . S
H644 C631 0.931 . S
H645 C632 0.929 . S
H646 C640 0.929 . S
H647 C641 0.930 . S
Mn648 O653 2.095 . S
Mn648 O663 2.162 . S
Mn648 O664 2.297 . S
Mn648 O672 2.385 . S
Mn648 O673 2.209 . S
Mn648 O674 2.094 . S
Mn649 O654 2.121 . S
Mn649 N656 2.257 . S
Mn649 N665 2.282 . S
Mn649 O673 2.215 . S
Mn649 O675 2.117 . S
C650 O672 1.234 . S
C650 O673 1.283 . S
C651 O663 1.281 . S
C651 O664 1.236 . S
C652 O674 1.240 . S
C652 O675 1.264 . S
O653 Mn648 2.095 . S
O653 C662 1.250 . S
O654 Mn649 2.121 . S
O654 C662 1.258 . S
C655 N656 1.326 . S
C655 C659 1.460 . S
C655 H661 0.929 . S
N656 Mn649 2.257 . S
N656 C655 1.326 . S
N656 C660 1.362 . S
C657 C658 1.258 . S
C657 C660 1.431 . S
C657 C677 1.449 . S
C658 C657 1.258 . S
C658 C659 1.477 . S
C658 H678 0.931 . S
C659 C655 1.460 . S
C659 C658 1.477 . S
C659 H679 0.930 . S
C660 N656 1.362 . S
C660 C657 1.431 . S
C660 C670 1.476 . S
H661 C655 0.929 . S
C662 O653 1.250 . S
C662 O654 1.258 . S
O663 Mn648 2.162 . S
O663 C651 1.281 . S
O664 Mn648 2.297 . S
O664 C651 1.236 . S
N665 Mn649 2.282 . S
N665 C666 1.328 . S
N665 C670 1.318 . S
C666 N665 1.328 . S
C666 C667 1.457 . S
C666 H671 0.929 . S
C667 C666 1.457 . S
C667 C668 1.291 . S
C667 H680 0.931 . S
C668 C667 1.291 . S
C668 C669 1.373 . S
C668 H681 0.929 . S
C669 C668 1.373 . S
C669 C670 1.396 . S
C669 C676 1.403 . S
C670 C660 1.476 . S
C670 N665 1.318 . S
C670 C669 1.396 . S
H671 C666 0.929 . S
O672 Mn648 2.385 . S
O672 C650 1.234 . S
O673 Mn648 2.209 . S
O673 Mn649 2.215 . S
O673 C650 1.283 . S
O674 Mn648 2.094 . S
O674 C652 1.240 . S
O675 Mn649 2.117 . S
O675 C652 1.264 . S
C676 C669 1.403 . S
C676 C677 1.399 . S
C676 H682 0.929 . S
C677 C657 1.449 . S
C677 C676 1.399 . S
C677 H683 0.930 . S
H678 C658 0.931 . S
H679 C659 0.930 . S
H680 C667 0.931 . S
H681 C668 0.929 . S
H682 C676 0.929 . S
H683 C677 0.930 . S
Mn684 O689 2.095 . S
Mn684 O699 2.162 . S
Mn684 O700 2.297 . S
Mn684 O708 2.385 . S
Mn684 O709 2.209 . S
Mn684 O710 2.094 . S
Mn685 O690 2.121 1_655 S
Mn685 N692 2.257 . S
Mn685 N701 2.282 . S
Mn685 O709 2.215 1_655 S
Mn685 O711 2.117 1_655 S
C686 O708 1.234 1_655 S
C686 O709 1.283 1_655 S
C687 O699 1.281 . S
C687 O700 1.236 . S
C688 O710 1.240 . S
C688 O711 1.264 . S
O689 Mn684 2.095 . S
O689 C698 1.250 . S
O690 Mn685 2.121 1_455 S
O690 C698 1.258 . S
C691 N692 1.326 . S
C691 C695 1.460 . S
C691 H697 0.929 . S
N692 Mn685 2.257 . S
N692 C691 1.326 . S
N692 C696 1.362 . S
C693 C694 1.258 . S
C693 C696 1.431 . S
C693 C713 1.449 . S
C694 C693 1.258 . S
C694 C695 1.477 . S
C694 H714 0.931 . S
C695 C691 1.460 . S
C695 C694 1.477 . S
C695 H715 0.930 . S
C696 N692 1.362 . S
C696 C693 1.431 . S
C696 C706 1.476 . S
H697 C691 0.929 . S
C698 O689 1.250 . S
C698 O690 1.258 . S
O699 Mn684 2.162 . S
O699 C687 1.281 . S
O700 Mn684 2.297 . S
O700 C687 1.236 . S
N701 Mn685 2.282 . S
N701 C702 1.328 . S
N701 C706 1.318 . S
C702 N701 1.328 . S
C702 C703 1.457 . S
C702 H707 0.929 . S
C703 C702 1.457 . S
C703 C704 1.291 . S
C703 H716 0.931 . S
C704 C703 1.291 . S
C704 C705 1.373 . S
C704 H717 0.929 . S
C705 C704 1.373 . S
C705 C706 1.396 . S
C705 C712 1.403 . S
C706 C696 1.476 . S
C706 N701 1.318 . S
C706 C705 1.396 . S
H707 C702 0.929 . S
O708 Mn684 2.385 . S
O708 C686 1.234 1_455 S
O709 Mn684 2.209 . S
O709 Mn685 2.215 1_455 S
O709 C686 1.283 1_455 S
O710 Mn684 2.094 . S
O710 C688 1.240 . S
O711 Mn685 2.117 1_455 S
O711 C688 1.264 . S
C712 C705 1.403 . S
C712 C713 1.399 . S
C712 H718 0.929 . S
C713 C693 1.449 . S
C713 C712 1.399 . S
C713 H719 0.930 . S
H714 C694 0.931 . S
H715 C695 0.930 . S
H716 C703 0.931 . S
H717 C704 0.929 . S
H718 C712 0.929 . S
H719 C713 0.930 . S
Mn720 O725 2.095 . S
Mn720 O735 2.162 . S
Mn720 O736 2.297 . S
Mn720 O744 2.385 . S
Mn720 O745 2.209 . S
Mn720 O746 2.094 . S
Mn721 O726 2.121 . S
Mn721 N728 2.257 . S
Mn721 N737 2.282 . S
Mn721 O745 2.215 . S
Mn721 O747 2.117 . S
C722 O744 1.234 . S
C722 O745 1.283 . S
C723 O735 1.281 . S
C723 O736 1.236 . S
C724 O746 1.240 . S
C724 O747 1.264 . S
O725 Mn720 2.095 . S
O725 C734 1.250 . S
O726 Mn721 2.121 . S
O726 C734 1.258 . S
C727 N728 1.326 . S
C727 C731 1.460 . S
C727 H733 0.929 . S
N728 Mn721 2.257 . S
N728 C727 1.326 . S
N728 C732 1.362 . S
C729 C730 1.258 . S
C729 C732 1.431 . S
C729 C749 1.449 . S
C730 C729 1.258 . S
C730 C731 1.477 . S
C730 H750 0.931 . S
C731 C727 1.460 . S
C731 C730 1.477 . S
C731 H751 0.930 . S
C732 N728 1.362 . S
C732 C729 1.431 . S
C732 C742 1.476 . S
H733 C727 0.929 . S
C734 O725 1.250 . S
C734 O726 1.258 . S
O735 Mn720 2.162 . S
O735 C723 1.281 . S
O736 Mn720 2.297 . S
O736 C723 1.236 . S
N737 Mn721 2.282 . S
N737 C738 1.328 . S
N737 C742 1.318 . S
C738 N737 1.328 . S
C738 C739 1.457 . S
C738 H743 0.929 . S
C739 C738 1.457 . S
C739 C740 1.291 . S
C739 H752 0.931 . S
C740 C739 1.291 . S
C740 C741 1.373 . S
C740 H753 0.929 . S
C741 C740 1.373 . S
C741 C742 1.396 . S
C741 C748 1.403 . S
C742 C732 1.476 . S
C742 N737 1.318 . S
C742 C741 1.396 . S
H743 C738 0.929 . S
O744 Mn720 2.385 . S
O744 C722 1.234 . S
O745 Mn720 2.209 . S
O745 Mn721 2.215 . S
O745 C722 1.283 . S
O746 Mn720 2.094 . S
O746 C724 1.240 . S
O747 Mn721 2.117 . S
O747 C724 1.264 . S
C748 C741 1.403 . S
C748 C749 1.399 . S
C748 H754 0.929 . S
C749 C729 1.449 . S
C749 C748 1.399 . S
C749 H755 0.930 . S
H750 C730 0.931 . S
H751 C731 0.930 . S
H752 C739 0.931 . S
H753 C740 0.929 . S
H754 C748 0.929 . S
H755 C749 0.930 . S
Mn756 O761 2.095 1_556 S
Mn756 O771 2.162 . S
Mn756 O772 2.297 . S
Mn756 O780 2.385 . S
Mn756 O781 2.209 . S
Mn756 O782 2.094 . S
Mn757 O762 2.121 1_655 S
Mn757 N764 2.257 . S
Mn757 N773 2.282 1_554 S
Mn757 O781 2.215 1_654 S
Mn757 O783 2.117 1_655 S
C758 O780 1.234 1_655 S
C758 O781 1.283 1_655 S
C759 O771 1.281 . S
C759 O772 1.236 . S
C760 O782 1.240 . S
C760 O783 1.264 1_556 S
O761 Mn756 2.095 1_554 S
O761 C770 1.250 . S
O762 Mn757 2.121 1_455 S
O762 C770 1.258 . S
C763 N764 1.326 . S
C763 C767 1.460 . S
C763 H769 0.929 . S
N764 Mn757 2.257 . S
N764 C763 1.326 . S
N764 C768 1.362 . S
C765 C766 1.258 . S
C765 C768 1.431 . S
C765 C785 1.449 . S
C766 C765 1.258 . S
C766 C767 1.477 . S
C766 H786 0.931 . S
C767 C763 1.460 . S
C767 C766 1.477 . S
C767 H787 0.930 . S
C768 N764 1.362 . S
C768 C765 1.431 . S
C768 C778 1.476 . S
H769 C763 0.929 . S
C770 O761 1.250 . S
C770 O762 1.258 . S
O771 Mn756 2.162 . S
O771 C759 1.281 . S
O772 Mn756 2.297 . S
O772 C759 1.236 . S
N773 Mn757 2.282 1_556 S
N773 C774 1.328 . S
N773 C778 1.318 1_556 S
C774 N773 1.328 . S
C774 C775 1.457 . S
C774 H779 0.929 . S
C775 C774 1.457 . S
C775 C776 1.291 . S
C775 H788 0.931 . S
C776 C775 1.291 . S
C776 C777 1.373 . S
C776 H789 0.929 . S
C777 C776 1.373 . S
C777 C778 1.396 1_556 S
C777 C784 1.403 . S
C778 C768 1.476 . S
C778 N773 1.318 1_554 S
C778 C777 1.396 1_554 S
H779 C774 0.929 . S
O780 Mn756 2.385 . S
O780 C758 1.234 1_455 S
O781 Mn756 2.209 . S
O781 Mn757 2.215 1_456 S
O781 C758 1.283 1_455 S
O782 Mn756 2.094 . S
O782 C760 1.240 . S
O783 Mn757 2.117 1_455 S
O783 C760 1.264 1_554 S
C784 C777 1.403 . S
C784 C785 1.399 1_556 S
C784 H790 0.929 . S
C785 C765 1.449 . S
C785 C784 1.399 1_554 S
C785 H791 0.930 . S
H786 C766 0.931 . S
H787 C767 0.930 . S
H788 C775 0.931 . S
H789 C776 0.929 . S
H790 C784 0.929 . S
H791 C785 0.930 . S
Mn792 O797 2.095 . S
Mn792 O807 2.162 . S
Mn792 O808 2.297 . S
Mn792 O816 2.385 . S
Mn792 O817 2.209 . S
Mn792 O818 2.094 . S
Mn793 O798 2.121 . S
Mn793 N800 2.257 . S
Mn793 N809 2.282 . S
Mn793 O817 2.215 . S
Mn793 O819 2.117 . S
C794 O816 1.234 . S
C794 O817 1.283 . S
C795 O807 1.281 . S
C795 O808 1.236 . S
C796 O818 1.240 . S
C796 O819 1.264 . S
O797 Mn792 2.095 . S
O797 C806 1.250 . S
O798 Mn793 2.121 . S
O798 C806 1.258 . S
C799 N800 1.326 . S
C799 C803 1.460 . S
C799 H805 0.929 . S
N800 Mn793 2.257 . S
N800 C799 1.326 . S
N800 C804 1.362 . S
C801 C802 1.258 . S
C801 C804 1.431 . S
C801 C821 1.449 . S
C802 C801 1.258 . S
C802 C803 1.477 . S
C802 H822 0.931 . S
C803 C799 1.460 . S
C803 C802 1.477 . S
C803 H823 0.930 . S
C804 N800 1.362 . S
C804 C801 1.431 . S
C804 C814 1.476 . S
H805 C799 0.929 . S
C806 O797 1.250 . S
C806 O798 1.258 . S
O807 Mn792 2.162 . S
O807 C795 1.281 . S
O808 Mn792 2.297 . S
O808 C795 1.236 . S
N809 Mn793 2.282 . S
N809 C810 1.328 . S
N809 C814 1.318 . S
C810 N809 1.328 . S
C810 C811 1.457 . S
C810 H815 0.929 . S
C811 C810 1.457 . S
C811 C812 1.291 . S
C811 H824 0.931 . S
C812 C811 1.291 . S
C812 C813 1.373 . S
C812 H825 0.929 . S
C813 C812 1.373 . S
C813 C814 1.396 . S
C813 C820 1.403 . S
C814 C804 1.476 . S
C814 N809 1.318 . S
C814 C813 1.396 . S
H815 C810 0.929 . S
O816 Mn792 2.385 . S
O816 C794 1.234 . S
O817 Mn792 2.209 . S
O817 Mn793 2.215 . S
O817 C794 1.283 . S
O818 Mn792 2.094 . S
O818 C796 1.240 . S
O819 Mn793 2.117 . S
O819 C796 1.264 . S
C820 C813 1.403 . S
C820 C821 1.399 . S
C820 H826 0.929 . S
C821 C801 1.449 . S
C821 C820 1.399 . S
C821 H827 0.930 . S
H822 C802 0.931 . S
H823 C803 0.930 . S
H824 C811 0.931 . S
H825 C812 0.929 . S
H826 C820 0.929 . S
H827 C821 0.930 . S
Mn828 O833 2.095 . S
Mn828 O843 2.162 . S
Mn828 O844 2.297 . S
Mn828 O852 2.385 . S
Mn828 O853 2.209 . S
Mn828 O854 2.094 . S
Mn829 O834 2.121 . S
Mn829 N836 2.257 . S
Mn829 N845 2.282 . S
Mn829 O853 2.215 . S
Mn829 O855 2.117 . S
C830 O852 1.234 . S
C830 O853 1.283 . S
C831 O843 1.281 . S
C831 O844 1.236 . S
C832 O854 1.240 . S
C832 O855 1.264 . S
O833 Mn828 2.095 . S
O833 C842 1.250 . S
O834 Mn829 2.121 . S
O834 C842 1.258 . S
C835 N836 1.326 . S
C835 C839 1.460 . S
C835 H841 0.929 . S
N836 Mn829 2.257 . S
N836 C835 1.326 . S
N836 C840 1.362 . S
C837 C838 1.258 . S
C837 C840 1.431 . S
C837 C857 1.449 . S
C838 C837 1.258 . S
C838 C839 1.477 . S
C838 H858 0.931 . S
C839 C835 1.460 . S
C839 C838 1.477 . S
C839 H859 0.930 . S
C840 N836 1.362 . S
C840 C837 1.431 . S
C840 C850 1.476 . S
H841 C835 0.929 . S
C842 O833 1.250 . S
C842 O834 1.258 . S
O843 Mn828 2.162 . S
O843 C831 1.281 . S
O844 Mn828 2.297 . S
O844 C831 1.236 . S
N845 Mn829 2.282 . S
N845 C846 1.328 . S
N845 C850 1.318 . S
C846 N845 1.328 . S
C846 C847 1.457 . S
C846 H851 0.929 . S
C847 C846 1.457 . S
C847 C848 1.291 . S
C847 H860 0.931 . S
C848 C847 1.291 . S
C848 C849 1.373 . S
C848 H861 0.929 . S
C849 C848 1.373 . S
C849 C850 1.396 . S
C849 C856 1.403 . S
C850 C840 1.476 . S
C850 N845 1.318 . S
C850 C849 1.396 . S
H851 C846 0.929 . S
O852 Mn828 2.385 . S
O852 C830 1.234 . S
O853 Mn828 2.209 . S
O853 Mn829 2.215 . S
O853 C830 1.283 . S
O854 Mn828 2.094 . S
O854 C832 1.240 . S
O855 Mn829 2.117 . S
O855 C832 1.264 . S
C856 C849 1.403 . S
C856 C857 1.399 . S
C856 H862 0.929 . S
C857 C837 1.449 . S
C857 C856 1.399 . S
C857 H863 0.930 . S
H858 C838 0.931 . S
H859 C839 0.930 . S
H860 C847 0.931 . S
H861 C848 0.929 . S
H862 C856 0.929 . S
H863 C857 0.930 . S
Mn864 O869 2.095 . S
Mn864 O879 2.162 . S
Mn864 O880 2.297 . S
Mn864 O888 2.385 . S
Mn864 O889 2.209 . S
Mn864 O890 2.094 . S
Mn865 O870 2.121 . S
Mn865 N872 2.257 . S
Mn865 N881 2.282 . S
Mn865 O889 2.215 . S
Mn865 O891 2.117 . S
C866 O888 1.234 . S
C866 O889 1.283 . S
C867 O879 1.281 . S
C867 O880 1.236 . S
C868 O890 1.240 . S
C868 O891 1.264 . S
O869 Mn864 2.095 . S
O869 C878 1.250 . S
O870 Mn865 2.121 . S
O870 C878 1.258 . S
C871 N872 1.326 . S
C871 C875 1.460 . S
C871 H877 0.929 . S
N872 Mn865 2.257 . S
N872 C871 1.326 . S
N872 C876 1.362 . S
C873 C874 1.258 . S
C873 C876 1.431 . S
C873 C893 1.449 . S
C874 C873 1.258 . S
C874 C875 1.477 . S
C874 H894 0.931 . S
C875 C871 1.460 . S
C875 C874 1.477 . S
C875 H895 0.930 . S
C876 N872 1.362 . S
C876 C873 1.431 . S
C876 C886 1.476 . S
H877 C871 0.929 . S
C878 O869 1.250 . S
C878 O870 1.258 . S
O879 Mn864 2.162 . S
O879 C867 1.281 . S
O880 Mn864 2.297 . S
O880 C867 1.236 . S
N881 Mn865 2.282 . S
N881 C882 1.328 . S
N881 C886 1.318 . S
C882 N881 1.328 . S
C882 C883 1.457 . S
C882 H887 0.929 . S
C883 C882 1.457 . S
C883 C884 1.291 . S
C883 H896 0.931 . S
C884 C883 1.291 . S
C884 C885 1.373 . S
C884 H897 0.929 . S
C885 C884 1.373 . S
C885 C886 1.396 . S
C885 C892 1.403 . S
C886 C876 1.476 . S
C886 N881 1.318 . S
C886 C885 1.396 . S
H887 C882 0.929 . S
O888 Mn864 2.385 . S
O888 C866 1.234 . S
O889 Mn864 2.209 . S
O889 Mn865 2.215 . S
O889 C866 1.283 . S
O890 Mn864 2.094 . S
O890 C868 1.240 . S
O891 Mn865 2.117 . S
O891 C868 1.264 . S
C892 C885 1.403 . S
C892 C893 1.399 . S
C892 H898 0.929 . S
C893 C873 1.449 . S
C893 C892 1.399 . S
C893 H899 0.930 . S
H894 C874 0.931 . S
H895 C875 0.930 . S
H896 C883 0.931 . S
H897 C884 0.929 . S
H898 C892 0.929 . S
H899 C893 0.930 . S
Mn900 O905 2.095 1_556 S
Mn900 O915 2.162 . S
Mn900 O916 2.297 . S
Mn900 O924 2.385 . S
Mn900 O925 2.209 . S
Mn900 O926 2.094 . S
Mn901 O906 2.121 . S
Mn901 N908 2.257 . S
Mn901 N917 2.282 1_554 S
Mn901 O925 2.215 1_554 S
Mn901 O927 2.117 1_554 S
C902 O924 1.234 . S
C902 O925 1.283 . S
C903 O915 1.281 . S
C903 O916 1.236 . S
C904 O926 1.240 . S
C904 O927 1.264 . S
O905 Mn900 2.095 1_554 S
O905 C914 1.250 . S
O906 Mn901 2.121 . S
O906 C914 1.258 . S
C907 N908 1.326 . S
C907 C911 1.460 . S
C907 H913 0.929 . S
N908 Mn901 2.257 . S
N908 C907 1.326 . S
N908 C912 1.362 . S
C909 C910 1.258 . S
C909 C912 1.431 . S
C909 C929 1.449 . S
C910 C909 1.258 . S
C910 C911 1.477 . S
C910 H930 0.931 . S
C911 C907 1.460 . S
C911 C910 1.477 . S
C911 H931 0.930 . S
C912 N908 1.362 . S
C912 C909 1.431 . S
C912 C922 1.476 1_554 S
H913 C907 0.929 . S
C914 O905 1.250 . S
C914 O906 1.258 . S
O915 Mn900 2.162 . S
O915 C903 1.281 . S
O916 Mn900 2.297 . S
O916 C903 1.236 . S
N917 Mn901 2.282 1_556 S
N917 C918 1.328 . S
N917 C922 1.318 . S
C918 N917 1.328 . S
C918 C919 1.457 . S
C918 H923 0.929 . S
C919 C918 1.457 . S
C919 C920 1.291 . S
C919 H932 0.931 . S
C920 C919 1.291 . S
C920 C921 1.373 . S
C920 H933 0.929 . S
C921 C920 1.373 . S
C921 C922 1.396 . S
C921 C928 1.403 . S
C922 C912 1.476 1_556 S
C922 N917 1.318 . S
C922 C921 1.396 . S
H923 C918 0.929 . S
O924 Mn900 2.385 . S
O924 C902 1.234 . S
O925 Mn900 2.209 . S
O925 Mn901 2.215 1_556 S
O925 C902 1.283 . S
O926 Mn900 2.094 . S
O926 C904 1.240 . S
O927 Mn901 2.117 1_556 S
O927 C904 1.264 . S
C928 C921 1.403 . S
C928 C929 1.399 1_556 S
C928 H934 0.929 . S
C929 C909 1.449 . S
C929 C928 1.399 1_554 S
C929 H935 0.930 . S
H930 C910 0.931 . S
H931 C911 0.930 . S
H932 C919 0.931 . S
H933 C920 0.929 . S
H934 C928 0.929 . S
H935 C929 0.930 . S
Mn936 O941 2.095 . S
Mn936 O951 2.162 . S
Mn936 O952 2.297 . S
Mn936 O960 2.385 . S
Mn936 O961 2.209 . S
Mn936 O962 2.094 . S
Mn937 O942 2.121 . S
Mn937 N944 2.257 . S
Mn937 N953 2.282 . S
Mn937 O961 2.215 . S
Mn937 O963 2.117 . S
C938 O960 1.234 . S
C938 O961 1.283 . S
C939 O951 1.281 . S
C939 O952 1.236 . S
C940 O962 1.240 . S
C940 O963 1.264 . S
O941 Mn936 2.095 . S
O941 C950 1.250 . S
O942 Mn937 2.121 . S
O942 C950 1.258 . S
C943 N944 1.326 . S
C943 C947 1.460 . S
C943 H949 0.929 . S
N944 Mn937 2.257 . S
N944 C943 1.326 . S
N944 C948 1.362 . S
C945 C946 1.258 . S
C945 C948 1.431 . S
C945 C965 1.449 . S
C946 C945 1.258 . S
C946 C947 1.477 . S
C946 H966 0.931 . S
C947 C943 1.460 . S
C947 C946 1.477 . S
C947 H967 0.930 . S
C948 N944 1.362 . S
C948 C945 1.431 . S
C948 C958 1.476 . S
H949 C943 0.929 . S
C950 O941 1.250 . S
C950 O942 1.258 . S
O951 Mn936 2.162 . S
O951 C939 1.281 . S
O952 Mn936 2.297 . S
O952 C939 1.236 . S
N953 Mn937 2.282 . S
N953 C954 1.328 . S
N953 C958 1.318 . S
C954 N953 1.328 . S
C954 C955 1.457 . S
C954 H959 0.929 . S
C955 C954 1.457 . S
C955 C956 1.291 . S
C955 H968 0.931 . S
C956 C955 1.291 . S
C956 C957 1.373 . S
C956 H969 0.929 . S
C957 C956 1.373 . S
C957 C958 1.396 . S
C957 C964 1.403 . S
C958 C948 1.476 . S
C958 N953 1.318 . S
C958 C957 1.396 . S
H959 C954 0.929 . S
O960 Mn936 2.385 . S
O960 C938 1.234 . S
O961 Mn936 2.209 . S
O961 Mn937 2.215 . S
O961 C938 1.283 . S
O962 Mn936 2.094 . S
O962 C940 1.240 . S
O963 Mn937 2.117 . S
O963 C940 1.264 . S
C964 C957 1.403 . S
C964 C965 1.399 . S
C964 H970 0.929 . S
C965 C945 1.449 . S
C965 C964 1.399 . S
C965 H971 0.930 . S
H966 C946 0.931 . S
H967 C947 0.930 . S
H968 C955 0.931 . S
H969 C956 0.929 . S
H970 C964 0.929 . S
H971 C965 0.930 . S
Mn972 O977 2.095 . S
Mn972 O987 2.162 . S
Mn972 O988 2.297 . S
Mn972 O996 2.385 . S
Mn972 O997 2.209 . S
Mn972 O998 2.094 . S
Mn973 O978 2.121 1_455 S
Mn973 N980 2.257 . S
Mn973 N989 2.282 . S
Mn973 O997 2.215 1_455 S
Mn973 O999 2.117 1_455 S
C974 O996 1.234 . S
C974 O997 1.283 . S
C975 O987 1.281 . S
C975 O988 1.236 . S
C976 O998 1.240 . S
C976 O999 1.264 . S
O977 Mn972 2.095 . S
O977 C986 1.250 . S
O978 Mn973 2.121 1_655 S
O978 C986 1.258 . S
C979 N980 1.326 . S
C979 C983 1.460 . S
C979 H985 0.929 . S
N980 Mn973 2.257 . S
N980 C979 1.326 . S
N980 C984 1.362 . S
C981 C982 1.258 . S
C981 C984 1.431 . S
C981 C1001 1.449 . S
C982 C981 1.258 . S
C982 C983 1.477 . S
C982 H1002 0.931 . S
C983 C979 1.460 . S
C983 C982 1.477 . S
C983 H1003 0.930 . S
C984 N980 1.362 . S
C984 C981 1.431 . S
C984 C994 1.476 . S
H985 C979 0.929 . S
C986 O977 1.250 . S
C986 O978 1.258 . S
O987 Mn972 2.162 . S
O987 C975 1.281 . S
O988 Mn972 2.297 . S
O988 C975 1.236 . S
N989 Mn973 2.282 . S
N989 C990 1.328 . S
N989 C994 1.318 . S
C990 N989 1.328 . S
C990 C991 1.457 . S
C990 H995 0.929 . S
C991 C990 1.457 . S
C991 C992 1.291 . S
C991 H1004 0.931 . S
C992 C991 1.291 . S
C992 C993 1.373 . S
C992 H1005 0.929 . S
C993 C992 1.373 . S
C993 C994 1.396 . S
C993 C1000 1.403 . S
C994 C984 1.476 . S
C994 N989 1.318 . S
C994 C993 1.396 . S
H995 C990 0.929 . S
O996 Mn972 2.385 . S
O996 C974 1.234 . S
O997 Mn972 2.209 . S
O997 Mn973 2.215 1_655 S
O997 C974 1.283 . S
O998 Mn972 2.094 . S
O998 C976 1.240 . S
O999 Mn973 2.117 1_655 S
O999 C976 1.264 . S
C1000 C993 1.403 . S
C1000 C1001 1.399 . S
C1000 H1006 0.929 . S
C1001 C981 1.449 . S
C1001 C1000 1.399 . S
C1001 H1007 0.930 . S
H1002 C982 0.931 . S
H1003 C983 0.930 . S
H1004 C991 0.931 . S
H1005 C992 0.929 . S
H1006 C1000 0.929 . S
H1007 C1001 0.930 . S
Mn1008 O1013 2.095 . S
Mn1008 O1023 2.162 . S
Mn1008 O1024 2.297 . S
Mn1008 O1032 2.385 . S
Mn1008 O1033 2.209 . S
Mn1008 O1034 2.094 . S
Mn1009 O1014 2.121 . S
Mn1009 N1016 2.257 . S
Mn1009 N1025 2.282 . S
Mn1009 O1033 2.215 . S
Mn1009 O1035 2.117 . S
C1010 O1032 1.234 . S
C1010 O1033 1.283 . S
C1011 O1023 1.281 . S
C1011 O1024 1.236 . S
C1012 O1034 1.240 . S
C1012 O1035 1.264 . S
O1013 Mn1008 2.095 . S
O1013 C1022 1.250 . S
O1014 Mn1009 2.121 . S
O1014 C1022 1.258 . S
C1015 N1016 1.326 . S
C1015 C1019 1.460 . S
C1015 H1021 0.929 . S
N1016 Mn1009 2.257 . S
N1016 C1015 1.326 . S
N1016 C1020 1.362 . S
C1017 C1018 1.258 . S
C1017 C1020 1.431 . S
C1017 C1037 1.449 . S
C1018 C1017 1.258 . S
C1018 C1019 1.477 . S
C1018 H1038 0.931 . S
C1019 C1015 1.460 . S
C1019 C1018 1.477 . S
C1019 H1039 0.930 . S
C1020 N1016 1.362 . S
C1020 C1017 1.431 . S
C1020 C1030 1.476 . S
H1021 C1015 0.929 . S
C1022 O1013 1.250 . S
C1022 O1014 1.258 . S
O1023 Mn1008 2.162 . S
O1023 C1011 1.281 . S
O1024 Mn1008 2.297 . S
O1024 C1011 1.236 . S
N1025 Mn1009 2.282 . S
N1025 C1026 1.328 . S
N1025 C1030 1.318 . S
C1026 N1025 1.328 . S
C1026 C1027 1.457 . S
C1026 H1031 0.929 . S
C1027 C1026 1.457 . S
C1027 C1028 1.291 . S
C1027 H1040 0.931 . S
C1028 C1027 1.291 . S
C1028 C1029 1.373 . S
C1028 H1041 0.929 . S
C1029 C1028 1.373 . S
C1029 C1030 1.396 . S
C1029 C1036 1.403 . S
C1030 C1020 1.476 . S
C1030 N1025 1.318 . S
C1030 C1029 1.396 . S
H1031 C1026 0.929 . S
O1032 Mn1008 2.385 . S
O1032 C1010 1.234 . S
O1033 Mn1008 2.209 . S
O1033 Mn1009 2.215 . S
O1033 C1010 1.283 . S
O1034 Mn1008 2.094 . S
O1034 C1012 1.240 . S
O1035 Mn1009 2.117 . S
O1035 C1012 1.264 . S
C1036 C1029 1.403 . S
C1036 C1037 1.399 . S
C1036 H1042 0.929 . S
C1037 C1017 1.449 . S
C1037 C1036 1.399 . S
C1037 H1043 0.930 . S
H1038 C1018 0.931 . S
H1039 C1019 0.930 . S
H1040 C1027 0.931 . S
H1041 C1028 0.929 . S
H1042 C1036 0.929 . S
H1043 C1037 0.930 . S
Mn1044 O1049 2.095 1_554 S
Mn1044 O1059 2.162 . S
Mn1044 O1060 2.297 . S
Mn1044 O1068 2.385 . S
Mn1044 O1069 2.209 . S
Mn1044 O1070 2.094 . S
Mn1045 O1050 2.121 1_455 S
Mn1045 N1052 2.257 . S
Mn1045 N1061 2.282 1_556 S
Mn1045 O1069 2.215 1_456 S
Mn1045 O1071 2.117 1_456 S
C1046 O1068 1.234 . S
C1046 O1069 1.283 . S
C1047 O1059 1.281 . S
C1047 O1060 1.236 . S
C1048 O1070 1.240 . S
C1048 O1071 1.264 . S
O1049 Mn1044 2.095 1_556 S
O1049 C1058 1.250 . S
O1050 Mn1045 2.121 1_655 S
O1050 C1058 1.258 . S
C1051 N1052 1.326 . S
C1051 C1055 1.460 . S
C1051 H1057 0.929 . S
N1052 Mn1045 2.257 . S
N1052 C1051 1.326 . S
N1052 C1056 1.362 . S
C1053 C1054 1.258 . S
C1053 C1056 1.431 . S
C1053 C1073 1.449 . S
C1054 C1053 1.258 . S
C1054 C1055 1.477 . S
C1054 H1074 0.931 . S
C1055 C1051 1.460 . S
C1055 C1054 1.477 . S
C1055 H1075 0.930 . S
C1056 N1052 1.362 . S
C1056 C1053 1.431 . S
C1056 C1066 1.476 1_556 S
H1057 C1051 0.929 . S
C1058 O1049 1.250 . S
C1058 O1050 1.258 . S
O1059 Mn1044 2.162 . S
O1059 C1047 1.281 . S
O1060 Mn1044 2.297 . S
O1060 C1047 1.236 . S
N1061 Mn1045 2.282 1_554 S
N1061 C1062 1.328 . S
N1061 C1066 1.318 . S
C1062 N1061 1.328 . S
C1062 C1063 1.457 . S
C1062 H1067 0.929 . S
C1063 C1062 1.457 . S
C1063 C1064 1.291 . S
C1063 H1076 0.931 . S
C1064 C1063 1.291 . S
C1064 C1065 1.373 . S
C1064 H1077 0.929 . S
C1065 C1064 1.373 . S
C1065 C1066 1.396 . S
C1065 C1072 1.403 . S
C1066 C1056 1.476 1_554 S
C1066 N1061 1.318 . S
C1066 C1065 1.396 . S
H1067 C1062 0.929 . S
O1068 Mn1044 2.385 . S
O1068 C1046 1.234 . S
O1069 Mn1044 2.209 . S
O1069 Mn1045 2.215 1_654 S
O1069 C1046 1.283 . S
O1070 Mn1044 2.094 . S
O1070 C1048 1.240 . S
O1071 Mn1045 2.117 1_654 S
O1071 C1048 1.264 . S
C1072 C1065 1.403 . S
C1072 C1073 1.399 1_554 S
C1072 H1078 0.929 . S
C1073 C1053 1.449 . S
C1073 C1072 1.399 1_556 S
C1073 H1079 0.930 . S
H1074 C1054 0.931 . S
H1075 C1055 0.930 . S
H1076 C1063 0.931 . S
H1077 C1064 0.929 . S
H1078 C1072 0.929 . S
H1079 C1073 0.930 . S
Mn1080 O1085 2.095 . S
Mn1080 O1095 2.162 . S
Mn1080 O1096 2.297 . S
Mn1080 O1104 2.385 . S
Mn1080 O1105 2.209 . S
Mn1080 O1106 2.094 . S
Mn1081 O1086 2.121 . S
Mn1081 N1088 2.257 . S
Mn1081 N1097 2.282 . S
Mn1081 O1105 2.215 . S
Mn1081 O1107 2.117 . S
C1082 O1104 1.234 . S
C1082 O1105 1.283 . S
C1083 O1095 1.281 . S
C1083 O1096 1.236 . S
C1084 O1106 1.240 . S
C1084 O1107 1.264 . S
O1085 Mn1080 2.095 . S
O1085 C1094 1.250 . S
O1086 Mn1081 2.121 . S
O1086 C1094 1.258 . S
C1087 N1088 1.326 . S
C1087 C1091 1.460 . S
C1087 H1093 0.929 . S
N1088 Mn1081 2.257 . S
N1088 C1087 1.326 . S
N1088 C1092 1.362 . S
C1089 C1090 1.258 . S
C1089 C1092 1.431 . S
C1089 C1109 1.449 . S
C1090 C1089 1.258 . S
C1090 C1091 1.477 . S
C1090 H1110 0.931 . S
C1091 C1087 1.460 . S
C1091 C1090 1.477 . S
C1091 H1111 0.930 . S
C1092 N1088 1.362 . S
C1092 C1089 1.431 . S
C1092 C1102 1.476 . S
H1093 C1087 0.929 . S
C1094 O1085 1.250 . S
C1094 O1086 1.258 . S
O1095 Mn1080 2.162 . S
O1095 C1083 1.281 . S
O1096 Mn1080 2.297 . S
O1096 C1083 1.236 . S
N1097 Mn1081 2.282 . S
N1097 C1098 1.328 . S
N1097 C1102 1.318 . S
C1098 N1097 1.328 . S
C1098 C1099 1.457 . S
C1098 H1103 0.929 . S
C1099 C1098 1.457 . S
C1099 C1100 1.291 . S
C1099 H1112 0.931 . S
C1100 C1099 1.291 . S
C1100 C1101 1.373 . S
C1100 H1113 0.929 . S
C1101 C1100 1.373 . S
C1101 C1102 1.396 . S
C1101 C1108 1.403 . S
C1102 C1092 1.476 . S
C1102 N1097 1.318 . S
C1102 C1101 1.396 . S
H1103 C1098 0.929 . S
O1104 Mn1080 2.385 . S
O1104 C1082 1.234 . S
O1105 Mn1080 2.209 . S
O1105 Mn1081 2.215 . S
O1105 C1082 1.283 . S
O1106 Mn1080 2.094 . S
O1106 C1084 1.240 . S
O1107 Mn1081 2.117 . S
O1107 C1084 1.264 . S
C1108 C1101 1.403 . S
C1108 C1109 1.399 . S
C1108 H1114 0.929 . S
C1109 C1089 1.449 . S
C1109 C1108 1.399 . S
C1109 H1115 0.930 . S
H1110 C1090 0.931 . S
H1111 C1091 0.930 . S
H1112 C1099 0.931 . S
H1113 C1100 0.929 . S
H1114 C1108 0.929 . S
H1115 C1109 0.930 . S
Mn1116 O1121 2.095 . S
Mn1116 O1131 2.162 . S
Mn1116 O1132 2.297 . S
Mn1116 O1140 2.385 . S
Mn1116 O1141 2.209 . S
Mn1116 O1142 2.094 . S
Mn1117 O1122 2.121 . S
Mn1117 N1124 2.257 . S
Mn1117 N1133 2.282 . S
Mn1117 O1141 2.215 . S
Mn1117 O1143 2.117 . S
C1118 O1140 1.234 . S
C1118 O1141 1.283 . S
C1119 O1131 1.281 . S
C1119 O1132 1.236 . S
C1120 O1142 1.240 . S
C1120 O1143 1.264 . S
O1121 Mn1116 2.095 . S
O1121 C1130 1.250 . S
O1122 Mn1117 2.121 . S
O1122 C1130 1.258 . S
C1123 N1124 1.326 . S
C1123 C1127 1.460 . S
C1123 H1129 0.929 . S
N1124 Mn1117 2.257 . S
N1124 C1123 1.326 . S
N1124 C1128 1.362 . S
C1125 C1126 1.258 . S
C1125 C1128 1.431 . S
C1125 C1145 1.449 . S
C1126 C1125 1.258 . S
C1126 C1127 1.477 . S
C1126 H1146 0.931 . S
C1127 C1123 1.460 . S
C1127 C1126 1.477 . S
C1127 H1147 0.930 . S
C1128 N1124 1.362 . S
C1128 C1125 1.431 . S
C1128 C1138 1.476 . S
H1129 C1123 0.929 . S
C1130 O1121 1.250 . S
C1130 O1122 1.258 . S
O1131 Mn1116 2.162 . S
O1131 C1119 1.281 . S
O1132 Mn1116 2.297 . S
O1132 C1119 1.236 . S
N1133 Mn1117 2.282 . S
N1133 C1134 1.328 . S
N1133 C1138 1.318 . S
C1134 N1133 1.328 . S
C1134 C1135 1.457 . S
C1134 H1139 0.929 . S
C1135 C1134 1.457 . S
C1135 C1136 1.291 . S
C1135 H1148 0.931 . S
C1136 C1135 1.291 . S
C1136 C1137 1.373 . S
C1136 H1149 0.929 . S
C1137 C1136 1.373 . S
C1137 C1138 1.396 . S
C1137 C1144 1.403 . S
C1138 C1128 1.476 . S
C1138 N1133 1.318 . S
C1138 C1137 1.396 . S
H1139 C1134 0.929 . S
O1140 Mn1116 2.385 . S
O1140 C1118 1.234 . S
O1141 Mn1116 2.209 . S
O1141 Mn1117 2.215 . S
O1141 C1118 1.283 . S
O1142 Mn1116 2.094 . S
O1142 C1120 1.240 . S
O1143 Mn1117 2.117 . S
O1143 C1120 1.264 . S
C1144 C1137 1.403 . S
C1144 C1145 1.399 . S
C1144 H1150 0.929 . S
C1145 C1125 1.449 . S
C1145 C1144 1.399 . S
C1145 H1151 0.930 . S
H1146 C1126 0.931 . S
H1147 C1127 0.930 . S
H1148 C1135 0.931 . S
H1149 C1136 0.929 . S
H1150 C1144 0.929 . S
H1151 C1145 0.930 . S
C1152 C1153 1.387 . S
C1152 H1156 0.950 . S
C1152 C1161 1.390 . S
C1153 C1152 1.387 . S
C1153 C1155 1.387 . S
H1154 C1161 0.950 . S
C1155 C1153 1.387 . S
C1155 C1157 1.390 . S
C1155 H1159 0.950 . S
H1156 C1152 0.950 . S
C1157 C1155 1.390 . S
C1157 C1158 1.387 . S
C1157 H1160 0.950 . S
C1158 C1157 1.387 . S
C1158 C1161 1.387 . S
H1159 C1155 0.950 . S
H1160 C1157 0.950 . S
C1161 C1152 1.390 . S
C1161 H1154 0.950 . S
C1161 C1158 1.387 . S
C1162 C1163 1.387 . S
C1162 H1166 0.950 . S
C1162 C1171 1.390 . S
C1163 C1162 1.387 . S
C1163 C1165 1.387 . S
H1164 C1171 0.950 . S
C1165 C1163 1.387 . S
C1165 C1167 1.390 . S
C1165 H1169 0.950 . S
H1166 C1162 0.950 . S
C1167 C1165 1.390 . S
C1167 C1168 1.387 . S
C1167 H1170 0.950 . S
C1168 C1167 1.387 . S
C1168 C1171 1.387 . S
H1169 C1165 0.950 . S
H1170 C1167 0.950 . S
C1171 C1162 1.390 . S
C1171 H1164 0.950 . S
C1171 C1168 1.387 . S
C1172 C1173 1.387 . S
C1172 H1176 0.950 . S
C1172 C1181 1.390 . S
C1173 C1172 1.387 . S
C1173 C1175 1.387 . S
H1174 C1181 0.950 . S
C1175 C1173 1.387 . S
C1175 C1177 1.390 . S
C1175 H1179 0.950 . S
H1176 C1172 0.950 . S
C1177 C1175 1.390 . S
C1177 C1178 1.387 . S
C1177 H1180 0.950 . S
C1178 C1177 1.387 . S
C1178 C1181 1.387 . S
H1179 C1175 0.950 . S
H1180 C1177 0.950 . S
C1181 C1172 1.390 . S
C1181 H1174 0.950 . S
C1181 C1178 1.387 . S
C1182 C1183 1.387 . S
C1182 H1186 0.950 . S
C1182 C1191 1.390 . S
C1183 C1182 1.387 . S
C1183 C1185 1.387 . S
H1184 C1191 0.950 . S
C1185 C1183 1.387 . S
C1185 C1187 1.390 . S
C1185 H1189 0.950 . S
H1186 C1182 0.950 . S
C1187 C1185 1.390 . S
C1187 C1188 1.387 . S
C1187 H1190 0.950 . S
C1188 C1187 1.387 . S
C1188 C1191 1.387 . S
H1189 C1185 0.950 . S
H1190 C1187 0.950 . S
C1191 C1182 1.390 . S
C1191 H1184 0.950 . S
C1191 C1188 1.387 . S
C1192 C1193 1.387 . S
C1192 H1196 0.950 . S
C1192 C1201 1.390 . S
C1193 C1192 1.387 . S
C1193 C1195 1.387 . S
H1194 C1201 0.950 . S
C1195 C1193 1.387 . S
C1195 C1197 1.390 . S
C1195 H1199 0.950 . S
H1196 C1192 0.950 . S
C1197 C1195 1.390 . S
C1197 C1198 1.387 . S
C1197 H1200 0.950 . S
C1198 C1197 1.387 . S
C1198 C1201 1.387 . S
H1199 C1195 0.950 . S
H1200 C1197 0.950 . S
C1201 C1192 1.390 . S
C1201 H1194 0.950 . S
C1201 C1198 1.387 . S
C1202 C1203 1.387 . S
C1202 H1206 0.950 . S
C1202 C1211 1.390 . S
C1203 C1202 1.387 . S
C1203 C1205 1.387 . S
H1204 C1211 0.950 . S
C1205 C1203 1.387 . S
C1205 C1207 1.390 . S
C1205 H1209 0.950 . S
H1206 C1202 0.950 . S
C1207 C1205 1.390 . S
C1207 C1208 1.387 . S
C1207 H1210 0.950 . S
C1208 C1207 1.387 . S
C1208 C1211 1.387 . S
H1209 C1205 0.950 . S
H1210 C1207 0.950 . S
C1211 C1202 1.390 . S
C1211 H1204 0.950 . S
C1211 C1208 1.387 . S
C1212 C1213 1.387 . S
C1212 H1216 0.950 . S
C1212 C1221 1.390 . S
C1213 C1212 1.387 . S
C1213 C1215 1.387 . S
H1214 C1221 0.950 . S
C1215 C1213 1.387 . S
C1215 C1217 1.390 . S
C1215 H1219 0.950 . S
H1216 C1212 0.950 . S
C1217 C1215 1.390 . S
C1217 C1218 1.387 . S
C1217 H1220 0.950 . S
C1218 C1217 1.387 . S
C1218 C1221 1.387 . S
H1219 C1215 0.950 . S
H1220 C1217 0.950 . S
C1221 C1212 1.390 . S
C1221 H1214 0.950 . S
C1221 C1218 1.387 . S
C1222 C1223 1.387 . S
C1222 H1226 0.950 . S
C1222 C1231 1.390 . S
C1223 C1222 1.387 . S
C1223 C1225 1.387 . S
H1224 C1231 0.950 . S
C1225 C1223 1.387 . S
C1225 C1227 1.390 . S
C1225 H1229 0.950 . S
H1226 C1222 0.950 . S
C1227 C1225 1.390 . S
C1227 C1228 1.387 . S
C1227 H1230 0.950 . S
C1228 C1227 1.387 . S
C1228 C1231 1.387 . S
H1229 C1225 0.950 . S
H1230 C1227 0.950 . S
C1231 C1222 1.390 . S
C1231 H1224 0.950 . S
C1231 C1228 1.387 . S
C1232 C1233 1.387 . S
C1232 H1236 0.950 . S
C1232 C1241 1.390 . S
C1233 C1232 1.387 . S
C1233 C1235 1.387 . S
H1234 C1241 0.950 . S
C1235 C1233 1.387 . S
C1235 C1237 1.390 . S
C1235 H1239 0.950 . S
H1236 C1232 0.950 . S
C1237 C1235 1.390 . S
C1237 C1238 1.387 . S
C1237 H1240 0.950 . S
C1238 C1237 1.387 . S
C1238 C1241 1.387 . S
H1239 C1235 0.950 . S
H1240 C1237 0.950 . S
C1241 C1232 1.390 . S
C1241 H1234 0.950 . S
C1241 C1238 1.387 . S
C1242 C1243 1.387 . S
C1242 H1246 0.950 . S
C1242 C1251 1.390 . S
C1243 C1242 1.387 . S
C1243 C1245 1.387 . S
H1244 C1251 0.950 . S
C1245 C1243 1.387 . S
C1245 C1247 1.390 . S
C1245 H1249 0.950 . S
H1246 C1242 0.950 . S
C1247 C1245 1.390 . S
C1247 C1248 1.387 . S
C1247 H1250 0.950 . S
C1248 C1247 1.387 . S
C1248 C1251 1.387 . S
H1249 C1245 0.950 . S
H1250 C1247 0.950 . S
C1251 C1242 1.390 . S
C1251 H1244 0.950 . S
C1251 C1248 1.387 . S
C1252 C1253 1.387 . S
C1252 H1256 0.950 . S
C1252 C1261 1.390 . S
C1253 C1252 1.387 . S
C1253 C1255 1.387 . S
H1254 C1261 0.950 . S
C1255 C1253 1.387 . S
C1255 C1257 1.390 . S
C1255 H1259 0.950 . S
H1256 C1252 0.950 . S
C1257 C1255 1.390 . S
C1257 C1258 1.387 . S
C1257 H1260 0.950 . S
C1258 C1257 1.387 . S
C1258 C1261 1.387 . S
H1259 C1255 0.950 . S
H1260 C1257 0.950 . S
C1261 C1252 1.390 . S
C1261 H1254 0.950 . S
C1261 C1258 1.387 . S
C1262 C1263 1.387 . S
C1262 H1266 0.950 . S
C1262 C1271 1.390 . S
C1263 C1262 1.387 . S
C1263 C1265 1.387 . S
H1264 C1271 0.950 . S
C1265 C1263 1.387 . S
C1265 C1267 1.390 . S
C1265 H1269 0.950 . S
H1266 C1262 0.950 . S
C1267 C1265 1.390 . S
C1267 C1268 1.387 . S
C1267 H1270 0.950 . S
C1268 C1267 1.387 . S
C1268 C1271 1.387 . S
H1269 C1265 0.950 . S
H1270 C1267 0.950 . S
C1271 C1262 1.390 . S
C1271 H1264 0.950 . S
C1271 C1268 1.387 . S
C1272 C1273 1.387 . S
C1272 H1276 0.950 . S
C1272 C1281 1.390 . S
C1273 C1272 1.387 . S
C1273 C1275 1.387 . S
H1274 C1281 0.950 . S
C1275 C1273 1.387 . S
C1275 C1277 1.390 . S
C1275 H1279 0.950 . S
H1276 C1272 0.950 . S
C1277 C1275 1.390 . S
C1277 C1278 1.387 . S
C1277 H1280 0.950 . S
C1278 C1277 1.387 . S
C1278 C1281 1.387 . S
H1279 C1275 0.950 . S
H1280 C1277 0.950 . S
C1281 C1272 1.390 . S
C1281 H1274 0.950 . S
C1281 C1278 1.387 . S
C1282 C1283 1.387 . S
C1282 H1286 0.950 . S
C1282 C1291 1.390 . S
C1283 C1282 1.387 . S
C1283 C1285 1.387 . S
H1284 C1291 0.950 . S
C1285 C1283 1.387 . S
C1285 C1287 1.390 . S
C1285 H1289 0.950 . S
H1286 C1282 0.950 . S
C1287 C1285 1.390 . S
C1287 C1288 1.387 . S
C1287 H1290 0.950 . S
C1288 C1287 1.387 . S
C1288 C1291 1.387 . S
H1289 C1285 0.950 . S
H1290 C1287 0.950 . S
C1291 C1282 1.390 . S
C1291 H1284 0.950 . S
C1291 C1288 1.387 . S
C1292 C1293 1.387 . S
C1292 H1296 0.950 . S
C1292 C1301 1.390 . S
C1293 C1292 1.387 . S
C1293 C1295 1.387 . S
H1294 C1301 0.950 . S
C1295 C1293 1.387 . S
C1295 C1297 1.390 . S
C1295 H1299 0.950 . S
H1296 C1292 0.950 . S
C1297 C1295 1.390 . S
C1297 C1298 1.387 . S
C1297 H1300 0.950 . S
C1298 C1297 1.387 . S
C1298 C1301 1.387 . S
H1299 C1295 0.950 . S
H1300 C1297 0.950 . S
C1301 C1292 1.390 . S
C1301 H1294 0.950 . S
C1301 C1298 1.387 . S
C1302 C1303 1.387 . S
C1302 H1306 0.950 . S
C1302 C1311 1.390 . S
C1303 C1302 1.387 . S
C1303 C1305 1.387 . S
H1304 C1311 0.950 . S
C1305 C1303 1.387 . S
C1305 C1307 1.390 . S
C1305 H1309 0.950 . S
H1306 C1302 0.950 . S
C1307 C1305 1.390 . S
C1307 C1308 1.387 . S
C1307 H1310 0.950 . S
C1308 C1307 1.387 . S
C1308 C1311 1.387 . S
H1309 C1305 0.950 . S
H1310 C1307 0.950 . S
C1311 C1302 1.390 . S
C1311 H1304 0.950 . S
C1311 C1308 1.387 . S
C1312 C1313 1.387 . S
C1312 H1316 0.950 . S
C1312 C1321 1.390 . S
C1313 C1312 1.387 . S
C1313 C1315 1.387 . S
H1314 C1321 0.950 . S
C1315 C1313 1.387 . S
C1315 C1317 1.390 . S
C1315 H1319 0.950 . S
H1316 C1312 0.950 . S
C1317 C1315 1.390 . S
C1317 C1318 1.387 . S
C1317 H1320 0.950 . S
C1318 C1317 1.387 . S
C1318 C1321 1.387 . S
H1319 C1315 0.950 . S
H1320 C1317 0.950 . S
C1321 C1312 1.390 . S
C1321 H1314 0.950 . S
C1321 C1318 1.387 . S
C1322 C1323 1.387 . S
C1322 H1326 0.950 . S
C1322 C1331 1.390 . S
C1323 C1322 1.387 . S
C1323 C1325 1.387 . S
H1324 C1331 0.950 . S
C1325 C1323 1.387 . S
C1325 C1327 1.390 . S
C1325 H1329 0.950 . S
H1326 C1322 0.950 . S
C1327 C1325 1.390 . S
C1327 C1328 1.387 . S
C1327 H1330 0.950 . S
C1328 C1327 1.387 . S
C1328 C1331 1.387 . S
H1329 C1325 0.950 . S
H1330 C1327 0.950 . S
C1331 C1322 1.390 . S
C1331 H1324 0.950 . S
C1331 C1328 1.387 . S
C1332 C1333 1.387 . S
C1332 H1336 0.950 . S
C1332 C1341 1.390 . S
C1333 C1332 1.387 . S
C1333 C1335 1.387 . S
H1334 C1341 0.950 . S
C1335 C1333 1.387 . S
C1335 C1337 1.390 . S
C1335 H1339 0.950 . S
H1336 C1332 0.950 . S
C1337 C1335 1.390 . S
C1337 C1338 1.387 . S
C1337 H1340 0.950 . S
C1338 C1337 1.387 . S
C1338 C1341 1.387 . S
H1339 C1335 0.950 . S
H1340 C1337 0.950 . S
C1341 C1332 1.390 . S
C1341 H1334 0.950 . S
C1341 C1338 1.387 . S
C1342 C1343 1.387 . S
C1342 H1346 0.950 . S
C1342 C1351 1.390 . S
C1343 C1342 1.387 . S
C1343 C1345 1.387 . S
H1344 C1351 0.950 . S
C1345 C1343 1.387 . S
C1345 C1347 1.390 . S
C1345 H1349 0.950 . S
H1346 C1342 0.950 . S
C1347 C1345 1.390 . S
C1347 C1348 1.387 . S
C1347 H1350 0.950 . S
C1348 C1347 1.387 . S
C1348 C1351 1.387 . S
H1349 C1345 0.950 . S
H1350 C1347 0.950 . S
C1351 C1342 1.390 . S
C1351 H1344 0.950 . S
C1351 C1348 1.387 . S
C1352 C1353 1.387 . S
C1352 H1356 0.950 . S
C1352 C1361 1.390 . S
C1353 C1352 1.387 . S
C1353 C1355 1.387 . S
H1354 C1361 0.950 . S
C1355 C1353 1.387 . S
C1355 C1357 1.390 . S
C1355 H1359 0.950 . S
H1356 C1352 0.950 . S
C1357 C1355 1.390 . S
C1357 C1358 1.387 . S
C1357 H1360 0.950 . S
C1358 C1357 1.387 . S
C1358 C1361 1.387 . S
H1359 C1355 0.950 . S
H1360 C1357 0.950 . S
C1361 C1352 1.390 . S
C1361 H1354 0.950 . S
C1361 C1358 1.387 . S
C1362 C1363 1.387 . S
C1362 H1366 0.950 . S
C1362 C1371 1.390 . S
C1363 C1362 1.387 . S
C1363 C1365 1.387 . S
H1364 C1371 0.950 . S
C1365 C1363 1.387 . S
C1365 C1367 1.390 . S
C1365 H1369 0.950 . S
H1366 C1362 0.950 . S
C1367 C1365 1.390 . S
C1367 C1368 1.387 . S
C1367 H1370 0.950 . S
C1368 C1367 1.387 . S
C1368 C1371 1.387 . S
H1369 C1365 0.950 . S
H1370 C1367 0.950 . S
C1371 C1362 1.390 . S
C1371 H1364 0.950 . S
C1371 C1368 1.387 . S
C1372 C1373 1.387 . S
C1372 H1376 0.950 . S
C1372 C1381 1.390 . S
C1373 C1372 1.387 . S
C1373 C1375 1.387 . S
H1374 C1381 0.950 . S
C1375 C1373 1.387 . S
C1375 C1377 1.390 . S
C1375 H1379 0.950 . S
H1376 C1372 0.950 . S
C1377 C1375 1.390 . S
C1377 C1378 1.387 . S
C1377 H1380 0.950 . S
C1378 C1377 1.387 . S
C1378 C1381 1.387 . S
H1379 C1375 0.950 . S
H1380 C1377 0.950 . S
C1381 C1372 1.390 . S
C1381 H1374 0.950 . S
C1381 C1378 1.387 . S
C1382 C1383 1.387 . S
C1382 H1386 0.950 . S
C1382 C1391 1.390 . S
C1383 C1382 1.387 . S
C1383 C1385 1.387 . S
H1384 C1391 0.950 . S
C1385 C1383 1.387 . S
C1385 C1387 1.390 . S
C1385 H1389 0.950 . S
H1386 C1382 0.950 . S
C1387 C1385 1.390 . S
C1387 C1388 1.387 . S
C1387 H1390 0.950 . S
C1388 C1387 1.387 . S
C1388 C1391 1.387 . S
H1389 C1385 0.950 . S
H1390 C1387 0.950 . S
C1391 C1382 1.390 . S
C1391 H1384 0.950 . S
C1391 C1388 1.387 . S
C1392 C1393 1.387 . S
C1392 H1396 0.950 . S
C1392 C1401 1.390 . S
C1393 C1392 1.387 . S
C1393 C1395 1.387 . S
H1394 C1401 0.950 . S
C1395 C1393 1.387 . S
C1395 C1397 1.390 . S
C1395 H1399 0.950 . S
H1396 C1392 0.950 . S
C1397 C1395 1.390 . S
C1397 C1398 1.387 . S
C1397 H1400 0.950 . S
C1398 C1397 1.387 . S
C1398 C1401 1.387 . S
H1399 C1395 0.950 . S
H1400 C1397 0.950 . S
C1401 C1392 1.390 . S
C1401 H1394 0.950 . S
C1401 C1398 1.387 . S
C1402 C1403 1.387 . S
C1402 H1406 0.950 . S
C1402 C1411 1.390 . S
C1403 C1402 1.387 . S
C1403 C1405 1.387 . S
H1404 C1411 0.950 . S
C1405 C1403 1.387 . S
C1405 C1407 1.390 . S
C1405 H1409 0.950 . S
H1406 C1402 0.950 . S
C1407 C1405 1.390 . S
C1407 C1408 1.387 . S
C1407 H1410 0.950 . S
C1408 C1407 1.387 . S
C1408 C1411 1.387 . S
H1409 C1405 0.950 . S
H1410 C1407 0.950 . S
C1411 C1402 1.390 . S
C1411 H1404 0.950 . S
C1411 C1408 1.387 . S
C1412 C1413 1.387 . S
C1412 H1416 0.950 . S
C1412 C1421 1.390 . S
C1413 C1412 1.387 . S
C1413 C1415 1.387 . S
H1414 C1421 0.950 . S
C1415 C1413 1.387 . S
C1415 C1417 1.390 . S
C1415 H1419 0.950 . S
H1416 C1412 0.950 . S
C1417 C1415 1.390 . S
C1417 C1418 1.387 . S
C1417 H1420 0.950 . S
C1418 C1417 1.387 . S
C1418 C1421 1.387 . S
H1419 C1415 0.950 . S
H1420 C1417 0.950 . S
C1421 C1412 1.390 . S
C1421 H1414 0.950 . S
C1421 C1418 1.387 . S
C1422 C1423 1.387 . S
C1422 H1426 0.950 . S
C1422 C1431 1.390 . S
C1423 C1422 1.387 . S
C1423 C1425 1.387 . S
H1424 C1431 0.950 . S
C1425 C1423 1.387 . S
C1425 C1427 1.390 . S
C1425 H1429 0.950 . S
H1426 C1422 0.950 . S
C1427 C1425 1.390 . S
C1427 C1428 1.387 . S
C1427 H1430 0.950 . S
C1428 C1427 1.387 . S
C1428 C1431 1.387 . S
H1429 C1425 0.950 . S
H1430 C1427 0.950 . S
C1431 C1422 1.390 . S
C1431 H1424 0.950 . S
C1431 C1428 1.387 . S
C1432 C1433 1.387 . S
C1432 H1436 0.950 . S
C1432 C1441 1.390 . S
C1433 C1432 1.387 . S
C1433 C1435 1.387 . S
H1434 C1441 0.950 . S
C1435 C1433 1.387 . S
C1435 C1437 1.390 . S
C1435 H1439 0.950 . S
H1436 C1432 0.950 . S
C1437 C1435 1.390 . S
C1437 C1438 1.387 . S
C1437 H1440 0.950 . S
C1438 C1437 1.387 . S
C1438 C1441 1.387 . S
H1439 C1435 0.950 . S
H1440 C1437 0.950 . S
C1441 C1432 1.390 . S
C1441 H1434 0.950 . S
C1441 C1438 1.387 . S
C1442 C1443 1.387 . S
C1442 H1446 0.950 . S
C1442 C1451 1.390 . S
C1443 C1442 1.387 . S
C1443 C1445 1.387 . S
H1444 C1451 0.950 . S
C1445 C1443 1.387 . S
C1445 C1447 1.390 . S
C1445 H1449 0.950 . S
H1446 C1442 0.950 . S
C1447 C1445 1.390 . S
C1447 C1448 1.387 . S
C1447 H1450 0.950 . S
C1448 C1447 1.387 . S
C1448 C1451 1.387 . S
H1449 C1445 0.950 . S
H1450 C1447 0.950 . S
C1451 C1442 1.390 . S
C1451 H1444 0.950 . S
C1451 C1448 1.387 . S
C1452 C1453 1.387 . S
C1452 H1456 0.950 . S
C1452 C1461 1.390 . S
C1453 C1452 1.387 . S
C1453 C1455 1.387 . S
H1454 C1461 0.950 . S
C1455 C1453 1.387 . S
C1455 C1457 1.390 . S
C1455 H1459 0.950 . S
H1456 C1452 0.950 . S
C1457 C1455 1.390 . S
C1457 C1458 1.387 . S
C1457 H1460 0.950 . S
C1458 C1457 1.387 . S
C1458 C1461 1.387 . S
H1459 C1455 0.950 . S
H1460 C1457 0.950 . S
C1461 C1452 1.390 . S
C1461 H1454 0.950 . S
C1461 C1458 1.387 . S
C1462 C1463 1.387 . S
C1462 H1466 0.950 . S
C1462 C1471 1.390 . S
C1463 C1462 1.387 . S
C1463 C1465 1.387 . S
H1464 C1471 0.950 . S
C1465 C1463 1.387 . S
C1465 C1467 1.390 . S
C1465 H1469 0.950 . S
H1466 C1462 0.950 . S
C1467 C1465 1.390 . S
C1467 C1468 1.387 . S
C1467 H1470 0.950 . S
C1468 C1467 1.387 . S
C1468 C1471 1.387 . S
H1469 C1465 0.950 . S
H1470 C1467 0.950 . S
C1471 C1462 1.390 . S
C1471 H1464 0.950 . S
C1471 C1468 1.387 . S
C1472 C1473 1.387 . S
C1472 H1476 0.950 . S
C1472 C1481 1.390 . S
C1473 C1472 1.387 . S
C1473 C1475 1.387 . S
H1474 C1481 0.950 . S
C1475 C1473 1.387 . S
C1475 C1477 1.390 . S
C1475 H1479 0.950 . S
H1476 C1472 0.950 . S
C1477 C1475 1.390 . S
C1477 C1478 1.387 . S
C1477 H1480 0.950 . S
C1478 C1477 1.387 . S
C1478 C1481 1.387 . S
H1479 C1475 0.950 . S
H1480 C1477 0.950 . S
C1481 C1472 1.390 . S
C1481 H1474 0.950 . S
C1481 C1478 1.387 . S
C1482 C1483 1.387 1_545 S
C1482 H1486 0.950 . S
C1482 C1491 1.390 . S
C1483 C1482 1.387 1_565 S
C1483 C1485 1.387 1_655 S
H1484 C1491 0.950 . S
C1485 C1483 1.387 1_455 S
C1485 C1487 1.390 . S
C1485 H1489 0.950 . S
H1486 C1482 0.950 . S
C1487 C1485 1.390 . S
C1487 C1488 1.387 1_565 S
C1487 H1490 0.950 . S
C1488 C1487 1.387 1_545 S
C1488 C1491 1.387 1_455 S
H1489 C1485 0.950 . S
H1490 C1487 0.950 . S
C1491 C1482 1.390 . S
C1491 H1484 0.950 . S
C1491 C1488 1.387 1_655 S
C1492 C1493 1.387 . S
C1492 H1496 0.950 . S
C1492 C1501 1.390 . S
C1493 C1492 1.387 . S
C1493 C1495 1.387 . S
H1494 C1501 0.950 . S
C1495 C1493 1.387 . S
C1495 C1497 1.390 . S
C1495 H1499 0.950 . S
H1496 C1492 0.950 . S
C1497 C1495 1.390 . S
C1497 C1498 1.387 . S
C1497 H1500 0.950 . S
C1498 C1497 1.387 . S
C1498 C1501 1.387 . S
H1499 C1495 0.950 . S
H1500 C1497 0.950 . S
C1501 C1492 1.390 . S
C1501 H1494 0.950 . S
C1501 C1498 1.387 . S
C1502 C1503 1.387 . S
C1502 H1506 0.950 . S
C1502 C1511 1.394 . S
C1503 C1502 1.387 . S
C1503 C1505 1.387 1_544 S
H1504 C1511 0.951 . S
C1505 C1503 1.387 1_566 S
C1505 C1507 1.390 . S
C1505 H1509 0.950 . S
H1506 C1502 0.950 . S
C1507 C1505 1.390 . S
C1507 C1508 1.387 . S
C1507 H1510 0.950 . S
C1508 C1507 1.387 . S
C1508 C1511 1.382 1_566 S
H1509 C1505 0.950 . S
H1510 C1507 0.950 . S
C1511 C1502 1.394 . S
C1511 H1504 0.951 . S
C1511 C1508 1.382 1_544 S
C1512 C1513 1.387 . S
C1512 H1516 0.950 . S
C1512 C1521 1.390 . S
C1513 C1512 1.387 . S
C1513 C1515 1.387 . S
H1514 C1521 0.950 . S
C1515 C1513 1.387 . S
C1515 C1517 1.390 . S
C1515 H1519 0.950 . S
H1516 C1512 0.950 . S
C1517 C1515 1.390 . S
C1517 C1518 1.387 . S
C1517 H1520 0.950 . S
C1518 C1517 1.387 . S
C1518 C1521 1.387 . S
H1519 C1515 0.950 . S
H1520 C1517 0.950 . S
C1521 C1512 1.390 . S
C1521 H1514 0.950 . S
C1521 C1518 1.387 . S
C1522 C1523 1.387 . S
C1522 H1526 0.950 . S
C1522 C1531 1.390 . S
C1523 C1522 1.387 . S
C1523 C1525 1.387 1_565 S
H1524 C1531 0.950 . S
C1525 C1523 1.387 1_545 S
C1525 C1527 1.390 . S
C1525 H1529 0.950 . S
H1526 C1522 0.950 . S
C1527 C1525 1.390 . S
C1527 C1528 1.387 . S
C1527 H1530 0.950 . S
C1528 C1527 1.387 . S
C1528 C1531 1.387 1_545 S
H1529 C1525 0.950 . S
H1530 C1527 0.950 . S
C1531 C1522 1.390 . S
C1531 H1524 0.950 . S
C1531 C1528 1.387 1_565 S
C1532 C1533 1.387 . S
C1532 H1536 0.950 . S
C1532 C1541 1.390 . S
C1533 C1532 1.387 . S
C1533 C1535 1.387 . S
H1534 C1541 0.950 . S
C1535 C1533 1.387 . S
C1535 C1537 1.390 . S
C1535 H1539 0.950 . S
H1536 C1532 0.950 . S
C1537 C1535 1.390 . S
C1537 C1538 1.387 . S
C1537 H1540 0.950 . S
C1538 C1537 1.387 . S
C1538 C1541 1.387 . S
H1539 C1535 0.950 . S
H1540 C1537 0.950 . S
C1541 C1532 1.390 . S
C1541 H1534 0.950 . S
C1541 C1538 1.387 . S
C1542 C1543 1.387 1_554 S
C1542 H1546 0.950 . S
C1542 C1551 1.390 1_545 S
C1543 C1542 1.387 1_556 S
C1543 C1545 1.387 1_655 S
H1544 C1551 0.950 . S
C1545 C1543 1.387 1_455 S
C1545 C1547 1.400 . S
C1545 H1549 0.950 . S
H1546 C1542 0.950 . S
C1547 C1545 1.400 . S
C1547 C1548 1.378 1_546 S
C1547 H1550 0.950 . S
C1548 C1547 1.378 1_564 S
C1548 C1551 1.387 1_455 S
H1549 C1545 0.950 . S
H1550 C1547 0.950 . S
C1551 C1542 1.390 1_565 S
C1551 H1544 0.950 . S
C1551 C1548 1.387 1_655 S
C1552 C1553 1.387 . S
C1552 H1556 0.950 . S
C1552 C1561 1.390 . S
C1553 C1552 1.387 . S
C1553 C1555 1.387 . S
H1554 C1561 0.950 . S
C1555 C1553 1.387 . S
C1555 C1557 1.390 . S
C1555 H1559 0.950 . S
H1556 C1552 0.950 . S
C1557 C1555 1.390 . S
C1557 C1558 1.387 . S
C1557 H1560 0.950 . S
C1558 C1557 1.387 . S
C1558 C1561 1.387 . S
H1559 C1555 0.950 . S
H1560 C1557 0.950 . S
C1561 C1552 1.390 . S
C1561 H1554 0.950 . S
C1561 C1558 1.387 . S
C1562 C1563 1.387 . S
C1562 H1566 0.950 . S
C1562 C1571 1.390 . S
C1563 C1562 1.387 . S
C1563 C1565 1.387 . S
H1564 C1571 0.950 . S
C1565 C1563 1.387 . S
C1565 C1567 1.390 . S
C1565 H1569 0.950 . S
H1566 C1562 0.950 . S
C1567 C1565 1.390 . S
C1567 C1568 1.387 . S
C1567 H1570 0.950 . S
C1568 C1567 1.387 . S
C1568 C1571 1.387 . S
H1569 C1565 0.950 . S
H1570 C1567 0.950 . S
C1571 C1562 1.390 . S
C1571 H1564 0.950 . S
C1571 C1568 1.387 . S
C1572 C1573 1.387 . S
C1572 H1576 0.950 . S
C1572 C1581 1.390 . S
C1573 C1572 1.387 . S
C1573 C1575 1.387 . S
H1574 C1581 0.950 . S
C1575 C1573 1.387 . S
C1575 C1577 1.390 . S
C1575 H1579 0.950 . S
H1576 C1572 0.950 . S
C1577 C1575 1.390 . S
C1577 C1578 1.387 . S
C1577 H1580 0.950 . S
C1578 C1577 1.387 . S
C1578 C1581 1.387 . S
H1579 C1575 0.950 . S
H1580 C1577 0.950 . S
C1581 C1572 1.390 . S
C1581 H1574 0.950 . S
C1581 C1578 1.387 . S
C1582 C1583 1.387 . S
C1582 H1586 0.950 . S
C1582 C1591 1.390 . S
C1583 C1582 1.387 . S
C1583 C1585 1.387 . S
H1584 C1591 0.950 . S
C1585 C1583 1.387 . S
C1585 C1587 1.390 . S
C1585 H1589 0.950 . S
H1586 C1582 0.950 . S
C1587 C1585 1.390 . S
C1587 C1588 1.387 . S
C1587 H1590 0.950 . S
C1588 C1587 1.387 . S
C1588 C1591 1.387 . S
H1589 C1585 0.950 . S
H1590 C1587 0.950 . S
C1591 C1582 1.390 . S
C1591 H1584 0.950 . S
C1591 C1588 1.387 . S
C1592 C1593 1.387 1_556 S
C1592 H1596 0.950 . S
C1592 C1601 1.390 . S
C1593 C1592 1.387 1_554 S
C1593 C1595 1.387 . S
H1594 C1601 0.950 . S
C1595 C1593 1.387 . S
C1595 C1597 1.390 . S
C1595 H1599 0.950 . S
H1596 C1592 0.950 . S
C1597 C1595 1.390 . S
C1597 C1598 1.387 1_554 S
C1597 H1600 0.950 . S
C1598 C1597 1.387 1_556 S
C1598 C1601 1.387 . S
H1599 C1595 0.950 . S
H1600 C1597 0.950 . S
C1601 C1592 1.390 . S
C1601 H1594 0.950 . S
C1601 C1598 1.387 . S
C1602 C1603 1.387 . S
C1602 H1606 0.950 . S
C1602 C1611 1.390 1_655 S
C1603 C1602 1.387 . S
C1603 C1605 1.387 . S
H1604 C1611 0.950 . S
C1605 C1603 1.387 . S
C1605 C1607 1.390 . S
C1605 H1609 0.950 . S
H1606 C1602 0.950 . S
C1607 C1605 1.390 . S
C1607 C1608 1.387 1_655 S
C1607 H1610 0.950 . S
C1608 C1607 1.387 1_455 S
C1608 C1611 1.387 . S
H1609 C1605 0.950 . S
H1610 C1607 0.950 . S
C1611 C1602 1.390 1_455 S
C1611 H1604 0.950 . S
C1611 C1608 1.387 . S
C1612 C1613 1.387 1_554 S
C1612 H1616 0.950 . S
C1612 C1621 1.390 . S
C1613 C1612 1.387 1_556 S
C1613 C1615 1.387 1_455 S
H1614 C1621 0.950 . S
C1615 C1613 1.387 1_655 S
C1615 C1617 1.390 . S
C1615 H1619 0.950 . S
H1616 C1612 0.950 . S
C1617 C1615 1.390 . S
C1617 C1618 1.387 1_556 S
C1617 H1620 0.950 . S
C1618 C1617 1.387 1_554 S
C1618 C1621 1.387 1_655 S
H1619 C1615 0.950 . S
H1620 C1617 0.950 . S
C1621 C1612 1.390 . S
C1621 H1614 0.950 . S
C1621 C1618 1.387 1_455 S
C1622 C1623 1.387 . S
C1622 H1626 0.950 . S
C1622 C1631 1.390 . S
C1623 C1622 1.387 . S
C1623 C1625 1.387 . S
H1624 C1631 0.950 . S
C1625 C1623 1.387 . S
C1625 C1627 1.390 . S
C1625 H1629 0.950 . S
H1626 C1622 0.950 . S
C1627 C1625 1.390 . S
C1627 C1628 1.387 . S
C1627 H1630 0.950 . S
C1628 C1627 1.387 . S
C1628 C1631 1.387 . S
H1629 C1625 0.950 . S
H1630 C1627 0.950 . S
C1631 C1622 1.390 . S
C1631 H1624 0.950 . S
C1631 C1628 1.387 . S
C1632 C1633 1.387 . S
C1632 H1636 0.950 . S
C1632 C1641 1.390 . S
C1633 C1632 1.387 . S
C1633 C1635 1.387 . S
H1634 C1641 0.950 . S
C1635 C1633 1.387 . S
C1635 C1637 1.390 . S
C1635 H1639 0.950 . S
H1636 C1632 0.950 . S
C1637 C1635 1.390 . S
C1637 C1638 1.387 . S
C1637 H1640 0.950 . S
C1638 C1637 1.387 . S
C1638 C1641 1.387 . S
H1639 C1635 0.950 . S
H1640 C1637 0.950 . S
C1641 C1632 1.390 . S
C1641 H1634 0.950 . S
C1641 C1638 1.387 . S
C1642 C1643 1.387 . S
C1642 H1646 0.950 . S
C1642 C1651 1.390 . S
C1643 C1642 1.387 . S
C1643 C1645 1.387 . S
H1644 C1651 0.950 . S
C1645 C1643 1.387 . S
C1645 C1647 1.390 . S
C1645 H1649 0.950 . S
H1646 C1642 0.950 . S
C1647 C1645 1.390 . S
C1647 C1648 1.387 . S
C1647 H1650 0.950 . S
C1648 C1647 1.387 . S
C1648 C1651 1.387 . S
H1649 C1645 0.950 . S
H1650 C1647 0.950 . S
C1651 C1642 1.390 . S
C1651 H1644 0.950 . S
C1651 C1648 1.387 . S
C1652 C1653 1.387 . S
C1652 H1656 0.950 . S
C1652 C1661 1.390 . S
C1653 C1652 1.387 . S
C1653 C1655 1.387 . S
H1654 C1661 0.950 . S
C1655 C1653 1.387 . S
C1655 C1657 1.390 . S
C1655 H1659 0.950 . S
H1656 C1652 0.950 . S
C1657 C1655 1.390 . S
C1657 C1658 1.387 . S
C1657 H1660 0.950 . S
C1658 C1657 1.387 . S
C1658 C1661 1.387 . S
H1659 C1655 0.950 . S
H1660 C1657 0.950 . S
C1661 C1652 1.390 . S
C1661 H1654 0.950 . S
C1661 C1658 1.387 . S
C1662 C1663 1.387 . S
C1662 H1666 0.950 . S
C1662 C1671 1.390 . S
C1663 C1662 1.387 . S
C1663 C1665 1.387 . S
H1664 C1671 0.950 . S
C1665 C1663 1.387 . S
C1665 C1667 1.390 . S
C1665 H1669 0.950 . S
H1666 C1662 0.950 . S
C1667 C1665 1.390 . S
C1667 C1668 1.387 . S
C1667 H1670 0.950 . S
C1668 C1667 1.387 . S
C1668 C1671 1.387 . S
H1669 C1665 0.950 . S
H1670 C1667 0.950 . S
C1671 C1662 1.390 . S
C1671 H1664 0.950 . S
C1671 C1668 1.387 . S
C1672 C1673 1.387 . S
C1672 H1676 0.950 . S
C1672 C1681 1.390 . S
C1673 C1672 1.387 . S
C1673 C1675 1.387 . S
H1674 C1681 0.950 . S
C1675 C1673 1.387 . S
C1675 C1677 1.390 . S
C1675 H1679 0.950 . S
H1676 C1672 0.950 . S
C1677 C1675 1.390 . S
C1677 C1678 1.387 . S
C1677 H1680 0.950 . S
C1678 C1677 1.387 . S
C1678 C1681 1.387 . S
H1679 C1675 0.950 . S
H1680 C1677 0.950 . S
C1681 C1672 1.390 . S
C1681 H1674 0.950 . S
C1681 C1678 1.387 . S
C1682 C1683 1.387 . S
C1682 H1686 0.950 . S
C1682 C1691 1.390 . S
C1683 C1682 1.387 . S
C1683 C1685 1.387 . S
H1684 C1691 0.950 . S
C1685 C1683 1.387 . S
C1685 C1687 1.390 . S
C1685 H1689 0.950 . S
H1686 C1682 0.950 . S
C1687 C1685 1.390 . S
C1687 C1688 1.387 . S
C1687 H1690 0.950 . S
C1688 C1687 1.387 . S
C1688 C1691 1.387 . S
H1689 C1685 0.950 . S
H1690 C1687 0.950 . S
C1691 C1682 1.390 . S
C1691 H1684 0.950 . S
C1691 C1688 1.387 . S
C1692 C1693 1.387 . S
C1692 H1696 0.950 . S
C1692 C1701 1.390 . S
C1693 C1692 1.387 . S
C1693 C1695 1.387 . S
H1694 C1701 0.950 . S
C1695 C1693 1.387 . S
C1695 C1697 1.390 . S
C1695 H1699 0.950 . S
H1696 C1692 0.950 . S
C1697 C1695 1.390 . S
C1697 C1698 1.387 . S
C1697 H1700 0.950 . S
C1698 C1697 1.387 . S
C1698 C1701 1.387 . S
H1699 C1695 0.950 . S
H1700 C1697 0.950 . S
C1701 C1692 1.390 . S
C1701 H1694 0.950 . S
C1701 C1698 1.387 . S
C1702 C1703 1.387 . S
C1702 H1706 0.950 . S
C1702 C1711 1.390 . S
C1703 C1702 1.387 . S
C1703 C1705 1.387 . S
H1704 C1711 0.950 . S
C1705 C1703 1.387 . S
C1705 C1707 1.390 . S
C1705 H1709 0.950 . S
H1706 C1702 0.950 . S
C1707 C1705 1.390 . S
C1707 C1708 1.387 . S
C1707 H1710 0.950 . S
C1708 C1707 1.387 . S
C1708 C1711 1.387 . S
H1709 C1705 0.950 . S
H1710 C1707 0.950 . S
C1711 C1702 1.390 . S
C1711 H1704 0.950 . S
C1711 C1708 1.387 . S
C1712 C1713 1.387 . S
C1712 H1716 0.950 . S
C1712 C1721 1.390 . S
C1713 C1712 1.387 . S
C1713 C1715 1.387 . S
H1714 C1721 0.950 . S
C1715 C1713 1.387 . S
C1715 C1717 1.390 . S
C1715 H1719 0.950 . S
H1716 C1712 0.950 . S
C1717 C1715 1.390 . S
C1717 C1718 1.387 . S
C1717 H1720 0.950 . S
C1718 C1717 1.387 . S
C1718 C1721 1.387 . S
H1719 C1715 0.950 . S
H1720 C1717 0.950 . S
C1721 C1712 1.390 . S
C1721 H1714 0.950 . S
C1721 C1718 1.387 . S
C1722 C1723 1.387 . S
C1722 H1726 0.950 . S
C1722 C1731 1.390 . S
C1723 C1722 1.387 . S
C1723 C1725 1.387 . S
H1724 C1731 0.950 . S
C1725 C1723 1.387 . S
C1725 C1727 1.390 . S
C1725 H1729 0.950 . S
H1726 C1722 0.950 . S
C1727 C1725 1.390 . S
C1727 C1728 1.387 . S
C1727 H1730 0.950 . S
C1728 C1727 1.387 . S
C1728 C1731 1.387 . S
H1729 C1725 0.950 . S
H1730 C1727 0.950 . S
C1731 C1722 1.390 . S
C1731 H1724 0.950 . S
C1731 C1728 1.387 . S
C1732 C1733 1.387 . S
C1732 H1736 0.950 . S
C1732 C1741 1.390 . S
C1733 C1732 1.387 . S
C1733 C1735 1.387 . S
H1734 C1741 0.950 . S
C1735 C1733 1.387 . S
C1735 C1737 1.390 . S
C1735 H1739 0.950 . S
H1736 C1732 0.950 . S
C1737 C1735 1.390 . S
C1737 C1738 1.387 . S
C1737 H1740 0.950 . S
C1738 C1737 1.387 . S
C1738 C1741 1.387 . S
H1739 C1735 0.950 . S
H1740 C1737 0.950 . S
C1741 C1732 1.390 . S
C1741 H1734 0.950 . S
C1741 C1738 1.387 . S
C1742 C1743 1.387 . S
C1742 H1746 0.950 . S
C1742 C1751 1.390 . S
C1743 C1742 1.387 . S
C1743 C1745 1.387 . S
H1744 C1751 0.950 . S
C1745 C1743 1.387 . S
C1745 C1747 1.390 . S
C1745 H1749 0.950 . S
H1746 C1742 0.950 . S
C1747 C1745 1.390 . S
C1747 C1748 1.387 . S
C1747 H1750 0.950 . S
C1748 C1747 1.387 . S
C1748 C1751 1.387 . S
H1749 C1745 0.950 . S
H1750 C1747 0.950 . S
C1751 C1742 1.390 . S
C1751 H1744 0.950 . S
C1751 C1748 1.387 . S
C1752 C1753 1.387 . S
C1752 H1756 0.950 . S
C1752 C1761 1.390 . S
C1753 C1752 1.387 . S
C1753 C1755 1.387 . S
H1754 C1761 0.950 . S
C1755 C1753 1.387 . S
C1755 C1757 1.390 . S
C1755 H1759 0.950 . S
H1756 C1752 0.950 . S
C1757 C1755 1.390 . S
C1757 C1758 1.387 . S
C1757 H1760 0.950 . S
C1758 C1757 1.387 . S
C1758 C1761 1.387 . S
H1759 C1755 0.950 . S
H1760 C1757 0.950 . S
C1761 C1752 1.390 . S
C1761 H1754 0.950 . S
C1761 C1758 1.387 . S
C1762 C1763 1.387 . S
C1762 H1766 0.950 . S
C1762 C1771 1.390 . S
C1763 C1762 1.387 . S
C1763 C1765 1.387 . S
H1764 C1771 0.950 . S
C1765 C1763 1.387 . S
C1765 C1767 1.390 . S
C1765 H1769 0.950 . S
H1766 C1762 0.950 . S
C1767 C1765 1.390 . S
C1767 C1768 1.387 . S
C1767 H1770 0.950 . S
C1768 C1767 1.387 . S
C1768 C1771 1.387 . S
H1769 C1765 0.950 . S
H1770 C1767 0.950 . S
C1771 C1762 1.390 . S
C1771 H1764 0.950 . S
C1771 C1768 1.387 . S
C1772 C1773 1.387 . S
C1772 H1776 0.950 . S
C1772 C1781 1.390 . S
C1773 C1772 1.387 . S
C1773 C1775 1.387 . S
H1774 C1781 0.950 . S
C1775 C1773 1.387 . S
C1775 C1777 1.390 . S
C1775 H1779 0.950 . S
H1776 C1772 0.950 . S
C1777 C1775 1.390 . S
C1777 C1778 1.387 . S
C1777 H1780 0.950 . S
C1778 C1777 1.387 . S
C1778 C1781 1.387 . S
H1779 C1775 0.950 . S
H1780 C1777 0.950 . S
C1781 C1772 1.390 . S
C1781 H1774 0.950 . S
C1781 C1778 1.387 . S
C1782 C1783 1.387 . S
C1782 H1786 0.950 . S
C1782 C1791 1.390 . S
C1783 C1782 1.387 . S
C1783 C1785 1.387 . S
H1784 C1791 0.950 . S
C1785 C1783 1.387 . S
C1785 C1787 1.390 . S
C1785 H1789 0.950 . S
H1786 C1782 0.950 . S
C1787 C1785 1.390 . S
C1787 C1788 1.387 . S
C1787 H1790 0.950 . S
C1788 C1787 1.387 . S
C1788 C1791 1.387 . S
H1789 C1785 0.950 . S
H1790 C1787 0.950 . S
C1791 C1782 1.390 . S
C1791 H1784 0.950 . S
C1791 C1788 1.387 . S
C1153 C327 1.329 . S
C1158 C2 1.367 . S
C1163 C38 1.389 . S
C1168 C938 1.276 . S
C1173 C399 1.331 . S
C1178 C74 1.370 . S
C1183 C866 1.271 . S
C1188 C110 1.390 . S
C1193 C146 1.369 . S
C1198 C543 1.328 . S
C1203 C1010 1.275 . S
C1208 C182 1.388 . S
C1213 C218 1.370 . S
C1218 C471 1.331 . S
C1223 C1082 1.271 . S
C1228 C254 1.389 . S
C1233 C39 1.189 . S
C1238 C291 1.234 . S
C1243 C326 1.309 1_655 S
C1248 C651 1.268 . S
C1253 C111 1.190 . S
C1258 C363 1.234 . S
C1263 C398 1.310 . S
C1268 C579 1.265 . S
C1273 C435 1.234 . S
C1278 C255 1.190 . S
C1283 C723 1.265 . S
C1288 C470 1.310 . S
C1293 C507 1.233 . S
C1298 C183 1.186 . S
C1303 C795 1.265 . S
C1308 C542 1.310 1_655 S
C1313 C903 1.328 . S
C1318 C578 1.367 . S
C1323 C362 1.271 . S
C1328 C614 1.389 . S
C1333 C650 1.368 . S
C1338 C975 1.327 . S
C1343 C290 1.275 . S
C1348 C686 1.388 . S
C1353 C1119 1.331 . S
C1358 C722 1.368 . S
C1363 C758 1.389 . S
C1368 C434 1.271 . S
C1373 C1047 1.329 . S
C1378 C794 1.368 . S
C1383 C506 1.275 . S
C1388 C830 1.388 . S
C1393 C615 1.189 . S
C1398 C867 1.234 . S
C1403 C902 1.309 . S
C1408 C75 1.268 . S
C1413 C939 1.234 . S
C1418 C687 1.189 . S
C1423 C974 1.310 1_455 S
C1428 C3 1.266 . S
C1433 C831 1.187 . S
C1438 C1011 1.233 . S
C1443 C1046 1.310 1_455 S
C1448 C147 1.265 . S
C1453 C1083 1.233 . S
C1458 C759 1.186 . S
C1463 C1118 1.309 . S
C1468 C219 1.269 . S
C1473 C878 1.704 . S
C1478 C4 1.562 . S
C1483 C40 1.469 . S
C1488 C328 1.463 . S
C1493 C76 1.566 . S
C1498 C950 1.707 . S
C1503 C112 1.471 . S
C1508 C400 1.466 . S
C1513 C148 1.562 . S
C1518 C1022 1.704 . S
C1523 C184 1.470 . S
C1528 C472 1.465 . S
C1533 C1094 1.705 . S
C1538 C220 1.562 . S
C1543 C256 1.468 . S
C1548 C544 1.462 . S
C1553 C302 1.707 . S
C1558 C580 1.566 . S
C1563 C374 1.707 . S
C1568 C652 1.566 . S
C1573 C724 1.566 . S
C1578 C446 1.707 . S
C1583 C796 1.566 . S
C1588 C518 1.707 . S
C1593 C616 1.467 . S
C1598 C904 1.462 . S
C1603 C976 1.465 . S
C1608 C688 1.471 . S
C1613 C760 1.468 . S
C1618 C1048 1.463 . S
C1623 C1120 1.465 . S
C1628 C832 1.470 . S
C1633 C770 1.663 . S
C1638 C14 1.656 . S
C1643 C806 1.656 . S
C1648 C50 1.662 . S
C1653 C86 1.656 . S
C1658 C842 1.663 . S
C1663 C734 1.657 . S
C1668 C122 1.662 . S
C1673 C698 1.663 . S
C1678 C158 1.656 . S
C1683 C590 1.657 . S
C1688 C194 1.662 . S
C1693 C230 1.656 . S
C1698 C626 1.662 . S
C1703 C662 1.656 . S
C1708 C266 1.662 . S
C1713 C1058 1.606 . S
C1718 C292 1.623 . S
C1723 C1084 1.622 . S
C1728 C338 1.608 . S
C1733 C1130 1.606 . S
C1738 C364 1.623 . S
C1743 C410 1.606 . S
C1748 C1012 1.623 . S
C1753 C986 1.606 . S
C1758 C436 1.623 . S
C1763 C868 1.623 . S
C1768 C482 1.606 . S
C1773 C914 1.607 . S
C1778 C508 1.623 . S
C1783 C940 1.623 . S
C1788 C554 1.606 . S
