# Generated by pormake.
# Topology lcv, (4)-cn, num edge types: 1
# Building blocks:
#     Node 0, Type 0, BuildingBlock: ESEHIV_clean_sbu_0, # of connection points: 4
#     Node 1, Type 0, BuildingBlock: ESEHIV_clean_sbu_0, # of connection points: 4
#     Node 2, Type 0, BuildingBlock: ESEHIV_clean_sbu_0, # of connection points: 4
#     Node 3, Type 0, BuildingBlock: ESEHIV_clean_sbu_0, # of connection points: 4
#     Node 4, Type 0, BuildingBlock: ESEHIV_clean_sbu_0, # of connection points: 4
#     Node 5, Type 0, BuildingBlock: ESEHIV_clean_sbu_0, # of connection points: 4
#     Node 6, Type 0, BuildingBlock: ESEHIV_clean_sbu_0, # of connection points: 4
#     Node 7, Type 0, BuildingBlock: ESEHIV_clean_sbu_0, # of connection points: 4
#     Node 8, Type 0, BuildingBlock: ESEHIV_clean_sbu_0, # of connection points: 4
#     Node 9, Type 0, BuildingBlock: ESEHIV_clean_sbu_0, # of connection points: 4
#     Node 10, Type 0, BuildingBlock: ESEHIV_clean_sbu_0, # of connection points: 4
#     Node 11, Type 0, BuildingBlock: ESEHIV_clean_sbu_0, # of connection points: 4
#     Edge 12, Type (0, 0), BuildingBlock: UVAHIK_clean_linker_0, # of connection points: 2
#     Edge 13, Type (0, 0), BuildingBlock: UVAHIK_clean_linker_0, # of connection points: 2
#     Edge 14, Type (0, 0), BuildingBlock: UVAHIK_clean_linker_0, # of connection points: 2
#     Edge 15, Type (0, 0), BuildingBlock: UVAHIK_clean_linker_0, # of connection points: 2
#     Edge 16, Type (0, 0), BuildingBlock: UVAHIK_clean_linker_0, # of connection points: 2
#     Edge 17, Type (0, 0), BuildingBlock: UVAHIK_clean_linker_0, # of connection points: 2
#     Edge 18, Type (0, 0), BuildingBlock: UVAHIK_clean_linker_0, # of connection points: 2
#     Edge 19, Type (0, 0), BuildingBlock: UVAHIK_clean_linker_0, # of connection points: 2
#     Edge 20, Type (0, 0), BuildingBlock: UVAHIK_clean_linker_0, # of connection points: 2
#     Edge 21, Type (0, 0), BuildingBlock: UVAHIK_clean_linker_0, # of connection points: 2
#     Edge 22, Type (0, 0), BuildingBlock: UVAHIK_clean_linker_0, # of connection points: 2
#     Edge 23, Type (0, 0), BuildingBlock: UVAHIK_clean_linker_0, # of connection points: 2
#     Edge 24, Type (0, 0), BuildingBlock: UVAHIK_clean_linker_0, # of connection points: 2
#     Edge 25, Type (0, 0), BuildingBlock: UVAHIK_clean_linker_0, # of connection points: 2
#     Edge 26, Type (0, 0), BuildingBlock: UVAHIK_clean_linker_0, # of connection points: 2
#     Edge 27, Type (0, 0), BuildingBlock: UVAHIK_clean_linker_0, # of connection points: 2
#     Edge 28, Type (0, 0), BuildingBlock: UVAHIK_clean_linker_0, # of connection points: 2
#     Edge 29, Type (0, 0), BuildingBlock: UVAHIK_clean_linker_0, # of connection points: 2
#     Edge 30, Type (0, 0), BuildingBlock: UVAHIK_clean_linker_0, # of connection points: 2
#     Edge 31, Type (0, 0), BuildingBlock: UVAHIK_clean_linker_0, # of connection points: 2
#     Edge 32, Type (0, 0), BuildingBlock: UVAHIK_clean_linker_0, # of connection points: 2
#     Edge 33, Type (0, 0), BuildingBlock: UVAHIK_clean_linker_0, # of connection points: 2
#     Edge 34, Type (0, 0), BuildingBlock: UVAHIK_clean_linker_0, # of connection points: 2
#     Edge 35, Type (0, 0), BuildingBlock: UVAHIK_clean_linker_0, # of connection points: 2
# Relax obj value: 0.155
# Max RMSD: 0.299
# Mean RMSD: 0.278
data_MOF--net-lcv--node1-ESEHIV_clean_sbu_0--edge1-UVAHIK_clean_linker_0
_symmetry_space_group_name_H-M    P1
_symmetry_Int_Tables_number       1
_symmetry_cell_setting            triclinic
loop_
_symmetry_equiv_pos_as_xyz
'x, y, z'
_cell_length_a     63.271326
_cell_length_b     61.692935
_cell_length_c     62.544306
_cell_angle_alpha  94.397692
_cell_angle_beta   89.965576
_cell_angle_gamma 98.582077
loop_
_atom_site_label
_atom_site_type_symbol
_atom_site_fract_x
_atom_site_fract_y
_atom_site_fract_z
_atom_type_partial_charge
Cu0 Cu 0.06154 0.26378 0.21722 0.0
N1 N 0.05905 0.23908 0.23284 0.0
N2 N 0.06615 0.2074 0.24414 0.0
C3 C 0.07162 0.22333 0.23063 0.0
C4 C 0.04934 0.21342 0.25521 0.0
C5 C 0.04501 0.23302 0.24821 0.0
O6 O 0.08453 0.26128 0.19713 0.0
C7 C 0.08566 0.30066 0.24126 0.0
O8 O 0.10267 0.29323 0.23333 0.0
H9 H 0.0844 0.22351 0.21912 0.0
H10 H 0.03261 0.24224 0.25394 0.0
N11 N 0.03598 0.26439 0.20274 0.0
N12 N 0.00498 0.27487 0.19397 0.0
C13 C 0.02199 0.2784 0.20753 0.0
C14 C 0.02765 0.25146 0.18561 0.0
C15 C 0.0085 0.25787 0.18015 0.0
C16 C 0.09237 0.27571 0.18472 0.0
O17 O 0.08459 0.2943 0.18476 0.0
H18 H 0.02424 0.29082 0.22085 0.0
H19 H 0.03508 0.23842 0.17758 0.0
O20 O 0.06719 0.29022 0.23644 0.0
H21 H 0.04098 0.20455 0.26773 0.0
H22 H 0.99824 0.25083 0.16678 0.0
Cu23 Cu 0.14858 0.79893 0.45003 0.0
N24 N 0.1584 0.80836 0.4236 0.0
N25 N 0.17444 0.83196 0.40115 0.0
C26 C 0.16994 0.82826 0.42173 0.0
C27 C 0.1654 0.81362 0.38949 0.0
C28 C 0.15568 0.79894 0.40343 0.0
O29 O 0.17358 0.80296 0.46862 0.0
C30 C 0.10872 0.81643 0.45715 0.0
O31 O 0.09718 0.82963 0.46766 0.0
H32 H 0.17435 0.8401 0.43526 0.0
H33 H 0.1467 0.78292 0.39903 0.0
N34 N 0.13554 0.76954 0.44918 0.0
N35 N 0.11213 0.74072 0.45794 0.0
C36 C 0.12096 0.76173 0.46342 0.0
C37 C 0.13667 0.75262 0.43451 0.0
C38 C 0.12213 0.73486 0.43979 0.0
C39 C 0.18996 0.79474 0.46217 0.0
O40 O 0.18874 0.78248 0.44395 0.0
H41 H 0.11586 0.77191 0.47672 0.0
H42 H 0.14681 0.75329 0.4206 0.0
O43 O 0.12867 0.81824 0.46145 0.0
H44 H 0.16567 0.81108 0.37218 0.0
H45 H 0.11877 0.71912 0.43062 0.0
Cu46 Cu 0.69712 0.87501 0.69664 0.0
N47 N 0.7167 0.88025 0.71933 0.0
N48 N 0.73315 0.87116 0.7482 0.0
C49 C 0.71518 0.86777 0.7361 0.0
C50 C 0.74664 0.88644 0.73859 0.0
C51 C 0.73641 0.89205 0.72071 0.0
O52 O 0.70318 0.8474 0.6828 0.0
C53 C 0.66541 0.8881 0.72313 0.0
O54 O 0.68229 0.89909 0.7333 0.0
H55 H 0.70172 0.85512 0.73834 0.0
H56 H 0.74332 0.90279 0.70885 0.0
N57 N 0.69995 0.89726 0.67779 0.0
N58 N 0.68731 0.91846 0.65492 0.0
C59 C 0.68284 0.90563 0.67128 0.0
C60 C 0.71612 0.90529 0.66526 0.0
C61 C 0.70827 0.9183 0.65094 0.0
C62 C 0.70779 0.84391 0.66315 0.0
O63 O 0.70344 0.8576 0.64928 0.0
H64 H 0.66691 0.90085 0.67721 0.0
H65 H 0.732 0.9008 0.6655 0.0
O66 O 0.66814 0.8743 0.70751 0.0
H67 H 0.76301 0.89236 0.74353 0.0
H68 H 0.71702 0.92614 0.63803 0.0
Cu69 Cu 0.61651 0.33936 0.9586 0.0
N70 N 0.61023 0.362 0.94281 0.0
N71 N 0.615 0.39336 0.9265 0.0
C72 C 0.62452 0.37834 0.93603 0.0
C73 C 0.59381 0.38594 0.92728 0.0
C74 C 0.59094 0.36662 0.93738 0.0
O75 O 0.64598 0.34677 0.9682 0.0
C76 C 0.61417 0.30951 0.92135 0.0
O77 O 0.62107 0.32703 0.91121 0.0
H78 H 0.64156 0.37916 0.93832 0.0
H79 H 0.57586 0.35694 0.94104 0.0
N80 N 0.5984 0.33734 0.98204 0.0
N81 N 0.56952 0.32775 1.00173 0.0
C82 C 0.57897 0.32509 0.98252 0.0
C83 C 0.60146 0.34814 1.00155 0.0
C84 C 0.58364 0.34228 0.01375 0.0
C85 C 0.65576 0.33435 0.97864 0.0
O86 O 0.64571 0.31507 0.9832 0.0
H87 H 0.57175 0.31483 0.96885 0.0
H88 H 0.6156 0.35956 0.00647 0.0
O89 O 0.61174 0.31146 0.94156 0.0
H90 H 0.58119 0.39418 0.92164 0.0
H91 H 0.58136 0.34814 0.03022 0.0
Cu92 Cu 0.24965 0.03493 0.3004 0.0
N93 N 0.22127 0.03 0.29068 0.0
N94 N 0.19083 0.03925 0.27865 0.0
C95 C 0.21145 0.04625 0.28416 0.0
C96 C 0.18747 0.01762 0.28183 0.0
C97 C 0.20634 0.01191 0.28913 0.0
O98 O 0.26622 0.04953 0.27817 0.0
C99 C 0.24957 0.05063 0.34552 0.0
O100 O 0.25381 0.0664 0.3609 0.0
H101 H 0.21923 0.06311 0.28411 0.0
H102 H 0.20866 0.99588 0.29365 0.0
N103 N 0.26092 0.00968 0.30642 0.0
N104 N 0.28072 0.98973 0.32424 0.0
C105 C 0.27755 0.01009 0.31988 0.0
C106 C 0.25368 0.98824 0.30142 0.0
C107 C 0.26576 0.97587 0.31258 0.0
C108 C 0.26505 0.04109 0.25893 0.0
O109 O 0.25366 0.02161 0.25466 0.0
H110 H 0.28612 0.02515 0.32759 0.0
H111 H 0.24018 0.98196 0.29104 0.0
O112 O 0.25194 0.05534 0.32605 0.0
H113 H 0.17246 0.00676 0.2792 0.0
H114 H 0.26335 0.95813 0.31253 0.0
Cu115 Cu 0.42879 0.92842 0.55189 0.0
N116 N 0.42741 0.94745 0.53028 0.0
N117 N 0.41476 0.96096 0.5015 0.0
C118 C 0.41004 0.94852 0.51822 0.0
C119 C 0.43594 0.96828 0.5034 0.0
C120 C 0.44371 0.95982 0.5211 0.0
O121 O 0.40373 0.90596 0.5488 0.0
C122 C 0.4395 0.96181 0.58592 0.0
O123 O 0.45096 0.97257 0.57152 0.0
H124 H 0.3944 0.93959 0.52122 0.0
H125 H 0.46024 0.9616 0.52624 0.0
N126 N 0.45401 0.91607 0.54945 0.0
N127 N 0.48832 0.912 0.55345 0.0
C128 C 0.47349 0.92553 0.55678 0.0
C129 C 0.45655 0.89586 0.54118 0.0
C130 C 0.47767 0.89331 0.54359 0.0
C131 C 0.39899 0.89468 0.5311 0.0
O132 O 0.41204 0.89734 0.51484 0.0
H133 H 0.47656 0.94176 0.56501 0.0
H134 H 0.4439 0.88362 0.53426 0.0
O135 O 0.4284 0.94331 0.58033 0.0
H136 H 0.44543 0.97796 0.49214 0.0
H137 H 0.48456 0.87874 0.53854 0.0
Cu138 Cu 0.48875 0.07198 0.79753 0.0
N139 N 0.50018 0.06147 0.77198 0.0
N140 N 0.51897 0.0405 0.75112 0.0
C141 C 0.51549 0.04854 0.77127 0.0
C142 C 0.50546 0.04901 0.73855 0.0
C143 C 0.49392 0.06207 0.75149 0.0
O144 O 0.48241 0.04802 0.8162 0.0
C145 C 0.51857 0.11079 0.8024 0.0
O146 O 0.5146 0.11157 0.78188 0.0
H147 H 0.52285 0.04391 0.78552 0.0
H148 H 0.48113 0.0704 0.74644 0.0
N149 N 0.46409 0.08442 0.79381 0.0
N150 N 0.43461 0.09792 0.80429 0.0
C151 C 0.44819 0.08376 0.80812 0.0
C152 C 0.46046 0.0995 0.78035 0.0
C153 C 0.44224 0.10794 0.78683 0.0
C154 C 0.47537 0.028 0.81029 0.0
O155 O 0.47379 0.01331 0.82455 0.0
H156 H 0.44763 0.07442 0.82213 0.0
H157 H 0.47108 0.10508 0.76769 0.0
O158 O 0.50948 0.09456 0.81206 0.0
H159 H 0.50361 0.04556 0.72137 0.0
H160 H 0.43575 0.12114 0.77994 0.0
Cu161 Cu 0.32087 0.19329 0.04506 0.0
N162 N 0.31394 0.17604 0.01962 0.0
N163 N 0.31661 0.16009 0.98666 0.0
C164 C 0.32581 0.1754 1.00178 0.0
C165 C 0.29824 0.15082 0.99536 0.0
C166 C 0.29661 0.16075 0.01568 0.0
O167 O 0.35012 0.20786 0.04291 0.0
C168 C 0.32216 0.18112 0.08785 0.0
O169 O 0.32886 0.20215 0.09252 0.0
H170 H 0.34121 0.18544 1.00022 0.0
H171 H 0.2839 0.15687 0.02697 0.0
N172 N 0.30188 0.21363 0.04867 0.0
N173 N 0.27485 0.23053 0.06086 0.0
C174 C 0.28629 0.21401 0.06329 0.0
C175 C 0.3003 0.23036 0.03651 0.0
C176 C 0.28369 0.24086 0.044 0.0
C177 C 0.35727 0.22672 0.05191 0.0
O178 O 0.34459 0.2373 0.06404 0.0
H179 H 0.28347 0.20237 0.07543 0.0
H180 H 0.31036 0.23443 0.02297 0.0
O181 O 0.31807 0.17414 0.06842 0.0
H182 H 0.28685 0.13773 0.98763 0.0
H183 H 0.27826 0.25469 0.03718 0.0
Cu184 Cu 0.84083 0.45588 0.13241 0.0
N185 N 0.82018 0.47426 0.13057 0.0
N186 N 0.80422 0.50002 0.1167 0.0
C187 C 0.82219 0.4908 0.11761 0.0
C188 C 0.79028 0.48876 0.12971 0.0
C189 C 0.80022 0.47284 0.1383 0.0
O190 O 0.84217 0.44253 0.10336 0.0
C191 C 0.86546 0.48696 0.15949 0.0
O192 O 0.84623 0.48967 0.16603 0.0
H193 H 0.83623 0.49508 0.10802 0.0
H194 H 0.79313 0.4606 0.14872 0.0
N195 N 0.83352 0.43381 0.151 0.0
N196 N 0.84077 0.40624 0.1696 0.0
C197 C 0.84832 0.42589 0.16231 0.0
C198 C 0.81574 0.41887 0.15139 0.0
C199 C 0.82019 0.40176 0.16286 0.0
C200 C 0.84194 0.42202 0.0988 0.0
O201 O 0.84671 0.40974 0.11381 0.0
H202 H 0.86499 0.43317 0.16298 0.0
H203 H 0.8013 0.41932 0.14228 0.0
O204 O 0.8673 0.47315 0.14362 0.0
H205 H 0.77394 0.49145 0.13241 0.0
H206 H 0.80962 0.38654 0.16473 0.0
Cu207 Cu 0.04271 0.55756 0.36439 0.0
N208 N 0.06506 0.5414 0.35974 0.0
N209 N 0.08126 0.51244 0.34999 0.0
C210 C 0.06251 0.52037 0.35161 0.0
C211 C 0.09623 0.52931 0.3574 0.0
C212 C 0.08615 0.54718 0.36346 0.0
O213 O 0.02339 0.55027 0.34005 0.0
C214 C 0.05653 0.60281 0.35483 0.0
O215 O 0.056 0.59616 0.33434 0.0
H216 H 0.04712 0.51123 0.34669 0.0
H217 H 0.09361 0.56318 0.37014 0.0
N218 N 0.02955 0.55009 0.38993 0.0
N219 N 0.02202 0.5536 0.42482 0.0
C220 C 0.03278 0.56282 0.40837 0.0
C221 C 0.01621 0.53205 0.39468 0.0
C222 C 0.01145 0.53422 0.41626 0.0
C223 C 0.00822 0.56063 0.33571 0.0
O224 O 0.00442 0.57735 0.34869 0.0
H225 H 0.04274 0.57873 0.40955 0.0
H226 H 0.01053 0.5183 0.38333 0.0
O227 O 0.05241 0.58886 0.36874 0.0
H228 H 0.1132 0.52875 0.35861 0.0
H229 H 1.00126 0.52232 0.42497 0.0
Cu230 Cu 0.92509 0.69324 0.61707 0.0
N231 N 0.9536 0.69232 0.62447 0.0
N232 N 0.98325 0.67803 0.61559 0.0
C233 C 0.96813 0.68945 0.60917 0.0
C234 C 0.97856 0.67433 0.63614 0.0
C235 C 0.96039 0.68321 0.64161 0.0
O236 O 0.92304 0.68054 0.58742 0.0
C237 C 0.90768 0.6855 0.65626 0.0
O238 O 0.92053 0.70411 0.66058 0.0
H239 H 0.96552 0.69209 0.59257 0.0
H240 H 0.95106 0.67989 0.65578 0.0
N241 N 0.91812 0.72168 0.61934 0.0
N242 N 0.89674 0.74735 0.62341 0.0
C243 C 0.89817 0.72629 0.61694 0.0
C244 C 0.92979 0.7405 0.62757 0.0
C245 C 0.91655 0.7564 0.63021 0.0
C246 C 0.92391 0.69259 0.57168 0.0
O247 O 0.9191 0.71255 0.57492 0.0
H248 H 0.88465 0.71402 0.61195 0.0
H249 H 0.94636 0.74215 0.63254 0.0
O250 O 0.9067 0.67674 0.63709 0.0
H251 H 0.98574 0.66312 0.64537 0.0
H252 H 0.92093 0.77303 0.63731 0.0
Cu253 Cu 0.76546 0.63239 0.8799 0.0
N254 N 0.75106 0.65654 0.87922 0.0
N255 N 0.74367 0.68928 0.87113 0.0
C256 C 0.75615 0.67353 0.86698 0.0
C257 C 0.73019 0.68179 0.88659 0.0
C258 C 0.73488 0.66163 0.89162 0.0
O259 O 0.78468 0.63242 0.85575 0.0
C260 C 0.72691 0.60089 0.87272 0.0
O261 O 0.71816 0.61648 0.86458 0.0
H262 H 0.76885 0.67429 0.85535 0.0
H263 H 0.72731 0.65157 0.90372 0.0
N264 N 0.78074 0.63478 0.90559 0.0
N265 N 0.78971 0.62788 0.93868 0.0
C266 C 0.77596 0.6221 0.922 0.0
C267 C 0.79808 0.64916 0.91199 0.0
C268 C 0.80371 0.6449 0.93241 0.0
C269 C 0.77754 0.62602 0.83695 0.0
O270 O 0.7571 0.61855 0.83424 0.0
H271 H 0.76276 0.60871 0.92152 0.0
H272 H 0.80598 0.66188 0.90252 0.0
O273 O 0.74623 0.60478 0.87926 0.0
H274 H 0.71819 0.69049 0.89417 0.0
H275 H 0.8169 0.65386 0.94197 0.0
C276 C 0.06544 0.16937 0.25483 0.0
C277 C 0.07643 0.18828 0.24632 0.0
C278 C 0.0755 0.15085 0.25674 0.0
C279 C 0.12119 0.1247 0.23597 0.0
H280 H 0.11675 0.0957 0.28898 0.0
C281 C 0.18252 0.07148 0.26112 0.0
C282 C 0.1756 0.05267 0.27203 0.0
C283 C 0.16824 0.08557 0.25612 0.0
C284 C 0.11786 0.10334 0.27392 0.0
H285 H 0.10689 0.20258 0.23368 0.0
H286 H 0.12423 0.17046 0.23688 0.0
H287 H 0.09575 0.12512 0.28405 0.0
H288 H 0.14808 0.03359 0.28575 0.0
H289 H 0.12296 0.0582 0.27685 0.0
H290 H 0.1436 0.10328 0.226 0.0
C291 C 0.10771 0.16975 0.2417 0.0
C292 C 0.10584 0.12023 0.27111 0.0
C293 C 0.09772 0.18822 0.23986 0.0
C294 C 0.15387 0.04789 0.27725 0.0
C295 C 0.13955 0.06209 0.27234 0.0
C296 C 0.13317 0.10784 0.23877 0.0
C297 C 0.09673 0.15082 0.2501 0.0
C298 C 0.10775 0.13142 0.25229 0.0
C299 C 0.14664 0.08123 0.26192 0.0
C300 C 0.13201 0.09729 0.25797 0.0
H301 H 0.04898 0.16872 0.25975 0.0
H302 H 0.06657 0.13646 0.26314 0.0
H303 H 0.12267 0.13269 0.2211 0.0
H304 H 0.19908 0.07545 0.25662 0.0
H305 H 0.17431 0.10026 0.24829 0.0
C306 C 0.36156 0.88224 0.54303 0.0
C307 C 0.37793 0.88063 0.52803 0.0
C308 C 0.34105 0.87057 0.53904 0.0
C309 C 0.31065 0.82379 0.50653 0.0
H310 H 0.26386 0.85783 0.51184 0.0
C311 C 0.22951 0.79516 0.46404 0.0
C312 C 0.2108 0.801 0.47349 0.0
C313 C 0.2495 0.80282 0.47346 0.0
C314 C 0.27661 0.84789 0.51067 0.0
H315 H 0.38581 0.86485 0.49749 0.0
H316 H 0.35011 0.84433 0.49067 0.0
H317 H 0.29966 0.87469 0.52354 0.0
H318 H 0.19836 0.8187 0.50082 0.0
H319 H 0.23324 0.83164 0.51759 0.0
H320 H 0.28769 0.79699 0.49361 0.0
C321 C 0.35313 0.85463 0.50549 0.0
C322 C 0.29716 0.85761 0.51733 0.0
C323 C 0.37356 0.86648 0.50935 0.0
C324 C 0.21248 0.81401 0.49305 0.0
C325 C 0.23251 0.82155 0.50258 0.0
C326 C 0.29005 0.81398 0.50006 0.0
C327 C 0.33657 0.85684 0.52011 0.0
C328 C 0.31447 0.8458 0.51496 0.0
C329 C 0.25132 0.81638 0.4927 0.0
C330 C 0.27282 0.82604 0.50164 0.0
H331 H 0.36439 0.89303 0.55757 0.0
H332 H 0.32863 0.87246 0.55067 0.0
H333 H 0.32364 0.81419 0.50478 0.0
H334 H 0.22883 0.78523 0.44893 0.0
H335 H 0.26358 0.79874 0.46517 0.0
C336 C 0.55091 0.02344 0.75768 0.0
C337 C 0.53273 0.02445 0.74515 0.0
C338 C 0.56358 0.00709 0.75308 0.0
C339 C 0.56318 0.95178 0.72579 0.0
H340 H 0.62432 0.96668 0.73554 0.0
C341 C 0.62979 0.89488 0.70936 0.0
C342 C 0.64477 0.8964 0.72626 0.0
C343 C 0.61353 0.9081 0.71043 0.0
C344 C 0.60726 0.96226 0.73281 0.0
H345 H 0.51365 0.00901 0.7178 0.0
H346 H 0.53623 0.98054 0.70937 0.0
H347 H 0.60205 0.99563 0.73799 0.0
H348 H 0.65305 0.91108 0.75834 0.0
H349 H 0.62475 0.93387 0.76019 0.0
H350 H 0.56881 0.91823 0.72037 0.0
C351 C 0.54048 0.99238 0.72294 0.0
C352 C 0.59447 0.97883 0.73427 0.0
C353 C 0.52772 0.00885 0.72759 0.0
C354 C 0.64193 0.90971 0.74497 0.0
C355 C 0.6258 0.92285 0.746 0.0
C356 C 0.57612 0.93513 0.72408 0.0
C357 C 0.55857 0.99131 0.7357 0.0
C358 C 0.57219 0.97378 0.7314 0.0
C359 C 0.61208 0.92292 0.7284 0.0
C360 C 0.59819 0.94022 0.72818 0.0
H361 H 0.55532 0.03529 0.77119 0.0
H362 H 0.57714 0.00661 0.7635 0.0
H363 H 0.54607 0.94731 0.72354 0.0
H364 H 0.6316 0.88481 0.6947 0.0
H365 H 0.60308 0.90784 0.69667 0.0
C366 C 0.53696 0.3279 0.02372 0.0
C367 C 0.54862 0.31751 0.00789 0.0
C368 C 0.51656 0.31811 0.02941 0.0
C369 C 0.48121 0.26459 0.02775 0.0
H370 H 0.43581 0.30028 0.03482 0.0
C371 C 0.39263 0.22634 0.03386 0.0
C372 C 0.37957 0.23691 0.04815 0.0
C373 C 0.41348 0.23616 0.02984 0.0
C374 C 0.44836 0.29012 0.03321 0.0
H375 H 0.54807 0.28844 0.98596 0.0
H376 H 0.51245 0.2715 0.99571 0.0
H377 H 0.47175 0.31743 0.02627 0.0
H378 H 0.37833 0.266 0.06963 0.0
H379 H 0.4148 0.28299 0.06284 0.0
H380 H 0.45787 0.23727 0.03468 0.0
C381 C 0.51912 0.28718 0.0038 0.0
C382 C 0.46897 0.29996 0.02828 0.0
C383 C 0.53946 0.29701 0.99804 0.0
C384 C 0.38792 0.25744 0.05847 0.0
C385 C 0.4088 0.26725 0.05448 0.0
C386 C 0.46063 0.25476 0.03274 0.0
C387 C 0.50739 0.29764 0.01951 0.0
C388 C 0.48561 0.28729 0.02536 0.0
C389 C 0.42182 0.25677 0.04005 0.0
C390 C 0.4439 0.26737 0.0354 0.0
H391 H 0.54344 0.34377 0.03149 0.0
H392 H 0.50802 0.32651 0.0417 0.0
H393 H 0.49375 0.25442 0.02594 0.0
H394 H 0.38669 0.21056 0.02554 0.0
H395 H 0.42291 0.22776 0.01839 0.0
C396 C 0.22524 0.01481 0.34167 0.0
C397 C 0.2433 0.02783 0.35117 0.0
C398 C 0.21983 0.99286 0.34623 0.0
C399 C 0.22469 0.95515 0.38739 0.0
H400 H 0.21069 0.90951 0.34128 0.0
C401 C 0.20204 0.86473 0.40566 0.0
C402 C 0.18525 0.8521 0.39357 0.0
C403 C 0.21134 0.88525 0.39947 0.0
C404 C 0.21432 0.92206 0.35438 0.0
H405 H 0.26908 0.02891 0.37415 0.0
H406 H 0.25936 0.99057 0.38268 0.0
H407 H 0.22226 0.94745 0.33287 0.0
H408 H 0.16531 0.85078 0.36527 0.0
H409 H 0.18103 0.88691 0.3547 0.0
H410 H 0.21605 0.93021 0.40897 0.0
C411 C 0.24967 0.99714 0.37122 0.0
C412 C 0.22102 0.94377 0.34952 0.0
C413 C 0.2552 0.01903 0.3664 0.0
C414 C 0.17837 0.86011 0.37477 0.0
C415 C 0.18745 0.88082 0.36871 0.0
C416 C 0.21775 0.93353 0.39226 0.0
C417 C 0.2321 0.98375 0.36094 0.0
C418 C 0.2261 0.96055 0.366 0.0
C419 C 0.20384 0.89384 0.38119 0.0
C420 C 0.21231 0.91667 0.37583 0.0
H421 H 0.21509 0.02179 0.33109 0.0
H422 H 0.20582 0.98313 0.33858 0.0
H423 H 0.22828 0.9678 0.40041 0.0
H424 H 0.20788 0.85875 0.42003 0.0
H425 H 0.22428 0.89448 0.40919 0.0
C426 C 0.52131 0.9378 0.56374 0.0
C427 C 0.51048 0.91616 0.56024 0.0
C428 C 0.54252 0.9418 0.57114 0.0
C429 C 0.59061 0.91467 0.57747 0.0
H430 H 0.60536 0.96013 0.62357 0.0
C431 C 0.67269 0.92544 0.61981 0.0
C432 C 0.67146 0.92639 0.64228 0.0
C433 C 0.65513 0.92875 0.60746 0.0
C434 C 0.60153 0.94741 0.61065 0.0
H435 H 0.51368 0.8818 0.56184 0.0
H436 H 0.55045 0.88873 0.57473 0.0
H437 H 0.5703 0.95586 0.60628 0.0
H438 H 0.65167 0.93336 0.66947 0.0
H439 H 0.62111 0.93888 0.64813 0.0
H440 H 0.62137 0.90546 0.58257 0.0
C441 C 0.5427 0.90264 0.57139 0.0
C442 C 0.58149 0.94509 0.60059 0.0
C443 C 0.52153 0.89864 0.56401 0.0
C444 C 0.65298 0.93232 0.65216 0.0
C445 C 0.63551 0.93566 0.63989 0.0
C446 C 0.61063 0.91697 0.58754 0.0
C447 C 0.55343 0.92426 0.57519 0.0
C448 C 0.57558 0.92834 0.58422 0.0
C449 C 0.63607 0.93319 0.61737 0.0
C450 C 0.61616 0.93303 0.60461 0.0
H451 H 0.51344 0.95168 0.56069 0.0
H452 H 0.55038 0.95864 0.57364 0.0
H453 H 0.58673 0.90182 0.56468 0.0
H454 H 0.68667 0.92082 0.61175 0.0
H455 H 0.6562 0.92705 0.59015 0.0
C456 C 0.60072 0.2691 0.92019 0.0
C457 C 0.60779 0.2879 0.90927 0.0
C458 C 0.59335 0.249 0.90884 0.0
C459 C 0.59274 0.21882 0.85506 0.0
H460 H 0.54136 0.18503 0.87609 0.0
C461 C 0.54112 0.14796 0.80411 0.0
C462 C 0.53193 0.12949 0.81453 0.0
C463 C 0.5523 0.16634 0.81581 0.0
C464 C 0.5559 0.19407 0.87015 0.0
H465 H 0.61313 0.30014 0.87782 0.0
H466 H 0.59998 0.26513 0.85802 0.0
H467 H 0.55732 0.21881 0.89619 0.0
H468 H 0.52796 0.11557 0.84536 0.0
H469 H 0.54758 0.14756 0.86572 0.0
H470 H 0.59101 0.19416 0.82878 0.0
C471 C 0.60039 0.26586 0.87537 0.0
C472 C 0.56507 0.21347 0.88169 0.0
C473 C 0.60782 0.28598 0.88673 0.0
C474 C 0.53474 0.12956 0.83683 0.0
C475 C 0.54587 0.14795 0.84853 0.0
C476 C 0.58352 0.19941 0.84347 0.0
C477 C 0.59279 0.24719 0.88629 0.0
C478 C 0.58356 0.22615 0.87426 0.0
C479 C 0.55452 0.16669 0.83821 0.0
C480 C 0.56493 0.18686 0.85085 0.0
H481 H 0.60061 0.26995 0.93755 0.0
H482 H 0.58798 0.23487 0.91777 0.0
H483 H 0.60714 0.22803 0.84902 0.0
H484 H 0.53928 0.14845 0.78694 0.0
H485 H 0.55859 0.18057 0.80738 0.0
C486 C 0.24456 0.2197 0.08489 0.0
C487 C 0.25671 0.23571 0.07325 0.0
C488 C 0.22698 0.22468 0.09681 0.0
C489 C 0.18764 0.26327 0.10175 0.0
H490 H 0.17909 0.24215 0.15837 0.0
C491 C 0.12146 0.28814 0.15897 0.0
C492 C 0.11079 0.27167 0.17109 0.0
C493 C 0.13934 0.28435 0.14681 0.0
C494 C 0.18108 0.24796 0.14249 0.0
H495 H 0.25985 0.26969 0.06536 0.0
H496 H 0.22909 0.27827 0.08601 0.0
H497 H 0.21007 0.23436 0.1377 0.0
H498 H 0.11027 0.23811 0.17953 0.0
H499 H 0.14104 0.23143 0.15816 0.0
H500 H 0.15851 0.27671 0.10648 0.0
C501 C 0.23309 0.26178 0.08569 0.0
C502 C 0.19887 0.24351 0.13064 0.0
C503 C 0.25074 0.25683 0.07383 0.0
C504 C 0.11818 0.25124 0.17051 0.0
C505 C 0.13595 0.24744 0.15835 0.0
C506 C 0.16977 0.26767 0.11358 0.0
C507 C 0.22102 0.24578 0.09736 0.0
C508 C 0.20231 0.251 0.11009 0.0
C509 C 0.1469 0.26399 0.14649 0.0
C510 C 0.16619 0.25994 0.13405 0.0
H511 H 0.24837 0.20316 0.08458 0.0
H512 H 0.21782 0.21187 0.10535 0.0
H513 H 0.18971 0.26907 0.08586 0.0
H514 H 0.11621 0.30408 0.1591 0.0
H515 H 0.14749 0.29752 0.13801 0.0
C516 C 0.28448 0.07582 0.24543 0.0
C517 C 0.2744 0.05399 0.24126 0.0
C518 C 0.29156 0.08861 0.22857 0.0
C519 C 0.28137 0.09259 0.17103 0.0
H520 H 0.33356 0.13462 0.17479 0.0
C521 C 0.31084 0.14342 0.1002 0.0
C522 C 0.31859 0.16582 0.10511 0.0
C523 C 0.3068 0.12913 0.11652 0.0
C524 C 0.31885 0.12309 0.17358 0.0
H525 H 0.26461 0.02826 0.21609 0.0
H526 H 0.27719 0.05047 0.18674 0.0
H527 H 0.3245 0.11062 0.20376 0.0
H528 H 0.32843 0.19068 0.13105 0.0
H529 H 0.3212 0.16578 0.15951 0.0
H530 H 0.27559 0.10516 0.14099 0.0
C531 C 0.27928 0.05783 0.20303 0.0
C532 C 0.31366 0.10932 0.19018 0.0
C533 C 0.27219 0.04505 0.21988 0.0
C534 C 0.32249 0.17352 0.1267 0.0
C535 C 0.31846 0.15921 0.14302 0.0
C536 C 0.28656 0.10633 0.15445 0.0
C537 C 0.28873 0.07988 0.20714 0.0
C538 C 0.2948 0.09397 0.18915 0.0
C539 C 0.31042 0.13687 0.13814 0.0
C540 C 0.30531 0.12182 0.15555 0.0
H541 H 0.28641 0.08324 0.2617 0.0
H542 H 0.29859 0.10558 0.23232 0.0
H543 H 0.26653 0.08125 0.16988 0.0
H544 H 0.30774 0.13691 0.08374 0.0
H545 H 0.30089 0.11196 0.11217 0.0
C546 C 0.38269 0.94781 0.47866 0.0
C547 C 0.4008 0.96355 0.48389 0.0
C548 C 0.36968 0.94982 0.46107 0.0
C549 C 0.37029 0.97596 0.40988 0.0
H550 H 0.30856 0.96354 0.41383 0.0
C551 C 0.31409 0.99889 0.34557 0.0
C552 C 0.2951 0.98454 0.34032 0.0
C553 C 0.32719 0.99509 0.36241 0.0
C554 C 0.32578 0.96675 0.41234 0.0
H555 H 0.41902 0.99404 0.47488 0.0
H556 H 0.39635 0.99753 0.44419 0.0
H557 H 0.33073 0.95986 0.44486 0.0
H558 H 0.27511 0.95472 0.34857 0.0
H559 H 0.29822 0.94782 0.37779 0.0
H560 H 0.36538 0.98288 0.3774 0.0
C561 C 0.39241 0.98345 0.45355 0.0
C562 C 0.33849 0.9647 0.43016 0.0
C563 C 0.40541 0.98147 0.47118 0.0
C564 C 0.28976 0.96595 0.35201 0.0
C565 C 0.30286 0.96217 0.36896 0.0
C566 C 0.3576 0.97796 0.39206 0.0
C567 C 0.37446 0.96758 0.44822 0.0
C568 C 0.3609 0.96944 0.42919 0.0
C569 C 0.32165 0.97682 0.37448 0.0
C570 C 0.33517 0.97355 0.39311 0.0
H571 H 0.3788 0.93356 0.48777 0.0
H572 H 0.35615 0.93715 0.45725 0.0
H573 H 0.38751 0.97933 0.40845 0.0
H574 H 0.31873 0.01325 0.33677 0.0
H575 H 0.34139 0.00686 0.36634 0.0
C576 C 0.48023 0.00402 0.77734 0.0
C577 C 0.47034 0.02078 0.78765 0.0
C578 C 0.47616 0.99765 0.75562 0.0
C579 C 0.45657 0.01769 0.70626 0.0
H580 H 0.45099 0.95637 0.68503 0.0
C581 C 0.42961 0.95792 0.62441 0.0
C582 C 0.44116 0.96996 0.60888 0.0
C583 C 0.43245 0.96455 0.64622 0.0
C584 C 0.45232 0.97356 0.69071 0.0
H585 H 0.44702 0.04257 0.78414 0.0
H586 H 0.4398 0.03155 0.74616 0.0
H587 H 0.45688 0.96651 0.72322 0.0
H588 H 0.46439 0.99876 0.60413 0.0
H589 H 0.46942 0.01026 0.64222 0.0
H590 H 0.45174 0.0247 0.67375 0.0
C591 C 0.4513 0.02387 0.75457 0.0
C592 C 0.45596 0.97939 0.71258 0.0
C593 C 0.4555 0.0303 0.77626 0.0
C594 C 0.4552 0.98913 0.61566 0.0
C595 C 0.45804 0.99577 0.6375 0.0
C596 C 0.45298 0.01186 0.68436 0.0
C597 C 0.46184 0.0077 0.7439 0.0
C598 C 0.45805 1.00151 0.72063 0.0
C599 C 0.44691 0.98338 0.65306 0.0
C600 C 0.45074 0.98971 0.67633 0.0
H601 H 0.49163 0.99634 0.78592 0.0
H602 H 0.48463 0.98525 0.74788 0.0
H603 H 0.4584 0.03491 0.7119 0.0
H604 H 0.41858 0.94313 0.61977 0.0
H605 H 0.42334 0.95485 0.65775 0.0
C606 C 0.4056 0.08753 0.82943 0.0
C607 C 0.41821 0.10379 0.81858 0.0
C608 C 0.39168 0.0933 0.8455 0.0
C609 C 0.36691 0.14026 0.87083 0.0
H610 H 0.36551 0.1063 0.92063 0.0
C611 C 0.33858 0.16954 0.95504 0.0
C612 C 0.32536 0.15393 0.96619 0.0
C613 C 0.34779 0.16335 0.93561 0.0
C614 C 0.36553 0.11579 0.90675 0.0
H615 H 0.42575 0.13879 0.81553 0.0
H616 H 0.40193 0.14905 0.844 0.0
H617 H 0.3851 0.09561 0.8891 0.0
H618 H 0.31133 0.11962 0.96563 0.0
H619 H 0.32753 0.10877 0.93178 0.0
H620 H 0.34794 0.16093 0.88911 0.0
C621 C 0.40232 0.13176 0.83982 0.0
C622 C 0.37669 0.10961 0.88858 0.0
C623 C 0.41601 0.12593 0.82349 0.0
C624 C 0.3213 0.13206 0.95734 0.0
C625 C 0.3307 0.12581 0.93806 0.0
C626 C 0.35595 0.14659 0.88917 0.0
C627 C 0.39033 0.11554 0.85139 0.0
C628 C 0.37758 0.12176 0.87035 0.0
C629 C 0.34418 0.14136 0.92708 0.0
C630 C 0.35519 0.13442 0.90732 0.0
H631 H 0.40687 0.07034 0.82573 0.0
H632 H 0.3823 0.0803 0.8536 0.0
H633 H 0.36698 0.14985 0.85703 0.0
H634 H 0.34182 0.18655 0.96136 0.0
H635 H 0.35822 0.17565 0.92755 0.0
C636 C 0.82245 0.38888 0.07772 0.0
C637 C 0.83016 0.41155 0.07927 0.0
C638 C 0.80687 0.37985 0.06238 0.0
C639 C 0.76322 0.39779 0.03273 0.0
H640 H 0.75459 0.33761 0.00775 0.0
C641 C 0.6884 0.36299 0.98177 0.0
C642 C 0.67796 0.34213 0.98636 0.0
C643 C 0.70886 0.37094 0.98997 0.0
C644 C 0.75676 0.35443 0.0147 0.0
H645 H 0.82919 0.44204 0.06444 0.0
H646 H 0.80252 0.42619 0.03733 0.0
H647 H 0.78818 0.35244 0.02644 0.0
H648 H 0.68117 0.313 0.0027 0.0
H649 H 0.71685 0.32698 0.01718 0.0
H650 H 0.73175 0.39971 0.02142 0.0
C651 C 0.80796 0.41551 0.04844 0.0
C652 C 0.77601 0.36295 0.02538 0.0
C653 C 0.82342 0.42456 0.06386 0.0
C654 C 0.68873 0.32915 0.99887 0.0
C655 C 0.70925 0.33711 0.00706 0.0
C656 C 0.74407 0.38932 0.02202 0.0
C657 C 0.79877 0.39325 0.04814 0.0
C658 C 0.77938 0.38467 0.03477 0.0
C659 C 0.71944 0.35823 0.00295 0.0
C660 C 0.74047 0.36746 0.01309 0.0
H661 H 0.82728 0.37834 0.0893 0.0
H662 H 0.80017 0.36267 0.0627 0.0
H663 H 0.76497 0.41441 0.04015 0.0
H664 H 0.68065 0.37338 0.97206 0.0
H665 H 0.71637 0.38714 0.98623 0.0
C666 C 0.10402 0.48659 0.33305 0.0
C667 C 0.08435 0.49061 0.34179 0.0
C668 C 0.10653 0.46559 0.3242 0.0
C669 C 0.08158 0.40681 0.32241 0.0
H670 H 0.11092 0.40205 0.26819 0.0
C671 C 0.06975 0.32808 0.26539 0.0
C672 C 0.08774 0.32154 0.255 0.0
C673 C 0.07138 0.34816 0.27767 0.0
C674 C 0.10295 0.40309 0.28348 0.0
H675 H 0.05219 0.47531 0.34876 0.0
H676 H 0.05634 0.43913 0.33287 0.0
H677 H 0.11018 0.43821 0.28668 0.0
H678 H 0.12163 0.33092 0.24957 0.0
H679 H 0.1244 0.36614 0.27097 0.0
H680 H 0.0738 0.37172 0.31883 0.0
C681 C 0.06994 0.45208 0.33302 0.0
C682 C 0.10255 0.42382 0.29412 0.0
C683 C 0.06745 0.47299 0.34188 0.0
C684 C 0.10747 0.33546 0.25737 0.0
C685 C 0.10905 0.35568 0.26953 0.0
C686 C 0.08187 0.38613 0.31171 0.0
C687 C 0.08945 0.4481 0.32392 0.0
C688 C 0.09155 0.42597 0.31355 0.0
C689 C 0.09099 0.36227 0.27974 0.0
C690 C 0.09226 0.38406 0.29196 0.0
H691 H 0.11734 0.49975 0.33261 0.0
H692 H 0.12186 0.46306 0.31753 0.0
H693 H 0.07335 0.40779 0.33756 0.0
H694 H 0.05431 0.31778 0.2639 0.0
H695 H 0.05711 0.35288 0.28512 0.0
C696 C 0.95029 0.67101 0.55321 0.0
C697 C 0.93728 0.68762 0.55289 0.0
C698 C 0.96764 0.67084 0.53932 0.0
C699 C 0.99444 0.69424 0.49174 0.0
H700 H 0.04601 0.69767 0.52611 0.0
C701 C 0.08851 0.73446 0.48905 0.0
C702 C 0.0936 0.72885 0.46766 0.0
C703 C 0.06928 0.72518 0.49781 0.0
C704 C 0.03181 0.69677 0.51623 0.0
H705 H 0.93058 0.71513 0.53573 0.0
H706 H 0.9605 0.71446 0.51126 0.0
H707 H 0.01123 0.68882 0.54252 0.0
H708 H 0.08263 0.70817 0.439 0.0
H709 H 0.04906 0.69178 0.45439 0.0
H710 H 0.01506 0.70355 0.4657 0.0
C711 C 0.95757 0.70189 0.52253 0.0
C712 C 0.01187 0.69136 0.52559 0.0
C713 C 0.94041 0.70227 0.53661 0.0
C714 C 0.07931 0.71288 0.45553 0.0
C715 C 0.05993 0.70365 0.46429 0.0
C716 C 0.01446 0.69976 0.48233 0.0
C717 C 0.97201 0.68692 0.52452 0.0
C718 C 0.99296 0.69018 0.51354 0.0
C719 C 0.05455 0.70992 0.48547 0.0
C720 C 0.03339 0.70151 0.4946 0.0
H721 H 0.94827 0.6593 0.56537 0.0
H722 H 0.97833 0.65888 0.54095 0.0
H723 H 0.98011 0.69362 0.48211 0.0
H724 H 0.09923 0.7464 0.49899 0.0
H725 H 0.06565 0.7306 0.51409 0.0
C726 C 0.06838 0.64253 0.34819 0.0
C727 C 0.06011 0.62653 0.36204 0.0
C728 C 0.07136 0.6649 0.35532 0.0
C729 C 0.05297 0.70434 0.39558 0.0
H730 H 0.10879 0.73888 0.38998 0.0
C731 C 0.0814 0.7833 0.44921 0.0
C732 C 0.0981 0.79858 0.44217 0.0
C733 C 0.07362 0.76442 0.43609 0.0
C734 C 0.09289 0.72978 0.39124 0.0
H735 H 0.04824 0.62152 0.39417 0.0
H736 H 0.05321 0.66035 0.40637 0.0
H737 H 0.10174 0.70157 0.3733 0.0
H738 H 0.11675 0.80869 0.41488 0.0
H739 H 0.10352 0.77562 0.39176 0.0
H740 H 0.04401 0.73237 0.41355 0.0
C741 C 0.05739 0.65565 0.39005 0.0
C742 C 0.08894 0.70829 0.38175 0.0
C743 C 0.05473 0.63338 0.38307 0.0
C744 C 0.10508 0.79614 0.42103 0.0
C745 C 0.09729 0.77734 0.40783 0.0
C746 C 0.05679 0.72595 0.40482 0.0
C747 C 0.06575 0.67165 0.37629 0.0
C748 C 0.06911 0.6952 0.38423 0.0
C749 C 0.08221 0.76068 0.41556 0.0
C750 C 0.07699 0.73881 0.40325 0.0
H751 H 0.07266 0.63778 0.33191 0.0
H752 H 0.07784 0.67694 0.3444 0.0
H753 H 0.03744 0.69465 0.39753 0.0
H754 H 0.07544 0.78517 0.46539 0.0
H755 H 0.06191 0.75218 0.4427 0.0
C756 C 0.72359 0.56307 0.8853 0.0
C757 C 0.71437 0.57893 0.87504 0.0
C758 C 0.71187 0.54251 0.88814 0.0
C759 C 0.65676 0.51336 0.8908 0.0
H760 H 0.68561 0.46198 0.88686 0.0
C761 C 0.61433 0.42517 0.90452 0.0
C762 C 0.62529 0.41359 0.91837 0.0
C763 C 0.62427 0.44493 0.897 0.0
C764 C 0.67735 0.47619 0.88807 0.0
H765 H 0.68558 0.58549 0.85955 0.0
H766 H 0.66511 0.5493 0.86429 0.0
H767 H 0.70456 0.49715 0.87722 0.0
H768 H 0.65542 0.4143 0.93532 0.0
H769 H 0.67266 0.44823 0.92191 0.0
H770 H 0.62955 0.49223 0.90179 0.0
C771 C 0.68139 0.55296 0.87035 0.0
C772 C 0.68821 0.49636 0.8826 0.0
C773 C 0.69314 0.57365 0.86754 0.0
C774 C 0.64648 0.42231 0.92438 0.0
C775 C 0.65643 0.44188 0.91671 0.0
C776 C 0.64583 0.49309 0.89615 0.0
C777 C 0.69063 0.53716 0.88071 0.0
C778 C 0.67823 0.51532 0.88437 0.0
C779 C 0.64546 0.45342 0.90297 0.0
C780 C 0.65619 0.47442 0.89529 0.0
H781 H 0.73985 0.56659 0.89143 0.0
H782 H 0.71939 0.53095 0.89658 0.0
H783 H 0.64865 0.52765 0.89253 0.0
H784 H 0.59812 0.41896 0.89929 0.0
H785 H 0.61548 0.45342 0.8863 0.0
C786 C 0.72101 0.84921 0.77838 0.0
C787 C 0.73764 0.85803 0.76525 0.0
C788 C 0.7243 0.83379 0.79275 0.0
C789 C 0.75794 0.79127 0.79946 0.0
H790 H 0.72941 0.7869 0.85419 0.0
C791 C 0.76401 0.71949 0.85225 0.0
C792 C 0.74487 0.70993 0.86142 0.0
C793 C 0.76507 0.73926 0.84249 0.0
C794 C 0.73738 0.78782 0.83889 0.0
H795 H 0.77109 0.85837 0.75765 0.0
H796 H 0.77699 0.83152 0.78302 0.0
H797 H 0.72851 0.81935 0.83441 0.0
H798 H 0.71185 0.71384 0.86747 0.0
H799 H 0.71367 0.74825 0.85042 0.0
H800 H 0.7664 0.75955 0.80367 0.0
C801 C 0.76129 0.83639 0.78198 0.0
C802 C 0.73691 0.80644 0.82758 0.0
C803 C 0.758 0.85195 0.76763 0.0
C804 C 0.72691 0.72083 0.86083 0.0
C805 C 0.72797 0.7406 0.85106 0.0
C806 C 0.75842 0.77265 0.81077 0.0
C807 C 0.74433 0.82675 0.79433 0.0
C808 C 0.74688 0.80822 0.80755 0.0
C809 C 0.74703 0.75 0.84167 0.0
C810 C 0.74784 0.77054 0.83045 0.0
H811 H 0.70522 0.85377 0.77703 0.0
H812 H 0.71084 0.82661 0.80187 0.0
H813 H 0.7655 0.79192 0.78394 0.0
H814 H 0.77828 0.71183 0.85276 0.0
H815 H 0.78008 0.74621 0.8357 0.0
C816 C 0.96754 0.27778 0.18428 0.0
C817 C 0.98722 0.28713 0.19394 0.0
C818 C 0.95051 0.28988 0.1839 0.0
C819 C 0.93951 0.34717 0.18759 0.0
H820 H 0.88084 0.32065 0.19594 0.0
C821 C 0.87213 0.39973 0.19014 0.0
C822 C 0.85388 0.39139 0.17761 0.0
C823 C 0.88709 0.3862 0.19475 0.0
C824 C 0.89713 0.32825 0.19346 0.0
H825 H 0.00424 0.31666 0.21079 0.0
H826 H 0.97456 0.33745 0.21052 0.0
H827 H 0.9097 0.29859 0.19845 0.0
H828 H 0.8365 0.36198 0.16102 0.0
H829 H 0.86266 0.33829 0.16902 0.0
H830 H 0.92708 0.37669 0.18235 0.0
C831 C 0.97233 0.32085 0.20302 0.0
C832 C 0.91366 0.31561 0.19485 0.0
C833 C 0.98932 0.30878 0.2034 0.0
C834 C 0.85027 0.36885 0.17089 0.0
C835 C 0.86532 0.35529 0.17544 0.0
C836 C 0.92304 0.35976 0.18622 0.0
C837 C 0.95276 0.31163 0.19312 0.0
C838 C 0.93506 0.32494 0.19192 0.0
C839 C 0.88423 0.36398 0.18685 0.0
C840 C 0.90164 0.3505 0.18914 0.0
H841 H 0.96522 0.26109 0.17706 0.0
H842 H 0.93572 0.28232 0.17598 0.0
H843 H 0.95573 0.35478 0.18479 0.0
H844 H 0.87516 0.41696 0.19575 0.0
H845 H 0.90123 0.39331 0.20402 0.0
C846 C 0.87323 0.76927 0.64439 0.0
C847 C 0.87732 0.7568 0.62552 0.0
C848 C 0.85351 0.77673 0.64721 0.0
C849 C 0.8094 0.79377 0.62037 0.0
H850 H 0.7749 0.77441 0.66853 0.0
C851 C 0.72792 0.82319 0.63584 0.0
C852 C 0.72285 0.8282 0.65736 0.0
C853 C 0.74487 0.81155 0.6307 0.0
C854 C 0.78438 0.78028 0.65516 0.0
H855 H 0.86446 0.7429 0.59458 0.0
H856 H 0.83016 0.75679 0.59915 0.0
H857 H 0.80924 0.76172 0.66236 0.0
H858 H 0.73118 0.82412 0.69033 0.0
H859 H 0.76094 0.80484 0.68153 0.0
H860 H 0.7854 0.81334 0.61372 0.0
C861 C 0.84209 0.76041 0.61185 0.0
C862 C 0.804 0.77286 0.6516 0.0
C863 C 0.86161 0.75249 0.60925 0.0
C864 C 0.73447 0.82042 0.67355 0.0
C865 C 0.75162 0.8092 0.66844 0.0
C866 C 0.78999 0.80163 0.6242 0.0
C867 C 0.83777 0.77229 0.63099 0.0
C868 C 0.81673 0.77967 0.63428 0.0
C869 C 0.75742 0.80499 0.64696 0.0
C870 C 0.77725 0.79517 0.64179 0.0
H871 H 0.885 0.77257 0.65723 0.0
H872 H 0.85052 0.78593 0.66208 0.0
H873 H 0.81902 0.79927 0.60693 0.0
H874 H 0.71921 0.82886 0.62299 0.0
H875 H 0.74841 0.80816 0.61394 0.0
C876 C 0.78398 0.62075 0.79744 0.0
C877 C 0.79167 0.62859 0.81813 0.0
C878 C 0.79678 0.6246 0.77947 0.0
C879 C 0.8413 0.6638 0.76171 0.0
H880 H 0.84573 0.62004 0.7146 0.0
C881 C 0.90145 0.68193 0.69512 0.0
C882 C 0.89503 0.67543 0.67382 0.0
C883 C 0.88899 0.67431 0.71213 0.0
C884 C 0.84445 0.6325 0.72751 0.0
H885 H 0.8191 0.64604 0.8362 0.0
H886 H 0.84138 0.65279 0.80487 0.0
H887 H 0.82379 0.61008 0.74567 0.0
H888 H 0.87086 0.65519 0.65358 0.0
H889 H 0.8486 0.64211 0.68352 0.0
H890 H 0.86149 0.68636 0.74366 0.0
C891 C 0.82538 0.64381 0.80254 0.0
C892 C 0.83195 0.62678 0.74532 0.0
C893 C 0.81265 0.63984 0.8205 0.0
C894 C 0.87618 0.66046 0.66986 0.0
C895 C 0.86349 0.65295 0.68701 0.0
C896 C 0.85362 0.66954 0.74394 0.0
C897 C 0.81748 0.63653 0.7818 0.0
C898 C 0.83045 0.64234 0.7627 0.0
C899 C 0.86958 0.6602 0.70834 0.0
C900 C 0.8556 0.65393 0.72673 0.0
H901 H 0.76791 0.61197 0.79505 0.0
H902 H 0.79021 0.6189 0.7637 0.0
H903 H 0.84006 0.67631 0.77459 0.0
H904 H 0.91609 0.69316 0.69874 0.0
H905 H 0.89453 0.67973 0.72832 0.0
C906 C 0.77051 0.60601 0.96626 0.0
C907 C 0.78952 0.61767 0.95873 0.0
C908 C 0.77045 0.59533 0.98518 0.0
C909 C 0.8016 0.59287 0.03488 0.0
H910 H 0.77085 0.53352 0.03404 0.0
C911 C 0.81749 0.5317 0.09603 0.0
C912 C 0.80039 0.51646 0.10256 0.0
C913 C 0.81447 0.546 0.08043 0.0
C914 C 0.77921 0.55022 0.03473 0.0
H915 H 0.82337 0.62738 0.96549 0.0
H916 H 0.82327 0.60876 0.99848 0.0
H917 H 0.76897 0.55468 0.00298 0.0
H918 H 0.76646 0.50497 0.09842 0.0
H919 H 0.76107 0.53024 0.07137 0.0
H920 H 0.81211 0.58825 0.06653 0.0
C921 C 0.80833 0.6081 0.98984 0.0
C922 C 0.77816 0.56235 0.01688 0.0
C923 C 0.8084 0.61877 0.97089 0.0
C924 C 0.77995 0.51655 0.09381 0.0
C925 C 0.77692 0.53087 0.07813 0.0
C926 C 0.80262 0.58074 0.05276 0.0
C927 C 0.78939 0.59607 0.9971 0.0
C928 C 0.78956 0.58372 0.01662 0.0
C929 C 0.79425 0.54547 0.07096 0.0
C930 C 0.79166 0.55915 0.0528 0.0
H931 H 0.75558 0.60518 0.95759 0.0
H932 H 0.75551 0.58653 0.99051 0.0
H933 H 0.81028 0.60942 0.03535 0.0
H934 H 0.83337 0.53226 0.10268 0.0
H935 H 0.82822 0.55689 0.07522 0.0
C936 C 0.90323 0.48859 0.1727 0.0
C937 C 0.88416 0.49768 0.17254 0.0
C938 C 0.91938 0.49681 0.1878 0.0
C939 C 0.93815 0.54397 0.22726 0.0
H940 H 0.95891 0.49988 0.25923 0.0
C941 C 0.97822 0.56486 0.31077 0.0
C942 C 0.99546 0.55412 0.31574 0.0
C943 C 0.96638 0.5587 0.2918 0.0
C944 C 0.95357 0.51245 0.25029 0.0
H945 H 0.86757 0.5233 0.18712 0.0
H946 H 0.89562 0.53763 0.2132 0.0
H947 H 0.93636 0.48849 0.2276 0.0
H948 H 0.0139 0.52858 0.30452 0.0
H949 H 0.99348 0.51808 0.27145 0.0
H950 H 0.9551 0.56792 0.25012 0.0
C951 C 0.89821 0.5242 0.20178 0.0
C952 C 0.94067 0.5059 0.23211 0.0
C953 C 0.88207 0.51589 0.18689 0.0
C954 C 1.00064 0.53714 0.30128 0.0
C955 C 0.98886 0.53103 0.28232 0.0
C956 C 0.95111 0.55053 0.24541 0.0
C957 C 0.91682 0.51441 0.2028 0.0
C958 C 0.93253 0.52156 0.22057 0.0
C959 C 0.97155 0.5417 0.27734 0.0
C960 C 0.95872 0.53483 0.25735 0.0
H961 H 0.90525 0.47448 0.16189 0.0
H962 H 0.93364 0.48906 0.18806 0.0
H963 H 0.93235 0.55646 0.21856 0.0
H964 H 0.97377 0.57797 0.32157 0.0
H965 H 0.95296 0.56705 0.28864 0.0
C966 C 0.00442 0.55714 0.46014 0.0
C967 C 0.02179 0.56307 0.44666 0.0
C968 C 0.00356 0.56774 0.48068 0.0
C969 C 0.0228 0.62044 0.5102 0.0
H970 H 0.0031 0.59074 0.56051 0.0
C971 C 0.01094 0.67079 0.5894 0.0
C972 C 0.99276 0.66329 0.60102 0.0
C973 C 0.01813 0.65711 0.5729 0.0
C974 C 0.00845 0.59936 0.5466 0.0
H975 H 0.05257 0.5838 0.44496 0.0
H976 H 0.05083 0.60244 0.48043 0.0
H977 H 0.00786 0.56918 0.52695 0.0
H978 H 0.96769 0.63605 0.60478 0.0
H979 H 0.97937 0.61253 0.57552 0.0
H980 H 0.02282 0.65048 0.5293 0.0
C981 C 0.03772 0.58985 0.47498 0.0
C982 C 0.01122 0.58695 0.52738 0.0
C983 C 0.03865 0.5792 0.45457 0.0
C984 C 0.98207 0.64188 0.59625 0.0
C985 C 0.98889 0.62841 0.57951 0.0
C986 C 0.01987 0.63281 0.5293 0.0
C987 C 0.02001 0.58453 0.48811 0.0
C988 C 0.01819 0.59739 0.50892 0.0
C989 C 0.0068 0.63594 0.56728 0.0
C990 C 0.01229 0.62253 0.54771 0.0
H991 H 0.99112 0.54489 0.45457 0.0
H992 H 0.98962 0.56339 0.49041 0.0
H993 H 0.02799 0.629 0.49618 0.0
H994 H 0.0192 0.68739 0.59275 0.0
H995 H 0.03222 0.66341 0.56417 0.0
loop_
_geom_bond_atom_site_label_1
_geom_bond_atom_site_label_2
_geom_bond_distance
_geom_bond_site_symmetry_2
_ccdc_geom_bond_type
Cu0 N1 1.999 . S
Cu0 O6 1.974 . S
Cu0 N11 1.985 . S
Cu0 O20 1.959 . S
N1 Cu0 1.999 . S
N1 C3 1.263 . S
N1 C5 1.389 . S
N2 C3 1.358 . S
N2 C4 1.400 . S
C3 N1 1.263 . S
C3 N2 1.358 . S
C3 H9 0.930 . S
C4 N2 1.400 . S
C4 C5 1.351 . S
C4 H21 0.930 . S
C5 N1 1.389 . S
C5 C4 1.351 . S
C5 H10 0.930 . S
O6 Cu0 1.974 . S
O6 C16 1.282 . S
C7 O8 1.261 . S
C7 O20 1.251 . S
O8 C7 1.261 . S
H9 C3 0.930 . S
H10 C5 0.930 . S
N11 Cu0 1.985 . S
N11 C13 1.335 . S
N11 C14 1.390 . S
N12 C13 1.354 . S
N12 C15 1.359 . S
C13 N11 1.335 . S
C13 N12 1.354 . S
C13 H18 0.930 1_455 S
C14 N11 1.390 . S
C14 C15 1.346 . S
C14 H19 0.930 . S
C15 N12 1.359 . S
C15 C14 1.346 . S
C15 H22 0.929 . S
C16 O6 1.282 . S
C16 O17 1.216 . S
O17 C16 1.216 . S
H18 C13 0.930 1_655 S
H19 C14 0.930 . S
O20 Cu0 1.959 . S
O20 C7 1.251 . S
H21 C4 0.930 . S
H22 C15 0.929 . S
Cu23 N24 1.999 . S
Cu23 O29 1.974 . S
Cu23 N34 1.985 . S
Cu23 O43 1.959 . S
N24 Cu23 1.999 . S
N24 C26 1.263 . S
N24 C28 1.389 . S
N25 C26 1.358 . S
N25 C27 1.400 . S
C26 N24 1.263 . S
C26 N25 1.358 . S
C26 H32 0.930 . S
C27 N25 1.400 . S
C27 C28 1.351 . S
C27 H44 0.930 . S
C28 N24 1.389 . S
C28 C27 1.351 . S
C28 H33 0.930 . S
O29 Cu23 1.974 . S
O29 C39 1.282 . S
C30 O31 1.261 . S
C30 O43 1.251 . S
O31 C30 1.261 . S
H32 C26 0.930 . S
H33 C28 0.930 . S
N34 Cu23 1.985 . S
N34 C36 1.335 . S
N34 C37 1.390 . S
N35 C36 1.345 . S
N35 C38 1.336 . S
C36 N34 1.335 . S
C36 N35 1.345 . S
C36 H41 0.930 . S
C37 N34 1.390 . S
C37 C38 1.346 . S
C37 H42 0.930 . S
C38 N35 1.336 . S
C38 C37 1.346 . S
C38 H45 0.929 . S
C39 O29 1.282 . S
C39 O40 1.216 . S
O40 C39 1.216 . S
H41 C36 0.930 . S
H42 C37 0.930 . S
O43 Cu23 1.959 . S
O43 C30 1.251 . S
H44 C27 0.930 . S
H45 C38 0.929 . S
Cu46 N47 1.999 . S
Cu46 O52 1.974 . S
Cu46 N57 1.985 . S
Cu46 O66 1.959 . S
N47 Cu46 1.999 . S
N47 C49 1.263 . S
N47 C51 1.389 . S
N48 C49 1.358 . S
N48 C50 1.400 . S
C49 N47 1.263 . S
C49 N48 1.358 . S
C49 H55 0.930 . S
C50 N48 1.400 . S
C50 C51 1.351 . S
C50 H67 0.930 . S
C51 N47 1.389 . S
C51 C50 1.351 . S
C51 H56 0.930 . S
O52 Cu46 1.974 . S
O52 C62 1.282 . S
C53 O54 1.261 . S
C53 O66 1.251 . S
O54 C53 1.261 . S
H55 C49 0.930 . S
H56 C51 0.930 . S
N57 Cu46 1.985 . S
N57 C59 1.335 . S
N57 C60 1.390 . S
N58 C59 1.345 . S
N58 C61 1.336 . S
C59 N57 1.335 . S
C59 N58 1.345 . S
C59 H64 0.930 . S
C60 N57 1.390 . S
C60 C61 1.346 . S
C60 H65 0.930 . S
C61 N58 1.336 . S
C61 C60 1.346 . S
C61 H68 0.929 . S
C62 O52 1.282 . S
C62 O63 1.216 . S
O63 C62 1.216 . S
H64 C59 0.930 . S
H65 C60 0.930 . S
O66 Cu46 1.959 . S
O66 C53 1.251 . S
H67 C50 0.930 . S
H68 C61 0.929 . S
Cu69 N70 1.999 . S
Cu69 O75 1.974 . S
Cu69 N80 1.985 . S
Cu69 O89 1.959 . S
N70 Cu69 1.999 . S
N70 C72 1.263 . S
N70 C74 1.389 . S
N71 C72 1.358 . S
N71 C73 1.400 . S
C72 N70 1.263 . S
C72 N71 1.358 . S
C72 H78 0.930 . S
C73 N71 1.400 . S
C73 C74 1.351 . S
C73 H90 0.930 . S
C74 N70 1.389 . S
C74 C73 1.351 . S
C74 H79 0.930 . S
O75 Cu69 1.974 . S
O75 C85 1.282 . S
C76 O77 1.261 . S
C76 O89 1.251 . S
O77 C76 1.261 . S
H78 C72 0.930 . S
H79 C74 0.930 . S
N80 Cu69 1.985 . S
N80 C82 1.335 . S
N80 C83 1.390 . S
N81 C82 1.345 . S
N81 C84 1.336 1_556 S
C82 N80 1.335 . S
C82 N81 1.345 . S
C82 H87 0.930 . S
C83 N80 1.390 . S
C83 C84 1.346 1_556 S
C83 H88 0.930 1_556 S
C84 N81 1.336 1_554 S
C84 C83 1.346 1_554 S
C84 H91 0.929 . S
C85 O75 1.282 . S
C85 O86 1.216 . S
O86 C85 1.216 . S
H87 C82 0.930 . S
H88 C83 0.930 1_554 S
O89 Cu69 1.959 . S
O89 C76 1.251 . S
H90 C73 0.930 . S
H91 C84 0.929 . S
Cu92 N93 1.999 . S
Cu92 O98 1.974 . S
Cu92 N103 1.985 1_545 S
Cu92 O112 1.959 1_545 S
N93 Cu92 1.999 . S
N93 C95 1.263 . S
N93 C97 1.389 . S
N94 C95 1.358 . S
N94 C96 1.400 . S
C95 N93 1.263 . S
C95 N94 1.358 . S
C95 H101 0.930 . S
C96 N94 1.400 . S
C96 C97 1.351 . S
C96 H113 0.930 . S
C97 N93 1.389 . S
C97 C96 1.351 . S
C97 H102 0.930 . S
O98 Cu92 1.974 . S
O98 C108 1.282 . S
C99 O100 1.261 . S
C99 O112 1.251 . S
O100 C99 1.261 . S
H101 C95 0.930 . S
H102 C97 0.930 . S
N103 Cu92 1.985 1_565 S
N103 C105 1.335 . S
N103 C106 1.391 . S
N104 C105 1.345 . S
N104 C107 1.336 . S
C105 N103 1.335 . S
C105 N104 1.345 . S
C105 H110 0.930 . S
C106 N103 1.391 . S
C106 C107 1.364 . S
C106 H111 0.916 1_565 S
C107 N104 1.336 . S
C107 C106 1.364 . S
C107 H114 0.929 . S
C108 O98 1.282 . S
C108 O109 1.216 . S
O109 C108 1.216 . S
H110 C105 0.930 . S
H111 C106 0.916 1_545 S
O112 Cu92 1.959 1_565 S
O112 C99 1.251 . S
H113 C96 0.930 . S
H114 C107 0.929 . S
Cu115 N116 1.999 . S
Cu115 O121 1.974 . S
Cu115 N126 1.985 . S
Cu115 O135 1.959 . S
N116 Cu115 1.999 . S
N116 C118 1.263 . S
N116 C120 1.389 . S
N117 C118 1.358 . S
N117 C119 1.400 . S
C118 N116 1.263 . S
C118 N117 1.358 . S
C118 H124 0.930 . S
C119 N117 1.400 . S
C119 C120 1.351 . S
C119 H136 0.930 1_565 S
C120 N116 1.389 . S
C120 C119 1.351 . S
C120 H125 0.930 . S
O121 Cu115 1.974 . S
O121 C131 1.282 . S
C122 O123 1.261 . S
C122 O135 1.251 . S
O123 C122 1.261 . S
H124 C118 0.930 . S
H125 C120 0.930 . S
N126 Cu115 1.985 . S
N126 C128 1.335 . S
N126 C129 1.390 . S
N127 C128 1.345 . S
N127 C130 1.336 . S
C128 N126 1.335 . S
C128 N127 1.345 . S
C128 H133 0.930 . S
C129 N126 1.390 . S
C129 C130 1.346 . S
C129 H134 0.930 . S
C130 N127 1.336 . S
C130 C129 1.346 . S
C130 H137 0.929 . S
C131 O121 1.282 . S
C131 O132 1.216 . S
O132 C131 1.216 . S
H133 C128 0.930 . S
H134 C129 0.930 . S
O135 Cu115 1.959 . S
O135 C122 1.251 . S
H136 C119 0.930 1_545 S
H137 C130 0.929 . S
Cu138 N139 1.999 . S
Cu138 O144 1.974 . S
Cu138 N149 1.985 . S
Cu138 O158 1.959 . S
N139 Cu138 1.999 . S
N139 C141 1.263 . S
N139 C143 1.389 . S
N140 C141 1.358 . S
N140 C142 1.400 . S
C141 N139 1.263 . S
C141 N140 1.358 . S
C141 H147 0.930 . S
C142 N140 1.400 . S
C142 C143 1.351 . S
C142 H159 0.930 . S
C143 N139 1.389 . S
C143 C142 1.351 . S
C143 H148 0.930 . S
O144 Cu138 1.974 . S
O144 C154 1.282 . S
C145 O146 1.261 . S
C145 O158 1.251 . S
O146 C145 1.261 . S
H147 C141 0.930 . S
H148 C143 0.930 . S
N149 Cu138 1.985 . S
N149 C151 1.335 . S
N149 C152 1.390 . S
N150 C151 1.345 . S
N150 C153 1.336 . S
C151 N149 1.335 . S
C151 N150 1.345 . S
C151 H156 0.930 . S
C152 N149 1.390 . S
C152 C153 1.346 . S
C152 H157 0.930 . S
C153 N150 1.336 . S
C153 C152 1.346 . S
C153 H160 0.929 . S
C154 O144 1.282 . S
C154 O155 1.216 . S
O155 C154 1.216 . S
H156 C151 0.930 . S
H157 C152 0.930 . S
O158 Cu138 1.959 . S
O158 C145 1.251 . S
H159 C142 0.930 . S
H160 C153 0.929 . S
Cu161 N162 1.999 1_554 S
Cu161 O167 1.974 1_554 S
Cu161 N172 1.985 . S
Cu161 O181 1.959 . S
N162 Cu161 1.999 1_556 S
N162 C164 1.263 . S
N162 C166 1.389 . S
N163 C164 1.358 . S
N163 C165 1.400 . S
C164 N162 1.263 . S
C164 N163 1.358 . S
C164 H170 0.930 . S
C165 N163 1.400 . S
C165 C166 1.351 . S
C165 H182 0.930 . S
C166 N162 1.389 . S
C166 C165 1.351 . S
C166 H171 0.930 . S
O167 Cu161 1.974 1_556 S
O167 C177 1.282 1_556 S
C168 O169 1.261 . S
C168 O181 1.251 . S
O169 C168 1.261 . S
H170 C164 0.930 . S
H171 C166 0.930 . S
N172 Cu161 1.985 . S
N172 C174 1.335 . S
N172 C175 1.390 . S
N173 C174 1.345 . S
N173 C176 1.336 . S
C174 N172 1.335 . S
C174 N173 1.345 . S
C174 H179 0.930 . S
C175 N172 1.390 . S
C175 C176 1.346 . S
C175 H180 0.930 . S
C176 N173 1.336 . S
C176 C175 1.346 . S
C176 H183 0.929 . S
C177 O167 1.282 1_554 S
C177 O178 1.216 . S
O178 C177 1.216 . S
H179 C174 0.930 . S
H180 C175 0.930 . S
O181 Cu161 1.959 . S
O181 C168 1.251 . S
H182 C165 0.930 . S
H183 C176 0.929 . S
Cu184 N185 1.999 . S
Cu184 O190 1.974 . S
Cu184 N195 1.985 . S
Cu184 O204 1.959 . S
N185 Cu184 1.999 . S
N185 C187 1.263 . S
N185 C189 1.389 . S
N186 C187 1.358 . S
N186 C188 1.400 . S
C187 N185 1.263 . S
C187 N186 1.358 . S
C187 H193 0.930 . S
C188 N186 1.400 . S
C188 C189 1.351 . S
C188 H205 0.930 . S
C189 N185 1.389 . S
C189 C188 1.351 . S
C189 H194 0.930 . S
O190 Cu184 1.974 . S
O190 C200 1.282 . S
C191 O192 1.261 . S
C191 O204 1.251 . S
O192 C191 1.261 . S
H193 C187 0.930 . S
H194 C189 0.930 . S
N195 Cu184 1.985 . S
N195 C197 1.335 . S
N195 C198 1.390 . S
N196 C197 1.345 . S
N196 C199 1.336 . S
C197 N195 1.335 . S
C197 N196 1.345 . S
C197 H202 0.930 . S
C198 N195 1.390 . S
C198 C199 1.346 . S
C198 H203 0.930 . S
C199 N196 1.336 . S
C199 C198 1.346 . S
C199 H206 0.929 . S
C200 O190 1.282 . S
C200 O201 1.216 . S
O201 C200 1.216 . S
H202 C197 0.930 . S
H203 C198 0.930 . S
O204 Cu184 1.959 . S
O204 C191 1.251 . S
H205 C188 0.930 . S
H206 C199 0.929 . S
Cu207 N208 1.999 1_655 S
Cu207 O213 1.974 . S
Cu207 N218 1.985 . S
Cu207 O227 1.959 1_655 S
N208 Cu207 1.999 1_455 S
N208 C210 1.263 . S
N208 C212 1.389 . S
N209 C210 1.358 . S
N209 C211 1.400 . S
C210 N208 1.263 . S
C210 N209 1.358 . S
C210 H216 0.930 1_455 S
C211 N209 1.400 . S
C211 C212 1.351 . S
C211 H228 0.930 . S
C212 N208 1.389 . S
C212 C211 1.351 . S
C212 H217 0.930 . S
O213 Cu207 1.974 . S
O213 C223 1.282 . S
C214 O215 1.261 . S
C214 O227 1.251 . S
O215 C214 1.261 . S
H216 C210 0.930 1_655 S
H217 C212 0.930 . S
N218 Cu207 1.985 . S
N218 C220 1.335 . S
N218 C221 1.390 . S
N219 C220 1.345 . S
N219 C222 1.336 . S
C220 N218 1.335 . S
C220 N219 1.345 . S
C220 H225 0.930 . S
C221 N218 1.390 . S
C221 C222 1.346 . S
C221 H226 0.930 . S
C222 N219 1.336 . S
C222 C221 1.346 . S
C222 H229 0.929 . S
C223 O213 1.282 . S
C223 O224 1.216 . S
O224 C223 1.216 . S
H225 C220 0.930 . S
H226 C221 0.930 . S
O227 Cu207 1.959 1_455 S
O227 C214 1.251 . S
H228 C211 0.930 . S
H229 C222 0.929 . S
Cu230 N231 1.999 . S
Cu230 O236 1.974 . S
Cu230 N241 1.985 . S
Cu230 O250 1.959 . S
N231 Cu230 1.999 . S
N231 C233 1.263 . S
N231 C235 1.389 . S
N232 C233 1.358 . S
N232 C234 1.400 . S
C233 N231 1.263 . S
C233 N232 1.358 . S
C233 H239 0.930 . S
C234 N232 1.400 . S
C234 C235 1.351 . S
C234 H251 0.930 . S
C235 N231 1.389 . S
C235 C234 1.351 . S
C235 H240 0.930 . S
O236 Cu230 1.974 . S
O236 C246 1.282 . S
C237 O238 1.261 . S
C237 O250 1.251 . S
O238 C237 1.261 . S
H239 C233 0.930 . S
H240 C235 0.930 . S
N241 Cu230 1.985 . S
N241 C243 1.335 . S
N241 C244 1.390 . S
N242 C243 1.345 . S
N242 C245 1.336 . S
C243 N241 1.335 . S
C243 N242 1.345 . S
C243 H248 0.930 . S
C244 N241 1.390 . S
C244 C245 1.346 . S
C244 H249 0.930 . S
C245 N242 1.336 . S
C245 C244 1.346 . S
C245 H252 0.929 . S
C246 O236 1.282 . S
C246 O247 1.216 . S
O247 C246 1.216 . S
H248 C243 0.930 . S
H249 C244 0.930 . S
O250 Cu230 1.959 . S
O250 C237 1.251 . S
H251 C234 0.930 . S
H252 C245 0.929 . S
Cu253 N254 1.999 . S
Cu253 O259 1.974 . S
Cu253 N264 1.985 . S
Cu253 O273 1.959 . S
N254 Cu253 1.999 . S
N254 C256 1.263 . S
N254 C258 1.389 . S
N255 C256 1.358 . S
N255 C257 1.400 . S
C256 N254 1.263 . S
C256 N255 1.358 . S
C256 H262 0.930 . S
C257 N255 1.400 . S
C257 C258 1.351 . S
C257 H274 0.930 . S
C258 N254 1.389 . S
C258 C257 1.351 . S
C258 H263 0.930 . S
O259 Cu253 1.974 . S
O259 C269 1.282 . S
C260 O261 1.261 . S
C260 O273 1.251 . S
O261 C260 1.261 . S
H262 C256 0.930 . S
H263 C258 0.930 . S
N264 Cu253 1.985 . S
N264 C266 1.335 . S
N264 C267 1.390 . S
N265 C266 1.345 . S
N265 C268 1.336 . S
C266 N264 1.335 . S
C266 N265 1.345 . S
C266 H271 0.930 . S
C267 N264 1.390 . S
C267 C268 1.346 . S
C267 H272 0.930 . S
C268 N265 1.336 . S
C268 C267 1.346 . S
C268 H275 0.929 . S
C269 O259 1.282 . S
C269 O270 1.216 . S
O270 C269 1.216 . S
H271 C266 0.930 . S
H272 C267 0.930 . S
O273 Cu253 1.959 . S
O273 C260 1.251 . S
H274 C257 0.930 . S
H275 C268 0.929 . S
C276 C277 1.349 . S
C276 C278 1.327 . S
C276 H301 0.950 . S
C277 C276 1.349 . S
C277 C293 1.349 . S
C278 C276 1.327 . S
C278 C297 1.429 . S
C278 H302 0.950 . S
C279 C296 1.574 . S
C279 C298 1.368 . S
C279 H303 0.949 . S
H280 C284 0.949 . S
C281 C282 1.349 . S
C281 C283 1.327 . S
C281 H304 0.950 . S
C282 C281 1.349 . S
C282 C294 1.349 . S
C283 C281 1.327 . S
C283 C299 1.429 . S
C283 H305 0.950 . S
C284 H280 0.949 . S
C284 C292 1.574 . S
C284 C300 1.368 . S
H285 C293 0.950 . S
H286 C291 0.950 . S
H287 C292 0.949 . S
H288 C294 0.950 . S
H289 C295 0.950 . S
H290 C296 0.949 . S
C291 H286 0.950 . S
C291 C293 1.327 . S
C291 C297 1.429 . S
C292 C284 1.574 . S
C292 H287 0.949 . S
C292 C298 1.368 . S
C293 C277 1.349 . S
C293 H285 0.950 . S
C293 C291 1.327 . S
C294 C282 1.349 . S
C294 H288 0.950 . S
C294 C295 1.327 . S
C295 H289 0.950 . S
C295 C294 1.327 . S
C295 C299 1.429 . S
C296 C279 1.574 . S
C296 H290 0.949 . S
C296 C300 1.368 . S
C297 C278 1.429 . S
C297 C291 1.429 . S
C297 C298 1.523 . S
C298 C279 1.368 . S
C298 C292 1.368 . S
C298 C297 1.523 . S
C299 C283 1.429 . S
C299 C295 1.429 . S
C299 C300 1.523 . S
C300 C284 1.368 . S
C300 C296 1.368 . S
C300 C299 1.523 . S
H301 C276 0.950 . S
H302 C278 0.950 . S
H303 C279 0.949 . S
H304 C281 0.950 . S
H305 C283 0.950 . S
C306 C307 1.349 . S
C306 C308 1.327 . S
C306 H331 0.950 . S
C307 C306 1.349 . S
C307 C323 1.349 . S
C308 C306 1.327 . S
C308 C327 1.429 . S
C308 H332 0.950 . S
C309 C326 1.574 . S
C309 C328 1.368 . S
C309 H333 0.949 . S
H310 C314 0.949 . S
C311 C312 1.349 . S
C311 C313 1.327 . S
C311 H334 0.950 . S
C312 C311 1.349 . S
C312 C324 1.349 . S
C313 C311 1.327 . S
C313 C329 1.429 . S
C313 H335 0.950 . S
C314 H310 0.949 . S
C314 C322 1.574 . S
C314 C330 1.368 . S
H315 C323 0.950 . S
H316 C321 0.950 . S
H317 C322 0.949 . S
H318 C324 0.950 . S
H319 C325 0.950 . S
H320 C326 0.949 . S
C321 H316 0.950 . S
C321 C323 1.327 . S
C321 C327 1.429 . S
C322 C314 1.574 . S
C322 H317 0.949 . S
C322 C328 1.368 . S
C323 C307 1.349 . S
C323 H315 0.950 . S
C323 C321 1.327 . S
C324 C312 1.349 . S
C324 H318 0.950 . S
C324 C325 1.327 . S
C325 H319 0.950 . S
C325 C324 1.327 . S
C325 C329 1.429 . S
C326 C309 1.574 . S
C326 H320 0.949 . S
C326 C330 1.368 . S
C327 C308 1.429 . S
C327 C321 1.429 . S
C327 C328 1.523 . S
C328 C309 1.368 . S
C328 C322 1.368 . S
C328 C327 1.523 . S
C329 C313 1.429 . S
C329 C325 1.429 . S
C329 C330 1.523 . S
C330 C314 1.368 . S
C330 C326 1.368 . S
C330 C329 1.523 . S
H331 C306 0.950 . S
H332 C308 0.950 . S
H333 C309 0.949 . S
H334 C311 0.950 . S
H335 C313 0.950 . S
C336 C337 1.349 . S
C336 C338 1.327 . S
C336 H361 0.950 . S
C337 C336 1.349 . S
C337 C353 1.349 . S
C338 C336 1.327 . S
C338 C357 1.429 . S
C338 H362 0.950 . S
C339 C356 1.574 . S
C339 C358 1.368 . S
C339 H363 0.949 . S
H340 C344 0.922 1_565 S
C341 C342 1.349 . S
C341 C343 1.327 . S
C341 H364 0.950 . S
C342 C341 1.349 . S
C342 C354 1.349 . S
C343 C341 1.327 . S
C343 C359 1.429 . S
C343 H365 0.950 . S
C344 H340 0.922 1_545 S
C344 C352 1.604 . S
C344 C360 1.369 . S
H345 C353 0.950 . S
H346 C351 0.950 . S
H347 C352 0.949 . S
H348 C354 0.950 . S
H349 C355 0.950 . S
H350 C356 0.949 . S
C351 H346 0.950 . S
C351 C353 1.327 . S
C351 C357 1.429 . S
C352 C344 1.604 . S
C352 H347 0.949 . S
C352 C358 1.368 . S
C353 C337 1.349 . S
C353 H345 0.950 . S
C353 C351 1.327 . S
C354 C342 1.349 . S
C354 H348 0.950 . S
C354 C355 1.327 . S
C355 H349 0.950 . S
C355 C354 1.327 . S
C355 C359 1.429 . S
C356 C339 1.574 . S
C356 H350 0.949 . S
C356 C360 1.368 . S
C357 C338 1.429 . S
C357 C351 1.429 . S
C357 C358 1.523 . S
C358 C339 1.368 . S
C358 C352 1.368 . S
C358 C357 1.523 . S
C359 C343 1.429 . S
C359 C355 1.429 . S
C359 C360 1.523 1_565 S
C360 C344 1.369 . S
C360 C356 1.368 . S
C360 C359 1.523 1_545 S
H361 C336 0.950 . S
H362 C338 0.950 . S
H363 C339 0.949 . S
H364 C341 0.950 . S
H365 C343 0.950 . S
C366 C367 1.318 1_554 S
C366 C368 1.333 . S
C366 H391 0.977 . S
C367 C366 1.318 1_556 S
C367 C383 1.349 . S
C368 C366 1.333 . S
C368 C387 1.429 1_554 S
C368 H392 0.950 . S
C369 C386 1.574 . S
C369 C388 1.368 . S
C369 H393 0.949 . S
H370 C374 0.949 . S
C371 C372 1.349 . S
C371 C373 1.327 . S
C371 H394 0.950 . S
C372 C371 1.349 . S
C372 C384 1.349 1_556 S
C373 C371 1.327 . S
C373 C389 1.429 . S
C373 H395 0.950 . S
C374 H370 0.949 . S
C374 C382 1.574 . S
C374 C390 1.368 1_554 S
H375 C383 0.950 . S
H376 C381 0.950 . S
H377 C382 0.949 . S
H378 C384 0.950 . S
H379 C385 0.950 . S
H380 C386 0.949 . S
C381 H376 0.950 . S
C381 C383 1.327 . S
C381 C387 1.429 . S
C382 C374 1.574 . S
C382 H377 0.949 . S
C382 C388 1.368 1_554 S
C383 C367 1.349 . S
C383 H375 0.950 . S
C383 C381 1.327 . S
C384 C372 1.349 1_554 S
C384 H378 0.950 . S
C384 C385 1.327 . S
C385 H379 0.950 . S
C385 C384 1.327 . S
C385 C389 1.429 1_554 S
C386 C369 1.574 . S
C386 H380 0.949 . S
C386 C390 1.368 . S
C387 C368 1.429 1_556 S
C387 C381 1.429 . S
C387 C388 1.523 . S
C388 C369 1.368 . S
C388 C382 1.368 1_556 S
C388 C387 1.523 . S
C389 C373 1.429 . S
C389 C385 1.429 1_556 S
C389 C390 1.523 . S
C390 C374 1.368 1_556 S
C390 C386 1.368 . S
C390 C389 1.523 . S
H391 C366 0.977 . S
H392 C368 0.950 . S
H393 C369 0.949 . S
H394 C371 0.950 . S
H395 C373 0.950 . S
C396 C397 1.349 . S
C396 C398 1.327 . S
C396 H421 0.950 . S
C397 C396 1.349 . S
C397 C413 1.349 . S
C398 C396 1.327 . S
C398 C417 1.429 . S
C398 H422 0.950 . S
C399 C416 1.574 . S
C399 C418 1.368 . S
C399 H423 0.949 . S
H400 C404 0.949 . S
C401 C402 1.349 . S
C401 C403 1.327 . S
C401 H424 0.950 . S
C402 C401 1.349 . S
C402 C414 1.349 . S
C403 C401 1.327 . S
C403 C419 1.429 . S
C403 H425 0.950 . S
C404 H400 0.949 . S
C404 C412 1.574 . S
C404 C420 1.368 . S
H405 C413 0.950 . S
H406 C411 0.950 . S
H407 C412 0.949 . S
H408 C414 0.950 . S
H409 C415 0.950 . S
H410 C416 0.949 . S
C411 H406 0.950 . S
C411 C413 1.327 . S
C411 C417 1.429 . S
C412 C404 1.574 . S
C412 H407 0.949 . S
C412 C418 1.368 . S
C413 C397 1.349 . S
C413 H405 0.950 . S
C413 C411 1.327 . S
C414 C402 1.349 . S
C414 H408 0.950 . S
C414 C415 1.327 . S
C415 H409 0.950 . S
C415 C414 1.327 . S
C415 C419 1.429 . S
C416 C399 1.574 . S
C416 H410 0.949 . S
C416 C420 1.368 . S
C417 C398 1.429 . S
C417 C411 1.429 . S
C417 C418 1.523 . S
C418 C399 1.368 . S
C418 C412 1.368 . S
C418 C417 1.523 . S
C419 C403 1.429 . S
C419 C415 1.429 . S
C419 C420 1.523 . S
C420 C404 1.368 . S
C420 C416 1.368 . S
C420 C419 1.523 . S
H421 C396 0.950 . S
H422 C398 0.950 . S
H423 C399 0.949 . S
H424 C401 0.950 . S
H425 C403 0.950 . S
C426 C427 1.349 . S
C426 C428 1.327 . S
C426 H451 0.950 . S
C427 C426 1.349 . S
C427 C443 1.349 . S
C428 C426 1.327 . S
C428 C447 1.429 . S
C428 H452 0.950 . S
C429 C446 1.574 . S
C429 C448 1.368 . S
C429 H453 0.949 . S
H430 C434 0.949 . S
C431 C432 1.349 . S
C431 C433 1.327 . S
C431 H454 0.950 . S
C432 C431 1.349 . S
C432 C444 1.349 . S
C433 C431 1.327 . S
C433 C449 1.429 . S
C433 H455 0.950 . S
C434 H430 0.949 . S
C434 C442 1.574 . S
C434 C450 1.368 . S
H435 C443 0.950 . S
H436 C441 0.950 . S
H437 C442 0.949 . S
H438 C444 0.950 . S
H439 C445 0.950 . S
H440 C446 0.949 . S
C441 H436 0.950 . S
C441 C443 1.327 . S
C441 C447 1.429 . S
C442 C434 1.574 . S
C442 H437 0.949 . S
C442 C448 1.368 . S
C443 C427 1.349 . S
C443 H435 0.950 . S
C443 C441 1.327 . S
C444 C432 1.349 . S
C444 H438 0.950 . S
C444 C445 1.327 . S
C445 H439 0.950 . S
C445 C444 1.327 . S
C445 C449 1.429 . S
C446 C429 1.574 . S
C446 H440 0.949 . S
C446 C450 1.368 . S
C447 C428 1.429 . S
C447 C441 1.429 . S
C447 C448 1.523 . S
C448 C429 1.368 . S
C448 C442 1.368 . S
C448 C447 1.523 . S
C449 C433 1.429 . S
C449 C445 1.429 . S
C449 C450 1.523 . S
C450 C434 1.368 . S
C450 C446 1.368 . S
C450 C449 1.523 . S
H451 C426 0.950 . S
H452 C428 0.950 . S
H453 C429 0.949 . S
H454 C431 0.950 . S
H455 C433 0.950 . S
C456 C457 1.349 . S
C456 C458 1.327 . S
C456 H481 0.950 . S
C457 C456 1.349 . S
C457 C473 1.349 . S
C458 C456 1.327 . S
C458 C477 1.429 . S
C458 H482 0.950 . S
C459 C476 1.574 . S
C459 C478 1.368 . S
C459 H483 0.949 . S
H460 C464 0.949 . S
C461 C462 1.349 . S
C461 C463 1.327 . S
C461 H484 0.950 . S
C462 C461 1.349 . S
C462 C474 1.349 . S
C463 C461 1.327 . S
C463 C479 1.429 . S
C463 H485 0.950 . S
C464 H460 0.949 . S
C464 C472 1.574 . S
C464 C480 1.368 . S
H465 C473 0.950 . S
H466 C471 0.950 . S
H467 C472 0.949 . S
H468 C474 0.950 . S
H469 C475 0.950 . S
H470 C476 0.949 . S
C471 H466 0.950 . S
C471 C473 1.327 . S
C471 C477 1.429 . S
C472 C464 1.574 . S
C472 H467 0.949 . S
C472 C478 1.368 . S
C473 C457 1.349 . S
C473 H465 0.950 . S
C473 C471 1.327 . S
C474 C462 1.349 . S
C474 H468 0.950 . S
C474 C475 1.327 . S
C475 H469 0.950 . S
C475 C474 1.327 . S
C475 C479 1.429 . S
C476 C459 1.574 . S
C476 H470 0.949 . S
C476 C480 1.368 . S
C477 C458 1.429 . S
C477 C471 1.429 . S
C477 C478 1.523 . S
C478 C459 1.368 . S
C478 C472 1.368 . S
C478 C477 1.523 . S
C479 C463 1.429 . S
C479 C475 1.429 . S
C479 C480 1.523 . S
C480 C464 1.368 . S
C480 C476 1.368 . S
C480 C479 1.523 . S
H481 C456 0.950 . S
H482 C458 0.950 . S
H483 C459 0.949 . S
H484 C461 0.950 . S
H485 C463 0.950 . S
C486 C487 1.349 . S
C486 C488 1.327 . S
C486 H511 0.950 . S
C487 C486 1.349 . S
C487 C503 1.349 . S
C488 C486 1.327 . S
C488 C507 1.429 . S
C488 H512 0.950 . S
C489 C506 1.574 . S
C489 C508 1.368 . S
C489 H513 0.949 . S
H490 C494 0.949 . S
C491 C492 1.349 . S
C491 C493 1.327 . S
C491 H514 0.950 . S
C492 C491 1.349 . S
C492 C504 1.349 . S
C493 C491 1.327 . S
C493 C509 1.429 . S
C493 H515 0.950 . S
C494 H490 0.949 . S
C494 C502 1.574 . S
C494 C510 1.368 . S
H495 C503 0.950 . S
H496 C501 0.950 . S
H497 C502 0.949 . S
H498 C504 0.950 . S
H499 C505 0.950 . S
H500 C506 0.949 . S
C501 H496 0.950 . S
C501 C503 1.327 . S
C501 C507 1.429 . S
C502 C494 1.574 . S
C502 H497 0.949 . S
C502 C508 1.368 . S
C503 C487 1.349 . S
C503 H495 0.950 . S
C503 C501 1.327 . S
C504 C492 1.349 . S
C504 H498 0.950 . S
C504 C505 1.327 . S
C505 H499 0.950 . S
C505 C504 1.327 . S
C505 C509 1.429 . S
C506 C489 1.574 . S
C506 H500 0.949 . S
C506 C510 1.368 . S
C507 C488 1.429 . S
C507 C501 1.429 . S
C507 C508 1.523 . S
C508 C489 1.368 . S
C508 C502 1.368 . S
C508 C507 1.523 . S
C509 C493 1.429 . S
C509 C505 1.429 . S
C509 C510 1.523 . S
C510 C494 1.368 . S
C510 C506 1.368 . S
C510 C509 1.523 . S
H511 C486 0.950 . S
H512 C488 0.950 . S
H513 C489 0.949 . S
H514 C491 0.950 . S
H515 C493 0.950 . S
C516 C517 1.349 . S
C516 C518 1.327 . S
C516 H541 0.950 . S
C517 C516 1.349 . S
C517 C533 1.349 . S
C518 C516 1.327 . S
C518 C537 1.429 . S
C518 H542 0.950 . S
C519 C536 1.574 . S
C519 C538 1.368 . S
C519 H543 0.949 . S
H520 C524 0.949 . S
C521 C522 1.349 . S
C521 C523 1.327 . S
C521 H544 0.950 . S
C522 C521 1.349 . S
C522 C534 1.349 . S
C523 C521 1.327 . S
C523 C539 1.429 . S
C523 H545 0.950 . S
C524 H520 0.949 . S
C524 C532 1.574 . S
C524 C540 1.368 . S
H525 C533 0.950 . S
H526 C531 0.950 . S
H527 C532 0.949 . S
H528 C534 0.950 . S
H529 C535 0.950 . S
H530 C536 0.949 . S
C531 H526 0.950 . S
C531 C533 1.327 . S
C531 C537 1.429 . S
C532 C524 1.574 . S
C532 H527 0.949 . S
C532 C538 1.368 . S
C533 C517 1.349 . S
C533 H525 0.950 . S
C533 C531 1.327 . S
C534 C522 1.349 . S
C534 H528 0.950 . S
C534 C535 1.327 . S
C535 H529 0.950 . S
C535 C534 1.327 . S
C535 C539 1.429 . S
C536 C519 1.574 . S
C536 H530 0.949 . S
C536 C540 1.368 . S
C537 C518 1.429 . S
C537 C531 1.429 . S
C537 C538 1.523 . S
C538 C519 1.368 . S
C538 C532 1.368 . S
C538 C537 1.523 . S
C539 C523 1.429 . S
C539 C535 1.429 . S
C539 C540 1.523 . S
C540 C524 1.368 . S
C540 C536 1.368 . S
C540 C539 1.523 . S
H541 C516 0.950 . S
H542 C518 0.950 . S
H543 C519 0.949 . S
H544 C521 0.950 . S
H545 C523 0.950 . S
C546 C547 1.349 . S
C546 C548 1.327 . S
C546 H571 0.950 . S
C547 C546 1.349 . S
C547 C563 1.349 . S
C548 C546 1.327 . S
C548 C567 1.429 . S
C548 H572 0.950 . S
C549 C566 1.574 . S
C549 C568 1.368 . S
C549 H573 0.949 1_565 S
H550 C554 0.949 . S
C551 C552 1.349 . S
C551 C553 1.327 . S
C551 H574 0.950 1_565 S
C552 C551 1.349 . S
C552 C564 1.349 . S
C553 C551 1.327 . S
C553 C569 1.429 . S
C553 H575 0.950 1_565 S
C554 H550 0.949 . S
C554 C562 1.574 . S
C554 C570 1.368 . S
H555 C563 0.950 1_545 S
H556 C561 0.950 1_545 S
H557 C562 0.949 . S
H558 C564 0.950 . S
H559 C565 0.950 . S
H560 C566 0.949 1_545 S
C561 H556 0.950 1_565 S
C561 C563 1.327 . S
C561 C567 1.429 . S
C562 C554 1.574 . S
C562 H557 0.949 . S
C562 C568 1.368 . S
C563 C547 1.349 . S
C563 H555 0.950 1_565 S
C563 C561 1.327 . S
C564 C552 1.349 . S
C564 H558 0.950 . S
C564 C565 1.327 . S
C565 H559 0.950 . S
C565 C564 1.327 . S
C565 C569 1.429 . S
C566 C549 1.574 . S
C566 H560 0.949 1_565 S
C566 C570 1.368 . S
C567 C548 1.429 . S
C567 C561 1.429 . S
C567 C568 1.523 . S
C568 C549 1.368 . S
C568 C562 1.368 . S
C568 C567 1.523 . S
C569 C553 1.429 . S
C569 C565 1.429 . S
C569 C570 1.523 . S
C570 C554 1.368 . S
C570 C566 1.368 . S
C570 C569 1.523 . S
H571 C546 0.950 . S
H572 C548 0.950 . S
H573 C549 0.949 1_545 S
H574 C551 0.950 1_545 S
H575 C553 0.950 1_545 S
C576 C577 1.349 . S
C576 C578 1.327 . S
C576 H601 0.950 . S
C577 C576 1.349 . S
C577 C593 1.349 . S
C578 C576 1.327 . S
C578 C597 1.429 . S
C578 H602 0.950 . S
C579 C596 1.574 . S
C579 C598 1.368 . S
C579 H603 0.949 . S
H580 C584 0.949 . S
C581 C582 1.349 . S
C581 C583 1.327 1_565 S
C581 H604 0.950 . S
C582 C581 1.349 . S
C582 C594 1.349 1_565 S
C583 C581 1.327 1_545 S
C583 C599 1.429 . S
C583 H605 0.950 1_545 S
C584 H580 0.949 . S
C584 C592 1.574 . S
C584 C600 1.368 . S
H585 C593 0.950 . S
H586 C591 0.950 . S
H587 C592 0.949 . S
H588 C594 0.950 . S
H589 C595 0.950 . S
H590 C596 0.949 . S
C591 H586 0.950 . S
C591 C593 1.327 . S
C591 C597 1.429 . S
C592 C584 1.574 . S
C592 H587 0.949 . S
C592 C598 1.368 . S
C593 C577 1.349 . S
C593 H585 0.950 . S
C593 C591 1.327 . S
C594 C582 1.349 1_545 S
C594 H588 0.950 . S
C594 C595 1.327 . S
C595 H589 0.950 . S
C595 C594 1.327 . S
C595 C599 1.429 . S
C596 C579 1.574 . S
C596 H590 0.949 . S
C596 C600 1.368 . S
C597 C578 1.429 . S
C597 C591 1.429 . S
C597 C598 1.523 . S
C598 C579 1.368 . S
C598 C592 1.368 . S
C598 C597 1.523 . S
C599 C583 1.429 . S
C599 C595 1.429 . S
C599 C600 1.523 . S
C600 C584 1.368 . S
C600 C596 1.368 . S
C600 C599 1.523 . S
H601 C576 0.950 . S
H602 C578 0.950 . S
H603 C579 0.949 . S
H604 C581 0.950 . S
H605 C583 0.950 1_565 S
C606 C607 1.349 . S
C606 C608 1.327 . S
C606 H631 0.950 . S
C607 C606 1.349 . S
C607 C623 1.349 . S
C608 C606 1.327 . S
C608 C627 1.429 . S
C608 H632 0.950 . S
C609 C626 1.574 . S
C609 C628 1.368 . S
C609 H633 0.949 . S
H610 C614 0.949 . S
C611 C612 1.349 . S
C611 C613 1.327 . S
C611 H634 0.950 . S
C612 C611 1.349 . S
C612 C624 1.349 . S
C613 C611 1.327 . S
C613 C629 1.429 . S
C613 H635 0.950 . S
C614 H610 0.949 . S
C614 C622 1.574 . S
C614 C630 1.368 . S
H615 C623 0.950 . S
H616 C621 0.950 . S
H617 C622 0.949 . S
H618 C624 0.950 . S
H619 C625 0.950 . S
H620 C626 0.949 . S
C621 H616 0.950 . S
C621 C623 1.327 . S
C621 C627 1.429 . S
C622 C614 1.574 . S
C622 H617 0.949 . S
C622 C628 1.368 . S
C623 C607 1.349 . S
C623 H615 0.950 . S
C623 C621 1.327 . S
C624 C612 1.349 . S
C624 H618 0.950 . S
C624 C625 1.327 . S
C625 H619 0.950 . S
C625 C624 1.327 . S
C625 C629 1.429 . S
C626 C609 1.574 . S
C626 H620 0.949 . S
C626 C630 1.368 . S
C627 C608 1.429 . S
C627 C621 1.429 . S
C627 C628 1.523 . S
C628 C609 1.368 . S
C628 C622 1.368 . S
C628 C627 1.523 . S
C629 C613 1.429 . S
C629 C625 1.429 . S
C629 C630 1.523 . S
C630 C614 1.368 . S
C630 C626 1.368 . S
C630 C629 1.523 . S
H631 C606 0.950 . S
H632 C608 0.950 . S
H633 C609 0.949 . S
H634 C611 0.950 . S
H635 C613 0.950 . S
C636 C637 1.349 . S
C636 C638 1.327 . S
C636 H661 0.950 . S
C637 C636 1.349 . S
C637 C653 1.349 . S
C638 C636 1.327 . S
C638 C657 1.429 . S
C638 H662 0.950 . S
C639 C656 1.574 . S
C639 C658 1.368 . S
C639 H663 0.949 . S
H640 C644 0.949 . S
C641 C642 1.349 . S
C641 C643 1.327 . S
C641 H664 0.950 1_554 S
C642 C641 1.349 . S
C642 C654 1.349 . S
C643 C641 1.327 . S
C643 C659 1.429 . S
C643 H665 0.950 . S
C644 H640 0.949 . S
C644 C652 1.574 . S
C644 C660 1.368 . S
H645 C653 0.950 . S
H646 C651 0.950 . S
H647 C652 0.949 . S
H648 C654 0.950 . S
H649 C655 0.950 . S
H650 C656 0.949 . S
C651 H646 0.950 . S
C651 C653 1.327 . S
C651 C657 1.429 . S
C652 C644 1.574 . S
C652 H647 0.949 . S
C652 C658 1.368 . S
C653 C637 1.349 . S
C653 H645 0.950 . S
C653 C651 1.327 . S
C654 C642 1.349 . S
C654 H648 0.950 . S
C654 C655 1.327 . S
C655 H649 0.950 . S
C655 C654 1.327 . S
C655 C659 1.429 . S
C656 C639 1.574 . S
C656 H650 0.949 . S
C656 C660 1.368 . S
C657 C638 1.429 . S
C657 C651 1.429 . S
C657 C658 1.523 . S
C658 C639 1.368 . S
C658 C652 1.368 . S
C658 C657 1.523 . S
C659 C643 1.429 . S
C659 C655 1.429 . S
C659 C660 1.523 . S
C660 C644 1.368 . S
C660 C656 1.368 . S
C660 C659 1.523 . S
H661 C636 0.950 . S
H662 C638 0.950 . S
H663 C639 0.949 . S
H664 C641 0.950 1_556 S
H665 C643 0.950 . S
C666 C667 1.349 . S
C666 C668 1.327 . S
C666 H691 0.950 . S
C667 C666 1.349 . S
C667 C683 1.349 . S
C668 C666 1.327 . S
C668 C687 1.429 . S
C668 H692 0.950 . S
C669 C686 1.574 . S
C669 C688 1.368 . S
C669 H693 0.949 1_455 S
H670 C674 0.949 . S
C671 C672 1.349 . S
C671 C673 1.327 . S
C671 H694 0.950 1_455 S
C672 C671 1.349 . S
C672 C684 1.349 . S
C673 C671 1.327 . S
C673 C689 1.429 . S
C673 H695 0.950 1_455 S
C674 H670 0.949 . S
C674 C682 1.574 . S
C674 C690 1.368 . S
H675 C683 0.950 1_655 S
H676 C681 0.950 1_655 S
H677 C682 0.949 . S
H678 C684 0.950 . S
H679 C685 0.950 . S
H680 C686 0.949 1_655 S
C681 H676 0.950 1_455 S
C681 C683 1.327 . S
C681 C687 1.429 . S
C682 C674 1.574 . S
C682 H677 0.949 . S
C682 C688 1.368 . S
C683 C667 1.349 . S
C683 H675 0.950 1_455 S
C683 C681 1.327 . S
C684 C672 1.349 . S
C684 H678 0.950 . S
C684 C685 1.327 . S
C685 H679 0.950 . S
C685 C684 1.327 . S
C685 C689 1.429 . S
C686 C669 1.574 . S
C686 H680 0.949 1_455 S
C686 C690 1.368 . S
C687 C668 1.429 . S
C687 C681 1.429 . S
C687 C688 1.523 . S
C688 C669 1.368 . S
C688 C682 1.368 . S
C688 C687 1.523 . S
C689 C673 1.429 . S
C689 C685 1.429 . S
C689 C690 1.523 . S
C690 C674 1.368 . S
C690 C686 1.368 . S
C690 C689 1.523 . S
H691 C666 0.950 . S
H692 C668 0.950 . S
H693 C669 0.949 1_655 S
H694 C671 0.950 1_655 S
H695 C673 0.950 1_655 S
C696 C697 1.349 . S
C696 C698 1.327 1_655 S
C696 H721 0.950 . S
C697 C696 1.349 . S
C697 C713 1.349 1_655 S
C698 C696 1.327 1_455 S
C698 C717 1.429 . S
C698 H722 0.950 . S
C699 C716 1.574 . S
C699 C718 1.368 . S
C699 H723 0.949 . S
H700 C704 0.949 . S
C701 C702 1.349 . S
C701 C703 1.327 . S
C701 H724 0.950 . S
C702 C701 1.349 . S
C702 C714 1.349 . S
C703 C701 1.327 . S
C703 C719 1.429 . S
C703 H725 0.950 . S
C704 H700 0.949 . S
C704 C712 1.574 . S
C704 C720 1.368 . S
H705 C713 0.950 . S
H706 C711 0.950 . S
H707 C712 0.949 . S
H708 C714 0.950 . S
H709 C715 0.950 . S
H710 C716 0.949 . S
C711 H706 0.950 . S
C711 C713 1.327 . S
C711 C717 1.429 . S
C712 C704 1.574 . S
C712 H707 0.949 . S
C712 C718 1.368 . S
C713 C697 1.349 1_455 S
C713 H705 0.950 . S
C713 C711 1.327 . S
C714 C702 1.349 . S
C714 H708 0.950 . S
C714 C715 1.327 . S
C715 H709 0.950 . S
C715 C714 1.327 . S
C715 C719 1.429 . S
C716 C699 1.574 . S
C716 H710 0.949 . S
C716 C720 1.368 . S
C717 C698 1.429 . S
C717 C711 1.429 . S
C717 C718 1.523 . S
C718 C699 1.368 . S
C718 C712 1.368 . S
C718 C717 1.523 . S
C719 C703 1.429 . S
C719 C715 1.429 . S
C719 C720 1.523 . S
C720 C704 1.368 . S
C720 C716 1.368 . S
C720 C719 1.523 . S
H721 C696 0.950 . S
H722 C698 0.950 . S
H723 C699 0.949 . S
H724 C701 0.950 . S
H725 C703 0.950 . S
C726 C727 1.349 . S
C726 C728 1.327 . S
C726 H751 0.950 . S
C727 C726 1.349 . S
C727 C743 1.349 . S
C728 C726 1.327 . S
C728 C747 1.429 . S
C728 H752 0.950 . S
C729 C746 1.574 . S
C729 C748 1.368 . S
C729 H753 0.949 . S
H730 C734 0.949 . S
C731 C732 1.349 . S
C731 C733 1.327 . S
C731 H754 0.950 . S
C732 C731 1.349 . S
C732 C744 1.349 . S
C733 C731 1.327 . S
C733 C749 1.429 . S
C733 H755 0.950 . S
C734 H730 0.949 . S
C734 C742 1.574 . S
C734 C750 1.368 . S
H735 C743 0.950 . S
H736 C741 0.950 . S
H737 C742 0.949 . S
H738 C744 0.950 . S
H739 C745 0.950 . S
H740 C746 0.949 . S
C741 H736 0.950 . S
C741 C743 1.327 . S
C741 C747 1.429 . S
C742 C734 1.574 . S
C742 H737 0.949 . S
C742 C748 1.368 . S
C743 C727 1.349 . S
C743 H735 0.950 . S
C743 C741 1.327 . S
C744 C732 1.349 . S
C744 H738 0.950 . S
C744 C745 1.327 . S
C745 H739 0.950 . S
C745 C744 1.327 . S
C745 C749 1.429 . S
C746 C729 1.574 . S
C746 H740 0.949 . S
C746 C750 1.368 . S
C747 C728 1.429 . S
C747 C741 1.429 . S
C747 C748 1.523 . S
C748 C729 1.368 . S
C748 C742 1.368 . S
C748 C747 1.523 . S
C749 C733 1.429 . S
C749 C745 1.429 . S
C749 C750 1.523 . S
C750 C734 1.368 . S
C750 C746 1.368 . S
C750 C749 1.523 . S
H751 C726 0.950 . S
H752 C728 0.950 . S
H753 C729 0.949 . S
H754 C731 0.950 . S
H755 C733 0.950 . S
C756 C757 1.349 . S
C756 C758 1.327 . S
C756 H781 0.950 . S
C757 C756 1.349 . S
C757 C773 1.349 . S
C758 C756 1.327 . S
C758 C777 1.429 . S
C758 H782 0.950 . S
C759 C776 1.574 . S
C759 C778 1.368 . S
C759 H783 0.949 . S
H760 C764 0.949 . S
C761 C762 1.349 . S
C761 C763 1.327 . S
C761 H784 0.950 . S
C762 C761 1.349 . S
C762 C774 1.349 . S
C763 C761 1.327 . S
C763 C779 1.429 . S
C763 H785 0.950 . S
C764 H760 0.949 . S
C764 C772 1.574 . S
C764 C780 1.368 . S
H765 C773 0.950 . S
H766 C771 0.950 . S
H767 C772 0.949 . S
H768 C774 0.950 . S
H769 C775 0.950 . S
H770 C776 0.949 . S
C771 H766 0.950 . S
C771 C773 1.327 . S
C771 C777 1.429 . S
C772 C764 1.574 . S
C772 H767 0.949 . S
C772 C778 1.368 . S
C773 C757 1.349 . S
C773 H765 0.950 . S
C773 C771 1.327 . S
C774 C762 1.349 . S
C774 H768 0.950 . S
C774 C775 1.327 . S
C775 H769 0.950 . S
C775 C774 1.327 . S
C775 C779 1.429 . S
C776 C759 1.574 . S
C776 H770 0.949 . S
C776 C780 1.368 . S
C777 C758 1.429 . S
C777 C771 1.429 . S
C777 C778 1.523 . S
C778 C759 1.368 . S
C778 C772 1.368 . S
C778 C777 1.523 . S
C779 C763 1.429 . S
C779 C775 1.429 . S
C779 C780 1.523 . S
C780 C764 1.368 . S
C780 C776 1.368 . S
C780 C779 1.523 . S
H781 C756 0.950 . S
H782 C758 0.950 . S
H783 C759 0.949 . S
H784 C761 0.950 . S
H785 C763 0.950 . S
C786 C787 1.349 . S
C786 C788 1.327 . S
C786 H811 0.950 . S
C787 C786 1.349 . S
C787 C803 1.349 . S
C788 C786 1.327 . S
C788 C807 1.429 . S
C788 H812 0.950 . S
C789 C806 1.574 . S
C789 C808 1.368 . S
C789 H813 0.949 . S
H790 C794 0.949 . S
C791 C792 1.349 . S
C791 C793 1.327 . S
C791 H814 0.950 . S
C792 C791 1.349 . S
C792 C804 1.349 . S
C793 C791 1.327 . S
C793 C809 1.429 . S
C793 H815 0.950 . S
C794 H790 0.949 . S
C794 C802 1.574 . S
C794 C810 1.368 . S
H795 C803 0.950 . S
H796 C801 0.950 . S
H797 C802 0.949 . S
H798 C804 0.950 . S
H799 C805 0.950 . S
H800 C806 0.949 . S
C801 H796 0.950 . S
C801 C803 1.327 . S
C801 C807 1.429 . S
C802 C794 1.574 . S
C802 H797 0.949 . S
C802 C808 1.368 . S
C803 C787 1.349 . S
C803 H795 0.950 . S
C803 C801 1.327 . S
C804 C792 1.349 . S
C804 H798 0.950 . S
C804 C805 1.327 . S
C805 H799 0.950 . S
C805 C804 1.327 . S
C805 C809 1.429 . S
C806 C789 1.574 . S
C806 H800 0.949 . S
C806 C810 1.368 . S
C807 C788 1.429 . S
C807 C801 1.429 . S
C807 C808 1.523 . S
C808 C789 1.368 . S
C808 C802 1.368 . S
C808 C807 1.523 . S
C809 C793 1.429 . S
C809 C805 1.429 . S
C809 C810 1.523 . S
C810 C794 1.368 . S
C810 C806 1.368 . S
C810 C809 1.523 . S
H811 C786 0.950 . S
H812 C788 0.950 . S
H813 C789 0.949 . S
H814 C791 0.950 . S
H815 C793 0.950 . S
C816 C817 1.349 . S
C816 C818 1.327 . S
C816 H841 0.950 . S
C817 C816 1.349 . S
C817 C833 1.349 . S
C818 C816 1.327 . S
C818 C837 1.429 . S
C818 H842 0.950 . S
C819 C836 1.574 . S
C819 C838 1.368 . S
C819 H843 0.949 . S
H820 C824 0.949 . S
C821 C822 1.349 . S
C821 C823 1.327 . S
C821 H844 0.950 . S
C822 C821 1.349 . S
C822 C834 1.349 . S
C823 C821 1.327 . S
C823 C839 1.429 . S
C823 H845 0.950 . S
C824 H820 0.949 . S
C824 C832 1.574 . S
C824 C840 1.368 . S
H825 C833 0.950 . S
H826 C831 0.950 . S
H827 C832 0.949 . S
H828 C834 0.950 . S
H829 C835 0.950 . S
H830 C836 0.949 . S
C831 H826 0.950 . S
C831 C833 1.327 . S
C831 C837 1.429 . S
C832 C824 1.574 . S
C832 H827 0.949 . S
C832 C838 1.368 . S
C833 C817 1.349 . S
C833 H825 0.950 . S
C833 C831 1.327 . S
C834 C822 1.349 . S
C834 H828 0.950 . S
C834 C835 1.327 . S
C835 H829 0.950 . S
C835 C834 1.327 . S
C835 C839 1.429 . S
C836 C819 1.574 . S
C836 H830 0.949 . S
C836 C840 1.368 . S
C837 C818 1.429 . S
C837 C831 1.429 . S
C837 C838 1.523 . S
C838 C819 1.368 . S
C838 C832 1.368 . S
C838 C837 1.523 . S
C839 C823 1.429 . S
C839 C835 1.429 . S
C839 C840 1.523 . S
C840 C824 1.368 . S
C840 C836 1.368 . S
C840 C839 1.523 . S
H841 C816 0.950 . S
H842 C818 0.950 . S
H843 C819 0.949 . S
H844 C821 0.950 . S
H845 C823 0.950 . S
C846 C847 1.349 . S
C846 C848 1.327 . S
C846 H871 0.950 . S
C847 C846 1.349 . S
C847 C863 1.349 . S
C848 C846 1.327 . S
C848 C867 1.429 . S
C848 H872 0.950 . S
C849 C866 1.574 . S
C849 C868 1.368 . S
C849 H873 0.949 . S
H850 C854 0.949 . S
C851 C852 1.349 . S
C851 C853 1.327 . S
C851 H874 0.950 . S
C852 C851 1.349 . S
C852 C864 1.349 . S
C853 C851 1.327 . S
C853 C869 1.429 . S
C853 H875 0.950 . S
C854 H850 0.949 . S
C854 C862 1.574 . S
C854 C870 1.368 . S
H855 C863 0.950 . S
H856 C861 0.950 . S
H857 C862 0.949 . S
H858 C864 0.950 . S
H859 C865 0.950 . S
H860 C866 0.949 . S
C861 H856 0.950 . S
C861 C863 1.327 . S
C861 C867 1.429 . S
C862 C854 1.574 . S
C862 H857 0.949 . S
C862 C868 1.368 . S
C863 C847 1.349 . S
C863 H855 0.950 . S
C863 C861 1.327 . S
C864 C852 1.349 . S
C864 H858 0.950 . S
C864 C865 1.327 . S
C865 H859 0.950 . S
C865 C864 1.327 . S
C865 C869 1.429 . S
C866 C849 1.574 . S
C866 H860 0.949 . S
C866 C870 1.368 . S
C867 C848 1.429 . S
C867 C861 1.429 . S
C867 C868 1.523 . S
C868 C849 1.368 . S
C868 C862 1.368 . S
C868 C867 1.523 . S
C869 C853 1.429 . S
C869 C865 1.429 . S
C869 C870 1.523 . S
C870 C854 1.368 . S
C870 C866 1.368 . S
C870 C869 1.523 . S
H871 C846 0.950 . S
H872 C848 0.950 . S
H873 C849 0.949 . S
H874 C851 0.950 . S
H875 C853 0.950 . S
C876 C877 1.349 . S
C876 C878 1.327 . S
C876 H901 0.950 . S
C877 C876 1.349 . S
C877 C893 1.349 . S
C878 C876 1.327 . S
C878 C897 1.429 . S
C878 H902 0.950 . S
C879 C896 1.574 . S
C879 C898 1.368 . S
C879 H903 0.949 . S
H880 C884 0.949 . S
C881 C882 1.349 . S
C881 C883 1.327 . S
C881 H904 0.950 . S
C882 C881 1.349 . S
C882 C894 1.349 . S
C883 C881 1.327 . S
C883 C899 1.429 . S
C883 H905 0.950 . S
C884 H880 0.949 . S
C884 C892 1.574 . S
C884 C900 1.368 . S
H885 C893 0.950 . S
H886 C891 0.950 . S
H887 C892 0.949 . S
H888 C894 0.950 . S
H889 C895 0.950 . S
H890 C896 0.949 . S
C891 H886 0.950 . S
C891 C893 1.327 . S
C891 C897 1.429 . S
C892 C884 1.574 . S
C892 H887 0.949 . S
C892 C898 1.368 . S
C893 C877 1.349 . S
C893 H885 0.950 . S
C893 C891 1.327 . S
C894 C882 1.349 . S
C894 H888 0.950 . S
C894 C895 1.327 . S
C895 H889 0.950 . S
C895 C894 1.327 . S
C895 C899 1.429 . S
C896 C879 1.574 . S
C896 H890 0.949 . S
C896 C900 1.368 . S
C897 C878 1.429 . S
C897 C891 1.429 . S
C897 C898 1.523 . S
C898 C879 1.368 . S
C898 C892 1.368 . S
C898 C897 1.523 . S
C899 C883 1.429 . S
C899 C895 1.429 . S
C899 C900 1.523 . S
C900 C884 1.368 . S
C900 C896 1.368 . S
C900 C899 1.523 . S
H901 C876 0.950 . S
H902 C878 0.950 . S
H903 C879 0.949 . S
H904 C881 0.950 . S
H905 C883 0.950 . S
C906 C907 1.349 . S
C906 C908 1.327 . S
C906 H931 0.950 . S
C907 C906 1.349 . S
C907 C923 1.349 . S
C908 C906 1.327 . S
C908 C927 1.429 . S
C908 H932 0.950 1_556 S
C909 C926 1.574 . S
C909 C928 1.368 . S
C909 H933 0.949 . S
H910 C914 0.949 . S
C911 C912 1.349 . S
C911 C913 1.327 . S
C911 H934 0.950 . S
C912 C911 1.349 . S
C912 C924 1.349 . S
C913 C911 1.327 . S
C913 C929 1.429 . S
C913 H935 0.950 . S
C914 H910 0.949 . S
C914 C922 1.574 . S
C914 C930 1.368 . S
H915 C923 0.950 . S
H916 C921 0.950 . S
H917 C922 0.949 . S
H918 C924 0.950 . S
H919 C925 0.950 . S
H920 C926 0.949 . S
C921 H916 0.950 . S
C921 C923 1.327 . S
C921 C927 1.429 . S
C922 C914 1.574 . S
C922 H917 0.949 . S
C922 C928 1.368 . S
C923 C907 1.349 . S
C923 H915 0.950 . S
C923 C921 1.327 . S
C924 C912 1.349 . S
C924 H918 0.950 . S
C924 C925 1.327 . S
C925 H919 0.950 . S
C925 C924 1.327 . S
C925 C929 1.429 . S
C926 C909 1.574 . S
C926 H920 0.949 . S
C926 C930 1.368 . S
C927 C908 1.429 . S
C927 C921 1.429 . S
C927 C928 1.523 1_556 S
C928 C909 1.368 . S
C928 C922 1.368 . S
C928 C927 1.523 1_554 S
C929 C913 1.429 . S
C929 C925 1.429 . S
C929 C930 1.523 . S
C930 C914 1.368 . S
C930 C926 1.368 . S
C930 C929 1.523 . S
H931 C906 0.950 . S
H932 C908 0.950 1_554 S
H933 C909 0.949 . S
H934 C911 0.950 . S
H935 C913 0.950 . S
C936 C937 1.349 . S
C936 C938 1.327 . S
C936 H961 0.950 . S
C937 C936 1.349 . S
C937 C953 1.349 . S
C938 C936 1.327 . S
C938 C957 1.429 . S
C938 H962 0.950 . S
C939 C956 1.574 . S
C939 C958 1.368 . S
C939 H963 0.949 . S
H940 C944 0.949 . S
C941 C942 1.349 . S
C941 C943 1.327 . S
C941 H964 0.950 . S
C942 C941 1.349 . S
C942 C954 1.349 . S
C943 C941 1.327 . S
C943 C959 1.429 . S
C943 H965 0.950 . S
C944 H940 0.949 . S
C944 C952 1.574 . S
C944 C960 1.368 . S
H945 C953 0.950 . S
H946 C951 0.950 . S
H947 C952 0.949 . S
H948 C954 0.950 . S
H949 C955 0.950 . S
H950 C956 0.949 . S
C951 H946 0.950 . S
C951 C953 1.327 . S
C951 C957 1.429 . S
C952 C944 1.574 . S
C952 H947 0.949 . S
C952 C958 1.368 . S
C953 C937 1.349 . S
C953 H945 0.950 . S
C953 C951 1.327 . S
C954 C942 1.349 . S
C954 H948 0.950 . S
C954 C955 1.327 . S
C955 H949 0.950 . S
C955 C954 1.327 . S
C955 C959 1.429 . S
C956 C939 1.574 . S
C956 H950 0.949 . S
C956 C960 1.368 . S
C957 C938 1.429 . S
C957 C951 1.429 . S
C957 C958 1.523 . S
C958 C939 1.368 . S
C958 C952 1.368 . S
C958 C957 1.523 . S
C959 C943 1.429 . S
C959 C955 1.429 . S
C959 C960 1.523 . S
C960 C944 1.368 . S
C960 C956 1.368 . S
C960 C959 1.523 . S
H961 C936 0.950 . S
H962 C938 0.950 . S
H963 C939 0.949 . S
H964 C941 0.950 . S
H965 C943 0.950 . S
C966 C967 1.349 . S
C966 C968 1.327 . S
C966 H991 0.950 . S
C967 C966 1.349 . S
C967 C983 1.349 . S
C968 C966 1.327 . S
C968 C987 1.429 . S
C968 H992 0.950 . S
C969 C986 1.574 . S
C969 C988 1.368 . S
C969 H993 0.949 . S
H970 C974 0.949 . S
C971 C972 1.349 . S
C971 C973 1.327 . S
C971 H994 0.950 . S
C972 C971 1.349 . S
C972 C984 1.349 . S
C973 C971 1.327 . S
C973 C989 1.429 . S
C973 H995 0.950 . S
C974 H970 0.949 . S
C974 C982 1.574 . S
C974 C990 1.368 . S
H975 C983 0.950 . S
H976 C981 0.950 . S
H977 C982 0.949 . S
H978 C984 0.950 . S
H979 C985 0.950 . S
H980 C986 0.949 . S
C981 H976 0.950 . S
C981 C983 1.327 . S
C981 C987 1.429 . S
C982 C974 1.574 . S
C982 H977 0.949 . S
C982 C988 1.368 . S
C983 C967 1.349 . S
C983 H975 0.950 . S
C983 C981 1.327 . S
C984 C972 1.349 . S
C984 H978 0.950 . S
C984 C985 1.327 . S
C985 H979 0.950 . S
C985 C984 1.327 . S
C985 C989 1.429 . S
C986 C969 1.574 . S
C986 H980 0.949 . S
C986 C990 1.368 . S
C987 C968 1.429 . S
C987 C981 1.429 . S
C987 C988 1.523 . S
C988 C969 1.368 . S
C988 C982 1.368 . S
C988 C987 1.523 . S
C989 C973 1.429 . S
C989 C985 1.429 . S
C989 C990 1.523 . S
C990 C974 1.368 . S
C990 C986 1.368 . S
C990 C989 1.523 . S
H991 C966 0.950 . S
H992 C968 0.950 . S
H993 C969 0.949 . S
H994 C971 0.950 . S
H995 C973 0.950 . S
C277 N2 1.231 . S
C282 N94 1.143 . S
C307 C131 1.512 . S
C312 C39 1.604 . S
C337 N140 1.249 . S
C342 C53 1.377 . S
C367 N81 1.469 . S
C372 C177 1.354 1_556 S
C397 C99 1.448 . S
C402 N25 1.303 . S
C427 N127 1.348 . S
C432 N58 1.313 . S
C457 C76 1.539 . S
C462 C145 1.604 . S
C487 N173 1.412 . S
C492 C16 1.311 . S
C517 C108 1.492 . S
C522 C168 1.454 . S
C547 N117 1.268 . S
C552 N104 1.290 . S
C577 C154 1.572 . S
C582 C122 1.533 . S
C607 N150 1.303 . S
C612 N163 1.292 . S
C637 C200 1.517 . S
C642 C85 1.426 1_554 S
C667 N209 1.425 . S
C672 C7 1.416 . S
C697 C246 1.450 . S
C702 N35 1.447 . S
C727 C214 1.560 . S
C732 C30 1.624 . S
C757 C260 1.448 . S
C762 N71 1.456 . S
C787 N48 1.192 . S
C792 N255 1.272 . S
C817 N12 1.206 1_655 S
C822 N196 1.201 . S
C847 N242 1.358 . S
C852 C62 1.374 . S
C877 C269 1.451 . S
C882 C237 1.557 . S
C907 N265 1.294 . S
C912 N186 1.167 . S
C937 C191 1.571 . S
C942 C223 1.458 . S
C967 N219 1.376 . S
C972 N232 1.241 . S
