# Generated by pormake.
# Topology zfc, (5)-cn, num edge types: 1
# Building blocks:
#     Node 0, Type 0, BuildingBlock: BEQFEK_clean_sbu_0, # of connection points: 5
#     Node 1, Type 0, BuildingBlock: BEQFEK_clean_sbu_0, # of connection points: 5
#     Node 2, Type 0, BuildingBlock: BEQFEK_clean_sbu_0, # of connection points: 5
#     Node 3, Type 0, BuildingBlock: BEQFEK_clean_sbu_0, # of connection points: 5
#     Node 4, Type 0, BuildingBlock: BEQFEK_clean_sbu_0, # of connection points: 5
#     Node 5, Type 0, BuildingBlock: BEQFEK_clean_sbu_0, # of connection points: 5
#     Node 6, Type 0, BuildingBlock: BEQFEK_clean_sbu_0, # of connection points: 5
#     Node 7, Type 0, BuildingBlock: BEQFEK_clean_sbu_0, # of connection points: 5
#     Node 8, Type 0, BuildingBlock: BEQFEK_clean_sbu_0, # of connection points: 5
#     Node 9, Type 0, BuildingBlock: BEQFEK_clean_sbu_0, # of connection points: 5
#     Node 10, Type 0, BuildingBlock: BEQFEK_clean_sbu_0, # of connection points: 5
#     Node 11, Type 0, BuildingBlock: BEQFEK_clean_sbu_0, # of connection points: 5
#     Node 12, Type 0, BuildingBlock: BEQFEK_clean_sbu_0, # of connection points: 5
#     Node 13, Type 0, BuildingBlock: BEQFEK_clean_sbu_0, # of connection points: 5
#     Node 14, Type 0, BuildingBlock: BEQFEK_clean_sbu_0, # of connection points: 5
#     Node 15, Type 0, BuildingBlock: BEQFEK_clean_sbu_0, # of connection points: 5
#     Edge 16, Type (0, 0), BuildingBlock: ZUJKAS_clean_linker_0, # of connection points: 2
#     Edge 17, Type (0, 0), BuildingBlock: ZUJKAS_clean_linker_0, # of connection points: 2
#     Edge 18, Type (0, 0), BuildingBlock: ZUJKAS_clean_linker_0, # of connection points: 2
#     Edge 19, Type (0, 0), BuildingBlock: ZUJKAS_clean_linker_0, # of connection points: 2
#     Edge 20, Type (0, 0), BuildingBlock: ZUJKAS_clean_linker_0, # of connection points: 2
#     Edge 21, Type (0, 0), BuildingBlock: ZUJKAS_clean_linker_0, # of connection points: 2
#     Edge 22, Type (0, 0), BuildingBlock: ZUJKAS_clean_linker_0, # of connection points: 2
#     Edge 23, Type (0, 0), BuildingBlock: ZUJKAS_clean_linker_0, # of connection points: 2
#     Edge 24, Type (0, 0), BuildingBlock: ZUJKAS_clean_linker_0, # of connection points: 2
#     Edge 25, Type (0, 0), BuildingBlock: ZUJKAS_clean_linker_0, # of connection points: 2
#     Edge 26, Type (0, 0), BuildingBlock: ZUJKAS_clean_linker_0, # of connection points: 2
#     Edge 27, Type (0, 0), BuildingBlock: ZUJKAS_clean_linker_0, # of connection points: 2
#     Edge 28, Type (0, 0), BuildingBlock: ZUJKAS_clean_linker_0, # of connection points: 2
#     Edge 29, Type (0, 0), BuildingBlock: ZUJKAS_clean_linker_0, # of connection points: 2
#     Edge 30, Type (0, 0), BuildingBlock: ZUJKAS_clean_linker_0, # of connection points: 2
#     Edge 31, Type (0, 0), BuildingBlock: ZUJKAS_clean_linker_0, # of connection points: 2
#     Edge 32, Type (0, 0), BuildingBlock: ZUJKAS_clean_linker_0, # of connection points: 2
#     Edge 33, Type (0, 0), BuildingBlock: ZUJKAS_clean_linker_0, # of connection points: 2
#     Edge 34, Type (0, 0), BuildingBlock: ZUJKAS_clean_linker_0, # of connection points: 2
#     Edge 35, Type (0, 0), BuildingBlock: ZUJKAS_clean_linker_0, # of connection points: 2
#     Edge 36, Type (0, 0), BuildingBlock: ZUJKAS_clean_linker_0, # of connection points: 2
#     Edge 37, Type (0, 0), BuildingBlock: ZUJKAS_clean_linker_0, # of connection points: 2
#     Edge 38, Type (0, 0), BuildingBlock: ZUJKAS_clean_linker_0, # of connection points: 2
#     Edge 39, Type (0, 0), BuildingBlock: ZUJKAS_clean_linker_0, # of connection points: 2
#     Edge 40, Type (0, 0), BuildingBlock: ZUJKAS_clean_linker_0, # of connection points: 2
#     Edge 41, Type (0, 0), BuildingBlock: ZUJKAS_clean_linker_0, # of connection points: 2
#     Edge 42, Type (0, 0), BuildingBlock: ZUJKAS_clean_linker_0, # of connection points: 2
#     Edge 43, Type (0, 0), BuildingBlock: ZUJKAS_clean_linker_0, # of connection points: 2
#     Edge 44, Type (0, 0), BuildingBlock: ZUJKAS_clean_linker_0, # of connection points: 2
#     Edge 45, Type (0, 0), BuildingBlock: ZUJKAS_clean_linker_0, # of connection points: 2
#     Edge 46, Type (0, 0), BuildingBlock: ZUJKAS_clean_linker_0, # of connection points: 2
#     Edge 47, Type (0, 0), BuildingBlock: ZUJKAS_clean_linker_0, # of connection points: 2
#     Edge 48, Type (0, 0), BuildingBlock: ZUJKAS_clean_linker_0, # of connection points: 2
#     Edge 49, Type (0, 0), BuildingBlock: ZUJKAS_clean_linker_0, # of connection points: 2
#     Edge 50, Type (0, 0), BuildingBlock: ZUJKAS_clean_linker_0, # of connection points: 2
#     Edge 51, Type (0, 0), BuildingBlock: ZUJKAS_clean_linker_0, # of connection points: 2
#     Edge 52, Type (0, 0), BuildingBlock: ZUJKAS_clean_linker_0, # of connection points: 2
#     Edge 53, Type (0, 0), BuildingBlock: ZUJKAS_clean_linker_0, # of connection points: 2
#     Edge 54, Type (0, 0), BuildingBlock: ZUJKAS_clean_linker_0, # of connection points: 2
#     Edge 55, Type (0, 0), BuildingBlock: ZUJKAS_clean_linker_0, # of connection points: 2
# Relax obj value: 0.160
# Max RMSD: 0.191
# Mean RMSD: 0.191
data_MOF--net-zfc--node1-BEQFEK_clean_sbu_0--edge1-ZUJKAS_clean_linker_0
_symmetry_space_group_name_H-M    P1
_symmetry_Int_Tables_number       1
_symmetry_cell_setting            triclinic
loop_
_symmetry_equiv_pos_as_xyz
'x, y, z'
_cell_length_a     94.871506
_cell_length_b     94.855737
_cell_length_c     23.120984
_cell_angle_alpha  90.019605
_cell_angle_beta   89.990442
_cell_angle_gamma 90.003745
loop_
_atom_site_label
_atom_site_type_symbol
_atom_site_fract_x
_atom_site_fract_y
_atom_site_fract_z
_atom_type_partial_charge
Co0 Co 0.25092 0.11146 0.12819 0.0
Co1 Co 0.2627 0.11668 0.00409 0.0
C2 C 0.23576 0.13015 0.04785 0.0
O3 O 0.23608 0.12376 0.09619 0.0
O4 O 0.24549 0.12851 0.01053 0.0
C5 C 0.23452 0.10867 0.23316 0.0
O6 O 0.22491 0.1162 0.20637 0.0
C7 C 0.25874 0.11586 0.88069 0.0
C8 C 0.28037 0.11696 0.84563 0.0
C9 C 0.26633 0.11591 0.82951 0.0
N10 N 0.26783 0.11691 0.92488 0.0
N11 N 0.28076 0.11767 0.90384 0.0
C12 C 0.24325 0.11346 0.88844 0.0
H13 H 0.24114 0.10848 0.931 0.0
H14 H 0.23901 0.10665 0.85351 0.0
H15 H 0.23771 0.12376 0.88715 0.0
C16 C 0.25207 0.08191 0.08892 0.0
N17 N 0.25392 0.09579 0.08004 0.0
N18 N 0.25928 0.09782 0.02824 0.0
C19 C 0.26125 0.08518 0.00272 0.0
C20 C 0.25667 0.07472 0.04026 0.0
C21 C 0.24667 0.07574 0.14422 0.0
H22 H 0.25378 0.07883 0.18015 0.0
H23 H 0.23609 0.08016 0.1537 0.0
H24 H 0.24604 0.06408 0.14234 0.0
O25 O 0.26871 0.12221 0.13812 0.0
O26 O 0.27784 0.12532 0.05068 0.0
H27 H 0.27689 0.08946 0.93827 0.0
H28 H 0.26934 0.07198 0.9335 0.0
C29 C 0.26709 0.0832 0.94311 0.0
H30 H 0.25932 0.08707 0.91107 0.0
H31 H 0.28983 0.11841 0.92918 0.0
O32 O 0.24575 0.10527 0.20667 0.0
C33 C 0.27844 0.12688 0.10532 0.0
Co34 Co 0.88707 0.24877 0.14091 0.0
Co35 Co 0.88305 0.26029 0.01565 0.0
C36 C 0.86956 0.23307 0.05839 0.0
O37 O 0.87517 0.23361 0.10836 0.0
O38 O 0.87172 0.24273 0.02119 0.0
C39 C 0.89307 0.23275 0.24697 0.0
O40 O 0.88981 0.22113 0.21908 0.0
C41 C 0.88662 0.25581 0.89322 0.0
C42 C 0.88293 0.27684 0.85498 0.0
C43 C 0.88635 0.26303 0.84118 0.0
N44 N 0.88372 0.26496 0.93586 0.0
N45 N 0.88149 0.27752 0.91292 0.0
C46 C 0.88847 0.2403 0.90294 0.0
H47 H 0.89341 0.23839 0.94571 0.0
H48 H 0.89484 0.23524 0.86869 0.0
H49 H 0.87793 0.23523 0.90299 0.0
C50 C 0.91704 0.25039 0.10696 0.0
N51 N 0.90323 0.25195 0.0955 0.0
N52 N 0.90168 0.25736 0.0435 0.0
C53 C 0.91455 0.25961 0.02041 0.0
C54 C 0.92467 0.2552 0.0598 0.0
C55 C 0.92273 0.24512 0.16332 0.0
H56 H 0.91882 0.25194 0.19887 0.0
H57 H 0.91876 0.23428 0.17115 0.0
H58 H 0.93441 0.2451 0.16411 0.0
O59 O 0.8761 0.26639 0.14748 0.0
O60 O 0.87354 0.27551 0.05977 0.0
H61 H 0.91002 0.27452 0.9532 0.0
H62 H 0.92815 0.26867 0.95457 0.0
C63 C 0.91706 0.26539 0.96102 0.0
H64 H 0.91464 0.25711 0.92869 0.0
H65 H 0.87899 0.28652 0.93674 0.0
O66 O 0.89259 0.24452 0.22095 0.0
C67 C 0.87156 0.27607 0.11423 0.0
Co68 Co 0.7496 0.88793 0.12749 0.0
Co69 Co 0.7364 0.88242 0.00638 0.0
C70 C 0.76413 0.86947 0.04398 0.0
O71 O 0.76409 0.87565 0.09282 0.0
O72 O 0.75406 0.87111 0.00824 0.0
C73 C 0.7629 0.88639 0.23699 0.0
O74 O 0.76737 0.87423 0.21688 0.0
C75 C 0.73835 0.88378 0.88244 0.0
C76 C 0.7163 0.88152 0.85304 0.0
C77 C 0.72998 0.88346 0.83344 0.0
N78 N 0.73005 0.88205 0.92881 0.0
N79 N 0.71688 0.8806 0.91118 0.0
C80 C 0.75378 0.887 0.88611 0.0
H81 H 0.75635 0.89182 0.92855 0.0
H82 H 0.75703 0.89423 0.85081 0.0
H83 H 0.75983 0.87704 0.88198 0.0
C84 C 0.74787 0.91742 0.08749 0.0
N85 N 0.74584 0.90351 0.07971 0.0
N86 N 0.73979 0.90136 0.02933 0.0
C87 C 0.73754 0.91392 0.00368 0.0
C88 C 0.74265 0.9245 0.03957 0.0
C89 C 0.75526 0.92361 0.13872 0.0
H90 H 0.76441 0.91693 0.15056 0.0
H91 H 0.75897 0.93449 0.1299 0.0
H92 H 0.7479 0.9238 0.17604 0.0
O93 O 0.7321 0.87707 0.14197 0.0
O94 O 0.72211 0.87344 0.05653 0.0
H95 H 0.7257 0.92672 0.94336 0.0
H96 H 0.73716 0.91374 0.91129 0.0
C97 C 0.72985 0.91584 0.94771 0.0
H98 H 0.72094 0.90832 0.94506 0.0
H99 H 0.70829 0.87925 0.93881 0.0
O100 O 0.75568 0.89435 0.20434 0.0
C101 C 0.72213 0.87209 0.1113 0.0
Co102 Co 0.11075 0.74997 0.12594 0.0
Co103 Co 0.1157 0.73709 0.00387 0.0
C104 C 0.12916 0.76448 0.04187 0.0
O105 O 0.1231 0.76435 0.09093 0.0
O106 O 0.12731 0.75455 0.00561 0.0
C107 C 0.11271 0.7634 0.23514 0.0
O108 O 0.12496 0.76758 0.21491 0.0
C109 C 0.11494 0.7388 0.87954 0.0
C110 C 0.11514 0.71651 0.85167 0.0
C111 C 0.11458 0.73023 0.83114 0.0
N112 N 0.11575 0.73057 0.92653 0.0
N113 N 0.11599 0.71725 0.90979 0.0
C114 C 0.11303 0.75447 0.882 0.0
H115 H 0.10811 0.75758 0.92363 0.0
H116 H 0.10637 0.7582 0.84565 0.0
H117 H 0.12349 0.75963 0.87886 0.0
C118 C 0.08109 0.74827 0.08827 0.0
N119 N 0.09497 0.74645 0.07896 0.0
N120 N 0.09689 0.74068 0.02786 0.0
C121 C 0.0842 0.73844 0.00317 0.0
C122 C 0.07381 0.74324 0.04059 0.0
C123 C 0.07503 0.75397 0.14327 0.0
H124 H 0.07837 0.74718 0.17986 0.0
H125 H 0.0793 0.7647 0.15115 0.0
H126 H 0.06336 0.75439 0.14207 0.0
O127 O 0.1214 0.73232 0.13982 0.0
O128 O 0.12452 0.72264 0.05343 0.0
H129 H 0.08792 0.72203 0.94143 0.0
H130 H 0.07082 0.7303 0.93463 0.0
C131 C 0.08211 0.73214 0.94441 0.0
H132 H 0.0864 0.73942 0.91136 0.0
H133 H 0.11643 0.70869 0.93802 0.0
O134 O 0.10459 0.75629 0.20272 0.0
C135 C 0.12609 0.7224 0.10809 0.0
Co136 Co 0.24861 0.88952 0.84786 0.0
Co137 Co 0.2606 0.88358 0.97132 0.0
C138 C 0.2337 0.87017 0.92714 0.0
O139 O 0.23417 0.87661 0.87893 0.0
O140 O 0.24328 0.87189 0.96505 0.0
C141 C 0.23257 0.89154 0.74221 0.0
O142 O 0.22388 0.88267 0.76733 0.0
C143 C 0.25723 0.88386 0.09527 0.0
C144 C 0.27902 0.88232 0.12831 0.0
C145 C 0.26508 0.88347 0.14578 0.0
N146 N 0.26608 0.88292 0.05019 0.0
N147 N 0.2791 0.8819 0.07003 0.0
C148 C 0.24174 0.8865 0.0891 0.0
H149 H 0.23944 0.89153 0.04681 0.0
H150 H 0.23782 0.89336 0.12453 0.0
H151 H 0.23604 0.87629 0.09093 0.0
C152 C 0.24972 0.91881 0.89026 0.0
N153 N 0.25155 0.90488 0.89781 0.0
N154 N 0.25709 0.90257 0.9491 0.0
C155 C 0.25919 0.91506 0.97559 0.0
C156 C 0.25451 0.92573 0.93925 0.0
C157 C 0.2443 0.92528 0.83557 0.0
H158 H 0.25146 0.92246 0.79941 0.0
H159 H 0.23376 0.92083 0.82551 0.0
H160 H 0.24358 0.93692 0.83865 0.0
O161 O 0.26649 0.8792 0.83594 0.0
O162 O 0.2756 0.87514 0.92276 0.0
H163 H 0.27513 0.91037 0.03831 0.0
H164 H 0.26775 0.92789 0.04502 0.0
C165 C 0.26536 0.91673 0.03479 0.0
H166 H 0.25772 0.9128 0.06723 0.0
H167 H 0.28803 0.88116 0.04385 0.0
O168 O 0.24316 0.89611 0.77011 0.0
C169 C 0.27621 0.8742 0.86785 0.0
Co170 Co 0.10945 0.24936 0.86084 0.0
Co171 Co 0.11571 0.26104 0.98404 0.0
C172 C 0.12946 0.23454 0.93505 0.0
O173 O 0.12233 0.23456 0.88849 0.0
O174 O 0.12806 0.24425 0.97265 0.0
C175 C 0.10373 0.23339 0.75582 0.0
O176 O 0.10938 0.22245 0.78187 0.0
C177 C 0.11303 0.25668 0.1075 0.0
C178 C 0.11814 0.27757 0.14411 0.0
C179 C 0.1139 0.26406 0.15918 0.0
N180 N 0.11632 0.26548 0.06406 0.0
N181 N 0.11943 0.27794 0.08611 0.0
C182 C 0.10959 0.24138 0.0991 0.0
H183 H 0.11377 0.23747 0.05746 0.0
H184 H 0.09799 0.23998 0.09819 0.0
H185 H 0.11396 0.23498 0.13504 0.0
C186 C 0.08032 0.24968 0.90539 0.0
N187 N 0.09425 0.25175 0.91189 0.0
N188 N 0.09669 0.25741 0.9628 0.0
C189 C 0.08427 0.25955 0.98978 0.0
C190 C 0.07351 0.25457 0.95457 0.0
C191 C 0.07382 0.24282 0.85358 0.0
H192 H 0.08045 0.23383 0.83938 0.0
H193 H 0.06302 0.23895 0.86299 0.0
H194 H 0.07335 0.25056 0.81768 0.0
O195 O 0.11981 0.26743 0.8512 0.0
O196 O 0.12341 0.27673 0.93802 0.0
H197 H 0.09086 0.27579 0.04883 0.0
H198 H 0.07206 0.27291 0.04644 0.0
C199 C 0.08252 0.26767 0.04489 0.0
H200 H 0.08323 0.26038 0.08218 0.0
H201 H 0.12228 0.28672 0.06156 0.0
O202 O 0.10256 0.24499 0.78278 0.0
C203 C 0.12449 0.27732 0.88319 0.0
Co204 Co 0.74815 0.11064 0.85306 0.0
Co205 Co 0.73731 0.11561 0.97884 0.0
C206 C 0.76376 0.12949 0.93143 0.0
O207 O 0.76303 0.12331 0.88265 0.0
O208 O 0.75443 0.12748 0.97017 0.0
C209 C 0.76445 0.10542 0.74834 0.0
O210 O 0.77542 0.11051 0.77605 0.0
C211 C 0.74189 0.11404 0.10231 0.0
C212 C 0.72038 0.11509 0.13873 0.0
C213 C 0.73443 0.11351 0.1538 0.0
N214 N 0.73266 0.11555 0.05878 0.0
N215 N 0.71982 0.11629 0.08068 0.0
C216 C 0.75755 0.11389 0.09372 0.0
H217 H 0.76094 0.12445 0.0787 0.0
H218 H 0.76034 0.1062 0.05939 0.0
H219 H 0.76344 0.11152 0.13385 0.0
C220 C 0.74749 0.081 0.89178 0.0
N221 N 0.74573 0.09488 0.90142 0.0
N222 N 0.74078 0.0968 0.95396 0.0
C223 C 0.73907 0.08411 0.97938 0.0
C224 C 0.74332 0.07371 0.94084 0.0
C225 C 0.75221 0.07492 0.83524 0.0
H226 H 0.74497 0.07848 0.80052 0.0
H227 H 0.76289 0.07895 0.82486 0.0
H228 H 0.75236 0.06324 0.83594 0.0
O229 O 0.73016 0.121 0.84554 0.0
O230 O 0.72166 0.12412 0.93402 0.0
H231 H 0.724 0.08814 0.04639 0.0
H232 H 0.73183 0.07078 0.04982 0.0
C233 C 0.73383 0.08202 0.03987 0.0
H234 H 0.74187 0.08594 0.07066 0.0
H235 H 0.71068 0.11738 0.05601 0.0
O236 O 0.75266 0.1045 0.77399 0.0
C237 C 0.72062 0.12556 0.87941 0.0
Co238 Co 0.88829 0.74794 0.85864 0.0
Co239 Co 0.88228 0.73734 0.98416 0.0
C240 C 0.86894 0.76377 0.93386 0.0
O241 O 0.87544 0.76287 0.88587 0.0
O242 O 0.87063 0.75456 0.9733 0.0
C243 C 0.8943 0.764 0.75424 0.0
O244 O 0.88934 0.77505 0.78178 0.0
C245 C 0.88368 0.7422 0.10765 0.0
C246 C 0.88147 0.72085 0.1448 0.0
C247 C 0.88374 0.73485 0.15945 0.0
N248 N 0.8818 0.73295 0.06438 0.0
N249 N 0.88036 0.72021 0.08674 0.0
C250 C 0.8847 0.75782 0.09855 0.0
H251 H 0.8933 0.76016 0.06745 0.0
H252 H 0.88636 0.76371 0.13929 0.0
H253 H 0.87473 0.76162 0.07912 0.0
C254 C 0.91755 0.74744 0.90148 0.0
N255 N 0.90362 0.74563 0.90921 0.0
N256 N 0.9013 0.74055 0.96128 0.0
C257 C 0.9138 0.73868 0.98804 0.0
C258 C 0.92445 0.74308 0.95113 0.0
C259 C 0.92406 0.75244 0.84622 0.0
H260 H 0.92122 0.74506 0.81084 0.0
H261 H 0.91971 0.76295 0.83504 0.0
H262 H 0.93571 0.75311 0.84929 0.0
O263 O 0.87794 0.72996 0.85083 0.0
O264 O 0.8739 0.72165 0.93902 0.0
H265 H 0.90867 0.72357 0.05371 0.0
H266 H 0.92659 0.73001 0.05726 0.0
C267 C 0.91551 0.73294 0.04795 0.0
H268 H 0.91228 0.74109 0.07964 0.0
H269 H 0.87888 0.71108 0.06237 0.0
O270 O 0.89495 0.75219 0.77997 0.0
C271 C 0.87298 0.72052 0.88424 0.0
Co272 Co 0.74848 0.61069 0.64109 0.0
Co273 Co 0.7596 0.61636 0.51667 0.0
C274 C 0.73304 0.63001 0.56536 0.0
O275 O 0.73359 0.62344 0.61324 0.0
O276 O 0.74249 0.62831 0.52689 0.0
C277 C 0.73244 0.60475 0.74569 0.0
O278 O 0.72132 0.60967 0.71857 0.0
C279 C 0.75516 0.61294 0.39358 0.0
C280 C 0.77583 0.61856 0.3561 0.0
C281 C 0.76242 0.61391 0.34164 0.0
N282 N 0.76394 0.61659 0.43659 0.0
N283 N 0.77628 0.61999 0.41404 0.0
C284 C 0.73998 0.60914 0.40256 0.0
H285 H 0.7361 0.61306 0.44466 0.0
H286 H 0.73883 0.59751 0.40275 0.0
H287 H 0.73338 0.61349 0.3672 0.0
C288 C 0.74916 0.58127 0.59937 0.0
N289 N 0.75089 0.59521 0.59127 0.0
N290 N 0.75639 0.59743 0.5399 0.0
C291 C 0.75876 0.58488 0.51422 0.0
C292 C 0.75411 0.57425 0.55078 0.0
C293 C 0.74262 0.57495 0.65223 0.0
H294 H 0.73337 0.58132 0.6655 0.0
H295 H 0.7392 0.56393 0.64454 0.0
H296 H 0.75039 0.57514 0.68808 0.0
O297 O 0.76645 0.6212 0.64934 0.0
O298 O 0.77525 0.62465 0.56155 0.0
H299 H 0.77476 0.59146 0.45406 0.0
H300 H 0.77233 0.57263 0.45851 0.0
C301 C 0.76685 0.58296 0.45911 0.0
H302 H 0.75948 0.58328 0.42194 0.0
H303 H 0.785 0.62319 0.43818 0.0
O304 O 0.7442 0.60413 0.7196 0.0
C305 C 0.7761 0.62593 0.61627 0.0
Co306 Co 0.38608 0.74877 0.64235 0.0
Co307 Co 0.3839 0.75986 0.51607 0.0
C308 C 0.36947 0.73317 0.55465 0.0
O309 O 0.37451 0.73402 0.60549 0.0
O310 O 0.37209 0.74257 0.51689 0.0
C311 C 0.39406 0.73222 0.74574 0.0
O312 O 0.39925 0.72216 0.71303 0.0
C313 C 0.3869 0.75689 0.39199 0.0
C314 C 0.38889 0.77892 0.362 0.0
C315 C 0.38896 0.76505 0.34314 0.0
N316 N 0.38569 0.7655 0.43774 0.0
N317 N 0.38674 0.77868 0.41961 0.0
C318 C 0.38764 0.74116 0.39646 0.0
H319 H 0.39182 0.73801 0.43936 0.0
H320 H 0.39443 0.73668 0.36194 0.0
H321 H 0.37687 0.73674 0.39173 0.0
C322 C 0.41684 0.75091 0.61625 0.0
N323 N 0.40311 0.75188 0.60165 0.0
N324 N 0.40214 0.75652 0.54809 0.0
C325 C 0.41523 0.75855 0.5269 0.0
C326 C 0.42492 0.75505 0.56934 0.0
C327 C 0.42217 0.74712 0.67511 0.0
H328 H 0.41515 0.75159 0.70876 0.0
H329 H 0.42231 0.73548 0.67948 0.0
H330 H 0.43305 0.75109 0.6819 0.0
O331 O 0.37542 0.76658 0.64768 0.0
O332 O 0.37414 0.77515 0.55867 0.0
H333 H 0.41355 0.77389 0.45945 0.0
H334 H 0.42988 0.7641 0.45826 0.0
C335 C 0.4184 0.76341 0.46668 0.0
H336 H 0.41382 0.75586 0.43538 0.0
H337 H 0.38633 0.78746 0.4467 0.0
O338 O 0.38898 0.74331 0.72328 0.0
C339 C 0.37151 0.77612 0.61251 0.0
Co340 Co 0.24723 0.38857 0.63745 0.0
Co341 Co 0.23639 0.38278 0.51232 0.0
C342 C 0.26323 0.36975 0.56126 0.0
O343 O 0.26241 0.37617 0.60943 0.0
O344 O 0.25382 0.37133 0.52253 0.0
C345 C 0.26312 0.39441 0.74226 0.0
O346 O 0.27419 0.38951 0.71465 0.0
C347 C 0.24115 0.38658 0.38958 0.0
C348 C 0.22111 0.3796 0.35025 0.0
C349 C 0.23432 0.38498 0.33693 0.0
N350 N 0.23233 0.38254 0.43188 0.0
N351 N 0.22036 0.37836 0.40822 0.0
C352 C 0.25605 0.3912 0.39987 0.0
H353 H 0.25973 0.38797 0.44326 0.0
H354 H 0.25668 0.40285 0.3978 0.0
H355 H 0.26313 0.38676 0.36626 0.0
C356 C 0.24569 0.41799 0.59671 0.0
N357 N 0.24447 0.40403 0.58791 0.0
N358 N 0.23905 0.40175 0.53644 0.0
C359 C 0.23623 0.41427 0.51135 0.0
C360 C 0.24047 0.42497 0.54849 0.0
C361 C 0.25194 0.4244 0.65001 0.0
H362 H 0.26131 0.41825 0.66351 0.0
H363 H 0.25509 0.43552 0.64272 0.0
H364 H 0.24408 0.42397 0.68552 0.0
O365 O 0.22945 0.37777 0.6447 0.0
O366 O 0.22091 0.37392 0.55668 0.0
H367 H 0.22219 0.42613 0.45626 0.0
H368 H 0.23551 0.41617 0.4192 0.0
C369 C 0.22811 0.41603 0.45628 0.0
H370 H 0.22058 0.40721 0.45058 0.0
H371 H 0.21171 0.37464 0.4316 0.0
O372 O 0.25133 0.39509 0.71645 0.0
C373 C 0.21999 0.37276 0.61144 0.0
Co374 Co 0.61045 0.24883 0.62893 0.0
Co375 Co 0.61588 0.23681 0.50558 0.0
C376 C 0.62958 0.26376 0.55088 0.0
O377 O 0.62314 0.26356 0.59912 0.0
O378 O 0.62779 0.25402 0.51369 0.0
C379 C 0.60513 0.26495 0.73446 0.0
O380 O 0.61059 0.27596 0.70829 0.0
C381 C 0.61207 0.24083 0.38253 0.0
C382 C 0.61801 0.2202 0.34548 0.0
C383 C 0.61314 0.23352 0.33071 0.0
N384 N 0.6159 0.23217 0.42571 0.0
N385 N 0.61946 0.21985 0.40342 0.0
C386 C 0.60805 0.25597 0.39125 0.0
H387 H 0.61168 0.25988 0.43373 0.0
H388 H 0.59642 0.25699 0.39038 0.0
H389 H 0.61253 0.26262 0.35631 0.0
C390 C 0.58098 0.24774 0.58877 0.0
N391 N 0.5949 0.24608 0.58001 0.0
N392 N 0.59699 0.24017 0.5293 0.0
C393 C 0.58438 0.23751 0.50467 0.0
C394 C 0.57384 0.24234 0.54132 0.0
C395 C 0.57478 0.25454 0.64134 0.0
H396 H 0.57496 0.2469 0.67768 0.0
H397 H 0.58123 0.2638 0.65387 0.0
H398 H 0.56377 0.25799 0.63364 0.0
O399 O 0.62084 0.23088 0.6383 0.0
O400 O 0.62434 0.2214 0.55171 0.0
H401 H 0.59091 0.22119 0.4459 0.0
H402 H 0.57206 0.22347 0.45127 0.0
C403 C 0.58235 0.22905 0.45062 0.0
H404 H 0.58246 0.23617 0.41265 0.0
H405 H 0.62286 0.21122 0.42772 0.0
O406 O 0.60402 0.25335 0.70747 0.0
C407 C 0.62555 0.22097 0.60656 0.0
Co408 Co 0.7495 0.38876 0.35794 0.0
Co409 Co 0.76073 0.38314 0.4826 0.0
C410 C 0.73406 0.36961 0.43526 0.0
O411 O 0.7346 0.37604 0.38701 0.0
O412 O 0.74353 0.37141 0.47358 0.0
C413 C 0.73328 0.39452 0.25318 0.0
O414 O 0.7222 0.38935 0.27985 0.0
C415 C 0.75673 0.38433 0.60677 0.0
C416 C 0.7785 0.38361 0.64075 0.0
C417 C 0.76453 0.38509 0.65736 0.0
N418 N 0.76569 0.38286 0.56223 0.0
N419 N 0.77868 0.38227 0.58272 0.0
C420 C 0.74102 0.38447 0.60004 0.0
H421 H 0.73763 0.37449 0.57944 0.0
H422 H 0.73789 0.39323 0.57093 0.0
H423 H 0.73541 0.38533 0.64186 0.0
C424 C 0.75051 0.41821 0.39893 0.0
N425 N 0.75219 0.40428 0.40736 0.0
N426 N 0.75735 0.40209 0.45937 0.0
C427 C 0.7593 0.41465 0.48559 0.0
C428 C 0.75498 0.42524 0.44818 0.0
C429 C 0.74557 0.42458 0.34329 0.0
H430 H 0.75274 0.4213 0.30786 0.0
H431 H 0.73489 0.42051 0.333 0.0
H432 H 0.74531 0.43626 0.34522 0.0
O433 O 0.76735 0.37823 0.3487 0.0
O434 O 0.77614 0.37467 0.43639 0.0
H435 H 0.77469 0.41024 0.55089 0.0
H436 H 0.76701 0.42763 0.55633 0.0
C437 C 0.76487 0.41644 0.54573 0.0
H438 H 0.75697 0.41246 0.57696 0.0
H439 H 0.78767 0.38129 0.55705 0.0
O440 O 0.74498 0.39528 0.27956 0.0
C441 C 0.77696 0.37342 0.38164 0.0
Co442 Co 0.60982 0.75055 0.37116 0.0
Co443 Co 0.61542 0.76326 0.49333 0.0
C444 C 0.62831 0.73568 0.45398 0.0
O445 O 0.62212 0.73594 0.40517 0.0
O446 O 0.6267 0.74561 0.49048 0.0
C447 C 0.61034 0.73635 0.26223 0.0
O448 O 0.62188 0.73056 0.28277 0.0
C449 C 0.61516 0.7616 0.61808 0.0
C450 C 0.61545 0.78394 0.64528 0.0
C451 C 0.6149 0.77026 0.66625 0.0
N452 N 0.61586 0.76975 0.57079 0.0
N453 N 0.61617 0.7831 0.58717 0.0
C454 C 0.61321 0.74594 0.61624 0.0
H455 H 0.60821 0.74274 0.5749 0.0
H456 H 0.60661 0.7423 0.65296 0.0
H457 H 0.62367 0.74077 0.61928 0.0
C458 C 0.58036 0.75227 0.41171 0.0
N459 N 0.59428 0.75421 0.41946 0.0
N460 N 0.59648 0.75996 0.47045 0.0
C461 C 0.58394 0.76208 0.49654 0.0
C462 C 0.57335 0.75722 0.46024 0.0
C463 C 0.574 0.74629 0.35781 0.0
H464 H 0.57688 0.75306 0.32052 0.0
H465 H 0.57844 0.73565 0.34976 0.0
H466 H 0.56234 0.74562 0.36068 0.0
O467 O 0.62074 0.76805 0.35712 0.0
O468 O 0.62436 0.77759 0.44343 0.0
H469 H 0.58811 0.77817 0.55918 0.0
H470 H 0.57095 0.77007 0.56661 0.0
C471 C 0.58217 0.76814 0.55589 0.0
H472 H 0.5865 0.76066 0.58808 0.0
H473 H 0.61653 0.79162 0.55868 0.0
O474 O 0.60325 0.7446 0.29425 0.0
C475 C 0.62574 0.77785 0.38868 0.0
Co476 Co 0.2483 0.60993 0.36252 0.0
Co477 Co 0.23619 0.61649 0.48504 0.0
C478 C 0.26379 0.62864 0.44303 0.0
O479 O 0.26317 0.62216 0.39491 0.0
O480 O 0.25403 0.62744 0.48052 0.0
C481 C 0.2628 0.6094 0.2541 0.0
O482 O 0.26943 0.62045 0.27493 0.0
C483 C 0.23796 0.61669 0.60991 0.0
C484 C 0.21564 0.61743 0.63711 0.0
C485 C 0.22931 0.61667 0.65812 0.0
N486 N 0.22982 0.61743 0.56261 0.0
N487 N 0.21648 0.61804 0.57899 0.0
C488 C 0.25358 0.61441 0.60802 0.0
H489 H 0.25666 0.60932 0.5667 0.0
H490 H 0.25709 0.60776 0.64475 0.0
H491 H 0.25897 0.62477 0.6109 0.0
C492 C 0.24552 0.58073 0.40456 0.0
N493 N 0.24438 0.59474 0.41213 0.0
N494 N 0.239 0.59733 0.46348 0.0
C495 C 0.23642 0.58496 0.49021 0.0
C496 C 0.24051 0.57406 0.45377 0.0
C497 C 0.25053 0.574 0.34971 0.0
H498 H 0.24383 0.57763 0.31331 0.0
H499 H 0.26149 0.57746 0.34072 0.0
H500 H 0.25012 0.56233 0.35186 0.0
O501 O 0.23098 0.62103 0.34847 0.0
O502 O 0.22188 0.62547 0.43494 0.0
H503 H 0.22052 0.58961 0.55309 0.0
H504 H 0.22863 0.5725 0.56233 0.0
C505 C 0.23053 0.58362 0.55005 0.0
H506 H 0.2381 0.58819 0.58133 0.0
H507 H 0.20797 0.61845 0.55051 0.0
O508 O 0.25396 0.60297 0.28576 0.0
C509 C 0.22142 0.62644 0.38006 0.0
Co510 Co 0.38798 0.25091 0.36697 0.0
Co511 Co 0.38214 0.23767 0.48791 0.0
C512 C 0.36925 0.26537 0.45018 0.0
O513 O 0.37563 0.26535 0.40177 0.0
O514 O 0.37076 0.25527 0.48593 0.0
C515 C 0.38602 0.26381 0.25747 0.0
O516 O 0.37359 0.26752 0.27742 0.0
C517 C 0.38232 0.2391 0.61252 0.0
C518 C 0.38179 0.21676 0.63942 0.0
C519 C 0.38243 0.23042 0.6606 0.0
N520 N 0.38159 0.23099 0.56511 0.0
N521 N 0.38114 0.21764 0.58129 0.0
C522 C 0.38447 0.25474 0.61083 0.0
H523 H 0.3895 0.2579 0.56949 0.0
H524 H 0.39114 0.25828 0.64751 0.0
H525 H 0.37409 0.26006 0.614 0.0
C526 C 0.4174 0.24839 0.40672 0.0
N527 N 0.40345 0.24694 0.41503 0.0
N528 N 0.40115 0.2411 0.46573 0.0
C529 C 0.41366 0.23852 0.49132 0.0
C530 C 0.42435 0.24309 0.45478 0.0
C531 C 0.42381 0.25387 0.35201 0.0
H532 H 0.42007 0.24741 0.31506 0.0
H533 H 0.42021 0.26486 0.34473 0.0
H534 H 0.43549 0.25356 0.35316 0.0
O535 O 0.37722 0.23347 0.35147 0.0
O536 O 0.37336 0.22343 0.43667 0.0
H537 H 0.40948 0.22203 0.55213 0.0
H538 H 0.4265 0.23032 0.56154 0.0
C539 C 0.41531 0.23215 0.55017 0.0
H540 H 0.41075 0.23938 0.5828 0.0
H541 H 0.38073 0.20914 0.55268 0.0
O542 O 0.39444 0.25725 0.29053 0.0
C543 C 0.37219 0.22347 0.3818 0.0
H544 H 0.24271 0.12786 0.78275 0.0
H545 H 0.23343 0.12457 0.68497 0.0
H546 H 0.26889 0.09799 0.64318 0.0
H547 H 0.27803 0.10093 0.74159 0.0
H548 H 0.24699 0.13158 0.58195 0.0
H549 H 0.23477 0.07445 0.59006 0.0
H550 H 0.23763 0.0849 0.65432 0.0
H551 H 0.25238 0.07872 0.61257 0.0
C552 C 0.24836 0.12107 0.75313 0.0
C553 C 0.2609 0.11435 0.77006 0.0
C554 C 0.2431 0.11929 0.69724 0.0
C555 C 0.2503 0.11076 0.65746 0.0
C556 C 0.26299 0.1043 0.67383 0.0
H557 H 0.25245 0.09324 0.30006 0.0
H558 H 0.25364 0.09293 0.40536 0.0
C559 C 0.26827 0.10611 0.72972 0.0
C560 C 0.24501 0.10932 0.59768 0.0
H561 H 0.23524 0.08508 0.49622 0.0
C562 C 0.2442 0.12146 0.56332 0.0
C563 C 0.24137 0.09608 0.57385 0.0
C564 C 0.24144 0.0828 0.60972 0.0
C565 C 0.24053 0.12065 0.50472 0.0
C566 C 0.23731 0.10735 0.48035 0.0
C567 C 0.23766 0.09525 0.51521 0.0
C568 C 0.23498 0.10569 0.41754 0.0
C569 C 0.24085 0.13393 0.46873 0.0
C570 C 0.22371 0.11244 0.38972 0.0
C571 C 0.22302 0.11272 0.32933 0.0
C572 C 0.23359 0.1062 0.29611 0.0
C573 C 0.24423 0.09852 0.32438 0.0
C574 C 0.24492 0.09828 0.38458 0.0
H575 H 0.24611 0.14278 0.49164 0.0
H576 H 0.24644 0.13206 0.4272 0.0
H577 H 0.2299 0.1372 0.45863 0.0
H578 H 0.21579 0.11799 0.41464 0.0
H579 H 0.21461 0.11861 0.30883 0.0
H580 H 0.87024 0.26691 0.74574 0.0
H581 H 0.87436 0.25758 0.64838 0.0
H582 H 0.91257 0.23757 0.70752 0.0
H583 H 0.90881 0.24748 0.80418 0.0
H584 H 0.91653 0.2505 0.6066 0.0
H585 H 0.86859 0.2177 0.59166 0.0
H586 H 0.86426 0.23556 0.60982 0.0
H587 H 0.87463 0.22514 0.65914 0.0
C588 C 0.87947 0.26047 0.73783 0.0
C589 C 0.88895 0.25746 0.78266 0.0
C590 C 0.88174 0.25502 0.68251 0.0
C591 C 0.89352 0.24646 0.67124 0.0
C592 C 0.90325 0.24387 0.71563 0.0
H593 H 0.89307 0.21011 0.32135 0.0
H594 H 0.89609 0.21078 0.42677 0.0
C595 C 0.90102 0.24938 0.77088 0.0
C596 C 0.89598 0.24091 0.61225 0.0
H597 H 0.8794 0.22422 0.50076 0.0
C598 C 0.90853 0.24453 0.58375 0.0
C599 C 0.88574 0.23275 0.58296 0.0
C600 C 0.87263 0.22742 0.61276 0.0
C601 C 0.91063 0.24112 0.52537 0.0
C602 C 0.89974 0.23425 0.49447 0.0
C603 C 0.88767 0.22968 0.52417 0.0
C604 C 0.89981 0.23328 0.43054 0.0
C605 C 0.92438 0.2452 0.49716 0.0
C606 C 0.90099 0.24566 0.39782 0.0
C607 C 0.89935 0.2453 0.33804 0.0
C608 C 0.89626 0.23257 0.30955 0.0
C609 C 0.89544 0.22008 0.34206 0.0
C610 C 0.89716 0.22044 0.40221 0.0
H611 H 0.93315 0.245 0.52898 0.0
H612 H 0.92705 0.23806 0.46069 0.0
H613 H 0.92355 0.25613 0.48042 0.0
H614 H 0.9026 0.25575 0.41873 0.0
H615 H 0.90005 0.25515 0.31444 0.0
H616 H 0.77491 0.8703 0.32176 0.0
H617 H 0.77159 0.87296 0.42614 0.0
H618 H 0.74904 0.9118 0.39813 0.0
H619 H 0.75232 0.90933 0.29376 0.0
H620 H 0.77516 0.90091 0.5105 0.0
H621 H 0.72198 0.87778 0.47008 0.0
H622 H 0.73668 0.87426 0.42261 0.0
H623 H 0.72852 0.8913 0.42232 0.0
C624 C 0.76957 0.8796 0.3378 0.0
C625 C 0.76367 0.88948 0.29949 0.0
C626 C 0.76772 0.88111 0.39739 0.0
C627 C 0.75999 0.8925 0.41926 0.0
C628 C 0.75503 0.90294 0.38164 0.0
H629 H 0.71676 0.89872 0.75013 0.0
H630 H 0.72447 0.90238 0.64998 0.0
C631 C 0.7569 0.90147 0.3221 0.0
C632 C 0.75548 0.89245 0.48011 0.0
H633 H 0.72795 0.88286 0.56621 0.0
C634 C 0.76484 0.89705 0.52296 0.0
C635 C 0.74197 0.88746 0.49556 0.0
C636 C 0.73164 0.88235 0.45051 0.0
C637 C 0.761 0.89671 0.58158 0.0
C638 C 0.74761 0.89132 0.59725 0.0
C639 C 0.73819 0.88697 0.55404 0.0
C640 C 0.74328 0.8896 0.65824 0.0
C641 C 0.77125 0.90224 0.62602 0.0
C642 C 0.75114 0.88098 0.69546 0.0
C643 C 0.74677 0.87892 0.75242 0.0
C644 C 0.73443 0.88538 0.77294 0.0
C645 C 0.72636 0.8937 0.73528 0.0
C646 C 0.73078 0.89584 0.67834 0.0
H647 H 0.77884 0.90979 0.60656 0.0
H648 H 0.76566 0.90756 0.66214 0.0
H649 H 0.77738 0.8933 0.64407 0.0
H650 H 0.76052 0.87564 0.68019 0.0
H651 H 0.75293 0.87207 0.78005 0.0
H652 H 0.12921 0.77486 0.31993 0.0
H653 H 0.12643 0.77159 0.42427 0.0
H654 H 0.08679 0.75048 0.39609 0.0
H655 H 0.08938 0.75371 0.29178 0.0
H656 H 0.10027 0.77658 0.50933 0.0
H657 H 0.11805 0.72149 0.46682 0.0
H658 H 0.12187 0.73574 0.41749 0.0
H659 H 0.10435 0.72875 0.42188 0.0
C660 C 0.11972 0.76985 0.33594 0.0
C661 C 0.10964 0.76431 0.2976 0.0
C662 C 0.11815 0.76803 0.3955 0.0
C663 C 0.1065 0.76068 0.4173 0.0
C664 C 0.09587 0.75614 0.37965 0.0
H665 H 0.09781 0.71837 0.74927 0.0
H666 H 0.09448 0.72626 0.64917 0.0
C667 C 0.0974 0.75798 0.32015 0.0
C668 C 0.1064 0.75612 0.4781 0.0
H669 H 0.11365 0.72772 0.56328 0.0
C670 C 0.10311 0.76591 0.52139 0.0
C671 C 0.11008 0.74217 0.49308 0.0
C672 C 0.11386 0.73138 0.44763 0.0
C673 C 0.10343 0.76204 0.57995 0.0
C674 C 0.10749 0.74816 0.59509 0.0
C675 C 0.11054 0.73835 0.55149 0.0
C676 C 0.10916 0.74367 0.65588 0.0
C677 C 0.09928 0.7728 0.62491 0.0
C678 C 0.11876 0.75063 0.69212 0.0
C679 C 0.12062 0.74617 0.74904 0.0
C680 C 0.11301 0.73461 0.77044 0.0
C681 C 0.10374 0.72736 0.73368 0.0
C682 C 0.10179 0.73189 0.6768 0.0
H683 H 0.0924 0.78112 0.60625 0.0
H684 H 0.09367 0.76778 0.6617 0.0
H685 H 0.10891 0.778 0.64185 0.0
H686 H 0.12494 0.75941 0.67617 0.0
H687 H 0.12816 0.75166 0.77608 0.0
H688 H 0.27748 0.89782 0.23389 0.0
H689 H 0.26886 0.90049 0.33332 0.0
H690 H 0.23267 0.87484 0.29229 0.0
H691 H 0.24143 0.87179 0.19363 0.0
H692 H 0.24188 0.91176 0.37048 0.0
H693 H 0.25025 0.85597 0.43644 0.0
H694 H 0.25847 0.86349 0.37316 0.0
H695 H 0.24021 0.85854 0.3714 0.0
C696 C 0.26773 0.8927 0.24626 0.0
C697 C 0.26 0.8848 0.20588 0.0
C698 C 0.26278 0.89431 0.3028 0.0
C699 C 0.25015 0.88786 0.31992 0.0
C700 C 0.24248 0.87986 0.27984 0.0
H701 H 0.21417 0.87984 0.66467 0.0
H702 H 0.21588 0.88062 0.55916 0.0
C703 C 0.2474 0.87827 0.22334 0.0
C704 C 0.24509 0.8894 0.37997 0.0
H705 H 0.23956 0.871 0.50451 0.0
C706 C 0.24131 0.90286 0.39985 0.0
C707 C 0.24428 0.87774 0.4178 0.0
C708 C 0.24861 0.86312 0.399 0.0
C709 C 0.23683 0.90498 0.45704 0.0
C710 C 0.23637 0.89337 0.4953 0.0
C711 C 0.23983 0.87987 0.47492 0.0
C712 C 0.23356 0.89503 0.55785 0.0
C713 C 0.23263 0.91961 0.47593 0.0
C714 C 0.24268 0.90318 0.59188 0.0
C715 C 0.24172 0.90279 0.65205 0.0
C716 C 0.23171 0.8941 0.67928 0.0
C717 C 0.22202 0.88661 0.64504 0.0
C718 C 0.22299 0.88702 0.58476 0.0
H719 H 0.22913 0.92611 0.43861 0.0
H720 H 0.22402 0.91927 0.50846 0.0
H721 H 0.24187 0.92492 0.49574 0.0
H722 H 0.25109 0.90922 0.5721 0.0
H723 H 0.24932 0.90873 0.67717 0.0
H724 H 0.10725 0.21142 0.67959 0.0
H725 H 0.10572 0.21261 0.57382 0.0
H726 H 0.0924 0.25602 0.58534 0.0
H727 H 0.09336 0.25479 0.69016 0.0
H728 H 0.079 0.24256 0.49938 0.0
H729 H 0.13676 0.23271 0.48715 0.0
H730 H 0.12658 0.21884 0.51942 0.0
H731 H 0.12781 0.23568 0.5548 0.0
C732 C 0.10373 0.22112 0.65952 0.0
C733 C 0.1007 0.23309 0.69318 0.0
C734 C 0.10296 0.22181 0.59914 0.0
C735 C 0.09932 0.23452 0.57179 0.0
C736 C 0.09533 0.24613 0.60552 0.0
H737 H 0.127 0.27221 0.25804 0.0
H738 H 0.12249 0.26397 0.35652 0.0
C739 C 0.09595 0.24542 0.66557 0.0
C740 C 0.10071 0.23635 0.50849 0.0
H741 H 0.12514 0.23789 0.40036 0.0
C742 C 0.08904 0.24139 0.47743 0.0
C743 C 0.1139 0.23502 0.48038 0.0
C744 C 0.12702 0.23039 0.51208 0.0
C745 C 0.0903 0.24564 0.41956 0.0
C746 C 0.10351 0.24437 0.3916 0.0
C747 C 0.11504 0.23883 0.42202 0.0
C748 C 0.10589 0.24948 0.33193 0.0
C749 C 0.07767 0.25211 0.39005 0.0
C750 C 0.098 0.24415 0.28558 0.0
C751 C 0.10039 0.24904 0.22951 0.0
C752 C 0.11101 0.25903 0.21853 0.0
C753 C 0.11882 0.26443 0.2651 0.0
C754 C 0.1163 0.25967 0.32127 0.0
H755 H 0.06964 0.25572 0.42174 0.0
H756 H 0.0808 0.26122 0.3628 0.0
H757 H 0.07264 0.2441 0.36177 0.0
H758 H 0.09001 0.23618 0.29267 0.0
H759 H 0.09374 0.24511 0.19519 0.0
H760 H 0.74369 0.09439 0.68108 0.0
H761 H 0.74323 0.09267 0.57637 0.0
H762 H 0.78619 0.10748 0.56824 0.0
H763 H 0.78661 0.10965 0.67389 0.0
H764 H 0.76955 0.12251 0.49986 0.0
H765 H 0.75889 0.06635 0.45768 0.0
H766 H 0.74638 0.07307 0.50873 0.0
H767 H 0.76483 0.07259 0.52734 0.0
C768 C 0.75316 0.09705 0.65729 0.0
C769 C 0.76515 0.10229 0.68581 0.0
C770 C 0.75292 0.0959 0.59727 0.0
C771 C 0.76474 0.09974 0.56444 0.0
C772 C 0.77698 0.10437 0.59286 0.0
H773 H 0.75323 0.0935 0.18893 0.0
H774 H 0.76292 0.09022 0.28614 0.0
C775 C 0.77721 0.10559 0.65317 0.0
C776 C 0.7635 0.1006 0.50072 0.0
H777 H 0.75055 0.08279 0.38411 0.0
C778 C 0.76569 0.11374 0.47426 0.0
C779 C 0.75868 0.08912 0.46704 0.0
C780 C 0.75722 0.07447 0.49168 0.0
C781 C 0.76232 0.11593 0.41596 0.0
C782 C 0.75622 0.1048 0.38383 0.0
C783 C 0.75492 0.09142 0.40915 0.0
C784 C 0.75061 0.10698 0.32477 0.0
C785 C 0.76517 0.13021 0.38969 0.0
C786 C 0.74023 0.11725 0.31453 0.0
C787 C 0.73493 0.11933 0.25886 0.0
C788 C 0.73988 0.11113 0.21266 0.0
C789 C 0.74976 0.10041 0.2234 0.0
C790 C 0.75516 0.09842 0.27895 0.0
H791 H 0.77391 0.13569 0.41246 0.0
H792 H 0.7679 0.12934 0.34312 0.0
H793 H 0.7556 0.13687 0.39389 0.0
H794 H 0.73619 0.12362 0.34968 0.0
H795 H 0.72707 0.12743 0.25178 0.0
H796 H 0.90439 0.74284 0.68639 0.0
H797 H 0.90587 0.74238 0.5816 0.0
H798 H 0.89288 0.78594 0.57453 0.0
H799 H 0.89094 0.78637 0.68023 0.0
H800 H 0.87699 0.77006 0.50662 0.0
H801 H 0.9325 0.75694 0.46186 0.0
H802 H 0.92534 0.74467 0.51289 0.0
H803 H 0.92671 0.76307 0.5319 0.0
C804 C 0.90209 0.75243 0.66281 0.0
C805 C 0.89741 0.76461 0.69166 0.0
C806 C 0.9031 0.75219 0.60273 0.0
C807 C 0.89968 0.76418 0.57017 0.0
C808 C 0.89564 0.77659 0.59891 0.0
H809 H 0.90442 0.75302 0.19393 0.0
H810 H 0.90832 0.76247 0.29117 0.0
C811 C 0.89455 0.77682 0.65927 0.0
C812 C 0.8986 0.76303 0.50644 0.0
H813 H 0.91553 0.74951 0.38869 0.0
C814 C 0.88552 0.76585 0.48057 0.0
C815 C 0.90977 0.75776 0.47215 0.0
C816 C 0.9244 0.7556 0.49615 0.0
C817 C 0.88304 0.76268 0.42225 0.0
C818 C 0.89381 0.75616 0.38947 0.0
C819 C 0.90718 0.75422 0.41422 0.0
C820 C 0.89123 0.75074 0.33034 0.0
C821 C 0.86883 0.76619 0.39665 0.0
C822 C 0.88054 0.74078 0.32036 0.0
C823 C 0.87813 0.7356 0.2647 0.0
C824 C 0.88639 0.74027 0.21821 0.0
C825 C 0.89747 0.74976 0.22863 0.0
C826 C 0.89982 0.75503 0.2842 0.0
H827 H 0.86379 0.77511 0.41997 0.0
H828 H 0.86972 0.76899 0.35016 0.0
H829 H 0.86179 0.75691 0.40073 0.0
H830 H 0.87411 0.73694 0.35572 0.0
H831 H 0.86973 0.72804 0.25788 0.0
H832 H 0.74387 0.59332 0.30613 0.0
H833 H 0.73467 0.58956 0.20904 0.0
H834 H 0.76141 0.62284 0.14469 0.0
H835 H 0.76991 0.62736 0.24277 0.0
H836 H 0.73495 0.62489 0.10284 0.0
H837 H 0.75445 0.56999 0.07809 0.0
H838 H 0.74296 0.57263 0.13879 0.0
H839 H 0.75986 0.58121 0.13702 0.0
C840 C 0.74751 0.60012 0.2718 0.0
C841 C 0.75728 0.61097 0.28252 0.0
C842 C 0.74246 0.59773 0.21596 0.0
C843 C 0.74742 0.60585 0.1696 0.0
C844 C 0.7574 0.61649 0.17998 0.0
H845 H 0.75397 0.5952 0.81261 0.0
H846 H 0.7547 0.59383 0.91739 0.0
C847 C 0.76231 0.619 0.23591 0.0
C848 C 0.74218 0.60347 0.11015 0.0
H849 H 0.74124 0.57934 0.00077 0.0
C850 C 0.73622 0.61491 0.08053 0.0
C851 C 0.74387 0.59041 0.08141 0.0
C852 C 0.75074 0.57788 0.11019 0.0
C853 C 0.73248 0.61387 0.02207 0.0
C854 C 0.73434 0.60087 0.99304 0.0
C855 C 0.7397 0.58923 0.02342 0.0
C856 C 0.73287 0.59975 0.92953 0.0
C857 C 0.72739 0.62695 0.9912 0.0
C858 C 0.72016 0.603 0.90135 0.0
C859 C 0.71974 0.60401 0.84098 0.0
C860 C 0.732 0.60161 0.8082 0.0
C861 C 0.74438 0.59731 0.83654 0.0
C862 C 0.74481 0.59644 0.89656 0.0
H863 H 0.72916 0.63665 0.01716 0.0
H864 H 0.73284 0.6282 0.949 0.0
H865 H 0.71592 0.62602 0.98284 0.0
H866 H 0.71073 0.60524 0.92606 0.0
H867 H 0.71001 0.60718 0.8203 0.0
H868 H 0.40867 0.7746 0.26755 0.0
H869 H 0.41265 0.76663 0.16796 0.0
H870 H 0.37838 0.73699 0.18488 0.0
H871 H 0.37464 0.74468 0.28472 0.0
H872 H 0.4009 0.72551 0.12773 0.0
H873 H 0.38708 0.77795 0.03669 0.0
H874 H 0.40162 0.77824 0.08628 0.0
H875 H 0.3843 0.77361 0.1117 0.0
C876 C 0.40204 0.76637 0.24984 0.0
C877 C 0.3914 0.7602 0.28352 0.0
C878 C 0.4043 0.76184 0.19312 0.0
C879 C 0.39569 0.75134 0.1689 0.0
C880 C 0.38518 0.74505 0.20288 0.0
H881 H 0.37345 0.74021 0.81828 0.0
H882 H 0.37491 0.74281 0.92297 0.0
C883 C 0.38305 0.74944 0.25979 0.0
C884 C 0.3971 0.74734 0.10735 0.0
H885 H 0.39402 0.76042 0.97073 0.0
C886 C 0.39946 0.73312 0.09325 0.0
C887 C 0.3951 0.75732 0.06266 0.0
C888 C 0.39175 0.7726 0.0749 0.0
C889 C 0.39956 0.72855 0.03546 0.0
C890 C 0.3975 0.73854 0.99095 0.0
C891 C 0.39559 0.7528 0.00511 0.0
C892 C 0.39611 0.73451 0.92945 0.0
C893 C 0.40129 0.71306 0.02261 0.0
C894 C 0.40736 0.72845 0.89868 0.0
C895 C 0.40642 0.72669 0.83861 0.0
C896 C 0.39434 0.73126 0.80903 0.0
C897 C 0.38289 0.73668 0.84031 0.0
C898 C 0.38373 0.73818 0.89999 0.0
H899 H 0.39981 0.70647 0.06186 0.0
H900 H 0.39365 0.7096 0.98908 0.0
H901 H 0.41207 0.71114 0.00577 0.0
H902 H 0.41709 0.72576 0.92051 0.0
H903 H 0.41541 0.72264 0.81502 0.0
H904 H 0.22861 0.37031 0.23886 0.0
H905 H 0.23766 0.37464 0.14149 0.0
H906 H 0.26133 0.41029 0.2047 0.0
H907 H 0.25163 0.40655 0.30115 0.0
H908 H 0.24858 0.41652 0.10643 0.0
H909 H 0.27627 0.36575 0.07932 0.0
H910 H 0.25813 0.36298 0.09779 0.0
H911 H 0.26968 0.37163 0.14848 0.0
C912 C 0.23576 0.37905 0.232 0.0
C913 C 0.2398 0.38778 0.27817 0.0
C914 C 0.24107 0.38141 0.17652 0.0
C915 C 0.25057 0.39248 0.16628 0.0
C916 C 0.25427 0.40148 0.21193 0.0
H917 H 0.28575 0.39186 0.81552 0.0
H918 H 0.28555 0.3942 0.92111 0.0
C919 C 0.24887 0.3992 0.26732 0.0
C920 C 0.25603 0.39504 0.10723 0.0
H921 H 0.27053 0.37823 0.9913 0.0
C922 C 0.25361 0.40823 0.08154 0.0
C923 C 0.26298 0.38439 0.07527 0.0
C924 C 0.26706 0.37046 0.10192 0.0
C925 C 0.25704 0.4107 0.02343 0.0
C926 C 0.26267 0.39956 0.9899 0.0
C927 C 0.26603 0.38673 0.01674 0.0
C928 C 0.26361 0.40035 0.92606 0.0
C929 C 0.25436 0.42514 -0.0016 0.0
C930 C 0.25142 0.40323 0.89386 0.0
C931 C 0.25153 0.402 0.83386 0.0
C932 C 0.26377 0.39761 0.80474 0.0
C933 C 0.27615 0.39524 0.83672 0.0
C934 C 0.27605 0.39657 0.897 0.0
H935 H 0.25554 0.43343 0.03201 0.0
H936 H 0.26165 0.42751 0.96212 0.0
H937 H 0.24336 0.42566 0.98215 0.0
H938 H 0.24159 0.40578 0.91527 0.0
H939 H 0.2418 0.40392 0.8106 0.0
H940 H 0.5926 0.25202 0.29411 0.0
H941 H 0.58919 0.2613 0.19701 0.0
H942 H 0.6226 0.23452 0.13408 0.0
H943 H 0.6268 0.22597 0.2323 0.0
H944 H 0.62497 0.2608 0.0924 0.0
H945 H 0.56992 0.24204 0.06473 0.0
H946 H 0.5724 0.2535 0.12561 0.0
H947 H 0.58085 0.23652 0.12437 0.0
C948 C 0.59951 0.24839 0.26014 0.0
C949 C 0.61031 0.23861 0.27137 0.0
C950 C 0.59731 0.25348 0.20423 0.0
C951 C 0.60557 0.24854 0.15822 0.0
C952 C 0.61614 0.23852 0.16906 0.0
H953 H 0.59504 0.2434 0.79992 0.0
H954 H 0.59367 0.24223 0.9046 0.0
C955 C 0.61847 0.23358 0.22509 0.0
C956 C 0.60342 0.25387 0.09871 0.0
H957 H 0.57954 0.2555 0.98861 0.0
C958 C 0.61502 0.25972 0.0697 0.0
C959 C 0.5904 0.25245 0.06942 0.0
C960 C 0.57771 0.24568 0.09737 0.0
C961 C 0.61416 0.26364 0.01137 0.0
C962 C 0.60119 0.26209 0.98184 0.0
C963 C 0.58942 0.25681 0.0116 0.0
C964 C 0.60018 0.26385 0.91838 0.0
C965 C 0.62739 0.26859 0.98118 0.0
C966 C 0.60377 0.27659 0.89111 0.0
C967 C 0.60479 0.27724 0.83076 0.0
C968 C 0.60204 0.26521 0.79706 0.0
C969 C 0.59741 0.25283 0.82453 0.0
C970 C 0.59655 0.25215 0.88451 0.0
H971 H 0.63701 0.26649 0.00719 0.0
H972 H 0.62858 0.26333 0.93856 0.0
H973 H 0.62672 0.28013 0.97381 0.0
H974 H 0.60625 0.28585 0.91649 0.0
H975 H 0.60821 0.28699 0.81078 0.0
H976 H 0.7114 0.39069 0.1768 0.0
H977 H 0.71261 0.39231 0.07102 0.0
H978 H 0.75577 0.40635 0.08295 0.0
H979 H 0.75452 0.40527 0.18776 0.0
H980 H 0.74192 0.41965 -0.00303 0.0
H981 H 0.73351 0.36164 0.98433 0.0
H982 H 0.71944 0.37153 0.01681 0.0
H983 H 0.73631 0.37062 0.05204 0.0
C984 C 0.72104 0.39438 0.15682 0.0
C985 C 0.73295 0.39757 0.19056 0.0
C986 C 0.72175 0.3952 0.09644 0.0
C987 C 0.7344 0.39909 0.06921 0.0
C988 C 0.74593 0.40323 0.10305 0.0
H989 H 0.7733 0.37248 0.7563 0.0
H990 H 0.76488 0.3769 0.85486 0.0
C991 C 0.74521 0.40253 0.16308 0.0
C992 C 0.7363 0.39777 0.00592 0.0
H993 H 0.73867 0.37339 0.89784 0.0
C994 C 0.74106 0.40958 0.97497 0.0
C995 C 0.73535 0.38455 0.97776 0.0
C996 C 0.73099 0.37132 0.00936 0.0
C997 C 0.74541 0.40844 0.91718 0.0
C998 C 0.74456 0.39519 0.88923 0.0
C999 C 0.7393 0.38351 0.91951 0.0
C1000 C 0.74984 0.39295 0.82971 0.0
C1001 C 0.75153 0.42125 0.88771 0.0
C1002 C 0.74427 0.40059 0.78311 0.0
C1003 C 0.74923 0.39823 0.72712 0.0
C1004 C 0.7595 0.38787 0.7166 0.0
C1005 C 0.76523 0.38039 0.7633 0.0
C1006 C 0.76039 0.38287 0.81941 0.0
H1007 H 0.75481 0.42943 0.91941 0.0
H1008 H 0.7608 0.41838 0.86085 0.0
H1009 H 0.74344 0.42598 0.85904 0.0
H1010 H 0.73603 0.40832 0.78994 0.0
H1011 H 0.74506 0.40456 0.6921 0.0
H1012 H 0.58881 0.74933 0.20478 0.0
H1013 H 0.58677 0.75263 0.10043 0.0
H1014 H 0.62278 0.72568 0.07356 0.0
H1015 H 0.62498 0.72232 0.17803 0.0
H1016 H 0.6114 0.76486 0.04258 0.0
H1017 H 0.59365 0.71441 0.94381 0.0
H1018 H 0.58989 0.71903 0.0181 0.0
H1019 H 0.60721 0.71323 -0.00193 0.0
C1020 C 0.59609 0.7438 0.17672 0.0
C1021 C 0.60721 0.73574 0.19971 0.0
C1022 C 0.59488 0.74569 0.11712 0.0
C1023 C 0.60462 0.73939 0.07959 0.0
C1024 C 0.61507 0.73049 0.10198 0.0
H1025 H 0.62852 0.74901 0.72241 0.0
H1026 H 0.62539 0.74164 0.82303 0.0
C1027 C 0.61635 0.72864 0.16169 0.0
C1028 C 0.60519 0.74384 0.01856 0.0
H1029 H 0.60195 0.73212 0.87982 0.0
C1030 C 0.6092 0.75777 0.00686 0.0
C1031 C 0.60249 0.73446 0.97253 0.0
C1032 C 0.59797 0.71945 0.9834 0.0
C1033 C 0.61092 0.76255 0.95001 0.0
C1034 C 0.60815 0.7532 0.90371 0.0
C1035 C 0.60401 0.73927 0.91547 0.0
C1036 C 0.60982 0.75761 0.84278 0.0
C1037 C 0.61618 0.77738 0.94026 0.0
C1038 C 0.60207 0.769 0.82061 0.0
C1039 C 0.60394 0.77329 0.76336 0.0
C1040 C 0.61333 0.76604 0.72716 0.0
C1041 C 0.62103 0.7546 0.74927 0.0
C1042 C 0.61927 0.75041 0.80664 0.0
H1043 H 0.62148 0.78169 0.97932 0.0
H1044 H 0.6237 0.77782 0.90349 0.0
H1045 H 0.60711 0.78433 0.93012 0.0
H1046 H 0.59452 0.77452 0.84747 0.0
H1047 H 0.59782 0.78208 0.74703 0.0
H1048 H 0.24841 0.58888 0.19604 0.0
H1049 H 0.24506 0.5872 0.0916 0.0
H1050 H 0.27444 0.6213 0.0659 0.0
H1051 H 0.27789 0.62311 0.17042 0.0
H1052 H 0.23445 0.61234 0.03439 0.0
H1053 H 0.28386 0.59206 0.93522 0.0
H1054 H 0.27911 0.58859 0.00961 0.0
H1055 H 0.28587 0.60555 0.98933 0.0
C1056 C 0.25446 0.59579 0.1682 0.0
C1057 C 0.26326 0.60629 0.19153 0.0
C1058 C 0.25253 0.59479 0.10855 0.0
C1059 C 0.25951 0.60412 0.07131 0.0
C1060 C 0.2691 0.6139 0.09406 0.0
H1061 H 0.25107 0.62939 0.71486 0.0
H1062 H 0.25829 0.62579 0.81543 0.0
C1063 C 0.271 0.61496 0.15381 0.0
C1064 C 0.25513 0.60509 0.01026 0.0
H1065 H 0.26674 0.60164 0.87144 0.0
C1066 C 0.24144 0.60987 -0.00136 0.0
C1067 C 0.26438 0.60204 0.96416 0.0
C1068 C 0.27911 0.59667 0.97487 0.0
C1069 C 0.2368 0.61199 0.94184 0.0
C1070 C 0.24601 0.60886 0.89548 0.0
C1071 C 0.2597 0.60398 0.90714 0.0
C1072 C 0.24169 0.61085 0.83461 0.0
C1073 C 0.22225 0.61801 0.93219 0.0
C1074 C 0.23 0.6036 0.81218 0.0
C1075 C 0.22582 0.60573 0.75497 0.0
C1076 C 0.23346 0.61488 0.71904 0.0
C1077 C 0.24517 0.62209 0.74145 0.0
C1078 C 0.24927 0.62006 0.7988 0.0
H1079 H 0.21819 0.62342 0.97145 0.0
H1080 H 0.22222 0.62564 0.89576 0.0
H1081 H 0.21486 0.60932 0.92153 0.0
H1082 H 0.22417 0.59624 0.83881 0.0
H1083 H 0.2168 0.59999 0.73844 0.0
H1084 H 0.36951 0.27529 0.17288 0.0
H1085 H 0.37193 0.27169 0.06858 0.0
H1086 H 0.41121 0.24988 0.09583 0.0
H1087 H 0.40899 0.25344 0.20015 0.0
H1088 H 0.39807 0.27613 0.98278 0.0
H1089 H 0.37924 0.22142 0.02596 0.0
H1090 H 0.3757 0.23577 0.07519 0.0
H1091 H 0.3931 0.22849 0.07063 0.0
C1092 C 0.37885 0.27004 0.15666 0.0
C1093 C 0.38894 0.26444 0.19481 0.0
C1094 C 0.38021 0.26803 0.09711 0.0
C1095 C 0.39166 0.2604 0.07506 0.0
C1096 C 0.40229 0.25575 0.11244 0.0
H1097 H 0.39889 0.21804 0.74228 0.0
H1098 H 0.4024 0.22571 0.84257 0.0
C1099 C 0.40098 0.2578 0.17196 0.0
C1100 C 0.39155 0.25582 0.01426 0.0
H1101 H 0.38344 0.22759 0.92927 0.0
C1102 C 0.39496 0.26552 0.97082 0.0
C1103 C 0.38752 0.24195 -0.00062 0.0
C1104 C 0.3836 0.23125 0.04499 0.0
C1105 C 0.3944 0.26166 0.91226 0.0
C1106 C 0.38997 0.24788 0.89723 0.0
C1107 C 0.38681 0.23814 0.94096 0.0
C1108 C 0.38809 0.24343 0.83644 0.0
C1109 C 0.3987 0.27233 0.86717 0.0
C1110 C 0.37862 0.25064 0.80043 0.0
C1111 C 0.37664 0.2463 0.74336 0.0
C1112 C 0.38403 0.23462 0.72157 0.0
C1113 C 0.39313 0.22712 0.75814 0.0
C1114 C 0.39519 0.23153 0.81516 0.0
H1115 H 0.4058 0.2805 0.88561 0.0
H1116 H 0.40412 0.26718 0.8302 0.0
H1117 H 0.38915 0.27773 0.85056 0.0
H1118 H 0.37264 0.25953 0.81662 0.0
H1119 H 0.36923 0.25199 0.7165 0.0
H1120 H 0.29929 0.14166 0.04991 0.0
H1121 H 0.31769 0.15618 0.09425 0.0
H1122 H 0.30271 0.14462 0.26378 0.0
H1123 H 0.28437 0.13006 0.22021 0.0
H1124 H 0.31169 0.17911 0.16955 0.0
H1125 H 0.34582 0.13925 0.27564 0.0
H1126 H 0.33368 0.13485 0.21818 0.0
H1127 H 0.32733 0.13736 0.29068 0.0
C1128 C 0.30003 0.14203 0.09663 0.0
C1129 C 0.29032 0.13473 0.1315 0.0
C1130 C 0.31055 0.15033 0.12183 0.0
C1131 C 0.31164 0.15132 0.18221 0.0
C1132 C 0.3022 0.14378 0.2171 0.0
H1133 H 0.35597 0.2027 0.43064 0.0
H1134 H 0.34199 0.1848 0.38026 0.0
C1135 C 0.29165 0.13554 0.19203 0.0
C1136 C 0.32178 0.1612 0.2089 0.0
H1137 H 0.34932 0.1632 0.3035 0.0
C1138 C 0.32004 0.17565 0.19832 0.0
C1139 C 0.33252 0.1566 0.24679 0.0
C1140 C 0.33507 0.14116 0.25824 0.0
C1141 C 0.32852 0.1857 0.22594 0.0
C1142 C 0.33924 0.18113 0.26411 0.0
C1143 C 0.34109 0.16665 0.27421 0.0
C1144 C 0.34847 0.19128 0.29456 0.0
C1145 C 0.32558 0.20114 0.21551 0.0
C1146 C 0.35702 0.20058 0.26307 0.0
C1147 C 0.3649 0.21087 0.29158 0.0
C1148 C 0.36454 0.21194 0.35227 0.0
C1149 C 0.35644 0.2022 0.38388 0.0
C1150 C 0.34846 0.19196 0.3552 0.0
H1151 H 0.31485 0.20286 0.19763 0.0
H1152 H 0.32662 0.20731 0.25611 0.0
H1153 H 0.3333 0.2053 0.18377 0.0
H1154 H 0.35743 0.20001 0.21631 0.0
H1155 H 0.37117 0.21807 0.26591 0.0
H1156 H 0.79729 0.35772 0.43613 0.0
H1157 H 0.81555 0.34321 0.39057 0.0
H1158 H 0.80168 0.35694 0.22219 0.0
H1159 H 0.78352 0.37149 0.26696 0.0
H1160 H 0.80905 0.32128 0.31118 0.0
H1161 H 0.84495 0.3609 0.2133 0.0
H1162 H 0.83274 0.36519 0.27066 0.0
H1163 H 0.82658 0.36345 0.19753 0.0
C1164 C 0.79828 0.35784 0.38946 0.0
C1165 C 0.7889 0.36571 0.3552 0.0
C1166 C 0.80871 0.34955 0.36355 0.0
C1167 C 0.81004 0.34915 0.3031 0.0
C1168 C 0.80099 0.35731 0.26893 0.0
H1169 H 0.85592 0.29646 0.05915 0.0
H1170 H 0.84134 0.31475 0.10464 0.0
C1171 C 0.79054 0.36553 0.29469 0.0
C1172 C 0.81994 0.33917 0.27542 0.0
H1173 H 0.84813 0.33704 0.18394 0.0
C1174 C 0.81768 0.32471 0.28379 0.0
C1175 C 0.83103 0.34373 0.2391 0.0
C1176 C 0.83409 0.35917 0.22984 0.0
C1177 C 0.82611 0.31463 0.25612 0.0
C1178 C 0.83728 0.31916 0.22012 0.0
C1179 C 0.83954 0.33363 0.21158 0.0
C1180 C 0.84688 0.30893 0.1922 0.0
C1181 C 0.82276 0.29921 0.26465 0.0
C1182 C 0.85509 0.29992 0.2264 0.0
C1183 C 0.86331 0.28947 0.20077 0.0
C1184 C 0.8636 0.2879 0.14025 0.0
C1185 C 0.85586 0.29736 0.10585 0.0
C1186 C 0.84755 0.30781 0.13172 0.0
H1187 H 0.8118 0.29762 0.2803 0.0
H1188 H 0.82416 0.29321 0.22378 0.0
H1189 H 0.83003 0.29474 0.29747 0.0
H1190 H 0.85495 0.30083 0.27311 0.0
H1191 H 0.86929 0.28251 0.22861 0.0
H1192 H 0.64074 0.79888 0.44171 0.0
H1193 H 0.65537 0.8169 0.39551 0.0
H1194 H 0.64375 0.80093 0.22756 0.0
H1195 H 0.62907 0.78293 0.27305 0.0
H1196 H 0.67832 0.81032 0.3196 0.0
H1197 H 0.63821 0.84418 0.21319 0.0
H1198 H 0.63397 0.83238 0.27201 0.0
H1199 H 0.63636 0.82559 0.20015 0.0
C1200 C 0.64114 0.79931 0.39493 0.0
C1201 C 0.63376 0.78943 0.3611 0.0
C1202 C 0.6495 0.80961 0.36866 0.0
C1203 C 0.65049 0.81032 0.3082 0.0
C1204 C 0.64292 0.8007 0.27428 0.0
H1205 H 0.70151 0.85595 0.06104 0.0
H1206 H 0.68378 0.84149 0.11009 0.0
C1207 C 0.63461 0.79036 0.30044 0.0
C1208 C 0.66034 0.82036 0.28064 0.0
H1209 H 0.66212 0.84809 0.18686 0.0
C1210 C 0.6748 0.81867 0.29098 0.0
C1211 C 0.65566 0.83111 0.24294 0.0
C1212 C 0.6402 0.83355 0.23161 0.0
C1213 C 0.68479 0.82727 0.26359 0.0
C1214 C 0.68013 0.83808 0.22596 0.0
C1215 C 0.66564 0.83981 0.21582 0.0
C1216 C 0.6902 0.84756 0.19637 0.0
C1217 C 0.70024 0.82441 0.27385 0.0
C1218 C 0.69941 0.85604 0.22865 0.0
C1219 C 0.70961 0.8642 0.20089 0.0
C1220 C 0.71067 0.86419 0.14018 0.0
C1221 C 0.70101 0.85615 0.10783 0.0
C1222 C 0.69087 0.8479 0.13575 0.0
H1223 H 0.70204 0.81359 0.29075 0.0
H1224 H 0.70642 0.82572 0.23341 0.0
H1225 H 0.70433 0.83199 0.30634 0.0
H1226 H 0.69884 0.85619 0.27543 0.0
H1227 H 0.71675 0.8704 0.22712 0.0
H1228 H 0.215 0.62746 0.26504 0.0
H1229 H 0.19708 0.64187 0.21786 0.0
H1230 H 0.18395 0.65807 0.38362 0.0
H1231 H 0.20169 0.64343 0.4316 0.0
H1232 H 0.16141 0.65165 0.30993 0.0
H1233 H 0.20169 0.68434 0.19865 0.0
H1234 H 0.20327 0.66579 0.18468 0.0
H1235 H 0.20606 0.67241 0.25669 0.0
C1236 C 0.20827 0.63403 0.29162 0.0
C1237 C 0.2099 0.63443 0.35208 0.0
C1238 C 0.19807 0.64229 0.2645 0.0
C1239 C 0.18942 0.65125 0.29717 0.0
C1240 C 0.19061 0.65128 0.35766 0.0
H1241 H 0.12992 0.71749 0.22357 0.0
H1242 H 0.14424 0.69911 0.26837 0.0
C1243 C 0.20076 0.64293 0.38496 0.0
C1244 C 0.17945 0.66091 0.26803 0.0
H1245 H 0.17791 0.68833 0.17275 0.0
C1246 C 0.16499 0.65968 0.27998 0.0
C1247 C 0.18419 0.67139 0.22911 0.0
C1248 C 0.19966 0.67369 0.21683 0.0
C1249 C 0.15511 0.6686 0.25341 0.0
C1250 C 0.15988 0.67905 0.21448 0.0
C1251 C 0.17431 0.68021 0.20233 0.0
C1252 C 0.1502 0.68932 0.18748 0.0
C1253 C 0.13966 0.6667 0.26667 0.0
C1254 C 0.1489 0.68993 0.12711 0.0
C1255 C 0.14075 0.70045 0.10123 0.0
C1256 C 0.1339 0.71064 0.13537 0.0
C1257 C 0.13505 0.70982 0.19596 0.0
C1258 C 0.14314 0.69926 0.22174 0.0
H1259 H 0.13745 0.65618 0.28573 0.0
H1260 H 0.13632 0.67485 0.29829 0.0
H1261 H 0.13319 0.668 0.22699 0.0
H1262 H 0.15437 0.68239 0.10001 0.0
H1263 H 0.14011 0.70078 0.05448 0.0
H1264 H 0.3582 0.79703 0.55117 0.0
H1265 H 0.34407 0.8165 0.59012 0.0
H1266 H 0.35269 0.80225 0.76361 0.0
H1267 H 0.36681 0.78291 0.72553 0.0
H1268 H 0.31998 0.81274 0.66121 0.0
H1269 H 0.36071 0.84489 0.77176 0.0
H1270 H 0.36496 0.83202 0.71684 0.0
H1271 H 0.36129 0.82648 0.78966 0.0
C1272 C 0.35722 0.79815 0.59762 0.0
C1273 C 0.3636 0.78839 0.63521 0.0
C1274 C 0.34917 0.80927 0.61975 0.0
C1275 C 0.34753 0.81091 0.67971 0.0
C1276 C 0.35407 0.80134 0.71725 0.0
H1277 H 0.29607 0.85731 0.91913 0.0
H1278 H 0.31401 0.84296 0.8707 0.0
C1279 C 0.36204 0.79021 0.69529 0.0
C1280 C 0.33804 0.82184 0.70333 0.0
H1281 H 0.33673 0.84963 0.7971 0.0
C1282 C 0.32364 0.82094 0.69026 0.0
C1283 C 0.34289 0.83242 0.74158 0.0
C1284 C 0.35833 0.83413 0.75547 0.0
C1285 C 0.31384 0.83003 0.71612 0.0
C1286 C 0.31865 0.8405 0.75506 0.0
C1287 C 0.33309 0.84158 0.76728 0.0
C1288 C 0.30872 0.85015 0.78457 0.0
C1289 C 0.29837 0.82796 0.70327 0.0
C1290 C 0.30015 0.85924 0.75229 0.0
C1291 C 0.28984 0.86733 0.77966 0.0
C1292 C 0.28803 0.86662 0.84 0.0
C1293 C 0.29715 0.85805 0.8726 0.0
C1294 C 0.30741 0.84986 0.84503 0.0
H1295 H 0.29622 0.81741 0.68431 0.0
H1296 H 0.29193 0.82917 0.74308 0.0
H1297 H 0.29489 0.83604 0.67164 0.0
H1298 H 0.30123 0.85985 0.70572 0.0
H1299 H 0.28313 0.87398 0.75331 0.0
H1300 H 0.13873 0.29891 0.93618 0.0
H1301 H 0.15265 0.31745 0.88965 0.0
H1302 H 0.14111 0.30126 0.72192 0.0
H1303 H 0.12712 0.28281 0.76769 0.0
H1304 H 0.17551 0.31154 0.81569 0.0
H1305 H 0.13511 0.34401 0.70425 0.0
H1306 H 0.13083 0.33208 0.76258 0.0
H1307 H 0.13377 0.3254 0.69085 0.0
C1308 C 0.13896 0.29943 0.88939 0.0
C1309 C 0.13186 0.28933 0.85569 0.0
C1310 C 0.14691 0.31002 0.86292 0.0
C1311 C 0.14776 0.3108 0.8024 0.0
C1312 C 0.14037 0.30101 0.76866 0.0
H1313 H 0.20051 0.3558 0.55762 0.0
H1314 H 0.1823 0.34133 0.60404 0.0
C1315 C 0.13246 0.29039 0.79501 0.0
C1316 C 0.15746 0.32095 0.77458 0.0
H1317 H 0.15906 0.34813 0.67797 0.0
C1318 C 0.17191 0.31964 0.78602 0.0
C1319 C 0.15271 0.33135 0.73536 0.0
C1320 C 0.13725 0.33342 0.72277 0.0
C1321 C 0.18181 0.3283 0.75853 0.0
C1322 C 0.17708 0.33876 0.71949 0.0
C1323 C 0.16262 0.3401 0.70798 0.0
C1324 C 0.18709 0.34844 0.69076 0.0
C1325 C 0.19728 0.32593 0.77042 0.0
C1326 C 0.19546 0.35751 0.72405 0.0
C1327 C 0.20589 0.36567 0.6979 0.0
C1328 C 0.20805 0.36503 0.63775 0.0
C1329 C 0.19915 0.35647 0.60405 0.0
C1330 C 0.18875 0.34822 0.63044 0.0
H1331 H 0.19928 0.31531 0.78898 0.0
H1332 H 0.20361 0.32708 0.73031 0.0
H1333 H 0.20101 0.33389 0.80211 0.0
H1334 H 0.19413 0.35805 0.77054 0.0
H1335 H 0.21241 0.3723 0.72509 0.0
H1336 H 0.69979 0.14018 0.93611 0.0
H1337 H 0.68082 0.15414 0.89256 0.0
H1338 H 0.69506 0.14212 0.72244 0.0
H1339 H 0.71388 0.1281 0.76516 0.0
H1340 H 0.68571 0.17678 0.81723 0.0
H1341 H 0.65234 0.13621 0.71193 0.0
H1342 H 0.66492 0.13202 0.76802 0.0
H1343 H 0.67075 0.13471 0.69484 0.0
C1344 C 0.69874 0.14033 0.88947 0.0
C1345 C 0.70839 0.13307 0.85415 0.0
C1346 C 0.68791 0.1483 0.86469 0.0
C1347 C 0.68644 0.14899 0.80434 0.0
C1348 C 0.69582 0.14148 0.76912 0.0
H1349 H 0.64213 0.20064 0.55609 0.0
H1350 H 0.65607 0.18251 0.60556 0.0
C1351 C 0.70666 0.13357 0.79372 0.0
C1352 C 0.67604 0.15864 0.77776 0.0
H1353 H 0.64866 0.16007 0.68208 0.0
C1354 C 0.67748 0.17313 0.78828 0.0
C1355 C 0.66545 0.15382 0.73954 0.0
C1356 C 0.66316 0.13833 0.72823 0.0
C1357 C 0.66886 0.18299 0.76031 0.0
C1358 C 0.65832 0.1782 0.72171 0.0
C1359 C 0.65676 0.16369 0.71164 0.0
C1360 C 0.64892 0.18819 0.69134 0.0
C1361 C 0.67143 0.19849 0.7709 0.0
C1362 C 0.63998 0.19704 0.72309 0.0
C1363 C 0.63213 0.20744 0.69518 0.0
C1364 C 0.63293 0.20907 0.63477 0.0
C1365 C 0.64133 0.19969 0.60266 0.0
C1366 C 0.64928 0.18933 0.63081 0.0
H1367 H 0.68203 0.20045 0.78968 0.0
H1368 H 0.67046 0.20461 0.73016 0.0
H1369 H 0.66346 0.20251 0.8019 0.0
H1370 H 0.63932 0.19612 0.76971 0.0
H1371 H 0.6256 0.21434 0.72119 0.0
H1372 H 0.78135 0.63017 0.73114 0.0
H1373 H 0.80009 0.64426 0.77437 0.0
H1374 H 0.81709 0.65279 0.60501 0.0
H1375 H 0.79822 0.63882 0.56093 0.0
H1376 H 0.83002 0.64244 0.76779 0.0
H1377 H 0.80902 0.69213 0.67357 0.0
H1378 H 0.79896 0.67599 0.67501 0.0
H1379 H 0.8127 0.67835 0.62241 0.0
C1380 C 0.7891 0.63496 0.7029 0.0
C1381 C 0.78817 0.6335 0.64242 0.0
C1382 C 0.79984 0.64297 0.72781 0.0
C1383 C 0.80983 0.6497 0.69282 0.0
C1384 C 0.80932 0.64783 0.63264 0.0
H1385 H 0.87277 0.7128 0.77074 0.0
H1386 H 0.85878 0.69433 0.72527 0.0
C1387 C 0.79856 0.63982 0.60758 0.0
C1388 C 0.82032 0.65924 0.71944 0.0
H1389 H 0.82995 0.69381 0.72777 0.0
C1390 C 0.83007 0.65367 0.75899 0.0
C1391 C 0.82025 0.67388 0.70804 0.0
C1392 C 0.80961 0.68052 0.66785 0.0
C1393 C 0.83989 0.66238 0.78709 0.0
C1394 C 0.83975 0.67703 0.7759 0.0
C1395 C 0.83005 0.68256 0.73608 0.0
C1396 C 0.84944 0.68699 0.80511 0.0
C1397 C 0.85044 0.65583 0.82783 0.0
C1398 C 0.84897 0.68886 0.86534 0.0
C1399 C 0.85702 0.69943 0.8917 0.0
C1400 C 0.86553 0.70839 0.85806 0.0
C1401 C 0.86626 0.70616 0.79795 0.0
C1402 C 0.85829 0.69559 0.77181 0.0
H1403 H 0.85164 0.64434 0.81988 0.0
H1404 H 0.86092 0.66094 0.82363 0.0
H1405 H 0.84675 0.65726 0.87299 0.0
H1406 H 0.84199 0.68252 0.89171 0.0
H1407 H 0.85619 0.7009 0.93803 0.0
H1408 H 0.23404 0.0573 0.03819 0.0
H1409 H 0.23397 0.0317 0.02164 0.0
H1410 H 0.27925 0.03225 0.00431 0.0
H1411 H 0.27931 0.05785 0.02102 0.0
H1412 H 0.24635 0.01731 0.91906 0.0
H1413 H 0.26991 0.00124 0.12945 0.0
H1414 H 0.26143 0.01811 0.11911 0.0
H1415 H 0.27875 0.01508 0.0905 0.0
C1416 C 0.24394 0.05188 0.03104 0.0
C1417 C 0.25668 0.05938 0.03069 0.0
C1418 C 0.2439 0.03735 0.02154 0.0
C1419 C 0.25661 0.03015 0.01227 0.0
C1420 C 0.26936 0.03765 0.012 0.0
H1421 H 0.27756 0.9421 0.95751 0.0
H1422 H 0.27812 0.96769 0.97376 0.0
C1423 C 0.26939 0.0522 0.02118 0.0
C1424 C 0.25651 0.01481 0.00162 0.0
H1425 H 0.26604 0.98327 0.06055 0.0
C1426 C 0.25061 0.00983 0.94994 0.0
C1427 C 0.26217 0.00519 0.04199 0.0
C1428 C 0.26835 0.01009 0.09864 0.0
C1429 C 0.25037 0.99538 0.93711 0.0
C1430 C 0.25586 0.9857 0.97785 0.0
C1431 C 0.26182 0.99072 0.02948 0.0
C1432 C 0.25549 0.9703 0.96786 0.0
C1433 C 0.24454 0.99066 0.87955 0.0
C1434 C 0.24258 0.96332 0.95992 0.0
C1435 C 0.24228 0.94878 0.95044 0.0
C1436 C 0.25486 0.94103 0.94961 0.0
C1437 C 0.26775 0.94795 0.9583 0.0
C1438 C 0.26806 0.96249 0.96747 0.0
H1439 H 0.24457 -0.00064 0.84739 0.0
H1440 H 0.25069 0.98169 0.86174 0.0
H1441 H 0.23347 0.98716 0.88538 0.0
H1442 H 0.23274 0.96909 0.96143 0.0
H1443 H 0.23224 0.94356 0.9442 0.0
H1444 H 0.06033 0.24555 0.05204 0.0
H1445 H 0.03495 0.24559 0.07217 0.0
H1446 H 0.0271 0.26416 0.90493 0.0
H1447 H 0.05247 0.26413 0.88472 0.0
H1448 H 0.01611 0.26814 0.0755 0.0
H1449 H 0.00143 0.22941 0.9058 0.0
H1450 H 0.01941 0.23206 0.92894 0.0
H1451 H 0.01131 0.24422 0.87944 0.0
C1452 C 0.05315 0.24967 0.01975 0.0
C1453 C 0.05825 0.25472 0.96667 0.0
C1454 C 0.03871 0.24966 0.0312 0.0
C1455 C 0.02917 0.25467 0.98964 0.0
C1456 C 0.03428 0.25996 0.93699 0.0
H1457 H 0.9416 0.2778 0.03966 0.0
H1458 H 0.96721 0.27769 0.02451 0.0
C1459 C 0.04873 0.25994 0.9255 0.0
C1460 C 0.01387 0.25447 0.00168 0.0
H1461 H 0.98261 0.24122 0.95318 0.0
C1462 C 0.00877 0.26222 0.04894 0.0
C1463 C 0.00439 0.24658 0.96734 0.0
C1464 C 0.00939 0.23748 0.91786 0.0
C1465 C 0.99434 0.2625 0.06222 0.0
C1466 C 0.98482 0.25499 0.02667 0.0
C1467 C 0.98995 0.24705 0.98002 0.0
C1468 C 0.96945 0.25518 0.03712 0.0
C1469 C 0.98946 0.27064 0.1146 0.0
C1470 C 0.96224 0.24254 0.04811 0.0
C1471 C 0.94766 0.24258 0.056 0.0
C1472 C 0.94009 0.25525 0.05264 0.0
C1473 C 0.94728 0.2679 0.04199 0.0
C1474 C 0.96187 0.26786 0.03395 0.0
H1475 H 0.99824 0.27258 0.14543 0.0
H1476 H 0.9853 0.28102 0.10056 0.0
H1477 H 0.98091 0.26495 0.13758 0.0
H1478 H 0.96791 0.23264 0.05045 0.0
H1479 H 0.94225 0.23271 0.06405 0.0
H1480 H 0.75174 0.93816 0.94317 0.0
H1481 H 0.75196 0.96365 0.92559 0.0
H1482 H 0.73374 0.97074 0.09409 0.0
H1483 H 0.73348 0.94524 0.11169 0.0
H1484 H 0.72931 0.98267 0.92542 0.0
H1485 H 0.76883 0.99617 0.09377 0.0
H1486 H 0.76604 0.97835 0.06877 0.0
H1487 H 0.75405 0.98616 0.11974 0.0
C1488 C 0.74774 0.94519 0.97625 0.0
C1489 C 0.74266 0.93983 0.02885 0.0
C1490 C 0.74791 0.9597 0.96628 0.0
C1491 C 0.74306 0.96905 0.0089 0.0
C1492 C 0.7378 0.9637 0.06118 0.0
H1493 H 0.72081 0.05717 0.96674 0.0
H1494 H 0.72071 0.03157 0.98246 0.0
C1495 C 0.73764 0.94918 0.07115 0.0
C1496 C 0.74334 0.98441 -0.00175 0.0
H1497 H 0.75719 0.01532 0.04807 0.0
C1498 C 0.73542 0.98983 0.95208 0.0
C1499 C 0.75148 0.99365 0.03277 0.0
C1500 C 0.76069 0.98831 0.08123 0.0
C1501 C 0.73524 0.00431 0.94001 0.0
C1502 C 0.74304 0.01359 0.9756 0.0
C1503 C 0.75113 0.00816 0.02121 0.0
C1504 C 0.74303 0.029 0.96601 0.0
C1505 C 0.72688 0.00954 0.8888 0.0
C1506 C 0.75566 0.03601 0.95279 0.0
C1507 C 0.75573 0.05058 0.9444 0.0
C1508 C 0.74321 0.05833 0.94955 0.0
C1509 C 0.73059 0.05134 0.96292 0.0
C1510 C 0.73051 0.03677 0.97136 0.0
H1511 H 0.72449 0.00091 0.85783 0.0
H1512 H 0.71673 0.01397 0.90422 0.0
H1513 H 0.73266 0.018 0.86555 0.0
H1514 H 0.76543 0.03018 0.94875 0.0
H1515 H 0.76557 0.05583 0.93427 0.0
H1516 H 0.94105 0.72025 0.97033 0.0
H1517 H 0.96663 0.72003 0.9875 0.0
H1518 H 0.96762 0.76534 0.9718 0.0
H1519 H 0.94205 0.76555 0.95472 0.0
H1520 H 0.98818 0.73243 0.90933 0.0
H1521 H 0.98744 0.75567 0.13032 0.0
H1522 H 0.9722 0.74728 0.09848 0.0
H1523 H 0.97724 0.76468 0.07611 0.0
C1524 C 0.94678 0.73013 0.97098 0.0
C1525 C 0.93973 0.74293 0.96175 0.0
C1526 C 0.96131 0.73 0.98058 0.0
C1527 C 0.9689 0.74268 0.98151 0.0
C1528 C 0.96186 0.75548 0.97196 0.0
H1529 H 0.05604 0.76559 0.03805 0.0
H1530 H 0.03044 0.76522 0.02254 0.0
C1531 C 0.94735 0.75559 0.96202 0.0
C1532 C 0.98427 0.74253 0.99111 0.0
H1533 H 0.00976 0.75242 0.08683 0.0
C1534 C 0.99294 0.73673 0.94818 0.0
C1535 C 0.99034 0.74822 0.04176 0.0
C1536 C 0.98136 0.75424 0.08965 0.0
C1537 C 0.00765 0.73672 0.95406 0.0
C1538 C 0.01375 0.74236 0.0049 0.0
C1539 C 0.00504 0.74811 0.04793 0.0
C1540 C 0.02918 0.74252 0.01414 0.0
C1541 C 0.01652 0.73103 0.90514 0.0
C1542 C 0.03687 0.72987 0.01533 0.0
C1543 C 0.05143 0.73011 0.02383 0.0
C1544 C 0.05845 0.74296 0.03188 0.0
C1545 C 0.05076 0.75558 0.0318 0.0
C1546 C 0.03621 0.75536 0.02298 0.0
H1547 H 0.01057 0.73075 0.86377 0.0
H1548 H 0.02617 0.73747 0.89888 0.0
H1549 H 0.01979 0.72009 0.91549 0.0
H1550 H 0.03159 0.71983 0.01005 0.0
H1551 H 0.05722 0.72026 0.02456 0.0
H1552 H 0.77781 0.44146 0.47255 0.0
H1553 H 0.77821 0.46692 0.49179 0.0
H1554 H 0.73329 0.46887 0.46348 0.0
H1555 H 0.73286 0.44336 0.4454 0.0
H1556 H 0.76969 0.48915 0.41959 0.0
H1557 H 0.73855 0.48752 0.62282 0.0
H1558 H 0.74637 0.47198 0.59111 0.0
H1559 H 0.73022 0.479 0.56241 0.0
C1560 C 0.76804 0.44737 0.47089 0.0
C1561 C 0.75528 0.44057 0.45821 0.0
C1562 C 0.76828 0.46185 0.48161 0.0
C1563 C 0.75574 0.46969 0.47993 0.0
C1564 C 0.74302 0.46293 0.46607 0.0
H1565 H 0.74535 0.56006 0.45533 0.0
H1566 H 0.74639 0.5346 0.43788 0.0
C1567 C 0.74279 0.44844 0.45538 0.0
C1568 C 0.75601 0.48499 0.49193 0.0
H1569 H 0.74303 0.51017 0.58291 0.0
C1570 C 0.76391 0.49376 0.45539 0.0
C1571 C 0.74862 0.4909 0.53919 0.0
C1572 C 0.74056 0.48187 0.58153 0.0
C1573 C 0.76438 0.50839 0.46414 0.0
C1574 C 0.75655 0.51435 0.5101 0.0
C1575 C 0.74891 0.50555 0.54739 0.0
C1576 C 0.75611 0.52973 0.52018 0.0
C1577 C 0.77335 0.5173 0.42455 0.0
C1578 C 0.76097 0.53535 0.57266 0.0
C1579 C 0.76034 0.54986 0.5827 0.0
C1580 C 0.75475 0.55891 0.54055 0.0
C1581 C 0.74984 0.55327 0.48818 0.0
C1582 C 0.75046 0.53877 0.47815 0.0
H1583 H 0.78147 0.51089 0.40195 0.0
H1584 H 0.76653 0.52223 0.39123 0.0
H1585 H 0.7787 0.52585 0.44895 0.0
H1586 H 0.76534 0.52852 0.60565 0.0
H1587 H 0.76435 0.55401 0.62313 0.0
H1588 H 0.44319 0.73335 0.58405 0.0
H1589 H 0.46888 0.73373 0.56972 0.0
H1590 H 0.46695 0.77816 0.53097 0.0
H1591 H 0.44127 0.77779 0.54502 0.0
H1592 H 0.4819 0.74527 0.45591 0.0
H1593 H 0.49926 0.77143 0.65954 0.0
H1594 H 0.48305 0.76147 0.65494 0.0
H1595 H 0.48418 0.77859 0.6224 0.0
C1596 C 0.44833 0.74319 0.57313 0.0
C1597 C 0.4404 0.75552 0.56519 0.0
C1598 C 0.46291 0.7434 0.56487 0.0
C1599 C 0.46971 0.75598 0.54952 0.0
C1600 C 0.46184 0.76839 0.54317 0.0
H1601 H 0.55616 0.77964 0.47887 0.0
H1602 H 0.53076 0.7792 0.49916 0.0
C1603 C 0.44725 0.76816 0.55095 0.0
C1604 C 0.48494 0.75601 0.53691 0.0
H1605 H 0.5167 0.76699 0.58903 0.0
C1606 C 0.48956 0.74994 0.485 0.0
C1607 C 0.49476 0.76226 0.57485 0.0
C1608 C 0.49017 0.76877 0.63131 0.0
C1609 C 0.50385 0.75013 0.46949 0.0
C1610 C 0.51376 0.75623 0.50781 0.0
C1611 C 0.50908 0.7623 0.55982 0.0
C1612 C 0.52903 0.75646 0.49473 0.0
C1613 C 0.50812 0.74417 0.41155 0.0
C1614 C 0.53645 0.74383 0.48597 0.0
C1615 C 0.55087 0.7441 0.47401 0.0
C1616 C 0.55809 0.75698 0.47153 0.0
C1617 C 0.55073 0.7696 0.48075 0.0
C1618 C 0.53629 0.76934 0.49233 0.0
H1619 H 0.49906 0.74372 0.38112 0.0
H1620 H 0.51664 0.75054 0.39151 0.0
H1621 H 0.51208 0.73326 0.41757 0.0
H1622 H 0.53112 0.73376 0.48899 0.0
H1623 H 0.55645 0.73426 0.46752 0.0
H1624 H 0.22949 0.4445 0.62228 0.0
H1625 H 0.22789 0.47005 0.60732 0.0
H1626 H 0.24696 0.46537 0.43897 0.0
H1627 H 0.24861 0.43985 0.45392 0.0
H1628 H 0.25002 0.48867 0.58737 0.0
H1629 H 0.21186 0.48921 0.40561 0.0
H1630 H 0.21463 0.4739 0.4506 0.0
H1631 H 0.22681 0.47799 0.39342 0.0
C1632 C 0.23336 0.44897 0.58221 0.0
C1633 C 0.23921 0.4403 0.53927 0.0
C1634 C 0.23238 0.46351 0.5736 0.0
C1635 C 0.23714 0.46954 0.52176 0.0
C1636 C 0.24296 0.46087 0.47876 0.0
H1637 H 0.26203 0.55526 0.45244 0.0
H1638 H 0.26074 0.5298 0.47076 0.0
C1639 C 0.24393 0.44634 0.48737 0.0
C1640 C 0.23663 0.48499 0.51368 0.0
H1641 H 0.22392 0.51078 0.42505 0.0
C1642 C 0.24424 0.49353 0.55215 0.0
C1643 C 0.22892 0.49127 0.46812 0.0
C1644 C 0.21998 0.48265 0.42737 0.0
C1645 C 0.24468 0.5082 0.54527 0.0
C1646 C 0.2375 0.51442 0.49819 0.0
C1647 C 0.22954 0.50593 0.46072 0.0
C1648 C 0.23825 0.52972 0.48674 0.0
C1649 C 0.25278 0.51693 0.58857 0.0
C1650 C 0.22598 0.53797 0.48827 0.0
C1651 C 0.22671 0.55243 0.47747 0.0
C1652 C 0.23969 0.55879 0.46475 0.0
C1653 C 0.25192 0.55051 0.46237 0.0
C1654 C 0.25121 0.53606 0.47319 0.0
H1655 H 0.25451 0.51111 0.62966 0.0
H1656 H 0.26325 0.51963 0.57025 0.0
H1657 H 0.24715 0.52692 0.59834 0.0
H1658 H 0.21588 0.53322 0.49822 0.0
H1659 H 0.21714 0.55866 0.47885 0.0
H1660 H 0.55422 0.23217 0.61653 0.0
H1661 H 0.52864 0.23095 0.60229 0.0
H1662 H 0.5334 0.24912 0.43233 0.0
H1663 H 0.55898 0.25031 0.44645 0.0
H1664 H 0.5103 0.25288 0.58206 0.0
H1665 H 0.50899 0.21454 0.40102 0.0
H1666 H 0.52449 0.21734 0.44486 0.0
H1667 H 0.5202 0.22943 0.38758 0.0
C1668 C 0.54976 0.23592 0.57624 0.0
C1669 C 0.55847 0.24137 0.53259 0.0
C1670 C 0.5352 0.23516 0.56805 0.0
C1671 C 0.52917 0.23976 0.51597 0.0
C1672 C 0.53788 0.24522 0.47231 0.0
H1673 H 0.44296 0.2648 0.45379 0.0
H1674 H 0.4685 0.26365 0.46983 0.0
C1675 C 0.55245 0.24594 0.48045 0.0
C1676 C 0.5137 0.23943 0.50831 0.0
H1677 H 0.48758 0.2268 0.4211 0.0
C1678 C 0.50532 0.24711 0.5471 0.0
C1679 C 0.50724 0.23174 0.46311 0.0
C1680 C 0.51567 0.22268 0.42208 0.0
C1681 C 0.49062 0.24759 0.54108 0.0
C1682 C 0.48422 0.24041 0.49439 0.0
C1683 C 0.49256 0.23242 0.45646 0.0
C1684 C 0.46886 0.24109 0.48406 0.0
C1685 C 0.48208 0.25569 0.58502 0.0
C1686 C 0.46073 0.22874 0.48519 0.0
C1687 C 0.44621 0.22938 0.47553 0.0
C1688 C 0.43968 0.24237 0.46448 0.0
C1689 C 0.44784 0.25469 0.46247 0.0
C1690 C 0.46235 0.25405 0.47203 0.0
H1691 H 0.48803 0.25731 0.62587 0.0
H1692 H 0.47942 0.26621 0.56715 0.0
H1693 H 0.47208 0.25012 0.59515 0.0
H1694 H 0.4656 0.21863 0.49395 0.0
H1695 H 0.44009 0.21974 0.47651 0.0
H1696 H 0.23597 0.15225 0.97282 0.0
H1697 H 0.21711 0.16918 0.95468 0.0
H1698 H 0.19004 0.14662 0.07279 0.0
H1699 H 0.2092 0.13011 0.09364 0.0
H1700 H 0.19235 0.16712 0.91002 0.0
H1701 H 0.18582 0.18516 0.13631 0.0
H1702 H 0.20011 0.17386 0.11441 0.0
H1703 H 0.18292 0.16658 0.12887 0.0
C1704 C 0.22601 0.15094 0.99512 0.0
C1705 C 0.22409 0.13996 0.03514 0.0
C1706 C 0.21523 0.16061 0.98465 0.0
C1707 C 0.20223 0.15938 0.01328 0.0
C1708 C 0.20012 0.14809 0.05167 0.0
H1709 H 0.1291 0.20767 0.89229 0.0
H1710 H 0.14607 0.18882 0.91158 0.0
C1711 C 0.21103 0.1386 0.06322 0.0
C1712 C 0.19095 0.16989 0.00234 0.0
H1713 H 0.16866 0.193 0.06899 0.0
C1714 C 0.1872 0.17283 0.9448 0.0
C1715 C 0.18436 0.17749 0.04765 0.0
C1716 C 0.18861 0.17573 0.11018 0.0
C1717 C 0.17719 0.1832 0.93123 0.0
C1718 C 0.17024 0.19042 0.97663 0.0
C1719 C 0.17388 0.18739 0.03418 0.0
C1720 C 0.15963 0.20162 0.96568 0.0
C1721 C 0.17463 0.18664 0.86835 0.0
C1722 C 0.16124 0.21491 0.99164 0.0
C1723 C 0.15133 0.22553 0.98214 0.0
C1724 C 0.13973 0.22315 0.94573 0.0
C1725 C 0.13806 0.20985 0.9199 0.0
C1726 C 0.14781 0.1991 0.93055 0.0
H1727 H 0.1837 0.18347 0.84085 0.0
H1728 H 0.16524 0.18077 0.85296 0.0
H1729 H 0.17273 0.19809 0.86205 0.0
H1730 H 0.17024 0.21712 0.01901 0.0
H1731 H 0.1529 0.2357 0.00255 0.0
H1732 H 0.86198 0.21041 0.12547 0.0
H1733 H 0.84516 0.19174 0.10116 0.0
H1734 H 0.83876 0.21035 0.93308 0.0
H1735 H 0.85533 0.22911 0.95699 0.0
H1736 H 0.81387 0.2047 0.99238 0.0
H1737 H 0.84923 0.15803 0.98984 0.0
H1738 H 0.85029 0.1686 0.05421 0.0
H1739 H 0.85578 0.17589 0.98613 0.0
C1740 C 0.85709 0.21047 0.08313 0.0
C1741 C 0.86002 0.22127 0.04321 0.0
C1742 C 0.84756 0.19974 0.0692 0.0
C1743 C 0.84086 0.1996 0.01508 0.0
C1744 C 0.84388 0.21025 0.97497 0.0
H1745 H 0.78712 0.13471 0.86479 0.0
H1746 H 0.80608 0.1516 0.88428 0.0
C1747 C 0.85338 0.22095 0.98878 0.0
C1748 C 0.83001 0.18889 0.00136 0.0
H1749 H 0.82459 0.15353 0.98448 0.0
C1750 C 0.81622 0.19351 0.99045 0.0
C1751 C 0.83317 0.17434 -0.00171 0.0
C1752 C 0.84794 0.16888 0.00721 0.0
C1753 C 0.80541 0.18395 0.97752 0.0
C1754 C 0.80846 0.16937 0.97622 0.0
C1755 C 0.8223 0.16473 0.986 0.0
C1756 C 0.79732 0.1588 0.96543 0.0
C1757 C 0.79084 0.18952 0.96487 0.0
C1758 C 0.78627 0.15715 0.00509 0.0
C1759 C 0.77544 0.14756 0.99417 0.0
C1760 C 0.77549 0.13937 0.9434 0.0
C1761 C 0.78673 0.14088 0.90417 0.0
C1762 C 0.79759 0.15049 0.91527 0.0
H1763 H 0.791 0.20093 0.95406 0.0
H1764 H 0.78593 0.18368 0.92844 0.0
H1765 H 0.78409 0.18809 0.00364 0.0
H1766 H 0.78598 0.16336 0.0444 0.0
H1767 H 0.76696 0.1467 0.0253 0.0
H1768 H 0.8633 0.7862 0.86262 0.0
H1769 H 0.8463 0.80521 0.87878 0.0
H1770 H 0.83516 0.78709 0.04358 0.0
H1771 H 0.85193 0.76798 0.02772 0.0
H1772 H 0.81198 0.79374 0.97279 0.0
H1773 H 0.84927 0.8387 0.99271 0.0
H1774 H 0.85141 0.82797 0.92919 0.0
H1775 H 0.85481 0.82055 -0.00075 0.0
C1776 C 0.85729 0.78629 0.90247 0.0
C1777 C 0.85902 0.77558 0.94396 0.0
C1778 C 0.84765 0.79721 0.91174 0.0
C1779 C 0.83962 0.79762 0.96266 0.0
C1780 C 0.84133 0.78698 0.00413 0.0
H1781 H 0.78714 0.86273 0.10998 0.0
H1782 H 0.80565 0.84564 0.08752 0.0
C1783 C 0.85095 0.77609 0.99499 0.0
C1784 C 0.82897 0.80878 0.97195 0.0
H1785 H 0.82491 0.84422 0.99168 0.0
C1786 C 0.81479 0.80479 0.97685 0.0
C1787 C 0.83273 0.82314 0.97772 0.0
C1788 C 0.84789 0.8279 0.97496 0.0
C1789 C 0.80421 0.81479 0.98721 0.0
C1790 C 0.80793 0.82918 0.99202 0.0
C1791 C 0.82212 0.83318 0.98743 0.0
C1792 C 0.79721 0.84013 0.0036 0.0
C1793 C 0.78918 0.80985 0.99421 0.0
C1794 C 0.78654 0.84288 0.96323 0.0
C1795 C 0.77593 0.85262 0.97588 0.0
C1796 C 0.77585 0.85981 0.02913 0.0
C1797 C 0.78684 0.85733 0.0687 0.0
C1798 C 0.79744 0.8476 0.05594 0.0
H1799 H 0.78856 0.79831 0.00204 0.0
H1800 H 0.78396 0.81541 0.03065 0.0
H1801 H 0.78321 0.81223 0.95412 0.0
H1802 H 0.78632 0.83737 0.9222 0.0
H1803 H 0.76769 0.85433 0.94423 0.0
H1804 H 0.13526 0.78787 0.1067 0.0
H1805 H 0.15206 0.80661 0.08406 0.0
H1806 H 0.16182 0.7864 0.92186 0.0
H1807 H 0.14513 0.76755 0.94409 0.0
H1808 H 0.18561 0.79375 0.98937 0.0
H1809 H 0.14858 0.83868 0.96354 0.0
H1810 H 0.14644 0.82876 0.02919 0.0
H1811 H 0.14291 0.82051 0.96076 0.0
C1812 C 0.14088 0.78745 0.06596 0.0
C1813 C 0.13883 0.7762 0.02719 0.0
C1814 C 0.15042 0.79822 0.053 0.0
C1815 C 0.15804 0.79795 0.00103 0.0
C1816 C 0.15597 0.78681 0.96207 0.0
H1817 H 0.21149 0.86342 0.85658 0.0
H1818 H 0.19301 0.84597 0.87435 0.0
C1819 C 0.14641 0.77606 0.97487 0.0
C1820 C 0.16871 0.8089 0.98864 0.0
H1821 H 0.17301 0.84423 0.96684 0.0
C1822 C 0.18287 0.80479 0.98421 0.0
C1823 C 0.16504 0.82324 0.98143 0.0
C1824 C 0.14991 0.8281 0.98343 0.0
C1825 C 0.19353 0.81469 0.97377 0.0
C1826 C 0.18992 0.82909 0.96834 0.0
C1827 C 0.17573 0.83318 0.97161 0.0
C1828 C 0.20077 0.84004 0.95885 0.0
C1829 C 0.20856 0.80966 0.96804 0.0
C1830 C 0.21106 0.84264 0.00105 0.0
C1831 C 0.22163 0.85259 0.99111 0.0
C1832 C 0.22207 0.86015 0.93879 0.0
C1833 C 0.21151 0.85775 0.89722 0.0
C1834 C 0.20092 0.84781 0.90728 0.0
H1835 H 0.20912 0.79815 0.95951 0.0
H1836 H 0.21407 0.81531 0.93257 0.0
H1837 H 0.21428 0.81182 0.00894 0.0
H1838 H 0.21095 0.83691 0.04156 0.0
H1839 H 0.22954 0.85421 0.02422 0.0
H1840 H 0.63438 0.71247 0.38786 0.0
H1841 H 0.65112 0.6936 0.40971 0.0
H1842 H 0.66067 0.71319 0.5734 0.0
H1843 H 0.64409 0.73216 0.55192 0.0
H1844 H 0.68449 0.70626 0.50679 0.0
H1845 H 0.64771 0.66095 0.527 0.0
H1846 H 0.64576 0.6711 0.46188 0.0
H1847 H 0.64188 0.67906 0.53059 0.0
C1848 C 0.63994 0.71271 0.42875 0.0
C1849 C 0.63788 0.72384 0.46814 0.0
C1850 C 0.64944 0.70188 0.44128 0.0
C1851 C 0.65699 0.70194 0.49344 0.0
C1852 C 0.65488 0.71293 0.53303 0.0
H1853 H 0.71089 0.63658 0.63666 0.0
H1854 H 0.69224 0.65391 0.6194 0.0
C1855 C 0.64538 0.72376 0.52065 0.0
C1856 C 0.6677 0.69099 0.50536 0.0
H1857 H 0.6722 0.6556 0.52496 0.0
C1858 C 0.68181 0.69518 0.51098 0.0
C1859 C 0.66411 0.67659 0.51128 0.0
C1860 C 0.64903 0.67161 0.50791 0.0
C1861 C 0.6925 0.68532 0.52142 0.0
C1862 C 0.68898 0.67087 0.52567 0.0
C1863 C 0.67484 0.66668 0.52115 0.0
C1864 C 0.6999 0.65999 0.5349 0.0
C1865 C 0.70748 0.69042 0.52836 0.0
C1866 C 0.71018 0.65753 0.49257 0.0
C1867 C 0.72084 0.64765 0.50218 0.0
C1868 C 0.72138 0.64004 0.55436 0.0
C1869 C 0.71083 0.64231 0.59614 0.0
C1870 C 0.70015 0.65218 0.58636 0.0
H1871 H 0.70794 0.70193 0.53721 0.0
H1872 H 0.71285 0.68475 0.56409 0.0
H1873 H 0.71339 0.68834 0.48785 0.0
H1874 H 0.71001 0.66331 0.45219 0.0
H1875 H 0.72872 0.6461 0.46886 0.0
H1876 H 0.36232 0.71056 0.6222 0.0
H1877 H 0.34564 0.69174 0.59943 0.0
H1878 H 0.33845 0.70999 0.43124 0.0
H1879 H 0.35503 0.72895 0.4536 0.0
H1880 H 0.31371 0.70405 0.49454 0.0
H1881 H 0.3498 0.65799 0.4876 0.0
H1882 H 0.35137 0.66872 0.55138 0.0
H1883 H 0.35599 0.67596 0.48213 0.0
C1884 C 0.35731 0.71053 0.58012 0.0
C1885 C 0.36002 0.72129 0.53973 0.0
C1886 C 0.34784 0.6997 0.56709 0.0
C1887 C 0.34096 0.69941 0.51344 0.0
C1888 C 0.34374 0.71001 0.47277 0.0
H1889 H 0.28679 0.6337 0.37439 0.0
H1890 H 0.30577 0.65067 0.39127 0.0
C1891 C 0.35323 0.72083 0.48565 0.0
C1892 C 0.33019 0.68854 0.50117 0.0
H1893 H 0.3252 0.65303 0.48791 0.0
C1894 C 0.31622 0.6929 0.49279 0.0
C1895 C 0.33356 0.67403 0.49848 0.0
C1896 C 0.34851 0.66885 0.50485 0.0
C1897 C 0.30542 0.68309 0.48295 0.0
C1898 C 0.30871 0.66856 0.48215 0.0
C1899 C 0.32273 0.6642 0.4892 0.0
C1900 C 0.29766 0.65777 0.47369 0.0
C1901 C 0.29061 0.68836 0.47306 0.0
C1902 C 0.28703 0.65597 0.51514 0.0
C1903 C 0.27618 0.64628 0.50577 0.0
C1904 C 0.27579 0.63822 0.4547 0.0
C1905 C 0.28672 0.63978 0.41403 0.0
C1906 C 0.29759 0.64945 0.42359 0.0
H1907 H 0.29041 0.69976 0.46203 0.0
H1908 H 0.28542 0.68236 0.43772 0.0
H1909 H 0.28434 0.68682 0.5131 0.0
H1910 H 0.28705 0.66217 0.5545 0.0
H1911 H 0.26799 0.64531 0.53814 0.0
H1912 H 0.35311 0.26848 0.54748 0.0
H1913 H 0.33608 0.28712 0.56835 0.0
H1914 H 0.34617 0.30731 0.40654 0.0
H1915 H 0.36334 0.28878 0.38523 0.0
H1916 H 0.344 0.32599 0.50521 0.0
H1917 H 0.2979 0.29026 0.48095 0.0
H1918 H 0.31128 0.28433 0.53031 0.0
H1919 H 0.31524 0.28576 0.45458 0.0
C1920 C 0.3518 0.27691 0.51639 0.0
C1921 C 0.35953 0.27707 0.46444 0.0
C1922 C 0.34202 0.28752 0.52836 0.0
C1923 C 0.33977 0.29845 0.4886 0.0
C1924 C 0.34775 0.29891 0.43761 0.0
H1925 H 0.26831 0.35437 0.46348 0.0
H1926 H 0.28747 0.33771 0.44622 0.0
C1927 C 0.35752 0.28829 0.42551 0.0
C1928 C 0.3288 0.30919 0.49945 0.0
H1929 H 0.29325 0.31346 0.51319 0.0
C1930 C 0.3329 0.32329 0.50701 0.0
C1931 C 0.31434 0.3056 0.50104 0.0
C1932 C 0.30935 0.2907 0.49083 0.0
C1933 C 0.32287 0.33391 0.51682 0.0
C1934 C 0.30843 0.33026 0.51955 0.0
C1935 C 0.30435 0.31618 0.51143 0.0
C1936 C 0.29731 0.34089 0.52958 0.0
C1937 C 0.32774 0.34897 0.52313 0.0
C1938 C 0.29651 0.34818 0.58228 0.0
C1939 C 0.28555 0.35771 0.59244 0.0
C1940 C 0.27516 0.36006 0.55007 0.0
C1941 C 0.2761 0.35281 0.49711 0.0
C1942 C 0.28704 0.34328 0.4871 0.0
H1943 H 0.3387 0.35042 0.50729 0.0
H1944 H 0.32068 0.35623 0.49908 0.0
H1945 H 0.32743 0.35198 0.56949 0.0
H1946 H 0.30422 0.3463 0.61595 0.0
H1947 H 0.28512 0.36309 0.63373 0.0
H1948 H 0.71084 0.36407 0.3681 0.0
H1949 H 0.69216 0.34684 0.38694 0.0
H1950 H 0.71227 0.3353 0.54729 0.0
H1951 H 0.73104 0.35225 0.52868 0.0
H1952 H 0.70506 0.31232 0.47683 0.0
H1953 H 0.65998 0.34902 0.5073 0.0
H1954 H 0.66993 0.35148 0.44187 0.0
H1955 H 0.67812 0.35476 0.51059 0.0
C1956 C 0.71125 0.35793 0.40755 0.0
C1957 C 0.72242 0.3596 0.44699 0.0
C1958 C 0.70052 0.34816 0.41838 0.0
C1959 C 0.70077 0.33995 0.46884 0.0
C1960 C 0.71187 0.34161 0.50826 0.0
H1961 H 0.63695 0.28604 0.62018 0.0
H1962 H 0.65404 0.30467 0.59897 0.0
C1963 C 0.72256 0.35135 0.49756 0.0
C1964 C 0.68984 0.32914 0.47966 0.0
H1965 H 0.6547 0.32459 0.50537 0.0
C1966 C 0.69405 0.31499 0.48305 0.0
C1967 C 0.67553 0.33271 0.48833 0.0
C1968 C 0.67057 0.34782 0.48737 0.0
C1969 C 0.68428 0.30425 0.49452 0.0
C1970 C 0.66992 0.30778 0.502 0.0
C1971 C 0.66572 0.32194 0.49914 0.0
C1972 C 0.65916 0.29686 0.51361 0.0
C1973 C 0.68946 0.28926 0.49958 0.0
C1974 C 0.65623 0.28648 0.47215 0.0
C1975 C 0.64651 0.27583 0.48407 0.0
C1976 C 0.6395 0.27538 0.53768 0.0
C1977 C 0.64221 0.28603 0.57859 0.0
C1978 C 0.65195 0.2967 0.56655 0.0
H1979 H 0.70105 0.28876 0.50611 0.0
H1980 H 0.6842 0.28375 0.53607 0.0
H1981 H 0.68691 0.28348 0.45917 0.0
H1982 H 0.66153 0.28659 0.43065 0.0
H1983 H 0.64459 0.26788 0.45134 0.0
loop_
_geom_bond_atom_site_label_1
_geom_bond_atom_site_label_2
_geom_bond_distance
_geom_bond_site_symmetry_2
_ccdc_geom_bond_type
Co0 O3 1.970 . S
Co0 N17 1.989 . S
Co0 O25 1.967 . S
Co0 O32 1.920 . S
Co1 O4 1.966 1_556 S
Co1 N10 2.022 . S
Co1 N18 1.993 1_556 S
Co1 O26 1.941 1_556 S
C2 O3 1.258 . S
C2 O4 1.263 . S
O3 Co0 1.970 . S
O3 C2 1.258 . S
O4 Co1 1.966 1_554 S
O4 C2 1.263 . S
C5 O6 1.235 . S
C5 O32 1.289 . S
O6 C5 1.235 . S
C7 C9 1.400 . S
C7 N10 1.351 . S
C7 C12 1.501 . S
C8 C9 1.387 . S
C8 N11 1.341 . S
C9 C7 1.400 . S
C9 C8 1.387 . S
N10 Co1 2.022 . S
N10 C7 1.351 . S
N10 N11 1.365 . S
N11 C8 1.341 . S
N11 N10 1.365 . S
N11 H31 0.862 . S
C12 C7 1.501 . S
C12 H13 0.961 . S
C12 H14 0.961 . S
C12 H15 0.960 . S
H13 C12 0.961 . S
H14 C12 0.961 . S
H15 C12 0.960 . S
C16 N17 1.342 . S
C16 C20 1.401 . S
C16 C21 1.499 . S
N17 Co0 1.989 . S
N17 C16 1.342 . S
N17 N18 1.388 . S
N18 Co1 1.993 1_554 S
N18 N17 1.388 . S
N18 C19 1.346 1_554 S
C19 N18 1.346 1_556 S
C19 C20 1.396 1_556 S
C19 C29 1.510 . S
C20 C16 1.401 . S
C20 C19 1.396 1_554 S
C21 C16 1.499 . S
C21 H22 0.959 . S
C21 H23 0.960 . S
C21 H24 0.961 . S
H22 C21 0.959 . S
H23 C21 0.960 . S
H24 C21 0.961 . S
O25 Co0 1.967 . S
O25 C33 1.258 . S
O26 Co1 1.941 1_554 S
O26 C33 1.266 . S
H27 C29 0.959 . S
H28 C29 0.961 . S
C29 C19 1.510 . S
C29 H27 0.959 . S
C29 H28 0.961 . S
C29 H30 0.960 . S
H30 C29 0.960 . S
H31 N11 0.862 . S
O32 Co0 1.920 . S
O32 C5 1.289 . S
C33 O25 1.258 . S
C33 O26 1.266 . S
Co34 O37 1.970 . S
Co34 N51 1.989 . S
Co34 O59 1.967 . S
Co34 O66 1.920 . S
Co35 O38 1.966 1_556 S
Co35 N44 2.022 . S
Co35 N52 1.993 1_556 S
Co35 O60 1.941 1_556 S
C36 O37 1.258 . S
C36 O38 1.263 . S
O37 Co34 1.970 . S
O37 C36 1.258 . S
O38 Co35 1.966 1_554 S
O38 C36 1.263 . S
C39 O40 1.235 . S
C39 O66 1.289 . S
O40 C39 1.235 . S
C41 C43 1.400 . S
C41 N44 1.351 . S
C41 C46 1.501 . S
C42 C43 1.387 . S
C42 N45 1.341 . S
C43 C41 1.400 . S
C43 C42 1.387 . S
N44 Co35 2.022 . S
N44 C41 1.351 . S
N44 N45 1.365 . S
N45 C42 1.341 . S
N45 N44 1.365 . S
N45 H65 0.862 . S
C46 C41 1.501 . S
C46 H47 0.961 . S
C46 H48 0.961 . S
C46 H49 0.960 . S
H47 C46 0.961 . S
H48 C46 0.961 . S
H49 C46 0.960 . S
C50 N51 1.342 . S
C50 C54 1.401 . S
C50 C55 1.499 . S
N51 Co34 1.989 . S
N51 C50 1.342 . S
N51 N52 1.388 . S
N52 Co35 1.993 1_554 S
N52 N51 1.388 . S
N52 C53 1.346 1_554 S
C53 N52 1.346 1_556 S
C53 C54 1.396 1_556 S
C53 C63 1.510 . S
C54 C50 1.401 . S
C54 C53 1.396 1_554 S
C55 C50 1.499 . S
C55 H56 0.959 . S
C55 H57 0.960 . S
C55 H58 0.961 . S
H56 C55 0.959 . S
H57 C55 0.960 . S
H58 C55 0.961 . S
O59 Co34 1.967 . S
O59 C67 1.258 . S
O60 Co35 1.941 1_554 S
O60 C67 1.266 . S
H61 C63 0.959 . S
H62 C63 0.961 . S
C63 C53 1.510 . S
C63 H61 0.959 . S
C63 H62 0.961 . S
C63 H64 0.960 . S
H64 C63 0.960 . S
H65 N45 0.862 . S
O66 Co34 1.920 . S
O66 C39 1.289 . S
C67 O59 1.258 . S
C67 O60 1.266 . S
Co68 O71 1.970 . S
Co68 N85 1.989 . S
Co68 O93 1.967 . S
Co68 O100 1.920 . S
Co69 O72 1.966 1_556 S
Co69 N78 2.022 . S
Co69 N86 1.993 1_556 S
Co69 O94 1.941 1_556 S
C70 O71 1.258 . S
C70 O72 1.263 . S
O71 Co68 1.970 . S
O71 C70 1.258 . S
O72 Co69 1.966 1_554 S
O72 C70 1.263 . S
C73 O74 1.235 . S
C73 O100 1.289 . S
O74 C73 1.235 . S
C75 C77 1.400 . S
C75 N78 1.351 . S
C75 C80 1.501 . S
C76 C77 1.387 . S
C76 N79 1.341 . S
C77 C75 1.400 . S
C77 C76 1.387 . S
N78 Co69 2.022 . S
N78 C75 1.351 . S
N78 N79 1.365 . S
N79 C76 1.341 . S
N79 N78 1.365 . S
N79 H99 0.862 . S
C80 C75 1.501 . S
C80 H81 0.961 . S
C80 H82 0.961 . S
C80 H83 0.960 . S
H81 C80 0.961 . S
H82 C80 0.961 . S
H83 C80 0.960 . S
C84 N85 1.342 . S
C84 C88 1.401 . S
C84 C89 1.499 . S
N85 Co68 1.989 . S
N85 C84 1.342 . S
N85 N86 1.388 . S
N86 Co69 1.993 1_554 S
N86 N85 1.388 . S
N86 C87 1.346 1_554 S
C87 N86 1.346 1_556 S
C87 C88 1.396 1_556 S
C87 C97 1.510 . S
C88 C84 1.401 . S
C88 C87 1.396 1_554 S
C89 C84 1.499 . S
C89 H90 0.959 . S
C89 H91 0.960 . S
C89 H92 0.961 . S
H90 C89 0.959 . S
H91 C89 0.960 . S
H92 C89 0.961 . S
O93 Co68 1.967 . S
O93 C101 1.258 . S
O94 Co69 1.941 1_554 S
O94 C101 1.266 . S
H95 C97 0.959 . S
H96 C97 0.961 . S
C97 C87 1.510 . S
C97 H95 0.959 . S
C97 H96 0.961 . S
C97 H98 0.960 . S
H98 C97 0.960 . S
H99 N79 0.862 . S
O100 Co68 1.920 . S
O100 C73 1.289 . S
C101 O93 1.258 . S
C101 O94 1.266 . S
Co102 O105 1.970 . S
Co102 N119 1.989 . S
Co102 O127 1.967 . S
Co102 O134 1.920 . S
Co103 O106 1.966 1_556 S
Co103 N112 2.022 . S
Co103 N120 1.993 1_556 S
Co103 O128 1.941 1_556 S
C104 O105 1.258 . S
C104 O106 1.263 . S
O105 Co102 1.970 . S
O105 C104 1.258 . S
O106 Co103 1.966 1_554 S
O106 C104 1.263 . S
C107 O108 1.235 . S
C107 O134 1.289 . S
O108 C107 1.235 . S
C109 C111 1.400 . S
C109 N112 1.351 . S
C109 C114 1.501 . S
C110 C111 1.387 . S
C110 N113 1.341 . S
C111 C109 1.400 . S
C111 C110 1.387 . S
N112 Co103 2.022 . S
N112 C109 1.351 . S
N112 N113 1.365 . S
N113 C110 1.341 . S
N113 N112 1.365 . S
N113 H133 0.862 . S
C114 C109 1.501 . S
C114 H115 0.961 . S
C114 H116 0.961 . S
C114 H117 0.960 . S
H115 C114 0.961 . S
H116 C114 0.961 . S
H117 C114 0.960 . S
C118 N119 1.342 . S
C118 C122 1.401 . S
C118 C123 1.499 . S
N119 Co102 1.989 . S
N119 C118 1.342 . S
N119 N120 1.388 . S
N120 Co103 1.993 1_554 S
N120 N119 1.388 . S
N120 C121 1.346 1_554 S
C121 N120 1.346 1_556 S
C121 C122 1.396 1_556 S
C121 C131 1.510 . S
C122 C118 1.401 . S
C122 C121 1.396 1_554 S
C123 C118 1.499 . S
C123 H124 0.959 . S
C123 H125 0.960 . S
C123 H126 0.961 . S
H124 C123 0.959 . S
H125 C123 0.960 . S
H126 C123 0.961 . S
O127 Co102 1.967 . S
O127 C135 1.258 . S
O128 Co103 1.941 1_554 S
O128 C135 1.266 . S
H129 C131 0.959 . S
H130 C131 0.961 . S
C131 C121 1.510 . S
C131 H129 0.959 . S
C131 H130 0.961 . S
C131 H132 0.960 . S
H132 C131 0.960 . S
H133 N113 0.862 . S
O134 Co102 1.920 . S
O134 C107 1.289 . S
C135 O127 1.258 . S
C135 O128 1.266 . S
Co136 O139 1.970 . S
Co136 N153 1.989 . S
Co136 O161 1.967 . S
Co136 O168 1.920 . S
Co137 O140 1.966 1_554 S
Co137 N146 2.022 . S
Co137 N154 1.993 1_554 S
Co137 O162 1.941 1_554 S
C138 O139 1.258 . S
C138 O140 1.263 . S
O139 Co136 1.970 . S
O139 C138 1.258 . S
O140 Co137 1.966 1_556 S
O140 C138 1.263 . S
C141 O142 1.235 . S
C141 O168 1.289 . S
O142 C141 1.235 . S
C143 C145 1.400 . S
C143 N146 1.351 . S
C143 C148 1.501 . S
C144 C145 1.387 . S
C144 N147 1.341 . S
C145 C143 1.400 . S
C145 C144 1.387 . S
N146 Co137 2.022 . S
N146 C143 1.351 . S
N146 N147 1.365 . S
N147 C144 1.341 . S
N147 N146 1.365 . S
N147 H167 0.862 . S
C148 C143 1.501 . S
C148 H149 0.961 . S
C148 H150 0.961 . S
C148 H151 0.960 . S
H149 C148 0.961 . S
H150 C148 0.961 . S
H151 C148 0.960 . S
C152 N153 1.342 . S
C152 C156 1.401 . S
C152 C157 1.499 . S
N153 Co136 1.989 . S
N153 C152 1.342 . S
N153 N154 1.388 . S
N154 Co137 1.993 1_556 S
N154 N153 1.388 . S
N154 C155 1.346 1_556 S
C155 N154 1.346 1_554 S
C155 C156 1.396 1_554 S
C155 C165 1.510 . S
C156 C152 1.401 . S
C156 C155 1.396 1_556 S
C157 C152 1.499 . S
C157 H158 0.959 . S
C157 H159 0.960 . S
C157 H160 0.961 . S
H158 C157 0.959 . S
H159 C157 0.960 . S
H160 C157 0.961 . S
O161 Co136 1.967 . S
O161 C169 1.258 . S
O162 Co137 1.941 1_556 S
O162 C169 1.266 . S
H163 C165 0.959 . S
H164 C165 0.961 . S
C165 C155 1.510 . S
C165 H163 0.959 . S
C165 H164 0.961 . S
C165 H166 0.960 . S
H166 C165 0.960 . S
H167 N147 0.862 . S
O168 Co136 1.920 . S
O168 C141 1.289 . S
C169 O161 1.258 . S
C169 O162 1.266 . S
Co170 O173 1.970 . S
Co170 N187 1.989 . S
Co170 O195 1.967 . S
Co170 O202 1.920 . S
Co171 O174 1.966 1_554 S
Co171 N180 2.022 . S
Co171 N188 1.993 1_554 S
Co171 O196 1.941 1_554 S
C172 O173 1.258 . S
C172 O174 1.263 . S
O173 Co170 1.970 . S
O173 C172 1.258 . S
O174 Co171 1.966 1_556 S
O174 C172 1.263 . S
C175 O176 1.235 . S
C175 O202 1.289 . S
O176 C175 1.235 . S
C177 C179 1.400 . S
C177 N180 1.351 . S
C177 C182 1.501 . S
C178 C179 1.387 . S
C178 N181 1.341 . S
C179 C177 1.400 . S
C179 C178 1.387 . S
N180 Co171 2.022 . S
N180 C177 1.351 . S
N180 N181 1.365 . S
N181 C178 1.341 . S
N181 N180 1.365 . S
N181 H201 0.862 . S
C182 C177 1.501 . S
C182 H183 0.961 . S
C182 H184 0.961 . S
C182 H185 0.960 . S
H183 C182 0.961 . S
H184 C182 0.961 . S
H185 C182 0.960 . S
C186 N187 1.342 . S
C186 C190 1.401 . S
C186 C191 1.499 . S
N187 Co170 1.989 . S
N187 C186 1.342 . S
N187 N188 1.388 . S
N188 Co171 1.993 1_556 S
N188 N187 1.388 . S
N188 C189 1.346 1_556 S
C189 N188 1.346 1_554 S
C189 C190 1.396 1_554 S
C189 C199 1.510 . S
C190 C186 1.401 . S
C190 C189 1.396 1_556 S
C191 C186 1.499 . S
C191 H192 0.959 . S
C191 H193 0.960 . S
C191 H194 0.961 . S
H192 C191 0.959 . S
H193 C191 0.960 . S
H194 C191 0.961 . S
O195 Co170 1.967 . S
O195 C203 1.258 . S
O196 Co171 1.941 1_556 S
O196 C203 1.266 . S
H197 C199 0.959 . S
H198 C199 0.961 . S
C199 C189 1.510 . S
C199 H197 0.959 . S
C199 H198 0.961 . S
C199 H200 0.960 . S
H200 C199 0.960 . S
H201 N181 0.862 . S
O202 Co170 1.920 . S
O202 C175 1.289 . S
C203 O195 1.258 . S
C203 O196 1.266 . S
Co204 O207 1.970 . S
Co204 N221 1.989 . S
Co204 O229 1.967 . S
Co204 O236 1.920 . S
Co205 O208 1.966 1_554 S
Co205 N214 2.022 . S
Co205 N222 1.993 1_554 S
Co205 O230 1.941 1_554 S
C206 O207 1.258 . S
C206 O208 1.263 . S
O207 Co204 1.970 . S
O207 C206 1.258 . S
O208 Co205 1.966 1_556 S
O208 C206 1.263 . S
C209 O210 1.235 . S
C209 O236 1.289 . S
O210 C209 1.235 . S
C211 C213 1.400 . S
C211 N214 1.351 . S
C211 C216 1.501 . S
C212 C213 1.387 . S
C212 N215 1.341 . S
C213 C211 1.400 . S
C213 C212 1.387 . S
N214 Co205 2.022 . S
N214 C211 1.351 . S
N214 N215 1.365 . S
N215 C212 1.341 . S
N215 N214 1.365 . S
N215 H235 0.862 . S
C216 C211 1.501 . S
C216 H217 0.961 . S
C216 H218 0.961 . S
C216 H219 0.960 . S
H217 C216 0.961 . S
H218 C216 0.961 . S
H219 C216 0.960 . S
C220 N221 1.342 . S
C220 C224 1.401 . S
C220 C225 1.499 . S
N221 Co204 1.989 . S
N221 C220 1.342 . S
N221 N222 1.388 . S
N222 Co205 1.993 1_556 S
N222 N221 1.388 . S
N222 C223 1.346 1_556 S
C223 N222 1.346 1_554 S
C223 C224 1.396 1_554 S
C223 C233 1.510 . S
C224 C220 1.401 . S
C224 C223 1.396 1_556 S
C225 C220 1.499 . S
C225 H226 0.959 . S
C225 H227 0.960 . S
C225 H228 0.961 . S
H226 C225 0.959 . S
H227 C225 0.960 . S
H228 C225 0.961 . S
O229 Co204 1.967 . S
O229 C237 1.258 . S
O230 Co205 1.941 1_556 S
O230 C237 1.266 . S
H231 C233 0.959 . S
H232 C233 0.961 . S
C233 C223 1.510 . S
C233 H231 0.959 . S
C233 H232 0.961 . S
C233 H234 0.960 . S
H234 C233 0.960 . S
H235 N215 0.862 . S
O236 Co204 1.920 . S
O236 C209 1.289 . S
C237 O229 1.258 . S
C237 O230 1.266 . S
Co238 O241 1.970 . S
Co238 N255 1.989 . S
Co238 O263 1.967 . S
Co238 O270 1.920 . S
Co239 O242 1.966 1_554 S
Co239 N248 2.022 . S
Co239 N256 1.993 1_554 S
Co239 O264 1.941 1_554 S
C240 O241 1.258 . S
C240 O242 1.263 . S
O241 Co238 1.970 . S
O241 C240 1.258 . S
O242 Co239 1.966 1_556 S
O242 C240 1.263 . S
C243 O244 1.235 . S
C243 O270 1.289 . S
O244 C243 1.235 . S
C245 C247 1.400 . S
C245 N248 1.351 . S
C245 C250 1.501 . S
C246 C247 1.387 . S
C246 N249 1.341 . S
C247 C245 1.400 . S
C247 C246 1.387 . S
N248 Co239 2.022 . S
N248 C245 1.351 . S
N248 N249 1.365 . S
N249 C246 1.341 . S
N249 N248 1.365 . S
N249 H269 0.862 . S
C250 C245 1.501 . S
C250 H251 0.961 . S
C250 H252 0.961 . S
C250 H253 0.960 . S
H251 C250 0.961 . S
H252 C250 0.961 . S
H253 C250 0.960 . S
C254 N255 1.342 . S
C254 C258 1.401 . S
C254 C259 1.499 . S
N255 Co238 1.989 . S
N255 C254 1.342 . S
N255 N256 1.388 . S
N256 Co239 1.993 1_556 S
N256 N255 1.388 . S
N256 C257 1.346 1_556 S
C257 N256 1.346 1_554 S
C257 C258 1.396 1_554 S
C257 C267 1.510 . S
C258 C254 1.401 . S
C258 C257 1.396 1_556 S
C259 C254 1.499 . S
C259 H260 0.959 . S
C259 H261 0.960 . S
C259 H262 0.961 . S
H260 C259 0.959 . S
H261 C259 0.960 . S
H262 C259 0.961 . S
O263 Co238 1.967 . S
O263 C271 1.258 . S
O264 Co239 1.941 1_556 S
O264 C271 1.266 . S
H265 C267 0.959 . S
H266 C267 0.961 . S
C267 C257 1.510 . S
C267 H265 0.959 . S
C267 H266 0.961 . S
C267 H268 0.960 . S
H268 C267 0.960 . S
H269 N249 0.862 . S
O270 Co238 1.920 . S
O270 C243 1.289 . S
C271 O263 1.258 . S
C271 O264 1.266 . S
Co272 O275 1.970 . S
Co272 N289 1.989 . S
Co272 O297 1.967 . S
Co272 O304 1.920 . S
Co273 O276 1.966 . S
Co273 N282 2.022 . S
Co273 N290 1.993 . S
Co273 O298 1.941 . S
C274 O275 1.258 . S
C274 O276 1.263 . S
O275 Co272 1.970 . S
O275 C274 1.258 . S
O276 Co273 1.966 . S
O276 C274 1.263 . S
C277 O278 1.235 . S
C277 O304 1.289 . S
O278 C277 1.235 . S
C279 C281 1.400 . S
C279 N282 1.351 . S
C279 C284 1.501 . S
C280 C281 1.387 . S
C280 N283 1.341 . S
C281 C279 1.400 . S
C281 C280 1.387 . S
N282 Co273 2.022 . S
N282 C279 1.351 . S
N282 N283 1.365 . S
N283 C280 1.341 . S
N283 N282 1.365 . S
N283 H303 0.862 . S
C284 C279 1.501 . S
C284 H285 0.961 . S
C284 H286 0.961 . S
C284 H287 0.960 . S
H285 C284 0.961 . S
H286 C284 0.961 . S
H287 C284 0.960 . S
C288 N289 1.342 . S
C288 C292 1.401 . S
C288 C293 1.499 . S
N289 Co272 1.989 . S
N289 C288 1.342 . S
N289 N290 1.388 . S
N290 Co273 1.993 . S
N290 N289 1.388 . S
N290 C291 1.346 . S
C291 N290 1.346 . S
C291 C292 1.396 . S
C291 C301 1.510 . S
C292 C288 1.401 . S
C292 C291 1.396 . S
C293 C288 1.499 . S
C293 H294 0.959 . S
C293 H295 0.960 . S
C293 H296 0.961 . S
H294 C293 0.959 . S
H295 C293 0.960 . S
H296 C293 0.961 . S
O297 Co272 1.967 . S
O297 C305 1.258 . S
O298 Co273 1.941 . S
O298 C305 1.266 . S
H299 C301 0.959 . S
H300 C301 0.961 . S
C301 C291 1.510 . S
C301 H299 0.959 . S
C301 H300 0.961 . S
C301 H302 0.960 . S
H302 C301 0.960 . S
H303 N283 0.862 . S
O304 Co272 1.920 . S
O304 C277 1.289 . S
C305 O297 1.258 . S
C305 O298 1.266 . S
Co306 O309 1.970 . S
Co306 N323 1.989 . S
Co306 O331 1.967 . S
Co306 O338 1.920 . S
Co307 O310 1.966 . S
Co307 N316 2.022 . S
Co307 N324 1.993 . S
Co307 O332 1.941 . S
C308 O309 1.258 . S
C308 O310 1.263 . S
O309 Co306 1.970 . S
O309 C308 1.258 . S
O310 Co307 1.966 . S
O310 C308 1.263 . S
C311 O312 1.235 . S
C311 O338 1.289 . S
O312 C311 1.235 . S
C313 C315 1.400 . S
C313 N316 1.351 . S
C313 C318 1.501 . S
C314 C315 1.387 . S
C314 N317 1.341 . S
C315 C313 1.400 . S
C315 C314 1.387 . S
N316 Co307 2.022 . S
N316 C313 1.351 . S
N316 N317 1.365 . S
N317 C314 1.341 . S
N317 N316 1.365 . S
N317 H337 0.862 . S
C318 C313 1.501 . S
C318 H319 0.961 . S
C318 H320 0.961 . S
C318 H321 0.960 . S
H319 C318 0.961 . S
H320 C318 0.961 . S
H321 C318 0.960 . S
C322 N323 1.342 . S
C322 C326 1.401 . S
C322 C327 1.499 . S
N323 Co306 1.989 . S
N323 C322 1.342 . S
N323 N324 1.388 . S
N324 Co307 1.993 . S
N324 N323 1.388 . S
N324 C325 1.346 . S
C325 N324 1.346 . S
C325 C326 1.396 . S
C325 C335 1.510 . S
C326 C322 1.401 . S
C326 C325 1.396 . S
C327 C322 1.499 . S
C327 H328 0.959 . S
C327 H329 0.960 . S
C327 H330 0.961 . S
H328 C327 0.959 . S
H329 C327 0.960 . S
H330 C327 0.961 . S
O331 Co306 1.967 . S
O331 C339 1.258 . S
O332 Co307 1.941 . S
O332 C339 1.266 . S
H333 C335 0.959 . S
H334 C335 0.961 . S
C335 C325 1.510 . S
C335 H333 0.959 . S
C335 H334 0.961 . S
C335 H336 0.960 . S
H336 C335 0.960 . S
H337 N317 0.862 . S
O338 Co306 1.920 . S
O338 C311 1.289 . S
C339 O331 1.258 . S
C339 O332 1.266 . S
Co340 O343 1.970 . S
Co340 N357 1.989 . S
Co340 O365 1.967 . S
Co340 O372 1.920 . S
Co341 O344 1.966 . S
Co341 N350 2.022 . S
Co341 N358 1.993 . S
Co341 O366 1.941 . S
C342 O343 1.258 . S
C342 O344 1.263 . S
O343 Co340 1.970 . S
O343 C342 1.258 . S
O344 Co341 1.966 . S
O344 C342 1.263 . S
C345 O346 1.235 . S
C345 O372 1.289 . S
O346 C345 1.235 . S
C347 C349 1.400 . S
C347 N350 1.351 . S
C347 C352 1.501 . S
C348 C349 1.387 . S
C348 N351 1.341 . S
C349 C347 1.400 . S
C349 C348 1.387 . S
N350 Co341 2.022 . S
N350 C347 1.351 . S
N350 N351 1.365 . S
N351 C348 1.341 . S
N351 N350 1.365 . S
N351 H371 0.862 . S
C352 C347 1.501 . S
C352 H353 0.961 . S
C352 H354 0.961 . S
C352 H355 0.960 . S
H353 C352 0.961 . S
H354 C352 0.961 . S
H355 C352 0.960 . S
C356 N357 1.342 . S
C356 C360 1.401 . S
C356 C361 1.499 . S
N357 Co340 1.989 . S
N357 C356 1.342 . S
N357 N358 1.388 . S
N358 Co341 1.993 . S
N358 N357 1.388 . S
N358 C359 1.346 . S
C359 N358 1.346 . S
C359 C360 1.396 . S
C359 C369 1.510 . S
C360 C356 1.401 . S
C360 C359 1.396 . S
C361 C356 1.499 . S
C361 H362 0.959 . S
C361 H363 0.960 . S
C361 H364 0.961 . S
H362 C361 0.959 . S
H363 C361 0.960 . S
H364 C361 0.961 . S
O365 Co340 1.967 . S
O365 C373 1.258 . S
O366 Co341 1.941 . S
O366 C373 1.266 . S
H367 C369 0.959 . S
H368 C369 0.961 . S
C369 C359 1.510 . S
C369 H367 0.959 . S
C369 H368 0.961 . S
C369 H370 0.960 . S
H370 C369 0.960 . S
H371 N351 0.862 . S
O372 Co340 1.920 . S
O372 C345 1.289 . S
C373 O365 1.258 . S
C373 O366 1.266 . S
Co374 O377 1.970 . S
Co374 N391 1.989 . S
Co374 O399 1.967 . S
Co374 O406 1.920 . S
Co375 O378 1.966 . S
Co375 N384 2.022 . S
Co375 N392 1.993 . S
Co375 O400 1.941 . S
C376 O377 1.258 . S
C376 O378 1.263 . S
O377 Co374 1.970 . S
O377 C376 1.258 . S
O378 Co375 1.966 . S
O378 C376 1.263 . S
C379 O380 1.235 . S
C379 O406 1.289 . S
O380 C379 1.235 . S
C381 C383 1.400 . S
C381 N384 1.351 . S
C381 C386 1.501 . S
C382 C383 1.387 . S
C382 N385 1.341 . S
C383 C381 1.400 . S
C383 C382 1.387 . S
N384 Co375 2.022 . S
N384 C381 1.351 . S
N384 N385 1.365 . S
N385 C382 1.341 . S
N385 N384 1.365 . S
N385 H405 0.862 . S
C386 C381 1.501 . S
C386 H387 0.961 . S
C386 H388 0.961 . S
C386 H389 0.960 . S
H387 C386 0.961 . S
H388 C386 0.961 . S
H389 C386 0.960 . S
C390 N391 1.342 . S
C390 C394 1.401 . S
C390 C395 1.499 . S
N391 Co374 1.989 . S
N391 C390 1.342 . S
N391 N392 1.388 . S
N392 Co375 1.993 . S
N392 N391 1.388 . S
N392 C393 1.346 . S
C393 N392 1.346 . S
C393 C394 1.396 . S
C393 C403 1.510 . S
C394 C390 1.401 . S
C394 C393 1.396 . S
C395 C390 1.499 . S
C395 H396 0.959 . S
C395 H397 0.960 . S
C395 H398 0.961 . S
H396 C395 0.959 . S
H397 C395 0.960 . S
H398 C395 0.961 . S
O399 Co374 1.967 . S
O399 C407 1.258 . S
O400 Co375 1.941 . S
O400 C407 1.266 . S
H401 C403 0.959 . S
H402 C403 0.961 . S
C403 C393 1.510 . S
C403 H401 0.959 . S
C403 H402 0.961 . S
C403 H404 0.960 . S
H404 C403 0.960 . S
H405 N385 0.862 . S
O406 Co374 1.920 . S
O406 C379 1.289 . S
C407 O399 1.258 . S
C407 O400 1.266 . S
Co408 O411 1.970 . S
Co408 N425 1.989 . S
Co408 O433 1.967 . S
Co408 O440 1.920 . S
Co409 O412 1.966 . S
Co409 N418 2.022 . S
Co409 N426 1.993 . S
Co409 O434 1.941 . S
C410 O411 1.258 . S
C410 O412 1.263 . S
O411 Co408 1.970 . S
O411 C410 1.258 . S
O412 Co409 1.966 . S
O412 C410 1.263 . S
C413 O414 1.235 . S
C413 O440 1.289 . S
O414 C413 1.235 . S
C415 C417 1.400 . S
C415 N418 1.351 . S
C415 C420 1.501 . S
C416 C417 1.387 . S
C416 N419 1.341 . S
C417 C415 1.400 . S
C417 C416 1.387 . S
N418 Co409 2.022 . S
N418 C415 1.351 . S
N418 N419 1.365 . S
N419 C416 1.341 . S
N419 N418 1.365 . S
N419 H439 0.862 . S
C420 C415 1.501 . S
C420 H421 0.961 . S
C420 H422 0.961 . S
C420 H423 0.960 . S
H421 C420 0.961 . S
H422 C420 0.961 . S
H423 C420 0.960 . S
C424 N425 1.342 . S
C424 C428 1.401 . S
C424 C429 1.499 . S
N425 Co408 1.989 . S
N425 C424 1.342 . S
N425 N426 1.388 . S
N426 Co409 1.993 . S
N426 N425 1.388 . S
N426 C427 1.346 . S
C427 N426 1.346 . S
C427 C428 1.396 . S
C427 C437 1.510 . S
C428 C424 1.401 . S
C428 C427 1.396 . S
C429 C424 1.499 . S
C429 H430 0.959 . S
C429 H431 0.960 . S
C429 H432 0.961 . S
H430 C429 0.959 . S
H431 C429 0.960 . S
H432 C429 0.961 . S
O433 Co408 1.967 . S
O433 C441 1.258 . S
O434 Co409 1.941 . S
O434 C441 1.266 . S
H435 C437 0.959 . S
H436 C437 0.961 . S
C437 C427 1.510 . S
C437 H435 0.959 . S
C437 H436 0.961 . S
C437 H438 0.960 . S
H438 C437 0.960 . S
H439 N419 0.862 . S
O440 Co408 1.920 . S
O440 C413 1.289 . S
C441 O433 1.258 . S
C441 O434 1.266 . S
Co442 O445 1.970 . S
Co442 N459 1.989 . S
Co442 O467 1.967 . S
Co442 O474 1.920 . S
Co443 O446 1.966 . S
Co443 N452 2.022 . S
Co443 N460 1.993 . S
Co443 O468 1.941 . S
C444 O445 1.258 . S
C444 O446 1.263 . S
O445 Co442 1.970 . S
O445 C444 1.258 . S
O446 Co443 1.966 . S
O446 C444 1.263 . S
C447 O448 1.235 . S
C447 O474 1.289 . S
O448 C447 1.235 . S
C449 C451 1.400 . S
C449 N452 1.351 . S
C449 C454 1.501 . S
C450 C451 1.387 . S
C450 N453 1.341 . S
C451 C449 1.400 . S
C451 C450 1.387 . S
N452 Co443 2.022 . S
N452 C449 1.351 . S
N452 N453 1.365 . S
N453 C450 1.341 . S
N453 N452 1.365 . S
N453 H473 0.862 . S
C454 C449 1.501 . S
C454 H455 0.961 . S
C454 H456 0.961 . S
C454 H457 0.960 . S
H455 C454 0.961 . S
H456 C454 0.961 . S
H457 C454 0.960 . S
C458 N459 1.342 . S
C458 C462 1.401 . S
C458 C463 1.499 . S
N459 Co442 1.989 . S
N459 C458 1.342 . S
N459 N460 1.388 . S
N460 Co443 1.993 . S
N460 N459 1.388 . S
N460 C461 1.346 . S
C461 N460 1.346 . S
C461 C462 1.396 . S
C461 C471 1.510 . S
C462 C458 1.401 . S
C462 C461 1.396 . S
C463 C458 1.499 . S
C463 H464 0.959 . S
C463 H465 0.960 . S
C463 H466 0.961 . S
H464 C463 0.959 . S
H465 C463 0.960 . S
H466 C463 0.961 . S
O467 Co442 1.967 . S
O467 C475 1.258 . S
O468 Co443 1.941 . S
O468 C475 1.266 . S
H469 C471 0.959 . S
H470 C471 0.961 . S
C471 C461 1.510 . S
C471 H469 0.959 . S
C471 H470 0.961 . S
C471 H472 0.960 . S
H472 C471 0.960 . S
H473 N453 0.862 . S
O474 Co442 1.920 . S
O474 C447 1.289 . S
C475 O467 1.258 . S
C475 O468 1.266 . S
Co476 O479 1.970 . S
Co476 N493 1.989 . S
Co476 O501 1.967 . S
Co476 O508 1.920 . S
Co477 O480 1.966 . S
Co477 N486 2.022 . S
Co477 N494 1.993 . S
Co477 O502 1.941 . S
C478 O479 1.258 . S
C478 O480 1.263 . S
O479 Co476 1.970 . S
O479 C478 1.258 . S
O480 Co477 1.966 . S
O480 C478 1.263 . S
C481 O482 1.235 . S
C481 O508 1.289 . S
O482 C481 1.235 . S
C483 C485 1.400 . S
C483 N486 1.351 . S
C483 C488 1.501 . S
C484 C485 1.387 . S
C484 N487 1.341 . S
C485 C483 1.400 . S
C485 C484 1.387 . S
N486 Co477 2.022 . S
N486 C483 1.351 . S
N486 N487 1.365 . S
N487 C484 1.341 . S
N487 N486 1.365 . S
N487 H507 0.862 . S
C488 C483 1.501 . S
C488 H489 0.961 . S
C488 H490 0.961 . S
C488 H491 0.960 . S
H489 C488 0.961 . S
H490 C488 0.961 . S
H491 C488 0.960 . S
C492 N493 1.342 . S
C492 C496 1.401 . S
C492 C497 1.499 . S
N493 Co476 1.989 . S
N493 C492 1.342 . S
N493 N494 1.388 . S
N494 Co477 1.993 . S
N494 N493 1.388 . S
N494 C495 1.346 . S
C495 N494 1.346 . S
C495 C496 1.396 . S
C495 C505 1.510 . S
C496 C492 1.401 . S
C496 C495 1.396 . S
C497 C492 1.499 . S
C497 H498 0.959 . S
C497 H499 0.960 . S
C497 H500 0.961 . S
H498 C497 0.959 . S
H499 C497 0.960 . S
H500 C497 0.961 . S
O501 Co476 1.967 . S
O501 C509 1.258 . S
O502 Co477 1.941 . S
O502 C509 1.266 . S
H503 C505 0.959 . S
H504 C505 0.961 . S
C505 C495 1.510 . S
C505 H503 0.959 . S
C505 H504 0.961 . S
C505 H506 0.960 . S
H506 C505 0.960 . S
H507 N487 0.862 . S
O508 Co476 1.920 . S
O508 C481 1.289 . S
C509 O501 1.258 . S
C509 O502 1.266 . S
Co510 O513 1.970 . S
Co510 N527 1.989 . S
Co510 O535 1.967 . S
Co510 O542 1.920 . S
Co511 O514 1.966 . S
Co511 N520 2.022 . S
Co511 N528 1.993 . S
Co511 O536 1.941 . S
C512 O513 1.258 . S
C512 O514 1.263 . S
O513 Co510 1.970 . S
O513 C512 1.258 . S
O514 Co511 1.966 . S
O514 C512 1.263 . S
C515 O516 1.235 . S
C515 O542 1.289 . S
O516 C515 1.235 . S
C517 C519 1.400 . S
C517 N520 1.351 . S
C517 C522 1.501 . S
C518 C519 1.387 . S
C518 N521 1.341 . S
C519 C517 1.400 . S
C519 C518 1.387 . S
N520 Co511 2.022 . S
N520 C517 1.351 . S
N520 N521 1.365 . S
N521 C518 1.341 . S
N521 N520 1.365 . S
N521 H541 0.862 . S
C522 C517 1.501 . S
C522 H523 0.961 . S
C522 H524 0.961 . S
C522 H525 0.960 . S
H523 C522 0.961 . S
H524 C522 0.961 . S
H525 C522 0.960 . S
C526 N527 1.342 . S
C526 C530 1.401 . S
C526 C531 1.499 . S
N527 Co510 1.989 . S
N527 C526 1.342 . S
N527 N528 1.388 . S
N528 Co511 1.993 . S
N528 N527 1.388 . S
N528 C529 1.346 . S
C529 N528 1.346 . S
C529 C530 1.396 . S
C529 C539 1.510 . S
C530 C526 1.401 . S
C530 C529 1.396 . S
C531 C526 1.499 . S
C531 H532 0.959 . S
C531 H533 0.960 . S
C531 H534 0.961 . S
H532 C531 0.959 . S
H533 C531 0.960 . S
H534 C531 0.961 . S
O535 Co510 1.967 . S
O535 C543 1.258 . S
O536 Co511 1.941 . S
O536 C543 1.266 . S
H537 C539 0.959 . S
H538 C539 0.961 . S
C539 C529 1.510 . S
C539 H537 0.959 . S
C539 H538 0.961 . S
C539 H540 0.960 . S
H540 C539 0.960 . S
H541 N521 0.862 . S
O542 Co510 1.920 . S
O542 C515 1.289 . S
C543 O535 1.258 . S
C543 O536 1.266 . S
H544 C552 0.929 . S
H545 C554 0.930 . S
H546 C556 0.930 . S
H547 C559 0.929 . S
H548 C562 0.930 . S
H549 C564 0.960 . S
H550 C564 0.960 . S
H551 C564 0.960 . S
C552 H544 0.929 . S
C552 C553 1.377 . S
C552 C554 1.384 . S
C553 C552 1.377 . S
C553 C559 1.390 . S
C554 H545 0.930 . S
C554 C552 1.384 . S
C554 C555 1.372 . S
C555 C554 1.372 . S
C555 C556 1.400 . S
C555 C560 1.490 . S
C556 H546 0.930 . S
C556 C555 1.400 . S
C556 C559 1.386 . S
H557 C573 0.930 . S
H558 C574 0.931 . S
C559 H547 0.929 . S
C559 C553 1.390 . S
C559 C556 1.386 . S
C560 C555 1.490 . S
C560 C562 1.395 . S
C560 C563 1.403 . S
H561 C567 0.930 . S
C562 H548 0.930 . S
C562 C560 1.395 . S
C562 C565 1.403 . S
C563 C560 1.403 . S
C563 C564 1.524 . S
C563 C567 1.400 . S
C564 H549 0.960 . S
C564 H550 0.960 . S
C564 H551 0.960 . S
C564 C563 1.524 . S
C565 C562 1.403 . S
C565 C566 1.392 . S
C565 C569 1.495 . S
C566 C565 1.392 . S
C566 C567 1.385 . S
C566 C568 1.478 . S
C567 H561 0.930 . S
C567 C563 1.400 . S
C567 C566 1.385 . S
C568 C566 1.478 . S
C568 C570 1.381 . S
C568 C574 1.383 . S
C569 C565 1.495 . S
C569 H575 0.959 . S
C569 H576 0.961 . S
C569 H577 0.960 . S
C570 C568 1.381 . S
C570 C571 1.394 . S
C570 H578 0.930 . S
C571 C570 1.394 . S
C571 C572 1.383 . S
C571 H579 0.929 . S
C572 C571 1.383 . S
C572 C573 1.377 . S
C573 H557 0.930 . S
C573 C572 1.377 . S
C573 C574 1.379 . S
C574 H558 0.931 . S
C574 C568 1.383 . S
C574 C573 1.379 . S
H575 C569 0.959 . S
H576 C569 0.961 . S
H577 C569 0.960 . S
H578 C570 0.930 . S
H579 C571 0.929 . S
H580 C588 0.929 . S
H581 C590 0.930 . S
H582 C592 0.930 . S
H583 C595 0.929 . S
H584 C598 0.930 . S
H585 C600 0.960 . S
H586 C600 0.960 . S
H587 C600 0.960 . S
C588 H580 0.929 . S
C588 C589 1.377 . S
C588 C590 1.384 . S
C589 C588 1.377 . S
C589 C595 1.390 . S
C590 H581 0.930 . S
C590 C588 1.384 . S
C590 C591 1.372 . S
C591 C590 1.372 . S
C591 C592 1.400 . S
C591 C596 1.490 . S
C592 H582 0.930 . S
C592 C591 1.400 . S
C592 C595 1.386 . S
H593 C609 0.930 . S
H594 C610 0.931 . S
C595 H583 0.929 . S
C595 C589 1.390 . S
C595 C592 1.386 . S
C596 C591 1.490 . S
C596 C598 1.395 . S
C596 C599 1.403 . S
H597 C603 0.930 . S
C598 H584 0.930 . S
C598 C596 1.395 . S
C598 C601 1.403 . S
C599 C596 1.403 . S
C599 C600 1.524 . S
C599 C603 1.400 . S
C600 H585 0.960 . S
C600 H586 0.960 . S
C600 H587 0.960 . S
C600 C599 1.524 . S
C601 C598 1.403 . S
C601 C602 1.392 . S
C601 C605 1.495 . S
C602 C601 1.392 . S
C602 C603 1.385 . S
C602 C604 1.478 . S
C603 H597 0.930 . S
C603 C599 1.400 . S
C603 C602 1.385 . S
C604 C602 1.478 . S
C604 C606 1.381 . S
C604 C610 1.383 . S
C605 C601 1.495 . S
C605 H611 0.959 . S
C605 H612 0.961 . S
C605 H613 0.960 . S
C606 C604 1.381 . S
C606 C607 1.394 . S
C606 H614 0.930 . S
C607 C606 1.394 . S
C607 C608 1.383 . S
C607 H615 0.929 . S
C608 C607 1.383 . S
C608 C609 1.377 . S
C609 H593 0.930 . S
C609 C608 1.377 . S
C609 C610 1.379 . S
C610 H594 0.931 . S
C610 C604 1.383 . S
C610 C609 1.379 . S
H611 C605 0.959 . S
H612 C605 0.961 . S
H613 C605 0.960 . S
H614 C606 0.930 . S
H615 C607 0.929 . S
H616 C624 0.929 . S
H617 C626 0.930 . S
H618 C628 0.930 . S
H619 C631 0.929 . S
H620 C634 0.930 . S
H621 C636 0.960 . S
H622 C636 0.960 . S
H623 C636 0.960 . S
C624 H616 0.929 . S
C624 C625 1.377 . S
C624 C626 1.384 . S
C625 C624 1.377 . S
C625 C631 1.390 . S
C626 H617 0.930 . S
C626 C624 1.384 . S
C626 C627 1.372 . S
C627 C626 1.372 . S
C627 C628 1.400 . S
C627 C632 1.490 . S
C628 H618 0.930 . S
C628 C627 1.400 . S
C628 C631 1.386 . S
H629 C645 0.930 . S
H630 C646 0.931 . S
C631 H619 0.929 . S
C631 C625 1.390 . S
C631 C628 1.386 . S
C632 C627 1.490 . S
C632 C634 1.395 . S
C632 C635 1.403 . S
H633 C639 0.930 . S
C634 H620 0.930 . S
C634 C632 1.395 . S
C634 C637 1.403 . S
C635 C632 1.403 . S
C635 C636 1.524 . S
C635 C639 1.400 . S
C636 H621 0.960 . S
C636 H622 0.960 . S
C636 H623 0.960 . S
C636 C635 1.524 . S
C637 C634 1.403 . S
C637 C638 1.392 . S
C637 C641 1.495 . S
C638 C637 1.392 . S
C638 C639 1.385 . S
C638 C640 1.478 . S
C639 H633 0.930 . S
C639 C635 1.400 . S
C639 C638 1.385 . S
C640 C638 1.478 . S
C640 C642 1.381 . S
C640 C646 1.383 . S
C641 C637 1.495 . S
C641 H647 0.959 . S
C641 H648 0.961 . S
C641 H649 0.960 . S
C642 C640 1.381 . S
C642 C643 1.394 . S
C642 H650 0.930 . S
C643 C642 1.394 . S
C643 C644 1.383 . S
C643 H651 0.929 . S
C644 C643 1.383 . S
C644 C645 1.377 . S
C645 H629 0.930 . S
C645 C644 1.377 . S
C645 C646 1.379 . S
C646 H630 0.931 . S
C646 C640 1.383 . S
C646 C645 1.379 . S
H647 C641 0.959 . S
H648 C641 0.961 . S
H649 C641 0.960 . S
H650 C642 0.930 . S
H651 C643 0.929 . S
H652 C660 0.929 . S
H653 C662 0.930 . S
H654 C664 0.930 . S
H655 C667 0.929 . S
H656 C670 0.930 . S
H657 C672 0.960 . S
H658 C672 0.960 . S
H659 C672 0.960 . S
C660 H652 0.929 . S
C660 C661 1.377 . S
C660 C662 1.384 . S
C661 C660 1.377 . S
C661 C667 1.390 . S
C662 H653 0.930 . S
C662 C660 1.384 . S
C662 C663 1.372 . S
C663 C662 1.372 . S
C663 C664 1.400 . S
C663 C668 1.490 . S
C664 H654 0.930 . S
C664 C663 1.400 . S
C664 C667 1.386 . S
H665 C681 0.930 . S
H666 C682 0.931 . S
C667 H655 0.929 . S
C667 C661 1.390 . S
C667 C664 1.386 . S
C668 C663 1.490 . S
C668 C670 1.395 . S
C668 C671 1.403 . S
H669 C675 0.930 . S
C670 H656 0.930 . S
C670 C668 1.395 . S
C670 C673 1.403 . S
C671 C668 1.403 . S
C671 C672 1.524 . S
C671 C675 1.400 . S
C672 H657 0.960 . S
C672 H658 0.960 . S
C672 H659 0.960 . S
C672 C671 1.524 . S
C673 C670 1.403 . S
C673 C674 1.392 . S
C673 C677 1.495 . S
C674 C673 1.392 . S
C674 C675 1.385 . S
C674 C676 1.478 . S
C675 H669 0.930 . S
C675 C671 1.400 . S
C675 C674 1.385 . S
C676 C674 1.478 . S
C676 C678 1.381 . S
C676 C682 1.383 . S
C677 C673 1.495 . S
C677 H683 0.959 . S
C677 H684 0.961 . S
C677 H685 0.960 . S
C678 C676 1.381 . S
C678 C679 1.394 . S
C678 H686 0.930 . S
C679 C678 1.394 . S
C679 C680 1.383 . S
C679 H687 0.929 . S
C680 C679 1.383 . S
C680 C681 1.377 . S
C681 H665 0.930 . S
C681 C680 1.377 . S
C681 C682 1.379 . S
C682 H666 0.931 . S
C682 C676 1.383 . S
C682 C681 1.379 . S
H683 C677 0.959 . S
H684 C677 0.961 . S
H685 C677 0.960 . S
H686 C678 0.930 . S
H687 C679 0.929 . S
H688 C696 0.929 . S
H689 C698 0.930 . S
H690 C700 0.930 . S
H691 C703 0.929 . S
H692 C706 0.930 . S
H693 C708 0.960 . S
H694 C708 0.960 . S
H695 C708 0.960 . S
C696 H688 0.929 . S
C696 C697 1.377 . S
C696 C698 1.384 . S
C697 C696 1.377 . S
C697 C703 1.390 . S
C698 H689 0.930 . S
C698 C696 1.384 . S
C698 C699 1.372 . S
C699 C698 1.372 . S
C699 C700 1.400 . S
C699 C704 1.490 . S
C700 H690 0.930 . S
C700 C699 1.400 . S
C700 C703 1.386 . S
H701 C717 0.930 . S
H702 C718 0.931 . S
C703 H691 0.929 . S
C703 C697 1.390 . S
C703 C700 1.386 . S
C704 C699 1.490 . S
C704 C706 1.395 . S
C704 C707 1.403 . S
H705 C711 0.930 . S
C706 H692 0.930 . S
C706 C704 1.395 . S
C706 C709 1.403 . S
C707 C704 1.403 . S
C707 C708 1.524 . S
C707 C711 1.400 . S
C708 H693 0.960 . S
C708 H694 0.960 . S
C708 H695 0.960 . S
C708 C707 1.524 . S
C709 C706 1.403 . S
C709 C710 1.392 . S
C709 C713 1.495 . S
C710 C709 1.392 . S
C710 C711 1.385 . S
C710 C712 1.478 . S
C711 H705 0.930 . S
C711 C707 1.400 . S
C711 C710 1.385 . S
C712 C710 1.478 . S
C712 C714 1.381 . S
C712 C718 1.383 . S
C713 C709 1.495 . S
C713 H719 0.959 . S
C713 H720 0.961 . S
C713 H721 0.960 . S
C714 C712 1.381 . S
C714 C715 1.394 . S
C714 H722 0.930 . S
C715 C714 1.394 . S
C715 C716 1.383 . S
C715 H723 0.929 . S
C716 C715 1.383 . S
C716 C717 1.377 . S
C717 H701 0.930 . S
C717 C716 1.377 . S
C717 C718 1.379 . S
C718 H702 0.931 . S
C718 C712 1.383 . S
C718 C717 1.379 . S
H719 C713 0.959 . S
H720 C713 0.961 . S
H721 C713 0.960 . S
H722 C714 0.930 . S
H723 C715 0.929 . S
H724 C732 0.929 . S
H725 C734 0.930 . S
H726 C736 0.930 . S
H727 C739 0.929 . S
H728 C742 0.930 . S
H729 C744 0.960 . S
H730 C744 0.960 . S
H731 C744 0.960 . S
C732 H724 0.929 . S
C732 C733 1.377 . S
C732 C734 1.384 . S
C733 C732 1.377 . S
C733 C739 1.390 . S
C734 H725 0.930 . S
C734 C732 1.384 . S
C734 C735 1.372 . S
C735 C734 1.372 . S
C735 C736 1.400 . S
C735 C740 1.490 . S
C736 H726 0.930 . S
C736 C735 1.400 . S
C736 C739 1.386 . S
H737 C753 0.930 . S
H738 C754 0.931 . S
C739 H727 0.929 . S
C739 C733 1.390 . S
C739 C736 1.386 . S
C740 C735 1.490 . S
C740 C742 1.395 . S
C740 C743 1.403 . S
H741 C747 0.930 . S
C742 H728 0.930 . S
C742 C740 1.395 . S
C742 C745 1.403 . S
C743 C740 1.403 . S
C743 C744 1.524 . S
C743 C747 1.400 . S
C744 H729 0.960 . S
C744 H730 0.960 . S
C744 H731 0.960 . S
C744 C743 1.524 . S
C745 C742 1.403 . S
C745 C746 1.392 . S
C745 C749 1.495 . S
C746 C745 1.392 . S
C746 C747 1.385 . S
C746 C748 1.478 . S
C747 H741 0.930 . S
C747 C743 1.400 . S
C747 C746 1.385 . S
C748 C746 1.478 . S
C748 C750 1.381 . S
C748 C754 1.383 . S
C749 C745 1.495 . S
C749 H755 0.959 . S
C749 H756 0.961 . S
C749 H757 0.960 . S
C750 C748 1.381 . S
C750 C751 1.394 . S
C750 H758 0.930 . S
C751 C750 1.394 . S
C751 C752 1.383 . S
C751 H759 0.929 . S
C752 C751 1.383 . S
C752 C753 1.377 . S
C753 H737 0.930 . S
C753 C752 1.377 . S
C753 C754 1.379 . S
C754 H738 0.931 . S
C754 C748 1.383 . S
C754 C753 1.379 . S
H755 C749 0.959 . S
H756 C749 0.961 . S
H757 C749 0.960 . S
H758 C750 0.930 . S
H759 C751 0.929 . S
H760 C768 0.929 . S
H761 C770 0.930 . S
H762 C772 0.930 . S
H763 C775 0.929 . S
H764 C778 0.930 . S
H765 C780 0.960 . S
H766 C780 0.960 . S
H767 C780 0.960 . S
C768 H760 0.929 . S
C768 C769 1.377 . S
C768 C770 1.384 . S
C769 C768 1.377 . S
C769 C775 1.390 . S
C770 H761 0.930 . S
C770 C768 1.384 . S
C770 C771 1.372 . S
C771 C770 1.372 . S
C771 C772 1.400 . S
C771 C776 1.490 . S
C772 H762 0.930 . S
C772 C771 1.400 . S
C772 C775 1.386 . S
H773 C789 0.930 . S
H774 C790 0.931 . S
C775 H763 0.929 . S
C775 C769 1.390 . S
C775 C772 1.386 . S
C776 C771 1.490 . S
C776 C778 1.395 . S
C776 C779 1.403 . S
H777 C783 0.930 . S
C778 H764 0.930 . S
C778 C776 1.395 . S
C778 C781 1.403 . S
C779 C776 1.403 . S
C779 C780 1.524 . S
C779 C783 1.400 . S
C780 H765 0.960 . S
C780 H766 0.960 . S
C780 H767 0.960 . S
C780 C779 1.524 . S
C781 C778 1.403 . S
C781 C782 1.392 . S
C781 C785 1.495 . S
C782 C781 1.392 . S
C782 C783 1.385 . S
C782 C784 1.478 . S
C783 H777 0.930 . S
C783 C779 1.400 . S
C783 C782 1.385 . S
C784 C782 1.478 . S
C784 C786 1.381 . S
C784 C790 1.383 . S
C785 C781 1.495 . S
C785 H791 0.959 . S
C785 H792 0.961 . S
C785 H793 0.960 . S
C786 C784 1.381 . S
C786 C787 1.394 . S
C786 H794 0.930 . S
C787 C786 1.394 . S
C787 C788 1.383 . S
C787 H795 0.929 . S
C788 C787 1.383 . S
C788 C789 1.377 . S
C789 H773 0.930 . S
C789 C788 1.377 . S
C789 C790 1.379 . S
C790 H774 0.931 . S
C790 C784 1.383 . S
C790 C789 1.379 . S
H791 C785 0.959 . S
H792 C785 0.961 . S
H793 C785 0.960 . S
H794 C786 0.930 . S
H795 C787 0.929 . S
H796 C804 0.929 . S
H797 C806 0.930 . S
H798 C808 0.930 . S
H799 C811 0.929 . S
H800 C814 0.930 . S
H801 C816 0.960 . S
H802 C816 0.960 . S
H803 C816 0.960 . S
C804 H796 0.929 . S
C804 C805 1.377 . S
C804 C806 1.384 . S
C805 C804 1.377 . S
C805 C811 1.390 . S
C806 H797 0.930 . S
C806 C804 1.384 . S
C806 C807 1.372 . S
C807 C806 1.372 . S
C807 C808 1.400 . S
C807 C812 1.490 . S
C808 H798 0.930 . S
C808 C807 1.400 . S
C808 C811 1.386 . S
H809 C825 0.930 . S
H810 C826 0.931 . S
C811 H799 0.929 . S
C811 C805 1.390 . S
C811 C808 1.386 . S
C812 C807 1.490 . S
C812 C814 1.395 . S
C812 C815 1.403 . S
H813 C819 0.930 . S
C814 H800 0.930 . S
C814 C812 1.395 . S
C814 C817 1.403 . S
C815 C812 1.403 . S
C815 C816 1.524 . S
C815 C819 1.400 . S
C816 H801 0.960 . S
C816 H802 0.960 . S
C816 H803 0.960 . S
C816 C815 1.524 . S
C817 C814 1.403 . S
C817 C818 1.392 . S
C817 C821 1.495 . S
C818 C817 1.392 . S
C818 C819 1.385 . S
C818 C820 1.478 . S
C819 H813 0.930 . S
C819 C815 1.400 . S
C819 C818 1.385 . S
C820 C818 1.478 . S
C820 C822 1.381 . S
C820 C826 1.383 . S
C821 C817 1.495 . S
C821 H827 0.959 . S
C821 H828 0.961 . S
C821 H829 0.960 . S
C822 C820 1.381 . S
C822 C823 1.394 . S
C822 H830 0.930 . S
C823 C822 1.394 . S
C823 C824 1.383 . S
C823 H831 0.929 . S
C824 C823 1.383 . S
C824 C825 1.377 . S
C825 H809 0.930 . S
C825 C824 1.377 . S
C825 C826 1.379 . S
C826 H810 0.931 . S
C826 C820 1.383 . S
C826 C825 1.379 . S
H827 C821 0.959 . S
H828 C821 0.961 . S
H829 C821 0.960 . S
H830 C822 0.930 . S
H831 C823 0.929 . S
H832 C840 0.929 . S
H833 C842 0.930 . S
H834 C844 0.930 . S
H835 C847 0.929 . S
H836 C850 0.930 . S
H837 C852 0.960 . S
H838 C852 0.960 . S
H839 C852 0.960 . S
C840 H832 0.929 . S
C840 C841 1.377 . S
C840 C842 1.384 . S
C841 C840 1.377 . S
C841 C847 1.390 . S
C842 H833 0.930 . S
C842 C840 1.384 . S
C842 C843 1.372 . S
C843 C842 1.372 . S
C843 C844 1.400 . S
C843 C848 1.490 . S
C844 H834 0.930 . S
C844 C843 1.400 . S
C844 C847 1.386 . S
H845 C861 0.930 . S
H846 C862 0.931 . S
C847 H835 0.929 . S
C847 C841 1.390 . S
C847 C844 1.386 . S
C848 C843 1.490 . S
C848 C850 1.395 . S
C848 C851 1.403 . S
H849 C855 0.930 . S
C850 H836 0.930 . S
C850 C848 1.395 . S
C850 C853 1.403 1_554 S
C851 C848 1.403 . S
C851 C852 1.524 . S
C851 C855 1.400 1_554 S
C852 H837 0.960 . S
C852 H838 0.960 . S
C852 H839 0.960 . S
C852 C851 1.524 . S
C853 C850 1.403 1_556 S
C853 C854 1.392 . S
C853 C857 1.495 . S
C854 C853 1.392 . S
C854 C855 1.385 . S
C854 C856 1.478 . S
C855 H849 0.930 . S
C855 C851 1.400 1_556 S
C855 C854 1.385 . S
C856 C854 1.478 . S
C856 C858 1.381 . S
C856 C862 1.383 . S
C857 C853 1.495 . S
C857 H863 0.959 . S
C857 H864 0.961 . S
C857 H865 0.960 . S
C858 C856 1.381 . S
C858 C859 1.394 . S
C858 H866 0.930 . S
C859 C858 1.394 . S
C859 C860 1.383 . S
C859 H867 0.929 . S
C860 C859 1.383 . S
C860 C861 1.377 . S
C861 H845 0.930 . S
C861 C860 1.377 . S
C861 C862 1.379 . S
C862 H846 0.931 . S
C862 C856 1.383 . S
C862 C861 1.379 . S
H863 C857 0.959 . S
H864 C857 0.961 . S
H865 C857 0.960 . S
H866 C858 0.930 . S
H867 C859 0.929 . S
H868 C876 0.929 . S
H869 C878 0.930 . S
H870 C880 0.930 . S
H871 C883 0.929 . S
H872 C886 0.930 . S
H873 C888 0.960 . S
H874 C888 0.960 . S
H875 C888 0.960 . S
C876 H868 0.929 . S
C876 C877 1.377 . S
C876 C878 1.384 . S
C877 C876 1.377 . S
C877 C883 1.390 . S
C878 H869 0.930 . S
C878 C876 1.384 . S
C878 C879 1.372 . S
C879 C878 1.372 . S
C879 C880 1.400 . S
C879 C884 1.490 . S
C880 H870 0.930 . S
C880 C879 1.400 . S
C880 C883 1.386 . S
H881 C897 0.930 . S
H882 C898 0.931 . S
C883 H871 0.929 . S
C883 C877 1.390 . S
C883 C880 1.386 . S
C884 C879 1.490 . S
C884 C886 1.395 . S
C884 C887 1.403 . S
H885 C891 0.930 . S
C886 H872 0.930 . S
C886 C884 1.395 . S
C886 C889 1.409 . S
C887 C884 1.403 . S
C887 C888 1.524 . S
C887 C891 1.400 1_554 S
C888 H873 0.960 . S
C888 H874 0.960 . S
C888 H875 0.960 . S
C888 C887 1.524 . S
C889 C886 1.409 . S
C889 C890 1.389 1_554 S
C889 C893 1.494 1_554 S
C890 C889 1.389 1_556 S
C890 C891 1.385 . S
C890 C892 1.478 . S
C891 H885 0.930 . S
C891 C887 1.400 1_556 S
C891 C890 1.385 . S
C892 C890 1.478 . S
C892 C894 1.381 . S
C892 C898 1.383 . S
C893 C889 1.494 1_556 S
C893 H899 0.959 1_556 S
C893 H900 0.961 . S
C893 H901 0.960 . S
C894 C892 1.381 . S
C894 C895 1.394 . S
C894 H902 0.930 . S
C895 C894 1.394 . S
C895 C896 1.383 . S
C895 H903 0.929 . S
C896 C895 1.383 . S
C896 C897 1.377 . S
C897 H881 0.930 . S
C897 C896 1.377 . S
C897 C898 1.379 . S
C898 H882 0.931 . S
C898 C892 1.383 . S
C898 C897 1.379 . S
H899 C893 0.959 1_554 S
H900 C893 0.961 . S
H901 C893 0.960 . S
H902 C894 0.930 . S
H903 C895 0.929 . S
H904 C912 0.929 . S
H905 C914 0.930 . S
H906 C916 0.930 . S
H907 C919 0.929 . S
H908 C922 0.930 . S
H909 C924 0.960 . S
H910 C924 0.960 . S
H911 C924 0.960 . S
C912 H904 0.929 . S
C912 C913 1.377 . S
C912 C914 1.384 . S
C913 C912 1.377 . S
C913 C919 1.390 . S
C914 H905 0.930 . S
C914 C912 1.384 . S
C914 C915 1.372 . S
C915 C914 1.372 . S
C915 C916 1.400 . S
C915 C920 1.490 . S
C916 H906 0.930 . S
C916 C915 1.400 . S
C916 C919 1.386 . S
H917 C933 0.930 . S
H918 C934 0.931 . S
C919 H907 0.929 . S
C919 C913 1.390 . S
C919 C916 1.386 . S
C920 C915 1.490 . S
C920 C922 1.395 . S
C920 C923 1.403 . S
H921 C927 0.930 . S
C922 H908 0.930 . S
C922 C920 1.395 . S
C922 C925 1.403 1_554 S
C923 C920 1.403 . S
C923 C924 1.524 . S
C923 C927 1.400 1_554 S
C924 H909 0.960 . S
C924 H910 0.960 . S
C924 H911 0.960 . S
C924 C923 1.524 . S
C925 C922 1.403 1_556 S
C925 C926 1.392 . S
C925 C929 1.495 . S
C926 C925 1.392 . S
C926 C927 1.385 . S
C926 C928 1.478 . S
C927 H921 0.930 . S
C927 C923 1.400 1_556 S
C927 C926 1.385 . S
C928 C926 1.478 . S
C928 C930 1.381 . S
C928 C934 1.383 . S
C929 C925 1.495 . S
C929 H935 0.959 . S
C929 H936 0.961 . S
C929 H937 0.960 . S
C930 C928 1.381 . S
C930 C931 1.394 . S
C930 H938 0.930 . S
C931 C930 1.394 . S
C931 C932 1.383 . S
C931 H939 0.929 . S
C932 C931 1.383 . S
C932 C933 1.377 . S
C933 H917 0.930 . S
C933 C932 1.377 . S
C933 C934 1.379 . S
C934 H918 0.931 . S
C934 C928 1.383 . S
C934 C933 1.379 . S
H935 C929 0.959 . S
H936 C929 0.961 . S
H937 C929 0.960 . S
H938 C930 0.930 . S
H939 C931 0.929 . S
H940 C948 0.929 . S
H941 C950 0.930 . S
H942 C952 0.930 . S
H943 C955 0.929 . S
H944 C958 0.930 . S
H945 C960 0.960 . S
H946 C960 0.960 . S
H947 C960 0.960 . S
C948 H940 0.929 . S
C948 C949 1.377 . S
C948 C950 1.384 . S
C949 C948 1.377 . S
C949 C955 1.390 . S
C950 H941 0.930 . S
C950 C948 1.384 . S
C950 C951 1.372 . S
C951 C950 1.372 . S
C951 C952 1.400 . S
C951 C956 1.490 . S
C952 H942 0.930 . S
C952 C951 1.400 . S
C952 C955 1.386 . S
H953 C969 0.930 . S
H954 C970 0.931 . S
C955 H943 0.929 . S
C955 C949 1.390 . S
C955 C952 1.386 . S
C956 C951 1.490 . S
C956 C958 1.395 . S
C956 C959 1.403 . S
H957 C963 0.930 . S
C958 H944 0.930 . S
C958 C956 1.395 . S
C958 C961 1.403 1_554 S
C959 C956 1.403 . S
C959 C960 1.524 . S
C959 C963 1.400 1_554 S
C960 H945 0.960 . S
C960 H946 0.960 . S
C960 H947 0.960 . S
C960 C959 1.524 . S
C961 C958 1.403 1_556 S
C961 C962 1.392 . S
C961 C965 1.495 . S
C962 C961 1.392 . S
C962 C963 1.385 . S
C962 C964 1.478 . S
C963 H957 0.930 . S
C963 C959 1.400 1_556 S
C963 C962 1.385 . S
C964 C962 1.478 . S
C964 C966 1.381 . S
C964 C970 1.383 . S
C965 C961 1.495 . S
C965 H971 0.959 . S
C965 H972 0.961 . S
C965 H973 0.960 . S
C966 C964 1.381 . S
C966 C967 1.394 . S
C966 H974 0.930 . S
C967 C966 1.394 . S
C967 C968 1.383 . S
C967 H975 0.929 . S
C968 C967 1.383 . S
C968 C969 1.377 . S
C969 H953 0.930 . S
C969 C968 1.377 . S
C969 C970 1.379 . S
C970 H954 0.931 . S
C970 C964 1.383 . S
C970 C969 1.379 . S
H971 C965 0.959 . S
H972 C965 0.961 . S
H973 C965 0.960 . S
H974 C966 0.930 . S
H975 C967 0.929 . S
H976 C984 0.929 . S
H977 C986 0.930 . S
H978 C988 0.930 . S
H979 C991 0.929 . S
H980 C994 0.930 . S
H981 C996 0.960 . S
H982 C996 0.960 . S
H983 C996 0.960 . S
C984 H976 0.929 . S
C984 C985 1.377 . S
C984 C986 1.384 . S
C985 C984 1.377 . S
C985 C991 1.390 . S
C986 H977 0.930 . S
C986 C984 1.384 . S
C986 C987 1.372 . S
C987 C986 1.372 . S
C987 C988 1.400 . S
C987 C992 1.490 . S
C988 H978 0.930 . S
C988 C987 1.400 . S
C988 C991 1.386 . S
H989 C1005 0.930 . S
H990 C1006 0.931 . S
C991 H979 0.929 . S
C991 C985 1.390 . S
C991 C988 1.386 . S
C992 C987 1.490 . S
C992 C994 1.395 . S
C992 C995 1.403 . S
H993 C999 0.930 . S
C994 H980 0.930 . S
C994 C992 1.395 . S
C994 C997 1.403 1_554 S
C995 C992 1.403 . S
C995 C996 1.524 . S
C995 C999 1.400 1_554 S
C996 H981 0.960 . S
C996 H982 0.960 . S
C996 H983 0.960 . S
C996 C995 1.524 . S
C997 C994 1.403 1_556 S
C997 C998 1.392 . S
C997 C1001 1.495 . S
C998 C997 1.392 . S
C998 C999 1.385 . S
C998 C1000 1.478 . S
C999 H993 0.930 . S
C999 C995 1.400 1_556 S
C999 C998 1.385 . S
C1000 C998 1.478 . S
C1000 C1002 1.381 . S
C1000 C1006 1.383 . S
C1001 C997 1.495 . S
C1001 H1007 0.959 . S
C1001 H1008 0.961 . S
C1001 H1009 0.960 . S
C1002 C1000 1.381 . S
C1002 C1003 1.394 . S
C1002 H1010 0.930 . S
C1003 C1002 1.394 . S
C1003 C1004 1.383 . S
C1003 H1011 0.929 . S
C1004 C1003 1.383 . S
C1004 C1005 1.377 . S
C1005 H989 0.930 . S
C1005 C1004 1.377 . S
C1005 C1006 1.379 . S
C1006 H990 0.931 . S
C1006 C1000 1.383 . S
C1006 C1005 1.379 . S
H1007 C1001 0.959 . S
H1008 C1001 0.961 . S
H1009 C1001 0.960 . S
H1010 C1002 0.930 . S
H1011 C1003 0.929 . S
H1012 C1020 0.929 . S
H1013 C1022 0.930 . S
H1014 C1024 0.930 . S
H1015 C1027 0.929 . S
H1016 C1030 0.930 . S
H1017 C1032 0.960 1_556 S
H1018 C1032 0.960 . S
H1019 C1032 0.960 . S
C1020 H1012 0.929 . S
C1020 C1021 1.377 . S
C1020 C1022 1.384 . S
C1021 C1020 1.377 . S
C1021 C1027 1.390 . S
C1022 H1013 0.930 . S
C1022 C1020 1.384 . S
C1022 C1023 1.372 . S
C1023 C1022 1.372 . S
C1023 C1024 1.400 . S
C1023 C1028 1.490 . S
C1024 H1014 0.930 . S
C1024 C1023 1.400 . S
C1024 C1027 1.386 . S
H1025 C1041 0.930 . S
H1026 C1042 0.931 . S
C1027 H1015 0.929 . S
C1027 C1021 1.390 . S
C1027 C1024 1.386 . S
C1028 C1023 1.490 . S
C1028 C1030 1.395 . S
C1028 C1031 1.401 1_554 S
H1029 C1035 0.930 . S
C1030 H1016 0.930 . S
C1030 C1028 1.395 . S
C1030 C1033 1.403 1_554 S
C1031 C1028 1.401 1_556 S
C1031 C1032 1.523 1_556 S
C1031 C1035 1.403 . S
C1032 H1017 0.960 1_554 S
C1032 H1018 0.960 . S
C1032 H1019 0.960 . S
C1032 C1031 1.523 1_554 S
C1033 C1030 1.403 1_556 S
C1033 C1034 1.392 . S
C1033 C1037 1.495 . S
C1034 C1033 1.392 . S
C1034 C1035 1.385 . S
C1034 C1036 1.478 . S
C1035 H1029 0.930 . S
C1035 C1031 1.403 . S
C1035 C1034 1.385 . S
C1036 C1034 1.478 . S
C1036 C1038 1.381 . S
C1036 C1042 1.383 . S
C1037 C1033 1.495 . S
C1037 H1043 0.959 . S
C1037 H1044 0.961 . S
C1037 H1045 0.960 . S
C1038 C1036 1.381 . S
C1038 C1039 1.394 . S
C1038 H1046 0.930 . S
C1039 C1038 1.394 . S
C1039 C1040 1.383 . S
C1039 H1047 0.929 . S
C1040 C1039 1.383 . S
C1040 C1041 1.377 . S
C1041 H1025 0.930 . S
C1041 C1040 1.377 . S
C1041 C1042 1.379 . S
C1042 H1026 0.931 . S
C1042 C1036 1.383 . S
C1042 C1041 1.379 . S
H1043 C1037 0.959 . S
H1044 C1037 0.961 . S
H1045 C1037 0.960 . S
H1046 C1038 0.930 . S
H1047 C1039 0.929 . S
H1048 C1056 0.929 . S
H1049 C1058 0.930 . S
H1050 C1060 0.930 . S
H1051 C1063 0.929 . S
H1052 C1066 0.930 . S
H1053 C1068 0.960 1_556 S
H1054 C1068 0.960 . S
H1055 C1068 0.960 . S
C1056 H1048 0.929 . S
C1056 C1057 1.377 . S
C1056 C1058 1.384 . S
C1057 C1056 1.377 . S
C1057 C1063 1.390 . S
C1058 H1049 0.930 . S
C1058 C1056 1.384 . S
C1058 C1059 1.372 . S
C1059 C1058 1.372 . S
C1059 C1060 1.400 . S
C1059 C1064 1.490 . S
C1060 H1050 0.930 . S
C1060 C1059 1.400 . S
C1060 C1063 1.386 . S
H1061 C1077 0.930 . S
H1062 C1078 0.931 . S
C1063 H1051 0.929 . S
C1063 C1057 1.390 . S
C1063 C1060 1.386 . S
C1064 C1059 1.490 . S
C1064 C1066 1.395 . S
C1064 C1067 1.402 1_554 S
H1065 C1071 0.930 . S
C1066 H1052 0.930 . S
C1066 C1064 1.395 . S
C1066 C1069 1.403 1_554 S
C1067 C1064 1.402 1_556 S
C1067 C1068 1.523 1_556 S
C1067 C1071 1.401 . S
C1068 H1053 0.960 1_554 S
C1068 H1054 0.960 . S
C1068 H1055 0.960 . S
C1068 C1067 1.523 1_554 S
C1069 C1066 1.403 1_556 S
C1069 C1070 1.392 . S
C1069 C1073 1.495 . S
C1070 C1069 1.392 . S
C1070 C1071 1.385 . S
C1070 C1072 1.478 . S
C1071 H1065 0.930 . S
C1071 C1067 1.401 . S
C1071 C1070 1.385 . S
C1072 C1070 1.478 . S
C1072 C1074 1.381 . S
C1072 C1078 1.383 . S
C1073 C1069 1.495 . S
C1073 H1079 0.959 . S
C1073 H1080 0.961 . S
C1073 H1081 0.960 . S
C1074 C1072 1.381 . S
C1074 C1075 1.394 . S
C1074 H1082 0.930 . S
C1075 C1074 1.394 . S
C1075 C1076 1.383 . S
C1075 H1083 0.929 . S
C1076 C1075 1.383 . S
C1076 C1077 1.377 . S
C1077 H1061 0.930 . S
C1077 C1076 1.377 . S
C1077 C1078 1.379 . S
C1078 H1062 0.931 . S
C1078 C1072 1.383 . S
C1078 C1077 1.379 . S
H1079 C1073 0.959 . S
H1080 C1073 0.961 . S
H1081 C1073 0.960 . S
H1082 C1074 0.930 . S
H1083 C1075 0.929 . S
H1084 C1092 0.929 . S
H1085 C1094 0.930 . S
H1086 C1096 0.930 . S
H1087 C1099 0.929 . S
H1088 C1102 0.930 . S
H1089 C1104 0.960 . S
H1090 C1104 0.960 . S
H1091 C1104 0.960 . S
C1092 H1084 0.929 . S
C1092 C1093 1.377 . S
C1092 C1094 1.384 . S
C1093 C1092 1.377 . S
C1093 C1099 1.390 . S
C1094 H1085 0.930 . S
C1094 C1092 1.384 . S
C1094 C1095 1.372 . S
C1095 C1094 1.372 . S
C1095 C1096 1.400 . S
C1095 C1100 1.490 . S
C1096 H1086 0.930 . S
C1096 C1095 1.400 . S
C1096 C1099 1.386 . S
H1097 C1113 0.930 . S
H1098 C1114 0.931 . S
C1099 H1087 0.929 . S
C1099 C1093 1.390 . S
C1099 C1096 1.386 . S
C1100 C1095 1.490 . S
C1100 C1102 1.395 . S
C1100 C1103 1.403 . S
H1101 C1107 0.930 . S
C1102 H1088 0.930 . S
C1102 C1100 1.395 . S
C1102 C1105 1.403 1_554 S
C1103 C1100 1.403 . S
C1103 C1104 1.524 . S
C1103 C1107 1.400 1_554 S
C1104 H1089 0.960 . S
C1104 H1090 0.960 . S
C1104 H1091 0.960 . S
C1104 C1103 1.524 . S
C1105 C1102 1.403 1_556 S
C1105 C1106 1.392 . S
C1105 C1109 1.495 . S
C1106 C1105 1.392 . S
C1106 C1107 1.385 . S
C1106 C1108 1.478 . S
C1107 H1101 0.930 . S
C1107 C1103 1.400 1_556 S
C1107 C1106 1.385 . S
C1108 C1106 1.478 . S
C1108 C1110 1.381 . S
C1108 C1114 1.383 . S
C1109 C1105 1.495 . S
C1109 H1115 0.959 . S
C1109 H1116 0.961 . S
C1109 H1117 0.960 . S
C1110 C1108 1.381 . S
C1110 C1111 1.394 . S
C1110 H1118 0.930 . S
C1111 C1110 1.394 . S
C1111 C1112 1.383 . S
C1111 H1119 0.929 . S
C1112 C1111 1.383 . S
C1112 C1113 1.377 . S
C1113 H1097 0.930 . S
C1113 C1112 1.377 . S
C1113 C1114 1.379 . S
C1114 H1098 0.931 . S
C1114 C1108 1.383 . S
C1114 C1113 1.379 . S
H1115 C1109 0.959 . S
H1116 C1109 0.961 . S
H1117 C1109 0.960 . S
H1118 C1110 0.930 . S
H1119 C1111 0.929 . S
H1120 C1128 0.929 . S
H1121 C1130 0.930 . S
H1122 C1132 0.930 . S
H1123 C1135 0.929 . S
H1124 C1138 0.930 . S
H1125 C1140 0.960 . S
H1126 C1140 0.960 . S
H1127 C1140 0.960 . S
C1128 H1120 0.929 . S
C1128 C1129 1.377 . S
C1128 C1130 1.384 . S
C1129 C1128 1.377 . S
C1129 C1135 1.390 . S
C1130 H1121 0.930 . S
C1130 C1128 1.384 . S
C1130 C1131 1.372 . S
C1131 C1130 1.372 . S
C1131 C1132 1.400 . S
C1131 C1136 1.490 . S
C1132 H1122 0.930 . S
C1132 C1131 1.400 . S
C1132 C1135 1.386 . S
H1133 C1149 0.930 . S
H1134 C1150 0.931 . S
C1135 H1123 0.929 . S
C1135 C1129 1.390 . S
C1135 C1132 1.386 . S
C1136 C1131 1.490 . S
C1136 C1138 1.395 . S
C1136 C1139 1.403 . S
H1137 C1143 0.930 . S
C1138 H1124 0.930 . S
C1138 C1136 1.395 . S
C1138 C1141 1.403 . S
C1139 C1136 1.403 . S
C1139 C1140 1.524 . S
C1139 C1143 1.400 . S
C1140 H1125 0.960 . S
C1140 H1126 0.960 . S
C1140 H1127 0.960 . S
C1140 C1139 1.524 . S
C1141 C1138 1.403 . S
C1141 C1142 1.392 . S
C1141 C1145 1.495 . S
C1142 C1141 1.392 . S
C1142 C1143 1.385 . S
C1142 C1144 1.478 . S
C1143 H1137 0.930 . S
C1143 C1139 1.400 . S
C1143 C1142 1.385 . S
C1144 C1142 1.478 . S
C1144 C1146 1.381 . S
C1144 C1150 1.383 . S
C1145 C1141 1.495 . S
C1145 H1151 0.959 . S
C1145 H1152 0.961 . S
C1145 H1153 0.960 . S
C1146 C1144 1.381 . S
C1146 C1147 1.394 . S
C1146 H1154 0.930 . S
C1147 C1146 1.394 . S
C1147 C1148 1.383 . S
C1147 H1155 0.929 . S
C1148 C1147 1.383 . S
C1148 C1149 1.377 . S
C1149 H1133 0.930 . S
C1149 C1148 1.377 . S
C1149 C1150 1.379 . S
C1150 H1134 0.931 . S
C1150 C1144 1.383 . S
C1150 C1149 1.379 . S
H1151 C1145 0.959 . S
H1152 C1145 0.961 . S
H1153 C1145 0.960 . S
H1154 C1146 0.930 . S
H1155 C1147 0.929 . S
H1156 C1164 0.929 . S
H1157 C1166 0.930 . S
H1158 C1168 0.930 . S
H1159 C1171 0.929 . S
H1160 C1174 0.930 . S
H1161 C1176 0.960 . S
H1162 C1176 0.960 . S
H1163 C1176 0.960 . S
C1164 H1156 0.929 . S
C1164 C1165 1.377 . S
C1164 C1166 1.384 . S
C1165 C1164 1.377 . S
C1165 C1171 1.390 . S
C1166 H1157 0.930 . S
C1166 C1164 1.384 . S
C1166 C1167 1.372 . S
C1167 C1166 1.372 . S
C1167 C1168 1.400 . S
C1167 C1172 1.490 . S
C1168 H1158 0.930 . S
C1168 C1167 1.400 . S
C1168 C1171 1.386 . S
H1169 C1185 0.930 . S
H1170 C1186 0.931 . S
C1171 H1159 0.929 . S
C1171 C1165 1.390 . S
C1171 C1168 1.386 . S
C1172 C1167 1.490 . S
C1172 C1174 1.395 . S
C1172 C1175 1.403 . S
H1173 C1179 0.930 . S
C1174 H1160 0.930 . S
C1174 C1172 1.395 . S
C1174 C1177 1.403 . S
C1175 C1172 1.403 . S
C1175 C1176 1.524 . S
C1175 C1179 1.400 . S
C1176 H1161 0.960 . S
C1176 H1162 0.960 . S
C1176 H1163 0.960 . S
C1176 C1175 1.524 . S
C1177 C1174 1.403 . S
C1177 C1178 1.392 . S
C1177 C1181 1.495 . S
C1178 C1177 1.392 . S
C1178 C1179 1.385 . S
C1178 C1180 1.478 . S
C1179 H1173 0.930 . S
C1179 C1175 1.400 . S
C1179 C1178 1.385 . S
C1180 C1178 1.478 . S
C1180 C1182 1.381 . S
C1180 C1186 1.383 . S
C1181 C1177 1.495 . S
C1181 H1187 0.959 . S
C1181 H1188 0.961 . S
C1181 H1189 0.960 . S
C1182 C1180 1.381 . S
C1182 C1183 1.394 . S
C1182 H1190 0.930 . S
C1183 C1182 1.394 . S
C1183 C1184 1.383 . S
C1183 H1191 0.929 . S
C1184 C1183 1.383 . S
C1184 C1185 1.377 . S
C1185 H1169 0.930 . S
C1185 C1184 1.377 . S
C1185 C1186 1.379 . S
C1186 H1170 0.931 . S
C1186 C1180 1.383 . S
C1186 C1185 1.379 . S
H1187 C1181 0.959 . S
H1188 C1181 0.961 . S
H1189 C1181 0.960 . S
H1190 C1182 0.930 . S
H1191 C1183 0.929 . S
H1192 C1200 0.929 . S
H1193 C1202 0.930 . S
H1194 C1204 0.930 . S
H1195 C1207 0.929 . S
H1196 C1210 0.930 . S
H1197 C1212 0.960 . S
H1198 C1212 0.960 . S
H1199 C1212 0.960 . S
C1200 H1192 0.929 . S
C1200 C1201 1.377 . S
C1200 C1202 1.384 . S
C1201 C1200 1.377 . S
C1201 C1207 1.390 . S
C1202 H1193 0.930 . S
C1202 C1200 1.384 . S
C1202 C1203 1.372 . S
C1203 C1202 1.372 . S
C1203 C1204 1.400 . S
C1203 C1208 1.490 . S
C1204 H1194 0.930 . S
C1204 C1203 1.400 . S
C1204 C1207 1.386 . S
H1205 C1221 0.930 . S
H1206 C1222 0.931 . S
C1207 H1195 0.929 . S
C1207 C1201 1.390 . S
C1207 C1204 1.386 . S
C1208 C1203 1.490 . S
C1208 C1210 1.395 . S
C1208 C1211 1.403 . S
H1209 C1215 0.930 . S
C1210 H1196 0.930 . S
C1210 C1208 1.395 . S
C1210 C1213 1.403 . S
C1211 C1208 1.403 . S
C1211 C1212 1.524 . S
C1211 C1215 1.400 . S
C1212 H1197 0.960 . S
C1212 H1198 0.960 . S
C1212 H1199 0.960 . S
C1212 C1211 1.524 . S
C1213 C1210 1.403 . S
C1213 C1214 1.392 . S
C1213 C1217 1.495 . S
C1214 C1213 1.392 . S
C1214 C1215 1.385 . S
C1214 C1216 1.478 . S
C1215 H1209 0.930 . S
C1215 C1211 1.400 . S
C1215 C1214 1.385 . S
C1216 C1214 1.478 . S
C1216 C1218 1.381 . S
C1216 C1222 1.383 . S
C1217 C1213 1.495 . S
C1217 H1223 0.959 . S
C1217 H1224 0.961 . S
C1217 H1225 0.960 . S
C1218 C1216 1.381 . S
C1218 C1219 1.394 . S
C1218 H1226 0.930 . S
C1219 C1218 1.394 . S
C1219 C1220 1.383 . S
C1219 H1227 0.929 . S
C1220 C1219 1.383 . S
C1220 C1221 1.377 . S
C1221 H1205 0.930 . S
C1221 C1220 1.377 . S
C1221 C1222 1.379 . S
C1222 H1206 0.931 . S
C1222 C1216 1.383 . S
C1222 C1221 1.379 . S
H1223 C1217 0.959 . S
H1224 C1217 0.961 . S
H1225 C1217 0.960 . S
H1226 C1218 0.930 . S
H1227 C1219 0.929 . S
H1228 C1236 0.929 . S
H1229 C1238 0.930 . S
H1230 C1240 0.930 . S
H1231 C1243 0.929 . S
H1232 C1246 0.930 . S
H1233 C1248 0.960 . S
H1234 C1248 0.960 . S
H1235 C1248 0.960 . S
C1236 H1228 0.929 . S
C1236 C1237 1.377 . S
C1236 C1238 1.384 . S
C1237 C1236 1.377 . S
C1237 C1243 1.390 . S
C1238 H1229 0.930 . S
C1238 C1236 1.384 . S
C1238 C1239 1.372 . S
C1239 C1238 1.372 . S
C1239 C1240 1.400 . S
C1239 C1244 1.490 . S
C1240 H1230 0.930 . S
C1240 C1239 1.400 . S
C1240 C1243 1.386 . S
H1241 C1257 0.930 . S
H1242 C1258 0.931 . S
C1243 H1231 0.929 . S
C1243 C1237 1.390 . S
C1243 C1240 1.386 . S
C1244 C1239 1.490 . S
C1244 C1246 1.395 . S
C1244 C1247 1.403 . S
H1245 C1251 0.930 . S
C1246 H1232 0.930 . S
C1246 C1244 1.395 . S
C1246 C1249 1.403 . S
C1247 C1244 1.403 . S
C1247 C1248 1.524 . S
C1247 C1251 1.400 . S
C1248 H1233 0.960 . S
C1248 H1234 0.960 . S
C1248 H1235 0.960 . S
C1248 C1247 1.524 . S
C1249 C1246 1.403 . S
C1249 C1250 1.392 . S
C1249 C1253 1.495 . S
C1250 C1249 1.392 . S
C1250 C1251 1.385 . S
C1250 C1252 1.478 . S
C1251 H1245 0.930 . S
C1251 C1247 1.400 . S
C1251 C1250 1.385 . S
C1252 C1250 1.478 . S
C1252 C1254 1.381 . S
C1252 C1258 1.383 . S
C1253 C1249 1.495 . S
C1253 H1259 0.959 . S
C1253 H1260 0.961 . S
C1253 H1261 0.960 . S
C1254 C1252 1.381 . S
C1254 C1255 1.394 . S
C1254 H1262 0.930 . S
C1255 C1254 1.394 . S
C1255 C1256 1.383 . S
C1255 H1263 0.929 . S
C1256 C1255 1.383 . S
C1256 C1257 1.377 . S
C1257 H1241 0.930 . S
C1257 C1256 1.377 . S
C1257 C1258 1.379 . S
C1258 H1242 0.931 . S
C1258 C1252 1.383 . S
C1258 C1257 1.379 . S
H1259 C1253 0.959 . S
H1260 C1253 0.961 . S
H1261 C1253 0.960 . S
H1262 C1254 0.930 . S
H1263 C1255 0.929 . S
H1264 C1272 0.929 . S
H1265 C1274 0.930 . S
H1266 C1276 0.930 . S
H1267 C1279 0.929 . S
H1268 C1282 0.930 . S
H1269 C1284 0.960 . S
H1270 C1284 0.960 . S
H1271 C1284 0.960 . S
C1272 H1264 0.929 . S
C1272 C1273 1.377 . S
C1272 C1274 1.384 . S
C1273 C1272 1.377 . S
C1273 C1279 1.390 . S
C1274 H1265 0.930 . S
C1274 C1272 1.384 . S
C1274 C1275 1.372 . S
C1275 C1274 1.372 . S
C1275 C1276 1.400 . S
C1275 C1280 1.490 . S
C1276 H1266 0.930 . S
C1276 C1275 1.400 . S
C1276 C1279 1.386 . S
H1277 C1293 0.930 . S
H1278 C1294 0.931 . S
C1279 H1267 0.929 . S
C1279 C1273 1.390 . S
C1279 C1276 1.386 . S
C1280 C1275 1.490 . S
C1280 C1282 1.395 . S
C1280 C1283 1.403 . S
H1281 C1287 0.930 . S
C1282 H1268 0.930 . S
C1282 C1280 1.395 . S
C1282 C1285 1.403 . S
C1283 C1280 1.403 . S
C1283 C1284 1.524 . S
C1283 C1287 1.400 . S
C1284 H1269 0.960 . S
C1284 H1270 0.960 . S
C1284 H1271 0.960 . S
C1284 C1283 1.524 . S
C1285 C1282 1.403 . S
C1285 C1286 1.392 . S
C1285 C1289 1.495 . S
C1286 C1285 1.392 . S
C1286 C1287 1.385 . S
C1286 C1288 1.478 . S
C1287 H1281 0.930 . S
C1287 C1283 1.400 . S
C1287 C1286 1.385 . S
C1288 C1286 1.478 . S
C1288 C1290 1.381 . S
C1288 C1294 1.383 . S
C1289 C1285 1.495 . S
C1289 H1295 0.959 . S
C1289 H1296 0.961 . S
C1289 H1297 0.960 . S
C1290 C1288 1.381 . S
C1290 C1291 1.394 . S
C1290 H1298 0.930 . S
C1291 C1290 1.394 . S
C1291 C1292 1.383 . S
C1291 H1299 0.929 . S
C1292 C1291 1.383 . S
C1292 C1293 1.377 . S
C1293 H1277 0.930 . S
C1293 C1292 1.377 . S
C1293 C1294 1.379 . S
C1294 H1278 0.931 . S
C1294 C1288 1.383 . S
C1294 C1293 1.379 . S
H1295 C1289 0.959 . S
H1296 C1289 0.961 . S
H1297 C1289 0.960 . S
H1298 C1290 0.930 . S
H1299 C1291 0.929 . S
H1300 C1308 0.929 . S
H1301 C1310 0.930 . S
H1302 C1312 0.930 . S
H1303 C1315 0.929 . S
H1304 C1318 0.930 . S
H1305 C1320 0.960 . S
H1306 C1320 0.960 . S
H1307 C1320 0.960 . S
C1308 H1300 0.929 . S
C1308 C1309 1.377 . S
C1308 C1310 1.384 . S
C1309 C1308 1.377 . S
C1309 C1315 1.390 . S
C1310 H1301 0.930 . S
C1310 C1308 1.384 . S
C1310 C1311 1.372 . S
C1311 C1310 1.372 . S
C1311 C1312 1.400 . S
C1311 C1316 1.490 . S
C1312 H1302 0.930 . S
C1312 C1311 1.400 . S
C1312 C1315 1.386 . S
H1313 C1329 0.930 . S
H1314 C1330 0.931 . S
C1315 H1303 0.929 . S
C1315 C1309 1.390 . S
C1315 C1312 1.386 . S
C1316 C1311 1.490 . S
C1316 C1318 1.395 . S
C1316 C1319 1.403 . S
H1317 C1323 0.930 . S
C1318 H1304 0.930 . S
C1318 C1316 1.395 . S
C1318 C1321 1.403 . S
C1319 C1316 1.403 . S
C1319 C1320 1.524 . S
C1319 C1323 1.400 . S
C1320 H1305 0.960 . S
C1320 H1306 0.960 . S
C1320 H1307 0.960 . S
C1320 C1319 1.524 . S
C1321 C1318 1.403 . S
C1321 C1322 1.392 . S
C1321 C1325 1.495 . S
C1322 C1321 1.392 . S
C1322 C1323 1.385 . S
C1322 C1324 1.478 . S
C1323 H1317 0.930 . S
C1323 C1319 1.400 . S
C1323 C1322 1.385 . S
C1324 C1322 1.478 . S
C1324 C1326 1.381 . S
C1324 C1330 1.383 . S
C1325 C1321 1.495 . S
C1325 H1331 0.959 . S
C1325 H1332 0.961 . S
C1325 H1333 0.960 . S
C1326 C1324 1.381 . S
C1326 C1327 1.394 . S
C1326 H1334 0.930 . S
C1327 C1326 1.394 . S
C1327 C1328 1.383 . S
C1327 H1335 0.929 . S
C1328 C1327 1.383 . S
C1328 C1329 1.377 . S
C1329 H1313 0.930 . S
C1329 C1328 1.377 . S
C1329 C1330 1.379 . S
C1330 H1314 0.931 . S
C1330 C1324 1.383 . S
C1330 C1329 1.379 . S
H1331 C1325 0.959 . S
H1332 C1325 0.961 . S
H1333 C1325 0.960 . S
H1334 C1326 0.930 . S
H1335 C1327 0.929 . S
H1336 C1344 0.929 . S
H1337 C1346 0.930 . S
H1338 C1348 0.930 . S
H1339 C1351 0.929 . S
H1340 C1354 0.930 . S
H1341 C1356 0.960 . S
H1342 C1356 0.960 . S
H1343 C1356 0.960 . S
C1344 H1336 0.929 . S
C1344 C1345 1.377 . S
C1344 C1346 1.384 . S
C1345 C1344 1.377 . S
C1345 C1351 1.390 . S
C1346 H1337 0.930 . S
C1346 C1344 1.384 . S
C1346 C1347 1.372 . S
C1347 C1346 1.372 . S
C1347 C1348 1.400 . S
C1347 C1352 1.490 . S
C1348 H1338 0.930 . S
C1348 C1347 1.400 . S
C1348 C1351 1.386 . S
H1349 C1365 0.930 . S
H1350 C1366 0.931 . S
C1351 H1339 0.929 . S
C1351 C1345 1.390 . S
C1351 C1348 1.386 . S
C1352 C1347 1.490 . S
C1352 C1354 1.395 . S
C1352 C1355 1.403 . S
H1353 C1359 0.930 . S
C1354 H1340 0.930 . S
C1354 C1352 1.395 . S
C1354 C1357 1.403 . S
C1355 C1352 1.403 . S
C1355 C1356 1.524 . S
C1355 C1359 1.400 . S
C1356 H1341 0.960 . S
C1356 H1342 0.960 . S
C1356 H1343 0.960 . S
C1356 C1355 1.524 . S
C1357 C1354 1.403 . S
C1357 C1358 1.392 . S
C1357 C1361 1.495 . S
C1358 C1357 1.392 . S
C1358 C1359 1.385 . S
C1358 C1360 1.478 . S
C1359 H1353 0.930 . S
C1359 C1355 1.400 . S
C1359 C1358 1.385 . S
C1360 C1358 1.478 . S
C1360 C1362 1.381 . S
C1360 C1366 1.383 . S
C1361 C1357 1.495 . S
C1361 H1367 0.959 . S
C1361 H1368 0.961 . S
C1361 H1369 0.960 . S
C1362 C1360 1.381 . S
C1362 C1363 1.394 . S
C1362 H1370 0.930 . S
C1363 C1362 1.394 . S
C1363 C1364 1.383 . S
C1363 H1371 0.929 . S
C1364 C1363 1.383 . S
C1364 C1365 1.377 . S
C1365 H1349 0.930 . S
C1365 C1364 1.377 . S
C1365 C1366 1.379 . S
C1366 H1350 0.931 . S
C1366 C1360 1.383 . S
C1366 C1365 1.379 . S
H1367 C1361 0.959 . S
H1368 C1361 0.961 . S
H1369 C1361 0.960 . S
H1370 C1362 0.930 . S
H1371 C1363 0.929 . S
H1372 C1380 0.929 . S
H1373 C1382 0.930 . S
H1374 C1384 0.930 . S
H1375 C1387 0.929 . S
H1376 C1390 0.930 . S
H1377 C1392 0.960 . S
H1378 C1392 0.960 . S
H1379 C1392 0.960 . S
C1380 H1372 0.929 . S
C1380 C1381 1.377 . S
C1380 C1382 1.384 . S
C1381 C1380 1.377 . S
C1381 C1387 1.390 . S
C1382 H1373 0.930 . S
C1382 C1380 1.384 . S
C1382 C1383 1.372 . S
C1383 C1382 1.372 . S
C1383 C1384 1.400 . S
C1383 C1388 1.490 . S
C1384 H1374 0.930 . S
C1384 C1383 1.400 . S
C1384 C1387 1.386 . S
H1385 C1401 0.930 . S
H1386 C1402 0.931 . S
C1387 H1375 0.929 . S
C1387 C1381 1.390 . S
C1387 C1384 1.386 . S
C1388 C1383 1.490 . S
C1388 C1390 1.395 . S
C1388 C1391 1.403 . S
H1389 C1395 0.930 . S
C1390 H1376 0.930 . S
C1390 C1388 1.395 . S
C1390 C1393 1.403 . S
C1391 C1388 1.403 . S
C1391 C1392 1.524 . S
C1391 C1395 1.400 . S
C1392 H1377 0.960 . S
C1392 H1378 0.960 . S
C1392 H1379 0.960 . S
C1392 C1391 1.524 . S
C1393 C1390 1.403 . S
C1393 C1394 1.392 . S
C1393 C1397 1.495 . S
C1394 C1393 1.392 . S
C1394 C1395 1.385 . S
C1394 C1396 1.478 . S
C1395 H1389 0.930 . S
C1395 C1391 1.400 . S
C1395 C1394 1.385 . S
C1396 C1394 1.478 . S
C1396 C1398 1.381 . S
C1396 C1402 1.383 . S
C1397 C1393 1.495 . S
C1397 H1403 0.959 . S
C1397 H1404 0.961 . S
C1397 H1405 0.960 . S
C1398 C1396 1.381 . S
C1398 C1399 1.394 . S
C1398 H1406 0.930 . S
C1399 C1398 1.394 . S
C1399 C1400 1.383 . S
C1399 H1407 0.929 . S
C1400 C1399 1.383 . S
C1400 C1401 1.377 . S
C1401 H1385 0.930 . S
C1401 C1400 1.377 . S
C1401 C1402 1.379 . S
C1402 H1386 0.931 . S
C1402 C1396 1.383 . S
C1402 C1401 1.379 . S
H1403 C1397 0.959 . S
H1404 C1397 0.961 . S
H1405 C1397 0.960 . S
H1406 C1398 0.930 . S
H1407 C1399 0.929 . S
H1408 C1416 0.929 . S
H1409 C1418 0.930 . S
H1410 C1420 0.930 . S
H1411 C1423 0.929 . S
H1412 C1426 0.930 . S
H1413 C1428 0.960 . S
H1414 C1428 0.960 . S
H1415 C1428 0.960 . S
C1416 H1408 0.929 . S
C1416 C1417 1.377 . S
C1416 C1418 1.384 . S
C1417 C1416 1.377 . S
C1417 C1423 1.390 . S
C1418 H1409 0.930 . S
C1418 C1416 1.384 . S
C1418 C1419 1.372 . S
C1419 C1418 1.372 . S
C1419 C1420 1.400 . S
C1419 C1424 1.490 . S
C1420 H1410 0.930 . S
C1420 C1419 1.400 . S
C1420 C1423 1.386 . S
H1421 C1437 0.930 . S
H1422 C1438 0.931 . S
C1423 H1411 0.929 . S
C1423 C1417 1.390 . S
C1423 C1420 1.386 . S
C1424 C1419 1.490 . S
C1424 C1426 1.395 1_554 S
C1424 C1427 1.403 . S
H1425 C1431 0.930 . S
C1426 H1412 0.930 . S
C1426 C1424 1.395 1_556 S
C1426 C1429 1.403 1_545 S
C1427 C1424 1.403 . S
C1427 C1428 1.524 . S
C1427 C1431 1.400 1_545 S
C1428 H1413 0.960 . S
C1428 H1414 0.960 . S
C1428 H1415 0.960 . S
C1428 C1427 1.524 . S
C1429 C1426 1.403 1_565 S
C1429 C1430 1.392 . S
C1429 C1433 1.495 . S
C1430 C1429 1.392 . S
C1430 C1431 1.385 1_556 S
C1430 C1432 1.478 . S
C1431 H1425 0.930 . S
C1431 C1427 1.400 1_565 S
C1431 C1430 1.385 1_554 S
C1432 C1430 1.478 . S
C1432 C1434 1.381 . S
C1432 C1438 1.383 . S
C1433 C1429 1.495 . S
C1433 H1439 0.959 . S
C1433 H1440 0.961 . S
C1433 H1441 0.960 . S
C1434 C1432 1.381 . S
C1434 C1435 1.394 . S
C1434 H1442 0.930 . S
C1435 C1434 1.394 . S
C1435 C1436 1.383 . S
C1435 H1443 0.929 . S
C1436 C1435 1.383 . S
C1436 C1437 1.377 . S
C1437 H1421 0.930 . S
C1437 C1436 1.377 . S
C1437 C1438 1.379 . S
C1438 H1422 0.931 . S
C1438 C1432 1.383 . S
C1438 C1437 1.379 . S
H1439 C1433 0.959 . S
H1440 C1433 0.961 . S
H1441 C1433 0.960 . S
H1442 C1434 0.930 . S
H1443 C1435 0.929 . S
H1444 C1452 0.929 . S
H1445 C1454 0.930 . S
H1446 C1456 0.930 . S
H1447 C1459 0.929 . S
H1448 C1462 0.930 . S
H1449 C1464 0.960 . S
H1450 C1464 0.960 . S
H1451 C1464 0.960 . S
C1452 H1444 0.929 . S
C1452 C1453 1.377 1_554 S
C1452 C1454 1.384 . S
C1453 C1452 1.377 1_556 S
C1453 C1459 1.390 . S
C1454 H1445 0.930 . S
C1454 C1452 1.384 . S
C1454 C1455 1.372 1_554 S
C1455 C1454 1.372 1_556 S
C1455 C1456 1.400 . S
C1455 C1460 1.490 . S
C1456 H1446 0.930 . S
C1456 C1455 1.400 . S
C1456 C1459 1.386 . S
H1457 C1473 0.930 1_556 S
H1458 C1474 0.931 . S
C1459 H1447 0.929 . S
C1459 C1453 1.390 . S
C1459 C1456 1.386 . S
C1460 C1455 1.490 . S
C1460 C1462 1.395 1_556 S
C1460 C1463 1.403 . S
H1461 C1467 0.930 . S
C1462 H1448 0.930 . S
C1462 C1460 1.395 1_554 S
C1462 C1465 1.403 1_455 S
C1463 C1460 1.403 . S
C1463 C1464 1.524 . S
C1463 C1467 1.400 1_455 S
C1464 H1449 0.960 . S
C1464 H1450 0.960 . S
C1464 H1451 0.960 . S
C1464 C1463 1.524 . S
C1465 C1462 1.403 1_655 S
C1465 C1466 1.392 . S
C1465 C1469 1.495 . S
C1466 C1465 1.392 . S
C1466 C1467 1.385 1_554 S
C1466 C1468 1.478 . S
C1467 H1461 0.930 . S
C1467 C1463 1.400 1_655 S
C1467 C1466 1.385 1_556 S
C1468 C1466 1.478 . S
C1468 C1470 1.381 . S
C1468 C1474 1.383 1_554 S
C1469 C1465 1.495 . S
C1469 H1475 0.959 . S
C1469 H1476 0.961 . S
C1469 H1477 0.960 . S
C1470 C1468 1.381 . S
C1470 C1471 1.394 . S
C1470 H1478 0.930 . S
C1471 C1470 1.394 . S
C1471 C1472 1.383 . S
C1471 H1479 0.929 . S
C1472 C1471 1.383 . S
C1472 C1473 1.377 . S
C1473 H1457 0.930 1_554 S
C1473 C1472 1.377 . S
C1473 C1474 1.379 1_554 S
C1474 H1458 0.931 . S
C1474 C1468 1.383 1_556 S
C1474 C1473 1.379 1_556 S
H1475 C1469 0.959 . S
H1476 C1469 0.961 . S
H1477 C1469 0.960 . S
H1478 C1470 0.930 . S
H1479 C1471 0.929 . S
H1480 C1488 0.929 . S
H1481 C1490 0.930 . S
H1482 C1492 0.930 . S
H1483 C1495 0.929 . S
H1484 C1498 0.930 . S
H1485 C1500 0.960 . S
H1486 C1500 0.960 . S
H1487 C1500 0.960 . S
C1488 H1480 0.929 . S
C1488 C1489 1.377 1_556 S
C1488 C1490 1.384 . S
C1489 C1488 1.377 1_554 S
C1489 C1495 1.390 . S
C1490 H1481 0.930 . S
C1490 C1488 1.384 . S
C1490 C1491 1.372 1_556 S
C1491 C1490 1.372 1_554 S
C1491 C1492 1.400 . S
C1491 C1496 1.490 . S
C1492 H1482 0.930 . S
C1492 C1491 1.400 . S
C1492 C1495 1.386 . S
H1493 C1509 0.930 . S
H1494 C1510 0.931 . S
C1495 H1483 0.929 . S
C1495 C1489 1.390 . S
C1495 C1492 1.386 . S
C1496 C1491 1.490 . S
C1496 C1498 1.395 1_554 S
C1496 C1499 1.403 . S
H1497 C1503 0.930 . S
C1498 H1484 0.930 . S
C1498 C1496 1.395 1_556 S
C1498 C1501 1.403 1_565 S
C1499 C1496 1.403 . S
C1499 C1500 1.524 . S
C1499 C1503 1.400 1_565 S
C1500 H1485 0.960 . S
C1500 H1486 0.960 . S
C1500 H1487 0.960 . S
C1500 C1499 1.524 . S
C1501 C1498 1.403 1_545 S
C1501 C1502 1.392 . S
C1501 C1505 1.495 . S
C1502 C1501 1.392 . S
C1502 C1503 1.385 1_556 S
C1502 C1504 1.478 . S
C1503 H1497 0.930 . S
C1503 C1499 1.400 1_545 S
C1503 C1502 1.385 1_554 S
C1504 C1502 1.478 . S
C1504 C1506 1.381 . S
C1504 C1510 1.383 1_556 S
C1505 C1501 1.495 . S
C1505 H1511 0.959 . S
C1505 H1512 0.961 . S
C1505 H1513 0.960 . S
C1506 C1504 1.381 . S
C1506 C1507 1.394 . S
C1506 H1514 0.930 . S
C1507 C1506 1.394 . S
C1507 C1508 1.383 . S
C1507 H1515 0.929 . S
C1508 C1507 1.383 . S
C1508 C1509 1.377 1_556 S
C1509 H1493 0.930 . S
C1509 C1508 1.377 1_554 S
C1509 C1510 1.379 . S
C1510 H1494 0.931 . S
C1510 C1504 1.383 1_554 S
C1510 C1509 1.379 . S
H1511 C1505 0.959 . S
H1512 C1505 0.961 . S
H1513 C1505 0.960 . S
H1514 C1506 0.930 . S
H1515 C1507 0.929 . S
H1516 C1524 0.929 . S
H1517 C1526 0.930 . S
H1518 C1528 0.930 . S
H1519 C1531 0.929 . S
H1520 C1534 0.930 . S
H1521 C1536 0.960 . S
H1522 C1536 0.960 . S
H1523 C1536 0.960 . S
C1524 H1516 0.929 . S
C1524 C1525 1.377 . S
C1524 C1526 1.384 . S
C1525 C1524 1.377 . S
C1525 C1531 1.390 . S
C1526 H1517 0.930 . S
C1526 C1524 1.384 . S
C1526 C1527 1.372 . S
C1527 C1526 1.372 . S
C1527 C1528 1.400 . S
C1527 C1532 1.490 . S
C1528 H1518 0.930 . S
C1528 C1527 1.400 . S
C1528 C1531 1.386 . S
H1529 C1545 0.930 . S
H1530 C1546 0.931 1_556 S
C1531 H1519 0.929 . S
C1531 C1525 1.390 . S
C1531 C1528 1.386 . S
C1532 C1527 1.490 . S
C1532 C1534 1.395 . S
C1532 C1535 1.403 1_556 S
H1533 C1539 0.930 . S
C1534 H1520 0.930 . S
C1534 C1532 1.395 . S
C1534 C1537 1.403 1_655 S
C1535 C1532 1.403 1_554 S
C1535 C1536 1.524 . S
C1535 C1539 1.400 1_655 S
C1536 H1521 0.960 . S
C1536 H1522 0.960 . S
C1536 H1523 0.960 . S
C1536 C1535 1.524 . S
C1537 C1534 1.403 1_455 S
C1537 C1538 1.408 . S
C1537 C1541 1.495 . S
C1538 C1537 1.408 . S
C1538 C1539 1.371 1_556 S
C1538 C1540 1.475 1_556 S
C1539 H1533 0.930 . S
C1539 C1535 1.400 1_455 S
C1539 C1538 1.371 1_554 S
C1540 C1538 1.475 1_554 S
C1540 C1542 1.381 . S
C1540 C1546 1.383 . S
C1541 C1537 1.495 . S
C1541 H1547 0.959 . S
C1541 H1548 0.961 . S
C1541 H1549 0.960 . S
C1542 C1540 1.381 . S
C1542 C1543 1.394 . S
C1542 H1550 0.930 . S
C1543 C1542 1.394 . S
C1543 C1544 1.383 . S
C1543 H1551 0.929 . S
C1544 C1543 1.383 . S
C1544 C1545 1.377 . S
C1545 H1529 0.930 . S
C1545 C1544 1.377 . S
C1545 C1546 1.379 . S
C1546 H1530 0.931 1_554 S
C1546 C1540 1.383 . S
C1546 C1545 1.379 . S
H1547 C1541 0.959 . S
H1548 C1541 0.961 . S
H1549 C1541 0.960 . S
H1550 C1542 0.930 . S
H1551 C1543 0.929 . S
H1552 C1560 0.929 . S
H1553 C1562 0.930 . S
H1554 C1564 0.930 . S
H1555 C1567 0.929 . S
H1556 C1570 0.930 . S
H1557 C1572 0.960 . S
H1558 C1572 0.960 . S
H1559 C1572 0.960 . S
C1560 H1552 0.929 . S
C1560 C1561 1.377 . S
C1560 C1562 1.384 . S
C1561 C1560 1.377 . S
C1561 C1567 1.390 . S
C1562 H1553 0.930 . S
C1562 C1560 1.384 . S
C1562 C1563 1.372 . S
C1563 C1562 1.372 . S
C1563 C1564 1.400 . S
C1563 C1568 1.490 . S
C1564 H1554 0.930 . S
C1564 C1563 1.400 . S
C1564 C1567 1.386 . S
H1565 C1581 0.930 . S
H1566 C1582 0.931 . S
C1567 H1555 0.929 . S
C1567 C1561 1.390 . S
C1567 C1564 1.386 . S
C1568 C1563 1.490 . S
C1568 C1570 1.395 . S
C1568 C1571 1.403 . S
H1569 C1575 0.930 . S
C1570 H1556 0.930 . S
C1570 C1568 1.395 . S
C1570 C1573 1.403 . S
C1571 C1568 1.403 . S
C1571 C1572 1.524 . S
C1571 C1575 1.400 . S
C1572 H1557 0.960 . S
C1572 H1558 0.960 . S
C1572 H1559 0.960 . S
C1572 C1571 1.524 . S
C1573 C1570 1.403 . S
C1573 C1574 1.392 . S
C1573 C1577 1.495 . S
C1574 C1573 1.392 . S
C1574 C1575 1.385 . S
C1574 C1576 1.478 . S
C1575 H1569 0.930 . S
C1575 C1571 1.400 . S
C1575 C1574 1.385 . S
C1576 C1574 1.478 . S
C1576 C1578 1.381 . S
C1576 C1582 1.383 . S
C1577 C1573 1.495 . S
C1577 H1583 0.959 . S
C1577 H1584 0.961 . S
C1577 H1585 0.960 . S
C1578 C1576 1.381 . S
C1578 C1579 1.394 . S
C1578 H1586 0.930 . S
C1579 C1578 1.394 . S
C1579 C1580 1.383 . S
C1579 H1587 0.929 . S
C1580 C1579 1.383 . S
C1580 C1581 1.377 . S
C1581 H1565 0.930 . S
C1581 C1580 1.377 . S
C1581 C1582 1.379 . S
C1582 H1566 0.931 . S
C1582 C1576 1.383 . S
C1582 C1581 1.379 . S
H1583 C1577 0.959 . S
H1584 C1577 0.961 . S
H1585 C1577 0.960 . S
H1586 C1578 0.930 . S
H1587 C1579 0.929 . S
H1588 C1596 0.929 . S
H1589 C1598 0.930 . S
H1590 C1600 0.930 . S
H1591 C1603 0.929 . S
H1592 C1606 0.930 . S
H1593 C1608 0.960 . S
H1594 C1608 0.960 . S
H1595 C1608 0.960 . S
C1596 H1588 0.929 . S
C1596 C1597 1.377 . S
C1596 C1598 1.384 . S
C1597 C1596 1.377 . S
C1597 C1603 1.390 . S
C1598 H1589 0.930 . S
C1598 C1596 1.384 . S
C1598 C1599 1.372 . S
C1599 C1598 1.372 . S
C1599 C1600 1.400 . S
C1599 C1604 1.490 . S
C1600 H1590 0.930 . S
C1600 C1599 1.400 . S
C1600 C1603 1.386 . S
H1601 C1617 0.930 . S
H1602 C1618 0.931 . S
C1603 H1591 0.929 . S
C1603 C1597 1.390 . S
C1603 C1600 1.386 . S
C1604 C1599 1.490 . S
C1604 C1606 1.395 . S
C1604 C1607 1.403 . S
H1605 C1611 0.930 . S
C1606 H1592 0.930 . S
C1606 C1604 1.395 . S
C1606 C1609 1.403 . S
C1607 C1604 1.403 . S
C1607 C1608 1.524 . S
C1607 C1611 1.400 . S
C1608 H1593 0.960 . S
C1608 H1594 0.960 . S
C1608 H1595 0.960 . S
C1608 C1607 1.524 . S
C1609 C1606 1.403 . S
C1609 C1610 1.392 . S
C1609 C1613 1.495 . S
C1610 C1609 1.392 . S
C1610 C1611 1.385 . S
C1610 C1612 1.478 . S
C1611 H1605 0.930 . S
C1611 C1607 1.400 . S
C1611 C1610 1.385 . S
C1612 C1610 1.478 . S
C1612 C1614 1.381 . S
C1612 C1618 1.383 . S
C1613 C1609 1.495 . S
C1613 H1619 0.959 . S
C1613 H1620 0.961 . S
C1613 H1621 0.960 . S
C1614 C1612 1.381 . S
C1614 C1615 1.394 . S
C1614 H1622 0.930 . S
C1615 C1614 1.394 . S
C1615 C1616 1.383 . S
C1615 H1623 0.929 . S
C1616 C1615 1.383 . S
C1616 C1617 1.377 . S
C1617 H1601 0.930 . S
C1617 C1616 1.377 . S
C1617 C1618 1.379 . S
C1618 H1602 0.931 . S
C1618 C1612 1.383 . S
C1618 C1617 1.379 . S
H1619 C1613 0.959 . S
H1620 C1613 0.961 . S
H1621 C1613 0.960 . S
H1622 C1614 0.930 . S
H1623 C1615 0.929 . S
H1624 C1632 0.929 . S
H1625 C1634 0.930 . S
H1626 C1636 0.930 . S
H1627 C1639 0.929 . S
H1628 C1642 0.930 . S
H1629 C1644 0.960 . S
H1630 C1644 0.960 . S
H1631 C1644 0.960 . S
C1632 H1624 0.929 . S
C1632 C1633 1.377 . S
C1632 C1634 1.384 . S
C1633 C1632 1.377 . S
C1633 C1639 1.390 . S
C1634 H1625 0.930 . S
C1634 C1632 1.384 . S
C1634 C1635 1.372 . S
C1635 C1634 1.372 . S
C1635 C1636 1.400 . S
C1635 C1640 1.490 . S
C1636 H1626 0.930 . S
C1636 C1635 1.400 . S
C1636 C1639 1.386 . S
H1637 C1653 0.930 . S
H1638 C1654 0.931 . S
C1639 H1627 0.929 . S
C1639 C1633 1.390 . S
C1639 C1636 1.386 . S
C1640 C1635 1.490 . S
C1640 C1642 1.395 . S
C1640 C1643 1.403 . S
H1641 C1647 0.930 . S
C1642 H1628 0.930 . S
C1642 C1640 1.395 . S
C1642 C1645 1.403 . S
C1643 C1640 1.403 . S
C1643 C1644 1.524 . S
C1643 C1647 1.400 . S
C1644 H1629 0.960 . S
C1644 H1630 0.960 . S
C1644 H1631 0.960 . S
C1644 C1643 1.524 . S
C1645 C1642 1.403 . S
C1645 C1646 1.392 . S
C1645 C1649 1.495 . S
C1646 C1645 1.392 . S
C1646 C1647 1.385 . S
C1646 C1648 1.478 . S
C1647 H1641 0.930 . S
C1647 C1643 1.400 . S
C1647 C1646 1.385 . S
C1648 C1646 1.478 . S
C1648 C1650 1.381 . S
C1648 C1654 1.383 . S
C1649 C1645 1.495 . S
C1649 H1655 0.959 . S
C1649 H1656 0.961 . S
C1649 H1657 0.960 . S
C1650 C1648 1.381 . S
C1650 C1651 1.394 . S
C1650 H1658 0.930 . S
C1651 C1650 1.394 . S
C1651 C1652 1.383 . S
C1651 H1659 0.929 . S
C1652 C1651 1.383 . S
C1652 C1653 1.377 . S
C1653 H1637 0.930 . S
C1653 C1652 1.377 . S
C1653 C1654 1.379 . S
C1654 H1638 0.931 . S
C1654 C1648 1.383 . S
C1654 C1653 1.379 . S
H1655 C1649 0.959 . S
H1656 C1649 0.961 . S
H1657 C1649 0.960 . S
H1658 C1650 0.930 . S
H1659 C1651 0.929 . S
H1660 C1668 0.929 . S
H1661 C1670 0.930 . S
H1662 C1672 0.930 . S
H1663 C1675 0.929 . S
H1664 C1678 0.930 . S
H1665 C1680 0.960 . S
H1666 C1680 0.960 . S
H1667 C1680 0.960 . S
C1668 H1660 0.929 . S
C1668 C1669 1.377 . S
C1668 C1670 1.384 . S
C1669 C1668 1.377 . S
C1669 C1675 1.390 . S
C1670 H1661 0.930 . S
C1670 C1668 1.384 . S
C1670 C1671 1.372 . S
C1671 C1670 1.372 . S
C1671 C1672 1.400 . S
C1671 C1676 1.490 . S
C1672 H1662 0.930 . S
C1672 C1671 1.400 . S
C1672 C1675 1.386 . S
H1673 C1689 0.930 . S
H1674 C1690 0.931 . S
C1675 H1663 0.929 . S
C1675 C1669 1.390 . S
C1675 C1672 1.386 . S
C1676 C1671 1.490 . S
C1676 C1678 1.395 . S
C1676 C1679 1.403 . S
H1677 C1683 0.930 . S
C1678 H1664 0.930 . S
C1678 C1676 1.395 . S
C1678 C1681 1.403 . S
C1679 C1676 1.403 . S
C1679 C1680 1.524 . S
C1679 C1683 1.400 . S
C1680 H1665 0.960 . S
C1680 H1666 0.960 . S
C1680 H1667 0.960 . S
C1680 C1679 1.524 . S
C1681 C1678 1.403 . S
C1681 C1682 1.392 . S
C1681 C1685 1.495 . S
C1682 C1681 1.392 . S
C1682 C1683 1.385 . S
C1682 C1684 1.478 . S
C1683 H1677 0.930 . S
C1683 C1679 1.400 . S
C1683 C1682 1.385 . S
C1684 C1682 1.478 . S
C1684 C1686 1.381 . S
C1684 C1690 1.383 . S
C1685 C1681 1.495 . S
C1685 H1691 0.959 . S
C1685 H1692 0.961 . S
C1685 H1693 0.960 . S
C1686 C1684 1.381 . S
C1686 C1687 1.394 . S
C1686 H1694 0.930 . S
C1687 C1686 1.394 . S
C1687 C1688 1.383 . S
C1687 H1695 0.929 . S
C1688 C1687 1.383 . S
C1688 C1689 1.377 . S
C1689 H1673 0.930 . S
C1689 C1688 1.377 . S
C1689 C1690 1.379 . S
C1690 H1674 0.931 . S
C1690 C1684 1.383 . S
C1690 C1689 1.379 . S
H1691 C1685 0.959 . S
H1692 C1685 0.961 . S
H1693 C1685 0.960 . S
H1694 C1686 0.930 . S
H1695 C1687 0.929 . S
H1696 C1704 0.929 . S
H1697 C1706 0.930 . S
H1698 C1708 0.930 . S
H1699 C1711 0.929 . S
H1700 C1714 0.930 . S
H1701 C1716 0.960 . S
H1702 C1716 0.960 . S
H1703 C1716 0.960 . S
C1704 H1696 0.929 . S
C1704 C1705 1.377 . S
C1704 C1706 1.384 . S
C1705 C1704 1.377 . S
C1705 C1711 1.390 . S
C1706 H1697 0.930 . S
C1706 C1704 1.384 . S
C1706 C1707 1.372 . S
C1707 C1706 1.372 . S
C1707 C1708 1.400 . S
C1707 C1712 1.490 . S
C1708 H1698 0.930 . S
C1708 C1707 1.400 . S
C1708 C1711 1.386 . S
H1709 C1725 0.930 . S
H1710 C1726 0.931 . S
C1711 H1699 0.929 . S
C1711 C1705 1.390 . S
C1711 C1708 1.386 . S
C1712 C1707 1.490 . S
C1712 C1714 1.395 1_554 S
C1712 C1715 1.403 . S
H1713 C1719 0.930 . S
C1714 H1700 0.930 . S
C1714 C1712 1.395 1_556 S
C1714 C1717 1.403 . S
C1715 C1712 1.403 . S
C1715 C1716 1.524 . S
C1715 C1719 1.400 . S
C1716 H1701 0.960 . S
C1716 H1702 0.960 . S
C1716 H1703 0.960 . S
C1716 C1715 1.524 . S
C1717 C1714 1.403 . S
C1717 C1718 1.392 . S
C1717 C1721 1.495 . S
C1718 C1717 1.392 . S
C1718 C1719 1.385 1_556 S
C1718 C1720 1.478 . S
C1719 H1713 0.930 . S
C1719 C1715 1.400 . S
C1719 C1718 1.385 1_554 S
C1720 C1718 1.478 . S
C1720 C1722 1.381 . S
C1720 C1726 1.383 . S
C1721 C1717 1.495 . S
C1721 H1727 0.959 . S
C1721 H1728 0.961 . S
C1721 H1729 0.960 . S
C1722 C1720 1.381 . S
C1722 C1723 1.394 . S
C1722 H1730 0.930 1_556 S
C1723 C1722 1.394 . S
C1723 C1724 1.383 . S
C1723 H1731 0.929 . S
C1724 C1723 1.383 . S
C1724 C1725 1.377 . S
C1725 H1709 0.930 . S
C1725 C1724 1.377 . S
C1725 C1726 1.379 . S
C1726 H1710 0.931 . S
C1726 C1720 1.383 . S
C1726 C1725 1.379 . S
H1727 C1721 0.959 . S
H1728 C1721 0.961 . S
H1729 C1721 0.960 . S
H1730 C1722 0.930 1_554 S
H1731 C1723 0.929 . S
H1732 C1740 0.929 . S
H1733 C1742 0.930 . S
H1734 C1744 0.930 . S
H1735 C1747 0.929 . S
H1736 C1750 0.930 . S
H1737 C1752 0.960 . S
H1738 C1752 0.960 . S
H1739 C1752 0.960 1_556 S
C1740 H1732 0.929 . S
C1740 C1741 1.377 . S
C1740 C1742 1.384 . S
C1741 C1740 1.377 . S
C1741 C1747 1.390 1_554 S
C1742 H1733 0.930 . S
C1742 C1740 1.384 . S
C1742 C1743 1.372 . S
C1743 C1742 1.372 . S
C1743 C1744 1.400 1_554 S
C1743 C1748 1.490 . S
C1744 H1734 0.930 . S
C1744 C1743 1.400 1_556 S
C1744 C1747 1.386 . S
H1745 C1761 0.930 . S
H1746 C1762 0.931 . S
C1747 H1735 0.929 . S
C1747 C1741 1.390 1_556 S
C1747 C1744 1.386 . S
C1748 C1743 1.490 . S
C1748 C1750 1.395 . S
C1748 C1751 1.403 . S
H1749 C1755 0.931 . S
C1750 H1736 0.930 . S
C1750 C1748 1.395 . S
C1750 C1753 1.403 1_554 S
C1751 C1748 1.403 . S
C1751 C1752 1.524 . S
C1751 C1755 1.397 1_554 S
C1752 H1737 0.960 . S
C1752 H1738 0.960 . S
C1752 H1739 0.960 1_554 S
C1752 C1751 1.524 . S
C1753 C1750 1.403 1_556 S
C1753 C1754 1.392 . S
C1753 C1757 1.495 . S
C1754 C1753 1.392 . S
C1754 C1755 1.387 . S
C1754 C1756 1.478 . S
C1755 H1749 0.931 . S
C1755 C1751 1.397 1_556 S
C1755 C1754 1.387 . S
C1756 C1754 1.478 . S
C1756 C1758 1.381 1_556 S
C1756 C1762 1.383 . S
C1757 C1753 1.495 . S
C1757 H1763 0.959 . S
C1757 H1764 0.961 . S
C1757 H1765 0.960 1_556 S
C1758 C1756 1.381 1_554 S
C1758 C1759 1.394 . S
C1758 H1766 0.930 . S
C1759 C1758 1.394 . S
C1759 C1760 1.383 1_554 S
C1759 H1767 0.929 . S
C1760 C1759 1.383 1_556 S
C1760 C1761 1.377 . S
C1761 H1745 0.930 . S
C1761 C1760 1.377 . S
C1761 C1762 1.379 . S
C1762 H1746 0.931 . S
C1762 C1756 1.383 . S
C1762 C1761 1.379 . S
H1763 C1757 0.959 . S
H1764 C1757 0.961 . S
H1765 C1757 0.960 1_554 S
H1766 C1758 0.930 . S
H1767 C1759 0.929 . S
H1768 C1776 0.929 . S
H1769 C1778 0.930 . S
H1770 C1780 0.930 . S
H1771 C1783 0.929 . S
H1772 C1786 0.930 . S
H1773 C1788 0.960 . S
H1774 C1788 0.960 . S
H1775 C1788 0.960 1_554 S
C1776 H1768 0.929 . S
C1776 C1777 1.377 . S
C1776 C1778 1.384 . S
C1777 C1776 1.377 . S
C1777 C1783 1.390 1_556 S
C1778 H1769 0.930 . S
C1778 C1776 1.384 . S
C1778 C1779 1.372 . S
C1779 C1778 1.372 . S
C1779 C1780 1.400 1_556 S
C1779 C1784 1.490 . S
C1780 H1770 0.930 . S
C1780 C1779 1.400 1_554 S
C1780 C1783 1.386 . S
H1781 C1797 0.930 . S
H1782 C1798 0.931 . S
C1783 H1771 0.929 . S
C1783 C1777 1.390 1_554 S
C1783 C1780 1.386 . S
C1784 C1779 1.490 . S
C1784 C1786 1.395 . S
C1784 C1787 1.403 . S
H1785 C1791 0.930 . S
C1786 H1772 0.930 . S
C1786 C1784 1.395 . S
C1786 C1789 1.403 1_556 S
C1787 C1784 1.403 . S
C1787 C1788 1.524 . S
C1787 C1791 1.400 1_556 S
C1788 H1773 0.960 . S
C1788 H1774 0.960 . S
C1788 H1775 0.960 1_556 S
C1788 C1787 1.524 . S
C1789 C1786 1.403 1_554 S
C1789 C1790 1.392 . S
C1789 C1793 1.495 . S
C1790 C1789 1.392 . S
C1790 C1791 1.385 . S
C1790 C1792 1.478 . S
C1791 H1785 0.930 . S
C1791 C1787 1.400 1_554 S
C1791 C1790 1.385 . S
C1792 C1790 1.478 . S
C1792 C1794 1.381 1_554 S
C1792 C1798 1.383 . S
C1793 C1789 1.495 . S
C1793 H1799 0.959 . S
C1793 H1800 0.961 . S
C1793 H1801 0.960 1_554 S
C1794 C1792 1.381 1_556 S
C1794 C1795 1.394 . S
C1794 H1802 0.930 . S
C1795 C1794 1.394 . S
C1795 C1796 1.383 1_556 S
C1795 H1803 0.929 . S
C1796 C1795 1.383 1_554 S
C1796 C1797 1.377 . S
C1797 H1781 0.930 . S
C1797 C1796 1.377 . S
C1797 C1798 1.379 . S
C1798 H1782 0.931 . S
C1798 C1792 1.383 . S
C1798 C1797 1.379 . S
H1799 C1793 0.959 . S
H1800 C1793 0.961 . S
H1801 C1793 0.960 1_556 S
H1802 C1794 0.930 . S
H1803 C1795 0.929 . S
H1804 C1812 0.929 . S
H1805 C1814 0.930 . S
H1806 C1816 0.930 . S
H1807 C1819 0.929 1_556 S
H1808 C1822 0.930 . S
H1809 C1824 0.960 . S
H1810 C1824 0.960 . S
H1811 C1824 0.960 . S
C1812 H1804 0.929 . S
C1812 C1813 1.377 . S
C1812 C1814 1.384 . S
C1813 C1812 1.377 . S
C1813 C1819 1.390 . S
C1814 H1805 0.930 . S
C1814 C1812 1.384 . S
C1814 C1815 1.372 . S
C1815 C1814 1.372 . S
C1815 C1816 1.400 1_554 S
C1815 C1820 1.490 . S
C1816 H1806 0.930 . S
C1816 C1815 1.400 1_556 S
C1816 C1819 1.386 1_556 S
H1817 C1833 0.930 . S
H1818 C1834 0.931 . S
C1819 H1807 0.929 1_554 S
C1819 C1813 1.390 . S
C1819 C1816 1.386 1_554 S
C1820 C1815 1.490 . S
C1820 C1822 1.395 . S
C1820 C1823 1.403 1_554 S
H1821 C1827 0.930 . S
C1822 H1808 0.930 . S
C1822 C1820 1.395 . S
C1822 C1825 1.403 . S
C1823 C1820 1.403 1_556 S
C1823 C1824 1.524 . S
C1823 C1827 1.400 . S
C1824 H1809 0.960 . S
C1824 H1810 0.960 . S
C1824 H1811 0.960 . S
C1824 C1823 1.524 . S
C1825 C1822 1.403 . S
C1825 C1826 1.392 . S
C1825 C1829 1.495 . S
C1826 C1825 1.392 . S
C1826 C1827 1.385 1_554 S
C1826 C1828 1.478 1_554 S
C1827 H1821 0.930 . S
C1827 C1823 1.400 . S
C1827 C1826 1.385 1_556 S
C1828 C1826 1.478 1_556 S
C1828 C1830 1.381 1_556 S
C1828 C1834 1.383 . S
C1829 C1825 1.495 . S
C1829 H1835 0.959 . S
C1829 H1836 0.961 . S
C1829 H1837 0.960 . S
C1830 C1828 1.381 1_554 S
C1830 C1831 1.394 1_554 S
C1830 H1838 0.930 . S
C1831 C1830 1.394 1_556 S
C1831 C1832 1.383 . S
C1831 H1839 0.929 1_556 S
C1832 C1831 1.383 . S
C1832 C1833 1.377 . S
C1833 H1817 0.930 . S
C1833 C1832 1.377 . S
C1833 C1834 1.379 . S
C1834 H1818 0.931 . S
C1834 C1828 1.383 . S
C1834 C1833 1.379 . S
H1835 C1829 0.959 . S
H1836 C1829 0.961 . S
H1837 C1829 0.960 . S
H1838 C1830 0.930 . S
H1839 C1831 0.929 1_554 S
H1840 C1848 0.929 . S
H1841 C1850 0.930 . S
H1842 C1852 0.930 . S
H1843 C1855 0.929 . S
H1844 C1858 0.930 . S
H1845 C1860 0.960 . S
H1846 C1860 0.960 . S
H1847 C1860 0.960 . S
C1848 H1840 0.929 . S
C1848 C1849 1.377 . S
C1848 C1850 1.384 . S
C1849 C1848 1.377 . S
C1849 C1855 1.390 . S
C1850 H1841 0.930 . S
C1850 C1848 1.384 . S
C1850 C1851 1.372 . S
C1851 C1850 1.372 . S
C1851 C1852 1.400 . S
C1851 C1856 1.490 . S
C1852 H1842 0.930 . S
C1852 C1851 1.400 . S
C1852 C1855 1.386 . S
H1853 C1869 0.930 . S
H1854 C1870 0.931 . S
C1855 H1843 0.929 . S
C1855 C1849 1.390 . S
C1855 C1852 1.386 . S
C1856 C1851 1.490 . S
C1856 C1858 1.395 . S
C1856 C1859 1.403 . S
H1857 C1863 0.930 . S
C1858 H1844 0.930 . S
C1858 C1856 1.395 . S
C1858 C1861 1.403 . S
C1859 C1856 1.403 . S
C1859 C1860 1.524 . S
C1859 C1863 1.400 . S
C1860 H1845 0.960 . S
C1860 H1846 0.960 . S
C1860 H1847 0.960 . S
C1860 C1859 1.524 . S
C1861 C1858 1.403 . S
C1861 C1862 1.392 . S
C1861 C1865 1.495 . S
C1862 C1861 1.392 . S
C1862 C1863 1.385 . S
C1862 C1864 1.478 . S
C1863 H1857 0.930 . S
C1863 C1859 1.400 . S
C1863 C1862 1.385 . S
C1864 C1862 1.478 . S
C1864 C1866 1.381 . S
C1864 C1870 1.383 . S
C1865 C1861 1.495 . S
C1865 H1871 0.959 . S
C1865 H1872 0.961 . S
C1865 H1873 0.960 . S
C1866 C1864 1.381 . S
C1866 C1867 1.394 . S
C1866 H1874 0.930 . S
C1867 C1866 1.394 . S
C1867 C1868 1.383 . S
C1867 H1875 0.929 . S
C1868 C1867 1.383 . S
C1868 C1869 1.377 . S
C1869 H1853 0.930 . S
C1869 C1868 1.377 . S
C1869 C1870 1.379 . S
C1870 H1854 0.931 . S
C1870 C1864 1.383 . S
C1870 C1869 1.379 . S
H1871 C1865 0.959 . S
H1872 C1865 0.961 . S
H1873 C1865 0.960 . S
H1874 C1866 0.930 . S
H1875 C1867 0.929 . S
H1876 C1884 0.929 . S
H1877 C1886 0.930 . S
H1878 C1888 0.930 . S
H1879 C1891 0.929 . S
H1880 C1894 0.930 . S
H1881 C1896 0.960 . S
H1882 C1896 0.960 . S
H1883 C1896 0.960 . S
C1884 H1876 0.929 . S
C1884 C1885 1.377 . S
C1884 C1886 1.384 . S
C1885 C1884 1.377 . S
C1885 C1891 1.390 . S
C1886 H1877 0.930 . S
C1886 C1884 1.384 . S
C1886 C1887 1.372 . S
C1887 C1886 1.372 . S
C1887 C1888 1.400 . S
C1887 C1892 1.490 . S
C1888 H1878 0.930 . S
C1888 C1887 1.400 . S
C1888 C1891 1.386 . S
H1889 C1905 0.930 . S
H1890 C1906 0.931 . S
C1891 H1879 0.929 . S
C1891 C1885 1.390 . S
C1891 C1888 1.386 . S
C1892 C1887 1.490 . S
C1892 C1894 1.395 . S
C1892 C1895 1.403 . S
H1893 C1899 0.930 . S
C1894 H1880 0.930 . S
C1894 C1892 1.395 . S
C1894 C1897 1.403 . S
C1895 C1892 1.403 . S
C1895 C1896 1.524 . S
C1895 C1899 1.400 . S
C1896 H1881 0.960 . S
C1896 H1882 0.960 . S
C1896 H1883 0.960 . S
C1896 C1895 1.524 . S
C1897 C1894 1.403 . S
C1897 C1898 1.392 . S
C1897 C1901 1.495 . S
C1898 C1897 1.392 . S
C1898 C1899 1.385 . S
C1898 C1900 1.478 . S
C1899 H1893 0.930 . S
C1899 C1895 1.400 . S
C1899 C1898 1.385 . S
C1900 C1898 1.478 . S
C1900 C1902 1.381 . S
C1900 C1906 1.383 . S
C1901 C1897 1.495 . S
C1901 H1907 0.959 . S
C1901 H1908 0.961 . S
C1901 H1909 0.960 . S
C1902 C1900 1.381 . S
C1902 C1903 1.394 . S
C1902 H1910 0.930 . S
C1903 C1902 1.394 . S
C1903 C1904 1.383 . S
C1903 H1911 0.929 . S
C1904 C1903 1.383 . S
C1904 C1905 1.377 . S
C1905 H1889 0.930 . S
C1905 C1904 1.377 . S
C1905 C1906 1.379 . S
C1906 H1890 0.931 . S
C1906 C1900 1.383 . S
C1906 C1905 1.379 . S
H1907 C1901 0.959 . S
H1908 C1901 0.961 . S
H1909 C1901 0.960 . S
H1910 C1902 0.930 . S
H1911 C1903 0.929 . S
H1912 C1920 0.929 . S
H1913 C1922 0.930 . S
H1914 C1924 0.930 . S
H1915 C1927 0.929 . S
H1916 C1930 0.930 . S
H1917 C1932 0.960 . S
H1918 C1932 0.960 . S
H1919 C1932 0.960 . S
C1920 H1912 0.929 . S
C1920 C1921 1.377 . S
C1920 C1922 1.384 . S
C1921 C1920 1.377 . S
C1921 C1927 1.390 . S
C1922 H1913 0.930 . S
C1922 C1920 1.384 . S
C1922 C1923 1.372 . S
C1923 C1922 1.372 . S
C1923 C1924 1.400 . S
C1923 C1928 1.490 . S
C1924 H1914 0.930 . S
C1924 C1923 1.400 . S
C1924 C1927 1.386 . S
H1925 C1941 0.930 . S
H1926 C1942 0.931 . S
C1927 H1915 0.929 . S
C1927 C1921 1.390 . S
C1927 C1924 1.386 . S
C1928 C1923 1.490 . S
C1928 C1930 1.395 . S
C1928 C1931 1.403 . S
H1929 C1935 0.930 . S
C1930 H1916 0.930 . S
C1930 C1928 1.395 . S
C1930 C1933 1.403 . S
C1931 C1928 1.403 . S
C1931 C1932 1.524 . S
C1931 C1935 1.400 . S
C1932 H1917 0.960 . S
C1932 H1918 0.960 . S
C1932 H1919 0.960 . S
C1932 C1931 1.524 . S
C1933 C1930 1.403 . S
C1933 C1934 1.392 . S
C1933 C1937 1.495 . S
C1934 C1933 1.392 . S
C1934 C1935 1.385 . S
C1934 C1936 1.478 . S
C1935 H1929 0.930 . S
C1935 C1931 1.400 . S
C1935 C1934 1.385 . S
C1936 C1934 1.478 . S
C1936 C1938 1.381 . S
C1936 C1942 1.383 . S
C1937 C1933 1.495 . S
C1937 H1943 0.959 . S
C1937 H1944 0.961 . S
C1937 H1945 0.960 . S
C1938 C1936 1.381 . S
C1938 C1939 1.394 . S
C1938 H1946 0.930 . S
C1939 C1938 1.394 . S
C1939 C1940 1.383 . S
C1939 H1947 0.929 . S
C1940 C1939 1.383 . S
C1940 C1941 1.377 . S
C1941 H1925 0.930 . S
C1941 C1940 1.377 . S
C1941 C1942 1.379 . S
C1942 H1926 0.931 . S
C1942 C1936 1.383 . S
C1942 C1941 1.379 . S
H1943 C1937 0.959 . S
H1944 C1937 0.961 . S
H1945 C1937 0.960 . S
H1946 C1938 0.930 . S
H1947 C1939 0.929 . S
H1948 C1956 0.929 . S
H1949 C1958 0.930 . S
H1950 C1960 0.930 . S
H1951 C1963 0.929 . S
H1952 C1966 0.930 . S
H1953 C1968 0.960 . S
H1954 C1968 0.960 . S
H1955 C1968 0.960 . S
C1956 H1948 0.929 . S
C1956 C1957 1.377 . S
C1956 C1958 1.384 . S
C1957 C1956 1.377 . S
C1957 C1963 1.390 . S
C1958 H1949 0.930 . S
C1958 C1956 1.384 . S
C1958 C1959 1.372 . S
C1959 C1958 1.372 . S
C1959 C1960 1.400 . S
C1959 C1964 1.490 . S
C1960 H1950 0.930 . S
C1960 C1959 1.400 . S
C1960 C1963 1.386 . S
H1961 C1977 0.930 . S
H1962 C1978 0.931 . S
C1963 H1951 0.929 . S
C1963 C1957 1.390 . S
C1963 C1960 1.386 . S
C1964 C1959 1.490 . S
C1964 C1966 1.395 . S
C1964 C1967 1.403 . S
H1965 C1971 0.930 . S
C1966 H1952 0.930 . S
C1966 C1964 1.395 . S
C1966 C1969 1.403 . S
C1967 C1964 1.403 . S
C1967 C1968 1.524 . S
C1967 C1971 1.400 . S
C1968 H1953 0.960 . S
C1968 H1954 0.960 . S
C1968 H1955 0.960 . S
C1968 C1967 1.524 . S
C1969 C1966 1.403 . S
C1969 C1970 1.392 . S
C1969 C1973 1.495 . S
C1970 C1969 1.392 . S
C1970 C1971 1.385 . S
C1970 C1972 1.478 . S
C1971 H1965 0.930 . S
C1971 C1967 1.400 . S
C1971 C1970 1.385 . S
C1972 C1970 1.478 . S
C1972 C1974 1.381 . S
C1972 C1978 1.383 . S
C1973 C1969 1.495 . S
C1973 H1979 0.959 . S
C1973 H1980 0.961 . S
C1973 H1981 0.960 . S
C1974 C1972 1.381 . S
C1974 C1975 1.394 . S
C1974 H1982 0.930 . S
C1975 C1974 1.394 . S
C1975 C1976 1.383 . S
C1975 H1983 0.929 . S
C1976 C1975 1.383 . S
C1976 C1977 1.377 . S
C1977 H1961 0.930 . S
C1977 C1976 1.377 . S
C1977 C1978 1.379 . S
C1978 H1962 0.931 . S
C1978 C1972 1.383 . S
C1978 C1977 1.379 . S
H1979 C1973 0.959 . S
H1980 C1973 0.961 . S
H1981 C1973 0.960 . S
H1982 C1974 0.930 . S
H1983 C1975 0.929 . S
C553 C9 1.046 . S
C572 C5 1.050 . S
C589 C43 1.043 . S
C608 C39 1.049 . S
C625 C73 1.057 . S
C644 C77 1.066 . S
C661 C107 1.056 . S
C680 C111 1.068 . S
C697 C145 1.034 . S
C716 C141 1.063 . S
C733 C175 1.058 . S
C752 C179 1.054 . S
C769 C209 1.058 . S
C788 C213 1.030 . S
C805 C243 1.056 . S
C824 C247 1.062 . S
C841 C281 1.044 . S
C860 C277 1.053 . S
C877 C315 1.036 . S
C896 C311 1.064 . S
C913 C349 1.040 . S
C932 C345 1.053 . S
C949 C383 1.044 . S
C968 C379 1.053 . S
C985 C413 1.059 . S
C1004 C417 1.037 . S
C1021 C447 1.059 . S
C1040 C451 1.009 . S
C1057 C481 1.059 . S
C1076 C485 1.011 . S
C1093 C515 1.057 . S
C1112 C519 1.066 . S
C1129 C33 1.299 . S
C1148 C543 1.274 . S
C1165 C441 1.302 . S
C1184 C67 1.286 . S
C1201 C475 1.301 . S
C1220 C101 1.275 . S
C1237 C509 1.294 . S
C1256 C135 1.290 . S
C1273 C339 1.302 . S
C1292 C169 1.277 . S
C1309 C203 1.299 . S
C1328 C373 1.274 . S
C1345 C237 1.297 . S
C1364 C407 1.278 . S
C1381 C305 1.296 . S
C1400 C271 1.317 . S
C1417 C20 1.557 . S
C1436 C156 1.552 . S
C1453 C190 1.556 . S
C1472 C54 1.561 . S
C1489 C88 1.556 . S
C1508 C224 1.563 . S
C1525 C258 1.559 . S
C1544 C122 1.557 . S
C1561 C428 1.557 . S
C1580 C292 1.564 . S
C1597 C326 1.557 . S
C1616 C462 1.554 . S
C1633 C360 1.560 . S
C1652 C496 1.546 . S
C1669 C394 1.560 . S
C1688 C530 1.553 . S
C1705 C2 1.798 . S
C1724 C172 1.796 . S
C1741 C36 1.798 . S
C1760 C206 1.795 . S
C1777 C240 1.798 . S
C1796 C70 1.795 . S
C1813 C104 1.797 . S
C1832 C138 1.792 . S
C1849 C444 1.798 . S
C1868 C274 1.795 . S
C1885 C308 1.798 . S
C1904 C478 1.795 . S
C1921 C512 1.798 . S
C1940 C342 1.793 . S
C1957 C410 1.798 . S
C1976 C376 1.795 . S
