# Generated by pormake.
# Topology wjf, (4)-cn, num edge types: 1
# Building blocks:
#     Node 0, Type 0, BuildingBlock: CEKHIL_clean_sbu_0, # of connection points: 4
#     Node 1, Type 0, BuildingBlock: CEKHIL_clean_sbu_0, # of connection points: 4
#     Node 2, Type 0, BuildingBlock: CEKHIL_clean_sbu_0, # of connection points: 4
#     Node 3, Type 0, BuildingBlock: CEKHIL_clean_sbu_0, # of connection points: 4
#     Node 4, Type 0, BuildingBlock: CEKHIL_clean_sbu_0, # of connection points: 4
#     Node 5, Type 0, BuildingBlock: CEKHIL_clean_sbu_0, # of connection points: 4
#     Node 6, Type 0, BuildingBlock: CEKHIL_clean_sbu_0, # of connection points: 4
#     Node 7, Type 0, BuildingBlock: CEKHIL_clean_sbu_0, # of connection points: 4
#     Node 8, Type 0, BuildingBlock: CEKHIL_clean_sbu_0, # of connection points: 4
#     Node 9, Type 0, BuildingBlock: CEKHIL_clean_sbu_0, # of connection points: 4
#     Node 10, Type 0, BuildingBlock: CEKHIL_clean_sbu_0, # of connection points: 4
#     Node 11, Type 0, BuildingBlock: CEKHIL_clean_sbu_0, # of connection points: 4
#     Edge 12, Type (0, 0), BuildingBlock: ZUJKAS_clean_linker_0, # of connection points: 2
#     Edge 13, Type (0, 0), BuildingBlock: ZUJKAS_clean_linker_0, # of connection points: 2
#     Edge 14, Type (0, 0), BuildingBlock: ZUJKAS_clean_linker_0, # of connection points: 2
#     Edge 15, Type (0, 0), BuildingBlock: ZUJKAS_clean_linker_0, # of connection points: 2
#     Edge 16, Type (0, 0), BuildingBlock: ZUJKAS_clean_linker_0, # of connection points: 2
#     Edge 17, Type (0, 0), BuildingBlock: ZUJKAS_clean_linker_0, # of connection points: 2
#     Edge 18, Type (0, 0), BuildingBlock: ZUJKAS_clean_linker_0, # of connection points: 2
#     Edge 19, Type (0, 0), BuildingBlock: ZUJKAS_clean_linker_0, # of connection points: 2
#     Edge 20, Type (0, 0), BuildingBlock: ZUJKAS_clean_linker_0, # of connection points: 2
#     Edge 21, Type (0, 0), BuildingBlock: ZUJKAS_clean_linker_0, # of connection points: 2
#     Edge 22, Type (0, 0), BuildingBlock: ZUJKAS_clean_linker_0, # of connection points: 2
#     Edge 23, Type (0, 0), BuildingBlock: ZUJKAS_clean_linker_0, # of connection points: 2
#     Edge 24, Type (0, 0), BuildingBlock: ZUJKAS_clean_linker_0, # of connection points: 2
#     Edge 25, Type (0, 0), BuildingBlock: ZUJKAS_clean_linker_0, # of connection points: 2
#     Edge 26, Type (0, 0), BuildingBlock: ZUJKAS_clean_linker_0, # of connection points: 2
#     Edge 27, Type (0, 0), BuildingBlock: ZUJKAS_clean_linker_0, # of connection points: 2
#     Edge 28, Type (0, 0), BuildingBlock: ZUJKAS_clean_linker_0, # of connection points: 2
#     Edge 29, Type (0, 0), BuildingBlock: ZUJKAS_clean_linker_0, # of connection points: 2
#     Edge 30, Type (0, 0), BuildingBlock: ZUJKAS_clean_linker_0, # of connection points: 2
#     Edge 31, Type (0, 0), BuildingBlock: ZUJKAS_clean_linker_0, # of connection points: 2
#     Edge 32, Type (0, 0), BuildingBlock: ZUJKAS_clean_linker_0, # of connection points: 2
#     Edge 33, Type (0, 0), BuildingBlock: ZUJKAS_clean_linker_0, # of connection points: 2
#     Edge 34, Type (0, 0), BuildingBlock: ZUJKAS_clean_linker_0, # of connection points: 2
#     Edge 35, Type (0, 0), BuildingBlock: ZUJKAS_clean_linker_0, # of connection points: 2
# Relax obj value: 0.113
# Max RMSD: 0.134
# Mean RMSD: 0.134
data_MOF--net-wjf--node1-CEKHIL_clean_sbu_0--edge1-ZUJKAS_clean_linker_0
_symmetry_space_group_name_H-M    P1
_symmetry_Int_Tables_number       1
_symmetry_cell_setting            triclinic
loop_
_symmetry_equiv_pos_as_xyz
'x, y, z'
_cell_length_a     65.516038
_cell_length_b     65.519011
_cell_length_c     35.670662
_cell_angle_alpha  90.022964
_cell_angle_beta   89.956805
_cell_angle_gamma 120.05089
loop_
_atom_site_label
_atom_site_type_symbol
_atom_site_fract_x
_atom_site_fract_y
_atom_site_fract_z
_atom_type_partial_charge
Co0 Co 0.32984 0.38626 0.07495 0.0
O1 O 0.29631 0.37378 0.07356 0.0
O2 O 0.32282 0.40778 0.04847 0.0
C3 C 0.33217 0.37901 0.13598 0.0
O4 O 0.36578 0.40533 0.07221 0.0
Co5 Co 0.35074 0.354 0.09324 0.0
O6 O 0.3803 0.38459 0.10045 0.0
C7 C 0.33044 0.35158 0.01849 0.0
C8 C 0.30075 0.39267 0.05517 0.0
C9 C 0.38301 0.4036 0.0861 0.0
O10 O 0.32813 0.36945 0.02672 0.0
O11 O 0.33757 0.34176 0.04204 0.0
O12 O 0.33129 0.39766 0.12606 0.0
O13 O 0.32926 0.36447 0.10932 0.0
Co14 Co 0.94396 0.32936 0.4092 0.0
O15 O 0.92257 0.29588 0.40993 0.0
O16 O 0.91493 0.32212 0.38414 0.0
C17 C 0.9551 0.33288 0.46957 0.0
O18 O 0.96104 0.3652 0.40468 0.0
Co19 Co 0.99751 0.35017 0.42379 0.0
O20 O 0.99708 0.38006 0.43025 0.0
C21 C 0.97764 0.32887 0.35038 0.0
C22 C 0.90791 0.30018 0.39191 0.0
C23 C 0.98046 0.38264 0.41692 0.0
O24 O 0.95767 0.32652 0.36024 0.0
O25 O 0.99535 0.33652 0.37253 0.0
O26 O 0.93541 0.33198 0.46072 0.0
O27 O 0.96596 0.32928 0.4424 0.0
Co28 Co 0.61951 0.94522 0.73882 0.0
O29 O 0.6322 0.92447 0.73499 0.0
O30 O 0.59697 0.91617 0.71436 0.0
C31 C 0.62914 0.95563 0.79909 0.0
O32 O 0.60034 0.96196 0.73919 0.0
Co33 Co 0.65318 0.99865 0.75358 0.0
O34 O 0.62329 0.9992 0.75952 0.0
C35 C 0.6528 0.97884 0.67967 0.0
C36 C 0.6126 0.90963 0.71865 0.0
C37 C 0.60329 0.98212 0.74951 0.0
O38 O 0.63401 0.95969 0.68901 0.0
O39 O 0.66466 0.99572 0.70265 0.0
O40 O 0.61032 0.93583 0.79076 0.0
O41 O 0.64266 0.96694 0.77116 0.0
Co42 Co 0.67479 0.61658 0.07574 0.0
O43 O 0.70837 0.62944 0.0739 0.0
O44 O 0.68205 0.59525 0.04914 0.0
C45 C 0.6726 0.6239 0.1368 0.0
O46 O 0.63885 0.59713 0.07348 0.0
Co47 Co 0.65341 0.64841 0.09427 0.0
O48 O 0.62397 0.61771 0.10122 0.0
C49 C 0.67354 0.65092 0.01932 0.0
C50 C 0.70408 0.61059 0.05554 0.0
C51 C 0.62147 0.5987 0.08713 0.0
O52 O 0.67607 0.63318 0.02748 0.0
O53 O 0.66637 0.66067 0.04298 0.0
O54 O 0.67372 0.60539 0.12688 0.0
O55 O 0.6752 0.6383 0.1101 0.0
Co56 Co 0.05908 0.6734 0.4101 0.0
O57 O 0.08055 0.70687 0.41063 0.0
O58 O 0.08779 0.6806 0.38386 0.0
C59 C 0.04872 0.6699 0.47088 0.0
O60 O 0.04184 0.63755 0.40543 0.0
Co61 Co 0.00574 0.65258 0.4267 0.0
O62 O 0.00648 0.62287 0.43346 0.0
C63 C 0.02463 0.67371 0.35275 0.0
C64 C 0.09494 0.70255 0.39179 0.0
C65 C 0.02276 0.62022 0.41887 0.0
O66 O 0.04481 0.67635 0.36189 0.0
O67 O 0.00709 0.66579 0.37534 0.0
O68 O 0.06824 0.6707 0.46115 0.0
O69 O 0.03753 0.67352 0.4443 0.0
Co70 Co 0.38866 0.05823 0.74038 0.0
O71 O 0.37558 0.07875 0.73879 0.0
O72 O 0.40988 0.08701 0.71403 0.0
C73 C 0.38144 0.04844 0.80136 0.0
O74 O 0.40834 0.04202 0.73807 0.0
Co75 Co 0.35655 0.00487 0.75786 0.0
O76 O 0.38678 0.00479 0.75938 0.0
C77 C 0.35384 0.02309 0.68384 0.0
C78 C 0.39439 0.09348 0.72047 0.0
C79 C 0.40616 0.02207 0.74775 0.0
O80 O 0.37215 0.04301 0.69189 0.0
O81 O 0.34366 0.00627 0.70757 0.0
O82 O 0.39981 0.06824 0.79156 0.0
O83 O 0.367 0.03671 0.77464 0.0
Co84 Co 0.61691 0.67351 0.5703 0.0
O85 O 0.62908 0.70698 0.57234 0.0
O86 O 0.59469 0.68001 0.59573 0.0
C87 C 0.62537 0.67168 0.50973 0.0
O88 O 0.59805 0.63757 0.57216 0.0
Co89 Co 0.64984 0.65313 0.554 0.0
O90 O 0.61956 0.62352 0.5451 0.0
C91 C 0.65042 0.67256 0.62877 0.0
C92 C 0.60983 0.70218 0.58996 0.0
C93 C 0.6002 0.62054 0.55841 0.0
O94 O 0.63279 0.67496 0.61933 0.0
O95 O 0.66077 0.66555 0.60603 0.0
O96 O 0.60648 0.67236 0.51869 0.0
O97 O 0.63947 0.67456 0.53708 0.0
Co98 Co 0.94592 0.6156 0.90593 0.0
O99 O 0.92561 0.62888 0.90872 0.0
O100 O 0.91718 0.59426 0.93232 0.0
C101 C 0.9554 0.6234 0.84495 0.0
O102 O 0.96196 0.59574 0.90705 0.0
Co103 Co 0.99921 0.64716 0.88751 0.0
O104 O 0.99732 0.6163 0.87886 0.0
C105 C 0.9817 0.64937 0.96268 0.0
C106 C 0.91084 0.60993 0.92669 0.0
C107 C 0.9807 0.59722 0.89262 0.0
O108 O 0.96144 0.6316 0.95445 0.0
O109 O 0.99857 0.65931 0.93894 0.0
O110 O 0.93561 0.60497 0.85465 0.0
O111 O 0.96736 0.6375 0.87188 0.0
Co112 Co 0.32933 0.94483 0.23624 0.0
O113 O 0.29595 0.92297 0.23528 0.0
O114 O 0.32247 0.91607 0.2619 0.0
C115 C 0.33319 0.95573 0.17572 0.0
O116 O 0.36518 0.96246 0.24095 0.0
Co117 Co 0.34884 0.99815 0.22148 0.0
O118 O 0.37979 0.99956 0.21986 0.0
C119 C 0.32726 0.97808 0.29442 0.0
C120 C 0.30049 0.90867 0.25385 0.0
C121 C 0.38259 0.98276 0.23166 0.0
O122 O 0.32591 0.9585 0.28492 0.0
O123 O 0.3343 0.99561 0.27204 0.0
O124 O 0.33248 0.9362 0.1851 0.0
O125 O 0.329 0.96647 0.2024 0.0
Co126 Co 0.38705 0.32884 0.56946 0.0
O127 O 0.37406 0.29523 0.57144 0.0
O128 O 0.40868 0.32155 0.59495 0.0
C129 C 0.37891 0.33102 0.50887 0.0
O130 O 0.40669 0.36477 0.57136 0.0
Co131 Co 0.35517 0.35043 0.55317 0.0
O132 O 0.38587 0.37956 0.54425 0.0
C133 C 0.35397 0.33075 0.62791 0.0
C134 C 0.39312 0.29951 0.58911 0.0
C135 C 0.40505 0.38207 0.55755 0.0
O136 O 0.37127 0.32778 0.61846 0.0
O137 O 0.34401 0.3382 0.6052 0.0
O138 O 0.39746 0.32972 0.51787 0.0
O139 O 0.36487 0.32848 0.53618 0.0
Co140 Co 0.05832 0.38401 0.90381 0.0
O141 O 0.07937 0.37157 0.90651 0.0
O142 O 0.08657 0.40562 0.93093 0.0
C143 C 0.04951 0.3767 0.84257 0.0
O144 O 0.04145 0.40308 0.90521 0.0
Co145 Co 0.00536 0.35173 0.88402 0.0
O146 O 0.00649 0.38228 0.87608 0.0
C147 C 0.02224 0.34956 0.95973 0.0
C148 C 0.09362 0.39054 0.92494 0.0
C149 C 0.02267 0.40134 0.89058 0.0
O150 O 0.0426 0.3673 0.95183 0.0
O151 O 0.00552 0.33975 0.93575 0.0
O152 O 0.06893 0.39534 0.85291 0.0
O153 O 0.03751 0.36216 0.86904 0.0
Co154 Co 0.6729 0.05991 0.23298 0.0
O155 O 0.70642 0.08097 0.23455 0.0
O156 O 0.67979 0.08866 0.25871 0.0
C157 C 0.67075 0.04955 0.17244 0.0
O158 O 0.63703 0.04304 0.23512 0.0
Co159 Co 0.65285 0.00649 0.21792 0.0
O160 O 0.62207 0.00556 0.21565 0.0
C161 C 0.67393 0.02629 0.29088 0.0
C162 C 0.70186 0.09548 0.25245 0.0
C163 C 0.61949 0.02273 0.22623 0.0
O164 O 0.67418 0.04545 0.28209 0.0
O165 O 0.66838 0.00936 0.26777 0.0
O166 O 0.67185 0.06932 0.18141 0.0
O167 O 0.67354 0.03821 0.1997 0.0
H168 H 0.33808 0.34316 0.16136 0.0
H169 H 0.34719 0.33674 0.22511 0.0
H170 H 0.34817 0.39997 0.26167 0.0
H171 H 0.3394 0.40679 0.19754 0.0
H172 H 0.38602 0.39525 0.28941 0.0
H173 H 0.29979 0.31394 0.31193 0.0
H174 H 0.31505 0.31315 0.27061 0.0
H175 H 0.30495 0.33406 0.27378 0.0
C176 C 0.34021 0.35572 0.18293 0.0
C177 C 0.33784 0.37538 0.17455 0.0
C178 C 0.34533 0.35196 0.21936 0.0
C179 C 0.34795 0.36766 0.24815 0.0
C180 C 0.34607 0.38759 0.2398 0.0
H181 H 0.34312 0.33756 0.48515 0.0
H182 H 0.33675 0.34799 0.42228 0.0
C183 C 0.341 0.39141 0.20325 0.0
C184 C 0.35249 0.3631 0.28699 0.0
H185 H 0.32941 0.32266 0.3576 0.0
C186 C 0.37363 0.37945 0.30446 0.0
C187 C 0.33613 0.3426 0.30661 0.0
C188 C 0.3126 0.32502 0.28997 0.0
C189 C 0.37907 0.3756 0.34092 0.0
C190 C 0.36306 0.35469 0.36 0.0
C191 C 0.34175 0.33857 0.34273 0.0
C192 C 0.36772 0.34929 0.39827 0.0
C193 C 0.40169 0.39408 0.35888 0.0
C194 C 0.38719 0.34641 0.40554 0.0
C195 C 0.39092 0.34049 0.44155 0.0
C196 C 0.37512 0.33717 0.47072 0.0
C197 C 0.35561 0.33999 0.46327 0.0
C198 C 0.35194 0.34596 0.42737 0.0
H199 H 0.40888 0.41144 0.34469 0.0
H200 H 0.39896 0.39629 0.38901 0.0
H201 H 0.41508 0.38848 0.35684 0.0
H202 H 0.3993 0.34842 0.38327 0.0
H203 H 0.40607 0.33837 0.44647 0.0
H204 H 0.93553 0.33984 0.53259 0.0
H205 H 0.95249 0.34925 0.59576 0.0
H206 H 0.01475 0.34971 0.55507 0.0
H207 H 0.99777 0.33986 0.49226 0.0
H208 H 0.99719 0.32353 0.61851 0.0
H209 H 0.00541 0.41147 0.63678 0.0
H210 H 0.97626 0.38854 0.62446 0.0
H211 H 1.00007 0.3971 0.59174 0.0
C212 C 0.95288 0.34208 0.53713 0.0
C213 C 0.96532 0.33911 0.50753 0.0
C214 C 0.96261 0.34762 0.57313 0.0
C215 C 0.98502 0.35051 0.57994 0.0
C216 C 0.99748 0.34765 0.55035 0.0
H217 H 0.07021 0.40531 0.78192 0.0
H218 H 0.05494 0.39924 0.71766 0.0
C219 C 0.98773 0.34201 0.51449 0.0
C220 C 0.99508 0.3553 0.61822 0.0
H221 H 0.01213 0.39438 0.6909 0.0
C222 C 1.00055 0.33907 0.63428 0.0
C223 C 0.9997 0.37573 0.63851 0.0
C224 C 0.99528 0.39435 0.62192 0.0
C225 C 0.01018 0.34251 0.67036 0.0
C226 C 0.01402 0.3625 0.69117 0.0
C227 C 0.00896 0.37897 0.67492 0.0
C228 C 0.02306 0.36641 0.73003 0.0
C229 C 0.01644 0.32487 0.68568 0.0
C230 C 0.01003 0.35012 0.75821 0.0
C231 C 0.01872 0.35347 0.79474 0.0
C232 C 0.04054 0.37328 0.80381 0.0
C233 C 0.05341 0.38981 0.77568 0.0
C234 C 0.04469 0.38641 0.73905 0.0
H235 H 0.01837 0.31435 0.66296 0.0
H236 H 0.03312 0.3338 0.70194 0.0
H237 H 0.00218 0.3125 0.70469 0.0
H238 H 0.99308 0.33481 0.75194 0.0
H239 H 0.0083 0.34052 0.81586 0.0
H240 H 0.66427 0.99882 0.82205 0.0
H241 H 0.6714 0.01514 0.88566 0.0
H242 H 0.61192 0.95087 0.92623 0.0
H243 H 0.60449 0.9344 0.8627 0.0
H244 H 0.62675 0.01168 0.938 0.0
H245 H 0.68041 0.97272 0.9882 0.0
H246 H 0.68086 0.98076 0.93961 0.0
H247 H 0.65517 0.95574 0.95845 0.0
C248 C 0.65273 0.98814 0.84451 0.0
C249 C 0.63381 0.96533 0.83745 0.0
C250 C 0.65682 0.9975 0.88072 0.0
C251 C 0.64217 0.98413 0.91035 0.0
C252 C 0.62337 0.96136 0.90353 0.0
H253 H 0.65211 0.00388 0.15036 0.0
H254 H 0.64425 0.9885 0.08638 0.0
C255 C 0.61918 0.95202 0.86731 0.0
C256 C 0.64639 0.99405 0.94849 0.0
H257 H 0.67298 0.99542 0.03121 0.0
C258 C 0.63686 0.00823 0.95852 0.0
C259 C 0.65939 0.98921 0.9749 0.0
C260 C 0.66966 0.97381 0.96505 0.0
C261 C 0.63977 0.01757 -0.00518 0.0
C262 C 0.6532 0.01311 0.0213 0.0
C263 C 0.66275 0.9989 0.01096 0.0
C264 C 0.65729 0.02261 0.06006 0.0
C265 C 0.62783 0.03148 0.00459 0.0
C266 C 0.6673 0.04691 0.06665 0.0
C267 C 0.67126 0.05565 0.10328 0.0
C268 C 0.66598 0.04032 0.13386 0.0
C269 C 0.65639 0.01609 0.12727 0.0
C270 C 0.65192 0.0073 0.09072 0.0
H271 H 0.61264 0.02698 0.98578 0.0
H272 H 0.62144 0.0283 0.03401 0.0
H273 H 0.6406 0.05057 0.00112 0.0
H274 H 0.67233 0.05918 0.04349 0.0
H275 H 0.67897 0.07445 0.10765 0.0
H276 H 0.66445 0.65845 0.16166 0.0
H277 H 0.65553 0.66492 0.22551 0.0
H278 H 0.6594 0.60443 0.26333 0.0
H279 H 0.66787 0.59748 0.19907 0.0
H280 H 0.62085 0.60645 0.29254 0.0
H281 H 0.70373 0.69189 0.31013 0.0
H282 H 0.68705 0.6909 0.26959 0.0
H283 H 0.69938 0.67182 0.27227 0.0
C284 C 0.66343 0.64651 0.18353 0.0
C285 C 0.66705 0.62756 0.17545 0.0
C286 C 0.65843 0.6503 0.22003 0.0
C287 C 0.65725 0.63542 0.24921 0.0
C288 C 0.66039 0.61619 0.24117 0.0
H289 H 0.66281 0.66804 0.48551 0.0
H290 H 0.66965 0.65782 0.42271 0.0
C291 C 0.66527 0.61229 0.20453 0.0
C292 C 0.65279 0.64006 0.2881 0.0
H293 H 0.67427 0.68191 0.3568 0.0
C294 C 0.63256 0.62289 0.30672 0.0
C295 C 0.66829 0.6614 0.30662 0.0
C296 C 0.69095 0.67997 0.2888 0.0
C297 C 0.62714 0.62672 0.34321 0.0
C298 C 0.64219 0.64843 0.36114 0.0
C299 C 0.66264 0.66539 0.34277 0.0
C300 C 0.6374 0.65384 0.39932 0.0
C301 C 0.60558 0.60742 0.36246 0.0
C302 C 0.61707 0.65518 0.40685 0.0
C303 C 0.61309 0.66103 0.44277 0.0
C304 C 0.62948 0.66575 0.47161 0.0
C305 C 0.64985 0.66449 0.46388 0.0
C306 C 0.65379 0.65864 0.42804 0.0
H307 H 0.59936 0.59002 0.34889 0.0
H308 H 0.60921 0.60607 0.39249 0.0
H309 H 0.59111 0.61154 0.36094 0.0
H310 H 0.60443 0.65199 0.38484 0.0
H311 H 0.59726 0.66192 0.44792 0.0
H312 H 0.99758 0.65885 0.81973 0.0
H313 H 0.01313 0.66521 0.75594 0.0
H314 H 0.94995 0.60297 0.71896 0.0
H315 H 0.93434 0.59622 0.78308 0.0
H316 H 0.99201 0.60652 0.69132 0.0
H317 H 0.98989 0.68929 0.6692 0.0
H318 H 0.00568 0.68947 0.71044 0.0
H319 H 0.97447 0.66929 0.70729 0.0
C320 C 0.98695 0.64651 0.79805 0.0
C321 C 0.96465 0.62713 0.80631 0.0
C322 C 0.99584 0.65023 0.7616 0.0
C323 C 0.98252 0.63477 0.73269 0.0
C324 C 0.96043 0.61516 0.74092 0.0
H325 H 0.00688 0.66412 0.49572 0.0
H326 H 0.99059 0.65411 0.55897 0.0
C327 C 0.95152 0.61138 0.77747 0.0
C328 C 0.9917 0.6392 0.69386 0.0
H329 H 0.00982 0.67961 0.62315 0.0
C330 C 0.99584 0.62244 0.67629 0.0
C331 C 0.9964 0.65987 0.67429 0.0
C332 C 0.99119 0.67793 0.69107 0.0
C333 C 0.00495 0.62601 0.63971 0.0
C334 C 0.01033 0.64703 0.6206 0.0
C335 C 0.00587 0.66361 0.63804 0.0
C336 C 0.02002 0.65204 0.58206 0.0
C337 C 0.00835 0.60709 0.62163 0.0
C338 C 0.04205 0.65428 0.57412 0.0
C339 C 0.05141 0.65994 0.53787 0.0
C340 C 0.03895 0.66364 0.50915 0.0
C341 C 0.01692 0.66139 0.51725 0.0
C342 C 0.00757 0.65566 0.55337 0.0
H343 H 0.99797 0.58985 0.63606 0.0
H344 H 0.00315 0.60486 0.59163 0.0
H345 H 0.02725 0.61227 0.62318 0.0
H346 H 0.05216 0.65201 0.59607 0.0
H347 H 0.06846 0.66164 0.53244 0.0
H348 H 0.33877 0.99758 0.15101 0.0
H349 H 0.34867 0.01382 0.08762 0.0
H350 H 0.35177 0.95272 0.05082 0.0
H351 H 0.34221 0.93646 0.11442 0.0
H352 H 0.38931 0.9957 0.02443 0.0
H353 H 0.30257 0.98906 -0.00081 0.0
H354 H 0.31733 0.00513 0.04076 0.0
H355 H 0.30761 0.97421 0.03759 0.0
C356 C 0.34155 0.98758 0.12944 0.0
C357 C 0.33951 0.96565 0.13756 0.0
C358 C 0.34713 0.99686 0.09323 0.0
C359 C 0.35057 0.98428 0.06447 0.0
C360 C 0.34906 0.96262 0.07265 0.0
H361 H 0.34625 0.00615 0.82665 0.0
H362 H 0.34008 0.99063 0.89043 0.0
C363 C 0.34354 0.95335 0.10892 0.0
C364 C 0.35546 0.99362 0.02574 0.0
H365 H 0.33224 0.00955 0.95354 0.0
C366 C 0.37685 0.99871 0.00883 0.0
C367 C 0.33901 0.99722 0.00541 0.0
C368 C 0.31524 0.99093 0.02146 0.0
C369 C 0.38236 0.00761 0.97214 0.0
C370 C 0.36617 0.01182 0.95222 0.0
C371 C 0.3447 0.00649 0.96904 0.0
C372 C 0.37075 0.02112 0.91344 0.0
C373 C 0.40522 0.01198 0.95479 0.0
C374 C 0.39 0.04348 0.90528 0.0
C375 C 0.39363 0.05238 0.86874 0.0
C376 C 0.37792 0.03913 0.83993 0.0
C377 C 0.35865 0.01679 0.84824 0.0
C378 C 0.3551 0.00788 0.88466 0.0
H379 H 0.41269 0.00238 0.96989 0.0
H380 H 0.40269 0.00653 0.92489 0.0
H381 H 0.4183 0.0311 0.95612 0.0
H382 H 0.40201 0.05418 0.92725 0.0
H383 H 0.40858 0.0697 0.86316 0.0
H384 H 0.12736 0.42825 0.96467 0.0
H385 H 0.16569 0.4345 0.98607 0.0
H386 H 0.15013 0.36806 0.93708 0.0
H387 H 0.11213 0.36181 0.91536 0.0
H388 H 0.17494 0.40649 0.0339 0.0
H389 H 0.21547 0.41359 0.89476 0.0
H390 H 0.18947 0.41612 0.90109 0.0
H391 H 0.18705 0.38754 0.89922 0.0
C392 C 0.13219 0.41505 0.95831 0.0
C393 C 0.11677 0.39459 0.93817 0.0
C394 C 0.15407 0.41865 0.97054 0.0
C395 C 0.16093 0.40196 0.96254 0.0
C396 C 0.14545 0.38145 0.94277 0.0
H397 H 0.25372 0.36439 0.06782 0.0
H398 H 0.22154 0.37001 0.04636 0.0
C399 C 0.12364 0.37783 0.93061 0.0
C400 C 0.1838 0.40528 0.97609 0.0
H401 H 0.23347 0.40534 0.94682 0.0
C402 C 0.18791 0.40658 0.01486 0.0
C403 C 0.20089 0.4058 0.95121 0.0
C404 C 0.19815 0.40594 0.90923 0.0
C405 C 0.20805 0.40709 0.02946 0.0
C406 C 0.22431 0.40593 0.00464 0.0
C407 C 0.22085 0.40594 0.96583 0.0
C408 C 0.24414 0.40316 0.01841 0.0
C409 C 0.21162 0.40859 0.07136 0.0
C410 C 0.26755 0.41966 0.00904 0.0
C411 C 0.28608 0.41643 0.02115 0.0
C412 C 0.28143 0.39651 0.04251 0.0
C413 C 0.25793 0.37998 0.05158 0.0
C414 C 0.2395 0.38325 0.03957 0.0
H415 H 0.20208 0.41656 0.08522 0.0
H416 H 0.2046 0.39055 0.08285 0.0
H417 H 0.23062 0.41914 0.07865 0.0
H418 H 0.27148 0.43504 -0.00758 0.0
H419 H 0.30399 0.42942 0.0136 0.0
H420 H 0.88011 0.29984 0.33446 0.0
H421 H 0.84308 0.26626 0.3124 0.0
H422 H 0.8458 0.22353 0.40219 0.0
H423 H 0.88333 0.25661 0.42298 0.0
H424 H 0.83684 0.20053 0.34087 0.0
H425 H 0.77685 0.2369 0.3479 0.0
H426 H 0.80204 0.25468 0.31907 0.0
H427 H 0.8059 0.25181 0.36843 0.0
C428 C 0.87261 0.28333 0.34968 0.0
C429 C 0.88458 0.28077 0.38035 0.0
C430 C 0.85134 0.26419 0.33726 0.0
C431 C 0.84136 0.24239 0.35596 0.0
C432 C 0.85308 0.24012 0.38726 0.0
H433 H 0.70118 0.1219 0.31135 0.0
H434 H 0.73471 0.15783 0.337 0.0
C435 C 0.87454 0.25904 0.39914 0.0
C436 C 0.81978 0.22138 0.34143 0.0
H437 H 0.76312 0.20125 0.31256 0.0
C438 C 0.82068 0.20069 0.33503 0.0
C439 C 0.7985 0.22136 0.33425 0.0
C440 C 0.79565 0.24231 0.34316 0.0
C441 C 0.80113 0.18016 0.32132 0.0
C442 C 0.78032 0.18054 0.31204 0.0
C443 C 0.7792 0.20106 0.31906 0.0
C444 C 0.7596 0.15977 0.29515 0.0
C445 C 0.80294 0.15814 0.31782 0.0
C446 C 0.76223 0.14934 0.26249 0.0
C447 C 0.74331 0.12862 0.24838 0.0
C448 C 0.72116 0.11834 0.26594 0.0
C449 C 0.7181 0.12949 0.29732 0.0
C450 C 0.73723 0.14999 0.31196 0.0
H451 H 0.81642 0.15858 0.33721 0.0
H452 H 0.78581 0.14204 0.32388 0.0
H453 H 0.80838 0.15687 0.28885 0.0
H454 H 0.77906 0.157 0.24821 0.0
H455 H 0.74605 0.12059 0.22377 0.0
H456 H 0.57088 0.87078 0.69774 0.0
H457 H 0.56476 0.83204 0.67873 0.0
H458 H 0.63937 0.85812 0.68981 0.0
H459 H 0.64545 0.89634 0.70979 0.0
H460 H 0.58204 0.81883 0.61998 0.0
H461 H 0.61271 0.79922 0.75232 0.0
H462 H 0.60633 0.82293 0.74843 0.0
H463 H 0.63438 0.82705 0.73323 0.0
C464 C 0.58592 0.86816 0.6962 0.0
C465 C 0.6086 0.88648 0.70568 0.0
C466 C 0.58241 0.84605 0.68539 0.0
C467 C 0.60152 0.842 0.68381 0.0
C468 C 0.62424 0.86056 0.69207 0.0
H469 H 0.63887 0.7495 0.58158 0.0
H470 H 0.63299 0.78124 0.60501 0.0
C471 C 0.62771 0.88247 0.70324 0.0
C472 C 0.5981 0.81866 0.6726 0.0
H473 H 0.61214 0.77691 0.69808 0.0
C474 C 0.58823 0.80945 0.63734 0.0
C475 C 0.6059 0.80622 0.69546 0.0
C476 C 0.61518 0.81424 0.73462 0.0
C477 C 0.58729 0.78891 0.6235 0.0
C478 C 0.5965 0.77746 0.6454 0.0
C479 C 0.60525 0.78592 0.68132 0.0
C480 C 0.5991 0.75794 0.63017 0.0
C481 C 0.57723 0.7799 0.58509 0.0
C482 C 0.58191 0.73436 0.63671 0.0
C483 C 0.58518 0.71609 0.6233 0.0
C484 C 0.60575 0.72123 0.60336 0.0
C485 C 0.62281 0.74493 0.59677 0.0
C486 C 0.61951 0.7631 0.61008 0.0
H487 H 0.56899 0.78962 0.57278 0.0
H488 H 0.59148 0.78169 0.56611 0.0
H489 H 0.5638 0.76086 0.58665 0.0
H490 H 0.56609 0.73014 0.65233 0.0
H491 H 0.57173 0.69802 0.62881 0.0
H492 H 0.75106 0.63908 0.06829 0.0
H493 H 0.78349 0.63399 0.04609 0.0
H494 H 0.7339 0.56908 -0.00847 0.0
H495 H 0.70118 0.57413 0.01348 0.0
H496 H 0.79194 0.59614 0.05878 0.0
H497 H 0.78066 0.60864 0.90745 0.0
H498 H 0.76701 0.61674 0.94405 0.0
H499 H 0.755 0.58632 0.93144 0.0
C500 C 0.74699 0.6237 0.05155 0.0
C501 C 0.72354 0.60706 0.04248 0.0
C502 C 0.76556 0.6208 0.03899 0.0
C503 C 0.76111 0.60129 0.01691 0.0
C504 C 0.73772 0.58443 0.00814 0.0
H505 H 0.87535 0.57175 0.9633 0.0
H506 H 0.83763 0.56691 0.9851 0.0
C507 C 0.71906 0.5873 0.02081 0.0
C508 C 0.78118 0.59897 0.00296 0.0
H509 H 0.81147 0.60165 0.92344 0.0
C510 C 0.79613 0.59711 0.02918 0.0
C511 C 0.78665 0.60046 0.96434 0.0
C512 C 0.77165 0.60333 0.93508 0.0
C513 C 0.81671 0.59718 0.01788 0.0
C514 C 0.82228 0.59885 0.97927 0.0
C515 C 0.80705 0.60021 0.953 0.0
C516 C 0.84476 0.60117 0.96571 0.0
C517 C 0.83282 0.59647 0.04743 0.0
C518 C 0.86103 0.62179 0.94694 0.0
C519 C 0.88242 0.62453 0.93431 0.0
C520 C 0.888 0.60665 0.94009 0.0
C521 C 0.87161 0.58588 0.95861 0.0
C522 C 0.85011 0.58313 0.97122 0.0
H523 H 0.82844 0.60002 0.07591 0.0
H524 H 0.83105 0.57872 0.04764 0.0
H525 H 0.85151 0.6096 0.04122 0.0
H526 H 0.85725 0.63592 0.94238 0.0
H527 H 0.89463 0.64074 0.92013 0.0
H528 H 0.12269 0.70232 0.33453 0.0
H529 H 0.15943 0.73581 0.31123 0.0
H530 H 0.15636 0.77975 0.39869 0.0
H531 H 0.11921 0.74673 0.42082 0.0
H532 H 0.1646 0.80138 0.3354 0.0
H533 H 0.2259 0.76665 0.34724 0.0
H534 H 0.20066 0.74815 0.31897 0.0
H535 H 0.19689 0.75191 0.36803 0.0
C536 C 0.13005 0.71908 0.34898 0.0
C537 C 0.1181 0.72197 0.37942 0.0
C538 C 0.15115 0.73817 0.33584 0.0
C539 C 0.16093 0.76029 0.35352 0.0
C540 C 0.14922 0.76291 0.38454 0.0
H541 H 0.30019 0.88233 0.31354 0.0
H542 H 0.26654 0.84577 0.33726 0.0
C543 C 0.12798 0.74402 0.39719 0.0
C544 C 0.18233 0.78121 0.33831 0.0
H545 H 0.23957 0.80211 0.31182 0.0
C546 C 0.18102 0.80153 0.33051 0.0
C547 C 0.20389 0.7816 0.33229 0.0
C548 C 0.20704 0.76099 0.34244 0.0
C549 C 0.20052 0.82213 0.31682 0.0
C550 C 0.22175 0.82219 0.30909 0.0
C551 C 0.2232 0.80197 0.31721 0.0
C552 C 0.24268 0.84324 0.29315 0.0
C553 C 0.19823 0.84379 0.31184 0.0
C554 C 0.24071 0.85357 0.25987 0.0
C555 C 0.25968 0.87465 0.24685 0.0
C556 C 0.28124 0.88543 0.26616 0.0
C557 C 0.28372 0.87438 0.29817 0.0
C558 C 0.26453 0.8535 0.31169 0.0
H559 H 0.18405 0.84309 0.32987 0.0
H560 H 0.21497 0.86014 0.31862 0.0
H561 H 0.19354 0.84482 0.28228 0.0
H562 H 0.22432 0.84556 0.24431 0.0
H563 H 0.25741 0.88261 0.22174 0.0
H564 H 0.36473 0.1108 0.73115 0.0
H565 H 0.36927 0.14801 0.70859 0.0
H566 H 0.43589 0.16545 0.65809 0.0
H567 H 0.43135 0.12794 0.68028 0.0
H568 H 0.4052 0.19437 0.72291 0.0
H569 H 0.39841 0.17229 0.57114 0.0
H570 H 0.39015 0.1503 0.60737 0.0
H571 H 0.42072 0.16989 0.59682 0.0
C572 C 0.38037 0.12251 0.71524 0.0
C573 C 0.39763 0.11635 0.70733 0.0
C574 C 0.38296 0.14381 0.70245 0.0
C575 C 0.40279 0.15938 0.68135 0.0
C576 C 0.42027 0.15351 0.67384 0.0
H577 H 0.43064 0.30252 0.62809 0.0
H578 H 0.43556 0.26983 0.65047 0.0
C579 C 0.4177 0.13213 0.68667 0.0
C580 C 0.4048 0.18159 0.66717 0.0
H581 H 0.40408 0.20968 0.58697 0.0
C582 C 0.40517 0.19786 0.69319 0.0
C583 C 0.40453 0.18594 0.62838 0.0
C584 C 0.40325 0.16865 0.59919 0.0
C585 C 0.40485 0.21817 0.6815 0.0
C586 C 0.40448 0.22245 0.64271 0.0
C587 C 0.40454 0.20641 0.61668 0.0
C588 C 0.40215 0.24248 0.62858 0.0
C589 C 0.40394 0.23436 0.71072 0.0
C590 C 0.38201 0.23795 0.6082 0.0
C591 C 0.37921 0.25651 0.59528 0.0
C592 C 0.39657 0.28003 0.60234 0.0
C593 C 0.41692 0.28459 0.62234 0.0
C594 C 0.41971 0.26594 0.63529 0.0
H595 H 0.39958 0.2261 0.73897 0.0
H596 H 0.42141 0.25068 0.71238 0.0
H597 H 0.39067 0.23945 0.70308 0.0
H598 H 0.36827 0.21998 0.60268 0.0
H599 H 0.36334 0.25238 0.57992 0.0
H600 H 0.32641 0.34509 0.66398 0.0
H601 H 0.31726 0.34203 0.73085 0.0
H602 H 0.35368 0.30326 0.74807 0.0
H603 H 0.36351 0.30676 0.6814 0.0
H604 H 0.29426 0.30538 0.78158 0.0
H605 H 0.3895 0.36018 0.81577 0.0
H606 H 0.3785 0.35665 0.76851 0.0
H607 H 0.38216 0.33385 0.79 0.0
C608 C 0.33231 0.33572 0.68189 0.0
C609 C 0.34607 0.32654 0.66746 0.0
C610 C 0.327 0.33394 0.7201 0.0
C611 C 0.33523 0.32287 0.74448 0.0
C612 C 0.34768 0.3124 0.72983 0.0
H613 H 0.33923 0.31858 0.98723 0.0
H614 H 0.33682 0.308 0.92112 0.0
C615 C 0.35323 0.31438 0.69171 0.0
C616 C 0.33218 0.32375 0.78546 0.0
H617 H 0.36314 0.34516 0.86673 0.0
C618 C 0.30929 0.314 0.80026 0.0
C619 C 0.35186 0.33521 0.80968 0.0
C620 C 0.37689 0.34727 0.79524 0.0
C621 C 0.30561 0.31534 0.83878 0.0
C622 C 0.3253 0.32676 0.86281 0.0
C623 C 0.34811 0.33623 0.84811 0.0
C624 C 0.32299 0.33022 0.90316 0.0
C625 C 0.28077 0.30452 0.85362 0.0
C626 C 0.31568 0.34598 0.91489 0.0
C627 C 0.3172 0.35226 0.95267 0.0
C628 C 0.32611 0.34289 0.97931 0.0
C629 C 0.33236 0.32622 0.96755 0.0
C630 C 0.33095 0.32008 0.92978 0.0
H631 H 0.2676 0.29224 0.83306 0.0
H632 H 0.27889 0.29483 0.88012 0.0
H633 H 0.27675 0.31874 0.85979 0.0
H634 H 0.30981 0.35424 0.89461 0.0
H635 H 0.31213 0.36504 0.96073 0.0
H636 H 0.01872 0.33911 0.31464 0.0
H637 H 0.02441 0.33596 0.24768 0.0
H638 H 0.94953 0.30415 0.22959 0.0
H639 H 0.94362 0.30765 0.29641 0.0
H640 H 0.00698 0.2993 0.19498 0.0
H641 H 0.97728 0.36362 0.16513 0.0
H642 H 0.98374 0.35808 0.21192 0.0
H643 H 0.95615 0.33782 0.1901 0.0
C644 C 0.00339 0.33118 0.29656 0.0
C645 C 0.98075 0.32404 0.31084 0.0
C646 C 0.0067 0.32935 0.25829 0.0
C647 C 0.98746 0.32029 0.23365 0.0
C648 C 0.96467 0.31169 0.24809 0.0
H649 H 0.97961 0.31845 -0.00905 0.0
H650 H 0.97096 0.30799 0.05706 0.0
C651 C 0.96134 0.31367 0.28631 0.0
C652 C 0.9915 0.32155 0.19268 0.0
H653 H 0.9861 0.34728 0.113 0.0
C654 C 0.00237 0.30972 0.17699 0.0
C655 C 0.98566 0.33537 0.1694 0.0
C656 C 0.97527 0.34964 0.18494 0.0
C657 C 0.00741 0.31126 0.13845 0.0
C658 C 1.00146 0.32498 0.11535 0.0
C659 C 0.99043 0.33661 0.13094 0.0
C660 C 0.00725 0.32844 0.07503 0.0
C661 C 0.01896 0.29821 0.12252 0.0
C662 C 0.03059 0.34321 0.06338 0.0
C663 C 0.03564 0.34946 0.02564 0.0
C664 C 0.01737 0.34099 -0.00104 0.0
C665 C 0.99412 0.32533 0.01066 0.0
C666 C 0.9891 0.31927 0.04842 0.0
H667 H 0.01905 0.28542 0.14286 0.0
H668 H 0.00972 0.28864 0.09662 0.0
H669 H 0.03747 0.31107 0.11486 0.0
H670 H 0.04478 0.35067 0.08371 0.0
H671 H 0.05375 0.36144 0.01759 0.0
H672 H 0.69737 0.00519 0.65118 0.0
H673 H 0.70881 0.01246 0.58499 0.0
H674 H 0.63596 0.96833 0.55282 0.0
H675 H 0.62474 0.95991 0.61858 0.0
H676 H 0.66251 0.96129 0.50719 0.0
H677 H 0.70112 0.05812 0.52279 0.0
H678 H 0.71551 0.04611 0.55022 0.0
H679 H 0.68541 0.03788 0.56031 0.0
C680 C 0.68387 0.99693 0.62987 0.0
C681 C 0.66014 0.98217 0.63996 0.0
C682 C 0.6904 1.00122 0.59209 0.0
C683 C 0.67318 0.99149 0.56386 0.0
C684 C 0.64959 0.97613 0.57402 0.0
H685 H 0.66357 0.04345 0.35271 0.0
H686 H 0.66717 0.03498 0.41808 0.0
C687 C 0.64317 0.97135 0.61165 0.0
C688 C 0.67918 0.99774 0.52375 0.0
H689 H 0.70139 0.044 0.46255 0.0
C690 C 0.6711 0.97939 0.49738 0.0
C691 C 0.69042 0.02139 0.51099 0.0
C692 C 0.69844 0.042 0.53748 0.0
C693 C 0.67262 0.98387 0.45871 0.0
C694 C 0.68359 0.00751 0.44596 0.0
C695 C 0.69297 0.0259 0.47233 0.0
C696 C 0.68307 0.01358 0.40595 0.0
C697 C 0.66109 0.96311 0.43226 0.0
C698 C 0.69123 0.00481 0.37719 0.0
C699 C 0.6885 0.00908 0.33959 0.0
C700 C 0.6784 0.02293 0.33027 0.0
C701 C 0.67148 0.03277 0.35909 0.0
C702 C 0.67358 0.02795 0.39649 0.0
H703 H 0.64851 0.9466 0.44702 0.0
H704 H 0.65142 0.96631 0.40961 0.0
H705 H 0.67486 0.96026 0.41927 0.0
H706 H 0.69939 0.9944 0.38371 0.0
H707 H 0.69428 0.00157 0.31784 0.0
H708 H 0.68003 0.66058 0.66415 0.0
H709 H 0.68894 0.66334 0.73106 0.0
H710 H 0.64804 0.69739 0.7499 0.0
H711 H 0.63853 0.69425 0.68317 0.0
H712 H 0.70951 0.69986 0.78344 0.0
H713 H 0.61489 0.63847 0.81491 0.0
H714 H 0.62655 0.64352 0.76789 0.0
H715 H 0.62041 0.66454 0.78999 0.0
C716 C 0.6731 0.66888 0.68241 0.0
C717 C 0.6582 0.67679 0.66838 0.0
C718 C 0.67828 0.67049 0.72064 0.0
C719 C 0.66874 0.68011 0.74547 0.0
C720 C 0.65511 0.6894 0.73127 0.0
H721 H 0.66331 0.68285 0.98791 0.0
H722 H 0.66554 0.69334 0.92178 0.0
C723 C 0.64974 0.68761 0.69311 0.0
C724 C 0.67163 0.67885 0.78638 0.0
H725 H 0.64048 0.65446 0.86665 0.0
C726 C 0.69444 0.68999 0.8017 0.0
C727 C 0.65192 0.66575 0.81001 0.0
C728 C 0.62707 0.65219 0.79491 0.0
C729 C 0.69801 0.6885 0.84021 0.0
C730 C 0.67828 0.67552 0.86367 0.0
C731 C 0.65552 0.66457 0.84844 0.0
C732 C 0.6806 0.67216 0.90401 0.0
C733 C 0.72273 0.70083 0.85572 0.0
C734 C 0.68863 0.65699 0.91579 0.0
C735 C 0.68719 0.65073 0.95356 0.0
C736 C 0.67767 0.65957 0.98012 0.0
C737 C 0.67068 0.67565 0.96829 0.0
C738 C 0.67198 0.68174 0.93053 0.0
H739 H 0.73575 0.71334 0.8352 0.0
H740 H 0.72363 0.71058 0.88171 0.0
H741 H 0.72779 0.6875 0.86311 0.0
H742 H 0.69505 0.64919 0.89555 0.0
H743 H 0.69285 0.63842 0.96171 0.0
H744 H 0.05846 0.69938 0.30045 0.0
H745 H 0.05259 0.70362 0.2339 0.0
H746 H 0.97723 0.66255 0.2494 0.0
H747 H 0.98289 0.65886 0.31605 0.0
H748 H 0.03343 0.66796 0.18675 0.0
H749 H 0.98135 0.71312 0.18155 0.0
H750 H 0.99632 0.71231 0.22351 0.0
H751 H 0.96784 0.68776 0.2115 0.0
C752 C 0.04062 0.69163 0.28984 0.0
C753 C 0.02114 0.67867 0.31353 0.0
C754 C 0.0373 0.69413 0.2518 0.0
C755 C 0.01447 0.68365 0.23668 0.0
C756 C 0.99499 0.67136 0.26053 0.0
H757 H 0.95129 0.63257 0.02246 0.0
H758 H 0.96023 0.64429 0.08817 0.0
C759 C 0.99828 0.66909 0.29865 0.0
C760 C 0.0111 0.68295 0.1955 0.0
H761 H 0.97996 0.69119 0.12618 0.0
C762 C 0.02208 0.67345 0.17346 0.0
C763 C 0.99619 0.69002 0.17817 0.0
C764 C 0.98496 0.7016 0.19991 0.0
C765 C 0.01786 0.66995 0.13487 0.0
C766 C 0.00237 0.67629 0.1178 0.0
C767 C 0.99177 0.68629 0.13951 0.0
C768 C 0.99626 0.6715 0.07768 0.0
C769 C 0.02931 0.65867 0.11285 0.0
C770 C 0.01341 0.68341 0.05006 0.0
C771 C 0.00845 0.67673 0.0125 0.0
C772 C 0.98619 0.65801 0.00191 0.0
C773 C 0.96867 0.64692 0.02958 0.0
C774 C 0.97369 0.65364 0.06714 0.0
H775 H 0.03747 0.65111 0.13137 0.0
H776 H 0.0162 0.64446 0.09448 0.0
H777 H 0.04333 0.67215 0.09466 0.0
H778 H 0.03087 0.69742 0.05773 0.0
H779 H 0.0223 0.68585 -0.00802 0.0
H780 H 0.30688 0.94415 0.34874 0.0
H781 H 0.30316 0.95008 0.41545 0.0
H782 H 0.33309 0.0247 0.39642 0.0
H783 H 0.33634 0.01891 0.32968 0.0
H784 H 0.34027 0.97546 0.45936 0.0
H785 H 0.28085 0.0125 0.46838 0.0
H786 H 0.28311 0.99812 0.42669 0.0
H787 H 0.30456 0.02848 0.43596 0.0
C788 C 0.31225 0.96177 0.35859 0.0
C789 C 0.32209 0.98108 0.33384 0.0
C790 C 0.31005 0.96511 0.39674 0.0
C791 C 0.31764 0.9878 0.41091 0.0
C792 C 0.32659 0.00696 0.38606 0.0
H793 H 0.37012 0.05369 0.62421 0.0
H794 H 0.35825 0.04466 0.55847 0.0
C795 C 0.32862 0.00362 0.34786 0.0
C796 C 0.31908 0.99185 0.45196 0.0
H797 H 0.3056 0.01867 0.52218 0.0
C798 C 0.33235 0.98458 0.47313 0.0
C799 C 0.30884 0.00385 0.46991 0.0
C800 C 0.29334 0.01097 0.4491 0.0
C801 C 0.3363 0.98961 0.51147 0.0
C802 C 0.32669 0.00221 0.5291 0.0
C803 C 0.31303 0.00914 0.50831 0.0
C804 C 0.33127 0.00858 0.5691 0.0
C805 C 0.35123 0.98198 0.53283 0.0
C806 C 0.31959 0.99137 0.59667 0.0
C807 C 0.3263 0.99639 0.63419 0.0
C808 C 0.34494 0.01872 0.64475 0.0
C809 C 0.35583 0.03627 0.6171 0.0
C810 C 0.34902 0.03121 0.57955 0.0
H811 H 0.35933 0.9744 0.51418 0.0
H812 H 0.36547 0.99721 0.54818 0.0
H813 H 0.34014 0.96847 0.55389 0.0
H814 H 0.30585 0.97379 0.58896 0.0
H815 H 0.31739 0.98247 0.65467 0.0
H816 H 0.41912 0.4141 0.13425 0.0
H817 H 0.45927 0.44756 0.13175 0.0
H818 H 0.4421 0.47231 0.03109 0.0
H819 H 0.40146 0.43943 0.03463 0.0
H820 H 0.49259 0.4592 0.0829 0.0
H821 H 0.47248 0.53184 0.08948 0.0
H822 H 0.45031 0.50152 0.09747 0.0
H823 H 0.4587 0.51255 0.05041 0.0
C824 C 0.42385 0.4268 0.11176 0.0
C825 C 0.40712 0.42424 0.08476 0.0
C826 C 0.44683 0.4459 0.1103 0.0
C827 C 0.45372 0.46272 0.08154 0.0
C828 C 0.4371 0.46002 0.0542 0.0
H829 H 0.60426 0.56104 0.03899 0.0
H830 H 0.56378 0.52789 0.03522 0.0
C831 C 0.4139 0.44114 0.05611 0.0
C832 C 0.47847 0.48263 0.08 0.0
H833 H 0.51216 0.54265 0.07677 0.0
C834 C 0.49685 0.47746 0.08167 0.0
C835 C 0.4841 0.50649 0.07871 0.0
C836 C 0.46537 0.51347 0.0793 0.0
C837 C 0.52061 0.4954 0.08263 0.0
C838 C 0.52624 0.51923 0.08041 0.0
C839 C 0.50787 0.52439 0.07822 0.0
C840 C 0.55093 0.5392 0.08227 0.0
C841 C 0.5393 0.48857 0.08746 0.0
C842 C 0.5571 0.55697 0.1092 0.0
C843 C 0.58003 0.57616 0.11083 0.0
C844 C 0.59741 0.57791 0.08578 0.0
C845 C 0.59132 0.56003 0.05897 0.0
C846 C 0.56821 0.54101 0.05693 0.0
H847 H 0.53188 0.47062 0.0996 0.0
H848 H 0.54687 0.4885 0.05966 0.0
H849 H 0.55377 0.50123 0.1059 0.0
H850 H 0.54414 0.55601 0.12909 0.0
H851 H 0.58416 0.58958 0.13191 0.0
H852 H 0.03964 0.6023 0.36576 0.0
H853 H 0.03135 0.56156 0.36016 0.0
H854 H 0.99039 0.54344 0.46208 0.0
H855 H 0.99757 0.58369 0.46662 0.0
H856 H 0.04151 0.53543 0.40074 0.0
H857 H 0.94442 0.49205 0.39702 0.0
H858 H 0.963 0.5236 0.39358 0.0
H859 H 0.95563 0.50932 0.43877 0.0
C860 C 0.0288 0.58956 0.38686 0.0
C861 C 0.01901 0.59606 0.41638 0.0
C862 C 0.02404 0.56628 0.38362 0.0
C863 C 0.00967 0.54919 0.41012 0.0
C864 C 1.0007 0.55598 0.44043 0.0
H865 H 0.01045 0.42082 0.45875 0.0
H866 H 0.0172 0.46089 0.45465 0.0
C867 C 0.00501 0.57907 0.44321 0.0
C868 C 0.0047 0.52447 0.40688 0.0
H869 H 0.96045 0.46704 0.41161 0.0
C870 C 0.02375 0.5205 0.40269 0.0
C871 C 0.98149 0.50488 0.40846 0.0
C872 C 0.95999 0.50769 0.40926 0.0
C873 C 0.02032 0.49757 0.40145 0.0
C874 C 0.99729 0.47804 0.40607 0.0
C875 C 0.97816 0.48198 0.40879 0.0
C876 C 0.99273 0.45346 0.40893 0.0
C877 C 0.04144 0.49461 0.39468 0.0
C878 C 0.97582 0.43557 0.3859 0.0
C879 C 0.97148 0.41242 0.38885 0.0
C880 C 0.98412 0.4068 0.41468 0.0
C881 C 1.00071 0.42466 0.43813 0.0
C882 C 0.00474 0.44765 0.4356 0.0
H883 H 0.05542 0.50983 0.37889 0.0
H884 H 0.04904 0.49377 0.42203 0.0
H885 H 0.03656 0.47823 0.37878 0.0
H886 H 0.96616 0.43956 0.36534 0.0
H887 H 0.95857 0.39905 0.37041 0.0
H888 H 0.6031 0.02299 0.76482 0.0
H889 H 0.56962 0.02963 0.76357 0.0
H890 H 0.52361 0.95714 0.73199 0.0
H891 H 0.55701 0.95018 0.73319 0.0
H892 H 0.53838 0.02186 0.70026 0.0
H893 H 0.49174 0.96804 0.82552 0.0
H894 H 0.52254 0.97844 0.81649 0.0
H895 H 0.50023 0.95385 0.79068 0.0
C896 C 0.58588 0.00837 0.7577 0.0
C897 C 0.5828 0.98599 0.74918 0.0
C898 C 0.56678 0.01225 0.75694 0.0
C899 C 0.54416 0.99384 0.748 0.0
C900 C 0.54092 0.9715 0.73942 0.0
H901 H 0.40611 0.98058 0.74176 0.0
H902 H 0.43997 0.97461 0.7397 0.0
C903 C 0.56006 0.96759 0.74001 0.0
C904 C 0.52405 0.99819 0.74717 0.0
H905 H 0.47235 0.98405 0.79107 0.0
C906 C 0.52391 0.01365 0.72009 0.0
C907 C 0.50527 0.98741 0.77308 0.0
C908 C 0.50489 0.97113 0.80333 0.0
C909 C 0.50518 0.01826 0.71769 0.0
C910 C 0.48642 0.0076 0.74382 0.0
C911 C 0.48669 0.99222 0.77103 0.0
C912 C 0.46606 0.01172 0.74323 0.0
C913 C 0.50543 0.03395 0.68653 0.0
C914 C 0.46938 0.0346 0.74584 0.0
C915 C 0.44997 0.0381 0.74641 0.0
C916 C 0.42688 0.01873 0.7453 0.0
C917 C 0.42365 0.99587 0.74286 0.0
C918 C 0.44301 0.99243 0.74168 0.0
H919 H 0.51689 0.03478 0.66291 0.0
H920 H 0.4874 0.02771 0.67555 0.0
H921 H 0.51252 0.05212 0.69745 0.0
H922 H 0.48694 0.04974 0.74814 0.0
H923 H 0.45302 0.0559 0.74874 0.0
H924 H 0.59115 0.58462 0.51055 0.0
H925 H 0.55771 0.5444 0.51153 0.0
H926 H 0.53016 0.56113 0.60945 0.0
H927 H 0.56304 0.60179 0.60741 0.0
H928 H 0.54478 0.51092 0.56051 0.0
H929 H 0.47232 0.53082 0.54695 0.0
H930 H 0.50282 0.55305 0.54069 0.0
H931 H 0.49048 0.54473 0.58708 0.0
C932 C 0.57785 0.57977 0.53211 0.0
C933 C 0.57963 0.59637 0.55877 0.0
C934 C 0.55875 0.55676 0.53269 0.0
C935 C 0.54116 0.54974 0.56022 0.0
C936 C 0.54308 0.56624 0.58724 0.0
H937 H 0.44266 0.40005 0.60568 0.0
H938 H 0.47591 0.44052 0.60791 0.0
C939 C 0.56196 0.58945 0.58619 0.0
C940 C 0.52127 0.52498 0.561 0.0
H941 H 0.46122 0.49126 0.56175 0.0
C942 C 0.52649 0.50662 0.5606 0.0
C943 C 0.49739 0.51932 0.56072 0.0
C944 C 0.49039 0.53802 0.55849 0.0
C945 C 0.5086 0.48286 0.5597 0.0
C946 C 0.48472 0.4772 0.56067 0.0
C947 C 0.4795 0.49555 0.5613 0.0
C948 C 0.4648 0.45246 0.55951 0.0
C949 C 0.51555 0.46417 0.5564 0.0
C950 C 0.4471 0.44579 0.5323 0.0
C951 C 0.42783 0.42289 0.53159 0.0
C952 C 0.42596 0.40604 0.55783 0.0
C953 C 0.44379 0.41258 0.58482 0.0
C954 C 0.46287 0.43568 0.58597 0.0
H955 H 0.53358 0.47146 0.54459 0.0
H956 H 0.51553 0.45712 0.58469 0.0
H957 H 0.50304 0.44934 0.53836 0.0
H958 H 0.44816 0.45837 0.51155 0.0
H959 H 0.41443 0.41836 0.51033 0.0
H960 H 0.00679 0.58742 0.84426 0.0
H961 H 0.0128 0.55356 0.84495 0.0
H962 H 0.96844 0.52642 0.94288 0.0
H963 H 0.96146 0.5598 0.94121 0.0
H964 H 0.03319 0.54062 0.89422 0.0
H965 H 0.9406 0.46842 0.88032 0.0
H966 H 0.94909 0.49895 0.87395 0.0
H967 H 0.94495 0.48668 0.92038 0.0
C968 C 0.99813 0.57412 0.86576 0.0
C969 C 0.98358 0.57622 0.89261 0.0
C970 C 1.00161 0.55478 0.86615 0.0
C971 C 0.99085 0.53721 0.89366 0.0
C972 C 0.97641 0.53934 0.92072 0.0
H973 H 0.04165 0.43862 0.93943 0.0
H974 H 0.03415 0.47164 0.94186 0.0
C975 C 0.97254 0.55851 0.91989 0.0
C976 C 0.99556 0.51723 0.89451 0.0
H977 H 0.96895 0.45715 0.89506 0.0
C978 C 0.01912 0.52236 0.89424 0.0
C979 C 0.97724 0.49337 0.89413 0.0
C980 C 0.95157 0.48649 0.89182 0.0
C981 C 0.02488 0.50441 0.89337 0.0
C982 C 0.00657 0.48056 0.89425 0.0
C983 C 0.98301 0.47542 0.89472 0.0
C984 C 0.01132 0.46062 0.89318 0.0
C985 C 0.05052 0.51128 0.89019 0.0
C986 C 1.00045 0.443 0.86579 0.0
C987 C 0.00426 0.42385 0.86493 0.0
C988 C 0.01923 0.42201 0.89122 0.0
C989 C 0.03026 0.43972 0.91851 0.0
C990 C 0.02608 0.45868 0.91978 0.0
H991 H 0.06135 0.52931 0.87844 0.0
H992 H 0.05748 0.51121 0.91851 0.0
H993 H 0.0528 0.49876 0.87214 0.0
H994 H 0.989 0.44406 0.84495 0.0
H995 H 0.99557 0.41055 0.84345 0.0
H996 H 0.606 0.05573 0.23791 0.0
H997 H 0.56577 0.04907 0.24167 0.0
H998 H 0.53784 0.97466 0.2242 0.0
H999 H 0.57783 0.98101 0.22027 0.0
H1000 H 0.52896 0.02548 0.18274 0.0
H1001 H 0.50417 0.98042 0.32119 0.0
H1002 H 0.53449 0.99916 0.30702 0.0
H1003 H 0.51763 0.96993 0.28822 0.0
C1004 C 0.59133 0.03792 0.23501 0.0
C1005 C 0.5952 0.01891 0.22881 0.0
C1006 C 0.56837 0.03417 0.23716 0.0
C1007 C 0.54892 0.01135 0.23364 0.0
C1008 C 0.55266 0.99236 0.22749 0.0
H1009 H 0.39675 0.94995 0.23802 0.0
H1010 H 0.43722 0.95714 0.23864 0.0
C1011 C 0.57556 0.99608 0.22505 0.0
C1012 C 0.52463 0.00742 0.23503 0.0
H1013 H 0.47388 0.98136 0.28653 0.0
C1014 C 0.51691 0.01596 0.20549 0.0
C1015 C 0.50899 0.99479 0.2646 0.0
C1016 C 0.51667 0.98564 0.29728 0.0
C1017 C 0.49373 0.01184 0.20435 0.0
C1018 C 0.47809 0.99942 0.23417 0.0
C1019 C 0.48588 0.9909 0.26375 0.0
C1020 C 0.45359 0.99513 0.23512 0.0
C1021 C 0.48608 0.02026 0.17065 0.0
C1022 C 0.44936 0.01409 0.23387 0.0
C1023 C 0.42632 0.01004 0.23311 0.0
C1024 C 0.40696 0.98692 0.23429 0.0
C1025 C 0.41124 0.96796 0.23701 0.0
C1026 C 0.43435 0.97204 0.23735 0.0
H1027 H 0.49751 0.02295 0.14596 0.0
H1028 H 0.46754 0.00752 0.16291 0.0
H1029 H 0.48739 0.03742 0.17729 0.0
H1030 H 0.46391 0.03208 0.2333 0.0
H1031 H 0.42369 0.02508 0.23159 0.0
loop_
_geom_bond_atom_site_label_1
_geom_bond_atom_site_label_2
_geom_bond_distance
_geom_bond_site_symmetry_2
_ccdc_geom_bond_type
Co0 O1 2.216 . S
Co0 O2 2.091 . S
Co0 O4 2.004 . S
Co0 O10 2.021 . S
Co0 O12 2.137 . S
Co0 O13 2.244 . S
O1 Co0 2.216 . S
O1 C8 1.247 . S
O2 Co0 2.091 . S
O2 C8 1.261 . S
C3 O12 1.247 . S
C3 O13 1.272 . S
O4 Co0 2.004 . S
O4 C9 1.259 . S
Co5 O6 2.061 . S
Co5 O11 2.052 . S
Co5 O13 2.135 . S
O6 Co5 2.061 . S
O6 C9 1.235 . S
C7 O10 1.238 . S
C7 O11 1.241 . S
C8 O1 1.247 . S
C8 O2 1.261 . S
C9 O4 1.259 . S
C9 O6 1.235 . S
O10 Co0 2.021 . S
O10 C7 1.238 . S
O11 Co5 2.052 . S
O11 C7 1.241 . S
O12 Co0 2.137 . S
O12 C3 1.247 . S
O13 Co0 2.244 . S
O13 C3 1.272 . S
O13 Co5 2.135 . S
Co14 O15 2.216 . S
Co14 O16 2.091 . S
Co14 O18 2.004 . S
Co14 O24 2.021 . S
Co14 O26 2.137 . S
Co14 O27 2.244 . S
O15 Co14 2.216 . S
O15 C22 1.247 . S
O16 Co14 2.091 . S
O16 C22 1.261 . S
C17 O26 1.247 . S
C17 O27 1.272 . S
O18 Co14 2.004 . S
O18 C23 1.259 . S
Co19 O20 2.061 1_455 S
Co19 O25 2.052 . S
Co19 O27 2.135 1_455 S
O20 Co19 2.061 1_655 S
O20 C23 1.235 . S
C21 O24 1.238 . S
C21 O25 1.241 1_655 S
C22 O15 1.247 . S
C22 O16 1.261 . S
C23 O18 1.259 . S
C23 O20 1.235 . S
O24 Co14 2.021 . S
O24 C21 1.238 . S
O25 Co19 2.052 . S
O25 C21 1.241 1_455 S
O26 Co14 2.137 . S
O26 C17 1.247 . S
O27 Co14 2.244 . S
O27 C17 1.272 . S
O27 Co19 2.135 1_655 S
Co28 O29 2.216 . S
Co28 O30 2.091 . S
Co28 O32 2.004 . S
Co28 O38 2.021 . S
Co28 O40 2.137 . S
Co28 O41 2.244 . S
O29 Co28 2.216 . S
O29 C36 1.247 . S
O30 Co28 2.091 . S
O30 C36 1.261 . S
C31 O40 1.247 . S
C31 O41 1.272 . S
O32 Co28 2.004 . S
O32 C37 1.259 . S
Co33 O34 2.061 1_545 S
Co33 O39 2.052 . S
Co33 O41 2.135 1_545 S
O34 Co33 2.061 1_565 S
O34 C37 1.235 . S
C35 O38 1.238 . S
C35 O39 1.241 1_565 S
C36 O29 1.247 . S
C36 O30 1.261 . S
C37 O32 1.259 . S
C37 O34 1.235 . S
O38 Co28 2.021 . S
O38 C35 1.238 . S
O39 Co33 2.052 . S
O39 C35 1.241 1_545 S
O40 Co28 2.137 . S
O40 C31 1.247 . S
O41 Co28 2.244 . S
O41 C31 1.272 . S
O41 Co33 2.135 1_565 S
Co42 O43 2.216 . S
Co42 O44 2.091 . S
Co42 O46 2.004 . S
Co42 O52 2.021 . S
Co42 O54 2.137 . S
Co42 O55 2.244 . S
O43 Co42 2.216 . S
O43 C50 1.247 . S
O44 Co42 2.091 . S
O44 C50 1.261 . S
C45 O54 1.247 . S
C45 O55 1.272 . S
O46 Co42 2.004 . S
O46 C51 1.259 . S
Co47 O48 2.061 . S
Co47 O53 2.052 . S
Co47 O55 2.135 . S
O48 Co47 2.061 . S
O48 C51 1.235 . S
C49 O52 1.238 . S
C49 O53 1.241 . S
C50 O43 1.247 . S
C50 O44 1.261 . S
C51 O46 1.259 . S
C51 O48 1.235 . S
O52 Co42 2.021 . S
O52 C49 1.238 . S
O53 Co47 2.052 . S
O53 C49 1.241 . S
O54 Co42 2.137 . S
O54 C45 1.247 . S
O55 Co42 2.244 . S
O55 C45 1.272 . S
O55 Co47 2.135 . S
Co56 O57 2.216 . S
Co56 O58 2.091 . S
Co56 O60 2.004 . S
Co56 O66 2.021 . S
Co56 O68 2.137 . S
Co56 O69 2.244 . S
O57 Co56 2.216 . S
O57 C64 1.247 . S
O58 Co56 2.091 . S
O58 C64 1.261 . S
C59 O68 1.247 . S
C59 O69 1.272 . S
O60 Co56 2.004 . S
O60 C65 1.259 . S
Co61 O62 2.061 1_655 S
Co61 O67 2.052 . S
Co61 O69 2.135 1_655 S
O62 Co61 2.061 1_455 S
O62 C65 1.235 . S
C63 O66 1.238 . S
C63 O67 1.241 1_455 S
C64 O57 1.247 . S
C64 O58 1.261 . S
C65 O60 1.259 . S
C65 O62 1.235 . S
O66 Co56 2.021 . S
O66 C63 1.238 . S
O67 Co61 2.052 . S
O67 C63 1.241 1_655 S
O68 Co56 2.137 . S
O68 C59 1.247 . S
O69 Co56 2.244 . S
O69 C59 1.272 . S
O69 Co61 2.135 1_455 S
Co70 O71 2.216 . S
Co70 O72 2.091 . S
Co70 O74 2.004 . S
Co70 O80 2.021 . S
Co70 O82 2.137 . S
Co70 O83 2.244 . S
O71 Co70 2.216 . S
O71 C78 1.247 . S
O72 Co70 2.091 . S
O72 C78 1.261 . S
C73 O82 1.247 . S
C73 O83 1.272 . S
O74 Co70 2.004 . S
O74 C79 1.259 . S
Co75 O76 2.061 1_565 S
Co75 O81 2.052 . S
Co75 O83 2.135 1_565 S
O76 Co75 2.061 1_545 S
O76 C79 1.235 . S
C77 O80 1.238 . S
C77 O81 1.241 1_545 S
C78 O71 1.247 . S
C78 O72 1.261 . S
C79 O74 1.259 . S
C79 O76 1.235 . S
O80 Co70 2.021 . S
O80 C77 1.238 . S
O81 Co75 2.052 . S
O81 C77 1.241 1_565 S
O82 Co70 2.137 . S
O82 C73 1.247 . S
O83 Co70 2.244 . S
O83 C73 1.272 . S
O83 Co75 2.135 1_545 S
Co84 O85 2.216 . S
Co84 O86 2.091 . S
Co84 O88 2.004 . S
Co84 O94 2.021 . S
Co84 O96 2.137 . S
Co84 O97 2.244 . S
O85 Co84 2.216 . S
O85 C92 1.247 . S
O86 Co84 2.091 . S
O86 C92 1.261 . S
C87 O96 1.247 . S
C87 O97 1.272 . S
O88 Co84 2.004 . S
O88 C93 1.259 . S
Co89 O90 2.061 . S
Co89 O95 2.052 . S
Co89 O97 2.135 . S
O90 Co89 2.061 . S
O90 C93 1.235 . S
C91 O94 1.238 . S
C91 O95 1.241 . S
C92 O85 1.247 . S
C92 O86 1.261 . S
C93 O88 1.259 . S
C93 O90 1.235 . S
O94 Co84 2.021 . S
O94 C91 1.238 . S
O95 Co89 2.052 . S
O95 C91 1.241 . S
O96 Co84 2.137 . S
O96 C87 1.247 . S
O97 Co84 2.244 . S
O97 C87 1.272 . S
O97 Co89 2.135 . S
Co98 O99 2.216 . S
Co98 O100 2.091 . S
Co98 O102 2.004 . S
Co98 O108 2.021 . S
Co98 O110 2.137 . S
Co98 O111 2.244 . S
O99 Co98 2.216 . S
O99 C106 1.247 . S
O100 Co98 2.091 . S
O100 C106 1.261 . S
C101 O110 1.247 . S
C101 O111 1.272 . S
O102 Co98 2.004 . S
O102 C107 1.259 . S
Co103 O104 2.061 1_455 S
Co103 O109 2.052 . S
Co103 O111 2.135 1_455 S
O104 Co103 2.061 1_655 S
O104 C107 1.235 . S
C105 O108 1.238 . S
C105 O109 1.241 1_655 S
C106 O99 1.247 . S
C106 O100 1.261 . S
C107 O102 1.259 . S
C107 O104 1.235 . S
O108 Co98 2.021 . S
O108 C105 1.238 . S
O109 Co103 2.052 . S
O109 C105 1.241 1_455 S
O110 Co98 2.137 . S
O110 C101 1.247 . S
O111 Co98 2.244 . S
O111 C101 1.272 . S
O111 Co103 2.135 1_655 S
Co112 O113 2.216 . S
Co112 O114 2.091 . S
Co112 O116 2.004 . S
Co112 O122 2.021 . S
Co112 O124 2.137 . S
Co112 O125 2.244 . S
O113 Co112 2.216 . S
O113 C120 1.247 . S
O114 Co112 2.091 . S
O114 C120 1.261 . S
C115 O124 1.247 . S
C115 O125 1.272 . S
O116 Co112 2.004 . S
O116 C121 1.259 . S
Co117 O118 2.061 1_545 S
Co117 O123 2.052 . S
Co117 O125 2.135 1_545 S
O118 Co117 2.061 1_565 S
O118 C121 1.235 . S
C119 O122 1.238 . S
C119 O123 1.241 1_565 S
C120 O113 1.247 . S
C120 O114 1.261 . S
C121 O116 1.259 . S
C121 O118 1.235 . S
O122 Co112 2.021 . S
O122 C119 1.238 . S
O123 Co117 2.052 . S
O123 C119 1.241 1_545 S
O124 Co112 2.137 . S
O124 C115 1.247 . S
O125 Co112 2.244 . S
O125 C115 1.272 . S
O125 Co117 2.135 1_565 S
Co126 O127 2.216 . S
Co126 O128 2.091 . S
Co126 O130 2.004 . S
Co126 O136 2.021 . S
Co126 O138 2.137 . S
Co126 O139 2.244 . S
O127 Co126 2.216 . S
O127 C134 1.247 . S
O128 Co126 2.091 . S
O128 C134 1.261 . S
C129 O138 1.247 . S
C129 O139 1.272 . S
O130 Co126 2.004 . S
O130 C135 1.259 . S
Co131 O132 2.061 . S
Co131 O137 2.052 . S
Co131 O139 2.135 . S
O132 Co131 2.061 . S
O132 C135 1.235 . S
C133 O136 1.238 . S
C133 O137 1.241 . S
C134 O127 1.247 . S
C134 O128 1.261 . S
C135 O130 1.259 . S
C135 O132 1.235 . S
O136 Co126 2.021 . S
O136 C133 1.238 . S
O137 Co131 2.052 . S
O137 C133 1.241 . S
O138 Co126 2.137 . S
O138 C129 1.247 . S
O139 Co126 2.244 . S
O139 C129 1.272 . S
O139 Co131 2.135 . S
Co140 O141 2.216 . S
Co140 O142 2.091 . S
Co140 O144 2.004 . S
Co140 O150 2.021 . S
Co140 O152 2.137 . S
Co140 O153 2.244 . S
O141 Co140 2.216 . S
O141 C148 1.247 . S
O142 Co140 2.091 . S
O142 C148 1.261 . S
C143 O152 1.247 . S
C143 O153 1.272 . S
O144 Co140 2.004 . S
O144 C149 1.259 . S
Co145 O146 2.061 1_655 S
Co145 O151 2.052 . S
Co145 O153 2.135 1_655 S
O146 Co145 2.061 1_455 S
O146 C149 1.235 . S
C147 O150 1.238 . S
C147 O151 1.241 1_455 S
C148 O141 1.247 . S
C148 O142 1.261 . S
C149 O144 1.259 . S
C149 O146 1.235 . S
O150 Co140 2.021 . S
O150 C147 1.238 . S
O151 Co145 2.052 . S
O151 C147 1.241 1_655 S
O152 Co140 2.137 . S
O152 C143 1.247 . S
O153 Co140 2.244 . S
O153 C143 1.272 . S
O153 Co145 2.135 1_455 S
Co154 O155 2.216 . S
Co154 O156 2.091 . S
Co154 O158 2.004 . S
Co154 O164 2.021 . S
Co154 O166 2.137 . S
Co154 O167 2.244 . S
O155 Co154 2.216 . S
O155 C162 1.247 . S
O156 Co154 2.091 . S
O156 C162 1.261 . S
C157 O166 1.247 . S
C157 O167 1.272 . S
O158 Co154 2.004 . S
O158 C163 1.259 . S
Co159 O160 2.061 1_565 S
Co159 O165 2.052 . S
Co159 O167 2.135 1_565 S
O160 Co159 2.061 1_545 S
O160 C163 1.235 . S
C161 O164 1.238 . S
C161 O165 1.241 1_545 S
C162 O155 1.247 . S
C162 O156 1.261 . S
C163 O158 1.259 . S
C163 O160 1.235 . S
O164 Co154 2.021 . S
O164 C161 1.238 . S
O165 Co159 2.052 . S
O165 C161 1.241 1_565 S
O166 Co154 2.137 . S
O166 C157 1.247 . S
O167 Co154 2.244 . S
O167 C157 1.272 . S
O167 Co159 2.135 1_545 S
H168 C176 0.929 . S
H169 C178 0.930 . S
H170 C180 0.930 . S
H171 C183 0.929 . S
H172 C186 0.930 . S
H173 C188 0.960 . S
H174 C188 0.960 . S
H175 C188 0.960 . S
C176 H168 0.929 . S
C176 C177 1.377 . S
C176 C178 1.384 . S
C177 C176 1.377 . S
C177 C183 1.390 . S
C178 H169 0.930 . S
C178 C176 1.384 . S
C178 C179 1.372 . S
C179 C178 1.372 . S
C179 C180 1.400 . S
C179 C184 1.490 . S
C180 H170 0.930 . S
C180 C179 1.400 . S
C180 C183 1.386 . S
H181 C197 0.930 . S
H182 C198 0.931 . S
C183 H171 0.929 . S
C183 C177 1.390 . S
C183 C180 1.386 . S
C184 C179 1.490 . S
C184 C186 1.395 . S
C184 C187 1.403 . S
H185 C191 0.930 . S
C186 H172 0.930 . S
C186 C184 1.395 . S
C186 C189 1.403 . S
C187 C184 1.403 . S
C187 C188 1.524 . S
C187 C191 1.400 . S
C188 H173 0.960 . S
C188 H174 0.960 . S
C188 H175 0.960 . S
C188 C187 1.524 . S
C189 C186 1.403 . S
C189 C190 1.392 . S
C189 C193 1.495 . S
C190 C189 1.392 . S
C190 C191 1.385 . S
C190 C192 1.478 . S
C191 H185 0.930 . S
C191 C187 1.400 . S
C191 C190 1.385 . S
C192 C190 1.478 . S
C192 C194 1.381 . S
C192 C198 1.383 . S
C193 C189 1.495 . S
C193 H199 0.959 . S
C193 H200 0.961 . S
C193 H201 0.960 . S
C194 C192 1.381 . S
C194 C195 1.394 . S
C194 H202 0.930 . S
C195 C194 1.394 . S
C195 C196 1.383 . S
C195 H203 0.929 . S
C196 C195 1.383 . S
C196 C197 1.377 . S
C197 H181 0.930 . S
C197 C196 1.377 . S
C197 C198 1.379 . S
C198 H182 0.931 . S
C198 C192 1.383 . S
C198 C197 1.379 . S
H199 C193 0.959 . S
H200 C193 0.961 . S
H201 C193 0.960 . S
H202 C194 0.930 . S
H203 C195 0.929 . S
H204 C212 0.929 . S
H205 C214 0.930 . S
H206 C216 0.930 . S
H207 C219 0.939 . S
H208 C222 0.922 . S
H209 C224 0.960 . S
H210 C224 0.960 . S
H211 C224 0.960 . S
C212 H204 0.929 . S
C212 C213 1.377 . S
C212 C214 1.384 . S
C213 C212 1.377 . S
C213 C219 1.376 1_655 S
C214 H205 0.930 . S
C214 C212 1.384 . S
C214 C215 1.372 . S
C215 C214 1.372 . S
C215 C216 1.400 1_655 S
C215 C220 1.490 . S
C216 H206 0.930 . S
C216 C215 1.400 1_455 S
C216 C219 1.391 . S
H217 C233 0.930 . S
H218 C234 0.931 . S
C219 H207 0.939 . S
C219 C213 1.376 1_455 S
C219 C216 1.391 . S
C220 C215 1.490 . S
C220 C222 1.395 1_655 S
C220 C223 1.403 . S
H221 C227 0.930 . S
C222 H208 0.922 . S
C222 C220 1.395 1_455 S
C222 C225 1.403 . S
C223 C220 1.403 . S
C223 C224 1.524 . S
C223 C227 1.400 . S
C224 H209 0.960 . S
C224 H210 0.960 . S
C224 H211 0.960 . S
C224 C223 1.524 . S
C225 C222 1.403 . S
C225 C226 1.392 . S
C225 C229 1.495 . S
C226 C225 1.392 . S
C226 C227 1.385 1_455 S
C226 C228 1.478 . S
C227 H221 0.930 . S
C227 C223 1.400 . S
C227 C226 1.385 1_655 S
C228 C226 1.478 . S
C228 C230 1.381 1_455 S
C228 C234 1.383 . S
C229 C225 1.495 . S
C229 H235 0.959 . S
C229 H236 0.961 . S
C229 H237 0.957 1_455 S
C230 C228 1.381 1_655 S
C230 C231 1.394 . S
C230 H238 0.930 . S
C231 C230 1.394 . S
C231 C232 1.383 1_655 S
C231 H239 0.929 . S
C232 C231 1.383 1_455 S
C232 C233 1.377 . S
C233 H217 0.930 . S
C233 C232 1.377 . S
C233 C234 1.379 . S
C234 H218 0.931 . S
C234 C228 1.383 . S
C234 C233 1.379 . S
H235 C229 0.959 . S
H236 C229 0.961 . S
H237 C229 0.957 1_655 S
H238 C230 0.930 . S
H239 C231 0.929 . S
H240 C248 0.929 1_545 S
H241 C250 0.930 . S
H242 C252 0.930 . S
H243 C255 0.929 . S
H244 C258 0.930 . S
H245 C260 0.943 1_554 S
H246 C260 0.960 . S
H247 C260 0.960 . S
C248 H240 0.929 1_565 S
C248 C249 1.377 . S
C248 C250 1.384 1_565 S
C249 C248 1.377 . S
C249 C255 1.390 . S
C250 H241 0.930 . S
C250 C248 1.384 1_545 S
C250 C251 1.372 1_545 S
C251 C250 1.372 1_565 S
C251 C252 1.400 . S
C251 C256 1.490 . S
C252 H242 0.930 . S
C252 C251 1.400 . S
C252 C255 1.386 . S
H253 C269 0.930 . S
H254 C270 0.931 1_565 S
C255 H243 0.929 . S
C255 C249 1.390 . S
C255 C252 1.386 . S
C256 C251 1.490 . S
C256 C258 1.395 1_565 S
C256 C259 1.403 . S
H257 C263 0.930 . S
C258 H244 0.930 . S
C258 C256 1.395 1_545 S
C258 C261 1.403 1_556 S
C259 C256 1.403 . S
C259 C260 1.524 . S
C259 C263 1.400 1_556 S
C260 H245 0.943 1_556 S
C260 H246 0.960 . S
C260 H247 0.960 . S
C260 C259 1.524 . S
C261 C258 1.403 1_554 S
C261 C262 1.392 . S
C261 C265 1.495 . S
C262 C261 1.392 . S
C262 C263 1.385 1_545 S
C262 C264 1.478 . S
C263 H257 0.930 . S
C263 C259 1.400 1_554 S
C263 C262 1.385 1_565 S
C264 C262 1.478 . S
C264 C266 1.381 . S
C264 C270 1.383 . S
C265 C261 1.495 . S
C265 H271 0.945 1_554 S
C265 H272 0.961 . S
C265 H273 0.960 . S
C266 C264 1.381 . S
C266 C267 1.394 . S
C266 H274 0.930 . S
C267 C266 1.394 . S
C267 C268 1.383 . S
C267 H275 0.929 . S
C268 C267 1.383 . S
C268 C269 1.377 . S
C269 H253 0.930 . S
C269 C268 1.377 . S
C269 C270 1.379 . S
C270 H254 0.931 1_545 S
C270 C264 1.383 . S
C270 C269 1.379 . S
H271 C265 0.945 1_556 S
H272 C265 0.961 . S
H273 C265 0.960 . S
H274 C266 0.930 . S
H275 C267 0.929 . S
H276 C284 0.929 . S
H277 C286 0.930 . S
H278 C288 0.930 . S
H279 C291 0.929 . S
H280 C294 0.930 . S
H281 C296 0.960 . S
H282 C296 0.960 . S
H283 C296 0.960 . S
C284 H276 0.929 . S
C284 C285 1.377 . S
C284 C286 1.384 . S
C285 C284 1.377 . S
C285 C291 1.390 . S
C286 H277 0.930 . S
C286 C284 1.384 . S
C286 C287 1.372 . S
C287 C286 1.372 . S
C287 C288 1.400 . S
C287 C292 1.490 . S
C288 H278 0.930 . S
C288 C287 1.400 . S
C288 C291 1.386 . S
H289 C305 0.930 . S
H290 C306 0.931 . S
C291 H279 0.929 . S
C291 C285 1.390 . S
C291 C288 1.386 . S
C292 C287 1.490 . S
C292 C294 1.395 . S
C292 C295 1.403 . S
H293 C299 0.930 . S
C294 H280 0.930 . S
C294 C292 1.395 . S
C294 C297 1.403 . S
C295 C292 1.403 . S
C295 C296 1.524 . S
C295 C299 1.400 . S
C296 H281 0.960 . S
C296 H282 0.960 . S
C296 H283 0.960 . S
C296 C295 1.524 . S
C297 C294 1.403 . S
C297 C298 1.392 . S
C297 C301 1.495 . S
C298 C297 1.392 . S
C298 C299 1.385 . S
C298 C300 1.478 . S
C299 H293 0.930 . S
C299 C295 1.400 . S
C299 C298 1.385 . S
C300 C298 1.478 . S
C300 C302 1.381 . S
C300 C306 1.383 . S
C301 C297 1.495 . S
C301 H307 0.959 . S
C301 H308 0.961 . S
C301 H309 0.960 . S
C302 C300 1.381 . S
C302 C303 1.394 . S
C302 H310 0.930 . S
C303 C302 1.394 . S
C303 C304 1.383 . S
C303 H311 0.929 . S
C304 C303 1.383 . S
C304 C305 1.377 . S
C305 H289 0.930 . S
C305 C304 1.377 . S
C305 C306 1.379 . S
C306 H290 0.931 . S
C306 C300 1.383 . S
C306 C305 1.379 . S
H307 C301 0.959 . S
H308 C301 0.961 . S
H309 C301 0.960 . S
H310 C302 0.930 . S
H311 C303 0.929 . S
H312 C320 0.929 . S
H313 C322 0.930 . S
H314 C324 0.930 . S
H315 C327 0.929 . S
H316 C330 0.930 . S
H317 C332 0.960 . S
H318 C332 0.960 1_455 S
H319 C332 0.960 . S
C320 H312 0.929 . S
C320 C321 1.377 1_455 S
C320 C322 1.384 . S
C321 C320 1.377 1_655 S
C321 C327 1.390 . S
C322 H313 0.930 . S
C322 C320 1.384 . S
C322 C323 1.372 1_455 S
C323 C322 1.372 1_655 S
C323 C324 1.400 . S
C323 C328 1.490 . S
C324 H314 0.930 . S
C324 C323 1.400 . S
C324 C327 1.386 . S
H325 C341 0.930 . S
H326 C342 0.931 . S
C327 H315 0.929 . S
C327 C321 1.390 . S
C327 C324 1.386 . S
C328 C323 1.490 . S
C328 C330 1.395 1_655 S
C328 C331 1.403 . S
H329 C335 0.930 . S
C330 H316 0.930 . S
C330 C328 1.395 1_455 S
C330 C333 1.403 . S
C331 C328 1.403 . S
C331 C332 1.524 . S
C331 C335 1.400 1_655 S
C332 H317 0.960 . S
C332 H318 0.960 1_655 S
C332 H319 0.960 . S
C332 C331 1.524 . S
C333 C330 1.403 . S
C333 C334 1.392 . S
C333 C337 1.495 . S
C334 C333 1.392 . S
C334 C335 1.385 . S
C334 C336 1.478 . S
C335 H329 0.930 . S
C335 C331 1.400 1_455 S
C335 C334 1.385 . S
C336 C334 1.478 . S
C336 C338 1.381 . S
C336 C342 1.383 1_455 S
C337 C333 1.495 . S
C337 H343 0.959 . S
C337 H344 0.961 1_455 S
C337 H345 0.960 . S
C338 C336 1.381 . S
C338 C339 1.394 . S
C338 H346 0.930 . S
C339 C338 1.394 . S
C339 C340 1.383 . S
C339 H347 0.929 . S
C340 C339 1.383 . S
C340 C341 1.377 1_455 S
C341 H325 0.930 . S
C341 C340 1.377 1_655 S
C341 C342 1.379 . S
C342 H326 0.931 . S
C342 C336 1.383 1_655 S
C342 C341 1.379 . S
H343 C337 0.959 . S
H344 C337 0.961 1_655 S
H345 C337 0.960 . S
H346 C338 0.930 . S
H347 C339 0.929 . S
H348 C356 0.929 . S
H349 C358 0.930 . S
H350 C360 0.930 . S
H351 C363 0.929 . S
H352 C366 0.930 . S
H353 C368 0.960 . S
H354 C368 0.960 1_545 S
H355 C368 0.960 . S
C356 H348 0.929 . S
C356 C357 1.377 1_545 S
C356 C358 1.384 . S
C357 C356 1.377 1_565 S
C357 C363 1.390 . S
C358 H349 0.930 . S
C358 C356 1.384 . S
C358 C359 1.372 1_545 S
C359 C358 1.372 1_565 S
C359 C360 1.400 . S
C359 C364 1.490 . S
C360 H350 0.930 . S
C360 C359 1.400 . S
C360 C363 1.386 . S
H361 C377 0.930 . S
H362 C378 0.931 . S
C363 H351 0.929 . S
C363 C357 1.390 . S
C363 C360 1.386 . S
C364 C359 1.490 . S
C364 C366 1.395 1_565 S
C364 C367 1.403 . S
H365 C371 0.946 . S
C366 H352 0.930 . S
C366 C364 1.395 1_545 S
C366 C369 1.403 1_554 S
C367 C364 1.403 . S
C367 C368 1.524 . S
C367 C371 1.397 1_564 S
C368 H353 0.960 . S
C368 H354 0.960 1_565 S
C368 H355 0.960 . S
C368 C367 1.524 . S
C369 C366 1.403 1_556 S
C369 C370 1.392 . S
C369 C373 1.495 . S
C370 C369 1.392 . S
C370 C371 1.375 . S
C370 C372 1.478 . S
C371 H365 0.946 . S
C371 C367 1.397 1_546 S
C371 C370 1.375 . S
C372 C370 1.478 . S
C372 C374 1.381 . S
C372 C378 1.383 1_545 S
C373 C369 1.495 . S
C373 H379 0.959 . S
C373 H380 0.952 1_545 S
C373 H381 0.960 . S
C374 C372 1.381 . S
C374 C375 1.394 . S
C374 H382 0.930 . S
C375 C374 1.394 . S
C375 C376 1.383 . S
C375 H383 0.929 . S
C376 C375 1.383 . S
C376 C377 1.377 1_545 S
C377 H361 0.930 . S
C377 C376 1.377 1_565 S
C377 C378 1.379 . S
C378 H362 0.931 . S
C378 C372 1.383 1_565 S
C378 C377 1.379 . S
H379 C373 0.959 . S
H380 C373 0.952 1_565 S
H381 C373 0.960 . S
H382 C374 0.930 . S
H383 C375 0.929 . S
H384 C392 0.929 . S
H385 C394 0.930 . S
H386 C396 0.930 . S
H387 C399 0.929 . S
H388 C402 0.930 . S
H389 C404 0.960 . S
H390 C404 0.960 . S
H391 C404 0.960 . S
C392 H384 0.929 . S
C392 C393 1.377 . S
C392 C394 1.384 . S
C393 C392 1.377 . S
C393 C399 1.390 . S
C394 H385 0.930 . S
C394 C392 1.384 . S
C394 C395 1.372 . S
C395 C394 1.372 . S
C395 C396 1.400 . S
C395 C400 1.490 . S
C396 H386 0.930 . S
C396 C395 1.400 . S
C396 C399 1.386 . S
H397 C413 0.930 . S
H398 C414 0.931 . S
C399 H387 0.929 . S
C399 C393 1.390 . S
C399 C396 1.386 . S
C400 C395 1.490 . S
C400 C402 1.395 1_556 S
C400 C403 1.403 . S
H401 C407 0.930 . S
C402 H388 0.930 . S
C402 C400 1.395 1_554 S
C402 C405 1.403 . S
C403 C400 1.403 . S
C403 C404 1.524 . S
C403 C407 1.400 . S
C404 H389 0.960 . S
C404 H390 0.960 . S
C404 H391 0.960 . S
C404 C403 1.524 . S
C405 C402 1.403 . S
C405 C406 1.392 . S
C405 C409 1.495 . S
C406 C405 1.392 . S
C406 C407 1.385 1_554 S
C406 C408 1.478 . S
C407 H401 0.930 . S
C407 C403 1.400 . S
C407 C406 1.385 1_556 S
C408 C406 1.478 . S
C408 C410 1.381 . S
C408 C414 1.383 . S
C409 C405 1.495 . S
C409 H415 0.959 . S
C409 H416 0.961 . S
C409 H417 0.960 . S
C410 C408 1.381 . S
C410 C411 1.394 . S
C410 H418 0.930 . S
C411 C410 1.394 . S
C411 C412 1.383 . S
C411 H419 0.929 . S
C412 C411 1.383 . S
C412 C413 1.377 . S
C413 H397 0.930 . S
C413 C412 1.377 . S
C413 C414 1.379 . S
C414 H398 0.931 . S
C414 C408 1.383 . S
C414 C413 1.379 . S
H415 C409 0.959 . S
H416 C409 0.961 . S
H417 C409 0.960 . S
H418 C410 0.930 . S
H419 C411 0.929 . S
H420 C428 0.929 . S
H421 C430 0.930 . S
H422 C432 0.930 . S
H423 C435 0.929 . S
H424 C438 0.930 . S
H425 C440 0.960 . S
H426 C440 0.960 . S
H427 C440 0.960 . S
C428 H420 0.929 . S
C428 C429 1.377 . S
C428 C430 1.384 . S
C429 C428 1.377 . S
C429 C435 1.390 . S
C430 H421 0.930 . S
C430 C428 1.384 . S
C430 C431 1.372 . S
C431 C430 1.372 . S
C431 C432 1.400 . S
C431 C436 1.490 . S
C432 H422 0.930 . S
C432 C431 1.400 . S
C432 C435 1.386 . S
H433 C449 0.930 . S
H434 C450 0.931 . S
C435 H423 0.929 . S
C435 C429 1.390 . S
C435 C432 1.386 . S
C436 C431 1.490 . S
C436 C438 1.395 . S
C436 C439 1.403 . S
H437 C443 0.930 . S
C438 H424 0.930 . S
C438 C436 1.395 . S
C438 C441 1.403 . S
C439 C436 1.403 . S
C439 C440 1.524 . S
C439 C443 1.400 . S
C440 H425 0.960 . S
C440 H426 0.960 . S
C440 H427 0.960 . S
C440 C439 1.524 . S
C441 C438 1.403 . S
C441 C442 1.392 . S
C441 C445 1.495 . S
C442 C441 1.392 . S
C442 C443 1.385 . S
C442 C444 1.478 . S
C443 H437 0.930 . S
C443 C439 1.400 . S
C443 C442 1.385 . S
C444 C442 1.478 . S
C444 C446 1.381 . S
C444 C450 1.383 . S
C445 C441 1.495 . S
C445 H451 0.959 . S
C445 H452 0.961 . S
C445 H453 0.960 . S
C446 C444 1.381 . S
C446 C447 1.394 . S
C446 H454 0.930 . S
C447 C446 1.394 . S
C447 C448 1.383 . S
C447 H455 0.929 . S
C448 C447 1.383 . S
C448 C449 1.377 . S
C449 H433 0.930 . S
C449 C448 1.377 . S
C449 C450 1.379 . S
C450 H434 0.931 . S
C450 C444 1.383 . S
C450 C449 1.379 . S
H451 C445 0.959 . S
H452 C445 0.961 . S
H453 C445 0.960 . S
H454 C446 0.930 . S
H455 C447 0.929 . S
H456 C464 0.929 . S
H457 C466 0.930 . S
H458 C468 0.930 . S
H459 C471 0.929 . S
H460 C474 0.930 . S
H461 C476 0.960 . S
H462 C476 0.960 . S
H463 C476 0.960 . S
C464 H456 0.929 . S
C464 C465 1.377 . S
C464 C466 1.384 . S
C465 C464 1.377 . S
C465 C471 1.390 . S
C466 H457 0.930 . S
C466 C464 1.384 . S
C466 C467 1.372 . S
C467 C466 1.372 . S
C467 C468 1.400 . S
C467 C472 1.490 . S
C468 H458 0.930 . S
C468 C467 1.400 . S
C468 C471 1.386 . S
H469 C485 0.930 . S
H470 C486 0.931 . S
C471 H459 0.929 . S
C471 C465 1.390 . S
C471 C468 1.386 . S
C472 C467 1.490 . S
C472 C474 1.395 . S
C472 C475 1.403 . S
H473 C479 0.930 . S
C474 H460 0.930 . S
C474 C472 1.395 . S
C474 C477 1.403 . S
C475 C472 1.403 . S
C475 C476 1.524 . S
C475 C479 1.400 . S
C476 H461 0.960 . S
C476 H462 0.960 . S
C476 H463 0.960 . S
C476 C475 1.524 . S
C477 C474 1.403 . S
C477 C478 1.392 . S
C477 C481 1.495 . S
C478 C477 1.392 . S
C478 C479 1.385 . S
C478 C480 1.478 . S
C479 H473 0.930 . S
C479 C475 1.400 . S
C479 C478 1.385 . S
C480 C478 1.478 . S
C480 C482 1.381 . S
C480 C486 1.383 . S
C481 C477 1.495 . S
C481 H487 0.959 . S
C481 H488 0.961 . S
C481 H489 0.960 . S
C482 C480 1.381 . S
C482 C483 1.394 . S
C482 H490 0.930 . S
C483 C482 1.394 . S
C483 C484 1.383 . S
C483 H491 0.929 . S
C484 C483 1.383 . S
C484 C485 1.377 . S
C485 H469 0.930 . S
C485 C484 1.377 . S
C485 C486 1.379 . S
C486 H470 0.931 . S
C486 C480 1.383 . S
C486 C485 1.379 . S
H487 C481 0.959 . S
H488 C481 0.961 . S
H489 C481 0.960 . S
H490 C482 0.930 . S
H491 C483 0.929 . S
H492 C500 0.929 . S
H493 C502 0.930 . S
H494 C504 0.930 1_556 S
H495 C507 0.929 . S
H496 C510 0.930 . S
H497 C512 0.960 . S
H498 C512 0.960 . S
H499 C512 0.960 . S
C500 H492 0.929 . S
C500 C501 1.377 . S
C500 C502 1.384 . S
C501 C500 1.377 . S
C501 C507 1.390 . S
C502 H493 0.930 . S
C502 C500 1.384 . S
C502 C503 1.372 . S
C503 C502 1.372 . S
C503 C504 1.400 . S
C503 C508 1.490 . S
C504 H494 0.930 1_554 S
C504 C503 1.400 . S
C504 C507 1.386 . S
H505 C521 0.930 . S
H506 C522 0.931 . S
C507 H495 0.929 . S
C507 C501 1.390 . S
C507 C504 1.386 . S
C508 C503 1.490 . S
C508 C510 1.395 . S
C508 C511 1.403 1_554 S
H509 C515 0.930 . S
C510 H496 0.930 . S
C510 C508 1.395 . S
C510 C513 1.403 . S
C511 C508 1.403 1_556 S
C511 C512 1.524 . S
C511 C515 1.400 . S
C512 H497 0.960 . S
C512 H498 0.960 . S
C512 H499 0.960 . S
C512 C511 1.524 . S
C513 C510 1.403 . S
C513 C514 1.392 1_554 S
C513 C517 1.495 . S
C514 C513 1.392 1_556 S
C514 C515 1.385 . S
C514 C516 1.478 . S
C515 H509 0.930 . S
C515 C511 1.400 . S
C515 C514 1.385 . S
C516 C514 1.478 . S
C516 C518 1.381 . S
C516 C522 1.383 . S
C517 C513 1.495 . S
C517 H523 0.959 . S
C517 H524 0.961 . S
C517 H525 0.960 . S
C518 C516 1.381 . S
C518 C519 1.394 . S
C518 H526 0.930 1_556 S
C519 C518 1.394 . S
C519 C520 1.383 . S
C519 H527 0.929 . S
C520 C519 1.383 . S
C520 C521 1.377 . S
C521 H505 0.930 . S
C521 C520 1.377 . S
C521 C522 1.379 . S
C522 H506 0.931 . S
C522 C516 1.383 . S
C522 C521 1.379 . S
H523 C517 0.959 . S
H524 C517 0.961 . S
H525 C517 0.960 . S
H526 C518 0.930 1_554 S
H527 C519 0.929 . S
H528 C536 0.929 . S
H529 C538 0.930 . S
H530 C540 0.930 . S
H531 C543 0.929 . S
H532 C546 0.930 . S
H533 C548 0.960 . S
H534 C548 0.960 . S
H535 C548 0.960 . S
C536 H528 0.929 . S
C536 C537 1.377 . S
C536 C538 1.384 . S
C537 C536 1.377 . S
C537 C543 1.390 . S
C538 H529 0.930 . S
C538 C536 1.384 . S
C538 C539 1.372 . S
C539 C538 1.372 . S
C539 C540 1.400 . S
C539 C544 1.490 . S
C540 H530 0.930 . S
C540 C539 1.400 . S
C540 C543 1.386 . S
H541 C557 0.930 . S
H542 C558 0.931 . S
C543 H531 0.929 . S
C543 C537 1.390 . S
C543 C540 1.386 . S
C544 C539 1.490 . S
C544 C546 1.395 . S
C544 C547 1.403 . S
H545 C551 0.930 . S
C546 H532 0.930 . S
C546 C544 1.395 . S
C546 C549 1.403 . S
C547 C544 1.403 . S
C547 C548 1.524 . S
C547 C551 1.400 . S
C548 H533 0.960 . S
C548 H534 0.960 . S
C548 H535 0.960 . S
C548 C547 1.524 . S
C549 C546 1.403 . S
C549 C550 1.392 . S
C549 C553 1.495 . S
C550 C549 1.392 . S
C550 C551 1.385 . S
C550 C552 1.478 . S
C551 H545 0.930 . S
C551 C547 1.400 . S
C551 C550 1.385 . S
C552 C550 1.478 . S
C552 C554 1.381 . S
C552 C558 1.383 . S
C553 C549 1.495 . S
C553 H559 0.959 . S
C553 H560 0.961 . S
C553 H561 0.960 . S
C554 C552 1.381 . S
C554 C555 1.394 . S
C554 H562 0.930 . S
C555 C554 1.394 . S
C555 C556 1.383 . S
C555 H563 0.929 . S
C556 C555 1.383 . S
C556 C557 1.377 . S
C557 H541 0.930 . S
C557 C556 1.377 . S
C557 C558 1.379 . S
C558 H542 0.931 . S
C558 C552 1.383 . S
C558 C557 1.379 . S
H559 C553 0.959 . S
H560 C553 0.961 . S
H561 C553 0.960 . S
H562 C554 0.930 . S
H563 C555 0.929 . S
H564 C572 0.929 . S
H565 C574 0.930 . S
H566 C576 0.930 . S
H567 C579 0.929 . S
H568 C582 0.930 . S
H569 C584 0.960 . S
H570 C584 0.960 . S
H571 C584 0.960 . S
C572 H564 0.929 . S
C572 C573 1.377 . S
C572 C574 1.384 . S
C573 C572 1.377 . S
C573 C579 1.390 . S
C574 H565 0.930 . S
C574 C572 1.384 . S
C574 C575 1.372 . S
C575 C574 1.372 . S
C575 C576 1.400 . S
C575 C580 1.490 . S
C576 H566 0.930 . S
C576 C575 1.400 . S
C576 C579 1.386 . S
H577 C593 0.930 . S
H578 C594 0.931 . S
C579 H567 0.929 . S
C579 C573 1.390 . S
C579 C576 1.386 . S
C580 C575 1.490 . S
C580 C582 1.395 . S
C580 C583 1.403 . S
H581 C587 0.930 . S
C582 H568 0.930 . S
C582 C580 1.395 . S
C582 C585 1.403 . S
C583 C580 1.403 . S
C583 C584 1.524 . S
C583 C587 1.400 . S
C584 H569 0.960 . S
C584 H570 0.960 . S
C584 H571 0.960 . S
C584 C583 1.524 . S
C585 C582 1.403 . S
C585 C586 1.392 . S
C585 C589 1.495 . S
C586 C585 1.392 . S
C586 C587 1.385 . S
C586 C588 1.478 . S
C587 H581 0.930 . S
C587 C583 1.400 . S
C587 C586 1.385 . S
C588 C586 1.478 . S
C588 C590 1.381 . S
C588 C594 1.383 . S
C589 C585 1.495 . S
C589 H595 0.959 . S
C589 H596 0.961 . S
C589 H597 0.960 . S
C590 C588 1.381 . S
C590 C591 1.394 . S
C590 H598 0.930 . S
C591 C590 1.394 . S
C591 C592 1.383 . S
C591 H599 0.929 . S
C592 C591 1.383 . S
C592 C593 1.377 . S
C593 H577 0.930 . S
C593 C592 1.377 . S
C593 C594 1.379 . S
C594 H578 0.931 . S
C594 C588 1.383 . S
C594 C593 1.379 . S
H595 C589 0.959 . S
H596 C589 0.961 . S
H597 C589 0.960 . S
H598 C590 0.930 . S
H599 C591 0.929 . S
H600 C608 0.929 . S
H601 C610 0.930 . S
H602 C612 0.930 . S
H603 C615 0.929 . S
H604 C618 0.930 . S
H605 C620 0.960 . S
H606 C620 0.960 . S
H607 C620 0.960 . S
C608 H600 0.929 . S
C608 C609 1.377 . S
C608 C610 1.384 . S
C609 C608 1.377 . S
C609 C615 1.390 . S
C610 H601 0.930 . S
C610 C608 1.384 . S
C610 C611 1.372 . S
C611 C610 1.372 . S
C611 C612 1.400 . S
C611 C616 1.490 . S
C612 H602 0.930 . S
C612 C611 1.400 . S
C612 C615 1.386 . S
H613 C629 0.930 . S
H614 C630 0.931 . S
C615 H603 0.929 . S
C615 C609 1.390 . S
C615 C612 1.386 . S
C616 C611 1.490 . S
C616 C618 1.395 . S
C616 C619 1.403 . S
H617 C623 0.930 . S
C618 H604 0.930 . S
C618 C616 1.395 . S
C618 C621 1.403 . S
C619 C616 1.403 . S
C619 C620 1.524 . S
C619 C623 1.400 . S
C620 H605 0.960 . S
C620 H606 0.960 . S
C620 H607 0.960 . S
C620 C619 1.524 . S
C621 C618 1.403 . S
C621 C622 1.392 . S
C621 C625 1.495 . S
C622 C621 1.392 . S
C622 C623 1.385 . S
C622 C624 1.478 . S
C623 H617 0.930 . S
C623 C619 1.400 . S
C623 C622 1.385 . S
C624 C622 1.478 . S
C624 C626 1.381 . S
C624 C630 1.383 . S
C625 C621 1.495 . S
C625 H631 0.959 . S
C625 H632 0.961 . S
C625 H633 0.960 . S
C626 C624 1.381 . S
C626 C627 1.394 . S
C626 H634 0.930 . S
C627 C626 1.394 . S
C627 C628 1.383 . S
C627 H635 0.929 . S
C628 C627 1.383 . S
C628 C629 1.377 . S
C629 H613 0.930 . S
C629 C628 1.377 . S
C629 C630 1.379 . S
C630 H614 0.931 . S
C630 C624 1.383 . S
C630 C629 1.379 . S
H631 C625 0.959 . S
H632 C625 0.961 . S
H633 C625 0.960 . S
H634 C626 0.930 . S
H635 C627 0.929 . S
H636 C644 0.929 . S
H637 C646 0.930 . S
H638 C648 0.930 . S
H639 C651 0.929 . S
H640 C654 0.930 . S
H641 C656 0.960 . S
H642 C656 0.960 1_455 S
H643 C656 0.960 . S
C644 H636 0.929 . S
C644 C645 1.377 1_455 S
C644 C646 1.384 . S
C645 C644 1.377 1_655 S
C645 C651 1.390 . S
C646 H637 0.930 . S
C646 C644 1.384 . S
C646 C647 1.372 1_455 S
C647 C646 1.372 1_655 S
C647 C648 1.400 . S
C647 C652 1.490 . S
C648 H638 0.930 . S
C648 C647 1.400 . S
C648 C651 1.386 . S
H649 C665 0.930 . S
H650 C666 0.931 . S
C651 H639 0.929 . S
C651 C645 1.390 . S
C651 C648 1.386 . S
C652 C647 1.490 . S
C652 C654 1.395 1_655 S
C652 C655 1.403 . S
H653 C659 0.914 . S
C654 H640 0.930 . S
C654 C652 1.395 1_455 S
C654 C657 1.403 . S
C655 C652 1.403 . S
C655 C656 1.524 . S
C655 C659 1.395 1_655 S
C656 H641 0.960 . S
C656 H642 0.960 1_655 S
C656 H643 0.960 . S
C656 C655 1.524 . S
C657 C654 1.403 . S
C657 C658 1.392 . S
C657 C661 1.495 . S
C658 C657 1.392 . S
C658 C659 1.407 . S
C658 C660 1.478 . S
C659 H653 0.914 . S
C659 C655 1.395 1_455 S
C659 C658 1.407 . S
C660 C658 1.478 . S
C660 C662 1.381 . S
C660 C666 1.383 1_455 S
C661 C657 1.495 . S
C661 H667 0.959 . S
C661 H668 0.961 1_455 S
C661 H669 0.960 . S
C662 C660 1.381 . S
C662 C663 1.394 . S
C662 H670 0.930 . S
C663 C662 1.394 . S
C663 C664 1.383 . S
C663 H671 0.929 . S
C664 C663 1.383 . S
C664 C665 1.377 1_455 S
C665 H649 0.930 . S
C665 C664 1.377 1_655 S
C665 C666 1.379 . S
C666 H650 0.931 . S
C666 C660 1.383 1_655 S
C666 C665 1.379 . S
H667 C661 0.959 . S
H668 C661 0.961 1_655 S
H669 C661 0.960 . S
H670 C662 0.930 . S
H671 C663 0.929 . S
H672 C680 0.929 . S
H673 C682 0.930 . S
H674 C684 0.930 . S
H675 C687 0.929 . S
H676 C690 0.930 . S
H677 C692 0.960 . S
H678 C692 0.960 . S
H679 C692 0.960 . S
C680 H672 0.929 . S
C680 C681 1.377 . S
C680 C682 1.384 . S
C681 C680 1.377 . S
C681 C687 1.390 . S
C682 H673 0.930 . S
C682 C680 1.384 . S
C682 C683 1.372 . S
C683 C682 1.372 . S
C683 C684 1.400 . S
C683 C688 1.490 . S
C684 H674 0.930 . S
C684 C683 1.400 . S
C684 C687 1.386 . S
H685 C701 0.930 . S
H686 C702 0.931 . S
C687 H675 0.929 . S
C687 C681 1.390 . S
C687 C684 1.386 . S
C688 C683 1.490 . S
C688 C690 1.395 . S
C688 C691 1.403 1_565 S
H689 C695 0.930 . S
C690 H676 0.930 . S
C690 C688 1.395 . S
C690 C693 1.403 . S
C691 C688 1.403 1_545 S
C691 C692 1.524 . S
C691 C695 1.400 . S
C692 H677 0.960 . S
C692 H678 0.960 . S
C692 H679 0.960 . S
C692 C691 1.524 . S
C693 C690 1.403 . S
C693 C694 1.439 . S
C693 C697 1.495 . S
C694 C693 1.439 . S
C694 C695 1.343 1_565 S
C694 C696 1.473 1_565 S
C695 H689 0.930 . S
C695 C691 1.400 . S
C695 C694 1.343 1_545 S
C696 C694 1.473 1_545 S
C696 C698 1.381 . S
C696 C702 1.383 . S
C697 C693 1.495 . S
C697 H703 0.959 . S
C697 H704 0.961 . S
C697 H705 0.960 . S
C698 C696 1.381 . S
C698 C699 1.394 . S
C698 H706 0.930 . S
C699 C698 1.394 . S
C699 C700 1.383 . S
C699 H707 0.929 . S
C700 C699 1.383 . S
C700 C701 1.377 . S
C701 H685 0.930 . S
C701 C700 1.377 . S
C701 C702 1.379 . S
C702 H686 0.931 . S
C702 C696 1.383 . S
C702 C701 1.379 . S
H703 C697 0.959 . S
H704 C697 0.961 . S
H705 C697 0.960 . S
H706 C698 0.930 . S
H707 C699 0.929 . S
H708 C716 0.929 . S
H709 C718 0.930 . S
H710 C720 0.930 . S
H711 C723 0.929 . S
H712 C726 0.930 . S
H713 C728 0.960 . S
H714 C728 0.960 . S
H715 C728 0.960 . S
C716 H708 0.929 . S
C716 C717 1.377 . S
C716 C718 1.384 . S
C717 C716 1.377 . S
C717 C723 1.390 . S
C718 H709 0.930 . S
C718 C716 1.384 . S
C718 C719 1.372 . S
C719 C718 1.372 . S
C719 C720 1.400 . S
C719 C724 1.490 . S
C720 H710 0.930 . S
C720 C719 1.400 . S
C720 C723 1.386 . S
H721 C737 0.930 . S
H722 C738 0.931 . S
C723 H711 0.929 . S
C723 C717 1.390 . S
C723 C720 1.386 . S
C724 C719 1.490 . S
C724 C726 1.395 . S
C724 C727 1.403 . S
H725 C731 0.930 . S
C726 H712 0.930 . S
C726 C724 1.395 . S
C726 C729 1.403 . S
C727 C724 1.403 . S
C727 C728 1.524 . S
C727 C731 1.400 . S
C728 H713 0.960 . S
C728 H714 0.960 . S
C728 H715 0.960 . S
C728 C727 1.524 . S
C729 C726 1.403 . S
C729 C730 1.392 . S
C729 C733 1.495 . S
C730 C729 1.392 . S
C730 C731 1.385 . S
C730 C732 1.478 . S
C731 H725 0.930 . S
C731 C727 1.400 . S
C731 C730 1.385 . S
C732 C730 1.478 . S
C732 C734 1.381 . S
C732 C738 1.383 . S
C733 C729 1.495 . S
C733 H739 0.959 . S
C733 H740 0.961 . S
C733 H741 0.960 . S
C734 C732 1.381 . S
C734 C735 1.394 . S
C734 H742 0.930 . S
C735 C734 1.394 . S
C735 C736 1.383 . S
C735 H743 0.929 . S
C736 C735 1.383 . S
C736 C737 1.377 . S
C737 H721 0.930 . S
C737 C736 1.377 . S
C737 C738 1.379 . S
C738 H722 0.931 . S
C738 C732 1.383 . S
C738 C737 1.379 . S
H739 C733 0.959 . S
H740 C733 0.961 . S
H741 C733 0.960 . S
H742 C734 0.930 . S
H743 C735 0.929 . S
H744 C752 0.929 . S
H745 C754 0.930 . S
H746 C756 0.930 . S
H747 C759 0.929 . S
H748 C762 0.930 . S
H749 C764 0.960 . S
H750 C764 0.960 . S
H751 C764 0.960 . S
C752 H744 0.929 . S
C752 C753 1.377 . S
C752 C754 1.384 . S
C753 C752 1.377 . S
C753 C759 1.390 1_455 S
C754 H745 0.930 . S
C754 C752 1.384 . S
C754 C755 1.372 . S
C755 C754 1.372 . S
C755 C756 1.400 1_455 S
C755 C760 1.490 . S
C756 H746 0.930 . S
C756 C755 1.400 1_655 S
C756 C759 1.386 . S
H757 C773 0.930 . S
H758 C774 0.931 . S
C759 H747 0.929 . S
C759 C753 1.390 1_655 S
C759 C756 1.386 . S
C760 C755 1.490 . S
C760 C762 1.395 . S
C760 C763 1.403 1_455 S
H761 C767 0.930 . S
C762 H748 0.930 . S
C762 C760 1.395 . S
C762 C765 1.403 . S
C763 C760 1.403 1_655 S
C763 C764 1.524 . S
C763 C767 1.400 . S
C764 H749 0.960 . S
C764 H750 0.960 . S
C764 H751 0.960 . S
C764 C763 1.524 . S
C765 C762 1.403 . S
C765 C766 1.392 . S
C765 C769 1.495 . S
C766 C765 1.392 . S
C766 C767 1.385 1_455 S
C766 C768 1.478 1_455 S
C767 H761 0.930 . S
C767 C763 1.400 . S
C767 C766 1.385 1_655 S
C768 C766 1.478 1_655 S
C768 C770 1.381 1_655 S
C768 C774 1.383 . S
C769 C765 1.495 . S
C769 H775 0.959 . S
C769 H776 0.961 . S
C769 H777 0.960 . S
C770 C768 1.381 1_455 S
C770 C771 1.394 . S
C770 H778 0.930 . S
C771 C770 1.394 . S
C771 C772 1.383 1_455 S
C771 H779 0.929 . S
C772 C771 1.383 1_655 S
C772 C773 1.377 . S
C773 H757 0.930 . S
C773 C772 1.377 . S
C773 C774 1.379 . S
C774 H758 0.931 . S
C774 C768 1.383 . S
C774 C773 1.379 . S
H775 C769 0.959 . S
H776 C769 0.961 . S
H777 C769 0.960 . S
H778 C770 0.930 . S
H779 C771 0.929 . S
H780 C788 0.929 . S
H781 C790 0.930 . S
H782 C792 0.930 . S
H783 C795 0.929 . S
H784 C798 0.930 . S
H785 C800 0.960 . S
H786 C800 0.960 1_565 S
H787 C800 0.960 . S
C788 H780 0.929 . S
C788 C789 1.377 . S
C788 C790 1.384 . S
C789 C788 1.377 . S
C789 C795 1.390 1_565 S
C790 H781 0.930 . S
C790 C788 1.384 . S
C790 C791 1.372 . S
C791 C790 1.372 . S
C791 C792 1.400 1_565 S
C791 C796 1.490 . S
C792 H782 0.930 . S
C792 C791 1.400 1_545 S
C792 C795 1.386 . S
H793 C809 0.930 . S
H794 C810 0.931 . S
C795 H783 0.929 . S
C795 C789 1.390 1_545 S
C795 C792 1.386 . S
C796 C791 1.490 . S
C796 C798 1.395 . S
C796 C799 1.403 1_565 S
H797 C803 0.930 . S
C798 H784 0.930 . S
C798 C796 1.395 . S
C798 C801 1.403 . S
C799 C796 1.403 1_545 S
C799 C800 1.524 . S
C799 C803 1.400 . S
C800 H785 0.960 . S
C800 H786 0.960 1_545 S
C800 H787 0.960 . S
C800 C799 1.524 . S
C801 C798 1.403 . S
C801 C802 1.392 1_565 S
C801 C805 1.495 . S
C802 C801 1.392 1_545 S
C802 C803 1.385 . S
C802 C804 1.478 . S
C803 H797 0.930 . S
C803 C799 1.400 . S
C803 C802 1.385 . S
C804 C802 1.478 . S
C804 C806 1.381 1_545 S
C804 C810 1.383 . S
C805 C801 1.495 . S
C805 H811 0.959 . S
C805 H812 0.961 1_565 S
C805 H813 0.960 . S
C806 C804 1.381 1_565 S
C806 C807 1.394 . S
C806 H814 0.930 . S
C807 C806 1.394 . S
C807 C808 1.383 1_565 S
C807 H815 0.929 . S
C808 C807 1.383 1_545 S
C808 C809 1.377 . S
C809 H793 0.930 . S
C809 C808 1.377 . S
C809 C810 1.379 . S
C810 H794 0.931 . S
C810 C804 1.383 . S
C810 C809 1.379 . S
H811 C805 0.959 . S
H812 C805 0.961 1_545 S
H813 C805 0.960 . S
H814 C806 0.930 . S
H815 C807 0.929 . S
H816 C824 0.929 . S
H817 C826 0.930 . S
H818 C828 0.930 . S
H819 C831 0.929 . S
H820 C834 0.930 . S
H821 C836 0.960 . S
H822 C836 0.960 . S
H823 C836 0.960 . S
C824 H816 0.929 . S
C824 C825 1.377 . S
C824 C826 1.384 . S
C825 C824 1.377 . S
C825 C831 1.390 . S
C826 H817 0.930 . S
C826 C824 1.384 . S
C826 C827 1.372 . S
C827 C826 1.372 . S
C827 C828 1.400 . S
C827 C832 1.490 . S
C828 H818 0.930 . S
C828 C827 1.400 . S
C828 C831 1.386 . S
H829 C845 0.930 . S
H830 C846 0.931 . S
C831 H819 0.929 . S
C831 C825 1.390 . S
C831 C828 1.386 . S
C832 C827 1.490 . S
C832 C834 1.395 . S
C832 C835 1.403 . S
H833 C839 0.930 . S
C834 H820 0.930 . S
C834 C832 1.395 . S
C834 C837 1.403 . S
C835 C832 1.403 . S
C835 C836 1.524 . S
C835 C839 1.400 . S
C836 H821 0.960 . S
C836 H822 0.960 . S
C836 H823 0.960 . S
C836 C835 1.524 . S
C837 C834 1.403 . S
C837 C838 1.392 . S
C837 C841 1.495 . S
C838 C837 1.392 . S
C838 C839 1.385 . S
C838 C840 1.478 . S
C839 H833 0.930 . S
C839 C835 1.400 . S
C839 C838 1.385 . S
C840 C838 1.478 . S
C840 C842 1.381 . S
C840 C846 1.383 . S
C841 C837 1.495 . S
C841 H847 0.959 . S
C841 H848 0.961 . S
C841 H849 0.960 . S
C842 C840 1.381 . S
C842 C843 1.394 . S
C842 H850 0.930 . S
C843 C842 1.394 . S
C843 C844 1.383 . S
C843 H851 0.929 . S
C844 C843 1.383 . S
C844 C845 1.377 . S
C845 H829 0.930 . S
C845 C844 1.377 . S
C845 C846 1.379 . S
C846 H830 0.931 . S
C846 C840 1.383 . S
C846 C845 1.379 . S
H847 C841 0.959 . S
H848 C841 0.961 . S
H849 C841 0.960 . S
H850 C842 0.930 . S
H851 C843 0.929 . S
H852 C860 0.929 . S
H853 C862 0.930 . S
H854 C864 0.930 . S
H855 C867 0.929 . S
H856 C870 0.930 . S
H857 C872 0.960 . S
H858 C872 0.960 . S
H859 C872 0.960 . S
C860 H852 0.929 . S
C860 C861 1.377 . S
C860 C862 1.384 . S
C861 C860 1.377 . S
C861 C867 1.390 . S
C862 H853 0.930 . S
C862 C860 1.384 . S
C862 C863 1.372 . S
C863 C862 1.372 . S
C863 C864 1.400 . S
C863 C868 1.490 . S
C864 H854 0.930 . S
C864 C863 1.400 . S
C864 C867 1.386 . S
H865 C881 0.930 . S
H866 C882 0.931 1_455 S
C867 H855 0.929 . S
C867 C861 1.390 . S
C867 C864 1.386 . S
C868 C863 1.490 . S
C868 C870 1.395 . S
C868 C871 1.403 1_455 S
H869 C875 0.930 . S
C870 H856 0.930 . S
C870 C868 1.395 . S
C870 C873 1.403 . S
C871 C868 1.403 1_655 S
C871 C872 1.524 . S
C871 C875 1.400 . S
C872 H857 0.960 . S
C872 H858 0.960 . S
C872 H859 0.960 . S
C872 C871 1.524 . S
C873 C870 1.403 . S
C873 C874 1.392 1_455 S
C873 C877 1.495 . S
C874 C873 1.392 1_655 S
C874 C875 1.385 . S
C874 C876 1.478 . S
C875 H869 0.930 . S
C875 C871 1.400 . S
C875 C874 1.385 . S
C876 C874 1.478 . S
C876 C878 1.381 . S
C876 C882 1.383 . S
C877 C873 1.495 . S
C877 H883 0.959 . S
C877 H884 0.961 . S
C877 H885 0.960 . S
C878 C876 1.381 . S
C878 C879 1.394 . S
C878 H886 0.930 . S
C879 C878 1.394 . S
C879 C880 1.383 . S
C879 H887 0.929 . S
C880 C879 1.383 . S
C880 C881 1.377 . S
C881 H865 0.930 . S
C881 C880 1.377 . S
C881 C882 1.379 . S
C882 H866 0.931 1_655 S
C882 C876 1.383 . S
C882 C881 1.379 . S
H883 C877 0.959 . S
H884 C877 0.961 . S
H885 C877 0.960 . S
H886 C878 0.930 . S
H887 C879 0.929 . S
H888 C896 0.928 1_545 S
H889 C898 0.919 1_545 S
H890 C900 0.930 . S
H891 C903 0.929 . S
H892 C906 0.930 . S
H893 C908 0.960 . S
H894 C908 0.960 . S
H895 C908 0.960 . S
C896 H888 0.928 1_565 S
C896 C897 1.377 . S
C896 C898 1.394 . S
C897 C896 1.377 . S
C897 C903 1.390 . S
C898 H889 0.919 1_565 S
C898 C896 1.394 . S
C898 C899 1.373 . S
C899 C898 1.373 . S
C899 C900 1.400 . S
C899 C904 1.490 . S
C900 H890 0.930 . S
C900 C899 1.400 . S
C900 C903 1.386 . S
H901 C917 0.930 . S
H902 C918 0.931 1_565 S
C903 H891 0.929 . S
C903 C897 1.390 . S
C903 C900 1.386 . S
C904 C899 1.490 . S
C904 C906 1.395 1_565 S
C904 C907 1.403 . S
H905 C911 0.930 . S
C906 H892 0.930 . S
C906 C904 1.395 1_545 S
C906 C909 1.403 . S
C907 C904 1.403 . S
C907 C908 1.524 . S
C907 C911 1.400 . S
C908 H893 0.960 . S
C908 H894 0.960 . S
C908 H895 0.960 . S
C908 C907 1.524 . S
C909 C906 1.403 . S
C909 C910 1.392 . S
C909 C913 1.495 . S
C910 C909 1.392 . S
C910 C911 1.385 1_545 S
C910 C912 1.478 . S
C911 H905 0.930 . S
C911 C907 1.400 . S
C911 C910 1.385 1_565 S
C912 C910 1.478 . S
C912 C914 1.381 . S
C912 C918 1.383 . S
C913 C909 1.495 . S
C913 H919 0.959 . S
C913 H920 0.961 . S
C913 H921 0.960 . S
C914 C912 1.381 . S
C914 C915 1.394 . S
C914 H922 0.930 . S
C915 C914 1.394 . S
C915 C916 1.383 . S
C915 H923 0.929 . S
C916 C915 1.383 . S
C916 C917 1.377 . S
C917 H901 0.930 . S
C917 C916 1.377 . S
C917 C918 1.379 . S
C918 H902 0.931 1_545 S
C918 C912 1.383 . S
C918 C917 1.379 . S
H919 C913 0.959 . S
H920 C913 0.961 . S
H921 C913 0.960 . S
H922 C914 0.930 . S
H923 C915 0.929 . S
H924 C932 0.929 . S
H925 C934 0.930 . S
H926 C936 0.930 . S
H927 C939 0.929 . S
H928 C942 0.930 . S
H929 C944 0.960 . S
H930 C944 0.960 . S
H931 C944 0.960 . S
C932 H924 0.929 . S
C932 C933 1.377 . S
C932 C934 1.384 . S
C933 C932 1.377 . S
C933 C939 1.390 . S
C934 H925 0.930 . S
C934 C932 1.384 . S
C934 C935 1.372 . S
C935 C934 1.372 . S
C935 C936 1.400 . S
C935 C940 1.490 . S
C936 H926 0.930 . S
C936 C935 1.400 . S
C936 C939 1.386 . S
H937 C953 0.930 . S
H938 C954 0.931 . S
C939 H927 0.929 . S
C939 C933 1.390 . S
C939 C936 1.386 . S
C940 C935 1.490 . S
C940 C942 1.395 . S
C940 C943 1.403 . S
H941 C947 0.930 . S
C942 H928 0.930 . S
C942 C940 1.395 . S
C942 C945 1.403 . S
C943 C940 1.403 . S
C943 C944 1.524 . S
C943 C947 1.400 . S
C944 H929 0.960 . S
C944 H930 0.960 . S
C944 H931 0.960 . S
C944 C943 1.524 . S
C945 C942 1.403 . S
C945 C946 1.392 . S
C945 C949 1.495 . S
C946 C945 1.392 . S
C946 C947 1.385 . S
C946 C948 1.478 . S
C947 H941 0.930 . S
C947 C943 1.400 . S
C947 C946 1.385 . S
C948 C946 1.478 . S
C948 C950 1.381 . S
C948 C954 1.383 . S
C949 C945 1.495 . S
C949 H955 0.959 . S
C949 H956 0.961 . S
C949 H957 0.960 . S
C950 C948 1.381 . S
C950 C951 1.394 . S
C950 H958 0.930 . S
C951 C950 1.394 . S
C951 C952 1.383 . S
C951 H959 0.929 . S
C952 C951 1.383 . S
C952 C953 1.377 . S
C953 H937 0.930 . S
C953 C952 1.377 . S
C953 C954 1.379 . S
C954 H938 0.931 . S
C954 C948 1.383 . S
C954 C953 1.379 . S
H955 C949 0.959 . S
H956 C949 0.961 . S
H957 C949 0.960 . S
H958 C950 0.930 . S
H959 C951 0.929 . S
H960 C968 0.929 . S
H961 C970 0.930 . S
H962 C972 0.930 . S
H963 C975 0.929 . S
H964 C978 0.930 . S
H965 C980 0.960 . S
H966 C980 0.960 . S
H967 C980 0.960 . S
C968 H960 0.929 . S
C968 C969 1.377 . S
C968 C970 1.384 . S
C969 C968 1.377 . S
C969 C975 1.390 . S
C970 H961 0.930 . S
C970 C968 1.384 . S
C970 C971 1.372 . S
C971 C970 1.372 . S
C971 C972 1.400 . S
C971 C976 1.490 . S
C972 H962 0.930 . S
C972 C971 1.400 . S
C972 C975 1.386 . S
H973 C989 0.930 . S
H974 C990 0.931 . S
C975 H963 0.929 . S
C975 C969 1.390 . S
C975 C972 1.386 . S
C976 C971 1.490 . S
C976 C978 1.395 1_655 S
C976 C979 1.403 . S
H977 C983 0.930 . S
C978 H964 0.930 . S
C978 C976 1.395 1_455 S
C978 C981 1.403 . S
C979 C976 1.403 . S
C979 C980 1.524 . S
C979 C983 1.400 . S
C980 H965 0.960 . S
C980 H966 0.960 . S
C980 H967 0.960 . S
C980 C979 1.524 . S
C981 C978 1.403 . S
C981 C982 1.392 . S
C981 C985 1.495 . S
C982 C981 1.392 . S
C982 C983 1.385 1_455 S
C982 C984 1.478 . S
C983 H977 0.930 . S
C983 C979 1.400 . S
C983 C982 1.385 1_655 S
C984 C982 1.478 . S
C984 C986 1.381 . S
C984 C990 1.383 . S
C985 C981 1.495 . S
C985 H991 0.959 . S
C985 H992 0.961 . S
C985 H993 0.960 . S
C986 C984 1.381 . S
C986 C987 1.394 . S
C986 H994 0.930 . S
C987 C986 1.394 . S
C987 C988 1.383 . S
C987 H995 0.929 . S
C988 C987 1.383 . S
C988 C989 1.377 . S
C989 H973 0.930 . S
C989 C988 1.377 . S
C989 C990 1.379 . S
C990 H974 0.931 . S
C990 C984 1.383 . S
C990 C989 1.379 . S
H991 C985 0.959 . S
H992 C985 0.961 . S
H993 C985 0.960 . S
H994 C986 0.930 . S
H995 C987 0.929 . S
H996 C1004 0.929 . S
H997 C1006 0.930 . S
H998 C1008 0.930 . S
H999 C1011 0.932 . S
H1000 C1014 0.930 . S
H1001 C1016 0.960 . S
H1002 C1016 0.960 . S
H1003 C1016 0.960 . S
C1004 H996 0.929 . S
C1004 C1005 1.377 . S
C1004 C1006 1.384 . S
C1005 C1004 1.377 . S
C1005 C1011 1.388 1_545 S
C1006 H997 0.930 . S
C1006 C1004 1.384 . S
C1006 C1007 1.372 . S
C1007 C1006 1.372 . S
C1007 C1008 1.400 1_545 S
C1007 C1012 1.490 . S
C1008 H998 0.930 . S
C1008 C1007 1.400 1_565 S
C1008 C1011 1.385 . S
H1009 C1025 0.930 . S
H1010 C1026 0.931 . S
C1011 H999 0.932 . S
C1011 C1005 1.388 1_565 S
C1011 C1008 1.385 . S
C1012 C1007 1.490 . S
C1012 C1014 1.395 . S
C1012 C1015 1.403 1_545 S
H1013 C1019 0.930 . S
C1014 H1000 0.930 . S
C1014 C1012 1.395 . S
C1014 C1017 1.403 . S
C1015 C1012 1.403 1_565 S
C1015 C1016 1.524 . S
C1015 C1019 1.400 . S
C1016 H1001 0.960 . S
C1016 H1002 0.960 . S
C1016 H1003 0.960 . S
C1016 C1015 1.524 . S
C1017 C1014 1.403 . S
C1017 C1018 1.392 1_545 S
C1017 C1021 1.495 . S
C1018 C1017 1.392 1_565 S
C1018 C1019 1.385 . S
C1018 C1020 1.478 . S
C1019 H1013 0.930 . S
C1019 C1015 1.400 . S
C1019 C1018 1.385 . S
C1020 C1018 1.478 . S
C1020 C1022 1.381 1_565 S
C1020 C1026 1.383 . S
C1021 C1017 1.495 . S
C1021 H1027 0.959 . S
C1021 H1028 0.961 . S
C1021 H1029 0.960 . S
C1022 C1020 1.381 1_545 S
C1022 C1023 1.394 . S
C1022 H1030 0.930 . S
C1023 C1022 1.394 . S
C1023 C1024 1.383 1_545 S
C1023 H1031 0.929 . S
C1024 C1023 1.383 1_565 S
C1024 C1025 1.377 . S
C1025 H1009 0.930 . S
C1025 C1024 1.377 . S
C1025 C1026 1.379 . S
C1026 H1010 0.931 . S
C1026 C1020 1.383 . S
C1026 C1025 1.379 . S
H1027 C1021 0.959 . S
H1028 C1021 0.961 . S
H1029 C1021 0.960 . S
H1030 C1022 0.930 . S
H1031 C1023 0.929 . S
C177 C3 1.470 . S
C196 C129 1.450 . S
C213 C17 1.463 . S
C232 C143 1.473 . S
C249 C31 1.468 . S
C268 C157 1.448 . S
C285 C45 1.468 . S
C304 C87 1.460 . S
C321 C101 1.470 . S
C340 C59 1.449 . S
C357 C115 1.470 . S
C376 C73 1.448 . S
C393 C148 1.587 . S
C412 C8 1.590 . S
C429 C22 1.585 . S
C448 C162 1.591 . S
C465 C36 1.589 . S
C484 C92 1.581 . S
C501 C50 1.588 . S
C520 C106 1.575 . S
C537 C64 1.585 . S
C556 C120 1.591 . S
C573 C78 1.587 . S
C592 C134 1.576 . S
C609 C133 0.452 . S
C628 C7 0.518 1_556 S
C645 C21 0.455 . S
C664 C147 0.518 1_554 S
C681 C35 0.469 . S
C700 C161 0.476 . S
C717 C91 0.454 . S
C736 C49 0.519 1_556 S
C753 C63 0.473 . S
C772 C105 0.423 1_554 S
C789 C119 0.470 . S
C808 C77 0.409 . S
C825 C9 1.524 . S
C844 C51 1.532 . S
C861 C65 1.519 . S
C880 C23 1.506 . S
C897 C37 1.522 . S
C916 C79 1.533 . S
C933 C93 1.524 . S
C952 C135 1.533 . S
C969 C107 1.523 . S
C988 C149 1.533 . S
C1005 C163 1.523 . S
C1024 C121 1.508 . S
