# Generated by pormake.
# Topology xbj, (5)-cn, num edge types: 1
# Building blocks:
#     Node 0, Type 0, BuildingBlock: XOMCOT_clean_sbu_1, # of connection points: 5
#     Node 1, Type 0, BuildingBlock: XOMCOT_clean_sbu_1, # of connection points: 5
#     Node 2, Type 0, BuildingBlock: XOMCOT_clean_sbu_1, # of connection points: 5
#     Node 3, Type 0, BuildingBlock: XOMCOT_clean_sbu_1, # of connection points: 5
#     Node 4, Type 0, BuildingBlock: XOMCOT_clean_sbu_1, # of connection points: 5
#     Node 5, Type 0, BuildingBlock: XOMCOT_clean_sbu_1, # of connection points: 5
#     Node 6, Type 0, BuildingBlock: XOMCOT_clean_sbu_1, # of connection points: 5
#     Node 7, Type 0, BuildingBlock: XOMCOT_clean_sbu_1, # of connection points: 5
#     Edge 8, Type (0, 0), BuildingBlock: XUDNAN_clean_linker_2, # of connection points: 2
#     Edge 9, Type (0, 0), BuildingBlock: XUDNAN_clean_linker_2, # of connection points: 2
#     Edge 10, Type (0, 0), BuildingBlock: XUDNAN_clean_linker_2, # of connection points: 2
#     Edge 11, Type (0, 0), BuildingBlock: XUDNAN_clean_linker_2, # of connection points: 2
#     Edge 12, Type (0, 0), BuildingBlock: XUDNAN_clean_linker_2, # of connection points: 2
#     Edge 13, Type (0, 0), BuildingBlock: XUDNAN_clean_linker_2, # of connection points: 2
#     Edge 14, Type (0, 0), BuildingBlock: XUDNAN_clean_linker_2, # of connection points: 2
#     Edge 15, Type (0, 0), BuildingBlock: XUDNAN_clean_linker_2, # of connection points: 2
#     Edge 16, Type (0, 0), BuildingBlock: XUDNAN_clean_linker_2, # of connection points: 2
#     Edge 17, Type (0, 0), BuildingBlock: XUDNAN_clean_linker_2, # of connection points: 2
#     Edge 18, Type (0, 0), BuildingBlock: XUDNAN_clean_linker_2, # of connection points: 2
#     Edge 19, Type (0, 0), BuildingBlock: XUDNAN_clean_linker_2, # of connection points: 2
#     Edge 20, Type (0, 0), BuildingBlock: XUDNAN_clean_linker_2, # of connection points: 2
#     Edge 21, Type (0, 0), BuildingBlock: XUDNAN_clean_linker_2, # of connection points: 2
#     Edge 22, Type (0, 0), BuildingBlock: XUDNAN_clean_linker_2, # of connection points: 2
#     Edge 23, Type (0, 0), BuildingBlock: XUDNAN_clean_linker_2, # of connection points: 2
#     Edge 24, Type (0, 0), BuildingBlock: XUDNAN_clean_linker_2, # of connection points: 2
#     Edge 25, Type (0, 0), BuildingBlock: XUDNAN_clean_linker_2, # of connection points: 2
#     Edge 26, Type (0, 0), BuildingBlock: XUDNAN_clean_linker_2, # of connection points: 2
#     Edge 27, Type (0, 0), BuildingBlock: XUDNAN_clean_linker_2, # of connection points: 2
# Relax obj value: 0.189
# Max RMSD: 0.169
# Mean RMSD: 0.162
data_MOF--net-xbj--node1-XOMCOT_clean_sbu_1--edge1-XUDNAN_clean_linker_2
_symmetry_space_group_name_H-M    P1
_symmetry_Int_Tables_number       1
_symmetry_cell_setting            triclinic
loop_
_symmetry_equiv_pos_as_xyz
'x, y, z'
_cell_length_a     17.806131
_cell_length_b     17.701879
_cell_length_c     107.22958
_cell_angle_alpha  95.574185
_cell_angle_beta   95.999306
_cell_angle_gamma 9.965051
loop_
_atom_site_label
_atom_site_type_symbol
_atom_site_fract_x
_atom_site_fract_y
_atom_site_fract_z
_atom_type_partial_charge
C0 C 0.22148 -0.05684 0.04801 0.0
C1 C 0.28457 -0.04189 0.04889 0.0
N2 N -4.95323 5.33578 0.05228 0.0
N3 N -5.05621 5.31105 0.05062 0.0
C4 C -4.7675 5.08313 0.05337 0.0
H5 H -0.07931 0.21143 0.04513 0.0
Co6 Co -4.97872 5.12772 0.0485 0.0
C7 C -4.0221 4.17259 0.04724 0.0
O8 O -2.98018 4.08602 0.05626 0.0
N9 N -3.90496 4.94703 0.04629 0.0
C10 C -3.76187 4.69054 0.03691 0.0
C11 C -3.70853 4.71466 0.03658 0.0
C12 C -4.0717 5.05621 0.05249 0.0
N13 N -3.99009 4.90496 0.04691 0.0
O14 O -4.77658 4.92968 0.06552 0.0
H15 H -3.55022 4.58468 0.02937 0.0
H16 H -4.26568 5.25876 0.0606 0.0
O17 O -4.39679 4.56623 0.04369 0.0
C18 C -5.03849 5.18196 0.0741 0.0
O19 O -4.45442 5.58363 0.0711 0.0
N20 N -5.18624 5.33202 0.03169 0.0
C21 C -4.50668 5.64485 0.00685 0.0
C22 C -5.15383 5.34223 0.01118 0.0
C23 C -4.99994 5.19155 0.02364 0.0
C24 C -4.53628 5.63403 0.02774 0.0
C25 C -4.69891 5.79121 0.01528 0.0
H26 H -4.73581 4.96797 0.02686 0.0
H27 H -4.68875 5.75198 0.03429 0.0
H28 H -4.42501 4.73595 0.05561 0.0
H29 H 0.04185 0.24086 0.04704 0.0
H30 H -3.64509 4.53072 0.03021 0.0
H31 H -4.99793 5.22304 0.00499 0.0
H32 H 0.67968 0.25316 0.01235 0.0
C33 C -1.7227 2.31427 0.31393 0.0
C34 C -2.15059 2.75906 0.31451 0.0
N35 N -2.27591 2.91207 0.30374 0.0
N36 N -1.57404 2.18262 0.30286 0.0
C37 C -1.91901 2.55532 0.29683 0.0
H38 H -1.53717 2.10233 0.32093 0.0
Co39 Co -1.0239 1.60534 0.29771 0.0
C40 C -1.01072 1.75274 0.29293 0.0
O41 O -1.05831 1.82266 0.30481 0.0
N42 N -0.47652 1.02816 0.29304 0.0
C43 C 0.03312 0.43681 0.2891 0.0
C44 C -0.40358 0.8813 0.2902 0.0
C45 C -0.07691 0.66504 0.29365 0.0
N46 N 0.23985 0.29933 0.29133 0.0
O47 O -0.76634 1.3999 0.31285 0.0
H48 H -0.65207 1.08391 0.28953 0.0
H49 H -0.01684 0.66505 0.29656 0.0
O50 O -0.96579 1.63801 0.28944 0.0
C51 C -0.62564 1.22629 0.32212 0.0
O52 O -0.62873 1.15477 0.32113 0.0
N53 N -1.28127 1.81152 0.28273 0.0
C54 C -1.75336 2.22718 0.26069 0.0
C55 C -1.37178 1.89175 0.26028 0.0
C56 C -1.13905 1.6862 0.27139 0.0
C57 C -1.62864 2.1086 0.28327 0.0
C58 C -1.87354 2.32534 0.27235 0.0
H59 H -0.85116 1.43524 0.27089 0.0
H60 H -1.73087 2.19573 0.29227 0.0
H61 H -1.91663 2.56812 0.28729 0.0
H62 H -2.35807 2.95701 0.32215 0.0
H63 H 0.18916 0.22779 0.28722 0.0
H64 H -1.25677 1.79285 0.25147 0.0
H65 H -2.16382 2.5796 0.27313 0.0
C66 C 1.27879 -0.61719 0.54542 0.0
C67 C 1.39313 -0.65548 0.54581 0.0
N68 N 1.69214 -0.94501 0.53733 0.0
N69 N 1.5066 -0.88489 0.53679 0.0
C70 C 1.75328 -1.07689 0.53188 0.0
H71 H 1.01558 -0.37719 0.55042 0.0
Co72 Co 1.37074 -0.85396 0.53137 0.0
C73 C 2.26351 -1.77503 0.53193 0.0
O74 O 2.63551 -2.15921 0.53761 0.0
N75 N 1.21939 -0.80747 0.52601 0.0
C76 C 0.89227 -0.58507 0.51568 0.0
C77 C 0.93738 -0.55238 0.51635 0.0
C78 C 1.34897 -1.00103 0.53085 0.0
N79 N 1.14962 -0.86597 0.5248 0.0
O80 O 1.14475 -0.64054 0.54758 0.0
H81 H 0.76874 -0.34968 0.51011 0.0
H82 H 1.57205 -1.22346 0.53896 0.0
O83 O 1.92082 -1.43072 0.53812 0.0
C84 C 0.89877 -0.43798 0.55336 0.0
O85 O 0.67146 -0.26852 0.54721 0.0
N86 N 0.85572 -0.31018 0.52417 0.0
C87 C 0.21193 0.3946 0.50994 0.0
C88 C 0.62623 -0.0281 0.50543 0.0
C89 C 0.94383 -0.37535 0.51277 0.0
C90 C 0.45409 0.09833 0.52883 0.0
C91 C 0.12515 0.45832 0.52181 0.0
H92 H 1.26797 -0.70333 0.50946 0.0
H93 H 0.38902 0.14732 0.53804 0.0
H94 H 1.94195 -1.27603 0.52377 0.0
H95 H 1.25142 -0.46831 0.55146 0.0
H96 H 0.68542 -0.4149 0.50895 0.0
H97 H 0.70986 -0.09274 0.49649 0.0
H98 H -0.19075 0.78101 0.52564 0.0
C99 C 2.57045 -1.6833 0.79485 0.0
C100 C 2.12534 -1.24504 0.795 0.0
N101 N 1.95831 -1.01977 0.78952 0.0
N102 N 2.69143 -1.74208 0.78931 0.0
C103 C 2.31026 -1.33018 0.78619 0.0
H104 H 2.79429 -1.9454 0.79855 0.0
Co105 Co 2.28576 -2.31084 0.78751 0.0
C106 C 2.193 -2.05152 0.78732 0.0
O107 O 2.42186 -2.26217 0.79792 0.0
N108 N 2.88856 -2.89102 0.78584 0.0
C109 C -2.12049 2.28723 0.78113 0.0
C110 C 3.0987 -3.04161 0.78129 0.0
C111 C 4.20828 -3.25803 0.78818 0.0
N112 N -2.04967 2.14888 0.78542 0.0
O113 O 2.33351 -2.31729 0.80454 0.0
H114 H 2.94562 -2.84093 0.77777 0.0
H115 H 4.1458 -3.25022 0.79167 0.0
O116 O 2.13381 -2.0616 0.78286 0.0
C117 C 2.45059 -2.46688 0.81409 0.0
O118 O 3.57402 -2.66036 0.81264 0.0
N119 N 3.23599 -2.30235 0.77069 0.0
C120 C 3.14345 -2.27987 0.74628 0.0
C121 C 3.18286 -2.24014 0.74849 0.0
C122 C 2.2372 -2.26043 0.76077 0.0
C123 C 3.20645 -2.35015 0.76869 0.0
C124 C 3.16215 -2.34229 0.75648 0.0
H125 H 2.28306 -2.24523 0.76211 0.0
H126 H 3.21585 -2.39299 0.77661 0.0
H127 H 1.28994 -1.25908 0.78139 0.0
H128 H 1.93872 -1.10292 0.79895 0.0
H129 H -1.87603 2.07992 0.77755 0.0
H130 H 2.17734 -2.19941 0.74077 0.0
H131 H 3.13496 -2.37663 0.75503 0.0
C132 C 1.74242 -1.74139 0.91721 0.0
C133 C 2.63551 -1.71054 0.91775 0.0
N134 N 2.85981 -1.95834 0.92756 0.0
N135 N 2.04036 -2.01446 0.92651 0.0
C136 C 3.09905 -2.13514 0.93285 0.0
H137 H 1.62017 -1.58474 0.91019 0.0
Co138 Co 2.33072 -2.20643 0.92792 0.0
C139 C 3.05942 -3.03649 0.92657 0.0
O140 O 2.88913 -2.90595 0.91637 0.0
N141 N 2.61949 -2.39722 0.92905 0.0
C142 C 3.09508 -2.78065 0.92487 0.0
C143 C 3.00553 -2.76842 0.92409 0.0
C144 C 2.48275 -2.19072 0.93296 0.0
N145 N 2.7672 -2.41807 0.93046 0.0
O146 O 2.42013 -2.30778 0.91036 0.0
H147 H 3.20166 -3.00729 0.91965 0.0
H148 H 2.17215 -1.87128 0.937 0.0
O149 O 2.86999 -2.79007 0.93143 0.0
C150 C 2.20654 -2.05438 0.90327 0.0
O151 O 1.93867 -1.73836 0.9083 0.0
N152 N 2.23401 -2.09717 0.94504 0.0
C153 C 2.04469 -1.90409 0.97021 0.0
C154 C 2.47557 -2.3259 0.96676 0.0
C155 C 2.56339 -2.41486 0.95409 0.0
C156 C 1.81225 -1.68014 0.94822 0.0
C157 C 1.70991 -1.57644 0.96078 0.0
H158 H 2.89677 -2.74072 0.95159 0.0
H159 H 1.55465 -1.43003 0.94094 0.0
H160 H 3.32887 -2.36535 0.94078 0.0
H161 H 2.41359 -1.52435 0.9113 0.0
H162 H 3.37702 -3.03383 0.92142 0.0
H163 H 2.74223 -2.58519 0.97378 0.0
H164 H 1.37265 -1.24656 0.96303 0.0
C165 C -2.18072 3.19755 0.16826 0.0
C166 C -1.73841 2.75256 0.16757 0.0
N167 N -1.54685 2.59589 0.1783 0.0
N168 N -2.27195 3.32532 0.17936 0.0
C169 C -1.87765 2.95066 0.18528 0.0
H170 H -2.42213 3.41302 0.1613 0.0
Co171 Co -2.84342 3.90112 0.18468 0.0
C172 C -3.53222 3.75084 0.18921 0.0
O173 O -3.46771 3.69124 0.17729 0.0
N174 N -3.41957 4.47866 0.1896 0.0
C175 C 1.59312 -0.70589 0.19374 0.0
C176 C -3.63226 4.62796 0.19272 0.0
C177 C -3.7308 4.84086 0.18879 0.0
N178 N 1.52963 -0.57069 0.19121 0.0
O179 O -3.01282 4.11036 0.16942 0.0
H180 H -3.48497 4.42718 0.19356 0.0
H181 H -4.6736 4.83934 0.1856 0.0
O182 O -3.70468 3.86256 0.19274 0.0
C183 C -3.26682 4.32738 0.16104 0.0
O184 O -3.4378 4.43138 0.16308 0.0
N185 N -2.67421 3.69208 0.19968 0.0
C186 C -2.30334 3.27521 0.22168 0.0
C187 C -2.57456 3.60757 0.22211 0.0
C188 C -2.75894 3.81375 0.21101 0.0
C189 C -2.44448 3.39854 0.19914 0.0
C190 C -2.25017 3.18081 0.21003 0.0
H191 H -2.95946 4.06261 0.21151 0.0
H192 H -2.39174 3.31529 0.19015 0.0
H193 H -2.83526 2.93522 0.19479 0.0
H194 H -1.57053 2.55733 0.15988 0.0
H195 H 1.34072 -0.49482 0.19573 0.0
H196 H -2.63904 3.7037 0.23092 0.0
H197 H -2.04626 2.92893 0.20923 0.0
C198 C -2.15404 2.82305 0.40903 0.0
C199 C -2.18912 2.78062 0.40878 0.0
N200 N -1.93012 2.50116 0.41815 0.0
N201 N -1.87743 2.57578 0.41855 0.0
C202 C -1.73695 2.37367 0.42386 0.0
H203 H -2.33478 3.03758 0.40296 0.0
Co204 Co -1.85145 2.65631 0.42115 0.0
C205 C -1.37658 2.22644 0.44523 0.0
O206 O -1.67244 2.57209 0.44736 0.0
N207 N -1.85177 2.76376 0.42212 0.0
C208 C -2.07769 3.0983 0.41605 0.0
C209 C -2.16599 3.1098 0.41562 0.0
C210 C -1.55639 2.52735 0.42566 0.0
N211 N -1.69506 2.73335 0.42247 0.0
O212 O -1.42601 2.23551 0.40868 0.0
H213 H -2.42896 3.34128 0.41006 0.0
H214 H -1.24086 2.20541 0.43012 0.0
O215 O -1.39063 2.19932 0.43467 0.0
C216 C -1.08 1.8537 0.40755 0.0
O217 O -0.9611 1.69049 0.41608 0.0
N218 N -2.28642 3.08391 0.43335 0.0
C219 C -2.87985 3.66066 0.4519 0.0
C220 C -2.4856 3.23206 0.45237 0.0
C221 C -2.20013 2.95425 0.44298 0.0
C222 C -2.68577 3.51305 0.4323 0.0
C223 C -2.98821 3.80836 0.4416 0.0
H224 H -1.90225 2.62811 0.44378 0.0
H225 H -2.77892 3.63448 0.42426 0.0
H226 H -1.51972 2.15958 0.43214 0.0
H227 H -2.40314 2.95621 0.40252 0.0
H228 H -2.2695 3.32928 0.41133 0.0
H229 H -2.39799 3.11137 0.46001 0.0
H230 H 2.3576 -1.63367 0.44078 0.0
C231 C 2.10909 -1.79877 0.65984 0.0
C232 C 2.52287 -2.23509 0.65807 0.0
N233 N 2.81005 -2.46446 0.66237 0.0
N234 N 2.12667 -1.74431 0.66525 0.0
C235 C 2.56027 -2.15809 0.66683 0.0
H236 H 1.81179 -1.53569 0.65731 0.0
Co237 Co 1.61213 -1.17867 0.66862 0.0
C238 C 1.98481 -1.39084 0.66904 0.0
O239 O 1.68759 -1.07102 0.6613 0.0
N240 N 1.08259 -0.60091 0.67175 0.0
C241 C 0.55909 -0.00097 0.67757 0.0
C242 C 1.00101 -0.45179 0.67794 0.0
C243 C 0.68166 -0.23092 0.66779 0.0
N244 N 0.35582 0.14031 0.67113 0.0
O245 O 1.55069 -1.09793 0.65153 0.0
H246 H 1.24387 -0.65353 0.68244 0.0
H247 H 0.63034 -0.23513 0.66263 0.0
O248 O 1.96316 -1.43669 0.67218 0.0
C249 C 1.3424 -0.93421 0.64303 0.0
O250 O 1.17022 -0.82728 0.64586 0.0
N251 N 1.66905 -1.25461 0.68552 0.0
C252 C 1.76459 -1.38464 0.71035 0.0
C253 C 1.78376 -1.32821 0.70746 0.0
C254 C 1.73921 -1.26766 0.69504 0.0
C255 C 1.63279 -1.29218 0.6881 0.0
C256 C 1.68519 -1.36325 0.70044 0.0
H257 H 1.7605 -1.23013 0.69324 0.0
H258 H 1.56851 -1.27266 0.68054 0.0
H259 H 2.69073 -2.23356 0.67093 0.0
H260 H 2.60492 -2.37245 0.65395 0.0
H261 H 0.40173 0.20574 0.68152 0.0
H262 H 1.83077 -1.32822 0.71474 0.0
H263 H 1.67079 -1.4082 0.70213 0.0
H264 H -4.38695 5.4559 0.09276 0.0
H265 H -4.31291 4.53542 0.08493 0.0
H266 H -4.02597 4.25101 0.10689 0.0
H267 H 0.1277 -0.10259 0.125 0.0
H268 H 1.01944 -0.08659 0.13035 0.0
H269 H 0.87793 0.07046 0.11434 0.0
H270 H -4.3211 5.27881 0.10643 0.0
H271 H -4.17909 5.12083 0.12239 0.0
H272 H -3.75767 4.7157 0.1117 0.0
H273 H -3.8528 4.06234 0.12956 0.0
H274 H -3.7655 3.93347 0.15082 0.0
H275 H -3.92777 4.9459 0.14344 0.0
C276 C -4.09498 5.19892 0.09574 0.0
C277 C -4.87382 5.02006 0.08725 0.0
C278 C -4.48694 4.67685 0.09135 0.0
C279 C -4.32315 4.51511 0.1038 0.0
C280 C -4.54769 4.69699 0.11194 0.0
C281 C -3.92262 5.02808 0.10806 0.0
C282 C -4.08322 5.14361 0.1184 0.0
C283 C 1.12312 -0.16027 0.12225 0.0
C284 C -4.08514 5.05952 0.1145 0.0
C285 C -3.73841 4.82377 0.12868 0.0
C286 C -4.43667 4.57426 0.12484 0.0
C287 C -4.08703 4.25574 0.13269 0.0
C288 C -4.04108 4.18602 0.14475 0.0
C289 C -3.33946 4.42922 0.14874 0.0
C290 C -3.69403 4.75424 0.14062 0.0
H291 H -0.72848 1.37935 0.39564 0.0
H292 H -0.99481 1.88052 0.39192 0.0
H293 H -0.76022 1.6319 0.37011 0.0
H294 H 0.19753 0.43753 0.37367 0.0
H295 H 0.00269 0.53763 0.36753 0.0
H296 H -0.07773 0.65153 0.38364 0.0
H297 H -0.90566 1.44747 0.37991 0.0
H298 H -0.82877 1.33751 0.36384 0.0
H299 H -1.19823 1.78058 0.36748 0.0
H300 H -0.6098 1.43724 0.3481 0.0
H301 H -0.60505 1.36035 0.32729 0.0
H302 H -0.47638 1.02301 0.34496 0.0
C303 C -0.71843 1.41861 0.3904 0.0
C304 C -0.86975 1.6396 0.39548 0.0
C305 C -0.87323 1.70548 0.38819 0.0
C306 C -0.73888 1.56371 0.37584 0.0
C307 C -0.60545 1.35992 0.37092 0.0
C308 C -0.59462 1.28774 0.37797 0.0
C309 C -0.50841 1.12918 0.36994 0.0
C310 C -0.07031 0.66104 0.37394 0.0
C311 C -0.88257 1.44247 0.37031 0.0
C312 C -0.49201 1.14225 0.35718 0.0
C313 C -0.53656 1.26442 0.358 0.0
C314 C -0.56761 1.3345 0.34736 0.0
C315 C -0.5663 1.29158 0.33556 0.0
C316 C -0.54159 1.18681 0.33448 0.0
C317 C -0.49008 1.09791 0.34546 0.0
H318 H 0.6514 -0.29383 0.56975 0.0
H319 H 1.2253 -0.63943 0.56842 0.0
H320 H 1.35377 -0.75462 0.59125 0.0
H321 H 0.14785 0.24562 0.60045 0.0
H322 H 0.27714 0.02488 0.60519 0.0
H323 H 0.17592 0.13752 0.58881 0.0
H324 H 0.92362 -0.66306 0.58399 0.0
H325 H 1.02947 -0.77965 0.60035 0.0
H326 H 1.40812 -1.10264 0.59215 0.0
H327 H 1.48681 -0.90195 0.61374 0.0
H328 H 1.59335 -1.04872 0.63495 0.0
H329 H 0.94987 -0.62527 0.62217 0.0
C330 C 0.79267 -0.38159 0.57431 0.0
C331 C 0.92111 -0.44997 0.56724 0.0
C332 C 1.11702 -0.5776 0.57355 0.0
C333 C 1.19318 -0.64562 0.58657 0.0
C334 C 1.07377 -0.58698 0.59321 0.0
C335 C 0.87568 -0.45572 0.58736 0.0
C336 C 0.80988 -0.44826 0.59667 0.0
C337 C 0.32373 0.01774 0.59785 0.0
C338 C 1.05761 -0.76745 0.59307 0.0
C339 C 1.00933 -0.60346 0.60856 0.0
C340 C 1.15678 -0.6787 0.60633 0.0
C341 C 1.36844 -0.8397 0.61567 0.0
C342 C 1.42909 -0.9239 0.62768 0.0
C343 C 1.2792 -0.84766 0.63024 0.0
C344 C 1.0659 -0.6845 0.62053 0.0
H345 H 2.56815 -2.53206 0.88915 0.0
H346 H 1.92298 -1.67659 0.88639 0.0
H347 H 1.952 -1.72327 0.86336 0.0
H348 H 3.28145 -3.22658 0.86313 0.0
H349 H 3.22951 -3.2747 0.85787 0.0
H350 H 3.18569 -3.19936 0.87423 0.0
H351 H 3.43216 -2.51811 0.87391 0.0
H352 H 3.47295 -2.59052 0.85755 0.0
H353 H 3.01166 -2.07821 0.86262 0.0
H354 H 2.01998 -1.83348 0.84083 0.0
H355 H 2.10974 -1.98865 0.81991 0.0
H356 H 3.70414 -2.76771 0.83696 0.0
C357 C 2.43844 -2.35954 0.8837 0.0
C358 C 2.24483 -2.10202 0.88955 0.0
C359 C 2.07258 -1.87558 0.8821 0.0
C360 C 2.08869 -1.90108 0.86902 0.0
C361 C 2.27717 -2.15352 0.86354 0.0
C362 C 2.44882 -2.37869 0.8706 0.0
C363 C 2.61391 -2.60917 0.86227 0.0
C364 C 3.10697 -3.10703 0.86451 0.0
C365 C 3.36786 -2.43864 0.86421 0.0
C366 C 2.50305 -2.47347 0.84943 0.0
C367 C 2.31248 -2.21382 0.85042 0.0
C368 C 2.17209 -2.03941 0.83992 0.0
C369 C 2.22582 -2.13081 0.82805 0.0
C370 C 2.41718 -2.39341 0.82675 0.0
C371 C 2.55901 -2.56806 0.83762 0.0
H372 H -3.98651 4.24347 0.03062 0.0
H373 H -2.22188 3.31054 0.04675 0.0
H374 H -2.6599 2.76837 0.03145 0.0
H375 H -3.84999 4.04374 0.00028 0.0
H376 H -3.82914 4.11476 -0.00567 0.0
H377 H -4.11741 4.3889 0.00818 0.0
H378 H -3.65404 4.03636 0.02068 0.0
H379 H -3.36535 3.76305 0.00682 0.0
H380 H -3.0695 3.45111 0.02112 0.0
H381 H -2.24262 2.37491 0.01237 0.0
H382 H -2.01396 2.16997 -0.00876 0.0
H383 H -3.07366 3.37845 -0.01268 0.0
C384 C -3.69751 3.92271 0.03112 0.0
C385 C -3.64925 3.82013 0.03982 0.0
C386 C -3.26431 3.39526 0.04021 0.0
C387 C -2.94366 3.08553 0.03156 0.0
C388 C -3.01264 3.20598 0.02269 0.0
C389 C -3.37949 3.61426 0.02251 0.0
C390 C -3.40671 3.6861 0.01119 0.0
C391 C -3.82535 4.08147 0.00302 0.0
C392 C -3.37162 3.73698 0.0152 0.0
C393 C -3.00729 3.26137 0.0047 0.0
C394 C -2.77829 2.98412 0.01159 0.0
C395 C -2.41453 2.58565 0.00702 0.0
C396 C -2.28657 2.47163 -0.00498 0.0
C397 C -2.52586 2.75825 -0.01232 0.0
C398 C -2.88474 3.15314 -0.00727 0.0
H399 H -1.34752 2.04635 0.26934 0.0
H400 H -0.95293 1.85134 0.29487 0.0
H401 H -1.21478 2.19527 0.27894 0.0
H402 H -1.09816 1.87198 0.24008 0.0
H403 H -1.57416 2.3003 0.23186 0.0
H404 H -1.31679 2.00193 0.24482 0.0
H405 H -2.047 2.72872 0.2559 0.0
H406 H -2.30486 3.02715 0.24292 0.0
H407 H -2.32769 3.09567 0.25863 0.0
H408 H -1.54624 2.58551 0.26034 0.0
H409 H -1.93095 3.00165 0.24101 0.0
H410 H -2.1434 2.97344 0.22861 0.0
C411 C -1.30351 2.06327 0.2715 0.0
C412 C -1.12076 1.91318 0.28323 0.0
C413 C -1.08704 1.95949 0.28586 0.0
C414 C -1.23489 2.15419 0.27688 0.0
C415 C -1.4196 2.30444 0.26546 0.0
C416 C -1.45532 2.26214 0.26281 0.0
C417 C -1.69543 2.47853 0.25032 0.0
C418 C -1.40351 2.14302 0.24123 0.0
C419 C -2.1188 2.85483 0.25205 0.0
C420 C -1.78689 2.64711 0.24623 0.0
C421 C -1.62436 2.54258 0.25506 0.0
C422 C -1.67512 2.66943 0.25338 0.0
C423 C -1.89741 2.90891 0.24241 0.0
C424 C -2.06932 3.02214 0.23328 0.0
C425 C -2.01154 2.88782 0.23529 0.0
H426 H -0.8819 1.60717 0.44659 0.0
H427 H -1.30621 2.23003 0.46878 0.0
H428 H -0.99434 1.87189 0.48794 0.0
H429 H -1.09606 1.68848 0.46866 0.0
H430 H -0.62151 1.16119 0.46567 0.0
H431 H -0.86729 1.45609 0.45346 0.0
H432 H -0.13458 0.79761 0.45093 0.0
H433 H 0.11556 0.49739 0.46294 0.0
H434 H 0.14405 0.57139 0.46449 0.0
H435 H -0.66993 1.47749 0.50486 0.0
H436 H -0.24998 0.97724 0.51806 0.0
H437 H -0.02508 0.60076 0.48502 0.0
C438 C -0.90181 1.66154 0.45544 0.0
C439 C -1.1198 1.94788 0.45616 0.0
C440 C -1.14157 2.01274 0.46796 0.0
C441 C -0.96796 1.81315 0.47893 0.0
C442 C -0.77017 1.54646 0.47797 0.0
C443 C -0.72797 1.4628 0.46652 0.0
C444 C -0.49285 1.15606 0.46811 0.0
C445 C -0.78708 1.3789 0.46371 0.0
C446 C -0.06661 0.73034 0.46121 0.0
C447 C -0.40789 1.07922 0.48222 0.0
C448 C -0.57633 1.31272 0.48775 0.0
C449 C -0.5356 1.29204 0.50067 0.0
C450 C -0.30107 1.01128 0.5081 0.0
C451 C -0.10782 0.75323 0.50254 0.0
C452 C -0.17128 0.7962 0.48949 0.0
H453 H 2.45192 -1.57807 0.73002 0.0
H454 H 3.68743 -2.91661 0.73367 0.0
H455 H 3.57593 -2.86702 0.71192 0.0
H456 H 1.89614 -1.18412 0.71448 0.0
H457 H 1.552 -0.78895 0.70461 0.0
H458 H 1.76383 -0.95606 0.71958 0.0
H459 H 2.09784 -1.17807 0.70856 0.0
H460 H 1.89192 -1.01755 0.69351 0.0
H461 H 2.46361 -1.56297 0.69615 0.0
H462 H 3.30481 -2.65435 0.69076 0.0
H463 H 2.85426 -2.26887 0.6729 0.0
H464 H 1.77755 -1.05617 0.68325 0.0
C465 C 2.70126 -1.86198 0.72609 0.0
C466 C 3.08006 -2.25276 0.73332 0.0
C467 C 3.39641 -2.61593 0.72815 0.0
C468 C 3.33729 -2.5914 0.71581 0.0
C469 C 2.95899 -2.20041 0.70887 0.0
C470 C 2.6435 -1.84015 0.71388 0.0
C471 C 2.24313 -1.44308 0.70507 0.0
C472 C 1.84024 -1.07141 0.71131 0.0
C473 C 2.16997 -1.29159 0.70056 0.0
C474 C 2.37701 -1.63238 0.69448 0.0
C475 C 2.79564 -2.07269 0.69673 0.0
C476 C 2.97906 -2.31143 0.68883 0.0
C477 C 2.72095 -2.0901 0.67873 0.0
C478 C 2.28414 -1.63521 0.67672 0.0
C479 C 2.11554 -1.40703 0.68438 0.0
H480 H 1.61345 -1.48762 0.76724 0.0
H481 H 2.55207 -2.26495 0.7881 0.0
H482 H 2.48896 -2.11619 0.7713 0.0
H483 H 2.01015 -1.87034 0.7386 0.0
H484 H 1.49624 -1.36408 0.72974 0.0
H485 H 1.54592 -1.45569 0.74431 0.0
H486 H 0.91753 -0.75045 0.75313 0.0
H487 H 0.85574 -0.64768 0.73845 0.0
H488 H 0.94095 -0.67202 0.75294 0.0
H489 H 2.42533 -1.99716 0.75074 0.0
H490 H 2.31031 -1.85341 0.72891 0.0
H491 H 1.38487 -1.12306 0.7218 0.0
C492 C 1.79541 -1.61513 0.76848 0.0
C493 C 2.08759 -1.88761 0.77896 0.0
C494 C 2.32324 -2.05193 0.7802 0.0
C495 C 2.2907 -1.97058 0.77068 0.0
C496 C 2.01609 -1.71906 0.76015 0.0
C497 C 1.76557 -1.5361 0.75912 0.0
C498 C 1.52387 -1.30925 0.74645 0.0
C499 C 1.65194 -1.51213 0.73936 0.0
C500 C 1.03021 -0.81549 0.74783 0.0
C501 C 1.69053 -1.40753 0.74029 0.0
C502 C 1.97199 -1.64197 0.74837 0.0
C503 C 2.19522 -1.80208 0.74445 0.0
C504 C 2.12574 -1.71666 0.732 0.0
C505 C 1.83237 -1.46993 0.72358 0.0
C506 C 1.6115 -1.31273 0.7279 0.0
H507 H -3.26163 3.45433 0.21279 0.0
H508 H -3.27548 3.64378 0.18727 0.0
H509 H -2.84169 3.29742 0.20321 0.0
H510 H -3.3202 3.63204 0.24199 0.0
H511 H -2.95035 3.20683 0.25028 0.0
H512 H -3.29109 3.50282 0.23727 0.0
H513 H -2.60997 2.77366 0.22632 0.0
H514 H -2.26996 2.47791 0.23938 0.0
H515 H -2.17303 2.40403 0.2237 0.0
H516 H -2.3858 2.90727 0.2219 0.0
H517 H -1.93519 2.49488 0.24131 0.0
H518 H -2.19689 2.53302 0.25372 0.0
C519 C -3.18531 3.43541 0.21062 0.0
C520 C -3.31075 3.58509 0.19889 0.0
C521 C -3.18695 3.53599 0.19627 0.0
C522 C -2.941 3.33988 0.20526 0.0
C523 C -2.81865 3.19114 0.21669 0.0
C524 C -2.93615 3.2358 0.21934 0.0
C525 C -2.74033 3.02293 0.23187 0.0
C526 C -3.09685 3.3615 0.24088 0.0
C527 C -2.42987 2.64735 0.23022 0.0
C528 C -2.49587 2.85361 0.23601 0.0
C529 C -2.5455 2.95445 0.22716 0.0
C530 C -2.34447 2.82622 0.22887 0.0
C531 C -2.08625 2.58894 0.23989 0.0
C532 C -2.02852 2.47935 0.24905 0.0
C533 C -2.23805 2.61553 0.24701 0.0
H534 H -2.74278 3.58652 0.47566 0.0
H535 H 2.04579 -1.47876 0.45145 0.0
H536 H 1.77071 -1.2598 0.47003 0.0
H537 H -2.39573 3.11345 0.49385 0.0
H538 H -2.35364 3.12926 0.50869 0.0
H539 H -2.31335 3.13296 0.49434 0.0
H540 H 2.7054 -1.92218 0.49983 0.0
H541 H 2.68194 -1.93951 0.51455 0.0
H542 H 2.20106 -1.46119 0.50428 0.0
H543 H 1.73497 -1.28301 0.49025 0.0
H544 H 1.82906 -1.41872 0.51146 0.0
H545 H 2.71946 -2.11511 0.52266 0.0
C546 C 2.64601 -1.96581 0.47441 0.0
C547 C 2.49134 -1.84116 0.46226 0.0
C548 C 2.15618 -1.56411 0.46075 0.0
C549 C 2.00315 -1.44379 0.47124 0.0
C550 C 2.18802 -1.60184 0.48307 0.0
C551 C 2.49343 -1.84657 0.48476 0.0
C552 C 2.68124 -2.02245 0.49815 0.0
C553 C -2.48063 3.25338 0.49878 0.0
C554 C 2.55968 -1.82404 0.50458 0.0
C555 C 2.44913 -1.85584 0.50361 0.0
C556 C 2.16333 -1.61082 0.4948 0.0
C557 C 1.9396 -1.45373 0.49739 0.0
C558 C 1.98862 -1.52539 0.50951 0.0
C559 C 2.25308 -1.74556 0.51888 0.0
C560 C 2.50317 -1.93212 0.51572 0.0
H561 H -5.67535 5.93536 -0.00589 0.0
H562 H -4.74985 5.76335 -0.00978 0.0
H563 H -0.59642 1.51151 0.96433 0.0
H564 H 3.45023 -3.38908 0.97453 0.0
H565 H 3.62656 -3.48188 0.96736 0.0
H566 H -0.58202 0.80397 -0.01393 0.0
H567 H -1.02397 1.27383 0.9716 0.0
H568 H 4.37125 -4.22296 0.95699 0.0
H569 H -0.95058 1.13992 0.95742 0.0
H570 H 4.69896 -3.87744 0.94367 0.0
H571 H 4.26557 -3.39142 0.9269 0.0
H572 H 3.59542 -3.49327 0.94452 0.0
C573 C -5.74869 5.95457 -0.0114 0.0
C574 C -4.68417 5.82096 -0.00625 0.0
C575 C -4.79739 5.86447 -0.01359 0.0
C576 C -0.50346 1.47186 0.96986 0.0
C577 C 5.09473 -4.17806 0.96505 0.0
C578 C 4.20166 -4.21651 0.97215 0.0
C579 C 4.06978 -4.01798 0.96534 0.0
C580 C 3.73888 -3.64081 0.97271 0.0
C581 C -1.18829 1.41163 0.96268 0.0
C582 C 3.86321 -3.85293 0.95339 0.0
C583 C 4.88554 -3.95312 0.95327 0.0
C584 C 4.68569 -3.80325 0.94357 0.0
C585 C 4.44298 -3.53017 0.93403 0.0
C586 C 3.39963 -3.40743 0.93441 0.0
C587 C 3.62619 -3.58492 0.94396 0.0
H588 H -4.32068 5.11376 0.03135 0.0
H589 H -3.9649 4.83261 0.07028 0.0
H590 H -4.14074 4.87774 0.07592 0.0
H591 H 0.415 0.13282 0.03767 0.0
H592 H -5.15632 5.75581 0.02471 0.0
H593 H -4.99097 5.68892 0.02392 0.0
H594 H -4.20907 4.86907 0.01952 0.0
H595 H -4.37107 4.93256 0.02044 0.0
H596 H -3.92342 4.52949 0.03036 0.0
H597 H -4.31848 4.912 0.07689 0.0
H598 H -4.58439 5.04187 0.07364 0.0
H599 H -4.88299 5.3633 0.03444 0.0
C600 C -4.28065 5.06244 0.04106 0.0
C601 C -4.12589 4.96634 0.05039 0.0
C602 C -4.08411 4.90786 0.06302 0.0
C603 C -4.18041 4.92993 0.06627 0.0
C604 C -4.3264 5.01906 0.0568 0.0
C605 C -4.38491 5.09345 0.04449 0.0
C606 C -4.56577 5.20437 0.03615 0.0
C607 C -5.01565 5.66771 0.03027 0.0
C608 C -4.24834 4.86352 0.02602 0.0
C609 C -4.59769 5.17819 0.04564 0.0
C610 C -4.45093 5.0632 0.05748 0.0
C611 C -4.43722 5.0058 0.06767 0.0
C612 C -4.58546 5.07679 0.06575 0.0
C613 C -4.75249 5.21123 0.05382 0.0
C614 C -4.75625 5.26031 0.04366 0.0
H615 H 0.81677 -0.36237 0.30241 0.0
H616 H 0.71606 -0.05988 0.28293 0.0
H617 H 1.52379 -0.85104 0.28345 0.0
H618 H 1.74088 -1.21609 0.32297 0.0
H619 H -3.68836 4.24248 0.32258 0.0
H620 H 1.39016 -0.95084 0.32061 0.0
H621 H 1.38661 -1.03247 0.29952 0.0
H622 H -3.69151 4.16072 0.30137 0.0
H623 H -3.9269 4.42993 0.28741 0.0
H624 H -3.2958 4.0768 0.28516 0.0
H625 H -2.53394 3.28327 0.29006 0.0
H626 H -3.01289 3.57206 0.30906 0.0
C627 C 0.96478 -0.46261 0.29826 0.0
C628 C 0.70543 -0.15171 0.29252 0.0
C629 C 0.91027 -0.29398 0.2874 0.0
C630 C 1.36796 -0.74227 0.28759 0.0
C631 C 1.61466 -1.04206 0.29313 0.0
C632 C 1.41736 -0.90457 0.29854 0.0
C633 C -3.90945 4.49461 0.30415 0.0
C634 C 1.70982 -1.2444 0.31842 0.0
C635 C -3.95241 4.45575 0.29772 0.0
C636 C -3.49264 4.11883 0.301 0.0
C637 C -3.5727 4.26097 0.29452 0.0
C638 C -3.23159 3.96457 0.29035 0.0
C639 C -2.80036 3.51481 0.29309 0.0
C640 C -2.71479 3.36732 0.30008 0.0
C641 C -3.0676 3.67536 0.30392 0.0
H642 H 0.48541 -0.30787 0.52448 0.0
H643 H 1.8787 -1.66575 0.53113 0.0
H644 H 1.92753 -1.85203 0.53382 0.0
H645 H 0.33145 -0.2874 0.54747 0.0
H646 H 0.90265 0.08633 0.53816 0.0
H647 H -0.01011 0.09905 0.53662 0.0
H648 H 0.0652 -0.00669 0.51271 0.0
H649 H 0.98437 -0.02603 0.51421 0.0
H650 H 1.46413 -0.47009 0.50721 0.0
H651 H 2.81263 -1.8827 0.53487 0.0
H652 H 2.53666 -1.73919 0.53718 0.0
H653 H 1.21962 -0.35767 0.53073 0.0
C654 C 0.80093 -0.64463 0.5265 0.0
C655 C 1.17931 -0.97368 0.52751 0.0
C656 C 1.58537 -1.40929 0.53038 0.0
C657 C 1.61556 -1.51751 0.53181 0.0
C658 C 1.23555 -1.18497 0.5305 0.0
C659 C 0.83508 -0.75584 0.52813 0.0
C660 C 0.47169 -0.45379 0.52769 0.0
C661 C 0.15541 -0.11936 0.53811 0.0
C662 C 1.23237 -0.22582 0.51468 0.0
C663 C 1.72806 -0.77827 0.53011 0.0
C664 C 2.16909 -1.2 0.53154 0.0
C665 C 2.46779 -1.55318 0.5338 0.0
C666 C 2.31001 -1.47055 0.53498 0.0
C667 C 1.85867 -1.03888 0.53403 0.0
C668 C 1.56664 -0.69099 0.53141 0.0
H669 H -1.22367 1.39086 0.78769 0.0
H670 H -0.93494 1.88219 0.78395 0.0
H671 H -0.242 1.12606 0.7839 0.0
H672 H -0.35339 0.46675 0.76763 0.0
H673 H 0.06489 0.1046 0.77719 0.0
H674 H -0.48617 0.68473 0.77694 0.0
H675 H -0.48688 0.68695 0.8011 0.0
H676 H 0.0649 0.10659 0.80144 0.0
H677 H -0.35073 0.46681 0.80834 0.0
H678 H 0.52396 0.31987 0.78393 0.0
H679 H 1.31149 -0.48292 0.78532 0.0
H680 H 0.55183 -0.47818 0.78927 0.0
C681 C -1.23455 1.34027 0.78679 0.0
C682 C -1.63912 1.70154 0.78583 0.0
C683 C -0.63404 1.61608 0.78486 0.0
C684 C -0.24031 1.1858 0.78472 0.0
C685 C 0.15006 0.83968 0.78559 0.0
C686 C -0.84264 0.91077 0.7867 0.0
C687 C -0.37557 0.47756 0.78777 0.0
C688 C -0.28217 0.43079 0.77673 0.0
C689 C -0.28161 0.43187 0.80042 0.0
C690 C -0.12165 0.15198 0.78708 0.0
C691 C 0.59583 0.37057 0.78577 0.0
C692 C 0.74741 0.14613 0.78503 0.0
C693 C 1.19733 -0.31184 0.78589 0.0
C694 C 1.49751 -0.5478 0.78754 0.0
C695 C 0.33328 -0.30996 0.78794 0.0
H696 H 2.94615 -2.17154 0.91182 0.0
H697 H 2.7685 -1.9154 0.95063 0.0
H698 H 2.69607 -1.97717 0.95572 0.0
H699 H 2.2124 -1.6014 0.90911 0.0
H700 H 2.55235 -2.00011 0.89951 0.0
H701 H 2.58685 -1.93303 0.89906 0.0
H702 H 3.41333 -2.75515 0.90476 0.0
H703 H 3.38247 -2.82595 0.90509 0.0
H704 H 3.6048 -2.98763 0.91859 0.0
H705 H 2.5892 -2.01666 0.95592 0.0
H706 H 2.57413 -2.14267 0.95199 0.0
H707 H 2.88498 -2.43394 0.91347 0.0
C708 C 2.89412 -2.13079 0.9214 0.0
C709 C 2.85977 -2.0357 0.93084 0.0
C710 C 2.79709 -1.98977 0.9433 0.0
C711 C 2.75274 -2.02145 0.94622 0.0
C712 C 2.7806 -2.10809 0.93662 0.0
C713 C 2.85988 -2.17185 0.92451 0.0
C714 C 2.89493 -2.27961 0.91597 0.0
C715 C 2.54049 -1.93281 0.90528 0.0
C716 C 3.351 -2.73942 0.9108 0.0
C717 C 2.81751 -2.26141 0.92507 0.0
C718 C 2.74524 -2.15537 0.93691 0.0
C719 C 2.65036 -2.10448 0.94671 0.0
C720 C 2.63889 -2.17303 0.9444 0.0
C721 C 2.72968 -2.29916 0.93246 0.0
C722 C 2.8172 -2.34056 0.9227 0.0
H723 H 0.80459 0.08366 0.17957 0.0
H724 H 0.30684 -0.20604 0.19973 0.0
H725 H -0.43641 0.58564 0.19898 0.0
H726 H 0.036 0.93452 0.15888 0.0
H727 H -0.36063 1.25263 0.1589 0.0
H728 H 0.20936 0.66738 0.161 0.0
H729 H 0.06533 0.75337 0.18181 0.0
H730 H -0.50426 1.33863 0.17984 0.0
H731 H -0.20117 1.07441 0.19399 0.0
H732 H -1.2665 1.43535 0.19714 0.0
H733 H -2.06422 2.22767 0.19221 0.0
H734 H -0.99033 1.92974 0.17251 0.0
C735 C 0.75808 0.18707 0.18378 0.0
C736 C 1.11112 -0.12037 0.18979 0.0
C737 C 0.03985 0.02543 0.19504 0.0
C738 C -0.3812 0.47404 0.19472 0.0
C739 C -0.72513 0.77063 0.18892 0.0
C740 C 0.34405 0.6296 0.18336 0.0
C741 C -0.07296 1.00683 0.17751 0.0
C742 C -0.0453 0.96265 0.16323 0.0
C743 C -0.1847 1.04543 0.18366 0.0
C744 C -0.39149 1.3854 0.18075 0.0
C745 C -1.18848 1.24629 0.18743 0.0
C746 C -1.42588 1.54521 0.19178 0.0
C747 C -1.87874 1.99446 0.18901 0.0
C748 C -1.08808 2.13962 0.18183 0.0
C749 C -0.83881 1.82875 0.17779 0.0
H750 H -3.08705 3.25869 0.42413 0.0
H751 H -1.82169 1.89846 0.42564 0.0
H752 H -1.47138 1.67853 0.42736 0.0
H753 H -2.82464 3.13308 0.40427 0.0
H754 H -3.15923 3.53818 0.41151 0.0
H755 H -3.29934 3.57901 0.41222 0.0
H756 H -3.29222 3.59386 0.4365 0.0
H757 H -3.15053 3.55177 0.43586 0.0
H758 H -2.81391 3.15935 0.44513 0.0
H759 H -1.26539 1.61672 0.42691 0.0
H760 H -1.23594 1.72467 0.42344 0.0
H761 H -2.64012 3.12312 0.42154 0.0
C762 C -2.73595 2.91384 0.4249 0.0
C763 C -2.4827 2.59633 0.42467 0.0
C764 C -2.02367 2.14863 0.4259 0.0
C765 C -1.82202 2.02094 0.42685 0.0
C766 C -2.0839 2.34485 0.42669 0.0
C767 C -2.53195 2.7826 0.42579 0.0
C768 C -2.74561 3.07047 0.42483 0.0
C769 C -3.02325 3.34607 0.41247 0.0
C770 C -3.01648 3.36091 0.43626 0.0
C771 C -2.34906 2.72781 0.42493 0.0
C772 C -1.9685 2.31023 0.42624 0.0
C773 C -1.56232 1.94299 0.42601 0.0
C774 C -1.54733 2.00591 0.4241 0.0
C775 C -1.93575 2.43162 0.42223 0.0
C776 C -2.33888 2.79445 0.42296 0.0
H777 H -2.20741 2.75428 0.67796 0.0
H778 H -2.41273 2.79938 0.64465 0.0
H779 H -1.62431 2.00183 0.64346 0.0
H780 H -1.22505 1.86979 0.66776 0.0
H781 H -0.95973 1.61683 0.68321 0.0
H782 H -1.54447 2.19748 0.68144 0.0
H783 H -1.58659 2.12908 0.69554 0.0
H784 H -1.00218 1.54822 0.6973 0.0
H785 H -1.2988 1.75709 0.69147 0.0
H786 H -0.81346 1.19504 0.64596 0.0
H787 H -0.03114 0.43386 0.65164 0.0
H788 H -0.32191 0.88251 0.68333 0.0
C789 C -2.086 2.59652 0.67036 0.0
C790 C -2.37793 2.84463 0.66149 0.0
C791 C -2.2015 2.62109 0.65173 0.0
C792 C -1.75152 2.16581 0.65091 0.0
C793 C -1.4743 1.93097 0.65989 0.0
C794 C -1.63277 2.13709 0.6694 0.0
C795 C -1.25804 1.8009 0.67786 0.0
C796 C -1.24622 1.8758 0.67754 0.0
C797 C -1.28835 1.80946 0.69134 0.0
C798 C -0.86755 1.37657 0.67164 0.0
C799 C -1.00164 1.46106 0.66128 0.0
C800 C -0.70453 1.1249 0.65406 0.0
C801 C -0.25866 0.69101 0.65744 0.0
C802 C -0.10829 0.59143 0.66798 0.0
C803 C -0.42122 0.94311 0.67515 0.0
loop_
_geom_bond_atom_site_label_1
_geom_bond_atom_site_label_2
_geom_bond_distance
_geom_bond_site_symmetry_2
_ccdc_geom_bond_type
C0 C1 1.351 . S
C0 N3 1.368 . S
C0 H5 0.931 . S
C1 C0 1.351 . S
C1 N2 1.373 . S
C1 H29 0.930 . S
N2 C1 1.373 . S
N2 C4 1.340 . S
N3 C0 1.368 . S
N3 C4 1.321 . S
N3 Co6 2.135 . S
C4 N2 1.340 . S
C4 N3 1.321 . S
C4 H28 0.930 . S
H5 C0 0.931 . S
Co6 N3 2.135 . S
Co6 N9 2.121 1_455 S
Co6 O14 2.055 . S
Co6 O17 2.039 . S
Co6 N20 2.140 . S
C7 O8 1.227 . S
C7 O17 1.265 . S
O8 C7 1.227 . S
N9 Co6 2.121 1_655 S
N9 C11 1.375 . S
N9 C12 1.313 . S
C10 C11 1.338 . S
C10 N13 1.377 . S
C10 H30 0.930 . S
C11 N9 1.375 . S
C11 C10 1.338 . S
C11 H15 0.931 . S
C12 N9 1.313 . S
C12 N13 1.344 . S
C12 H16 0.930 . S
N13 C10 1.377 . S
N13 C12 1.344 . S
O14 Co6 2.055 . S
O14 C18 1.253 . S
H15 C11 0.931 . S
H16 C12 0.930 . S
O17 Co6 2.039 . S
O17 C7 1.265 . S
C18 O14 1.253 . S
C18 O19 1.227 . S
O19 C18 1.227 . S
N20 Co6 2.140 . S
N20 C23 1.346 . S
N20 C24 1.345 1_455 S
C21 C22 1.387 . S
C21 C25 1.391 1_455 S
C22 C21 1.387 . S
C22 C23 1.369 . S
C22 H31 0.929 . S
C23 N20 1.346 . S
C23 C22 1.369 . S
C23 H26 0.928 . S
C24 N20 1.345 1_655 S
C24 C25 1.371 . S
C24 H27 0.931 . S
C25 C21 1.391 1_655 S
C25 C24 1.371 . S
C25 H32 0.930 . S
H26 C23 0.928 . S
H27 C24 0.931 . S
H28 C4 0.930 . S
H29 C1 0.930 . S
H30 C10 0.930 . S
H31 C22 0.929 . S
H32 C25 0.930 . S
C33 C34 1.351 . S
C33 N36 1.368 . S
C33 H38 0.931 . S
C34 C33 1.351 . S
C34 N35 1.373 . S
C34 H62 0.930 . S
N35 C34 1.373 . S
N35 C37 1.340 . S
N36 C33 1.368 . S
N36 C37 1.321 . S
N36 Co39 2.135 . S
C37 N35 1.340 . S
C37 N36 1.321 . S
C37 H61 0.930 . S
H38 C33 0.931 . S
Co39 N36 2.135 . S
Co39 N42 2.121 . S
Co39 O47 2.055 . S
Co39 O50 2.039 . S
Co39 N53 2.140 . S
C40 O41 1.227 . S
C40 O50 1.265 . S
O41 C40 1.227 . S
N42 Co39 2.121 . S
N42 C44 1.375 . S
N42 C45 1.313 . S
C43 C44 1.338 . S
C43 N46 1.377 . S
C43 H63 0.930 . S
C44 N42 1.375 . S
C44 C43 1.338 . S
C44 H48 0.931 . S
C45 N42 1.313 . S
C45 N46 1.344 . S
C45 H49 0.930 . S
N46 C43 1.377 . S
N46 C45 1.344 . S
O47 Co39 2.055 . S
O47 C51 1.253 . S
H48 C44 0.931 . S
H49 C45 0.930 . S
O50 Co39 2.039 . S
O50 C40 1.265 . S
C51 O47 1.253 . S
C51 O52 1.227 . S
O52 C51 1.227 . S
N53 Co39 2.140 . S
N53 C56 1.346 . S
N53 C57 1.345 . S
C54 C55 1.387 . S
C54 C58 1.391 . S
C55 C54 1.387 . S
C55 C56 1.369 . S
C55 H64 0.929 . S
C56 N53 1.346 . S
C56 C55 1.369 . S
C56 H59 0.928 . S
C57 N53 1.345 . S
C57 C58 1.371 . S
C57 H60 0.931 . S
C58 C54 1.391 . S
C58 C57 1.371 . S
C58 H65 0.930 . S
H59 C56 0.928 . S
H60 C57 0.931 . S
H61 C37 0.930 . S
H62 C34 0.930 . S
H63 C43 0.930 . S
H64 C55 0.929 . S
H65 C58 0.930 . S
C66 C67 1.351 . S
C66 N69 1.368 . S
C66 H71 0.931 . S
C67 C66 1.351 . S
C67 N68 1.373 . S
C67 H95 0.930 . S
N68 C67 1.373 . S
N68 C70 1.340 . S
N69 C66 1.368 . S
N69 C70 1.321 . S
N69 Co72 2.135 . S
C70 N68 1.340 . S
C70 N69 1.321 . S
C70 H94 0.930 . S
H71 C66 0.931 . S
Co72 N69 2.135 . S
Co72 N75 2.121 . S
Co72 O80 2.055 . S
Co72 O83 2.039 . S
Co72 N86 2.140 . S
C73 O74 1.227 . S
C73 O83 1.265 . S
O74 C73 1.227 . S
N75 Co72 2.121 . S
N75 C77 1.375 . S
N75 C78 1.313 . S
C76 C77 1.338 . S
C76 N79 1.377 . S
C76 H96 0.930 . S
C77 N75 1.375 . S
C77 C76 1.338 . S
C77 H81 0.931 . S
C78 N75 1.313 . S
C78 N79 1.344 . S
C78 H82 0.930 . S
N79 C76 1.377 . S
N79 C78 1.344 . S
O80 Co72 2.055 . S
O80 C84 1.253 . S
H81 C77 0.931 . S
H82 C78 0.930 . S
O83 Co72 2.039 . S
O83 C73 1.265 . S
C84 O80 1.253 . S
C84 O85 1.227 . S
O85 C84 1.227 . S
N86 Co72 2.140 . S
N86 C89 1.346 . S
N86 C90 1.345 . S
C87 C88 1.387 . S
C87 C91 1.391 . S
C88 C87 1.387 . S
C88 C89 1.369 . S
C88 H97 0.929 . S
C89 N86 1.346 . S
C89 C88 1.369 . S
C89 H92 0.928 . S
C90 N86 1.345 . S
C90 C91 1.371 . S
C90 H93 0.931 . S
C91 C87 1.391 . S
C91 C90 1.371 . S
C91 H98 0.930 . S
H92 C89 0.928 . S
H93 C90 0.931 . S
H94 C70 0.930 . S
H95 C67 0.930 . S
H96 C76 0.930 . S
H97 C88 0.929 . S
H98 C91 0.930 . S
C99 C100 1.351 . S
C99 N102 1.368 . S
C99 H104 0.931 . S
C100 C99 1.351 . S
C100 N101 1.373 . S
C100 H128 0.930 . S
N101 C100 1.373 . S
N101 C103 1.340 . S
N102 C99 1.368 . S
N102 C103 1.321 . S
N102 Co105 2.135 . S
C103 N101 1.340 . S
C103 N102 1.321 . S
C103 H127 0.930 . S
H104 C99 0.931 . S
Co105 N102 2.135 . S
Co105 N108 2.121 . S
Co105 O113 2.055 . S
Co105 O116 2.039 . S
Co105 N119 2.140 . S
C106 O107 1.227 . S
C106 O116 1.265 . S
O107 C106 1.227 . S
N108 Co105 2.121 . S
N108 C110 1.375 . S
N108 C111 1.313 . S
C109 C110 1.338 . S
C109 N112 1.377 . S
C109 H129 0.930 1_545 S
C110 N108 1.375 . S
C110 C109 1.338 . S
C110 H114 0.931 . S
C111 N108 1.313 . S
C111 N112 1.344 . S
C111 H115 0.930 . S
N112 C109 1.377 . S
N112 C111 1.344 . S
O113 Co105 2.055 . S
O113 C117 1.253 . S
H114 C110 0.931 . S
H115 C111 0.930 . S
O116 Co105 2.039 . S
O116 C106 1.265 . S
C117 O113 1.253 . S
C117 O118 1.227 . S
O118 C117 1.227 . S
N119 Co105 2.140 . S
N119 C122 1.345 1_455 S
N119 C123 1.345 1_455 S
C120 C121 1.387 . S
C120 C124 1.391 . S
C121 C120 1.387 . S
C121 C122 1.378 . S
C121 H130 0.929 . S
C122 N119 1.345 1_655 S
C122 C121 1.378 . S
C122 H125 0.921 1_655 S
C123 N119 1.345 1_655 S
C123 C124 1.371 . S
C123 H126 0.931 . S
C124 C120 1.391 . S
C124 C123 1.371 . S
C124 H131 0.930 . S
H125 C122 0.921 1_455 S
H126 C123 0.931 . S
H127 C103 0.930 . S
H128 C100 0.930 . S
H129 C109 0.930 1_565 S
H130 C121 0.929 . S
H131 C124 0.930 . S
C132 C133 1.351 . S
C132 N135 1.368 . S
C132 H137 0.931 . S
C133 C132 1.351 . S
C133 N134 1.373 . S
C133 H161 0.930 . S
N134 C133 1.373 . S
N134 C136 1.340 . S
N135 C132 1.368 . S
N135 C136 1.321 . S
N135 Co138 2.135 1_655 S
C136 N134 1.340 . S
C136 N135 1.321 . S
C136 H160 0.930 . S
H137 C132 0.931 . S
Co138 N135 2.135 1_455 S
Co138 N141 2.121 . S
Co138 O146 2.055 . S
Co138 O149 2.039 . S
Co138 N152 2.140 . S
C139 O140 1.227 . S
C139 O149 1.265 . S
O140 C139 1.227 . S
N141 Co138 2.121 . S
N141 C143 1.375 . S
N141 C144 1.313 . S
C142 C143 1.338 . S
C142 N145 1.377 . S
C142 H162 0.930 . S
C143 N141 1.375 . S
C143 C142 1.338 . S
C143 H147 0.931 . S
C144 N141 1.313 . S
C144 N145 1.344 . S
C144 H148 0.930 . S
N145 C142 1.377 . S
N145 C144 1.344 . S
O146 Co138 2.055 . S
O146 C150 1.253 . S
H147 C143 0.931 . S
H148 C144 0.930 . S
O149 Co138 2.039 . S
O149 C139 1.265 . S
C150 O146 1.253 . S
C150 O151 1.227 . S
O151 C150 1.227 . S
N152 Co138 2.140 . S
N152 C155 1.346 . S
N152 C156 1.345 . S
C153 C154 1.387 . S
C153 C157 1.391 . S
C154 C153 1.387 . S
C154 C155 1.369 . S
C154 H163 0.929 1_455 S
C155 N152 1.346 . S
C155 C154 1.369 . S
C155 H158 0.928 1_455 S
C156 N152 1.345 . S
C156 C157 1.371 . S
C156 H159 0.931 . S
C157 C153 1.391 . S
C157 C156 1.371 . S
C157 H164 0.930 . S
H158 C155 0.928 1_655 S
H159 C156 0.931 . S
H160 C136 0.930 . S
H161 C133 0.930 . S
H162 C142 0.930 . S
H163 C154 0.929 1_655 S
H164 C157 0.930 . S
C165 C166 1.351 . S
C165 N168 1.368 1_655 S
C165 H170 0.931 . S
C166 C165 1.351 . S
C166 N167 1.373 1_655 S
C166 H194 0.930 . S
N167 C166 1.373 1_455 S
N167 C169 1.340 . S
N168 C165 1.368 1_455 S
N168 C169 1.321 . S
N168 Co171 2.135 . S
C169 N167 1.340 . S
C169 N168 1.321 . S
C169 H193 0.930 . S
H170 C165 0.931 . S
Co171 N168 2.135 . S
Co171 N174 2.121 . S
Co171 O179 2.055 . S
Co171 O182 2.039 . S
Co171 N185 2.140 1_455 S
C172 O173 1.227 . S
C172 O182 1.265 . S
O173 C172 1.227 . S
N174 Co171 2.121 . S
N174 C176 1.375 . S
N174 C177 1.313 . S
C175 C176 1.338 . S
C175 N178 1.377 . S
C175 H195 0.930 1_565 S
C176 N174 1.375 . S
C176 C175 1.338 . S
C176 H180 0.931 . S
C177 N174 1.313 . S
C177 N178 1.344 . S
C177 H181 0.930 . S
N178 C175 1.377 . S
N178 C177 1.344 . S
O179 Co171 2.055 . S
O179 C183 1.253 . S
H180 C176 0.931 . S
H181 C177 0.930 . S
O182 Co171 2.039 . S
O182 C172 1.265 . S
C183 O179 1.253 . S
C183 O184 1.227 1_455 S
O184 C183 1.227 1_655 S
N185 Co171 2.140 1_655 S
N185 C188 1.346 . S
N185 C189 1.345 . S
C186 C187 1.387 . S
C186 C190 1.391 . S
C187 C186 1.387 . S
C187 C188 1.369 . S
C187 H196 0.929 . S
C188 N185 1.346 . S
C188 C187 1.369 . S
C188 H191 0.928 . S
C189 N185 1.345 . S
C189 C190 1.371 . S
C189 H192 0.931 . S
C190 C186 1.391 . S
C190 C189 1.371 . S
C190 H197 0.930 . S
H191 C188 0.928 . S
H192 C189 0.931 . S
H193 C169 0.930 . S
H194 C166 0.930 . S
H195 C175 0.930 1_545 S
H196 C187 0.929 . S
H197 C190 0.930 . S
C198 C199 1.351 . S
C198 N201 1.368 . S
C198 H203 0.931 . S
C199 C198 1.351 . S
C199 N200 1.373 . S
C199 H227 0.930 . S
N200 C199 1.373 . S
N200 C202 1.340 . S
N201 C198 1.368 . S
N201 C202 1.321 . S
N201 Co204 2.135 . S
C202 N200 1.340 . S
C202 N201 1.321 . S
C202 H226 0.930 . S
H203 C198 0.931 . S
Co204 N201 2.135 . S
Co204 N207 2.121 . S
Co204 O212 2.055 . S
Co204 O215 2.039 . S
Co204 N218 2.140 . S
C205 O206 1.227 . S
C205 O215 1.265 . S
O206 C205 1.227 . S
N207 Co204 2.121 . S
N207 C209 1.375 . S
N207 C210 1.313 . S
C208 C209 1.338 . S
C208 N211 1.377 . S
C208 H228 0.930 . S
C209 N207 1.375 . S
C209 C208 1.338 . S
C209 H213 0.931 . S
C210 N207 1.313 . S
C210 N211 1.344 . S
C210 H214 0.930 . S
N211 C208 1.377 . S
N211 C210 1.344 . S
O212 Co204 2.055 . S
O212 C216 1.253 . S
H213 C209 0.931 . S
H214 C210 0.930 . S
O215 Co204 2.039 . S
O215 C205 1.265 . S
C216 O212 1.253 . S
C216 O217 1.227 . S
O217 C216 1.227 . S
N218 Co204 2.140 . S
N218 C221 1.346 . S
N218 C222 1.345 . S
C219 C220 1.387 . S
C219 C223 1.391 . S
C220 C219 1.387 . S
C220 C221 1.369 . S
C220 H229 0.929 . S
C221 N218 1.346 . S
C221 C220 1.369 . S
C221 H224 0.928 . S
C222 N218 1.345 . S
C222 C223 1.371 . S
C222 H225 0.931 . S
C223 C219 1.391 . S
C223 C222 1.371 . S
C223 H230 0.930 . S
H224 C221 0.928 . S
H225 C222 0.931 . S
H226 C202 0.930 . S
H227 C199 0.930 . S
H228 C208 0.930 . S
H229 C220 0.929 . S
H230 C223 0.930 . S
C231 C232 1.351 . S
C231 N234 1.368 . S
C231 H236 0.931 . S
C232 C231 1.351 . S
C232 N233 1.373 . S
C232 H260 0.930 . S
N233 C232 1.373 . S
N233 C235 1.340 . S
N234 C231 1.368 . S
N234 C235 1.321 . S
N234 Co237 2.135 . S
C235 N233 1.340 . S
C235 N234 1.321 . S
C235 H259 0.930 . S
H236 C231 0.931 . S
Co237 N234 2.135 . S
Co237 N240 2.121 . S
Co237 O245 2.055 . S
Co237 O248 2.039 . S
Co237 N251 2.140 . S
C238 O239 1.227 . S
C238 O248 1.265 . S
O239 C238 1.227 . S
N240 Co237 2.121 . S
N240 C242 1.375 . S
N240 C243 1.313 . S
C241 C242 1.338 . S
C241 N244 1.377 . S
C241 H261 0.930 . S
C242 N240 1.375 . S
C242 C241 1.338 . S
C242 H246 0.931 . S
C243 N240 1.313 . S
C243 N244 1.344 . S
C243 H247 0.930 . S
N244 C241 1.377 . S
N244 C243 1.344 . S
O245 Co237 2.055 . S
O245 C249 1.253 . S
H246 C242 0.931 . S
H247 C243 0.930 . S
O248 Co237 2.039 . S
O248 C238 1.265 . S
C249 O245 1.253 . S
C249 O250 1.227 . S
O250 C249 1.227 . S
N251 Co237 2.140 . S
N251 C254 1.346 . S
N251 C255 1.345 . S
C252 C253 1.387 . S
C252 C256 1.391 . S
C253 C252 1.387 . S
C253 C254 1.369 . S
C253 H262 0.929 . S
C254 N251 1.346 . S
C254 C253 1.369 . S
C254 H257 0.928 . S
C255 N251 1.345 . S
C255 C256 1.371 . S
C255 H258 0.931 . S
C256 C252 1.391 . S
C256 C255 1.371 . S
C256 H263 0.930 . S
H257 C254 0.928 . S
H258 C255 0.931 . S
H259 C235 0.930 . S
H260 C232 0.930 . S
H261 C241 0.930 . S
H262 C253 0.929 . S
H263 C256 0.930 . S
H264 C276 0.930 . S
H265 C278 0.930 . S
H266 C279 0.928 1_655 S
H267 C283 0.959 . S
H268 C283 0.959 . S
H269 C283 0.961 . S
H270 C284 0.960 . S
H271 C284 0.961 . S
H272 C284 0.959 . S
H273 C287 0.929 . S
H274 C288 0.931 . S
H275 C290 0.930 . S
C276 H264 0.930 . S
C276 C277 1.399 . S
C276 C281 1.399 . S
C277 C276 1.399 . S
C277 C278 1.376 . S
C278 H265 0.930 . S
C278 C277 1.376 . S
C278 C279 1.388 . S
C279 H266 0.928 1_455 S
C279 C278 1.388 . S
C279 C280 1.390 . S
C280 C279 1.390 . S
C280 C281 1.394 . S
C280 C286 1.465 . S
C281 C276 1.399 . S
C281 C280 1.394 . S
C281 C282 1.516 . S
C282 C281 1.516 . S
C282 C283 1.502 . S
C282 C284 1.561 1_455 S
C282 C285 1.526 . S
C283 H267 0.959 . S
C283 H268 0.959 . S
C283 H269 0.961 . S
C283 C282 1.502 . S
C284 H270 0.960 . S
C284 H271 0.961 . S
C284 H272 0.959 . S
C284 C282 1.561 1_655 S
C285 C282 1.526 . S
C285 C286 1.396 . S
C285 C290 1.390 . S
C286 C280 1.465 . S
C286 C285 1.396 . S
C286 C287 1.399 1_455 S
C287 H273 0.929 . S
C287 C286 1.399 1_655 S
C287 C288 1.385 . S
C288 H274 0.931 . S
C288 C287 1.385 . S
C288 C289 1.390 . S
C289 C288 1.390 . S
C289 C290 1.386 1_655 S
C290 H275 0.930 . S
C290 C285 1.390 . S
C290 C289 1.386 1_455 S
H291 C303 0.930 . S
H292 C305 0.930 . S
H293 C306 0.930 . S
H294 C310 0.959 . S
H295 C310 0.959 . S
H296 C310 0.961 . S
H297 C311 0.960 . S
H298 C311 0.961 . S
H299 C311 0.959 . S
H300 C314 0.929 . S
H301 C315 0.931 . S
H302 C317 0.930 . S
C303 H291 0.930 . S
C303 C304 1.399 . S
C303 C308 1.399 . S
C304 C303 1.399 . S
C304 C305 1.376 . S
C305 H292 0.930 . S
C305 C304 1.376 . S
C305 C306 1.388 . S
C306 H293 0.930 . S
C306 C305 1.388 . S
C306 C307 1.390 . S
C307 C306 1.390 . S
C307 C308 1.394 . S
C307 C313 1.465 . S
C308 C303 1.399 . S
C308 C307 1.394 . S
C308 C309 1.516 . S
C309 C308 1.516 . S
C309 C310 1.502 . S
C309 C311 1.561 . S
C309 C312 1.526 . S
C310 H294 0.959 . S
C310 H295 0.959 . S
C310 H296 0.961 . S
C310 C309 1.502 . S
C311 H297 0.960 . S
C311 H298 0.961 . S
C311 H299 0.959 . S
C311 C309 1.561 . S
C312 C309 1.526 . S
C312 C313 1.396 . S
C312 C317 1.390 . S
C313 C307 1.465 . S
C313 C312 1.396 . S
C313 C314 1.399 . S
C314 H300 0.929 . S
C314 C313 1.399 . S
C314 C315 1.385 . S
C315 H301 0.931 . S
C315 C314 1.385 . S
C315 C316 1.389 . S
C316 C315 1.389 . S
C316 C317 1.387 . S
C317 H302 0.930 . S
C317 C312 1.390 . S
C317 C316 1.387 . S
H318 C330 0.930 . S
H319 C332 0.930 . S
H320 C333 0.930 . S
H321 C337 0.959 . S
H322 C337 0.959 . S
H323 C337 0.961 . S
H324 C338 0.960 . S
H325 C338 0.961 . S
H326 C338 0.959 . S
H327 C341 0.929 . S
H328 C342 0.931 . S
H329 C344 0.930 . S
C330 H318 0.930 . S
C330 C331 1.399 . S
C330 C335 1.399 . S
C331 C330 1.399 . S
C331 C332 1.376 . S
C332 H319 0.930 . S
C332 C331 1.376 . S
C332 C333 1.388 . S
C333 H320 0.930 . S
C333 C332 1.388 . S
C333 C334 1.390 . S
C334 C333 1.390 . S
C334 C335 1.394 . S
C334 C340 1.465 . S
C335 C330 1.399 . S
C335 C334 1.394 . S
C335 C336 1.516 . S
C336 C335 1.516 . S
C336 C337 1.502 . S
C336 C338 1.561 . S
C336 C339 1.526 . S
C337 H321 0.959 . S
C337 H322 0.959 . S
C337 H323 0.961 . S
C337 C336 1.502 . S
C338 H324 0.960 . S
C338 H325 0.961 . S
C338 H326 0.959 . S
C338 C336 1.561 . S
C339 C336 1.526 . S
C339 C340 1.396 . S
C339 C344 1.390 . S
C340 C334 1.465 . S
C340 C339 1.396 . S
C340 C341 1.399 . S
C341 H327 0.929 . S
C341 C340 1.399 . S
C341 C342 1.385 . S
C342 H328 0.931 . S
C342 C341 1.385 . S
C342 C343 1.389 . S
C343 C342 1.389 . S
C343 C344 1.387 . S
C344 H329 0.930 . S
C344 C339 1.390 . S
C344 C343 1.387 . S
H345 C357 0.930 . S
H346 C359 0.928 1_655 S
H347 C360 0.930 1_655 S
H348 C364 0.959 . S
H349 C364 0.959 . S
H350 C364 0.961 . S
H351 C365 0.960 . S
H352 C365 0.961 . S
H353 C365 0.959 . S
H354 C368 0.929 . S
H355 C369 0.931 . S
H356 C371 0.930 . S
C357 H345 0.930 . S
C357 C358 1.399 . S
C357 C362 1.399 . S
C358 C357 1.399 . S
C358 C359 1.376 . S
C359 H346 0.928 1_455 S
C359 C358 1.376 . S
C359 C360 1.388 . S
C360 H347 0.930 1_455 S
C360 C359 1.388 . S
C360 C361 1.390 . S
C361 C360 1.390 . S
C361 C362 1.394 . S
C361 C367 1.465 . S
C362 C357 1.399 . S
C362 C361 1.394 . S
C362 C363 1.516 . S
C363 C362 1.516 . S
C363 C364 1.502 . S
C363 C365 1.561 . S
C363 C366 1.526 . S
C364 H348 0.959 . S
C364 H349 0.959 . S
C364 H350 0.961 . S
C364 C363 1.502 . S
C365 H351 0.960 . S
C365 H352 0.961 . S
C365 H353 0.959 . S
C365 C363 1.561 . S
C366 C363 1.526 . S
C366 C367 1.396 . S
C366 C371 1.390 . S
C367 C361 1.465 . S
C367 C366 1.396 . S
C367 C368 1.399 . S
C368 H354 0.929 . S
C368 C367 1.399 . S
C368 C369 1.385 . S
C369 H355 0.931 . S
C369 C368 1.385 . S
C369 C370 1.389 . S
C370 C369 1.389 . S
C370 C371 1.387 . S
C371 H356 0.930 . S
C371 C366 1.390 . S
C371 C370 1.387 . S
H372 C384 0.930 . S
H373 C386 0.930 . S
H374 C387 0.930 . S
H375 C391 0.959 . S
H376 C391 1.005 . S
H377 C391 0.961 . S
H378 C392 0.960 . S
H379 C392 0.961 . S
H380 C392 0.959 . S
H381 C395 0.929 . S
H382 C396 0.931 . S
H383 C398 0.930 . S
C384 H372 0.930 . S
C384 C385 1.399 . S
C384 C389 1.399 . S
C385 C384 1.399 . S
C385 C386 1.376 1_455 S
C386 H373 0.930 . S
C386 C385 1.376 1_655 S
C386 C387 1.388 . S
C387 H374 0.930 . S
C387 C386 1.388 . S
C387 C388 1.390 1_655 S
C388 C387 1.390 1_455 S
C388 C389 1.394 . S
C388 C394 1.465 1_554 S
C389 C384 1.399 . S
C389 C388 1.394 . S
C389 C390 1.516 . S
C390 C389 1.516 . S
C390 C391 1.502 . S
C390 C392 1.561 . S
C390 C393 1.526 1_554 S
C391 H375 0.959 . S
C391 H376 1.005 . S
C391 H377 0.961 . S
C391 C390 1.502 . S
C392 H378 0.960 . S
C392 H379 0.961 . S
C392 H380 0.959 . S
C392 C390 1.561 . S
C393 C390 1.526 1_556 S
C393 C394 1.396 . S
C393 C398 1.390 . S
C394 C388 1.465 1_556 S
C394 C393 1.396 . S
C394 C395 1.399 1_455 S
C395 H381 0.929 . S
C395 C394 1.399 1_655 S
C395 C396 1.385 . S
C396 H382 0.931 . S
C396 C395 1.385 . S
C396 C397 1.389 1_655 S
C397 C396 1.389 1_455 S
C397 C398 1.387 . S
C398 H383 0.930 . S
C398 C393 1.390 . S
C398 C397 1.387 . S
H399 C411 0.930 . S
H400 C413 0.930 . S
H401 C414 0.930 . S
H402 C418 0.959 . S
H403 C418 0.959 . S
H404 C418 0.961 . S
H405 C419 0.960 . S
H406 C419 0.961 . S
H407 C419 0.959 . S
H408 C422 0.929 . S
H409 C423 0.931 . S
H410 C425 0.930 . S
C411 H399 0.930 . S
C411 C412 1.399 . S
C411 C416 1.399 . S
C412 C411 1.399 . S
C412 C413 1.376 . S
C413 H400 0.930 . S
C413 C412 1.376 . S
C413 C414 1.388 . S
C414 H401 0.930 . S
C414 C413 1.388 . S
C414 C415 1.390 . S
C415 C414 1.390 . S
C415 C416 1.394 . S
C415 C421 1.465 . S
C416 C411 1.399 . S
C416 C415 1.394 . S
C416 C417 1.516 . S
C417 C416 1.516 . S
C417 C418 1.502 . S
C417 C419 1.561 . S
C417 C420 1.526 . S
C418 H402 0.959 . S
C418 H403 0.959 . S
C418 H404 0.961 . S
C418 C417 1.502 . S
C419 H405 0.960 . S
C419 H406 0.961 . S
C419 H407 0.959 . S
C419 C417 1.561 . S
C420 C417 1.526 . S
C420 C421 1.396 . S
C420 C425 1.390 . S
C421 C415 1.465 . S
C421 C420 1.396 . S
C421 C422 1.399 . S
C422 H408 0.929 . S
C422 C421 1.399 . S
C422 C423 1.385 . S
C423 H409 0.931 . S
C423 C422 1.385 . S
C423 C424 1.389 . S
C424 C423 1.389 . S
C424 C425 1.387 . S
C425 H410 0.930 . S
C425 C420 1.390 . S
C425 C424 1.387 . S
H426 C438 0.930 . S
H427 C440 0.930 . S
H428 C441 0.930 . S
H429 C445 0.959 . S
H430 C445 0.959 . S
H431 C445 0.961 . S
H432 C446 0.960 . S
H433 C446 0.961 . S
H434 C446 0.959 . S
H435 C449 0.929 . S
H436 C450 0.931 . S
H437 C452 0.930 . S
C438 H426 0.930 . S
C438 C439 1.399 . S
C438 C443 1.399 . S
C439 C438 1.399 . S
C439 C440 1.376 . S
C440 H427 0.930 . S
C440 C439 1.376 . S
C440 C441 1.388 . S
C441 H428 0.930 . S
C441 C440 1.388 . S
C441 C442 1.390 . S
C442 C441 1.390 . S
C442 C443 1.394 . S
C442 C448 1.465 . S
C443 C438 1.399 . S
C443 C442 1.394 . S
C443 C444 1.516 . S
C444 C443 1.516 . S
C444 C445 1.502 . S
C444 C446 1.561 . S
C444 C447 1.526 . S
C445 H429 0.959 . S
C445 H430 0.959 . S
C445 H431 0.961 . S
C445 C444 1.502 . S
C446 H432 0.960 . S
C446 H433 0.961 . S
C446 H434 0.959 . S
C446 C444 1.561 . S
C447 C444 1.526 . S
C447 C448 1.396 . S
C447 C452 1.390 . S
C448 C442 1.465 . S
C448 C447 1.396 . S
C448 C449 1.399 . S
C449 H435 0.929 . S
C449 C448 1.399 . S
C449 C450 1.385 . S
C450 H436 0.931 . S
C450 C449 1.385 . S
C450 C451 1.389 . S
C451 C450 1.389 . S
C451 C452 1.387 . S
C452 H437 0.930 . S
C452 C447 1.390 . S
C452 C451 1.387 . S
H453 C465 0.930 . S
H454 C467 0.930 . S
H455 C468 0.930 . S
H456 C472 0.959 . S
H457 C472 0.959 . S
H458 C472 0.961 . S
H459 C473 0.960 . S
H460 C473 0.961 . S
H461 C473 0.959 . S
H462 C476 0.929 . S
H463 C477 0.931 . S
H464 C479 0.930 . S
C465 H453 0.930 . S
C465 C466 1.399 . S
C465 C470 1.399 . S
C466 C465 1.399 . S
C466 C467 1.376 . S
C467 H454 0.930 . S
C467 C466 1.376 . S
C467 C468 1.388 . S
C468 H455 0.930 . S
C468 C467 1.388 . S
C468 C469 1.390 . S
C469 C468 1.390 . S
C469 C470 1.394 . S
C469 C475 1.465 . S
C470 C465 1.399 . S
C470 C469 1.394 . S
C470 C471 1.516 . S
C471 C470 1.516 . S
C471 C472 1.502 . S
C471 C473 1.561 . S
C471 C474 1.526 . S
C472 H456 0.959 . S
C472 H457 0.959 . S
C472 H458 0.961 . S
C472 C471 1.502 . S
C473 H459 0.960 . S
C473 H460 0.961 . S
C473 H461 0.959 . S
C473 C471 1.561 . S
C474 C471 1.526 . S
C474 C475 1.396 . S
C474 C479 1.390 . S
C475 C469 1.465 . S
C475 C474 1.396 . S
C475 C476 1.399 . S
C476 H462 0.929 . S
C476 C475 1.399 . S
C476 C477 1.385 . S
C477 H463 0.931 . S
C477 C476 1.385 . S
C477 C478 1.389 . S
C478 C477 1.389 . S
C478 C479 1.387 . S
C479 H464 0.930 . S
C479 C474 1.390 . S
C479 C478 1.387 . S
H480 C492 0.930 . S
H481 C494 0.930 . S
H482 C495 0.930 . S
H483 C499 0.959 . S
H484 C499 0.959 . S
H485 C499 0.961 . S
H486 C500 0.960 . S
H487 C500 0.961 . S
H488 C500 0.959 . S
H489 C503 0.929 . S
H490 C504 0.931 . S
H491 C506 0.930 . S
C492 H480 0.930 . S
C492 C493 1.399 . S
C492 C497 1.399 . S
C493 C492 1.399 . S
C493 C494 1.376 . S
C494 H481 0.930 . S
C494 C493 1.376 . S
C494 C495 1.388 . S
C495 H482 0.930 . S
C495 C494 1.388 . S
C495 C496 1.390 . S
C496 C495 1.390 . S
C496 C497 1.394 . S
C496 C502 1.465 . S
C497 C492 1.399 . S
C497 C496 1.394 . S
C497 C498 1.516 . S
C498 C497 1.516 . S
C498 C499 1.502 . S
C498 C500 1.561 . S
C498 C501 1.526 . S
C499 H483 0.959 . S
C499 H484 0.959 . S
C499 H485 0.961 . S
C499 C498 1.502 . S
C500 H486 0.960 . S
C500 H487 0.961 . S
C500 H488 0.959 . S
C500 C498 1.561 . S
C501 C498 1.526 . S
C501 C502 1.396 . S
C501 C506 1.390 . S
C502 C496 1.465 . S
C502 C501 1.396 . S
C502 C503 1.399 . S
C503 H489 0.929 . S
C503 C502 1.399 . S
C503 C504 1.385 . S
C504 H490 0.931 . S
C504 C503 1.385 . S
C504 C505 1.389 . S
C505 C504 1.389 . S
C505 C506 1.387 . S
C506 H491 0.930 . S
C506 C501 1.390 . S
C506 C505 1.387 . S
H507 C519 0.930 . S
H508 C521 0.930 . S
H509 C522 0.930 . S
H510 C526 0.959 . S
H511 C526 0.959 . S
H512 C526 0.961 . S
H513 C527 0.960 . S
H514 C527 0.961 . S
H515 C527 0.959 . S
H516 C530 0.929 . S
H517 C531 0.931 . S
H518 C533 0.930 . S
C519 H507 0.930 . S
C519 C520 1.399 . S
C519 C524 1.399 . S
C520 C519 1.399 . S
C520 C521 1.376 . S
C521 H508 0.930 . S
C521 C520 1.376 . S
C521 C522 1.388 . S
C522 H509 0.930 . S
C522 C521 1.388 . S
C522 C523 1.390 . S
C523 C522 1.390 . S
C523 C524 1.394 . S
C523 C529 1.465 . S
C524 C519 1.399 . S
C524 C523 1.394 . S
C524 C525 1.516 . S
C525 C524 1.516 . S
C525 C526 1.502 . S
C525 C527 1.561 . S
C525 C528 1.526 . S
C526 H510 0.959 . S
C526 H511 0.959 . S
C526 H512 0.961 . S
C526 C525 1.502 . S
C527 H513 0.960 . S
C527 H514 0.961 . S
C527 H515 0.959 . S
C527 C525 1.561 . S
C528 C525 1.526 . S
C528 C529 1.396 . S
C528 C533 1.390 . S
C529 C523 1.465 . S
C529 C528 1.396 . S
C529 C530 1.399 . S
C530 H516 0.929 . S
C530 C529 1.399 . S
C530 C531 1.385 . S
C531 H517 0.931 . S
C531 C530 1.385 . S
C531 C532 1.389 . S
C532 C531 1.389 . S
C532 C533 1.387 . S
C533 H518 0.930 . S
C533 C528 1.390 . S
C533 C532 1.387 . S
H534 C546 0.930 . S
H535 C548 0.930 . S
H536 C549 0.930 . S
H537 C553 0.959 . S
H538 C553 0.959 . S
H539 C553 0.961 . S
H540 C554 0.960 . S
H541 C554 0.961 . S
H542 C554 0.959 . S
H543 C557 0.929 . S
H544 C558 0.931 . S
H545 C560 0.930 . S
C546 H534 0.930 . S
C546 C547 1.399 . S
C546 C551 1.399 . S
C547 C546 1.399 . S
C547 C548 1.376 1_565 S
C548 H535 0.930 . S
C548 C547 1.376 1_545 S
C548 C549 1.388 . S
C549 H536 0.930 . S
C549 C548 1.388 . S
C549 C550 1.390 . S
C550 C549 1.390 . S
C550 C551 1.394 1_545 S
C550 C556 1.465 . S
C551 C546 1.399 . S
C551 C550 1.394 1_565 S
C551 C552 1.516 . S
C552 C551 1.516 . S
C552 C553 1.502 . S
C552 C554 1.561 . S
C552 C555 1.526 1_565 S
C553 H537 0.959 . S
C553 H538 0.959 . S
C553 H539 0.961 . S
C553 C552 1.502 . S
C554 H540 0.960 . S
C554 H541 0.961 . S
C554 H542 0.959 . S
C554 C552 1.561 . S
C555 C552 1.526 1_545 S
C555 C556 1.396 . S
C555 C560 1.390 . S
C556 C550 1.465 . S
C556 C555 1.396 . S
C556 C557 1.399 . S
C557 H543 0.929 . S
C557 C556 1.399 . S
C557 C558 1.385 . S
C558 H544 0.931 . S
C558 C557 1.385 . S
C558 C559 1.389 . S
C559 C558 1.389 . S
C559 C560 1.387 . S
C560 H545 0.930 . S
C560 C555 1.390 . S
C560 C559 1.387 . S
H561 C573 0.930 . S
H562 C575 0.930 1_655 S
H563 C576 0.930 1_655 S
H564 C580 0.959 . S
H565 C580 0.922 1_556 S
H566 C580 0.961 . S
H567 C581 0.960 . S
H568 C581 0.961 1_556 S
H569 C581 0.972 . S
H570 C584 0.929 1_655 S
H571 C585 0.931 1_655 S
H572 C587 0.930 . S
C573 H561 0.930 . S
C573 C574 1.399 1_545 S
C573 C578 1.399 . S
C574 C573 1.399 1_565 S
C574 C575 1.376 . S
C575 H562 0.930 1_455 S
C575 C574 1.376 . S
C575 C576 1.388 . S
C576 H563 0.930 1_455 S
C576 C575 1.388 . S
C576 C577 1.390 . S
C577 C576 1.390 . S
C577 C578 1.394 1_565 S
C577 C583 1.465 1_554 S
C578 C573 1.399 . S
C578 C577 1.394 1_545 S
C578 C579 1.516 . S
C579 C578 1.516 . S
C579 C580 1.502 . S
C579 C581 1.561 . S
C579 C582 1.526 1_554 S
C580 H564 0.959 . S
C580 H565 0.922 1_554 S
C580 H566 0.961 . S
C580 C579 1.502 . S
C581 H567 0.960 . S
C581 H568 0.961 1_554 S
C581 H569 0.972 . S
C581 C579 1.561 . S
C582 C579 1.526 1_556 S
C582 C583 1.396 1_545 S
C582 C587 1.390 . S
C583 C577 1.465 1_556 S
C583 C582 1.396 1_565 S
C583 C584 1.399 . S
C584 H570 0.929 1_455 S
C584 C583 1.399 . S
C584 C585 1.385 . S
C585 H571 0.931 1_455 S
C585 C584 1.385 . S
C585 C586 1.389 1_565 S
C586 C585 1.389 1_545 S
C586 C587 1.387 . S
C587 H572 0.930 . S
C587 C582 1.390 . S
C587 C586 1.387 . S
H588 C600 0.930 . S
H589 C602 0.930 . S
H590 C603 0.930 . S
H591 C607 0.959 . S
H592 C607 0.959 . S
H593 C607 0.961 . S
H594 C608 0.960 . S
H595 C608 0.961 . S
H596 C608 0.959 . S
H597 C611 0.929 . S
H598 C612 0.931 . S
H599 C614 0.930 . S
C600 H588 0.930 . S
C600 C601 1.399 . S
C600 C605 1.399 . S
C601 C600 1.399 . S
C601 C602 1.376 . S
C602 H589 0.930 . S
C602 C601 1.376 . S
C602 C603 1.388 . S
C603 H590 0.930 . S
C603 C602 1.388 . S
C603 C604 1.390 . S
C604 C603 1.390 . S
C604 C605 1.394 . S
C604 C610 1.465 . S
C605 C600 1.399 . S
C605 C604 1.394 . S
C605 C606 1.516 . S
C606 C605 1.516 . S
C606 C607 1.502 . S
C606 C608 1.561 . S
C606 C609 1.526 . S
C607 H591 0.959 . S
C607 H592 0.959 . S
C607 H593 0.961 . S
C607 C606 1.502 . S
C608 H594 0.960 . S
C608 H595 0.961 . S
C608 H596 0.959 . S
C608 C606 1.561 . S
C609 C606 1.526 . S
C609 C610 1.396 . S
C609 C614 1.390 . S
C610 C604 1.465 . S
C610 C609 1.396 . S
C610 C611 1.399 . S
C611 H597 0.929 . S
C611 C610 1.399 . S
C611 C612 1.385 . S
C612 H598 0.931 . S
C612 C611 1.385 . S
C612 C613 1.389 . S
C613 C612 1.389 . S
C613 C614 1.387 . S
C614 H599 0.930 . S
C614 C609 1.390 . S
C614 C613 1.387 . S
H615 C627 0.930 . S
H616 C629 0.930 . S
H617 C630 0.930 . S
H618 C634 0.959 . S
H619 C634 0.959 . S
H620 C634 0.961 . S
H621 C635 0.960 . S
H622 C635 0.961 . S
H623 C635 0.959 . S
H624 C638 0.929 . S
H625 C639 0.931 . S
H626 C641 0.930 . S
C627 H615 0.930 . S
C627 C628 1.399 . S
C627 C632 1.399 . S
C628 C627 1.399 . S
C628 C629 1.376 . S
C629 H616 0.930 . S
C629 C628 1.376 . S
C629 C630 1.388 . S
C630 H617 0.930 . S
C630 C629 1.388 . S
C630 C631 1.390 . S
C631 C630 1.390 . S
C631 C632 1.394 . S
C631 C637 1.465 . S
C632 C627 1.399 . S
C632 C631 1.394 . S
C632 C633 1.516 . S
C633 C632 1.516 . S
C633 C634 1.502 . S
C633 C635 1.561 . S
C633 C636 1.526 . S
C634 H618 0.959 . S
C634 H619 0.959 . S
C634 H620 0.961 . S
C634 C633 1.502 . S
C635 H621 0.960 . S
C635 H622 0.961 . S
C635 H623 0.959 . S
C635 C633 1.561 . S
C636 C633 1.526 . S
C636 C637 1.396 . S
C636 C641 1.390 . S
C637 C631 1.465 . S
C637 C636 1.396 . S
C637 C638 1.399 . S
C638 H624 0.929 . S
C638 C637 1.399 . S
C638 C639 1.385 . S
C639 H625 0.931 . S
C639 C638 1.385 . S
C639 C640 1.389 . S
C640 C639 1.389 . S
C640 C641 1.387 . S
C641 H626 0.930 . S
C641 C636 1.390 . S
C641 C640 1.387 . S
H642 C654 0.930 . S
H643 C656 0.930 . S
H644 C657 0.930 . S
H645 C661 0.959 . S
H646 C661 0.959 . S
H647 C661 0.961 . S
H648 C662 0.960 . S
H649 C662 0.961 1_655 S
H650 C662 0.959 . S
H651 C665 0.929 . S
H652 C666 0.931 . S
H653 C668 0.930 . S
C654 H642 0.930 . S
C654 C655 1.399 . S
C654 C659 1.399 . S
C655 C654 1.399 . S
C655 C656 1.376 . S
C656 H643 0.930 . S
C656 C655 1.376 . S
C656 C657 1.388 . S
C657 H644 0.930 . S
C657 C656 1.388 . S
C657 C658 1.390 . S
C658 C657 1.390 . S
C658 C659 1.394 . S
C658 C664 1.465 1_455 S
C659 C654 1.399 . S
C659 C658 1.394 . S
C659 C660 1.516 . S
C660 C659 1.516 . S
C660 C661 1.502 . S
C660 C662 1.561 . S
C660 C663 1.526 1_455 S
C661 H645 0.959 . S
C661 H646 0.959 . S
C661 H647 0.961 . S
C661 C660 1.502 . S
C662 H648 0.960 . S
C662 H649 0.961 1_455 S
C662 H650 0.959 . S
C662 C660 1.561 . S
C663 C660 1.526 1_655 S
C663 C664 1.396 . S
C663 C668 1.390 . S
C664 C658 1.465 1_655 S
C664 C663 1.396 . S
C664 C665 1.399 . S
C665 H651 0.929 . S
C665 C664 1.399 . S
C665 C666 1.385 . S
C666 H652 0.931 . S
C666 C665 1.385 . S
C666 C667 1.389 . S
C667 C666 1.389 . S
C667 C668 1.387 . S
C668 H653 0.930 . S
C668 C663 1.390 . S
C668 C667 1.387 . S
H669 C681 0.930 . S
H670 C683 0.930 . S
H671 C684 0.930 1_655 S
H672 C688 0.959 . S
H673 C688 0.959 . S
H674 C688 0.961 . S
H675 C689 0.960 . S
H676 C689 0.961 . S
H677 C689 0.959 . S
H678 C692 0.929 1_655 S
H679 C693 0.931 . S
H680 C695 0.930 . S
C681 H669 0.930 . S
C681 C682 1.399 . S
C681 C686 1.399 . S
C682 C681 1.399 . S
C682 C683 1.376 . S
C683 H670 0.930 . S
C683 C682 1.376 . S
C683 C684 1.388 . S
C684 H671 0.930 1_455 S
C684 C683 1.388 . S
C684 C685 1.390 . S
C685 C684 1.390 . S
C685 C686 1.394 . S
C685 C691 1.465 . S
C686 C681 1.399 . S
C686 C685 1.394 . S
C686 C687 1.516 . S
C687 C686 1.516 . S
C687 C688 1.502 . S
C687 C689 1.561 . S
C687 C690 1.526 . S
C688 H672 0.959 . S
C688 H673 0.959 . S
C688 H674 0.961 . S
C688 C687 1.502 . S
C689 H675 0.960 . S
C689 H676 0.961 . S
C689 H677 0.959 . S
C689 C687 1.561 . S
C690 C687 1.526 . S
C690 C691 1.396 . S
C690 C695 1.390 . S
C691 C685 1.465 . S
C691 C690 1.396 . S
C691 C692 1.399 . S
C692 H678 0.929 1_455 S
C692 C691 1.399 . S
C692 C693 1.385 . S
C693 H679 0.931 . S
C693 C692 1.385 . S
C693 C694 1.389 . S
C694 C693 1.389 . S
C694 C695 1.387 . S
C695 H680 0.930 . S
C695 C690 1.390 . S
C695 C694 1.387 . S
H696 C708 0.930 . S
H697 C710 0.930 . S
H698 C711 0.930 . S
H699 C715 0.959 . S
H700 C715 0.959 . S
H701 C715 0.961 . S
H702 C716 0.960 . S
H703 C716 0.961 . S
H704 C716 0.959 . S
H705 C719 0.929 . S
H706 C720 0.931 . S
H707 C722 0.930 . S
C708 H696 0.930 . S
C708 C709 1.399 . S
C708 C713 1.399 . S
C709 C708 1.399 . S
C709 C710 1.376 . S
C710 H697 0.930 . S
C710 C709 1.376 . S
C710 C711 1.388 . S
C711 H698 0.930 . S
C711 C710 1.388 . S
C711 C712 1.390 . S
C712 C711 1.390 . S
C712 C713 1.394 . S
C712 C718 1.465 . S
C713 C708 1.399 . S
C713 C712 1.394 . S
C713 C714 1.516 . S
C714 C713 1.516 . S
C714 C715 1.502 . S
C714 C716 1.561 . S
C714 C717 1.526 . S
C715 H699 0.959 . S
C715 H700 0.959 . S
C715 H701 0.961 . S
C715 C714 1.502 . S
C716 H702 0.960 . S
C716 H703 0.961 . S
C716 H704 0.959 . S
C716 C714 1.561 . S
C717 C714 1.526 . S
C717 C718 1.396 . S
C717 C722 1.390 . S
C718 C712 1.465 . S
C718 C717 1.396 . S
C718 C719 1.399 . S
C719 H705 0.929 . S
C719 C718 1.399 . S
C719 C720 1.385 . S
C720 H706 0.931 . S
C720 C719 1.385 . S
C720 C721 1.389 . S
C721 C720 1.389 . S
C721 C722 1.387 . S
C722 H707 0.930 . S
C722 C717 1.390 . S
C722 C721 1.387 . S
H723 C735 0.930 . S
H724 C737 0.930 . S
H725 C738 0.930 . S
H726 C742 0.959 . S
H727 C742 0.959 . S
H728 C742 0.961 . S
H729 C743 0.960 . S
H730 C743 0.961 . S
H731 C743 0.959 . S
H732 C746 0.929 . S
H733 C747 0.931 . S
H734 C749 0.930 . S
C735 H723 0.930 . S
C735 C736 1.399 . S
C735 C740 1.399 . S
C736 C735 1.399 . S
C736 C737 1.376 . S
C737 H724 0.930 . S
C737 C736 1.376 . S
C737 C738 1.388 . S
C738 H725 0.930 . S
C738 C737 1.388 . S
C738 C739 1.390 . S
C739 C738 1.390 . S
C739 C740 1.394 . S
C739 C745 1.465 . S
C740 C735 1.399 . S
C740 C739 1.394 . S
C740 C741 1.516 . S
C741 C740 1.516 . S
C741 C742 1.502 1_455 S
C741 C743 1.561 . S
C741 C744 1.526 . S
C742 H726 0.959 . S
C742 H727 0.959 . S
C742 H728 0.961 . S
C742 C741 1.502 1_655 S
C743 H729 0.960 . S
C743 H730 0.961 . S
C743 H731 0.959 . S
C743 C741 1.561 . S
C744 C741 1.526 . S
C744 C745 1.396 . S
C744 C749 1.390 . S
C745 C739 1.465 . S
C745 C744 1.396 . S
C745 C746 1.399 . S
C746 H732 0.929 . S
C746 C745 1.399 . S
C746 C747 1.385 . S
C747 H733 0.931 . S
C747 C746 1.385 . S
C747 C748 1.389 . S
C748 C747 1.389 . S
C748 C749 1.387 . S
C749 H734 0.930 . S
C749 C744 1.390 . S
C749 C748 1.387 . S
H750 C762 0.930 . S
H751 C764 0.930 . S
H752 C765 0.930 . S
H753 C769 0.959 . S
H754 C769 0.959 . S
H755 C769 0.961 1_655 S
H756 C770 0.960 . S
H757 C770 0.961 . S
H758 C770 0.959 . S
H759 C773 0.929 . S
H760 C774 0.931 . S
H761 C776 0.930 . S
C762 H750 0.930 . S
C762 C763 1.399 . S
C762 C767 1.399 . S
C763 C762 1.399 . S
C763 C764 1.376 . S
C764 H751 0.930 . S
C764 C763 1.376 . S
C764 C765 1.388 . S
C765 H752 0.930 . S
C765 C764 1.388 . S
C765 C766 1.390 1_655 S
C766 C765 1.390 1_455 S
C766 C767 1.394 1_455 S
C766 C772 1.465 . S
C767 C762 1.399 . S
C767 C766 1.394 1_655 S
C767 C768 1.516 1_655 S
C768 C767 1.516 1_455 S
C768 C769 1.502 . S
C768 C770 1.561 . S
C768 C771 1.526 . S
C769 H753 0.959 . S
C769 H754 0.959 . S
C769 H755 0.961 1_455 S
C769 C768 1.502 . S
C770 H756 0.960 . S
C770 H757 0.961 . S
C770 H758 0.959 . S
C770 C768 1.561 . S
C771 C768 1.526 . S
C771 C772 1.396 . S
C771 C776 1.390 . S
C772 C766 1.465 . S
C772 C771 1.396 . S
C772 C773 1.399 . S
C773 H759 0.929 . S
C773 C772 1.399 . S
C773 C774 1.385 . S
C774 H760 0.931 . S
C774 C773 1.385 . S
C774 C775 1.389 . S
C775 C774 1.389 . S
C775 C776 1.387 . S
C776 H761 0.930 . S
C776 C771 1.390 . S
C776 C775 1.387 . S
H777 C789 0.930 . S
H778 C791 0.930 . S
H779 C792 0.930 . S
H780 C796 0.959 . S
H781 C796 0.959 . S
H782 C796 0.961 . S
H783 C797 0.960 . S
H784 C797 0.961 . S
H785 C797 0.959 . S
H786 C800 0.929 . S
H787 C801 0.931 . S
H788 C803 0.930 . S
C789 H777 0.930 . S
C789 C790 1.399 . S
C789 C794 1.399 . S
C790 C789 1.399 . S
C790 C791 1.376 . S
C791 H778 0.930 . S
C791 C790 1.376 . S
C791 C792 1.388 . S
C792 H779 0.930 . S
C792 C791 1.388 . S
C792 C793 1.390 . S
C793 C792 1.390 . S
C793 C794 1.394 . S
C793 C799 1.465 . S
C794 C789 1.399 . S
C794 C793 1.394 . S
C794 C795 1.516 . S
C795 C794 1.516 . S
C795 C796 1.502 . S
C795 C797 1.561 . S
C795 C798 1.526 . S
C796 H780 0.959 . S
C796 H781 0.959 . S
C796 H782 0.961 . S
C796 C795 1.502 . S
C797 H783 0.960 . S
C797 H784 0.961 . S
C797 H785 0.959 . S
C797 C795 1.561 . S
C798 C795 1.526 . S
C798 C799 1.396 . S
C798 C803 1.390 . S
C799 C793 1.465 . S
C799 C798 1.396 . S
C799 C800 1.399 . S
C800 H786 0.929 . S
C800 C799 1.399 . S
C800 C801 1.385 . S
C801 H787 0.931 . S
C801 C800 1.385 . S
C801 C802 1.389 . S
C802 C801 1.389 . S
C802 C803 1.387 . S
C803 H788 0.930 . S
C803 C798 1.390 . S
C803 C802 1.387 . S
C277 C18 1.302 . S
C289 C183 1.322 1_655 S
C304 C216 1.299 . S
C316 C51 1.322 . S
C331 C84 1.302 . S
C343 C249 1.318 . S
C358 C150 1.309 . S
C370 C117 1.309 . S
C385 C7 0.580 . S
C397 C153 0.514 . S
C412 C40 0.774 . S
C424 C186 0.600 . S
C439 C205 0.743 . S
C451 C87 0.646 . S
C466 C120 0.465 . S
C478 C238 0.527 . S
C493 C106 0.769 . S
C505 C252 0.608 . S
C520 C172 0.608 . S
C532 C54 0.480 . S
C547 C219 0.592 . S
C559 C73 0.399 . S
C574 C21 0.539 . S
C586 C139 0.777 . S
C601 N13 1.780 . S
C613 N2 1.816 . S
C628 N46 1.800 . S
C640 N35 1.782 1_545 S
C655 N79 1.769 . S
C667 N68 1.818 . S
C682 N112 1.803 1_565 S
C694 N101 1.797 . S
C709 N134 1.819 . S
C721 N145 1.778 . S
C736 N178 1.805 1_545 S
C748 N167 1.777 . S
C763 N211 1.769 . S
C775 N200 1.820 . S
C790 N233 1.767 1_565 S
C802 N244 1.823 . S
