# Generated by pormake.
# Topology wmb, (6)-cn, num edge types: 1
# Building blocks:
#     Node 0, Type 0, BuildingBlock: IZENUY_clean_sbu_0, # of connection points: 6
#     Node 1, Type 0, BuildingBlock: IZENUY_clean_sbu_0, # of connection points: 6
#     Node 2, Type 0, BuildingBlock: IZENUY_clean_sbu_0, # of connection points: 6
#     Node 3, Type 0, BuildingBlock: IZENUY_clean_sbu_0, # of connection points: 6
#     Node 4, Type 0, BuildingBlock: IZENUY_clean_sbu_0, # of connection points: 6
#     Node 5, Type 0, BuildingBlock: IZENUY_clean_sbu_0, # of connection points: 6
#     Edge 6, Type (0, 0), BuildingBlock: FUNLAD_clean_linker_1, # of connection points: 2
#     Edge 7, Type (0, 0), BuildingBlock: FUNLAD_clean_linker_1, # of connection points: 2
#     Edge 8, Type (0, 0), BuildingBlock: FUNLAD_clean_linker_1, # of connection points: 2
#     Edge 9, Type (0, 0), BuildingBlock: FUNLAD_clean_linker_1, # of connection points: 2
#     Edge 10, Type (0, 0), BuildingBlock: FUNLAD_clean_linker_1, # of connection points: 2
#     Edge 11, Type (0, 0), BuildingBlock: FUNLAD_clean_linker_1, # of connection points: 2
#     Edge 12, Type (0, 0), BuildingBlock: FUNLAD_clean_linker_1, # of connection points: 2
#     Edge 13, Type (0, 0), BuildingBlock: FUNLAD_clean_linker_1, # of connection points: 2
#     Edge 14, Type (0, 0), BuildingBlock: FUNLAD_clean_linker_1, # of connection points: 2
#     Edge 15, Type (0, 0), BuildingBlock: FUNLAD_clean_linker_1, # of connection points: 2
#     Edge 16, Type (0, 0), BuildingBlock: FUNLAD_clean_linker_1, # of connection points: 2
#     Edge 17, Type (0, 0), BuildingBlock: FUNLAD_clean_linker_1, # of connection points: 2
#     Edge 18, Type (0, 0), BuildingBlock: FUNLAD_clean_linker_1, # of connection points: 2
#     Edge 19, Type (0, 0), BuildingBlock: FUNLAD_clean_linker_1, # of connection points: 2
#     Edge 20, Type (0, 0), BuildingBlock: FUNLAD_clean_linker_1, # of connection points: 2
#     Edge 21, Type (0, 0), BuildingBlock: FUNLAD_clean_linker_1, # of connection points: 2
#     Edge 22, Type (0, 0), BuildingBlock: FUNLAD_clean_linker_1, # of connection points: 2
#     Edge 23, Type (0, 0), BuildingBlock: FUNLAD_clean_linker_1, # of connection points: 2
# Relax obj value: 0.258
# Max RMSD: 0.258
# Mean RMSD: 0.258
data_MOF--net-wmb--node1-IZENUY_clean_sbu_0--edge1-FUNLAD_clean_linker_1
_symmetry_space_group_name_H-M    P1
_symmetry_Int_Tables_number       1
_symmetry_cell_setting            triclinic
loop_
_symmetry_equiv_pos_as_xyz
'x, y, z'
_cell_length_a     27.561623
_cell_length_b     27.612107
_cell_length_c     43.764394
_cell_angle_alpha  89.97652
_cell_angle_beta   89.900794
_cell_angle_gamma 119.74458
loop_
_atom_site_label
_atom_site_type_symbol
_atom_site_fract_x
_atom_site_fract_y
_atom_site_fract_z
_atom_type_partial_charge
Fe0 Fe 0.49397 0.19834 0.04626 0.0
Fe1 Fe 0.58668 0.18513 0.01414 0.0
O2 O 0.55694 0.22685 0.02463 0.0
Fe3 Fe 0.59089 0.29814 0.01388 0.0
O4 O 0.60169 0.3193 0.05359 0.0
O5 O 0.51432 0.26333 0.06743 0.0
O6 O 0.52479 0.17948 0.07714 0.0
C7 C 0.54876 0.15093 0.07496 0.0
C8 C 0.4765 0.26571 0.00785 0.0
O9 O 0.56582 0.14333 0.04946 0.0
C10 C 0.59891 0.25012 0.96124 0.0
O11 O 0.46321 0.12747 0.02962 0.0
O12 O 0.52404 0.13568 0.99456 0.0
O13 O 0.52699 0.30242 0.01164 0.0
O14 O 0.45827 0.21624 0.01706 0.0
C15 C 0.68253 0.28178 0.02616 0.0
O16 O 0.61216 0.2197 0.97691 0.0
O17 O 0.58189 0.28009 0.97378 0.0
C18 C 0.47666 0.10839 0.00672 0.0
O19 O 0.65245 0.23106 0.03284 0.0
O20 O 0.66175 0.30838 0.0136 0.0
C21 C 0.56275 0.30368 0.07297 0.0
Fe22 Fe 0.85877 0.41325 0.67456 0.0
Fe23 Fe 0.74614 0.30609 0.68378 0.0
O24 O 0.81934 0.34469 0.68934 0.0
Fe25 Fe 0.85285 0.31449 0.71005 0.0
O26 O 0.8765 0.36873 0.73863 0.0
O27 O 0.90938 0.43942 0.70651 0.0
O28 O 0.81818 0.43755 0.69557 0.0
C29 C 0.76605 0.41648 0.69301 0.0
C30 C 0.93219 0.3768 0.66356 0.0
O31 O 0.7361 0.36712 0.6834 0.0
C32 C 0.77923 0.22386 0.67762 0.0
O33 O 0.81526 0.39866 0.6402 0.0
O34 O 0.75456 0.30853 0.64263 0.0
O35 O 0.91962 0.35169 0.68906 0.0
O36 O 0.90218 0.39455 0.65217 0.0
C37 C 0.75385 0.28149 0.74318 0.0
O38 O 0.7424 0.23757 0.68303 0.0
O39 O 0.83019 0.25755 0.68283 0.0
C40 C 0.78113 0.35299 0.62742 0.0
O41 O 0.7339 0.30202 0.72465 0.0
O42 O 0.79309 0.27288 0.73533 0.0
C43 C 0.90549 0.42023 0.7333 0.0
Fe44 Fe 0.75219 0.5605 0.37695 0.0
Fe45 Fe 0.64853 0.48289 0.33933 0.0
O46 O 0.71492 0.50014 0.35405 0.0
Fe47 Fe 0.74358 0.45653 0.34647 0.0
O48 O 0.74482 0.44277 0.38695 0.0
O49 O 0.78583 0.53083 0.40076 0.0
O50 O 0.69648 0.53355 0.40501 0.0
C51 C 0.64623 0.51886 0.39945 0.0
C52 C 0.83828 0.56619 0.34365 0.0
O53 O 0.62825 0.51096 0.37225 0.0
C54 C 0.70041 0.45747 0.29063 0.0
O55 O 0.72413 0.601 0.35754 0.0
O56 O 0.67767 0.54813 0.31868 0.0
O57 O 0.81659 0.51379 0.34673 0.0
O58 O 0.81121 0.59061 0.35059 0.0
C59 C 0.62816 0.37905 0.35506 0.0
O60 O 0.65701 0.45196 0.30392 0.0
O61 O 0.74343 0.46744 0.30562 0.0
C62 C 0.70185 0.59501 0.33144 0.0
O63 O 0.61484 0.41612 0.35886 0.0
O64 O 0.67588 0.39139 0.34464 0.0
C65 C 0.76958 0.48026 0.40677 0.0
Fe66 Fe 0.28736 0.58996 0.99137 0.0
Fe67 Fe 0.18988 0.49911 0.95456 0.0
O68 O 0.21621 0.55576 0.98035 0.0
Fe69 Fe 0.17082 0.57787 0.99544 0.0
O70 O 0.21174 0.64615 0.97857 0.0
O71 O 0.29291 0.65962 0.99528 0.0
O72 O 0.3108 0.60886 0.95238 0.0
C73 C 0.29741 0.57469 0.93069 0.0
C74 C 0.23953 0.58817 0.04597 0.0
O75 O 0.25531 0.52607 0.93258 0.0
C76 C 0.10343 0.4657 0.99857 0.0
O77 O 0.29425 0.5266 0.9892 0.0
O78 O 0.20872 0.45919 0.9797 0.0
O79 O 0.2075 0.60168 0.03229 0.0
O80 O 0.26883 0.57299 0.03118 0.0
C81 C 0.13424 0.55046 0.93385 0.0
O82 O 0.11948 0.46211 0.97191 0.0
O83 O 0.12767 0.51068 0.01329 0.0
C84 C 0.25749 0.47517 0.98904 0.0
O85 O 0.1693 0.53524 0.92769 0.0
O86 O 0.1253 0.55834 0.96134 0.0
C87 C 0.26248 0.67844 0.98463 0.0
Fe88 Fe 0.4421 0.69497 0.65585 0.0
Fe89 Fe 0.54618 0.70372 0.62425 0.0
O90 O 0.48512 0.66567 0.64695 0.0
Fe91 Fe 0.46696 0.59795 0.66037 0.0
O92 O 0.39137 0.57011 0.65922 0.0
O93 O 0.38077 0.63691 0.63872 0.0
O94 O 0.45341 0.73141 0.6193 0.0
C95 C 0.47085 0.72402 0.59398 0.0
C96 C 0.44288 0.64069 0.71088 0.0
O97 O 0.50532 0.7066 0.59261 0.0
C98 C 0.58528 0.65794 0.66599 0.0
O99 O 0.4996 0.75578 0.67382 0.0
O100 O 0.56174 0.77273 0.63786 0.0
O101 O 0.47032 0.61909 0.70008 0.0
O102 O 0.42272 0.66318 0.69379 0.0
C103 C 0.50084 0.59383 0.60196 0.0
O104 O 0.59147 0.70253 0.65426 0.0
O105 O 0.53907 0.61301 0.66408 0.0
C106 C 0.54524 0.78842 0.66083 0.0
O107 O 0.5418 0.64227 0.606 0.0
O108 O 0.46214 0.57177 0.62154 0.0
C109 C 0.36136 0.58643 0.64601 0.0
Fe110 Fe 0.34858 0.762 0.32065 0.0
Fe111 Fe 0.3585 0.86731 0.29094 0.0
O112 O 0.38972 0.83377 0.31091 0.0
Fe113 Fe 0.46157 0.87089 0.32082 0.0
O114 O 0.47628 0.82236 0.30052 0.0
O115 O 0.40625 0.74662 0.31957 0.0
O116 O 0.33626 0.74294 0.28051 0.0
C117 C 0.31503 0.76247 0.26206 0.0
C118 C 0.40768 0.80462 0.37319 0.0
O119 O 0.3112 0.80508 0.26872 0.0
C120 C 0.43344 0.95159 0.33189 0.0
O121 O 0.28215 0.76246 0.32378 0.0
O122 O 0.30666 0.85091 0.32085 0.0
O123 O 0.45094 0.834 0.3572 0.0
O124 O 0.35963 0.77779 0.36124 0.0
C125 C 0.45977 0.91056 0.26128 0.0
O126 O 0.40106 0.93573 0.30905 0.0
O127 O 0.45397 0.923 0.34193 0.0
C128 C 0.27142 0.80152 0.32811 0.0
O129 O 0.40723 0.88594 0.25947 0.0
O130 O 0.48423 0.91411 0.28626 0.0
C131 C 0.45365 0.77129 0.30687 0.0
H132 H 0.23894 0.38843 0.99538 0.0
C133 C 0.27242 0.43165 0.99556 0.0
H134 H 0.35953 0.48534 0.99977 0.0
H135 H 0.4037 0.30752 0.067 0.0
H136 H 0.41067 0.36627 0.10973 0.0
H137 H 0.38382 0.43877 0.10426 0.0
H138 H 0.3503 0.45331 0.05579 0.0
C139 C 0.32528 0.44257 0.99919 0.0
C140 C 0.33842 0.39651 0.00268 0.0
C141 C 0.35678 0.3876 0.03127 0.0
C142 C 0.37141 0.3451 0.03452 0.0
C143 C 0.39123 0.33849 0.06321 0.0
C144 C 0.39554 0.37204 0.08799 0.0
C145 C 0.38048 0.4129 0.0849 0.0
C146 C 0.36134 0.42081 0.05694 0.0
H147 H 0.45685 0.32145 0.98195 0.0
C148 C 0.43884 0.28579 0.99736 0.0
H149 H 0.37477 0.24075 0.0293 0.0
H150 H 0.30809 0.40436 0.94401 0.0
H151 H 0.29869 0.34402 0.90155 0.0
H152 H 0.31835 0.26665 0.90809 0.0
H153 H 0.34854 0.24984 0.95713 0.0
C154 C 0.39068 0.27264 0.01163 0.0
C155 C 0.36748 0.3113 0.00913 0.0
C156 C 0.3473 0.31901 0.98079 0.0
C157 C 0.3338 0.36228 0.97737 0.0
C158 C 0.31702 0.371 0.94826 0.0
C159 C 0.31174 0.33682 0.9236 0.0
C160 C 0.323 0.29338 0.92726 0.0
C161 C 0.34058 0.28438 0.95545 0.0
H162 H 0.79371 0.15343 0.6671 0.0
C163 C 0.76167 0.16494 0.67049 0.0
H164 H 0.67494 0.13605 0.67321 0.0
H165 H 0.59303 0.91013 0.60285 0.0
H166 H 0.58608 0.96606 0.56229 0.0
H167 H 0.62599 0.0676 0.56841 0.0
H168 H 0.67336 0.1139 0.61521 0.0
C169 C 0.7074 0.12501 0.67026 0.0
C170 C 0.68883 0.06475 0.66564 0.0
C171 C 0.66176 0.03828 0.63808 0.0
C172 C 0.6393 0.97976 0.63444 0.0
C173 C 0.61165 0.9545 0.60677 0.0
C174 C 0.60711 0.98609 0.5833 0.0
C175 C 0.62956 0.04325 0.58675 0.0
C176 C 0.65653 0.06926 0.61377 0.0
H177 H 0.55757 0.8618 0.68761 0.0
C178 C 0.57515 0.84816 0.66955 0.0
H179 H 0.63684 0.8732 0.63515 0.0
H180 H 0.73579 0.10153 0.72205 0.0
H181 H 0.7459 0.04628 0.76194 0.0
H182 H 0.71129 0.94581 0.7546 0.0
H183 H 0.66553 0.89977 0.70746 0.0
C184 C 0.62034 0.88632 0.654 0.0
C185 C 0.64397 0.9476 0.65838 0.0
C186 C 0.67218 0.97427 0.68571 0.0
C187 C 0.69391 0.03272 0.68952 0.0
C188 C 0.7198 0.05769 0.71756 0.0
C189 C 0.72574 0.0264 0.74072 0.0
C190 C 0.70613 0.96981 0.73662 0.0
C191 C 0.67968 0.94383 0.70949 0.0
H192 H 0.20497 0.82197 0.33917 0.0
C193 C 0.21342 0.78792 0.3355 0.0
H194 H 0.1783 0.70112 0.32912 0.0
H195 H 0.95807 0.6847 0.39684 0.0
H196 H 1.01539 0.71699 0.44236 0.0
H197 H 0.11673 0.75138 0.43977 0.0
H198 H 0.16145 0.75375 0.39158 0.0
C199 C 0.17049 0.73507 0.33452 0.0
C200 C 0.11074 0.72106 0.33587 0.0
C201 C 0.08533 0.72093 0.36409 0.0
C202 C 1.02668 0.70088 0.36556 0.0
C203 C 1.00233 0.6998 0.39427 0.0
C204 C 0.03475 0.71812 0.42063 0.0
C205 C 0.09182 0.7375 0.41917 0.0
C206 C 0.117 0.73879 0.39133 0.0
H207 H 0.91849 0.57465 0.32894 0.0
C208 C 0.89867 0.59832 0.3363 0.0
H209 H 0.91268 0.67736 0.35034 0.0
H210 H 0.14658 0.71871 0.27784 0.0
H211 H 0.08977 0.68839 0.23203 0.0
H212 H 0.98887 0.65647 0.23432 0.0
H213 H 0.944 0.65393 0.28253 0.0
C214 C 0.93101 0.65343 0.34126 0.0
C215 C 0.99336 0.68068 0.33883 0.0
C216 C 1.01938 0.68352 0.31034 0.0
C217 C 0.07787 0.70303 0.30894 0.0
C218 C 0.10237 0.70421 0.28026 0.0
C219 C 0.0703 0.68715 0.25375 0.0
C220 C 1.01347 0.6691 0.25505 0.0
C221 C 0.98815 0.66743 0.28291 0.0
H222 H 0.5387 0.95447 0.23519 0.0
C223 C 0.49407 0.9396 0.23433 0.0
H224 H 0.4275 0.93548 0.20864 0.0
H225 H 0.64371 0.14966 0.14192 0.0
H226 H 0.67327 0.19195 0.19224 0.0
H227 H 0.62222 0.14108 0.23855 0.0
H228 H 0.54442 0.04695 0.23523 0.0
C229 C 0.47223 0.95106 0.20984 0.0
C230 C 0.50643 0.98261 0.18293 0.0
C231 C 0.5493 0.03924 0.18557 0.0
C232 C 0.57581 0.07036 0.15879 0.0
C233 C 0.62105 0.12536 0.16171 0.0
C234 C 0.63848 0.14984 0.19035 0.0
C235 C 0.60987 0.12111 0.21644 0.0
C236 C 0.56544 0.06667 0.2142 0.0
H237 H 0.53027 0.1256 0.12294 0.0
C238 C 0.54943 0.12038 0.10236 0.0
H239 H 0.58548 0.07628 0.08195 0.0
H240 H 0.43475 0.87247 0.17027 0.0
H241 H 0.4107 0.83015 0.11999 0.0
H242 H 0.4532 0.8861 0.07358 0.0
H243 H 0.51926 0.98516 0.07708 0.0
C244 C 0.56794 0.08358 0.10251 0.0
C245 C 0.55617 0.04668 0.12961 0.0
C246 C 0.51768 0.98895 0.12704 0.0
C247 C 0.49295 0.95676 0.15379 0.0
C248 C 0.45433 0.89909 0.15067 0.0
C249 C 0.44053 0.87413 0.12198 0.0
C250 C 0.46434 0.90571 0.09583 0.0
C251 C 0.50205 0.9626 0.09816 0.0
H252 H 0.98569 0.48683 0.75149 0.0
C253 C 0.94308 0.45612 0.7576 0.0
H254 H 0.88363 0.41692 0.79228 0.0
H255 H 0.04025 0.42837 0.89823 0.0
H256 H 0.973 0.32978 0.89461 0.0
H257 H 0.90327 0.29374 0.85323 0.0
H258 H 0.90025 0.35571 0.81536 0.0
C259 C 0.92681 0.44725 0.78706 0.0
C260 C 0.96729 0.47021 0.81297 0.0
C261 C 0.96903 0.43267 0.83464 0.0
C262 C 1.00996 0.45313 0.85816 0.0
C263 C 1.01046 0.41498 0.87968 0.0
C264 C 0.97201 0.35824 0.87794 0.0
C265 C 0.93277 0.33798 0.85465 0.0
C266 C 0.9314 0.37436 0.83307 0.0
H267 H 0.0602 0.55292 0.91622 0.0
C268 C 0.09501 0.54701 0.90977 0.0
H269 H 0.13093 0.52193 0.87487 0.0
H270 H 0.96735 0.55516 0.78038 0.0
H271 H 0.03457 0.65385 0.78462 0.0
H272 H 0.11014 0.68798 0.82282 0.0
H273 H 0.11816 0.62354 0.85751 0.0
C274 C 0.09741 0.52986 0.88131 0.0
C275 C 0.04991 0.5107 0.85963 0.0
C276 C 0.04672 0.54849 0.83901 0.0
C277 C 1.00452 0.52845 0.81609 0.0
C278 C 1.00031 0.56765 0.79706 0.0
C279 C 0.03826 0.62452 0.7995 0.0
C280 C 0.08072 0.64376 0.82107 0.0
C281 C 0.08496 0.60639 0.84077 0.0
H282 H 0.58449 0.53794 0.42012 0.0
C283 C 0.61129 0.52025 0.42457 0.0
H284 H 0.64152 0.48509 0.45658 0.0
H285 H 0.63572 0.62046 0.57023 0.0
H286 H 0.73243 0.64294 0.56798 0.0
H287 H 0.76658 0.60876 0.52568 0.0
H288 H 0.7046 0.5525 0.48539 0.0
C289 C 0.6153 0.5037 0.45293 0.0
C290 C 0.5924 0.51803 0.48026 0.0
C291 C 0.62962 0.55097 0.50378 0.0
C292 C 0.61012 0.57115 0.52804 0.0
C293 C 0.64837 0.60468 0.55098 0.0
C294 C 0.70404 0.61775 0.55008 0.0
C295 C 0.7232 0.59837 0.52633 0.0
C296 C 0.68683 0.56574 0.50333 0.0
H297 H 0.48095 0.51552 0.5775 0.0
C298 C 0.50346 0.56077 0.57609 0.0
H299 H 0.55907 0.63221 0.55099 0.0
H300 H 0.50738 0.44452 0.44352 0.0
H301 H 0.41013 0.42115 0.44618 0.0
H302 H 0.37782 0.46167 0.48611 0.0
H303 H 0.44225 0.525 0.52398 0.0
C304 C 0.53671 0.58687 0.55195 0.0
C305 C 0.55348 0.55822 0.52895 0.0
C306 C 0.51556 0.52274 0.50647 0.0
C307 C 0.53481 0.50155 0.48249 0.0
C308 C 0.49555 0.46394 0.46126 0.0
C309 C 0.43953 0.44979 0.46271 0.0
C310 C 0.4213 0.47247 0.48526 0.0
C311 C 0.45869 0.50861 0.50693 0.0
H312 H 0.46436 0.03331 0.98312 0.0
C313 C 0.44366 0.04891 0.99809 0.0
H314 H 0.37358 0.0275 0.0258 0.0
H315 H 0.35045 0.80987 0.94051 0.0
H316 H 0.36432 0.86727 0.89583 0.0
H317 H 0.37603 0.96147 0.90096 0.0
H318 H 0.37608 0.99953 0.95095 0.0
C319 C 0.39387 1.01237 0.01031 0.0
C320 C 0.3703 0.95058 0.00634 0.0
C321 C 0.36563 0.9271 0.97681 0.0
C322 C 0.35443 0.87111 0.9737 0.0
C323 C 0.35575 0.85094 0.94413 0.0
C324 C 0.36397 0.88358 0.91827 0.0
C325 C 0.37086 0.93672 0.92117 0.0
C326 C 0.37152 0.95833 0.95001 0.0
H327 H 0.25502 0.7521 0.97313 0.0
C328 C 0.28244 0.73898 0.98354 0.0
H329 H 0.35575 0.76481 0.00935 0.0
H330 H 0.36958 0.97915 0.06658 0.0
H331 H 0.34049 0.9171 0.11009 0.0
H332 H 0.31061 0.81742 0.10387 0.0
H333 H 0.31195 0.77975 0.05411 0.0
C334 C 0.32963 0.77751 0.99709 0.0
C335 C 0.34249 0.83672 0.99991 0.0
C336 C 0.34122 0.85831 0.02913 0.0
C337 C 0.35616 0.91543 0.03248 0.0
C338 C 0.35687 0.93597 0.06226 0.0
C339 C 0.34025 0.90072 0.08759 0.0
C340 C 0.32358 0.84464 0.0841 0.0
C341 C 0.32472 0.82362 0.05538 0.0
H342 H 0.28703 0.50315 0.64952 0.0
C343 C 0.301 0.54644 0.64374 0.0
H344 H 0.27552 0.60564 0.63492 0.0
H345 H 0.04512 0.35485 0.61875 0.0
H346 H 0.08973 0.34532 0.57304 0.0
H347 H 0.18572 0.41722 0.55921 0.0
H348 H 0.23795 0.4988 0.59119 0.0
C349 C 0.26263 0.56204 0.63885 0.0
C350 C 0.2024 0.52202 0.64474 0.0
C351 C 0.17189 0.47541 0.62535 0.0
C352 C 0.11588 0.43481 0.63281 0.0
C353 C 0.08717 0.38765 0.61369 0.0
C354 C 0.11239 0.38155 0.58747 0.0
C355 C 0.1665 0.42196 0.57973 0.0
C356 C 0.19611 0.46843 0.59836 0.0
H357 H 0.99824 0.42217 0.62938 0.0
C358 C 0.98881 0.39886 0.65068 0.0
H359 H 1.02259 0.38059 0.68925 0.0
H360 H 0.24874 0.60681 0.68664 0.0
H361 H 0.203 0.61815 0.73119 0.0
H362 H 0.10481 0.5497 0.74309 0.0
H363 H 0.05204 0.46927 0.71072 0.0
C364 C 0.03092 0.40075 0.66701 0.0
C365 C 0.09002 0.44172 0.6592 0.0
C366 C 0.12011 0.48907 0.6782 0.0
C367 C 0.17636 0.52913 0.67101 0.0
C368 C 0.20568 0.57541 0.69074 0.0
C369 C 0.17995 0.58245 0.71644 0.0
C370 C 0.12472 0.54389 0.72317 0.0
C371 C 0.09495 0.49774 0.70438 0.0
H372 H 0.46751 0.70056 0.31526 0.0
C373 C 0.48676 0.74255 0.30588 0.0
H374 H 0.5611 0.81069 0.28906 0.0
H375 H 0.72201 0.75152 0.36201 0.0
H376 H 0.74751 0.8436 0.38102 0.0
H377 H 0.69457 0.88998 0.3656 0.0
H378 H 0.6164 0.84507 0.33086 0.0
C379 C 0.54091 0.76805 0.29747 0.0
C380 C 0.57624 0.74216 0.30422 0.0
C381 C 0.62191 0.7691 0.32471 0.0
C382 C 0.6517 0.74183 0.33422 0.0
C383 C 0.69737 0.76991 0.35447 0.0
C384 C 0.71256 0.82284 0.36551 0.0
C385 C 0.68281 0.84898 0.35678 0.0
C386 C 0.63798 0.82265 0.33671 0.0
H387 H 0.69214 0.6443 0.29476 0.0
C388 C 0.68972 0.6376 0.31932 0.0
H389 H 0.65828 0.64826 0.36115 0.0
H390 H 0.49971 0.68432 0.25965 0.0
H391 H 0.47057 0.59019 0.24262 0.0
H392 H 0.51349 0.53776 0.26416 0.0
H393 H 0.58675 0.57955 0.30188 0.0
C394 C 0.66279 0.65688 0.33675 0.0
C395 C 0.63525 0.68723 0.32379 0.0
C396 C 0.58988 0.6605 0.30298 0.0
C397 C 0.56208 0.68903 0.29225 0.0
C398 C 0.51997 0.66323 0.26978 0.0
C399 C 0.50315 0.60942 0.25963 0.0
C400 C 0.52752 0.58004 0.27163 0.0
C401 C 0.57018 0.60493 0.29311 0.0
H402 H 0.04468 0.41005 0.03361 0.0
C403 C 0.04866 0.42256 0.00978 0.0
H404 H 1.00711 0.42143 0.96926 0.0
H405 H 0.77053 0.21684 0.98871 0.0
H406 H 0.80386 0.1881 0.94491 0.0
H407 H 0.90252 0.24174 0.9288 0.0
H408 H 0.96828 0.32497 0.95613 0.0
C409 C 1.00278 0.40722 0.99282 0.0
C410 C 0.94513 0.37204 0.00511 0.0
C411 C 0.90775 0.32204 0.98971 0.0
C412 C 0.85115 0.29034 0.99946 0.0
C413 C 0.81416 0.24212 0.98266 0.0
C414 C 0.83273 0.2251 0.95743 0.0
C415 C 0.88825 0.25534 0.94833 0.0
C416 C 0.92552 0.30317 0.9642 0.0
H417 H 0.76738 0.3526 0.02119 0.0
C418 C 0.74383 0.30868 0.0274 0.0
H419 H 0.74842 0.23588 0.03635 0.0
H420 H 1.00174 0.47091 0.03719 0.0
H421 H 0.96965 0.49617 0.08264 0.0
H422 H 0.87555 0.43398 0.10359 0.0
H423 H 0.81242 0.3468 0.0783 0.0
C424 C 0.7713 0.28044 0.0318 0.0
C425 C 0.83228 0.30804 0.02502 0.0
C426 C 0.87038 0.35616 0.04152 0.0
C427 C 0.92609 0.38969 0.03078 0.0
C428 C 0.96062 0.44132 0.04554 0.0
C429 C 0.94238 0.45686 0.07151 0.0
C430 C 0.88933 0.42204 0.0832 0.0
C431 C 0.85347 0.37234 0.06839 0.0
H432 H 0.67613 0.68693 0.6689 0.0
C433 C 0.63476 0.65419 0.67566 0.0
H434 H 0.58667 0.57409 0.6952 0.0
H435 H 0.74679 0.49445 0.63887 0.0
H436 H 0.69213 0.48294 0.59335 0.0
H437 H 0.62507 0.51728 0.59157 0.0
H438 H 0.6166 0.56894 0.63408 0.0
C439 C 0.6281 0.60693 0.68858 0.0
C440 C 0.67262 0.59149 0.68866 0.0
C441 C 0.67688 0.56142 0.66351 0.0
C442 C 0.7124 0.53786 0.66533 0.0
C443 C 0.7182 0.51063 0.6393 0.0
C444 C 0.68729 0.50395 0.61295 0.0
C445 C 0.65005 0.52397 0.61182 0.0
C446 C 0.64528 0.55312 0.63654 0.0
H447 H 0.69476 0.43135 0.69376 0.0
C448 C 0.74 0.45183 0.69583 0.0
H449 H 0.81478 0.52969 0.69877 0.0
H450 H 0.67773 0.65084 0.7395 0.0
H451 H 0.73171 0.66143 0.78547 0.0
H452 H 0.7905 0.61738 0.78941 0.0
H453 H 0.79589 0.56252 0.74746 0.0
C454 C 0.76955 0.50793 0.69673 0.0
C455 C 0.74088 0.54136 0.69295 0.0
C456 C 0.73908 0.57405 0.71741 0.0
C457 C 0.70495 0.59927 0.71521 0.0
C458 C 0.70287 0.6307 0.74017 0.0
C459 C 0.73365 0.63714 0.76659 0.0
C460 C 0.7668 0.61234 0.7688 0.0
C461 C 0.76953 0.58098 0.74459 0.0
H462 H 0.54397 0.31064 0.36763 0.0
C463 C 0.58432 0.31998 0.35836 0.0
H464 H 0.63074 0.287 0.33737 0.0
H465 H 0.44472 0.04973 0.39675 0.0
H466 H 0.49074 0.08922 0.44502 0.0
H467 H 0.56303 0.18849 0.4487 0.0
H468 H 0.58875 0.24917 0.40429 0.0
C469 C 0.59153 0.27819 0.34799 0.0
C470 C 0.54476 0.21958 0.34694 0.0
C471 C 0.53156 0.18444 0.37281 0.0
C472 C 0.49174 0.12663 0.37033 0.0
C473 C 0.47682 0.09321 0.397 0.0
C474 C 0.50248 0.11551 0.4249 0.0
C475 C 0.54307 0.17144 0.427 0.0
C476 C 0.55752 0.20577 0.40134 0.0
H477 H 0.49715 0.02708 0.35494 0.0
C478 C 0.45722 1.00927 0.3432 0.0
H479 H 0.39499 0.02377 0.32513 0.0
H480 H 0.55185 0.27796 0.29511 0.0
H481 H 0.5023 0.23971 0.24757 0.0
H482 H 0.44016 0.13844 0.24152 0.0
H483 H 0.42415 0.07515 0.28339 0.0
C484 C 0.43482 0.04171 0.33692 0.0
C485 C 0.4676 0.10353 0.34152 0.0
C486 C 0.47785 0.13966 0.31621 0.0
C487 C 0.51579 0.19786 0.31915 0.0
C488 C 0.52423 0.2333 0.29389 0.0
C489 C 0.49622 0.21192 0.26645 0.0
C490 C 0.46095 0.15493 0.26311 0.0
C491 C 0.45199 0.119 0.2875 0.0
H492 H 0.53769 0.31811 0.11834 0.0
C493 C 0.57308 0.33113 0.10297 0.0
H494 H 0.66102 0.3792 0.09844 0.0
H495 H 0.68576 0.52777 0.21518 0.0
H496 H 0.70419 0.59498 0.17467 0.0
H497 H 0.69134 0.56617 0.12057 0.0
H498 H 0.6598 0.46993 0.1066 0.0
C499 C 0.62491 0.36564 0.11329 0.0
C500 C 0.63465 0.38346 0.14582 0.0
C501 C 0.65379 0.43991 0.15351 0.0
C502 C 0.6611 0.45649 0.1847 0.0
C503 C 0.67939 0.51297 0.19183 0.0
C504 C 0.69017 0.55194 0.16882 0.0
C505 C 0.68297 0.53572 0.13835 0.0
C506 C 0.66492 0.4804 0.13064 0.0
H507 H 0.73407 0.44449 0.24738 0.0
C508 C 0.69851 0.44518 0.25771 0.0
H509 H 0.61781 0.43429 0.25036 0.0
H510 H 0.60208 0.27247 0.13891 0.0
H511 H 0.58148 0.20552 0.17925 0.0
H512 H 0.59702 0.23471 0.23326 0.0
H513 H 0.62731 0.3306 0.24727 0.0
C514 C 0.65349 0.43312 0.2406 0.0
C515 C 0.65004 0.41674 0.20804 0.0
C516 C 0.63258 0.36061 0.20034 0.0
C517 C 0.62489 0.34392 0.16918 0.0
C518 C 0.60747 0.28754 0.16215 0.0
C519 C 0.59649 0.24864 0.18514 0.0
C520 C 0.60465 0.26504 0.21553 0.0
C521 C 0.6222 0.32025 0.22322 0.0
H522 H 0.60092 0.28498 0.91563 0.0
C523 C 0.61004 0.25644 0.92819 0.0
H524 H 0.64343 0.20201 0.92554 0.0
H525 H 0.59319 0.19968 0.77988 0.0
H526 H 0.50162 0.12417 0.79456 0.0
H527 H 0.47633 0.1019 0.84892 0.0
H528 H 0.54254 0.15492 0.88895 0.0
C529 C 0.63305 0.23011 0.91354 0.0
C530 C 0.64866 0.24203 0.8809 0.0
C531 C 0.60938 0.21091 0.85791 0.0
C532 C 0.62393 0.22379 0.82663 0.0
C533 C 0.58418 0.19172 0.80402 0.0
C534 C 0.53151 0.14829 0.81214 0.0
C535 C 0.51726 0.13576 0.84275 0.0
C536 C 0.55558 0.16655 0.86548 0.0
H537 H 0.74917 0.2471 0.78907 0.0
C538 C 0.73159 0.26625 0.77437 0.0
H539 H 0.67529 0.29736 0.77171 0.0
H540 H 0.73431 0.30772 0.91963 0.0
H541 H 0.8252 0.3845 0.90513 0.0
H542 H 0.84868 0.41043 0.85098 0.0
H543 H 0.78226 0.35861 0.81092 0.0
C544 C 0.69408 0.2788 0.78589 0.0
C545 C 0.67774 0.26762 0.81855 0.0
C546 C 0.71676 0.29938 0.84164 0.0
C547 C 0.70251 0.28582 0.87287 0.0
C548 C 0.74271 0.31693 0.89552 0.0
C549 C 0.79503 0.36106 0.88753 0.0
C550 C 0.80836 0.37548 0.85703 0.0
C551 C 0.7699 0.34518 0.83425 0.0
H552 H 0.80951 0.50077 0.45196 0.0
C553 C 0.78148 0.46646 0.43728 0.0
H554 H 0.72455 0.37974 0.43501 0.0
H555 H 0.87892 0.39755 0.55524 0.0
H556 H 0.94564 0.40282 0.51721 0.0
H557 H 0.92887 0.40822 0.46226 0.0
H558 H 0.84526 0.40849 0.44501 0.0
C559 C 0.7553 0.4144 0.44852 0.0
C560 C 0.76251 0.40483 0.48115 0.0
C561 C 0.81105 0.40388 0.49077 0.0
C562 C 0.82056 0.40055 0.52241 0.0
C563 C 0.86972 0.40025 0.53147 0.0
C564 C 0.90829 0.40312 0.50988 0.0
C565 C 0.89886 0.40618 0.47895 0.0
C566 C 0.85084 0.40649 0.46936 0.0
H567 H 0.73664 0.31342 0.58457 0.0
C568 C 0.76807 0.35241 0.5947 0.0
H569 H 0.82634 0.43749 0.58683 0.0
H570 H 0.66467 0.4045 0.47002 0.0
H571 H 0.59854 0.40076 0.50794 0.0
H572 H 0.6146 0.39441 0.56288 0.0
H573 H 0.69732 0.39272 0.58026 0.0
C574 C 0.79367 0.39855 0.57734 0.0
C575 C 0.78118 0.3976 0.54428 0.0
C576 C 0.73189 0.3972 0.53458 0.0
C577 C 0.72254 0.40075 0.50293 0.0
C578 C 0.67376 0.40179 0.4938 0.0
C579 C 0.63542 0.39957 0.51532 0.0
C580 C 0.64448 0.396 0.54624 0.0
C581 C 0.69209 0.3949 0.5559 0.0
H582 H 0.37705 0.62583 0.90642 0.0
C583 C 0.33512 0.59037 0.90412 0.0
H584 H 0.27693 0.52797 0.87496 0.0
H585 H 0.47885 0.71738 0.78397 0.0
H586 H 0.46135 0.78723 0.80717 0.0
H587 H 0.39167 0.76148 0.84845 0.0
H588 H 0.3413 0.66693 0.86764 0.0
C589 C 0.31866 0.56377 0.87722 0.0
C590 C 0.35705 0.57953 0.85038 0.0
C591 C 0.38251 0.63426 0.83788 0.0
C592 C 0.41864 0.64799 0.81219 0.0
C593 C 0.44815 0.70413 0.80212 0.0
C594 C 0.43884 0.74463 0.81538 0.0
C595 C 0.3999 0.73022 0.83873 0.0
C596 C 0.37176 0.67574 0.84984 0.0
H597 H 0.39274 0.64202 0.74921 0.0
C598 C 0.42598 0.6333 0.74321 0.0
H599 H 0.48049 0.60615 0.75955 0.0
H600 H 0.32089 0.47296 0.87057 0.0
H601 H 0.33598 0.40303 0.84583 0.0
H602 H 0.39031 0.42441 0.79799 0.0
H603 H 0.43086 0.51616 0.77497 0.0
C604 C 0.44792 0.61596 0.76513 0.0
C605 C 0.42394 0.60568 0.7967 0.0
C606 C 0.40001 0.55155 0.80965 0.0
C607 C 0.36727 0.53874 0.83678 0.0
C608 C 0.34493 0.48467 0.84961 0.0
C609 C 0.35343 0.44412 0.8357 0.0
C610 C 0.38409 0.45619 0.8088 0.0
C611 C 0.40712 0.50912 0.7958 0.0
H612 H 0.41734 0.7476 0.56806 0.0
C613 C 0.44999 0.73658 0.56586 0.0
H614 H 0.49953 0.72029 0.53539 0.0
H615 H 0.34437 0.65676 0.42089 0.0
H616 H 0.33974 0.56894 0.43317 0.0
H617 H 0.38033 0.55772 0.48101 0.0
H618 H 0.4265 0.63434 0.51663 0.0
C619 C 0.46824 0.73304 0.53796 0.0
C620 C 0.44176 0.73984 0.5099 0.0
C621 C 0.41375 0.69407 0.48965 0.0
C622 C 0.38936 0.70019 0.46235 0.0
C623 C 0.36315 0.65432 0.44209 0.0
C624 C 0.36015 0.60361 0.44886 0.0
C625 C 0.38306 0.5973 0.47577 0.0
C626 C 0.40957 0.64178 0.49601 0.0
H627 H 0.45935 0.82088 0.41392 0.0
C628 C 0.41662 0.79735 0.40558 0.0
H629 H 0.33402 0.73545 0.4165 0.0
H630 H 0.49655 0.83804 0.54217 0.0
H631 H 0.49521 0.92347 0.53153 0.0
H632 H 0.44459 0.93058 0.48689 0.0
H633 H 0.39591 0.85235 0.45223 0.0
C634 C 0.3766 0.76139 0.42451 0.0
C635 C 0.39258 0.75188 0.45551 0.0
C636 C 0.41761 0.79655 0.47665 0.0
C637 C 0.44396 0.79127 0.50334 0.0
C638 C 0.47311 0.83845 0.52249 0.0
C639 C 0.47322 0.88806 0.51648 0.0
C640 C 0.44491 0.89214 0.49128 0.0
C641 C 0.41747 0.84711 0.47148 0.0
H642 H 0.2739 0.58187 0.09029 0.0
C643 C 0.25009 0.59841 0.07898 0.0
H644 H 0.21245 0.6486 0.08366 0.0
H645 H 0.19267 0.63534 0.22742 0.0
H646 H 0.09513 0.58398 0.21256 0.0
H647 H 0.06857 0.55988 0.15855 0.0
H648 H 0.13934 0.58725 0.11908 0.0
C649 C 0.23628 0.63173 0.09459 0.0
C650 C 0.25277 0.64654 0.12713 0.0
C651 C 0.21084 0.63023 0.14991 0.0
C652 C 0.22612 0.64431 0.18103 0.0
C653 C 0.18339 0.62672 0.20337 0.0
C654 C 0.12722 0.59687 0.19518 0.0
C655 C 0.11228 0.5833 0.16478 0.0
C656 C 0.15337 0.59942 0.14233 0.0
H657 H 0.27122 0.75182 0.21853 0.0
C658 C 0.29223 0.73523 0.23251 0.0
H659 H 0.32316 0.67892 0.23414 0.0
H660 H 0.34421 0.69151 0.08889 0.0
H661 H 0.44133 0.74189 0.10396 0.0
H662 H 0.46762 0.76251 0.1582 0.0
H663 H 0.39669 0.73273 0.19766 0.0
C664 C 0.29976 0.69422 0.22131 0.0
C665 C 0.28332 0.67498 0.1893 0.0
C666 C 0.3253 0.69092 0.16661 0.0
C667 C 0.3101 0.67772 0.13541 0.0
C668 C 0.35305 0.69766 0.11306 0.0
C669 C 0.40916 0.72726 0.12137 0.0
C670 C 0.42396 0.73902 0.15189 0.0
C671 C 0.38274 0.7216 0.17431 0.0
loop_
_geom_bond_atom_site_label_1
_geom_bond_atom_site_label_2
_geom_bond_distance
_geom_bond_site_symmetry_2
_ccdc_geom_bond_type
Fe0 O2 1.918 . S
Fe0 O5 1.997 . S
Fe0 O6 2.002 . S
Fe0 O11 1.976 . S
Fe0 O14 1.996 . S
Fe1 O2 1.918 . S
Fe1 O9 1.997 . S
Fe1 O12 1.996 . S
Fe1 O16 1.976 1_554 S
Fe1 O19 2.002 . S
O2 Fe0 1.918 . S
O2 Fe1 1.918 . S
O2 Fe3 1.918 . S
Fe3 O2 1.918 . S
Fe3 O4 2.002 . S
Fe3 O13 1.976 . S
Fe3 O17 1.996 1_554 S
Fe3 O20 1.997 . S
O4 Fe3 2.002 . S
O4 C21 1.295 . S
O5 Fe0 1.997 . S
O5 C21 1.235 . S
O6 Fe0 2.002 . S
O6 C7 1.295 . S
C7 O6 1.295 . S
C7 O9 1.235 . S
C8 O13 1.287 . S
C8 O14 1.255 . S
O9 Fe1 1.997 . S
O9 C7 1.235 . S
C10 O16 1.287 . S
C10 O17 1.255 . S
O11 Fe0 1.976 . S
O11 C18 1.287 . S
O12 Fe1 1.996 . S
O12 C18 1.255 . S
O13 Fe3 1.976 . S
O13 C8 1.287 . S
O14 Fe0 1.996 . S
O14 C8 1.255 . S
C15 O19 1.295 . S
C15 O20 1.235 . S
O16 Fe1 1.976 1_556 S
O16 C10 1.287 . S
O17 Fe3 1.996 1_556 S
O17 C10 1.255 . S
C18 O11 1.287 . S
C18 O12 1.255 . S
O19 Fe1 2.002 . S
O19 C15 1.295 . S
O20 Fe3 1.997 . S
O20 C15 1.235 . S
C21 O4 1.295 . S
C21 O5 1.235 . S
Fe22 O24 1.918 . S
Fe22 O27 1.997 . S
Fe22 O28 2.002 . S
Fe22 O33 1.976 . S
Fe22 O36 1.996 . S
Fe23 O24 1.918 . S
Fe23 O31 1.997 . S
Fe23 O34 1.996 . S
Fe23 O38 1.976 . S
Fe23 O41 2.002 . S
O24 Fe22 1.918 . S
O24 Fe23 1.918 . S
O24 Fe25 1.918 . S
Fe25 O24 1.918 . S
Fe25 O26 2.002 . S
Fe25 O35 1.976 . S
Fe25 O39 1.996 . S
Fe25 O42 1.997 . S
O26 Fe25 2.002 . S
O26 C43 1.295 . S
O27 Fe22 1.997 . S
O27 C43 1.235 . S
O28 Fe22 2.002 . S
O28 C29 1.295 . S
C29 O28 1.295 . S
C29 O31 1.235 . S
C30 O35 1.287 . S
C30 O36 1.255 . S
O31 Fe23 1.997 . S
O31 C29 1.235 . S
C32 O38 1.287 . S
C32 O39 1.255 . S
O33 Fe22 1.976 . S
O33 C40 1.287 . S
O34 Fe23 1.996 . S
O34 C40 1.255 . S
O35 Fe25 1.976 . S
O35 C30 1.287 . S
O36 Fe22 1.996 . S
O36 C30 1.255 . S
C37 O41 1.295 . S
C37 O42 1.235 . S
O38 Fe23 1.976 . S
O38 C32 1.287 . S
O39 Fe25 1.996 . S
O39 C32 1.255 . S
C40 O33 1.287 . S
C40 O34 1.255 . S
O41 Fe23 2.002 . S
O41 C37 1.295 . S
O42 Fe25 1.997 . S
O42 C37 1.235 . S
C43 O26 1.295 . S
C43 O27 1.235 . S
Fe44 O46 1.918 . S
Fe44 O49 1.997 . S
Fe44 O50 2.002 . S
Fe44 O55 1.976 . S
Fe44 O58 1.996 . S
Fe45 O46 1.918 . S
Fe45 O53 1.997 . S
Fe45 O56 1.996 . S
Fe45 O60 1.976 . S
Fe45 O63 2.002 . S
O46 Fe44 1.918 . S
O46 Fe45 1.918 . S
O46 Fe47 1.918 . S
Fe47 O46 1.918 . S
Fe47 O48 2.002 . S
Fe47 O57 1.976 . S
Fe47 O61 1.996 . S
Fe47 O64 1.997 . S
O48 Fe47 2.002 . S
O48 C65 1.295 . S
O49 Fe44 1.997 . S
O49 C65 1.235 . S
O50 Fe44 2.002 . S
O50 C51 1.295 . S
C51 O50 1.295 . S
C51 O53 1.235 . S
C52 O57 1.287 . S
C52 O58 1.255 . S
O53 Fe45 1.997 . S
O53 C51 1.235 . S
C54 O60 1.287 . S
C54 O61 1.255 . S
O55 Fe44 1.976 . S
O55 C62 1.287 . S
O56 Fe45 1.996 . S
O56 C62 1.255 . S
O57 Fe47 1.976 . S
O57 C52 1.287 . S
O58 Fe44 1.996 . S
O58 C52 1.255 . S
C59 O63 1.295 . S
C59 O64 1.235 . S
O60 Fe45 1.976 . S
O60 C54 1.287 . S
O61 Fe47 1.996 . S
O61 C54 1.255 . S
C62 O55 1.287 . S
C62 O56 1.255 . S
O63 Fe45 2.002 . S
O63 C59 1.295 . S
O64 Fe47 1.997 . S
O64 C59 1.235 . S
C65 O48 1.295 . S
C65 O49 1.235 . S
Fe66 O68 1.918 . S
Fe66 O71 1.997 . S
Fe66 O72 2.002 . S
Fe66 O77 1.976 . S
Fe66 O80 1.996 1_556 S
Fe67 O68 1.918 . S
Fe67 O75 1.997 . S
Fe67 O78 1.996 . S
Fe67 O82 1.976 . S
Fe67 O85 2.002 . S
O68 Fe66 1.918 . S
O68 Fe67 1.918 . S
O68 Fe69 1.918 . S
Fe69 O68 1.918 . S
Fe69 O70 2.002 . S
Fe69 O79 1.976 1_556 S
Fe69 O83 1.996 . S
Fe69 O86 1.997 . S
O70 Fe69 2.002 . S
O70 C87 1.295 . S
O71 Fe66 1.997 . S
O71 C87 1.235 . S
O72 Fe66 2.002 . S
O72 C73 1.295 . S
C73 O72 1.295 . S
C73 O75 1.235 . S
C74 O79 1.287 . S
C74 O80 1.255 . S
O75 Fe67 1.997 . S
O75 C73 1.235 . S
C76 O82 1.287 . S
C76 O83 1.255 . S
O77 Fe66 1.976 . S
O77 C84 1.287 . S
O78 Fe67 1.996 . S
O78 C84 1.255 . S
O79 Fe69 1.976 1_554 S
O79 C74 1.287 . S
O80 Fe66 1.996 1_554 S
O80 C74 1.255 . S
C81 O85 1.295 . S
C81 O86 1.235 . S
O82 Fe67 1.976 . S
O82 C76 1.287 . S
O83 Fe69 1.996 . S
O83 C76 1.255 . S
C84 O77 1.287 . S
C84 O78 1.255 . S
O85 Fe67 2.002 . S
O85 C81 1.295 . S
O86 Fe69 1.997 . S
O86 C81 1.235 . S
C87 O70 1.295 . S
C87 O71 1.235 . S
Fe88 O90 1.918 . S
Fe88 O93 1.997 . S
Fe88 O94 2.002 . S
Fe88 O99 1.976 . S
Fe88 O102 1.996 . S
Fe89 O90 1.918 . S
Fe89 O97 1.997 . S
Fe89 O100 1.996 . S
Fe89 O104 1.976 . S
Fe89 O107 2.002 . S
O90 Fe88 1.918 . S
O90 Fe89 1.918 . S
O90 Fe91 1.918 . S
Fe91 O90 1.918 . S
Fe91 O92 2.002 . S
Fe91 O101 1.976 . S
Fe91 O105 1.996 . S
Fe91 O108 1.997 . S
O92 Fe91 2.002 . S
O92 C109 1.295 . S
O93 Fe88 1.997 . S
O93 C109 1.235 . S
O94 Fe88 2.002 . S
O94 C95 1.295 . S
C95 O94 1.295 . S
C95 O97 1.235 . S
C96 O101 1.287 . S
C96 O102 1.255 . S
O97 Fe89 1.997 . S
O97 C95 1.235 . S
C98 O104 1.287 . S
C98 O105 1.255 . S
O99 Fe88 1.976 . S
O99 C106 1.287 . S
O100 Fe89 1.996 . S
O100 C106 1.255 . S
O101 Fe91 1.976 . S
O101 C96 1.287 . S
O102 Fe88 1.996 . S
O102 C96 1.255 . S
C103 O107 1.295 . S
C103 O108 1.235 . S
O104 Fe89 1.976 . S
O104 C98 1.287 . S
O105 Fe91 1.996 . S
O105 C98 1.255 . S
C106 O99 1.287 . S
C106 O100 1.255 . S
O107 Fe89 2.002 . S
O107 C103 1.295 . S
O108 Fe91 1.997 . S
O108 C103 1.235 . S
C109 O92 1.295 . S
C109 O93 1.235 . S
Fe110 O112 1.918 . S
Fe110 O115 1.997 . S
Fe110 O116 2.002 . S
Fe110 O121 1.976 . S
Fe110 O124 1.996 . S
Fe111 O112 1.918 . S
Fe111 O119 1.997 . S
Fe111 O122 1.996 . S
Fe111 O126 1.976 . S
Fe111 O129 2.002 . S
O112 Fe110 1.918 . S
O112 Fe111 1.918 . S
O112 Fe113 1.918 . S
Fe113 O112 1.918 . S
Fe113 O114 2.002 . S
Fe113 O123 1.976 . S
Fe113 O127 1.996 . S
Fe113 O130 1.997 . S
O114 Fe113 2.002 . S
O114 C131 1.295 . S
O115 Fe110 1.997 . S
O115 C131 1.235 . S
O116 Fe110 2.002 . S
O116 C117 1.295 . S
C117 O116 1.295 . S
C117 O119 1.235 . S
C118 O123 1.287 . S
C118 O124 1.255 . S
O119 Fe111 1.997 . S
O119 C117 1.235 . S
C120 O126 1.287 . S
C120 O127 1.255 . S
O121 Fe110 1.976 . S
O121 C128 1.287 . S
O122 Fe111 1.996 . S
O122 C128 1.255 . S
O123 Fe113 1.976 . S
O123 C118 1.287 . S
O124 Fe110 1.996 . S
O124 C118 1.255 . S
C125 O129 1.295 . S
C125 O130 1.235 . S
O126 Fe111 1.976 . S
O126 C120 1.287 . S
O127 Fe113 1.996 . S
O127 C120 1.255 . S
C128 O121 1.287 . S
C128 O122 1.255 . S
O129 Fe111 2.002 . S
O129 C125 1.295 . S
O130 Fe113 1.997 . S
O130 C125 1.235 . S
C131 O114 1.295 . S
C131 O115 1.235 . S
H132 C133 0.951 . S
C133 H132 0.951 . S
C133 C139 1.265 . S
H134 C139 0.950 . S
H135 C143 0.949 . S
H136 C144 0.950 . S
H137 C145 0.951 . S
H138 C146 0.951 . S
C139 C133 1.265 . S
C139 H134 0.950 . S
C139 C140 1.478 . S
C140 C139 1.478 . S
C140 C141 1.397 1_556 S
C140 C157 1.394 . S
C141 C140 1.397 1_554 S
C141 C142 1.438 . S
C141 C146 1.429 . S
C142 C141 1.438 . S
C142 C143 1.428 . S
C142 C155 1.394 . S
C143 H135 0.949 . S
C143 C142 1.428 . S
C143 C144 1.345 . S
C144 H136 0.950 . S
C144 C143 1.345 . S
C144 C145 1.424 . S
C145 H137 0.951 . S
C145 C144 1.424 . S
C145 C146 1.347 . S
C146 H138 0.951 . S
C146 C141 1.429 . S
C146 C145 1.347 . S
H147 C148 0.951 . S
C148 H147 0.951 . S
C148 C154 1.265 . S
H149 C154 0.950 . S
H150 C158 0.949 . S
H151 C159 0.950 . S
H152 C160 0.951 . S
H153 C161 0.951 . S
C154 C148 1.265 . S
C154 H149 0.950 . S
C154 C155 1.478 . S
C155 C142 1.394 . S
C155 C154 1.478 . S
C155 C156 1.397 1_554 S
C156 C155 1.397 1_556 S
C156 C157 1.438 . S
C156 C161 1.429 . S
C157 C140 1.394 . S
C157 C156 1.438 . S
C157 C158 1.428 . S
C158 H150 0.949 . S
C158 C157 1.428 . S
C158 C159 1.345 . S
C159 H151 0.950 . S
C159 C158 1.345 . S
C159 C160 1.424 . S
C160 H152 0.951 . S
C160 C159 1.424 . S
C160 C161 1.347 . S
C161 H153 0.951 . S
C161 C156 1.429 . S
C161 C160 1.347 . S
H162 C163 0.951 . S
C163 H162 0.951 . S
C163 C169 1.265 . S
H164 C169 0.950 . S
H165 C173 0.949 . S
H166 C174 0.950 . S
H167 C175 0.951 . S
H168 C176 0.951 . S
C169 C163 1.265 . S
C169 H164 0.950 . S
C169 C170 1.478 . S
C170 C169 1.478 . S
C170 C171 1.397 . S
C170 C187 1.394 . S
C171 C170 1.397 . S
C171 C172 1.438 1_545 S
C171 C176 1.429 . S
C172 C171 1.438 1_565 S
C172 C173 1.428 . S
C172 C185 1.394 . S
C173 H165 0.949 . S
C173 C172 1.428 . S
C173 C174 1.345 . S
C174 H166 0.950 . S
C174 C173 1.345 . S
C174 C175 1.424 1_565 S
C175 H167 0.951 . S
C175 C174 1.424 1_545 S
C175 C176 1.347 . S
C176 H168 0.951 . S
C176 C171 1.429 . S
C176 C175 1.347 . S
H177 C178 0.951 . S
C178 H177 0.951 . S
C178 C184 1.265 . S
H179 C184 0.950 . S
H180 C188 0.949 . S
H181 C189 0.950 . S
H182 C190 0.951 . S
H183 C191 0.951 . S
C184 C178 1.265 . S
C184 H179 0.950 . S
C184 C185 1.478 . S
C185 C172 1.394 . S
C185 C184 1.478 . S
C185 C186 1.397 . S
C186 C185 1.397 . S
C186 C187 1.438 1_565 S
C186 C191 1.429 . S
C187 C170 1.394 . S
C187 C186 1.438 1_545 S
C187 C188 1.428 . S
C188 H180 0.949 . S
C188 C187 1.428 . S
C188 C189 1.345 . S
C189 H181 0.950 . S
C189 C188 1.345 . S
C189 C190 1.424 1_545 S
C190 H182 0.951 . S
C190 C189 1.424 1_565 S
C190 C191 1.347 . S
C191 H183 0.951 . S
C191 C186 1.429 . S
C191 C190 1.347 . S
H192 C193 0.951 . S
C193 H192 0.951 . S
C193 C199 1.265 . S
H194 C199 0.950 . S
H195 C203 0.949 . S
H196 C204 0.950 . S
H197 C205 0.951 . S
H198 C206 0.951 . S
C199 C193 1.265 . S
C199 H194 0.950 . S
C199 C200 1.478 . S
C200 C199 1.478 . S
C200 C201 1.397 . S
C200 C217 1.394 . S
C201 C200 1.397 . S
C201 C202 1.438 1_455 S
C201 C206 1.429 . S
C202 C201 1.438 1_655 S
C202 C203 1.428 . S
C202 C215 1.394 . S
C203 H195 0.949 . S
C203 C202 1.428 . S
C203 C204 1.345 . S
C204 H196 0.950 . S
C204 C203 1.345 . S
C204 C205 1.424 1_655 S
C205 H197 0.951 . S
C205 C204 1.424 1_455 S
C205 C206 1.347 . S
C206 H198 0.951 . S
C206 C201 1.429 . S
C206 C205 1.347 . S
H207 C208 0.951 . S
C208 H207 0.951 . S
C208 C214 1.265 . S
H209 C214 0.950 . S
H210 C218 0.949 . S
H211 C219 0.950 . S
H212 C220 0.951 . S
H213 C221 0.951 . S
C214 C208 1.265 . S
C214 H209 0.950 . S
C214 C215 1.478 . S
C215 C202 1.394 . S
C215 C214 1.478 . S
C215 C216 1.397 . S
C216 C215 1.397 . S
C216 C217 1.438 1_655 S
C216 C221 1.429 . S
C217 C200 1.394 . S
C217 C216 1.438 1_455 S
C217 C218 1.428 . S
C218 H210 0.949 . S
C218 C217 1.428 . S
C218 C219 1.345 . S
C219 H211 0.950 . S
C219 C218 1.345 . S
C219 C220 1.424 1_455 S
C220 H212 0.951 . S
C220 C219 1.424 1_655 S
C220 C221 1.347 . S
C221 H213 0.951 . S
C221 C216 1.429 . S
C221 C220 1.347 . S
H222 C223 0.951 . S
C223 H222 0.951 . S
C223 C229 1.265 . S
H224 C229 0.950 . S
H225 C233 0.949 . S
H226 C234 0.950 . S
H227 C235 0.951 . S
H228 C236 0.951 . S
C229 C223 1.265 . S
C229 H224 0.950 . S
C229 C230 1.478 . S
C230 C229 1.478 . S
C230 C231 1.397 1_565 S
C230 C247 1.394 . S
C231 C230 1.397 1_545 S
C231 C232 1.438 . S
C231 C236 1.429 . S
C232 C231 1.438 . S
C232 C233 1.428 . S
C232 C245 1.394 . S
C233 H225 0.949 . S
C233 C232 1.428 . S
C233 C234 1.345 . S
C234 H226 0.950 . S
C234 C233 1.345 . S
C234 C235 1.424 . S
C235 H227 0.951 . S
C235 C234 1.424 . S
C235 C236 1.347 . S
C236 H228 0.951 . S
C236 C231 1.429 . S
C236 C235 1.347 . S
H237 C238 0.951 . S
C238 H237 0.951 . S
C238 C244 1.265 . S
H239 C244 0.950 . S
H240 C248 0.949 . S
H241 C249 0.950 . S
H242 C250 0.951 . S
H243 C251 0.951 . S
C244 C238 1.265 . S
C244 H239 0.950 . S
C244 C245 1.478 . S
C245 C232 1.394 . S
C245 C244 1.478 . S
C245 C246 1.397 1_545 S
C246 C245 1.397 1_565 S
C246 C247 1.438 . S
C246 C251 1.429 . S
C247 C230 1.394 . S
C247 C246 1.438 . S
C247 C248 1.428 . S
C248 H240 0.949 . S
C248 C247 1.428 . S
C248 C249 1.345 . S
C249 H241 0.950 . S
C249 C248 1.345 . S
C249 C250 1.424 . S
C250 H242 0.951 . S
C250 C249 1.424 . S
C250 C251 1.347 . S
C251 H243 0.951 . S
C251 C246 1.429 . S
C251 C250 1.347 . S
H252 C253 0.951 . S
C253 H252 0.951 . S
C253 C259 1.265 . S
H254 C259 0.950 . S
H255 C263 0.949 1_455 S
H256 C264 0.950 . S
H257 C265 0.951 . S
H258 C266 0.951 . S
C259 C253 1.265 . S
C259 H254 0.950 . S
C259 C260 1.478 . S
C260 C259 1.478 . S
C260 C261 1.397 . S
C260 C277 1.394 1_655 S
C261 C260 1.397 . S
C261 C262 1.438 . S
C261 C266 1.429 . S
C262 C261 1.438 . S
C262 C263 1.428 . S
C262 C275 1.394 1_655 S
C263 H255 0.949 1_655 S
C263 C262 1.428 . S
C263 C264 1.345 . S
C264 H256 0.950 . S
C264 C263 1.345 . S
C264 C265 1.424 . S
C265 H257 0.951 . S
C265 C264 1.424 . S
C265 C266 1.347 . S
C266 H258 0.951 . S
C266 C261 1.429 . S
C266 C265 1.347 . S
H267 C268 0.951 . S
C268 H267 0.951 . S
C268 C274 1.265 . S
H269 C274 0.950 . S
H270 C278 0.949 1_655 S
H271 C279 0.950 . S
H272 C280 0.951 . S
H273 C281 0.951 . S
C274 C268 1.265 . S
C274 H269 0.950 . S
C274 C275 1.478 . S
C275 C262 1.394 1_455 S
C275 C274 1.478 . S
C275 C276 1.397 . S
C276 C275 1.397 . S
C276 C277 1.438 . S
C276 C281 1.429 . S
C277 C260 1.394 1_455 S
C277 C276 1.438 . S
C277 C278 1.428 . S
C278 H270 0.949 1_455 S
C278 C277 1.428 . S
C278 C279 1.345 . S
C279 H271 0.950 . S
C279 C278 1.345 . S
C279 C280 1.424 . S
C280 H272 0.951 . S
C280 C279 1.424 . S
C280 C281 1.347 . S
C281 H273 0.951 . S
C281 C276 1.429 . S
C281 C280 1.347 . S
H282 C283 0.951 . S
C283 H282 0.951 . S
C283 C289 1.265 . S
H284 C289 0.950 . S
H285 C293 0.949 . S
H286 C294 0.950 . S
H287 C295 0.951 . S
H288 C296 0.951 . S
C289 C283 1.265 . S
C289 H284 0.950 . S
C289 C290 1.478 . S
C290 C289 1.478 . S
C290 C291 1.397 . S
C290 C307 1.394 . S
C291 C290 1.397 . S
C291 C292 1.438 . S
C291 C296 1.429 . S
C292 C291 1.438 . S
C292 C293 1.428 . S
C292 C305 1.394 . S
C293 H285 0.949 . S
C293 C292 1.428 . S
C293 C294 1.345 . S
C294 H286 0.950 . S
C294 C293 1.345 . S
C294 C295 1.424 . S
C295 H287 0.951 . S
C295 C294 1.424 . S
C295 C296 1.347 . S
C296 H288 0.951 . S
C296 C291 1.429 . S
C296 C295 1.347 . S
H297 C298 0.951 . S
C298 H297 0.951 . S
C298 C304 1.265 . S
H299 C304 0.950 . S
H300 C308 0.949 . S
H301 C309 0.950 . S
H302 C310 0.951 . S
H303 C311 0.951 . S
C304 C298 1.265 . S
C304 H299 0.950 . S
C304 C305 1.478 . S
C305 C292 1.394 . S
C305 C304 1.478 . S
C305 C306 1.397 . S
C306 C305 1.397 . S
C306 C307 1.438 . S
C306 C311 1.429 . S
C307 C290 1.394 . S
C307 C306 1.438 . S
C307 C308 1.428 . S
C308 H300 0.949 . S
C308 C307 1.428 . S
C308 C309 1.345 . S
C309 H301 0.950 . S
C309 C308 1.345 . S
C309 C310 1.424 . S
C310 H302 0.951 . S
C310 C309 1.424 . S
C310 C311 1.347 . S
C311 H303 0.951 . S
C311 C306 1.429 . S
C311 C310 1.347 . S
H312 C313 0.951 1_554 S
C313 H312 0.951 1_556 S
C313 C319 1.266 1_545 S
H314 C319 0.950 . S
H315 C323 0.949 . S
H316 C324 0.950 . S
H317 C325 0.951 . S
H318 C326 0.951 . S
C319 C313 1.266 1_565 S
C319 H314 0.950 . S
C319 C320 1.478 . S
C320 C319 1.478 . S
C320 C321 1.397 . S
C320 C337 1.394 1_556 S
C321 C320 1.397 . S
C321 C322 1.438 . S
C321 C326 1.429 . S
C322 C321 1.438 . S
C322 C323 1.428 . S
C322 C335 1.394 . S
C323 H315 0.949 . S
C323 C322 1.428 . S
C323 C324 1.345 . S
C324 H316 0.950 . S
C324 C323 1.345 . S
C324 C325 1.424 . S
C325 H317 0.951 . S
C325 C324 1.424 . S
C325 C326 1.347 . S
C326 H318 0.951 . S
C326 C321 1.429 . S
C326 C325 1.347 . S
H327 C328 0.951 . S
C328 H327 0.951 . S
C328 C334 1.265 . S
H329 C334 0.950 . S
H330 C338 0.949 . S
H331 C339 0.950 . S
H332 C340 0.951 . S
H333 C341 0.951 . S
C334 C328 1.265 . S
C334 H329 0.950 . S
C334 C335 1.478 . S
C335 C322 1.394 . S
C335 C334 1.478 . S
C335 C336 1.397 1_556 S
C336 C335 1.397 1_554 S
C336 C337 1.438 . S
C336 C341 1.429 . S
C337 C320 1.394 1_554 S
C337 C336 1.438 . S
C337 C338 1.428 . S
C338 H330 0.949 . S
C338 C337 1.428 . S
C338 C339 1.345 . S
C339 H331 0.950 . S
C339 C338 1.345 . S
C339 C340 1.424 . S
C340 H332 0.951 . S
C340 C339 1.424 . S
C340 C341 1.347 . S
C341 H333 0.951 . S
C341 C336 1.429 . S
C341 C340 1.347 . S
H342 C343 0.951 . S
C343 H342 0.951 . S
C343 C349 1.265 . S
H344 C349 0.950 . S
H345 C353 0.949 . S
H346 C354 0.950 . S
H347 C355 0.951 . S
H348 C356 0.951 . S
C349 C343 1.265 . S
C349 H344 0.950 . S
C349 C350 1.478 . S
C350 C349 1.478 . S
C350 C351 1.397 . S
C350 C367 1.394 . S
C351 C350 1.397 . S
C351 C352 1.438 . S
C351 C356 1.429 . S
C352 C351 1.438 . S
C352 C353 1.428 . S
C352 C365 1.394 . S
C353 H345 0.949 . S
C353 C352 1.428 . S
C353 C354 1.345 . S
C354 H346 0.950 . S
C354 C353 1.345 . S
C354 C355 1.424 . S
C355 H347 0.951 . S
C355 C354 1.424 . S
C355 C356 1.347 . S
C356 H348 0.951 . S
C356 C351 1.429 . S
C356 C355 1.347 . S
H357 C358 0.951 . S
C358 H357 0.951 . S
C358 C364 1.265 1_655 S
H359 C364 0.950 . S
H360 C368 0.949 . S
H361 C369 0.950 . S
H362 C370 0.951 . S
H363 C371 0.951 . S
C364 C358 1.265 1_455 S
C364 H359 0.950 . S
C364 C365 1.478 . S
C365 C352 1.394 . S
C365 C364 1.478 . S
C365 C366 1.397 . S
C366 C365 1.397 . S
C366 C367 1.438 . S
C366 C371 1.429 . S
C367 C350 1.394 . S
C367 C366 1.438 . S
C367 C368 1.428 . S
C368 H360 0.949 . S
C368 C367 1.428 . S
C368 C369 1.345 . S
C369 H361 0.950 . S
C369 C368 1.345 . S
C369 C370 1.424 . S
C370 H362 0.951 . S
C370 C369 1.424 . S
C370 C371 1.347 . S
C371 H363 0.951 . S
C371 C366 1.429 . S
C371 C370 1.347 . S
H372 C373 0.951 . S
C373 H372 0.951 . S
C373 C379 1.265 . S
H374 C379 0.950 . S
H375 C383 0.949 . S
H376 C384 0.950 . S
H377 C385 0.951 . S
H378 C386 0.951 . S
C379 C373 1.265 . S
C379 H374 0.950 . S
C379 C380 1.478 . S
C380 C379 1.478 . S
C380 C381 1.397 . S
C380 C397 1.394 . S
C381 C380 1.397 . S
C381 C382 1.438 . S
C381 C386 1.429 . S
C382 C381 1.438 . S
C382 C383 1.428 . S
C382 C395 1.394 . S
C383 H375 0.949 . S
C383 C382 1.428 . S
C383 C384 1.345 . S
C384 H376 0.950 . S
C384 C383 1.345 . S
C384 C385 1.424 . S
C385 H377 0.951 . S
C385 C384 1.424 . S
C385 C386 1.347 . S
C386 H378 0.951 . S
C386 C381 1.429 . S
C386 C385 1.347 . S
H387 C388 0.951 . S
C388 H387 0.951 . S
C388 C394 1.265 . S
H389 C394 0.950 . S
H390 C398 0.949 . S
H391 C399 0.950 . S
H392 C400 0.951 . S
H393 C401 0.951 . S
C394 C388 1.265 . S
C394 H389 0.950 . S
C394 C395 1.478 . S
C395 C382 1.394 . S
C395 C394 1.478 . S
C395 C396 1.397 . S
C396 C395 1.397 . S
C396 C397 1.438 . S
C396 C401 1.429 . S
C397 C380 1.394 . S
C397 C396 1.438 . S
C397 C398 1.428 . S
C398 H390 0.949 . S
C398 C397 1.428 . S
C398 C399 1.345 . S
C399 H391 0.950 . S
C399 C398 1.345 . S
C399 C400 1.424 . S
C400 H392 0.951 . S
C400 C399 1.424 . S
C400 C401 1.347 . S
C401 H393 0.951 . S
C401 C396 1.429 . S
C401 C400 1.347 . S
H402 C403 0.951 . S
C403 H402 0.951 . S
C403 C409 1.265 1_454 S
H404 C409 0.950 . S
H405 C413 0.949 . S
H406 C414 0.950 . S
H407 C415 0.951 . S
H408 C416 0.951 . S
C409 C403 1.265 1_656 S
C409 H404 0.950 . S
C409 C410 1.478 1_556 S
C410 C409 1.478 1_554 S
C410 C411 1.397 1_554 S
C410 C427 1.394 . S
C411 C410 1.397 1_556 S
C411 C412 1.438 1_556 S
C411 C416 1.429 . S
C412 C411 1.438 1_554 S
C412 C413 1.428 1_554 S
C412 C425 1.394 . S
C413 H405 0.949 . S
C413 C412 1.428 1_556 S
C413 C414 1.345 . S
C414 H406 0.950 . S
C414 C413 1.345 . S
C414 C415 1.424 . S
C415 H407 0.951 . S
C415 C414 1.424 . S
C415 C416 1.347 . S
C416 H408 0.951 . S
C416 C411 1.429 . S
C416 C415 1.347 . S
H417 C418 0.951 . S
C418 H417 0.951 . S
C418 C424 1.265 . S
H419 C424 0.950 . S
H420 C428 0.949 . S
H421 C429 0.950 . S
H422 C430 0.951 . S
H423 C431 0.951 . S
C424 C418 1.265 . S
C424 H419 0.950 . S
C424 C425 1.478 . S
C425 C412 1.394 . S
C425 C424 1.478 . S
C425 C426 1.397 . S
C426 C425 1.397 . S
C426 C427 1.438 . S
C426 C431 1.429 . S
C427 C410 1.394 . S
C427 C426 1.438 . S
C427 C428 1.428 . S
C428 H420 0.949 . S
C428 C427 1.428 . S
C428 C429 1.345 . S
C429 H421 0.950 . S
C429 C428 1.345 . S
C429 C430 1.424 . S
C430 H422 0.951 . S
C430 C429 1.424 . S
C430 C431 1.347 . S
C431 H423 0.951 . S
C431 C426 1.429 . S
C431 C430 1.347 . S
H432 C433 0.951 . S
C433 H432 0.951 . S
C433 C439 1.265 . S
H434 C439 0.950 . S
H435 C443 0.949 . S
H436 C444 0.950 . S
H437 C445 0.951 . S
H438 C446 0.951 . S
C439 C433 1.265 . S
C439 H434 0.950 . S
C439 C440 1.478 . S
C440 C439 1.478 . S
C440 C441 1.397 . S
C440 C457 1.394 . S
C441 C440 1.397 . S
C441 C442 1.438 . S
C441 C446 1.429 . S
C442 C441 1.438 . S
C442 C443 1.428 . S
C442 C455 1.394 . S
C443 H435 0.949 . S
C443 C442 1.428 . S
C443 C444 1.345 . S
C444 H436 0.950 . S
C444 C443 1.345 . S
C444 C445 1.424 . S
C445 H437 0.951 . S
C445 C444 1.424 . S
C445 C446 1.347 . S
C446 H438 0.951 . S
C446 C441 1.429 . S
C446 C445 1.347 . S
H447 C448 0.951 . S
C448 H447 0.951 . S
C448 C454 1.265 . S
H449 C454 0.950 . S
H450 C458 0.949 . S
H451 C459 0.950 . S
H452 C460 0.951 . S
H453 C461 0.951 . S
C454 C448 1.265 . S
C454 H449 0.950 . S
C454 C455 1.478 . S
C455 C442 1.394 . S
C455 C454 1.478 . S
C455 C456 1.397 . S
C456 C455 1.397 . S
C456 C457 1.438 . S
C456 C461 1.429 . S
C457 C440 1.394 . S
C457 C456 1.438 . S
C457 C458 1.428 . S
C458 H450 0.949 . S
C458 C457 1.428 . S
C458 C459 1.345 . S
C459 H451 0.950 . S
C459 C458 1.345 . S
C459 C460 1.424 . S
C460 H452 0.951 . S
C460 C459 1.424 . S
C460 C461 1.347 . S
C461 H453 0.951 . S
C461 C456 1.429 . S
C461 C460 1.347 . S
H462 C463 0.951 . S
C463 H462 0.951 . S
C463 C469 1.265 . S
H464 C469 0.950 . S
H465 C473 0.949 . S
H466 C474 0.950 . S
H467 C475 0.951 . S
H468 C476 0.951 . S
C469 C463 1.265 . S
C469 H464 0.950 . S
C469 C470 1.478 . S
C470 C469 1.478 . S
C470 C471 1.397 . S
C470 C487 1.394 . S
C471 C470 1.397 . S
C471 C472 1.438 . S
C471 C476 1.429 . S
C472 C471 1.438 . S
C472 C473 1.428 . S
C472 C485 1.394 . S
C473 H465 0.949 . S
C473 C472 1.428 . S
C473 C474 1.345 . S
C474 H466 0.950 . S
C474 C473 1.345 . S
C474 C475 1.424 . S
C475 H467 0.951 . S
C475 C474 1.424 . S
C475 C476 1.347 . S
C476 H468 0.951 . S
C476 C471 1.429 . S
C476 C475 1.347 . S
H477 C478 0.951 . S
C478 H477 0.951 . S
C478 C484 1.265 1_565 S
H479 C484 0.950 . S
H480 C488 0.949 . S
H481 C489 0.950 . S
H482 C490 0.951 . S
H483 C491 0.951 . S
C484 C478 1.265 1_545 S
C484 H479 0.950 . S
C484 C485 1.478 . S
C485 C472 1.394 . S
C485 C484 1.478 . S
C485 C486 1.397 . S
C486 C485 1.397 . S
C486 C487 1.438 . S
C486 C491 1.429 . S
C487 C470 1.394 . S
C487 C486 1.438 . S
C487 C488 1.428 . S
C488 H480 0.949 . S
C488 C487 1.428 . S
C488 C489 1.345 . S
C489 H481 0.950 . S
C489 C488 1.345 . S
C489 C490 1.424 . S
C490 H482 0.951 . S
C490 C489 1.424 . S
C490 C491 1.347 . S
C491 H483 0.951 . S
C491 C486 1.429 . S
C491 C490 1.347 . S
H492 C493 0.951 . S
C493 H492 0.951 . S
C493 C499 1.265 . S
H494 C499 0.950 . S
H495 C503 0.949 . S
H496 C504 0.950 . S
H497 C505 0.951 . S
H498 C506 0.951 . S
C499 C493 1.265 . S
C499 H494 0.950 . S
C499 C500 1.478 . S
C500 C499 1.478 . S
C500 C501 1.397 . S
C500 C517 1.394 . S
C501 C500 1.397 . S
C501 C502 1.438 . S
C501 C506 1.429 . S
C502 C501 1.438 . S
C502 C503 1.428 . S
C502 C515 1.394 . S
C503 H495 0.949 . S
C503 C502 1.428 . S
C503 C504 1.345 . S
C504 H496 0.950 . S
C504 C503 1.345 . S
C504 C505 1.424 . S
C505 H497 0.951 . S
C505 C504 1.424 . S
C505 C506 1.347 . S
C506 H498 0.951 . S
C506 C501 1.429 . S
C506 C505 1.347 . S
H507 C508 0.951 . S
C508 H507 0.951 . S
C508 C514 1.265 . S
H509 C514 0.950 . S
H510 C518 0.949 . S
H511 C519 0.950 . S
H512 C520 0.951 . S
H513 C521 0.951 . S
C514 C508 1.265 . S
C514 H509 0.950 . S
C514 C515 1.478 . S
C515 C502 1.394 . S
C515 C514 1.478 . S
C515 C516 1.397 . S
C516 C515 1.397 . S
C516 C517 1.438 . S
C516 C521 1.429 . S
C517 C500 1.394 . S
C517 C516 1.438 . S
C517 C518 1.428 . S
C518 H510 0.949 . S
C518 C517 1.428 . S
C518 C519 1.345 . S
C519 H511 0.950 . S
C519 C518 1.345 . S
C519 C520 1.424 . S
C520 H512 0.951 . S
C520 C519 1.424 . S
C520 C521 1.347 . S
C521 H513 0.951 . S
C521 C516 1.429 . S
C521 C520 1.347 . S
H522 C523 0.951 . S
C523 H522 0.951 . S
C523 C529 1.265 . S
H524 C529 0.950 . S
H525 C533 0.949 . S
H526 C534 0.950 . S
H527 C535 0.951 . S
H528 C536 0.951 . S
C529 C523 1.265 . S
C529 H524 0.950 . S
C529 C530 1.478 . S
C530 C529 1.478 . S
C530 C531 1.397 . S
C530 C547 1.394 . S
C531 C530 1.397 . S
C531 C532 1.438 . S
C531 C536 1.429 . S
C532 C531 1.438 . S
C532 C533 1.428 . S
C532 C545 1.394 . S
C533 H525 0.949 . S
C533 C532 1.428 . S
C533 C534 1.345 . S
C534 H526 0.950 . S
C534 C533 1.345 . S
C534 C535 1.424 . S
C535 H527 0.951 . S
C535 C534 1.424 . S
C535 C536 1.347 . S
C536 H528 0.951 . S
C536 C531 1.429 . S
C536 C535 1.347 . S
H537 C538 0.951 . S
C538 H537 0.951 . S
C538 C544 1.265 . S
H539 C544 0.950 . S
H540 C548 0.949 . S
H541 C549 0.950 . S
H542 C550 0.951 . S
H543 C551 0.951 . S
C544 C538 1.265 . S
C544 H539 0.950 . S
C544 C545 1.478 . S
C545 C532 1.394 . S
C545 C544 1.478 . S
C545 C546 1.397 . S
C546 C545 1.397 . S
C546 C547 1.438 . S
C546 C551 1.429 . S
C547 C530 1.394 . S
C547 C546 1.438 . S
C547 C548 1.428 . S
C548 H540 0.949 . S
C548 C547 1.428 . S
C548 C549 1.345 . S
C549 H541 0.950 . S
C549 C548 1.345 . S
C549 C550 1.424 . S
C550 H542 0.951 . S
C550 C549 1.424 . S
C550 C551 1.347 . S
C551 H543 0.951 . S
C551 C546 1.429 . S
C551 C550 1.347 . S
H552 C553 0.951 . S
C553 H552 0.951 . S
C553 C559 1.265 . S
H554 C559 0.950 . S
H555 C563 0.949 . S
H556 C564 0.950 . S
H557 C565 0.951 . S
H558 C566 0.951 . S
C559 C553 1.265 . S
C559 H554 0.950 . S
C559 C560 1.478 . S
C560 C559 1.478 . S
C560 C561 1.397 . S
C560 C577 1.394 . S
C561 C560 1.397 . S
C561 C562 1.438 . S
C561 C566 1.429 . S
C562 C561 1.438 . S
C562 C563 1.428 . S
C562 C575 1.394 . S
C563 H555 0.949 . S
C563 C562 1.428 . S
C563 C564 1.345 . S
C564 H556 0.950 . S
C564 C563 1.345 . S
C564 C565 1.424 . S
C565 H557 0.951 . S
C565 C564 1.424 . S
C565 C566 1.347 . S
C566 H558 0.951 . S
C566 C561 1.429 . S
C566 C565 1.347 . S
H567 C568 0.951 . S
C568 H567 0.951 . S
C568 C574 1.265 . S
H569 C574 0.950 . S
H570 C578 0.949 . S
H571 C579 0.950 . S
H572 C580 0.951 . S
H573 C581 0.951 . S
C574 C568 1.265 . S
C574 H569 0.950 . S
C574 C575 1.478 . S
C575 C562 1.394 . S
C575 C574 1.478 . S
C575 C576 1.397 . S
C576 C575 1.397 . S
C576 C577 1.438 . S
C576 C581 1.429 . S
C577 C560 1.394 . S
C577 C576 1.438 . S
C577 C578 1.428 . S
C578 H570 0.949 . S
C578 C577 1.428 . S
C578 C579 1.345 . S
C579 H571 0.950 . S
C579 C578 1.345 . S
C579 C580 1.424 . S
C580 H572 0.951 . S
C580 C579 1.424 . S
C580 C581 1.347 . S
C581 H573 0.951 . S
C581 C576 1.429 . S
C581 C580 1.347 . S
H582 C583 0.951 . S
C583 H582 0.951 . S
C583 C589 1.265 . S
H584 C589 0.950 . S
H585 C593 0.949 . S
H586 C594 0.950 . S
H587 C595 0.951 . S
H588 C596 0.951 . S
C589 C583 1.265 . S
C589 H584 0.950 . S
C589 C590 1.478 . S
C590 C589 1.478 . S
C590 C591 1.397 . S
C590 C607 1.394 . S
C591 C590 1.397 . S
C591 C592 1.438 . S
C591 C596 1.429 . S
C592 C591 1.438 . S
C592 C593 1.428 . S
C592 C605 1.394 . S
C593 H585 0.949 . S
C593 C592 1.428 . S
C593 C594 1.345 . S
C594 H586 0.950 . S
C594 C593 1.345 . S
C594 C595 1.424 . S
C595 H587 0.951 . S
C595 C594 1.424 . S
C595 C596 1.347 . S
C596 H588 0.951 . S
C596 C591 1.429 . S
C596 C595 1.347 . S
H597 C598 0.951 . S
C598 H597 0.951 . S
C598 C604 1.265 . S
H599 C604 0.950 . S
H600 C608 0.949 . S
H601 C609 0.950 . S
H602 C610 0.951 . S
H603 C611 0.951 . S
C604 C598 1.265 . S
C604 H599 0.950 . S
C604 C605 1.478 . S
C605 C592 1.394 . S
C605 C604 1.478 . S
C605 C606 1.397 . S
C606 C605 1.397 . S
C606 C607 1.438 . S
C606 C611 1.429 . S
C607 C590 1.394 . S
C607 C606 1.438 . S
C607 C608 1.428 . S
C608 H600 0.949 . S
C608 C607 1.428 . S
C608 C609 1.345 . S
C609 H601 0.950 . S
C609 C608 1.345 . S
C609 C610 1.424 . S
C610 H602 0.951 . S
C610 C609 1.424 . S
C610 C611 1.347 . S
C611 H603 0.951 . S
C611 C606 1.429 . S
C611 C610 1.347 . S
H612 C613 0.951 . S
C613 H612 0.951 . S
C613 C619 1.265 . S
H614 C619 0.950 . S
H615 C623 0.949 . S
H616 C624 0.950 . S
H617 C625 0.951 . S
H618 C626 0.951 . S
C619 C613 1.265 . S
C619 H614 0.950 . S
C619 C620 1.478 . S
C620 C619 1.478 . S
C620 C621 1.397 . S
C620 C637 1.394 . S
C621 C620 1.397 . S
C621 C622 1.438 . S
C621 C626 1.429 . S
C622 C621 1.438 . S
C622 C623 1.428 . S
C622 C635 1.394 . S
C623 H615 0.949 . S
C623 C622 1.428 . S
C623 C624 1.345 . S
C624 H616 0.950 . S
C624 C623 1.345 . S
C624 C625 1.424 . S
C625 H617 0.951 . S
C625 C624 1.424 . S
C625 C626 1.347 . S
C626 H618 0.951 . S
C626 C621 1.429 . S
C626 C625 1.347 . S
H627 C628 0.951 . S
C628 H627 0.951 . S
C628 C634 1.265 . S
H629 C634 0.950 . S
H630 C638 0.949 . S
H631 C639 0.950 . S
H632 C640 0.951 . S
H633 C641 0.951 . S
C634 C628 1.265 . S
C634 H629 0.950 . S
C634 C635 1.478 . S
C635 C622 1.394 . S
C635 C634 1.478 . S
C635 C636 1.397 . S
C636 C635 1.397 . S
C636 C637 1.438 . S
C636 C641 1.429 . S
C637 C620 1.394 . S
C637 C636 1.438 . S
C637 C638 1.428 . S
C638 H630 0.949 . S
C638 C637 1.428 . S
C638 C639 1.345 . S
C639 H631 0.950 . S
C639 C638 1.345 . S
C639 C640 1.424 . S
C640 H632 0.951 . S
C640 C639 1.424 . S
C640 C641 1.347 . S
C641 H633 0.951 . S
C641 C636 1.429 . S
C641 C640 1.347 . S
H642 C643 0.951 . S
C643 H642 0.951 . S
C643 C649 1.265 . S
H644 C649 0.950 . S
H645 C653 0.949 . S
H646 C654 0.950 . S
H647 C655 0.951 . S
H648 C656 0.951 . S
C649 C643 1.265 . S
C649 H644 0.950 . S
C649 C650 1.478 . S
C650 C649 1.478 . S
C650 C651 1.397 . S
C650 C667 1.394 . S
C651 C650 1.397 . S
C651 C652 1.438 . S
C651 C656 1.429 . S
C652 C651 1.438 . S
C652 C653 1.428 . S
C652 C665 1.394 . S
C653 H645 0.949 . S
C653 C652 1.428 . S
C653 C654 1.345 . S
C654 H646 0.950 . S
C654 C653 1.345 . S
C654 C655 1.424 . S
C655 H647 0.951 . S
C655 C654 1.424 . S
C655 C656 1.347 . S
C656 H648 0.951 . S
C656 C651 1.429 . S
C656 C655 1.347 . S
H657 C658 0.951 . S
C658 H657 0.951 . S
C658 C664 1.265 . S
H659 C664 0.950 . S
H660 C668 0.949 . S
H661 C669 0.950 . S
H662 C670 0.951 . S
H663 C671 0.951 . S
C664 C658 1.265 . S
C664 H659 0.950 . S
C664 C665 1.478 . S
C665 C652 1.394 . S
C665 C664 1.478 . S
C665 C666 1.397 . S
C666 C665 1.397 . S
C666 C667 1.438 . S
C666 C671 1.429 . S
C667 C650 1.394 . S
C667 C666 1.438 . S
C667 C668 1.428 . S
C668 H660 0.949 . S
C668 C667 1.428 . S
C668 C669 1.345 . S
C669 H661 0.950 . S
C669 C668 1.345 . S
C669 C670 1.424 . S
C670 H662 0.951 . S
C670 C669 1.424 . S
C670 C671 1.347 . S
C671 H663 0.951 . S
C671 C666 1.429 . S
C671 C670 1.347 . S
C133 C84 1.818 . S
C148 C8 1.795 . S
C163 C32 1.817 . S
C178 C106 1.795 . S
C193 C128 1.815 . S
C208 C52 1.792 . S
C223 C125 0.911 . S
C238 C7 0.769 . S
C253 C43 0.812 . S
C268 C81 0.868 . S
C283 C51 0.867 . S
C298 C103 0.813 . S
C313 C18 1.328 1_556 S
C328 C87 1.380 . S
C343 C109 1.329 . S
C358 C30 1.399 . S
C373 C131 1.332 . S
C388 C62 1.409 . S
C403 C76 1.406 1_554 S
C418 C15 1.330 . S
C433 C98 1.416 . S
C448 C29 1.356 . S
C463 C59 1.382 . S
C478 C120 1.329 . S
C493 C21 1.275 . S
C508 C54 1.272 . S
C523 C10 1.286 . S
C538 C37 1.265 . S
C553 C65 1.259 . S
C568 C40 1.284 . S
C583 C73 1.282 . S
C598 C96 1.244 . S
C613 C95 1.275 . S
C628 C118 1.241 . S
C643 C74 1.283 . S
C658 C117 1.268 . S
