# Generated by pormake.
# Topology smc, (6)-cn, num edge types: 1
# Building blocks:
#     Node 0, Type 0, BuildingBlock: IZENUY_clean_sbu_0, # of connection points: 6
#     Node 1, Type 0, BuildingBlock: IZENUY_clean_sbu_0, # of connection points: 6
#     Node 2, Type 0, BuildingBlock: IZENUY_clean_sbu_0, # of connection points: 6
#     Node 3, Type 0, BuildingBlock: IZENUY_clean_sbu_0, # of connection points: 6
#     Node 4, Type 0, BuildingBlock: IZENUY_clean_sbu_0, # of connection points: 6
#     Node 5, Type 0, BuildingBlock: IZENUY_clean_sbu_0, # of connection points: 6
#     Node 6, Type 0, BuildingBlock: IZENUY_clean_sbu_0, # of connection points: 6
#     Node 7, Type 0, BuildingBlock: IZENUY_clean_sbu_0, # of connection points: 6
#     Node 8, Type 0, BuildingBlock: IZENUY_clean_sbu_0, # of connection points: 6
#     Edge 9, Type (0, 0), BuildingBlock: CIFDUS_clean_linker_0, # of connection points: 2
#     Edge 10, Type (0, 0), BuildingBlock: CIFDUS_clean_linker_0, # of connection points: 2
#     Edge 11, Type (0, 0), BuildingBlock: CIFDUS_clean_linker_0, # of connection points: 2
#     Edge 12, Type (0, 0), BuildingBlock: CIFDUS_clean_linker_0, # of connection points: 2
#     Edge 13, Type (0, 0), BuildingBlock: CIFDUS_clean_linker_0, # of connection points: 2
#     Edge 14, Type (0, 0), BuildingBlock: CIFDUS_clean_linker_0, # of connection points: 2
#     Edge 15, Type (0, 0), BuildingBlock: CIFDUS_clean_linker_0, # of connection points: 2
#     Edge 16, Type (0, 0), BuildingBlock: CIFDUS_clean_linker_0, # of connection points: 2
#     Edge 17, Type (0, 0), BuildingBlock: CIFDUS_clean_linker_0, # of connection points: 2
#     Edge 18, Type (0, 0), BuildingBlock: CIFDUS_clean_linker_0, # of connection points: 2
#     Edge 19, Type (0, 0), BuildingBlock: CIFDUS_clean_linker_0, # of connection points: 2
#     Edge 20, Type (0, 0), BuildingBlock: CIFDUS_clean_linker_0, # of connection points: 2
#     Edge 21, Type (0, 0), BuildingBlock: CIFDUS_clean_linker_0, # of connection points: 2
#     Edge 22, Type (0, 0), BuildingBlock: CIFDUS_clean_linker_0, # of connection points: 2
#     Edge 23, Type (0, 0), BuildingBlock: CIFDUS_clean_linker_0, # of connection points: 2
#     Edge 24, Type (0, 0), BuildingBlock: CIFDUS_clean_linker_0, # of connection points: 2
#     Edge 25, Type (0, 0), BuildingBlock: CIFDUS_clean_linker_0, # of connection points: 2
#     Edge 26, Type (0, 0), BuildingBlock: CIFDUS_clean_linker_0, # of connection points: 2
#     Edge 27, Type (0, 0), BuildingBlock: CIFDUS_clean_linker_0, # of connection points: 2
#     Edge 28, Type (0, 0), BuildingBlock: CIFDUS_clean_linker_0, # of connection points: 2
#     Edge 29, Type (0, 0), BuildingBlock: CIFDUS_clean_linker_0, # of connection points: 2
#     Edge 30, Type (0, 0), BuildingBlock: CIFDUS_clean_linker_0, # of connection points: 2
#     Edge 31, Type (0, 0), BuildingBlock: CIFDUS_clean_linker_0, # of connection points: 2
#     Edge 32, Type (0, 0), BuildingBlock: CIFDUS_clean_linker_0, # of connection points: 2
#     Edge 33, Type (0, 0), BuildingBlock: CIFDUS_clean_linker_0, # of connection points: 2
#     Edge 34, Type (0, 0), BuildingBlock: CIFDUS_clean_linker_0, # of connection points: 2
#     Edge 35, Type (0, 0), BuildingBlock: CIFDUS_clean_linker_0, # of connection points: 2
# Relax obj value: 0.289
# Max RMSD: 0.292
# Mean RMSD: 0.291
data_MOF--net-smc--node1-IZENUY_clean_sbu_0--edge1-CIFDUS_clean_linker_0
_symmetry_space_group_name_H-M    P1
_symmetry_Int_Tables_number       1
_symmetry_cell_setting            triclinic
loop_
_symmetry_equiv_pos_as_xyz
'x, y, z'
_cell_length_a     25.793851
_cell_length_b     25.906163
_cell_length_c     39.657349
_cell_angle_alpha  90.508944
_cell_angle_beta   90.116362
_cell_angle_gamma 119.71734
loop_
_atom_site_label
_atom_site_type_symbol
_atom_site_fract_x
_atom_site_fract_y
_atom_site_fract_z
_atom_type_partial_charge
Fe0 Fe 0.05156 0.4779 0.976 0.0
Fe1 Fe 0.01447 0.35773 0.00854 0.0
O2 O 0.01472 0.42628 0.00822 0.0
Fe3 Fe 0.97816 0.44307 0.04029 0.0
O4 O 0.92944 0.44783 0.01037 0.0
O5 O 0.99781 0.50748 0.97529 0.0
O6 O 1.00635 0.42547 0.94365 0.0
C7 C 1.00506 0.37684 0.9386 0.0
C8 C 0.08356 0.55517 0.02836 0.0
O9 O 0.01892 0.35258 0.96205 0.0
C10 C 0.02564 0.39053 0.07808 0.0
O11 O 0.11188 0.45876 0.97246 0.0
O12 O 0.09451 0.39577 0.01363 0.0
O13 O 0.03101 0.52579 0.04034 0.0
O14 O 0.09981 0.53249 0.00579 0.0
C15 C 0.89865 0.32279 0.02265 0.0
O16 O 1.01018 0.35077 0.05515 0.0
O17 O 0.02446 0.43765 0.0725 0.0
C18 C 0.13067 0.43655 0.99476 0.0
O19 O 0.93428 0.31686 0.00349 0.0
O20 O 0.91824 0.36452 0.04472 0.0
C21 C 0.9452 0.48506 0.98733 0.0
Fe22 Fe 0.66475 0.66044 0.01044 0.0
Fe23 Fe 0.54246 0.57499 0.97957 0.0
O24 O 0.59667 0.59205 0.0112 0.0
Fe25 Fe 0.58284 0.5409 0.04355 0.0
O26 O 0.59025 0.59384 0.07554 0.0
O27 O 0.6753 0.66621 0.05678 0.0
O28 O 0.62569 0.70155 0.01566 0.0
C29 C 0.58355 0.69553 0.99693 0.0
C30 C 0.70269 0.58184 0.02435 0.0
O31 O 0.56069 0.65356 0.97501 0.0
C32 C 0.53678 0.46307 0.99163 0.0
O33 O 0.66609 0.6667 0.96396 0.0
O34 O 0.59308 0.57989 0.94698 0.0
O35 O 0.66233 0.56025 0.0469 0.0
O36 O 0.70665 0.62215 0.00521 0.0
C37 C 0.46913 0.53353 0.03293 0.0
O38 O 0.513 0.49223 0.97983 0.0
O39 O 0.57635 0.48613 0.01387 0.0
C40 C 0.64138 0.62667 0.94127 0.0
O41 O 0.49006 0.57083 0.00993 0.0
O42 O 0.49961 0.511 0.04461 0.0
C43 C 0.6372 0.64285 0.08016 0.0
Fe44 Fe 0.44554 0.97277 0.97943 0.0
Fe45 Fe 0.36088 0.00961 0.01169 0.0
O46 O 0.42963 0.00947 0.01186 0.0
Fe47 Fe 0.48214 0.04601 0.0444 0.0
O48 O 0.53664 0.094 0.01522 0.0
O49 O 0.52856 0.02555 0.97957 0.0
O50 O 0.43911 0.01865 0.94789 0.0
C51 C 0.39204 0.0207 0.94286 0.0
C52 C 0.48896 0.94003 0.03198 0.0
O53 O 0.35245 1.00489 0.96544 0.0
C54 C 0.3809 0.99939 0.08081 0.0
O55 O 0.36648 0.91314 0.97476 0.0
O56 O 0.31967 0.9298 0.01612 0.0
O57 O 0.51167 0.99241 0.04455 0.0
O58 O 0.45132 0.92433 0.00869 0.0
C59 C 0.44075 0.12522 0.02651 0.0
O60 O 0.35699 0.01456 0.05788 0.0
O61 O 0.42977 1.00083 0.07602 0.0
C62 C 0.32519 0.894 0.99678 0.0
O63 O 0.39937 0.08933 0.00726 0.0
O64 O 0.46324 0.10629 0.04861 0.0
C65 C 0.55837 0.07793 0.99205 0.0
Fe66 Fe 0.65936 0.80106 0.37734 0.0
Fe67 Fe 0.68761 0.71025 0.34532 0.0
O68 O 0.69294 0.78089 0.34494 0.0
Fe69 Fe 0.73137 0.83037 0.31218 0.0
O70 O 0.78173 0.88416 0.34153 0.0
O71 O 0.71618 0.88233 0.37716 0.0
O72 O 0.70344 0.79155 0.40959 0.0
C73 C 0.70037 0.74224 0.41471 0.0
C74 C 0.62905 0.84409 0.32319 0.0
O75 O 0.68185 0.70278 0.39159 0.0
C76 C 0.67887 0.72845 0.27567 0.0
O77 O 0.59582 0.72421 0.38148 0.0
O78 O 0.60844 0.67516 0.3397 0.0
O79 O 0.68121 0.86393 0.31096 0.0
O80 O 0.6128 0.81019 0.34792 0.0
C81 C 0.80417 0.78066 0.3307 0.0
O82 O 0.69209 0.70385 0.29908 0.0
O83 O 0.68361 0.77863 0.2803 0.0
C84 C 0.57442 0.68392 0.35857 0.0
O85 O 0.76689 0.74352 0.35075 0.0
O86 O 0.78821 0.80599 0.30873 0.0
C87 C 0.7682 0.90879 0.3644 0.0
Fe88 Fe 0.25218 0.87186 0.37418 0.0
Fe89 Fe 0.32987 0.99634 0.34542 0.0
O90 O 0.26337 0.92678 0.34469 0.0
Fe91 Fe 0.20709 0.91215 0.31499 0.0
O92 O 0.15721 0.90371 0.34826 0.0
O93 O 0.16851 0.83773 0.37586 0.0
O94 O 0.25757 0.91955 0.40884 0.0
C95 C 0.30267 0.96981 0.41427 0.0
C96 C 0.20656 0.80118 0.31963 0.0
O97 O 0.34071 0.99672 0.39134 0.0
C98 C 0.30458 0.96937 0.27584 0.0
O99 O 0.33238 0.89434 0.37652 0.0
O100 O 0.37416 0.96121 0.33689 0.0
O101 O 0.17993 0.82984 0.31161 0.0
O102 O 0.24774 0.82268 0.34111 0.0
C103 C 0.24547 0.02967 0.33689 0.0
O104 O 0.32995 0.00729 0.29948 0.0
O105 O 0.25594 0.92222 0.28046 0.0
C106 C 0.37218 0.91961 0.35405 0.0
O107 O 0.28881 0.03488 0.3542 0.0
O108 O 0.22296 0.99012 0.31373 0.0
C109 C 0.13603 0.85974 0.3671 0.0
Fe110 Fe 0.05239 0.35646 0.34382 0.0
Fe111 Fe 0.14182 0.3226 0.31189 0.0
O112 O 0.12133 0.35631 0.34457 0.0
Fe113 Fe 0.17308 0.39134 0.37825 0.0
O114 O 0.12094 0.38717 0.40986 0.0
O115 O 0.03367 0.32997 0.38719 0.0
O116 O 1.00883 0.27762 0.33131 0.0
C117 C 0.02374 0.23808 0.32668 0.0
C118 C 0.14327 0.47572 0.35719 0.0
O119 O 0.07687 0.25118 0.3199 0.0
C120 C 0.24807 0.42285 0.32445 0.0
O121 O 0.06083 0.38238 0.3004 0.0
O122 O 0.10371 0.33589 0.27777 0.0
O123 O 0.18356 0.46298 0.36488 0.0
O124 O 0.08818 0.43594 0.35616 0.0
C125 C 0.17373 0.28677 0.37116 0.0
O126 O 0.2091 0.3943 0.30196 0.0
O127 O 0.23775 0.40508 0.35418 0.0
C128 C 0.0772 0.36513 0.27486 0.0
O129 O 0.18232 0.29975 0.34021 0.0
O130 O 0.16371 0.31899 0.39172 0.0
C131 C 0.06597 0.35389 0.41273 0.0
Fe132 Fe 0.39451 0.15073 0.64734 0.0
Fe133 Fe 0.34612 0.02857 0.67888 0.0
O134 O 0.35215 0.09937 0.67851 0.0
Fe135 Fe 0.31521 0.11864 0.70902 0.0
O136 O 0.27199 0.12752 0.67694 0.0
O137 O 0.34723 0.18771 0.64587 0.0
O138 O 0.34813 0.10158 0.61427 0.0
C139 C 0.34129 0.05046 0.60955 0.0
C140 C 0.42688 0.22621 0.7001 0.0
O141 O 0.35282 0.02418 0.63279 0.0
C142 C 0.35473 0.06027 0.74792 0.0
O143 O 0.44967 0.12426 0.64418 0.0
O144 O 0.42542 0.06109 0.68586 0.0
O145 O 0.37278 0.20018 0.71003 0.0
O146 O 0.44302 0.2011 0.67884 0.0
C147 C 0.23131 1.00121 0.6898 0.0
O148 O 0.33824 0.02063 0.72499 0.0
O149 O 0.35583 0.10867 0.74279 0.0
C150 C 0.46411 0.09817 0.66638 0.0
O151 O 0.26675 0.99317 0.67175 0.0
O152 O 0.25131 0.04195 0.71238 0.0
C153 C 0.29396 0.1686 0.65611 0.0
Fe154 Fe 0.91528 0.19296 0.70693 0.0
Fe155 Fe 0.98751 0.31107 0.67095 0.0
O156 O 0.92282 0.24087 0.67398 0.0
Fe157 Fe 0.86517 0.21857 0.64409 0.0
O158 O 0.81531 0.21443 0.67631 0.0
O159 O 0.83114 0.1568 0.70938 0.0
O160 O 0.92006 0.2456 0.73826 0.0
C161 C 0.96528 0.29633 0.74182 0.0
C162 C 0.86975 0.11244 0.65659 0.0
O163 O 1.00119 0.32077 0.7174 0.0
C164 C 0.95968 0.27061 0.60266 0.0
O165 O 0.99689 0.21912 0.70936 0.0
O166 O 0.03352 0.2774 0.66543 0.0
O167 O 0.8407 0.13718 0.6461 0.0
O168 O 0.91168 0.13935 0.67725 0.0
C169 C 0.89991 0.33745 0.65901 0.0
O170 O 0.9845 0.31344 0.62393 0.0
O171 O 0.91361 0.22319 0.61048 0.0
C172 C 0.03639 0.24288 0.68648 0.0
O173 O 0.94435 0.34737 0.67671 0.0
O174 O 0.87834 0.29489 0.6376 0.0
C175 C 0.79675 0.17533 0.69834 0.0
Fe176 Fe 0.79807 0.64006 0.6417 0.0
Fe177 Fe 0.70941 0.66955 0.67772 0.0
O178 O 0.77843 0.6696 0.6768 0.0
Fe179 Fe 0.83011 0.69891 0.71086 0.0
O180 O 0.89535 0.7219 0.68462 0.0
O181 O 0.86304 0.71378 0.63263 0.0
O182 O 0.75523 0.6529 0.61029 0.0
C183 C 0.73386 0.68694 0.6094 0.0
C184 C 0.83391 0.59838 0.69533 0.0
O185 O 0.72051 0.70372 0.63622 0.0
C186 C 0.7212 0.65281 0.7456 0.0
O187 O 0.73514 0.56703 0.65009 0.0
O188 O 0.66663 0.59294 0.66091 0.0
O189 O 0.82301 0.62543 0.71863 0.0
O190 O 0.84395 0.61904 0.66601 0.0
C191 C 0.7983 0.78516 0.69858 0.0
O192 O 0.68912 0.63595 0.71943 0.0
O193 O 0.7767 0.68456 0.74367 0.0
C194 C 0.6819 0.5534 0.65727 0.0
O195 O 0.74371 0.74583 0.69469 0.0
O196 O 0.83852 0.77163 0.70417 0.0
C197 C 0.90307 0.74149 0.65499 0.0
H198 H 0.40701 0.58891 0.02037 0.0
H199 H 0.38383 0.42153 0.0552 0.0
H200 H 0.27508 0.37639 0.04723 0.0
H201 H 0.18812 0.38299 0.02434 0.0
H202 H 0.21909 0.54757 0.98011 0.0
H203 H 0.32407 0.59474 0.99619 0.0
C204 C 0.37839 0.54248 0.02655 0.0
C205 C 0.4039 0.50862 0.03823 0.0
C206 C 0.31747 0.51596 0.01899 0.0
C207 C 0.36566 0.44891 0.04658 0.0
C208 C 0.30359 0.42289 0.04134 0.0
C209 C 0.21808 0.42902 0.01796 0.0
C210 C 0.19565 0.46173 1.0009 0.0
C211 C 0.27929 0.45554 0.0264 0.0
C212 C 0.23502 0.52126 0.99288 0.0
C213 C 0.295 0.54842 1.00237 0.0
H214 H 0.43271 0.82326 0.01791 0.0
H215 H 0.60059 0.96481 0.05597 0.0
H216 H 0.64488 0.9002 0.04913 0.0
H217 H 0.63756 0.80639 0.02668 0.0
H218 H 0.47207 0.67364 0.98081 0.0
H219 H 0.42578 0.73324 0.99493 0.0
C220 C 0.47905 0.84026 0.02503 0.0
C221 C 0.51333 0.8992 0.0373 0.0
C222 C 0.50504 0.80496 0.01848 0.0
C223 C 0.57291 0.91965 0.04685 0.0
C224 C 0.59844 0.88299 0.04231 0.0
C225 C 0.59151 0.79081 0.01954 0.0
C226 C 0.55842 0.7356 1.00241 0.0
C227 C 0.56539 0.82625 0.02707 0.0
C228 C 0.49879 0.71606 0.99349 0.0
C229 C 0.47211 0.74988 1.00188 0.0
H230 H 0.21464 0.83633 0.02655 0.0
H231 H 0.34751 0.80579 0.97867 0.0
H232 H 0.28891 0.70029 0.99104 0.0
H233 H 0.19993 0.61699 0.01322 0.0
H234 H 0.05781 0.64079 0.05342 0.0
H235 H 0.12132 0.74925 0.04795 0.0
C236 C 0.23043 0.8064 0.01859 0.0
C237 C 0.28545 0.8291 1.00145 0.0
C238 C 0.19545 0.74497 0.02505 0.0
C239 C 0.30526 0.78971 0.99144 0.0
C240 C 0.27198 0.72938 0.9988 0.0
C241 C 0.18245 0.64558 0.02102 0.0
C242 C 0.12373 0.62035 0.03355 0.0
C243 C 0.2171 0.70665 0.0154 0.0
C244 C 0.10282 0.65868 0.04402 0.0
C245 C 0.13885 0.72065 0.04032 0.0
H246 H 0.387 0.1823 0.99672 0.0
H247 H 0.5515 0.21368 0.04372 0.0
H248 H 0.59802 0.31875 0.03008 0.0
H249 H 0.59179 0.40138 0.00688 0.0
H250 H 0.4248 0.37703 0.96782 0.0
H251 H 0.38006 0.26878 0.97455 0.0
C252 C 0.43286 0.21233 0.00424 0.0
C253 C 0.46566 0.19001 0.02146 0.0
C254 C 0.45908 0.2735 0.99704 0.0
C255 C 0.52503 0.22951 0.0309 0.0
C256 C 0.55184 0.28956 0.02279 0.0
C257 C 0.54551 0.37271 0.9996 0.0
C258 C 0.51168 0.39774 0.98701 0.0
C259 C 0.51927 0.31189 0.00603 0.0
C260 C 0.45216 0.35928 0.97723 0.0
C261 C 0.42638 0.29747 0.98167 0.0
H262 H 0.61953 0.19451 0.00668 0.0
H263 H 0.6442 0.05291 0.96656 0.0
H264 H 0.75319 0.11756 0.97167 0.0
H265 H 0.84069 0.21174 0.99292 0.0
H266 H 0.80994 0.34481 0.04042 0.0
H267 H 0.70354 0.28487 0.02831 0.0
C268 C 0.64847 0.17745 0.99877 0.0
C269 C 0.62336 0.11851 0.98642 0.0
C270 C 0.70999 0.21291 0.00414 0.0
C271 C 0.66202 0.09805 0.97583 0.0
C272 C 0.7243 0.13477 0.97932 0.0
C273 C 0.81054 0.22732 1.00083 0.0
C274 C 0.8334 0.28271 0.01786 0.0
C275 C 0.74867 0.19167 0.99447 0.0
C276 C 0.79373 0.30226 0.02778 0.0
C277 C 0.73288 0.26822 0.02056 0.0
H278 H 0.8283 0.42992 1.0009 0.0
H279 H 0.97034 0.59627 0.96405 0.0
H280 H 0.90627 0.64118 0.97148 0.0
H281 H 0.81291 0.63483 0.99427 0.0
H282 H 0.68127 0.47141 0.04004 0.0
H283 H 0.73963 0.42432 0.0248 0.0
C284 C 0.84556 0.47607 0.99417 0.0
C285 C 0.90446 0.50971 0.98208 0.0
C286 C 0.81086 0.50252 1.00129 0.0
C287 C 0.92518 0.56905 0.97303 0.0
C288 C 0.88886 0.59495 0.97793 0.0
C289 C 0.79737 0.58907 1.00115 0.0
C290 C 0.74267 0.5567 0.01845 0.0
C291 C 0.83234 0.56259 0.99316 0.0
C292 C 0.7232 0.4975 0.02711 0.0
C293 C 0.75632 0.47036 0.0181 0.0
H294 H 0.86312 0.77079 0.3849 0.0
H295 H 0.88258 0.81125 0.27871 0.0
H296 H 0.98393 0.82639 0.2804 0.0
H297 H 0.06826 0.83541 0.31238 0.0
H298 H 0.05651 0.80986 0.41993 0.0
H299 H 0.94924 0.77826 0.41731 0.0
C300 C 0.88954 0.78258 0.3621 0.0
C301 C 0.86555 0.7901 0.33164 0.0
C302 C 0.94841 0.79282 0.36353 0.0
C303 C 0.90024 0.80582 0.3024 0.0
C304 C 0.95792 0.81402 0.30335 0.0
C305 C 0.04203 0.82201 0.3353 0.0
C306 C 0.0701 0.82506 0.36639 0.0
C307 C 0.98252 0.80845 0.3338 0.0
C308 C 0.03572 0.80723 0.39575 0.0
C309 C 0.9748 0.79021 0.39421 0.0
H310 H 0.11207 0.17765 0.34645 0.0
H311 H 0.25686 0.28473 0.41431 0.0
H312 H 0.29124 0.21153 0.41072 0.0
H313 H 0.28742 0.12423 0.38141 0.0
H314 H 0.14608 0.02427 0.30912 0.0
H315 H 0.10358 0.08814 0.32062 0.0
C316 C 0.14975 0.18374 0.36144 0.0
C317 C 0.18109 0.23585 0.38105 0.0
C318 C 0.17116 0.14383 0.35728 0.0
C319 C 0.23092 0.24419 0.3998 0.0
C320 C 0.25128 0.20294 0.39705 0.0
C321 C 0.24733 0.1164 0.36814 0.0
C322 C 0.22072 0.06989 0.34386 0.0
C323 C 0.22317 0.15392 0.37467 0.0
C324 C 0.16828 0.06013 0.32737 0.0
C325 C 0.14358 0.09638 0.33415 0.0
H326 H 0.91319 0.18915 0.35715 0.0
H327 H 0.03402 0.14296 0.30752 0.0
H328 H 0.97213 0.0402 0.32344 0.0
H329 H 0.88394 0.96317 0.34918 0.0
H330 H 0.74945 0.99975 0.38841 0.0
H331 H 0.81768 0.10701 0.38053 0.0
C332 C 0.92545 0.1564 0.34945 0.0
C333 C 0.97934 0.17442 0.33183 0.0
C334 C 0.88789 0.09597 0.35753 0.0
C335 C 0.99411 0.13113 0.32191 0.0
C336 C 0.95864 0.07212 0.33098 0.0
C337 C 0.86917 0.99435 0.3563 0.0
C338 C 0.81133 0.97319 0.36919 0.0
C339 C 0.9058 0.05425 0.34883 0.0
C340 C 0.79384 0.01467 0.37875 0.0
C341 C 0.83246 0.07586 0.37359 0.0
H342 H 0.2692 0.74491 0.31489 0.0
H343 H 0.0884 0.71212 0.31325 0.0
H344 H 0.05146 0.60595 0.32365 0.0
H345 H 0.07256 0.52522 0.34085 0.0
H346 H 0.25638 0.56755 0.35027 0.0
H347 H 0.28997 0.66705 0.33062 0.0
C348 C 0.22149 0.7143 0.316 0.0
C349 C 0.1817 0.73651 0.31321 0.0
C350 C 0.20123 0.6551 0.32476 0.0
C351 C 0.12006 0.69622 0.31468 0.0
C352 C 0.09908 0.63571 0.32143 0.0
C353 C 0.11994 0.55629 0.33874 0.0
C354 C 0.16179 0.53811 0.34734 0.0
C355 C 0.13949 0.61511 0.32796 0.0
C356 C 0.22293 0.57939 0.34412 0.0
C357 C 0.24238 0.63665 0.3326 0.0
H358 H 0.30007 0.51207 0.36801 0.0
H359 H 0.32666 0.45403 0.27056 0.0
H360 H 0.43175 0.53451 0.27192 0.0
H361 H 0.517 0.61285 0.3046 0.0
H362 H 0.48619 0.66759 0.40233 0.0
H363 H 0.37974 0.59652 0.39671 0.0
C364 C 0.32803 0.51796 0.34636 0.0
C365 C 0.30566 0.47737 0.31909 0.0
C366 C 0.38734 0.56288 0.34777 0.0
C367 C 0.34276 0.48511 0.2916 0.0
C368 C 0.40279 0.5306 0.29267 0.0
C369 C 0.48695 0.60928 0.32468 0.0
C370 C 0.50958 0.64425 0.35438 0.0
C371 C 0.42585 0.56828 0.32125 0.0
C372 C 0.47003 0.64053 0.37962 0.0
C373 C 0.40929 0.60005 0.37636 0.0
H374 H 0.48608 0.98161 0.32882 0.0
H375 H 0.35107 0.80709 0.36045 0.0
H376 H 0.41494 0.76659 0.34439 0.0
H377 H 0.51056 0.78124 0.32591 0.0
H378 H 0.65408 0.95695 0.30374 0.0
H379 H 0.58481 0.99619 0.30951 0.0
C380 C 0.47095 0.93481 0.33229 0.0
C381 C 0.41403 0.89749 0.34624 0.0
C382 C 0.50903 0.91197 0.32396 0.0
C383 C 0.39488 0.83693 0.35042 0.0
C384 C 0.43116 0.81361 0.34088 0.0
C385 C 0.52664 0.82812 0.32163 0.0
C386 C 0.5875 0.86615 0.31443 0.0
C387 C 0.4884 0.85078 0.32809 0.0
C388 C 0.60742 0.92655 0.30879 0.0
C389 C 0.56802 0.94908 0.31287 0.0
H390 H 0.72244 0.13687 0.646 0.0
H391 H 0.72336 0.1411 0.75464 0.0
H392 H 0.61669 0.11235 0.75404 0.0
H393 H 0.52742 0.09919 0.7218 0.0
H394 H 0.53638 0.11286 0.61334 0.0
H395 H 0.63598 0.12359 0.61453 0.0
C396 C 0.69905 0.13042 0.66969 0.0
C397 C 0.7307 0.14094 0.70038 0.0
C398 C 0.64012 0.11908 0.66896 0.0
C399 C 0.69988 0.13238 0.73077 0.0
C400 C 0.63927 0.11709 0.7303 0.0
C401 C 0.5513 0.10431 0.69847 0.0
C402 C 0.52478 0.10548 0.66743 0.0
C403 C 0.60965 0.11259 0.69949 0.0
C404 C 0.5561 0.11251 0.63743 0.0
C405 C 0.61277 0.11816 0.63813 0.0
H406 H 0.91186 0.40647 0.71355 0.0
H407 H 0.83045 0.35657 0.61456 0.0
H408 H 0.79547 0.42825 0.62036 0.0
H409 H 0.79954 0.51209 0.64999 0.0
H410 H 0.87875 0.56389 0.74907 0.0
H411 H 0.90347 0.48334 0.74699 0.0
C412 C 0.88634 0.41125 0.69326 0.0
C413 C 0.87498 0.37745 0.6632 0.0
C414 C 0.86623 0.45236 0.69687 0.0
C415 C 0.84042 0.38266 0.6376 0.0
C416 C 0.82044 0.42351 0.64096 0.0
C417 C 0.82011 0.50451 0.67181 0.0
C418 C 0.83698 0.54352 0.69976 0.0
C419 C 0.83444 0.45937 0.67006 0.0
C420 C 0.86489 0.53404 0.72747 0.0
C421 C 0.8795 0.48852 0.72602 0.0
H422 H 0.56739 0.50473 0.6829 0.0
H423 H 0.69791 0.45828 0.64823 0.0
H424 H 0.63623 0.35767 0.66736 0.0
H425 H 0.5448 0.28146 0.69115 0.0
H426 H 0.40287 0.31725 0.71589 0.0
H427 H 0.47019 0.42373 0.70524 0.0
C428 C 0.58196 0.4724 0.67916 0.0
C429 C 0.63827 0.49001 0.66449 0.0
C430 C 0.54464 0.41288 0.68922 0.0
C431 C 0.65598 0.44711 0.65996 0.0
C432 C 0.62055 0.38919 0.67095 0.0
C433 C 0.52838 0.31246 0.69466 0.0
C434 C 0.46866 0.29114 0.70421 0.0
C435 C 0.56505 0.3717 0.68557 0.0
C436 C 0.44874 0.33232 0.70897 0.0
C437 C 0.48694 0.39302 0.70217 0.0
H438 H 0.73449 0.83306 0.66971 0.0
H439 H 0.90475 0.88064 0.71565 0.0
H440 H 0.94456 0.98252 0.6981 0.0
H441 H 0.93169 0.0582 0.67165 0.0
H442 H 0.75802 0.02076 0.63625 0.0
H443 H 0.7194 0.91403 0.64607 0.0
C444 C 0.77997 0.86596 0.67634 0.0
C445 C 0.81709 0.84859 0.69329 0.0
C446 C 0.80223 0.92585 0.66733 0.0
C447 C 0.87579 0.89197 0.70171 0.0
C448 C 0.89865 0.95046 0.69174 0.0
C449 C 0.8852 0.02698 0.66586 0.0
C450 C 0.8477 0.0477 0.65348 0.0
C451 C 0.86244 0.96764 0.67444 0.0
C452 C 0.78804 1.00612 0.64556 0.0
C453 C 0.76578 0.9453 0.6518 0.0
H454 H 0.95405 0.83454 0.69593 0.0
H455 H 0.98349 0.76722 0.60267 0.0
H456 H 0.0895 0.84528 0.60463 0.0
H457 H 0.17481 0.9247 0.63712 0.0
H458 H 0.14134 0.98854 0.73109 0.0
H459 H 0.03463 0.91961 0.72444 0.0
C460 C 0.98291 0.83837 0.67523 0.0
C461 C 0.96083 0.79576 0.64899 0.0
C462 C 0.04309 0.88171 0.67722 0.0
C463 C 0.99921 0.8001 0.62282 0.0
C464 C 0.05988 0.84413 0.62431 0.0
C465 C 0.14415 0.92356 0.65616 0.0
C466 C 0.16627 0.96089 0.68507 0.0
C467 C 0.08261 0.88375 0.65211 0.0
C468 C 0.12579 0.95986 0.70898 0.0
C469 C 0.06477 0.92059 0.70511 0.0
H470 H 0.25623 0.20448 0.70866 0.0
H471 H 0.25714 0.2057 0.60003 0.0
H472 H 0.17863 0.23373 0.60027 0.0
H473 H 0.10084 0.24427 0.63184 0.0
H474 H 0.09238 0.22641 0.74011 0.0
H475 H 0.18166 0.21625 0.73966 0.0
C476 C 0.24013 0.21211 0.68495 0.0
C477 C 0.26252 0.20326 0.65432 0.0
C478 C 0.19228 0.22313 0.68538 0.0
C479 C 0.24136 0.21319 0.62386 0.0
C480 C 0.19571 0.22803 0.6241 0.0
C481 C 0.11886 0.23843 0.65532 0.0
C482 C 0.08995 0.23584 0.68606 0.0
C483 C 0.16929 0.23079 0.65471 0.0
C484 C 0.11335 0.22785 0.71622 0.0
C485 C 0.16462 0.22254 0.71596 0.0
H486 H 0.07901 0.30942 0.21718 0.0
H487 H 0.04652 0.44782 0.25453 0.0
H488 H 0.02897 0.46856 0.1967 0.0
H489 H 0.02367 0.44755 0.1357 0.0
H490 H 0.05329 0.30684 0.0991 0.0
H491 H 0.07157 0.28702 0.1568 0.0
C492 C 0.06821 0.3443 0.2128 0.0
C493 C 0.0644 0.37728 0.24023 0.0
C494 C 0.05786 0.35558 0.17966 0.0
C495 C 0.0496 0.42171 0.23396 0.0
C496 C 0.03978 0.43367 0.20089 0.0
C497 C 0.03437 0.41266 0.14028 0.0
C498 C 0.0374 0.37885 0.11302 0.0
C499 C 0.044 0.40098 0.17356 0.0
C500 C 0.05063 0.33343 0.11954 0.0
C501 C 0.0611 0.32212 0.15253 0.0
H502 H 0.71097 0.78838 0.21701 0.0
H503 H 0.61939 0.61132 0.2575 0.0
H504 H 0.59723 0.56921 0.20022 0.0
H505 H 0.60381 0.58316 0.13887 0.0
H506 H 0.70169 0.75992 0.09837 0.0
H507 H 0.72184 0.80213 0.15563 0.0
C508 C 0.68597 0.74056 0.21324 0.0
C509 C 0.66626 0.70283 0.24129 0.0
C510 C 0.67477 0.71687 0.18037 0.0
C511 C 0.63494 0.64104 0.2362 0.0
C512 C 0.62222 0.61708 0.20353 0.0
C513 C 0.62942 0.63096 0.1426 0.0
C514 C 0.65085 0.66857 0.11454 0.0
C515 C 0.64186 0.6546 0.17547 0.0
C516 C 0.68486 0.73025 0.11966 0.0
C517 C 0.69619 0.75429 0.15232 0.0
H518 H 0.444 0.03367 0.13885 0.0
H519 H 0.26424 0.94383 0.09914 0.0
H520 H 0.22455 0.92647 0.15656 0.0
H521 H 0.24153 0.93613 0.21772 0.0
H522 H 0.42121 0.03194 0.25738 0.0
H523 H 0.4609 0.04836 0.19999 0.0
C524 C 0.39614 0.01006 0.14286 0.0
C525 C 0.35685 0.98928 0.1151 0.0
C526 C 0.37394 1.00173 0.17572 0.0
C527 C 0.29504 0.95995 0.12034 0.0
C528 C 0.27248 0.95005 0.15304 0.0
C529 C 0.28938 0.96064 0.21374 0.0
C530 C 0.32861 0.9825 0.24151 0.0
C531 C 0.31157 0.97064 0.18086 0.0
C532 C 0.39039 0.01497 0.23621 0.0
C533 C 0.41298 0.02407 0.20351 0.0
H534 H 0.42268 0.98856 0.88493 0.0
H535 H 0.33251 0.07833 0.92454 0.0
H536 H 0.31398 0.09983 0.86707 0.0
H537 H 0.3245 0.09342 0.80584 0.0
H538 H 0.40807 0.99705 0.76641 0.0
H539 H 0.42831 0.97741 0.82386 0.0
C540 C 0.39915 0.01301 0.8809 0.0
C541 C 0.37944 0.03255 0.90863 0.0
C542 C 0.38756 0.02377 0.84803 0.0
C543 C 0.34797 0.06305 0.90335 0.0
C544 C 0.33757 0.07538 0.87063 0.0
C545 C 0.34726 0.06824 0.80994 0.0
C546 C 0.36538 0.04703 0.78225 0.0
C547 C 0.35735 0.05607 0.84284 0.0
C548 C 0.3938 0.01358 0.78756 0.0
C549 C 0.40545 1.00257 0.82028 0.0
H550 H 0.03215 0.43867 0.8802 0.0
H551 H 0.95609 0.26077 0.91888 0.0
H552 H 0.93729 0.22059 0.86123 0.0
H553 H 0.94109 0.23601 0.80014 0.0
H554 H 0.02278 0.41384 0.76093 0.0
H555 H 0.04134 0.45446 0.81867 0.0
C556 C 1.0113 0.39107 0.87598 0.0
C557 C 0.99486 0.35255 0.90376 0.0
C558 C 1.00192 0.36851 0.84279 0.0
C559 C 0.96901 0.29117 0.89794 0.0
C560 C 0.95821 0.26827 0.86501 0.0
C561 C 0.96297 0.28373 0.80422 0.0
C562 C 0.98006 0.32199 0.77634 0.0
C563 C 0.97426 0.3065 0.8373 0.0
C564 C 1.00932 0.38364 0.78198 0.0
C565 C 0.01966 0.40673 0.81496 0.0
H566 H 0.77642 0.7081 0.80343 0.0
H567 H 0.60776 0.56823 0.7648 0.0
H568 H 0.56851 0.54689 0.82246 0.0
H569 H 0.58313 0.56834 0.88364 0.0
H570 H 0.75204 0.71032 0.92078 0.0
H571 H 0.79054 0.73023 0.86339 0.0
C572 C 0.73101 0.67266 0.80743 0.0
C573 C 0.69512 0.63948 0.7798 0.0
C574 C 0.70902 0.66105 0.8403 0.0
C575 C 0.63623 0.59442 0.7856 0.0
C576 C 0.61395 0.58217 0.81853 0.0
C577 C 0.62849 0.60349 0.87921 0.0
C578 C 0.66482 0.63777 0.90651 0.0
C579 C 0.6501 0.61517 0.84606 0.0
C580 C 0.72319 0.68345 0.90027 0.0
C581 C 0.7452 0.69481 0.86748 0.0
H582 H 0.69847 0.79525 0.47437 0.0
H583 H 0.72235 0.65401 0.43245 0.0
H584 H 0.73327 0.62442 0.48899 0.0
H585 H 0.73522 0.63755 0.54961 0.0
H586 H 0.7102 0.77684 0.59328 0.0
H587 H 0.69962 0.80789 0.53651 0.0
C588 C 0.70649 0.75827 0.47764 0.0
C589 C 0.70975 0.72691 0.44919 0.0
C590 C 0.71189 0.74084 0.51039 0.0
C591 C 0.7195 0.67873 0.45386 0.0
C592 C 0.72569 0.66175 0.48618 0.0
C593 C 0.72746 0.67482 0.54693 0.0
C594 C 0.72366 0.70494 0.57574 0.0
C595 C 0.72168 0.69227 0.51452 0.0
C596 C 0.71302 0.7527 0.57157 0.0
C597 C 0.70731 0.77061 0.53912 0.0
H598 H 0.26886 0.90802 0.47222 0.0
H599 H 0.363 0.08617 0.4332 0.0
H600 H 0.38162 0.12694 0.49065 0.0
H601 H 0.37152 0.1116 0.55158 0.0
H602 H 0.28301 0.9336 0.59092 0.0
H603 H 0.26158 0.89263 0.5334 0.0
C604 C 0.29326 0.95577 0.47636 0.0
C605 C 0.31439 0.99424 0.44873 0.0
C606 C 0.30475 0.97865 0.50931 0.0
C607 C 0.34664 0.05591 0.45424 0.0
C608 C 0.3571 0.07913 0.48697 0.0
C609 C 0.34726 0.06382 0.54752 0.0
C610 C 0.3284 0.02547 0.57521 0.0
C611 C 0.33639 0.04088 0.51463 0.0
C612 C 0.29797 0.96375 0.56981 0.0
C613 C 0.28566 0.94045 0.53704 0.0
H614 H 0.01928 0.37324 0.56662 0.0
H615 H 0.93768 0.18255 0.55769 0.0
H616 H 0.95661 0.19035 0.49728 0.0
H617 H 0.99823 0.25146 0.44659 0.0
H618 H 0.08273 0.44199 0.45565 0.0
H619 H 0.05963 0.43424 0.5158 0.0
C620 C 1.00628 0.33355 0.55149 0.0
C621 C 0.97736 0.27753 0.56673 0.0
C622 C 0.01671 0.33819 0.5165 0.0
C623 C 0.96005 0.22636 0.54662 0.0
C624 C 0.97056 0.23064 0.51198 0.0
C625 C 1.0101 0.29097 0.46168 0.0
C626 C 0.04104 0.34706 0.44681 0.0
C627 C 0.99853 0.28627 0.49654 0.0
C628 C 0.05801 0.39826 0.46668 0.0
C629 C 0.04539 0.39391 0.50109 0.0
loop_
_geom_bond_atom_site_label_1
_geom_bond_atom_site_label_2
_geom_bond_distance
_geom_bond_site_symmetry_2
_ccdc_geom_bond_type
Fe0 O2 1.918 1_556 S
Fe0 O5 1.997 1_455 S
Fe0 O6 2.002 . S
Fe0 O11 1.976 . S
Fe0 O14 1.980 1_556 S
Fe1 O2 1.918 . S
Fe1 O9 1.997 1_454 S
Fe1 O12 1.996 1_554 S
Fe1 O16 1.976 . S
Fe1 O19 2.002 1_455 S
O2 Fe0 1.918 1_554 S
O2 Fe1 1.918 . S
O2 Fe3 1.918 1_455 S
Fe3 O2 1.918 1_655 S
Fe3 O4 2.002 . S
Fe3 O13 1.976 1_655 S
Fe3 O17 1.996 . S
Fe3 O20 1.997 . S
O4 Fe3 2.002 . S
O4 C21 1.295 1_554 S
O5 Fe0 1.997 1_655 S
O5 C21 1.235 . S
O6 Fe0 2.002 . S
O6 C7 1.295 1_455 S
C7 O6 1.295 1_655 S
C7 O9 1.235 . S
C8 O13 1.287 . S
C8 O14 1.281 . S
O9 Fe1 1.997 1_656 S
O9 C7 1.235 . S
C10 O16 1.287 . S
C10 O17 1.255 1_455 S
O11 Fe0 1.976 . S
O11 C18 1.287 . S
O12 Fe1 1.996 1_556 S
O12 C18 1.255 . S
O13 Fe3 1.976 1_455 S
O13 C8 1.287 . S
O14 Fe0 1.980 1_554 S
O14 C8 1.281 . S
C15 O19 1.295 . S
C15 O20 1.235 . S
O16 Fe1 1.976 . S
O16 C10 1.287 . S
O17 Fe3 1.996 . S
O17 C10 1.255 1_655 S
C18 O11 1.287 . S
C18 O12 1.255 . S
O19 Fe1 2.002 1_655 S
O19 C15 1.295 . S
O20 Fe3 1.997 . S
O20 C15 1.235 . S
C21 O4 1.295 1_556 S
C21 O5 1.235 . S
Fe22 O24 1.918 . S
Fe22 O27 1.997 . S
Fe22 O28 2.002 1_554 S
Fe22 O33 1.976 1_554 S
Fe22 O36 1.996 . S
Fe23 O24 1.918 1_556 S
Fe23 O31 1.997 . S
Fe23 O34 1.996 . S
Fe23 O38 1.976 . S
Fe23 O41 2.002 . S
O24 Fe22 1.918 . S
O24 Fe23 1.918 1_554 S
O24 Fe25 1.918 . S
Fe25 O24 1.918 . S
Fe25 O26 2.002 . S
Fe25 O35 1.976 . S
Fe25 O39 1.996 . S
Fe25 O42 1.997 . S
O26 Fe25 2.002 . S
O26 C43 1.295 . S
O27 Fe22 1.997 . S
O27 C43 1.235 . S
O28 Fe22 2.002 1_556 S
O28 C29 1.295 . S
C29 O28 1.295 . S
C29 O31 1.235 . S
C30 O35 1.287 . S
C30 O36 1.255 . S
O31 Fe23 1.997 . S
O31 C29 1.235 . S
C32 O38 1.287 . S
C32 O39 1.255 1_556 S
O33 Fe22 1.976 1_556 S
O33 C40 1.287 . S
O34 Fe23 1.996 . S
O34 C40 1.255 . S
O35 Fe25 1.976 . S
O35 C30 1.287 . S
O36 Fe22 1.996 . S
O36 C30 1.255 . S
C37 O41 1.295 1_554 S
C37 O42 1.235 . S
O38 Fe23 1.976 . S
O38 C32 1.287 . S
O39 Fe25 1.996 . S
O39 C32 1.255 1_554 S
C40 O33 1.287 . S
C40 O34 1.255 . S
O41 Fe23 2.002 . S
O41 C37 1.295 1_556 S
O42 Fe25 1.997 . S
O42 C37 1.235 . S
C43 O26 1.295 . S
C43 O27 1.235 . S
Fe44 O46 1.915 1_566 S
Fe44 O49 1.997 1_565 S
Fe44 O50 2.002 . S
Fe44 O55 1.976 . S
Fe44 O58 1.996 1_556 S
Fe45 O46 1.921 . S
Fe45 O53 1.997 1_554 S
Fe45 O56 1.996 1_544 S
Fe45 O60 1.976 1_545 S
Fe45 O63 2.002 . S
O46 Fe44 1.915 1_544 S
O46 Fe45 1.921 . S
O46 Fe47 1.919 . S
Fe47 O46 1.919 . S
Fe47 O48 2.002 . S
Fe47 O57 1.976 1_545 S
Fe47 O61 1.996 . S
Fe47 O64 1.997 . S
O48 Fe47 2.002 . S
O48 C65 1.295 1_554 S
O49 Fe44 1.997 1_545 S
O49 C65 1.235 . S
O50 Fe44 2.002 . S
O50 C51 1.295 1_565 S
C51 O50 1.295 1_545 S
C51 O53 1.235 . S
C52 O57 1.287 . S
C52 O58 1.255 . S
O53 Fe45 1.997 1_556 S
O53 C51 1.235 . S
C54 O60 1.287 . S
C54 O61 1.255 1_565 S
O55 Fe44 1.976 . S
O55 C62 1.287 . S
O56 Fe45 1.996 1_566 S
O56 C62 1.255 . S
O57 Fe47 1.976 1_565 S
O57 C52 1.287 . S
O58 Fe44 1.996 1_554 S
O58 C52 1.255 . S
C59 O63 1.295 . S
C59 O64 1.235 . S
O60 Fe45 1.976 1_565 S
O60 C54 1.287 . S
O61 Fe47 1.996 . S
O61 C54 1.255 1_545 S
C62 O55 1.287 . S
C62 O56 1.255 . S
O63 Fe45 2.002 . S
O63 C59 1.295 . S
O64 Fe47 1.997 . S
O64 C59 1.235 . S
C65 O48 1.295 1_556 S
C65 O49 1.235 . S
Fe66 O68 1.918 . S
Fe66 O71 1.997 . S
Fe66 O72 2.002 . S
Fe66 O77 1.976 . S
Fe66 O80 1.996 . S
Fe67 O68 1.918 . S
Fe67 O75 1.997 . S
Fe67 O78 1.996 . S
Fe67 O82 1.976 . S
Fe67 O85 2.002 . S
O68 Fe66 1.918 . S
O68 Fe67 1.918 . S
O68 Fe69 1.918 . S
Fe69 O68 1.918 . S
Fe69 O70 2.002 . S
Fe69 O79 1.976 . S
Fe69 O83 1.996 . S
Fe69 O86 1.997 . S
O70 Fe69 2.002 . S
O70 C87 1.295 . S
O71 Fe66 1.997 . S
O71 C87 1.235 . S
O72 Fe66 2.002 . S
O72 C73 1.295 . S
C73 O72 1.295 . S
C73 O75 1.235 . S
C74 O79 1.287 . S
C74 O80 1.255 . S
O75 Fe67 1.997 . S
O75 C73 1.235 . S
C76 O82 1.287 . S
C76 O83 1.255 . S
O77 Fe66 1.976 . S
O77 C84 1.287 . S
O78 Fe67 1.996 . S
O78 C84 1.255 . S
O79 Fe69 1.976 . S
O79 C74 1.287 . S
O80 Fe66 1.996 . S
O80 C74 1.255 . S
C81 O85 1.295 . S
C81 O86 1.235 . S
O82 Fe67 1.976 . S
O82 C76 1.287 . S
O83 Fe69 1.996 . S
O83 C76 1.255 . S
C84 O77 1.287 . S
C84 O78 1.255 . S
O85 Fe67 2.002 . S
O85 C81 1.295 . S
O86 Fe69 1.997 . S
O86 C81 1.235 . S
C87 O70 1.295 . S
C87 O71 1.235 . S
Fe88 O90 1.918 . S
Fe88 O93 1.997 . S
Fe88 O94 2.002 . S
Fe88 O99 1.976 . S
Fe88 O102 1.996 . S
Fe89 O90 1.918 . S
Fe89 O97 1.997 . S
Fe89 O100 1.996 . S
Fe89 O104 1.976 . S
Fe89 O107 2.002 1_565 S
O90 Fe88 1.918 . S
O90 Fe89 1.918 . S
O90 Fe91 1.918 . S
Fe91 O90 1.918 . S
Fe91 O92 2.002 . S
Fe91 O101 1.976 . S
Fe91 O105 1.996 . S
Fe91 O108 1.997 . S
O92 Fe91 2.002 . S
O92 C109 1.295 . S
O93 Fe88 1.997 . S
O93 C109 1.235 . S
O94 Fe88 2.002 . S
O94 C95 1.295 . S
C95 O94 1.295 . S
C95 O97 1.235 . S
C96 O101 1.287 . S
C96 O102 1.255 . S
O97 Fe89 1.997 . S
O97 C95 1.235 . S
C98 O104 1.287 . S
C98 O105 1.255 . S
O99 Fe88 1.976 . S
O99 C106 1.287 . S
O100 Fe89 1.996 . S
O100 C106 1.255 . S
O101 Fe91 1.976 . S
O101 C96 1.287 . S
O102 Fe88 1.996 . S
O102 C96 1.255 . S
C103 O107 1.295 . S
C103 O108 1.235 1_545 S
O104 Fe89 1.976 . S
O104 C98 1.287 . S
O105 Fe91 1.996 . S
O105 C98 1.255 . S
C106 O99 1.287 . S
C106 O100 1.255 . S
O107 Fe89 2.002 1_545 S
O107 C103 1.295 . S
O108 Fe91 1.997 . S
O108 C103 1.235 1_565 S
C109 O92 1.295 . S
C109 O93 1.235 . S
Fe110 O112 1.918 . S
Fe110 O115 1.997 . S
Fe110 O116 2.002 1_455 S
Fe110 O121 1.976 . S
Fe110 O124 1.996 . S
Fe111 O112 1.918 . S
Fe111 O119 1.997 . S
Fe111 O122 1.996 . S
Fe111 O126 1.976 . S
Fe111 O129 2.002 . S
O112 Fe110 1.918 . S
O112 Fe111 1.918 . S
O112 Fe113 1.918 . S
Fe113 O112 1.918 . S
Fe113 O114 2.002 . S
Fe113 O123 1.976 . S
Fe113 O127 1.996 . S
Fe113 O130 1.997 . S
O114 Fe113 2.002 . S
O114 C131 1.295 . S
O115 Fe110 1.997 . S
O115 C131 1.235 . S
O116 Fe110 2.002 1_655 S
O116 C117 1.295 . S
C117 O116 1.295 . S
C117 O119 1.235 1_655 S
C118 O123 1.287 . S
C118 O124 1.255 . S
O119 Fe111 1.997 . S
O119 C117 1.235 1_455 S
C120 O126 1.287 . S
C120 O127 1.255 . S
O121 Fe110 1.976 . S
O121 C128 1.287 . S
O122 Fe111 1.996 . S
O122 C128 1.255 . S
O123 Fe113 1.976 . S
O123 C118 1.287 . S
O124 Fe110 1.996 . S
O124 C118 1.255 . S
C125 O129 1.295 . S
C125 O130 1.235 . S
O126 Fe111 1.976 . S
O126 C120 1.287 . S
O127 Fe113 1.996 . S
O127 C120 1.255 . S
C128 O121 1.287 . S
C128 O122 1.255 . S
O129 Fe111 2.002 . S
O129 C125 1.295 . S
O130 Fe113 1.997 . S
O130 C125 1.235 . S
C131 O114 1.295 . S
C131 O115 1.235 . S
Fe132 O134 1.918 . S
Fe132 O137 1.997 . S
Fe132 O138 2.002 . S
Fe132 O143 1.976 . S
Fe132 O146 1.996 . S
Fe133 O134 1.918 . S
Fe133 O141 1.997 . S
Fe133 O144 1.996 . S
Fe133 O148 1.976 . S
Fe133 O151 2.002 1_545 S
O134 Fe132 1.918 . S
O134 Fe133 1.918 . S
O134 Fe135 1.918 . S
Fe135 O134 1.918 . S
Fe135 O136 2.002 . S
Fe135 O145 1.976 . S
Fe135 O149 1.996 . S
Fe135 O152 1.997 . S
O136 Fe135 2.002 . S
O136 C153 1.295 . S
O137 Fe132 1.997 . S
O137 C153 1.235 . S
O138 Fe132 2.002 . S
O138 C139 1.295 . S
C139 O138 1.295 . S
C139 O141 1.235 . S
C140 O145 1.287 . S
C140 O146 1.255 . S
O141 Fe133 1.997 . S
O141 C139 1.235 . S
C142 O148 1.287 . S
C142 O149 1.255 . S
O143 Fe132 1.976 . S
O143 C150 1.287 . S
O144 Fe133 1.996 . S
O144 C150 1.255 . S
O145 Fe135 1.976 . S
O145 C140 1.287 . S
O146 Fe132 1.996 . S
O146 C140 1.255 . S
C147 O151 1.295 . S
C147 O152 1.235 1_565 S
O148 Fe133 1.976 . S
O148 C142 1.287 . S
O149 Fe135 1.996 . S
O149 C142 1.255 . S
C150 O143 1.287 . S
C150 O144 1.255 . S
O151 Fe133 2.002 1_565 S
O151 C147 1.295 . S
O152 Fe135 1.997 . S
O152 C147 1.235 1_545 S
C153 O136 1.295 . S
C153 O137 1.235 . S
Fe154 O156 1.918 . S
Fe154 O159 1.997 . S
Fe154 O160 2.002 . S
Fe154 O165 1.976 . S
Fe154 O168 1.996 . S
Fe155 O156 1.918 . S
Fe155 O163 1.997 . S
Fe155 O166 1.996 1_655 S
Fe155 O170 1.979 . S
Fe155 O173 2.002 . S
O156 Fe154 1.918 . S
O156 Fe155 1.918 . S
O156 Fe157 1.918 . S
Fe157 O156 1.918 . S
Fe157 O158 2.002 . S
Fe157 O167 1.976 . S
Fe157 O171 1.996 . S
Fe157 O174 1.997 . S
O158 Fe157 2.002 . S
O158 C175 1.295 . S
O159 Fe154 1.997 . S
O159 C175 1.235 . S
O160 Fe154 2.002 . S
O160 C161 1.295 . S
C161 O160 1.295 . S
C161 O163 1.235 . S
C162 O167 1.287 . S
C162 O168 1.255 . S
O163 Fe155 1.997 . S
O163 C161 1.235 . S
C164 O170 1.292 . S
C164 O171 1.255 . S
O165 Fe154 1.976 . S
O165 C172 1.287 1_655 S
O166 Fe155 1.996 1_455 S
O166 C172 1.255 . S
O167 Fe157 1.976 . S
O167 C162 1.287 . S
O168 Fe154 1.996 . S
O168 C162 1.255 . S
C169 O173 1.295 . S
C169 O174 1.235 . S
O170 Fe155 1.979 . S
O170 C164 1.292 . S
O171 Fe157 1.996 . S
O171 C164 1.255 . S
C172 O165 1.287 1_455 S
C172 O166 1.255 . S
O173 Fe155 2.002 . S
O173 C169 1.295 . S
O174 Fe157 1.997 . S
O174 C169 1.235 . S
C175 O158 1.295 . S
C175 O159 1.235 . S
Fe176 O178 1.918 . S
Fe176 O181 1.997 . S
Fe176 O182 2.002 . S
Fe176 O187 1.976 . S
Fe176 O190 1.996 . S
Fe177 O178 1.918 . S
Fe177 O185 1.997 . S
Fe177 O188 1.996 . S
Fe177 O192 1.976 . S
Fe177 O195 2.002 . S
O178 Fe176 1.918 . S
O178 Fe177 1.918 . S
O178 Fe179 1.918 . S
Fe179 O178 1.918 . S
Fe179 O180 2.002 . S
Fe179 O189 1.976 . S
Fe179 O193 1.996 . S
Fe179 O196 1.997 . S
O180 Fe179 2.002 . S
O180 C197 1.295 . S
O181 Fe176 1.997 . S
O181 C197 1.235 . S
O182 Fe176 2.002 . S
O182 C183 1.295 . S
C183 O182 1.295 . S
C183 O185 1.235 . S
C184 O189 1.287 . S
C184 O190 1.255 . S
O185 Fe177 1.997 . S
O185 C183 1.235 . S
C186 O192 1.287 . S
C186 O193 1.255 . S
O187 Fe176 1.976 . S
O187 C194 1.287 . S
O188 Fe177 1.996 . S
O188 C194 1.255 . S
O189 Fe179 1.976 . S
O189 C184 1.287 . S
O190 Fe176 1.996 . S
O190 C184 1.255 . S
C191 O195 1.295 . S
C191 O196 1.235 . S
O192 Fe177 1.976 . S
O192 C186 1.287 . S
O193 Fe179 1.996 . S
O193 C186 1.255 . S
C194 O187 1.287 . S
C194 O188 1.255 . S
O195 Fe177 2.002 . S
O195 C191 1.295 . S
O196 Fe179 1.997 . S
O196 C191 1.235 . S
C197 O180 1.295 . S
C197 O181 1.235 . S
H198 C204 0.930 . S
H199 C207 0.930 . S
H200 C208 0.930 . S
H201 C209 0.930 . S
H202 C212 0.930 . S
H203 C213 0.930 . S
C204 H198 0.930 . S
C204 C205 1.355 . S
C204 C206 1.415 . S
C205 C204 1.355 . S
C205 C207 1.419 . S
C206 C204 1.415 . S
C206 C211 1.425 . S
C206 C213 1.409 1_554 S
C207 H199 0.930 . S
C207 C205 1.419 . S
C207 C208 1.362 . S
C208 H200 0.930 . S
C208 C207 1.362 . S
C208 C211 1.409 . S
C209 H201 0.930 . S
C209 C210 1.355 1_554 S
C209 C211 1.415 . S
C210 C209 1.355 1_556 S
C210 C212 1.419 . S
C211 C206 1.425 . S
C211 C208 1.409 . S
C211 C209 1.415 . S
C212 H202 0.930 . S
C212 C210 1.419 . S
C212 C213 1.362 . S
C213 H203 0.930 . S
C213 C206 1.409 1_556 S
C213 C212 1.362 . S
H214 C220 0.930 1_556 S
H215 C223 0.930 . S
H216 C224 0.930 . S
H217 C225 0.930 . S
H218 C228 0.930 . S
H219 C229 0.930 . S
C220 H214 0.930 1_554 S
C220 C221 1.355 . S
C220 C222 1.415 1_554 S
C221 C220 1.355 . S
C221 C223 1.419 . S
C222 C220 1.415 1_556 S
C222 C227 1.425 1_556 S
C222 C229 1.409 . S
C223 H215 0.930 . S
C223 C221 1.419 . S
C223 C224 1.362 . S
C224 H216 0.930 . S
C224 C223 1.362 . S
C224 C227 1.409 . S
C225 H217 0.930 . S
C225 C226 1.355 1_554 S
C225 C227 1.415 . S
C226 C225 1.355 1_556 S
C226 C228 1.419 . S
C227 C222 1.425 1_554 S
C227 C224 1.409 . S
C227 C225 1.415 . S
C228 H218 0.930 . S
C228 C226 1.419 . S
C228 C229 1.362 . S
C229 H219 0.930 . S
C229 C222 1.409 . S
C229 C228 1.362 . S
H230 C236 0.930 . S
H231 C239 0.930 . S
H232 C240 0.930 . S
H233 C241 0.930 . S
H234 C244 0.925 1_556 S
H235 C245 0.930 . S
C236 H230 0.930 . S
C236 C237 1.355 . S
C236 C238 1.415 . S
C237 C236 1.355 . S
C237 C239 1.419 1_556 S
C238 C236 1.415 . S
C238 C243 1.425 1_556 S
C238 C245 1.409 . S
C239 H231 0.930 . S
C239 C237 1.419 1_554 S
C239 C240 1.362 . S
C240 H232 0.930 . S
C240 C239 1.362 . S
C240 C243 1.409 . S
C241 H233 0.930 . S
C241 C242 1.355 . S
C241 C243 1.415 . S
C242 C241 1.355 . S
C242 C244 1.419 . S
C243 C238 1.425 1_554 S
C243 C240 1.409 . S
C243 C241 1.415 . S
C244 H234 0.925 1_554 S
C244 C242 1.419 . S
C244 C245 1.362 1_554 S
C245 H235 0.930 . S
C245 C238 1.409 . S
C245 C244 1.362 1_556 S
H246 C252 0.930 1_556 S
H247 C255 0.930 . S
H248 C256 0.930 . S
H249 C257 0.930 . S
H250 C260 0.930 . S
H251 C261 0.930 . S
C252 H246 0.930 1_554 S
C252 C253 1.355 . S
C252 C254 1.415 1_554 S
C253 C252 1.355 . S
C253 C255 1.419 . S
C254 C252 1.415 1_556 S
C254 C259 1.425 1_556 S
C254 C261 1.409 . S
C255 H247 0.930 . S
C255 C253 1.419 . S
C255 C256 1.362 . S
C256 H248 0.930 . S
C256 C255 1.362 . S
C256 C259 1.409 . S
C257 H249 0.930 . S
C257 C258 1.355 1_554 S
C257 C259 1.415 . S
C258 C257 1.355 1_556 S
C258 C260 1.419 . S
C259 C254 1.425 1_554 S
C259 C256 1.409 . S
C259 C257 1.415 . S
C260 H250 0.930 . S
C260 C258 1.419 . S
C260 C261 1.362 . S
C261 H251 0.930 . S
C261 C254 1.409 . S
C261 C260 1.362 . S
H262 C268 0.930 . S
H263 C271 0.930 . S
H264 C272 0.930 . S
H265 C273 0.930 . S
H266 C276 0.930 . S
H267 C277 0.922 1_556 S
C268 H262 0.930 . S
C268 C269 1.355 . S
C268 C270 1.415 . S
C269 C268 1.355 . S
C269 C271 1.419 . S
C270 C268 1.415 . S
C270 C275 1.425 1_556 S
C270 C277 1.407 1_556 S
C271 H263 0.930 . S
C271 C269 1.419 . S
C271 C272 1.362 1_556 S
C272 H264 0.930 . S
C272 C271 1.362 1_554 S
C272 C275 1.409 . S
C273 H265 0.930 . S
C273 C274 1.355 . S
C273 C275 1.415 . S
C274 C273 1.355 . S
C274 C276 1.419 . S
C275 C270 1.425 1_554 S
C275 C272 1.409 . S
C275 C273 1.415 . S
C276 H266 0.930 . S
C276 C274 1.419 . S
C276 C277 1.374 . S
C277 H267 0.922 1_554 S
C277 C270 1.407 1_554 S
C277 C276 1.374 . S
H278 C284 0.930 . S
H279 C287 0.930 . S
H280 C288 0.930 . S
H281 C289 0.930 1_556 S
H282 C292 0.930 . S
H283 C293 0.930 . S
C284 H278 0.930 . S
C284 C285 1.355 1_554 S
C284 C286 1.415 . S
C285 C284 1.355 1_556 S
C285 C287 1.419 . S
C286 C284 1.415 . S
C286 C291 1.425 1_554 S
C286 C293 1.409 . S
C287 H279 0.930 . S
C287 C285 1.419 . S
C287 C288 1.362 . S
C288 H280 0.930 . S
C288 C287 1.362 . S
C288 C291 1.409 . S
C289 H281 0.930 1_554 S
C289 C290 1.355 . S
C289 C291 1.415 1_554 S
C290 C289 1.355 . S
C290 C292 1.419 . S
C291 C286 1.425 1_556 S
C291 C288 1.409 . S
C291 C289 1.415 1_556 S
C292 H282 0.930 . S
C292 C290 1.419 . S
C292 C293 1.362 . S
C293 H283 0.930 . S
C293 C286 1.409 . S
C293 C292 1.362 . S
H294 C300 0.930 . S
H295 C303 0.930 . S
H296 C304 0.930 . S
H297 C305 0.930 . S
H298 C308 0.930 . S
H299 C309 0.930 . S
C300 H294 0.930 . S
C300 C301 1.355 . S
C300 C302 1.415 . S
C301 C300 1.355 . S
C301 C303 1.419 . S
C302 C300 1.415 . S
C302 C307 1.425 . S
C302 C309 1.409 . S
C303 H295 0.930 . S
C303 C301 1.419 . S
C303 C304 1.362 . S
C304 H296 0.930 . S
C304 C303 1.362 . S
C304 C307 1.409 . S
C305 H297 0.930 . S
C305 C306 1.355 . S
C305 C307 1.415 1_455 S
C306 C305 1.355 . S
C306 C308 1.419 . S
C307 C302 1.425 . S
C307 C304 1.409 . S
C307 C305 1.415 1_655 S
C308 H298 0.930 . S
C308 C306 1.419 . S
C308 C309 1.362 1_455 S
C309 H299 0.930 . S
C309 C302 1.409 . S
C309 C308 1.362 1_655 S
H310 C316 0.930 . S
H311 C319 0.930 . S
H312 C320 0.930 . S
H313 C321 0.930 . S
H314 C324 0.930 . S
H315 C325 0.930 . S
C316 H310 0.930 . S
C316 C317 1.355 . S
C316 C318 1.415 . S
C317 C316 1.355 . S
C317 C319 1.419 . S
C318 C316 1.415 . S
C318 C323 1.425 . S
C318 C325 1.409 . S
C319 H311 0.930 . S
C319 C317 1.419 . S
C319 C320 1.362 . S
C320 H312 0.930 . S
C320 C319 1.362 . S
C320 C323 1.409 . S
C321 H313 0.930 . S
C321 C322 1.355 . S
C321 C323 1.415 . S
C322 C321 1.355 . S
C322 C324 1.419 . S
C323 C318 1.425 . S
C323 C320 1.409 . S
C323 C321 1.415 . S
C324 H314 0.930 . S
C324 C322 1.419 . S
C324 C325 1.362 . S
C325 H315 0.930 . S
C325 C318 1.409 . S
C325 C324 1.362 . S
H326 C332 0.930 . S
H327 C335 0.930 . S
H328 C336 0.930 . S
H329 C337 0.930 . S
H330 C340 0.930 . S
H331 C341 0.930 . S
C332 H326 0.930 . S
C332 C333 1.355 . S
C332 C334 1.415 . S
C333 C332 1.355 . S
C333 C335 1.419 . S
C334 C332 1.415 . S
C334 C339 1.425 . S
C334 C341 1.409 1_545 S
C335 H327 0.930 . S
C335 C333 1.419 . S
C335 C336 1.362 . S
C336 H328 0.930 . S
C336 C335 1.362 . S
C336 C339 1.409 . S
C337 H329 0.930 . S
C337 C338 1.355 1_545 S
C337 C339 1.415 . S
C338 C337 1.355 1_565 S
C338 C340 1.419 . S
C339 C334 1.425 . S
C339 C336 1.409 . S
C339 C337 1.415 . S
C340 H330 0.930 . S
C340 C338 1.419 . S
C340 C341 1.362 . S
C341 H331 0.930 . S
C341 C334 1.409 1_565 S
C341 C340 1.362 . S
H342 C348 0.930 . S
H343 C351 0.930 . S
H344 C352 0.930 . S
H345 C353 0.930 . S
H346 C356 0.930 . S
H347 C357 0.930 . S
C348 H342 0.930 . S
C348 C349 1.355 . S
C348 C350 1.415 . S
C349 C348 1.355 . S
C349 C351 1.419 . S
C350 C348 1.415 . S
C350 C355 1.425 . S
C350 C357 1.409 . S
C351 H343 0.930 . S
C351 C349 1.419 . S
C351 C352 1.362 . S
C352 H344 0.930 . S
C352 C351 1.362 . S
C352 C355 1.409 . S
C353 H345 0.930 . S
C353 C354 1.355 . S
C353 C355 1.415 . S
C354 C353 1.355 . S
C354 C356 1.419 . S
C355 C350 1.425 . S
C355 C352 1.409 . S
C355 C353 1.415 . S
C356 H346 0.930 . S
C356 C354 1.419 . S
C356 C357 1.362 . S
C357 H347 0.930 . S
C357 C350 1.409 . S
C357 C356 1.362 . S
H358 C364 0.930 . S
H359 C367 0.930 . S
H360 C368 0.930 . S
H361 C369 0.930 . S
H362 C372 0.930 . S
H363 C373 0.930 . S
C364 H358 0.930 . S
C364 C365 1.355 . S
C364 C366 1.415 . S
C365 C364 1.355 . S
C365 C367 1.419 . S
C366 C364 1.415 . S
C366 C371 1.425 . S
C366 C373 1.409 . S
C367 H359 0.930 . S
C367 C365 1.419 . S
C367 C368 1.362 . S
C368 H360 0.930 . S
C368 C367 1.362 . S
C368 C371 1.409 . S
C369 H361 0.930 . S
C369 C370 1.355 . S
C369 C371 1.415 . S
C370 C369 1.355 . S
C370 C372 1.419 . S
C371 C366 1.425 . S
C371 C368 1.409 . S
C371 C369 1.415 . S
C372 H362 0.930 . S
C372 C370 1.419 . S
C372 C373 1.362 . S
C373 H363 0.930 . S
C373 C366 1.409 . S
C373 C372 1.362 . S
H374 C380 0.930 . S
H375 C383 0.930 . S
H376 C384 0.930 . S
H377 C385 0.930 . S
H378 C388 0.930 . S
H379 C389 0.930 . S
C380 H374 0.930 . S
C380 C381 1.355 . S
C380 C382 1.415 . S
C381 C380 1.355 . S
C381 C383 1.419 . S
C382 C380 1.415 . S
C382 C387 1.425 . S
C382 C389 1.409 . S
C383 H375 0.930 . S
C383 C381 1.419 . S
C383 C384 1.362 . S
C384 H376 0.930 . S
C384 C383 1.362 . S
C384 C387 1.409 . S
C385 H377 0.930 . S
C385 C386 1.355 . S
C385 C387 1.415 . S
C386 C385 1.355 . S
C386 C388 1.419 . S
C387 C382 1.425 . S
C387 C384 1.409 . S
C387 C385 1.415 . S
C388 H378 0.930 . S
C388 C386 1.419 . S
C388 C389 1.362 . S
C389 H379 0.930 . S
C389 C382 1.409 . S
C389 C388 1.362 . S
H390 C396 0.930 . S
H391 C399 0.930 . S
H392 C400 0.930 . S
H393 C401 0.930 . S
H394 C404 0.930 . S
H395 C405 0.930 . S
C396 H390 0.930 . S
C396 C397 1.355 . S
C396 C398 1.415 . S
C397 C396 1.355 . S
C397 C399 1.419 . S
C398 C396 1.415 . S
C398 C403 1.425 . S
C398 C405 1.409 . S
C399 H391 0.930 . S
C399 C397 1.419 . S
C399 C400 1.362 . S
C400 H392 0.930 . S
C400 C399 1.362 . S
C400 C403 1.409 . S
C401 H393 0.930 . S
C401 C402 1.355 . S
C401 C403 1.415 . S
C402 C401 1.355 . S
C402 C404 1.419 . S
C403 C398 1.425 . S
C403 C400 1.409 . S
C403 C401 1.415 . S
C404 H394 0.930 . S
C404 C402 1.419 . S
C404 C405 1.362 . S
C405 H395 0.930 . S
C405 C398 1.409 . S
C405 C404 1.362 . S
H406 C412 0.930 . S
H407 C415 0.930 . S
H408 C416 0.930 . S
H409 C417 0.930 . S
H410 C420 0.930 . S
H411 C421 0.930 . S
C412 H406 0.930 . S
C412 C413 1.355 . S
C412 C414 1.415 . S
C413 C412 1.355 . S
C413 C415 1.419 . S
C414 C412 1.415 . S
C414 C419 1.425 . S
C414 C421 1.409 . S
C415 H407 0.930 . S
C415 C413 1.419 . S
C415 C416 1.362 . S
C416 H408 0.930 . S
C416 C415 1.362 . S
C416 C419 1.409 . S
C417 H409 0.930 . S
C417 C418 1.355 . S
C417 C419 1.415 . S
C418 C417 1.355 . S
C418 C420 1.419 . S
C419 C414 1.425 . S
C419 C416 1.409 . S
C419 C417 1.415 . S
C420 H410 0.930 . S
C420 C418 1.419 . S
C420 C421 1.362 . S
C421 H411 0.930 . S
C421 C414 1.409 . S
C421 C420 1.362 . S
H422 C428 0.930 . S
H423 C431 0.930 . S
H424 C432 0.930 . S
H425 C433 0.930 . S
H426 C436 0.930 . S
H427 C437 0.930 . S
C428 H422 0.930 . S
C428 C429 1.355 . S
C428 C430 1.415 . S
C429 C428 1.355 . S
C429 C431 1.419 . S
C430 C428 1.415 . S
C430 C435 1.425 . S
C430 C437 1.409 . S
C431 H423 0.930 . S
C431 C429 1.419 . S
C431 C432 1.362 . S
C432 H424 0.930 . S
C432 C431 1.362 . S
C432 C435 1.409 . S
C433 H425 0.930 . S
C433 C434 1.355 . S
C433 C435 1.415 . S
C434 C433 1.355 . S
C434 C436 1.419 . S
C435 C430 1.425 . S
C435 C432 1.409 . S
C435 C433 1.415 . S
C436 H426 0.930 . S
C436 C434 1.419 . S
C436 C437 1.362 . S
C437 H427 0.930 . S
C437 C430 1.409 . S
C437 C436 1.362 . S
H438 C444 0.930 . S
H439 C447 0.930 . S
H440 C448 0.930 . S
H441 C449 0.930 . S
H442 C452 0.930 . S
H443 C453 0.930 . S
C444 H438 0.930 . S
C444 C445 1.355 . S
C444 C446 1.415 . S
C445 C444 1.355 . S
C445 C447 1.419 . S
C446 C444 1.415 . S
C446 C451 1.425 . S
C446 C453 1.409 . S
C447 H439 0.930 . S
C447 C445 1.419 . S
C447 C448 1.362 . S
C448 H440 0.930 . S
C448 C447 1.362 . S
C448 C451 1.409 . S
C449 H441 0.930 . S
C449 C450 1.355 . S
C449 C451 1.415 1_545 S
C450 C449 1.355 . S
C450 C452 1.419 . S
C451 C446 1.425 . S
C451 C448 1.409 . S
C451 C449 1.415 1_565 S
C452 H442 0.930 . S
C452 C450 1.419 . S
C452 C453 1.362 1_545 S
C453 H443 0.930 . S
C453 C446 1.409 . S
C453 C452 1.362 1_565 S
H454 C460 0.930 . S
H455 C463 0.930 . S
H456 C464 0.930 . S
H457 C465 0.930 . S
H458 C468 0.930 1_545 S
H459 C469 0.930 . S
C460 H454 0.930 . S
C460 C461 1.355 . S
C460 C462 1.415 1_655 S
C461 C460 1.355 . S
C461 C463 1.419 . S
C462 C460 1.415 1_455 S
C462 C467 1.425 . S
C462 C469 1.409 . S
C463 H455 0.930 . S
C463 C461 1.419 . S
C463 C464 1.362 1_655 S
C464 H456 0.930 . S
C464 C463 1.362 1_455 S
C464 C467 1.409 . S
C465 H457 0.930 . S
C465 C466 1.355 . S
C465 C467 1.415 . S
C466 C465 1.355 . S
C466 C468 1.419 . S
C467 C462 1.425 . S
C467 C464 1.409 . S
C467 C465 1.415 . S
C468 H458 0.930 1_565 S
C468 C466 1.419 . S
C468 C469 1.362 . S
C469 H459 0.930 . S
C469 C462 1.409 . S
C469 C468 1.362 . S
H470 C476 0.930 . S
H471 C479 0.930 . S
H472 C480 0.930 . S
H473 C481 0.930 . S
H474 C484 0.930 . S
H475 C485 0.930 . S
C476 H470 0.930 . S
C476 C477 1.355 . S
C476 C478 1.415 . S
C477 C476 1.355 . S
C477 C479 1.419 . S
C478 C476 1.415 . S
C478 C483 1.425 . S
C478 C485 1.409 . S
C479 H471 0.930 . S
C479 C477 1.419 . S
C479 C480 1.362 . S
C480 H472 0.930 . S
C480 C479 1.362 . S
C480 C483 1.409 . S
C481 H473 0.930 . S
C481 C482 1.355 . S
C481 C483 1.415 . S
C482 C481 1.355 . S
C482 C484 1.419 . S
C483 C478 1.425 . S
C483 C480 1.409 . S
C483 C481 1.415 . S
C484 H474 0.930 . S
C484 C482 1.419 . S
C484 C485 1.362 . S
C485 H475 0.930 . S
C485 C478 1.409 . S
C485 C484 1.362 . S
H486 C492 0.930 1_655 S
H487 C495 0.930 . S
H488 C496 0.930 . S
H489 C497 0.930 . S
H490 C500 0.930 . S
H491 C501 0.930 . S
C492 H486 0.930 1_455 S
C492 C493 1.355 . S
C492 C494 1.415 . S
C493 C492 1.355 . S
C493 C495 1.419 . S
C494 C492 1.415 . S
C494 C499 1.425 . S
C494 C501 1.409 1_455 S
C495 H487 0.930 . S
C495 C493 1.419 . S
C495 C496 1.362 . S
C496 H488 0.930 . S
C496 C495 1.362 . S
C496 C499 1.409 . S
C497 H489 0.930 . S
C497 C498 1.355 . S
C497 C499 1.415 . S
C498 C497 1.355 . S
C498 C500 1.419 1_455 S
C499 C494 1.425 . S
C499 C496 1.409 . S
C499 C497 1.415 . S
C500 H490 0.930 . S
C500 C498 1.419 1_655 S
C500 C501 1.362 . S
C501 H491 0.930 . S
C501 C494 1.409 1_655 S
C501 C500 1.362 . S
H502 C508 0.930 . S
H503 C511 0.930 . S
H504 C512 0.930 . S
H505 C513 0.930 . S
H506 C516 0.930 . S
H507 C517 0.930 . S
C508 H502 0.930 . S
C508 C509 1.355 . S
C508 C510 1.415 . S
C509 C508 1.355 . S
C509 C511 1.419 . S
C510 C508 1.415 . S
C510 C515 1.425 . S
C510 C517 1.409 . S
C511 H503 0.930 . S
C511 C509 1.419 . S
C511 C512 1.362 . S
C512 H504 0.930 . S
C512 C511 1.362 . S
C512 C515 1.409 . S
C513 H505 0.930 . S
C513 C514 1.355 . S
C513 C515 1.415 . S
C514 C513 1.355 . S
C514 C516 1.419 . S
C515 C510 1.425 . S
C515 C512 1.409 . S
C515 C513 1.415 . S
C516 H506 0.930 . S
C516 C514 1.419 . S
C516 C517 1.362 . S
C517 H507 0.930 . S
C517 C510 1.409 . S
C517 C516 1.362 . S
H518 C524 0.930 . S
H519 C527 0.930 . S
H520 C528 0.930 . S
H521 C529 0.930 . S
H522 C532 0.930 . S
H523 C533 0.930 . S
C524 H518 0.930 . S
C524 C525 1.355 1_545 S
C524 C526 1.415 1_545 S
C525 C524 1.355 1_565 S
C525 C527 1.419 . S
C526 C524 1.415 1_565 S
C526 C531 1.425 . S
C526 C533 1.409 1_565 S
C527 H519 0.930 . S
C527 C525 1.419 . S
C527 C528 1.362 . S
C528 H520 0.930 . S
C528 C527 1.362 . S
C528 C531 1.409 . S
C529 H521 0.930 . S
C529 C530 1.355 . S
C529 C531 1.415 . S
C530 C529 1.355 . S
C530 C532 1.419 1_565 S
C531 C526 1.425 . S
C531 C528 1.409 . S
C531 C529 1.415 . S
C532 H522 0.930 . S
C532 C530 1.419 1_545 S
C532 C533 1.362 . S
C533 H523 0.930 . S
C533 C526 1.409 1_545 S
C533 C532 1.362 . S
H534 C540 0.930 . S
H535 C543 0.930 . S
H536 C544 0.930 . S
H537 C545 0.930 1_565 S
H538 C548 0.930 . S
H539 C549 0.930 . S
C540 H534 0.930 . S
C540 C541 1.355 . S
C540 C542 1.415 . S
C541 C540 1.355 . S
C541 C543 1.419 1_545 S
C542 C540 1.415 . S
C542 C547 1.425 . S
C542 C549 1.409 . S
C543 H535 0.930 . S
C543 C541 1.419 1_565 S
C543 C544 1.362 . S
C544 H536 0.930 . S
C544 C543 1.362 . S
C544 C547 1.409 1_565 S
C545 H537 0.930 1_545 S
C545 C546 1.355 . S
C545 C547 1.415 . S
C546 C545 1.355 . S
C546 C548 1.419 . S
C547 C542 1.425 . S
C547 C544 1.409 1_545 S
C547 C545 1.415 . S
C548 H538 0.930 . S
C548 C546 1.419 . S
C548 C549 1.362 . S
C549 H539 0.930 . S
C549 C542 1.409 . S
C549 C548 1.362 . S
H550 C556 0.930 1_455 S
H551 C559 0.930 . S
H552 C560 0.930 . S
H553 C561 0.930 . S
H554 C564 0.930 . S
H555 C565 0.930 1_455 S
C556 H550 0.930 1_655 S
C556 C557 1.355 . S
C556 C558 1.415 . S
C557 C556 1.355 . S
C557 C559 1.419 . S
C558 C556 1.415 . S
C558 C563 1.425 . S
C558 C565 1.409 . S
C559 H551 0.930 . S
C559 C557 1.419 . S
C559 C560 1.362 . S
C560 H552 0.930 . S
C560 C559 1.362 . S
C560 C563 1.409 . S
C561 H553 0.930 . S
C561 C562 1.355 . S
C561 C563 1.415 . S
C562 C561 1.355 . S
C562 C564 1.419 . S
C563 C558 1.425 . S
C563 C560 1.409 . S
C563 C561 1.415 . S
C564 H554 0.930 . S
C564 C562 1.419 . S
C564 C565 1.362 . S
C565 H555 0.930 1_655 S
C565 C558 1.409 . S
C565 C564 1.362 . S
H566 C572 0.930 . S
H567 C575 0.930 . S
H568 C576 0.930 . S
H569 C577 0.930 . S
H570 C580 0.930 . S
H571 C581 0.930 . S
C572 H566 0.930 . S
C572 C573 1.355 . S
C572 C574 1.415 . S
C573 C572 1.355 . S
C573 C575 1.419 . S
C574 C572 1.415 . S
C574 C579 1.425 . S
C574 C581 1.409 . S
C575 H567 0.930 . S
C575 C573 1.419 . S
C575 C576 1.362 . S
C576 H568 0.930 . S
C576 C575 1.362 . S
C576 C579 1.409 . S
C577 H569 0.930 . S
C577 C578 1.355 . S
C577 C579 1.415 . S
C578 C577 1.355 . S
C578 C580 1.419 . S
C579 C574 1.425 . S
C579 C576 1.409 . S
C579 C577 1.415 . S
C580 H570 0.930 . S
C580 C578 1.419 . S
C580 C581 1.362 . S
C581 H571 0.930 . S
C581 C574 1.409 . S
C581 C580 1.362 . S
H582 C588 0.930 . S
H583 C591 0.930 . S
H584 C592 0.930 . S
H585 C593 0.930 . S
H586 C596 0.930 . S
H587 C597 0.930 . S
C588 H582 0.930 . S
C588 C589 1.355 . S
C588 C590 1.415 . S
C589 C588 1.355 . S
C589 C591 1.419 . S
C590 C588 1.415 . S
C590 C595 1.425 . S
C590 C597 1.409 . S
C591 H583 0.930 . S
C591 C589 1.419 . S
C591 C592 1.362 . S
C592 H584 0.930 . S
C592 C591 1.362 . S
C592 C595 1.409 . S
C593 H585 0.930 . S
C593 C594 1.355 . S
C593 C595 1.415 . S
C594 C593 1.355 . S
C594 C596 1.419 . S
C595 C590 1.425 . S
C595 C592 1.409 . S
C595 C593 1.415 . S
C596 H586 0.930 . S
C596 C594 1.419 . S
C596 C597 1.362 . S
C597 H587 0.930 . S
C597 C590 1.409 . S
C597 C596 1.362 . S
H598 C604 0.919 1_545 S
H599 C607 0.930 . S
H600 C608 0.930 . S
H601 C609 0.930 . S
H602 C612 0.930 . S
H603 C613 0.930 . S
C604 H598 0.919 1_565 S
C604 C605 1.355 . S
C604 C606 1.415 1_565 S
C605 C604 1.355 . S
C605 C607 1.419 . S
C606 C604 1.415 1_545 S
C606 C611 1.425 . S
C606 C613 1.409 . S
C607 H599 0.930 . S
C607 C605 1.419 . S
C607 C608 1.362 . S
C608 H600 0.930 . S
C608 C607 1.362 . S
C608 C611 1.409 1_565 S
C609 H601 0.930 . S
C609 C610 1.355 . S
C609 C611 1.415 . S
C610 C609 1.355 . S
C610 C612 1.419 . S
C611 C606 1.425 . S
C611 C608 1.409 1_545 S
C611 C609 1.415 . S
C612 H602 0.930 . S
C612 C610 1.419 . S
C612 C613 1.362 . S
C613 H603 0.930 . S
C613 C606 1.409 . S
C613 C612 1.362 . S
H614 C620 0.930 . S
H615 C623 0.930 . S
H616 C624 0.930 . S
H617 C625 0.930 . S
H618 C628 0.930 . S
H619 C629 0.930 . S
C620 H614 0.930 . S
C620 C621 1.355 1_455 S
C620 C622 1.415 . S
C621 C620 1.355 1_655 S
C621 C623 1.419 . S
C622 C620 1.415 . S
C622 C627 1.425 1_455 S
C622 C629 1.409 . S
C623 H615 0.930 . S
C623 C621 1.419 . S
C623 C624 1.362 . S
C624 H616 0.930 . S
C624 C623 1.362 . S
C624 C627 1.409 . S
C625 H617 0.930 . S
C625 C626 1.355 1_655 S
C625 C627 1.415 . S
C626 C625 1.355 1_455 S
C626 C628 1.419 . S
C627 C622 1.425 1_655 S
C627 C624 1.409 . S
C627 C625 1.415 . S
C628 H618 0.930 . S
C628 C626 1.419 . S
C628 C629 1.362 . S
C629 H619 0.930 . S
C629 C622 1.409 . S
C629 C628 1.362 . S
C205 C37 1.412 . S
C210 C18 1.483 . S
C221 C52 1.450 . S
C226 C29 1.510 . S
C237 C62 1.382 . S
C242 C8 1.320 . S
C253 C59 1.479 . S
C258 C32 1.413 . S
C269 C65 1.379 . S
C274 C15 1.484 . S
C285 C21 1.425 . S
C290 C30 1.478 . S
C301 C81 1.511 . S
C306 C109 1.441 . S
C317 C125 1.368 . S
C322 C103 1.472 . S
C333 C117 1.482 . S
C338 C87 1.380 . S
C349 C96 1.342 . S
C354 C118 1.420 . S
C365 C120 1.321 . S
C370 C84 1.400 . S
C381 C106 1.406 . S
C386 C74 1.327 . S
C397 C175 1.415 . S
C402 C150 1.476 . S
C413 C169 1.459 . S
C418 C184 1.357 . S
C429 C194 1.423 . S
C434 C140 1.379 . S
C445 C191 1.446 . S
C450 C162 1.368 . S
C461 C197 1.400 . S
C466 C147 1.502 . S
C477 C153 1.343 . S
C482 C172 1.424 . S
C493 C128 1.290 . S
C498 C10 1.290 . S
C509 C76 1.383 . S
C514 C43 1.363 . S
C525 C54 1.341 . S
C530 C98 1.339 . S
C541 C51 1.315 . S
C546 C142 1.338 . S
C557 C7 1.361 . S
C562 C161 1.348 . S
C573 C186 1.308 . S
C578 C40 1.308 . S
C589 C73 1.350 . S
C594 C183 1.371 . S
C605 C95 1.329 . S
C610 C139 1.355 . S
C621 C164 1.275 . S
C626 C131 1.271 . S
