# Generated by pormake.
# Topology ukj, (4)-cn, num edge types: 1
# Building blocks:
#     Node 0, Type 0, BuildingBlock: KOZSID_clean_sbu_0, # of connection points: 4
#     Node 1, Type 0, BuildingBlock: KOZSID_clean_sbu_0, # of connection points: 4
#     Node 2, Type 0, BuildingBlock: KOZSID_clean_sbu_0, # of connection points: 4
#     Node 3, Type 0, BuildingBlock: KOZSID_clean_sbu_0, # of connection points: 4
#     Node 4, Type 0, BuildingBlock: KOZSID_clean_sbu_0, # of connection points: 4
#     Node 5, Type 0, BuildingBlock: KOZSID_clean_sbu_0, # of connection points: 4
#     Node 6, Type 0, BuildingBlock: KOZSID_clean_sbu_0, # of connection points: 4
#     Node 7, Type 0, BuildingBlock: KOZSID_clean_sbu_0, # of connection points: 4
#     Node 8, Type 0, BuildingBlock: KOZSID_clean_sbu_0, # of connection points: 4
#     Node 9, Type 0, BuildingBlock: KOZSID_clean_sbu_0, # of connection points: 4
#     Node 10, Type 0, BuildingBlock: KOZSID_clean_sbu_0, # of connection points: 4
#     Node 11, Type 0, BuildingBlock: KOZSID_clean_sbu_0, # of connection points: 4
#     Node 12, Type 0, BuildingBlock: KOZSID_clean_sbu_0, # of connection points: 4
#     Node 13, Type 0, BuildingBlock: KOZSID_clean_sbu_0, # of connection points: 4
#     Node 14, Type 0, BuildingBlock: KOZSID_clean_sbu_0, # of connection points: 4
#     Node 15, Type 0, BuildingBlock: KOZSID_clean_sbu_0, # of connection points: 4
#     Node 16, Type 0, BuildingBlock: KOZSID_clean_sbu_0, # of connection points: 4
#     Node 17, Type 0, BuildingBlock: KOZSID_clean_sbu_0, # of connection points: 4
#     Node 18, Type 0, BuildingBlock: KOZSID_clean_sbu_0, # of connection points: 4
#     Node 19, Type 0, BuildingBlock: KOZSID_clean_sbu_0, # of connection points: 4
#     Node 20, Type 0, BuildingBlock: KOZSID_clean_sbu_0, # of connection points: 4
#     Node 21, Type 0, BuildingBlock: KOZSID_clean_sbu_0, # of connection points: 4
#     Node 22, Type 0, BuildingBlock: KOZSID_clean_sbu_0, # of connection points: 4
#     Node 23, Type 0, BuildingBlock: KOZSID_clean_sbu_0, # of connection points: 4
#     Node 24, Type 0, BuildingBlock: KOZSID_clean_sbu_0, # of connection points: 4
#     Node 25, Type 0, BuildingBlock: KOZSID_clean_sbu_0, # of connection points: 4
#     Node 26, Type 0, BuildingBlock: KOZSID_clean_sbu_0, # of connection points: 4
#     Node 27, Type 0, BuildingBlock: KOZSID_clean_sbu_0, # of connection points: 4
#     Node 28, Type 0, BuildingBlock: KOZSID_clean_sbu_0, # of connection points: 4
#     Node 29, Type 0, BuildingBlock: KOZSID_clean_sbu_0, # of connection points: 4
#     Node 30, Type 0, BuildingBlock: KOZSID_clean_sbu_0, # of connection points: 4
#     Node 31, Type 0, BuildingBlock: KOZSID_clean_sbu_0, # of connection points: 4
#     Edge 32, Type (0, 0), BuildingBlock: UVAHIK_clean_linker_0, # of connection points: 2
#     Edge 33, Type (0, 0), BuildingBlock: UVAHIK_clean_linker_0, # of connection points: 2
#     Edge 34, Type (0, 0), BuildingBlock: UVAHIK_clean_linker_0, # of connection points: 2
#     Edge 35, Type (0, 0), BuildingBlock: UVAHIK_clean_linker_0, # of connection points: 2
#     Edge 36, Type (0, 0), BuildingBlock: UVAHIK_clean_linker_0, # of connection points: 2
#     Edge 37, Type (0, 0), BuildingBlock: UVAHIK_clean_linker_0, # of connection points: 2
#     Edge 38, Type (0, 0), BuildingBlock: UVAHIK_clean_linker_0, # of connection points: 2
#     Edge 39, Type (0, 0), BuildingBlock: UVAHIK_clean_linker_0, # of connection points: 2
#     Edge 40, Type (0, 0), BuildingBlock: UVAHIK_clean_linker_0, # of connection points: 2
#     Edge 41, Type (0, 0), BuildingBlock: UVAHIK_clean_linker_0, # of connection points: 2
#     Edge 42, Type (0, 0), BuildingBlock: UVAHIK_clean_linker_0, # of connection points: 2
#     Edge 43, Type (0, 0), BuildingBlock: UVAHIK_clean_linker_0, # of connection points: 2
#     Edge 44, Type (0, 0), BuildingBlock: UVAHIK_clean_linker_0, # of connection points: 2
#     Edge 45, Type (0, 0), BuildingBlock: UVAHIK_clean_linker_0, # of connection points: 2
#     Edge 46, Type (0, 0), BuildingBlock: UVAHIK_clean_linker_0, # of connection points: 2
#     Edge 47, Type (0, 0), BuildingBlock: UVAHIK_clean_linker_0, # of connection points: 2
#     Edge 48, Type (0, 0), BuildingBlock: UVAHIK_clean_linker_0, # of connection points: 2
#     Edge 49, Type (0, 0), BuildingBlock: UVAHIK_clean_linker_0, # of connection points: 2
#     Edge 50, Type (0, 0), BuildingBlock: UVAHIK_clean_linker_0, # of connection points: 2
#     Edge 51, Type (0, 0), BuildingBlock: UVAHIK_clean_linker_0, # of connection points: 2
#     Edge 52, Type (0, 0), BuildingBlock: UVAHIK_clean_linker_0, # of connection points: 2
#     Edge 53, Type (0, 0), BuildingBlock: UVAHIK_clean_linker_0, # of connection points: 2
#     Edge 54, Type (0, 0), BuildingBlock: UVAHIK_clean_linker_0, # of connection points: 2
#     Edge 55, Type (0, 0), BuildingBlock: UVAHIK_clean_linker_0, # of connection points: 2
#     Edge 56, Type (0, 0), BuildingBlock: UVAHIK_clean_linker_0, # of connection points: 2
#     Edge 57, Type (0, 0), BuildingBlock: UVAHIK_clean_linker_0, # of connection points: 2
#     Edge 58, Type (0, 0), BuildingBlock: UVAHIK_clean_linker_0, # of connection points: 2
#     Edge 59, Type (0, 0), BuildingBlock: UVAHIK_clean_linker_0, # of connection points: 2
#     Edge 60, Type (0, 0), BuildingBlock: UVAHIK_clean_linker_0, # of connection points: 2
#     Edge 61, Type (0, 0), BuildingBlock: UVAHIK_clean_linker_0, # of connection points: 2
#     Edge 62, Type (0, 0), BuildingBlock: UVAHIK_clean_linker_0, # of connection points: 2
#     Edge 63, Type (0, 0), BuildingBlock: UVAHIK_clean_linker_0, # of connection points: 2
#     Edge 64, Type (0, 0), BuildingBlock: UVAHIK_clean_linker_0, # of connection points: 2
#     Edge 65, Type (0, 0), BuildingBlock: UVAHIK_clean_linker_0, # of connection points: 2
#     Edge 66, Type (0, 0), BuildingBlock: UVAHIK_clean_linker_0, # of connection points: 2
#     Edge 67, Type (0, 0), BuildingBlock: UVAHIK_clean_linker_0, # of connection points: 2
#     Edge 68, Type (0, 0), BuildingBlock: UVAHIK_clean_linker_0, # of connection points: 2
#     Edge 69, Type (0, 0), BuildingBlock: UVAHIK_clean_linker_0, # of connection points: 2
#     Edge 70, Type (0, 0), BuildingBlock: UVAHIK_clean_linker_0, # of connection points: 2
#     Edge 71, Type (0, 0), BuildingBlock: UVAHIK_clean_linker_0, # of connection points: 2
#     Edge 72, Type (0, 0), BuildingBlock: UVAHIK_clean_linker_0, # of connection points: 2
#     Edge 73, Type (0, 0), BuildingBlock: UVAHIK_clean_linker_0, # of connection points: 2
#     Edge 74, Type (0, 0), BuildingBlock: UVAHIK_clean_linker_0, # of connection points: 2
#     Edge 75, Type (0, 0), BuildingBlock: UVAHIK_clean_linker_0, # of connection points: 2
#     Edge 76, Type (0, 0), BuildingBlock: UVAHIK_clean_linker_0, # of connection points: 2
#     Edge 77, Type (0, 0), BuildingBlock: UVAHIK_clean_linker_0, # of connection points: 2
#     Edge 78, Type (0, 0), BuildingBlock: UVAHIK_clean_linker_0, # of connection points: 2
#     Edge 79, Type (0, 0), BuildingBlock: UVAHIK_clean_linker_0, # of connection points: 2
#     Edge 80, Type (0, 0), BuildingBlock: UVAHIK_clean_linker_0, # of connection points: 2
#     Edge 81, Type (0, 0), BuildingBlock: UVAHIK_clean_linker_0, # of connection points: 2
#     Edge 82, Type (0, 0), BuildingBlock: UVAHIK_clean_linker_0, # of connection points: 2
#     Edge 83, Type (0, 0), BuildingBlock: UVAHIK_clean_linker_0, # of connection points: 2
#     Edge 84, Type (0, 0), BuildingBlock: UVAHIK_clean_linker_0, # of connection points: 2
#     Edge 85, Type (0, 0), BuildingBlock: UVAHIK_clean_linker_0, # of connection points: 2
#     Edge 86, Type (0, 0), BuildingBlock: UVAHIK_clean_linker_0, # of connection points: 2
#     Edge 87, Type (0, 0), BuildingBlock: UVAHIK_clean_linker_0, # of connection points: 2
#     Edge 88, Type (0, 0), BuildingBlock: UVAHIK_clean_linker_0, # of connection points: 2
#     Edge 89, Type (0, 0), BuildingBlock: UVAHIK_clean_linker_0, # of connection points: 2
#     Edge 90, Type (0, 0), BuildingBlock: UVAHIK_clean_linker_0, # of connection points: 2
#     Edge 91, Type (0, 0), BuildingBlock: UVAHIK_clean_linker_0, # of connection points: 2
#     Edge 92, Type (0, 0), BuildingBlock: UVAHIK_clean_linker_0, # of connection points: 2
#     Edge 93, Type (0, 0), BuildingBlock: UVAHIK_clean_linker_0, # of connection points: 2
#     Edge 94, Type (0, 0), BuildingBlock: UVAHIK_clean_linker_0, # of connection points: 2
#     Edge 95, Type (0, 0), BuildingBlock: UVAHIK_clean_linker_0, # of connection points: 2
# Relax obj value: 0.006
# Max RMSD: 0.166
# Mean RMSD: 0.166
data_MOF--net-ukj--node1-KOZSID_clean_sbu_0--edge1-UVAHIK_clean_linker_0
_symmetry_space_group_name_H-M    P1
_symmetry_Int_Tables_number       1
_symmetry_cell_setting            triclinic
loop_
_symmetry_equiv_pos_as_xyz
'x, y, z'
_cell_length_a     55.587332
_cell_length_b     94.130142
_cell_length_c     78.287944
_cell_angle_alpha  90.012419
_cell_angle_beta   89.996987
_cell_angle_gamma 90.001521
loop_
_atom_site_label
_atom_site_type_symbol
_atom_site_fract_x
_atom_site_fract_y
_atom_site_fract_z
_atom_type_partial_charge
C0 C 0.17345 0.34786 0.28523 0.0
C1 C 0.16294 0.36098 0.28855 0.0
C2 C 0.15482 0.36609 0.27334 0.0
C3 C 0.16086 0.35593 0.26161 0.0
N4 N 0.17236 0.34458 0.26836 0.0
Co5 Co 0.18432 0.32751 0.25556 0.0
N6 N 0.17372 0.33565 0.23315 0.0
C7 C 0.16506 0.34886 0.23038 0.0
C8 C 0.15986 0.35163 0.2136 0.0
C9 C 0.16522 0.33937 0.20515 0.0
C10 C 0.17318 0.32976 0.21737 0.0
N11 N 0.19473 0.31005 0.24277 0.0
C12 C 0.19053 0.30616 0.2263 0.0
C13 C 0.19852 0.29246 0.22306 0.0
C14 C 0.20786 0.28745 0.23805 0.0
C15 C 0.20489 0.29829 0.24957 0.0
N16 N 0.19629 0.31982 0.27792 0.0
C17 C 0.20847 0.30753 0.28023 0.0
C18 C 0.21554 0.30532 0.2968 0.0
C19 C 0.20772 0.31699 0.30556 0.0
C20 C 0.19628 0.3257 0.29379 0.0
N21 N 0.15238 0.31821 0.25873 0.0
C22 C 0.10891 0.30245 0.25911 0.0
C23 C 0.12961 0.29742 0.26722 0.0
C24 C 0.15082 0.30536 0.26692 0.0
C25 C 0.11011 0.3159 0.25142 0.0
C26 C 0.13179 0.32363 0.25156 0.0
N27 N 0.21662 0.33657 0.25235 0.0
C28 C 0.26006 0.33426 0.25118 0.0
C29 C 0.26316 0.34898 0.25087 0.0
C30 C 0.24237 0.3574 0.25065 0.0
C31 C 0.21948 0.35104 0.25136 0.0
C32 C 0.23702 0.32837 0.25187 0.0
H33 H 0.2044 0.35807 0.25132 0.0
H34 H 0.23635 0.31709 0.2522 0.0
H35 H 0.16593 0.30061 0.273 0.0
H36 H 0.13169 0.33384 0.24552 0.0
C37 C 0.15868 0.35754 0.24401 0.0
C38 C 0.18542 0.33936 0.29837 0.0
C39 C 0.17828 0.31491 0.21356 0.0
C40 C 0.21138 0.29784 0.26682 0.0
H41 H 0.16188 0.36657 0.3006 0.0
H42 H 0.14643 0.37629 0.271 0.0
H43 H 0.15198 0.36117 0.20829 0.0
H44 H 0.1627 0.33754 0.19162 0.0
H45 H 0.19734 0.28662 0.21118 0.0
H46 H 0.21548 0.27704 0.24035 0.0
H47 H 0.22497 0.29622 0.30194 0.0
H48 H 0.21006 0.31885 0.3191 0.0
H49 H 0.12984 0.28708 0.27328 0.0
H50 H 0.09445 0.32043 0.24526 0.0
H51 H 0.27543 0.32719 0.25086 0.0
H52 H 0.24368 0.36888 0.25037 0.0
C53 C 0.09622 0.90591 0.28445 0.0
C54 C 0.1069 0.89283 0.28772 0.0
C55 C 0.11516 0.8878 0.2725 0.0
C56 C 0.10904 0.89798 0.26081 0.0
N57 N 0.09734 0.90924 0.2676 0.0
Co58 Co 0.08522 0.9263 0.25485 0.0
N59 N 0.09609 0.91829 0.23243 0.0
C60 C 0.10494 0.90515 0.22961 0.0
C61 C 0.11047 0.90251 0.21285 0.0
C62 C 0.10514 0.91481 0.20448 0.0
C63 C 0.0968 0.92429 0.21672 0.0
N64 N 0.07473 0.94378 0.24214 0.0
C65 C 0.07918 0.94779 0.22575 0.0
C66 C 0.07108 0.96146 0.22255 0.0
C67 C 0.06147 0.96636 0.23751 0.0
C68 C 0.06439 0.95547 0.24897 0.0
N69 N 0.07294 0.93384 0.27721 0.0
C70 C 0.06052 0.94604 0.27954 0.0
C71 C 0.0533 0.94815 0.29609 0.0
C72 C 0.06127 0.9365 0.30482 0.0
C73 C 0.07296 0.9279 0.29306 0.0
N74 N 0.11699 0.93577 0.25818 0.0
C75 C 0.1595 0.95235 0.25754 0.0
C76 C 0.13899 0.95692 0.26626 0.0
C77 C 0.11825 0.94857 0.26648 0.0
C78 C 0.1589 0.93875 0.25022 0.0
C79 C 0.13764 0.93063 0.2508 0.0
N80 N 0.05308 0.91712 0.25142 0.0
C81 C 1.00969 0.91929 0.24927 0.0
C82 C 1.00676 0.90457 0.24873 0.0
C83 C 0.0276 0.8962 0.24929 0.0
C84 C 0.05039 0.90263 0.25051 0.0
C85 C 0.03263 0.92525 0.25058 0.0
H86 H 0.06551 0.89564 0.25079 0.0
H87 H 0.03315 0.93652 0.25113 0.0
H88 H 0.10322 0.95299 0.27303 0.0
H89 H 0.13802 0.92041 0.24476 0.0
C90 C 0.11133 0.89644 0.24321 0.0
C91 C 0.0841 0.91432 0.29761 0.0
C92 C 0.0917 0.93915 0.21305 0.0
C93 C 0.05768 0.95579 0.26619 0.0
H94 H 0.10797 0.8872 0.29974 0.0
H95 H 0.12369 0.87765 0.27013 0.0
H96 H 0.11863 0.89306 0.20751 0.0
H97 H 0.108 0.91679 0.19101 0.0
H98 H 0.07235 0.96733 0.2107 0.0
H99 H 0.05371 0.97672 0.23984 0.0
H100 H 0.0437 0.95719 0.30126 0.0
H101 H 0.05889 0.93459 0.31835 0.0
H102 H 0.13871 0.96709 0.27274 0.0
H103 H 0.17441 0.93458 0.24352 0.0
H104 H 0.99424 0.9263 0.24911 0.0
H105 H 0.0264 0.88473 0.24868 0.0
C106 C 0.17426 0.90706 0.97069 0.0
C107 C 0.1622 0.89455 0.96675 0.0
C108 C 0.15288 0.88953 0.98168 0.0
C109 C 0.15953 0.89927 0.99379 0.0
N110 N 0.17236 0.91029 0.98751 0.0
Co111 Co 0.18453 0.92706 1.00072 0.0
N112 N 0.17344 0.91868 0.02288 0.0
C113 C 0.16393 0.90562 0.02523 0.0
C114 C 0.15863 0.90259 0.04193 0.0
C115 C 0.16483 0.91452 0.05077 0.0
C116 C 0.17332 0.92423 0.03885 0.0
N117 N 0.19519 0.94425 0.01389 0.0
C118 C 0.1912 0.94786 0.03048 0.0
C119 C 0.19925 0.9615 0.03398 0.0
C120 C 0.20839 0.96676 0.01906 0.0
C121 C 0.20527 0.95612 0.00731 0.0
N122 N 0.19713 0.9349 0.97858 0.0
C123 C 0.20933 0.94721 0.97653 0.0
C124 C 0.21742 0.94933 0.96018 0.0
C125 C 0.21036 0.93753 0.95131 0.0
C126 C 0.19815 0.92892 0.96278 0.0
N127 N 0.15285 0.93674 0.99751 0.0
C128 C 0.11065 0.95365 0.99816 0.0
C129 C 0.13107 0.95791 0.98911 0.0
C130 C 0.15163 0.94941 0.9889 0.0
C131 C 0.11114 0.94019 0.00581 0.0
C132 C 0.13222 0.93191 0.00523 0.0
N133 N 0.21644 0.91768 0.00398 0.0
C134 C 0.25988 0.9196 0.00522 0.0
C135 C 0.26256 0.90485 0.00547 0.0
C136 C 0.24155 0.89661 0.00565 0.0
C137 C 0.21883 0.90318 0.00493 0.0
C138 C 0.23702 0.92571 0.00451 0.0
H139 H 0.20345 0.89635 0.00489 0.0
H140 H 0.23658 0.937 0.00417 0.0
H141 H 0.16652 0.95362 0.98202 0.0
H142 H 0.13164 0.92182 0.01152 0.0
C143 C 0.15693 0.89739 0.01133 0.0
C144 C 0.18832 0.91502 0.95818 0.0
C145 C 0.17906 0.93893 0.04309 0.0
C146 C 0.21189 0.95678 0.99008 0.0
H147 H 0.16089 0.88937 0.95444 0.0
H148 H 0.1433 0.87965 0.98359 0.0
H149 H 0.15015 0.89312 0.04696 0.0
H150 H 0.16242 0.91612 0.06436 0.0
H151 H 0.19825 0.96714 0.04601 0.0
H152 H 0.21607 0.97719 0.01698 0.0
H153 H 0.22734 0.95835 0.9553 0.0
H154 H 0.21392 0.93546 0.93795 0.0
H155 H 0.1314 0.96796 0.98236 0.0
H156 H 0.09568 0.93625 0.01277 0.0
H157 H 0.27543 0.92653 0.00556 0.0
H158 H 0.24258 0.88512 0.00591 0.0
C159 C 0.09563 0.34741 0.97095 0.0
C160 C 0.10742 0.36 0.96699 0.0
C161 C 0.11659 0.36514 0.98191 0.0
C162 C 0.11013 0.35538 0.99405 0.0
N163 N 0.09759 0.34423 0.98779 0.0
Co164 Co 0.08573 0.32741 1.00101 0.0
N165 N 0.09669 0.33589 0.02316 0.0
C166 C 0.10595 0.34901 0.02551 0.0
C167 C 0.1115 0.35201 0.04218 0.0
C168 C 0.10574 0.33999 0.051 0.0
C169 C 0.09717 0.33029 0.03909 0.0
N170 N 0.07534 0.31017 0.01422 0.0
C171 C 0.07953 0.30659 0.03078 0.0
C172 C 0.07152 0.29296 0.03439 0.0
C173 C 0.06224 0.28766 0.01953 0.0
C174 C 0.06523 0.29828 0.00772 0.0
N175 N 0.07335 0.31941 0.97889 0.0
C176 C 0.06133 0.30703 0.97687 0.0
C177 C 0.05328 0.30484 0.96053 0.0
C178 C 0.06016 0.31665 0.95163 0.0
C179 C 0.07223 0.32536 0.96307 0.0
N180 N 0.11759 0.31794 0.99783 0.0
C181 C 0.16084 0.30196 0.9976 0.0
C182 C 0.14014 0.29705 0.98938 0.0
C183 C 0.11904 0.3051 0.98961 0.0
C184 C 0.15978 0.3154 0.00528 0.0
C185 C 0.13823 0.32324 0.00506 0.0
N186 N 0.05364 0.3366 0.00424 0.0
C187 C 0.01022 0.3345 0.00542 0.0
C188 C 1.00735 0.34924 0.0057 0.0
C189 C 0.02827 0.35757 0.00592 0.0
C190 C 0.05106 0.35109 0.00521 0.0
C191 C 0.03316 0.32849 0.00473 0.0
H192 H 0.06633 0.358 0.00522 0.0
H193 H 0.03373 0.31721 0.00438 0.0
H194 H 0.10395 0.30042 0.98343 0.0
H195 H 0.13854 0.33343 0.01112 0.0
C196 C 0.1127 0.3573 0.01159 0.0
C197 C 0.08169 0.33935 0.95848 0.0
C198 C 0.09178 0.31555 0.04329 0.0
C199 C 0.05867 0.29753 0.99049 0.0
H200 H 0.10862 0.36517 0.95467 0.0
H201 H 0.12595 0.3751 0.9838 0.0
H202 H 0.11995 0.3615 0.04719 0.0
H203 H 0.10852 0.33832 0.06453 0.0
H204 H 0.07263 0.28738 0.04645 0.0
H205 H 0.0546 0.27722 0.0175 0.0
H206 H 0.04343 0.29577 0.95568 0.0
H207 H 0.0565 0.31869 0.93828 0.0
H208 H 0.13983 0.28672 0.98329 0.0
H209 H 0.17547 0.31986 0.0115 0.0
H210 H 0.99475 0.32751 0.00575 0.0
H211 H 0.02711 0.36905 0.00618 0.0
C212 C 0.82097 0.67854 0.71352 0.0
C213 C 0.80882 0.68727 0.70216 0.0
C214 C 0.80147 0.69889 0.71124 0.0
C215 C 0.80944 0.69658 0.72758 0.0
N216 N 0.82178 0.6843 0.72944 0.0
Co217 Co 0.83449 0.67627 0.75142 0.0
N218 N 0.82423 0.69346 0.76478 0.0
C219 C 0.81378 0.7053 0.75842 0.0
C220 C 0.81104 0.71592 0.77027 0.0
C221 C 0.82086 0.71068 0.78498 0.0
C222 C 0.82891 0.69708 0.78127 0.0
N223 N 0.84583 0.66777 0.77345 0.0
C224 C 0.8468 0.67341 0.78935 0.0
C225 C 0.85544 0.66368 0.80119 0.0
C226 C 0.86073 0.65159 0.79235 0.0
C227 C 0.85486 0.65459 0.77574 0.0
N228 N 0.84631 0.65949 0.73803 0.0
C229 C 0.8585 0.64819 0.74425 0.0
C230 C 0.86475 0.63842 0.73206 0.0
C231 C 0.85593 0.64375 0.71713 0.0
C232 C 0.84467 0.65651 0.72112 0.0
N233 N 0.86624 0.68578 0.74804 0.0
C234 C 0.90949 0.70176 0.74757 0.0
C235 C 0.90862 0.6882 0.75497 0.0
C236 C 0.88706 0.68037 0.75487 0.0
C237 C 0.88856 0.7068 0.73977 0.0
C238 C 0.86746 0.69875 0.74011 0.0
N239 N 0.80243 0.66701 0.75488 0.0
C240 C 0.77708 0.64601 0.75671 0.0
C241 C 0.75619 0.65433 0.75753 0.0
C242 C 0.75904 0.66907 0.75726 0.0
C243 C 0.78195 0.67509 0.75597 0.0
C244 C 0.79983 0.6525 0.75552 0.0
H245 H 0.78244 0.68637 0.75564 0.0
H246 H 0.81502 0.64557 0.75502 0.0
H247 H 0.88746 0.67007 0.7607 0.0
H248 H 0.85216 0.70351 0.73427 0.0
C249 C 0.80682 0.70604 0.74127 0.0
C250 C 0.83141 0.66488 0.70858 0.0
C251 C 0.84167 0.68818 0.79358 0.0
C252 C 0.86117 0.64623 0.76177 0.0
H253 H 0.80562 0.6854 0.6887 0.0
H254 H 0.79158 0.70796 0.70647 0.0
H255 H 0.80325 0.72634 0.76835 0.0
H256 H 0.82231 0.71629 0.79701 0.0
H257 H 0.85854 0.66535 0.81469 0.0
H258 H 0.8691 0.64206 0.79729 0.0
H259 H 0.87378 0.62836 0.73391 0.0
H260 H 0.85702 0.6386 0.7048 0.0
H261 H 0.92447 0.68365 0.76087 0.0
H262 H 0.88809 0.71722 0.73392 0.0
H263 H 0.77596 0.63453 0.7571 0.0
H264 H 0.74356 0.67605 0.75762 0.0
C265 C 0.949 0.07493 0.71307 0.0
C266 C 0.96142 0.06627 0.70175 0.0
C267 C 0.96839 0.05453 0.71075 0.0
C268 C 0.96003 0.05672 0.72703 0.0
N269 N 0.94775 0.06902 0.7289 0.0
Co270 Co 0.9348 0.07695 0.75089 0.0
N271 N 0.9454 0.05986 0.76428 0.0
C272 C 0.95563 0.04798 0.75785 0.0
C273 C 0.95872 0.03742 0.76972 0.0
C274 C 0.9494 0.04276 0.78455 0.0
C275 C 0.94129 0.05635 0.78088 0.0
N276 N 0.92333 0.08542 0.77291 0.0
C277 C 0.92312 0.07999 0.78893 0.0
C278 C 0.91443 0.08976 0.80072 0.0
C279 C 0.90821 0.10161 0.79173 0.0
C280 C 0.91369 0.09847 0.77509 0.0
N281 N 0.92269 0.09361 0.73747 0.0
C282 C 0.90967 0.10462 0.74357 0.0
C283 C 0.90312 0.11428 0.73133 0.0
C284 C 0.91271 0.1092 0.71652 0.0
C285 C 0.92482 0.09676 0.72064 0.0
N286 N 0.90322 0.06716 0.74753 0.0
C287 C 0.86105 0.0502 0.74799 0.0
C288 C 0.86137 0.06373 0.7555 0.0
C289 C 0.88244 0.07202 0.75502 0.0
C290 C 0.88165 0.04588 0.7392 0.0
C291 C 0.9022 0.05441 0.73907 0.0
N292 N 0.96659 0.08642 0.75435 0.0
C293 C 0.99148 0.10756 0.75652 0.0
C294 C 0.01252 0.09935 0.75722 0.0
C295 C 1.00997 0.0846 0.75667 0.0
C296 C 0.9872 0.07845 0.75526 0.0
C297 C 0.96886 0.10093 0.75521 0.0
H298 H 0.98688 0.06716 0.75467 0.0
H299 H 0.95345 0.10773 0.75481 0.0
H300 H 0.88171 0.08216 0.76119 0.0
H301 H 0.91723 0.05017 0.73237 0.0
C302 C 0.96247 0.04723 0.74067 0.0
C303 C 0.93916 0.08879 0.7083 0.0
C304 C 0.92901 0.06536 0.79336 0.0
C305 C 0.90682 0.1066 0.76107 0.0
H306 H 0.96518 0.06829 0.68841 0.0
H307 H 0.97844 0.04551 0.70601 0.0
H308 H 0.96651 0.02701 0.76777 0.0
H309 H 0.94835 0.0372 0.79663 0.0
H310 H 0.91193 0.08827 0.81431 0.0
H311 H 0.89962 0.11109 0.79662 0.0
H312 H 0.89342 0.12414 0.7331 0.0
H313 H 0.91155 0.11432 0.70417 0.0
H314 H 0.84578 0.06771 0.76227 0.0
H315 H 0.88213 0.03578 0.73256 0.0
H316 H 0.9924 0.11904 0.75709 0.0
H317 H 0.02559 0.07772 0.7569 0.0
C318 C 0.82149 0.07546 0.04385 0.0
C319 C 0.80938 0.06674 0.05524 0.0
C320 C 0.80234 0.055 0.04626 0.0
C321 C 0.81036 0.05725 0.02992 0.0
N322 N 0.8225 0.06959 0.02798 0.0
Co323 Co 0.83493 0.07764 0.0059 0.0
N324 N 0.82461 0.06043 0.99261 0.0
C325 C 0.81444 0.04853 0.99906 0.0
C326 C 0.81158 0.03792 0.98722 0.0
C327 C 0.82103 0.04322 0.97241 0.0
C328 C 0.82899 0.05684 0.97607 0.0
N329 N 0.84594 0.08617 0.9838 0.0
C330 C 0.84656 0.08058 0.96787 0.0
C331 C 0.85507 0.09032 0.956 0.0
C332 C 0.86068 0.10235 0.96485 0.0
C333 C 0.85509 0.09932 0.9815 0.0
N334 N 0.84678 0.09443 0.01921 0.0
C335 C 0.85925 0.10561 0.01298 0.0
C336 C 0.86577 0.11532 0.02517 0.0
C337 C 0.85674 0.11011 0.04009 0.0
C338 C 0.84496 0.09752 0.03608 0.0
N339 N 0.86677 0.06817 0.0091 0.0
C340 C 0.91001 0.05219 0.00944 0.0
C341 C 0.90899 0.06564 1.00176 0.0
C342 C 0.88744 0.07347 1.00192 0.0
C343 C 0.88927 0.04727 0.01757 0.0
C344 C 0.86817 0.05531 0.01729 0.0
N345 N 0.80284 0.08683 1.00268 0.0
C346 C 0.77739 0.10779 1.00131 0.0
C347 C 0.7565 0.09944 1.00138 0.0
C348 C 0.75942 0.0847 1.00139 0.0
C349 C 0.78238 0.07871 1.002 0.0
C350 C 0.8002 0.10133 1.00193 0.0
H351 H 0.78296 0.06743 1.00214 0.0
H352 H 0.81544 0.10826 1.00206 0.0
H353 H 0.88776 0.08367 0.99588 0.0
H354 H 0.85304 0.05063 0.02341 0.0
C355 C 0.80774 0.04777 0.01626 0.0
C356 C 0.83118 0.08937 0.04856 0.0
C357 C 0.84138 0.06582 0.96364 0.0
C358 C 0.86178 0.10759 0.99545 0.0
H359 H 0.80583 0.06871 0.06862 0.0
H360 H 0.79246 0.04593 0.05106 0.0
H361 H 0.80393 0.02747 0.98919 0.0
H362 H 0.82228 0.03764 0.96036 0.0
H363 H 0.85793 0.08867 0.94246 0.0
H364 H 0.86907 0.11187 0.95988 0.0
H365 H 0.87512 0.12529 0.02331 0.0
H366 H 0.85805 0.11521 0.05244 0.0
H367 H 0.92472 0.07009 0.99559 0.0
H368 H 0.88892 0.03693 0.02365 0.0
H369 H 0.77619 0.11927 1.00124 0.0
H370 H 0.74397 0.0777 1.00093 0.0
C371 C 0.94936 0.67954 0.04412 0.0
C372 C 0.96171 0.68824 0.05543 0.0
C373 C 0.96856 0.7 0.04642 0.0
C374 C 0.96022 0.69778 0.03015 0.0
N375 N 0.94803 0.68545 0.02829 0.0
Co376 Co 0.93527 0.67741 0.0063 0.0
N377 N 0.94593 0.69446 0.99286 0.0
C378 C 0.95602 0.70639 0.99926 0.0
C379 C 0.95915 0.71691 0.98734 0.0
C380 C 0.94999 0.7115 0.97251 0.0
C381 C 0.94193 0.6979 0.97622 0.0
N382 N 0.92401 0.66884 0.98428 0.0
C383 C 0.92391 0.6742 0.96823 0.0
C384 C 0.91528 0.66439 0.95647 0.0
C385 C 0.909 0.65258 0.96551 0.0
C386 C 0.91437 0.65578 0.98215 0.0
N387 N 0.92312 0.66079 0.01976 0.0
C388 C 0.91012 0.64977 0.01369 0.0
C389 C 0.90357 0.64014 0.02596 0.0
C390 C 0.91317 0.64524 0.04076 0.0
C391 C 0.92528 0.65767 0.0366 0.0
N392 N 0.90364 0.68718 0.00947 0.0
C393 C 0.86142 0.70409 0.00886 0.0
C394 C 0.86185 0.69058 1.00133 0.0
C395 C 0.88294 0.6823 1.00189 0.0
C396 C 0.88193 0.70843 0.01773 0.0
C397 C 0.9025 0.69993 0.01794 0.0
N398 N 0.96712 0.66797 1.00307 0.0
C399 C 0.99215 0.64685 1.0016 0.0
C400 C 0.0132 0.65507 1.00174 0.0
C401 C 0.01056 0.66983 1.00185 0.0
C402 C 0.98773 0.67597 1.00247 0.0
C403 C 0.96945 0.65346 1.00226 0.0
H404 H 0.98732 0.68726 1.0027 0.0
H405 H 0.95403 0.64666 1.00235 0.0
H406 H 0.88229 0.67217 0.99571 0.0
H407 H 0.91744 0.70418 0.02472 0.0
C408 C 0.96271 0.70723 0.01646 0.0
C409 C 0.93973 0.66563 0.04887 0.0
C410 C 0.92976 0.68884 0.96374 0.0
C411 C 0.90738 0.64772 0.99619 0.0
H412 H 0.96554 0.68623 0.06876 0.0
H413 H 0.97857 0.70905 0.05114 0.0
H414 H 0.96686 0.72735 0.98927 0.0
H415 H 0.949 0.717 0.96039 0.0
H416 H 0.91286 0.66584 0.94287 0.0
H417 H 0.90042 0.64308 0.96064 0.0
H418 H 0.89391 0.63026 0.02422 0.0
H419 H 0.91204 0.64014 0.05312 0.0
H420 H 0.84632 0.68658 0.9945 0.0
H421 H 0.88233 0.71853 0.02438 0.0
H422 H 0.99315 0.63536 1.00145 0.0
H423 H 0.02615 0.67673 1.00146 0.0
C424 C 0.17379 0.84642 0.78629 0.0
C425 C 0.16233 0.85913 0.79022 0.0
C426 C 0.15334 0.86432 0.77528 0.0
C427 C 0.15968 0.85452 0.76315 0.0
N428 N 0.17208 0.84333 0.76941 0.0
Co429 Co 0.18411 0.82655 0.75612 0.0
N430 N 0.1728 0.83495 0.73402 0.0
C431 C 0.1635 0.84806 0.7317 0.0
C432 C 0.15798 0.85108 0.71503 0.0
C433 C 0.16382 0.83909 0.70619 0.0
C434 C 0.17236 0.82937 0.71808 0.0
N435 N 0.19468 0.80937 0.74286 0.0
C436 C 0.19053 0.80577 0.72629 0.0
C437 C 0.19874 0.79218 0.72269 0.0
C438 C 0.2082 0.78695 0.73752 0.0
C439 C 0.20507 0.79755 0.74933 0.0
N440 N 0.19679 0.81863 0.77818 0.0
C441 C 0.20907 0.80634 0.78016 0.0
C442 C 0.21699 0.80411 0.79654 0.0
C443 C 0.20967 0.8158 0.80551 0.0
C444 C 0.19758 0.82448 0.79406 0.0
N445 N 0.15242 0.81693 0.75946 0.0
C446 C 0.10927 0.80084 0.75994 0.0
C447 C 0.13021 0.79589 0.76781 0.0
C448 C 0.15126 0.80399 0.76747 0.0
C449 C 0.11008 0.81438 0.75246 0.0
C450 C 0.13159 0.82226 0.75255 0.0
N451 N 0.21606 0.83591 0.7527 0.0
C452 C 0.25947 0.83401 0.7505 0.0
C453 C 0.26211 0.84875 0.7498 0.0
C454 C 0.24111 0.85699 0.75038 0.0
C455 C 0.21845 0.85041 0.7517 0.0
C456 C 0.23665 0.8279 0.75192 0.0
H457 H 0.20314 0.85727 0.752 0.0
H458 H 0.23629 0.81663 0.75259 0.0
H459 H 0.16654 0.7993 0.77339 0.0
H460 H 0.13111 0.83252 0.74667 0.0
C461 C 0.15697 0.85641 0.74562 0.0
C462 C 0.18724 0.83819 0.79885 0.0
C463 C 0.17811 0.81468 0.71379 0.0
C464 C 0.21182 0.79685 0.76653 0.0
H465 H 0.16123 0.86433 0.80252 0.0
H466 H 0.14414 0.87433 0.77337 0.0
H467 H 0.14962 0.8606 0.71004 0.0
H468 H 0.16124 0.8375 0.69262 0.0
H469 H 0.19766 0.78656 0.71065 0.0
H470 H 0.21605 0.77656 0.73952 0.0
H471 H 0.22687 0.79506 0.80138 0.0
H472 H 0.21288 0.81775 0.81894 0.0
H473 H 0.13073 0.78549 0.77372 0.0
H474 H 0.09422 0.81887 0.74651 0.0
H475 H 0.27505 0.8271 0.75037 0.0
H476 H 0.24208 0.86846 0.74968 0.0
C477 C 0.09404 0.40691 0.786 0.0
C478 C 0.1061 0.39445 0.79009 0.0
C479 C 0.11523 0.38921 0.7752 0.0
C480 C 0.10847 0.39881 0.76295 0.0
N481 N 0.09577 0.40992 0.76911 0.0
Co482 Co 0.08351 0.42655 0.75568 0.0
N483 N 0.09488 0.41805 0.73366 0.0
C484 C 0.10419 0.40493 0.73143 0.0
C485 C 0.11002 0.40191 0.71481 0.0
C486 C 0.1044 0.41392 0.70592 0.0
C487 C 0.09562 0.42363 0.71773 0.0
N488 N 0.07285 0.44362 0.74228 0.0
C489 C 0.07738 0.44722 0.72577 0.0
C490 C 0.06904 0.46075 0.72202 0.0
C491 C 0.05918 0.46597 0.73673 0.0
C492 C 0.0622 0.45541 0.74861 0.0
N493 N 0.07074 0.43455 0.77767 0.0
C494 C 0.05816 0.44675 0.77949 0.0
C495 C 0.04999 0.44899 0.7958 0.0
C496 C 0.05742 0.43739 0.80489 0.0
C497 C 0.06988 0.42876 0.79358 0.0
N498 N 0.1151 0.43631 0.75893 0.0
C499 C 0.1581 0.45254 0.75936 0.0
C500 C 0.1371 0.45747 0.76719 0.0
C501 C 0.11611 0.44929 0.76686 0.0
C502 C 0.15742 0.43899 0.75193 0.0
C503 C 0.13598 0.43104 0.75203 0.0
N504 N 0.05163 0.41702 0.75237 0.0
C505 C 1.00823 0.41874 0.74969 0.0
C506 C 1.00566 0.40398 0.75001 0.0
C507 C 0.02669 0.39582 0.75125 0.0
C508 C 0.04931 0.40249 0.75224 0.0
C509 C 0.03101 0.42495 0.7509 0.0
H510 H 0.06464 0.39567 0.75301 0.0
H511 H 0.03128 0.43624 0.75086 0.0
H512 H 0.10074 0.45396 0.77272 0.0
H513 H 0.13655 0.42076 0.74617 0.0
C514 C 0.11097 0.39674 0.74543 0.0
C515 C 0.07997 0.41497 0.7984 0.0
C516 C 0.09023 0.43836 0.71347 0.0
C517 C 0.05526 0.45612 0.76577 0.0
H518 H 0.10751 0.38941 0.80248 0.0
H519 H 0.12477 0.3793 0.77341 0.0
H520 H 0.11862 0.39244 0.7099 0.0
H521 H 0.10741 0.41558 0.6924 0.0
H522 H 0.07031 0.46632 0.70996 0.0
H523 H 0.05117 0.47633 0.73863 0.0
H524 H 0.03977 0.45796 0.80052 0.0
H525 H 0.05388 0.43544 0.81828 0.0
H526 H 0.13649 0.46788 0.77306 0.0
H527 H 0.17332 0.43453 0.746 0.0
H528 H 0.9926 0.42558 0.74895 0.0
H529 H 0.02575 0.38433 0.75132 0.0
C530 C 0.17371 0.40622 0.47233 0.0
C531 C 0.16301 0.39314 0.46908 0.0
C532 C 0.15488 0.3881 0.48433 0.0
C533 C 0.1611 0.39828 0.49601 0.0
N534 N 0.17272 0.40955 0.48919 0.0
Co535 Co 0.18494 0.42659 0.50192 0.0
N536 N 0.17442 0.41852 0.52438 0.0
C537 C 0.16563 0.40536 0.52721 0.0
C538 C 0.16053 0.40262 0.54401 0.0
C539 C 0.16606 0.41488 0.55242 0.0
C540 C 0.17402 0.42444 0.54014 0.0
N541 N 0.19558 0.44405 0.51463 0.0
C542 C 0.19143 0.448 0.53109 0.0
C543 C 0.19945 0.46169 0.53425 0.0
C544 C 0.20875 0.46665 0.51922 0.0
C545 C 0.20572 0.45578 0.50776 0.0
N546 N 0.1969 0.43419 0.4795 0.0
C547 C 0.20919 0.44643 0.47712 0.0
C548 C 0.21625 0.44857 0.46054 0.0
C549 C 0.20832 0.43689 0.45184 0.0
C550 C 0.19681 0.42825 0.46366 0.0
N551 N 0.15309 0.43604 0.49885 0.0
C552 C 0.11053 0.4526 0.4997 0.0
C553 C 0.13092 0.45716 0.49083 0.0
C554 C 0.15168 0.44882 0.49052 0.0
C555 C 0.11127 0.43902 0.50708 0.0
C556 C 0.13256 0.43092 0.50641 0.0
N557 N 0.21717 0.41743 0.50504 0.0
C558 C 0.26063 0.41965 0.50599 0.0
C559 C 0.26364 0.40493 0.50625 0.0
C560 C 0.24281 0.39654 0.50659 0.0
C561 C 0.21994 0.40295 0.506 0.0
C562 C 0.23762 0.42559 0.50544 0.0
H563 H 0.2048 0.39596 0.5061 0.0
H564 H 0.23702 0.43686 0.50515 0.0
H565 H 0.16658 0.45324 0.48383 0.0
H566 H 0.13229 0.42072 0.5125 0.0
C567 C 0.15903 0.39669 0.51362 0.0
C568 C 0.18577 0.41463 0.45915 0.0
C569 C 0.17916 0.4393 0.54388 0.0
C570 C 0.21214 0.45616 0.49048 0.0
H571 H 0.16186 0.38752 0.45707 0.0
H572 H 0.1464 0.37795 0.48672 0.0
H573 H 0.15256 0.39312 0.54937 0.0
H574 H 0.1636 0.41675 0.56595 0.0
H575 H 0.19832 0.46756 0.54611 0.0
H576 H 0.21638 0.47705 0.51686 0.0
H577 H 0.22575 0.45763 0.45535 0.0
H578 H 0.21062 0.43498 0.43831 0.0
H579 H 0.13108 0.4673 0.4843 0.0
H580 H 0.09585 0.43486 0.51389 0.0
H581 H 0.27605 0.42669 0.50622 0.0
H582 H 0.24408 0.38506 0.50687 0.0
C583 C 0.09632 0.84816 0.47197 0.0
C584 C 0.10677 0.8613 0.46869 0.0
C585 C 0.11483 0.86642 0.48392 0.0
C586 C 0.10882 0.85623 0.49563 0.0
N587 N 0.09739 0.84487 0.48884 0.0
Co588 Co 0.08551 0.82776 0.5016 0.0
N589 N 0.09609 0.83589 0.52403 0.0
C590 C 0.1047 0.84909 0.52685 0.0
C591 C 0.11014 0.85178 0.54361 0.0
C592 C 0.105 0.83945 0.552 0.0
C593 C 0.09687 0.82991 0.53976 0.0
N594 N 0.07521 0.81026 0.51434 0.0
C595 C 0.07963 0.80631 0.53075 0.0
C596 C 0.07167 0.79262 0.53399 0.0
C597 C 0.0622 0.78763 0.51903 0.0
C598 C 0.06504 0.7985 0.50753 0.0
N599 N 0.07355 0.82008 0.47923 0.0
C600 C 0.06137 0.80779 0.4769 0.0
C601 C 0.05431 0.8056 0.46033 0.0
C602 C 0.06214 0.81727 0.45158 0.0
C603 C 0.07358 0.82598 0.46336 0.0
N604 N 0.11749 0.81851 0.49839 0.0
C605 C 0.16096 0.80276 0.49803 0.0
C606 C 0.1403 0.79776 0.48982 0.0
C607 C 0.11908 0.8057 0.49013 0.0
C608 C 0.15972 0.81617 0.5058 0.0
C609 C 0.13804 0.8239 0.50564 0.0
N610 N 0.05317 0.83677 0.50485 0.0
C611 C 1.00974 0.83439 0.50606 0.0
C612 C 1.00657 0.84911 0.50631 0.0
C613 C 0.02732 0.85756 0.5065 0.0
C614 C 0.05024 0.85124 0.5058 0.0
C615 C 0.03281 0.82853 0.50538 0.0
H616 H 0.06528 0.85829 0.50582 0.0
H617 H 0.03353 0.81726 0.5051 0.0
H618 H 0.104 0.80096 0.48398 0.0
H619 H 0.13811 0.83409 0.51174 0.0
C620 C 0.111 0.85782 0.51324 0.0
C621 C 0.08444 0.83964 0.45881 0.0
C622 C 0.092 0.81503 0.54345 0.0
C623 C 0.05849 0.79808 0.49028 0.0
H624 H 0.10783 0.8669 0.45665 0.0
H625 H 0.12317 0.87662 0.48628 0.0
H626 H 0.11812 0.86128 0.54894 0.0
H627 H 0.10786 0.83751 0.56547 0.0
H628 H 0.07296 0.78678 0.54587 0.0
H629 H 0.05458 0.77722 0.51672 0.0
H630 H 0.0449 0.79649 0.45517 0.0
H631 H 0.05983 0.81913 0.43804 0.0
H632 H 0.14012 0.78745 0.48368 0.0
H633 H 0.17535 0.82066 0.51204 0.0
H634 H 0.9944 0.82729 0.50641 0.0
H635 H 0.02595 0.86904 0.50674 0.0
C636 C 0.82181 0.17944 0.21308 0.0
C637 C 0.8097 0.18819 0.20171 0.0
C638 C 0.80241 0.19983 0.21078 0.0
C639 C 0.81037 0.19752 0.22713 0.0
N640 N 0.82266 0.18521 0.229 0.0
Co641 Co 0.83527 0.17714 0.25099 0.0
N642 N 0.82492 0.1943 0.26437 0.0
C643 C 0.81459 0.20618 0.25801 0.0
C644 C 0.81172 0.21676 0.26988 0.0
C645 C 0.82134 0.21146 0.28464 0.0
C646 C 0.8294 0.19787 0.2809 0.0
N647 N 0.84648 0.16859 0.27303 0.0
C648 C 0.84724 0.17417 0.28897 0.0
C649 C 0.85585 0.16442 0.30079 0.0
C650 C 0.86134 0.15239 0.29191 0.0
C651 C 0.85561 0.15543 0.27528 0.0
N652 N 0.84715 0.16039 0.23759 0.0
C653 C 0.85941 0.14912 0.24378 0.0
C654 C 0.86569 0.13937 0.23158 0.0
C655 C 0.85681 0.14468 0.21667 0.0
C656 C 0.84548 0.15741 0.22068 0.0
N657 N 0.86703 0.18668 0.24772 0.0
C658 C 0.91024 0.20269 0.24726 0.0
C659 C 0.90935 0.18918 0.2548 0.0
C660 C 0.88781 0.18133 0.2547 0.0
C661 C 0.88937 0.20766 0.23933 0.0
C662 C 0.86829 0.1996 0.23967 0.0
N663 N 0.80321 0.16787 0.25429 0.0
C664 C 0.77782 0.14688 0.25565 0.0
C665 C 0.7569 0.15521 0.2557 0.0
C666 C 0.75977 0.16994 0.25573 0.0
C667 C 0.78271 0.17596 0.25508 0.0
C668 C 0.80061 0.15337 0.25498 0.0
H669 H 0.78324 0.18725 0.25501 0.0
H670 H 0.81585 0.14645 0.25477 0.0
H671 H 0.8882 0.17108 0.26062 0.0
H672 H 0.85304 0.20431 0.23372 0.0
C673 C 0.80773 0.20696 0.24083 0.0
C674 C 0.83213 0.16575 0.20817 0.0
C675 C 0.84196 0.18891 0.29326 0.0
C676 C 0.86205 0.14713 0.2613 0.0
H677 H 0.80646 0.18631 0.18827 0.0
H678 H 0.79254 0.20891 0.20601 0.0
H679 H 0.80395 0.22718 0.26797 0.0
H680 H 0.82264 0.21702 0.2967 0.0
H681 H 0.8588 0.16604 0.31432 0.0
H682 H 0.86973 0.14285 0.29683 0.0
H683 H 0.87478 0.12931 0.23342 0.0
H684 H 0.8579 0.13954 0.20433 0.0
H685 H 0.92517 0.1847 0.26082 0.0
H686 H 0.88892 0.21804 0.23338 0.0
H687 H 0.77666 0.1354 0.25569 0.0
H688 H 0.7443 0.17693 0.25627 0.0
C689 C 0.94811 0.57541 0.21313 0.0
C690 C 0.96034 0.56668 0.2018 0.0
C691 C 0.96707 0.55487 0.21077 0.0
C692 C 0.95877 0.55709 0.22705 0.0
N693 N 0.94673 0.56948 0.22895 0.0
Co694 Co 0.93399 0.5775 0.25095 0.0
N695 N 0.94418 0.5603 0.26429 0.0
C696 C 0.95436 0.54839 0.25789 0.0
C697 C 0.9572 0.5378 0.26975 0.0
C698 C 0.94773 0.54314 0.28454 0.0
C699 C 0.93978 0.55675 0.28084 0.0
N700 N 0.92267 0.58602 0.27299 0.0
C701 C 0.92201 0.58047 0.28894 0.0
C702 C 0.9133 0.59021 0.30075 0.0
C703 C 0.90763 0.60219 0.29185 0.0
C704 C 0.91337 0.59915 0.27523 0.0
N705 N 0.92233 0.59431 0.23759 0.0
C706 C 0.90966 0.60545 0.24372 0.0
C707 C 0.9034 0.61519 0.23151 0.0
C708 C 0.91283 0.61004 0.21668 0.0
C709 C 0.92456 0.59746 0.22077 0.0
N710 N 0.90218 0.56803 0.24753 0.0
C711 C 0.85897 0.55201 0.24708 0.0
C712 C 0.8599 0.56547 0.25473 0.0
C713 C 0.88144 0.57332 0.25462 0.0
C714 C 0.87977 0.5471 0.23899 0.0
C715 C 0.90086 0.55517 0.23932 0.0
N716 N 0.96602 0.58671 0.25446 0.0
C717 C 0.9913 0.60767 0.25675 0.0
C718 C 0.01219 0.59934 0.25734 0.0
C719 C 1.00937 0.58461 0.25669 0.0
C720 C 0.98648 0.5786 0.25528 0.0
C721 C 0.96856 0.6012 0.25544 0.0
H722 H 0.98596 0.56733 0.25463 0.0
H723 H 0.9533 0.60811 0.25512 0.0
H724 H 0.88103 0.58352 0.26065 0.0
H725 H 0.91603 0.5505 0.23323 0.0
C726 C 0.96119 0.54761 0.24071 0.0
C727 C 0.93871 0.58939 0.20842 0.0
C728 C 0.92739 0.56575 0.29324 0.0
C729 C 0.90683 0.60741 0.26123 0.0
H730 H 0.96419 0.56869 0.18847 0.0
H731 H 0.97698 0.5458 0.20602 0.0
H732 H 0.96487 0.52735 0.26781 0.0
H733 H 0.94646 0.53758 0.29661 0.0
H734 H 0.91039 0.58859 0.31429 0.0
H735 H 0.89913 0.6117 0.29677 0.0
H736 H 0.894 0.62515 0.2333 0.0
H737 H 0.91182 0.61519 0.20434 0.0
H738 H 0.84414 0.56992 0.26084 0.0
H739 H 0.88018 0.53676 0.23293 0.0
H740 H 0.99242 0.61915 0.25741 0.0
H741 H 0.02487 0.57763 0.25685 0.0
C742 C 0.82033 0.57495 0.54393 0.0
C743 C 0.80789 0.56631 0.55525 0.0
C744 C 0.80078 0.5546 0.54623 0.0
C745 C 0.80909 0.55679 0.52995 0.0
N746 N 0.82146 0.56906 0.52808 0.0
Co747 Co 0.83439 0.57699 0.50609 0.0
N748 N 0.82369 0.55992 0.49269 0.0
C749 C 0.81336 0.54807 0.4991 0.0
C750 C 0.81022 0.53752 0.48723 0.0
C751 C 0.81961 0.54283 0.47241 0.0
C752 C 0.8278 0.5564 0.47609 0.0
N753 N 0.84586 0.58546 0.48407 0.0
C754 C 0.84608 0.58002 0.46805 0.0
C755 C 0.85478 0.58978 0.45626 0.0
C756 C 0.86099 0.60163 0.46525 0.0
C757 C 0.85551 0.5985 0.48189 0.0
N758 N 0.8466 0.59363 0.51951 0.0
C759 C 0.8596 0.60464 0.51341 0.0
C760 C 0.86626 0.61427 0.52565 0.0
C761 C 0.85675 0.60918 0.54048 0.0
C762 C 0.84457 0.59675 0.53636 0.0
N763 N 0.86593 0.56716 0.5094 0.0
C764 C 0.90812 0.55021 0.50895 0.0
C765 C 0.90783 0.56378 0.50154 0.0
C766 C 0.88675 0.57206 0.50202 0.0
C767 C 0.88744 0.54583 0.51761 0.0
C768 C 0.86689 0.55435 0.51774 0.0
N769 N 0.80261 0.58651 0.50268 0.0
C770 C 0.7778 0.60769 0.50056 0.0
C771 C 0.75672 0.59952 0.49984 0.0
C772 C 0.75922 0.58477 0.50037 0.0
C773 C 0.78196 0.57858 0.50176 0.0
C774 C 0.8004 0.60103 0.50184 0.0
H775 H 0.78223 0.56729 0.50232 0.0
H776 H 0.81584 0.60781 0.50225 0.0
H777 H 0.8875 0.58224 0.49594 0.0
H778 H 0.8518 0.55008 0.52433 0.0
C779 C 0.80653 0.54732 0.51628 0.0
C780 C 0.83028 0.58878 0.54871 0.0
C781 C 0.84018 0.56538 0.46363 0.0
C782 C 0.8624 0.60663 0.49591 0.0
H783 H 0.80418 0.56832 0.5686 0.0
H784 H 0.79068 0.5456 0.55097 0.0
H785 H 0.80237 0.52712 0.48917 0.0
H786 H 0.82067 0.53726 0.46033 0.0
H787 H 0.85727 0.58828 0.44267 0.0
H788 H 0.86959 0.61111 0.46035 0.0
H789 H 0.87598 0.62413 0.52388 0.0
H790 H 0.85801 0.61427 0.55285 0.0
H791 H 0.92347 0.56781 0.49488 0.0
H792 H 0.88691 0.5357 0.52415 0.0
H793 H 0.77693 0.61917 0.5 0.0
H794 H 0.74357 0.57791 0.50013 0.0
C795 C 0.94911 0.17892 0.54387 0.0
C796 C 0.96144 0.18756 0.55525 0.0
C797 C 0.96877 0.19921 0.54624 0.0
C798 C 0.96063 0.19701 0.52991 0.0
N799 N 0.94819 0.18477 0.528 0.0
Co800 Co 0.93524 0.17689 0.506 0.0
N801 N 0.94586 0.19401 0.49267 0.0
C802 C 0.95623 0.20584 0.49912 0.0
C803 C 0.95927 0.21644 0.4873 0.0
C804 C 0.94976 0.21119 0.47249 0.0
C805 C 0.94161 0.1976 0.47611 0.0
N806 N 0.92376 0.16847 0.48395 0.0
C807 C 0.92336 0.174 0.46798 0.0
C808 C 0.91471 0.16426 0.45614 0.0
C809 C 0.90874 0.15233 0.46505 0.0
C810 C 0.91431 0.15539 0.4817 0.0
N811 N 0.92305 0.1602 0.51938 0.0
C812 C 0.91042 0.14907 0.51318 0.0
C813 C 0.90403 0.13932 0.52534 0.0
C814 C 0.91322 0.14448 0.54024 0.0
C815 C 0.92484 0.15712 0.53626 0.0
N816 N 0.90369 0.18667 0.50938 0.0
C817 C 0.86154 0.20361 0.50881 0.0
C818 C 0.86182 0.19001 0.50148 0.0
C819 C 0.88288 0.18172 0.50203 0.0
C820 C 0.88219 0.20801 0.5175 0.0
C821 C 0.90274 0.19949 0.51768 0.0
N822 N 0.96706 0.16741 0.50253 0.0
C823 C 0.99199 0.14627 0.50044 0.0
C824 C 0.01302 0.15448 0.49966 0.0
C825 C 0.01044 0.16923 0.50013 0.0
C826 C 0.98766 0.17538 0.50153 0.0
C827 C 0.96936 0.1529 0.50174 0.0
H828 H 0.98735 0.18666 0.50202 0.0
H829 H 0.954 0.14607 0.5022 0.0
H830 H 0.88216 0.17151 0.49601 0.0
H831 H 0.91784 0.20378 0.52426 0.0
C832 C 0.96316 0.20652 0.51629 0.0
C833 C 0.93855 0.16529 0.54875 0.0
C834 C 0.92913 0.18867 0.46364 0.0
C835 C 0.90766 0.14714 0.49566 0.0
H836 H 0.96475 0.18561 0.56867 0.0
H837 H 0.97876 0.20824 0.55103 0.0
H838 H 0.96712 0.22683 0.48928 0.0
H839 H 0.94861 0.21681 0.46046 0.0
H840 H 0.91212 0.16582 0.44257 0.0
H841 H 0.90027 0.14283 0.4601 0.0
H842 H 0.89469 0.12934 0.52348 0.0
H843 H 0.91217 0.13928 0.55255 0.0
H844 H 0.84619 0.18597 0.49481 0.0
H845 H 0.88271 0.21817 0.524 0.0
H846 H 0.99293 0.13479 0.49992 0.0
H847 H 0.02604 0.17612 0.49984 0.0
C848 C 0.67363 0.34942 0.78418 0.0
C849 C 0.66226 0.3622 0.78791 0.0
C850 C 0.65048 0.3663 0.77341 0.0
C851 C 0.65544 0.35593 0.76163 0.0
N852 N 0.66966 0.34553 0.76775 0.0
Co853 Co 0.68182 0.32885 0.75472 0.0
N854 N 0.67369 0.33787 0.73239 0.0
C855 C 0.65976 0.34945 0.7302 0.0
C856 C 0.65718 0.35336 0.71345 0.0
C857 C 0.66988 0.34348 0.7044 0.0
C858 C 0.67948 0.334 0.71619 0.0
N859 N 0.69357 0.312 0.7417 0.0
C860 C 0.69652 0.31001 0.72462 0.0
C861 C 0.70363 0.29619 0.72108 0.0
C862 C 0.7046 0.28918 0.73639 0.0
C863 C 0.6981 0.29908 0.7484 0.0
N864 N 0.69016 0.32007 0.77711 0.0
C865 C 0.69484 0.30624 0.77987 0.0
C866 C 0.70009 0.30329 0.79664 0.0
C867 C 0.69856 0.31608 0.80498 0.0
C868 C 0.69247 0.32613 0.79277 0.0
N869 N 0.64965 0.31996 0.75573 0.0
C870 C 0.60884 0.30226 0.75766 0.0
C871 C 0.61733 0.30948 0.77217 0.0
C872 C 0.63769 0.31832 0.77092 0.0
C873 C 0.62012 0.30504 0.74203 0.0
C874 C 0.64021 0.3139 0.74134 0.0
N875 N 0.71418 0.33734 0.75378 0.0
C876 C 0.75715 0.33461 0.7568 0.0
C877 C 0.76097 0.34903 0.75316 0.0
C878 C 0.74064 0.35743 0.74966 0.0
C879 C 0.71749 0.35141 0.75003 0.0
C880 C 0.73384 0.32905 0.75709 0.0
H881 H 0.70229 0.35816 0.74738 0.0
H882 H 0.73181 0.31796 0.76007 0.0
H883 H 0.64433 0.32333 0.78238 0.0
H884 H 0.64863 0.31528 0.72917 0.0
C885 C 0.65112 0.35706 0.74417 0.0
C886 C 0.68721 0.34106 0.79671 0.0
C887 C 0.68986 0.32024 0.71125 0.0
C888 C 0.69776 0.29694 0.7661 0.0
H889 H 0.66262 0.36808 0.79978 0.0
H890 H 0.64059 0.37607 0.77143 0.0
H891 H 0.64725 0.36232 0.70842 0.0
H892 H 0.67098 0.34298 0.69062 0.0
H893 H 0.70698 0.29155 0.70865 0.0
H894 H 0.70943 0.27818 0.73849 0.0
H895 H 0.70524 0.29317 0.80207 0.0
H896 H 0.70143 0.31781 0.8185 0.0
H897 H 0.60902 0.30783 0.78452 0.0
H898 H 0.61381 0.30011 0.73035 0.0
H899 H 0.7721 0.32753 0.75925 0.0
H900 H 0.74248 0.36865 0.74692 0.0
C901 C 0.59574 0.9061 0.78496 0.0
C902 C 0.60647 0.89304 0.78828 0.0
C903 C 0.61466 0.88796 0.77306 0.0
C904 C 0.60845 0.89809 0.76133 0.0
N905 N 0.59677 0.90937 0.76808 0.0
Co906 Co 0.58455 0.92637 0.75527 0.0
N907 N 0.5952 0.91825 0.73286 0.0
C908 C 0.604 0.90508 0.73009 0.0
C909 C 0.60918 0.9023 0.71331 0.0
C910 C 0.60367 0.91453 0.70485 0.0
C911 C 0.59565 0.92413 0.71707 0.0
N912 N 0.57393 0.94378 0.74247 0.0
C913 C 0.57816 0.94769 0.72601 0.0
C914 C 0.57013 0.96138 0.7228 0.0
C915 C 0.56074 0.96637 0.73779 0.0
C916 C 0.56374 0.95552 0.74929 0.0
N917 N 0.57247 0.93401 0.77763 0.0
C918 C 0.56012 0.94624 0.77993 0.0
C919 C 0.553 0.94842 0.79649 0.0
C920 C 0.56095 0.93679 0.80526 0.0
C921 C 0.57254 0.92813 0.7935 0.0
N922 N 0.61636 0.93585 0.75838 0.0
C923 C 0.65887 0.95245 0.75755 0.0
C924 C 0.63845 0.957 0.7664 0.0
C925 C 0.61772 0.94865 0.7667 0.0
C926 C 0.65819 0.93886 0.75018 0.0
C927 C 0.63693 0.93074 0.75085 0.0
N928 N 0.55236 0.91717 0.7521 0.0
C929 C 0.50891 0.91935 0.75089 0.0
C930 C 0.50593 0.90461 0.75077 0.0
C931 C 0.52679 0.89624 0.75063 0.0
C932 C 0.54963 0.90268 0.75127 0.0
C933 C 0.5319 0.92531 0.75151 0.0
H934 H 0.56478 0.8957 0.75131 0.0
H935 H 0.53248 0.93658 0.75171 0.0
H936 H 0.60278 0.95305 0.77335 0.0
H937 H 0.63725 0.92053 0.74478 0.0
C938 C 0.61057 0.89646 0.74373 0.0
C939 C 0.58361 0.91453 0.79809 0.0
C940 C 0.5905 0.93898 0.71328 0.0
C941 C 0.55721 0.95593 0.76654 0.0
H942 H 0.6076 0.88746 0.80032 0.0
H943 H 0.62318 0.87781 0.77072 0.0
H944 H 0.61717 0.89279 0.708 0.0
H945 H 0.60617 0.91637 0.69132 0.0
H946 H 0.57131 0.96723 0.71093 0.0
H947 H 0.55308 0.97676 0.7401 0.0
H948 H 0.54346 0.95749 0.80163 0.0
H949 H 0.55864 0.93493 0.8188 0.0
H950 H 0.63825 0.96715 0.77292 0.0
H951 H 0.67363 0.93471 0.74339 0.0
H952 H 0.49349 0.92637 0.75049 0.0
H953 H 0.52556 0.88476 0.75047 0.0
C954 C 0.67485 0.90706 0.47094 0.0
C955 C 0.66298 0.89452 0.46689 0.0
C956 C 0.65362 0.8894 0.48176 0.0
C957 C 0.66005 0.89912 0.49395 0.0
N958 N 0.67277 0.91023 0.48777 0.0
Co959 Co 0.68468 0.927 0.50109 0.0
N960 N 0.67332 0.91856 0.52316 0.0
C961 C 0.66388 0.90547 0.52543 0.0
C962 C 0.6581 0.90249 0.54207 0.0
C963 C 0.6639 0.91448 0.55093 0.0
C964 C 0.67272 0.92415 0.53909 0.0
N965 N 0.69514 0.94418 0.51439 0.0
C966 C 0.69081 0.94777 0.53093 0.0
C967 C 0.69898 0.96135 0.53461 0.0
C968 C 0.70852 0.96661 0.51981 0.0
C969 C 0.7055 0.95602 0.50796 0.0
N970 N 0.69741 0.93495 0.47905 0.0
C971 C 0.70959 0.94729 0.47711 0.0
C972 C 0.71779 0.94948 0.4608 0.0
C973 C 0.71082 0.93771 0.45184 0.0
C974 C 0.69857 0.92903 0.46322 0.0
N975 N 0.65297 0.9366 0.49772 0.0
C976 C 0.60988 0.95274 0.49729 0.0
C977 C 0.63076 0.95763 0.48928 0.0
C978 C 0.65178 0.9495 0.4896 0.0
C979 C 0.61069 0.93925 0.50486 0.0
C980 C 0.63216 0.93134 0.50474 0.0
N981 N 0.71661 0.91766 0.50455 0.0
C982 C 0.76002 0.91956 0.5067 0.0
C983 C 0.76263 0.90481 0.50744 0.0
C984 C 0.74162 0.89658 0.50692 0.0
C985 C 0.71897 0.90317 0.5056 0.0
C986 C 0.7372 0.92567 0.50528 0.0
H987 H 0.70362 0.89632 0.50535 0.0
H988 H 0.73683 0.93694 0.50457 0.0
H989 H 0.66702 0.95415 0.48358 0.0
H990 H 0.63165 0.92112 0.5107 0.0
C991 C 0.65723 0.8972 0.51147 0.0
C992 C 0.68895 0.9151 0.45853 0.0
C993 C 0.67829 0.93886 0.54335 0.0
C994 C 0.71225 0.95676 0.49076 0.0
H995 H 0.66184 0.88937 0.45455 0.0
H996 H 0.64412 0.87947 0.48358 0.0
H997 H 0.64949 0.89303 0.54701 0.0
H998 H 0.66099 0.91615 0.56446 0.0
H999 H 0.69781 0.96692 0.54667 0.0
H1000 H 0.71634 0.97702 0.51785 0.0
H1001 H 0.72777 0.95851 0.45602 0.0
H1002 H 0.71452 0.93569 0.43849 0.0
H1003 H 0.63127 0.968 0.48329 0.0
H1004 H 0.59486 0.93481 0.51091 0.0
H1005 H 0.77561 0.92646 0.50679 0.0
H1006 H 0.74258 0.88511 0.50766 0.0
C1007 C 0.59546 0.34775 0.46956 0.0
C1008 C 0.60722 0.3602 0.46497 0.0
C1009 C 0.61689 0.36567 0.47956 0.0
C1010 C 0.61073 0.35623 0.49214 0.0
N1011 N 0.59791 0.34498 0.48646 0.0
Co1012 Co 0.58651 0.32848 0.50044 0.0
N1013 N 0.59813 0.33749 0.52207 0.0
C1014 C 0.60705 0.35075 0.52385 0.0
C1015 C 0.61254 0.35427 0.54037 0.0
C1016 C 0.60722 0.34243 0.54967 0.0
C1017 C 0.59909 0.33228 0.53816 0.0
N1018 N 0.57683 0.31152 0.5144 0.0
C1019 C 0.58232 0.30816 0.53085 0.0
C1020 C 0.57513 0.29445 0.53487 0.0
C1021 C 0.56498 0.2889 0.52043 0.0
C1022 C 0.56674 0.29944 0.50841 0.0
N1023 N 0.57322 0.32004 0.47884 0.0
C1024 C 0.56111 0.30764 0.47747 0.0
C1025 C 0.55238 0.3051 0.46137 0.0
C1026 C 0.55892 0.31671 0.45196 0.0
C1027 C 0.57147 0.32565 0.46288 0.0
N1028 N 0.61825 0.31892 0.49699 0.0
C1029 C 0.66047 0.30204 0.49779 0.0
C1030 C 0.64002 0.29768 0.48884 0.0
C1031 C 0.61945 0.30617 0.48854 0.0
C1032 C 0.66001 0.3156 0.50522 0.0
C1033 C 0.63892 0.32387 0.50455 0.0
N1034 N 0.55451 0.3377 0.50401 0.0
C1035 C 0.51126 0.33553 0.50704 0.0
C1036 C 0.50826 0.35026 0.50689 0.0
C1037 C 0.52904 0.35864 0.50551 0.0
C1038 C 0.55181 0.3522 0.5042 0.0
C1039 C 0.53418 0.32956 0.50563 0.0
H1040 H 0.56697 0.35916 0.50323 0.0
H1041 H 0.53484 0.31827 0.50563 0.0
H1042 H 0.60451 0.30188 0.48177 0.0
H1043 H 0.6395 0.33405 0.51067 0.0
C1044 C 0.61359 0.35865 0.50956 0.0
C1045 C 0.58094 0.33947 0.45764 0.0
C1046 C 0.59518 0.31744 0.54275 0.0
C1047 C 0.55934 0.29836 0.49137 0.0
H1048 H 0.60803 0.36508 0.45246 0.0
H1049 H 0.62631 0.37566 0.48096 0.0
H1050 H 0.62073 0.36398 0.54497 0.0
H1051 H 0.61016 0.34116 0.56325 0.0
H1052 H 0.57744 0.28891 0.54686 0.0
H1053 H 0.55773 0.27832 0.51878 0.0
H1054 H 0.54242 0.29591 0.45699 0.0
H1055 H 0.5548 0.31846 0.43862 0.0
H1056 H 0.63967 0.28756 0.48225 0.0
H1057 H 0.6755 0.31962 0.51208 0.0
H1058 H 0.49587 0.3285 0.50782 0.0
H1059 H 0.52781 0.37012 0.50555 0.0
C1060 C 0.32103 0.67841 0.2133 0.0
C1061 C 0.30883 0.68711 0.20194 0.0
C1062 C 0.30184 0.69886 0.21093 0.0
C1063 C 0.30997 0.69663 0.22724 0.0
N1064 N 0.32214 0.68429 0.22916 0.0
Co1065 Co 0.33472 0.67628 0.25121 0.0
N1066 N 0.32428 0.69344 0.26454 0.0
C1067 C 0.31418 0.70535 0.25809 0.0
C1068 C 0.31127 0.71595 0.26995 0.0
C1069 C 0.3206 0.71061 0.28477 0.0
C1070 C 0.32856 0.69699 0.2811 0.0
N1071 N 0.34581 0.66775 0.27329 0.0
C1072 C 0.34625 0.67327 0.28926 0.0
C1073 C 0.35488 0.66354 0.30109 0.0
C1074 C 0.36074 0.65158 0.29219 0.0
C1075 C 0.35518 0.65464 0.27554 0.0
N1076 N 0.34671 0.65955 0.23786 0.0
C1077 C 0.35941 0.64844 0.24403 0.0
C1078 C 0.36596 0.63875 0.23183 0.0
C1079 C 0.35669 0.64391 0.21695 0.0
C1080 C 0.34477 0.65643 0.221 0.0
N1081 N 0.36647 0.68589 0.24804 0.0
C1082 C 0.40883 0.70265 0.24879 0.0
C1083 C 0.40826 0.68911 0.25624 0.0
C1084 C 0.3871 0.68091 0.25561 0.0
C1085 C 0.38839 0.70708 0.23989 0.0
C1086 C 0.36774 0.69865 0.23962 0.0
N1087 N 0.30273 0.66699 0.25444 0.0
C1088 C 0.27742 0.64597 0.25581 0.0
C1089 C 0.25648 0.65429 0.25574 0.0
C1090 C 0.25931 0.66903 0.25572 0.0
C1091 C 0.28222 0.67507 0.25511 0.0
C1092 C 0.3002 0.65249 0.25518 0.0
H1093 H 0.28275 0.68635 0.25496 0.0
H1094 H 0.31551 0.6456 0.25505 0.0
H1095 H 0.38761 0.67075 0.26174 0.0
H1096 H 0.35282 0.70298 0.23288 0.0
C1097 C 0.30747 0.70612 0.24089 0.0
C1098 C 0.33077 0.66451 0.20857 0.0
C1099 C 0.34087 0.688 0.29355 0.0
C1100 C 0.36202 0.64645 0.26155 0.0
H1101 H 0.3052 0.68512 0.18857 0.0
H1102 H 0.29192 0.70792 0.20614 0.0
H1103 H 0.30362 0.7264 0.26798 0.0
H1104 H 0.32179 0.71617 0.29684 0.0
H1105 H 0.35766 0.66515 0.31464 0.0
H1106 H 0.36927 0.64209 0.29712 0.0
H1107 H 0.37544 0.62883 0.23365 0.0
H1108 H 0.35795 0.63879 0.2046 0.0
H1109 H 0.42373 0.68504 0.26308 0.0
H1110 H 0.3881 0.7172 0.23329 0.0
H1111 H 0.27628 0.63449 0.2559 0.0
H1112 H 0.24381 0.676 0.25617 0.0
C1113 C 0.45006 0.0746 0.21355 0.0
C1114 C 0.46256 0.06594 0.20229 0.0
C1115 C 0.46949 0.05421 0.21134 0.0
C1116 C 0.46102 0.05642 0.22758 0.0
N1117 N 0.4487 0.06871 0.22939 0.0
Co1118 Co 0.43562 0.0767 0.25131 0.0
N1119 N 0.44628 0.05967 0.2648 0.0
C1120 C 0.4566 0.04779 0.25845 0.0
C1121 C 0.45973 0.03728 0.27038 0.0
C1122 C 0.45035 0.04266 0.28517 0.0
C1123 C 0.44216 0.05622 0.28142 0.0
N1124 N 0.42401 0.08522 0.27327 0.0
C1125 C 0.42378 0.07984 0.28932 0.0
C1126 C 0.41495 0.08963 0.30103 0.0
C1127 C 0.40868 0.10143 0.29197 0.0
C1128 C 0.41425 0.09825 0.27536 0.0
N1129 N 0.42347 0.09329 0.2378 0.0
C1130 C 0.41035 0.10429 0.24381 0.0
C1131 C 0.40384 0.1139 0.23151 0.0
C1132 C 0.41359 0.10882 0.21675 0.0
C1133 C 0.42574 0.09641 0.22097 0.0
N1134 N 0.40411 0.06684 0.24793 0.0
C1135 C 0.36192 0.04989 0.24828 0.0
C1136 C 0.36217 0.06346 0.25569 0.0
C1137 C 0.38325 0.07174 0.25527 0.0
C1138 C 0.38263 0.04552 0.23966 0.0
C1139 C 0.40319 0.05404 0.23958 0.0
N1140 N 0.46734 0.08624 0.25478 0.0
C1141 C 0.49208 0.10744 0.25694 0.0
C1142 C 0.51318 0.09929 0.25762 0.0
C1143 C 0.51074 0.08453 0.25707 0.0
C1144 C 0.48801 0.07832 0.25568 0.0
C1145 C 0.4695 0.10075 0.25565 0.0
H1146 H 0.48776 0.06704 0.2551 0.0
H1147 H 0.45404 0.10752 0.25525 0.0
H1148 H 0.38245 0.08192 0.26135 0.0
H1149 H 0.41829 0.04977 0.23301 0.0
C1150 C 0.46348 0.04698 0.24128 0.0
C1151 C 0.44029 0.08847 0.20874 0.0
C1152 C 0.4298 0.06524 0.29384 0.0
C1153 C 0.4074 0.10632 0.26129 0.0
H1154 H 0.46644 0.06794 0.18897 0.0
H1155 H 0.47961 0.04519 0.20666 0.0
H1156 H 0.46759 0.02688 0.26849 0.0
H1157 H 0.4493 0.03715 0.29727 0.0
H1158 H 0.41242 0.08817 0.31463 0.0
H1159 H 0.4 0.1109 0.29681 0.0
H1160 H 0.39409 0.12376 0.23321 0.0
H1161 H 0.41252 0.11391 0.20438 0.0
H1162 H 0.3465 0.06749 0.26233 0.0
H1163 H 0.38319 0.03538 0.23311 0.0
H1164 H 0.49291 0.11893 0.25752 0.0
H1165 H 0.5264 0.07769 0.25728 0.0
C1166 C 0.32258 0.07531 0.54439 0.0
C1167 C 0.31062 0.06655 0.55582 0.0
C1168 C 0.30335 0.05488 0.5468 0.0
C1169 C 0.31117 0.05719 0.53042 0.0
N1170 N 0.32335 0.06952 0.52848 0.0
Co1171 Co 0.33576 0.07759 0.50643 0.0
N1172 N 0.3255 0.06036 0.49313 0.0
C1173 C 0.31527 0.04848 0.49956 0.0
C1174 C 0.31247 0.03785 0.48772 0.0
C1175 C 0.32203 0.04314 0.47294 0.0
C1176 C 0.32999 0.05676 0.47661 0.0
N1177 N 0.34677 0.08612 0.48433 0.0
C1178 C 0.34757 0.08049 0.46842 0.0
C1179 C 0.35604 0.09024 0.45654 0.0
C1180 C 0.3614 0.10233 0.46536 0.0
C1181 C 0.35575 0.09932 0.482 0.0
N1182 N 0.34754 0.09441 0.51974 0.0
C1183 C 0.35963 0.10572 0.51347 0.0
C1184 C 0.36589 0.11552 0.52562 0.0
C1185 C 0.35719 0.1102 0.54058 0.0
C1186 C 0.34596 0.09742 0.53665 0.0
N1187 N 0.36762 0.06817 0.50964 0.0
C1188 C 0.41097 0.05229 0.50992 0.0
C1189 C 0.40992 0.06582 0.50244 0.0
C1190 C 0.38831 0.0736 0.50263 0.0
C1191 C 0.39018 0.04724 0.51789 0.0
C1192 C 0.36903 0.05524 0.51764 0.0
N1193 N 0.30359 0.08674 0.50317 0.0
C1194 C 0.27801 0.10765 0.50171 0.0
C1195 C 0.25717 0.09926 0.50174 0.0
C1196 C 0.26017 0.08453 0.5018 0.0
C1197 C 0.28316 0.07859 0.50247 0.0
C1198 C 0.30086 0.10123 0.50241 0.0
H1199 H 0.28379 0.06731 0.50261 0.0
H1200 H 0.31603 0.10821 0.50257 0.0
H1201 H 0.38858 0.08387 0.49674 0.0
H1202 H 0.35385 0.05047 0.52362 0.0
C1203 C 0.30852 0.04772 0.51676 0.0
C1204 C 0.33282 0.08904 0.54924 0.0
C1205 C 0.34249 0.06572 0.46422 0.0
C1206 C 0.36216 0.10768 0.49594 0.0
H1207 H 0.30746 0.06844 0.56928 0.0
H1208 H 0.29359 0.04577 0.55163 0.0
H1209 H 0.30481 0.02741 0.48969 0.0
H1210 H 0.32338 0.03754 0.4609 0.0
H1211 H 0.35899 0.08857 0.44302 0.0
H1212 H 0.36968 0.11188 0.46037 0.0
H1213 H 0.37487 0.1256 0.52373 0.0
H1214 H 0.35832 0.11536 0.55291 0.0
H1215 H 0.42567 0.07037 0.4964 0.0
H1216 H 0.38984 0.03684 0.5238 0.0
H1217 H 0.27675 0.11913 0.50161 0.0
H1218 H 0.24476 0.0775 0.50132 0.0
C1219 C 0.44842 0.67938 0.54419 0.0
C1220 C 0.46061 0.68813 0.55553 0.0
C1221 C 0.46739 0.69991 0.54654 0.0
C1222 C 0.45916 0.69767 0.53025 0.0
N1223 N 0.44711 0.68529 0.52835 0.0
Co1224 Co 0.43454 0.67722 0.50632 0.0
N1225 N 0.44495 0.69435 0.49294 0.0
C1226 C 0.45498 0.70629 0.49936 0.0
C1227 C 0.45798 0.71685 0.48747 0.0
C1228 C 0.4488 0.71144 0.47264 0.0
C1229 C 0.44086 0.69782 0.47632 0.0
N1230 N 0.42343 0.66863 0.48428 0.0
C1231 C 0.42316 0.67406 0.46826 0.0
C1232 C 0.41472 0.66422 0.45645 0.0
C1233 C 0.40872 0.65233 0.46543 0.0
C1234 C 0.41407 0.65551 0.48208 0.0
N1235 N 0.42264 0.6605 0.51972 0.0
C1236 C 0.40989 0.64939 0.5136 0.0
C1237 C 0.40344 0.63971 0.52584 0.0
C1238 C 0.41283 0.64487 0.54068 0.0
C1239 C 0.42474 0.65738 0.53657 0.0
N1240 N 0.40273 0.68678 0.50953 0.0
C1241 C 0.3596 0.70292 0.50993 0.0
C1242 C 0.36057 0.68956 0.50203 0.0
C1243 C 0.38206 0.68164 0.50217 0.0
C1244 C 0.38032 0.70767 0.51825 0.0
C1245 C 0.40135 0.69955 0.51794 0.0
N1246 N 0.46656 0.66795 0.50309 0.0
C1247 C 0.49189 0.64695 0.5016 0.0
C1248 C 0.51283 0.65526 0.50173 0.0
C1249 C 0.50999 0.67 0.50186 0.0
C1250 C 0.48706 0.67604 0.5025 0.0
C1251 C 0.4691 0.65345 0.50226 0.0
H1252 H 0.48652 0.68733 0.50274 0.0
H1253 H 0.45379 0.64657 0.50235 0.0
H1254 H 0.38166 0.67151 0.49596 0.0
H1255 H 0.41643 0.70412 0.52424 0.0
C1256 C 0.46165 0.70713 0.51657 0.0
C1257 C 0.43895 0.66542 0.5489 0.0
C1258 C 0.42873 0.68874 0.46384 0.0
C1259 C 0.40724 0.64735 0.49609 0.0
H1260 H 0.4644 0.68612 0.56887 0.0
H1261 H 0.47729 0.70899 0.55129 0.0
H1262 H 0.4656 0.7273 0.48942 0.0
H1263 H 0.44771 0.71698 0.46055 0.0
H1264 H 0.41223 0.6657 0.44286 0.0
H1265 H 0.40033 0.64279 0.46052 0.0
H1266 H 0.39396 0.62977 0.52406 0.0
H1267 H 0.41171 0.63975 0.55303 0.0
H1268 H 0.34487 0.68523 0.49571 0.0
H1269 H 0.38071 0.71793 0.52451 0.0
H1270 H 0.49302 0.63546 0.50143 0.0
H1271 H 0.52548 0.67698 0.50148 0.0
C1272 C 0.67468 0.84687 0.28642 0.0
C1273 C 0.66259 0.85934 0.29046 0.0
C1274 C 0.6531 0.86438 0.27559 0.0
C1275 C 0.6597 0.85468 0.26341 0.0
N1276 N 0.67262 0.84367 0.26959 0.0
Co1277 Co 0.6848 0.82696 0.25628 0.0
N1278 N 0.67362 0.83541 0.23418 0.0
C1279 C 0.66403 0.84847 0.23192 0.0
C1280 C 0.65869 0.85156 0.21525 0.0
C1281 C 0.66492 0.83967 0.20633 0.0
C1282 C 0.67349 0.82993 0.21818 0.0
N1283 N 0.69547 0.80983 0.24299 0.0
C1284 C 0.69148 0.80628 0.22639 0.0
C1285 C 0.69955 0.79267 0.22279 0.0
C1286 C 0.70872 0.78735 0.23768 0.0
C1287 C 0.70558 0.79794 0.2495 0.0
N1288 N 0.69747 0.81905 0.27836 0.0
C1289 C 0.70966 0.80672 0.28033 0.0
C1290 C 0.71789 0.80458 0.29664 0.0
C1291 C 0.71096 0.81637 0.30556 0.0
C1292 C 0.69868 0.82502 0.29416 0.0
N1293 N 0.65314 0.81723 0.25948 0.0
C1294 C 0.6109 0.80036 0.25885 0.0
C1295 C 0.63139 0.79601 0.26775 0.0
C1296 C 0.65198 0.8045 0.26796 0.0
C1297 C 0.61137 0.81387 0.2513 0.0
C1298 C 0.63247 0.82212 0.25188 0.0
N1299 N 0.71667 0.83638 0.25303 0.0
C1300 C 0.76011 0.83451 0.25178 0.0
C1301 C 0.76274 0.84927 0.25156 0.0
C1302 C 0.7417 0.85749 0.2514 0.0
C1303 C 0.71901 0.85088 0.25211 0.0
C1304 C 0.73727 0.82838 0.25247 0.0
H1305 H 0.7036 0.8577 0.25217 0.0
H1306 H 0.73687 0.81709 0.25279 0.0
H1307 H 0.66691 0.80025 0.27474 0.0
H1308 H 0.63185 0.83225 0.24568 0.0
C1309 C 0.65704 0.85663 0.24589 0.0
C1310 C 0.689 0.83895 0.2988 0.0
C1311 C 0.67929 0.81526 0.21384 0.0
C1312 C 0.71222 0.79721 0.26672 0.0
H1313 H 0.66139 0.8645 0.30279 0.0
H1314 H 0.64348 0.87426 0.27375 0.0
H1315 H 0.65015 0.86103 0.21029 0.0
H1316 H 0.6625 0.83813 0.19273 0.0
H1317 H 0.69855 0.78707 0.21074 0.0
H1318 H 0.71643 0.77692 0.2397 0.0
H1319 H 0.72788 0.79555 0.30145 0.0
H1320 H 0.7147 0.81844 0.31889 0.0
H1321 H 0.63175 0.78593 0.27441 0.0
H1322 H 0.59586 0.81787 0.24446 0.0
H1323 H 0.77569 0.8276 0.25141 0.0
H1324 H 0.74269 0.86898 0.25117 0.0
C1325 C 0.59476 0.40696 0.28543 0.0
C1326 C 0.60661 0.39441 0.28947 0.0
C1327 C 0.61599 0.3893 0.2746 0.0
C1328 C 0.60957 0.39903 0.26242 0.0
N1329 N 0.59686 0.41013 0.26861 0.0
Co1330 Co 0.58498 0.42692 0.25532 0.0
N1331 N 0.59631 0.41848 0.23324 0.0
C1332 C 0.60571 0.40539 0.23094 0.0
C1333 C 0.61148 0.40241 0.2143 0.0
C1334 C 0.60572 0.41442 0.20546 0.0
C1335 C 0.59693 0.42409 0.21732 0.0
N1336 N 0.57455 0.44411 0.24205 0.0
C1337 C 0.57891 0.44772 0.22551 0.0
C1338 C 0.57077 0.4613 0.22185 0.0
C1339 C 0.56124 0.46657 0.23665 0.0
C1340 C 0.56421 0.45596 0.24848 0.0
N1341 N 0.57227 0.43488 0.27736 0.0
C1342 C 0.56012 0.44722 0.27932 0.0
C1343 C 0.5519 0.4494 0.29563 0.0
C1344 C 0.55882 0.43761 0.30456 0.0
C1345 C 0.57106 0.42894 0.29318 0.0
N1346 N 0.61671 0.4365 0.2587 0.0
C1347 C 0.65987 0.45256 0.25919 0.0
C1348 C 0.639 0.45748 0.26718 0.0
C1349 C 0.61794 0.44939 0.26683 0.0
C1350 C 0.65902 0.43908 0.2516 0.0
C1351 C 0.63751 0.4312 0.25168 0.0
N1352 N 0.55303 0.41761 0.25186 0.0
C1353 C 0.50963 0.41952 0.24978 0.0
C1354 C 0.50699 0.40478 0.24908 0.0
C1355 C 0.52799 0.39654 0.24957 0.0
C1356 C 0.55065 0.40311 0.25083 0.0
C1357 C 0.53246 0.42563 0.25113 0.0
H1358 H 0.56599 0.39626 0.25107 0.0
H1359 H 0.53285 0.4369 0.25182 0.0
H1360 H 0.60271 0.45406 0.27284 0.0
H1361 H 0.63798 0.42098 0.2457 0.0
C1362 C 0.61236 0.39711 0.2449 0.0
C1363 C 0.58061 0.41498 0.29782 0.0
C1364 C 0.59144 0.43881 0.21309 0.0
C1365 C 0.55747 0.4567 0.26568 0.0
H1366 H 0.60773 0.38925 0.3018 0.0
H1367 H 0.62546 0.37936 0.27277 0.0
H1368 H 0.62007 0.39295 0.20934 0.0
H1369 H 0.60864 0.4161 0.19194 0.0
H1370 H 0.57198 0.46689 0.2098 0.0
H1371 H 0.55345 0.47698 0.23863 0.0
H1372 H 0.54193 0.45843 0.30042 0.0
H1373 H 0.55507 0.43557 0.3179 0.0
H1374 H 0.63854 0.46784 0.27319 0.0
H1375 H 0.67483 0.43462 0.24556 0.0
H1376 H 0.49405 0.42643 0.24969 0.0
H1377 H 0.527 0.38506 0.24886 0.0
C1378 C 0.67456 0.40625 0.97149 0.0
C1379 C 0.66388 0.39319 0.96813 0.0
C1380 C 0.65526 0.38821 0.98326 0.0
C1381 C 0.6612 0.39839 0.99501 0.0
N1382 N 0.6731 0.40962 0.98833 0.0
Co1383 Co 0.68519 0.42662 1.0012 0.0
N1384 N 0.67416 0.41855 0.02355 0.0
C1385 C 0.66514 0.40543 0.02626 0.0
C1386 C 0.65977 0.40267 0.04301 0.0
C1387 C 0.6654 0.41486 0.05152 0.0
C1388 C 0.67367 0.42442 0.03935 0.0
N1389 N 0.69574 0.44403 0.01405 0.0
C1390 C 0.6915 0.44793 0.03051 0.0
C1391 C 0.69959 0.4616 0.03377 0.0
C1392 C 0.70904 0.46659 0.0188 0.0
C1393 C 0.70603 0.45576 0.00728 0.0
N1394 N 0.69762 0.43422 0.97891 0.0
C1395 C 0.70991 0.44648 0.97665 0.0
C1396 C 0.71729 0.44862 0.96014 0.0
C1397 C 0.70959 0.43692 0.95137 0.0
C1398 C 0.69788 0.42827 0.96307 0.0
N1399 N 0.65345 0.43615 0.99786 0.0
C1400 C 0.61098 0.45278 0.99853 0.0
C1401 C 0.63152 0.45735 0.98984 0.0
C1402 C 0.65224 0.44897 0.98961 0.0
C1403 C 0.61153 0.43916 0.00579 0.0
C1404 C 0.63276 0.43102 0.0052 0.0
N1405 N 0.71725 0.41738 0.00467 0.0
C1406 C 0.76065 0.41947 0.00678 0.0
C1407 C 0.76344 0.40474 0.00756 0.0
C1408 C 0.74254 0.39642 0.00711 0.0
C1409 C 0.71981 0.4029 0.00579 0.0
C1410 C 0.73776 0.42547 0.00537 0.0
H1411 H 0.70461 0.39596 0.0056 0.0
H1412 H 0.7373 0.43674 0.00462 0.0
H1413 H 0.66726 0.45338 0.98306 0.0
H1414 H 0.63231 0.42079 0.01119 0.0
C1415 C 0.65872 0.39681 0.01259 0.0
C1416 C 0.68704 0.41462 0.95845 0.0
C1417 C 0.67909 0.43923 0.04321 0.0
C1418 C 0.71268 0.45618 0.99005 0.0
H1419 H 0.66307 0.38753 0.95613 0.0
H1420 H 0.64667 0.37807 0.98556 0.0
H1421 H 0.65163 0.39318 0.04828 0.0
H1422 H 0.66283 0.41668 0.06505 0.0
H1423 H 0.69842 0.46744 0.04564 0.0
H1424 H 0.71678 0.47697 0.01653 0.0
H1425 H 0.72689 0.45768 0.95504 0.0
H1426 H 0.71217 0.43502 0.93786 0.0
H1427 H 0.63184 0.46754 0.98341 0.0
H1428 H 0.59599 0.43499 0.01245 0.0
H1429 H 0.77616 0.42643 0.00684 0.0
H1430 H 0.74365 0.38495 0.00789 0.0
C1431 C 0.59604 0.84833 0.97248 0.0
C1432 C 0.60672 0.86141 0.96919 0.0
C1433 C 0.61503 0.86643 0.9844 0.0
C1434 C 0.60894 0.85625 0.9961 0.0
N1435 N 0.59721 0.84499 0.98933 0.0
Co1436 Co 0.58511 0.82794 1.0021 0.0
N1437 N 0.59602 0.83596 0.0245 0.0
C1438 C 0.60489 0.84911 0.02731 0.0
C1439 C 0.61045 0.85175 0.04406 0.0
C1440 C 0.60512 0.83945 0.05245 0.0
C1441 C 0.59675 0.82997 0.04022 0.0
N1442 N 0.57464 0.81047 0.01483 0.0
C1443 C 0.57912 0.80647 0.03122 0.0
C1444 C 0.57104 0.7928 0.03444 0.0
C1445 C 0.56141 0.78789 0.01949 0.0
C1446 C 0.5643 0.79877 0.00802 0.0
N1447 N 0.57277 0.8204 0.97976 0.0
C1448 C 0.56035 0.80819 0.97746 0.0
C1449 C 0.55309 0.80608 0.96091 0.0
C1450 C 0.56102 0.81773 0.95217 0.0
C1451 C 0.57274 0.82633 0.96391 0.0
N1452 N 0.61687 0.81847 0.99874 0.0
C1453 C 0.65933 0.80184 0.99937 0.0
C1454 C 0.63882 0.79731 0.9906 0.0
C1455 C 0.61811 0.80568 0.9904 0.0
C1456 C 0.65875 0.81543 0.00673 0.0
C1457 C 0.63752 0.82357 0.00616 0.0
N1458 N 0.55298 0.83713 0.00556 0.0
C1459 C 0.50959 0.83496 0.00776 0.0
C1460 C 0.50667 0.84968 0.00828 0.0
C1461 C 0.52751 0.85805 0.00769 0.0
C1462 C 0.55029 0.85162 0.00646 0.0
C1463 C 0.53253 0.829 0.00643 0.0
H1464 H 0.56542 0.8586 0.00616 0.0
H1465 H 0.53305 0.81773 0.00589 0.0
H1466 H 0.60309 0.8013 0.98382 0.0
H1467 H 0.63792 0.83378 0.01222 0.0
C1468 C 0.61126 0.8578 0.01369 0.0
C1469 C 0.58387 0.83992 0.95934 0.0
C1470 C 0.59165 0.81511 0.04391 0.0
C1471 C 0.55755 0.79844 0.99081 0.0
H1472 H 0.60775 0.86704 0.95717 0.0
H1473 H 0.62358 0.87657 0.98675 0.0
H1474 H 0.61862 0.8612 0.04938 0.0
H1475 H 0.608 0.83749 0.06592 0.0
H1476 H 0.57233 0.78693 0.04629 0.0
H1477 H 0.55365 0.77752 0.01717 0.0
H1478 H 0.54348 0.79704 0.95577 0.0
H1479 H 0.55861 0.81963 0.93864 0.0
H1480 H 0.63853 0.78716 0.98408 0.0
H1481 H 0.67426 0.81957 0.01346 0.0
H1482 H 0.49414 0.82795 0.00794 0.0
H1483 H 0.52631 0.86952 0.00828 0.0
C1484 C 0.32267 0.17904 0.71382 0.0
C1485 C 0.3109 0.18784 0.70233 0.0
C1486 C 0.30366 0.19954 0.71129 0.0
C1487 C 0.31124 0.1972 0.72772 0.0
N1488 N 0.3233 0.18483 0.72974 0.0
Co1489 Co 0.33507 0.17665 0.75192 0.0
N1490 N 0.32432 0.19377 0.7652 0.0
C1491 C 0.31418 0.20566 0.75875 0.0
C1492 C 0.31101 0.21621 0.77063 0.0
C1493 C 0.32023 0.21086 0.78549 0.0
C1494 C 0.32838 0.19729 0.7818 0.0
N1495 N 0.34553 0.168 0.77408 0.0
C1496 C 0.34589 0.17355 0.79004 0.0
C1497 C 0.35418 0.16378 0.80195 0.0
C1498 C 0.35993 0.15177 0.79311 0.0
C1499 C 0.35465 0.15484 0.77642 0.0
N1500 N 0.34727 0.15992 0.73864 0.0
C1501 C 0.35953 0.14868 0.74495 0.0
C1502 C 0.36629 0.13901 0.73278 0.0
C1503 C 0.35762 0.14431 0.71779 0.0
C1504 C 0.34581 0.15689 0.72174 0.0
N1505 N 0.36699 0.18614 0.74928 0.0
C1506 C 0.41029 0.2021 0.74986 0.0
C1507 C 0.40915 0.18844 0.75698 0.0
C1508 C 0.38756 0.18064 0.75639 0.0
C1509 C 0.3896 0.20727 0.74185 0.0
C1510 C 0.36851 0.19922 0.74164 0.0
N1511 N 0.3029 0.16741 0.75464 0.0
C1512 C 0.27749 0.14642 0.756 0.0
C1513 C 0.25657 0.15474 0.75563 0.0
C1514 C 0.25943 0.16948 0.75539 0.0
C1515 C 0.28238 0.1755 0.75493 0.0
C1516 C 0.30029 0.15292 0.75551 0.0
H1517 H 0.28292 0.18678 0.75463 0.0
H1518 H 0.31556 0.146 0.75563 0.0
H1519 H 0.38776 0.17028 0.76205 0.0
H1520 H 0.35346 0.20406 0.7356 0.0
C1521 C 0.30805 0.20656 0.74144 0.0
C1522 C 0.33231 0.1651 0.70916 0.0
C1523 C 0.34071 0.18831 0.79424 0.0
C1524 C 0.36164 0.14661 0.7625 0.0
H1525 H 0.30765 0.18591 0.68889 0.0
H1526 H 0.29388 0.20862 0.70643 0.0
H1527 H 0.30338 0.22666 0.76865 0.0
H1528 H 0.32126 0.2164 0.79758 0.0
H1529 H 0.35683 0.16541 0.81551 0.0
H1530 H 0.36825 0.14224 0.79812 0.0
H1531 H 0.37554 0.12902 0.73467 0.0
H1532 H 0.35918 0.13925 0.70542 0.0
H1533 H 0.4248 0.18378 0.76302 0.0
H1534 H 0.3893 0.21778 0.73621 0.0
H1535 H 0.27634 0.13494 0.75624 0.0
H1536 H 0.24395 0.17647 0.75559 0.0
C1537 C 0.44733 0.57471 0.71276 0.0
C1538 C 0.45942 0.56595 0.70138 0.0
C1539 C 0.46619 0.55415 0.71034 0.0
C1540 C 0.45805 0.55639 0.72665 0.0
N1541 N 0.44606 0.56879 0.72859 0.0
Co1542 Co 0.43367 0.57688 0.75066 0.0
N1543 N 0.44411 0.55973 0.764 0.0
C1544 C 0.45419 0.54781 0.75757 0.0
C1545 C 0.45721 0.53725 0.76946 0.0
C1546 C 0.44796 0.54264 0.7843 0.0
C1547 C 0.43995 0.55624 0.78059 0.0
N1548 N 0.42269 0.58548 0.77274 0.0
C1549 C 0.42228 0.57998 0.78872 0.0
C1550 C 0.4137 0.58974 0.80055 0.0
C1551 C 0.40784 0.60169 0.79164 0.0
C1552 C 0.41335 0.59859 0.77498 0.0
N1553 N 0.42178 0.59364 0.73731 0.0
C1554 C 0.40916 0.60478 0.74348 0.0
C1555 C 0.40274 0.61449 0.73127 0.0
C1556 C 0.41205 0.60932 0.7164 0.0
C1557 C 0.42386 0.59677 0.72047 0.0
N1558 N 0.40179 0.56736 0.74755 0.0
C1559 C 0.35851 0.55135 0.74732 0.0
C1560 C 0.35957 0.56481 0.75498 0.0
C1561 C 0.38113 0.57265 0.75477 0.0
C1562 C 0.37926 0.54643 0.73917 0.0
C1563 C 0.40036 0.55449 0.73939 0.0
N1564 N 0.46575 0.58612 0.75381 0.0
C1565 C 0.4911 0.60711 0.75544 0.0
C1566 C 0.51204 0.59881 0.75519 0.0
C1567 C 0.5092 0.58406 0.75491 0.0
C1568 C 0.48626 0.57803 0.75426 0.0
C1569 C 0.46831 0.60061 0.75477 0.0
H1570 H 0.48571 0.56675 0.75391 0.0
H1571 H 0.45301 0.60751 0.75478 0.0
H1572 H 0.3808 0.58286 0.7608 0.0
H1573 H 0.41546 0.54981 0.73323 0.0
C1574 C 0.46072 0.54696 0.74034 0.0
C1575 C 0.43799 0.58871 0.7081 0.0
C1576 C 0.42771 0.56527 0.79304 0.0
C1577 C 0.40655 0.60679 0.761 0.0
H1578 H 0.46318 0.56797 0.68804 0.0
H1579 H 0.47607 0.54507 0.70555 0.0
H1580 H 0.46485 0.5268 0.76751 0.0
H1581 H 0.44687 0.53712 0.7964 0.0
H1582 H 0.41098 0.58815 0.81411 0.0
H1583 H 0.39937 0.61119 0.79657 0.0
H1584 H 0.39335 0.62445 0.73308 0.0
H1585 H 0.41093 0.61446 0.70406 0.0
H1586 H 0.34387 0.56928 0.76115 0.0
H1587 H 0.37961 0.53609 0.73311 0.0
H1588 H 0.49223 0.6186 0.75572 0.0
H1589 H 0.52469 0.57708 0.75519 0.0
C1590 C 0.32079 0.57472 0.04382 0.0
C1591 C 0.30842 0.56606 0.05514 0.0
C1592 C 0.30106 0.55445 0.04606 0.0
C1593 C 0.30923 0.5567 0.02974 0.0
N1594 N 0.32171 0.56893 0.02792 0.0
Co1595 Co 0.33471 0.57689 0.00597 0.0
N1596 N 0.32409 0.55981 0.99254 0.0
C1597 C 0.31364 0.54797 0.99891 0.0
C1598 C 0.3106 0.53741 0.98704 0.0
C1599 C 0.32019 0.5427 0.97227 0.0
C1600 C 0.32838 0.55627 0.97597 0.0
N1601 N 0.34626 0.58536 0.98398 0.0
C1602 C 0.34671 0.57988 0.96799 0.0
C1603 C 0.35539 0.58965 0.9562 0.0
C1604 C 0.36132 0.60156 0.96517 0.0
C1605 C 0.35571 0.59845 0.98179 0.0
N1606 N 0.34688 0.59353 0.01944 0.0
C1607 C 0.35951 0.60468 0.01331 0.0
C1608 C 0.36591 0.61439 0.02554 0.0
C1609 C 0.3567 0.60917 0.0404 0.0
C1610 C 0.34508 0.59655 0.03634 0.0
N1611 N 0.36623 0.56709 0.00934 0.0
C1612 C 0.40848 0.55023 0.00884 0.0
C1613 C 0.40822 0.56389 1.00168 0.0
C1614 C 0.38711 0.57213 1.00218 0.0
C1615 C 0.38773 0.54571 0.01731 0.0
C1616 C 0.36713 0.55419 0.01746 0.0
N1617 N 0.30291 0.58639 1.00251 0.0
C1618 C 0.278 0.60754 1.00053 0.0
C1619 C 0.25697 0.59935 0.99966 0.0
C1620 C 0.25953 0.5846 1.00002 0.0
C1621 C 0.28229 0.57843 1.00142 0.0
C1622 C 0.30062 0.60091 1.00182 0.0
H1623 H 0.28258 0.56715 1.00184 0.0
H1624 H 0.31598 0.60773 1.00235 0.0
H1625 H 0.38784 0.58239 0.99629 0.0
H1626 H 0.35195 0.54982 0.02386 0.0
C1627 C 0.30666 0.54724 0.01607 0.0
C1628 C 0.33136 0.58834 0.04878 0.0
C1629 C 0.34092 0.56522 0.96357 0.0
C1630 C 0.36231 0.60667 0.99581 0.0
H1631 H 0.3051 0.56797 0.06857 0.0
H1632 H 0.29102 0.54542 0.05079 0.0
H1633 H 0.3027 0.52703 0.98895 0.0
H1634 H 0.32136 0.53712 0.96021 0.0
H1635 H 0.35801 0.58813 0.94263 0.0
H1636 H 0.36981 0.61108 0.96028 0.0
H1637 H 0.37525 0.62437 0.02374 0.0
H1638 H 0.35776 0.61432 0.05274 0.0
H1639 H 0.42392 0.56802 0.99517 0.0
H1640 H 0.38717 0.53549 0.02367 0.0
H1641 H 0.27708 0.61903 1.0001 0.0
H1642 H 0.24392 0.57772 0.99966 0.0
C1643 C 0.44838 0.1787 0.04457 0.0
C1644 C 0.46056 0.1874 0.05595 0.0
C1645 C 0.4673 0.19923 0.04704 0.0
C1646 C 0.45905 0.19705 0.03074 0.0
N1647 N 0.44704 0.18466 0.02877 0.0
Co1648 Co 0.43438 0.17669 0.00672 0.0
N1649 N 0.44475 0.19389 0.99344 0.0
C1650 C 0.45485 0.20579 0.99991 0.0
C1651 C 0.45787 0.21638 0.98808 0.0
C1652 C 0.44864 0.21105 0.97322 0.0
C1653 C 0.44065 0.19742 0.97684 0.0
N1654 N 0.42314 0.16821 0.98464 0.0
C1655 C 0.42281 0.17372 0.96866 0.0
C1656 C 0.41429 0.16395 0.95681 0.0
C1657 C 0.40832 0.15202 0.96571 0.0
C1658 C 0.41376 0.1551 0.98237 0.0
N1659 N 0.42257 0.15989 0.02003 0.0
C1660 C 0.40983 0.14879 0.01385 0.0
C1661 C 0.40349 0.13904 0.02604 0.0
C1662 C 0.41295 0.14413 0.04089 0.0
C1663 C 0.42477 0.15669 0.03684 0.0
N1664 N 0.40259 0.18621 0.01007 0.0
C1665 C 0.35943 0.20228 0.01046 0.0
C1666 C 0.36037 0.18885 1.00274 0.0
C1667 C 0.38187 0.18097 1.00288 0.0
C1668 C 0.38019 0.20713 0.01865 0.0
C1669 C 0.40124 0.19903 0.01835 0.0
N1670 N 0.46636 0.16744 1.00328 0.0
C1671 C 0.49152 0.14644 1.00082 0.0
C1672 C 0.51246 0.15474 1.00033 0.0
C1673 C 0.50974 0.16947 1.00114 0.0
C1674 C 0.48688 0.17551 1.00259 0.0
C1675 C 0.46882 0.15296 1.00217 0.0
H1676 H 0.4864 0.18679 1.00336 0.0
H1677 H 0.45351 0.14607 1.0024 0.0
H1678 H 0.38145 0.17079 0.9968 0.0
H1679 H 0.41637 0.20366 0.02454 0.0
C1680 C 0.46154 0.20656 0.01712 0.0
C1681 C 0.43897 0.1647 0.04921 0.0
C1682 C 0.42848 0.18841 0.96432 0.0
C1683 C 0.40706 0.14685 0.99634 0.0
H1684 H 0.46438 0.18535 0.06928 0.0
H1685 H 0.47719 0.2083 0.05184 0.0
H1686 H 0.46553 0.22683 0.99008 0.0
H1687 H 0.44755 0.21663 0.96117 0.0
H1688 H 0.41175 0.1655 0.94323 0.0
H1689 H 0.39991 0.1425 0.96075 0.0
H1690 H 0.39404 0.1291 0.02421 0.0
H1691 H 0.41191 0.13896 0.05321 0.0
H1692 H 0.34463 0.18444 0.99655 0.0
H1693 H 0.38058 0.21744 0.02478 0.0
H1694 H 0.49258 0.13497 1.00003 0.0
H1695 H 0.52527 0.17642 1.00108 0.0
C1696 C 0.14591 0.30794 0.193 0.0
C1697 C 0.17054 0.30907 0.19673 0.0
C1698 C 0.13815 0.30529 0.17629 0.0
C1699 C 0.15871 0.31034 0.13183 0.0
H1700 H 0.10056 0.28959 0.12059 0.0
C1701 C 0.12501 0.30734 0.06237 0.0
C1702 C 0.10036 0.30979 0.05992 0.0
C1703 C 0.13407 0.30457 0.07872 0.0
C1704 C 0.11678 0.29548 0.12352 0.0
H1705 H 0.20641 0.30786 0.18621 0.0
H1706 H 0.193 0.30283 0.157 0.0
H1707 H 0.11583 0.28926 0.14986 0.0
H1708 H 0.06572 0.31099 0.07234 0.0
H1709 H 0.08142 0.30616 0.10102 0.0
H1710 H 0.15945 0.31681 0.10566 0.0
C1711 C 0.1796 0.30418 0.1669 0.0
C1712 C 0.12555 0.29529 0.14032 0.0
C1713 C 0.18734 0.30686 0.18364 0.0
C1714 C 0.08474 0.30888 0.07394 0.0
C1715 C 0.0938 0.30613 0.09034 0.0
C1716 C 0.14997 0.31051 0.11507 0.0
C1717 C 0.15487 0.30375 0.1629 0.0
C1718 C 0.14651 0.30286 0.14476 0.0
C1719 C 0.11869 0.30431 0.09301 0.0
C1720 C 0.12874 0.30321 0.11069 0.0
H1721 H 0.13265 0.30983 0.20289 0.0
H1722 H 0.119 0.30521 0.17374 0.0
H1723 H 0.17459 0.31654 0.13475 0.0
H1724 H 0.13738 0.30814 0.05172 0.0
H1725 H 0.15326 0.303 0.08021 0.0
C1726 C 0.1881 0.94668 0.07314 0.0
C1727 C 0.17132 0.9446 0.06 0.0
C1728 C 0.18033 0.94946 0.08985 0.0
C1729 C 0.12635 0.95907 0.11615 0.0
H1730 H 0.15953 0.93763 0.15123 0.0
C1731 C 0.08483 0.94621 0.18252 0.0
C1732 C 0.10035 0.94521 0.1966 0.0
C1733 C 0.09404 0.9489 0.16616 0.0
C1734 C 0.15026 0.94392 0.1417 0.0
H1735 H 0.13346 0.94417 0.05373 0.0
H1736 H 0.11976 0.94894 0.08284 0.0
H1737 H 0.17483 0.93747 0.12217 0.0
H1738 H 0.13733 0.9467 0.20492 0.0
H1739 H 0.15346 0.95176 0.17648 0.0
H1740 H 0.10138 0.96518 0.13572 0.0
C1741 C 0.13891 0.94868 0.08035 0.0
C1742 C 0.15909 0.94384 0.12496 0.0
C1743 C 0.1467 0.94593 0.06367 0.0
C1744 C 0.12503 0.94759 0.19423 0.0
C1745 C 0.13425 0.9503 0.17791 0.0
C1746 C 0.11748 0.95913 0.13293 0.0
C1747 C 0.15559 0.95014 0.09378 0.0
C1748 C 0.14714 0.95128 0.11188 0.0
C1749 C 0.11897 0.95057 0.16356 0.0
C1750 C 0.12919 0.95144 0.14591 0.0
H1751 H 0.20716 0.94555 0.07061 0.0
H1752 H 0.19371 0.95074 0.09978 0.0
H1753 H 0.11683 0.96508 0.1065 0.0
H1754 H 0.06578 0.94414 0.18405 0.0
H1755 H 0.08174 0.94889 0.15543 0.0
C1756 C 0.83513 0.69506 0.82422 0.0
C1757 C 0.85059 0.69391 0.81014 0.0
C1758 C 0.84442 0.69771 0.84058 0.0
C1759 C 0.9006 0.69259 0.8651 0.0
H1760 H 0.86764 0.71441 0.89997 0.0
C1761 C 0.93878 0.69614 0.93353 0.0
C1762 C 0.92203 0.69433 0.94675 0.0
C1763 C 0.93097 0.69871 0.91678 0.0
C1764 C 0.87703 0.70821 0.89041 0.0
H1765 H 0.8876 0.69504 0.80179 0.0
H1766 H 0.9039 0.70001 0.83021 0.0
H1767 H 0.85209 0.71421 0.87078 0.0
H1768 H 0.88419 0.69417 0.9531 0.0
H1769 H 0.87043 0.69858 0.92394 0.0
H1770 H 0.92515 0.68627 0.88471 0.0
C1771 C 0.88465 0.6987 0.8288 0.0
C1772 C 0.86809 0.7081 0.87365 0.0
C1773 C 0.87535 0.69604 0.81249 0.0
C1774 C 0.89742 0.69572 0.94311 0.0
C1775 C 0.88959 0.69827 0.92639 0.0
C1776 C 0.90949 0.69268 0.88183 0.0
C1777 C 0.8694 0.69919 0.84315 0.0
C1778 C 0.87963 0.70018 0.86079 0.0
C1779 C 0.90623 0.69945 0.91289 0.0
C1780 C 0.89771 0.70037 0.89479 0.0
H1781 H 0.81601 0.6932 0.82271 0.0
H1782 H 0.83213 0.69787 0.85131 0.0
H1783 H 0.90974 0.68614 0.85567 0.0
H1784 H 0.95784 0.69496 0.93604 0.0
H1785 H 0.94433 0.69978 0.9068 0.0
C1786 C 0.83469 0.05902 0.93298 0.0
C1787 C 0.85021 0.0601 0.94705 0.0
C1788 C 0.84392 0.05638 0.91661 0.0
C1789 C 0.90006 0.06144 0.89202 0.0
H1790 H 0.86693 0.03973 0.85715 0.0
C1791 C 0.93808 0.05798 0.82354 0.0
C1792 C 0.92131 0.05982 0.81035 0.0
C1793 C 0.9303 0.05538 0.8403 0.0
C1794 C 0.87637 0.0459 0.8667 0.0
H1795 H 0.88723 0.05886 0.95534 0.0
H1796 H 0.90342 0.05393 0.92688 0.0
H1797 H 0.85145 0.03991 0.88636 0.0
H1798 H 0.88346 0.06 0.80403 0.0
H1799 H 0.86975 0.05554 0.8332 0.0
H1800 H 0.92459 0.06776 0.8724 0.0
C1801 C 0.88418 0.05527 0.92833 0.0
C1802 C 0.86747 0.046 0.88348 0.0
C1803 C 0.87494 0.05792 0.94466 0.0
C1804 C 0.89671 0.05842 0.81401 0.0
C1805 C 0.8889 0.05586 0.83073 0.0
C1806 C 0.90891 0.06137 0.87528 0.0
C1807 C 0.86889 0.05485 0.91399 0.0
C1808 C 0.87907 0.05388 0.89634 0.0
C1809 C 0.90556 0.05465 0.84421 0.0
C1810 C 0.89708 0.05372 0.86232 0.0
H1811 H 0.8156 0.06092 0.93454 0.0
H1812 H 0.83161 0.05628 0.90589 0.0
H1813 H 0.90925 0.06787 0.90146 0.0
H1814 H 0.95714 0.05917 0.82102 0.0
H1815 H 0.94368 0.0543 0.85026 0.0
C1816 C 0.14599 0.80767 0.69303 0.0
C1817 C 0.17056 0.80907 0.69681 0.0
C1818 C 0.13836 0.805 0.6763 0.0
C1819 C 0.15881 0.81026 0.63183 0.0
H1820 H 0.10152 0.78869 0.6206 0.0
C1821 C 0.12538 0.80682 0.56238 0.0
C1822 C 0.10067 0.80903 0.55993 0.0
C1823 C 0.13451 0.80408 0.57871 0.0
C1824 C 0.1175 0.79481 0.62352 0.0
H1825 H 0.2065 0.80833 0.68632 0.0
H1826 H 0.19333 0.80328 0.65706 0.0
H1827 H 0.11672 0.78866 0.64989 0.0
H1828 H 0.06598 0.80979 0.57234 0.0
H1829 H 0.0818 0.80499 0.60098 0.0
H1830 H 0.15938 0.81667 0.60564 0.0
C1831 C 0.17986 0.80444 0.66695 0.0
C1832 C 0.12623 0.79479 0.64034 0.0
C1833 C 0.18746 0.80714 0.68371 0.0
C1834 C 0.08506 0.80785 0.57393 0.0
C1835 C 0.09418 0.80513 0.59031 0.0
C1836 C 0.15012 0.81026 0.61506 0.0
C1837 C 0.15516 0.80369 0.66292 0.0
C1838 C 0.14687 0.80266 0.64477 0.0
C1839 C 0.11913 0.80361 0.593 0.0
C1840 C 0.1292 0.80266 0.61068 0.0
H1841 H 0.13264 0.80932 0.70293 0.0
H1842 H 0.11923 0.80468 0.67373 0.0
H1843 H 0.17444 0.81668 0.63476 0.0
H1844 H 0.13775 0.80784 0.55174 0.0
H1845 H 0.15375 0.80274 0.58021 0.0
C1846 C 0.18788 0.44738 0.57383 0.0
C1847 C 0.17124 0.44521 0.56062 0.0
C1848 C 0.17993 0.45004 0.59052 0.0
C1849 C 0.12557 0.45892 0.61679 0.0
H1850 H 0.15884 0.43718 0.65155 0.0
C1851 C 0.08371 0.44515 0.68279 0.0
C1852 C 0.09911 0.44413 0.69692 0.0
C1853 C 0.09302 0.44795 0.66648 0.0
C1854 C 0.14953 0.44355 0.64212 0.0
H1855 H 0.13344 0.44454 0.55421 0.0
H1856 H 0.11943 0.44914 0.58327 0.0
H1857 H 0.17441 0.43756 0.62257 0.0
H1858 H 0.13603 0.44563 0.7054 0.0
H1859 H 0.15236 0.45084 0.67705 0.0
H1860 H 0.10032 0.46459 0.63638 0.0
C1861 C 0.1386 0.44903 0.58086 0.0
C1862 C 0.15852 0.44378 0.62542 0.0
C1863 C 0.14658 0.44639 0.56419 0.0
C1864 C 0.12382 0.44651 0.69466 0.0
C1865 C 0.13314 0.44932 0.6784 0.0
C1866 C 0.11655 0.45868 0.63353 0.0
C1867 C 0.15515 0.4505 0.59436 0.0
C1868 C 0.14655 0.45134 0.61246 0.0
C1869 C 0.11797 0.4497 0.66399 0.0
C1870 C 0.12828 0.45086 0.6464 0.0
H1871 H 0.20698 0.44634 0.57138 0.0
H1872 H 0.19321 0.45134 0.60052 0.0
H1873 H 0.11602 0.46501 0.60722 0.0
H1874 H 0.06464 0.44311 0.68424 0.0
H1875 H 0.0808 0.448 0.65571 0.0
C1876 C 0.8754 0.19682 0.31235 0.0
C1877 C 0.85069 0.19459 0.30989 0.0
C1878 C 0.88456 0.1994 0.32871 0.0
C1879 C 0.86763 0.20837 0.37362 0.0
H1880 H 0.92488 0.18669 0.38458 0.0
C1881 C 0.8968 0.19561 0.44302 0.0
C1882 C 0.92141 0.19427 0.44669 0.0
C1883 C 0.88901 0.19825 0.42631 0.0
C1884 C 0.90916 0.19305 0.38173 0.0
H1885 H 0.81605 0.19361 0.32235 0.0
H1886 H 0.83192 0.19814 0.35105 0.0
H1887 H 0.90963 0.18671 0.35551 0.0
H1888 H 0.95725 0.19509 0.43605 0.0
H1889 H 0.94381 0.20008 0.40684 0.0
H1890 H 0.86696 0.21447 0.4 0.0
C1891 C 0.84427 0.19813 0.34035 0.0
C1892 C 0.90036 0.19306 0.36498 0.0
C1893 C 0.83512 0.19555 0.32395 0.0
C1894 C 0.93819 0.19623 0.43352 0.0
C1895 C 0.93042 0.1989 0.41679 0.0
C1896 C 0.87648 0.20838 0.3904 0.0
C1897 C 0.86922 0.1997 0.34302 0.0
C1898 C 0.87934 0.20059 0.3607 0.0
C1899 C 0.90568 0.19958 0.41286 0.0
C1900 C 0.89724 0.20059 0.39474 0.0
H1901 H 0.88773 0.19597 0.30167 0.0
H1902 H 0.90378 0.2008 0.3302 0.0
H1903 H 0.85157 0.21443 0.37077 0.0
H1904 H 0.88355 0.19394 0.45297 0.0
H1905 H 0.86985 0.19851 0.42383 0.0
C1906 C 0.89398 0.55777 0.31231 0.0
C1907 C 0.91868 0.56006 0.30988 0.0
C1908 C 0.88482 0.55513 0.32866 0.0
C1909 C 0.90174 0.54604 0.37351 0.0
H1910 H 0.84444 0.56763 0.38459 0.0
C1911 C 0.8725 0.55847 0.44298 0.0
C1912 C 0.84789 0.55982 0.44665 0.0
C1913 C 0.8803 0.5559 0.42626 0.0
C1914 C 0.86017 0.56129 0.38171 0.0
H1915 H 0.95331 0.56108 0.32234 0.0
H1916 H 0.93743 0.55644 0.35102 0.0
H1917 H 0.85971 0.56774 0.35552 0.0
H1918 H 0.81206 0.55907 0.436 0.0
H1919 H 0.82551 0.55418 0.40676 0.0
H1920 H 0.90239 0.53982 0.39985 0.0
C1921 C 0.92509 0.55646 0.34032 0.0
C1922 C 0.86899 0.56136 0.36496 0.0
C1923 C 0.93424 0.55909 0.32393 0.0
C1924 C 0.83112 0.55793 0.43347 0.0
C1925 C 0.8389 0.55531 0.41672 0.0
C1926 C 0.89287 0.54594 0.39029 0.0
C1927 C 0.90016 0.55482 0.34297 0.0
C1928 C 0.89003 0.55386 0.36064 0.0
C1929 C 0.86364 0.55464 0.41279 0.0
C1930 C 0.8721 0.5537 0.39467 0.0
H1931 H 0.88165 0.55862 0.30164 0.0
H1932 H 0.8656 0.5537 0.33014 0.0
H1933 H 0.91781 0.53999 0.37062 0.0
H1934 H 0.88575 0.56009 0.45295 0.0
H1935 H 0.89946 0.55563 0.42378 0.0
C1936 C 0.63068 0.31301 0.56166 0.0
C1937 C 0.60573 0.31209 0.55906 0.0
C1938 C 0.64055 0.31087 0.5779 0.0
C1939 C 0.62236 0.31184 0.62373 0.0
H1940 H 0.68826 0.29972 0.63099 0.0
C1941 C 0.66243 0.3073 0.69128 0.0
C1942 C 0.68388 0.31489 0.69381 0.0
C1943 C 0.65394 0.30461 0.67478 0.0
C1944 C 0.66983 0.30314 0.62914 0.0
H1945 H 0.57163 0.30755 0.57114 0.0
H1946 H 0.58886 0.30293 0.59934 0.0
H1947 H 0.67081 0.29847 0.60239 0.0
H1948 H 0.71386 0.32508 0.68121 0.0
H1949 H 0.69932 0.32006 0.65215 0.0
H1950 H 0.62139 0.3163 0.65055 0.0
C1951 C 0.60086 0.30579 0.58901 0.0
C1952 C 0.65979 0.30249 0.61271 0.0
C1953 C 0.59095 0.30817 0.57279 0.0
C1954 C 0.69742 0.31906 0.67953 0.0
C1955 C 0.68906 0.31622 0.66296 0.0
C1956 C 0.63226 0.31225 0.64015 0.0
C1957 C 0.62575 0.30756 0.59196 0.0
C1958 C 0.63597 0.30702 0.60969 0.0
C1959 C 0.66684 0.30934 0.66043 0.0
C1960 C 0.65619 0.30806 0.64303 0.0
H1961 H 0.64241 0.31616 0.55127 0.0
H1962 H 0.65968 0.31254 0.57951 0.0
H1963 H 0.60421 0.31576 0.62203 0.0
H1964 H 0.65163 0.30399 0.70208 0.0
H1965 H 0.63691 0.29916 0.67325 0.0
C1966 C 0.58173 0.94716 0.68337 0.0
C1967 C 0.59841 0.94486 0.69652 0.0
C1968 C 0.58962 0.94991 0.66668 0.0
C1969 C 0.64396 0.9588 0.64039 0.0
H1970 H 0.61016 0.93759 0.6054 0.0
C1971 C 0.68518 0.9454 0.57406 0.0
C1972 C 0.66966 0.94462 0.55997 0.0
C1973 C 0.67602 0.94812 0.59044 0.0
C1974 C 0.61962 0.94381 0.6149 0.0
H1975 H 0.63624 0.944 0.70282 0.0
H1976 H 0.65015 0.94871 0.67376 0.0
H1977 H 0.59479 0.93774 0.63444 0.0
H1978 H 0.63273 0.94648 0.55163 0.0
H1979 H 0.61669 0.95155 0.5801 0.0
H1980 H 0.66917 0.96453 0.62081 0.0
C1981 C 0.63099 0.94867 0.67623 0.0
C1982 C 0.61075 0.94391 0.63163 0.0
C1983 C 0.62307 0.94595 0.69289 0.0
C1984 C 0.64503 0.94718 0.56234 0.0
C1985 C 0.63586 0.9499 0.57867 0.0
C1986 C 0.65288 0.95868 0.62362 0.0
C1987 C 0.61439 0.9503 0.66278 0.0
C1988 C 0.6229 0.95127 0.64468 0.0
C1989 C 0.65113 0.95002 0.59303 0.0
C1990 C 0.64094 0.95106 0.61067 0.0
H1991 H 0.56263 0.94619 0.68586 0.0
H1992 H 0.5763 0.95133 0.65674 0.0
H1993 H 0.65366 0.96474 0.65002 0.0
H1994 H 0.70419 0.94322 0.57252 0.0
H1995 H 0.68831 0.94798 0.60117 0.0
C1996 C 0.37433 0.69598 0.31257 0.0
C1997 C 0.34963 0.6937 0.31017 0.0
C1998 C 0.38354 0.69863 0.32891 0.0
C1999 C 0.36671 0.70777 0.37378 0.0
H2000 H 0.42416 0.68629 0.3848 0.0
C2001 C 0.39627 0.69548 0.44323 0.0
C2002 C 0.4209 0.69423 0.44686 0.0
C2003 C 0.38839 0.698 0.42652 0.0
C2004 C 0.40838 0.69261 0.38193 0.0
H2005 H 0.31503 0.69271 0.32268 0.0
H2006 H 0.33098 0.69736 0.35134 0.0
H2007 H 0.40879 0.68612 0.35575 0.0
H2008 H 0.45669 0.69509 0.43614 0.0
H2009 H 0.44309 0.69987 0.40692 0.0
H2010 H 0.36611 0.71402 0.40012 0.0
C2011 C 0.3433 0.69733 0.34062 0.0
C2012 C 0.39951 0.6925 0.3652 0.0
C2013 C 0.3341 0.69469 0.32424 0.0
C2014 C 0.43761 0.69616 0.43364 0.0
C2015 C 0.42975 0.69871 0.4169 0.0
C2016 C 0.37563 0.7079 0.39055 0.0
C2017 C 0.36824 0.69896 0.34325 0.0
C2018 C 0.37842 0.69996 0.3609 0.0
C2019 C 0.40499 0.6993 0.41302 0.0
C2020 C 0.39646 0.70019 0.39491 0.0
H2021 H 0.38663 0.69512 0.30188 0.0
H2022 H 0.40276 0.70007 0.33036 0.0
H2023 H 0.3506 0.71379 0.37092 0.0
H2024 H 0.38307 0.69383 0.45322 0.0
H2025 H 0.36922 0.6982 0.42407 0.0
C2026 C 0.33579 0.05885 0.43358 0.0
C2027 C 0.35133 0.06 0.44763 0.0
C2028 C 0.345 0.05622 0.4172 0.0
C2029 C 0.40102 0.06143 0.39254 0.0
H2030 H 0.36801 0.03958 0.35774 0.0
C2031 C 0.43895 0.05798 0.32404 0.0
C2032 C 0.42215 0.05975 0.31085 0.0
C2033 C 0.43122 0.05539 0.34081 0.0
C2034 C 0.37741 0.04579 0.36728 0.0
H2035 H 0.38839 0.05888 0.45588 0.0
H2036 H 0.40455 0.05396 0.4274 0.0
H2037 H 0.3526 0.03974 0.38697 0.0
H2038 H 0.38429 0.05981 0.30456 0.0
H2039 H 0.37065 0.05538 0.33375 0.0
H2040 H 0.42546 0.0678 0.37289 0.0
C2041 C 0.3853 0.05525 0.42887 0.0
C2042 C 0.36855 0.04588 0.38406 0.0
C2043 C 0.37608 0.05789 0.44521 0.0
C2044 C 0.39756 0.0583 0.31454 0.0
C2045 C 0.3898 0.05574 0.33127 0.0
C2046 C 0.40984 0.06137 0.37579 0.0
C2047 C 0.36997 0.05477 0.41456 0.0
C2048 C 0.38012 0.05381 0.3969 0.0
C2049 C 0.40649 0.0546 0.34474 0.0
C2050 C 0.39805 0.05367 0.36286 0.0
H2051 H 0.31668 0.06069 0.43516 0.0
H2052 H 0.33266 0.05607 0.4065 0.0
H2053 H 0.41018 0.0679 0.40196 0.0
H2054 H 0.458 0.05921 0.3215 0.0
H2055 H 0.44462 0.05436 0.35076 0.0
C2056 C 0.64692 0.8083 0.19326 0.0
C2057 C 0.67154 0.80964 0.1969 0.0
C2058 C 0.63911 0.80557 0.17658 0.0
C2059 C 0.65918 0.81048 0.13195 0.0
H2060 H 0.60153 0.78907 0.12122 0.0
C2061 C 0.62504 0.80671 0.0627 0.0
C2062 C 0.60035 0.80906 0.06035 0.0
C2063 C 0.63429 0.80401 0.07901 0.0
C2064 C 0.61761 0.79514 0.124 0.0
H2065 H 0.70737 0.80875 0.18625 0.0
H2066 H 0.69388 0.8036 0.15709 0.0
H2067 H 0.61703 0.78917 0.15043 0.0
H2068 H 0.5658 0.81009 0.07293 0.0
H2069 H 0.58181 0.80535 0.10154 0.0
H2070 H 0.65956 0.8167 0.10568 0.0
C2071 C 0.68051 0.80485 0.16703 0.0
C2072 C 0.62651 0.79521 0.14077 0.0
C2073 C 0.6883 0.80761 0.18374 0.0
C2074 C 0.58485 0.80804 0.07444 0.0
C2075 C 0.59409 0.80535 0.0908 0.0
C2076 C 0.65033 0.8104 0.11521 0.0
C2077 C 0.65576 0.80415 0.16313 0.0
C2078 C 0.64729 0.80302 0.14503 0.0
C2079 C 0.61904 0.80372 0.09338 0.0
C2080 C 0.62927 0.80285 0.11102 0.0
H2081 H 0.63368 0.81002 0.20321 0.0
H2082 H 0.61995 0.80529 0.17411 0.0
H2083 H 0.67491 0.81686 0.13473 0.0
H2084 H 0.63732 0.80762 0.052 0.0
H2085 H 0.65351 0.80257 0.08043 0.0
C2086 C 0.68806 0.44724 0.07315 0.0
C2087 C 0.67131 0.4451 0.06001 0.0
C2088 C 0.68024 0.44998 0.08986 0.0
C2089 C 0.62611 0.4591 0.11625 0.0
H2090 H 0.65954 0.43747 0.15105 0.0
C2091 C 0.58467 0.44553 0.18243 0.0
C2092 C 0.60017 0.4446 0.19652 0.0
C2093 C 0.59387 0.44829 0.16608 0.0
C2094 C 0.65019 0.44381 0.1416 0.0
H2095 H 0.63346 0.44453 0.05372 0.0
H2096 H 0.61969 0.44922 0.08282 0.0
H2097 H 0.6749 0.43769 0.12201 0.0
H2098 H 0.63712 0.44623 0.20489 0.0
H2099 H 0.65325 0.45137 0.17646 0.0
H2100 H 0.60101 0.46488 0.13588 0.0
C2101 C 0.63884 0.44905 0.08034 0.0
C2102 C 0.65906 0.44394 0.12487 0.0
C2103 C 0.64668 0.44635 0.06366 0.0
C2104 C 0.62484 0.44704 0.19418 0.0
C2105 C 0.63405 0.44981 0.17788 0.0
C2106 C 0.6172 0.45894 0.13302 0.0
C2107 C 0.6555 0.45052 0.09378 0.0
C2108 C 0.64703 0.45146 0.11189 0.0
C2109 C 0.61879 0.45009 0.16352 0.0
C2110 C 0.629 0.45117 0.14589 0.0
H2111 H 0.70713 0.44616 0.07064 0.0
H2112 H 0.69361 0.45127 0.09981 0.0
H2113 H 0.61652 0.46516 0.10667 0.0
H2114 H 0.56563 0.44343 0.18395 0.0
H2115 H 0.58159 0.44828 0.15535 0.0
C2116 C 0.33408 0.1951 0.8249 0.0
C2117 C 0.34956 0.19405 0.81081 0.0
C2118 C 0.34334 0.19775 0.84126 0.0
C2119 C 0.39952 0.19269 0.86574 0.0
H2120 H 0.3664 0.21428 0.90072 0.0
C2121 C 0.43752 0.19592 0.9342 0.0
C2122 C 0.42075 0.19398 0.94737 0.0
C2123 C 0.42975 0.1986 0.91747 0.0
C2124 C 0.37583 0.20815 0.89113 0.0
H2125 H 0.38655 0.19534 0.80246 0.0
H2126 H 0.4028 0.20029 0.8309 0.0
H2127 H 0.3509 0.2142 0.87151 0.0
H2128 H 0.38289 0.19368 0.95368 0.0
H2129 H 0.36918 0.19827 0.92455 0.0
H2130 H 0.42406 0.18632 0.88532 0.0
C2131 C 0.38356 0.19892 0.82948 0.0
C2132 C 0.36693 0.20811 0.87436 0.0
C2133 C 0.37429 0.19626 0.81317 0.0
C2134 C 0.39614 0.19534 0.94372 0.0
C2135 C 0.38834 0.19799 0.92702 0.0
C2136 C 0.40838 0.19271 0.88247 0.0
C2137 C 0.3683 0.19931 0.84383 0.0
C2138 C 0.37853 0.20026 0.86146 0.0
C2139 C 0.40501 0.1993 0.91357 0.0
C2140 C 0.39654 0.20032 0.89546 0.0
H2141 H 0.31499 0.19318 0.82337 0.0
H2142 H 0.33106 0.19783 0.85199 0.0
H2143 H 0.40871 0.18629 0.85627 0.0
H2144 H 0.45658 0.19477 0.93673 0.0
H2145 H 0.44312 0.19977 0.90752 0.0
C2146 C 0.4347 0.5587 0.82374 0.0
C2147 C 0.41908 0.5596 0.80971 0.0
C2148 C 0.42561 0.55611 0.84016 0.0
C2149 C 0.36957 0.56103 0.86487 0.0
H2150 H 0.40314 0.53965 0.89981 0.0
C2151 C 0.33186 0.55773 0.93343 0.0
C2152 C 0.34865 0.55967 0.94659 0.0
C2153 C 0.33962 0.55509 0.91668 0.0
C2154 C 0.39359 0.54573 0.89023 0.0
H2155 H 0.38203 0.55808 0.80154 0.0
H2156 H 0.3661 0.55324 0.83009 0.0
H2157 H 0.41849 0.53975 0.87056 0.0
H2158 H 0.38652 0.56003 0.95285 0.0
H2159 H 0.4002 0.55553 0.92369 0.0
H2160 H 0.34505 0.56734 0.8845 0.0
C2161 C 0.3853 0.55469 0.82857 0.0
C2162 C 0.4024 0.54578 0.87344 0.0
C2163 C 0.3944 0.55729 0.8122 0.0
C2164 C 0.37326 0.55837 0.9429 0.0
C2165 C 0.38104 0.55577 0.92618 0.0
C2166 C 0.3608 0.56101 0.88163 0.0
C2167 C 0.40069 0.55446 0.84286 0.0
C2168 C 0.39062 0.55354 0.86055 0.0
C2169 C 0.36436 0.55445 0.91273 0.0
C2170 C 0.37279 0.55348 0.89461 0.0
H2171 H 0.45375 0.56071 0.82211 0.0
H2172 H 0.43799 0.55615 0.85084 0.0
H2173 H 0.36025 0.56737 0.85541 0.0
H2174 H 0.3128 0.55884 0.93597 0.0
H2175 H 0.32623 0.55391 0.90674 0.0
C2176 C 0.93886 0.22037 0.23401 0.0
C2177 C 0.93224 0.21187 0.24804 0.0
C2178 C 0.95806 0.22997 0.23517 0.0
C2179 C 0.99413 0.25013 0.26696 0.0
H2180 H 0.0366 0.25679 0.22851 0.0
C2181 C 0.07997 0.28496 0.27236 0.0
C2182 C 0.08679 0.29337 0.2583 0.0
C2183 C 0.06072 0.2754 0.27117 0.0
C2184 C 0.02472 0.25523 0.23931 0.0
H2185 H 0.9412 0.2067 0.27426 0.0
H2186 H 0.97497 0.22325 0.27621 0.0
H2187 H 1.005 0.23893 0.22631 0.0
H2188 H 0.0781 0.29845 0.23202 0.0
H2189 H 0.0442 0.282 0.23003 0.0
H2190 H 0.01382 0.26644 0.27996 0.0
C2191 C 0.96505 0.22263 0.26433 0.0
C2192 C 1.00657 0.24492 0.23806 0.0
C2193 C 0.94585 0.21297 0.26314 0.0
C2194 C 0.0733 0.29225 0.24315 0.0
C2195 C 0.05403 0.28264 0.24195 0.0
C2196 C 0.01226 0.26044 0.26821 0.0
C2197 C 0.97126 0.2314 0.25042 0.0
C2198 C 0.99099 0.2422 0.25187 0.0
C2199 C 0.04764 0.27394 0.25588 0.0
C2200 C 0.02786 0.26316 0.25441 0.0
H2201 H 0.92901 0.21973 0.2221 0.0
H2202 H 0.9621 0.23657 0.22422 0.0
H2203 H 0.98225 0.24856 0.27776 0.0
H2204 H 0.08972 0.28563 0.28431 0.0
H2205 H 0.05655 0.26885 0.28215 0.0
C2206 C 0.2045 0.95692 0.25713 0.0
C2207 C 0.18078 0.96202 0.25582 0.0
C2208 C 0.22416 0.96628 0.25614 0.0
C2209 C 0.24132 0.00275 0.24169 0.0
H2210 H 0.29532 0.9976 0.27235 0.0
C2211 C 0.31699 0.04512 0.24843 0.0
C2212 C 0.34076 0.0401 0.24977 0.0
C2213 C 0.29743 0.03568 0.2493 0.0
C2214 C 0.28052 0.99914 0.26355 0.0
H2215 H 0.15939 0.98101 0.25173 0.0
H2216 H 0.19335 0.99721 0.25035 0.0
H2217 H 0.26197 0.98079 0.273 0.0
H2218 H 0.36234 0.02117 0.25373 0.0
H2219 H 0.32854 0.00483 0.25491 0.0
H2220 H 0.25986 0.02111 0.23225 0.0
C2221 C 0.19691 0.98599 0.25209 0.0
C2222 C 0.26136 0.98944 0.26391 0.0
C2223 C 0.17734 0.97668 0.25311 0.0
C2224 C 0.34436 0.02544 0.25234 0.0
C2225 C 0.32488 0.01605 0.25325 0.0
C2226 C 0.26048 0.01245 0.24134 0.0
C2227 C 0.22063 0.98098 0.25368 0.0
C2228 C 0.24144 0.99111 0.253 0.0
C2229 C 0.3011 0.02099 0.25166 0.0
C2230 C 0.28039 0.01079 0.25226 0.0
H2231 H 0.20788 0.94573 0.25927 0.0
H2232 H 0.24216 0.96197 0.25722 0.0
H2233 H 0.22652 0.0043 0.23289 0.0
H2234 H 0.31348 0.0563 0.24639 0.0
H2235 H 0.27939 0.03993 0.24822 0.0
C2236 C 0.09342 0.97817 1.00214 0.0
C2237 C 0.08961 0.9635 0.99985 0.0
C2238 C 0.07407 0.98764 1.00314 0.0
C2239 C 1.00838 0.98976 0.01156 0.0
H2240 H 0.01465 0.02656 0.98973 0.0
C2241 C 0.93882 0.03462 0.02267 0.0
C2242 C 0.93201 0.04303 0.0086 0.0
C2243 C 0.9581 0.02509 0.02149 0.0
C2244 C 0.01246 0.01631 0.9958 0.0
H2245 H 0.06209 0.94735 0.99714 0.0
H2246 H 0.02821 0.9639 0.99889 0.0
H2247 H 0.04728 0.00937 0.98759 0.0
H2248 H 0.94062 0.04805 0.98228 0.0
H2249 H 0.97429 0.03146 0.98023 0.0
H2250 H 0.97337 0.99662 0.01951 0.0
C2251 C 0.0463 0.96806 1.0 0.0
C2252 C 0.03135 0.00648 0.99474 0.0
C2253 C 0.06575 0.95854 0.99899 0.0
C2254 C 0.9455 0.0419 0.99345 0.0
C2255 C 0.96482 0.03233 0.99226 0.0
C2256 C 0.98949 0.99961 0.01264 0.0
C2257 C 0.05021 0.98278 1.00193 0.0
C2258 C 0.02966 0.99308 1.00269 0.0
C2259 C 0.97122 0.02365 0.00621 0.0
C2260 C 0.99129 0.01307 0.00484 0.0
H2261 H 0.11147 0.98239 1.0033 0.0
H2262 H 0.07786 0.99881 0.00506 0.0
H2263 H 1.00643 0.97963 0.01795 0.0
H2264 H 0.92916 0.03537 0.03465 0.0
H2265 H 0.96277 0.01886 0.03264 0.0
C2266 C 0.32412 0.21266 0.99436 0.0
C2267 C 0.3375 0.2115 0.00956 0.0
C2268 C 0.30492 0.22229 0.99308 0.0
C2269 C 0.2629 0.2444 0.01915 0.0
H2270 H 0.25611 0.26601 0.97728 0.0
C2271 C 0.19616 0.29166 0.01376 0.0
C2272 C 0.18282 0.29279 0.99853 0.0
C2273 C 0.2154 0.28205 0.01506 0.0
C2274 C 0.25754 0.25998 0.98902 0.0
H2275 H 0.34033 0.21927 0.03557 0.0
H2276 H 0.30723 0.2361 0.03329 0.0
H2277 H 0.28779 0.24822 0.97965 0.0
H2278 H 0.18012 0.28503 0.97252 0.0
H2279 H 0.21327 0.26824 0.97484 0.0
H2280 H 0.23265 0.25616 0.02852 0.0
C2281 C 0.31146 0.22955 0.02233 0.0
C2282 C 0.27575 0.24972 0.99037 0.0
C2283 C 0.33066 0.21996 0.02358 0.0
C2284 C 0.18975 0.28435 0.98451 0.0
C2285 C 0.20898 0.27479 0.9858 0.0
C2286 C 0.2447 0.25466 0.0178 0.0
C2287 C 0.29848 0.231 0.00699 0.0
C2288 C 0.27871 0.24177 0.00545 0.0
C2289 C 0.22192 0.27335 1.00115 0.0
C2290 C 0.24172 0.26261 1.00271 0.0
H2291 H 0.32894 0.20643 0.98324 0.0
H2292 H 0.29517 0.22294 0.98113 0.0
H2293 H 0.26434 0.23837 0.03088 0.0
H2294 H 0.19127 0.29788 0.02487 0.0
H2295 H 0.22512 0.28141 0.02702 0.0
C2296 C 0.93802 0.71957 0.73446 0.0
C2297 C 0.93153 0.71091 0.74838 0.0
C2298 C 0.9573 0.72912 0.73567 0.0
C2299 C 0.01194 0.73785 0.76125 0.0
H2300 H 1.00434 0.77503 0.74062 0.0
C2301 C 0.08083 0.78298 0.77306 0.0
C2302 C 0.08729 0.79164 0.75913 0.0
C2303 C 0.06158 0.77341 0.77186 0.0
C2304 C 1.00693 0.76466 0.7463 0.0
H2305 H 0.94075 0.70544 0.77446 0.0
H2306 H 0.97438 0.72205 0.77658 0.0
H2307 H 0.97213 0.75758 0.7382 0.0
H2308 H 0.07805 0.79707 0.73304 0.0
H2309 H 0.04447 0.78043 0.73094 0.0
H2310 H 0.04674 0.74493 0.76935 0.0
C2311 C 0.96467 0.72137 0.76462 0.0
C2312 C 0.9884 0.7546 0.7449 0.0
C2313 C 0.94536 0.71179 0.7634 0.0
C2314 C 0.07346 0.79073 0.74411 0.0
C2315 C 0.05418 0.78113 0.7429 0.0
C2316 C 0.03047 0.74791 0.76265 0.0
C2317 C 0.97073 0.73032 0.75084 0.0
C2318 C 0.99062 0.74103 0.75234 0.0
C2319 C 0.04815 0.77219 0.75669 0.0
C2320 C 0.02826 0.76148 0.75521 0.0
H2321 H 0.92811 0.71903 0.72257 0.0
H2322 H 0.96169 0.73556 0.72464 0.0
H2323 H 0.01453 0.72748 0.76693 0.0
H2324 H 0.09073 0.78354 0.78495 0.0
H2325 H 0.0572 0.76698 0.78289 0.0
C2326 C 0.67666 0.9768 0.75317 0.0
C2327 C 0.68014 0.96214 0.75577 0.0
C2328 C 0.69621 0.98613 0.75213 0.0
C2329 C 0.76078 0.98956 0.76367 0.0
H2330 H 0.75887 0.02143 0.73232 0.0
C2331 C 0.84357 0.02571 0.75198 0.0
C2332 C 0.83992 0.04038 0.74954 0.0
C2333 C 0.82412 0.0163 0.75292 0.0
C2334 C 0.7596 0.01271 0.74132 0.0
H2335 H 0.70729 0.94584 0.75899 0.0
H2336 H 0.74153 0.96211 0.75689 0.0
H2337 H 0.72558 0.00458 0.73297 0.0
H2338 H 0.81256 0.05658 0.74646 0.0
H2339 H 0.77853 0.04017 0.74835 0.0
H2340 H 0.79482 0.99769 0.77201 0.0
C2341 C 0.72352 0.96641 0.75592 0.0
C2342 C 0.74048 0.00299 0.74168 0.0
C2343 C 0.70388 0.95704 0.75694 0.0
C2344 C 0.81612 0.04539 0.74839 0.0
C2345 C 0.79659 0.03593 0.74929 0.0
C2346 C 0.77992 0.99927 0.7633 0.0
C2347 C 0.71995 0.98112 0.75358 0.0
C2348 C 0.74074 0.99127 0.75288 0.0
C2349 C 0.80032 0.02122 0.7515 0.0
C2350 C 0.77963 0.011 0.75212 0.0
H2351 H 0.6587 0.98114 0.75191 0.0
H2352 H 0.69261 0.99735 0.75049 0.0
H2353 H 0.76151 0.98084 0.77268 0.0
H2354 H 0.86158 0.02145 0.75322 0.0
H2355 H 0.82783 0.00508 0.75446 0.0
C2356 C 0.70432 0.79722 0.99984 0.0
C2357 C 0.68057 0.79214 1.00108 0.0
C2358 C 0.72394 0.78783 1.00083 0.0
C2359 C 0.74088 0.75127 0.01513 0.0
H2360 H 0.79511 0.7565 0.98467 0.0
C2361 C 0.81649 0.70887 0.0084 0.0
C2362 C 0.84029 0.71389 0.00724 0.0
C2363 C 0.79695 0.71832 0.00748 0.0
C2364 C 0.78024 0.75494 0.99341 0.0
H2365 H 0.6591 0.77316 0.00504 0.0
H2366 H 0.69299 0.75692 0.00641 0.0
H2367 H 0.76181 0.77335 0.98402 0.0
H2368 H 0.86194 0.73283 1.00353 0.0
H2369 H 0.82816 0.74918 1.00225 0.0
H2370 H 0.7593 0.73285 0.02451 0.0
C2371 C 0.6966 0.76814 0.00473 0.0
C2372 C 0.76111 0.76466 0.99306 0.0
C2373 C 0.67707 0.77748 0.00372 0.0
C2374 C 0.84393 0.72856 0.00478 0.0
C2375 C 0.82447 0.73796 0.00382 0.0
C2376 C 0.76 0.74155 0.01548 0.0
C2377 C 0.72035 0.77313 1.00321 0.0
C2378 C 0.74111 0.76297 0.00389 0.0
C2379 C 0.80068 0.73303 0.00525 0.0
C2380 C 0.77999 0.74324 0.00463 0.0
H2381 H 0.70775 0.80841 0.99777 0.0
H2382 H 0.74196 0.79212 0.99982 0.0
H2383 H 0.72603 0.74971 0.02388 0.0
H2384 H 0.81296 0.69768 0.01035 0.0
H2385 H 0.7789 0.71408 0.00843 0.0
C2386 C 0.32976 0.53364 0.7342 0.0
C2387 C 0.33647 0.54219 0.74818 0.0
C2388 C 0.31044 0.52412 0.73541 0.0
C2389 C 0.25593 0.51537 0.76109 0.0
H2390 H 0.26308 0.47829 0.74011 0.0
C2391 C 0.18647 0.47044 0.77253 0.0
C2392 C 0.18005 0.46178 0.75858 0.0
C2393 C 0.20578 0.47997 0.77139 0.0
C2394 C 0.2606 0.48864 0.74589 0.0
H2395 H 0.32755 0.54746 0.77438 0.0
H2396 H 0.29383 0.53092 0.77649 0.0
H2397 H 0.29545 0.49565 0.73778 0.0
H2398 H 0.1894 0.45635 0.73251 0.0
H2399 H 0.22305 0.47295 0.7305 0.0
H2400 H 0.22107 0.50837 0.76918 0.0
C2401 C 0.30343 0.53167 0.76449 0.0
C2402 C 0.27923 0.49864 0.74454 0.0
C2403 C 0.32279 0.54121 0.76327 0.0
C2404 C 0.19396 0.46269 0.74359 0.0
C2405 C 0.21328 0.47226 0.74244 0.0
C2406 C 0.23729 0.50537 0.76243 0.0
C2407 C 0.29716 0.52283 0.75064 0.0
C2408 C 0.27719 0.51217 0.75211 0.0
C2409 C 0.21932 0.48118 0.75626 0.0
C2410 C 0.23933 0.49184 0.75486 0.0
H2411 H 0.33952 0.53426 0.72225 0.0
H2412 H 0.30589 0.51777 0.72434 0.0
H2413 H 0.25347 0.52572 0.76688 0.0
H2414 H 0.1765 0.46988 0.7844 0.0
H2415 H 0.21013 0.48639 0.78245 0.0
C2416 C 0.92568 0.52575 0.50486 0.0
C2417 C 0.92928 0.54041 0.50741 0.0
C2418 C 0.94515 0.51635 0.50395 0.0
C2419 C 1.00959 0.51276 0.51582 0.0
H2420 H 1.00798 0.48097 0.48434 0.0
C2421 C 0.09269 0.47693 0.50411 0.0
C2422 C 0.08924 0.46226 0.50148 0.0
C2423 C 0.07311 0.48624 0.50513 0.0
C2424 C 1.00862 0.48966 0.49338 0.0
H2425 H 0.95658 0.55661 0.51074 0.0
H2426 H 0.99066 0.54023 0.50889 0.0
H2427 H 0.97465 0.4978 0.48494 0.0
H2428 H 0.06213 0.44595 0.49817 0.0
H2429 H 0.02785 0.4622 0.5002 0.0
H2430 H 0.04356 0.50464 0.52427 0.0
C2431 C 0.97262 0.53598 0.50784 0.0
C2432 C 0.98947 0.49937 0.49371 0.0
C2433 C 0.95306 0.54543 0.50871 0.0
C2434 C 0.06551 0.45715 0.50024 0.0
C2435 C 0.04585 0.46651 0.50122 0.0
C2436 C 0.02874 0.50306 0.5155 0.0
C2437 C 0.96893 0.52128 0.50552 0.0
C2438 C 0.98965 0.51108 0.50494 0.0
C2439 C 0.04938 0.48122 0.5036 0.0
C2440 C 0.02858 0.49137 0.50426 0.0
H2441 H 0.90769 0.52148 0.5035 0.0
H2442 H 0.94148 0.50513 0.50231 0.0
H2443 H 0.01025 0.52147 0.52486 0.0
H2444 H 0.11063 0.48127 0.50542 0.0
H2445 H 0.07668 0.49747 0.5068 0.0
C2446 C 0.33089 0.72052 0.52326 0.0
C2447 C 0.33769 0.71218 0.50913 0.0
C2448 C 0.31178 0.73018 0.52212 0.0
C2449 C 0.25803 0.73978 0.49606 0.0
H2450 H 0.26542 0.77642 0.5181 0.0
C2451 C 0.19 0.78536 0.48471 0.0
C2452 C 0.18306 0.79367 0.49883 0.0
C2453 C 0.2092 0.77577 0.48588 0.0
C2454 C 0.26289 0.7662 0.51201 0.0
H2455 H 0.32919 0.70741 0.48273 0.0
H2456 H 0.29584 0.72422 0.48071 0.0
H2457 H 0.29735 0.75878 0.5204 0.0
H2458 H 0.19146 0.7985 0.52523 0.0
H2459 H 0.22498 0.78179 0.5273 0.0
H2460 H 0.22357 0.7472 0.48768 0.0
C2461 C 0.30518 0.72319 0.49279 0.0
C2462 C 0.28125 0.75603 0.51334 0.0
C2463 C 0.32432 0.7135 0.49394 0.0
C2464 C 0.19642 0.79242 0.51403 0.0
C2465 C 0.21566 0.78279 0.51521 0.0
C2466 C 0.23967 0.74995 0.49473 0.0
C2467 C 0.29883 0.73183 0.50679 0.0
C2468 C 0.27912 0.74266 0.50539 0.0
C2469 C 0.2221 0.77415 0.50122 0.0
C2470 C 0.24181 0.76333 0.50267 0.0
H2471 H 0.34043 0.71963 0.53528 0.0
H2472 H 0.30714 0.73637 0.5333 0.0
H2473 H 0.25549 0.72956 0.48998 0.0
H2474 H 0.18046 0.7862 0.47269 0.0
H2475 H 0.21391 0.76959 0.4747 0.0
C2476 C 0.83025 0.53432 0.23391 0.0
C2477 C 0.83699 0.54282 0.24793 0.0
C2478 C 0.811 0.52477 0.23512 0.0
C2479 C 0.77474 0.5048 0.26699 0.0
H2480 H 0.73219 0.49824 0.22856 0.0
C2481 C 0.68851 0.47028 0.27238 0.0
C2482 C 0.68184 0.46176 0.25837 0.0
C2483 C 0.70778 0.47983 0.2712 0.0
C2484 C 0.74409 0.49977 0.23936 0.0
H2485 H 0.82819 0.548 0.27417 0.0
H2486 H 0.7943 0.53155 0.27619 0.0
H2487 H 0.76399 0.51597 0.22631 0.0
H2488 H 0.69077 0.45653 0.23216 0.0
H2489 H 0.72465 0.47298 0.23018 0.0
H2490 H 0.75482 0.48861 0.28004 0.0
C2491 C 0.80419 0.53214 0.26429 0.0
C2492 C 0.76236 0.51 0.23808 0.0
C2493 C 0.82345 0.54174 0.26306 0.0
C2494 C 0.69545 0.46281 0.24326 0.0
C2495 C 0.71472 0.47241 0.24206 0.0
C2496 C 0.75647 0.49458 0.26827 0.0
C2497 C 0.79784 0.52339 0.25039 0.0
C2498 C 0.77798 0.51267 0.25187 0.0
C2499 C 0.721 0.48118 0.25595 0.0
C2500 C 0.74085 0.4919 0.25448 0.0
H2501 H 0.84004 0.53495 0.22197 0.0
H2502 H 0.80685 0.51818 0.22417 0.0
H2503 H 0.78664 0.50634 0.27779 0.0
H2504 H 0.67866 0.46967 0.2843 0.0
H2505 H 0.71188 0.48643 0.28214 0.0
C2506 C 0.67776 0.27756 0.50216 0.0
C2507 C 0.68152 0.29221 0.49961 0.0
C2508 C 0.69714 0.26812 0.50333 0.0
C2509 C 0.76176 0.26432 0.49216 0.0
H2510 H 0.75923 0.23263 0.52375 0.0
C2511 C 0.84417 0.22809 0.50451 0.0
C2512 C 0.84045 0.21344 0.50712 0.0
C2513 C 0.82477 0.23752 0.5034 0.0
C2514 C 0.76014 0.2413 0.51468 0.0
H2515 H 0.709 0.30834 0.49659 0.0
H2516 H 0.74293 0.29188 0.49887 0.0
H2517 H 0.72609 0.24958 0.52278 0.0
H2518 H 0.81301 0.19731 0.51035 0.0
H2519 H 0.77905 0.21375 0.50815 0.0
H2520 H 0.79579 0.25604 0.48405 0.0
C2521 C 0.72483 0.28768 0.49972 0.0
C2522 C 0.7411 0.25107 0.51415 0.0
C2523 C 0.70537 0.29717 0.49859 0.0
C2524 C 0.81662 0.20848 0.50828 0.0
C2525 C 0.79713 0.21796 0.50721 0.0
C2526 C 0.7808 0.25455 0.4927 0.0
C2527 C 0.72099 0.27299 0.50203 0.0
C2528 C 0.7416 0.26274 0.50287 0.0
C2529 C 0.80094 0.23264 0.50482 0.0
C2530 C 0.7803 0.24289 0.50398 0.0
H2531 H 0.65971 0.27334 0.50331 0.0
H2532 H 0.69335 0.25692 0.50495 0.0
H2533 H 0.76267 0.27299 0.4831 0.0
H2534 H 0.8622 0.23232 0.50324 0.0
H2535 H 0.82854 0.24872 0.50173 0.0
C2536 C 0.439 0.22007 0.73732 0.0
C2537 C 0.43243 0.21116 0.75099 0.0
C2538 C 0.45852 0.2294 0.73872 0.0
C2539 C 0.49762 0.24761 0.77065 0.0
H2540 H 0.53689 0.25523 0.7308 0.0
C2541 C 0.56813 0.29369 0.76813 0.0
C2542 C 0.58923 0.29139 0.7586 0.0
C2543 C 0.54941 0.28363 0.76803 0.0
C2544 C 0.52633 0.25317 0.74216 0.0
H2545 H 0.44179 0.20505 0.77685 0.0
H2546 H 0.47628 0.22106 0.77913 0.0
H2547 H 0.50476 0.23784 0.72905 0.0
H2548 H 0.60767 0.27626 0.74233 0.0
H2549 H 0.57555 0.25878 0.74234 0.0
H2550 H 0.5197 0.26277 0.78384 0.0
C2551 C 0.466 0.22099 0.76739 0.0
C2552 C 0.50758 0.24328 0.74108 0.0
C2553 C 0.44638 0.21164 0.76599 0.0
C2554 C 0.59145 0.27858 0.74948 0.0
C2555 C 0.57292 0.26853 0.74946 0.0
C2556 C 0.51649 0.25751 0.77175 0.0
C2557 C 0.47226 0.2301 0.7538 0.0
C2558 C 0.49282 0.24037 0.75526 0.0
C2559 C 0.55142 0.27096 0.75848 0.0
C2560 C 0.53115 0.26044 0.75751 0.0
H2561 H 0.42895 0.21991 0.72547 0.0
H2562 H 0.46247 0.2363 0.72802 0.0
H2563 H 0.48655 0.24582 0.78182 0.0
H2564 H 0.56578 0.30345 0.77527 0.0
H2565 H 0.53311 0.28597 0.77505 0.0
C2566 C 0.4466 0.04219 0.49389 0.0
C2567 C 0.43303 0.04318 0.50902 0.0
C2568 C 0.46589 0.03262 0.49261 0.0
C2569 C 0.50767 0.01031 0.51868 0.0
H2570 H 0.51519 0.9891 0.47658 0.0
C2571 C 0.57435 0.96302 0.51326 0.0
C2572 C 0.58796 0.96199 0.49815 0.0
C2573 C 0.55514 0.97266 0.51451 0.0
C2574 C 0.51355 0.99502 0.48838 0.0
H2575 H 0.42996 0.03517 0.53491 0.0
H2576 H 0.46318 0.01844 0.53261 0.0
H2577 H 0.48346 0.00687 0.47892 0.0
H2578 H 0.59118 0.96996 0.47226 0.0
H2579 H 0.55808 0.9868 0.4745 0.0
H2580 H 0.53775 0.99845 0.52815 0.0
C2581 C 0.45905 0.02509 0.52172 0.0
C2582 C 0.49532 0.00527 0.48972 0.0
C2583 C 0.43977 0.03462 0.52298 0.0
C2584 C 0.58134 0.97056 0.48418 0.0
C2585 C 0.56213 0.98015 0.48541 0.0
C2586 C 0.52589 1.00006 0.51735 0.0
C2587 C 0.47223 0.0238 0.50644 0.0
C2588 C 0.49208 0.01307 0.50489 0.0
C2589 C 0.54891 0.98149 0.50066 0.0
C2590 C 0.52912 0.99225 0.50218 0.0
H2591 H 0.44186 0.04851 0.48283 0.0
H2592 H 0.47579 0.03209 0.48071 0.0
H2593 H 0.50603 0.01622 0.53049 0.0
H2594 H 0.57899 0.9567 0.52434 0.0
H2595 H 0.54521 0.97321 0.52639 0.0
C2596 C 0.56597 0.79562 0.25826 0.0
C2597 C 0.58976 0.79058 0.2572 0.0
C2598 C 0.54641 0.78619 0.25727 0.0
C2599 C 0.52974 0.74956 0.24317 0.0
H2600 H 0.47521 0.7549 0.27332 0.0
C2601 C 0.45379 0.70731 0.24944 0.0
C2602 C 0.43002 0.71239 0.25051 0.0
C2603 C 0.47339 0.71671 0.25047 0.0
C2604 C 0.49016 0.75331 0.26467 0.0
H2605 H 0.61138 0.77161 0.25361 0.0
H2606 H 0.57758 0.75529 0.25223 0.0
H2607 H 0.50852 0.77174 0.2741 0.0
H2608 H 0.40848 0.73137 0.25419 0.0
H2609 H 0.44234 0.74764 0.25564 0.0
H2610 H 0.51138 0.73114 0.23374 0.0
C2611 C 0.5739 0.76651 0.25376 0.0
C2612 C 0.5093 0.76301 0.26509 0.0
C2613 C 0.59338 0.7759 0.25478 0.0
C2614 C 0.42647 0.72706 0.253 0.0
C2615 C 0.44598 0.73641 0.25407 0.0
C2616 C 0.5106 0.73986 0.24274 0.0
C2617 C 0.55011 0.77148 0.25507 0.0
C2618 C 0.5294 0.76129 0.25436 0.0
C2619 C 0.46975 0.73142 0.25273 0.0
C2620 C 0.4905 0.74159 0.25347 0.0
H2621 H 0.56244 0.80682 0.26017 0.0
H2622 H 0.52836 0.79045 0.25813 0.0
H2623 H 0.5447 0.74797 0.23452 0.0
H2624 H 0.45727 0.69611 0.24747 0.0
H2625 H 0.49142 0.71243 0.24959 0.0
C2626 C 0.56599 0.45739 0.99894 0.0
C2627 C 0.58973 0.46247 1.00029 0.0
C2628 C 0.54635 0.46676 1.00001 0.0
C2629 C 0.52923 0.50313 0.01481 0.0
H2630 H 0.47523 0.4982 0.98408 0.0
C2631 C 0.45344 0.54549 0.00868 0.0
C2632 C 0.42968 0.54047 0.00722 0.0
C2633 C 0.47303 0.53609 0.00768 0.0
C2634 C 0.49003 0.49968 0.9929 0.0
H2635 H 0.61115 0.48143 0.00449 0.0
H2636 H 0.57722 0.49764 0.00601 0.0
H2637 H 0.50859 0.4814 0.98324 0.0
H2638 H 0.40817 0.52156 1.00289 0.0
H2639 H 0.44201 0.50528 1.00152 0.0
H2640 H 0.51067 0.52141 0.02447 0.0
C2641 C 0.57364 0.48643 0.00419 0.0
C2642 C 0.50919 0.48999 0.99243 0.0
C2643 C 0.5932 0.47711 1.00309 0.0
C2644 C 0.42614 0.52584 0.00439 0.0
C2645 C 0.44564 0.51647 1.00336 0.0
C2646 C 0.51006 0.51282 0.01528 0.0
C2647 C 0.5499 0.48144 1.00258 0.0
C2648 C 0.52912 0.49158 1.00336 0.0
C2649 C 0.4694 0.52142 0.00508 0.0
C2650 C 0.49015 0.51124 0.00434 0.0
H2651 H 0.56258 0.44621 0.99674 0.0
H2652 H 0.52834 0.46247 0.99891 0.0
H2653 H 0.54403 0.50461 0.02362 0.0
H2654 H 0.45691 0.55666 0.01092 0.0
H2655 H 0.49105 0.54034 0.00886 0.0
C2656 C 0.20955 0.40393 0.43496 0.0
C2657 C 0.18747 0.40883 0.4414 0.0
C2658 C 0.21052 0.39665 0.41933 0.0
C2659 C 0.17344 0.37377 0.39229 0.0
H2660 H 0.21933 0.38185 0.35634 0.0
C2661 C 0.1663 0.34707 0.32594 0.0
C2662 C 0.18717 0.34506 0.31615 0.0
C2663 C 0.16731 0.35428 0.34157 0.0
C2664 C 0.20666 0.37921 0.36634 0.0
H2665 H 0.14933 0.41053 0.43636 0.0
H2666 H 0.15089 0.3976 0.4092 0.0
H2667 H 0.2195 0.39613 0.38238 0.0
H2668 H 0.22563 0.34836 0.31532 0.0
H2669 H 0.22778 0.36031 0.34304 0.0
H2670 H 0.16097 0.35663 0.37673 0.0
C2671 C 0.16744 0.39934 0.4162 0.0
C2672 C 0.20669 0.38751 0.38124 0.0
C2673 C 0.16655 0.40683 0.43164 0.0
C2674 C 0.20929 0.34978 0.32267 0.0
C2675 C 0.21039 0.35682 0.33845 0.0
C2676 C 0.17366 0.36532 0.37756 0.0
C2677 C 0.18936 0.39394 0.41 0.0
C2678 C 0.18987 0.38499 0.39429 0.0
C2679 C 0.18933 0.35947 0.348 0.0
C2680 C 0.19007 0.368 0.36422 0.0
H2681 H 0.22589 0.4053 0.44232 0.0
H2682 H 0.22766 0.39259 0.41491 0.0
H2683 H 0.16053 0.37139 0.40226 0.0
H2684 H 0.14902 0.34358 0.32112 0.0
H2685 H 0.15059 0.35622 0.34825 0.0
C2686 C 0.06039 0.90367 0.32186 0.0
C2687 C 0.08245 0.90856 0.31537 0.0
C2688 C 0.05945 0.89644 0.33753 0.0
C2689 C 0.09663 0.87376 0.36475 0.0
H2690 H 0.05059 0.88194 0.40058 0.0
C2691 C 0.10367 0.84737 0.43128 0.0
C2692 C 0.08276 0.84533 0.44102 0.0
C2693 C 0.1027 0.85453 0.41562 0.0
C2694 C 0.06331 0.87927 0.39062 0.0
H2695 H 0.12059 0.9103 0.32038 0.0
H2696 H 0.11909 0.89748 0.34762 0.0
H2697 H 0.05041 0.89607 0.37445 0.0
H2698 H 0.04428 0.84855 0.44174 0.0
H2699 H 0.0422 0.86043 0.41397 0.0
H2700 H 0.10916 0.85673 0.38045 0.0
C2701 C 0.10253 0.89918 0.34062 0.0
C2702 C 0.06327 0.88749 0.37566 0.0
C2703 C 0.10339 0.9066 0.32513 0.0
C2704 C 0.06065 0.84999 0.43443 0.0
C2705 C 0.05958 0.85699 0.41862 0.0
C2706 C 0.09642 0.86539 0.37954 0.0
C2707 C 0.08062 0.8938 0.34686 0.0
C2708 C 0.08013 0.88493 0.36265 0.0
C2709 C 0.08068 0.85965 0.40911 0.0
C2710 C 0.07995 0.8681 0.39284 0.0
H2711 H 0.04403 0.90499 0.31451 0.0
H2712 H 0.04232 0.8924 0.34199 0.0
H2713 H 0.10958 0.87136 0.35482 0.0
H2714 H 0.12095 0.84392 0.43616 0.0
H2715 H 0.11943 0.85649 0.40897 0.0
C2716 C 0.21051 0.85307 0.81966 0.0
C2717 C 0.19078 0.84421 0.81628 0.0
C2718 C 0.21203 0.86051 0.83515 0.0
C2719 C 0.17309 0.87439 0.86977 0.0
H2720 H 0.23332 0.88054 0.89361 0.0
C2721 C 0.17952 0.91335 0.92674 0.0
C2722 C 0.19256 0.90864 0.94099 0.0
C2723 C 0.18084 0.90598 0.9112 0.0
C2724 C 0.21632 0.87889 0.88716 0.0
H2725 H 0.15744 0.83589 0.82631 0.0
H2726 H 0.16015 0.84864 0.85354 0.0
H2727 H 0.23259 0.86582 0.8679 0.0
H2728 H 0.2175 0.89279 0.95024 0.0
H2729 H 0.21997 0.87989 0.92314 0.0
H2730 H 0.15673 0.88723 0.88912 0.0
C2731 C 0.17438 0.85002 0.84424 0.0
C2732 C 0.21594 0.87053 0.87231 0.0
C2733 C 0.17292 0.84257 0.82877 0.0
C2734 C 0.20752 0.89671 0.93932 0.0
C2735 C 0.20891 0.88935 0.92379 0.0
C2736 C 0.1735 0.88277 0.88455 0.0
C2737 C 0.19373 0.8593 0.84753 0.0
C2738 C 0.19428 0.86811 0.86345 0.0
C2739 C 0.19523 0.89371 0.90959 0.0
C2740 C 0.19509 0.88513 0.89349 0.0
H2741 H 0.22429 0.85463 0.81006 0.0
H2742 H 0.22706 0.86764 0.83712 0.0
H2743 H 0.15613 0.87295 0.86319 0.0
H2744 H 0.16769 0.92246 0.92781 0.0
H2745 H 0.17032 0.90978 0.9005 0.0
C2746 C 0.06043 0.39662 0.81699 0.0
C2747 C 0.07531 0.40861 0.81554 0.0
C2748 C 0.05858 0.3893 0.83251 0.0
C2749 C 0.07114 0.39209 0.87919 0.0
H2750 H 0.07128 0.35093 0.87699 0.0
C2751 C 0.06178 0.35774 0.94013 0.0
C2752 C 0.07681 0.34581 0.94141 0.0
C2753 C 0.05961 0.3651 0.92465 0.0
C2754 C 0.07134 0.36241 0.87787 0.0
H2755 H 0.09966 0.42251 0.82908 0.0
H2756 H 0.09653 0.40978 0.8563 0.0
H2757 H 0.07142 0.36474 0.85066 0.0
H2758 H 0.10114 0.33206 0.92763 0.0
H2759 H 0.09744 0.34485 0.90049 0.0
H2760 H 0.07177 0.38975 0.9064 0.0
C2761 C 0.08598 0.40609 0.84556 0.0
C2762 C 0.07112 0.37036 0.86273 0.0
C2763 C 0.08781 0.41341 0.83 0.0
C2764 C 0.08917 0.34112 0.92685 0.0
C2765 C 0.08702 0.34847 0.91133 0.0
C2766 C 0.07132 0.38413 0.89433 0.0
C2767 C 0.07167 0.39377 0.84695 0.0
C2768 C 0.07112 0.38532 0.86316 0.0
C2769 C 0.07251 0.36072 0.91009 0.0
C2770 C 0.07153 0.36917 0.8939 0.0
H2771 H 0.05075 0.39269 0.80595 0.0
H2772 H 0.04708 0.38003 0.83313 0.0
H2773 H 0.07093 0.40357 0.88007 0.0
H2774 H 0.0522 0.36159 0.95126 0.0
H2775 H 0.04798 0.37432 0.92416 0.0
C2776 C 0.84624 0.66032 0.67882 0.0
C2777 C 0.82797 0.659 0.69107 0.0
C2778 C 0.84476 0.65295 0.6633 0.0
C2779 C 0.80282 0.63325 0.63464 0.0
H2780 H 0.86159 0.61568 0.61835 0.0
C2781 C 0.81131 0.60717 0.56759 0.0
C2782 C 0.82591 0.59508 0.56594 0.0
C2783 C 0.80993 0.61447 0.58316 0.0
C2784 C 0.84493 0.62038 0.62278 0.0
H2785 H 0.79374 0.64922 0.6968 0.0
H2786 H 0.79097 0.63634 0.66965 0.0
H2787 H 0.86228 0.62984 0.64438 0.0
H2788 H 0.85011 0.58092 0.57921 0.0
H2789 H 0.84745 0.59347 0.6066 0.0
H2790 H 0.78542 0.62358 0.61312 0.0
C2791 C 0.80633 0.64317 0.67185 0.0
C2792 C 0.84541 0.6287 0.63761 0.0
C2793 C 0.80785 0.65054 0.68738 0.0
C2794 C 0.83857 0.59015 0.58025 0.0
C2795 C 0.83723 0.59745 0.59584 0.0
C2796 C 0.80236 0.62494 0.61975 0.0
C2797 C 0.825 0.64405 0.65971 0.0
C2798 C 0.82438 0.6353 0.64375 0.0
C2799 C 0.82324 0.60988 0.59743 0.0
C2800 C 0.82343 0.61839 0.6136 0.0
H2801 H 0.86202 0.66669 0.68151 0.0
H2802 H 0.8593 0.65408 0.65419 0.0
H2803 H 0.78629 0.63821 0.63889 0.0
H2804 H 0.80165 0.61126 0.55662 0.0
H2805 H 0.79919 0.62405 0.58378 0.0
C2806 C 0.93088 0.09024 0.67677 0.0
C2807 C 0.94361 0.0951 0.6911 0.0
C2808 C 0.93229 0.09757 0.6612 0.0
C2809 C 0.96746 0.12493 0.63733 0.0
H2810 H 0.9075 0.13023 0.61287 0.0
C2811 C 0.96198 0.1507 0.56978 0.0
C2812 C 0.94201 0.15931 0.56621 0.0
C2813 C 0.96349 0.14328 0.58528 0.0
C2814 C 0.9244 0.12898 0.61959 0.0
H2815 H 0.96807 0.11116 0.70046 0.0
H2816 H 0.97067 0.12399 0.67332 0.0
H2817 H 0.90809 0.11601 0.63884 0.0
H2818 H 0.90822 0.16723 0.57596 0.0
H2819 H 0.9109 0.15452 0.60321 0.0
H2820 H 0.98366 0.13814 0.61819 0.0
C2821 C 0.95981 0.11445 0.67393 0.0
C2822 C 0.9248 0.12062 0.63439 0.0
C2823 C 0.95835 0.10713 0.68948 0.0
C2824 C 0.92388 0.16073 0.57855 0.0
C2825 C 0.92533 0.15331 0.59404 0.0
C2826 C 0.96707 0.13327 0.62247 0.0
C2827 C 0.94643 0.10995 0.65965 0.0
C2828 C 0.94632 0.11849 0.64351 0.0
C2829 C 0.94494 0.14426 0.5975 0.0
C2830 C 0.9455 0.13546 0.61343 0.0
H2831 H 0.91922 0.08106 0.67779 0.0
H2832 H 0.922 0.09366 0.65044 0.0
H2833 H 0.98441 0.12346 0.64392 0.0
H2834 H 0.97598 0.14931 0.5603 0.0
H2835 H 0.97873 0.13634 0.58739 0.0
C2836 C 0.80876 0.15104 0.18725 0.0
C2837 C 0.82856 0.15983 0.1907 0.0
C2838 C 0.80723 0.14364 0.17174 0.0
C2839 C 0.84623 0.12968 0.13718 0.0
H2840 H 0.78602 0.12364 0.11326 0.0
C2841 C 0.83991 0.0909 0.08002 0.0
C2842 C 0.82685 0.09564 0.0658 0.0
C2843 C 0.83855 0.09821 0.09561 0.0
C2844 C 0.80302 0.12526 0.11973 0.0
H2845 H 0.86204 0.16804 0.18077 0.0
H2846 H 0.85932 0.15534 0.1535 0.0
H2847 H 0.78677 0.13834 0.13898 0.0
H2848 H 0.8018 0.11147 0.05664 0.0
H2849 H 0.79929 0.12427 0.0838 0.0
H2850 H 0.86259 0.11684 0.11782 0.0
C2851 C 0.84503 0.154 0.16277 0.0
C2852 C 0.80341 0.13361 0.13459 0.0
C2853 C 0.8465 0.16142 0.17826 0.0
C2854 C 0.8118 0.10753 0.06754 0.0
C2855 C 0.81039 0.11483 0.0831 0.0
C2856 C 0.84582 0.12131 0.12238 0.0
C2857 C 0.8256 0.14479 0.15941 0.0
C2858 C 0.82505 0.13599 0.14348 0.0
C2859 C 0.82411 0.11045 0.09728 0.0
C2860 C 0.82424 0.119 0.11341 0.0
H2861 H 0.79492 0.14951 0.19682 0.0
H2862 H 0.79214 0.13656 0.16972 0.0
H2863 H 0.86318 0.13108 0.14378 0.0
H2864 H 0.8518 0.08182 0.07891 0.0
H2865 H 0.84909 0.09439 0.10629 0.0
C2866 C 0.93245 0.66395 0.08053 0.0
C2867 C 0.94469 0.65919 0.06594 0.0
C2868 C 0.93447 0.65654 0.09602 0.0
C2869 C 0.94931 0.62068 0.11281 0.0
H2870 H 0.9492 0.63984 0.15662 0.0
C2871 C 0.9314 0.59119 0.17678 0.0
C2872 C 0.94378 0.59581 0.19137 0.0
C2873 C 0.93361 0.59858 0.1613 0.0
C2874 C 0.94951 0.63428 0.14451 0.0
H2875 H 0.96895 0.64325 0.05602 0.0
H2876 H 0.97296 0.63045 0.08309 0.0
H2877 H 0.94991 0.65379 0.1304 0.0
H2878 H 0.96851 0.6115 0.20128 0.0
H2879 H 0.97286 0.62428 0.17422 0.0
H2880 H 0.94913 0.60117 0.12691 0.0
C2881 C 0.96153 0.63976 0.08263 0.0
C2882 C 0.94961 0.64232 0.12943 0.0
C2883 C 0.95949 0.64716 0.06718 0.0
C2884 C 0.95893 0.6077 0.19013 0.0
C2885 C 0.96116 0.61509 0.17468 0.0
C2886 C 0.94917 0.61265 0.12788 0.0
C2887 C 0.94871 0.64418 0.09721 0.0
C2888 C 0.94942 0.63564 0.11335 0.0
C2889 C 0.9482 0.61079 0.1601 0.0
C2890 C 0.94917 0.61933 0.14397 0.0
H2891 H 0.92064 0.67308 0.07978 0.0
H2892 H 0.92411 0.66021 0.10687 0.0
H2893 H 0.94885 0.61513 0.1007 0.0
H2894 H 0.91934 0.58217 0.17753 0.0
H2895 H 0.92314 0.59502 0.15045 0.0
C2896 C 0.66845 0.4067 0.93077 0.0
C2897 C 0.68916 0.40883 0.94072 0.0
C2898 C 0.66976 0.3993 0.91529 0.0
C2899 C 0.70924 0.38823 0.8803 0.0
H2900 H 0.6653 0.35646 0.87587 0.0
C2901 C 0.71172 0.35151 0.82065 0.0
C2902 C 0.68957 0.34653 0.81452 0.0
C2903 C 0.71317 0.35829 0.8366 0.0
C2904 C 0.67749 0.36541 0.87667 0.0
H2905 H 0.72765 0.4056 0.94191 0.0
H2906 H 0.73015 0.39307 0.9144 0.0
H2907 H 0.66454 0.37097 0.90159 0.0
H2908 H 0.65179 0.34415 0.82034 0.0
H2909 H 0.6539 0.35633 0.84772 0.0
H2910 H 0.7216 0.38311 0.85515 0.0
C2911 C 0.71285 0.39695 0.91874 0.0
C2912 C 0.67709 0.37369 0.89151 0.0
C2913 C 0.71145 0.40414 0.93442 0.0
C2914 C 0.66909 0.34791 0.82485 0.0
C2915 C 0.67041 0.35485 0.84063 0.0
C2916 C 0.70935 0.38009 0.86526 0.0
C2917 C 0.69191 0.39412 0.90923 0.0
C2918 C 0.69284 0.38525 0.89347 0.0
C2919 C 0.69241 0.36035 0.8467 0.0
C2920 C 0.69334 0.36859 0.86314 0.0
H2921 H 0.65107 0.41027 0.93535 0.0
H2922 H 0.65338 0.39743 0.90814 0.0
H2923 H 0.72155 0.3971 0.88143 0.0
H2924 H 0.72777 0.3505 0.81289 0.0
H2925 H 0.73055 0.36204 0.8409 0.0
C2926 C 0.60305 0.84767 0.9318 0.0
C2927 C 0.58214 0.84567 0.94158 0.0
C2928 C 0.60212 0.85508 0.9163 0.0
C2929 C 0.5628 0.86665 0.88127 0.0
H2930 H 0.60835 0.89758 0.87649 0.0
C2931 C 0.55988 0.90407 0.82244 0.0
C2932 C 0.58195 0.90884 0.81588 0.0
C2933 C 0.55885 0.89708 0.83825 0.0
C2934 C 0.59571 0.88887 0.87739 0.0
H2935 H 0.54372 0.84919 0.94249 0.0
H2936 H 0.54188 0.86175 0.915 0.0
H2937 H 0.60889 0.88297 0.90213 0.0
H2938 H 0.62009 0.91046 0.82082 0.0
H2939 H 0.61866 0.8979 0.84801 0.0
H2940 H 0.5501 0.87213 0.85633 0.0
C2941 C 0.55904 0.85774 0.91944 0.0
C2942 C 0.59599 0.88051 0.89219 0.0
C2943 C 0.56005 0.85053 0.93512 0.0
C2944 C 0.60284 0.90693 0.82566 0.0
C2945 C 0.60192 0.89976 0.84133 0.0
C2946 C 0.56277 0.87486 0.86631 0.0
C2947 C 0.58018 0.86042 0.91008 0.0
C2948 C 0.57961 0.86928 0.89429 0.0
C2949 C 0.57995 0.89453 0.8478 0.0
C2950 C 0.57929 0.88609 0.86408 0.0
H2951 H 0.62028 0.84399 0.93652 0.0
H2952 H 0.61866 0.85681 0.90928 0.0
H2953 H 0.55003 0.85801 0.88249 0.0
H2954 H 0.54352 0.90542 0.8151 0.0
H2955 H 0.5415 0.89356 0.84287 0.0
C2956 C 0.70887 0.89676 0.44012 0.0
C2957 C 0.6938 0.90867 0.44145 0.0
C2958 C 0.71094 0.88939 0.42464 0.0
C2959 C 0.69863 0.89193 0.3779 0.0
H2960 H 0.69924 0.85078 0.38028 0.0
C2961 C 0.70865 0.85748 0.31709 0.0
C2962 C 0.69385 0.84544 0.31585 0.0
C2963 C 0.71071 0.86488 0.33254 0.0
C2964 C 0.69897 0.86226 0.37935 0.0
H2965 H 0.66932 0.92238 0.42775 0.0
H2966 H 0.67284 0.90955 0.40061 0.0
H2967 H 0.69873 0.86468 0.40655 0.0
H2968 H 0.66982 0.83156 0.32969 0.0
H2969 H 0.67331 0.84443 0.35679 0.0
H2970 H 0.69814 0.8895 0.35071 0.0
C2971 C 0.68337 0.90597 0.41141 0.0
C2972 C 0.69898 0.87026 0.39445 0.0
C2973 C 0.68132 0.91334 0.42692 0.0
C2974 C 0.68162 0.8407 0.33044 0.0
C2975 C 0.68366 0.8481 0.34593 0.0
C2976 C 0.69865 0.88392 0.3628 0.0
C2977 C 0.69789 0.89372 0.41013 0.0
C2978 C 0.6987 0.88522 0.39396 0.0
C2979 C 0.69791 0.86045 0.34713 0.0
C2980 C 0.69871 0.86896 0.36329 0.0
H2981 H 0.71853 0.89293 0.45122 0.0
H2982 H 0.72259 0.88018 0.42411 0.0
H2983 H 0.69863 0.90341 0.37697 0.0
H2984 H 0.71812 0.86138 0.30593 0.0
H2985 H 0.72215 0.87419 0.333 0.0
C2986 C 0.58784 0.34085 0.42595 0.0
C2987 C 0.57551 0.3456 0.4405 0.0
C2988 C 0.58556 0.34811 0.41038 0.0
C2989 C 0.56997 0.38376 0.39342 0.0
H2990 H 0.57069 0.3645 0.34968 0.0
C2991 C 0.58792 0.41319 0.32946 0.0
C2992 C 0.57563 0.40851 0.31486 0.0
C2993 C 0.58573 0.40581 0.34494 0.0
C2994 C 0.57021 0.37008 0.36177 0.0
H2995 H 0.55077 0.36133 0.45028 0.0
H2996 H 0.5463 0.37389 0.42308 0.0
H2997 H 0.57007 0.35061 0.37595 0.0
H2998 H 0.55109 0.39273 0.30492 0.0
H2999 H 0.5468 0.37995 0.33198 0.0
H3000 H 0.56992 0.40324 0.37925 0.0
C3001 C 0.558 0.3647 0.42362 0.0
C3002 C 0.57015 0.36208 0.37687 0.0
C3003 C 0.56029 0.35744 0.43915 0.0
C3004 C 0.56061 0.39657 0.31608 0.0
C3005 C 0.5584 0.38918 0.33153 0.0
C3006 C 0.57007 0.39176 0.37832 0.0
C3007 C 0.57097 0.36032 0.40909 0.0
C3008 C 0.57013 0.3688 0.39293 0.0
C3009 C 0.57126 0.39354 0.34612 0.0
C3010 C 0.5703 0.38504 0.36227 0.0
H3011 H 0.59996 0.33187 0.42679 0.0
H3012 H 0.59603 0.3445 0.39956 0.0
H3013 H 0.57028 0.38935 0.40552 0.0
H3014 H 0.59988 0.42226 0.32872 0.0
H3015 H 0.59612 0.40941 0.35581 0.0
C3016 C 0.33941 0.66301 0.17709 0.0
C3017 C 0.32642 0.65824 0.19134 0.0
C3018 C 0.33802 0.65571 0.1615 0.0
C3019 C 0.30247 0.62869 0.13737 0.0
H3020 H 0.36256 0.62293 0.11321 0.0
C3021 C 0.30806 0.60306 0.06974 0.0
C3022 C 0.32784 0.59427 0.06625 0.0
C3023 C 0.30657 0.61044 0.08527 0.0
C3024 C 0.34563 0.62431 0.11984 0.0
H3025 H 0.3015 0.64235 0.20052 0.0
H3026 H 0.29893 0.62958 0.17335 0.0
H3027 H 0.36204 0.63711 0.13922 0.0
H3028 H 0.36131 0.58602 0.07615 0.0
H3029 H 0.35865 0.59867 0.10344 0.0
H3030 H 0.28616 0.61566 0.11809 0.0
C3031 C 0.30998 0.63903 0.17404 0.0
C3032 C 0.34527 0.63265 0.13467 0.0
C3033 C 0.31144 0.64632 0.18961 0.0
C3034 C 0.34578 0.59265 0.07869 0.0
C3035 C 0.34435 0.60004 0.09419 0.0
C3036 C 0.30282 0.62038 0.12248 0.0
C3037 C 0.32362 0.64346 0.15984 0.0
C3038 C 0.3237 0.63494 0.14368 0.0
C3039 C 0.32495 0.60926 0.09759 0.0
C3040 C 0.32443 0.61802 0.11355 0.0
H3041 H 0.35125 0.67211 0.1782 0.0
H3042 H 0.3485 0.65957 0.15081 0.0
H3043 H 0.28549 0.63029 0.14387 0.0
H3044 H 0.29421 0.60461 0.06019 0.0
H3045 H 0.29149 0.61753 0.08732 0.0
C3046 C 0.46006 0.1069 0.19039 0.0
C3047 C 0.44524 0.09488 0.19166 0.0
C3048 C 0.46208 0.11428 0.17492 0.0
C3049 C 0.44999 0.1117 0.12815 0.0
H3050 H 0.4496 0.15285 0.13065 0.0
C3051 C 0.45912 0.14632 0.06743 0.0
C3052 C 0.44402 0.15823 0.06623 0.0
C3053 C 0.46138 0.13892 0.08286 0.0
C3054 C 0.44962 0.14137 0.12968 0.0
H3055 H 0.42113 0.08099 0.17788 0.0
H3056 H 0.42455 0.09384 0.15076 0.0
H3057 H 0.4494 0.1389 0.15687 0.0
H3058 H 0.41967 0.17189 0.08013 0.0
H3059 H 0.42352 0.15901 0.10719 0.0
H3060 H 0.44945 0.11417 0.10096 0.0
C3061 C 0.43495 0.0975 0.16159 0.0
C3062 C 0.4498 0.13335 0.14476 0.0
C3063 C 0.43296 0.09011 0.17709 0.0
C3064 C 0.43169 0.16285 0.08085 0.0
C3065 C 0.43394 0.15545 0.09632 0.0
C3066 C 0.44983 0.11973 0.11307 0.0
C3067 C 0.4492 0.10985 0.16037 0.0
C3068 C 0.44987 0.11839 0.14423 0.0
C3069 C 0.4485 0.14322 0.09747 0.0
C3070 C 0.44952 0.13469 0.1136 0.0
H3071 H 0.46955 0.11081 0.20153 0.0
H3072 H 0.47353 0.12358 0.17444 0.0
H3073 H 0.45025 0.10023 0.12718 0.0
H3074 H 0.46866 0.14252 0.05626 0.0
H3075 H 0.47305 0.12972 0.08329 0.0
C3076 C 0.31297 0.14698 0.6901 0.0
C3077 C 0.32808 0.15883 0.6919 0.0
C3078 C 0.31156 0.13971 0.67452 0.0
C3079 C 0.347 0.13324 0.63521 0.0
H3080 H 0.28781 0.11643 0.61854 0.0
C3081 C 0.34732 0.09331 0.57913 0.0
C3082 C 0.32936 0.09497 0.56672 0.0
C3083 C 0.34595 0.10069 0.59465 0.0
C3084 C 0.30449 0.1211 0.62295 0.0
H3085 H 0.35319 0.17261 0.67888 0.0
H3086 H 0.35051 0.16009 0.65146 0.0
H3087 H 0.28718 0.13104 0.64432 0.0
H3088 H 0.29579 0.10538 0.56068 0.0
H3089 H 0.29317 0.11829 0.58782 0.0
H3090 H 0.36428 0.1235 0.61376 0.0
C3091 C 0.3399 0.15628 0.66211 0.0
C3092 C 0.30417 0.1294 0.63784 0.0
C3093 C 0.34125 0.16356 0.67772 0.0
C3094 C 0.30964 0.1038 0.57023 0.0
C3095 C 0.30821 0.11117 0.58576 0.0
C3096 C 0.34734 0.12492 0.62038 0.0
C3097 C 0.32536 0.14408 0.66037 0.0
C3098 C 0.32543 0.13559 0.6442 0.0
C3099 C 0.32659 0.10995 0.59806 0.0
C3100 C 0.32611 0.11869 0.61404 0.0
H3101 H 0.30289 0.14305 0.70096 0.0
H3102 H 0.30039 0.1303 0.67378 0.0
H3103 H 0.3638 0.13765 0.6398 0.0
H3104 H 0.36281 0.08665 0.57658 0.0
H3105 H 0.36024 0.0993 0.60389 0.0
C3106 C 0.45818 0.60712 0.68993 0.0
C3107 C 0.44311 0.59519 0.69108 0.0
C3108 C 0.46042 0.61457 0.67452 0.0
C3109 C 0.44866 0.61227 0.6277 0.0
H3110 H 0.44896 0.65341 0.63043 0.0
C3111 C 0.45893 0.64703 0.5672 0.0
C3112 C 0.44395 0.65899 0.56596 0.0
C3113 C 0.46099 0.63959 0.58262 0.0
C3114 C 0.44879 0.64194 0.6294 0.0
H3115 H 0.4188 0.58155 0.67713 0.0
H3116 H 0.42264 0.5945 0.65011 0.0
H3117 H 0.44828 0.63936 0.65657 0.0
H3118 H 0.41964 0.67272 0.57979 0.0
H3119 H 0.42316 0.65979 0.60685 0.0
H3120 H 0.44844 0.61485 0.60052 0.0
C3121 C 0.43304 0.59804 0.661 0.0
C3122 C 0.44869 0.63385 0.64443 0.0
C3123 C 0.43081 0.59059 0.67645 0.0
C3124 C 0.43158 0.66364 0.58054 0.0
C3125 C 0.43362 0.65621 0.59601 0.0
C3126 C 0.44879 0.62036 0.61266 0.0
C3127 C 0.44755 0.61029 0.6599 0.0
C3128 C 0.44851 0.61889 0.64381 0.0
C3129 C 0.44802 0.64391 0.59719 0.0
C3130 C 0.44874 0.63532 0.61328 0.0
H3131 H 0.4677 0.6109 0.70112 0.0
H3132 H 0.47206 0.62379 0.67413 0.0
H3133 H 0.44873 0.6008 0.62667 0.0
H3134 H 0.46849 0.6432 0.55605 0.0
H3135 H 0.47254 0.63034 0.58307 0.0
C3136 C 0.30633 0.34904 0.26082 0.0
C3137 C 0.28793 0.35528 0.25098 0.0
C3138 C 0.3298 0.35444 0.26052 0.0
C3139 C 0.37118 0.37668 0.23448 0.0
H3140 H 0.40947 0.37709 0.27586 0.0
C3141 C 0.46419 0.40457 0.23829 0.0
C3142 C 0.48243 0.39825 0.24819 0.0
C3143 C 0.44073 0.39912 0.2383 0.0
C3144 C 0.39919 0.37689 0.26412 0.0
H3145 H 0.28005 0.37234 0.23325 0.0
H3146 H 0.32092 0.38195 0.23296 0.0
H3147 H 0.36809 0.3686 0.27684 0.0
H3148 H 0.49011 0.38099 0.26568 0.0
H3149 H 0.44931 0.37132 0.26549 0.0
H3150 H 0.40229 0.385 0.22177 0.0
C3151 C 0.31721 0.37269 0.24074 0.0
C3152 C 0.37535 0.37202 0.26468 0.0
C3153 C 0.29366 0.36728 0.24106 0.0
C3154 C 0.47663 0.3861 0.25781 0.0
C3155 C 0.4531 0.38065 0.25786 0.0
C3156 C 0.39502 0.38156 0.23392 0.0
C3157 C 0.33567 0.3663 0.25041 0.0
C3158 C 0.36098 0.37181 0.24986 0.0
C3159 C 0.43475 0.38716 0.24822 0.0
C3160 C 0.4094 0.38173 0.24873 0.0
H3161 H 0.30262 0.33992 0.26884 0.0
H3162 H 0.34346 0.34912 0.26802 0.0
H3163 H 0.36089 0.37647 0.22274 0.0
H3164 H 0.46799 0.41383 0.23054 0.0
H3165 H 0.42714 0.40451 0.23081 0.0
C3166 C 0.8058 0.8497 0.26163 0.0
C3167 C 0.78734 0.85577 0.25171 0.0
C3168 C 0.8292 0.85518 0.26127 0.0
C3169 C 0.87038 0.87717 0.23483 0.0
H3170 H 0.90892 0.87786 0.2761 0.0
C3171 C 0.96392 0.90455 0.238 0.0
C3172 C 0.98209 0.89819 0.24794 0.0
C3173 C 0.94036 0.89926 0.23814 0.0
C3174 C 0.89856 0.87758 0.2644 0.0
H3175 H 0.77923 0.87267 0.23382 0.0
H3176 H 0.82002 0.88243 0.23339 0.0
H3177 H 0.86745 0.86955 0.27732 0.0
H3178 H 0.98951 0.88103 0.26563 0.0
H3179 H 0.94853 0.87165 0.26565 0.0
H3180 H 0.90153 0.88523 0.22192 0.0
C3181 C 0.81641 0.87323 0.24129 0.0
C3182 C 0.87468 0.87282 0.2651 0.0
C3183 C 0.7929 0.86773 0.24168 0.0
C3184 C 0.9761 0.88616 0.25772 0.0
C3185 C 0.95247 0.88089 0.2579 0.0
C3186 C 0.89428 0.88195 0.23413 0.0
C3187 C 0.83495 0.86697 0.251 0.0
C3188 C 0.86023 0.87249 0.25032 0.0
C3189 C 0.93419 0.88744 0.24823 0.0
C3190 C 0.90875 0.88219 0.2489 0.0
H3191 H 0.8022 0.84062 0.26974 0.0
H3192 H 0.84292 0.84996 0.26881 0.0
H3193 H 0.86003 0.87687 0.22312 0.0
H3194 H 0.96787 0.91372 0.23013 0.0
H3195 H 0.92684 0.90469 0.23062 0.0
C3196 C 0.30563 0.90446 0.99539 0.0
C3197 C 0.28719 0.89837 0.00532 0.0
C3198 C 0.32904 0.899 0.99576 0.0
C3199 C 0.37029 0.87706 0.02221 0.0
H3200 H 0.4088 0.87636 0.98092 0.0
C3201 C 0.46384 0.8497 0.01903 0.0
C3202 C 0.482 0.85606 0.00908 0.0
C3203 C 0.44028 0.85499 0.0189 0.0
C3204 C 0.39845 0.87665 0.99264 0.0
H3205 H 0.27912 0.88149 0.02324 0.0
H3206 H 0.31994 0.87177 0.02367 0.0
H3207 H 0.36732 0.88466 0.97971 0.0
H3208 H 0.4894 0.8732 0.99136 0.0
H3209 H 0.44842 0.88258 0.99135 0.0
H3210 H 0.40145 0.86902 0.03512 0.0
C3211 C 0.3163 0.88095 0.01577 0.0
C3212 C 0.37456 0.88139 0.99194 0.0
C3213 C 0.29278 0.88643 0.01537 0.0
C3214 C 0.47599 0.86808 0.99928 0.0
C3215 C 0.45237 0.87335 0.99911 0.0
C3216 C 0.39419 0.8723 0.0229 0.0
C3217 C 0.33482 0.88722 0.00604 0.0
C3218 C 0.36012 0.88172 0.00672 0.0
C3219 C 0.4341 0.8668 0.0088 0.0
C3220 C 0.40865 0.87205 0.00813 0.0
H3221 H 0.302 0.91353 0.98728 0.0
H3222 H 0.34275 0.90423 0.98821 0.0
H3223 H 0.35993 0.87736 0.03392 0.0
H3224 H 0.4678 0.84054 0.02691 0.0
H3225 H 0.42676 0.84957 0.02644 0.0
C3226 C 0.97702 0.36764 0.01551 0.0
C3227 C 0.98267 0.35564 0.00555 0.0
C3228 C 0.95349 0.3731 0.01584 0.0
C3229 C 0.89534 0.37252 0.9919 0.0
H3230 H 0.86835 0.38531 0.03488 0.0
C3231 C 0.79399 0.38616 0.99889 0.0
C3232 C 0.78806 0.39831 0.00849 0.0
C3233 C 0.81756 0.38081 0.99883 0.0
C3234 C 0.87565 0.38192 0.02272 0.0
H3235 H 0.96792 0.34038 0.98761 0.0
H3236 H 0.92715 0.34965 0.98844 0.0
H3237 H 0.90981 0.37687 0.03386 0.0
H3238 H 0.80233 0.41397 0.02611 0.0
H3239 H 0.84328 0.4048 0.02585 0.0
H3240 H 0.86118 0.37754 0.98075 0.0
C3241 C 0.94083 0.35493 0.99597 0.0
C3242 C 0.89951 0.37709 0.02213 0.0
C3243 C 0.96426 0.34948 0.99566 0.0
C3244 C 0.80623 0.40471 0.01838 0.0
C3245 C 0.82974 0.39935 0.01838 0.0
C3246 C 0.87149 0.37733 0.99249 0.0
C3247 C 0.93501 0.36676 0.00613 0.0
C3248 C 0.90972 0.37229 0.00671 0.0
C3249 C 0.83585 0.38741 0.00846 0.0
C3250 C 0.86125 0.38208 0.00791 0.0
H3251 H 0.99064 0.37264 0.02336 0.0
H3252 H 0.94982 0.38233 0.02367 0.0
H3253 H 0.90261 0.36915 0.97972 0.0
H3254 H 0.78056 0.38099 0.99102 0.0
H3255 H 0.82146 0.37149 0.99122 0.0
C3256 C 0.71337 0.65415 0.76837 0.0
C3257 C 0.73153 0.6479 0.75832 0.0
C3258 C 0.68984 0.6488 0.76827 0.0
C3259 C 0.648 0.62698 0.74208 0.0
H3260 H 0.60967 0.62631 0.78345 0.0
C3261 C 0.55515 0.59909 0.74512 0.0
C3262 C 0.53674 0.60522 0.75504 0.0
C3263 C 0.57859 0.60455 0.74543 0.0
C3264 C 0.61997 0.62659 0.77171 0.0
H3265 H 0.73894 0.63085 0.74046 0.0
H3266 H 0.69804 0.62135 0.74052 0.0
H3267 H 0.65113 0.63474 0.78452 0.0
H3268 H 0.52879 0.62216 0.77293 0.0
H3269 H 0.56963 0.63185 0.77328 0.0
H3270 H 0.61687 0.61885 0.72926 0.0
C3271 C 0.70195 0.63056 0.74832 0.0
C3272 C 0.64385 0.63142 0.77233 0.0
C3273 C 0.72554 0.6359 0.74845 0.0
C3274 C 0.54241 0.61719 0.76505 0.0
C3275 C 0.56595 0.62264 0.7654 0.0
C3276 C 0.62414 0.62217 0.74146 0.0
C3277 C 0.68368 0.63701 0.75812 0.0
C3278 C 0.65826 0.63167 0.75753 0.0
C3279 C 0.58444 0.61634 0.75566 0.0
C3280 C 0.60975 0.62186 0.75627 0.0
H3281 H 0.7173 0.66328 0.77631 0.0
H3282 H 0.67634 0.65415 0.77589 0.0
H3283 H 0.65829 0.62726 0.73034 0.0
H3284 H 0.55148 0.59001 0.73703 0.0
H3285 H 0.59226 0.59929 0.73787 0.0
C3286 C 0.04301 0.11794 0.7484 0.0
C3287 C 0.03705 0.1059 0.75819 0.0
C3288 C 0.06658 0.12332 0.74835 0.0
C3289 C 0.12458 0.12246 0.77244 0.0
H3290 H 0.15182 0.13483 0.72938 0.0
C3291 C 0.22609 0.1364 0.76537 0.0
C3292 C 0.23188 0.14834 0.75535 0.0
C3293 C 0.20253 0.13099 0.76564 0.0
C3294 C 0.14447 0.13157 0.74157 0.0
H3295 H 0.05125 0.0905 0.77617 0.0
H3296 H 0.09216 0.09971 0.77589 0.0
H3297 H 0.11033 0.12652 0.7304 0.0
H3298 H 0.21736 0.16354 0.73725 0.0
H3299 H 0.17652 0.15434 0.73798 0.0
H3300 H 0.15873 0.12751 0.78361 0.0
C3301 C 0.07867 0.10506 0.76827 0.0
C3302 C 0.12057 0.12681 0.74216 0.0
C3303 C 0.05517 0.09967 0.76829 0.0
C3304 C 0.21358 0.15448 0.74534 0.0
C3305 C 0.19012 0.14908 0.74559 0.0
C3306 C 0.14848 0.12722 0.77185 0.0
C3307 C 0.08482 0.11686 0.75816 0.0
C3308 C 0.11024 0.12219 0.75761 0.0
C3309 C 0.18415 0.13732 0.75584 0.0
C3310 C 0.1588 0.13187 0.75641 0.0
H3311 H 0.02962 0.12297 0.74038 0.0
H3312 H 0.0705 0.13254 0.74058 0.0
H3313 H 0.11722 0.11918 0.78463 0.0
H3314 H 0.23963 0.13142 0.7733 0.0
H3315 H 0.19874 0.12181 0.77353 0.0
C3316 C 0.54301 0.13612 0.00888 0.0
C3317 C 0.53705 0.14828 0.99932 0.0
C3318 C 0.56659 0.13076 0.00886 0.0
C3319 C 0.6246 0.13196 0.98485 0.0
H3320 H 0.65174 0.11902 0.02771 0.0
C3321 C 0.72607 0.11786 0.99183 0.0
C3322 C 0.7318 0.1058 1.00164 0.0
C3323 C 0.70251 0.12328 0.99159 0.0
C3324 C 0.64442 0.12244 0.01557 0.0
H3325 H 0.55126 0.16396 0.9817 0.0
H3326 H 0.5922 0.15479 0.98185 0.0
H3327 H 0.61027 0.12737 0.0268 0.0
H3328 H 0.71716 0.09036 0.0194 0.0
H3329 H 0.67634 0.09957 0.01873 0.0
H3330 H 0.65877 0.12702 0.97362 0.0
C3331 C 0.57869 0.14932 0.98934 0.0
C3332 C 0.62054 0.12722 0.01505 0.0
C3333 C 0.55518 0.15469 0.9894 0.0
C3334 C 0.71343 0.09952 0.01147 0.0
C3335 C 0.68998 0.10493 0.01126 0.0
C3336 C 0.64849 0.12717 0.98537 0.0
C3337 C 0.58484 0.13737 0.99921 0.0
C3338 C 0.61025 0.13204 0.99968 0.0
C3339 C 0.68408 0.11683 1.00124 0.0
C3340 C 0.65876 0.12231 1.00074 0.0
H3341 H 0.52961 0.13094 0.01676 0.0
H3342 H 0.57051 0.12142 0.01644 0.0
H3343 H 0.61727 0.1354 0.97273 0.0
H3344 H 0.73966 0.12295 0.98404 0.0
H3345 H 0.69878 0.13257 0.98388 0.0
C3346 C 0.21433 0.59975 0.98857 0.0
C3347 C 0.23244 0.60591 0.99874 0.0
C3348 C 0.19084 0.60514 0.98863 0.0
C3349 C 0.14896 0.62677 0.01494 0.0
H3350 H 0.11073 0.62767 0.97354 0.0
C3351 C 0.05619 0.65467 0.01195 0.0
C3352 C 0.0378 0.64857 1.00197 0.0
C3353 C 0.0796 0.6492 0.01165 0.0
C3354 C 0.12101 0.62732 0.98528 0.0
H3355 H 0.23986 0.62287 0.01672 0.0
H3356 H 0.199 0.63245 0.01659 0.0
H3357 H 0.15223 0.61931 0.97242 0.0
H3358 H 0.02981 0.63167 0.98405 0.0
H3359 H 0.07065 0.62195 0.98372 0.0
H3360 H 0.11777 0.63477 0.0278 0.0
C3361 C 0.20292 0.62327 0.00873 0.0
C3362 C 0.1449 0.62254 0.98464 0.0
C3363 C 0.22648 0.61788 0.00864 0.0
C3364 C 0.04344 0.63662 0.99195 0.0
C3365 C 0.06696 0.63114 0.99162 0.0
C3366 C 0.12508 0.63154 0.01559 0.0
C3367 C 0.18468 0.61688 0.99885 0.0
C3368 C 0.15927 0.62221 0.99946 0.0
C3369 C 0.08543 0.63742 1.00139 0.0
C3370 C 0.11074 0.63192 1.00076 0.0
H3371 H 0.21825 0.59063 0.9806 0.0
H3372 H 0.17735 0.59984 0.98095 0.0
H3373 H 0.15922 0.62642 0.02669 0.0
H3374 H 0.05252 0.66375 0.02004 0.0
H3375 H 0.09327 0.65443 0.01924 0.0
C3376 C 0.46281 0.90453 0.76081 0.0
C3377 C 0.4812 0.89827 0.75098 0.0
C3378 C 0.43936 0.8991 0.76059 0.0
C3379 C 0.39792 0.87675 0.73475 0.0
H3380 H 0.35978 0.8765 0.77622 0.0
C3381 C 0.30485 0.84894 0.73886 0.0
C3382 C 0.28666 0.85528 0.74881 0.0
C3383 C 0.32831 0.85438 0.73879 0.0
C3384 C 0.37002 0.87666 0.76445 0.0
H3385 H 0.48907 0.88113 0.73335 0.0
H3386 H 0.44822 0.87148 0.73319 0.0
H3387 H 0.40117 0.88498 0.77707 0.0
H3388 H 0.27911 0.87257 0.7663 0.0
H3389 H 0.31992 0.88223 0.76595 0.0
H3390 H 0.36675 0.8684 0.72215 0.0
C3391 C 0.45193 0.88077 0.74091 0.0
C3392 C 0.39386 0.88152 0.76494 0.0
C3393 C 0.47548 0.88621 0.74115 0.0
C3394 C 0.29254 0.86745 0.75839 0.0
C3395 C 0.31607 0.87288 0.75835 0.0
C3396 C 0.37407 0.87188 0.73426 0.0
C3397 C 0.43348 0.88719 0.75057 0.0
C3398 C 0.40818 0.88167 0.7501 0.0
C3399 C 0.33437 0.86635 0.74867 0.0
C3400 C 0.35973 0.87177 0.7491 0.0
H3401 H 0.46653 0.91369 0.76876 0.0
H3402 H 0.42572 0.90445 0.76808 0.0
H3403 H 0.40817 0.87691 0.72299 0.0
H3404 H 0.30099 0.83967 0.73114 0.0
H3405 H 0.34185 0.84897 0.73127 0.0
C3406 C 0.80351 0.35014 0.76461 0.0
C3407 C 0.786 0.35507 0.75302 0.0
C3408 C 0.82716 0.35529 0.76413 0.0
C3409 C 0.87073 0.37425 0.73579 0.0
H3410 H 0.90684 0.37874 0.77782 0.0
C3411 C 0.96325 0.40292 0.73852 0.0
C3412 C 0.98116 0.39736 0.74935 0.0
C3413 C 0.93982 0.3974 0.73864 0.0
C3414 C 0.89714 0.37739 0.76593 0.0
H3415 H 0.78005 0.36956 0.7319 0.0
H3416 H 0.821 0.37885 0.73141 0.0
H3417 H 0.86534 0.37045 0.7789 0.0
H3418 H 0.98827 0.38144 0.76868 0.0
H3419 H 0.94743 0.37173 0.76882 0.0
H3420 H 0.90252 0.3814 0.72287 0.0
C3421 C 0.81654 0.37074 0.74069 0.0
C3422 C 0.87324 0.37261 0.76654 0.0
C3423 C 0.79286 0.36554 0.74113 0.0
C3424 C 0.97504 0.38593 0.76009 0.0
C3425 C 0.95151 0.38047 0.7603 0.0
C3426 C 0.89459 0.37911 0.7352 0.0
C3427 C 0.83413 0.36564 0.75212 0.0
C3428 C 0.85963 0.37094 0.75148 0.0
C3429 C 0.93351 0.3862 0.74966 0.0
C3430 C 0.90817 0.38075 0.75025 0.0
H3431 H 0.79898 0.34227 0.77416 0.0
H3432 H 0.84009 0.35093 0.77304 0.0
H3433 H 0.86113 0.37288 0.72388 0.0
H3434 H 0.96731 0.41163 0.72995 0.0
H3435 H 0.92648 0.40218 0.73035 0.0
C3436 C 0.29434 0.38672 0.51599 0.0
C3437 C 0.28839 0.39861 0.50595 0.0
C3438 C 0.31793 0.38135 0.51619 0.0
C3439 C 0.3756 0.3818 0.4917 0.0
H3440 H 0.40364 0.36985 0.53468 0.0
C3441 C 0.47723 0.36843 0.49775 0.0
C3442 C 0.48357 0.35663 0.50783 0.0
C3443 C 0.45359 0.3737 0.49779 0.0
C3444 C 0.39606 0.37299 0.52252 0.0
H3445 H 0.30267 0.41379 0.48773 0.0
H3446 H 0.34356 0.40464 0.48827 0.0
H3447 H 0.36207 0.37811 0.53391 0.0
H3448 H 0.46993 0.34152 0.52638 0.0
H3449 H 0.42888 0.3505 0.52622 0.0
H3450 H 0.40954 0.37667 0.4803 0.0
C3451 C 0.33006 0.39939 0.49598 0.0
C3452 C 0.37213 0.37772 0.52207 0.0
C3453 C 0.30657 0.40476 0.49583 0.0
C3454 C 0.46572 0.35049 0.51826 0.0
C3455 C 0.44215 0.35576 0.51832 0.0
C3456 C 0.39951 0.37706 0.49214 0.0
C3457 C 0.33618 0.38766 0.50624 0.0
C3458 C 0.36154 0.38223 0.50667 0.0
C3459 C 0.43563 0.36736 0.50796 0.0
C3460 C 0.41014 0.37261 0.50756 0.0
H3461 H 0.28089 0.38173 0.52401 0.0
H3462 H 0.32184 0.3722 0.52409 0.0
H3463 H 0.36803 0.38495 0.47954 0.0
H3464 H 0.49037 0.37339 0.48946 0.0
H3465 H 0.44941 0.38277 0.48982 0.0
C3466 C 0.97598 0.8674 0.51602 0.0
C3467 C 0.98176 0.85537 0.50617 0.0
C3468 C 0.95241 0.87279 0.51628 0.0
C3469 C 0.89433 0.87198 0.49227 0.0
H3470 H 0.86725 0.88514 0.53505 0.0
C3471 C 0.79303 0.88609 0.49886 0.0
C3472 C 0.78718 0.89828 0.50842 0.0
C3473 C 0.81655 0.88065 0.49889 0.0
C3474 C 0.87456 0.88165 0.52294 0.0
H3475 H 0.96715 0.83992 0.48838 0.0
H3476 H 0.92628 0.84908 0.48911 0.0
H3477 H 0.90866 0.87663 0.53421 0.0
H3478 H 0.80156 0.91391 0.52604 0.0
H3479 H 0.8424 0.90459 0.52589 0.0
H3480 H 0.86024 0.87699 0.481 0.0
C3481 C 0.93991 0.85445 0.49659 0.0
C3482 C 0.89841 0.87677 0.52245 0.0
C3483 C 0.96339 0.84907 0.49635 0.0
C3484 C 0.80539 0.90463 0.51834 0.0
C3485 C 0.82884 0.89917 0.5184 0.0
C3486 C 0.87049 0.87684 0.49276 0.0
C3487 C 0.93399 0.86635 0.50663 0.0
C3488 C 0.90866 0.87184 0.50711 0.0
C3489 C 0.83487 0.88719 0.50854 0.0
C3490 C 0.86022 0.88175 0.50811 0.0
H3491 H 0.98956 0.87251 0.52381 0.0
H3492 H 0.94866 0.88207 0.52401 0.0
H3493 H 0.90163 0.8685 0.48015 0.0
H3494 H 0.77958 0.88097 0.49098 0.0
H3495 H 0.82037 0.87129 0.49131 0.0
C3496 C 0.54349 0.118 0.24884 0.0
C3497 C 0.53767 0.10591 0.25857 0.0
C3498 C 0.56701 0.12346 0.24877 0.0
C3499 C 0.62517 0.1226 0.27271 0.0
H3500 H 0.65201 0.13543 0.22971 0.0
C3501 C 0.72657 0.13675 0.26534 0.0
C3502 C 0.73221 0.14881 0.25551 0.0
C3503 C 0.70303 0.13131 0.26566 0.0
C3504 C 0.64477 0.13203 0.24189 0.0
H3505 H 0.55209 0.09048 0.27642 0.0
H3506 H 0.59291 0.09979 0.2761 0.0
H3507 H 0.6106 0.127 0.23078 0.0
H3508 H 0.71742 0.16424 0.23779 0.0
H3509 H 0.67662 0.15498 0.23859 0.0
H3510 H 0.65938 0.12763 0.28381 0.0
C3511 C 0.57934 0.10514 0.26854 0.0
C3512 C 0.62092 0.12721 0.2425 0.0
C3513 C 0.55589 0.09968 0.26858 0.0
C3514 C 0.71376 0.15507 0.24573 0.0
C3515 C 0.69032 0.14963 0.24602 0.0
C3516 C 0.64904 0.12742 0.2721 0.0
C3517 C 0.58535 0.11701 0.2585 0.0
C3518 C 0.61072 0.12242 0.25792 0.0
C3519 C 0.68451 0.13773 0.25608 0.0
C3520 C 0.6592 0.13224 0.25668 0.0
H3521 H 0.53002 0.12303 0.24088 0.0
H3522 H 0.57081 0.13273 0.24105 0.0
H3523 H 0.61793 0.11919 0.28488 0.0
H3524 H 0.74023 0.13167 0.27308 0.0
H3525 H 0.69936 0.12202 0.2734 0.0
C3526 C 0.04286 0.61784 0.2486 0.0
C3527 C 0.03682 0.60575 0.25828 0.0
C3528 C 0.06648 0.62314 0.24856 0.0
C3529 C 0.12454 0.62194 0.27253 0.0
H3530 H 0.15167 0.63459 0.22954 0.0
C3531 C 0.22607 0.63587 0.26536 0.0
C3532 C 0.2318 0.64789 0.25548 0.0
C3533 C 0.2025 0.63046 0.26564 0.0
C3534 C 0.14436 0.63124 0.24171 0.0
H3535 H 0.05094 0.59016 0.27605 0.0
H3536 H 0.09195 0.59923 0.27578 0.0
H3537 H 0.11016 0.62633 0.23055 0.0
H3538 H 0.21718 0.66326 0.23762 0.0
H3539 H 0.17634 0.65406 0.23835 0.0
H3540 H 0.15876 0.62687 0.28368 0.0
C3541 C 0.07847 0.60468 0.26825 0.0
C3542 C 0.12045 0.62652 0.2423 0.0
C3543 C 0.05493 0.59937 0.26826 0.0
C3544 C 0.21344 0.65412 0.2456 0.0
C3545 C 0.18998 0.64872 0.24586 0.0
C3546 C 0.14846 0.62667 0.27194 0.0
C3547 C 0.0847 0.61655 0.25826 0.0
C3548 C 0.11015 0.62181 0.25771 0.0
C3549 C 0.18407 0.63687 0.25597 0.0
C3550 C 0.15873 0.63143 0.25653 0.0
H3551 H 0.02949 0.62298 0.24067 0.0
H3552 H 0.07046 0.63241 0.24088 0.0
H3553 H 0.11721 0.61858 0.28469 0.0
H3554 H 0.23966 0.63081 0.27318 0.0
H3555 H 0.19875 0.62121 0.27342 0.0
C3556 C 0.72633 0.61818 0.50866 0.0
C3557 C 0.73221 0.60611 0.49889 0.0
C3558 C 0.70278 0.6236 0.50872 0.0
C3559 C 0.64467 0.62274 0.48472 0.0
H3560 H 0.61768 0.63539 0.52775 0.0
C3561 C 0.54321 0.63685 0.49199 0.0
C3562 C 0.53752 0.64885 0.50193 0.0
C3563 C 0.56676 0.63142 0.49166 0.0
C3564 C 0.62496 0.63205 0.51557 0.0
H3565 H 0.71789 0.5907 0.48096 0.0
H3566 H 0.67703 0.59997 0.48127 0.0
H3567 H 0.65912 0.627 0.5267 0.0
H3568 H 0.55222 0.66415 0.51985 0.0
H3569 H 0.59303 0.65491 0.51905 0.0
H3570 H 0.61048 0.62779 0.4736 0.0
C3571 C 0.69056 0.60532 0.48886 0.0
C3572 C 0.64883 0.62725 0.51496 0.0
C3573 C 0.71403 0.59989 0.48883 0.0
C3574 C 0.55592 0.65504 0.51182 0.0
C3575 C 0.57937 0.64961 0.51152 0.0
C3576 C 0.62079 0.62755 0.48533 0.0
C3577 C 0.68448 0.61716 0.49895 0.0
C3578 C 0.65908 0.62253 0.49952 0.0
C3579 C 0.58523 0.63778 0.50136 0.0
C3580 C 0.61056 0.6323 0.50076 0.0
H3581 H 0.73975 0.62321 0.51665 0.0
H3582 H 0.69893 0.63285 0.51648 0.0
H3583 H 0.65196 0.61939 0.47254 0.0
H3584 H 0.52959 0.63183 0.48415 0.0
H3585 H 0.57047 0.62219 0.48384 0.0
C3586 C 0.05571 0.15417 0.48865 0.0
C3587 C 0.03756 0.14794 0.49873 0.0
C3588 C 0.0792 0.14878 0.48869 0.0
C3589 C 0.121 0.12695 0.51483 0.0
H3590 H 0.1594 0.12645 0.47349 0.0
C3591 C 0.21403 0.09931 0.51171 0.0
C3592 C 0.23242 0.10558 0.50189 0.0
C3593 C 0.19055 0.10468 0.51139 0.0
C3594 C 0.14907 0.12668 0.48521 0.0
H3595 H 0.03009 0.13086 0.51652 0.0
H3596 H 0.07095 0.12128 0.51635 0.0
H3597 H 0.11788 0.13477 0.4724 0.0
H3598 H 0.2403 0.12267 0.4842 0.0
H3599 H 0.19936 0.1322 0.48384 0.0
H3600 H 0.15217 0.11887 0.52764 0.0
C3601 C 0.06706 0.13051 0.50859 0.0
C3602 C 0.12517 0.13144 0.48459 0.0
C3603 C 0.04349 0.1359 0.50852 0.0
C3604 C 0.22669 0.11759 0.49198 0.0
C3605 C 0.2031 0.12296 0.49163 0.0
C3606 C 0.14489 0.12219 0.51545 0.0
C3607 C 0.08533 0.13697 0.49881 0.0
C3608 C 0.11075 0.13164 0.49939 0.0
C3609 C 0.18464 0.11653 0.50127 0.0
C3610 C 0.15929 0.12196 0.50065 0.0
H3611 H 0.05181 0.16334 0.48076 0.0
H3612 H 0.09271 0.15414 0.48109 0.0
H3613 H 0.1107 0.12719 0.52657 0.0
H3614 H 0.21777 0.09019 0.51971 0.0
H3615 H 0.17689 0.09934 0.51887 0.0
loop_
_geom_bond_atom_site_label_1
_geom_bond_atom_site_label_2
_geom_bond_distance
_geom_bond_site_symmetry_2
_ccdc_geom_bond_type
C0 C1 1.443 . S
C0 N4 1.376 . S
C0 C38 1.389 . S
C1 C0 1.443 . S
C1 C2 1.340 . S
C1 H41 0.951 . S
C2 C1 1.340 . S
C2 C3 1.439 . S
C2 H42 0.950 . S
C3 C2 1.439 . S
C3 N4 1.374 . S
C3 C37 1.395 . S
N4 C0 1.376 . S
N4 C3 1.374 . S
N4 Co5 2.008 . S
Co5 N4 2.008 . S
Co5 N6 1.995 . S
Co5 N11 2.008 . S
Co5 N16 1.995 . S
Co5 N21 2.282 . S
Co5 N27 2.282 . S
N6 Co5 1.995 . S
N6 C7 1.376 . S
N6 C10 1.383 . S
C7 N6 1.376 . S
C7 C8 1.446 . S
C7 C37 1.391 . S
C8 C7 1.446 . S
C8 C9 1.339 . S
C8 H43 0.949 . S
C9 C8 1.339 . S
C9 C10 1.439 . S
C9 H44 0.950 . S
C10 N6 1.383 . S
C10 C9 1.439 . S
C10 C39 1.392 . S
N11 Co5 2.008 . S
N11 C12 1.376 . S
N11 C15 1.374 . S
C12 N11 1.376 . S
C12 C13 1.443 . S
C12 C39 1.389 . S
C13 C12 1.443 . S
C13 C14 1.340 . S
C13 H45 0.951 . S
C14 C13 1.340 . S
C14 C15 1.439 . S
C14 H46 0.950 . S
C15 N11 1.374 . S
C15 C14 1.439 . S
C15 C40 1.395 . S
N16 Co5 1.995 . S
N16 C17 1.376 . S
N16 C20 1.383 . S
C17 N16 1.376 . S
C17 C18 1.446 . S
C17 C40 1.391 . S
C18 C17 1.446 . S
C18 C19 1.339 . S
C18 H47 0.949 . S
C19 C18 1.339 . S
C19 C20 1.439 . S
C19 H48 0.950 . S
C20 N16 1.383 . S
C20 C19 1.439 . S
C20 C38 1.392 . S
N21 Co5 2.282 . S
N21 C24 1.332 . S
N21 C26 1.332 . S
C22 C23 1.386 . S
C22 C25 1.388 . S
C23 C22 1.386 . S
C23 C24 1.382 . S
C23 H49 0.950 . S
C24 N21 1.332 . S
C24 C23 1.382 . S
C24 H35 0.952 . S
C25 C22 1.388 . S
C25 C26 1.382 . S
C25 H50 0.950 . S
C26 N21 1.332 . S
C26 C25 1.382 . S
C26 H36 0.948 . S
N27 Co5 2.282 . S
N27 C31 1.332 . S
N27 C32 1.332 . S
C28 C29 1.388 . S
C28 C32 1.382 . S
C28 H51 0.950 . S
C29 C28 1.388 . S
C29 C30 1.386 . S
C30 C29 1.386 . S
C30 C31 1.382 . S
C30 H52 0.950 . S
C31 N27 1.332 . S
C31 C30 1.382 . S
C31 H33 0.952 . S
C32 N27 1.332 . S
C32 C28 1.382 . S
C32 H34 0.948 . S
H33 C31 0.952 . S
H34 C32 0.948 . S
H35 C24 0.952 . S
H36 C26 0.948 . S
C37 C3 1.395 . S
C37 C7 1.391 . S
C38 C0 1.389 . S
C38 C20 1.392 . S
C39 C10 1.392 . S
C39 C12 1.389 . S
C40 C15 1.395 . S
C40 C17 1.391 . S
H41 C1 0.951 . S
H42 C2 0.950 . S
H43 C8 0.949 . S
H44 C9 0.950 . S
H45 C13 0.951 . S
H46 C14 0.950 . S
H47 C18 0.949 . S
H48 C19 0.950 . S
H49 C23 0.950 . S
H50 C25 0.950 . S
H51 C28 0.950 . S
H52 C30 0.950 . S
C53 C54 1.443 . S
C53 N57 1.376 . S
C53 C91 1.389 . S
C54 C53 1.443 . S
C54 C55 1.340 . S
C54 H94 0.951 . S
C55 C54 1.340 . S
C55 C56 1.439 . S
C55 H95 0.950 . S
C56 C55 1.439 . S
C56 N57 1.374 . S
C56 C90 1.395 . S
N57 C53 1.376 . S
N57 C56 1.374 . S
N57 Co58 2.008 . S
Co58 N57 2.008 . S
Co58 N59 1.995 . S
Co58 N64 2.008 . S
Co58 N69 1.995 . S
Co58 N74 2.282 . S
Co58 N80 2.282 . S
N59 Co58 1.995 . S
N59 C60 1.376 . S
N59 C63 1.383 . S
C60 N59 1.376 . S
C60 C61 1.446 . S
C60 C90 1.391 . S
C61 C60 1.446 . S
C61 C62 1.339 . S
C61 H96 0.949 . S
C62 C61 1.339 . S
C62 C63 1.439 . S
C62 H97 0.950 . S
C63 N59 1.383 . S
C63 C62 1.439 . S
C63 C92 1.392 . S
N64 Co58 2.008 . S
N64 C65 1.376 . S
N64 C68 1.374 . S
C65 N64 1.376 . S
C65 C66 1.443 . S
C65 C92 1.389 . S
C66 C65 1.443 . S
C66 C67 1.340 . S
C66 H98 0.951 . S
C67 C66 1.340 . S
C67 C68 1.439 . S
C67 H99 0.950 . S
C68 N64 1.374 . S
C68 C67 1.439 . S
C68 C93 1.395 . S
N69 Co58 1.995 . S
N69 C70 1.376 . S
N69 C73 1.383 . S
C70 N69 1.376 . S
C70 C71 1.446 . S
C70 C93 1.391 . S
C71 C70 1.446 . S
C71 C72 1.339 . S
C71 H100 0.949 . S
C72 C71 1.339 . S
C72 C73 1.439 . S
C72 H101 0.950 . S
C73 N69 1.383 . S
C73 C72 1.439 . S
C73 C91 1.392 . S
N74 Co58 2.282 . S
N74 C77 1.332 . S
N74 C79 1.332 . S
C75 C76 1.386 . S
C75 C78 1.388 . S
C76 C75 1.386 . S
C76 C77 1.382 . S
C76 H102 0.950 . S
C77 N74 1.332 . S
C77 C76 1.382 . S
C77 H88 0.952 . S
C78 C75 1.388 . S
C78 C79 1.382 . S
C78 H103 0.950 . S
C79 N74 1.332 . S
C79 C78 1.382 . S
C79 H89 0.948 . S
N80 Co58 2.282 . S
N80 C84 1.332 . S
N80 C85 1.332 . S
C81 C82 1.388 . S
C81 C85 1.382 1_655 S
C81 H104 0.950 . S
C82 C81 1.388 . S
C82 C83 1.386 1_655 S
C83 C82 1.386 1_455 S
C83 C84 1.382 . S
C83 H105 0.950 . S
C84 N80 1.332 . S
C84 C83 1.382 . S
C84 H86 0.952 . S
C85 N80 1.332 . S
C85 C81 1.382 1_455 S
C85 H87 0.948 . S
H86 C84 0.952 . S
H87 C85 0.948 . S
H88 C77 0.952 . S
H89 C79 0.948 . S
C90 C56 1.395 . S
C90 C60 1.391 . S
C91 C53 1.389 . S
C91 C73 1.392 . S
C92 C63 1.392 . S
C92 C65 1.389 . S
C93 C68 1.395 . S
C93 C70 1.391 . S
H94 C54 0.951 . S
H95 C55 0.950 . S
H96 C61 0.949 . S
H97 C62 0.950 . S
H98 C66 0.951 . S
H99 C67 0.950 . S
H100 C71 0.949 . S
H101 C72 0.950 . S
H102 C76 0.950 . S
H103 C78 0.950 . S
H104 C81 0.950 . S
H105 C83 0.950 . S
C106 C107 1.443 . S
C106 N110 1.376 . S
C106 C144 1.389 . S
C107 C106 1.443 . S
C107 C108 1.340 . S
C107 H147 0.951 . S
C108 C107 1.340 . S
C108 C109 1.439 . S
C108 H148 0.950 . S
C109 C108 1.439 . S
C109 N110 1.374 . S
C109 C143 1.395 1_556 S
N110 C106 1.376 . S
N110 C109 1.374 . S
N110 Co111 2.008 . S
Co111 N110 2.008 . S
Co111 N112 1.995 1_556 S
Co111 N117 2.008 1_556 S
Co111 N122 1.995 . S
Co111 N127 2.282 . S
Co111 N133 2.282 . S
N112 Co111 1.995 1_554 S
N112 C113 1.376 . S
N112 C116 1.383 . S
C113 N112 1.376 . S
C113 C114 1.446 . S
C113 C143 1.391 . S
C114 C113 1.446 . S
C114 C115 1.339 . S
C114 H149 0.949 . S
C115 C114 1.339 . S
C115 C116 1.439 . S
C115 H150 0.950 . S
C116 N112 1.383 . S
C116 C115 1.439 . S
C116 C145 1.392 . S
N117 Co111 2.008 1_554 S
N117 C118 1.376 . S
N117 C121 1.374 . S
C118 N117 1.376 . S
C118 C119 1.443 . S
C118 C145 1.389 . S
C119 C118 1.443 . S
C119 C120 1.340 . S
C119 H151 0.951 . S
C120 C119 1.340 . S
C120 C121 1.439 . S
C120 H152 0.950 . S
C121 N117 1.374 . S
C121 C120 1.439 . S
C121 C146 1.395 1_554 S
N122 Co111 1.995 . S
N122 C123 1.376 . S
N122 C126 1.383 . S
C123 N122 1.376 . S
C123 C124 1.446 . S
C123 C146 1.391 . S
C124 C123 1.446 . S
C124 C125 1.339 . S
C124 H153 0.949 . S
C125 C124 1.339 . S
C125 C126 1.439 . S
C125 H154 0.950 . S
C126 N122 1.383 . S
C126 C125 1.439 . S
C126 C144 1.392 . S
N127 Co111 2.282 . S
N127 C130 1.332 . S
N127 C132 1.354 . S
C128 C129 1.386 . S
C128 C131 1.388 1_556 S
C129 C128 1.386 . S
C129 C130 1.382 . S
C129 H155 0.950 . S
C130 N127 1.332 . S
C130 C129 1.382 . S
C130 H141 0.952 . S
C131 C128 1.388 1_554 S
C131 C132 1.378 1_554 S
C131 H156 0.950 . S
C132 N127 1.354 . S
C132 C131 1.378 1_556 S
C132 H142 0.933 1_556 S
N133 Co111 2.282 . S
N133 C137 1.332 1_556 S
N133 C138 1.332 . S
C134 C135 1.388 . S
C134 C138 1.382 . S
C134 H157 0.950 . S
C135 C134 1.388 . S
C135 C136 1.381 1_556 S
C136 C135 1.381 1_554 S
C136 C137 1.383 . S
C136 H158 0.954 . S
C137 N133 1.332 1_554 S
C137 C136 1.383 . S
C137 H139 0.952 . S
C138 N133 1.332 . S
C138 C134 1.382 . S
C138 H140 0.948 . S
H139 C137 0.952 . S
H140 C138 0.948 . S
H141 C130 0.952 . S
H142 C132 0.933 1_554 S
C143 C109 1.395 1_554 S
C143 C113 1.391 . S
C144 C106 1.389 . S
C144 C126 1.392 . S
C145 C116 1.392 . S
C145 C118 1.389 . S
C146 C121 1.395 1_556 S
C146 C123 1.391 . S
H147 C107 0.951 . S
H148 C108 0.950 . S
H149 C114 0.949 . S
H150 C115 0.950 . S
H151 C119 0.951 . S
H152 C120 0.950 . S
H153 C124 0.949 . S
H154 C125 0.950 . S
H155 C129 0.950 . S
H156 C131 0.950 . S
H157 C134 0.950 . S
H158 C136 0.954 . S
C159 C160 1.443 . S
C159 N163 1.376 . S
C159 C197 1.389 . S
C160 C159 1.443 . S
C160 C161 1.340 . S
C160 H200 0.951 . S
C161 C160 1.340 . S
C161 C162 1.439 . S
C161 H201 0.950 . S
C162 C161 1.439 . S
C162 N163 1.374 . S
C162 C196 1.395 1_556 S
N163 C159 1.376 . S
N163 C162 1.374 . S
N163 Co164 2.008 . S
Co164 N163 2.008 . S
Co164 N165 1.995 1_556 S
Co164 N170 2.008 1_556 S
Co164 N175 1.995 . S
Co164 N180 2.282 . S
Co164 N186 2.282 . S
N165 Co164 1.995 1_554 S
N165 C166 1.376 . S
N165 C169 1.383 . S
C166 N165 1.376 . S
C166 C167 1.446 . S
C166 C196 1.391 . S
C167 C166 1.446 . S
C167 C168 1.339 . S
C167 H202 0.949 . S
C168 C167 1.339 . S
C168 C169 1.439 . S
C168 H203 0.950 . S
C169 N165 1.383 . S
C169 C168 1.439 . S
C169 C198 1.392 . S
N170 Co164 2.008 1_554 S
N170 C171 1.376 . S
N170 C174 1.374 . S
C171 N170 1.376 . S
C171 C172 1.443 . S
C171 C198 1.389 . S
C172 C171 1.443 . S
C172 C173 1.340 . S
C172 H204 0.951 . S
C173 C172 1.340 . S
C173 C174 1.439 . S
C173 H205 0.950 . S
C174 N170 1.374 . S
C174 C173 1.439 . S
C174 C199 1.395 1_554 S
N175 Co164 1.995 . S
N175 C176 1.376 . S
N175 C179 1.383 . S
C176 N175 1.376 . S
C176 C177 1.446 . S
C176 C199 1.391 . S
C177 C176 1.446 . S
C177 C178 1.339 . S
C177 H206 0.949 . S
C178 C177 1.339 . S
C178 C179 1.439 . S
C178 H207 0.950 . S
C179 N175 1.383 . S
C179 C178 1.439 . S
C179 C197 1.392 . S
N180 Co164 2.282 . S
N180 C183 1.332 . S
N180 C185 1.354 . S
C181 C182 1.386 . S
C181 C184 1.388 1_556 S
C182 C181 1.386 . S
C182 C183 1.382 . S
C182 H208 0.950 . S
C183 N180 1.332 . S
C183 C182 1.382 . S
C183 H194 0.952 . S
C184 C181 1.388 1_554 S
C184 C185 1.378 1_554 S
C184 H209 0.950 . S
C185 N180 1.354 . S
C185 C184 1.378 1_556 S
C185 H195 0.933 1_556 S
N186 Co164 2.282 . S
N186 C190 1.332 1_556 S
N186 C191 1.332 . S
C187 C188 1.388 . S
C187 C191 1.382 1_655 S
C187 H210 0.950 . S
C188 C187 1.388 . S
C188 C189 1.381 1_656 S
C189 C188 1.381 1_454 S
C189 C190 1.383 . S
C189 H211 0.954 . S
C190 N186 1.332 1_554 S
C190 C189 1.383 . S
C190 H192 0.952 . S
C191 N186 1.332 . S
C191 C187 1.382 1_455 S
C191 H193 0.948 . S
H192 C190 0.952 . S
H193 C191 0.948 . S
H194 C183 0.952 . S
H195 C185 0.933 1_554 S
C196 C162 1.395 1_554 S
C196 C166 1.391 . S
C197 C159 1.389 . S
C197 C179 1.392 . S
C198 C169 1.392 . S
C198 C171 1.389 . S
C199 C174 1.395 1_556 S
C199 C176 1.391 . S
H200 C160 0.951 . S
H201 C161 0.950 . S
H202 C167 0.949 . S
H203 C168 0.950 . S
H204 C172 0.951 . S
H205 C173 0.950 . S
H206 C177 0.949 . S
H207 C178 0.950 . S
H208 C182 0.950 . S
H209 C184 0.950 . S
H210 C187 0.950 . S
H211 C189 0.954 . S
C212 C213 1.443 . S
C212 N216 1.376 . S
C212 C250 1.389 . S
C213 C212 1.443 . S
C213 C214 1.340 . S
C213 H253 0.951 . S
C214 C213 1.340 . S
C214 C215 1.439 . S
C214 H254 0.950 . S
C215 C214 1.439 . S
C215 N216 1.374 . S
C215 C249 1.395 . S
N216 C212 1.376 . S
N216 C215 1.374 . S
N216 Co217 2.008 . S
Co217 N216 2.008 . S
Co217 N218 1.995 . S
Co217 N223 2.008 . S
Co217 N228 1.995 . S
Co217 N233 2.282 . S
Co217 N239 2.282 . S
N218 Co217 1.995 . S
N218 C219 1.376 . S
N218 C222 1.383 . S
C219 N218 1.376 . S
C219 C220 1.446 . S
C219 C249 1.391 . S
C220 C219 1.446 . S
C220 C221 1.339 . S
C220 H255 0.949 . S
C221 C220 1.339 . S
C221 C222 1.439 . S
C221 H256 0.950 . S
C222 N218 1.383 . S
C222 C221 1.439 . S
C222 C251 1.392 . S
N223 Co217 2.008 . S
N223 C224 1.376 . S
N223 C227 1.374 . S
C224 N223 1.376 . S
C224 C225 1.443 . S
C224 C251 1.389 . S
C225 C224 1.443 . S
C225 C226 1.340 . S
C225 H257 0.951 . S
C226 C225 1.340 . S
C226 C227 1.439 . S
C226 H258 0.950 . S
C227 N223 1.374 . S
C227 C226 1.439 . S
C227 C252 1.395 . S
N228 Co217 1.995 . S
N228 C229 1.376 . S
N228 C232 1.383 . S
C229 N228 1.376 . S
C229 C230 1.446 . S
C229 C252 1.391 . S
C230 C229 1.446 . S
C230 C231 1.339 . S
C230 H259 0.949 . S
C231 C230 1.339 . S
C231 C232 1.439 . S
C231 H260 0.950 . S
C232 N228 1.383 . S
C232 C231 1.439 . S
C232 C250 1.392 . S
N233 Co217 2.282 . S
N233 C236 1.332 . S
N233 C238 1.332 . S
C234 C235 1.386 . S
C234 C237 1.388 . S
C235 C234 1.386 . S
C235 C236 1.382 . S
C235 H261 0.950 . S
C236 N233 1.332 . S
C236 C235 1.382 . S
C236 H247 0.952 . S
C237 C234 1.388 . S
C237 C238 1.382 . S
C237 H262 0.950 . S
C238 N233 1.332 . S
C238 C237 1.382 . S
C238 H248 0.948 . S
N239 Co217 2.282 . S
N239 C243 1.332 . S
N239 C244 1.332 . S
C240 C241 1.388 . S
C240 C244 1.382 . S
C240 H263 0.950 . S
C241 C240 1.388 . S
C241 C242 1.386 . S
C242 C241 1.386 . S
C242 C243 1.382 . S
C242 H264 0.950 . S
C243 N239 1.332 . S
C243 C242 1.382 . S
C243 H245 0.952 . S
C244 N239 1.332 . S
C244 C240 1.382 . S
C244 H246 0.948 . S
H245 C243 0.952 . S
H246 C244 0.948 . S
H247 C236 0.952 . S
H248 C238 0.948 . S
C249 C215 1.395 . S
C249 C219 1.391 . S
C250 C212 1.389 . S
C250 C232 1.392 . S
C251 C222 1.392 . S
C251 C224 1.389 . S
C252 C227 1.395 . S
C252 C229 1.391 . S
H253 C213 0.951 . S
H254 C214 0.950 . S
H255 C220 0.949 . S
H256 C221 0.950 . S
H257 C225 0.951 . S
H258 C226 0.950 . S
H259 C230 0.949 . S
H260 C231 0.950 . S
H261 C235 0.950 . S
H262 C237 0.950 . S
H263 C240 0.950 . S
H264 C242 0.950 . S
C265 C266 1.443 . S
C265 N269 1.376 . S
C265 C303 1.389 . S
C266 C265 1.443 . S
C266 C267 1.340 . S
C266 H306 0.951 . S
C267 C266 1.340 . S
C267 C268 1.439 . S
C267 H307 0.950 . S
C268 C267 1.439 . S
C268 N269 1.374 . S
C268 C302 1.395 . S
N269 C265 1.376 . S
N269 C268 1.374 . S
N269 Co270 2.008 . S
Co270 N269 2.008 . S
Co270 N271 1.995 . S
Co270 N276 2.008 . S
Co270 N281 1.995 . S
Co270 N286 2.282 . S
Co270 N292 2.282 . S
N271 Co270 1.995 . S
N271 C272 1.376 . S
N271 C275 1.383 . S
C272 N271 1.376 . S
C272 C273 1.446 . S
C272 C302 1.391 . S
C273 C272 1.446 . S
C273 C274 1.339 . S
C273 H308 0.949 . S
C274 C273 1.339 . S
C274 C275 1.439 . S
C274 H309 0.950 . S
C275 N271 1.383 . S
C275 C274 1.439 . S
C275 C304 1.392 . S
N276 Co270 2.008 . S
N276 C277 1.376 . S
N276 C280 1.374 . S
C277 N276 1.376 . S
C277 C278 1.443 . S
C277 C304 1.389 . S
C278 C277 1.443 . S
C278 C279 1.340 . S
C278 H310 0.951 . S
C279 C278 1.340 . S
C279 C280 1.439 . S
C279 H311 0.950 . S
C280 N276 1.374 . S
C280 C279 1.439 . S
C280 C305 1.395 . S
N281 Co270 1.995 . S
N281 C282 1.376 . S
N281 C285 1.383 . S
C282 N281 1.376 . S
C282 C283 1.446 . S
C282 C305 1.391 . S
C283 C282 1.446 . S
C283 C284 1.339 . S
C283 H312 0.949 . S
C284 C283 1.339 . S
C284 C285 1.439 . S
C284 H313 0.950 . S
C285 N281 1.383 . S
C285 C284 1.439 . S
C285 C303 1.392 . S
N286 Co270 2.282 . S
N286 C289 1.332 . S
N286 C291 1.332 . S
C287 C288 1.386 . S
C287 C290 1.388 . S
C288 C287 1.386 . S
C288 C289 1.382 . S
C288 H314 0.950 . S
C289 N286 1.332 . S
C289 C288 1.382 . S
C289 H300 0.952 . S
C290 C287 1.388 . S
C290 C291 1.382 . S
C290 H315 0.950 . S
C291 N286 1.332 . S
C291 C290 1.382 . S
C291 H301 0.948 . S
N292 Co270 2.282 . S
N292 C296 1.332 . S
N292 C297 1.332 . S
C293 C294 1.388 1_655 S
C293 C297 1.382 . S
C293 H316 0.950 . S
C294 C293 1.388 1_455 S
C294 C295 1.386 . S
C295 C294 1.386 . S
C295 C296 1.382 1_455 S
C295 H317 0.950 . S
C296 N292 1.332 . S
C296 C295 1.382 1_655 S
C296 H298 0.952 . S
C297 N292 1.332 . S
C297 C293 1.382 . S
C297 H299 0.948 . S
H298 C296 0.952 . S
H299 C297 0.948 . S
H300 C289 0.952 . S
H301 C291 0.948 . S
C302 C268 1.395 . S
C302 C272 1.391 . S
C303 C265 1.389 . S
C303 C285 1.392 . S
C304 C275 1.392 . S
C304 C277 1.389 . S
C305 C280 1.395 . S
C305 C282 1.391 . S
H306 C266 0.951 . S
H307 C267 0.950 . S
H308 C273 0.949 . S
H309 C274 0.950 . S
H310 C278 0.951 . S
H311 C279 0.950 . S
H312 C283 0.949 . S
H313 C284 0.950 . S
H314 C288 0.950 . S
H315 C290 0.950 . S
H316 C293 0.950 . S
H317 C295 0.950 . S
C318 C319 1.443 . S
C318 N322 1.376 . S
C318 C356 1.389 . S
C319 C318 1.443 . S
C319 C320 1.340 . S
C319 H359 0.951 . S
C320 C319 1.340 . S
C320 C321 1.439 . S
C320 H360 0.950 . S
C321 C320 1.439 . S
C321 N322 1.374 . S
C321 C355 1.395 . S
N322 C318 1.376 . S
N322 C321 1.374 . S
N322 Co323 2.008 . S
Co323 N322 2.008 . S
Co323 N324 1.995 1_554 S
Co323 N329 2.008 1_554 S
Co323 N334 1.995 . S
Co323 N339 2.282 . S
Co323 N345 2.282 . S
N324 Co323 1.995 1_556 S
N324 C325 1.376 . S
N324 C328 1.383 . S
C325 N324 1.376 . S
C325 C326 1.446 . S
C325 C355 1.391 1_556 S
C326 C325 1.446 . S
C326 C327 1.339 . S
C326 H361 0.949 . S
C327 C326 1.339 . S
C327 C328 1.439 . S
C327 H362 0.950 . S
C328 N324 1.383 . S
C328 C327 1.439 . S
C328 C357 1.392 . S
N329 Co323 2.008 1_556 S
N329 C330 1.376 . S
N329 C333 1.374 . S
C330 N329 1.376 . S
C330 C331 1.443 . S
C330 C357 1.389 . S
C331 C330 1.443 . S
C331 C332 1.340 . S
C331 H363 0.951 . S
C332 C331 1.340 . S
C332 C333 1.439 . S
C332 H364 0.950 . S
C333 N329 1.374 . S
C333 C332 1.439 . S
C333 C358 1.394 . S
N334 Co323 1.995 . S
N334 C335 1.376 . S
N334 C338 1.383 . S
C335 N334 1.376 . S
C335 C336 1.446 . S
C335 C358 1.392 1_554 S
C336 C335 1.446 . S
C336 C337 1.339 . S
C336 H365 0.949 . S
C337 C336 1.339 . S
C337 C338 1.439 . S
C337 H366 0.950 . S
C338 N334 1.383 . S
C338 C337 1.439 . S
C338 C356 1.392 . S
N339 Co323 2.282 . S
N339 C342 1.332 . S
N339 C344 1.332 . S
C340 C341 1.386 . S
C340 C343 1.388 . S
C341 C340 1.386 . S
C341 C342 1.382 . S
C341 H367 0.950 . S
C342 N339 1.332 . S
C342 C341 1.382 . S
C342 H353 0.952 . S
C343 C340 1.388 . S
C343 C344 1.382 . S
C343 H368 0.950 . S
C344 N339 1.332 . S
C344 C343 1.382 . S
C344 H354 0.948 . S
N345 Co323 2.282 . S
N345 C349 1.332 . S
N345 C350 1.332 . S
C346 C347 1.388 . S
C346 C350 1.382 . S
C346 H369 0.950 . S
C347 C346 1.388 . S
C347 C348 1.386 . S
C348 C347 1.386 . S
C348 C349 1.382 . S
C348 H370 0.950 . S
C349 N345 1.332 . S
C349 C348 1.382 . S
C349 H351 0.958 . S
C350 N345 1.332 . S
C350 C346 1.382 . S
C350 H352 0.948 . S
H351 C349 0.958 . S
H352 C350 0.948 . S
H353 C342 0.952 . S
H354 C344 0.948 . S
C355 C321 1.395 . S
C355 C325 1.391 1_554 S
C356 C318 1.389 . S
C356 C338 1.392 . S
C357 C328 1.392 . S
C357 C330 1.389 . S
C358 C333 1.394 . S
C358 C335 1.392 1_556 S
H359 C319 0.951 . S
H360 C320 0.950 . S
H361 C326 0.949 . S
H362 C327 0.950 . S
H363 C331 0.951 . S
H364 C332 0.950 . S
H365 C336 0.949 . S
H366 C337 0.950 . S
H367 C341 0.950 . S
H368 C343 0.950 . S
H369 C346 0.950 . S
H370 C348 0.950 . S
C371 C372 1.443 . S
C371 N375 1.376 . S
C371 C409 1.389 . S
C372 C371 1.443 . S
C372 C373 1.340 . S
C372 H412 0.951 . S
C373 C372 1.340 . S
C373 C374 1.439 . S
C373 H413 0.950 . S
C374 C373 1.439 . S
C374 N375 1.374 . S
C374 C408 1.395 . S
N375 C371 1.376 . S
N375 C374 1.374 . S
N375 Co376 2.008 . S
Co376 N375 2.008 . S
Co376 N377 1.995 1_554 S
Co376 N382 2.008 1_554 S
Co376 N387 1.995 . S
Co376 N392 2.282 . S
Co376 N398 2.282 . S
N377 Co376 1.995 1_556 S
N377 C378 1.376 . S
N377 C381 1.383 . S
C378 N377 1.376 . S
C378 C379 1.446 . S
C378 C408 1.391 1_556 S
C379 C378 1.446 . S
C379 C380 1.339 . S
C379 H414 0.949 . S
C380 C379 1.339 . S
C380 C381 1.439 . S
C380 H415 0.950 . S
C381 N377 1.383 . S
C381 C380 1.439 . S
C381 C410 1.392 . S
N382 Co376 2.008 1_556 S
N382 C383 1.376 . S
N382 C386 1.374 . S
C383 N382 1.376 . S
C383 C384 1.443 . S
C383 C410 1.389 . S
C384 C383 1.443 . S
C384 C385 1.340 . S
C384 H416 0.951 . S
C385 C384 1.340 . S
C385 C386 1.439 . S
C385 H417 0.950 . S
C386 N382 1.374 . S
C386 C385 1.439 . S
C386 C411 1.394 . S
N387 Co376 1.995 . S
N387 C388 1.376 . S
N387 C391 1.383 . S
C388 N387 1.376 . S
C388 C389 1.446 . S
C388 C411 1.392 1_554 S
C389 C388 1.446 . S
C389 C390 1.339 . S
C389 H418 0.949 . S
C390 C389 1.339 . S
C390 C391 1.439 . S
C390 H419 0.950 . S
C391 N387 1.383 . S
C391 C390 1.439 . S
C391 C409 1.392 . S
N392 Co376 2.282 . S
N392 C395 1.332 . S
N392 C397 1.332 . S
C393 C394 1.386 . S
C393 C396 1.388 . S
C394 C393 1.386 . S
C394 C395 1.382 . S
C394 H420 0.950 . S
C395 N392 1.332 . S
C395 C394 1.382 . S
C395 H406 0.952 . S
C396 C393 1.388 . S
C396 C397 1.382 . S
C396 H421 0.950 . S
C397 N392 1.332 . S
C397 C396 1.382 . S
C397 H407 0.948 . S
N398 Co376 2.282 . S
N398 C402 1.332 . S
N398 C403 1.332 . S
C399 C400 1.388 1_655 S
C399 C403 1.382 . S
C399 H422 0.950 . S
C400 C399 1.388 1_455 S
C400 C401 1.386 . S
C401 C400 1.386 . S
C401 C402 1.382 1_455 S
C401 H423 0.950 . S
C402 N398 1.332 . S
C402 C401 1.382 1_655 S
C402 H404 0.958 . S
C403 N398 1.332 . S
C403 C399 1.382 . S
C403 H405 0.948 . S
H404 C402 0.958 . S
H405 C403 0.948 . S
H406 C395 0.952 . S
H407 C397 0.948 . S
C408 C374 1.395 . S
C408 C378 1.391 1_554 S
C409 C371 1.389 . S
C409 C391 1.392 . S
C410 C381 1.392 . S
C410 C383 1.389 . S
C411 C386 1.394 . S
C411 C388 1.392 1_556 S
H412 C372 0.951 . S
H413 C373 0.950 . S
H414 C379 0.949 . S
H415 C380 0.950 . S
H416 C384 0.951 . S
H417 C385 0.950 . S
H418 C389 0.949 . S
H419 C390 0.950 . S
H420 C394 0.950 . S
H421 C396 0.950 . S
H422 C399 0.950 . S
H423 C401 0.950 . S
C424 C425 1.443 . S
C424 N428 1.376 . S
C424 C462 1.389 . S
C425 C424 1.443 . S
C425 C426 1.340 . S
C425 H465 0.951 . S
C426 C425 1.340 . S
C426 C427 1.439 . S
C426 H466 0.950 . S
C427 C426 1.439 . S
C427 N428 1.374 . S
C427 C461 1.395 . S
N428 C424 1.376 . S
N428 C427 1.374 . S
N428 Co429 2.008 . S
Co429 N428 2.008 . S
Co429 N430 1.995 . S
Co429 N435 2.008 . S
Co429 N440 1.995 . S
Co429 N445 2.282 . S
Co429 N451 2.282 . S
N430 Co429 1.995 . S
N430 C431 1.376 . S
N430 C434 1.383 . S
C431 N430 1.376 . S
C431 C432 1.446 . S
C431 C461 1.391 . S
C432 C431 1.446 . S
C432 C433 1.339 . S
C432 H467 0.949 . S
C433 C432 1.339 . S
C433 C434 1.439 . S
C433 H468 0.950 . S
C434 N430 1.383 . S
C434 C433 1.439 . S
C434 C463 1.392 . S
N435 Co429 2.008 . S
N435 C436 1.376 . S
N435 C439 1.374 . S
C436 N435 1.376 . S
C436 C437 1.443 . S
C436 C463 1.389 . S
C437 C436 1.443 . S
C437 C438 1.340 . S
C437 H469 0.951 . S
C438 C437 1.340 . S
C438 C439 1.439 . S
C438 H470 0.950 . S
C439 N435 1.374 . S
C439 C438 1.439 . S
C439 C464 1.395 . S
N440 Co429 1.995 . S
N440 C441 1.376 . S
N440 C444 1.383 . S
C441 N440 1.376 . S
C441 C442 1.446 . S
C441 C464 1.391 . S
C442 C441 1.446 . S
C442 C443 1.339 . S
C442 H471 0.949 . S
C443 C442 1.339 . S
C443 C444 1.439 . S
C443 H472 0.950 . S
C444 N440 1.383 . S
C444 C443 1.439 . S
C444 C462 1.392 . S
N445 Co429 2.282 . S
N445 C448 1.332 . S
N445 C450 1.332 . S
C446 C447 1.386 . S
C446 C449 1.388 . S
C447 C446 1.386 . S
C447 C448 1.382 . S
C447 H473 0.950 . S
C448 N445 1.332 . S
C448 C447 1.382 . S
C448 H459 0.952 . S
C449 C446 1.388 . S
C449 C450 1.382 . S
C449 H474 0.950 . S
C450 N445 1.332 . S
C450 C449 1.382 . S
C450 H460 0.948 . S
N451 Co429 2.282 . S
N451 C455 1.332 . S
N451 C456 1.332 . S
C452 C453 1.388 . S
C452 C456 1.382 . S
C452 H475 0.950 . S
C453 C452 1.388 . S
C453 C454 1.386 . S
C454 C453 1.386 . S
C454 C455 1.382 . S
C454 H476 0.950 . S
C455 N451 1.332 . S
C455 C454 1.382 . S
C455 H457 0.952 . S
C456 N451 1.332 . S
C456 C452 1.382 . S
C456 H458 0.948 . S
H457 C455 0.952 . S
H458 C456 0.948 . S
H459 C448 0.952 . S
H460 C450 0.948 . S
C461 C427 1.395 . S
C461 C431 1.391 . S
C462 C424 1.389 . S
C462 C444 1.392 . S
C463 C434 1.392 . S
C463 C436 1.389 . S
C464 C439 1.395 . S
C464 C441 1.391 . S
H465 C425 0.951 . S
H466 C426 0.950 . S
H467 C432 0.949 . S
H468 C433 0.950 . S
H469 C437 0.951 . S
H470 C438 0.950 . S
H471 C442 0.949 . S
H472 C443 0.950 . S
H473 C447 0.950 . S
H474 C449 0.950 . S
H475 C452 0.950 . S
H476 C454 0.950 . S
C477 C478 1.443 . S
C477 N481 1.376 . S
C477 C515 1.389 . S
C478 C477 1.443 . S
C478 C479 1.340 . S
C478 H518 0.951 . S
C479 C478 1.340 . S
C479 C480 1.439 . S
C479 H519 0.950 . S
C480 C479 1.439 . S
C480 N481 1.374 . S
C480 C514 1.395 . S
N481 C477 1.376 . S
N481 C480 1.374 . S
N481 Co482 2.008 . S
Co482 N481 2.008 . S
Co482 N483 1.995 . S
Co482 N488 2.008 . S
Co482 N493 1.995 . S
Co482 N498 2.282 . S
Co482 N504 2.282 . S
N483 Co482 1.995 . S
N483 C484 1.376 . S
N483 C487 1.383 . S
C484 N483 1.376 . S
C484 C485 1.446 . S
C484 C514 1.391 . S
C485 C484 1.446 . S
C485 C486 1.339 . S
C485 H520 0.949 . S
C486 C485 1.339 . S
C486 C487 1.439 . S
C486 H521 0.950 . S
C487 N483 1.383 . S
C487 C486 1.439 . S
C487 C516 1.392 . S
N488 Co482 2.008 . S
N488 C489 1.376 . S
N488 C492 1.374 . S
C489 N488 1.376 . S
C489 C490 1.443 . S
C489 C516 1.389 . S
C490 C489 1.443 . S
C490 C491 1.340 . S
C490 H522 0.951 . S
C491 C490 1.340 . S
C491 C492 1.439 . S
C491 H523 0.950 . S
C492 N488 1.374 . S
C492 C491 1.439 . S
C492 C517 1.395 . S
N493 Co482 1.995 . S
N493 C494 1.376 . S
N493 C497 1.383 . S
C494 N493 1.376 . S
C494 C495 1.446 . S
C494 C517 1.391 . S
C495 C494 1.446 . S
C495 C496 1.339 . S
C495 H524 0.949 . S
C496 C495 1.339 . S
C496 C497 1.439 . S
C496 H525 0.950 . S
C497 N493 1.383 . S
C497 C496 1.439 . S
C497 C515 1.392 . S
N498 Co482 2.282 . S
N498 C501 1.332 . S
N498 C503 1.332 . S
C499 C500 1.386 . S
C499 C502 1.388 . S
C500 C499 1.386 . S
C500 C501 1.382 . S
C500 H526 0.950 . S
C501 N498 1.332 . S
C501 C500 1.382 . S
C501 H512 0.952 . S
C502 C499 1.388 . S
C502 C503 1.382 . S
C502 H527 0.950 . S
C503 N498 1.332 . S
C503 C502 1.382 . S
C503 H513 0.948 . S
N504 Co482 2.282 . S
N504 C508 1.332 . S
N504 C509 1.332 . S
C505 C506 1.388 . S
C505 C509 1.382 1_655 S
C505 H528 0.950 . S
C506 C505 1.388 . S
C506 C507 1.386 1_655 S
C507 C506 1.386 1_455 S
C507 C508 1.382 . S
C507 H529 0.950 . S
C508 N504 1.332 . S
C508 C507 1.382 . S
C508 H510 0.952 . S
C509 N504 1.332 . S
C509 C505 1.382 1_455 S
C509 H511 0.948 . S
H510 C508 0.952 . S
H511 C509 0.948 . S
H512 C501 0.952 . S
H513 C503 0.948 . S
C514 C480 1.395 . S
C514 C484 1.391 . S
C515 C477 1.389 . S
C515 C497 1.392 . S
C516 C487 1.392 . S
C516 C489 1.389 . S
C517 C492 1.395 . S
C517 C494 1.391 . S
H518 C478 0.951 . S
H519 C479 0.950 . S
H520 C485 0.949 . S
H521 C486 0.950 . S
H522 C490 0.951 . S
H523 C491 0.950 . S
H524 C495 0.949 . S
H525 C496 0.950 . S
H526 C500 0.950 . S
H527 C502 0.950 . S
H528 C505 0.950 . S
H529 C507 0.950 . S
C530 C531 1.443 . S
C530 N534 1.376 . S
C530 C568 1.389 . S
C531 C530 1.443 . S
C531 C532 1.340 . S
C531 H571 0.951 . S
C532 C531 1.340 . S
C532 C533 1.439 . S
C532 H572 0.950 . S
C533 C532 1.439 . S
C533 N534 1.374 . S
C533 C567 1.395 . S
N534 C530 1.376 . S
N534 C533 1.374 . S
N534 Co535 2.008 . S
Co535 N534 2.008 . S
Co535 N536 1.995 . S
Co535 N541 2.008 . S
Co535 N546 1.995 . S
Co535 N551 2.282 . S
Co535 N557 2.282 . S
N536 Co535 1.995 . S
N536 C537 1.376 . S
N536 C540 1.383 . S
C537 N536 1.376 . S
C537 C538 1.446 . S
C537 C567 1.391 . S
C538 C537 1.446 . S
C538 C539 1.339 . S
C538 H573 0.949 . S
C539 C538 1.339 . S
C539 C540 1.439 . S
C539 H574 0.950 . S
C540 N536 1.383 . S
C540 C539 1.439 . S
C540 C569 1.392 . S
N541 Co535 2.008 . S
N541 C542 1.376 . S
N541 C545 1.374 . S
C542 N541 1.376 . S
C542 C543 1.443 . S
C542 C569 1.389 . S
C543 C542 1.443 . S
C543 C544 1.340 . S
C543 H575 0.951 . S
C544 C543 1.340 . S
C544 C545 1.439 . S
C544 H576 0.950 . S
C545 N541 1.374 . S
C545 C544 1.439 . S
C545 C570 1.395 . S
N546 Co535 1.995 . S
N546 C547 1.376 . S
N546 C550 1.383 . S
C547 N546 1.376 . S
C547 C548 1.446 . S
C547 C570 1.391 . S
C548 C547 1.446 . S
C548 C549 1.339 . S
C548 H577 0.949 . S
C549 C548 1.339 . S
C549 C550 1.439 . S
C549 H578 0.950 . S
C550 N546 1.383 . S
C550 C549 1.439 . S
C550 C568 1.392 . S
N551 Co535 2.282 . S
N551 C554 1.332 . S
N551 C556 1.332 . S
C552 C553 1.386 . S
C552 C555 1.388 . S
C553 C552 1.386 . S
C553 C554 1.382 . S
C553 H579 0.950 . S
C554 N551 1.332 . S
C554 C553 1.382 . S
C554 H565 0.952 . S
C555 C552 1.388 . S
C555 C556 1.382 . S
C555 H580 0.950 . S
C556 N551 1.332 . S
C556 C555 1.382 . S
C556 H566 0.948 . S
N557 Co535 2.282 . S
N557 C561 1.332 . S
N557 C562 1.332 . S
C558 C559 1.388 . S
C558 C562 1.382 . S
C558 H581 0.950 . S
C559 C558 1.388 . S
C559 C560 1.386 . S
C560 C559 1.386 . S
C560 C561 1.382 . S
C560 H582 0.950 . S
C561 N557 1.332 . S
C561 C560 1.382 . S
C561 H563 0.952 . S
C562 N557 1.332 . S
C562 C558 1.382 . S
C562 H564 0.948 . S
H563 C561 0.952 . S
H564 C562 0.948 . S
H565 C554 0.952 . S
H566 C556 0.948 . S
C567 C533 1.395 . S
C567 C537 1.391 . S
C568 C530 1.389 . S
C568 C550 1.392 . S
C569 C540 1.392 . S
C569 C542 1.389 . S
C570 C545 1.395 . S
C570 C547 1.391 . S
H571 C531 0.951 . S
H572 C532 0.950 . S
H573 C538 0.949 . S
H574 C539 0.950 . S
H575 C543 0.951 . S
H576 C544 0.950 . S
H577 C548 0.949 . S
H578 C549 0.950 . S
H579 C553 0.950 . S
H580 C555 0.950 . S
H581 C558 0.950 . S
H582 C560 0.950 . S
C583 C584 1.443 . S
C583 N587 1.376 . S
C583 C621 1.389 . S
C584 C583 1.443 . S
C584 C585 1.340 . S
C584 H624 0.951 . S
C585 C584 1.340 . S
C585 C586 1.439 . S
C585 H625 0.950 . S
C586 C585 1.439 . S
C586 N587 1.374 . S
C586 C620 1.395 . S
N587 C583 1.376 . S
N587 C586 1.374 . S
N587 Co588 2.008 . S
Co588 N587 2.008 . S
Co588 N589 1.995 . S
Co588 N594 2.008 . S
Co588 N599 1.995 . S
Co588 N604 2.282 . S
Co588 N610 2.282 . S
N589 Co588 1.995 . S
N589 C590 1.376 . S
N589 C593 1.383 . S
C590 N589 1.376 . S
C590 C591 1.446 . S
C590 C620 1.391 . S
C591 C590 1.446 . S
C591 C592 1.339 . S
C591 H626 0.949 . S
C592 C591 1.339 . S
C592 C593 1.439 . S
C592 H627 0.950 . S
C593 N589 1.383 . S
C593 C592 1.439 . S
C593 C622 1.392 . S
N594 Co588 2.008 . S
N594 C595 1.376 . S
N594 C598 1.374 . S
C595 N594 1.376 . S
C595 C596 1.443 . S
C595 C622 1.389 . S
C596 C595 1.443 . S
C596 C597 1.340 . S
C596 H628 0.951 . S
C597 C596 1.340 . S
C597 C598 1.439 . S
C597 H629 0.950 . S
C598 N594 1.374 . S
C598 C597 1.439 . S
C598 C623 1.395 . S
N599 Co588 1.995 . S
N599 C600 1.376 . S
N599 C603 1.383 . S
C600 N599 1.376 . S
C600 C601 1.446 . S
C600 C623 1.391 . S
C601 C600 1.446 . S
C601 C602 1.339 . S
C601 H630 0.949 . S
C602 C601 1.339 . S
C602 C603 1.439 . S
C602 H631 0.950 . S
C603 N599 1.383 . S
C603 C602 1.439 . S
C603 C621 1.392 . S
N604 Co588 2.282 . S
N604 C607 1.332 . S
N604 C609 1.332 . S
C605 C606 1.386 . S
C605 C608 1.388 . S
C606 C605 1.386 . S
C606 C607 1.382 . S
C606 H632 0.950 . S
C607 N604 1.332 . S
C607 C606 1.382 . S
C607 H618 0.952 . S
C608 C605 1.388 . S
C608 C609 1.382 . S
C608 H633 0.950 . S
C609 N604 1.332 . S
C609 C608 1.382 . S
C609 H619 0.948 . S
N610 Co588 2.282 . S
N610 C614 1.332 . S
N610 C615 1.332 . S
C611 C612 1.388 . S
C611 C615 1.382 1_655 S
C611 H634 0.950 . S
C612 C611 1.388 . S
C612 C613 1.386 1_655 S
C613 C612 1.386 1_455 S
C613 C614 1.382 . S
C613 H635 0.950 . S
C614 N610 1.332 . S
C614 C613 1.382 . S
C614 H616 0.952 . S
C615 N610 1.332 . S
C615 C611 1.382 1_455 S
C615 H617 0.948 . S
H616 C614 0.952 . S
H617 C615 0.948 . S
H618 C607 0.952 . S
H619 C609 0.948 . S
C620 C586 1.395 . S
C620 C590 1.391 . S
C621 C583 1.389 . S
C621 C603 1.392 . S
C622 C593 1.392 . S
C622 C595 1.389 . S
C623 C598 1.395 . S
C623 C600 1.391 . S
H624 C584 0.951 . S
H625 C585 0.950 . S
H626 C591 0.949 . S
H627 C592 0.950 . S
H628 C596 0.951 . S
H629 C597 0.950 . S
H630 C601 0.949 . S
H631 C602 0.950 . S
H632 C606 0.950 . S
H633 C608 0.950 . S
H634 C611 0.950 . S
H635 C613 0.950 . S
C636 C637 1.443 . S
C636 N640 1.376 . S
C636 C674 1.389 . S
C637 C636 1.443 . S
C637 C638 1.340 . S
C637 H677 0.951 . S
C638 C637 1.340 . S
C638 C639 1.439 . S
C638 H678 0.950 . S
C639 C638 1.439 . S
C639 N640 1.374 . S
C639 C673 1.395 . S
N640 C636 1.376 . S
N640 C639 1.374 . S
N640 Co641 2.008 . S
Co641 N640 2.008 . S
Co641 N642 1.995 . S
Co641 N647 2.008 . S
Co641 N652 1.995 . S
Co641 N657 2.282 . S
Co641 N663 2.282 . S
N642 Co641 1.995 . S
N642 C643 1.376 . S
N642 C646 1.383 . S
C643 N642 1.376 . S
C643 C644 1.446 . S
C643 C673 1.391 . S
C644 C643 1.446 . S
C644 C645 1.339 . S
C644 H679 0.949 . S
C645 C644 1.339 . S
C645 C646 1.439 . S
C645 H680 0.950 . S
C646 N642 1.383 . S
C646 C645 1.439 . S
C646 C675 1.392 . S
N647 Co641 2.008 . S
N647 C648 1.376 . S
N647 C651 1.374 . S
C648 N647 1.376 . S
C648 C649 1.443 . S
C648 C675 1.389 . S
C649 C648 1.443 . S
C649 C650 1.340 . S
C649 H681 0.951 . S
C650 C649 1.340 . S
C650 C651 1.439 . S
C650 H682 0.950 . S
C651 N647 1.374 . S
C651 C650 1.439 . S
C651 C676 1.395 . S
N652 Co641 1.995 . S
N652 C653 1.376 . S
N652 C656 1.383 . S
C653 N652 1.376 . S
C653 C654 1.446 . S
C653 C676 1.391 . S
C654 C653 1.446 . S
C654 C655 1.339 . S
C654 H683 0.949 . S
C655 C654 1.339 . S
C655 C656 1.439 . S
C655 H684 0.950 . S
C656 N652 1.383 . S
C656 C655 1.439 . S
C656 C674 1.392 . S
N657 Co641 2.282 . S
N657 C660 1.332 . S
N657 C662 1.332 . S
C658 C659 1.386 . S
C658 C661 1.388 . S
C659 C658 1.386 . S
C659 C660 1.382 . S
C659 H685 0.950 . S
C660 N657 1.332 . S
C660 C659 1.382 . S
C660 H671 0.952 . S
C661 C658 1.388 . S
C661 C662 1.382 . S
C661 H686 0.950 . S
C662 N657 1.332 . S
C662 C661 1.382 . S
C662 H672 0.948 . S
N663 Co641 2.282 . S
N663 C667 1.332 . S
N663 C668 1.332 . S
C664 C665 1.388 . S
C664 C668 1.382 . S
C664 H687 0.950 . S
C665 C664 1.388 . S
C665 C666 1.386 . S
C666 C665 1.386 . S
C666 C667 1.382 . S
C666 H688 0.950 . S
C667 N663 1.332 . S
C667 C666 1.382 . S
C667 H669 0.952 . S
C668 N663 1.332 . S
C668 C664 1.382 . S
C668 H670 0.948 . S
H669 C667 0.952 . S
H670 C668 0.948 . S
H671 C660 0.952 . S
H672 C662 0.948 . S
C673 C639 1.395 . S
C673 C643 1.391 . S
C674 C636 1.389 . S
C674 C656 1.392 . S
C675 C646 1.392 . S
C675 C648 1.389 . S
C676 C651 1.395 . S
C676 C653 1.391 . S
H677 C637 0.951 . S
H678 C638 0.950 . S
H679 C644 0.949 . S
H680 C645 0.950 . S
H681 C649 0.951 . S
H682 C650 0.950 . S
H683 C654 0.949 . S
H684 C655 0.950 . S
H685 C659 0.950 . S
H686 C661 0.950 . S
H687 C664 0.950 . S
H688 C666 0.950 . S
C689 C690 1.443 . S
C689 N693 1.376 . S
C689 C727 1.389 . S
C690 C689 1.443 . S
C690 C691 1.340 . S
C690 H730 0.951 . S
C691 C690 1.340 . S
C691 C692 1.439 . S
C691 H731 0.950 . S
C692 C691 1.439 . S
C692 N693 1.374 . S
C692 C726 1.395 . S
N693 C689 1.376 . S
N693 C692 1.374 . S
N693 Co694 2.008 . S
Co694 N693 2.008 . S
Co694 N695 1.995 . S
Co694 N700 2.008 . S
Co694 N705 1.995 . S
Co694 N710 2.282 . S
Co694 N716 2.282 . S
N695 Co694 1.995 . S
N695 C696 1.376 . S
N695 C699 1.383 . S
C696 N695 1.376 . S
C696 C697 1.446 . S
C696 C726 1.391 . S
C697 C696 1.446 . S
C697 C698 1.339 . S
C697 H732 0.949 . S
C698 C697 1.339 . S
C698 C699 1.439 . S
C698 H733 0.950 . S
C699 N695 1.383 . S
C699 C698 1.439 . S
C699 C728 1.392 . S
N700 Co694 2.008 . S
N700 C701 1.376 . S
N700 C704 1.374 . S
C701 N700 1.376 . S
C701 C702 1.443 . S
C701 C728 1.389 . S
C702 C701 1.443 . S
C702 C703 1.340 . S
C702 H734 0.951 . S
C703 C702 1.340 . S
C703 C704 1.439 . S
C703 H735 0.950 . S
C704 N700 1.374 . S
C704 C703 1.439 . S
C704 C729 1.395 . S
N705 Co694 1.995 . S
N705 C706 1.376 . S
N705 C709 1.383 . S
C706 N705 1.376 . S
C706 C707 1.446 . S
C706 C729 1.391 . S
C707 C706 1.446 . S
C707 C708 1.339 . S
C707 H736 0.949 . S
C708 C707 1.339 . S
C708 C709 1.439 . S
C708 H737 0.950 . S
C709 N705 1.383 . S
C709 C708 1.439 . S
C709 C727 1.392 . S
N710 Co694 2.282 . S
N710 C713 1.332 . S
N710 C715 1.332 . S
C711 C712 1.386 . S
C711 C714 1.388 . S
C712 C711 1.386 . S
C712 C713 1.382 . S
C712 H738 0.950 . S
C713 N710 1.332 . S
C713 C712 1.382 . S
C713 H724 0.952 . S
C714 C711 1.388 . S
C714 C715 1.382 . S
C714 H739 0.950 . S
C715 N710 1.332 . S
C715 C714 1.382 . S
C715 H725 0.948 . S
N716 Co694 2.282 . S
N716 C720 1.332 . S
N716 C721 1.332 . S
C717 C718 1.388 1_655 S
C717 C721 1.382 . S
C717 H740 0.950 . S
C718 C717 1.388 1_455 S
C718 C719 1.386 . S
C719 C718 1.386 . S
C719 C720 1.382 1_455 S
C719 H741 0.950 . S
C720 N716 1.332 . S
C720 C719 1.382 1_655 S
C720 H722 0.952 . S
C721 N716 1.332 . S
C721 C717 1.382 . S
C721 H723 0.948 . S
H722 C720 0.952 . S
H723 C721 0.948 . S
H724 C713 0.952 . S
H725 C715 0.948 . S
C726 C692 1.395 . S
C726 C696 1.391 . S
C727 C689 1.389 . S
C727 C709 1.392 . S
C728 C699 1.392 . S
C728 C701 1.389 . S
C729 C704 1.395 . S
C729 C706 1.391 . S
H730 C690 0.951 . S
H731 C691 0.950 . S
H732 C697 0.949 . S
H733 C698 0.950 . S
H734 C702 0.951 . S
H735 C703 0.950 . S
H736 C707 0.949 . S
H737 C708 0.950 . S
H738 C712 0.950 . S
H739 C714 0.950 . S
H740 C717 0.950 . S
H741 C719 0.950 . S
C742 C743 1.443 . S
C742 N746 1.376 . S
C742 C780 1.389 . S
C743 C742 1.443 . S
C743 C744 1.340 . S
C743 H783 0.951 . S
C744 C743 1.340 . S
C744 C745 1.439 . S
C744 H784 0.950 . S
C745 C744 1.439 . S
C745 N746 1.374 . S
C745 C779 1.395 . S
N746 C742 1.376 . S
N746 C745 1.374 . S
N746 Co747 2.008 . S
Co747 N746 2.008 . S
Co747 N748 1.995 . S
Co747 N753 2.008 . S
Co747 N758 1.995 . S
Co747 N763 2.282 . S
Co747 N769 2.282 . S
N748 Co747 1.995 . S
N748 C749 1.376 . S
N748 C752 1.383 . S
C749 N748 1.376 . S
C749 C750 1.446 . S
C749 C779 1.391 . S
C750 C749 1.446 . S
C750 C751 1.339 . S
C750 H785 0.949 . S
C751 C750 1.339 . S
C751 C752 1.439 . S
C751 H786 0.950 . S
C752 N748 1.383 . S
C752 C751 1.439 . S
C752 C781 1.392 . S
N753 Co747 2.008 . S
N753 C754 1.376 . S
N753 C757 1.374 . S
C754 N753 1.376 . S
C754 C755 1.443 . S
C754 C781 1.389 . S
C755 C754 1.443 . S
C755 C756 1.340 . S
C755 H787 0.951 . S
C756 C755 1.340 . S
C756 C757 1.439 . S
C756 H788 0.950 . S
C757 N753 1.374 . S
C757 C756 1.439 . S
C757 C782 1.395 . S
N758 Co747 1.995 . S
N758 C759 1.376 . S
N758 C762 1.383 . S
C759 N758 1.376 . S
C759 C760 1.446 . S
C759 C782 1.391 . S
C760 C759 1.446 . S
C760 C761 1.339 . S
C760 H789 0.949 . S
C761 C760 1.339 . S
C761 C762 1.439 . S
C761 H790 0.950 . S
C762 N758 1.383 . S
C762 C761 1.439 . S
C762 C780 1.392 . S
N763 Co747 2.282 . S
N763 C766 1.332 . S
N763 C768 1.332 . S
C764 C765 1.386 . S
C764 C767 1.388 . S
C765 C764 1.386 . S
C765 C766 1.382 . S
C765 H791 0.950 . S
C766 N763 1.332 . S
C766 C765 1.382 . S
C766 H777 0.952 . S
C767 C764 1.388 . S
C767 C768 1.382 . S
C767 H792 0.950 . S
C768 N763 1.332 . S
C768 C767 1.382 . S
C768 H778 0.948 . S
N769 Co747 2.282 . S
N769 C773 1.332 . S
N769 C774 1.332 . S
C770 C771 1.388 . S
C770 C774 1.382 . S
C770 H793 0.950 . S
C771 C770 1.388 . S
C771 C772 1.386 . S
C772 C771 1.386 . S
C772 C773 1.382 . S
C772 H794 0.950 . S
C773 N769 1.332 . S
C773 C772 1.382 . S
C773 H775 0.952 . S
C774 N769 1.332 . S
C774 C770 1.382 . S
C774 H776 0.948 . S
H775 C773 0.952 . S
H776 C774 0.948 . S
H777 C766 0.952 . S
H778 C768 0.948 . S
C779 C745 1.395 . S
C779 C749 1.391 . S
C780 C742 1.389 . S
C780 C762 1.392 . S
C781 C752 1.392 . S
C781 C754 1.389 . S
C782 C757 1.395 . S
C782 C759 1.391 . S
H783 C743 0.951 . S
H784 C744 0.950 . S
H785 C750 0.949 . S
H786 C751 0.950 . S
H787 C755 0.951 . S
H788 C756 0.950 . S
H789 C760 0.949 . S
H790 C761 0.950 . S
H791 C765 0.950 . S
H792 C767 0.950 . S
H793 C770 0.950 . S
H794 C772 0.950 . S
C795 C796 1.443 . S
C795 N799 1.376 . S
C795 C833 1.389 . S
C796 C795 1.443 . S
C796 C797 1.340 . S
C796 H836 0.951 . S
C797 C796 1.340 . S
C797 C798 1.439 . S
C797 H837 0.950 . S
C798 C797 1.439 . S
C798 N799 1.374 . S
C798 C832 1.395 . S
N799 C795 1.376 . S
N799 C798 1.374 . S
N799 Co800 2.008 . S
Co800 N799 2.008 . S
Co800 N801 1.995 . S
Co800 N806 2.008 . S
Co800 N811 1.995 . S
Co800 N816 2.282 . S
Co800 N822 2.282 . S
N801 Co800 1.995 . S
N801 C802 1.376 . S
N801 C805 1.383 . S
C802 N801 1.376 . S
C802 C803 1.446 . S
C802 C832 1.391 . S
C803 C802 1.446 . S
C803 C804 1.339 . S
C803 H838 0.949 . S
C804 C803 1.339 . S
C804 C805 1.439 . S
C804 H839 0.950 . S
C805 N801 1.383 . S
C805 C804 1.439 . S
C805 C834 1.392 . S
N806 Co800 2.008 . S
N806 C807 1.376 . S
N806 C810 1.374 . S
C807 N806 1.376 . S
C807 C808 1.443 . S
C807 C834 1.389 . S
C808 C807 1.443 . S
C808 C809 1.340 . S
C808 H840 0.951 . S
C809 C808 1.340 . S
C809 C810 1.439 . S
C809 H841 0.950 . S
C810 N806 1.374 . S
C810 C809 1.439 . S
C810 C835 1.395 . S
N811 Co800 1.995 . S
N811 C812 1.376 . S
N811 C815 1.383 . S
C812 N811 1.376 . S
C812 C813 1.446 . S
C812 C835 1.391 . S
C813 C812 1.446 . S
C813 C814 1.339 . S
C813 H842 0.949 . S
C814 C813 1.339 . S
C814 C815 1.439 . S
C814 H843 0.950 . S
C815 N811 1.383 . S
C815 C814 1.439 . S
C815 C833 1.392 . S
N816 Co800 2.282 . S
N816 C819 1.332 . S
N816 C821 1.332 . S
C817 C818 1.386 . S
C817 C820 1.388 . S
C818 C817 1.386 . S
C818 C819 1.382 . S
C818 H844 0.950 . S
C819 N816 1.332 . S
C819 C818 1.382 . S
C819 H830 0.952 . S
C820 C817 1.388 . S
C820 C821 1.382 . S
C820 H845 0.950 . S
C821 N816 1.332 . S
C821 C820 1.382 . S
C821 H831 0.948 . S
N822 Co800 2.282 . S
N822 C826 1.332 . S
N822 C827 1.332 . S
C823 C824 1.388 1_655 S
C823 C827 1.382 . S
C823 H846 0.950 . S
C824 C823 1.388 1_455 S
C824 C825 1.386 . S
C825 C824 1.386 . S
C825 C826 1.382 1_455 S
C825 H847 0.950 . S
C826 N822 1.332 . S
C826 C825 1.382 1_655 S
C826 H828 0.952 . S
C827 N822 1.332 . S
C827 C823 1.382 . S
C827 H829 0.948 . S
H828 C826 0.952 . S
H829 C827 0.948 . S
H830 C819 0.952 . S
H831 C821 0.948 . S
C832 C798 1.395 . S
C832 C802 1.391 . S
C833 C795 1.389 . S
C833 C815 1.392 . S
C834 C805 1.392 . S
C834 C807 1.389 . S
C835 C810 1.395 . S
C835 C812 1.391 . S
H836 C796 0.951 . S
H837 C797 0.950 . S
H838 C803 0.949 . S
H839 C804 0.950 . S
H840 C808 0.951 . S
H841 C809 0.950 . S
H842 C813 0.949 . S
H843 C814 0.950 . S
H844 C818 0.950 . S
H845 C820 0.950 . S
H846 C823 0.950 . S
H847 C825 0.950 . S
C848 C849 1.443 . S
C848 N852 1.376 . S
C848 C886 1.389 . S
C849 C848 1.443 . S
C849 C850 1.340 . S
C849 H889 0.951 . S
C850 C849 1.340 . S
C850 C851 1.439 . S
C850 H890 0.950 . S
C851 C850 1.439 . S
C851 N852 1.374 . S
C851 C885 1.395 . S
N852 C848 1.376 . S
N852 C851 1.374 . S
N852 Co853 2.008 . S
Co853 N852 2.008 . S
Co853 N854 1.995 . S
Co853 N859 2.008 . S
Co853 N864 1.995 . S
Co853 N869 2.282 . S
Co853 N875 2.282 . S
N854 Co853 1.995 . S
N854 C855 1.376 . S
N854 C858 1.383 . S
C855 N854 1.376 . S
C855 C856 1.446 . S
C855 C885 1.391 . S
C856 C855 1.446 . S
C856 C857 1.339 . S
C856 H891 0.949 . S
C857 C856 1.339 . S
C857 C858 1.439 . S
C857 H892 0.950 . S
C858 N854 1.383 . S
C858 C857 1.439 . S
C858 C887 1.392 . S
N859 Co853 2.008 . S
N859 C860 1.376 . S
N859 C863 1.374 . S
C860 N859 1.376 . S
C860 C861 1.443 . S
C860 C887 1.389 . S
C861 C860 1.443 . S
C861 C862 1.340 . S
C861 H893 0.951 . S
C862 C861 1.340 . S
C862 C863 1.439 . S
C862 H894 0.950 . S
C863 N859 1.374 . S
C863 C862 1.439 . S
C863 C888 1.395 . S
N864 Co853 1.995 . S
N864 C865 1.376 . S
N864 C868 1.383 . S
C865 N864 1.376 . S
C865 C866 1.446 . S
C865 C888 1.391 . S
C866 C865 1.446 . S
C866 C867 1.339 . S
C866 H895 0.949 . S
C867 C866 1.339 . S
C867 C868 1.439 . S
C867 H896 0.950 . S
C868 N864 1.383 . S
C868 C867 1.439 . S
C868 C886 1.392 . S
N869 Co853 2.282 . S
N869 C872 1.332 . S
N869 C874 1.332 . S
C870 C871 1.386 . S
C870 C873 1.388 . S
C871 C870 1.386 . S
C871 C872 1.382 . S
C871 H897 0.950 . S
C872 N869 1.332 . S
C872 C871 1.382 . S
C872 H883 0.952 . S
C873 C870 1.388 . S
C873 C874 1.382 . S
C873 H898 0.950 . S
C874 N869 1.332 . S
C874 C873 1.382 . S
C874 H884 0.948 . S
N875 Co853 2.282 . S
N875 C879 1.332 . S
N875 C880 1.332 . S
C876 C877 1.388 . S
C876 C880 1.382 . S
C876 H899 0.950 . S
C877 C876 1.388 . S
C877 C878 1.386 . S
C878 C877 1.386 . S
C878 C879 1.382 . S
C878 H900 0.950 . S
C879 N875 1.332 . S
C879 C878 1.382 . S
C879 H881 0.952 . S
C880 N875 1.332 . S
C880 C876 1.382 . S
C880 H882 0.948 . S
H881 C879 0.952 . S
H882 C880 0.948 . S
H883 C872 0.952 . S
H884 C874 0.948 . S
C885 C851 1.395 . S
C885 C855 1.391 . S
C886 C848 1.389 . S
C886 C868 1.392 . S
C887 C858 1.392 . S
C887 C860 1.389 . S
C888 C863 1.395 . S
C888 C865 1.391 . S
H889 C849 0.951 . S
H890 C850 0.950 . S
H891 C856 0.949 . S
H892 C857 0.950 . S
H893 C861 0.951 . S
H894 C862 0.950 . S
H895 C866 0.949 . S
H896 C867 0.950 . S
H897 C871 0.950 . S
H898 C873 0.950 . S
H899 C876 0.950 . S
H900 C878 0.950 . S
C901 C902 1.443 . S
C901 N905 1.376 . S
C901 C939 1.389 . S
C902 C901 1.443 . S
C902 C903 1.340 . S
C902 H942 0.951 . S
C903 C902 1.340 . S
C903 C904 1.439 . S
C903 H943 0.950 . S
C904 C903 1.439 . S
C904 N905 1.374 . S
C904 C938 1.395 . S
N905 C901 1.376 . S
N905 C904 1.374 . S
N905 Co906 2.008 . S
Co906 N905 2.008 . S
Co906 N907 1.995 . S
Co906 N912 2.008 . S
Co906 N917 1.995 . S
Co906 N922 2.282 . S
Co906 N928 2.282 . S
N907 Co906 1.995 . S
N907 C908 1.376 . S
N907 C911 1.383 . S
C908 N907 1.376 . S
C908 C909 1.446 . S
C908 C938 1.391 . S
C909 C908 1.446 . S
C909 C910 1.339 . S
C909 H944 0.949 . S
C910 C909 1.339 . S
C910 C911 1.439 . S
C910 H945 0.950 . S
C911 N907 1.383 . S
C911 C910 1.439 . S
C911 C940 1.392 . S
N912 Co906 2.008 . S
N912 C913 1.376 . S
N912 C916 1.374 . S
C913 N912 1.376 . S
C913 C914 1.443 . S
C913 C940 1.389 . S
C914 C913 1.443 . S
C914 C915 1.340 . S
C914 H946 0.951 . S
C915 C914 1.340 . S
C915 C916 1.439 . S
C915 H947 0.950 . S
C916 N912 1.374 . S
C916 C915 1.439 . S
C916 C941 1.395 . S
N917 Co906 1.995 . S
N917 C918 1.376 . S
N917 C921 1.383 . S
C918 N917 1.376 . S
C918 C919 1.446 . S
C918 C941 1.391 . S
C919 C918 1.446 . S
C919 C920 1.339 . S
C919 H948 0.949 . S
C920 C919 1.339 . S
C920 C921 1.439 . S
C920 H949 0.950 . S
C921 N917 1.383 . S
C921 C920 1.439 . S
C921 C939 1.392 . S
N922 Co906 2.282 . S
N922 C925 1.332 . S
N922 C927 1.332 . S
C923 C924 1.386 . S
C923 C926 1.388 . S
C924 C923 1.386 . S
C924 C925 1.382 . S
C924 H950 0.950 . S
C925 N922 1.332 . S
C925 C924 1.382 . S
C925 H936 0.952 . S
C926 C923 1.388 . S
C926 C927 1.382 . S
C926 H951 0.950 . S
C927 N922 1.332 . S
C927 C926 1.382 . S
C927 H937 0.948 . S
N928 Co906 2.282 . S
N928 C932 1.332 . S
N928 C933 1.332 . S
C929 C930 1.388 . S
C929 C933 1.382 . S
C929 H952 0.950 . S
C930 C929 1.388 . S
C930 C931 1.386 . S
C931 C930 1.386 . S
C931 C932 1.382 . S
C931 H953 0.950 . S
C932 N928 1.332 . S
C932 C931 1.382 . S
C932 H934 0.952 . S
C933 N928 1.332 . S
C933 C929 1.382 . S
C933 H935 0.948 . S
H934 C932 0.952 . S
H935 C933 0.948 . S
H936 C925 0.952 . S
H937 C927 0.948 . S
C938 C904 1.395 . S
C938 C908 1.391 . S
C939 C901 1.389 . S
C939 C921 1.392 . S
C940 C911 1.392 . S
C940 C913 1.389 . S
C941 C916 1.395 . S
C941 C918 1.391 . S
H942 C902 0.951 . S
H943 C903 0.950 . S
H944 C909 0.949 . S
H945 C910 0.950 . S
H946 C914 0.951 . S
H947 C915 0.950 . S
H948 C919 0.949 . S
H949 C920 0.950 . S
H950 C924 0.950 . S
H951 C926 0.950 . S
H952 C929 0.950 . S
H953 C931 0.950 . S
C954 C955 1.443 . S
C954 N958 1.376 . S
C954 C992 1.389 . S
C955 C954 1.443 . S
C955 C956 1.340 . S
C955 H995 0.951 . S
C956 C955 1.340 . S
C956 C957 1.439 . S
C956 H996 0.950 . S
C957 C956 1.439 . S
C957 N958 1.374 . S
C957 C991 1.395 . S
N958 C954 1.376 . S
N958 C957 1.374 . S
N958 Co959 2.008 . S
Co959 N958 2.008 . S
Co959 N960 1.995 . S
Co959 N965 2.008 . S
Co959 N970 1.995 . S
Co959 N975 2.282 . S
Co959 N981 2.282 . S
N960 Co959 1.995 . S
N960 C961 1.376 . S
N960 C964 1.383 . S
C961 N960 1.376 . S
C961 C962 1.446 . S
C961 C991 1.391 . S
C962 C961 1.446 . S
C962 C963 1.339 . S
C962 H997 0.949 . S
C963 C962 1.339 . S
C963 C964 1.439 . S
C963 H998 0.950 . S
C964 N960 1.383 . S
C964 C963 1.439 . S
C964 C993 1.392 . S
N965 Co959 2.008 . S
N965 C966 1.376 . S
N965 C969 1.374 . S
C966 N965 1.376 . S
C966 C967 1.443 . S
C966 C993 1.389 . S
C967 C966 1.443 . S
C967 C968 1.340 . S
C967 H999 0.951 . S
C968 C967 1.340 . S
C968 C969 1.439 . S
C968 H1000 0.950 . S
C969 N965 1.374 . S
C969 C968 1.439 . S
C969 C994 1.395 . S
N970 Co959 1.995 . S
N970 C971 1.376 . S
N970 C974 1.383 . S
C971 N970 1.376 . S
C971 C972 1.446 . S
C971 C994 1.391 . S
C972 C971 1.446 . S
C972 C973 1.339 . S
C972 H1001 0.949 . S
C973 C972 1.339 . S
C973 C974 1.439 . S
C973 H1002 0.950 . S
C974 N970 1.383 . S
C974 C973 1.439 . S
C974 C992 1.392 . S
N975 Co959 2.282 . S
N975 C978 1.332 . S
N975 C980 1.332 . S
C976 C977 1.386 . S
C976 C979 1.388 . S
C977 C976 1.386 . S
C977 C978 1.382 . S
C977 H1003 0.950 . S
C978 N975 1.332 . S
C978 C977 1.382 . S
C978 H989 0.952 . S
C979 C976 1.388 . S
C979 C980 1.382 . S
C979 H1004 0.950 . S
C980 N975 1.332 . S
C980 C979 1.382 . S
C980 H990 0.948 . S
N981 Co959 2.282 . S
N981 C985 1.332 . S
N981 C986 1.332 . S
C982 C983 1.388 . S
C982 C986 1.382 . S
C982 H1005 0.950 . S
C983 C982 1.388 . S
C983 C984 1.386 . S
C984 C983 1.386 . S
C984 C985 1.382 . S
C984 H1006 0.950 . S
C985 N981 1.332 . S
C985 C984 1.382 . S
C985 H987 0.952 . S
C986 N981 1.332 . S
C986 C982 1.382 . S
C986 H988 0.948 . S
H987 C985 0.952 . S
H988 C986 0.948 . S
H989 C978 0.952 . S
H990 C980 0.948 . S
C991 C957 1.395 . S
C991 C961 1.391 . S
C992 C954 1.389 . S
C992 C974 1.392 . S
C993 C964 1.392 . S
C993 C966 1.389 . S
C994 C969 1.395 . S
C994 C971 1.391 . S
H995 C955 0.951 . S
H996 C956 0.950 . S
H997 C962 0.949 . S
H998 C963 0.950 . S
H999 C967 0.951 . S
H1000 C968 0.950 . S
H1001 C972 0.949 . S
H1002 C973 0.950 . S
H1003 C977 0.950 . S
H1004 C979 0.950 . S
H1005 C982 0.950 . S
H1006 C984 0.950 . S
C1007 C1008 1.443 . S
C1007 N1011 1.376 . S
C1007 C1045 1.389 . S
C1008 C1007 1.443 . S
C1008 C1009 1.340 . S
C1008 H1048 0.951 . S
C1009 C1008 1.340 . S
C1009 C1010 1.439 . S
C1009 H1049 0.950 . S
C1010 C1009 1.439 . S
C1010 N1011 1.374 . S
C1010 C1044 1.395 . S
N1011 C1007 1.376 . S
N1011 C1010 1.374 . S
N1011 Co1012 2.008 . S
Co1012 N1011 2.008 . S
Co1012 N1013 1.995 . S
Co1012 N1018 2.008 . S
Co1012 N1023 1.995 . S
Co1012 N1028 2.282 . S
Co1012 N1034 2.282 . S
N1013 Co1012 1.995 . S
N1013 C1014 1.376 . S
N1013 C1017 1.383 . S
C1014 N1013 1.376 . S
C1014 C1015 1.446 . S
C1014 C1044 1.391 . S
C1015 C1014 1.446 . S
C1015 C1016 1.339 . S
C1015 H1050 0.949 . S
C1016 C1015 1.339 . S
C1016 C1017 1.439 . S
C1016 H1051 0.950 . S
C1017 N1013 1.383 . S
C1017 C1016 1.439 . S
C1017 C1046 1.392 . S
N1018 Co1012 2.008 . S
N1018 C1019 1.376 . S
N1018 C1022 1.374 . S
C1019 N1018 1.376 . S
C1019 C1020 1.443 . S
C1019 C1046 1.389 . S
C1020 C1019 1.443 . S
C1020 C1021 1.340 . S
C1020 H1052 0.951 . S
C1021 C1020 1.340 . S
C1021 C1022 1.439 . S
C1021 H1053 0.950 . S
C1022 N1018 1.374 . S
C1022 C1021 1.439 . S
C1022 C1047 1.395 . S
N1023 Co1012 1.995 . S
N1023 C1024 1.376 . S
N1023 C1027 1.383 . S
C1024 N1023 1.376 . S
C1024 C1025 1.446 . S
C1024 C1047 1.391 . S
C1025 C1024 1.446 . S
C1025 C1026 1.339 . S
C1025 H1054 0.949 . S
C1026 C1025 1.339 . S
C1026 C1027 1.439 . S
C1026 H1055 0.950 . S
C1027 N1023 1.383 . S
C1027 C1026 1.439 . S
C1027 C1045 1.392 . S
N1028 Co1012 2.282 . S
N1028 C1031 1.332 . S
N1028 C1033 1.332 . S
C1029 C1030 1.386 . S
C1029 C1032 1.388 . S
C1030 C1029 1.386 . S
C1030 C1031 1.382 . S
C1030 H1056 0.950 . S
C1031 N1028 1.332 . S
C1031 C1030 1.382 . S
C1031 H1042 0.952 . S
C1032 C1029 1.388 . S
C1032 C1033 1.382 . S
C1032 H1057 0.950 . S
C1033 N1028 1.332 . S
C1033 C1032 1.382 . S
C1033 H1043 0.948 . S
N1034 Co1012 2.282 . S
N1034 C1038 1.332 . S
N1034 C1039 1.332 . S
C1035 C1036 1.388 . S
C1035 C1039 1.382 . S
C1035 H1058 0.950 . S
C1036 C1035 1.388 . S
C1036 C1037 1.386 . S
C1037 C1036 1.386 . S
C1037 C1038 1.382 . S
C1037 H1059 0.950 . S
C1038 N1034 1.332 . S
C1038 C1037 1.382 . S
C1038 H1040 0.952 . S
C1039 N1034 1.332 . S
C1039 C1035 1.382 . S
C1039 H1041 0.948 . S
H1040 C1038 0.952 . S
H1041 C1039 0.948 . S
H1042 C1031 0.952 . S
H1043 C1033 0.948 . S
C1044 C1010 1.395 . S
C1044 C1014 1.391 . S
C1045 C1007 1.389 . S
C1045 C1027 1.392 . S
C1046 C1017 1.392 . S
C1046 C1019 1.389 . S
C1047 C1022 1.395 . S
C1047 C1024 1.391 . S
H1048 C1008 0.951 . S
H1049 C1009 0.950 . S
H1050 C1015 0.949 . S
H1051 C1016 0.950 . S
H1052 C1020 0.951 . S
H1053 C1021 0.950 . S
H1054 C1025 0.949 . S
H1055 C1026 0.950 . S
H1056 C1030 0.950 . S
H1057 C1032 0.950 . S
H1058 C1035 0.950 . S
H1059 C1037 0.950 . S
C1060 C1061 1.443 . S
C1060 N1064 1.376 . S
C1060 C1098 1.389 . S
C1061 C1060 1.443 . S
C1061 C1062 1.340 . S
C1061 H1101 0.951 . S
C1062 C1061 1.340 . S
C1062 C1063 1.439 . S
C1062 H1102 0.950 . S
C1063 C1062 1.439 . S
C1063 N1064 1.374 . S
C1063 C1097 1.395 . S
N1064 C1060 1.376 . S
N1064 C1063 1.374 . S
N1064 Co1065 2.008 . S
Co1065 N1064 2.008 . S
Co1065 N1066 1.995 . S
Co1065 N1071 2.008 . S
Co1065 N1076 1.995 . S
Co1065 N1081 2.282 . S
Co1065 N1087 2.282 . S
N1066 Co1065 1.995 . S
N1066 C1067 1.376 . S
N1066 C1070 1.383 . S
C1067 N1066 1.376 . S
C1067 C1068 1.446 . S
C1067 C1097 1.391 . S
C1068 C1067 1.446 . S
C1068 C1069 1.339 . S
C1068 H1103 0.949 . S
C1069 C1068 1.339 . S
C1069 C1070 1.439 . S
C1069 H1104 0.950 . S
C1070 N1066 1.383 . S
C1070 C1069 1.439 . S
C1070 C1099 1.392 . S
N1071 Co1065 2.008 . S
N1071 C1072 1.376 . S
N1071 C1075 1.374 . S
C1072 N1071 1.376 . S
C1072 C1073 1.443 . S
C1072 C1099 1.389 . S
C1073 C1072 1.443 . S
C1073 C1074 1.340 . S
C1073 H1105 0.951 . S
C1074 C1073 1.340 . S
C1074 C1075 1.439 . S
C1074 H1106 0.950 . S
C1075 N1071 1.374 . S
C1075 C1074 1.439 . S
C1075 C1100 1.395 . S
N1076 Co1065 1.995 . S
N1076 C1077 1.376 . S
N1076 C1080 1.383 . S
C1077 N1076 1.376 . S
C1077 C1078 1.446 . S
C1077 C1100 1.391 . S
C1078 C1077 1.446 . S
C1078 C1079 1.339 . S
C1078 H1107 0.949 . S
C1079 C1078 1.339 . S
C1079 C1080 1.439 . S
C1079 H1108 0.950 . S
C1080 N1076 1.383 . S
C1080 C1079 1.439 . S
C1080 C1098 1.392 . S
N1081 Co1065 2.282 . S
N1081 C1084 1.332 . S
N1081 C1086 1.332 . S
C1082 C1083 1.386 . S
C1082 C1085 1.388 . S
C1083 C1082 1.386 . S
C1083 C1084 1.382 . S
C1083 H1109 0.950 . S
C1084 N1081 1.332 . S
C1084 C1083 1.382 . S
C1084 H1095 0.952 . S
C1085 C1082 1.388 . S
C1085 C1086 1.382 . S
C1085 H1110 0.950 . S
C1086 N1081 1.332 . S
C1086 C1085 1.382 . S
C1086 H1096 0.948 . S
N1087 Co1065 2.282 . S
N1087 C1091 1.332 . S
N1087 C1092 1.332 . S
C1088 C1089 1.388 . S
C1088 C1092 1.382 . S
C1088 H1111 0.950 . S
C1089 C1088 1.388 . S
C1089 C1090 1.386 . S
C1090 C1089 1.386 . S
C1090 C1091 1.382 . S
C1090 H1112 0.950 . S
C1091 N1087 1.332 . S
C1091 C1090 1.382 . S
C1091 H1093 0.952 . S
C1092 N1087 1.332 . S
C1092 C1088 1.382 . S
C1092 H1094 0.948 . S
H1093 C1091 0.952 . S
H1094 C1092 0.948 . S
H1095 C1084 0.952 . S
H1096 C1086 0.948 . S
C1097 C1063 1.395 . S
C1097 C1067 1.391 . S
C1098 C1060 1.389 . S
C1098 C1080 1.392 . S
C1099 C1070 1.392 . S
C1099 C1072 1.389 . S
C1100 C1075 1.395 . S
C1100 C1077 1.391 . S
H1101 C1061 0.951 . S
H1102 C1062 0.950 . S
H1103 C1068 0.949 . S
H1104 C1069 0.950 . S
H1105 C1073 0.951 . S
H1106 C1074 0.950 . S
H1107 C1078 0.949 . S
H1108 C1079 0.950 . S
H1109 C1083 0.950 . S
H1110 C1085 0.950 . S
H1111 C1088 0.950 . S
H1112 C1090 0.950 . S
C1113 C1114 1.443 . S
C1113 N1117 1.376 . S
C1113 C1151 1.389 . S
C1114 C1113 1.443 . S
C1114 C1115 1.340 . S
C1114 H1154 0.951 . S
C1115 C1114 1.340 . S
C1115 C1116 1.439 . S
C1115 H1155 0.950 . S
C1116 C1115 1.439 . S
C1116 N1117 1.374 . S
C1116 C1150 1.395 . S
N1117 C1113 1.376 . S
N1117 C1116 1.374 . S
N1117 Co1118 2.008 . S
Co1118 N1117 2.008 . S
Co1118 N1119 1.995 . S
Co1118 N1124 2.008 . S
Co1118 N1129 1.995 . S
Co1118 N1134 2.282 . S
Co1118 N1140 2.282 . S
N1119 Co1118 1.995 . S
N1119 C1120 1.376 . S
N1119 C1123 1.383 . S
C1120 N1119 1.376 . S
C1120 C1121 1.446 . S
C1120 C1150 1.391 . S
C1121 C1120 1.446 . S
C1121 C1122 1.339 . S
C1121 H1156 0.949 . S
C1122 C1121 1.339 . S
C1122 C1123 1.439 . S
C1122 H1157 0.950 . S
C1123 N1119 1.383 . S
C1123 C1122 1.439 . S
C1123 C1152 1.392 . S
N1124 Co1118 2.008 . S
N1124 C1125 1.376 . S
N1124 C1128 1.374 . S
C1125 N1124 1.376 . S
C1125 C1126 1.443 . S
C1125 C1152 1.389 . S
C1126 C1125 1.443 . S
C1126 C1127 1.340 . S
C1126 H1158 0.951 . S
C1127 C1126 1.340 . S
C1127 C1128 1.439 . S
C1127 H1159 0.950 . S
C1128 N1124 1.374 . S
C1128 C1127 1.439 . S
C1128 C1153 1.395 . S
N1129 Co1118 1.995 . S
N1129 C1130 1.376 . S
N1129 C1133 1.383 . S
C1130 N1129 1.376 . S
C1130 C1131 1.446 . S
C1130 C1153 1.391 . S
C1131 C1130 1.446 . S
C1131 C1132 1.339 . S
C1131 H1160 0.949 . S
C1132 C1131 1.339 . S
C1132 C1133 1.439 . S
C1132 H1161 0.950 . S
C1133 N1129 1.383 . S
C1133 C1132 1.439 . S
C1133 C1151 1.392 . S
N1134 Co1118 2.282 . S
N1134 C1137 1.332 . S
N1134 C1139 1.332 . S
C1135 C1136 1.386 . S
C1135 C1138 1.388 . S
C1136 C1135 1.386 . S
C1136 C1137 1.382 . S
C1136 H1162 0.950 . S
C1137 N1134 1.332 . S
C1137 C1136 1.382 . S
C1137 H1148 0.952 . S
C1138 C1135 1.388 . S
C1138 C1139 1.382 . S
C1138 H1163 0.950 . S
C1139 N1134 1.332 . S
C1139 C1138 1.382 . S
C1139 H1149 0.948 . S
N1140 Co1118 2.282 . S
N1140 C1144 1.332 . S
N1140 C1145 1.332 . S
C1141 C1142 1.388 . S
C1141 C1145 1.382 . S
C1141 H1164 0.950 . S
C1142 C1141 1.388 . S
C1142 C1143 1.386 . S
C1143 C1142 1.386 . S
C1143 C1144 1.382 . S
C1143 H1165 0.950 . S
C1144 N1140 1.332 . S
C1144 C1143 1.382 . S
C1144 H1146 0.952 . S
C1145 N1140 1.332 . S
C1145 C1141 1.382 . S
C1145 H1147 0.948 . S
H1146 C1144 0.952 . S
H1147 C1145 0.948 . S
H1148 C1137 0.952 . S
H1149 C1139 0.948 . S
C1150 C1116 1.395 . S
C1150 C1120 1.391 . S
C1151 C1113 1.389 . S
C1151 C1133 1.392 . S
C1152 C1123 1.392 . S
C1152 C1125 1.389 . S
C1153 C1128 1.395 . S
C1153 C1130 1.391 . S
H1154 C1114 0.951 . S
H1155 C1115 0.950 . S
H1156 C1121 0.949 . S
H1157 C1122 0.950 . S
H1158 C1126 0.951 . S
H1159 C1127 0.950 . S
H1160 C1131 0.949 . S
H1161 C1132 0.950 . S
H1162 C1136 0.950 . S
H1163 C1138 0.950 . S
H1164 C1141 0.950 . S
H1165 C1143 0.950 . S
C1166 C1167 1.443 . S
C1166 N1170 1.376 . S
C1166 C1204 1.389 . S
C1167 C1166 1.443 . S
C1167 C1168 1.340 . S
C1167 H1207 0.951 . S
C1168 C1167 1.340 . S
C1168 C1169 1.439 . S
C1168 H1208 0.950 . S
C1169 C1168 1.439 . S
C1169 N1170 1.374 . S
C1169 C1203 1.395 . S
N1170 C1166 1.376 . S
N1170 C1169 1.374 . S
N1170 Co1171 2.008 . S
Co1171 N1170 2.008 . S
Co1171 N1172 1.995 . S
Co1171 N1177 2.008 . S
Co1171 N1182 1.995 . S
Co1171 N1187 2.282 . S
Co1171 N1193 2.282 . S
N1172 Co1171 1.995 . S
N1172 C1173 1.376 . S
N1172 C1176 1.383 . S
C1173 N1172 1.376 . S
C1173 C1174 1.446 . S
C1173 C1203 1.391 . S
C1174 C1173 1.446 . S
C1174 C1175 1.339 . S
C1174 H1209 0.949 . S
C1175 C1174 1.339 . S
C1175 C1176 1.439 . S
C1175 H1210 0.950 . S
C1176 N1172 1.383 . S
C1176 C1175 1.439 . S
C1176 C1205 1.392 . S
N1177 Co1171 2.008 . S
N1177 C1178 1.376 . S
N1177 C1181 1.374 . S
C1178 N1177 1.376 . S
C1178 C1179 1.443 . S
C1178 C1205 1.389 . S
C1179 C1178 1.443 . S
C1179 C1180 1.340 . S
C1179 H1211 0.951 . S
C1180 C1179 1.340 . S
C1180 C1181 1.439 . S
C1180 H1212 0.950 . S
C1181 N1177 1.374 . S
C1181 C1180 1.439 . S
C1181 C1206 1.395 . S
N1182 Co1171 1.995 . S
N1182 C1183 1.376 . S
N1182 C1186 1.383 . S
C1183 N1182 1.376 . S
C1183 C1184 1.446 . S
C1183 C1206 1.391 . S
C1184 C1183 1.446 . S
C1184 C1185 1.339 . S
C1184 H1213 0.949 . S
C1185 C1184 1.339 . S
C1185 C1186 1.439 . S
C1185 H1214 0.950 . S
C1186 N1182 1.383 . S
C1186 C1185 1.439 . S
C1186 C1204 1.392 . S
N1187 Co1171 2.282 . S
N1187 C1190 1.332 . S
N1187 C1192 1.332 . S
C1188 C1189 1.386 . S
C1188 C1191 1.388 . S
C1189 C1188 1.386 . S
C1189 C1190 1.382 . S
C1189 H1215 0.950 . S
C1190 N1187 1.332 . S
C1190 C1189 1.382 . S
C1190 H1201 0.952 . S
C1191 C1188 1.388 . S
C1191 C1192 1.382 . S
C1191 H1216 0.950 . S
C1192 N1187 1.332 . S
C1192 C1191 1.382 . S
C1192 H1202 0.948 . S
N1193 Co1171 2.282 . S
N1193 C1197 1.332 . S
N1193 C1198 1.332 . S
C1194 C1195 1.388 . S
C1194 C1198 1.382 . S
C1194 H1217 0.950 . S
C1195 C1194 1.388 . S
C1195 C1196 1.386 . S
C1196 C1195 1.386 . S
C1196 C1197 1.382 . S
C1196 H1218 0.950 . S
C1197 N1193 1.332 . S
C1197 C1196 1.382 . S
C1197 H1199 0.952 . S
C1198 N1193 1.332 . S
C1198 C1194 1.382 . S
C1198 H1200 0.948 . S
H1199 C1197 0.952 . S
H1200 C1198 0.948 . S
H1201 C1190 0.952 . S
H1202 C1192 0.948 . S
C1203 C1169 1.395 . S
C1203 C1173 1.391 . S
C1204 C1166 1.389 . S
C1204 C1186 1.392 . S
C1205 C1176 1.392 . S
C1205 C1178 1.389 . S
C1206 C1181 1.395 . S
C1206 C1183 1.391 . S
H1207 C1167 0.951 . S
H1208 C1168 0.950 . S
H1209 C1174 0.949 . S
H1210 C1175 0.950 . S
H1211 C1179 0.951 . S
H1212 C1180 0.950 . S
H1213 C1184 0.949 . S
H1214 C1185 0.950 . S
H1215 C1189 0.950 . S
H1216 C1191 0.950 . S
H1217 C1194 0.950 . S
H1218 C1196 0.950 . S
C1219 C1220 1.443 . S
C1219 N1223 1.376 . S
C1219 C1257 1.389 . S
C1220 C1219 1.443 . S
C1220 C1221 1.340 . S
C1220 H1260 0.951 . S
C1221 C1220 1.340 . S
C1221 C1222 1.439 . S
C1221 H1261 0.950 . S
C1222 C1221 1.439 . S
C1222 N1223 1.374 . S
C1222 C1256 1.395 . S
N1223 C1219 1.376 . S
N1223 C1222 1.374 . S
N1223 Co1224 2.008 . S
Co1224 N1223 2.008 . S
Co1224 N1225 1.995 . S
Co1224 N1230 2.008 . S
Co1224 N1235 1.995 . S
Co1224 N1240 2.282 . S
Co1224 N1246 2.282 . S
N1225 Co1224 1.995 . S
N1225 C1226 1.376 . S
N1225 C1229 1.383 . S
C1226 N1225 1.376 . S
C1226 C1227 1.446 . S
C1226 C1256 1.391 . S
C1227 C1226 1.446 . S
C1227 C1228 1.339 . S
C1227 H1262 0.949 . S
C1228 C1227 1.339 . S
C1228 C1229 1.439 . S
C1228 H1263 0.950 . S
C1229 N1225 1.383 . S
C1229 C1228 1.439 . S
C1229 C1258 1.392 . S
N1230 Co1224 2.008 . S
N1230 C1231 1.376 . S
N1230 C1234 1.374 . S
C1231 N1230 1.376 . S
C1231 C1232 1.443 . S
C1231 C1258 1.389 . S
C1232 C1231 1.443 . S
C1232 C1233 1.340 . S
C1232 H1264 0.951 . S
C1233 C1232 1.340 . S
C1233 C1234 1.439 . S
C1233 H1265 0.950 . S
C1234 N1230 1.374 . S
C1234 C1233 1.439 . S
C1234 C1259 1.395 . S
N1235 Co1224 1.995 . S
N1235 C1236 1.376 . S
N1235 C1239 1.383 . S
C1236 N1235 1.376 . S
C1236 C1237 1.446 . S
C1236 C1259 1.391 . S
C1237 C1236 1.446 . S
C1237 C1238 1.339 . S
C1237 H1266 0.949 . S
C1238 C1237 1.339 . S
C1238 C1239 1.439 . S
C1238 H1267 0.950 . S
C1239 N1235 1.383 . S
C1239 C1238 1.439 . S
C1239 C1257 1.392 . S
N1240 Co1224 2.282 . S
N1240 C1243 1.332 . S
N1240 C1245 1.332 . S
C1241 C1242 1.386 . S
C1241 C1244 1.388 . S
C1242 C1241 1.386 . S
C1242 C1243 1.382 . S
C1242 H1268 0.950 . S
C1243 N1240 1.332 . S
C1243 C1242 1.382 . S
C1243 H1254 0.952 . S
C1244 C1241 1.388 . S
C1244 C1245 1.382 . S
C1244 H1269 0.950 . S
C1245 N1240 1.332 . S
C1245 C1244 1.382 . S
C1245 H1255 0.948 . S
N1246 Co1224 2.282 . S
N1246 C1250 1.332 . S
N1246 C1251 1.332 . S
C1247 C1248 1.388 . S
C1247 C1251 1.382 . S
C1247 H1270 0.950 . S
C1248 C1247 1.388 . S
C1248 C1249 1.386 . S
C1249 C1248 1.386 . S
C1249 C1250 1.382 . S
C1249 H1271 0.950 . S
C1250 N1246 1.332 . S
C1250 C1249 1.382 . S
C1250 H1252 0.952 . S
C1251 N1246 1.332 . S
C1251 C1247 1.382 . S
C1251 H1253 0.948 . S
H1252 C1250 0.952 . S
H1253 C1251 0.948 . S
H1254 C1243 0.952 . S
H1255 C1245 0.948 . S
C1256 C1222 1.395 . S
C1256 C1226 1.391 . S
C1257 C1219 1.389 . S
C1257 C1239 1.392 . S
C1258 C1229 1.392 . S
C1258 C1231 1.389 . S
C1259 C1234 1.395 . S
C1259 C1236 1.391 . S
H1260 C1220 0.951 . S
H1261 C1221 0.950 . S
H1262 C1227 0.949 . S
H1263 C1228 0.950 . S
H1264 C1232 0.951 . S
H1265 C1233 0.950 . S
H1266 C1237 0.949 . S
H1267 C1238 0.950 . S
H1268 C1242 0.950 . S
H1269 C1244 0.950 . S
H1270 C1247 0.950 . S
H1271 C1249 0.950 . S
C1272 C1273 1.443 . S
C1272 N1276 1.376 . S
C1272 C1310 1.389 . S
C1273 C1272 1.443 . S
C1273 C1274 1.340 . S
C1273 H1313 0.951 . S
C1274 C1273 1.340 . S
C1274 C1275 1.439 . S
C1274 H1314 0.950 . S
C1275 C1274 1.439 . S
C1275 N1276 1.374 . S
C1275 C1309 1.395 . S
N1276 C1272 1.376 . S
N1276 C1275 1.374 . S
N1276 Co1277 2.008 . S
Co1277 N1276 2.008 . S
Co1277 N1278 1.995 . S
Co1277 N1283 2.008 . S
Co1277 N1288 1.995 . S
Co1277 N1293 2.282 . S
Co1277 N1299 2.282 . S
N1278 Co1277 1.995 . S
N1278 C1279 1.376 . S
N1278 C1282 1.383 . S
C1279 N1278 1.376 . S
C1279 C1280 1.446 . S
C1279 C1309 1.391 . S
C1280 C1279 1.446 . S
C1280 C1281 1.339 . S
C1280 H1315 0.949 . S
C1281 C1280 1.339 . S
C1281 C1282 1.439 . S
C1281 H1316 0.950 . S
C1282 N1278 1.383 . S
C1282 C1281 1.439 . S
C1282 C1311 1.392 . S
N1283 Co1277 2.008 . S
N1283 C1284 1.376 . S
N1283 C1287 1.374 . S
C1284 N1283 1.376 . S
C1284 C1285 1.443 . S
C1284 C1311 1.389 . S
C1285 C1284 1.443 . S
C1285 C1286 1.340 . S
C1285 H1317 0.951 . S
C1286 C1285 1.340 . S
C1286 C1287 1.439 . S
C1286 H1318 0.950 . S
C1287 N1283 1.374 . S
C1287 C1286 1.439 . S
C1287 C1312 1.395 . S
N1288 Co1277 1.995 . S
N1288 C1289 1.376 . S
N1288 C1292 1.383 . S
C1289 N1288 1.376 . S
C1289 C1290 1.446 . S
C1289 C1312 1.391 . S
C1290 C1289 1.446 . S
C1290 C1291 1.339 . S
C1290 H1319 0.949 . S
C1291 C1290 1.339 . S
C1291 C1292 1.439 . S
C1291 H1320 0.950 . S
C1292 N1288 1.383 . S
C1292 C1291 1.439 . S
C1292 C1310 1.392 . S
N1293 Co1277 2.282 . S
N1293 C1296 1.332 . S
N1293 C1298 1.332 . S
C1294 C1295 1.386 . S
C1294 C1297 1.388 . S
C1295 C1294 1.386 . S
C1295 C1296 1.382 . S
C1295 H1321 0.950 . S
C1296 N1293 1.332 . S
C1296 C1295 1.382 . S
C1296 H1307 0.952 . S
C1297 C1294 1.388 . S
C1297 C1298 1.382 . S
C1297 H1322 0.950 . S
C1298 N1293 1.332 . S
C1298 C1297 1.382 . S
C1298 H1308 0.948 . S
N1299 Co1277 2.282 . S
N1299 C1303 1.332 . S
N1299 C1304 1.332 . S
C1300 C1301 1.388 . S
C1300 C1304 1.382 . S
C1300 H1323 0.950 . S
C1301 C1300 1.388 . S
C1301 C1302 1.386 . S
C1302 C1301 1.386 . S
C1302 C1303 1.382 . S
C1302 H1324 0.950 . S
C1303 N1299 1.332 . S
C1303 C1302 1.382 . S
C1303 H1305 0.952 . S
C1304 N1299 1.332 . S
C1304 C1300 1.382 . S
C1304 H1306 0.948 . S
H1305 C1303 0.952 . S
H1306 C1304 0.948 . S
H1307 C1296 0.952 . S
H1308 C1298 0.948 . S
C1309 C1275 1.395 . S
C1309 C1279 1.391 . S
C1310 C1272 1.389 . S
C1310 C1292 1.392 . S
C1311 C1282 1.392 . S
C1311 C1284 1.389 . S
C1312 C1287 1.395 . S
C1312 C1289 1.391 . S
H1313 C1273 0.951 . S
H1314 C1274 0.950 . S
H1315 C1280 0.949 . S
H1316 C1281 0.950 . S
H1317 C1285 0.951 . S
H1318 C1286 0.950 . S
H1319 C1290 0.949 . S
H1320 C1291 0.950 . S
H1321 C1295 0.950 . S
H1322 C1297 0.950 . S
H1323 C1300 0.950 . S
H1324 C1302 0.950 . S
C1325 C1326 1.443 . S
C1325 N1329 1.376 . S
C1325 C1363 1.389 . S
C1326 C1325 1.443 . S
C1326 C1327 1.340 . S
C1326 H1366 0.951 . S
C1327 C1326 1.340 . S
C1327 C1328 1.439 . S
C1327 H1367 0.950 . S
C1328 C1327 1.439 . S
C1328 N1329 1.374 . S
C1328 C1362 1.395 . S
N1329 C1325 1.376 . S
N1329 C1328 1.374 . S
N1329 Co1330 2.008 . S
Co1330 N1329 2.008 . S
Co1330 N1331 1.995 . S
Co1330 N1336 2.008 . S
Co1330 N1341 1.995 . S
Co1330 N1346 2.282 . S
Co1330 N1352 2.282 . S
N1331 Co1330 1.995 . S
N1331 C1332 1.376 . S
N1331 C1335 1.383 . S
C1332 N1331 1.376 . S
C1332 C1333 1.446 . S
C1332 C1362 1.391 . S
C1333 C1332 1.446 . S
C1333 C1334 1.339 . S
C1333 H1368 0.949 . S
C1334 C1333 1.339 . S
C1334 C1335 1.439 . S
C1334 H1369 0.950 . S
C1335 N1331 1.383 . S
C1335 C1334 1.439 . S
C1335 C1364 1.392 . S
N1336 Co1330 2.008 . S
N1336 C1337 1.376 . S
N1336 C1340 1.374 . S
C1337 N1336 1.376 . S
C1337 C1338 1.443 . S
C1337 C1364 1.389 . S
C1338 C1337 1.443 . S
C1338 C1339 1.340 . S
C1338 H1370 0.951 . S
C1339 C1338 1.340 . S
C1339 C1340 1.439 . S
C1339 H1371 0.950 . S
C1340 N1336 1.374 . S
C1340 C1339 1.439 . S
C1340 C1365 1.395 . S
N1341 Co1330 1.995 . S
N1341 C1342 1.376 . S
N1341 C1345 1.383 . S
C1342 N1341 1.376 . S
C1342 C1343 1.446 . S
C1342 C1365 1.391 . S
C1343 C1342 1.446 . S
C1343 C1344 1.339 . S
C1343 H1372 0.949 . S
C1344 C1343 1.339 . S
C1344 C1345 1.439 . S
C1344 H1373 0.950 . S
C1345 N1341 1.383 . S
C1345 C1344 1.439 . S
C1345 C1363 1.392 . S
N1346 Co1330 2.282 . S
N1346 C1349 1.332 . S
N1346 C1351 1.332 . S
C1347 C1348 1.386 . S
C1347 C1350 1.388 . S
C1348 C1347 1.386 . S
C1348 C1349 1.382 . S
C1348 H1374 0.950 . S
C1349 N1346 1.332 . S
C1349 C1348 1.382 . S
C1349 H1360 0.952 . S
C1350 C1347 1.388 . S
C1350 C1351 1.382 . S
C1350 H1375 0.950 . S
C1351 N1346 1.332 . S
C1351 C1350 1.382 . S
C1351 H1361 0.948 . S
N1352 Co1330 2.282 . S
N1352 C1356 1.332 . S
N1352 C1357 1.332 . S
C1353 C1354 1.388 . S
C1353 C1357 1.382 . S
C1353 H1376 0.950 . S
C1354 C1353 1.388 . S
C1354 C1355 1.386 . S
C1355 C1354 1.386 . S
C1355 C1356 1.382 . S
C1355 H1377 0.950 . S
C1356 N1352 1.332 . S
C1356 C1355 1.382 . S
C1356 H1358 0.952 . S
C1357 N1352 1.332 . S
C1357 C1353 1.382 . S
C1357 H1359 0.948 . S
H1358 C1356 0.952 . S
H1359 C1357 0.948 . S
H1360 C1349 0.952 . S
H1361 C1351 0.948 . S
C1362 C1328 1.395 . S
C1362 C1332 1.391 . S
C1363 C1325 1.389 . S
C1363 C1345 1.392 . S
C1364 C1335 1.392 . S
C1364 C1337 1.389 . S
C1365 C1340 1.395 . S
C1365 C1342 1.391 . S
H1366 C1326 0.951 . S
H1367 C1327 0.950 . S
H1368 C1333 0.949 . S
H1369 C1334 0.950 . S
H1370 C1338 0.951 . S
H1371 C1339 0.950 . S
H1372 C1343 0.949 . S
H1373 C1344 0.950 . S
H1374 C1348 0.950 . S
H1375 C1350 0.950 . S
H1376 C1353 0.950 . S
H1377 C1355 0.950 . S
C1378 C1379 1.443 . S
C1378 N1382 1.376 . S
C1378 C1416 1.389 . S
C1379 C1378 1.443 . S
C1379 C1380 1.340 . S
C1379 H1419 0.951 . S
C1380 C1379 1.340 . S
C1380 C1381 1.439 . S
C1380 H1420 0.950 . S
C1381 C1380 1.439 . S
C1381 N1382 1.374 . S
C1381 C1415 1.395 1_556 S
N1382 C1378 1.376 . S
N1382 C1381 1.374 . S
N1382 Co1383 2.008 . S
Co1383 N1382 2.008 . S
Co1383 N1384 1.995 1_556 S
Co1383 N1389 2.008 1_556 S
Co1383 N1394 1.995 . S
Co1383 N1399 2.282 . S
Co1383 N1405 2.282 . S
N1384 Co1383 1.995 1_554 S
N1384 C1385 1.376 . S
N1384 C1388 1.383 . S
C1385 N1384 1.376 . S
C1385 C1386 1.446 . S
C1385 C1415 1.391 . S
C1386 C1385 1.446 . S
C1386 C1387 1.339 . S
C1386 H1421 0.949 . S
C1387 C1386 1.339 . S
C1387 C1388 1.439 . S
C1387 H1422 0.950 . S
C1388 N1384 1.383 . S
C1388 C1387 1.439 . S
C1388 C1417 1.392 . S
N1389 Co1383 2.008 1_554 S
N1389 C1390 1.376 . S
N1389 C1393 1.374 . S
C1390 N1389 1.376 . S
C1390 C1391 1.443 . S
C1390 C1417 1.389 . S
C1391 C1390 1.443 . S
C1391 C1392 1.340 . S
C1391 H1423 0.951 . S
C1392 C1391 1.340 . S
C1392 C1393 1.439 . S
C1392 H1424 0.950 . S
C1393 N1389 1.374 . S
C1393 C1392 1.439 . S
C1393 C1418 1.395 1_554 S
N1394 Co1383 1.995 . S
N1394 C1395 1.376 . S
N1394 C1398 1.383 . S
C1395 N1394 1.376 . S
C1395 C1396 1.446 . S
C1395 C1418 1.391 . S
C1396 C1395 1.446 . S
C1396 C1397 1.339 . S
C1396 H1425 0.949 . S
C1397 C1396 1.339 . S
C1397 C1398 1.439 . S
C1397 H1426 0.950 . S
C1398 N1394 1.383 . S
C1398 C1397 1.439 . S
C1398 C1416 1.392 . S
N1399 Co1383 2.282 . S
N1399 C1402 1.332 . S
N1399 C1404 1.354 . S
C1400 C1401 1.386 . S
C1400 C1403 1.388 1_556 S
C1401 C1400 1.386 . S
C1401 C1402 1.382 . S
C1401 H1427 0.950 . S
C1402 N1399 1.332 . S
C1402 C1401 1.382 . S
C1402 H1413 0.952 . S
C1403 C1400 1.388 1_554 S
C1403 C1404 1.378 1_554 S
C1403 H1428 0.950 . S
C1404 N1399 1.354 . S
C1404 C1403 1.378 1_556 S
C1404 H1414 0.933 1_556 S
N1405 Co1383 2.282 . S
N1405 C1409 1.332 1_556 S
N1405 C1410 1.332 . S
C1406 C1407 1.388 . S
C1406 C1410 1.382 . S
C1406 H1429 0.950 . S
C1407 C1406 1.388 . S
C1407 C1408 1.381 1_556 S
C1408 C1407 1.381 1_554 S
C1408 C1409 1.383 . S
C1408 H1430 0.954 . S
C1409 N1405 1.332 1_554 S
C1409 C1408 1.383 . S
C1409 H1411 0.952 . S
C1410 N1405 1.332 . S
C1410 C1406 1.382 . S
C1410 H1412 0.948 . S
H1411 C1409 0.952 . S
H1412 C1410 0.948 . S
H1413 C1402 0.952 . S
H1414 C1404 0.933 1_554 S
C1415 C1381 1.395 1_554 S
C1415 C1385 1.391 . S
C1416 C1378 1.389 . S
C1416 C1398 1.392 . S
C1417 C1388 1.392 . S
C1417 C1390 1.389 . S
C1418 C1393 1.395 1_556 S
C1418 C1395 1.391 . S
H1419 C1379 0.951 . S
H1420 C1380 0.950 . S
H1421 C1386 0.949 . S
H1422 C1387 0.950 . S
H1423 C1391 0.951 . S
H1424 C1392 0.950 . S
H1425 C1396 0.949 . S
H1426 C1397 0.950 . S
H1427 C1401 0.950 . S
H1428 C1403 0.950 . S
H1429 C1406 0.950 . S
H1430 C1408 0.954 . S
C1431 C1432 1.443 . S
C1431 N1435 1.376 . S
C1431 C1469 1.389 . S
C1432 C1431 1.443 . S
C1432 C1433 1.340 . S
C1432 H1472 0.951 . S
C1433 C1432 1.340 . S
C1433 C1434 1.439 . S
C1433 H1473 0.950 . S
C1434 C1433 1.439 . S
C1434 N1435 1.374 . S
C1434 C1468 1.395 1_556 S
N1435 C1431 1.376 . S
N1435 C1434 1.374 . S
N1435 Co1436 2.008 . S
Co1436 N1435 2.008 . S
Co1436 N1437 1.995 1_556 S
Co1436 N1442 2.008 1_556 S
Co1436 N1447 1.995 . S
Co1436 N1452 2.282 . S
Co1436 N1458 2.282 . S
N1437 Co1436 1.995 1_554 S
N1437 C1438 1.376 . S
N1437 C1441 1.383 . S
C1438 N1437 1.376 . S
C1438 C1439 1.446 . S
C1438 C1468 1.391 . S
C1439 C1438 1.446 . S
C1439 C1440 1.339 . S
C1439 H1474 0.949 . S
C1440 C1439 1.339 . S
C1440 C1441 1.439 . S
C1440 H1475 0.950 . S
C1441 N1437 1.383 . S
C1441 C1440 1.439 . S
C1441 C1470 1.392 . S
N1442 Co1436 2.008 1_554 S
N1442 C1443 1.376 . S
N1442 C1446 1.374 . S
C1443 N1442 1.376 . S
C1443 C1444 1.443 . S
C1443 C1470 1.389 . S
C1444 C1443 1.443 . S
C1444 C1445 1.340 . S
C1444 H1476 0.951 . S
C1445 C1444 1.340 . S
C1445 C1446 1.439 . S
C1445 H1477 0.950 . S
C1446 N1442 1.374 . S
C1446 C1445 1.439 . S
C1446 C1471 1.395 1_554 S
N1447 Co1436 1.995 . S
N1447 C1448 1.376 . S
N1447 C1451 1.383 . S
C1448 N1447 1.376 . S
C1448 C1449 1.446 . S
C1448 C1471 1.391 . S
C1449 C1448 1.446 . S
C1449 C1450 1.339 . S
C1449 H1478 0.949 . S
C1450 C1449 1.339 . S
C1450 C1451 1.439 . S
C1450 H1479 0.950 . S
C1451 N1447 1.383 . S
C1451 C1450 1.439 . S
C1451 C1469 1.392 . S
N1452 Co1436 2.282 . S
N1452 C1455 1.332 . S
N1452 C1457 1.354 . S
C1453 C1454 1.386 . S
C1453 C1456 1.388 1_556 S
C1454 C1453 1.386 . S
C1454 C1455 1.382 . S
C1454 H1480 0.950 . S
C1455 N1452 1.332 . S
C1455 C1454 1.382 . S
C1455 H1466 0.952 . S
C1456 C1453 1.388 1_554 S
C1456 C1457 1.378 1_554 S
C1456 H1481 0.950 . S
C1457 N1452 1.354 . S
C1457 C1456 1.378 1_556 S
C1457 H1467 0.933 1_556 S
N1458 Co1436 2.282 . S
N1458 C1462 1.332 1_556 S
N1458 C1463 1.332 . S
C1459 C1460 1.388 . S
C1459 C1463 1.382 . S
C1459 H1482 0.950 . S
C1460 C1459 1.388 . S
C1460 C1461 1.381 1_556 S
C1461 C1460 1.381 1_554 S
C1461 C1462 1.383 . S
C1461 H1483 0.954 . S
C1462 N1458 1.332 1_554 S
C1462 C1461 1.383 . S
C1462 H1464 0.952 . S
C1463 N1458 1.332 . S
C1463 C1459 1.382 . S
C1463 H1465 0.948 . S
H1464 C1462 0.952 . S
H1465 C1463 0.948 . S
H1466 C1455 0.952 . S
H1467 C1457 0.933 1_554 S
C1468 C1434 1.395 1_554 S
C1468 C1438 1.391 . S
C1469 C1431 1.389 . S
C1469 C1451 1.392 . S
C1470 C1441 1.392 . S
C1470 C1443 1.389 . S
C1471 C1446 1.395 1_556 S
C1471 C1448 1.391 . S
H1472 C1432 0.951 . S
H1473 C1433 0.950 . S
H1474 C1439 0.949 . S
H1475 C1440 0.950 . S
H1476 C1444 0.951 . S
H1477 C1445 0.950 . S
H1478 C1449 0.949 . S
H1479 C1450 0.950 . S
H1480 C1454 0.950 . S
H1481 C1456 0.950 . S
H1482 C1459 0.950 . S
H1483 C1461 0.954 . S
C1484 C1485 1.443 . S
C1484 N1488 1.376 . S
C1484 C1522 1.389 . S
C1485 C1484 1.443 . S
C1485 C1486 1.340 . S
C1485 H1525 0.951 . S
C1486 C1485 1.340 . S
C1486 C1487 1.439 . S
C1486 H1526 0.950 . S
C1487 C1486 1.439 . S
C1487 N1488 1.374 . S
C1487 C1521 1.395 . S
N1488 C1484 1.376 . S
N1488 C1487 1.374 . S
N1488 Co1489 2.008 . S
Co1489 N1488 2.008 . S
Co1489 N1490 1.995 . S
Co1489 N1495 2.008 . S
Co1489 N1500 1.995 . S
Co1489 N1505 2.282 . S
Co1489 N1511 2.282 . S
N1490 Co1489 1.995 . S
N1490 C1491 1.376 . S
N1490 C1494 1.383 . S
C1491 N1490 1.376 . S
C1491 C1492 1.446 . S
C1491 C1521 1.391 . S
C1492 C1491 1.446 . S
C1492 C1493 1.339 . S
C1492 H1527 0.949 . S
C1493 C1492 1.339 . S
C1493 C1494 1.439 . S
C1493 H1528 0.950 . S
C1494 N1490 1.383 . S
C1494 C1493 1.439 . S
C1494 C1523 1.392 . S
N1495 Co1489 2.008 . S
N1495 C1496 1.376 . S
N1495 C1499 1.374 . S
C1496 N1495 1.376 . S
C1496 C1497 1.443 . S
C1496 C1523 1.389 . S
C1497 C1496 1.443 . S
C1497 C1498 1.340 . S
C1497 H1529 0.951 . S
C1498 C1497 1.340 . S
C1498 C1499 1.439 . S
C1498 H1530 0.950 . S
C1499 N1495 1.374 . S
C1499 C1498 1.439 . S
C1499 C1524 1.395 . S
N1500 Co1489 1.995 . S
N1500 C1501 1.376 . S
N1500 C1504 1.383 . S
C1501 N1500 1.376 . S
C1501 C1502 1.446 . S
C1501 C1524 1.391 . S
C1502 C1501 1.446 . S
C1502 C1503 1.339 . S
C1502 H1531 0.949 . S
C1503 C1502 1.339 . S
C1503 C1504 1.439 . S
C1503 H1532 0.950 . S
C1504 N1500 1.383 . S
C1504 C1503 1.439 . S
C1504 C1522 1.392 . S
N1505 Co1489 2.282 . S
N1505 C1508 1.332 . S
N1505 C1510 1.332 . S
C1506 C1507 1.386 . S
C1506 C1509 1.388 . S
C1507 C1506 1.386 . S
C1507 C1508 1.382 . S
C1507 H1533 0.950 . S
C1508 N1505 1.332 . S
C1508 C1507 1.382 . S
C1508 H1519 0.952 . S
C1509 C1506 1.388 . S
C1509 C1510 1.382 . S
C1509 H1534 0.950 . S
C1510 N1505 1.332 . S
C1510 C1509 1.382 . S
C1510 H1520 0.948 . S
N1511 Co1489 2.282 . S
N1511 C1515 1.332 . S
N1511 C1516 1.332 . S
C1512 C1513 1.388 . S
C1512 C1516 1.382 . S
C1512 H1535 0.950 . S
C1513 C1512 1.388 . S
C1513 C1514 1.386 . S
C1514 C1513 1.386 . S
C1514 C1515 1.382 . S
C1514 H1536 0.950 . S
C1515 N1511 1.332 . S
C1515 C1514 1.382 . S
C1515 H1517 0.952 . S
C1516 N1511 1.332 . S
C1516 C1512 1.382 . S
C1516 H1518 0.948 . S
H1517 C1515 0.952 . S
H1518 C1516 0.948 . S
H1519 C1508 0.952 . S
H1520 C1510 0.948 . S
C1521 C1487 1.395 . S
C1521 C1491 1.391 . S
C1522 C1484 1.389 . S
C1522 C1504 1.392 . S
C1523 C1494 1.392 . S
C1523 C1496 1.389 . S
C1524 C1499 1.395 . S
C1524 C1501 1.391 . S
H1525 C1485 0.951 . S
H1526 C1486 0.950 . S
H1527 C1492 0.949 . S
H1528 C1493 0.950 . S
H1529 C1497 0.951 . S
H1530 C1498 0.950 . S
H1531 C1502 0.949 . S
H1532 C1503 0.950 . S
H1533 C1507 0.950 . S
H1534 C1509 0.950 . S
H1535 C1512 0.950 . S
H1536 C1514 0.950 . S
C1537 C1538 1.443 . S
C1537 N1541 1.376 . S
C1537 C1575 1.389 . S
C1538 C1537 1.443 . S
C1538 C1539 1.340 . S
C1538 H1578 0.951 . S
C1539 C1538 1.340 . S
C1539 C1540 1.439 . S
C1539 H1579 0.950 . S
C1540 C1539 1.439 . S
C1540 N1541 1.374 . S
C1540 C1574 1.395 . S
N1541 C1537 1.376 . S
N1541 C1540 1.374 . S
N1541 Co1542 2.008 . S
Co1542 N1541 2.008 . S
Co1542 N1543 1.995 . S
Co1542 N1548 2.008 . S
Co1542 N1553 1.995 . S
Co1542 N1558 2.282 . S
Co1542 N1564 2.282 . S
N1543 Co1542 1.995 . S
N1543 C1544 1.376 . S
N1543 C1547 1.383 . S
C1544 N1543 1.376 . S
C1544 C1545 1.446 . S
C1544 C1574 1.391 . S
C1545 C1544 1.446 . S
C1545 C1546 1.339 . S
C1545 H1580 0.949 . S
C1546 C1545 1.339 . S
C1546 C1547 1.439 . S
C1546 H1581 0.950 . S
C1547 N1543 1.383 . S
C1547 C1546 1.439 . S
C1547 C1576 1.392 . S
N1548 Co1542 2.008 . S
N1548 C1549 1.376 . S
N1548 C1552 1.374 . S
C1549 N1548 1.376 . S
C1549 C1550 1.443 . S
C1549 C1576 1.389 . S
C1550 C1549 1.443 . S
C1550 C1551 1.340 . S
C1550 H1582 0.951 . S
C1551 C1550 1.340 . S
C1551 C1552 1.439 . S
C1551 H1583 0.950 . S
C1552 N1548 1.374 . S
C1552 C1551 1.439 . S
C1552 C1577 1.395 . S
N1553 Co1542 1.995 . S
N1553 C1554 1.376 . S
N1553 C1557 1.383 . S
C1554 N1553 1.376 . S
C1554 C1555 1.446 . S
C1554 C1577 1.391 . S
C1555 C1554 1.446 . S
C1555 C1556 1.339 . S
C1555 H1584 0.949 . S
C1556 C1555 1.339 . S
C1556 C1557 1.439 . S
C1556 H1585 0.950 . S
C1557 N1553 1.383 . S
C1557 C1556 1.439 . S
C1557 C1575 1.392 . S
N1558 Co1542 2.282 . S
N1558 C1561 1.332 . S
N1558 C1563 1.332 . S
C1559 C1560 1.386 . S
C1559 C1562 1.388 . S
C1560 C1559 1.386 . S
C1560 C1561 1.382 . S
C1560 H1586 0.950 . S
C1561 N1558 1.332 . S
C1561 C1560 1.382 . S
C1561 H1572 0.952 . S
C1562 C1559 1.388 . S
C1562 C1563 1.382 . S
C1562 H1587 0.950 . S
C1563 N1558 1.332 . S
C1563 C1562 1.382 . S
C1563 H1573 0.948 . S
N1564 Co1542 2.282 . S
N1564 C1568 1.332 . S
N1564 C1569 1.332 . S
C1565 C1566 1.388 . S
C1565 C1569 1.382 . S
C1565 H1588 0.950 . S
C1566 C1565 1.388 . S
C1566 C1567 1.386 . S
C1567 C1566 1.386 . S
C1567 C1568 1.382 . S
C1567 H1589 0.950 . S
C1568 N1564 1.332 . S
C1568 C1567 1.382 . S
C1568 H1570 0.952 . S
C1569 N1564 1.332 . S
C1569 C1565 1.382 . S
C1569 H1571 0.948 . S
H1570 C1568 0.952 . S
H1571 C1569 0.948 . S
H1572 C1561 0.952 . S
H1573 C1563 0.948 . S
C1574 C1540 1.395 . S
C1574 C1544 1.391 . S
C1575 C1537 1.389 . S
C1575 C1557 1.392 . S
C1576 C1547 1.392 . S
C1576 C1549 1.389 . S
C1577 C1552 1.395 . S
C1577 C1554 1.391 . S
H1578 C1538 0.951 . S
H1579 C1539 0.950 . S
H1580 C1545 0.949 . S
H1581 C1546 0.950 . S
H1582 C1550 0.951 . S
H1583 C1551 0.950 . S
H1584 C1555 0.949 . S
H1585 C1556 0.950 . S
H1586 C1560 0.950 . S
H1587 C1562 0.950 . S
H1588 C1565 0.950 . S
H1589 C1567 0.950 . S
C1590 C1591 1.443 . S
C1590 N1594 1.376 . S
C1590 C1628 1.389 . S
C1591 C1590 1.443 . S
C1591 C1592 1.340 . S
C1591 H1631 0.951 . S
C1592 C1591 1.340 . S
C1592 C1593 1.439 . S
C1592 H1632 0.950 . S
C1593 C1592 1.439 . S
C1593 N1594 1.374 . S
C1593 C1627 1.395 . S
N1594 C1590 1.376 . S
N1594 C1593 1.374 . S
N1594 Co1595 2.008 . S
Co1595 N1594 2.008 . S
Co1595 N1596 1.995 1_554 S
Co1595 N1601 2.008 1_554 S
Co1595 N1606 1.995 . S
Co1595 N1611 2.282 . S
Co1595 N1617 2.282 . S
N1596 Co1595 1.995 1_556 S
N1596 C1597 1.376 . S
N1596 C1600 1.383 . S
C1597 N1596 1.376 . S
C1597 C1598 1.446 . S
C1597 C1627 1.391 1_556 S
C1598 C1597 1.446 . S
C1598 C1599 1.339 . S
C1598 H1633 0.949 . S
C1599 C1598 1.339 . S
C1599 C1600 1.439 . S
C1599 H1634 0.950 . S
C1600 N1596 1.383 . S
C1600 C1599 1.439 . S
C1600 C1629 1.392 . S
N1601 Co1595 2.008 1_556 S
N1601 C1602 1.376 . S
N1601 C1605 1.374 . S
C1602 N1601 1.376 . S
C1602 C1603 1.443 . S
C1602 C1629 1.389 . S
C1603 C1602 1.443 . S
C1603 C1604 1.340 . S
C1603 H1635 0.951 . S
C1604 C1603 1.340 . S
C1604 C1605 1.439 . S
C1604 H1636 0.950 . S
C1605 N1601 1.374 . S
C1605 C1604 1.439 . S
C1605 C1630 1.394 . S
N1606 Co1595 1.995 . S
N1606 C1607 1.376 . S
N1606 C1610 1.383 . S
C1607 N1606 1.376 . S
C1607 C1608 1.446 . S
C1607 C1630 1.392 1_554 S
C1608 C1607 1.446 . S
C1608 C1609 1.339 . S
C1608 H1637 0.949 . S
C1609 C1608 1.339 . S
C1609 C1610 1.439 . S
C1609 H1638 0.950 . S
C1610 N1606 1.383 . S
C1610 C1609 1.439 . S
C1610 C1628 1.392 . S
N1611 Co1595 2.282 . S
N1611 C1614 1.332 . S
N1611 C1616 1.332 . S
C1612 C1613 1.386 . S
C1612 C1615 1.388 . S
C1613 C1612 1.386 . S
C1613 C1614 1.382 . S
C1613 H1639 0.950 . S
C1614 N1611 1.332 . S
C1614 C1613 1.382 . S
C1614 H1625 0.952 . S
C1615 C1612 1.388 . S
C1615 C1616 1.382 . S
C1615 H1640 0.950 . S
C1616 N1611 1.332 . S
C1616 C1615 1.382 . S
C1616 H1626 0.948 . S
N1617 Co1595 2.282 . S
N1617 C1621 1.332 . S
N1617 C1622 1.332 . S
C1618 C1619 1.388 . S
C1618 C1622 1.382 . S
C1618 H1641 0.950 . S
C1619 C1618 1.388 . S
C1619 C1620 1.386 . S
C1620 C1619 1.386 . S
C1620 C1621 1.382 . S
C1620 H1642 0.950 . S
C1621 N1617 1.332 . S
C1621 C1620 1.382 . S
C1621 H1623 0.958 . S
C1622 N1617 1.332 . S
C1622 C1618 1.382 . S
C1622 H1624 0.948 . S
H1623 C1621 0.958 . S
H1624 C1622 0.948 . S
H1625 C1614 0.952 . S
H1626 C1616 0.948 . S
C1627 C1593 1.395 . S
C1627 C1597 1.391 1_554 S
C1628 C1590 1.389 . S
C1628 C1610 1.392 . S
C1629 C1600 1.392 . S
C1629 C1602 1.389 . S
C1630 C1605 1.394 . S
C1630 C1607 1.392 1_556 S
H1631 C1591 0.951 . S
H1632 C1592 0.950 . S
H1633 C1598 0.949 . S
H1634 C1599 0.950 . S
H1635 C1603 0.951 . S
H1636 C1604 0.950 . S
H1637 C1608 0.949 . S
H1638 C1609 0.950 . S
H1639 C1613 0.950 . S
H1640 C1615 0.950 . S
H1641 C1618 0.950 . S
H1642 C1620 0.950 . S
C1643 C1644 1.443 . S
C1643 N1647 1.376 . S
C1643 C1681 1.389 . S
C1644 C1643 1.443 . S
C1644 C1645 1.340 . S
C1644 H1684 0.951 . S
C1645 C1644 1.340 . S
C1645 C1646 1.439 . S
C1645 H1685 0.950 . S
C1646 C1645 1.439 . S
C1646 N1647 1.374 . S
C1646 C1680 1.395 . S
N1647 C1643 1.376 . S
N1647 C1646 1.374 . S
N1647 Co1648 2.008 . S
Co1648 N1647 2.008 . S
Co1648 N1649 1.995 1_554 S
Co1648 N1654 2.008 1_554 S
Co1648 N1659 1.995 . S
Co1648 N1664 2.282 . S
Co1648 N1670 2.282 . S
N1649 Co1648 1.995 1_556 S
N1649 C1650 1.376 . S
N1649 C1653 1.383 . S
C1650 N1649 1.376 . S
C1650 C1651 1.446 . S
C1650 C1680 1.391 1_556 S
C1651 C1650 1.446 . S
C1651 C1652 1.339 . S
C1651 H1686 0.949 . S
C1652 C1651 1.339 . S
C1652 C1653 1.439 . S
C1652 H1687 0.950 . S
C1653 N1649 1.383 . S
C1653 C1652 1.439 . S
C1653 C1682 1.392 . S
N1654 Co1648 2.008 1_556 S
N1654 C1655 1.376 . S
N1654 C1658 1.374 . S
C1655 N1654 1.376 . S
C1655 C1656 1.443 . S
C1655 C1682 1.389 . S
C1656 C1655 1.443 . S
C1656 C1657 1.340 . S
C1656 H1688 0.951 . S
C1657 C1656 1.340 . S
C1657 C1658 1.439 . S
C1657 H1689 0.950 . S
C1658 N1654 1.374 . S
C1658 C1657 1.439 . S
C1658 C1683 1.394 . S
N1659 Co1648 1.995 . S
N1659 C1660 1.376 . S
N1659 C1663 1.383 . S
C1660 N1659 1.376 . S
C1660 C1661 1.446 . S
C1660 C1683 1.392 1_554 S
C1661 C1660 1.446 . S
C1661 C1662 1.339 . S
C1661 H1690 0.949 . S
C1662 C1661 1.339 . S
C1662 C1663 1.439 . S
C1662 H1691 0.950 . S
C1663 N1659 1.383 . S
C1663 C1662 1.439 . S
C1663 C1681 1.392 . S
N1664 Co1648 2.282 . S
N1664 C1667 1.332 . S
N1664 C1669 1.332 . S
C1665 C1666 1.386 . S
C1665 C1668 1.388 . S
C1666 C1665 1.386 . S
C1666 C1667 1.382 . S
C1666 H1692 0.950 . S
C1667 N1664 1.332 . S
C1667 C1666 1.382 . S
C1667 H1678 0.952 . S
C1668 C1665 1.388 . S
C1668 C1669 1.382 . S
C1668 H1693 0.950 . S
C1669 N1664 1.332 . S
C1669 C1668 1.382 . S
C1669 H1679 0.948 . S
N1670 Co1648 2.282 . S
N1670 C1674 1.332 . S
N1670 C1675 1.332 . S
C1671 C1672 1.388 . S
C1671 C1675 1.382 . S
C1671 H1694 0.950 . S
C1672 C1671 1.388 . S
C1672 C1673 1.386 . S
C1673 C1672 1.386 . S
C1673 C1674 1.382 . S
C1673 H1695 0.950 . S
C1674 N1670 1.332 . S
C1674 C1673 1.382 . S
C1674 H1676 0.958 . S
C1675 N1670 1.332 . S
C1675 C1671 1.382 . S
C1675 H1677 0.948 . S
H1676 C1674 0.958 . S
H1677 C1675 0.948 . S
H1678 C1667 0.952 . S
H1679 C1669 0.948 . S
C1680 C1646 1.395 . S
C1680 C1650 1.391 1_554 S
C1681 C1643 1.389 . S
C1681 C1663 1.392 . S
C1682 C1653 1.392 . S
C1682 C1655 1.389 . S
C1683 C1658 1.394 . S
C1683 C1660 1.392 1_556 S
H1684 C1644 0.951 . S
H1685 C1645 0.950 . S
H1686 C1651 0.949 . S
H1687 C1652 0.950 . S
H1688 C1656 0.951 . S
H1689 C1657 0.950 . S
H1690 C1661 0.949 . S
H1691 C1662 0.950 . S
H1692 C1666 0.950 . S
H1693 C1668 0.950 . S
H1694 C1671 0.950 . S
H1695 C1673 0.950 . S
C1696 C1697 1.349 . S
C1696 C1698 1.327 . S
C1696 H1721 0.950 . S
C1697 C1696 1.349 . S
C1697 C1713 1.349 . S
C1698 C1696 1.327 . S
C1698 C1717 1.429 . S
C1698 H1722 0.950 . S
C1699 C1716 1.574 . S
C1699 C1718 1.368 . S
C1699 H1723 0.949 . S
H1700 C1704 0.949 . S
C1701 C1702 1.349 . S
C1701 C1703 1.327 . S
C1701 H1724 0.950 . S
C1702 C1701 1.349 . S
C1702 C1714 1.349 . S
C1703 C1701 1.327 . S
C1703 C1719 1.429 . S
C1703 H1725 0.950 . S
C1704 H1700 0.949 . S
C1704 C1712 1.574 . S
C1704 C1720 1.368 . S
H1705 C1713 0.950 . S
H1706 C1711 0.950 . S
H1707 C1712 0.949 . S
H1708 C1714 0.950 . S
H1709 C1715 0.950 . S
H1710 C1716 0.949 . S
C1711 H1706 0.950 . S
C1711 C1713 1.327 . S
C1711 C1717 1.429 . S
C1712 C1704 1.574 . S
C1712 H1707 0.949 . S
C1712 C1718 1.368 . S
C1713 C1697 1.349 . S
C1713 H1705 0.950 . S
C1713 C1711 1.327 . S
C1714 C1702 1.349 . S
C1714 H1708 0.950 . S
C1714 C1715 1.327 . S
C1715 H1709 0.950 . S
C1715 C1714 1.327 . S
C1715 C1719 1.429 . S
C1716 C1699 1.574 . S
C1716 H1710 0.949 . S
C1716 C1720 1.368 . S
C1717 C1698 1.429 . S
C1717 C1711 1.429 . S
C1717 C1718 1.523 . S
C1718 C1699 1.368 . S
C1718 C1712 1.368 . S
C1718 C1717 1.523 . S
C1719 C1703 1.429 . S
C1719 C1715 1.429 . S
C1719 C1720 1.523 . S
C1720 C1704 1.368 . S
C1720 C1716 1.368 . S
C1720 C1719 1.523 . S
H1721 C1696 0.950 . S
H1722 C1698 0.950 . S
H1723 C1699 0.949 . S
H1724 C1701 0.950 . S
H1725 C1703 0.950 . S
C1726 C1727 1.349 . S
C1726 C1728 1.327 . S
C1726 H1751 0.950 . S
C1727 C1726 1.349 . S
C1727 C1743 1.349 . S
C1728 C1726 1.327 . S
C1728 C1747 1.429 . S
C1728 H1752 0.950 . S
C1729 C1746 1.574 . S
C1729 C1748 1.368 . S
C1729 H1753 0.949 . S
H1730 C1734 0.949 . S
C1731 C1732 1.349 . S
C1731 C1733 1.327 . S
C1731 H1754 0.950 . S
C1732 C1731 1.349 . S
C1732 C1744 1.349 . S
C1733 C1731 1.327 . S
C1733 C1749 1.429 . S
C1733 H1755 0.950 . S
C1734 H1730 0.949 . S
C1734 C1742 1.574 . S
C1734 C1750 1.368 . S
H1735 C1743 0.950 . S
H1736 C1741 0.950 . S
H1737 C1742 0.949 . S
H1738 C1744 0.950 . S
H1739 C1745 0.950 . S
H1740 C1746 0.949 . S
C1741 H1736 0.950 . S
C1741 C1743 1.327 . S
C1741 C1747 1.429 . S
C1742 C1734 1.574 . S
C1742 H1737 0.949 . S
C1742 C1748 1.368 . S
C1743 C1727 1.349 . S
C1743 H1735 0.950 . S
C1743 C1741 1.327 . S
C1744 C1732 1.349 . S
C1744 H1738 0.950 . S
C1744 C1745 1.327 . S
C1745 H1739 0.950 . S
C1745 C1744 1.327 . S
C1745 C1749 1.429 . S
C1746 C1729 1.574 . S
C1746 H1740 0.949 . S
C1746 C1750 1.368 . S
C1747 C1728 1.429 . S
C1747 C1741 1.429 . S
C1747 C1748 1.523 . S
C1748 C1729 1.368 . S
C1748 C1742 1.368 . S
C1748 C1747 1.523 . S
C1749 C1733 1.429 . S
C1749 C1745 1.429 . S
C1749 C1750 1.523 . S
C1750 C1734 1.368 . S
C1750 C1746 1.368 . S
C1750 C1749 1.523 . S
H1751 C1726 0.950 . S
H1752 C1728 0.950 . S
H1753 C1729 0.949 . S
H1754 C1731 0.950 . S
H1755 C1733 0.950 . S
C1756 C1757 1.349 . S
C1756 C1758 1.327 . S
C1756 H1781 0.950 . S
C1757 C1756 1.349 . S
C1757 C1773 1.349 . S
C1758 C1756 1.327 . S
C1758 C1777 1.429 . S
C1758 H1782 0.950 . S
C1759 C1776 1.574 . S
C1759 C1778 1.368 . S
C1759 H1783 0.949 . S
H1760 C1764 0.949 . S
C1761 C1762 1.349 . S
C1761 C1763 1.327 . S
C1761 H1784 0.950 . S
C1762 C1761 1.349 . S
C1762 C1774 1.349 . S
C1763 C1761 1.327 . S
C1763 C1779 1.429 . S
C1763 H1785 0.950 . S
C1764 H1760 0.949 . S
C1764 C1772 1.574 . S
C1764 C1780 1.368 . S
H1765 C1773 0.950 . S
H1766 C1771 0.950 . S
H1767 C1772 0.949 . S
H1768 C1774 0.950 . S
H1769 C1775 0.950 . S
H1770 C1776 0.949 . S
C1771 H1766 0.950 . S
C1771 C1773 1.327 . S
C1771 C1777 1.429 . S
C1772 C1764 1.574 . S
C1772 H1767 0.949 . S
C1772 C1778 1.368 . S
C1773 C1757 1.349 . S
C1773 H1765 0.950 . S
C1773 C1771 1.327 . S
C1774 C1762 1.349 . S
C1774 H1768 0.950 . S
C1774 C1775 1.327 . S
C1775 H1769 0.950 . S
C1775 C1774 1.327 . S
C1775 C1779 1.429 . S
C1776 C1759 1.574 . S
C1776 H1770 0.949 . S
C1776 C1780 1.368 . S
C1777 C1758 1.429 . S
C1777 C1771 1.429 . S
C1777 C1778 1.523 . S
C1778 C1759 1.368 . S
C1778 C1772 1.368 . S
C1778 C1777 1.523 . S
C1779 C1763 1.429 . S
C1779 C1775 1.429 . S
C1779 C1780 1.523 . S
C1780 C1764 1.368 . S
C1780 C1776 1.368 . S
C1780 C1779 1.523 . S
H1781 C1756 0.950 . S
H1782 C1758 0.950 . S
H1783 C1759 0.949 . S
H1784 C1761 0.950 . S
H1785 C1763 0.950 . S
C1786 C1787 1.349 . S
C1786 C1788 1.327 . S
C1786 H1811 0.950 . S
C1787 C1786 1.349 . S
C1787 C1803 1.349 . S
C1788 C1786 1.327 . S
C1788 C1807 1.429 . S
C1788 H1812 0.950 . S
C1789 C1806 1.574 . S
C1789 C1808 1.368 . S
C1789 H1813 0.949 . S
H1790 C1794 0.949 . S
C1791 C1792 1.349 . S
C1791 C1793 1.327 . S
C1791 H1814 0.950 . S
C1792 C1791 1.349 . S
C1792 C1804 1.349 . S
C1793 C1791 1.327 . S
C1793 C1809 1.429 . S
C1793 H1815 0.950 . S
C1794 H1790 0.949 . S
C1794 C1802 1.574 . S
C1794 C1810 1.368 . S
H1795 C1803 0.950 . S
H1796 C1801 0.950 . S
H1797 C1802 0.949 . S
H1798 C1804 0.950 . S
H1799 C1805 0.950 . S
H1800 C1806 0.949 . S
C1801 H1796 0.950 . S
C1801 C1803 1.327 . S
C1801 C1807 1.429 . S
C1802 C1794 1.574 . S
C1802 H1797 0.949 . S
C1802 C1808 1.368 . S
C1803 C1787 1.349 . S
C1803 H1795 0.950 . S
C1803 C1801 1.327 . S
C1804 C1792 1.349 . S
C1804 H1798 0.950 . S
C1804 C1805 1.327 . S
C1805 H1799 0.950 . S
C1805 C1804 1.327 . S
C1805 C1809 1.429 . S
C1806 C1789 1.574 . S
C1806 H1800 0.949 . S
C1806 C1810 1.368 . S
C1807 C1788 1.429 . S
C1807 C1801 1.429 . S
C1807 C1808 1.523 . S
C1808 C1789 1.368 . S
C1808 C1802 1.368 . S
C1808 C1807 1.523 . S
C1809 C1793 1.429 . S
C1809 C1805 1.429 . S
C1809 C1810 1.523 . S
C1810 C1794 1.368 . S
C1810 C1806 1.368 . S
C1810 C1809 1.523 . S
H1811 C1786 0.950 . S
H1812 C1788 0.950 . S
H1813 C1789 0.949 . S
H1814 C1791 0.950 . S
H1815 C1793 0.950 . S
C1816 C1817 1.349 . S
C1816 C1818 1.327 . S
C1816 H1841 0.950 . S
C1817 C1816 1.349 . S
C1817 C1833 1.349 . S
C1818 C1816 1.327 . S
C1818 C1837 1.429 . S
C1818 H1842 0.950 . S
C1819 C1836 1.574 . S
C1819 C1838 1.368 . S
C1819 H1843 0.949 . S
H1820 C1824 0.949 . S
C1821 C1822 1.349 . S
C1821 C1823 1.327 . S
C1821 H1844 0.950 . S
C1822 C1821 1.349 . S
C1822 C1834 1.349 . S
C1823 C1821 1.327 . S
C1823 C1839 1.429 . S
C1823 H1845 0.950 . S
C1824 H1820 0.949 . S
C1824 C1832 1.574 . S
C1824 C1840 1.368 . S
H1825 C1833 0.950 . S
H1826 C1831 0.950 . S
H1827 C1832 0.949 . S
H1828 C1834 0.950 . S
H1829 C1835 0.950 . S
H1830 C1836 0.949 . S
C1831 H1826 0.950 . S
C1831 C1833 1.327 . S
C1831 C1837 1.429 . S
C1832 C1824 1.574 . S
C1832 H1827 0.949 . S
C1832 C1838 1.368 . S
C1833 C1817 1.349 . S
C1833 H1825 0.950 . S
C1833 C1831 1.327 . S
C1834 C1822 1.349 . S
C1834 H1828 0.950 . S
C1834 C1835 1.327 . S
C1835 H1829 0.950 . S
C1835 C1834 1.327 . S
C1835 C1839 1.429 . S
C1836 C1819 1.574 . S
C1836 H1830 0.949 . S
C1836 C1840 1.368 . S
C1837 C1818 1.429 . S
C1837 C1831 1.429 . S
C1837 C1838 1.523 . S
C1838 C1819 1.368 . S
C1838 C1832 1.368 . S
C1838 C1837 1.523 . S
C1839 C1823 1.429 . S
C1839 C1835 1.429 . S
C1839 C1840 1.523 . S
C1840 C1824 1.368 . S
C1840 C1836 1.368 . S
C1840 C1839 1.523 . S
H1841 C1816 0.950 . S
H1842 C1818 0.950 . S
H1843 C1819 0.949 . S
H1844 C1821 0.950 . S
H1845 C1823 0.950 . S
C1846 C1847 1.349 . S
C1846 C1848 1.327 . S
C1846 H1871 0.950 . S
C1847 C1846 1.349 . S
C1847 C1863 1.349 . S
C1848 C1846 1.327 . S
C1848 C1867 1.429 . S
C1848 H1872 0.950 . S
C1849 C1866 1.574 . S
C1849 C1868 1.368 . S
C1849 H1873 0.949 . S
H1850 C1854 0.949 . S
C1851 C1852 1.349 . S
C1851 C1853 1.327 . S
C1851 H1874 0.950 . S
C1852 C1851 1.349 . S
C1852 C1864 1.349 . S
C1853 C1851 1.327 . S
C1853 C1869 1.429 . S
C1853 H1875 0.950 . S
C1854 H1850 0.949 . S
C1854 C1862 1.574 . S
C1854 C1870 1.368 . S
H1855 C1863 0.950 . S
H1856 C1861 0.950 . S
H1857 C1862 0.949 . S
H1858 C1864 0.950 . S
H1859 C1865 0.950 . S
H1860 C1866 0.949 . S
C1861 H1856 0.950 . S
C1861 C1863 1.327 . S
C1861 C1867 1.429 . S
C1862 C1854 1.574 . S
C1862 H1857 0.949 . S
C1862 C1868 1.368 . S
C1863 C1847 1.349 . S
C1863 H1855 0.950 . S
C1863 C1861 1.327 . S
C1864 C1852 1.349 . S
C1864 H1858 0.950 . S
C1864 C1865 1.327 . S
C1865 H1859 0.950 . S
C1865 C1864 1.327 . S
C1865 C1869 1.429 . S
C1866 C1849 1.574 . S
C1866 H1860 0.949 . S
C1866 C1870 1.368 . S
C1867 C1848 1.429 . S
C1867 C1861 1.429 . S
C1867 C1868 1.523 . S
C1868 C1849 1.368 . S
C1868 C1862 1.368 . S
C1868 C1867 1.523 . S
C1869 C1853 1.429 . S
C1869 C1865 1.429 . S
C1869 C1870 1.523 . S
C1870 C1854 1.368 . S
C1870 C1866 1.368 . S
C1870 C1869 1.523 . S
H1871 C1846 0.950 . S
H1872 C1848 0.950 . S
H1873 C1849 0.949 . S
H1874 C1851 0.950 . S
H1875 C1853 0.950 . S
C1876 C1877 1.349 . S
C1876 C1878 1.327 . S
C1876 H1901 0.950 . S
C1877 C1876 1.349 . S
C1877 C1893 1.349 . S
C1878 C1876 1.327 . S
C1878 C1897 1.429 . S
C1878 H1902 0.950 . S
C1879 C1896 1.574 . S
C1879 C1898 1.368 . S
C1879 H1903 0.949 . S
H1880 C1884 0.949 . S
C1881 C1882 1.349 . S
C1881 C1883 1.327 . S
C1881 H1904 0.950 . S
C1882 C1881 1.349 . S
C1882 C1894 1.349 . S
C1883 C1881 1.327 . S
C1883 C1899 1.429 . S
C1883 H1905 0.950 . S
C1884 H1880 0.949 . S
C1884 C1892 1.574 . S
C1884 C1900 1.368 . S
H1885 C1893 0.950 . S
H1886 C1891 0.950 . S
H1887 C1892 0.949 . S
H1888 C1894 0.950 . S
H1889 C1895 0.950 . S
H1890 C1896 0.949 . S
C1891 H1886 0.950 . S
C1891 C1893 1.327 . S
C1891 C1897 1.429 . S
C1892 C1884 1.574 . S
C1892 H1887 0.949 . S
C1892 C1898 1.368 . S
C1893 C1877 1.349 . S
C1893 H1885 0.950 . S
C1893 C1891 1.327 . S
C1894 C1882 1.349 . S
C1894 H1888 0.950 . S
C1894 C1895 1.327 . S
C1895 H1889 0.950 . S
C1895 C1894 1.327 . S
C1895 C1899 1.429 . S
C1896 C1879 1.574 . S
C1896 H1890 0.949 . S
C1896 C1900 1.368 . S
C1897 C1878 1.429 . S
C1897 C1891 1.429 . S
C1897 C1898 1.523 . S
C1898 C1879 1.368 . S
C1898 C1892 1.368 . S
C1898 C1897 1.523 . S
C1899 C1883 1.429 . S
C1899 C1895 1.429 . S
C1899 C1900 1.523 . S
C1900 C1884 1.368 . S
C1900 C1896 1.368 . S
C1900 C1899 1.523 . S
H1901 C1876 0.950 . S
H1902 C1878 0.950 . S
H1903 C1879 0.949 . S
H1904 C1881 0.950 . S
H1905 C1883 0.950 . S
C1906 C1907 1.349 . S
C1906 C1908 1.327 . S
C1906 H1931 0.950 . S
C1907 C1906 1.349 . S
C1907 C1923 1.349 . S
C1908 C1906 1.327 . S
C1908 C1927 1.429 . S
C1908 H1932 0.950 . S
C1909 C1926 1.574 . S
C1909 C1928 1.368 . S
C1909 H1933 0.949 . S
H1910 C1914 0.949 . S
C1911 C1912 1.349 . S
C1911 C1913 1.327 . S
C1911 H1934 0.950 . S
C1912 C1911 1.349 . S
C1912 C1924 1.349 . S
C1913 C1911 1.327 . S
C1913 C1929 1.429 . S
C1913 H1935 0.950 . S
C1914 H1910 0.949 . S
C1914 C1922 1.574 . S
C1914 C1930 1.368 . S
H1915 C1923 0.950 . S
H1916 C1921 0.950 . S
H1917 C1922 0.949 . S
H1918 C1924 0.950 . S
H1919 C1925 0.950 . S
H1920 C1926 0.949 . S
C1921 H1916 0.950 . S
C1921 C1923 1.327 . S
C1921 C1927 1.429 . S
C1922 C1914 1.574 . S
C1922 H1917 0.949 . S
C1922 C1928 1.368 . S
C1923 C1907 1.349 . S
C1923 H1915 0.950 . S
C1923 C1921 1.327 . S
C1924 C1912 1.349 . S
C1924 H1918 0.950 . S
C1924 C1925 1.327 . S
C1925 H1919 0.950 . S
C1925 C1924 1.327 . S
C1925 C1929 1.429 . S
C1926 C1909 1.574 . S
C1926 H1920 0.949 . S
C1926 C1930 1.368 . S
C1927 C1908 1.429 . S
C1927 C1921 1.429 . S
C1927 C1928 1.523 . S
C1928 C1909 1.368 . S
C1928 C1922 1.368 . S
C1928 C1927 1.523 . S
C1929 C1913 1.429 . S
C1929 C1925 1.429 . S
C1929 C1930 1.523 . S
C1930 C1914 1.368 . S
C1930 C1926 1.368 . S
C1930 C1929 1.523 . S
H1931 C1906 0.950 . S
H1932 C1908 0.950 . S
H1933 C1909 0.949 . S
H1934 C1911 0.950 . S
H1935 C1913 0.950 . S
C1936 C1937 1.349 . S
C1936 C1938 1.327 . S
C1936 H1961 0.950 . S
C1937 C1936 1.349 . S
C1937 C1953 1.349 . S
C1938 C1936 1.327 . S
C1938 C1957 1.429 . S
C1938 H1962 0.950 . S
C1939 C1956 1.574 . S
C1939 C1958 1.368 . S
C1939 H1963 0.949 . S
H1940 C1944 0.949 . S
C1941 C1942 1.349 . S
C1941 C1943 1.327 . S
C1941 H1964 0.950 . S
C1942 C1941 1.349 . S
C1942 C1954 1.349 . S
C1943 C1941 1.327 . S
C1943 C1959 1.429 . S
C1943 H1965 0.950 . S
C1944 H1940 0.949 . S
C1944 C1952 1.574 . S
C1944 C1960 1.368 . S
H1945 C1953 0.950 . S
H1946 C1951 0.950 . S
H1947 C1952 0.949 . S
H1948 C1954 0.950 . S
H1949 C1955 0.950 . S
H1950 C1956 0.949 . S
C1951 H1946 0.950 . S
C1951 C1953 1.327 . S
C1951 C1957 1.429 . S
C1952 C1944 1.574 . S
C1952 H1947 0.949 . S
C1952 C1958 1.368 . S
C1953 C1937 1.349 . S
C1953 H1945 0.950 . S
C1953 C1951 1.327 . S
C1954 C1942 1.349 . S
C1954 H1948 0.950 . S
C1954 C1955 1.327 . S
C1955 H1949 0.950 . S
C1955 C1954 1.327 . S
C1955 C1959 1.429 . S
C1956 C1939 1.574 . S
C1956 H1950 0.949 . S
C1956 C1960 1.368 . S
C1957 C1938 1.429 . S
C1957 C1951 1.429 . S
C1957 C1958 1.523 . S
C1958 C1939 1.368 . S
C1958 C1952 1.368 . S
C1958 C1957 1.523 . S
C1959 C1943 1.429 . S
C1959 C1955 1.429 . S
C1959 C1960 1.523 . S
C1960 C1944 1.368 . S
C1960 C1956 1.368 . S
C1960 C1959 1.523 . S
H1961 C1936 0.950 . S
H1962 C1938 0.950 . S
H1963 C1939 0.949 . S
H1964 C1941 0.950 . S
H1965 C1943 0.950 . S
C1966 C1967 1.349 . S
C1966 C1968 1.327 . S
C1966 H1991 0.950 . S
C1967 C1966 1.349 . S
C1967 C1983 1.349 . S
C1968 C1966 1.327 . S
C1968 C1987 1.429 . S
C1968 H1992 0.950 . S
C1969 C1986 1.574 . S
C1969 C1988 1.368 . S
C1969 H1993 0.949 . S
H1970 C1974 0.949 . S
C1971 C1972 1.349 . S
C1971 C1973 1.327 . S
C1971 H1994 0.950 . S
C1972 C1971 1.349 . S
C1972 C1984 1.349 . S
C1973 C1971 1.327 . S
C1973 C1989 1.429 . S
C1973 H1995 0.950 . S
C1974 H1970 0.949 . S
C1974 C1982 1.574 . S
C1974 C1990 1.368 . S
H1975 C1983 0.950 . S
H1976 C1981 0.950 . S
H1977 C1982 0.949 . S
H1978 C1984 0.950 . S
H1979 C1985 0.950 . S
H1980 C1986 0.949 . S
C1981 H1976 0.950 . S
C1981 C1983 1.327 . S
C1981 C1987 1.429 . S
C1982 C1974 1.574 . S
C1982 H1977 0.949 . S
C1982 C1988 1.368 . S
C1983 C1967 1.349 . S
C1983 H1975 0.950 . S
C1983 C1981 1.327 . S
C1984 C1972 1.349 . S
C1984 H1978 0.950 . S
C1984 C1985 1.327 . S
C1985 H1979 0.950 . S
C1985 C1984 1.327 . S
C1985 C1989 1.429 . S
C1986 C1969 1.574 . S
C1986 H1980 0.949 . S
C1986 C1990 1.368 . S
C1987 C1968 1.429 . S
C1987 C1981 1.429 . S
C1987 C1988 1.523 . S
C1988 C1969 1.368 . S
C1988 C1982 1.368 . S
C1988 C1987 1.523 . S
C1989 C1973 1.429 . S
C1989 C1985 1.429 . S
C1989 C1990 1.523 . S
C1990 C1974 1.368 . S
C1990 C1986 1.368 . S
C1990 C1989 1.523 . S
H1991 C1966 0.950 . S
H1992 C1968 0.950 . S
H1993 C1969 0.949 . S
H1994 C1971 0.950 . S
H1995 C1973 0.950 . S
C1996 C1997 1.349 . S
C1996 C1998 1.327 . S
C1996 H2021 0.950 . S
C1997 C1996 1.349 . S
C1997 C2013 1.349 . S
C1998 C1996 1.327 . S
C1998 C2017 1.429 . S
C1998 H2022 0.950 . S
C1999 C2016 1.574 . S
C1999 C2018 1.368 . S
C1999 H2023 0.949 . S
H2000 C2004 0.949 . S
C2001 C2002 1.349 . S
C2001 C2003 1.327 . S
C2001 H2024 0.950 . S
C2002 C2001 1.349 . S
C2002 C2014 1.349 . S
C2003 C2001 1.327 . S
C2003 C2019 1.429 . S
C2003 H2025 0.950 . S
C2004 H2000 0.949 . S
C2004 C2012 1.574 . S
C2004 C2020 1.368 . S
H2005 C2013 0.950 . S
H2006 C2011 0.950 . S
H2007 C2012 0.949 . S
H2008 C2014 0.950 . S
H2009 C2015 0.950 . S
H2010 C2016 0.949 . S
C2011 H2006 0.950 . S
C2011 C2013 1.327 . S
C2011 C2017 1.429 . S
C2012 C2004 1.574 . S
C2012 H2007 0.949 . S
C2012 C2018 1.368 . S
C2013 C1997 1.349 . S
C2013 H2005 0.950 . S
C2013 C2011 1.327 . S
C2014 C2002 1.349 . S
C2014 H2008 0.950 . S
C2014 C2015 1.327 . S
C2015 H2009 0.950 . S
C2015 C2014 1.327 . S
C2015 C2019 1.429 . S
C2016 C1999 1.574 . S
C2016 H2010 0.949 . S
C2016 C2020 1.368 . S
C2017 C1998 1.429 . S
C2017 C2011 1.429 . S
C2017 C2018 1.523 . S
C2018 C1999 1.368 . S
C2018 C2012 1.368 . S
C2018 C2017 1.523 . S
C2019 C2003 1.429 . S
C2019 C2015 1.429 . S
C2019 C2020 1.523 . S
C2020 C2004 1.368 . S
C2020 C2016 1.368 . S
C2020 C2019 1.523 . S
H2021 C1996 0.950 . S
H2022 C1998 0.950 . S
H2023 C1999 0.949 . S
H2024 C2001 0.950 . S
H2025 C2003 0.950 . S
C2026 C2027 1.349 . S
C2026 C2028 1.327 . S
C2026 H2051 0.950 . S
C2027 C2026 1.349 . S
C2027 C2043 1.349 . S
C2028 C2026 1.327 . S
C2028 C2047 1.429 . S
C2028 H2052 0.950 . S
C2029 C2046 1.574 . S
C2029 C2048 1.368 . S
C2029 H2053 0.949 . S
H2030 C2034 0.949 . S
C2031 C2032 1.349 . S
C2031 C2033 1.327 . S
C2031 H2054 0.950 . S
C2032 C2031 1.349 . S
C2032 C2044 1.349 . S
C2033 C2031 1.327 . S
C2033 C2049 1.429 . S
C2033 H2055 0.950 . S
C2034 H2030 0.949 . S
C2034 C2042 1.574 . S
C2034 C2050 1.368 . S
H2035 C2043 0.950 . S
H2036 C2041 0.950 . S
H2037 C2042 0.949 . S
H2038 C2044 0.950 . S
H2039 C2045 0.950 . S
H2040 C2046 0.949 . S
C2041 H2036 0.950 . S
C2041 C2043 1.327 . S
C2041 C2047 1.429 . S
C2042 C2034 1.574 . S
C2042 H2037 0.949 . S
C2042 C2048 1.368 . S
C2043 C2027 1.349 . S
C2043 H2035 0.950 . S
C2043 C2041 1.327 . S
C2044 C2032 1.349 . S
C2044 H2038 0.950 . S
C2044 C2045 1.327 . S
C2045 H2039 0.950 . S
C2045 C2044 1.327 . S
C2045 C2049 1.429 . S
C2046 C2029 1.574 . S
C2046 H2040 0.949 . S
C2046 C2050 1.368 . S
C2047 C2028 1.429 . S
C2047 C2041 1.429 . S
C2047 C2048 1.523 . S
C2048 C2029 1.368 . S
C2048 C2042 1.368 . S
C2048 C2047 1.523 . S
C2049 C2033 1.429 . S
C2049 C2045 1.429 . S
C2049 C2050 1.523 . S
C2050 C2034 1.368 . S
C2050 C2046 1.368 . S
C2050 C2049 1.523 . S
H2051 C2026 0.950 . S
H2052 C2028 0.950 . S
H2053 C2029 0.949 . S
H2054 C2031 0.950 . S
H2055 C2033 0.950 . S
C2056 C2057 1.349 . S
C2056 C2058 1.327 . S
C2056 H2081 0.950 . S
C2057 C2056 1.349 . S
C2057 C2073 1.349 . S
C2058 C2056 1.327 . S
C2058 C2077 1.429 . S
C2058 H2082 0.950 . S
C2059 C2076 1.574 . S
C2059 C2078 1.368 . S
C2059 H2083 0.949 . S
H2060 C2064 0.949 . S
C2061 C2062 1.349 . S
C2061 C2063 1.327 . S
C2061 H2084 0.950 . S
C2062 C2061 1.349 . S
C2062 C2074 1.349 . S
C2063 C2061 1.327 . S
C2063 C2079 1.429 . S
C2063 H2085 0.950 . S
C2064 H2060 0.949 . S
C2064 C2072 1.574 . S
C2064 C2080 1.368 . S
H2065 C2073 0.950 . S
H2066 C2071 0.950 . S
H2067 C2072 0.949 . S
H2068 C2074 0.950 . S
H2069 C2075 0.950 . S
H2070 C2076 0.949 . S
C2071 H2066 0.950 . S
C2071 C2073 1.327 . S
C2071 C2077 1.429 . S
C2072 C2064 1.574 . S
C2072 H2067 0.949 . S
C2072 C2078 1.368 . S
C2073 C2057 1.349 . S
C2073 H2065 0.950 . S
C2073 C2071 1.327 . S
C2074 C2062 1.349 . S
C2074 H2068 0.950 . S
C2074 C2075 1.327 . S
C2075 H2069 0.950 . S
C2075 C2074 1.327 . S
C2075 C2079 1.429 . S
C2076 C2059 1.574 . S
C2076 H2070 0.949 . S
C2076 C2080 1.368 . S
C2077 C2058 1.429 . S
C2077 C2071 1.429 . S
C2077 C2078 1.523 . S
C2078 C2059 1.368 . S
C2078 C2072 1.368 . S
C2078 C2077 1.523 . S
C2079 C2063 1.429 . S
C2079 C2075 1.429 . S
C2079 C2080 1.523 . S
C2080 C2064 1.368 . S
C2080 C2076 1.368 . S
C2080 C2079 1.523 . S
H2081 C2056 0.950 . S
H2082 C2058 0.950 . S
H2083 C2059 0.949 . S
H2084 C2061 0.950 . S
H2085 C2063 0.950 . S
C2086 C2087 1.349 . S
C2086 C2088 1.327 . S
C2086 H2111 0.950 . S
C2087 C2086 1.349 . S
C2087 C2103 1.349 . S
C2088 C2086 1.327 . S
C2088 C2107 1.429 . S
C2088 H2112 0.950 . S
C2089 C2106 1.574 . S
C2089 C2108 1.368 . S
C2089 H2113 0.949 . S
H2090 C2094 0.949 . S
C2091 C2092 1.349 . S
C2091 C2093 1.327 . S
C2091 H2114 0.950 . S
C2092 C2091 1.349 . S
C2092 C2104 1.349 . S
C2093 C2091 1.327 . S
C2093 C2109 1.429 . S
C2093 H2115 0.950 . S
C2094 H2090 0.949 . S
C2094 C2102 1.574 . S
C2094 C2110 1.368 . S
H2095 C2103 0.950 . S
H2096 C2101 0.950 . S
H2097 C2102 0.949 . S
H2098 C2104 0.950 . S
H2099 C2105 0.950 . S
H2100 C2106 0.949 . S
C2101 H2096 0.950 . S
C2101 C2103 1.327 . S
C2101 C2107 1.429 . S
C2102 C2094 1.574 . S
C2102 H2097 0.949 . S
C2102 C2108 1.368 . S
C2103 C2087 1.349 . S
C2103 H2095 0.950 . S
C2103 C2101 1.327 . S
C2104 C2092 1.349 . S
C2104 H2098 0.950 . S
C2104 C2105 1.327 . S
C2105 H2099 0.950 . S
C2105 C2104 1.327 . S
C2105 C2109 1.429 . S
C2106 C2089 1.574 . S
C2106 H2100 0.949 . S
C2106 C2110 1.368 . S
C2107 C2088 1.429 . S
C2107 C2101 1.429 . S
C2107 C2108 1.523 . S
C2108 C2089 1.368 . S
C2108 C2102 1.368 . S
C2108 C2107 1.523 . S
C2109 C2093 1.429 . S
C2109 C2105 1.429 . S
C2109 C2110 1.523 . S
C2110 C2094 1.368 . S
C2110 C2106 1.368 . S
C2110 C2109 1.523 . S
H2111 C2086 0.950 . S
H2112 C2088 0.950 . S
H2113 C2089 0.949 . S
H2114 C2091 0.950 . S
H2115 C2093 0.950 . S
C2116 C2117 1.349 . S
C2116 C2118 1.327 . S
C2116 H2141 0.950 . S
C2117 C2116 1.349 . S
C2117 C2133 1.349 . S
C2118 C2116 1.327 . S
C2118 C2137 1.429 . S
C2118 H2142 0.950 . S
C2119 C2136 1.574 . S
C2119 C2138 1.368 . S
C2119 H2143 0.949 . S
H2120 C2124 0.949 . S
C2121 C2122 1.349 . S
C2121 C2123 1.327 . S
C2121 H2144 0.950 . S
C2122 C2121 1.349 . S
C2122 C2134 1.349 . S
C2123 C2121 1.327 . S
C2123 C2139 1.429 . S
C2123 H2145 0.950 . S
C2124 H2120 0.949 . S
C2124 C2132 1.574 . S
C2124 C2140 1.368 . S
H2125 C2133 0.950 . S
H2126 C2131 0.950 . S
H2127 C2132 0.949 . S
H2128 C2134 0.950 . S
H2129 C2135 0.950 . S
H2130 C2136 0.949 . S
C2131 H2126 0.950 . S
C2131 C2133 1.327 . S
C2131 C2137 1.429 . S
C2132 C2124 1.574 . S
C2132 H2127 0.949 . S
C2132 C2138 1.368 . S
C2133 C2117 1.349 . S
C2133 H2125 0.950 . S
C2133 C2131 1.327 . S
C2134 C2122 1.349 . S
C2134 H2128 0.950 . S
C2134 C2135 1.327 . S
C2135 H2129 0.950 . S
C2135 C2134 1.327 . S
C2135 C2139 1.429 . S
C2136 C2119 1.574 . S
C2136 H2130 0.949 . S
C2136 C2140 1.368 . S
C2137 C2118 1.429 . S
C2137 C2131 1.429 . S
C2137 C2138 1.523 . S
C2138 C2119 1.368 . S
C2138 C2132 1.368 . S
C2138 C2137 1.523 . S
C2139 C2123 1.429 . S
C2139 C2135 1.429 . S
C2139 C2140 1.523 . S
C2140 C2124 1.368 . S
C2140 C2136 1.368 . S
C2140 C2139 1.523 . S
H2141 C2116 0.950 . S
H2142 C2118 0.950 . S
H2143 C2119 0.949 . S
H2144 C2121 0.950 . S
H2145 C2123 0.950 . S
C2146 C2147 1.349 . S
C2146 C2148 1.327 . S
C2146 H2171 0.950 . S
C2147 C2146 1.349 . S
C2147 C2163 1.349 . S
C2148 C2146 1.327 . S
C2148 C2167 1.429 . S
C2148 H2172 0.950 . S
C2149 C2166 1.574 . S
C2149 C2168 1.368 . S
C2149 H2173 0.949 . S
H2150 C2154 0.949 . S
C2151 C2152 1.349 . S
C2151 C2153 1.327 . S
C2151 H2174 0.950 . S
C2152 C2151 1.349 . S
C2152 C2164 1.349 . S
C2153 C2151 1.327 . S
C2153 C2169 1.429 . S
C2153 H2175 0.950 . S
C2154 H2150 0.949 . S
C2154 C2162 1.574 . S
C2154 C2170 1.368 . S
H2155 C2163 0.950 . S
H2156 C2161 0.950 . S
H2157 C2162 0.949 . S
H2158 C2164 0.950 . S
H2159 C2165 0.950 . S
H2160 C2166 0.949 . S
C2161 H2156 0.950 . S
C2161 C2163 1.327 . S
C2161 C2167 1.429 . S
C2162 C2154 1.574 . S
C2162 H2157 0.949 . S
C2162 C2168 1.368 . S
C2163 C2147 1.349 . S
C2163 H2155 0.950 . S
C2163 C2161 1.327 . S
C2164 C2152 1.349 . S
C2164 H2158 0.950 . S
C2164 C2165 1.327 . S
C2165 H2159 0.950 . S
C2165 C2164 1.327 . S
C2165 C2169 1.429 . S
C2166 C2149 1.574 . S
C2166 H2160 0.949 . S
C2166 C2170 1.368 . S
C2167 C2148 1.429 . S
C2167 C2161 1.429 . S
C2167 C2168 1.523 . S
C2168 C2149 1.368 . S
C2168 C2162 1.368 . S
C2168 C2167 1.523 . S
C2169 C2153 1.429 . S
C2169 C2165 1.429 . S
C2169 C2170 1.523 . S
C2170 C2154 1.368 . S
C2170 C2166 1.368 . S
C2170 C2169 1.523 . S
H2171 C2146 0.950 . S
H2172 C2148 0.950 . S
H2173 C2149 0.949 . S
H2174 C2151 0.950 . S
H2175 C2153 0.950 . S
C2176 C2177 1.349 . S
C2176 C2178 1.327 . S
C2176 H2201 0.950 . S
C2177 C2176 1.349 . S
C2177 C2193 1.349 . S
C2178 C2176 1.327 . S
C2178 C2197 1.429 . S
C2178 H2202 0.950 . S
C2179 C2196 1.574 1_655 S
C2179 C2198 1.368 . S
C2179 H2203 0.949 . S
H2180 C2184 0.949 . S
C2181 C2182 1.349 . S
C2181 C2183 1.327 . S
C2181 H2204 0.950 . S
C2182 C2181 1.349 . S
C2182 C2194 1.349 . S
C2183 C2181 1.327 . S
C2183 C2199 1.429 . S
C2183 H2205 0.950 . S
C2184 H2180 0.949 . S
C2184 C2192 1.574 1_455 S
C2184 C2200 1.368 . S
H2185 C2193 0.950 . S
H2186 C2191 0.950 . S
H2187 C2192 0.949 . S
H2188 C2194 0.950 . S
H2189 C2195 0.950 . S
H2190 C2196 0.949 . S
C2191 H2186 0.950 . S
C2191 C2193 1.327 . S
C2191 C2197 1.429 . S
C2192 C2184 1.574 1_655 S
C2192 H2187 0.949 . S
C2192 C2198 1.368 . S
C2193 C2177 1.349 . S
C2193 H2185 0.950 . S
C2193 C2191 1.327 . S
C2194 C2182 1.349 . S
C2194 H2188 0.950 . S
C2194 C2195 1.327 . S
C2195 H2189 0.950 . S
C2195 C2194 1.327 . S
C2195 C2199 1.429 . S
C2196 C2179 1.574 1_455 S
C2196 H2190 0.949 . S
C2196 C2200 1.368 . S
C2197 C2178 1.429 . S
C2197 C2191 1.429 . S
C2197 C2198 1.523 . S
C2198 C2179 1.368 . S
C2198 C2192 1.368 . S
C2198 C2197 1.523 . S
C2199 C2183 1.429 . S
C2199 C2195 1.429 . S
C2199 C2200 1.523 . S
C2200 C2184 1.368 . S
C2200 C2196 1.368 . S
C2200 C2199 1.523 . S
H2201 C2176 0.950 . S
H2202 C2178 0.950 . S
H2203 C2179 0.949 . S
H2204 C2181 0.950 . S
H2205 C2183 0.950 . S
C2206 C2207 1.349 . S
C2206 C2208 1.327 . S
C2206 H2231 0.950 . S
C2207 C2206 1.349 . S
C2207 C2223 1.349 . S
C2208 C2206 1.327 . S
C2208 C2227 1.429 . S
C2208 H2232 0.950 . S
C2209 C2226 1.574 . S
C2209 C2228 1.368 1_545 S
C2209 H2233 0.949 . S
H2210 C2214 0.949 . S
C2211 C2212 1.349 . S
C2211 C2213 1.327 . S
C2211 H2234 0.950 . S
C2212 C2211 1.349 . S
C2212 C2224 1.349 . S
C2213 C2211 1.327 . S
C2213 C2229 1.429 . S
C2213 H2235 0.950 . S
C2214 H2210 0.949 . S
C2214 C2222 1.574 . S
C2214 C2230 1.368 1_565 S
H2215 C2223 0.950 . S
H2216 C2221 0.950 . S
H2217 C2222 0.949 . S
H2218 C2224 0.950 . S
H2219 C2225 0.950 . S
H2220 C2226 0.949 . S
C2221 H2216 0.950 . S
C2221 C2223 1.327 . S
C2221 C2227 1.429 . S
C2222 C2214 1.574 . S
C2222 H2217 0.949 . S
C2222 C2228 1.368 . S
C2223 C2207 1.349 . S
C2223 H2215 0.950 . S
C2223 C2221 1.327 . S
C2224 C2212 1.349 . S
C2224 H2218 0.950 . S
C2224 C2225 1.327 . S
C2225 H2219 0.950 . S
C2225 C2224 1.327 . S
C2225 C2229 1.429 . S
C2226 C2209 1.574 . S
C2226 H2220 0.949 . S
C2226 C2230 1.368 . S
C2227 C2208 1.429 . S
C2227 C2221 1.429 . S
C2227 C2228 1.523 . S
C2228 C2209 1.368 1_565 S
C2228 C2222 1.368 . S
C2228 C2227 1.523 . S
C2229 C2213 1.429 . S
C2229 C2225 1.429 . S
C2229 C2230 1.523 . S
C2230 C2214 1.368 1_545 S
C2230 C2226 1.368 . S
C2230 C2229 1.523 . S
H2231 C2206 0.950 . S
H2232 C2208 0.950 . S
H2233 C2209 0.949 . S
H2234 C2211 0.950 . S
H2235 C2213 0.950 . S
C2236 C2237 1.349 . S
C2236 C2238 1.327 . S
C2236 H2261 0.950 . S
C2237 C2236 1.349 . S
C2237 C2253 1.355 . S
C2238 C2236 1.327 . S
C2238 C2257 1.429 . S
C2238 H2262 0.950 . S
C2239 C2256 1.607 . S
C2239 C2258 1.328 1_654 S
C2239 H2263 0.949 . S
H2240 C2244 0.949 . S
C2241 C2242 1.349 . S
C2241 C2243 1.327 . S
C2241 H2264 0.950 . S
C2242 C2241 1.349 . S
C2242 C2254 1.355 . S
C2243 C2241 1.327 . S
C2243 C2259 1.429 . S
C2243 H2265 0.950 . S
C2244 H2240 0.949 . S
C2244 C2252 1.607 . S
C2244 C2260 1.328 1_456 S
H2245 C2253 0.944 1_554 S
H2246 C2251 0.952 . S
H2247 C2252 0.949 . S
H2248 C2254 0.944 1_556 S
H2249 C2255 0.952 . S
H2250 C2256 0.949 . S
C2251 H2246 0.952 . S
C2251 C2253 1.326 1_554 S
C2251 C2257 1.427 1_554 S
C2252 C2244 1.607 . S
C2252 H2247 0.949 . S
C2252 C2258 1.376 1_545 S
C2253 C2237 1.355 . S
C2253 H2245 0.944 1_556 S
C2253 C2251 1.326 1_556 S
C2254 C2242 1.355 . S
C2254 H2248 0.944 1_554 S
C2254 C2255 1.326 1_554 S
C2255 H2249 0.952 . S
C2255 C2254 1.326 1_556 S
C2255 C2259 1.427 1_556 S
C2256 C2239 1.607 . S
C2256 H2250 0.949 . S
C2256 C2260 1.376 1_565 S
C2257 C2238 1.429 . S
C2257 C2251 1.427 1_556 S
C2257 C2258 1.526 . S
C2258 C2239 1.328 1_456 S
C2258 C2252 1.376 1_565 S
C2258 C2257 1.526 . S
C2259 C2243 1.429 . S
C2259 C2255 1.427 1_554 S
C2259 C2260 1.526 . S
C2260 C2244 1.328 1_654 S
C2260 C2256 1.376 1_545 S
C2260 C2259 1.526 . S
H2261 C2236 0.950 . S
H2262 C2238 0.950 . S
H2263 C2239 0.949 . S
H2264 C2241 0.950 . S
H2265 C2243 0.950 . S
C2266 C2267 1.349 1_556 S
C2266 C2268 1.327 . S
C2266 H2291 0.950 . S
C2267 C2266 1.349 1_554 S
C2267 C2283 1.349 . S
C2268 C2266 1.327 . S
C2268 C2287 1.429 1_556 S
C2268 H2292 0.950 . S
C2269 C2286 1.574 . S
C2269 C2288 1.415 . S
C2269 H2293 0.949 . S
H2270 C2274 0.949 . S
C2271 C2272 1.349 1_554 S
C2271 C2273 1.327 . S
C2271 H2294 0.950 . S
C2272 C2271 1.349 1_556 S
C2272 C2284 1.349 . S
C2273 C2271 1.327 . S
C2273 C2289 1.429 1_554 S
C2273 H2295 0.950 . S
C2274 H2270 0.949 . S
C2274 C2282 1.574 . S
C2274 C2290 1.415 . S
H2275 C2283 0.950 . S
H2276 C2281 0.950 . S
H2277 C2282 0.949 . S
H2278 C2284 0.950 . S
H2279 C2285 0.950 . S
H2280 C2286 0.949 . S
C2281 H2276 0.950 . S
C2281 C2283 1.327 . S
C2281 C2287 1.429 . S
C2282 C2274 1.574 . S
C2282 H2277 0.949 . S
C2282 C2288 1.321 1_556 S
C2283 C2267 1.349 . S
C2283 H2275 0.950 . S
C2283 C2281 1.327 . S
C2284 C2272 1.349 . S
C2284 H2278 0.950 . S
C2284 C2285 1.327 . S
C2285 H2279 0.950 . S
C2285 C2284 1.327 . S
C2285 C2289 1.429 . S
C2286 C2269 1.574 . S
C2286 H2280 0.949 . S
C2286 C2290 1.321 1_554 S
C2287 C2268 1.429 1_554 S
C2287 C2281 1.429 . S
C2287 C2288 1.526 . S
C2288 C2269 1.415 . S
C2288 C2282 1.321 1_554 S
C2288 C2287 1.526 . S
C2289 C2273 1.429 1_556 S
C2289 C2285 1.429 . S
C2289 C2290 1.526 . S
C2290 C2274 1.415 . S
C2290 C2286 1.321 1_556 S
C2290 C2289 1.526 . S
H2291 C2266 0.950 . S
H2292 C2268 0.950 . S
H2293 C2269 0.949 . S
H2294 C2271 0.950 . S
H2295 C2273 0.950 . S
C2296 C2297 1.349 . S
C2296 C2298 1.327 . S
C2296 H2321 0.950 . S
C2297 C2296 1.349 . S
C2297 C2313 1.349 . S
C2298 C2296 1.327 . S
C2298 C2317 1.429 . S
C2298 H2322 0.950 . S
C2299 C2316 1.574 1_655 S
C2299 C2318 1.368 . S
C2299 H2323 0.949 . S
H2300 C2304 0.949 . S
C2301 C2302 1.349 . S
C2301 C2303 1.327 . S
C2301 H2324 0.950 . S
C2302 C2301 1.349 . S
C2302 C2314 1.349 . S
C2303 C2301 1.327 . S
C2303 C2319 1.429 . S
C2303 H2325 0.950 . S
C2304 H2300 0.949 . S
C2304 C2312 1.574 1_455 S
C2304 C2320 1.368 . S
H2305 C2313 0.950 . S
H2306 C2311 0.950 . S
H2307 C2312 0.949 . S
H2308 C2314 0.950 . S
H2309 C2315 0.950 . S
H2310 C2316 0.949 . S
C2311 H2306 0.950 . S
C2311 C2313 1.327 . S
C2311 C2317 1.429 . S
C2312 C2304 1.574 1_655 S
C2312 H2307 0.949 . S
C2312 C2318 1.368 . S
C2313 C2297 1.349 . S
C2313 H2305 0.950 . S
C2313 C2311 1.327 . S
C2314 C2302 1.349 . S
C2314 H2308 0.950 . S
C2314 C2315 1.327 . S
C2315 H2309 0.950 . S
C2315 C2314 1.327 . S
C2315 C2319 1.429 . S
C2316 C2299 1.574 1_455 S
C2316 H2310 0.949 . S
C2316 C2320 1.368 . S
C2317 C2298 1.429 . S
C2317 C2311 1.429 . S
C2317 C2318 1.523 . S
C2318 C2299 1.368 . S
C2318 C2312 1.368 . S
C2318 C2317 1.523 . S
C2319 C2303 1.429 . S
C2319 C2315 1.429 . S
C2319 C2320 1.523 . S
C2320 C2304 1.368 . S
C2320 C2316 1.368 . S
C2320 C2319 1.523 . S
H2321 C2296 0.950 . S
H2322 C2298 0.950 . S
H2323 C2299 0.949 . S
H2324 C2301 0.950 . S
H2325 C2303 0.950 . S
C2326 C2327 1.349 . S
C2326 C2328 1.327 . S
C2326 H2351 0.950 . S
C2327 C2326 1.349 . S
C2327 C2343 1.349 . S
C2328 C2326 1.327 . S
C2328 C2347 1.429 . S
C2328 H2352 0.950 . S
C2329 C2346 1.574 . S
C2329 C2348 1.368 . S
C2329 H2353 0.949 . S
H2330 C2334 0.949 . S
C2331 C2332 1.349 . S
C2331 C2333 1.327 . S
C2331 H2354 0.950 . S
C2332 C2331 1.349 . S
C2332 C2344 1.349 . S
C2333 C2331 1.327 . S
C2333 C2349 1.429 . S
C2333 H2355 0.950 . S
C2334 H2330 0.949 . S
C2334 C2342 1.574 . S
C2334 C2350 1.368 . S
H2335 C2343 0.950 . S
H2336 C2341 0.950 . S
H2337 C2342 0.949 . S
H2338 C2344 0.950 . S
H2339 C2345 0.950 . S
H2340 C2346 0.949 . S
C2341 H2336 0.950 . S
C2341 C2343 1.327 . S
C2341 C2347 1.429 . S
C2342 C2334 1.574 . S
C2342 H2337 0.949 . S
C2342 C2348 1.368 1_545 S
C2343 C2327 1.349 . S
C2343 H2335 0.950 . S
C2343 C2341 1.327 . S
C2344 C2332 1.349 . S
C2344 H2338 0.950 . S
C2344 C2345 1.327 . S
C2345 H2339 0.950 . S
C2345 C2344 1.327 . S
C2345 C2349 1.429 . S
C2346 C2329 1.574 . S
C2346 H2340 0.949 . S
C2346 C2350 1.368 1_565 S
C2347 C2328 1.429 . S
C2347 C2341 1.429 . S
C2347 C2348 1.523 . S
C2348 C2329 1.368 . S
C2348 C2342 1.368 1_565 S
C2348 C2347 1.523 . S
C2349 C2333 1.429 . S
C2349 C2345 1.429 . S
C2349 C2350 1.523 . S
C2350 C2334 1.368 . S
C2350 C2346 1.368 1_545 S
C2350 C2349 1.523 . S
H2351 C2326 0.950 . S
H2352 C2328 0.950 . S
H2353 C2329 0.949 . S
H2354 C2331 0.950 . S
H2355 C2333 0.950 . S
C2356 C2357 1.349 . S
C2356 C2358 1.327 . S
C2356 H2381 0.950 . S
C2357 C2356 1.349 . S
C2357 C2373 1.349 1_556 S
C2358 C2356 1.327 . S
C2358 C2377 1.429 . S
C2358 H2382 0.950 . S
C2359 C2376 1.574 . S
C2359 C2378 1.330 1_554 S
C2359 H2383 0.949 . S
H2360 C2364 0.949 . S
C2361 C2362 1.349 . S
C2361 C2363 1.327 . S
C2361 H2384 0.950 . S
C2362 C2361 1.349 . S
C2362 C2374 1.349 1_554 S
C2363 C2361 1.327 . S
C2363 C2379 1.429 . S
C2363 H2385 0.950 . S
C2364 H2360 0.949 . S
C2364 C2372 1.574 . S
C2364 C2380 1.330 1_556 S
H2365 C2373 0.950 . S
H2366 C2371 0.950 . S
H2367 C2372 0.949 . S
H2368 C2374 0.950 . S
H2369 C2375 0.950 . S
H2370 C2376 0.949 . S
C2371 H2366 0.950 . S
C2371 C2373 1.327 . S
C2371 C2377 1.429 1_554 S
C2372 C2364 1.574 . S
C2372 H2367 0.949 . S
C2372 C2378 1.405 . S
C2373 C2357 1.349 1_554 S
C2373 H2365 0.950 . S
C2373 C2371 1.327 . S
C2374 C2362 1.349 1_556 S
C2374 H2368 0.950 . S
C2374 C2375 1.327 . S
C2375 H2369 0.950 . S
C2375 C2374 1.327 . S
C2375 C2379 1.429 1_556 S
C2376 C2359 1.574 . S
C2376 H2370 0.949 . S
C2376 C2380 1.405 . S
C2377 C2358 1.429 . S
C2377 C2371 1.429 1_556 S
C2377 C2378 1.526 . S
C2378 C2359 1.330 1_556 S
C2378 C2372 1.405 . S
C2378 C2377 1.526 . S
C2379 C2363 1.429 . S
C2379 C2375 1.429 1_554 S
C2379 C2380 1.526 . S
C2380 C2364 1.330 1_554 S
C2380 C2376 1.405 . S
C2380 C2379 1.526 . S
H2381 C2356 0.950 . S
H2382 C2358 0.950 . S
H2383 C2359 0.949 . S
H2384 C2361 0.950 . S
H2385 C2363 0.950 . S
C2386 C2387 1.349 . S
C2386 C2388 1.327 . S
C2386 H2411 0.950 . S
C2387 C2386 1.349 . S
C2387 C2403 1.349 . S
C2388 C2386 1.327 . S
C2388 C2407 1.429 . S
C2388 H2412 0.950 . S
C2389 C2406 1.574 . S
C2389 C2408 1.368 . S
C2389 H2413 0.949 . S
H2390 C2394 0.949 . S
C2391 C2392 1.349 . S
C2391 C2393 1.327 . S
C2391 H2414 0.950 . S
C2392 C2391 1.349 . S
C2392 C2404 1.349 . S
C2393 C2391 1.327 . S
C2393 C2409 1.429 . S
C2393 H2415 0.950 . S
C2394 H2390 0.949 . S
C2394 C2402 1.574 . S
C2394 C2410 1.368 . S
H2395 C2403 0.950 . S
H2396 C2401 0.950 . S
H2397 C2402 0.949 . S
H2398 C2404 0.950 . S
H2399 C2405 0.950 . S
H2400 C2406 0.949 . S
C2401 H2396 0.950 . S
C2401 C2403 1.327 . S
C2401 C2407 1.429 . S
C2402 C2394 1.574 . S
C2402 H2397 0.949 . S
C2402 C2408 1.368 . S
C2403 C2387 1.349 . S
C2403 H2395 0.950 . S
C2403 C2401 1.327 . S
C2404 C2392 1.349 . S
C2404 H2398 0.950 . S
C2404 C2405 1.327 . S
C2405 H2399 0.950 . S
C2405 C2404 1.327 . S
C2405 C2409 1.429 . S
C2406 C2389 1.574 . S
C2406 H2400 0.949 . S
C2406 C2410 1.368 . S
C2407 C2388 1.429 . S
C2407 C2401 1.429 . S
C2407 C2408 1.523 . S
C2408 C2389 1.368 . S
C2408 C2402 1.368 . S
C2408 C2407 1.523 . S
C2409 C2393 1.429 . S
C2409 C2405 1.429 . S
C2409 C2410 1.523 . S
C2410 C2394 1.368 . S
C2410 C2406 1.368 . S
C2410 C2409 1.523 . S
H2411 C2386 0.950 . S
H2412 C2388 0.950 . S
H2413 C2389 0.949 . S
H2414 C2391 0.950 . S
H2415 C2393 0.950 . S
C2416 C2417 1.349 . S
C2416 C2418 1.327 . S
C2416 H2441 0.950 . S
C2417 C2416 1.349 . S
C2417 C2433 1.349 . S
C2418 C2416 1.327 . S
C2418 C2437 1.429 . S
C2418 H2442 0.950 . S
C2419 C2436 1.574 1_655 S
C2419 C2438 1.368 . S
C2419 H2443 0.949 . S
H2420 C2424 0.949 . S
C2421 C2422 1.349 . S
C2421 C2423 1.327 . S
C2421 H2444 0.950 . S
C2422 C2421 1.349 . S
C2422 C2434 1.349 . S
C2423 C2421 1.327 . S
C2423 C2439 1.429 . S
C2423 H2445 0.950 . S
C2424 H2420 0.949 . S
C2424 C2432 1.574 1_455 S
C2424 C2440 1.368 . S
H2425 C2433 0.950 . S
H2426 C2431 0.950 . S
H2427 C2432 0.949 . S
H2428 C2434 0.950 . S
H2429 C2435 0.950 . S
H2430 C2436 0.949 . S
C2431 H2426 0.950 . S
C2431 C2433 1.327 . S
C2431 C2437 1.429 . S
C2432 C2424 1.574 1_655 S
C2432 H2427 0.949 . S
C2432 C2438 1.368 . S
C2433 C2417 1.349 . S
C2433 H2425 0.950 . S
C2433 C2431 1.327 . S
C2434 C2422 1.349 . S
C2434 H2428 0.950 . S
C2434 C2435 1.327 . S
C2435 H2429 0.950 . S
C2435 C2434 1.327 . S
C2435 C2439 1.429 . S
C2436 C2419 1.574 1_455 S
C2436 H2430 0.949 . S
C2436 C2440 1.368 . S
C2437 C2418 1.429 . S
C2437 C2431 1.429 . S
C2437 C2438 1.523 . S
C2438 C2419 1.368 . S
C2438 C2432 1.368 . S
C2438 C2437 1.523 . S
C2439 C2423 1.429 . S
C2439 C2435 1.429 . S
C2439 C2440 1.523 . S
C2440 C2424 1.368 . S
C2440 C2436 1.368 . S
C2440 C2439 1.523 . S
H2441 C2416 0.950 . S
H2442 C2418 0.950 . S
H2443 C2419 0.949 . S
H2444 C2421 0.950 . S
H2445 C2423 0.950 . S
C2446 C2447 1.349 . S
C2446 C2448 1.327 . S
C2446 H2471 0.950 . S
C2447 C2446 1.349 . S
C2447 C2463 1.349 . S
C2448 C2446 1.327 . S
C2448 C2467 1.429 . S
C2448 H2472 0.950 . S
C2449 C2466 1.574 . S
C2449 C2468 1.368 . S
C2449 H2473 0.949 . S
H2450 C2454 0.949 . S
C2451 C2452 1.349 . S
C2451 C2453 1.327 . S
C2451 H2474 0.950 . S
C2452 C2451 1.349 . S
C2452 C2464 1.349 . S
C2453 C2451 1.327 . S
C2453 C2469 1.429 . S
C2453 H2475 0.950 . S
C2454 H2450 0.949 . S
C2454 C2462 1.574 . S
C2454 C2470 1.368 . S
H2455 C2463 0.950 . S
H2456 C2461 0.950 . S
H2457 C2462 0.949 . S
H2458 C2464 0.950 . S
H2459 C2465 0.950 . S
H2460 C2466 0.949 . S
C2461 H2456 0.950 . S
C2461 C2463 1.327 . S
C2461 C2467 1.429 . S
C2462 C2454 1.574 . S
C2462 H2457 0.949 . S
C2462 C2468 1.368 . S
C2463 C2447 1.349 . S
C2463 H2455 0.950 . S
C2463 C2461 1.327 . S
C2464 C2452 1.349 . S
C2464 H2458 0.950 . S
C2464 C2465 1.327 . S
C2465 H2459 0.950 . S
C2465 C2464 1.327 . S
C2465 C2469 1.429 . S
C2466 C2449 1.574 . S
C2466 H2460 0.949 . S
C2466 C2470 1.368 . S
C2467 C2448 1.429 . S
C2467 C2461 1.429 . S
C2467 C2468 1.523 . S
C2468 C2449 1.368 . S
C2468 C2462 1.368 . S
C2468 C2467 1.523 . S
C2469 C2453 1.429 . S
C2469 C2465 1.429 . S
C2469 C2470 1.523 . S
C2470 C2454 1.368 . S
C2470 C2466 1.368 . S
C2470 C2469 1.523 . S
H2471 C2446 0.950 . S
H2472 C2448 0.950 . S
H2473 C2449 0.949 . S
H2474 C2451 0.950 . S
H2475 C2453 0.950 . S
C2476 C2477 1.349 . S
C2476 C2478 1.327 . S
C2476 H2501 0.950 . S
C2477 C2476 1.349 . S
C2477 C2493 1.349 . S
C2478 C2476 1.327 . S
C2478 C2497 1.429 . S
C2478 H2502 0.950 . S
C2479 C2496 1.574 . S
C2479 C2498 1.368 . S
C2479 H2503 0.949 . S
H2480 C2484 0.949 . S
C2481 C2482 1.349 . S
C2481 C2483 1.327 . S
C2481 H2504 0.950 . S
C2482 C2481 1.349 . S
C2482 C2494 1.349 . S
C2483 C2481 1.327 . S
C2483 C2499 1.429 . S
C2483 H2505 0.950 . S
C2484 H2480 0.949 . S
C2484 C2492 1.574 . S
C2484 C2500 1.368 . S
H2485 C2493 0.950 . S
H2486 C2491 0.950 . S
H2487 C2492 0.949 . S
H2488 C2494 0.950 . S
H2489 C2495 0.950 . S
H2490 C2496 0.949 . S
C2491 H2486 0.950 . S
C2491 C2493 1.327 . S
C2491 C2497 1.429 . S
C2492 C2484 1.574 . S
C2492 H2487 0.949 . S
C2492 C2498 1.368 . S
C2493 C2477 1.349 . S
C2493 H2485 0.950 . S
C2493 C2491 1.327 . S
C2494 C2482 1.349 . S
C2494 H2488 0.950 . S
C2494 C2495 1.327 . S
C2495 H2489 0.950 . S
C2495 C2494 1.327 . S
C2495 C2499 1.429 . S
C2496 C2479 1.574 . S
C2496 H2490 0.949 . S
C2496 C2500 1.368 . S
C2497 C2478 1.429 . S
C2497 C2491 1.429 . S
C2497 C2498 1.523 . S
C2498 C2479 1.368 . S
C2498 C2492 1.368 . S
C2498 C2497 1.523 . S
C2499 C2483 1.429 . S
C2499 C2495 1.429 . S
C2499 C2500 1.523 . S
C2500 C2484 1.368 . S
C2500 C2496 1.368 . S
C2500 C2499 1.523 . S
H2501 C2476 0.950 . S
H2502 C2478 0.950 . S
H2503 C2479 0.949 . S
H2504 C2481 0.950 . S
H2505 C2483 0.950 . S
C2506 C2507 1.349 . S
C2506 C2508 1.327 . S
C2506 H2531 0.950 . S
C2507 C2506 1.349 . S
C2507 C2523 1.349 . S
C2508 C2506 1.327 . S
C2508 C2527 1.429 . S
C2508 H2532 0.950 . S
C2509 C2526 1.574 . S
C2509 C2528 1.368 . S
C2509 H2533 0.949 . S
H2510 C2514 0.949 . S
C2511 C2512 1.349 . S
C2511 C2513 1.327 . S
C2511 H2534 0.950 . S
C2512 C2511 1.349 . S
C2512 C2524 1.349 . S
C2513 C2511 1.327 . S
C2513 C2529 1.429 . S
C2513 H2535 0.950 . S
C2514 H2510 0.949 . S
C2514 C2522 1.574 . S
C2514 C2530 1.368 . S
H2515 C2523 0.950 . S
H2516 C2521 0.950 . S
H2517 C2522 0.949 . S
H2518 C2524 0.950 . S
H2519 C2525 0.950 . S
H2520 C2526 0.949 . S
C2521 H2516 0.950 . S
C2521 C2523 1.327 . S
C2521 C2527 1.429 . S
C2522 C2514 1.574 . S
C2522 H2517 0.949 . S
C2522 C2528 1.368 . S
C2523 C2507 1.349 . S
C2523 H2515 0.950 . S
C2523 C2521 1.327 . S
C2524 C2512 1.349 . S
C2524 H2518 0.950 . S
C2524 C2525 1.327 . S
C2525 H2519 0.950 . S
C2525 C2524 1.327 . S
C2525 C2529 1.429 . S
C2526 C2509 1.574 . S
C2526 H2520 0.949 . S
C2526 C2530 1.368 . S
C2527 C2508 1.429 . S
C2527 C2521 1.429 . S
C2527 C2528 1.523 . S
C2528 C2509 1.368 . S
C2528 C2522 1.368 . S
C2528 C2527 1.523 . S
C2529 C2513 1.429 . S
C2529 C2525 1.429 . S
C2529 C2530 1.523 . S
C2530 C2514 1.368 . S
C2530 C2526 1.368 . S
C2530 C2529 1.523 . S
H2531 C2506 0.950 . S
H2532 C2508 0.950 . S
H2533 C2509 0.949 . S
H2534 C2511 0.950 . S
H2535 C2513 0.950 . S
C2536 C2537 1.349 . S
C2536 C2538 1.327 . S
C2536 H2561 0.950 . S
C2537 C2536 1.349 . S
C2537 C2553 1.349 . S
C2538 C2536 1.327 . S
C2538 C2557 1.429 . S
C2538 H2562 0.950 . S
C2539 C2556 1.574 . S
C2539 C2558 1.368 . S
C2539 H2563 0.949 . S
H2540 C2544 0.949 . S
C2541 C2542 1.349 . S
C2541 C2543 1.327 . S
C2541 H2564 0.950 . S
C2542 C2541 1.349 . S
C2542 C2554 1.349 . S
C2543 C2541 1.327 . S
C2543 C2559 1.429 . S
C2543 H2565 0.950 . S
C2544 H2540 0.949 . S
C2544 C2552 1.574 . S
C2544 C2560 1.368 . S
H2545 C2553 0.950 . S
H2546 C2551 0.950 . S
H2547 C2552 0.949 . S
H2548 C2554 0.950 . S
H2549 C2555 0.950 . S
H2550 C2556 0.949 . S
C2551 H2546 0.950 . S
C2551 C2553 1.327 . S
C2551 C2557 1.429 . S
C2552 C2544 1.574 . S
C2552 H2547 0.949 . S
C2552 C2558 1.368 . S
C2553 C2537 1.349 . S
C2553 H2545 0.950 . S
C2553 C2551 1.327 . S
C2554 C2542 1.349 . S
C2554 H2548 0.950 . S
C2554 C2555 1.327 . S
C2555 H2549 0.950 . S
C2555 C2554 1.327 . S
C2555 C2559 1.429 . S
C2556 C2539 1.574 . S
C2556 H2550 0.949 . S
C2556 C2560 1.368 . S
C2557 C2538 1.429 . S
C2557 C2551 1.429 . S
C2557 C2558 1.523 . S
C2558 C2539 1.368 . S
C2558 C2552 1.368 . S
C2558 C2557 1.523 . S
C2559 C2543 1.429 . S
C2559 C2555 1.429 . S
C2559 C2560 1.523 . S
C2560 C2544 1.368 . S
C2560 C2556 1.368 . S
C2560 C2559 1.523 . S
H2561 C2536 0.950 . S
H2562 C2538 0.950 . S
H2563 C2539 0.949 . S
H2564 C2541 0.950 . S
H2565 C2543 0.950 . S
C2566 C2567 1.349 . S
C2566 C2568 1.327 . S
C2566 H2591 0.950 . S
C2567 C2566 1.349 . S
C2567 C2583 1.349 . S
C2568 C2566 1.327 . S
C2568 C2587 1.429 . S
C2568 H2592 0.950 . S
C2569 C2586 1.574 . S
C2569 C2588 1.368 1_565 S
C2569 H2593 0.949 . S
H2570 C2574 0.949 . S
C2571 C2572 1.349 . S
C2571 C2573 1.327 . S
C2571 H2594 0.950 . S
C2572 C2571 1.349 . S
C2572 C2584 1.349 . S
C2573 C2571 1.327 . S
C2573 C2589 1.429 . S
C2573 H2595 0.950 . S
C2574 H2570 0.949 . S
C2574 C2582 1.574 . S
C2574 C2590 1.368 1_545 S
H2575 C2583 0.950 . S
H2576 C2581 0.950 . S
H2577 C2582 0.949 . S
H2578 C2584 0.950 . S
H2579 C2585 0.950 . S
H2580 C2586 0.949 . S
C2581 H2576 0.950 . S
C2581 C2583 1.327 . S
C2581 C2587 1.429 . S
C2582 C2574 1.574 . S
C2582 H2577 0.949 . S
C2582 C2588 1.368 . S
C2583 C2567 1.349 . S
C2583 H2575 0.950 . S
C2583 C2581 1.327 . S
C2584 C2572 1.349 . S
C2584 H2578 0.950 . S
C2584 C2585 1.327 . S
C2585 H2579 0.950 . S
C2585 C2584 1.327 . S
C2585 C2589 1.429 . S
C2586 C2569 1.574 . S
C2586 H2580 0.949 . S
C2586 C2590 1.368 . S
C2587 C2568 1.429 . S
C2587 C2581 1.429 . S
C2587 C2588 1.523 . S
C2588 C2569 1.368 1_545 S
C2588 C2582 1.368 . S
C2588 C2587 1.523 . S
C2589 C2573 1.429 . S
C2589 C2585 1.429 . S
C2589 C2590 1.523 . S
C2590 C2574 1.368 1_565 S
C2590 C2586 1.368 . S
C2590 C2589 1.523 . S
H2591 C2566 0.950 . S
H2592 C2568 0.950 . S
H2593 C2569 0.949 . S
H2594 C2571 0.950 . S
H2595 C2573 0.950 . S
C2596 C2597 1.349 . S
C2596 C2598 1.327 . S
C2596 H2621 0.950 . S
C2597 C2596 1.349 . S
C2597 C2613 1.349 . S
C2598 C2596 1.327 . S
C2598 C2617 1.429 . S
C2598 H2622 0.950 . S
C2599 C2616 1.574 . S
C2599 C2618 1.368 . S
C2599 H2623 0.949 . S
H2600 C2604 0.949 . S
C2601 C2602 1.349 . S
C2601 C2603 1.327 . S
C2601 H2624 0.950 . S
C2602 C2601 1.349 . S
C2602 C2614 1.349 . S
C2603 C2601 1.327 . S
C2603 C2619 1.429 . S
C2603 H2625 0.950 . S
C2604 H2600 0.949 . S
C2604 C2612 1.574 . S
C2604 C2620 1.368 . S
H2605 C2613 0.950 . S
H2606 C2611 0.950 . S
H2607 C2612 0.949 . S
H2608 C2614 0.950 . S
H2609 C2615 0.950 . S
H2610 C2616 0.949 . S
C2611 H2606 0.950 . S
C2611 C2613 1.327 . S
C2611 C2617 1.429 . S
C2612 C2604 1.574 . S
C2612 H2607 0.949 . S
C2612 C2618 1.368 . S
C2613 C2597 1.349 . S
C2613 H2605 0.950 . S
C2613 C2611 1.327 . S
C2614 C2602 1.349 . S
C2614 H2608 0.950 . S
C2614 C2615 1.327 . S
C2615 H2609 0.950 . S
C2615 C2614 1.327 . S
C2615 C2619 1.429 . S
C2616 C2599 1.574 . S
C2616 H2610 0.949 . S
C2616 C2620 1.368 . S
C2617 C2598 1.429 . S
C2617 C2611 1.429 . S
C2617 C2618 1.523 . S
C2618 C2599 1.368 . S
C2618 C2612 1.368 . S
C2618 C2617 1.523 . S
C2619 C2603 1.429 . S
C2619 C2615 1.429 . S
C2619 C2620 1.523 . S
C2620 C2604 1.368 . S
C2620 C2616 1.368 . S
C2620 C2619 1.523 . S
H2621 C2596 0.950 . S
H2622 C2598 0.950 . S
H2623 C2599 0.949 . S
H2624 C2601 0.950 . S
H2625 C2603 0.950 . S
C2626 C2627 1.349 . S
C2626 C2628 1.327 . S
C2626 H2651 0.950 . S
C2627 C2626 1.349 . S
C2627 C2643 1.349 1_556 S
C2628 C2626 1.327 . S
C2628 C2647 1.429 . S
C2628 H2652 0.950 . S
C2629 C2646 1.574 . S
C2629 C2648 1.328 1_554 S
C2629 H2653 0.949 . S
H2630 C2634 0.949 . S
C2631 C2632 1.349 . S
C2631 C2633 1.327 . S
C2631 H2654 0.950 . S
C2632 C2631 1.349 . S
C2632 C2644 1.349 1_554 S
C2633 C2631 1.327 . S
C2633 C2649 1.429 . S
C2633 H2655 0.950 . S
C2634 H2630 0.949 . S
C2634 C2642 1.574 . S
C2634 C2650 1.328 1_556 S
H2635 C2643 0.950 . S
H2636 C2641 0.950 . S
H2637 C2642 0.949 . S
H2638 C2644 0.950 . S
H2639 C2645 0.950 . S
H2640 C2646 0.949 . S
C2641 H2636 0.950 . S
C2641 C2643 1.327 . S
C2641 C2647 1.429 1_554 S
C2642 C2634 1.574 . S
C2642 H2637 0.949 . S
C2642 C2648 1.408 . S
C2643 C2627 1.349 1_554 S
C2643 H2635 0.950 . S
C2643 C2641 1.327 . S
C2644 C2632 1.349 1_556 S
C2644 H2638 0.950 . S
C2644 C2645 1.327 . S
C2645 H2639 0.950 . S
C2645 C2644 1.327 . S
C2645 C2649 1.429 1_556 S
C2646 C2629 1.574 . S
C2646 H2640 0.949 . S
C2646 C2650 1.408 . S
C2647 C2628 1.429 . S
C2647 C2641 1.429 1_556 S
C2647 C2648 1.526 . S
C2648 C2629 1.328 1_556 S
C2648 C2642 1.408 . S
C2648 C2647 1.526 . S
C2649 C2633 1.429 . S
C2649 C2645 1.429 1_554 S
C2649 C2650 1.526 . S
C2650 C2634 1.328 1_554 S
C2650 C2646 1.408 . S
C2650 C2649 1.526 . S
H2651 C2626 0.950 . S
H2652 C2628 0.950 . S
H2653 C2629 0.949 . S
H2654 C2631 0.950 . S
H2655 C2633 0.950 . S
C2656 C2657 1.349 . S
C2656 C2658 1.327 . S
C2656 H2681 0.950 . S
C2657 C2656 1.349 . S
C2657 C2673 1.349 . S
C2658 C2656 1.327 . S
C2658 C2677 1.429 . S
C2658 H2682 0.950 . S
C2659 C2676 1.574 . S
C2659 C2678 1.368 . S
C2659 H2683 0.949 . S
H2660 C2664 0.949 . S
C2661 C2662 1.349 . S
C2661 C2663 1.327 . S
C2661 H2684 0.950 . S
C2662 C2661 1.349 . S
C2662 C2674 1.349 . S
C2663 C2661 1.327 . S
C2663 C2679 1.429 . S
C2663 H2685 0.950 . S
C2664 H2660 0.949 . S
C2664 C2672 1.574 . S
C2664 C2680 1.368 . S
H2665 C2673 0.950 . S
H2666 C2671 0.950 . S
H2667 C2672 0.949 . S
H2668 C2674 0.950 . S
H2669 C2675 0.950 . S
H2670 C2676 0.949 . S
C2671 H2666 0.950 . S
C2671 C2673 1.327 . S
C2671 C2677 1.429 . S
C2672 C2664 1.574 . S
C2672 H2667 0.949 . S
C2672 C2678 1.368 . S
C2673 C2657 1.349 . S
C2673 H2665 0.950 . S
C2673 C2671 1.327 . S
C2674 C2662 1.349 . S
C2674 H2668 0.950 . S
C2674 C2675 1.327 . S
C2675 H2669 0.950 . S
C2675 C2674 1.327 . S
C2675 C2679 1.429 . S
C2676 C2659 1.574 . S
C2676 H2670 0.949 . S
C2676 C2680 1.368 . S
C2677 C2658 1.429 . S
C2677 C2671 1.429 . S
C2677 C2678 1.523 . S
C2678 C2659 1.368 . S
C2678 C2672 1.368 . S
C2678 C2677 1.523 . S
C2679 C2663 1.429 . S
C2679 C2675 1.429 . S
C2679 C2680 1.523 . S
C2680 C2664 1.368 . S
C2680 C2676 1.368 . S
C2680 C2679 1.523 . S
H2681 C2656 0.950 . S
H2682 C2658 0.950 . S
H2683 C2659 0.949 . S
H2684 C2661 0.950 . S
H2685 C2663 0.950 . S
C2686 C2687 1.349 . S
C2686 C2688 1.327 . S
C2686 H2711 0.950 . S
C2687 C2686 1.349 . S
C2687 C2703 1.349 . S
C2688 C2686 1.327 . S
C2688 C2707 1.429 . S
C2688 H2712 0.950 . S
C2689 C2706 1.574 . S
C2689 C2708 1.368 . S
C2689 H2713 0.949 . S
H2690 C2694 0.949 . S
C2691 C2692 1.349 . S
C2691 C2693 1.327 . S
C2691 H2714 0.950 . S
C2692 C2691 1.349 . S
C2692 C2704 1.349 . S
C2693 C2691 1.327 . S
C2693 C2709 1.429 . S
C2693 H2715 0.950 . S
C2694 H2690 0.949 . S
C2694 C2702 1.574 . S
C2694 C2710 1.368 . S
H2695 C2703 0.950 . S
H2696 C2701 0.950 . S
H2697 C2702 0.949 . S
H2698 C2704 0.950 . S
H2699 C2705 0.950 . S
H2700 C2706 0.949 . S
C2701 H2696 0.950 . S
C2701 C2703 1.327 . S
C2701 C2707 1.429 . S
C2702 C2694 1.574 . S
C2702 H2697 0.949 . S
C2702 C2708 1.368 . S
C2703 C2687 1.349 . S
C2703 H2695 0.950 . S
C2703 C2701 1.327 . S
C2704 C2692 1.349 . S
C2704 H2698 0.950 . S
C2704 C2705 1.327 . S
C2705 H2699 0.950 . S
C2705 C2704 1.327 . S
C2705 C2709 1.429 . S
C2706 C2689 1.574 . S
C2706 H2700 0.949 . S
C2706 C2710 1.368 . S
C2707 C2688 1.429 . S
C2707 C2701 1.429 . S
C2707 C2708 1.523 . S
C2708 C2689 1.368 . S
C2708 C2702 1.368 . S
C2708 C2707 1.523 . S
C2709 C2693 1.429 . S
C2709 C2705 1.429 . S
C2709 C2710 1.523 . S
C2710 C2694 1.368 . S
C2710 C2706 1.368 . S
C2710 C2709 1.523 . S
H2711 C2686 0.950 . S
H2712 C2688 0.950 . S
H2713 C2689 0.949 . S
H2714 C2691 0.950 . S
H2715 C2693 0.950 . S
C2716 C2717 1.349 . S
C2716 C2718 1.327 . S
C2716 H2741 0.950 . S
C2717 C2716 1.349 . S
C2717 C2733 1.349 . S
C2718 C2716 1.327 . S
C2718 C2737 1.429 . S
C2718 H2742 0.950 . S
C2719 C2736 1.574 . S
C2719 C2738 1.368 . S
C2719 H2743 0.949 . S
H2720 C2724 0.949 . S
C2721 C2722 1.349 . S
C2721 C2723 1.327 . S
C2721 H2744 0.950 . S
C2722 C2721 1.349 . S
C2722 C2734 1.349 . S
C2723 C2721 1.327 . S
C2723 C2739 1.429 . S
C2723 H2745 0.950 . S
C2724 H2720 0.949 . S
C2724 C2732 1.574 . S
C2724 C2740 1.368 . S
H2725 C2733 0.950 . S
H2726 C2731 0.950 . S
H2727 C2732 0.949 . S
H2728 C2734 0.950 . S
H2729 C2735 0.950 . S
H2730 C2736 0.949 . S
C2731 H2726 0.950 . S
C2731 C2733 1.327 . S
C2731 C2737 1.429 . S
C2732 C2724 1.574 . S
C2732 H2727 0.949 . S
C2732 C2738 1.368 . S
C2733 C2717 1.349 . S
C2733 H2725 0.950 . S
C2733 C2731 1.327 . S
C2734 C2722 1.349 . S
C2734 H2728 0.950 . S
C2734 C2735 1.327 . S
C2735 H2729 0.950 . S
C2735 C2734 1.327 . S
C2735 C2739 1.429 . S
C2736 C2719 1.574 . S
C2736 H2730 0.949 . S
C2736 C2740 1.368 . S
C2737 C2718 1.429 . S
C2737 C2731 1.429 . S
C2737 C2738 1.523 . S
C2738 C2719 1.368 . S
C2738 C2732 1.368 . S
C2738 C2737 1.523 . S
C2739 C2723 1.429 . S
C2739 C2735 1.429 . S
C2739 C2740 1.523 . S
C2740 C2724 1.368 . S
C2740 C2736 1.368 . S
C2740 C2739 1.523 . S
H2741 C2716 0.950 . S
H2742 C2718 0.950 . S
H2743 C2719 0.949 . S
H2744 C2721 0.950 . S
H2745 C2723 0.950 . S
C2746 C2747 1.349 . S
C2746 C2748 1.327 . S
C2746 H2771 0.950 . S
C2747 C2746 1.349 . S
C2747 C2763 1.349 . S
C2748 C2746 1.327 . S
C2748 C2767 1.429 . S
C2748 H2772 0.950 . S
C2749 C2766 1.574 . S
C2749 C2768 1.368 . S
C2749 H2773 0.949 . S
H2750 C2754 0.949 . S
C2751 C2752 1.349 . S
C2751 C2753 1.327 . S
C2751 H2774 0.950 . S
C2752 C2751 1.349 . S
C2752 C2764 1.349 . S
C2753 C2751 1.327 . S
C2753 C2769 1.429 . S
C2753 H2775 0.950 . S
C2754 H2750 0.949 . S
C2754 C2762 1.574 . S
C2754 C2770 1.368 . S
H2755 C2763 0.950 . S
H2756 C2761 0.950 . S
H2757 C2762 0.949 . S
H2758 C2764 0.950 . S
H2759 C2765 0.950 . S
H2760 C2766 0.949 . S
C2761 H2756 0.950 . S
C2761 C2763 1.327 . S
C2761 C2767 1.429 . S
C2762 C2754 1.574 . S
C2762 H2757 0.949 . S
C2762 C2768 1.368 . S
C2763 C2747 1.349 . S
C2763 H2755 0.950 . S
C2763 C2761 1.327 . S
C2764 C2752 1.349 . S
C2764 H2758 0.950 . S
C2764 C2765 1.327 . S
C2765 H2759 0.950 . S
C2765 C2764 1.327 . S
C2765 C2769 1.429 . S
C2766 C2749 1.574 . S
C2766 H2760 0.949 . S
C2766 C2770 1.368 . S
C2767 C2748 1.429 . S
C2767 C2761 1.429 . S
C2767 C2768 1.523 . S
C2768 C2749 1.368 . S
C2768 C2762 1.368 . S
C2768 C2767 1.523 . S
C2769 C2753 1.429 . S
C2769 C2765 1.429 . S
C2769 C2770 1.523 . S
C2770 C2754 1.368 . S
C2770 C2766 1.368 . S
C2770 C2769 1.523 . S
H2771 C2746 0.950 . S
H2772 C2748 0.950 . S
H2773 C2749 0.949 . S
H2774 C2751 0.950 . S
H2775 C2753 0.950 . S
C2776 C2777 1.349 . S
C2776 C2778 1.327 . S
C2776 H2801 0.950 . S
C2777 C2776 1.349 . S
C2777 C2793 1.349 . S
C2778 C2776 1.327 . S
C2778 C2797 1.429 . S
C2778 H2802 0.950 . S
C2779 C2796 1.574 . S
C2779 C2798 1.368 . S
C2779 H2803 0.949 . S
H2780 C2784 0.949 . S
C2781 C2782 1.349 . S
C2781 C2783 1.327 . S
C2781 H2804 0.950 . S
C2782 C2781 1.349 . S
C2782 C2794 1.349 . S
C2783 C2781 1.327 . S
C2783 C2799 1.429 . S
C2783 H2805 0.950 . S
C2784 H2780 0.949 . S
C2784 C2792 1.574 . S
C2784 C2800 1.368 . S
H2785 C2793 0.950 . S
H2786 C2791 0.950 . S
H2787 C2792 0.949 . S
H2788 C2794 0.950 . S
H2789 C2795 0.950 . S
H2790 C2796 0.949 . S
C2791 H2786 0.950 . S
C2791 C2793 1.327 . S
C2791 C2797 1.429 . S
C2792 C2784 1.574 . S
C2792 H2787 0.949 . S
C2792 C2798 1.368 . S
C2793 C2777 1.349 . S
C2793 H2785 0.950 . S
C2793 C2791 1.327 . S
C2794 C2782 1.349 . S
C2794 H2788 0.950 . S
C2794 C2795 1.327 . S
C2795 H2789 0.950 . S
C2795 C2794 1.327 . S
C2795 C2799 1.429 . S
C2796 C2779 1.574 . S
C2796 H2790 0.949 . S
C2796 C2800 1.368 . S
C2797 C2778 1.429 . S
C2797 C2791 1.429 . S
C2797 C2798 1.523 . S
C2798 C2779 1.368 . S
C2798 C2792 1.368 . S
C2798 C2797 1.523 . S
C2799 C2783 1.429 . S
C2799 C2795 1.429 . S
C2799 C2800 1.523 . S
C2800 C2784 1.368 . S
C2800 C2796 1.368 . S
C2800 C2799 1.523 . S
H2801 C2776 0.950 . S
H2802 C2778 0.950 . S
H2803 C2779 0.949 . S
H2804 C2781 0.950 . S
H2805 C2783 0.950 . S
C2806 C2807 1.349 . S
C2806 C2808 1.327 . S
C2806 H2831 0.950 . S
C2807 C2806 1.349 . S
C2807 C2823 1.349 . S
C2808 C2806 1.327 . S
C2808 C2827 1.429 . S
C2808 H2832 0.950 . S
C2809 C2826 1.574 . S
C2809 C2828 1.368 . S
C2809 H2833 0.949 . S
H2810 C2814 0.949 . S
C2811 C2812 1.349 . S
C2811 C2813 1.327 . S
C2811 H2834 0.950 . S
C2812 C2811 1.349 . S
C2812 C2824 1.349 . S
C2813 C2811 1.327 . S
C2813 C2829 1.429 . S
C2813 H2835 0.950 . S
C2814 H2810 0.949 . S
C2814 C2822 1.574 . S
C2814 C2830 1.368 . S
H2815 C2823 0.950 . S
H2816 C2821 0.950 . S
H2817 C2822 0.949 . S
H2818 C2824 0.950 . S
H2819 C2825 0.950 . S
H2820 C2826 0.949 . S
C2821 H2816 0.950 . S
C2821 C2823 1.327 . S
C2821 C2827 1.429 . S
C2822 C2814 1.574 . S
C2822 H2817 0.949 . S
C2822 C2828 1.368 . S
C2823 C2807 1.349 . S
C2823 H2815 0.950 . S
C2823 C2821 1.327 . S
C2824 C2812 1.349 . S
C2824 H2818 0.950 . S
C2824 C2825 1.327 . S
C2825 H2819 0.950 . S
C2825 C2824 1.327 . S
C2825 C2829 1.429 . S
C2826 C2809 1.574 . S
C2826 H2820 0.949 . S
C2826 C2830 1.368 . S
C2827 C2808 1.429 . S
C2827 C2821 1.429 . S
C2827 C2828 1.523 . S
C2828 C2809 1.368 . S
C2828 C2822 1.368 . S
C2828 C2827 1.523 . S
C2829 C2813 1.429 . S
C2829 C2825 1.429 . S
C2829 C2830 1.523 . S
C2830 C2814 1.368 . S
C2830 C2826 1.368 . S
C2830 C2829 1.523 . S
H2831 C2806 0.950 . S
H2832 C2808 0.950 . S
H2833 C2809 0.949 . S
H2834 C2811 0.950 . S
H2835 C2813 0.950 . S
C2836 C2837 1.349 . S
C2836 C2838 1.327 . S
C2836 H2861 0.950 . S
C2837 C2836 1.349 . S
C2837 C2853 1.349 . S
C2838 C2836 1.327 . S
C2838 C2857 1.429 . S
C2838 H2862 0.950 . S
C2839 C2856 1.574 . S
C2839 C2858 1.368 . S
C2839 H2863 0.949 . S
H2840 C2844 0.949 . S
C2841 C2842 1.349 . S
C2841 C2843 1.327 . S
C2841 H2864 0.950 . S
C2842 C2841 1.349 . S
C2842 C2854 1.349 . S
C2843 C2841 1.327 . S
C2843 C2859 1.429 . S
C2843 H2865 0.950 . S
C2844 H2840 0.949 . S
C2844 C2852 1.574 . S
C2844 C2860 1.368 . S
H2845 C2853 0.950 . S
H2846 C2851 0.950 . S
H2847 C2852 0.949 . S
H2848 C2854 0.950 . S
H2849 C2855 0.950 . S
H2850 C2856 0.949 . S
C2851 H2846 0.950 . S
C2851 C2853 1.327 . S
C2851 C2857 1.429 . S
C2852 C2844 1.574 . S
C2852 H2847 0.949 . S
C2852 C2858 1.368 . S
C2853 C2837 1.349 . S
C2853 H2845 0.950 . S
C2853 C2851 1.327 . S
C2854 C2842 1.349 . S
C2854 H2848 0.950 . S
C2854 C2855 1.327 . S
C2855 H2849 0.950 . S
C2855 C2854 1.327 . S
C2855 C2859 1.429 . S
C2856 C2839 1.574 . S
C2856 H2850 0.949 . S
C2856 C2860 1.368 . S
C2857 C2838 1.429 . S
C2857 C2851 1.429 . S
C2857 C2858 1.523 . S
C2858 C2839 1.368 . S
C2858 C2852 1.368 . S
C2858 C2857 1.523 . S
C2859 C2843 1.429 . S
C2859 C2855 1.429 . S
C2859 C2860 1.523 . S
C2860 C2844 1.368 . S
C2860 C2856 1.368 . S
C2860 C2859 1.523 . S
H2861 C2836 0.950 . S
H2862 C2838 0.950 . S
H2863 C2839 0.949 . S
H2864 C2841 0.950 . S
H2865 C2843 0.950 . S
C2866 C2867 1.349 . S
C2866 C2868 1.327 . S
C2866 H2891 0.950 . S
C2867 C2866 1.349 . S
C2867 C2883 1.349 . S
C2868 C2866 1.327 . S
C2868 C2887 1.429 . S
C2868 H2892 0.950 . S
C2869 C2886 1.574 . S
C2869 C2888 1.368 . S
C2869 H2893 0.949 . S
H2870 C2874 0.949 . S
C2871 C2872 1.349 . S
C2871 C2873 1.327 . S
C2871 H2894 0.950 . S
C2872 C2871 1.349 . S
C2872 C2884 1.349 . S
C2873 C2871 1.327 . S
C2873 C2889 1.429 . S
C2873 H2895 0.950 . S
C2874 H2870 0.949 . S
C2874 C2882 1.574 . S
C2874 C2890 1.368 . S
H2875 C2883 0.950 . S
H2876 C2881 0.950 . S
H2877 C2882 0.949 . S
H2878 C2884 0.950 . S
H2879 C2885 0.950 . S
H2880 C2886 0.949 . S
C2881 H2876 0.950 . S
C2881 C2883 1.327 . S
C2881 C2887 1.429 . S
C2882 C2874 1.574 . S
C2882 H2877 0.949 . S
C2882 C2888 1.368 . S
C2883 C2867 1.349 . S
C2883 H2875 0.950 . S
C2883 C2881 1.327 . S
C2884 C2872 1.349 . S
C2884 H2878 0.950 . S
C2884 C2885 1.327 . S
C2885 H2879 0.950 . S
C2885 C2884 1.327 . S
C2885 C2889 1.429 . S
C2886 C2869 1.574 . S
C2886 H2880 0.949 . S
C2886 C2890 1.368 . S
C2887 C2868 1.429 . S
C2887 C2881 1.429 . S
C2887 C2888 1.523 . S
C2888 C2869 1.368 . S
C2888 C2882 1.368 . S
C2888 C2887 1.523 . S
C2889 C2873 1.429 . S
C2889 C2885 1.429 . S
C2889 C2890 1.523 . S
C2890 C2874 1.368 . S
C2890 C2886 1.368 . S
C2890 C2889 1.523 . S
H2891 C2866 0.950 . S
H2892 C2868 0.950 . S
H2893 C2869 0.949 . S
H2894 C2871 0.950 . S
H2895 C2873 0.950 . S
C2896 C2897 1.349 . S
C2896 C2898 1.327 . S
C2896 H2921 0.950 . S
C2897 C2896 1.349 . S
C2897 C2913 1.349 . S
C2898 C2896 1.327 . S
C2898 C2917 1.429 . S
C2898 H2922 0.950 . S
C2899 C2916 1.574 . S
C2899 C2918 1.368 . S
C2899 H2923 0.949 . S
H2900 C2904 0.949 . S
C2901 C2902 1.349 . S
C2901 C2903 1.327 . S
C2901 H2924 0.950 . S
C2902 C2901 1.349 . S
C2902 C2914 1.349 . S
C2903 C2901 1.327 . S
C2903 C2919 1.429 . S
C2903 H2925 0.950 . S
C2904 H2900 0.949 . S
C2904 C2912 1.574 . S
C2904 C2920 1.368 . S
H2905 C2913 0.950 . S
H2906 C2911 0.950 . S
H2907 C2912 0.949 . S
H2908 C2914 0.950 . S
H2909 C2915 0.950 . S
H2910 C2916 0.949 . S
C2911 H2906 0.950 . S
C2911 C2913 1.327 . S
C2911 C2917 1.429 . S
C2912 C2904 1.574 . S
C2912 H2907 0.949 . S
C2912 C2918 1.368 . S
C2913 C2897 1.349 . S
C2913 H2905 0.950 . S
C2913 C2911 1.327 . S
C2914 C2902 1.349 . S
C2914 H2908 0.950 . S
C2914 C2915 1.327 . S
C2915 H2909 0.950 . S
C2915 C2914 1.327 . S
C2915 C2919 1.429 . S
C2916 C2899 1.574 . S
C2916 H2910 0.949 . S
C2916 C2920 1.368 . S
C2917 C2898 1.429 . S
C2917 C2911 1.429 . S
C2917 C2918 1.523 . S
C2918 C2899 1.368 . S
C2918 C2912 1.368 . S
C2918 C2917 1.523 . S
C2919 C2903 1.429 . S
C2919 C2915 1.429 . S
C2919 C2920 1.523 . S
C2920 C2904 1.368 . S
C2920 C2916 1.368 . S
C2920 C2919 1.523 . S
H2921 C2896 0.950 . S
H2922 C2898 0.950 . S
H2923 C2899 0.949 . S
H2924 C2901 0.950 . S
H2925 C2903 0.950 . S
C2926 C2927 1.349 . S
C2926 C2928 1.327 . S
C2926 H2951 0.950 . S
C2927 C2926 1.349 . S
C2927 C2943 1.349 . S
C2928 C2926 1.327 . S
C2928 C2947 1.429 . S
C2928 H2952 0.950 . S
C2929 C2946 1.574 . S
C2929 C2948 1.368 . S
C2929 H2953 0.949 . S
H2930 C2934 0.949 . S
C2931 C2932 1.349 . S
C2931 C2933 1.327 . S
C2931 H2954 0.950 . S
C2932 C2931 1.349 . S
C2932 C2944 1.349 . S
C2933 C2931 1.327 . S
C2933 C2949 1.429 . S
C2933 H2955 0.950 . S
C2934 H2930 0.949 . S
C2934 C2942 1.574 . S
C2934 C2950 1.368 . S
H2935 C2943 0.950 . S
H2936 C2941 0.950 . S
H2937 C2942 0.949 . S
H2938 C2944 0.950 . S
H2939 C2945 0.950 . S
H2940 C2946 0.949 . S
C2941 H2936 0.950 . S
C2941 C2943 1.327 . S
C2941 C2947 1.429 . S
C2942 C2934 1.574 . S
C2942 H2937 0.949 . S
C2942 C2948 1.368 . S
C2943 C2927 1.349 . S
C2943 H2935 0.950 . S
C2943 C2941 1.327 . S
C2944 C2932 1.349 . S
C2944 H2938 0.950 . S
C2944 C2945 1.327 . S
C2945 H2939 0.950 . S
C2945 C2944 1.327 . S
C2945 C2949 1.429 . S
C2946 C2929 1.574 . S
C2946 H2940 0.949 . S
C2946 C2950 1.368 . S
C2947 C2928 1.429 . S
C2947 C2941 1.429 . S
C2947 C2948 1.523 . S
C2948 C2929 1.368 . S
C2948 C2942 1.368 . S
C2948 C2947 1.523 . S
C2949 C2933 1.429 . S
C2949 C2945 1.429 . S
C2949 C2950 1.523 . S
C2950 C2934 1.368 . S
C2950 C2946 1.368 . S
C2950 C2949 1.523 . S
H2951 C2926 0.950 . S
H2952 C2928 0.950 . S
H2953 C2929 0.949 . S
H2954 C2931 0.950 . S
H2955 C2933 0.950 . S
C2956 C2957 1.349 . S
C2956 C2958 1.327 . S
C2956 H2981 0.950 . S
C2957 C2956 1.349 . S
C2957 C2973 1.349 . S
C2958 C2956 1.327 . S
C2958 C2977 1.429 . S
C2958 H2982 0.950 . S
C2959 C2976 1.574 . S
C2959 C2978 1.368 . S
C2959 H2983 0.949 . S
H2960 C2964 0.949 . S
C2961 C2962 1.349 . S
C2961 C2963 1.327 . S
C2961 H2984 0.950 . S
C2962 C2961 1.349 . S
C2962 C2974 1.349 . S
C2963 C2961 1.327 . S
C2963 C2979 1.429 . S
C2963 H2985 0.950 . S
C2964 H2960 0.949 . S
C2964 C2972 1.574 . S
C2964 C2980 1.368 . S
H2965 C2973 0.950 . S
H2966 C2971 0.950 . S
H2967 C2972 0.949 . S
H2968 C2974 0.950 . S
H2969 C2975 0.950 . S
H2970 C2976 0.949 . S
C2971 H2966 0.950 . S
C2971 C2973 1.327 . S
C2971 C2977 1.429 . S
C2972 C2964 1.574 . S
C2972 H2967 0.949 . S
C2972 C2978 1.368 . S
C2973 C2957 1.349 . S
C2973 H2965 0.950 . S
C2973 C2971 1.327 . S
C2974 C2962 1.349 . S
C2974 H2968 0.950 . S
C2974 C2975 1.327 . S
C2975 H2969 0.950 . S
C2975 C2974 1.327 . S
C2975 C2979 1.429 . S
C2976 C2959 1.574 . S
C2976 H2970 0.949 . S
C2976 C2980 1.368 . S
C2977 C2958 1.429 . S
C2977 C2971 1.429 . S
C2977 C2978 1.523 . S
C2978 C2959 1.368 . S
C2978 C2972 1.368 . S
C2978 C2977 1.523 . S
C2979 C2963 1.429 . S
C2979 C2975 1.429 . S
C2979 C2980 1.523 . S
C2980 C2964 1.368 . S
C2980 C2976 1.368 . S
C2980 C2979 1.523 . S
H2981 C2956 0.950 . S
H2982 C2958 0.950 . S
H2983 C2959 0.949 . S
H2984 C2961 0.950 . S
H2985 C2963 0.950 . S
C2986 C2987 1.349 . S
C2986 C2988 1.327 . S
C2986 H3011 0.950 . S
C2987 C2986 1.349 . S
C2987 C3003 1.349 . S
C2988 C2986 1.327 . S
C2988 C3007 1.429 . S
C2988 H3012 0.950 . S
C2989 C3006 1.574 . S
C2989 C3008 1.368 . S
C2989 H3013 0.949 . S
H2990 C2994 0.949 . S
C2991 C2992 1.349 . S
C2991 C2993 1.327 . S
C2991 H3014 0.950 . S
C2992 C2991 1.349 . S
C2992 C3004 1.349 . S
C2993 C2991 1.327 . S
C2993 C3009 1.429 . S
C2993 H3015 0.950 . S
C2994 H2990 0.949 . S
C2994 C3002 1.574 . S
C2994 C3010 1.368 . S
H2995 C3003 0.950 . S
H2996 C3001 0.950 . S
H2997 C3002 0.949 . S
H2998 C3004 0.950 . S
H2999 C3005 0.950 . S
H3000 C3006 0.949 . S
C3001 H2996 0.950 . S
C3001 C3003 1.327 . S
C3001 C3007 1.429 . S
C3002 C2994 1.574 . S
C3002 H2997 0.949 . S
C3002 C3008 1.368 . S
C3003 C2987 1.349 . S
C3003 H2995 0.950 . S
C3003 C3001 1.327 . S
C3004 C2992 1.349 . S
C3004 H2998 0.950 . S
C3004 C3005 1.327 . S
C3005 H2999 0.950 . S
C3005 C3004 1.327 . S
C3005 C3009 1.429 . S
C3006 C2989 1.574 . S
C3006 H3000 0.949 . S
C3006 C3010 1.368 . S
C3007 C2988 1.429 . S
C3007 C3001 1.429 . S
C3007 C3008 1.523 . S
C3008 C2989 1.368 . S
C3008 C3002 1.368 . S
C3008 C3007 1.523 . S
C3009 C2993 1.429 . S
C3009 C3005 1.429 . S
C3009 C3010 1.523 . S
C3010 C2994 1.368 . S
C3010 C3006 1.368 . S
C3010 C3009 1.523 . S
H3011 C2986 0.950 . S
H3012 C2988 0.950 . S
H3013 C2989 0.949 . S
H3014 C2991 0.950 . S
H3015 C2993 0.950 . S
C3016 C3017 1.349 . S
C3016 C3018 1.327 . S
C3016 H3041 0.950 . S
C3017 C3016 1.349 . S
C3017 C3033 1.349 . S
C3018 C3016 1.327 . S
C3018 C3037 1.429 . S
C3018 H3042 0.950 . S
C3019 C3036 1.574 . S
C3019 C3038 1.368 . S
C3019 H3043 0.949 . S
H3020 C3024 0.949 . S
C3021 C3022 1.349 . S
C3021 C3023 1.327 . S
C3021 H3044 0.950 . S
C3022 C3021 1.349 . S
C3022 C3034 1.349 . S
C3023 C3021 1.327 . S
C3023 C3039 1.429 . S
C3023 H3045 0.950 . S
C3024 H3020 0.949 . S
C3024 C3032 1.574 . S
C3024 C3040 1.368 . S
H3025 C3033 0.950 . S
H3026 C3031 0.950 . S
H3027 C3032 0.949 . S
H3028 C3034 0.950 . S
H3029 C3035 0.950 . S
H3030 C3036 0.949 . S
C3031 H3026 0.950 . S
C3031 C3033 1.327 . S
C3031 C3037 1.429 . S
C3032 C3024 1.574 . S
C3032 H3027 0.949 . S
C3032 C3038 1.368 . S
C3033 C3017 1.349 . S
C3033 H3025 0.950 . S
C3033 C3031 1.327 . S
C3034 C3022 1.349 . S
C3034 H3028 0.950 . S
C3034 C3035 1.327 . S
C3035 H3029 0.950 . S
C3035 C3034 1.327 . S
C3035 C3039 1.429 . S
C3036 C3019 1.574 . S
C3036 H3030 0.949 . S
C3036 C3040 1.368 . S
C3037 C3018 1.429 . S
C3037 C3031 1.429 . S
C3037 C3038 1.523 . S
C3038 C3019 1.368 . S
C3038 C3032 1.368 . S
C3038 C3037 1.523 . S
C3039 C3023 1.429 . S
C3039 C3035 1.429 . S
C3039 C3040 1.523 . S
C3040 C3024 1.368 . S
C3040 C3036 1.368 . S
C3040 C3039 1.523 . S
H3041 C3016 0.950 . S
H3042 C3018 0.950 . S
H3043 C3019 0.949 . S
H3044 C3021 0.950 . S
H3045 C3023 0.950 . S
C3046 C3047 1.349 . S
C3046 C3048 1.327 . S
C3046 H3071 0.950 . S
C3047 C3046 1.349 . S
C3047 C3063 1.349 . S
C3048 C3046 1.327 . S
C3048 C3067 1.429 . S
C3048 H3072 0.950 . S
C3049 C3066 1.574 . S
C3049 C3068 1.368 . S
C3049 H3073 0.949 . S
H3050 C3054 0.949 . S
C3051 C3052 1.349 . S
C3051 C3053 1.327 . S
C3051 H3074 0.950 . S
C3052 C3051 1.349 . S
C3052 C3064 1.349 . S
C3053 C3051 1.327 . S
C3053 C3069 1.429 . S
C3053 H3075 0.950 . S
C3054 H3050 0.949 . S
C3054 C3062 1.574 . S
C3054 C3070 1.368 . S
H3055 C3063 0.950 . S
H3056 C3061 0.950 . S
H3057 C3062 0.949 . S
H3058 C3064 0.950 . S
H3059 C3065 0.950 . S
H3060 C3066 0.949 . S
C3061 H3056 0.950 . S
C3061 C3063 1.327 . S
C3061 C3067 1.429 . S
C3062 C3054 1.574 . S
C3062 H3057 0.949 . S
C3062 C3068 1.368 . S
C3063 C3047 1.349 . S
C3063 H3055 0.950 . S
C3063 C3061 1.327 . S
C3064 C3052 1.349 . S
C3064 H3058 0.950 . S
C3064 C3065 1.327 . S
C3065 H3059 0.950 . S
C3065 C3064 1.327 . S
C3065 C3069 1.429 . S
C3066 C3049 1.574 . S
C3066 H3060 0.949 . S
C3066 C3070 1.368 . S
C3067 C3048 1.429 . S
C3067 C3061 1.429 . S
C3067 C3068 1.523 . S
C3068 C3049 1.368 . S
C3068 C3062 1.368 . S
C3068 C3067 1.523 . S
C3069 C3053 1.429 . S
C3069 C3065 1.429 . S
C3069 C3070 1.523 . S
C3070 C3054 1.368 . S
C3070 C3066 1.368 . S
C3070 C3069 1.523 . S
H3071 C3046 0.950 . S
H3072 C3048 0.950 . S
H3073 C3049 0.949 . S
H3074 C3051 0.950 . S
H3075 C3053 0.950 . S
C3076 C3077 1.349 . S
C3076 C3078 1.327 . S
C3076 H3101 0.950 . S
C3077 C3076 1.349 . S
C3077 C3093 1.349 . S
C3078 C3076 1.327 . S
C3078 C3097 1.429 . S
C3078 H3102 0.950 . S
C3079 C3096 1.574 . S
C3079 C3098 1.368 . S
C3079 H3103 0.949 . S
H3080 C3084 0.949 . S
C3081 C3082 1.349 . S
C3081 C3083 1.327 . S
C3081 H3104 0.950 . S
C3082 C3081 1.349 . S
C3082 C3094 1.349 . S
C3083 C3081 1.327 . S
C3083 C3099 1.429 . S
C3083 H3105 0.950 . S
C3084 H3080 0.949 . S
C3084 C3092 1.574 . S
C3084 C3100 1.368 . S
H3085 C3093 0.950 . S
H3086 C3091 0.950 . S
H3087 C3092 0.949 . S
H3088 C3094 0.950 . S
H3089 C3095 0.950 . S
H3090 C3096 0.949 . S
C3091 H3086 0.950 . S
C3091 C3093 1.327 . S
C3091 C3097 1.429 . S
C3092 C3084 1.574 . S
C3092 H3087 0.949 . S
C3092 C3098 1.368 . S
C3093 C3077 1.349 . S
C3093 H3085 0.950 . S
C3093 C3091 1.327 . S
C3094 C3082 1.349 . S
C3094 H3088 0.950 . S
C3094 C3095 1.327 . S
C3095 H3089 0.950 . S
C3095 C3094 1.327 . S
C3095 C3099 1.429 . S
C3096 C3079 1.574 . S
C3096 H3090 0.949 . S
C3096 C3100 1.368 . S
C3097 C3078 1.429 . S
C3097 C3091 1.429 . S
C3097 C3098 1.523 . S
C3098 C3079 1.368 . S
C3098 C3092 1.368 . S
C3098 C3097 1.523 . S
C3099 C3083 1.429 . S
C3099 C3095 1.429 . S
C3099 C3100 1.523 . S
C3100 C3084 1.368 . S
C3100 C3096 1.368 . S
C3100 C3099 1.523 . S
H3101 C3076 0.950 . S
H3102 C3078 0.950 . S
H3103 C3079 0.949 . S
H3104 C3081 0.950 . S
H3105 C3083 0.950 . S
C3106 C3107 1.349 . S
C3106 C3108 1.327 . S
C3106 H3131 0.950 . S
C3107 C3106 1.349 . S
C3107 C3123 1.349 . S
C3108 C3106 1.327 . S
C3108 C3127 1.429 . S
C3108 H3132 0.950 . S
C3109 C3126 1.574 . S
C3109 C3128 1.368 . S
C3109 H3133 0.949 . S
H3110 C3114 0.949 . S
C3111 C3112 1.349 . S
C3111 C3113 1.327 . S
C3111 H3134 0.950 . S
C3112 C3111 1.349 . S
C3112 C3124 1.349 . S
C3113 C3111 1.327 . S
C3113 C3129 1.429 . S
C3113 H3135 0.950 . S
C3114 H3110 0.949 . S
C3114 C3122 1.574 . S
C3114 C3130 1.368 . S
H3115 C3123 0.950 . S
H3116 C3121 0.950 . S
H3117 C3122 0.949 . S
H3118 C3124 0.950 . S
H3119 C3125 0.950 . S
H3120 C3126 0.949 . S
C3121 H3116 0.950 . S
C3121 C3123 1.327 . S
C3121 C3127 1.429 . S
C3122 C3114 1.574 . S
C3122 H3117 0.949 . S
C3122 C3128 1.368 . S
C3123 C3107 1.349 . S
C3123 H3115 0.950 . S
C3123 C3121 1.327 . S
C3124 C3112 1.349 . S
C3124 H3118 0.950 . S
C3124 C3125 1.327 . S
C3125 H3119 0.950 . S
C3125 C3124 1.327 . S
C3125 C3129 1.429 . S
C3126 C3109 1.574 . S
C3126 H3120 0.949 . S
C3126 C3130 1.368 . S
C3127 C3108 1.429 . S
C3127 C3121 1.429 . S
C3127 C3128 1.523 . S
C3128 C3109 1.368 . S
C3128 C3122 1.368 . S
C3128 C3127 1.523 . S
C3129 C3113 1.429 . S
C3129 C3125 1.429 . S
C3129 C3130 1.523 . S
C3130 C3114 1.368 . S
C3130 C3126 1.368 . S
C3130 C3129 1.523 . S
H3131 C3106 0.950 . S
H3132 C3108 0.950 . S
H3133 C3109 0.949 . S
H3134 C3111 0.950 . S
H3135 C3113 0.950 . S
C3136 C3137 1.349 . S
C3136 C3138 1.327 . S
C3136 H3161 0.950 . S
C3137 C3136 1.349 . S
C3137 C3153 1.349 . S
C3138 C3136 1.327 . S
C3138 C3157 1.429 . S
C3138 H3162 0.950 . S
C3139 C3156 1.574 . S
C3139 C3158 1.368 . S
C3139 H3163 0.949 . S
H3140 C3144 0.949 . S
C3141 C3142 1.349 . S
C3141 C3143 1.327 . S
C3141 H3164 0.950 . S
C3142 C3141 1.349 . S
C3142 C3154 1.349 . S
C3143 C3141 1.327 . S
C3143 C3159 1.429 . S
C3143 H3165 0.950 . S
C3144 H3140 0.949 . S
C3144 C3152 1.574 . S
C3144 C3160 1.368 . S
H3145 C3153 0.950 . S
H3146 C3151 0.950 . S
H3147 C3152 0.949 . S
H3148 C3154 0.950 . S
H3149 C3155 0.950 . S
H3150 C3156 0.949 . S
C3151 H3146 0.950 . S
C3151 C3153 1.327 . S
C3151 C3157 1.429 . S
C3152 C3144 1.574 . S
C3152 H3147 0.949 . S
C3152 C3158 1.368 . S
C3153 C3137 1.349 . S
C3153 H3145 0.950 . S
C3153 C3151 1.327 . S
C3154 C3142 1.349 . S
C3154 H3148 0.950 . S
C3154 C3155 1.327 . S
C3155 H3149 0.950 . S
C3155 C3154 1.327 . S
C3155 C3159 1.429 . S
C3156 C3139 1.574 . S
C3156 H3150 0.949 . S
C3156 C3160 1.368 . S
C3157 C3138 1.429 . S
C3157 C3151 1.429 . S
C3157 C3158 1.523 . S
C3158 C3139 1.368 . S
C3158 C3152 1.368 . S
C3158 C3157 1.523 . S
C3159 C3143 1.429 . S
C3159 C3155 1.429 . S
C3159 C3160 1.523 . S
C3160 C3144 1.368 . S
C3160 C3156 1.368 . S
C3160 C3159 1.523 . S
H3161 C3136 0.950 . S
H3162 C3138 0.950 . S
H3163 C3139 0.949 . S
H3164 C3141 0.950 . S
H3165 C3143 0.950 . S
C3166 C3167 1.349 . S
C3166 C3168 1.327 . S
C3166 H3191 0.950 . S
C3167 C3166 1.349 . S
C3167 C3183 1.349 . S
C3168 C3166 1.327 . S
C3168 C3187 1.429 . S
C3168 H3192 0.950 . S
C3169 C3186 1.574 . S
C3169 C3188 1.368 . S
C3169 H3193 0.949 . S
H3170 C3174 0.949 . S
C3171 C3172 1.349 . S
C3171 C3173 1.327 . S
C3171 H3194 0.950 . S
C3172 C3171 1.349 . S
C3172 C3184 1.349 . S
C3173 C3171 1.327 . S
C3173 C3189 1.429 . S
C3173 H3195 0.950 . S
C3174 H3170 0.949 . S
C3174 C3182 1.574 . S
C3174 C3190 1.368 . S
H3175 C3183 0.950 . S
H3176 C3181 0.950 . S
H3177 C3182 0.949 . S
H3178 C3184 0.950 . S
H3179 C3185 0.950 . S
H3180 C3186 0.949 . S
C3181 H3176 0.950 . S
C3181 C3183 1.327 . S
C3181 C3187 1.429 . S
C3182 C3174 1.574 . S
C3182 H3177 0.949 . S
C3182 C3188 1.368 . S
C3183 C3167 1.349 . S
C3183 H3175 0.950 . S
C3183 C3181 1.327 . S
C3184 C3172 1.349 . S
C3184 H3178 0.950 . S
C3184 C3185 1.327 . S
C3185 H3179 0.950 . S
C3185 C3184 1.327 . S
C3185 C3189 1.429 . S
C3186 C3169 1.574 . S
C3186 H3180 0.949 . S
C3186 C3190 1.368 . S
C3187 C3168 1.429 . S
C3187 C3181 1.429 . S
C3187 C3188 1.523 . S
C3188 C3169 1.368 . S
C3188 C3182 1.368 . S
C3188 C3187 1.523 . S
C3189 C3173 1.429 . S
C3189 C3185 1.429 . S
C3189 C3190 1.523 . S
C3190 C3174 1.368 . S
C3190 C3186 1.368 . S
C3190 C3189 1.523 . S
H3191 C3166 0.950 . S
H3192 C3168 0.950 . S
H3193 C3169 0.949 . S
H3194 C3171 0.950 . S
H3195 C3173 0.950 . S
C3196 C3197 1.349 . S
C3196 C3198 1.327 . S
C3196 H3221 0.950 . S
C3197 C3196 1.349 . S
C3197 C3213 1.349 1_556 S
C3198 C3196 1.327 . S
C3198 C3217 1.429 . S
C3198 H3222 0.950 . S
C3199 C3216 1.574 . S
C3199 C3218 1.368 1_554 S
C3199 H3223 0.949 . S
H3200 C3204 0.949 . S
C3201 C3202 1.349 1_554 S
C3201 C3203 1.327 . S
C3201 H3224 0.950 . S
C3202 C3201 1.349 1_556 S
C3202 C3214 1.349 . S
C3203 C3201 1.327 . S
C3203 C3219 1.429 1_554 S
C3203 H3225 0.950 . S
C3204 H3200 0.949 . S
C3204 C3212 1.574 . S
C3204 C3220 1.368 . S
H3205 C3213 0.950 . S
H3206 C3211 0.950 . S
H3207 C3212 0.949 . S
H3208 C3214 0.950 . S
H3209 C3215 0.950 . S
H3210 C3216 0.949 . S
C3211 H3206 0.950 . S
C3211 C3213 1.327 . S
C3211 C3217 1.429 1_554 S
C3212 C3204 1.574 . S
C3212 H3207 0.949 . S
C3212 C3218 1.368 . S
C3213 C3197 1.349 1_554 S
C3213 H3205 0.950 . S
C3213 C3211 1.327 . S
C3214 C3202 1.349 . S
C3214 H3208 0.950 . S
C3214 C3215 1.327 . S
C3215 H3209 0.950 . S
C3215 C3214 1.327 . S
C3215 C3219 1.429 . S
C3216 C3199 1.574 . S
C3216 H3210 0.949 . S
C3216 C3220 1.368 1_554 S
C3217 C3198 1.429 . S
C3217 C3211 1.429 1_556 S
C3217 C3218 1.523 . S
C3218 C3199 1.368 1_556 S
C3218 C3212 1.368 . S
C3218 C3217 1.523 . S
C3219 C3203 1.429 1_556 S
C3219 C3215 1.429 . S
C3219 C3220 1.523 . S
C3220 C3204 1.368 . S
C3220 C3216 1.368 1_556 S
C3220 C3219 1.523 . S
H3221 C3196 0.950 . S
H3222 C3198 0.950 . S
H3223 C3199 0.949 . S
H3224 C3201 0.950 . S
H3225 C3203 0.950 . S
C3226 C3227 1.349 1_554 S
C3226 C3228 1.327 . S
C3226 H3251 0.950 . S
C3227 C3226 1.349 1_556 S
C3227 C3243 1.349 . S
C3228 C3226 1.327 . S
C3228 C3247 1.429 1_554 S
C3228 H3252 0.950 . S
C3229 C3246 1.574 . S
C3229 C3248 1.368 . S
C3229 H3253 0.949 . S
H3230 C3234 0.949 . S
C3231 C3232 1.349 . S
C3231 C3233 1.327 . S
C3231 H3254 0.950 . S
C3232 C3231 1.349 . S
C3232 C3244 1.349 1_556 S
C3233 C3231 1.327 . S
C3233 C3249 1.429 . S
C3233 H3255 0.950 . S
C3234 H3230 0.949 . S
C3234 C3242 1.574 . S
C3234 C3250 1.368 1_554 S
H3235 C3243 0.950 . S
H3236 C3241 0.950 . S
H3237 C3242 0.949 . S
H3238 C3244 0.950 . S
H3239 C3245 0.950 . S
H3240 C3246 0.949 . S
C3241 H3236 0.950 . S
C3241 C3243 1.327 . S
C3241 C3247 1.429 . S
C3242 C3234 1.574 . S
C3242 H3237 0.949 . S
C3242 C3248 1.368 1_554 S
C3243 C3227 1.349 . S
C3243 H3235 0.950 . S
C3243 C3241 1.327 . S
C3244 C3232 1.349 1_554 S
C3244 H3238 0.950 . S
C3244 C3245 1.327 . S
C3245 H3239 0.950 . S
C3245 C3244 1.327 . S
C3245 C3249 1.429 1_554 S
C3246 C3229 1.574 . S
C3246 H3240 0.949 . S
C3246 C3250 1.368 . S
C3247 C3228 1.429 1_556 S
C3247 C3241 1.429 . S
C3247 C3248 1.523 . S
C3248 C3229 1.368 . S
C3248 C3242 1.368 1_556 S
C3248 C3247 1.523 . S
C3249 C3233 1.429 . S
C3249 C3245 1.429 1_556 S
C3249 C3250 1.523 . S
C3250 C3234 1.368 1_556 S
C3250 C3246 1.368 . S
C3250 C3249 1.523 . S
H3251 C3226 0.950 . S
H3252 C3228 0.950 . S
H3253 C3229 0.949 . S
H3254 C3231 0.950 . S
H3255 C3233 0.950 . S
C3256 C3257 1.349 . S
C3256 C3258 1.327 . S
C3256 H3281 0.950 . S
C3257 C3256 1.349 . S
C3257 C3273 1.349 . S
C3258 C3256 1.327 . S
C3258 C3277 1.429 . S
C3258 H3282 0.950 . S
C3259 C3276 1.574 . S
C3259 C3278 1.368 . S
C3259 H3283 0.949 . S
H3260 C3264 0.949 . S
C3261 C3262 1.349 . S
C3261 C3263 1.327 . S
C3261 H3284 0.950 . S
C3262 C3261 1.349 . S
C3262 C3274 1.349 . S
C3263 C3261 1.327 . S
C3263 C3279 1.429 . S
C3263 H3285 0.950 . S
C3264 H3260 0.949 . S
C3264 C3272 1.574 . S
C3264 C3280 1.368 . S
H3265 C3273 0.950 . S
H3266 C3271 0.950 . S
H3267 C3272 0.949 . S
H3268 C3274 0.950 . S
H3269 C3275 0.950 . S
H3270 C3276 0.949 . S
C3271 H3266 0.950 . S
C3271 C3273 1.327 . S
C3271 C3277 1.429 . S
C3272 C3264 1.574 . S
C3272 H3267 0.949 . S
C3272 C3278 1.368 . S
C3273 C3257 1.349 . S
C3273 H3265 0.950 . S
C3273 C3271 1.327 . S
C3274 C3262 1.349 . S
C3274 H3268 0.950 . S
C3274 C3275 1.327 . S
C3275 H3269 0.950 . S
C3275 C3274 1.327 . S
C3275 C3279 1.429 . S
C3276 C3259 1.574 . S
C3276 H3270 0.949 . S
C3276 C3280 1.368 . S
C3277 C3258 1.429 . S
C3277 C3271 1.429 . S
C3277 C3278 1.523 . S
C3278 C3259 1.368 . S
C3278 C3272 1.368 . S
C3278 C3277 1.523 . S
C3279 C3263 1.429 . S
C3279 C3275 1.429 . S
C3279 C3280 1.523 . S
C3280 C3264 1.368 . S
C3280 C3276 1.368 . S
C3280 C3279 1.523 . S
H3281 C3256 0.950 . S
H3282 C3258 0.950 . S
H3283 C3259 0.949 . S
H3284 C3261 0.950 . S
H3285 C3263 0.950 . S
C3286 C3287 1.349 . S
C3286 C3288 1.327 . S
C3286 H3311 0.950 . S
C3287 C3286 1.349 . S
C3287 C3303 1.349 . S
C3288 C3286 1.327 . S
C3288 C3307 1.429 . S
C3288 H3312 0.950 . S
C3289 C3306 1.574 . S
C3289 C3308 1.368 . S
C3289 H3313 0.949 . S
H3290 C3294 0.949 . S
C3291 C3292 1.349 . S
C3291 C3293 1.327 . S
C3291 H3314 0.950 . S
C3292 C3291 1.349 . S
C3292 C3304 1.349 . S
C3293 C3291 1.327 . S
C3293 C3309 1.429 . S
C3293 H3315 0.950 . S
C3294 H3290 0.949 . S
C3294 C3302 1.574 . S
C3294 C3310 1.368 . S
H3295 C3303 0.950 . S
H3296 C3301 0.950 . S
H3297 C3302 0.949 . S
H3298 C3304 0.950 . S
H3299 C3305 0.950 . S
H3300 C3306 0.949 . S
C3301 H3296 0.950 . S
C3301 C3303 1.327 . S
C3301 C3307 1.429 . S
C3302 C3294 1.574 . S
C3302 H3297 0.949 . S
C3302 C3308 1.368 . S
C3303 C3287 1.349 . S
C3303 H3295 0.950 . S
C3303 C3301 1.327 . S
C3304 C3292 1.349 . S
C3304 H3298 0.950 . S
C3304 C3305 1.327 . S
C3305 H3299 0.950 . S
C3305 C3304 1.327 . S
C3305 C3309 1.429 . S
C3306 C3289 1.574 . S
C3306 H3300 0.949 . S
C3306 C3310 1.368 . S
C3307 C3288 1.429 . S
C3307 C3301 1.429 . S
C3307 C3308 1.523 . S
C3308 C3289 1.368 . S
C3308 C3302 1.368 . S
C3308 C3307 1.523 . S
C3309 C3293 1.429 . S
C3309 C3305 1.429 . S
C3309 C3310 1.523 . S
C3310 C3294 1.368 . S
C3310 C3306 1.368 . S
C3310 C3309 1.523 . S
H3311 C3286 0.950 . S
H3312 C3288 0.950 . S
H3313 C3289 0.949 . S
H3314 C3291 0.950 . S
H3315 C3293 0.950 . S
C3316 C3317 1.349 . S
C3316 C3318 1.327 . S
C3316 H3341 0.950 . S
C3317 C3316 1.349 . S
C3317 C3333 1.349 1_554 S
C3318 C3316 1.327 . S
C3318 C3337 1.429 . S
C3318 H3342 0.950 . S
C3319 C3336 1.574 . S
C3319 C3338 1.368 1_556 S
C3319 H3343 0.949 . S
H3320 C3324 0.949 . S
C3321 C3322 1.349 1_556 S
C3321 C3323 1.327 . S
C3321 H3344 0.950 . S
C3322 C3321 1.349 1_554 S
C3322 C3334 1.349 . S
C3323 C3321 1.327 . S
C3323 C3339 1.429 1_556 S
C3323 H3345 0.950 . S
C3324 H3320 0.949 . S
C3324 C3332 1.574 . S
C3324 C3340 1.368 . S
H3325 C3333 0.950 . S
H3326 C3331 0.950 . S
H3327 C3332 0.949 . S
H3328 C3334 0.950 . S
H3329 C3335 0.950 . S
H3330 C3336 0.949 . S
C3331 H3326 0.950 . S
C3331 C3333 1.327 . S
C3331 C3337 1.429 1_556 S
C3332 C3324 1.574 . S
C3332 H3327 0.949 . S
C3332 C3338 1.368 . S
C3333 C3317 1.349 1_556 S
C3333 H3325 0.950 . S
C3333 C3331 1.327 . S
C3334 C3322 1.349 . S
C3334 H3328 0.950 . S
C3334 C3335 1.327 . S
C3335 H3329 0.950 . S
C3335 C3334 1.327 . S
C3335 C3339 1.429 . S
C3336 C3319 1.574 . S
C3336 H3330 0.949 . S
C3336 C3340 1.368 1_556 S
C3337 C3318 1.429 . S
C3337 C3331 1.429 1_554 S
C3337 C3338 1.523 . S
C3338 C3319 1.368 1_554 S
C3338 C3332 1.368 . S
C3338 C3337 1.523 . S
C3339 C3323 1.429 1_554 S
C3339 C3335 1.429 . S
C3339 C3340 1.523 . S
C3340 C3324 1.368 . S
C3340 C3336 1.368 1_554 S
C3340 C3339 1.523 . S
H3341 C3316 0.950 . S
H3342 C3318 0.950 . S
H3343 C3319 0.949 . S
H3344 C3321 0.950 . S
H3345 C3323 0.950 . S
C3346 C3347 1.349 1_556 S
C3346 C3348 1.327 . S
C3346 H3371 0.950 . S
C3347 C3346 1.349 1_554 S
C3347 C3363 1.349 . S
C3348 C3346 1.327 . S
C3348 C3367 1.429 1_556 S
C3348 H3372 0.950 . S
C3349 C3366 1.574 . S
C3349 C3368 1.368 . S
C3349 H3373 0.949 . S
H3350 C3354 0.949 . S
C3351 C3352 1.349 . S
C3351 C3353 1.327 . S
C3351 H3374 0.950 . S
C3352 C3351 1.349 . S
C3352 C3364 1.349 1_554 S
C3353 C3351 1.327 . S
C3353 C3369 1.429 . S
C3353 H3375 0.950 . S
C3354 H3350 0.949 . S
C3354 C3362 1.574 . S
C3354 C3370 1.368 1_556 S
H3355 C3363 0.950 . S
H3356 C3361 0.950 . S
H3357 C3362 0.949 . S
H3358 C3364 0.950 . S
H3359 C3365 0.950 . S
H3360 C3366 0.949 . S
C3361 H3356 0.950 . S
C3361 C3363 1.327 . S
C3361 C3367 1.429 . S
C3362 C3354 1.574 . S
C3362 H3357 0.949 . S
C3362 C3368 1.368 1_556 S
C3363 C3347 1.349 . S
C3363 H3355 0.950 . S
C3363 C3361 1.327 . S
C3364 C3352 1.349 1_556 S
C3364 H3358 0.950 . S
C3364 C3365 1.327 . S
C3365 H3359 0.950 . S
C3365 C3364 1.327 . S
C3365 C3369 1.429 1_556 S
C3366 C3349 1.574 . S
C3366 H3360 0.949 . S
C3366 C3370 1.368 . S
C3367 C3348 1.429 1_554 S
C3367 C3361 1.429 . S
C3367 C3368 1.523 . S
C3368 C3349 1.368 . S
C3368 C3362 1.368 1_554 S
C3368 C3367 1.523 . S
C3369 C3353 1.429 . S
C3369 C3365 1.429 1_554 S
C3369 C3370 1.523 . S
C3370 C3354 1.368 1_554 S
C3370 C3366 1.368 . S
C3370 C3369 1.523 . S
H3371 C3346 0.950 . S
H3372 C3348 0.950 . S
H3373 C3349 0.949 . S
H3374 C3351 0.950 . S
H3375 C3353 0.950 . S
C3376 C3377 1.349 . S
C3376 C3378 1.327 . S
C3376 H3401 0.950 . S
C3377 C3376 1.349 . S
C3377 C3393 1.349 . S
C3378 C3376 1.327 . S
C3378 C3397 1.429 . S
C3378 H3402 0.950 . S
C3379 C3396 1.574 . S
C3379 C3398 1.368 . S
C3379 H3403 0.949 . S
H3380 C3384 0.949 . S
C3381 C3382 1.349 . S
C3381 C3383 1.327 . S
C3381 H3404 0.950 . S
C3382 C3381 1.349 . S
C3382 C3394 1.349 . S
C3383 C3381 1.327 . S
C3383 C3399 1.429 . S
C3383 H3405 0.950 . S
C3384 H3380 0.949 . S
C3384 C3392 1.574 . S
C3384 C3400 1.368 . S
H3385 C3393 0.950 . S
H3386 C3391 0.950 . S
H3387 C3392 0.949 . S
H3388 C3394 0.950 . S
H3389 C3395 0.950 . S
H3390 C3396 0.949 . S
C3391 H3386 0.950 . S
C3391 C3393 1.327 . S
C3391 C3397 1.429 . S
C3392 C3384 1.574 . S
C3392 H3387 0.949 . S
C3392 C3398 1.368 . S
C3393 C3377 1.349 . S
C3393 H3385 0.950 . S
C3393 C3391 1.327 . S
C3394 C3382 1.349 . S
C3394 H3388 0.950 . S
C3394 C3395 1.327 . S
C3395 H3389 0.950 . S
C3395 C3394 1.327 . S
C3395 C3399 1.429 . S
C3396 C3379 1.574 . S
C3396 H3390 0.949 . S
C3396 C3400 1.368 . S
C3397 C3378 1.429 . S
C3397 C3391 1.429 . S
C3397 C3398 1.523 . S
C3398 C3379 1.368 . S
C3398 C3392 1.368 . S
C3398 C3397 1.523 . S
C3399 C3383 1.429 . S
C3399 C3395 1.429 . S
C3399 C3400 1.523 . S
C3400 C3384 1.368 . S
C3400 C3396 1.368 . S
C3400 C3399 1.523 . S
H3401 C3376 0.950 . S
H3402 C3378 0.950 . S
H3403 C3379 0.949 . S
H3404 C3381 0.950 . S
H3405 C3383 0.950 . S
C3406 C3407 1.349 . S
C3406 C3408 1.327 . S
C3406 H3431 0.950 . S
C3407 C3406 1.349 . S
C3407 C3423 1.349 . S
C3408 C3406 1.327 . S
C3408 C3427 1.429 . S
C3408 H3432 0.950 . S
C3409 C3426 1.574 . S
C3409 C3428 1.368 . S
C3409 H3433 0.949 . S
H3410 C3414 0.949 . S
C3411 C3412 1.349 . S
C3411 C3413 1.327 . S
C3411 H3434 0.950 . S
C3412 C3411 1.349 . S
C3412 C3424 1.349 . S
C3413 C3411 1.327 . S
C3413 C3429 1.429 . S
C3413 H3435 0.950 . S
C3414 H3410 0.949 . S
C3414 C3422 1.574 . S
C3414 C3430 1.368 . S
H3415 C3423 0.950 . S
H3416 C3421 0.950 . S
H3417 C3422 0.949 . S
H3418 C3424 0.950 . S
H3419 C3425 0.950 . S
H3420 C3426 0.949 . S
C3421 H3416 0.950 . S
C3421 C3423 1.327 . S
C3421 C3427 1.429 . S
C3422 C3414 1.574 . S
C3422 H3417 0.949 . S
C3422 C3428 1.368 . S
C3423 C3407 1.349 . S
C3423 H3415 0.950 . S
C3423 C3421 1.327 . S
C3424 C3412 1.349 . S
C3424 H3418 0.950 . S
C3424 C3425 1.327 . S
C3425 H3419 0.950 . S
C3425 C3424 1.327 . S
C3425 C3429 1.429 . S
C3426 C3409 1.574 . S
C3426 H3420 0.949 . S
C3426 C3430 1.368 . S
C3427 C3408 1.429 . S
C3427 C3421 1.429 . S
C3427 C3428 1.523 . S
C3428 C3409 1.368 . S
C3428 C3422 1.368 . S
C3428 C3427 1.523 . S
C3429 C3413 1.429 . S
C3429 C3425 1.429 . S
C3429 C3430 1.523 . S
C3430 C3414 1.368 . S
C3430 C3426 1.368 . S
C3430 C3429 1.523 . S
H3431 C3406 0.950 . S
H3432 C3408 0.950 . S
H3433 C3409 0.949 . S
H3434 C3411 0.950 . S
H3435 C3413 0.950 . S
C3436 C3437 1.349 . S
C3436 C3438 1.327 . S
C3436 H3461 0.950 . S
C3437 C3436 1.349 . S
C3437 C3453 1.349 . S
C3438 C3436 1.327 . S
C3438 C3457 1.429 . S
C3438 H3462 0.950 . S
C3439 C3456 1.574 . S
C3439 C3458 1.368 . S
C3439 H3463 0.949 . S
H3440 C3444 0.949 . S
C3441 C3442 1.349 . S
C3441 C3443 1.327 . S
C3441 H3464 0.950 . S
C3442 C3441 1.349 . S
C3442 C3454 1.349 . S
C3443 C3441 1.327 . S
C3443 C3459 1.429 . S
C3443 H3465 0.950 . S
C3444 H3440 0.949 . S
C3444 C3452 1.574 . S
C3444 C3460 1.368 . S
H3445 C3453 0.950 . S
H3446 C3451 0.950 . S
H3447 C3452 0.949 . S
H3448 C3454 0.950 . S
H3449 C3455 0.950 . S
H3450 C3456 0.949 . S
C3451 H3446 0.950 . S
C3451 C3453 1.327 . S
C3451 C3457 1.429 . S
C3452 C3444 1.574 . S
C3452 H3447 0.949 . S
C3452 C3458 1.368 . S
C3453 C3437 1.349 . S
C3453 H3445 0.950 . S
C3453 C3451 1.327 . S
C3454 C3442 1.349 . S
C3454 H3448 0.950 . S
C3454 C3455 1.327 . S
C3455 H3449 0.950 . S
C3455 C3454 1.327 . S
C3455 C3459 1.429 . S
C3456 C3439 1.574 . S
C3456 H3450 0.949 . S
C3456 C3460 1.368 . S
C3457 C3438 1.429 . S
C3457 C3451 1.429 . S
C3457 C3458 1.523 . S
C3458 C3439 1.368 . S
C3458 C3452 1.368 . S
C3458 C3457 1.523 . S
C3459 C3443 1.429 . S
C3459 C3455 1.429 . S
C3459 C3460 1.523 . S
C3460 C3444 1.368 . S
C3460 C3456 1.368 . S
C3460 C3459 1.523 . S
H3461 C3436 0.950 . S
H3462 C3438 0.950 . S
H3463 C3439 0.949 . S
H3464 C3441 0.950 . S
H3465 C3443 0.950 . S
C3466 C3467 1.349 . S
C3466 C3468 1.327 . S
C3466 H3491 0.950 . S
C3467 C3466 1.349 . S
C3467 C3483 1.349 . S
C3468 C3466 1.327 . S
C3468 C3487 1.429 . S
C3468 H3492 0.950 . S
C3469 C3486 1.574 . S
C3469 C3488 1.368 . S
C3469 H3493 0.949 . S
H3470 C3474 0.949 . S
C3471 C3472 1.349 . S
C3471 C3473 1.327 . S
C3471 H3494 0.950 . S
C3472 C3471 1.349 . S
C3472 C3484 1.349 . S
C3473 C3471 1.327 . S
C3473 C3489 1.429 . S
C3473 H3495 0.950 . S
C3474 H3470 0.949 . S
C3474 C3482 1.574 . S
C3474 C3490 1.368 . S
H3475 C3483 0.950 . S
H3476 C3481 0.950 . S
H3477 C3482 0.949 . S
H3478 C3484 0.950 . S
H3479 C3485 0.950 . S
H3480 C3486 0.949 . S
C3481 H3476 0.950 . S
C3481 C3483 1.327 . S
C3481 C3487 1.429 . S
C3482 C3474 1.574 . S
C3482 H3477 0.949 . S
C3482 C3488 1.368 . S
C3483 C3467 1.349 . S
C3483 H3475 0.950 . S
C3483 C3481 1.327 . S
C3484 C3472 1.349 . S
C3484 H3478 0.950 . S
C3484 C3485 1.327 . S
C3485 H3479 0.950 . S
C3485 C3484 1.327 . S
C3485 C3489 1.429 . S
C3486 C3469 1.574 . S
C3486 H3480 0.949 . S
C3486 C3490 1.368 . S
C3487 C3468 1.429 . S
C3487 C3481 1.429 . S
C3487 C3488 1.523 . S
C3488 C3469 1.368 . S
C3488 C3482 1.368 . S
C3488 C3487 1.523 . S
C3489 C3473 1.429 . S
C3489 C3485 1.429 . S
C3489 C3490 1.523 . S
C3490 C3474 1.368 . S
C3490 C3486 1.368 . S
C3490 C3489 1.523 . S
H3491 C3466 0.950 . S
H3492 C3468 0.950 . S
H3493 C3469 0.949 . S
H3494 C3471 0.950 . S
H3495 C3473 0.950 . S
C3496 C3497 1.349 . S
C3496 C3498 1.327 . S
C3496 H3521 0.950 . S
C3497 C3496 1.349 . S
C3497 C3513 1.349 . S
C3498 C3496 1.327 . S
C3498 C3517 1.429 . S
C3498 H3522 0.950 . S
C3499 C3516 1.574 . S
C3499 C3518 1.368 . S
C3499 H3523 0.949 . S
H3500 C3504 0.949 . S
C3501 C3502 1.349 . S
C3501 C3503 1.327 . S
C3501 H3524 0.950 . S
C3502 C3501 1.349 . S
C3502 C3514 1.349 . S
C3503 C3501 1.327 . S
C3503 C3519 1.429 . S
C3503 H3525 0.950 . S
C3504 H3500 0.949 . S
C3504 C3512 1.574 . S
C3504 C3520 1.368 . S
H3505 C3513 0.950 . S
H3506 C3511 0.950 . S
H3507 C3512 0.949 . S
H3508 C3514 0.950 . S
H3509 C3515 0.950 . S
H3510 C3516 0.949 . S
C3511 H3506 0.950 . S
C3511 C3513 1.327 . S
C3511 C3517 1.429 . S
C3512 C3504 1.574 . S
C3512 H3507 0.949 . S
C3512 C3518 1.368 . S
C3513 C3497 1.349 . S
C3513 H3505 0.950 . S
C3513 C3511 1.327 . S
C3514 C3502 1.349 . S
C3514 H3508 0.950 . S
C3514 C3515 1.327 . S
C3515 H3509 0.950 . S
C3515 C3514 1.327 . S
C3515 C3519 1.429 . S
C3516 C3499 1.574 . S
C3516 H3510 0.949 . S
C3516 C3520 1.368 . S
C3517 C3498 1.429 . S
C3517 C3511 1.429 . S
C3517 C3518 1.523 . S
C3518 C3499 1.368 . S
C3518 C3512 1.368 . S
C3518 C3517 1.523 . S
C3519 C3503 1.429 . S
C3519 C3515 1.429 . S
C3519 C3520 1.523 . S
C3520 C3504 1.368 . S
C3520 C3516 1.368 . S
C3520 C3519 1.523 . S
H3521 C3496 0.950 . S
H3522 C3498 0.950 . S
H3523 C3499 0.949 . S
H3524 C3501 0.950 . S
H3525 C3503 0.950 . S
C3526 C3527 1.349 . S
C3526 C3528 1.327 . S
C3526 H3551 0.950 . S
C3527 C3526 1.349 . S
C3527 C3543 1.349 . S
C3528 C3526 1.327 . S
C3528 C3547 1.429 . S
C3528 H3552 0.950 . S
C3529 C3546 1.574 . S
C3529 C3548 1.368 . S
C3529 H3553 0.949 . S
H3530 C3534 0.949 . S
C3531 C3532 1.349 . S
C3531 C3533 1.327 . S
C3531 H3554 0.950 . S
C3532 C3531 1.349 . S
C3532 C3544 1.349 . S
C3533 C3531 1.327 . S
C3533 C3549 1.429 . S
C3533 H3555 0.950 . S
C3534 H3530 0.949 . S
C3534 C3542 1.574 . S
C3534 C3550 1.368 . S
H3535 C3543 0.950 . S
H3536 C3541 0.950 . S
H3537 C3542 0.949 . S
H3538 C3544 0.950 . S
H3539 C3545 0.950 . S
H3540 C3546 0.949 . S
C3541 H3536 0.950 . S
C3541 C3543 1.327 . S
C3541 C3547 1.429 . S
C3542 C3534 1.574 . S
C3542 H3537 0.949 . S
C3542 C3548 1.368 . S
C3543 C3527 1.349 . S
C3543 H3535 0.950 . S
C3543 C3541 1.327 . S
C3544 C3532 1.349 . S
C3544 H3538 0.950 . S
C3544 C3545 1.327 . S
C3545 H3539 0.950 . S
C3545 C3544 1.327 . S
C3545 C3549 1.429 . S
C3546 C3529 1.574 . S
C3546 H3540 0.949 . S
C3546 C3550 1.368 . S
C3547 C3528 1.429 . S
C3547 C3541 1.429 . S
C3547 C3548 1.523 . S
C3548 C3529 1.368 . S
C3548 C3542 1.368 . S
C3548 C3547 1.523 . S
C3549 C3533 1.429 . S
C3549 C3545 1.429 . S
C3549 C3550 1.523 . S
C3550 C3534 1.368 . S
C3550 C3546 1.368 . S
C3550 C3549 1.523 . S
H3551 C3526 0.950 . S
H3552 C3528 0.950 . S
H3553 C3529 0.949 . S
H3554 C3531 0.950 . S
H3555 C3533 0.950 . S
C3556 C3557 1.349 . S
C3556 C3558 1.327 . S
C3556 H3581 0.950 . S
C3557 C3556 1.349 . S
C3557 C3573 1.349 . S
C3558 C3556 1.327 . S
C3558 C3577 1.429 . S
C3558 H3582 0.950 . S
C3559 C3576 1.574 . S
C3559 C3578 1.368 . S
C3559 H3583 0.949 . S
H3560 C3564 0.949 . S
C3561 C3562 1.349 . S
C3561 C3563 1.327 . S
C3561 H3584 0.950 . S
C3562 C3561 1.349 . S
C3562 C3574 1.349 . S
C3563 C3561 1.327 . S
C3563 C3579 1.429 . S
C3563 H3585 0.950 . S
C3564 H3560 0.949 . S
C3564 C3572 1.574 . S
C3564 C3580 1.368 . S
H3565 C3573 0.950 . S
H3566 C3571 0.950 . S
H3567 C3572 0.949 . S
H3568 C3574 0.950 . S
H3569 C3575 0.950 . S
H3570 C3576 0.949 . S
C3571 H3566 0.950 . S
C3571 C3573 1.327 . S
C3571 C3577 1.429 . S
C3572 C3564 1.574 . S
C3572 H3567 0.949 . S
C3572 C3578 1.368 . S
C3573 C3557 1.349 . S
C3573 H3565 0.950 . S
C3573 C3571 1.327 . S
C3574 C3562 1.349 . S
C3574 H3568 0.950 . S
C3574 C3575 1.327 . S
C3575 H3569 0.950 . S
C3575 C3574 1.327 . S
C3575 C3579 1.429 . S
C3576 C3559 1.574 . S
C3576 H3570 0.949 . S
C3576 C3580 1.368 . S
C3577 C3558 1.429 . S
C3577 C3571 1.429 . S
C3577 C3578 1.523 . S
C3578 C3559 1.368 . S
C3578 C3572 1.368 . S
C3578 C3577 1.523 . S
C3579 C3563 1.429 . S
C3579 C3575 1.429 . S
C3579 C3580 1.523 . S
C3580 C3564 1.368 . S
C3580 C3576 1.368 . S
C3580 C3579 1.523 . S
H3581 C3556 0.950 . S
H3582 C3558 0.950 . S
H3583 C3559 0.949 . S
H3584 C3561 0.950 . S
H3585 C3563 0.950 . S
C3586 C3587 1.349 . S
C3586 C3588 1.327 . S
C3586 H3611 0.950 . S
C3587 C3586 1.349 . S
C3587 C3603 1.349 . S
C3588 C3586 1.327 . S
C3588 C3607 1.429 . S
C3588 H3612 0.950 . S
C3589 C3606 1.574 . S
C3589 C3608 1.368 . S
C3589 H3613 0.949 . S
H3590 C3594 0.949 . S
C3591 C3592 1.349 . S
C3591 C3593 1.327 . S
C3591 H3614 0.950 . S
C3592 C3591 1.349 . S
C3592 C3604 1.349 . S
C3593 C3591 1.327 . S
C3593 C3609 1.429 . S
C3593 H3615 0.950 . S
C3594 H3590 0.949 . S
C3594 C3602 1.574 . S
C3594 C3610 1.368 . S
H3595 C3603 0.950 . S
H3596 C3601 0.950 . S
H3597 C3602 0.949 . S
H3598 C3604 0.950 . S
H3599 C3605 0.950 . S
H3600 C3606 0.949 . S
C3601 H3596 0.950 . S
C3601 C3603 1.327 . S
C3601 C3607 1.429 . S
C3602 C3594 1.574 . S
C3602 H3597 0.949 . S
C3602 C3608 1.368 . S
C3603 C3587 1.349 . S
C3603 H3595 0.950 . S
C3603 C3601 1.327 . S
C3604 C3592 1.349 . S
C3604 H3598 0.950 . S
C3604 C3605 1.327 . S
C3605 H3599 0.950 . S
C3605 C3604 1.327 . S
C3605 C3609 1.429 . S
C3606 C3589 1.574 . S
C3606 H3600 0.949 . S
C3606 C3610 1.368 . S
C3607 C3588 1.429 . S
C3607 C3601 1.429 . S
C3607 C3608 1.523 . S
C3608 C3589 1.368 . S
C3608 C3602 1.368 . S
C3608 C3607 1.523 . S
C3609 C3593 1.429 . S
C3609 C3605 1.429 . S
C3609 C3610 1.523 . S
C3610 C3594 1.368 . S
C3610 C3606 1.368 . S
C3610 C3609 1.523 . S
H3611 C3586 0.950 . S
H3612 C3588 0.950 . S
H3613 C3589 0.949 . S
H3614 C3591 0.950 . S
H3615 C3593 0.950 . S
C1697 C39 1.958 . S
C1702 C198 1.958 . S
C1727 C145 1.958 . S
C1732 C92 1.958 . S
C1757 C251 1.951 . S
C1762 C410 1.951 . S
C1787 C357 1.951 . S
C1792 C304 1.951 . S
C1817 C463 1.958 . S
C1822 C622 1.958 . S
C1847 C569 1.958 . S
C1852 C516 1.958 . S
C1877 C675 1.951 . S
C1882 C834 1.951 . S
C1907 C728 1.951 . S
C1912 C781 1.951 . S
C1937 C1046 1.958 . S
C1942 C887 1.958 . S
C1967 C940 1.958 . S
C1972 C993 1.958 . S
C1997 C1099 1.951 . S
C2002 C1258 1.951 . S
C2027 C1205 1.951 . S
C2032 C1152 1.951 . S
C2057 C1311 1.958 . S
C2062 C1470 1.958 . S
C2087 C1417 1.958 . S
C2092 C1364 1.958 . S
C2117 C1523 1.951 . S
C2122 C1682 1.951 . S
C2147 C1576 1.951 . S
C2152 C1629 1.951 . S
C2177 C658 1.503 . S
C2182 C22 1.504 . S
C2207 C75 1.504 . S
C2212 C1135 1.503 . S
C2237 C128 1.504 . S
C2242 C340 1.503 . S
C2267 C1665 1.503 . S
C2272 C181 1.504 . S
C2297 C234 1.503 . S
C2302 C446 1.504 . S
C2327 C923 1.504 . S
C2332 C287 1.503 . S
C2357 C1453 1.504 . S
C2362 C393 1.503 . S
C2387 C1559 1.503 . S
C2392 C499 1.504 . S
C2417 C764 1.503 . S
C2422 C552 1.504 . S
C2447 C1241 1.503 . S
C2452 C605 1.504 . S
C2477 C711 1.503 . S
C2482 C1347 1.504 . S
C2507 C1029 1.504 . S
C2512 C817 1.503 . S
C2537 C1506 1.503 . S
C2542 C870 1.504 . S
C2567 C1188 1.503 . S
C2572 C976 1.504 . S
C2597 C1294 1.504 . S
C2602 C1082 1.503 . S
C2627 C1400 1.504 . S
C2632 C1612 1.503 . S
C2657 C568 2.067 . S
C2662 C38 2.067 . S
C2687 C91 2.066 . S
C2692 C621 2.066 . S
C2717 C462 2.067 . S
C2722 C144 2.067 . S
C2747 C515 2.066 . S
C2752 C197 2.066 . S
C2777 C250 2.076 . S
C2782 C780 2.076 . S
C2807 C303 2.075 . S
C2812 C833 2.075 . S
C2837 C674 2.076 . S
C2842 C356 2.076 . S
C2867 C409 2.075 . S
C2872 C727 2.075 . S
C2897 C1416 2.067 . S
C2902 C886 2.067 . S
C2927 C1469 2.066 . S
C2932 C939 2.066 . S
C2957 C992 2.067 . S
C2962 C1310 2.067 . S
C2987 C1045 2.066 . S
C2992 C1363 2.066 . S
C3017 C1098 2.076 . S
C3022 C1628 2.076 . S
C3047 C1151 2.075 . S
C3052 C1681 2.075 . S
C3077 C1522 2.076 . S
C3082 C1204 2.076 . S
C3107 C1575 2.075 . S
C3112 C1257 2.075 . S
C3137 C29 1.544 . S
C3142 C1354 1.544 . S
C3167 C1301 1.544 . S
C3172 C82 1.544 . S
C3197 C135 1.544 . S
C3202 C1460 1.544 . S
C3227 C188 1.544 . S
C3232 C1407 1.544 . S
C3257 C241 1.546 . S
C3262 C1566 1.546 . S
C3287 C294 1.546 . S
C3292 C1513 1.546 . S
C3317 C1672 1.546 . S
C3322 C347 1.546 . S
C3347 C1619 1.546 . S
C3352 C400 1.546 . S
C3377 C930 1.544 . S
C3382 C453 1.544 . S
C3407 C877 1.544 . S
C3412 C506 1.544 . S
C3437 C559 1.544 . S
C3442 C1036 1.544 . S
C3467 C612 1.544 . S
C3472 C983 1.544 . S
C3497 C1142 1.546 . S
C3502 C665 1.546 . S
C3527 C718 1.546 . S
C3532 C1089 1.546 . S
C3557 C771 1.546 . S
C3562 C1248 1.546 . S
C3587 C824 1.546 . S
C3592 C1195 1.546 . S
