# Generated by pormake.
# Topology yft, (5)-cn, num edge types: 1
# Building blocks:
#     Node 0, Type 0, BuildingBlock: XOMCOT_clean_sbu_0, # of connection points: 5
#     Node 1, Type 0, BuildingBlock: XOMCOT_clean_sbu_0, # of connection points: 5
#     Node 2, Type 0, BuildingBlock: XOMCOT_clean_sbu_0, # of connection points: 5
#     Node 3, Type 0, BuildingBlock: XOMCOT_clean_sbu_0, # of connection points: 5
#     Node 4, Type 0, BuildingBlock: XOMCOT_clean_sbu_0, # of connection points: 5
#     Node 5, Type 0, BuildingBlock: XOMCOT_clean_sbu_0, # of connection points: 5
#     Node 6, Type 0, BuildingBlock: XOMCOT_clean_sbu_0, # of connection points: 5
#     Node 7, Type 0, BuildingBlock: XOMCOT_clean_sbu_0, # of connection points: 5
#     Node 8, Type 0, BuildingBlock: XOMCOT_clean_sbu_0, # of connection points: 5
#     Node 9, Type 0, BuildingBlock: XOMCOT_clean_sbu_0, # of connection points: 5
#     Node 10, Type 0, BuildingBlock: XOMCOT_clean_sbu_0, # of connection points: 5
#     Node 11, Type 0, BuildingBlock: XOMCOT_clean_sbu_0, # of connection points: 5
#     Node 12, Type 0, BuildingBlock: XOMCOT_clean_sbu_0, # of connection points: 5
#     Node 13, Type 0, BuildingBlock: XOMCOT_clean_sbu_0, # of connection points: 5
#     Node 14, Type 0, BuildingBlock: XOMCOT_clean_sbu_0, # of connection points: 5
#     Node 15, Type 0, BuildingBlock: XOMCOT_clean_sbu_0, # of connection points: 5
#     Node 16, Type 0, BuildingBlock: XOMCOT_clean_sbu_0, # of connection points: 5
#     Node 17, Type 0, BuildingBlock: XOMCOT_clean_sbu_0, # of connection points: 5
#     Node 18, Type 0, BuildingBlock: XOMCOT_clean_sbu_0, # of connection points: 5
#     Node 19, Type 0, BuildingBlock: XOMCOT_clean_sbu_0, # of connection points: 5
#     Node 20, Type 0, BuildingBlock: XOMCOT_clean_sbu_0, # of connection points: 5
#     Node 21, Type 0, BuildingBlock: XOMCOT_clean_sbu_0, # of connection points: 5
#     Node 22, Type 0, BuildingBlock: XOMCOT_clean_sbu_0, # of connection points: 5
#     Node 23, Type 0, BuildingBlock: XOMCOT_clean_sbu_0, # of connection points: 5
#     Node 24, Type 0, BuildingBlock: XOMCOT_clean_sbu_0, # of connection points: 5
#     Node 25, Type 0, BuildingBlock: XOMCOT_clean_sbu_0, # of connection points: 5
#     Node 26, Type 0, BuildingBlock: XOMCOT_clean_sbu_0, # of connection points: 5
#     Node 27, Type 0, BuildingBlock: XOMCOT_clean_sbu_0, # of connection points: 5
#     Node 28, Type 0, BuildingBlock: XOMCOT_clean_sbu_0, # of connection points: 5
#     Node 29, Type 0, BuildingBlock: XOMCOT_clean_sbu_0, # of connection points: 5
#     Node 30, Type 0, BuildingBlock: XOMCOT_clean_sbu_0, # of connection points: 5
#     Node 31, Type 0, BuildingBlock: XOMCOT_clean_sbu_0, # of connection points: 5
#     Edge 32, Type (0, 0), BuildingBlock: UVAHIK_clean_linker_0, # of connection points: 2
#     Edge 33, Type (0, 0), BuildingBlock: UVAHIK_clean_linker_0, # of connection points: 2
#     Edge 34, Type (0, 0), BuildingBlock: UVAHIK_clean_linker_0, # of connection points: 2
#     Edge 35, Type (0, 0), BuildingBlock: UVAHIK_clean_linker_0, # of connection points: 2
#     Edge 36, Type (0, 0), BuildingBlock: UVAHIK_clean_linker_0, # of connection points: 2
#     Edge 37, Type (0, 0), BuildingBlock: UVAHIK_clean_linker_0, # of connection points: 2
#     Edge 38, Type (0, 0), BuildingBlock: UVAHIK_clean_linker_0, # of connection points: 2
#     Edge 39, Type (0, 0), BuildingBlock: UVAHIK_clean_linker_0, # of connection points: 2
#     Edge 40, Type (0, 0), BuildingBlock: UVAHIK_clean_linker_0, # of connection points: 2
#     Edge 41, Type (0, 0), BuildingBlock: UVAHIK_clean_linker_0, # of connection points: 2
#     Edge 42, Type (0, 0), BuildingBlock: UVAHIK_clean_linker_0, # of connection points: 2
#     Edge 43, Type (0, 0), BuildingBlock: UVAHIK_clean_linker_0, # of connection points: 2
#     Edge 44, Type (0, 0), BuildingBlock: UVAHIK_clean_linker_0, # of connection points: 2
#     Edge 45, Type (0, 0), BuildingBlock: UVAHIK_clean_linker_0, # of connection points: 2
#     Edge 46, Type (0, 0), BuildingBlock: UVAHIK_clean_linker_0, # of connection points: 2
#     Edge 47, Type (0, 0), BuildingBlock: UVAHIK_clean_linker_0, # of connection points: 2
#     Edge 48, Type (0, 0), BuildingBlock: UVAHIK_clean_linker_0, # of connection points: 2
#     Edge 49, Type (0, 0), BuildingBlock: UVAHIK_clean_linker_0, # of connection points: 2
#     Edge 50, Type (0, 0), BuildingBlock: UVAHIK_clean_linker_0, # of connection points: 2
#     Edge 51, Type (0, 0), BuildingBlock: UVAHIK_clean_linker_0, # of connection points: 2
#     Edge 52, Type (0, 0), BuildingBlock: UVAHIK_clean_linker_0, # of connection points: 2
#     Edge 53, Type (0, 0), BuildingBlock: UVAHIK_clean_linker_0, # of connection points: 2
#     Edge 54, Type (0, 0), BuildingBlock: UVAHIK_clean_linker_0, # of connection points: 2
#     Edge 55, Type (0, 0), BuildingBlock: UVAHIK_clean_linker_0, # of connection points: 2
#     Edge 56, Type (0, 0), BuildingBlock: UVAHIK_clean_linker_0, # of connection points: 2
#     Edge 57, Type (0, 0), BuildingBlock: UVAHIK_clean_linker_0, # of connection points: 2
#     Edge 58, Type (0, 0), BuildingBlock: UVAHIK_clean_linker_0, # of connection points: 2
#     Edge 59, Type (0, 0), BuildingBlock: UVAHIK_clean_linker_0, # of connection points: 2
#     Edge 60, Type (0, 0), BuildingBlock: UVAHIK_clean_linker_0, # of connection points: 2
#     Edge 61, Type (0, 0), BuildingBlock: UVAHIK_clean_linker_0, # of connection points: 2
#     Edge 62, Type (0, 0), BuildingBlock: UVAHIK_clean_linker_0, # of connection points: 2
#     Edge 63, Type (0, 0), BuildingBlock: UVAHIK_clean_linker_0, # of connection points: 2
#     Edge 64, Type (0, 0), BuildingBlock: UVAHIK_clean_linker_0, # of connection points: 2
#     Edge 65, Type (0, 0), BuildingBlock: UVAHIK_clean_linker_0, # of connection points: 2
#     Edge 66, Type (0, 0), BuildingBlock: UVAHIK_clean_linker_0, # of connection points: 2
#     Edge 67, Type (0, 0), BuildingBlock: UVAHIK_clean_linker_0, # of connection points: 2
#     Edge 68, Type (0, 0), BuildingBlock: UVAHIK_clean_linker_0, # of connection points: 2
#     Edge 69, Type (0, 0), BuildingBlock: UVAHIK_clean_linker_0, # of connection points: 2
#     Edge 70, Type (0, 0), BuildingBlock: UVAHIK_clean_linker_0, # of connection points: 2
#     Edge 71, Type (0, 0), BuildingBlock: UVAHIK_clean_linker_0, # of connection points: 2
#     Edge 72, Type (0, 0), BuildingBlock: UVAHIK_clean_linker_0, # of connection points: 2
#     Edge 73, Type (0, 0), BuildingBlock: UVAHIK_clean_linker_0, # of connection points: 2
#     Edge 74, Type (0, 0), BuildingBlock: UVAHIK_clean_linker_0, # of connection points: 2
#     Edge 75, Type (0, 0), BuildingBlock: UVAHIK_clean_linker_0, # of connection points: 2
#     Edge 76, Type (0, 0), BuildingBlock: UVAHIK_clean_linker_0, # of connection points: 2
#     Edge 77, Type (0, 0), BuildingBlock: UVAHIK_clean_linker_0, # of connection points: 2
#     Edge 78, Type (0, 0), BuildingBlock: UVAHIK_clean_linker_0, # of connection points: 2
#     Edge 79, Type (0, 0), BuildingBlock: UVAHIK_clean_linker_0, # of connection points: 2
#     Edge 80, Type (0, 0), BuildingBlock: UVAHIK_clean_linker_0, # of connection points: 2
#     Edge 81, Type (0, 0), BuildingBlock: UVAHIK_clean_linker_0, # of connection points: 2
#     Edge 82, Type (0, 0), BuildingBlock: UVAHIK_clean_linker_0, # of connection points: 2
#     Edge 83, Type (0, 0), BuildingBlock: UVAHIK_clean_linker_0, # of connection points: 2
#     Edge 84, Type (0, 0), BuildingBlock: UVAHIK_clean_linker_0, # of connection points: 2
#     Edge 85, Type (0, 0), BuildingBlock: UVAHIK_clean_linker_0, # of connection points: 2
#     Edge 86, Type (0, 0), BuildingBlock: UVAHIK_clean_linker_0, # of connection points: 2
#     Edge 87, Type (0, 0), BuildingBlock: UVAHIK_clean_linker_0, # of connection points: 2
#     Edge 88, Type (0, 0), BuildingBlock: UVAHIK_clean_linker_0, # of connection points: 2
#     Edge 89, Type (0, 0), BuildingBlock: UVAHIK_clean_linker_0, # of connection points: 2
#     Edge 90, Type (0, 0), BuildingBlock: UVAHIK_clean_linker_0, # of connection points: 2
#     Edge 91, Type (0, 0), BuildingBlock: UVAHIK_clean_linker_0, # of connection points: 2
#     Edge 92, Type (0, 0), BuildingBlock: UVAHIK_clean_linker_0, # of connection points: 2
#     Edge 93, Type (0, 0), BuildingBlock: UVAHIK_clean_linker_0, # of connection points: 2
#     Edge 94, Type (0, 0), BuildingBlock: UVAHIK_clean_linker_0, # of connection points: 2
#     Edge 95, Type (0, 0), BuildingBlock: UVAHIK_clean_linker_0, # of connection points: 2
#     Edge 96, Type (0, 0), BuildingBlock: UVAHIK_clean_linker_0, # of connection points: 2
#     Edge 97, Type (0, 0), BuildingBlock: UVAHIK_clean_linker_0, # of connection points: 2
#     Edge 98, Type (0, 0), BuildingBlock: UVAHIK_clean_linker_0, # of connection points: 2
#     Edge 99, Type (0, 0), BuildingBlock: UVAHIK_clean_linker_0, # of connection points: 2
#     Edge 100, Type (0, 0), BuildingBlock: UVAHIK_clean_linker_0, # of connection points: 2
#     Edge 101, Type (0, 0), BuildingBlock: UVAHIK_clean_linker_0, # of connection points: 2
#     Edge 102, Type (0, 0), BuildingBlock: UVAHIK_clean_linker_0, # of connection points: 2
#     Edge 103, Type (0, 0), BuildingBlock: UVAHIK_clean_linker_0, # of connection points: 2
#     Edge 104, Type (0, 0), BuildingBlock: UVAHIK_clean_linker_0, # of connection points: 2
#     Edge 105, Type (0, 0), BuildingBlock: UVAHIK_clean_linker_0, # of connection points: 2
#     Edge 106, Type (0, 0), BuildingBlock: UVAHIK_clean_linker_0, # of connection points: 2
#     Edge 107, Type (0, 0), BuildingBlock: UVAHIK_clean_linker_0, # of connection points: 2
#     Edge 108, Type (0, 0), BuildingBlock: UVAHIK_clean_linker_0, # of connection points: 2
#     Edge 109, Type (0, 0), BuildingBlock: UVAHIK_clean_linker_0, # of connection points: 2
#     Edge 110, Type (0, 0), BuildingBlock: UVAHIK_clean_linker_0, # of connection points: 2
#     Edge 111, Type (0, 0), BuildingBlock: UVAHIK_clean_linker_0, # of connection points: 2
# Relax obj value: 0.384
# Max RMSD: 0.253
# Mean RMSD: 0.253
data_MOF--net-yft--node1-XOMCOT_clean_sbu_0--edge1-UVAHIK_clean_linker_0
_symmetry_space_group_name_H-M    P1
_symmetry_Int_Tables_number       1
_symmetry_cell_setting            triclinic
loop_
_symmetry_equiv_pos_as_xyz
'x, y, z'
_cell_length_a     53.25098
_cell_length_b     53.247183
_cell_length_c     122.07622
_cell_angle_alpha  89.97772
_cell_angle_beta   90.021409
_cell_angle_gamma 90.002106
loop_
_atom_site_label
_atom_site_type_symbol
_atom_site_fract_x
_atom_site_fract_y
_atom_site_fract_z
_atom_type_partial_charge
Co0 Co 0.2872 0.21659 0.15618 0.0
C1 C 0.24149 0.19383 0.14675 0.0
C2 C 0.25094 0.22868 0.13891 0.0
C3 C 0.23074 0.2183 0.13353 0.0
N4 N 0.25764 0.21333 0.14717 0.0
N5 N 0.22489 0.19634 0.13843 0.0
H6 H 0.24272 0.17757 0.15204 0.0
H7 H 0.26066 0.24573 0.13663 0.0
C8 C 0.29364 0.27159 0.16045 0.0
O9 O 0.3 0.26662 0.17063 0.0
N10 N 0.31765 0.21992 0.16494 0.0
C11 C 0.32285 0.21143 0.17512 0.0
C12 C 0.34748 0.21687 0.17758 0.0
C13 C 0.33945 0.23001 0.16133 0.0
N14 N 0.35791 0.22847 0.16889 0.0
C15 C 0.26423 0.19696 0.17562 0.0
C16 C 0.2415 0.24108 0.18214 0.0
C17 C 0.24365 0.22137 0.18972 0.0
C18 C 0.25345 0.19842 0.18601 0.0
C19 C 0.25195 0.23849 0.17171 0.0
N20 N 0.26575 0.21772 0.16911 0.0
H21 H 0.27317 0.17963 0.17321 0.0
H22 H 0.24979 0.25373 0.16598 0.0
H23 H 0.31026 0.2014 0.18043 0.0
H24 H 0.3417 0.23836 0.1533 0.0
O25 O 0.29314 0.18075 0.15528 0.0
O26 O 0.30774 0.20927 0.14368 0.0
O27 O 0.28645 0.25403 0.15406 0.0
C28 C 0.30672 0.1859 0.1467 0.0
H29 H 0.22144 0.22609 0.12642 0.0
H30 H 0.35719 0.21191 0.18506 0.0
H31 H 0.2332 0.25892 0.18435 0.0
H32 H 0.25409 0.18206 0.19128 0.0
Co33 Co 0.04482 0.04266 0.40621 0.0
C34 C 0.05822 0.99107 0.3998 0.0
C35 C 0.02531 0.00405 0.39134 0.0
C36 C 0.03187 0.98091 0.38721 0.0
N37 N 0.04187 0.01036 0.39921 0.0
N38 N 0.05263 0.97285 0.39249 0.0
H39 H 0.07477 0.99115 0.40495 0.0
H40 H 0.01031 0.01596 0.38841 0.0
C41 C 0.9919 0.0581 0.41128 0.0
O42 O 0.99934 0.06712 0.42076 0.0
N43 N 0.04798 0.07575 0.41292 0.0
C44 C 0.063 0.08296 0.42126 0.0
C45 C 0.06032 0.10833 0.42289 0.0
C46 C 0.03719 0.09727 0.40932 0.0
N47 N 0.04404 0.11733 0.41542 0.0
C48 C 0.06228 0.02462 0.4271 0.0
C49 C 0.01641 0.0071 0.43435 0.0
C50 C 0.03614 0.00946 0.44189 0.0
C51 C 0.05973 0.01702 0.43799 0.0
C52 C 0.0199 0.01493 0.42354 0.0
N53 N 0.04185 0.02609 0.4204 0.0
H54 H 0.08056 0.03029 0.4242 0.0
H55 H 0.0046 0.01263 0.41785 0.0
H56 H 0.07593 0.07126 0.42569 0.0
H57 H 0.0244 0.09815 0.40244 0.0
O58 O 0.08094 0.04161 0.40428 0.0
O59 O 0.05363 0.05732 0.39238 0.0
O60 O 0.00745 0.04728 0.40487 0.0
C61 C 0.07686 0.05246 0.39489 0.0
H62 H 0.02257 0.97118 0.38056 0.0
H63 H 0.07026 0.11946 0.42892 0.0
H64 H 0.99808 0.00044 0.43685 0.0
H65 H 0.0759 0.01769 0.44337 0.0
Co66 Co 0.20308 0.77779 0.6533 0.0
C67 C 0.25455 0.79359 0.64745 0.0
C68 C 0.24586 0.75778 0.64053 0.0
C69 C 0.26856 0.76567 0.63636 0.0
N70 N 0.2373 0.77497 0.64777 0.0
N71 N 0.2738 0.78833 0.64066 0.0
H72 H 0.25207 0.8117 0.65127 0.0
H73 H 0.23536 0.74175 0.63764 0.0
C74 C 0.21377 0.72313 0.65593 0.0
O75 O 0.23536 0.7287 0.66052 0.0
N76 N 0.16894 0.78151 0.65844 0.0
C77 C 0.16162 0.79843 0.66599 0.0
C78 C 0.13624 0.79611 0.66759 0.0
C79 C 0.14781 0.76935 0.65536 0.0
N80 N 0.12754 0.77786 0.66093 0.0
C81 C 0.23033 0.79284 0.67293 0.0
C82 C 0.20729 0.75791 0.68637 0.0
C83 C 0.22449 0.77469 0.69098 0.0
C84 C 0.23623 0.79228 0.68412 0.0
C85 C 0.20205 0.75905 0.67524 0.0
N86 N 0.21389 0.77591 0.66855 0.0
H87 H 0.23822 0.8075 0.66796 0.0
H88 H 0.18771 0.7467 0.67205 0.0
H89 H 0.17398 0.81161 0.67004 0.0
H90 H 0.14732 0.75458 0.64928 0.0
O91 O 0.20416 0.81378 0.65083 0.0
O92 O 0.19218 0.78508 0.63871 0.0
O93 O 0.19878 0.74027 0.65265 0.0
C94 C 0.19587 0.80861 0.64103 0.0
H95 H 0.27913 0.75662 0.6299 0.0
H96 H 0.12494 0.80734 0.67309 0.0
H97 H 0.19772 0.74404 0.69134 0.0
H98 H 0.24917 0.80601 0.68744 0.0
Co99 Co 0.46153 0.95921 0.90041 0.0
C100 C 0.44913 0.01149 0.89401 0.0
C101 C 0.4798 0.99685 0.8847 0.0
C102 C 0.4726 0.01936 0.88014 0.0
N103 N 0.46551 0.99207 0.8936 0.0
N104 N 0.45321 0.02847 0.88599 0.0
H105 H 0.43267 0.01183 0.89917 0.0
H106 H 0.49306 0.98389 0.88111 0.0
C107 C 0.51732 0.964 0.89871 0.0
O108 O 0.51594 0.98732 0.90217 0.0
N109 N 0.45689 0.9262 0.90671 0.0
C110 C 0.44226 0.92065 0.91537 0.0
C111 C 0.44421 0.89535 0.91751 0.0
C112 C 0.46727 0.90422 0.90356 0.0
N113 N 0.45993 0.88504 0.91009 0.0
C114 C 0.45862 0.99146 0.91975 0.0
C115 C 0.49603 0.96619 0.93097 0.0
C116 C 0.48469 0.98692 0.93594 0.0
C117 C 0.4657 0.99968 0.93023 0.0
C118 C 0.48853 0.95874 0.92059 0.0
N119 N 0.47061 0.9717 0.9149 0.0
H120 H 0.44317 0.00061 0.91574 0.0
H121 H 0.49714 0.94217 0.91715 0.0
H122 H 0.43115 0.93415 0.91988 0.0
H123 H 0.48027 0.90241 0.8968 0.0
O124 O 0.42537 0.96372 0.90056 0.0
O125 O 0.4477 0.94739 0.88693 0.0
O126 O 0.49758 0.95073 0.89737 0.0
C127 C 0.42588 0.95378 0.89079 0.0
H128 H 0.48001 0.02752 0.87269 0.0
H129 H 0.43464 0.88528 0.92398 0.0
H130 H 0.51077 0.95572 0.93504 0.0
H131 H 0.45601 0.01543 0.93393 0.0
Co132 Co 0.29985 0.78761 0.34527 0.0
C133 C 0.24659 0.79349 0.35173 0.0
C134 C 0.26423 0.76321 0.36027 0.0
C135 C 0.24138 0.76786 0.3651 0.0
N136 N 0.26747 0.77897 0.35171 0.0
N137 N 0.2304 0.78708 0.35977 0.0
H138 H 0.24462 0.81047 0.34696 0.0
H139 H 0.27851 0.75098 0.3636 0.0
C140 C 0.30306 0.73157 0.3462 0.0
O141 O 0.2801 0.72987 0.34233 0.0
N142 N 0.33227 0.79675 0.33933 0.0
C143 C 0.33645 0.81296 0.33107 0.0
C144 C 0.36175 0.81316 0.32877 0.0
C145 C 0.35505 0.78754 0.34207 0.0
N146 N 0.37342 0.79711 0.33566 0.0
C147 C 0.2682 0.78749 0.32588 0.0
C148 C 0.29847 0.75496 0.31416 0.0
C149 C 0.27663 0.76421 0.30923 0.0
C150 C 0.26132 0.78068 0.31521 0.0
C151 C 0.30459 0.76221 0.32474 0.0
N152 N 0.28926 0.77775 0.33063 0.0
H153 H 0.25693 0.80108 0.33015 0.0
H154 H 0.32201 0.75543 0.32817 0.0
H155 H 0.32199 0.82347 0.32685 0.0
H156 H 0.35799 0.77357 0.34838 0.0
O157 O 0.29056 0.82277 0.34514 0.0
O158 O 0.30883 0.80252 0.35898 0.0
O159 O 0.31302 0.7529 0.34815 0.0
C160 C 0.2996 0.82326 0.35506 0.0
H161 H 0.23436 0.75913 0.3725 0.0
H162 H 0.37082 0.82422 0.32247 0.0
H163 H 0.31086 0.74218 0.30987 0.0
H164 H 0.24461 0.78876 0.31158 0.0
Co165 Co 0.46113 0.04518 0.59387 0.0
C166 C 0.44548 0.99295 0.59857 0.0
C167 C 0.48107 0.00111 0.60583 0.0
C168 C 0.47337 0.97783 0.60941 0.0
N169 N 0.46394 0.01039 0.59872 0.0
N170 N 0.45084 0.97288 0.60491 0.0
H171 H 0.42746 0.9957 0.59471 0.0
H172 H 0.49704 0.01134 0.60898 0.0
C173 C 0.51601 0.0352 0.59136 0.0
O174 O 0.51098 0.01382 0.58648 0.0
N175 N 0.4576 0.07988 0.58941 0.0
C176 C 0.44071 0.08829 0.58206 0.0
C177 C 0.44392 0.1137 0.58075 0.0
C178 C 0.47064 0.10036 0.59265 0.0
N179 N 0.4627 0.12129 0.58738 0.0
C180 C 0.44693 0.01969 0.57375 0.0
C181 C 0.48245 0.04353 0.5609 0.0
C182 C 0.46626 0.02615 0.55602 0.0
C183 C 0.44826 0.01415 0.56256 0.0
C184 C 0.48055 0.04839 0.57205 0.0
N185 N 0.46352 0.03598 0.57846 0.0
H186 H 0.43202 0.01152 0.57848 0.0
H187 H 0.49259 0.06266 0.5755 0.0
H188 H 0.42716 0.07663 0.57786 0.0
H189 H 0.48585 0.09988 0.59853 0.0
O190 O 0.42512 0.04379 0.59595 0.0
O191 O 0.4532 0.0543 0.60863 0.0
O192 O 0.49854 0.0496 0.5948 0.0
C193 C 0.42981 0.0508 0.60597 0.0
H194 H 0.48252 0.96647 0.61559 0.0
H195 H 0.43313 0.12575 0.57537 0.0
H196 H 0.49654 0.05336 0.55616 0.0
H197 H 0.43489 0.00115 0.55901 0.0
Co198 Co 0.19978 0.22277 0.84212 0.0
C199 C 0.25177 0.20817 0.84839 0.0
C200 C 0.239 0.24048 0.85717 0.0
C201 C 0.26143 0.23285 0.86164 0.0
N202 N 0.23311 0.22543 0.84863 0.0
N203 N 0.26937 0.21243 0.85614 0.0
H204 H 0.25117 0.19118 0.84358 0.0
H205 H 0.22688 0.25479 0.86055 0.0
C206 C 0.20994 0.27759 0.84197 0.0
O207 O 0.23234 0.27249 0.83805 0.0
N208 N 0.16632 0.2194 0.83612 0.0
C209 C 0.16 0.20427 0.82773 0.0
C210 C 0.13456 0.20597 0.82603 0.0
C211 C 0.14458 0.22983 0.83958 0.0
N212 N 0.12483 0.22202 0.83346 0.0
C213 C 0.22936 0.21248 0.82261 0.0
C214 C 0.20704 0.24968 0.81013 0.0
C215 C 0.2249 0.23408 0.80523 0.0
C216 C 0.23632 0.21537 0.81161 0.0
C217 C 0.20075 0.24623 0.82106 0.0
N218 N 0.21222 0.22823 0.8273 0.0
H219 H 0.23691 0.1969 0.82713 0.0
H220 H 0.18583 0.25762 0.8244 0.0
H221 H 0.17302 0.1926 0.82322 0.0
H222 H 0.14328 0.24278 0.84638 0.0
O223 O 0.20192 0.18658 0.84299 0.0
O224 O 0.18753 0.21176 0.85608 0.0
O225 O 0.19438 0.25994 0.8441 0.0
C226 C 0.19247 0.18905 0.85278 0.0
H227 H 0.27038 0.24083 0.8688 0.0
H228 H 0.12395 0.19565 0.81996 0.0
H229 H 0.19765 0.26429 0.8055 0.0
H230 H 0.24971 0.20246 0.80802 0.0
Co231 Co 0.03899 0.94336 0.08551 0.0
C232 C 0.05241 0.99421 0.09362 0.0
C233 C 0.02279 0.97764 0.10298 0.0
C234 C 0.03048 0.99912 0.10821 0.0
N235 N 0.03611 0.97468 0.09366 0.0
N236 N 0.04929 0.00943 0.10238 0.0
H237 H 0.06806 0.99583 0.08804 0.0
H238 H 0.01002 0.96398 0.1064 0.0
C239 C 0.98338 0.94381 0.09008 0.0
O240 O 0.98166 0.96752 0.08718 0.0
N241 N 0.04233 0.9118 0.0779 0.0
C242 C 0.05381 0.90758 0.06825 0.0
C243 C 0.05217 0.88232 0.0659 0.0
C244 C 0.03422 0.88921 0.08137 0.0
N245 N 0.03986 0.87082 0.07417 0.0
C246 C 0.03805 0.97802 0.06737 0.0
C247 C 0.99919 0.95449 0.05639 0.0
C248 C 0.01166 0.97444 0.05127 0.0
C249 C 0.03108 0.98655 0.05697 0.0
C250 C 0.00686 0.94647 0.0667 0.0
N251 N 0.02591 0.9583 0.07215 0.0
H252 H 0.05409 0.98642 0.07128 0.0
H253 H 0.9982 0.92981 0.07004 0.0
H254 H 0.06273 0.92187 0.06329 0.0
H255 H 0.02417 0.88639 0.08898 0.0
O256 O 0.0745 0.94897 0.08329 0.0
O257 O 0.0573 0.92958 0.0976 0.0
O258 O 0.00452 0.93256 0.09019 0.0
C259 C 0.07743 0.93696 0.0925 0.0
H260 H 0.02383 0.00569 0.11608 0.0
H261 H 0.05977 0.8731 0.05873 0.0
H262 H 0.98407 0.94457 0.05233 0.0
H263 H 0.04166 0.00164 0.05321 0.0
Co264 Co 0.71333 0.77478 0.84401 0.0
C265 C 0.76445 0.79002 0.85116 0.0
C266 C 0.74956 0.76 0.86084 0.0
C267 C 0.77152 0.76807 0.8656 0.0
N268 N 0.7453 0.7734 0.85164 0.0
N269 N 0.78078 0.78707 0.85953 0.0
H270 H 0.76521 0.8056 0.84553 0.0
H271 H 0.73669 0.74643 0.8643 0.0
C272 C 0.72522 0.71967 0.84501 0.0
O273 O 0.74906 0.72411 0.84306 0.0
N274 N 0.68107 0.77652 0.8368 0.0
C275 C 0.67544 0.79018 0.82785 0.0
C276 C 0.65024 0.78753 0.82564 0.0
C277 C 0.65921 0.76605 0.84005 0.0
N278 N 0.64003 0.77242 0.83332 0.0
C279 C 0.74239 0.7911 0.82537 0.0
C280 C 0.7324 0.74944 0.81258 0.0
C281 C 0.74629 0.76916 0.80812 0.0
C282 C 0.75116 0.79034 0.81456 0.0
C283 C 0.72343 0.75126 0.82324 0.0
N284 N 0.72918 0.77144 0.8297 0.0
H285 H 0.74493 0.80815 0.82998 0.0
H286 H 0.71053 0.73701 0.82596 0.0
H287 H 0.68862 0.80169 0.82335 0.0
H288 H 0.65738 0.75417 0.8472 0.0
O289 O 0.71305 0.81101 0.84548 0.0
O290 O 0.69776 0.78385 0.85757 0.0
O291 O 0.70916 0.73744 0.84549 0.0
C292 C 0.70181 0.80707 0.8548 0.0
H293 H 0.7793 0.76136 0.87325 0.0
H294 H 0.64007 0.79664 0.81907 0.0
H295 H 0.72723 0.73334 0.80764 0.0
H296 H 0.76108 0.80633 0.81119 0.0
Co297 Co 0.97155 0.95221 0.59115 0.0
C298 C 0.95509 0.00193 0.59871 0.0
C299 C 0.98842 0.9898 0.60709 0.0
C300 C 0.98023 0.01184 0.6118 0.0
N301 N 0.97259 0.98365 0.59892 0.0
N302 N 0.95924 0.01935 0.60654 0.0
H303 H 0.93875 0.00156 0.59344 0.0
H304 H 0.00403 0.97841 0.60982 0.0
C305 C 0.02508 0.94118 0.58525 0.0
O306 O 0.01798 0.93372 0.57547 0.0
N307 N 0.9705 0.9199 0.58362 0.0
C308 C 0.95763 0.91312 0.57456 0.0
C309 C 0.96113 0.88793 0.5727 0.0
C310 C 0.98111 0.89834 0.58728 0.0
N311 N 0.97586 0.87861 0.58069 0.0
C312 C 0.95112 0.97212 0.57113 0.0
C313 C 0.99516 0.99334 0.5636 0.0
C314 C 0.97486 0.99088 0.55635 0.0
C315 C 0.95213 0.98148 0.56045 0.0
C316 C 0.9932 0.9838 0.57421 0.0
N317 N 0.97228 0.97087 0.5774 0.0
H318 H 0.93362 0.96451 0.57411 0.0
H319 H 0.0089 0.98616 0.5797 0.0
H320 H 0.94562 0.92493 0.56972 0.0
H321 H 0.99239 0.89716 0.59464 0.0
O322 O 0.93559 0.95041 0.59356 0.0
O323 O 0.96489 0.93514 0.60465 0.0
O324 O 0.00912 0.94999 0.59203 0.0
C325 C 0.94122 0.93874 0.60262 0.0
H326 H 0.98858 0.02115 0.61879 0.0
H327 H 0.95263 0.87708 0.56618 0.0
H328 H 0.01286 0.00133 0.56097 0.0
H329 H 0.93552 0.98052 0.55535 0.0
Co330 Co 0.7917 0.21056 0.34387 0.0
C331 C 0.74187 0.19337 0.35127 0.0
C332 C 0.75319 0.22731 0.35938 0.0
C333 C 0.73113 0.21906 0.36402 0.0
N334 N 0.75989 0.21118 0.35142 0.0
N335 N 0.72412 0.19766 0.35895 0.0
H336 H 0.74263 0.17679 0.34615 0.0
H337 H 0.76423 0.24321 0.36206 0.0
C338 C 0.80341 0.26427 0.33874 0.0
O339 O 0.81187 0.25737 0.32908 0.0
N340 N 0.82439 0.20979 0.33665 0.0
C341 C 0.83187 0.19609 0.32792 0.0
C342 C 0.857 0.2001 0.32614 0.0
C343 C 0.84558 0.22117 0.34028 0.0
N344 N 0.86563 0.21587 0.33389 0.0
C345 C 0.77331 0.19284 0.32303 0.0
C346 C 0.75133 0.23753 0.31672 0.0
C347 C 0.75473 0.21863 0.30888 0.0
C348 C 0.7647 0.19555 0.31228 0.0
C349 C 0.7605 0.23403 0.32733 0.0
N350 N 0.77372 0.21289 0.32999 0.0
H351 H 0.78064 0.17489 0.32562 0.0
H352 H 0.75758 0.24874 0.33326 0.0
H353 H 0.82062 0.18313 0.32331 0.0
H354 H 0.84625 0.23317 0.34742 0.0
O355 O 0.79332 0.1744 0.34561 0.0
O356 O 0.80802 0.20248 0.35742 0.0
O357 O 0.79406 0.24813 0.34531 0.0
C358 C 0.80464 0.17904 0.35486 0.0
H359 H 0.72146 0.22768 0.37085 0.0
H360 H 0.86829 0.19134 0.31983 0.0
H361 H 0.74281 0.25533 0.31457 0.0
H362 H 0.76638 0.17998 0.30663 0.0
Co363 Co 0.54241 0.04529 0.08089 0.0
C364 C 0.571 0.00376 0.09145 0.0
C365 C 0.53194 0.99514 0.08913 0.0
C366 C 0.54299 0.97555 0.09464 0.0
N367 N 0.54941 0.01287 0.08721 0.0
N368 N 0.56748 0.98103 0.09614 0.0
H369 H 0.58864 0.01383 0.09149 0.0
H370 H 0.51239 0.99655 0.08685 0.0
C371 C 0.49576 0.04893 0.09191 0.0
O372 O 0.48906 0.03948 0.0824 0.0
N373 N 0.53409 0.07744 0.07443 0.0
C374 C 0.52114 0.08001 0.06503 0.0
C375 C 0.51695 0.10509 0.06314 0.0
C376 C 0.53729 0.10108 0.07826 0.0
N377 N 0.52707 0.11837 0.07146 0.0
C378 C 0.57446 0.04817 0.06203 0.0
C379 C 0.5484 0.01122 0.05081 0.0
C380 C 0.56569 0.02617 0.0451 0.0
C381 C 0.57943 0.04432 0.05091 0.0
C382 C 0.54382 0.01589 0.06185 0.0
N383 N 0.55625 0.03456 0.06717 0.0
H384 H 0.58377 0.06334 0.06629 0.0
H385 H 0.52892 0.00585 0.06597 0.0
H386 H 0.5147 0.06457 0.06 0.0
H387 H 0.54661 0.10566 0.08586 0.0
O388 O 0.5747 0.05888 0.08687 0.0
O389 O 0.54097 0.05996 0.09613 0.0
O390 O 0.51925 0.0535 0.09363 0.0
C391 C 0.56466 0.06482 0.09591 0.0
H392 H 0.53368 0.95862 0.09741 0.0
H393 H 0.50646 0.11287 0.05634 0.0
H394 H 0.53703 0.99736 0.04662 0.0
H395 H 0.59295 0.05621 0.04678 0.0
Co396 Co 0.70726 0.21406 0.65327 0.0
C397 C 0.75703 0.19677 0.64589 0.0
C398 C 0.74581 0.23075 0.63776 0.0
C399 C 0.76793 0.22251 0.63317 0.0
N400 N 0.73901 0.21456 0.6457 0.0
N401 N 0.77488 0.2011 0.63825 0.0
H402 H 0.75622 0.1802 0.65101 0.0
H403 H 0.73484 0.24672 0.6351 0.0
C404 C 0.69704 0.26757 0.65893 0.0
O405 O 0.69029 0.26036 0.6688 0.0
N406 N 0.67451 0.21366 0.6605 0.0
C407 C 0.66664 0.20028 0.66925 0.0
C408 C 0.64153 0.20477 0.67093 0.0
C409 C 0.6536 0.2254 0.65678 0.0
N410 N 0.63331 0.22052 0.66309 0.0
C411 C 0.72522 0.19635 0.67422 0.0
C412 C 0.7492 0.24037 0.67997 0.0
C413 C 0.74485 0.22224 0.68808 0.0
C414 C 0.73408 0.19929 0.68492 0.0
C415 C 0.73984 0.2366 0.66943 0.0
N416 N 0.72546 0.21606 0.66709 0.0
H417 H 0.71717 0.17858 0.67182 0.0
H418 H 0.74336 0.25077 0.66329 0.0
H419 H 0.67757 0.18725 0.67397 0.0
H420 H 0.65327 0.23727 0.64958 0.0
O421 O 0.70543 0.17794 0.65147 0.0
O422 O 0.6909 0.20633 0.63973 0.0
O423 O 0.70505 0.25158 0.65197 0.0
C424 C 0.6943 0.18284 0.6422 0.0
H425 H 0.77771 0.23116 0.62637 0.0
H426 H 0.62994 0.19632 0.67722 0.0
H427 H 0.75898 0.25769 0.68183 0.0
H428 H 0.73129 0.18423 0.69076 0.0
Co429 Co 0.52632 0.94946 0.40556 0.0
C430 C 0.54113 0.00137 0.39937 0.0
C431 C 0.50848 0.98907 0.39071 0.0
C432 C 0.51651 0.01127 0.38614 0.0
N433 N 0.52356 0.98298 0.39921 0.0
N434 N 0.53714 0.0189 0.39156 0.0
H435 H 0.5582 0.00052 0.40413 0.0
H436 H 0.49402 0.97711 0.38733 0.0
C437 C 0.47112 0.95835 0.40544 0.0
O438 O 0.4753 0.98062 0.40972 0.0
N439 N 0.52978 0.91587 0.41148 0.0
C440 C 0.54551 0.90954 0.41966 0.0
C441 C 0.54252 0.88448 0.42196 0.0
C442 C 0.51762 0.89444 0.40876 0.0
N443 N 0.52497 0.87496 0.41515 0.0
C444 C 0.53556 0.97897 0.42513 0.0
C445 C 0.49854 0.95596 0.43745 0.0
C446 C 0.5137 0.97415 0.4424 0.0
C447 C 0.53235 0.98587 0.4361 0.0
C448 C 0.50234 0.9497 0.42653 0.0
N449 N 0.52025 0.96153 0.42038 0.0
H450 H 0.55103 0.98689 0.42066 0.0
H451 H 0.49124 0.93466 0.42311 0.0
H452 H 0.55812 0.92241 0.42376 0.0
H453 H 0.50343 0.89323 0.40243 0.0
O454 O 0.56251 0.95196 0.40503 0.0
O455 O 0.53796 0.93783 0.39162 0.0
O456 O 0.48941 0.94364 0.40324 0.0
C457 C 0.56044 0.94302 0.39513 0.0
H458 H 0.50875 0.02017 0.37892 0.0
H459 H 0.55266 0.87399 0.42814 0.0
H460 H 0.48396 0.94636 0.44201 0.0
H461 H 0.54492 0.99953 0.43973 0.0
Co462 Co 0.79224 0.77384 0.16373 0.0
C463 C 0.75245 0.80675 0.15424 0.0
C464 C 0.73912 0.76999 0.15855 0.0
C465 C 0.71985 0.78291 0.15363 0.0
N466 N 0.75957 0.78481 0.15886 0.0
N467 N 0.72828 0.80595 0.15088 0.0
H468 H 0.76479 0.82261 0.15295 0.0
H469 H 0.73841 0.75087 0.1615 0.0
C470 C 0.78768 0.72893 0.15132 0.0
O471 O 0.77849 0.72193 0.16083 0.0
N472 N 0.82432 0.76151 0.16879 0.0
C473 C 0.82653 0.74413 0.17673 0.0
C474 C 0.85156 0.73958 0.17858 0.0
C475 C 0.84812 0.76723 0.1658 0.0
N476 N 0.86514 0.75407 0.17172 0.0
C477 C 0.80177 0.80483 0.1824 0.0
C478 C 0.76642 0.78114 0.19544 0.0
C479 C 0.78335 0.79806 0.20025 0.0
C480 C 0.80072 0.81052 0.19354 0.0
C481 C 0.76824 0.77587 0.18428 0.0
N482 N 0.78602 0.7873 0.17803 0.0
H483 H 0.81632 0.81326 0.17746 0.0
H484 H 0.75648 0.76145 0.18075 0.0
H485 H 0.81088 0.73543 0.18092 0.0
H486 H 0.85302 0.78089 0.15961 0.0
O487 O 0.80774 0.80528 0.15795 0.0
O488 O 0.80417 0.77289 0.14796 0.0
O489 O 0.79538 0.75178 0.1502 0.0
C490 C 0.81134 0.79595 0.14856 0.0
H491 H 0.70112 0.77583 0.1521 0.0
H492 H 0.8592 0.72637 0.18444 0.0
H493 H 0.75305 0.77078 0.20037 0.0
H494 H 0.81408 0.82371 0.19696 0.0
Co495 Co 0.96724 0.04932 0.89971 0.0
C496 C 0.95374 0.99669 0.89391 0.0
C497 C 0.98491 0.01035 0.88461 0.0
C498 C 0.97802 0.98736 0.88046 0.0
N499 N 0.97012 0.01604 0.89324 0.0
N500 N 0.95834 0.97885 0.88631 0.0
H501 H 0.93716 0.9967 0.89896 0.0
H502 H 0.99869 0.02282 0.88104 0.0
C503 C 0.02226 0.03929 0.89992 0.0
O504 O 0.01754 0.01657 0.90359 0.0
N505 N 0.96393 0.08274 0.90569 0.0
C506 C 0.94886 0.08939 0.91406 0.0
C507 C 0.95161 0.1147 0.91592 0.0
C508 C 0.97535 0.10411 0.90242 0.0
N509 N 0.96822 0.12394 0.90861 0.0
C510 C 0.95434 0.02139 0.91924 0.0
C511 C 0.99208 0.04161 0.93205 0.0
C512 C 0.97454 0.02556 0.93691 0.0
C513 C 0.95562 0.01513 0.93035 0.0
C514 C 0.99017 0.04726 0.92096 0.0
N515 N 0.97182 0.03681 0.91458 0.0
H516 H 0.93835 0.01509 0.91462 0.0
H517 H 0.00274 0.06127 0.91769 0.0
H518 H 0.93671 0.07667 0.91849 0.0
H519 H 0.98871 0.10506 0.89576 0.0
O520 O 0.93111 0.04734 0.89859 0.0
O521 O 0.95671 0.06163 0.88565 0.0
O522 O 0.00441 0.0547 0.89796 0.0
C523 C 0.93389 0.05683 0.88883 0.0
H524 H 0.98605 0.97826 0.87336 0.0
H525 H 0.94178 0.12557 0.92206 0.0
H526 H 0.00683 0.0503 0.93684 0.0
H527 H 0.9412 0.0033 0.9339 0.0
Co528 Co 0.79047 0.7183 0.65668 0.0
C529 C 0.74088 0.7004 0.64965 0.0
C530 C 0.74661 0.73865 0.64472 0.0
C531 C 0.72356 0.73079 0.64086 0.0
N532 N 0.7574 0.71951 0.65021 0.0
N533 N 0.72018 0.70669 0.64391 0.0
H534 H 0.74412 0.68206 0.6532 0.0
H535 H 0.75509 0.75679 0.64328 0.0
C536 C 0.8039 0.77164 0.66178 0.0
O537 O 0.81286 0.76454 0.67133 0.0
N538 N 0.8241 0.71692 0.66297 0.0
C539 C 0.83219 0.70417 0.67186 0.0
C540 C 0.85762 0.70759 0.67297 0.0
C541 C 0.84507 0.72727 0.65862 0.0
N542 N 0.86571 0.72209 0.66465 0.0
C543 C 0.7737 0.69879 0.67739 0.0
C544 C 0.75555 0.74363 0.6855 0.0
C545 C 0.75828 0.72324 0.69269 0.0
C546 C 0.76602 0.70013 0.6883 0.0
C547 C 0.76309 0.74124 0.67462 0.0
N548 N 0.77468 0.71987 0.67106 0.0
H549 H 0.78016 0.68101 0.67421 0.0
H550 H 0.76022 0.75696 0.66919 0.0
H551 H 0.82102 0.69247 0.67712 0.0
H552 H 0.84516 0.73854 0.65123 0.0
O553 O 0.7917 0.68221 0.65457 0.0
O554 O 0.80452 0.71082 0.6426 0.0
O555 O 0.79332 0.7558 0.65544 0.0
C556 C 0.80155 0.68727 0.64505 0.0
H557 H 0.71084 0.74154 0.63577 0.0
H558 H 0.86941 0.69942 0.67926 0.0
H559 H 0.74879 0.76169 0.6883 0.0
H560 H 0.76692 0.68339 0.69332 0.0
Co561 Co 0.52783 0.54875 0.90588 0.0
C562 C 0.54507 0.49729 0.90028 0.0
C563 C 0.51247 0.50782 0.89113 0.0
C564 C 0.52103 0.48521 0.88718 0.0
N565 N 0.52706 0.51514 0.89961 0.0
N566 N 0.54167 0.47874 0.89288 0.0
H567 H 0.5615 0.49871 0.90541 0.0
H568 H 0.4978 0.51904 0.88746 0.0
C569 C 0.47285 0.5366 0.90537 0.0
O570 O 0.47762 0.51391 0.90906 0.0
N571 N 0.52916 0.58242 0.91176 0.0
C572 C 0.5431 0.58978 0.92038 0.0
C573 C 0.53955 0.61507 0.92199 0.0
C574 C 0.5176 0.60339 0.90809 0.0
N575 N 0.52356 0.62364 0.91427 0.0
C576 C 0.54196 0.52245 0.92566 0.0
C577 C 0.50086 0.53778 0.93777 0.0
C578 C 0.51936 0.52327 0.94284 0.0
C579 C 0.54028 0.51574 0.93673 0.0
C580 C 0.50358 0.54458 0.92684 0.0
N581 N 0.52342 0.53617 0.92075 0.0
H582 H 0.55879 0.51771 0.92124 0.0
H583 H 0.49022 0.55771 0.92348 0.0
H584 H 0.55518 0.57759 0.92513 0.0
H585 H 0.50509 0.60378 0.9011 0.0
O586 O 0.56413 0.54878 0.90493 0.0
O587 O 0.53794 0.56121 0.89183 0.0
O588 O 0.49053 0.5524 0.90378 0.0
C589 C 0.56092 0.55765 0.89508 0.0
H590 H 0.51395 0.47543 0.88004 0.0
H591 H 0.54853 0.62641 0.92822 0.0
H592 H 0.48498 0.54485 0.94238 0.0
H593 H 0.55533 0.50515 0.94051 0.0
Co594 Co 0.69328 0.29321 0.15865 0.0
C595 C 0.7454 0.30491 0.15233 0.0
C596 C 0.73435 0.2692 0.14598 0.0
C597 C 0.75709 0.27572 0.14137 0.0
N598 N 0.72717 0.28727 0.1531 0.0
N599 N 0.76377 0.29836 0.14529 0.0
H600 H 0.74418 0.32336 0.15596 0.0
H601 H 0.72281 0.25364 0.14337 0.0
C602 C 0.69667 0.23697 0.16078 0.0
O603 O 0.71932 0.23846 0.165 0.0
N604 N 0.65957 0.2999 0.16375 0.0
C605 C 0.65309 0.31777 0.17101 0.0
C606 C 0.62765 0.31634 0.17283 0.0
C607 C 0.638 0.288 0.16111 0.0
N608 N 0.61818 0.29761 0.16663 0.0
C609 C 0.72332 0.30326 0.17814 0.0
C610 C 0.69584 0.27173 0.19159 0.0
C611 C 0.71606 0.28496 0.19603 0.0
C612 C 0.73004 0.30082 0.18919 0.0
C613 C 0.69009 0.27433 0.18054 0.0
N614 N 0.70394 0.28962 0.17386 0.0
H615 H 0.73334 0.31655 0.17316 0.0
H616 H 0.674 0.2643 0.17739 0.0
H617 H 0.66606 0.33076 0.17481 0.0
H618 H 0.63694 0.27237 0.15547 0.0
O619 O 0.69778 0.32907 0.15634 0.0
O620 O 0.68325 0.30181 0.14412 0.0
O621 O 0.68476 0.25659 0.1578 0.0
C622 C 0.68926 0.32481 0.14648 0.0
H623 H 0.7666 0.26587 0.13481 0.0
H624 H 0.61692 0.32832 0.17825 0.0
H625 H 0.68453 0.25935 0.19662 0.0
H626 H 0.74553 0.31172 0.19243 0.0
Co627 Co 0.9667 0.4505 0.40588 0.0
C628 C 0.9498 0.50172 0.39959 0.0
C629 C 0.98216 0.49002 0.39056 0.0
C630 C 0.97358 0.51213 0.38613 0.0
N631 N 0.96768 0.48369 0.39922 0.0
N632 N 0.95312 0.5194 0.39178 0.0
H633 H 0.93312 0.50059 0.40457 0.0
H634 H 0.99679 0.47839 0.38711 0.0
C635 C 0.02147 0.46253 0.40545 0.0
O636 O 0.01661 0.4853 0.40899 0.0
N637 N 0.96528 0.41712 0.41205 0.0
C638 C 0.95122 0.40987 0.42065 0.0
C639 C 0.95522 0.38469 0.42248 0.0
C640 C 0.97733 0.39625 0.40862 0.0
N641 N 0.97158 0.37615 0.41491 0.0
C642 C 0.95493 0.47968 0.42534 0.0
C643 C 0.99496 0.46179 0.43749 0.0
C644 C 0.97849 0.47895 0.44234 0.0
C645 C 0.95805 0.48774 0.43618 0.0
C646 C 0.99104 0.45412 0.42675 0.0
N647 N 0.97183 0.46373 0.42061 0.0
H648 H 0.93843 0.48552 0.42095 0.0
H649 H 0.00311 0.43964 0.42351 0.0
H650 H 0.93892 0.42209 0.42527 0.0
H651 H 0.99018 0.39587 0.40175 0.0
O652 O 0.93038 0.45068 0.4051 0.0
O653 O 0.95613 0.43734 0.39202 0.0
O654 O 0.00393 0.44663 0.40377 0.0
C655 C 0.93325 0.44109 0.39535 0.0
H656 H 0.981 0.52134 0.37892 0.0
H657 H 0.94645 0.37343 0.4288 0.0
H658 H 0.01029 0.45357 0.4421 0.0
H659 H 0.94447 0.5005 0.43973 0.0
Co660 Co 0.78741 0.28325 0.83944 0.0
C661 C 0.73909 0.30342 0.84728 0.0
C662 C 0.74272 0.26439 0.85132 0.0
C663 C 0.72054 0.27323 0.85569 0.0
N664 N 0.75434 0.28337 0.84605 0.0
N665 N 0.71847 0.29782 0.85322 0.0
H666 H 0.74323 0.32194 0.84411 0.0
H667 H 0.75012 0.24564 0.85231 0.0
C668 C 0.79893 0.22987 0.83409 0.0
O669 O 0.80804 0.23749 0.82466 0.0
N670 N 0.82116 0.28343 0.83313 0.0
C671 C 0.83 0.29662 0.8245 0.0
C672 C 0.85525 0.29216 0.82338 0.0
C673 C 0.84167 0.27188 0.83737 0.0
N674 N 0.86261 0.27662 0.83145 0.0
C675 C 0.7723 0.30139 0.81812 0.0
C676 C 0.75011 0.25714 0.81142 0.0
C677 C 0.75535 0.2756 0.80356 0.0
C678 C 0.76518 0.29863 0.80716 0.0
C679 C 0.75776 0.26071 0.82223 0.0
N680 N 0.77132 0.28145 0.82512 0.0
H681 H 0.77977 0.31917 0.82083 0.0
H682 H 0.7535 0.24627 0.82814 0.0
H683 H 0.81961 0.30949 0.81948 0.0
H684 H 0.84122 0.26012 0.84461 0.0
O685 O 0.78975 0.31934 0.84125 0.0
O686 O 0.80188 0.29078 0.85342 0.0
O687 O 0.78909 0.24558 0.84074 0.0
C688 C 0.79956 0.31432 0.85079 0.0
H689 H 0.7076 0.26272 0.86077 0.0
H690 H 0.86749 0.30042 0.81728 0.0
H691 H 0.74093 0.23973 0.80918 0.0
H692 H 0.76859 0.31392 0.8015 0.0
Co693 Co 0.95758 0.54057 0.08821 0.0
C694 C 0.94152 0.48964 0.09492 0.0
C695 C 0.97407 0.50129 0.10383 0.0
C696 C 0.96562 0.47902 0.10822 0.0
N697 N 0.95935 0.50775 0.09526 0.0
N698 N 0.94498 0.47188 0.10267 0.0
H699 H 0.92512 0.49038 0.08972 0.0
H700 H 0.98849 0.51297 0.10739 0.0
C701 C 0.01383 0.53727 0.09179 0.0
O702 O 0.0149 0.51404 0.0882 0.0
N703 N 0.95511 0.57331 0.08147 0.0
C704 C 0.94209 0.57896 0.07234 0.0
C705 C 0.94595 0.60388 0.06989 0.0
C706 C 0.96639 0.59484 0.08457 0.0
N707 N 0.96128 0.61381 0.07756 0.0
C708 C 0.955 0.50899 0.06896 0.0
C709 C 0.99393 0.53278 0.05812 0.0
C710 C 0.98001 0.51454 0.05255 0.0
C711 C 0.96061 0.50218 0.05815 0.0
C712 C 0.98768 0.53905 0.06882 0.0
N713 N 0.96854 0.52717 0.07418 0.0
H714 H 0.93896 0.5006 0.07288 0.0
H715 H 0.99747 0.55459 0.07254 0.0
H716 H 0.93094 0.56574 0.0677 0.0
H717 H 0.97855 0.59641 0.09164 0.0
O718 O 0.92146 0.53737 0.0867 0.0
O719 O 0.94156 0.55345 0.10103 0.0
O720 O 0.99298 0.54891 0.09253 0.0
C721 C 0.92036 0.54824 0.09626 0.0
H722 H 0.97264 0.47009 0.11558 0.0
H723 H 0.93806 0.6139 0.06298 0.0
H724 H 0.00909 0.54279 0.05413 0.0
H725 H 0.94907 0.48831 0.05406 0.0
Co726 Co 0.70625 0.72336 0.34382 0.0
C727 C 0.75388 0.70215 0.3528 0.0
C728 C 0.73974 0.73251 0.36246 0.0
C729 C 0.75987 0.72216 0.36784 0.0
N730 N 0.73632 0.72053 0.35282 0.0
N731 N 0.76871 0.703 0.36177 0.0
H732 H 0.75433 0.68687 0.347 0.0
H733 H 0.7274 0.74674 0.36576 0.0
C734 C 0.7197 0.77691 0.34805 0.0
O735 O 0.74334 0.77176 0.34596 0.0
N736 N 0.67558 0.72581 0.33543 0.0
C737 C 0.67079 0.71576 0.32552 0.0
C738 C 0.64602 0.72033 0.32292 0.0
C739 C 0.65372 0.73599 0.33879 0.0
N740 N 0.63529 0.73295 0.33129 0.0
C741 C 0.74335 0.71654 0.32664 0.0
C742 C 0.7317 0.76056 0.31576 0.0
C743 C 0.75129 0.74564 0.31179 0.0
C744 C 0.75682 0.7231 0.31722 0.0
C745 C 0.71871 0.75324 0.32509 0.0
N746 N 0.72531 0.73211 0.33075 0.0
H747 H 0.74696 0.69863 0.33038 0.0
H748 H 0.7029 0.76445 0.32765 0.0
H749 H 0.68423 0.70539 0.32065 0.0
H750 H 0.65135 0.74516 0.34663 0.0
O751 O 0.705 0.68728 0.34225 0.0
O752 O 0.68753 0.70928 0.35573 0.0
O753 O 0.70284 0.75985 0.34776 0.0
C754 C 0.69168 0.68755 0.3512 0.0
H755 H 0.76673 0.72763 0.37584 0.0
H756 H 0.63643 0.71408 0.31559 0.0
H757 H 0.72588 0.77745 0.3115 0.0
H758 H 0.77128 0.71059 0.31419 0.0
Co759 Co 0.52593 0.45647 0.59635 0.0
C760 C 0.54377 0.50514 0.60425 0.0
C761 C 0.50882 0.49539 0.6119 0.0
C762 C 0.51708 0.51789 0.61622 0.0
N763 N 0.52563 0.48755 0.60441 0.0
N764 N 0.53915 0.52379 0.61144 0.0
H765 H 0.56026 0.50403 0.59909 0.0
H766 H 0.49217 0.48516 0.61432 0.0
C767 C 0.47257 0.44677 0.59047 0.0
O768 O 0.47995 0.44072 0.58054 0.0
N769 N 0.5263 0.42449 0.5885 0.0
C770 C 0.53791 0.41811 0.57906 0.0
C771 C 0.53444 0.39293 0.57716 0.0
C772 C 0.5164 0.40271 0.59228 0.0
N773 N 0.52097 0.38321 0.58547 0.0
C774 C 0.54386 0.47719 0.57598 0.0
C775 C 0.50001 0.50214 0.57071 0.0
C776 C 0.51856 0.49932 0.56268 0.0
C777 C 0.54134 0.48794 0.56561 0.0
C778 C 0.50335 0.49089 0.58091 0.0
N779 N 0.52387 0.47617 0.58294 0.0
H780 H 0.56149 0.46855 0.5782 0.0
H781 H 0.48892 0.49332 0.58703 0.0
H782 H 0.54902 0.43012 0.57394 0.0
H783 H 0.50618 0.40118 0.59992 0.0
O784 O 0.56203 0.45467 0.59806 0.0
O785 O 0.53394 0.43872 0.60956 0.0
O786 O 0.48845 0.45411 0.59762 0.0
C787 C 0.55737 0.44256 0.6071 0.0
H788 H 0.50815 0.52847 0.62271 0.0
H789 H 0.54217 0.38238 0.57038 0.0
H790 H 0.48248 0.51163 0.56894 0.0
H791 H 0.55666 0.48657 0.55981 0.0
Co792 Co 0.20166 0.2802 0.34133 0.0
C793 C 0.25217 0.29842 0.34777 0.0
C794 C 0.2416 0.26535 0.35658 0.0
C795 C 0.26324 0.27473 0.36115 0.0
N796 N 0.23488 0.27981 0.34797 0.0
N797 N 0.26974 0.2957 0.35567 0.0
H798 H 0.25078 0.31482 0.34262 0.0
H799 H 0.23036 0.25035 0.35998 0.0
C800 C 0.21522 0.22561 0.34147 0.0
O801 O 0.23793 0.23133 0.33808 0.0
N802 N 0.16833 0.28123 0.3351 0.0
C803 C 0.16131 0.29535 0.32647 0.0
C804 C 0.13605 0.29209 0.32474 0.0
C805 C 0.14716 0.26984 0.33864 0.0
N806 N 0.12712 0.2761 0.33238 0.0
C807 C 0.22864 0.2959 0.32192 0.0
C808 C 0.21464 0.25503 0.30935 0.0
C809 C 0.22887 0.27408 0.30455 0.0
C810 C 0.23574 0.2949 0.31088 0.0
C811 C 0.20739 0.2571 0.32024 0.0
N812 N 0.21513 0.27684 0.32656 0.0
H813 H 0.23283 0.31262 0.32652 0.0
H814 H 0.19441 0.24332 0.32337 0.0
H815 H 0.17367 0.30754 0.32187 0.0
H816 H 0.14646 0.25741 0.34565 0.0
O817 O 0.20078 0.31645 0.34268 0.0
O818 O 0.18827 0.28915 0.35534 0.0
O819 O 0.19876 0.24272 0.34302 0.0
C820 C 0.19156 0.31239 0.35241 0.0
H821 H 0.27211 0.26796 0.36857 0.0
H822 H 0.12493 0.30141 0.31853 0.0
H823 H 0.20808 0.23922 0.30455 0.0
H824 H 0.24605 0.31037 0.30728 0.0
Co825 Co 0.46947 0.45283 0.09167 0.0
C826 C 0.45043 0.49993 0.10106 0.0
C827 C 0.48337 0.4869 0.10948 0.0
C828 C 0.47363 0.50701 0.11515 0.0
N829 N 0.46874 0.48247 0.10069 0.0
N830 N 0.4529 0.51506 0.10986 0.0
H831 H 0.43456 0.50027 0.09552 0.0
H832 H 0.49902 0.47532 0.11201 0.0
C833 C 0.52432 0.44446 0.08682 0.0
O834 O 0.51913 0.43798 0.07669 0.0
N835 N 0.47015 0.42237 0.08285 0.0
C836 C 0.45743 0.41722 0.07356 0.0
C837 C 0.46203 0.39277 0.07058 0.0
C838 C 0.48172 0.40058 0.08555 0.0
N839 N 0.47732 0.38229 0.0781 0.0
C840 C 0.44998 0.47693 0.07243 0.0
C841 C 0.49466 0.49791 0.06555 0.0
C842 C 0.47437 0.49712 0.0582 0.0
C843 C 0.45129 0.48805 0.0621 0.0
C844 C 0.49223 0.48712 0.07593 0.0
N845 N 0.471 0.47423 0.0787 0.0
H846 H 0.43229 0.46913 0.07508 0.0
H847 H 0.50784 0.48853 0.08151 0.0
H848 H 0.44477 0.42964 0.06935 0.0
H849 H 0.49307 0.39821 0.09283 0.0
O850 O 0.4334 0.44964 0.09321 0.0
O851 O 0.46176 0.43278 0.10431 0.0
O852 O 0.50696 0.45157 0.09332 0.0
C853 C 0.43826 0.43639 0.10192 0.0
H854 H 0.48058 0.51441 0.12284 0.0
H855 H 0.45388 0.38316 0.06363 0.0
H856 H 0.51268 0.5056 0.06321 0.0
H857 H 0.43455 0.48855 0.05707 0.0
Co858 Co 0.30131 0.72066 0.84194 0.0
C859 C 0.24976 0.70485 0.84852 0.0
C860 C 0.26281 0.73659 0.85762 0.0
C861 C 0.24069 0.72851 0.8622 0.0
N862 N 0.26832 0.72222 0.84882 0.0
N863 N 0.23257 0.70845 0.8565 0.0
H864 H 0.25015 0.68828 0.84344 0.0
H865 H 0.27501 0.75075 0.86107 0.0
C866 C 0.28961 0.77516 0.84254 0.0
O867 O 0.26726 0.7696 0.83867 0.0
N868 N 0.33447 0.71841 0.83556 0.0
C869 C 0.34067 0.70416 0.82687 0.0
C870 C 0.36595 0.70663 0.82494 0.0
C871 C 0.35614 0.72906 0.83897 0.0
N872 N 0.37571 0.72225 0.83254 0.0
C873 C 0.27131 0.71018 0.82255 0.0
C874 C 0.29177 0.74868 0.81023 0.0
C875 C 0.27456 0.73244 0.80528 0.0
C876 C 0.26403 0.7131 0.81159 0.0
C877 C 0.29841 0.74517 0.82113 0.0
N878 N 0.2879 0.72645 0.82728 0.0
H879 H 0.26457 0.69411 0.827 0.0
H880 H 0.31297 0.75702 0.82447 0.0
H881 H 0.32767 0.69256 0.82231 0.0
H882 H 0.35754 0.74145 0.84597 0.0
O883 O 0.30011 0.68434 0.84254 0.0
O884 O 0.31459 0.70934 0.85567 0.0
O885 O 0.30586 0.75788 0.84425 0.0
C886 C 0.30997 0.68666 0.85227 0.0
H887 H 0.23205 0.73596 0.86953 0.0
H888 H 0.37649 0.69711 0.8186 0.0
H889 H 0.30047 0.76379 0.80566 0.0
H890 H 0.25117 0.69972 0.80796 0.0
Co891 Co 0.03438 0.54196 0.59393 0.0
C892 C 0.04755 0.48974 0.60029 0.0
C893 C 0.01638 0.50393 0.60943 0.0
C894 C 0.0237 0.4815 0.614 0.0
N895 N 0.03094 0.50897 0.60064 0.0
N896 N 0.0434 0.47267 0.60827 0.0
H897 H 0.06411 0.48954 0.59521 0.0
H898 H 0.00272 0.51669 0.61289 0.0
C899 C 0.9786 0.53421 0.59442 0.0
O900 O 0.98139 0.51072 0.59138 0.0
N901 N 0.03833 0.57505 0.58766 0.0
C902 C 0.05351 0.58107 0.57924 0.0
C903 C 0.05113 0.60634 0.57714 0.0
C904 C 0.02716 0.59673 0.59069 0.0
N905 N 0.03459 0.61617 0.58433 0.0
C906 C 0.04532 0.51229 0.57455 0.0
C907 C 0.00601 0.53134 0.56228 0.0
C908 C 0.02191 0.51353 0.55752 0.0
C909 C 0.04202 0.50418 0.56372 0.0
C910 C 0.01013 0.53907 0.573 0.0
N911 N 0.02892 0.52887 0.57921 0.0
H912 H 0.0616 0.50601 0.57898 0.0
H913 H 0.99863 0.5541 0.57614 0.0
H914 H 0.06545 0.56795 0.57493 0.0
H915 H 0.01368 0.59816 0.5973 0.0
O916 O 0.07064 0.53938 0.59504 0.0
O917 O 0.04508 0.5545 0.60784 0.0
O918 O 0.99751 0.5486 0.5958 0.0
C919 C 0.0678 0.5491 0.60477 0.0
H920 H 0.01611 0.47316 0.62138 0.0
H921 H 0.06109 0.61674 0.57088 0.0
H922 H 0.99101 0.54 0.55762 0.0
H923 H 0.05519 0.49093 0.56022 0.0
Co924 Co 0.20526 0.71552 0.16326 0.0
C925 C 0.24889 0.68783 0.15433 0.0
C926 C 0.25122 0.72753 0.15132 0.0
C927 C 0.2715 0.71608 0.14646 0.0
N928 N 0.23698 0.7098 0.15613 0.0
N929 N 0.26998 0.69119 0.14836 0.0
H930 H 0.24195 0.66977 0.15705 0.0
H931 H 0.24704 0.74739 0.15122 0.0
C932 C 0.19621 0.76109 0.15269 0.0
O933 O 0.20384 0.76783 0.1625 0.0
N934 N 0.17355 0.72233 0.17051 0.0
C935 C 0.17145 0.73334 0.1804 0.0
C936 C 0.14649 0.73748 0.1826 0.0
C937 C 0.14972 0.72037 0.16672 0.0
N938 N 0.13281 0.7294 0.17399 0.0
C939 C 0.20754 0.68389 0.18233 0.0
C940 C 0.24558 0.7117 0.19195 0.0
C941 C 0.23318 0.69333 0.19818 0.0
C942 C 0.21442 0.67881 0.19315 0.0
C943 C 0.23796 0.71631 0.18124 0.0
N944 N 0.21882 0.70296 0.17673 0.0
H945 H 0.19205 0.67374 0.1787 0.0
H946 H 0.24626 0.73167 0.17671 0.0
H947 H 0.1871 0.7387 0.18554 0.0
H948 H 0.14477 0.71295 0.15877 0.0
O949 O 0.19294 0.68223 0.15807 0.0
O950 O 0.1884 0.71506 0.14838 0.0
O951 O 0.19408 0.73745 0.15057 0.0
C952 C 0.1851 0.69113 0.1491 0.0
H953 H 0.28627 0.72533 0.14189 0.0
H954 H 0.13908 0.7467 0.18981 0.0
H955 H 0.25981 0.72366 0.19555 0.0
H956 H 0.20444 0.66446 0.1977 0.0
Co957 Co 0.03524 0.45937 0.90003 0.0
C958 C 0.04826 0.51198 0.89448 0.0
C959 C 0.01629 0.499 0.88552 0.0
C960 C 0.02366 0.52169 0.8812 0.0
N961 N 0.03137 0.49303 0.89403 0.0
N962 N 0.04388 0.52974 0.88681 0.0
H963 H 0.06522 0.51144 0.89931 0.0
H964 H 0.00234 0.4867 0.88198 0.0
C965 C 0.9795 0.46657 0.90007 0.0
O966 O 0.98229 0.48955 0.90378 0.0
N967 N 0.03963 0.42564 0.90556 0.0
C968 C 0.05512 0.41872 0.91374 0.0
C969 C 0.05258 0.39331 0.91543 0.0
C970 C 0.02814 0.40436 0.90224 0.0
N971 N 0.03565 0.38431 0.9082 0.0
C972 C 0.04611 0.48691 0.91998 0.0
C973 C 0.00944 0.46331 0.93229 0.0
C974 C 0.02583 0.47998 0.93749 0.0
C975 C 0.04416 0.49219 0.93119 0.0
C976 C 0.012 0.45864 0.92115 0.0
N977 N 0.02987 0.47061 0.91504 0.0
H978 H 0.06155 0.49483 0.91549 0.0
H979 H 0.00037 0.44418 0.91762 0.0
H980 H 0.06725 0.43136 0.91823 0.0
H981 H 0.01429 0.40365 0.89576 0.0
O982 O 0.07137 0.46259 0.89899 0.0
O983 O 0.04613 0.44841 0.88588 0.0
O984 O 0.99842 0.45257 0.89811 0.0
C985 C 0.06881 0.45366 0.88911 0.0
H986 H 0.01582 0.53066 0.87402 0.0
H987 H 0.06256 0.38224 0.92147 0.0
H988 H 0.9951 0.45337 0.93684 0.0
H989 H 0.05761 0.50473 0.93498 0.0
Co990 Co 0.29658 0.28194 0.65362 0.0
C991 C 0.24406 0.29498 0.64767 0.0
C992 C 0.25637 0.26125 0.63984 0.0
C993 C 0.23366 0.26811 0.63538 0.0
N994 N 0.26277 0.27776 0.64777 0.0
N995 N 0.22602 0.28941 0.64029 0.0
H996 H 0.24493 0.31279 0.65187 0.0
H997 H 0.26835 0.24644 0.63679 0.0
C998 C 0.28723 0.22715 0.65591 0.0
O999 O 0.26484 0.23225 0.65983 0.0
N1000 N 0.33047 0.28671 0.65897 0.0
C1001 C 0.33739 0.30355 0.66662 0.0
C1002 C 0.36284 0.30162 0.66827 0.0
C1003 C 0.35187 0.27499 0.6559 0.0
N1004 N 0.37196 0.28369 0.66155 0.0
C1005 C 0.2686 0.29612 0.67312 0.0
C1006 C 0.2919 0.26143 0.68659 0.0
C1007 C 0.27437 0.27792 0.69115 0.0
C1008 C 0.26247 0.29537 0.68428 0.0
C1009 C 0.29734 0.26274 0.67549 0.0
N1010 N 0.28534 0.27946 0.66878 0.0
H1011 H 0.26072 0.31081 0.66817 0.0
H1012 H 0.31206 0.25078 0.67237 0.0
H1013 H 0.32474 0.31636 0.67072 0.0
H1014 H 0.35266 0.26032 0.64978 0.0
O1015 O 0.29395 0.31778 0.65135 0.0
O1016 O 0.30765 0.29005 0.63913 0.0
O1017 O 0.30226 0.24462 0.65301 0.0
C1018 C 0.30263 0.3133 0.64156 0.0
H1019 H 0.22433 0.25901 0.62858 0.0
H1020 H 0.37388 0.31286 0.67387 0.0
H1021 H 0.30164 0.24773 0.69159 0.0
H1022 H 0.24931 0.30892 0.68757 0.0
Co1023 Co 0.47201 0.53522 0.41499 0.0
C1024 C 0.44334 0.49211 0.40583 0.0
C1025 C 0.48232 0.48358 0.40835 0.0
C1026 C 0.47075 0.46272 0.40407 0.0
N1027 N 0.4652 0.502 0.40943 0.0
N1028 N 0.44625 0.46808 0.40246 0.0
H1029 H 0.42568 0.50213 0.40576 0.0
H1030 H 0.50191 0.48514 0.41054 0.0
C1031 C 0.51839 0.53667 0.40386 0.0
O1032 O 0.52474 0.52744 0.41345 0.0
N1033 N 0.47993 0.56821 0.42073 0.0
C1034 C 0.49364 0.57195 0.42984 0.0
C1035 C 0.49686 0.59732 0.43136 0.0
C1036 C 0.47521 0.59147 0.41672 0.0
N1037 N 0.4853 0.60965 0.42311 0.0
C1038 C 0.43917 0.539 0.43362 0.0
C1039 C 0.46602 0.50397 0.44564 0.0
C1040 C 0.4474 0.51818 0.45091 0.0
C1041 C 0.43337 0.53541 0.44469 0.0
C1042 C 0.47126 0.50826 0.43464 0.0
N1043 N 0.45832 0.52589 0.42892 0.0
H1044 H 0.42944 0.55339 0.42904 0.0
H1045 H 0.4869 0.49867 0.43085 0.0
H1046 H 0.50116 0.55713 0.43494 0.0
H1047 H 0.46478 0.59517 0.4093 0.0
O1048 O 0.43964 0.54765 0.40876 0.0
O1049 O 0.47339 0.54829 0.39947 0.0
O1050 O 0.49511 0.54209 0.40209 0.0
C1051 C 0.44961 0.55279 0.39962 0.0
H1052 H 0.47983 0.44512 0.40208 0.0
H1053 H 0.5076 0.60596 0.43787 0.0
H1054 H 0.47777 0.49094 0.45013 0.0
H1055 H 0.41887 0.54675 0.44845 0.0
C1056 C 0.58185 0.27946 0.15665 0.0
C1057 C 0.5923 0.28959 0.16626 0.0
C1058 C 0.55633 0.273 0.15623 0.0
C1059 C 0.49599 0.28563 0.17059 0.0
H1060 H 0.47262 0.22631 0.15526 0.0
C1061 C 0.39711 0.24452 0.17712 0.0
C1062 C 0.38366 0.23652 0.16785 0.0
C1063 C 0.42228 0.25166 0.17624 0.0
C1064 C 0.47884 0.2431 0.15947 0.0
H1065 H 0.58446 0.2996 0.18312 0.0
H1066 H 0.54037 0.28802 0.18248 0.0
H1067 H 0.51731 0.23686 0.15508 0.0
H1068 H 0.38616 0.2296 0.15039 0.0
H1069 H 0.43031 0.24207 0.14886 0.0
H1070 H 0.45765 0.29157 0.17518 0.0
C1071 C 0.55153 0.28581 0.17513 0.0
C1072 C 0.50445 0.24917 0.15936 0.0
C1073 C 0.57688 0.29241 0.17551 0.0
C1074 C 0.39596 0.23591 0.15766 0.0
C1075 C 0.42128 0.24281 0.1568 0.0
C1076 C 0.47049 0.27946 0.17077 0.0
C1077 C 0.54077 0.27637 0.16544 0.0
C1078 C 0.5134 0.27037 0.16504 0.0
C1079 C 0.43471 0.25078 0.16609 0.0
C1080 C 0.46164 0.25799 0.16532 0.0
H1081 H 0.59322 0.27721 0.14937 0.0
H1082 H 0.54869 0.26594 0.14861 0.0
H1083 H 0.50203 0.30245 0.17483 0.0
H1084 H 0.38811 0.24538 0.18505 0.0
H1085 H 0.43215 0.25749 0.18357 0.0
C1086 C 0.03058 0.15365 0.40408 0.0
C1087 C 0.03608 0.14311 0.41437 0.0
C1088 C 0.02448 0.17921 0.40315 0.0
C1089 C 0.03047 0.23925 0.4186 0.0
H1090 H 0.97905 0.26342 0.39872 0.0
C1091 C 0.98426 0.33603 0.42335 0.0
C1092 C 0.98084 0.35081 0.41394 0.0
C1093 C 0.99246 0.31121 0.42251 0.0
C1094 C 0.99368 0.25695 0.40421 0.0
H1095 H 0.03809 0.15073 0.43177 0.0
H1096 H 0.02703 0.19482 0.43023 0.0
H1097 H 0.98986 0.21873 0.39894 0.0
H1098 H 0.98327 0.35111 0.39623 0.0
H1099 H 0.99743 0.30734 0.39472 0.0
H1100 H 0.03376 0.27727 0.4241 0.0
C1101 C 0.02827 0.18377 0.4228 0.0
C1102 C 0.9999 0.23136 0.40433 0.0
C1103 C 0.03453 0.15842 0.42371 0.0
C1104 C 0.98592 0.3402 0.40362 0.0
C1105 C 0.99381 0.31515 0.40276 0.0
C1106 C 0.0241 0.26468 0.41854 0.0
C1107 C 0.0236 0.19468 0.41251 0.0
C1108 C 0.01807 0.2221 0.41168 0.0
C1109 C 0.99719 0.30041 0.41221 0.0
C1110 C 0.00536 0.27377 0.41149 0.0
H1111 H 0.03175 0.14233 0.39674 0.0
H1112 H 0.0211 0.18696 0.39508 0.0
H1113 H 0.04506 0.233 0.42415 0.0
H1114 H 0.98071 0.34375 0.43141 0.0
H1115 H 0.99468 0.30029 0.42994 0.0
C1116 C 0.08631 0.77064 0.66944 0.0
C1117 C 0.10171 0.76998 0.66011 0.0
C1118 C 0.06066 0.76578 0.66865 0.0
C1119 C 0.01094 0.7381 0.65128 0.0
H1120 H 0.96846 0.78058 0.66925 0.0
C1121 C 0.90119 0.73168 0.65217 0.0
C1122 C 0.89124 0.72998 0.66281 0.0
C1123 C 0.92658 0.73776 0.65058 0.0
C1124 C 0.98005 0.76856 0.66419 0.0
H1125 H 0.10246 0.76271 0.64267 0.0
H1126 H 0.0572 0.75431 0.64122 0.0
H1127 H 0.01351 0.78802 0.66875 0.0
H1128 H 0.89973 0.73413 0.68006 0.0
H1129 H 0.9437 0.74499 0.67732 0.0
H1130 H 0.97713 0.7186 0.6468 0.0
C1131 C 0.06513 0.7585 0.64918 0.0
C1132 C 0.00591 0.77272 0.66393 0.0
C1133 C 0.09102 0.76326 0.65 0.0
C1134 C 0.90694 0.7351 0.67178 0.0
C1135 C 0.93207 0.7415 0.6702 0.0
C1136 C 0.9849 0.73402 0.65149 0.0
C1137 C 0.04957 0.7603 0.65847 0.0
C1138 C 0.0218 0.75713 0.65773 0.0
C1139 C 0.94226 0.74273 0.6596 0.0
C1140 C 0.9693 0.74883 0.65817 0.0
H1141 H 0.09412 0.7752 0.67738 0.0
H1142 H 0.04945 0.76654 0.67604 0.0
H1143 H 0.02262 0.72574 0.64642 0.0
H1144 H 0.88952 0.72764 0.64513 0.0
H1145 H 0.93393 0.73867 0.64231 0.0
C1146 C 0.5129 0.66485 0.9222 0.0
C1147 C 0.51543 0.64932 0.91297 0.0
C1148 C 0.50703 0.69025 0.92105 0.0
C1149 C 0.48218 0.7381 0.90168 0.0
H1150 H 0.51523 0.7837 0.92184 0.0
C1151 C 0.47294 0.84742 0.89952 0.0
C1152 C 0.46759 0.85907 0.90959 0.0
C1153 C 0.47953 0.82191 0.89913 0.0
C1154 C 0.50577 0.77121 0.91618 0.0
H1155 H 0.51315 0.64818 0.89527 0.0
H1156 H 0.5032 0.69287 0.89319 0.0
H1157 H 0.5248 0.73907 0.92254 0.0
H1158 H 0.46565 0.85326 0.92714 0.0
H1159 H 0.47724 0.80905 0.92647 0.0
H1160 H 0.4633 0.77062 0.8953 0.0
C1161 C 0.50548 0.68527 0.90136 0.0
C1162 C 0.51115 0.74556 0.91661 0.0
C1163 C 0.51118 0.65966 0.90253 0.0
C1164 C 0.46938 0.8448 0.91925 0.0
C1165 C 0.47625 0.81951 0.91887 0.0
C1166 C 0.47693 0.7639 0.9012 0.0
C1167 C 0.50376 0.70099 0.91061 0.0
C1168 C 0.49907 0.72854 0.90953 0.0
C1169 C 0.48132 0.80771 0.90882 0.0
C1170 C 0.48834 0.78066 0.90859 0.0
H1171 H 0.51553 0.65731 0.93036 0.0
H1172 H 0.50511 0.70151 0.92839 0.0
H1173 H 0.47241 0.72559 0.89614 0.0
H1174 H 0.47155 0.8579 0.89195 0.0
H1175 H 0.48345 0.81336 0.89126 0.0
C1176 C 0.41182 0.78288 0.34537 0.0
C1177 C 0.39977 0.79067 0.3357 0.0
C1178 C 0.4375 0.77708 0.34536 0.0
C1179 C 0.49571 0.7868 0.32895 0.0
H1180 H 0.52139 0.73142 0.34627 0.0
C1181 C 0.59523 0.74612 0.32279 0.0
C1182 C 0.60931 0.7404 0.33221 0.0
C1183 C 0.56993 0.75289 0.32362 0.0
C1184 C 0.51454 0.74711 0.34148 0.0
H1185 H 0.40513 0.79752 0.31835 0.0
H1186 H 0.44954 0.78711 0.31827 0.0
H1187 H 0.47673 0.74166 0.34696 0.0
H1188 H 0.60767 0.73707 0.34989 0.0
H1189 H 0.56343 0.74891 0.35134 0.0
H1190 H 0.53345 0.79191 0.32332 0.0
C1191 C 0.43946 0.78618 0.32596 0.0
C1192 C 0.48892 0.75304 0.34188 0.0
C1193 C 0.41391 0.79213 0.326 0.0
C1194 C 0.59745 0.74162 0.34249 0.0
C1195 C 0.57204 0.74815 0.34331 0.0
C1196 C 0.52124 0.78076 0.32849 0.0
C1197 C 0.4517 0.77876 0.33565 0.0
C1198 C 0.47912 0.77286 0.33556 0.0
C1199 C 0.55799 0.75388 0.33388 0.0
C1200 C 0.53095 0.76075 0.33469 0.0
H1201 H 0.40151 0.78176 0.35299 0.0
H1202 H 0.44629 0.77172 0.35301 0.0
H1203 H 0.48903 0.80255 0.32416 0.0
H1204 H 0.60385 0.74556 0.31477 0.0
H1205 H 0.55959 0.75697 0.31618 0.0
C1206 C 0.51051 0.34187 0.5776 0.0
C1207 C 0.51444 0.35708 0.58684 0.0
C1208 C 0.50631 0.31613 0.57872 0.0
C1209 C 0.48799 0.26619 0.59834 0.0
H1210 H 0.51877 0.22342 0.57641 0.0
C1211 C 0.4797 0.15661 0.59838 0.0
C1212 C 0.47219 0.14657 0.58825 0.0
C1213 C 0.48696 0.18191 0.5992 0.0
C1214 C 0.51002 0.2351 0.58259 0.0
H1215 H 0.51637 0.35721 0.60457 0.0
H1216 H 0.50915 0.31196 0.60656 0.0
H1217 H 0.52667 0.26842 0.5761 0.0
H1218 H 0.46736 0.15476 0.571 0.0
H1219 H 0.48019 0.19852 0.57238 0.0
H1220 H 0.47128 0.23255 0.60477 0.0
C1221 C 0.50914 0.32008 0.59842 0.0
C1222 C 0.51443 0.26094 0.58239 0.0
C1223 C 0.51324 0.34601 0.5973 0.0
C1224 C 0.47283 0.16204 0.57893 0.0
C1225 C 0.48038 0.18706 0.57971 0.0
C1226 C 0.48369 0.24019 0.59858 0.0
C1227 C 0.50607 0.30474 0.58912 0.0
C1228 C 0.50298 0.27695 0.59008 0.0
C1229 C 0.4873 0.19741 0.58986 0.0
C1230 C 0.49419 0.22446 0.59054 0.0
H1231 H 0.51079 0.3499 0.56946 0.0
H1232 H 0.50327 0.30512 0.57138 0.0
H1233 H 0.47881 0.27792 0.60437 0.0
H1234 H 0.47923 0.14512 0.6057 0.0
H1235 H 0.49232 0.18934 0.60713 0.0
C1236 C 0.08288 0.22813 0.82533 0.0
C1237 C 0.09859 0.22841 0.83458 0.0
C1238 C 0.0571 0.23214 0.82635 0.0
C1239 C 0.00753 0.25766 0.8444 0.0
H1240 H 0.96487 0.21664 0.82587 0.0
C1241 C 0.89787 0.2652 0.8438 0.0
C1242 C 0.88783 0.26762 0.8332 0.0
C1243 C 0.92317 0.25852 0.84528 0.0
C1244 C 0.9765 0.22826 0.8311 0.0
H1245 H 0.09955 0.23395 0.85215 0.0
H1246 H 0.05418 0.24096 0.85397 0.0
H1247 H 0.00998 0.20942 0.82607 0.0
H1248 H 0.89599 0.26399 0.8159 0.0
H1249 H 0.93975 0.25214 0.81844 0.0
H1250 H 0.97375 0.27664 0.84931 0.0
C1251 C 0.06197 0.23769 0.8459 0.0
C1252 C 0.00241 0.22421 0.83118 0.0
C1253 C 0.08795 0.23373 0.84487 0.0
C1254 C 0.90328 0.26246 0.82416 0.0
C1255 C 0.9283 0.25549 0.82562 0.0
C1256 C 0.98146 0.26165 0.84435 0.0
C1257 C 0.04617 0.23646 0.83666 0.0
C1258 C 0.01837 0.2393 0.83759 0.0
C1259 C 0.93867 0.25367 0.83618 0.0
C1260 C 0.96576 0.24741 0.83747 0.0
H1261 H 0.09053 0.22471 0.81726 0.0
H1262 H 0.0457 0.23182 0.819 0.0
H1263 H 0.01925 0.26965 0.84942 0.0
H1264 H 0.88639 0.26924 0.8509 0.0
H1265 H 0.93062 0.25716 0.85351 0.0
C1266 C 0.03063 0.83316 0.08537 0.0
C1267 C 0.0337 0.84452 0.07506 0.0
C1268 C 0.02439 0.80771 0.08621 0.0
C1269 C 0.02416 0.74834 0.07027 0.0
H1270 H 0.97507 0.72705 0.09182 0.0
C1271 C 0.97434 0.65261 0.06806 0.0
C1272 C 0.97101 0.63907 0.07784 0.0
C1273 C 0.98355 0.67715 0.06826 0.0
C1274 C 0.98905 0.73265 0.08586 0.0
H1275 H 0.03223 0.83807 0.05754 0.0
H1276 H 0.02116 0.79386 0.05897 0.0
H1277 H 0.98806 0.77098 0.09112 0.0
H1278 H 0.97477 0.64072 0.0955 0.0
H1279 H 0.99094 0.68375 0.09585 0.0
H1280 H 0.02473 0.7101 0.06487 0.0
C1281 C 0.0241 0.80443 0.06644 0.0
C1282 C 0.99652 0.75782 0.08546 0.0
C1283 C 0.03042 0.82983 0.06561 0.0
C1284 C 0.97726 0.65061 0.08783 0.0
C1285 C 0.98632 0.6753 0.08804 0.0
C1286 C 0.0166 0.72323 0.07064 0.0
C1287 C 0.02101 0.79303 0.07675 0.0
C1288 C 0.01397 0.76604 0.07757 0.0
C1289 C 0.98956 0.68882 0.07824 0.0
C1290 C 0.99875 0.71516 0.07835 0.0
H1291 H 0.03337 0.84384 0.09282 0.0
H1292 H 0.02252 0.79947 0.09428 0.0
H1293 H 0.03803 0.75387 0.06425 0.0
H1294 H 0.97004 0.64417 0.06022 0.0
H1295 H 0.9856 0.68714 0.06058 0.0
C1296 C 0.60252 0.7618 0.84446 0.0
C1297 C 0.61391 0.76549 0.83419 0.0
C1298 C 0.57679 0.7564 0.84521 0.0
C1299 C 0.52378 0.73134 0.82907 0.0
H1300 H 0.48132 0.76861 0.84911 0.0
C1301 C 0.41695 0.73059 0.82413 0.0
C1302 C 0.40183 0.7291 0.83353 0.0
C1303 C 0.4427 0.73502 0.82499 0.0
C1304 C 0.49294 0.75778 0.84357 0.0
H1305 H 0.60739 0.7657 0.81668 0.0
H1306 H 0.56275 0.75621 0.81796 0.0
H1307 H 0.52683 0.7752 0.84935 0.0
H1308 H 0.40181 0.73184 0.85123 0.0
H1309 H 0.4471 0.73939 0.85278 0.0
H1310 H 0.49022 0.71386 0.82328 0.0
C1311 C 0.57359 0.75753 0.82544 0.0
C1312 C 0.51902 0.76157 0.84371 0.0
C1313 C 0.59914 0.76318 0.82471 0.0
C1314 C 0.41297 0.73303 0.84384 0.0
C1315 C 0.43891 0.73733 0.84471 0.0
C1316 C 0.49785 0.72746 0.82897 0.0
C1317 C 0.56205 0.7542 0.83569 0.0
C1318 C 0.53466 0.74872 0.83631 0.0
C1319 C 0.45418 0.73791 0.83529 0.0
C1320 C 0.48199 0.74099 0.83606 0.0
H1321 H 0.61337 0.76368 0.85192 0.0
H1322 H 0.56846 0.7538 0.85322 0.0
H1323 H 0.53536 0.72078 0.82342 0.0
H1324 H 0.40885 0.7282 0.81607 0.0
H1325 H 0.45366 0.73609 0.81753 0.0
C1326 C 0.02548 0.65659 0.57528 0.0
C1327 C 0.02665 0.64205 0.58487 0.0
C1328 C 0.01872 0.6819 0.57572 0.0
C1329 C 0.01763 0.73688 0.59376 0.0
H1330 H 0.97223 0.7634 0.57178 0.0
C1331 C 0.98585 0.84187 0.59244 0.0
C1332 C 0.98308 0.85265 0.582 0.0
C1333 C 0.99074 0.81609 0.59357 0.0
C1334 C 0.98518 0.75642 0.57791 0.0
H1335 H 0.02158 0.6427 0.60247 0.0
H1336 H 0.00983 0.68727 0.60326 0.0
H1337 H 0.98073 0.71854 0.57239 0.0
H1338 H 0.98471 0.84519 0.56458 0.0
H1339 H 0.99366 0.80066 0.56649 0.0
H1340 H 0.02251 0.77493 0.59912 0.0
C1341 C 0.01418 0.67892 0.5954 0.0
C1342 C 0.98995 0.73065 0.57828 0.0
C1343 C 0.02068 0.6534 0.59494 0.0
C1344 C 0.98621 0.83735 0.57273 0.0
C1345 C 0.99124 0.81175 0.57384 0.0
C1346 C 0.01297 0.7628 0.59334 0.0
C1347 C 0.01312 0.69344 0.58577 0.0
C1348 C 0.00653 0.7206 0.58608 0.0
C1349 C 0.99308 0.80062 0.58427 0.0
C1350 C 0.99701 0.77295 0.58528 0.0
H1351 H 0.02971 0.64835 0.56739 0.0
H1352 H 0.01831 0.69259 0.56816 0.0
H1353 H 0.03061 0.72971 0.59983 0.0
H1354 H 0.98336 0.85316 0.59973 0.0
H1355 H 0.99193 0.80817 0.60173 0.0
C1356 C 0.90208 0.22839 0.34533 0.0
C1357 C 0.89114 0.22458 0.33498 0.0
C1358 C 0.92745 0.23524 0.34623 0.0
C1359 C 0.97927 0.2639 0.3305 0.0
H1360 H 0.02367 0.22633 0.34964 0.0
C1361 C 0.08557 0.26709 0.32441 0.0
C1362 C 0.10124 0.26859 0.33364 0.0
C1363 C 0.05999 0.2621 0.32554 0.0
C1364 C 0.01148 0.23725 0.34437 0.0
H1365 H 0.8979 0.22582 0.31749 0.0
H1366 H 0.94184 0.23786 0.31903 0.0
H1367 H 0.97838 0.21828 0.35008 0.0
H1368 H 0.10244 0.26523 0.35131 0.0
H1369 H 0.05744 0.25658 0.35334 0.0
H1370 H 0.01206 0.2828 0.32472 0.0
C1371 C 0.93099 0.23549 0.32646 0.0
C1372 C 0.98554 0.23265 0.34463 0.0
C1373 C 0.90586 0.22839 0.32558 0.0
C1374 C 0.09085 0.26406 0.34404 0.0
C1375 C 0.06508 0.25915 0.34519 0.0
C1376 C 0.00505 0.26857 0.33028 0.0
C1377 C 0.94217 0.23883 0.33679 0.0
C1378 C 0.96924 0.24554 0.33751 0.0
C1379 C 0.04926 0.2586 0.33595 0.0
C1380 C 0.0216 0.2549 0.337 0.0
H1381 H 0.8912 0.22541 0.35271 0.0
H1382 H 0.93554 0.23779 0.3543 0.0
H1383 H 0.96715 0.2745 0.32507 0.0
H1384 H 0.0931 0.26992 0.31627 0.0
H1385 H 0.04857 0.26107 0.31821 0.0
C1386 C 0.52523 0.15615 0.08339 0.0
C1387 C 0.52568 0.14527 0.07288 0.0
C1388 C 0.52176 0.18211 0.08466 0.0
C1389 C 0.49494 0.23627 0.06981 0.0
H1390 H 0.53122 0.27713 0.09081 0.0
C1391 C 0.48875 0.34344 0.0683 0.0
C1392 C 0.48587 0.35655 0.0782 0.0
C1393 C 0.495 0.31799 0.06826 0.0
C1394 C 0.52075 0.26591 0.08499 0.0
H1395 H 0.52442 0.15344 0.0555 0.0
H1396 H 0.51845 0.1984 0.05768 0.0
H1397 H 0.53972 0.23195 0.08968 0.0
H1398 H 0.48814 0.3533 0.09587 0.0
H1399 H 0.499 0.30857 0.09583 0.0
H1400 H 0.47591 0.26989 0.06511 0.0
C1401 C 0.52012 0.18689 0.06496 0.0
C1402 C 0.52563 0.24004 0.08434 0.0
C1403 C 0.52356 0.16107 0.0637 0.0
C1404 C 0.49034 0.34376 0.0881 0.0
C1405 C 0.49655 0.31814 0.08807 0.0
C1406 C 0.49008 0.26197 0.07047 0.0
C1407 C 0.51866 0.19771 0.07544 0.0
C1408 C 0.51301 0.22499 0.07662 0.0
C1409 C 0.49846 0.30484 0.07814 0.0
C1410 C 0.50315 0.27723 0.07794 0.0
H1411 H 0.52665 0.14452 0.09064 0.0
H1412 H 0.52063 0.18983 0.09285 0.0
H1413 H 0.4844 0.22516 0.06397 0.0
H1414 H 0.48604 0.35285 0.06053 0.0
H1415 H 0.49698 0.30855 0.06045 0.0
C1416 C 0.59719 0.23233 0.6513 0.0
C1417 C 0.60788 0.22935 0.66176 0.0
C1418 C 0.57187 0.23922 0.65017 0.0
C1419 C 0.51999 0.27004 0.66494 0.0
H1420 H 0.47555 0.23041 0.64666 0.0
C1421 C 0.41339 0.27684 0.67006 0.0
C1422 C 0.39791 0.27605 0.66075 0.0
C1423 C 0.43896 0.27139 0.6693 0.0
C1424 C 0.48772 0.24194 0.65167 0.0
H1425 H 0.60074 0.23206 0.67917 0.0
H1426 H 0.55687 0.24438 0.67724 0.0
H1427 H 0.52071 0.22173 0.64667 0.0
H1428 H 0.39706 0.26827 0.64335 0.0
H1429 H 0.44207 0.25903 0.64193 0.0
H1430 H 0.4874 0.29037 0.66995 0.0
C1431 C 0.56789 0.24126 0.6699 0.0
C1432 C 0.51361 0.23694 0.65168 0.0
C1433 C 0.59297 0.23403 0.67102 0.0
C1434 C 0.40851 0.26891 0.65067 0.0
C1435 C 0.4343 0.26363 0.64988 0.0
C1436 C 0.49427 0.27518 0.66487 0.0
C1437 C 0.55695 0.24373 0.65948 0.0
C1438 C 0.52993 0.2506 0.6585 0.0
C1439 C 0.44995 0.26521 0.65917 0.0
C1440 C 0.47765 0.26083 0.65845 0.0
H1441 H 0.60822 0.22866 0.64403 0.0
H1442 H 0.56397 0.24109 0.64204 0.0
H1443 H 0.53214 0.2812 0.67014 0.0
H1444 H 0.40568 0.28174 0.67798 0.0
H1445 H 0.45014 0.27203 0.67671 0.0
C1446 C 0.48764 0.65284 0.43044 0.0
C1447 C 0.48509 0.63656 0.42145 0.0
C1448 C 0.48973 0.67875 0.42892 0.0
C1449 C 0.47947 0.73126 0.40958 0.0
H1450 H 0.53111 0.76295 0.42719 0.0
C1451 C 0.51012 0.83688 0.40529 0.0
C1452 C 0.51628 0.84927 0.4151 0.0
C1453 C 0.50454 0.81105 0.40531 0.0
C1454 C 0.51638 0.75454 0.42229 0.0
H1455 H 0.48169 0.63509 0.40376 0.0
H1456 H 0.48528 0.68061 0.40109 0.0
H1457 H 0.5245 0.71798 0.42857 0.0
H1458 H 0.51946 0.84479 0.43268 0.0
H1459 H 0.50944 0.80029 0.43277 0.0
H1460 H 0.47137 0.76817 0.40336 0.0
C1461 C 0.48563 0.67315 0.40935 0.0
C1462 C 0.51261 0.72867 0.42308 0.0
C1463 C 0.48356 0.64706 0.41088 0.0
C1464 C 0.51542 0.83566 0.42495 0.0
C1465 C 0.50974 0.81009 0.42499 0.0
C1466 C 0.48322 0.75735 0.40881 0.0
C1467 C 0.48932 0.68923 0.41835 0.0
C1468 C 0.49385 0.7167 0.41689 0.0
C1469 C 0.50492 0.79722 0.41515 0.0
C1470 C 0.50146 0.76936 0.41532 0.0
H1471 H 0.48823 0.64555 0.43871 0.0
H1472 H 0.49189 0.69061 0.43607 0.0
H1473 H 0.46485 0.72262 0.40469 0.0
H1474 H 0.51067 0.8469 0.39757 0.0
H1475 H 0.50091 0.80176 0.39758 0.0
C1476 C 0.09034 0.73177 0.18205 0.0
C1477 C 0.10591 0.73165 0.17276 0.0
C1478 C 0.0645 0.73559 0.18105 0.0
C1479 C 0.01129 0.73396 0.16148 0.0
H1480 H 0.97934 0.77477 0.18379 0.0
C1481 C 0.90449 0.75879 0.16101 0.0
C1482 C 0.89218 0.75497 0.17107 0.0
C1483 C 0.9308 0.7579 0.1604 0.0
C1484 C 0.98795 0.76326 0.17751 0.0
H1485 H 0.10631 0.735 0.15506 0.0
H1486 H 0.06102 0.74177 0.1533 0.0
H1487 H 0.02465 0.76886 0.18416 0.0
H1488 H 0.89782 0.74821 0.18839 0.0
H1489 H 0.94342 0.74673 0.18736 0.0
H1490 H 0.97432 0.72835 0.15489 0.0
C1491 C 0.06887 0.7387 0.16138 0.0
C1492 C 0.01394 0.75977 0.17774 0.0
C1493 C 0.09484 0.73478 0.16238 0.0
C1494 C 0.90672 0.75095 0.18051 0.0
C1495 C 0.93289 0.75033 0.17993 0.0
C1496 C 0.9852 0.73755 0.16122 0.0
C1497 C 0.05343 0.73951 0.17073 0.0
C1498 C 0.02593 0.74464 0.16988 0.0
C1499 C 0.94528 0.75358 0.16987 0.0
C1500 C 0.97318 0.75183 0.16938 0.0
H1501 H 0.09814 0.72888 0.19014 0.0
H1502 H 0.05316 0.7354 0.18841 0.0
H1503 H 0.01985 0.7221 0.15532 0.0
H1504 H 0.89376 0.76179 0.15359 0.0
H1505 H 0.93982 0.76061 0.15254 0.0
C1506 C 0.02121 0.34806 0.89713 0.0
C1507 C 0.02717 0.35867 0.90735 0.0
C1508 C 0.01402 0.32277 0.89636 0.0
C1509 C 0.98681 0.27136 0.91253 0.0
H1510 H 0.02039 0.22653 0.89224 0.0
C1511 C 0.97783 0.16473 0.91716 0.0
C1512 C 0.97614 0.14975 0.90773 0.0
C1513 C 0.98386 0.19018 0.91639 0.0
C1514 C 0.01052 0.23882 0.89784 0.0
H1515 H 0.02955 0.3514 0.92477 0.0
H1516 H 0.01674 0.30754 0.92347 0.0
H1517 H 0.03013 0.27144 0.892 0.0
H1518 H 0.9799 0.1496 0.89008 0.0
H1519 H 0.98998 0.19437 0.88864 0.0
H1520 H 0.96698 0.23916 0.91833 0.0
C1521 C 0.01779 0.31862 0.91604 0.0
C1522 C 0.01615 0.26455 0.8977 0.0
C1523 C 0.02532 0.34368 0.91678 0.0
C1524 C 0.98123 0.16068 0.89749 0.0
C1525 C 0.98702 0.18633 0.89668 0.0
C1526 C 0.98099 0.24579 0.91259 0.0
C1527 C 0.01219 0.30783 0.90583 0.0
C1528 C 0.00469 0.28098 0.9052 0.0
C1529 C 0.98806 0.2015 0.90613 0.0
C1530 C 0.99315 0.22904 0.90542 0.0
H1531 H 0.02264 0.35916 0.88972 0.0
H1532 H 0.00971 0.31496 0.88839 0.0
H1533 H 0.97736 0.28365 0.91827 0.0
H1534 H 0.97452 0.15672 0.92518 0.0
H1535 H 0.98523 0.20097 0.92388 0.0
C1536 C 0.45088 0.0525 0.09756 0.0
C1537 C 0.47642 0.05628 0.09995 0.0
C1538 C 0.43235 0.06198 0.10448 0.0
C1539 C 0.42353 0.11417 0.12324 0.0
H1540 H 0.35819 0.08381 0.12803 0.0
C1541 C 0.3253 0.1427 0.1458 0.0
C1542 C 0.3228 0.16697 0.1414 0.0
C1543 C 0.34345 0.12622 0.14167 0.0
C1544 C 0.37644 0.09238 0.12685 0.0
H1545 H 0.50255 0.07134 0.11187 0.0
H1546 H 0.47014 0.08793 0.124 0.0
H1547 H 0.39221 0.05874 0.12009 0.0
H1548 H 0.33627 0.19253 0.12885 0.0
H1549 H 0.36764 0.16384 0.12165 0.0
H1550 H 0.40778 0.14785 0.12979 0.0
C1551 C 0.46449 0.07796 0.11666 0.0
C1552 C 0.39583 0.07813 0.12226 0.0
C1553 C 0.48306 0.06845 0.10973 0.0
C1554 C 0.33785 0.17402 0.13248 0.0
C1555 C 0.35596 0.15767 0.1284 0.0
C1556 C 0.40419 0.12837 0.12776 0.0
C1557 C 0.43896 0.07542 0.11395 0.0
C1558 C 0.41942 0.08906 0.12021 0.0
C1559 C 0.3594 0.1339 0.13313 0.0
C1560 C 0.3803 0.11782 0.12935 0.0
H1561 H 0.44513 0.04304 0.09012 0.0
H1562 H 0.41286 0.05992 0.1021 0.0
H1563 H 0.44138 0.12324 0.12166 0.0
H1564 H 0.31395 0.1368 0.1527 0.0
H1565 H 0.34572 0.10794 0.14543 0.0
C1566 C 0.18357 0.19149 0.34249 0.0
C1567 C 0.2085 0.1994 0.34385 0.0
C1568 C 0.17623 0.16761 0.34587 0.0
C1569 C 0.18802 0.12472 0.36746 0.0
H1570 H 0.14069 0.08278 0.35172 0.0
C1571 C 0.09179 0.07129 0.37743 0.0
C1572 C 0.09745 0.05993 0.3875 0.0
C1573 C 0.11087 0.08065 0.37079 0.0
C1574 C 0.15399 0.09419 0.35622 0.0
H1575 H 0.24556 0.18849 0.34943 0.0
H1576 H 0.23236 0.14672 0.35579 0.0
H1577 H 0.16501 0.11433 0.3418 0.0
H1578 H 0.12761 0.04819 0.39828 0.0
H1579 H 0.1612 0.06455 0.38659 0.0
H1580 H 0.1755 0.10632 0.38202 0.0
C1581 C 0.21874 0.15892 0.3519 0.0
C1582 C 0.16799 0.11209 0.35053 0.0
C1583 C 0.22624 0.1827 0.34826 0.0
C1584 C 0.12271 0.05703 0.39058 0.0
C1585 C 0.14191 0.06643 0.3839 0.0
C1586 C 0.17377 0.10703 0.37319 0.0
C1587 C 0.19357 0.15137 0.35087 0.0
C1588 C 0.18426 0.12825 0.35619 0.0
C1589 C 0.13614 0.07882 0.37403 0.0
C1590 C 0.15568 0.09246 0.3677 0.0
H1591 H 0.16959 0.20402 0.33906 0.0
H1592 H 0.15664 0.16238 0.34513 0.0
H1593 H 0.20035 0.1371 0.37202 0.0
H1594 H 0.07251 0.07373 0.3748 0.0
H1595 H 0.10561 0.09047 0.36336 0.0
C1596 C 0.19605 0.85352 0.63471 0.0
C1597 C 0.18955 0.82828 0.63299 0.0
C1598 C 0.18788 0.8721 0.6274 0.0
C1599 C 0.15354 0.88037 0.60061 0.0
H1600 H 0.12587 0.93856 0.61527 0.0
C1601 C 0.05706 0.93897 0.60007 0.0
C1602 C 0.05135 0.93797 0.58886 0.0
C1603 C 0.081 0.93291 0.60381 0.0
C1604 C 0.13336 0.92236 0.61103 0.0
H1605 H 0.17033 0.8025 0.62209 0.0
H1606 H 0.15522 0.83445 0.60979 0.0
H1607 H 0.15561 0.91212 0.62485 0.0
H1608 H 0.06679 0.93184 0.57266 0.0
H1609 H 0.1091 0.92219 0.57914 0.0
H1610 H 0.12911 0.8888 0.5873 0.0
C1611 C 0.16725 0.84026 0.61647 0.0
C1612 C 0.1509 0.90738 0.61648 0.0
C1613 C 0.17569 0.82181 0.62365 0.0
C1614 C 0.07057 0.9324 0.58137 0.0
C1615 C 0.0948 0.92677 0.58511 0.0
C1616 C 0.13544 0.8949 0.59529 0.0
C1617 C 0.17278 0.86575 0.61832 0.0
C1618 C 0.16008 0.88532 0.61157 0.0
C1619 C 0.10012 0.92611 0.59642 0.0
C1620 C 0.12402 0.91524 0.60069 0.0
H1621 H 0.20701 0.85897 0.6418 0.0
H1622 H 0.19287 0.89145 0.62902 0.0
H1623 H 0.16104 0.86416 0.59637 0.0
H1624 H 0.04268 0.94317 0.60607 0.0
H1625 H 0.0839 0.93217 0.61258 0.0
C1626 C 0.27656 0.81732 0.84942 0.0
C1627 C 0.29551 0.80121 0.84556 0.0
C1628 C 0.28262 0.84136 0.8532 0.0
C1629 C 0.32626 0.89243 0.85142 0.0
H1630 H 0.32917 0.89574 0.88312 0.0
C1631 C 0.37917 0.94817 0.88942 0.0
C1632 C 0.40296 0.94825 0.88448 0.0
C1633 C 0.3584 0.93851 0.88377 0.0
C1634 C 0.32777 0.89577 0.87428 0.0
H1635 H 0.33526 0.79776 0.8421 0.0
H1636 H 0.34569 0.84016 0.84836 0.0
H1637 H 0.30598 0.86191 0.8743 0.0
H1638 H 0.42334 0.94054 0.86947 0.0
H1639 H 0.38782 0.92328 0.85982 0.0
H1640 H 0.34859 0.92577 0.85129 0.0
C1641 C 0.32628 0.83404 0.84858 0.0
C1642 C 0.31457 0.87627 0.86924 0.0
C1643 C 0.32037 0.80983 0.84508 0.0
C1644 C 0.40527 0.94044 0.87355 0.0
C1645 C 0.38469 0.93081 0.86795 0.0
C1646 C 0.339 0.91225 0.85643 0.0
C1647 C 0.30754 0.84977 0.85283 0.0
C1648 C 0.31489 0.8738 0.85782 0.0
C1649 C 0.36117 0.92882 0.8731 0.0
C1650 C 0.34127 0.91322 0.86792 0.0
H1651 H 0.25727 0.81098 0.84993 0.0
H1652 H 0.268 0.85322 0.85657 0.0
H1653 H 0.32655 0.89084 0.84257 0.0
H1654 H 0.37686 0.95429 0.89782 0.0
H1655 H 0.34046 0.9376 0.88793 0.0
C1656 C 0.42523 0.96731 0.40286 0.0
C1657 C 0.44525 0.95008 0.40312 0.0
C1658 C 0.40099 0.9593 0.40011 0.0
C1659 C 0.35885 0.93757 0.38549 0.0
H1660 H 0.33774 0.8713 0.39479 0.0
C1661 C 0.31223 0.8678 0.35706 0.0
C1662 C 0.30091 0.84638 0.3615 0.0
C1663 C 0.32014 0.88716 0.36397 0.0
C1664 C 0.34261 0.89015 0.39225 0.0
H1665 H 0.45549 0.91093 0.40105 0.0
H1666 H 0.41355 0.89706 0.39627 0.0
H1667 H 0.37132 0.89221 0.40443 0.0
H1668 H 0.28568 0.82943 0.37616 0.0
H1669 H 0.2979 0.86393 0.38817 0.0
H1670 H 0.33052 0.93519 0.37308 0.0
C1671 C 0.41639 0.91669 0.39825 0.0
C1672 C 0.36221 0.902 0.39774 0.0
C1673 C 0.44051 0.92469 0.40088 0.0
C1674 C 0.29478 0.84576 0.37265 0.0
C1675 C 0.30196 0.86543 0.3795 0.0
C1676 C 0.33898 0.92578 0.38003 0.0
C1677 C 0.39641 0.93389 0.39776 0.0
C1678 C 0.3715 0.92509 0.394 0.0
C1679 C 0.31636 0.88549 0.37539 0.0
C1680 C 0.33161 0.90127 0.38295 0.0
H1681 H 0.42837 0.98703 0.40455 0.0
H1682 H 0.38591 0.97292 0.39976 0.0
H1683 H 0.36554 0.9555 0.38248 0.0
H1684 H 0.31715 0.8685 0.34845 0.0
H1685 H 0.33123 0.90216 0.36045 0.0
C1686 C 0.38542 0.06241 0.61025 0.0
C1687 C 0.40974 0.05647 0.61386 0.0
C1688 C 0.36805 0.07289 0.61752 0.0
C1689 C 0.37142 0.11431 0.64082 0.0
H1690 H 0.29876 0.11001 0.64075 0.0
C1691 C 0.31548 0.19216 0.66088 0.0
C1692 C 0.29525 0.2011 0.6547 0.0
C1693 C 0.32575 0.16864 0.65863 0.0
C1694 C 0.31904 0.11146 0.64085 0.0
H1695 H 0.4341 0.05389 0.62805 0.0
H1696 H 0.40373 0.07181 0.64074 0.0
H1697 H 0.32354 0.07762 0.63148 0.0
H1698 H 0.26896 0.19274 0.64172 0.0
H1699 H 0.28774 0.15217 0.63726 0.0
H1700 H 0.3674 0.14874 0.6494 0.0
C1701 C 0.39824 0.06901 0.63228 0.0
C1702 C 0.33317 0.09286 0.63559 0.0
C1703 C 0.41561 0.05879 0.62502 0.0
C1704 C 0.28455 0.18592 0.64659 0.0
C1705 C 0.29523 0.16263 0.64412 0.0
C1706 C 0.3574 0.13293 0.64594 0.0
C1707 C 0.37479 0.07737 0.62849 0.0
C1708 C 0.3595 0.09441 0.63536 0.0
C1709 C 0.31652 0.15409 0.64988 0.0
C1710 C 0.33101 0.13209 0.64584 0.0
H1711 H 0.38043 0.06068 0.60168 0.0
H1712 H 0.35014 0.07925 0.61436 0.0
H1713 H 0.39165 0.11638 0.64059 0.0
H1714 H 0.32381 0.20369 0.66723 0.0
H1715 H 0.34164 0.16239 0.66344 0.0
C1716 C 0.06633 0.03017 0.89414 0.0
C1717 C 0.04828 0.04727 0.89798 0.0
C1718 C 0.09028 0.0386 0.89119 0.0
C1719 C 0.13526 0.0901 0.89421 0.0
H1720 H 0.14444 0.08656 0.86275 0.0
C1721 C 0.19069 0.1426 0.85603 0.0
C1722 C 0.18647 0.16722 0.85972 0.0
C1723 C 0.18231 0.1221 0.8622 0.0
C1724 C 0.14285 0.08717 0.87159 0.0
H1725 H 0.04127 0.08603 0.90243 0.0
H1726 H 0.08327 0.10059 0.89759 0.0
H1727 H 0.11346 0.05972 0.87155 0.0
H1728 H 0.17161 0.18971 0.87303 0.0
H1729 H 0.15645 0.15439 0.88356 0.0
H1730 H 0.16392 0.1182 0.89426 0.0
C1731 C 0.07891 0.0808 0.89676 0.0
C1732 C 0.12503 0.07179 0.87662 0.0
C1733 C 0.05486 0.07255 0.89942 0.0
C1734 C 0.17503 0.17096 0.86993 0.0
C1735 C 0.16659 0.15059 0.87606 0.0
C1736 C 0.15338 0.10518 0.88923 0.0
C1737 C 0.09661 0.06404 0.89239 0.0
C1738 C 0.12017 0.07418 0.88786 0.0
C1739 C 0.16953 0.12591 0.87215 0.0
C1740 C 0.15627 0.10501 0.87777 0.0
H1741 H 0.06156 0.01059 0.89294 0.0
H1742 H 0.10364 0.02545 0.88775 0.0
H1743 H 0.13192 0.09203 0.90293 0.0
H1744 H 0.19972 0.13918 0.84822 0.0
H1745 H 0.18515 0.10332 0.85902 0.0
C1746 C 0.18794 0.80545 0.14765 0.0
C1747 C 0.19131 0.78046 0.14435 0.0
C1748 C 0.18403 0.82428 0.13994 0.0
C1749 C 0.16198 0.83407 0.11171 0.0
H1750 H 0.18035 0.90273 0.11876 0.0
C1751 C 0.11852 0.91684 0.08879 0.0
C1752 C 0.10209 0.92837 0.09624 0.0
C1753 C 0.13829 0.90198 0.09264 0.0
C1754 C 0.17558 0.8836 0.11656 0.0
H1755 H 0.19367 0.75549 0.13037 0.0
H1756 H 0.18733 0.78865 0.11676 0.0
H1757 H 0.19857 0.86813 0.12921 0.0
H1758 H 0.09445 0.93569 0.11335 0.0
H1759 H 0.12968 0.91068 0.12008 0.0
H1760 H 0.13857 0.84977 0.09921 0.0
C1761 C 0.18728 0.79362 0.12535 0.0
C1762 C 0.1857 0.86379 0.12261 0.0
C1763 C 0.19087 0.77462 0.13313 0.0
C1764 C 0.10706 0.92703 0.10749 0.0
C1765 C 0.1272 0.91281 0.11132 0.0
C1766 C 0.15229 0.85387 0.10552 0.0
C1767 C 0.18377 0.81871 0.12868 0.0
C1768 C 0.17792 0.83889 0.12065 0.0
C1769 C 0.14218 0.89919 0.10395 0.0
C1770 C 0.15809 0.87881 0.10825 0.0
H1771 H 0.18799 0.8105 0.15625 0.0
H1772 H 0.1806 0.84316 0.14287 0.0
H1773 H 0.15544 0.81524 0.10998 0.0
H1774 H 0.11473 0.91739 0.08008 0.0
H1775 H 0.14955 0.89147 0.08685 0.0
C1776 C 0.56059 0.96426 0.89084 0.0
C1777 C 0.54175 0.95213 0.89688 0.0
C1778 C 0.58233 0.95116 0.88785 0.0
C1779 C 0.60203 0.88533 0.88384 0.0
H1780 H 0.6682 0.91378 0.87907 0.0
C1781 C 0.68229 0.82222 0.87202 0.0
C1782 C 0.69207 0.82768 0.86161 0.0
C1783 C 0.66868 0.84025 0.87773 0.0
C1784 C 0.64978 0.90573 0.88041 0.0
H1785 H 0.53141 0.91801 0.9054 0.0
H1786 H 0.56977 0.89571 0.90082 0.0
H1787 H 0.63473 0.94001 0.8869 0.0
H1788 H 0.69737 0.85689 0.84944 0.0
H1789 H 0.67319 0.88859 0.85951 0.0
H1790 H 0.61694 0.85113 0.8775 0.0
C1791 C 0.56748 0.91475 0.89786 0.0
C1792 C 0.63062 0.92067 0.88483 0.0
C1793 C 0.54559 0.92753 0.90056 0.0
C1794 C 0.68989 0.85219 0.85743 0.0
C1795 C 0.6762 0.87033 0.8632 0.0
C1796 C 0.62112 0.87044 0.87963 0.0
C1797 C 0.58563 0.92597 0.89106 0.0
C1798 C 0.60653 0.91055 0.88663 0.0
C1799 C 0.66462 0.86406 0.87316 0.0
C1800 C 0.64514 0.88043 0.87791 0.0
H1801 H 0.55786 0.98329 0.88793 0.0
H1802 H 0.59585 0.96036 0.88258 0.0
H1803 H 0.58356 0.87706 0.88471 0.0
H1804 H 0.68402 0.8036 0.87552 0.0
H1805 H 0.6601 0.83513 0.88547 0.0
C1806 C 0.89694 0.93792 0.60965 0.0
C1807 C 0.92197 0.92976 0.61033 0.0
C1808 C 0.879 0.92895 0.61707 0.0
C1809 C 0.87326 0.89233 0.64318 0.0
H1810 H 0.80971 0.87123 0.63081 0.0
C1811 C 0.80514 0.80291 0.64664 0.0
C1812 C 0.80794 0.79752 0.65783 0.0
C1813 C 0.81262 0.82605 0.64245 0.0
C1814 C 0.82739 0.87694 0.63442 0.0
H1815 H 0.94791 0.90593 0.61926 0.0
H1816 H 0.91681 0.8896 0.63177 0.0
H1817 H 0.83714 0.89844 0.62027 0.0
H1818 H 0.8185 0.81295 0.6736 0.0
H1819 H 0.83066 0.85391 0.66635 0.0
H1820 H 0.86492 0.86881 0.6568 0.0
C1821 C 0.91093 0.90356 0.62585 0.0
C1822 C 0.84299 0.89294 0.62842 0.0
C1823 C 0.92879 0.91271 0.61857 0.0
C1824 C 0.81652 0.81646 0.6649 0.0
C1825 C 0.8236 0.83989 0.66072 0.0
C1826 C 0.85797 0.87588 0.64906 0.0
C1827 C 0.88577 0.91149 0.62522 0.0
C1828 C 0.86671 0.89975 0.6325 0.0
C1829 C 0.82271 0.84463 0.64937 0.0
C1830 C 0.83542 0.86694 0.64451 0.0
H1831 H 0.89127 0.95125 0.60342 0.0
H1832 H 0.85984 0.9356 0.61638 0.0
H1833 H 0.89099 0.89796 0.64677 0.0
H1834 H 0.79853 0.78874 0.64096 0.0
H1835 H 0.81194 0.8286 0.63366 0.0
C1836 C 0.81773 0.13442 0.35799 0.0
C1837 C 0.81455 0.15897 0.36195 0.0
C1838 C 0.83038 0.11651 0.36432 0.0
C1839 C 0.87688 0.09421 0.37506 0.0
H1840 H 0.87412 0.09086 0.40678 0.0
C1841 C 0.95625 0.04715 0.3989 0.0
C1842 C 0.96574 0.06157 0.4076 0.0
C1843 C 0.9328 0.05258 0.39438 0.0
C1844 C 0.87511 0.09156 0.39792 0.0
H1845 H 0.82039 0.18358 0.37587 0.0
H1846 H 0.84241 0.15253 0.38684 0.0
H1847 H 0.8406 0.11207 0.3967 0.0
H1848 H 0.95757 0.09202 0.41882 0.0
H1849 H 0.91695 0.10204 0.41074 0.0
H1850 H 0.91196 0.07509 0.37622 0.0
C1851 C 0.83516 0.14696 0.37891 0.0
C1852 C 0.85588 0.1036 0.39216 0.0
C1853 C 0.82276 0.16485 0.37258 0.0
C1854 C 0.95072 0.08058 0.41212 0.0
C1855 C 0.92735 0.08621 0.40751 0.0
C1856 C 0.89612 0.08228 0.38081 0.0
C1857 C 0.83978 0.12283 0.37473 0.0
C1858 C 0.85702 0.10576 0.38069 0.0
C1859 C 0.91846 0.07274 0.39838 0.0
C1860 C 0.89588 0.08152 0.39233 0.0
H1861 H 0.8115 0.12939 0.34984 0.0
H1862 H 0.83354 0.09798 0.36093 0.0
H1863 H 0.87849 0.09584 0.36624 0.0
H1864 H 0.96723 0.03207 0.39537 0.0
H1865 H 0.92628 0.04149 0.38751 0.0
C1866 C 0.69805 0.19393 0.15278 0.0
C1867 C 0.68497 0.21258 0.15853 0.0
C1868 C 0.68505 0.17344 0.14835 0.0
C1869 C 0.6207 0.15934 0.13895 0.0
H1870 H 0.64878 0.09401 0.13217 0.0
C1871 C 0.56532 0.08696 0.11392 0.0
C1872 C 0.57837 0.07708 0.10492 0.0
C1873 C 0.57816 0.09997 0.12212 0.0
C1874 C 0.64073 0.11219 0.13403 0.0
H1875 H 0.64891 0.22362 0.16511 0.0
H1876 H 0.62649 0.18726 0.15801 0.0
H1877 H 0.67171 0.12255 0.14429 0.0
H1878 H 0.61512 0.07206 0.09761 0.0
H1879 H 0.63761 0.09486 0.11195 0.0
H1880 H 0.58992 0.14917 0.12864 0.0
C1881 C 0.64645 0.18878 0.15644 0.0
C1882 C 0.65386 0.12856 0.14095 0.0
C1883 C 0.65929 0.20947 0.16062 0.0
C1884 C 0.6046 0.07962 0.10445 0.0
C1885 C 0.61748 0.09247 0.11269 0.0
C1886 C 0.60752 0.14294 0.13217 0.0
C1887 C 0.65888 0.17119 0.14977 0.0
C1888 C 0.64414 0.1525 0.14337 0.0
C1889 C 0.60433 0.10316 0.1215 0.0
C1890 C 0.61753 0.11936 0.12951 0.0
H1891 H 0.71785 0.19616 0.151 0.0
H1892 H 0.69526 0.16038 0.14322 0.0
H1893 H 0.61285 0.17782 0.14034 0.0
H1894 H 0.54513 0.0852 0.1145 0.0
H1895 H 0.56758 0.10787 0.12886 0.0
C1896 C 0.67994 0.13876 0.63876 0.0
C1897 C 0.68507 0.16302 0.63485 0.0
C1898 C 0.66766 0.12135 0.63204 0.0
C1899 C 0.62276 0.12273 0.60955 0.0
H1900 H 0.63119 0.05041 0.60906 0.0
C1901 C 0.5513 0.06346 0.58701 0.0
C1902 C 0.54197 0.04311 0.593 0.0
C1903 C 0.57393 0.07467 0.59001 0.0
C1904 C 0.62864 0.07059 0.60912 0.0
H1905 H 0.6837 0.18743 0.62064 0.0
H1906 H 0.66284 0.15702 0.6089 0.0
H1907 H 0.66214 0.07665 0.61857 0.0
H1908 H 0.54885 0.01754 0.60642 0.0
H1909 H 0.58812 0.03766 0.61202 0.0
H1910 H 0.58892 0.11702 0.60064 0.0
C1911 C 0.66755 0.15159 0.6172 0.0
C1912 C 0.64633 0.08556 0.61456 0.0
C1913 C 0.67951 0.16899 0.62392 0.0
C1914 C 0.55605 0.03312 0.60165 0.0
C1915 C 0.57853 0.0446 0.6048 0.0
C1916 C 0.60515 0.10787 0.6042 0.0
C1917 C 0.66058 0.12797 0.62131 0.0
C1918 C 0.6434 0.11178 0.61489 0.0
C1919 C 0.58718 0.06613 0.59927 0.0
C1920 C 0.60769 0.08161 0.60399 0.0
H1921 H 0.68415 0.13371 0.64716 0.0
H1922 H 0.66244 0.10331 0.63544 0.0
H1923 H 0.61959 0.14281 0.60988 0.0
H1924 H 0.54053 0.07139 0.58031 0.0
H1925 H 0.58036 0.09085 0.58543 0.0
C1926 C 0.7193 0.81582 0.35927 0.0
C1927 C 0.71183 0.80284 0.34985 0.0
C1928 C 0.70787 0.83866 0.36195 0.0
C1929 C 0.64683 0.86819 0.35723 0.0
H1930 H 0.67375 0.92121 0.37556 0.0
C1931 C 0.57961 0.93628 0.37686 0.0
C1932 C 0.58247 0.938 0.38825 0.0
C1933 C 0.59927 0.92756 0.37038 0.0
C1934 C 0.66605 0.90659 0.37039 0.0
H1935 H 0.68873 0.80404 0.33528 0.0
H1936 H 0.66982 0.84446 0.33956 0.0
H1937 H 0.70236 0.89103 0.36696 0.0
H1938 H 0.60853 0.93408 0.40177 0.0
H1939 H 0.64273 0.91776 0.39049 0.0
H1940 H 0.61064 0.88276 0.36092 0.0
C1941 C 0.68362 0.83679 0.34516 0.0
C1942 C 0.68238 0.88931 0.36549 0.0
C1943 C 0.69451 0.81375 0.34265 0.0
C1944 C 0.60589 0.93275 0.39299 0.0
C1945 C 0.62551 0.9236 0.38652 0.0
C1946 C 0.63065 0.88539 0.36205 0.0
C1947 C 0.68915 0.84887 0.35511 0.0
C1948 C 0.67285 0.86959 0.35905 0.0
C1949 C 0.62198 0.9199 0.37521 0.0
C1950 C 0.63996 0.90447 0.36887 0.0
H1951 H 0.73264 0.80751 0.36491 0.0
H1952 H 0.71247 0.84735 0.36971 0.0
H1953 H 0.63865 0.85292 0.35259 0.0
H1954 H 0.56184 0.94076 0.37299 0.0
H1955 H 0.59622 0.92549 0.36165 0.0
C1956 C 0.82467 0.83635 0.14029 0.0
C1957 C 0.82317 0.81009 0.13961 0.0
C1958 C 0.83769 0.85001 0.13239 0.0
C1959 C 0.89114 0.8434 0.11456 0.0
H1960 H 0.87031 0.90821 0.10322 0.0
C1961 C 0.96016 0.90347 0.09024 0.0
C1962 C 0.96083 0.92915 0.09281 0.0
C1963 C 0.94016 0.88856 0.09366 0.0
C1964 C 0.87646 0.89022 0.10637 0.0
H1965 H 0.83319 0.77745 0.12998 0.0
H1966 H 0.85656 0.80141 0.11616 0.0
H1967 H 0.84032 0.88221 0.11329 0.0
H1968 H 0.94079 0.95975 0.10051 0.0
H1969 H 0.90614 0.93346 0.10698 0.0
H1970 H 0.92752 0.85171 0.10829 0.0
C1971 C 0.84749 0.81138 0.12281 0.0
C1972 C 0.85924 0.87529 0.11206 0.0
C1973 C 0.83412 0.79771 0.13067 0.0
C1974 C 0.94062 0.93996 0.09845 0.0
C1975 C 0.92075 0.92489 0.10209 0.0
C1976 C 0.90839 0.85838 0.10899 0.0
C1977 C 0.84972 0.83762 0.12371 0.0
C1978 C 0.86657 0.85192 0.11636 0.0
C1979 C 0.92061 0.89887 0.09995 0.0
C1980 C 0.9014 0.88217 0.10497 0.0
H1981 H 0.81623 0.84635 0.14709 0.0
H1982 H 0.83934 0.87017 0.13336 0.0
H1983 H 0.89743 0.82567 0.11795 0.0
H1984 H 0.9753 0.89479 0.08568 0.0
H1985 H 0.94035 0.8688 0.09158 0.0
C1986 C 0.91599 0.07118 0.87105 0.0
C1987 C 0.9122 0.06336 0.88191 0.0
C1988 C 0.89607 0.08068 0.86491 0.0
C1989 C 0.83999 0.11682 0.86958 0.0
H1990 H 0.83336 0.1122 0.83801 0.0
C1991 C 0.78847 0.19394 0.84645 0.0
C1992 C 0.80212 0.20351 0.83753 0.0
C1993 C 0.79427 0.1704 0.8508 0.0
C1994 C 0.83491 0.11366 0.84683 0.0
H1995 H 0.88434 0.05765 0.89462 0.0
H1996 H 0.84945 0.07462 0.88388 0.0
H1997 H 0.85829 0.08098 0.84787 0.0
H1998 H 0.83134 0.19531 0.82571 0.0
H1999 H 0.84212 0.15476 0.83351 0.0
H2000 H 0.81832 0.15036 0.86858 0.0
C2001 C 0.86788 0.07343 0.88016 0.0
C2002 C 0.84908 0.09574 0.85247 0.0
C2003 C 0.88782 0.06373 0.88629 0.0
C2004 C 0.82051 0.18843 0.83259 0.0
C2005 C 0.82655 0.16504 0.83703 0.0
C2006 C 0.82603 0.13482 0.86395 0.0
C2007 C 0.87199 0.0827 0.86952 0.0
C2008 C 0.85254 0.09773 0.86385 0.0
C2009 C 0.8141 0.15612 0.84643 0.0
C2010 C 0.82414 0.13404 0.85246 0.0
H2011 H 0.93456 0.07091 0.86743 0.0
H2012 H 0.8999 0.08792 0.85679 0.0
H2013 H 0.84254 0.11905 0.87833 0.0
H2014 H 0.77389 0.20499 0.85031 0.0
H2015 H 0.78391 0.16385 0.85788 0.0
C2016 C 0.93658 0.5331 0.60339 0.0
C2017 C 0.95354 0.54472 0.59622 0.0
C2018 C 0.91493 0.54587 0.60675 0.0
C2019 C 0.89433 0.61159 0.60962 0.0
H2020 H 0.83154 0.58222 0.61936 0.0
C2021 C 0.81839 0.67409 0.62698 0.0
C2022 C 0.81066 0.66754 0.6376 0.0
C2023 C 0.83081 0.65672 0.62042 0.0
C2024 C 0.849 0.59058 0.61663 0.0
H2025 H 0.96049 0.57731 0.58608 0.0
H2026 H 0.92208 0.59891 0.59132 0.0
H2027 H 0.86271 0.55587 0.61001 0.0
H2028 H 0.80801 0.63716 0.64937 0.0
H2029 H 0.8302 0.60666 0.63786 0.0
H2030 H 0.88093 0.64611 0.61624 0.0
C2031 C 0.92583 0.58061 0.59482 0.0
C2032 C 0.86685 0.57555 0.61133 0.0
C2033 C 0.9477 0.56819 0.59173 0.0
C2034 C 0.81391 0.64271 0.64123 0.0
C2035 C 0.82646 0.62525 0.63463 0.0
C2036 C 0.8765 0.62654 0.61476 0.0
C2037 C 0.90982 0.57021 0.60279 0.0
C2038 C 0.8898 0.58592 0.60779 0.0
C2039 C 0.83586 0.63246 0.62435 0.0
C2040 C 0.85371 0.61623 0.61836 0.0
H2041 H 0.94094 0.515 0.60697 0.0
H2042 H 0.90311 0.53732 0.61292 0.0
H2043 H 0.91206 0.62015 0.60739 0.0
H2044 H 0.81579 0.69299 0.6239 0.0
H2045 H 0.83752 0.66261 0.61244 0.0
C2046 C 0.60628 0.56821 0.89228 0.0
C2047 C 0.58216 0.56432 0.88794 0.0
C2048 C 0.62536 0.57807 0.88567 0.0
C2049 C 0.62997 0.61975 0.8622 0.0
H2050 H 0.70146 0.60636 0.86372 0.0
C2051 C 0.69602 0.6854 0.84026 0.0
C2052 C 0.7162 0.69399 0.84658 0.0
C2053 C 0.6834 0.66351 0.84318 0.0
C2054 C 0.68155 0.6103 0.86322 0.0
H2055 H 0.55963 0.5653 0.87315 0.0
H2056 H 0.59292 0.58204 0.86162 0.0
H2057 H 0.67192 0.57841 0.87315 0.0
H2058 H 0.74021 0.68617 0.86045 0.0
H2059 H 0.71734 0.64837 0.86598 0.0
H2060 H 0.63914 0.65213 0.85285 0.0
C2061 C 0.59698 0.57817 0.87015 0.0
C2062 C 0.66468 0.5943 0.8686 0.0
C2063 C 0.57793 0.5686 0.87675 0.0
C2064 C 0.72475 0.6796 0.85543 0.0
C2065 C 0.71168 0.65796 0.85856 0.0
C2066 C 0.64669 0.63571 0.85692 0.0
C2067 C 0.62058 0.58397 0.87464 0.0
C2068 C 0.63873 0.59906 0.86821 0.0
C2069 C 0.69015 0.65034 0.85274 0.0
C2070 C 0.67271 0.63139 0.85743 0.0
H2071 H 0.61002 0.56494 0.90088 0.0
H2072 H 0.64333 0.58246 0.88937 0.0
H2073 H 0.61016 0.62434 0.86197 0.0
H2074 H 0.68928 0.69627 0.83335 0.0
H2075 H 0.66738 0.65775 0.83832 0.0
C2076 C 0.67514 0.33862 0.1281 0.0
C2077 C 0.68558 0.34485 0.13829 0.0
C2078 C 0.66862 0.35725 0.12066 0.0
C2079 C 0.64865 0.42304 0.12086 0.0
H2080 H 0.63414 0.40473 0.09081 0.0
C2081 C 0.57095 0.44082 0.08392 0.0
C2082 C 0.55032 0.44336 0.091 0.0
C2083 C 0.59523 0.43797 0.08817 0.0
C2084 C 0.63841 0.41082 0.09905 0.0
H2085 H 0.69939 0.37538 0.14835 0.0
H2086 H 0.68838 0.40831 0.13516 0.0
H2087 H 0.6667 0.38268 0.10069 0.0
H2088 H 0.53906 0.44585 0.10805 0.0
H2089 H 0.58049 0.43963 0.11538 0.0
H2090 H 0.62083 0.45161 0.11914 0.0
C2091 C 0.68464 0.38892 0.13305 0.0
C2092 C 0.65692 0.39778 0.10482 0.0
C2093 C 0.691 0.3701 0.1406 0.0
C2094 C 0.55453 0.44398 0.10234 0.0
C2095 C 0.57856 0.44073 0.10657 0.0
C2096 C 0.63074 0.43664 0.11498 0.0
C2097 C 0.6726 0.38275 0.12312 0.0
C2098 C 0.66066 0.40226 0.11607 0.0
C2099 C 0.59927 0.43718 0.09958 0.0
C2100 C 0.62385 0.42925 0.10432 0.0
H2101 H 0.67088 0.31931 0.12601 0.0
H2102 H 0.65896 0.35152 0.11327 0.0
H2103 H 0.65123 0.42748 0.12944 0.0
H2104 H 0.56829 0.44063 0.07512 0.0
H2105 H 0.6107 0.43574 0.0825 0.0
C2106 C 0.8248 0.30599 0.33779 0.0
C2107 C 0.8065 0.29041 0.3425 0.0
C2108 C 0.83063 0.32912 0.34255 0.0
C2109 C 0.82966 0.35766 0.36982 0.0
H2110 H 0.85909 0.41409 0.35439 0.0
C2111 C 0.88766 0.43083 0.39302 0.0
C2112 C 0.91177 0.43343 0.38851 0.0
C2113 C 0.86832 0.42003 0.38684 0.0
C2114 C 0.85071 0.39856 0.35881 0.0
H2115 H 0.77826 0.28776 0.35524 0.0
H2116 H 0.78797 0.32835 0.3634 0.0
H2117 H 0.83582 0.38224 0.34415 0.0
H2118 H 0.93415 0.4287 0.37381 0.0
H2119 H 0.90064 0.40984 0.36312 0.0
H2120 H 0.84542 0.37329 0.38439 0.0
C2121 C 0.7984 0.32243 0.35624 0.0
C2122 C 0.83748 0.38029 0.35296 0.0
C2123 C 0.79278 0.2992 0.35155 0.0
C2124 C 0.91579 0.4267 0.37753 0.0
C2125 C 0.89648 0.41613 0.37136 0.0
C2126 C 0.84276 0.37595 0.37566 0.0
C2127 C 0.81806 0.33721 0.35207 0.0
C2128 C 0.82762 0.35913 0.35835 0.0
C2129 C 0.87277 0.41192 0.37605 0.0
C2130 C 0.85426 0.39607 0.37018 0.0
H2131 H 0.83568 0.29969 0.33081 0.0
H2132 H 0.84605 0.33986 0.33917 0.0
H2133 H 0.82265 0.3415 0.37425 0.0
H2134 H 0.88403 0.43599 0.40145 0.0
H2135 H 0.85015 0.41719 0.39064 0.0
C2136 C 0.81713 0.3276 0.86871 0.0
C2137 C 0.80918 0.33406 0.85812 0.0
C2138 C 0.82993 0.34494 0.87516 0.0
C2139 C 0.84881 0.41079 0.87878 0.0
H2140 H 0.91224 0.38085 0.88731 0.0
C2141 C 0.93715 0.46783 0.89143 0.0
C2142 C 0.95442 0.45604 0.8984 0.0
C2143 C 0.91534 0.45514 0.8882 0.0
C2144 C 0.89443 0.38951 0.88528 0.0
H2145 H 0.80651 0.36427 0.84626 0.0
H2146 H 0.82935 0.39472 0.85757 0.0
H2147 H 0.88051 0.35513 0.87872 0.0
H2148 H 0.96189 0.42318 0.9083 0.0
H2149 H 0.92322 0.40173 0.90332 0.0
H2150 H 0.863 0.44535 0.88537 0.0
C2151 C 0.8255 0.37622 0.86087 0.0
C2152 C 0.87627 0.37471 0.88029 0.0
C2153 C 0.81259 0.35879 0.85439 0.0
C2154 C 0.94883 0.43244 0.90281 0.0
C2155 C 0.92681 0.42011 0.89986 0.0
C2156 C 0.867 0.42568 0.88396 0.0
C2157 C 0.83511 0.36907 0.87113 0.0
C2158 C 0.85334 0.38515 0.87695 0.0
C2159 C 0.91041 0.43072 0.89209 0.0
C2160 C 0.89009 0.41517 0.88723 0.0
H2161 H 0.81441 0.30878 0.87188 0.0
H2162 H 0.83683 0.33911 0.88311 0.0
H2163 H 0.83124 0.41925 0.87625 0.0
H2164 H 0.94133 0.48604 0.88791 0.0
H2165 H 0.90322 0.46385 0.88217 0.0
C2166 C 0.87671 0.56463 0.09388 0.0
C2167 C 0.89682 0.5582 0.10081 0.0
C2168 C 0.85775 0.58071 0.09764 0.0
C2169 C 0.8557 0.63507 0.11327 0.0
H2170 H 0.78527 0.62769 0.12063 0.0
C2171 C 0.78506 0.68493 0.14438 0.0
C2172 C 0.7916 0.71017 0.14258 0.0
C2173 C 0.79191 0.66643 0.13686 0.0
C2174 C 0.80487 0.63005 0.11849 0.0
H2175 H 0.91151 0.56104 0.11733 0.0
H2176 H 0.87849 0.58899 0.12382 0.0
H2177 H 0.80829 0.5921 0.11259 0.0
H2178 H 0.80843 0.73613 0.13103 0.0
H2179 H 0.82035 0.7038 0.11787 0.0
H2180 H 0.85309 0.6723 0.11956 0.0
C2181 C 0.8775 0.58183 0.11552 0.0
C2182 C 0.8179 0.60979 0.11388 0.0
C2183 C 0.89634 0.56588 0.1118 0.0
C2184 C 0.80348 0.7168 0.13273 0.0
C2185 C 0.81031 0.69828 0.1252 0.0
C2186 C 0.84276 0.65526 0.11779 0.0
C2187 C 0.85879 0.59026 0.10833 0.0
C2188 C 0.84356 0.61206 0.11156 0.0
C2189 C 0.80541 0.67281 0.12738 0.0
C2190 C 0.81739 0.6528 0.12075 0.0
H2191 H 0.87675 0.55904 0.08535 0.0
H2192 H 0.84346 0.58717 0.09198 0.0
H2193 H 0.87555 0.63711 0.11151 0.0
H2194 H 0.77568 0.67922 0.15185 0.0
H2195 H 0.78804 0.64699 0.13885 0.0
C2196 C 0.56232 0.53286 0.39712 0.0
C2197 C 0.53804 0.54269 0.39578 0.0
C2198 C 0.58197 0.5411 0.39049 0.0
C2199 C 0.59781 0.57942 0.36594 0.0
H2200 H 0.65458 0.60001 0.38373 0.0
C2201 C 0.677 0.64316 0.34921 0.0
C2202 C 0.68036 0.66461 0.35574 0.0
C2203 C 0.66342 0.62262 0.35321 0.0
C2204 C 0.639 0.59412 0.37862 0.0
H2205 H 0.51487 0.5676 0.38603 0.0
H2206 H 0.54932 0.58252 0.3746 0.0
H2207 H 0.62216 0.57357 0.39169 0.0
H2208 H 0.67343 0.68104 0.3717 0.0
H2209 H 0.65005 0.64525 0.3787 0.0
H2210 H 0.61411 0.60142 0.35308 0.0
C2211 C 0.55314 0.56814 0.38066 0.0
C2212 C 0.62051 0.57879 0.38314 0.0
C2213 C 0.53341 0.55973 0.38725 0.0
C2214 C 0.67104 0.66476 0.36648 0.0
C2215 C 0.65782 0.64419 0.37052 0.0
C2216 C 0.6164 0.59477 0.36141 0.0
C2217 C 0.57779 0.55951 0.38245 0.0
C2218 C 0.59929 0.57194 0.37697 0.0
C2219 C 0.65343 0.62314 0.36385 0.0
C2220 C 0.63668 0.60297 0.36784 0.0
H2221 H 0.56635 0.51937 0.40353 0.0
H2222 H 0.60065 0.53374 0.39193 0.0
H2223 H 0.58183 0.57419 0.36095 0.0
H2224 H 0.68396 0.64265 0.34087 0.0
H2225 H 0.66033 0.60656 0.34793 0.0
C2226 C 0.68811 0.31275 0.66317 0.0
C2227 C 0.69358 0.2939 0.6555 0.0
C2228 C 0.68167 0.33691 0.65966 0.0
C2229 C 0.67419 0.37638 0.63423 0.0
H2230 H 0.61467 0.39945 0.64942 0.0
C2231 C 0.57174 0.41636 0.62271 0.0
C2232 C 0.57754 0.43334 0.61431 0.0
C2233 C 0.59061 0.40665 0.62936 0.0
C2234 C 0.63128 0.39329 0.64507 0.0
H2235 H 0.69817 0.28592 0.63818 0.0
H2236 H 0.68584 0.32719 0.63207 0.0
H2237 H 0.64133 0.36835 0.65797 0.0
H2238 H 0.60745 0.45436 0.6065 0.0
H2239 H 0.64065 0.43767 0.61832 0.0
H2240 H 0.66253 0.39936 0.62083 0.0
C2241 C 0.68714 0.32393 0.64081 0.0
C2242 C 0.64692 0.37569 0.65007 0.0
C2243 C 0.69397 0.30001 0.64432 0.0
C2244 C 0.60254 0.44106 0.61287 0.0
C2245 C 0.62151 0.4315 0.61963 0.0
C2246 C 0.65822 0.39357 0.62912 0.0
C2247 C 0.68012 0.34252 0.6484 0.0
C2248 C 0.66784 0.36597 0.64447 0.0
C2249 C 0.61578 0.41392 0.62788 0.0
C2250 C 0.63584 0.40113 0.63425 0.0
H2251 H 0.68808 0.30867 0.67186 0.0
H2252 H 0.67697 0.35088 0.66577 0.0
H2253 H 0.69065 0.37002 0.62983 0.0
H2254 H 0.55264 0.40998 0.62399 0.0
H2255 H 0.58546 0.39266 0.63539 0.0
C2256 C 0.06077 0.46464 0.3946 0.0
C2257 C 0.04732 0.45469 0.40345 0.0
C2258 C 0.08311 0.45324 0.39121 0.0
C2259 C 0.11025 0.39004 0.39205 0.0
H2260 H 0.16494 0.42069 0.37588 0.0
C2261 C 0.18134 0.32787 0.37103 0.0
C2262 C 0.1844 0.33291 0.35983 0.0
C2263 C 0.17102 0.3459 0.37794 0.0
C2264 C 0.1498 0.41195 0.38042 0.0
H2265 H 0.04711 0.42685 0.41634 0.0
H2266 H 0.08681 0.40777 0.41089 0.0
H2267 H 0.13507 0.44734 0.3858 0.0
H2268 H 0.18101 0.36125 0.34718 0.0
H2269 H 0.16212 0.39274 0.35926 0.0
H2270 H 0.12428 0.35485 0.38651 0.0
C2271 C 0.07986 0.42366 0.40625 0.0
C2272 C 0.1327 0.42716 0.38608 0.0
C2273 C 0.05729 0.43465 0.40944 0.0
C2274 C 0.17868 0.35692 0.35579 0.0
C2275 C 0.16804 0.37495 0.36271 0.0
C2276 C 0.12731 0.37497 0.3865 0.0
C2277 C 0.09234 0.43195 0.39675 0.0
C2278 C 0.1125 0.41634 0.39183 0.0
C2279 C 0.16323 0.3692 0.37376 0.0
C2280 C 0.14707 0.3857 0.38051 0.0
H2281 H 0.0531 0.48003 0.38984 0.0
H2282 H 0.09208 0.46002 0.38383 0.0
H2283 H 0.09457 0.38098 0.39608 0.0
H2284 H 0.1861 0.30965 0.3744 0.0
H2285 H 0.16803 0.34115 0.38647 0.0
C2286 C 0.39325 0.43438 0.10785 0.0
C2287 C 0.41824 0.42634 0.10899 0.0
C2288 C 0.37455 0.42491 0.11477 0.0
C2289 C 0.36609 0.38865 0.14071 0.0
H2290 H 0.30368 0.36742 0.12728 0.0
C2291 C 0.29643 0.30081 0.14455 0.0
C2292 C 0.29749 0.29703 0.15593 0.0
C2293 C 0.3046 0.32333 0.13997 0.0
C2294 C 0.32099 0.37325 0.13118 0.0
H2295 H 0.44332 0.40216 0.11819 0.0
H2296 H 0.41087 0.38505 0.12991 0.0
H2297 H 0.33267 0.39359 0.11697 0.0
H2298 H 0.30544 0.31483 0.17152 0.0
H2299 H 0.31897 0.3546 0.16353 0.0
H2300 H 0.3557 0.36649 0.1545 0.0
C2301 C 0.40561 0.39921 0.12397 0.0
C2302 C 0.3375 0.38857 0.1253 0.0
C2303 C 0.42423 0.4088 0.11715 0.0
C2304 C 0.30479 0.31705 0.1627 0.0
C2305 C 0.31266 0.3398 0.15811 0.0
C2306 C 0.34983 0.37301 0.1465 0.0
C2307 C 0.38053 0.40714 0.1229 0.0
C2308 C 0.36077 0.39547 0.12983 0.0
C2309 C 0.31373 0.3428 0.14666 0.0
C2310 C 0.32759 0.36416 0.14162 0.0
H2311 H 0.38817 0.44808 0.10167 0.0
H2312 H 0.35546 0.43154 0.11377 0.0
H2313 H 0.38351 0.39429 0.14457 0.0
H2314 H 0.29079 0.28581 0.13908 0.0
H2315 H 0.30536 0.32465 0.13113 0.0
C2316 C 0.32648 0.66852 0.8696 0.0
C2317 C 0.31626 0.66475 0.85913 0.0
C2318 C 0.33447 0.6482 0.87587 0.0
C2319 C 0.34468 0.60262 0.88949 0.0
H2320 H 0.38842 0.55733 0.87356 0.0
C2321 C 0.43964 0.56911 0.90437 0.0
C2322 C 0.44701 0.54411 0.90274 0.0
C2323 C 0.4163 0.57738 0.90071 0.0
C2324 C 0.37576 0.56934 0.87812 0.0
H2325 H 0.30515 0.63667 0.84723 0.0
H2326 H 0.31912 0.60088 0.85827 0.0
H2327 H 0.35972 0.58448 0.86349 0.0
H2328 H 0.43574 0.50787 0.89635 0.0
H2329 H 0.39495 0.52277 0.88946 0.0
H2330 H 0.36257 0.58901 0.90405 0.0
C2331 C 0.32117 0.61966 0.86155 0.0
C2332 C 0.35927 0.58492 0.87236 0.0
C2333 C 0.31316 0.64011 0.85524 0.0
C2334 C 0.4303 0.52722 0.89775 0.0
C2335 C 0.4071 0.53569 0.89381 0.0
C2336 C 0.3614 0.5873 0.89522 0.0
C2337 C 0.33236 0.62353 0.87186 0.0
C2338 C 0.3445 0.60265 0.87796 0.0
C2339 C 0.40012 0.56095 0.89513 0.0
C2340 C 0.37787 0.57141 0.88954 0.0
H2341 H 0.32905 0.68727 0.87285 0.0
H2342 H 0.34344 0.65201 0.88366 0.0
H2343 H 0.33305 0.61559 0.89406 0.0
H2344 H 0.45222 0.58244 0.90823 0.0
H2345 H 0.4115 0.59703 0.90169 0.0
C2346 C 0.18971 0.68497 0.66074 0.0
C2347 C 0.20706 0.69696 0.65392 0.0
C2348 C 0.17968 0.66175 0.65774 0.0
C2349 C 0.18309 0.61032 0.63685 0.0
H2350 H 0.11073 0.61208 0.64008 0.0
C2351 C 0.11236 0.56233 0.60763 0.0
C2352 C 0.08908 0.55509 0.61197 0.0
C2353 C 0.1306 0.57303 0.61445 0.0
C2354 C 0.13095 0.61082 0.6393 0.0
H2355 H 0.22859 0.69427 0.63896 0.0
H2356 H 0.2105 0.65408 0.63343 0.0
H2357 H 0.13603 0.64311 0.64932 0.0
H2358 H 0.06748 0.55053 0.62687 0.0
H2359 H 0.09946 0.5684 0.6388 0.0
H2360 H 0.1775 0.57859 0.62628 0.0
C2361 C 0.20505 0.662 0.64125 0.0
C2362 C 0.14555 0.62869 0.64464 0.0
C2363 C 0.21531 0.68506 0.64435 0.0
C2364 C 0.08516 0.55644 0.62331 0.0
C2365 C 0.10343 0.56672 0.63013 0.0
C2366 C 0.16838 0.5924 0.63143 0.0
C2367 C 0.18643 0.6505 0.64772 0.0
C2368 C 0.17175 0.62902 0.64332 0.0
C2369 C 0.12582 0.5763 0.6257 0.0
C2370 C 0.1421 0.59279 0.63245 0.0
H2371 H 0.18315 0.69403 0.66816 0.0
H2372 H 0.16576 0.65317 0.66301 0.0
H2373 H 0.20327 0.60989 0.63576 0.0
H2374 H 0.11577 0.56144 0.59889 0.0
H2375 H 0.14762 0.58031 0.61078 0.0
C2376 C 0.17194 0.64946 0.14192 0.0
C2377 C 0.1724 0.67569 0.14077 0.0
C2378 C 0.15855 0.63463 0.13454 0.0
C2379 C 0.10401 0.6381 0.1167 0.0
H2380 H 0.1264 0.57277 0.10655 0.0
C2381 C 0.03828 0.57675 0.09144 0.0
C2382 C 0.03679 0.55135 0.09443 0.0
C2383 C 0.05801 0.59166 0.09513 0.0
C2384 C 0.11984 0.5909 0.10937 0.0
H2385 H 0.16006 0.70703 0.13081 0.0
H2386 H 0.13634 0.68103 0.11788 0.0
H2387 H 0.15544 0.59998 0.11657 0.0
H2388 H 0.05526 0.52112 0.10309 0.0
H2389 H 0.08962 0.54745 0.10995 0.0
H2390 H 0.06824 0.6289 0.10998 0.0
C2391 C 0.1463 0.67198 0.12453 0.0
C2392 C 0.13648 0.6065 0.11507 0.0
C2393 C 0.15989 0.68683 0.1319 0.0
C2394 C 0.05611 0.54068 0.10068 0.0
C2395 C 0.07577 0.55578 0.10457 0.0
C2396 C 0.08738 0.62251 0.11109 0.0
C2397 C 0.1452 0.64575 0.12588 0.0
C2398 C 0.12862 0.63015 0.11889 0.0
C2399 C 0.07648 0.58164 0.10209 0.0
C2400 C 0.09498 0.59862 0.10743 0.0
H2401 H 0.18154 0.64037 0.14867 0.0
H2402 H 0.15783 0.61453 0.13587 0.0
H2403 H 0.09724 0.65599 0.11972 0.0
H2404 H 0.02382 0.58528 0.08642 0.0
H2405 H 0.05835 0.61127 0.09278 0.0
C2406 C 0.08646 0.43759 0.87165 0.0
C2407 C 0.09051 0.44803 0.88205 0.0
C2408 C 0.10652 0.42859 0.86551 0.0
C2409 C 0.16819 0.40094 0.87033 0.0
H2410 H 0.1628 0.38949 0.83904 0.0
C2411 C 0.22091 0.32134 0.84753 0.0
C2412 C 0.20282 0.30375 0.84416 0.0
C2413 C 0.21365 0.34564 0.85051 0.0
C2414 C 0.1649 0.39295 0.84774 0.0
H2415 H 0.11888 0.4593 0.8938 0.0
H2416 H 0.15424 0.44384 0.88293 0.0
H2417 H 0.13897 0.42357 0.84748 0.0
H2418 H 0.16336 0.29785 0.84067 0.0
H2419 H 0.15079 0.34055 0.84554 0.0
H2420 H 0.19357 0.36973 0.87055 0.0
C2421 C 0.13543 0.44212 0.87964 0.0
C2422 C 0.15115 0.41227 0.8526 0.0
C2423 C 0.11522 0.45104 0.88585 0.0
C2424 C 0.1776 0.31108 0.8433 0.0
C2425 C 0.17048 0.33549 0.84599 0.0
C2426 C 0.18234 0.38196 0.86542 0.0
C2427 C 0.13121 0.42997 0.86957 0.0
C2428 C 0.15139 0.41542 0.86405 0.0
C2429 C 0.18835 0.35278 0.8498 0.0
C2430 C 0.17968 0.377 0.85421 0.0
H2431 H 0.06764 0.43518 0.86846 0.0
H2432 H 0.10234 0.41904 0.8579 0.0
H2433 H 0.16883 0.40265 0.87916 0.0
H2434 H 0.24047 0.31601 0.8483 0.0
H2435 H 0.22763 0.35868 0.85354 0.0
C2436 C 0.42717 0.44118 0.58561 0.0
C2437 C 0.44593 0.44446 0.59357 0.0
C2438 C 0.40235 0.43649 0.58875 0.0
C2439 C 0.35995 0.40465 0.59739 0.0
H2440 H 0.33813 0.41857 0.62704 0.0
C2441 C 0.32147 0.32831 0.62417 0.0
C2442 C 0.30762 0.33356 0.63365 0.0
C2443 C 0.32883 0.34761 0.61719 0.0
C2444 C 0.34325 0.41481 0.61862 0.0
H2445 H 0.45325 0.44678 0.61102 0.0
H2446 H 0.41079 0.43738 0.61648 0.0
H2447 H 0.36864 0.44582 0.61843 0.0
H2448 H 0.28877 0.36279 0.64286 0.0
H2449 H 0.30109 0.3967 0.63047 0.0
H2450 H 0.33425 0.3739 0.59752 0.0
C2451 C 0.41463 0.43918 0.60781 0.0
C2452 C 0.3612 0.43027 0.61373 0.0
C2453 C 0.43923 0.44427 0.60468 0.0
C2454 C 0.29981 0.35831 0.63567 0.0
C2455 C 0.30691 0.37771 0.62858 0.0
C2456 C 0.34147 0.38965 0.60216 0.0
C2457 C 0.39593 0.43454 0.59991 0.0
C2458 C 0.37126 0.42412 0.60342 0.0
C2459 C 0.32221 0.37269 0.61943 0.0
C2460 C 0.33445 0.3933 0.61315 0.0
H2461 H 0.43176 0.44166 0.57697 0.0
H2462 H 0.3884 0.43354 0.58242 0.0
H2463 H 0.36683 0.3994 0.58937 0.0
H2464 H 0.32772 0.30939 0.62237 0.0
H2465 H 0.34102 0.34286 0.61041 0.0
C2466 C 0.34414 0.70974 0.34589 0.0
C2467 C 0.31824 0.70892 0.34793 0.0
C2468 C 0.35928 0.6892 0.34839 0.0
C2469 C 0.35804 0.62221 0.35762 0.0
H2470 H 0.42068 0.64145 0.37151 0.0
C2471 C 0.40945 0.56527 0.3908 0.0
C2472 C 0.43579 0.5647 0.3906 0.0
C2473 C 0.3962 0.57898 0.38297 0.0
C2474 C 0.40351 0.63569 0.36746 0.0
H2475 H 0.2875 0.68588 0.3537 0.0
H2476 H 0.3141 0.65026 0.35866 0.0
H2477 H 0.39509 0.67322 0.36274 0.0
H2478 H 0.469 0.57681 0.38182 0.0
H2479 H 0.44578 0.60133 0.3682 0.0
H2480 H 0.36604 0.58476 0.36311 0.0
C2481 C 0.32274 0.66644 0.35483 0.0
C2482 C 0.38879 0.65391 0.36238 0.0
C2483 C 0.30748 0.68687 0.35208 0.0
C2484 C 0.44868 0.57704 0.38215 0.0
C2485 C 0.43544 0.59105 0.37438 0.0
C2486 C 0.37266 0.60399 0.36286 0.0
C2487 C 0.34894 0.66761 0.35326 0.0
C2488 C 0.36565 0.64752 0.35756 0.0
C2489 C 0.40912 0.59259 0.37489 0.0
C2490 C 0.39532 0.6107 0.36797 0.0
H2491 H 0.35276 0.72642 0.34247 0.0
H2492 H 0.37921 0.69052 0.34674 0.0
H2493 H 0.34056 0.61653 0.35383 0.0
H2494 H 0.3991 0.55574 0.39721 0.0
H2495 H 0.37594 0.58007 0.3836 0.0
C2496 C 0.0699 0.03403 0.11703 0.0
C2497 C 0.06569 0.02951 0.10583 0.0
C2498 C 0.08648 0.05281 0.12041 0.0
C2499 C 0.13989 0.09136 0.11064 0.0
H2500 H 0.12549 0.13053 0.13668 0.0
C2501 C 0.2 0.17654 0.12368 0.0
C2502 C 0.20646 0.17829 0.13482 0.0
C2503 C 0.1825 0.15881 0.1201 0.0
C2504 C 0.12986 0.11959 0.12945 0.0
H2505 H 0.07527 0.04149 0.08941 0.0
H2506 H 0.10399 0.07468 0.09529 0.0
H2507 H 0.09513 0.09951 0.1303 0.0
H2508 H 0.19936 0.16296 0.15096 0.0
H2509 H 0.16868 0.13187 0.14471 0.0
H2510 H 0.17453 0.11169 0.10975 0.0
C2511 C 0.09482 0.06334 0.10147 0.0
C2512 C 0.11249 0.10177 0.12579 0.0
C2513 C 0.07831 0.0444 0.09809 0.0
C2514 C 0.19488 0.16196 0.14233 0.0
C2515 C 0.17718 0.14433 0.13876 0.0
C2516 C 0.15717 0.1093 0.11426 0.0
C2517 C 0.09921 0.0677 0.11269 0.0
C2518 C 0.11732 0.08732 0.11637 0.0
C2519 C 0.17088 0.14249 0.12759 0.0
C2520 C 0.15241 0.12354 0.12373 0.0
H2521 H 0.06093 0.0226 0.12322 0.0
H2522 H 0.08975 0.05523 0.1291 0.0
H2523 H 0.14448 0.0803 0.10347 0.0
H2524 H 0.20879 0.1886 0.11766 0.0
H2525 H 0.1779 0.158 0.11147 0.0
C2526 C 0.19439 0.81491 0.35584 0.0
C2527 C 0.20927 0.80177 0.36343 0.0
C2528 C 0.17526 0.83093 0.35943 0.0
C2529 C 0.15814 0.87 0.38287 0.0
H2530 H 0.09254 0.87287 0.36915 0.0
C2531 C 0.08221 0.93926 0.3979 0.0
C2532 C 0.06771 0.95122 0.38983 0.0
C2533 C 0.09779 0.91905 0.39517 0.0
C2534 C 0.11086 0.87251 0.373 0.0
H2535 H 0.21556 0.79496 0.38073 0.0
H2536 H 0.1822 0.82286 0.38698 0.0
H2537 H 0.12279 0.84116 0.36329 0.0
H2538 H 0.05829 0.95142 0.37255 0.0
H2539 H 0.0857 0.91666 0.36775 0.0
H2540 H 0.14673 0.90178 0.39232 0.0
C2541 C 0.18532 0.82075 0.37826 0.0
C2542 C 0.12813 0.85427 0.36966 0.0
C2543 C 0.20425 0.80455 0.37467 0.0
C2544 C 0.06889 0.94235 0.379 0.0
C2545 C 0.08462 0.92233 0.37625 0.0
C2546 C 0.14098 0.88839 0.38614 0.0
C2547 C 0.17083 0.83434 0.37068 0.0
C2548 C 0.152 0.85292 0.37452 0.0
C2549 C 0.09943 0.9105 0.38428 0.0
C2550 C 0.11716 0.89002 0.3812 0.0
H2551 H 0.1978 0.81303 0.34714 0.0
H2552 H 0.16451 0.84129 0.3534 0.0
H2553 H 0.17653 0.86964 0.38666 0.0
H2554 H 0.08145 0.94552 0.40633 0.0
H2555 H 0.10856 0.91013 0.40162 0.0
C2556 C 0.28742 0.83113 0.63569 0.0
C2557 C 0.29292 0.80549 0.63698 0.0
C2558 C 0.30557 0.84767 0.63171 0.0
C2559 C 0.37301 0.85768 0.62911 0.0
H2560 H 0.35379 0.90411 0.60611 0.0
C2561 C 0.44346 0.92869 0.61023 0.0
C2562 C 0.43408 0.95271 0.6078 0.0
C2563 C 0.42713 0.90923 0.61321 0.0
C2564 C 0.35943 0.8915 0.61262 0.0
H2565 H 0.3217 0.77709 0.63523 0.0
H2566 H 0.35383 0.80628 0.6284 0.0
H2567 H 0.32369 0.87309 0.61262 0.0
H2568 H 0.40035 0.97541 0.60697 0.0
H2569 H 0.37203 0.94188 0.61232 0.0
H2570 H 0.40848 0.87659 0.62939 0.0
C2571 C 0.33538 0.81344 0.63045 0.0
C2572 C 0.34219 0.87366 0.61631 0.0
C2573 C 0.31705 0.79677 0.6343 0.0
C2574 C 0.40811 0.95696 0.60851 0.0
C2575 C 0.39185 0.93766 0.61158 0.0
C2576 C 0.39022 0.87576 0.62551 0.0
C2577 C 0.32971 0.83902 0.62903 0.0
C2578 C 0.34868 0.85679 0.62468 0.0
C2579 C 0.40109 0.9135 0.61394 0.0
C2580 C 0.38352 0.89313 0.61731 0.0
H2581 H 0.26888 0.83832 0.63752 0.0
H2582 H 0.30074 0.86732 0.63077 0.0
H2583 H 0.37844 0.84497 0.63563 0.0
H2584 H 0.4634 0.92491 0.60969 0.0
H2585 H 0.43491 0.89082 0.61484 0.0
C2586 C 0.30206 0.18153 0.85112 0.0
C2587 C 0.28976 0.19598 0.85912 0.0
C2588 C 0.32117 0.16481 0.85408 0.0
C2589 C 0.34361 0.12748 0.87736 0.0
H2590 H 0.40559 0.12273 0.86084 0.0
C2591 C 0.42418 0.06252 0.8913 0.0
C2592 C 0.4371 0.04922 0.88313 0.0
C2593 C 0.40745 0.08174 0.88851 0.0
C2594 C 0.38828 0.1236 0.86548 0.0
H2595 H 0.28788 0.20409 0.87652 0.0
H2596 H 0.3212 0.17502 0.88165 0.0
H2597 H 0.37388 0.15354 0.85555 0.0
H2598 H 0.44254 0.04563 0.8656 0.0
H2599 H 0.41315 0.07875 0.86071 0.0
H2600 H 0.35755 0.09723 0.88714 0.0
C2601 C 0.31606 0.17662 0.8731 0.0
C2602 C 0.37015 0.1413 0.86245 0.0
C2603 C 0.29715 0.19349 0.87013 0.0
C2604 C 0.4332 0.05578 0.8721 0.0
C2605 C 0.41632 0.07483 0.8693 0.0
C2606 C 0.36162 0.10965 0.88034 0.0
C2607 C 0.32818 0.16199 0.86512 0.0
C2608 C 0.34762 0.14342 0.86836 0.0
C2609 C 0.40306 0.08794 0.87746 0.0
C2610 C 0.3842 0.10744 0.87444 0.0
H2611 H 0.29685 0.18317 0.84258 0.0
H2612 H 0.33006 0.15366 0.84776 0.0
H2613 H 0.32627 0.12842 0.88198 0.0
H2614 H 0.42704 0.05804 0.89986 0.0
H2615 H 0.39796 0.09172 0.89503 0.0
C2616 C 0.9298 0.945 0.89234 0.0
C2617 C 0.94294 0.95728 0.88392 0.0
C2618 C 0.91393 0.92481 0.88997 0.0
C2619 C 0.89817 0.87828 0.86826 0.0
H2620 H 0.83454 0.87499 0.88363 0.0
C2621 C 0.81456 0.81648 0.85419 0.0
C2622 C 0.80116 0.80365 0.86238 0.0
C2623 C 0.83333 0.8337 0.85699 0.0
C2624 C 0.85236 0.87547 0.87936 0.0
H2625 H 0.94968 0.958 0.86641 0.0
H2626 H 0.92179 0.92309 0.86225 0.0
H2627 H 0.86454 0.90781 0.88826 0.0
H2628 H 0.79712 0.79879 0.87994 0.0
H2629 H 0.82992 0.82865 0.8848 0.0
H2630 H 0.88555 0.84621 0.85919 0.0
C2631 C 0.92413 0.92863 0.87072 0.0
C2632 C 0.86961 0.89425 0.88203 0.0
C2633 C 0.94013 0.9487 0.8731 0.0
C2634 C 0.80724 0.80811 0.87342 0.0
C2635 C 0.82585 0.82544 0.87621 0.0
C2636 C 0.88081 0.85959 0.86554 0.0
C2637 C 0.91067 0.91654 0.87911 0.0
C2638 C 0.89272 0.89596 0.8765 0.0
C2639 C 0.83893 0.83861 0.86804 0.0
C2640 C 0.8577 0.85802 0.87105 0.0
H2641 H 0.93186 0.95101 0.90076 0.0
H2642 H 0.90423 0.91565 0.89667 0.0
H2643 H 0.91593 0.87878 0.86395 0.0
H2644 H 0.81041 0.81329 0.84563 0.0
H2645 H 0.84299 0.84368 0.8505 0.0
C2646 C 0.93982 0.04635 0.62064 0.0
C2647 C 0.94272 0.0396 0.60959 0.0
C2648 C 0.92266 0.06495 0.62368 0.0
C2649 C 0.86618 0.09852 0.61339 0.0
H2650 H 0.87943 0.14257 0.63803 0.0
C2651 C 0.80248 0.18257 0.62416 0.0
C2652 C 0.79508 0.18456 0.63518 0.0
C2653 C 0.82123 0.16568 0.62105 0.0
C2654 C 0.87545 0.13028 0.63117 0.0
H2655 H 0.93061 0.04755 0.59303 0.0
H2656 H 0.90118 0.08059 0.59824 0.0
H2657 H 0.91125 0.11227 0.63234 0.0
H2658 H 0.80193 0.17084 0.65161 0.0
H2659 H 0.83505 0.14139 0.64619 0.0
H2660 H 0.83054 0.11695 0.61214 0.0
C2661 C 0.91157 0.07105 0.60463 0.0
C2662 C 0.89362 0.11284 0.62792 0.0
C2663 C 0.92852 0.05221 0.60161 0.0
C2664 C 0.80718 0.16959 0.64306 0.0
C2665 C 0.8262 0.1529 0.63997 0.0
C2666 C 0.84817 0.11615 0.61657 0.0
C2667 C 0.90818 0.07747 0.61572 0.0
C2668 C 0.88919 0.09662 0.61901 0.0
C2669 C 0.83322 0.1506 0.62891 0.0
C2670 C 0.85257 0.13213 0.62551 0.0
H2671 H 0.9502 0.03668 0.62699 0.0
H2672 H 0.9203 0.06899 0.63231 0.0
H2673 H 0.8618 0.08605 0.60666 0.0
H2674 H 0.79332 0.19363 0.61788 0.0
H2675 H 0.82638 0.16442 0.61248 0.0
C2676 C 0.56856 0.05126 0.39631 0.0
C2677 C 0.5542 0.03863 0.38839 0.0
C2678 C 0.58594 0.06964 0.3932 0.0
C2679 C 0.60482 0.11033 0.36965 0.0
H2680 H 0.6678 0.11413 0.38551 0.0
C2681 C 0.69175 0.16607 0.35429 0.0
C2682 C 0.70397 0.18109 0.36211 0.0
C2683 C 0.67267 0.1495 0.35746 0.0
C2684 C 0.65021 0.11342 0.38106 0.0
H2685 H 0.54702 0.03516 0.37098 0.0
H2686 H 0.5776 0.06668 0.36552 0.0
H2687 H 0.63605 0.08385 0.39116 0.0
H2688 H 0.70594 0.19028 0.37939 0.0
H2689 H 0.67278 0.16132 0.38491 0.0
H2690 H 0.61948 0.13954 0.35938 0.0
C2691 C 0.57502 0.06302 0.37417 0.0
C2692 C 0.63192 0.09614 0.38432 0.0
C2693 C 0.55746 0.04487 0.3773 0.0
C2694 C 0.69669 0.17921 0.37315 0.0
C2695 C 0.67787 0.16244 0.37633 0.0
C2696 C 0.62326 0.12742 0.36631 0.0
C2697 C 0.58961 0.07559 0.38207 0.0
C2698 C 0.60894 0.09435 0.37868 0.0
C2699 C 0.6657 0.14736 0.36853 0.0
C2700 C 0.64612 0.12917 0.372 0.0
H2701 H 0.56624 0.04697 0.40492 0.0
H2702 H 0.59644 0.07922 0.39954 0.0
H2703 H 0.58722 0.10985 0.36521 0.0
H2704 H 0.69691 0.16723 0.34573 0.0
H2705 H 0.6637 0.13798 0.35128 0.0
C2706 C 0.69669 0.81776 0.13707 0.0
C2707 C 0.71457 0.82486 0.14493 0.0
C2708 C 0.6825 0.83583 0.13159 0.0
C2709 C 0.67818 0.90402 0.12529 0.0
H2710 H 0.60831 0.88702 0.12034 0.0
C2711 C 0.57762 0.95179 0.11112 0.0
C2712 C 0.58543 0.96612 0.10209 0.0
C2713 C 0.59448 0.93619 0.1166 0.0
C2714 C 0.62768 0.89228 0.12175 0.0
H2715 H 0.73207 0.85647 0.15305 0.0
H2716 H 0.70676 0.88827 0.14365 0.0
H2717 H 0.63554 0.85716 0.12942 0.0
H2718 H 0.61716 0.97592 0.09188 0.0
H2719 H 0.64674 0.94805 0.1013 0.0
H2720 H 0.66988 0.93961 0.11791 0.0
C2721 C 0.704 0.86869 0.14159 0.0
C2722 C 0.64347 0.87492 0.12682 0.0
C2723 C 0.71844 0.85052 0.147 0.0
C2724 C 0.61071 0.9651 0.09884 0.0
C2725 C 0.62761 0.9492 0.10426 0.0
C2726 C 0.66227 0.92155 0.12027 0.0
C2727 C 0.68558 0.86151 0.13392 0.0
C2728 C 0.66895 0.88045 0.12861 0.0
C2729 C 0.61957 0.93423 0.11311 0.0
C2730 C 0.63679 0.91588 0.11845 0.0
H2731 H 0.69373 0.79816 0.13512 0.0
H2732 H 0.66903 0.8296 0.12552 0.0
H2733 H 0.69775 0.90885 0.12646 0.0
H2734 H 0.55839 0.95267 0.11397 0.0
H2735 H 0.58776 0.92553 0.12357 0.0
C2736 C 0.58184 0.541 0.61347 0.0
C2737 C 0.55572 0.5442 0.61418 0.0
C2738 C 0.59808 0.56053 0.61623 0.0
C2739 C 0.60151 0.62016 0.6317 0.0
H2740 H 0.6637 0.62732 0.61546 0.0
C2741 C 0.67561 0.69906 0.6393 0.0
C2742 C 0.70028 0.69013 0.64056 0.0
C2743 C 0.65647 0.68291 0.63579 0.0
C2744 C 0.64641 0.62551 0.62006 0.0
H2745 H 0.5261 0.5704 0.61829 0.0
H2746 H 0.55454 0.60491 0.62294 0.0
H2747 H 0.6327 0.59654 0.60956 0.0
H2748 H 0.72436 0.65752 0.63898 0.0
H2749 H 0.69109 0.62945 0.63279 0.0
H2750 H 0.61543 0.64944 0.64214 0.0
C2751 C 0.56246 0.5871 0.62041 0.0
C2752 C 0.62868 0.60781 0.61673 0.0
C2753 C 0.54616 0.5674 0.61773 0.0
C2754 C 0.70547 0.66483 0.63822 0.0
C2755 C 0.6865 0.64885 0.63457 0.0
C2756 C 0.61918 0.63812 0.63496 0.0
C2757 C 0.58864 0.58389 0.61968 0.0
C2758 C 0.60627 0.60447 0.62265 0.0
C2759 C 0.66185 0.65773 0.6333 0.0
C2760 C 0.64202 0.64054 0.6293 0.0
H2761 H 0.58979 0.52317 0.61101 0.0
H2762 H 0.6181 0.5571 0.61584 0.0
H2763 H 0.58456 0.61798 0.6365 0.0
H2764 H 0.67115 0.71846 0.64109 0.0
H2765 H 0.6376 0.69019 0.63485 0.0
C2766 C 0.67492 0.30735 0.85888 0.0
C2767 C 0.69986 0.31513 0.85725 0.0
C2768 C 0.65706 0.32403 0.8631 0.0
C2769 C 0.65118 0.38068 0.87992 0.0
H2770 H 0.58679 0.38936 0.8656 0.0
C2771 C 0.58492 0.4626 0.89083 0.0
C2772 C 0.55886 0.45883 0.89014 0.0
C2773 C 0.60159 0.44395 0.88736 0.0
C2774 C 0.60447 0.38688 0.86984 0.0
H2775 H 0.72572 0.34633 0.8589 0.0
H2776 H 0.69462 0.37538 0.86633 0.0
H2777 H 0.61664 0.35873 0.85846 0.0
H2778 H 0.52982 0.43238 0.88564 0.0
H2779 H 0.55884 0.39939 0.8799 0.0
H2780 H 0.63906 0.40842 0.89141 0.0
C2781 C 0.68886 0.35643 0.8643 0.0
C2782 C 0.62161 0.36939 0.8657 0.0
C2783 C 0.70659 0.33989 0.85994 0.0
C2784 C 0.54983 0.4358 0.88617 0.0
C2785 C 0.56649 0.417 0.88282 0.0
C2786 C 0.63395 0.39794 0.88415 0.0
C2787 C 0.66393 0.34868 0.86594 0.0
C2788 C 0.64525 0.36634 0.87062 0.0
C2789 C 0.59262 0.42094 0.88324 0.0
C2790 C 0.61045 0.40152 0.87909 0.0
H2791 H 0.66924 0.2884 0.85684 0.0
H2792 H 0.63799 0.31754 0.86433 0.0
H2793 H 0.66915 0.37844 0.88397 0.0
H2794 H 0.59244 0.48033 0.89366 0.0
H2795 H 0.62151 0.44794 0.88762 0.0
C2796 C 0.9015 0.45718 0.1056 0.0
C2797 C 0.92749 0.45266 0.10596 0.0
C2798 C 0.88457 0.43943 0.10967 0.0
C2799 C 0.87546 0.37302 0.1159 0.0
H2800 H 0.82686 0.39711 0.13706 0.0
C2801 C 0.80693 0.30554 0.13848 0.0
C2802 C 0.78288 0.31471 0.14094 0.0
C2803 C 0.82543 0.32163 0.13429 0.0
C2804 C 0.83997 0.39003 0.13103 0.0
H2805 H 0.95608 0.42577 0.11056 0.0
H2806 H 0.9263 0.39428 0.11747 0.0
H2807 H 0.857 0.42622 0.12914 0.0
H2808 H 0.75887 0.34751 0.14044 0.0
H2809 H 0.79053 0.37529 0.13283 0.0
H2810 H 0.85797 0.33699 0.11748 0.0
C2811 C 0.91914 0.41169 0.1141 0.0
C2812 C 0.85735 0.40677 0.12654 0.0
C2813 C 0.93614 0.42968 0.1102 0.0
C2814 C 0.77747 0.34008 0.13889 0.0
C2815 C 0.79573 0.35603 0.13455 0.0
C2816 C 0.85776 0.35629 0.12026 0.0
C2817 C 0.89321 0.4166 0.11404 0.0
C2818 C 0.87518 0.39848 0.11889 0.0
C2819 C 0.8201 0.34717 0.13228 0.0
C2820 C 0.83963 0.36461 0.12785 0.0
H2821 H 0.89429 0.47484 0.10253 0.0
H2822 H 0.86466 0.44362 0.10947 0.0
H2823 H 0.88898 0.36619 0.10998 0.0
H2824 H 0.81149 0.28603 0.13999 0.0
H2825 H 0.84399 0.3141 0.13278 0.0
C2826 C 0.79262 0.67997 0.37595 0.0
C2827 C 0.78792 0.68528 0.36485 0.0
C2828 C 0.81104 0.6626 0.37893 0.0
C2829 C 0.86834 0.63148 0.36902 0.0
H2830 H 0.85319 0.58244 0.39156 0.0
C2831 C 0.93318 0.54711 0.37803 0.0
C2832 C 0.93597 0.53933 0.38897 0.0
C2833 C 0.91574 0.56562 0.37524 0.0
C2834 C 0.85789 0.59622 0.38537 0.0
H2835 H 0.79907 0.67672 0.3482 0.0
H2836 H 0.83126 0.64621 0.35342 0.0
H2837 H 0.82154 0.61324 0.38633 0.0
H2838 H 0.9231 0.54537 0.40559 0.0
H2839 H 0.89282 0.57799 0.40076 0.0
H2840 H 0.90474 0.61461 0.36809 0.0
C2841 C 0.82072 0.65561 0.3598 0.0
C2842 C 0.83971 0.61383 0.38235 0.0
C2843 C 0.80215 0.67288 0.35681 0.0
C2844 C 0.92115 0.55076 0.39708 0.0
C2845 C 0.90377 0.5694 0.39429 0.0
C2846 C 0.88659 0.61395 0.37207 0.0
C2847 C 0.82529 0.65022 0.3709 0.0
C2848 C 0.8447 0.63161 0.37412 0.0
C2849 C 0.90071 0.57692 0.38332 0.0
C2850 C 0.88156 0.59604 0.38026 0.0
H2851 H 0.78181 0.68894 0.38234 0.0
H2852 H 0.81426 0.65901 0.38756 0.0
H2853 H 0.87286 0.64517 0.36275 0.0
H2854 H 0.94396 0.53839 0.37156 0.0
H2855 H 0.91359 0.5706 0.36669 0.0
C2856 C 0.2848 0.33957 0.35737 0.0
C2857 C 0.28848 0.31368 0.35903 0.0
C2858 C 0.30206 0.35704 0.36143 0.0
C2859 C 0.36724 0.36333 0.37167 0.0
H2860 H 0.34138 0.42238 0.38645 0.0
C2861 C 0.43028 0.42542 0.39863 0.0
C2862 C 0.42759 0.45162 0.39779 0.0
C2863 C 0.41307 0.40932 0.39362 0.0
C2864 C 0.34891 0.40616 0.38224 0.0
H2865 H 0.31356 0.28589 0.36597 0.0
H2866 H 0.34354 0.31632 0.37317 0.0
H2867 H 0.31228 0.39298 0.37784 0.0
H2868 H 0.4044 0.48139 0.39112 0.0
H2869 H 0.37424 0.45322 0.38237 0.0
H2870 H 0.40383 0.37636 0.37612 0.0
C2871 C 0.3274 0.32313 0.36866 0.0
C2872 C 0.33224 0.38931 0.37729 0.0
C2873 C 0.31012 0.30569 0.36462 0.0
C2874 C 0.40689 0.46133 0.39202 0.0
C2875 C 0.38963 0.44518 0.38699 0.0
C2876 C 0.38388 0.38015 0.37661 0.0
C2877 C 0.32344 0.34904 0.36722 0.0
C2878 C 0.3412 0.36758 0.37203 0.0
C2879 C 0.39269 0.41897 0.38764 0.0
C2880 C 0.37492 0.40164 0.38205 0.0
H2881 H 0.2682 0.34645 0.35323 0.0
H2882 H 0.29859 0.37684 0.36008 0.0
H2883 H 0.37479 0.34701 0.36753 0.0
H2884 H 0.44568 0.4173 0.4032 0.0
H2885 H 0.41568 0.38925 0.3945 0.0
C2886 C 0.42937 0.53478 0.12497 0.0
C2887 C 0.43485 0.53306 0.11375 0.0
C2888 C 0.411 0.55138 0.12874 0.0
C2889 C 0.35679 0.58991 0.11906 0.0
H2890 H 0.36453 0.62167 0.14745 0.0
C2891 C 0.29774 0.67447 0.13397 0.0
C2892 C 0.287 0.67227 0.14444 0.0
C2893 C 0.31485 0.65658 0.13022 0.0
C2894 C 0.36206 0.61275 0.13955 0.0
H2895 H 0.42588 0.54759 0.09769 0.0
H2896 H 0.39452 0.5775 0.10423 0.0
H2897 H 0.39701 0.59329 0.14079 0.0
H2898 H 0.28564 0.64978 0.15919 0.0
H2899 H 0.31623 0.6186 0.15271 0.0
H2900 H 0.32224 0.61038 0.11772 0.0
C2901 C 0.40376 0.56547 0.11014 0.0
C2902 C 0.38061 0.59638 0.13572 0.0
C2903 C 0.42184 0.5485 0.10637 0.0
C2904 C 0.29359 0.65176 0.15107 0.0
C2905 C 0.31113 0.63409 0.1474 0.0
C2906 C 0.33849 0.60663 0.12281 0.0
C2907 C 0.39793 0.56701 0.12138 0.0
C2908 C 0.37823 0.58467 0.12543 0.0
C2909 C 0.32191 0.63638 0.13694 0.0
C2910 C 0.34094 0.61815 0.1331 0.0
H2911 H 0.43879 0.52273 0.13082 0.0
H2912 H 0.40673 0.55152 0.1374 0.0
H2913 H 0.35394 0.58091 0.11121 0.0
H2914 H 0.29277 0.69 0.12867 0.0
H2915 H 0.323 0.65881 0.12215 0.0
C2916 C 0.20545 0.68866 0.87049 0.0
C2917 C 0.21228 0.69185 0.85945 0.0
C2918 C 0.18633 0.67202 0.87341 0.0
C2919 C 0.13053 0.63945 0.86291 0.0
H2920 H 0.14266 0.5936 0.88702 0.0
C2921 C 0.06383 0.55684 0.87284 0.0
C2922 C 0.06054 0.54999 0.88387 0.0
C2923 C 0.0814 0.57515 0.86992 0.0
C2924 C 0.13874 0.60653 0.88039 0.0
H2925 H 0.20412 0.68037 0.84281 0.0
H2926 H 0.17048 0.65122 0.84792 0.0
H2927 H 0.17504 0.62351 0.88174 0.0
H2928 H 0.07239 0.55756 0.9005 0.0
H2929 H 0.10268 0.58999 0.89547 0.0
H2930 H 0.09411 0.62273 0.86162 0.0
C2931 C 0.17999 0.66168 0.85429 0.0
C2932 C 0.15738 0.6236 0.87734 0.0
C2933 C 0.19933 0.67819 0.85138 0.0
C2934 C 0.07475 0.5623 0.89193 0.0
C2935 C 0.09217 0.58078 0.88903 0.0
C2936 C 0.11176 0.62251 0.86602 0.0
C2937 C 0.17343 0.6583 0.86535 0.0
C2938 C 0.15351 0.64021 0.86855 0.0
C2939 C 0.096 0.5872 0.87796 0.0
C2940 C 0.11565 0.60577 0.87479 0.0
H2941 H 0.21524 0.69863 0.87692 0.0
H2942 H 0.18156 0.66996 0.88199 0.0
H2943 H 0.12692 0.65224 0.85618 0.0
H2944 H 0.05348 0.54742 0.86641 0.0
H2945 H 0.08408 0.57926 0.86131 0.0
C2946 C 0.19806 0.30672 0.62596 0.0
C2947 C 0.20555 0.30545 0.63699 0.0
C2948 C 0.17923 0.32339 0.62267 0.0
C2949 C 0.12543 0.36007 0.63264 0.0
H2950 H 0.13869 0.40254 0.60749 0.0
C2951 C 0.06334 0.44568 0.62228 0.0
C2952 C 0.05959 0.45205 0.61123 0.0
C2953 C 0.08007 0.42659 0.62519 0.0
C2954 C 0.13441 0.39056 0.61441 0.0
H2955 H 0.19876 0.32017 0.65325 0.0
H2956 H 0.16562 0.34923 0.64752 0.0
H2957 H 0.16952 0.3712 0.613 0.0
H2958 H 0.06991 0.44296 0.59456 0.0
H2959 H 0.09869 0.40912 0.59957 0.0
H2960 H 0.09022 0.37912 0.63401 0.0
C2961 C 0.17438 0.33733 0.64143 0.0
C2962 C 0.15217 0.37265 0.61759 0.0
C2963 C 0.19343 0.32085 0.6447 0.0
C2964 C 0.07263 0.43859 0.60314 0.0
C2965 C 0.08919 0.41929 0.60604 0.0
C2966 C 0.10753 0.3778 0.62939 0.0
C2967 C 0.16728 0.33896 0.63035 0.0
C2968 C 0.14797 0.35735 0.62678 0.0
C2969 C 0.09333 0.41319 0.61712 0.0
C2970 C 0.11187 0.39346 0.62029 0.0
H2971 H 0.20722 0.29533 0.61981 0.0
H2972 H 0.17403 0.32412 0.6141 0.0
H2973 H 0.12154 0.34831 0.63968 0.0
H2974 H 0.05394 0.45599 0.62873 0.0
H2975 H 0.08309 0.42284 0.63381 0.0
C2976 C 0.22022 0.24286 0.20513 0.0
C2977 C 0.23845 0.22548 0.20159 0.0
C2978 C 0.21792 0.24887 0.21625 0.0
C2979 C 0.23112 0.2257 0.24383 0.0
H2980 H 0.23726 0.29569 0.25222 0.0
C2981 C 0.2475 0.25196 0.2886 0.0
C2982 C 0.23433 0.27265 0.29274 0.0
C2983 C 0.24862 0.24774 0.27733 0.0
C2984 C 0.23518 0.2761 0.25003 0.0
H2985 H 0.26832 0.20069 0.20719 0.0
H2986 H 0.26337 0.21033 0.22645 0.0
H2987 H 0.23513 0.28439 0.23282 0.0
H2988 H 0.21266 0.30562 0.28854 0.0
H2989 H 0.21398 0.29802 0.26879 0.0
H2990 H 0.23068 0.2172 0.2609 0.0
C2991 C 0.25096 0.21931 0.2206 0.0
C2992 C 0.23394 0.26967 0.23893 0.0
C2993 C 0.25359 0.21363 0.20952 0.0
C2994 C 0.22321 0.28973 0.28546 0.0
C2995 C 0.22397 0.2853 0.27417 0.0
C2996 C 0.23202 0.23211 0.2549 0.0
C2997 C 0.23344 0.23728 0.22405 0.0
C2998 C 0.23227 0.24438 0.23575 0.0
C2999 C 0.23608 0.26383 0.26999 0.0
C3000 C 0.2345 0.25735 0.25815 0.0
H3001 H 0.20793 0.2521 0.19933 0.0
H3002 H 0.20408 0.26264 0.21875 0.0
H3003 H 0.22957 0.20608 0.24158 0.0
H3004 H 0.25619 0.23857 0.29411 0.0
H3005 H 0.25875 0.23144 0.27441 0.0
C3006 C 0.99336 0.01568 0.54073 0.0
C3007 C 0.97811 0.99589 0.54445 0.0
C3008 C 0.99886 0.01821 0.52958 0.0
C3009 C 0.97899 0.99792 0.50187 0.0
H3010 H 0.04868 0.01024 0.49436 0.0
C3011 C 0.0155 0.987 0.45766 0.0
C3012 C 0.03164 0.00594 0.4538 0.0
C3013 C 0.00932 0.98557 0.46877 0.0
C3014 C 0.0291 0.00703 0.49632 0.0
H3015 H 0.95629 0.96353 0.5393 0.0
H3016 H 0.96567 0.9681 0.51993 0.0
H3017 H 0.03595 0.00989 0.51354 0.0
H3018 H 0.0541 0.03808 0.45866 0.0
H3019 H 0.04343 0.03551 0.47799 0.0
H3020 H 0.97215 0.99502 0.48464 0.0
C3021 C 0.97318 0.98183 0.52559 0.0
C3022 C 0.02179 0.00692 0.5073 0.0
C3023 C 0.96773 0.97928 0.53672 0.0
C3024 C 0.04198 0.02296 0.46137 0.0
C3025 C 0.03581 0.02154 0.47246 0.0
C3026 C 0.9863 0.99807 0.49088 0.0
C3027 C 0.98919 0.00102 0.52192 0.0
C3028 C 0.99666 0.00229 0.51021 0.0
C3029 C 0.01912 0.00306 0.47627 0.0
C3030 C 0.01145 0.00255 0.48797 0.0
H3031 H 0.00137 0.02902 0.54644 0.0
H3032 H 0.01091 0.03346 0.52697 0.0
H3033 H 0.95944 0.99459 0.50383 0.0
H3034 H 0.00747 0.9734 0.45207 0.0
H3035 H 0.99678 0.97082 0.47149 0.0
C3036 C 0.24399 0.73445 0.78961 0.0
C3037 C 0.26883 0.73527 0.79346 0.0
C3038 C 0.23875 0.73912 0.77856 0.0
C3039 C 0.26612 0.76991 0.75415 0.0
H3040 H 0.21627 0.73134 0.73828 0.0
C3041 C 0.25405 0.77482 0.70702 0.0
C3042 C 0.22942 0.77386 0.70293 0.0
C3043 C 0.25861 0.77143 0.71822 0.0
C3044 C 0.23004 0.74249 0.74264 0.0
H3045 H 0.30775 0.74014 0.78868 0.0
H3046 H 0.29868 0.74802 0.76946 0.0
H3047 H 0.22446 0.72184 0.75749 0.0
H3048 H 0.19016 0.77027 0.70741 0.0
H3049 H 0.19811 0.76447 0.72689 0.0
H3050 H 0.27181 0.79043 0.73927 0.0
C3051 C 0.28316 0.74452 0.77498 0.0
C3052 C 0.23472 0.73704 0.75364 0.0
C3053 C 0.28836 0.73994 0.78599 0.0
C3054 C 0.2094 0.77055 0.7103 0.0
C3055 C 0.21395 0.76718 0.72145 0.0
C3056 C 0.26147 0.77533 0.74314 0.0
C3057 C 0.25829 0.74457 0.77116 0.0
C3058 C 0.25289 0.75062 0.75952 0.0
C3059 C 0.23861 0.76709 0.72551 0.0
C3060 C 0.2434 0.76166 0.73726 0.0
H3061 H 0.22858 0.73101 0.79521 0.0
H3062 H 0.21937 0.73916 0.77588 0.0
H3063 H 0.27993 0.78103 0.7585 0.0
H3064 H 0.26983 0.77721 0.70153 0.0
H3065 H 0.27785 0.77132 0.7211 0.0
C3066 C 0.49763 0.97603 0.95501 0.0
C3067 C 0.49285 0.99453 0.94707 0.0
C3068 C 0.50853 0.98238 0.965 0.0
C3069 C 0.51935 0.03319 0.98443 0.0
H3070 H 0.57358 0.99002 0.99428 0.0
C3071 C 0.56497 0.04703 0.02672 0.0
C3072 C 0.56654 0.0249 0.03297 0.0
C3073 C 0.56057 0.04585 0.01544 0.0
C3074 C 0.55846 0.00223 0.99166 0.0
H3075 H 0.4945 0.03442 0.9436 0.0
H3076 H 0.51329 0.04567 0.9613 0.0
H3077 H 0.55502 0.98345 0.97624 0.0
H3078 H 0.56666 0.98426 0.03221 0.0
H3079 H 0.55872 0.98214 0.0126 0.0
H3080 H 0.5221 0.05137 1e-05 0.0
C3081 C 0.50877 0.0262 0.95967 0.0
C3082 C 0.54783 0.99847 0.98134 0.0
C3083 C 0.49792 0.01979 0.94958 0.0
C3084 C 0.56534 0.00161 0.02761 0.0
C3085 C 0.56097 0.00043 0.01635 0.0
C3086 C 0.5299 0.03689 0.9948 0.0
C3087 C 0.51476 0.00742 0.96734 0.0
C3088 C 0.52775 0.01348 0.97774 0.0
C3089 C 0.55773 0.02253 0.01019 0.0
C3090 C 0.54916 0.02103 -0.00137 0.0
H3091 H 0.49338 0.95647 0.95342 0.0
H3092 H 0.51229 0.96761 0.97088 0.0
H3093 H 0.50384 0.04498 0.98186 0.0
H3094 H 0.5656 0.06528 0.03063 0.0
H3095 H 0.55853 0.06321 0.01089 0.0
C3096 C 0.24605 0.75022 0.29477 0.0
C3097 C 0.27058 0.75701 0.29781 0.0
C3098 C 0.24105 0.74168 0.28415 0.0
C3099 C 0.26769 0.74147 0.25614 0.0
H3100 H 0.2245 0.68369 0.25169 0.0
C3101 C 0.26209 0.69464 0.21433 0.0
C3102 C 0.23766 0.69207 0.21014 0.0
C3103 C 0.26588 0.69923 0.22545 0.0
C3104 C 0.23654 0.69987 0.25284 0.0
H3105 H 0.30886 0.7612 0.292 0.0
H3106 H 0.30033 0.74585 0.27368 0.0
H3107 H 0.23063 0.70032 0.2702 0.0
H3108 H 0.19816 0.69041 0.21444 0.0
H3109 H 0.20485 0.69817 0.23392 0.0
H3110 H 0.27377 0.74099 0.23885 0.0
C3111 C 0.28487 0.74721 0.2794 0.0
C3112 C 0.23993 0.7095 0.2634 0.0
C3113 C 0.28982 0.75575 0.28996 0.0
C3114 C 0.21724 0.69209 0.21744 0.0
C3115 C 0.22104 0.69663 0.22859 0.0
C3116 C 0.26446 0.73177 0.24564 0.0
C3117 C 0.26048 0.73992 0.27638 0.0
C3118 C 0.25569 0.73031 0.26516 0.0
C3119 C 0.24532 0.70127 0.23261 0.0
C3120 C 0.24901 0.71078 0.24388 0.0
H3121 H 0.23088 0.75089 0.30067 0.0
H3122 H 0.22201 0.73648 0.28202 0.0
H3123 H 0.27951 0.75785 0.25717 0.0
H3124 H 0.2782 0.6943 0.20891 0.0
H3125 H 0.28485 0.70221 0.22839 0.0
C3126 C 0.47191 0.04092 0.53673 0.0
C3127 C 0.4682 0.02104 0.54413 0.0
C3128 C 0.47597 0.03614 0.52564 0.0
C3129 C 0.469 0.98793 0.50418 0.0
H3130 H 0.52251 0.02515 0.48996 0.0
C3131 C 0.50627 0.9605 0.46172 0.0
C3132 C 0.51037 0.98 0.45417 0.0
C3133 C 0.50136 0.96584 0.47269 0.0
C3134 C 0.50733 0.01481 0.49378 0.0
H3135 H 0.46511 0.98062 0.54568 0.0
H3136 H 0.47225 0.9722 0.52625 0.0
H3137 H 0.51237 0.03373 0.50907 0.0
H3138 H 0.51321 0.02035 0.45223 0.0
H3139 H 0.50461 0.02976 0.47147 0.0
H3140 H 0.46404 0.96894 0.48889 0.0
C3141 C 0.47184 0.99151 0.52903 0.0
C3142 C 0.5015 0.01973 0.50472 0.0
C3143 C 0.46774 0.9963 0.54015 0.0
C3144 C 0.51026 0.00496 0.45788 0.0
C3145 C 0.50532 0.01032 0.46889 0.0
C3146 C 0.47484 0.98301 0.49324 0.0
C3147 C 0.4764 0.01137 0.5217 0.0
C3148 C 0.48229 0.00632 0.51004 0.0
C3149 C 0.50047 0.9908 0.47636 0.0
C3150 C 0.49412 0.99634 0.48793 0.0
H3151 H 0.47188 0.06022 0.53953 0.0
H3152 H 0.47887 0.05187 0.52015 0.0
H3153 H 0.45387 0.97754 0.508 0.0
H3154 H 0.50679 0.94105 0.45914 0.0
H3155 H 0.49828 0.95038 0.4783 0.0
C3156 C 0.28942 0.27439 0.71047 0.0
C3157 C 0.26937 0.27705 0.70307 0.0
C3158 C 0.28489 0.27094 0.72161 0.0
C3159 C 0.23696 0.27752 0.7432 0.0
H3160 H 0.27548 0.22508 0.75754 0.0
C3161 C 0.21092 0.24083 0.78592 0.0
C3162 C 0.23057 0.23699 0.79343 0.0
C3163 C 0.21602 0.24562 0.77493 0.0
C3164 C 0.26479 0.23997 0.75369 0.0
H3165 H 0.22889 0.27921 0.70158 0.0
H3166 H 0.22088 0.27312 0.72114 0.0
H3167 H 0.28351 0.23495 0.73836 0.0
H3168 H 0.27095 0.23442 0.79526 0.0
H3169 H 0.27998 0.24287 0.77594 0.0
H3170 H 0.2182 0.2825 0.75853 0.0
C3171 C 0.24013 0.27382 0.71829 0.0
C3172 C 0.26938 0.24564 0.74271 0.0
C3173 C 0.24468 0.27731 0.70711 0.0
C3174 C 0.25545 0.23719 0.78963 0.0
C3175 C 0.26059 0.24204 0.77859 0.0
C3176 C 0.23239 0.27187 0.75419 0.0
C3177 C 0.2602 0.27009 0.72562 0.0
C3178 C 0.25548 0.26445 0.73734 0.0
C3179 C 0.24091 0.24668 0.77116 0.0
C3180 C 0.24617 0.25295 0.75955 0.0
H3181 H 0.30868 0.27466 0.70762 0.0
H3182 H 0.30075 0.26872 0.72709 0.0
H3183 H 0.22619 0.29233 0.73933 0.0
H3184 H 0.19151 0.24026 0.78858 0.0
H3185 H 0.20043 0.2485 0.76936 0.0
C3186 C 0.00064 0.9621 0.03208 0.0
C3187 C 0.00562 0.98113 0.03977 0.0
C3188 C 0.99524 0.96805 0.02122 0.0
C3189 C 0.00483 0.01681 0.00055 0.0
H3190 H 0.95216 0.98137 0.98495 0.0
C3191 C 0.97931 0.04133 0.95607 0.0
C3192 C 0.97525 0.02114 0.94888 0.0
C3193 C 0.98113 0.03728 0.96733 0.0
C3194 C 0.96707 0.99125 0.98917 0.0
H3195 H 0.00876 0.0214 0.04204 0.0
H3196 H 0.99952 0.03183 0.02294 0.0
H3197 H 0.95879 0.97317 0.00441 0.0
H3198 H 0.96937 0.98097 0.94782 0.0
H3199 H 0.97285 0.97375 0.96754 0.0
H3200 H 0.01347 0.03455 0.98531 0.0
C3201 C 0.99989 0.01227 0.02539 0.0
C3202 C 0.97083 0.98661 0.00031 0.0
C3203 C 0.0052 0.00631 0.0363 0.0
C3204 C 0.97239 0.99687 0.95319 0.0
C3205 C 0.97433 0.99278 0.96448 0.0
C3206 C 0.00114 0.02139 0.98941 0.0
C3207 C 0.99484 0.99317 0.01774 0.0
C3208 C 0.98988 0.9992 0.00609 0.0
C3209 C 0.97899 0.01293 0.97165 0.0
C3210 C 0.98232 0.00855 0.98357 0.0
H3211 H 0.00141 0.94248 0.03439 0.0
H3212 H 0.99194 0.95291 0.01547 0.0
H3213 H 0.01989 0.02652 0.00475 0.0
H3214 H 0.98104 0.06034 0.953 0.0
H3215 H 0.98418 0.05327 0.97265 0.0
C3216 C 0.73774 0.74395 0.70899 0.0
C3217 C 0.75512 0.72658 0.70472 0.0
C3218 C 0.73712 0.74915 0.72021 0.0
C3219 C 0.75325 0.72384 0.74707 0.0
H3220 H 0.75896 0.79337 0.75621 0.0
C3221 C 0.76669 0.74785 0.79232 0.0
C3222 C 0.75297 0.76825 0.79642 0.0
C3223 C 0.76897 0.74422 0.78105 0.0
C3224 C 0.75706 0.77388 0.75381 0.0
H3225 H 0.78516 0.70078 0.70909 0.0
H3226 H 0.78323 0.70915 0.72863 0.0
H3227 H 0.75648 0.78321 0.73672 0.0
H3228 H 0.73154 0.80133 0.79211 0.0
H3229 H 0.7348 0.79471 0.77238 0.0
H3230 H 0.75304 0.71433 0.76404 0.0
C3231 C 0.77022 0.71878 0.72325 0.0
C3232 C 0.75565 0.76811 0.74266 0.0
C3233 C 0.77114 0.71386 0.71203 0.0
C3234 C 0.74251 0.78565 0.78909 0.0
C3235 C 0.7444 0.7818 0.7778 0.0
C3236 C 0.7543 0.7296 0.7582 0.0
C3237 C 0.75354 0.73678 0.72741 0.0
C3238 C 0.75388 0.74302 0.7392 0.0
C3239 C 0.75705 0.76062 0.77364 0.0
C3240 C 0.7564 0.75468 0.76173 0.0
H3241 H 0.72478 0.75377 0.70366 0.0
H3242 H 0.72385 0.76288 0.72326 0.0
H3243 H 0.75166 0.70436 0.74459 0.0
H3244 H 0.77492 0.73424 0.79787 0.0
H3245 H 0.77946 0.72812 0.77816 0.0
C3246 C 0.70288 0.28475 0.21564 0.0
C3247 C 0.722 0.28212 0.2078 0.0
C3248 C 0.70753 0.2794 0.22665 0.0
C3249 C 0.74668 0.2399 0.24387 0.0
H3250 H 0.7232 0.28233 0.26755 0.0
C3251 C 0.76784 0.21744 0.28924 0.0
C3252 C 0.74972 0.22372 0.29714 0.0
C3253 C 0.76471 0.22459 0.27831 0.0
C3254 C 0.72953 0.27004 0.26105 0.0
H3255 H 0.76106 0.2725 0.20529 0.0
H3256 H 0.7692 0.26277 0.22463 0.0
H3257 H 0.71824 0.29619 0.24864 0.0
H3258 H 0.71365 0.24153 0.29973 0.0
H3259 H 0.7077 0.25333 0.28058 0.0
H3260 H 0.75728 0.21338 0.25618 0.0
C3261 C 0.75065 0.26904 0.22222 0.0
C3262 C 0.72686 0.27811 0.25022 0.0
C3263 C 0.74608 0.27478 0.21121 0.0
C3264 C 0.72802 0.23663 0.29382 0.0
C3265 C 0.72473 0.24354 0.28286 0.0
C3266 C 0.7491 0.23168 0.2547 0.0
C3267 C 0.7313 0.27099 0.23002 0.0
C3268 C 0.73537 0.26311 0.24153 0.0
C3269 C 0.74325 0.23798 0.27499 0.0
C3270 C 0.74051 0.24662 0.26344 0.0
H3271 H 0.68417 0.29047 0.21321 0.0
H3272 H 0.69224 0.28092 0.23246 0.0
H3273 H 0.75305 0.22778 0.23731 0.0
H3274 H 0.78497 0.20788 0.29159 0.0
H3275 H 0.77956 0.2203 0.27256 0.0
C3276 C 0.7433 0.25207 0.70388 0.0
C3277 C 0.74945 0.22814 0.69981 0.0
C3278 C 0.74508 0.25728 0.71505 0.0
C3279 C 0.744 0.22589 0.74182 0.0
H3280 H 0.76754 0.29033 0.75251 0.0
C3281 C 0.75945 0.24625 0.78767 0.0
C3282 C 0.75249 0.27 0.7917 0.0
C3283 C 0.75874 0.24116 0.77648 0.0
C3284 C 0.76061 0.27237 0.74964 0.0
H3285 H 0.76319 0.19119 0.70427 0.0
H3286 H 0.76632 0.20033 0.72384 0.0
H3287 H 0.76887 0.28129 0.73293 0.0
H3288 H 0.73873 0.30685 0.78709 0.0
H3289 H 0.73747 0.29791 0.76745 0.0
H3290 H 0.73569 0.21699 0.75852 0.0
C3291 C 0.75978 0.21493 0.71836 0.0
C3292 C 0.76146 0.26715 0.73843 0.0
C3293 C 0.75803 0.20971 0.70716 0.0
C3294 C 0.74445 0.28846 0.78425 0.0
C3295 C 0.74377 0.28335 0.77301 0.0
C3296 C 0.74316 0.23111 0.75303 0.0
C3297 C 0.753 0.23869 0.72244 0.0
C3298 C 0.75312 0.24387 0.73439 0.0
C3299 C 0.75111 0.25969 0.769 0.0
C3300 C 0.75143 0.25441 0.75706 0.0
H3301 H 0.7361 0.26657 0.69851 0.0
H3302 H 0.73933 0.27564 0.71794 0.0
H3303 H 0.73699 0.20796 0.73896 0.0
H3304 H 0.7663 0.23176 0.79314 0.0
H3305 H 0.7649 0.22289 0.77365 0.0
C3306 C 0.80809 0.79834 0.21764 0.0
C3307 C 0.78476 0.80025 0.21231 0.0
C3308 C 0.80932 0.79661 0.22904 0.0
C3309 C 0.77313 0.80574 0.25449 0.0
H3310 H 0.81157 0.74886 0.26519 0.0
C3311 C 0.76792 0.73557 0.29311 0.0
C3312 C 0.76427 0.75305 0.30157 0.0
C3313 C 0.77611 0.74355 0.28281 0.0
C3314 C 0.8009 0.76489 0.26232 0.0
H3315 H 0.74457 0.80327 0.21472 0.0
H3316 H 0.74666 0.80022 0.23466 0.0
H3317 H 0.81402 0.76057 0.24587 0.0
H3318 H 0.76844 0.79213 0.30622 0.0
H3319 H 0.78271 0.80606 0.28822 0.0
H3320 H 0.75915 0.80942 0.27082 0.0
C3321 C 0.76401 0.80012 0.23003 0.0
C3322 C 0.80246 0.77174 0.2513 0.0
C3323 C 0.76277 0.80167 0.21863 0.0
C3324 C 0.77064 0.77833 0.29977 0.0
C3325 C 0.77879 0.78631 0.28949 0.0
C3326 C 0.77169 0.79899 0.26552 0.0
C3327 C 0.78725 0.79692 0.23532 0.0
C3328 C 0.78812 0.79186 0.24723 0.0
C3329 C 0.7808 0.76914 0.28081 0.0
C3330 C 0.78512 0.77815 0.26949 0.0
H3331 H 0.82534 0.79692 0.21298 0.0
H3332 H 0.82747 0.79436 0.23292 0.0
H3333 H 0.76204 0.82144 0.25158 0.0
H3334 H 0.76298 0.716 0.29424 0.0
H3335 H 0.7773 0.72991 0.27625 0.0
C3336 C 0.46449 0.48996 0.03833 0.0
C3337 C 0.47776 0.50349 0.04639 0.0
C3338 C 0.46916 0.49389 0.02723 0.0
C3339 C 0.51827 0.51094 0.00838 0.0
H3340 H 0.46412 0.52142 0.98765 0.0
C3341 C 0.53561 0.52673 0.96197 0.0
C3342 C 0.51729 0.51792 0.95466 0.0
C3343 C 0.53167 0.52518 0.97328 0.0
C3344 C 0.47946 0.51806 0.99328 0.0
H3345 H 0.50587 0.53255 0.04886 0.0
H3346 H 0.51468 0.53857 0.02939 0.0
H3347 H 0.45494 0.51978 0.00717 0.0
H3348 H 0.48126 0.49944 0.95326 0.0
H3349 H 0.47485 0.49547 0.97296 0.0
H3350 H 0.54273 0.50819 0.99453 0.0
C3351 C 0.50058 0.52499 0.03182 0.0
C3352 C 0.47417 0.5174 0.00447 0.0
C3353 C 0.49557 0.52142 0.04296 0.0
C3354 C 0.49558 0.50645 0.95879 0.0
C3355 C 0.49182 0.50449 0.97006 0.0
C3356 C 0.52355 0.51121 0.99716 0.0
C3357 C 0.48752 0.5111 0.02388 0.0
C3358 C 0.49349 0.51368 0.01211 0.0
C3359 C 0.50946 0.51449 0.97747 0.0
C3360 C 0.50415 0.51456 0.98945 0.0
H3361 H 0.45112 0.47551 0.04055 0.0
H3362 H 0.45905 0.48274 0.02126 0.0
H3363 H 0.53344 0.50777 0.01413 0.0
H3364 H 0.55236 0.53593 0.95893 0.0
H3365 H 0.54557 0.53329 0.9787 0.0
C3366 C 0.9937 0.50174 0.54196 0.0
C3367 C 0.01807 0.50634 0.54591 0.0
C3368 C 0.98943 0.49814 0.5308 0.0
C3369 C 0.02062 0.48361 0.50449 0.0
H3370 H 0.96331 0.51849 0.49206 0.0
C3371 C 0.0064 0.49103 0.45796 0.0
C3372 C 0.98214 0.48605 0.45398 0.0
C3373 C 0.01056 0.49451 0.46914 0.0
C3374 C 0.97924 0.50846 0.49542 0.0
H3375 H 0.05719 0.50992 0.5413 0.0
H3376 H 0.04976 0.50363 0.52174 0.0
H3377 H 0.97126 0.52092 0.51171 0.0
H3378 H 0.94306 0.48171 0.45855 0.0
H3379 H 0.95029 0.48791 0.47814 0.0
H3380 H 0.02863 0.47121 0.4882 0.0
C3381 C 0.03396 0.50262 0.5273 0.0
C3382 C 0.98378 0.50978 0.50668 0.0
C3383 C 0.03825 0.50617 0.5385 0.0
C3384 C 0.96192 0.48576 0.46137 0.0
C3385 C 0.96609 0.48924 0.47258 0.0
C3386 C 0.01609 0.48231 0.49323 0.0
C3387 C 0.00942 0.49909 0.52331 0.0
C3388 C 0.00451 0.49736 0.51135 0.0
C3389 C 0.99055 0.49311 0.47661 0.0
C3390 C 0.99537 0.49475 0.48857 0.0
H3391 H 0.97783 0.5014 0.54751 0.0
H3392 H 0.97038 0.49488 0.52802 0.0
H3393 H 0.03655 0.47356 0.50784 0.0
H3394 H 0.0223 0.49176 0.45243 0.0
H3395 H 0.02953 0.49803 0.47196 0.0
C3396 C 0.02519 0.50726 0.95427 0.0
C3397 C 0.02439 0.48327 0.94952 0.0
C3398 C 0.02182 0.51015 0.96557 0.0
C3399 C 0.99375 0.47763 0.98927 0.0
H3400 H 0.0319 0.52577 0.00629 0.0
C3401 C 0.98539 0.48552 0.03646 0.0
C3402 C 0.98483 0.50998 0.04076 0.0
C3403 C 0.99087 0.48158 0.02538 0.0
C3404 C 0.02095 0.51239 0.00162 0.0
H3405 H 0.02104 0.44341 0.95291 0.0
H3406 H 0.01533 0.44843 0.97256 0.0
H3407 H 0.04102 0.52052 0.98684 0.0
H3408 H 0.98839 0.54952 0.03671 0.0
H3409 H 0.99788 0.54265 0.01748 0.0
H3410 H 0.97358 0.46961 0.00402 0.0
C3411 C 0.01786 0.46506 0.96757 0.0
C3412 C 0.02617 0.5094 0.99049 0.0
C3413 C 0.02116 0.4622 0.95631 0.0
C3414 C 0.98929 0.53039 0.03371 0.0
C3415 C 0.99475 0.52647 0.02269 0.0
C3416 C 0.98854 0.48061 0.0004 0.0
C3417 C 0.01771 0.48908 0.9723 0.0
C3418 C 0.01256 0.49205 0.98418 0.0
C3419 C 0.99583 0.50204 0.01841 0.0
C3420 C 0.00198 0.49812 0.00668 0.0
H3421 H 0.02756 0.52381 0.94922 0.0
H3422 H 0.02165 0.52893 0.96898 0.0
H3423 H 0.98265 0.46437 0.98459 0.0
H3424 H 0.98213 0.46944 0.04171 0.0
H3425 H 0.99171 0.4625 0.02232 0.0
C3426 C 0.44441 0.53961 0.46915 0.0
C3427 C 0.44548 0.51722 0.46303 0.0
C3428 C 0.44897 0.53928 0.48043 0.0
C3429 C 0.48929 0.50657 0.49865 0.0
H3430 H 0.4511 0.53341 0.523 0.0
C3431 C 0.51803 0.48748 0.54299 0.0
C3432 C 0.51294 0.50539 0.55111 0.0
C3433 C 0.50966 0.49106 0.53229 0.0
C3434 C 0.46222 0.52628 0.51626 0.0
H3435 H 0.4493 0.47674 0.46412 0.0
H3436 H 0.45794 0.47635 0.48376 0.0
H3437 H 0.43356 0.53507 0.50446 0.0
H3438 H 0.49597 0.54162 0.55435 0.0
H3439 H 0.48203 0.5484 0.53548 0.0
H3440 H 0.5183 0.49849 0.51016 0.0
C3441 C 0.45377 0.49407 0.47979 0.0
C3442 C 0.45204 0.52704 0.5057 0.0
C3443 C 0.4489 0.49433 0.46857 0.0
C3444 C 0.50007 0.52747 0.54823 0.0
C3445 C 0.49192 0.53123 0.53746 0.0
C3446 C 0.49965 0.50624 0.50912 0.0
C3447 C 0.45485 0.51663 0.4857 0.0
C3448 C 0.46533 0.51671 0.49687 0.0
C3449 C 0.49625 0.51283 0.5294 0.0
C3450 C 0.48607 0.51559 0.51811 0.0
H3451 H 0.44201 0.55758 0.46512 0.0
H3452 H 0.44975 0.55689 0.48486 0.0
H3453 H 0.5001 0.49902 0.49189 0.0
H3454 H 0.52741 0.47002 0.54501 0.0
H3455 H 0.5129 0.4762 0.52641 0.0
loop_
_geom_bond_atom_site_label_1
_geom_bond_atom_site_label_2
_geom_bond_distance
_geom_bond_site_symmetry_2
_ccdc_geom_bond_type
Co0 N4 2.148 . S
Co0 N10 2.128 . S
Co0 N20 2.194 . S
Co0 O25 2.351 . S
Co0 O26 2.155 . S
Co0 O27 2.096 . S
C1 N4 1.301 . S
C1 N5 1.328 . S
C1 H6 0.930 . S
C2 C3 1.333 . S
C2 N4 1.317 . S
C2 H7 0.930 . S
C3 C2 1.333 . S
C3 N5 1.350 . S
C3 H29 0.931 . S
N4 Co0 2.148 . S
N4 C1 1.301 . S
N4 C2 1.317 . S
N5 C1 1.328 . S
N5 C3 1.350 . S
H6 C1 0.930 . S
H7 C2 0.930 . S
C8 O9 1.224 . S
C8 O27 1.247 . S
O9 C8 1.224 . S
N10 Co0 2.128 . S
N10 C11 1.355 . S
N10 C13 1.311 . S
C11 N10 1.355 . S
C11 C12 1.363 . S
C11 H23 0.929 . S
C12 C11 1.363 . S
C12 N14 1.375 . S
C12 H30 0.931 . S
C13 N10 1.311 . S
C13 N14 1.347 . S
C13 H24 0.929 . S
N14 C12 1.375 . S
N14 C13 1.347 . S
C15 C18 1.365 . S
C15 N20 1.328 . S
C15 H21 0.929 . S
C16 C17 1.362 . S
C16 C19 1.378 . S
C16 H31 0.929 . S
C17 C16 1.362 . S
C17 C18 1.366 . S
C18 C15 1.365 . S
C18 C17 1.366 . S
C18 H32 0.930 . S
C19 C16 1.378 . S
C19 N20 1.315 . S
C19 H22 0.930 . S
N20 Co0 2.194 . S
N20 C15 1.328 . S
N20 C19 1.315 . S
H21 C15 0.929 . S
H22 C19 0.930 . S
H23 C11 0.929 . S
H24 C13 0.929 . S
O25 Co0 2.351 . S
O25 C28 1.244 . S
O26 Co0 2.155 . S
O26 C28 1.240 . S
O27 Co0 2.096 . S
O27 C8 1.247 . S
C28 O25 1.244 . S
C28 O26 1.240 . S
H29 C3 0.931 . S
H30 C12 0.931 . S
H31 C16 0.929 . S
H32 C18 0.930 . S
Co33 N37 2.148 . S
Co33 N43 2.128 . S
Co33 N53 2.194 . S
Co33 O58 2.351 . S
Co33 O59 2.155 . S
Co33 O60 2.096 1_455 S
C34 N37 1.301 . S
C34 N38 1.328 1_545 S
C34 H39 0.930 . S
C35 C36 1.333 1_545 S
C35 N37 1.317 . S
C35 H40 0.930 . S
C36 C35 1.333 1_565 S
C36 N38 1.350 . S
C36 H62 0.931 . S
N37 Co33 2.148 . S
N37 C34 1.301 . S
N37 C35 1.317 . S
N38 C34 1.328 1_565 S
N38 C36 1.350 . S
H39 C34 0.930 . S
H40 C35 0.930 . S
C41 O42 1.224 . S
C41 O60 1.247 . S
O42 C41 1.224 . S
N43 Co33 2.128 . S
N43 C44 1.355 . S
N43 C46 1.279 1_455 S
C44 N43 1.355 . S
C44 C45 1.363 . S
C44 H56 0.929 . S
C45 C44 1.363 . S
C45 N47 1.375 1_455 S
C45 H63 0.931 . S
C46 N43 1.279 1_655 S
C46 N47 1.351 . S
C46 H57 0.956 . S
N47 C45 1.375 1_655 S
N47 C46 1.351 . S
C48 C51 1.365 . S
C48 N53 1.328 . S
C48 H54 0.929 . S
C49 C50 1.362 . S
C49 C52 1.378 . S
C49 H64 0.929 1_455 S
C50 C49 1.362 . S
C50 C51 1.366 . S
C51 C48 1.365 . S
C51 C50 1.366 . S
C51 H65 0.930 . S
C52 C49 1.378 . S
C52 N53 1.315 . S
C52 H55 0.930 1_455 S
N53 Co33 2.194 . S
N53 C48 1.328 . S
N53 C52 1.315 . S
H54 C48 0.929 . S
H55 C52 0.930 1_655 S
H56 C44 0.929 . S
H57 C46 0.956 . S
O58 Co33 2.351 . S
O58 C61 1.244 . S
O59 Co33 2.155 . S
O59 C61 1.240 . S
O60 Co33 2.096 1_655 S
O60 C41 1.247 . S
C61 O58 1.244 . S
C61 O59 1.240 . S
H62 C36 0.931 . S
H63 C45 0.931 . S
H64 C49 0.929 1_655 S
H65 C51 0.930 . S
Co66 N70 2.148 . S
Co66 N76 2.128 . S
Co66 N86 2.194 . S
Co66 O91 2.351 . S
Co66 O92 2.155 . S
Co66 O93 2.096 . S
C67 N70 1.301 . S
C67 N71 1.328 . S
C67 H72 0.930 . S
C68 C69 1.333 . S
C68 N70 1.317 . S
C68 H73 0.930 . S
C69 C68 1.333 . S
C69 N71 1.350 . S
C69 H95 0.931 . S
N70 Co66 2.148 . S
N70 C67 1.301 . S
N70 C68 1.317 . S
N71 C67 1.328 . S
N71 C69 1.350 . S
H72 C67 0.930 . S
H73 C68 0.930 . S
C74 O75 1.224 . S
C74 O93 1.247 . S
O75 C74 1.224 . S
N76 Co66 2.128 . S
N76 C77 1.355 . S
N76 C79 1.311 . S
C77 N76 1.355 . S
C77 C78 1.363 . S
C77 H89 0.929 . S
C78 C77 1.363 . S
C78 N80 1.375 . S
C78 H96 0.931 . S
C79 N76 1.311 . S
C79 N80 1.347 . S
C79 H90 0.929 . S
N80 C78 1.375 . S
N80 C79 1.347 . S
C81 C84 1.365 . S
C81 N86 1.328 . S
C81 H87 0.929 . S
C82 C83 1.362 . S
C82 C85 1.378 . S
C82 H97 0.929 . S
C83 C82 1.362 . S
C83 C84 1.366 . S
C84 C81 1.365 . S
C84 C83 1.366 . S
C84 H98 0.930 . S
C85 C82 1.378 . S
C85 N86 1.315 . S
C85 H88 0.930 . S
N86 Co66 2.194 . S
N86 C81 1.328 . S
N86 C85 1.315 . S
H87 C81 0.929 . S
H88 C85 0.930 . S
H89 C77 0.929 . S
H90 C79 0.929 . S
O91 Co66 2.351 . S
O91 C94 1.244 . S
O92 Co66 2.155 . S
O92 C94 1.240 . S
O93 Co66 2.096 . S
O93 C74 1.247 . S
C94 O91 1.244 . S
C94 O92 1.240 . S
H95 C69 0.931 . S
H96 C78 0.931 . S
H97 C82 0.929 . S
H98 C84 0.930 . S
Co99 N103 2.148 . S
Co99 N109 2.128 . S
Co99 N119 2.194 . S
Co99 O124 2.351 . S
Co99 O125 2.155 . S
Co99 O126 2.096 . S
C100 N103 1.301 . S
C100 N104 1.328 1_565 S
C100 H105 0.930 . S
C101 C102 1.333 1_565 S
C101 N103 1.317 . S
C101 H106 0.930 . S
C102 C101 1.333 1_545 S
C102 N104 1.350 . S
C102 H128 0.931 . S
N103 Co99 2.148 . S
N103 C100 1.301 . S
N103 C101 1.317 . S
N104 C100 1.328 1_545 S
N104 C102 1.350 . S
H105 C100 0.930 . S
H106 C101 0.930 . S
C107 O108 1.224 . S
C107 O126 1.247 . S
O108 C107 1.224 . S
N109 Co99 2.128 . S
N109 C110 1.355 . S
N109 C112 1.311 . S
C110 N109 1.355 . S
C110 C111 1.363 . S
C110 H122 0.929 . S
C111 C110 1.363 . S
C111 N113 1.375 . S
C111 H129 0.931 . S
C112 N109 1.311 . S
C112 N113 1.347 . S
C112 H123 0.929 . S
N113 C111 1.375 . S
N113 C112 1.347 . S
C114 C117 1.365 . S
C114 N119 1.328 . S
C114 H120 0.929 . S
C115 C116 1.362 . S
C115 C118 1.378 . S
C115 H130 0.929 . S
C116 C115 1.362 . S
C116 C117 1.366 . S
C117 C114 1.365 . S
C117 C116 1.366 . S
C117 H131 0.930 . S
C118 C115 1.378 . S
C118 N119 1.315 . S
C118 H121 0.930 . S
N119 Co99 2.194 . S
N119 C114 1.328 . S
N119 C118 1.315 . S
H120 C114 0.929 . S
H121 C118 0.930 . S
H122 C110 0.929 . S
H123 C112 0.929 . S
O124 Co99 2.351 . S
O124 C127 1.244 . S
O125 Co99 2.155 . S
O125 C127 1.240 . S
O126 Co99 2.096 . S
O126 C107 1.247 . S
C127 O124 1.244 . S
C127 O125 1.240 . S
H128 C102 0.931 . S
H129 C111 0.931 . S
H130 C115 0.929 . S
H131 C117 0.930 . S
Co132 N136 2.148 . S
Co132 N142 2.128 . S
Co132 N152 2.194 . S
Co132 O157 2.351 . S
Co132 O158 2.155 . S
Co132 O159 2.096 . S
C133 N136 1.301 . S
C133 N137 1.328 . S
C133 H138 0.930 . S
C134 C135 1.333 . S
C134 N136 1.317 . S
C134 H139 0.930 . S
C135 C134 1.333 . S
C135 N137 1.350 . S
C135 H161 0.931 . S
N136 Co132 2.148 . S
N136 C133 1.301 . S
N136 C134 1.317 . S
N137 C133 1.328 . S
N137 C135 1.350 . S
H138 C133 0.930 . S
H139 C134 0.930 . S
C140 O141 1.224 . S
C140 O159 1.247 . S
O141 C140 1.224 . S
N142 Co132 2.128 . S
N142 C143 1.355 . S
N142 C145 1.311 . S
C143 N142 1.355 . S
C143 C144 1.363 . S
C143 H155 0.929 . S
C144 C143 1.363 . S
C144 N146 1.375 . S
C144 H162 0.931 . S
C145 N142 1.311 . S
C145 N146 1.347 . S
C145 H156 0.929 . S
N146 C144 1.375 . S
N146 C145 1.347 . S
C147 C150 1.365 . S
C147 N152 1.328 . S
C147 H153 0.929 . S
C148 C149 1.362 . S
C148 C151 1.378 . S
C148 H163 0.929 . S
C149 C148 1.362 . S
C149 C150 1.366 . S
C150 C147 1.365 . S
C150 C149 1.366 . S
C150 H164 0.930 . S
C151 C148 1.378 . S
C151 N152 1.315 . S
C151 H154 0.930 . S
N152 Co132 2.194 . S
N152 C147 1.328 . S
N152 C151 1.315 . S
H153 C147 0.929 . S
H154 C151 0.930 . S
H155 C143 0.929 . S
H156 C145 0.929 . S
O157 Co132 2.351 . S
O157 C160 1.244 . S
O158 Co132 2.155 . S
O158 C160 1.240 . S
O159 Co132 2.096 . S
O159 C140 1.247 . S
C160 O157 1.244 . S
C160 O158 1.240 . S
H161 C135 0.931 . S
H162 C144 0.931 . S
H163 C148 0.929 . S
H164 C150 0.930 . S
Co165 N169 2.148 . S
Co165 N175 2.128 . S
Co165 N185 2.194 . S
Co165 O190 2.351 . S
Co165 O191 2.155 . S
Co165 O192 2.096 . S
C166 N169 1.301 . S
C166 N170 1.328 1_545 S
C166 H171 0.930 . S
C167 C168 1.333 1_545 S
C167 N169 1.317 . S
C167 H172 0.930 . S
C168 C167 1.333 1_565 S
C168 N170 1.350 . S
C168 H194 0.931 . S
N169 Co165 2.148 . S
N169 C166 1.301 . S
N169 C167 1.317 . S
N170 C166 1.328 1_565 S
N170 C168 1.350 . S
H171 C166 0.930 . S
H172 C167 0.930 . S
C173 O174 1.224 . S
C173 O192 1.247 . S
O174 C173 1.224 . S
N175 Co165 2.128 . S
N175 C176 1.355 . S
N175 C178 1.311 . S
C176 N175 1.355 . S
C176 C177 1.363 . S
C176 H188 0.929 . S
C177 C176 1.363 . S
C177 N179 1.375 . S
C177 H195 0.931 . S
C178 N175 1.311 . S
C178 N179 1.347 . S
C178 H189 0.929 . S
N179 C177 1.375 . S
N179 C178 1.347 . S
C180 C183 1.365 . S
C180 N185 1.328 . S
C180 H186 0.929 . S
C181 C182 1.362 . S
C181 C184 1.378 . S
C181 H196 0.929 . S
C182 C181 1.362 . S
C182 C183 1.366 . S
C183 C180 1.365 . S
C183 C182 1.366 . S
C183 H197 0.930 . S
C184 C181 1.378 . S
C184 N185 1.315 . S
C184 H187 0.930 . S
N185 Co165 2.194 . S
N185 C180 1.328 . S
N185 C184 1.315 . S
H186 C180 0.929 . S
H187 C184 0.930 . S
H188 C176 0.929 . S
H189 C178 0.929 . S
O190 Co165 2.351 . S
O190 C193 1.244 . S
O191 Co165 2.155 . S
O191 C193 1.240 . S
O192 Co165 2.096 . S
O192 C173 1.247 . S
C193 O190 1.244 . S
C193 O191 1.240 . S
H194 C168 0.931 . S
H195 C177 0.931 . S
H196 C181 0.929 . S
H197 C183 0.930 . S
Co198 N202 2.148 . S
Co198 N208 2.128 . S
Co198 N218 2.194 . S
Co198 O223 2.351 . S
Co198 O224 2.155 . S
Co198 O225 2.096 . S
C199 N202 1.301 . S
C199 N203 1.328 . S
C199 H204 0.930 . S
C200 C201 1.333 . S
C200 N202 1.317 . S
C200 H205 0.930 . S
C201 C200 1.333 . S
C201 N203 1.350 . S
C201 H227 0.931 . S
N202 Co198 2.148 . S
N202 C199 1.301 . S
N202 C200 1.317 . S
N203 C199 1.328 . S
N203 C201 1.350 . S
H204 C199 0.930 . S
H205 C200 0.930 . S
C206 O207 1.224 . S
C206 O225 1.247 . S
O207 C206 1.224 . S
N208 Co198 2.128 . S
N208 C209 1.355 . S
N208 C211 1.311 . S
C209 N208 1.355 . S
C209 C210 1.363 . S
C209 H221 0.929 . S
C210 C209 1.363 . S
C210 N212 1.375 . S
C210 H228 0.931 . S
C211 N208 1.311 . S
C211 N212 1.347 . S
C211 H222 0.929 . S
N212 C210 1.375 . S
N212 C211 1.347 . S
C213 C216 1.365 . S
C213 N218 1.328 . S
C213 H219 0.929 . S
C214 C215 1.362 . S
C214 C217 1.378 . S
C214 H229 0.929 . S
C215 C214 1.362 . S
C215 C216 1.366 . S
C216 C213 1.365 . S
C216 C215 1.366 . S
C216 H230 0.930 . S
C217 C214 1.378 . S
C217 N218 1.315 . S
C217 H220 0.930 . S
N218 Co198 2.194 . S
N218 C213 1.328 . S
N218 C217 1.315 . S
H219 C213 0.929 . S
H220 C217 0.930 . S
H221 C209 0.929 . S
H222 C211 0.929 . S
O223 Co198 2.351 . S
O223 C226 1.244 . S
O224 Co198 2.155 . S
O224 C226 1.240 . S
O225 Co198 2.096 . S
O225 C206 1.247 . S
C226 O223 1.244 . S
C226 O224 1.240 . S
H227 C201 0.931 . S
H228 C210 0.931 . S
H229 C214 0.929 . S
H230 C216 0.930 . S
Co231 N235 2.148 . S
Co231 N241 2.128 . S
Co231 N251 2.194 . S
Co231 O256 2.351 . S
Co231 O257 2.155 . S
Co231 O258 2.096 1_455 S
C232 N235 1.301 . S
C232 N236 1.328 1_565 S
C232 H237 0.930 . S
C233 C234 1.333 1_565 S
C233 N235 1.317 . S
C233 H238 0.930 . S
C234 C233 1.333 1_545 S
C234 N236 1.350 . S
C234 H260 0.931 . S
N235 Co231 2.148 . S
N235 C232 1.301 . S
N235 C233 1.317 . S
N236 C232 1.328 1_545 S
N236 C234 1.350 . S
H237 C232 0.930 . S
H238 C233 0.930 . S
C239 O240 1.224 . S
C239 O258 1.247 . S
O240 C239 1.224 . S
N241 Co231 2.128 . S
N241 C242 1.355 . S
N241 C244 1.279 1_455 S
C242 N241 1.355 . S
C242 C243 1.363 . S
C242 H254 0.929 . S
C243 C242 1.363 . S
C243 N245 1.375 1_455 S
C243 H261 0.931 . S
C244 N241 1.279 1_655 S
C244 N245 1.351 . S
C244 H255 0.955 . S
N245 C243 1.375 1_655 S
N245 C244 1.351 . S
C246 C249 1.365 . S
C246 N251 1.328 . S
C246 H252 0.929 . S
C247 C248 1.362 . S
C247 C250 1.378 . S
C247 H262 0.929 1_455 S
C248 C247 1.362 . S
C248 C249 1.366 . S
C249 C246 1.365 . S
C249 C248 1.366 . S
C249 H263 0.930 . S
C250 C247 1.378 . S
C250 N251 1.315 . S
C250 H253 0.930 1_455 S
N251 Co231 2.194 . S
N251 C246 1.328 . S
N251 C250 1.315 . S
H252 C246 0.929 . S
H253 C250 0.930 1_655 S
H254 C242 0.929 . S
H255 C244 0.955 . S
O256 Co231 2.351 . S
O256 C259 1.244 . S
O257 Co231 2.155 . S
O257 C259 1.240 . S
O258 Co231 2.096 1_655 S
O258 C239 1.247 . S
C259 O256 1.244 . S
C259 O257 1.240 . S
H260 C234 0.931 . S
H261 C243 0.931 . S
H262 C247 0.929 1_655 S
H263 C249 0.930 . S
Co264 N268 2.148 . S
Co264 N274 2.128 . S
Co264 N284 2.194 . S
Co264 O289 2.351 . S
Co264 O290 2.155 . S
Co264 O291 2.096 . S
C265 N268 1.301 . S
C265 N269 1.328 . S
C265 H270 0.930 . S
C266 C267 1.333 . S
C266 N268 1.317 . S
C266 H271 0.930 . S
C267 C266 1.333 . S
C267 N269 1.350 . S
C267 H293 0.931 . S
N268 Co264 2.148 . S
N268 C265 1.301 . S
N268 C266 1.317 . S
N269 C265 1.328 . S
N269 C267 1.350 . S
H270 C265 0.930 . S
H271 C266 0.930 . S
C272 O273 1.224 . S
C272 O291 1.247 . S
O273 C272 1.224 . S
N274 Co264 2.128 . S
N274 C275 1.355 . S
N274 C277 1.311 . S
C275 N274 1.355 . S
C275 C276 1.363 . S
C275 H287 0.929 . S
C276 C275 1.363 . S
C276 N278 1.375 . S
C276 H294 0.931 . S
C277 N274 1.311 . S
C277 N278 1.347 . S
C277 H288 0.929 . S
N278 C276 1.375 . S
N278 C277 1.347 . S
C279 C282 1.365 . S
C279 N284 1.328 . S
C279 H285 0.929 . S
C280 C281 1.362 . S
C280 C283 1.378 . S
C280 H295 0.929 . S
C281 C280 1.362 . S
C281 C282 1.366 . S
C282 C279 1.365 . S
C282 C281 1.366 . S
C282 H296 0.930 . S
C283 C280 1.378 . S
C283 N284 1.315 . S
C283 H286 0.930 . S
N284 Co264 2.194 . S
N284 C279 1.328 . S
N284 C283 1.315 . S
H285 C279 0.929 . S
H286 C283 0.930 . S
H287 C275 0.929 . S
H288 C277 0.929 . S
O289 Co264 2.351 . S
O289 C292 1.244 . S
O290 Co264 2.155 . S
O290 C292 1.240 . S
O291 Co264 2.096 . S
O291 C272 1.247 . S
C292 O289 1.244 . S
C292 O290 1.240 . S
H293 C267 0.931 . S
H294 C276 0.931 . S
H295 C280 0.929 . S
H296 C282 0.930 . S
Co297 N301 2.148 . S
Co297 N307 2.128 . S
Co297 N317 2.194 . S
Co297 O322 2.351 . S
Co297 O323 2.155 . S
Co297 O324 2.096 1_655 S
C298 N301 1.301 . S
C298 N302 1.328 1_565 S
C298 H303 0.930 . S
C299 C300 1.333 1_565 S
C299 N301 1.317 . S
C299 H304 0.930 . S
C300 C299 1.333 1_545 S
C300 N302 1.350 . S
C300 H326 0.931 . S
N301 Co297 2.148 . S
N301 C298 1.301 . S
N301 C299 1.317 . S
N302 C298 1.328 1_545 S
N302 C300 1.350 . S
H303 C298 0.930 . S
H304 C299 0.930 . S
C305 O306 1.224 . S
C305 O324 1.247 . S
O306 C305 1.224 . S
N307 Co297 2.128 . S
N307 C308 1.355 . S
N307 C310 1.279 1_655 S
C308 N307 1.355 . S
C308 C309 1.363 . S
C308 H320 0.929 . S
C309 C308 1.363 . S
C309 N311 1.375 1_655 S
C309 H327 0.931 . S
C310 N307 1.279 1_455 S
C310 N311 1.351 . S
C310 H321 0.956 . S
N311 C309 1.375 1_455 S
N311 C310 1.351 . S
C312 C315 1.365 . S
C312 N317 1.328 . S
C312 H318 0.929 . S
C313 C314 1.362 . S
C313 C316 1.378 . S
C313 H328 0.929 1_655 S
C314 C313 1.362 . S
C314 C315 1.366 . S
C315 C312 1.365 . S
C315 C314 1.366 . S
C315 H329 0.930 . S
C316 C313 1.378 . S
C316 N317 1.315 . S
C316 H319 0.930 1_655 S
N317 Co297 2.194 . S
N317 C312 1.328 . S
N317 C316 1.315 . S
H318 C312 0.929 . S
H319 C316 0.930 1_455 S
H320 C308 0.929 . S
H321 C310 0.956 . S
O322 Co297 2.351 . S
O322 C325 1.244 . S
O323 Co297 2.155 . S
O323 C325 1.240 . S
O324 Co297 2.096 1_455 S
O324 C305 1.247 . S
C325 O322 1.244 . S
C325 O323 1.240 . S
H326 C300 0.931 . S
H327 C309 0.931 . S
H328 C313 0.929 1_455 S
H329 C315 0.930 . S
Co330 N334 2.148 . S
Co330 N340 2.128 . S
Co330 N350 2.194 . S
Co330 O355 2.351 . S
Co330 O356 2.155 . S
Co330 O357 2.096 . S
C331 N334 1.301 . S
C331 N335 1.328 . S
C331 H336 0.930 . S
C332 C333 1.333 . S
C332 N334 1.317 . S
C332 H337 0.930 . S
C333 C332 1.333 . S
C333 N335 1.350 . S
C333 H359 0.931 . S
N334 Co330 2.148 . S
N334 C331 1.301 . S
N334 C332 1.317 . S
N335 C331 1.328 . S
N335 C333 1.350 . S
H336 C331 0.930 . S
H337 C332 0.930 . S
C338 O339 1.224 . S
C338 O357 1.247 . S
O339 C338 1.224 . S
N340 Co330 2.128 . S
N340 C341 1.355 . S
N340 C343 1.311 . S
C341 N340 1.355 . S
C341 C342 1.363 . S
C341 H353 0.929 . S
C342 C341 1.363 . S
C342 N344 1.375 . S
C342 H360 0.931 . S
C343 N340 1.311 . S
C343 N344 1.347 . S
C343 H354 0.929 . S
N344 C342 1.375 . S
N344 C343 1.347 . S
C345 C348 1.365 . S
C345 N350 1.328 . S
C345 H351 0.929 . S
C346 C347 1.362 . S
C346 C349 1.378 . S
C346 H361 0.929 . S
C347 C346 1.362 . S
C347 C348 1.366 . S
C348 C345 1.365 . S
C348 C347 1.366 . S
C348 H362 0.930 . S
C349 C346 1.378 . S
C349 N350 1.315 . S
C349 H352 0.930 . S
N350 Co330 2.194 . S
N350 C345 1.328 . S
N350 C349 1.315 . S
H351 C345 0.929 . S
H352 C349 0.930 . S
H353 C341 0.929 . S
H354 C343 0.929 . S
O355 Co330 2.351 . S
O355 C358 1.244 . S
O356 Co330 2.155 . S
O356 C358 1.240 . S
O357 Co330 2.096 . S
O357 C338 1.247 . S
C358 O355 1.244 . S
C358 O356 1.240 . S
H359 C333 0.931 . S
H360 C342 0.931 . S
H361 C346 0.929 . S
H362 C348 0.930 . S
Co363 N367 2.148 . S
Co363 N373 2.128 . S
Co363 N383 2.194 . S
Co363 O388 2.351 . S
Co363 O389 2.155 . S
Co363 O390 2.096 . S
C364 N367 1.301 . S
C364 N368 1.328 1_545 S
C364 H369 0.930 . S
C365 C366 1.333 1_545 S
C365 N367 1.317 . S
C365 H370 0.930 . S
C366 C365 1.333 1_565 S
C366 N368 1.350 . S
C366 H392 0.931 . S
N367 Co363 2.148 . S
N367 C364 1.301 . S
N367 C365 1.317 . S
N368 C364 1.328 1_565 S
N368 C366 1.350 . S
H369 C364 0.930 . S
H370 C365 0.930 . S
C371 O372 1.224 . S
C371 O390 1.247 . S
O372 C371 1.224 . S
N373 Co363 2.128 . S
N373 C374 1.355 . S
N373 C376 1.311 . S
C374 N373 1.355 . S
C374 C375 1.363 . S
C374 H386 0.929 . S
C375 C374 1.363 . S
C375 N377 1.375 . S
C375 H393 0.931 . S
C376 N373 1.311 . S
C376 N377 1.347 . S
C376 H387 0.929 . S
N377 C375 1.375 . S
N377 C376 1.347 . S
C378 C381 1.365 . S
C378 N383 1.328 . S
C378 H384 0.929 . S
C379 C380 1.362 . S
C379 C382 1.378 . S
C379 H394 0.929 . S
C380 C379 1.362 . S
C380 C381 1.366 . S
C381 C378 1.365 . S
C381 C380 1.366 . S
C381 H395 0.930 . S
C382 C379 1.378 . S
C382 N383 1.315 . S
C382 H385 0.930 . S
N383 Co363 2.194 . S
N383 C378 1.328 . S
N383 C382 1.315 . S
H384 C378 0.929 . S
H385 C382 0.930 . S
H386 C374 0.929 . S
H387 C376 0.929 . S
O388 Co363 2.351 . S
O388 C391 1.244 . S
O389 Co363 2.155 . S
O389 C391 1.240 . S
O390 Co363 2.096 . S
O390 C371 1.247 . S
C391 O388 1.244 . S
C391 O389 1.240 . S
H392 C366 0.931 . S
H393 C375 0.931 . S
H394 C379 0.929 . S
H395 C381 0.930 . S
Co396 N400 2.148 . S
Co396 N406 2.128 . S
Co396 N416 2.194 . S
Co396 O421 2.351 . S
Co396 O422 2.155 . S
Co396 O423 2.096 . S
C397 N400 1.301 . S
C397 N401 1.328 . S
C397 H402 0.930 . S
C398 C399 1.333 . S
C398 N400 1.317 . S
C398 H403 0.930 . S
C399 C398 1.333 . S
C399 N401 1.350 . S
C399 H425 0.931 . S
N400 Co396 2.148 . S
N400 C397 1.301 . S
N400 C398 1.317 . S
N401 C397 1.328 . S
N401 C399 1.350 . S
H402 C397 0.930 . S
H403 C398 0.930 . S
C404 O405 1.224 . S
C404 O423 1.247 . S
O405 C404 1.224 . S
N406 Co396 2.128 . S
N406 C407 1.355 . S
N406 C409 1.311 . S
C407 N406 1.355 . S
C407 C408 1.363 . S
C407 H419 0.929 . S
C408 C407 1.363 . S
C408 N410 1.375 . S
C408 H426 0.931 . S
C409 N406 1.311 . S
C409 N410 1.347 . S
C409 H420 0.929 . S
N410 C408 1.375 . S
N410 C409 1.347 . S
C411 C414 1.365 . S
C411 N416 1.328 . S
C411 H417 0.929 . S
C412 C413 1.362 . S
C412 C415 1.378 . S
C412 H427 0.929 . S
C413 C412 1.362 . S
C413 C414 1.366 . S
C414 C411 1.365 . S
C414 C413 1.366 . S
C414 H428 0.930 . S
C415 C412 1.378 . S
C415 N416 1.315 . S
C415 H418 0.930 . S
N416 Co396 2.194 . S
N416 C411 1.328 . S
N416 C415 1.315 . S
H417 C411 0.929 . S
H418 C415 0.930 . S
H419 C407 0.929 . S
H420 C409 0.929 . S
O421 Co396 2.351 . S
O421 C424 1.244 . S
O422 Co396 2.155 . S
O422 C424 1.240 . S
O423 Co396 2.096 . S
O423 C404 1.247 . S
C424 O421 1.244 . S
C424 O422 1.240 . S
H425 C399 0.931 . S
H426 C408 0.931 . S
H427 C412 0.929 . S
H428 C414 0.930 . S
Co429 N433 2.148 . S
Co429 N439 2.128 . S
Co429 N449 2.194 . S
Co429 O454 2.351 . S
Co429 O455 2.155 . S
Co429 O456 2.096 . S
C430 N433 1.301 . S
C430 N434 1.328 1_565 S
C430 H435 0.930 . S
C431 C432 1.333 1_565 S
C431 N433 1.317 . S
C431 H436 0.930 . S
C432 C431 1.333 1_545 S
C432 N434 1.350 . S
C432 H458 0.931 . S
N433 Co429 2.148 . S
N433 C430 1.301 . S
N433 C431 1.317 . S
N434 C430 1.328 1_545 S
N434 C432 1.350 . S
H435 C430 0.930 . S
H436 C431 0.930 . S
C437 O438 1.224 . S
C437 O456 1.247 . S
O438 C437 1.224 . S
N439 Co429 2.128 . S
N439 C440 1.355 . S
N439 C442 1.311 . S
C440 N439 1.355 . S
C440 C441 1.363 . S
C440 H452 0.929 . S
C441 C440 1.363 . S
C441 N443 1.375 . S
C441 H459 0.931 . S
C442 N439 1.311 . S
C442 N443 1.347 . S
C442 H453 0.929 . S
N443 C441 1.375 . S
N443 C442 1.347 . S
C444 C447 1.365 . S
C444 N449 1.328 . S
C444 H450 0.929 . S
C445 C446 1.362 . S
C445 C448 1.378 . S
C445 H460 0.929 . S
C446 C445 1.362 . S
C446 C447 1.366 . S
C447 C444 1.365 . S
C447 C446 1.366 . S
C447 H461 0.930 . S
C448 C445 1.378 . S
C448 N449 1.315 . S
C448 H451 0.930 . S
N449 Co429 2.194 . S
N449 C444 1.328 . S
N449 C448 1.315 . S
H450 C444 0.929 . S
H451 C448 0.930 . S
H452 C440 0.929 . S
H453 C442 0.929 . S
O454 Co429 2.351 . S
O454 C457 1.244 . S
O455 Co429 2.155 . S
O455 C457 1.240 . S
O456 Co429 2.096 . S
O456 C437 1.247 . S
C457 O454 1.244 . S
C457 O455 1.240 . S
H458 C432 0.931 . S
H459 C441 0.931 . S
H460 C445 0.929 . S
H461 C447 0.930 . S
Co462 N466 2.148 . S
Co462 N472 2.128 . S
Co462 N482 2.194 . S
Co462 O487 2.351 . S
Co462 O488 2.155 . S
Co462 O489 2.096 . S
C463 N466 1.301 . S
C463 N467 1.328 . S
C463 H468 0.930 . S
C464 C465 1.333 . S
C464 N466 1.317 . S
C464 H469 0.930 . S
C465 C464 1.333 . S
C465 N467 1.350 . S
C465 H491 0.931 . S
N466 Co462 2.148 . S
N466 C463 1.301 . S
N466 C464 1.317 . S
N467 C463 1.328 . S
N467 C465 1.350 . S
H468 C463 0.930 . S
H469 C464 0.930 . S
C470 O471 1.224 . S
C470 O489 1.247 . S
O471 C470 1.224 . S
N472 Co462 2.128 . S
N472 C473 1.355 . S
N472 C475 1.311 . S
C473 N472 1.355 . S
C473 C474 1.363 . S
C473 H485 0.929 . S
C474 C473 1.363 . S
C474 N476 1.375 . S
C474 H492 0.931 . S
C475 N472 1.311 . S
C475 N476 1.347 . S
C475 H486 0.929 . S
N476 C474 1.375 . S
N476 C475 1.347 . S
C477 C480 1.365 . S
C477 N482 1.328 . S
C477 H483 0.929 . S
C478 C479 1.362 . S
C478 C481 1.378 . S
C478 H493 0.929 . S
C479 C478 1.362 . S
C479 C480 1.366 . S
C480 C477 1.365 . S
C480 C479 1.366 . S
C480 H494 0.930 . S
C481 C478 1.378 . S
C481 N482 1.315 . S
C481 H484 0.930 . S
N482 Co462 2.194 . S
N482 C477 1.328 . S
N482 C481 1.315 . S
H483 C477 0.929 . S
H484 C481 0.930 . S
H485 C473 0.929 . S
H486 C475 0.929 . S
O487 Co462 2.351 . S
O487 C490 1.244 . S
O488 Co462 2.155 . S
O488 C490 1.240 . S
O489 Co462 2.096 . S
O489 C470 1.247 . S
C490 O487 1.244 . S
C490 O488 1.240 . S
H491 C465 0.931 . S
H492 C474 0.931 . S
H493 C478 0.929 . S
H494 C480 0.930 . S
Co495 N499 2.148 . S
Co495 N505 2.128 . S
Co495 N515 2.194 . S
Co495 O520 2.351 . S
Co495 O521 2.155 . S
Co495 O522 2.096 1_655 S
C496 N499 1.301 . S
C496 N500 1.328 1_545 S
C496 H501 0.930 . S
C497 C498 1.333 1_545 S
C497 N499 1.317 . S
C497 H502 0.930 . S
C498 C497 1.333 1_565 S
C498 N500 1.350 . S
C498 H524 0.931 . S
N499 Co495 2.148 . S
N499 C496 1.301 . S
N499 C497 1.317 . S
N500 C496 1.328 1_565 S
N500 C498 1.350 . S
H501 C496 0.930 . S
H502 C497 0.930 . S
C503 O504 1.224 . S
C503 O522 1.247 . S
O504 C503 1.224 . S
N505 Co495 2.128 . S
N505 C506 1.355 . S
N505 C508 1.279 1_655 S
C506 N505 1.355 . S
C506 C507 1.363 . S
C506 H518 0.929 . S
C507 C506 1.363 . S
C507 N509 1.375 1_655 S
C507 H525 0.931 . S
C508 N505 1.279 1_455 S
C508 N509 1.351 . S
C508 H519 0.955 . S
N509 C507 1.375 1_455 S
N509 C508 1.351 . S
C510 C513 1.365 . S
C510 N515 1.328 . S
C510 H516 0.929 . S
C511 C512 1.362 . S
C511 C514 1.378 . S
C511 H526 0.929 1_655 S
C512 C511 1.362 . S
C512 C513 1.366 . S
C513 C510 1.365 . S
C513 C512 1.366 . S
C513 H527 0.930 . S
C514 C511 1.378 . S
C514 N515 1.315 . S
C514 H517 0.930 1_655 S
N515 Co495 2.194 . S
N515 C510 1.328 . S
N515 C514 1.315 . S
H516 C510 0.929 . S
H517 C514 0.930 1_455 S
H518 C506 0.929 . S
H519 C508 0.955 . S
O520 Co495 2.351 . S
O520 C523 1.244 . S
O521 Co495 2.155 . S
O521 C523 1.240 . S
O522 Co495 2.096 1_455 S
O522 C503 1.247 . S
C523 O520 1.244 . S
C523 O521 1.240 . S
H524 C498 0.931 . S
H525 C507 0.931 . S
H526 C511 0.929 1_455 S
H527 C513 0.930 . S
Co528 N532 2.148 . S
Co528 N538 2.128 . S
Co528 N548 2.194 . S
Co528 O553 2.351 . S
Co528 O554 2.155 . S
Co528 O555 2.096 . S
C529 N532 1.301 . S
C529 N533 1.328 . S
C529 H534 0.930 . S
C530 C531 1.333 . S
C530 N532 1.317 . S
C530 H535 0.930 . S
C531 C530 1.333 . S
C531 N533 1.350 . S
C531 H557 0.931 . S
N532 Co528 2.148 . S
N532 C529 1.301 . S
N532 C530 1.317 . S
N533 C529 1.328 . S
N533 C531 1.350 . S
H534 C529 0.930 . S
H535 C530 0.930 . S
C536 O537 1.224 . S
C536 O555 1.247 . S
O537 C536 1.224 . S
N538 Co528 2.128 . S
N538 C539 1.355 . S
N538 C541 1.311 . S
C539 N538 1.355 . S
C539 C540 1.363 . S
C539 H551 0.929 . S
C540 C539 1.363 . S
C540 N542 1.375 . S
C540 H558 0.931 . S
C541 N538 1.311 . S
C541 N542 1.347 . S
C541 H552 0.929 . S
N542 C540 1.375 . S
N542 C541 1.347 . S
C543 C546 1.365 . S
C543 N548 1.328 . S
C543 H549 0.929 . S
C544 C545 1.362 . S
C544 C547 1.378 . S
C544 H559 0.929 . S
C545 C544 1.362 . S
C545 C546 1.366 . S
C546 C543 1.365 . S
C546 C545 1.366 . S
C546 H560 0.930 . S
C547 C544 1.378 . S
C547 N548 1.315 . S
C547 H550 0.930 . S
N548 Co528 2.194 . S
N548 C543 1.328 . S
N548 C547 1.315 . S
H549 C543 0.929 . S
H550 C547 0.930 . S
H551 C539 0.929 . S
H552 C541 0.929 . S
O553 Co528 2.351 . S
O553 C556 1.244 . S
O554 Co528 2.155 . S
O554 C556 1.240 . S
O555 Co528 2.096 . S
O555 C536 1.247 . S
C556 O553 1.244 . S
C556 O554 1.240 . S
H557 C531 0.931 . S
H558 C540 0.931 . S
H559 C544 0.929 . S
H560 C546 0.930 . S
Co561 N565 2.148 . S
Co561 N571 2.128 . S
Co561 N581 2.194 . S
Co561 O586 2.351 . S
Co561 O587 2.155 . S
Co561 O588 2.096 . S
C562 N565 1.301 . S
C562 N566 1.328 . S
C562 H567 0.930 . S
C563 C564 1.333 . S
C563 N565 1.317 . S
C563 H568 0.930 . S
C564 C563 1.333 . S
C564 N566 1.350 . S
C564 H590 0.931 . S
N565 Co561 2.148 . S
N565 C562 1.301 . S
N565 C563 1.317 . S
N566 C562 1.328 . S
N566 C564 1.350 . S
H567 C562 0.930 . S
H568 C563 0.930 . S
C569 O570 1.224 . S
C569 O588 1.247 . S
O570 C569 1.224 . S
N571 Co561 2.128 . S
N571 C572 1.355 . S
N571 C574 1.311 . S
C572 N571 1.355 . S
C572 C573 1.363 . S
C572 H584 0.929 . S
C573 C572 1.363 . S
C573 N575 1.375 . S
C573 H591 0.931 . S
C574 N571 1.311 . S
C574 N575 1.347 . S
C574 H585 0.929 . S
N575 C573 1.375 . S
N575 C574 1.347 . S
C576 C579 1.365 . S
C576 N581 1.328 . S
C576 H582 0.929 . S
C577 C578 1.362 . S
C577 C580 1.378 . S
C577 H592 0.929 . S
C578 C577 1.362 . S
C578 C579 1.366 . S
C579 C576 1.365 . S
C579 C578 1.366 . S
C579 H593 0.930 . S
C580 C577 1.378 . S
C580 N581 1.315 . S
C580 H583 0.930 . S
N581 Co561 2.194 . S
N581 C576 1.328 . S
N581 C580 1.315 . S
H582 C576 0.929 . S
H583 C580 0.930 . S
H584 C572 0.929 . S
H585 C574 0.929 . S
O586 Co561 2.351 . S
O586 C589 1.244 . S
O587 Co561 2.155 . S
O587 C589 1.240 . S
O588 Co561 2.096 . S
O588 C569 1.247 . S
C589 O586 1.244 . S
C589 O587 1.240 . S
H590 C564 0.931 . S
H591 C573 0.931 . S
H592 C577 0.929 . S
H593 C579 0.930 . S
Co594 N598 2.148 . S
Co594 N604 2.128 . S
Co594 N614 2.194 . S
Co594 O619 2.351 . S
Co594 O620 2.155 . S
Co594 O621 2.096 . S
C595 N598 1.301 . S
C595 N599 1.328 . S
C595 H600 0.930 . S
C596 C597 1.333 . S
C596 N598 1.317 . S
C596 H601 0.930 . S
C597 C596 1.333 . S
C597 N599 1.350 . S
C597 H623 0.931 . S
N598 Co594 2.148 . S
N598 C595 1.301 . S
N598 C596 1.317 . S
N599 C595 1.328 . S
N599 C597 1.350 . S
H600 C595 0.930 . S
H601 C596 0.930 . S
C602 O603 1.224 . S
C602 O621 1.247 . S
O603 C602 1.224 . S
N604 Co594 2.128 . S
N604 C605 1.355 . S
N604 C607 1.311 . S
C605 N604 1.355 . S
C605 C606 1.363 . S
C605 H617 0.929 . S
C606 C605 1.363 . S
C606 N608 1.375 . S
C606 H624 0.931 . S
C607 N604 1.311 . S
C607 N608 1.347 . S
C607 H618 0.929 . S
N608 C606 1.375 . S
N608 C607 1.347 . S
C609 C612 1.365 . S
C609 N614 1.328 . S
C609 H615 0.929 . S
C610 C611 1.362 . S
C610 C613 1.378 . S
C610 H625 0.929 . S
C611 C610 1.362 . S
C611 C612 1.366 . S
C612 C609 1.365 . S
C612 C611 1.366 . S
C612 H626 0.930 . S
C613 C610 1.378 . S
C613 N614 1.315 . S
C613 H616 0.930 . S
N614 Co594 2.194 . S
N614 C609 1.328 . S
N614 C613 1.315 . S
H615 C609 0.929 . S
H616 C613 0.930 . S
H617 C605 0.929 . S
H618 C607 0.929 . S
O619 Co594 2.351 . S
O619 C622 1.244 . S
O620 Co594 2.155 . S
O620 C622 1.240 . S
O621 Co594 2.096 . S
O621 C602 1.247 . S
C622 O619 1.244 . S
C622 O620 1.240 . S
H623 C597 0.931 . S
H624 C606 0.931 . S
H625 C610 0.929 . S
H626 C612 0.930 . S
Co627 N631 2.148 . S
Co627 N637 2.128 . S
Co627 N647 2.194 . S
Co627 O652 2.351 . S
Co627 O653 2.155 . S
Co627 O654 2.096 1_655 S
C628 N631 1.301 . S
C628 N632 1.328 . S
C628 H633 0.930 . S
C629 C630 1.333 . S
C629 N631 1.317 . S
C629 H634 0.930 . S
C630 C629 1.333 . S
C630 N632 1.350 . S
C630 H656 0.931 . S
N631 Co627 2.148 . S
N631 C628 1.301 . S
N631 C629 1.317 . S
N632 C628 1.328 . S
N632 C630 1.350 . S
H633 C628 0.930 . S
H634 C629 0.930 . S
C635 O636 1.224 . S
C635 O654 1.247 . S
O636 C635 1.224 . S
N637 Co627 2.128 . S
N637 C638 1.355 . S
N637 C640 1.279 1_655 S
C638 N637 1.355 . S
C638 C639 1.363 . S
C638 H650 0.929 . S
C639 C638 1.363 . S
C639 N641 1.375 1_655 S
C639 H657 0.931 . S
C640 N637 1.279 1_455 S
C640 N641 1.351 . S
C640 H651 0.955 . S
N641 C639 1.375 1_455 S
N641 C640 1.351 . S
C642 C645 1.365 . S
C642 N647 1.328 . S
C642 H648 0.929 . S
C643 C644 1.362 . S
C643 C646 1.378 . S
C643 H658 0.929 1_655 S
C644 C643 1.362 . S
C644 C645 1.366 . S
C645 C642 1.365 . S
C645 C644 1.366 . S
C645 H659 0.930 . S
C646 C643 1.378 . S
C646 N647 1.315 . S
C646 H649 0.930 1_655 S
N647 Co627 2.194 . S
N647 C642 1.328 . S
N647 C646 1.315 . S
H648 C642 0.929 . S
H649 C646 0.930 1_455 S
H650 C638 0.929 . S
H651 C640 0.955 . S
O652 Co627 2.351 . S
O652 C655 1.244 . S
O653 Co627 2.155 . S
O653 C655 1.240 . S
O654 Co627 2.096 1_455 S
O654 C635 1.247 . S
C655 O652 1.244 . S
C655 O653 1.240 . S
H656 C630 0.931 . S
H657 C639 0.931 . S
H658 C643 0.929 1_455 S
H659 C645 0.930 . S
Co660 N664 2.148 . S
Co660 N670 2.128 . S
Co660 N680 2.194 . S
Co660 O685 2.351 . S
Co660 O686 2.155 . S
Co660 O687 2.096 . S
C661 N664 1.301 . S
C661 N665 1.328 . S
C661 H666 0.930 . S
C662 C663 1.333 . S
C662 N664 1.317 . S
C662 H667 0.930 . S
C663 C662 1.333 . S
C663 N665 1.350 . S
C663 H689 0.931 . S
N664 Co660 2.148 . S
N664 C661 1.301 . S
N664 C662 1.317 . S
N665 C661 1.328 . S
N665 C663 1.350 . S
H666 C661 0.930 . S
H667 C662 0.930 . S
C668 O669 1.224 . S
C668 O687 1.247 . S
O669 C668 1.224 . S
N670 Co660 2.128 . S
N670 C671 1.355 . S
N670 C673 1.311 . S
C671 N670 1.355 . S
C671 C672 1.363 . S
C671 H683 0.929 . S
C672 C671 1.363 . S
C672 N674 1.375 . S
C672 H690 0.931 . S
C673 N670 1.311 . S
C673 N674 1.347 . S
C673 H684 0.929 . S
N674 C672 1.375 . S
N674 C673 1.347 . S
C675 C678 1.365 . S
C675 N680 1.328 . S
C675 H681 0.929 . S
C676 C677 1.362 . S
C676 C679 1.378 . S
C676 H691 0.929 . S
C677 C676 1.362 . S
C677 C678 1.366 . S
C678 C675 1.365 . S
C678 C677 1.366 . S
C678 H692 0.930 . S
C679 C676 1.378 . S
C679 N680 1.315 . S
C679 H682 0.930 . S
N680 Co660 2.194 . S
N680 C675 1.328 . S
N680 C679 1.315 . S
H681 C675 0.929 . S
H682 C679 0.930 . S
H683 C671 0.929 . S
H684 C673 0.929 . S
O685 Co660 2.351 . S
O685 C688 1.244 . S
O686 Co660 2.155 . S
O686 C688 1.240 . S
O687 Co660 2.096 . S
O687 C668 1.247 . S
C688 O685 1.244 . S
C688 O686 1.240 . S
H689 C663 0.931 . S
H690 C672 0.931 . S
H691 C676 0.929 . S
H692 C678 0.930 . S
Co693 N697 2.148 . S
Co693 N703 2.128 . S
Co693 N713 2.194 . S
Co693 O718 2.351 . S
Co693 O719 2.155 . S
Co693 O720 2.096 1_655 S
C694 N697 1.301 . S
C694 N698 1.328 . S
C694 H699 0.930 . S
C695 C696 1.333 . S
C695 N697 1.317 . S
C695 H700 0.930 . S
C696 C695 1.333 . S
C696 N698 1.350 . S
C696 H722 0.931 . S
N697 Co693 2.148 . S
N697 C694 1.301 . S
N697 C695 1.317 . S
N698 C694 1.328 . S
N698 C696 1.350 . S
H699 C694 0.930 . S
H700 C695 0.930 . S
C701 O702 1.224 . S
C701 O720 1.247 . S
O702 C701 1.224 . S
N703 Co693 2.128 . S
N703 C704 1.355 . S
N703 C706 1.279 1_655 S
C704 N703 1.355 . S
C704 C705 1.363 . S
C704 H716 0.929 . S
C705 C704 1.363 . S
C705 N707 1.375 1_655 S
C705 H723 0.931 . S
C706 N703 1.279 1_455 S
C706 N707 1.351 . S
C706 H717 0.955 . S
N707 C705 1.375 1_455 S
N707 C706 1.351 . S
C708 C711 1.365 . S
C708 N713 1.328 . S
C708 H714 0.929 . S
C709 C710 1.362 . S
C709 C712 1.378 . S
C709 H724 0.929 1_655 S
C710 C709 1.362 . S
C710 C711 1.366 . S
C711 C708 1.365 . S
C711 C710 1.366 . S
C711 H725 0.930 . S
C712 C709 1.378 . S
C712 N713 1.315 . S
C712 H715 0.930 1_655 S
N713 Co693 2.194 . S
N713 C708 1.328 . S
N713 C712 1.315 . S
H714 C708 0.929 . S
H715 C712 0.930 1_455 S
H716 C704 0.929 . S
H717 C706 0.955 . S
O718 Co693 2.351 . S
O718 C721 1.244 . S
O719 Co693 2.155 . S
O719 C721 1.240 . S
O720 Co693 2.096 1_455 S
O720 C701 1.247 . S
C721 O718 1.244 . S
C721 O719 1.240 . S
H722 C696 0.931 . S
H723 C705 0.931 . S
H724 C709 0.929 1_455 S
H725 C711 0.930 . S
Co726 N730 2.148 . S
Co726 N736 2.128 . S
Co726 N746 2.194 . S
Co726 O751 2.351 . S
Co726 O752 2.155 . S
Co726 O753 2.096 . S
C727 N730 1.301 . S
C727 N731 1.328 . S
C727 H732 0.930 . S
C728 C729 1.333 . S
C728 N730 1.317 . S
C728 H733 0.930 . S
C729 C728 1.333 . S
C729 N731 1.350 . S
C729 H755 0.931 . S
N730 Co726 2.148 . S
N730 C727 1.301 . S
N730 C728 1.317 . S
N731 C727 1.328 . S
N731 C729 1.350 . S
H732 C727 0.930 . S
H733 C728 0.930 . S
C734 O735 1.224 . S
C734 O753 1.247 . S
O735 C734 1.224 . S
N736 Co726 2.128 . S
N736 C737 1.355 . S
N736 C739 1.311 . S
C737 N736 1.355 . S
C737 C738 1.363 . S
C737 H749 0.929 . S
C738 C737 1.363 . S
C738 N740 1.375 . S
C738 H756 0.931 . S
C739 N736 1.311 . S
C739 N740 1.347 . S
C739 H750 0.929 . S
N740 C738 1.375 . S
N740 C739 1.347 . S
C741 C744 1.365 . S
C741 N746 1.328 . S
C741 H747 0.929 . S
C742 C743 1.362 . S
C742 C745 1.378 . S
C742 H757 0.929 . S
C743 C742 1.362 . S
C743 C744 1.366 . S
C744 C741 1.365 . S
C744 C743 1.366 . S
C744 H758 0.930 . S
C745 C742 1.378 . S
C745 N746 1.315 . S
C745 H748 0.930 . S
N746 Co726 2.194 . S
N746 C741 1.328 . S
N746 C745 1.315 . S
H747 C741 0.929 . S
H748 C745 0.930 . S
H749 C737 0.929 . S
H750 C739 0.929 . S
O751 Co726 2.351 . S
O751 C754 1.244 . S
O752 Co726 2.155 . S
O752 C754 1.240 . S
O753 Co726 2.096 . S
O753 C734 1.247 . S
C754 O751 1.244 . S
C754 O752 1.240 . S
H755 C729 0.931 . S
H756 C738 0.931 . S
H757 C742 0.929 . S
H758 C744 0.930 . S
Co759 N763 2.148 . S
Co759 N769 2.128 . S
Co759 N779 2.194 . S
Co759 O784 2.351 . S
Co759 O785 2.155 . S
Co759 O786 2.096 . S
C760 N763 1.301 . S
C760 N764 1.328 . S
C760 H765 0.930 . S
C761 C762 1.333 . S
C761 N763 1.317 . S
C761 H766 0.930 . S
C762 C761 1.333 . S
C762 N764 1.350 . S
C762 H788 0.931 . S
N763 Co759 2.148 . S
N763 C760 1.301 . S
N763 C761 1.317 . S
N764 C760 1.328 . S
N764 C762 1.350 . S
H765 C760 0.930 . S
H766 C761 0.930 . S
C767 O768 1.224 . S
C767 O786 1.247 . S
O768 C767 1.224 . S
N769 Co759 2.128 . S
N769 C770 1.355 . S
N769 C772 1.311 . S
C770 N769 1.355 . S
C770 C771 1.363 . S
C770 H782 0.929 . S
C771 C770 1.363 . S
C771 N773 1.375 . S
C771 H789 0.931 . S
C772 N769 1.311 . S
C772 N773 1.347 . S
C772 H783 0.929 . S
N773 C771 1.375 . S
N773 C772 1.347 . S
C774 C777 1.365 . S
C774 N779 1.328 . S
C774 H780 0.929 . S
C775 C776 1.362 . S
C775 C778 1.378 . S
C775 H790 0.929 . S
C776 C775 1.362 . S
C776 C777 1.366 . S
C777 C774 1.365 . S
C777 C776 1.366 . S
C777 H791 0.930 . S
C778 C775 1.378 . S
C778 N779 1.315 . S
C778 H781 0.930 . S
N779 Co759 2.194 . S
N779 C774 1.328 . S
N779 C778 1.315 . S
H780 C774 0.929 . S
H781 C778 0.930 . S
H782 C770 0.929 . S
H783 C772 0.929 . S
O784 Co759 2.351 . S
O784 C787 1.244 . S
O785 Co759 2.155 . S
O785 C787 1.240 . S
O786 Co759 2.096 . S
O786 C767 1.247 . S
C787 O784 1.244 . S
C787 O785 1.240 . S
H788 C762 0.931 . S
H789 C771 0.931 . S
H790 C775 0.929 . S
H791 C777 0.930 . S
Co792 N796 2.148 . S
Co792 N802 2.128 . S
Co792 N812 2.194 . S
Co792 O817 2.351 . S
Co792 O818 2.155 . S
Co792 O819 2.096 . S
C793 N796 1.301 . S
C793 N797 1.328 . S
C793 H798 0.930 . S
C794 C795 1.333 . S
C794 N796 1.317 . S
C794 H799 0.930 . S
C795 C794 1.333 . S
C795 N797 1.350 . S
C795 H821 0.931 . S
N796 Co792 2.148 . S
N796 C793 1.301 . S
N796 C794 1.317 . S
N797 C793 1.328 . S
N797 C795 1.350 . S
H798 C793 0.930 . S
H799 C794 0.930 . S
C800 O801 1.224 . S
C800 O819 1.247 . S
O801 C800 1.224 . S
N802 Co792 2.128 . S
N802 C803 1.355 . S
N802 C805 1.311 . S
C803 N802 1.355 . S
C803 C804 1.363 . S
C803 H815 0.929 . S
C804 C803 1.363 . S
C804 N806 1.375 . S
C804 H822 0.931 . S
C805 N802 1.311 . S
C805 N806 1.347 . S
C805 H816 0.929 . S
N806 C804 1.375 . S
N806 C805 1.347 . S
C807 C810 1.365 . S
C807 N812 1.328 . S
C807 H813 0.929 . S
C808 C809 1.362 . S
C808 C811 1.378 . S
C808 H823 0.929 . S
C809 C808 1.362 . S
C809 C810 1.366 . S
C810 C807 1.365 . S
C810 C809 1.366 . S
C810 H824 0.930 . S
C811 C808 1.378 . S
C811 N812 1.315 . S
C811 H814 0.930 . S
N812 Co792 2.194 . S
N812 C807 1.328 . S
N812 C811 1.315 . S
H813 C807 0.929 . S
H814 C811 0.930 . S
H815 C803 0.929 . S
H816 C805 0.929 . S
O817 Co792 2.351 . S
O817 C820 1.244 . S
O818 Co792 2.155 . S
O818 C820 1.240 . S
O819 Co792 2.096 . S
O819 C800 1.247 . S
C820 O817 1.244 . S
C820 O818 1.240 . S
H821 C795 0.931 . S
H822 C804 0.931 . S
H823 C808 0.929 . S
H824 C810 0.930 . S
Co825 N829 2.148 . S
Co825 N835 2.128 . S
Co825 N845 2.194 . S
Co825 O850 2.351 . S
Co825 O851 2.155 . S
Co825 O852 2.096 . S
C826 N829 1.301 . S
C826 N830 1.328 . S
C826 H831 0.930 . S
C827 C828 1.333 . S
C827 N829 1.317 . S
C827 H832 0.930 . S
C828 C827 1.333 . S
C828 N830 1.350 . S
C828 H854 0.931 . S
N829 Co825 2.148 . S
N829 C826 1.301 . S
N829 C827 1.317 . S
N830 C826 1.328 . S
N830 C828 1.350 . S
H831 C826 0.930 . S
H832 C827 0.930 . S
C833 O834 1.224 . S
C833 O852 1.247 . S
O834 C833 1.224 . S
N835 Co825 2.128 . S
N835 C836 1.355 . S
N835 C838 1.311 . S
C836 N835 1.355 . S
C836 C837 1.363 . S
C836 H848 0.929 . S
C837 C836 1.363 . S
C837 N839 1.375 . S
C837 H855 0.931 . S
C838 N835 1.311 . S
C838 N839 1.347 . S
C838 H849 0.929 . S
N839 C837 1.375 . S
N839 C838 1.347 . S
C840 C843 1.365 . S
C840 N845 1.328 . S
C840 H846 0.929 . S
C841 C842 1.362 . S
C841 C844 1.378 . S
C841 H856 0.929 . S
C842 C841 1.362 . S
C842 C843 1.366 . S
C843 C840 1.365 . S
C843 C842 1.366 . S
C843 H857 0.930 . S
C844 C841 1.378 . S
C844 N845 1.315 . S
C844 H847 0.930 . S
N845 Co825 2.194 . S
N845 C840 1.328 . S
N845 C844 1.315 . S
H846 C840 0.929 . S
H847 C844 0.930 . S
H848 C836 0.929 . S
H849 C838 0.929 . S
O850 Co825 2.351 . S
O850 C853 1.244 . S
O851 Co825 2.155 . S
O851 C853 1.240 . S
O852 Co825 2.096 . S
O852 C833 1.247 . S
C853 O850 1.244 . S
C853 O851 1.240 . S
H854 C828 0.931 . S
H855 C837 0.931 . S
H856 C841 0.929 . S
H857 C843 0.930 . S
Co858 N862 2.148 . S
Co858 N868 2.128 . S
Co858 N878 2.194 . S
Co858 O883 2.351 . S
Co858 O884 2.155 . S
Co858 O885 2.096 . S
C859 N862 1.301 . S
C859 N863 1.328 . S
C859 H864 0.930 . S
C860 C861 1.333 . S
C860 N862 1.317 . S
C860 H865 0.930 . S
C861 C860 1.333 . S
C861 N863 1.350 . S
C861 H887 0.931 . S
N862 Co858 2.148 . S
N862 C859 1.301 . S
N862 C860 1.317 . S
N863 C859 1.328 . S
N863 C861 1.350 . S
H864 C859 0.930 . S
H865 C860 0.930 . S
C866 O867 1.224 . S
C866 O885 1.247 . S
O867 C866 1.224 . S
N868 Co858 2.128 . S
N868 C869 1.355 . S
N868 C871 1.311 . S
C869 N868 1.355 . S
C869 C870 1.363 . S
C869 H881 0.929 . S
C870 C869 1.363 . S
C870 N872 1.375 . S
C870 H888 0.931 . S
C871 N868 1.311 . S
C871 N872 1.347 . S
C871 H882 0.929 . S
N872 C870 1.375 . S
N872 C871 1.347 . S
C873 C876 1.365 . S
C873 N878 1.328 . S
C873 H879 0.929 . S
C874 C875 1.362 . S
C874 C877 1.378 . S
C874 H889 0.929 . S
C875 C874 1.362 . S
C875 C876 1.366 . S
C876 C873 1.365 . S
C876 C875 1.366 . S
C876 H890 0.930 . S
C877 C874 1.378 . S
C877 N878 1.315 . S
C877 H880 0.930 . S
N878 Co858 2.194 . S
N878 C873 1.328 . S
N878 C877 1.315 . S
H879 C873 0.929 . S
H880 C877 0.930 . S
H881 C869 0.929 . S
H882 C871 0.929 . S
O883 Co858 2.351 . S
O883 C886 1.244 . S
O884 Co858 2.155 . S
O884 C886 1.240 . S
O885 Co858 2.096 . S
O885 C866 1.247 . S
C886 O883 1.244 . S
C886 O884 1.240 . S
H887 C861 0.931 . S
H888 C870 0.931 . S
H889 C874 0.929 . S
H890 C876 0.930 . S
Co891 N895 2.148 . S
Co891 N901 2.128 . S
Co891 N911 2.194 . S
Co891 O916 2.351 . S
Co891 O917 2.155 . S
Co891 O918 2.096 1_455 S
C892 N895 1.301 . S
C892 N896 1.328 . S
C892 H897 0.930 . S
C893 C894 1.333 . S
C893 N895 1.317 . S
C893 H898 0.930 . S
C894 C893 1.333 . S
C894 N896 1.350 . S
C894 H920 0.931 . S
N895 Co891 2.148 . S
N895 C892 1.301 . S
N895 C893 1.317 . S
N896 C892 1.328 . S
N896 C894 1.350 . S
H897 C892 0.930 . S
H898 C893 0.930 . S
C899 O900 1.224 . S
C899 O918 1.247 . S
O900 C899 1.224 . S
N901 Co891 2.128 . S
N901 C902 1.355 . S
N901 C904 1.279 1_455 S
C902 N901 1.355 . S
C902 C903 1.363 . S
C902 H914 0.929 . S
C903 C902 1.363 . S
C903 N905 1.375 1_455 S
C903 H921 0.931 . S
C904 N901 1.279 1_655 S
C904 N905 1.351 . S
C904 H915 0.955 . S
N905 C903 1.375 1_655 S
N905 C904 1.351 . S
C906 C909 1.365 . S
C906 N911 1.328 . S
C906 H912 0.929 . S
C907 C908 1.362 . S
C907 C910 1.378 . S
C907 H922 0.929 1_455 S
C908 C907 1.362 . S
C908 C909 1.366 . S
C909 C906 1.365 . S
C909 C908 1.366 . S
C909 H923 0.930 . S
C910 C907 1.378 . S
C910 N911 1.315 . S
C910 H913 0.930 1_455 S
N911 Co891 2.194 . S
N911 C906 1.328 . S
N911 C910 1.315 . S
H912 C906 0.929 . S
H913 C910 0.930 1_655 S
H914 C902 0.929 . S
H915 C904 0.955 . S
O916 Co891 2.351 . S
O916 C919 1.244 . S
O917 Co891 2.155 . S
O917 C919 1.240 . S
O918 Co891 2.096 1_655 S
O918 C899 1.247 . S
C919 O916 1.244 . S
C919 O917 1.240 . S
H920 C894 0.931 . S
H921 C903 0.931 . S
H922 C907 0.929 1_655 S
H923 C909 0.930 . S
Co924 N928 2.148 . S
Co924 N934 2.128 . S
Co924 N944 2.194 . S
Co924 O949 2.351 . S
Co924 O950 2.155 . S
Co924 O951 2.096 . S
C925 N928 1.301 . S
C925 N929 1.328 . S
C925 H930 0.930 . S
C926 C927 1.333 . S
C926 N928 1.317 . S
C926 H931 0.930 . S
C927 C926 1.333 . S
C927 N929 1.350 . S
C927 H953 0.931 . S
N928 Co924 2.148 . S
N928 C925 1.301 . S
N928 C926 1.317 . S
N929 C925 1.328 . S
N929 C927 1.350 . S
H930 C925 0.930 . S
H931 C926 0.930 . S
C932 O933 1.224 . S
C932 O951 1.247 . S
O933 C932 1.224 . S
N934 Co924 2.128 . S
N934 C935 1.355 . S
N934 C937 1.311 . S
C935 N934 1.355 . S
C935 C936 1.363 . S
C935 H947 0.929 . S
C936 C935 1.363 . S
C936 N938 1.375 . S
C936 H954 0.931 . S
C937 N934 1.311 . S
C937 N938 1.347 . S
C937 H948 0.929 . S
N938 C936 1.375 . S
N938 C937 1.347 . S
C939 C942 1.365 . S
C939 N944 1.328 . S
C939 H945 0.929 . S
C940 C941 1.362 . S
C940 C943 1.378 . S
C940 H955 0.929 . S
C941 C940 1.362 . S
C941 C942 1.366 . S
C942 C939 1.365 . S
C942 C941 1.366 . S
C942 H956 0.930 . S
C943 C940 1.378 . S
C943 N944 1.315 . S
C943 H946 0.930 . S
N944 Co924 2.194 . S
N944 C939 1.328 . S
N944 C943 1.315 . S
H945 C939 0.929 . S
H946 C943 0.930 . S
H947 C935 0.929 . S
H948 C937 0.929 . S
O949 Co924 2.351 . S
O949 C952 1.244 . S
O950 Co924 2.155 . S
O950 C952 1.240 . S
O951 Co924 2.096 . S
O951 C932 1.247 . S
C952 O949 1.244 . S
C952 O950 1.240 . S
H953 C927 0.931 . S
H954 C936 0.931 . S
H955 C940 0.929 . S
H956 C942 0.930 . S
Co957 N961 2.148 . S
Co957 N967 2.128 . S
Co957 N977 2.194 . S
Co957 O982 2.351 . S
Co957 O983 2.155 . S
Co957 O984 2.096 1_455 S
C958 N961 1.301 . S
C958 N962 1.328 . S
C958 H963 0.930 . S
C959 C960 1.333 . S
C959 N961 1.317 . S
C959 H964 0.930 . S
C960 C959 1.333 . S
C960 N962 1.350 . S
C960 H986 0.931 . S
N961 Co957 2.148 . S
N961 C958 1.301 . S
N961 C959 1.317 . S
N962 C958 1.328 . S
N962 C960 1.350 . S
H963 C958 0.930 . S
H964 C959 0.930 . S
C965 O966 1.224 . S
C965 O984 1.247 . S
O966 C965 1.224 . S
N967 Co957 2.128 . S
N967 C968 1.355 . S
N967 C970 1.279 1_455 S
C968 N967 1.355 . S
C968 C969 1.363 . S
C968 H980 0.929 . S
C969 C968 1.363 . S
C969 N971 1.375 1_455 S
C969 H987 0.931 . S
C970 N967 1.279 1_655 S
C970 N971 1.351 . S
C970 H981 0.955 . S
N971 C969 1.375 1_655 S
N971 C970 1.351 . S
C972 C975 1.365 . S
C972 N977 1.328 . S
C972 H978 0.929 . S
C973 C974 1.362 . S
C973 C976 1.378 . S
C973 H988 0.929 1_455 S
C974 C973 1.362 . S
C974 C975 1.366 . S
C975 C972 1.365 . S
C975 C974 1.366 . S
C975 H989 0.930 . S
C976 C973 1.378 . S
C976 N977 1.315 . S
C976 H979 0.930 1_455 S
N977 Co957 2.194 . S
N977 C972 1.328 . S
N977 C976 1.315 . S
H978 C972 0.929 . S
H979 C976 0.930 1_655 S
H980 C968 0.929 . S
H981 C970 0.955 . S
O982 Co957 2.351 . S
O982 C985 1.244 . S
O983 Co957 2.155 . S
O983 C985 1.240 . S
O984 Co957 2.096 1_655 S
O984 C965 1.247 . S
C985 O982 1.244 . S
C985 O983 1.240 . S
H986 C960 0.931 . S
H987 C969 0.931 . S
H988 C973 0.929 1_655 S
H989 C975 0.930 . S
Co990 N994 2.148 . S
Co990 N1000 2.128 . S
Co990 N1010 2.194 . S
Co990 O1015 2.351 . S
Co990 O1016 2.155 . S
Co990 O1017 2.096 . S
C991 N994 1.301 . S
C991 N995 1.328 . S
C991 H996 0.930 . S
C992 C993 1.333 . S
C992 N994 1.317 . S
C992 H997 0.930 . S
C993 C992 1.333 . S
C993 N995 1.350 . S
C993 H1019 0.931 . S
N994 Co990 2.148 . S
N994 C991 1.301 . S
N994 C992 1.317 . S
N995 C991 1.328 . S
N995 C993 1.350 . S
H996 C991 0.930 . S
H997 C992 0.930 . S
C998 O999 1.224 . S
C998 O1017 1.247 . S
O999 C998 1.224 . S
N1000 Co990 2.128 . S
N1000 C1001 1.355 . S
N1000 C1003 1.311 . S
C1001 N1000 1.355 . S
C1001 C1002 1.363 . S
C1001 H1013 0.929 . S
C1002 C1001 1.363 . S
C1002 N1004 1.375 . S
C1002 H1020 0.931 . S
C1003 N1000 1.311 . S
C1003 N1004 1.347 . S
C1003 H1014 0.929 . S
N1004 C1002 1.375 . S
N1004 C1003 1.347 . S
C1005 C1008 1.365 . S
C1005 N1010 1.328 . S
C1005 H1011 0.929 . S
C1006 C1007 1.362 . S
C1006 C1009 1.378 . S
C1006 H1021 0.929 . S
C1007 C1006 1.362 . S
C1007 C1008 1.366 . S
C1008 C1005 1.365 . S
C1008 C1007 1.366 . S
C1008 H1022 0.930 . S
C1009 C1006 1.378 . S
C1009 N1010 1.315 . S
C1009 H1012 0.930 . S
N1010 Co990 2.194 . S
N1010 C1005 1.328 . S
N1010 C1009 1.315 . S
H1011 C1005 0.929 . S
H1012 C1009 0.930 . S
H1013 C1001 0.929 . S
H1014 C1003 0.929 . S
O1015 Co990 2.351 . S
O1015 C1018 1.244 . S
O1016 Co990 2.155 . S
O1016 C1018 1.240 . S
O1017 Co990 2.096 . S
O1017 C998 1.247 . S
C1018 O1015 1.244 . S
C1018 O1016 1.240 . S
H1019 C993 0.931 . S
H1020 C1002 0.931 . S
H1021 C1006 0.929 . S
H1022 C1008 0.930 . S
Co1023 N1027 2.148 . S
Co1023 N1033 2.128 . S
Co1023 N1043 2.194 . S
Co1023 O1048 2.351 . S
Co1023 O1049 2.155 . S
Co1023 O1050 2.096 . S
C1024 N1027 1.301 . S
C1024 N1028 1.328 . S
C1024 H1029 0.930 . S
C1025 C1026 1.333 . S
C1025 N1027 1.317 . S
C1025 H1030 0.930 . S
C1026 C1025 1.333 . S
C1026 N1028 1.350 . S
C1026 H1052 0.931 . S
N1027 Co1023 2.148 . S
N1027 C1024 1.301 . S
N1027 C1025 1.317 . S
N1028 C1024 1.328 . S
N1028 C1026 1.350 . S
H1029 C1024 0.930 . S
H1030 C1025 0.930 . S
C1031 O1032 1.224 . S
C1031 O1050 1.247 . S
O1032 C1031 1.224 . S
N1033 Co1023 2.128 . S
N1033 C1034 1.355 . S
N1033 C1036 1.311 . S
C1034 N1033 1.355 . S
C1034 C1035 1.363 . S
C1034 H1046 0.929 . S
C1035 C1034 1.363 . S
C1035 N1037 1.375 . S
C1035 H1053 0.931 . S
C1036 N1033 1.311 . S
C1036 N1037 1.347 . S
C1036 H1047 0.929 . S
N1037 C1035 1.375 . S
N1037 C1036 1.347 . S
C1038 C1041 1.365 . S
C1038 N1043 1.328 . S
C1038 H1044 0.929 . S
C1039 C1040 1.362 . S
C1039 C1042 1.378 . S
C1039 H1054 0.929 . S
C1040 C1039 1.362 . S
C1040 C1041 1.366 . S
C1041 C1038 1.365 . S
C1041 C1040 1.366 . S
C1041 H1055 0.930 . S
C1042 C1039 1.378 . S
C1042 N1043 1.315 . S
C1042 H1045 0.930 . S
N1043 Co1023 2.194 . S
N1043 C1038 1.328 . S
N1043 C1042 1.315 . S
H1044 C1038 0.929 . S
H1045 C1042 0.930 . S
H1046 C1034 0.929 . S
H1047 C1036 0.929 . S
O1048 Co1023 2.351 . S
O1048 C1051 1.244 . S
O1049 Co1023 2.155 . S
O1049 C1051 1.240 . S
O1050 Co1023 2.096 . S
O1050 C1031 1.247 . S
C1051 O1048 1.244 . S
C1051 O1049 1.240 . S
H1052 C1026 0.931 . S
H1053 C1035 0.931 . S
H1054 C1039 0.929 . S
H1055 C1041 0.930 . S
C1056 C1057 1.349 . S
C1056 C1058 1.327 . S
C1056 H1081 0.950 . S
C1057 C1056 1.349 . S
C1057 C1073 1.349 . S
C1058 C1056 1.327 . S
C1058 C1077 1.429 . S
C1058 H1082 0.950 . S
C1059 C1076 1.574 . S
C1059 C1078 1.368 . S
C1059 H1083 0.949 . S
H1060 C1064 0.949 . S
C1061 C1062 1.349 . S
C1061 C1063 1.327 . S
C1061 H1084 0.950 . S
C1062 C1061 1.349 . S
C1062 C1074 1.349 . S
C1063 C1061 1.327 . S
C1063 C1079 1.429 . S
C1063 H1085 0.950 . S
C1064 H1060 0.949 . S
C1064 C1072 1.574 . S
C1064 C1080 1.368 . S
H1065 C1073 0.950 . S
H1066 C1071 0.950 . S
H1067 C1072 0.949 . S
H1068 C1074 0.950 . S
H1069 C1075 0.950 . S
H1070 C1076 0.949 . S
C1071 H1066 0.950 . S
C1071 C1073 1.327 . S
C1071 C1077 1.429 . S
C1072 C1064 1.574 . S
C1072 H1067 0.949 . S
C1072 C1078 1.368 . S
C1073 C1057 1.349 . S
C1073 H1065 0.950 . S
C1073 C1071 1.327 . S
C1074 C1062 1.349 . S
C1074 H1068 0.950 . S
C1074 C1075 1.327 . S
C1075 H1069 0.950 . S
C1075 C1074 1.327 . S
C1075 C1079 1.429 . S
C1076 C1059 1.574 . S
C1076 H1070 0.949 . S
C1076 C1080 1.368 . S
C1077 C1058 1.429 . S
C1077 C1071 1.429 . S
C1077 C1078 1.523 . S
C1078 C1059 1.368 . S
C1078 C1072 1.368 . S
C1078 C1077 1.523 . S
C1079 C1063 1.429 . S
C1079 C1075 1.429 . S
C1079 C1080 1.523 . S
C1080 C1064 1.368 . S
C1080 C1076 1.368 . S
C1080 C1079 1.523 . S
H1081 C1056 0.950 . S
H1082 C1058 0.950 . S
H1083 C1059 0.949 . S
H1084 C1061 0.950 . S
H1085 C1063 0.950 . S
C1086 C1087 1.349 . S
C1086 C1088 1.327 . S
C1086 H1111 0.950 . S
C1087 C1086 1.349 . S
C1087 C1103 1.349 1_655 S
C1088 C1086 1.327 . S
C1088 C1107 1.429 . S
C1088 H1112 0.950 . S
C1089 C1106 1.574 . S
C1089 C1108 1.368 1_455 S
C1089 H1113 0.949 . S
H1090 C1094 0.949 . S
C1091 C1092 1.349 . S
C1091 C1093 1.327 . S
C1091 H1114 0.950 . S
C1092 C1091 1.349 . S
C1092 C1104 1.349 1_455 S
C1093 C1091 1.327 . S
C1093 C1109 1.429 . S
C1093 H1115 0.950 . S
C1094 H1090 0.949 . S
C1094 C1102 1.574 . S
C1094 C1110 1.368 1_655 S
H1095 C1103 0.950 . S
H1096 C1101 0.950 . S
H1097 C1102 0.949 . S
H1098 C1104 0.950 . S
H1099 C1105 0.950 . S
H1100 C1106 0.949 . S
C1101 H1096 0.950 . S
C1101 C1103 1.327 . S
C1101 C1107 1.429 1_455 S
C1102 C1094 1.574 . S
C1102 H1097 0.949 . S
C1102 C1108 1.368 . S
C1103 C1087 1.349 1_455 S
C1103 H1095 0.950 . S
C1103 C1101 1.327 . S
C1104 C1092 1.349 1_655 S
C1104 H1098 0.950 . S
C1104 C1105 1.327 . S
C1105 H1099 0.950 . S
C1105 C1104 1.327 . S
C1105 C1109 1.429 1_655 S
C1106 C1089 1.574 . S
C1106 H1100 0.949 . S
C1106 C1110 1.368 . S
C1107 C1088 1.429 . S
C1107 C1101 1.429 1_655 S
C1107 C1108 1.523 . S
C1108 C1089 1.368 1_655 S
C1108 C1102 1.368 . S
C1108 C1107 1.523 . S
C1109 C1093 1.429 . S
C1109 C1105 1.429 1_455 S
C1109 C1110 1.523 . S
C1110 C1094 1.368 1_455 S
C1110 C1106 1.368 . S
C1110 C1109 1.523 . S
H1111 C1086 0.950 . S
H1112 C1088 0.950 . S
H1113 C1089 0.949 . S
H1114 C1091 0.950 . S
H1115 C1093 0.950 . S
C1116 C1117 1.349 . S
C1116 C1118 1.327 . S
C1116 H1141 0.950 . S
C1117 C1116 1.349 . S
C1117 C1133 1.349 . S
C1118 C1116 1.327 . S
C1118 C1137 1.429 . S
C1118 H1142 0.950 . S
C1119 C1136 1.574 1_455 S
C1119 C1138 1.368 . S
C1119 H1143 0.949 . S
H1120 C1124 0.949 . S
C1121 C1122 1.349 . S
C1121 C1123 1.327 . S
C1121 H1144 0.950 . S
C1122 C1121 1.349 . S
C1122 C1134 1.349 . S
C1123 C1121 1.327 . S
C1123 C1139 1.429 . S
C1123 H1145 0.950 . S
C1124 H1120 0.949 . S
C1124 C1132 1.574 1_655 S
C1124 C1140 1.368 . S
H1125 C1133 0.950 . S
H1126 C1131 0.950 . S
H1127 C1132 0.949 . S
H1128 C1134 0.950 . S
H1129 C1135 0.950 . S
H1130 C1136 0.949 . S
C1131 H1126 0.950 . S
C1131 C1133 1.327 . S
C1131 C1137 1.429 . S
C1132 C1124 1.574 1_455 S
C1132 H1127 0.949 . S
C1132 C1138 1.368 . S
C1133 C1117 1.349 . S
C1133 H1125 0.950 . S
C1133 C1131 1.327 . S
C1134 C1122 1.349 . S
C1134 H1128 0.950 . S
C1134 C1135 1.327 . S
C1135 H1129 0.950 . S
C1135 C1134 1.327 . S
C1135 C1139 1.429 . S
C1136 C1119 1.574 1_655 S
C1136 H1130 0.949 . S
C1136 C1140 1.368 . S
C1137 C1118 1.429 . S
C1137 C1131 1.429 . S
C1137 C1138 1.523 . S
C1138 C1119 1.368 . S
C1138 C1132 1.368 . S
C1138 C1137 1.523 . S
C1139 C1123 1.429 . S
C1139 C1135 1.429 . S
C1139 C1140 1.523 . S
C1140 C1124 1.368 . S
C1140 C1136 1.368 . S
C1140 C1139 1.523 . S
H1141 C1116 0.950 . S
H1142 C1118 0.950 . S
H1143 C1119 0.949 . S
H1144 C1121 0.950 . S
H1145 C1123 0.950 . S
C1146 C1147 1.349 . S
C1146 C1148 1.327 . S
C1146 H1171 0.950 . S
C1147 C1146 1.349 . S
C1147 C1163 1.349 . S
C1148 C1146 1.327 . S
C1148 C1167 1.429 . S
C1148 H1172 0.950 . S
C1149 C1166 1.574 . S
C1149 C1168 1.368 . S
C1149 H1173 0.949 . S
H1150 C1154 0.949 . S
C1151 C1152 1.349 . S
C1151 C1153 1.327 . S
C1151 H1174 0.950 . S
C1152 C1151 1.349 . S
C1152 C1164 1.349 . S
C1153 C1151 1.327 . S
C1153 C1169 1.429 . S
C1153 H1175 0.950 . S
C1154 H1150 0.949 . S
C1154 C1162 1.574 . S
C1154 C1170 1.368 . S
H1155 C1163 0.950 . S
H1156 C1161 0.950 . S
H1157 C1162 0.949 . S
H1158 C1164 0.950 . S
H1159 C1165 0.950 . S
H1160 C1166 0.949 . S
C1161 H1156 0.950 . S
C1161 C1163 1.327 . S
C1161 C1167 1.429 . S
C1162 C1154 1.574 . S
C1162 H1157 0.949 . S
C1162 C1168 1.368 . S
C1163 C1147 1.349 . S
C1163 H1155 0.950 . S
C1163 C1161 1.327 . S
C1164 C1152 1.349 . S
C1164 H1158 0.950 . S
C1164 C1165 1.327 . S
C1165 H1159 0.950 . S
C1165 C1164 1.327 . S
C1165 C1169 1.429 . S
C1166 C1149 1.574 . S
C1166 H1160 0.949 . S
C1166 C1170 1.368 . S
C1167 C1148 1.429 . S
C1167 C1161 1.429 . S
C1167 C1168 1.523 . S
C1168 C1149 1.368 . S
C1168 C1162 1.368 . S
C1168 C1167 1.523 . S
C1169 C1153 1.429 . S
C1169 C1165 1.429 . S
C1169 C1170 1.523 . S
C1170 C1154 1.368 . S
C1170 C1166 1.368 . S
C1170 C1169 1.523 . S
H1171 C1146 0.950 . S
H1172 C1148 0.950 . S
H1173 C1149 0.949 . S
H1174 C1151 0.950 . S
H1175 C1153 0.950 . S
C1176 C1177 1.349 . S
C1176 C1178 1.327 . S
C1176 H1201 0.950 . S
C1177 C1176 1.349 . S
C1177 C1193 1.349 . S
C1178 C1176 1.327 . S
C1178 C1197 1.429 . S
C1178 H1202 0.950 . S
C1179 C1196 1.574 . S
C1179 C1198 1.368 . S
C1179 H1203 0.949 . S
H1180 C1184 0.949 . S
C1181 C1182 1.349 . S
C1181 C1183 1.327 . S
C1181 H1204 0.950 . S
C1182 C1181 1.349 . S
C1182 C1194 1.349 . S
C1183 C1181 1.327 . S
C1183 C1199 1.429 . S
C1183 H1205 0.950 . S
C1184 H1180 0.949 . S
C1184 C1192 1.574 . S
C1184 C1200 1.368 . S
H1185 C1193 0.950 . S
H1186 C1191 0.950 . S
H1187 C1192 0.949 . S
H1188 C1194 0.950 . S
H1189 C1195 0.950 . S
H1190 C1196 0.949 . S
C1191 H1186 0.950 . S
C1191 C1193 1.327 . S
C1191 C1197 1.429 . S
C1192 C1184 1.574 . S
C1192 H1187 0.949 . S
C1192 C1198 1.368 . S
C1193 C1177 1.349 . S
C1193 H1185 0.950 . S
C1193 C1191 1.327 . S
C1194 C1182 1.349 . S
C1194 H1188 0.950 . S
C1194 C1195 1.327 . S
C1195 H1189 0.950 . S
C1195 C1194 1.327 . S
C1195 C1199 1.429 . S
C1196 C1179 1.574 . S
C1196 H1190 0.949 . S
C1196 C1200 1.368 . S
C1197 C1178 1.429 . S
C1197 C1191 1.429 . S
C1197 C1198 1.523 . S
C1198 C1179 1.368 . S
C1198 C1192 1.368 . S
C1198 C1197 1.523 . S
C1199 C1183 1.429 . S
C1199 C1195 1.429 . S
C1199 C1200 1.523 . S
C1200 C1184 1.368 . S
C1200 C1196 1.368 . S
C1200 C1199 1.523 . S
H1201 C1176 0.950 . S
H1202 C1178 0.950 . S
H1203 C1179 0.949 . S
H1204 C1181 0.950 . S
H1205 C1183 0.950 . S
C1206 C1207 1.349 . S
C1206 C1208 1.327 . S
C1206 H1231 0.950 . S
C1207 C1206 1.349 . S
C1207 C1223 1.349 . S
C1208 C1206 1.327 . S
C1208 C1227 1.429 . S
C1208 H1232 0.950 . S
C1209 C1226 1.574 . S
C1209 C1228 1.368 . S
C1209 H1233 0.949 . S
H1210 C1214 0.949 . S
C1211 C1212 1.349 . S
C1211 C1213 1.327 . S
C1211 H1234 0.950 . S
C1212 C1211 1.349 . S
C1212 C1224 1.349 . S
C1213 C1211 1.327 . S
C1213 C1229 1.429 . S
C1213 H1235 0.950 . S
C1214 H1210 0.949 . S
C1214 C1222 1.574 . S
C1214 C1230 1.368 . S
H1215 C1223 0.950 . S
H1216 C1221 0.950 . S
H1217 C1222 0.949 . S
H1218 C1224 0.950 . S
H1219 C1225 0.950 . S
H1220 C1226 0.949 . S
C1221 H1216 0.950 . S
C1221 C1223 1.327 . S
C1221 C1227 1.429 . S
C1222 C1214 1.574 . S
C1222 H1217 0.949 . S
C1222 C1228 1.368 . S
C1223 C1207 1.349 . S
C1223 H1215 0.950 . S
C1223 C1221 1.327 . S
C1224 C1212 1.349 . S
C1224 H1218 0.950 . S
C1224 C1225 1.327 . S
C1225 H1219 0.950 . S
C1225 C1224 1.327 . S
C1225 C1229 1.429 . S
C1226 C1209 1.574 . S
C1226 H1220 0.949 . S
C1226 C1230 1.368 . S
C1227 C1208 1.429 . S
C1227 C1221 1.429 . S
C1227 C1228 1.523 . S
C1228 C1209 1.368 . S
C1228 C1222 1.368 . S
C1228 C1227 1.523 . S
C1229 C1213 1.429 . S
C1229 C1225 1.429 . S
C1229 C1230 1.523 . S
C1230 C1214 1.368 . S
C1230 C1226 1.368 . S
C1230 C1229 1.523 . S
H1231 C1206 0.950 . S
H1232 C1208 0.950 . S
H1233 C1209 0.949 . S
H1234 C1211 0.950 . S
H1235 C1213 0.950 . S
C1236 C1237 1.349 . S
C1236 C1238 1.327 . S
C1236 H1261 0.950 . S
C1237 C1236 1.349 . S
C1237 C1253 1.349 . S
C1238 C1236 1.327 . S
C1238 C1257 1.429 . S
C1238 H1262 0.950 . S
C1239 C1256 1.574 1_455 S
C1239 C1258 1.368 . S
C1239 H1263 0.949 . S
H1240 C1244 0.949 . S
C1241 C1242 1.349 . S
C1241 C1243 1.327 . S
C1241 H1264 0.950 . S
C1242 C1241 1.349 . S
C1242 C1254 1.349 . S
C1243 C1241 1.327 . S
C1243 C1259 1.429 . S
C1243 H1265 0.950 . S
C1244 H1240 0.949 . S
C1244 C1252 1.574 1_655 S
C1244 C1260 1.368 . S
H1245 C1253 0.950 . S
H1246 C1251 0.950 . S
H1247 C1252 0.949 . S
H1248 C1254 0.950 . S
H1249 C1255 0.950 . S
H1250 C1256 0.949 . S
C1251 H1246 0.950 . S
C1251 C1253 1.327 . S
C1251 C1257 1.429 . S
C1252 C1244 1.574 1_455 S
C1252 H1247 0.949 . S
C1252 C1258 1.368 . S
C1253 C1237 1.349 . S
C1253 H1245 0.950 . S
C1253 C1251 1.327 . S
C1254 C1242 1.349 . S
C1254 H1248 0.950 . S
C1254 C1255 1.327 . S
C1255 H1249 0.950 . S
C1255 C1254 1.327 . S
C1255 C1259 1.429 . S
C1256 C1239 1.574 1_655 S
C1256 H1250 0.949 . S
C1256 C1260 1.368 . S
C1257 C1238 1.429 . S
C1257 C1251 1.429 . S
C1257 C1258 1.523 . S
C1258 C1239 1.368 . S
C1258 C1252 1.368 . S
C1258 C1257 1.523 . S
C1259 C1243 1.429 . S
C1259 C1255 1.429 . S
C1259 C1260 1.523 . S
C1260 C1244 1.368 . S
C1260 C1256 1.368 . S
C1260 C1259 1.523 . S
H1261 C1236 0.950 . S
H1262 C1238 0.950 . S
H1263 C1239 0.949 . S
H1264 C1241 0.950 . S
H1265 C1243 0.950 . S
C1266 C1267 1.349 . S
C1266 C1268 1.327 . S
C1266 H1291 0.950 . S
C1267 C1266 1.349 . S
C1267 C1283 1.349 1_655 S
C1268 C1266 1.327 . S
C1268 C1287 1.429 . S
C1268 H1292 0.950 . S
C1269 C1286 1.574 . S
C1269 C1288 1.368 1_455 S
C1269 H1293 0.949 . S
H1270 C1274 0.949 . S
C1271 C1272 1.349 . S
C1271 C1273 1.327 . S
C1271 H1294 0.950 . S
C1272 C1271 1.349 . S
C1272 C1284 1.349 1_455 S
C1273 C1271 1.327 . S
C1273 C1289 1.429 . S
C1273 H1295 0.950 . S
C1274 H1270 0.949 . S
C1274 C1282 1.574 . S
C1274 C1290 1.368 1_655 S
H1275 C1283 0.950 . S
H1276 C1281 0.950 . S
H1277 C1282 0.949 . S
H1278 C1284 0.950 . S
H1279 C1285 0.950 . S
H1280 C1286 0.949 . S
C1281 H1276 0.950 . S
C1281 C1283 1.327 . S
C1281 C1287 1.429 1_455 S
C1282 C1274 1.574 . S
C1282 H1277 0.949 . S
C1282 C1288 1.368 . S
C1283 C1267 1.349 1_455 S
C1283 H1275 0.950 . S
C1283 C1281 1.327 . S
C1284 C1272 1.349 1_655 S
C1284 H1278 0.950 . S
C1284 C1285 1.327 . S
C1285 H1279 0.950 . S
C1285 C1284 1.327 . S
C1285 C1289 1.429 1_655 S
C1286 C1269 1.574 . S
C1286 H1280 0.949 . S
C1286 C1290 1.368 . S
C1287 C1268 1.429 . S
C1287 C1281 1.429 1_655 S
C1287 C1288 1.523 . S
C1288 C1269 1.368 1_655 S
C1288 C1282 1.368 . S
C1288 C1287 1.523 . S
C1289 C1273 1.429 . S
C1289 C1285 1.429 1_455 S
C1289 C1290 1.523 . S
C1290 C1274 1.368 1_455 S
C1290 C1286 1.368 . S
C1290 C1289 1.523 . S
H1291 C1266 0.950 . S
H1292 C1268 0.950 . S
H1293 C1269 0.949 . S
H1294 C1271 0.950 . S
H1295 C1273 0.950 . S
C1296 C1297 1.349 . S
C1296 C1298 1.327 . S
C1296 H1321 0.950 . S
C1297 C1296 1.349 . S
C1297 C1313 1.349 . S
C1298 C1296 1.327 . S
C1298 C1317 1.429 . S
C1298 H1322 0.950 . S
C1299 C1316 1.574 . S
C1299 C1318 1.368 . S
C1299 H1323 0.949 . S
H1300 C1304 0.949 . S
C1301 C1302 1.349 . S
C1301 C1303 1.327 . S
C1301 H1324 0.950 . S
C1302 C1301 1.349 . S
C1302 C1314 1.349 . S
C1303 C1301 1.327 . S
C1303 C1319 1.429 . S
C1303 H1325 0.950 . S
C1304 H1300 0.949 . S
C1304 C1312 1.574 . S
C1304 C1320 1.368 . S
H1305 C1313 0.950 . S
H1306 C1311 0.950 . S
H1307 C1312 0.949 . S
H1308 C1314 0.950 . S
H1309 C1315 0.950 . S
H1310 C1316 0.949 . S
C1311 H1306 0.950 . S
C1311 C1313 1.327 . S
C1311 C1317 1.429 . S
C1312 C1304 1.574 . S
C1312 H1307 0.949 . S
C1312 C1318 1.368 . S
C1313 C1297 1.349 . S
C1313 H1305 0.950 . S
C1313 C1311 1.327 . S
C1314 C1302 1.349 . S
C1314 H1308 0.950 . S
C1314 C1315 1.327 . S
C1315 H1309 0.950 . S
C1315 C1314 1.327 . S
C1315 C1319 1.429 . S
C1316 C1299 1.574 . S
C1316 H1310 0.949 . S
C1316 C1320 1.368 . S
C1317 C1298 1.429 . S
C1317 C1311 1.429 . S
C1317 C1318 1.523 . S
C1318 C1299 1.368 . S
C1318 C1312 1.368 . S
C1318 C1317 1.523 . S
C1319 C1303 1.429 . S
C1319 C1315 1.429 . S
C1319 C1320 1.523 . S
C1320 C1304 1.368 . S
C1320 C1316 1.368 . S
C1320 C1319 1.523 . S
H1321 C1296 0.950 . S
H1322 C1298 0.950 . S
H1323 C1299 0.949 . S
H1324 C1301 0.950 . S
H1325 C1303 0.950 . S
C1326 C1327 1.349 . S
C1326 C1328 1.327 . S
C1326 H1351 0.950 . S
C1327 C1326 1.349 . S
C1327 C1343 1.349 1_655 S
C1328 C1326 1.327 . S
C1328 C1347 1.429 . S
C1328 H1352 0.950 . S
C1329 C1346 1.574 . S
C1329 C1348 1.368 1_455 S
C1329 H1353 0.949 . S
H1330 C1334 0.949 . S
C1331 C1332 1.349 . S
C1331 C1333 1.327 . S
C1331 H1354 0.950 . S
C1332 C1331 1.349 . S
C1332 C1344 1.349 1_455 S
C1333 C1331 1.327 . S
C1333 C1349 1.429 . S
C1333 H1355 0.950 . S
C1334 H1330 0.949 . S
C1334 C1342 1.574 . S
C1334 C1350 1.368 1_655 S
H1335 C1343 0.950 . S
H1336 C1341 0.950 . S
H1337 C1342 0.949 . S
H1338 C1344 0.950 . S
H1339 C1345 0.950 . S
H1340 C1346 0.949 . S
C1341 H1336 0.950 . S
C1341 C1343 1.327 . S
C1341 C1347 1.429 1_455 S
C1342 C1334 1.574 . S
C1342 H1337 0.949 . S
C1342 C1348 1.368 . S
C1343 C1327 1.349 1_455 S
C1343 H1335 0.950 . S
C1343 C1341 1.327 . S
C1344 C1332 1.349 1_655 S
C1344 H1338 0.950 . S
C1344 C1345 1.327 . S
C1345 H1339 0.950 . S
C1345 C1344 1.327 . S
C1345 C1349 1.429 1_655 S
C1346 C1329 1.574 . S
C1346 H1340 0.949 . S
C1346 C1350 1.368 . S
C1347 C1328 1.429 . S
C1347 C1341 1.429 1_655 S
C1347 C1348 1.523 . S
C1348 C1329 1.368 1_655 S
C1348 C1342 1.368 . S
C1348 C1347 1.523 . S
C1349 C1333 1.429 . S
C1349 C1345 1.429 1_455 S
C1349 C1350 1.523 . S
C1350 C1334 1.368 1_455 S
C1350 C1346 1.368 . S
C1350 C1349 1.523 . S
H1351 C1326 0.950 . S
H1352 C1328 0.950 . S
H1353 C1329 0.949 . S
H1354 C1331 0.950 . S
H1355 C1333 0.950 . S
C1356 C1357 1.349 . S
C1356 C1358 1.327 . S
C1356 H1381 0.950 . S
C1357 C1356 1.349 . S
C1357 C1373 1.349 . S
C1358 C1356 1.327 . S
C1358 C1377 1.429 . S
C1358 H1382 0.950 . S
C1359 C1376 1.574 1_655 S
C1359 C1378 1.368 . S
C1359 H1383 0.949 . S
H1360 C1364 0.949 . S
C1361 C1362 1.349 . S
C1361 C1363 1.327 . S
C1361 H1384 0.950 . S
C1362 C1361 1.349 . S
C1362 C1374 1.349 . S
C1363 C1361 1.327 . S
C1363 C1379 1.429 . S
C1363 H1385 0.950 . S
C1364 H1360 0.949 . S
C1364 C1372 1.574 1_455 S
C1364 C1380 1.368 . S
H1365 C1373 0.950 . S
H1366 C1371 0.950 . S
H1367 C1372 0.949 . S
H1368 C1374 0.950 . S
H1369 C1375 0.950 . S
H1370 C1376 0.949 . S
C1371 H1366 0.950 . S
C1371 C1373 1.327 . S
C1371 C1377 1.429 . S
C1372 C1364 1.574 1_655 S
C1372 H1367 0.949 . S
C1372 C1378 1.368 . S
C1373 C1357 1.349 . S
C1373 H1365 0.950 . S
C1373 C1371 1.327 . S
C1374 C1362 1.349 . S
C1374 H1368 0.950 . S
C1374 C1375 1.327 . S
C1375 H1369 0.950 . S
C1375 C1374 1.327 . S
C1375 C1379 1.429 . S
C1376 C1359 1.574 1_455 S
C1376 H1370 0.949 . S
C1376 C1380 1.368 . S
C1377 C1358 1.429 . S
C1377 C1371 1.429 . S
C1377 C1378 1.523 . S
C1378 C1359 1.368 . S
C1378 C1372 1.368 . S
C1378 C1377 1.523 . S
C1379 C1363 1.429 . S
C1379 C1375 1.429 . S
C1379 C1380 1.523 . S
C1380 C1364 1.368 . S
C1380 C1376 1.368 . S
C1380 C1379 1.523 . S
H1381 C1356 0.950 . S
H1382 C1358 0.950 . S
H1383 C1359 0.949 . S
H1384 C1361 0.950 . S
H1385 C1363 0.950 . S
C1386 C1387 1.349 . S
C1386 C1388 1.327 . S
C1386 H1411 0.950 . S
C1387 C1386 1.349 . S
C1387 C1403 1.349 . S
C1388 C1386 1.327 . S
C1388 C1407 1.429 . S
C1388 H1412 0.950 . S
C1389 C1406 1.574 . S
C1389 C1408 1.368 . S
C1389 H1413 0.949 . S
H1390 C1394 0.949 . S
C1391 C1392 1.349 . S
C1391 C1393 1.327 . S
C1391 H1414 0.950 . S
C1392 C1391 1.349 . S
C1392 C1404 1.349 . S
C1393 C1391 1.327 . S
C1393 C1409 1.429 . S
C1393 H1415 0.950 . S
C1394 H1390 0.949 . S
C1394 C1402 1.574 . S
C1394 C1410 1.368 . S
H1395 C1403 0.950 . S
H1396 C1401 0.950 . S
H1397 C1402 0.949 . S
H1398 C1404 0.950 . S
H1399 C1405 0.950 . S
H1400 C1406 0.949 . S
C1401 H1396 0.950 . S
C1401 C1403 1.327 . S
C1401 C1407 1.429 . S
C1402 C1394 1.574 . S
C1402 H1397 0.949 . S
C1402 C1408 1.368 . S
C1403 C1387 1.349 . S
C1403 H1395 0.950 . S
C1403 C1401 1.327 . S
C1404 C1392 1.349 . S
C1404 H1398 0.950 . S
C1404 C1405 1.327 . S
C1405 H1399 0.950 . S
C1405 C1404 1.327 . S
C1405 C1409 1.429 . S
C1406 C1389 1.574 . S
C1406 H1400 0.949 . S
C1406 C1410 1.368 . S
C1407 C1388 1.429 . S
C1407 C1401 1.429 . S
C1407 C1408 1.523 . S
C1408 C1389 1.368 . S
C1408 C1402 1.368 . S
C1408 C1407 1.523 . S
C1409 C1393 1.429 . S
C1409 C1405 1.429 . S
C1409 C1410 1.523 . S
C1410 C1394 1.368 . S
C1410 C1406 1.368 . S
C1410 C1409 1.523 . S
H1411 C1386 0.950 . S
H1412 C1388 0.950 . S
H1413 C1389 0.949 . S
H1414 C1391 0.950 . S
H1415 C1393 0.950 . S
C1416 C1417 1.349 . S
C1416 C1418 1.327 . S
C1416 H1441 0.950 . S
C1417 C1416 1.349 . S
C1417 C1433 1.349 . S
C1418 C1416 1.327 . S
C1418 C1437 1.429 . S
C1418 H1442 0.950 . S
C1419 C1436 1.574 . S
C1419 C1438 1.368 . S
C1419 H1443 0.949 . S
H1420 C1424 0.949 . S
C1421 C1422 1.349 . S
C1421 C1423 1.327 . S
C1421 H1444 0.950 . S
C1422 C1421 1.349 . S
C1422 C1434 1.349 . S
C1423 C1421 1.327 . S
C1423 C1439 1.429 . S
C1423 H1445 0.950 . S
C1424 H1420 0.949 . S
C1424 C1432 1.574 . S
C1424 C1440 1.368 . S
H1425 C1433 0.950 . S
H1426 C1431 0.950 . S
H1427 C1432 0.949 . S
H1428 C1434 0.950 . S
H1429 C1435 0.950 . S
H1430 C1436 0.949 . S
C1431 H1426 0.950 . S
C1431 C1433 1.327 . S
C1431 C1437 1.429 . S
C1432 C1424 1.574 . S
C1432 H1427 0.949 . S
C1432 C1438 1.368 . S
C1433 C1417 1.349 . S
C1433 H1425 0.950 . S
C1433 C1431 1.327 . S
C1434 C1422 1.349 . S
C1434 H1428 0.950 . S
C1434 C1435 1.327 . S
C1435 H1429 0.950 . S
C1435 C1434 1.327 . S
C1435 C1439 1.429 . S
C1436 C1419 1.574 . S
C1436 H1430 0.949 . S
C1436 C1440 1.368 . S
C1437 C1418 1.429 . S
C1437 C1431 1.429 . S
C1437 C1438 1.523 . S
C1438 C1419 1.368 . S
C1438 C1432 1.368 . S
C1438 C1437 1.523 . S
C1439 C1423 1.429 . S
C1439 C1435 1.429 . S
C1439 C1440 1.523 . S
C1440 C1424 1.368 . S
C1440 C1436 1.368 . S
C1440 C1439 1.523 . S
H1441 C1416 0.950 . S
H1442 C1418 0.950 . S
H1443 C1419 0.949 . S
H1444 C1421 0.950 . S
H1445 C1423 0.950 . S
C1446 C1447 1.349 . S
C1446 C1448 1.327 . S
C1446 H1471 0.950 . S
C1447 C1446 1.349 . S
C1447 C1463 1.349 . S
C1448 C1446 1.327 . S
C1448 C1467 1.429 . S
C1448 H1472 0.950 . S
C1449 C1466 1.574 . S
C1449 C1468 1.368 . S
C1449 H1473 0.949 . S
H1450 C1454 0.949 . S
C1451 C1452 1.349 . S
C1451 C1453 1.327 . S
C1451 H1474 0.950 . S
C1452 C1451 1.349 . S
C1452 C1464 1.349 . S
C1453 C1451 1.327 . S
C1453 C1469 1.429 . S
C1453 H1475 0.950 . S
C1454 H1450 0.949 . S
C1454 C1462 1.574 . S
C1454 C1470 1.368 . S
H1455 C1463 0.950 . S
H1456 C1461 0.950 . S
H1457 C1462 0.949 . S
H1458 C1464 0.950 . S
H1459 C1465 0.950 . S
H1460 C1466 0.949 . S
C1461 H1456 0.950 . S
C1461 C1463 1.327 . S
C1461 C1467 1.429 . S
C1462 C1454 1.574 . S
C1462 H1457 0.949 . S
C1462 C1468 1.368 . S
C1463 C1447 1.349 . S
C1463 H1455 0.950 . S
C1463 C1461 1.327 . S
C1464 C1452 1.349 . S
C1464 H1458 0.950 . S
C1464 C1465 1.327 . S
C1465 H1459 0.950 . S
C1465 C1464 1.327 . S
C1465 C1469 1.429 . S
C1466 C1449 1.574 . S
C1466 H1460 0.949 . S
C1466 C1470 1.368 . S
C1467 C1448 1.429 . S
C1467 C1461 1.429 . S
C1467 C1468 1.523 . S
C1468 C1449 1.368 . S
C1468 C1462 1.368 . S
C1468 C1467 1.523 . S
C1469 C1453 1.429 . S
C1469 C1465 1.429 . S
C1469 C1470 1.523 . S
C1470 C1454 1.368 . S
C1470 C1466 1.368 . S
C1470 C1469 1.523 . S
H1471 C1446 0.950 . S
H1472 C1448 0.950 . S
H1473 C1449 0.949 . S
H1474 C1451 0.950 . S
H1475 C1453 0.950 . S
C1476 C1477 1.349 . S
C1476 C1478 1.327 . S
C1476 H1501 0.950 . S
C1477 C1476 1.349 . S
C1477 C1493 1.349 . S
C1478 C1476 1.327 . S
C1478 C1497 1.429 . S
C1478 H1502 0.950 . S
C1479 C1496 1.574 1_455 S
C1479 C1498 1.368 . S
C1479 H1503 0.949 . S
H1480 C1484 0.949 . S
C1481 C1482 1.349 . S
C1481 C1483 1.327 . S
C1481 H1504 0.950 . S
C1482 C1481 1.349 . S
C1482 C1494 1.349 . S
C1483 C1481 1.327 . S
C1483 C1499 1.429 . S
C1483 H1505 0.950 . S
C1484 H1480 0.949 . S
C1484 C1492 1.574 1_655 S
C1484 C1500 1.368 . S
H1485 C1493 0.950 . S
H1486 C1491 0.950 . S
H1487 C1492 0.949 . S
H1488 C1494 0.950 . S
H1489 C1495 0.950 . S
H1490 C1496 0.949 . S
C1491 H1486 0.950 . S
C1491 C1493 1.327 . S
C1491 C1497 1.429 . S
C1492 C1484 1.574 1_455 S
C1492 H1487 0.949 . S
C1492 C1498 1.368 . S
C1493 C1477 1.349 . S
C1493 H1485 0.950 . S
C1493 C1491 1.327 . S
C1494 C1482 1.349 . S
C1494 H1488 0.950 . S
C1494 C1495 1.327 . S
C1495 H1489 0.950 . S
C1495 C1494 1.327 . S
C1495 C1499 1.429 . S
C1496 C1479 1.574 1_655 S
C1496 H1490 0.949 . S
C1496 C1500 1.368 . S
C1497 C1478 1.429 . S
C1497 C1491 1.429 . S
C1497 C1498 1.523 . S
C1498 C1479 1.368 . S
C1498 C1492 1.368 . S
C1498 C1497 1.523 . S
C1499 C1483 1.429 . S
C1499 C1495 1.429 . S
C1499 C1500 1.523 . S
C1500 C1484 1.368 . S
C1500 C1496 1.368 . S
C1500 C1499 1.523 . S
H1501 C1476 0.950 . S
H1502 C1478 0.950 . S
H1503 C1479 0.949 . S
H1504 C1481 0.950 . S
H1505 C1483 0.950 . S
C1506 C1507 1.349 1_455 S
C1506 C1508 1.327 . S
C1506 H1531 0.950 . S
C1507 C1506 1.349 1_655 S
C1507 C1523 1.349 . S
C1508 C1506 1.327 . S
C1508 C1527 1.429 1_455 S
C1508 H1532 0.950 . S
C1509 C1526 1.574 . S
C1509 C1528 1.368 . S
C1509 H1533 0.949 . S
H1510 C1514 0.949 . S
C1511 C1512 1.349 1_655 S
C1511 C1513 1.327 . S
C1511 H1534 0.950 . S
C1512 C1511 1.349 1_455 S
C1512 C1524 1.349 . S
C1513 C1511 1.327 . S
C1513 C1529 1.429 1_655 S
C1513 H1535 0.950 . S
C1514 H1510 0.949 . S
C1514 C1522 1.574 . S
C1514 C1530 1.368 . S
H1515 C1523 0.950 . S
H1516 C1521 0.950 . S
H1517 C1522 0.949 . S
H1518 C1524 0.950 . S
H1519 C1525 0.950 . S
H1520 C1526 0.949 . S
C1521 H1516 0.950 . S
C1521 C1523 1.327 . S
C1521 C1527 1.429 . S
C1522 C1514 1.574 . S
C1522 H1517 0.949 . S
C1522 C1528 1.368 1_455 S
C1523 C1507 1.349 . S
C1523 H1515 0.950 . S
C1523 C1521 1.327 . S
C1524 C1512 1.349 . S
C1524 H1518 0.950 . S
C1524 C1525 1.327 . S
C1525 H1519 0.950 . S
C1525 C1524 1.327 . S
C1525 C1529 1.429 . S
C1526 C1509 1.574 . S
C1526 H1520 0.949 . S
C1526 C1530 1.368 1_655 S
C1527 C1508 1.429 1_655 S
C1527 C1521 1.429 . S
C1527 C1528 1.523 . S
C1528 C1509 1.368 . S
C1528 C1522 1.368 1_655 S
C1528 C1527 1.523 . S
C1529 C1513 1.429 1_455 S
C1529 C1525 1.429 . S
C1529 C1530 1.523 . S
C1530 C1514 1.368 . S
C1530 C1526 1.368 1_455 S
C1530 C1529 1.523 . S
H1531 C1506 0.950 . S
H1532 C1508 0.950 . S
H1533 C1509 0.949 . S
H1534 C1511 0.950 . S
H1535 C1513 0.950 . S
C1536 C1537 1.349 . S
C1536 C1538 1.327 . S
C1536 H1561 0.950 . S
C1537 C1536 1.349 . S
C1537 C1553 1.349 . S
C1538 C1536 1.327 . S
C1538 C1557 1.429 . S
C1538 H1562 0.950 . S
C1539 C1556 1.574 . S
C1539 C1558 1.368 . S
C1539 H1563 0.949 . S
H1540 C1544 0.949 . S
C1541 C1542 1.349 . S
C1541 C1543 1.327 . S
C1541 H1564 0.950 . S
C1542 C1541 1.349 . S
C1542 C1554 1.349 . S
C1543 C1541 1.327 . S
C1543 C1559 1.429 . S
C1543 H1565 0.950 . S
C1544 H1540 0.949 . S
C1544 C1552 1.574 . S
C1544 C1560 1.368 . S
H1545 C1553 0.950 . S
H1546 C1551 0.950 . S
H1547 C1552 0.949 . S
H1548 C1554 0.950 . S
H1549 C1555 0.950 . S
H1550 C1556 0.949 . S
C1551 H1546 0.950 . S
C1551 C1553 1.327 . S
C1551 C1557 1.429 . S
C1552 C1544 1.574 . S
C1552 H1547 0.949 . S
C1552 C1558 1.368 . S
C1553 C1537 1.349 . S
C1553 H1545 0.950 . S
C1553 C1551 1.327 . S
C1554 C1542 1.349 . S
C1554 H1548 0.950 . S
C1554 C1555 1.327 . S
C1555 H1549 0.950 . S
C1555 C1554 1.327 . S
C1555 C1559 1.429 . S
C1556 C1539 1.574 . S
C1556 H1550 0.949 . S
C1556 C1560 1.368 . S
C1557 C1538 1.429 . S
C1557 C1551 1.429 . S
C1557 C1558 1.523 . S
C1558 C1539 1.368 . S
C1558 C1552 1.368 . S
C1558 C1557 1.523 . S
C1559 C1543 1.429 . S
C1559 C1555 1.429 . S
C1559 C1560 1.523 . S
C1560 C1544 1.368 . S
C1560 C1556 1.368 . S
C1560 C1559 1.523 . S
H1561 C1536 0.950 . S
H1562 C1538 0.950 . S
H1563 C1539 0.949 . S
H1564 C1541 0.950 . S
H1565 C1543 0.950 . S
C1566 C1567 1.349 . S
C1566 C1568 1.327 . S
C1566 H1591 0.950 . S
C1567 C1566 1.349 . S
C1567 C1583 1.349 . S
C1568 C1566 1.327 . S
C1568 C1587 1.429 . S
C1568 H1592 0.950 . S
C1569 C1586 1.574 . S
C1569 C1588 1.368 . S
C1569 H1593 0.949 . S
H1570 C1574 0.949 . S
C1571 C1572 1.349 . S
C1571 C1573 1.327 . S
C1571 H1594 0.950 . S
C1572 C1571 1.349 . S
C1572 C1584 1.349 . S
C1573 C1571 1.327 . S
C1573 C1589 1.429 . S
C1573 H1595 0.950 . S
C1574 H1570 0.949 . S
C1574 C1582 1.574 . S
C1574 C1590 1.368 . S
H1575 C1583 0.950 . S
H1576 C1581 0.950 . S
H1577 C1582 0.949 . S
H1578 C1584 0.950 . S
H1579 C1585 0.950 . S
H1580 C1586 0.949 . S
C1581 H1576 0.950 . S
C1581 C1583 1.327 . S
C1581 C1587 1.429 . S
C1582 C1574 1.574 . S
C1582 H1577 0.949 . S
C1582 C1588 1.368 . S
C1583 C1567 1.349 . S
C1583 H1575 0.950 . S
C1583 C1581 1.327 . S
C1584 C1572 1.349 . S
C1584 H1578 0.950 . S
C1584 C1585 1.327 . S
C1585 H1579 0.950 . S
C1585 C1584 1.327 . S
C1585 C1589 1.429 . S
C1586 C1569 1.574 . S
C1586 H1580 0.949 . S
C1586 C1590 1.368 . S
C1587 C1568 1.429 . S
C1587 C1581 1.429 . S
C1587 C1588 1.523 . S
C1588 C1569 1.368 . S
C1588 C1582 1.368 . S
C1588 C1587 1.523 . S
C1589 C1573 1.429 . S
C1589 C1585 1.429 . S
C1589 C1590 1.523 . S
C1590 C1574 1.368 . S
C1590 C1586 1.368 . S
C1590 C1589 1.523 . S
H1591 C1566 0.950 . S
H1592 C1568 0.950 . S
H1593 C1569 0.949 . S
H1594 C1571 0.950 . S
H1595 C1573 0.950 . S
C1596 C1597 1.349 . S
C1596 C1598 1.327 . S
C1596 H1621 0.950 . S
C1597 C1596 1.349 . S
C1597 C1613 1.349 . S
C1598 C1596 1.327 . S
C1598 C1617 1.429 . S
C1598 H1622 0.950 . S
C1599 C1616 1.574 . S
C1599 C1618 1.368 . S
C1599 H1623 0.949 . S
H1600 C1604 0.949 . S
C1601 C1602 1.349 . S
C1601 C1603 1.327 . S
C1601 H1624 0.950 . S
C1602 C1601 1.349 . S
C1602 C1614 1.349 . S
C1603 C1601 1.327 . S
C1603 C1619 1.429 . S
C1603 H1625 0.950 . S
C1604 H1600 0.949 . S
C1604 C1612 1.574 . S
C1604 C1620 1.368 . S
H1605 C1613 0.950 . S
H1606 C1611 0.950 . S
H1607 C1612 0.949 . S
H1608 C1614 0.950 . S
H1609 C1615 0.950 . S
H1610 C1616 0.949 . S
C1611 H1606 0.950 . S
C1611 C1613 1.327 . S
C1611 C1617 1.429 . S
C1612 C1604 1.574 . S
C1612 H1607 0.949 . S
C1612 C1618 1.368 . S
C1613 C1597 1.349 . S
C1613 H1605 0.950 . S
C1613 C1611 1.327 . S
C1614 C1602 1.349 . S
C1614 H1608 0.950 . S
C1614 C1615 1.327 . S
C1615 H1609 0.950 . S
C1615 C1614 1.327 . S
C1615 C1619 1.429 . S
C1616 C1599 1.574 . S
C1616 H1610 0.949 . S
C1616 C1620 1.368 . S
C1617 C1598 1.429 . S
C1617 C1611 1.429 . S
C1617 C1618 1.523 . S
C1618 C1599 1.368 . S
C1618 C1612 1.368 . S
C1618 C1617 1.523 . S
C1619 C1603 1.429 . S
C1619 C1615 1.429 . S
C1619 C1620 1.523 . S
C1620 C1604 1.368 . S
C1620 C1616 1.368 . S
C1620 C1619 1.523 . S
H1621 C1596 0.950 . S
H1622 C1598 0.950 . S
H1623 C1599 0.949 . S
H1624 C1601 0.950 . S
H1625 C1603 0.950 . S
C1626 C1627 1.349 . S
C1626 C1628 1.327 . S
C1626 H1651 0.950 . S
C1627 C1626 1.349 . S
C1627 C1643 1.349 . S
C1628 C1626 1.327 . S
C1628 C1647 1.429 . S
C1628 H1652 0.950 . S
C1629 C1646 1.574 . S
C1629 C1648 1.368 . S
C1629 H1653 0.949 . S
H1630 C1634 0.949 . S
C1631 C1632 1.349 . S
C1631 C1633 1.327 . S
C1631 H1654 0.950 . S
C1632 C1631 1.349 . S
C1632 C1644 1.349 . S
C1633 C1631 1.327 . S
C1633 C1649 1.429 . S
C1633 H1655 0.950 . S
C1634 H1630 0.949 . S
C1634 C1642 1.574 . S
C1634 C1650 1.368 . S
H1635 C1643 0.950 . S
H1636 C1641 0.950 . S
H1637 C1642 0.949 . S
H1638 C1644 0.950 . S
H1639 C1645 0.950 . S
H1640 C1646 0.949 . S
C1641 H1636 0.950 . S
C1641 C1643 1.327 . S
C1641 C1647 1.429 . S
C1642 C1634 1.574 . S
C1642 H1637 0.949 . S
C1642 C1648 1.368 . S
C1643 C1627 1.349 . S
C1643 H1635 0.950 . S
C1643 C1641 1.327 . S
C1644 C1632 1.349 . S
C1644 H1638 0.950 . S
C1644 C1645 1.327 . S
C1645 H1639 0.950 . S
C1645 C1644 1.327 . S
C1645 C1649 1.429 . S
C1646 C1629 1.574 . S
C1646 H1640 0.949 . S
C1646 C1650 1.368 . S
C1647 C1628 1.429 . S
C1647 C1641 1.429 . S
C1647 C1648 1.523 . S
C1648 C1629 1.368 . S
C1648 C1642 1.368 . S
C1648 C1647 1.523 . S
C1649 C1633 1.429 . S
C1649 C1645 1.429 . S
C1649 C1650 1.523 . S
C1650 C1634 1.368 . S
C1650 C1646 1.368 . S
C1650 C1649 1.523 . S
H1651 C1626 0.950 . S
H1652 C1628 0.950 . S
H1653 C1629 0.949 . S
H1654 C1631 0.950 . S
H1655 C1633 0.950 . S
C1656 C1657 1.349 . S
C1656 C1658 1.327 . S
C1656 H1681 0.950 . S
C1657 C1656 1.349 . S
C1657 C1673 1.349 . S
C1658 C1656 1.327 . S
C1658 C1677 1.429 . S
C1658 H1682 0.950 . S
C1659 C1676 1.574 . S
C1659 C1678 1.368 . S
C1659 H1683 0.949 . S
H1660 C1664 0.949 . S
C1661 C1662 1.349 . S
C1661 C1663 1.327 . S
C1661 H1684 0.950 . S
C1662 C1661 1.349 . S
C1662 C1674 1.349 . S
C1663 C1661 1.327 . S
C1663 C1679 1.429 . S
C1663 H1685 0.950 . S
C1664 H1660 0.949 . S
C1664 C1672 1.574 . S
C1664 C1680 1.368 . S
H1665 C1673 0.950 . S
H1666 C1671 0.950 . S
H1667 C1672 0.949 . S
H1668 C1674 0.950 . S
H1669 C1675 0.950 . S
H1670 C1676 0.949 . S
C1671 H1666 0.950 . S
C1671 C1673 1.327 . S
C1671 C1677 1.429 . S
C1672 C1664 1.574 . S
C1672 H1667 0.949 . S
C1672 C1678 1.368 . S
C1673 C1657 1.349 . S
C1673 H1665 0.950 . S
C1673 C1671 1.327 . S
C1674 C1662 1.349 . S
C1674 H1668 0.950 . S
C1674 C1675 1.327 . S
C1675 H1669 0.950 . S
C1675 C1674 1.327 . S
C1675 C1679 1.429 . S
C1676 C1659 1.574 . S
C1676 H1670 0.949 . S
C1676 C1680 1.368 . S
C1677 C1658 1.429 . S
C1677 C1671 1.429 . S
C1677 C1678 1.523 . S
C1678 C1659 1.368 . S
C1678 C1672 1.368 . S
C1678 C1677 1.523 . S
C1679 C1663 1.429 . S
C1679 C1675 1.429 . S
C1679 C1680 1.523 . S
C1680 C1664 1.368 . S
C1680 C1676 1.368 . S
C1680 C1679 1.523 . S
H1681 C1656 0.950 . S
H1682 C1658 0.950 . S
H1683 C1659 0.949 . S
H1684 C1661 0.950 . S
H1685 C1663 0.950 . S
C1686 C1687 1.349 . S
C1686 C1688 1.327 . S
C1686 H1711 0.950 . S
C1687 C1686 1.349 . S
C1687 C1703 1.349 . S
C1688 C1686 1.327 . S
C1688 C1707 1.429 . S
C1688 H1712 0.950 . S
C1689 C1706 1.574 . S
C1689 C1708 1.368 . S
C1689 H1713 0.949 . S
H1690 C1694 0.949 . S
C1691 C1692 1.349 . S
C1691 C1693 1.327 . S
C1691 H1714 0.950 . S
C1692 C1691 1.349 . S
C1692 C1704 1.349 . S
C1693 C1691 1.327 . S
C1693 C1709 1.429 . S
C1693 H1715 0.950 . S
C1694 H1690 0.949 . S
C1694 C1702 1.574 . S
C1694 C1710 1.368 . S
H1695 C1703 0.950 . S
H1696 C1701 0.950 . S
H1697 C1702 0.949 . S
H1698 C1704 0.950 . S
H1699 C1705 0.950 . S
H1700 C1706 0.949 . S
C1701 H1696 0.950 . S
C1701 C1703 1.327 . S
C1701 C1707 1.429 . S
C1702 C1694 1.574 . S
C1702 H1697 0.949 . S
C1702 C1708 1.368 . S
C1703 C1687 1.349 . S
C1703 H1695 0.950 . S
C1703 C1701 1.327 . S
C1704 C1692 1.349 . S
C1704 H1698 0.950 . S
C1704 C1705 1.327 . S
C1705 H1699 0.950 . S
C1705 C1704 1.327 . S
C1705 C1709 1.429 . S
C1706 C1689 1.574 . S
C1706 H1700 0.949 . S
C1706 C1710 1.368 . S
C1707 C1688 1.429 . S
C1707 C1701 1.429 . S
C1707 C1708 1.523 . S
C1708 C1689 1.368 . S
C1708 C1702 1.368 . S
C1708 C1707 1.523 . S
C1709 C1693 1.429 . S
C1709 C1705 1.429 . S
C1709 C1710 1.523 . S
C1710 C1694 1.368 . S
C1710 C1706 1.368 . S
C1710 C1709 1.523 . S
H1711 C1686 0.950 . S
H1712 C1688 0.950 . S
H1713 C1689 0.949 . S
H1714 C1691 0.950 . S
H1715 C1693 0.950 . S
C1716 C1717 1.349 . S
C1716 C1718 1.327 . S
C1716 H1741 0.950 . S
C1717 C1716 1.349 . S
C1717 C1733 1.349 . S
C1718 C1716 1.327 . S
C1718 C1737 1.429 . S
C1718 H1742 0.950 . S
C1719 C1736 1.574 . S
C1719 C1738 1.368 . S
C1719 H1743 0.949 . S
H1720 C1724 0.949 . S
C1721 C1722 1.349 . S
C1721 C1723 1.327 . S
C1721 H1744 0.950 . S
C1722 C1721 1.349 . S
C1722 C1734 1.349 . S
C1723 C1721 1.327 . S
C1723 C1739 1.429 . S
C1723 H1745 0.950 . S
C1724 H1720 0.949 . S
C1724 C1732 1.574 . S
C1724 C1740 1.368 . S
H1725 C1733 0.950 . S
H1726 C1731 0.950 . S
H1727 C1732 0.949 . S
H1728 C1734 0.950 . S
H1729 C1735 0.950 . S
H1730 C1736 0.949 . S
C1731 H1726 0.950 . S
C1731 C1733 1.327 . S
C1731 C1737 1.429 . S
C1732 C1724 1.574 . S
C1732 H1727 0.949 . S
C1732 C1738 1.368 . S
C1733 C1717 1.349 . S
C1733 H1725 0.950 . S
C1733 C1731 1.327 . S
C1734 C1722 1.349 . S
C1734 H1728 0.950 . S
C1734 C1735 1.327 . S
C1735 H1729 0.950 . S
C1735 C1734 1.327 . S
C1735 C1739 1.429 . S
C1736 C1719 1.574 . S
C1736 H1730 0.949 . S
C1736 C1740 1.368 . S
C1737 C1718 1.429 . S
C1737 C1731 1.429 . S
C1737 C1738 1.523 . S
C1738 C1719 1.368 . S
C1738 C1732 1.368 . S
C1738 C1737 1.523 . S
C1739 C1723 1.429 . S
C1739 C1735 1.429 . S
C1739 C1740 1.523 . S
C1740 C1724 1.368 . S
C1740 C1736 1.368 . S
C1740 C1739 1.523 . S
H1741 C1716 0.950 . S
H1742 C1718 0.950 . S
H1743 C1719 0.949 . S
H1744 C1721 0.950 . S
H1745 C1723 0.950 . S
C1746 C1747 1.349 . S
C1746 C1748 1.327 . S
C1746 H1771 0.950 . S
C1747 C1746 1.349 . S
C1747 C1763 1.349 . S
C1748 C1746 1.327 . S
C1748 C1767 1.429 . S
C1748 H1772 0.950 . S
C1749 C1766 1.574 . S
C1749 C1768 1.368 . S
C1749 H1773 0.949 . S
H1750 C1754 0.949 . S
C1751 C1752 1.349 . S
C1751 C1753 1.327 . S
C1751 H1774 0.950 . S
C1752 C1751 1.349 . S
C1752 C1764 1.349 . S
C1753 C1751 1.327 . S
C1753 C1769 1.429 . S
C1753 H1775 0.950 . S
C1754 H1750 0.949 . S
C1754 C1762 1.574 . S
C1754 C1770 1.368 . S
H1755 C1763 0.950 . S
H1756 C1761 0.950 . S
H1757 C1762 0.949 . S
H1758 C1764 0.950 . S
H1759 C1765 0.950 . S
H1760 C1766 0.949 . S
C1761 H1756 0.950 . S
C1761 C1763 1.327 . S
C1761 C1767 1.429 . S
C1762 C1754 1.574 . S
C1762 H1757 0.949 . S
C1762 C1768 1.368 . S
C1763 C1747 1.349 . S
C1763 H1755 0.950 . S
C1763 C1761 1.327 . S
C1764 C1752 1.349 . S
C1764 H1758 0.950 . S
C1764 C1765 1.327 . S
C1765 H1759 0.950 . S
C1765 C1764 1.327 . S
C1765 C1769 1.429 . S
C1766 C1749 1.574 . S
C1766 H1760 0.949 . S
C1766 C1770 1.368 . S
C1767 C1748 1.429 . S
C1767 C1761 1.429 . S
C1767 C1768 1.523 . S
C1768 C1749 1.368 . S
C1768 C1762 1.368 . S
C1768 C1767 1.523 . S
C1769 C1753 1.429 . S
C1769 C1765 1.429 . S
C1769 C1770 1.523 . S
C1770 C1754 1.368 . S
C1770 C1766 1.368 . S
C1770 C1769 1.523 . S
H1771 C1746 0.950 . S
H1772 C1748 0.950 . S
H1773 C1749 0.949 . S
H1774 C1751 0.950 . S
H1775 C1753 0.950 . S
C1776 C1777 1.349 . S
C1776 C1778 1.327 . S
C1776 H1801 0.950 . S
C1777 C1776 1.349 . S
C1777 C1793 1.349 . S
C1778 C1776 1.327 . S
C1778 C1797 1.429 . S
C1778 H1802 0.950 . S
C1779 C1796 1.574 . S
C1779 C1798 1.368 . S
C1779 H1803 0.949 . S
H1780 C1784 0.949 . S
C1781 C1782 1.349 . S
C1781 C1783 1.327 . S
C1781 H1804 0.950 . S
C1782 C1781 1.349 . S
C1782 C1794 1.349 . S
C1783 C1781 1.327 . S
C1783 C1799 1.429 . S
C1783 H1805 0.950 . S
C1784 H1780 0.949 . S
C1784 C1792 1.574 . S
C1784 C1800 1.368 . S
H1785 C1793 0.950 . S
H1786 C1791 0.950 . S
H1787 C1792 0.949 . S
H1788 C1794 0.950 . S
H1789 C1795 0.950 . S
H1790 C1796 0.949 . S
C1791 H1786 0.950 . S
C1791 C1793 1.327 . S
C1791 C1797 1.429 . S
C1792 C1784 1.574 . S
C1792 H1787 0.949 . S
C1792 C1798 1.368 . S
C1793 C1777 1.349 . S
C1793 H1785 0.950 . S
C1793 C1791 1.327 . S
C1794 C1782 1.349 . S
C1794 H1788 0.950 . S
C1794 C1795 1.327 . S
C1795 H1789 0.950 . S
C1795 C1794 1.327 . S
C1795 C1799 1.429 . S
C1796 C1779 1.574 . S
C1796 H1790 0.949 . S
C1796 C1800 1.368 . S
C1797 C1778 1.429 . S
C1797 C1791 1.429 . S
C1797 C1798 1.523 . S
C1798 C1779 1.368 . S
C1798 C1792 1.368 . S
C1798 C1797 1.523 . S
C1799 C1783 1.429 . S
C1799 C1795 1.429 . S
C1799 C1800 1.523 . S
C1800 C1784 1.368 . S
C1800 C1796 1.368 . S
C1800 C1799 1.523 . S
H1801 C1776 0.950 . S
H1802 C1778 0.950 . S
H1803 C1779 0.949 . S
H1804 C1781 0.950 . S
H1805 C1783 0.950 . S
C1806 C1807 1.349 . S
C1806 C1808 1.327 . S
C1806 H1831 0.950 . S
C1807 C1806 1.349 . S
C1807 C1823 1.349 . S
C1808 C1806 1.327 . S
C1808 C1827 1.429 . S
C1808 H1832 0.950 . S
C1809 C1826 1.574 . S
C1809 C1828 1.368 . S
C1809 H1833 0.949 . S
H1810 C1814 0.949 . S
C1811 C1812 1.349 . S
C1811 C1813 1.327 . S
C1811 H1834 0.950 . S
C1812 C1811 1.349 . S
C1812 C1824 1.349 . S
C1813 C1811 1.327 . S
C1813 C1829 1.429 . S
C1813 H1835 0.950 . S
C1814 H1810 0.949 . S
C1814 C1822 1.574 . S
C1814 C1830 1.368 . S
H1815 C1823 0.950 . S
H1816 C1821 0.950 . S
H1817 C1822 0.949 . S
H1818 C1824 0.950 . S
H1819 C1825 0.950 . S
H1820 C1826 0.949 . S
C1821 H1816 0.950 . S
C1821 C1823 1.327 . S
C1821 C1827 1.429 . S
C1822 C1814 1.574 . S
C1822 H1817 0.949 . S
C1822 C1828 1.368 . S
C1823 C1807 1.349 . S
C1823 H1815 0.950 . S
C1823 C1821 1.327 . S
C1824 C1812 1.349 . S
C1824 H1818 0.950 . S
C1824 C1825 1.327 . S
C1825 H1819 0.950 . S
C1825 C1824 1.327 . S
C1825 C1829 1.429 . S
C1826 C1809 1.574 . S
C1826 H1820 0.949 . S
C1826 C1830 1.368 . S
C1827 C1808 1.429 . S
C1827 C1821 1.429 . S
C1827 C1828 1.523 . S
C1828 C1809 1.368 . S
C1828 C1822 1.368 . S
C1828 C1827 1.523 . S
C1829 C1813 1.429 . S
C1829 C1825 1.429 . S
C1829 C1830 1.523 . S
C1830 C1814 1.368 . S
C1830 C1826 1.368 . S
C1830 C1829 1.523 . S
H1831 C1806 0.950 . S
H1832 C1808 0.950 . S
H1833 C1809 0.949 . S
H1834 C1811 0.950 . S
H1835 C1813 0.950 . S
C1836 C1837 1.349 . S
C1836 C1838 1.327 . S
C1836 H1861 0.950 . S
C1837 C1836 1.349 . S
C1837 C1853 1.349 . S
C1838 C1836 1.327 . S
C1838 C1857 1.429 . S
C1838 H1862 0.950 . S
C1839 C1856 1.574 . S
C1839 C1858 1.368 . S
C1839 H1863 0.949 . S
H1840 C1844 0.949 . S
C1841 C1842 1.349 . S
C1841 C1843 1.327 . S
C1841 H1864 0.950 . S
C1842 C1841 1.349 . S
C1842 C1854 1.349 . S
C1843 C1841 1.327 . S
C1843 C1859 1.429 . S
C1843 H1865 0.950 . S
C1844 H1840 0.949 . S
C1844 C1852 1.574 . S
C1844 C1860 1.368 . S
H1845 C1853 0.950 . S
H1846 C1851 0.950 . S
H1847 C1852 0.949 . S
H1848 C1854 0.950 . S
H1849 C1855 0.950 . S
H1850 C1856 0.949 . S
C1851 H1846 0.950 . S
C1851 C1853 1.327 . S
C1851 C1857 1.429 . S
C1852 C1844 1.574 . S
C1852 H1847 0.949 . S
C1852 C1858 1.368 . S
C1853 C1837 1.349 . S
C1853 H1845 0.950 . S
C1853 C1851 1.327 . S
C1854 C1842 1.349 . S
C1854 H1848 0.950 . S
C1854 C1855 1.327 . S
C1855 H1849 0.950 . S
C1855 C1854 1.327 . S
C1855 C1859 1.429 . S
C1856 C1839 1.574 . S
C1856 H1850 0.949 . S
C1856 C1860 1.368 . S
C1857 C1838 1.429 . S
C1857 C1851 1.429 . S
C1857 C1858 1.523 . S
C1858 C1839 1.368 . S
C1858 C1852 1.368 . S
C1858 C1857 1.523 . S
C1859 C1843 1.429 . S
C1859 C1855 1.429 . S
C1859 C1860 1.523 . S
C1860 C1844 1.368 . S
C1860 C1856 1.368 . S
C1860 C1859 1.523 . S
H1861 C1836 0.950 . S
H1862 C1838 0.950 . S
H1863 C1839 0.949 . S
H1864 C1841 0.950 . S
H1865 C1843 0.950 . S
C1866 C1867 1.349 . S
C1866 C1868 1.327 . S
C1866 H1891 0.950 . S
C1867 C1866 1.349 . S
C1867 C1883 1.349 . S
C1868 C1866 1.327 . S
C1868 C1887 1.429 . S
C1868 H1892 0.950 . S
C1869 C1886 1.574 . S
C1869 C1888 1.368 . S
C1869 H1893 0.949 . S
H1870 C1874 0.949 . S
C1871 C1872 1.349 . S
C1871 C1873 1.327 . S
C1871 H1894 0.950 . S
C1872 C1871 1.349 . S
C1872 C1884 1.349 . S
C1873 C1871 1.327 . S
C1873 C1889 1.429 . S
C1873 H1895 0.950 . S
C1874 H1870 0.949 . S
C1874 C1882 1.574 . S
C1874 C1890 1.368 . S
H1875 C1883 0.950 . S
H1876 C1881 0.950 . S
H1877 C1882 0.949 . S
H1878 C1884 0.950 . S
H1879 C1885 0.950 . S
H1880 C1886 0.949 . S
C1881 H1876 0.950 . S
C1881 C1883 1.327 . S
C1881 C1887 1.429 . S
C1882 C1874 1.574 . S
C1882 H1877 0.949 . S
C1882 C1888 1.368 . S
C1883 C1867 1.349 . S
C1883 H1875 0.950 . S
C1883 C1881 1.327 . S
C1884 C1872 1.349 . S
C1884 H1878 0.950 . S
C1884 C1885 1.327 . S
C1885 H1879 0.950 . S
C1885 C1884 1.327 . S
C1885 C1889 1.429 . S
C1886 C1869 1.574 . S
C1886 H1880 0.949 . S
C1886 C1890 1.368 . S
C1887 C1868 1.429 . S
C1887 C1881 1.429 . S
C1887 C1888 1.523 . S
C1888 C1869 1.368 . S
C1888 C1882 1.368 . S
C1888 C1887 1.523 . S
C1889 C1873 1.429 . S
C1889 C1885 1.429 . S
C1889 C1890 1.523 . S
C1890 C1874 1.368 . S
C1890 C1886 1.368 . S
C1890 C1889 1.523 . S
H1891 C1866 0.950 . S
H1892 C1868 0.950 . S
H1893 C1869 0.949 . S
H1894 C1871 0.950 . S
H1895 C1873 0.950 . S
C1896 C1897 1.349 . S
C1896 C1898 1.327 . S
C1896 H1921 0.950 . S
C1897 C1896 1.349 . S
C1897 C1913 1.349 . S
C1898 C1896 1.327 . S
C1898 C1917 1.429 . S
C1898 H1922 0.950 . S
C1899 C1916 1.574 . S
C1899 C1918 1.368 . S
C1899 H1923 0.949 . S
H1900 C1904 0.949 . S
C1901 C1902 1.349 . S
C1901 C1903 1.327 . S
C1901 H1924 0.950 . S
C1902 C1901 1.349 . S
C1902 C1914 1.349 . S
C1903 C1901 1.327 . S
C1903 C1919 1.429 . S
C1903 H1925 0.950 . S
C1904 H1900 0.949 . S
C1904 C1912 1.574 . S
C1904 C1920 1.368 . S
H1905 C1913 0.950 . S
H1906 C1911 0.950 . S
H1907 C1912 0.949 . S
H1908 C1914 0.950 . S
H1909 C1915 0.950 . S
H1910 C1916 0.949 . S
C1911 H1906 0.950 . S
C1911 C1913 1.327 . S
C1911 C1917 1.429 . S
C1912 C1904 1.574 . S
C1912 H1907 0.949 . S
C1912 C1918 1.368 . S
C1913 C1897 1.349 . S
C1913 H1905 0.950 . S
C1913 C1911 1.327 . S
C1914 C1902 1.349 . S
C1914 H1908 0.950 . S
C1914 C1915 1.327 . S
C1915 H1909 0.950 . S
C1915 C1914 1.327 . S
C1915 C1919 1.429 . S
C1916 C1899 1.574 . S
C1916 H1910 0.949 . S
C1916 C1920 1.368 . S
C1917 C1898 1.429 . S
C1917 C1911 1.429 . S
C1917 C1918 1.523 . S
C1918 C1899 1.368 . S
C1918 C1912 1.368 . S
C1918 C1917 1.523 . S
C1919 C1903 1.429 . S
C1919 C1915 1.429 . S
C1919 C1920 1.523 . S
C1920 C1904 1.368 . S
C1920 C1916 1.368 . S
C1920 C1919 1.523 . S
H1921 C1896 0.950 . S
H1922 C1898 0.950 . S
H1923 C1899 0.949 . S
H1924 C1901 0.950 . S
H1925 C1903 0.950 . S
C1926 C1927 1.349 . S
C1926 C1928 1.327 . S
C1926 H1951 0.950 . S
C1927 C1926 1.349 . S
C1927 C1943 1.349 . S
C1928 C1926 1.327 . S
C1928 C1947 1.429 . S
C1928 H1952 0.950 . S
C1929 C1946 1.574 . S
C1929 C1948 1.368 . S
C1929 H1953 0.949 . S
H1930 C1934 0.949 . S
C1931 C1932 1.349 . S
C1931 C1933 1.327 . S
C1931 H1954 0.950 . S
C1932 C1931 1.349 . S
C1932 C1944 1.349 . S
C1933 C1931 1.327 . S
C1933 C1949 1.429 . S
C1933 H1955 0.950 . S
C1934 H1930 0.949 . S
C1934 C1942 1.574 . S
C1934 C1950 1.368 . S
H1935 C1943 0.950 . S
H1936 C1941 0.950 . S
H1937 C1942 0.949 . S
H1938 C1944 0.950 . S
H1939 C1945 0.950 . S
H1940 C1946 0.949 . S
C1941 H1936 0.950 . S
C1941 C1943 1.327 . S
C1941 C1947 1.429 . S
C1942 C1934 1.574 . S
C1942 H1937 0.949 . S
C1942 C1948 1.368 . S
C1943 C1927 1.349 . S
C1943 H1935 0.950 . S
C1943 C1941 1.327 . S
C1944 C1932 1.349 . S
C1944 H1938 0.950 . S
C1944 C1945 1.327 . S
C1945 H1939 0.950 . S
C1945 C1944 1.327 . S
C1945 C1949 1.429 . S
C1946 C1929 1.574 . S
C1946 H1940 0.949 . S
C1946 C1950 1.368 . S
C1947 C1928 1.429 . S
C1947 C1941 1.429 . S
C1947 C1948 1.523 . S
C1948 C1929 1.368 . S
C1948 C1942 1.368 . S
C1948 C1947 1.523 . S
C1949 C1933 1.429 . S
C1949 C1945 1.429 . S
C1949 C1950 1.523 . S
C1950 C1934 1.368 . S
C1950 C1946 1.368 . S
C1950 C1949 1.523 . S
H1951 C1926 0.950 . S
H1952 C1928 0.950 . S
H1953 C1929 0.949 . S
H1954 C1931 0.950 . S
H1955 C1933 0.950 . S
C1956 C1957 1.349 . S
C1956 C1958 1.327 . S
C1956 H1981 0.950 . S
C1957 C1956 1.349 . S
C1957 C1973 1.349 . S
C1958 C1956 1.327 . S
C1958 C1977 1.429 . S
C1958 H1982 0.950 . S
C1959 C1976 1.574 . S
C1959 C1978 1.368 . S
C1959 H1983 0.949 . S
H1960 C1964 0.949 . S
C1961 C1962 1.349 . S
C1961 C1963 1.327 . S
C1961 H1984 0.950 . S
C1962 C1961 1.349 . S
C1962 C1974 1.349 . S
C1963 C1961 1.327 . S
C1963 C1979 1.429 . S
C1963 H1985 0.950 . S
C1964 H1960 0.949 . S
C1964 C1972 1.574 . S
C1964 C1980 1.368 . S
H1965 C1973 0.950 . S
H1966 C1971 0.950 . S
H1967 C1972 0.949 . S
H1968 C1974 0.950 . S
H1969 C1975 0.950 . S
H1970 C1976 0.949 . S
C1971 H1966 0.950 . S
C1971 C1973 1.327 . S
C1971 C1977 1.429 . S
C1972 C1964 1.574 . S
C1972 H1967 0.949 . S
C1972 C1978 1.368 . S
C1973 C1957 1.349 . S
C1973 H1965 0.950 . S
C1973 C1971 1.327 . S
C1974 C1962 1.349 . S
C1974 H1968 0.950 . S
C1974 C1975 1.327 . S
C1975 H1969 0.950 . S
C1975 C1974 1.327 . S
C1975 C1979 1.429 . S
C1976 C1959 1.574 . S
C1976 H1970 0.949 . S
C1976 C1980 1.368 . S
C1977 C1958 1.429 . S
C1977 C1971 1.429 . S
C1977 C1978 1.523 . S
C1978 C1959 1.368 . S
C1978 C1972 1.368 . S
C1978 C1977 1.523 . S
C1979 C1963 1.429 . S
C1979 C1975 1.429 . S
C1979 C1980 1.523 . S
C1980 C1964 1.368 . S
C1980 C1976 1.368 . S
C1980 C1979 1.523 . S
H1981 C1956 0.950 . S
H1982 C1958 0.950 . S
H1983 C1959 0.949 . S
H1984 C1961 0.950 . S
H1985 C1963 0.950 . S
C1986 C1987 1.349 . S
C1986 C1988 1.327 . S
C1986 H2011 0.950 . S
C1987 C1986 1.349 . S
C1987 C2003 1.349 . S
C1988 C1986 1.327 . S
C1988 C2007 1.429 . S
C1988 H2012 0.950 . S
C1989 C2006 1.574 . S
C1989 C2008 1.368 . S
C1989 H2013 0.949 . S
H1990 C1994 0.949 . S
C1991 C1992 1.349 . S
C1991 C1993 1.327 . S
C1991 H2014 0.950 . S
C1992 C1991 1.349 . S
C1992 C2004 1.349 . S
C1993 C1991 1.327 . S
C1993 C2009 1.429 . S
C1993 H2015 0.950 . S
C1994 H1990 0.949 . S
C1994 C2002 1.574 . S
C1994 C2010 1.368 . S
H1995 C2003 0.950 . S
H1996 C2001 0.950 . S
H1997 C2002 0.949 . S
H1998 C2004 0.950 . S
H1999 C2005 0.950 . S
H2000 C2006 0.949 . S
C2001 H1996 0.950 . S
C2001 C2003 1.327 . S
C2001 C2007 1.429 . S
C2002 C1994 1.574 . S
C2002 H1997 0.949 . S
C2002 C2008 1.368 . S
C2003 C1987 1.349 . S
C2003 H1995 0.950 . S
C2003 C2001 1.327 . S
C2004 C1992 1.349 . S
C2004 H1998 0.950 . S
C2004 C2005 1.327 . S
C2005 H1999 0.950 . S
C2005 C2004 1.327 . S
C2005 C2009 1.429 . S
C2006 C1989 1.574 . S
C2006 H2000 0.949 . S
C2006 C2010 1.368 . S
C2007 C1988 1.429 . S
C2007 C2001 1.429 . S
C2007 C2008 1.523 . S
C2008 C1989 1.368 . S
C2008 C2002 1.368 . S
C2008 C2007 1.523 . S
C2009 C1993 1.429 . S
C2009 C2005 1.429 . S
C2009 C2010 1.523 . S
C2010 C1994 1.368 . S
C2010 C2006 1.368 . S
C2010 C2009 1.523 . S
H2011 C1986 0.950 . S
H2012 C1988 0.950 . S
H2013 C1989 0.949 . S
H2014 C1991 0.950 . S
H2015 C1993 0.950 . S
C2016 C2017 1.349 . S
C2016 C2018 1.327 . S
C2016 H2041 0.950 . S
C2017 C2016 1.349 . S
C2017 C2033 1.349 . S
C2018 C2016 1.327 . S
C2018 C2037 1.429 . S
C2018 H2042 0.950 . S
C2019 C2036 1.574 . S
C2019 C2038 1.368 . S
C2019 H2043 0.949 . S
H2020 C2024 0.949 . S
C2021 C2022 1.349 . S
C2021 C2023 1.327 . S
C2021 H2044 0.950 . S
C2022 C2021 1.349 . S
C2022 C2034 1.349 . S
C2023 C2021 1.327 . S
C2023 C2039 1.429 . S
C2023 H2045 0.950 . S
C2024 H2020 0.949 . S
C2024 C2032 1.574 . S
C2024 C2040 1.368 . S
H2025 C2033 0.950 . S
H2026 C2031 0.950 . S
H2027 C2032 0.949 . S
H2028 C2034 0.950 . S
H2029 C2035 0.950 . S
H2030 C2036 0.949 . S
C2031 H2026 0.950 . S
C2031 C2033 1.327 . S
C2031 C2037 1.429 . S
C2032 C2024 1.574 . S
C2032 H2027 0.949 . S
C2032 C2038 1.368 . S
C2033 C2017 1.349 . S
C2033 H2025 0.950 . S
C2033 C2031 1.327 . S
C2034 C2022 1.349 . S
C2034 H2028 0.950 . S
C2034 C2035 1.327 . S
C2035 H2029 0.950 . S
C2035 C2034 1.327 . S
C2035 C2039 1.429 . S
C2036 C2019 1.574 . S
C2036 H2030 0.949 . S
C2036 C2040 1.368 . S
C2037 C2018 1.429 . S
C2037 C2031 1.429 . S
C2037 C2038 1.523 . S
C2038 C2019 1.368 . S
C2038 C2032 1.368 . S
C2038 C2037 1.523 . S
C2039 C2023 1.429 . S
C2039 C2035 1.429 . S
C2039 C2040 1.523 . S
C2040 C2024 1.368 . S
C2040 C2036 1.368 . S
C2040 C2039 1.523 . S
H2041 C2016 0.950 . S
H2042 C2018 0.950 . S
H2043 C2019 0.949 . S
H2044 C2021 0.950 . S
H2045 C2023 0.950 . S
C2046 C2047 1.349 . S
C2046 C2048 1.327 . S
C2046 H2071 0.950 . S
C2047 C2046 1.349 . S
C2047 C2063 1.349 . S
C2048 C2046 1.327 . S
C2048 C2067 1.429 . S
C2048 H2072 0.950 . S
C2049 C2066 1.574 . S
C2049 C2068 1.368 . S
C2049 H2073 0.949 . S
H2050 C2054 0.949 . S
C2051 C2052 1.349 . S
C2051 C2053 1.327 . S
C2051 H2074 0.950 . S
C2052 C2051 1.349 . S
C2052 C2064 1.349 . S
C2053 C2051 1.327 . S
C2053 C2069 1.429 . S
C2053 H2075 0.950 . S
C2054 H2050 0.949 . S
C2054 C2062 1.574 . S
C2054 C2070 1.368 . S
H2055 C2063 0.950 . S
H2056 C2061 0.950 . S
H2057 C2062 0.949 . S
H2058 C2064 0.950 . S
H2059 C2065 0.950 . S
H2060 C2066 0.949 . S
C2061 H2056 0.950 . S
C2061 C2063 1.327 . S
C2061 C2067 1.429 . S
C2062 C2054 1.574 . S
C2062 H2057 0.949 . S
C2062 C2068 1.368 . S
C2063 C2047 1.349 . S
C2063 H2055 0.950 . S
C2063 C2061 1.327 . S
C2064 C2052 1.349 . S
C2064 H2058 0.950 . S
C2064 C2065 1.327 . S
C2065 H2059 0.950 . S
C2065 C2064 1.327 . S
C2065 C2069 1.429 . S
C2066 C2049 1.574 . S
C2066 H2060 0.949 . S
C2066 C2070 1.368 . S
C2067 C2048 1.429 . S
C2067 C2061 1.429 . S
C2067 C2068 1.523 . S
C2068 C2049 1.368 . S
C2068 C2062 1.368 . S
C2068 C2067 1.523 . S
C2069 C2053 1.429 . S
C2069 C2065 1.429 . S
C2069 C2070 1.523 . S
C2070 C2054 1.368 . S
C2070 C2066 1.368 . S
C2070 C2069 1.523 . S
H2071 C2046 0.950 . S
H2072 C2048 0.950 . S
H2073 C2049 0.949 . S
H2074 C2051 0.950 . S
H2075 C2053 0.950 . S
C2076 C2077 1.349 . S
C2076 C2078 1.327 . S
C2076 H2101 0.950 . S
C2077 C2076 1.349 . S
C2077 C2093 1.349 . S
C2078 C2076 1.327 . S
C2078 C2097 1.429 . S
C2078 H2102 0.950 . S
C2079 C2096 1.574 . S
C2079 C2098 1.368 . S
C2079 H2103 0.949 . S
H2080 C2084 0.949 . S
C2081 C2082 1.349 . S
C2081 C2083 1.327 . S
C2081 H2104 0.950 . S
C2082 C2081 1.349 . S
C2082 C2094 1.349 . S
C2083 C2081 1.327 . S
C2083 C2099 1.429 . S
C2083 H2105 0.950 . S
C2084 H2080 0.949 . S
C2084 C2092 1.574 . S
C2084 C2100 1.368 . S
H2085 C2093 0.950 . S
H2086 C2091 0.950 . S
H2087 C2092 0.949 . S
H2088 C2094 0.950 . S
H2089 C2095 0.950 . S
H2090 C2096 0.949 . S
C2091 H2086 0.950 . S
C2091 C2093 1.327 . S
C2091 C2097 1.429 . S
C2092 C2084 1.574 . S
C2092 H2087 0.949 . S
C2092 C2098 1.368 . S
C2093 C2077 1.349 . S
C2093 H2085 0.950 . S
C2093 C2091 1.327 . S
C2094 C2082 1.349 . S
C2094 H2088 0.950 . S
C2094 C2095 1.327 . S
C2095 H2089 0.950 . S
C2095 C2094 1.327 . S
C2095 C2099 1.429 . S
C2096 C2079 1.574 . S
C2096 H2090 0.949 . S
C2096 C2100 1.368 . S
C2097 C2078 1.429 . S
C2097 C2091 1.429 . S
C2097 C2098 1.523 . S
C2098 C2079 1.368 . S
C2098 C2092 1.368 . S
C2098 C2097 1.523 . S
C2099 C2083 1.429 . S
C2099 C2095 1.429 . S
C2099 C2100 1.523 . S
C2100 C2084 1.368 . S
C2100 C2096 1.368 . S
C2100 C2099 1.523 . S
H2101 C2076 0.950 . S
H2102 C2078 0.950 . S
H2103 C2079 0.949 . S
H2104 C2081 0.950 . S
H2105 C2083 0.950 . S
C2106 C2107 1.349 . S
C2106 C2108 1.327 . S
C2106 H2131 0.950 . S
C2107 C2106 1.349 . S
C2107 C2123 1.349 . S
C2108 C2106 1.327 . S
C2108 C2127 1.429 . S
C2108 H2132 0.950 . S
C2109 C2126 1.574 . S
C2109 C2128 1.368 . S
C2109 H2133 0.949 . S
H2110 C2114 0.949 . S
C2111 C2112 1.349 . S
C2111 C2113 1.327 . S
C2111 H2134 0.950 . S
C2112 C2111 1.349 . S
C2112 C2124 1.349 . S
C2113 C2111 1.327 . S
C2113 C2129 1.429 . S
C2113 H2135 0.950 . S
C2114 H2110 0.949 . S
C2114 C2122 1.574 . S
C2114 C2130 1.368 . S
H2115 C2123 0.950 . S
H2116 C2121 0.950 . S
H2117 C2122 0.949 . S
H2118 C2124 0.950 . S
H2119 C2125 0.950 . S
H2120 C2126 0.949 . S
C2121 H2116 0.950 . S
C2121 C2123 1.327 . S
C2121 C2127 1.429 . S
C2122 C2114 1.574 . S
C2122 H2117 0.949 . S
C2122 C2128 1.368 . S
C2123 C2107 1.349 . S
C2123 H2115 0.950 . S
C2123 C2121 1.327 . S
C2124 C2112 1.349 . S
C2124 H2118 0.950 . S
C2124 C2125 1.327 . S
C2125 H2119 0.950 . S
C2125 C2124 1.327 . S
C2125 C2129 1.429 . S
C2126 C2109 1.574 . S
C2126 H2120 0.949 . S
C2126 C2130 1.368 . S
C2127 C2108 1.429 . S
C2127 C2121 1.429 . S
C2127 C2128 1.523 . S
C2128 C2109 1.368 . S
C2128 C2122 1.368 . S
C2128 C2127 1.523 . S
C2129 C2113 1.429 . S
C2129 C2125 1.429 . S
C2129 C2130 1.523 . S
C2130 C2114 1.368 . S
C2130 C2126 1.368 . S
C2130 C2129 1.523 . S
H2131 C2106 0.950 . S
H2132 C2108 0.950 . S
H2133 C2109 0.949 . S
H2134 C2111 0.950 . S
H2135 C2113 0.950 . S
C2136 C2137 1.349 . S
C2136 C2138 1.327 . S
C2136 H2161 0.950 . S
C2137 C2136 1.349 . S
C2137 C2153 1.349 . S
C2138 C2136 1.327 . S
C2138 C2157 1.429 . S
C2138 H2162 0.950 . S
C2139 C2156 1.574 . S
C2139 C2158 1.368 . S
C2139 H2163 0.949 . S
H2140 C2144 0.949 . S
C2141 C2142 1.349 . S
C2141 C2143 1.327 . S
C2141 H2164 0.950 . S
C2142 C2141 1.349 . S
C2142 C2154 1.349 . S
C2143 C2141 1.327 . S
C2143 C2159 1.429 . S
C2143 H2165 0.950 . S
C2144 H2140 0.949 . S
C2144 C2152 1.574 . S
C2144 C2160 1.368 . S
H2145 C2153 0.950 . S
H2146 C2151 0.950 . S
H2147 C2152 0.949 . S
H2148 C2154 0.950 . S
H2149 C2155 0.950 . S
H2150 C2156 0.949 . S
C2151 H2146 0.950 . S
C2151 C2153 1.327 . S
C2151 C2157 1.429 . S
C2152 C2144 1.574 . S
C2152 H2147 0.949 . S
C2152 C2158 1.368 . S
C2153 C2137 1.349 . S
C2153 H2145 0.950 . S
C2153 C2151 1.327 . S
C2154 C2142 1.349 . S
C2154 H2148 0.950 . S
C2154 C2155 1.327 . S
C2155 H2149 0.950 . S
C2155 C2154 1.327 . S
C2155 C2159 1.429 . S
C2156 C2139 1.574 . S
C2156 H2150 0.949 . S
C2156 C2160 1.368 . S
C2157 C2138 1.429 . S
C2157 C2151 1.429 . S
C2157 C2158 1.523 . S
C2158 C2139 1.368 . S
C2158 C2152 1.368 . S
C2158 C2157 1.523 . S
C2159 C2143 1.429 . S
C2159 C2155 1.429 . S
C2159 C2160 1.523 . S
C2160 C2144 1.368 . S
C2160 C2156 1.368 . S
C2160 C2159 1.523 . S
H2161 C2136 0.950 . S
H2162 C2138 0.950 . S
H2163 C2139 0.949 . S
H2164 C2141 0.950 . S
H2165 C2143 0.950 . S
C2166 C2167 1.349 . S
C2166 C2168 1.327 . S
C2166 H2191 0.950 . S
C2167 C2166 1.349 . S
C2167 C2183 1.349 . S
C2168 C2166 1.327 . S
C2168 C2187 1.429 . S
C2168 H2192 0.950 . S
C2169 C2186 1.574 . S
C2169 C2188 1.368 . S
C2169 H2193 0.949 . S
H2170 C2174 0.949 . S
C2171 C2172 1.349 . S
C2171 C2173 1.327 . S
C2171 H2194 0.950 . S
C2172 C2171 1.349 . S
C2172 C2184 1.349 . S
C2173 C2171 1.327 . S
C2173 C2189 1.429 . S
C2173 H2195 0.950 . S
C2174 H2170 0.949 . S
C2174 C2182 1.574 . S
C2174 C2190 1.368 . S
H2175 C2183 0.950 . S
H2176 C2181 0.950 . S
H2177 C2182 0.949 . S
H2178 C2184 0.950 . S
H2179 C2185 0.950 . S
H2180 C2186 0.949 . S
C2181 H2176 0.950 . S
C2181 C2183 1.327 . S
C2181 C2187 1.429 . S
C2182 C2174 1.574 . S
C2182 H2177 0.949 . S
C2182 C2188 1.368 . S
C2183 C2167 1.349 . S
C2183 H2175 0.950 . S
C2183 C2181 1.327 . S
C2184 C2172 1.349 . S
C2184 H2178 0.950 . S
C2184 C2185 1.327 . S
C2185 H2179 0.950 . S
C2185 C2184 1.327 . S
C2185 C2189 1.429 . S
C2186 C2169 1.574 . S
C2186 H2180 0.949 . S
C2186 C2190 1.368 . S
C2187 C2168 1.429 . S
C2187 C2181 1.429 . S
C2187 C2188 1.523 . S
C2188 C2169 1.368 . S
C2188 C2182 1.368 . S
C2188 C2187 1.523 . S
C2189 C2173 1.429 . S
C2189 C2185 1.429 . S
C2189 C2190 1.523 . S
C2190 C2174 1.368 . S
C2190 C2186 1.368 . S
C2190 C2189 1.523 . S
H2191 C2166 0.950 . S
H2192 C2168 0.950 . S
H2193 C2169 0.949 . S
H2194 C2171 0.950 . S
H2195 C2173 0.950 . S
C2196 C2197 1.349 . S
C2196 C2198 1.327 . S
C2196 H2221 0.950 . S
C2197 C2196 1.349 . S
C2197 C2213 1.349 . S
C2198 C2196 1.327 . S
C2198 C2217 1.429 . S
C2198 H2222 0.950 . S
C2199 C2216 1.574 . S
C2199 C2218 1.368 . S
C2199 H2223 0.949 . S
H2200 C2204 0.949 . S
C2201 C2202 1.349 . S
C2201 C2203 1.327 . S
C2201 H2224 0.950 . S
C2202 C2201 1.349 . S
C2202 C2214 1.349 . S
C2203 C2201 1.327 . S
C2203 C2219 1.429 . S
C2203 H2225 0.950 . S
C2204 H2200 0.949 . S
C2204 C2212 1.574 . S
C2204 C2220 1.368 . S
H2205 C2213 0.950 . S
H2206 C2211 0.950 . S
H2207 C2212 0.949 . S
H2208 C2214 0.950 . S
H2209 C2215 0.950 . S
H2210 C2216 0.949 . S
C2211 H2206 0.950 . S
C2211 C2213 1.327 . S
C2211 C2217 1.429 . S
C2212 C2204 1.574 . S
C2212 H2207 0.949 . S
C2212 C2218 1.368 . S
C2213 C2197 1.349 . S
C2213 H2205 0.950 . S
C2213 C2211 1.327 . S
C2214 C2202 1.349 . S
C2214 H2208 0.950 . S
C2214 C2215 1.327 . S
C2215 H2209 0.950 . S
C2215 C2214 1.327 . S
C2215 C2219 1.429 . S
C2216 C2199 1.574 . S
C2216 H2210 0.949 . S
C2216 C2220 1.368 . S
C2217 C2198 1.429 . S
C2217 C2211 1.429 . S
C2217 C2218 1.523 . S
C2218 C2199 1.368 . S
C2218 C2212 1.368 . S
C2218 C2217 1.523 . S
C2219 C2203 1.429 . S
C2219 C2215 1.429 . S
C2219 C2220 1.523 . S
C2220 C2204 1.368 . S
C2220 C2216 1.368 . S
C2220 C2219 1.523 . S
H2221 C2196 0.950 . S
H2222 C2198 0.950 . S
H2223 C2199 0.949 . S
H2224 C2201 0.950 . S
H2225 C2203 0.950 . S
C2226 C2227 1.349 . S
C2226 C2228 1.327 . S
C2226 H2251 0.950 . S
C2227 C2226 1.349 . S
C2227 C2243 1.349 . S
C2228 C2226 1.327 . S
C2228 C2247 1.429 . S
C2228 H2252 0.950 . S
C2229 C2246 1.574 . S
C2229 C2248 1.368 . S
C2229 H2253 0.949 . S
H2230 C2234 0.949 . S
C2231 C2232 1.349 . S
C2231 C2233 1.327 . S
C2231 H2254 0.950 . S
C2232 C2231 1.349 . S
C2232 C2244 1.349 . S
C2233 C2231 1.327 . S
C2233 C2249 1.429 . S
C2233 H2255 0.950 . S
C2234 H2230 0.949 . S
C2234 C2242 1.574 . S
C2234 C2250 1.368 . S
H2235 C2243 0.950 . S
H2236 C2241 0.950 . S
H2237 C2242 0.949 . S
H2238 C2244 0.950 . S
H2239 C2245 0.950 . S
H2240 C2246 0.949 . S
C2241 H2236 0.950 . S
C2241 C2243 1.327 . S
C2241 C2247 1.429 . S
C2242 C2234 1.574 . S
C2242 H2237 0.949 . S
C2242 C2248 1.368 . S
C2243 C2227 1.349 . S
C2243 H2235 0.950 . S
C2243 C2241 1.327 . S
C2244 C2232 1.349 . S
C2244 H2238 0.950 . S
C2244 C2245 1.327 . S
C2245 H2239 0.950 . S
C2245 C2244 1.327 . S
C2245 C2249 1.429 . S
C2246 C2229 1.574 . S
C2246 H2240 0.949 . S
C2246 C2250 1.368 . S
C2247 C2228 1.429 . S
C2247 C2241 1.429 . S
C2247 C2248 1.523 . S
C2248 C2229 1.368 . S
C2248 C2242 1.368 . S
C2248 C2247 1.523 . S
C2249 C2233 1.429 . S
C2249 C2245 1.429 . S
C2249 C2250 1.523 . S
C2250 C2234 1.368 . S
C2250 C2246 1.368 . S
C2250 C2249 1.523 . S
H2251 C2226 0.950 . S
H2252 C2228 0.950 . S
H2253 C2229 0.949 . S
H2254 C2231 0.950 . S
H2255 C2233 0.950 . S
C2256 C2257 1.349 . S
C2256 C2258 1.327 . S
C2256 H2281 0.950 . S
C2257 C2256 1.349 . S
C2257 C2273 1.349 . S
C2258 C2256 1.327 . S
C2258 C2277 1.429 . S
C2258 H2282 0.950 . S
C2259 C2276 1.574 . S
C2259 C2278 1.368 . S
C2259 H2283 0.949 . S
H2260 C2264 0.949 . S
C2261 C2262 1.349 . S
C2261 C2263 1.327 . S
C2261 H2284 0.950 . S
C2262 C2261 1.349 . S
C2262 C2274 1.349 . S
C2263 C2261 1.327 . S
C2263 C2279 1.429 . S
C2263 H2285 0.950 . S
C2264 H2260 0.949 . S
C2264 C2272 1.574 . S
C2264 C2280 1.368 . S
H2265 C2273 0.950 . S
H2266 C2271 0.950 . S
H2267 C2272 0.949 . S
H2268 C2274 0.950 . S
H2269 C2275 0.950 . S
H2270 C2276 0.949 . S
C2271 H2266 0.950 . S
C2271 C2273 1.327 . S
C2271 C2277 1.429 . S
C2272 C2264 1.574 . S
C2272 H2267 0.949 . S
C2272 C2278 1.368 . S
C2273 C2257 1.349 . S
C2273 H2265 0.950 . S
C2273 C2271 1.327 . S
C2274 C2262 1.349 . S
C2274 H2268 0.950 . S
C2274 C2275 1.327 . S
C2275 H2269 0.950 . S
C2275 C2274 1.327 . S
C2275 C2279 1.429 . S
C2276 C2259 1.574 . S
C2276 H2270 0.949 . S
C2276 C2280 1.368 . S
C2277 C2258 1.429 . S
C2277 C2271 1.429 . S
C2277 C2278 1.523 . S
C2278 C2259 1.368 . S
C2278 C2272 1.368 . S
C2278 C2277 1.523 . S
C2279 C2263 1.429 . S
C2279 C2275 1.429 . S
C2279 C2280 1.523 . S
C2280 C2264 1.368 . S
C2280 C2276 1.368 . S
C2280 C2279 1.523 . S
H2281 C2256 0.950 . S
H2282 C2258 0.950 . S
H2283 C2259 0.949 . S
H2284 C2261 0.950 . S
H2285 C2263 0.950 . S
C2286 C2287 1.349 . S
C2286 C2288 1.327 . S
C2286 H2311 0.950 . S
C2287 C2286 1.349 . S
C2287 C2303 1.349 . S
C2288 C2286 1.327 . S
C2288 C2307 1.429 . S
C2288 H2312 0.950 . S
C2289 C2306 1.574 . S
C2289 C2308 1.368 . S
C2289 H2313 0.949 . S
H2290 C2294 0.949 . S
C2291 C2292 1.349 . S
C2291 C2293 1.327 . S
C2291 H2314 0.950 . S
C2292 C2291 1.349 . S
C2292 C2304 1.349 . S
C2293 C2291 1.327 . S
C2293 C2309 1.429 . S
C2293 H2315 0.950 . S
C2294 H2290 0.949 . S
C2294 C2302 1.574 . S
C2294 C2310 1.368 . S
H2295 C2303 0.950 . S
H2296 C2301 0.950 . S
H2297 C2302 0.949 . S
H2298 C2304 0.950 . S
H2299 C2305 0.950 . S
H2300 C2306 0.949 . S
C2301 H2296 0.950 . S
C2301 C2303 1.327 . S
C2301 C2307 1.429 . S
C2302 C2294 1.574 . S
C2302 H2297 0.949 . S
C2302 C2308 1.368 . S
C2303 C2287 1.349 . S
C2303 H2295 0.950 . S
C2303 C2301 1.327 . S
C2304 C2292 1.349 . S
C2304 H2298 0.950 . S
C2304 C2305 1.327 . S
C2305 H2299 0.950 . S
C2305 C2304 1.327 . S
C2305 C2309 1.429 . S
C2306 C2289 1.574 . S
C2306 H2300 0.949 . S
C2306 C2310 1.368 . S
C2307 C2288 1.429 . S
C2307 C2301 1.429 . S
C2307 C2308 1.523 . S
C2308 C2289 1.368 . S
C2308 C2302 1.368 . S
C2308 C2307 1.523 . S
C2309 C2293 1.429 . S
C2309 C2305 1.429 . S
C2309 C2310 1.523 . S
C2310 C2294 1.368 . S
C2310 C2306 1.368 . S
C2310 C2309 1.523 . S
H2311 C2286 0.950 . S
H2312 C2288 0.950 . S
H2313 C2289 0.949 . S
H2314 C2291 0.950 . S
H2315 C2293 0.950 . S
C2316 C2317 1.349 . S
C2316 C2318 1.327 . S
C2316 H2341 0.950 . S
C2317 C2316 1.349 . S
C2317 C2333 1.349 . S
C2318 C2316 1.327 . S
C2318 C2337 1.429 . S
C2318 H2342 0.950 . S
C2319 C2336 1.574 . S
C2319 C2338 1.368 . S
C2319 H2343 0.949 . S
H2320 C2324 0.949 . S
C2321 C2322 1.349 . S
C2321 C2323 1.327 . S
C2321 H2344 0.950 . S
C2322 C2321 1.349 . S
C2322 C2334 1.349 . S
C2323 C2321 1.327 . S
C2323 C2339 1.429 . S
C2323 H2345 0.950 . S
C2324 H2320 0.949 . S
C2324 C2332 1.574 . S
C2324 C2340 1.368 . S
H2325 C2333 0.950 . S
H2326 C2331 0.950 . S
H2327 C2332 0.949 . S
H2328 C2334 0.950 . S
H2329 C2335 0.950 . S
H2330 C2336 0.949 . S
C2331 H2326 0.950 . S
C2331 C2333 1.327 . S
C2331 C2337 1.429 . S
C2332 C2324 1.574 . S
C2332 H2327 0.949 . S
C2332 C2338 1.368 . S
C2333 C2317 1.349 . S
C2333 H2325 0.950 . S
C2333 C2331 1.327 . S
C2334 C2322 1.349 . S
C2334 H2328 0.950 . S
C2334 C2335 1.327 . S
C2335 H2329 0.950 . S
C2335 C2334 1.327 . S
C2335 C2339 1.429 . S
C2336 C2319 1.574 . S
C2336 H2330 0.949 . S
C2336 C2340 1.368 . S
C2337 C2318 1.429 . S
C2337 C2331 1.429 . S
C2337 C2338 1.523 . S
C2338 C2319 1.368 . S
C2338 C2332 1.368 . S
C2338 C2337 1.523 . S
C2339 C2323 1.429 . S
C2339 C2335 1.429 . S
C2339 C2340 1.523 . S
C2340 C2324 1.368 . S
C2340 C2336 1.368 . S
C2340 C2339 1.523 . S
H2341 C2316 0.950 . S
H2342 C2318 0.950 . S
H2343 C2319 0.949 . S
H2344 C2321 0.950 . S
H2345 C2323 0.950 . S
C2346 C2347 1.349 . S
C2346 C2348 1.327 . S
C2346 H2371 0.950 . S
C2347 C2346 1.349 . S
C2347 C2363 1.349 . S
C2348 C2346 1.327 . S
C2348 C2367 1.429 . S
C2348 H2372 0.950 . S
C2349 C2366 1.574 . S
C2349 C2368 1.368 . S
C2349 H2373 0.949 . S
H2350 C2354 0.949 . S
C2351 C2352 1.349 . S
C2351 C2353 1.327 . S
C2351 H2374 0.950 . S
C2352 C2351 1.349 . S
C2352 C2364 1.349 . S
C2353 C2351 1.327 . S
C2353 C2369 1.429 . S
C2353 H2375 0.950 . S
C2354 H2350 0.949 . S
C2354 C2362 1.574 . S
C2354 C2370 1.368 . S
H2355 C2363 0.950 . S
H2356 C2361 0.950 . S
H2357 C2362 0.949 . S
H2358 C2364 0.950 . S
H2359 C2365 0.950 . S
H2360 C2366 0.949 . S
C2361 H2356 0.950 . S
C2361 C2363 1.327 . S
C2361 C2367 1.429 . S
C2362 C2354 1.574 . S
C2362 H2357 0.949 . S
C2362 C2368 1.368 . S
C2363 C2347 1.349 . S
C2363 H2355 0.950 . S
C2363 C2361 1.327 . S
C2364 C2352 1.349 . S
C2364 H2358 0.950 . S
C2364 C2365 1.327 . S
C2365 H2359 0.950 . S
C2365 C2364 1.327 . S
C2365 C2369 1.429 . S
C2366 C2349 1.574 . S
C2366 H2360 0.949 . S
C2366 C2370 1.368 . S
C2367 C2348 1.429 . S
C2367 C2361 1.429 . S
C2367 C2368 1.523 . S
C2368 C2349 1.368 . S
C2368 C2362 1.368 . S
C2368 C2367 1.523 . S
C2369 C2353 1.429 . S
C2369 C2365 1.429 . S
C2369 C2370 1.523 . S
C2370 C2354 1.368 . S
C2370 C2366 1.368 . S
C2370 C2369 1.523 . S
H2371 C2346 0.950 . S
H2372 C2348 0.950 . S
H2373 C2349 0.949 . S
H2374 C2351 0.950 . S
H2375 C2353 0.950 . S
C2376 C2377 1.349 . S
C2376 C2378 1.327 . S
C2376 H2401 0.950 . S
C2377 C2376 1.349 . S
C2377 C2393 1.349 . S
C2378 C2376 1.327 . S
C2378 C2397 1.429 . S
C2378 H2402 0.950 . S
C2379 C2396 1.574 . S
C2379 C2398 1.368 . S
C2379 H2403 0.949 . S
H2380 C2384 0.949 . S
C2381 C2382 1.349 . S
C2381 C2383 1.327 . S
C2381 H2404 0.950 . S
C2382 C2381 1.349 . S
C2382 C2394 1.349 . S
C2383 C2381 1.327 . S
C2383 C2399 1.429 . S
C2383 H2405 0.950 . S
C2384 H2380 0.949 . S
C2384 C2392 1.574 . S
C2384 C2400 1.368 . S
H2385 C2393 0.950 . S
H2386 C2391 0.950 . S
H2387 C2392 0.949 . S
H2388 C2394 0.950 . S
H2389 C2395 0.950 . S
H2390 C2396 0.949 . S
C2391 H2386 0.950 . S
C2391 C2393 1.327 . S
C2391 C2397 1.429 . S
C2392 C2384 1.574 . S
C2392 H2387 0.949 . S
C2392 C2398 1.368 . S
C2393 C2377 1.349 . S
C2393 H2385 0.950 . S
C2393 C2391 1.327 . S
C2394 C2382 1.349 . S
C2394 H2388 0.950 . S
C2394 C2395 1.327 . S
C2395 H2389 0.950 . S
C2395 C2394 1.327 . S
C2395 C2399 1.429 . S
C2396 C2379 1.574 . S
C2396 H2390 0.949 . S
C2396 C2400 1.368 . S
C2397 C2378 1.429 . S
C2397 C2391 1.429 . S
C2397 C2398 1.523 . S
C2398 C2379 1.368 . S
C2398 C2392 1.368 . S
C2398 C2397 1.523 . S
C2399 C2383 1.429 . S
C2399 C2395 1.429 . S
C2399 C2400 1.523 . S
C2400 C2384 1.368 . S
C2400 C2396 1.368 . S
C2400 C2399 1.523 . S
H2401 C2376 0.950 . S
H2402 C2378 0.950 . S
H2403 C2379 0.949 . S
H2404 C2381 0.950 . S
H2405 C2383 0.950 . S
C2406 C2407 1.349 . S
C2406 C2408 1.327 . S
C2406 H2431 0.950 . S
C2407 C2406 1.349 . S
C2407 C2423 1.349 . S
C2408 C2406 1.327 . S
C2408 C2427 1.429 . S
C2408 H2432 0.950 . S
C2409 C2426 1.574 . S
C2409 C2428 1.368 . S
C2409 H2433 0.949 . S
H2410 C2414 0.949 . S
C2411 C2412 1.349 . S
C2411 C2413 1.327 . S
C2411 H2434 0.950 . S
C2412 C2411 1.349 . S
C2412 C2424 1.349 . S
C2413 C2411 1.327 . S
C2413 C2429 1.429 . S
C2413 H2435 0.950 . S
C2414 H2410 0.949 . S
C2414 C2422 1.574 . S
C2414 C2430 1.368 . S
H2415 C2423 0.950 . S
H2416 C2421 0.950 . S
H2417 C2422 0.949 . S
H2418 C2424 0.950 . S
H2419 C2425 0.950 . S
H2420 C2426 0.949 . S
C2421 H2416 0.950 . S
C2421 C2423 1.327 . S
C2421 C2427 1.429 . S
C2422 C2414 1.574 . S
C2422 H2417 0.949 . S
C2422 C2428 1.368 . S
C2423 C2407 1.349 . S
C2423 H2415 0.950 . S
C2423 C2421 1.327 . S
C2424 C2412 1.349 . S
C2424 H2418 0.950 . S
C2424 C2425 1.327 . S
C2425 H2419 0.950 . S
C2425 C2424 1.327 . S
C2425 C2429 1.429 . S
C2426 C2409 1.574 . S
C2426 H2420 0.949 . S
C2426 C2430 1.368 . S
C2427 C2408 1.429 . S
C2427 C2421 1.429 . S
C2427 C2428 1.523 . S
C2428 C2409 1.368 . S
C2428 C2422 1.368 . S
C2428 C2427 1.523 . S
C2429 C2413 1.429 . S
C2429 C2425 1.429 . S
C2429 C2430 1.523 . S
C2430 C2414 1.368 . S
C2430 C2426 1.368 . S
C2430 C2429 1.523 . S
H2431 C2406 0.950 . S
H2432 C2408 0.950 . S
H2433 C2409 0.949 . S
H2434 C2411 0.950 . S
H2435 C2413 0.950 . S
C2436 C2437 1.349 . S
C2436 C2438 1.327 . S
C2436 H2461 0.950 . S
C2437 C2436 1.349 . S
C2437 C2453 1.349 . S
C2438 C2436 1.327 . S
C2438 C2457 1.429 . S
C2438 H2462 0.950 . S
C2439 C2456 1.574 . S
C2439 C2458 1.368 . S
C2439 H2463 0.949 . S
H2440 C2444 0.949 . S
C2441 C2442 1.349 . S
C2441 C2443 1.327 . S
C2441 H2464 0.950 . S
C2442 C2441 1.349 . S
C2442 C2454 1.349 . S
C2443 C2441 1.327 . S
C2443 C2459 1.429 . S
C2443 H2465 0.950 . S
C2444 H2440 0.949 . S
C2444 C2452 1.574 . S
C2444 C2460 1.368 . S
H2445 C2453 0.950 . S
H2446 C2451 0.950 . S
H2447 C2452 0.949 . S
H2448 C2454 0.950 . S
H2449 C2455 0.950 . S
H2450 C2456 0.949 . S
C2451 H2446 0.950 . S
C2451 C2453 1.327 . S
C2451 C2457 1.429 . S
C2452 C2444 1.574 . S
C2452 H2447 0.949 . S
C2452 C2458 1.368 . S
C2453 C2437 1.349 . S
C2453 H2445 0.950 . S
C2453 C2451 1.327 . S
C2454 C2442 1.349 . S
C2454 H2448 0.950 . S
C2454 C2455 1.327 . S
C2455 H2449 0.950 . S
C2455 C2454 1.327 . S
C2455 C2459 1.429 . S
C2456 C2439 1.574 . S
C2456 H2450 0.949 . S
C2456 C2460 1.368 . S
C2457 C2438 1.429 . S
C2457 C2451 1.429 . S
C2457 C2458 1.523 . S
C2458 C2439 1.368 . S
C2458 C2452 1.368 . S
C2458 C2457 1.523 . S
C2459 C2443 1.429 . S
C2459 C2455 1.429 . S
C2459 C2460 1.523 . S
C2460 C2444 1.368 . S
C2460 C2456 1.368 . S
C2460 C2459 1.523 . S
H2461 C2436 0.950 . S
H2462 C2438 0.950 . S
H2463 C2439 0.949 . S
H2464 C2441 0.950 . S
H2465 C2443 0.950 . S
C2466 C2467 1.349 . S
C2466 C2468 1.327 . S
C2466 H2491 0.950 . S
C2467 C2466 1.349 . S
C2467 C2483 1.349 . S
C2468 C2466 1.327 . S
C2468 C2487 1.429 . S
C2468 H2492 0.950 . S
C2469 C2486 1.574 . S
C2469 C2488 1.368 . S
C2469 H2493 0.949 . S
H2470 C2474 0.949 . S
C2471 C2472 1.349 . S
C2471 C2473 1.327 . S
C2471 H2494 0.950 . S
C2472 C2471 1.349 . S
C2472 C2484 1.349 . S
C2473 C2471 1.327 . S
C2473 C2489 1.429 . S
C2473 H2495 0.950 . S
C2474 H2470 0.949 . S
C2474 C2482 1.574 . S
C2474 C2490 1.368 . S
H2475 C2483 0.950 . S
H2476 C2481 0.950 . S
H2477 C2482 0.949 . S
H2478 C2484 0.950 . S
H2479 C2485 0.950 . S
H2480 C2486 0.949 . S
C2481 H2476 0.950 . S
C2481 C2483 1.327 . S
C2481 C2487 1.429 . S
C2482 C2474 1.574 . S
C2482 H2477 0.949 . S
C2482 C2488 1.368 . S
C2483 C2467 1.349 . S
C2483 H2475 0.950 . S
C2483 C2481 1.327 . S
C2484 C2472 1.349 . S
C2484 H2478 0.950 . S
C2484 C2485 1.327 . S
C2485 H2479 0.950 . S
C2485 C2484 1.327 . S
C2485 C2489 1.429 . S
C2486 C2469 1.574 . S
C2486 H2480 0.949 . S
C2486 C2490 1.368 . S
C2487 C2468 1.429 . S
C2487 C2481 1.429 . S
C2487 C2488 1.523 . S
C2488 C2469 1.368 . S
C2488 C2482 1.368 . S
C2488 C2487 1.523 . S
C2489 C2473 1.429 . S
C2489 C2485 1.429 . S
C2489 C2490 1.523 . S
C2490 C2474 1.368 . S
C2490 C2486 1.368 . S
C2490 C2489 1.523 . S
H2491 C2466 0.950 . S
H2492 C2468 0.950 . S
H2493 C2469 0.949 . S
H2494 C2471 0.950 . S
H2495 C2473 0.950 . S
C2496 C2497 1.349 . S
C2496 C2498 1.327 . S
C2496 H2521 0.950 . S
C2497 C2496 1.349 . S
C2497 C2513 1.349 . S
C2498 C2496 1.327 . S
C2498 C2517 1.429 . S
C2498 H2522 0.950 . S
C2499 C2516 1.574 . S
C2499 C2518 1.368 . S
C2499 H2523 0.949 . S
H2500 C2504 0.949 . S
C2501 C2502 1.349 . S
C2501 C2503 1.327 . S
C2501 H2524 0.950 . S
C2502 C2501 1.349 . S
C2502 C2514 1.349 . S
C2503 C2501 1.327 . S
C2503 C2519 1.429 . S
C2503 H2525 0.950 . S
C2504 H2500 0.949 . S
C2504 C2512 1.574 . S
C2504 C2520 1.368 . S
H2505 C2513 0.950 . S
H2506 C2511 0.950 . S
H2507 C2512 0.949 . S
H2508 C2514 0.950 . S
H2509 C2515 0.950 . S
H2510 C2516 0.949 . S
C2511 H2506 0.950 . S
C2511 C2513 1.327 . S
C2511 C2517 1.429 . S
C2512 C2504 1.574 . S
C2512 H2507 0.949 . S
C2512 C2518 1.368 . S
C2513 C2497 1.349 . S
C2513 H2505 0.950 . S
C2513 C2511 1.327 . S
C2514 C2502 1.349 . S
C2514 H2508 0.950 . S
C2514 C2515 1.327 . S
C2515 H2509 0.950 . S
C2515 C2514 1.327 . S
C2515 C2519 1.429 . S
C2516 C2499 1.574 . S
C2516 H2510 0.949 . S
C2516 C2520 1.368 . S
C2517 C2498 1.429 . S
C2517 C2511 1.429 . S
C2517 C2518 1.523 . S
C2518 C2499 1.368 . S
C2518 C2512 1.368 . S
C2518 C2517 1.523 . S
C2519 C2503 1.429 . S
C2519 C2515 1.429 . S
C2519 C2520 1.523 . S
C2520 C2504 1.368 . S
C2520 C2516 1.368 . S
C2520 C2519 1.523 . S
H2521 C2496 0.950 . S
H2522 C2498 0.950 . S
H2523 C2499 0.949 . S
H2524 C2501 0.950 . S
H2525 C2503 0.950 . S
C2526 C2527 1.349 . S
C2526 C2528 1.327 . S
C2526 H2551 0.950 . S
C2527 C2526 1.349 . S
C2527 C2543 1.349 . S
C2528 C2526 1.327 . S
C2528 C2547 1.429 . S
C2528 H2552 0.950 . S
C2529 C2546 1.574 . S
C2529 C2548 1.368 . S
C2529 H2553 0.949 . S
H2530 C2534 0.949 . S
C2531 C2532 1.349 . S
C2531 C2533 1.327 . S
C2531 H2554 0.950 . S
C2532 C2531 1.349 . S
C2532 C2544 1.349 . S
C2533 C2531 1.327 . S
C2533 C2549 1.429 . S
C2533 H2555 0.950 . S
C2534 H2530 0.949 . S
C2534 C2542 1.574 . S
C2534 C2550 1.368 . S
H2535 C2543 0.950 . S
H2536 C2541 0.950 . S
H2537 C2542 0.949 . S
H2538 C2544 0.950 . S
H2539 C2545 0.950 . S
H2540 C2546 0.949 . S
C2541 H2536 0.950 . S
C2541 C2543 1.327 . S
C2541 C2547 1.429 . S
C2542 C2534 1.574 . S
C2542 H2537 0.949 . S
C2542 C2548 1.368 . S
C2543 C2527 1.349 . S
C2543 H2535 0.950 . S
C2543 C2541 1.327 . S
C2544 C2532 1.349 . S
C2544 H2538 0.950 . S
C2544 C2545 1.327 . S
C2545 H2539 0.950 . S
C2545 C2544 1.327 . S
C2545 C2549 1.429 . S
C2546 C2529 1.574 . S
C2546 H2540 0.949 . S
C2546 C2550 1.368 . S
C2547 C2528 1.429 . S
C2547 C2541 1.429 . S
C2547 C2548 1.523 . S
C2548 C2529 1.368 . S
C2548 C2542 1.368 . S
C2548 C2547 1.523 . S
C2549 C2533 1.429 . S
C2549 C2545 1.429 . S
C2549 C2550 1.523 . S
C2550 C2534 1.368 . S
C2550 C2546 1.368 . S
C2550 C2549 1.523 . S
H2551 C2526 0.950 . S
H2552 C2528 0.950 . S
H2553 C2529 0.949 . S
H2554 C2531 0.950 . S
H2555 C2533 0.950 . S
C2556 C2557 1.349 . S
C2556 C2558 1.327 . S
C2556 H2581 0.950 . S
C2557 C2556 1.349 . S
C2557 C2573 1.349 . S
C2558 C2556 1.327 . S
C2558 C2577 1.429 . S
C2558 H2582 0.950 . S
C2559 C2576 1.574 . S
C2559 C2578 1.368 . S
C2559 H2583 0.949 . S
H2560 C2564 0.949 . S
C2561 C2562 1.349 . S
C2561 C2563 1.327 . S
C2561 H2584 0.950 . S
C2562 C2561 1.349 . S
C2562 C2574 1.349 . S
C2563 C2561 1.327 . S
C2563 C2579 1.429 . S
C2563 H2585 0.950 . S
C2564 H2560 0.949 . S
C2564 C2572 1.574 . S
C2564 C2580 1.368 . S
H2565 C2573 0.950 . S
H2566 C2571 0.950 . S
H2567 C2572 0.949 . S
H2568 C2574 0.950 . S
H2569 C2575 0.950 . S
H2570 C2576 0.949 . S
C2571 H2566 0.950 . S
C2571 C2573 1.327 . S
C2571 C2577 1.429 . S
C2572 C2564 1.574 . S
C2572 H2567 0.949 . S
C2572 C2578 1.368 . S
C2573 C2557 1.349 . S
C2573 H2565 0.950 . S
C2573 C2571 1.327 . S
C2574 C2562 1.349 . S
C2574 H2568 0.950 . S
C2574 C2575 1.327 . S
C2575 H2569 0.950 . S
C2575 C2574 1.327 . S
C2575 C2579 1.429 . S
C2576 C2559 1.574 . S
C2576 H2570 0.949 . S
C2576 C2580 1.368 . S
C2577 C2558 1.429 . S
C2577 C2571 1.429 . S
C2577 C2578 1.523 . S
C2578 C2559 1.368 . S
C2578 C2572 1.368 . S
C2578 C2577 1.523 . S
C2579 C2563 1.429 . S
C2579 C2575 1.429 . S
C2579 C2580 1.523 . S
C2580 C2564 1.368 . S
C2580 C2576 1.368 . S
C2580 C2579 1.523 . S
H2581 C2556 0.950 . S
H2582 C2558 0.950 . S
H2583 C2559 0.949 . S
H2584 C2561 0.950 . S
H2585 C2563 0.950 . S
C2586 C2587 1.349 . S
C2586 C2588 1.327 . S
C2586 H2611 0.950 . S
C2587 C2586 1.349 . S
C2587 C2603 1.349 . S
C2588 C2586 1.327 . S
C2588 C2607 1.429 . S
C2588 H2612 0.950 . S
C2589 C2606 1.574 . S
C2589 C2608 1.368 . S
C2589 H2613 0.949 . S
H2590 C2594 0.949 . S
C2591 C2592 1.349 . S
C2591 C2593 1.327 . S
C2591 H2614 0.950 . S
C2592 C2591 1.349 . S
C2592 C2604 1.349 . S
C2593 C2591 1.327 . S
C2593 C2609 1.429 . S
C2593 H2615 0.950 . S
C2594 H2590 0.949 . S
C2594 C2602 1.574 . S
C2594 C2610 1.368 . S
H2595 C2603 0.950 . S
H2596 C2601 0.950 . S
H2597 C2602 0.949 . S
H2598 C2604 0.950 . S
H2599 C2605 0.950 . S
H2600 C2606 0.949 . S
C2601 H2596 0.950 . S
C2601 C2603 1.327 . S
C2601 C2607 1.429 . S
C2602 C2594 1.574 . S
C2602 H2597 0.949 . S
C2602 C2608 1.368 . S
C2603 C2587 1.349 . S
C2603 H2595 0.950 . S
C2603 C2601 1.327 . S
C2604 C2592 1.349 . S
C2604 H2598 0.950 . S
C2604 C2605 1.327 . S
C2605 H2599 0.950 . S
C2605 C2604 1.327 . S
C2605 C2609 1.429 . S
C2606 C2589 1.574 . S
C2606 H2600 0.949 . S
C2606 C2610 1.368 . S
C2607 C2588 1.429 . S
C2607 C2601 1.429 . S
C2607 C2608 1.523 . S
C2608 C2589 1.368 . S
C2608 C2602 1.368 . S
C2608 C2607 1.523 . S
C2609 C2593 1.429 . S
C2609 C2605 1.429 . S
C2609 C2610 1.523 . S
C2610 C2594 1.368 . S
C2610 C2606 1.368 . S
C2610 C2609 1.523 . S
H2611 C2586 0.950 . S
H2612 C2588 0.950 . S
H2613 C2589 0.949 . S
H2614 C2591 0.950 . S
H2615 C2593 0.950 . S
C2616 C2617 1.349 . S
C2616 C2618 1.327 . S
C2616 H2641 0.950 . S
C2617 C2616 1.349 . S
C2617 C2633 1.349 . S
C2618 C2616 1.327 . S
C2618 C2637 1.429 . S
C2618 H2642 0.950 . S
C2619 C2636 1.574 . S
C2619 C2638 1.368 . S
C2619 H2643 0.949 . S
H2620 C2624 0.949 . S
C2621 C2622 1.349 . S
C2621 C2623 1.327 . S
C2621 H2644 0.950 . S
C2622 C2621 1.349 . S
C2622 C2634 1.349 . S
C2623 C2621 1.327 . S
C2623 C2639 1.429 . S
C2623 H2645 0.950 . S
C2624 H2620 0.949 . S
C2624 C2632 1.574 . S
C2624 C2640 1.368 . S
H2625 C2633 0.950 . S
H2626 C2631 0.950 . S
H2627 C2632 0.949 . S
H2628 C2634 0.950 . S
H2629 C2635 0.950 . S
H2630 C2636 0.949 . S
C2631 H2626 0.950 . S
C2631 C2633 1.327 . S
C2631 C2637 1.429 . S
C2632 C2624 1.574 . S
C2632 H2627 0.949 . S
C2632 C2638 1.368 . S
C2633 C2617 1.349 . S
C2633 H2625 0.950 . S
C2633 C2631 1.327 . S
C2634 C2622 1.349 . S
C2634 H2628 0.950 . S
C2634 C2635 1.327 . S
C2635 H2629 0.950 . S
C2635 C2634 1.327 . S
C2635 C2639 1.429 . S
C2636 C2619 1.574 . S
C2636 H2630 0.949 . S
C2636 C2640 1.368 . S
C2637 C2618 1.429 . S
C2637 C2631 1.429 . S
C2637 C2638 1.523 . S
C2638 C2619 1.368 . S
C2638 C2632 1.368 . S
C2638 C2637 1.523 . S
C2639 C2623 1.429 . S
C2639 C2635 1.429 . S
C2639 C2640 1.523 . S
C2640 C2624 1.368 . S
C2640 C2636 1.368 . S
C2640 C2639 1.523 . S
H2641 C2616 0.950 . S
H2642 C2618 0.950 . S
H2643 C2619 0.949 . S
H2644 C2621 0.950 . S
H2645 C2623 0.950 . S
C2646 C2647 1.349 . S
C2646 C2648 1.327 . S
C2646 H2671 0.950 . S
C2647 C2646 1.349 . S
C2647 C2663 1.349 . S
C2648 C2646 1.327 . S
C2648 C2667 1.429 . S
C2648 H2672 0.950 . S
C2649 C2666 1.574 . S
C2649 C2668 1.368 . S
C2649 H2673 0.949 . S
H2650 C2654 0.949 . S
C2651 C2652 1.349 . S
C2651 C2653 1.327 . S
C2651 H2674 0.950 . S
C2652 C2651 1.349 . S
C2652 C2664 1.349 . S
C2653 C2651 1.327 . S
C2653 C2669 1.429 . S
C2653 H2675 0.950 . S
C2654 H2650 0.949 . S
C2654 C2662 1.574 . S
C2654 C2670 1.368 . S
H2655 C2663 0.950 . S
H2656 C2661 0.950 . S
H2657 C2662 0.949 . S
H2658 C2664 0.950 . S
H2659 C2665 0.950 . S
H2660 C2666 0.949 . S
C2661 H2656 0.950 . S
C2661 C2663 1.327 . S
C2661 C2667 1.429 . S
C2662 C2654 1.574 . S
C2662 H2657 0.949 . S
C2662 C2668 1.368 . S
C2663 C2647 1.349 . S
C2663 H2655 0.950 . S
C2663 C2661 1.327 . S
C2664 C2652 1.349 . S
C2664 H2658 0.950 . S
C2664 C2665 1.327 . S
C2665 H2659 0.950 . S
C2665 C2664 1.327 . S
C2665 C2669 1.429 . S
C2666 C2649 1.574 . S
C2666 H2660 0.949 . S
C2666 C2670 1.368 . S
C2667 C2648 1.429 . S
C2667 C2661 1.429 . S
C2667 C2668 1.523 . S
C2668 C2649 1.368 . S
C2668 C2662 1.368 . S
C2668 C2667 1.523 . S
C2669 C2653 1.429 . S
C2669 C2665 1.429 . S
C2669 C2670 1.523 . S
C2670 C2654 1.368 . S
C2670 C2666 1.368 . S
C2670 C2669 1.523 . S
H2671 C2646 0.950 . S
H2672 C2648 0.950 . S
H2673 C2649 0.949 . S
H2674 C2651 0.950 . S
H2675 C2653 0.950 . S
C2676 C2677 1.349 . S
C2676 C2678 1.327 . S
C2676 H2701 0.950 . S
C2677 C2676 1.349 . S
C2677 C2693 1.349 . S
C2678 C2676 1.327 . S
C2678 C2697 1.429 . S
C2678 H2702 0.950 . S
C2679 C2696 1.574 . S
C2679 C2698 1.368 . S
C2679 H2703 0.949 . S
H2680 C2684 0.949 . S
C2681 C2682 1.349 . S
C2681 C2683 1.327 . S
C2681 H2704 0.950 . S
C2682 C2681 1.349 . S
C2682 C2694 1.349 . S
C2683 C2681 1.327 . S
C2683 C2699 1.429 . S
C2683 H2705 0.950 . S
C2684 H2680 0.949 . S
C2684 C2692 1.574 . S
C2684 C2700 1.368 . S
H2685 C2693 0.950 . S
H2686 C2691 0.950 . S
H2687 C2692 0.949 . S
H2688 C2694 0.950 . S
H2689 C2695 0.950 . S
H2690 C2696 0.949 . S
C2691 H2686 0.950 . S
C2691 C2693 1.327 . S
C2691 C2697 1.429 . S
C2692 C2684 1.574 . S
C2692 H2687 0.949 . S
C2692 C2698 1.368 . S
C2693 C2677 1.349 . S
C2693 H2685 0.950 . S
C2693 C2691 1.327 . S
C2694 C2682 1.349 . S
C2694 H2688 0.950 . S
C2694 C2695 1.327 . S
C2695 H2689 0.950 . S
C2695 C2694 1.327 . S
C2695 C2699 1.429 . S
C2696 C2679 1.574 . S
C2696 H2690 0.949 . S
C2696 C2700 1.368 . S
C2697 C2678 1.429 . S
C2697 C2691 1.429 . S
C2697 C2698 1.523 . S
C2698 C2679 1.368 . S
C2698 C2692 1.368 . S
C2698 C2697 1.523 . S
C2699 C2683 1.429 . S
C2699 C2695 1.429 . S
C2699 C2700 1.523 . S
C2700 C2684 1.368 . S
C2700 C2696 1.368 . S
C2700 C2699 1.523 . S
H2701 C2676 0.950 . S
H2702 C2678 0.950 . S
H2703 C2679 0.949 . S
H2704 C2681 0.950 . S
H2705 C2683 0.950 . S
C2706 C2707 1.349 . S
C2706 C2708 1.327 . S
C2706 H2731 0.950 . S
C2707 C2706 1.349 . S
C2707 C2723 1.349 . S
C2708 C2706 1.327 . S
C2708 C2727 1.429 . S
C2708 H2732 0.950 . S
C2709 C2726 1.574 . S
C2709 C2728 1.368 . S
C2709 H2733 0.949 . S
H2710 C2714 0.949 . S
C2711 C2712 1.349 . S
C2711 C2713 1.327 . S
C2711 H2734 0.950 . S
C2712 C2711 1.349 . S
C2712 C2724 1.349 . S
C2713 C2711 1.327 . S
C2713 C2729 1.429 . S
C2713 H2735 0.950 . S
C2714 H2710 0.949 . S
C2714 C2722 1.574 . S
C2714 C2730 1.368 . S
H2715 C2723 0.950 . S
H2716 C2721 0.950 . S
H2717 C2722 0.949 . S
H2718 C2724 0.950 . S
H2719 C2725 0.950 . S
H2720 C2726 0.949 . S
C2721 H2716 0.950 . S
C2721 C2723 1.327 . S
C2721 C2727 1.429 . S
C2722 C2714 1.574 . S
C2722 H2717 0.949 . S
C2722 C2728 1.368 . S
C2723 C2707 1.349 . S
C2723 H2715 0.950 . S
C2723 C2721 1.327 . S
C2724 C2712 1.349 . S
C2724 H2718 0.950 . S
C2724 C2725 1.327 . S
C2725 H2719 0.950 . S
C2725 C2724 1.327 . S
C2725 C2729 1.429 . S
C2726 C2709 1.574 . S
C2726 H2720 0.949 . S
C2726 C2730 1.368 . S
C2727 C2708 1.429 . S
C2727 C2721 1.429 . S
C2727 C2728 1.523 . S
C2728 C2709 1.368 . S
C2728 C2722 1.368 . S
C2728 C2727 1.523 . S
C2729 C2713 1.429 . S
C2729 C2725 1.429 . S
C2729 C2730 1.523 . S
C2730 C2714 1.368 . S
C2730 C2726 1.368 . S
C2730 C2729 1.523 . S
H2731 C2706 0.950 . S
H2732 C2708 0.950 . S
H2733 C2709 0.949 . S
H2734 C2711 0.950 . S
H2735 C2713 0.950 . S
C2736 C2737 1.349 . S
C2736 C2738 1.327 . S
C2736 H2761 0.950 . S
C2737 C2736 1.349 . S
C2737 C2753 1.349 . S
C2738 C2736 1.327 . S
C2738 C2757 1.429 . S
C2738 H2762 0.950 . S
C2739 C2756 1.574 . S
C2739 C2758 1.368 . S
C2739 H2763 0.949 . S
H2740 C2744 0.949 . S
C2741 C2742 1.349 . S
C2741 C2743 1.327 . S
C2741 H2764 0.950 . S
C2742 C2741 1.349 . S
C2742 C2754 1.349 . S
C2743 C2741 1.327 . S
C2743 C2759 1.429 . S
C2743 H2765 0.950 . S
C2744 H2740 0.949 . S
C2744 C2752 1.574 . S
C2744 C2760 1.368 . S
H2745 C2753 0.950 . S
H2746 C2751 0.950 . S
H2747 C2752 0.949 . S
H2748 C2754 0.950 . S
H2749 C2755 0.950 . S
H2750 C2756 0.949 . S
C2751 H2746 0.950 . S
C2751 C2753 1.327 . S
C2751 C2757 1.429 . S
C2752 C2744 1.574 . S
C2752 H2747 0.949 . S
C2752 C2758 1.368 . S
C2753 C2737 1.349 . S
C2753 H2745 0.950 . S
C2753 C2751 1.327 . S
C2754 C2742 1.349 . S
C2754 H2748 0.950 . S
C2754 C2755 1.327 . S
C2755 H2749 0.950 . S
C2755 C2754 1.327 . S
C2755 C2759 1.429 . S
C2756 C2739 1.574 . S
C2756 H2750 0.949 . S
C2756 C2760 1.368 . S
C2757 C2738 1.429 . S
C2757 C2751 1.429 . S
C2757 C2758 1.523 . S
C2758 C2739 1.368 . S
C2758 C2752 1.368 . S
C2758 C2757 1.523 . S
C2759 C2743 1.429 . S
C2759 C2755 1.429 . S
C2759 C2760 1.523 . S
C2760 C2744 1.368 . S
C2760 C2756 1.368 . S
C2760 C2759 1.523 . S
H2761 C2736 0.950 . S
H2762 C2738 0.950 . S
H2763 C2739 0.949 . S
H2764 C2741 0.950 . S
H2765 C2743 0.950 . S
C2766 C2767 1.349 . S
C2766 C2768 1.327 . S
C2766 H2791 0.950 . S
C2767 C2766 1.349 . S
C2767 C2783 1.349 . S
C2768 C2766 1.327 . S
C2768 C2787 1.429 . S
C2768 H2792 0.950 . S
C2769 C2786 1.574 . S
C2769 C2788 1.368 . S
C2769 H2793 0.949 . S
H2770 C2774 0.949 . S
C2771 C2772 1.349 . S
C2771 C2773 1.327 . S
C2771 H2794 0.950 . S
C2772 C2771 1.349 . S
C2772 C2784 1.349 . S
C2773 C2771 1.327 . S
C2773 C2789 1.429 . S
C2773 H2795 0.950 . S
C2774 H2770 0.949 . S
C2774 C2782 1.574 . S
C2774 C2790 1.368 . S
H2775 C2783 0.950 . S
H2776 C2781 0.950 . S
H2777 C2782 0.949 . S
H2778 C2784 0.950 . S
H2779 C2785 0.950 . S
H2780 C2786 0.949 . S
C2781 H2776 0.950 . S
C2781 C2783 1.327 . S
C2781 C2787 1.429 . S
C2782 C2774 1.574 . S
C2782 H2777 0.949 . S
C2782 C2788 1.368 . S
C2783 C2767 1.349 . S
C2783 H2775 0.950 . S
C2783 C2781 1.327 . S
C2784 C2772 1.349 . S
C2784 H2778 0.950 . S
C2784 C2785 1.327 . S
C2785 H2779 0.950 . S
C2785 C2784 1.327 . S
C2785 C2789 1.429 . S
C2786 C2769 1.574 . S
C2786 H2780 0.949 . S
C2786 C2790 1.368 . S
C2787 C2768 1.429 . S
C2787 C2781 1.429 . S
C2787 C2788 1.523 . S
C2788 C2769 1.368 . S
C2788 C2782 1.368 . S
C2788 C2787 1.523 . S
C2789 C2773 1.429 . S
C2789 C2785 1.429 . S
C2789 C2790 1.523 . S
C2790 C2774 1.368 . S
C2790 C2786 1.368 . S
C2790 C2789 1.523 . S
H2791 C2766 0.950 . S
H2792 C2768 0.950 . S
H2793 C2769 0.949 . S
H2794 C2771 0.950 . S
H2795 C2773 0.950 . S
C2796 C2797 1.349 . S
C2796 C2798 1.327 . S
C2796 H2821 0.950 . S
C2797 C2796 1.349 . S
C2797 C2813 1.349 . S
C2798 C2796 1.327 . S
C2798 C2817 1.429 . S
C2798 H2822 0.950 . S
C2799 C2816 1.574 . S
C2799 C2818 1.368 . S
C2799 H2823 0.949 . S
H2800 C2804 0.949 . S
C2801 C2802 1.349 . S
C2801 C2803 1.327 . S
C2801 H2824 0.950 . S
C2802 C2801 1.349 . S
C2802 C2814 1.349 . S
C2803 C2801 1.327 . S
C2803 C2819 1.429 . S
C2803 H2825 0.950 . S
C2804 H2800 0.949 . S
C2804 C2812 1.574 . S
C2804 C2820 1.368 . S
H2805 C2813 0.950 . S
H2806 C2811 0.950 . S
H2807 C2812 0.949 . S
H2808 C2814 0.950 . S
H2809 C2815 0.950 . S
H2810 C2816 0.949 . S
C2811 H2806 0.950 . S
C2811 C2813 1.327 . S
C2811 C2817 1.429 . S
C2812 C2804 1.574 . S
C2812 H2807 0.949 . S
C2812 C2818 1.368 . S
C2813 C2797 1.349 . S
C2813 H2805 0.950 . S
C2813 C2811 1.327 . S
C2814 C2802 1.349 . S
C2814 H2808 0.950 . S
C2814 C2815 1.327 . S
C2815 H2809 0.950 . S
C2815 C2814 1.327 . S
C2815 C2819 1.429 . S
C2816 C2799 1.574 . S
C2816 H2810 0.949 . S
C2816 C2820 1.368 . S
C2817 C2798 1.429 . S
C2817 C2811 1.429 . S
C2817 C2818 1.523 . S
C2818 C2799 1.368 . S
C2818 C2812 1.368 . S
C2818 C2817 1.523 . S
C2819 C2803 1.429 . S
C2819 C2815 1.429 . S
C2819 C2820 1.523 . S
C2820 C2804 1.368 . S
C2820 C2816 1.368 . S
C2820 C2819 1.523 . S
H2821 C2796 0.950 . S
H2822 C2798 0.950 . S
H2823 C2799 0.949 . S
H2824 C2801 0.950 . S
H2825 C2803 0.950 . S
C2826 C2827 1.349 . S
C2826 C2828 1.327 . S
C2826 H2851 0.950 . S
C2827 C2826 1.349 . S
C2827 C2843 1.349 . S
C2828 C2826 1.327 . S
C2828 C2847 1.429 . S
C2828 H2852 0.950 . S
C2829 C2846 1.574 . S
C2829 C2848 1.368 . S
C2829 H2853 0.949 . S
H2830 C2834 0.949 . S
C2831 C2832 1.349 . S
C2831 C2833 1.327 . S
C2831 H2854 0.950 . S
C2832 C2831 1.349 . S
C2832 C2844 1.349 . S
C2833 C2831 1.327 . S
C2833 C2849 1.429 . S
C2833 H2855 0.950 . S
C2834 H2830 0.949 . S
C2834 C2842 1.574 . S
C2834 C2850 1.368 . S
H2835 C2843 0.950 . S
H2836 C2841 0.950 . S
H2837 C2842 0.949 . S
H2838 C2844 0.950 . S
H2839 C2845 0.950 . S
H2840 C2846 0.949 . S
C2841 H2836 0.950 . S
C2841 C2843 1.327 . S
C2841 C2847 1.429 . S
C2842 C2834 1.574 . S
C2842 H2837 0.949 . S
C2842 C2848 1.368 . S
C2843 C2827 1.349 . S
C2843 H2835 0.950 . S
C2843 C2841 1.327 . S
C2844 C2832 1.349 . S
C2844 H2838 0.950 . S
C2844 C2845 1.327 . S
C2845 H2839 0.950 . S
C2845 C2844 1.327 . S
C2845 C2849 1.429 . S
C2846 C2829 1.574 . S
C2846 H2840 0.949 . S
C2846 C2850 1.368 . S
C2847 C2828 1.429 . S
C2847 C2841 1.429 . S
C2847 C2848 1.523 . S
C2848 C2829 1.368 . S
C2848 C2842 1.368 . S
C2848 C2847 1.523 . S
C2849 C2833 1.429 . S
C2849 C2845 1.429 . S
C2849 C2850 1.523 . S
C2850 C2834 1.368 . S
C2850 C2846 1.368 . S
C2850 C2849 1.523 . S
H2851 C2826 0.950 . S
H2852 C2828 0.950 . S
H2853 C2829 0.949 . S
H2854 C2831 0.950 . S
H2855 C2833 0.950 . S
C2856 C2857 1.349 . S
C2856 C2858 1.327 . S
C2856 H2881 0.950 . S
C2857 C2856 1.349 . S
C2857 C2873 1.349 . S
C2858 C2856 1.327 . S
C2858 C2877 1.429 . S
C2858 H2882 0.950 . S
C2859 C2876 1.574 . S
C2859 C2878 1.368 . S
C2859 H2883 0.949 . S
H2860 C2864 0.949 . S
C2861 C2862 1.349 . S
C2861 C2863 1.327 . S
C2861 H2884 0.950 . S
C2862 C2861 1.349 . S
C2862 C2874 1.349 . S
C2863 C2861 1.327 . S
C2863 C2879 1.429 . S
C2863 H2885 0.950 . S
C2864 H2860 0.949 . S
C2864 C2872 1.574 . S
C2864 C2880 1.368 . S
H2865 C2873 0.950 . S
H2866 C2871 0.950 . S
H2867 C2872 0.949 . S
H2868 C2874 0.950 . S
H2869 C2875 0.950 . S
H2870 C2876 0.949 . S
C2871 H2866 0.950 . S
C2871 C2873 1.327 . S
C2871 C2877 1.429 . S
C2872 C2864 1.574 . S
C2872 H2867 0.949 . S
C2872 C2878 1.368 . S
C2873 C2857 1.349 . S
C2873 H2865 0.950 . S
C2873 C2871 1.327 . S
C2874 C2862 1.349 . S
C2874 H2868 0.950 . S
C2874 C2875 1.327 . S
C2875 H2869 0.950 . S
C2875 C2874 1.327 . S
C2875 C2879 1.429 . S
C2876 C2859 1.574 . S
C2876 H2870 0.949 . S
C2876 C2880 1.368 . S
C2877 C2858 1.429 . S
C2877 C2871 1.429 . S
C2877 C2878 1.523 . S
C2878 C2859 1.368 . S
C2878 C2872 1.368 . S
C2878 C2877 1.523 . S
C2879 C2863 1.429 . S
C2879 C2875 1.429 . S
C2879 C2880 1.523 . S
C2880 C2864 1.368 . S
C2880 C2876 1.368 . S
C2880 C2879 1.523 . S
H2881 C2856 0.950 . S
H2882 C2858 0.950 . S
H2883 C2859 0.949 . S
H2884 C2861 0.950 . S
H2885 C2863 0.950 . S
C2886 C2887 1.349 . S
C2886 C2888 1.327 . S
C2886 H2911 0.950 . S
C2887 C2886 1.349 . S
C2887 C2903 1.349 . S
C2888 C2886 1.327 . S
C2888 C2907 1.429 . S
C2888 H2912 0.950 . S
C2889 C2906 1.574 . S
C2889 C2908 1.368 . S
C2889 H2913 0.949 . S
H2890 C2894 0.949 . S
C2891 C2892 1.349 . S
C2891 C2893 1.327 . S
C2891 H2914 0.950 . S
C2892 C2891 1.349 . S
C2892 C2904 1.349 . S
C2893 C2891 1.327 . S
C2893 C2909 1.429 . S
C2893 H2915 0.950 . S
C2894 H2890 0.949 . S
C2894 C2902 1.574 . S
C2894 C2910 1.368 . S
H2895 C2903 0.950 . S
H2896 C2901 0.950 . S
H2897 C2902 0.949 . S
H2898 C2904 0.950 . S
H2899 C2905 0.950 . S
H2900 C2906 0.949 . S
C2901 H2896 0.950 . S
C2901 C2903 1.327 . S
C2901 C2907 1.429 . S
C2902 C2894 1.574 . S
C2902 H2897 0.949 . S
C2902 C2908 1.368 . S
C2903 C2887 1.349 . S
C2903 H2895 0.950 . S
C2903 C2901 1.327 . S
C2904 C2892 1.349 . S
C2904 H2898 0.950 . S
C2904 C2905 1.327 . S
C2905 H2899 0.950 . S
C2905 C2904 1.327 . S
C2905 C2909 1.429 . S
C2906 C2889 1.574 . S
C2906 H2900 0.949 . S
C2906 C2910 1.368 . S
C2907 C2888 1.429 . S
C2907 C2901 1.429 . S
C2907 C2908 1.523 . S
C2908 C2889 1.368 . S
C2908 C2902 1.368 . S
C2908 C2907 1.523 . S
C2909 C2893 1.429 . S
C2909 C2905 1.429 . S
C2909 C2910 1.523 . S
C2910 C2894 1.368 . S
C2910 C2906 1.368 . S
C2910 C2909 1.523 . S
H2911 C2886 0.950 . S
H2912 C2888 0.950 . S
H2913 C2889 0.949 . S
H2914 C2891 0.950 . S
H2915 C2893 0.950 . S
C2916 C2917 1.349 . S
C2916 C2918 1.327 . S
C2916 H2941 0.950 . S
C2917 C2916 1.349 . S
C2917 C2933 1.349 . S
C2918 C2916 1.327 . S
C2918 C2937 1.429 . S
C2918 H2942 0.950 . S
C2919 C2936 1.574 . S
C2919 C2938 1.368 . S
C2919 H2943 0.949 . S
H2920 C2924 0.949 . S
C2921 C2922 1.349 . S
C2921 C2923 1.327 . S
C2921 H2944 0.950 . S
C2922 C2921 1.349 . S
C2922 C2934 1.349 . S
C2923 C2921 1.327 . S
C2923 C2939 1.429 . S
C2923 H2945 0.950 . S
C2924 H2920 0.949 . S
C2924 C2932 1.574 . S
C2924 C2940 1.368 . S
H2925 C2933 0.950 . S
H2926 C2931 0.950 . S
H2927 C2932 0.949 . S
H2928 C2934 0.950 . S
H2929 C2935 0.950 . S
H2930 C2936 0.949 . S
C2931 H2926 0.950 . S
C2931 C2933 1.327 . S
C2931 C2937 1.429 . S
C2932 C2924 1.574 . S
C2932 H2927 0.949 . S
C2932 C2938 1.368 . S
C2933 C2917 1.349 . S
C2933 H2925 0.950 . S
C2933 C2931 1.327 . S
C2934 C2922 1.349 . S
C2934 H2928 0.950 . S
C2934 C2935 1.327 . S
C2935 H2929 0.950 . S
C2935 C2934 1.327 . S
C2935 C2939 1.429 . S
C2936 C2919 1.574 . S
C2936 H2930 0.949 . S
C2936 C2940 1.368 . S
C2937 C2918 1.429 . S
C2937 C2931 1.429 . S
C2937 C2938 1.523 . S
C2938 C2919 1.368 . S
C2938 C2932 1.368 . S
C2938 C2937 1.523 . S
C2939 C2923 1.429 . S
C2939 C2935 1.429 . S
C2939 C2940 1.523 . S
C2940 C2924 1.368 . S
C2940 C2936 1.368 . S
C2940 C2939 1.523 . S
H2941 C2916 0.950 . S
H2942 C2918 0.950 . S
H2943 C2919 0.949 . S
H2944 C2921 0.950 . S
H2945 C2923 0.950 . S
C2946 C2947 1.349 . S
C2946 C2948 1.327 . S
C2946 H2971 0.950 . S
C2947 C2946 1.349 . S
C2947 C2963 1.349 . S
C2948 C2946 1.327 . S
C2948 C2967 1.429 . S
C2948 H2972 0.950 . S
C2949 C2966 1.574 . S
C2949 C2968 1.368 . S
C2949 H2973 0.949 . S
H2950 C2954 0.949 . S
C2951 C2952 1.349 . S
C2951 C2953 1.327 . S
C2951 H2974 0.950 . S
C2952 C2951 1.349 . S
C2952 C2964 1.349 . S
C2953 C2951 1.327 . S
C2953 C2969 1.429 . S
C2953 H2975 0.950 . S
C2954 H2950 0.949 . S
C2954 C2962 1.574 . S
C2954 C2970 1.368 . S
H2955 C2963 0.950 . S
H2956 C2961 0.950 . S
H2957 C2962 0.949 . S
H2958 C2964 0.950 . S
H2959 C2965 0.950 . S
H2960 C2966 0.949 . S
C2961 H2956 0.950 . S
C2961 C2963 1.327 . S
C2961 C2967 1.429 . S
C2962 C2954 1.574 . S
C2962 H2957 0.949 . S
C2962 C2968 1.368 . S
C2963 C2947 1.349 . S
C2963 H2955 0.950 . S
C2963 C2961 1.327 . S
C2964 C2952 1.349 . S
C2964 H2958 0.950 . S
C2964 C2965 1.327 . S
C2965 H2959 0.950 . S
C2965 C2964 1.327 . S
C2965 C2969 1.429 . S
C2966 C2949 1.574 . S
C2966 H2960 0.949 . S
C2966 C2970 1.368 . S
C2967 C2948 1.429 . S
C2967 C2961 1.429 . S
C2967 C2968 1.523 . S
C2968 C2949 1.368 . S
C2968 C2962 1.368 . S
C2968 C2967 1.523 . S
C2969 C2953 1.429 . S
C2969 C2965 1.429 . S
C2969 C2970 1.523 . S
C2970 C2954 1.368 . S
C2970 C2966 1.368 . S
C2970 C2969 1.523 . S
H2971 C2946 0.950 . S
H2972 C2948 0.950 . S
H2973 C2949 0.949 . S
H2974 C2951 0.950 . S
H2975 C2953 0.950 . S
C2976 C2977 1.349 . S
C2976 C2978 1.327 . S
C2976 H3001 0.950 . S
C2977 C2976 1.349 . S
C2977 C2993 1.349 . S
C2978 C2976 1.327 . S
C2978 C2997 1.429 . S
C2978 H3002 0.950 . S
C2979 C2996 1.574 . S
C2979 C2998 1.368 . S
C2979 H3003 0.949 . S
H2980 C2984 0.949 . S
C2981 C2982 1.349 . S
C2981 C2983 1.327 . S
C2981 H3004 0.950 . S
C2982 C2981 1.349 . S
C2982 C2994 1.349 . S
C2983 C2981 1.327 . S
C2983 C2999 1.429 . S
C2983 H3005 0.950 . S
C2984 H2980 0.949 . S
C2984 C2992 1.574 . S
C2984 C3000 1.368 . S
H2985 C2993 0.950 . S
H2986 C2991 0.950 . S
H2987 C2992 0.949 . S
H2988 C2994 0.950 . S
H2989 C2995 0.950 . S
H2990 C2996 0.949 . S
C2991 H2986 0.950 . S
C2991 C2993 1.327 . S
C2991 C2997 1.429 . S
C2992 C2984 1.574 . S
C2992 H2987 0.949 . S
C2992 C2998 1.368 . S
C2993 C2977 1.349 . S
C2993 H2985 0.950 . S
C2993 C2991 1.327 . S
C2994 C2982 1.349 . S
C2994 H2988 0.950 . S
C2994 C2995 1.327 . S
C2995 H2989 0.950 . S
C2995 C2994 1.327 . S
C2995 C2999 1.429 . S
C2996 C2979 1.574 . S
C2996 H2990 0.949 . S
C2996 C3000 1.368 . S
C2997 C2978 1.429 . S
C2997 C2991 1.429 . S
C2997 C2998 1.523 . S
C2998 C2979 1.368 . S
C2998 C2992 1.368 . S
C2998 C2997 1.523 . S
C2999 C2983 1.429 . S
C2999 C2995 1.429 . S
C2999 C3000 1.523 . S
C3000 C2984 1.368 . S
C3000 C2996 1.368 . S
C3000 C2999 1.523 . S
H3001 C2976 0.950 . S
H3002 C2978 0.950 . S
H3003 C2979 0.949 . S
H3004 C2981 0.950 . S
H3005 C2983 0.950 . S
C3006 C3007 1.349 1_545 S
C3006 C3008 1.327 . S
C3006 H3031 0.950 . S
C3007 C3006 1.349 1_565 S
C3007 C3023 1.349 . S
C3008 C3006 1.327 . S
C3008 C3027 1.429 1_545 S
C3008 H3032 0.950 1_655 S
C3009 C3026 1.574 . S
C3009 C3028 1.368 . S
C3009 H3033 0.949 . S
H3010 C3014 0.949 . S
C3011 C3012 1.349 1_565 S
C3011 C3013 1.327 . S
C3011 H3034 0.950 . S
C3012 C3011 1.349 1_545 S
C3012 C3024 1.349 . S
C3013 C3011 1.327 . S
C3013 C3029 1.429 1_565 S
C3013 H3035 0.950 1_455 S
C3014 H3010 0.949 . S
C3014 C3022 1.574 . S
C3014 C3030 1.368 . S
H3015 C3023 0.950 . S
H3016 C3021 0.950 . S
H3017 C3022 0.949 . S
H3018 C3024 0.950 . S
H3019 C3025 0.950 . S
H3020 C3026 0.949 . S
C3021 H3016 0.950 . S
C3021 C3023 1.327 . S
C3021 C3027 1.429 . S
C3022 C3014 1.574 . S
C3022 H3017 0.949 . S
C3022 C3028 1.368 1_445 S
C3023 C3007 1.349 . S
C3023 H3015 0.950 . S
C3023 C3021 1.327 . S
C3024 C3012 1.349 . S
C3024 H3018 0.950 . S
C3024 C3025 1.327 . S
C3025 H3019 0.950 . S
C3025 C3024 1.327 . S
C3025 C3029 1.429 . S
C3026 C3009 1.574 . S
C3026 H3020 0.949 . S
C3026 C3030 1.368 1_665 S
C3027 C3008 1.429 1_565 S
C3027 C3021 1.429 . S
C3027 C3028 1.523 . S
C3028 C3009 1.368 . S
C3028 C3022 1.368 1_665 S
C3028 C3027 1.523 . S
C3029 C3013 1.429 1_545 S
C3029 C3025 1.429 . S
C3029 C3030 1.523 . S
C3030 C3014 1.368 . S
C3030 C3026 1.368 1_445 S
C3030 C3029 1.523 . S
H3031 C3006 0.950 . S
H3032 C3008 0.950 1_455 S
H3033 C3009 0.949 . S
H3034 C3011 0.950 . S
H3035 C3013 0.950 1_655 S
C3036 C3037 1.349 . S
C3036 C3038 1.327 . S
C3036 H3061 0.950 . S
C3037 C3036 1.349 . S
C3037 C3053 1.349 . S
C3038 C3036 1.327 . S
C3038 C3057 1.429 . S
C3038 H3062 0.950 . S
C3039 C3056 1.574 . S
C3039 C3058 1.368 . S
C3039 H3063 0.949 . S
H3040 C3044 0.949 . S
C3041 C3042 1.349 . S
C3041 C3043 1.327 . S
C3041 H3064 0.950 . S
C3042 C3041 1.349 . S
C3042 C3054 1.349 . S
C3043 C3041 1.327 . S
C3043 C3059 1.429 . S
C3043 H3065 0.950 . S
C3044 H3040 0.949 . S
C3044 C3052 1.574 . S
C3044 C3060 1.368 . S
H3045 C3053 0.950 . S
H3046 C3051 0.950 . S
H3047 C3052 0.949 . S
H3048 C3054 0.950 . S
H3049 C3055 0.950 . S
H3050 C3056 0.949 . S
C3051 H3046 0.950 . S
C3051 C3053 1.327 . S
C3051 C3057 1.429 . S
C3052 C3044 1.574 . S
C3052 H3047 0.949 . S
C3052 C3058 1.368 . S
C3053 C3037 1.349 . S
C3053 H3045 0.950 . S
C3053 C3051 1.327 . S
C3054 C3042 1.349 . S
C3054 H3048 0.950 . S
C3054 C3055 1.327 . S
C3055 H3049 0.950 . S
C3055 C3054 1.327 . S
C3055 C3059 1.429 . S
C3056 C3039 1.574 . S
C3056 H3050 0.949 . S
C3056 C3060 1.368 . S
C3057 C3038 1.429 . S
C3057 C3051 1.429 . S
C3057 C3058 1.523 . S
C3058 C3039 1.368 . S
C3058 C3052 1.368 . S
C3058 C3057 1.523 . S
C3059 C3043 1.429 . S
C3059 C3055 1.429 . S
C3059 C3060 1.523 . S
C3060 C3044 1.368 . S
C3060 C3056 1.368 . S
C3060 C3059 1.523 . S
H3061 C3036 0.950 . S
H3062 C3038 0.950 . S
H3063 C3039 0.949 . S
H3064 C3041 0.950 . S
H3065 C3043 0.950 . S
C3066 C3067 1.349 . S
C3066 C3068 1.327 . S
C3066 H3091 0.950 . S
C3067 C3066 1.349 . S
C3067 C3083 1.364 . S
C3068 C3066 1.327 . S
C3068 C3087 1.429 . S
C3068 H3092 0.950 . S
C3069 C3086 1.574 1_556 S
C3069 C3088 1.368 1_545 S
C3069 H3093 0.949 . S
H3070 C3074 0.949 . S
C3071 C3072 1.349 . S
C3071 C3073 1.327 . S
C3071 H3094 0.950 . S
C3072 C3071 1.349 . S
C3072 C3084 1.364 . S
C3073 C3071 1.327 . S
C3073 C3089 1.429 . S
C3073 H3095 0.950 . S
C3074 H3070 0.949 . S
C3074 C3082 1.574 1_554 S
C3074 C3090 1.368 1_565 S
H3075 C3083 0.939 1_545 S
H3076 C3081 0.950 . S
H3077 C3082 0.949 . S
H3078 C3084 0.939 1_565 S
H3079 C3085 0.950 . S
H3080 C3086 0.949 . S
C3081 H3076 0.950 . S
C3081 C3083 1.323 1_545 S
C3081 C3087 1.429 1_545 S
C3082 C3074 1.574 1_556 S
C3082 H3077 0.949 . S
C3082 C3088 1.368 . S
C3083 C3067 1.364 . S
C3083 H3075 0.939 1_565 S
C3083 C3081 1.323 1_565 S
C3084 C3072 1.364 . S
C3084 H3078 0.939 1_545 S
C3084 C3085 1.323 1_545 S
C3085 H3079 0.950 . S
C3085 C3084 1.323 1_565 S
C3085 C3089 1.429 1_565 S
C3086 C3069 1.574 1_554 S
C3086 H3080 0.949 . S
C3086 C3090 1.368 . S
C3087 C3068 1.429 . S
C3087 C3081 1.429 1_565 S
C3087 C3088 1.523 . S
C3088 C3069 1.368 1_565 S
C3088 C3082 1.368 . S
C3088 C3087 1.523 . S
C3089 C3073 1.429 . S
C3089 C3085 1.429 1_545 S
C3089 C3090 1.523 . S
C3090 C3074 1.368 1_545 S
C3090 C3086 1.368 . S
C3090 C3089 1.523 . S
H3091 C3066 0.950 . S
H3092 C3068 0.950 . S
H3093 C3069 0.949 . S
H3094 C3071 0.950 . S
H3095 C3073 0.950 . S
C3096 C3097 1.349 . S
C3096 C3098 1.327 . S
C3096 H3121 0.950 . S
C3097 C3096 1.349 . S
C3097 C3113 1.349 . S
C3098 C3096 1.327 . S
C3098 C3117 1.429 . S
C3098 H3122 0.950 . S
C3099 C3116 1.574 . S
C3099 C3118 1.368 . S
C3099 H3123 0.949 . S
H3100 C3104 0.949 . S
C3101 C3102 1.349 . S
C3101 C3103 1.327 . S
C3101 H3124 0.950 . S
C3102 C3101 1.349 . S
C3102 C3114 1.349 . S
C3103 C3101 1.327 . S
C3103 C3119 1.429 . S
C3103 H3125 0.950 . S
C3104 H3100 0.949 . S
C3104 C3112 1.574 . S
C3104 C3120 1.368 . S
H3105 C3113 0.950 . S
H3106 C3111 0.950 . S
H3107 C3112 0.949 . S
H3108 C3114 0.950 . S
H3109 C3115 0.950 . S
H3110 C3116 0.949 . S
C3111 H3106 0.950 . S
C3111 C3113 1.327 . S
C3111 C3117 1.429 . S
C3112 C3104 1.574 . S
C3112 H3107 0.949 . S
C3112 C3118 1.368 . S
C3113 C3097 1.349 . S
C3113 H3105 0.950 . S
C3113 C3111 1.327 . S
C3114 C3102 1.349 . S
C3114 H3108 0.950 . S
C3114 C3115 1.327 . S
C3115 H3109 0.950 . S
C3115 C3114 1.327 . S
C3115 C3119 1.429 . S
C3116 C3099 1.574 . S
C3116 H3110 0.949 . S
C3116 C3120 1.368 . S
C3117 C3098 1.429 . S
C3117 C3111 1.429 . S
C3117 C3118 1.523 . S
C3118 C3099 1.368 . S
C3118 C3112 1.368 . S
C3118 C3117 1.523 . S
C3119 C3103 1.429 . S
C3119 C3115 1.429 . S
C3119 C3120 1.523 . S
C3120 C3104 1.368 . S
C3120 C3116 1.368 . S
C3120 C3119 1.523 . S
H3121 C3096 0.950 . S
H3122 C3098 0.950 . S
H3123 C3099 0.949 . S
H3124 C3101 0.950 . S
H3125 C3103 0.950 . S
C3126 C3127 1.349 . S
C3126 C3128 1.327 . S
C3126 H3151 0.950 . S
C3127 C3126 1.349 . S
C3127 C3143 1.349 1_545 S
C3128 C3126 1.327 . S
C3128 C3147 1.429 . S
C3128 H3152 0.950 . S
C3129 C3146 1.574 . S
C3129 C3148 1.368 1_565 S
C3129 H3153 0.949 . S
H3130 C3134 0.949 . S
C3131 C3132 1.349 . S
C3131 C3133 1.327 . S
C3131 H3154 0.950 . S
C3132 C3131 1.349 . S
C3132 C3144 1.349 1_565 S
C3133 C3131 1.327 . S
C3133 C3149 1.429 . S
C3133 H3155 0.950 . S
C3134 H3130 0.949 . S
C3134 C3142 1.574 . S
C3134 C3150 1.368 1_545 S
H3135 C3143 0.950 . S
H3136 C3141 0.950 . S
H3137 C3142 0.949 . S
H3138 C3144 0.950 . S
H3139 C3145 0.950 . S
H3140 C3146 0.949 . S
C3141 H3136 0.950 . S
C3141 C3143 1.327 . S
C3141 C3147 1.429 1_565 S
C3142 C3134 1.574 . S
C3142 H3137 0.949 . S
C3142 C3148 1.368 . S
C3143 C3127 1.349 1_565 S
C3143 H3135 0.950 . S
C3143 C3141 1.327 . S
C3144 C3132 1.349 1_545 S
C3144 H3138 0.950 . S
C3144 C3145 1.327 . S
C3145 H3139 0.950 . S
C3145 C3144 1.327 . S
C3145 C3149 1.429 1_545 S
C3146 C3129 1.574 . S
C3146 H3140 0.949 . S
C3146 C3150 1.368 . S
C3147 C3128 1.429 . S
C3147 C3141 1.429 1_545 S
C3147 C3148 1.523 . S
C3148 C3129 1.368 1_545 S
C3148 C3142 1.368 . S
C3148 C3147 1.523 . S
C3149 C3133 1.429 . S
C3149 C3145 1.429 1_565 S
C3149 C3150 1.523 . S
C3150 C3134 1.368 1_565 S
C3150 C3146 1.368 . S
C3150 C3149 1.523 . S
H3151 C3126 0.950 . S
H3152 C3128 0.950 . S
H3153 C3129 0.949 . S
H3154 C3131 0.950 . S
H3155 C3133 0.950 . S
C3156 C3157 1.349 . S
C3156 C3158 1.327 . S
C3156 H3181 0.950 . S
C3157 C3156 1.349 . S
C3157 C3173 1.349 . S
C3158 C3156 1.327 . S
C3158 C3177 1.429 . S
C3158 H3182 0.950 . S
C3159 C3176 1.574 . S
C3159 C3178 1.368 . S
C3159 H3183 0.949 . S
H3160 C3164 0.949 . S
C3161 C3162 1.349 . S
C3161 C3163 1.327 . S
C3161 H3184 0.950 . S
C3162 C3161 1.349 . S
C3162 C3174 1.349 . S
C3163 C3161 1.327 . S
C3163 C3179 1.429 . S
C3163 H3185 0.950 . S
C3164 H3160 0.949 . S
C3164 C3172 1.574 . S
C3164 C3180 1.368 . S
H3165 C3173 0.950 . S
H3166 C3171 0.950 . S
H3167 C3172 0.949 . S
H3168 C3174 0.950 . S
H3169 C3175 0.950 . S
H3170 C3176 0.949 . S
C3171 H3166 0.950 . S
C3171 C3173 1.327 . S
C3171 C3177 1.429 . S
C3172 C3164 1.574 . S
C3172 H3167 0.949 . S
C3172 C3178 1.368 . S
C3173 C3157 1.349 . S
C3173 H3165 0.950 . S
C3173 C3171 1.327 . S
C3174 C3162 1.349 . S
C3174 H3168 0.950 . S
C3174 C3175 1.327 . S
C3175 H3169 0.950 . S
C3175 C3174 1.327 . S
C3175 C3179 1.429 . S
C3176 C3159 1.574 . S
C3176 H3170 0.949 . S
C3176 C3180 1.368 . S
C3177 C3158 1.429 . S
C3177 C3171 1.429 . S
C3177 C3178 1.523 . S
C3178 C3159 1.368 . S
C3178 C3172 1.368 . S
C3178 C3177 1.523 . S
C3179 C3163 1.429 . S
C3179 C3175 1.429 . S
C3179 C3180 1.523 . S
C3180 C3164 1.368 . S
C3180 C3176 1.368 . S
C3180 C3179 1.523 . S
H3181 C3156 0.950 . S
H3182 C3158 0.950 . S
H3183 C3159 0.949 . S
H3184 C3161 0.950 . S
H3185 C3163 0.950 . S
C3186 C3187 1.349 . S
C3186 C3188 1.327 . S
C3186 H3211 0.950 . S
C3187 C3186 1.349 . S
C3187 C3203 1.349 1_565 S
C3188 C3186 1.327 . S
C3188 C3207 1.429 . S
C3188 H3212 0.950 1_455 S
C3189 C3206 1.574 1_554 S
C3189 C3208 1.368 1_545 S
C3189 H3213 0.949 . S
H3190 C3194 0.949 . S
C3191 C3192 1.349 . S
C3191 C3193 1.327 . S
C3191 H3214 0.950 . S
C3192 C3191 1.349 . S
C3192 C3204 1.349 1_545 S
C3193 C3191 1.327 . S
C3193 C3209 1.429 . S
C3193 H3215 0.950 1_655 S
C3194 H3190 0.949 . S
C3194 C3202 1.574 1_556 S
C3194 C3210 1.368 1_565 S
H3195 C3203 0.950 . S
H3196 C3201 0.950 . S
H3197 C3202 0.949 . S
H3198 C3204 0.950 . S
H3199 C3205 0.950 . S
H3200 C3206 0.949 . S
C3201 H3196 0.950 . S
C3201 C3203 1.327 . S
C3201 C3207 1.429 1_545 S
C3202 C3194 1.574 1_554 S
C3202 H3197 0.949 . S
C3202 C3208 1.368 1_655 S
C3203 C3187 1.349 1_545 S
C3203 H3195 0.950 . S
C3203 C3201 1.327 . S
C3204 C3192 1.349 1_565 S
C3204 H3198 0.950 . S
C3204 C3205 1.327 . S
C3205 H3199 0.950 . S
C3205 C3204 1.327 . S
C3205 C3209 1.429 1_565 S
C3206 C3189 1.574 1_556 S
C3206 H3200 0.949 . S
C3206 C3210 1.368 1_455 S
C3207 C3188 1.429 . S
C3207 C3201 1.429 1_565 S
C3207 C3208 1.523 . S
C3208 C3189 1.368 1_565 S
C3208 C3202 1.368 1_455 S
C3208 C3207 1.523 . S
C3209 C3193 1.429 . S
C3209 C3205 1.429 1_545 S
C3209 C3210 1.523 . S
C3210 C3194 1.368 1_545 S
C3210 C3206 1.368 1_655 S
C3210 C3209 1.523 . S
H3211 C3186 0.950 . S
H3212 C3188 0.950 1_655 S
H3213 C3189 0.949 . S
H3214 C3191 0.950 . S
H3215 C3193 0.950 1_455 S
C3216 C3217 1.349 . S
C3216 C3218 1.327 . S
C3216 H3241 0.950 . S
C3217 C3216 1.349 . S
C3217 C3233 1.349 . S
C3218 C3216 1.327 . S
C3218 C3237 1.429 . S
C3218 H3242 0.950 . S
C3219 C3236 1.574 . S
C3219 C3238 1.368 . S
C3219 H3243 0.949 . S
H3220 C3224 0.949 . S
C3221 C3222 1.349 . S
C3221 C3223 1.327 . S
C3221 H3244 0.950 . S
C3222 C3221 1.349 . S
C3222 C3234 1.349 . S
C3223 C3221 1.327 . S
C3223 C3239 1.429 . S
C3223 H3245 0.950 . S
C3224 H3220 0.949 . S
C3224 C3232 1.574 . S
C3224 C3240 1.368 . S
H3225 C3233 0.950 . S
H3226 C3231 0.950 . S
H3227 C3232 0.949 . S
H3228 C3234 0.950 . S
H3229 C3235 0.950 . S
H3230 C3236 0.949 . S
C3231 H3226 0.950 . S
C3231 C3233 1.327 . S
C3231 C3237 1.429 . S
C3232 C3224 1.574 . S
C3232 H3227 0.949 . S
C3232 C3238 1.368 . S
C3233 C3217 1.349 . S
C3233 H3225 0.950 . S
C3233 C3231 1.327 . S
C3234 C3222 1.349 . S
C3234 H3228 0.950 . S
C3234 C3235 1.327 . S
C3235 H3229 0.950 . S
C3235 C3234 1.327 . S
C3235 C3239 1.429 . S
C3236 C3219 1.574 . S
C3236 H3230 0.949 . S
C3236 C3240 1.368 . S
C3237 C3218 1.429 . S
C3237 C3231 1.429 . S
C3237 C3238 1.523 . S
C3238 C3219 1.368 . S
C3238 C3232 1.368 . S
C3238 C3237 1.523 . S
C3239 C3223 1.429 . S
C3239 C3235 1.429 . S
C3239 C3240 1.523 . S
C3240 C3224 1.368 . S
C3240 C3236 1.368 . S
C3240 C3239 1.523 . S
H3241 C3216 0.950 . S
H3242 C3218 0.950 . S
H3243 C3219 0.949 . S
H3244 C3221 0.950 . S
H3245 C3223 0.950 . S
C3246 C3247 1.349 . S
C3246 C3248 1.327 . S
C3246 H3271 0.950 . S
C3247 C3246 1.349 . S
C3247 C3263 1.349 . S
C3248 C3246 1.327 . S
C3248 C3267 1.429 . S
C3248 H3272 0.950 . S
C3249 C3266 1.574 . S
C3249 C3268 1.368 . S
C3249 H3273 0.949 . S
H3250 C3254 0.949 . S
C3251 C3252 1.349 . S
C3251 C3253 1.327 . S
C3251 H3274 0.950 . S
C3252 C3251 1.349 . S
C3252 C3264 1.349 . S
C3253 C3251 1.327 . S
C3253 C3269 1.429 . S
C3253 H3275 0.950 . S
C3254 H3250 0.949 . S
C3254 C3262 1.574 . S
C3254 C3270 1.368 . S
H3255 C3263 0.950 . S
H3256 C3261 0.950 . S
H3257 C3262 0.949 . S
H3258 C3264 0.950 . S
H3259 C3265 0.950 . S
H3260 C3266 0.949 . S
C3261 H3256 0.950 . S
C3261 C3263 1.327 . S
C3261 C3267 1.429 . S
C3262 C3254 1.574 . S
C3262 H3257 0.949 . S
C3262 C3268 1.368 . S
C3263 C3247 1.349 . S
C3263 H3255 0.950 . S
C3263 C3261 1.327 . S
C3264 C3252 1.349 . S
C3264 H3258 0.950 . S
C3264 C3265 1.327 . S
C3265 H3259 0.950 . S
C3265 C3264 1.327 . S
C3265 C3269 1.429 . S
C3266 C3249 1.574 . S
C3266 H3260 0.949 . S
C3266 C3270 1.368 . S
C3267 C3248 1.429 . S
C3267 C3261 1.429 . S
C3267 C3268 1.523 . S
C3268 C3249 1.368 . S
C3268 C3262 1.368 . S
C3268 C3267 1.523 . S
C3269 C3253 1.429 . S
C3269 C3265 1.429 . S
C3269 C3270 1.523 . S
C3270 C3254 1.368 . S
C3270 C3266 1.368 . S
C3270 C3269 1.523 . S
H3271 C3246 0.950 . S
H3272 C3248 0.950 . S
H3273 C3249 0.949 . S
H3274 C3251 0.950 . S
H3275 C3253 0.950 . S
C3276 C3277 1.349 . S
C3276 C3278 1.327 . S
C3276 H3301 0.950 . S
C3277 C3276 1.349 . S
C3277 C3293 1.349 . S
C3278 C3276 1.327 . S
C3278 C3297 1.429 . S
C3278 H3302 0.950 . S
C3279 C3296 1.574 . S
C3279 C3298 1.368 . S
C3279 H3303 0.949 . S
H3280 C3284 0.949 . S
C3281 C3282 1.349 . S
C3281 C3283 1.327 . S
C3281 H3304 0.950 . S
C3282 C3281 1.349 . S
C3282 C3294 1.349 . S
C3283 C3281 1.327 . S
C3283 C3299 1.429 . S
C3283 H3305 0.950 . S
C3284 H3280 0.949 . S
C3284 C3292 1.574 . S
C3284 C3300 1.368 . S
H3285 C3293 0.950 . S
H3286 C3291 0.950 . S
H3287 C3292 0.949 . S
H3288 C3294 0.950 . S
H3289 C3295 0.950 . S
H3290 C3296 0.949 . S
C3291 H3286 0.950 . S
C3291 C3293 1.327 . S
C3291 C3297 1.429 . S
C3292 C3284 1.574 . S
C3292 H3287 0.949 . S
C3292 C3298 1.368 . S
C3293 C3277 1.349 . S
C3293 H3285 0.950 . S
C3293 C3291 1.327 . S
C3294 C3282 1.349 . S
C3294 H3288 0.950 . S
C3294 C3295 1.327 . S
C3295 H3289 0.950 . S
C3295 C3294 1.327 . S
C3295 C3299 1.429 . S
C3296 C3279 1.574 . S
C3296 H3290 0.949 . S
C3296 C3300 1.368 . S
C3297 C3278 1.429 . S
C3297 C3291 1.429 . S
C3297 C3298 1.523 . S
C3298 C3279 1.368 . S
C3298 C3292 1.368 . S
C3298 C3297 1.523 . S
C3299 C3283 1.429 . S
C3299 C3295 1.429 . S
C3299 C3300 1.523 . S
C3300 C3284 1.368 . S
C3300 C3296 1.368 . S
C3300 C3299 1.523 . S
H3301 C3276 0.950 . S
H3302 C3278 0.950 . S
H3303 C3279 0.949 . S
H3304 C3281 0.950 . S
H3305 C3283 0.950 . S
C3306 C3307 1.349 . S
C3306 C3308 1.327 . S
C3306 H3331 0.950 . S
C3307 C3306 1.349 . S
C3307 C3323 1.349 . S
C3308 C3306 1.327 . S
C3308 C3327 1.429 . S
C3308 H3332 0.950 . S
C3309 C3326 1.574 . S
C3309 C3328 1.368 . S
C3309 H3333 0.949 . S
H3310 C3314 0.949 . S
C3311 C3312 1.349 . S
C3311 C3313 1.327 . S
C3311 H3334 0.950 . S
C3312 C3311 1.349 . S
C3312 C3324 1.349 . S
C3313 C3311 1.327 . S
C3313 C3329 1.429 . S
C3313 H3335 0.950 . S
C3314 H3310 0.949 . S
C3314 C3322 1.574 . S
C3314 C3330 1.368 . S
H3315 C3323 0.950 . S
H3316 C3321 0.950 . S
H3317 C3322 0.949 . S
H3318 C3324 0.950 . S
H3319 C3325 0.950 . S
H3320 C3326 0.949 . S
C3321 H3316 0.950 . S
C3321 C3323 1.327 . S
C3321 C3327 1.429 . S
C3322 C3314 1.574 . S
C3322 H3317 0.949 . S
C3322 C3328 1.368 . S
C3323 C3307 1.349 . S
C3323 H3315 0.950 . S
C3323 C3321 1.327 . S
C3324 C3312 1.349 . S
C3324 H3318 0.950 . S
C3324 C3325 1.327 . S
C3325 H3319 0.950 . S
C3325 C3324 1.327 . S
C3325 C3329 1.429 . S
C3326 C3309 1.574 . S
C3326 H3320 0.949 . S
C3326 C3330 1.368 . S
C3327 C3308 1.429 . S
C3327 C3321 1.429 . S
C3327 C3328 1.523 . S
C3328 C3309 1.368 . S
C3328 C3322 1.368 . S
C3328 C3327 1.523 . S
C3329 C3313 1.429 . S
C3329 C3325 1.429 . S
C3329 C3330 1.523 . S
C3330 C3314 1.368 . S
C3330 C3326 1.368 . S
C3330 C3329 1.523 . S
H3331 C3306 0.950 . S
H3332 C3308 0.950 . S
H3333 C3309 0.949 . S
H3334 C3311 0.950 . S
H3335 C3313 0.950 . S
C3336 C3337 1.349 . S
C3336 C3338 1.327 . S
C3336 H3361 0.950 . S
C3337 C3336 1.349 . S
C3337 C3353 1.349 . S
C3338 C3336 1.327 . S
C3338 C3357 1.429 . S
C3338 H3362 0.950 . S
C3339 C3356 1.574 1_554 S
C3339 C3358 1.368 . S
C3339 H3363 0.949 . S
H3340 C3344 0.949 . S
C3341 C3342 1.349 . S
C3341 C3343 1.327 . S
C3341 H3364 0.950 . S
C3342 C3341 1.349 . S
C3342 C3354 1.349 . S
C3343 C3341 1.327 . S
C3343 C3359 1.429 . S
C3343 H3365 0.950 . S
C3344 H3340 0.949 . S
C3344 C3352 1.574 1_556 S
C3344 C3360 1.368 . S
H3345 C3353 0.950 . S
H3346 C3351 0.950 . S
H3347 C3352 0.949 . S
H3348 C3354 0.950 . S
H3349 C3355 0.950 . S
H3350 C3356 0.949 . S
C3351 H3346 0.950 . S
C3351 C3353 1.327 . S
C3351 C3357 1.429 . S
C3352 C3344 1.574 1_554 S
C3352 H3347 0.949 . S
C3352 C3358 1.368 . S
C3353 C3337 1.349 . S
C3353 H3345 0.950 . S
C3353 C3351 1.327 . S
C3354 C3342 1.349 . S
C3354 H3348 0.950 . S
C3354 C3355 1.327 . S
C3355 H3349 0.950 . S
C3355 C3354 1.327 . S
C3355 C3359 1.429 . S
C3356 C3339 1.574 1_556 S
C3356 H3350 0.949 . S
C3356 C3360 1.368 . S
C3357 C3338 1.429 . S
C3357 C3351 1.429 . S
C3357 C3358 1.523 . S
C3358 C3339 1.368 . S
C3358 C3352 1.368 . S
C3358 C3357 1.523 . S
C3359 C3343 1.429 . S
C3359 C3355 1.429 . S
C3359 C3360 1.523 . S
C3360 C3344 1.368 . S
C3360 C3356 1.368 . S
C3360 C3359 1.523 . S
H3361 C3336 0.950 . S
H3362 C3338 0.950 . S
H3363 C3339 0.949 . S
H3364 C3341 0.950 . S
H3365 C3343 0.950 . S
C3366 C3367 1.349 . S
C3366 C3368 1.320 1_455 S
C3366 H3391 0.950 1_455 S
C3367 C3366 1.349 . S
C3367 C3383 1.349 . S
C3368 C3366 1.320 1_655 S
C3368 C3387 1.414 1_655 S
C3368 H3392 0.973 . S
C3369 C3386 1.574 . S
C3369 C3388 1.368 . S
C3369 H3393 0.949 . S
H3370 C3374 0.949 . S
C3371 C3372 1.349 . S
C3371 C3373 1.320 1_655 S
C3371 H3394 0.950 1_655 S
C3372 C3371 1.349 . S
C3372 C3384 1.349 . S
C3373 C3371 1.320 1_455 S
C3373 C3389 1.414 1_455 S
C3373 H3395 0.973 . S
C3374 H3370 0.949 . S
C3374 C3382 1.574 . S
C3374 C3390 1.368 . S
H3375 C3383 0.950 . S
H3376 C3381 0.950 . S
H3377 C3382 0.949 . S
H3378 C3384 0.950 . S
H3379 C3385 0.950 . S
H3380 C3386 0.949 . S
C3381 H3376 0.950 . S
C3381 C3383 1.327 . S
C3381 C3387 1.429 . S
C3382 C3374 1.574 . S
C3382 H3377 0.949 . S
C3382 C3388 1.368 1_655 S
C3383 C3367 1.349 . S
C3383 H3375 0.950 . S
C3383 C3381 1.327 . S
C3384 C3372 1.349 . S
C3384 H3378 0.950 . S
C3384 C3385 1.327 . S
C3385 H3379 0.950 . S
C3385 C3384 1.327 . S
C3385 C3389 1.429 . S
C3386 C3369 1.574 . S
C3386 H3380 0.949 . S
C3386 C3390 1.368 1_455 S
C3387 C3368 1.414 1_455 S
C3387 C3381 1.429 . S
C3387 C3388 1.523 . S
C3388 C3369 1.368 . S
C3388 C3382 1.368 1_455 S
C3388 C3387 1.523 . S
C3389 C3373 1.414 1_655 S
C3389 C3385 1.429 . S
C3389 C3390 1.523 . S
C3390 C3374 1.368 . S
C3390 C3386 1.368 1_655 S
C3390 C3389 1.523 . S
H3391 C3366 0.950 1_655 S
H3392 C3368 0.973 . S
H3393 C3369 0.949 . S
H3394 C3371 0.950 1_455 S
H3395 C3373 0.973 . S
C3396 C3397 1.349 . S
C3396 C3398 1.327 . S
C3396 H3421 0.950 . S
C3397 C3396 1.349 . S
C3397 C3413 1.349 . S
C3398 C3396 1.327 . S
C3398 C3417 1.429 . S
C3398 H3422 0.950 . S
C3399 C3416 1.574 1_556 S
C3399 C3418 1.368 1_655 S
C3399 H3423 0.949 . S
H3400 C3404 0.949 . S
C3401 C3402 1.349 . S
C3401 C3403 1.327 . S
C3401 H3424 0.950 . S
C3402 C3401 1.349 . S
C3402 C3414 1.349 . S
C3403 C3401 1.327 . S
C3403 C3419 1.429 . S
C3403 H3425 0.950 . S
C3404 H3400 0.949 . S
C3404 C3412 1.574 1_554 S
C3404 C3420 1.368 1_455 S
H3405 C3413 0.950 . S
H3406 C3411 0.933 1_655 S
H3407 C3412 0.949 . S
H3408 C3414 0.950 . S
H3409 C3415 0.933 1_455 S
H3410 C3416 0.949 . S
C3411 H3406 0.933 1_455 S
C3411 C3413 1.327 . S
C3411 C3417 1.429 . S
C3412 C3404 1.574 1_556 S
C3412 H3407 0.949 . S
C3412 C3418 1.368 . S
C3413 C3397 1.349 . S
C3413 H3405 0.950 . S
C3413 C3411 1.327 . S
C3414 C3402 1.349 . S
C3414 H3408 0.950 . S
C3414 C3415 1.327 . S
C3415 H3409 0.933 1_655 S
C3415 C3414 1.327 . S
C3415 C3419 1.429 . S
C3416 C3399 1.574 1_554 S
C3416 H3410 0.949 . S
C3416 C3420 1.368 . S
C3417 C3398 1.429 . S
C3417 C3411 1.429 . S
C3417 C3418 1.523 . S
C3418 C3399 1.368 1_455 S
C3418 C3412 1.368 . S
C3418 C3417 1.523 . S
C3419 C3403 1.429 . S
C3419 C3415 1.429 . S
C3419 C3420 1.523 . S
C3420 C3404 1.368 1_655 S
C3420 C3416 1.368 . S
C3420 C3419 1.523 . S
H3421 C3396 0.950 . S
H3422 C3398 0.950 . S
H3423 C3399 0.949 . S
H3424 C3401 0.950 . S
H3425 C3403 0.950 . S
C3426 C3427 1.349 . S
C3426 C3428 1.327 . S
C3426 H3451 0.950 . S
C3427 C3426 1.349 . S
C3427 C3443 1.349 . S
C3428 C3426 1.327 . S
C3428 C3447 1.429 . S
C3428 H3452 0.950 . S
C3429 C3446 1.574 . S
C3429 C3448 1.368 . S
C3429 H3453 0.949 . S
H3430 C3434 0.949 . S
C3431 C3432 1.349 . S
C3431 C3433 1.327 . S
C3431 H3454 0.950 . S
C3432 C3431 1.349 . S
C3432 C3444 1.349 . S
C3433 C3431 1.327 . S
C3433 C3449 1.429 . S
C3433 H3455 0.950 . S
C3434 H3430 0.949 . S
C3434 C3442 1.574 . S
C3434 C3450 1.368 . S
H3435 C3443 0.950 . S
H3436 C3441 0.950 . S
H3437 C3442 0.949 . S
H3438 C3444 0.950 . S
H3439 C3445 0.950 . S
H3440 C3446 0.949 . S
C3441 H3436 0.950 . S
C3441 C3443 1.327 . S
C3441 C3447 1.429 . S
C3442 C3434 1.574 . S
C3442 H3437 0.949 . S
C3442 C3448 1.368 . S
C3443 C3427 1.349 . S
C3443 H3435 0.950 . S
C3443 C3441 1.327 . S
C3444 C3432 1.349 . S
C3444 H3438 0.950 . S
C3444 C3445 1.327 . S
C3445 H3439 0.950 . S
C3445 C3444 1.327 . S
C3445 C3449 1.429 . S
C3446 C3429 1.574 . S
C3446 H3440 0.949 . S
C3446 C3450 1.368 . S
C3447 C3428 1.429 . S
C3447 C3441 1.429 . S
C3447 C3448 1.523 . S
C3448 C3429 1.368 . S
C3448 C3442 1.368 . S
C3448 C3447 1.523 . S
C3449 C3433 1.429 . S
C3449 C3445 1.429 . S
C3449 C3450 1.523 . S
C3450 C3434 1.368 . S
C3450 C3446 1.368 . S
C3450 C3449 1.523 . S
H3451 C3426 0.950 . S
H3452 C3428 0.950 . S
H3453 C3429 0.949 . S
H3454 C3431 0.950 . S
H3455 C3433 0.950 . S
C1057 N608 0.936 . S
C1062 N14 0.936 . S
C1087 N47 0.936 . S
C1092 N641 0.936 . S
C1117 N80 0.936 . S
C1122 N542 0.936 . S
C1147 N575 0.936 . S
C1152 N113 0.936 . S
C1177 N146 0.936 . S
C1182 N740 0.936 . S
C1207 N773 0.936 . S
C1212 N179 0.936 . S
C1237 N212 0.936 . S
C1242 N674 0.936 . S
C1267 N245 0.936 . S
C1272 N707 0.936 . S
C1297 N278 0.936 . S
C1302 N872 0.936 . S
C1327 N905 0.936 . S
C1332 N311 0.936 . S
C1357 N344 0.936 . S
C1362 N806 0.936 . S
C1387 N377 0.936 . S
C1392 N839 0.936 . S
C1417 N410 0.936 . S
C1422 N1004 0.936 . S
C1447 N1037 0.936 . S
C1452 N443 0.936 . S
C1477 N938 0.936 . S
C1482 N476 0.936 . S
C1507 N971 0.936 . S
C1512 N509 0.936 . S
C1537 C371 0.526 . S
C1542 C28 0.537 . S
C1567 C800 0.526 . S
C1572 C61 0.537 . S
C1597 C94 0.537 . S
C1602 C305 0.526 . S
C1627 C866 0.525 . S
C1632 C127 0.537 . S
C1657 C437 0.525 . S
C1662 C160 0.537 . S
C1687 C193 0.537 . S
C1692 C998 0.526 . S
C1717 C503 0.526 . S
C1722 C226 0.537 . S
C1747 C932 0.526 . S
C1752 C259 0.537 . S
C1777 C107 0.526 . S
C1782 C292 0.537 . S
C1807 C325 0.537 . S
C1812 C536 0.526 . S
C1837 C358 0.537 . S
C1842 C41 0.526 . S
C1867 C602 0.525 . S
C1872 C391 0.537 . S
C1897 C424 0.537 . S
C1902 C173 0.525 . S
C1927 C734 0.526 . S
C1932 C457 0.537 . S
C1957 C490 0.537 . S
C1962 C239 0.526 . S
C1987 C523 0.537 . S
C1992 C668 0.526 . S
C2017 C899 0.526 . S
C2022 C556 0.537 . S
C2047 C589 0.537 . S
C2052 C272 0.526 . S
C2077 C622 0.537 . S
C2082 C833 0.526 . S
C2107 C338 0.525 . S
C2112 C655 0.537 . S
C2137 C688 0.537 . S
C2142 C965 0.525 . S
C2167 C721 0.537 . S
C2172 C470 0.526 . S
C2197 C1031 0.526 . S
C2202 C754 0.537 . S
C2227 C404 0.526 . S
C2232 C787 0.537 . S
C2257 C635 0.526 . S
C2262 C820 0.537 . S
C2287 C853 0.537 . S
C2292 C8 0.526 . S
C2317 C886 0.537 . S
C2322 C569 0.526 . S
C2347 C74 0.525 . S
C2352 C919 0.537 . S
C2377 C952 0.537 . S
C2382 C701 0.525 . S
C2407 C985 0.537 . S
C2412 C206 0.526 . S
C2437 C767 0.526 . S
C2442 C1018 0.537 . S
C2467 C140 0.526 . S
C2472 C1051 0.537 . S
C2497 N236 1.943 . S
C2502 N5 1.943 . S
C2527 N137 1.943 . S
C2532 N38 1.943 . S
C2557 N71 1.943 . S
C2562 N170 1.943 . S
C2587 N203 1.943 . S
C2592 N104 1.943 . S
C2617 N500 1.943 . S
C2622 N269 1.943 . S
C2647 N302 1.943 . S
C2652 N401 1.943 . S
C2677 N434 1.943 . S
C2682 N335 1.943 . S
C2707 N467 1.943 . S
C2712 N368 1.943 . S
C2737 N764 1.943 . S
C2742 N533 1.943 . S
C2767 N665 1.943 . S
C2772 N566 1.943 . S
C2797 N698 1.943 . S
C2802 N599 1.943 . S
C2827 N731 1.943 . S
C2832 N632 1.943 . S
C2857 N797 1.943 . S
C2862 N1028 1.943 . S
C2887 N830 1.943 . S
C2892 N929 1.943 . S
C2917 N863 1.943 . S
C2922 N962 1.943 . S
C2947 N995 1.943 . S
C2952 N896 1.943 . S
C2977 C17 1.311 . S
C2982 C809 1.311 . S
C3007 C314 1.311 . S
C3012 C50 1.311 . S
C3037 C875 1.311 . S
C3042 C83 1.311 . S
C3067 C116 1.311 . S
C3072 C380 1.311 . S
C3097 C149 1.311 . S
C3102 C941 1.311 . S
C3127 C182 1.311 . S
C3132 C446 1.311 . S
C3157 C1007 1.311 . S
C3162 C215 1.311 . S
C3187 C248 1.311 . S
C3192 C512 1.311 . S
C3217 C545 1.311 . S
C3222 C281 1.311 . S
C3247 C611 1.311 . S
C3252 C347 1.311 . S
C3277 C413 1.311 . S
C3282 C677 1.311 . S
C3307 C479 1.311 . S
C3312 C743 1.311 . S
C3337 C842 1.311 . S
C3342 C578 1.311 . S
C3367 C908 1.311 . S
C3372 C644 1.311 . S
C3397 C974 1.311 . S
C3402 C710 1.311 . S
C3427 C1040 1.311 . S
C3432 C776 1.311 . S
