# Generated by pormake.
# Topology wjs, (5)-cn, num edge types: 1
# Building blocks:
#     Node 0, Type 0, BuildingBlock: BEQFEK_clean_sbu_0, # of connection points: 5
#     Node 1, Type 0, BuildingBlock: BEQFEK_clean_sbu_0, # of connection points: 5
#     Node 2, Type 0, BuildingBlock: BEQFEK_clean_sbu_0, # of connection points: 5
#     Node 3, Type 0, BuildingBlock: BEQFEK_clean_sbu_0, # of connection points: 5
#     Node 4, Type 0, BuildingBlock: BEQFEK_clean_sbu_0, # of connection points: 5
#     Node 5, Type 0, BuildingBlock: BEQFEK_clean_sbu_0, # of connection points: 5
#     Node 6, Type 0, BuildingBlock: BEQFEK_clean_sbu_0, # of connection points: 5
#     Node 7, Type 0, BuildingBlock: BEQFEK_clean_sbu_0, # of connection points: 5
#     Node 8, Type 0, BuildingBlock: BEQFEK_clean_sbu_0, # of connection points: 5
#     Node 9, Type 0, BuildingBlock: BEQFEK_clean_sbu_0, # of connection points: 5
#     Node 10, Type 0, BuildingBlock: BEQFEK_clean_sbu_0, # of connection points: 5
#     Node 11, Type 0, BuildingBlock: BEQFEK_clean_sbu_0, # of connection points: 5
#     Edge 12, Type (0, 0), BuildingBlock: EZIPEK_clean_linker_0, # of connection points: 2
#     Edge 13, Type (0, 0), BuildingBlock: EZIPEK_clean_linker_0, # of connection points: 2
#     Edge 14, Type (0, 0), BuildingBlock: EZIPEK_clean_linker_0, # of connection points: 2
#     Edge 15, Type (0, 0), BuildingBlock: EZIPEK_clean_linker_0, # of connection points: 2
#     Edge 16, Type (0, 0), BuildingBlock: EZIPEK_clean_linker_0, # of connection points: 2
#     Edge 17, Type (0, 0), BuildingBlock: EZIPEK_clean_linker_0, # of connection points: 2
#     Edge 18, Type (0, 0), BuildingBlock: EZIPEK_clean_linker_0, # of connection points: 2
#     Edge 19, Type (0, 0), BuildingBlock: EZIPEK_clean_linker_0, # of connection points: 2
#     Edge 20, Type (0, 0), BuildingBlock: EZIPEK_clean_linker_0, # of connection points: 2
#     Edge 21, Type (0, 0), BuildingBlock: EZIPEK_clean_linker_0, # of connection points: 2
#     Edge 22, Type (0, 0), BuildingBlock: EZIPEK_clean_linker_0, # of connection points: 2
#     Edge 23, Type (0, 0), BuildingBlock: EZIPEK_clean_linker_0, # of connection points: 2
#     Edge 24, Type (0, 0), BuildingBlock: EZIPEK_clean_linker_0, # of connection points: 2
#     Edge 25, Type (0, 0), BuildingBlock: EZIPEK_clean_linker_0, # of connection points: 2
#     Edge 26, Type (0, 0), BuildingBlock: EZIPEK_clean_linker_0, # of connection points: 2
#     Edge 27, Type (0, 0), BuildingBlock: EZIPEK_clean_linker_0, # of connection points: 2
#     Edge 28, Type (0, 0), BuildingBlock: EZIPEK_clean_linker_0, # of connection points: 2
#     Edge 29, Type (0, 0), BuildingBlock: EZIPEK_clean_linker_0, # of connection points: 2
#     Edge 30, Type (0, 0), BuildingBlock: EZIPEK_clean_linker_0, # of connection points: 2
#     Edge 31, Type (0, 0), BuildingBlock: EZIPEK_clean_linker_0, # of connection points: 2
#     Edge 32, Type (0, 0), BuildingBlock: EZIPEK_clean_linker_0, # of connection points: 2
#     Edge 33, Type (0, 0), BuildingBlock: EZIPEK_clean_linker_0, # of connection points: 2
#     Edge 34, Type (0, 0), BuildingBlock: EZIPEK_clean_linker_0, # of connection points: 2
#     Edge 35, Type (0, 0), BuildingBlock: EZIPEK_clean_linker_0, # of connection points: 2
#     Edge 36, Type (0, 0), BuildingBlock: EZIPEK_clean_linker_0, # of connection points: 2
#     Edge 37, Type (0, 0), BuildingBlock: EZIPEK_clean_linker_0, # of connection points: 2
#     Edge 38, Type (0, 0), BuildingBlock: EZIPEK_clean_linker_0, # of connection points: 2
#     Edge 39, Type (0, 0), BuildingBlock: EZIPEK_clean_linker_0, # of connection points: 2
#     Edge 40, Type (0, 0), BuildingBlock: EZIPEK_clean_linker_0, # of connection points: 2
#     Edge 41, Type (0, 0), BuildingBlock: EZIPEK_clean_linker_0, # of connection points: 2
# Relax obj value: 0.280
# Max RMSD: 0.228
# Mean RMSD: 0.228
data_MOF--net-wjs--node1-BEQFEK_clean_sbu_0--edge1-EZIPEK_clean_linker_0
_symmetry_space_group_name_H-M    P1
_symmetry_Int_Tables_number       1
_symmetry_cell_setting            triclinic
loop_
_symmetry_equiv_pos_as_xyz
'x, y, z'
_cell_length_a     23.190862
_cell_length_b     23.227948
_cell_length_c     56.239726
_cell_angle_alpha  90.199407
_cell_angle_beta   89.964737
_cell_angle_gamma 119.99666
loop_
_atom_site_label
_atom_site_type_symbol
_atom_site_fract_x
_atom_site_fract_y
_atom_site_fract_z
_atom_type_partial_charge
Co0 Co 0.2295 0.30397 0.02083 0.0
Co1 Co 0.1823 0.40127 0.00324 0.0
C2 C 0.20233 0.31156 0.96986 0.0
O3 O 0.21834 0.28606 0.98674 0.0
O4 O 0.18553 0.35543 0.9735 0.0
C5 C 0.28632 0.21944 0.03061 0.0
O6 O 0.32023 0.23868 0.01069 0.0
C7 C 0.0815 0.43039 0.98342 0.0
C8 C 0.10648 0.52399 0.00188 0.0
C9 C 0.05982 0.47579 0.98683 0.0
N10 N 0.13696 0.44972 -0.00344 0.0
N11 N 0.15174 0.506 0.0074 0.0
C12 C 0.04975 0.36907 0.96834 0.0
H13 H 0.08314 0.37558 0.9532 0.0
H14 H 0.04378 0.32613 0.9789 0.0
H15 H 1.00074 0.3589 0.96139 0.0
C16 C 0.11843 0.26371 0.05391 0.0
N17 N 0.15496 0.29943 0.03522 0.0
N18 N 0.13456 0.34022 0.02828 0.0
C19 C 0.08382 0.33136 0.04251 0.0
C20 C 0.07199 0.28254 0.05906 0.0
C21 C 0.13162 0.21677 0.06787 0.0
H22 H 0.18406 0.24286 0.07408 0.0
H23 H 0.12409 0.17513 0.05616 0.0
H24 H 0.09816 0.19642 0.08347 0.0
O25 O 0.30835 0.39067 0.0248 0.0
O26 O 0.2798 0.4634 0.01207 0.0
H27 H 0.08726 0.42496 0.04399 0.0
H28 H 0.01093 0.35643 0.0554 0.0
C29 C 0.04999 0.37165 0.04158 0.0
H30 H 0.02637 0.36453 0.02401 0.0
H31 H 0.19176 0.53123 0.01906 0.0
O32 O 0.24752 0.24066 0.03649 0.0
C33 C 0.32341 0.45003 0.02019 0.0
Co34 Co 0.93049 0.24381 0.19719 0.0
Co35 Co 0.79351 0.18264 0.17095 0.0
C36 C 0.90913 0.21148 0.14344 0.0
O37 O 0.94305 0.23278 0.16265 0.0
O38 O 0.84584 0.18583 0.143 0.0
C39 C 0.07014 0.29346 0.20981 0.0
O40 O 0.08779 0.31748 0.18825 0.0
C41 C 0.65339 0.10066 0.15096 0.0
C42 C 0.60208 0.07983 0.18565 0.0
C43 C 0.59098 0.06294 0.16177 0.0
N44 N 0.69841 0.1362 0.16803 0.0
N45 N 0.66661 0.12446 0.18849 0.0
C46 C 0.67042 0.10374 0.12518 0.0
H47 H 0.70355 0.15632 0.11996 0.0
H48 H 0.69854 0.07724 0.12227 0.0
H49 H 0.62493 0.08101 0.11395 0.0
C50 C 0.85489 0.12721 0.22771 0.0
N51 N 0.85998 0.16641 0.20931 0.0
N52 N 0.80781 0.1348 0.1955 0.0
C53 C 0.77022 0.07219 0.2037 0.0
C54 C 0.79786 0.06614 0.22469 0.0
C55 C 0.90236 0.14796 0.24818 0.0
H56 H 0.93046 0.20283 0.25005 0.0
H57 H 0.93756 0.12955 0.24522 0.0
H58 H 0.87502 0.12538 0.26491 0.0
O59 O 0.91747 0.3193 0.19962 0.0
O60 O 0.82575 0.28072 0.17792 0.0
H61 H 0.66511 0.00798 0.19948 0.0
H62 H 0.71385 0.9703 0.19257 0.0
C63 C 0.71203 0.01701 0.191 0.0
H64 H 0.71216 0.02903 0.17194 0.0
H65 H 0.6899 0.1444 0.20473 0.0
O66 O 0.0093 0.263 0.21575 0.0
C67 C 0.87451 0.32844 0.18899 0.0
Co68 Co 0.70851 0.91268 0.35303 0.0
Co69 Co 0.61301 0.76846 0.33233 0.0
C70 C 0.70949 0.884 0.30188 0.0
O71 O 0.7325 0.92379 0.31947 0.0
O72 O 0.66461 0.82301 0.30421 0.0
C73 C 0.78744 0.05317 0.36834 0.0
O74 O 0.77157 0.07205 0.3486 0.0
C75 C 0.58512 0.63526 0.31522 0.0
C76 C 0.47784 0.57381 0.32295 0.0
C77 C 0.53236 0.57011 0.31489 0.0
N78 N 0.56289 0.67541 0.32338 0.0
N79 N 0.49838 0.63821 0.32754 0.0
C80 C 0.65612 0.65833 0.3091 0.0
H81 H 0.68951 0.70811 0.31694 0.0
H82 H 0.67042 0.62189 0.31533 0.0
H83 H 0.66178 0.66192 0.28948 0.0
C84 C 0.74816 0.8382 0.38429 0.0
N85 N 0.71188 0.84045 0.36602 0.0
N86 N 0.67055 0.77973 0.35854 0.0
C87 C 0.6784 0.73688 0.37248 0.0
C88 C 0.72852 0.77273 0.38884 0.0
C89 C 0.7976 0.89732 0.39821 0.0
H90 H 0.77281 0.92321 0.40604 0.0
H91 H 0.83713 0.93167 0.38597 0.0
H92 H 0.82062 0.88337 0.41272 0.0
O93 O 0.61942 0.90204 0.35469 0.0
O94 O 0.54952 0.80127 0.34058 0.0
H95 H 0.58279 0.65097 0.36785 0.0
H96 H 0.63486 0.64054 0.38928 0.0
C97 C 0.6344 0.66332 0.37204 0.0
H98 H 0.65266 0.64208 0.35831 0.0
H99 H 0.46886 0.65641 0.33453 0.0
O100 O 0.76735 0.9921 0.37192 0.0
C101 C 0.56091 0.85728 0.3489 0.0
Co102 Co 0.78336 0.6864 0.52482 0.0
Co103 Co 0.8243 0.58891 0.50058 0.0
C104 C 0.80867 0.69246 0.47342 0.0
O105 O 0.79778 0.71677 0.49204 0.0
O106 O 0.82044 0.64443 0.47424 0.0
C107 C 0.72885 0.76898 0.53911 0.0
O108 O 0.69553 0.75088 0.51901 0.0
C109 C 0.92188 0.56534 0.47461 0.0
C110 C 0.90138 0.46884 0.48916 0.0
C111 C 0.94528 0.52061 0.47475 0.0
N112 N 0.8679 0.54186 0.48885 0.0
N113 N 0.85538 0.48354 0.49712 0.0
C114 C 0.95182 0.63073 0.46212 0.0
H115 H 0.91541 0.62946 0.44903 0.0
H116 H 0.96192 0.6706 0.4752 0.0
H117 H 0.99838 0.64194 0.45272 0.0
C118 C 0.89681 0.71561 0.55523 0.0
N119 N 0.85625 0.68265 0.5369 0.0
N120 N 0.87304 0.641 0.5277 0.0
C121 C 0.92452 0.6454 0.54047 0.0
C122 C 0.9416 0.69339 0.55805 0.0
C123 C 0.8905 0.76512 0.57048 0.0
H124 H 0.84035 0.74099 0.57871 0.0
H125 H 0.89568 0.80651 0.5592 0.0
H126 H 0.92862 0.78538 0.58476 0.0
O127 O 0.70154 0.59959 0.5241 0.0
O128 O 0.72682 0.52722 0.50809 0.0
H129 H 0.9145 0.54893 0.53956 0.0
H130 H 0.9951 0.61389 0.54987 0.0
C131 C 0.95386 0.60154 0.53718 0.0
H132 H 0.97305 0.60736 0.51896 0.0
H133 H 0.81733 0.45523 0.50912 0.0
O134 O 0.76751 0.74714 0.54453 0.0
C135 C 0.68414 0.54138 0.5166 0.0
Co136 Co 0.07741 0.77534 0.69012 0.0
Co137 Co 0.22037 0.80768 0.67494 0.0
C138 C 0.10729 0.78505 0.64032 0.0
O139 O 0.06701 0.78104 0.65643 0.0
O140 O 0.16529 0.79445 0.64516 0.0
C141 C 0.939 0.71584 0.706 0.0
O142 O 0.92031 0.67498 0.68775 0.0
C143 C 0.35068 0.91323 0.6578 0.0
C144 C 0.41524 0.86975 0.66308 0.0
C145 C 0.41605 0.92715 0.65586 0.0
N146 N 0.31289 0.85057 0.66583 0.0
N147 N 0.35183 0.82467 0.66869 0.0
C148 C 0.32549 0.96022 0.65335 0.0
H149 H 0.2715 0.93643 0.65731 0.0
H150 H 0.35366 0.0055 0.66445 0.0
H151 H 0.33427 0.97609 0.63448 0.0
C152 C 0.15312 0.89762 0.71743 0.0
N153 N 0.1505 0.85224 0.70192 0.0
N154 N 0.21052 0.86163 0.69847 0.0
C155 C 0.25289 0.91084 0.71316 0.0
C156 C 0.21787 0.93562 0.72549 0.0
C157 C 0.09441 0.90396 0.72451 0.0
H158 H 0.06405 0.89809 0.70851 0.0
H159 H 0.11011 0.95292 0.73291 0.0
H160 H 0.06337 0.8641 0.7373 0.0
O161 O 0.08438 0.69517 0.69459 0.0
O162 O 0.1868 0.71537 0.68737 0.0
H163 H 0.33738 0.94185 0.73618 0.0
H164 H 0.35617 0.97479 0.70668 0.0
C165 C 0.32384 0.92967 0.71716 0.0
H166 H 0.3326 0.88883 0.71162 0.0
H167 H 0.33555 0.77696 0.67522 0.0
O168 O 0.99967 0.76004 0.70854 0.0
C169 C 0.12645 0.67539 0.69322 0.0
Co170 Co 0.34358 0.10793 0.85723 0.0
Co171 Co 0.40581 0.2426 0.82892 0.0
C172 C 0.31669 0.12008 0.80447 0.0
O173 O 0.31463 0.08944 0.82351 0.0
O174 O 0.34593 0.18335 0.80374 0.0
C175 C 0.2286 1.0013 0.87636 0.0
O176 O 0.20188 0.032 0.86528 0.0
C177 C 0.42607 0.36812 0.80576 0.0
C178 C 0.5191 0.44224 0.82331 0.0
C179 C 0.46973 0.43622 0.80798 0.0
N180 N 0.44828 0.33551 0.81951 0.0
N181 N 0.50445 0.38048 0.82964 0.0
C182 C 0.36312 0.33508 0.79157 0.0
H183 H 0.32637 0.28755 0.79996 0.0
H184 H 0.34184 0.36832 0.78968 0.0
H185 H 0.37447 0.32386 0.77355 0.0
C186 C 0.30465 0.18206 0.89 0.0
N187 N 0.3345 0.17737 0.87011 0.0
N188 N 0.35553 0.23176 0.85747 0.0
C189 C 0.33603 0.27095 0.86847 0.0
C190 C 0.30344 0.24079 0.88936 0.0
C191 C 0.28224 0.13418 0.91023 0.0
H192 H 0.22916 0.09603 0.90778 0.0
H193 H 0.28667 0.16011 0.92734 0.0
H194 H 0.313 0.11011 0.91102 0.0
O195 O 0.43451 0.12888 0.85764 0.0
O196 O 0.47632 0.21355 0.83242 0.0
H197 H 0.39953 0.37131 0.85799 0.0
H198 H 0.32062 0.35531 0.86997 0.0
C199 C 0.34558 0.33466 0.85884 0.0
H200 H 0.3243 0.32538 0.8407 0.0
H201 H 0.53144 0.36911 0.8417 0.0
O202 O 0.29094 0.02484 0.8751 0.0
C203 C 0.48147 0.16934 0.84436 0.0
Co204 Co 0.7006 0.79147 0.79477 0.0
Co205 Co 0.59965 0.83725 0.81076 0.0
C206 C 0.6859 0.81024 0.84497 0.0
O207 O 0.71726 0.79973 0.82856 0.0
O208 O 0.64048 0.82458 0.84058 0.0
C209 C 0.77353 0.72343 0.7809 0.0
O210 O 0.75006 0.68499 0.79965 0.0
C211 C 0.58459 0.9503 0.82638 0.0
C212 C 0.47847 0.91488 0.8193 0.0
C213 C 0.53724 0.97025 0.82659 0.0
N214 N 0.55547 0.88649 0.81899 0.0
N215 N 0.49176 0.86545 0.8151 0.0
C216 C 0.65722 0.99255 0.83182 0.0
H217 H 0.68533 0.96845 0.82545 0.0
H218 H 0.6772 0.04239 0.82366 0.0
H219 H 0.66409 0.99972 0.85133 0.0
C220 C 0.75019 0.90897 0.76486 0.0
N221 N 0.70919 0.86913 0.78193 0.0
N222 N 0.66438 0.8862 0.78686 0.0
C223 C 0.67417 0.93624 0.77219 0.0
C224 C 0.72951 0.95276 0.75815 0.0
C225 C 0.80398 0.90091 0.75348 0.0
H226 H 0.78151 0.85312 0.74359 0.0
H227 H 0.83672 0.89999 0.7676 0.0
H228 H 0.83426 0.94201 0.741 0.0
O229 O 0.6114 0.71525 0.7907 0.0
O230 O 0.53556 0.74375 0.79932 0.0
H231 H 0.62787 0.97953 0.751 0.0
H232 H 0.64381 0.00619 0.78127 0.0
C233 C 0.62742 0.96253 0.76943 0.0
H234 H 0.57602 0.92387 0.7741 0.0
H235 H 0.45787 0.81816 0.80864 0.0
O236 O 0.75974 0.76914 0.7774 0.0
C237 C 0.55095 0.7002 0.79292 0.0
Co238 Co 0.90725 0.68153 0.94896 0.0
Co239 Co 0.78029 0.60484 0.97929 0.0
C240 C 0.89939 0.69059 0.00373 0.0
O241 O 0.92856 0.69603 0.98391 0.0
O242 O 0.8363 0.66476 0.00486 0.0
C243 C 0.01908 0.80158 0.93101 0.0
O244 O 0.99792 0.8318 0.94538 0.0
C245 C 0.65116 0.56902 0.00231 0.0
C246 C 0.5871 0.46549 0.99032 0.0
C247 C 0.58553 0.51708 0.00221 0.0
N248 N 0.68941 0.54966 0.99052 0.0
N249 N 0.65073 0.48714 0.98383 0.0
C250 C 0.67641 0.63705 0.0125 0.0
H251 H 0.72239 0.67379 0.0032 0.0
H252 H 0.63774 0.65179 0.01139 0.0
H253 H 0.68863 0.63651 0.03154 0.0
C254 C 0.82757 0.72856 0.92367 0.0
N255 N 0.83676 0.69423 0.94106 0.0
N256 N 0.78083 0.65882 0.95279 0.0
C257 C 0.73434 0.67066 0.94313 0.0
C258 C 0.76275 0.71543 0.92463 0.0
C259 C 0.87675 0.76636 0.90453 0.0
H260 H 0.91352 0.81637 0.91128 0.0
H261 H 0.85219 0.77275 0.88863 0.0
H262 H 0.90274 0.73942 0.89927 0.0
O263 O 0.88236 0.59044 0.94078 0.0
O264 O 0.82922 0.55133 0.97447 0.0
H265 H 0.64677 0.58154 0.95162 0.0
H266 H 0.63146 0.6399 0.93561 0.0
C267 C 0.66251 0.63465 0.94947 0.0
H268 H 0.65509 0.65501 0.96624 0.0
H269 H 0.6671 0.46031 0.97373 0.0
O270 O 0.98807 0.73875 0.93016 0.0
C271 C 0.86812 0.55152 0.95825 0.0
Co272 Co 0.20769 0.91532 0.12656 0.0
Co273 Co 0.1831 0.78046 0.14603 0.0
C274 C 0.18236 0.89556 0.1751 0.0
O275 O 0.17587 0.9253 0.15727 0.0
O276 O 0.18608 0.84268 0.17248 0.0
C277 C 0.27532 0.04775 0.1054 0.0
O278 O 0.31719 0.06884 0.12333 0.0
C279 C 0.07504 0.65199 0.16334 0.0
C280 C 0.12495 0.59317 0.16815 0.0
C281 C 0.06364 0.58961 0.16977 0.0
N282 N 0.1401 0.69088 0.15812 0.0
N283 N 0.1697 0.65538 0.16121 0.0
C284 C 0.02429 0.67351 0.16167 0.0
H285 H 0.048 0.72694 0.15698 0.0
H286 H 0.98653 0.64303 0.14806 0.0
H287 H 0.99799 0.66462 0.17893 0.0
C288 C 0.10207 0.83242 0.09433 0.0
N289 N 0.1429 0.83925 0.1123 0.0
N290 N 0.13626 0.78154 0.11787 0.0
C291 C 0.09327 0.73599 0.10214 0.0
C292 C 0.06987 0.76705 0.08685 0.0
C293 C 0.09351 0.88774 0.08475 0.0
H294 H 0.09592 0.9205 0.09956 0.0
H295 H 0.0452 0.86831 0.07535 0.0
H296 H 0.13435 0.9176 0.07209 0.0
O297 O 0.29265 0.91589 0.13147 0.0
O298 O 0.28089 0.81744 0.14001 0.0
H299 H 0.07768 0.65142 0.08161 0.0
H300 H 0.02842 0.63251 0.10798 0.0
C301 C 0.07851 0.66573 0.10052 0.0
H302 H 0.11602 0.65914 0.1105 0.0
H303 H 0.2202 0.67314 0.15807 0.0
O304 O 0.22786 0.98811 0.10475 0.0
C305 C 0.31798 0.87941 0.13576 0.0
Co306 Co 0.31205 0.21655 0.2966 0.0
Co307 Co 0.39819 0.15925 0.3176 0.0
C308 C 0.30888 0.18606 0.34827 0.0
O309 O 0.29362 0.20951 0.33046 0.0
O310 O 0.34537 0.15949 0.34601 0.0
C311 C 0.24484 0.28822 0.28136 0.0
O312 O 0.27448 0.33119 0.29868 0.0
C313 C 0.42557 0.0541 0.33444 0.0
C314 C 0.53235 0.09822 0.32597 0.0
C315 C 0.47811 0.04149 0.33488 0.0
N316 N 0.44767 0.11549 0.32557 0.0
N317 N 0.51178 0.14171 0.3208 0.0
C318 C 0.35518 0.00774 0.34165 0.0
H319 H 0.32144 0.02409 0.33416 0.0
H320 H 0.33956 0.95632 0.33574 0.0
H321 H 0.35182 0.00749 0.36133 0.0
C322 C 0.25953 0.09732 0.26716 0.0
N323 N 0.30061 0.13677 0.28438 0.0
N324 N 0.33916 0.11375 0.29152 0.0
C325 C 0.32497 0.05961 0.27819 0.0
C326 C 0.27325 0.047 0.26268 0.0
C327 C 0.21149 0.11046 0.25382 0.0
H328 H 0.2393 0.15793 0.24398 0.0
H329 H 0.17773 0.11513 0.26664 0.0
H330 H 0.18119 0.06991 0.24104 0.0
O331 O 0.40101 0.29153 0.29308 0.0
O332 O 0.46335 0.25677 0.31094 0.0
H333 H 0.41809 0.06219 0.2818 0.0
H334 H 0.36178 1.002 0.26038 0.0
C335 C 0.36527 0.02576 0.27789 0.0
H336 H 0.34579 0.98624 0.29155 0.0
H337 H 0.54113 0.18864 0.31333 0.0
O338 O 0.25367 0.23891 0.27893 0.0
C339 C 0.45647 0.30294 0.30146 0.0
Co340 Co 0.08506 0.29741 0.46376 0.0
Co341 Co 0.22843 0.40969 0.47818 0.0
C342 C 0.11425 0.32291 0.51317 0.0
O343 O 0.07382 0.28439 0.49746 0.0
O344 O 0.17227 0.3708 0.50793 0.0
C345 C 0.94797 0.22011 0.44579 0.0
O346 O 0.92815 0.24432 0.46306 0.0
C347 C 0.35834 0.43342 0.49555 0.0
C348 C 0.42328 0.54161 0.49116 0.0
C349 C 0.42361 0.48453 0.49804 0.0
N350 N 0.32096 0.45886 0.48751 0.0
N351 N 0.36015 0.52377 0.48515 0.0
C352 C 0.33268 0.36119 0.49995 0.0
H353 H 0.27801 0.33184 0.49722 0.0
H354 H 0.35791 0.34296 0.48784 0.0
H355 H 0.3449 0.35426 0.51842 0.0
C356 C 0.16052 0.24649 0.43919 0.0
N357 N 0.1583 0.29178 0.45344 0.0
N358 N 0.21815 0.34337 0.45581 0.0
C359 C 0.25987 0.33474 0.44139 0.0
C360 C 0.22456 0.27269 0.43045 0.0
C361 C 0.10171 0.17997 0.43359 0.0
H362 H 0.07087 0.15949 0.44978 0.0
H363 H 0.11761 0.1449 0.42705 0.0
H364 H 0.07094 0.18545 0.41968 0.0
O365 O 0.09288 0.3848 0.45831 0.0
O366 O 0.19547 0.46774 0.46459 0.0
H367 H 0.3403 0.3871 0.41675 0.0
H368 H 0.36462 0.3768 0.4459 0.0
C369 C 0.32974 0.38743 0.43599 0.0
H370 H 0.33826 0.43716 0.44122 0.0
H371 H 0.3442 0.55569 0.4788 0.0
O372 O 0.00837 0.23452 0.44466 0.0
C373 C 0.1348 0.44676 0.45895 0.0
Co374 Co 0.77792 0.09407 0.62112 0.0
Co375 Co 0.81681 0.2283 0.64826 0.0
C376 C 0.80792 0.10689 0.67194 0.0
O377 O 0.79987 0.0754 0.65254 0.0
O378 O 0.81558 0.16521 0.67253 0.0
C379 C 0.72637 0.9595 0.60474 0.0
O380 O 0.69624 0.94199 0.62542 0.0
C381 C 0.91341 0.34543 0.67633 0.0
C382 C 0.89383 0.42338 0.66315 0.0
C383 C 0.93729 0.41356 0.67716 0.0
N384 N 0.85975 0.31686 0.66184 0.0
N385 N 0.84765 0.36377 0.65446 0.0
C386 C 0.94253 0.30824 0.68817 0.0
H387 H 0.9539 0.28066 0.67455 0.0
H388 H 0.98822 0.34211 0.69833 0.0
H389 H 0.90509 0.27117 0.70048 0.0
C390 C 0.88837 0.18396 0.59088 0.0
N391 N 0.84702 0.17333 0.60921 0.0
N392 N 0.86391 0.22998 0.61993 0.0
C393 C 0.91657 0.27892 0.60828 0.0
C394 C 0.93416 0.25104 0.58981 0.0
C395 C 0.88443 0.13058 0.57482 0.0
H396 H 0.83384 0.10254 0.56698 0.0
H397 H 0.89329 0.09556 0.5854 0.0
H398 H 0.92143 0.15119 0.56022 0.0
O399 O 0.69454 0.09516 0.62562 0.0
O400 O 0.71859 0.19177 0.64244 0.0
H401 H 0.91248 0.36794 0.61315 0.0
H402 H 0.99204 0.38168 0.60249 0.0
C403 C 0.9494 0.35102 0.61438 0.0
H404 H 0.96744 0.35783 0.63278 0.0
H405 H 0.81002 0.35566 0.64245 0.0
O406 O 0.76181 0.02059 0.59956 0.0
C407 C 0.67634 0.13389 0.63459 0.0
C408 C 0.34759 0.1802 0.05704 0.0
C409 C 0.28778 0.16939 0.04619 0.0
C410 C 0.22263 0.08748 0.07614 0.0
C411 C 0.28148 0.09242 0.0857 0.0
N412 N 0.3992 0.13149 0.08068 0.0
N413 N 0.16995 0.09614 0.04052 0.0
C414 C 0.34402 0.13526 0.07485 0.0
C415 C 0.22582 0.11714 0.05407 0.0
N416 N 0.4072 0.23443 0.05125 0.0
N417 N 0.16453 0.0585 0.08875 0.0
H418 H 0.17124 0.11608 0.02378 0.0
H419 H 0.12442 0.05465 0.04491 0.0
H420 H 0.16149 0.04219 0.10621 0.0
H421 H 0.12187 0.05858 0.08295 0.0
H422 H 0.45091 0.24809 0.06066 0.0
H423 H 0.41209 0.26852 0.03829 0.0
H424 H 0.44425 0.15787 0.07164 0.0
H425 H 0.39829 0.09689 0.09264 0.0
C426 C 0.13809 0.23648 0.25921 0.0
C427 C 0.19936 0.2944 0.2645 0.0
C428 C 0.17532 0.3552 0.23421 0.0
C429 C 0.11893 0.29459 0.22695 0.0
N430 N 0.05954 0.17458 0.22821 0.0
N431 N 0.28279 0.40649 0.25373 0.0
C432 C 0.1041 0.23427 0.23817 0.0
C433 C 0.21996 0.35343 0.25117 0.0
N434 N 0.11116 0.18415 0.27463 0.0
N435 N 0.18523 0.41442 0.22564 0.0
H436 H 0.31772 0.40694 0.26547 0.0
H437 H 0.30217 0.44778 0.2426 0.0
H438 H 0.15345 0.41785 0.21336 0.0
H439 H 0.22175 0.46023 0.23229 0.0
H440 H 0.06371 0.14307 0.27231 0.0
H441 H 0.13301 0.18527 0.29097 0.0
H442 H 0.05175 0.1293 0.23478 0.0
H443 H 0.03587 0.17069 0.21202 0.0
C444 C 0.90781 0.12187 0.4191 0.0
C445 C 0.90177 0.17655 0.42697 0.0
C446 C 0.8165 0.14984 0.3964 0.0
C447 C 0.83067 0.10173 0.38663 0.0
N448 N 0.90789 0.06082 0.38452 0.0
N449 N 0.86048 0.25207 0.419 0.0
C450 C 0.88195 0.09352 0.3967 0.0
C451 C 0.85887 0.19345 0.41453 0.0
N452 N 0.93588 0.09507 0.43335 0.0
N453 N 0.7617 0.15259 0.38922 0.0
H454 H 0.89267 0.28703 0.43128 0.0
H455 H 0.83458 0.26891 0.4087 0.0
H456 H 0.72838 0.12065 0.37647 0.0
H457 H 0.74613 0.18258 0.3976 0.0
H458 H 0.93697 0.05208 0.42873 0.0
H459 H 0.95048 0.11111 0.4508 0.0
H460 H 0.94902 0.05826 0.39063 0.0
H461 H 0.89298 0.04299 0.36723 0.0
C462 C 0.78669 0.87584 0.56162 0.0
C463 C 0.72619 0.81875 0.55485 0.0
C464 C 0.66413 0.85672 0.57939 0.0
C465 C 0.7253 0.90911 0.58831 0.0
N466 N 0.84446 0.95782 0.59226 0.0
N467 N 0.60758 0.74857 0.5603 0.0
C468 C 0.78657 0.91571 0.58065 0.0
C469 C 0.66477 0.80739 0.56449 0.0
N470 N 0.844 0.89351 0.54932 0.0
N471 N 0.60576 0.85525 0.58443 0.0
H472 H 0.60605 0.71081 0.54975 0.0
H473 H 0.56284 0.73488 0.56895 0.0
H474 H 0.60332 0.89082 0.59508 0.0
H475 H 0.56063 0.82221 0.57636 0.0
H476 H 0.88805 0.93821 0.5522 0.0
H477 H 0.84567 0.86721 0.53451 0.0
H478 H 0.88946 0.95961 0.58873 0.0
H479 H 0.84619 0.9855 0.60716 0.0
C480 C 0.89937 0.77415 0.73255 0.0
C481 C 0.89094 0.71314 0.72394 0.0
C482 C 0.80087 0.65457 0.75277 0.0
C483 C 0.81769 0.71656 0.76352 0.0
N484 N 0.90017 0.83266 0.76793 0.0
N485 N 0.84219 0.59444 0.72982 0.0
C486 C 0.87244 0.77557 0.75477 0.0
C487 C 0.84402 0.65275 0.73511 0.0
N488 N 0.93072 0.8304 0.71913 0.0
N489 N 0.74296 0.59819 0.75844 0.0
H490 H 0.87438 0.59101 0.71773 0.0
H491 H 0.81296 0.55073 0.73925 0.0
H492 H 0.70885 0.59736 0.77068 0.0
H493 H 0.72603 0.55351 0.74926 0.0
H494 H 0.93382 0.87503 0.72434 0.0
H495 H 0.94611 0.82993 0.70172 0.0
H496 H 0.94333 0.87564 0.76265 0.0
H497 H 0.88431 0.83438 0.78517 0.0
C498 C 0.19407 0.93561 0.91446 0.0
C499 C 0.18516 0.93944 0.88965 0.0
C500 C 0.07891 0.83485 0.89151 0.0
C501 C 0.08028 0.84104 0.91672 0.0
N502 N 0.14217 0.89164 0.9526 0.0
N503 N 0.12352 0.88911 0.85377 0.0
C504 C 0.13905 0.88959 0.92831 0.0
C505 C 0.12901 0.88759 0.87794 0.0
N506 N 0.25503 0.97428 0.92472 0.0
N507 N 0.03134 0.77846 0.88049 0.0
H508 H 0.16272 0.92243 0.84304 0.0
H509 H 0.07972 0.85899 0.84444 0.0
H510 H 0.99608 0.73677 0.88953 0.0
H511 H 0.03147 0.76938 0.86236 0.0
H512 H 0.2656 0.96989 0.94239 0.0
H513 H 0.2976 0.00526 0.91508 0.0
H514 H 0.17905 0.93138 0.96223 0.0
H515 H 0.10639 0.85407 0.96326 0.0
C516 C 0.5023 0.50903 0.03304 0.0
C517 C 0.52384 0.51858 0.009 0.0
C518 C 0.42576 0.52695 -0.00208 0.0
C519 C 0.39629 0.49935 0.02001 0.0
N520 N 0.40916 0.47486 0.06035 0.0
N521 N 0.50244 0.53225 0.96788 0.0
C522 C 0.43633 0.4954 0.03831 0.0
C523 C 0.48512 0.52746 0.99127 0.0
N524 N 0.54399 0.51115 0.0506 0.0
N525 N 0.39635 0.5512 0.98315 0.0
H526 H 0.54195 0.52701 0.962 0.0
H527 H 0.4737 0.5345 0.9541 0.0
H528 H 0.35479 0.55427 0.9883 0.0
H529 H 0.41802 0.57599 0.96737 0.0
H530 H 0.53352 0.50984 0.06865 0.0
H531 H 0.59147 0.51872 0.04712 0.0
H532 H 0.43156 0.46294 0.07401 0.0
H533 H 0.36235 0.46827 0.06456 0.0
C534 C 0.92576 0.44532 0.20388 0.0
C535 C 0.89358 0.3994 0.18504 0.0
C536 C 0.9621 0.48442 0.15599 0.0
C537 C 0.99898 0.52842 0.17482 0.0
N538 N 0.005 0.55873 0.21608 0.0
N539 N 0.8593 0.38646 0.14405 0.0
C540 C 0.97666 0.51166 0.19862 0.0
C541 C 0.90416 0.42292 0.16136 0.0
N542 N 0.90949 0.42366 0.22675 0.0
N543 N 0.98434 0.49957 0.13313 0.0
H544 H 0.81421 0.34389 0.14789 0.0
H545 H 0.86249 0.40317 0.12667 0.0
H546 H 0.027 0.54373 0.12855 0.0
H547 H 0.9636 0.46612 0.11904 0.0
H548 H 0.93537 0.45124 0.24162 0.0
H549 H 0.86984 0.37633 0.2306 0.0
H550 H 0.98817 0.55148 0.23356 0.0
H551 H 0.04276 0.60723 0.21261 0.0
C552 C 0.47279 0.93539 0.32149 0.0
C553 C 0.47719 0.97833 0.34032 0.0
C554 C 0.50759 0.91632 0.36794 0.0
C555 C 0.50943 0.87793 0.34857 0.0
N556 N 0.46476 0.83085 0.31011 0.0
N557 N 0.48115 0.99944 0.38238 0.0
C558 C 0.48189 0.88048 0.32641 0.0
C559 C 0.48801 0.96481 0.36397 0.0
N560 N 0.46349 0.94903 0.29867 0.0
N561 N 0.52787 0.9081 0.38983 0.0
H562 H 0.46818 0.03598 0.37979 0.0
H563 H 0.48369 0.98916 0.40021 0.0
H564 H 0.53835 0.87004 0.39314 0.0
H565 H 0.53549 0.93893 0.40437 0.0
H566 H 0.46814 0.92454 0.28389 0.0
H567 H 0.45569 0.98815 0.29439 0.0
H568 H 0.44024 0.82784 0.29424 0.0
H569 H 0.4671 0.78817 0.31378 0.0
C570 C 0.50315 0.48024 0.52762 0.0
C571 C 0.48396 0.47974 0.50362 0.0
C572 C 0.58476 0.47954 0.49028 0.0
C573 C 0.61085 0.49599 0.51368 0.0
N574 N 0.59276 0.50251 0.55533 0.0
N575 N 0.50686 0.48006 0.46174 0.0
C576 C 0.56851 0.49187 0.53264 0.0
C577 C 0.52441 0.47868 0.48484 0.0
N578 N 0.45944 0.47104 0.54549 0.0
N579 N 0.61764 0.46506 0.47327 0.0
H580 H 0.46271 0.4785 0.45697 0.0
H581 H 0.53829 0.48776 0.44739 0.0
H582 H 0.65962 0.46139 0.47702 0.0
H583 H 0.59858 0.44815 0.4563 0.0
H584 H 0.4679 0.46551 0.56328 0.0
H585 H 0.41222 0.4645 0.54232 0.0
H586 H 0.56864 0.50831 0.56996 0.0
H587 H 0.63887 0.50703 0.55927 0.0
C588 C 0.06021 0.49531 0.67554 0.0
C589 C 0.99917 0.46861 0.68807 0.0
C590 C 0.04737 0.56895 0.71283 0.0
C591 C 0.09898 0.60216 0.69587 0.0
N592 N 0.15837 0.59401 0.6617 0.0
N593 N 0.93652 0.47651 0.72069 0.0
C594 C 0.10774 0.56425 0.67776 0.0
C595 C 0.99388 0.50396 0.7077 0.0
N596 N 0.07309 0.45472 0.66174 0.0
N597 N 0.04925 0.60084 0.7335 0.0
H598 H 0.89825 0.42765 0.718 0.0
H599 H 0.92602 0.50267 0.7334 0.0
H600 H 0.08887 0.64816 0.7375 0.0
H601 H 0.01569 0.57833 0.74739 0.0
H602 H 0.11875 0.47003 0.65353 0.0
H603 H 0.04126 0.40362 0.66123 0.0
H604 H 0.15998 0.57109 0.64595 0.0
H605 H 0.19836 0.64194 0.66365 0.0
C606 C 0.55557 0.06445 0.85403 0.0
C607 C 0.54702 0.03828 0.83057 0.0
C608 C 0.53901 0.13345 0.81542 0.0
C609 C 0.53306 0.15054 0.83906 0.0
N610 N 0.56253 0.1526 0.8798 0.0
N611 N 0.5357 0.05009 0.78844 0.0
C612 C 0.55151 0.12305 0.85797 0.0
C613 C 0.54162 0.07428 0.81104 0.0
N614 N 0.56169 0.03025 0.87267 0.0
N615 N 0.54279 0.17427 0.79735 0.0
H616 H 0.53976 0.00846 0.78446 0.0
H617 H 0.52357 0.06907 0.77376 0.0
H618 H 0.54594 0.21996 0.80059 0.0
H619 H 0.55092 0.16727 0.77965 0.0
H620 H 0.56203 0.04303 0.89043 0.0
H621 H 0.56327 0.98649 0.87049 0.0
H622 H 0.57996 0.13878 0.8945 0.0
H623 H 0.55907 0.19535 0.88239 0.0
C624 C 0.49988 0.52617 0.77755 0.0
C625 C 0.46502 0.49374 0.79847 0.0
C626 C 0.45936 0.59273 0.8103 0.0
C627 C 0.50107 0.62777 0.79079 0.0
N628 N 0.53808 0.62179 0.75148 0.0
N629 N 0.38934 0.48605 0.82903 0.0
C630 C 0.51273 0.59175 0.77279 0.0
C631 C 0.43728 0.52382 0.81293 0.0
N632 N 0.52363 0.49562 0.76298 0.0
N633 N 0.44428 0.62555 0.82717 0.0
H634 H 0.37053 0.43513 0.83008 0.0
H635 H 0.36293 0.50306 0.83898 0.0
H636 H 0.45302 0.67368 0.82498 0.0
H637 H 0.42382 0.60519 0.84363 0.0
H638 H 0.55624 0.51941 0.74895 0.0
H639 H 0.51233 0.4466 0.76561 0.0
H640 H 0.54408 0.59753 0.7369 0.0
H641 H 0.54715 0.66973 0.74792 0.0
C642 C 0.89052 0.4609 0.97357 0.0
C643 C 0.91397 0.52463 0.96329 0.0
C644 C 0.02531 0.53704 0.96012 0.0
C645 C 0.00565 0.48141 0.97475 0.0
N646 N 0.91859 0.38939 -0.00376 0.0
N647 N 0.01203 0.63134 0.95451 0.0
C648 C 0.93769 0.44245 0.98157 0.0
C649 C 0.98349 0.56464 0.95823 0.0
N650 N 0.82369 0.41775 0.97532 0.0
N651 N 0.08558 0.56563 0.94891 0.0
H652 H 0.98704 0.65701 0.95776 0.0
H653 H 0.06317 0.66264 0.95239 0.0
H654 H 0.11739 0.54606 0.95003 0.0
H655 H 0.09996 0.6038 0.93656 0.0
H656 H 0.8037 0.36861 0.98077 0.0
H657 H 0.78826 0.4293 0.96918 0.0
H658 H 0.87177 0.36392 0.00414 0.0
H659 H 0.95102 0.37292 0.00131 0.0
C660 C 0.44127 0.91569 0.13009 0.0
C661 C 0.3891 0.91578 0.14319 0.0
C662 C 0.46897 0.01852 0.16256 0.0
C663 C 0.52304 0.01543 0.15222 0.0
N664 N 0.5579 0.94679 0.1311 0.0
N665 N 0.36083 0.95073 0.17952 0.0
C666 C 0.50885 0.96011 0.13717 0.0
C667 C 0.40538 0.96192 0.16187 0.0
N668 N 0.42671 0.87369 0.11123 0.0
N669 N 0.47741 0.07585 0.17257 0.0
H670 H 0.31472 0.90718 0.18023 0.0
H671 H 0.3738 0.98085 0.19465 0.0
H672 H 0.52215 0.12087 0.17146 0.0
H673 H 0.43748 0.07977 0.17919 0.0
H674 H 0.46317 0.87583 0.09981 0.0
H675 H 0.37774 0.8396 0.1064 0.0
H676 H 0.54863 0.90435 0.12163 0.0
H677 H 0.60604 0.9739 0.13786 0.0
C678 C 0.52792 0.46783 0.33181 0.0
C679 C 0.53383 0.50697 0.31159 0.0
C680 C 0.52439 0.41735 0.28558 0.0
C681 C 0.50582 0.37445 0.30546 0.0
N682 N 0.49613 0.35951 0.34801 0.0
N683 N 0.54185 0.52162 0.26912 0.0
C684 C 0.51177 0.40056 0.32878 0.0
C685 C 0.53492 0.48307 0.28841 0.0
N686 N 0.53709 0.49493 0.35403 0.0
N687 N 0.53013 0.39375 0.26397 0.0
H688 H 0.55031 0.57 0.27066 0.0
H689 H 0.53639 0.50512 0.25161 0.0
H690 H 0.52252 0.34569 0.262 0.0
H691 H 0.54751 0.42259 0.2487 0.0
H692 H 0.54247 0.47294 0.36933 0.0
H693 H 0.54342 0.54182 0.35707 0.0
H694 H 0.48738 0.37145 0.36498 0.0
H695 H 0.4906 0.3123 0.34706 0.0
C696 C 0.06813 0.56055 0.47632 0.0
C697 C 0.00661 0.52556 0.46404 0.0
C698 C 0.05397 0.47222 0.43944 0.0
C699 C 0.10672 0.49206 0.45606 0.0
N700 N 0.1682 0.56229 0.48946 0.0
N701 N 0.9427 0.45346 0.43189 0.0
C702 C 0.11619 0.53977 0.47387 0.0
C703 C 1.00059 0.48393 0.44464 0.0
N704 N 0.0809 0.61403 0.49012 0.0
N705 N 0.0548 0.44076 0.419 0.0
H706 H 0.90445 0.4641 0.43459 0.0
H707 H 0.93173 0.41632 0.41933 0.0
H708 H 0.09433 0.43294 0.41495 0.0
H709 H 0.02038 0.42847 0.40529 0.0
H710 H 0.12683 0.64505 0.49806 0.0
H711 H 0.04829 0.63239 0.49102 0.0
H712 H 0.17063 0.58742 0.50514 0.0
H713 H 0.20872 0.55531 0.48712 0.0
C714 C 0.52015 0.02867 0.6699 0.0
C715 C 0.47699 0.99221 0.65085 0.0
C716 C 0.55703 0.07306 0.6225 0.0
C717 C 0.60457 0.10187 0.641 0.0
N718 N 0.63172 0.10857 0.6828 0.0
N719 N 0.45255 0.97932 0.6089 0.0
C720 C 0.5856 0.08148 0.66495 0.0
C721 C 0.49431 0.01513 0.62711 0.0
N722 N 0.4986 0.01238 0.69283 0.0
N723 N 0.57296 0.10115 0.60044 0.0
H724 H 0.40616 0.93719 0.61169 0.0
H725 H 0.465 0.98894 0.59101 0.0
H726 H 0.61868 0.1437 0.59703 0.0
H727 H 0.53956 0.08644 0.5863 0.0
H728 H 0.52395 0.04169 0.70747 0.0
H729 H 0.45261 0.97173 0.69716 0.0
H730 H 0.62447 0.08868 0.69982 0.0
H731 H 0.67903 0.14945 0.68049 0.0
C732 C 0.31594 0.32334 0.92079 0.0
C733 C 0.27406 0.2654 0.90739 0.0
C734 C 0.17905 0.24352 0.9327 0.0
C735 C 0.22091 0.30195 0.94573 0.0
N736 N 0.32337 0.40686 0.94837 0.0
N737 N 0.16312 0.17968 0.89661 0.0
C738 C 0.28728 0.34522 0.93832 0.0
C739 C 0.20458 0.22838 0.91208 0.0
N740 N 0.38356 0.35484 0.91805 0.0
N741 N 0.11576 0.20174 0.94048 0.0
H742 H 0.18022 0.1683 0.88112 0.0
H743 H 0.11144 0.15477 0.89796 0.0
H744 H 0.09506 0.21358 0.95486 0.0
H745 H 0.08518 0.15445 0.93345 0.0
H746 H 0.41676 0.39265 0.9293 0.0
H747 H 0.40716 0.33947 0.90592 0.0
H748 H 0.3692 0.44309 0.94176 0.0
H749 H 0.30461 0.42421 0.9617 0.0
C750 C 0.04226 0.31129 0.09834 0.0
C751 C 0.02824 0.26359 0.08022 0.0
C752 C 0.93593 0.17895 0.10383 0.0
C753 C 0.94659 0.2285 0.12085 0.0
N754 N 0.99718 0.3455 0.13049 0.0
N755 N 0.9554 0.15503 0.06354 0.0
C756 C 0.996 0.29583 0.11698 0.0
C757 C 0.97303 0.19819 0.08229 0.0
N758 N 0.1008 0.37056 0.09828 0.0
N759 N 0.8926 0.11353 0.10863 0.0
H760 H 0.98173 0.16746 0.04756 0.0
H761 H 0.91176 0.10906 0.06311 0.0
H762 H 0.86495 0.09772 0.12429 0.0
H763 H 0.88804 0.07467 0.098 0.0
H764 H 0.11606 0.40403 0.11246 0.0
H765 H 0.13723 0.38341 0.08527 0.0
H766 H 0.02837 0.39578 0.12684 0.0
H767 H 0.96198 0.33687 0.14361 0.0
C768 C 0.68294 0.94012 0.27013 0.0
C769 C 0.72373 0.91472 0.27815 0.0
C770 C 0.80428 0.97561 0.24673 0.0
C771 C 0.76927 0.00974 0.24159 0.0
N772 N 0.67975 0.03113 0.25082 0.0
N773 N 0.82348 0.90791 0.27495 0.0
C774 C 0.70914 0.99312 0.25364 0.0
C775 C 0.7843 0.93183 0.26653 0.0
N776 N 0.61971 0.91469 0.27878 0.0
N777 N 0.85592 0.98455 0.23252 0.0
H778 H 0.80819 0.87327 0.2887 0.0
H779 H 0.87187 0.92451 0.2691 0.0
H780 H 0.87109 0.01577 0.21774 0.0
H781 H 0.8799 0.95699 0.23412 0.0
H782 H 0.58544 0.92677 0.27188 0.0
H783 H 0.59926 0.87658 0.29128 0.0
H784 H 0.64018 0.02576 0.26122 0.0
H785 H 0.69853 0.0724 0.23972 0.0
C786 C 0.70395 0.72037 0.42901 0.0
C787 C 0.74823 0.74749 0.40958 0.0
C788 C 0.83461 0.73905 0.43188 0.0
C789 C 0.7885 0.70806 0.45059 0.0
N790 N 0.67381 0.65079 0.46373 0.0
N791 N 0.85143 0.77305 0.39048 0.0
C792 C 0.72145 0.69308 0.44817 0.0
C793 C 0.81237 0.75376 0.41036 0.0
N794 N 0.64631 0.72291 0.42967 0.0
N795 N 0.89977 0.75648 0.43502 0.0
H796 H 0.8366 0.78456 0.37453 0.0
H797 H 0.89601 0.77264 0.38921 0.0
H798 H 0.91712 0.74584 0.45056 0.0
H799 H 0.93732 0.78532 0.42299 0.0
H800 H 0.61612 0.71034 0.4447 0.0
H801 H 0.63157 0.74323 0.41609 0.0
H802 H 0.62311 0.63306 0.46129 0.0
H803 H 0.68391 0.6275 0.4776 0.0
C804 C 0.98401 0.66979 0.59571 0.0
C805 C 0.99299 0.714 0.57691 0.0
C806 C 0.08772 0.80496 0.59792 0.0
C807 C 0.07831 0.76048 0.61657 0.0
N808 N 0.03263 0.64759 0.63006 0.0
N809 N 0.0621 0.81841 0.55715 0.0
C810 C 0.03156 0.69174 0.6143 0.0
C811 C 0.048 0.78001 0.57703 0.0
N812 N 0.928 0.60846 0.5967 0.0
N813 N 0.13256 0.87109 0.60062 0.0
H814 H 0.03403 0.80117 0.54158 0.0
H815 H 0.10458 0.8649 0.55538 0.0
H816 H 0.16385 0.88986 0.61541 0.0
H817 H 0.13655 0.90746 0.58889 0.0
H818 H 0.91544 0.57735 0.61141 0.0
H819 H 0.89093 0.59064 0.58372 0.0
H820 H 1.00382 0.59621 0.62806 0.0
H821 H 0.06745 0.66228 0.6438 0.0
C822 C 0.2103 0.96823 0.76759 0.0
C823 C 0.24194 0.98559 0.74506 0.0
C824 C 0.32427 0.09423 0.76105 0.0
C825 C 0.28757 0.0794 0.78267 0.0
N826 N 0.18385 0.00941 0.80295 0.0
N827 N 0.31857 0.07215 0.71877 0.0
C828 C 0.22662 0.0187 0.78475 0.0
C829 C 0.29561 0.0509 0.74124 0.0
N830 N 0.1675 0.90331 0.77323 0.0
N831 N 0.38793 0.14646 0.75964 0.0
H832 H 0.29754 0.04242 0.70375 0.0
H833 H 0.3538 0.12133 0.71496 0.0
H834 H 0.41323 0.17771 0.77387 0.0
H835 H 0.41824 0.15436 0.74489 0.0
H836 H 0.14777 0.88837 0.79023 0.0
H837 H 0.15789 0.86397 0.76184 0.0
H838 H 0.13636 0.96775 0.80403 0.0
H839 H 0.19287 0.04674 0.81525 0.0
C840 C 0.73354 0.83204 0.88624 0.0
C841 C 0.69063 0.78708 0.86883 0.0
C842 C 0.68703 0.69341 0.88973 0.0
C843 C 0.73032 0.73809 0.90727 0.0
N844 N 0.78252 0.84664 0.92554 0.0
N845 N 0.61004 0.67482 0.85765 0.0
C846 C 0.74934 0.8065 0.90665 0.0
C847 C 0.6615 0.71757 0.87197 0.0
N848 N 0.76114 0.89883 0.88271 0.0
N849 N 0.67412 0.62918 0.88893 0.0
H850 H 0.59019 0.69135 0.84446 0.0
H851 H 0.5828 0.62367 0.86044 0.0
H852 H 0.69297 0.60945 0.90126 0.0
H853 H 0.64918 0.59688 0.87487 0.0
H854 H 0.79877 0.93473 0.89334 0.0
H855 H 0.74801 0.91822 0.86833 0.0
H856 H 0.79324 0.89569 0.92705 0.0
H857 H 0.79443 0.82898 0.94072 0.0
C858 C 0.91913 0.66866 0.0464 0.0
C859 C 0.94051 0.70983 0.02579 0.0
C860 C 0.05121 0.77396 0.04349 0.0
C861 C 0.02652 0.74104 0.06546 0.0
N862 N 0.93149 0.66556 0.08901 0.0
N863 N 0.02357 0.81327 0.00812 0.0
C864 C 0.95883 0.69074 0.06733 0.0
C865 C 0.00571 0.76591 0.02529 0.0
N866 N 0.86359 0.607 0.04585 0.0
N867 N 0.11818 0.81243 0.03986 0.0
H868 H 0.99001 0.81221 0.99554 0.0
H869 H 0.0691 0.85757 0.00829 0.0
H870 H 0.15321 0.81732 0.05254 0.0
H871 H 0.13847 0.83325 0.0234 0.0
H872 H 0.85012 0.57378 0.05997 0.0
H873 H 0.83566 0.5856 0.03054 0.0
H874 H 0.88063 0.63323 0.09135 0.0
H875 H 0.95831 0.68191 0.10485 0.0
C876 C 0.1735 0.90269 0.21981 0.0
C877 C 0.20474 0.93298 0.19799 0.0
C878 C 0.28616 0.03373 0.21952 0.0
C879 C 0.25253 0.00501 0.24099 0.0
N880 N 0.1627 0.91565 0.26232 0.0
N881 N 0.29047 0.02885 0.17691 0.0
C882 C 0.19598 0.94017 0.24139 0.0
C883 C 0.2605 0.99911 0.19783 0.0
N884 N 0.12215 0.83839 0.21983 0.0
N885 N 0.34472 0.09327 0.22001 0.0
H886 H 0.28627 0.00258 0.16142 0.0
H887 H 0.3205 0.08003 0.17493 0.0
H888 H 0.36533 0.12089 0.23547 0.0
H889 H 0.37613 0.1138 0.20548 0.0
H890 H 0.10184 0.81054 0.23515 0.0
H891 H 0.1009 0.81147 0.20428 0.0
H892 H 0.11719 0.87189 0.26374 0.0
H893 H 0.17943 0.94104 0.27845 0.0
C894 C 0.30143 0.23598 0.41278 0.0
C895 C 0.24588 0.24555 0.41045 0.0
C896 C 0.22098 0.18951 0.37206 0.0
C897 C 0.28395 0.1935 0.37182 0.0
N898 N 0.38974 0.23079 0.39195 0.0
N899 N 0.16451 0.24774 0.38407 0.0
C900 C 0.3258 0.21884 0.39227 0.0
C901 C 0.20861 0.22668 0.38905 0.0
N902 N 0.33022 0.24205 0.4345 0.0
N903 N 0.17326 0.15095 0.35583 0.0
H904 H 0.15845 0.28071 0.39499 0.0
H905 H 0.14017 0.23876 0.36773 0.0
H906 H 0.17987 0.12056 0.34371 0.0
H907 H 0.12507 0.14363 0.3564 0.0
H908 H 0.36717 0.22981 0.43743 0.0
H909 H 0.3125 0.2528 0.44997 0.0
H910 H 0.42356 0.25633 0.40558 0.0
H911 H 0.41119 0.22056 0.37752 0.0
C912 C 0.99203 0.32586 0.55517 0.0
C913 C 0.99168 0.28375 0.57341 0.0
C914 C 0.08639 0.28146 0.555 0.0
C915 C 0.08521 0.32188 0.53654 0.0
N916 N 0.05294 0.39975 0.52269 0.0
N917 N 0.04907 0.23715 0.59461 0.0
C918 C 0.04362 0.35029 0.53803 0.0
C919 C 0.04271 0.26693 0.57466 0.0
N920 N 0.94081 0.33878 0.55322 0.0
N921 N 0.12711 0.2549 0.55318 0.0
H922 H 0.01817 0.22681 0.60937 0.0
H923 H 0.08829 0.22823 0.59739 0.0
H924 H 0.16148 0.2674 0.53939 0.0
H925 H 0.1249 0.21873 0.56463 0.0
H926 H 0.9346 0.36279 0.53867 0.0
H927 H 0.90148 0.32119 0.56526 0.0
H928 H 0.02801 0.42648 0.52414 0.0
H929 H 0.09067 0.41859 0.50996 0.0
C930 C 0.72549 0.01052 0.69581 0.0
C931 C 0.78972 0.06809 0.69415 0.0
C932 C 0.81113 0.05465 0.7358 0.0
C933 C 0.75017 0.99336 0.73633 0.0
N934 N 0.65738 0.90513 0.71505 0.0
N935 N 0.89762 0.14021 0.7113 0.0
C936 C 0.70985 0.96884 0.71578 0.0
C937 C 0.83376 0.08911 0.71385 0.0
N938 N 0.67778 0.9973 0.679 0.0
N939 N 0.84672 0.08013 0.75628 0.0
H940 H 0.91576 0.16523 0.69525 0.0
H941 H 0.93405 0.15395 0.72436 0.0
H942 H 0.83179 0.05553 0.77255 0.0
H943 H 0.8881 0.12763 0.75753 0.0
H944 H 0.62825 0.96005 0.68094 0.0
H945 H 0.6852 0.02785 0.66448 0.0
H946 H 0.63111 0.8829 0.69949 0.0
H947 H 0.64397 0.8723 0.7293 0.0
loop_
_geom_bond_atom_site_label_1
_geom_bond_atom_site_label_2
_geom_bond_distance
_geom_bond_site_symmetry_2
_ccdc_geom_bond_type
Co0 O3 1.970 1_554 S
Co0 N17 1.989 . S
Co0 O25 1.967 . S
Co0 O32 1.920 . S
Co1 O4 1.966 1_554 S
Co1 N10 2.022 1_554 S
Co1 N18 1.993 . S
Co1 O26 1.941 . S
C2 O3 1.258 . S
C2 O4 1.263 . S
O3 Co0 1.970 1_556 S
O3 C2 1.258 . S
O4 Co1 1.966 1_556 S
O4 C2 1.263 . S
C5 O6 1.235 . S
C5 O32 1.289 . S
O6 C5 1.235 . S
C7 C9 1.400 . S
C7 N10 1.351 . S
C7 C12 1.501 . S
C8 C9 1.387 1_554 S
C8 N11 1.341 . S
C9 C7 1.400 . S
C9 C8 1.387 1_556 S
N10 Co1 2.022 1_556 S
N10 C7 1.351 . S
N10 N11 1.365 1_556 S
N11 C8 1.341 . S
N11 N10 1.365 1_554 S
N11 H31 0.862 . S
C12 C7 1.501 . S
C12 H13 0.961 . S
C12 H14 0.961 . S
C12 H15 0.960 . S
H13 C12 0.961 . S
H14 C12 0.961 . S
H15 C12 0.960 . S
C16 N17 1.342 . S
C16 C20 1.401 . S
C16 C21 1.499 . S
N17 Co0 1.989 . S
N17 C16 1.342 . S
N17 N18 1.388 . S
N18 Co1 1.993 . S
N18 N17 1.388 . S
N18 C19 1.346 . S
C19 N18 1.346 . S
C19 C20 1.396 . S
C19 C29 1.510 . S
C20 C16 1.401 . S
C20 C19 1.396 . S
C21 C16 1.499 . S
C21 H22 0.959 . S
C21 H23 0.960 . S
C21 H24 0.961 . S
H22 C21 0.959 . S
H23 C21 0.960 . S
H24 C21 0.961 . S
O25 Co0 1.967 . S
O25 C33 1.258 . S
O26 Co1 1.941 . S
O26 C33 1.266 . S
H27 C29 0.959 . S
H28 C29 0.961 1_655 S
C29 C19 1.510 . S
C29 H27 0.959 . S
C29 H28 0.961 1_455 S
C29 H30 0.960 . S
H30 C29 0.960 . S
H31 N11 0.862 . S
O32 Co0 1.920 . S
O32 C5 1.289 . S
C33 O25 1.258 . S
C33 O26 1.266 . S
Co34 O37 1.970 . S
Co34 N51 1.989 . S
Co34 O59 1.967 . S
Co34 O66 1.920 . S
Co35 O38 1.966 . S
Co35 N44 2.022 . S
Co35 N52 1.993 . S
Co35 O60 1.941 . S
C36 O37 1.258 . S
C36 O38 1.263 . S
O37 Co34 1.970 . S
O37 C36 1.258 . S
O38 Co35 1.966 . S
O38 C36 1.263 . S
C39 O40 1.235 1_455 S
C39 O66 1.289 1_455 S
O40 C39 1.235 1_655 S
C41 C43 1.400 . S
C41 N44 1.351 . S
C41 C46 1.501 . S
C42 C43 1.387 . S
C42 N45 1.341 . S
C43 C41 1.400 . S
C43 C42 1.387 . S
N44 Co35 2.022 . S
N44 C41 1.351 . S
N44 N45 1.365 . S
N45 C42 1.341 . S
N45 N44 1.365 . S
N45 H65 0.862 . S
C46 C41 1.501 . S
C46 H47 0.961 . S
C46 H48 0.961 . S
C46 H49 0.960 . S
H47 C46 0.961 . S
H48 C46 0.961 . S
H49 C46 0.960 . S
C50 N51 1.342 . S
C50 C54 1.401 . S
C50 C55 1.499 . S
N51 Co34 1.989 . S
N51 C50 1.342 . S
N51 N52 1.388 . S
N52 Co35 1.993 . S
N52 N51 1.388 . S
N52 C53 1.346 . S
C53 N52 1.346 . S
C53 C54 1.396 . S
C53 C63 1.510 . S
C54 C50 1.401 . S
C54 C53 1.396 . S
C55 C50 1.499 . S
C55 H56 0.959 . S
C55 H57 0.960 . S
C55 H58 0.961 . S
H56 C55 0.959 . S
H57 C55 0.960 . S
H58 C55 0.961 . S
O59 Co34 1.967 . S
O59 C67 1.258 . S
O60 Co35 1.941 . S
O60 C67 1.266 . S
H61 C63 0.959 . S
H62 C63 0.961 1_565 S
C63 C53 1.510 . S
C63 H61 0.959 . S
C63 H62 0.961 1_545 S
C63 H64 0.960 . S
H64 C63 0.960 . S
H65 N45 0.862 . S
O66 Co34 1.920 . S
O66 C39 1.289 1_655 S
C67 O59 1.258 . S
C67 O60 1.266 . S
Co68 O71 1.970 . S
Co68 N85 1.989 . S
Co68 O93 1.967 . S
Co68 O100 1.920 . S
Co69 O72 1.966 . S
Co69 N78 2.022 . S
Co69 N86 1.993 . S
Co69 O94 1.941 . S
C70 O71 1.258 . S
C70 O72 1.263 . S
O71 Co68 1.970 . S
O71 C70 1.258 . S
O72 Co69 1.966 . S
O72 C70 1.263 . S
C73 O74 1.235 1_545 S
C73 O100 1.289 1_545 S
O74 C73 1.235 1_565 S
C75 C77 1.400 . S
C75 N78 1.351 . S
C75 C80 1.501 . S
C76 C77 1.387 . S
C76 N79 1.341 . S
C77 C75 1.400 . S
C77 C76 1.387 . S
N78 Co69 2.022 . S
N78 C75 1.351 . S
N78 N79 1.365 . S
N79 C76 1.341 . S
N79 N78 1.365 . S
N79 H99 0.862 . S
C80 C75 1.501 . S
C80 H81 0.961 . S
C80 H82 0.961 . S
C80 H83 0.960 . S
H81 C80 0.961 . S
H82 C80 0.961 . S
H83 C80 0.960 . S
C84 N85 1.342 . S
C84 C88 1.401 . S
C84 C89 1.499 . S
N85 Co68 1.989 . S
N85 C84 1.342 . S
N85 N86 1.388 . S
N86 Co69 1.993 . S
N86 N85 1.388 . S
N86 C87 1.346 . S
C87 N86 1.346 . S
C87 C88 1.396 . S
C87 C97 1.510 . S
C88 C84 1.401 . S
C88 C87 1.396 . S
C89 C84 1.499 . S
C89 H90 0.959 . S
C89 H91 0.960 . S
C89 H92 0.961 . S
H90 C89 0.959 . S
H91 C89 0.960 . S
H92 C89 0.961 . S
O93 Co68 1.967 . S
O93 C101 1.258 . S
O94 Co69 1.941 . S
O94 C101 1.266 . S
H95 C97 0.959 . S
H96 C97 0.961 . S
C97 C87 1.510 . S
C97 H95 0.959 . S
C97 H96 0.961 . S
C97 H98 0.960 . S
H98 C97 0.960 . S
H99 N79 0.862 . S
O100 Co68 1.920 . S
O100 C73 1.289 1_565 S
C101 O93 1.258 . S
C101 O94 1.266 . S
Co102 O105 1.970 . S
Co102 N119 1.989 . S
Co102 O127 1.967 . S
Co102 O134 1.920 . S
Co103 O106 1.966 . S
Co103 N112 2.022 . S
Co103 N120 1.993 . S
Co103 O128 1.941 . S
C104 O105 1.258 . S
C104 O106 1.263 . S
O105 Co102 1.970 . S
O105 C104 1.258 . S
O106 Co103 1.966 . S
O106 C104 1.263 . S
C107 O108 1.235 . S
C107 O134 1.289 . S
O108 C107 1.235 . S
C109 C111 1.400 . S
C109 N112 1.351 . S
C109 C114 1.501 . S
C110 C111 1.387 . S
C110 N113 1.341 . S
C111 C109 1.400 . S
C111 C110 1.387 . S
N112 Co103 2.022 . S
N112 C109 1.351 . S
N112 N113 1.365 . S
N113 C110 1.341 . S
N113 N112 1.365 . S
N113 H133 0.862 . S
C114 C109 1.501 . S
C114 H115 0.961 . S
C114 H116 0.961 . S
C114 H117 0.960 . S
H115 C114 0.961 . S
H116 C114 0.961 . S
H117 C114 0.960 . S
C118 N119 1.342 . S
C118 C122 1.401 . S
C118 C123 1.499 . S
N119 Co102 1.989 . S
N119 C118 1.342 . S
N119 N120 1.388 . S
N120 Co103 1.993 . S
N120 N119 1.388 . S
N120 C121 1.346 . S
C121 N120 1.346 . S
C121 C122 1.396 . S
C121 C131 1.510 . S
C122 C118 1.401 . S
C122 C121 1.396 . S
C123 C118 1.499 . S
C123 H124 0.959 . S
C123 H125 0.960 . S
C123 H126 0.961 . S
H124 C123 0.959 . S
H125 C123 0.960 . S
H126 C123 0.961 . S
O127 Co102 1.967 . S
O127 C135 1.258 . S
O128 Co103 1.941 . S
O128 C135 1.266 . S
H129 C131 0.959 . S
H130 C131 0.961 1_455 S
C131 C121 1.510 . S
C131 H129 0.959 . S
C131 H130 0.961 1_655 S
C131 H132 0.960 . S
H132 C131 0.960 . S
H133 N113 0.862 . S
O134 Co102 1.920 . S
O134 C107 1.289 . S
C135 O127 1.258 . S
C135 O128 1.266 . S
Co136 O139 1.970 . S
Co136 N153 1.989 . S
Co136 O161 1.967 . S
Co136 O168 1.920 . S
Co137 O140 1.966 . S
Co137 N146 2.022 . S
Co137 N154 1.993 . S
Co137 O162 1.941 . S
C138 O139 1.258 . S
C138 O140 1.263 . S
O139 Co136 1.970 . S
O139 C138 1.258 . S
O140 Co137 1.966 . S
O140 C138 1.263 . S
C141 O142 1.235 1_655 S
C141 O168 1.289 1_655 S
O142 C141 1.235 1_455 S
C143 C145 1.400 . S
C143 N146 1.351 . S
C143 C148 1.501 . S
C144 C145 1.387 . S
C144 N147 1.341 . S
C145 C143 1.400 . S
C145 C144 1.387 . S
N146 Co137 2.022 . S
N146 C143 1.351 . S
N146 N147 1.365 . S
N147 C144 1.341 . S
N147 N146 1.365 . S
N147 H167 0.862 . S
C148 C143 1.501 . S
C148 H149 0.961 . S
C148 H150 0.961 . S
C148 H151 0.960 . S
H149 C148 0.961 . S
H150 C148 0.961 . S
H151 C148 0.960 . S
C152 N153 1.342 . S
C152 C156 1.401 . S
C152 C157 1.499 . S
N153 Co136 1.989 . S
N153 C152 1.342 . S
N153 N154 1.388 . S
N154 Co137 1.993 . S
N154 N153 1.388 . S
N154 C155 1.346 . S
C155 N154 1.346 . S
C155 C156 1.396 . S
C155 C165 1.510 . S
C156 C152 1.401 . S
C156 C155 1.396 . S
C157 C152 1.499 . S
C157 H158 0.959 . S
C157 H159 0.960 . S
C157 H160 0.961 . S
H158 C157 0.959 . S
H159 C157 0.960 . S
H160 C157 0.961 . S
O161 Co136 1.967 . S
O161 C169 1.258 . S
O162 Co137 1.941 . S
O162 C169 1.266 . S
H163 C165 0.959 . S
H164 C165 0.961 1_545 S
C165 C155 1.510 . S
C165 H163 0.959 . S
C165 H164 0.961 1_565 S
C165 H166 0.960 . S
H166 C165 0.960 . S
H167 N147 0.862 . S
O168 Co136 1.920 . S
O168 C141 1.289 1_455 S
C169 O161 1.258 . S
C169 O162 1.266 . S
Co170 O173 1.970 . S
Co170 N187 1.989 . S
Co170 O195 1.967 . S
Co170 O202 1.920 . S
Co171 O174 1.966 . S
Co171 N180 2.022 . S
Co171 N188 1.993 . S
Co171 O196 1.941 . S
C172 O173 1.258 . S
C172 O174 1.263 . S
O173 Co170 1.970 . S
O173 C172 1.258 . S
O174 Co171 1.966 . S
O174 C172 1.263 . S
C175 O176 1.235 1_565 S
C175 O202 1.289 1_565 S
O176 C175 1.235 1_545 S
C177 C179 1.400 . S
C177 N180 1.351 . S
C177 C182 1.501 . S
C178 C179 1.387 . S
C178 N181 1.341 . S
C179 C177 1.400 . S
C179 C178 1.387 . S
N180 Co171 2.022 . S
N180 C177 1.351 . S
N180 N181 1.365 . S
N181 C178 1.341 . S
N181 N180 1.365 . S
N181 H201 0.862 . S
C182 C177 1.501 . S
C182 H183 0.961 . S
C182 H184 0.961 . S
C182 H185 0.960 . S
H183 C182 0.961 . S
H184 C182 0.961 . S
H185 C182 0.960 . S
C186 N187 1.342 . S
C186 C190 1.401 . S
C186 C191 1.499 . S
N187 Co170 1.989 . S
N187 C186 1.342 . S
N187 N188 1.388 . S
N188 Co171 1.993 . S
N188 N187 1.388 . S
N188 C189 1.346 . S
C189 N188 1.346 . S
C189 C190 1.396 . S
C189 C199 1.510 . S
C190 C186 1.401 . S
C190 C189 1.396 . S
C191 C186 1.499 . S
C191 H192 0.959 . S
C191 H193 0.960 . S
C191 H194 0.961 . S
H192 C191 0.959 . S
H193 C191 0.960 . S
H194 C191 0.961 . S
O195 Co170 1.967 . S
O195 C203 1.258 . S
O196 Co171 1.941 . S
O196 C203 1.266 . S
H197 C199 0.959 . S
H198 C199 0.961 . S
C199 C189 1.510 . S
C199 H197 0.959 . S
C199 H198 0.961 . S
C199 H200 0.960 . S
H200 C199 0.960 . S
H201 N181 0.862 . S
O202 Co170 1.920 . S
O202 C175 1.289 1_545 S
C203 O195 1.258 . S
C203 O196 1.266 . S
Co204 O207 1.970 . S
Co204 N221 1.989 . S
Co204 O229 1.967 . S
Co204 O236 1.920 . S
Co205 O208 1.966 . S
Co205 N214 2.022 . S
Co205 N222 1.993 . S
Co205 O230 1.941 . S
C206 O207 1.258 . S
C206 O208 1.263 . S
O207 Co204 1.970 . S
O207 C206 1.258 . S
O208 Co205 1.966 . S
O208 C206 1.263 . S
C209 O210 1.235 . S
C209 O236 1.289 . S
O210 C209 1.235 . S
C211 C213 1.400 . S
C211 N214 1.351 . S
C211 C216 1.501 . S
C212 C213 1.387 . S
C212 N215 1.341 . S
C213 C211 1.400 . S
C213 C212 1.387 . S
N214 Co205 2.022 . S
N214 C211 1.351 . S
N214 N215 1.365 . S
N215 C212 1.341 . S
N215 N214 1.365 . S
N215 H235 0.862 . S
C216 C211 1.501 . S
C216 H217 0.961 . S
C216 H218 0.961 . S
C216 H219 0.960 . S
H217 C216 0.961 . S
H218 C216 0.961 . S
H219 C216 0.960 . S
C220 N221 1.342 . S
C220 C224 1.401 . S
C220 C225 1.499 . S
N221 Co204 1.989 . S
N221 C220 1.342 . S
N221 N222 1.388 . S
N222 Co205 1.993 . S
N222 N221 1.388 . S
N222 C223 1.346 . S
C223 N222 1.346 . S
C223 C224 1.396 . S
C223 C233 1.510 . S
C224 C220 1.401 . S
C224 C223 1.396 . S
C225 C220 1.499 . S
C225 H226 0.959 . S
C225 H227 0.960 . S
C225 H228 0.961 . S
H226 C225 0.959 . S
H227 C225 0.960 . S
H228 C225 0.961 . S
O229 Co204 1.967 . S
O229 C237 1.258 . S
O230 Co205 1.941 . S
O230 C237 1.266 . S
H231 C233 0.959 . S
H232 C233 0.961 1_545 S
C233 C223 1.510 . S
C233 H231 0.959 . S
C233 H232 0.961 1_565 S
C233 H234 0.960 . S
H234 C233 0.960 . S
H235 N215 0.862 . S
O236 Co204 1.920 . S
O236 C209 1.289 . S
C237 O229 1.258 . S
C237 O230 1.266 . S
Co238 O241 1.970 . S
Co238 N255 1.989 . S
Co238 O263 1.967 . S
Co238 O270 1.920 . S
Co239 O242 1.966 1_556 S
Co239 N248 2.022 . S
Co239 N256 1.993 . S
Co239 O264 1.941 . S
C240 O241 1.258 1_554 S
C240 O242 1.263 . S
O241 Co238 1.970 . S
O241 C240 1.258 1_556 S
O242 Co239 1.966 1_554 S
O242 C240 1.263 . S
C243 O244 1.235 1_455 S
C243 O270 1.289 1_455 S
O244 C243 1.235 1_655 S
C245 C247 1.400 . S
C245 N248 1.351 1_554 S
C245 C250 1.501 . S
C246 C247 1.387 1_556 S
C246 N249 1.341 . S
C247 C245 1.400 . S
C247 C246 1.387 1_554 S
N248 Co239 2.022 . S
N248 C245 1.351 1_556 S
N248 N249 1.365 . S
N249 C246 1.341 . S
N249 N248 1.365 . S
N249 H269 0.862 . S
C250 C245 1.501 . S
C250 H251 0.961 . S
C250 H252 0.961 . S
C250 H253 0.960 . S
H251 C250 0.961 . S
H252 C250 0.961 . S
H253 C250 0.960 . S
C254 N255 1.342 . S
C254 C258 1.401 . S
C254 C259 1.499 . S
N255 Co238 1.989 . S
N255 C254 1.342 . S
N255 N256 1.388 . S
N256 Co239 1.993 . S
N256 N255 1.388 . S
N256 C257 1.346 . S
C257 N256 1.346 . S
C257 C258 1.396 . S
C257 C267 1.510 . S
C258 C254 1.401 . S
C258 C257 1.396 . S
C259 C254 1.499 . S
C259 H260 0.959 . S
C259 H261 0.960 . S
C259 H262 0.961 . S
H260 C259 0.959 . S
H261 C259 0.960 . S
H262 C259 0.961 . S
O263 Co238 1.967 . S
O263 C271 1.258 . S
O264 Co239 1.941 . S
O264 C271 1.266 . S
H265 C267 0.959 . S
H266 C267 0.961 . S
C267 C257 1.510 . S
C267 H265 0.959 . S
C267 H266 0.961 . S
C267 H268 0.960 . S
H268 C267 0.960 . S
H269 N249 0.862 . S
O270 Co238 1.920 . S
O270 C243 1.289 1_655 S
C271 O263 1.258 . S
C271 O264 1.266 . S
Co272 O275 1.970 . S
Co272 N289 1.989 . S
Co272 O297 1.967 . S
Co272 O304 1.920 . S
Co273 O276 1.966 . S
Co273 N282 2.022 . S
Co273 N290 1.993 . S
Co273 O298 1.941 . S
C274 O275 1.258 . S
C274 O276 1.263 . S
O275 Co272 1.970 . S
O275 C274 1.258 . S
O276 Co273 1.966 . S
O276 C274 1.263 . S
C277 O278 1.235 1_545 S
C277 O304 1.289 1_545 S
O278 C277 1.235 1_565 S
C279 C281 1.400 . S
C279 N282 1.351 . S
C279 C284 1.501 . S
C280 C281 1.387 . S
C280 N283 1.341 . S
C281 C279 1.400 . S
C281 C280 1.387 . S
N282 Co273 2.022 . S
N282 C279 1.351 . S
N282 N283 1.365 . S
N283 C280 1.341 . S
N283 N282 1.365 . S
N283 H303 0.862 . S
C284 C279 1.501 . S
C284 H285 0.961 . S
C284 H286 0.961 . S
C284 H287 0.960 . S
H285 C284 0.961 . S
H286 C284 0.961 . S
H287 C284 0.960 . S
C288 N289 1.342 . S
C288 C292 1.401 . S
C288 C293 1.499 . S
N289 Co272 1.989 . S
N289 C288 1.342 . S
N289 N290 1.388 . S
N290 Co273 1.993 . S
N290 N289 1.388 . S
N290 C291 1.346 . S
C291 N290 1.346 . S
C291 C292 1.396 . S
C291 C301 1.510 . S
C292 C288 1.401 . S
C292 C291 1.396 . S
C293 C288 1.499 . S
C293 H294 0.959 . S
C293 H295 0.960 . S
C293 H296 0.961 . S
H294 C293 0.959 . S
H295 C293 0.960 . S
H296 C293 0.961 . S
O297 Co272 1.967 . S
O297 C305 1.258 . S
O298 Co273 1.941 . S
O298 C305 1.266 . S
H299 C301 0.959 . S
H300 C301 0.961 1_655 S
C301 C291 1.510 . S
C301 H299 0.959 . S
C301 H300 0.961 1_455 S
C301 H302 0.960 . S
H302 C301 0.960 . S
H303 N283 0.862 . S
O304 Co272 1.920 . S
O304 C277 1.289 1_565 S
C305 O297 1.258 . S
C305 O298 1.266 . S
Co306 O309 1.970 . S
Co306 N323 1.989 . S
Co306 O331 1.967 . S
Co306 O338 1.920 . S
Co307 O310 1.966 . S
Co307 N316 2.022 . S
Co307 N324 1.993 . S
Co307 O332 1.941 . S
C308 O309 1.258 . S
C308 O310 1.263 . S
O309 Co306 1.970 . S
O309 C308 1.258 . S
O310 Co307 1.966 . S
O310 C308 1.263 . S
C311 O312 1.235 . S
C311 O338 1.289 . S
O312 C311 1.235 . S
C313 C315 1.400 . S
C313 N316 1.351 . S
C313 C318 1.501 . S
C314 C315 1.387 . S
C314 N317 1.341 . S
C315 C313 1.400 . S
C315 C314 1.387 . S
N316 Co307 2.022 . S
N316 C313 1.351 . S
N316 N317 1.365 . S
N317 C314 1.341 . S
N317 N316 1.365 . S
N317 H337 0.862 . S
C318 C313 1.501 . S
C318 H319 0.961 . S
C318 H320 0.961 . S
C318 H321 0.960 . S
H319 C318 0.961 . S
H320 C318 0.961 . S
H321 C318 0.960 . S
C322 N323 1.342 . S
C322 C326 1.401 . S
C322 C327 1.499 . S
N323 Co306 1.989 . S
N323 C322 1.342 . S
N323 N324 1.388 . S
N324 Co307 1.993 . S
N324 N323 1.388 . S
N324 C325 1.346 . S
C325 N324 1.346 . S
C325 C326 1.396 . S
C325 C335 1.510 . S
C326 C322 1.401 . S
C326 C325 1.396 . S
C327 C322 1.499 . S
C327 H328 0.959 . S
C327 H329 0.960 . S
C327 H330 0.961 . S
H328 C327 0.959 . S
H329 C327 0.960 . S
H330 C327 0.961 . S
O331 Co306 1.967 . S
O331 C339 1.258 . S
O332 Co307 1.941 . S
O332 C339 1.266 . S
H333 C335 0.959 . S
H334 C335 0.961 1_565 S
C335 C325 1.510 . S
C335 H333 0.959 . S
C335 H334 0.961 1_545 S
C335 H336 0.960 . S
H336 C335 0.960 . S
H337 N317 0.862 . S
O338 Co306 1.920 . S
O338 C311 1.289 . S
C339 O331 1.258 . S
C339 O332 1.266 . S
Co340 O343 1.970 . S
Co340 N357 1.989 . S
Co340 O365 1.967 . S
Co340 O372 1.920 . S
Co341 O344 1.966 . S
Co341 N350 2.022 . S
Co341 N358 1.993 . S
Co341 O366 1.941 . S
C342 O343 1.258 . S
C342 O344 1.263 . S
O343 Co340 1.970 . S
O343 C342 1.258 . S
O344 Co341 1.966 . S
O344 C342 1.263 . S
C345 O346 1.235 1_655 S
C345 O372 1.289 1_655 S
O346 C345 1.235 1_455 S
C347 C349 1.400 . S
C347 N350 1.351 . S
C347 C352 1.501 . S
C348 C349 1.387 . S
C348 N351 1.341 . S
C349 C347 1.400 . S
C349 C348 1.387 . S
N350 Co341 2.022 . S
N350 C347 1.351 . S
N350 N351 1.365 . S
N351 C348 1.341 . S
N351 N350 1.365 . S
N351 H371 0.862 . S
C352 C347 1.501 . S
C352 H353 0.961 . S
C352 H354 0.961 . S
C352 H355 0.960 . S
H353 C352 0.961 . S
H354 C352 0.961 . S
H355 C352 0.960 . S
C356 N357 1.342 . S
C356 C360 1.401 . S
C356 C361 1.499 . S
N357 Co340 1.989 . S
N357 C356 1.342 . S
N357 N358 1.388 . S
N358 Co341 1.993 . S
N358 N357 1.388 . S
N358 C359 1.346 . S
C359 N358 1.346 . S
C359 C360 1.396 . S
C359 C369 1.510 . S
C360 C356 1.401 . S
C360 C359 1.396 . S
C361 C356 1.499 . S
C361 H362 0.959 . S
C361 H363 0.960 . S
C361 H364 0.961 . S
H362 C361 0.959 . S
H363 C361 0.960 . S
H364 C361 0.961 . S
O365 Co340 1.967 . S
O365 C373 1.258 . S
O366 Co341 1.941 . S
O366 C373 1.266 . S
H367 C369 0.959 . S
H368 C369 0.961 . S
C369 C359 1.510 . S
C369 H367 0.959 . S
C369 H368 0.961 . S
C369 H370 0.960 . S
H370 C369 0.960 . S
H371 N351 0.862 . S
O372 Co340 1.920 . S
O372 C345 1.289 1_455 S
C373 O365 1.258 . S
C373 O366 1.266 . S
Co374 O377 1.970 . S
Co374 N391 1.989 . S
Co374 O399 1.967 . S
Co374 O406 1.920 . S
Co375 O378 1.966 . S
Co375 N384 2.022 . S
Co375 N392 1.993 . S
Co375 O400 1.941 . S
C376 O377 1.258 . S
C376 O378 1.263 . S
O377 Co374 1.970 . S
O377 C376 1.258 . S
O378 Co375 1.966 . S
O378 C376 1.263 . S
C379 O380 1.235 1_565 S
C379 O406 1.289 1_565 S
O380 C379 1.235 1_545 S
C381 C383 1.400 . S
C381 N384 1.351 . S
C381 C386 1.501 . S
C382 C383 1.387 . S
C382 N385 1.341 . S
C383 C381 1.400 . S
C383 C382 1.387 . S
N384 Co375 2.022 . S
N384 C381 1.351 . S
N384 N385 1.365 . S
N385 C382 1.341 . S
N385 N384 1.365 . S
N385 H405 0.862 . S
C386 C381 1.501 . S
C386 H387 0.961 . S
C386 H388 0.961 . S
C386 H389 0.960 . S
H387 C386 0.961 . S
H388 C386 0.961 . S
H389 C386 0.960 . S
C390 N391 1.342 . S
C390 C394 1.401 . S
C390 C395 1.499 . S
N391 Co374 1.989 . S
N391 C390 1.342 . S
N391 N392 1.388 . S
N392 Co375 1.993 . S
N392 N391 1.388 . S
N392 C393 1.346 . S
C393 N392 1.346 . S
C393 C394 1.396 . S
C393 C403 1.510 . S
C394 C390 1.401 . S
C394 C393 1.396 . S
C395 C390 1.499 . S
C395 H396 0.959 . S
C395 H397 0.960 . S
C395 H398 0.961 . S
H396 C395 0.959 . S
H397 C395 0.960 . S
H398 C395 0.961 . S
O399 Co374 1.967 . S
O399 C407 1.258 . S
O400 Co375 1.941 . S
O400 C407 1.266 . S
H401 C403 0.959 . S
H402 C403 0.961 1_455 S
C403 C393 1.510 . S
C403 H401 0.959 . S
C403 H402 0.961 1_655 S
C403 H404 0.960 . S
H404 C403 0.960 . S
H405 N385 0.862 . S
O406 Co374 1.920 . S
O406 C379 1.289 1_545 S
C407 O399 1.258 . S
C407 O400 1.266 . S
C408 C409 1.363 . S
C408 C414 1.379 . S
C408 N416 1.356 . S
C409 C408 1.363 . S
C409 C415 1.363 . S
C410 C411 1.363 . S
C410 C415 1.379 . S
C410 N417 1.356 . S
C411 C410 1.363 . S
C411 C414 1.363 . S
N412 C414 1.356 . S
N412 H424 0.984 . S
N412 H425 0.985 . S
N413 C415 1.356 . S
N413 H418 0.984 . S
N413 H419 0.985 . S
C414 C408 1.379 . S
C414 C411 1.363 . S
C414 N412 1.356 . S
C415 C409 1.363 . S
C415 C410 1.379 . S
C415 N413 1.356 . S
N416 C408 1.356 . S
N416 H422 0.984 . S
N416 H423 0.984 . S
N417 C410 1.356 . S
N417 H420 0.984 . S
N417 H421 0.985 . S
H418 N413 0.984 . S
H419 N413 0.985 . S
H420 N417 0.984 . S
H421 N417 0.985 . S
H422 N416 0.984 . S
H423 N416 0.984 . S
H424 N412 0.984 . S
H425 N412 0.985 . S
C426 C427 1.363 . S
C426 C432 1.379 . S
C426 N434 1.356 . S
C427 C426 1.363 . S
C427 C433 1.363 . S
C428 C429 1.363 . S
C428 C433 1.379 . S
C428 N435 1.356 . S
C429 C428 1.363 . S
C429 C432 1.363 . S
N430 C432 1.356 . S
N430 H442 0.984 . S
N430 H443 0.985 . S
N431 C433 1.356 . S
N431 H436 0.984 . S
N431 H437 0.985 . S
C432 C426 1.379 . S
C432 C429 1.363 . S
C432 N430 1.356 . S
C433 C427 1.363 . S
C433 C428 1.379 . S
C433 N431 1.356 . S
N434 C426 1.356 . S
N434 H440 0.984 . S
N434 H441 0.984 . S
N435 C428 1.356 . S
N435 H438 0.984 . S
N435 H439 0.985 . S
H436 N431 0.984 . S
H437 N431 0.985 . S
H438 N435 0.984 . S
H439 N435 0.985 . S
H440 N434 0.984 . S
H441 N434 0.984 . S
H442 N430 0.984 . S
H443 N430 0.985 . S
C444 C445 1.363 . S
C444 C450 1.379 . S
C444 N452 1.356 1_655 S
C445 C444 1.363 . S
C445 C451 1.363 . S
C446 C447 1.363 . S
C446 C451 1.379 . S
C446 N453 1.356 . S
C447 C446 1.363 . S
C447 C450 1.363 . S
N448 C450 1.356 . S
N448 H460 0.984 1_655 S
N448 H461 0.985 . S
N449 C451 1.356 . S
N449 H454 0.984 . S
N449 H455 0.985 . S
C450 C444 1.379 . S
C450 C447 1.363 . S
C450 N448 1.356 . S
C451 C445 1.363 . S
C451 C446 1.379 . S
C451 N449 1.356 . S
N452 C444 1.356 1_455 S
N452 H458 0.984 . S
N452 H459 0.984 . S
N453 C446 1.356 . S
N453 H456 0.984 . S
N453 H457 0.985 . S
H454 N449 0.984 . S
H455 N449 0.985 . S
H456 N453 0.984 . S
H457 N453 0.985 . S
H458 N452 0.984 . S
H459 N452 0.984 . S
H460 N448 0.984 1_455 S
H461 N448 0.985 . S
C462 C463 1.363 . S
C462 C468 1.379 . S
C462 N470 1.356 . S
C463 C462 1.363 . S
C463 C469 1.363 . S
C464 C465 1.363 . S
C464 C469 1.379 . S
C464 N471 1.356 . S
C465 C464 1.363 . S
C465 C468 1.363 . S
N466 C468 1.356 1_545 S
N466 H478 0.984 . S
N466 H479 0.985 . S
N467 C469 1.356 . S
N467 H472 0.984 . S
N467 H473 0.985 . S
C468 C462 1.379 . S
C468 C465 1.363 . S
C468 N466 1.356 1_565 S
C469 C463 1.363 . S
C469 C464 1.379 . S
C469 N467 1.356 . S
N470 C462 1.356 . S
N470 H476 0.984 1_565 S
N470 H477 0.984 . S
N471 C464 1.356 . S
N471 H474 0.984 . S
N471 H475 0.985 . S
H472 N467 0.984 . S
H473 N467 0.985 . S
H474 N471 0.984 . S
H475 N471 0.985 . S
H476 N470 0.984 1_545 S
H477 N470 0.984 . S
H478 N466 0.984 . S
H479 N466 0.985 . S
C480 C481 1.363 . S
C480 C486 1.379 . S
C480 N488 1.356 1_655 S
C481 C480 1.363 . S
C481 C487 1.363 . S
C482 C483 1.363 . S
C482 C487 1.379 . S
C482 N489 1.356 . S
C483 C482 1.363 . S
C483 C486 1.363 . S
N484 C486 1.356 . S
N484 H496 0.984 . S
N484 H497 0.985 . S
N485 C487 1.356 . S
N485 H490 0.984 . S
N485 H491 0.985 . S
C486 C480 1.379 . S
C486 C483 1.363 . S
C486 N484 1.356 . S
C487 C481 1.363 . S
C487 C482 1.379 . S
C487 N485 1.356 . S
N488 C480 1.356 1_455 S
N488 H494 0.984 . S
N488 H495 0.984 . S
N489 C482 1.356 . S
N489 H492 0.984 . S
N489 H493 0.985 . S
H490 N485 0.984 . S
H491 N485 0.985 . S
H492 N489 0.984 . S
H493 N489 0.985 . S
H494 N488 0.984 . S
H495 N488 0.984 . S
H496 N484 0.984 . S
H497 N484 0.985 . S
C498 C499 1.363 . S
C498 C504 1.379 . S
C498 N506 1.356 1_565 S
C499 C498 1.363 . S
C499 C505 1.363 . S
C500 C501 1.363 . S
C500 C505 1.379 . S
C500 N507 1.356 1_455 S
C501 C500 1.363 . S
C501 C504 1.363 . S
N502 C504 1.356 . S
N502 H514 0.984 . S
N502 H515 0.985 . S
N503 C505 1.356 . S
N503 H508 0.984 . S
N503 H509 0.983 1_455 S
C504 C498 1.379 . S
C504 C501 1.363 . S
C504 N502 1.356 . S
C505 C499 1.363 . S
C505 C500 1.379 . S
C505 N503 1.356 . S
N506 C498 1.356 1_545 S
N506 H512 0.984 . S
N506 H513 0.984 . S
N507 C500 1.356 1_655 S
N507 H510 0.984 . S
N507 H511 0.985 . S
H508 N503 0.984 . S
H509 N503 0.983 1_655 S
H510 N507 0.984 . S
H511 N507 0.985 . S
H512 N506 0.984 . S
H513 N506 0.984 . S
H514 N502 0.984 . S
H515 N502 0.985 . S
C516 C517 1.363 . S
C516 C522 1.379 . S
C516 N524 1.356 . S
C517 C516 1.363 . S
C517 C523 1.363 1_554 S
C518 C519 1.363 1_556 S
C518 C523 1.379 . S
C518 N525 1.356 . S
C519 C518 1.363 1_554 S
C519 C522 1.363 . S
N520 C522 1.356 . S
N520 H532 0.984 . S
N520 H533 0.985 . S
N521 C523 1.356 . S
N521 H526 0.984 . S
N521 H527 0.985 . S
C522 C516 1.379 . S
C522 C519 1.363 . S
C522 N520 1.356 . S
C523 C517 1.363 1_556 S
C523 C518 1.379 . S
C523 N521 1.356 . S
N524 C516 1.356 . S
N524 H530 0.984 . S
N524 H531 0.984 . S
N525 C518 1.356 . S
N525 H528 0.984 . S
N525 H529 0.985 . S
H526 N521 0.984 . S
H527 N521 0.985 . S
H528 N525 0.984 . S
H529 N525 0.985 . S
H530 N524 0.984 . S
H531 N524 0.984 . S
H532 N520 0.984 . S
H533 N520 0.985 . S
C534 C535 1.363 . S
C534 C540 1.379 . S
C534 N542 1.356 . S
C535 C534 1.363 . S
C535 C541 1.363 . S
C536 C537 1.363 . S
C536 C541 1.379 1_455 S
C536 N543 1.356 . S
C537 C536 1.363 . S
C537 C540 1.363 1_455 S
N538 C540 1.356 . S
N538 H550 0.984 . S
N538 H551 0.985 1_655 S
N539 C541 1.356 . S
N539 H544 0.984 . S
N539 H545 0.985 . S
C540 C534 1.379 . S
C540 C537 1.363 1_655 S
C540 N538 1.356 . S
C541 C535 1.363 . S
C541 C536 1.379 1_655 S
C541 N539 1.356 . S
N542 C534 1.356 . S
N542 H548 0.984 . S
N542 H549 0.984 . S
N543 C536 1.356 . S
N543 H546 0.984 . S
N543 H547 0.985 . S
H544 N539 0.984 . S
H545 N539 0.985 . S
H546 N543 0.984 . S
H547 N543 0.985 . S
H548 N542 0.984 . S
H549 N542 0.984 . S
H550 N538 0.984 . S
H551 N538 0.985 1_455 S
C552 C553 1.363 1_565 S
C552 C558 1.379 . S
C552 N560 1.356 . S
C553 C552 1.363 1_545 S
C553 C559 1.363 . S
C554 C555 1.363 . S
C554 C559 1.379 1_565 S
C554 N561 1.356 . S
C555 C554 1.363 . S
C555 C558 1.363 . S
N556 C558 1.356 . S
N556 H568 0.984 . S
N556 H569 0.985 . S
N557 C559 1.356 . S
N557 H562 0.984 . S
N557 H563 0.985 . S
C558 C552 1.379 . S
C558 C555 1.363 . S
C558 N556 1.356 . S
C559 C553 1.363 . S
C559 C554 1.379 1_545 S
C559 N557 1.356 . S
N560 C552 1.356 . S
N560 H566 0.984 . S
N560 H567 0.984 . S
N561 C554 1.356 . S
N561 H564 0.984 . S
N561 H565 0.985 1_565 S
H562 N557 0.984 . S
H563 N557 0.985 . S
H564 N561 0.984 . S
H565 N561 0.985 1_545 S
H566 N560 0.984 . S
H567 N560 0.984 . S
H568 N556 0.984 . S
H569 N556 0.985 . S
C570 C571 1.363 . S
C570 C576 1.379 . S
C570 N578 1.356 . S
C571 C570 1.363 . S
C571 C577 1.363 . S
C572 C573 1.363 . S
C572 C577 1.379 . S
C572 N579 1.356 . S
C573 C572 1.363 . S
C573 C576 1.363 . S
N574 C576 1.356 . S
N574 H586 0.984 . S
N574 H587 0.985 . S
N575 C577 1.356 . S
N575 H580 0.984 . S
N575 H581 0.985 . S
C576 C570 1.379 . S
C576 C573 1.363 . S
C576 N574 1.356 . S
C577 C571 1.363 . S
C577 C572 1.379 . S
C577 N575 1.356 . S
N578 C570 1.356 . S
N578 H584 0.984 . S
N578 H585 0.984 . S
N579 C572 1.356 . S
N579 H582 0.984 . S
N579 H583 0.985 . S
H580 N575 0.984 . S
H581 N575 0.985 . S
H582 N579 0.984 . S
H583 N579 0.985 . S
H584 N578 0.984 . S
H585 N578 0.984 . S
H586 N574 0.984 . S
H587 N574 0.985 . S
C588 C589 1.363 1_455 S
C588 C594 1.379 . S
C588 N596 1.356 . S
C589 C588 1.363 1_655 S
C589 C595 1.363 . S
C590 C591 1.363 . S
C590 C595 1.379 1_455 S
C590 N597 1.356 . S
C591 C590 1.363 . S
C591 C594 1.363 . S
N592 C594 1.356 . S
N592 H604 0.984 . S
N592 H605 0.985 . S
N593 C595 1.356 . S
N593 H598 0.984 . S
N593 H599 0.985 . S
C594 C588 1.379 . S
C594 C591 1.363 . S
C594 N592 1.356 . S
C595 C589 1.363 . S
C595 C590 1.379 1_655 S
C595 N593 1.356 . S
N596 C588 1.356 . S
N596 H602 0.984 . S
N596 H603 0.984 1_455 S
N597 C590 1.356 . S
N597 H600 0.984 . S
N597 H601 0.985 . S
H598 N593 0.984 . S
H599 N593 0.985 . S
H600 N597 0.984 . S
H601 N597 0.985 . S
H602 N596 0.984 . S
H603 N596 0.984 1_655 S
H604 N592 0.984 . S
H605 N592 0.985 . S
C606 C607 1.363 . S
C606 C612 1.379 1_565 S
C606 N614 1.356 . S
C607 C606 1.363 . S
C607 C613 1.363 1_565 S
C608 C609 1.363 . S
C608 C613 1.379 . S
C608 N615 1.356 . S
C609 C608 1.363 . S
C609 C612 1.363 . S
N610 C612 1.356 . S
N610 H622 0.984 . S
N610 H623 0.985 . S
N611 C613 1.356 . S
N611 H616 0.984 1_545 S
N611 H617 0.985 . S
C612 C606 1.379 1_545 S
C612 C609 1.363 . S
C612 N610 1.356 . S
C613 C607 1.363 1_545 S
C613 C608 1.379 . S
C613 N611 1.356 . S
N614 C606 1.356 . S
N614 H620 0.984 . S
N614 H621 0.984 . S
N615 C608 1.356 . S
N615 H618 0.984 . S
N615 H619 0.985 . S
H616 N611 0.984 1_565 S
H617 N611 0.985 . S
H618 N615 0.984 . S
H619 N615 0.985 . S
H620 N614 0.984 . S
H621 N614 0.984 . S
H622 N610 0.984 . S
H623 N610 0.985 . S
C624 C625 1.363 . S
C624 C630 1.379 . S
C624 N632 1.356 . S
C625 C624 1.363 . S
C625 C631 1.363 . S
C626 C627 1.363 . S
C626 C631 1.379 . S
C626 N633 1.356 . S
C627 C626 1.363 . S
C627 C630 1.363 . S
N628 C630 1.356 . S
N628 H640 0.984 . S
N628 H641 0.985 . S
N629 C631 1.356 . S
N629 H634 0.984 . S
N629 H635 0.985 . S
C630 C624 1.379 . S
C630 C627 1.363 . S
C630 N628 1.356 . S
C631 C625 1.363 . S
C631 C626 1.379 . S
C631 N629 1.356 . S
N632 C624 1.356 . S
N632 H638 0.984 . S
N632 H639 0.984 . S
N633 C626 1.356 . S
N633 H636 0.984 . S
N633 H637 0.985 . S
H634 N629 0.984 . S
H635 N629 0.985 . S
H636 N633 0.984 . S
H637 N633 0.985 . S
H638 N632 0.984 . S
H639 N632 0.984 . S
H640 N628 0.984 . S
H641 N628 0.985 . S
C642 C643 1.363 . S
C642 C648 1.379 . S
C642 N650 1.356 . S
C643 C642 1.363 . S
C643 C649 1.363 . S
C644 C645 1.363 . S
C644 C649 1.379 1_455 S
C644 N651 1.356 . S
C645 C644 1.363 . S
C645 C648 1.363 1_455 S
N646 C648 1.356 . S
N646 H658 0.984 . S
N646 H659 0.985 . S
N647 C649 1.356 . S
N647 H652 0.984 . S
N647 H653 0.985 1_655 S
C648 C642 1.379 . S
C648 C645 1.363 1_655 S
C648 N646 1.356 . S
C649 C643 1.363 . S
C649 C644 1.379 1_655 S
C649 N647 1.356 . S
N650 C642 1.356 . S
N650 H656 0.984 . S
N650 H657 0.984 . S
N651 C644 1.356 . S
N651 H654 0.984 . S
N651 H655 0.985 . S
H652 N647 0.984 . S
H653 N647 0.985 1_455 S
H654 N651 0.984 . S
H655 N651 0.985 . S
H656 N650 0.984 . S
H657 N650 0.984 . S
H658 N646 0.984 . S
H659 N646 0.985 . S
C660 C661 1.363 . S
C660 C666 1.379 . S
C660 N668 1.356 . S
C661 C660 1.363 . S
C661 C667 1.363 . S
C662 C663 1.363 . S
C662 C667 1.379 1_545 S
C662 N669 1.356 . S
C663 C662 1.363 . S
C663 C666 1.363 1_545 S
N664 C666 1.356 . S
N664 H676 0.984 . S
N664 H677 0.985 1_565 S
N665 C667 1.356 . S
N665 H670 0.984 . S
N665 H671 0.985 . S
C666 C660 1.379 . S
C666 C663 1.363 1_565 S
C666 N664 1.356 . S
C667 C661 1.363 . S
C667 C662 1.379 1_565 S
C667 N665 1.356 . S
N668 C660 1.356 . S
N668 H674 0.984 . S
N668 H675 0.984 . S
N669 C662 1.356 . S
N669 H672 0.984 . S
N669 H673 0.985 . S
H670 N665 0.984 . S
H671 N665 0.985 . S
H672 N669 0.984 . S
H673 N669 0.985 . S
H674 N668 0.984 . S
H675 N668 0.984 . S
H676 N664 0.984 . S
H677 N664 0.985 1_545 S
C678 C679 1.363 . S
C678 C684 1.379 . S
C678 N686 1.356 . S
C679 C678 1.363 . S
C679 C685 1.363 . S
C680 C681 1.363 . S
C680 C685 1.379 . S
C680 N687 1.356 . S
C681 C680 1.363 . S
C681 C684 1.363 . S
N682 C684 1.356 . S
N682 H694 0.984 . S
N682 H695 0.985 . S
N683 C685 1.356 . S
N683 H688 0.984 . S
N683 H689 0.985 . S
C684 C678 1.379 . S
C684 C681 1.363 . S
C684 N682 1.356 . S
C685 C679 1.363 . S
C685 C680 1.379 . S
C685 N683 1.356 . S
N686 C678 1.356 . S
N686 H692 0.984 . S
N686 H693 0.984 . S
N687 C680 1.356 . S
N687 H690 0.984 . S
N687 H691 0.985 . S
H688 N683 0.984 . S
H689 N683 0.985 . S
H690 N687 0.984 . S
H691 N687 0.985 . S
H692 N686 0.984 . S
H693 N686 0.984 . S
H694 N682 0.984 . S
H695 N682 0.985 . S
C696 C697 1.363 1_455 S
C696 C702 1.379 . S
C696 N704 1.356 . S
C697 C696 1.363 1_655 S
C697 C703 1.363 . S
C698 C699 1.363 . S
C698 C703 1.379 1_455 S
C698 N705 1.356 . S
C699 C698 1.363 . S
C699 C702 1.363 . S
N700 C702 1.356 . S
N700 H712 0.984 . S
N700 H713 0.985 . S
N701 C703 1.356 . S
N701 H706 0.984 . S
N701 H707 0.985 . S
C702 C696 1.379 . S
C702 C699 1.363 . S
C702 N700 1.356 . S
C703 C697 1.363 . S
C703 C698 1.379 1_655 S
C703 N701 1.356 . S
N704 C696 1.356 . S
N704 H710 0.984 . S
N704 H711 0.984 . S
N705 C698 1.356 . S
N705 H708 0.984 . S
N705 H709 0.985 1_455 S
H706 N701 0.984 . S
H707 N701 0.985 . S
H708 N705 0.984 . S
H709 N705 0.985 1_655 S
H710 N704 0.984 . S
H711 N704 0.984 . S
H712 N700 0.984 . S
H713 N700 0.985 . S
C714 C715 1.363 1_545 S
C714 C720 1.379 . S
C714 N722 1.356 . S
C715 C714 1.363 1_565 S
C715 C721 1.363 1_565 S
C716 C717 1.363 . S
C716 C721 1.379 . S
C716 N723 1.356 . S
C717 C716 1.363 . S
C717 C720 1.363 . S
N718 C720 1.356 . S
N718 H730 0.984 . S
N718 H731 0.985 . S
N719 C721 1.356 1_565 S
N719 H724 0.984 . S
N719 H725 0.985 . S
C720 C714 1.379 . S
C720 C717 1.363 . S
C720 N718 1.356 . S
C721 C715 1.363 1_545 S
C721 C716 1.379 . S
C721 N719 1.356 1_545 S
N722 C714 1.356 . S
N722 H728 0.984 . S
N722 H729 0.984 1_545 S
N723 C716 1.356 . S
N723 H726 0.984 . S
N723 H727 0.985 . S
H724 N719 0.984 . S
H725 N719 0.985 . S
H726 N723 0.984 . S
H727 N723 0.985 . S
H728 N722 0.984 . S
H729 N722 0.984 1_565 S
H730 N718 0.984 . S
H731 N718 0.985 . S
C732 C733 1.363 . S
C732 C738 1.379 . S
C732 N740 1.356 . S
C733 C732 1.363 . S
C733 C739 1.363 . S
C734 C735 1.363 . S
C734 C739 1.379 . S
C734 N741 1.356 . S
C735 C734 1.363 . S
C735 C738 1.363 . S
N736 C738 1.356 . S
N736 H748 0.984 . S
N736 H749 0.985 . S
N737 C739 1.356 . S
N737 H742 0.984 . S
N737 H743 0.985 . S
C738 C732 1.379 . S
C738 C735 1.363 . S
C738 N736 1.356 . S
C739 C733 1.363 . S
C739 C734 1.379 . S
C739 N737 1.356 . S
N740 C732 1.356 . S
N740 H746 0.984 . S
N740 H747 0.984 . S
N741 C734 1.356 . S
N741 H744 0.984 . S
N741 H745 0.985 . S
H742 N737 0.984 . S
H743 N737 0.985 . S
H744 N741 0.984 . S
H745 N741 0.985 . S
H746 N740 0.984 . S
H747 N740 0.984 . S
H748 N736 0.984 . S
H749 N736 0.985 . S
C750 C751 1.370 . S
C750 C756 1.371 1_455 S
C750 N758 1.361 . S
C751 C750 1.370 . S
C751 C757 1.363 1_455 S
C752 C753 1.363 . S
C752 C757 1.379 . S
C752 N759 1.356 . S
C753 C752 1.363 . S
C753 C756 1.363 . S
N754 C756 1.356 . S
N754 H766 0.984 . S
N754 H767 0.985 . S
N755 C757 1.356 . S
N755 H760 0.984 1_655 S
N755 H761 0.985 . S
C756 C750 1.371 1_655 S
C756 C753 1.363 . S
C756 N754 1.356 . S
C757 C751 1.363 1_655 S
C757 C752 1.379 . S
C757 N755 1.356 . S
N758 C750 1.361 . S
N758 H764 0.984 . S
N758 H765 0.984 . S
N759 C752 1.356 . S
N759 H762 0.984 . S
N759 H763 0.985 . S
H760 N755 0.984 1_455 S
H761 N755 0.985 . S
H762 N759 0.984 . S
H763 N759 0.985 . S
H764 N758 0.984 . S
H765 N758 0.984 . S
H766 N754 0.984 . S
H767 N754 0.985 . S
C768 C769 1.363 . S
C768 C774 1.379 . S
C768 N776 1.356 . S
C769 C768 1.363 . S
C769 C775 1.363 . S
C770 C771 1.366 . S
C770 C775 1.375 1_545 S
C770 N777 1.358 . S
C771 C770 1.366 . S
C771 C774 1.363 1_545 S
N772 C774 1.356 . S
N772 H784 0.984 . S
N772 H785 0.985 1_565 S
N773 C775 1.356 . S
N773 H778 0.984 . S
N773 H779 0.985 . S
C774 C768 1.379 . S
C774 C771 1.363 1_565 S
C774 N772 1.356 . S
C775 C769 1.363 . S
C775 C770 1.375 1_565 S
C775 N773 1.356 . S
N776 C768 1.356 . S
N776 H782 0.984 . S
N776 H783 0.984 . S
N777 C770 1.358 . S
N777 H780 0.984 . S
N777 H781 0.985 . S
H778 N773 0.984 . S
H779 N773 0.985 . S
H780 N777 0.984 . S
H781 N777 0.985 . S
H782 N776 0.984 . S
H783 N776 0.984 . S
H784 N772 0.984 . S
H785 N772 0.985 1_545 S
C786 C787 1.363 . S
C786 C792 1.379 . S
C786 N794 1.356 . S
C787 C786 1.363 . S
C787 C793 1.363 . S
C788 C789 1.363 . S
C788 C793 1.379 . S
C788 N795 1.356 . S
C789 C788 1.363 . S
C789 C792 1.363 . S
N790 C792 1.356 . S
N790 H802 0.984 . S
N790 H803 0.985 . S
N791 C793 1.356 . S
N791 H796 0.984 . S
N791 H797 0.985 . S
C792 C786 1.379 . S
C792 C789 1.363 . S
C792 N790 1.356 . S
C793 C787 1.363 . S
C793 C788 1.379 . S
C793 N791 1.356 . S
N794 C786 1.356 . S
N794 H800 0.984 . S
N794 H801 0.984 . S
N795 C788 1.356 . S
N795 H798 0.984 . S
N795 H799 0.985 . S
H796 N791 0.984 . S
H797 N791 0.985 . S
H798 N795 0.984 . S
H799 N795 0.985 . S
H800 N794 0.984 . S
H801 N794 0.984 . S
H802 N790 0.984 . S
H803 N790 0.985 . S
C804 C805 1.363 . S
C804 C810 1.379 1_655 S
C804 N812 1.356 . S
C805 C804 1.363 . S
C805 C811 1.363 1_655 S
C806 C807 1.363 . S
C806 C811 1.379 . S
C806 N813 1.356 . S
C807 C806 1.363 . S
C807 C810 1.363 . S
N808 C810 1.356 . S
N808 H820 0.984 . S
N808 H821 0.985 . S
N809 C811 1.356 . S
N809 H814 0.984 1_455 S
N809 H815 0.985 . S
C810 C804 1.379 1_455 S
C810 C807 1.363 . S
C810 N808 1.356 . S
C811 C805 1.363 1_455 S
C811 C806 1.379 . S
C811 N809 1.356 . S
N812 C804 1.356 . S
N812 H818 0.984 . S
N812 H819 0.984 . S
N813 C806 1.356 . S
N813 H816 0.984 . S
N813 H817 0.985 . S
H814 N809 0.984 1_655 S
H815 N809 0.985 . S
H816 N813 0.984 . S
H817 N813 0.985 . S
H818 N812 0.984 . S
H819 N812 0.984 . S
H820 N808 0.984 . S
H821 N808 0.985 . S
C822 C823 1.363 . S
C822 C828 1.379 1_565 S
C822 N830 1.356 . S
C823 C822 1.363 . S
C823 C829 1.363 1_565 S
C824 C825 1.363 . S
C824 C829 1.379 . S
C824 N831 1.356 . S
C825 C824 1.363 . S
C825 C828 1.363 . S
N826 C828 1.356 . S
N826 H838 0.984 1_545 S
N826 H839 0.985 . S
N827 C829 1.356 . S
N827 H832 0.984 . S
N827 H833 0.985 . S
C828 C822 1.379 1_545 S
C828 C825 1.363 . S
C828 N826 1.356 . S
C829 C823 1.363 1_545 S
C829 C824 1.379 . S
C829 N827 1.356 . S
N830 C822 1.356 . S
N830 H836 0.984 . S
N830 H837 0.984 . S
N831 C824 1.356 . S
N831 H834 0.984 . S
N831 H835 0.985 . S
H832 N827 0.984 . S
H833 N827 0.985 . S
H834 N831 0.984 . S
H835 N831 0.985 . S
H836 N830 0.984 . S
H837 N830 0.984 . S
H838 N826 0.984 1_565 S
H839 N826 0.985 . S
C840 C841 1.363 . S
C840 C846 1.379 . S
C840 N848 1.356 . S
C841 C840 1.363 . S
C841 C847 1.363 . S
C842 C843 1.363 . S
C842 C847 1.379 . S
C842 N849 1.356 . S
C843 C842 1.363 . S
C843 C846 1.363 . S
N844 C846 1.356 . S
N844 H856 0.984 . S
N844 H857 0.985 . S
N845 C847 1.356 . S
N845 H850 0.984 . S
N845 H851 0.985 . S
C846 C840 1.379 . S
C846 C843 1.363 . S
C846 N844 1.356 . S
C847 C841 1.363 . S
C847 C842 1.379 . S
C847 N845 1.356 . S
N848 C840 1.356 . S
N848 H854 0.984 . S
N848 H855 0.984 . S
N849 C842 1.356 . S
N849 H852 0.984 . S
N849 H853 0.985 . S
H850 N845 0.984 . S
H851 N845 0.985 . S
H852 N849 0.984 . S
H853 N849 0.985 . S
H854 N848 0.984 . S
H855 N848 0.984 . S
H856 N844 0.984 . S
H857 N844 0.985 . S
C858 C859 1.363 . S
C858 C864 1.379 . S
C858 N866 1.356 . S
C859 C858 1.363 . S
C859 C865 1.363 . S
C860 C861 1.363 . S
C860 C865 1.379 1_455 S
C860 N867 1.356 . S
C861 C860 1.363 . S
C861 C864 1.363 1_455 S
N862 C864 1.356 . S
N862 H874 0.984 . S
N862 H875 0.985 . S
N863 C865 1.356 . S
N863 H868 0.984 . S
N863 H869 0.985 1_655 S
C864 C858 1.379 . S
C864 C861 1.363 1_655 S
C864 N862 1.356 . S
C865 C859 1.363 . S
C865 C860 1.379 1_655 S
C865 N863 1.356 . S
N866 C858 1.356 . S
N866 H872 0.984 . S
N866 H873 0.984 . S
N867 C860 1.356 . S
N867 H870 0.984 . S
N867 H871 0.985 . S
H868 N863 0.984 . S
H869 N863 0.985 1_455 S
H870 N867 0.984 . S
H871 N867 0.985 . S
H872 N866 0.984 . S
H873 N866 0.984 . S
H874 N862 0.984 . S
H875 N862 0.985 . S
C876 C877 1.363 . S
C876 C882 1.379 . S
C876 N884 1.356 . S
C877 C876 1.363 . S
C877 C883 1.363 . S
C878 C879 1.363 . S
C878 C883 1.379 1_545 S
C878 N885 1.356 . S
C879 C878 1.363 . S
C879 C882 1.363 1_545 S
N880 C882 1.356 . S
N880 H892 0.984 . S
N880 H893 0.985 1_565 S
N881 C883 1.356 . S
N881 H886 0.984 . S
N881 H887 0.985 . S
C882 C876 1.379 . S
C882 C879 1.363 1_565 S
C882 N880 1.356 . S
C883 C877 1.363 . S
C883 C878 1.379 1_565 S
C883 N881 1.356 . S
N884 C876 1.356 . S
N884 H890 0.984 . S
N884 H891 0.984 . S
N885 C878 1.356 . S
N885 H888 0.984 . S
N885 H889 0.985 . S
H886 N881 0.984 . S
H887 N881 0.985 . S
H888 N885 0.984 . S
H889 N885 0.985 . S
H890 N884 0.984 . S
H891 N884 0.984 . S
H892 N880 0.984 . S
H893 N880 0.985 1_545 S
C894 C895 1.363 . S
C894 C900 1.379 . S
C894 N902 1.356 . S
C895 C894 1.363 . S
C895 C901 1.363 . S
C896 C897 1.363 . S
C896 C901 1.379 . S
C896 N903 1.356 . S
C897 C896 1.363 . S
C897 C900 1.363 . S
N898 C900 1.356 . S
N898 H910 0.984 . S
N898 H911 0.985 . S
N899 C901 1.356 . S
N899 H904 0.984 . S
N899 H905 0.985 . S
C900 C894 1.379 . S
C900 C897 1.363 . S
C900 N898 1.356 . S
C901 C895 1.363 . S
C901 C896 1.379 . S
C901 N899 1.356 . S
N902 C894 1.356 . S
N902 H908 0.984 . S
N902 H909 0.984 . S
N903 C896 1.356 . S
N903 H906 0.984 . S
N903 H907 0.985 . S
H904 N899 0.984 . S
H905 N899 0.985 . S
H906 N903 0.984 . S
H907 N903 0.985 . S
H908 N902 0.984 . S
H909 N902 0.984 . S
H910 N898 0.984 . S
H911 N898 0.985 . S
C912 C913 1.363 1_455 S
C912 C918 1.379 . S
C912 N920 1.356 1_455 S
C913 C912 1.363 1_655 S
C913 C919 1.363 1_655 S
C914 C915 1.363 . S
C914 C919 1.379 . S
C914 N921 1.356 . S
C915 C914 1.363 . S
C915 C918 1.363 . S
N916 C918 1.356 . S
N916 H928 0.984 . S
N916 H929 0.985 . S
N917 C919 1.356 1_655 S
N917 H922 0.984 . S
N917 H923 0.985 . S
C918 C912 1.379 . S
C918 C915 1.363 . S
C918 N916 1.356 . S
C919 C913 1.363 1_455 S
C919 C914 1.379 . S
C919 N917 1.356 1_455 S
N920 C912 1.356 1_655 S
N920 H926 0.984 1_655 S
N920 H927 0.984 . S
N921 C914 1.356 . S
N921 H924 0.984 . S
N921 H925 0.985 . S
H922 N917 0.984 . S
H923 N917 0.985 . S
H924 N921 0.984 . S
H925 N921 0.985 . S
H926 N920 0.984 1_455 S
H927 N920 0.984 . S
H928 N916 0.984 . S
H929 N916 0.985 . S
C930 C931 1.363 . S
C930 C936 1.379 1_545 S
C930 N938 1.356 . S
C931 C930 1.363 . S
C931 C937 1.363 . S
C932 C933 1.363 1_545 S
C932 C937 1.379 . S
C932 N939 1.356 . S
C933 C932 1.363 1_565 S
C933 C936 1.363 . S
N934 C936 1.356 . S
N934 H946 0.984 . S
N934 H947 0.985 . S
N935 C937 1.356 . S
N935 H940 0.984 . S
N935 H941 0.985 . S
C936 C930 1.379 1_565 S
C936 C933 1.363 . S
C936 N934 1.356 . S
C937 C931 1.363 . S
C937 C932 1.379 . S
C937 N935 1.356 . S
N938 C930 1.356 . S
N938 H944 0.984 . S
N938 H945 0.984 . S
N939 C932 1.356 . S
N939 H942 0.984 1_545 S
N939 H943 0.985 . S
H940 N935 0.984 . S
H941 N935 0.985 . S
H942 N939 0.984 1_565 S
H943 N939 0.985 . S
H944 N938 0.984 . S
H945 N938 0.984 . S
H946 N934 0.984 . S
H947 N934 0.985 . S
C409 C5 1.095 . S
C411 C277 1.095 . S
C427 C311 1.095 . S
C429 C39 1.095 . S
C445 C345 1.095 . S
C447 C73 1.095 . S
C463 C107 1.095 . S
C465 C379 1.095 . S
C481 C141 1.095 . S
C483 C209 1.095 . S
C499 C175 1.095 . S
C501 C243 1.095 . S
C517 C247 1.563 . S
C519 C33 1.592 . S
C535 C67 1.592 . S
C537 C281 1.564 . S
C553 C315 1.563 . S
C555 C101 1.592 . S
C571 C349 1.563 . S
C573 C135 1.592 . S
C589 C383 1.563 . S
C591 C169 1.592 . S
C607 C213 1.563 . S
C609 C203 1.592 . S
C625 C179 1.563 . S
C627 C237 1.592 . S
C643 C271 1.592 . S
C645 C9 1.563 . S
C661 C305 1.592 . S
C663 C43 1.563 . S
C679 C77 1.564 . S
C681 C339 1.592 . S
C697 C111 1.563 . S
C699 C373 1.592 . S
C715 C145 1.564 . S
C717 C407 1.592 . S
C733 C190 1.427 . S
C735 C2 1.401 . S
C751 C20 1.427 . S
C753 C36 1.401 . S
C769 C70 1.401 . S
C771 C54 1.427 . S
C787 C88 1.427 . S
C789 C104 1.401 . S
C805 C122 1.427 . S
C807 C138 1.401 . S
C823 C156 1.427 . S
C825 C172 1.401 . S
C841 C206 1.401 . S
C843 C258 1.427 . S
C859 C240 1.401 . S
C861 C292 1.427 . S
C877 C274 1.401 . S
C879 C326 1.427 . S
C895 C360 1.427 . S
C897 C308 1.401 . S
C913 C394 1.427 . S
C915 C342 1.401 . S
C931 C376 1.401 . S
C933 C224 1.427 . S
