# Generated by pormake.
# Topology ghw, (5)-cn, num edge types: 1
# Building blocks:
#     Node 0, Type 0, BuildingBlock: XOMCOT_clean_sbu_1, # of connection points: 5
#     Node 1, Type 0, BuildingBlock: XOMCOT_clean_sbu_1, # of connection points: 5
#     Node 2, Type 0, BuildingBlock: XOMCOT_clean_sbu_1, # of connection points: 5
#     Node 3, Type 0, BuildingBlock: XOMCOT_clean_sbu_1, # of connection points: 5
#     Node 4, Type 0, BuildingBlock: XOMCOT_clean_sbu_1, # of connection points: 5
#     Node 5, Type 0, BuildingBlock: XOMCOT_clean_sbu_1, # of connection points: 5
#     Node 6, Type 0, BuildingBlock: XOMCOT_clean_sbu_1, # of connection points: 5
#     Node 7, Type 0, BuildingBlock: XOMCOT_clean_sbu_1, # of connection points: 5
#     Node 8, Type 0, BuildingBlock: XOMCOT_clean_sbu_1, # of connection points: 5
#     Node 9, Type 0, BuildingBlock: XOMCOT_clean_sbu_1, # of connection points: 5
#     Node 10, Type 0, BuildingBlock: XOMCOT_clean_sbu_1, # of connection points: 5
#     Node 11, Type 0, BuildingBlock: XOMCOT_clean_sbu_1, # of connection points: 5
#     Node 12, Type 0, BuildingBlock: XOMCOT_clean_sbu_1, # of connection points: 5
#     Node 13, Type 0, BuildingBlock: XOMCOT_clean_sbu_1, # of connection points: 5
#     Node 14, Type 0, BuildingBlock: XOMCOT_clean_sbu_1, # of connection points: 5
#     Node 15, Type 0, BuildingBlock: XOMCOT_clean_sbu_1, # of connection points: 5
#     Edge 16, Type (0, 0), BuildingBlock: OJICUG_clean_linker_0, # of connection points: 2
#     Edge 17, Type (0, 0), BuildingBlock: OJICUG_clean_linker_0, # of connection points: 2
#     Edge 18, Type (0, 0), BuildingBlock: OJICUG_clean_linker_0, # of connection points: 2
#     Edge 19, Type (0, 0), BuildingBlock: OJICUG_clean_linker_0, # of connection points: 2
#     Edge 20, Type (0, 0), BuildingBlock: OJICUG_clean_linker_0, # of connection points: 2
#     Edge 21, Type (0, 0), BuildingBlock: OJICUG_clean_linker_0, # of connection points: 2
#     Edge 22, Type (0, 0), BuildingBlock: OJICUG_clean_linker_0, # of connection points: 2
#     Edge 23, Type (0, 0), BuildingBlock: OJICUG_clean_linker_0, # of connection points: 2
#     Edge 24, Type (0, 0), BuildingBlock: OJICUG_clean_linker_0, # of connection points: 2
#     Edge 25, Type (0, 0), BuildingBlock: OJICUG_clean_linker_0, # of connection points: 2
#     Edge 26, Type (0, 0), BuildingBlock: OJICUG_clean_linker_0, # of connection points: 2
#     Edge 27, Type (0, 0), BuildingBlock: OJICUG_clean_linker_0, # of connection points: 2
#     Edge 28, Type (0, 0), BuildingBlock: OJICUG_clean_linker_0, # of connection points: 2
#     Edge 29, Type (0, 0), BuildingBlock: OJICUG_clean_linker_0, # of connection points: 2
#     Edge 30, Type (0, 0), BuildingBlock: OJICUG_clean_linker_0, # of connection points: 2
#     Edge 31, Type (0, 0), BuildingBlock: OJICUG_clean_linker_0, # of connection points: 2
#     Edge 32, Type (0, 0), BuildingBlock: OJICUG_clean_linker_0, # of connection points: 2
#     Edge 33, Type (0, 0), BuildingBlock: OJICUG_clean_linker_0, # of connection points: 2
#     Edge 34, Type (0, 0), BuildingBlock: OJICUG_clean_linker_0, # of connection points: 2
#     Edge 35, Type (0, 0), BuildingBlock: OJICUG_clean_linker_0, # of connection points: 2
#     Edge 36, Type (0, 0), BuildingBlock: OJICUG_clean_linker_0, # of connection points: 2
#     Edge 37, Type (0, 0), BuildingBlock: OJICUG_clean_linker_0, # of connection points: 2
#     Edge 38, Type (0, 0), BuildingBlock: OJICUG_clean_linker_0, # of connection points: 2
#     Edge 39, Type (0, 0), BuildingBlock: OJICUG_clean_linker_0, # of connection points: 2
#     Edge 40, Type (0, 0), BuildingBlock: OJICUG_clean_linker_0, # of connection points: 2
#     Edge 41, Type (0, 0), BuildingBlock: OJICUG_clean_linker_0, # of connection points: 2
#     Edge 42, Type (0, 0), BuildingBlock: OJICUG_clean_linker_0, # of connection points: 2
#     Edge 43, Type (0, 0), BuildingBlock: OJICUG_clean_linker_0, # of connection points: 2
#     Edge 44, Type (0, 0), BuildingBlock: OJICUG_clean_linker_0, # of connection points: 2
#     Edge 45, Type (0, 0), BuildingBlock: OJICUG_clean_linker_0, # of connection points: 2
#     Edge 46, Type (0, 0), BuildingBlock: OJICUG_clean_linker_0, # of connection points: 2
#     Edge 47, Type (0, 0), BuildingBlock: OJICUG_clean_linker_0, # of connection points: 2
#     Edge 48, Type (0, 0), BuildingBlock: OJICUG_clean_linker_0, # of connection points: 2
#     Edge 49, Type (0, 0), BuildingBlock: OJICUG_clean_linker_0, # of connection points: 2
#     Edge 50, Type (0, 0), BuildingBlock: OJICUG_clean_linker_0, # of connection points: 2
#     Edge 51, Type (0, 0), BuildingBlock: OJICUG_clean_linker_0, # of connection points: 2
#     Edge 52, Type (0, 0), BuildingBlock: OJICUG_clean_linker_0, # of connection points: 2
#     Edge 53, Type (0, 0), BuildingBlock: OJICUG_clean_linker_0, # of connection points: 2
#     Edge 54, Type (0, 0), BuildingBlock: OJICUG_clean_linker_0, # of connection points: 2
#     Edge 55, Type (0, 0), BuildingBlock: OJICUG_clean_linker_0, # of connection points: 2
# Relax obj value: 0.235
# Max RMSD: 0.231
# Mean RMSD: 0.231
data_MOF--net-ghw--node1-XOMCOT_clean_sbu_1--edge1-OJICUG_clean_linker_0
_symmetry_space_group_name_H-M    P1
_symmetry_Int_Tables_number       1
_symmetry_cell_setting            triclinic
loop_
_symmetry_equiv_pos_as_xyz
'x, y, z'
_cell_length_a     25.45159
_cell_length_b     28.595846
_cell_length_c     26.577835
_cell_angle_alpha  90.314133
_cell_angle_beta   92.522896
_cell_angle_gamma 89.959246
loop_
_atom_site_label
_atom_site_type_symbol
_atom_site_fract_x
_atom_site_fract_y
_atom_site_fract_z
_atom_type_partial_charge
C0 C 0.17424 0.10808 0.32824 0.0
C1 C 0.22372 0.08919 0.32393 0.0
N2 N 0.25576 0.10746 0.36068 0.0
N3 N 0.17505 0.13824 0.36748 0.0
C4 C 0.225 0.13631 0.38704 0.0
H5 H 0.14054 0.10215 0.30279 0.0
Co6 Co 0.12003 0.17801 0.38582 0.0
C7 C 0.19122 0.25641 0.42182 0.0
O8 O 0.17895 0.28141 0.38172 0.0
N9 N 0.06494 0.21607 0.40651 0.0
C10 C 0.0114 0.27284 0.43032 0.0
C11 C 0.06282 0.26082 0.42324 0.0
C12 C 0.01452 0.20151 0.4053 0.0
N13 N 0.98149 0.23525 0.41939 0.0
O14 O 0.10605 0.13775 0.44138 0.0
H15 H 0.09545 0.28446 0.42824 0.0
H16 H 1.00159 0.16808 0.39013 0.0
O17 O 0.17011 0.21616 0.42743 0.0
C18 C 0.07609 0.1042 0.42582 0.0
O19 O 0.06805 0.09859 0.37698 0.0
N20 N 0.12806 0.21466 0.32598 0.0
C21 C 0.1279 0.24183 0.22439 0.0
C22 C 0.175 0.22957 0.25089 0.0
C23 C 0.17437 0.21715 0.30175 0.0
C24 C 0.08287 0.22988 0.30147 0.0
C25 C 0.08251 0.24557 0.25207 0.0
H26 H 0.21097 0.2068 0.32051 0.0
H27 H 0.04527 0.22731 0.31799 0.0
H28 H 0.23929 0.157 0.41892 0.0
H29 H 0.23583 0.066 0.29425 0.0
H30 H 0.99685 0.30699 0.44039 0.0
H31 H 0.2118 0.22648 0.23237 0.0
H32 H 0.04553 0.2575 0.23514 0.0
C33 C 0.07152 0.08296 0.88556 0.0
C34 C 0.02064 0.0682 0.89134 0.0
N35 N 0.98767 0.10014 0.87019 0.0
N36 N 0.07077 0.12387 0.86059 0.0
C37 C 0.01917 0.13337 0.85177 0.0
H38 H 0.1067 0.06574 0.90027 0.0
Co39 Co 0.12918 0.16075 0.8481 0.0
C40 C 0.08427 0.24979 0.80714 0.0
O41 O 0.11916 0.27295 0.83542 0.0
N42 N 0.18819 0.19701 0.83451 0.0
C43 C 0.24778 0.23384 0.79039 0.0
C44 C 0.19795 0.21552 0.78914 0.0
C45 C 0.2334 0.20322 0.86207 0.0
N46 N 0.27004 0.22578 0.83635 0.0
O47 O 0.14468 0.12319 0.79037 0.0
H48 H 0.17128 0.21399 0.75635 0.0
H49 H 0.24135 0.18825 0.89872 0.0
O50 O 0.084 0.20489 0.80809 0.0
C51 C 0.17976 0.09418 0.80681 0.0
O52 O 0.19075 0.09315 0.85554 0.0
N53 N 0.11935 0.19233 0.90886 0.0
C54 C 0.1195 0.22419 0.00803 0.0
C55 C 0.08102 0.23982 0.97245 0.0
C56 C 0.08116 0.22283 0.92279 0.0
C57 C 0.15359 0.17408 0.94428 0.0
C58 C 0.15552 0.19042 0.99349 0.0
H59 H 0.04985 0.23317 0.8965 0.0
H60 H 0.17941 0.14588 0.93431 0.0
H61 H 0.00476 0.16456 0.83305 0.0
H62 H 0.00897 1.03734 0.91142 0.0
H63 H 0.26673 0.25014 0.75932 0.0
H64 H 0.05085 0.26421 0.9831 0.0
H65 H 0.18369 0.17526 0.02049 0.0
C66 C 0.8332 1.01254 0.64903 0.0
C67 C 0.78275 1.02822 0.65554 0.0
N68 N 0.74942 1.00249 0.62586 0.0
N69 N 0.83188 0.97712 0.61536 0.0
C70 C 0.78042 0.97212 0.60165 0.0
H71 H 0.86835 1.02476 0.66933 0.0
Co72 Co 0.88908 0.93981 0.59936 0.0
C73 C 0.84101 0.85107 0.55923 0.0
O74 O 0.87742 0.82734 0.58476 0.0
N75 N 0.9469 0.90325 0.5823 0.0
C76 C 0.00444 0.86774 0.5341 0.0
C77 C 0.95446 0.8856 0.53583 0.0
C78 C 0.99334 0.89659 0.60765 0.0
N79 N 0.02872 0.87487 0.57941 0.0
O80 O 0.90146 0.97715 0.54123 0.0
H81 H 0.92624 0.88772 0.50428 0.0
H82 H 1.00312 0.91069 0.64455 0.0
O83 O 0.8414 0.89596 0.56122 0.0
C84 C 0.93569 1.00751 0.55645 0.0
O85 O 0.94721 1.01044 0.60503 0.0
N86 N 0.8823 0.90821 0.66027 0.0
C87 C 0.88431 0.87742 0.75966 0.0
C88 C 0.84469 0.86216 0.72485 0.0
C89 C 0.84383 0.8787 0.67522 0.0
C90 C 0.91831 0.92571 0.69477 0.0
C91 C 0.92105 0.90994 0.74407 0.0
H92 H 0.81131 0.8691 0.64988 0.0
H93 H 0.94446 0.95333 0.68415 0.0
H94 H 0.76569 0.94591 0.57532 0.0
H95 H 0.77146 0.05488 0.68203 0.0
H96 H 0.02218 0.85252 0.50154 0.0
H97 H 0.81418 0.83856 0.73612 0.0
H98 H 0.95027 0.9248 0.77037 0.0
C99 C 0.9247 0.99459 0.08851 0.0
C100 C 0.97415 1.01401 0.0866 0.0
N101 N 0.00587 0.99334 0.12184 0.0
N102 N 0.92528 0.9616 0.12459 0.0
C103 C 0.97489 0.96262 0.14512 0.0
H104 H 0.89127 1.0021 0.06331 0.0
Co105 Co 0.86996 0.92064 0.13784 0.0
C106 C 0.93553 0.8403 0.17397 0.0
O107 O 0.91954 0.81563 0.13443 0.0
N108 N 0.81395 0.88274 0.15405 0.0
C109 C 0.75664 0.83602 0.18996 0.0
C110 C 0.80894 0.848 0.18792 0.0
C111 C 0.76435 0.8925 0.13795 0.0
N112 N 0.7292 0.8638 0.15784 0.0
O113 O 0.85138 0.95971 0.19384 0.0
H114 H 0.84046 0.83314 0.21115 0.0
H115 H 0.75435 0.91966 0.11097 0.0
O116 O 0.91791 0.88187 0.18038 0.0
C117 C 0.8186 0.99135 0.17902 0.0
O118 O 0.80999 0.99694 0.13031 0.0
N119 N 0.88355 0.88394 0.07709 0.0
C120 C 0.8907 0.85723 0.97564 0.0
C121 C 0.93465 0.87506 1.00315 0.0
C122 C 0.93067 0.88676 0.05408 0.0
C123 C 0.84323 0.86029 0.05219 0.0
C124 C 0.84637 0.84611 1.00228 0.0
H125 H 0.96529 0.90037 0.07365 0.0
H126 H 0.80676 0.85295 0.06881 0.0
H127 H 0.98898 0.93955 0.17484 0.0
H128 H 0.98656 1.03912 0.05919 0.0
H129 H 0.74017 0.80908 0.21289 0.0
H130 H 0.97094 0.88284 0.98521 0.0
H131 H 0.81266 0.82895 0.98404 0.0
C132 C 0.19569 0.57581 0.87333 0.0
C133 C 0.24706 0.5614 0.86919 0.0
N134 N 0.27874 0.59833 0.87902 0.0
N135 N 0.19504 0.62149 0.88625 0.0
C136 C 0.24623 0.63419 0.88911 0.0
H137 H 0.16116 0.55421 0.86727 0.0
Co138 Co 0.13625 0.65863 0.89781 0.0
C139 C 0.18064 0.74774 0.94013 0.0
O140 O 0.1464 0.77081 0.91127 0.0
N141 N 0.07728 0.69529 0.91103 0.0
C142 C 0.01948 0.73285 0.95687 0.0
C143 C 0.06855 0.71342 0.95703 0.0
C144 C 0.03189 0.70281 0.88406 0.0
N145 N 0.9962 0.72569 0.91108 0.0
O146 O 0.11958 0.62129 0.9551 0.0
H147 H 0.09541 0.71083 0.98957 0.0
H148 H 0.02324 0.68857 0.84693 0.0
O149 O 0.18111 0.7028 0.93876 0.0
C150 C 0.08346 0.593 0.93887 0.0
O151 O 0.07183 0.59187 0.89025 0.0
N152 N 0.14669 0.68994 0.8374 0.0
C153 C 0.14184 0.72281 0.73889 0.0
C154 C 0.18045 0.73974 0.77379 0.0
C155 C 0.18278 0.72217 0.82314 0.0
C156 C 0.11266 0.67045 0.80248 0.0
C157 C 0.10882 0.6868 0.75356 0.0
H158 H 0.21369 0.73414 0.84913 0.0
H159 H 0.08774 0.64191 0.81293 0.0
H160 H 0.25969 0.66902 0.89907 0.0
H161 H 0.26 0.52665 0.85913 0.0
H162 H 1.00153 0.74904 0.98877 0.0
H163 H 0.2083 0.76608 0.76312 0.0
H164 H 0.08063 0.67062 0.72712 0.0
C165 C 0.06659 0.57739 0.36637 0.0
C166 C 0.016 0.56099 0.36958 0.0
N167 N 0.98419 0.59766 0.37761 0.0
N168 N 0.06706 0.62437 0.37211 0.0
C169 C 0.01622 0.63536 0.37941 0.0
H170 H 0.10058 0.55603 0.35968 0.0
Co171 Co 0.1258 0.66489 0.3679 0.0
C172 C 0.04845 0.73998 0.3329 0.0
O173 O 0.03426 0.74897 0.3788 0.0
N174 N 0.18328 0.70388 0.36112 0.0
C175 C 0.24163 0.75159 0.32901 0.0
C176 C 0.19147 0.73419 0.32346 0.0
C177 C 0.22873 0.70333 0.38895 0.0
N178 N 0.26499 0.73194 0.3701 0.0
O179 O 0.14929 0.63032 0.31095 0.0
H180 H 0.16384 0.74164 0.2925 0.0
H181 H 0.23597 0.68026 0.42067 0.0
O182 O 0.08203 0.70759 0.32468 0.0
C183 C 0.18542 0.60285 0.32851 0.0
O184 O 0.19273 0.60001 0.37769 0.0
N185 N 0.11019 0.69563 0.42896 0.0
C186 C 0.1155 0.72872 0.52789 0.0
C187 C 0.10182 0.68233 0.51732 0.0
C188 C 0.10077 0.66621 0.46787 0.0
C189 C 0.12279 0.74152 0.43891 0.0
C190 C 0.12579 0.75873 0.48829 0.0
H191 H 0.0959 0.62913 0.46148 0.0
H192 H 0.13284 0.76474 0.40886 0.0
H193 H 1.00287 0.67019 0.38715 0.0
H194 H 0.00365 0.52494 0.36516 0.0
H195 H 0.26006 0.7755 0.30378 0.0
H196 H 0.09529 0.65791 0.54748 0.0
H197 H 0.13782 0.79447 0.49543 0.0
C198 C 0.82777 0.52214 0.12912 0.0
C199 C 0.77711 0.53768 0.13502 0.0
N200 N 0.74416 0.50094 0.12916 0.0
N201 N 0.82683 0.47588 0.1192 0.0
C202 C 0.77546 0.46404 0.11966 0.0
H203 H 0.863 0.54317 0.13293 0.0
Co204 Co 0.8838 0.43565 0.11163 0.0
C205 C 0.83313 0.34724 0.07048 0.0
O206 O 0.86499 0.32152 0.0991 0.0
N207 N 0.94083 0.39563 0.10323 0.0
C208 C 1.0011 0.35416 0.06452 0.0
C209 C 0.95169 0.37319 0.06003 0.0
C210 C 0.98481 0.3907 0.13291 0.0
N211 N 0.02208 0.36564 0.11027 0.0
O212 O 0.9041 0.46851 0.05211 0.0
H213 H 0.92658 0.37313 0.02613 0.0
H214 H 0.99154 0.40888 0.16833 0.0
O215 O 0.83701 0.39198 0.07222 0.0
C216 C 0.94095 0.49641 0.06758 0.0
O217 O 0.95152 0.49944 0.11626 0.0
N218 N 0.87048 0.40933 0.17417 0.0
C219 C 0.87148 0.38944 0.27693 0.0
C220 C 0.8372 0.36533 0.24272 0.0
C221 C 0.8368 0.37629 0.19108 0.0
C222 C 0.9009 0.43475 0.2076 0.0
C223 C 0.90248 0.42525 0.25858 0.0
H224 H 0.80896 0.35895 0.16559 0.0
H225 H 0.92465 0.46295 0.19444 0.0
H226 H 0.76128 0.42878 0.11351 0.0
H227 H 0.76576 0.57308 0.14424 0.0
H228 H 0.02114 0.33582 0.03524 0.0
H229 H 0.81112 0.33848 0.25564 0.0
H230 H 0.9274 0.44659 0.28356 0.0
C231 C 0.93628 0.52851 0.63488 0.0
C232 C 0.98758 0.54248 0.6292 0.0
N233 N 0.01915 0.50499 0.636 0.0
N234 N 0.93549 0.48249 0.64572 0.0
C235 C 0.98655 0.46924 0.64586 0.0
H236 H 0.90187 0.55059 0.63118 0.0
Co237 Co 0.87688 0.44494 0.65736 0.0
C238 C 0.92357 0.35485 0.69407 0.0
O239 O 0.88826 0.33196 0.66602 0.0
N240 N 0.81862 0.4074 0.67061 0.0
C241 C 0.76242 0.36755 0.71574 0.0
C242 C 0.81068 0.38873 0.71628 0.0
C243 C 0.77385 0.39797 0.64331 0.0
N244 N 0.7392 0.37358 0.66981 0.0
O245 O 0.86243 0.48033 0.71757 0.0
H246 H 0.83766 0.39179 0.74872 0.0
H247 H 0.76477 0.41155 0.60614 0.0
O248 O 0.92328 0.39975 0.69435 0.0
C249 C 0.82612 0.5093 0.70372 0.0
O250 O 0.81275 0.51149 0.65549 0.0
N251 N 0.88488 0.41602 0.5946 0.0
C252 C 0.88083 0.39031 0.49306 0.0
C253 C 0.84646 0.42392 0.51112 0.0
C254 C 0.85006 0.43689 0.5615 0.0
C255 C 0.92101 0.38498 0.57757 0.0
C256 C 0.91919 0.37115 0.52669 0.0
H257 H 0.82469 0.4643 0.57444 0.0
H258 H 0.95218 0.37169 0.60233 0.0
H259 H 0.99988 0.43402 0.65362 0.0
H260 H 1.00047 0.57738 0.62013 0.0
H261 H 0.74497 0.35082 0.74737 0.0
H262 H 0.81816 0.44149 0.48611 0.0
H263 H 0.94783 0.34636 0.51368 0.0
C264 C 0.67866 0.08375 0.87033 0.0
C265 C 0.729 0.06751 0.86436 0.0
N266 N 0.76297 0.10266 0.87527 0.0
N267 N 0.6808 0.12884 0.8853 0.0
C268 C 0.7326 0.13936 0.88775 0.0
H269 H 0.64283 0.06412 0.86313 0.0
Co270 Co 0.62415 0.16859 0.89564 0.0
C271 C 0.67447 0.25564 0.93966 0.0
O272 O 0.64215 0.28162 0.91181 0.0
N273 N 0.56712 0.2077 0.90678 0.0
C274 C 0.50607 0.24621 0.9477 0.0
C275 C 0.55629 0.22868 0.95083 0.0
C276 C 0.52245 0.21189 0.87811 0.0
N277 N 0.48475 0.23521 0.90195 0.0
O278 O 0.60468 0.13305 0.95374 0.0
H279 H 0.58192 0.2285 0.98437 0.0
H280 H 0.51554 0.19405 0.84258 0.0
O281 O 0.67117 0.2109 0.93672 0.0
C282 C 0.56741 0.1056 0.9382 0.0
O283 O 0.55556 0.104 0.88964 0.0
N284 N 0.63681 0.19811 0.83427 0.0
C285 C 0.6338 0.2258 0.73355 0.0
C286 C 0.67032 0.24591 0.76863 0.0
C287 C 0.67156 0.23116 0.81921 0.0
C288 C 0.60469 0.17597 0.79951 0.0
C289 C 0.60162 0.18979 0.74962 0.0
H290 H 0.70096 0.24557 0.84531 0.0
H291 H 0.58068 0.14712 0.81084 0.0
H292 H 0.74781 0.1735 0.89816 0.0
H293 H 0.73951 1.03287 0.85163 0.0
H294 H 0.48593 0.26313 0.97782 0.0
H295 H 0.69763 0.27235 0.75704 0.0
H296 H 0.57509 0.1713 0.72345 0.0
C297 C 0.56242 0.06827 0.37383 0.0
C298 C 0.51052 0.05501 0.37635 0.0
N299 N 0.48024 0.09352 0.37139 0.0
N300 N 0.56488 0.11487 0.36682 0.0
C301 C 0.51421 0.12925 0.36589 0.0
H302 H 0.59609 1.04525 0.37672 0.0
Co303 Co 0.62527 0.15083 0.35917 0.0
C304 C 0.58486 0.24167 0.31603 0.0
O305 O 0.62097 0.2647 0.34296 0.0
N306 N 0.68587 0.18617 0.3503 0.0
C307 C 0.74969 0.22122 0.31035 0.0
C308 C 0.69999 0.20297 0.30544 0.0
C309 C 0.72822 0.19372 0.38161 0.0
N310 N 0.76751 0.21516 0.3583 0.0
O311 O 0.64276 0.11509 0.30001 0.0
H312 H 0.67639 0.20027 0.2707 0.0
H313 H 0.73143 0.18195 0.42008 0.0
O314 O 0.58273 0.19689 0.31895 0.0
C315 C 0.67861 0.0858 0.31412 0.0
O316 O 0.69028 0.08226 0.36261 0.0
N317 N 0.61374 0.18071 0.42096 0.0
C318 C 0.61943 0.21392 0.52004 0.0
C319 C 0.64737 0.17405 0.50628 0.0
C320 C 0.64301 0.15761 0.45699 0.0
C321 C 0.5824 0.21722 0.4342 0.0
C322 C 0.58519 0.23479 0.48375 0.0
H323 H 0.66495 0.12687 0.44676 0.0
H324 H 0.55496 0.23289 0.40725 0.0
H325 H 0.50228 0.16524 0.3604 0.0
H326 H 0.49628 1.01982 0.38184 0.0
H327 H 0.77207 0.23514 0.28015 0.0
H328 H 0.67211 0.15528 0.53356 0.0
H329 H 0.5612 0.26447 0.4934 0.0
C330 C 0.31351 1.02568 0.13323 0.0
C331 C 0.26217 1.03995 0.13794 0.0
N332 N 0.23051 1.00275 0.12939 0.0
N333 N 0.31421 0.97979 0.12128 0.0
C334 C 0.26307 0.96684 0.1195 0.0
H335 H 0.34802 1.04745 0.13841 0.0
Co336 Co 0.37317 0.94261 0.11049 0.0
C337 C 0.32925 0.8533 0.06801 0.0
O338 O 0.36347 0.83022 0.09688 0.0
N339 N 0.43228 0.90583 0.09819 0.0
C340 C 0.49083 0.86781 0.05367 0.0
C341 C 0.44187 0.88756 0.05247 0.0
C342 C 0.47701 0.89804 0.1261 0.0
N343 N 0.51314 0.87486 0.09989 0.0
O344 O 0.39046 0.97959 0.05279 0.0
H345 H 0.41565 0.89017 0.01946 0.0
H346 H 0.48493 0.91227 0.16336 0.0
O347 O 0.32862 0.89823 0.06952 0.0
C348 C 0.42696 1.00774 0.06853 0.0
O349 O 0.43882 1.00918 0.11711 0.0
N350 N 0.36221 0.91168 0.17115 0.0
C351 C 0.36764 0.87865 0.26966 0.0
C352 C 0.32961 0.861 0.2346 0.0
C353 C 0.32696 0.87865 0.18526 0.0
C354 C 0.3954 0.93197 0.20628 0.0
C355 C 0.3995 0.91561 0.25522 0.0
H356 H 0.29659 0.86592 0.15911 0.0
H357 H 0.41979 0.96091 0.19583 0.0
H358 H 0.24974 0.93174 0.1106 0.0
H359 H 0.24926 0.0748 0.14762 0.0
H360 H 0.50941 0.85147 0.02221 0.0
H361 H 0.3026 0.83387 0.24508 0.0
H362 H 0.4272 0.93227 0.28177 0.0
C363 C 0.44101 1.02141 0.63578 0.0
C364 C 0.49127 1.03857 0.63223 0.0
N365 N 0.52465 1.00208 0.63086 0.0
N366 N 0.4424 0.9742 0.63688 0.0
C367 C 0.49399 0.96372 0.63377 0.0
H368 H 0.40576 1.04236 0.63681 0.0
Co369 Co 0.38414 0.93336 0.64085 0.0
C370 C 0.46079 0.85797 0.67699 0.0
O371 O 0.47525 0.84849 0.63126 0.0
N372 N 0.32682 0.89413 0.64721 0.0
C373 C 0.26847 0.84611 0.67874 0.0
C374 C 0.31853 0.86362 0.68465 0.0
C375 C 0.28153 0.89466 0.61912 0.0
N376 N 0.24526 0.86588 0.63764 0.0
O377 O 0.36019 0.96793 0.6977 0.0
H378 H 0.34595 0.85616 0.71578 0.0
H379 H 0.27434 0.91791 0.58756 0.0
O380 O 0.42762 0.89085 0.68458 0.0
C381 C 0.32379 0.9953 0.68053 0.0
O382 O 0.31564 0.99789 0.63143 0.0
N383 N 0.40062 0.90258 0.57979 0.0
C384 C 0.3961 0.86984 0.48057 0.0
C385 C 0.41085 0.91588 0.4916 0.0
C386 C 0.41143 0.93186 0.5411 0.0
C387 C 0.38752 0.85686 0.56944 0.0
C388 C 0.38463 0.83991 0.51992 0.0
H389 H 0.41685 0.96884 0.54743 0.0
H390 H 0.37675 0.83363 0.59922 0.0
H391 H 0.5091 0.92866 0.63351 0.0
H392 H 0.50208 0.07506 0.62993 0.0
H393 H 0.24991 0.82221 0.70388 0.0
H394 H 0.41833 0.9403 0.46169 0.0
H395 H 0.37176 0.80446 0.5125 0.0
C396 C 0.67667 0.57667 0.39058 0.0
C397 C 0.72713 0.56094 0.38403 0.0
N398 N 0.76047 0.59694 0.39269 0.0
N399 N 0.67819 0.62229 0.40375 0.0
C400 C 0.72979 0.63359 0.4045 0.0
H401 H 0.64121 0.55614 0.38548 0.0
Co402 Co 0.62095 0.66091 0.41641 0.0
C403 C 0.6695 0.7495 0.45635 0.0
O404 O 0.6339 0.77334 0.4299 0.0
N405 N 0.56324 0.69892 0.43042 0.0
C406 C 0.50433 0.73544 0.47615 0.0
C407 C 0.55436 0.71756 0.47618 0.0
C408 C 0.51753 0.70513 0.40365 0.0
N409 N 0.48126 0.72729 0.43049 0.0
O410 O 0.60557 0.62493 0.47522 0.0
H411 H 0.58153 0.71581 0.50857 0.0
H412 H 0.50882 0.69002 0.36697 0.0
O413 O 0.66852 0.7046 0.45497 0.0
C414 C 0.5686 0.59705 0.46014 0.0
O415 O 0.5549 0.59657 0.41191 0.0
N416 N 0.63025 0.69093 0.35476 0.0
C417 C 0.62774 0.7212 0.25512 0.0
C418 C 0.66635 0.73799 0.2901 0.0
C419 C 0.66739 0.72187 0.33993 0.0
C420 C 0.59553 0.67186 0.32004 0.0
C421 C 0.59258 0.68726 0.27057 0.0
H422 H 0.69874 0.73344 0.36561 0.0
H423 H 0.56983 0.64401 0.33087 0.0
H424 H 0.74478 0.66811 0.41363 0.0
H425 H 0.73822 0.52603 0.37264 0.0
H426 H 0.48553 0.75102 0.50793 0.0
H427 H 0.69562 0.76289 0.27896 0.0
H428 H 0.56406 0.67148 0.24419 0.0
C429 C 0.58359 0.60725 0.92683 0.0
C430 C 0.53418 0.58756 0.92786 0.0
N431 N 0.50313 0.60789 0.89186 0.0
N432 N 0.58353 0.6401 0.8906 0.0
C433 C 0.5344 0.63865 0.86907 0.0
H434 H 0.61657 0.60001 0.95267 0.0
Co435 Co 0.63865 0.68121 0.87752 0.0
C436 C 0.57191 0.76036 0.83942 0.0
O437 O 0.58553 0.78525 0.87951 0.0
N438 N 0.69449 0.7192 0.86142 0.0
C439 C 0.7517 0.76544 0.82474 0.0
C440 C 0.69943 0.75341 0.82692 0.0
C441 C 0.74405 0.70997 0.87804 0.0
N442 N 0.77915 0.7383 0.85752 0.0
O443 O 0.65813 0.64147 0.82245 0.0
H444 H 0.66794 0.7677 0.80323 0.0
H445 H 0.75409 0.68315 0.90539 0.0
O446 O 0.59095 0.7192 0.8337 0.0
C447 C 0.69077 0.61 0.83801 0.0
O448 O 0.69938 0.6053 0.88683 0.0
N449 N 0.62412 0.71858 0.93767 0.0
C450 C 0.61763 0.74443 0.03943 0.0
C451 C 0.57386 0.72577 0.01235 0.0
C452 C 0.57744 0.71452 0.96126 0.0
C453 C 0.66381 0.74351 0.96203 0.0
C454 C 0.66106 0.75707 0.01222 0.0
H455 H 0.54302 0.70008 0.9421 0.0
H456 H 0.69954 0.75231 0.94475 0.0
H457 H 0.52082 0.66132 0.83881 0.0
H458 H 0.5213 0.56252 0.95512 0.0
H459 H 0.76818 0.7918 0.80107 0.0
H460 H 0.53814 0.7169 0.03074 0.0
H461 H 0.69444 0.77496 0.03017 0.0
C462 C 0.32553 0.49625 0.67327 0.0
C463 C 0.27611 0.51579 0.67493 0.0
N464 N 0.24388 0.49337 0.64119 0.0
N465 N 0.32456 0.46136 0.6389 0.0
C466 C 0.27459 0.46132 0.61906 0.0
H467 H 0.35937 0.5053 0.69738 0.0
Co468 Co 0.38111 0.42122 0.62619 0.0
C469 C 0.32194 0.34069 0.58177 0.0
O470 O 0.34114 0.31395 0.6181 0.0
N471 N 0.43881 0.38471 0.61039 0.0
C472 C 0.49801 0.34205 0.57143 0.0
C473 C 0.4461 0.35547 0.57111 0.0
C474 C 0.48715 0.39013 0.63238 0.0
N475 N 0.52339 0.36352 0.61047 0.0
O476 O 0.40122 0.46226 0.57338 0.0
H477 H 0.41663 0.34608 0.54239 0.0
H478 H 0.49547 0.41339 0.66399 0.0
O479 O 0.33548 0.3838 0.58001 0.0
C480 C 0.43496 0.49222 0.59051 0.0
O481 O 0.44477 0.49428 0.63942 0.0
N482 N 0.36527 0.38175 0.68445 0.0
C483 C 0.36303 0.35472 0.78577 0.0
C484 C 0.31972 0.3771 0.76206 0.0
C485 C 0.32102 0.38902 0.71117 0.0
C486 C 0.40282 0.35213 0.70509 0.0
C487 C 0.40288 0.33902 0.75545 0.0
H488 H 0.28694 0.4064 0.69511 0.0
H489 H 0.43425 0.33826 0.68412 0.0
H490 H 0.2602 0.4368 0.59061 0.0
H491 H 0.26421 0.5425 0.70112 0.0
H492 H 0.5158 0.31901 0.54467 0.0
H493 H 0.2864 0.38832 0.78301 0.0
H494 H 0.43536 0.31836 0.77082 0.0
C495 C 0.43535 0.51278 0.12086 0.0
C496 C 0.48576 0.52833 0.11448 0.0
N497 N 0.51958 0.49832 0.13773 0.0
N498 N 0.43708 0.47324 0.14825 0.0
C499 C 0.48893 0.46533 0.15794 0.0
H500 H 0.39981 0.5284 0.10478 0.0
Co501 Co 0.37892 0.43635 0.16191 0.0
C502 C 0.42448 0.34707 0.20228 0.0
O503 O 0.38876 0.3239 0.175 0.0
N504 N 0.31989 0.40029 0.17643 0.0
C505 C 0.26001 0.36423 0.22102 0.0
C506 C 0.31038 0.38151 0.22174 0.0
C507 C 0.27407 0.39526 0.14951 0.0
N508 N 0.23722 0.37316 0.17547 0.0
O509 O 0.3647 0.47385 0.22007 0.0
H510 H 0.33758 0.38223 0.25416 0.0
H511 H 0.26604 0.41078 0.11314 0.0
O512 O 0.42495 0.39197 0.20094 0.0
C513 C 0.33003 0.50327 0.20366 0.0
O514 O 0.31904 0.50441 0.15496 0.0
N515 N 0.38721 0.40503 0.10073 0.0
C516 C 0.38311 0.37418 1.00107 0.0
C517 C 0.4218 0.35694 0.03555 0.0
C518 C 0.42372 0.37348 0.0855 0.0
C519 C 0.353 0.4248 0.0663 0.0
C520 C 0.34927 0.40921 0.01689 0.0
H521 H 0.45509 0.36176 0.11101 0.0
H522 H 0.32836 0.45348 0.07728 0.0
H523 H 0.50407 0.43543 0.17856 0.0
H524 H 0.49653 0.5583 0.0925 0.0
H525 H 0.2412 0.34794 0.25217 0.0
H526 H 0.45034 0.33143 0.02397 0.0
H527 H 0.32102 0.42558 0.99085 0.0
C528 C 0.33741 0.06168 0.35039 0.0
C529 C 0.31227 0.10279 0.36588 0.0
H530 H 0.41053 1.0264 0.34008 0.0
C531 C 0.34344 0.1402 0.38452 0.0
H532 H 0.31455 1.0322 0.33608 0.0
C533 C 0.39831 0.13694 0.38674 0.0
C534 C 0.42352 0.09609 0.37073 0.0
H535 H 0.32555 0.17261 0.39616 0.0
H536 H 0.42102 0.1665 0.40107 0.0
C537 C 0.3924 0.05825 0.35305 0.0
C538 C 0.89491 0.20176 0.43294 0.0
C539 C 0.92608 0.23463 0.40942 0.0
H540 H 0.8194 0.16974 0.4353 0.0
C541 C 0.90415 0.26258 0.37099 0.0
H542 H 0.91202 0.17922 0.46192 0.0
C543 C 0.85157 0.25731 0.35546 0.0
C544 C 0.8201 0.22378 0.37807 0.0
H545 H 0.92867 0.28655 0.3512 0.0
H546 H 0.83598 0.27856 0.32479 0.0
C547 C 0.84207 0.19657 0.41769 0.0
C548 C 0.39073 0.23877 0.92047 0.0
C549 C 0.4304 0.23803 0.8854 0.0
H550 H 0.30837 0.23631 0.93214 0.0
C551 C 0.4162 0.23634 0.83376 0.0
H552 H 0.40019 0.23986 0.96052 0.0
C553 C 0.36355 0.23367 0.81751 0.0
C554 C 0.32399 0.23267 0.85263 0.0
H555 H 0.44588 0.23635 0.80584 0.0
H556 H 0.35413 0.23094 0.77752 0.0
C557 C 0.33807 0.23604 0.90422 0.0
C558 C 0.90286 0.14283 0.86627 0.0
C559 C 0.93089 0.10052 0.87043 0.0
H560 H 0.8281 0.17671 0.86364 0.0
C561 C 0.90249 0.05875 0.87558 0.0
H562 H 0.92315 0.1758 0.86289 0.0
C563 C 0.84756 0.05936 0.87688 0.0
C564 C 0.81962 0.10177 0.87307 0.0
H565 H 0.92261 1.02546 0.87838 0.0
H566 H 0.82716 1.02661 0.8816 0.0
C567 C 0.84806 0.14343 0.86746 0.0
C568 C 0.66531 1.04326 0.64103 0.0
C569 C 0.69254 1.00352 0.62463 0.0
H570 H 0.59096 0.07396 0.65638 0.0
C571 C 0.66317 0.96409 0.60858 0.0
H572 H 0.68638 0.07451 0.65306 0.0
C573 C 0.60838 0.96405 0.60974 0.0
C574 C 0.58118 1.00327 0.62734 0.0
H575 H 0.6823 0.93258 0.59612 0.0
H576 H 0.5875 0.93301 0.59684 0.0
C577 C 0.61036 1.04313 0.64243 0.0
C578 C 0.1216 0.87255 0.55698 0.0
C579 C 0.08331 0.8682 0.59309 0.0
H580 H 0.20377 0.87433 0.543 0.0
C581 C 0.09918 0.86038 0.64357 0.0
H582 H 0.11047 0.87925 0.51792 0.0
C583 C 0.15235 0.858 0.65792 0.0
C584 C 0.19069 0.86364 0.62205 0.0
H585 H 0.07039 0.85648 0.67204 0.0
H586 H 0.16337 0.85325 0.69735 0.0
C587 C 0.17488 0.87024 0.57135 0.0
C588 C 0.65873 0.86618 0.09277 0.0
C589 C 0.6745 0.86191 0.14366 0.0
H590 H 0.5952 0.87368 0.03888 0.0
C591 C 0.63655 0.85874 0.18009 0.0
H592 H 0.68764 0.86806 0.06414 0.0
C593 C 0.58319 0.86218 0.16575 0.0
C594 C 0.56744 0.86785 0.11474 0.0
H595 H 0.64828 0.85524 0.21955 0.0
H596 H 0.55433 0.86055 0.1944 0.0
C597 C 0.60578 0.86894 0.07838 0.0
C598 C 0.08831 1.03862 0.11512 0.0
C599 C 0.06248 0.9969 0.12699 0.0
H600 H 0.16208 0.07327 0.10671 0.0
C601 C 0.09303 0.95777 0.14133 0.0
H602 H 0.06592 0.06939 0.10415 0.0
C603 C 0.14793 0.95994 0.14269 0.0
C604 C 0.17382 1.00136 0.13006 0.0
H605 H 0.0746 0.92488 0.15004 0.0
H606 H 0.17013 0.92905 0.15357 0.0
C607 C 0.14338 1.04091 0.11692 0.0
C608 C 0.36552 0.56007 0.89347 0.0
C609 C 0.33543 0.59961 0.87956 0.0
H610 H 0.44276 0.53172 0.90828 0.0
C611 C 0.36159 0.64104 0.86758 0.0
H612 H 0.3465 0.52772 0.90321 0.0
C613 C 0.41644 0.64329 0.87036 0.0
C614 C 0.44665 0.6042 0.88548 0.0
H615 H 0.33961 0.67191 0.85616 0.0
H616 H 0.43504 0.67622 0.86213 0.0
C617 C 0.42058 0.56244 0.89671 0.0
C618 C 0.85095 0.7353 0.92121 0.0
C619 C 0.83411 0.73956 0.8706 0.0
H620 H 0.91554 0.72741 0.97383 0.0
C621 C 0.87123 0.74203 0.83331 0.0
H622 H 0.8227 0.7339 0.95047 0.0
C623 C 0.92478 0.73812 0.84655 0.0
C624 C 0.94163 0.73264 0.8973 0.0
H625 H 0.85868 0.74544 0.79405 0.0
H626 H 0.95296 0.73937 0.81725 0.0
C627 C 0.90413 0.73203 0.9345 0.0
C628 C 0.38808 0.72708 0.45166 0.0
C629 C 0.42666 0.73246 0.41601 0.0
H630 H 0.30587 0.72371 0.46491 0.0
C631 C 0.41118 0.73987 0.36538 0.0
H632 H 0.39894 0.72052 0.49081 0.0
C633 C 0.35804 0.74119 0.35051 0.0
C634 C 0.31945 0.7348 0.38601 0.0
H635 H 0.44026 0.74432 0.33726 0.0
H636 H 0.34729 0.74582 0.311 0.0
C637 C 0.33491 0.72836 0.43681 0.0
C638 C 0.84339 0.6379 0.37615 0.0
C639 C 0.81687 0.59685 0.38888 0.0
H640 H 0.91656 0.67022 0.36145 0.0
C641 C 0.84633 0.55585 0.39772 0.0
H642 H 0.82186 0.66984 0.36811 0.0
C643 C 0.90108 0.55606 0.39427 0.0
C644 C 0.92768 0.59725 0.38164 0.0
H645 H 0.82718 0.52375 0.40812 0.0
H646 H 0.92249 0.52404 0.40214 0.0
C647 C 0.89795 0.63808 0.37242 0.0
C648 C 0.60603 0.45826 0.14496 0.0
C649 C 0.5764 0.49936 0.13744 0.0
H650 H 0.68197 0.42655 0.14919 0.0
C651 C 0.60324 0.5413 0.12839 0.0
H652 H 0.58704 0.42518 0.15155 0.0
C653 C 0.65808 0.54194 0.12611 0.0
C654 C 0.68762 0.50068 0.13292 0.0
H655 H 0.58197 0.57379 0.12306 0.0
H656 H 0.67712 0.57472 0.11813 0.0
C657 C 0.6608 0.45893 0.14286 0.0
C658 C 0.16862 0.36481 0.10782 0.0
C659 C 0.18302 0.36676 0.15942 0.0
H660 H 0.10632 0.3626 0.0517 0.0
C661 C 0.14354 0.36445 0.19469 0.0
H662 H 0.19808 0.36532 0.0797 0.0
C663 C 0.09068 0.36219 0.17853 0.0
C664 C 0.07637 0.36212 0.12691 0.0
H665 H 0.15318 0.36587 0.2347 0.0
H666 H 0.06093 0.36132 0.20639 0.0
C667 C 0.11593 0.36244 0.09174 0.0
C668 C 0.59356 0.3639 0.67663 0.0
C669 C 0.57799 0.36042 0.62549 0.0
H670 H 0.65715 0.37056 0.73097 0.0
C671 C 0.61638 0.35616 0.58944 0.0
H672 H 0.56455 0.36609 0.70516 0.0
C673 C 0.66963 0.35845 0.6042 0.0
C674 C 0.68515 0.36462 0.65521 0.0
H675 H 0.60521 0.35301 0.5498 0.0
H676 H 0.69865 0.3565 0.57568 0.0
C677 C 0.6466 0.36582 0.6914 0.0
C678 C 0.10689 0.54257 0.64667 0.0
C679 C 0.07582 0.50313 0.63422 0.0
H680 H 0.18469 0.57049 0.65833 0.0
C681 C 0.10117 0.46128 0.62142 0.0
H682 H 0.08874 0.5753 0.65694 0.0
C683 C 0.15606 0.45852 0.62228 0.0
C684 C 0.18724 0.4975 0.63616 0.0
H685 H 0.07856 0.43043 0.61091 0.0
H686 H 0.17396 0.42528 0.61359 0.0
C687 C 0.16193 0.53972 0.64784 0.0
C688 C 0.07636 0.23577 0.14093 0.0
C689 C 0.12436 0.24505 0.16802 0.0
H690 H 0.03705 0.2234 0.06925 0.0
C691 C 0.16933 0.25322 0.1403 0.0
H692 H 0.0407 0.2278 0.15973 0.0
C693 C 0.16701 0.24938 0.08783 0.0
C694 C 0.11956 0.23808 0.06164 0.0
H695 H 0.20677 0.26193 0.15876 0.0
H696 H 0.20275 0.25395 0.06772 0.0
C697 C 0.07394 0.23295 0.08849 0.0
C698 C 0.84047 0.86401 0.89237 0.0
C699 C 0.88842 0.85533 0.91945 0.0
H700 H 0.80164 0.87726 0.82088 0.0
C701 C 0.93413 0.84921 0.89227 0.0
H702 H 0.80443 0.87018 0.91148 0.0
C703 C 0.9323 0.85391 0.8399 0.0
C704 C 0.88471 0.86439 0.81348 0.0
H705 H 0.97153 0.84139 0.91132 0.0
H706 H 0.96839 0.85033 0.82008 0.0
C707 C 0.83865 0.86822 0.8401 0.0
C708 C 0.0799 0.74663 0.61082 0.0
C709 C 0.12352 0.74297 0.58082 0.0
H710 H 0.05204 0.74536 0.68543 0.0
C711 C 0.17433 0.74187 0.60362 0.0
H712 H 0.04045 0.74733 0.59376 0.0
C713 C 0.1811 0.73982 0.65611 0.0
C714 C 0.13702 0.73894 0.68606 0.0
H715 H 0.20839 0.73848 0.5808 0.0
H716 H 0.22029 0.73487 0.67279 0.0
C717 C 0.08663 0.74515 0.66308 0.0
C718 C 0.83081 0.37432 0.4113 0.0
C719 C 0.87929 0.38005 0.43828 0.0
H720 H 0.79011 0.37282 0.33893 0.0
C721 C 0.92544 0.38283 0.41163 0.0
H722 H 0.79458 0.37188 0.43104 0.0
C723 C 0.92294 0.38277 0.3591 0.0
C724 C 0.87417 0.3803 0.33196 0.0
H725 H 0.9632 0.38794 0.43128 0.0
H726 H 0.95923 0.38637 0.33965 0.0
C727 C 0.82823 0.3746 0.35861 0.0
C728 C 0.57853 0.23734 0.60041 0.0
C729 C 0.62386 0.23032 0.57319 0.0
H730 H 0.54647 0.24309 0.6733 0.0
C731 C 0.67338 0.23206 0.59901 0.0
H732 H 0.53991 0.23625 0.58164 0.0
C733 C 0.67719 0.23572 0.65156 0.0
C734 C 0.6315 0.23748 0.67913 0.0
H735 H 0.70906 0.22752 0.57875 0.0
H736 H 0.71555 0.23307 0.67067 0.0
C737 C 0.58234 0.24098 0.65291 0.0
C738 C 0.32962 0.8593 0.35255 0.0
C739 C 0.37336 0.86187 0.32226 0.0
H740 H 0.30301 0.85853 0.42812 0.0
C741 C 0.42409 0.85643 0.34473 0.0
H742 H 0.29017 0.86353 0.33625 0.0
C743 C 0.43135 0.8541 0.39692 0.0
C744 C 0.38796 0.85615 0.4274 0.0
H745 H 0.45846 0.85747 0.32211 0.0
H746 H 0.47096 0.85405 0.41363 0.0
C747 C 0.33694 0.8564 0.40498 0.0
C748 C 0.66931 0.73754 0.12196 0.0
C749 C 0.62078 0.74567 0.09566 0.0
H750 H 0.70947 0.72389 0.1928 0.0
C751 C 0.57539 0.75047 0.12358 0.0
H752 H 0.70516 0.73246 0.1022 0.0
C753 C 0.57811 0.74495 0.17587 0.0
C754 C 0.6263 0.73494 0.20147 0.0
H755 H 0.53755 0.75783 0.10515 0.0
H756 H 0.54227 0.74746 0.19625 0.0
C757 C 0.67201 0.73247 0.17417 0.0
C758 C 0.32477 0.34771 0.87118 0.0
C759 C 0.36898 0.35164 0.84165 0.0
H760 H 0.295 0.35025 0.94517 0.0
C761 C 0.41898 0.35683 0.86615 0.0
H762 H 0.2859 0.3423 0.85397 0.0
C763 C 0.42423 0.36052 0.91857 0.0
C764 C 0.37957 0.35969 0.94752 0.0
H765 H 0.454 0.36061 0.84487 0.0
H766 H 0.46278 0.36707 0.93607 0.0
C767 C 0.33003 0.35174 0.9235 0.0
C768 C 0.27216 0.34527 0.49825 0.0
C769 C 0.28806 0.31942 0.541 0.0
H770 H 0.22966 0.34562 0.42709 0.0
C771 C 0.27207 0.27241 0.54415 0.0
H772 H 0.28382 0.38147 0.49455 0.0
C773 C 0.24087 0.25175 0.50548 0.0
C774 C 0.2251 0.27758 0.46266 0.0
H775 H 0.28361 0.2514 0.57658 0.0
H776 H 0.22919 0.21556 0.50915 0.0
C777 C 0.2412 0.32456 0.45948 0.0
C778 C 0.97104 1.02167 0.47078 0.0
C779 C 0.96911 1.03369 0.52185 0.0
H780 H 0.00722 1.03363 0.40089 0.0
C781 C 0.00377 0.06843 0.5415 0.0
H782 H 0.94555 0.99468 0.45464 0.0
C783 C 0.03961 0.09049 0.51097 0.0
C784 C 0.04177 0.07835 0.45995 0.0
H785 H 1.00356 0.0785 0.58084 0.0
H786 H 0.06515 0.11738 0.52724 0.0
C787 C 0.00698 1.0437 0.44022 0.0
C788 C 0.24922 0.05133 0.69161 0.0
C789 C 0.28747 1.02079 0.71326 0.0
H790 H 0.1848 0.09809 0.70367 0.0
C791 C 0.28826 1.01338 0.76531 0.0
H792 H 0.24723 0.05773 0.65144 0.0
C793 C 0.25199 1.03618 0.79502 0.0
C794 C 0.21408 0.06712 0.77349 0.0
H795 H 0.31666 0.98979 0.78309 0.0
H796 H 0.25415 1.02984 0.83519 0.0
C797 C 0.21298 0.07425 0.72136 0.0
C798 C 0.00557 0.3512 0.75042 0.0
C799 C 0.96474 0.32813 0.7231 0.0
H800 H 0.07522 0.34472 0.7979 0.0
C801 C 0.96396 0.27883 0.72306 0.0
H802 H 0.00759 0.38904 0.75112 0.0
C803 C 1.00288 0.25328 0.74981 0.0
C804 C 0.04358 0.27637 0.7773 0.0
H805 H 0.93315 0.2598 0.70237 0.0
H806 H 1.00085 0.21544 0.74913 0.0
C807 C 0.04447 0.32566 0.77716 0.0
C808 C 0.79639 0.77595 0.53234 0.0
C809 C 0.79741 0.82525 0.53222 0.0
H810 H 0.75549 0.71338 0.50895 0.0
C811 C 0.75575 0.84917 0.50732 0.0
H812 H 0.82775 0.75623 0.55117 0.0
C813 C 0.71413 0.82449 0.48335 0.0
C814 C 0.71308 0.77521 0.48349 0.0
H815 H 0.75513 0.88701 0.50636 0.0
H816 H 0.68279 0.84423 0.4645 0.0
C817 C 0.75479 0.75125 0.50829 0.0
C818 C 0.7113 0.07101 0.22701 0.0
C819 C 0.71242 0.06054 0.27852 0.0
H820 H 0.74448 0.05815 0.15563 0.0
C821 C 0.74971 1.02766 0.2973 0.0
H822 H 0.68366 0.09644 0.21137 0.0
C823 C 0.785 1.00593 0.26557 0.0
C824 C 0.78407 1.01649 0.2141 0.0
H825 H 0.75195 1.01872 0.33688 0.0
H826 H 0.81266 0.98058 0.28132 0.0
C827 C 0.74668 1.04928 0.19523 0.0
C828 C 0.97159 0.83478 0.26302 0.0
C829 C 0.96881 0.81718 0.21362 0.0
H830 H 0.99871 0.82398 0.33933 0.0
C831 C 0.99552 0.77535 0.20297 0.0
H832 H 0.95151 0.86686 0.27245 0.0
C833 C 0.02307 0.75086 0.24124 0.0
C834 C 0.02375 0.76739 0.29106 0.0
H835 H 0.99444 0.76104 0.16511 0.0
H836 H 0.04231 0.7183 0.23211 0.0
C837 C 0.99844 0.80999 0.30136 0.0
C838 C 0.25201 0.84943 1.00565 0.0
C839 C 0.29124 0.82656 0.03501 0.0
H840 H 0.18646 0.8426 0.95298 0.0
C841 C 0.29374 0.77733 0.033 0.0
H842 H 0.24881 0.8872 0.00636 0.0
C843 C 0.25793 0.75161 1.00242 0.0
C844 C 0.2187 0.77448 0.97307 0.0
H845 H 0.32348 0.75845 0.05509 0.0
H846 H 0.26112 0.71384 1.00171 0.0
C847 C 0.2162 0.82372 0.97506 0.0
C848 C 0.0109 0.53546 0.9515 0.0
C849 C 0.04904 0.5667 0.97247 0.0
H850 H 0.94645 0.48913 0.9645 0.0
C851 C 0.05039 0.57496 0.02446 0.0
H852 H 0.00854 0.52835 0.91139 0.0
C853 C 0.01438 0.55273 0.05465 0.0
C854 C 0.9761 0.5216 0.03371 0.0
H855 H 0.07864 0.59913 0.04172 0.0
H856 H 0.01672 0.56006 0.0947 0.0
C857 C 0.97485 0.51318 0.98173 0.0
C858 C 0.22234 0.58517 0.24434 0.0
C859 C 0.22201 0.57722 0.29623 0.0
H860 H 0.25753 0.56903 0.17496 0.0
C861 C 0.25944 0.54609 0.3182 0.0
H862 H 0.19462 0.60926 0.22636 0.0
C863 C 0.29592 0.523 0.28883 0.0
C864 C 0.29587 0.53064 0.23683 0.0
H865 H 0.26055 0.5393 0.35828 0.0
H866 H 0.32337 0.49862 0.30668 0.0
C867 C 0.25886 0.56226 0.21505 0.0
C868 C 0.79004 0.27473 0.03362 0.0
C869 C 0.79253 0.32392 0.03689 0.0
H870 H 0.75126 0.21462 1.00063 0.0
C871 C 0.75574 0.35023 0.00801 0.0
H872 H 0.81772 0.25324 0.05527 0.0
C873 C 0.71755 0.32798 0.97671 0.0
C874 C 0.71506 0.2788 0.97339 0.0
H875 H 0.75631 0.38808 0.00962 0.0
H876 H 0.6899 0.34951 0.95507 0.0
C877 C 0.75185 0.25247 1.00228 0.0
C878 C 0.75717 0.56938 0.72008 0.0
C879 C 0.79397 0.53628 0.73931 0.0
H880 H 0.69557 0.61799 0.73546 0.0
C881 C 0.79592 0.52733 0.79116 0.0
H882 H 0.75436 0.57726 0.68024 0.0
C883 C 0.76163 0.55067 0.82281 0.0
C884 C 0.72457 0.58352 0.80341 0.0
H885 H 0.82325 0.50182 0.80714 0.0
H886 H 0.76431 0.54292 0.86268 0.0
C887 C 0.72297 0.59264 0.75164 0.0
C888 C 0.50023 0.06448 0.05516 0.0
C889 C 0.46116 1.03396 0.03449 0.0
H890 H 0.56473 0.11056 0.0416 0.0
C891 C 0.45841 1.0267 0.9823 0.0
H892 H 0.50376 0.07087 0.09537 0.0
C893 C 0.49382 1.04929 0.95164 0.0
C894 C 0.53294 0.07975 0.97231 0.0
H895 H 0.4294 1.00315 0.96518 0.0
H896 H 0.4903 1.04285 0.91144 0.0
C897 C 0.53567 0.08706 0.0245 0.0
C898 C 0.46356 0.27116 0.23334 0.0
C899 C 0.46547 0.32042 0.23183 0.0
H900 H 0.49936 0.20774 0.26071 0.0
C901 C 0.5073 0.34334 0.25785 0.0
H902 H 0.43195 0.2522 0.21376 0.0
C903 C 0.54617 0.31768 0.28462 0.0
C904 C 0.5442 0.26843 0.28618 0.0
H905 H 0.51018 0.38111 0.25748 0.0
H906 H 0.57775 0.33663 0.30427 0.0
C907 C 0.50236 0.24552 0.26018 0.0
C908 C 0.51216 0.78916 0.71014 0.0
C909 C 0.4854 0.83127 0.7195 0.0
H910 H 0.5597 0.73332 0.74062 0.0
C911 C 0.48431 0.84796 0.76918 0.0
H912 H 0.51331 0.77503 0.67231 0.0
C913 C 0.51133 0.82414 0.80829 0.0
C914 C 0.53939 0.78279 0.79865 0.0
H915 H 0.46393 0.88013 0.77766 0.0
H916 H 0.51089 0.83859 0.84603 0.0
C917 C 0.53855 0.76503 0.74931 0.0
C918 C 0.49842 0.53789 0.47394 0.0
C919 C 0.53654 0.56924 0.49455 0.0
H920 H 0.43627 0.4896 0.48751 0.0
C921 C 0.54032 0.57547 0.54693 0.0
H922 H 0.49422 0.53215 0.43365 0.0
C923 C 0.50655 0.55106 0.57783 0.0
C924 C 0.46826 0.5199 0.55706 0.0
H925 H 0.56877 0.59958 0.56396 0.0
H926 H 0.51063 0.55661 0.61815 0.0
C927 C 0.46475 0.51358 0.50473 0.0
loop_
_geom_bond_atom_site_label_1
_geom_bond_atom_site_label_2
_geom_bond_distance
_geom_bond_site_symmetry_2
_ccdc_geom_bond_type
C0 C1 1.351 . S
C0 N3 1.368 . S
C0 H5 0.931 . S
C1 C0 1.351 . S
C1 N2 1.373 . S
C1 H29 0.930 . S
N2 C1 1.373 . S
N2 C4 1.340 . S
N3 C0 1.368 . S
N3 C4 1.321 . S
N3 Co6 2.135 . S
C4 N2 1.340 . S
C4 N3 1.321 . S
C4 H28 0.930 . S
H5 C0 0.931 . S
Co6 N3 2.135 . S
Co6 N9 2.121 . S
Co6 O14 2.055 . S
Co6 O17 2.039 . S
Co6 N20 2.140 . S
C7 O8 1.227 . S
C7 O17 1.265 . S
O8 C7 1.227 . S
N9 Co6 2.121 . S
N9 C11 1.375 . S
N9 C12 1.313 . S
C10 C11 1.338 1_655 S
C10 N13 1.377 . S
C10 H30 0.930 . S
C11 N9 1.375 . S
C11 C10 1.338 1_455 S
C11 H15 0.931 . S
C12 N9 1.313 . S
C12 N13 1.344 1_455 S
C12 H16 0.929 1_455 S
N13 C10 1.377 . S
N13 C12 1.344 1_655 S
O14 Co6 2.055 . S
O14 C18 1.253 . S
H15 C11 0.931 . S
H16 C12 0.929 1_655 S
O17 Co6 2.039 . S
O17 C7 1.265 . S
C18 O14 1.253 . S
C18 O19 1.227 . S
O19 C18 1.227 . S
N20 Co6 2.140 . S
N20 C23 1.346 . S
N20 C24 1.345 . S
C21 C22 1.387 . S
C21 C25 1.391 . S
C22 C21 1.387 . S
C22 C23 1.369 . S
C22 H31 0.929 . S
C23 N20 1.346 . S
C23 C22 1.369 . S
C23 H26 0.928 . S
C24 N20 1.345 . S
C24 C25 1.371 . S
C24 H27 0.931 . S
C25 C21 1.391 . S
C25 C24 1.371 . S
C25 H32 0.930 . S
H26 C23 0.928 . S
H27 C24 0.931 . S
H28 C4 0.930 . S
H29 C1 0.930 . S
H30 C10 0.930 . S
H31 C22 0.929 . S
H32 C25 0.930 . S
C33 C34 1.351 1_455 S
C33 N36 1.368 . S
C33 H38 0.931 . S
C34 C33 1.351 1_655 S
C34 N35 1.373 . S
C34 H62 0.930 . S
N35 C34 1.373 . S
N35 C37 1.340 1_655 S
N36 C33 1.368 . S
N36 C37 1.321 . S
N36 Co39 2.135 . S
C37 N35 1.340 1_455 S
C37 N36 1.321 . S
C37 H61 0.930 1_455 S
H38 C33 0.931 . S
Co39 N36 2.135 . S
Co39 N42 2.121 . S
Co39 O47 2.055 . S
Co39 O50 2.039 . S
Co39 N53 2.140 . S
C40 O41 1.227 . S
C40 O50 1.265 . S
O41 C40 1.227 . S
N42 Co39 2.121 . S
N42 C44 1.375 . S
N42 C45 1.313 . S
C43 C44 1.338 . S
C43 N46 1.377 . S
C43 H63 0.930 . S
C44 N42 1.375 . S
C44 C43 1.338 . S
C44 H48 0.931 . S
C45 N42 1.313 . S
C45 N46 1.344 . S
C45 H49 0.930 . S
N46 C43 1.377 . S
N46 C45 1.344 . S
O47 Co39 2.055 . S
O47 C51 1.253 . S
H48 C44 0.931 . S
H49 C45 0.930 . S
O50 Co39 2.039 . S
O50 C40 1.265 . S
C51 O47 1.253 . S
C51 O52 1.227 . S
O52 C51 1.227 . S
N53 Co39 2.140 . S
N53 C56 1.346 . S
N53 C57 1.345 . S
C54 C55 1.387 1_554 S
C54 C58 1.391 . S
C55 C54 1.387 1_556 S
C55 C56 1.370 . S
C55 H64 0.929 1_556 S
C56 N53 1.346 . S
C56 C55 1.370 . S
C56 H59 0.928 . S
C57 N53 1.345 . S
C57 C58 1.371 1_556 S
C57 H60 0.931 . S
C58 C54 1.391 . S
C58 C57 1.371 1_554 S
C58 H65 0.930 . S
H59 C56 0.928 . S
H60 C57 0.931 . S
H61 C37 0.930 1_655 S
H62 C34 0.930 . S
H63 C43 0.930 . S
H64 C55 0.929 1_554 S
H65 C58 0.930 . S
C66 C67 1.351 . S
C66 N69 1.368 . S
C66 H71 0.931 . S
C67 C66 1.351 . S
C67 N68 1.373 . S
C67 H95 0.930 . S
N68 C67 1.373 . S
N68 C70 1.340 . S
N69 C66 1.368 . S
N69 C70 1.321 . S
N69 Co72 2.135 . S
C70 N68 1.340 . S
C70 N69 1.321 . S
C70 H94 0.930 . S
H71 C66 0.931 . S
Co72 N69 2.135 . S
Co72 N75 2.121 . S
Co72 O80 2.055 . S
Co72 O83 2.039 . S
Co72 N86 2.140 . S
C73 O74 1.227 . S
C73 O83 1.265 . S
O74 C73 1.227 . S
N75 Co72 2.121 . S
N75 C77 1.375 . S
N75 C78 1.313 . S
C76 C77 1.338 1_455 S
C76 N79 1.377 . S
C76 H96 0.930 . S
C77 N75 1.375 . S
C77 C76 1.338 1_655 S
C77 H81 0.931 . S
C78 N75 1.313 . S
C78 N79 1.344 1_655 S
C78 H82 0.929 1_655 S
N79 C76 1.377 . S
N79 C78 1.344 1_455 S
O80 Co72 2.055 . S
O80 C84 1.253 . S
H81 C77 0.931 . S
H82 C78 0.929 1_455 S
O83 Co72 2.039 . S
O83 C73 1.265 . S
C84 O80 1.253 . S
C84 O85 1.227 . S
O85 C84 1.227 . S
N86 Co72 2.140 . S
N86 C89 1.346 . S
N86 C90 1.345 . S
C87 C88 1.387 . S
C87 C91 1.391 . S
C88 C87 1.387 . S
C88 C89 1.369 . S
C88 H97 0.929 . S
C89 N86 1.346 . S
C89 C88 1.369 . S
C89 H92 0.928 . S
C90 N86 1.345 . S
C90 C91 1.371 . S
C90 H93 0.931 . S
C91 C87 1.391 . S
C91 C90 1.371 . S
C91 H98 0.930 . S
H92 C89 0.928 . S
H93 C90 0.931 . S
H94 C70 0.930 . S
H95 C67 0.930 . S
H96 C76 0.930 . S
H97 C88 0.929 . S
H98 C91 0.930 . S
C99 C100 1.351 1_655 S
C99 N102 1.368 . S
C99 H104 0.931 . S
C100 C99 1.351 1_455 S
C100 N101 1.373 . S
C100 H128 0.930 . S
N101 C100 1.373 . S
N101 C103 1.340 1_455 S
N102 C99 1.368 . S
N102 C103 1.321 . S
N102 Co105 2.135 . S
C103 N101 1.340 1_655 S
C103 N102 1.321 . S
C103 H127 0.930 1_655 S
H104 C99 0.931 . S
Co105 N102 2.135 . S
Co105 N108 2.121 . S
Co105 O113 2.055 . S
Co105 O116 2.039 . S
Co105 N119 2.140 . S
C106 O107 1.227 . S
C106 O116 1.265 . S
O107 C106 1.227 . S
N108 Co105 2.121 . S
N108 C110 1.375 . S
N108 C111 1.313 . S
C109 C110 1.338 . S
C109 N112 1.377 . S
C109 H129 0.930 . S
C110 N108 1.375 . S
C110 C109 1.338 . S
C110 H114 0.931 . S
C111 N108 1.313 . S
C111 N112 1.344 . S
C111 H115 0.930 . S
N112 C109 1.377 . S
N112 C111 1.344 . S
O113 Co105 2.055 . S
O113 C117 1.253 . S
H114 C110 0.931 . S
H115 C111 0.930 . S
O116 Co105 2.039 . S
O116 C106 1.265 . S
C117 O113 1.253 . S
C117 O118 1.227 . S
O118 C117 1.227 . S
N119 Co105 2.140 . S
N119 C122 1.346 . S
N119 C123 1.345 . S
C120 C121 1.387 1_556 S
C120 C124 1.391 . S
C121 C120 1.387 1_554 S
C121 C122 1.370 . S
C121 H130 0.929 1_554 S
C122 N119 1.346 . S
C122 C121 1.370 . S
C122 H125 0.928 . S
C123 N119 1.345 . S
C123 C124 1.371 1_554 S
C123 H126 0.931 . S
C124 C120 1.391 . S
C124 C123 1.371 1_556 S
C124 H131 0.930 . S
H125 C122 0.928 . S
H126 C123 0.931 . S
H127 C103 0.930 1_455 S
H128 C100 0.930 . S
H129 C109 0.930 . S
H130 C121 0.929 1_556 S
H131 C124 0.930 . S
C132 C133 1.351 . S
C132 N135 1.368 . S
C132 H137 0.931 . S
C133 C132 1.351 . S
C133 N134 1.373 . S
C133 H161 0.930 . S
N134 C133 1.373 . S
N134 C136 1.340 . S
N135 C132 1.368 . S
N135 C136 1.321 . S
N135 Co138 2.135 . S
C136 N134 1.340 . S
C136 N135 1.321 . S
C136 H160 0.930 . S
H137 C132 0.931 . S
Co138 N135 2.135 . S
Co138 N141 2.121 . S
Co138 O146 2.055 . S
Co138 O149 2.039 . S
Co138 N152 2.140 . S
C139 O140 1.227 . S
C139 O149 1.265 . S
O140 C139 1.227 . S
N141 Co138 2.121 . S
N141 C143 1.375 . S
N141 C144 1.313 . S
C142 C143 1.338 1_655 S
C142 N145 1.377 . S
C142 H162 0.930 . S
C143 N141 1.375 . S
C143 C142 1.338 1_455 S
C143 H147 0.931 . S
C144 N141 1.313 . S
C144 N145 1.344 1_455 S
C144 H148 0.929 1_455 S
N145 C142 1.377 . S
N145 C144 1.344 1_655 S
O146 Co138 2.055 . S
O146 C150 1.253 . S
H147 C143 0.931 . S
H148 C144 0.929 1_655 S
O149 Co138 2.039 . S
O149 C139 1.265 . S
C150 O146 1.253 . S
C150 O151 1.227 . S
O151 C150 1.227 . S
N152 Co138 2.140 . S
N152 C155 1.346 . S
N152 C156 1.345 . S
C153 C154 1.387 . S
C153 C157 1.391 . S
C154 C153 1.387 . S
C154 C155 1.369 . S
C154 H163 0.929 . S
C155 N152 1.346 . S
C155 C154 1.369 . S
C155 H158 0.928 . S
C156 N152 1.345 . S
C156 C157 1.371 . S
C156 H159 0.931 . S
C157 C153 1.391 . S
C157 C156 1.371 . S
C157 H164 0.930 . S
H158 C155 0.928 . S
H159 C156 0.931 . S
H160 C136 0.930 . S
H161 C133 0.930 . S
H162 C142 0.930 . S
H163 C154 0.929 . S
H164 C157 0.930 . S
C165 C166 1.351 1_455 S
C165 N168 1.368 . S
C165 H170 0.931 . S
C166 C165 1.351 1_655 S
C166 N167 1.373 . S
C166 H194 0.930 . S
N167 C166 1.373 . S
N167 C169 1.340 1_655 S
N168 C165 1.368 . S
N168 C169 1.321 . S
N168 Co171 2.135 . S
C169 N167 1.340 1_455 S
C169 N168 1.321 . S
C169 H193 0.930 1_455 S
H170 C165 0.931 . S
Co171 N168 2.135 . S
Co171 N174 2.121 . S
Co171 O179 2.055 . S
Co171 O182 2.039 . S
Co171 N185 2.140 . S
C172 O173 1.227 . S
C172 O182 1.265 . S
O173 C172 1.227 . S
N174 Co171 2.121 . S
N174 C176 1.375 . S
N174 C177 1.313 . S
C175 C176 1.338 . S
C175 N178 1.377 . S
C175 H195 0.930 . S
C176 N174 1.375 . S
C176 C175 1.338 . S
C176 H180 0.931 . S
C177 N174 1.313 . S
C177 N178 1.344 . S
C177 H181 0.930 . S
N178 C175 1.377 . S
N178 C177 1.344 . S
O179 Co171 2.055 . S
O179 C183 1.253 . S
H180 C176 0.931 . S
H181 C177 0.930 . S
O182 Co171 2.039 . S
O182 C172 1.265 . S
C183 O179 1.253 . S
C183 O184 1.227 . S
O184 C183 1.227 . S
N185 Co171 2.140 . S
N185 C188 1.346 . S
N185 C189 1.345 . S
C186 C187 1.387 . S
C186 C190 1.391 . S
C187 C186 1.387 . S
C187 C188 1.369 . S
C187 H196 0.929 . S
C188 N185 1.346 . S
C188 C187 1.369 . S
C188 H191 0.928 . S
C189 N185 1.345 . S
C189 C190 1.371 . S
C189 H192 0.931 . S
C190 C186 1.391 . S
C190 C189 1.371 . S
C190 H197 0.930 . S
H191 C188 0.928 . S
H192 C189 0.931 . S
H193 C169 0.930 1_655 S
H194 C166 0.930 . S
H195 C175 0.930 . S
H196 C187 0.929 . S
H197 C190 0.930 . S
C198 C199 1.351 . S
C198 N201 1.368 . S
C198 H203 0.931 . S
C199 C198 1.351 . S
C199 N200 1.373 . S
C199 H227 0.930 . S
N200 C199 1.373 . S
N200 C202 1.340 . S
N201 C198 1.368 . S
N201 C202 1.321 . S
N201 Co204 2.135 . S
C202 N200 1.340 . S
C202 N201 1.321 . S
C202 H226 0.930 . S
H203 C198 0.931 . S
Co204 N201 2.135 . S
Co204 N207 2.121 . S
Co204 O212 2.055 . S
Co204 O215 2.039 . S
Co204 N218 2.140 . S
C205 O206 1.227 . S
C205 O215 1.265 . S
O206 C205 1.227 . S
N207 Co204 2.121 . S
N207 C209 1.375 . S
N207 C210 1.313 . S
C208 C209 1.338 1_455 S
C208 N211 1.377 . S
C208 H228 0.930 . S
C209 N207 1.375 . S
C209 C208 1.338 1_655 S
C209 H213 0.931 . S
C210 N207 1.313 . S
C210 N211 1.344 1_655 S
C210 H214 0.929 1_655 S
N211 C208 1.377 . S
N211 C210 1.344 1_455 S
O212 Co204 2.055 . S
O212 C216 1.253 . S
H213 C209 0.931 . S
H214 C210 0.929 1_455 S
O215 Co204 2.039 . S
O215 C205 1.265 . S
C216 O212 1.253 . S
C216 O217 1.227 . S
O217 C216 1.227 . S
N218 Co204 2.140 . S
N218 C221 1.346 . S
N218 C222 1.345 . S
C219 C220 1.387 . S
C219 C223 1.391 . S
C220 C219 1.387 . S
C220 C221 1.369 . S
C220 H229 0.929 . S
C221 N218 1.346 . S
C221 C220 1.369 . S
C221 H224 0.928 . S
C222 N218 1.345 . S
C222 C223 1.371 . S
C222 H225 0.931 . S
C223 C219 1.391 . S
C223 C222 1.371 . S
C223 H230 0.930 . S
H224 C221 0.928 . S
H225 C222 0.931 . S
H226 C202 0.930 . S
H227 C199 0.930 . S
H228 C208 0.930 . S
H229 C220 0.929 . S
H230 C223 0.930 . S
C231 C232 1.351 1_655 S
C231 N234 1.368 . S
C231 H236 0.931 . S
C232 C231 1.351 1_455 S
C232 N233 1.373 . S
C232 H260 0.930 . S
N233 C232 1.373 . S
N233 C235 1.340 1_455 S
N234 C231 1.368 . S
N234 C235 1.321 . S
N234 Co237 2.135 . S
C235 N233 1.340 1_655 S
C235 N234 1.321 . S
C235 H259 0.930 1_655 S
H236 C231 0.931 . S
Co237 N234 2.135 . S
Co237 N240 2.121 . S
Co237 O245 2.055 . S
Co237 O248 2.039 . S
Co237 N251 2.140 . S
C238 O239 1.227 . S
C238 O248 1.265 . S
O239 C238 1.227 . S
N240 Co237 2.121 . S
N240 C242 1.375 . S
N240 C243 1.313 . S
C241 C242 1.338 . S
C241 N244 1.377 . S
C241 H261 0.930 . S
C242 N240 1.375 . S
C242 C241 1.338 . S
C242 H246 0.931 . S
C243 N240 1.313 . S
C243 N244 1.344 . S
C243 H247 0.930 . S
N244 C241 1.377 . S
N244 C243 1.344 . S
O245 Co237 2.055 . S
O245 C249 1.253 . S
H246 C242 0.931 . S
H247 C243 0.930 . S
O248 Co237 2.039 . S
O248 C238 1.265 . S
C249 O245 1.253 . S
C249 O250 1.227 . S
O250 C249 1.227 . S
N251 Co237 2.140 . S
N251 C254 1.346 . S
N251 C255 1.345 . S
C252 C253 1.387 . S
C252 C256 1.391 . S
C253 C252 1.387 . S
C253 C254 1.369 . S
C253 H262 0.929 . S
C254 N251 1.346 . S
C254 C253 1.369 . S
C254 H257 0.928 . S
C255 N251 1.345 . S
C255 C256 1.371 . S
C255 H258 0.931 . S
C256 C252 1.391 . S
C256 C255 1.371 . S
C256 H263 0.930 . S
H257 C254 0.928 . S
H258 C255 0.931 . S
H259 C235 0.930 1_455 S
H260 C232 0.930 . S
H261 C241 0.930 . S
H262 C253 0.929 . S
H263 C256 0.930 . S
C264 C265 1.351 . S
C264 N267 1.368 . S
C264 H269 0.931 . S
C265 C264 1.351 . S
C265 N266 1.373 . S
C265 H293 0.930 . S
N266 C265 1.373 . S
N266 C268 1.340 . S
N267 C264 1.368 . S
N267 C268 1.321 . S
N267 Co270 2.135 . S
C268 N266 1.340 . S
C268 N267 1.321 . S
C268 H292 0.930 . S
H269 C264 0.931 . S
Co270 N267 2.135 . S
Co270 N273 2.121 . S
Co270 O278 2.055 . S
Co270 O281 2.039 . S
Co270 N284 2.140 . S
C271 O272 1.227 . S
C271 O281 1.265 . S
O272 C271 1.227 . S
N273 Co270 2.121 . S
N273 C275 1.375 . S
N273 C276 1.313 . S
C274 C275 1.338 . S
C274 N277 1.377 . S
C274 H294 0.930 . S
C275 N273 1.375 . S
C275 C274 1.338 . S
C275 H279 0.931 . S
C276 N273 1.313 . S
C276 N277 1.344 . S
C276 H280 0.930 . S
N277 C274 1.377 . S
N277 C276 1.344 . S
O278 Co270 2.055 . S
O278 C282 1.253 . S
H279 C275 0.931 . S
H280 C276 0.930 . S
O281 Co270 2.039 . S
O281 C271 1.265 . S
C282 O278 1.253 . S
C282 O283 1.227 . S
O283 C282 1.227 . S
N284 Co270 2.140 . S
N284 C287 1.346 . S
N284 C288 1.345 . S
C285 C286 1.387 . S
C285 C289 1.391 . S
C286 C285 1.387 . S
C286 C287 1.369 . S
C286 H295 0.929 . S
C287 N284 1.346 . S
C287 C286 1.369 . S
C287 H290 0.928 . S
C288 N284 1.345 . S
C288 C289 1.371 . S
C288 H291 0.931 . S
C289 C285 1.391 . S
C289 C288 1.371 . S
C289 H296 0.930 . S
H290 C287 0.928 . S
H291 C288 0.931 . S
H292 C268 0.930 . S
H293 C265 0.930 . S
H294 C274 0.930 . S
H295 C286 0.929 . S
H296 C289 0.930 . S
C297 C298 1.351 . S
C297 N300 1.368 . S
C297 H302 0.931 . S
C298 C297 1.351 . S
C298 N299 1.373 . S
C298 H326 0.930 . S
N299 C298 1.373 . S
N299 C301 1.340 . S
N300 C297 1.368 . S
N300 C301 1.321 . S
N300 Co303 2.135 . S
C301 N299 1.340 . S
C301 N300 1.321 . S
C301 H325 0.930 . S
H302 C297 0.931 . S
Co303 N300 2.135 . S
Co303 N306 2.121 . S
Co303 O311 2.055 . S
Co303 O314 2.039 . S
Co303 N317 2.140 . S
C304 O305 1.227 . S
C304 O314 1.265 . S
O305 C304 1.227 . S
N306 Co303 2.121 . S
N306 C308 1.375 . S
N306 C309 1.313 . S
C307 C308 1.338 . S
C307 N310 1.377 . S
C307 H327 0.930 . S
C308 N306 1.375 . S
C308 C307 1.338 . S
C308 H312 0.931 . S
C309 N306 1.313 . S
C309 N310 1.344 . S
C309 H313 0.930 . S
N310 C307 1.377 . S
N310 C309 1.344 . S
O311 Co303 2.055 . S
O311 C315 1.253 . S
H312 C308 0.931 . S
H313 C309 0.930 . S
O314 Co303 2.039 . S
O314 C304 1.265 . S
C315 O311 1.253 . S
C315 O316 1.227 . S
O316 C315 1.227 . S
N317 Co303 2.140 . S
N317 C320 1.346 . S
N317 C321 1.345 . S
C318 C319 1.387 . S
C318 C322 1.391 . S
C319 C318 1.387 . S
C319 C320 1.369 . S
C319 H328 0.929 . S
C320 N317 1.346 . S
C320 C319 1.369 . S
C320 H323 0.928 . S
C321 N317 1.345 . S
C321 C322 1.371 . S
C321 H324 0.931 . S
C322 C318 1.391 . S
C322 C321 1.371 . S
C322 H329 0.930 . S
H323 C320 0.928 . S
H324 C321 0.931 . S
H325 C301 0.930 . S
H326 C298 0.930 . S
H327 C307 0.930 . S
H328 C319 0.929 . S
H329 C322 0.930 . S
C330 C331 1.351 . S
C330 N333 1.368 . S
C330 H335 0.931 . S
C331 C330 1.351 . S
C331 N332 1.373 . S
C331 H359 0.930 . S
N332 C331 1.373 . S
N332 C334 1.340 . S
N333 C330 1.368 . S
N333 C334 1.321 . S
N333 Co336 2.135 . S
C334 N332 1.340 . S
C334 N333 1.321 . S
C334 H358 0.930 . S
H335 C330 0.931 . S
Co336 N333 2.135 . S
Co336 N339 2.121 . S
Co336 O344 2.055 . S
Co336 O347 2.039 . S
Co336 N350 2.140 . S
C337 O338 1.227 . S
C337 O347 1.265 . S
O338 C337 1.227 . S
N339 Co336 2.121 . S
N339 C341 1.375 . S
N339 C342 1.313 . S
C340 C341 1.338 . S
C340 N343 1.377 . S
C340 H360 0.930 . S
C341 N339 1.375 . S
C341 C340 1.338 . S
C341 H345 0.931 . S
C342 N339 1.313 . S
C342 N343 1.344 . S
C342 H346 0.930 . S
N343 C340 1.377 . S
N343 C342 1.344 . S
O344 Co336 2.055 . S
O344 C348 1.253 . S
H345 C341 0.931 . S
H346 C342 0.930 . S
O347 Co336 2.039 . S
O347 C337 1.265 . S
C348 O344 1.253 . S
C348 O349 1.227 . S
O349 C348 1.227 . S
N350 Co336 2.140 . S
N350 C353 1.346 . S
N350 C354 1.345 . S
C351 C352 1.387 . S
C351 C355 1.391 . S
C352 C351 1.387 . S
C352 C353 1.369 . S
C352 H361 0.929 . S
C353 N350 1.346 . S
C353 C352 1.369 . S
C353 H356 0.928 . S
C354 N350 1.345 . S
C354 C355 1.371 . S
C354 H357 0.931 . S
C355 C351 1.391 . S
C355 C354 1.371 . S
C355 H362 0.930 . S
H356 C353 0.928 . S
H357 C354 0.931 . S
H358 C334 0.930 . S
H359 C331 0.930 . S
H360 C340 0.930 . S
H361 C352 0.929 . S
H362 C355 0.930 . S
C363 C364 1.351 . S
C363 N366 1.368 . S
C363 H368 0.931 . S
C364 C363 1.351 . S
C364 N365 1.373 . S
C364 H392 0.930 . S
N365 C364 1.373 . S
N365 C367 1.340 . S
N366 C363 1.368 . S
N366 C367 1.321 . S
N366 Co369 2.135 . S
C367 N365 1.340 . S
C367 N366 1.321 . S
C367 H391 0.930 . S
H368 C363 0.931 . S
Co369 N366 2.135 . S
Co369 N372 2.121 . S
Co369 O377 2.055 . S
Co369 O380 2.039 . S
Co369 N383 2.140 . S
C370 O371 1.227 . S
C370 O380 1.265 . S
O371 C370 1.227 . S
N372 Co369 2.121 . S
N372 C374 1.375 . S
N372 C375 1.313 . S
C373 C374 1.338 . S
C373 N376 1.377 . S
C373 H393 0.930 . S
C374 N372 1.375 . S
C374 C373 1.338 . S
C374 H378 0.931 . S
C375 N372 1.313 . S
C375 N376 1.344 . S
C375 H379 0.930 . S
N376 C373 1.377 . S
N376 C375 1.344 . S
O377 Co369 2.055 . S
O377 C381 1.253 . S
H378 C374 0.931 . S
H379 C375 0.930 . S
O380 Co369 2.039 . S
O380 C370 1.265 . S
C381 O377 1.253 . S
C381 O382 1.227 . S
O382 C381 1.227 . S
N383 Co369 2.140 . S
N383 C386 1.346 . S
N383 C387 1.345 . S
C384 C385 1.387 . S
C384 C388 1.391 . S
C385 C384 1.387 . S
C385 C386 1.369 . S
C385 H394 0.929 . S
C386 N383 1.346 . S
C386 C385 1.369 . S
C386 H389 0.928 . S
C387 N383 1.345 . S
C387 C388 1.371 . S
C387 H390 0.931 . S
C388 C384 1.391 . S
C388 C387 1.371 . S
C388 H395 0.930 . S
H389 C386 0.928 . S
H390 C387 0.931 . S
H391 C367 0.930 . S
H392 C364 0.930 . S
H393 C373 0.930 . S
H394 C385 0.929 . S
H395 C388 0.930 . S
C396 C397 1.351 . S
C396 N399 1.368 . S
C396 H401 0.931 . S
C397 C396 1.351 . S
C397 N398 1.373 . S
C397 H425 0.930 . S
N398 C397 1.373 . S
N398 C400 1.340 . S
N399 C396 1.368 . S
N399 C400 1.321 . S
N399 Co402 2.135 . S
C400 N398 1.340 . S
C400 N399 1.321 . S
C400 H424 0.930 . S
H401 C396 0.931 . S
Co402 N399 2.135 . S
Co402 N405 2.121 . S
Co402 O410 2.055 . S
Co402 O413 2.039 . S
Co402 N416 2.140 . S
C403 O404 1.227 . S
C403 O413 1.265 . S
O404 C403 1.227 . S
N405 Co402 2.121 . S
N405 C407 1.375 . S
N405 C408 1.313 . S
C406 C407 1.338 . S
C406 N409 1.377 . S
C406 H426 0.930 . S
C407 N405 1.375 . S
C407 C406 1.338 . S
C407 H411 0.931 . S
C408 N405 1.313 . S
C408 N409 1.344 . S
C408 H412 0.930 . S
N409 C406 1.377 . S
N409 C408 1.344 . S
O410 Co402 2.055 . S
O410 C414 1.253 . S
H411 C407 0.931 . S
H412 C408 0.930 . S
O413 Co402 2.039 . S
O413 C403 1.265 . S
C414 O410 1.253 . S
C414 O415 1.227 . S
O415 C414 1.227 . S
N416 Co402 2.140 . S
N416 C419 1.346 . S
N416 C420 1.345 . S
C417 C418 1.387 . S
C417 C421 1.391 . S
C418 C417 1.387 . S
C418 C419 1.369 . S
C418 H427 0.929 . S
C419 N416 1.346 . S
C419 C418 1.369 . S
C419 H422 0.928 . S
C420 N416 1.345 . S
C420 C421 1.371 . S
C420 H423 0.931 . S
C421 C417 1.391 . S
C421 C420 1.371 . S
C421 H428 0.930 . S
H422 C419 0.928 . S
H423 C420 0.931 . S
H424 C400 0.930 . S
H425 C397 0.930 . S
H426 C406 0.930 . S
H427 C418 0.929 . S
H428 C421 0.930 . S
C429 C430 1.351 . S
C429 N432 1.368 . S
C429 H434 0.931 . S
C430 C429 1.351 . S
C430 N431 1.373 . S
C430 H458 0.930 . S
N431 C430 1.373 . S
N431 C433 1.340 . S
N432 C429 1.368 . S
N432 C433 1.321 . S
N432 Co435 2.135 . S
C433 N431 1.340 . S
C433 N432 1.321 . S
C433 H457 0.930 . S
H434 C429 0.931 . S
Co435 N432 2.135 . S
Co435 N438 2.121 . S
Co435 O443 2.055 . S
Co435 O446 2.039 . S
Co435 N449 2.140 . S
C436 O437 1.227 . S
C436 O446 1.265 . S
O437 C436 1.227 . S
N438 Co435 2.121 . S
N438 C440 1.375 . S
N438 C441 1.313 . S
C439 C440 1.338 . S
C439 N442 1.377 . S
C439 H459 0.930 . S
C440 N438 1.375 . S
C440 C439 1.338 . S
C440 H444 0.931 . S
C441 N438 1.313 . S
C441 N442 1.344 . S
C441 H445 0.930 . S
N442 C439 1.377 . S
N442 C441 1.344 . S
O443 Co435 2.055 . S
O443 C447 1.253 . S
H444 C440 0.931 . S
H445 C441 0.930 . S
O446 Co435 2.039 . S
O446 C436 1.265 . S
C447 O443 1.253 . S
C447 O448 1.227 . S
O448 C447 1.227 . S
N449 Co435 2.140 . S
N449 C452 1.346 . S
N449 C453 1.345 . S
C450 C451 1.387 1_554 S
C450 C454 1.391 . S
C451 C450 1.387 1_556 S
C451 C452 1.370 . S
C451 H460 0.929 1_556 S
C452 N449 1.346 . S
C452 C451 1.370 . S
C452 H455 0.928 . S
C453 N449 1.345 . S
C453 C454 1.371 1_556 S
C453 H456 0.931 . S
C454 C450 1.391 . S
C454 C453 1.371 1_554 S
C454 H461 0.930 . S
H455 C452 0.928 . S
H456 C453 0.931 . S
H457 C433 0.930 . S
H458 C430 0.930 . S
H459 C439 0.930 . S
H460 C451 0.929 1_554 S
H461 C454 0.930 . S
C462 C463 1.351 . S
C462 N465 1.368 . S
C462 H467 0.931 . S
C463 C462 1.351 . S
C463 N464 1.373 . S
C463 H491 0.930 . S
N464 C463 1.373 . S
N464 C466 1.340 . S
N465 C462 1.368 . S
N465 C466 1.321 . S
N465 Co468 2.135 . S
C466 N464 1.340 . S
C466 N465 1.321 . S
C466 H490 0.930 . S
H467 C462 0.931 . S
Co468 N465 2.135 . S
Co468 N471 2.121 . S
Co468 O476 2.055 . S
Co468 O479 2.039 . S
Co468 N482 2.140 . S
C469 O470 1.227 . S
C469 O479 1.265 . S
O470 C469 1.227 . S
N471 Co468 2.121 . S
N471 C473 1.375 . S
N471 C474 1.313 . S
C472 C473 1.338 . S
C472 N475 1.377 . S
C472 H492 0.930 . S
C473 N471 1.375 . S
C473 C472 1.338 . S
C473 H477 0.931 . S
C474 N471 1.313 . S
C474 N475 1.344 . S
C474 H478 0.930 . S
N475 C472 1.377 . S
N475 C474 1.344 . S
O476 Co468 2.055 . S
O476 C480 1.253 . S
H477 C473 0.931 . S
H478 C474 0.930 . S
O479 Co468 2.039 . S
O479 C469 1.265 . S
C480 O476 1.253 . S
C480 O481 1.227 . S
O481 C480 1.227 . S
N482 Co468 2.140 . S
N482 C485 1.346 . S
N482 C486 1.345 . S
C483 C484 1.387 . S
C483 C487 1.391 . S
C484 C483 1.387 . S
C484 C485 1.369 . S
C484 H493 0.929 . S
C485 N482 1.346 . S
C485 C484 1.369 . S
C485 H488 0.928 . S
C486 N482 1.345 . S
C486 C487 1.371 . S
C486 H489 0.931 . S
C487 C483 1.391 . S
C487 C486 1.371 . S
C487 H494 0.930 . S
H488 C485 0.928 . S
H489 C486 0.931 . S
H490 C466 0.930 . S
H491 C463 0.930 . S
H492 C472 0.930 . S
H493 C484 0.929 . S
H494 C487 0.930 . S
C495 C496 1.351 . S
C495 N498 1.368 . S
C495 H500 0.931 . S
C496 C495 1.351 . S
C496 N497 1.373 . S
C496 H524 0.930 . S
N497 C496 1.373 . S
N497 C499 1.340 . S
N498 C495 1.368 . S
N498 C499 1.321 . S
N498 Co501 2.135 . S
C499 N497 1.340 . S
C499 N498 1.321 . S
C499 H523 0.930 . S
H500 C495 0.931 . S
Co501 N498 2.135 . S
Co501 N504 2.121 . S
Co501 O509 2.055 . S
Co501 O512 2.039 . S
Co501 N515 2.140 . S
C502 O503 1.227 . S
C502 O512 1.265 . S
O503 C502 1.227 . S
N504 Co501 2.121 . S
N504 C506 1.375 . S
N504 C507 1.313 . S
C505 C506 1.338 . S
C505 N508 1.377 . S
C505 H525 0.930 . S
C506 N504 1.375 . S
C506 C505 1.338 . S
C506 H510 0.931 . S
C507 N504 1.313 . S
C507 N508 1.344 . S
C507 H511 0.930 . S
N508 C505 1.377 . S
N508 C507 1.344 . S
O509 Co501 2.055 . S
O509 C513 1.253 . S
H510 C506 0.931 . S
H511 C507 0.930 . S
O512 Co501 2.039 . S
O512 C502 1.265 . S
C513 O509 1.253 . S
C513 O514 1.227 . S
O514 C513 1.227 . S
N515 Co501 2.140 . S
N515 C518 1.346 . S
N515 C519 1.345 . S
C516 C517 1.387 1_556 S
C516 C520 1.391 . S
C517 C516 1.387 1_554 S
C517 C518 1.370 . S
C517 H526 0.929 1_554 S
C518 N515 1.346 . S
C518 C517 1.370 . S
C518 H521 0.928 . S
C519 N515 1.345 . S
C519 C520 1.371 1_554 S
C519 H522 0.931 . S
C520 C516 1.391 . S
C520 C519 1.371 1_556 S
C520 H527 0.930 . S
H521 C518 0.928 . S
H522 C519 0.931 . S
H523 C499 0.930 . S
H524 C496 0.930 . S
H525 C505 0.930 . S
H526 C517 0.929 1_556 S
H527 C520 0.930 . S
C528 C529 1.387 . S
C528 H532 0.950 . S
C528 C537 1.390 . S
C529 C528 1.387 . S
C529 C531 1.387 . S
H530 C537 0.950 . S
C531 C529 1.387 . S
C531 C533 1.390 . S
C531 H535 0.950 . S
H532 C528 0.950 . S
C533 C531 1.390 . S
C533 C534 1.387 . S
C533 H536 0.950 . S
C534 C533 1.387 . S
C534 C537 1.387 . S
H535 C531 0.950 . S
H536 C533 0.950 . S
C537 C528 1.390 . S
C537 H530 0.950 . S
C537 C534 1.387 . S
C538 C539 1.387 . S
C538 H542 0.950 . S
C538 C547 1.390 . S
C539 C538 1.387 . S
C539 C541 1.387 . S
H540 C547 0.950 . S
C541 C539 1.387 . S
C541 C543 1.390 . S
C541 H545 0.950 . S
H542 C538 0.950 . S
C543 C541 1.390 . S
C543 C544 1.387 . S
C543 H546 0.950 . S
C544 C543 1.387 . S
C544 C547 1.387 . S
H545 C541 0.950 . S
H546 C543 0.950 . S
C547 C538 1.390 . S
C547 H540 0.950 . S
C547 C544 1.387 . S
C548 C549 1.387 . S
C548 H552 0.950 . S
C548 C557 1.390 . S
C549 C548 1.387 . S
C549 C551 1.387 . S
H550 C557 0.950 . S
C551 C549 1.387 . S
C551 C553 1.390 . S
C551 H555 0.950 . S
H552 C548 0.950 . S
C553 C551 1.390 . S
C553 C554 1.387 . S
C553 H556 0.950 . S
C554 C553 1.387 . S
C554 C557 1.387 . S
H555 C551 0.950 . S
H556 C553 0.950 . S
C557 C548 1.390 . S
C557 H550 0.950 . S
C557 C554 1.387 . S
C558 C559 1.387 . S
C558 H562 0.950 . S
C558 C567 1.390 . S
C559 C558 1.387 . S
C559 C561 1.387 . S
H560 C567 0.950 . S
C561 C559 1.387 . S
C561 C563 1.390 . S
C561 H565 0.950 . S
H562 C558 0.950 . S
C563 C561 1.390 . S
C563 C564 1.387 . S
C563 H566 0.950 . S
C564 C563 1.387 . S
C564 C567 1.387 . S
H565 C561 0.950 . S
H566 C563 0.950 . S
C567 C558 1.390 . S
C567 H560 0.950 . S
C567 C564 1.387 . S
C568 C569 1.387 . S
C568 H572 0.950 . S
C568 C577 1.390 . S
C569 C568 1.387 . S
C569 C571 1.387 . S
H570 C577 0.950 . S
C571 C569 1.387 . S
C571 C573 1.390 . S
C571 H575 0.950 . S
H572 C568 0.950 . S
C573 C571 1.390 . S
C573 C574 1.387 . S
C573 H576 0.950 . S
C574 C573 1.387 . S
C574 C577 1.387 . S
H575 C571 0.950 . S
H576 C573 0.950 . S
C577 C568 1.390 . S
C577 H570 0.950 . S
C577 C574 1.387 . S
C578 C579 1.387 . S
C578 H582 0.950 . S
C578 C587 1.390 . S
C579 C578 1.387 . S
C579 C581 1.387 . S
H580 C587 0.950 . S
C581 C579 1.387 . S
C581 C583 1.390 . S
C581 H585 0.950 . S
H582 C578 0.950 . S
C583 C581 1.390 . S
C583 C584 1.387 . S
C583 H586 0.950 . S
C584 C583 1.387 . S
C584 C587 1.387 . S
H585 C581 0.950 . S
H586 C583 0.950 . S
C587 C578 1.390 . S
C587 H580 0.950 . S
C587 C584 1.387 . S
C588 C589 1.387 . S
C588 H592 0.950 . S
C588 C597 1.390 . S
C589 C588 1.387 . S
C589 C591 1.387 . S
H590 C597 0.950 . S
C591 C589 1.387 . S
C591 C593 1.390 . S
C591 H595 0.950 . S
H592 C588 0.950 . S
C593 C591 1.390 . S
C593 C594 1.387 . S
C593 H596 0.950 . S
C594 C593 1.387 . S
C594 C597 1.387 . S
H595 C591 0.950 . S
H596 C593 0.950 . S
C597 C588 1.390 . S
C597 H590 0.950 . S
C597 C594 1.387 . S
C598 C599 1.387 . S
C598 H602 0.950 . S
C598 C607 1.390 . S
C599 C598 1.387 . S
C599 C601 1.387 . S
H600 C607 0.950 . S
C601 C599 1.387 . S
C601 C603 1.390 . S
C601 H605 0.950 . S
H602 C598 0.950 . S
C603 C601 1.390 . S
C603 C604 1.387 . S
C603 H606 0.950 . S
C604 C603 1.387 . S
C604 C607 1.387 . S
H605 C601 0.950 . S
H606 C603 0.950 . S
C607 C598 1.390 . S
C607 H600 0.950 . S
C607 C604 1.387 . S
C608 C609 1.387 . S
C608 H612 0.950 . S
C608 C617 1.390 . S
C609 C608 1.387 . S
C609 C611 1.387 . S
H610 C617 0.950 . S
C611 C609 1.387 . S
C611 C613 1.390 . S
C611 H615 0.950 . S
H612 C608 0.950 . S
C613 C611 1.390 . S
C613 C614 1.387 . S
C613 H616 0.950 . S
C614 C613 1.387 . S
C614 C617 1.387 . S
H615 C611 0.950 . S
H616 C613 0.950 . S
C617 C608 1.390 . S
C617 H610 0.950 . S
C617 C614 1.387 . S
C618 C619 1.387 . S
C618 H622 0.950 . S
C618 C627 1.390 . S
C619 C618 1.387 . S
C619 C621 1.387 . S
H620 C627 0.950 . S
C621 C619 1.387 . S
C621 C623 1.390 . S
C621 H625 0.950 . S
H622 C618 0.950 . S
C623 C621 1.390 . S
C623 C624 1.387 . S
C623 H626 0.950 . S
C624 C623 1.387 . S
C624 C627 1.387 . S
H625 C621 0.950 . S
H626 C623 0.950 . S
C627 C618 1.390 . S
C627 H620 0.950 . S
C627 C624 1.387 . S
C628 C629 1.387 . S
C628 H632 0.950 . S
C628 C637 1.390 . S
C629 C628 1.387 . S
C629 C631 1.387 . S
H630 C637 0.950 . S
C631 C629 1.387 . S
C631 C633 1.390 . S
C631 H635 0.950 . S
H632 C628 0.950 . S
C633 C631 1.390 . S
C633 C634 1.387 . S
C633 H636 0.950 . S
C634 C633 1.387 . S
C634 C637 1.387 . S
H635 C631 0.950 . S
H636 C633 0.950 . S
C637 C628 1.390 . S
C637 H630 0.950 . S
C637 C634 1.387 . S
C638 C639 1.387 . S
C638 H642 0.950 . S
C638 C647 1.390 . S
C639 C638 1.387 . S
C639 C641 1.387 . S
H640 C647 0.950 . S
C641 C639 1.387 . S
C641 C643 1.390 . S
C641 H645 0.950 . S
H642 C638 0.950 . S
C643 C641 1.390 . S
C643 C644 1.387 . S
C643 H646 0.950 . S
C644 C643 1.387 . S
C644 C647 1.387 . S
H645 C641 0.950 . S
H646 C643 0.950 . S
C647 C638 1.390 . S
C647 H640 0.950 . S
C647 C644 1.387 . S
C648 C649 1.387 . S
C648 H652 0.950 . S
C648 C657 1.390 . S
C649 C648 1.387 . S
C649 C651 1.387 . S
H650 C657 0.950 . S
C651 C649 1.387 . S
C651 C653 1.390 . S
C651 H655 0.950 . S
H652 C648 0.950 . S
C653 C651 1.390 . S
C653 C654 1.387 . S
C653 H656 0.950 . S
C654 C653 1.387 . S
C654 C657 1.387 . S
H655 C651 0.950 . S
H656 C653 0.950 . S
C657 C648 1.390 . S
C657 H650 0.950 . S
C657 C654 1.387 . S
C658 C659 1.387 . S
C658 H662 0.950 . S
C658 C667 1.390 . S
C659 C658 1.387 . S
C659 C661 1.387 . S
H660 C667 0.950 . S
C661 C659 1.387 . S
C661 C663 1.390 . S
C661 H665 0.950 . S
H662 C658 0.950 . S
C663 C661 1.390 . S
C663 C664 1.387 . S
C663 H666 0.950 . S
C664 C663 1.387 . S
C664 C667 1.387 . S
H665 C661 0.950 . S
H666 C663 0.950 . S
C667 C658 1.390 . S
C667 H660 0.950 . S
C667 C664 1.387 . S
C668 C669 1.387 . S
C668 H672 0.950 . S
C668 C677 1.390 . S
C669 C668 1.387 . S
C669 C671 1.387 . S
H670 C677 0.950 . S
C671 C669 1.387 . S
C671 C673 1.390 . S
C671 H675 0.950 . S
H672 C668 0.950 . S
C673 C671 1.390 . S
C673 C674 1.387 . S
C673 H676 0.950 . S
C674 C673 1.387 . S
C674 C677 1.387 . S
H675 C671 0.950 . S
H676 C673 0.950 . S
C677 C668 1.390 . S
C677 H670 0.950 . S
C677 C674 1.387 . S
C678 C679 1.387 . S
C678 H682 0.950 . S
C678 C687 1.390 . S
C679 C678 1.387 . S
C679 C681 1.387 . S
H680 C687 0.950 . S
C681 C679 1.387 . S
C681 C683 1.390 . S
C681 H685 0.950 . S
H682 C678 0.950 . S
C683 C681 1.390 . S
C683 C684 1.387 . S
C683 H686 0.950 . S
C684 C683 1.387 . S
C684 C687 1.387 . S
H685 C681 0.950 . S
H686 C683 0.950 . S
C687 C678 1.390 . S
C687 H680 0.950 . S
C687 C684 1.387 . S
C688 C689 1.387 . S
C688 H692 0.950 . S
C688 C697 1.390 . S
C689 C688 1.387 . S
C689 C691 1.387 . S
H690 C697 0.950 . S
C691 C689 1.387 . S
C691 C693 1.390 . S
C691 H695 0.950 . S
H692 C688 0.950 . S
C693 C691 1.390 . S
C693 C694 1.387 . S
C693 H696 0.950 . S
C694 C693 1.387 . S
C694 C697 1.387 . S
H695 C691 0.950 . S
H696 C693 0.950 . S
C697 C688 1.390 . S
C697 H690 0.950 . S
C697 C694 1.387 . S
C698 C699 1.387 . S
C698 H702 0.950 . S
C698 C707 1.390 . S
C699 C698 1.387 . S
C699 C701 1.387 . S
H700 C707 0.950 . S
C701 C699 1.387 . S
C701 C703 1.390 . S
C701 H705 0.950 . S
H702 C698 0.950 . S
C703 C701 1.390 . S
C703 C704 1.387 . S
C703 H706 0.950 . S
C704 C703 1.387 . S
C704 C707 1.387 . S
H705 C701 0.950 . S
H706 C703 0.950 . S
C707 C698 1.390 . S
C707 H700 0.950 . S
C707 C704 1.387 . S
C708 C709 1.387 . S
C708 H712 0.950 . S
C708 C717 1.390 . S
C709 C708 1.387 . S
C709 C711 1.387 . S
H710 C717 0.950 . S
C711 C709 1.387 . S
C711 C713 1.390 . S
C711 H715 0.950 . S
H712 C708 0.950 . S
C713 C711 1.390 . S
C713 C714 1.387 . S
C713 H716 0.950 . S
C714 C713 1.387 . S
C714 C717 1.387 . S
H715 C711 0.950 . S
H716 C713 0.950 . S
C717 C708 1.390 . S
C717 H710 0.950 . S
C717 C714 1.387 . S
C718 C719 1.387 . S
C718 H722 0.950 . S
C718 C727 1.390 . S
C719 C718 1.387 . S
C719 C721 1.387 . S
H720 C727 0.950 . S
C721 C719 1.387 . S
C721 C723 1.390 . S
C721 H725 0.950 . S
H722 C718 0.950 . S
C723 C721 1.390 . S
C723 C724 1.387 . S
C723 H726 0.950 . S
C724 C723 1.387 . S
C724 C727 1.387 . S
H725 C721 0.950 . S
H726 C723 0.950 . S
C727 C718 1.390 . S
C727 H720 0.950 . S
C727 C724 1.387 . S
C728 C729 1.387 . S
C728 H732 0.950 . S
C728 C737 1.390 . S
C729 C728 1.387 . S
C729 C731 1.387 . S
H730 C737 0.950 . S
C731 C729 1.387 . S
C731 C733 1.390 . S
C731 H735 0.950 . S
H732 C728 0.950 . S
C733 C731 1.390 . S
C733 C734 1.387 . S
C733 H736 0.950 . S
C734 C733 1.387 . S
C734 C737 1.387 . S
H735 C731 0.950 . S
H736 C733 0.950 . S
C737 C728 1.390 . S
C737 H730 0.950 . S
C737 C734 1.387 . S
C738 C739 1.387 . S
C738 H742 0.950 . S
C738 C747 1.390 . S
C739 C738 1.387 . S
C739 C741 1.387 . S
H740 C747 0.950 . S
C741 C739 1.387 . S
C741 C743 1.390 . S
C741 H745 0.950 . S
H742 C738 0.950 . S
C743 C741 1.390 . S
C743 C744 1.387 . S
C743 H746 0.950 . S
C744 C743 1.387 . S
C744 C747 1.387 . S
H745 C741 0.950 . S
H746 C743 0.950 . S
C747 C738 1.390 . S
C747 H740 0.950 . S
C747 C744 1.387 . S
C748 C749 1.387 . S
C748 H752 0.950 . S
C748 C757 1.390 . S
C749 C748 1.387 . S
C749 C751 1.387 . S
H750 C757 0.950 . S
C751 C749 1.387 . S
C751 C753 1.390 . S
C751 H755 0.950 . S
H752 C748 0.950 . S
C753 C751 1.390 . S
C753 C754 1.387 . S
C753 H756 0.950 . S
C754 C753 1.387 . S
C754 C757 1.387 . S
H755 C751 0.950 . S
H756 C753 0.950 . S
C757 C748 1.390 . S
C757 H750 0.950 . S
C757 C754 1.387 . S
C758 C759 1.387 . S
C758 H762 0.950 . S
C758 C767 1.390 . S
C759 C758 1.387 . S
C759 C761 1.387 . S
H760 C767 0.950 . S
C761 C759 1.387 . S
C761 C763 1.390 . S
C761 H765 0.950 . S
H762 C758 0.950 . S
C763 C761 1.390 . S
C763 C764 1.387 . S
C763 H766 0.950 . S
C764 C763 1.387 . S
C764 C767 1.387 . S
H765 C761 0.950 . S
H766 C763 0.950 . S
C767 C758 1.390 . S
C767 H760 0.950 . S
C767 C764 1.387 . S
C768 C769 1.387 . S
C768 H772 0.950 . S
C768 C777 1.390 . S
C769 C768 1.387 . S
C769 C771 1.387 . S
H770 C777 0.950 . S
C771 C769 1.387 . S
C771 C773 1.390 . S
C771 H775 0.950 . S
H772 C768 0.950 . S
C773 C771 1.390 . S
C773 C774 1.387 . S
C773 H776 0.950 . S
C774 C773 1.387 . S
C774 C777 1.387 . S
H775 C771 0.950 . S
H776 C773 0.950 . S
C777 C768 1.390 . S
C777 H770 0.950 . S
C777 C774 1.387 . S
C778 C779 1.387 . S
C778 H782 0.950 . S
C778 C787 1.390 1_655 S
C779 C778 1.387 . S
C779 C781 1.387 1_565 S
H780 C787 0.950 . S
C781 C779 1.387 1_545 S
C781 C783 1.390 1_655 S
C781 H785 0.950 . S
H782 C778 0.950 . S
C783 C781 1.390 1_455 S
C783 C784 1.387 . S
C783 H786 0.950 . S
C784 C783 1.387 . S
C784 C787 1.387 1_545 S
H785 C781 0.950 . S
H786 C783 0.950 . S
C787 C778 1.390 1_455 S
C787 H780 0.950 . S
C787 C784 1.387 1_565 S
C788 C789 1.387 1_545 S
C788 H792 0.950 . S
C788 C797 1.390 . S
C789 C788 1.387 1_565 S
C789 C791 1.387 . S
H790 C797 0.950 . S
C791 C789 1.387 . S
C791 C793 1.390 . S
C791 H795 0.950 . S
H792 C788 0.950 . S
C793 C791 1.390 . S
C793 C794 1.387 1_565 S
C793 H796 0.950 . S
C794 C793 1.387 1_545 S
C794 C797 1.387 . S
H795 C791 0.950 . S
H796 C793 0.950 . S
C797 C788 1.390 . S
C797 H790 0.950 . S
C797 C794 1.387 . S
C798 C799 1.387 1_455 S
C798 H802 0.950 . S
C798 C807 1.390 . S
C799 C798 1.387 1_655 S
C799 C801 1.387 . S
H800 C807 0.950 . S
C801 C799 1.387 . S
C801 C803 1.390 . S
C801 H805 0.950 . S
H802 C798 0.950 . S
C803 C801 1.390 . S
C803 C804 1.387 1_655 S
C803 H806 0.950 . S
C804 C803 1.387 1_455 S
C804 C807 1.387 . S
H805 C801 0.950 . S
H806 C803 0.950 . S
C807 C798 1.390 . S
C807 H800 0.950 . S
C807 C804 1.387 . S
C808 C809 1.387 . S
C808 H812 0.950 . S
C808 C817 1.390 . S
C809 C808 1.387 . S
C809 C811 1.387 . S
H810 C817 0.950 . S
C811 C809 1.387 . S
C811 C813 1.390 . S
C811 H815 0.950 . S
H812 C808 0.950 . S
C813 C811 1.390 . S
C813 C814 1.387 . S
C813 H816 0.950 . S
C814 C813 1.387 . S
C814 C817 1.387 . S
H815 C811 0.950 . S
H816 C813 0.950 . S
C817 C808 1.390 . S
C817 H810 0.950 . S
C817 C814 1.387 . S
C818 C819 1.387 . S
C818 H822 0.950 . S
C818 C827 1.390 . S
C819 C818 1.387 . S
C819 C821 1.387 1_545 S
H820 C827 0.950 . S
C821 C819 1.387 1_565 S
C821 C823 1.390 . S
C821 H825 0.950 . S
H822 C818 0.950 . S
C823 C821 1.390 . S
C823 C824 1.387 . S
C823 H826 0.950 . S
C824 C823 1.387 . S
C824 C827 1.387 1_565 S
H825 C821 0.950 . S
H826 C823 0.950 . S
C827 C818 1.390 . S
C827 H820 0.950 . S
C827 C824 1.387 1_545 S
C828 C829 1.387 1_455 S
C828 H832 0.950 . S
C828 C837 1.390 . S
C829 C828 1.387 1_655 S
C829 C831 1.387 . S
H830 C837 0.950 . S
C831 C829 1.387 . S
C831 C833 1.390 . S
C831 H835 0.950 . S
H832 C828 0.950 . S
C833 C831 1.390 . S
C833 C834 1.387 1_655 S
C833 H836 0.950 . S
C834 C833 1.387 1_455 S
C834 C837 1.387 . S
H835 C831 0.950 . S
H836 C833 0.950 . S
C837 C828 1.390 . S
C837 H830 0.950 . S
C837 C834 1.387 . S
C838 C839 1.387 1_556 S
C838 H842 0.950 . S
C838 C847 1.390 . S
C839 C838 1.387 1_554 S
C839 C841 1.387 . S
H840 C847 0.950 . S
C841 C839 1.387 . S
C841 C843 1.390 . S
C841 H845 0.950 . S
H842 C838 0.950 . S
C843 C841 1.390 . S
C843 C844 1.387 1_554 S
C843 H846 0.950 . S
C844 C843 1.387 1_556 S
C844 C847 1.387 . S
H845 C841 0.950 . S
H846 C843 0.950 . S
C847 C838 1.390 . S
C847 H840 0.950 . S
C847 C844 1.387 . S
C848 C849 1.387 . S
C848 H852 0.950 . S
C848 C857 1.390 1_455 S
C849 C848 1.387 . S
C849 C851 1.387 1_556 S
H850 C857 0.950 . S
C851 C849 1.387 1_554 S
C851 C853 1.390 1_455 S
C851 H855 0.950 . S
H852 C848 0.950 . S
C853 C851 1.390 1_655 S
C853 C854 1.387 . S
C853 H856 0.950 . S
C854 C853 1.387 . S
C854 C857 1.387 1_554 S
H855 C851 0.950 . S
H856 C853 0.950 . S
C857 C848 1.390 1_655 S
C857 H850 0.950 . S
C857 C854 1.387 1_556 S
C858 C859 1.387 . S
C858 H862 0.950 . S
C858 C867 1.390 . S
C859 C858 1.387 . S
C859 C861 1.387 . S
H860 C867 0.950 . S
C861 C859 1.387 . S
C861 C863 1.390 . S
C861 H865 0.950 . S
H862 C858 0.950 . S
C863 C861 1.390 . S
C863 C864 1.387 . S
C863 H866 0.950 . S
C864 C863 1.387 . S
C864 C867 1.387 . S
H865 C861 0.950 . S
H866 C863 0.950 . S
C867 C858 1.390 . S
C867 H860 0.950 . S
C867 C864 1.387 . S
C868 C869 1.387 . S
C868 H872 0.950 . S
C868 C877 1.390 1_554 S
C869 C868 1.387 . S
C869 C871 1.387 . S
H870 C877 0.950 . S
C871 C869 1.387 . S
C871 C873 1.390 1_554 S
C871 H875 0.950 . S
H872 C868 0.950 . S
C873 C871 1.390 1_556 S
C873 C874 1.387 . S
C873 H876 0.950 . S
C874 C873 1.387 . S
C874 C877 1.387 . S
H875 C871 0.950 . S
H876 C873 0.950 . S
C877 C868 1.390 1_556 S
C877 H870 0.950 . S
C877 C874 1.387 . S
C878 C879 1.387 . S
C878 H882 0.950 . S
C878 C887 1.390 . S
C879 C878 1.387 . S
C879 C881 1.387 . S
H880 C887 0.950 . S
C881 C879 1.387 . S
C881 C883 1.390 . S
C881 H885 0.950 . S
H882 C878 0.950 . S
C883 C881 1.390 . S
C883 C884 1.387 . S
C883 H886 0.950 . S
C884 C883 1.387 . S
C884 C887 1.387 . S
H885 C881 0.950 . S
H886 C883 0.950 . S
C887 C878 1.390 . S
C887 H880 0.950 . S
C887 C884 1.387 . S
C888 C889 1.387 1_545 S
C888 H892 0.950 . S
C888 C897 1.390 1_554 S
C889 C888 1.387 1_565 S
C889 C891 1.387 . S
H890 C897 0.950 . S
C891 C889 1.387 . S
C891 C893 1.390 1_554 S
C891 H895 0.950 . S
H892 C888 0.950 . S
C893 C891 1.390 1_556 S
C893 C894 1.387 1_565 S
C893 H896 0.950 . S
C894 C893 1.387 1_545 S
C894 C897 1.387 . S
H895 C891 0.950 . S
H896 C893 0.950 . S
C897 C888 1.390 1_556 S
C897 H890 0.950 . S
C897 C894 1.387 . S
C898 C899 1.387 . S
C898 H902 0.950 . S
C898 C907 1.390 . S
C899 C898 1.387 . S
C899 C901 1.387 . S
H900 C907 0.950 . S
C901 C899 1.387 . S
C901 C903 1.390 . S
C901 H905 0.950 . S
H902 C898 0.950 . S
C903 C901 1.390 . S
C903 C904 1.387 . S
C903 H906 0.950 . S
C904 C903 1.387 . S
C904 C907 1.387 . S
H905 C901 0.950 . S
H906 C903 0.950 . S
C907 C898 1.390 . S
C907 H900 0.950 . S
C907 C904 1.387 . S
C908 C909 1.387 . S
C908 H912 0.950 . S
C908 C917 1.390 . S
C909 C908 1.387 . S
C909 C911 1.387 . S
H910 C917 0.950 . S
C911 C909 1.387 . S
C911 C913 1.390 . S
C911 H915 0.950 . S
H912 C908 0.950 . S
C913 C911 1.390 . S
C913 C914 1.387 . S
C913 H916 0.950 . S
C914 C913 1.387 . S
C914 C917 1.387 . S
H915 C911 0.950 . S
H916 C913 0.950 . S
C917 C908 1.390 . S
C917 H910 0.950 . S
C917 C914 1.387 . S
C918 C919 1.387 . S
C918 H922 0.950 . S
C918 C927 1.390 . S
C919 C918 1.387 . S
C919 C921 1.387 . S
H920 C927 0.950 . S
C921 C919 1.387 . S
C921 C923 1.390 . S
C921 H925 0.950 . S
H922 C918 0.950 . S
C923 C921 1.390 . S
C923 C924 1.387 . S
C923 H926 0.950 . S
C924 C923 1.387 . S
C924 C927 1.387 . S
H925 C921 0.950 . S
H926 C923 0.950 . S
C927 C918 1.390 . S
C927 H920 0.950 . S
C927 C924 1.387 . S
C529 N2 1.088 . S
C534 N299 1.088 . S
C539 N13 1.002 . S
C544 N310 1.002 . S
C549 N277 1.002 . S
C554 N46 1.002 . S
C559 N35 1.085 . S
C564 N266 1.085 . S
C569 N68 1.085 . S
C574 N365 1.085 . S
C579 N79 1.006 . S
C584 N376 1.006 . S
C589 N112 1.006 . S
C594 N343 1.006 . S
C599 N101 1.085 . S
C604 N332 1.085 . S
C609 N134 1.088 . S
C614 N431 1.088 . S
C619 N442 1.002 . S
C624 N145 1.002 . S
C629 N409 1.002 . S
C634 N178 1.002 . S
C639 N398 1.085 . S
C644 N167 1.085 . S
C649 N497 1.088 . S
C654 N200 1.088 . S
C659 N508 1.006 . S
C664 N211 1.006 . S
C669 N475 1.002 . S
C674 N244 1.002 . S
C679 N233 1.085 . S
C684 N464 1.085 . S
C689 C21 1.181 . S
C694 C54 1.181 . S
C699 C120 1.181 . S
C704 C87 1.181 . S
C709 C186 1.181 . S
C714 C153 1.181 . S
C719 C252 1.181 . S
C724 C219 1.181 . S
C729 C318 1.181 . S
C734 C285 1.181 . S
C739 C351 1.181 . S
C744 C384 1.181 . S
C749 C450 1.181 . S
C754 C417 1.181 . S
C759 C483 1.181 . S
C764 C516 1.181 . S
C769 C469 1.845 . S
C774 C7 1.845 . S
C779 C84 1.884 . S
C784 C18 1.884 . S
C789 C381 1.885 . S
C794 C51 1.885 . S
C799 C238 1.846 . S
C804 C40 1.846 . S
C809 C73 1.847 . S
C814 C403 1.847 . S
C819 C315 1.885 . S
C824 C117 1.885 . S
C829 C106 1.846 . S
C834 C172 1.846 . S
C839 C337 1.845 . S
C844 C139 1.845 . S
C849 C150 1.883 . S
C854 C216 1.883 . S
C859 C183 1.885 . S
C864 C513 1.885 . S
C869 C205 1.847 . S
C874 C271 1.847 . S
C879 C249 1.885 . S
C884 C447 1.885 . S
C889 C348 1.885 . S
C894 C282 1.885 . S
C899 C502 1.846 . S
C904 C304 1.846 . S
C909 C370 1.847 . S
C914 C436 1.847 . S
C919 C414 1.883 . S
C924 C480 1.883 . S
