# Generated by pormake.
# Topology tfs, (6)-cn, num edge types: 1
# Building blocks:
#     Node 0, Type 0, BuildingBlock: LEVNOQ01_clean_sbu_1, # of connection points: 6
#     Node 1, Type 0, BuildingBlock: LEVNOQ01_clean_sbu_1, # of connection points: 6
#     Node 2, Type 0, BuildingBlock: LEVNOQ01_clean_sbu_1, # of connection points: 6
#     Node 3, Type 0, BuildingBlock: LEVNOQ01_clean_sbu_1, # of connection points: 6
#     Node 4, Type 0, BuildingBlock: LEVNOQ01_clean_sbu_1, # of connection points: 6
#     Node 5, Type 0, BuildingBlock: LEVNOQ01_clean_sbu_1, # of connection points: 6
#     Edge 6, Type (0, 0), BuildingBlock: AJUNOK_clean_linker_0, # of connection points: 2
#     Edge 7, Type (0, 0), BuildingBlock: AJUNOK_clean_linker_0, # of connection points: 2
#     Edge 8, Type (0, 0), BuildingBlock: AJUNOK_clean_linker_0, # of connection points: 2
#     Edge 9, Type (0, 0), BuildingBlock: AJUNOK_clean_linker_0, # of connection points: 2
#     Edge 10, Type (0, 0), BuildingBlock: AJUNOK_clean_linker_0, # of connection points: 2
#     Edge 11, Type (0, 0), BuildingBlock: AJUNOK_clean_linker_0, # of connection points: 2
#     Edge 12, Type (0, 0), BuildingBlock: AJUNOK_clean_linker_0, # of connection points: 2
#     Edge 13, Type (0, 0), BuildingBlock: AJUNOK_clean_linker_0, # of connection points: 2
#     Edge 14, Type (0, 0), BuildingBlock: AJUNOK_clean_linker_0, # of connection points: 2
#     Edge 15, Type (0, 0), BuildingBlock: AJUNOK_clean_linker_0, # of connection points: 2
#     Edge 16, Type (0, 0), BuildingBlock: AJUNOK_clean_linker_0, # of connection points: 2
#     Edge 17, Type (0, 0), BuildingBlock: AJUNOK_clean_linker_0, # of connection points: 2
#     Edge 18, Type (0, 0), BuildingBlock: AJUNOK_clean_linker_0, # of connection points: 2
#     Edge 19, Type (0, 0), BuildingBlock: AJUNOK_clean_linker_0, # of connection points: 2
#     Edge 20, Type (0, 0), BuildingBlock: AJUNOK_clean_linker_0, # of connection points: 2
#     Edge 21, Type (0, 0), BuildingBlock: AJUNOK_clean_linker_0, # of connection points: 2
#     Edge 22, Type (0, 0), BuildingBlock: AJUNOK_clean_linker_0, # of connection points: 2
#     Edge 23, Type (0, 0), BuildingBlock: AJUNOK_clean_linker_0, # of connection points: 2
# Relax obj value: 0.217
# Max RMSD: 0.175
# Mean RMSD: 0.175
data_MOF--net-tfs--node1-LEVNOQ01_clean_sbu_1--edge1-AJUNOK_clean_linker_0
_symmetry_space_group_name_H-M    P1
_symmetry_Int_Tables_number       1
_symmetry_cell_setting            triclinic
loop_
_symmetry_equiv_pos_as_xyz
'x, y, z'
_cell_length_a     32.219083
_cell_length_b     32.093567
_cell_length_c     12.216807
_cell_angle_alpha  90.095617
_cell_angle_beta   90.508579
_cell_angle_gamma 120.26812
loop_
_atom_site_label
_atom_site_type_symbol
_atom_site_fract_x
_atom_site_fract_y
_atom_site_fract_z
_atom_type_partial_charge
O0 O 0.31207 0.44801 0.12071 0.0
Mg1 Mg 0.24899 0.393 0.18182 0.0
O2 O 0.26012 0.47234 0.10179 0.0
Mg3 Mg 0.18264 0.39917 0.08356 0.0
O4 O 0.20389 0.33718 0.07977 0.0
O5 O 0.2555 0.33473 0.20082 0.0
O6 O 0.1082 0.32467 0.05103 0.0
O7 O 0.19243 0.40453 0.89457 0.0
Mg8 Mg 0.11143 0.39811 0.03173 0.0
O9 O 0.16547 0.4648 0.07647 0.0
O10 O 0.0622 0.34348 0.13873 0.0
O11 O 0.11642 0.38076 0.86423 0.0
O12 O 0.09215 0.44779 0.01737 0.0
C13 C 0.19507 0.4 0.35845 0.0
C14 C 0.30381 0.48203 0.10714 0.0
C15 C 0.22454 0.31491 0.12266 0.0
C16 C 0.06692 0.31156 0.08972 0.0
C17 C 0.15735 0.39193 0.82732 0.0
C18 C 0.13582 0.4789 0.04424 0.0
O19 O 0.23569 0.40539 0.33932 0.0
O20 O 0.16661 0.39333 0.27786 0.0
O21 O 0.83879 0.32487 0.78689 0.0
Mg22 Mg 0.84701 0.27633 0.88954 0.0
O23 O 0.77365 0.27466 0.86859 0.0
Mg24 Mg 0.77373 0.20068 0.84149 0.0
O25 O 0.85745 0.22065 0.85148 0.0
O26 O 0.9165 0.29719 0.88284 0.0
O27 O 0.76436 0.12191 0.83242 0.0
O28 O 0.78155 0.21164 0.64334 0.0
Mg29 Mg 0.68839 0.13366 0.7221 0.0
O30 O 0.69126 0.1768 0.84713 0.0
O31 O 0.69664 0.07457 0.74446 0.0
O32 O 0.70862 0.16617 0.57468 0.0
O33 O 0.62327 0.12144 0.76028 0.0
C34 C 0.79651 0.23033 0.09623 0.0
C35 C 0.80115 0.3172 0.83466 0.0
C36 C 0.9028 0.25233 0.86856 0.0
C37 C 0.73386 0.0804 0.79312 0.0
C38 C 0.75244 0.19606 0.56071 0.0
C39 C 0.64489 0.15579 0.83124 0.0
O40 O 0.82781 0.27103 0.05909 0.0
O41 O 0.77176 0.19528 0.02996 0.0
O42 O 0.52512 0.87077 0.02195 0.0
Mg43 Mg 0.58361 0.86538 0.07334 0.0
O44 O 0.49727 0.7965 0.96381 0.0
Mg45 Mg 0.56194 0.78139 0.98095 0.0
O46 O 0.62825 0.86352 0.9557 0.0
O47 O 0.64239 0.92848 0.05647 0.0
O48 O 0.62504 0.76455 -0.00177 0.0
O49 O 0.5624 0.78186 0.7847 0.0
Mg50 Mg 0.5358 0.70053 0.87986 0.0
O51 O 0.497 0.70039 0.01234 0.0
O52 O 0.60354 0.70649 0.87838 0.0
O53 O 0.5107 0.70818 0.73216 0.0
O54 O 0.48995 0.63403 0.93043 0.0
C55 C 0.57205 0.80927 0.25435 0.0
C56 C 0.49152 0.83251 0.9803 0.0
C57 C 0.65517 0.90933 0.98114 0.0
C58 C 0.63455 0.73638 0.94428 0.0
C59 C 0.53784 0.75169 0.70849 0.0
C60 C 0.47519 0.65359 0.00032 0.0
O61 O 0.58722 0.85303 0.2365 0.0
O62 O 0.56085 0.77999 0.17398 0.0
O63 O 0.64036 0.5072 0.16418 0.0
Mg64 Mg 0.70234 0.57006 0.20382 0.0
O65 O 0.6919 0.48814 0.09991 0.0
Mg66 Mg 0.7682 0.56053 0.09512 0.0
O67 O 0.74286 0.61984 0.08857 0.0
O68 O 0.68905 0.62382 0.19832 0.0
O69 O 0.8416 0.63683 0.07857 0.0
O70 O 0.76159 0.55816 0.90753 0.0
Mg71 Mg 0.83906 0.56409 0.05507 0.0
O72 O 0.78748 0.49532 0.08057 0.0
O73 O 0.8791 0.61328 0.18417 0.0
O74 O 0.83841 0.58456 0.88666 0.0
O75 O 0.86468 0.51921 0.04512 0.0
C76 C 0.76013 0.5679 0.37587 0.0
C77 C 0.6489 0.47599 0.12541 0.0
C78 C 0.71991 0.64154 0.1209 0.0
C79 C 0.87868 0.64764 0.13597 0.0
C80 C 0.79761 0.57216 0.84463 0.0
C81 C 0.82093 0.48511 0.05743 0.0
O82 O 0.7249 0.57369 0.36005 0.0
O83 O 0.78149 0.56253 0.29337 0.0
O84 O 0.13467 0.66644 0.90536 0.0
Mg85 Mg 0.13072 0.71364 0.02038 0.0
O86 O 0.19899 0.7087 0.00105 0.0
Mg87 Mg 0.18812 0.77764 0.96723 0.0
O88 O 0.1035 0.75605 0.98124 0.0
O89 O 0.05999 0.68145 0.0486 0.0
O90 O 0.1753 0.84436 0.92761 0.0
O91 O 0.17901 0.75962 0.77633 0.0
Mg92 Mg 0.24714 0.84482 0.90722 0.0
O93 O 0.27391 0.80308 0.95883 0.0
O94 O 0.23941 0.89179 0.01781 0.0
O95 O 0.22408 0.83591 0.73845 0.0
O96 O 0.31833 0.87706 0.89017 0.0
C97 C 0.18027 0.76029 0.22613 0.0
C98 C 0.17157 0.66968 0.94974 0.0
C99 C 0.06327 0.72131 0.01865 0.0
C100 C 0.20087 0.88476 0.97471 0.0
C101 C 0.1974 0.79303 0.70472 0.0
C102 C 0.31545 0.83839 0.92792 0.0
O103 O 0.15524 0.71806 0.18729 0.0
O104 O 0.19719 0.79528 0.15837 0.0
O105 O 0.44904 0.11466 0.0047 0.0
Mg106 Mg 0.38262 0.1049 0.0449 0.0
O107 O 0.46351 0.18448 0.9411 0.0
Mg108 Mg 0.3931 0.18979 0.95461 0.0
O109 O 0.33327 0.10682 0.93935 0.0
O110 O 0.33157 0.03953 -0.0001 0.0
O111 O 0.32522 0.19916 0.96971 0.0
O112 O 0.3922 0.18907 0.75946 0.0
Mg113 Mg 0.41156 0.28131 0.85303 0.0
O114 O 0.44988 0.27157 0.9741 0.0
O115 O 0.34221 0.26638 0.88445 0.0
O116 O 0.42363 0.26382 0.70057 0.0
O117 O 0.46547 0.34398 0.91133 0.0
C118 C 0.38619 0.16094 0.22634 0.0
C119 C 0.47783 0.15499 0.96416 0.0
C120 C 0.31161 0.05996 0.94809 0.0
C121 C 0.3129 0.22909 0.93597 0.0
C122 C 0.40778 0.21975 0.68139 0.0
C123 C 0.47664 0.31836 0.97281 0.0
O124 O 0.37526 0.118 0.20701 0.0
O125 O 0.395 0.1904 0.14763 0.0
C126 C 0.24937 0.24991 0.90789 0.0
C127 C 0.26846 0.2271 0.97276 0.0
C128 C 0.22603 0.27208 0.95595 0.0
C129 C 0.22159 0.27212 0.07006 0.0
H130 H 0.25812 0.25622 0.82181 0.0
H131 H 0.21806 0.29497 0.90548 0.0
S132 S 0.24964 0.20259 0.26945 0.0
N133 N 0.26936 0.19452 0.15149 0.0
N134 N 0.22538 0.23617 0.24212 0.0
C135 C 0.23194 0.24148 0.13216 0.0
C136 C 0.25553 0.21879 0.08319 0.0
C137 C 0.02321 0.2704 0.91837 0.0
C138 C 0.02362 0.27249 0.03384 0.0
C139 C -0.01966 0.25449 0.85834 0.0
C140 C 0.93644 0.23791 0.91195 0.0
H141 H 0.05663 0.28737 0.87394 0.0
H142 H -0.01745 0.26107 0.77102 0.0
S143 S 0.91659 0.22157 0.21078 0.0
N144 N 0.97545 0.24717 0.19796 0.0
N145 N 0.89457 0.21351 0.08492 0.0
C146 C 0.9355 0.23095 0.0258 0.0
C147 C -0.02073 0.24932 0.08717 0.0
C148 C 0.70601 -0.00608 0.75713 0.0
C149 C 0.73557 0.03616 0.81898 0.0
C150 C 0.68646 0.9481 0.80432 0.0
C151 C 0.69601 0.94362 0.91443 0.0
H152 H 0.6927 -0.00353 0.67711 0.0
H153 H 0.658 0.91749 0.76042 0.0
S154 S 0.78606 0.04069 0.09492 0.0
N155 N 0.78472 0.069 0.98331 0.0
N156 N 0.74834 0.98276 0.07147 0.0
C157 C 0.73364 0.98432 0.96769 0.0
C158 C 0.75329 0.03099 0.92016 0.0
C159 C 0.71691 0.71671 0.12549 0.0
C160 C 0.72263 0.68301 0.06304 0.0
C161 C 0.69395 0.74018 0.08138 0.0
C162 C 0.67593 0.73036 0.97358 0.0
H163 H 0.72464 0.72027 0.21265 0.0
H164 H 0.68514 0.76116 0.13599 0.0
S165 S 0.69701 0.65816 0.767 0.0
N166 N 0.71988 0.65071 0.88184 0.0
N167 N 0.67708 0.69515 0.79751 0.0
C168 C 0.68927 0.70358 0.90541 0.0
C169 C 0.71279 0.67983 0.95057 0.0
C170 C 0.01047 0.72444 0.15656 0.0
C171 C 0.02266 0.72795 0.04539 0.0
C172 C 0.96268 0.70553 0.18805 0.0
C173 C 0.92579 0.68981 0.10908 0.0
H174 H 0.03694 0.73027 0.21925 0.0
H175 H 0.95396 0.69727 0.2737 0.0
S176 S 0.94189 0.70616 0.80872 0.0
N177 N -0.0035 0.72475 0.85756 0.0
N178 N 0.90645 0.69086 0.91616 0.0
C179 C 0.9389 0.7015 -0.00135 0.0
C180 C -0.01238 0.72 0.96664 0.0
C181 C 0.2016 0.9594 0.02402 0.0
C182 C 0.19918 0.92789 0.9412 0.0
C183 C 0.23082 0.00946 0.01186 0.0
C184 C 0.2607 0.02843 0.9201 0.0
H185 H 0.18706 0.94542 0.10405 0.0
H186 H 0.23775 0.03195 0.08383 0.0
S187 S 0.25159 0.96242 0.66493 0.0
N188 N 0.21485 0.92027 0.75027 0.0
N189 N 0.2736 0.01409 0.73231 0.0
C190 C 0.24998 -0.00161 0.8285 0.0
C191 C 0.21843 0.94767 0.83862 0.0
C192 C 0.14437 0.58549 0.89577 0.0
C193 C 0.17385 0.62503 0.96386 0.0
C194 C 0.1339 0.53902 0.92225 0.0
C195 C 0.15294 0.52987 0.01718 0.0
H196 H 0.12687 0.58997 0.82426 0.0
H197 H 0.10949 0.50967 0.86874 0.0
S198 S 0.23896 0.62163 0.21303 0.0
N199 N 0.22683 0.65291 0.12408 0.0
N200 N 0.2079 0.56474 0.17191 0.0
C201 C 0.18614 0.56937 0.08083 0.0
C202 C 0.19648 0.6172 0.05452 0.0
C203 C 0.5464 0.14268 0.0075 0.0
C204 C 0.52781 0.16675 0.94549 0.0
C205 C 0.58936 0.14482 0.97898 0.0
C206 C 0.61525 0.17133 0.88806 0.0
H207 H 0.52613 0.11953 0.07468 0.0
H208 H 0.60001 0.12215 0.02216 0.0
S209 S 0.58601 0.24591 0.70781 0.0
N210 N 0.54169 0.22234 0.79664 0.0
N211 N 0.62259 0.22598 0.74265 0.0
C212 C 0.59963 0.19912 0.83162 0.0
C213 C 0.55582 0.19704 0.86063 0.0
C214 C 0.43245 0.58426 0.12152 0.0
C215 C 0.43152 0.62068 0.06042 0.0
C216 C 0.39024 0.5409 0.14229 0.0
C217 C 0.34534 0.532 0.10188 0.0
H218 H 0.46651 0.58769 0.14556 0.0
H219 H 0.39336 0.51303 0.18502 0.0
S220 S 0.32304 0.61951 0.95269 0.0
N221 N 0.38198 0.64809 0.9712 0.0
N222 N 0.30193 0.56625 0.01103 0.0
C223 C 0.34332 0.57009 0.05013 0.0
C224 C 0.38668 0.61456 0.02905 0.0
C225 C 0.7692 0.40734 0.95537 0.0
C226 C 0.8094 0.43599 0.02346 0.0
C227 C 0.76575 0.36815 0.89481 0.0
C228 C 0.803 0.35737 0.89865 0.0
H229 H 0.74188 0.41711 0.94338 0.0
H230 H 0.73487 0.34752 0.84159 0.0
S231 S 0.9115 0.41606 0.07806 0.0
N232 N 0.88355 0.44632 0.10193 0.0
N233 N 0.87802 0.37444 0.98641 0.0
C234 C 0.84163 0.38382 0.97169 0.0
C235 C 0.84458 0.42264 0.03452 0.0
C236 C 0.359 0.79361 0.97461 0.0
C237 C 0.35987 0.83511 0.93363 0.0
C238 C 0.40145 0.79138 0.98384 0.0
C239 C 0.446 0.83074 0.95325 0.0
H240 H 0.32558 0.76306 0.00172 0.0
H241 H 0.39971 0.75966 0.01951 0.0
S242 S 0.4677 0.94531 0.82992 0.0
N243 N 0.40945 0.9148 0.85325 0.0
N244 N 0.48825 0.91028 0.8724 0.0
C245 C 0.44708 0.87133 0.90797 0.0
C246 C 0.40427 0.87362 0.89773 0.0
C247 C 0.56412 0.41323 0.15908 0.0
C248 C 0.60786 0.42671 0.10648 0.0
C249 C 0.52126 0.37285 0.12457 0.0
C250 C 0.52078 0.34409 0.03789 0.0
H251 H 0.56222 0.43601 0.22205 0.0
H252 H 0.48777 0.3667 0.1592 0.0
S253 S 0.62604 0.35777 0.88703 0.0
N254 N 0.64881 0.40371 0.97399 0.0
N255 N 0.56762 0.32719 0.9098 0.0
C256 C 0.56464 0.35369 -0.00705 0.0
C257 C 0.60851 0.39518 0.02744 0.0
C258 C 0.21169 0.41549 0.66639 0.0
C259 C 0.16475 0.39338 0.70675 0.0
C260 C 0.22041 0.41886 0.55398 0.0
C261 C 0.18266 0.4 0.47566 0.0
H262 H 0.2423 0.43062 0.722 0.0
H263 H 0.25754 0.43613 0.5285 0.0
S264 S 0.05269 0.33892 0.53738 0.0
N265 N 0.07941 0.35284 0.65885 0.0
N266 N 0.09626 0.35889 0.44678 0.0
C267 C 0.1354 0.37845 0.51422 0.0
C268 C 0.12636 0.37509 0.62969 0.0
C269 C 0.73682 0.17438 0.36364 0.0
C270 C 0.76778 0.20697 0.44474 0.0
C271 C 0.74684 0.18233 0.25252 0.0
C272 C 0.7883 0.22342 0.21593 0.0
H273 H 0.70398 0.14186 0.38565 0.0
H274 H 0.72127 0.15603 0.19484 0.0
S275 S 0.88312 0.31903 0.3931 0.0
N276 N 0.84303 0.28113 0.48046 0.0
N277 N 0.86221 0.29668 0.26971 0.0
C278 C 0.82044 0.25619 0.29547 0.0
C279 C 0.81022 0.24774 0.4101 0.0
C280 C 0.57788 0.81333 0.56324 0.0
C281 C 0.54499 0.76555 0.59203 0.0
C282 C 0.58727 0.82667 0.45356 0.0
C283 C 0.56433 0.79272 0.36848 0.0
H284 H 0.59673 0.8407 0.62568 0.0
H285 H 0.61269 0.86408 0.43544 0.0
S286 S 0.47464 0.66292 0.39924 0.0
N287 N 0.48889 0.68393 0.52568 0.0
N288 N 0.50711 0.70948 0.31964 0.0
C289 C 0.53158 0.74477 0.39566 0.0
C290 C 0.52164 0.73111 0.5074 0.0
C291 C 0.74439 0.55458 0.6818 0.0
C292 C 0.79077 0.57081 0.72365 0.0
C293 C 0.73543 0.55175 0.56951 0.0
C294 C 0.77238 0.56545 0.49236 0.0
H295 H 0.71433 0.54402 0.73609 0.0
H296 H 0.69879 0.53929 0.54311 0.0
S297 S 0.90012 0.60806 0.55741 0.0
N298 N 0.87429 0.59843 0.67829 0.0
N299 N 0.85708 0.59419 0.46546 0.0
C300 C 0.81886 0.58049 0.53197 0.0
C301 C 0.82815 0.58311 0.64781 0.0
C302 C 0.20607 0.81445 0.39433 0.0
C303 C 0.18576 0.76786 0.34842 0.0
C304 C 0.20881 0.82187 0.5087 0.0
C305 C 0.19125 0.78311 0.58335 0.0
H306 H 0.21963 0.8456 0.34155 0.0
H307 H 0.22496 0.85863 0.53871 0.0
S308 S 0.13596 0.65377 0.5069 0.0
N309 N 0.1486 0.68207 0.38849 0.0
N310 N 0.15368 0.69624 0.60173 0.0
C311 C 0.17104 0.73634 0.53872 0.0
C312 C 0.16838 0.72871 0.42219 0.0
C313 C 0.37313 0.15663 0.53437 0.0
C314 C 0.40478 0.20464 0.566 0.0
C315 C 0.36677 0.14302 0.42383 0.0
C316 C 0.39161 0.17697 0.34118 0.0
H317 H 0.35242 0.12958 0.59497 0.0
H318 H 0.34186 0.10562 0.40291 0.0
S319 S 0.48213 0.30623 0.3815 0.0
N320 N 0.46397 0.28559 0.50597 0.0
N321 N 0.45115 0.2598 0.29858 0.0
C322 C 0.424 0.22483 0.37168 0.0
C323 C 0.4309 0.23867 0.48404 0.0
loop_
_geom_bond_atom_site_label_1
_geom_bond_atom_site_label_2
_geom_bond_distance
_geom_bond_site_symmetry_2
_ccdc_geom_bond_type
O0 Mg1 1.990 . S
O0 C14 1.253 . S
Mg1 O0 1.990 . S
Mg1 O4 2.180 . S
Mg1 O5 2.117 . S
Mg1 O19 2.030 . S
O2 Mg3 2.072 . S
O2 C14 1.260 . S
Mg3 O2 2.072 . S
Mg3 O4 2.099 . S
Mg3 O6 2.079 . S
Mg3 O7 2.072 1_554 S
Mg3 O9 2.099 1_554 S
Mg3 O20 2.079 . S
O4 Mg1 2.180 . S
O4 Mg3 2.099 . S
O4 C15 1.279 . S
O5 Mg1 2.117 . S
O5 C15 1.250 . S
O6 Mg3 2.079 . S
O6 C16 1.264 1_554 S
O7 Mg3 2.072 1_556 S
O7 C17 1.260 . S
Mg8 O9 2.180 . S
Mg8 O10 2.030 . S
Mg8 O11 1.990 . S
Mg8 O12 2.117 . S
O9 Mg3 2.099 1_556 S
O9 Mg8 2.180 . S
O9 C18 1.279 . S
O10 Mg8 2.030 . S
O10 C16 1.248 . S
O11 Mg8 1.990 . S
O11 C17 1.253 . S
O12 Mg8 2.117 . S
O12 C18 1.250 . S
C13 O19 1.248 . S
C13 O20 1.264 . S
C14 O0 1.253 . S
C14 O2 1.260 . S
C15 O4 1.279 . S
C15 O5 1.250 . S
C16 O6 1.264 1_556 S
C16 O10 1.248 . S
C17 O7 1.260 . S
C17 O11 1.253 . S
C18 O9 1.279 . S
C18 O12 1.250 . S
O19 Mg1 2.030 . S
O19 C13 1.248 . S
O20 Mg3 2.079 . S
O20 C13 1.264 . S
O21 Mg22 1.990 . S
O21 C35 1.253 . S
Mg22 O21 1.990 . S
Mg22 O25 2.180 . S
Mg22 O26 2.117 . S
Mg22 O40 2.030 . S
O23 Mg24 2.072 . S
O23 C35 1.260 . S
Mg24 O23 2.072 . S
Mg24 O25 2.099 . S
Mg24 O27 2.079 . S
Mg24 O28 2.072 1_554 S
Mg24 O30 2.099 1_554 S
Mg24 O41 2.079 . S
O25 Mg22 2.180 . S
O25 Mg24 2.099 . S
O25 C36 1.279 . S
O26 Mg22 2.117 . S
O26 C36 1.250 . S
O27 Mg24 2.079 . S
O27 C37 1.264 1_554 S
O28 Mg24 2.072 1_556 S
O28 C38 1.260 . S
Mg29 O30 2.180 . S
Mg29 O31 2.030 . S
Mg29 O32 1.990 . S
Mg29 O33 2.117 . S
O30 Mg24 2.099 1_556 S
O30 Mg29 2.180 . S
O30 C39 1.279 . S
O31 Mg29 2.030 . S
O31 C37 1.248 . S
O32 Mg29 1.990 . S
O32 C38 1.253 . S
O33 Mg29 2.117 . S
O33 C39 1.250 . S
C34 O40 1.248 . S
C34 O41 1.264 . S
C35 O21 1.253 . S
C35 O23 1.260 . S
C36 O25 1.279 . S
C36 O26 1.250 . S
C37 O27 1.264 1_556 S
C37 O31 1.248 . S
C38 O28 1.260 . S
C38 O32 1.253 . S
C39 O30 1.279 . S
C39 O33 1.250 . S
O40 Mg22 2.030 . S
O40 C34 1.248 . S
O41 Mg24 2.079 . S
O41 C34 1.264 . S
O42 Mg43 1.990 . S
O42 C56 1.253 . S
Mg43 O42 1.990 . S
Mg43 O46 2.180 . S
Mg43 O47 2.117 . S
Mg43 O61 2.030 . S
O44 Mg45 2.072 . S
O44 C56 1.260 . S
Mg45 O44 2.072 . S
Mg45 O46 2.099 . S
Mg45 O48 2.079 . S
Mg45 O49 2.072 1_554 S
Mg45 O51 2.099 1_554 S
Mg45 O62 2.079 . S
O46 Mg43 2.180 . S
O46 Mg45 2.099 . S
O46 C57 1.279 . S
O47 Mg43 2.117 . S
O47 C57 1.250 . S
O48 Mg45 2.079 . S
O48 C58 1.264 1_554 S
O49 Mg45 2.072 1_556 S
O49 C59 1.260 . S
Mg50 O51 2.180 . S
Mg50 O52 2.030 . S
Mg50 O53 1.990 . S
Mg50 O54 2.117 . S
O51 Mg45 2.099 1_556 S
O51 Mg50 2.180 . S
O51 C60 1.279 . S
O52 Mg50 2.030 . S
O52 C58 1.248 . S
O53 Mg50 1.990 . S
O53 C59 1.253 . S
O54 Mg50 2.117 . S
O54 C60 1.250 . S
C55 O61 1.248 . S
C55 O62 1.264 . S
C56 O42 1.253 . S
C56 O44 1.260 . S
C57 O46 1.279 . S
C57 O47 1.250 . S
C58 O48 1.264 1_556 S
C58 O52 1.248 . S
C59 O49 1.260 . S
C59 O53 1.253 . S
C60 O51 1.279 . S
C60 O54 1.250 . S
O61 Mg43 2.030 . S
O61 C55 1.248 . S
O62 Mg45 2.079 . S
O62 C55 1.264 . S
O63 Mg64 1.990 . S
O63 C77 1.253 . S
Mg64 O63 1.990 . S
Mg64 O67 2.180 . S
Mg64 O68 2.117 . S
Mg64 O82 2.030 . S
O65 Mg66 2.072 . S
O65 C77 1.260 . S
Mg66 O65 2.072 . S
Mg66 O67 2.099 . S
Mg66 O69 2.079 . S
Mg66 O70 2.072 1_554 S
Mg66 O72 2.099 1_554 S
Mg66 O83 2.079 . S
O67 Mg64 2.180 . S
O67 Mg66 2.099 . S
O67 C78 1.279 . S
O68 Mg64 2.117 . S
O68 C78 1.250 . S
O69 Mg66 2.079 . S
O69 C79 1.264 1_554 S
O70 Mg66 2.072 1_556 S
O70 C80 1.260 . S
Mg71 O72 2.180 . S
Mg71 O73 2.030 . S
Mg71 O74 1.990 . S
Mg71 O75 2.117 . S
O72 Mg66 2.099 1_556 S
O72 Mg71 2.180 . S
O72 C81 1.279 . S
O73 Mg71 2.030 . S
O73 C79 1.248 . S
O74 Mg71 1.990 . S
O74 C80 1.253 . S
O75 Mg71 2.117 . S
O75 C81 1.250 . S
C76 O82 1.248 . S
C76 O83 1.264 . S
C77 O63 1.253 . S
C77 O65 1.260 . S
C78 O67 1.279 . S
C78 O68 1.250 . S
C79 O69 1.264 1_556 S
C79 O73 1.248 . S
C80 O70 1.260 . S
C80 O74 1.253 . S
C81 O72 1.279 . S
C81 O75 1.250 . S
O82 Mg64 2.030 . S
O82 C76 1.248 . S
O83 Mg66 2.079 . S
O83 C76 1.264 . S
O84 Mg85 1.990 . S
O84 C98 1.253 . S
Mg85 O84 1.990 . S
Mg85 O88 2.180 . S
Mg85 O89 2.117 . S
Mg85 O103 2.030 . S
O86 Mg87 2.072 . S
O86 C98 1.260 . S
Mg87 O86 2.072 . S
Mg87 O88 2.099 . S
Mg87 O90 2.079 . S
Mg87 O91 2.072 1_554 S
Mg87 O93 2.099 1_554 S
Mg87 O104 2.079 . S
O88 Mg85 2.180 . S
O88 Mg87 2.099 . S
O88 C99 1.279 . S
O89 Mg85 2.117 . S
O89 C99 1.250 . S
O90 Mg87 2.079 . S
O90 C100 1.264 1_554 S
O91 Mg87 2.072 1_556 S
O91 C101 1.260 . S
Mg92 O93 2.180 . S
Mg92 O94 2.030 . S
Mg92 O95 1.990 . S
Mg92 O96 2.117 . S
O93 Mg87 2.099 1_556 S
O93 Mg92 2.180 . S
O93 C102 1.279 . S
O94 Mg92 2.030 . S
O94 C100 1.248 . S
O95 Mg92 1.990 . S
O95 C101 1.253 . S
O96 Mg92 2.117 . S
O96 C102 1.250 . S
C97 O103 1.248 . S
C97 O104 1.264 . S
C98 O84 1.253 . S
C98 O86 1.260 . S
C99 O88 1.279 . S
C99 O89 1.250 . S
C100 O90 1.264 1_556 S
C100 O94 1.248 . S
C101 O91 1.260 . S
C101 O95 1.253 . S
C102 O93 1.279 . S
C102 O96 1.250 . S
O103 Mg85 2.030 . S
O103 C97 1.248 . S
O104 Mg87 2.079 . S
O104 C97 1.264 . S
O105 Mg106 1.990 . S
O105 C119 1.253 . S
Mg106 O105 1.990 . S
Mg106 O109 2.180 . S
Mg106 O110 2.117 . S
Mg106 O124 2.030 . S
O107 Mg108 2.072 . S
O107 C119 1.260 . S
Mg108 O107 2.072 . S
Mg108 O109 2.099 . S
Mg108 O111 2.079 . S
Mg108 O112 2.072 1_554 S
Mg108 O114 2.099 1_554 S
Mg108 O125 2.079 . S
O109 Mg106 2.180 . S
O109 Mg108 2.099 . S
O109 C120 1.279 . S
O110 Mg106 2.117 . S
O110 C120 1.250 . S
O111 Mg108 2.079 . S
O111 C121 1.264 1_554 S
O112 Mg108 2.072 1_556 S
O112 C122 1.260 . S
Mg113 O114 2.180 . S
Mg113 O115 2.030 . S
Mg113 O116 1.990 . S
Mg113 O117 2.117 . S
O114 Mg108 2.099 1_556 S
O114 Mg113 2.180 . S
O114 C123 1.279 . S
O115 Mg113 2.030 . S
O115 C121 1.248 . S
O116 Mg113 1.990 . S
O116 C122 1.253 . S
O117 Mg113 2.117 . S
O117 C123 1.250 . S
C118 O124 1.248 . S
C118 O125 1.264 . S
C119 O105 1.253 . S
C119 O107 1.260 . S
C120 O109 1.279 . S
C120 O110 1.250 . S
C121 O111 1.264 1_556 S
C121 O115 1.248 . S
C122 O112 1.260 . S
C122 O116 1.253 . S
C123 O114 1.279 . S
C123 O117 1.250 . S
O124 Mg106 2.030 . S
O124 C118 1.248 . S
O125 Mg108 2.079 . S
O125 C118 1.264 . S
C126 C127 1.369 . S
C126 C128 1.419 . S
C126 H130 0.930 . S
C127 C126 1.369 . S
C127 C136 1.429 . S
C128 C126 1.419 . S
C128 C129 1.363 . S
C128 H131 0.929 . S
C129 C128 1.363 . S
C129 C135 1.428 . S
H130 C126 0.930 . S
H131 C128 0.929 . S
S132 N133 1.613 . S
S132 N134 1.610 . S
N133 S132 1.613 . S
N133 C136 1.350 . S
N134 S132 1.610 . S
N134 C135 1.351 . S
C135 C129 1.428 . S
C135 N134 1.351 . S
C135 C136 1.434 . S
C136 C127 1.429 . S
C136 N133 1.350 . S
C136 C135 1.434 . S
C137 C138 1.369 . S
C137 C139 1.419 1_455 S
C137 H141 0.930 . S
C138 C137 1.369 . S
C138 C147 1.429 . S
C139 C137 1.419 1_655 S
C139 C140 1.363 . S
C139 H142 0.929 . S
C140 C139 1.363 . S
C140 C146 1.428 . S
H141 C137 0.930 . S
H142 C139 0.929 . S
S143 N144 1.613 1_655 S
S143 N145 1.610 . S
N144 S143 1.613 1_455 S
N144 C147 1.350 . S
N145 S143 1.610 . S
N145 C146 1.351 . S
C146 C140 1.428 . S
C146 N145 1.351 . S
C146 C147 1.434 1_655 S
C147 C138 1.429 . S
C147 N144 1.350 . S
C147 C146 1.434 1_455 S
C148 C149 1.369 . S
C148 C150 1.419 1_545 S
C148 H152 0.930 . S
C149 C148 1.369 . S
C149 C158 1.429 . S
C150 C148 1.419 1_565 S
C150 C151 1.363 . S
C150 H153 0.929 . S
C151 C150 1.363 . S
C151 C157 1.428 . S
H152 C148 0.930 . S
H153 C150 0.929 . S
S154 N155 1.613 1_565 S
S154 N156 1.610 . S
N155 S154 1.613 1_545 S
N155 C158 1.350 . S
N156 S154 1.610 . S
N156 C157 1.351 . S
C157 C151 1.428 . S
C157 N156 1.351 . S
C157 C158 1.434 1_565 S
C158 C149 1.429 . S
C158 N155 1.350 . S
C158 C157 1.434 1_545 S
C159 C160 1.369 . S
C159 C161 1.419 . S
C159 H163 0.930 . S
C160 C159 1.369 . S
C160 C169 1.429 . S
C161 C159 1.419 . S
C161 C162 1.363 . S
C161 H164 0.929 . S
C162 C161 1.363 . S
C162 C168 1.428 . S
H163 C159 0.930 . S
H164 C161 0.929 . S
S165 N166 1.613 . S
S165 N167 1.610 . S
N166 S165 1.613 . S
N166 C169 1.350 . S
N167 S165 1.610 . S
N167 C168 1.351 . S
C168 C162 1.428 . S
C168 N167 1.351 . S
C168 C169 1.434 . S
C169 C160 1.429 . S
C169 N166 1.350 . S
C169 C168 1.434 . S
C170 C171 1.369 1_554 S
C170 C172 1.419 1_455 S
C170 H174 0.930 . S
C171 C170 1.369 1_556 S
C171 C180 1.429 . S
C172 C170 1.419 1_655 S
C172 C173 1.363 1_554 S
C172 H175 0.929 . S
C173 C172 1.363 1_556 S
C173 C179 1.428 . S
H174 C170 0.930 . S
H175 C172 0.929 . S
S176 N177 1.613 . S
S176 N178 1.610 1_455 S
N177 S176 1.613 . S
N177 C180 1.350 . S
N178 S176 1.610 1_655 S
N178 C179 1.351 . S
C179 C173 1.428 . S
C179 N178 1.351 . S
C179 C180 1.434 1_655 S
C180 C171 1.429 . S
C180 N177 1.350 . S
C180 C179 1.434 1_455 S
C181 C182 1.369 1_554 S
C181 C183 1.419 1_565 S
C181 H185 0.930 . S
C182 C181 1.369 1_556 S
C182 C191 1.429 . S
C183 C181 1.419 1_545 S
C183 C184 1.363 1_554 S
C183 H186 0.929 . S
C184 C183 1.363 1_556 S
C184 C190 1.428 . S
H185 C181 0.930 . S
H186 C183 0.929 . S
S187 N188 1.613 1_545 S
S187 N189 1.610 . S
N188 S187 1.613 1_565 S
N188 C191 1.350 . S
N189 S187 1.610 . S
N189 C190 1.351 . S
C190 C184 1.428 . S
C190 N189 1.351 . S
C190 C191 1.434 1_545 S
C191 C182 1.429 . S
C191 N188 1.350 . S
C191 C190 1.434 1_565 S
C192 C193 1.369 1_556 S
C192 C194 1.419 . S
C192 H196 0.930 . S
C193 C192 1.369 1_554 S
C193 C202 1.429 . S
C194 C192 1.419 . S
C194 C195 1.363 1_556 S
C194 H197 0.929 . S
C195 C194 1.363 1_554 S
C195 C201 1.428 . S
H196 C192 0.930 . S
H197 C194 0.929 . S
S198 N199 1.613 . S
S198 N200 1.610 . S
N199 S198 1.613 . S
N199 C202 1.350 . S
N200 S198 1.610 . S
N200 C201 1.351 . S
C201 C195 1.428 . S
C201 N200 1.351 . S
C201 C202 1.434 . S
C202 C193 1.429 . S
C202 N199 1.350 . S
C202 C201 1.434 . S
C203 C204 1.369 . S
C203 C205 1.419 . S
C203 H207 0.930 . S
C204 C203 1.369 . S
C204 C213 1.429 . S
C205 C203 1.419 . S
C205 C206 1.363 . S
C205 H208 0.929 . S
C206 C205 1.363 . S
C206 C212 1.428 . S
H207 C203 0.930 . S
H208 C205 0.929 . S
S209 N210 1.613 1_556 S
S209 N211 1.610 . S
N210 S209 1.613 1_554 S
N210 C213 1.350 . S
N211 S209 1.610 . S
N211 C212 1.351 1_556 S
C212 C206 1.428 . S
C212 N211 1.351 1_554 S
C212 C213 1.434 . S
C213 C204 1.429 . S
C213 N210 1.350 . S
C213 C212 1.434 . S
C214 C215 1.369 1_556 S
C214 C216 1.419 . S
C214 H218 0.930 . S
C215 C214 1.369 1_554 S
C215 C224 1.429 . S
C216 C214 1.419 . S
C216 C217 1.363 1_556 S
C216 H219 0.929 . S
C217 C216 1.363 1_554 S
C217 C223 1.428 . S
H218 C214 0.930 . S
H219 C216 0.929 . S
S220 N221 1.613 . S
S220 N222 1.610 . S
N221 S220 1.613 . S
N221 C224 1.350 . S
N222 S220 1.610 . S
N222 C223 1.351 . S
C223 C217 1.428 . S
C223 N222 1.351 . S
C223 C224 1.434 . S
C224 C215 1.429 . S
C224 N221 1.350 . S
C224 C223 1.434 . S
C225 C226 1.369 . S
C225 C227 1.419 . S
C225 H229 0.930 . S
C226 C225 1.369 . S
C226 C235 1.429 1_554 S
C227 C225 1.419 . S
C227 C228 1.363 . S
C227 H230 0.929 . S
C228 C227 1.363 . S
C228 C234 1.428 . S
H229 C225 0.930 . S
H230 C227 0.929 . S
S231 N232 1.613 . S
S231 N233 1.610 . S
N232 S231 1.613 . S
N232 C235 1.350 . S
N233 S231 1.610 . S
N233 C234 1.351 1_556 S
C234 C228 1.428 . S
C234 N233 1.351 1_554 S
C234 C235 1.434 1_554 S
C235 C226 1.429 1_556 S
C235 N232 1.350 . S
C235 C234 1.434 1_556 S
C236 C237 1.369 . S
C236 C238 1.419 . S
C236 H240 0.930 . S
C237 C236 1.369 . S
C237 C246 1.429 1_554 S
C238 C236 1.419 . S
C238 C239 1.363 . S
C238 H241 0.929 . S
C239 C238 1.363 . S
C239 C245 1.428 1_554 S
H240 C236 0.930 . S
H241 C238 0.929 . S
S242 N243 1.613 . S
S242 N244 1.610 . S
N243 S242 1.613 . S
N243 C246 1.350 . S
N244 S242 1.610 . S
N244 C245 1.351 . S
C245 C239 1.428 1_556 S
C245 N244 1.351 . S
C245 C246 1.434 . S
C246 C237 1.429 1_556 S
C246 N243 1.350 . S
C246 C245 1.434 . S
C247 C248 1.369 1_556 S
C247 C249 1.419 . S
C247 H251 0.930 . S
C248 C247 1.369 1_554 S
C248 C257 1.429 . S
C249 C247 1.419 . S
C249 C250 1.363 1_556 S
C249 H252 0.929 . S
C250 C249 1.363 1_554 S
C250 C256 1.428 . S
H251 C247 0.930 . S
H252 C249 0.929 . S
S253 N254 1.613 . S
S253 N255 1.610 . S
N254 S253 1.613 . S
N254 C257 1.350 . S
N255 S253 1.610 . S
N255 C256 1.351 . S
C256 C250 1.428 . S
C256 N255 1.351 . S
C256 C257 1.434 . S
C257 C248 1.429 . S
C257 N254 1.350 . S
C257 C256 1.434 . S
C258 C259 1.369 . S
C258 C260 1.419 . S
C258 H262 0.930 . S
C259 C258 1.369 . S
C259 C268 1.429 . S
C260 C258 1.419 . S
C260 C261 1.363 . S
C260 H263 0.929 . S
C261 C260 1.363 . S
C261 C267 1.428 . S
H262 C258 0.930 . S
H263 C260 0.929 . S
S264 N265 1.613 . S
S264 N266 1.610 . S
N265 S264 1.613 . S
N265 C268 1.350 . S
N266 S264 1.610 . S
N266 C267 1.351 . S
C267 C261 1.428 . S
C267 N266 1.351 . S
C267 C268 1.434 . S
C268 C259 1.429 . S
C268 N265 1.350 . S
C268 C267 1.434 . S
C269 C270 1.369 . S
C269 C271 1.419 . S
C269 H273 0.930 . S
C270 C269 1.369 . S
C270 C279 1.429 . S
C271 C269 1.419 . S
C271 C272 1.363 . S
C271 H274 0.929 . S
C272 C271 1.363 . S
C272 C278 1.428 . S
H273 C269 0.930 . S
H274 C271 0.929 . S
S275 N276 1.613 . S
S275 N277 1.610 . S
N276 S275 1.613 . S
N276 C279 1.350 . S
N277 S275 1.610 . S
N277 C278 1.351 . S
C278 C272 1.428 . S
C278 N277 1.351 . S
C278 C279 1.434 . S
C279 C270 1.429 . S
C279 N276 1.350 . S
C279 C278 1.434 . S
C280 C281 1.369 . S
C280 C282 1.419 . S
C280 H284 0.930 . S
C281 C280 1.369 . S
C281 C290 1.429 . S
C282 C280 1.419 . S
C282 C283 1.363 . S
C282 H285 0.929 . S
C283 C282 1.363 . S
C283 C289 1.428 . S
H284 C280 0.930 . S
H285 C282 0.929 . S
S286 N287 1.613 . S
S286 N288 1.610 . S
N287 S286 1.613 . S
N287 C290 1.350 . S
N288 S286 1.610 . S
N288 C289 1.351 . S
C289 C283 1.428 . S
C289 N288 1.351 . S
C289 C290 1.434 . S
C290 C281 1.429 . S
C290 N287 1.350 . S
C290 C289 1.434 . S
C291 C292 1.369 . S
C291 C293 1.419 . S
C291 H295 0.930 . S
C292 C291 1.369 . S
C292 C301 1.429 . S
C293 C291 1.419 . S
C293 C294 1.363 . S
C293 H296 0.929 . S
C294 C293 1.363 . S
C294 C300 1.428 . S
H295 C291 0.930 . S
H296 C293 0.929 . S
S297 N298 1.613 . S
S297 N299 1.610 . S
N298 S297 1.613 . S
N298 C301 1.350 . S
N299 S297 1.610 . S
N299 C300 1.351 . S
C300 C294 1.428 . S
C300 N299 1.351 . S
C300 C301 1.434 . S
C301 C292 1.429 . S
C301 N298 1.350 . S
C301 C300 1.434 . S
C302 C303 1.369 . S
C302 C304 1.419 . S
C302 H306 0.930 . S
C303 C302 1.369 . S
C303 C312 1.429 . S
C304 C302 1.419 . S
C304 C305 1.363 . S
C304 H307 0.929 . S
C305 C304 1.363 . S
C305 C311 1.428 . S
H306 C302 0.930 . S
H307 C304 0.929 . S
S308 N309 1.613 . S
S308 N310 1.610 . S
N309 S308 1.613 . S
N309 C312 1.350 . S
N310 S308 1.610 . S
N310 C311 1.351 . S
C311 C305 1.428 . S
C311 N310 1.351 . S
C311 C312 1.434 . S
C312 C303 1.429 . S
C312 N309 1.350 . S
C312 C311 1.434 . S
C313 C314 1.369 . S
C313 C315 1.419 . S
C313 H317 0.930 . S
C314 C313 1.369 . S
C314 C323 1.429 . S
C315 C313 1.419 . S
C315 C316 1.363 . S
C315 H318 0.929 . S
C316 C315 1.363 . S
C316 C322 1.428 . S
H317 C313 0.930 . S
H318 C315 0.929 . S
S319 N320 1.613 . S
S319 N321 1.610 . S
N320 S319 1.613 . S
N320 C323 1.350 . S
N321 S319 1.610 . S
N321 C322 1.351 . S
C322 C316 1.428 . S
C322 N321 1.351 . S
C322 C323 1.434 . S
C323 C314 1.429 . S
C323 N320 1.350 . S
C323 C322 1.434 . S
C127 C121 1.369 . S
C129 C15 1.171 1_556 S
C138 C16 1.368 . S
C140 C36 1.172 1_556 S
C149 C37 1.368 . S
C151 C57 1.172 1_556 S
C160 C78 1.159 1_556 S
C162 C58 1.358 . S
C171 C99 1.175 1_556 S
C173 C79 1.366 . S
C182 C100 1.358 . S
C184 C120 1.166 1_556 S
C193 C98 1.540 . S
C195 C18 1.409 1_554 S
C204 C119 1.544 . S
C206 C39 1.411 1_554 S
C215 C60 1.415 1_554 S
C217 C14 1.543 . S
C226 C81 1.402 1_554 S
C228 C35 1.540 . S
C237 C102 1.402 1_554 S
C239 C56 1.541 . S
C248 C77 1.544 . S
C250 C123 1.414 1_554 S
C259 C17 1.472 . S
C261 C13 1.506 . S
C270 C38 1.473 . S
C272 C34 1.503 . S
C281 C59 1.466 . S
C283 C55 1.509 . S
C292 C80 1.470 . S
C294 C76 1.507 . S
C303 C97 1.506 . S
C305 C101 1.470 . S
C314 C122 1.466 . S
C316 C118 1.508 . S
