# Generated by pormake.
# Topology tfs, (6)-cn, num edge types: 1
# Building blocks:
#     Node 0, Type 0, BuildingBlock: FUNLAD_clean_sbu_0, # of connection points: 6
#     Node 1, Type 0, BuildingBlock: FUNLAD_clean_sbu_0, # of connection points: 6
#     Node 2, Type 0, BuildingBlock: FUNLAD_clean_sbu_0, # of connection points: 6
#     Node 3, Type 0, BuildingBlock: FUNLAD_clean_sbu_0, # of connection points: 6
#     Node 4, Type 0, BuildingBlock: FUNLAD_clean_sbu_0, # of connection points: 6
#     Node 5, Type 0, BuildingBlock: FUNLAD_clean_sbu_0, # of connection points: 6
#     Edge 6, Type (0, 0), BuildingBlock: KIFKEQ_clean_linker_1, # of connection points: 2
#     Edge 7, Type (0, 0), BuildingBlock: KIFKEQ_clean_linker_1, # of connection points: 2
#     Edge 8, Type (0, 0), BuildingBlock: KIFKEQ_clean_linker_1, # of connection points: 2
#     Edge 9, Type (0, 0), BuildingBlock: KIFKEQ_clean_linker_1, # of connection points: 2
#     Edge 10, Type (0, 0), BuildingBlock: KIFKEQ_clean_linker_1, # of connection points: 2
#     Edge 11, Type (0, 0), BuildingBlock: KIFKEQ_clean_linker_1, # of connection points: 2
#     Edge 12, Type (0, 0), BuildingBlock: KIFKEQ_clean_linker_1, # of connection points: 2
#     Edge 13, Type (0, 0), BuildingBlock: KIFKEQ_clean_linker_1, # of connection points: 2
#     Edge 14, Type (0, 0), BuildingBlock: KIFKEQ_clean_linker_1, # of connection points: 2
#     Edge 15, Type (0, 0), BuildingBlock: KIFKEQ_clean_linker_1, # of connection points: 2
#     Edge 16, Type (0, 0), BuildingBlock: KIFKEQ_clean_linker_1, # of connection points: 2
#     Edge 17, Type (0, 0), BuildingBlock: KIFKEQ_clean_linker_1, # of connection points: 2
#     Edge 18, Type (0, 0), BuildingBlock: KIFKEQ_clean_linker_1, # of connection points: 2
#     Edge 19, Type (0, 0), BuildingBlock: KIFKEQ_clean_linker_1, # of connection points: 2
#     Edge 20, Type (0, 0), BuildingBlock: KIFKEQ_clean_linker_1, # of connection points: 2
#     Edge 21, Type (0, 0), BuildingBlock: KIFKEQ_clean_linker_1, # of connection points: 2
#     Edge 22, Type (0, 0), BuildingBlock: KIFKEQ_clean_linker_1, # of connection points: 2
#     Edge 23, Type (0, 0), BuildingBlock: KIFKEQ_clean_linker_1, # of connection points: 2
# Relax obj value: 0.123
# Max RMSD: 0.155
# Mean RMSD: 0.154
data_MOF--net-tfs--node1-FUNLAD_clean_sbu_0--edge1-KIFKEQ_clean_linker_1
_symmetry_space_group_name_H-M    P1
_symmetry_Int_Tables_number       1
_symmetry_cell_setting            triclinic
loop_
_symmetry_equiv_pos_as_xyz
'x, y, z'
_cell_length_a     41.802041
_cell_length_b     41.820254
_cell_length_c     22.010622
_cell_angle_alpha  90.551958
_cell_angle_beta   90.765852
_cell_angle_gamma 119.91838
loop_
_atom_site_label
_atom_site_type_symbol
_atom_site_fract_x
_atom_site_fract_y
_atom_site_fract_z
_atom_type_partial_charge
C0 C 0.11679 0.35374 0.04342 0.0
N1 N 0.19136 0.411 0.18625 0.0
C2 C 0.1613 0.407 0.21601 0.0
C3 C 0.16072 0.40666 0.2794 0.0
C4 C 0.19164 0.41115 0.31291 0.0
C5 C 0.22256 0.41592 0.28079 0.0
C6 C 0.2217 0.41543 0.21733 0.0
Zn7 Zn 0.1904 0.40913 0.09323 0.0
C8 C 0.21024 0.35451 0.04552 0.0
N9 N 0.18843 0.40441 0.89893 0.0
C10 C 0.16202 0.40804 0.86803 0.0
C11 C 0.21454 0.40038 0.86901 0.0
C12 C 0.21472 0.39991 0.80555 0.0
C13 C 0.18824 0.40433 0.77274 0.0
C14 C 0.16163 0.40842 0.80461 0.0
Zn15 Zn 0.18945 0.40626 0.99197 0.0
O16 O 0.13479 0.3674 0.09278 0.0
C17 C 0.17024 0.46152 0.0396 0.0
O18 O 0.13285 0.36504 0.99305 0.0
H19 H 0.23549 0.39786 0.89435 0.0
H20 H 0.13748 0.40364 0.19056 0.0
H21 H 0.14133 0.41091 0.89258 0.0
O22 O 0.17418 0.44966 0.09051 0.0
O23 O 0.17515 0.44814 0.99088 0.0
H24 H 0.24529 0.41846 0.19288 0.0
O25 O 0.24594 0.44736 0.99221 0.0
O26 O 0.24628 0.45145 0.09174 0.0
O27 O 0.20424 0.36512 0.99496 0.0
O28 O 0.2066 0.36849 0.09467 0.0
C29 C 0.26308 0.46217 0.04188 0.0
H30 H 0.13595 0.40225 0.30169 0.0
H31 H 0.24734 0.42019 0.30426 0.0
H32 H 0.23583 0.39696 0.78238 0.0
H33 H 0.1406 0.4116 0.78068 0.0
C34 C 0.84139 0.21556 0.04796 0.0
N35 N 0.76642 0.19569 0.90587 0.0
C36 C 0.79225 0.22597 0.87675 0.0
C37 C 0.79272 0.2267 0.81338 0.0
C38 C 0.76674 0.19571 0.77926 0.0
C39 C 0.74044 0.16478 0.81071 0.0
C40 C 0.7406 0.16548 0.87418 0.0
Zn41 Zn 0.76721 0.19556 0.99885 0.0
C42 C 0.74848 0.1226 0.04759 0.0
N43 N 0.76976 0.19598 0.19308 0.0
C44 C 0.80015 0.22168 0.22472 0.0
C45 C 0.73951 0.17008 0.22225 0.0
C46 C 0.73882 0.16971 0.28562 0.0
C47 C 0.76981 0.19582 0.31927 0.0
C48 C 0.80088 0.22189 0.28821 0.0
Zn49 Zn 0.76897 0.1962 0.10009 0.0
O50 O 0.82347 0.2119 0.99892 0.0
C51 C 0.78721 0.26918 0.05229 0.0
O52 O 0.82516 0.20984 0.09847 0.0
H53 H 0.71578 0.14965 0.19635 0.0
H54 H 0.81267 0.24968 0.9027 0.0
H55 H 0.82381 0.24218 0.20072 0.0
O56 O 0.7809 0.25165 1.00201 0.0
O57 O 0.78487 0.25271 0.10166 0.0
H58 H 0.72025 0.14169 0.89813 0.0
O59 O 0.71306 0.1829 0.09926 0.0
O60 O 0.71049 0.17927 0.99961 0.0
O61 O 0.75254 0.13969 0.09766 0.0
O62 O 0.75372 0.13965 0.99799 0.0
C63 C 0.69476 0.17678 0.04976 0.0
H64 H 0.81312 0.25148 0.79154 0.0
H65 H 0.72021 0.13997 0.78676 0.0
H66 H 0.71449 0.14898 0.30813 0.0
H67 H 0.82518 0.2426 0.31278 0.0
C68 C 0.61045 0.75424 0.03151 0.0
N69 N 0.55867 0.7746 0.17609 0.0
C70 C 0.56313 0.74874 0.20615 0.0
C71 C 0.56357 0.74848 0.2696 0.0
C72 C 0.55868 0.77464 0.30226 0.0
C73 C 0.55398 0.80089 0.27023 0.0
C74 C 0.5544 0.80058 0.20682 0.0
Zn75 Zn 0.55783 0.77422 0.0831 0.0
C76 C 0.61067 0.84725 0.03398 0.0
N77 N 0.55507 0.77353 0.88888 0.0
C78 C 0.55058 0.7432 0.85794 0.0
C79 C 0.55945 0.80373 0.859 0.0
C80 C 0.55992 0.80439 0.79559 0.0
C81 C 0.55522 0.77341 0.76224 0.0
C82 C 0.55025 0.74243 0.79449 0.0
Zn83 Zn 0.55593 0.77393 0.98192 0.0
O84 O 0.6 0.7608 0.08166 0.0
C85 C 0.50256 0.70086 0.03148 0.0
O86 O 0.59604 0.75699 0.98202 0.0
H87 H 0.56287 0.82755 0.88436 0.0
H88 H 0.56619 0.72814 0.18091 0.0
H89 H 0.54726 0.71949 0.88248 0.0
O90 O 0.51741 0.7175 0.08146 0.0
O91 O 0.51319 0.7182 0.98203 0.0
H92 H 0.55121 0.82108 0.18215 0.0
O93 O 0.51575 0.7906 0.9831 0.0
O94 O 0.51519 0.78757 0.0826 0.0
O95 O 0.59823 0.82971 0.98388 0.0
O96 O 0.59818 0.83072 0.08363 0.0
C97 C 0.50279 0.79344 0.03349 0.0
H98 H 0.56699 0.72764 0.29288 0.0
H99 H 0.55045 0.82168 0.29403 0.0
H100 H 0.56449 0.8292 0.77318 0.0
H101 H 0.54583 0.71761 0.77112 0.0
C102 C 0.74848 0.61663 0.04616 0.0
N103 N 0.76694 0.5615 0.90299 0.0
C104 C 0.74093 0.56571 0.87197 0.0
C105 C 0.74077 0.56629 0.80855 0.0
C106 C 0.76717 0.56177 0.77686 0.0
C107 C 0.79336 0.55695 0.80982 0.0
C108 C 0.79296 0.55725 0.87323 0.0
Zn109 Zn 0.76747 0.56229 0.99595 0.0
C110 C 0.8414 0.61644 0.04699 0.0
N111 N 0.76927 0.56435 0.1903 0.0
C112 C 0.7393 0.56063 0.21998 0.0
C113 C 0.79945 0.56842 0.22144 0.0
C114 C 0.80032 0.56907 0.28491 0.0
C115 C 0.76958 0.56484 0.31695 0.0
C116 C 0.73873 0.56047 0.28337 0.0
Zn117 Zn 0.76869 0.56346 0.09727 0.0
O118 O 0.75333 0.6041 0.99649 0.0
C119 C 0.69473 0.50879 0.04546 0.0
O120 O 0.75288 0.60426 0.0962 0.0
H121 H 0.82298 0.57123 0.19707 0.0
H122 H 0.72031 0.56876 0.8964 0.0
H123 H 0.71561 0.55754 0.19446 0.0
O124 O 0.71107 0.52126 0.99568 0.0
O125 O 0.71241 0.52166 0.09542 0.0
H126 H 0.81361 0.55429 0.89869 0.0
O127 O 0.78426 0.5224 0.09718 0.0
O128 O 0.78144 0.52022 0.99746 0.0
O129 O 0.82492 0.60497 0.09694 0.0
O130 O 0.82377 0.60309 0.99717 0.0
C131 C 0.78711 0.50856 0.04728 0.0
H132 H 0.71998 0.56979 0.78448 0.0
H133 H 0.81432 0.55368 0.78678 0.0
H134 H 0.82504 0.5732 0.30843 0.0
H135 H 0.71409 0.55644 0.30563 0.0
C136 C 0.26337 0.79379 0.03232 0.0
N137 N 0.18832 0.77252 0.88823 0.0
C138 C 0.21856 0.79846 0.85909 0.0
C139 C 0.21927 0.79884 0.79572 0.0
C140 C 0.18831 0.77273 0.76204 0.0
C141 C 0.15732 0.74649 0.79307 0.0
C142 C 0.15803 0.74667 0.85657 0.0
Zn143 Zn 0.18885 0.77315 0.98129 0.0
C144 C 0.17117 0.70136 0.03249 0.0
N145 N 0.19163 0.77665 0.17549 0.0
C146 C 0.2173 0.80696 0.20717 0.0
C147 C 0.16573 0.74643 0.20462 0.0
C148 C 0.16514 0.74577 0.26797 0.0
C149 C 0.19105 0.77679 0.3021 0.0
C150 C 0.21734 0.80773 0.27065 0.0
Zn151 Zn 0.19113 0.77601 0.08248 0.0
O152 O 0.2447 0.78644 0.98299 0.0
C153 C 0.20933 0.84778 0.03131 0.0
O154 O 0.24802 0.79256 0.08239 0.0
H155 H 0.14542 0.72265 0.1787 0.0
H156 H 0.2422 0.81902 0.88499 0.0
H157 H 0.2377 0.83071 0.18318 0.0
O158 O 0.2054 0.83008 0.9819 0.0
O159 O 0.20416 0.83142 0.08155 0.0
H160 H 0.13436 0.72616 0.88054 0.0
O161 O 0.13447 0.75958 0.08145 0.0
O162 O 0.13291 0.75929 0.98169 0.0
O163 O 0.17816 0.72023 0.08145 0.0
O164 O 0.1726 0.71643 0.98196 0.0
C165 C 0.11661 0.75475 0.03185 0.0
H166 H 0.24353 0.81971 0.77325 0.0
H167 H 0.13303 0.72578 0.76846 0.0
H168 H 0.14476 0.72096 0.28977 0.0
H169 H 0.23752 0.83255 0.29463 0.0
C170 C 0.34787 0.21627 0.05275 0.0
N171 N 0.40314 0.19603 0.19383 0.0
C172 C 0.40781 0.22643 0.22475 0.0
C173 C 0.40801 0.22719 0.28817 0.0
C174 C 0.4027 0.1961 0.32045 0.0
C175 C 0.39785 0.16505 0.28716 0.0
C176 C 0.39846 0.16571 0.22373 0.0
Zn177 Zn 0.40228 0.19593 0.10079 0.0
C178 C 0.34745 0.12309 0.04755 0.0
N179 N 0.39944 0.19658 0.90668 0.0
C180 C 0.39489 0.22239 0.87666 0.0
C181 C 0.40376 0.17064 0.8759 0.0
C182 C 0.40417 0.17033 0.81251 0.0
C183 C 0.39943 0.19655 0.78049 0.0
C184 C 0.39446 0.22267 0.81318 0.0
Zn185 Zn 0.40031 0.19664 0.99968 0.0
O186 O 0.36248 0.21306 0.10161 0.0
C187 C 0.4557 0.26949 0.0521 0.0
O188 O 0.35799 0.21004 1.00197 0.0
H189 H 0.40697 0.15013 0.90052 0.0
H190 H 0.41134 0.25022 0.2002 0.0
H191 H 0.39175 0.24292 0.90194 0.0
O192 O 0.44524 0.25167 0.10116 0.0
O193 O 0.44063 0.25334 1.00193 0.0
H194 H 0.39484 0.14182 0.19837 0.0
O195 O 0.4431 0.18335 0.99964 0.0
O196 O 0.44216 0.17908 0.09898 0.0
O197 O 0.36007 0.14016 0.99838 0.0
O198 O 0.35977 0.14013 0.09811 0.0
C199 C 0.45529 0.17684 0.04842 0.0
H200 H 0.41257 0.25207 0.31148 0.0
H201 H 0.39305 0.14017 0.30964 0.0
H202 H 0.40773 0.14956 0.78872 0.0
H203 H 0.39098 0.24347 0.7899 0.0
H204 H 0.33669 0.25259 0.14598 0.0
H205 H 0.2987 0.20957 0.96392 0.0
H206 H 0.29805 0.2808 0.14492 0.0
H207 H 0.25839 0.23609 0.96383 0.0
H208 H 0.23796 0.33378 0.95169 0.0
H209 H 0.26591 0.29509 0.9554 0.0
H210 H 0.23916 0.27476 0.14547 0.0
H211 H 0.21277 0.31523 0.14224 0.0
C212 C 0.3194 0.24848 0.10623 0.0
C213 C 0.32102 0.22931 0.05474 0.0
C214 C 0.29699 0.26444 0.10572 0.0
C215 C 0.27526 0.26106 0.05405 0.0
C216 C 0.27542 0.24005 1.00383 0.0
C217 C 0.29834 0.22466 1.00396 0.0
C218 C 0.23771 0.32076 0.99414 0.0
C219 C 0.2235 0.3278 0.04682 0.0
C220 C 0.2535 0.29827 0.99621 0.0
C221 C 0.25497 0.2818 0.05082 0.0
C222 C 0.2392 0.28757 0.10293 0.0
C223 C 0.22388 0.31058 0.10105 0.0
H224 H 0.07136 0.33819 0.13936 0.0
H225 H 0.07237 0.30838 0.95118 0.0
H226 H 0.00483 0.29907 0.13982 0.0
H227 H 0.00566 0.26748 0.95234 0.0
H228 H 0.88689 0.24676 0.95285 0.0
H229 H 0.95344 0.2744 0.95211 0.0
H230 H 0.9527 0.23997 0.13707 0.0
H231 H 0.88592 0.21388 0.13862 0.0
C232 C 0.05739 0.32261 0.09838 0.0
C233 C 0.077 0.32667 0.04499 0.0
C234 C 0.01917 0.29986 0.09877 0.0
C235 C -0.00032 0.28019 0.046 0.0
C236 C 0.01963 0.28284 0.99343 0.0
C237 C 0.05788 0.30611 0.99278 0.0
C238 C 0.90087 0.24475 0.99319 0.0
C239 C 0.88126 0.22854 0.04604 0.0
C240 C 0.93912 0.26037 0.99262 0.0
C241 C 0.95864 0.25965 0.04464 0.0
C242 C 0.93869 0.24174 0.0966 0.0
C243 C 0.90041 0.22661 0.09746 0.0
H244 H 0.7509 0.08055 0.95399 0.0
H245 H 0.71663 0.07466 0.1398 0.0
H246 H 0.72472 0.0138 0.95071 0.0
H247 H 0.68884 0.00805 0.13577 0.0
H248 H 0.65542 0.88938 0.12821 0.0
H249 H 0.69604 0.95609 0.13139 0.0
H250 H 0.6657 0.96154 0.94466 0.0
H251 H 0.6268 0.89487 0.94079 0.0
C252 C 0.73784 0.06496 0.99415 0.0
C253 C 0.73556 0.08274 0.04699 0.0
C254 C 0.72264 0.02669 0.99222 0.0
C255 C 0.70429 0.00536 0.04276 0.0
C256 C 0.70321 0.02347 0.09624 0.0
C257 C 0.71892 0.06173 0.09847 0.0
C258 C 0.65791 0.90489 0.08767 0.0
C259 C 0.63775 0.88704 0.03443 0.0
C260 C 0.681 0.94314 0.08954 0.0
C261 C 0.68388 0.96438 0.03853 0.0
C262 C 0.66468 0.94618 0.9846 0.0
C263 C 0.6421 0.9079 0.98245 0.0
H264 H 0.71793 0.63517 0.13888 0.0
H265 H 0.74965 0.65878 0.95147 0.0
H266 H 0.68988 0.67389 0.13409 0.0
H267 H 0.72307 0.69899 0.9473 0.0
H268 H 0.65733 0.75993 0.12364 0.0
H269 H 0.69767 0.73349 0.12685 0.0
H270 H 0.66327 0.69138 0.94308 0.0
H271 H 0.62437 0.71932 0.9391 0.0
C272 C 0.7196 0.6493 0.09703 0.0
C273 C 0.7356 0.64365 0.04537 0.0
C274 C 0.70372 0.67175 0.09433 0.0
C275 C 0.70396 0.68944 0.04012 0.0
C276 C 0.72167 0.68518 0.98936 0.0
C277 C 0.7371 0.66231 0.99184 0.0
C278 C 0.65883 0.74543 0.08369 0.0
C279 C 0.6375 0.7414 0.03129 0.0
C280 C 0.68178 0.73009 0.08562 0.0
C281 C 0.68345 0.70989 0.03552 0.0
C282 C 0.66312 0.70714 0.98228 0.0
C283 C 0.64058 0.72295 0.98007 0.0
H284 H 0.07681 0.75811 0.1264 0.0
H285 H 0.06643 0.72172 0.93917 0.0
H286 H 0.0101 0.73155 0.13034 0.0
H287 H -0.00022 0.69351 0.94378 0.0
H288 H 0.88104 0.65982 0.95355 0.0
H289 H 0.94766 0.70031 0.95006 0.0
H290 H 0.95818 0.67255 0.13532 0.0
H291 H 0.89155 0.63375 0.13954 0.0
C292 C 0.06022 0.74449 0.08605 0.0
C293 C 0.07673 0.74173 0.03262 0.0
C294 C 0.02197 0.72906 0.08838 0.0
C295 C -0.00062 0.70998 0.03762 0.0
C296 C 0.01619 0.70843 0.98354 0.0
C297 C 0.05446 0.72439 0.98094 0.0
C298 C 0.89765 0.66284 0.99372 0.0
C299 C 0.88121 0.64346 0.04666 0.0
C300 C 0.93585 0.68586 0.99166 0.0
C301 C 0.95848 0.68945 0.04214 0.0
C302 C 0.94173 0.67098 0.0958 0.0
C303 C 0.90348 0.64848 0.09817 0.0
H304 H 0.24309 0.89562 0.93941 0.0
H305 H 0.2045 0.88975 0.12228 0.0
H306 H 0.2711 0.9624 0.94327 0.0
H307 H 0.2309 0.95647 0.12527 0.0
H308 H 0.32929 0.07471 0.14015 0.0
H309 H 0.29036 0.00807 0.13456 0.0
H310 H 0.26425 0.01488 0.94595 0.0
H311 H 0.30478 0.08158 0.95101 0.0
C312 C 0.23988 0.90859 0.97994 0.0
C313 C 0.22203 0.88758 0.03081 0.0
C314 C 0.25574 0.94691 0.98208 0.0
C315 C 0.25359 0.96498 0.03484 0.0
C316 C 0.23388 0.94361 0.08446 0.0
C317 C 0.21855 0.90535 0.08265 0.0
C318 C 0.3149 0.062 0.09769 0.0
C319 C 0.32037 0.08328 0.04585 0.0
C320 C 0.29232 0.02374 0.09452 0.0
C321 C 0.27425 0.00594 0.03964 0.0
C322 C 0.27835 0.02754 0.98859 0.0
C323 C 0.30139 0.06579 0.99154 0.0
H324 H 0.14322 0.64896 0.94137 0.0
H325 H 0.18255 0.6671 0.12797 0.0
H326 H 0.1354 0.58715 0.94295 0.0
H327 H 0.17656 0.60636 0.12882 0.0
H328 H 0.14526 0.48793 0.13044 0.0
H329 H 0.13798 0.54223 0.12837 0.0
H330 H 0.1728 0.56004 0.94158 0.0
H331 H 0.17819 0.50489 0.94296 0.0
C332 C 0.15014 0.6397 0.98273 0.0
C333 C 0.1637 0.66295 0.0344 0.0
C334 C 0.14587 0.60435 0.98358 0.0
C335 C 0.15561 0.59171 0.03586 0.0
C336 C 0.16817 0.61474 0.08803 0.0
C337 C 0.17191 0.64979 0.08743 0.0
C338 C 0.15086 0.50323 0.08876 0.0
C339 C 0.16256 0.49233 0.03703 0.0
C340 C 0.14692 0.53451 0.08762 0.0
C341 C 0.1552 0.5559 0.03502 0.0
C342 C 0.16565 0.5441 0.98268 0.0
C343 C 0.16903 0.51254 0.98356 0.0
H344 H 0.50088 0.18727 0.95411 0.0
H345 H 0.47952 0.14933 0.13888 0.0
H346 H 0.55592 0.18157 0.95474 0.0
H347 H 0.53374 0.14188 0.13873 0.0
H348 H 0.65886 0.18606 0.14475 0.0
H349 H 0.59816 0.18036 0.14334 0.0
H350 H 0.58215 0.14325 0.95554 0.0
H351 H 0.64383 0.15069 0.95634 0.0
C352 C 0.50755 0.17697 0.99448 0.0
C353 C 0.48612 0.16914 0.04667 0.0
C354 C 0.53904 0.17343 0.99474 0.0
C355 C 0.54955 0.16147 0.04695 0.0
C356 C 0.52699 0.15194 0.09817 0.0
C357 C 0.49577 0.15598 0.09818 0.0
C358 C 0.64224 0.17633 0.10332 0.0
C359 C 0.65627 0.1692 0.05047 0.0
C360 C 0.60723 0.17278 0.10259 0.0
C361 C 0.58518 0.16152 0.04919 0.0
C362 C 0.59863 0.15274 0.9971 0.0
C363 C 0.6339 0.15678 0.99762 0.0
H364 H 0.48094 0.65175 0.12405 0.0
H365 H 0.45398 0.66338 0.93842 0.0
H366 H 0.42658 0.59039 0.12626 0.0
H367 H 0.39884 0.60297 0.94135 0.0
H368 H 0.31109 0.48438 0.94773 0.0
H369 H 0.37262 0.53849 0.94489 0.0
H370 H 0.36228 0.56497 0.13143 0.0
H371 H 0.30172 0.51011 0.13493 0.0
C372 C 0.46343 0.64113 0.08367 0.0
C373 C 0.47157 0.66247 0.03122 0.0
C374 C 0.43213 0.60605 0.08501 0.0
C375 C 0.40799 0.59176 0.03421 0.0
C376 C 0.41695 0.61272 0.98109 0.0
C377 C 0.4485 0.64756 0.9795 0.0
C378 C 0.32223 0.50156 0.98831 0.0
C379 C 0.30149 0.49313 0.04143 0.0
C380 C 0.35741 0.53272 0.98661 0.0
C381 C 0.37242 0.5564 0.03775 0.0
C382 C 0.352 0.54719 0.09141 0.0
C383 C 0.31707 0.5158 0.09334 0.0
H384 H 0.81439 0.48585 0.14061 0.0
H385 H 0.77604 0.46091 0.95368 0.0
H386 H 0.82181 0.43161 0.14219 0.0
H387 H 0.78151 0.40587 0.95597 0.0
H388 H 0.8119 0.31814 0.95969 0.0
H389 H 0.81934 0.37973 0.95891 0.0
H390 H 0.78484 0.36746 0.14577 0.0
H391 H 0.77945 0.30688 0.14722 0.0
C392 C 0.80761 0.46878 0.09985 0.0
C393 C 0.79448 0.47752 0.04713 0.0
C394 C 0.81162 0.43754 0.10081 0.0
C395 C 0.802 0.41402 0.04938 0.0
C396 C 0.78983 0.4235 0.99618 0.0
C397 C 0.78641 0.45502 0.99494 0.0
C398 C 0.80641 0.3289 1.00077 0.0
C399 C 0.79486 0.30765 0.05337 0.0
C400 C 0.81042 0.36412 1.00028 0.0
C401 C 0.80226 0.37857 0.05203 0.0
C402 C 0.7919 0.35764 0.10527 0.0
C403 C 0.78855 0.32271 0.10605 0.0
H404 H 0.31501 0.82118 0.12484 0.0
H405 H 0.29853 0.78296 0.93786 0.0
H406 H 0.37669 0.82857 0.12526 0.0
H407 H 0.35917 0.78859 0.93898 0.0
H408 H 0.4777 0.81937 0.94173 0.0
H409 H 0.42353 0.82694 0.94173 0.0
H410 H 0.40304 0.79039 0.12757 0.0
H411 H 0.45801 0.7846 0.12828 0.0
C412 C 0.32461 0.81445 0.08381 0.0
C413 C 0.30184 0.80127 0.03147 0.0
C414 C 0.35988 0.81846 0.08411 0.0
C415 C 0.37293 0.80888 0.03233 0.0
C416 C 0.35045 0.79681 0.97944 0.0
C417 C 0.31545 0.79329 0.97891 0.0
C418 C 0.46183 0.81343 0.98277 0.0
C419 C 0.47194 0.80114 0.03484 0.0
C420 C 0.43064 0.81755 0.98271 0.0
C421 C 0.40857 0.80893 0.03444 0.0
C422 C 0.41954 0.79782 0.08714 0.0
C423 C 0.45099 0.79422 0.08745 0.0
H424 H 0.64716 0.48503 0.14007 0.0
H425 H 0.6556 0.46263 0.95076 0.0
H426 H 0.58573 0.43077 0.14215 0.0
H427 H 0.59513 0.40751 0.95337 0.0
H428 H 0.4767 0.31967 0.96121 0.0
H429 H 0.53088 0.38119 0.96 0.0
H430 H 0.55988 0.36646 0.14287 0.0
H431 H 0.5049 0.30592 0.1449 0.0
C432 C 0.63582 0.46853 0.09886 0.0
C433 C 0.65627 0.47793 0.04536 0.0
C434 C 0.6007 0.43727 0.10011 0.0
C435 C 0.58548 0.4144 0.04812 0.0
C436 C 0.60558 0.42463 0.99409 0.0
C437 C 0.64045 0.45617 0.99263 0.0
C438 C 0.49445 0.32985 1.00137 0.0
C439 C 0.48668 0.30789 0.053 0.0
C440 C 0.52566 0.36503 1.00059 0.0
C441 C 0.55008 0.37881 0.05111 0.0
C442 C 0.54153 0.35715 0.1034 0.0
C443 C 0.51007 0.32223 0.10447 0.0
H444 H 0.18972 0.35432 0.69428 0.0
H445 H 0.1879 0.4565 0.70032 0.0
H446 H 0.18969 0.3554 0.58352 0.0
H447 H 0.18992 0.45899 0.5898 0.0
H448 H 0.15819 0.43674 0.39088 0.0
H449 H 0.15591 0.43345 0.5007 0.0
H450 H 0.22521 0.38382 0.49947 0.0
H451 H 0.22461 0.38394 0.38935 0.0
C452 C 0.18972 0.37722 0.67167 0.0
C453 C 0.18869 0.40525 0.70558 0.0
C454 C 0.18995 0.37805 0.6082 0.0
C455 C 0.18987 0.40734 0.57723 0.0
C456 C 0.1892 0.43556 0.61164 0.0
C457 C 0.18826 0.43433 0.67504 0.0
C458 C 0.17241 0.42448 0.41378 0.0
C459 C 0.19147 0.41048 0.38068 0.0
C460 C 0.17165 0.42319 0.47718 0.0
C461 C 0.19047 0.40847 0.50949 0.0
C462 C 0.20987 0.39484 0.47643 0.0
C463 C 0.2101 0.39555 0.41297 0.0
H464 H 0.70774 0.16249 0.69884 0.0
H465 H 0.82686 0.22865 0.70537 0.0
H466 H 0.70871 0.1611 0.58875 0.0
H467 H 0.82755 0.23006 0.59532 0.0
H468 H 0.82126 0.19628 0.39716 0.0
H469 H 0.82023 0.19515 0.50789 0.0
H470 H 0.71736 0.19646 0.50313 0.0
H471 H 0.71776 0.19564 0.39243 0.0
C472 C 0.73419 0.17681 0.67698 0.0
C473 C 0.76722 0.19561 0.7115 0.0
C474 C 0.7347 0.17656 0.61352 0.0
C475 C 0.7682 0.19561 0.58266 0.0
C476 C 0.80122 0.2146 0.61718 0.0
C477 C 0.80076 0.21434 0.68063 0.0
C478 C 0.79851 0.19634 0.42007 0.0
C479 C 0.76956 0.19595 0.38648 0.0
C480 C 0.79795 0.19591 0.48355 0.0
C481 C 0.76871 0.19575 0.5149 0.0
C482 C 0.73994 0.19577 0.48087 0.0
C483 C 0.74022 0.19554 0.4174 0.0
H484 H 0.5294 0.80678 0.68419 0.0
H485 H 0.58208 0.74026 0.68592 0.0
H486 H 0.53184 0.80848 0.57424 0.0
H487 H 0.58143 0.73915 0.57577 0.0
H488 H 0.60942 0.77376 0.38014 0.0
H489 H 0.60925 0.7744 0.49093 0.0
H490 H 0.50533 0.77363 0.48599 0.0
H491 H 0.50685 0.77496 0.37537 0.0
C492 C 0.54148 0.79244 0.6613 0.0
C493 C 0.55565 0.77349 0.69447 0.0
C494 C 0.54228 0.79287 0.59786 0.0
C495 C 0.5567 0.77383 0.56562 0.0
C496 C 0.57059 0.75462 0.59876 0.0
C497 C 0.57035 0.7547 0.66224 0.0
C498 C 0.58663 0.77374 0.40303 0.0
C499 C 0.55822 0.77442 0.36945 0.0
C500 C 0.58633 0.77387 0.46653 0.0
C501 C 0.55723 0.77401 0.49786 0.0
C502 C 0.52862 0.77431 0.46381 0.0
C503 C 0.5293 0.77485 0.40037 0.0
H504 H 0.7676 0.61393 0.70335 0.0
H505 H 0.76769 0.51086 0.69953 0.0
H506 H 0.76947 0.61562 0.59273 0.0
H507 H 0.76751 0.51117 0.58878 0.0
H508 H 0.80219 0.53772 0.39433 0.0
H509 H 0.80318 0.53868 0.50446 0.0
H510 H 0.73507 0.58964 0.50394 0.0
H511 H 0.73697 0.59181 0.39399 0.0
C512 C 0.76757 0.59141 0.67854 0.0
C513 C 0.76756 0.5623 0.7097 0.0
C514 C 0.76842 0.59219 0.61511 0.0
C515 C 0.76857 0.56348 0.58134 0.0
C516 C 0.7682 0.53417 0.61295 0.0
C517 C 0.76806 0.53379 0.67642 0.0
C518 C 0.78801 0.54983 0.41755 0.0
C519 C 0.76959 0.56478 0.38474 0.0
C520 C 0.78801 0.54977 0.48103 0.0
C521 C 0.76905 0.56407 0.51359 0.0
C522 C 0.75046 0.57885 0.48078 0.0
C523 C 0.751 0.57949 0.41733 0.0
H524 H 0.25006 0.80992 0.38253 0.0
H525 H 0.13095 0.74358 0.376 0.0
H526 H 0.24914 0.81037 0.49268 0.0
H527 H 0.13032 0.74123 0.48595 0.0
H528 H 0.13661 0.77265 0.68526 0.0
H529 H 0.13759 0.77503 0.57462 0.0
H530 H 0.24065 0.77408 0.57704 0.0
H531 H 0.2403 0.77366 0.68775 0.0
C532 C 0.22363 0.79539 0.40439 0.0
C533 C 0.19059 0.77674 0.36986 0.0
C534 C 0.22315 0.79509 0.46787 0.0
C535 C 0.18967 0.77565 0.49869 0.0
C536 C 0.15664 0.75695 0.46415 0.0
C537 C 0.15707 0.75776 0.40072 0.0
C538 C 0.15937 0.7729 0.66186 0.0
C539 C 0.1884 0.77304 0.69482 0.0
C540 C 0.15991 0.77407 0.59841 0.0
C541 C 0.1892 0.77473 0.56643 0.0
C542 C 0.21802 0.77441 0.59982 0.0
C543 C 0.21777 0.77391 0.66328 0.0
H544 H 0.34876 0.19752 0.70246 0.0
H545 H 0.45115 0.19595 0.70745 0.0
H546 H 0.34873 0.19633 0.59166 0.0
H547 H 0.45244 0.19669 0.59681 0.0
H548 H 0.42796 0.16249 0.39908 0.0
H549 H 0.42555 0.16126 0.50909 0.0
H550 H 0.37651 0.23106 0.50629 0.0
H551 H 0.37586 0.22954 0.39615 0.0
C552 C 0.37149 0.19737 0.67962 0.0
C553 C 0.39989 0.19672 0.71328 0.0
C554 C 0.37165 0.19689 0.61611 0.0
C555 C 0.40061 0.19644 0.58483 0.0
C556 C 0.42925 0.19623 0.61896 0.0
C557 C 0.4287 0.19604 0.68241 0.0
C558 C 0.41601 0.17704 0.42171 0.0
C559 C 0.40205 0.19606 0.38822 0.0
C560 C 0.41522 0.17687 0.48516 0.0
C561 C 0.401 0.19621 0.51706 0.0
C562 C 0.38722 0.21539 0.48358 0.0
C563 C 0.38746 0.21506 0.42011 0.0
loop_
_geom_bond_atom_site_label_1
_geom_bond_atom_site_label_2
_geom_bond_distance
_geom_bond_site_symmetry_2
_ccdc_geom_bond_type
C0 O16 1.251 . S
C0 O18 1.254 1_554 S
N1 C2 1.333 . S
N1 C6 1.307 . S
N1 Zn7 2.020 . S
C2 N1 1.333 . S
C2 C3 1.379 . S
C2 H20 0.952 . S
C3 C2 1.379 . S
C3 C4 1.390 . S
C3 H30 0.949 . S
C4 C3 1.390 . S
C4 C5 1.357 . S
C5 C4 1.357 . S
C5 C6 1.370 . S
C5 H31 0.950 . S
C6 N1 1.307 . S
C6 C5 1.370 . S
C6 H24 0.948 . S
Zn7 N1 2.020 . S
Zn7 O16 2.039 . S
Zn7 O22 2.034 . S
Zn7 O26 2.025 . S
Zn7 O28 2.024 . S
C8 O27 1.246 1_554 S
C8 O28 1.249 . S
N9 C10 1.307 . S
N9 C11 1.333 . S
N9 Zn15 2.020 . S
C10 N9 1.307 . S
C10 C14 1.370 . S
C10 H21 0.948 . S
C11 N9 1.333 . S
C11 C12 1.379 . S
C11 H19 0.952 . S
C12 C11 1.379 . S
C12 C13 1.390 . S
C12 H32 0.949 . S
C13 C12 1.390 . S
C13 C14 1.357 . S
C14 C10 1.370 . S
C14 C13 1.357 . S
C14 H33 0.950 . S
Zn15 N9 2.020 . S
Zn15 O18 2.025 . S
Zn15 O23 2.024 . S
Zn15 O25 2.039 . S
Zn15 O27 2.034 . S
O16 C0 1.251 . S
O16 Zn7 2.039 . S
C17 O22 1.246 . S
C17 O23 1.249 1_554 S
O18 C0 1.254 1_556 S
O18 Zn15 2.025 . S
H19 C11 0.952 . S
H20 C2 0.952 . S
H21 C10 0.948 . S
O22 Zn7 2.034 . S
O22 C17 1.246 . S
O23 Zn15 2.024 . S
O23 C17 1.249 1_556 S
H24 C6 0.948 . S
O25 Zn15 2.039 . S
O25 C29 1.251 1_556 S
O26 Zn7 2.025 . S
O26 C29 1.254 . S
O27 C8 1.246 1_556 S
O27 Zn15 2.034 . S
O28 Zn7 2.024 . S
O28 C8 1.249 . S
C29 O25 1.251 1_554 S
C29 O26 1.254 . S
H30 C3 0.949 . S
H31 C5 0.950 . S
H32 C12 0.949 . S
H33 C14 0.950 . S
C34 O50 1.251 1_554 S
C34 O52 1.254 . S
N35 C36 1.333 . S
N35 C40 1.307 . S
N35 Zn41 2.020 . S
C36 N35 1.333 . S
C36 C37 1.379 . S
C36 H54 0.952 . S
C37 C36 1.379 . S
C37 C38 1.390 . S
C37 H64 0.949 . S
C38 C37 1.390 . S
C38 C39 1.357 . S
C39 C38 1.357 . S
C39 C40 1.370 . S
C39 H65 0.950 . S
C40 N35 1.307 . S
C40 C39 1.370 . S
C40 H58 0.948 . S
Zn41 N35 2.020 . S
Zn41 O50 2.039 . S
Zn41 O56 2.034 . S
Zn41 O60 2.025 . S
Zn41 O62 2.024 . S
C42 O61 1.246 . S
C42 O62 1.249 1_554 S
N43 C44 1.307 . S
N43 C45 1.333 . S
N43 Zn49 2.020 . S
C44 N43 1.307 . S
C44 C48 1.370 . S
C44 H55 0.948 . S
C45 N43 1.333 . S
C45 C46 1.379 . S
C45 H53 0.952 . S
C46 C45 1.379 . S
C46 C47 1.390 . S
C46 H66 0.949 . S
C47 C46 1.390 . S
C47 C48 1.357 . S
C48 C44 1.370 . S
C48 C47 1.357 . S
C48 H67 0.950 . S
Zn49 N43 2.020 . S
Zn49 O52 2.025 . S
Zn49 O57 2.024 . S
Zn49 O59 2.039 . S
Zn49 O61 2.034 . S
O50 C34 1.251 1_556 S
O50 Zn41 2.039 . S
C51 O56 1.246 1_554 S
C51 O57 1.249 . S
O52 C34 1.254 . S
O52 Zn49 2.025 . S
H53 C45 0.952 . S
H54 C36 0.952 . S
H55 C44 0.948 . S
O56 Zn41 2.034 . S
O56 C51 1.246 1_556 S
O57 Zn49 2.024 . S
O57 C51 1.249 . S
H58 C40 0.948 . S
O59 Zn49 2.039 . S
O59 C63 1.251 . S
O60 Zn41 2.025 . S
O60 C63 1.254 1_556 S
O61 C42 1.246 . S
O61 Zn49 2.034 . S
O62 Zn41 2.024 . S
O62 C42 1.249 1_556 S
C63 O59 1.251 . S
C63 O60 1.254 1_554 S
H64 C37 0.949 . S
H65 C39 0.950 . S
H66 C46 0.949 . S
H67 C48 0.950 . S
C68 O84 1.251 . S
C68 O86 1.254 1_554 S
N69 C70 1.333 . S
N69 C74 1.307 . S
N69 Zn75 2.020 . S
C70 N69 1.333 . S
C70 C71 1.379 . S
C70 H88 0.952 . S
C71 C70 1.379 . S
C71 C72 1.390 . S
C71 H98 0.949 . S
C72 C71 1.390 . S
C72 C73 1.357 . S
C73 C72 1.357 . S
C73 C74 1.370 . S
C73 H99 0.950 . S
C74 N69 1.307 . S
C74 C73 1.370 . S
C74 H92 0.948 . S
Zn75 N69 2.020 . S
Zn75 O84 2.039 . S
Zn75 O90 2.034 . S
Zn75 O94 2.025 . S
Zn75 O96 2.024 . S
C76 O95 1.246 1_554 S
C76 O96 1.249 . S
N77 C78 1.307 . S
N77 C79 1.333 . S
N77 Zn83 2.020 . S
C78 N77 1.307 . S
C78 C82 1.370 . S
C78 H89 0.948 . S
C79 N77 1.333 . S
C79 C80 1.379 . S
C79 H87 0.952 . S
C80 C79 1.379 . S
C80 C81 1.390 . S
C80 H100 0.949 . S
C81 C80 1.390 . S
C81 C82 1.357 . S
C82 C78 1.370 . S
C82 C81 1.357 . S
C82 H101 0.950 . S
Zn83 N77 2.020 . S
Zn83 O86 2.025 . S
Zn83 O91 2.024 . S
Zn83 O93 2.039 . S
Zn83 O95 2.034 . S
O84 C68 1.251 . S
O84 Zn75 2.039 . S
C85 O90 1.246 . S
C85 O91 1.249 1_554 S
O86 C68 1.254 1_556 S
O86 Zn83 2.025 . S
H87 C79 0.952 . S
H88 C70 0.952 . S
H89 C78 0.948 . S
O90 Zn75 2.034 . S
O90 C85 1.246 . S
O91 Zn83 2.024 . S
O91 C85 1.249 1_556 S
H92 C74 0.948 . S
O93 Zn83 2.039 . S
O93 C97 1.251 1_556 S
O94 Zn75 2.025 . S
O94 C97 1.254 . S
O95 C76 1.246 1_556 S
O95 Zn83 2.034 . S
O96 Zn75 2.024 . S
O96 C76 1.249 . S
C97 O93 1.251 1_554 S
C97 O94 1.254 . S
H98 C71 0.949 . S
H99 C73 0.950 . S
H100 C80 0.949 . S
H101 C82 0.950 . S
C102 O118 1.251 1_554 S
C102 O120 1.254 . S
N103 C104 1.333 . S
N103 C108 1.307 . S
N103 Zn109 2.020 . S
C104 N103 1.333 . S
C104 C105 1.379 . S
C104 H122 0.952 . S
C105 C104 1.379 . S
C105 C106 1.390 . S
C105 H132 0.949 . S
C106 C105 1.390 . S
C106 C107 1.357 . S
C107 C106 1.357 . S
C107 C108 1.370 . S
C107 H133 0.950 . S
C108 N103 1.307 . S
C108 C107 1.370 . S
C108 H126 0.948 . S
Zn109 N103 2.020 . S
Zn109 O118 2.039 . S
Zn109 O124 2.034 . S
Zn109 O128 2.025 . S
Zn109 O130 2.024 . S
C110 O129 1.246 . S
C110 O130 1.249 1_554 S
N111 C112 1.307 . S
N111 C113 1.333 . S
N111 Zn117 2.020 . S
C112 N111 1.307 . S
C112 C116 1.370 . S
C112 H123 0.948 . S
C113 N111 1.333 . S
C113 C114 1.379 . S
C113 H121 0.952 . S
C114 C113 1.379 . S
C114 C115 1.390 . S
C114 H134 0.949 . S
C115 C114 1.390 . S
C115 C116 1.357 . S
C116 C112 1.370 . S
C116 C115 1.357 . S
C116 H135 0.950 . S
Zn117 N111 2.020 . S
Zn117 O120 2.025 . S
Zn117 O125 2.024 . S
Zn117 O127 2.039 . S
Zn117 O129 2.034 . S
O118 C102 1.251 1_556 S
O118 Zn109 2.039 . S
C119 O124 1.246 1_554 S
C119 O125 1.249 . S
O120 C102 1.254 . S
O120 Zn117 2.025 . S
H121 C113 0.952 . S
H122 C104 0.952 . S
H123 C112 0.948 . S
O124 Zn109 2.034 . S
O124 C119 1.246 1_556 S
O125 Zn117 2.024 . S
O125 C119 1.249 . S
H126 C108 0.948 . S
O127 Zn117 2.039 . S
O127 C131 1.251 . S
O128 Zn109 2.025 . S
O128 C131 1.254 1_556 S
O129 C110 1.246 . S
O129 Zn117 2.034 . S
O130 Zn109 2.024 . S
O130 C110 1.249 1_556 S
C131 O127 1.251 . S
C131 O128 1.254 1_554 S
H132 C105 0.949 . S
H133 C107 0.950 . S
H134 C114 0.949 . S
H135 C116 0.950 . S
C136 O152 1.251 1_554 S
C136 O154 1.254 . S
N137 C138 1.333 . S
N137 C142 1.307 . S
N137 Zn143 2.020 . S
C138 N137 1.333 . S
C138 C139 1.379 . S
C138 H156 0.952 . S
C139 C138 1.379 . S
C139 C140 1.390 . S
C139 H166 0.949 . S
C140 C139 1.390 . S
C140 C141 1.357 . S
C141 C140 1.357 . S
C141 C142 1.370 . S
C141 H167 0.950 . S
C142 N137 1.307 . S
C142 C141 1.370 . S
C142 H160 0.948 . S
Zn143 N137 2.020 . S
Zn143 O152 2.039 . S
Zn143 O158 2.034 . S
Zn143 O162 2.025 . S
Zn143 O164 2.024 . S
C144 O163 1.246 . S
C144 O164 1.249 1_554 S
N145 C146 1.307 . S
N145 C147 1.333 . S
N145 Zn151 2.020 . S
C146 N145 1.307 . S
C146 C150 1.370 . S
C146 H157 0.948 . S
C147 N145 1.333 . S
C147 C148 1.379 . S
C147 H155 0.952 . S
C148 C147 1.379 . S
C148 C149 1.390 . S
C148 H168 0.949 . S
C149 C148 1.390 . S
C149 C150 1.357 . S
C150 C146 1.370 . S
C150 C149 1.357 . S
C150 H169 0.950 . S
Zn151 N145 2.020 . S
Zn151 O154 2.025 . S
Zn151 O159 2.024 . S
Zn151 O161 2.039 . S
Zn151 O163 2.034 . S
O152 C136 1.251 1_556 S
O152 Zn143 2.039 . S
C153 O158 1.246 1_554 S
C153 O159 1.249 . S
O154 C136 1.254 . S
O154 Zn151 2.025 . S
H155 C147 0.952 . S
H156 C138 0.952 . S
H157 C146 0.948 . S
O158 Zn143 2.034 . S
O158 C153 1.246 1_556 S
O159 Zn151 2.024 . S
O159 C153 1.249 . S
H160 C142 0.948 . S
O161 Zn151 2.039 . S
O161 C165 1.251 . S
O162 Zn143 2.025 . S
O162 C165 1.254 1_556 S
O163 C144 1.246 . S
O163 Zn151 2.034 . S
O164 Zn143 2.024 . S
O164 C144 1.249 1_556 S
C165 O161 1.251 . S
C165 O162 1.254 1_554 S
H166 C139 0.949 . S
H167 C141 0.950 . S
H168 C148 0.949 . S
H169 C150 0.950 . S
C170 O186 1.251 . S
C170 O188 1.254 1_554 S
N171 C172 1.333 . S
N171 C176 1.307 . S
N171 Zn177 2.020 . S
C172 N171 1.333 . S
C172 C173 1.379 . S
C172 H190 0.952 . S
C173 C172 1.379 . S
C173 C174 1.390 . S
C173 H200 0.949 . S
C174 C173 1.390 . S
C174 C175 1.357 . S
C175 C174 1.357 . S
C175 C176 1.370 . S
C175 H201 0.950 . S
C176 N171 1.307 . S
C176 C175 1.370 . S
C176 H194 0.948 . S
Zn177 N171 2.020 . S
Zn177 O186 2.039 . S
Zn177 O192 2.034 . S
Zn177 O196 2.025 . S
Zn177 O198 2.024 . S
C178 O197 1.246 1_554 S
C178 O198 1.249 . S
N179 C180 1.307 . S
N179 C181 1.333 . S
N179 Zn185 2.020 . S
C180 N179 1.307 . S
C180 C184 1.370 . S
C180 H191 0.948 . S
C181 N179 1.333 . S
C181 C182 1.379 . S
C181 H189 0.952 . S
C182 C181 1.379 . S
C182 C183 1.390 . S
C182 H202 0.949 . S
C183 C182 1.390 . S
C183 C184 1.357 . S
C184 C180 1.370 . S
C184 C183 1.357 . S
C184 H203 0.950 . S
Zn185 N179 2.020 . S
Zn185 O188 2.025 . S
Zn185 O193 2.024 . S
Zn185 O195 2.039 . S
Zn185 O197 2.034 . S
O186 C170 1.251 . S
O186 Zn177 2.039 . S
C187 O192 1.246 . S
C187 O193 1.249 1_554 S
O188 C170 1.254 1_556 S
O188 Zn185 2.025 . S
H189 C181 0.952 . S
H190 C172 0.952 . S
H191 C180 0.948 . S
O192 Zn177 2.034 . S
O192 C187 1.246 . S
O193 Zn185 2.024 . S
O193 C187 1.249 1_556 S
H194 C176 0.948 . S
O195 Zn185 2.039 . S
O195 C199 1.251 1_556 S
O196 Zn177 2.025 . S
O196 C199 1.254 . S
O197 C178 1.246 1_556 S
O197 Zn185 2.034 . S
O198 Zn177 2.024 . S
O198 C178 1.249 . S
C199 O195 1.251 1_554 S
C199 O196 1.254 . S
H200 C173 0.949 . S
H201 C175 0.950 . S
H202 C182 0.949 . S
H203 C184 0.950 . S
H204 C212 0.950 . S
H205 C217 0.950 . S
H206 C214 0.950 . S
H207 C216 0.950 . S
H208 C218 0.950 . S
H209 C220 0.950 . S
H210 C222 0.950 . S
H211 C223 0.950 . S
C212 H204 0.950 . S
C212 C213 1.386 . S
C212 C214 1.391 . S
C213 C212 1.386 . S
C213 C217 1.393 1_554 S
C214 H206 0.950 . S
C214 C212 1.391 . S
C214 C215 1.400 . S
C215 C214 1.400 . S
C215 C216 1.398 1_554 S
C215 C221 1.491 . S
C216 H207 0.950 . S
C216 C215 1.398 1_556 S
C216 C217 1.391 . S
C217 H205 0.950 . S
C217 C213 1.393 1_556 S
C217 C216 1.391 . S
C218 H208 0.950 . S
C218 C219 1.386 1_556 S
C218 C220 1.391 . S
C219 C218 1.386 1_554 S
C219 C223 1.393 . S
C220 H209 0.950 . S
C220 C218 1.391 . S
C220 C221 1.400 1_556 S
C221 C215 1.491 . S
C221 C220 1.400 1_554 S
C221 C222 1.398 . S
C222 H210 0.950 . S
C222 C221 1.398 . S
C222 C223 1.391 . S
C223 H211 0.950 . S
C223 C219 1.393 . S
C223 C222 1.391 . S
H224 C232 0.950 . S
H225 C237 0.950 1_556 S
H226 C234 0.950 . S
H227 C236 0.950 1_556 S
H228 C238 0.950 1_556 S
H229 C240 0.950 1_556 S
H230 C242 0.950 . S
H231 C243 0.950 . S
C232 H224 0.950 . S
C232 C233 1.386 . S
C232 C234 1.391 . S
C233 C232 1.386 . S
C233 C237 1.393 . S
C234 H226 0.950 . S
C234 C232 1.391 . S
C234 C235 1.400 . S
C235 C234 1.400 . S
C235 C236 1.398 . S
C235 C241 1.491 1_455 S
C236 H227 0.950 1_554 S
C236 C235 1.398 . S
C236 C237 1.391 . S
C237 H225 0.950 1_554 S
C237 C233 1.393 . S
C237 C236 1.391 . S
C238 H228 0.950 1_554 S
C238 C239 1.386 . S
C238 C240 1.391 . S
C239 C238 1.386 . S
C239 C243 1.393 . S
C240 H229 0.950 1_554 S
C240 C238 1.391 . S
C240 C241 1.400 . S
C241 C235 1.491 1_655 S
C241 C240 1.400 . S
C241 C242 1.398 . S
C242 H230 0.950 . S
C242 C241 1.398 . S
C242 C243 1.391 . S
C243 H231 0.950 . S
C243 C239 1.393 . S
C243 C242 1.391 . S
H244 C252 0.950 . S
H245 C257 0.950 . S
H246 C254 0.950 . S
H247 C256 0.950 . S
H248 C258 0.950 . S
H249 C260 0.950 . S
H250 C262 0.950 . S
H251 C263 0.950 . S
C252 H244 0.950 . S
C252 C253 1.386 1_556 S
C252 C254 1.391 . S
C253 C252 1.386 1_554 S
C253 C257 1.393 . S
C254 H246 0.950 . S
C254 C252 1.391 . S
C254 C255 1.400 1_556 S
C255 C254 1.400 1_554 S
C255 C256 1.398 . S
C255 C261 1.491 1_545 S
C256 H247 0.950 . S
C256 C255 1.398 . S
C256 C257 1.391 . S
C257 H245 0.950 . S
C257 C253 1.393 . S
C257 C256 1.391 . S
C258 H248 0.950 . S
C258 C259 1.386 . S
C258 C260 1.391 . S
C259 C258 1.386 . S
C259 C263 1.393 1_554 S
C260 H249 0.950 . S
C260 C258 1.391 . S
C260 C261 1.400 . S
C261 C255 1.491 1_565 S
C261 C260 1.400 . S
C261 C262 1.398 1_554 S
C262 H250 0.950 . S
C262 C261 1.398 1_556 S
C262 C263 1.391 . S
C263 H251 0.950 . S
C263 C259 1.393 1_556 S
C263 C262 1.391 . S
H264 C272 0.950 . S
H265 C277 0.950 . S
H266 C274 0.950 . S
H267 C276 0.950 . S
H268 C278 0.950 . S
H269 C280 0.950 . S
H270 C282 0.950 . S
H271 C283 0.950 . S
C272 H264 0.950 . S
C272 C273 1.386 . S
C272 C274 1.391 . S
C273 C272 1.386 . S
C273 C277 1.393 . S
C274 H266 0.950 . S
C274 C272 1.391 . S
C274 C275 1.400 . S
C275 C274 1.400 . S
C275 C276 1.398 . S
C275 C281 1.491 . S
C276 H267 0.950 . S
C276 C275 1.398 . S
C276 C277 1.391 . S
C277 H265 0.950 . S
C277 C273 1.393 . S
C277 C276 1.391 . S
C278 H268 0.950 . S
C278 C279 1.386 . S
C278 C280 1.391 . S
C279 C278 1.386 . S
C279 C283 1.393 . S
C280 H269 0.950 . S
C280 C278 1.391 . S
C280 C281 1.400 . S
C281 C275 1.491 . S
C281 C280 1.400 . S
C281 C282 1.398 . S
C282 H270 0.950 . S
C282 C281 1.398 . S
C282 C283 1.391 . S
C283 H271 0.950 . S
C283 C279 1.393 . S
C283 C282 1.391 . S
H284 C292 0.950 . S
H285 C297 0.950 . S
H286 C294 0.950 . S
H287 C296 0.950 . S
H288 C298 0.950 . S
H289 C300 0.950 . S
H290 C302 0.950 . S
H291 C303 0.950 . S
C292 H284 0.950 . S
C292 C293 1.386 . S
C292 C294 1.391 . S
C293 C292 1.386 . S
C293 C297 1.393 1_554 S
C294 H286 0.950 . S
C294 C292 1.391 . S
C294 C295 1.400 . S
C295 C294 1.400 . S
C295 C296 1.398 1_554 S
C295 C301 1.491 1_455 S
C296 H287 0.950 . S
C296 C295 1.398 1_556 S
C296 C297 1.391 . S
C297 H285 0.950 . S
C297 C293 1.393 1_556 S
C297 C296 1.391 . S
C298 H288 0.950 . S
C298 C299 1.386 1_556 S
C298 C300 1.391 . S
C299 C298 1.386 1_554 S
C299 C303 1.393 . S
C300 H289 0.950 . S
C300 C298 1.391 . S
C300 C301 1.400 1_556 S
C301 C295 1.491 1_655 S
C301 C300 1.400 1_554 S
C301 C302 1.398 . S
C302 H290 0.950 . S
C302 C301 1.398 . S
C302 C303 1.391 . S
C303 H291 0.950 . S
C303 C299 1.393 . S
C303 C302 1.391 . S
H304 C312 0.950 . S
H305 C317 0.950 . S
H306 C314 0.950 . S
H307 C316 0.950 . S
H308 C318 0.950 . S
H309 C320 0.950 . S
H310 C322 0.950 . S
H311 C323 0.950 . S
C312 H304 0.950 . S
C312 C313 1.386 1_556 S
C312 C314 1.391 . S
C313 C312 1.386 1_554 S
C313 C317 1.393 . S
C314 H306 0.950 . S
C314 C312 1.391 . S
C314 C315 1.400 1_556 S
C315 C314 1.400 1_554 S
C315 C316 1.398 . S
C315 C321 1.491 1_565 S
C316 H307 0.950 . S
C316 C315 1.398 . S
C316 C317 1.391 . S
C317 H305 0.950 . S
C317 C313 1.393 . S
C317 C316 1.391 . S
C318 H308 0.950 . S
C318 C319 1.386 . S
C318 C320 1.391 . S
C319 C318 1.386 . S
C319 C323 1.393 1_554 S
C320 H309 0.950 . S
C320 C318 1.391 . S
C320 C321 1.400 . S
C321 C315 1.491 1_545 S
C321 C320 1.400 . S
C321 C322 1.398 1_554 S
C322 H310 0.950 . S
C322 C321 1.398 1_556 S
C322 C323 1.391 . S
C323 H311 0.950 . S
C323 C319 1.393 1_556 S
C323 C322 1.391 . S
H324 C332 0.950 . S
H325 C337 0.950 . S
H326 C334 0.950 . S
H327 C336 0.950 . S
H328 C338 0.950 . S
H329 C340 0.950 . S
H330 C342 0.950 . S
H331 C343 0.950 . S
C332 H324 0.950 . S
C332 C333 1.386 1_556 S
C332 C334 1.391 . S
C333 C332 1.386 1_554 S
C333 C337 1.393 . S
C334 H326 0.950 . S
C334 C332 1.391 . S
C334 C335 1.400 1_556 S
C335 C334 1.400 1_554 S
C335 C336 1.398 . S
C335 C341 1.491 . S
C336 H327 0.950 . S
C336 C335 1.398 . S
C336 C337 1.391 . S
C337 H325 0.950 . S
C337 C333 1.393 . S
C337 C336 1.391 . S
C338 H328 0.950 . S
C338 C339 1.386 . S
C338 C340 1.391 . S
C339 C338 1.386 . S
C339 C343 1.393 1_554 S
C340 H329 0.950 . S
C340 C338 1.391 . S
C340 C341 1.400 . S
C341 C335 1.491 . S
C341 C340 1.400 . S
C341 C342 1.398 1_554 S
C342 H330 0.950 . S
C342 C341 1.398 1_556 S
C342 C343 1.391 . S
C343 H331 0.950 . S
C343 C339 1.393 1_556 S
C343 C342 1.391 . S
H344 C352 0.950 . S
H345 C357 0.950 . S
H346 C354 0.950 . S
H347 C356 0.950 . S
H348 C358 0.950 . S
H349 C360 0.950 . S
H350 C362 0.950 . S
H351 C363 0.950 . S
C352 H344 0.950 . S
C352 C353 1.386 1_556 S
C352 C354 1.391 . S
C353 C352 1.386 1_554 S
C353 C357 1.393 . S
C354 H346 0.950 . S
C354 C352 1.391 . S
C354 C355 1.400 1_556 S
C355 C354 1.400 1_554 S
C355 C356 1.398 . S
C355 C361 1.491 . S
C356 H347 0.950 . S
C356 C355 1.398 . S
C356 C357 1.391 . S
C357 H345 0.950 . S
C357 C353 1.393 . S
C357 C356 1.391 . S
C358 H348 0.950 . S
C358 C359 1.386 . S
C358 C360 1.391 . S
C359 C358 1.386 . S
C359 C363 1.393 1_554 S
C360 H349 0.950 . S
C360 C358 1.391 . S
C360 C361 1.400 . S
C361 C355 1.491 . S
C361 C360 1.400 . S
C361 C362 1.398 1_554 S
C362 H350 0.950 . S
C362 C361 1.398 1_556 S
C362 C363 1.391 . S
C363 H351 0.950 . S
C363 C359 1.393 1_556 S
C363 C362 1.391 . S
H364 C372 0.950 . S
H365 C377 0.950 1_556 S
H366 C374 0.950 . S
H367 C376 0.950 1_556 S
H368 C378 0.950 1_556 S
H369 C380 0.950 1_556 S
H370 C382 0.950 . S
H371 C383 0.950 . S
C372 H364 0.950 . S
C372 C373 1.386 . S
C372 C374 1.391 . S
C373 C372 1.386 . S
C373 C377 1.393 . S
C374 H366 0.950 . S
C374 C372 1.391 . S
C374 C375 1.400 . S
C375 C374 1.400 . S
C375 C376 1.398 . S
C375 C381 1.491 . S
C376 H367 0.950 1_554 S
C376 C375 1.398 . S
C376 C377 1.391 . S
C377 H365 0.950 1_554 S
C377 C373 1.393 . S
C377 C376 1.391 . S
C378 H368 0.950 1_554 S
C378 C379 1.386 . S
C378 C380 1.391 . S
C379 C378 1.386 . S
C379 C383 1.393 . S
C380 H369 0.950 1_554 S
C380 C378 1.391 . S
C380 C381 1.400 . S
C381 C375 1.491 . S
C381 C380 1.400 . S
C381 C382 1.398 . S
C382 H370 0.950 . S
C382 C381 1.398 . S
C382 C383 1.391 . S
C383 H371 0.950 . S
C383 C379 1.393 . S
C383 C382 1.391 . S
H384 C392 0.950 . S
H385 C397 0.950 1_556 S
H386 C394 0.950 . S
H387 C396 0.950 1_556 S
H388 C398 0.950 1_556 S
H389 C400 0.950 1_556 S
H390 C402 0.950 . S
H391 C403 0.950 . S
C392 H384 0.950 . S
C392 C393 1.386 . S
C392 C394 1.391 . S
C393 C392 1.386 . S
C393 C397 1.393 . S
C394 H386 0.950 . S
C394 C392 1.391 . S
C394 C395 1.400 . S
C395 C394 1.400 . S
C395 C396 1.398 . S
C395 C401 1.491 . S
C396 H387 0.950 1_554 S
C396 C395 1.398 . S
C396 C397 1.391 . S
C397 H385 0.950 1_554 S
C397 C393 1.393 . S
C397 C396 1.391 . S
C398 H388 0.950 1_554 S
C398 C399 1.386 . S
C398 C400 1.391 . S
C399 C398 1.386 . S
C399 C403 1.393 . S
C400 H389 0.950 1_554 S
C400 C398 1.391 . S
C400 C401 1.400 . S
C401 C395 1.491 . S
C401 C400 1.400 . S
C401 C402 1.398 . S
C402 H390 0.950 . S
C402 C401 1.398 . S
C402 C403 1.391 . S
C403 H391 0.950 . S
C403 C399 1.393 . S
C403 C402 1.391 . S
H404 C412 0.950 . S
H405 C417 0.950 . S
H406 C414 0.950 . S
H407 C416 0.950 . S
H408 C418 0.950 . S
H409 C420 0.950 . S
H410 C422 0.950 . S
H411 C423 0.950 . S
C412 H404 0.950 . S
C412 C413 1.386 . S
C412 C414 1.391 . S
C413 C412 1.386 . S
C413 C417 1.393 1_554 S
C414 H406 0.950 . S
C414 C412 1.391 . S
C414 C415 1.400 . S
C415 C414 1.400 . S
C415 C416 1.398 1_554 S
C415 C421 1.491 . S
C416 H407 0.950 . S
C416 C415 1.398 1_556 S
C416 C417 1.391 . S
C417 H405 0.950 . S
C417 C413 1.393 1_556 S
C417 C416 1.391 . S
C418 H408 0.950 . S
C418 C419 1.386 1_556 S
C418 C420 1.391 . S
C419 C418 1.386 1_554 S
C419 C423 1.393 . S
C420 H409 0.950 . S
C420 C418 1.391 . S
C420 C421 1.400 1_556 S
C421 C415 1.491 . S
C421 C420 1.400 1_554 S
C421 C422 1.398 . S
C422 H410 0.950 . S
C422 C421 1.398 . S
C422 C423 1.391 . S
C423 H411 0.950 . S
C423 C419 1.393 . S
C423 C422 1.391 . S
H424 C432 0.950 . S
H425 C437 0.950 1_556 S
H426 C434 0.950 . S
H427 C436 0.950 1_556 S
H428 C438 0.950 1_556 S
H429 C440 0.950 1_556 S
H430 C442 0.950 . S
H431 C443 0.950 . S
C432 H424 0.950 . S
C432 C433 1.386 . S
C432 C434 1.391 . S
C433 C432 1.386 . S
C433 C437 1.393 . S
C434 H426 0.950 . S
C434 C432 1.391 . S
C434 C435 1.400 . S
C435 C434 1.400 . S
C435 C436 1.398 . S
C435 C441 1.491 . S
C436 H427 0.950 1_554 S
C436 C435 1.398 . S
C436 C437 1.391 . S
C437 H425 0.950 1_554 S
C437 C433 1.393 . S
C437 C436 1.391 . S
C438 H428 0.950 1_554 S
C438 C439 1.386 . S
C438 C440 1.391 . S
C439 C438 1.386 . S
C439 C443 1.393 . S
C440 H429 0.950 1_554 S
C440 C438 1.391 . S
C440 C441 1.400 . S
C441 C435 1.491 . S
C441 C440 1.400 . S
C441 C442 1.398 . S
C442 H430 0.950 . S
C442 C441 1.398 . S
C442 C443 1.391 . S
C443 H431 0.950 . S
C443 C439 1.393 . S
C443 C442 1.391 . S
H444 C452 0.950 . S
H445 C457 0.950 . S
H446 C454 0.950 . S
H447 C456 0.950 . S
H448 C458 0.950 . S
H449 C460 0.950 . S
H450 C462 0.950 . S
H451 C463 0.950 . S
C452 H444 0.950 . S
C452 C453 1.386 . S
C452 C454 1.391 . S
C453 C452 1.386 . S
C453 C457 1.393 . S
C454 H446 0.950 . S
C454 C452 1.391 . S
C454 C455 1.400 . S
C455 C454 1.400 . S
C455 C456 1.398 . S
C455 C461 1.491 . S
C456 H447 0.950 . S
C456 C455 1.398 . S
C456 C457 1.391 . S
C457 H445 0.950 . S
C457 C453 1.393 . S
C457 C456 1.391 . S
C458 H448 0.950 . S
C458 C459 1.386 . S
C458 C460 1.391 . S
C459 C458 1.386 . S
C459 C463 1.393 . S
C460 H449 0.950 . S
C460 C458 1.391 . S
C460 C461 1.400 . S
C461 C455 1.491 . S
C461 C460 1.400 . S
C461 C462 1.398 . S
C462 H450 0.950 . S
C462 C461 1.398 . S
C462 C463 1.391 . S
C463 H451 0.950 . S
C463 C459 1.393 . S
C463 C462 1.391 . S
H464 C472 0.950 . S
H465 C477 0.950 . S
H466 C474 0.950 . S
H467 C476 0.950 . S
H468 C478 0.950 . S
H469 C480 0.950 . S
H470 C482 0.950 . S
H471 C483 0.950 . S
C472 H464 0.950 . S
C472 C473 1.386 . S
C472 C474 1.391 . S
C473 C472 1.386 . S
C473 C477 1.393 . S
C474 H466 0.950 . S
C474 C472 1.391 . S
C474 C475 1.400 . S
C475 C474 1.400 . S
C475 C476 1.398 . S
C475 C481 1.491 . S
C476 H467 0.950 . S
C476 C475 1.398 . S
C476 C477 1.391 . S
C477 H465 0.950 . S
C477 C473 1.393 . S
C477 C476 1.391 . S
C478 H468 0.950 . S
C478 C479 1.386 . S
C478 C480 1.391 . S
C479 C478 1.386 . S
C479 C483 1.393 . S
C480 H469 0.950 . S
C480 C478 1.391 . S
C480 C481 1.400 . S
C481 C475 1.491 . S
C481 C480 1.400 . S
C481 C482 1.398 . S
C482 H470 0.950 . S
C482 C481 1.398 . S
C482 C483 1.391 . S
C483 H471 0.950 . S
C483 C479 1.393 . S
C483 C482 1.391 . S
H484 C492 0.950 . S
H485 C497 0.950 . S
H486 C494 0.950 . S
H487 C496 0.950 . S
H488 C498 0.950 . S
H489 C500 0.950 . S
H490 C502 0.950 . S
H491 C503 0.950 . S
C492 H484 0.950 . S
C492 C493 1.386 . S
C492 C494 1.391 . S
C493 C492 1.386 . S
C493 C497 1.393 . S
C494 H486 0.950 . S
C494 C492 1.391 . S
C494 C495 1.400 . S
C495 C494 1.400 . S
C495 C496 1.398 . S
C495 C501 1.491 . S
C496 H487 0.950 . S
C496 C495 1.398 . S
C496 C497 1.391 . S
C497 H485 0.950 . S
C497 C493 1.393 . S
C497 C496 1.391 . S
C498 H488 0.950 . S
C498 C499 1.386 . S
C498 C500 1.391 . S
C499 C498 1.386 . S
C499 C503 1.393 . S
C500 H489 0.950 . S
C500 C498 1.391 . S
C500 C501 1.400 . S
C501 C495 1.491 . S
C501 C500 1.400 . S
C501 C502 1.398 . S
C502 H490 0.950 . S
C502 C501 1.398 . S
C502 C503 1.391 . S
C503 H491 0.950 . S
C503 C499 1.393 . S
C503 C502 1.391 . S
H504 C512 0.950 . S
H505 C517 0.950 . S
H506 C514 0.950 . S
H507 C516 0.950 . S
H508 C518 0.950 . S
H509 C520 0.950 . S
H510 C522 0.950 . S
H511 C523 0.950 . S
C512 H504 0.950 . S
C512 C513 1.386 . S
C512 C514 1.391 . S
C513 C512 1.386 . S
C513 C517 1.393 . S
C514 H506 0.950 . S
C514 C512 1.391 . S
C514 C515 1.400 . S
C515 C514 1.400 . S
C515 C516 1.398 . S
C515 C521 1.491 . S
C516 H507 0.950 . S
C516 C515 1.398 . S
C516 C517 1.391 . S
C517 H505 0.950 . S
C517 C513 1.393 . S
C517 C516 1.391 . S
C518 H508 0.950 . S
C518 C519 1.386 . S
C518 C520 1.391 . S
C519 C518 1.386 . S
C519 C523 1.393 . S
C520 H509 0.950 . S
C520 C518 1.391 . S
C520 C521 1.400 . S
C521 C515 1.491 . S
C521 C520 1.400 . S
C521 C522 1.398 . S
C522 H510 0.950 . S
C522 C521 1.398 . S
C522 C523 1.391 . S
C523 H511 0.950 . S
C523 C519 1.393 . S
C523 C522 1.391 . S
H524 C532 0.950 . S
H525 C537 0.950 . S
H526 C534 0.950 . S
H527 C536 0.950 . S
H528 C538 0.950 . S
H529 C540 0.950 . S
H530 C542 0.950 . S
H531 C543 0.950 . S
C532 H524 0.950 . S
C532 C533 1.386 . S
C532 C534 1.391 . S
C533 C532 1.386 . S
C533 C537 1.393 . S
C534 H526 0.950 . S
C534 C532 1.391 . S
C534 C535 1.400 . S
C535 C534 1.400 . S
C535 C536 1.398 . S
C535 C541 1.491 . S
C536 H527 0.950 . S
C536 C535 1.398 . S
C536 C537 1.391 . S
C537 H525 0.950 . S
C537 C533 1.393 . S
C537 C536 1.391 . S
C538 H528 0.950 . S
C538 C539 1.386 . S
C538 C540 1.391 . S
C539 C538 1.386 . S
C539 C543 1.393 . S
C540 H529 0.950 . S
C540 C538 1.391 . S
C540 C541 1.400 . S
C541 C535 1.491 . S
C541 C540 1.400 . S
C541 C542 1.398 . S
C542 H530 0.950 . S
C542 C541 1.398 . S
C542 C543 1.391 . S
C543 H531 0.950 . S
C543 C539 1.393 . S
C543 C542 1.391 . S
H544 C552 0.950 . S
H545 C557 0.950 . S
H546 C554 0.950 . S
H547 C556 0.950 . S
H548 C558 0.950 . S
H549 C560 0.950 . S
H550 C562 0.950 . S
H551 C563 0.950 . S
C552 H544 0.950 . S
C552 C553 1.386 . S
C552 C554 1.391 . S
C553 C552 1.386 . S
C553 C557 1.393 . S
C554 H546 0.950 . S
C554 C552 1.391 . S
C554 C555 1.400 . S
C555 C554 1.400 . S
C555 C556 1.398 . S
C555 C561 1.491 . S
C556 H547 0.950 . S
C556 C555 1.398 . S
C556 C557 1.391 . S
C557 H545 0.950 . S
C557 C553 1.393 . S
C557 C556 1.391 . S
C558 H548 0.950 . S
C558 C559 1.386 . S
C558 C560 1.391 . S
C559 C558 1.386 . S
C559 C563 1.393 . S
C560 H549 0.950 . S
C560 C558 1.391 . S
C560 C561 1.400 . S
C561 C555 1.491 . S
C561 C560 1.400 . S
C561 C562 1.398 . S
C562 H550 0.950 . S
C562 C561 1.398 . S
C562 C563 1.391 . S
C563 H551 0.950 . S
C563 C559 1.393 . S
C563 C562 1.391 . S
C213 C170 1.384 . S
C219 C8 1.388 . S
C233 C0 1.384 . S
C239 C34 1.388 . S
C253 C42 1.383 . S
C259 C76 1.362 . S
C273 C102 1.390 . S
C279 C68 1.389 . S
C293 C165 1.404 . S
C299 C110 1.371 . S
C313 C153 1.390 . S
C319 C178 1.368 . S
C333 C144 1.479 . S
C339 C17 1.484 . S
C353 C199 1.466 . S
C359 C63 1.473 . S
C373 C85 1.473 . S
C379 C29 1.472 . S
C393 C131 1.469 . S
C399 C51 1.479 . S
C413 C136 1.469 . S
C419 C97 1.477 . S
C433 C119 1.482 . S
C439 C187 1.479 . S
C453 C13 1.497 . S
C459 C4 1.497 . S
C473 C38 1.502 . S
C479 C47 1.502 . S
C493 C81 1.501 . S
C499 C72 1.501 . S
C513 C106 1.504 . S
C519 C115 1.504 . S
C533 C149 1.496 . S
C539 C140 1.496 . S
C553 C183 1.504 . S
C559 C174 1.504 . S
