# Generated by pormake.
# Topology wgl, (5)-cn, num edge types: 1
# Building blocks:
#     Node 0, Type 0, BuildingBlock: XOMCOT_clean_sbu_1, # of connection points: 5
#     Node 1, Type 0, BuildingBlock: XOMCOT_clean_sbu_1, # of connection points: 5
#     Node 2, Type 0, BuildingBlock: XOMCOT_clean_sbu_1, # of connection points: 5
#     Node 3, Type 0, BuildingBlock: XOMCOT_clean_sbu_1, # of connection points: 5
#     Node 4, Type 0, BuildingBlock: XOMCOT_clean_sbu_1, # of connection points: 5
#     Node 5, Type 0, BuildingBlock: XOMCOT_clean_sbu_1, # of connection points: 5
#     Node 6, Type 0, BuildingBlock: XOMCOT_clean_sbu_1, # of connection points: 5
#     Node 7, Type 0, BuildingBlock: XOMCOT_clean_sbu_1, # of connection points: 5
#     Node 8, Type 0, BuildingBlock: XOMCOT_clean_sbu_1, # of connection points: 5
#     Node 9, Type 0, BuildingBlock: XOMCOT_clean_sbu_1, # of connection points: 5
#     Node 10, Type 0, BuildingBlock: XOMCOT_clean_sbu_1, # of connection points: 5
#     Node 11, Type 0, BuildingBlock: XOMCOT_clean_sbu_1, # of connection points: 5
#     Node 12, Type 0, BuildingBlock: XOMCOT_clean_sbu_1, # of connection points: 5
#     Node 13, Type 0, BuildingBlock: XOMCOT_clean_sbu_1, # of connection points: 5
#     Node 14, Type 0, BuildingBlock: XOMCOT_clean_sbu_1, # of connection points: 5
#     Node 15, Type 0, BuildingBlock: XOMCOT_clean_sbu_1, # of connection points: 5
#     Node 16, Type 0, BuildingBlock: XOMCOT_clean_sbu_1, # of connection points: 5
#     Node 17, Type 0, BuildingBlock: XOMCOT_clean_sbu_1, # of connection points: 5
#     Node 18, Type 0, BuildingBlock: XOMCOT_clean_sbu_1, # of connection points: 5
#     Node 19, Type 0, BuildingBlock: XOMCOT_clean_sbu_1, # of connection points: 5
#     Node 20, Type 0, BuildingBlock: XOMCOT_clean_sbu_1, # of connection points: 5
#     Node 21, Type 0, BuildingBlock: XOMCOT_clean_sbu_1, # of connection points: 5
#     Node 22, Type 0, BuildingBlock: XOMCOT_clean_sbu_1, # of connection points: 5
#     Node 23, Type 0, BuildingBlock: XOMCOT_clean_sbu_1, # of connection points: 5
#     Node 24, Type 0, BuildingBlock: XOMCOT_clean_sbu_1, # of connection points: 5
#     Node 25, Type 0, BuildingBlock: XOMCOT_clean_sbu_1, # of connection points: 5
#     Node 26, Type 0, BuildingBlock: XOMCOT_clean_sbu_1, # of connection points: 5
#     Node 27, Type 0, BuildingBlock: XOMCOT_clean_sbu_1, # of connection points: 5
#     Node 28, Type 0, BuildingBlock: XOMCOT_clean_sbu_1, # of connection points: 5
#     Node 29, Type 0, BuildingBlock: XOMCOT_clean_sbu_1, # of connection points: 5
#     Node 30, Type 0, BuildingBlock: XOMCOT_clean_sbu_1, # of connection points: 5
#     Node 31, Type 0, BuildingBlock: XOMCOT_clean_sbu_1, # of connection points: 5
#     Edge 32, Type (0, 0), BuildingBlock: XUDNAN_clean_linker_2, # of connection points: 2
#     Edge 33, Type (0, 0), BuildingBlock: XUDNAN_clean_linker_2, # of connection points: 2
#     Edge 34, Type (0, 0), BuildingBlock: XUDNAN_clean_linker_2, # of connection points: 2
#     Edge 35, Type (0, 0), BuildingBlock: XUDNAN_clean_linker_2, # of connection points: 2
#     Edge 36, Type (0, 0), BuildingBlock: XUDNAN_clean_linker_2, # of connection points: 2
#     Edge 37, Type (0, 0), BuildingBlock: XUDNAN_clean_linker_2, # of connection points: 2
#     Edge 38, Type (0, 0), BuildingBlock: XUDNAN_clean_linker_2, # of connection points: 2
#     Edge 39, Type (0, 0), BuildingBlock: XUDNAN_clean_linker_2, # of connection points: 2
#     Edge 40, Type (0, 0), BuildingBlock: XUDNAN_clean_linker_2, # of connection points: 2
#     Edge 41, Type (0, 0), BuildingBlock: XUDNAN_clean_linker_2, # of connection points: 2
#     Edge 42, Type (0, 0), BuildingBlock: XUDNAN_clean_linker_2, # of connection points: 2
#     Edge 43, Type (0, 0), BuildingBlock: XUDNAN_clean_linker_2, # of connection points: 2
#     Edge 44, Type (0, 0), BuildingBlock: XUDNAN_clean_linker_2, # of connection points: 2
#     Edge 45, Type (0, 0), BuildingBlock: XUDNAN_clean_linker_2, # of connection points: 2
#     Edge 46, Type (0, 0), BuildingBlock: XUDNAN_clean_linker_2, # of connection points: 2
#     Edge 47, Type (0, 0), BuildingBlock: XUDNAN_clean_linker_2, # of connection points: 2
#     Edge 48, Type (0, 0), BuildingBlock: XUDNAN_clean_linker_2, # of connection points: 2
#     Edge 49, Type (0, 0), BuildingBlock: XUDNAN_clean_linker_2, # of connection points: 2
#     Edge 50, Type (0, 0), BuildingBlock: XUDNAN_clean_linker_2, # of connection points: 2
#     Edge 51, Type (0, 0), BuildingBlock: XUDNAN_clean_linker_2, # of connection points: 2
#     Edge 52, Type (0, 0), BuildingBlock: XUDNAN_clean_linker_2, # of connection points: 2
#     Edge 53, Type (0, 0), BuildingBlock: XUDNAN_clean_linker_2, # of connection points: 2
#     Edge 54, Type (0, 0), BuildingBlock: XUDNAN_clean_linker_2, # of connection points: 2
#     Edge 55, Type (0, 0), BuildingBlock: XUDNAN_clean_linker_2, # of connection points: 2
#     Edge 56, Type (0, 0), BuildingBlock: XUDNAN_clean_linker_2, # of connection points: 2
#     Edge 57, Type (0, 0), BuildingBlock: XUDNAN_clean_linker_2, # of connection points: 2
#     Edge 58, Type (0, 0), BuildingBlock: XUDNAN_clean_linker_2, # of connection points: 2
#     Edge 59, Type (0, 0), BuildingBlock: XUDNAN_clean_linker_2, # of connection points: 2
#     Edge 60, Type (0, 0), BuildingBlock: XUDNAN_clean_linker_2, # of connection points: 2
#     Edge 61, Type (0, 0), BuildingBlock: XUDNAN_clean_linker_2, # of connection points: 2
#     Edge 62, Type (0, 0), BuildingBlock: XUDNAN_clean_linker_2, # of connection points: 2
#     Edge 63, Type (0, 0), BuildingBlock: XUDNAN_clean_linker_2, # of connection points: 2
#     Edge 64, Type (0, 0), BuildingBlock: XUDNAN_clean_linker_2, # of connection points: 2
#     Edge 65, Type (0, 0), BuildingBlock: XUDNAN_clean_linker_2, # of connection points: 2
#     Edge 66, Type (0, 0), BuildingBlock: XUDNAN_clean_linker_2, # of connection points: 2
#     Edge 67, Type (0, 0), BuildingBlock: XUDNAN_clean_linker_2, # of connection points: 2
#     Edge 68, Type (0, 0), BuildingBlock: XUDNAN_clean_linker_2, # of connection points: 2
#     Edge 69, Type (0, 0), BuildingBlock: XUDNAN_clean_linker_2, # of connection points: 2
#     Edge 70, Type (0, 0), BuildingBlock: XUDNAN_clean_linker_2, # of connection points: 2
#     Edge 71, Type (0, 0), BuildingBlock: XUDNAN_clean_linker_2, # of connection points: 2
#     Edge 72, Type (0, 0), BuildingBlock: XUDNAN_clean_linker_2, # of connection points: 2
#     Edge 73, Type (0, 0), BuildingBlock: XUDNAN_clean_linker_2, # of connection points: 2
#     Edge 74, Type (0, 0), BuildingBlock: XUDNAN_clean_linker_2, # of connection points: 2
#     Edge 75, Type (0, 0), BuildingBlock: XUDNAN_clean_linker_2, # of connection points: 2
#     Edge 76, Type (0, 0), BuildingBlock: XUDNAN_clean_linker_2, # of connection points: 2
#     Edge 77, Type (0, 0), BuildingBlock: XUDNAN_clean_linker_2, # of connection points: 2
#     Edge 78, Type (0, 0), BuildingBlock: XUDNAN_clean_linker_2, # of connection points: 2
#     Edge 79, Type (0, 0), BuildingBlock: XUDNAN_clean_linker_2, # of connection points: 2
#     Edge 80, Type (0, 0), BuildingBlock: XUDNAN_clean_linker_2, # of connection points: 2
#     Edge 81, Type (0, 0), BuildingBlock: XUDNAN_clean_linker_2, # of connection points: 2
#     Edge 82, Type (0, 0), BuildingBlock: XUDNAN_clean_linker_2, # of connection points: 2
#     Edge 83, Type (0, 0), BuildingBlock: XUDNAN_clean_linker_2, # of connection points: 2
#     Edge 84, Type (0, 0), BuildingBlock: XUDNAN_clean_linker_2, # of connection points: 2
#     Edge 85, Type (0, 0), BuildingBlock: XUDNAN_clean_linker_2, # of connection points: 2
#     Edge 86, Type (0, 0), BuildingBlock: XUDNAN_clean_linker_2, # of connection points: 2
#     Edge 87, Type (0, 0), BuildingBlock: XUDNAN_clean_linker_2, # of connection points: 2
#     Edge 88, Type (0, 0), BuildingBlock: XUDNAN_clean_linker_2, # of connection points: 2
#     Edge 89, Type (0, 0), BuildingBlock: XUDNAN_clean_linker_2, # of connection points: 2
#     Edge 90, Type (0, 0), BuildingBlock: XUDNAN_clean_linker_2, # of connection points: 2
#     Edge 91, Type (0, 0), BuildingBlock: XUDNAN_clean_linker_2, # of connection points: 2
#     Edge 92, Type (0, 0), BuildingBlock: XUDNAN_clean_linker_2, # of connection points: 2
#     Edge 93, Type (0, 0), BuildingBlock: XUDNAN_clean_linker_2, # of connection points: 2
#     Edge 94, Type (0, 0), BuildingBlock: XUDNAN_clean_linker_2, # of connection points: 2
#     Edge 95, Type (0, 0), BuildingBlock: XUDNAN_clean_linker_2, # of connection points: 2
#     Edge 96, Type (0, 0), BuildingBlock: XUDNAN_clean_linker_2, # of connection points: 2
#     Edge 97, Type (0, 0), BuildingBlock: XUDNAN_clean_linker_2, # of connection points: 2
#     Edge 98, Type (0, 0), BuildingBlock: XUDNAN_clean_linker_2, # of connection points: 2
#     Edge 99, Type (0, 0), BuildingBlock: XUDNAN_clean_linker_2, # of connection points: 2
#     Edge 100, Type (0, 0), BuildingBlock: XUDNAN_clean_linker_2, # of connection points: 2
#     Edge 101, Type (0, 0), BuildingBlock: XUDNAN_clean_linker_2, # of connection points: 2
#     Edge 102, Type (0, 0), BuildingBlock: XUDNAN_clean_linker_2, # of connection points: 2
#     Edge 103, Type (0, 0), BuildingBlock: XUDNAN_clean_linker_2, # of connection points: 2
#     Edge 104, Type (0, 0), BuildingBlock: XUDNAN_clean_linker_2, # of connection points: 2
#     Edge 105, Type (0, 0), BuildingBlock: XUDNAN_clean_linker_2, # of connection points: 2
#     Edge 106, Type (0, 0), BuildingBlock: XUDNAN_clean_linker_2, # of connection points: 2
#     Edge 107, Type (0, 0), BuildingBlock: XUDNAN_clean_linker_2, # of connection points: 2
#     Edge 108, Type (0, 0), BuildingBlock: XUDNAN_clean_linker_2, # of connection points: 2
#     Edge 109, Type (0, 0), BuildingBlock: XUDNAN_clean_linker_2, # of connection points: 2
#     Edge 110, Type (0, 0), BuildingBlock: XUDNAN_clean_linker_2, # of connection points: 2
#     Edge 111, Type (0, 0), BuildingBlock: XUDNAN_clean_linker_2, # of connection points: 2
# Relax obj value: 0.053
# Max RMSD: 0.091
# Mean RMSD: 0.091
data_MOF--net-wgl--node1-XOMCOT_clean_sbu_1--edge1-XUDNAN_clean_linker_2
_symmetry_space_group_name_H-M    P1
_symmetry_Int_Tables_number       1
_symmetry_cell_setting            triclinic
loop_
_symmetry_equiv_pos_as_xyz
'x, y, z'
_cell_length_a     57.196504
_cell_length_b     57.268923
_cell_length_c     52.789692
_cell_angle_alpha  89.967451
_cell_angle_beta   90.031421
_cell_angle_gamma 90.096926
loop_
_atom_site_label
_atom_site_type_symbol
_atom_site_fract_x
_atom_site_fract_y
_atom_site_fract_z
_atom_type_partial_charge
C0 C 0.28418 0.37223 0.18997 0.0
C1 C 0.26678 0.3885 0.18724 0.0
N2 N 0.25181 0.38086 0.1694 0.0
N3 N 0.28048 0.35443 0.17374 0.0
C4 C 0.26038 0.36004 0.16156 0.0
H5 H 0.29895 0.37351 0.20269 0.0
Co6 Co 0.30187 0.32996 0.17038 0.0
C7 C 0.301 0.31648 0.11631 0.0
O8 O 0.32387 0.31475 0.11752 0.0
N9 N 0.32351 0.3048 0.16793 0.0
C10 C 0.3543 0.2811 0.17058 0.0
C11 C 0.34673 0.30372 0.17272 0.0
C12 C 0.31754 0.28229 0.16309 0.0
N13 N 0.3359 0.26749 0.1647 0.0
O14 O 0.28054 0.30878 0.1868 0.0
H15 H 0.35791 0.318 0.17803 0.0
H16 H 0.29981 0.27682 0.15907 0.0
O17 O 0.28939 0.32231 0.13613 0.0
C18 C 0.28237 0.30986 0.21092 0.0
O19 O 0.29514 0.32664 0.22078 0.0
N20 N 0.32363 0.35167 0.1572 0.0
C21 C 0.35977 0.38263 0.14468 0.0
C22 C 0.34108 0.37866 0.12783 0.0
C23 C 0.32289 0.36345 0.13468 0.0
C24 C 0.33981 0.35776 0.17489 0.0
C25 C 0.35845 0.37236 0.16882 0.0
H26 H 0.30831 0.36131 0.12191 0.0
H27 H 0.33879 0.35028 0.19369 0.0
H28 H 0.2526 0.34955 0.14673 0.0
H29 H 0.26525 0.40479 0.1975 0.0
H30 H 0.3721 0.27525 0.17327 0.0
H31 H 0.34041 0.3872 0.10955 0.0
H32 H 0.372 0.37473 0.18287 0.0
C33 C 0.8931 0.03463 0.44008 0.0
C34 C 0.87683 0.01725 0.43697 0.0
N35 N 0.8823 1.00514 0.41598 0.0
N36 N 0.90879 0.03376 0.42105 0.0
C37 C 0.90187 0.01537 0.40668 0.0
H38 H 0.89321 0.04743 0.45511 0.0
Co39 Co 0.93235 0.05629 0.41776 0.0
C40 C 0.95182 0.05145 0.36533 0.0
O41 O 0.9561 0.07398 0.36518 0.0
N42 N 0.95616 0.07935 0.4156 0.0
C43 C 0.97583 0.11287 0.4174 0.0
C44 C 0.95405 0.10283 0.41681 0.0
C45 C 0.97959 0.07569 0.41564 0.0
N46 N 0.99198 0.09581 0.41674 0.0
O47 O 0.95335 0.03714 0.43814 0.0
H48 H 0.9379 0.1124 0.41799 0.0
H49 H 0.98737 0.05849 0.41509 0.0
O50 O 0.94273 0.04196 0.38509 0.0
C51 C 0.95142 0.04583 0.46041 0.0
O52 O 0.93646 0.06299 0.46344 0.0
N53 N 0.9105 0.0762 0.40167 0.0
C54 C 0.87973 0.11183 0.388 0.0
C55 C 0.88948 0.09725 0.36947 0.0
C56 C 0.9043 0.07892 0.3768 0.0
C57 C 0.89962 0.08913 0.41985 0.0
C58 C 0.88429 0.10703 0.41348 0.0
H59 H 0.91061 0.06728 0.36241 0.0
H60 H 0.90396 0.08642 0.43954 0.0
H61 H 0.91047 0.01001 0.38938 0.0
H62 H 0.86205 0.01375 0.44922 0.0
H63 H 0.97937 0.13136 0.41921 0.0
H64 H 0.88569 0.10001 0.34959 0.0
H65 H 0.87698 0.11778 0.42837 0.0
C66 C 0.25311 0.65373 0.68331 0.0
C67 C 0.27064 0.63807 0.67851 0.0
N68 N 0.27447 0.63749 0.65336 0.0
N69 N 0.2458 0.66335 0.66141 0.0
C70 C 0.25901 0.65291 0.64332 0.0
H71 H 0.24577 0.65737 0.70172 0.0
Co72 Co 0.22141 0.68518 0.66072 0.0
C73 C 0.21677 0.70212 0.60727 0.0
O74 O 0.19434 0.70483 0.6117 0.0
N75 N 0.19686 0.70753 0.66157 0.0
C76 C 0.16413 0.72683 0.67063 0.0
C77 C 0.17445 0.70518 0.66925 0.0
C78 C 0.19962 0.7309 0.65856 0.0
N79 N 0.18003 0.74312 0.66404 0.0
O80 O 0.24165 0.70848 0.67577 0.0
H81 H 0.16614 0.68906 0.67475 0.0
H82 H 0.21598 0.73875 0.65284 0.0
O83 O 0.23004 0.69455 0.62517 0.0
C84 C 0.23765 0.70909 0.69965 0.0
O85 O 0.22265 0.69403 0.70911 0.0
N86 N 0.20099 0.66143 0.64952 0.0
C87 C 0.16585 0.62824 0.64211 0.0
C88 C 0.17863 0.63704 0.62149 0.0
C89 C 0.19666 0.65319 0.62566 0.0
C90 C 0.19038 0.65126 0.66982 0.0
C91 C 0.17258 0.63486 0.6666 0.0
H92 H 0.20679 0.65894 0.60966 0.0
H93 H 0.19489 0.65698 0.68873 0.0
H94 H 0.25721 0.65639 0.62327 0.0
H95 H 0.27928 0.62725 0.69248 0.0
H96 H 0.14656 0.73024 0.67722 0.0
H97 H 0.17458 0.63162 0.60232 0.0
H98 H 0.1634 0.62838 0.68311 0.0
C99 C 0.62104 0.97622 0.91407 0.0
C100 C 0.63909 0.99223 0.9137 0.0
N101 N 0.63222 0.01083 0.89999 0.0
N102 N 0.60304 0.98444 0.9001 0.0
C103 C 0.61028 1.00576 0.89219 0.0
H104 H 0.62113 0.9595 0.92362 0.0
Co105 Co 0.57366 0.97035 0.89322 0.0
C106 C 0.57876 0.98042 0.83694 0.0
O107 O 0.58743 0.95957 0.83316 0.0
N108 N 0.5436 0.95781 0.88559 0.0
C109 C 0.51323 0.94273 0.86482 0.0
C110 C 0.53612 0.94964 0.86296 0.0
C111 C 0.52477 0.95535 0.90096 0.0
N112 N 0.50604 0.94641 0.88874 0.0
O113 O 0.55808 0.99547 0.91154 0.0
H114 H 0.54664 0.94803 0.84617 0.0
H115 H 0.52463 0.95998 0.92073 0.0
O116 O 0.57268 0.98669 0.85942 0.0
C117 C 0.56019 0.98736 0.93417 0.0
O118 O 0.57404 0.9693 0.93739 0.0
N119 N 0.58888 0.94239 0.88114 0.0
C120 C 0.61147 0.89865 0.88055 0.0
C121 C 0.62293 0.91881 0.87164 0.0
C122 C 0.61132 0.94052 0.87208 0.0
C123 C 0.57789 0.92264 0.88961 0.0
C124 C 0.58817 0.90084 0.88809 0.0
H125 H 0.62086 0.95596 0.86635 0.0
H126 H 0.56155 0.92338 0.89965 0.0
H127 H 0.59975 0.01731 0.88067 0.0
H128 H 0.65584 0.99047 0.92305 0.0
H129 H 0.50287 0.935 0.84984 0.0
H130 H 0.64103 0.91815 0.86574 0.0
H131 H 0.57812 0.88594 0.89454 0.0
C132 C 0.28933 0.64214 0.36288 0.0
C133 C 0.27234 0.62526 0.36185 0.0
N134 N 0.25346 0.63299 0.37452 0.0
N135 N 0.28145 0.66049 0.37639 0.0
C136 C 0.25935 0.65453 0.38304 0.0
H137 H 0.30642 0.64114 0.35421 0.0
Co138 Co 0.29943 0.6874 0.38222 0.0
C139 C 0.291 0.69587 0.43793 0.0
O140 O 0.31361 0.69704 0.44173 0.0
N141 N 0.31809 0.71502 0.38755 0.0
C142 C 0.34733 0.73888 0.39848 0.0
C143 C 0.33809 0.71701 0.40119 0.0
C144 C 0.31577 0.73647 0.3767 0.0
N145 N 0.33344 0.75113 0.38289 0.0
O146 O 0.27675 0.70565 0.36346 0.0
H147 H 0.3462 0.70336 0.41221 0.0
H148 H 0.30192 0.74117 0.36378 0.0
O149 O 0.28307 0.69238 0.41543 0.0
C150 C 0.28277 0.70215 0.34038 0.0
O151 O 0.30081 0.68853 0.33607 0.0
N152 N 0.32289 0.66841 0.39611 0.0
C153 C 0.36244 0.64201 0.40731 0.0
C154 C 0.34244 0.64057 0.42276 0.0
C155 C 0.32248 0.65367 0.41648 0.0
C156 C 0.34131 0.66809 0.37977 0.0
C157 C 0.3613 0.65538 0.38515 0.0
H158 H 0.30691 0.65205 0.42793 0.0
H159 H 0.34065 0.67844 0.36264 0.0
H160 H 0.24793 0.6656 0.39411 0.0
H161 H 0.27365 0.60864 0.35218 0.0
H162 H 0.36323 0.7452 0.40726 0.0
H163 H 0.34236 0.62976 0.4396 0.0
H164 H 0.37584 0.65612 0.37203 0.0
C165 C 0.6276 0.031 0.60401 0.0
C166 C 0.64366 0.01402 0.60958 0.0
N167 N 0.6339 0.99895 0.62603 0.0
N168 N 0.60773 0.02703 0.61707 0.0
C169 C 0.61197 1.00706 0.63018 0.0
H170 H 0.63036 0.04548 0.59123 0.0
Co171 Co 0.58236 0.04778 0.61513 0.0
C172 C 0.55999 0.04768 0.66611 0.0
O173 O 0.55554 0.06996 0.6627 0.0
N174 N 0.55675 0.06874 0.61179 0.0
C175 C 0.53448 0.09956 0.60291 0.0
C176 C 0.55685 0.09107 0.60338 0.0
C177 C 0.5337 0.06385 0.61513 0.0
N178 N 0.5199 0.08251 0.61044 0.0
O179 O 0.56448 0.02545 0.59543 0.0
H180 H 0.57188 0.10085 0.59725 0.0
H181 H 0.52725 0.04709 0.62158 0.0
O182 O 0.57031 0.03613 0.64846 0.0
C183 C 0.56999 0.03 0.57243 0.0
O184 O 0.58652 0.04553 0.56844 0.0
N185 N 0.6011 0.07076 0.63113 0.0
C186 C 0.62682 0.10972 0.64626 0.0
C187 C 0.62003 0.09284 0.66409 0.0
C188 C 0.60753 0.07306 0.656 0.0
C189 C 0.61046 0.08536 0.61347 0.0
C190 C 0.62289 0.10516 0.62057 0.0
H191 H 0.60305 0.05992 0.66979 0.0
H192 H 0.60728 0.08214 0.59359 0.0
H193 H 0.59951 0.99892 0.64284 0.0
H194 H 0.66117 0.0127 0.60194 0.0
H195 H 0.52929 0.11693 0.59709 0.0
H196 H 0.62371 0.09523 0.68405 0.0
H197 H 0.6289 0.11712 0.60605 0.0
C198 C 0.2334 0.3761 0.87433 0.0
C199 C 0.24929 0.39398 0.87228 0.0
N200 N 0.27073 0.38559 0.87755 0.0
N201 N 0.24448 0.35633 0.88136 0.0
C202 C 0.26743 0.36249 0.88204 0.0
H203 H 0.2148 0.37766 0.87125 0.0
Co204 Co 0.22921 0.32739 0.88805 0.0
C205 C 0.25722 0.33539 0.93728 0.0
O206 O 0.2614 0.35755 0.93285 0.0
N207 N 0.21408 0.29873 0.89449 0.0
C208 C 0.19612 0.27058 0.91602 0.0
C209 C 0.20448 0.29299 0.917 0.0
C210 C 0.21093 0.2795 0.87988 0.0
N211 N 0.20025 0.262 0.89273 0.0
O212 O 0.25284 0.31101 0.86869 0.0
H213 H 0.20355 0.30445 0.93322 0.0
H214 H 0.21673 0.2781 0.86046 0.0
O215 O 0.24569 0.32317 0.92115 0.0
C216 C 0.24709 0.3145 0.84551 0.0
O217 O 0.22931 0.32836 0.84083 0.0
N218 N 0.20403 0.34321 0.90328 0.0
C219 C 0.16285 0.36724 0.91453 0.0
C220 C 0.18192 0.36781 0.93132 0.0
C221 C 0.20253 0.35571 0.92527 0.0
C222 C 0.18538 0.34195 0.88728 0.0
C223 C 0.1647 0.35369 0.89254 0.0
H224 H 0.21711 0.35692 0.93803 0.0
H225 H 0.18684 0.33209 0.86989 0.0
H226 H 0.28125 0.35057 0.88739 0.0
H227 H 0.24524 0.41194 0.86764 0.0
H228 H 0.1874 0.26136 0.93124 0.0
H229 H 0.18119 0.37809 0.94852 0.0
H230 H 0.15031 0.3523 0.87927 0.0
C231 C 0.89268 0.97279 0.12743 0.0
C232 C 0.87462 0.98822 0.12401 0.0
N233 N 0.88288 0.01006 0.12718 0.0
N234 N 0.9124 0.98463 0.13321 0.0
C235 C 0.90601 1.00741 0.13191 0.0
H236 H 0.89131 0.95404 0.12584 0.0
Co237 Co 0.942 0.97103 0.13987 0.0
C238 C 0.9333 1.00006 0.18843 0.0
O239 O 0.9114 1.00485 0.18326 0.0
N240 N 0.9713 0.95758 0.1462 0.0
C241 C 1.00091 0.94179 0.16739 0.0
C242 C 0.978 0.94863 0.16872 0.0
C243 C 0.99043 0.95554 0.13124 0.0
N244 N 1.00875 0.94623 0.14386 0.0
O245 O 0.95712 0.99541 0.12007 0.0
H246 H 0.9669 0.94714 0.18517 0.0
H247 H 0.99116 0.96124 0.11173 0.0
O248 O 0.94555 0.98792 0.17289 0.0
C249 C 0.95385 0.98938 0.09693 0.0
O250 O 0.94111 0.9707 0.09249 0.0
N251 N 0.92755 0.94526 0.15558 0.0
C252 C 0.90649 0.90287 0.1691 0.0
C253 C 0.90556 0.92232 0.18539 0.0
C254 C 0.91614 0.94347 0.17822 0.0
C255 C 0.92879 0.92655 0.13974 0.0
C256 C 0.91833 0.90536 0.14598 0.0
H257 H 0.91485 0.9582 0.19078 0.0
H258 H 0.93757 0.92835 0.1217 0.0
H259 H 0.9179 0.02171 0.13571 0.0
H260 H 0.85672 0.98361 0.11962 0.0
H261 H 0.01099 0.93391 0.1825 0.0
H262 H 0.89676 0.92126 0.2035 0.0
H263 H 0.91907 0.89128 0.13235 0.0
C264 C 0.73206 0.63851 0.87598 0.0
C265 C 0.74679 0.61958 0.87774 0.0
N266 N 0.76698 0.62652 0.88869 0.0
N267 N 0.74277 0.65738 0.88587 0.0
C268 C 0.764 0.64958 0.89336 0.0
H269 H 0.71481 0.63862 0.86757 0.0
Co270 Co 0.73157 0.68809 0.88693 0.0
C271 C 0.74041 0.70359 0.93963 0.0
O272 O 0.72024 0.71447 0.93846 0.0
N273 N 0.7215 0.7198 0.8876 0.0
C274 C 0.72671 0.75849 0.88669 0.0
C275 C 0.73752 0.73725 0.8885 0.0
C276 C 0.70078 0.73126 0.88591 0.0
N277 N 0.70365 0.75468 0.8851 0.0
O278 O 0.7576 0.69822 0.86616 0.0
H279 H 0.75616 0.73477 0.89058 0.0
H280 H 0.68383 0.72301 0.88532 0.0
O281 O 0.74799 0.69272 0.91997 0.0
C282 C 0.75134 0.69415 0.84326 0.0
O283 O 0.73244 0.68156 0.8395 0.0
N284 N 0.7043 0.67715 0.90319 0.0
C285 C 0.66266 0.65356 0.91542 0.0
C286 C 0.68231 0.6525 0.93153 0.0
C287 C 0.70305 0.66427 0.92498 0.0
C288 C 0.68569 0.67779 0.88715 0.0
C289 C 0.6646 0.66704 0.89328 0.0
H290 H 0.71841 0.66171 0.93655 0.0
H291 H 0.68751 0.68607 0.86884 0.0
H292 H 0.77704 0.66075 0.90192 0.0
H293 H 0.74305 0.60221 0.87078 0.0
H294 H 0.73504 0.77547 0.88739 0.0
H295 H 0.68215 0.64177 0.94841 0.0
H296 H 0.65017 0.66893 0.8802 0.0
C297 C 0.11479 0.991 0.60489 0.0
C298 C 0.12954 1.00979 0.60304 0.0
N299 N 0.12874 0.02157 0.62499 0.0
N300 N 0.10484 0.99035 0.62808 0.0
C301 C 0.11337 1.00978 0.63974 0.0
H302 H 0.11105 0.97875 0.58985 0.0
Co303 Co 0.08081 0.96808 0.63377 0.0
C304 C 0.08662 0.98495 0.68699 0.0
O305 O 0.10917 0.98089 0.68527 0.0
N306 N 0.05665 0.9464 0.63724 0.0
C307 C 0.03485 0.91509 0.62965 0.0
C308 C 0.05684 0.92461 0.62761 0.0
C309 C 0.03437 0.94985 0.64487 0.0
N310 N 0.02063 0.93105 0.64032 0.0
O311 O 0.05919 0.98892 0.61702 0.0
H312 H 0.07181 0.91655 0.61869 0.0
H313 H 0.02806 0.96638 0.65205 0.0
O314 O 0.07326 0.98114 0.66786 0.0
C315 C 0.05554 0.98321 0.5939 0.0
O316 O 0.06652 0.9649 0.58482 0.0
N317 N 0.10216 0.946 0.648 0.0
C318 C 0.12842 0.90631 0.66045 0.0
C319 C 0.10934 0.91304 0.6754 0.0
C320 C 0.0965 0.93301 0.66894 0.0
C321 C 0.12089 0.93967 0.63353 0.0
C322 C 0.13448 0.92026 0.6397 0.0
H323 H 0.08104 0.93711 0.67983 0.0
H324 H 0.12463 0.94853 0.61606 0.0
H325 H 0.10746 0.01628 0.65782 0.0
H326 H 0.13986 0.01463 0.58666 0.0
H327 H 0.02965 0.89792 0.62319 0.0
H328 H 0.10395 0.90255 0.69146 0.0
H329 H 0.14872 0.91532 0.62729 0.0
C330 C 0.76636 0.36455 0.33087 0.0
C331 C 0.75041 0.38214 0.33449 0.0
N332 N 0.74881 0.38633 0.3595 0.0
N333 N 0.77468 0.35736 0.35349 0.0
C334 C 0.76375 0.37112 0.37061 0.0
H335 H 0.77184 0.35786 0.31271 0.0
Co336 Co 0.79738 0.33416 0.35802 0.0
C337 C 0.79407 0.31921 0.41225 0.0
O338 O 0.81685 0.31637 0.41206 0.0
N339 N 0.82012 0.31043 0.3617 0.0
C340 C 0.85234 0.28869 0.36051 0.0
C341 C 0.84354 0.31099 0.35846 0.0
C342 C 0.8152 0.28756 0.36552 0.0
N343 N 0.83443 0.27393 0.3649 0.0
O344 O 0.77781 0.31206 0.33959 0.0
H345 H 0.85375 0.32638 0.3543 0.0
H346 H 0.7976 0.28101 0.36805 0.0
O347 O 0.78359 0.32595 0.39195 0.0
C348 C 0.78639 0.31235 0.31715 0.0
O349 O 0.80469 0.32568 0.31287 0.0
N350 N 0.81767 0.35691 0.37175 0.0
C351 C 0.85231 0.39018 0.38118 0.0
C352 C 0.83785 0.3822 0.40085 0.0
C353 C 0.82001 0.36604 0.39556 0.0
C354 C 0.8305 0.36588 0.35229 0.0
C355 C 0.84796 0.38234 0.35655 0.0
H356 H 0.80828 0.36126 0.41061 0.0
H357 H 0.82768 0.35952 0.33327 0.0
H358 H 0.76679 0.37013 0.39082 0.0
H359 H 0.74133 0.39169 0.31978 0.0
H360 H 0.87054 0.2838 0.35883 0.0
H361 H 0.84025 0.38847 0.42003 0.0
H362 H 0.8586 0.38817 0.34078 0.0
C363 C 0.40664 0.02375 0.08006 0.0
C364 C 0.38922 1.00758 0.07704 0.0
N365 N 0.3817 1.00082 0.10009 0.0
N366 N 0.41054 0.0273 0.10491 0.0
C367 C 0.39506 0.013 0.11681 0.0
H368 H 0.41572 0.03267 0.06493 0.0
Co369 Co 0.43288 0.04932 0.11527 0.0
C370 C 0.45174 0.02264 0.16079 0.0
O371 O 0.47193 0.01777 0.15024 0.0
N372 N 0.45566 0.07184 0.12457 0.0
C373 C 0.47449 0.10589 0.12638 0.0
C374 C 0.453 0.09528 0.12422 0.0
C375 C 0.47906 0.06877 0.12687 0.0
N376 N 0.49098 0.08918 0.12771 0.0
O377 O 0.45681 0.03099 0.09865 0.0
H378 H 0.43675 0.10428 0.12064 0.0
H379 H 0.48739 0.05191 0.12605 0.0
O380 O 0.43616 0.03361 0.14817 0.0
C381 C 0.46298 0.04047 0.07767 0.0
O382 O 0.45373 0.0607 0.07153 0.0
N383 N 0.40913 0.06817 0.12868 0.0
C384 C 0.37856 0.10427 0.14131 0.0
C385 C 0.39232 0.09345 0.15999 0.0
C386 C 0.40755 0.07535 0.1533 0.0
C387 C 0.39509 0.07768 0.11057 0.0
C388 C 0.37959 0.09563 0.11648 0.0
H389 H 0.41915 0.06837 0.16756 0.0
H390 H 0.39702 0.07234 0.09104 0.0
H391 H 0.39324 0.01199 0.13719 0.0
H392 H 0.38267 1.00125 0.05907 0.0
H393 H 0.47777 0.12446 0.12499 0.0
H394 H 0.39203 0.09956 0.1794 0.0
H395 H 0.3697 0.10368 0.10133 0.0
C396 C 0.72731 0.37759 0.657 0.0
C397 C 0.7436 0.3949 0.66025 0.0
N398 N 0.7648 0.38633 0.65432 0.0
N399 N 0.7379 0.35804 0.64855 0.0
C400 C 0.76097 0.36367 0.64814 0.0
H401 H 0.70879 0.37931 0.66053 0.0
Co402 Co 0.72184 0.32983 0.64136 0.0
C403 C 0.74955 0.33782 0.59164 0.0
O404 O 0.75524 0.35948 0.59687 0.0
N405 N 0.70576 0.30198 0.63468 0.0
C406 C 0.68445 0.27544 0.61444 0.0
C407 C 0.69501 0.29687 0.61261 0.0
C408 C 0.70147 0.2833 0.64972 0.0
N409 N 0.68848 0.26689 0.6378 0.0
O410 O 0.74535 0.3123 0.66014 0.0
H411 H 0.69453 0.30821 0.59626 0.0
H412 H 0.70734 0.28188 0.66913 0.0
O413 O 0.73758 0.32579 0.60762 0.0
C414 C 0.73969 0.31535 0.68344 0.0
O415 O 0.722 0.32924 0.68839 0.0
N416 N 0.69687 0.3467 0.62694 0.0
C417 C 0.65607 0.37177 0.61657 0.0
C418 C 0.67512 0.37248 0.59976 0.0
C419 C 0.69555 0.35987 0.60538 0.0
C420 C 0.67829 0.34545 0.64301 0.0
C421 C 0.65781 0.35768 0.63819 0.0
H422 H 0.71018 0.3612 0.59268 0.0
H423 H 0.67963 0.33512 0.66011 0.0
H424 H 0.77452 0.35171 0.64218 0.0
H425 H 0.74001 0.41257 0.66636 0.0
H426 H 0.67477 0.26671 0.59958 0.0
H427 H 0.6745 0.3832 0.58286 0.0
H428 H 0.64345 0.35619 0.65146 0.0
C429 C 0.39791 0.97959 0.41733 0.0
C430 C 0.38005 0.99558 0.41817 0.0
N431 N 0.38599 0.01398 0.4036 0.0
N432 N 0.41505 0.98772 0.40218 0.0
C433 C 0.4074 1.00884 0.39423 0.0
H434 H 0.39827 0.96287 0.42687 0.0
Co435 Co 0.442 0.97092 0.39394 0.0
C436 C 0.45838 0.99394 0.34579 0.0
O437 O 0.48012 0.99472 0.3538 0.0
N438 N 0.46894 0.95385 0.38582 0.0
C439 C 0.49501 0.93216 0.36544 0.0
C440 C 0.47331 0.94234 0.36404 0.0
C441 C 0.48805 0.95003 0.40034 0.0
N442 N 0.50434 0.93706 0.38829 0.0
O443 O 0.46146 0.99459 0.40959 0.0
H444 H 0.46147 0.94147 0.34808 0.0
H445 H 0.49012 0.95684 0.41929 0.0
O446 O 0.44244 0.98582 0.36032 0.0
C447 C 0.46085 0.99288 0.43381 0.0
O448 O 0.44563 0.97845 0.44395 0.0
N449 N 0.42331 0.94665 0.38156 0.0
C450 C 0.39657 0.90736 0.36981 0.0
C451 C 0.39431 0.92797 0.35556 0.0
C452 C 0.40795 0.94757 0.36176 0.0
C453 C 0.42515 0.92704 0.39598 0.0
C454 C 0.41213 0.90719 0.39034 0.0
H455 H 0.4059 0.96346 0.35094 0.0
H456 H 0.43683 0.92691 0.41211 0.0
H457 H 0.41701 0.01993 0.38129 0.0
H458 H 0.36394 0.99382 0.42876 0.0
H459 H 0.50312 0.92168 0.35084 0.0
H460 H 0.3823 0.92886 0.33972 0.0
H461 H 0.41397 0.89191 0.40228 0.0
C462 C 0.78776 0.64547 0.19742 0.0
C463 C 0.76984 0.6296 0.19942 0.0
N464 N 0.75399 0.63437 0.18133 0.0
N465 N 0.78316 0.66047 0.17836 0.0
C466 C 0.76245 0.65312 0.16867 0.0
H467 H 0.80313 0.64623 0.20934 0.0
Co468 Co 0.80278 0.68565 0.17031 0.0
C469 C 0.78051 0.70184 0.12194 0.0
O470 O 0.77475 0.72187 0.13228 0.0
N471 N 0.82258 0.71078 0.16225 0.0
C472 C 0.84727 0.73404 0.14166 0.0
C473 C 0.83569 0.71299 0.14112 0.0
C474 C 0.82655 0.73071 0.17535 0.0
N475 N 0.84142 0.74524 0.16317 0.0
O476 O 0.77995 0.70747 0.18354 0.0
H477 H 0.83648 0.70024 0.12604 0.0
H478 H 0.81876 0.73456 0.1935 0.0
O479 O 0.79061 0.68627 0.13541 0.0
C480 C 0.78179 0.70755 0.20776 0.0
O481 O 0.79608 0.69248 0.21831 0.0
N482 N 0.82611 0.66463 0.16104 0.0
C483 C 0.86329 0.63385 0.15509 0.0
C484 C 0.84485 0.63408 0.13754 0.0
C485 C 0.82603 0.64939 0.14116 0.0
C486 C 0.84385 0.66449 0.17824 0.0
C487 C 0.86258 0.64921 0.17568 0.0
H488 H 0.81135 0.64867 0.12836 0.0
H489 H 0.84327 0.67629 0.19422 0.0
H490 H 0.75348 0.66164 0.15316 0.0
H491 H 0.76851 0.61558 0.21311 0.0
H492 H 0.85853 0.7409 0.12694 0.0
H493 H 0.84477 0.62221 0.12157 0.0
H494 H 0.87654 0.64956 0.18956 0.0
C495 C 0.12002 0.03368 0.93571 0.0
C496 C 0.13661 0.01648 0.93411 0.0
N497 N 0.12982 1.00106 0.91633 0.0
N498 N 0.10283 0.02941 0.91885 0.0
C499 C 0.10915 1.00918 0.90742 0.0
H500 H 0.12061 0.04863 0.94819 0.0
Co501 Co 0.07797 0.05014 0.91423 0.0
C502 C 0.06441 0.04544 0.85981 0.0
O503 O 0.06186 0.06821 0.85882 0.0
N504 N 0.0526 0.07112 0.9107 0.0
C505 C 0.02836 0.10118 0.91563 0.0
C506 C 0.051 0.09367 0.91808 0.0
C507 C 0.03039 0.06534 0.90419 0.0
N508 N 0.01533 0.08332 0.90701 0.0
O509 O 0.05698 0.02919 0.93189 0.0
H510 H 0.06486 0.10412 0.92594 0.0
H511 H 0.02519 0.04792 0.89851 0.0
O512 O 0.07067 0.03571 0.88067 0.0
C513 C 0.05776 0.03235 0.9559 0.0
O514 O 0.07382 0.04645 0.96502 0.0
N515 N 0.09935 0.07189 0.89997 0.0
C516 C 0.13007 0.10819 0.88704 0.0
C517 C 0.12522 0.09008 0.86981 0.0
C518 C 0.11029 0.07168 0.87693 0.0
C519 C 0.10581 0.08799 0.9176 0.0
C520 C 0.12051 0.10654 0.91144 0.0
H521 H 0.10788 0.05734 0.86397 0.0
H522 H 0.09898 0.08668 0.93665 0.0
H523 H 0.09922 1.00091 0.89244 0.0
H524 H 0.15249 0.01535 0.94522 0.0
H525 H 0.02194 0.11844 0.92023 0.0
H526 H 0.1331 0.08996 0.85117 0.0
H527 H 0.12381 0.11974 0.92567 0.0
C528 C 0.78132 0.87116 0.6938 0.0
C529 C 0.76393 0.88768 0.6932 0.0
N530 N 0.74802 0.88125 0.67574 0.0
N531 N 0.77664 0.85435 0.67663 0.0
C532 C 0.75603 0.86087 0.66606 0.0
H533 H 0.79669 0.87163 0.70572 0.0
Co534 Co 0.79702 0.82951 0.66904 0.0
C535 C 0.77835 0.81194 0.6196 0.0
O536 O 0.77854 0.79033 0.62796 0.0
N537 N 0.81754 0.80491 0.66131 0.0
C538 C 0.84254 0.78223 0.64058 0.0
C539 C 0.83095 0.80319 0.64036 0.0
C540 C 0.82155 0.78482 0.67412 0.0
N541 N 0.83657 0.77059 0.66181 0.0
O542 O 0.77471 0.80709 0.68221 0.0
H543 H 0.83165 0.81599 0.62533 0.0
H544 H 0.81353 0.78057 0.69205 0.0
O545 O 0.78454 0.82853 0.63437 0.0
C546 C 0.77628 0.80717 0.70645 0.0
O547 O 0.7891 0.8235 0.71709 0.0
N548 N 0.8201 0.851 0.65975 0.0
C549 C 0.85873 0.88023 0.65434 0.0
C550 C 0.84265 0.8776 0.6344 0.0
C551 C 0.82306 0.86305 0.63763 0.0
C552 C 0.83562 0.8534 0.67913 0.0
C553 C 0.8549 0.86806 0.67693 0.0
H554 H 0.81066 0.86123 0.62232 0.0
H555 H 0.83295 0.84365 0.69645 0.0
H556 H 0.74748 0.85136 0.65095 0.0
H557 H 0.76312 0.90334 0.70465 0.0
H558 H 0.85372 0.7757 0.62566 0.0
H559 H 0.84516 0.88679 0.61667 0.0
H560 H 0.86705 0.86947 0.69262 0.0
C561 C 0.39902 0.53712 0.93496 0.0
C562 C 0.38215 0.5201 0.93312 0.0
N563 N 0.38902 0.50431 0.91573 0.0
N564 N 0.4166 0.5323 0.91882 0.0
C565 C 0.4101 0.51204 0.90745 0.0
H566 H 0.39828 0.55241 0.94694 0.0
Co567 Co 0.44229 0.5524 0.91385 0.0
C568 C 0.45205 0.54632 0.85863 0.0
O569 O 0.45235 0.56908 0.85639 0.0
N570 N 0.46884 0.5731 0.9092 0.0
C571 C 0.49203 0.60287 0.89783 0.0
C572 C 0.46984 0.59389 0.89684 0.0
C573 C 0.49108 0.57037 0.91801 0.0
N574 N 0.50534 0.58814 0.91123 0.0
O575 O 0.46193 0.5311 0.93307 0.0
H576 H 0.45554 0.60227 0.88708 0.0
H577 H 0.49703 0.55557 0.92893 0.0
O578 O 0.44881 0.53695 0.88048 0.0
C579 C 0.45863 0.538 0.95592 0.0
O580 O 0.44441 0.55568 0.95956 0.0
N581 N 0.42157 0.57428 0.89955 0.0
C582 C 0.38918 0.60935 0.88811 0.0
C583 C 0.39046 0.58894 0.87331 0.0
C584 C 0.40651 0.57133 0.87968 0.0
C585 C 0.41936 0.59316 0.91502 0.0
C586 C 0.40398 0.61114 0.90925 0.0
H587 H 0.40647 0.55523 0.86902 0.0
H588 H 0.43019 0.59453 0.93176 0.0
H589 H 0.42022 0.50353 0.89283 0.0
H590 H 0.36601 0.51946 0.94378 0.0
H591 H 0.49792 0.61918 0.8896 0.0
H592 H 0.37884 0.58633 0.85736 0.0
H593 H 0.40402 0.62644 0.92127 0.0
C594 C 0.73015 0.14295 0.16393 0.0
C595 C 0.74636 0.12526 0.1641 0.0
N596 N 0.76399 0.1311 0.14836 0.0
N597 N 0.73737 0.15997 0.14812 0.0
C598 C 0.75813 0.15234 0.13902 0.0
H599 H 0.71407 0.1434 0.17469 0.0
Co600 Co 0.72085 0.18746 0.14113 0.0
C601 C 0.74311 0.20319 0.09278 0.0
O602 O 0.74651 0.2242 0.10209 0.0
N603 N 0.70425 0.21493 0.13397 0.0
C604 C 0.68345 0.24181 0.11366 0.0
C605 C 0.69208 0.21947 0.11262 0.0
C606 C 0.70237 0.23466 0.14792 0.0
N607 N 0.69004 0.25143 0.13584 0.0
O608 O 0.746 0.20598 0.15495 0.0
H609 H 0.68996 0.20741 0.09702 0.0
H610 H 0.71036 0.23694 0.1663 0.0
O611 O 0.7337 0.18745 0.10663 0.0
C612 C 0.7449 0.20525 0.17918 0.0
O613 O 0.73011 0.19056 0.18964 0.0
N614 N 0.69505 0.16978 0.13102 0.0
C615 C 0.65304 0.14573 0.12392 0.0
C616 C 0.6711 0.14431 0.10585 0.0
C617 C 0.69216 0.15646 0.10981 0.0
C618 C 0.67797 0.17096 0.14888 0.0
C619 C 0.65692 0.15912 0.14577 0.0
H620 H 0.70596 0.15516 0.09593 0.0
H621 H 0.68085 0.18122 0.16581 0.0
H622 H 0.76855 0.16202 0.1255 0.0
H623 H 0.74531 0.10943 0.17524 0.0
H624 H 0.67309 0.25029 0.09918 0.0
H625 H 0.66891 0.13416 0.08871 0.0
H626 H 0.64392 0.16025 0.16061 0.0
C627 C 0.11997 0.4853 0.41867 0.0
C628 C 0.13695 0.50205 0.41669 0.0
N629 N 0.13083 0.51695 0.39815 0.0
N630 N 0.10318 0.48925 0.40127 0.0
C631 C 0.1101 0.50896 0.38913 0.0
H632 H 0.11985 0.47105 0.43209 0.0
Co633 Co 0.07767 0.46899 0.39892 0.0
C634 C 0.06317 0.46722 0.345 0.0
O635 O 0.05873 0.44506 0.34935 0.0
N636 N 0.05146 0.44838 0.39828 0.0
C637 C 0.02693 0.4186 0.4043 0.0
C638 C 0.04988 0.42551 0.40456 0.0
C639 C 0.02891 0.45484 0.3944 0.0
N640 N 0.01367 0.43708 0.39809 0.0
O641 O 0.05768 0.49211 0.41417 0.0
H642 H 0.06405 0.41417 0.40971 0.0
H643 H 0.02373 0.47247 0.38967 0.0
O644 O 0.07066 0.47999 0.36336 0.0
C645 C 0.05802 0.48943 0.43825 0.0
O646 O 0.07295 0.47443 0.44786 0.0
N647 N 0.09828 0.44553 0.38714 0.0
C648 C 0.1286 0.40823 0.37762 0.0
C649 C 0.12413 0.4251 0.35888 0.0
C650 C 0.10933 0.44399 0.36423 0.0
C651 C 0.10443 0.43073 0.40618 0.0
C652 C 0.11888 0.41165 0.40173 0.0
H653 H 0.10715 0.45736 0.35003 0.0
H654 H 0.09726 0.43331 0.42494 0.0
H655 H 0.10042 0.51708 0.37387 0.0
H656 H 0.15252 0.50341 0.42828 0.0
H657 H 0.02054 0.40122 0.40848 0.0
H658 H 0.13216 0.42389 0.34036 0.0
H659 H 0.12178 0.3994 0.41703 0.0
C660 C 0.77966 0.14132 0.83623 0.0
C661 C 0.76285 0.1242 0.83792 0.0
N662 N 0.74722 0.13058 0.85566 0.0
N663 N 0.77488 0.15845 0.85296 0.0
C664 C 0.75479 0.15151 0.86437 0.0
H665 H 0.79489 0.14092 0.82411 0.0
Co666 Co 0.79528 0.18338 0.8602 0.0
C667 C 0.77564 0.20273 0.90851 0.0
O668 O 0.77695 0.22423 0.89992 0.0
N669 N 0.81596 0.20807 0.86766 0.0
C670 C 0.84178 0.23043 0.88784 0.0
C671 C 0.82951 0.20982 0.88855 0.0
C672 C 0.82039 0.22791 0.85452 0.0
N673 N 0.83599 0.24186 0.86646 0.0
O674 O 0.77356 0.20554 0.84538 0.0
H675 H 0.83001 0.19722 0.90378 0.0
H676 H 0.81234 0.23216 0.83659 0.0
O677 O 0.78176 0.18577 0.89426 0.0
C678 C 0.77528 0.20507 0.82115 0.0
O679 O 0.78828 0.18872 0.81089 0.0
N680 N 0.81766 0.16193 0.87133 0.0
C681 C 0.85508 0.13194 0.88011 0.0
C682 C 0.83811 0.13557 0.89891 0.0
C683 C 0.81915 0.15044 0.89398 0.0
C684 C 0.83399 0.15848 0.85297 0.0
C685 C 0.85272 0.14342 0.85686 0.0
H686 H 0.80604 0.15294 0.90843 0.0
H687 H 0.83242 0.16768 0.83515 0.0
H688 H 0.7464 0.16104 0.87955 0.0
H689 H 0.76229 0.10813 0.82714 0.0
H690 H 0.85342 0.23689 0.90243 0.0
H691 H 0.83945 0.12692 0.91711 0.0
H692 H 0.86559 0.14123 0.842 0.0
C693 C 0.12644 0.52928 0.10033 0.0
C694 C 0.14306 0.51218 0.10289 0.0
N695 N 0.13555 0.49673 0.12029 0.0
N696 N 0.10855 0.52492 0.11628 0.0
C697 C 0.11446 0.50471 0.12805 0.0
H698 H 0.12744 0.54414 0.08776 0.0
Co699 Co 0.08313 0.54521 0.11956 0.0
C700 C 0.06907 0.54044 0.17458 0.0
O701 O 0.06534 0.56302 0.17627 0.0
N702 N 0.05736 0.56562 0.12166 0.0
C703 C 0.03242 0.59422 0.11249 0.0
C704 C 0.05498 0.58653 0.11006 0.0
C705 C 0.03561 0.56075 0.13041 0.0
N706 N 0.02018 0.57796 0.12523 0.0
O707 O 0.06283 0.52318 0.10271 0.0
H708 H 0.06817 0.59539 0.09913 0.0
H709 H 0.03089 0.54438 0.13931 0.0
O710 O 0.07583 0.53164 0.15343 0.0
C711 C 0.0635 0.52532 0.07858 0.0
O712 O 0.07953 0.53901 0.06868 0.0
N713 N 0.10356 0.5681 0.13317 0.0
C714 C 0.1302 0.6074 0.14551 0.0
C715 C 0.12652 0.58964 0.16345 0.0
C716 C 0.11342 0.56978 0.15672 0.0
C717 C 0.10969 0.58372 0.11488 0.0
C718 C 0.12241 0.60374 0.1207 0.0
H719 H 0.11128 0.55604 0.17049 0.0
H720 H 0.1041 0.58086 0.09557 0.0
H721 H 0.10388 0.49633 0.14242 0.0
H722 H 0.15943 0.51112 0.09267 0.0
H723 H 0.02547 0.61039 0.10502 0.0
H724 H 0.13314 0.59135 0.18259 0.0
H725 H 0.12593 0.6164 0.10592 0.0
C726 C 0.72904 0.87517 0.36875 0.0
C727 C 0.74458 0.89351 0.36752 0.0
N728 N 0.76498 0.88659 0.37779 0.0
N729 N 0.73947 0.85682 0.3801 0.0
C730 C 0.76147 0.86423 0.38514 0.0
H731 H 0.71113 0.87532 0.36216 0.0
Co732 Co 0.72554 0.82803 0.38814 0.0
C733 C 0.75261 0.81328 0.4341 0.0
O734 O 0.7563 0.79243 0.42455 0.0
N735 N 0.71175 0.79926 0.39664 0.0
C736 C 0.69515 0.77102 0.41928 0.0
C737 C 0.70229 0.7939 0.41935 0.0
C738 C 0.70963 0.77945 0.38284 0.0
N739 N 0.69983 0.76193 0.39633 0.0
O740 O 0.75022 0.81182 0.37019 0.0
H741 H 0.70102 0.80582 0.43518 0.0
H742 H 0.71555 0.77769 0.36349 0.0
O743 O 0.74168 0.82854 0.42099 0.0
C744 C 0.74414 0.81392 0.34689 0.0
O745 O 0.72519 0.82595 0.34168 0.0
N746 N 0.69986 0.84366 0.40183 0.0
C747 C 0.65885 0.86848 0.4112 0.0
C748 C 0.67865 0.87163 0.42669 0.0
C749 C 0.69922 0.85907 0.42155 0.0
C750 C 0.68064 0.84001 0.38716 0.0
C751 C 0.65998 0.852 0.39163 0.0
H752 H 0.71474 0.86238 0.43267 0.0
H753 H 0.68162 0.82807 0.37132 0.0
H754 H 0.77446 0.85366 0.39466 0.0
H755 H 0.74117 0.91064 0.35967 0.0
H756 H 0.68697 0.7618 0.43484 0.0
H757 H 0.67852 0.8843 0.44191 0.0
H758 H 0.64507 0.84864 0.37949 0.0
C759 C 0.38854 0.47178 0.61729 0.0
C760 C 0.37103 0.48732 0.61158 0.0
N761 N 0.37887 0.50902 0.61638 0.0
N762 N 0.40743 0.48348 0.62597 0.0
C763 C 0.4011 0.50629 0.62465 0.0
H764 H 0.38761 0.45307 0.61479 0.0
Co765 Co 0.43668 0.46947 0.63323 0.0
C766 C 0.42788 0.4982 0.68173 0.0
O767 O 0.40598 0.50291 0.67644 0.0
N768 N 0.46576 0.45552 0.63995 0.0
C769 C 0.4945 0.43793 0.66082 0.0
C770 C 0.47218 0.44647 0.6625 0.0
C771 C 0.48449 0.45202 0.62472 0.0
N772 N 0.50235 0.44148 0.63707 0.0
O773 O 0.45232 0.4935 0.61365 0.0
H774 H 0.46114 0.44579 0.6791 0.0
H775 H 0.48515 0.45726 0.60505 0.0
O776 O 0.44022 0.48635 0.66606 0.0
C777 C 0.44926 0.48708 0.59063 0.0
O778 O 0.43674 0.46819 0.58645 0.0
N779 N 0.4216 0.44402 0.64884 0.0
C780 C 0.3997 0.40208 0.66222 0.0
C781 C 0.39692 0.42221 0.67717 0.0
C782 C 0.40799 0.44313 0.67009 0.0
C783 C 0.42458 0.42459 0.63434 0.0
C784 C 0.41409 0.4035 0.64078 0.0
H785 H 0.40505 0.45846 0.68136 0.0
H786 H 0.4351 0.4256 0.61735 0.0
H787 H 0.4126 0.52063 0.62955 0.0
H788 H 0.35372 0.48298 0.60471 0.0
H789 H 0.504 0.42928 0.67586 0.0
H790 H 0.38579 0.42199 0.69376 0.0
H791 H 0.41725 0.38843 0.6289 0.0
C792 C 0.22716 0.14084 0.3704 0.0
C793 C 0.24324 0.12302 0.36937 0.0
N794 N 0.26324 0.13047 0.3802 0.0
N795 N 0.23686 0.15942 0.38207 0.0
C796 C 0.25893 0.15265 0.38762 0.0
H797 H 0.20948 0.14026 0.36315 0.0
Co798 Co 0.22238 0.18805 0.38899 0.0
C799 C 0.24868 0.20381 0.43518 0.0
O800 O 0.25247 0.22463 0.42553 0.0
N801 N 0.20797 0.21666 0.39621 0.0
C802 C 0.19024 0.24528 0.41706 0.0
C803 C 0.19831 0.22277 0.41857 0.0
C804 C 0.20507 0.23561 0.3812 0.0
N805 N 0.19455 0.25337 0.39357 0.0
O806 O 0.24735 0.20437 0.37166 0.0
H807 H 0.19736 0.21159 0.43506 0.0
H808 H 0.21087 0.23656 0.36174 0.0
O809 O 0.23782 0.18846 0.42212 0.0
C810 C 0.24239 0.20182 0.34815 0.0
O811 O 0.22398 0.18922 0.34213 0.0
N812 N 0.19661 0.1723 0.40237 0.0
C813 C 0.15469 0.14955 0.41365 0.0
C814 C 0.17418 0.14742 0.4298 0.0
C815 C 0.19516 0.15895 0.42374 0.0
C816 C 0.17803 0.17427 0.38643 0.0
C817 C 0.157 0.16309 0.39165 0.0
H818 H 0.21016 0.1569 0.43597 0.0
H819 H 0.17974 0.18444 0.36925 0.0
H820 H 0.27147 0.16367 0.39729 0.0
H821 H 0.24051 0.10598 0.361 0.0
H822 H 0.1816 0.25489 0.43202 0.0
H823 H 0.17322 0.13707 0.44694 0.0
H824 H 0.1428 0.16474 0.37819 0.0
C825 C 0.62536 0.48873 0.1139 0.0
C826 C 0.64187 0.5061 0.11634 0.0
N827 N 0.63508 0.52069 0.13497 0.0
N828 N 0.60812 0.49226 0.13086 0.0
C829 C 0.61447 0.51191 0.14335 0.0
H830 H 0.62612 0.47409 0.101 0.0
Co831 Co 0.58236 0.47245 0.13579 0.0
C832 C 0.5777 0.47672 0.19319 0.0
O833 O 0.58089 0.45427 0.19646 0.0
N834 N 0.55586 0.45239 0.14077 0.0
C835 C 0.53168 0.4247 0.15524 0.0
C836 C 0.55412 0.43319 0.15573 0.0
C837 C 0.53406 0.45458 0.13083 0.0
N838 N 0.51918 0.43818 0.13954 0.0
O839 O 0.562 0.49576 0.12087 0.0
H840 H 0.56823 0.42533 0.16625 0.0
H841 H 0.52879 0.46809 0.11782 0.0
O842 O 0.57783 0.48545 0.17073 0.0
C843 C 0.56328 0.49467 0.09663 0.0
O844 O 0.5789 0.48064 0.08664 0.0
N845 N 0.60297 0.44876 0.14617 0.0
C846 C 0.63211 0.41009 0.15261 0.0
C847 C 0.63423 0.4297 0.16852 0.0
C848 C 0.61983 0.44925 0.16452 0.0
C849 C 0.60195 0.43059 0.12957 0.0
C850 C 0.61587 0.41096 0.13275 0.0
H851 H 0.62218 0.46465 0.17609 0.0
H852 H 0.58972 0.43117 0.11394 0.0
H853 H 0.60426 0.51954 0.15844 0.0
H854 H 0.65807 0.50733 0.10583 0.0
H855 H 0.52507 0.40962 0.16536 0.0
H856 H 0.64708 0.43007 0.18358 0.0
H857 H 0.61353 0.3964 0.11991 0.0
C858 C 0.28277 0.87422 0.86362 0.0
C859 C 0.26603 0.89134 0.86451 0.0
N860 N 0.24805 0.88352 0.87861 0.0
N861 N 0.27561 0.85566 0.87732 0.0
C862 C 0.25418 0.86173 0.88604 0.0
H863 H 0.29934 0.87535 0.85384 0.0
Co864 Co 0.2941 0.82898 0.88223 0.0
C865 C 0.28651 0.81822 0.93711 0.0
O866 O 0.30923 0.81722 0.94008 0.0
N867 N 0.3131 0.80153 0.88679 0.0
C868 C 0.34113 0.77659 0.89858 0.0
C869 C 0.33381 0.79934 0.89914 0.0
C870 C 0.30865 0.77948 0.87847 0.0
N871 N 0.32535 0.76419 0.8855 0.0
O872 O 0.27198 0.81085 0.86252 0.0
H873 H 0.3431 0.81313 0.90879 0.0
H874 H 0.29331 0.77438 0.8679 0.0
O875 O 0.27787 0.82247 0.91508 0.0
C876 C 0.27844 0.81461 0.83962 0.0
O877 O 0.29621 0.82875 0.83583 0.0
N878 N 0.31689 0.84816 0.89717 0.0
C879 C 0.35329 0.87893 0.90825 0.0
C880 C 0.3336 0.87765 0.92408 0.0
C881 C 0.31512 0.86255 0.91774 0.0
C882 C 0.33543 0.85011 0.88112 0.0
C883 C 0.35394 0.86497 0.88651 0.0
H884 H 0.29933 0.86284 0.92895 0.0
H885 H 0.33586 0.83979 0.86397 0.0
H886 H 0.24356 0.8507 0.89809 0.0
H887 H 0.26698 0.90826 0.85542 0.0
H888 H 0.35692 0.76965 0.90704 0.0
H889 H 0.3322 0.88872 0.94064 0.0
H890 H 0.36873 0.86544 0.8737 0.0
C891 C 0.89532 0.53608 0.60286 0.0
C892 C 0.87822 0.51946 0.60543 0.0
N893 N 0.88514 0.50389 0.62302 0.0
N894 N 0.91309 0.53126 0.61876 0.0
C895 C 0.9065 0.51134 0.63074 0.0
H896 H 0.89477 0.55091 0.5902 0.0
Co897 Co 0.93931 0.55074 0.62091 0.0
C898 C 0.95763 0.5449 0.67322 0.0
O899 O 0.962 0.56743 0.67336 0.0
N900 N 0.96596 0.57053 0.62185 0.0
C901 C 0.99071 0.60006 0.61575 0.0
C902 C 0.96773 0.59326 0.61517 0.0
C903 C 0.98843 0.56387 0.62585 0.0
N904 N 1.0038 0.58157 0.62238 0.0
O905 O 0.95707 0.52932 0.59998 0.0
H906 H 0.95365 0.60441 0.60922 0.0
H907 H 0.99343 0.54616 0.63052 0.0
O908 O 0.94895 0.5354 0.65326 0.0
C909 C 0.9535 0.53662 0.57737 0.0
O910 O 0.93947 0.55455 0.57431 0.0
N911 N 0.92061 0.57307 0.63794 0.0
C912 C 0.89518 0.61156 0.65486 0.0
C913 C 0.89985 0.59283 0.67128 0.0
C914 C 0.91217 0.57333 0.6622 0.0
C915 C 0.91326 0.58958 0.6212 0.0
C916 C 0.90107 0.60918 0.62927 0.0
H917 H 0.91485 0.55872 0.67474 0.0
H918 H 0.91775 0.58796 0.60139 0.0
H919 H 0.91688 0.50273 0.64511 0.0
H920 H 0.86198 0.51879 0.59492 0.0
H921 H 0.99723 0.61737 0.61146 0.0
H922 H 0.89457 0.59346 0.69096 0.0
H923 H 0.89661 0.62256 0.61559 0.0
C924 C 0.25203 0.86109 0.18411 0.0
C925 C 0.26873 0.87772 0.17926 0.0
N926 N 0.2718 0.87914 0.15403 0.0
N927 N 0.24453 0.85171 0.16215 0.0
C928 C 0.25684 0.86317 0.14403 0.0
H929 H 0.24528 0.85671 0.20261 0.0
Co930 Co 0.22051 0.82937 0.16111 0.0
C931 C 0.21649 0.81229 0.10816 0.0
O932 O 0.19391 0.81091 0.1124 0.0
N933 N 0.19626 0.80632 0.16152 0.0
C934 C 0.16293 0.78627 0.16534 0.0
C935 C 0.17291 0.80813 0.16531 0.0
C936 C 0.19985 0.78295 0.15963 0.0
N937 N 0.17994 0.77044 0.16192 0.0
O938 O 0.24072 0.80683 0.17733 0.0
H939 H 0.1633 0.82404 0.16823 0.0
H940 H 0.21682 0.77517 0.15641 0.0
O941 O 0.23008 0.81935 0.12606 0.0
C942 C 0.23635 0.80612 0.20112 0.0
O943 O 0.22077 0.82068 0.21029 0.0
N944 N 0.20023 0.85251 0.14829 0.0
C945 C 0.1651 0.88445 0.13604 0.0
C946 C 0.18156 0.87745 0.1178 0.0
C947 C 0.19932 0.86178 0.12444 0.0
C948 C 0.18651 0.86155 0.16689 0.0
C949 C 0.16841 0.87693 0.16113 0.0
H950 H 0.21205 0.85714 0.11027 0.0
H951 H 0.18857 0.85538 0.18614 0.0
H952 H 0.25463 0.86013 0.12395 0.0
H953 H 0.27718 0.88866 0.19326 0.0
H954 H 0.14463 0.7823 0.16838 0.0
H955 H 0.18062 0.8838 0.0985 0.0
H956 H 0.1565 0.88181 0.17613 0.0
C957 C 0.89425 0.46681 0.91104 0.0
C958 C 0.87648 0.48256 0.91438 0.0
N959 N 0.88491 0.50422 0.91029 0.0
N960 N 0.914 0.4782 0.90446 0.0
C961 C 0.90795 0.50109 0.90523 0.0
H962 H 0.8927 0.44813 0.91332 0.0
Co963 Co 0.9431 0.46354 0.89795 0.0
C964 C 0.93629 0.49338 0.84957 0.0
O965 O 0.91447 0.49885 0.85427 0.0
N966 N 0.97189 0.44887 0.89197 0.0
C967 C 1.00067 0.43088 0.87164 0.0
C968 C 0.97836 0.43936 0.86968 0.0
C969 C 0.99058 0.44569 0.90736 0.0
N970 N 1.00846 0.43496 0.89531 0.0
O971 O 0.95904 0.48715 0.91805 0.0
H972 H 0.96745 0.43845 0.85301 0.0
H973 H 0.99128 0.45144 0.92685 0.0
O974 O 0.94779 0.48061 0.8652 0.0
C975 C 0.95549 0.48147 0.94122 0.0
O976 O 0.94185 0.46347 0.94585 0.0
N977 N 0.92771 0.43859 0.88166 0.0
C978 C 0.90523 0.39743 0.86648 0.0
C979 C 0.90493 0.41743 0.85099 0.0
C980 C 0.91621 0.43794 0.85898 0.0
C981 C 0.92825 0.41934 0.8968 0.0
C982 C 0.91712 0.39872 0.8897 0.0
H983 H 0.91538 0.45308 0.84698 0.0
H984 H 0.93708 0.42024 0.91491 0.0
H985 H 0.92005 0.51509 0.90094 0.0
H986 H 0.85867 0.47822 0.9194 0.0
H987 H 1.01028 0.42206 0.85683 0.0
H988 H 0.89609 0.41729 0.83285 0.0
H989 H 0.91739 0.38412 0.90274 0.0
C990 C 0.28292 0.14075 0.69045 0.0
C991 C 0.26451 0.12525 0.68905 0.0
N992 N 0.24857 0.13371 0.67258 0.0
N993 N 0.27874 0.15896 0.67493 0.0
C994 C 0.25763 0.15429 0.66452 0.0
H995 H 0.29874 0.13853 0.70142 0.0
Co996 Co 0.29935 0.18357 0.66776 0.0
C997 C 0.27934 0.20331 0.61972 0.0
O998 O 0.28045 0.22476 0.62846 0.0
N999 N 0.32 0.20821 0.66018 0.0
C1000 C 0.34402 0.23138 0.63858 0.0
C1001 C 0.3328 0.21019 0.63878 0.0
C1002 C 0.32411 0.22832 0.67291 0.0
N1003 N 0.33843 0.24286 0.65998 0.0
O1004 O 0.27792 0.20572 0.68281 0.0
H1005 H 0.3333 0.19737 0.62376 0.0
H1006 H 0.31606 0.23271 0.69078 0.0
O1007 O 0.28569 0.18631 0.6338 0.0
C1008 C 0.27927 0.20483 0.70703 0.0
O1009 O 0.29176 0.18805 0.71727 0.0
N1010 N 0.32146 0.16208 0.65607 0.0
C1011 C 0.35982 0.1346 0.64305 0.0
C1012 C 0.33967 0.13477 0.62778 0.0
C1013 C 0.32051 0.14869 0.63468 0.0
C1014 C 0.34028 0.16098 0.67181 0.0
C1015 C 0.35967 0.14751 0.66561 0.0
H1016 H 0.30524 0.14902 0.62265 0.0
H1017 H 0.34044 0.17127 0.68899 0.0
H1018 H 0.24926 0.16567 0.65094 0.0
H1019 H 0.26353 0.10858 0.69863 0.0
H1020 H 0.35516 0.23798 0.62362 0.0
H1021 H 0.33903 0.12489 0.61031 0.0
H1022 H 0.3746 0.14745 0.67825 0.0
C1023 C 0.61056 0.51829 0.44419 0.0
C1024 C 0.62888 0.50306 0.44323 0.0
N1025 N 0.63548 0.50071 0.41894 0.0
N1026 N 0.60518 0.52559 0.42062 0.0
C1027 C 0.62071 0.51441 0.40541 0.0
H1028 H 0.60249 0.52446 0.46137 0.0
Co1029 Co 0.58326 0.54951 0.4163 0.0
C1030 C 0.56838 0.55055 0.36233 0.0
O1031 O 0.56693 0.57329 0.36506 0.0
N1032 N 0.56071 0.57383 0.41384 0.0
C1033 C 0.54097 0.60705 0.41848 0.0
C1034 C 0.56272 0.59697 0.41853 0.0
C1035 C 0.53737 0.57048 0.41101 0.0
N1036 N 0.52496 0.59033 0.41398 0.0
O1037 O 0.55942 0.53028 0.43221 0.0
H1038 H 0.57859 0.60619 0.42298 0.0
H1039 H 0.52956 0.55358 0.40743 0.0
O1040 O 0.57501 0.538 0.38128 0.0
C1041 C 0.55643 0.53642 0.45533 0.0
O1042 O 0.56958 0.55327 0.46449 0.0
N1043 N 0.60734 0.56898 0.40383 0.0
C1044 C 0.6395 0.60418 0.39206 0.0
C1045 C 0.63303 0.58742 0.37387 0.0
C1046 C 0.61717 0.5697 0.38025 0.0
C1047 C 0.61599 0.58287 0.42252 0.0
C1048 C 0.63145 0.60101 0.41699 0.0
H1049 H 0.6128 0.55688 0.36607 0.0
H1050 H 0.60932 0.58102 0.4416 0.0
H1051 H 0.62208 0.51728 0.3852 0.0
H1052 H 0.63729 0.49491 0.45934 0.0
H1053 H 0.53722 0.62512 0.42286 0.0
H1054 H 0.63982 0.58816 0.35475 0.0
H1055 H 0.63587 0.6131 0.43199 0.0
H1056 H 0.27317 0.31198 0.26177 0.0
H1057 H 0.27522 0.26391 0.1983 0.0
H1058 H 0.26914 0.23084 0.22776 0.0
H1059 H 0.30293 0.27663 0.30665 0.0
H1060 H 0.28485 0.28461 0.33322 0.0
H1061 H 0.28883 0.30476 0.30734 0.0
H1062 H 0.24399 0.30731 0.30088 0.0
H1063 H 0.23986 0.28764 0.32713 0.0
H1064 H 0.22733 0.28084 0.29669 0.0
H1065 H 0.26451 0.20303 0.26412 0.0
H1066 H 0.25496 0.18252 0.30387 0.0
H1067 H 0.25492 0.24838 0.34425 0.0
C1068 C 0.27199 0.2945 0.25403 0.0
C1069 C 0.27463 0.29051 0.22768 0.0
C1070 C 0.27299 0.26743 0.21831 0.0
C1071 C 0.26981 0.24852 0.23497 0.0
C1072 C 0.26801 0.25302 0.2609 0.0
C1073 C 0.26847 0.27548 0.27035 0.0
C1074 C 0.26527 0.27556 0.29896 0.0
C1075 C 0.28675 0.28601 0.31232 0.0
C1076 C 0.24278 0.2886 0.30635 0.0
C1077 C 0.26315 0.24958 0.3042 0.0
C1078 C 0.26505 0.23695 0.28194 0.0
C1079 C 0.26303 0.21274 0.28162 0.0
C1080 C 0.25783 0.20122 0.30435 0.0
C1081 C 0.25469 0.21379 0.3272 0.0
C1082 C 0.25801 0.23826 0.32725 0.0
H1083 H 0.045 0.9741 0.54407 0.0
H1084 H 0.02851 0.02135 0.60583 0.0
H1085 H 1.00063 0.04209 0.57795 0.0
H1086 H 0.04222 0.01683 0.49364 0.0
H1087 H 0.02915 0.997 0.47121 0.0
H1088 H 0.04797 0.98595 0.49582 0.0
H1089 H 0.01508 0.95801 0.51069 0.0
H1090 H 0.99614 0.969 0.48616 0.0
H1091 H 0.98684 0.96979 0.51877 0.0
H1092 H 0.97444 0.05714 0.54408 0.0
H1093 H 0.95142 0.06656 0.50647 0.0
H1094 H 0.98454 1.00985 0.46526 0.0
C1095 C 0.03559 0.98886 0.55179 0.0
C1096 C 0.03899 0.99611 0.57726 0.0
C1097 C 0.02626 0.01547 0.58648 0.0
C1098 C 1.01039 0.02734 0.57076 0.0
C1099 C 1.00745 0.01966 0.54584 0.0
C1100 C 0.0197 1.00091 0.53634 0.0
C1101 C 0.0131 0.99619 0.50885 0.0
C1102 C 0.03438 0.99918 0.49135 0.0
C1103 C 1.00214 0.9718 0.50596 0.0
C1104 C 0.99514 0.01525 0.50433 0.0
C1105 C 0.99225 0.02848 0.52604 0.0
C1106 C 0.97659 0.04693 0.527 0.0
C1107 C 0.96352 0.05208 0.50534 0.0
C1108 C 0.96601 0.03895 0.48264 0.0
C1109 C 0.98217 0.02024 0.48219 0.0
H1110 H 0.26241 0.76894 0.83422 0.0
H1111 H 0.27305 0.83388 0.79349 0.0
H1112 H 0.26486 0.81395 0.75312 0.0
H1113 H 0.2901 0.73278 0.78944 0.0
H1114 H 0.27018 0.70852 0.79246 0.0
H1115 H 0.27466 0.72806 0.81875 0.0
H1116 H 0.2302 0.73647 0.82088 0.0
H1117 H 0.22552 0.71654 0.79497 0.0
H1118 H 0.2151 0.74616 0.7928 0.0
H1119 H 0.25908 0.78642 0.71649 0.0
H1120 H 0.25073 0.75385 0.68689 0.0
H1121 H 0.2434 0.70684 0.75086 0.0
C1122 C 0.26225 0.77906 0.8169 0.0
C1123 C 0.26818 0.80304 0.81705 0.0
C1124 C 0.26843 0.81552 0.79384 0.0
C1125 C 0.26393 0.80434 0.77075 0.0
C1126 C 0.25917 0.78053 0.77101 0.0
C1127 C 0.25787 0.76807 0.79347 0.0
C1128 C 0.25302 0.74246 0.7882 0.0
C1129 C 0.27319 0.72705 0.79778 0.0
C1130 C 0.22956 0.73497 0.7999 0.0
C1131 C 0.25187 0.74259 0.75942 0.0
C1132 C 0.25568 0.76469 0.74985 0.0
C1133 C 0.25591 0.76904 0.72377 0.0
C1134 C 0.25139 0.75042 0.70705 0.0
C1135 C 0.24649 0.72784 0.71651 0.0
C1136 C 0.2471 0.72394 0.74304 0.0
H1137 H 0.48415 0.05996 0.03604 0.0
H1138 H 0.47682 0.99459 0.07701 0.0
H1139 H 0.49961 0.97463 0.04366 0.0
H1140 H 0.47877 0.03676 0.97351 0.0
H1141 H 0.50047 0.05569 0.9596 0.0
H1142 H 0.48412 0.06525 0.98685 0.0
H1143 H 0.52262 0.07295 1.01128 0.0
H1144 H 0.53912 0.06369 0.98402 0.0
H1145 H 0.54382 0.04986 1.01427 0.0
H1146 H 0.52107 0.96154 1.00569 0.0
H1147 H 0.54402 0.95575 0.96728 0.0
H1148 H 0.53918 0.02974 0.9497 0.0
C1149 C 0.48747 0.04145 0.03811 0.0
C1150 C 0.47862 0.02877 0.05919 0.0
C1151 C 0.48347 1.00465 0.0612 0.0
C1152 C 0.49628 0.99317 0.04224 0.0
C1153 C 0.50427 1.0061 0.02152 0.0
C1154 C 0.50039 0.02975 0.01944 0.0
C1155 C 0.51131 0.03949 0.99529 0.0
C1156 C 0.49254 0.04991 0.97778 0.0
C1157 C 0.53035 0.05757 1.00159 0.0
C1158 C 0.52182 0.0175 0.98392 0.0
C1159 C 0.5173 0.99854 0.9995 0.0
C1160 C 0.52491 0.97627 0.99353 0.0
C1161 C 0.53804 0.97326 0.97154 0.0
C1162 C 0.54375 0.99234 0.95541 0.0
C1163 C 0.53508 0.0148 0.96147 0.0
H1164 H 0.24155 0.80845 0.25248 0.0
H1165 H 0.25126 0.76209 0.1884 0.0
H1166 H 0.26102 0.72987 0.2179 0.0
H1167 H 0.28964 0.78504 0.29036 0.0
H1168 H 0.27435 0.78888 0.3199 0.0
H1169 H 0.26846 0.80811 0.29366 0.0
H1170 H 0.22445 0.79769 0.29665 0.0
H1171 H 0.23028 0.77805 0.32257 0.0
H1172 H 0.21548 0.76755 0.29464 0.0
H1173 H 0.26795 0.70256 0.25421 0.0
H1174 H 0.27753 0.68288 0.29432 0.0
H1175 H 0.26457 0.74707 0.33555 0.0
C1176 C 0.24602 0.79157 0.24464 0.0
C1177 C 0.24567 0.78773 0.2181 0.0
C1178 C 0.25165 0.76546 0.20858 0.0
C1179 C 0.25698 0.74704 0.22523 0.0
C1180 C 0.25655 0.75128 0.2513 0.0
C1181 C 0.25172 0.77312 0.26097 0.0
C1182 C 0.25314 0.77319 0.28976 0.0
C1183 C 0.27255 0.78978 0.29896 0.0
C1184 C 0.22942 0.7795 0.30159 0.0
C1185 C 0.25937 0.74788 0.29486 0.0
C1186 C 0.26099 0.73558 0.27235 0.0
C1187 C 0.26682 0.71204 0.27189 0.0
C1188 C 0.27212 0.701 0.29484 0.0
C1189 C 0.27167 0.71338 0.3181 0.0
C1190 C 0.26461 0.73703 0.31818 0.0
H1191 H 0.45894 1.00021 0.48501 0.0
H1192 H 0.50571 1.0051 0.42053 0.0
H1193 H 0.53876 0.01286 0.44966 0.0
H1194 H 0.48721 0.04649 0.52284 0.0
H1195 H 0.48212 0.03146 0.55234 0.0
H1196 H 0.46216 0.0276 0.52626 0.0
H1197 H 0.46824 0.98286 0.52901 0.0
H1198 H 0.48864 0.98664 0.5547 0.0
H1199 H 0.49737 0.97109 0.52658 0.0
H1200 H 0.567 0.01711 0.48577 0.0
H1201 H 0.58805 0.02376 0.52578 0.0
H1202 H 0.52309 0.01722 0.56761 0.0
C1203 C 0.47607 1.0034 0.47696 0.0
C1204 C 0.47972 1.00218 0.45039 0.0
C1205 C 0.5024 1.0063 0.44069 0.0
C1206 C 0.52131 0.01046 0.45715 0.0
C1207 C 0.51722 0.01071 0.48326 0.0
C1208 C 0.49507 1.00783 0.49311 0.0
C1209 C 0.49541 1.00909 0.52193 0.0
C1210 C 0.48087 0.0299 0.5314 0.0
C1211 C 0.48691 0.98605 0.53374 0.0
C1212 C 0.52131 0.01287 0.52682 0.0
C1213 C 0.53351 0.01353 0.50418 0.0
C1214 C 0.55759 0.01679 0.50355 0.0
C1215 C 0.56941 0.02042 0.52646 0.0
C1216 C 0.55729 0.02088 0.54991 0.0
C1217 C 0.53292 0.01652 0.5501 0.0
H1218 H 0.2713 0.2033 0.75808 0.0
H1219 H 0.2716 0.25074 0.69397 0.0
H1220 H 0.26665 0.28411 0.72331 0.0
H1221 H 0.22729 0.23513 0.79517 0.0
H1222 H 0.24123 0.22842 0.82491 0.0
H1223 H 0.24377 0.20851 0.79865 0.0
H1224 H 0.28889 0.21061 0.80247 0.0
H1225 H 0.28649 0.23098 0.82832 0.0
H1226 H 0.30333 0.23857 0.80065 0.0
H1227 H 0.26372 0.31233 0.7598 0.0
H1228 H 0.25693 0.33321 0.79997 0.0
H1229 H 0.25824 0.26757 0.84086 0.0
C1230 C 0.2699 0.22069 0.75015 0.0
C1231 C 0.27177 0.2244 0.72364 0.0
C1232 C 0.26991 0.24741 0.71409 0.0
C1233 C 0.26738 0.26649 0.73068 0.0
C1234 C 0.26646 0.26224 0.75674 0.0
C1235 C 0.26713 0.23986 0.7664 0.0
C1236 C 0.26536 0.24001 0.79517 0.0
C1237 C 0.24309 0.22727 0.80399 0.0
C1238 C 0.28733 0.22941 0.80736 0.0
C1239 C 0.26385 0.26604 0.80029 0.0
C1240 C 0.26469 0.2785 0.77781 0.0
C1241 C 0.26306 0.30273 0.77745 0.0
C1242 C 0.25942 0.31445 0.80042 0.0
C1243 C 0.25749 0.30209 0.8236 0.0
C1244 C 0.26035 0.27756 0.82358 0.0
H1245 H 0.06075 0.02608 1.00729 0.0
H1246 H 0.01246 0.02044 0.94417 0.0
H1247 H 0.98025 0.01219 0.97424 0.0
H1248 H 0.03476 0.97904 0.04494 0.0
H1249 H 0.04024 0.99357 0.07463 0.0
H1250 H 0.05932 0.9986 0.04804 0.0
H1251 H 0.05197 0.04307 0.05202 0.0
H1252 H 0.03247 0.03813 0.07828 0.0
H1253 H 0.02244 0.05399 0.05085 0.0
H1254 H 0.95313 1.00617 1.01117 0.0
H1255 H 0.93373 0.99692 0.05162 0.0
H1256 H 0.99948 1.00554 0.09143 0.0
C1257 C 0.04343 0.02281 0.99976 0.0
C1258 C 0.03913 0.02383 0.97329 0.0
C1259 C 0.01625 0.01946 0.96425 0.0
C1260 C 0.99781 0.01501 0.98125 0.0
C1261 C 1.00256 0.01476 1.00723 0.0
C1262 C 0.02491 0.01805 1.01644 0.0
C1263 C 0.02541 0.01618 0.04522 0.0
C1264 C 0.04084 0.99563 0.0537 0.0
C1265 C 0.03356 0.03922 0.0573 0.0
C1266 C 0.99978 0.01152 0.05085 0.0
C1267 C 0.98694 0.011 0.0286 0.0
C1268 C 0.96303 1.00653 0.02865 0.0
C1269 C 0.95213 1.00147 0.05178 0.0
C1270 C 0.96497 1.00087 0.07476 0.0
C1271 C 0.98906 1.00653 0.07433 0.0
H1272 H 0.76266 0.74082 0.83891 0.0
H1273 H 0.75899 0.67605 0.79675 0.0
H1274 H 0.76371 0.69782 0.75666 0.0
H1275 H 0.72891 0.77353 0.79686 0.0
H1276 H 0.74522 0.80033 0.79993 0.0
H1277 H 0.74468 0.77968 0.82566 0.0
H1278 H 0.78993 0.77764 0.82568 0.0
H1279 H 0.79064 0.79881 0.80044 0.0
H1280 H 0.80515 0.77112 0.79664 0.0
H1281 H 0.76499 0.72719 0.72056 0.0
H1282 H 0.76816 0.7615 0.69206 0.0
H1283 H 0.77011 0.80704 0.75766 0.0
C1284 C 0.7639 0.73118 0.82134 0.0
C1285 C 0.76104 0.70665 0.821 0.0
C1286 C 0.76166 0.69478 0.79746 0.0
C1287 C 0.76408 0.70702 0.77455 0.0
C1288 C 0.76572 0.73128 0.77537 0.0
C1289 C 0.76607 0.74322 0.79818 0.0
C1290 C 0.76693 0.76938 0.79372 0.0
C1291 C 0.74514 0.78143 0.8047 0.0
C1292 C 0.78951 0.77985 0.80477 0.0
C1293 C 0.76694 0.77024 0.76495 0.0
C1294 C 0.76609 0.74811 0.75467 0.0
C1295 C 0.76577 0.74462 0.72843 0.0
C1296 C 0.76727 0.76421 0.71233 0.0
C1297 C 0.76926 0.78698 0.72253 0.0
C1298 C 0.76853 0.78988 0.7492 0.0
H1299 H 0.77179 0.26613 0.31275 0.0
H1300 H 0.77977 0.33092 0.27109 0.0
H1301 H 0.77199 0.31033 0.23105 0.0
H1302 H 0.79984 0.23006 0.26806 0.0
H1303 H 0.7805 0.20538 0.27145 0.0
H1304 H 0.78469 0.22522 0.29754 0.0
H1305 H 0.74009 0.23269 0.29996 0.0
H1306 H 0.73571 0.21239 0.27432 0.0
H1307 H 0.72458 0.24174 0.27188 0.0
H1308 H 0.76686 0.28244 0.19493 0.0
H1309 H 0.75827 0.2497 0.16574 0.0
H1310 H 0.75295 0.20284 0.23012 0.0
C1311 C 0.77105 0.27602 0.29528 0.0
C1312 C 0.7761 0.30019 0.29505 0.0
C1313 C 0.77575 0.31243 0.2717 0.0
C1314 C 0.77152 0.30087 0.2488 0.0
C1315 C 0.76761 0.27693 0.2494 0.0
C1316 C 0.76683 0.26465 0.27201 0.0
C1317 C 0.76255 0.23888 0.26704 0.0
C1318 C 0.78312 0.22402 0.27659 0.0
C1319 C 0.73935 0.23096 0.279 0.0
C1320 C 0.76122 0.23873 0.23825 0.0
C1321 C 0.76443 0.26082 0.22845 0.0
C1322 C 0.76418 0.26503 0.20237 0.0
C1323 C 0.75958 0.24629 0.18588 0.0
C1324 C 0.75506 0.22371 0.19558 0.0
C1325 C 0.75644 0.21991 0.2221 0.0
H1326 H 0.75292 0.26864 0.68758 0.0
H1327 H 0.74828 0.33358 0.72942 0.0
H1328 H 0.75578 0.31255 0.76931 0.0
H1329 H 0.7241 0.23377 0.73123 0.0
H1330 H 0.74228 0.20817 0.72894 0.0
H1331 H 0.73978 0.22764 0.70236 0.0
H1332 H 0.78417 0.23407 0.7003 0.0
H1333 H 0.78754 0.21346 0.72585 0.0
H1334 H 0.79986 0.24235 0.72855 0.0
H1335 H 0.75967 0.28407 0.80553 0.0
H1336 H 0.76567 0.25058 0.83457 0.0
H1337 H 0.76864 0.20405 0.76984 0.0
C1338 C 0.75444 0.27848 0.70501 0.0
C1339 C 0.75034 0.30286 0.70529 0.0
C1340 C 0.75161 0.31497 0.72869 0.0
C1341 C 0.75569 0.30315 0.75153 0.0
C1342 C 0.75862 0.27905 0.75087 0.0
C1343 C 0.7586 0.26686 0.72821 0.0
C1344 C 0.76177 0.24089 0.7331 0.0
C1345 C 0.74071 0.2268 0.72334 0.0
C1346 C 0.7847 0.23218 0.72125 0.0
C1347 C 0.763 0.24048 0.7619 0.0
C1348 C 0.76107 0.26266 0.77181 0.0
C1349 C 0.76137 0.2666 0.79796 0.0
C1350 C 0.7645 0.24745 0.81438 0.0
C1351 C 0.76748 0.22465 0.80459 0.0
C1352 C 0.76633 0.22124 0.77798 0.0
H1353 H 0.7558 0.76732 0.34168 0.0
H1354 H 0.75595 0.83385 0.3026 0.0
H1355 H 0.76394 0.81388 0.26211 0.0
H1356 H 0.80205 0.73916 0.30224 0.0
H1357 H 0.7875 0.71122 0.30311 0.0
H1358 H 0.78447 0.73119 0.32925 0.0
H1359 H 0.73943 0.72882 0.32455 0.0
H1360 H 0.74234 0.70942 0.29791 0.0
H1361 H 0.72614 0.73621 0.29465 0.0
H1362 H 0.7678 0.78635 0.22488 0.0
H1363 H 0.77375 0.75349 0.19498 0.0
H1364 H 0.7712 0.70489 0.25794 0.0
C1365 C 0.75857 0.77768 0.32479 0.0
C1366 C 0.75582 0.8022 0.32536 0.0
C1367 C 0.7585 0.8151 0.30262 0.0
C1368 C 0.76277 0.80389 0.27947 0.0
C1369 C 0.76427 0.77964 0.27922 0.0
C1370 C 0.76276 0.76669 0.30134 0.0
C1371 C 0.76423 0.74077 0.29559 0.0
C1372 C 0.78585 0.72995 0.30829 0.0
C1373 C 0.7417 0.72807 0.30366 0.0
C1374 C 0.7667 0.74125 0.26692 0.0
C1375 C 0.76644 0.76382 0.25778 0.0
C1376 C 0.76817 0.76858 0.23184 0.0
C1377 C 0.77122 0.74981 0.21492 0.0
C1378 C 0.77278 0.72664 0.22406 0.0
C1379 C 0.76995 0.72242 0.25035 0.0
H1380 H 0.50427 0.52122 0.96142 0.0
H1381 H 0.43984 0.53411 1.00237 0.0
H1382 H 0.45983 0.5263 0.04274 0.0
H1383 H 0.52542 0.47387 1.00354 0.0
H1384 H 0.55549 0.48308 1.00119 0.0
H1385 H 0.53568 0.48827 0.97526 0.0
H1386 H 0.54599 0.53232 0.97685 0.0
H1387 H 0.56544 0.52733 1.00315 0.0
H1388 H 0.54204 0.54821 1.00599 0.0
H1389 H 0.48728 0.52046 0.07929 0.0
H1390 H 0.51932 0.51077 0.10902 0.0
H1391 H 0.56597 0.50049 0.04518 0.0
C1392 C 0.49428 0.52169 0.97883 0.0
C1393 C 0.47041 0.52816 0.97866 0.0
C1394 C 0.45811 0.52915 1.00198 0.0
C1395 C 0.46934 0.52487 0.02509 0.0
C1396 C 0.49302 0.51951 0.02482 0.0
C1397 C 0.50532 0.51742 1.00233 0.0
C1398 C 0.53076 0.51161 1.00767 0.0
C1399 C 0.53721 0.48779 0.99624 0.0
C1400 C 0.54701 0.53102 0.99783 0.0
C1401 C 0.53069 0.51076 0.0365 0.0
C1402 C 0.5088 0.51567 0.04601 0.0
C1403 C 0.50449 0.51636 0.07207 0.0
C1404 C 0.52284 0.51103 0.08887 0.0
C1405 C 0.54515 0.50475 0.07955 0.0
C1406 C 0.5491 0.50515 0.05298 0.0
H1407 H 0.99731 0.51569 0.57243 0.0
H1408 H 0.93599 0.53708 0.52998 0.0
H1409 H 0.95618 0.52843 0.49 0.0
H1410 H 0.03922 0.53971 0.53049 0.0
H1411 H 0.05998 0.51619 0.53317 0.0
H1412 H 0.04039 0.52239 0.55899 0.0
H1413 H 0.02518 0.47976 0.55815 0.0
H1414 H 0.04504 0.47333 0.53262 0.0
H1415 H 0.01421 0.46772 0.5289 0.0
H1416 H 0.98372 0.52033 0.45415 0.0
H1417 H 0.01566 0.50873 0.42513 0.0
H1418 H 0.05917 0.49202 0.49003 0.0
C1419 C 0.98799 0.51791 0.55474 0.0
C1420 C 0.965 0.527 0.5544 0.0
C1421 C 0.95359 0.53016 0.53077 0.0
C1422 C 0.96493 0.52537 0.50787 0.0
C1423 C 0.98781 0.51728 0.5087 0.0
C1424 C 0.99915 0.51318 0.53146 0.0
C1425 C 0.02392 0.50474 0.52673 0.0
C1426 C 0.04194 0.52178 0.53802 0.0
C1427 C 0.02728 0.47991 0.53722 0.0
C1428 C 0.02466 0.50498 0.49792 0.0
C1429 C 1.00368 0.5124 0.4879 0.0
C1430 C 1.00023 0.51435 0.46177 0.0
C1431 C 0.01853 0.50793 0.44539 0.0
C1432 C 0.03994 0.49954 0.45521 0.0
C1433 C 0.04301 0.49839 0.48187 0.0
H1434 H 0.06512 0.51843 0.02716 0.0
H1435 H 0.01866 0.51323 0.09188 0.0
H1436 H 0.9857 0.50438 0.06301 0.0
H1437 H 0.02549 0.54567 0.98462 0.0
H1438 H 0.03474 0.52963 0.95703 0.0
H1439 H 0.055 0.53483 0.98256 0.0
H1440 H 0.06261 0.49042 0.98675 0.0
H1441 H 0.04275 0.48511 0.96088 0.0
H1442 H 0.03822 0.4708 0.99089 0.0
H1443 H 0.95759 0.49782 0.02714 0.0
H1444 H 0.93693 0.48854 0.98743 0.0
H1445 H 1.00142 0.4972 0.94529 0.0
C1446 C 0.04806 0.5151 0.0353 0.0
C1447 C 0.0445 0.51643 0.06187 0.0
C1448 C 0.02191 0.51201 0.07171 0.0
C1449 C 1.00304 0.50721 0.0554 0.0
C1450 C 1.00706 0.50666 0.02929 0.0
C1451 C 0.0291 0.51001 0.0193 0.0
C1452 C 0.02875 0.50791 0.99054 0.0
C1453 C 0.03646 0.53088 0.97795 0.0
C1454 C 0.04398 0.48734 0.98175 0.0
C1455 C 1.00298 0.50312 0.98584 0.0
C1456 C 0.99083 0.50265 1.00852 0.0
C1457 C 0.96695 0.49812 1.00933 0.0
C1458 C 0.95533 0.49302 0.98661 0.0
C1459 C 0.96745 0.49245 0.96319 0.0
C1460 C 0.99155 0.49811 0.96276 0.0
H1461 H 0.55626 0.53364 0.5069 0.0
H1462 H 0.51403 0.51816 0.44073 0.0
H1463 H 0.48103 0.50709 0.46876 0.0
H1464 H 0.53462 0.4853 0.54519 0.0
H1465 H 0.53593 0.50169 0.57429 0.0
H1466 H 0.55589 0.50831 0.5489 0.0
H1467 H 0.54207 0.55138 0.54962 0.0
H1468 H 0.52172 0.54477 0.57468 0.0
H1469 H 0.51144 0.55784 0.54567 0.0
H1470 H 0.45247 0.49914 0.50392 0.0
H1471 H 0.43173 0.48922 0.54333 0.0
H1472 H 0.49286 0.50851 0.5873 0.0
C1473 C 0.54011 0.52773 0.4983 0.0
C1474 C 0.53763 0.52678 0.4716 0.0
C1475 C 0.51633 0.51882 0.46108 0.0
C1476 C 0.49747 0.51273 0.47688 0.0
C1477 C 0.50035 0.5144 0.50312 0.0
C1478 C 0.52129 0.52124 0.51378 0.0
C1479 C 0.52012 0.52067 0.54256 0.0
C1480 C 0.53768 0.50294 0.55337 0.0
C1481 C 0.52407 0.54512 0.55379 0.0
C1482 C 0.49511 0.51259 0.54653 0.0
C1483 C 0.48402 0.50934 0.52347 0.0
C1484 C 0.46102 0.50157 0.52202 0.0
C1485 C 0.44935 0.49609 0.54457 0.0
C1486 C 0.46059 0.49825 0.56843 0.0
C1487 C 0.48364 0.50717 0.56943 0.0
H1488 H 0.36821 0.23684 0.18298 0.0
H1489 H 0.30403 0.24079 0.13924 0.0
H1490 H 0.30551 0.19815 0.13249 0.0
H1491 H 0.39655 0.19683 0.14335 0.0
H1492 H 0.41115 0.18167 0.16875 0.0
H1493 H 0.40344 0.21191 0.17239 0.0
H1494 H 0.38039 0.2018 0.21325 0.0
H1495 H 0.38791 0.17144 0.20961 0.0
H1496 H 0.35768 0.17996 0.21211 0.0
H1497 H 0.31596 0.15534 0.12759 0.0
H1498 H 0.33493 0.11672 0.12397 0.0
H1499 H 0.39279 0.14163 0.16981 0.0
C1500 C 0.35438 0.2289 0.17199 0.0
C1501 C 0.336 0.24239 0.16163 0.0
C1502 C 0.31816 0.23094 0.14767 0.0
C1503 C 0.31888 0.20668 0.14368 0.0
C1504 C 0.33748 0.19405 0.15388 0.0
C1505 C 0.35488 0.20482 0.16776 0.0
C1506 C 0.37379 0.1877 0.17534 0.0
C1507 C 0.39763 0.19496 0.16429 0.0
C1508 C 0.375 0.18507 0.2043 0.0
C1509 C 0.36464 0.16567 0.16301 0.0
C1510 C 0.34353 0.16957 0.15097 0.0
C1511 C 0.33237 0.15207 0.13715 0.0
C1512 C 0.34333 0.13021 0.13512 0.0
C1513 C 0.3653 0.12606 0.14672 0.0
C1514 C 0.37576 0.14399 0.16124 0.0
H1515 H 0.01687 0.13458 0.40416 0.0
H1516 H 0.0243 0.06405 0.43315 0.0
H1517 H 0.06696 0.07018 0.43711 0.0
H1518 H 0.06933 0.1363 0.36817 0.0
H1519 H 0.07541 0.16643 0.37556 0.0
H1520 H 0.04567 0.15611 0.37492 0.0
H1521 H 0.03968 0.1709 0.42087 0.0
H1522 H 0.06944 0.18119 0.42169 0.0
H1523 H 0.05916 0.16111 0.44554 0.0
H1524 H 0.10952 0.08458 0.43752 0.0
H1525 H 0.14737 0.10523 0.43281 0.0
H1526 H 0.11058 0.16672 0.40609 0.0
C1527 C 0.0273 0.12042 0.41159 0.0
C1528 C 0.01704 0.09883 0.41838 0.0
C1529 C 0.03165 0.08067 0.42751 0.0
C1530 C 0.05592 0.08406 0.43004 0.0
C1531 C 0.06533 0.10572 0.42344 0.0
C1532 C 0.05138 0.12355 0.41438 0.0
C1533 C 0.06555 0.14516 0.4084 0.0
C1534 C 0.06389 0.15135 0.38009 0.0
C1535 C 0.05801 0.1658 0.42513 0.0
C1536 C 0.08974 0.13675 0.41535 0.0
C1537 C 0.08939 0.11399 0.42403 0.0
C1538 C 0.10993 0.10246 0.43089 0.0
C1539 C 0.13135 0.11439 0.42833 0.0
C1540 C 0.13204 0.1376 0.41898 0.0
C1541 C 0.1108 0.1489 0.41296 0.0
H1542 H 0.10894 0.86284 0.6653 0.0
H1543 H 0.17557 0.89897 0.66375 0.0
H1544 H 0.19619 0.86104 0.66614 0.0
H1545 H 0.12615 0.81503 0.70785 0.0
H1546 H 0.10928 0.79363 0.69069 0.0
H1547 H 0.09996 0.82366 0.69131 0.0
H1548 H 0.09976 0.82444 0.64223 0.0
H1549 H 0.10925 0.7945 0.64146 0.0
H1550 H 0.12593 0.81664 0.62522 0.0
H1551 H 0.20944 0.81895 0.66695 0.0
H1552 H 0.21445 0.77632 0.66572 0.0
H1553 H 0.13897 0.76762 0.66422 0.0
C1554 C 0.12786 0.86275 0.66611 0.0
C1555 C 0.14071 0.88382 0.66473 0.0
C1556 C 0.16545 0.883 0.66499 0.0
C1557 C 0.17728 0.86156 0.66635 0.0
C1558 C 0.1641 0.84106 0.66721 0.0
C1559 C 0.13993 0.84148 0.6671 0.0
C1560 C 0.12992 0.81695 0.66655 0.0
C1561 C 0.11548 0.81204 0.69053 0.0
C1562 C 0.11536 0.81291 0.64243 0.0
C1563 C 0.15222 0.80267 0.66622 0.0
C1564 C 0.17173 0.81689 0.6668 0.0
C1565 C 0.19426 0.80766 0.66645 0.0
C1566 C 0.19691 0.7833 0.66552 0.0
C1567 C 0.17715 0.76827 0.66473 0.0
C1568 C 0.15453 0.77834 0.66507 0.0
H1569 H 0.46516 0.94638 0.86304 0.0
H1570 H 0.49522 0.93415 0.93725 0.0
H1571 H 0.45655 0.92115 0.95298 0.0
H1572 H 0.40626 0.96514 0.88479 0.0
H1573 H 0.39215 0.95039 0.85877 0.0
H1574 H 0.42113 0.96228 0.85485 0.0
H1575 H 0.43623 0.92167 0.84062 0.0
H1576 H 0.40739 0.90973 0.84442 0.0
H1577 H 0.4317 0.89677 0.86096 0.0
H1578 H 0.41569 0.90401 0.95852 0.0
H1579 H 0.37753 0.88401 0.95287 0.0
H1580 H 0.37482 0.90828 0.87518 0.0
C1581 C 0.46358 0.94127 0.8827 0.0
C1582 C 0.48322 0.94119 0.89887 0.0
C1583 C 0.48036 0.93457 0.92456 0.0
C1584 C 0.45845 0.92715 0.93364 0.0
C1585 C 0.43955 0.92682 0.9169 0.0
C1586 C 0.44195 0.93393 0.892 0.0
C1587 C 0.41974 0.93002 0.87707 0.0
C1588 C 0.4092 0.95335 0.86836 0.0
C1589 C 0.42403 0.91357 0.85446 0.0
C1590 C 0.40474 0.91859 0.8971 0.0
C1591 C 0.4162 0.9172 0.92012 0.0
C1592 C 0.40639 0.90543 0.94073 0.0
C1593 C 0.38469 0.89421 0.93742 0.0
C1594 C 0.3733 0.89466 0.91362 0.0
C1595 C 0.38314 0.90772 0.89361 0.0
H1596 H 0.41246 0.86264 0.36796 0.0
H1597 H 0.34943 0.90382 0.35967 0.0
H1598 H 0.32601 0.86741 0.3567 0.0
H1599 H 0.39457 0.8131 0.32669 0.0
H1600 H 0.40854 0.79222 0.34727 0.0
H1601 H 0.42022 0.82135 0.34444 0.0
H1602 H 0.41738 0.82642 0.39315 0.0
H1603 H 0.40556 0.79746 0.39612 0.0
H1604 H 0.38963 0.822 0.40864 0.0
H1605 H 0.30919 0.82582 0.36033 0.0
H1606 H 0.30114 0.78418 0.37023 0.0
H1607 H 0.37562 0.77148 0.37609 0.0
C1608 C 0.39377 0.86401 0.36502 0.0
C1609 C 0.38274 0.88601 0.36406 0.0
C1610 C 0.35826 0.88711 0.36016 0.0
C1611 C 0.34483 0.86652 0.35853 0.0
C1612 C 0.35624 0.84504 0.3605 0.0
C1613 C 0.38024 0.84377 0.36338 0.0
C1614 C 0.38831 0.81891 0.3672 0.0
C1615 C 0.40382 0.81093 0.34508 0.0
C1616 C 0.40095 0.81605 0.39279 0.0
C1617 C 0.36506 0.80638 0.36705 0.0
C1618 C 0.3467 0.82154 0.36277 0.0
C1619 C 0.32351 0.81381 0.36335 0.0
C1620 C 0.31907 0.79014 0.36894 0.0
C1621 C 0.33774 0.77464 0.37419 0.0
C1622 C 0.36095 0.78292 0.37252 0.0
H1623 H 0.40435 0.15137 0.64421 0.0
H1624 H 0.36418 0.08977 0.6244 0.0
H1625 H 0.40099 0.06895 0.61387 0.0
H1626 H 0.44764 0.1459 0.59529 0.0
H1627 H 0.47099 0.15648 0.61518 0.0
H1628 H 0.44146 0.16609 0.62061 0.0
H1629 H 0.44412 0.15195 0.6672 0.0
H1630 H 0.47362 0.14221 0.66189 0.0
H1631 H 0.45197 0.12207 0.67371 0.0
H1632 H 0.44343 0.0546 0.60729 0.0
H1633 H 0.48637 0.04939 0.60256 0.0
H1634 H 0.49717 0.1209 0.62663 0.0
C1635 C 0.40325 0.13346 0.63774 0.0
C1636 C 0.38144 0.1221 0.63534 0.0
C1637 C 0.38073 0.09881 0.62631 0.0
C1638 C 0.40154 0.08684 0.62043 0.0
C1639 C 0.42283 0.09851 0.62346 0.0
C1640 C 0.42369 0.12141 0.6317 0.0
C1641 C 0.44852 0.13033 0.63327 0.0
C1642 C 0.45237 0.15091 0.615 0.0
C1643 C 0.45492 0.13702 0.66064 0.0
C1644 C 0.46165 0.10888 0.62475 0.0
C1645 C 0.4467 0.09058 0.61927 0.0
C1646 C 0.45522 0.06889 0.61144 0.0
C1647 C 0.47959 0.06601 0.60894 0.0
C1648 C 0.49503 0.0848 0.61403 0.0
C1649 C 0.48579 0.10635 0.62218 0.0
H1650 H 0.20124 0.22252 0.92061 0.0
H1651 H 0.18524 0.2491 0.84579 0.0
H1652 H 0.1696 0.21019 0.83362 0.0
H1653 H 0.21697 0.16215 0.90057 0.0
H1654 H 0.20405 0.14972 0.92866 0.0
H1655 H 0.21683 0.17849 0.92975 0.0
H1656 H 0.17779 0.19514 0.94684 0.0
H1657 H 0.16487 0.16654 0.94566 0.0
H1658 H 0.15125 0.19045 0.92908 0.0
H1659 H 0.15024 0.16969 0.83241 0.0
H1660 H 0.13073 0.13203 0.84161 0.0
H1661 H 0.16158 0.13205 0.91672 0.0
C1662 C 0.1948 0.22005 0.90152 0.0
C1663 C 0.19427 0.23883 0.88418 0.0
C1664 C 0.18591 0.23488 0.8593 0.0
C1665 C 0.17697 0.21286 0.85228 0.0
C1666 C 0.17698 0.19491 0.87024 0.0
C1667 C 0.18609 0.19826 0.89423 0.0
C1668 C 0.18285 0.17687 0.9107 0.0
C1669 C 0.20659 0.16617 0.91783 0.0
C1670 C 0.16832 0.1826 0.93445 0.0
C1671 C 0.16953 0.16123 0.8927 0.0
C1672 C 0.16647 0.17172 0.86934 0.0
C1673 C 0.15299 0.16116 0.85047 0.0
C1674 C 0.14203 0.13967 0.85583 0.0
C1675 C 0.14449 0.12898 0.87994 0.0
C1676 C 0.15906 0.13974 0.89818 0.0
H1677 H 0.14142 0.91705 0.16466 0.0
H1678 H 0.13975 0.88207 0.09171 0.0
H1679 H 0.10143 0.89986 0.08279 0.0
H1680 H 0.08475 0.90424 0.17988 0.0
H1681 H 0.07886 0.93111 0.19643 0.0
H1682 H 0.10826 0.92024 0.19464 0.0
H1683 H 0.122 0.95934 0.1748 0.0
H1684 H 0.09256 0.97041 0.17662 0.0
H1685 H 0.10775 0.97022 0.14671 0.0
H1686 H 0.06063 0.91713 0.0843 0.0
H1687 H 0.02114 0.93042 0.09728 0.0
H1688 H 0.04883 0.95127 0.1702 0.0
C1689 C 0.13326 0.91331 0.14662 0.0
C1690 C 0.14384 0.8981 0.12893 0.0
C1691 C 0.13242 0.894 0.10546 0.0
C1692 C 0.11051 0.90397 0.10023 0.0
C1693 C 0.10017 0.91804 0.1186 0.0
C1694 C 0.11126 0.92274 0.14132 0.0
C1695 C 0.0954 0.93583 0.15928 0.0
C1696 C 0.09159 0.92202 0.184 0.0
C1697 C 0.10501 0.96041 0.16466 0.0
C1698 C 0.07331 0.9369 0.14357 0.0
C1699 C 0.0765 0.92714 0.1199 0.0
C1700 C 0.05805 0.92508 0.10268 0.0
C1701 C 0.03572 0.93269 0.11014 0.0
C1702 C 0.03201 0.94171 0.13475 0.0
C1703 C 0.05121 0.94432 0.15132 0.0
H1704 H 0.70164 0.79321 0.85548 0.0
H1705 H 0.66661 0.75641 0.91631 0.0
H1706 H 0.6394 0.78964 0.92158 0.0
H1707 H 0.69843 0.85001 0.8807 0.0
H1708 H 0.69218 0.86459 0.8512 0.0
H1709 H 0.70836 0.83763 0.85122 0.0
H1710 H 0.67827 0.8191 0.82056 0.0
H1711 H 0.66217 0.84612 0.82009 0.0
H1712 H 0.64767 0.81931 0.82873 0.0
H1713 H 0.62031 0.82823 0.92412 0.0
H1714 H 0.60411 0.86733 0.91903 0.0
H1715 H 0.64755 0.87836 0.85244 0.0
C1716 C 0.68792 0.79214 0.86957 0.0
C1717 C 0.68601 0.77241 0.88556 0.0
C1718 C 0.66802 0.77134 0.90382 0.0
C1719 C 0.6527 0.79016 0.90702 0.0
C1720 C 0.65537 0.80962 0.89138 0.0
C1721 C 0.67208 0.81055 0.87255 0.0
C1722 C 0.67079 0.83349 0.85811 0.0
C1723 C 0.69381 0.84724 0.86046 0.0
C1724 C 0.66433 0.82925 0.83022 0.0
C1725 C 0.65109 0.84552 0.87223 0.0
C1726 C 0.6428 0.83144 0.89153 0.0
C1727 C 0.62598 0.83908 0.90848 0.0
C1728 C 0.6167 0.86139 0.90517 0.0
C1729 C 0.62357 0.87579 0.88449 0.0
C1730 C 0.64148 0.8678 0.86812 0.0
H1731 H 0.99024 0.90363 0.61382 0.0
H1732 H 0.99425 0.9538 0.67525 0.0
H1733 H 0.95176 0.94946 0.68237 0.0
H1734 H 0.9325 0.92075 0.59032 0.0
H1735 H 0.92408 0.89112 0.58324 0.0
H1736 H 0.9544 0.89963 0.5816 0.0
H1737 H 0.9653 0.86666 0.6131 0.0
H1738 H 0.9351 0.85796 0.61468 0.0
H1739 H 0.95069 0.86517 0.64332 0.0
H1740 H 0.90969 0.93687 0.68537 0.0
H1741 H 0.87138 0.91677 0.68425 0.0
H1742 H 0.89452 0.87532 0.62043 0.0
C1743 C 0.98225 0.91375 0.62877 0.0
C1744 C 0.99568 0.92906 0.64402 0.0
C1745 C 0.98435 0.94217 0.66315 0.0
C1746 C 0.96021 0.93979 0.66735 0.0
C1747 C 0.94757 0.9244 0.65209 0.0
C1748 C 0.9582 0.91166 0.63313 0.0
C1749 C 0.94093 0.89547 0.62017 0.0
C1750 C 0.9378 0.90215 0.59217 0.0
C1751 C 0.94845 0.8698 0.623 0.0
C1752 C 0.91902 0.90059 0.63528 0.0
C1753 C 0.9232 0.91748 0.65347 0.0
C1754 C 0.90612 0.92394 0.67093 0.0
C1755 C 0.88444 0.91248 0.67015 0.0
C1756 C 0.87997 0.89487 0.65197 0.0
C1757 C 0.89732 0.88921 0.63401 0.0
H1758 H 0.89351 0.14846 0.35844 0.0
H1759 H 0.83606 0.12325 0.40443 0.0
H1760 H 0.81637 0.16149 0.40024 0.0
H1761 H 0.89673 0.20297 0.38571 0.0
H1762 H 0.90375 0.21892 0.35725 0.0
H1763 H 0.91147 0.18858 0.3599 0.0
H1764 H 0.88852 0.17924 0.3188 0.0
H1765 H 0.88102 0.20967 0.31577 0.0
H1766 H 0.85831 0.18782 0.31619 0.0
H1767 H 0.80536 0.20356 0.39543 0.0
H1768 H 0.80326 0.2462 0.38965 0.0
H1769 H 0.86814 0.24448 0.34704 0.0
C1770 C 0.87636 0.15078 0.36676 0.0
C1771 C 0.86603 0.13288 0.38137 0.0
C1772 C 0.84403 0.13673 0.39289 0.0
C1773 C 0.83277 0.15837 0.39062 0.0
C1774 C 0.84378 0.17598 0.37682 0.0
C1775 C 0.86501 0.1724 0.36489 0.0
C1776 C 0.87413 0.19485 0.35327 0.0
C1777 C 0.89792 0.20173 0.36473 0.0
C1778 C 0.87557 0.19277 0.32429 0.0
C1779 C 0.8551 0.21173 0.36116 0.0
C1780 C 0.83761 0.20043 0.37444 0.0
C1781 C 0.81874 0.21253 0.38468 0.0
C1782 C 0.81768 0.2368 0.38123 0.0
C1783 C 0.83545 0.24884 0.36778 0.0
C1784 C 0.85431 0.23595 0.35754 0.0
H1785 H 0.51567 0.12771 0.14178 0.0
H1786 H 0.52334 0.05871 0.10883 0.0
H1787 H 0.5656 0.06563 0.1037 0.0
H1788 H 0.55594 0.15653 0.1002 0.0
H1789 H 0.56708 0.17579 0.12437 0.0
H1790 H 0.53754 0.165 0.12633 0.0
H1791 H 0.54594 0.14845 0.17114 0.0
H1792 H 0.57546 0.15928 0.16936 0.0
H1793 H 0.57017 0.12879 0.17565 0.0
H1794 H 0.60751 0.0806 0.10157 0.0
H1795 H 0.64518 0.1018 0.10422 0.0
H1796 H 0.60922 0.16154 0.13635 0.0
C1797 C 0.52616 0.11403 0.13344 0.0
C1798 C 0.51599 0.09261 0.12588 0.0
C1799 C 0.53057 0.07512 0.11527 0.0
C1800 C 0.55466 0.07896 0.11203 0.0
C1801 C 0.56398 0.1004 0.11941 0.0
C1802 C 0.55015 0.11761 0.12995 0.0
C1803 C 0.56433 0.1392 0.13614 0.0
C1804 C 0.55571 0.16038 0.12084 0.0
C1805 C 0.56395 0.14421 0.16477 0.0
C1806 C 0.58832 0.13147 0.12749 0.0
C1807 C 0.58783 0.10906 0.11787 0.0
C1808 C 0.60806 0.09819 0.10901 0.0
C1809 C 0.62937 0.11045 0.1104 0.0
C1810 C 0.63029 0.13334 0.12057 0.0
C1811 C 0.6093 0.14395 0.12883 0.0
H1812 H 0.64897 0.24407 0.62459 0.0
H1813 H 0.71052 0.23906 0.67201 0.0
H1814 H 0.69914 0.19872 0.68415 0.0
H1815 H 0.60965 0.20828 0.66446 0.0
H1816 H 0.59577 0.19551 0.63711 0.0
H1817 H 0.60724 0.2248 0.6355 0.0
H1818 H 0.63241 0.21319 0.59665 0.0
H1819 H 0.62112 0.18393 0.5982 0.0
H1820 H 0.65224 0.18885 0.59921 0.0
H1821 H 0.6828 0.15682 0.68658 0.0
H1822 H 0.66349 0.11852 0.67903 0.0
H1823 H 0.61324 0.15231 0.62976 0.0
C1824 C 0.65993 0.23462 0.63777 0.0
C1825 C 0.68069 0.24461 0.64731 0.0
C1826 C 0.69443 0.23175 0.66472 0.0
C1827 C 0.68811 0.20884 0.67163 0.0
C1828 C 0.66782 0.19924 0.66117 0.0
C1829 C 0.65386 0.21193 0.64479 0.0
C1830 C 0.63392 0.19743 0.63454 0.0
C1831 C 0.61025 0.20708 0.64345 0.0
C1832 C 0.63501 0.19575 0.60544 0.0
C1833 C 0.63924 0.17427 0.64689 0.0
C1834 C 0.65861 0.17556 0.66251 0.0
C1835 C 0.66743 0.15575 0.67468 0.0
C1836 C 0.65637 0.1341 0.67035 0.0
C1837 C 0.637 0.13252 0.65374 0.0
C1838 C 0.62812 0.153 0.64246 0.0
H1839 H 0.63303 0.88878 0.3738 0.0
H1840 H 0.63553 0.87973 0.45531 0.0
H1841 H 0.597 0.89932 0.45901 0.0
H1842 H 0.60282 0.9453 0.37309 0.0
H1843 H 0.58606 0.93762 0.3454 0.0
H1844 H 0.61484 0.92558 0.34992 0.0
H1845 H 0.59775 0.8838 0.34575 0.0
H1846 H 0.56893 0.89567 0.34143 0.0
H1847 H 0.57427 0.87485 0.36638 0.0
H1848 H 0.55609 0.91687 0.45277 0.0
H1849 H 0.51762 0.93075 0.43749 0.0
H1850 H 0.54275 0.92729 0.36008 0.0
C1851 C 0.62561 0.89107 0.3925 0.0
C1852 C 0.63722 0.8826 0.41428 0.0
C1853 C 0.62703 0.88624 0.4384 0.0
C1854 C 0.60512 0.89726 0.44064 0.0
C1855 C 0.5938 0.9047 0.4186 0.0
C1856 C 0.60389 0.90188 0.39502 0.0
C1857 C 0.58783 0.91002 0.37405 0.0
C1858 C 0.59853 0.93087 0.35978 0.0
C1859 C 0.58184 0.88988 0.35584 0.0
C1860 C 0.56678 0.91733 0.38936 0.0
C1861 C 0.57054 0.91443 0.41504 0.0
C1862 C 0.55311 0.9194 0.43271 0.0
C1863 C 0.53131 0.92734 0.42385 0.0
C1864 C 0.52704 0.93003 0.39753 0.0
C1865 C 0.54524 0.92516 0.38026 0.0
H1866 H 0.92101 0.8583 0.15748 0.0
H1867 H 0.86468 0.89606 0.19426 0.0
H1868 H 0.84344 0.85892 0.20055 0.0
H1869 H 0.88468 0.82156 0.12209 0.0
H1870 H 0.90358 0.79648 0.12413 0.0
H1871 H 0.91578 0.8254 0.12589 0.0
H1872 H 0.93508 0.81527 0.16894 0.0
H1873 H 0.92298 0.78623 0.16728 0.0
H1874 H 0.91724 0.80434 0.19449 0.0
H1875 H 0.82682 0.81761 0.19959 0.0
H1876 H 0.81608 0.77663 0.19031 0.0
H1877 H 0.88243 0.76685 0.15213 0.0
C1878 C 0.90425 0.8589 0.16697 0.0
C1879 C 0.89461 0.8803 0.17535 0.0
C1880 C 0.87274 0.87998 0.18801 0.0
C1881 C 0.86044 0.85893 0.19155 0.0
C1882 C 0.8702 0.8383 0.18234 0.0
C1883 C 0.89165 0.83818 0.17033 0.0
C1884 C 0.89761 0.81412 0.1604 0.0
C1885 C 0.90057 0.81442 0.13141 0.0
C1886 C 0.91952 0.80442 0.17357 0.0
C1887 C 0.87593 0.80076 0.16817 0.0
C1888 C 0.86045 0.81486 0.18117 0.0
C1889 C 0.83893 0.80641 0.18961 0.0
C1890 C 0.833 0.78307 0.18435 0.0
C1891 C 0.84839 0.76852 0.17046 0.0
C1892 C 0.87022 0.77755 0.16261 0.0
H1893 H 0.98302 0.10958 0.93162 0.0
H1894 H 0.99119 0.05798 0.87223 0.0
H1895 H 0.94902 0.06121 0.86223 0.0
H1896 H 0.92343 0.09209 0.95147 0.0
H1897 H 0.91475 0.12189 0.95708 0.0
H1898 H 0.94481 0.11335 0.96147 0.0
H1899 H 0.95803 0.1457 0.93022 0.0
H1900 H 0.9281 0.15434 0.9258 0.0
H1901 H 0.94569 0.14651 0.89879 0.0
H1902 H 0.90738 0.07405 0.85512 0.0
H1903 H 0.86947 0.09468 0.85213 0.0
H1904 H 0.88825 0.13717 0.91689 0.0
C1905 C 0.97593 0.09878 0.91666 0.0
C1906 C 0.99043 0.08356 0.90262 0.0
C1907 C 0.98037 0.06956 0.88338 0.0
C1908 C 0.95646 0.07133 0.87756 0.0
C1909 C 0.94278 0.08692 0.89143 0.0
C1910 C 0.95214 0.10023 0.91076 0.0
C1911 C 0.93412 0.11672 0.92179 0.0
C1912 C 0.92897 0.11064 0.9496 0.0
C1913 C 0.94196 0.14232 0.91896 0.0
C1914 C 0.91334 0.11127 0.90502 0.0
C1915 C 0.91862 0.09388 0.88776 0.0
C1916 C 0.90289 0.0873 0.86888 0.0
C1917 C 0.88145 0.09909 0.8673 0.0
C1918 C 0.87588 0.11714 0.88458 0.0
C1919 C 0.89184 0.12294 0.90397 0.0
H1920 H 0.90984 0.65539 0.64329 0.0
H1921 H 0.85697 0.61808 0.68606 0.0
H1922 H 0.83779 0.65576 0.69644 0.0
H1923 H 0.91269 0.70763 0.68394 0.0
H1924 H 0.91672 0.72672 0.65713 0.0
H1925 H 0.92745 0.69718 0.656 0.0
H1926 H 0.90372 0.68991 0.61489 0.0
H1927 H 0.89284 0.71933 0.61594 0.0
H1928 H 0.87264 0.69516 0.61484 0.0
H1929 H 0.82226 0.69781 0.69791 0.0
H1930 H 0.81227 0.73928 0.69069 0.0
H1931 H 0.87604 0.74811 0.64728 0.0
C1932 C 0.89436 0.65514 0.65511 0.0
C1933 C 0.8848 0.63385 0.66379 0.0
C1934 C 0.86466 0.63424 0.67938 0.0
C1935 C 0.85365 0.65555 0.68529 0.0
C1936 C 0.86323 0.67622 0.67574 0.0
C1937 C 0.88331 0.67609 0.66118 0.0
C1938 C 0.88948 0.70027 0.65181 0.0
C1939 C 0.91298 0.70843 0.66289 0.0
C1940 C 0.88967 0.70121 0.62265 0.0
C1941 C 0.86936 0.71406 0.66265 0.0
C1942 C 0.85448 0.70006 0.67665 0.0
C1943 C 0.83401 0.70894 0.68729 0.0
C1944 C 0.82851 0.73259 0.68317 0.0
C1945 C 0.84334 0.74705 0.66836 0.0
C1946 C 0.86422 0.73758 0.6585 0.0
H1947 H 0.63169 0.63474 0.88075 0.0
H1948 H 0.64327 0.6412 0.96182 0.0
H1949 H 0.60619 0.62019 0.96961 0.0
H1950 H 0.57208 0.64906 0.88356 0.0
H1951 H 0.56392 0.62994 0.85792 0.0
H1952 H 0.59289 0.64213 0.85907 0.0
H1953 H 0.61043 0.60045 0.85701 0.0
H1954 H 0.58145 0.5881 0.8561 0.0
H1955 H 0.60181 0.579 0.88022 0.0
H1956 H 0.56595 0.5998 0.96819 0.0
H1957 H 0.52557 0.58677 0.95765 0.0
H1958 H 0.53953 0.59836 0.87813 0.0
C1959 C 0.62659 0.63208 0.90026 0.0
C1960 C 0.64071 0.63994 0.92063 0.0
C1961 C 0.63319 0.63517 0.94575 0.0
C1962 C 0.61202 0.62327 0.9504 0.0
C1963 C 0.59839 0.61633 0.92977 0.0
C1964 C 0.60538 0.62083 0.90521 0.0
C1965 C 0.58681 0.61378 0.88627 0.0
C1966 C 0.57843 0.63499 0.87081 0.0
C1967 C 0.59566 0.59417 0.86888 0.0
C1968 C 0.56798 0.605 0.90396 0.0
C1969 C 0.5751 0.60598 0.92898 0.0
C1970 C 0.56029 0.59897 0.94864 0.0
C1971 C 0.53748 0.59148 0.94255 0.0
C1972 C 0.52964 0.59162 0.91713 0.0
C1973 C 0.54525 0.59807 0.89768 0.0
H1974 H 0.6524 0.3828 0.11619 0.0
H1975 H 0.64293 0.38802 0.1975 0.0
H1976 H 0.66069 0.34889 0.20274 0.0
H1977 H 0.6346 0.32548 0.11107 0.0
H1978 H 0.65489 0.31768 0.08639 0.0
H1979 H 0.64536 0.34743 0.08951 0.0
H1980 H 0.6884 0.36129 0.09312 0.0
H1981 H 0.69812 0.33154 0.08974 0.0
H1982 H 0.70719 0.34852 0.11677 0.0
H1983 H 0.67545 0.3069 0.19822 0.0
H1984 H 0.68572 0.26686 0.18445 0.0
H1985 H 0.68385 0.28954 0.10611 0.0
C1986 C 0.65434 0.37592 0.13518 0.0
C1987 C 0.64619 0.3885 0.15644 0.0
C1988 C 0.6493 0.37887 0.18095 0.0
C1989 C 0.65927 0.35659 0.18408 0.0
C1990 C 0.66618 0.34426 0.16254 0.0
C1991 C 0.664 0.35376 0.13858 0.0
C1992 C 0.6708 0.33644 0.11826 0.0
C1993 C 0.65018 0.33147 0.10026 0.0
C1994 C 0.69242 0.34496 0.10361 0.0
C1995 C 0.67647 0.3154 0.13441 0.0
C1996 C 0.67409 0.32024 0.15992 0.0
C1997 C 0.67759 0.30305 0.17829 0.0
C1998 C 0.68346 0.28035 0.17031 0.0
C1999 C 0.68544 0.27499 0.14418 0.0
C2000 C 0.68218 0.29294 0.12618 0.0
H2001 H 0.98312 0.40928 0.42349 0.0
H2002 H 0.98701 0.46548 0.36855 0.0
H2003 H 0.94411 0.4635 0.36292 0.0
H2004 H 0.94299 0.37554 0.39098 0.0
H2005 H 0.92764 0.36529 0.41866 0.0
H2006 H 0.95787 0.37362 0.42103 0.0
H2007 H 0.94747 0.403 0.45661 0.0
H2008 H 0.9171 0.3948 0.45425 0.0
H2009 H 0.92556 0.42498 0.45092 0.0
H2010 H 0.90184 0.45157 0.35896 0.0
H2011 H 0.86394 0.43076 0.35696 0.0
H2012 H 0.88769 0.3826 0.41476 0.0
C2013 C 0.97498 0.42135 0.41045 0.0
C2014 C 0.98849 0.4375 0.39638 0.0
C2015 C 0.97703 0.45314 0.37972 0.0
C2016 C 0.95267 0.45211 0.3764 0.0
C2017 C 0.93998 0.43557 0.39014 0.0
C2018 C 0.95076 0.42059 0.40698 0.0
C2019 C 0.93359 0.40313 0.41795 0.0
C2020 C 0.94096 0.37792 0.41177 0.0
C2021 C 0.93077 0.4067 0.44664 0.0
C2022 C 0.91159 0.40998 0.40387 0.0
C2023 C 0.91554 0.42893 0.38816 0.0
C2024 C 0.89842 0.43705 0.37157 0.0
C2025 C 0.87698 0.42514 0.37053 0.0
C2026 C 0.87284 0.40534 0.38599 0.0
C2027 C 0.89017 0.39811 0.40332 0.0
H2028 H 0.91872 0.35212 0.87567 0.0
H2029 H 0.86306 0.39284 0.84144 0.0
H2030 H 0.84087 0.35655 0.83337 0.0
H2031 H 0.91333 0.3 0.83569 0.0
H2032 H 0.91889 0.28054 0.86185 0.0
H2033 H 0.9317 0.30932 0.86156 0.0
H2034 H 0.9131 0.31795 0.90533 0.0
H2035 H 0.90024 0.28928 0.90574 0.0
H2036 H 0.88196 0.31468 0.90932 0.0
H2037 H 0.82313 0.31563 0.83256 0.0
H2038 H 0.81128 0.27465 0.84046 0.0
H2039 H 0.87795 0.26165 0.87689 0.0
C2040 C 0.90192 0.35352 0.86633 0.0
C2041 C 0.89273 0.3755 0.85921 0.0
C2042 C 0.87076 0.37629 0.84674 0.0
C2043 C 0.85794 0.35573 0.84217 0.0
C2044 C 0.8673 0.33447 0.85012 0.0
C2045 C 0.88884 0.33329 0.86191 0.0
C2046 C 0.89431 0.30868 0.8705 0.0
C2047 C 0.91583 0.29907 0.85656 0.0
C2048 C 0.89758 0.3076 0.89943 0.0
C2049 C 0.87223 0.29623 0.8623 0.0
C2050 C 0.85697 0.31125 0.85021 0.0
C2051 C 0.83507 0.30371 0.84179 0.0
C2052 C 0.82851 0.28038 0.84626 0.0
C2053 C 0.84367 0.26496 0.85933 0.0
C2054 C 0.86593 0.27304 0.867 0.0
H2055 H 0.89322 0.63129 0.11498 0.0
H2056 H 0.87974 0.60231 0.18936 0.0
H2057 H 0.91692 0.58036 0.18733 0.0
H2058 H 0.92481 0.57959 0.08787 0.0
H2059 H 0.9453 0.59804 0.07133 0.0
H2060 H 0.91581 0.60794 0.07668 0.0
H2061 H 0.93186 0.64516 0.09857 0.0
H2062 H 0.96132 0.63533 0.09349 0.0
H2063 H 0.95155 0.64223 0.12506 0.0
H2064 H 0.95755 0.56524 0.17929 0.0
H2065 H 0.99881 0.55952 0.16654 0.0
H2066 H 0.98608 0.59918 0.09795 0.0
C2067 C 0.89778 0.61965 0.13038 0.0
C2068 C 0.88358 0.61811 0.15214 0.0
C2069 C 0.89038 0.60345 0.17243 0.0
C2070 C 0.9114 0.5909 0.1714 0.0
C2071 C 0.92543 0.59327 0.14997 0.0
C2072 C 0.91887 0.60725 0.12978 0.0
C2073 C 0.93821 0.60894 0.1103 0.0
C2074 C 0.93057 0.59797 0.08505 0.0
C2075 C 0.9462 0.63442 0.10666 0.0
C2076 C 0.95693 0.59444 0.12308 0.0
C2077 C 0.9491 0.58514 0.14569 0.0
C2078 C 0.96377 0.57216 0.16143 0.0
C2079 C 0.98714 0.56893 0.15404 0.0
C2080 C 0.99566 0.57896 0.13133 0.0
C2081 C 0.98013 0.59145 0.11551 0.0
H2082 H 0.70309 0.72307 0.42511 0.0
H2083 H 0.68565 0.74753 0.3498 0.0
H2084 H 0.67289 0.70756 0.33808 0.0
H2085 H 0.72346 0.66375 0.40541 0.0
H2086 H 0.71149 0.65048 0.43354 0.0
H2087 H 0.72209 0.68013 0.43452 0.0
H2088 H 0.68191 0.69389 0.45152 0.0
H2089 H 0.67116 0.66441 0.45048 0.0
H2090 H 0.6558 0.68717 0.43379 0.0
H2091 H 0.656 0.6666 0.33742 0.0
H2092 H 0.63853 0.62827 0.3468 0.0
H2093 H 0.67034 0.62968 0.42157 0.0
C2094 C 0.69693 0.7199 0.40603 0.0
C2095 C 0.69516 0.73834 0.38838 0.0
C2096 C 0.68724 0.73356 0.36351 0.0
C2097 C 0.67995 0.71095 0.35674 0.0
C2098 C 0.68125 0.69326 0.37491 0.0
C2099 C 0.68997 0.69744 0.39891 0.0
C2100 C 0.68834 0.67592 0.41547 0.0
C2101 C 0.71281 0.66704 0.42265 0.0
C2102 C 0.67341 0.68064 0.4392 0.0
C2103 C 0.67621 0.65927 0.39751 0.0
C2104 C 0.67243 0.66946 0.37414 0.0
C2105 C 0.65944 0.65822 0.35542 0.0
C2106 C 0.64968 0.63626 0.36092 0.0
C2107 C 0.65298 0.62563 0.38497 0.0
C2108 C 0.66714 0.63717 0.40307 0.0
H2109 H 0.63212 0.3971 0.6517 0.0
H2110 H 0.63101 0.37769 0.57234 0.0
H2111 H 0.59255 0.39718 0.56749 0.0
H2112 H 0.57395 0.38499 0.66397 0.0
H2113 H 0.56972 0.40884 0.68575 0.0
H2114 H 0.59831 0.39637 0.68183 0.0
H2115 H 0.61512 0.43713 0.67048 0.0
H2116 H 0.58654 0.44979 0.67453 0.0
H2117 H 0.60209 0.45374 0.64514 0.0
H2118 H 0.55182 0.41547 0.57304 0.0
H2119 H 0.51369 0.43039 0.58829 0.0
H2120 H 0.54249 0.43716 0.66393 0.0
C2121 C 0.62395 0.39716 0.63318 0.0
C2122 C 0.63451 0.38578 0.61241 0.0
C2123 C 0.62333 0.38647 0.58847 0.0
C2124 C 0.60145 0.39744 0.58558 0.0
C2125 C 0.59118 0.40784 0.60676 0.0
C2126 C 0.60226 0.40792 0.63004 0.0
C2127 C 0.58712 0.41876 0.65033 0.0
C2128 C 0.58197 0.40119 0.67171 0.0
C2129 C 0.59839 0.44119 0.66072 0.0
C2130 C 0.56542 0.42414 0.6351 0.0
C2131 C 0.56806 0.41806 0.60994 0.0
C2132 C 0.54973 0.42053 0.59266 0.0
C2133 C 0.52813 0.42909 0.60147 0.0
C2134 C 0.52499 0.43482 0.62737 0.0
C2135 C 0.54414 0.43268 0.64411 0.0
H2136 H 0.15864 0.38515 0.40974 0.0
H2137 H 0.1298 0.3822 0.33372 0.0
H2138 H 0.14852 0.34382 0.32734 0.0
H2139 H 0.21344 0.35257 0.39752 0.0
H2140 H 0.21169 0.33778 0.42761 0.0
H2141 H 0.20003 0.36684 0.42424 0.0
H2142 H 0.15985 0.35227 0.44064 0.0
H2143 H 0.17131 0.32323 0.44393 0.0
H2144 H 0.14564 0.32821 0.42486 0.0
H2145 H 0.16666 0.30336 0.33127 0.0
H2146 H 0.18079 0.26469 0.34583 0.0
H2147 H 0.19503 0.29374 0.42001 0.0
C2148 C 0.1564 0.37665 0.3916 0.0
C2149 C 0.14263 0.38683 0.37227 0.0
C2150 C 0.14053 0.37506 0.34874 0.0
C2151 C 0.15104 0.35315 0.34496 0.0
C2152 C 0.16366 0.34323 0.36486 0.0
C2153 C 0.1664 0.35471 0.38769 0.0
C2154 C 0.17848 0.33945 0.40708 0.0
C2155 C 0.20233 0.34978 0.41454 0.0
C2156 C 0.16289 0.33556 0.43049 0.0
C2157 C 0.18134 0.31725 0.39194 0.0
C2158 C 0.17323 0.31985 0.36743 0.0
C2159 C 0.17325 0.30124 0.35035 0.0
C2160 C 0.18134 0.27937 0.35873 0.0
C2161 C 0.18882 0.27624 0.38408 0.0
C2162 C 0.18921 0.2956 0.4006 0.0
H2163 H 0.484 0.43749 0.17315 0.0
H2164 H 0.4999 0.43208 0.09333 0.0
H2165 H 0.45848 0.42166 0.08441 0.0
H2166 H 0.44692 0.39085 0.17805 0.0
H2167 H 0.42649 0.40409 0.19968 0.0
H2168 H 0.45637 0.41384 0.19903 0.0
H2169 H 0.44271 0.45629 0.19065 0.0
H2170 H 0.41268 0.44669 0.19147 0.0
H2171 H 0.42362 0.46228 0.16426 0.0
H2172 H 0.4172 0.40512 0.08601 0.0
H2173 H 0.37939 0.3872 0.09703 0.0
H2174 H 0.38913 0.4088 0.17528 0.0
C2175 C 0.47847 0.43466 0.15377 0.0
C2176 C 0.49481 0.43551 0.13386 0.0
C2177 C 0.48736 0.43163 0.10868 0.0
C2178 C 0.46396 0.42571 0.10353 0.0
C2179 C 0.44826 0.42445 0.12375 0.0
C2180 C 0.45514 0.4294 0.1483 0.0
C2181 C 0.43528 0.42588 0.16683 0.0
C2182 C 0.44165 0.40758 0.18707 0.0
C2183 C 0.42815 0.44917 0.17901 0.0
C2184 C 0.41648 0.41696 0.14913 0.0
C2185 C 0.42419 0.4163 0.12435 0.0
C2186 C 0.41072 0.40621 0.10523 0.0
C2187 C 0.38909 0.39616 0.11171 0.0
C2188 C 0.38095 0.39638 0.13713 0.0
C2189 C 0.39468 0.40779 0.15573 0.0
H2190 H 0.33121 0.73038 0.92 0.0
H2191 H 0.32375 0.74307 0.8397 0.0
H2192 H 0.33425 0.70174 0.83087 0.0
H2193 H 0.37954 0.69681 0.91799 0.0
H2194 H 0.37134 0.6766 0.94263 0.0
H2195 H 0.35946 0.7056 0.9425 0.0
H2196 H 0.31736 0.68879 0.94258 0.0
H2197 H 0.32912 0.6596 0.94304 0.0
H2198 H 0.30881 0.66806 0.91859 0.0
H2199 H 0.35339 0.66138 0.83134 0.0
H2200 H 0.37567 0.62548 0.84091 0.0
H2201 H 0.36615 0.63823 0.92131 0.0
C2202 C 0.33105 0.72411 0.90066 0.0
C2203 C 0.32668 0.7396 0.88049 0.0
C2204 C 0.32683 0.7312 0.85532 0.0
C2205 C 0.33282 0.70784 0.85021 0.0
C2206 C 0.33794 0.6931 0.87059 0.0
C2207 C 0.33644 0.70084 0.89537 0.0
C2208 C 0.34419 0.68227 0.91389 0.0
C2209 C 0.36485 0.69084 0.93019 0.0
C2210 C 0.32364 0.6742 0.9305 0.0
C2211 C 0.35161 0.6633 0.89572 0.0
C2212 C 0.34779 0.66968 0.87081 0.0
C2213 C 0.35582 0.65593 0.8508 0.0
C2214 C 0.36843 0.63547 0.85643 0.0
C2215 C 0.37289 0.62892 0.8819 0.0
C2216 C 0.36348 0.64273 0.90161 0.0
H2217 H 0.13012 0.63613 0.60892 0.0
H2218 H 0.15289 0.58855 0.66783 0.0
H2219 H 0.11468 0.5683 0.66593 0.0
H2220 H 0.07438 0.64384 0.63156 0.0
H2221 H 0.06019 0.64542 0.60112 0.0
H2222 H 0.0904 0.65367 0.60414 0.0
H2223 H 0.10184 0.62377 0.56947 0.0
H2224 H 0.07156 0.61557 0.56613 0.0
H2225 H 0.09325 0.59363 0.5729 0.0
H2226 H 0.07229 0.55614 0.66082 0.0
H2227 H 0.02962 0.55365 0.65334 0.0
H2228 H 0.03504 0.60919 0.59775 0.0
C2229 C 0.12737 0.62093 0.62077 0.0
C2230 C 0.14455 0.61375 0.63833 0.0
C2231 C 0.13997 0.59429 0.65419 0.0
C2232 C 0.11836 0.58264 0.65317 0.0
C2233 C 0.10152 0.59061 0.63614 0.0
C2234 C 0.10587 0.60924 0.62011 0.0
C2235 C 0.08421 0.61585 0.60527 0.0
C2236 C 0.07687 0.64119 0.61087 0.0
C2237 C 0.08794 0.61196 0.57675 0.0
C2238 C 0.06682 0.59853 0.61599 0.0
C2239 C 0.07714 0.58387 0.63349 0.0
C2240 C 0.06412 0.56731 0.64686 0.0
C2241 C 0.0399 0.56596 0.64245 0.0
C2242 C 0.02892 0.58125 0.62503 0.0
C2243 C 0.04279 0.59738 0.61136 0.0
H2244 H 0.11439 0.65097 0.13432 0.0
H2245 H 0.17129 0.61479 0.17168 0.0
H2246 H 0.19075 0.65284 0.17999 0.0
H2247 H 0.14843 0.69466 0.1038 0.0
H2248 H 0.12715 0.71746 0.10832 0.0
H2249 H 0.11778 0.68751 0.10595 0.0
H2250 H 0.09669 0.6909 0.14924 0.0
H2251 H 0.10587 0.72091 0.15168 0.0
H2252 H 0.11286 0.70058 0.17662 0.0
H2253 H 0.20478 0.6954 0.1819 0.0
H2254 H 0.21034 0.73834 0.18061 0.0
H2255 H 0.14342 0.74588 0.14302 0.0
C2256 C 0.13095 0.65105 0.14427 0.0
C2257 C 0.14146 0.62997 0.15221 0.0
C2258 C 0.16294 0.63078 0.16553 0.0
C2259 C 0.17413 0.65228 0.17019 0.0
C2260 C 0.16343 0.67275 0.16168 0.0
C2261 C 0.14215 0.67225 0.14928 0.0
C2262 C 0.13405 0.69655 0.14227 0.0
C2263 C 0.13172 0.69919 0.11337 0.0
C2264 C 0.11101 0.70258 0.15576 0.0
C2265 C 0.15416 0.71092 0.15243 0.0
C2266 C 0.17107 0.69695 0.16341 0.0
C2267 C 0.19155 0.70645 0.17348 0.0
C2268 C 0.19466 0.73081 0.17251 0.0
C2269 C 0.17727 0.7454 0.1618 0.0
C2270 C 0.15686 0.73518 0.15161 0.0
H2271 H 0.04864 0.43212 0.86857 0.0
H2272 H 0.01996 0.42382 0.94401 0.0
H2273 H 0.05838 0.40935 0.95913 0.0
H2274 H 0.08037 0.38089 0.8675 0.0
H2275 H 0.10468 0.39264 0.84989 0.0
H2276 H 0.07609 0.40518 0.84627 0.0
H2277 H 0.09251 0.44589 0.85846 0.0
H2278 H 0.12125 0.43346 0.86205 0.0
H2279 H 0.1082 0.44938 0.88785 0.0
H2280 H 0.09927 0.39123 0.96428 0.0
H2281 H 0.13783 0.37203 0.95894 0.0
H2282 H 0.13869 0.39311 0.88005 0.0
C2283 C 0.05043 0.42746 0.88834 0.0
C2284 C 0.03124 0.42891 0.90506 0.0
C2285 C 0.03446 0.42297 0.93089 0.0
C2286 C 0.05621 0.41469 0.9396 0.0
C2287 C 0.07459 0.41279 0.92231 0.0
C2288 C 0.07188 0.41929 0.89725 0.0
C2289 C 0.09361 0.41435 0.88192 0.0
C2290 C 0.08836 0.39725 0.86013 0.0
C2291 C 0.10454 0.43713 0.872 0.0
C2292 C 0.10879 0.40323 0.90197 0.0
C2293 C 0.09778 0.40268 0.92527 0.0
C2294 C 0.10814 0.3919 0.94619 0.0
C2295 C 0.13006 0.3811 0.94303 0.0
C2296 C 0.1412 0.38097 0.91906 0.0
C2297 C 0.13055 0.39272 0.89857 0.0
H2298 H 0.37983 0.37137 0.6288 0.0
H2299 H 0.3922 0.3819 0.7091 0.0
H2300 H 0.37495 0.34303 0.71799 0.0
H2301 H 0.32546 0.33838 0.63415 0.0
H2302 H 0.33298 0.31941 0.60818 0.0
H2303 H 0.34375 0.34899 0.60882 0.0
H2304 H 0.38623 0.33372 0.6047 0.0
H2305 H 0.37563 0.30413 0.60417 0.0
H2306 H 0.39704 0.31282 0.6274 0.0
H2307 H 0.35848 0.30123 0.71734 0.0
H2308 H 0.34541 0.26097 0.70707 0.0
H2309 H 0.34593 0.27841 0.62718 0.0
C2310 C 0.37892 0.36562 0.64832 0.0
C2311 C 0.38753 0.37971 0.66824 0.0
C2312 C 0.38553 0.37156 0.69352 0.0
C2313 C 0.37584 0.34945 0.69873 0.0
C2314 C 0.36816 0.33577 0.67847 0.0
C2315 C 0.36957 0.34367 0.65378 0.0
C2316 C 0.36149 0.32532 0.63514 0.0
C2317 C 0.33962 0.33352 0.62073 0.0
C2318 C 0.38128 0.3186 0.61678 0.0
C2319 C 0.35579 0.30557 0.65309 0.0
C2320 C 0.35937 0.31191 0.67805 0.0
C2321 C 0.35553 0.29618 0.69784 0.0
C2322 C 0.34808 0.27339 0.69187 0.0
C2323 C 0.3449 0.2665 0.66633 0.0
C2324 C 0.34858 0.283 0.64685 0.0
H2325 H 0.40619 0.66035 0.40444 0.0
H2326 H 0.36908 0.59676 0.42397 0.0
H2327 H 0.40704 0.57628 0.42911 0.0
H2328 H 0.44895 0.63399 0.3666 0.0
H2329 H 0.47214 0.65341 0.3762 0.0
H2330 H 0.44231 0.66331 0.37668 0.0
H2331 H 0.44629 0.67417 0.42417 0.0
H2332 H 0.47625 0.66452 0.42379 0.0
H2333 H 0.45604 0.6524 0.44647 0.0
H2334 H 0.44973 0.56241 0.42897 0.0
H2335 H 0.49251 0.55703 0.42587 0.0
H2336 H 0.50031 0.62977 0.40443 0.0
C2337 C 0.406 0.64214 0.41 0.0
C2338 C 0.38471 0.63008 0.41368 0.0
C2339 C 0.38522 0.60636 0.42125 0.0
C2340 C 0.40667 0.59459 0.42405 0.0
C2341 C 0.42734 0.60689 0.41935 0.0
C2342 C 0.42708 0.63023 0.41271 0.0
C2343 C 0.4514 0.63945 0.40767 0.0
C2344 C 0.45383 0.64804 0.38016 0.0
C2345 C 0.45787 0.65878 0.42666 0.0
C2346 C 0.46554 0.61761 0.41219 0.0
C2347 C 0.45148 0.59898 0.419 0.0
C2348 C 0.46085 0.57693 0.42371 0.0
C2349 C 0.48518 0.57399 0.42167 0.0
C2350 C 0.49988 0.59298 0.41489 0.0
C2351 C 0.48971 0.61497 0.40998 0.0
H2352 H 0.31611 0.33909 0.0743 0.0
H2353 H 0.26121 0.29316 0.10113 0.0
H2354 H 0.24534 0.29056 0.05729 0.0
H2355 H 0.2794 0.37135 0.03102 0.0
H2356 H 0.30243 0.3753 1.00811 0.0
H2357 H 0.30948 0.37246 0.04121 0.0
H2358 H 0.33706 0.33795 0.03066 0.0
H2359 H 0.32982 0.34047 0.99756 0.0
H2360 H 0.32573 0.31304 1.01374 0.0
H2361 H 0.2372 0.29163 1.00918 0.0
H2362 H 0.23322 0.30143 0.96374 0.0
H2363 H 0.29151 0.34953 0.96998 0.0
C2364 C 0.30072 0.32848 0.07092 0.0
C2365 C 0.28995 0.31612 0.09094 0.0
C2366 C 0.26964 0.30276 0.08598 0.0
C2367 C 0.26067 0.30107 0.06114 0.0
C2368 C 0.27197 0.31325 0.04167 0.0
C2369 C 0.29126 0.32712 0.0465 0.0
C2370 C 0.29946 0.33962 0.0228 0.0
C2371 C 0.29757 0.36626 0.02598 0.0
C2372 C 0.3245 0.33233 1.01579 0.0
C2373 C 0.28193 0.33054 1.00368 0.0
C2374 C 0.26646 0.315 1.01474 0.0
C2375 C 0.24909 0.30397 1.00049 0.0
C2376 C 0.24703 0.30954 0.97458 0.0
C2377 C 0.26192 0.32638 0.96325 0.0
C2378 C 0.27978 0.33666 0.97806 0.0
H2379 H 0.9238 0.03819 0.21784 0.0
H2380 H 0.96104 0.97241 0.2186 0.0
H2381 H 0.96983 0.97774 0.26412 0.0
H2382 H 0.96417 0.0686 0.26093 0.0
H2383 H 0.94101 0.08508 0.27556 0.0
H2384 H 0.93839 0.07603 0.24301 0.0
H2385 H 0.89905 0.05574 0.25354 0.0
H2386 H 0.90172 0.06442 0.28619 0.0
H2387 H 0.89805 0.03403 0.27826 0.0
H2388 H 0.97057 0.98877 0.31161 0.0
H2389 H 0.96887 1.00756 0.3541 0.0
H2390 H 0.9346 0.06756 0.32074 0.0
C2391 C 0.93417 0.02511 0.22749 0.0
C2392 C 0.94184 1.00491 0.21455 0.0
C2393 C 0.95527 0.98817 0.22791 0.0
C2394 C 0.96016 0.99096 0.2539 0.0
C2395 C 0.95189 0.01086 0.26624 0.0
C2396 C 0.93968 0.02792 0.25324 0.0
C2397 C 0.93311 0.04793 0.27061 0.0
C2398 C 0.94488 0.07076 0.26201 0.0
C2399 C 0.9064 0.05068 0.27224 0.0
C2400 C 0.94318 0.03936 0.29549 0.0
C2401 C 0.95363 0.01777 0.29282 0.0
C2402 C 0.96281 1.00588 0.31375 0.0
C2403 C 0.96168 0.01656 0.33783 0.0
C2404 C 0.95191 0.03908 0.34062 0.0
C2405 C 0.94253 0.05046 0.31911 0.0
H2406 H 0.26071 0.69234 0.58664 0.0
H2407 H 0.19092 0.71573 0.56651 0.0
H2408 H 0.20177 0.71579 0.52156 0.0
H2409 H 0.291 0.72727 0.53886 0.0
H2410 H 0.31254 0.70512 0.53239 0.0
H2411 H 0.29938 0.70695 0.56332 0.0
H2412 H 0.28647 0.66369 0.5599 0.0
H2413 H 0.29945 0.6618 0.52889 0.0
H2414 H 0.26906 0.65448 0.53324 0.0
H2415 H 0.21935 0.71152 0.47792 0.0
H2416 H 0.24406 0.70688 0.43963 0.0
H2417 H 0.30278 0.68817 0.48755 0.0
C2418 C 0.2478 0.6977 0.57281 0.0
C2419 C 0.22489 0.70394 0.5804 0.0
C2420 C 0.20857 0.71077 0.56148 0.0
C2421 C 0.21452 0.71083 0.53571 0.0
C2422 C 0.23701 0.70422 0.52882 0.0
C2423 C 0.25353 0.69808 0.5468 0.0
C2424 C 0.27657 0.69204 0.53414 0.0
C2425 C 0.29602 0.70885 0.54268 0.0
C2426 C 0.28328 0.66648 0.53936 0.0
C2427 C 0.27035 0.69574 0.50639 0.0
C2428 C 0.24736 0.70252 0.50369 0.0
C2429 C 0.23748 0.7064 0.47981 0.0
C2430 C 0.25158 0.70364 0.45813 0.0
C2431 C 0.27539 0.69739 0.46048 0.0
C2432 C 0.2847 0.69325 0.48503 0.0
H2433 H 0.59622 0.97451 0.7892 0.0
H2434 H 0.54918 0.01839 0.83259 0.0
H2435 H 0.53787 0.03893 0.79305 0.0
H2436 H 0.61566 0.01923 0.74535 0.0
H2437 H 0.61724 0.99932 0.71897 0.0
H2438 H 0.62178 0.98876 0.75073 0.0
H2439 H 0.58893 0.95818 0.74406 0.0
H2440 H 0.58405 0.96892 0.71242 0.0
H2441 H 0.56019 0.96778 0.73469 0.0
H2442 H 0.53088 0.05365 0.7483 0.0
H2443 H 0.53138 0.06422 0.70305 0.0
H2444 H 0.58324 0.01062 0.68878 0.0
C2445 C 0.58362 0.98855 0.79052 0.0
C2446 C 0.57353 0.99481 0.81412 0.0
C2447 C 0.55725 0.01337 0.81486 0.0
C2448 C 0.55061 0.02499 0.79244 0.0
C2449 C 0.56051 0.01793 0.76946 0.0
C2450 C 0.57691 1.00033 0.76843 0.0
C2451 C 0.58519 0.99619 0.74145 0.0
C2452 C 0.61153 1.00118 0.73899 0.0
C2453 C 0.57923 0.97129 0.73264 0.0
C2454 C 0.57081 0.01418 0.72729 0.0
C2455 C 0.55661 0.02644 0.74381 0.0
C2456 C 0.54197 0.04417 0.73529 0.0
C2457 C 0.54233 0.04999 0.70946 0.0
C2458 C 0.55726 0.0382 0.69222 0.0
C2459 C 0.57136 0.01972 0.7013 0.0
H2460 H 0.75307 0.72698 0.08861 0.0
H2461 H 0.80161 0.66895 0.09169 0.0
H2462 H 0.79825 0.66405 0.04542 0.0
H2463 H 0.71537 0.70222 0.04076 0.0
H2464 H 0.70978 0.72986 0.02561 0.0
H2465 H 0.71635 0.72884 0.05895 0.0
H2466 H 0.7505 0.75793 0.05204 0.0
H2467 H 0.74416 0.75886 0.01862 0.0
H2468 H 0.77303 0.75106 0.02937 0.0
H2469 H 0.78984 0.66588 0.9978 0.0
H2470 H 0.77471 0.67246 0.95435 0.0
H2471 H 0.73139 0.72883 0.98261 0.0
C2472 C 0.76297 0.71319 0.0796 0.0
C2473 C 0.77753 0.69826 0.09405 0.0
C2474 C 0.79011 0.68044 0.08132 0.0
C2475 C 0.78845 0.67763 0.05489 0.0
C2476 C 0.77406 0.6927 0.04123 0.0
C2477 C 0.76138 0.71002 0.05322 0.0
C2478 C 0.7467 0.72355 0.03429 0.0
C2479 C 0.7205 0.72095 0.04026 0.0
C2480 C 0.75404 0.74938 0.03354 0.0
C2481 C 0.75308 0.71117 1.00983 0.0
C2482 C 0.76903 0.69354 1.01412 0.0
C2483 C 0.77734 0.67966 0.99428 0.0
C2484 C 0.76876 0.68361 0.96959 0.0
C2485 C 0.75189 0.70118 0.96491 0.0
C2486 C 0.74429 0.71525 0.98541 0.0
H2487 H 0.09006 0.05497 0.81774 0.0
H2488 H 0.03862 1.00654 0.84723 0.0
H2489 H 0.03648 0.98715 0.80509 0.0
H2490 H 0.06751 0.06102 0.75491 0.0
H2491 H 0.09585 0.06146 0.74001 0.0
H2492 H 0.09258 0.0718 0.77203 0.0
H2493 H 0.12422 0.0427 0.78734 0.0
H2494 H 0.12782 0.03256 0.75531 0.0
H2495 H 0.12104 0.01207 0.7802 0.0
H2496 H 0.03868 0.97478 0.75797 0.0
H2497 H 0.04994 0.96611 0.71348 0.0
H2498 H 0.10287 0.02016 0.71694 0.0
C2499 C 0.07841 0.0402 0.81532 0.0
C2500 C 0.06438 0.03226 0.83562 0.0
C2501 C 0.04954 0.01278 0.83189 0.0
C2502 C 0.04812 1.00183 0.80799 0.0
C2503 C 0.06202 0.01029 0.78818 0.0
C2504 C 0.0773 0.02872 0.79188 0.0
C2505 C 0.09142 0.03371 0.76817 0.0
C2506 C 0.08654 0.05847 0.7582 0.0
C2507 C 0.11768 0.03003 0.77305 0.0
C2508 C 0.08169 0.01533 0.75039 0.0
C2509 C 0.06436 1.00229 0.76201 0.0
C2510 C 0.05236 0.98478 0.74886 0.0
C2511 C 0.05869 0.9801 0.72353 0.0
C2512 C 0.07718 0.99252 0.71183 0.0
C2513 C 0.08863 0.01044 0.72545 0.0
H2514 H 0.78512 0.34981 0.55948 0.0
H2515 H 0.72245 0.3074 0.56358 0.0
H2516 H 0.72591 0.29858 0.51781 0.0
H2517 H 0.77578 0.37438 0.49902 0.0
H2518 H 0.80596 0.37296 0.48933 0.0
H2519 H 0.79874 0.37546 0.52241 0.0
H2520 H 0.82244 0.33803 0.53231 0.0
H2521 H 0.83005 0.33563 0.49931 0.0
H2522 H 0.81609 0.3115 0.51524 0.0
H2523 H 0.73476 0.29773 0.4695 0.0
H2524 H 0.75169 0.29959 0.42607 0.0
H2525 H 0.81009 0.33962 0.45526 0.0
C2526 C 0.77228 0.33839 0.55085 0.0
C2527 C 0.75344 0.32937 0.56523 0.0
C2528 C 0.73709 0.31444 0.55313 0.0
C2529 C 0.73884 0.30948 0.52702 0.0
C2530 C 0.75733 0.31917 0.51326 0.0
C2531 C 0.77408 0.33285 0.52501 0.0
C2532 C 0.79265 0.34067 0.50635 0.0
C2533 C 0.79331 0.36746 0.50416 0.0
C2534 C 0.81673 0.33087 0.51374 0.0
C2535 C 0.78364 0.32959 0.48216 0.0
C2536 C 0.76305 0.31753 0.48629 0.0
C2537 C 0.75106 0.30685 0.46624 0.0
C2538 C 0.76067 0.30811 0.4416 0.0
C2539 C 0.78225 0.31956 0.43735 0.0
C2540 C 0.79367 0.3305 0.45797 0.0
H2541 H 0.4887 0.99797 0.30531 0.0
H2542 H 0.4152 1.0023 0.32502 0.0
H2543 H 0.40544 1.00964 0.28008 0.0
H2544 H 0.48856 0.04276 0.2567 0.0
H2545 H 0.50867 0.02733 0.23649 0.0
H2546 H 0.50984 0.02324 0.2703 0.0
H2547 H 0.50506 0.97862 0.26414 0.0
H2548 H 0.50371 0.98259 0.23032 0.0
H2549 H 0.48038 0.9676 0.24655 0.0
H2550 H 0.40372 0.01681 0.23254 0.0
H2551 H 0.41013 0.02268 0.18666 0.0
H2552 H 0.48457 0.01206 0.19746 0.0
C2553 C 0.47056 1.00072 0.30025 0.0
C2554 C 0.45273 0.99971 0.31887 0.0
C2555 C 0.42919 1.00302 0.31123 0.0
C2556 C 0.42347 1.0072 0.28569 0.0
C2557 C 0.44143 1.00784 0.2678 0.0
C2558 C 0.46451 1.00465 0.27476 0.0
C2559 C 0.48044 1.0056 0.25174 0.0
C2560 C 0.49791 0.02594 0.25394 0.0
C2561 C 0.49314 0.98221 0.24797 0.0
C2562 C 0.46277 1.00991 0.23076 0.0
C2563 C 0.44037 0.01126 0.24044 0.0
C2564 C 0.4212 0.01567 0.22479 0.0
C2565 C 0.42501 0.01897 0.1987 0.0
C2566 C 0.44782 0.01766 0.18826 0.0
C2567 C 0.46687 0.01288 0.20466 0.0
H2568 H 0.77502 0.78053 0.58006 0.0
H2569 H 0.77108 0.85455 0.59709 0.0
H2570 H 0.765 0.86303 0.55164 0.0
H2571 H 0.80661 0.78648 0.52162 0.0
H2572 H 0.79143 0.76295 0.50596 0.0
H2573 H 0.79486 0.76258 0.53988 0.0
H2574 H 0.75002 0.75878 0.54538 0.0
H2575 H 0.74646 0.75897 0.51148 0.0
H2576 H 0.73107 0.77995 0.53065 0.0
H2577 H 0.75908 0.86343 0.50393 0.0
H2578 H 0.75363 0.85569 0.45824 0.0
H2579 H 0.76248 0.78152 0.47198 0.0
C2580 C 0.77268 0.79853 0.57431 0.0
C2581 C 0.77346 0.81687 0.59232 0.0
C2582 C 0.77058 0.84017 0.58378 0.0
C2583 C 0.76712 0.84517 0.55795 0.0
C2584 C 0.76669 0.82672 0.54069 0.0
C2585 C 0.76939 0.80385 0.54853 0.0
C2586 C 0.7685 0.78724 0.52611 0.0
C2587 C 0.79173 0.77404 0.52323 0.0
C2588 C 0.74778 0.77024 0.52856 0.0
C2589 C 0.76482 0.8043 0.50443 0.0
C2590 C 0.76377 0.82699 0.51326 0.0
C2591 C 0.75996 0.84573 0.49685 0.0
C2592 C 0.75689 0.84115 0.47087 0.0
C2593 C 0.75777 0.81802 0.46135 0.0
C2594 C 0.76202 0.79944 0.47849 0.0
H2595 H 0.42168 0.5536 0.82036 0.0
H2596 H 0.47958 0.50956 0.84271 0.0
H2597 H 0.48057 0.49257 0.79928 0.0
H2598 H 0.39277 0.51042 0.77942 0.0
H2599 H 0.38332 0.53246 0.75729 0.0
H2600 H 0.3869 0.53968 0.79027 0.0
H2601 H 0.41505 0.57324 0.77775 0.0
H2602 H 0.41195 0.56583 0.74478 0.0
H2603 H 0.44059 0.56682 0.75901 0.0
H2604 H 0.47713 0.48362 0.75128 0.0
H2605 H 0.46615 0.47915 0.70619 0.0
H2606 H 0.40906 0.52788 0.71693 0.0
C2607 C 0.43426 0.54 0.81625 0.0
C2608 C 0.45046 0.5327 0.83485 0.0
C2609 C 0.4668 0.51507 0.82879 0.0
C2610 C 0.46759 0.50554 0.80413 0.0
C2611 C 0.4517 0.51365 0.78596 0.0
C2612 C 0.435 0.53014 0.79202 0.0
C2613 C 0.4198 0.53604 0.7694 0.0
C2614 C 0.39418 0.52923 0.77439 0.0
C2615 C 0.42199 0.56202 0.76233 0.0
C2616 C 0.43069 0.5206 0.74937 0.0
C2617 C 0.44921 0.50796 0.7591 0.0
C2618 C 0.46241 0.4932 0.74368 0.0
C2619 C 0.4561 0.49085 0.71798 0.0
C2620 C 0.43654 0.50292 0.70792 0.0
C2621 C 0.42398 0.51821 0.72394 0.0
H2622 H 0.75406 0.23466 0.05488 0.0
H2623 H 0.74326 0.16071 0.06872 0.0
H2624 H 0.74981 0.15265 0.02331 0.0
H2625 H 0.72487 0.23658 0.99465 0.0
H2626 H 0.74495 0.25729 0.98087 0.0
H2627 H 0.73997 0.25726 1.01457 0.0
H2628 H 0.78438 0.25234 0.02251 0.0
H2629 H 0.78951 0.25249 0.98885 0.0
H2630 H 0.7997 0.22841 1.00786 0.0
H2631 H 0.75752 0.1526 0.97599 0.0
H2632 H 0.76602 0.16055 0.93093 0.0
H2633 H 0.77119 0.2346 0.94752 0.0
C2634 C 0.75324 0.21673 0.04844 0.0
C2635 C 0.74815 0.19831 0.06554 0.0
C2636 C 0.74705 0.17515 0.05612 0.0
C2637 C 0.75077 0.17038 0.0303 0.0
C2638 C 0.7555 0.18895 1.01394 0.0
C2639 C 0.75677 0.21167 0.02265 0.0
C2640 C 0.76187 0.22848 1.00106 0.0
C2641 C 0.74171 0.24593 0.99759 0.0
C2642 C 0.78526 0.24117 1.00533 0.0
C2643 C 0.76334 0.21169 0.97885 0.0
C2644 C 0.75964 0.18895 0.98671 0.0
C2645 C 0.76042 0.17035 0.96967 0.0
C2646 C 0.76527 0.17505 0.94405 0.0
C2647 C 0.76925 0.19821 0.9355 0.0
C2648 C 0.76807 0.21672 0.95327 0.0
H2649 H 0.06663 0.5126 0.32475 0.0
H2650 H 0.05996 0.43959 0.30342 0.0
H2651 H 0.06084 0.45042 0.25864 0.0
H2652 H 0.02939 0.53468 0.27387 0.0
H2653 H 0.04666 0.56056 0.26847 0.0
H2654 H 0.0459 0.54743 0.29949 0.0
H2655 H 0.09105 0.54434 0.29935 0.0
H2656 H 0.09194 0.55745 0.26832 0.0
H2657 H 0.10544 0.52945 0.27364 0.0
H2658 H 0.06377 0.46819 0.21578 0.0
H2659 H 0.06614 0.49277 0.17738 0.0
H2660 H 0.06887 0.55475 0.22462 0.0
C2661 C 0.06531 0.49895 0.31064 0.0
C2662 C 0.0632 0.47518 0.31796 0.0
C2663 C 0.06147 0.45793 0.29869 0.0
C2664 C 0.06203 0.46386 0.27298 0.0
C2665 C 0.0641 0.48724 0.26639 0.0
C2666 C 0.06551 0.50462 0.28454 0.0
C2667 C 0.06715 0.52845 0.27184 0.0
C2668 C 0.04602 0.54368 0.27884 0.0
C2669 C 0.09027 0.54064 0.2787 0.0
C2670 C 0.06657 0.52159 0.24393 0.0
C2671 C 0.06499 0.49768 0.24131 0.0
C2672 C 0.06482 0.48699 0.21755 0.0
C2673 C 0.06622 0.50109 0.1958 0.0
C2674 C 0.06748 0.5257 0.19783 0.0
C2675 C 0.06762 0.536 0.22233 0.0
H2676 H 0.2759 0.23525 0.58062 0.0
H2677 H 0.26925 0.16131 0.59731 0.0
H2678 H 0.26158 0.1534 0.55209 0.0
H2679 H 0.23044 0.23766 0.53262 0.0
H2680 H 0.24608 0.25822 0.51305 0.0
H2681 H 0.25055 0.2581 0.54683 0.0
H2682 H 0.29505 0.25284 0.53987 0.0
H2683 H 0.29069 0.25277 0.50607 0.0
H2684 H 0.3054 0.22866 0.52114 0.0
H2685 H 0.25496 0.15339 0.50473 0.0
H2686 H 0.24894 0.1614 0.45923 0.0
H2687 H 0.26025 0.2353 0.47288 0.0
C2688 C 0.27262 0.21741 0.57483 0.0
C2689 C 0.27321 0.1989 0.59267 0.0
C2690 C 0.26902 0.1758 0.58412 0.0
C2691 C 0.26463 0.17112 0.55841 0.0
C2692 C 0.2645 0.18969 0.54131 0.0
C2693 C 0.26831 0.2124 0.54916 0.0
C2694 C 0.26743 0.22915 0.52684 0.0
C2695 C 0.24743 0.24683 0.53003 0.0
C2696 C 0.29105 0.24159 0.52328 0.0
C2697 C 0.26253 0.21234 0.50523 0.0
C2698 C 0.26089 0.18966 0.51401 0.0
C2699 C 0.2562 0.17109 0.49768 0.0
C2700 C 0.25279 0.17583 0.47181 0.0
C2701 C 0.25413 0.19897 0.46232 0.0
C2702 C 0.25931 0.21738 0.47938 0.0
H2703 H 0.58319 0.50788 0.34191 0.0
H2704 H 0.54717 0.57227 0.32297 0.0
H2705 H 0.54599 0.56073 0.27825 0.0
H2706 H 0.61862 0.50529 0.2865 0.0
H2707 H 0.61646 0.47412 0.2824 0.0
H2708 H 0.61383 0.48665 0.31355 0.0
H2709 H 0.5736 0.4666 0.31938 0.0
H2710 H 0.57623 0.45377 0.28836 0.0
H2711 H 0.55098 0.47115 0.29611 0.0
H2712 H 0.55111 0.54402 0.23473 0.0
H2713 H 0.55851 0.52068 0.19607 0.0
H2714 H 0.58943 0.46622 0.24239 0.0
C2715 C 0.57467 0.5193 0.32842 0.0
C2716 C 0.56536 0.54108 0.33616 0.0
C2717 C 0.55461 0.55559 0.3177 0.0
C2718 C 0.55384 0.54922 0.29211 0.0
C2719 C 0.5637 0.52808 0.28494 0.0
C2720 C 0.5736 0.51311 0.30253 0.0
C2721 C 0.58296 0.49141 0.28945 0.0
C2722 C 0.60955 0.48925 0.2932 0.0
C2723 C 0.57017 0.46943 0.29889 0.0
C2724 C 0.57691 0.49671 0.26195 0.0
C2725 C 0.56598 0.51806 0.25976 0.0
C2726 C 0.55943 0.52711 0.23621 0.0
C2727 C 0.56378 0.51381 0.21431 0.0
C2728 C 0.57434 0.49155 0.21609 0.0
C2729 C 0.58107 0.48307 0.24032 0.0
H2730 H 0.29925 0.82738 0.98605 0.0
H2731 H 0.24035 0.80465 0.94041 0.0
H2732 H 0.217 0.79911 0.97957 0.0
H2733 H 0.29108 0.78864 0.03845 0.0
H2734 H 0.29899 0.80988 0.06216 0.0
H2735 H 0.31111 0.81193 0.03074 0.0
H2736 H 0.29557 0.8542 0.02656 0.0
H2737 H 0.28358 0.85238 0.05806 0.0
H2738 H 0.26495 0.85989 0.03175 0.0
H2739 H 0.20092 0.79445 0.02367 0.0
H2740 H 0.19097 0.79526 0.06884 0.0
H2741 H 0.25975 0.82321 0.08641 0.0
C2742 C 0.28142 0.82121 0.98424 0.0
C2743 C 0.27165 0.81619 0.96011 0.0
C2744 C 0.24817 0.80856 0.95861 0.0
C2745 C 0.23486 0.80527 0.98078 0.0
C2746 C 0.24519 0.81003 1.00424 0.0
C2747 C 0.26781 0.81822 1.00609 0.0
C2748 C 0.27451 0.82285 0.03355 0.0
C2749 C 0.29514 0.8074 0.0417 0.0
C2750 C 0.27997 0.84888 0.03772 0.0
C2751 C 0.25216 0.81573 0.04701 0.0
C2752 C 0.23561 0.80821 0.02967 0.0
C2753 C 0.21368 0.8005 0.03733 0.0
C2754 C 0.20825 0.80102 0.06319 0.0
C2755 C 0.22451 0.80942 0.08142 0.0
C2756 C 0.24694 0.81658 0.07312 0.0
H2757 H 0.94003 0.56107 0.7175 0.0
H2758 H 0.97436 0.50093 0.68467 0.0
H2759 H 0.97547 0.48208 0.72718 0.0
H2760 H 0.96901 0.56191 0.77762 0.0
H2761 H 0.94307 0.56961 0.79509 0.0
H2762 H 0.94615 0.57852 0.76253 0.0
H2763 H 0.90696 0.55825 0.75128 0.0
H2764 H 0.90361 0.54956 0.78386 0.0
H2765 H 0.90286 0.52788 0.75913 0.0
H2766 H 0.974 0.47094 0.77467 0.0
H2767 H 0.96445 0.46558 0.82004 0.0
H2768 H 0.92779 0.5317 0.82012 0.0
C2769 C 0.94788 0.54394 0.71927 0.0
C2770 C 0.95743 0.53252 0.69792 0.0
C2771 C 0.96705 0.50995 0.70084 0.0
C2772 C 0.96785 0.49923 0.72493 0.0
C2773 C 0.95849 0.51116 0.74572 0.0
C2774 C 0.94822 0.53283 0.7429 0.0
C2775 C 0.9379 0.54143 0.76763 0.0
C2776 C 0.94975 0.56422 0.77621 0.0
C2777 C 0.91125 0.54444 0.76533 0.0
C2778 C 0.94409 0.52134 0.78504 0.0
C2779 C 0.95636 0.50421 0.77225 0.0
C2780 C 0.96428 0.48422 0.78472 0.0
C2781 C 0.95896 0.4814 0.81061 0.0
C2782 C 0.94544 0.49823 0.82371 0.0
C2783 C 0.9382 0.51854 0.81067 0.0
H2784 H 0.24984 0.42674 0.15828 0.0
H2785 H 0.20836 0.36352 0.16033 0.0
H2786 H 0.17294 0.38645 0.14894 0.0
H2787 H 0.20794 0.46531 0.18451 0.0
H2788 H 0.21547 0.48947 0.16418 0.0
H2789 H 0.23719 0.46795 0.1721 0.0
H2790 H 0.24463 0.46013 0.12442 0.0
H2791 H 0.22313 0.48184 0.11634 0.0
H2792 H 0.2204 0.45257 0.10414 0.0
H2793 H 0.14146 0.41783 0.14016 0.0
H2794 H 0.11837 0.4532 0.12914 0.0
H2795 H 0.18166 0.4947 0.13069 0.0
C2796 C 0.23329 0.41774 0.15619 0.0
C2797 C 0.23168 0.39344 0.16029 0.0
C2798 C 0.20986 0.38213 0.15711 0.0
C2799 C 0.18971 0.39505 0.15084 0.0
C2800 C 0.19183 0.41918 0.14743 0.0
C2801 C 0.21324 0.43026 0.14953 0.0
C2802 C 0.21123 0.45616 0.14431 0.0
C2803 C 0.21838 0.47056 0.16767 0.0
C2804 C 0.2257 0.46307 0.12091 0.0
C2805 C 0.18529 0.45811 0.13918 0.0
C2806 C 0.17423 0.43671 0.14135 0.0
C2807 C 0.15005 0.43458 0.13818 0.0
C2808 C 0.13704 0.45472 0.13212 0.0
C2809 C 0.14831 0.47654 0.12891 0.0
C2810 C 0.17268 0.47815 0.13274 0.0
H2811 H 0.83532 1.00168 0.41307 0.0
H2812 H 0.89949 0.96469 0.39671 0.0
H2813 H 0.8764 0.9297 0.38424 0.0
H2814 H 0.804 0.95483 0.43974 0.0
H2815 H 0.77629 0.96282 0.42599 0.0
H2816 H 0.79788 0.98495 0.43234 0.0
H2817 H 0.79654 0.99812 0.38539 0.0
H2818 H 0.77476 0.97616 0.37892 0.0
H2819 H 0.80138 0.97696 0.36067 0.0
H2820 H 0.84558 0.8975 0.37763 0.0
H2821 H 0.81012 0.87282 0.37259 0.0
H2822 H 0.76659 0.93218 0.39111 0.0
C2823 C 0.84447 0.98625 0.40662 0.0
C2824 C 0.86915 0.98575 0.40592 0.0
C2825 C 0.88058 0.9654 0.39718 0.0
C2826 C 0.8676 0.94546 0.39023 0.0
C2827 C 0.84322 0.94638 0.39172 0.0
C2828 C 0.83181 0.96647 0.39924 0.0
C2829 C 0.80553 0.96319 0.3992 0.0
C2830 C 0.79534 0.96665 0.42591 0.0
C2831 C 0.79387 0.97958 0.37989 0.0
C2832 C 0.80382 0.93796 0.39093 0.0
C2833 C 0.8257 0.92842 0.38688 0.0
C2834 C 0.82839 0.90494 0.3804 0.0
C2835 C 0.80822 0.89101 0.37773 0.0
C2836 C 0.78568 0.90068 0.38119 0.0
C2837 C 0.78359 0.92446 0.38788 0.0
H2838 H 0.31519 0.62016 0.67209 0.0
H2839 H 0.27013 0.61899 0.60602 0.0
H2840 H 0.29508 0.58841 0.58693 0.0
H2841 H 0.3709 0.60854 0.63848 0.0
H2842 H 0.38179 0.5905 0.66386 0.0
H2843 H 0.36216 0.61427 0.67069 0.0
H2844 H 0.33406 0.58559 0.69341 0.0
H2845 H 0.35354 0.56178 0.68662 0.0
H2846 H 0.32343 0.56029 0.67663 0.0
H2847 H 0.32178 0.55412 0.57794 0.0
H2848 H 0.34896 0.52054 0.57882 0.0
H2849 H 0.37715 0.54456 0.65033 0.0
C2850 C 0.3107 0.61371 0.65345 0.0
C2851 C 0.29057 0.62197 0.6406 0.0
C2852 C 0.28551 0.61317 0.61613 0.0
C2853 C 0.29957 0.59571 0.6052 0.0
C2854 C 0.31883 0.58746 0.6188 0.0
C2855 C 0.32456 0.59642 0.64228 0.0
C2856 C 0.3453 0.58369 0.65373 0.0
C2857 C 0.36628 0.60024 0.65687 0.0
C2858 C 0.33867 0.57215 0.67909 0.0
C2859 C 0.34992 0.56559 0.63342 0.0
C2860 C 0.33455 0.56814 0.61335 0.0
C2861 C 0.33416 0.55228 0.59332 0.0
C2862 C 0.34959 0.53324 0.59399 0.0
C2863 C 0.36534 0.53018 0.61444 0.0
C2864 C 0.36575 0.54686 0.63415 0.0
H2865 H 0.67854 0.01348 0.88918 0.0
H2866 H 0.61612 0.0553 0.89845 0.0
H2867 H 0.63913 0.09116 0.88971 0.0
H2868 H 0.71983 0.05409 0.91671 0.0
H2869 H 0.74251 0.04768 0.89408 0.0
H2870 H 0.7213 0.02563 0.90222 0.0
H2871 H 0.71045 0.02097 0.85483 0.0
H2872 H 0.73165 0.04296 0.84654 0.0
H2873 H 0.7016 0.04626 0.8369 0.0
H2874 H 0.66976 0.12273 0.88093 0.0
H2875 H 0.70422 0.14657 0.86854 0.0
H2876 H 0.74572 0.08365 0.86239 0.0
C2877 C 0.6698 0.03023 0.88958 0.0
C2878 C 0.64559 0.03168 0.8947 0.0
C2879 C 0.63464 0.05384 0.89452 0.0
C2880 C 0.6476 0.07428 0.88971 0.0
C2881 C 0.67148 0.07224 0.88475 0.0
C2882 C 0.68239 0.05071 0.88433 0.0
C2883 C 0.70796 0.0531 0.8772 0.0
C2884 C 0.72383 0.04462 0.89885 0.0
C2885 C 0.71321 0.04005 0.85239 0.0
C2886 C 0.70978 0.07931 0.8737 0.0
C2887 C 0.68866 0.09013 0.87849 0.0
C2888 C 0.68632 0.11437 0.87699 0.0
C2889 C 0.70595 0.1278 0.87007 0.0
C2890 C 0.72752 0.11695 0.8643 0.0
C2891 C 0.72936 0.09239 0.86634 0.0
H2892 H 0.17752 0.51853 0.39259 0.0
H2893 H 0.11496 0.56062 0.38721 0.0
H2894 H 0.13951 0.59603 0.38043 0.0
H2895 H 0.21171 0.55833 0.42689 0.0
H2896 H 0.23862 0.55147 0.41082 0.0
H2897 H 0.21601 0.52972 0.41347 0.0
H2898 H 0.21547 0.52466 0.36467 0.0
H2899 H 0.23834 0.54617 0.36188 0.0
H2900 H 0.21134 0.54989 0.34473 0.0
H2901 H 0.17227 0.62741 0.3781 0.0
H2902 H 0.20913 0.6504 0.37531 0.0
H2903 H 0.24912 0.58652 0.38156 0.0
C2904 C 0.16899 0.53518 0.38965 0.0
C2905 C 0.1444 0.53695 0.39045 0.0
C2906 C 0.13379 0.55895 0.3864 0.0
C2907 C 0.14762 0.5791 0.38276 0.0
C2908 C 0.17196 0.5768 0.3829 0.0
C2909 C 0.18245 0.55523 0.38579 0.0
C2910 C 0.20881 0.55708 0.38546 0.0
C2911 C 0.2194 0.54866 0.41066 0.0
C2912 C 0.21909 0.54366 0.36283 0.0
C2913 C 0.21171 0.58314 0.38224 0.0
C2914 C 0.19037 0.59438 0.38095 0.0
C2915 C 0.18902 0.61867 0.37882 0.0
C2916 C 0.20999 0.63162 0.37746 0.0
C2917 C 0.23194 0.62021 0.378 0.0
C2918 C 0.23261 0.59569 0.38067 0.0
H2919 H 0.67801 0.99712 0.64382 0.0
H2920 H 0.61624 0.95506 0.63095 0.0
H2921 H 0.63856 0.91941 0.64281 0.0
H2922 H 0.71922 0.95832 0.61885 0.0
H2923 H 0.74151 0.96451 0.64205 0.0
H2924 H 0.72021 0.98644 0.63416 0.0
H2925 H 0.70835 0.98982 0.6814 0.0
H2926 H 0.72985 0.96811 0.6895 0.0
H2927 H 0.69973 0.96396 0.69852 0.0
H2928 H 0.66987 0.88785 0.65198 0.0
H2929 H 0.70508 0.86447 0.66287 0.0
H2930 H 0.74512 0.92821 0.67139 0.0
C2931 C 0.66912 0.98042 0.64389 0.0
C2932 C 0.64545 0.97874 0.63647 0.0
C2933 C 0.6343 0.95666 0.63683 0.0
C2934 C 0.64692 0.93637 0.64334 0.0
C2935 C 0.67053 0.93859 0.64987 0.0
C2936 C 0.68131 0.9602 0.65068 0.0
C2937 C 0.70678 0.95817 0.65816 0.0
C2938 C 0.72287 0.9674 0.63704 0.0
C2939 C 0.71144 0.97076 0.6834 0.0
C2940 C 0.70892 0.93198 0.66103 0.0
C2941 C 0.68795 0.92085 0.656 0.0
C2942 C 0.68623 0.89649 0.65631 0.0
C2943 C 0.70631 0.88333 0.66232 0.0
C2944 C 0.72771 0.89454 0.66824 0.0
C2945 C 0.72889 0.91917 0.66742 0.0
H2946 H 0.34175 0.49984 0.91451 0.0
H2947 H 0.40602 0.46295 0.89787 0.0
H2948 H 0.38294 0.42798 0.8856 0.0
H2949 H 0.31089 0.45191 0.94176 0.0
H2950 H 0.28311 0.46033 0.9285 0.0
H2951 H 0.30487 0.48222 0.93524 0.0
H2952 H 0.303 0.49644 0.88865 0.0
H2953 H 0.28122 0.47459 0.88177 0.0
H2954 H 0.30772 0.47586 0.86334 0.0
H2955 H 0.35169 0.39599 0.87706 0.0
H2956 H 0.31603 0.37182 0.87081 0.0
H2957 H 0.27323 0.43074 0.89302 0.0
C2958 C 0.35106 0.4844 0.90842 0.0
C2959 C 0.37577 0.48414 0.90737 0.0
C2960 C 0.38713 0.46365 0.89872 0.0
C2961 C 0.37414 0.44366 0.89184 0.0
C2962 C 0.34976 0.44448 0.89347 0.0
C2963 C 0.33841 0.46449 0.90137 0.0
C2964 C 0.31215 0.4612 0.90145 0.0
C2965 C 0.30218 0.46408 0.92834 0.0
C2966 C 0.30033 0.47802 0.88268 0.0
C2967 C 0.31035 0.43616 0.89254 0.0
C2968 C 0.33214 0.42664 0.88809 0.0
C2969 C 0.33457 0.40342 0.88034 0.0
C2970 C 0.31424 0.38976 0.87693 0.0
C2971 C 0.29174 0.39938 0.88106 0.0
C2972 C 0.29003 0.4229 0.88907 0.0
H2973 H 0.83688 0.01373 0.13943 0.0
H2974 H 0.89748 0.05465 0.11757 0.0
H2975 H 0.87354 0.09066 0.11981 0.0
H2976 H 0.79407 0.04654 0.10423 0.0
H2977 H 0.77199 0.04342 0.12835 0.0
H2978 H 0.79399 0.02123 0.12456 0.0
H2979 H 0.80558 0.02575 0.17179 0.0
H2980 H 0.78368 0.04799 0.17571 0.0
H2981 H 0.81371 0.05412 0.1837 0.0
H2982 H 0.84198 0.12246 0.1246 0.0
H2983 H 0.80687 0.14655 0.13287 0.0
H2984 H 0.76768 0.08382 0.15096 0.0
C2985 C 0.84516 0.03015 0.1347 0.0
C2986 C 0.8691 0.03124 0.12806 0.0
C2987 C 0.87923 0.05332 0.12277 0.0
C2988 C 0.86572 0.07386 0.12389 0.0
C2989 C 0.84212 0.07205 0.13042 0.0
C2990 C 0.83202 0.05069 0.13579 0.0
C2991 C 0.80652 0.05324 0.14288 0.0
C2992 C 0.79071 0.04035 0.12387 0.0
C2993 C 0.80212 0.04478 0.17014 0.0
C2994 C 0.80371 0.07942 0.14073 0.0
C2995 C 0.82434 0.09006 0.13343 0.0
C2996 C 0.82577 0.11423 0.13029 0.0
C2997 C 0.80568 0.12778 0.13491 0.0
C2998 C 0.78444 0.11718 0.14271 0.0
C2999 C 0.78363 0.09262 0.14543 0.0
H3000 H 0.8378 0.50817 0.90322 0.0
H3001 H 0.90096 0.54918 0.9138 0.0
H3002 H 0.87763 0.58536 0.90999 0.0
H3003 H 0.81109 0.5446 0.85763 0.0
H3004 H 0.78192 0.54031 0.86967 0.0
H3005 H 0.80358 0.51786 0.87375 0.0
H3006 H 0.79677 0.51844 0.92228 0.0
H3007 H 0.77497 0.54081 0.91835 0.0
H3008 H 0.79941 0.5456 0.9393 0.0
H3009 H 0.84674 0.61732 0.90405 0.0
H3010 H 0.81184 0.64162 0.89662 0.0
H3011 H 0.76925 0.57895 0.89168 0.0
C3012 C 0.84687 0.52463 0.90522 0.0
C3013 C 0.87139 0.52559 0.90901 0.0
C3014 C 0.88231 0.5478 0.91077 0.0
C3015 C 0.86915 0.56849 0.90873 0.0
C3016 C 0.84504 0.56677 0.90497 0.0
C3017 C 0.83406 0.54534 0.90332 0.0
C3018 C 0.80803 0.54801 0.89889 0.0
C3019 C 0.80074 0.53705 0.87348 0.0
C3020 C 0.79397 0.5376 0.92103 0.0
C3021 C 0.80599 0.57435 0.89817 0.0
C3022 C 0.82747 0.58492 0.90173 0.0
C3023 C 0.82983 0.60916 0.90141 0.0
C3024 C 0.80979 0.62287 0.89729 0.0
C3025 C 0.78753 0.61238 0.89353 0.0
C3026 C 0.78584 0.58771 0.89415 0.0
H3027 H 0.1529 0.03209 0.66792 0.0
H3028 H 0.13406 0.05832 0.59374 0.0
H3029 H 0.16023 0.0922 0.59982 0.0
H3030 H 0.16048 0.09033 0.69939 0.0
H3031 H 0.18534 0.08051 0.71747 0.0
H3032 H 0.16259 0.06016 0.70889 0.0
H3033 H 0.19346 0.03349 0.68777 0.0
H3034 H 0.21623 0.05382 0.69605 0.0
H3035 H 0.2122 0.04531 0.66346 0.0
H3036 H 0.1913 0.12067 0.6117 0.0
H3037 H 0.22512 0.1421 0.6285 0.0
H3038 H 0.22455 0.09797 0.6955 0.0
C3039 C 0.15381 0.04542 0.6534 0.0
C3040 C 0.14133 0.04279 0.63044 0.0
C3041 C 0.14344 0.06012 0.61144 0.0
C3042 C 0.15821 0.07943 0.61478 0.0
C3043 C 0.17085 0.0812 0.63725 0.0
C3044 C 0.16876 0.06476 0.65634 0.0
C3045 C 0.18587 0.06985 0.67766 0.0
C3046 C 0.17278 0.07556 0.70231 0.0
C3047 C 0.20295 0.0494 0.68144 0.0
C3048 C 0.19829 0.09127 0.66721 0.0
C3049 C 0.18911 0.09765 0.64404 0.0
C3050 C 0.19839 0.1161 0.63005 0.0
C3051 C 0.21765 0.12829 0.63988 0.0
C3052 C 0.22767 0.12201 0.66352 0.0
C3053 C 0.21752 0.10332 0.67739 0.0
H3054 H 0.64011 0.4724 0.37756 0.0
H3055 H 0.6771 0.50032 0.44253 0.0
H3056 H 0.71052 0.47457 0.4336 0.0
H3057 H 0.6578 0.41406 0.38548 0.0
H3058 H 0.66149 0.40762 0.3523 0.0
H3059 H 0.64107 0.42975 0.36206 0.0
H3060 H 0.66179 0.46009 0.33344 0.0
H3061 H 0.68213 0.43798 0.32331 0.0
H3062 H 0.6928 0.46484 0.33687 0.0
H3063 H 0.73815 0.44338 0.42066 0.0
H3064 H 0.76037 0.41096 0.40148 0.0
H3065 H 0.70658 0.40314 0.34413 0.0
C3066 C 0.65553 0.47344 0.38941 0.0
C3067 C 0.65602 0.48825 0.41081 0.0
C3068 C 0.67632 0.48891 0.4262 0.0
C3069 C 0.6954 0.47439 0.42126 0.0
C3070 C 0.6941 0.45933 0.40068 0.0
C3071 C 0.6749 0.45893 0.38471 0.0
C3072 C 0.67785 0.44036 0.36444 0.0
C3073 C 0.6584 0.42186 0.36619 0.0
C3074 C 0.6787 0.45149 0.33794 0.0
C3075 C 0.70144 0.43025 0.37187 0.0
C3076 C 0.71043 0.44145 0.39287 0.0
C3077 C 0.73145 0.43462 0.40401 0.0
C3078 C 0.74385 0.41605 0.39315 0.0
C3079 C 0.73529 0.40457 0.3713 0.0
C3080 C 0.71373 0.41181 0.36063 0.0
H3081 H 0.3755 0.97233 0.14144 0.0
H3082 H 0.3447 0.99209 0.06939 0.0
H3083 H 0.3144 0.96207 0.07469 0.0
H3084 H 0.36518 0.91069 0.13606 0.0
H3085 H 0.35775 0.90658 0.16894 0.0
H3086 H 0.37731 0.9298 0.15983 0.0
H3087 H 0.35053 0.96001 0.18189 0.0
H3088 H 0.33102 0.93685 0.19127 0.0
H3089 H 0.32001 0.96135 0.17347 0.0
H3090 H 0.28784 0.92906 0.08681 0.0
H3091 H 0.26485 0.89767 0.10715 0.0
H3092 H 0.31183 0.89938 0.17171 0.0
C3093 C 0.36224 0.9705 0.12694 0.0
C3094 C 0.36286 0.98444 0.10478 0.0
C3095 C 0.34511 0.98134 0.08624 0.0
C3096 C 0.32767 0.96436 0.08911 0.0
C3097 C 0.3279 0.95054 0.11076 0.0
C3098 C 0.34451 0.95355 0.12953 0.0
C3099 C 0.34046 0.93644 0.15107 0.0
C3100 C 0.36142 0.9199 0.15415 0.0
C3101 C 0.33519 0.94944 0.17589 0.0
C3102 C 0.31903 0.92345 0.1414 0.0
C3103 C 0.31219 0.93176 0.11802 0.0
C3104 C 0.29298 0.92244 0.10518 0.0
C3105 C 0.28011 0.90445 0.11679 0.0
C3106 C 0.28638 0.89603 0.14109 0.0
C3107 C 0.30634 0.90557 0.15328 0.0
H3108 H 0.76835 0.43224 0.64263 0.0
H3109 H 0.80975 0.371 0.66012 0.0
H3110 H 0.84597 0.39475 0.656 0.0
H3111 H 0.80611 0.45554 0.59597 0.0
H3112 H 0.80068 0.48546 0.60471 0.0
H3113 H 0.77857 0.46362 0.61003 0.0
H3114 H 0.77711 0.47479 0.6576 0.0
H3115 H 0.79926 0.49667 0.65244 0.0
H3116 H 0.80364 0.47435 0.67604 0.0
H3117 H 0.87799 0.42657 0.64962 0.0
H3118 H 0.9017 0.46164 0.63894 0.0
H3119 H 0.83804 0.50078 0.62603 0.0
C3120 C 0.78496 0.42379 0.64605 0.0
C3121 C 0.78615 0.39977 0.65207 0.0
C3122 C 0.80839 0.38936 0.65551 0.0
C3123 C 0.82903 0.40277 0.65333 0.0
C3124 C 0.82711 0.42652 0.64755 0.0
C3125 C 0.80553 0.4368 0.64384 0.0
C3126 C 0.80783 0.4623 0.63686 0.0
C3127 C 0.7977 0.46699 0.61032 0.0
C3128 C 0.79628 0.47794 0.65694 0.0
C3129 C 0.83411 0.46494 0.63712 0.0
C3130 C 0.84509 0.44427 0.64349 0.0
C3131 C 0.86947 0.44279 0.64464 0.0
C3132 C 0.88282 0.46281 0.6387 0.0
C3133 C 0.87175 0.48391 0.63146 0.0
C3134 C 0.84708 0.48487 0.63112 0.0
H3135 H 0.26696 0.08374 0.38763 0.0
H3136 H 0.30778 0.14717 0.37996 0.0
H3137 H 0.34423 0.12417 0.38433 0.0
H3138 H 0.30335 0.05685 0.43465 0.0
H3139 H 0.29939 0.0278 0.42224 0.0
H3140 H 0.27682 0.04934 0.41808 0.0
H3141 H 0.27804 0.04282 0.36951 0.0
H3142 H 0.30065 0.02128 0.37352 0.0
H3143 H 0.30539 0.04592 0.35288 0.0
H3144 H 0.37644 0.09342 0.38842 0.0
H3145 H 0.40109 0.05835 0.39504 0.0
H3146 H 0.33866 0.0157 0.40092 0.0
C3147 C 0.28356 0.09279 0.38668 0.0
C3148 C 0.28453 0.11725 0.3833 0.0
C3149 C 0.30662 0.12848 0.38269 0.0
C3150 C 0.3274 0.11553 0.385 0.0
C3151 C 0.32579 0.09138 0.38815 0.0
C3152 C 0.30438 0.08019 0.38922 0.0
C3153 C 0.30726 0.0542 0.39341 0.0
C3154 C 0.29604 0.04661 0.41859 0.0
C3155 C 0.29724 0.04024 0.37099 0.0
C3156 C 0.33364 0.05243 0.39448 0.0
C3157 C 0.34409 0.07398 0.3912 0.0
C3158 C 0.36838 0.07649 0.3911 0.0
C3159 C 0.38226 0.05648 0.39473 0.0
C3160 C 0.37182 0.03433 0.39868 0.0
C3161 C 0.34718 0.03242 0.39836 0.0
H3162 H 0.73778 0.61525 0.13757 0.0
H3163 H 0.72218 0.62449 0.21713 0.0
H3164 H 0.68747 0.59895 0.21283 0.0
H3165 H 0.67613 0.61082 0.1146 0.0
H3166 H 0.6832 0.58837 0.09195 0.0
H3167 H 0.70478 0.60999 0.10041 0.0
H3168 H 0.73358 0.57708 0.11291 0.0
H3169 H 0.71207 0.5554 0.1047 0.0
H3170 H 0.72473 0.55558 0.13597 0.0
H3171 H 0.65667 0.5699 0.20093 0.0
H3172 H 0.63243 0.53856 0.18265 0.0
H3173 H 0.66816 0.54698 0.11067 0.0
C3174 C 0.72655 0.61239 0.15379 0.0
C3175 C 0.73229 0.62206 0.17761 0.0
C3176 C 0.71781 0.61735 0.19873 0.0
C3177 C 0.6981 0.60293 0.19643 0.0
C3178 C 0.69316 0.59314 0.17286 0.0
C3179 C 0.70693 0.59766 0.15187 0.0
C3180 C 0.69892 0.58321 0.12935 0.0
C3181 C 0.69024 0.59905 0.1078 0.0
C3182 C 0.71849 0.56685 0.12021 0.0
C3183 C 0.67889 0.56957 0.14114 0.0
C3184 C 0.67567 0.57583 0.16614 0.0
C3185 C 0.65883 0.56506 0.18126 0.0
C3186 C 0.64503 0.54728 0.17064 0.0
C3187 C 0.64821 0.54021 0.14513 0.0
C3188 C 0.66528 0.5518 0.13023 0.0
H3189 H 0.17656 0.99839 0.9101 0.0
H3190 H 0.11272 0.95797 0.90497 0.0
H3191 H 0.13602 0.92242 0.89538 0.0
H3192 H 0.20675 0.96933 0.85867 0.0
H3193 H 0.23483 0.97136 0.87403 0.0
H3194 H 0.21282 0.9931 0.88008 0.0
H3195 H 0.21606 0.98485 0.92824 0.0
H3196 H 0.23791 0.96293 0.92233 0.0
H3197 H 0.21186 0.95551 0.93979 0.0
H3198 H 0.16759 0.89063 0.88912 0.0
H3199 H 0.20346 0.86712 0.88171 0.0
H3200 H 0.24567 0.92955 0.88935 0.0
C3201 C 0.16749 0.98205 0.90688 0.0
C3202 C 0.14288 0.98081 0.90843 0.0
C3203 C 0.13157 0.95924 0.90373 0.0
C3204 C 0.14469 0.93899 0.89845 0.0
C3205 C 0.16906 0.94076 0.89759 0.0
C3206 C 0.18025 0.96191 0.90126 0.0
C3207 C 0.20649 0.95954 0.89886 0.0
C3208 C 0.21576 0.9742 0.87658 0.0
C3209 C 0.21879 0.96609 0.92379 0.0
C3210 C 0.20849 0.93368 0.89352 0.0
C3211 C 0.1868 0.92299 0.89308 0.0
C3212 C 0.18459 0.89894 0.88919 0.0
C3213 C 0.20501 0.88568 0.88519 0.0
C3214 C 0.22725 0.89657 0.88476 0.0
C3215 C 0.22886 0.92083 0.88921 0.0
loop_
_geom_bond_atom_site_label_1
_geom_bond_atom_site_label_2
_geom_bond_distance
_geom_bond_site_symmetry_2
_ccdc_geom_bond_type
C0 C1 1.351 . S
C0 N3 1.368 . S
C0 H5 0.931 . S
C1 C0 1.351 . S
C1 N2 1.373 . S
C1 H29 0.930 . S
N2 C1 1.373 . S
N2 C4 1.340 . S
N3 C0 1.368 . S
N3 C4 1.321 . S
N3 Co6 2.135 . S
C4 N2 1.340 . S
C4 N3 1.321 . S
C4 H28 0.930 . S
H5 C0 0.931 . S
Co6 N3 2.135 . S
Co6 N9 2.121 . S
Co6 O14 2.055 . S
Co6 O17 2.039 . S
Co6 N20 2.140 . S
C7 O8 1.227 . S
C7 O17 1.265 . S
O8 C7 1.227 . S
N9 Co6 2.121 . S
N9 C11 1.375 . S
N9 C12 1.313 . S
C10 C11 1.338 . S
C10 N13 1.377 . S
C10 H30 0.930 . S
C11 N9 1.375 . S
C11 C10 1.338 . S
C11 H15 0.931 . S
C12 N9 1.313 . S
C12 N13 1.344 . S
C12 H16 0.930 . S
N13 C10 1.377 . S
N13 C12 1.344 . S
O14 Co6 2.055 . S
O14 C18 1.253 . S
H15 C11 0.931 . S
H16 C12 0.930 . S
O17 Co6 2.039 . S
O17 C7 1.265 . S
C18 O14 1.253 . S
C18 O19 1.227 . S
O19 C18 1.227 . S
N20 Co6 2.140 . S
N20 C23 1.346 . S
N20 C24 1.345 . S
C21 C22 1.387 . S
C21 C25 1.391 . S
C22 C21 1.387 . S
C22 C23 1.369 . S
C22 H31 0.929 . S
C23 N20 1.346 . S
C23 C22 1.369 . S
C23 H26 0.928 . S
C24 N20 1.345 . S
C24 C25 1.371 . S
C24 H27 0.931 . S
C25 C21 1.391 . S
C25 C24 1.371 . S
C25 H32 0.930 . S
H26 C23 0.928 . S
H27 C24 0.931 . S
H28 C4 0.930 . S
H29 C1 0.930 . S
H30 C10 0.930 . S
H31 C22 0.929 . S
H32 C25 0.930 . S
C33 C34 1.351 1_545 S
C33 N36 1.368 . S
C33 H38 0.931 . S
C34 C33 1.351 1_565 S
C34 N35 1.373 . S
C34 H62 0.930 . S
N35 C34 1.373 . S
N35 C37 1.351 . S
N36 C33 1.368 . S
N36 C37 1.308 1_545 S
N36 Co39 2.135 . S
C37 N35 1.351 . S
C37 N36 1.308 1_565 S
C37 H61 0.933 . S
H38 C33 0.931 . S
Co39 N36 2.135 . S
Co39 N42 2.121 . S
Co39 O47 2.055 . S
Co39 O50 2.039 . S
Co39 N53 2.140 . S
C40 O41 1.227 . S
C40 O50 1.265 . S
O41 C40 1.227 . S
N42 Co39 2.121 . S
N42 C44 1.375 . S
N42 C45 1.313 . S
C43 C44 1.338 . S
C43 N46 1.377 1_655 S
C43 H63 0.930 . S
C44 N42 1.375 . S
C44 C43 1.338 . S
C44 H48 0.931 . S
C45 N42 1.313 . S
C45 N46 1.344 1_655 S
C45 H49 0.930 . S
N46 C43 1.377 1_455 S
N46 C45 1.344 1_455 S
O47 Co39 2.055 . S
O47 C51 1.253 . S
H48 C44 0.931 . S
H49 C45 0.930 . S
O50 Co39 2.039 . S
O50 C40 1.265 . S
C51 O47 1.253 . S
C51 O52 1.227 . S
O52 C51 1.227 . S
N53 Co39 2.140 . S
N53 C56 1.346 . S
N53 C57 1.345 . S
C54 C55 1.387 . S
C54 C58 1.391 . S
C55 C54 1.387 . S
C55 C56 1.369 . S
C55 H64 0.929 . S
C56 N53 1.346 . S
C56 C55 1.369 . S
C56 H59 0.928 . S
C57 N53 1.345 . S
C57 C58 1.371 . S
C57 H60 0.931 . S
C58 C54 1.391 . S
C58 C57 1.371 . S
C58 H65 0.930 . S
H59 C56 0.928 . S
H60 C57 0.931 . S
H61 C37 0.933 . S
H62 C34 0.930 . S
H63 C43 0.930 . S
H64 C55 0.929 . S
H65 C58 0.930 . S
C66 C67 1.351 . S
C66 N69 1.368 . S
C66 H71 0.931 . S
C67 C66 1.351 . S
C67 N68 1.373 . S
C67 H95 0.930 . S
N68 C67 1.373 . S
N68 C70 1.340 . S
N69 C66 1.368 . S
N69 C70 1.321 . S
N69 Co72 2.135 . S
C70 N68 1.340 . S
C70 N69 1.321 . S
C70 H94 0.930 . S
H71 C66 0.931 . S
Co72 N69 2.135 . S
Co72 N75 2.121 . S
Co72 O80 2.055 . S
Co72 O83 2.039 . S
Co72 N86 2.140 . S
C73 O74 1.227 . S
C73 O83 1.265 . S
O74 C73 1.227 . S
N75 Co72 2.121 . S
N75 C77 1.375 . S
N75 C78 1.313 . S
C76 C77 1.338 . S
C76 N79 1.377 . S
C76 H96 0.930 . S
C77 N75 1.375 . S
C77 C76 1.338 . S
C77 H81 0.931 . S
C78 N75 1.313 . S
C78 N79 1.344 . S
C78 H82 0.930 . S
N79 C76 1.377 . S
N79 C78 1.344 . S
O80 Co72 2.055 . S
O80 C84 1.253 . S
H81 C77 0.931 . S
H82 C78 0.930 . S
O83 Co72 2.039 . S
O83 C73 1.265 . S
C84 O80 1.253 . S
C84 O85 1.227 . S
O85 C84 1.227 . S
N86 Co72 2.140 . S
N86 C89 1.346 . S
N86 C90 1.345 . S
C87 C88 1.387 . S
C87 C91 1.391 . S
C88 C87 1.387 . S
C88 C89 1.369 . S
C88 H97 0.929 . S
C89 N86 1.346 . S
C89 C88 1.369 . S
C89 H92 0.928 . S
C90 N86 1.345 . S
C90 C91 1.371 . S
C90 H93 0.931 . S
C91 C87 1.391 . S
C91 C90 1.371 . S
C91 H98 0.930 . S
H92 C89 0.928 . S
H93 C90 0.931 . S
H94 C70 0.930 . S
H95 C67 0.930 . S
H96 C76 0.930 . S
H97 C88 0.929 . S
H98 C91 0.930 . S
C99 C100 1.351 1_565 S
C99 N102 1.368 . S
C99 H104 0.931 . S
C100 C99 1.351 1_545 S
C100 N101 1.373 . S
C100 H128 0.930 . S
N101 C100 1.373 . S
N101 C103 1.351 . S
N102 C99 1.368 . S
N102 C103 1.308 1_565 S
N102 Co105 2.135 . S
C103 N101 1.351 . S
C103 N102 1.308 1_545 S
C103 H127 0.933 . S
H104 C99 0.931 . S
Co105 N102 2.135 . S
Co105 N108 2.121 . S
Co105 O113 2.055 . S
Co105 O116 2.039 . S
Co105 N119 2.140 . S
C106 O107 1.227 . S
C106 O116 1.265 . S
O107 C106 1.227 . S
N108 Co105 2.121 . S
N108 C110 1.375 . S
N108 C111 1.313 . S
C109 C110 1.338 . S
C109 N112 1.377 . S
C109 H129 0.930 . S
C110 N108 1.375 . S
C110 C109 1.338 . S
C110 H114 0.931 . S
C111 N108 1.313 . S
C111 N112 1.344 . S
C111 H115 0.930 . S
N112 C109 1.377 . S
N112 C111 1.344 . S
O113 Co105 2.055 . S
O113 C117 1.253 . S
H114 C110 0.931 . S
H115 C111 0.930 . S
O116 Co105 2.039 . S
O116 C106 1.265 . S
C117 O113 1.253 . S
C117 O118 1.227 . S
O118 C117 1.227 . S
N119 Co105 2.140 . S
N119 C122 1.346 . S
N119 C123 1.345 . S
C120 C121 1.387 . S
C120 C124 1.391 . S
C121 C120 1.387 . S
C121 C122 1.369 . S
C121 H130 0.929 . S
C122 N119 1.346 . S
C122 C121 1.369 . S
C122 H125 0.928 . S
C123 N119 1.345 . S
C123 C124 1.371 . S
C123 H126 0.931 . S
C124 C120 1.391 . S
C124 C123 1.371 . S
C124 H131 0.930 . S
H125 C122 0.928 . S
H126 C123 0.931 . S
H127 C103 0.933 . S
H128 C100 0.930 . S
H129 C109 0.930 . S
H130 C121 0.929 . S
H131 C124 0.930 . S
C132 C133 1.351 . S
C132 N135 1.368 . S
C132 H137 0.931 . S
C133 C132 1.351 . S
C133 N134 1.373 . S
C133 H161 0.930 . S
N134 C133 1.373 . S
N134 C136 1.340 . S
N135 C132 1.368 . S
N135 C136 1.321 . S
N135 Co138 2.135 . S
C136 N134 1.340 . S
C136 N135 1.321 . S
C136 H160 0.930 . S
H137 C132 0.931 . S
Co138 N135 2.135 . S
Co138 N141 2.121 . S
Co138 O146 2.055 . S
Co138 O149 2.039 . S
Co138 N152 2.140 . S
C139 O140 1.227 . S
C139 O149 1.265 . S
O140 C139 1.227 . S
N141 Co138 2.121 . S
N141 C143 1.375 . S
N141 C144 1.313 . S
C142 C143 1.338 . S
C142 N145 1.377 . S
C142 H162 0.930 . S
C143 N141 1.375 . S
C143 C142 1.338 . S
C143 H147 0.931 . S
C144 N141 1.313 . S
C144 N145 1.344 . S
C144 H148 0.930 . S
N145 C142 1.377 . S
N145 C144 1.344 . S
O146 Co138 2.055 . S
O146 C150 1.253 . S
H147 C143 0.931 . S
H148 C144 0.930 . S
O149 Co138 2.039 . S
O149 C139 1.265 . S
C150 O146 1.253 . S
C150 O151 1.227 . S
O151 C150 1.227 . S
N152 Co138 2.140 . S
N152 C155 1.346 . S
N152 C156 1.345 . S
C153 C154 1.387 . S
C153 C157 1.391 . S
C154 C153 1.387 . S
C154 C155 1.369 . S
C154 H163 0.929 . S
C155 N152 1.346 . S
C155 C154 1.369 . S
C155 H158 0.928 . S
C156 N152 1.345 . S
C156 C157 1.371 . S
C156 H159 0.931 . S
C157 C153 1.391 . S
C157 C156 1.371 . S
C157 H164 0.930 . S
H158 C155 0.928 . S
H159 C156 0.931 . S
H160 C136 0.930 . S
H161 C133 0.930 . S
H162 C142 0.930 . S
H163 C154 0.929 . S
H164 C157 0.930 . S
C165 C166 1.351 1_545 S
C165 N168 1.368 . S
C165 H170 0.931 . S
C166 C165 1.351 1_565 S
C166 N167 1.373 . S
C166 H194 0.930 . S
N167 C166 1.373 . S
N167 C169 1.351 . S
N168 C165 1.368 . S
N168 C169 1.308 1_545 S
N168 Co171 2.135 . S
C169 N167 1.351 . S
C169 N168 1.308 1_565 S
C169 H193 0.933 . S
H170 C165 0.931 . S
Co171 N168 2.135 . S
Co171 N174 2.121 . S
Co171 O179 2.055 . S
Co171 O182 2.039 . S
Co171 N185 2.140 . S
C172 O173 1.227 . S
C172 O182 1.265 . S
O173 C172 1.227 . S
N174 Co171 2.121 . S
N174 C176 1.375 . S
N174 C177 1.313 . S
C175 C176 1.338 . S
C175 N178 1.377 . S
C175 H195 0.930 . S
C176 N174 1.375 . S
C176 C175 1.338 . S
C176 H180 0.931 . S
C177 N174 1.313 . S
C177 N178 1.344 . S
C177 H181 0.930 . S
N178 C175 1.377 . S
N178 C177 1.344 . S
O179 Co171 2.055 . S
O179 C183 1.253 . S
H180 C176 0.931 . S
H181 C177 0.930 . S
O182 Co171 2.039 . S
O182 C172 1.265 . S
C183 O179 1.253 . S
C183 O184 1.227 . S
O184 C183 1.227 . S
N185 Co171 2.140 . S
N185 C188 1.346 . S
N185 C189 1.345 . S
C186 C187 1.387 . S
C186 C190 1.391 . S
C187 C186 1.387 . S
C187 C188 1.369 . S
C187 H196 0.929 . S
C188 N185 1.346 . S
C188 C187 1.369 . S
C188 H191 0.928 . S
C189 N185 1.345 . S
C189 C190 1.371 . S
C189 H192 0.931 . S
C190 C186 1.391 . S
C190 C189 1.371 . S
C190 H197 0.930 . S
H191 C188 0.928 . S
H192 C189 0.931 . S
H193 C169 0.933 . S
H194 C166 0.930 . S
H195 C175 0.930 . S
H196 C187 0.929 . S
H197 C190 0.930 . S
C198 C199 1.351 . S
C198 N201 1.368 . S
C198 H203 0.931 . S
C199 C198 1.351 . S
C199 N200 1.373 . S
C199 H227 0.930 . S
N200 C199 1.373 . S
N200 C202 1.340 . S
N201 C198 1.368 . S
N201 C202 1.321 . S
N201 Co204 2.135 . S
C202 N200 1.340 . S
C202 N201 1.321 . S
C202 H226 0.930 . S
H203 C198 0.931 . S
Co204 N201 2.135 . S
Co204 N207 2.121 . S
Co204 O212 2.055 . S
Co204 O215 2.039 . S
Co204 N218 2.140 . S
C205 O206 1.227 . S
C205 O215 1.265 . S
O206 C205 1.227 . S
N207 Co204 2.121 . S
N207 C209 1.375 . S
N207 C210 1.313 . S
C208 C209 1.338 . S
C208 N211 1.377 . S
C208 H228 0.930 . S
C209 N207 1.375 . S
C209 C208 1.338 . S
C209 H213 0.931 . S
C210 N207 1.313 . S
C210 N211 1.344 . S
C210 H214 0.930 . S
N211 C208 1.377 . S
N211 C210 1.344 . S
O212 Co204 2.055 . S
O212 C216 1.253 . S
H213 C209 0.931 . S
H214 C210 0.930 . S
O215 Co204 2.039 . S
O215 C205 1.265 . S
C216 O212 1.253 . S
C216 O217 1.227 . S
O217 C216 1.227 . S
N218 Co204 2.140 . S
N218 C221 1.346 . S
N218 C222 1.345 . S
C219 C220 1.387 . S
C219 C223 1.391 . S
C220 C219 1.387 . S
C220 C221 1.369 . S
C220 H229 0.929 . S
C221 N218 1.346 . S
C221 C220 1.369 . S
C221 H224 0.928 . S
C222 N218 1.345 . S
C222 C223 1.371 . S
C222 H225 0.931 . S
C223 C219 1.391 . S
C223 C222 1.371 . S
C223 H230 0.930 . S
H224 C221 0.928 . S
H225 C222 0.931 . S
H226 C202 0.930 . S
H227 C199 0.930 . S
H228 C208 0.930 . S
H229 C220 0.929 . S
H230 C223 0.930 . S
C231 C232 1.351 1_565 S
C231 N234 1.368 . S
C231 H236 0.931 . S
C232 C231 1.351 1_545 S
C232 N233 1.373 . S
C232 H260 0.930 . S
N233 C232 1.373 . S
N233 C235 1.351 . S
N234 C231 1.368 . S
N234 C235 1.308 1_565 S
N234 Co237 2.135 . S
C235 N233 1.351 . S
C235 N234 1.308 1_545 S
C235 H259 0.933 . S
H236 C231 0.931 . S
Co237 N234 2.135 . S
Co237 N240 2.121 . S
Co237 O245 2.055 . S
Co237 O248 2.039 . S
Co237 N251 2.140 . S
C238 O239 1.227 . S
C238 O248 1.265 . S
O239 C238 1.227 . S
N240 Co237 2.121 . S
N240 C242 1.375 . S
N240 C243 1.313 . S
C241 C242 1.338 . S
C241 N244 1.377 1_655 S
C241 H261 0.930 . S
C242 N240 1.375 . S
C242 C241 1.338 . S
C242 H246 0.931 . S
C243 N240 1.313 . S
C243 N244 1.344 1_655 S
C243 H247 0.930 . S
N244 C241 1.377 1_455 S
N244 C243 1.344 1_455 S
O245 Co237 2.055 . S
O245 C249 1.253 . S
H246 C242 0.931 . S
H247 C243 0.930 . S
O248 Co237 2.039 . S
O248 C238 1.265 . S
C249 O245 1.253 . S
C249 O250 1.227 . S
O250 C249 1.227 . S
N251 Co237 2.140 . S
N251 C254 1.346 . S
N251 C255 1.345 . S
C252 C253 1.387 . S
C252 C256 1.391 . S
C253 C252 1.387 . S
C253 C254 1.369 . S
C253 H262 0.929 . S
C254 N251 1.346 . S
C254 C253 1.369 . S
C254 H257 0.928 . S
C255 N251 1.345 . S
C255 C256 1.371 . S
C255 H258 0.931 . S
C256 C252 1.391 . S
C256 C255 1.371 . S
C256 H263 0.930 . S
H257 C254 0.928 . S
H258 C255 0.931 . S
H259 C235 0.933 . S
H260 C232 0.930 . S
H261 C241 0.930 . S
H262 C253 0.929 . S
H263 C256 0.930 . S
C264 C265 1.351 . S
C264 N267 1.368 . S
C264 H269 0.931 . S
C265 C264 1.351 . S
C265 N266 1.373 . S
C265 H293 0.930 . S
N266 C265 1.373 . S
N266 C268 1.340 . S
N267 C264 1.368 . S
N267 C268 1.321 . S
N267 Co270 2.135 . S
C268 N266 1.340 . S
C268 N267 1.321 . S
C268 H292 0.930 . S
H269 C264 0.931 . S
Co270 N267 2.135 . S
Co270 N273 2.121 . S
Co270 O278 2.055 . S
Co270 O281 2.039 . S
Co270 N284 2.140 . S
C271 O272 1.227 . S
C271 O281 1.265 . S
O272 C271 1.227 . S
N273 Co270 2.121 . S
N273 C275 1.375 . S
N273 C276 1.313 . S
C274 C275 1.338 . S
C274 N277 1.377 . S
C274 H294 0.930 . S
C275 N273 1.375 . S
C275 C274 1.338 . S
C275 H279 0.931 . S
C276 N273 1.313 . S
C276 N277 1.344 . S
C276 H280 0.930 . S
N277 C274 1.377 . S
N277 C276 1.344 . S
O278 Co270 2.055 . S
O278 C282 1.253 . S
H279 C275 0.931 . S
H280 C276 0.930 . S
O281 Co270 2.039 . S
O281 C271 1.265 . S
C282 O278 1.253 . S
C282 O283 1.227 . S
O283 C282 1.227 . S
N284 Co270 2.140 . S
N284 C287 1.346 . S
N284 C288 1.345 . S
C285 C286 1.387 . S
C285 C289 1.391 . S
C286 C285 1.387 . S
C286 C287 1.369 . S
C286 H295 0.929 . S
C287 N284 1.346 . S
C287 C286 1.369 . S
C287 H290 0.928 . S
C288 N284 1.345 . S
C288 C289 1.371 . S
C288 H291 0.931 . S
C289 C285 1.391 . S
C289 C288 1.371 . S
C289 H296 0.930 . S
H290 C287 0.928 . S
H291 C288 0.931 . S
H292 C268 0.930 . S
H293 C265 0.930 . S
H294 C274 0.930 . S
H295 C286 0.929 . S
H296 C289 0.930 . S
C297 C298 1.351 1_565 S
C297 N300 1.368 . S
C297 H302 0.931 . S
C298 C297 1.351 1_545 S
C298 N299 1.373 . S
C298 H326 0.930 . S
N299 C298 1.373 . S
N299 C301 1.351 . S
N300 C297 1.368 . S
N300 C301 1.308 1_565 S
N300 Co303 2.135 . S
C301 N299 1.351 . S
C301 N300 1.308 1_545 S
C301 H325 0.933 . S
H302 C297 0.931 . S
Co303 N300 2.135 . S
Co303 N306 2.121 . S
Co303 O311 2.055 . S
Co303 O314 2.039 . S
Co303 N317 2.140 . S
C304 O305 1.227 . S
C304 O314 1.265 . S
O305 C304 1.227 . S
N306 Co303 2.121 . S
N306 C308 1.375 . S
N306 C309 1.313 . S
C307 C308 1.338 . S
C307 N310 1.377 1_455 S
C307 H327 0.930 . S
C308 N306 1.375 . S
C308 C307 1.338 . S
C308 H312 0.931 . S
C309 N306 1.313 . S
C309 N310 1.344 1_455 S
C309 H313 0.930 . S
N310 C307 1.377 1_655 S
N310 C309 1.344 1_655 S
O311 Co303 2.055 . S
O311 C315 1.253 . S
H312 C308 0.931 . S
H313 C309 0.930 . S
O314 Co303 2.039 . S
O314 C304 1.265 . S
C315 O311 1.253 . S
C315 O316 1.227 . S
O316 C315 1.227 . S
N317 Co303 2.140 . S
N317 C320 1.346 . S
N317 C321 1.345 . S
C318 C319 1.387 . S
C318 C322 1.391 . S
C319 C318 1.387 . S
C319 C320 1.369 . S
C319 H328 0.929 . S
C320 N317 1.346 . S
C320 C319 1.369 . S
C320 H323 0.928 . S
C321 N317 1.345 . S
C321 C322 1.371 . S
C321 H324 0.931 . S
C322 C318 1.391 . S
C322 C321 1.371 . S
C322 H329 0.930 . S
H323 C320 0.928 . S
H324 C321 0.931 . S
H325 C301 0.933 . S
H326 C298 0.930 . S
H327 C307 0.930 . S
H328 C319 0.929 . S
H329 C322 0.930 . S
C330 C331 1.351 . S
C330 N333 1.368 . S
C330 H335 0.931 . S
C331 C330 1.351 . S
C331 N332 1.373 . S
C331 H359 0.930 . S
N332 C331 1.373 . S
N332 C334 1.340 . S
N333 C330 1.368 . S
N333 C334 1.321 . S
N333 Co336 2.135 . S
C334 N332 1.340 . S
C334 N333 1.321 . S
C334 H358 0.930 . S
H335 C330 0.931 . S
Co336 N333 2.135 . S
Co336 N339 2.121 . S
Co336 O344 2.055 . S
Co336 O347 2.039 . S
Co336 N350 2.140 . S
C337 O338 1.227 . S
C337 O347 1.265 . S
O338 C337 1.227 . S
N339 Co336 2.121 . S
N339 C341 1.375 . S
N339 C342 1.313 . S
C340 C341 1.338 . S
C340 N343 1.377 . S
C340 H360 0.930 . S
C341 N339 1.375 . S
C341 C340 1.338 . S
C341 H345 0.931 . S
C342 N339 1.313 . S
C342 N343 1.344 . S
C342 H346 0.930 . S
N343 C340 1.377 . S
N343 C342 1.344 . S
O344 Co336 2.055 . S
O344 C348 1.253 . S
H345 C341 0.931 . S
H346 C342 0.930 . S
O347 Co336 2.039 . S
O347 C337 1.265 . S
C348 O344 1.253 . S
C348 O349 1.227 . S
O349 C348 1.227 . S
N350 Co336 2.140 . S
N350 C353 1.346 . S
N350 C354 1.345 . S
C351 C352 1.387 . S
C351 C355 1.391 . S
C352 C351 1.387 . S
C352 C353 1.369 . S
C352 H361 0.929 . S
C353 N350 1.346 . S
C353 C352 1.369 . S
C353 H356 0.928 . S
C354 N350 1.345 . S
C354 C355 1.371 . S
C354 H357 0.931 . S
C355 C351 1.391 . S
C355 C354 1.371 . S
C355 H362 0.930 . S
H356 C353 0.928 . S
H357 C354 0.931 . S
H358 C334 0.930 . S
H359 C331 0.930 . S
H360 C340 0.930 . S
H361 C352 0.929 . S
H362 C355 0.930 . S
C363 C364 1.351 1_545 S
C363 N366 1.368 . S
C363 H368 0.931 . S
C364 C363 1.351 1_565 S
C364 N365 1.373 . S
C364 H392 0.930 . S
N365 C364 1.373 . S
N365 C367 1.351 . S
N366 C363 1.368 . S
N366 C367 1.308 1_545 S
N366 Co369 2.135 . S
C367 N365 1.351 . S
C367 N366 1.308 1_565 S
C367 H391 0.933 . S
H368 C363 0.931 . S
Co369 N366 2.135 . S
Co369 N372 2.121 . S
Co369 O377 2.055 . S
Co369 O380 2.039 . S
Co369 N383 2.140 . S
C370 O371 1.227 . S
C370 O380 1.265 . S
O371 C370 1.227 . S
N372 Co369 2.121 . S
N372 C374 1.375 . S
N372 C375 1.313 . S
C373 C374 1.338 . S
C373 N376 1.377 . S
C373 H393 0.930 . S
C374 N372 1.375 . S
C374 C373 1.338 . S
C374 H378 0.931 . S
C375 N372 1.313 . S
C375 N376 1.344 . S
C375 H379 0.930 . S
N376 C373 1.377 . S
N376 C375 1.344 . S
O377 Co369 2.055 . S
O377 C381 1.253 . S
H378 C374 0.931 . S
H379 C375 0.930 . S
O380 Co369 2.039 . S
O380 C370 1.265 . S
C381 O377 1.253 . S
C381 O382 1.227 . S
O382 C381 1.227 . S
N383 Co369 2.140 . S
N383 C386 1.346 . S
N383 C387 1.345 . S
C384 C385 1.387 . S
C384 C388 1.391 . S
C385 C384 1.387 . S
C385 C386 1.369 . S
C385 H394 0.929 . S
C386 N383 1.346 . S
C386 C385 1.369 . S
C386 H389 0.928 . S
C387 N383 1.345 . S
C387 C388 1.371 . S
C387 H390 0.931 . S
C388 C384 1.391 . S
C388 C387 1.371 . S
C388 H395 0.930 . S
H389 C386 0.928 . S
H390 C387 0.931 . S
H391 C367 0.933 . S
H392 C364 0.930 . S
H393 C373 0.930 . S
H394 C385 0.929 . S
H395 C388 0.930 . S
C396 C397 1.351 . S
C396 N399 1.368 . S
C396 H401 0.931 . S
C397 C396 1.351 . S
C397 N398 1.373 . S
C397 H425 0.930 . S
N398 C397 1.373 . S
N398 C400 1.340 . S
N399 C396 1.368 . S
N399 C400 1.321 . S
N399 Co402 2.135 . S
C400 N398 1.340 . S
C400 N399 1.321 . S
C400 H424 0.930 . S
H401 C396 0.931 . S
Co402 N399 2.135 . S
Co402 N405 2.121 . S
Co402 O410 2.055 . S
Co402 O413 2.039 . S
Co402 N416 2.140 . S
C403 O404 1.227 . S
C403 O413 1.265 . S
O404 C403 1.227 . S
N405 Co402 2.121 . S
N405 C407 1.375 . S
N405 C408 1.313 . S
C406 C407 1.338 . S
C406 N409 1.377 . S
C406 H426 0.930 . S
C407 N405 1.375 . S
C407 C406 1.338 . S
C407 H411 0.931 . S
C408 N405 1.313 . S
C408 N409 1.344 . S
C408 H412 0.930 . S
N409 C406 1.377 . S
N409 C408 1.344 . S
O410 Co402 2.055 . S
O410 C414 1.253 . S
H411 C407 0.931 . S
H412 C408 0.930 . S
O413 Co402 2.039 . S
O413 C403 1.265 . S
C414 O410 1.253 . S
C414 O415 1.227 . S
O415 C414 1.227 . S
N416 Co402 2.140 . S
N416 C419 1.346 . S
N416 C420 1.345 . S
C417 C418 1.387 . S
C417 C421 1.391 . S
C418 C417 1.387 . S
C418 C419 1.369 . S
C418 H427 0.929 . S
C419 N416 1.346 . S
C419 C418 1.369 . S
C419 H422 0.928 . S
C420 N416 1.345 . S
C420 C421 1.371 . S
C420 H423 0.931 . S
C421 C417 1.391 . S
C421 C420 1.371 . S
C421 H428 0.930 . S
H422 C419 0.928 . S
H423 C420 0.931 . S
H424 C400 0.930 . S
H425 C397 0.930 . S
H426 C406 0.930 . S
H427 C418 0.929 . S
H428 C421 0.930 . S
C429 C430 1.351 1_565 S
C429 N432 1.368 . S
C429 H434 0.931 . S
C430 C429 1.351 1_545 S
C430 N431 1.373 . S
C430 H458 0.930 . S
N431 C430 1.373 . S
N431 C433 1.351 . S
N432 C429 1.368 . S
N432 C433 1.308 1_565 S
N432 Co435 2.135 . S
C433 N431 1.351 . S
C433 N432 1.308 1_545 S
C433 H457 0.933 . S
H434 C429 0.931 . S
Co435 N432 2.135 . S
Co435 N438 2.121 . S
Co435 O443 2.055 . S
Co435 O446 2.039 . S
Co435 N449 2.140 . S
C436 O437 1.227 . S
C436 O446 1.265 . S
O437 C436 1.227 . S
N438 Co435 2.121 . S
N438 C440 1.375 . S
N438 C441 1.313 . S
C439 C440 1.338 . S
C439 N442 1.377 . S
C439 H459 0.930 . S
C440 N438 1.375 . S
C440 C439 1.338 . S
C440 H444 0.931 . S
C441 N438 1.313 . S
C441 N442 1.344 . S
C441 H445 0.930 . S
N442 C439 1.377 . S
N442 C441 1.344 . S
O443 Co435 2.055 . S
O443 C447 1.253 . S
H444 C440 0.931 . S
H445 C441 0.930 . S
O446 Co435 2.039 . S
O446 C436 1.265 . S
C447 O443 1.253 . S
C447 O448 1.227 . S
O448 C447 1.227 . S
N449 Co435 2.140 . S
N449 C452 1.346 . S
N449 C453 1.345 . S
C450 C451 1.387 . S
C450 C454 1.391 . S
C451 C450 1.387 . S
C451 C452 1.369 . S
C451 H460 0.929 . S
C452 N449 1.346 . S
C452 C451 1.369 . S
C452 H455 0.928 . S
C453 N449 1.345 . S
C453 C454 1.371 . S
C453 H456 0.931 . S
C454 C450 1.391 . S
C454 C453 1.371 . S
C454 H461 0.930 . S
H455 C452 0.928 . S
H456 C453 0.931 . S
H457 C433 0.933 . S
H458 C430 0.930 . S
H459 C439 0.930 . S
H460 C451 0.929 . S
H461 C454 0.930 . S
C462 C463 1.351 . S
C462 N465 1.368 . S
C462 H467 0.931 . S
C463 C462 1.351 . S
C463 N464 1.373 . S
C463 H491 0.930 . S
N464 C463 1.373 . S
N464 C466 1.340 . S
N465 C462 1.368 . S
N465 C466 1.321 . S
N465 Co468 2.135 . S
C466 N464 1.340 . S
C466 N465 1.321 . S
C466 H490 0.930 . S
H467 C462 0.931 . S
Co468 N465 2.135 . S
Co468 N471 2.121 . S
Co468 O476 2.055 . S
Co468 O479 2.039 . S
Co468 N482 2.140 . S
C469 O470 1.227 . S
C469 O479 1.265 . S
O470 C469 1.227 . S
N471 Co468 2.121 . S
N471 C473 1.375 . S
N471 C474 1.313 . S
C472 C473 1.338 . S
C472 N475 1.377 . S
C472 H492 0.930 . S
C473 N471 1.375 . S
C473 C472 1.338 . S
C473 H477 0.931 . S
C474 N471 1.313 . S
C474 N475 1.344 . S
C474 H478 0.930 . S
N475 C472 1.377 . S
N475 C474 1.344 . S
O476 Co468 2.055 . S
O476 C480 1.253 . S
H477 C473 0.931 . S
H478 C474 0.930 . S
O479 Co468 2.039 . S
O479 C469 1.265 . S
C480 O476 1.253 . S
C480 O481 1.227 . S
O481 C480 1.227 . S
N482 Co468 2.140 . S
N482 C485 1.346 . S
N482 C486 1.345 . S
C483 C484 1.387 . S
C483 C487 1.391 . S
C484 C483 1.387 . S
C484 C485 1.369 . S
C484 H493 0.929 . S
C485 N482 1.346 . S
C485 C484 1.369 . S
C485 H488 0.928 . S
C486 N482 1.345 . S
C486 C487 1.371 . S
C486 H489 0.931 . S
C487 C483 1.391 . S
C487 C486 1.371 . S
C487 H494 0.930 . S
H488 C485 0.928 . S
H489 C486 0.931 . S
H490 C466 0.930 . S
H491 C463 0.930 . S
H492 C472 0.930 . S
H493 C484 0.929 . S
H494 C487 0.930 . S
C495 C496 1.351 1_545 S
C495 N498 1.368 . S
C495 H500 0.931 . S
C496 C495 1.351 1_565 S
C496 N497 1.373 . S
C496 H524 0.930 . S
N497 C496 1.373 . S
N497 C499 1.351 . S
N498 C495 1.368 . S
N498 C499 1.308 1_545 S
N498 Co501 2.135 . S
C499 N497 1.351 . S
C499 N498 1.308 1_565 S
C499 H523 0.933 . S
H500 C495 0.931 . S
Co501 N498 2.135 . S
Co501 N504 2.121 . S
Co501 O509 2.055 . S
Co501 O512 2.039 . S
Co501 N515 2.140 . S
C502 O503 1.227 . S
C502 O512 1.265 . S
O503 C502 1.227 . S
N504 Co501 2.121 . S
N504 C506 1.375 . S
N504 C507 1.313 . S
C505 C506 1.338 . S
C505 N508 1.377 1_455 S
C505 H525 0.930 . S
C506 N504 1.375 . S
C506 C505 1.338 . S
C506 H510 0.931 . S
C507 N504 1.313 . S
C507 N508 1.344 1_455 S
C507 H511 0.930 . S
N508 C505 1.377 1_655 S
N508 C507 1.344 1_655 S
O509 Co501 2.055 . S
O509 C513 1.253 . S
H510 C506 0.931 . S
H511 C507 0.930 . S
O512 Co501 2.039 . S
O512 C502 1.265 . S
C513 O509 1.253 . S
C513 O514 1.227 . S
O514 C513 1.227 . S
N515 Co501 2.140 . S
N515 C518 1.346 . S
N515 C519 1.345 . S
C516 C517 1.387 . S
C516 C520 1.391 . S
C517 C516 1.387 . S
C517 C518 1.369 . S
C517 H526 0.929 . S
C518 N515 1.346 . S
C518 C517 1.369 . S
C518 H521 0.928 . S
C519 N515 1.345 . S
C519 C520 1.371 . S
C519 H522 0.931 . S
C520 C516 1.391 . S
C520 C519 1.371 . S
C520 H527 0.930 . S
H521 C518 0.928 . S
H522 C519 0.931 . S
H523 C499 0.933 . S
H524 C496 0.930 . S
H525 C505 0.930 . S
H526 C517 0.929 . S
H527 C520 0.930 . S
C528 C529 1.351 . S
C528 N531 1.368 . S
C528 H533 0.931 . S
C529 C528 1.351 . S
C529 N530 1.373 . S
C529 H557 0.930 . S
N530 C529 1.373 . S
N530 C532 1.340 . S
N531 C528 1.368 . S
N531 C532 1.321 . S
N531 Co534 2.135 . S
C532 N530 1.340 . S
C532 N531 1.321 . S
C532 H556 0.930 . S
H533 C528 0.931 . S
Co534 N531 2.135 . S
Co534 N537 2.121 . S
Co534 O542 2.055 . S
Co534 O545 2.039 . S
Co534 N548 2.140 . S
C535 O536 1.227 . S
C535 O545 1.265 . S
O536 C535 1.227 . S
N537 Co534 2.121 . S
N537 C539 1.375 . S
N537 C540 1.313 . S
C538 C539 1.338 . S
C538 N541 1.377 . S
C538 H558 0.930 . S
C539 N537 1.375 . S
C539 C538 1.338 . S
C539 H543 0.931 . S
C540 N537 1.313 . S
C540 N541 1.344 . S
C540 H544 0.930 . S
N541 C538 1.377 . S
N541 C540 1.344 . S
O542 Co534 2.055 . S
O542 C546 1.253 . S
H543 C539 0.931 . S
H544 C540 0.930 . S
O545 Co534 2.039 . S
O545 C535 1.265 . S
C546 O542 1.253 . S
C546 O547 1.227 . S
O547 C546 1.227 . S
N548 Co534 2.140 . S
N548 C551 1.346 . S
N548 C552 1.345 . S
C549 C550 1.387 . S
C549 C553 1.391 . S
C550 C549 1.387 . S
C550 C551 1.369 . S
C550 H559 0.929 . S
C551 N548 1.346 . S
C551 C550 1.369 . S
C551 H554 0.928 . S
C552 N548 1.345 . S
C552 C553 1.371 . S
C552 H555 0.931 . S
C553 C549 1.391 . S
C553 C552 1.371 . S
C553 H560 0.930 . S
H554 C551 0.928 . S
H555 C552 0.931 . S
H556 C532 0.930 . S
H557 C529 0.930 . S
H558 C538 0.930 . S
H559 C550 0.929 . S
H560 C553 0.930 . S
C561 C562 1.351 . S
C561 N564 1.368 . S
C561 H566 0.931 . S
C562 C561 1.351 . S
C562 N563 1.373 . S
C562 H590 0.930 . S
N563 C562 1.373 . S
N563 C565 1.340 . S
N564 C561 1.368 . S
N564 C565 1.321 . S
N564 Co567 2.135 . S
C565 N563 1.340 . S
C565 N564 1.321 . S
C565 H589 0.930 . S
H566 C561 0.931 . S
Co567 N564 2.135 . S
Co567 N570 2.121 . S
Co567 O575 2.055 . S
Co567 O578 2.039 . S
Co567 N581 2.140 . S
C568 O569 1.227 . S
C568 O578 1.265 . S
O569 C568 1.227 . S
N570 Co567 2.121 . S
N570 C572 1.375 . S
N570 C573 1.313 . S
C571 C572 1.338 . S
C571 N574 1.377 . S
C571 H591 0.930 . S
C572 N570 1.375 . S
C572 C571 1.338 . S
C572 H576 0.931 . S
C573 N570 1.313 . S
C573 N574 1.344 . S
C573 H577 0.930 . S
N574 C571 1.377 . S
N574 C573 1.344 . S
O575 Co567 2.055 . S
O575 C579 1.253 . S
H576 C572 0.931 . S
H577 C573 0.930 . S
O578 Co567 2.039 . S
O578 C568 1.265 . S
C579 O575 1.253 . S
C579 O580 1.227 . S
O580 C579 1.227 . S
N581 Co567 2.140 . S
N581 C584 1.346 . S
N581 C585 1.345 . S
C582 C583 1.387 . S
C582 C586 1.391 . S
C583 C582 1.387 . S
C583 C584 1.369 . S
C583 H592 0.929 . S
C584 N581 1.346 . S
C584 C583 1.369 . S
C584 H587 0.928 . S
C585 N581 1.345 . S
C585 C586 1.371 . S
C585 H588 0.931 . S
C586 C582 1.391 . S
C586 C585 1.371 . S
C586 H593 0.930 . S
H587 C584 0.928 . S
H588 C585 0.931 . S
H589 C565 0.930 . S
H590 C562 0.930 . S
H591 C571 0.930 . S
H592 C583 0.929 . S
H593 C586 0.930 . S
C594 C595 1.351 . S
C594 N597 1.368 . S
C594 H599 0.931 . S
C595 C594 1.351 . S
C595 N596 1.373 . S
C595 H623 0.930 . S
N596 C595 1.373 . S
N596 C598 1.340 . S
N597 C594 1.368 . S
N597 C598 1.321 . S
N597 Co600 2.135 . S
C598 N596 1.340 . S
C598 N597 1.321 . S
C598 H622 0.930 . S
H599 C594 0.931 . S
Co600 N597 2.135 . S
Co600 N603 2.121 . S
Co600 O608 2.055 . S
Co600 O611 2.039 . S
Co600 N614 2.140 . S
C601 O602 1.227 . S
C601 O611 1.265 . S
O602 C601 1.227 . S
N603 Co600 2.121 . S
N603 C605 1.375 . S
N603 C606 1.313 . S
C604 C605 1.338 . S
C604 N607 1.377 . S
C604 H624 0.930 . S
C605 N603 1.375 . S
C605 C604 1.338 . S
C605 H609 0.931 . S
C606 N603 1.313 . S
C606 N607 1.344 . S
C606 H610 0.930 . S
N607 C604 1.377 . S
N607 C606 1.344 . S
O608 Co600 2.055 . S
O608 C612 1.253 . S
H609 C605 0.931 . S
H610 C606 0.930 . S
O611 Co600 2.039 . S
O611 C601 1.265 . S
C612 O608 1.253 . S
C612 O613 1.227 . S
O613 C612 1.227 . S
N614 Co600 2.140 . S
N614 C617 1.346 . S
N614 C618 1.345 . S
C615 C616 1.387 . S
C615 C619 1.391 . S
C616 C615 1.387 . S
C616 C617 1.369 . S
C616 H625 0.929 . S
C617 N614 1.346 . S
C617 C616 1.369 . S
C617 H620 0.928 . S
C618 N614 1.345 . S
C618 C619 1.371 . S
C618 H621 0.931 . S
C619 C615 1.391 . S
C619 C618 1.371 . S
C619 H626 0.930 . S
H620 C617 0.928 . S
H621 C618 0.931 . S
H622 C598 0.930 . S
H623 C595 0.930 . S
H624 C604 0.930 . S
H625 C616 0.929 . S
H626 C619 0.930 . S
C627 C628 1.351 . S
C627 N630 1.368 . S
C627 H632 0.931 . S
C628 C627 1.351 . S
C628 N629 1.373 . S
C628 H656 0.930 . S
N629 C628 1.373 . S
N629 C631 1.340 . S
N630 C627 1.368 . S
N630 C631 1.321 . S
N630 Co633 2.135 . S
C631 N629 1.340 . S
C631 N630 1.321 . S
C631 H655 0.930 . S
H632 C627 0.931 . S
Co633 N630 2.135 . S
Co633 N636 2.121 . S
Co633 O641 2.055 . S
Co633 O644 2.039 . S
Co633 N647 2.140 . S
C634 O635 1.227 . S
C634 O644 1.265 . S
O635 C634 1.227 . S
N636 Co633 2.121 . S
N636 C638 1.375 . S
N636 C639 1.313 . S
C637 C638 1.338 . S
C637 N640 1.377 1_455 S
C637 H657 0.930 . S
C638 N636 1.375 . S
C638 C637 1.338 . S
C638 H642 0.931 . S
C639 N636 1.313 . S
C639 N640 1.344 1_455 S
C639 H643 0.930 . S
N640 C637 1.377 1_655 S
N640 C639 1.344 1_655 S
O641 Co633 2.055 . S
O641 C645 1.253 . S
H642 C638 0.931 . S
H643 C639 0.930 . S
O644 Co633 2.039 . S
O644 C634 1.265 . S
C645 O641 1.253 . S
C645 O646 1.227 . S
O646 C645 1.227 . S
N647 Co633 2.140 . S
N647 C650 1.346 . S
N647 C651 1.345 . S
C648 C649 1.387 . S
C648 C652 1.391 . S
C649 C648 1.387 . S
C649 C650 1.369 . S
C649 H658 0.929 . S
C650 N647 1.346 . S
C650 C649 1.369 . S
C650 H653 0.928 . S
C651 N647 1.345 . S
C651 C652 1.371 . S
C651 H654 0.931 . S
C652 C648 1.391 . S
C652 C651 1.371 . S
C652 H659 0.930 . S
H653 C650 0.928 . S
H654 C651 0.931 . S
H655 C631 0.930 . S
H656 C628 0.930 . S
H657 C637 0.930 . S
H658 C649 0.929 . S
H659 C652 0.930 . S
C660 C661 1.351 . S
C660 N663 1.368 . S
C660 H665 0.931 . S
C661 C660 1.351 . S
C661 N662 1.373 . S
C661 H689 0.930 . S
N662 C661 1.373 . S
N662 C664 1.340 . S
N663 C660 1.368 . S
N663 C664 1.321 . S
N663 Co666 2.135 . S
C664 N662 1.340 . S
C664 N663 1.321 . S
C664 H688 0.930 . S
H665 C660 0.931 . S
Co666 N663 2.135 . S
Co666 N669 2.121 . S
Co666 O674 2.055 . S
Co666 O677 2.039 . S
Co666 N680 2.140 . S
C667 O668 1.227 . S
C667 O677 1.265 . S
O668 C667 1.227 . S
N669 Co666 2.121 . S
N669 C671 1.375 . S
N669 C672 1.313 . S
C670 C671 1.338 . S
C670 N673 1.377 . S
C670 H690 0.930 . S
C671 N669 1.375 . S
C671 C670 1.338 . S
C671 H675 0.931 . S
C672 N669 1.313 . S
C672 N673 1.344 . S
C672 H676 0.930 . S
N673 C670 1.377 . S
N673 C672 1.344 . S
O674 Co666 2.055 . S
O674 C678 1.253 . S
H675 C671 0.931 . S
H676 C672 0.930 . S
O677 Co666 2.039 . S
O677 C667 1.265 . S
C678 O674 1.253 . S
C678 O679 1.227 . S
O679 C678 1.227 . S
N680 Co666 2.140 . S
N680 C683 1.346 . S
N680 C684 1.345 . S
C681 C682 1.387 . S
C681 C685 1.391 . S
C682 C681 1.387 . S
C682 C683 1.369 . S
C682 H691 0.929 . S
C683 N680 1.346 . S
C683 C682 1.369 . S
C683 H686 0.928 . S
C684 N680 1.345 . S
C684 C685 1.371 . S
C684 H687 0.931 . S
C685 C681 1.391 . S
C685 C684 1.371 . S
C685 H692 0.930 . S
H686 C683 0.928 . S
H687 C684 0.931 . S
H688 C664 0.930 . S
H689 C661 0.930 . S
H690 C670 0.930 . S
H691 C682 0.929 . S
H692 C685 0.930 . S
C693 C694 1.351 . S
C693 N696 1.368 . S
C693 H698 0.931 . S
C694 C693 1.351 . S
C694 N695 1.373 . S
C694 H722 0.930 . S
N695 C694 1.373 . S
N695 C697 1.340 . S
N696 C693 1.368 . S
N696 C697 1.321 . S
N696 Co699 2.135 . S
C697 N695 1.340 . S
C697 N696 1.321 . S
C697 H721 0.930 . S
H698 C693 0.931 . S
Co699 N696 2.135 . S
Co699 N702 2.121 . S
Co699 O707 2.055 . S
Co699 O710 2.039 . S
Co699 N713 2.140 . S
C700 O701 1.227 . S
C700 O710 1.265 . S
O701 C700 1.227 . S
N702 Co699 2.121 . S
N702 C704 1.375 . S
N702 C705 1.313 . S
C703 C704 1.338 . S
C703 N706 1.377 1_455 S
C703 H723 0.930 . S
C704 N702 1.375 . S
C704 C703 1.338 . S
C704 H708 0.931 . S
C705 N702 1.313 . S
C705 N706 1.344 1_455 S
C705 H709 0.930 . S
N706 C703 1.377 1_655 S
N706 C705 1.344 1_655 S
O707 Co699 2.055 . S
O707 C711 1.253 . S
H708 C704 0.931 . S
H709 C705 0.930 . S
O710 Co699 2.039 . S
O710 C700 1.265 . S
C711 O707 1.253 . S
C711 O712 1.227 . S
O712 C711 1.227 . S
N713 Co699 2.140 . S
N713 C716 1.346 . S
N713 C717 1.345 . S
C714 C715 1.387 . S
C714 C718 1.391 . S
C715 C714 1.387 . S
C715 C716 1.369 . S
C715 H724 0.929 . S
C716 N713 1.346 . S
C716 C715 1.369 . S
C716 H719 0.928 . S
C717 N713 1.345 . S
C717 C718 1.371 . S
C717 H720 0.931 . S
C718 C714 1.391 . S
C718 C717 1.371 . S
C718 H725 0.930 . S
H719 C716 0.928 . S
H720 C717 0.931 . S
H721 C697 0.930 . S
H722 C694 0.930 . S
H723 C703 0.930 . S
H724 C715 0.929 . S
H725 C718 0.930 . S
C726 C727 1.351 . S
C726 N729 1.368 . S
C726 H731 0.931 . S
C727 C726 1.351 . S
C727 N728 1.373 . S
C727 H755 0.930 . S
N728 C727 1.373 . S
N728 C730 1.340 . S
N729 C726 1.368 . S
N729 C730 1.321 . S
N729 Co732 2.135 . S
C730 N728 1.340 . S
C730 N729 1.321 . S
C730 H754 0.930 . S
H731 C726 0.931 . S
Co732 N729 2.135 . S
Co732 N735 2.121 . S
Co732 O740 2.055 . S
Co732 O743 2.039 . S
Co732 N746 2.140 . S
C733 O734 1.227 . S
C733 O743 1.265 . S
O734 C733 1.227 . S
N735 Co732 2.121 . S
N735 C737 1.375 . S
N735 C738 1.313 . S
C736 C737 1.338 . S
C736 N739 1.377 . S
C736 H756 0.930 . S
C737 N735 1.375 . S
C737 C736 1.338 . S
C737 H741 0.931 . S
C738 N735 1.313 . S
C738 N739 1.344 . S
C738 H742 0.930 . S
N739 C736 1.377 . S
N739 C738 1.344 . S
O740 Co732 2.055 . S
O740 C744 1.253 . S
H741 C737 0.931 . S
H742 C738 0.930 . S
O743 Co732 2.039 . S
O743 C733 1.265 . S
C744 O740 1.253 . S
C744 O745 1.227 . S
O745 C744 1.227 . S
N746 Co732 2.140 . S
N746 C749 1.346 . S
N746 C750 1.345 . S
C747 C748 1.387 . S
C747 C751 1.391 . S
C748 C747 1.387 . S
C748 C749 1.369 . S
C748 H757 0.929 . S
C749 N746 1.346 . S
C749 C748 1.369 . S
C749 H752 0.928 . S
C750 N746 1.345 . S
C750 C751 1.371 . S
C750 H753 0.931 . S
C751 C747 1.391 . S
C751 C750 1.371 . S
C751 H758 0.930 . S
H752 C749 0.928 . S
H753 C750 0.931 . S
H754 C730 0.930 . S
H755 C727 0.930 . S
H756 C736 0.930 . S
H757 C748 0.929 . S
H758 C751 0.930 . S
C759 C760 1.351 . S
C759 N762 1.368 . S
C759 H764 0.931 . S
C760 C759 1.351 . S
C760 N761 1.373 . S
C760 H788 0.930 . S
N761 C760 1.373 . S
N761 C763 1.340 . S
N762 C759 1.368 . S
N762 C763 1.321 . S
N762 Co765 2.135 . S
C763 N761 1.340 . S
C763 N762 1.321 . S
C763 H787 0.930 . S
H764 C759 0.931 . S
Co765 N762 2.135 . S
Co765 N768 2.121 . S
Co765 O773 2.055 . S
Co765 O776 2.039 . S
Co765 N779 2.140 . S
C766 O767 1.227 . S
C766 O776 1.265 . S
O767 C766 1.227 . S
N768 Co765 2.121 . S
N768 C770 1.375 . S
N768 C771 1.313 . S
C769 C770 1.338 . S
C769 N772 1.377 . S
C769 H789 0.930 . S
C770 N768 1.375 . S
C770 C769 1.338 . S
C770 H774 0.931 . S
C771 N768 1.313 . S
C771 N772 1.344 . S
C771 H775 0.930 . S
N772 C769 1.377 . S
N772 C771 1.344 . S
O773 Co765 2.055 . S
O773 C777 1.253 . S
H774 C770 0.931 . S
H775 C771 0.930 . S
O776 Co765 2.039 . S
O776 C766 1.265 . S
C777 O773 1.253 . S
C777 O778 1.227 . S
O778 C777 1.227 . S
N779 Co765 2.140 . S
N779 C782 1.346 . S
N779 C783 1.345 . S
C780 C781 1.387 . S
C780 C784 1.391 . S
C781 C780 1.387 . S
C781 C782 1.369 . S
C781 H790 0.929 . S
C782 N779 1.346 . S
C782 C781 1.369 . S
C782 H785 0.928 . S
C783 N779 1.345 . S
C783 C784 1.371 . S
C783 H786 0.931 . S
C784 C780 1.391 . S
C784 C783 1.371 . S
C784 H791 0.930 . S
H785 C782 0.928 . S
H786 C783 0.931 . S
H787 C763 0.930 . S
H788 C760 0.930 . S
H789 C769 0.930 . S
H790 C781 0.929 . S
H791 C784 0.930 . S
C792 C793 1.351 . S
C792 N795 1.368 . S
C792 H797 0.931 . S
C793 C792 1.351 . S
C793 N794 1.373 . S
C793 H821 0.930 . S
N794 C793 1.373 . S
N794 C796 1.340 . S
N795 C792 1.368 . S
N795 C796 1.321 . S
N795 Co798 2.135 . S
C796 N794 1.340 . S
C796 N795 1.321 . S
C796 H820 0.930 . S
H797 C792 0.931 . S
Co798 N795 2.135 . S
Co798 N801 2.121 . S
Co798 O806 2.055 . S
Co798 O809 2.039 . S
Co798 N812 2.140 . S
C799 O800 1.227 . S
C799 O809 1.265 . S
O800 C799 1.227 . S
N801 Co798 2.121 . S
N801 C803 1.375 . S
N801 C804 1.313 . S
C802 C803 1.338 . S
C802 N805 1.377 . S
C802 H822 0.930 . S
C803 N801 1.375 . S
C803 C802 1.338 . S
C803 H807 0.931 . S
C804 N801 1.313 . S
C804 N805 1.344 . S
C804 H808 0.930 . S
N805 C802 1.377 . S
N805 C804 1.344 . S
O806 Co798 2.055 . S
O806 C810 1.253 . S
H807 C803 0.931 . S
H808 C804 0.930 . S
O809 Co798 2.039 . S
O809 C799 1.265 . S
C810 O806 1.253 . S
C810 O811 1.227 . S
O811 C810 1.227 . S
N812 Co798 2.140 . S
N812 C815 1.346 . S
N812 C816 1.345 . S
C813 C814 1.387 . S
C813 C817 1.391 . S
C814 C813 1.387 . S
C814 C815 1.369 . S
C814 H823 0.929 . S
C815 N812 1.346 . S
C815 C814 1.369 . S
C815 H818 0.928 . S
C816 N812 1.345 . S
C816 C817 1.371 . S
C816 H819 0.931 . S
C817 C813 1.391 . S
C817 C816 1.371 . S
C817 H824 0.930 . S
H818 C815 0.928 . S
H819 C816 0.931 . S
H820 C796 0.930 . S
H821 C793 0.930 . S
H822 C802 0.930 . S
H823 C814 0.929 . S
H824 C817 0.930 . S
C825 C826 1.351 . S
C825 N828 1.368 . S
C825 H830 0.931 . S
C826 C825 1.351 . S
C826 N827 1.373 . S
C826 H854 0.930 . S
N827 C826 1.373 . S
N827 C829 1.340 . S
N828 C825 1.368 . S
N828 C829 1.321 . S
N828 Co831 2.135 . S
C829 N827 1.340 . S
C829 N828 1.321 . S
C829 H853 0.930 . S
H830 C825 0.931 . S
Co831 N828 2.135 . S
Co831 N834 2.121 . S
Co831 O839 2.055 . S
Co831 O842 2.039 . S
Co831 N845 2.140 . S
C832 O833 1.227 . S
C832 O842 1.265 . S
O833 C832 1.227 . S
N834 Co831 2.121 . S
N834 C836 1.375 . S
N834 C837 1.313 . S
C835 C836 1.338 . S
C835 N838 1.377 . S
C835 H855 0.930 . S
C836 N834 1.375 . S
C836 C835 1.338 . S
C836 H840 0.931 . S
C837 N834 1.313 . S
C837 N838 1.344 . S
C837 H841 0.930 . S
N838 C835 1.377 . S
N838 C837 1.344 . S
O839 Co831 2.055 . S
O839 C843 1.253 . S
H840 C836 0.931 . S
H841 C837 0.930 . S
O842 Co831 2.039 . S
O842 C832 1.265 . S
C843 O839 1.253 . S
C843 O844 1.227 . S
O844 C843 1.227 . S
N845 Co831 2.140 . S
N845 C848 1.346 . S
N845 C849 1.345 . S
C846 C847 1.387 . S
C846 C850 1.391 . S
C847 C846 1.387 . S
C847 C848 1.369 . S
C847 H856 0.929 . S
C848 N845 1.346 . S
C848 C847 1.369 . S
C848 H851 0.928 . S
C849 N845 1.345 . S
C849 C850 1.371 . S
C849 H852 0.931 . S
C850 C846 1.391 . S
C850 C849 1.371 . S
C850 H857 0.930 . S
H851 C848 0.928 . S
H852 C849 0.931 . S
H853 C829 0.930 . S
H854 C826 0.930 . S
H855 C835 0.930 . S
H856 C847 0.929 . S
H857 C850 0.930 . S
C858 C859 1.351 . S
C858 N861 1.368 . S
C858 H863 0.931 . S
C859 C858 1.351 . S
C859 N860 1.373 . S
C859 H887 0.930 . S
N860 C859 1.373 . S
N860 C862 1.340 . S
N861 C858 1.368 . S
N861 C862 1.321 . S
N861 Co864 2.135 . S
C862 N860 1.340 . S
C862 N861 1.321 . S
C862 H886 0.930 . S
H863 C858 0.931 . S
Co864 N861 2.135 . S
Co864 N867 2.121 . S
Co864 O872 2.055 . S
Co864 O875 2.039 . S
Co864 N878 2.140 . S
C865 O866 1.227 . S
C865 O875 1.265 . S
O866 C865 1.227 . S
N867 Co864 2.121 . S
N867 C869 1.375 . S
N867 C870 1.313 . S
C868 C869 1.338 . S
C868 N871 1.377 . S
C868 H888 0.930 . S
C869 N867 1.375 . S
C869 C868 1.338 . S
C869 H873 0.931 . S
C870 N867 1.313 . S
C870 N871 1.344 . S
C870 H874 0.930 . S
N871 C868 1.377 . S
N871 C870 1.344 . S
O872 Co864 2.055 . S
O872 C876 1.253 . S
H873 C869 0.931 . S
H874 C870 0.930 . S
O875 Co864 2.039 . S
O875 C865 1.265 . S
C876 O872 1.253 . S
C876 O877 1.227 . S
O877 C876 1.227 . S
N878 Co864 2.140 . S
N878 C881 1.346 . S
N878 C882 1.345 . S
C879 C880 1.387 . S
C879 C883 1.391 . S
C880 C879 1.387 . S
C880 C881 1.369 . S
C880 H889 0.929 . S
C881 N878 1.346 . S
C881 C880 1.369 . S
C881 H884 0.928 . S
C882 N878 1.345 . S
C882 C883 1.371 . S
C882 H885 0.931 . S
C883 C879 1.391 . S
C883 C882 1.371 . S
C883 H890 0.930 . S
H884 C881 0.928 . S
H885 C882 0.931 . S
H886 C862 0.930 . S
H887 C859 0.930 . S
H888 C868 0.930 . S
H889 C880 0.929 . S
H890 C883 0.930 . S
C891 C892 1.351 . S
C891 N894 1.368 . S
C891 H896 0.931 . S
C892 C891 1.351 . S
C892 N893 1.373 . S
C892 H920 0.930 . S
N893 C892 1.373 . S
N893 C895 1.340 . S
N894 C891 1.368 . S
N894 C895 1.321 . S
N894 Co897 2.135 . S
C895 N893 1.340 . S
C895 N894 1.321 . S
C895 H919 0.930 . S
H896 C891 0.931 . S
Co897 N894 2.135 . S
Co897 N900 2.121 . S
Co897 O905 2.055 . S
Co897 O908 2.039 . S
Co897 N911 2.140 . S
C898 O899 1.227 . S
C898 O908 1.265 . S
O899 C898 1.227 . S
N900 Co897 2.121 . S
N900 C902 1.375 . S
N900 C903 1.313 . S
C901 C902 1.338 . S
C901 N904 1.377 1_655 S
C901 H921 0.930 . S
C902 N900 1.375 . S
C902 C901 1.338 . S
C902 H906 0.931 . S
C903 N900 1.313 . S
C903 N904 1.344 1_655 S
C903 H907 0.930 . S
N904 C901 1.377 1_455 S
N904 C903 1.344 1_455 S
O905 Co897 2.055 . S
O905 C909 1.253 . S
H906 C902 0.931 . S
H907 C903 0.930 . S
O908 Co897 2.039 . S
O908 C898 1.265 . S
C909 O905 1.253 . S
C909 O910 1.227 . S
O910 C909 1.227 . S
N911 Co897 2.140 . S
N911 C914 1.346 . S
N911 C915 1.345 . S
C912 C913 1.387 . S
C912 C916 1.391 . S
C913 C912 1.387 . S
C913 C914 1.369 . S
C913 H922 0.929 . S
C914 N911 1.346 . S
C914 C913 1.369 . S
C914 H917 0.928 . S
C915 N911 1.345 . S
C915 C916 1.371 . S
C915 H918 0.931 . S
C916 C912 1.391 . S
C916 C915 1.371 . S
C916 H923 0.930 . S
H917 C914 0.928 . S
H918 C915 0.931 . S
H919 C895 0.930 . S
H920 C892 0.930 . S
H921 C901 0.930 . S
H922 C913 0.929 . S
H923 C916 0.930 . S
C924 C925 1.351 . S
C924 N927 1.368 . S
C924 H929 0.931 . S
C925 C924 1.351 . S
C925 N926 1.373 . S
C925 H953 0.930 . S
N926 C925 1.373 . S
N926 C928 1.340 . S
N927 C924 1.368 . S
N927 C928 1.321 . S
N927 Co930 2.135 . S
C928 N926 1.340 . S
C928 N927 1.321 . S
C928 H952 0.930 . S
H929 C924 0.931 . S
Co930 N927 2.135 . S
Co930 N933 2.121 . S
Co930 O938 2.055 . S
Co930 O941 2.039 . S
Co930 N944 2.140 . S
C931 O932 1.227 . S
C931 O941 1.265 . S
O932 C931 1.227 . S
N933 Co930 2.121 . S
N933 C935 1.375 . S
N933 C936 1.313 . S
C934 C935 1.338 . S
C934 N937 1.377 . S
C934 H954 0.930 . S
C935 N933 1.375 . S
C935 C934 1.338 . S
C935 H939 0.931 . S
C936 N933 1.313 . S
C936 N937 1.344 . S
C936 H940 0.930 . S
N937 C934 1.377 . S
N937 C936 1.344 . S
O938 Co930 2.055 . S
O938 C942 1.253 . S
H939 C935 0.931 . S
H940 C936 0.930 . S
O941 Co930 2.039 . S
O941 C931 1.265 . S
C942 O938 1.253 . S
C942 O943 1.227 . S
O943 C942 1.227 . S
N944 Co930 2.140 . S
N944 C947 1.346 . S
N944 C948 1.345 . S
C945 C946 1.387 . S
C945 C949 1.391 . S
C946 C945 1.387 . S
C946 C947 1.369 . S
C946 H955 0.929 . S
C947 N944 1.346 . S
C947 C946 1.369 . S
C947 H950 0.928 . S
C948 N944 1.345 . S
C948 C949 1.371 . S
C948 H951 0.931 . S
C949 C945 1.391 . S
C949 C948 1.371 . S
C949 H956 0.930 . S
H950 C947 0.928 . S
H951 C948 0.931 . S
H952 C928 0.930 . S
H953 C925 0.930 . S
H954 C934 0.930 . S
H955 C946 0.929 . S
H956 C949 0.930 . S
C957 C958 1.351 . S
C957 N960 1.368 . S
C957 H962 0.931 . S
C958 C957 1.351 . S
C958 N959 1.373 . S
C958 H986 0.930 . S
N959 C958 1.373 . S
N959 C961 1.340 . S
N960 C957 1.368 . S
N960 C961 1.321 . S
N960 Co963 2.135 . S
C961 N959 1.340 . S
C961 N960 1.321 . S
C961 H985 0.930 . S
H962 C957 0.931 . S
Co963 N960 2.135 . S
Co963 N966 2.121 . S
Co963 O971 2.055 . S
Co963 O974 2.039 . S
Co963 N977 2.140 . S
C964 O965 1.227 . S
C964 O974 1.265 . S
O965 C964 1.227 . S
N966 Co963 2.121 . S
N966 C968 1.375 . S
N966 C969 1.313 . S
C967 C968 1.338 . S
C967 N970 1.377 1_655 S
C967 H987 0.930 . S
C968 N966 1.375 . S
C968 C967 1.338 . S
C968 H972 0.931 . S
C969 N966 1.313 . S
C969 N970 1.344 1_655 S
C969 H973 0.930 . S
N970 C967 1.377 1_455 S
N970 C969 1.344 1_455 S
O971 Co963 2.055 . S
O971 C975 1.253 . S
H972 C968 0.931 . S
H973 C969 0.930 . S
O974 Co963 2.039 . S
O974 C964 1.265 . S
C975 O971 1.253 . S
C975 O976 1.227 . S
O976 C975 1.227 . S
N977 Co963 2.140 . S
N977 C980 1.346 . S
N977 C981 1.345 . S
C978 C979 1.387 . S
C978 C982 1.391 . S
C979 C978 1.387 . S
C979 C980 1.369 . S
C979 H988 0.929 . S
C980 N977 1.346 . S
C980 C979 1.369 . S
C980 H983 0.928 . S
C981 N977 1.345 . S
C981 C982 1.371 . S
C981 H984 0.931 . S
C982 C978 1.391 . S
C982 C981 1.371 . S
C982 H989 0.930 . S
H983 C980 0.928 . S
H984 C981 0.931 . S
H985 C961 0.930 . S
H986 C958 0.930 . S
H987 C967 0.930 . S
H988 C979 0.929 . S
H989 C982 0.930 . S
C990 C991 1.351 . S
C990 N993 1.368 . S
C990 H995 0.931 . S
C991 C990 1.351 . S
C991 N992 1.373 . S
C991 H1019 0.930 . S
N992 C991 1.373 . S
N992 C994 1.340 . S
N993 C990 1.368 . S
N993 C994 1.321 . S
N993 Co996 2.135 . S
C994 N992 1.340 . S
C994 N993 1.321 . S
C994 H1018 0.930 . S
H995 C990 0.931 . S
Co996 N993 2.135 . S
Co996 N999 2.121 . S
Co996 O1004 2.055 . S
Co996 O1007 2.039 . S
Co996 N1010 2.140 . S
C997 O998 1.227 . S
C997 O1007 1.265 . S
O998 C997 1.227 . S
N999 Co996 2.121 . S
N999 C1001 1.375 . S
N999 C1002 1.313 . S
C1000 C1001 1.338 . S
C1000 N1003 1.377 . S
C1000 H1020 0.930 . S
C1001 N999 1.375 . S
C1001 C1000 1.338 . S
C1001 H1005 0.931 . S
C1002 N999 1.313 . S
C1002 N1003 1.344 . S
C1002 H1006 0.930 . S
N1003 C1000 1.377 . S
N1003 C1002 1.344 . S
O1004 Co996 2.055 . S
O1004 C1008 1.253 . S
H1005 C1001 0.931 . S
H1006 C1002 0.930 . S
O1007 Co996 2.039 . S
O1007 C997 1.265 . S
C1008 O1004 1.253 . S
C1008 O1009 1.227 . S
O1009 C1008 1.227 . S
N1010 Co996 2.140 . S
N1010 C1013 1.346 . S
N1010 C1014 1.345 . S
C1011 C1012 1.387 . S
C1011 C1015 1.391 . S
C1012 C1011 1.387 . S
C1012 C1013 1.369 . S
C1012 H1021 0.929 . S
C1013 N1010 1.346 . S
C1013 C1012 1.369 . S
C1013 H1016 0.928 . S
C1014 N1010 1.345 . S
C1014 C1015 1.371 . S
C1014 H1017 0.931 . S
C1015 C1011 1.391 . S
C1015 C1014 1.371 . S
C1015 H1022 0.930 . S
H1016 C1013 0.928 . S
H1017 C1014 0.931 . S
H1018 C994 0.930 . S
H1019 C991 0.930 . S
H1020 C1000 0.930 . S
H1021 C1012 0.929 . S
H1022 C1015 0.930 . S
C1023 C1024 1.351 . S
C1023 N1026 1.368 . S
C1023 H1028 0.931 . S
C1024 C1023 1.351 . S
C1024 N1025 1.373 . S
C1024 H1052 0.930 . S
N1025 C1024 1.373 . S
N1025 C1027 1.340 . S
N1026 C1023 1.368 . S
N1026 C1027 1.321 . S
N1026 Co1029 2.135 . S
C1027 N1025 1.340 . S
C1027 N1026 1.321 . S
C1027 H1051 0.930 . S
H1028 C1023 0.931 . S
Co1029 N1026 2.135 . S
Co1029 N1032 2.121 . S
Co1029 O1037 2.055 . S
Co1029 O1040 2.039 . S
Co1029 N1043 2.140 . S
C1030 O1031 1.227 . S
C1030 O1040 1.265 . S
O1031 C1030 1.227 . S
N1032 Co1029 2.121 . S
N1032 C1034 1.375 . S
N1032 C1035 1.313 . S
C1033 C1034 1.338 . S
C1033 N1036 1.377 . S
C1033 H1053 0.930 . S
C1034 N1032 1.375 . S
C1034 C1033 1.338 . S
C1034 H1038 0.931 . S
C1035 N1032 1.313 . S
C1035 N1036 1.344 . S
C1035 H1039 0.930 . S
N1036 C1033 1.377 . S
N1036 C1035 1.344 . S
O1037 Co1029 2.055 . S
O1037 C1041 1.253 . S
H1038 C1034 0.931 . S
H1039 C1035 0.930 . S
O1040 Co1029 2.039 . S
O1040 C1030 1.265 . S
C1041 O1037 1.253 . S
C1041 O1042 1.227 . S
O1042 C1041 1.227 . S
N1043 Co1029 2.140 . S
N1043 C1046 1.346 . S
N1043 C1047 1.345 . S
C1044 C1045 1.387 . S
C1044 C1048 1.391 . S
C1045 C1044 1.387 . S
C1045 C1046 1.369 . S
C1045 H1054 0.929 . S
C1046 N1043 1.346 . S
C1046 C1045 1.369 . S
C1046 H1049 0.928 . S
C1047 N1043 1.345 . S
C1047 C1048 1.371 . S
C1047 H1050 0.931 . S
C1048 C1044 1.391 . S
C1048 C1047 1.371 . S
C1048 H1055 0.930 . S
H1049 C1046 0.928 . S
H1050 C1047 0.931 . S
H1051 C1027 0.930 . S
H1052 C1024 0.930 . S
H1053 C1033 0.930 . S
H1054 C1045 0.929 . S
H1055 C1048 0.930 . S
H1056 C1068 0.930 . S
H1057 C1070 0.930 . S
H1058 C1071 0.930 . S
H1059 C1075 0.959 . S
H1060 C1075 0.959 . S
H1061 C1075 0.961 . S
H1062 C1076 0.960 . S
H1063 C1076 0.961 . S
H1064 C1076 0.959 . S
H1065 C1079 0.929 . S
H1066 C1080 0.931 . S
H1067 C1082 0.930 . S
C1068 H1056 0.930 . S
C1068 C1069 1.399 . S
C1068 C1073 1.399 . S
C1069 C1068 1.399 . S
C1069 C1070 1.376 . S
C1070 H1057 0.930 . S
C1070 C1069 1.376 . S
C1070 C1071 1.388 . S
C1071 H1058 0.930 . S
C1071 C1070 1.388 . S
C1071 C1072 1.390 . S
C1072 C1071 1.390 . S
C1072 C1073 1.394 . S
C1072 C1078 1.465 . S
C1073 C1068 1.399 . S
C1073 C1072 1.394 . S
C1073 C1074 1.516 . S
C1074 C1073 1.516 . S
C1074 C1075 1.502 . S
C1074 C1076 1.561 . S
C1074 C1077 1.526 . S
C1075 H1059 0.959 . S
C1075 H1060 0.959 . S
C1075 H1061 0.961 . S
C1075 C1074 1.502 . S
C1076 H1062 0.960 . S
C1076 H1063 0.961 . S
C1076 H1064 0.959 . S
C1076 C1074 1.561 . S
C1077 C1074 1.526 . S
C1077 C1078 1.396 . S
C1077 C1082 1.390 . S
C1078 C1072 1.465 . S
C1078 C1077 1.396 . S
C1078 C1079 1.399 . S
C1079 H1065 0.929 . S
C1079 C1078 1.399 . S
C1079 C1080 1.385 . S
C1080 H1066 0.931 . S
C1080 C1079 1.385 . S
C1080 C1081 1.389 . S
C1081 C1080 1.389 . S
C1081 C1082 1.387 . S
C1082 H1067 0.930 . S
C1082 C1077 1.390 . S
C1082 C1081 1.387 . S
H1083 C1095 0.930 . S
H1084 C1097 0.930 . S
H1085 C1098 0.932 1_655 S
H1086 C1102 0.959 . S
H1087 C1102 0.959 . S
H1088 C1102 0.961 . S
H1089 C1103 0.960 . S
H1090 C1103 0.961 . S
H1091 C1103 0.959 . S
H1092 C1106 0.929 . S
H1093 C1107 0.931 . S
H1094 C1109 0.930 . S
C1095 H1083 0.930 . S
C1095 C1096 1.399 . S
C1095 C1100 1.399 . S
C1096 C1095 1.399 . S
C1096 C1097 1.376 1_565 S
C1097 H1084 0.930 . S
C1097 C1096 1.376 1_545 S
C1097 C1098 1.388 . S
C1098 H1085 0.932 1_455 S
C1098 C1097 1.388 . S
C1098 C1099 1.390 . S
C1099 C1098 1.390 . S
C1099 C1100 1.394 1_545 S
C1099 C1105 1.465 1_455 S
C1100 C1095 1.399 . S
C1100 C1099 1.394 1_565 S
C1100 C1101 1.516 . S
C1101 C1100 1.516 . S
C1101 C1102 1.502 . S
C1101 C1103 1.561 1_455 S
C1101 C1104 1.526 1_455 S
C1102 H1086 0.959 . S
C1102 H1087 0.959 . S
C1102 H1088 0.961 . S
C1102 C1101 1.502 . S
C1103 H1089 0.960 . S
C1103 H1090 0.961 . S
C1103 H1091 0.959 . S
C1103 C1101 1.561 1_655 S
C1104 C1101 1.526 1_655 S
C1104 C1105 1.396 1_565 S
C1104 C1109 1.390 . S
C1105 C1099 1.465 1_655 S
C1105 C1104 1.396 1_545 S
C1105 C1106 1.399 . S
C1106 H1092 0.929 . S
C1106 C1105 1.399 . S
C1106 C1107 1.385 . S
C1107 H1093 0.931 . S
C1107 C1106 1.385 . S
C1107 C1108 1.389 . S
C1108 C1107 1.389 . S
C1108 C1109 1.387 1_545 S
C1109 H1094 0.930 . S
C1109 C1104 1.390 . S
C1109 C1108 1.387 1_565 S
H1110 C1122 0.930 . S
H1111 C1124 0.930 . S
H1112 C1125 0.930 . S
H1113 C1129 0.959 . S
H1114 C1129 0.959 . S
H1115 C1129 0.961 . S
H1116 C1130 0.960 . S
H1117 C1130 0.961 . S
H1118 C1130 0.959 . S
H1119 C1133 0.929 . S
H1120 C1134 0.931 . S
H1121 C1136 0.930 . S
C1122 H1110 0.930 . S
C1122 C1123 1.399 . S
C1122 C1127 1.399 . S
C1123 C1122 1.399 . S
C1123 C1124 1.376 . S
C1124 H1111 0.930 . S
C1124 C1123 1.376 . S
C1124 C1125 1.388 . S
C1125 H1112 0.930 . S
C1125 C1124 1.388 . S
C1125 C1126 1.390 . S
C1126 C1125 1.390 . S
C1126 C1127 1.394 . S
C1126 C1132 1.465 . S
C1127 C1122 1.399 . S
C1127 C1126 1.394 . S
C1127 C1128 1.516 . S
C1128 C1127 1.516 . S
C1128 C1129 1.502 . S
C1128 C1130 1.561 . S
C1128 C1131 1.526 . S
C1129 H1113 0.959 . S
C1129 H1114 0.959 . S
C1129 H1115 0.961 . S
C1129 C1128 1.502 . S
C1130 H1116 0.960 . S
C1130 H1117 0.961 . S
C1130 H1118 0.959 . S
C1130 C1128 1.561 . S
C1131 C1128 1.526 . S
C1131 C1132 1.396 . S
C1131 C1136 1.390 . S
C1132 C1126 1.465 . S
C1132 C1131 1.396 . S
C1132 C1133 1.399 . S
C1133 H1119 0.929 . S
C1133 C1132 1.399 . S
C1133 C1134 1.385 . S
C1134 H1120 0.931 . S
C1134 C1133 1.385 . S
C1134 C1135 1.389 . S
C1135 C1134 1.389 . S
C1135 C1136 1.387 . S
C1136 H1121 0.930 . S
C1136 C1131 1.390 . S
C1136 C1135 1.387 . S
H1137 C1149 0.930 . S
H1138 C1151 0.930 . S
H1139 C1152 0.930 . S
H1140 C1156 0.959 . S
H1141 C1156 0.959 . S
H1142 C1156 0.961 . S
H1143 C1157 0.960 . S
H1144 C1157 0.961 1_556 S
H1145 C1157 0.959 . S
H1146 C1160 0.929 . S
H1147 C1161 0.931 . S
H1148 C1163 0.930 . S
C1149 H1137 0.930 . S
C1149 C1150 1.399 . S
C1149 C1154 1.399 . S
C1150 C1149 1.399 . S
C1150 C1151 1.376 1_545 S
C1151 H1138 0.930 . S
C1151 C1150 1.376 1_565 S
C1151 C1152 1.388 . S
C1152 H1139 0.930 . S
C1152 C1151 1.388 . S
C1152 C1153 1.390 . S
C1153 C1152 1.390 . S
C1153 C1154 1.394 1_565 S
C1153 C1159 1.465 1_554 S
C1154 C1149 1.399 . S
C1154 C1153 1.394 1_545 S
C1154 C1155 1.516 1_554 S
C1155 C1154 1.516 1_556 S
C1155 C1156 1.502 . S
C1155 C1157 1.561 1_556 S
C1155 C1158 1.526 . S
C1156 H1140 0.959 . S
C1156 H1141 0.959 . S
C1156 H1142 0.961 . S
C1156 C1155 1.502 . S
C1157 H1143 0.960 . S
C1157 H1144 0.961 1_554 S
C1157 H1145 0.959 . S
C1157 C1155 1.561 1_554 S
C1158 C1155 1.526 . S
C1158 C1159 1.396 1_545 S
C1158 C1163 1.390 . S
C1159 C1153 1.465 1_556 S
C1159 C1158 1.396 1_565 S
C1159 C1160 1.399 . S
C1160 H1146 0.929 . S
C1160 C1159 1.399 . S
C1160 C1161 1.385 . S
C1161 H1147 0.931 . S
C1161 C1160 1.385 . S
C1161 C1162 1.389 . S
C1162 C1161 1.389 . S
C1162 C1163 1.387 1_565 S
C1163 H1148 0.930 . S
C1163 C1158 1.390 . S
C1163 C1162 1.387 1_545 S
H1164 C1176 0.930 . S
H1165 C1178 0.930 . S
H1166 C1179 0.930 . S
H1167 C1183 0.959 . S
H1168 C1183 0.959 . S
H1169 C1183 0.961 . S
H1170 C1184 0.960 . S
H1171 C1184 0.961 . S
H1172 C1184 0.959 . S
H1173 C1187 0.929 . S
H1174 C1188 0.931 . S
H1175 C1190 0.930 . S
C1176 H1164 0.930 . S
C1176 C1177 1.399 . S
C1176 C1181 1.399 . S
C1177 C1176 1.399 . S
C1177 C1178 1.376 . S
C1178 H1165 0.930 . S
C1178 C1177 1.376 . S
C1178 C1179 1.388 . S
C1179 H1166 0.930 . S
C1179 C1178 1.388 . S
C1179 C1180 1.390 . S
C1180 C1179 1.390 . S
C1180 C1181 1.394 . S
C1180 C1186 1.465 . S
C1181 C1176 1.399 . S
C1181 C1180 1.394 . S
C1181 C1182 1.516 . S
C1182 C1181 1.516 . S
C1182 C1183 1.502 . S
C1182 C1184 1.561 . S
C1182 C1185 1.526 . S
C1183 H1167 0.959 . S
C1183 H1168 0.959 . S
C1183 H1169 0.961 . S
C1183 C1182 1.502 . S
C1184 H1170 0.960 . S
C1184 H1171 0.961 . S
C1184 H1172 0.959 . S
C1184 C1182 1.561 . S
C1185 C1182 1.526 . S
C1185 C1186 1.396 . S
C1185 C1190 1.390 . S
C1186 C1180 1.465 . S
C1186 C1185 1.396 . S
C1186 C1187 1.399 . S
C1187 H1173 0.929 . S
C1187 C1186 1.399 . S
C1187 C1188 1.385 . S
C1188 H1174 0.931 . S
C1188 C1187 1.385 . S
C1188 C1189 1.389 . S
C1189 C1188 1.389 . S
C1189 C1190 1.387 . S
C1190 H1175 0.930 . S
C1190 C1185 1.390 . S
C1190 C1189 1.387 . S
H1191 C1203 0.930 . S
H1192 C1205 0.930 . S
H1193 C1206 0.930 . S
H1194 C1210 0.959 . S
H1195 C1210 0.959 . S
H1196 C1210 0.961 . S
H1197 C1211 0.960 . S
H1198 C1211 0.961 . S
H1199 C1211 0.959 . S
H1200 C1214 0.929 . S
H1201 C1215 0.931 . S
H1202 C1217 0.930 . S
C1203 H1191 0.930 . S
C1203 C1204 1.399 . S
C1203 C1208 1.399 . S
C1204 C1203 1.399 . S
C1204 C1205 1.376 . S
C1205 H1192 0.930 . S
C1205 C1204 1.376 . S
C1205 C1206 1.388 . S
C1206 H1193 0.930 . S
C1206 C1205 1.388 . S
C1206 C1207 1.390 . S
C1207 C1206 1.390 . S
C1207 C1208 1.394 . S
C1207 C1213 1.465 1_565 S
C1208 C1203 1.399 . S
C1208 C1207 1.394 . S
C1208 C1209 1.516 . S
C1209 C1208 1.516 . S
C1209 C1210 1.502 1_565 S
C1209 C1211 1.561 . S
C1209 C1212 1.526 1_565 S
C1210 H1194 0.959 . S
C1210 H1195 0.959 . S
C1210 H1196 0.961 . S
C1210 C1209 1.502 1_545 S
C1211 H1197 0.960 . S
C1211 H1198 0.961 . S
C1211 H1199 0.959 . S
C1211 C1209 1.561 . S
C1212 C1209 1.526 1_545 S
C1212 C1213 1.396 . S
C1212 C1217 1.390 . S
C1213 C1207 1.465 1_545 S
C1213 C1212 1.396 . S
C1213 C1214 1.399 . S
C1214 H1200 0.929 . S
C1214 C1213 1.399 . S
C1214 C1215 1.385 . S
C1215 H1201 0.931 . S
C1215 C1214 1.385 . S
C1215 C1216 1.389 . S
C1216 C1215 1.389 . S
C1216 C1217 1.387 . S
C1217 H1202 0.930 . S
C1217 C1212 1.390 . S
C1217 C1216 1.387 . S
H1218 C1230 0.930 . S
H1219 C1232 0.930 . S
H1220 C1233 0.930 . S
H1221 C1237 0.959 . S
H1222 C1237 0.959 . S
H1223 C1237 0.961 . S
H1224 C1238 0.960 . S
H1225 C1238 0.961 . S
H1226 C1238 0.959 . S
H1227 C1241 0.929 . S
H1228 C1242 0.931 . S
H1229 C1244 0.930 . S
C1230 H1218 0.930 . S
C1230 C1231 1.399 . S
C1230 C1235 1.399 . S
C1231 C1230 1.399 . S
C1231 C1232 1.376 . S
C1232 H1219 0.930 . S
C1232 C1231 1.376 . S
C1232 C1233 1.388 . S
C1233 H1220 0.930 . S
C1233 C1232 1.388 . S
C1233 C1234 1.390 . S
C1234 C1233 1.390 . S
C1234 C1235 1.394 . S
C1234 C1240 1.465 . S
C1235 C1230 1.399 . S
C1235 C1234 1.394 . S
C1235 C1236 1.516 . S
C1236 C1235 1.516 . S
C1236 C1237 1.502 . S
C1236 C1238 1.561 . S
C1236 C1239 1.526 . S
C1237 H1221 0.959 . S
C1237 H1222 0.959 . S
C1237 H1223 0.961 . S
C1237 C1236 1.502 . S
C1238 H1224 0.960 . S
C1238 H1225 0.961 . S
C1238 H1226 0.959 . S
C1238 C1236 1.561 . S
C1239 C1236 1.526 . S
C1239 C1240 1.396 . S
C1239 C1244 1.390 . S
C1240 C1234 1.465 . S
C1240 C1239 1.396 . S
C1240 C1241 1.399 . S
C1241 H1227 0.929 . S
C1241 C1240 1.399 . S
C1241 C1242 1.385 . S
C1242 H1228 0.931 . S
C1242 C1241 1.385 . S
C1242 C1243 1.389 . S
C1243 C1242 1.389 . S
C1243 C1244 1.387 . S
C1244 H1229 0.930 . S
C1244 C1239 1.390 . S
C1244 C1243 1.387 . S
H1245 C1257 0.930 . S
H1246 C1259 0.930 . S
H1247 C1260 0.930 . S
H1248 C1264 0.959 . S
H1249 C1264 0.959 . S
H1250 C1264 0.961 1_556 S
H1251 C1265 0.960 . S
H1252 C1265 0.961 . S
H1253 C1265 0.959 . S
H1254 C1268 0.929 . S
H1255 C1269 0.931 . S
H1256 C1271 0.930 . S
C1257 H1245 0.930 . S
C1257 C1258 1.399 . S
C1257 C1262 1.399 . S
C1258 C1257 1.399 . S
C1258 C1259 1.376 1_545 S
C1259 H1246 0.930 . S
C1259 C1258 1.376 1_565 S
C1259 C1260 1.388 . S
C1260 H1247 0.930 . S
C1260 C1259 1.388 . S
C1260 C1261 1.390 . S
C1261 C1260 1.390 . S
C1261 C1262 1.394 1_565 S
C1261 C1267 1.449 1_456 S
C1262 C1257 1.399 . S
C1262 C1261 1.394 1_545 S
C1262 C1263 1.516 1_455 S
C1263 C1262 1.516 1_655 S
C1263 C1264 1.502 1_556 S
C1263 C1265 1.561 . S
C1263 C1266 1.526 1_556 S
C1264 H1248 0.959 . S
C1264 H1249 0.959 . S
C1264 H1250 0.961 1_554 S
C1264 C1263 1.502 1_554 S
C1265 H1251 0.960 . S
C1265 H1252 0.961 . S
C1265 H1253 0.959 . S
C1265 C1263 1.561 . S
C1266 C1263 1.526 1_554 S
C1266 C1267 1.421 1_545 S
C1266 C1271 1.390 . S
C1267 C1261 1.449 1_654 S
C1267 C1266 1.421 1_565 S
C1267 C1268 1.395 1_655 S
C1268 H1254 0.929 . S
C1268 C1267 1.395 1_455 S
C1268 C1269 1.385 1_455 S
C1269 H1255 0.931 . S
C1269 C1268 1.385 1_655 S
C1269 C1270 1.389 . S
C1270 C1269 1.389 . S
C1270 C1271 1.387 1_565 S
C1271 H1256 0.930 . S
C1271 C1266 1.390 . S
C1271 C1270 1.387 1_545 S
H1272 C1284 0.930 . S
H1273 C1286 0.930 . S
H1274 C1287 0.930 . S
H1275 C1291 0.959 . S
H1276 C1291 0.959 . S
H1277 C1291 0.961 . S
H1278 C1292 0.960 . S
H1279 C1292 0.961 . S
H1280 C1292 0.959 . S
H1281 C1295 0.929 . S
H1282 C1296 0.931 . S
H1283 C1298 0.930 . S
C1284 H1272 0.930 . S
C1284 C1285 1.399 . S
C1284 C1289 1.399 . S
C1285 C1284 1.399 . S
C1285 C1286 1.376 . S
C1286 H1273 0.930 . S
C1286 C1285 1.376 . S
C1286 C1287 1.388 . S
C1287 H1274 0.930 . S
C1287 C1286 1.388 . S
C1287 C1288 1.390 . S
C1288 C1287 1.390 . S
C1288 C1289 1.394 . S
C1288 C1294 1.465 . S
C1289 C1284 1.399 . S
C1289 C1288 1.394 . S
C1289 C1290 1.516 . S
C1290 C1289 1.516 . S
C1290 C1291 1.502 . S
C1290 C1292 1.561 . S
C1290 C1293 1.526 . S
C1291 H1275 0.959 . S
C1291 H1276 0.959 . S
C1291 H1277 0.961 . S
C1291 C1290 1.502 . S
C1292 H1278 0.960 . S
C1292 H1279 0.961 . S
C1292 H1280 0.959 . S
C1292 C1290 1.561 . S
C1293 C1290 1.526 . S
C1293 C1294 1.396 . S
C1293 C1298 1.390 . S
C1294 C1288 1.465 . S
C1294 C1293 1.396 . S
C1294 C1295 1.399 . S
C1295 H1281 0.929 . S
C1295 C1294 1.399 . S
C1295 C1296 1.385 . S
C1296 H1282 0.931 . S
C1296 C1295 1.385 . S
C1296 C1297 1.389 . S
C1297 C1296 1.389 . S
C1297 C1298 1.387 . S
C1298 H1283 0.930 . S
C1298 C1293 1.390 . S
C1298 C1297 1.387 . S
H1299 C1311 0.930 . S
H1300 C1313 0.930 . S
H1301 C1314 0.930 . S
H1302 C1318 0.959 . S
H1303 C1318 0.959 . S
H1304 C1318 0.961 . S
H1305 C1319 0.960 . S
H1306 C1319 0.961 . S
H1307 C1319 0.959 . S
H1308 C1322 0.929 . S
H1309 C1323 0.931 . S
H1310 C1325 0.930 . S
C1311 H1299 0.930 . S
C1311 C1312 1.399 . S
C1311 C1316 1.399 . S
C1312 C1311 1.399 . S
C1312 C1313 1.376 . S
C1313 H1300 0.930 . S
C1313 C1312 1.376 . S
C1313 C1314 1.388 . S
C1314 H1301 0.930 . S
C1314 C1313 1.388 . S
C1314 C1315 1.390 . S
C1315 C1314 1.390 . S
C1315 C1316 1.394 . S
C1315 C1321 1.465 . S
C1316 C1311 1.399 . S
C1316 C1315 1.394 . S
C1316 C1317 1.516 . S
C1317 C1316 1.516 . S
C1317 C1318 1.502 . S
C1317 C1319 1.561 . S
C1317 C1320 1.526 . S
C1318 H1302 0.959 . S
C1318 H1303 0.959 . S
C1318 H1304 0.961 . S
C1318 C1317 1.502 . S
C1319 H1305 0.960 . S
C1319 H1306 0.961 . S
C1319 H1307 0.959 . S
C1319 C1317 1.561 . S
C1320 C1317 1.526 . S
C1320 C1321 1.396 . S
C1320 C1325 1.390 . S
C1321 C1315 1.465 . S
C1321 C1320 1.396 . S
C1321 C1322 1.399 . S
C1322 H1308 0.929 . S
C1322 C1321 1.399 . S
C1322 C1323 1.385 . S
C1323 H1309 0.931 . S
C1323 C1322 1.385 . S
C1323 C1324 1.389 . S
C1324 C1323 1.389 . S
C1324 C1325 1.387 . S
C1325 H1310 0.930 . S
C1325 C1320 1.390 . S
C1325 C1324 1.387 . S
H1326 C1338 0.930 . S
H1327 C1340 0.930 . S
H1328 C1341 0.930 . S
H1329 C1345 0.959 . S
H1330 C1345 0.959 . S
H1331 C1345 0.961 . S
H1332 C1346 0.960 . S
H1333 C1346 0.961 . S
H1334 C1346 0.959 . S
H1335 C1349 0.929 . S
H1336 C1350 0.931 . S
H1337 C1352 0.930 . S
C1338 H1326 0.930 . S
C1338 C1339 1.399 . S
C1338 C1343 1.399 . S
C1339 C1338 1.399 . S
C1339 C1340 1.376 . S
C1340 H1327 0.930 . S
C1340 C1339 1.376 . S
C1340 C1341 1.388 . S
C1341 H1328 0.930 . S
C1341 C1340 1.388 . S
C1341 C1342 1.390 . S
C1342 C1341 1.390 . S
C1342 C1343 1.394 . S
C1342 C1348 1.465 . S
C1343 C1338 1.399 . S
C1343 C1342 1.394 . S
C1343 C1344 1.516 . S
C1344 C1343 1.516 . S
C1344 C1345 1.502 . S
C1344 C1346 1.561 . S
C1344 C1347 1.526 . S
C1345 H1329 0.959 . S
C1345 H1330 0.959 . S
C1345 H1331 0.961 . S
C1345 C1344 1.502 . S
C1346 H1332 0.960 . S
C1346 H1333 0.961 . S
C1346 H1334 0.959 . S
C1346 C1344 1.561 . S
C1347 C1344 1.526 . S
C1347 C1348 1.396 . S
C1347 C1352 1.390 . S
C1348 C1342 1.465 . S
C1348 C1347 1.396 . S
C1348 C1349 1.399 . S
C1349 H1335 0.929 . S
C1349 C1348 1.399 . S
C1349 C1350 1.385 . S
C1350 H1336 0.931 . S
C1350 C1349 1.385 . S
C1350 C1351 1.389 . S
C1351 C1350 1.389 . S
C1351 C1352 1.387 . S
C1352 H1337 0.930 . S
C1352 C1347 1.390 . S
C1352 C1351 1.387 . S
H1353 C1365 0.930 . S
H1354 C1367 0.930 . S
H1355 C1368 0.930 . S
H1356 C1372 0.959 . S
H1357 C1372 0.959 . S
H1358 C1372 0.961 . S
H1359 C1373 0.960 . S
H1360 C1373 0.961 . S
H1361 C1373 0.959 . S
H1362 C1376 0.929 . S
H1363 C1377 0.931 . S
H1364 C1379 0.930 . S
C1365 H1353 0.930 . S
C1365 C1366 1.399 . S
C1365 C1370 1.399 . S
C1366 C1365 1.399 . S
C1366 C1367 1.376 . S
C1367 H1354 0.930 . S
C1367 C1366 1.376 . S
C1367 C1368 1.388 . S
C1368 H1355 0.930 . S
C1368 C1367 1.388 . S
C1368 C1369 1.390 . S
C1369 C1368 1.390 . S
C1369 C1370 1.394 . S
C1369 C1375 1.465 . S
C1370 C1365 1.399 . S
C1370 C1369 1.394 . S
C1370 C1371 1.516 . S
C1371 C1370 1.516 . S
C1371 C1372 1.502 . S
C1371 C1373 1.561 . S
C1371 C1374 1.526 . S
C1372 H1356 0.959 . S
C1372 H1357 0.959 . S
C1372 H1358 0.961 . S
C1372 C1371 1.502 . S
C1373 H1359 0.960 . S
C1373 H1360 0.961 . S
C1373 H1361 0.959 . S
C1373 C1371 1.561 . S
C1374 C1371 1.526 . S
C1374 C1375 1.396 . S
C1374 C1379 1.390 . S
C1375 C1369 1.465 . S
C1375 C1374 1.396 . S
C1375 C1376 1.399 . S
C1376 H1362 0.929 . S
C1376 C1375 1.399 . S
C1376 C1377 1.385 . S
C1377 H1363 0.931 . S
C1377 C1376 1.385 . S
C1377 C1378 1.389 . S
C1378 C1377 1.389 . S
C1378 C1379 1.387 . S
C1379 H1364 0.930 . S
C1379 C1374 1.390 . S
C1379 C1378 1.387 . S
H1380 C1392 0.930 . S
H1381 C1394 0.930 . S
H1382 C1395 0.930 . S
H1383 C1399 0.959 . S
H1384 C1399 0.959 . S
H1385 C1399 0.961 . S
H1386 C1400 0.960 . S
H1387 C1400 0.961 1_554 S
H1388 C1400 0.959 1_554 S
H1389 C1403 0.929 . S
H1390 C1404 0.931 . S
H1391 C1406 0.930 . S
C1392 H1380 0.930 . S
C1392 C1393 1.399 . S
C1392 C1397 1.399 . S
C1393 C1392 1.399 . S
C1393 C1394 1.376 . S
C1394 H1381 0.930 . S
C1394 C1393 1.376 . S
C1394 C1395 1.388 . S
C1395 H1382 0.930 . S
C1395 C1394 1.388 . S
C1395 C1396 1.390 . S
C1396 C1395 1.390 . S
C1396 C1397 1.394 . S
C1396 C1402 1.465 1_556 S
C1397 C1392 1.399 . S
C1397 C1396 1.394 . S
C1397 C1398 1.516 . S
C1398 C1397 1.516 . S
C1398 C1399 1.502 . S
C1398 C1400 1.561 . S
C1398 C1401 1.526 1_556 S
C1399 H1383 0.959 . S
C1399 H1384 0.959 . S
C1399 H1385 0.961 . S
C1399 C1398 1.502 . S
C1400 H1386 0.960 . S
C1400 H1387 0.961 1_556 S
C1400 H1388 0.959 1_556 S
C1400 C1398 1.561 . S
C1401 C1398 1.526 1_554 S
C1401 C1402 1.396 . S
C1401 C1406 1.390 . S
C1402 C1396 1.465 1_554 S
C1402 C1401 1.396 . S
C1402 C1403 1.399 . S
C1403 H1389 0.929 . S
C1403 C1402 1.399 . S
C1403 C1404 1.385 . S
C1404 H1390 0.931 . S
C1404 C1403 1.385 . S
C1404 C1405 1.389 . S
C1405 C1404 1.389 . S
C1405 C1406 1.387 . S
C1406 H1391 0.930 . S
C1406 C1401 1.390 . S
C1406 C1405 1.387 . S
H1407 C1419 0.930 . S
H1408 C1421 0.930 . S
H1409 C1422 0.930 . S
H1410 C1426 0.959 . S
H1411 C1426 0.959 . S
H1412 C1426 0.961 . S
H1413 C1427 0.960 . S
H1414 C1427 0.961 . S
H1415 C1427 0.959 . S
H1416 C1430 0.929 . S
H1417 C1431 0.931 . S
H1418 C1433 0.930 . S
C1419 H1407 0.930 . S
C1419 C1420 1.399 . S
C1419 C1424 1.399 . S
C1420 C1419 1.399 . S
C1420 C1421 1.376 . S
C1421 H1408 0.930 . S
C1421 C1420 1.376 . S
C1421 C1422 1.388 . S
C1422 H1409 0.930 . S
C1422 C1421 1.388 . S
C1422 C1423 1.390 . S
C1423 C1422 1.390 . S
C1423 C1424 1.394 . S
C1423 C1429 1.465 1_655 S
C1424 C1419 1.399 . S
C1424 C1423 1.394 . S
C1424 C1425 1.516 . S
C1425 C1424 1.516 . S
C1425 C1426 1.502 1_655 S
C1425 C1427 1.561 . S
C1425 C1428 1.526 1_655 S
C1426 H1410 0.959 . S
C1426 H1411 0.959 . S
C1426 H1412 0.961 . S
C1426 C1425 1.502 1_455 S
C1427 H1413 0.960 . S
C1427 H1414 0.961 . S
C1427 H1415 0.959 . S
C1427 C1425 1.561 . S
C1428 C1425 1.526 1_455 S
C1428 C1429 1.396 . S
C1428 C1433 1.390 . S
C1429 C1423 1.465 1_455 S
C1429 C1428 1.396 . S
C1429 C1430 1.399 . S
C1430 H1416 0.929 . S
C1430 C1429 1.399 . S
C1430 C1431 1.385 . S
C1431 H1417 0.931 . S
C1431 C1430 1.385 . S
C1431 C1432 1.389 . S
C1432 C1431 1.389 . S
C1432 C1433 1.387 . S
C1433 H1418 0.930 . S
C1433 C1428 1.390 . S
C1433 C1432 1.387 . S
H1434 C1446 0.930 . S
H1435 C1448 0.930 . S
H1436 C1449 0.930 . S
H1437 C1453 0.959 . S
H1438 C1453 0.959 1_556 S
H1439 C1453 0.961 . S
H1440 C1454 0.960 . S
H1441 C1454 0.965 . S
H1442 C1454 0.959 . S
H1443 C1457 0.929 1_455 S
H1444 C1458 0.931 . S
H1445 C1460 0.930 . S
C1446 H1434 0.930 . S
C1446 C1447 1.399 . S
C1446 C1451 1.399 . S
C1447 C1446 1.399 . S
C1447 C1448 1.376 . S
C1448 H1435 0.930 . S
C1448 C1447 1.376 . S
C1448 C1449 1.388 . S
C1449 H1436 0.930 . S
C1449 C1448 1.388 . S
C1449 C1450 1.390 . S
C1450 C1449 1.390 . S
C1450 C1451 1.394 . S
C1450 C1456 1.462 1_454 S
C1451 C1446 1.399 . S
C1451 C1450 1.394 . S
C1451 C1452 1.516 1_454 S
C1452 C1451 1.516 1_656 S
C1452 C1453 1.502 1_556 S
C1452 C1454 1.561 1_655 S
C1452 C1455 1.526 . S
C1453 H1437 0.959 . S
C1453 H1438 0.959 1_554 S
C1453 H1439 0.961 . S
C1453 C1452 1.502 1_554 S
C1454 H1440 0.960 . S
C1454 H1441 0.965 . S
C1454 H1442 0.959 . S
C1454 C1452 1.561 1_455 S
C1455 C1452 1.526 . S
C1455 C1456 1.399 . S
C1455 C1460 1.390 . S
C1456 C1450 1.462 1_656 S
C1456 C1455 1.399 . S
C1456 C1457 1.399 . S
C1457 H1443 0.929 1_655 S
C1457 C1456 1.399 . S
C1457 C1458 1.385 . S
C1458 H1444 0.931 . S
C1458 C1457 1.385 . S
C1458 C1459 1.389 . S
C1459 C1458 1.389 . S
C1459 C1460 1.387 . S
C1460 H1445 0.930 . S
C1460 C1455 1.390 . S
C1460 C1459 1.387 . S
H1461 C1473 0.930 . S
H1462 C1475 0.930 . S
H1463 C1476 0.930 . S
H1464 C1480 0.959 . S
H1465 C1480 0.959 . S
H1466 C1480 0.961 . S
H1467 C1481 0.960 . S
H1468 C1481 0.961 . S
H1469 C1481 0.959 . S
H1470 C1484 0.929 . S
H1471 C1485 0.931 . S
H1472 C1487 0.930 . S
C1473 H1461 0.930 . S
C1473 C1474 1.399 . S
C1473 C1478 1.399 . S
C1474 C1473 1.399 . S
C1474 C1475 1.376 . S
C1475 H1462 0.930 . S
C1475 C1474 1.376 . S
C1475 C1476 1.388 . S
C1476 H1463 0.930 . S
C1476 C1475 1.388 . S
C1476 C1477 1.390 . S
C1477 C1476 1.390 . S
C1477 C1478 1.394 . S
C1477 C1483 1.465 . S
C1478 C1473 1.399 . S
C1478 C1477 1.394 . S
C1478 C1479 1.516 . S
C1479 C1478 1.516 . S
C1479 C1480 1.502 . S
C1479 C1481 1.561 . S
C1479 C1482 1.526 . S
C1480 H1464 0.959 . S
C1480 H1465 0.959 . S
C1480 H1466 0.961 . S
C1480 C1479 1.502 . S
C1481 H1467 0.960 . S
C1481 H1468 0.961 . S
C1481 H1469 0.959 . S
C1481 C1479 1.561 . S
C1482 C1479 1.526 . S
C1482 C1483 1.396 . S
C1482 C1487 1.390 . S
C1483 C1477 1.465 . S
C1483 C1482 1.396 . S
C1483 C1484 1.399 . S
C1484 H1470 0.929 . S
C1484 C1483 1.399 . S
C1484 C1485 1.385 . S
C1485 H1471 0.931 . S
C1485 C1484 1.385 . S
C1485 C1486 1.389 . S
C1486 C1485 1.389 . S
C1486 C1487 1.387 . S
C1487 H1472 0.930 . S
C1487 C1482 1.390 . S
C1487 C1486 1.387 . S
H1488 C1500 0.930 . S
H1489 C1502 0.930 . S
H1490 C1503 0.930 . S
H1491 C1507 0.959 . S
H1492 C1507 0.959 . S
H1493 C1507 0.961 . S
H1494 C1508 0.960 . S
H1495 C1508 0.961 . S
H1496 C1508 0.959 . S
H1497 C1511 0.929 . S
H1498 C1512 0.931 . S
H1499 C1514 0.930 . S
C1500 H1488 0.930 . S
C1500 C1501 1.399 . S
C1500 C1505 1.399 . S
C1501 C1500 1.399 . S
C1501 C1502 1.376 . S
C1502 H1489 0.930 . S
C1502 C1501 1.376 . S
C1502 C1503 1.388 . S
C1503 H1490 0.930 . S
C1503 C1502 1.388 . S
C1503 C1504 1.390 . S
C1504 C1503 1.390 . S
C1504 C1505 1.394 . S
C1504 C1510 1.465 . S
C1505 C1500 1.399 . S
C1505 C1504 1.394 . S
C1505 C1506 1.516 . S
C1506 C1505 1.516 . S
C1506 C1507 1.502 . S
C1506 C1508 1.561 . S
C1506 C1509 1.526 . S
C1507 H1491 0.959 . S
C1507 H1492 0.959 . S
C1507 H1493 0.961 . S
C1507 C1506 1.502 . S
C1508 H1494 0.960 . S
C1508 H1495 0.961 . S
C1508 H1496 0.959 . S
C1508 C1506 1.561 . S
C1509 C1506 1.526 . S
C1509 C1510 1.396 . S
C1509 C1514 1.390 . S
C1510 C1504 1.465 . S
C1510 C1509 1.396 . S
C1510 C1511 1.399 . S
C1511 H1497 0.929 . S
C1511 C1510 1.399 . S
C1511 C1512 1.385 . S
C1512 H1498 0.931 . S
C1512 C1511 1.385 . S
C1512 C1513 1.389 . S
C1513 C1512 1.389 . S
C1513 C1514 1.387 . S
C1514 H1499 0.930 . S
C1514 C1509 1.390 . S
C1514 C1513 1.387 . S
H1515 C1527 0.930 . S
H1516 C1529 0.930 . S
H1517 C1530 0.930 . S
H1518 C1534 0.959 . S
H1519 C1534 0.959 . S
H1520 C1534 0.961 . S
H1521 C1535 0.960 . S
H1522 C1535 0.961 . S
H1523 C1535 0.959 . S
H1524 C1538 0.929 . S
H1525 C1539 0.931 . S
H1526 C1541 0.930 . S
C1527 H1515 0.930 . S
C1527 C1528 1.399 . S
C1527 C1532 1.399 . S
C1528 C1527 1.399 . S
C1528 C1529 1.376 . S
C1529 H1516 0.930 . S
C1529 C1528 1.376 . S
C1529 C1530 1.388 . S
C1530 H1517 0.930 . S
C1530 C1529 1.388 . S
C1530 C1531 1.390 . S
C1531 C1530 1.390 . S
C1531 C1532 1.394 . S
C1531 C1537 1.465 . S
C1532 C1527 1.399 . S
C1532 C1531 1.394 . S
C1532 C1533 1.516 . S
C1533 C1532 1.516 . S
C1533 C1534 1.502 . S
C1533 C1535 1.561 . S
C1533 C1536 1.526 . S
C1534 H1518 0.959 . S
C1534 H1519 0.959 . S
C1534 H1520 0.961 . S
C1534 C1533 1.502 . S
C1535 H1521 0.960 . S
C1535 H1522 0.961 . S
C1535 H1523 0.959 . S
C1535 C1533 1.561 . S
C1536 C1533 1.526 . S
C1536 C1537 1.396 . S
C1536 C1541 1.390 . S
C1537 C1531 1.465 . S
C1537 C1536 1.396 . S
C1537 C1538 1.399 . S
C1538 H1524 0.929 . S
C1538 C1537 1.399 . S
C1538 C1539 1.385 . S
C1539 H1525 0.931 . S
C1539 C1538 1.385 . S
C1539 C1540 1.389 . S
C1540 C1539 1.389 . S
C1540 C1541 1.387 . S
C1541 H1526 0.930 . S
C1541 C1536 1.390 . S
C1541 C1540 1.387 . S
H1542 C1554 0.930 . S
H1543 C1556 0.930 . S
H1544 C1557 0.930 . S
H1545 C1561 0.959 . S
H1546 C1561 0.959 . S
H1547 C1561 0.961 . S
H1548 C1562 0.960 . S
H1549 C1562 0.961 . S
H1550 C1562 0.959 . S
H1551 C1565 0.929 . S
H1552 C1566 0.931 . S
H1553 C1568 0.930 . S
C1554 H1542 0.930 . S
C1554 C1555 1.399 . S
C1554 C1559 1.399 . S
C1555 C1554 1.399 . S
C1555 C1556 1.376 . S
C1556 H1543 0.930 . S
C1556 C1555 1.376 . S
C1556 C1557 1.388 . S
C1557 H1544 0.930 . S
C1557 C1556 1.388 . S
C1557 C1558 1.390 . S
C1558 C1557 1.390 . S
C1558 C1559 1.394 . S
C1558 C1564 1.465 . S
C1559 C1554 1.399 . S
C1559 C1558 1.394 . S
C1559 C1560 1.516 . S
C1560 C1559 1.516 . S
C1560 C1561 1.502 . S
C1560 C1562 1.561 . S
C1560 C1563 1.526 . S
C1561 H1545 0.959 . S
C1561 H1546 0.959 . S
C1561 H1547 0.961 . S
C1561 C1560 1.502 . S
C1562 H1548 0.960 . S
C1562 H1549 0.961 . S
C1562 H1550 0.959 . S
C1562 C1560 1.561 . S
C1563 C1560 1.526 . S
C1563 C1564 1.396 . S
C1563 C1568 1.390 . S
C1564 C1558 1.465 . S
C1564 C1563 1.396 . S
C1564 C1565 1.399 . S
C1565 H1551 0.929 . S
C1565 C1564 1.399 . S
C1565 C1566 1.385 . S
C1566 H1552 0.931 . S
C1566 C1565 1.385 . S
C1566 C1567 1.389 . S
C1567 C1566 1.389 . S
C1567 C1568 1.387 . S
C1568 H1553 0.930 . S
C1568 C1563 1.390 . S
C1568 C1567 1.387 . S
H1569 C1581 0.930 . S
H1570 C1583 0.930 . S
H1571 C1584 0.930 . S
H1572 C1588 0.959 . S
H1573 C1588 0.959 . S
H1574 C1588 0.961 . S
H1575 C1589 0.960 . S
H1576 C1589 0.961 . S
H1577 C1589 0.959 . S
H1578 C1592 0.929 . S
H1579 C1593 0.931 . S
H1580 C1595 0.930 . S
C1581 H1569 0.930 . S
C1581 C1582 1.399 . S
C1581 C1586 1.399 . S
C1582 C1581 1.399 . S
C1582 C1583 1.376 . S
C1583 H1570 0.930 . S
C1583 C1582 1.376 . S
C1583 C1584 1.388 . S
C1584 H1571 0.930 . S
C1584 C1583 1.388 . S
C1584 C1585 1.390 . S
C1585 C1584 1.390 . S
C1585 C1586 1.394 . S
C1585 C1591 1.465 . S
C1586 C1581 1.399 . S
C1586 C1585 1.394 . S
C1586 C1587 1.516 . S
C1587 C1586 1.516 . S
C1587 C1588 1.502 . S
C1587 C1589 1.561 . S
C1587 C1590 1.526 . S
C1588 H1572 0.959 . S
C1588 H1573 0.959 . S
C1588 H1574 0.961 . S
C1588 C1587 1.502 . S
C1589 H1575 0.960 . S
C1589 H1576 0.961 . S
C1589 H1577 0.959 . S
C1589 C1587 1.561 . S
C1590 C1587 1.526 . S
C1590 C1591 1.396 . S
C1590 C1595 1.390 . S
C1591 C1585 1.465 . S
C1591 C1590 1.396 . S
C1591 C1592 1.399 . S
C1592 H1578 0.929 . S
C1592 C1591 1.399 . S
C1592 C1593 1.385 . S
C1593 H1579 0.931 . S
C1593 C1592 1.385 . S
C1593 C1594 1.389 . S
C1594 C1593 1.389 . S
C1594 C1595 1.387 . S
C1595 H1580 0.930 . S
C1595 C1590 1.390 . S
C1595 C1594 1.387 . S
H1596 C1608 0.930 . S
H1597 C1610 0.930 . S
H1598 C1611 0.930 . S
H1599 C1615 0.959 . S
H1600 C1615 0.959 . S
H1601 C1615 0.961 . S
H1602 C1616 0.960 . S
H1603 C1616 0.961 . S
H1604 C1616 0.959 . S
H1605 C1619 0.929 . S
H1606 C1620 0.931 . S
H1607 C1622 0.930 . S
C1608 H1596 0.930 . S
C1608 C1609 1.399 . S
C1608 C1613 1.399 . S
C1609 C1608 1.399 . S
C1609 C1610 1.376 . S
C1610 H1597 0.930 . S
C1610 C1609 1.376 . S
C1610 C1611 1.388 . S
C1611 H1598 0.930 . S
C1611 C1610 1.388 . S
C1611 C1612 1.390 . S
C1612 C1611 1.390 . S
C1612 C1613 1.394 . S
C1612 C1618 1.465 . S
C1613 C1608 1.399 . S
C1613 C1612 1.394 . S
C1613 C1614 1.516 . S
C1614 C1613 1.516 . S
C1614 C1615 1.502 . S
C1614 C1616 1.561 . S
C1614 C1617 1.526 . S
C1615 H1599 0.959 . S
C1615 H1600 0.959 . S
C1615 H1601 0.961 . S
C1615 C1614 1.502 . S
C1616 H1602 0.960 . S
C1616 H1603 0.961 . S
C1616 H1604 0.959 . S
C1616 C1614 1.561 . S
C1617 C1614 1.526 . S
C1617 C1618 1.396 . S
C1617 C1622 1.390 . S
C1618 C1612 1.465 . S
C1618 C1617 1.396 . S
C1618 C1619 1.399 . S
C1619 H1605 0.929 . S
C1619 C1618 1.399 . S
C1619 C1620 1.385 . S
C1620 H1606 0.931 . S
C1620 C1619 1.385 . S
C1620 C1621 1.389 . S
C1621 C1620 1.389 . S
C1621 C1622 1.387 . S
C1622 H1607 0.930 . S
C1622 C1617 1.390 . S
C1622 C1621 1.387 . S
H1623 C1635 0.930 . S
H1624 C1637 0.930 . S
H1625 C1638 0.930 . S
H1626 C1642 0.959 . S
H1627 C1642 0.959 . S
H1628 C1642 0.961 . S
H1629 C1643 0.960 . S
H1630 C1643 0.961 . S
H1631 C1643 0.959 . S
H1632 C1646 0.929 . S
H1633 C1647 0.931 . S
H1634 C1649 0.930 . S
C1635 H1623 0.930 . S
C1635 C1636 1.399 . S
C1635 C1640 1.399 . S
C1636 C1635 1.399 . S
C1636 C1637 1.376 . S
C1637 H1624 0.930 . S
C1637 C1636 1.376 . S
C1637 C1638 1.388 . S
C1638 H1625 0.930 . S
C1638 C1637 1.388 . S
C1638 C1639 1.390 . S
C1639 C1638 1.390 . S
C1639 C1640 1.394 . S
C1639 C1645 1.465 . S
C1640 C1635 1.399 . S
C1640 C1639 1.394 . S
C1640 C1641 1.516 . S
C1641 C1640 1.516 . S
C1641 C1642 1.502 . S
C1641 C1643 1.561 . S
C1641 C1644 1.526 . S
C1642 H1626 0.959 . S
C1642 H1627 0.959 . S
C1642 H1628 0.961 . S
C1642 C1641 1.502 . S
C1643 H1629 0.960 . S
C1643 H1630 0.961 . S
C1643 H1631 0.959 . S
C1643 C1641 1.561 . S
C1644 C1641 1.526 . S
C1644 C1645 1.396 . S
C1644 C1649 1.390 . S
C1645 C1639 1.465 . S
C1645 C1644 1.396 . S
C1645 C1646 1.399 . S
C1646 H1632 0.929 . S
C1646 C1645 1.399 . S
C1646 C1647 1.385 . S
C1647 H1633 0.931 . S
C1647 C1646 1.385 . S
C1647 C1648 1.389 . S
C1648 C1647 1.389 . S
C1648 C1649 1.387 . S
C1649 H1634 0.930 . S
C1649 C1644 1.390 . S
C1649 C1648 1.387 . S
H1650 C1662 0.930 . S
H1651 C1664 0.930 . S
H1652 C1665 0.930 . S
H1653 C1669 0.959 . S
H1654 C1669 0.959 . S
H1655 C1669 0.961 . S
H1656 C1670 0.960 . S
H1657 C1670 0.961 . S
H1658 C1670 0.959 . S
H1659 C1673 0.929 . S
H1660 C1674 0.931 . S
H1661 C1676 0.930 . S
C1662 H1650 0.930 . S
C1662 C1663 1.399 . S
C1662 C1667 1.399 . S
C1663 C1662 1.399 . S
C1663 C1664 1.376 . S
C1664 H1651 0.930 . S
C1664 C1663 1.376 . S
C1664 C1665 1.388 . S
C1665 H1652 0.930 . S
C1665 C1664 1.388 . S
C1665 C1666 1.390 . S
C1666 C1665 1.390 . S
C1666 C1667 1.394 . S
C1666 C1672 1.465 . S
C1667 C1662 1.399 . S
C1667 C1666 1.394 . S
C1667 C1668 1.516 . S
C1668 C1667 1.516 . S
C1668 C1669 1.502 . S
C1668 C1670 1.561 . S
C1668 C1671 1.526 . S
C1669 H1653 0.959 . S
C1669 H1654 0.959 . S
C1669 H1655 0.961 . S
C1669 C1668 1.502 . S
C1670 H1656 0.960 . S
C1670 H1657 0.961 . S
C1670 H1658 0.959 . S
C1670 C1668 1.561 . S
C1671 C1668 1.526 . S
C1671 C1672 1.396 . S
C1671 C1676 1.390 . S
C1672 C1666 1.465 . S
C1672 C1671 1.396 . S
C1672 C1673 1.399 . S
C1673 H1659 0.929 . S
C1673 C1672 1.399 . S
C1673 C1674 1.385 . S
C1674 H1660 0.931 . S
C1674 C1673 1.385 . S
C1674 C1675 1.389 . S
C1675 C1674 1.389 . S
C1675 C1676 1.387 . S
C1676 H1661 0.930 . S
C1676 C1671 1.390 . S
C1676 C1675 1.387 . S
H1677 C1689 0.930 . S
H1678 C1691 0.930 . S
H1679 C1692 0.930 . S
H1680 C1696 0.959 . S
H1681 C1696 0.959 . S
H1682 C1696 0.961 . S
H1683 C1697 0.960 . S
H1684 C1697 0.961 . S
H1685 C1697 0.959 . S
H1686 C1700 0.929 . S
H1687 C1701 0.931 . S
H1688 C1703 0.930 . S
C1689 H1677 0.930 . S
C1689 C1690 1.399 . S
C1689 C1694 1.399 . S
C1690 C1689 1.399 . S
C1690 C1691 1.376 . S
C1691 H1678 0.930 . S
C1691 C1690 1.376 . S
C1691 C1692 1.388 . S
C1692 H1679 0.930 . S
C1692 C1691 1.388 . S
C1692 C1693 1.390 . S
C1693 C1692 1.390 . S
C1693 C1694 1.394 . S
C1693 C1699 1.465 . S
C1694 C1689 1.399 . S
C1694 C1693 1.394 . S
C1694 C1695 1.516 . S
C1695 C1694 1.516 . S
C1695 C1696 1.502 . S
C1695 C1697 1.561 . S
C1695 C1698 1.526 . S
C1696 H1680 0.959 . S
C1696 H1681 0.959 . S
C1696 H1682 0.961 . S
C1696 C1695 1.502 . S
C1697 H1683 0.960 . S
C1697 H1684 0.961 . S
C1697 H1685 0.959 . S
C1697 C1695 1.561 . S
C1698 C1695 1.526 . S
C1698 C1699 1.396 . S
C1698 C1703 1.390 . S
C1699 C1693 1.465 . S
C1699 C1698 1.396 . S
C1699 C1700 1.399 . S
C1700 H1686 0.929 . S
C1700 C1699 1.399 . S
C1700 C1701 1.385 . S
C1701 H1687 0.931 . S
C1701 C1700 1.385 . S
C1701 C1702 1.389 . S
C1702 C1701 1.389 . S
C1702 C1703 1.387 . S
C1703 H1688 0.930 . S
C1703 C1698 1.390 . S
C1703 C1702 1.387 . S
H1704 C1716 0.930 . S
H1705 C1718 0.930 . S
H1706 C1719 0.930 . S
H1707 C1723 0.959 . S
H1708 C1723 0.959 . S
H1709 C1723 0.961 . S
H1710 C1724 0.960 . S
H1711 C1724 0.961 . S
H1712 C1724 0.959 . S
H1713 C1727 0.929 . S
H1714 C1728 0.931 . S
H1715 C1730 0.930 . S
C1716 H1704 0.930 . S
C1716 C1717 1.399 . S
C1716 C1721 1.399 . S
C1717 C1716 1.399 . S
C1717 C1718 1.376 . S
C1718 H1705 0.930 . S
C1718 C1717 1.376 . S
C1718 C1719 1.388 . S
C1719 H1706 0.930 . S
C1719 C1718 1.388 . S
C1719 C1720 1.390 . S
C1720 C1719 1.390 . S
C1720 C1721 1.394 . S
C1720 C1726 1.465 . S
C1721 C1716 1.399 . S
C1721 C1720 1.394 . S
C1721 C1722 1.516 . S
C1722 C1721 1.516 . S
C1722 C1723 1.502 . S
C1722 C1724 1.561 . S
C1722 C1725 1.526 . S
C1723 H1707 0.959 . S
C1723 H1708 0.959 . S
C1723 H1709 0.961 . S
C1723 C1722 1.502 . S
C1724 H1710 0.960 . S
C1724 H1711 0.961 . S
C1724 H1712 0.959 . S
C1724 C1722 1.561 . S
C1725 C1722 1.526 . S
C1725 C1726 1.396 . S
C1725 C1730 1.390 . S
C1726 C1720 1.465 . S
C1726 C1725 1.396 . S
C1726 C1727 1.399 . S
C1727 H1713 0.929 . S
C1727 C1726 1.399 . S
C1727 C1728 1.385 . S
C1728 H1714 0.931 . S
C1728 C1727 1.385 . S
C1728 C1729 1.389 . S
C1729 C1728 1.389 . S
C1729 C1730 1.387 . S
C1730 H1715 0.930 . S
C1730 C1725 1.390 . S
C1730 C1729 1.387 . S
H1731 C1743 0.930 . S
H1732 C1745 0.930 . S
H1733 C1746 0.930 . S
H1734 C1750 0.959 . S
H1735 C1750 0.959 . S
H1736 C1750 0.961 . S
H1737 C1751 0.960 . S
H1738 C1751 0.961 . S
H1739 C1751 0.959 . S
H1740 C1754 0.929 . S
H1741 C1755 0.931 . S
H1742 C1757 0.930 . S
C1743 H1731 0.930 . S
C1743 C1744 1.399 . S
C1743 C1748 1.399 . S
C1744 C1743 1.399 . S
C1744 C1745 1.376 . S
C1745 H1732 0.930 . S
C1745 C1744 1.376 . S
C1745 C1746 1.388 . S
C1746 H1733 0.930 . S
C1746 C1745 1.388 . S
C1746 C1747 1.390 . S
C1747 C1746 1.390 . S
C1747 C1748 1.394 . S
C1747 C1753 1.465 . S
C1748 C1743 1.399 . S
C1748 C1747 1.394 . S
C1748 C1749 1.516 . S
C1749 C1748 1.516 . S
C1749 C1750 1.502 . S
C1749 C1751 1.561 . S
C1749 C1752 1.526 . S
C1750 H1734 0.959 . S
C1750 H1735 0.959 . S
C1750 H1736 0.961 . S
C1750 C1749 1.502 . S
C1751 H1737 0.960 . S
C1751 H1738 0.961 . S
C1751 H1739 0.959 . S
C1751 C1749 1.561 . S
C1752 C1749 1.526 . S
C1752 C1753 1.396 . S
C1752 C1757 1.390 . S
C1753 C1747 1.465 . S
C1753 C1752 1.396 . S
C1753 C1754 1.399 . S
C1754 H1740 0.929 . S
C1754 C1753 1.399 . S
C1754 C1755 1.385 . S
C1755 H1741 0.931 . S
C1755 C1754 1.385 . S
C1755 C1756 1.389 . S
C1756 C1755 1.389 . S
C1756 C1757 1.387 . S
C1757 H1742 0.930 . S
C1757 C1752 1.390 . S
C1757 C1756 1.387 . S
H1758 C1770 0.930 . S
H1759 C1772 0.930 . S
H1760 C1773 0.930 . S
H1761 C1777 0.959 . S
H1762 C1777 0.959 . S
H1763 C1777 0.961 . S
H1764 C1778 0.960 . S
H1765 C1778 0.961 . S
H1766 C1778 0.959 . S
H1767 C1781 0.929 . S
H1768 C1782 0.931 . S
H1769 C1784 0.930 . S
C1770 H1758 0.930 . S
C1770 C1771 1.399 . S
C1770 C1775 1.399 . S
C1771 C1770 1.399 . S
C1771 C1772 1.376 . S
C1772 H1759 0.930 . S
C1772 C1771 1.376 . S
C1772 C1773 1.388 . S
C1773 H1760 0.930 . S
C1773 C1772 1.388 . S
C1773 C1774 1.390 . S
C1774 C1773 1.390 . S
C1774 C1775 1.394 . S
C1774 C1780 1.465 . S
C1775 C1770 1.399 . S
C1775 C1774 1.394 . S
C1775 C1776 1.516 . S
C1776 C1775 1.516 . S
C1776 C1777 1.502 . S
C1776 C1778 1.561 . S
C1776 C1779 1.526 . S
C1777 H1761 0.959 . S
C1777 H1762 0.959 . S
C1777 H1763 0.961 . S
C1777 C1776 1.502 . S
C1778 H1764 0.960 . S
C1778 H1765 0.961 . S
C1778 H1766 0.959 . S
C1778 C1776 1.561 . S
C1779 C1776 1.526 . S
C1779 C1780 1.396 . S
C1779 C1784 1.390 . S
C1780 C1774 1.465 . S
C1780 C1779 1.396 . S
C1780 C1781 1.399 . S
C1781 H1767 0.929 . S
C1781 C1780 1.399 . S
C1781 C1782 1.385 . S
C1782 H1768 0.931 . S
C1782 C1781 1.385 . S
C1782 C1783 1.389 . S
C1783 C1782 1.389 . S
C1783 C1784 1.387 . S
C1784 H1769 0.930 . S
C1784 C1779 1.390 . S
C1784 C1783 1.387 . S
H1785 C1797 0.930 . S
H1786 C1799 0.930 . S
H1787 C1800 0.930 . S
H1788 C1804 0.959 . S
H1789 C1804 0.959 . S
H1790 C1804 0.961 . S
H1791 C1805 0.960 . S
H1792 C1805 0.961 . S
H1793 C1805 0.959 . S
H1794 C1808 0.929 . S
H1795 C1809 0.931 . S
H1796 C1811 0.930 . S
C1797 H1785 0.930 . S
C1797 C1798 1.399 . S
C1797 C1802 1.399 . S
C1798 C1797 1.399 . S
C1798 C1799 1.376 . S
C1799 H1786 0.930 . S
C1799 C1798 1.376 . S
C1799 C1800 1.388 . S
C1800 H1787 0.930 . S
C1800 C1799 1.388 . S
C1800 C1801 1.390 . S
C1801 C1800 1.390 . S
C1801 C1802 1.394 . S
C1801 C1807 1.465 . S
C1802 C1797 1.399 . S
C1802 C1801 1.394 . S
C1802 C1803 1.516 . S
C1803 C1802 1.516 . S
C1803 C1804 1.502 . S
C1803 C1805 1.561 . S
C1803 C1806 1.526 . S
C1804 H1788 0.959 . S
C1804 H1789 0.959 . S
C1804 H1790 0.961 . S
C1804 C1803 1.502 . S
C1805 H1791 0.960 . S
C1805 H1792 0.961 . S
C1805 H1793 0.959 . S
C1805 C1803 1.561 . S
C1806 C1803 1.526 . S
C1806 C1807 1.396 . S
C1806 C1811 1.390 . S
C1807 C1801 1.465 . S
C1807 C1806 1.396 . S
C1807 C1808 1.399 . S
C1808 H1794 0.929 . S
C1808 C1807 1.399 . S
C1808 C1809 1.385 . S
C1809 H1795 0.931 . S
C1809 C1808 1.385 . S
C1809 C1810 1.389 . S
C1810 C1809 1.389 . S
C1810 C1811 1.387 . S
C1811 H1796 0.930 . S
C1811 C1806 1.390 . S
C1811 C1810 1.387 . S
H1812 C1824 0.930 . S
H1813 C1826 0.930 . S
H1814 C1827 0.930 . S
H1815 C1831 0.959 . S
H1816 C1831 0.959 . S
H1817 C1831 0.961 . S
H1818 C1832 0.960 . S
H1819 C1832 0.961 . S
H1820 C1832 0.959 . S
H1821 C1835 0.929 . S
H1822 C1836 0.931 . S
H1823 C1838 0.930 . S
C1824 H1812 0.930 . S
C1824 C1825 1.399 . S
C1824 C1829 1.399 . S
C1825 C1824 1.399 . S
C1825 C1826 1.376 . S
C1826 H1813 0.930 . S
C1826 C1825 1.376 . S
C1826 C1827 1.388 . S
C1827 H1814 0.930 . S
C1827 C1826 1.388 . S
C1827 C1828 1.390 . S
C1828 C1827 1.390 . S
C1828 C1829 1.394 . S
C1828 C1834 1.465 . S
C1829 C1824 1.399 . S
C1829 C1828 1.394 . S
C1829 C1830 1.516 . S
C1830 C1829 1.516 . S
C1830 C1831 1.502 . S
C1830 C1832 1.561 . S
C1830 C1833 1.526 . S
C1831 H1815 0.959 . S
C1831 H1816 0.959 . S
C1831 H1817 0.961 . S
C1831 C1830 1.502 . S
C1832 H1818 0.960 . S
C1832 H1819 0.961 . S
C1832 H1820 0.959 . S
C1832 C1830 1.561 . S
C1833 C1830 1.526 . S
C1833 C1834 1.396 . S
C1833 C1838 1.390 . S
C1834 C1828 1.465 . S
C1834 C1833 1.396 . S
C1834 C1835 1.399 . S
C1835 H1821 0.929 . S
C1835 C1834 1.399 . S
C1835 C1836 1.385 . S
C1836 H1822 0.931 . S
C1836 C1835 1.385 . S
C1836 C1837 1.389 . S
C1837 C1836 1.389 . S
C1837 C1838 1.387 . S
C1838 H1823 0.930 . S
C1838 C1833 1.390 . S
C1838 C1837 1.387 . S
H1839 C1851 0.930 . S
H1840 C1853 0.930 . S
H1841 C1854 0.930 . S
H1842 C1858 0.959 . S
H1843 C1858 0.959 . S
H1844 C1858 0.961 . S
H1845 C1859 0.960 . S
H1846 C1859 0.961 . S
H1847 C1859 0.959 . S
H1848 C1862 0.929 . S
H1849 C1863 0.931 . S
H1850 C1865 0.930 . S
C1851 H1839 0.930 . S
C1851 C1852 1.399 . S
C1851 C1856 1.399 . S
C1852 C1851 1.399 . S
C1852 C1853 1.376 . S
C1853 H1840 0.930 . S
C1853 C1852 1.376 . S
C1853 C1854 1.388 . S
C1854 H1841 0.930 . S
C1854 C1853 1.388 . S
C1854 C1855 1.390 . S
C1855 C1854 1.390 . S
C1855 C1856 1.394 . S
C1855 C1861 1.465 . S
C1856 C1851 1.399 . S
C1856 C1855 1.394 . S
C1856 C1857 1.516 . S
C1857 C1856 1.516 . S
C1857 C1858 1.502 . S
C1857 C1859 1.561 . S
C1857 C1860 1.526 . S
C1858 H1842 0.959 . S
C1858 H1843 0.959 . S
C1858 H1844 0.961 . S
C1858 C1857 1.502 . S
C1859 H1845 0.960 . S
C1859 H1846 0.961 . S
C1859 H1847 0.959 . S
C1859 C1857 1.561 . S
C1860 C1857 1.526 . S
C1860 C1861 1.396 . S
C1860 C1865 1.390 . S
C1861 C1855 1.465 . S
C1861 C1860 1.396 . S
C1861 C1862 1.399 . S
C1862 H1848 0.929 . S
C1862 C1861 1.399 . S
C1862 C1863 1.385 . S
C1863 H1849 0.931 . S
C1863 C1862 1.385 . S
C1863 C1864 1.389 . S
C1864 C1863 1.389 . S
C1864 C1865 1.387 . S
C1865 H1850 0.930 . S
C1865 C1860 1.390 . S
C1865 C1864 1.387 . S
H1866 C1878 0.930 . S
H1867 C1880 0.930 . S
H1868 C1881 0.930 . S
H1869 C1885 0.959 . S
H1870 C1885 0.959 . S
H1871 C1885 0.961 . S
H1872 C1886 0.960 . S
H1873 C1886 0.961 . S
H1874 C1886 0.959 . S
H1875 C1889 0.929 . S
H1876 C1890 0.931 . S
H1877 C1892 0.930 . S
C1878 H1866 0.930 . S
C1878 C1879 1.399 . S
C1878 C1883 1.399 . S
C1879 C1878 1.399 . S
C1879 C1880 1.376 . S
C1880 H1867 0.930 . S
C1880 C1879 1.376 . S
C1880 C1881 1.388 . S
C1881 H1868 0.930 . S
C1881 C1880 1.388 . S
C1881 C1882 1.390 . S
C1882 C1881 1.390 . S
C1882 C1883 1.394 . S
C1882 C1888 1.465 . S
C1883 C1878 1.399 . S
C1883 C1882 1.394 . S
C1883 C1884 1.516 . S
C1884 C1883 1.516 . S
C1884 C1885 1.502 . S
C1884 C1886 1.561 . S
C1884 C1887 1.526 . S
C1885 H1869 0.959 . S
C1885 H1870 0.959 . S
C1885 H1871 0.961 . S
C1885 C1884 1.502 . S
C1886 H1872 0.960 . S
C1886 H1873 0.961 . S
C1886 H1874 0.959 . S
C1886 C1884 1.561 . S
C1887 C1884 1.526 . S
C1887 C1888 1.396 . S
C1887 C1892 1.390 . S
C1888 C1882 1.465 . S
C1888 C1887 1.396 . S
C1888 C1889 1.399 . S
C1889 H1875 0.929 . S
C1889 C1888 1.399 . S
C1889 C1890 1.385 . S
C1890 H1876 0.931 . S
C1890 C1889 1.385 . S
C1890 C1891 1.389 . S
C1891 C1890 1.389 . S
C1891 C1892 1.387 . S
C1892 H1877 0.930 . S
C1892 C1887 1.390 . S
C1892 C1891 1.387 . S
H1893 C1905 0.930 . S
H1894 C1907 0.930 . S
H1895 C1908 0.930 . S
H1896 C1912 0.959 . S
H1897 C1912 0.959 . S
H1898 C1912 0.961 . S
H1899 C1913 0.960 . S
H1900 C1913 0.961 . S
H1901 C1913 0.959 . S
H1902 C1916 0.929 . S
H1903 C1917 0.931 . S
H1904 C1919 0.930 . S
C1905 H1893 0.930 . S
C1905 C1906 1.399 . S
C1905 C1910 1.399 . S
C1906 C1905 1.399 . S
C1906 C1907 1.376 . S
C1907 H1894 0.930 . S
C1907 C1906 1.376 . S
C1907 C1908 1.388 . S
C1908 H1895 0.930 . S
C1908 C1907 1.388 . S
C1908 C1909 1.390 . S
C1909 C1908 1.390 . S
C1909 C1910 1.394 . S
C1909 C1915 1.465 . S
C1910 C1905 1.399 . S
C1910 C1909 1.394 . S
C1910 C1911 1.516 . S
C1911 C1910 1.516 . S
C1911 C1912 1.502 . S
C1911 C1913 1.561 . S
C1911 C1914 1.526 . S
C1912 H1896 0.959 . S
C1912 H1897 0.959 . S
C1912 H1898 0.961 . S
C1912 C1911 1.502 . S
C1913 H1899 0.960 . S
C1913 H1900 0.961 . S
C1913 H1901 0.959 . S
C1913 C1911 1.561 . S
C1914 C1911 1.526 . S
C1914 C1915 1.396 . S
C1914 C1919 1.390 . S
C1915 C1909 1.465 . S
C1915 C1914 1.396 . S
C1915 C1916 1.399 . S
C1916 H1902 0.929 . S
C1916 C1915 1.399 . S
C1916 C1917 1.385 . S
C1917 H1903 0.931 . S
C1917 C1916 1.385 . S
C1917 C1918 1.389 . S
C1918 C1917 1.389 . S
C1918 C1919 1.387 . S
C1919 H1904 0.930 . S
C1919 C1914 1.390 . S
C1919 C1918 1.387 . S
H1920 C1932 0.930 . S
H1921 C1934 0.930 . S
H1922 C1935 0.930 . S
H1923 C1939 0.959 . S
H1924 C1939 0.959 . S
H1925 C1939 0.961 . S
H1926 C1940 0.960 . S
H1927 C1940 0.961 . S
H1928 C1940 0.959 . S
H1929 C1943 0.929 . S
H1930 C1944 0.931 . S
H1931 C1946 0.930 . S
C1932 H1920 0.930 . S
C1932 C1933 1.399 . S
C1932 C1937 1.399 . S
C1933 C1932 1.399 . S
C1933 C1934 1.376 . S
C1934 H1921 0.930 . S
C1934 C1933 1.376 . S
C1934 C1935 1.388 . S
C1935 H1922 0.930 . S
C1935 C1934 1.388 . S
C1935 C1936 1.390 . S
C1936 C1935 1.390 . S
C1936 C1937 1.394 . S
C1936 C1942 1.465 . S
C1937 C1932 1.399 . S
C1937 C1936 1.394 . S
C1937 C1938 1.516 . S
C1938 C1937 1.516 . S
C1938 C1939 1.502 . S
C1938 C1940 1.561 . S
C1938 C1941 1.526 . S
C1939 H1923 0.959 . S
C1939 H1924 0.959 . S
C1939 H1925 0.961 . S
C1939 C1938 1.502 . S
C1940 H1926 0.960 . S
C1940 H1927 0.961 . S
C1940 H1928 0.959 . S
C1940 C1938 1.561 . S
C1941 C1938 1.526 . S
C1941 C1942 1.396 . S
C1941 C1946 1.390 . S
C1942 C1936 1.465 . S
C1942 C1941 1.396 . S
C1942 C1943 1.399 . S
C1943 H1929 0.929 . S
C1943 C1942 1.399 . S
C1943 C1944 1.385 . S
C1944 H1930 0.931 . S
C1944 C1943 1.385 . S
C1944 C1945 1.389 . S
C1945 C1944 1.389 . S
C1945 C1946 1.387 . S
C1946 H1931 0.930 . S
C1946 C1941 1.390 . S
C1946 C1945 1.387 . S
H1947 C1959 0.930 . S
H1948 C1961 0.930 . S
H1949 C1962 0.930 . S
H1950 C1966 0.959 . S
H1951 C1966 0.959 . S
H1952 C1966 0.961 . S
H1953 C1967 0.960 . S
H1954 C1967 0.961 . S
H1955 C1967 0.959 . S
H1956 C1970 0.929 . S
H1957 C1971 0.931 . S
H1958 C1973 0.930 . S
C1959 H1947 0.930 . S
C1959 C1960 1.399 . S
C1959 C1964 1.399 . S
C1960 C1959 1.399 . S
C1960 C1961 1.376 . S
C1961 H1948 0.930 . S
C1961 C1960 1.376 . S
C1961 C1962 1.388 . S
C1962 H1949 0.930 . S
C1962 C1961 1.388 . S
C1962 C1963 1.390 . S
C1963 C1962 1.390 . S
C1963 C1964 1.394 . S
C1963 C1969 1.465 . S
C1964 C1959 1.399 . S
C1964 C1963 1.394 . S
C1964 C1965 1.516 . S
C1965 C1964 1.516 . S
C1965 C1966 1.502 . S
C1965 C1967 1.561 . S
C1965 C1968 1.526 . S
C1966 H1950 0.959 . S
C1966 H1951 0.959 . S
C1966 H1952 0.961 . S
C1966 C1965 1.502 . S
C1967 H1953 0.960 . S
C1967 H1954 0.961 . S
C1967 H1955 0.959 . S
C1967 C1965 1.561 . S
C1968 C1965 1.526 . S
C1968 C1969 1.396 . S
C1968 C1973 1.390 . S
C1969 C1963 1.465 . S
C1969 C1968 1.396 . S
C1969 C1970 1.399 . S
C1970 H1956 0.929 . S
C1970 C1969 1.399 . S
C1970 C1971 1.385 . S
C1971 H1957 0.931 . S
C1971 C1970 1.385 . S
C1971 C1972 1.389 . S
C1972 C1971 1.389 . S
C1972 C1973 1.387 . S
C1973 H1958 0.930 . S
C1973 C1968 1.390 . S
C1973 C1972 1.387 . S
H1974 C1986 0.930 . S
H1975 C1988 0.930 . S
H1976 C1989 0.930 . S
H1977 C1993 0.959 . S
H1978 C1993 0.959 . S
H1979 C1993 0.961 . S
H1980 C1994 0.960 . S
H1981 C1994 0.961 . S
H1982 C1994 0.959 . S
H1983 C1997 0.929 . S
H1984 C1998 0.931 . S
H1985 C2000 0.930 . S
C1986 H1974 0.930 . S
C1986 C1987 1.399 . S
C1986 C1991 1.399 . S
C1987 C1986 1.399 . S
C1987 C1988 1.376 . S
C1988 H1975 0.930 . S
C1988 C1987 1.376 . S
C1988 C1989 1.388 . S
C1989 H1976 0.930 . S
C1989 C1988 1.388 . S
C1989 C1990 1.390 . S
C1990 C1989 1.390 . S
C1990 C1991 1.394 . S
C1990 C1996 1.465 . S
C1991 C1986 1.399 . S
C1991 C1990 1.394 . S
C1991 C1992 1.516 . S
C1992 C1991 1.516 . S
C1992 C1993 1.502 . S
C1992 C1994 1.561 . S
C1992 C1995 1.526 . S
C1993 H1977 0.959 . S
C1993 H1978 0.959 . S
C1993 H1979 0.961 . S
C1993 C1992 1.502 . S
C1994 H1980 0.960 . S
C1994 H1981 0.961 . S
C1994 H1982 0.959 . S
C1994 C1992 1.561 . S
C1995 C1992 1.526 . S
C1995 C1996 1.396 . S
C1995 C2000 1.390 . S
C1996 C1990 1.465 . S
C1996 C1995 1.396 . S
C1996 C1997 1.399 . S
C1997 H1983 0.929 . S
C1997 C1996 1.399 . S
C1997 C1998 1.385 . S
C1998 H1984 0.931 . S
C1998 C1997 1.385 . S
C1998 C1999 1.389 . S
C1999 C1998 1.389 . S
C1999 C2000 1.387 . S
C2000 H1985 0.930 . S
C2000 C1995 1.390 . S
C2000 C1999 1.387 . S
H2001 C2013 0.930 . S
H2002 C2015 0.930 . S
H2003 C2016 0.930 . S
H2004 C2020 0.959 . S
H2005 C2020 0.959 . S
H2006 C2020 0.961 . S
H2007 C2021 0.960 . S
H2008 C2021 0.961 . S
H2009 C2021 0.959 . S
H2010 C2024 0.929 . S
H2011 C2025 0.931 . S
H2012 C2027 0.930 . S
C2013 H2001 0.930 . S
C2013 C2014 1.399 . S
C2013 C2018 1.399 . S
C2014 C2013 1.399 . S
C2014 C2015 1.376 . S
C2015 H2002 0.930 . S
C2015 C2014 1.376 . S
C2015 C2016 1.388 . S
C2016 H2003 0.930 . S
C2016 C2015 1.388 . S
C2016 C2017 1.390 . S
C2017 C2016 1.390 . S
C2017 C2018 1.394 . S
C2017 C2023 1.465 . S
C2018 C2013 1.399 . S
C2018 C2017 1.394 . S
C2018 C2019 1.516 . S
C2019 C2018 1.516 . S
C2019 C2020 1.502 . S
C2019 C2021 1.561 . S
C2019 C2022 1.526 . S
C2020 H2004 0.959 . S
C2020 H2005 0.959 . S
C2020 H2006 0.961 . S
C2020 C2019 1.502 . S
C2021 H2007 0.960 . S
C2021 H2008 0.961 . S
C2021 H2009 0.959 . S
C2021 C2019 1.561 . S
C2022 C2019 1.526 . S
C2022 C2023 1.396 . S
C2022 C2027 1.390 . S
C2023 C2017 1.465 . S
C2023 C2022 1.396 . S
C2023 C2024 1.399 . S
C2024 H2010 0.929 . S
C2024 C2023 1.399 . S
C2024 C2025 1.385 . S
C2025 H2011 0.931 . S
C2025 C2024 1.385 . S
C2025 C2026 1.389 . S
C2026 C2025 1.389 . S
C2026 C2027 1.387 . S
C2027 H2012 0.930 . S
C2027 C2022 1.390 . S
C2027 C2026 1.387 . S
H2028 C2040 0.930 . S
H2029 C2042 0.930 . S
H2030 C2043 0.930 . S
H2031 C2047 0.959 . S
H2032 C2047 0.959 . S
H2033 C2047 0.961 . S
H2034 C2048 0.960 . S
H2035 C2048 0.961 . S
H2036 C2048 0.959 . S
H2037 C2051 0.929 . S
H2038 C2052 0.931 . S
H2039 C2054 0.930 . S
C2040 H2028 0.930 . S
C2040 C2041 1.399 . S
C2040 C2045 1.399 . S
C2041 C2040 1.399 . S
C2041 C2042 1.376 . S
C2042 H2029 0.930 . S
C2042 C2041 1.376 . S
C2042 C2043 1.388 . S
C2043 H2030 0.930 . S
C2043 C2042 1.388 . S
C2043 C2044 1.390 . S
C2044 C2043 1.390 . S
C2044 C2045 1.394 . S
C2044 C2050 1.465 . S
C2045 C2040 1.399 . S
C2045 C2044 1.394 . S
C2045 C2046 1.516 . S
C2046 C2045 1.516 . S
C2046 C2047 1.502 . S
C2046 C2048 1.561 . S
C2046 C2049 1.526 . S
C2047 H2031 0.959 . S
C2047 H2032 0.959 . S
C2047 H2033 0.961 . S
C2047 C2046 1.502 . S
C2048 H2034 0.960 . S
C2048 H2035 0.961 . S
C2048 H2036 0.959 . S
C2048 C2046 1.561 . S
C2049 C2046 1.526 . S
C2049 C2050 1.396 . S
C2049 C2054 1.390 . S
C2050 C2044 1.465 . S
C2050 C2049 1.396 . S
C2050 C2051 1.399 . S
C2051 H2037 0.929 . S
C2051 C2050 1.399 . S
C2051 C2052 1.385 . S
C2052 H2038 0.931 . S
C2052 C2051 1.385 . S
C2052 C2053 1.389 . S
C2053 C2052 1.389 . S
C2053 C2054 1.387 . S
C2054 H2039 0.930 . S
C2054 C2049 1.390 . S
C2054 C2053 1.387 . S
H2055 C2067 0.930 . S
H2056 C2069 0.930 . S
H2057 C2070 0.930 . S
H2058 C2074 0.959 . S
H2059 C2074 0.959 . S
H2060 C2074 0.961 . S
H2061 C2075 0.960 . S
H2062 C2075 0.961 . S
H2063 C2075 0.959 . S
H2064 C2078 0.929 . S
H2065 C2079 0.931 . S
H2066 C2081 0.930 . S
C2067 H2055 0.930 . S
C2067 C2068 1.399 . S
C2067 C2072 1.399 . S
C2068 C2067 1.399 . S
C2068 C2069 1.376 . S
C2069 H2056 0.930 . S
C2069 C2068 1.376 . S
C2069 C2070 1.388 . S
C2070 H2057 0.930 . S
C2070 C2069 1.388 . S
C2070 C2071 1.390 . S
C2071 C2070 1.390 . S
C2071 C2072 1.394 . S
C2071 C2077 1.465 . S
C2072 C2067 1.399 . S
C2072 C2071 1.394 . S
C2072 C2073 1.516 . S
C2073 C2072 1.516 . S
C2073 C2074 1.502 . S
C2073 C2075 1.561 . S
C2073 C2076 1.526 . S
C2074 H2058 0.959 . S
C2074 H2059 0.959 . S
C2074 H2060 0.961 . S
C2074 C2073 1.502 . S
C2075 H2061 0.960 . S
C2075 H2062 0.961 . S
C2075 H2063 0.959 . S
C2075 C2073 1.561 . S
C2076 C2073 1.526 . S
C2076 C2077 1.396 . S
C2076 C2081 1.390 . S
C2077 C2071 1.465 . S
C2077 C2076 1.396 . S
C2077 C2078 1.399 . S
C2078 H2064 0.929 . S
C2078 C2077 1.399 . S
C2078 C2079 1.385 . S
C2079 H2065 0.931 . S
C2079 C2078 1.385 . S
C2079 C2080 1.389 . S
C2080 C2079 1.389 . S
C2080 C2081 1.387 . S
C2081 H2066 0.930 . S
C2081 C2076 1.390 . S
C2081 C2080 1.387 . S
H2082 C2094 0.930 . S
H2083 C2096 0.930 . S
H2084 C2097 0.930 . S
H2085 C2101 0.959 . S
H2086 C2101 0.959 . S
H2087 C2101 0.961 . S
H2088 C2102 0.960 . S
H2089 C2102 0.961 . S
H2090 C2102 0.959 . S
H2091 C2105 0.929 . S
H2092 C2106 0.931 . S
H2093 C2108 0.930 . S
C2094 H2082 0.930 . S
C2094 C2095 1.399 . S
C2094 C2099 1.399 . S
C2095 C2094 1.399 . S
C2095 C2096 1.376 . S
C2096 H2083 0.930 . S
C2096 C2095 1.376 . S
C2096 C2097 1.388 . S
C2097 H2084 0.930 . S
C2097 C2096 1.388 . S
C2097 C2098 1.390 . S
C2098 C2097 1.390 . S
C2098 C2099 1.394 . S
C2098 C2104 1.465 . S
C2099 C2094 1.399 . S
C2099 C2098 1.394 . S
C2099 C2100 1.516 . S
C2100 C2099 1.516 . S
C2100 C2101 1.502 . S
C2100 C2102 1.561 . S
C2100 C2103 1.526 . S
C2101 H2085 0.959 . S
C2101 H2086 0.959 . S
C2101 H2087 0.961 . S
C2101 C2100 1.502 . S
C2102 H2088 0.960 . S
C2102 H2089 0.961 . S
C2102 H2090 0.959 . S
C2102 C2100 1.561 . S
C2103 C2100 1.526 . S
C2103 C2104 1.396 . S
C2103 C2108 1.390 . S
C2104 C2098 1.465 . S
C2104 C2103 1.396 . S
C2104 C2105 1.399 . S
C2105 H2091 0.929 . S
C2105 C2104 1.399 . S
C2105 C2106 1.385 . S
C2106 H2092 0.931 . S
C2106 C2105 1.385 . S
C2106 C2107 1.389 . S
C2107 C2106 1.389 . S
C2107 C2108 1.387 . S
C2108 H2093 0.930 . S
C2108 C2103 1.390 . S
C2108 C2107 1.387 . S
H2109 C2121 0.930 . S
H2110 C2123 0.930 . S
H2111 C2124 0.930 . S
H2112 C2128 0.959 . S
H2113 C2128 0.959 . S
H2114 C2128 0.961 . S
H2115 C2129 0.960 . S
H2116 C2129 0.961 . S
H2117 C2129 0.959 . S
H2118 C2132 0.929 . S
H2119 C2133 0.931 . S
H2120 C2135 0.930 . S
C2121 H2109 0.930 . S
C2121 C2122 1.399 . S
C2121 C2126 1.399 . S
C2122 C2121 1.399 . S
C2122 C2123 1.376 . S
C2123 H2110 0.930 . S
C2123 C2122 1.376 . S
C2123 C2124 1.388 . S
C2124 H2111 0.930 . S
C2124 C2123 1.388 . S
C2124 C2125 1.390 . S
C2125 C2124 1.390 . S
C2125 C2126 1.394 . S
C2125 C2131 1.465 . S
C2126 C2121 1.399 . S
C2126 C2125 1.394 . S
C2126 C2127 1.516 . S
C2127 C2126 1.516 . S
C2127 C2128 1.502 . S
C2127 C2129 1.561 . S
C2127 C2130 1.526 . S
C2128 H2112 0.959 . S
C2128 H2113 0.959 . S
C2128 H2114 0.961 . S
C2128 C2127 1.502 . S
C2129 H2115 0.960 . S
C2129 H2116 0.961 . S
C2129 H2117 0.959 . S
C2129 C2127 1.561 . S
C2130 C2127 1.526 . S
C2130 C2131 1.396 . S
C2130 C2135 1.390 . S
C2131 C2125 1.465 . S
C2131 C2130 1.396 . S
C2131 C2132 1.399 . S
C2132 H2118 0.929 . S
C2132 C2131 1.399 . S
C2132 C2133 1.385 . S
C2133 H2119 0.931 . S
C2133 C2132 1.385 . S
C2133 C2134 1.389 . S
C2134 C2133 1.389 . S
C2134 C2135 1.387 . S
C2135 H2120 0.930 . S
C2135 C2130 1.390 . S
C2135 C2134 1.387 . S
H2136 C2148 0.930 . S
H2137 C2150 0.930 . S
H2138 C2151 0.930 . S
H2139 C2155 0.959 . S
H2140 C2155 0.959 . S
H2141 C2155 0.961 . S
H2142 C2156 0.960 . S
H2143 C2156 0.961 . S
H2144 C2156 0.959 . S
H2145 C2159 0.929 . S
H2146 C2160 0.931 . S
H2147 C2162 0.930 . S
C2148 H2136 0.930 . S
C2148 C2149 1.399 . S
C2148 C2153 1.399 . S
C2149 C2148 1.399 . S
C2149 C2150 1.376 . S
C2150 H2137 0.930 . S
C2150 C2149 1.376 . S
C2150 C2151 1.388 . S
C2151 H2138 0.930 . S
C2151 C2150 1.388 . S
C2151 C2152 1.390 . S
C2152 C2151 1.390 . S
C2152 C2153 1.394 . S
C2152 C2158 1.465 . S
C2153 C2148 1.399 . S
C2153 C2152 1.394 . S
C2153 C2154 1.516 . S
C2154 C2153 1.516 . S
C2154 C2155 1.502 . S
C2154 C2156 1.561 . S
C2154 C2157 1.526 . S
C2155 H2139 0.959 . S
C2155 H2140 0.959 . S
C2155 H2141 0.961 . S
C2155 C2154 1.502 . S
C2156 H2142 0.960 . S
C2156 H2143 0.961 . S
C2156 H2144 0.959 . S
C2156 C2154 1.561 . S
C2157 C2154 1.526 . S
C2157 C2158 1.396 . S
C2157 C2162 1.390 . S
C2158 C2152 1.465 . S
C2158 C2157 1.396 . S
C2158 C2159 1.399 . S
C2159 H2145 0.929 . S
C2159 C2158 1.399 . S
C2159 C2160 1.385 . S
C2160 H2146 0.931 . S
C2160 C2159 1.385 . S
C2160 C2161 1.389 . S
C2161 C2160 1.389 . S
C2161 C2162 1.387 . S
C2162 H2147 0.930 . S
C2162 C2157 1.390 . S
C2162 C2161 1.387 . S
H2163 C2175 0.930 . S
H2164 C2177 0.930 . S
H2165 C2178 0.930 . S
H2166 C2182 0.959 . S
H2167 C2182 0.959 . S
H2168 C2182 0.961 . S
H2169 C2183 0.960 . S
H2170 C2183 0.961 . S
H2171 C2183 0.959 . S
H2172 C2186 0.929 . S
H2173 C2187 0.931 . S
H2174 C2189 0.930 . S
C2175 H2163 0.930 . S
C2175 C2176 1.399 . S
C2175 C2180 1.399 . S
C2176 C2175 1.399 . S
C2176 C2177 1.376 . S
C2177 H2164 0.930 . S
C2177 C2176 1.376 . S
C2177 C2178 1.388 . S
C2178 H2165 0.930 . S
C2178 C2177 1.388 . S
C2178 C2179 1.390 . S
C2179 C2178 1.390 . S
C2179 C2180 1.394 . S
C2179 C2185 1.465 . S
C2180 C2175 1.399 . S
C2180 C2179 1.394 . S
C2180 C2181 1.516 . S
C2181 C2180 1.516 . S
C2181 C2182 1.502 . S
C2181 C2183 1.561 . S
C2181 C2184 1.526 . S
C2182 H2166 0.959 . S
C2182 H2167 0.959 . S
C2182 H2168 0.961 . S
C2182 C2181 1.502 . S
C2183 H2169 0.960 . S
C2183 H2170 0.961 . S
C2183 H2171 0.959 . S
C2183 C2181 1.561 . S
C2184 C2181 1.526 . S
C2184 C2185 1.396 . S
C2184 C2189 1.390 . S
C2185 C2179 1.465 . S
C2185 C2184 1.396 . S
C2185 C2186 1.399 . S
C2186 H2172 0.929 . S
C2186 C2185 1.399 . S
C2186 C2187 1.385 . S
C2187 H2173 0.931 . S
C2187 C2186 1.385 . S
C2187 C2188 1.389 . S
C2188 C2187 1.389 . S
C2188 C2189 1.387 . S
C2189 H2174 0.930 . S
C2189 C2184 1.390 . S
C2189 C2188 1.387 . S
H2190 C2202 0.930 . S
H2191 C2204 0.930 . S
H2192 C2205 0.930 . S
H2193 C2209 0.959 . S
H2194 C2209 0.959 . S
H2195 C2209 0.961 . S
H2196 C2210 0.960 . S
H2197 C2210 0.961 . S
H2198 C2210 0.959 . S
H2199 C2213 0.929 . S
H2200 C2214 0.931 . S
H2201 C2216 0.930 . S
C2202 H2190 0.930 . S
C2202 C2203 1.399 . S
C2202 C2207 1.399 . S
C2203 C2202 1.399 . S
C2203 C2204 1.376 . S
C2204 H2191 0.930 . S
C2204 C2203 1.376 . S
C2204 C2205 1.388 . S
C2205 H2192 0.930 . S
C2205 C2204 1.388 . S
C2205 C2206 1.390 . S
C2206 C2205 1.390 . S
C2206 C2207 1.394 . S
C2206 C2212 1.465 . S
C2207 C2202 1.399 . S
C2207 C2206 1.394 . S
C2207 C2208 1.516 . S
C2208 C2207 1.516 . S
C2208 C2209 1.502 . S
C2208 C2210 1.561 . S
C2208 C2211 1.526 . S
C2209 H2193 0.959 . S
C2209 H2194 0.959 . S
C2209 H2195 0.961 . S
C2209 C2208 1.502 . S
C2210 H2196 0.960 . S
C2210 H2197 0.961 . S
C2210 H2198 0.959 . S
C2210 C2208 1.561 . S
C2211 C2208 1.526 . S
C2211 C2212 1.396 . S
C2211 C2216 1.390 . S
C2212 C2206 1.465 . S
C2212 C2211 1.396 . S
C2212 C2213 1.399 . S
C2213 H2199 0.929 . S
C2213 C2212 1.399 . S
C2213 C2214 1.385 . S
C2214 H2200 0.931 . S
C2214 C2213 1.385 . S
C2214 C2215 1.389 . S
C2215 C2214 1.389 . S
C2215 C2216 1.387 . S
C2216 H2201 0.930 . S
C2216 C2211 1.390 . S
C2216 C2215 1.387 . S
H2217 C2229 0.930 . S
H2218 C2231 0.930 . S
H2219 C2232 0.930 . S
H2220 C2236 0.959 . S
H2221 C2236 0.959 . S
H2222 C2236 0.961 . S
H2223 C2237 0.960 . S
H2224 C2237 0.961 . S
H2225 C2237 0.959 . S
H2226 C2240 0.929 . S
H2227 C2241 0.931 . S
H2228 C2243 0.930 . S
C2229 H2217 0.930 . S
C2229 C2230 1.399 . S
C2229 C2234 1.399 . S
C2230 C2229 1.399 . S
C2230 C2231 1.376 . S
C2231 H2218 0.930 . S
C2231 C2230 1.376 . S
C2231 C2232 1.388 . S
C2232 H2219 0.930 . S
C2232 C2231 1.388 . S
C2232 C2233 1.390 . S
C2233 C2232 1.390 . S
C2233 C2234 1.394 . S
C2233 C2239 1.465 . S
C2234 C2229 1.399 . S
C2234 C2233 1.394 . S
C2234 C2235 1.516 . S
C2235 C2234 1.516 . S
C2235 C2236 1.502 . S
C2235 C2237 1.561 . S
C2235 C2238 1.526 . S
C2236 H2220 0.959 . S
C2236 H2221 0.959 . S
C2236 H2222 0.961 . S
C2236 C2235 1.502 . S
C2237 H2223 0.960 . S
C2237 H2224 0.961 . S
C2237 H2225 0.959 . S
C2237 C2235 1.561 . S
C2238 C2235 1.526 . S
C2238 C2239 1.396 . S
C2238 C2243 1.390 . S
C2239 C2233 1.465 . S
C2239 C2238 1.396 . S
C2239 C2240 1.399 . S
C2240 H2226 0.929 . S
C2240 C2239 1.399 . S
C2240 C2241 1.385 . S
C2241 H2227 0.931 . S
C2241 C2240 1.385 . S
C2241 C2242 1.389 . S
C2242 C2241 1.389 . S
C2242 C2243 1.387 . S
C2243 H2228 0.930 . S
C2243 C2238 1.390 . S
C2243 C2242 1.387 . S
H2244 C2256 0.930 . S
H2245 C2258 0.930 . S
H2246 C2259 0.930 . S
H2247 C2263 0.959 . S
H2248 C2263 0.959 . S
H2249 C2263 0.961 . S
H2250 C2264 0.960 . S
H2251 C2264 0.961 . S
H2252 C2264 0.959 . S
H2253 C2267 0.929 . S
H2254 C2268 0.931 . S
H2255 C2270 0.930 . S
C2256 H2244 0.930 . S
C2256 C2257 1.399 . S
C2256 C2261 1.399 . S
C2257 C2256 1.399 . S
C2257 C2258 1.376 . S
C2258 H2245 0.930 . S
C2258 C2257 1.376 . S
C2258 C2259 1.388 . S
C2259 H2246 0.930 . S
C2259 C2258 1.388 . S
C2259 C2260 1.390 . S
C2260 C2259 1.390 . S
C2260 C2261 1.394 . S
C2260 C2266 1.465 . S
C2261 C2256 1.399 . S
C2261 C2260 1.394 . S
C2261 C2262 1.516 . S
C2262 C2261 1.516 . S
C2262 C2263 1.502 . S
C2262 C2264 1.561 . S
C2262 C2265 1.526 . S
C2263 H2247 0.959 . S
C2263 H2248 0.959 . S
C2263 H2249 0.961 . S
C2263 C2262 1.502 . S
C2264 H2250 0.960 . S
C2264 H2251 0.961 . S
C2264 H2252 0.959 . S
C2264 C2262 1.561 . S
C2265 C2262 1.526 . S
C2265 C2266 1.396 . S
C2265 C2270 1.390 . S
C2266 C2260 1.465 . S
C2266 C2265 1.396 . S
C2266 C2267 1.399 . S
C2267 H2253 0.929 . S
C2267 C2266 1.399 . S
C2267 C2268 1.385 . S
C2268 H2254 0.931 . S
C2268 C2267 1.385 . S
C2268 C2269 1.389 . S
C2269 C2268 1.389 . S
C2269 C2270 1.387 . S
C2270 H2255 0.930 . S
C2270 C2265 1.390 . S
C2270 C2269 1.387 . S
H2271 C2283 0.930 . S
H2272 C2285 0.930 . S
H2273 C2286 0.930 . S
H2274 C2290 0.959 . S
H2275 C2290 0.959 . S
H2276 C2290 0.961 . S
H2277 C2291 0.960 . S
H2278 C2291 0.961 . S
H2279 C2291 0.959 . S
H2280 C2294 0.929 . S
H2281 C2295 0.931 . S
H2282 C2297 0.930 . S
C2283 H2271 0.930 . S
C2283 C2284 1.399 . S
C2283 C2288 1.399 . S
C2284 C2283 1.399 . S
C2284 C2285 1.376 . S
C2285 H2272 0.930 . S
C2285 C2284 1.376 . S
C2285 C2286 1.388 . S
C2286 H2273 0.930 . S
C2286 C2285 1.388 . S
C2286 C2287 1.390 . S
C2287 C2286 1.390 . S
C2287 C2288 1.394 . S
C2287 C2293 1.465 . S
C2288 C2283 1.399 . S
C2288 C2287 1.394 . S
C2288 C2289 1.516 . S
C2289 C2288 1.516 . S
C2289 C2290 1.502 . S
C2289 C2291 1.561 . S
C2289 C2292 1.526 . S
C2290 H2274 0.959 . S
C2290 H2275 0.959 . S
C2290 H2276 0.961 . S
C2290 C2289 1.502 . S
C2291 H2277 0.960 . S
C2291 H2278 0.961 . S
C2291 H2279 0.959 . S
C2291 C2289 1.561 . S
C2292 C2289 1.526 . S
C2292 C2293 1.396 . S
C2292 C2297 1.390 . S
C2293 C2287 1.465 . S
C2293 C2292 1.396 . S
C2293 C2294 1.399 . S
C2294 H2280 0.929 . S
C2294 C2293 1.399 . S
C2294 C2295 1.385 . S
C2295 H2281 0.931 . S
C2295 C2294 1.385 . S
C2295 C2296 1.389 . S
C2296 C2295 1.389 . S
C2296 C2297 1.387 . S
C2297 H2282 0.930 . S
C2297 C2292 1.390 . S
C2297 C2296 1.387 . S
H2298 C2310 0.930 . S
H2299 C2312 0.930 . S
H2300 C2313 0.930 . S
H2301 C2317 0.959 . S
H2302 C2317 0.959 . S
H2303 C2317 0.961 . S
H2304 C2318 0.960 . S
H2305 C2318 0.961 . S
H2306 C2318 0.959 . S
H2307 C2321 0.929 . S
H2308 C2322 0.931 . S
H2309 C2324 0.930 . S
C2310 H2298 0.930 . S
C2310 C2311 1.399 . S
C2310 C2315 1.399 . S
C2311 C2310 1.399 . S
C2311 C2312 1.376 . S
C2312 H2299 0.930 . S
C2312 C2311 1.376 . S
C2312 C2313 1.388 . S
C2313 H2300 0.930 . S
C2313 C2312 1.388 . S
C2313 C2314 1.390 . S
C2314 C2313 1.390 . S
C2314 C2315 1.394 . S
C2314 C2320 1.465 . S
C2315 C2310 1.399 . S
C2315 C2314 1.394 . S
C2315 C2316 1.516 . S
C2316 C2315 1.516 . S
C2316 C2317 1.502 . S
C2316 C2318 1.561 . S
C2316 C2319 1.526 . S
C2317 H2301 0.959 . S
C2317 H2302 0.959 . S
C2317 H2303 0.961 . S
C2317 C2316 1.502 . S
C2318 H2304 0.960 . S
C2318 H2305 0.961 . S
C2318 H2306 0.959 . S
C2318 C2316 1.561 . S
C2319 C2316 1.526 . S
C2319 C2320 1.396 . S
C2319 C2324 1.390 . S
C2320 C2314 1.465 . S
C2320 C2319 1.396 . S
C2320 C2321 1.399 . S
C2321 H2307 0.929 . S
C2321 C2320 1.399 . S
C2321 C2322 1.385 . S
C2322 H2308 0.931 . S
C2322 C2321 1.385 . S
C2322 C2323 1.389 . S
C2323 C2322 1.389 . S
C2323 C2324 1.387 . S
C2324 H2309 0.930 . S
C2324 C2319 1.390 . S
C2324 C2323 1.387 . S
H2325 C2337 0.930 . S
H2326 C2339 0.930 . S
H2327 C2340 0.930 . S
H2328 C2344 0.959 . S
H2329 C2344 0.959 . S
H2330 C2344 0.961 . S
H2331 C2345 0.960 . S
H2332 C2345 0.961 . S
H2333 C2345 0.959 . S
H2334 C2348 0.929 . S
H2335 C2349 0.931 . S
H2336 C2351 0.930 . S
C2337 H2325 0.930 . S
C2337 C2338 1.399 . S
C2337 C2342 1.399 . S
C2338 C2337 1.399 . S
C2338 C2339 1.376 . S
C2339 H2326 0.930 . S
C2339 C2338 1.376 . S
C2339 C2340 1.388 . S
C2340 H2327 0.930 . S
C2340 C2339 1.388 . S
C2340 C2341 1.390 . S
C2341 C2340 1.390 . S
C2341 C2342 1.394 . S
C2341 C2347 1.465 . S
C2342 C2337 1.399 . S
C2342 C2341 1.394 . S
C2342 C2343 1.516 . S
C2343 C2342 1.516 . S
C2343 C2344 1.502 . S
C2343 C2345 1.561 . S
C2343 C2346 1.526 . S
C2344 H2328 0.959 . S
C2344 H2329 0.959 . S
C2344 H2330 0.961 . S
C2344 C2343 1.502 . S
C2345 H2331 0.960 . S
C2345 H2332 0.961 . S
C2345 H2333 0.959 . S
C2345 C2343 1.561 . S
C2346 C2343 1.526 . S
C2346 C2347 1.396 . S
C2346 C2351 1.390 . S
C2347 C2341 1.465 . S
C2347 C2346 1.396 . S
C2347 C2348 1.399 . S
C2348 H2334 0.929 . S
C2348 C2347 1.399 . S
C2348 C2349 1.385 . S
C2349 H2335 0.931 . S
C2349 C2348 1.385 . S
C2349 C2350 1.389 . S
C2350 C2349 1.389 . S
C2350 C2351 1.387 . S
C2351 H2336 0.930 . S
C2351 C2346 1.390 . S
C2351 C2350 1.387 . S
H2352 C2364 0.930 . S
H2353 C2366 0.930 . S
H2354 C2367 0.930 . S
H2355 C2371 0.959 . S
H2356 C2371 0.959 . S
H2357 C2371 0.958 1_554 S
H2358 C2372 0.960 1_554 S
H2359 C2372 0.961 . S
H2360 C2372 0.959 . S
H2361 C2375 0.929 . S
H2362 C2376 0.931 . S
H2363 C2378 0.930 . S
C2364 H2352 0.930 . S
C2364 C2365 1.399 . S
C2364 C2369 1.399 . S
C2365 C2364 1.399 . S
C2365 C2366 1.376 . S
C2366 H2353 0.930 . S
C2366 C2365 1.376 . S
C2366 C2367 1.388 . S
C2367 H2354 0.930 . S
C2367 C2366 1.388 . S
C2367 C2368 1.390 . S
C2368 C2367 1.390 . S
C2368 C2369 1.394 . S
C2368 C2374 1.465 1_554 S
C2369 C2364 1.399 . S
C2369 C2368 1.394 . S
C2369 C2370 1.516 1_554 S
C2370 C2369 1.516 1_556 S
C2370 C2371 1.502 . S
C2370 C2372 1.561 . S
C2370 C2373 1.526 . S
C2371 H2355 0.959 . S
C2371 H2356 0.959 . S
C2371 H2357 0.958 1_556 S
C2371 C2370 1.502 . S
C2372 H2358 0.960 1_556 S
C2372 H2359 0.961 . S
C2372 H2360 0.959 . S
C2372 C2370 1.561 . S
C2373 C2370 1.526 . S
C2373 C2374 1.396 . S
C2373 C2378 1.390 . S
C2374 C2368 1.465 1_556 S
C2374 C2373 1.396 . S
C2374 C2375 1.399 . S
C2375 H2361 0.929 . S
C2375 C2374 1.399 . S
C2375 C2376 1.385 . S
C2376 H2362 0.931 . S
C2376 C2375 1.385 . S
C2376 C2377 1.389 . S
C2377 C2376 1.389 . S
C2377 C2378 1.387 . S
C2378 H2363 0.930 . S
C2378 C2373 1.390 . S
C2378 C2377 1.387 . S
H2379 C2391 0.930 . S
H2380 C2393 0.930 . S
H2381 C2394 0.930 . S
H2382 C2398 0.959 . S
H2383 C2398 0.959 . S
H2384 C2398 0.961 . S
H2385 C2399 0.960 . S
H2386 C2399 0.961 . S
H2387 C2399 0.959 . S
H2388 C2402 0.929 . S
H2389 C2403 0.931 . S
H2390 C2405 0.930 . S
C2391 H2379 0.930 . S
C2391 C2392 1.399 1_545 S
C2391 C2396 1.399 . S
C2392 C2391 1.399 1_565 S
C2392 C2393 1.376 . S
C2393 H2380 0.930 . S
C2393 C2392 1.376 . S
C2393 C2394 1.388 . S
C2394 H2381 0.930 . S
C2394 C2393 1.388 . S
C2394 C2395 1.390 . S
C2395 C2394 1.390 . S
C2395 C2396 1.394 1_565 S
C2395 C2401 1.465 . S
C2396 C2391 1.399 . S
C2396 C2395 1.394 1_545 S
C2396 C2397 1.516 . S
C2397 C2396 1.516 . S
C2397 C2398 1.502 . S
C2397 C2399 1.561 . S
C2397 C2400 1.526 . S
C2398 H2382 0.959 . S
C2398 H2383 0.959 . S
C2398 H2384 0.961 . S
C2398 C2397 1.502 . S
C2399 H2385 0.960 . S
C2399 H2386 0.961 . S
C2399 H2387 0.959 . S
C2399 C2397 1.561 . S
C2400 C2397 1.526 . S
C2400 C2401 1.396 1_545 S
C2400 C2405 1.390 . S
C2401 C2395 1.465 . S
C2401 C2400 1.396 1_565 S
C2401 C2402 1.399 . S
C2402 H2388 0.929 . S
C2402 C2401 1.399 . S
C2402 C2403 1.385 . S
C2403 H2389 0.931 . S
C2403 C2402 1.385 . S
C2403 C2404 1.389 1_565 S
C2404 C2403 1.389 1_545 S
C2404 C2405 1.387 . S
C2405 H2390 0.930 . S
C2405 C2400 1.390 . S
C2405 C2404 1.387 . S
H2406 C2418 0.930 . S
H2407 C2420 0.930 . S
H2408 C2421 0.930 . S
H2409 C2425 0.959 . S
H2410 C2425 0.959 . S
H2411 C2425 0.961 . S
H2412 C2426 0.960 . S
H2413 C2426 0.961 . S
H2414 C2426 0.959 . S
H2415 C2429 0.929 . S
H2416 C2430 0.931 . S
H2417 C2432 0.930 . S
C2418 H2406 0.930 . S
C2418 C2419 1.399 . S
C2418 C2423 1.399 . S
C2419 C2418 1.399 . S
C2419 C2420 1.376 . S
C2420 H2407 0.930 . S
C2420 C2419 1.376 . S
C2420 C2421 1.388 . S
C2421 H2408 0.930 . S
C2421 C2420 1.388 . S
C2421 C2422 1.390 . S
C2422 C2421 1.390 . S
C2422 C2423 1.394 . S
C2422 C2428 1.465 . S
C2423 C2418 1.399 . S
C2423 C2422 1.394 . S
C2423 C2424 1.516 . S
C2424 C2423 1.516 . S
C2424 C2425 1.502 . S
C2424 C2426 1.561 . S
C2424 C2427 1.526 . S
C2425 H2409 0.959 . S
C2425 H2410 0.959 . S
C2425 H2411 0.961 . S
C2425 C2424 1.502 . S
C2426 H2412 0.960 . S
C2426 H2413 0.961 . S
C2426 H2414 0.959 . S
C2426 C2424 1.561 . S
C2427 C2424 1.526 . S
C2427 C2428 1.396 . S
C2427 C2432 1.390 . S
C2428 C2422 1.465 . S
C2428 C2427 1.396 . S
C2428 C2429 1.399 . S
C2429 H2415 0.929 . S
C2429 C2428 1.399 . S
C2429 C2430 1.385 . S
C2430 H2416 0.931 . S
C2430 C2429 1.385 . S
C2430 C2431 1.389 . S
C2431 C2430 1.389 . S
C2431 C2432 1.387 . S
C2432 H2417 0.930 . S
C2432 C2427 1.390 . S
C2432 C2431 1.387 . S
H2433 C2445 0.930 . S
H2434 C2447 0.930 . S
H2435 C2448 0.930 . S
H2436 C2452 0.959 . S
H2437 C2452 0.959 . S
H2438 C2452 0.961 . S
H2439 C2453 0.960 . S
H2440 C2453 0.961 . S
H2441 C2453 0.959 . S
H2442 C2456 0.929 . S
H2443 C2457 0.931 . S
H2444 C2459 0.930 . S
C2445 H2433 0.930 . S
C2445 C2446 1.399 . S
C2445 C2450 1.399 . S
C2446 C2445 1.399 . S
C2446 C2447 1.376 1_565 S
C2447 H2434 0.930 . S
C2447 C2446 1.376 1_545 S
C2447 C2448 1.388 . S
C2448 H2435 0.930 . S
C2448 C2447 1.388 . S
C2448 C2449 1.390 . S
C2449 C2448 1.390 . S
C2449 C2450 1.394 1_545 S
C2449 C2455 1.465 . S
C2450 C2445 1.399 . S
C2450 C2449 1.394 1_565 S
C2450 C2451 1.516 . S
C2451 C2450 1.516 . S
C2451 C2452 1.502 . S
C2451 C2453 1.561 . S
C2451 C2454 1.526 . S
C2452 H2436 0.959 . S
C2452 H2437 0.959 . S
C2452 H2438 0.961 . S
C2452 C2451 1.502 . S
C2453 H2439 0.960 . S
C2453 H2440 0.961 . S
C2453 H2441 0.959 . S
C2453 C2451 1.561 . S
C2454 C2451 1.526 . S
C2454 C2455 1.396 1_565 S
C2454 C2459 1.390 . S
C2455 C2449 1.465 . S
C2455 C2454 1.396 1_545 S
C2455 C2456 1.399 . S
C2456 H2442 0.929 . S
C2456 C2455 1.399 . S
C2456 C2457 1.385 . S
C2457 H2443 0.931 . S
C2457 C2456 1.385 . S
C2457 C2458 1.389 . S
C2458 C2457 1.389 . S
C2458 C2459 1.387 1_545 S
C2459 H2444 0.930 . S
C2459 C2454 1.390 . S
C2459 C2458 1.387 1_565 S
H2460 C2472 0.930 . S
H2461 C2474 0.930 . S
H2462 C2475 0.930 . S
H2463 C2479 0.959 . S
H2464 C2479 0.959 1_556 S
H2465 C2479 0.961 . S
H2466 C2480 0.960 1_554 S
H2467 C2480 0.961 . S
H2468 C2480 0.959 . S
H2469 C2483 0.929 . S
H2470 C2484 0.931 . S
H2471 C2486 0.930 . S
C2472 H2460 0.930 . S
C2472 C2473 1.399 . S
C2472 C2477 1.399 . S
C2473 C2472 1.399 . S
C2473 C2474 1.376 . S
C2474 H2461 0.930 . S
C2474 C2473 1.376 . S
C2474 C2475 1.388 . S
C2475 H2462 0.930 . S
C2475 C2474 1.388 . S
C2475 C2476 1.390 . S
C2476 C2475 1.390 . S
C2476 C2477 1.394 . S
C2476 C2482 1.465 1_554 S
C2477 C2472 1.399 . S
C2477 C2476 1.394 . S
C2477 C2478 1.516 . S
C2478 C2477 1.516 . S
C2478 C2479 1.502 . S
C2478 C2480 1.561 1_554 S
C2478 C2481 1.526 1_554 S
C2479 H2463 0.959 . S
C2479 H2464 0.959 1_554 S
C2479 H2465 0.961 . S
C2479 C2478 1.502 . S
C2480 H2466 0.960 1_556 S
C2480 H2467 0.961 . S
C2480 H2468 0.959 . S
C2480 C2478 1.561 1_556 S
C2481 C2478 1.526 1_556 S
C2481 C2482 1.396 . S
C2481 C2486 1.390 . S
C2482 C2476 1.465 1_556 S
C2482 C2481 1.396 . S
C2482 C2483 1.399 . S
C2483 H2469 0.929 . S
C2483 C2482 1.399 . S
C2483 C2484 1.385 . S
C2484 H2470 0.931 . S
C2484 C2483 1.385 . S
C2484 C2485 1.389 . S
C2485 C2484 1.389 . S
C2485 C2486 1.387 . S
C2486 H2471 0.930 . S
C2486 C2481 1.390 . S
C2486 C2485 1.387 . S
H2487 C2499 0.930 . S
H2488 C2501 0.930 . S
H2489 C2502 0.930 . S
H2490 C2506 0.959 . S
H2491 C2506 0.959 . S
H2492 C2506 0.961 . S
H2493 C2507 0.960 . S
H2494 C2507 0.961 . S
H2495 C2507 0.959 . S
H2496 C2510 0.929 . S
H2497 C2511 0.931 . S
H2498 C2513 0.930 . S
C2499 H2487 0.930 . S
C2499 C2500 1.399 . S
C2499 C2504 1.399 . S
C2500 C2499 1.399 . S
C2500 C2501 1.376 1_545 S
C2501 H2488 0.930 . S
C2501 C2500 1.376 1_565 S
C2501 C2502 1.388 . S
C2502 H2489 0.930 . S
C2502 C2501 1.388 . S
C2502 C2503 1.390 . S
C2503 C2502 1.390 . S
C2503 C2504 1.394 1_565 S
C2503 C2509 1.465 . S
C2504 C2499 1.399 . S
C2504 C2503 1.394 1_545 S
C2504 C2505 1.516 . S
C2505 C2504 1.516 . S
C2505 C2506 1.502 . S
C2505 C2507 1.561 . S
C2505 C2508 1.526 . S
C2506 H2490 0.959 . S
C2506 H2491 0.959 . S
C2506 H2492 0.961 . S
C2506 C2505 1.502 . S
C2507 H2493 0.960 . S
C2507 H2494 0.961 . S
C2507 H2495 0.959 . S
C2507 C2505 1.561 . S
C2508 C2505 1.526 . S
C2508 C2509 1.396 1_545 S
C2508 C2513 1.390 . S
C2509 C2503 1.465 . S
C2509 C2508 1.396 1_565 S
C2509 C2510 1.399 . S
C2510 H2496 0.929 . S
C2510 C2509 1.399 . S
C2510 C2511 1.385 . S
C2511 H2497 0.931 . S
C2511 C2510 1.385 . S
C2511 C2512 1.389 . S
C2512 C2511 1.389 . S
C2512 C2513 1.387 1_565 S
C2513 H2498 0.930 . S
C2513 C2508 1.390 . S
C2513 C2512 1.387 1_545 S
H2514 C2526 0.930 . S
H2515 C2528 0.930 . S
H2516 C2529 0.930 . S
H2517 C2533 0.959 . S
H2518 C2533 0.959 . S
H2519 C2533 0.961 . S
H2520 C2534 0.960 . S
H2521 C2534 0.961 . S
H2522 C2534 0.959 . S
H2523 C2537 0.929 . S
H2524 C2538 0.931 . S
H2525 C2540 0.930 . S
C2526 H2514 0.930 . S
C2526 C2527 1.399 . S
C2526 C2531 1.399 . S
C2527 C2526 1.399 . S
C2527 C2528 1.376 . S
C2528 H2515 0.930 . S
C2528 C2527 1.376 . S
C2528 C2529 1.388 . S
C2529 H2516 0.930 . S
C2529 C2528 1.388 . S
C2529 C2530 1.390 . S
C2530 C2529 1.390 . S
C2530 C2531 1.394 . S
C2530 C2536 1.465 . S
C2531 C2526 1.399 . S
C2531 C2530 1.394 . S
C2531 C2532 1.516 . S
C2532 C2531 1.516 . S
C2532 C2533 1.502 . S
C2532 C2534 1.561 . S
C2532 C2535 1.526 . S
C2533 H2517 0.959 . S
C2533 H2518 0.959 . S
C2533 H2519 0.961 . S
C2533 C2532 1.502 . S
C2534 H2520 0.960 . S
C2534 H2521 0.961 . S
C2534 H2522 0.959 . S
C2534 C2532 1.561 . S
C2535 C2532 1.526 . S
C2535 C2536 1.396 . S
C2535 C2540 1.390 . S
C2536 C2530 1.465 . S
C2536 C2535 1.396 . S
C2536 C2537 1.399 . S
C2537 H2523 0.929 . S
C2537 C2536 1.399 . S
C2537 C2538 1.385 . S
C2538 H2524 0.931 . S
C2538 C2537 1.385 . S
C2538 C2539 1.389 . S
C2539 C2538 1.389 . S
C2539 C2540 1.387 . S
C2540 H2525 0.930 . S
C2540 C2535 1.390 . S
C2540 C2539 1.387 . S
H2541 C2553 0.930 . S
H2542 C2555 0.930 . S
H2543 C2556 0.930 . S
H2544 C2560 0.959 . S
H2545 C2560 0.959 . S
H2546 C2560 0.961 . S
H2547 C2561 0.960 . S
H2548 C2561 0.961 . S
H2549 C2561 0.959 . S
H2550 C2564 0.929 . S
H2551 C2565 0.931 . S
H2552 C2567 0.930 . S
C2553 H2541 0.930 . S
C2553 C2554 1.399 . S
C2553 C2558 1.399 . S
C2554 C2553 1.399 . S
C2554 C2555 1.376 . S
C2555 H2542 0.930 . S
C2555 C2554 1.376 . S
C2555 C2556 1.388 . S
C2556 H2543 0.930 . S
C2556 C2555 1.388 . S
C2556 C2557 1.390 . S
C2557 C2556 1.390 . S
C2557 C2558 1.394 . S
C2557 C2563 1.465 . S
C2558 C2553 1.399 . S
C2558 C2557 1.394 . S
C2558 C2559 1.516 1_565 S
C2559 C2558 1.516 1_545 S
C2559 C2560 1.502 . S
C2559 C2561 1.561 1_545 S
C2559 C2562 1.526 . S
C2560 H2544 0.959 . S
C2560 H2545 0.959 . S
C2560 H2546 0.961 . S
C2560 C2559 1.502 . S
C2561 H2547 0.960 . S
C2561 H2548 0.961 . S
C2561 H2549 0.959 . S
C2561 C2559 1.561 1_565 S
C2562 C2559 1.526 . S
C2562 C2563 1.396 1_545 S
C2562 C2567 1.390 . S
C2563 C2557 1.465 . S
C2563 C2562 1.396 1_565 S
C2563 C2564 1.399 . S
C2564 H2550 0.929 . S
C2564 C2563 1.399 . S
C2564 C2565 1.385 1_565 S
C2565 H2551 0.931 . S
C2565 C2564 1.385 1_545 S
C2565 C2566 1.389 . S
C2566 C2565 1.389 . S
C2566 C2567 1.387 . S
C2567 H2552 0.930 . S
C2567 C2562 1.390 . S
C2567 C2566 1.387 . S
H2568 C2580 0.930 . S
H2569 C2582 0.930 . S
H2570 C2583 0.930 . S
H2571 C2587 0.959 . S
H2572 C2587 0.959 . S
H2573 C2587 0.961 . S
H2574 C2588 0.960 . S
H2575 C2588 0.961 . S
H2576 C2588 0.959 . S
H2577 C2591 0.929 . S
H2578 C2592 0.931 . S
H2579 C2594 0.930 . S
C2580 H2568 0.930 . S
C2580 C2581 1.399 . S
C2580 C2585 1.399 . S
C2581 C2580 1.399 . S
C2581 C2582 1.376 . S
C2582 H2569 0.930 . S
C2582 C2581 1.376 . S
C2582 C2583 1.388 . S
C2583 H2570 0.930 . S
C2583 C2582 1.388 . S
C2583 C2584 1.390 . S
C2584 C2583 1.390 . S
C2584 C2585 1.394 . S
C2584 C2590 1.465 . S
C2585 C2580 1.399 . S
C2585 C2584 1.394 . S
C2585 C2586 1.516 . S
C2586 C2585 1.516 . S
C2586 C2587 1.502 . S
C2586 C2588 1.561 . S
C2586 C2589 1.526 . S
C2587 H2571 0.959 . S
C2587 H2572 0.959 . S
C2587 H2573 0.961 . S
C2587 C2586 1.502 . S
C2588 H2574 0.960 . S
C2588 H2575 0.961 . S
C2588 H2576 0.959 . S
C2588 C2586 1.561 . S
C2589 C2586 1.526 . S
C2589 C2590 1.396 . S
C2589 C2594 1.390 . S
C2590 C2584 1.465 . S
C2590 C2589 1.396 . S
C2590 C2591 1.399 . S
C2591 H2577 0.929 . S
C2591 C2590 1.399 . S
C2591 C2592 1.385 . S
C2592 H2578 0.931 . S
C2592 C2591 1.385 . S
C2592 C2593 1.389 . S
C2593 C2592 1.389 . S
C2593 C2594 1.387 . S
C2594 H2579 0.930 . S
C2594 C2589 1.390 . S
C2594 C2593 1.387 . S
H2595 C2607 0.930 . S
H2596 C2609 0.930 . S
H2597 C2610 0.930 . S
H2598 C2614 0.959 . S
H2599 C2614 0.959 . S
H2600 C2614 0.961 . S
H2601 C2615 0.960 . S
H2602 C2615 0.961 . S
H2603 C2615 0.959 . S
H2604 C2618 0.929 . S
H2605 C2619 0.931 . S
H2606 C2621 0.930 . S
C2607 H2595 0.930 . S
C2607 C2608 1.399 . S
C2607 C2612 1.399 . S
C2608 C2607 1.399 . S
C2608 C2609 1.376 . S
C2609 H2596 0.930 . S
C2609 C2608 1.376 . S
C2609 C2610 1.388 . S
C2610 H2597 0.930 . S
C2610 C2609 1.388 . S
C2610 C2611 1.390 . S
C2611 C2610 1.390 . S
C2611 C2612 1.394 . S
C2611 C2617 1.465 . S
C2612 C2607 1.399 . S
C2612 C2611 1.394 . S
C2612 C2613 1.516 . S
C2613 C2612 1.516 . S
C2613 C2614 1.502 . S
C2613 C2615 1.561 . S
C2613 C2616 1.526 . S
C2614 H2598 0.959 . S
C2614 H2599 0.959 . S
C2614 H2600 0.961 . S
C2614 C2613 1.502 . S
C2615 H2601 0.960 . S
C2615 H2602 0.961 . S
C2615 H2603 0.959 . S
C2615 C2613 1.561 . S
C2616 C2613 1.526 . S
C2616 C2617 1.396 . S
C2616 C2621 1.390 . S
C2617 C2611 1.465 . S
C2617 C2616 1.396 . S
C2617 C2618 1.399 . S
C2618 H2604 0.929 . S
C2618 C2617 1.399 . S
C2618 C2619 1.385 . S
C2619 H2605 0.931 . S
C2619 C2618 1.385 . S
C2619 C2620 1.389 . S
C2620 C2619 1.389 . S
C2620 C2621 1.387 . S
C2621 H2606 0.930 . S
C2621 C2616 1.390 . S
C2621 C2620 1.387 . S
H2622 C2634 0.930 . S
H2623 C2636 0.930 . S
H2624 C2637 0.930 . S
H2625 C2641 0.959 . S
H2626 C2641 0.959 . S
H2627 C2641 0.961 1_554 S
H2628 C2642 0.960 . S
H2629 C2642 0.961 1_556 S
H2630 C2642 0.959 . S
H2631 C2645 0.929 . S
H2632 C2646 0.931 . S
H2633 C2648 0.930 . S
C2634 H2622 0.930 . S
C2634 C2635 1.399 . S
C2634 C2639 1.399 . S
C2635 C2634 1.399 . S
C2635 C2636 1.376 . S
C2636 H2623 0.930 . S
C2636 C2635 1.376 . S
C2636 C2637 1.388 . S
C2637 H2624 0.930 . S
C2637 C2636 1.388 . S
C2637 C2638 1.390 . S
C2638 C2637 1.390 . S
C2638 C2639 1.394 . S
C2638 C2644 1.465 1_554 S
C2639 C2634 1.399 . S
C2639 C2638 1.394 . S
C2639 C2640 1.516 1_554 S
C2640 C2639 1.516 1_556 S
C2640 C2641 1.502 . S
C2640 C2642 1.561 1_556 S
C2640 C2643 1.526 . S
C2641 H2625 0.959 . S
C2641 H2626 0.959 . S
C2641 H2627 0.961 1_556 S
C2641 C2640 1.502 . S
C2642 H2628 0.960 . S
C2642 H2629 0.961 1_554 S
C2642 H2630 0.959 . S
C2642 C2640 1.561 1_554 S
C2643 C2640 1.526 . S
C2643 C2644 1.396 . S
C2643 C2648 1.390 . S
C2644 C2638 1.465 1_556 S
C2644 C2643 1.396 . S
C2644 C2645 1.399 . S
C2645 H2631 0.929 . S
C2645 C2644 1.399 . S
C2645 C2646 1.385 . S
C2646 H2632 0.931 . S
C2646 C2645 1.385 . S
C2646 C2647 1.389 . S
C2647 C2646 1.389 . S
C2647 C2648 1.387 . S
C2648 H2633 0.930 . S
C2648 C2643 1.390 . S
C2648 C2647 1.387 . S
H2649 C2661 0.930 . S
H2650 C2663 0.930 . S
H2651 C2664 0.930 . S
H2652 C2668 0.959 . S
H2653 C2668 0.959 . S
H2654 C2668 0.961 . S
H2655 C2669 0.960 . S
H2656 C2669 0.961 . S
H2657 C2669 0.959 . S
H2658 C2672 0.929 . S
H2659 C2673 0.931 . S
H2660 C2675 0.930 . S
C2661 H2649 0.930 . S
C2661 C2662 1.399 . S
C2661 C2666 1.399 . S
C2662 C2661 1.399 . S
C2662 C2663 1.376 . S
C2663 H2650 0.930 . S
C2663 C2662 1.376 . S
C2663 C2664 1.388 . S
C2664 H2651 0.930 . S
C2664 C2663 1.388 . S
C2664 C2665 1.390 . S
C2665 C2664 1.390 . S
C2665 C2666 1.394 . S
C2665 C2671 1.465 . S
C2666 C2661 1.399 . S
C2666 C2665 1.394 . S
C2666 C2667 1.516 . S
C2667 C2666 1.516 . S
C2667 C2668 1.502 . S
C2667 C2669 1.561 . S
C2667 C2670 1.526 . S
C2668 H2652 0.959 . S
C2668 H2653 0.959 . S
C2668 H2654 0.961 . S
C2668 C2667 1.502 . S
C2669 H2655 0.960 . S
C2669 H2656 0.961 . S
C2669 H2657 0.959 . S
C2669 C2667 1.561 . S
C2670 C2667 1.526 . S
C2670 C2671 1.396 . S
C2670 C2675 1.390 . S
C2671 C2665 1.465 . S
C2671 C2670 1.396 . S
C2671 C2672 1.399 . S
C2672 H2658 0.929 . S
C2672 C2671 1.399 . S
C2672 C2673 1.385 . S
C2673 H2659 0.931 . S
C2673 C2672 1.385 . S
C2673 C2674 1.389 . S
C2674 C2673 1.389 . S
C2674 C2675 1.387 . S
C2675 H2660 0.930 . S
C2675 C2670 1.390 . S
C2675 C2674 1.387 . S
H2676 C2688 0.930 . S
H2677 C2690 0.930 . S
H2678 C2691 0.930 . S
H2679 C2695 0.959 . S
H2680 C2695 0.959 . S
H2681 C2695 0.961 . S
H2682 C2696 0.960 . S
H2683 C2696 0.961 . S
H2684 C2696 0.959 . S
H2685 C2699 0.929 . S
H2686 C2700 0.931 . S
H2687 C2702 0.930 . S
C2688 H2676 0.930 . S
C2688 C2689 1.399 . S
C2688 C2693 1.399 . S
C2689 C2688 1.399 . S
C2689 C2690 1.376 . S
C2690 H2677 0.930 . S
C2690 C2689 1.376 . S
C2690 C2691 1.388 . S
C2691 H2678 0.930 . S
C2691 C2690 1.388 . S
C2691 C2692 1.390 . S
C2692 C2691 1.390 . S
C2692 C2693 1.394 . S
C2692 C2698 1.465 . S
C2693 C2688 1.399 . S
C2693 C2692 1.394 . S
C2693 C2694 1.516 . S
C2694 C2693 1.516 . S
C2694 C2695 1.502 . S
C2694 C2696 1.561 . S
C2694 C2697 1.526 . S
C2695 H2679 0.959 . S
C2695 H2680 0.959 . S
C2695 H2681 0.961 . S
C2695 C2694 1.502 . S
C2696 H2682 0.960 . S
C2696 H2683 0.961 . S
C2696 H2684 0.959 . S
C2696 C2694 1.561 . S
C2697 C2694 1.526 . S
C2697 C2698 1.396 . S
C2697 C2702 1.390 . S
C2698 C2692 1.465 . S
C2698 C2697 1.396 . S
C2698 C2699 1.399 . S
C2699 H2685 0.929 . S
C2699 C2698 1.399 . S
C2699 C2700 1.385 . S
C2700 H2686 0.931 . S
C2700 C2699 1.385 . S
C2700 C2701 1.389 . S
C2701 C2700 1.389 . S
C2701 C2702 1.387 . S
C2702 H2687 0.930 . S
C2702 C2697 1.390 . S
C2702 C2701 1.387 . S
H2703 C2715 0.930 . S
H2704 C2717 0.930 . S
H2705 C2718 0.930 . S
H2706 C2722 0.959 . S
H2707 C2722 0.959 . S
H2708 C2722 0.961 . S
H2709 C2723 0.960 . S
H2710 C2723 0.961 . S
H2711 C2723 0.959 . S
H2712 C2726 0.929 . S
H2713 C2727 0.931 . S
H2714 C2729 0.930 . S
C2715 H2703 0.930 . S
C2715 C2716 1.399 . S
C2715 C2720 1.399 . S
C2716 C2715 1.399 . S
C2716 C2717 1.376 . S
C2717 H2704 0.930 . S
C2717 C2716 1.376 . S
C2717 C2718 1.388 . S
C2718 H2705 0.930 . S
C2718 C2717 1.388 . S
C2718 C2719 1.390 . S
C2719 C2718 1.390 . S
C2719 C2720 1.394 . S
C2719 C2725 1.465 . S
C2720 C2715 1.399 . S
C2720 C2719 1.394 . S
C2720 C2721 1.516 . S
C2721 C2720 1.516 . S
C2721 C2722 1.502 . S
C2721 C2723 1.561 . S
C2721 C2724 1.526 . S
C2722 H2706 0.959 . S
C2722 H2707 0.959 . S
C2722 H2708 0.961 . S
C2722 C2721 1.502 . S
C2723 H2709 0.960 . S
C2723 H2710 0.961 . S
C2723 H2711 0.959 . S
C2723 C2721 1.561 . S
C2724 C2721 1.526 . S
C2724 C2725 1.396 . S
C2724 C2729 1.390 . S
C2725 C2719 1.465 . S
C2725 C2724 1.396 . S
C2725 C2726 1.399 . S
C2726 H2712 0.929 . S
C2726 C2725 1.399 . S
C2726 C2727 1.385 . S
C2727 H2713 0.931 . S
C2727 C2726 1.385 . S
C2727 C2728 1.389 . S
C2728 C2727 1.389 . S
C2728 C2729 1.387 . S
C2729 H2714 0.930 . S
C2729 C2724 1.390 . S
C2729 C2728 1.387 . S
H2730 C2742 0.930 . S
H2731 C2744 0.930 . S
H2732 C2745 0.930 . S
H2733 C2749 0.959 . S
H2734 C2749 0.959 . S
H2735 C2749 0.961 1_556 S
H2736 C2750 0.960 . S
H2737 C2750 0.961 1_554 S
H2738 C2750 0.959 . S
H2739 C2753 0.929 . S
H2740 C2754 0.931 . S
H2741 C2756 0.930 . S
C2742 H2730 0.930 . S
C2742 C2743 1.399 . S
C2742 C2747 1.399 . S
C2743 C2742 1.399 . S
C2743 C2744 1.376 . S
C2744 H2731 0.930 . S
C2744 C2743 1.376 . S
C2744 C2745 1.388 . S
C2745 H2732 0.930 . S
C2745 C2744 1.388 . S
C2745 C2746 1.390 . S
C2746 C2745 1.390 . S
C2746 C2747 1.394 . S
C2746 C2752 1.465 1_556 S
C2747 C2742 1.399 . S
C2747 C2746 1.394 . S
C2747 C2748 1.516 1_556 S
C2748 C2747 1.516 1_554 S
C2748 C2749 1.502 . S
C2748 C2750 1.561 1_554 S
C2748 C2751 1.526 . S
C2749 H2733 0.959 . S
C2749 H2734 0.959 . S
C2749 H2735 0.961 1_554 S
C2749 C2748 1.502 . S
C2750 H2736 0.960 . S
C2750 H2737 0.961 1_556 S
C2750 H2738 0.959 . S
C2750 C2748 1.561 1_556 S
C2751 C2748 1.526 . S
C2751 C2752 1.396 . S
C2751 C2756 1.390 . S
C2752 C2746 1.465 1_554 S
C2752 C2751 1.396 . S
C2752 C2753 1.399 . S
C2753 H2739 0.929 . S
C2753 C2752 1.399 . S
C2753 C2754 1.385 . S
C2754 H2740 0.931 . S
C2754 C2753 1.385 . S
C2754 C2755 1.389 . S
C2755 C2754 1.389 . S
C2755 C2756 1.387 . S
C2756 H2741 0.930 . S
C2756 C2751 1.390 . S
C2756 C2755 1.387 . S
H2757 C2769 0.930 . S
H2758 C2771 0.930 . S
H2759 C2772 0.930 . S
H2760 C2776 0.959 . S
H2761 C2776 0.959 . S
H2762 C2776 0.961 . S
H2763 C2777 0.960 . S
H2764 C2777 0.961 . S
H2765 C2777 0.959 . S
H2766 C2780 0.929 . S
H2767 C2781 0.931 . S
H2768 C2783 0.930 . S
C2769 H2757 0.930 . S
C2769 C2770 1.399 . S
C2769 C2774 1.399 . S
C2770 C2769 1.399 . S
C2770 C2771 1.376 . S
C2771 H2758 0.930 . S
C2771 C2770 1.376 . S
C2771 C2772 1.388 . S
C2772 H2759 0.930 . S
C2772 C2771 1.388 . S
C2772 C2773 1.390 . S
C2773 C2772 1.390 . S
C2773 C2774 1.394 . S
C2773 C2779 1.465 . S
C2774 C2769 1.399 . S
C2774 C2773 1.394 . S
C2774 C2775 1.516 . S
C2775 C2774 1.516 . S
C2775 C2776 1.502 . S
C2775 C2777 1.561 . S
C2775 C2778 1.526 . S
C2776 H2760 0.959 . S
C2776 H2761 0.959 . S
C2776 H2762 0.961 . S
C2776 C2775 1.502 . S
C2777 H2763 0.960 . S
C2777 H2764 0.961 . S
C2777 H2765 0.959 . S
C2777 C2775 1.561 . S
C2778 C2775 1.526 . S
C2778 C2779 1.396 . S
C2778 C2783 1.390 . S
C2779 C2773 1.465 . S
C2779 C2778 1.396 . S
C2779 C2780 1.399 . S
C2780 H2766 0.929 . S
C2780 C2779 1.399 . S
C2780 C2781 1.385 . S
C2781 H2767 0.931 . S
C2781 C2780 1.385 . S
C2781 C2782 1.389 . S
C2782 C2781 1.389 . S
C2782 C2783 1.387 . S
C2783 H2768 0.930 . S
C2783 C2778 1.390 . S
C2783 C2782 1.387 . S
H2784 C2796 0.930 . S
H2785 C2798 0.930 . S
H2786 C2799 0.930 . S
H2787 C2803 0.959 . S
H2788 C2803 0.959 . S
H2789 C2803 0.961 . S
H2790 C2804 0.960 . S
H2791 C2804 0.961 . S
H2792 C2804 0.959 . S
H2793 C2807 0.929 . S
H2794 C2808 0.931 . S
H2795 C2810 0.930 . S
C2796 H2784 0.930 . S
C2796 C2797 1.399 . S
C2796 C2801 1.399 . S
C2797 C2796 1.399 . S
C2797 C2798 1.376 . S
C2798 H2785 0.930 . S
C2798 C2797 1.376 . S
C2798 C2799 1.388 . S
C2799 H2786 0.930 . S
C2799 C2798 1.388 . S
C2799 C2800 1.390 . S
C2800 C2799 1.390 . S
C2800 C2801 1.394 . S
C2800 C2806 1.465 . S
C2801 C2796 1.399 . S
C2801 C2800 1.394 . S
C2801 C2802 1.516 . S
C2802 C2801 1.516 . S
C2802 C2803 1.502 . S
C2802 C2804 1.561 . S
C2802 C2805 1.526 . S
C2803 H2787 0.959 . S
C2803 H2788 0.959 . S
C2803 H2789 0.961 . S
C2803 C2802 1.502 . S
C2804 H2790 0.960 . S
C2804 H2791 0.961 . S
C2804 H2792 0.959 . S
C2804 C2802 1.561 . S
C2805 C2802 1.526 . S
C2805 C2806 1.396 . S
C2805 C2810 1.390 . S
C2806 C2800 1.465 . S
C2806 C2805 1.396 . S
C2806 C2807 1.399 . S
C2807 H2793 0.929 . S
C2807 C2806 1.399 . S
C2807 C2808 1.385 . S
C2808 H2794 0.931 . S
C2808 C2807 1.385 . S
C2808 C2809 1.389 . S
C2809 C2808 1.389 . S
C2809 C2810 1.387 . S
C2810 H2795 0.930 . S
C2810 C2805 1.390 . S
C2810 C2809 1.387 . S
H2811 C2823 0.930 . S
H2812 C2825 0.930 . S
H2813 C2826 0.930 . S
H2814 C2830 0.959 . S
H2815 C2830 0.959 . S
H2816 C2830 0.961 . S
H2817 C2831 0.960 . S
H2818 C2831 0.961 . S
H2819 C2831 0.959 . S
H2820 C2834 0.929 . S
H2821 C2835 0.931 . S
H2822 C2837 0.930 . S
C2823 H2811 0.930 . S
C2823 C2824 1.399 . S
C2823 C2828 1.399 . S
C2824 C2823 1.399 . S
C2824 C2825 1.376 . S
C2825 H2812 0.930 . S
C2825 C2824 1.376 . S
C2825 C2826 1.388 . S
C2826 H2813 0.930 . S
C2826 C2825 1.388 . S
C2826 C2827 1.390 . S
C2827 C2826 1.390 . S
C2827 C2828 1.394 . S
C2827 C2833 1.465 . S
C2828 C2823 1.399 . S
C2828 C2827 1.394 . S
C2828 C2829 1.516 . S
C2829 C2828 1.516 . S
C2829 C2830 1.502 . S
C2829 C2831 1.561 . S
C2829 C2832 1.526 . S
C2830 H2814 0.959 . S
C2830 H2815 0.959 . S
C2830 H2816 0.961 . S
C2830 C2829 1.502 . S
C2831 H2817 0.960 . S
C2831 H2818 0.961 . S
C2831 H2819 0.959 . S
C2831 C2829 1.561 . S
C2832 C2829 1.526 . S
C2832 C2833 1.396 . S
C2832 C2837 1.390 . S
C2833 C2827 1.465 . S
C2833 C2832 1.396 . S
C2833 C2834 1.399 . S
C2834 H2820 0.929 . S
C2834 C2833 1.399 . S
C2834 C2835 1.385 . S
C2835 H2821 0.931 . S
C2835 C2834 1.385 . S
C2835 C2836 1.389 . S
C2836 C2835 1.389 . S
C2836 C2837 1.387 . S
C2837 H2822 0.930 . S
C2837 C2832 1.390 . S
C2837 C2836 1.387 . S
H2838 C2850 0.930 . S
H2839 C2852 0.930 . S
H2840 C2853 0.930 . S
H2841 C2857 0.959 . S
H2842 C2857 0.959 . S
H2843 C2857 0.961 . S
H2844 C2858 0.960 . S
H2845 C2858 0.961 . S
H2846 C2858 0.959 . S
H2847 C2861 0.929 . S
H2848 C2862 0.931 . S
H2849 C2864 0.930 . S
C2850 H2838 0.930 . S
C2850 C2851 1.399 . S
C2850 C2855 1.399 . S
C2851 C2850 1.399 . S
C2851 C2852 1.376 . S
C2852 H2839 0.930 . S
C2852 C2851 1.376 . S
C2852 C2853 1.388 . S
C2853 H2840 0.930 . S
C2853 C2852 1.388 . S
C2853 C2854 1.390 . S
C2854 C2853 1.390 . S
C2854 C2855 1.394 . S
C2854 C2860 1.465 . S
C2855 C2850 1.399 . S
C2855 C2854 1.394 . S
C2855 C2856 1.516 . S
C2856 C2855 1.516 . S
C2856 C2857 1.502 . S
C2856 C2858 1.561 . S
C2856 C2859 1.526 . S
C2857 H2841 0.959 . S
C2857 H2842 0.959 . S
C2857 H2843 0.961 . S
C2857 C2856 1.502 . S
C2858 H2844 0.960 . S
C2858 H2845 0.961 . S
C2858 H2846 0.959 . S
C2858 C2856 1.561 . S
C2859 C2856 1.526 . S
C2859 C2860 1.396 . S
C2859 C2864 1.390 . S
C2860 C2854 1.465 . S
C2860 C2859 1.396 . S
C2860 C2861 1.399 . S
C2861 H2847 0.929 . S
C2861 C2860 1.399 . S
C2861 C2862 1.385 . S
C2862 H2848 0.931 . S
C2862 C2861 1.385 . S
C2862 C2863 1.389 . S
C2863 C2862 1.389 . S
C2863 C2864 1.387 . S
C2864 H2849 0.930 . S
C2864 C2859 1.390 . S
C2864 C2863 1.387 . S
H2865 C2877 0.930 . S
H2866 C2879 0.930 . S
H2867 C2880 0.930 . S
H2868 C2884 0.959 . S
H2869 C2884 0.959 . S
H2870 C2884 0.961 . S
H2871 C2885 0.960 . S
H2872 C2885 0.961 . S
H2873 C2885 0.959 . S
H2874 C2888 0.929 . S
H2875 C2889 0.931 . S
H2876 C2891 0.930 . S
C2877 H2865 0.930 . S
C2877 C2878 1.399 . S
C2877 C2882 1.399 . S
C2878 C2877 1.399 . S
C2878 C2879 1.376 . S
C2879 H2866 0.930 . S
C2879 C2878 1.376 . S
C2879 C2880 1.388 . S
C2880 H2867 0.930 . S
C2880 C2879 1.388 . S
C2880 C2881 1.390 . S
C2881 C2880 1.390 . S
C2881 C2882 1.394 . S
C2881 C2887 1.465 . S
C2882 C2877 1.399 . S
C2882 C2881 1.394 . S
C2882 C2883 1.516 . S
C2883 C2882 1.516 . S
C2883 C2884 1.502 . S
C2883 C2885 1.561 . S
C2883 C2886 1.526 . S
C2884 H2868 0.959 . S
C2884 H2869 0.959 . S
C2884 H2870 0.961 . S
C2884 C2883 1.502 . S
C2885 H2871 0.960 . S
C2885 H2872 0.961 . S
C2885 H2873 0.959 . S
C2885 C2883 1.561 . S
C2886 C2883 1.526 . S
C2886 C2887 1.396 . S
C2886 C2891 1.390 . S
C2887 C2881 1.465 . S
C2887 C2886 1.396 . S
C2887 C2888 1.399 . S
C2888 H2874 0.929 . S
C2888 C2887 1.399 . S
C2888 C2889 1.385 . S
C2889 H2875 0.931 . S
C2889 C2888 1.385 . S
C2889 C2890 1.389 . S
C2890 C2889 1.389 . S
C2890 C2891 1.387 . S
C2891 H2876 0.930 . S
C2891 C2886 1.390 . S
C2891 C2890 1.387 . S
H2892 C2904 0.930 . S
H2893 C2906 0.930 . S
H2894 C2907 0.930 . S
H2895 C2911 0.959 . S
H2896 C2911 0.959 . S
H2897 C2911 0.961 . S
H2898 C2912 0.960 . S
H2899 C2912 0.961 . S
H2900 C2912 0.959 . S
H2901 C2915 0.929 . S
H2902 C2916 0.931 . S
H2903 C2918 0.930 . S
C2904 H2892 0.930 . S
C2904 C2905 1.399 . S
C2904 C2909 1.399 . S
C2905 C2904 1.399 . S
C2905 C2906 1.376 . S
C2906 H2893 0.930 . S
C2906 C2905 1.376 . S
C2906 C2907 1.388 . S
C2907 H2894 0.930 . S
C2907 C2906 1.388 . S
C2907 C2908 1.390 . S
C2908 C2907 1.390 . S
C2908 C2909 1.394 . S
C2908 C2914 1.465 . S
C2909 C2904 1.399 . S
C2909 C2908 1.394 . S
C2909 C2910 1.516 . S
C2910 C2909 1.516 . S
C2910 C2911 1.502 . S
C2910 C2912 1.561 . S
C2910 C2913 1.526 . S
C2911 H2895 0.959 . S
C2911 H2896 0.959 . S
C2911 H2897 0.961 . S
C2911 C2910 1.502 . S
C2912 H2898 0.960 . S
C2912 H2899 0.961 . S
C2912 H2900 0.959 . S
C2912 C2910 1.561 . S
C2913 C2910 1.526 . S
C2913 C2914 1.396 . S
C2913 C2918 1.390 . S
C2914 C2908 1.465 . S
C2914 C2913 1.396 . S
C2914 C2915 1.399 . S
C2915 H2901 0.929 . S
C2915 C2914 1.399 . S
C2915 C2916 1.385 . S
C2916 H2902 0.931 . S
C2916 C2915 1.385 . S
C2916 C2917 1.389 . S
C2917 C2916 1.389 . S
C2917 C2918 1.387 . S
C2918 H2903 0.930 . S
C2918 C2913 1.390 . S
C2918 C2917 1.387 . S
H2919 C2931 0.930 . S
H2920 C2933 0.930 . S
H2921 C2934 0.930 . S
H2922 C2938 0.959 . S
H2923 C2938 0.959 . S
H2924 C2938 0.961 . S
H2925 C2939 0.960 . S
H2926 C2939 0.961 . S
H2927 C2939 0.959 . S
H2928 C2942 0.929 . S
H2929 C2943 0.931 . S
H2930 C2945 0.930 . S
C2931 H2919 0.930 . S
C2931 C2932 1.399 . S
C2931 C2936 1.399 . S
C2932 C2931 1.399 . S
C2932 C2933 1.376 . S
C2933 H2920 0.930 . S
C2933 C2932 1.376 . S
C2933 C2934 1.388 . S
C2934 H2921 0.930 . S
C2934 C2933 1.388 . S
C2934 C2935 1.390 . S
C2935 C2934 1.390 . S
C2935 C2936 1.394 . S
C2935 C2941 1.465 . S
C2936 C2931 1.399 . S
C2936 C2935 1.394 . S
C2936 C2937 1.516 . S
C2937 C2936 1.516 . S
C2937 C2938 1.502 . S
C2937 C2939 1.561 . S
C2937 C2940 1.526 . S
C2938 H2922 0.959 . S
C2938 H2923 0.959 . S
C2938 H2924 0.961 . S
C2938 C2937 1.502 . S
C2939 H2925 0.960 . S
C2939 H2926 0.961 . S
C2939 H2927 0.959 . S
C2939 C2937 1.561 . S
C2940 C2937 1.526 . S
C2940 C2941 1.396 . S
C2940 C2945 1.390 . S
C2941 C2935 1.465 . S
C2941 C2940 1.396 . S
C2941 C2942 1.399 . S
C2942 H2928 0.929 . S
C2942 C2941 1.399 . S
C2942 C2943 1.385 . S
C2943 H2929 0.931 . S
C2943 C2942 1.385 . S
C2943 C2944 1.389 . S
C2944 C2943 1.389 . S
C2944 C2945 1.387 . S
C2945 H2930 0.930 . S
C2945 C2940 1.390 . S
C2945 C2944 1.387 . S
H2946 C2958 0.930 . S
H2947 C2960 0.930 . S
H2948 C2961 0.930 . S
H2949 C2965 0.959 . S
H2950 C2965 0.959 . S
H2951 C2965 0.961 . S
H2952 C2966 0.960 . S
H2953 C2966 0.961 . S
H2954 C2966 0.959 . S
H2955 C2969 0.929 . S
H2956 C2970 0.931 . S
H2957 C2972 0.930 . S
C2958 H2946 0.930 . S
C2958 C2959 1.399 . S
C2958 C2963 1.399 . S
C2959 C2958 1.399 . S
C2959 C2960 1.376 . S
C2960 H2947 0.930 . S
C2960 C2959 1.376 . S
C2960 C2961 1.388 . S
C2961 H2948 0.930 . S
C2961 C2960 1.388 . S
C2961 C2962 1.390 . S
C2962 C2961 1.390 . S
C2962 C2963 1.394 . S
C2962 C2968 1.465 . S
C2963 C2958 1.399 . S
C2963 C2962 1.394 . S
C2963 C2964 1.516 . S
C2964 C2963 1.516 . S
C2964 C2965 1.502 . S
C2964 C2966 1.561 . S
C2964 C2967 1.526 . S
C2965 H2949 0.959 . S
C2965 H2950 0.959 . S
C2965 H2951 0.961 . S
C2965 C2964 1.502 . S
C2966 H2952 0.960 . S
C2966 H2953 0.961 . S
C2966 H2954 0.959 . S
C2966 C2964 1.561 . S
C2967 C2964 1.526 . S
C2967 C2968 1.396 . S
C2967 C2972 1.390 . S
C2968 C2962 1.465 . S
C2968 C2967 1.396 . S
C2968 C2969 1.399 . S
C2969 H2955 0.929 . S
C2969 C2968 1.399 . S
C2969 C2970 1.385 . S
C2970 H2956 0.931 . S
C2970 C2969 1.385 . S
C2970 C2971 1.389 . S
C2971 C2970 1.389 . S
C2971 C2972 1.387 . S
C2972 H2957 0.930 . S
C2972 C2967 1.390 . S
C2972 C2971 1.387 . S
H2973 C2985 0.930 . S
H2974 C2987 0.930 . S
H2975 C2988 0.930 . S
H2976 C2992 0.959 . S
H2977 C2992 0.959 . S
H2978 C2992 0.961 . S
H2979 C2993 0.960 . S
H2980 C2993 0.961 . S
H2981 C2993 0.959 . S
H2982 C2996 0.929 . S
H2983 C2997 0.931 . S
H2984 C2999 0.930 . S
C2985 H2973 0.930 . S
C2985 C2986 1.399 . S
C2985 C2990 1.399 . S
C2986 C2985 1.399 . S
C2986 C2987 1.376 . S
C2987 H2974 0.930 . S
C2987 C2986 1.376 . S
C2987 C2988 1.388 . S
C2988 H2975 0.930 . S
C2988 C2987 1.388 . S
C2988 C2989 1.390 . S
C2989 C2988 1.390 . S
C2989 C2990 1.394 . S
C2989 C2995 1.465 . S
C2990 C2985 1.399 . S
C2990 C2989 1.394 . S
C2990 C2991 1.516 . S
C2991 C2990 1.516 . S
C2991 C2992 1.502 . S
C2991 C2993 1.561 . S
C2991 C2994 1.526 . S
C2992 H2976 0.959 . S
C2992 H2977 0.959 . S
C2992 H2978 0.961 . S
C2992 C2991 1.502 . S
C2993 H2979 0.960 . S
C2993 H2980 0.961 . S
C2993 H2981 0.959 . S
C2993 C2991 1.561 . S
C2994 C2991 1.526 . S
C2994 C2995 1.396 . S
C2994 C2999 1.390 . S
C2995 C2989 1.465 . S
C2995 C2994 1.396 . S
C2995 C2996 1.399 . S
C2996 H2982 0.929 . S
C2996 C2995 1.399 . S
C2996 C2997 1.385 . S
C2997 H2983 0.931 . S
C2997 C2996 1.385 . S
C2997 C2998 1.389 . S
C2998 C2997 1.389 . S
C2998 C2999 1.387 . S
C2999 H2984 0.930 . S
C2999 C2994 1.390 . S
C2999 C2998 1.387 . S
H3000 C3012 0.930 . S
H3001 C3014 0.930 . S
H3002 C3015 0.930 . S
H3003 C3019 0.959 . S
H3004 C3019 0.959 . S
H3005 C3019 0.961 . S
H3006 C3020 0.960 . S
H3007 C3020 0.961 . S
H3008 C3020 0.959 . S
H3009 C3023 0.929 . S
H3010 C3024 0.931 . S
H3011 C3026 0.930 . S
C3012 H3000 0.930 . S
C3012 C3013 1.399 . S
C3012 C3017 1.399 . S
C3013 C3012 1.399 . S
C3013 C3014 1.376 . S
C3014 H3001 0.930 . S
C3014 C3013 1.376 . S
C3014 C3015 1.388 . S
C3015 H3002 0.930 . S
C3015 C3014 1.388 . S
C3015 C3016 1.390 . S
C3016 C3015 1.390 . S
C3016 C3017 1.394 . S
C3016 C3022 1.465 . S
C3017 C3012 1.399 . S
C3017 C3016 1.394 . S
C3017 C3018 1.516 . S
C3018 C3017 1.516 . S
C3018 C3019 1.502 . S
C3018 C3020 1.561 . S
C3018 C3021 1.526 . S
C3019 H3003 0.959 . S
C3019 H3004 0.959 . S
C3019 H3005 0.961 . S
C3019 C3018 1.502 . S
C3020 H3006 0.960 . S
C3020 H3007 0.961 . S
C3020 H3008 0.959 . S
C3020 C3018 1.561 . S
C3021 C3018 1.526 . S
C3021 C3022 1.396 . S
C3021 C3026 1.390 . S
C3022 C3016 1.465 . S
C3022 C3021 1.396 . S
C3022 C3023 1.399 . S
C3023 H3009 0.929 . S
C3023 C3022 1.399 . S
C3023 C3024 1.385 . S
C3024 H3010 0.931 . S
C3024 C3023 1.385 . S
C3024 C3025 1.389 . S
C3025 C3024 1.389 . S
C3025 C3026 1.387 . S
C3026 H3011 0.930 . S
C3026 C3021 1.390 . S
C3026 C3025 1.387 . S
H3027 C3039 0.930 . S
H3028 C3041 0.930 . S
H3029 C3042 0.930 . S
H3030 C3046 0.959 . S
H3031 C3046 0.959 . S
H3032 C3046 0.961 . S
H3033 C3047 0.960 . S
H3034 C3047 0.961 . S
H3035 C3047 0.959 . S
H3036 C3050 0.929 . S
H3037 C3051 0.931 . S
H3038 C3053 0.930 . S
C3039 H3027 0.930 . S
C3039 C3040 1.399 . S
C3039 C3044 1.399 . S
C3040 C3039 1.399 . S
C3040 C3041 1.376 . S
C3041 H3028 0.930 . S
C3041 C3040 1.376 . S
C3041 C3042 1.388 . S
C3042 H3029 0.930 . S
C3042 C3041 1.388 . S
C3042 C3043 1.390 . S
C3043 C3042 1.390 . S
C3043 C3044 1.394 . S
C3043 C3049 1.465 . S
C3044 C3039 1.399 . S
C3044 C3043 1.394 . S
C3044 C3045 1.516 . S
C3045 C3044 1.516 . S
C3045 C3046 1.502 . S
C3045 C3047 1.561 . S
C3045 C3048 1.526 . S
C3046 H3030 0.959 . S
C3046 H3031 0.959 . S
C3046 H3032 0.961 . S
C3046 C3045 1.502 . S
C3047 H3033 0.960 . S
C3047 H3034 0.961 . S
C3047 H3035 0.959 . S
C3047 C3045 1.561 . S
C3048 C3045 1.526 . S
C3048 C3049 1.396 . S
C3048 C3053 1.390 . S
C3049 C3043 1.465 . S
C3049 C3048 1.396 . S
C3049 C3050 1.399 . S
C3050 H3036 0.929 . S
C3050 C3049 1.399 . S
C3050 C3051 1.385 . S
C3051 H3037 0.931 . S
C3051 C3050 1.385 . S
C3051 C3052 1.389 . S
C3052 C3051 1.389 . S
C3052 C3053 1.387 . S
C3053 H3038 0.930 . S
C3053 C3048 1.390 . S
C3053 C3052 1.387 . S
H3054 C3066 0.930 . S
H3055 C3068 0.930 . S
H3056 C3069 0.930 . S
H3057 C3073 0.959 . S
H3058 C3073 0.959 . S
H3059 C3073 0.961 . S
H3060 C3074 0.960 . S
H3061 C3074 0.961 . S
H3062 C3074 0.959 . S
H3063 C3077 0.929 . S
H3064 C3078 0.931 . S
H3065 C3080 0.930 . S
C3066 H3054 0.930 . S
C3066 C3067 1.399 . S
C3066 C3071 1.399 . S
C3067 C3066 1.399 . S
C3067 C3068 1.376 . S
C3068 H3055 0.930 . S
C3068 C3067 1.376 . S
C3068 C3069 1.388 . S
C3069 H3056 0.930 . S
C3069 C3068 1.388 . S
C3069 C3070 1.390 . S
C3070 C3069 1.390 . S
C3070 C3071 1.394 . S
C3070 C3076 1.465 . S
C3071 C3066 1.399 . S
C3071 C3070 1.394 . S
C3071 C3072 1.516 . S
C3072 C3071 1.516 . S
C3072 C3073 1.502 . S
C3072 C3074 1.561 . S
C3072 C3075 1.526 . S
C3073 H3057 0.959 . S
C3073 H3058 0.959 . S
C3073 H3059 0.961 . S
C3073 C3072 1.502 . S
C3074 H3060 0.960 . S
C3074 H3061 0.961 . S
C3074 H3062 0.959 . S
C3074 C3072 1.561 . S
C3075 C3072 1.526 . S
C3075 C3076 1.396 . S
C3075 C3080 1.390 . S
C3076 C3070 1.465 . S
C3076 C3075 1.396 . S
C3076 C3077 1.399 . S
C3077 H3063 0.929 . S
C3077 C3076 1.399 . S
C3077 C3078 1.385 . S
C3078 H3064 0.931 . S
C3078 C3077 1.385 . S
C3078 C3079 1.389 . S
C3079 C3078 1.389 . S
C3079 C3080 1.387 . S
C3080 H3065 0.930 . S
C3080 C3075 1.390 . S
C3080 C3079 1.387 . S
H3081 C3093 0.930 . S
H3082 C3095 0.930 . S
H3083 C3096 0.930 . S
H3084 C3100 0.959 . S
H3085 C3100 0.959 . S
H3086 C3100 0.961 . S
H3087 C3101 0.960 . S
H3088 C3101 0.961 . S
H3089 C3101 0.959 . S
H3090 C3104 0.929 . S
H3091 C3105 0.931 . S
H3092 C3107 0.930 . S
C3093 H3081 0.930 . S
C3093 C3094 1.399 . S
C3093 C3098 1.399 . S
C3094 C3093 1.399 . S
C3094 C3095 1.376 . S
C3095 H3082 0.930 . S
C3095 C3094 1.376 . S
C3095 C3096 1.388 . S
C3096 H3083 0.930 . S
C3096 C3095 1.388 . S
C3096 C3097 1.390 . S
C3097 C3096 1.390 . S
C3097 C3098 1.394 . S
C3097 C3103 1.465 . S
C3098 C3093 1.399 . S
C3098 C3097 1.394 . S
C3098 C3099 1.516 . S
C3099 C3098 1.516 . S
C3099 C3100 1.502 . S
C3099 C3101 1.561 . S
C3099 C3102 1.526 . S
C3100 H3084 0.959 . S
C3100 H3085 0.959 . S
C3100 H3086 0.961 . S
C3100 C3099 1.502 . S
C3101 H3087 0.960 . S
C3101 H3088 0.961 . S
C3101 H3089 0.959 . S
C3101 C3099 1.561 . S
C3102 C3099 1.526 . S
C3102 C3103 1.396 . S
C3102 C3107 1.390 . S
C3103 C3097 1.465 . S
C3103 C3102 1.396 . S
C3103 C3104 1.399 . S
C3104 H3090 0.929 . S
C3104 C3103 1.399 . S
C3104 C3105 1.385 . S
C3105 H3091 0.931 . S
C3105 C3104 1.385 . S
C3105 C3106 1.389 . S
C3106 C3105 1.389 . S
C3106 C3107 1.387 . S
C3107 H3092 0.930 . S
C3107 C3102 1.390 . S
C3107 C3106 1.387 . S
H3108 C3120 0.930 . S
H3109 C3122 0.930 . S
H3110 C3123 0.930 . S
H3111 C3127 0.959 . S
H3112 C3127 0.959 . S
H3113 C3127 0.961 . S
H3114 C3128 0.960 . S
H3115 C3128 0.961 . S
H3116 C3128 0.959 . S
H3117 C3131 0.929 . S
H3118 C3132 0.931 . S
H3119 C3134 0.930 . S
C3120 H3108 0.930 . S
C3120 C3121 1.399 . S
C3120 C3125 1.399 . S
C3121 C3120 1.399 . S
C3121 C3122 1.376 . S
C3122 H3109 0.930 . S
C3122 C3121 1.376 . S
C3122 C3123 1.388 . S
C3123 H3110 0.930 . S
C3123 C3122 1.388 . S
C3123 C3124 1.390 . S
C3124 C3123 1.390 . S
C3124 C3125 1.394 . S
C3124 C3130 1.465 . S
C3125 C3120 1.399 . S
C3125 C3124 1.394 . S
C3125 C3126 1.516 . S
C3126 C3125 1.516 . S
C3126 C3127 1.502 . S
C3126 C3128 1.561 . S
C3126 C3129 1.526 . S
C3127 H3111 0.959 . S
C3127 H3112 0.959 . S
C3127 H3113 0.961 . S
C3127 C3126 1.502 . S
C3128 H3114 0.960 . S
C3128 H3115 0.961 . S
C3128 H3116 0.959 . S
C3128 C3126 1.561 . S
C3129 C3126 1.526 . S
C3129 C3130 1.396 . S
C3129 C3134 1.390 . S
C3130 C3124 1.465 . S
C3130 C3129 1.396 . S
C3130 C3131 1.399 . S
C3131 H3117 0.929 . S
C3131 C3130 1.399 . S
C3131 C3132 1.385 . S
C3132 H3118 0.931 . S
C3132 C3131 1.385 . S
C3132 C3133 1.389 . S
C3133 C3132 1.389 . S
C3133 C3134 1.387 . S
C3134 H3119 0.930 . S
C3134 C3129 1.390 . S
C3134 C3133 1.387 . S
H3135 C3147 0.930 . S
H3136 C3149 0.930 . S
H3137 C3150 0.930 . S
H3138 C3154 0.959 . S
H3139 C3154 0.959 . S
H3140 C3154 0.961 . S
H3141 C3155 0.960 . S
H3142 C3155 0.961 . S
H3143 C3155 0.959 . S
H3144 C3158 0.929 . S
H3145 C3159 0.931 . S
H3146 C3161 0.930 . S
C3147 H3135 0.930 . S
C3147 C3148 1.399 . S
C3147 C3152 1.399 . S
C3148 C3147 1.399 . S
C3148 C3149 1.376 . S
C3149 H3136 0.930 . S
C3149 C3148 1.376 . S
C3149 C3150 1.388 . S
C3150 H3137 0.930 . S
C3150 C3149 1.388 . S
C3150 C3151 1.390 . S
C3151 C3150 1.390 . S
C3151 C3152 1.394 . S
C3151 C3157 1.465 . S
C3152 C3147 1.399 . S
C3152 C3151 1.394 . S
C3152 C3153 1.516 . S
C3153 C3152 1.516 . S
C3153 C3154 1.502 . S
C3153 C3155 1.561 . S
C3153 C3156 1.526 . S
C3154 H3138 0.959 . S
C3154 H3139 0.959 . S
C3154 H3140 0.961 . S
C3154 C3153 1.502 . S
C3155 H3141 0.960 . S
C3155 H3142 0.961 . S
C3155 H3143 0.959 . S
C3155 C3153 1.561 . S
C3156 C3153 1.526 . S
C3156 C3157 1.396 . S
C3156 C3161 1.390 . S
C3157 C3151 1.465 . S
C3157 C3156 1.396 . S
C3157 C3158 1.399 . S
C3158 H3144 0.929 . S
C3158 C3157 1.399 . S
C3158 C3159 1.385 . S
C3159 H3145 0.931 . S
C3159 C3158 1.385 . S
C3159 C3160 1.389 . S
C3160 C3159 1.389 . S
C3160 C3161 1.387 . S
C3161 H3146 0.930 . S
C3161 C3156 1.390 . S
C3161 C3160 1.387 . S
H3162 C3174 0.930 . S
H3163 C3176 0.930 . S
H3164 C3177 0.930 . S
H3165 C3181 0.959 . S
H3166 C3181 0.959 . S
H3167 C3181 0.961 . S
H3168 C3182 0.960 . S
H3169 C3182 0.961 . S
H3170 C3182 0.959 . S
H3171 C3185 0.929 . S
H3172 C3186 0.931 . S
H3173 C3188 0.930 . S
C3174 H3162 0.930 . S
C3174 C3175 1.399 . S
C3174 C3179 1.399 . S
C3175 C3174 1.399 . S
C3175 C3176 1.376 . S
C3176 H3163 0.930 . S
C3176 C3175 1.376 . S
C3176 C3177 1.388 . S
C3177 H3164 0.930 . S
C3177 C3176 1.388 . S
C3177 C3178 1.390 . S
C3178 C3177 1.390 . S
C3178 C3179 1.394 . S
C3178 C3184 1.465 . S
C3179 C3174 1.399 . S
C3179 C3178 1.394 . S
C3179 C3180 1.516 . S
C3180 C3179 1.516 . S
C3180 C3181 1.502 . S
C3180 C3182 1.561 . S
C3180 C3183 1.526 . S
C3181 H3165 0.959 . S
C3181 H3166 0.959 . S
C3181 H3167 0.961 . S
C3181 C3180 1.502 . S
C3182 H3168 0.960 . S
C3182 H3169 0.961 . S
C3182 H3170 0.959 . S
C3182 C3180 1.561 . S
C3183 C3180 1.526 . S
C3183 C3184 1.396 . S
C3183 C3188 1.390 . S
C3184 C3178 1.465 . S
C3184 C3183 1.396 . S
C3184 C3185 1.399 . S
C3185 H3171 0.929 . S
C3185 C3184 1.399 . S
C3185 C3186 1.385 . S
C3186 H3172 0.931 . S
C3186 C3185 1.385 . S
C3186 C3187 1.389 . S
C3187 C3186 1.389 . S
C3187 C3188 1.387 . S
C3188 H3173 0.930 . S
C3188 C3183 1.390 . S
C3188 C3187 1.387 . S
H3189 C3201 0.930 . S
H3190 C3203 0.930 . S
H3191 C3204 0.930 . S
H3192 C3208 0.959 . S
H3193 C3208 0.959 . S
H3194 C3208 0.961 . S
H3195 C3209 0.960 . S
H3196 C3209 0.961 . S
H3197 C3209 0.959 . S
H3198 C3212 0.929 . S
H3199 C3213 0.931 . S
H3200 C3215 0.930 . S
C3201 H3189 0.930 . S
C3201 C3202 1.399 . S
C3201 C3206 1.399 . S
C3202 C3201 1.399 . S
C3202 C3203 1.376 . S
C3203 H3190 0.930 . S
C3203 C3202 1.376 . S
C3203 C3204 1.388 . S
C3204 H3191 0.930 . S
C3204 C3203 1.388 . S
C3204 C3205 1.390 . S
C3205 C3204 1.390 . S
C3205 C3206 1.394 . S
C3205 C3211 1.465 . S
C3206 C3201 1.399 . S
C3206 C3205 1.394 . S
C3206 C3207 1.516 . S
C3207 C3206 1.516 . S
C3207 C3208 1.502 . S
C3207 C3209 1.561 . S
C3207 C3210 1.526 . S
C3208 H3192 0.959 . S
C3208 H3193 0.959 . S
C3208 H3194 0.961 . S
C3208 C3207 1.502 . S
C3209 H3195 0.960 . S
C3209 H3196 0.961 . S
C3209 H3197 0.959 . S
C3209 C3207 1.561 . S
C3210 C3207 1.526 . S
C3210 C3211 1.396 . S
C3210 C3215 1.390 . S
C3211 C3205 1.465 . S
C3211 C3210 1.396 . S
C3211 C3212 1.399 . S
C3212 H3198 0.929 . S
C3212 C3211 1.399 . S
C3212 C3213 1.385 . S
C3213 H3199 0.931 . S
C3213 C3212 1.385 . S
C3213 C3214 1.389 . S
C3214 C3213 1.389 . S
C3214 C3215 1.387 . S
C3215 H3200 0.930 . S
C3215 C3210 1.390 . S
C3215 C3214 1.387 . S
C1069 C18 1.538 . S
C1081 C810 1.521 . S
C1096 C315 1.536 . S
C1108 C51 1.518 . S
C1123 C876 1.532 . S
C1135 C84 1.528 . S
C1150 C381 1.539 . S
C1162 C117 1.517 . S
C1177 C942 1.521 . S
C1189 C150 1.532 . S
C1204 C447 1.524 . S
C1216 C183 1.529 . S
C1231 C1008 1.517 . S
C1243 C216 1.537 . S
C1258 C513 1.540 . S
C1270 C249 1.517 . S
C1285 C282 1.522 . S
C1297 C546 1.537 . S
C1312 C348 1.532 . S
C1324 C612 1.528 . S
C1339 C414 1.535 . S
C1351 C678 1.524 . S
C1366 C744 1.518 . S
C1378 C480 1.535 . S
C1393 C579 1.528 . S
C1405 C843 1.525 . S
C1420 C909 1.518 . S
C1432 C645 1.540 . S
C1447 C711 1.538 . S
C1459 C975 1.517 . S
C1474 C1041 1.529 . S
C1486 C777 1.523 . S
C1501 N13 1.319 . S
C1513 C384 1.386 . S
C1528 N46 1.308 . S
C1540 C813 1.376 . S
C1555 C318 1.370 . S
C1567 N79 1.313 . S
C1582 N112 1.374 . S
C1594 C879 1.374 . S
C1609 C450 1.368 . S
C1621 N145 1.315 . S
C1636 C1011 1.381 . S
C1648 N178 1.362 . S
C1663 N211 1.377 . S
C1675 C516 1.361 . S
C1690 C945 1.359 . S
C1702 N244 1.374 . S
C1717 N277 1.331 . S
C1729 C120 1.369 . S
C1744 N310 1.325 . S
C1756 C549 1.371 . S
C1771 C54 1.386 . S
C1783 N343 1.311 . S
C1798 N376 1.310 . S
C1810 C615 1.381 . S
C1825 N409 1.318 . S
C1837 C186 1.375 . S
C1852 C747 1.356 . S
C1864 N442 1.371 . S
C1879 C252 1.386 . S
C1891 N475 1.312 . S
C1906 N508 1.309 . S
C1918 C681 1.383 . S
C1933 C912 1.371 . S
C1945 N541 1.376 . S
C1960 C285 1.381 . S
C1972 N574 1.360 . S
C1987 C846 1.374 . S
C1999 N607 1.374 . S
C2014 N640 1.309 . S
C2026 C351 1.380 . S
C2041 C978 1.385 . S
C2053 N673 1.350 . S
C2068 C483 1.366 . S
C2080 N706 1.318 . S
C2095 N739 1.375 . S
C2107 C1044 1.359 . S
C2122 C417 1.373 . S
C2134 N772 1.374 . S
C2149 C648 1.358 . S
C2161 N805 1.378 . S
C2176 N838 1.374 . S
C2188 C21 1.365 . S
C2203 N871 1.365 . S
C2215 C582 1.370 . S
C2230 C87 1.386 . S
C2242 N904 1.312 . S
C2257 C714 1.355 . S
C2269 N937 1.374 . S
C2284 N970 1.358 . S
C2296 C219 1.359 . S
C2311 C780 1.360 . S
C2323 N1003 1.378 . S
C2338 C153 1.384 . S
C2350 N1036 1.329 . S
C2365 C7 1.074 . S
C2377 C205 1.032 . S
C2392 C238 1.024 . S
C2404 C40 1.057 . S
C2419 C73 1.068 . S
C2431 C139 1.085 . S
C2446 C106 1.087 . S
C2458 C172 1.053 . S
C2473 C469 1.026 . S
C2485 C271 1.044 . S
C2500 C502 1.050 . S
C2512 C304 1.029 . S
C2527 C403 1.029 . S
C2539 C337 1.051 . S
C2554 C436 1.025 . S
C2566 C370 1.041 . S
C2581 C535 1.049 . S
C2593 C733 1.025 . S
C2608 C568 1.074 . S
C2620 C766 1.032 . S
C2635 C601 1.049 . S
C2647 C667 1.025 . S
C2662 C634 1.037 . S
C2674 C700 1.079 . S
C2689 C997 1.024 . S
C2701 C799 1.039 . S
C2716 C1030 1.063 . S
C2728 C832 1.083 . S
C2743 C865 1.086 . S
C2755 C931 1.070 . S
C2770 C898 1.056 . S
C2782 C964 1.032 . S
C2797 N2 1.664 . S
C2809 N695 1.685 . S
C2824 N35 1.659 . S
C2836 N728 1.698 . S
C2851 N68 1.715 . S
C2863 N761 1.685 . S
C2878 N101 1.670 . S
C2890 N662 1.676 . S
C2905 N629 1.660 . S
C2917 N134 1.705 . S
C2932 N167 1.659 . S
C2944 N530 1.702 . S
C2959 N563 1.716 . S
C2971 N200 1.676 . S
C2986 N233 1.715 . S
C2998 N596 1.684 . S
C3013 N959 1.681 . S
C3025 N266 1.713 . S
C3040 N299 1.681 . S
C3052 N992 1.713 . S
C3067 N1025 1.695 . S
C3079 N332 1.715 . S
C3094 N365 1.683 . S
C3106 N926 1.714 . S
C3121 N398 1.698 . S
C3133 N893 1.664 . S
C3148 N794 1.672 . S
C3160 N431 1.662 . S
C3175 N464 1.687 . S
C3187 N827 1.715 . S
C3202 N497 1.674 . S
C3214 N860 1.662 . S
