# Generated by pormake.
# Topology ske, (6)-cn, num edge types: 1
# Building blocks:
#     Node 0, Type 0, BuildingBlock: PAMTUU_clean_sbu_0, # of connection points: 6
#     Node 1, Type 0, BuildingBlock: PAMTUU_clean_sbu_0, # of connection points: 6
#     Node 2, Type 0, BuildingBlock: PAMTUU_clean_sbu_0, # of connection points: 6
#     Node 3, Type 0, BuildingBlock: PAMTUU_clean_sbu_0, # of connection points: 6
#     Node 4, Type 0, BuildingBlock: PAMTUU_clean_sbu_0, # of connection points: 6
#     Node 5, Type 0, BuildingBlock: PAMTUU_clean_sbu_0, # of connection points: 6
#     Node 6, Type 0, BuildingBlock: PAMTUU_clean_sbu_0, # of connection points: 6
#     Node 7, Type 0, BuildingBlock: PAMTUU_clean_sbu_0, # of connection points: 6
#     Edge 8, Type (0, 0), BuildingBlock: EZIPEK_clean_linker_0, # of connection points: 2
#     Edge 9, Type (0, 0), BuildingBlock: EZIPEK_clean_linker_0, # of connection points: 2
#     Edge 10, Type (0, 0), BuildingBlock: EZIPEK_clean_linker_0, # of connection points: 2
#     Edge 11, Type (0, 0), BuildingBlock: EZIPEK_clean_linker_0, # of connection points: 2
#     Edge 12, Type (0, 0), BuildingBlock: EZIPEK_clean_linker_0, # of connection points: 2
#     Edge 13, Type (0, 0), BuildingBlock: EZIPEK_clean_linker_0, # of connection points: 2
#     Edge 14, Type (0, 0), BuildingBlock: EZIPEK_clean_linker_0, # of connection points: 2
#     Edge 15, Type (0, 0), BuildingBlock: EZIPEK_clean_linker_0, # of connection points: 2
#     Edge 16, Type (0, 0), BuildingBlock: EZIPEK_clean_linker_0, # of connection points: 2
#     Edge 17, Type (0, 0), BuildingBlock: EZIPEK_clean_linker_0, # of connection points: 2
#     Edge 18, Type (0, 0), BuildingBlock: EZIPEK_clean_linker_0, # of connection points: 2
#     Edge 19, Type (0, 0), BuildingBlock: EZIPEK_clean_linker_0, # of connection points: 2
#     Edge 20, Type (0, 0), BuildingBlock: EZIPEK_clean_linker_0, # of connection points: 2
#     Edge 21, Type (0, 0), BuildingBlock: EZIPEK_clean_linker_0, # of connection points: 2
#     Edge 22, Type (0, 0), BuildingBlock: EZIPEK_clean_linker_0, # of connection points: 2
#     Edge 23, Type (0, 0), BuildingBlock: EZIPEK_clean_linker_0, # of connection points: 2
#     Edge 24, Type (0, 0), BuildingBlock: EZIPEK_clean_linker_0, # of connection points: 2
#     Edge 25, Type (0, 0), BuildingBlock: EZIPEK_clean_linker_0, # of connection points: 2
#     Edge 26, Type (0, 0), BuildingBlock: EZIPEK_clean_linker_0, # of connection points: 2
#     Edge 27, Type (0, 0), BuildingBlock: EZIPEK_clean_linker_0, # of connection points: 2
#     Edge 28, Type (0, 0), BuildingBlock: EZIPEK_clean_linker_0, # of connection points: 2
#     Edge 29, Type (0, 0), BuildingBlock: EZIPEK_clean_linker_0, # of connection points: 2
#     Edge 30, Type (0, 0), BuildingBlock: EZIPEK_clean_linker_0, # of connection points: 2
#     Edge 31, Type (0, 0), BuildingBlock: EZIPEK_clean_linker_0, # of connection points: 2
# Relax obj value: 0.137
# Max RMSD: 0.176
# Mean RMSD: 0.169
data_MOF--net-ske--node1-PAMTUU_clean_sbu_0--edge1-EZIPEK_clean_linker_0
_symmetry_space_group_name_H-M    P1
_symmetry_Int_Tables_number       1
_symmetry_cell_setting            triclinic
loop_
_symmetry_equiv_pos_as_xyz
'x, y, z'
_cell_length_a     87.966665
_cell_length_b     22.090226
_cell_length_c     11.266444
_cell_angle_alpha  89.95753
_cell_angle_beta   89.965844
_cell_angle_gamma 98.577794
loop_
_atom_site_label
_atom_site_type_symbol
_atom_site_fract_x
_atom_site_fract_y
_atom_site_fract_z
_atom_type_partial_charge
Tb0 Tb 0.16838 0.25561 0.55513 0.0
Tb1 Tb 0.12983 0.23837 0.56362 0.0
C2 C 0.15067 0.36525 0.54366 0.0
C3 C 0.21126 0.25367 0.61644 0.0
C4 C 0.24031 0.24101 0.71199 0.0
C5 C 0.23061 0.27595 0.77156 0.0
C6 C 0.21621 0.2823 0.72423 0.0
C7 C 0.22081 0.21697 0.55949 0.0
C8 C 0.23517 0.21053 0.60699 0.0
C9 C 0.19745 0.26831 0.5536 0.0
O10 O 0.162 0.26847 0.74034 0.0
O11 O 0.13695 0.21929 0.7426 0.0
O12 O 0.13463 0.14783 0.51969 0.0
O13 O 0.16003 0.15846 0.58144 0.0
O14 O 0.11105 0.28304 0.52415 0.0
O15 O 0.10791 0.19795 0.62389 0.0
O16 O 0.13502 0.23345 0.37449 0.0
O17 O 0.16164 0.25579 0.36919 0.0
O18 O 0.16194 0.34137 0.4963 0.0
O19 O 0.13998 0.33176 0.60567 0.0
C20 C 0.14959 0.24307 0.79747 0.0
O21 O 0.18866 0.22386 0.49973 0.0
O22 O 0.18949 0.30668 0.60359 0.0
C23 C 0.14719 0.12496 0.54557 0.0
C24 C 0.08519 0.23035 0.53788 0.0
C25 C 0.05303 0.22273 0.51097 0.0
C26 C 0.05936 0.17354 0.5598 0.0
C27 C 0.07531 0.17746 0.57388 0.0
C28 C 0.0788 0.27786 0.48251 0.0
C29 C 0.06289 0.27408 0.46926 0.0
C30 C 0.10134 0.24222 0.57973 0.0
C31 C 0.14817 0.24421 0.31619 0.0
H32 H 0.2344 0.29983 0.85269 0.0
H33 H 0.20922 0.31138 0.76989 0.0
H34 H 0.21742 0.19512 0.47557 0.0
H35 H 0.24251 0.18342 0.55978 0.0
H36 H 0.05191 0.1335 0.59251 0.0
H37 H 0.07981 0.14054 0.6187 0.0
H38 H 0.08603 0.3197 0.45577 0.0
H39 H 0.05822 0.3125 0.43148 0.0
Tb40 Tb 0.87118 0.20824 0.53156 0.0
Tb41 Tb 0.90962 0.22631 0.53195 0.0
C42 C 0.88949 0.09874 0.53226 0.0
C43 C 0.8283 0.20542 0.59761 0.0
C44 C 0.79947 0.21968 0.69571 0.0
C45 C 0.80654 0.16899 0.72639 0.0
C46 C 0.8208 0.1618 0.67755 0.0
C47 C 0.82134 0.25706 0.56986 0.0
C48 C 0.80708 0.26419 0.61877 0.0
C49 C 0.84206 0.1928 0.53101 0.0
O50 O 0.87755 0.19911 0.71774 0.0
O51 O 0.90348 0.23898 0.71722 0.0
O52 O 0.90294 0.31448 0.486 0.0
O53 O 0.87938 0.30279 0.57936 0.0
O54 O 0.92885 0.18649 0.48374 0.0
O55 O 0.93169 0.27527 0.5738 0.0
O56 O 0.90311 0.21147 0.34597 0.0
O57 O 0.87764 0.22641 0.34638 0.0
O58 O 0.87841 0.1221 0.47994 0.0
O59 O 0.90074 0.13347 0.58622 0.0
C60 C 0.8905 0.21956 0.77308 0.0
O61 O 0.85066 0.23876 0.48005 0.0
O62 O 0.85026 0.15396 0.5764 0.0
C63 C 0.89132 0.33744 0.53258 0.0
C64 C 0.95521 0.23214 0.52305 0.0
C65 C 0.98725 0.2305 0.51653 0.0
C66 C 0.98143 0.28327 0.55369 0.0
C67 C 0.96552 0.28405 0.55723 0.0
C68 C 0.96113 0.17958 0.48525 0.0
C69 C 0.97698 0.17874 0.48231 0.0
C70 C 0.93836 0.23179 0.52753 0.0
C71 C 0.8904 0.21945 0.29059 0.0
H72 H 0.8008 0.13411 0.7854 0.0
H73 H 0.82569 0.12098 0.69927 0.0
H74 H 0.82664 0.29098 0.50712 0.0
H75 H 0.80176 0.30353 0.59393 0.0
H76 H 0.9892 0.32365 0.58059 0.0
H77 H 0.9613 0.32514 0.58674 0.0
H78 H 0.9535 0.13876 0.45867 0.0
H79 H 0.98125 0.13759 0.45372 0.0
Tb80 Tb 0.12887 0.73229 0.50619 0.0
Tb81 Tb 0.16771 0.7533 0.51357 0.0
C82 C 0.14715 0.62398 0.51047 0.0
C83 C 0.08476 0.73144 0.53441 0.0
C84 C 0.05381 0.74963 0.55849 0.0
C85 C 0.05809 0.69213 0.5818 0.0
C86 C 0.07343 0.68315 0.56988 0.0
C87 C 0.08058 0.78994 0.51722 0.0
C88 C 0.0652 0.79894 0.52942 0.0
C89 C 0.09984 0.71674 0.49441 0.0
O90 O 0.13542 0.72138 0.69183 0.0
O91 O 0.16072 0.76948 0.6943 0.0
O92 O 0.16189 0.84426 0.48624 0.0
O93 O 0.13626 0.82895 0.54355 0.0
O94 O 0.18643 0.7053 0.51105 0.0
O95 O 0.19009 0.80314 0.53351 0.0
O96 O 0.16249 0.7504 0.32457 0.0
O97 O 0.13586 0.73375 0.32093 0.0
O98 O 0.13572 0.64534 0.45974 0.0
O99 O 0.15823 0.66008 0.56338 0.0
C100 C 0.14799 0.74566 0.74876 0.0
O101 O 0.10886 0.75797 0.43417 0.0
O102 O 0.10749 0.68419 0.56264 0.0
C103 C 0.14913 0.86472 0.51622 0.0
C104 C 0.21032 0.75718 0.44162 0.0
C105 C 0.2379 0.75954 0.30472 0.0
C106 C 0.23445 0.81214 0.36552 0.0
C107 C 0.22078 0.81127 0.43022 0.0
C108 C 0.21427 0.70345 0.39186 0.0
C109 C 0.2279 0.70434 0.32778 0.0
C110 C 0.19661 0.75427 0.51969 0.0
C111 C 0.1493 0.74203 0.26727 0.0
H112 H 0.04944 0.65354 0.60391 0.0
H113 H 0.07627 0.63747 0.58182 0.0
H114 H 0.089 0.82797 0.48856 0.0
H115 H 0.06208 0.84359 0.51073 0.0
H116 H 0.24243 0.85414 0.36908 0.0
H117 H 0.21866 0.85264 0.47482 0.0
H118 H 0.20708 0.65977 0.40589 0.0
H119 H 0.23062 0.6603 0.30152 0.0
Tb120 Tb 0.90992 0.72958 0.53041 0.0
Tb121 Tb 0.87141 0.70672 0.53047 0.0
C122 C 0.89053 0.83714 0.5289 0.0
C123 C 0.95582 0.74921 0.54117 0.0
C124 C 0.98818 0.75791 0.54776 0.0
C125 C 0.9812 0.80056 0.48277 0.0
C126 C 0.96514 0.79632 0.47965 0.0
C127 C 0.9629 0.70706 0.60713 0.0
C128 C 0.97892 0.71143 0.61047 0.0
C129 C 0.93882 0.74298 0.53568 0.0
O130 O 0.90336 0.71159 0.71558 0.0
O131 O 0.8779 0.72635 0.71513 0.0
O132 O 0.87936 0.62143 0.57969 0.0
O133 O 0.90208 0.63568 0.47696 0.0
O134 O 0.85076 0.73431 0.58639 0.0
O135 O 0.85059 0.6517 0.48343 0.0
O136 O 0.87776 0.69878 0.34409 0.0
O137 O 0.90366 0.7395 0.34438 0.0
O138 O 0.90216 0.8155 0.57803 0.0
O139 O 0.87901 0.80124 0.47969 0.0
C140 C 0.89063 0.71924 0.77108 0.0
O141 O 0.93003 0.69638 0.5827 0.0
O142 O 0.9313 0.78263 0.48481 0.0
C143 C 0.89075 0.59964 0.52788 0.0
C144 C 0.82844 0.70183 0.46948 0.0
C145 C 0.80017 0.72469 0.37401 0.0
C146 C 0.80238 0.66486 0.403 0.0
C147 C 0.81638 0.65359 0.45043 0.0
C148 C 0.82638 0.76169 0.43741 0.0
C149 C 0.81234 0.77298 0.38984 0.0
C150 C 0.84229 0.68881 0.53341 0.0
C151 C 0.89071 0.71941 0.28872 0.0
H152 H 0.98819 0.83665 0.43357 0.0
H153 H 0.96002 0.82942 0.42807 0.0
H154 H 0.95606 0.67032 0.65568 0.0
H155 H 0.98411 0.67806 0.66081 0.0
H156 H 0.79315 0.62704 0.39109 0.0
H157 H 0.81764 0.60721 0.47529 0.0
H158 H 0.83547 0.79983 0.45151 0.0
H159 H 0.81084 0.81942 0.36745 0.0
Tb160 Tb 0.66593 0.73309 0.04286 0.0
Tb161 Tb 0.62739 0.72011 0.05053 0.0
C162 C 0.64782 0.84803 1.02191 0.0
C163 C 0.70933 0.74801 0.11045 0.0
C164 C 0.739 0.75179 0.20864 0.0
C165 C 0.73636 0.79294 0.11869 0.0
C166 C 0.72166 0.79091 0.06983 0.0
C167 C 0.71185 0.70903 0.2051 0.0
C168 C 0.72657 0.71097 0.25373 0.0
C169 C 0.69493 0.73814 0.04034 0.0
O170 O 0.65942 0.71643 0.22849 0.0
O171 O 0.63535 0.746 0.22914 0.0
O172 O 0.63475 0.63454 0.10218 0.0
O173 O 0.65599 0.64213 0.98497 0.0
O174 O 0.60705 0.74618 0.11694 0.0
O175 O 0.6064 0.66566 1.00653 0.0
O176 O 0.63321 0.72009 0.86052 0.0
O177 O 0.65994 0.73793 0.85722 0.0
O178 O 0.66009 0.82554 0.05906 0.0
O179 O 0.63459 0.81393 0.99989 0.0
C180 C 0.64745 0.73176 0.28486 0.0
O181 O 0.68523 0.68876 0.06132 0.0
O182 O 0.68795 0.78484 1.0171 0.0
C183 C 0.64474 0.60898 0.04169 0.0
C184 C 0.58336 0.71086 1.01687 0.0
C185 C 0.55253 0.72445 0.97166 0.0
C186 C 0.55705 0.66625 0.97014 0.0
C187 C 0.57234 0.65954 0.99245 0.0
C188 C 0.57898 0.76954 1.01214 0.0
C189 C 0.56366 0.77624 0.98937 0.0
C190 C 0.59838 0.7006 0.06562 0.0
C191 C 0.64653 0.7302 0.80344 0.0
H192 H 0.74581 0.82476 0.08282 0.0
H193 H 0.72009 0.82091 0.99615 0.0
H194 H 0.70263 0.67517 0.23802 0.0
H195 H 0.7284 0.67892 0.32323 0.0
H196 H 0.54859 0.62582 0.95737 0.0
H197 H 0.57537 0.61382 0.99704 0.0
H198 H 0.58719 0.80991 0.03156 0.0
H199 H 0.56032 0.82149 0.99157 0.0
Tb200 Tb 0.37477 0.75365 0.03925 0.0
Tb201 Tb 0.41321 0.76466 0.04851 0.0
C202 C 0.39116 0.63735 0.03544 0.0
C203 C 0.33042 0.74456 0.06942 0.0
C204 C 0.29985 0.74417 0.1457 0.0
C205 C 0.30315 0.73586 0.02549 0.0
C206 C 0.31826 0.73577 0.98794 0.0
C207 C 0.32717 0.75077 0.1907 0.0
C208 C 0.31192 0.75006 0.22877 0.0
C209 C 0.34619 0.75597 1.02134 0.0
O210 O 0.38019 0.75966 0.22927 0.0
O211 O 0.40618 0.75159 0.23222 0.0
O212 O 0.4067 0.85098 0.10572 0.0
O213 O 0.38547 0.84508 0.98891 0.0
O214 O 0.43294 0.72947 0.10366 0.0
O215 O 0.43482 0.81634 1.01106 0.0
O216 O 0.40774 0.77995 0.86264 0.0
O217 O 0.38197 0.73892 0.85769 0.0
O218 O 0.37938 0.66172 0.07531 0.0
O219 O 0.40406 0.6707 1.00012 0.0
C220 C 0.39309 0.7548 0.28632 0.0
O221 O 0.3559 0.79908 0.06997 0.0
O222 O 0.35277 0.7101 0.9855 0.0
C223 C 0.39653 0.87737 0.04889 0.0
C224 C 0.45719 0.7665 1.01244 0.0
C225 C 0.48779 0.74914 0.9688 0.0
C226 C 0.48421 0.80809 0.98753 0.0
C227 C 0.46904 0.81668 1.0089 0.0
C228 C 0.46065 0.70768 0.9873 0.0
C229 C 0.47588 0.69913 0.96504 0.0
C230 C 0.44219 0.77633 0.0618 0.0
C231 C 0.39504 0.75946 0.8043 0.0
H232 H 0.29403 0.73118 0.96005 0.0
H233 H 0.32053 0.73162 0.89394 0.0
H234 H 0.33641 0.75826 0.25499 0.0
H235 H 0.30959 0.75641 0.32198 0.0
H236 H 0.49326 0.84711 0.99119 0.0
H237 H 0.46669 0.86231 0.02935 0.0
H238 H 0.45176 0.66811 0.99039 0.0
H239 H 0.47848 0.65325 0.95122 0.0
Tb240 Tb 0.62659 0.21059 0.99731 0.0
Tb241 Tb 0.66566 0.24369 0.99931 0.0
C242 C 0.64871 0.10933 0.98407 0.0
C243 C 0.58257 0.19702 1.01829 0.0
C244 C 0.55219 0.22052 0.05238 0.0
C245 C 0.55545 0.16029 0.05394 0.0
C246 C 0.57051 0.14869 0.03713 0.0
C247 C 0.57941 0.2576 1.02179 0.0
C248 C 0.56431 0.26923 0.03887 0.0
C249 C 0.59767 0.18218 0.97971 0.0
O250 O 0.63167 0.23037 0.18305 0.0
O251 O 0.65803 0.2298 0.18412 0.0
O252 O 0.65727 0.33107 1.00199 0.0
O253 O 0.63092 0.30811 0.03075 0.0
O254 O 0.68646 0.22172 0.06593 0.0
O255 O 0.6861 0.30279 0.95967 0.0
O256 O 0.66065 0.23976 0.81055 0.0
O257 O 0.63409 0.21316 0.81163 0.0
O258 O 0.63577 0.12546 1.02151 0.0
O259 O 0.66051 0.14845 0.94867 0.0
C260 C 0.6448 0.23069 0.23891 0.0
O261 O 0.60606 0.22161 0.91156 0.0
O262 O 0.60598 0.1573 0.05621 0.0
C263 C 0.64368 0.34709 1.02064 0.0
C264 C 0.70909 0.25835 0.95466 0.0
C265 C 0.73812 0.24273 0.86304 0.0
C266 C 0.73465 0.30157 0.88568 0.0
C267 C 0.72028 0.30927 0.93128 0.0
C268 C 0.71243 0.19936 0.92935 0.0
C269 C 0.72686 0.19166 0.88386 0.0
C270 C 0.69467 0.26833 1.01415 0.0
C271 C 0.64736 0.22644 0.75611 0.0
H272 H 0.54624 0.12217 0.06375 0.0
H273 H 0.57264 0.10165 0.03367 0.0
H274 H 0.58848 0.29574 1.00682 0.0
H275 H 0.56198 0.31601 0.03695 0.0
H276 H 0.74319 0.34147 0.87009 0.0
H277 H 0.71802 0.35511 0.95086 0.0
H278 H 0.70405 0.15923 0.9468 0.0
H279 H 0.72936 0.1459 0.86676 0.0
Tb280 Tb 0.41468 0.27754 1.00734 0.0
Tb281 Tb 0.37573 0.24197 1.01081 0.0
C282 C 0.39205 0.37724 0.99544 0.0
C283 C 0.45873 0.29376 1.02247 0.0
C284 C 0.48882 0.26665 0.05356 0.0
C285 C 0.48638 0.32666 0.02885 0.0
C286 C 0.47146 0.34007 1.01371 0.0
C287 C 0.46109 0.23393 0.05137 0.0
C288 C 0.47607 0.22051 0.06722 0.0
C289 C 0.44351 0.30828 0.98723 0.0
O290 O 0.40981 0.25613 0.193 0.0
O291 O 0.38344 0.25625 0.19541 0.0
O292 O 0.38451 0.15542 1.01229 0.0
O293 O 0.41085 0.17965 0.03917 0.0
O294 O 0.35475 0.26301 0.07648 0.0
O295 O 0.35553 0.18104 0.97438 0.0
O296 O 0.3806 0.24551 0.82172 0.0
O297 O 0.40709 0.2743 0.82193 0.0
O298 O 0.40511 0.36202 0.03265 0.0
O299 O 0.38045 0.33732 0.95964 0.0
C300 C 0.3967 0.25532 0.24963 0.0
O301 O 0.43519 0.26907 0.9186 0.0
O302 O 0.43521 0.33108 0.06669 0.0
C303 C 0.39819 0.14003 0.02964 0.0
C304 C 0.33214 0.22329 0.96662 0.0
C305 C 0.3025 0.2315 0.87716 0.0
C306 C 0.30864 0.17664 0.86764 0.0
C307 C 0.32329 0.17252 0.91234 0.0
C308 C 0.32607 0.27868 0.9737 0.0
C309 C 0.31138 0.28271 0.92915 0.0
C310 C 0.34673 0.21539 0.02664 0.0
C311 C 0.39385 0.25967 0.7668 0.0
H312 H 0.49606 0.36275 1.01765 0.0
H313 H 0.4699 0.38637 0.99051 0.0
H314 H 0.45144 0.19737 0.05766 0.0
H315 H 0.47776 0.17386 0.0858 0.0
H316 H 0.30194 0.13665 0.8279 0.0
H317 H 0.32753 0.129 0.90724 0.0
H318 H 0.33248 0.31847 1.01618 0.0
H319 H 0.30681 0.32542 0.93731 0.0
C320 C 0.25866 0.20353 0.85687 0.0
C321 C 0.25623 0.23913 0.75569 0.0
C322 C 0.28414 0.26614 0.72915 0.0
C323 C 0.28655 0.23465 0.8357 0.0
N324 N 0.27618 0.18206 1.0123 0.0
N325 N 0.2664 0.31318 0.60751 0.0
C326 C 0.27381 0.20574 0.90283 0.0
C327 C 0.26891 0.27296 0.69513 0.0
N328 N 0.24656 0.16614 0.90683 0.0
N329 N 0.29639 0.28784 0.65841 0.0
H330 H 0.25543 0.31964 0.58017 0.0
H331 H 0.27513 0.34402 0.569 0.0
H332 H 0.30771 0.28397 0.68059 0.0
H333 H 0.29525 0.30507 0.57335 0.0
H334 H 0.24782 0.134 0.97236 0.0
H335 H 0.2353 0.16362 0.87604 0.0
H336 H 0.26731 0.16637 0.07101 0.0
H337 H 0.28709 0.18282 0.04901 0.0
C338 C 0.75611 0.22063 0.69997 0.0
C339 C 0.75376 0.23488 0.82076 0.0
C340 C 0.78152 0.24324 0.85784 0.0
C341 C 0.78371 0.22458 0.73937 0.0
N342 N 0.77293 0.18525 0.55307 0.0
N343 N 0.76365 0.24957 1.0199 0.0
C344 C 0.77094 0.21034 0.66188 0.0
C345 C 0.76632 0.2433 0.90128 0.0
N346 N 0.74428 0.21897 0.62077 0.0
N347 N 0.794 0.26271 0.92767 0.0
H348 H 0.75269 0.24984 0.05503 0.0
H349 H 0.77208 0.24928 0.08465 0.0
H350 H 0.80529 0.26279 0.8992 0.0
H351 H 0.79325 0.28333 1.01011 0.0
H352 H 0.74568 0.21576 0.52933 0.0
H353 H 0.73323 0.22572 0.64548 0.0
H354 H 0.76386 0.16763 0.49784 0.0
H355 H 0.78361 0.17726 0.52174 0.0
C356 C 0.27211 0.69793 0.16885 0.0
C357 C 0.28373 0.74946 0.18068 0.0
C358 C 0.26364 0.81349 0.21755 0.0
C359 C 0.25268 0.75993 0.23226 0.0
N360 N 0.24545 0.66744 0.11998 0.0
N361 N 0.29044 0.85856 0.21139 0.0
C362 C 0.25646 0.70584 0.17922 0.0
C363 C 0.27948 0.80797 0.20394 0.0
N364 N 0.27592 0.64111 0.14907 0.0
N365 N 0.2587 0.86785 0.19344 0.0
H366 H 0.30207 0.85755 0.19507 0.0
H367 H 0.28802 0.90076 0.24118 0.0
H368 H 0.2471 0.8702 0.17783 0.0
H369 H 0.26606 0.90764 0.1709 0.0
H370 H 0.26777 0.60163 0.15003 0.0
H371 H 0.28728 0.63304 0.14239 0.0
H372 H 0.24788 0.63027 0.07018 0.0
H373 H 0.23444 0.6785 0.10702 0.0
C374 C 0.75998 0.7711 0.36244 0.0
C375 C 0.75498 0.74811 0.24924 0.0
C376 C 0.78048 0.71944 0.21129 0.0
C377 C 0.78492 0.73624 0.32915 0.0
N378 N 0.77837 0.77102 0.52289 0.0
N379 N 0.7596 0.69222 0.07202 0.0
C380 C 0.77455 0.76044 0.40635 0.0
C381 C 0.76502 0.72024 0.17502 0.0
N382 N 0.75096 0.80432 0.42675 0.0
N383 N 0.79116 0.70392 0.13322 0.0
H384 H 0.74835 0.69154 0.04221 0.0
H385 H 0.76583 0.6652 1.02101 0.0
H386 H 0.80258 0.70272 0.15688 0.0
H387 H 0.7891 0.69758 0.04276 0.0
H388 H 0.75461 0.82789 0.50405 0.0
H389 H 0.7402 0.81262 0.39754 0.0
H390 H 0.77066 0.78192 0.58677 0.0
H391 H 0.78896 0.76439 0.55817 0.0
C392 C 0.14888 0.96668 0.41918 0.0
C393 C 0.14932 0.93182 0.52443 0.0
C394 C 0.14843 0.02401 0.64477 0.0
C395 C 0.14682 0.0577 0.53918 0.0
N396 N 0.14239 0.05862 0.32768 0.0
N397 N 0.14891 0.92511 0.73791 0.0
C398 C 0.14608 0.02826 0.4269 0.0
C399 C 0.1489 0.95992 0.63752 0.0
N400 N 0.15161 0.94154 0.31185 0.0
N401 N 0.14952 0.05348 0.75189 0.0
H402 H 0.15059 0.87944 0.73609 0.0
H403 H 0.1467 0.94037 0.82264 0.0
H404 H 0.14783 0.09893 0.76183 0.0
H405 H 0.15262 0.03396 0.83063 0.0
H406 H 0.15302 0.96649 0.23314 0.0
H407 H 0.15401 0.89699 0.30293 0.0
H408 H 0.14005 0.03751 0.24574 0.0
H409 H 0.1403 0.10377 0.32894 0.0
C410 C 0.88088 0.4296 0.45514 0.0
C411 C 0.89141 0.40475 0.52999 0.0
C412 C 0.90161 0.50785 0.60244 0.0
C413 C 0.89101 0.53259 0.52823 0.0
N414 N 0.86972 0.51861 0.39158 0.0
N415 N 0.91268 0.41871 0.66683 0.0
C416 C 0.88041 0.49383 0.45667 0.0
C417 C 0.90206 0.44354 0.60126 0.0
N418 N 0.87191 0.39192 0.37811 0.0
N419 N 0.91068 0.54573 0.67856 0.0
H420 H 0.9128 0.37171 0.6735 0.0
H421 H 0.92188 0.44415 0.71083 0.0
H422 H 0.91066 0.59287 0.68179 0.0
H423 H 0.91759 0.53083 0.74396 0.0
H424 H 0.86515 0.40709 0.31201 0.0
H425 H 0.87194 0.3448 0.37439 0.0
H426 H 0.8605 0.49309 0.34811 0.0
H427 H 0.86959 0.56561 0.38511 0.0
C428 C 0.87914 0.92841 0.59994 0.0
C429 C 0.89026 0.90416 0.52993 0.0
C430 C 0.9 0.00708 0.45457 0.0
C431 C 0.88947 0.03165 0.52955 0.0
N432 N 0.87003 0.0183 0.68181 0.0
N433 N 0.91206 0.91946 0.39762 0.0
C434 C 0.87924 -0.00705 0.60397 0.0
C435 C 0.90096 0.94331 0.45953 0.0
N436 N 0.86847 0.88958 0.66257 0.0
N437 N 0.90864 0.04451 0.37516 0.0
H438 H 0.91252 0.87266 0.39231 0.0
H439 H 0.92135 0.94592 0.35632 0.0
H440 H 0.90833 0.09143 0.36977 0.0
H441 H 0.91528 0.02894 0.30858 0.0
H442 H 0.8589 0.90295 0.70342 0.0
H443 H 0.86875 0.84271 0.66957 0.0
H444 H 0.86361 -0.00605 0.74852 0.0
H445 H 0.8695 0.06511 0.6849 0.0
C446 C 0.14677 0.52826 0.62978 0.0
C447 C 0.14712 0.55701 0.51702 0.0
C448 C 0.14949 0.45941 0.42007 0.0
C449 C 0.1504 0.432 0.53362 0.0
N450 N 0.15313 0.44322 0.74583 0.0
N451 N 0.15001 0.55234 0.30456 0.0
C452 C 0.14991 0.46722 0.63839 0.0
C453 C 0.14874 0.52316 0.41195 0.0
N454 N 0.1428 0.55853 0.72821 0.0
N455 N 0.14881 0.42417 0.31999 0.0
H456 H 0.14852 0.5979 0.29396 0.0
H457 H 0.15335 0.5326 0.22674 0.0
H458 H 0.1501 0.37815 0.32099 0.0
H459 H 0.14605 0.43937 0.23634 0.0
H460 H 0.14085 0.53795 0.81112 0.0
H461 H 0.13992 0.60259 0.72455 0.0
H462 H 0.15446 0.46873 0.82382 0.0
H463 H 0.15606 0.39943 0.75522 0.0
C464 C 0.63212 0.5054 0.97595 0.0
C465 C 0.64375 0.54168 0.04248 0.0
C466 C 0.65332 0.44922 0.11175 0.0
C467 C 0.64296 0.41349 0.03311 0.0
N468 N 0.62374 0.4089 0.87817 0.0
N469 N 0.66601 0.54986 0.16947 0.0
C470 C 0.63256 0.44175 0.9628 0.0
C471 C 0.65455 0.51407 0.10896 0.0
N472 N 0.62059 0.5317 0.92524 0.0
N473 N 0.66147 0.42112 0.19313 0.0
H474 H 0.6666 0.59715 0.17755 0.0
H475 H 0.67543 0.53321 0.2062 0.0
H476 H 0.66073 0.37375 0.20041 0.0
H477 H 0.66785 0.44428 0.26137 0.0
H478 H 0.61076 0.50665 0.88839 0.0
H479 H 0.62025 0.57858 0.92789 0.0
H480 H 0.61753 0.42885 0.81416 0.0
H481 H 0.62352 0.36223 0.8645 0.0
C482 C 0.40955 0.98099 0.98399 0.0
C483 C 0.3977 0.9449 0.04931 0.0
C484 C 0.38838 0.03775 0.11884 0.0
C485 C 0.39902 0.07361 0.04239 0.0
N486 N 0.41844 0.07811 0.88897 0.0
N487 N 0.37443 0.93788 0.16528 0.0
C488 C 0.40941 0.04509 0.97237 0.0
C489 C 0.3867 0.97298 0.11263 0.0
N490 N 0.4208 0.9539 0.9312 0.0
N491 N 0.38027 0.06549 0.20097 0.0
H492 H 0.37302 0.89027 0.16672 0.0
H493 H 0.36504 0.95575 0.19966 0.0
H494 H 0.38127 0.11281 0.21075 0.0
H495 H 0.37371 0.04168 0.26782 0.0
H496 H 0.43081 0.97841 0.89575 0.0
H497 H 0.42064 0.90665 0.92922 0.0
H498 H 0.42475 0.05834 0.82542 0.0
H499 H 0.41875 0.12488 0.87575 0.0
C500 C 0.39615 0.4826 0.90735 0.0
C501 C 0.39017 0.44254 0.99962 0.0
C502 C 0.38418 0.52951 0.11632 0.0
C503 C 0.38956 0.56962 1.0215 0.0
N504 N 0.39517 0.57995 0.81223 0.0
N505 N 0.37448 0.42544 0.1755 0.0
C506 C 0.39399 0.54491 0.91257 0.0
C507 C 0.38285 0.46521 0.09879 0.0
N508 N 0.40395 0.46142 0.81506 0.0
N509 N 0.38107 0.55226 0.22494 0.0
H510 H 0.37323 0.37804 0.16526 0.0
H511 H 0.36764 0.43952 0.24263 0.0
H512 H 0.3819 0.59881 0.24298 0.0
H513 H 0.3789 0.52491 0.30024 0.0
H514 H 0.40989 0.49021 0.75174 0.0
H515 H 0.40542 0.41561 0.80676 0.0
H516 H 0.39712 0.56283 0.72831 0.0
H517 H 0.39218 0.62386 0.81092 0.0
C518 C 0.64205 0.00428 0.89887 0.0
C519 C 0.64998 0.04352 0.98509 0.0
C520 C 0.65537 0.95514 0.09946 0.0
C521 C 0.64869 0.91546 1.00817 0.0
N522 N 0.63813 0.90388 0.80917 0.0
N523 N 0.6672 0.05744 0.15264 0.0
C524 C 0.6427 0.94043 0.90438 0.0
C525 C 0.65772 0.01929 0.08006 0.0
N526 N 0.63372 0.0279 0.81248 0.0
N527 N 0.65832 0.93217 0.20835 0.0
H528 H 0.66901 0.1049 0.14258 0.0
H529 H 0.67429 0.04158 0.21599 0.0
H530 H 0.65543 0.88608 0.23031 0.0
H531 H 0.66183 0.95973 0.28127 0.0
H532 H 0.62613 0.00091 0.75624 0.0
H533 H 0.63363 0.07476 0.80179 0.0
H534 H 0.63545 0.92089 0.72681 0.0
H535 H 0.63831 0.85693 0.80795 0.0
C536 C 0.15782 0.20672 0.12169 0.0
C537 C 0.14808 0.24266 0.1828 0.0
C538 C 0.13956 0.27919 0.99011 0.0
C539 C 0.14939 0.24383 0.92998 0.0
N540 N 0.16931 0.18007 0.93616 0.0
N541 N 0.12813 0.3073 0.17388 0.0
C542 C 0.15894 0.20946 0.99523 0.0
C543 C 0.13848 0.27707 0.1166 0.0
N544 N 0.16518 0.16641 0.18395 0.0
N545 N 0.13204 0.3184 0.9263 0.0
H546 H 0.1278 0.31311 0.26532 0.0
H547 H 0.11921 0.32461 0.13134 0.0
H548 H 0.1325 0.32155 0.83409 0.0
H549 H 0.12634 0.35168 0.96394 0.0
H550 H 0.17087 0.13356 0.14473 0.0
H551 H 0.16449 0.16127 0.27573 0.0
H552 H 0.17809 0.16129 0.9776 0.0
H553 H 0.16984 0.17761 0.84389 0.0
C554 C 0.88854 0.16333 0.09512 0.0
C555 C 0.8904 0.21965 0.15805 0.0
C556 C 0.89129 0.27586 0.96856 0.0
C557 C 0.89053 0.21973 0.9057 0.0
N558 N 0.89082 0.11084 0.90807 0.0
N559 N 0.89556 0.32983 0.15641 0.0
C560 C 0.88977 0.16363 0.96879 0.0
C561 C 0.89233 0.27605 0.09514 0.0
N562 N 0.88518 0.10945 0.15608 0.0
N563 N 0.89051 0.32877 0.90731 0.0
H564 H 0.89618 0.33169 0.24878 0.0
H565 H 0.89874 0.37225 0.11613 0.0
H566 H 0.88986 0.33038 0.81498 0.0
H567 H 0.88934 0.3702 0.94762 0.0
H568 H 0.88199 0.06717 0.11544 0.0
H569 H 0.8844 0.10739 0.24834 0.0
H570 H 0.89202 0.06954 0.94888 0.0
H571 H 0.89176 0.10933 0.81594 0.0
C572 C 0.15866 0.70796 0.06751 0.0
C573 C 0.14931 0.74329 0.13395 0.0
C574 C 0.13857 0.77761 0.94721 0.0
C575 C 0.14818 0.74387 0.8812 0.0
N576 N 0.16587 0.67053 0.87557 0.0
N577 N 0.13303 0.82253 0.13506 0.0
C578 C 0.15798 0.70796 0.94068 0.0
C579 C 0.13988 0.78058 0.07322 0.0
N580 N 0.16835 0.67477 0.12528 0.0
N581 N 0.12795 0.80631 0.88963 0.0
H582 H 0.13386 0.8281 0.22662 0.0
H583 H 0.12776 0.85643 0.09499 0.0
H584 H 0.12716 0.80865 0.79752 0.0
H585 H 0.11915 0.82422 0.93282 0.0
H586 H 0.17709 0.65564 0.08423 0.0
H587 H 0.1682 0.66754 0.21643 0.0
H588 H 0.17175 0.63734 0.91125 0.0
H589 H 0.16577 0.66933 0.78326 0.0
C590 C 0.88965 0.66322 0.96676 0.0
C591 C 0.8906 0.71938 0.90369 0.0
C592 C 0.89066 0.77525 0.09309 0.0
C593 C 0.89073 0.71951 0.15608 0.0
N594 N 0.89227 0.61155 0.15457 0.0
N595 N 0.89377 0.82959 0.90471 0.0
C596 C 0.89074 0.66375 0.09326 0.0
C597 C 0.89156 0.77564 0.9664 0.0
N598 N 0.88723 0.60916 0.90568 0.0
N599 N 0.88927 0.82753 0.15448 0.0
H600 H 0.89416 0.83157 0.81227 0.0
H601 H 0.89628 0.87242 0.94446 0.0
H602 H 0.88884 0.82914 0.2469 0.0
H603 H 0.88746 0.86832 0.11451 0.0
H604 H 0.88472 0.56644 0.94603 0.0
H605 H 0.88657 0.60701 0.81336 0.0
H606 H 0.89408 0.57082 0.1144 0.0
H607 H 0.89289 0.61002 0.24689 0.0
C608 C 0.65738 0.77574 0.48166 0.0
C609 C 0.64733 0.73126 0.41739 0.0
C610 C 0.63804 0.68241 0.60555 0.0
C611 C 0.64665 0.73109 0.67028 0.0
N612 N 0.66303 0.8295 0.6673 0.0
N613 N 0.62662 0.64611 0.41838 0.0
C614 C 0.65597 0.77914 0.6076 0.0
C615 C 0.63712 0.68614 0.47952 0.0
N616 N 0.66841 0.81461 0.42271 0.0
N617 N 0.63165 0.63033 0.66334 0.0
H618 H 0.62615 0.64433 0.32607 0.0
H619 H 0.61767 0.61745 0.45953 0.0
H620 H 0.63296 0.62381 0.75406 0.0
H621 H 0.6266 0.59082 0.6198 0.0
H622 H 0.67726 0.84295 0.46543 0.0
H623 H 0.66951 0.81521 0.3306 0.0
H624 H 0.66831 0.86906 0.62506 0.0
H625 H 0.66247 0.83456 0.75897 0.0
C626 C 0.40332 0.72037 0.60755 0.0
C627 C 0.39517 0.76051 0.67184 0.0
C628 C 0.3872 0.8021 0.48308 0.0
C629 C 0.39334 0.75569 0.41946 0.0
N630 N 0.40502 0.66327 0.4262 0.0
N631 N 0.37792 0.83598 0.6703 0.0
C632 C 0.40084 0.71288 0.48312 0.0
C633 C 0.38655 0.79981 0.60938 0.0
N634 N 0.41358 0.68972 0.66444 0.0
N635 N 0.3831 0.85116 0.42388 0.0
H636 H 0.37797 0.83944 0.76249 0.0
H637 H 0.36996 0.85966 0.62924 0.0
H638 H 0.38467 0.85734 0.33295 0.0
H639 H 0.37996 0.8893 0.46636 0.0
H640 H 0.42105 0.66519 0.61965 0.0
H641 H 0.4156 0.69286 0.7555 0.0
H642 H 0.40891 0.62717 0.47073 0.0
H643 H 0.40316 0.65487 0.33606 0.0
C644 C 0.64882 0.17702 0.43128 0.0
C645 C 0.64475 0.22906 0.37171 0.0
C646 C 0.64196 0.27867 0.56481 0.0
C647 C 0.64708 0.22835 0.62351 0.0
N648 N 0.65725 0.13313 0.61318 0.0
N649 N 0.63801 0.33075 0.37952 0.0
C650 C 0.6511 0.17863 0.55673 0.0
C651 C 0.64135 0.2801 0.43803 0.0
N652 N 0.64962 0.12468 0.36837 0.0
N653 N 0.63767 0.32516 0.63096 0.0
H654 H 0.63666 0.33229 0.28778 0.0
H655 H 0.63724 0.37242 0.42024 0.0
H656 H 0.63931 0.32823 0.72247 0.0
H657 H 0.63204 0.35955 0.59691 0.0
H658 H 0.65105 0.0831 0.40706 0.0
H659 H 0.64732 0.12112 0.27767 0.0
H660 H 0.66201 0.09911 0.56889 0.0
H661 H 0.65866 0.13184 0.70497 0.0
C662 C 0.40003 0.20565 0.44917 0.0
C663 C 0.39683 0.25694 0.38252 0.0
C664 C 0.39028 0.30724 0.56691 0.0
C665 C 0.39414 0.25739 0.63421 0.0
N666 N 0.40353 0.16054 0.64259 0.0
N667 N 0.39268 0.36214 0.37962 0.0
C668 C 0.39929 0.20702 0.576 0.0
C669 C 0.39293 0.30921 0.44196 0.0
N670 N 0.4034 0.15501 0.39095 0.0
N671 N 0.38392 0.35248 0.62224 0.0
H672 H 0.39547 0.36602 0.28969 0.0
H673 H 0.39137 0.40374 0.41873 0.0
H674 H 0.38204 0.35304 0.71358 0.0
H675 H 0.37935 0.3867 0.5769 0.0
H676 H 0.404 0.11318 0.43174 0.0
H677 H 0.40499 0.15383 0.2994 0.0
H678 H 0.40911 0.12598 0.60873 0.0
H679 H 0.40194 0.15774 0.73423 0.0
C680 C 0.02847 0.22973 0.62174 0.0
C681 C 0.03608 0.22308 0.51228 0.0
C682 C 1.01201 0.22813 0.40503 0.0
C683 C 1.00413 0.22874 0.515 0.0
N684 N 1.00427 0.21867 0.72822 0.0
N685 N 0.03472 0.20607 0.30105 0.0
C686 C 1.0122 0.22628 0.62351 0.0
C687 C 0.02773 0.21948 0.40414 0.0
N688 N 0.03682 0.24186 0.72355 0.0
N689 N 1.00461 0.23784 0.30165 0.0
H690 H 0.04619 0.19921 0.29727 0.0
H691 H 0.02884 0.19649 0.22148 0.0
H692 H 0.99314 0.24472 0.29885 0.0
H693 H 1.01016 0.24442 0.21999 0.0
H694 H 0.03205 0.25385 0.80321 0.0
H695 H 0.04877 0.24552 0.72628 0.0
H696 H 1.00935 0.20972 0.80858 0.0
H697 H 0.99235 0.21581 0.7334 0.0
C698 C 1.01239 0.73467 0.45025 0.0
C699 C 1.0052 0.76013 0.5472 0.0
C700 C 0.02992 0.77912 0.65261 0.0
C701 C 0.03721 0.75627 0.55332 0.0
N702 N 0.03614 0.72281 0.3494 0.0
N703 N 1.00725 0.81567 0.7318 0.0
C704 C 0.02865 0.73725 0.44956 0.0
C705 C 1.01403 0.78512 0.64586 0.0
N706 N 1.00359 0.7059 0.36089 0.0
N707 N 0.03811 0.79326 0.75455 0.0
H708 H 0.99562 0.82038 0.72996 0.0
H709 H 1.0133 0.84041 0.79976 0.0
H710 H 0.04982 0.79077 0.76145 0.0
H711 H 0.03315 0.80354 0.83453 0.0
H712 H 1.0079 0.68005 0.29513 0.0
H713 H 0.99168 0.70393 0.357 0.0
H714 H 0.03082 0.7152 0.26711 0.0
H715 H 0.04801 0.72336 0.34578 0.0
C716 C 0.52849 0.73835 0.85957 0.0
C717 C 0.5359 0.73022 0.96906 0.0
C718 C 0.51139 0.7271 0.07509 0.0
C719 C 0.50419 0.73968 0.96686 0.0
N720 N 0.50579 0.76289 0.75797 0.0
N721 N 0.53512 0.72362 0.18276 0.0
C722 C 0.51272 0.74678 0.85942 0.0
C723 C 0.52752 0.72631 0.07732 0.0
N724 N 0.53648 0.73674 0.75579 0.0
N725 N 0.50272 0.715 0.17559 0.0
H726 H 0.54684 0.72109 0.18831 0.0
H727 H 0.53012 0.72818 0.26538 0.0
H728 H 0.49098 0.71754 0.17914 0.0
H729 H 0.50683 0.69826 0.25373 0.0
H730 H 0.53146 0.73584 0.67211 0.0
H731 H 0.54813 0.73235 0.75325 0.0
H732 H 0.51167 0.77554 0.67953 0.0
H733 H 0.49414 0.76702 0.75394 0.0
C734 C 0.51152 0.23419 0.94897 0.0
C735 C 0.50483 0.25191 0.05583 0.0
C736 C 0.52889 0.24513 0.16287 0.0
C737 C 0.5359 0.23194 0.05424 0.0
N738 N 0.53472 0.2212 0.84135 0.0
N739 N 0.50724 0.28017 0.26211 0.0
C740 C 0.52742 0.22833 0.94657 0.0
C741 C 0.51355 0.25896 0.16229 0.0
N742 N 0.50257 0.22205 0.85005 0.0
N743 N 0.53682 0.24299 0.26678 0.0
H744 H 0.49588 0.28843 0.26595 0.0
H745 H 0.51345 0.29307 0.33895 0.0
H746 H 0.54816 0.23447 0.26988 0.0
H747 H 0.53192 0.24557 0.35038 0.0
H748 H 0.5062 0.20208 0.7735 0.0
H749 H 0.49102 0.22776 0.84695 0.0
H750 H 0.52974 0.22535 0.75855 0.0
H751 H 0.54626 0.21555 0.83593 0.0
loop_
_geom_bond_atom_site_label_1
_geom_bond_atom_site_label_2
_geom_bond_distance
_geom_bond_site_symmetry_2
_ccdc_geom_bond_type
Tb0 C9 2.764 . S
Tb0 O10 2.325 . S
Tb0 O13 2.303 . S
Tb0 O17 2.322 . S
Tb0 O18 2.349 . S
Tb0 O21 2.415 . S
Tb0 O22 2.399 . S
Tb1 O11 2.322 . S
Tb1 O12 2.349 . S
Tb1 O14 2.415 . S
Tb1 O15 2.399 . S
Tb1 O16 2.325 . S
Tb1 O19 2.303 . S
Tb1 C30 2.764 . S
C2 O18 1.261 . S
C2 O19 1.257 . S
C3 C6 1.358 . S
C3 C7 1.332 . S
C3 C9 1.504 . S
C4 C5 1.373 . S
C4 C8 1.308 . S
C5 C4 1.373 . S
C5 C6 1.429 . S
C5 H32 0.932 . S
C6 C3 1.358 . S
C6 C5 1.429 . S
C6 H33 0.930 . S
C7 C3 1.332 . S
C7 C8 1.394 . S
C7 H34 0.932 . S
C8 C4 1.308 . S
C8 C7 1.394 . S
C8 H35 0.929 . S
C9 Tb0 2.764 . S
C9 C3 1.504 . S
C9 O21 1.239 . S
C9 O22 1.263 . S
O10 Tb0 2.325 . S
O10 C20 1.236 . S
O11 Tb1 2.322 . S
O11 C20 1.257 . S
O12 Tb1 2.349 . S
O12 C23 1.261 . S
O13 Tb0 2.303 . S
O13 C23 1.257 . S
O14 Tb1 2.415 . S
O14 C30 1.239 . S
O15 Tb1 2.399 . S
O15 C30 1.263 . S
O16 Tb1 2.325 . S
O16 C31 1.236 . S
O17 Tb0 2.322 . S
O17 C31 1.257 . S
O18 Tb0 2.349 . S
O18 C2 1.261 . S
O19 Tb1 2.303 . S
O19 C2 1.257 . S
C20 O10 1.236 . S
C20 O11 1.257 . S
O21 Tb0 2.415 . S
O21 C9 1.239 . S
O22 Tb0 2.399 . S
O22 C9 1.263 . S
C23 O12 1.261 . S
C23 O13 1.257 . S
C24 C27 1.358 . S
C24 C28 1.332 . S
C24 C30 1.504 . S
C25 C26 1.373 . S
C25 C29 1.308 . S
C26 C25 1.373 . S
C26 C27 1.429 . S
C26 H36 0.932 . S
C27 C24 1.358 . S
C27 C26 1.429 . S
C27 H37 0.930 . S
C28 C24 1.332 . S
C28 C29 1.394 . S
C28 H38 0.932 . S
C29 C25 1.308 . S
C29 C28 1.394 . S
C29 H39 0.929 . S
C30 Tb1 2.764 . S
C30 O14 1.239 . S
C30 O15 1.263 . S
C30 C24 1.504 . S
C31 O16 1.236 . S
C31 O17 1.257 . S
H32 C5 0.932 . S
H33 C6 0.930 . S
H34 C7 0.932 . S
H35 C8 0.929 . S
H36 C26 0.932 . S
H37 C27 0.930 . S
H38 C28 0.932 . S
H39 C29 0.929 . S
Tb40 C49 2.764 . S
Tb40 O50 2.325 . S
Tb40 O53 2.303 . S
Tb40 O57 2.322 . S
Tb40 O58 2.349 . S
Tb40 O61 2.415 . S
Tb40 O62 2.399 . S
Tb41 O51 2.322 . S
Tb41 O52 2.349 . S
Tb41 O54 2.415 . S
Tb41 O55 2.399 . S
Tb41 O56 2.325 . S
Tb41 O59 2.303 . S
Tb41 C70 2.764 . S
C42 O58 1.261 . S
C42 O59 1.257 . S
C43 C46 1.358 . S
C43 C47 1.332 . S
C43 C49 1.504 . S
C44 C45 1.373 . S
C44 C48 1.308 . S
C45 C44 1.373 . S
C45 C46 1.429 . S
C45 H72 0.932 . S
C46 C43 1.358 . S
C46 C45 1.429 . S
C46 H73 0.930 . S
C47 C43 1.332 . S
C47 C48 1.394 . S
C47 H74 0.932 . S
C48 C44 1.308 . S
C48 C47 1.394 . S
C48 H75 0.929 . S
C49 Tb40 2.764 . S
C49 C43 1.504 . S
C49 O61 1.239 . S
C49 O62 1.263 . S
O50 Tb40 2.325 . S
O50 C60 1.236 . S
O51 Tb41 2.322 . S
O51 C60 1.257 . S
O52 Tb41 2.349 . S
O52 C63 1.261 . S
O53 Tb40 2.303 . S
O53 C63 1.257 . S
O54 Tb41 2.415 . S
O54 C70 1.239 . S
O55 Tb41 2.399 . S
O55 C70 1.263 . S
O56 Tb41 2.325 . S
O56 C71 1.236 . S
O57 Tb40 2.322 . S
O57 C71 1.257 . S
O58 Tb40 2.349 . S
O58 C42 1.261 . S
O59 Tb41 2.303 . S
O59 C42 1.257 . S
C60 O50 1.236 . S
C60 O51 1.257 . S
O61 Tb40 2.415 . S
O61 C49 1.239 . S
O62 Tb40 2.399 . S
O62 C49 1.263 . S
C63 O52 1.261 . S
C63 O53 1.257 . S
C64 C67 1.358 . S
C64 C68 1.332 . S
C64 C70 1.504 . S
C65 C66 1.373 . S
C65 C69 1.308 . S
C66 C65 1.373 . S
C66 C67 1.429 . S
C66 H76 0.932 . S
C67 C64 1.358 . S
C67 C66 1.429 . S
C67 H77 0.930 . S
C68 C64 1.332 . S
C68 C69 1.394 . S
C68 H78 0.932 . S
C69 C65 1.308 . S
C69 C68 1.394 . S
C69 H79 0.929 . S
C70 Tb41 2.764 . S
C70 O54 1.239 . S
C70 O55 1.263 . S
C70 C64 1.504 . S
C71 O56 1.236 . S
C71 O57 1.257 . S
H72 C45 0.932 . S
H73 C46 0.930 . S
H74 C47 0.932 . S
H75 C48 0.929 . S
H76 C66 0.932 . S
H77 C67 0.930 . S
H78 C68 0.932 . S
H79 C69 0.929 . S
Tb80 C89 2.764 . S
Tb80 O90 2.325 . S
Tb80 O93 2.303 . S
Tb80 O97 2.322 . S
Tb80 O98 2.349 . S
Tb80 O101 2.415 . S
Tb80 O102 2.399 . S
Tb81 O91 2.322 . S
Tb81 O92 2.349 . S
Tb81 O94 2.415 . S
Tb81 O95 2.399 . S
Tb81 O96 2.325 . S
Tb81 O99 2.303 . S
Tb81 C110 2.764 . S
C82 O98 1.261 . S
C82 O99 1.257 . S
C83 C86 1.358 . S
C83 C87 1.332 . S
C83 C89 1.504 . S
C84 C85 1.373 . S
C84 C88 1.308 . S
C85 C84 1.373 . S
C85 C86 1.429 . S
C85 H112 0.932 . S
C86 C83 1.358 . S
C86 C85 1.429 . S
C86 H113 0.930 . S
C87 C83 1.332 . S
C87 C88 1.394 . S
C87 H114 0.932 . S
C88 C84 1.308 . S
C88 C87 1.394 . S
C88 H115 0.929 . S
C89 Tb80 2.764 . S
C89 C83 1.504 . S
C89 O101 1.239 . S
C89 O102 1.263 . S
O90 Tb80 2.325 . S
O90 C100 1.236 . S
O91 Tb81 2.322 . S
O91 C100 1.257 . S
O92 Tb81 2.349 . S
O92 C103 1.261 . S
O93 Tb80 2.303 . S
O93 C103 1.257 . S
O94 Tb81 2.415 . S
O94 C110 1.239 . S
O95 Tb81 2.399 . S
O95 C110 1.263 . S
O96 Tb81 2.325 . S
O96 C111 1.236 . S
O97 Tb80 2.322 . S
O97 C111 1.257 . S
O98 Tb80 2.349 . S
O98 C82 1.261 . S
O99 Tb81 2.303 . S
O99 C82 1.257 . S
C100 O90 1.236 . S
C100 O91 1.257 . S
O101 Tb80 2.415 . S
O101 C89 1.239 . S
O102 Tb80 2.399 . S
O102 C89 1.263 . S
C103 O92 1.261 . S
C103 O93 1.257 . S
C104 C107 1.358 . S
C104 C108 1.332 . S
C104 C110 1.504 . S
C105 C106 1.373 . S
C105 C109 1.308 . S
C106 C105 1.373 . S
C106 C107 1.429 . S
C106 H116 0.932 . S
C107 C104 1.358 . S
C107 C106 1.429 . S
C107 H117 0.930 . S
C108 C104 1.332 . S
C108 C109 1.394 . S
C108 H118 0.932 . S
C109 C105 1.308 . S
C109 C108 1.394 . S
C109 H119 0.929 . S
C110 Tb81 2.764 . S
C110 O94 1.239 . S
C110 O95 1.263 . S
C110 C104 1.504 . S
C111 O96 1.236 . S
C111 O97 1.257 . S
H112 C85 0.932 . S
H113 C86 0.930 . S
H114 C87 0.932 . S
H115 C88 0.929 . S
H116 C106 0.932 . S
H117 C107 0.930 . S
H118 C108 0.932 . S
H119 C109 0.929 . S
Tb120 C129 2.764 . S
Tb120 O130 2.325 . S
Tb120 O133 2.303 . S
Tb120 O137 2.322 . S
Tb120 O138 2.349 . S
Tb120 O141 2.415 . S
Tb120 O142 2.399 . S
Tb121 O131 2.322 . S
Tb121 O132 2.349 . S
Tb121 O134 2.415 . S
Tb121 O135 2.399 . S
Tb121 O136 2.325 . S
Tb121 O139 2.303 . S
Tb121 C150 2.764 . S
C122 O138 1.261 . S
C122 O139 1.257 . S
C123 C126 1.358 . S
C123 C127 1.332 . S
C123 C129 1.504 . S
C124 C125 1.373 . S
C124 C128 1.308 . S
C125 C124 1.373 . S
C125 C126 1.429 . S
C125 H152 0.932 . S
C126 C123 1.358 . S
C126 C125 1.429 . S
C126 H153 0.930 . S
C127 C123 1.332 . S
C127 C128 1.394 . S
C127 H154 0.932 . S
C128 C124 1.308 . S
C128 C127 1.394 . S
C128 H155 0.929 . S
C129 Tb120 2.764 . S
C129 C123 1.504 . S
C129 O141 1.239 . S
C129 O142 1.263 . S
O130 Tb120 2.325 . S
O130 C140 1.236 . S
O131 Tb121 2.322 . S
O131 C140 1.257 . S
O132 Tb121 2.349 . S
O132 C143 1.261 . S
O133 Tb120 2.303 . S
O133 C143 1.257 . S
O134 Tb121 2.415 . S
O134 C150 1.239 . S
O135 Tb121 2.399 . S
O135 C150 1.263 . S
O136 Tb121 2.325 . S
O136 C151 1.236 . S
O137 Tb120 2.322 . S
O137 C151 1.257 . S
O138 Tb120 2.349 . S
O138 C122 1.261 . S
O139 Tb121 2.303 . S
O139 C122 1.257 . S
C140 O130 1.236 . S
C140 O131 1.257 . S
O141 Tb120 2.415 . S
O141 C129 1.239 . S
O142 Tb120 2.399 . S
O142 C129 1.263 . S
C143 O132 1.261 . S
C143 O133 1.257 . S
C144 C147 1.358 . S
C144 C148 1.332 . S
C144 C150 1.504 . S
C145 C146 1.373 . S
C145 C149 1.308 . S
C146 C145 1.373 . S
C146 C147 1.429 . S
C146 H156 0.932 . S
C147 C144 1.358 . S
C147 C146 1.429 . S
C147 H157 0.930 . S
C148 C144 1.332 . S
C148 C149 1.394 . S
C148 H158 0.932 . S
C149 C145 1.308 . S
C149 C148 1.394 . S
C149 H159 0.929 . S
C150 Tb121 2.764 . S
C150 O134 1.239 . S
C150 O135 1.263 . S
C150 C144 1.504 . S
C151 O136 1.236 . S
C151 O137 1.257 . S
H152 C125 0.932 . S
H153 C126 0.930 . S
H154 C127 0.932 . S
H155 C128 0.929 . S
H156 C146 0.932 . S
H157 C147 0.930 . S
H158 C148 0.932 . S
H159 C149 0.929 . S
Tb160 C169 2.764 1_556 S
Tb160 O170 2.325 1_556 S
Tb160 O173 2.303 . S
Tb160 O177 2.322 . S
Tb160 O178 2.349 . S
Tb160 O181 2.415 1_556 S
Tb160 O182 2.399 1_556 S
Tb161 O171 2.322 . S
Tb161 O172 2.349 . S
Tb161 O174 2.415 1_554 S
Tb161 O175 2.399 1_554 S
Tb161 O176 2.325 1_554 S
Tb161 O179 2.303 . S
Tb161 C190 2.764 1_554 S
C162 O178 1.261 . S
C162 O179 1.257 1_556 S
C163 C166 1.358 . S
C163 C167 1.332 . S
C163 C169 1.504 . S
C164 C165 1.373 . S
C164 C168 1.308 . S
C165 C164 1.373 . S
C165 C166 1.429 . S
C165 H192 0.932 . S
C166 C163 1.358 . S
C166 C165 1.429 . S
C166 H193 0.930 . S
C167 C163 1.332 . S
C167 C168 1.394 . S
C167 H194 0.932 . S
C168 C164 1.308 . S
C168 C167 1.394 . S
C168 H195 0.929 . S
C169 Tb160 2.764 1_554 S
C169 C163 1.504 . S
C169 O181 1.239 . S
C169 O182 1.263 . S
O170 Tb160 2.325 1_554 S
O170 C180 1.236 . S
O171 Tb161 2.322 . S
O171 C180 1.257 . S
O172 Tb161 2.349 . S
O172 C183 1.261 . S
O173 Tb160 2.303 . S
O173 C183 1.257 1_556 S
O174 Tb161 2.415 1_556 S
O174 C190 1.239 . S
O175 Tb161 2.399 1_556 S
O175 C190 1.263 . S
O176 Tb161 2.325 1_556 S
O176 C191 1.236 . S
O177 Tb160 2.322 . S
O177 C191 1.257 . S
O178 Tb160 2.349 . S
O178 C162 1.261 . S
O179 Tb161 2.303 . S
O179 C162 1.257 1_554 S
C180 O170 1.236 . S
C180 O171 1.257 . S
O181 Tb160 2.415 1_554 S
O181 C169 1.239 . S
O182 Tb160 2.399 1_554 S
O182 C169 1.263 . S
C183 O172 1.261 . S
C183 O173 1.257 1_554 S
C184 C187 1.358 . S
C184 C188 1.332 . S
C184 C190 1.504 . S
C185 C186 1.373 . S
C185 C189 1.308 . S
C186 C185 1.373 . S
C186 C187 1.429 . S
C186 H196 0.932 . S
C187 C184 1.358 . S
C187 C186 1.429 . S
C187 H197 0.930 . S
C188 C184 1.332 . S
C188 C189 1.394 . S
C188 H198 0.932 . S
C189 C185 1.308 . S
C189 C188 1.394 . S
C189 H199 0.929 . S
C190 Tb161 2.764 1_556 S
C190 O174 1.239 . S
C190 O175 1.263 . S
C190 C184 1.504 . S
C191 O176 1.236 . S
C191 O177 1.257 . S
H192 C165 0.932 . S
H193 C166 0.930 . S
H194 C167 0.932 . S
H195 C168 0.929 . S
H196 C186 0.932 . S
H197 C187 0.930 . S
H198 C188 0.932 . S
H199 C189 0.929 . S
Tb200 C209 2.764 1_556 S
Tb200 O210 2.325 1_556 S
Tb200 O213 2.303 . S
Tb200 O217 2.322 . S
Tb200 O218 2.349 . S
Tb200 O221 2.415 1_556 S
Tb200 O222 2.399 1_556 S
Tb201 O211 2.322 . S
Tb201 O212 2.349 . S
Tb201 O214 2.415 1_554 S
Tb201 O215 2.399 1_554 S
Tb201 O216 2.325 1_554 S
Tb201 O219 2.303 . S
Tb201 C230 2.764 1_554 S
C202 O218 1.261 . S
C202 O219 1.257 1_556 S
C203 C206 1.358 . S
C203 C207 1.332 . S
C203 C209 1.504 . S
C204 C205 1.373 . S
C204 C208 1.308 . S
C205 C204 1.373 . S
C205 C206 1.429 . S
C205 H232 0.932 . S
C206 C203 1.358 . S
C206 C205 1.429 . S
C206 H233 0.930 . S
C207 C203 1.332 . S
C207 C208 1.394 . S
C207 H234 0.932 . S
C208 C204 1.308 . S
C208 C207 1.394 . S
C208 H235 0.929 . S
C209 Tb200 2.764 1_554 S
C209 C203 1.504 . S
C209 O221 1.239 . S
C209 O222 1.263 . S
O210 Tb200 2.325 1_554 S
O210 C220 1.236 . S
O211 Tb201 2.322 . S
O211 C220 1.257 . S
O212 Tb201 2.349 . S
O212 C223 1.261 . S
O213 Tb200 2.303 . S
O213 C223 1.257 1_556 S
O214 Tb201 2.415 1_556 S
O214 C230 1.239 . S
O215 Tb201 2.399 1_556 S
O215 C230 1.263 . S
O216 Tb201 2.325 1_556 S
O216 C231 1.236 . S
O217 Tb200 2.322 . S
O217 C231 1.257 . S
O218 Tb200 2.349 . S
O218 C202 1.261 . S
O219 Tb201 2.303 . S
O219 C202 1.257 1_554 S
C220 O210 1.236 . S
C220 O211 1.257 . S
O221 Tb200 2.415 1_554 S
O221 C209 1.239 . S
O222 Tb200 2.399 1_554 S
O222 C209 1.263 . S
C223 O212 1.261 . S
C223 O213 1.257 1_554 S
C224 C227 1.358 . S
C224 C228 1.332 . S
C224 C230 1.504 . S
C225 C226 1.373 . S
C225 C229 1.308 . S
C226 C225 1.373 . S
C226 C227 1.429 . S
C226 H236 0.932 . S
C227 C224 1.358 . S
C227 C226 1.429 . S
C227 H237 0.930 . S
C228 C224 1.332 . S
C228 C229 1.394 . S
C228 H238 0.932 . S
C229 C225 1.308 . S
C229 C228 1.394 . S
C229 H239 0.929 . S
C230 Tb201 2.764 1_556 S
C230 O214 1.239 . S
C230 O215 1.263 . S
C230 C224 1.504 . S
C231 O216 1.236 . S
C231 O217 1.257 . S
H232 C205 0.932 . S
H233 C206 0.930 . S
H234 C207 0.932 . S
H235 C208 0.929 . S
H236 C226 0.932 . S
H237 C227 0.930 . S
H238 C228 0.932 . S
H239 C229 0.929 . S
Tb240 C249 2.764 1_556 S
Tb240 O250 2.325 1_556 S
Tb240 O253 2.303 . S
Tb240 O257 2.322 . S
Tb240 O258 2.349 . S
Tb240 O261 2.415 1_556 S
Tb240 O262 2.399 1_556 S
Tb241 O251 2.322 . S
Tb241 O252 2.349 . S
Tb241 O254 2.415 1_554 S
Tb241 O255 2.399 1_554 S
Tb241 O256 2.325 1_554 S
Tb241 O259 2.303 . S
Tb241 C270 2.764 1_554 S
C242 O258 1.261 . S
C242 O259 1.257 1_556 S
C243 C246 1.358 . S
C243 C247 1.332 . S
C243 C249 1.504 . S
C244 C245 1.373 . S
C244 C248 1.308 . S
C245 C244 1.373 . S
C245 C246 1.429 . S
C245 H272 0.932 . S
C246 C243 1.358 . S
C246 C245 1.429 . S
C246 H273 0.930 . S
C247 C243 1.332 . S
C247 C248 1.394 . S
C247 H274 0.932 . S
C248 C244 1.308 . S
C248 C247 1.394 . S
C248 H275 0.929 . S
C249 Tb240 2.764 1_554 S
C249 C243 1.504 . S
C249 O261 1.239 . S
C249 O262 1.263 . S
O250 Tb240 2.325 1_554 S
O250 C260 1.236 . S
O251 Tb241 2.322 . S
O251 C260 1.257 . S
O252 Tb241 2.349 . S
O252 C263 1.261 . S
O253 Tb240 2.303 . S
O253 C263 1.257 1_556 S
O254 Tb241 2.415 1_556 S
O254 C270 1.239 . S
O255 Tb241 2.399 1_556 S
O255 C270 1.263 . S
O256 Tb241 2.325 1_556 S
O256 C271 1.236 . S
O257 Tb240 2.322 . S
O257 C271 1.257 . S
O258 Tb240 2.349 . S
O258 C242 1.261 . S
O259 Tb241 2.303 . S
O259 C242 1.257 1_554 S
C260 O250 1.236 . S
C260 O251 1.257 . S
O261 Tb240 2.415 1_554 S
O261 C249 1.239 . S
O262 Tb240 2.399 1_554 S
O262 C249 1.263 . S
C263 O252 1.261 . S
C263 O253 1.257 1_554 S
C264 C267 1.358 . S
C264 C268 1.332 . S
C264 C270 1.504 . S
C265 C266 1.373 . S
C265 C269 1.308 . S
C266 C265 1.373 . S
C266 C267 1.429 . S
C266 H276 0.932 . S
C267 C264 1.358 . S
C267 C266 1.429 . S
C267 H277 0.930 . S
C268 C264 1.332 . S
C268 C269 1.394 . S
C268 H278 0.932 . S
C269 C265 1.308 . S
C269 C268 1.394 . S
C269 H279 0.929 . S
C270 Tb241 2.764 1_556 S
C270 O254 1.239 . S
C270 O255 1.263 . S
C270 C264 1.504 . S
C271 O256 1.236 . S
C271 O257 1.257 . S
H272 C245 0.932 . S
H273 C246 0.930 . S
H274 C247 0.932 . S
H275 C248 0.929 . S
H276 C266 0.932 . S
H277 C267 0.930 . S
H278 C268 0.932 . S
H279 C269 0.929 . S
Tb280 C289 2.764 1_556 S
Tb280 O290 2.325 1_556 S
Tb280 O293 2.303 . S
Tb280 O297 2.322 . S
Tb280 O298 2.349 . S
Tb280 O301 2.415 1_556 S
Tb280 O302 2.399 1_556 S
Tb281 O291 2.322 . S
Tb281 O292 2.349 . S
Tb281 O294 2.415 1_554 S
Tb281 O295 2.399 1_554 S
Tb281 O296 2.325 1_554 S
Tb281 O299 2.303 . S
Tb281 C310 2.764 1_554 S
C282 O298 1.261 . S
C282 O299 1.257 1_556 S
C283 C286 1.358 . S
C283 C287 1.332 . S
C283 C289 1.504 . S
C284 C285 1.373 . S
C284 C288 1.308 . S
C285 C284 1.373 . S
C285 C286 1.429 . S
C285 H312 0.932 . S
C286 C283 1.358 . S
C286 C285 1.429 . S
C286 H313 0.930 . S
C287 C283 1.332 . S
C287 C288 1.394 . S
C287 H314 0.932 . S
C288 C284 1.308 . S
C288 C287 1.394 . S
C288 H315 0.929 . S
C289 Tb280 2.764 1_554 S
C289 C283 1.504 . S
C289 O301 1.239 . S
C289 O302 1.263 . S
O290 Tb280 2.325 1_554 S
O290 C300 1.236 . S
O291 Tb281 2.322 . S
O291 C300 1.257 . S
O292 Tb281 2.349 . S
O292 C303 1.261 . S
O293 Tb280 2.303 . S
O293 C303 1.257 1_556 S
O294 Tb281 2.415 1_556 S
O294 C310 1.239 . S
O295 Tb281 2.399 1_556 S
O295 C310 1.263 . S
O296 Tb281 2.325 1_556 S
O296 C311 1.236 . S
O297 Tb280 2.322 . S
O297 C311 1.257 . S
O298 Tb280 2.349 . S
O298 C282 1.261 . S
O299 Tb281 2.303 . S
O299 C282 1.257 1_554 S
C300 O290 1.236 . S
C300 O291 1.257 . S
O301 Tb280 2.415 1_554 S
O301 C289 1.239 . S
O302 Tb280 2.399 1_554 S
O302 C289 1.263 . S
C303 O292 1.261 . S
C303 O293 1.257 1_554 S
C304 C307 1.358 . S
C304 C308 1.332 . S
C304 C310 1.504 . S
C305 C306 1.373 . S
C305 C309 1.308 . S
C306 C305 1.373 . S
C306 C307 1.429 . S
C306 H316 0.932 . S
C307 C304 1.358 . S
C307 C306 1.429 . S
C307 H317 0.930 . S
C308 C304 1.332 . S
C308 C309 1.394 . S
C308 H318 0.932 . S
C309 C305 1.308 . S
C309 C308 1.394 . S
C309 H319 0.929 . S
C310 Tb281 2.764 1_556 S
C310 O294 1.239 . S
C310 O295 1.263 . S
C310 C304 1.504 . S
C311 O296 1.236 . S
C311 O297 1.257 . S
H312 C285 0.932 . S
H313 C286 0.930 . S
H314 C287 0.932 . S
H315 C288 0.929 . S
H316 C306 0.932 . S
H317 C307 0.930 . S
H318 C308 0.932 . S
H319 C309 0.929 . S
C320 C321 1.363 . S
C320 C326 1.379 . S
C320 N328 1.356 . S
C321 C320 1.363 . S
C321 C327 1.363 . S
C322 C323 1.363 . S
C322 C327 1.379 . S
C322 N329 1.356 . S
C323 C322 1.363 . S
C323 C326 1.363 . S
N324 C326 1.356 . S
N324 H336 0.984 . S
N324 H337 0.985 . S
N325 C327 1.356 . S
N325 H330 0.984 . S
N325 H331 0.985 . S
C326 C320 1.379 . S
C326 C323 1.363 . S
C326 N324 1.356 . S
C327 C321 1.363 . S
C327 C322 1.379 . S
C327 N325 1.356 . S
N328 C320 1.356 . S
N328 H334 0.984 . S
N328 H335 0.984 . S
N329 C322 1.356 . S
N329 H332 0.984 . S
N329 H333 0.985 . S
H330 N325 0.984 . S
H331 N325 0.985 . S
H332 N329 0.984 . S
H333 N329 0.985 . S
H334 N328 0.984 . S
H335 N328 0.984 . S
H336 N324 0.984 . S
H337 N324 0.985 . S
C338 C339 1.363 . S
C338 C344 1.379 . S
C338 N346 1.356 . S
C339 C338 1.363 . S
C339 C345 1.363 . S
C340 C341 1.363 . S
C340 C345 1.379 . S
C340 N347 1.356 . S
C341 C340 1.363 . S
C341 C344 1.363 . S
N342 C344 1.356 . S
N342 H354 0.984 . S
N342 H355 0.985 . S
N343 C345 1.356 . S
N343 H348 0.984 . S
N343 H349 0.985 . S
C344 C338 1.379 . S
C344 C341 1.363 . S
C344 N342 1.356 . S
C345 C339 1.363 . S
C345 C340 1.379 . S
C345 N343 1.356 . S
N346 C338 1.356 . S
N346 H352 0.984 . S
N346 H353 0.984 . S
N347 C340 1.356 . S
N347 H350 0.984 . S
N347 H351 0.985 . S
H348 N343 0.984 . S
H349 N343 0.985 . S
H350 N347 0.984 . S
H351 N347 0.985 . S
H352 N346 0.984 . S
H353 N346 0.984 . S
H354 N342 0.984 . S
H355 N342 0.985 . S
C356 C357 1.363 . S
C356 C362 1.379 . S
C356 N364 1.356 . S
C357 C356 1.363 . S
C357 C363 1.363 . S
C358 C359 1.363 . S
C358 C363 1.379 . S
C358 N365 1.356 . S
C359 C358 1.363 . S
C359 C362 1.363 . S
N360 C362 1.356 . S
N360 H372 0.984 . S
N360 H373 0.985 . S
N361 C363 1.356 . S
N361 H366 0.984 . S
N361 H367 0.985 . S
C362 C356 1.379 . S
C362 C359 1.363 . S
C362 N360 1.356 . S
C363 C357 1.363 . S
C363 C358 1.379 . S
C363 N361 1.356 . S
N364 C356 1.356 . S
N364 H370 0.984 . S
N364 H371 0.984 . S
N365 C358 1.356 . S
N365 H368 0.984 . S
N365 H369 0.985 . S
H366 N361 0.984 . S
H367 N361 0.985 . S
H368 N365 0.984 . S
H369 N365 0.985 . S
H370 N364 0.984 . S
H371 N364 0.984 . S
H372 N360 0.984 . S
H373 N360 0.985 . S
C374 C375 1.363 . S
C374 C380 1.379 . S
C374 N382 1.356 . S
C375 C374 1.363 . S
C375 C381 1.363 . S
C376 C377 1.363 . S
C376 C381 1.379 . S
C376 N383 1.356 . S
C377 C376 1.363 . S
C377 C380 1.363 . S
N378 C380 1.356 . S
N378 H390 0.984 . S
N378 H391 0.985 . S
N379 C381 1.356 . S
N379 H384 0.984 . S
N379 H385 0.985 . S
C380 C374 1.379 . S
C380 C377 1.363 . S
C380 N378 1.356 . S
C381 C375 1.363 . S
C381 C376 1.379 . S
C381 N379 1.356 . S
N382 C374 1.356 . S
N382 H388 0.984 . S
N382 H389 0.984 . S
N383 C376 1.356 . S
N383 H386 0.984 . S
N383 H387 0.985 . S
H384 N379 0.984 . S
H385 N379 0.985 . S
H386 N383 0.984 . S
H387 N383 0.985 . S
H388 N382 0.984 . S
H389 N382 0.984 . S
H390 N378 0.984 . S
H391 N378 0.985 . S
C392 C393 1.363 . S
C392 C398 1.379 1_565 S
C392 N400 1.356 . S
C393 C392 1.363 . S
C393 C399 1.363 . S
C394 C395 1.363 . S
C394 C399 1.379 1_545 S
C394 N401 1.356 . S
C395 C394 1.363 . S
C395 C398 1.363 . S
N396 C398 1.356 . S
N396 H408 0.984 . S
N396 H409 0.985 . S
N397 C399 1.356 . S
N397 H402 0.984 . S
N397 H403 0.985 . S
C398 C392 1.379 1_545 S
C398 C395 1.363 . S
C398 N396 1.356 . S
C399 C393 1.363 . S
C399 C394 1.379 1_565 S
C399 N397 1.356 . S
N400 C392 1.356 . S
N400 H406 0.984 . S
N400 H407 0.984 . S
N401 C394 1.356 . S
N401 H404 0.984 . S
N401 H405 0.985 . S
H402 N397 0.984 . S
H403 N397 0.985 . S
H404 N401 0.984 . S
H405 N401 0.985 . S
H406 N400 0.984 . S
H407 N400 0.984 . S
H408 N396 0.984 . S
H409 N396 0.985 . S
C410 C411 1.363 . S
C410 C416 1.379 . S
C410 N418 1.356 . S
C411 C410 1.363 . S
C411 C417 1.363 . S
C412 C413 1.363 . S
C412 C417 1.379 . S
C412 N419 1.356 . S
C413 C412 1.363 . S
C413 C416 1.363 . S
N414 C416 1.356 . S
N414 H426 0.984 . S
N414 H427 0.985 . S
N415 C417 1.356 . S
N415 H420 0.984 . S
N415 H421 0.985 . S
C416 C410 1.379 . S
C416 C413 1.363 . S
C416 N414 1.356 . S
C417 C411 1.363 . S
C417 C412 1.379 . S
C417 N415 1.356 . S
N418 C410 1.356 . S
N418 H424 0.984 . S
N418 H425 0.984 . S
N419 C412 1.356 . S
N419 H422 0.984 . S
N419 H423 0.985 . S
H420 N415 0.984 . S
H421 N415 0.985 . S
H422 N419 0.984 . S
H423 N419 0.985 . S
H424 N418 0.984 . S
H425 N418 0.984 . S
H426 N414 0.984 . S
H427 N414 0.985 . S
C428 C429 1.363 . S
C428 C434 1.379 1_565 S
C428 N436 1.356 . S
C429 C428 1.363 . S
C429 C435 1.363 . S
C430 C431 1.363 . S
C430 C435 1.379 1_545 S
C430 N437 1.356 . S
C431 C430 1.363 . S
C431 C434 1.363 . S
N432 C434 1.356 . S
N432 H444 0.984 . S
N432 H445 0.985 . S
N433 C435 1.356 . S
N433 H438 0.984 . S
N433 H439 0.985 . S
C434 C428 1.379 1_545 S
C434 C431 1.363 . S
C434 N432 1.356 . S
C435 C429 1.363 . S
C435 C430 1.379 1_565 S
C435 N433 1.356 . S
N436 C428 1.356 . S
N436 H442 0.984 . S
N436 H443 0.984 . S
N437 C430 1.356 . S
N437 H440 0.984 . S
N437 H441 0.985 . S
H438 N433 0.984 . S
H439 N433 0.985 . S
H440 N437 0.984 . S
H441 N437 0.985 . S
H442 N436 0.984 . S
H443 N436 0.984 . S
H444 N432 0.984 . S
H445 N432 0.985 . S
C446 C447 1.363 . S
C446 C452 1.379 . S
C446 N454 1.356 . S
C447 C446 1.363 . S
C447 C453 1.363 . S
C448 C449 1.363 . S
C448 C453 1.379 . S
C448 N455 1.356 . S
C449 C448 1.363 . S
C449 C452 1.363 . S
N450 C452 1.356 . S
N450 H462 0.984 . S
N450 H463 0.985 . S
N451 C453 1.356 . S
N451 H456 0.984 . S
N451 H457 0.985 . S
C452 C446 1.379 . S
C452 C449 1.363 . S
C452 N450 1.356 . S
C453 C447 1.363 . S
C453 C448 1.379 . S
C453 N451 1.356 . S
N454 C446 1.356 . S
N454 H460 0.984 . S
N454 H461 0.984 . S
N455 C448 1.356 . S
N455 H458 0.984 . S
N455 H459 0.985 . S
H456 N451 0.984 . S
H457 N451 0.985 . S
H458 N455 0.984 . S
H459 N455 0.985 . S
H460 N454 0.984 . S
H461 N454 0.984 . S
H462 N450 0.984 . S
H463 N450 0.985 . S
C464 C465 1.363 1_556 S
C464 C470 1.379 . S
C464 N472 1.356 . S
C465 C464 1.363 1_554 S
C465 C471 1.363 . S
C466 C467 1.363 . S
C466 C471 1.379 . S
C466 N473 1.356 . S
C467 C466 1.363 . S
C467 C470 1.363 1_554 S
N468 C470 1.356 . S
N468 H480 0.984 . S
N468 H481 0.985 . S
N469 C471 1.356 . S
N469 H474 0.984 . S
N469 H475 0.985 . S
C470 C464 1.379 . S
C470 C467 1.363 1_556 S
C470 N468 1.356 . S
C471 C465 1.363 . S
C471 C466 1.379 . S
C471 N469 1.356 . S
N472 C464 1.356 . S
N472 H478 0.984 . S
N472 H479 0.984 . S
N473 C466 1.356 . S
N473 H476 0.984 . S
N473 H477 0.985 . S
H474 N469 0.984 . S
H475 N469 0.985 . S
H476 N473 0.984 . S
H477 N473 0.985 . S
H478 N472 0.984 . S
H479 N472 0.984 . S
H480 N468 0.984 . S
H481 N468 0.985 . S
C482 C483 1.363 1_556 S
C482 C488 1.379 1_565 S
C482 N490 1.356 . S
C483 C482 1.363 1_554 S
C483 C489 1.363 . S
C484 C485 1.363 . S
C484 C489 1.379 1_545 S
C484 N491 1.356 . S
C485 C484 1.363 . S
C485 C488 1.363 1_554 S
N486 C488 1.356 . S
N486 H498 0.984 . S
N486 H499 0.985 . S
N487 C489 1.356 . S
N487 H492 0.984 . S
N487 H493 0.985 . S
C488 C482 1.379 1_545 S
C488 C485 1.363 1_556 S
C488 N486 1.356 . S
C489 C483 1.363 . S
C489 C484 1.379 1_565 S
C489 N487 1.356 . S
N490 C482 1.356 . S
N490 H496 0.984 . S
N490 H497 0.984 . S
N491 C484 1.356 . S
N491 H494 0.984 . S
N491 H495 0.985 . S
H492 N487 0.984 . S
H493 N487 0.985 . S
H494 N491 0.984 . S
H495 N491 0.985 . S
H496 N490 0.984 . S
H497 N490 0.984 . S
H498 N486 0.984 . S
H499 N486 0.985 . S
C500 C501 1.363 . S
C500 C506 1.379 . S
C500 N508 1.356 . S
C501 C500 1.363 . S
C501 C507 1.363 1_556 S
C502 C503 1.363 1_554 S
C502 C507 1.379 . S
C502 N509 1.356 . S
C503 C502 1.363 1_556 S
C503 C506 1.363 . S
N504 C506 1.356 . S
N504 H516 0.984 . S
N504 H517 0.985 . S
N505 C507 1.356 . S
N505 H510 0.984 . S
N505 H511 0.985 . S
C506 C500 1.379 . S
C506 C503 1.363 . S
C506 N504 1.356 . S
C507 C501 1.363 1_554 S
C507 C502 1.379 . S
C507 N505 1.356 . S
N508 C500 1.356 . S
N508 H514 0.984 . S
N508 H515 0.984 . S
N509 C502 1.356 . S
N509 H512 0.984 . S
N509 H513 0.985 . S
H510 N505 0.984 . S
H511 N505 0.985 . S
H512 N509 0.984 . S
H513 N509 0.985 . S
H514 N508 0.984 . S
H515 N508 0.984 . S
H516 N504 0.984 . S
H517 N504 0.985 . S
C518 C519 1.363 . S
C518 C524 1.379 1_545 S
C518 N526 1.356 . S
C519 C518 1.363 . S
C519 C525 1.363 1_556 S
C520 C521 1.363 1_554 S
C520 C525 1.379 1_565 S
C520 N527 1.356 . S
C521 C520 1.363 1_556 S
C521 C524 1.363 . S
N522 C524 1.356 . S
N522 H534 0.984 . S
N522 H535 0.985 . S
N523 C525 1.356 . S
N523 H528 0.984 . S
N523 H529 0.985 . S
C524 C518 1.379 1_565 S
C524 C521 1.363 . S
C524 N522 1.356 . S
C525 C519 1.363 1_554 S
C525 C520 1.379 1_545 S
C525 N523 1.356 . S
N526 C518 1.356 . S
N526 H532 0.984 . S
N526 H533 0.984 . S
N527 C520 1.356 . S
N527 H530 0.984 . S
N527 H531 0.985 . S
H528 N523 0.984 . S
H529 N523 0.985 . S
H530 N527 0.984 . S
H531 N527 0.985 . S
H532 N526 0.984 . S
H533 N526 0.984 . S
H534 N522 0.984 . S
H535 N522 0.985 . S
C536 C537 1.363 . S
C536 C542 1.379 1_554 S
C536 N544 1.356 . S
C537 C536 1.363 . S
C537 C543 1.363 1_554 S
C538 C539 1.363 . S
C538 C543 1.379 . S
C538 N545 1.356 . S
C539 C538 1.363 . S
C539 C542 1.363 . S
N540 C542 1.356 . S
N540 H552 0.984 . S
N540 H553 0.985 . S
N541 C543 1.356 1_554 S
N541 H546 0.984 . S
N541 H547 0.985 . S
C542 C536 1.379 1_556 S
C542 C539 1.363 . S
C542 N540 1.356 . S
C543 C537 1.363 1_556 S
C543 C538 1.379 . S
C543 N541 1.356 1_556 S
N544 C536 1.356 . S
N544 H550 0.984 . S
N544 H551 0.984 . S
N545 C538 1.356 . S
N545 H548 0.984 . S
N545 H549 0.985 . S
H546 N541 0.984 . S
H547 N541 0.985 . S
H548 N545 0.984 . S
H549 N545 0.985 . S
H550 N544 0.984 . S
H551 N544 0.984 . S
H552 N540 0.984 . S
H553 N540 0.985 . S
C554 C555 1.363 1_556 S
C554 C560 1.379 . S
C554 N562 1.356 1_556 S
C555 C554 1.363 1_554 S
C555 C561 1.363 . S
C556 C557 1.363 . S
C556 C561 1.379 1_556 S
C556 N563 1.356 . S
C557 C556 1.363 . S
C557 C560 1.363 . S
N558 C560 1.356 . S
N558 H570 0.984 . S
N558 H571 0.985 . S
N559 C561 1.356 . S
N559 H564 0.984 . S
N559 H565 0.985 . S
C560 C554 1.379 . S
C560 C557 1.363 . S
C560 N558 1.356 . S
C561 C555 1.363 . S
C561 C556 1.379 1_554 S
C561 N559 1.356 . S
N562 C554 1.356 1_554 S
N562 H568 0.984 . S
N562 H569 0.984 . S
N563 C556 1.356 . S
N563 H566 0.984 . S
N563 H567 0.985 . S
H564 N559 0.984 . S
H565 N559 0.985 . S
H566 N563 0.984 . S
H567 N563 0.985 . S
H568 N562 0.984 . S
H569 N562 0.984 . S
H570 N558 0.984 . S
H571 N558 0.985 . S
C572 C573 1.363 . S
C572 C578 1.379 1_554 S
C572 N580 1.356 . S
C573 C572 1.363 . S
C573 C579 1.363 . S
C574 C575 1.363 1_554 S
C574 C579 1.379 . S
C574 N581 1.356 1_554 S
C575 C574 1.363 1_556 S
C575 C578 1.363 . S
N576 C578 1.356 . S
N576 H588 0.984 . S
N576 H589 0.985 . S
N577 C579 1.356 . S
N577 H582 0.984 . S
N577 H583 0.985 . S
C578 C572 1.379 1_556 S
C578 C575 1.363 . S
C578 N576 1.356 . S
C579 C573 1.363 . S
C579 C574 1.379 . S
C579 N577 1.356 . S
N580 C572 1.356 . S
N580 H586 0.984 . S
N580 H587 0.984 . S
N581 C574 1.356 1_556 S
N581 H584 0.984 . S
N581 H585 0.985 . S
H582 N577 0.984 . S
H583 N577 0.985 . S
H584 N581 0.984 . S
H585 N581 0.985 . S
H586 N580 0.984 . S
H587 N580 0.984 . S
H588 N576 0.984 . S
H589 N576 0.985 . S
C590 C591 1.363 1_554 S
C590 C596 1.379 . S
C590 N598 1.356 1_554 S
C591 C590 1.363 1_556 S
C591 C597 1.363 1_556 S
C592 C593 1.363 . S
C592 C597 1.379 . S
C592 N599 1.356 . S
C593 C592 1.363 . S
C593 C596 1.363 . S
N594 C596 1.356 . S
N594 H606 0.984 . S
N594 H607 0.985 . S
N595 C597 1.356 1_556 S
N595 H600 0.984 . S
N595 H601 0.985 . S
C596 C590 1.379 . S
C596 C593 1.363 . S
C596 N594 1.356 . S
C597 C591 1.363 1_554 S
C597 C592 1.379 . S
C597 N595 1.356 1_554 S
N598 C590 1.356 1_556 S
N598 H604 0.984 . S
N598 H605 0.984 . S
N599 C592 1.356 . S
N599 H602 0.984 . S
N599 H603 0.985 . S
H600 N595 0.984 . S
H601 N595 0.985 . S
H602 N599 0.984 . S
H603 N599 0.985 . S
H604 N598 0.984 . S
H605 N598 0.984 . S
H606 N594 0.984 . S
H607 N594 0.985 . S
C608 C609 1.363 . S
C608 C614 1.379 . S
C608 N616 1.356 . S
C609 C608 1.363 . S
C609 C615 1.363 . S
C610 C611 1.363 . S
C610 C615 1.379 . S
C610 N617 1.356 . S
C611 C610 1.363 . S
C611 C614 1.363 . S
N612 C614 1.356 . S
N612 H624 0.984 . S
N612 H625 0.985 . S
N613 C615 1.356 . S
N613 H618 0.984 . S
N613 H619 0.985 . S
C614 C608 1.379 . S
C614 C611 1.363 . S
C614 N612 1.356 . S
C615 C609 1.363 . S
C615 C610 1.379 . S
C615 N613 1.356 . S
N616 C608 1.356 . S
N616 H622 0.984 . S
N616 H623 0.984 . S
N617 C610 1.356 . S
N617 H620 0.984 . S
N617 H621 0.985 . S
H618 N613 0.984 . S
H619 N613 0.985 . S
H620 N617 0.984 . S
H621 N617 0.985 . S
H622 N616 0.984 . S
H623 N616 0.984 . S
H624 N612 0.984 . S
H625 N612 0.985 . S
C626 C627 1.363 . S
C626 C632 1.379 . S
C626 N634 1.356 . S
C627 C626 1.363 . S
C627 C633 1.363 . S
C628 C629 1.363 . S
C628 C633 1.379 . S
C628 N635 1.356 . S
C629 C628 1.363 . S
C629 C632 1.363 . S
N630 C632 1.356 . S
N630 H642 0.984 . S
N630 H643 0.985 . S
N631 C633 1.356 . S
N631 H636 0.984 . S
N631 H637 0.985 . S
C632 C626 1.379 . S
C632 C629 1.363 . S
C632 N630 1.356 . S
C633 C627 1.363 . S
C633 C628 1.379 . S
C633 N631 1.356 . S
N634 C626 1.356 . S
N634 H640 0.984 . S
N634 H641 0.984 . S
N635 C628 1.356 . S
N635 H638 0.984 . S
N635 H639 0.985 . S
H636 N631 0.984 . S
H637 N631 0.985 . S
H638 N635 0.984 . S
H639 N635 0.985 . S
H640 N634 0.984 . S
H641 N634 0.984 . S
H642 N630 0.984 . S
H643 N630 0.985 . S
C644 C645 1.363 . S
C644 C650 1.379 . S
C644 N652 1.356 . S
C645 C644 1.363 . S
C645 C651 1.363 . S
C646 C647 1.363 . S
C646 C651 1.379 . S
C646 N653 1.356 . S
C647 C646 1.363 . S
C647 C650 1.363 . S
N648 C650 1.356 . S
N648 H660 0.984 . S
N648 H661 0.985 . S
N649 C651 1.356 . S
N649 H654 0.984 . S
N649 H655 0.985 . S
C650 C644 1.379 . S
C650 C647 1.363 . S
C650 N648 1.356 . S
C651 C645 1.363 . S
C651 C646 1.379 . S
C651 N649 1.356 . S
N652 C644 1.356 . S
N652 H658 0.984 . S
N652 H659 0.984 . S
N653 C646 1.356 . S
N653 H656 0.984 . S
N653 H657 0.985 . S
H654 N649 0.984 . S
H655 N649 0.985 . S
H656 N653 0.984 . S
H657 N653 0.985 . S
H658 N652 0.984 . S
H659 N652 0.984 . S
H660 N648 0.984 . S
H661 N648 0.985 . S
C662 C663 1.363 . S
C662 C668 1.379 . S
C662 N670 1.356 . S
C663 C662 1.363 . S
C663 C669 1.363 . S
C664 C665 1.363 . S
C664 C669 1.379 . S
C664 N671 1.356 . S
C665 C664 1.363 . S
C665 C668 1.363 . S
N666 C668 1.356 . S
N666 H678 0.984 . S
N666 H679 0.985 . S
N667 C669 1.356 . S
N667 H672 0.984 . S
N667 H673 0.985 . S
C668 C662 1.379 . S
C668 C665 1.363 . S
C668 N666 1.356 . S
C669 C663 1.363 . S
C669 C664 1.379 . S
C669 N667 1.356 . S
N670 C662 1.356 . S
N670 H676 0.984 . S
N670 H677 0.984 . S
N671 C664 1.356 . S
N671 H674 0.984 . S
N671 H675 0.985 . S
H672 N667 0.984 . S
H673 N667 0.985 . S
H674 N671 0.984 . S
H675 N671 0.985 . S
H676 N670 0.984 . S
H677 N670 0.984 . S
H678 N666 0.984 . S
H679 N666 0.985 . S
C680 C681 1.363 . S
C680 C686 1.379 1_455 S
C680 N688 1.356 . S
C681 C680 1.363 . S
C681 C687 1.363 . S
C682 C683 1.363 . S
C682 C687 1.379 1_655 S
C682 N689 1.356 . S
C683 C682 1.363 . S
C683 C686 1.363 . S
N684 C686 1.356 . S
N684 H696 0.984 . S
N684 H697 0.985 . S
N685 C687 1.356 . S
N685 H690 0.984 . S
N685 H691 0.985 1_554 S
C686 C680 1.379 1_655 S
C686 C683 1.363 . S
C686 N684 1.356 . S
C687 C681 1.363 . S
C687 C682 1.379 1_455 S
C687 N685 1.356 . S
N688 C680 1.356 . S
N688 H694 0.984 . S
N688 H695 0.984 . S
N689 C682 1.356 . S
N689 H692 0.984 . S
N689 H693 0.985 1_554 S
H690 N685 0.984 . S
H691 N685 0.985 1_556 S
H692 N689 0.984 . S
H693 N689 0.985 1_556 S
H694 N688 0.984 . S
H695 N688 0.984 . S
H696 N684 0.984 . S
H697 N684 0.985 . S
C698 C699 1.363 . S
C698 C704 1.379 1_655 S
C698 N706 1.356 . S
C699 C698 1.363 . S
C699 C705 1.363 . S
C700 C701 1.363 . S
C700 C705 1.379 1_455 S
C700 N707 1.356 . S
C701 C700 1.363 . S
C701 C704 1.363 . S
N702 C704 1.356 . S
N702 H714 0.984 . S
N702 H715 0.985 . S
N703 C705 1.356 . S
N703 H708 0.984 . S
N703 H709 0.985 1_556 S
C704 C698 1.379 1_455 S
C704 C701 1.363 . S
C704 N702 1.356 . S
C705 C699 1.363 . S
C705 C700 1.379 1_655 S
C705 N703 1.356 . S
N706 C698 1.356 . S
N706 H712 0.984 . S
N706 H713 0.984 . S
N707 C700 1.356 . S
N707 H710 0.984 . S
N707 H711 0.985 1_556 S
H708 N703 0.984 . S
H709 N703 0.985 1_554 S
H710 N707 0.984 . S
H711 N707 0.985 1_554 S
H712 N706 0.984 . S
H713 N706 0.984 . S
H714 N702 0.984 . S
H715 N702 0.985 . S
C716 C717 1.363 . S
C716 C722 1.379 . S
C716 N724 1.356 . S
C717 C716 1.363 . S
C717 C723 1.363 . S
C718 C719 1.363 . S
C718 C723 1.379 . S
C718 N725 1.356 . S
C719 C718 1.363 . S
C719 C722 1.363 . S
N720 C722 1.356 . S
N720 H732 0.984 . S
N720 H733 0.985 . S
N721 C723 1.356 . S
N721 H726 0.984 . S
N721 H727 0.985 . S
C722 C716 1.379 . S
C722 C719 1.363 . S
C722 N720 1.356 . S
C723 C717 1.363 . S
C723 C718 1.379 . S
C723 N721 1.356 . S
N724 C716 1.356 . S
N724 H730 0.984 . S
N724 H731 0.984 . S
N725 C718 1.356 . S
N725 H728 0.984 . S
N725 H729 0.985 . S
H726 N721 0.984 . S
H727 N721 0.985 . S
H728 N725 0.984 . S
H729 N725 0.985 . S
H730 N724 0.984 . S
H731 N724 0.984 . S
H732 N720 0.984 . S
H733 N720 0.985 . S
C734 C735 1.363 . S
C734 C740 1.379 . S
C734 N742 1.356 . S
C735 C734 1.363 . S
C735 C741 1.363 . S
C736 C737 1.363 . S
C736 C741 1.379 . S
C736 N743 1.356 . S
C737 C736 1.363 . S
C737 C740 1.363 . S
N738 C740 1.356 . S
N738 H750 0.984 . S
N738 H751 0.985 . S
N739 C741 1.356 . S
N739 H744 0.984 . S
N739 H745 0.985 . S
C740 C734 1.379 . S
C740 C737 1.363 . S
C740 N738 1.356 . S
C741 C735 1.363 . S
C741 C736 1.379 . S
C741 N739 1.356 . S
N742 C734 1.356 . S
N742 H748 0.984 . S
N742 H749 0.984 . S
N743 C736 1.356 . S
N743 H746 0.984 . S
N743 H747 0.985 . S
H744 N739 0.984 . S
H745 N739 0.985 . S
H746 N743 0.984 . S
H747 N743 0.985 . S
H748 N742 0.984 . S
H749 N742 0.984 . S
H750 N738 0.984 . S
H751 N738 0.985 . S
C321 C4 1.612 . S
C323 C305 1.612 . S
C339 C265 1.612 . S
C341 C44 1.612 . S
C357 C204 1.612 . S
C359 C105 1.612 . S
C375 C164 1.612 . S
C377 C145 1.612 . S
C393 C103 1.562 . S
C395 C23 1.582 . S
C411 C63 1.581 . S
C413 C143 1.561 . S
C429 C122 1.582 . S
C431 C42 1.561 . S
C447 C82 1.581 . S
C449 C2 1.560 . S
C465 C183 1.461 . S
C467 C263 1.461 . S
C483 C223 1.462 . S
C485 C303 1.463 . S
C501 C282 1.462 . S
C503 C202 1.462 . S
C519 C242 1.463 . S
C521 C162 1.463 . S
C537 C31 1.926 . S
C539 C20 1.926 . S
C555 C71 1.926 . S
C557 C60 1.926 . S
C573 C111 1.926 . S
C575 C100 1.926 . S
C591 C140 1.926 . S
C593 C151 1.926 . S
C609 C180 1.925 . S
C611 C191 1.925 . S
C627 C231 1.925 . S
C629 C220 1.925 . S
C645 C260 1.925 . S
C647 C271 1.925 . S
C663 C300 1.925 . S
C665 C311 1.925 . S
C681 C25 2.054 . S
C683 C65 2.054 . S
C699 C124 2.054 . S
C701 C84 2.054 . S
C717 C185 2.055 . S
C719 C225 2.055 . S
C735 C284 2.055 . S
C737 C244 2.055 . S
