# Generated by pormake.
# Topology unf, (4)-cn, num edge types: 1
# Building blocks:
#     Node 0, Type 0, BuildingBlock: KUFVIS_clean_sbu_0, # of connection points: 4
#     Node 1, Type 0, BuildingBlock: KUFVIS_clean_sbu_0, # of connection points: 4
#     Node 2, Type 0, BuildingBlock: KUFVIS_clean_sbu_0, # of connection points: 4
#     Node 3, Type 0, BuildingBlock: KUFVIS_clean_sbu_0, # of connection points: 4
#     Node 4, Type 0, BuildingBlock: KUFVIS_clean_sbu_0, # of connection points: 4
#     Node 5, Type 0, BuildingBlock: KUFVIS_clean_sbu_0, # of connection points: 4
#     Node 6, Type 0, BuildingBlock: KUFVIS_clean_sbu_0, # of connection points: 4
#     Node 7, Type 0, BuildingBlock: KUFVIS_clean_sbu_0, # of connection points: 4
#     Node 8, Type 0, BuildingBlock: KUFVIS_clean_sbu_0, # of connection points: 4
#     Node 9, Type 0, BuildingBlock: KUFVIS_clean_sbu_0, # of connection points: 4
#     Node 10, Type 0, BuildingBlock: KUFVIS_clean_sbu_0, # of connection points: 4
#     Node 11, Type 0, BuildingBlock: KUFVIS_clean_sbu_0, # of connection points: 4
#     Edge 12, Type (0, 0), BuildingBlock: TEMPAE_clean_linker_10, # of connection points: 2
#     Edge 13, Type (0, 0), BuildingBlock: TEMPAE_clean_linker_10, # of connection points: 2
#     Edge 14, Type (0, 0), BuildingBlock: TEMPAE_clean_linker_10, # of connection points: 2
#     Edge 15, Type (0, 0), BuildingBlock: TEMPAE_clean_linker_10, # of connection points: 2
#     Edge 16, Type (0, 0), BuildingBlock: TEMPAE_clean_linker_10, # of connection points: 2
#     Edge 17, Type (0, 0), BuildingBlock: TEMPAE_clean_linker_10, # of connection points: 2
#     Edge 18, Type (0, 0), BuildingBlock: TEMPAE_clean_linker_10, # of connection points: 2
#     Edge 19, Type (0, 0), BuildingBlock: TEMPAE_clean_linker_10, # of connection points: 2
#     Edge 20, Type (0, 0), BuildingBlock: TEMPAE_clean_linker_10, # of connection points: 2
#     Edge 21, Type (0, 0), BuildingBlock: TEMPAE_clean_linker_10, # of connection points: 2
#     Edge 22, Type (0, 0), BuildingBlock: TEMPAE_clean_linker_10, # of connection points: 2
#     Edge 23, Type (0, 0), BuildingBlock: TEMPAE_clean_linker_10, # of connection points: 2
#     Edge 24, Type (0, 0), BuildingBlock: TEMPAE_clean_linker_10, # of connection points: 2
#     Edge 25, Type (0, 0), BuildingBlock: TEMPAE_clean_linker_10, # of connection points: 2
#     Edge 26, Type (0, 0), BuildingBlock: TEMPAE_clean_linker_10, # of connection points: 2
#     Edge 27, Type (0, 0), BuildingBlock: TEMPAE_clean_linker_10, # of connection points: 2
#     Edge 28, Type (0, 0), BuildingBlock: TEMPAE_clean_linker_10, # of connection points: 2
#     Edge 29, Type (0, 0), BuildingBlock: TEMPAE_clean_linker_10, # of connection points: 2
#     Edge 30, Type (0, 0), BuildingBlock: TEMPAE_clean_linker_10, # of connection points: 2
#     Edge 31, Type (0, 0), BuildingBlock: TEMPAE_clean_linker_10, # of connection points: 2
#     Edge 32, Type (0, 0), BuildingBlock: TEMPAE_clean_linker_10, # of connection points: 2
#     Edge 33, Type (0, 0), BuildingBlock: TEMPAE_clean_linker_10, # of connection points: 2
#     Edge 34, Type (0, 0), BuildingBlock: TEMPAE_clean_linker_10, # of connection points: 2
#     Edge 35, Type (0, 0), BuildingBlock: TEMPAE_clean_linker_10, # of connection points: 2
# Relax obj value: 0.237
# Max RMSD: 0.188
# Mean RMSD: 0.183
data_MOF--net-unf--node1-KUFVIS_clean_sbu_0--edge1-TEMPAE_clean_linker_10
_symmetry_space_group_name_H-M    P1
_symmetry_Int_Tables_number       1
_symmetry_cell_setting            triclinic
loop_
_symmetry_equiv_pos_as_xyz
'x, y, z'
_cell_length_a     38.226835
_cell_length_b     38.981262
_cell_length_c     35.851014
_cell_angle_alpha  90.075812
_cell_angle_beta   89.843054
_cell_angle_gamma 119.36228
loop_
_atom_site_label
_atom_site_type_symbol
_atom_site_fract_x
_atom_site_fract_y
_atom_site_fract_z
_atom_type_partial_charge
Mn0 Mn 0.04725 0.36997 0.09476 0.0
Mn1 Mn 0.03051 0.28366 0.13161 0.0
C2 C -0.00014 0.31149 0.06858 0.0
C3 C 0.03164 0.42027 0.08938 0.0
C4 C 0.09585 0.32875 0.07578 0.0
O5 O 0.07702 0.38839 0.14402 0.0
O6 O 0.06814 0.32954 0.16213 0.0
C7 C 0.98607 0.28954 0.19691 0.0
N8 N 0.98785 0.26905 0.16684 0.0
C9 C 0.922 0.21508 0.18007 0.0
C10 C 0.91958 0.2355 0.21132 0.0
C11 C 0.9517 0.27297 0.21968 0.0
C12 C 0.95683 0.23331 0.15819 0.0
H13 H 0.01062 0.31835 0.20348 0.0
C14 C 0.08373 0.36677 0.16617 0.0
O15 O 0.06611 0.42517 0.07792 0.0
O16 O 0.00878 0.38825 0.10757 0.0
N17 N 0.99505 0.23564 0.10661 0.0
C18 C 0.00315 0.21879 0.07692 0.0
C19 C 0.9747 0.18068 0.06566 0.0
C20 C 0.93855 0.15991 0.08553 0.0
C21 C 0.93131 0.17735 0.11663 0.0
C22 C 0.96097 0.21529 0.12673 0.0
H23 H 0.03127 0.23418 0.06218 0.0
O24 O 0.01493 0.34411 0.05014 0.0
O25 O 0.0111 0.31384 0.10332 0.0
O26 O 0.09193 0.35954 0.07526 0.0
O27 O 0.07339 0.29753 0.09445 0.0
C28 C 0.89609 0.15832 0.13834 0.0
C29 C 0.8913 0.17731 0.16987 0.0
H30 H 0.89322 0.22271 0.22906 0.0
H31 H 0.95003 0.28898 0.24367 0.0
H32 H 0.9809 0.16714 0.04207 0.0
H33 H 0.91691 0.13029 0.07717 0.0
H34 H 0.87251 0.12908 0.13102 0.0
H35 H 0.86404 0.16245 0.18629 0.0
Mn36 Mn 0.61974 0.69808 0.08142 0.0
Mn37 Mn 0.70346 0.77769 0.11315 0.0
C38 C 0.68173 0.71373 0.05705 0.0
C39 C 0.57423 0.63102 0.08298 0.0
C40 C 0.64881 0.78217 0.05491 0.0
O41 O 0.59908 0.71167 0.12855 0.0
O42 O 0.65691 0.76441 0.1464 0.0
C43 C 0.71207 0.73901 0.18085 0.0
N44 N 0.72799 0.75987 0.14893 0.0
C45 C 0.79118 0.76221 0.16007 0.0
C46 C 0.77564 0.74124 0.19334 0.0
C47 C 0.73583 0.72941 0.20366 0.0
C48 C 0.76597 0.7707 0.13837 0.0
H49 H 0.68141 0.72959 0.18871 0.0
C50 C 0.61944 0.74032 0.15062 0.0
O51 O 0.56494 0.65558 0.06744 0.0
O52 O 0.60804 0.64588 0.10071 0.0
N53 N 0.75169 0.79505 0.08474 0.0
C54 C 0.76223 0.8153 0.05192 0.0
C55 C 0.80115 0.82944 0.03773 0.0
C56 C 0.82915 0.82346 0.05784 0.0
C57 C 0.81789 0.80308 0.09181 0.0
C58 C 0.77874 0.78992 0.10469 0.0
H59 H 0.74124 0.82098 0.03687 0.0
O60 O 0.64907 0.691 0.03915 0.0
O61 O 0.67749 0.72555 0.08993 0.0
O62 O 0.62235 0.74579 0.05486 0.0
O63 O 0.68026 0.79725 0.07527 0.0
C64 C 0.84402 0.79545 0.11346 0.0
C65 C 0.83058 0.77478 0.14745 0.0
H66 H 0.79389 0.73383 0.21103 0.0
H67 H 0.7235 0.71293 0.22913 0.0
H68 H 0.80971 0.84538 0.0116 0.0
H69 H 0.85938 0.8351 0.04717 0.0
H70 H 0.87439 0.80506 0.10409 0.0
H71 H 0.85079 0.7687 0.16366 0.0
Mn72 Mn 0.32526 0.91755 0.0855 0.0
Mn73 Mn 0.33715 0.83926 0.06929 0.0
C74 C 0.38921 0.92558 0.08002 0.0
C75 C 0.31778 0.9691 0.06166 0.0
C76 C 0.30425 0.85248 0.14198 0.0
O77 O 0.27167 0.87687 0.06417 0.0
O78 O 0.28546 0.82887 0.04648 0.0
C79 C 0.3468 0.84221 0.98723 0.0
N80 N 0.36187 0.84341 0.02188 0.0
C81 C 0.42232 0.84825 0.99615 0.0
C82 C 0.40749 0.84709 0.96017 0.0
C83 C 0.36966 0.84429 0.9557 0.0
C84 C 0.39847 0.84669 0.02649 0.0
H85 H 0.3176 0.83974 0.98373 0.0
C86 C 0.26254 0.84434 0.04788 0.0
O87 O 0.30536 0.95553 0.09504 0.0
O88 O 0.33396 0.95241 0.04232 0.0
N89 N 0.38677 0.84755 0.09009 0.0
C90 C 0.39774 0.85082 0.1266 0.0
C91 C 0.43558 0.85567 0.13586 0.0
C92 C 0.46157 0.85677 0.10752 0.0
C93 C 0.44959 0.85335 0.07014 0.0
C94 C 0.41171 0.84901 0.0626 0.0
H95 H 0.37777 0.84973 0.14849 0.0
O96 O 0.38344 0.95081 0.09902 0.0
O97 O 0.35677 0.89555 0.06793 0.0
O98 O 0.31175 0.88751 0.13497 0.0
O99 O 0.31168 0.83186 0.11893 0.0
C100 C 0.47369 0.85398 0.04007 0.0
C101 C 0.45987 0.85101 0.00313 0.0
H102 H 0.42496 0.84852 0.93579 0.0
H103 H 0.35807 0.84352 0.92803 0.0
H104 H 0.44461 0.85833 0.16477 0.0
H105 H 0.49064 0.8603 0.11477 0.0
H106 H 0.50298 0.85689 0.04501 0.0
H107 H 0.47865 0.85146 0.98025 0.0
Mn108 Mn 0.59676 0.92513 0.41677 0.0
Mn109 Mn 0.50619 0.8488 0.43638 0.0
C110 C 0.54247 0.93537 0.42691 0.0
C111 C 0.65768 0.97579 0.4388 0.0
C112 C 0.54724 0.86113 0.36087 0.0
O113 O 0.60916 0.88315 0.43536 0.0
O114 O 0.54768 0.83656 0.45534 0.0
C115 C 0.50527 0.85122 0.51883 0.0
N116 N 0.48952 0.85349 0.4855 0.0
C117 C 0.43742 0.86079 0.51597 0.0
C118 C 0.45279 0.85807 0.55065 0.0
C119 C 0.48705 0.85358 0.55207 0.0
C120 C 0.45693 0.8584 0.48382 0.0
H121 H 0.53142 0.84746 0.52 0.0
C122 C 0.58578 0.85082 0.45194 0.0
O123 O 0.65461 0.96259 0.40495 0.0
O124 O 0.62596 0.95888 0.4595 0.0
N125 N 0.46462 0.85885 0.41941 0.0
C126 C 0.45447 0.86235 0.38378 0.0
C127 C 0.42178 0.86861 0.3775 0.0
C128 C 0.39976 0.87098 0.40788 0.0
C129 C 0.41078 0.86727 0.44429 0.0
C130 C 0.44376 0.86127 0.44883 0.0
H131 H 0.47118 0.86037 0.36034 0.0
O132 O 0.57272 0.95993 0.40675 0.0
O133 O 0.54442 0.90465 0.43741 0.0
O134 O 0.57635 0.89556 0.36732 0.0
O135 O 0.5203 0.84116 0.38509 0.0
C136 C 0.3905 0.86953 0.47626 0.0
C137 C 0.40362 0.86597 0.51206 0.0
H138 H 0.43876 0.85979 0.57635 0.0
H139 H 0.49926 0.85175 0.57872 0.0
H140 H 0.41351 0.87151 0.34931 0.0
H141 H 0.37457 0.87582 0.40292 0.0
H142 H 0.36481 0.87404 0.47365 0.0
H143 H 0.3876 0.86747 0.5364 0.0
Mn144 Mn 0.06477 0.70216 0.41979 0.0
Mn145 Mn 0.04709 0.76976 0.3784 0.0
C146 C 0.01586 0.71451 0.44298 0.0
C147 C 0.05018 0.63718 0.42742 0.0
C148 C 0.11184 0.79104 0.43587 0.0
O149 O 0.09524 0.71099 0.37105 0.0
O150 O 0.08594 0.76003 0.34957 0.0
C151 C 0.00471 0.71864 0.3139 0.0
N152 N 0.00539 0.74169 0.3428 0.0
C153 C 0.93965 0.73106 0.32706 0.0
C154 C 0.93843 0.70753 0.29694 0.0
C155 C 0.97105 0.70116 0.29044 0.0
C156 C 0.97389 0.74746 0.34965 0.0
H157 H 0.02959 0.71351 0.30879 0.0
C158 C 0.1019 0.73792 0.34744 0.0
O159 O 0.08404 0.66607 0.43911 0.0
O160 O 0.02722 0.64629 0.40834 0.0
N161 N 0.01007 0.78314 0.40143 0.0
C162 C 0.01595 0.80686 0.4314 0.0
C163 C 0.9864 0.81664 0.44134 0.0
C164 C 0.95128 0.80245 0.42001 0.0
C165 C 0.94598 0.77847 0.38902 0.0
C166 C 0.97669 0.77001 0.38027 0.0
H167 H 0.04277 0.81785 0.44779 0.0
O168 O 0.03125 0.69795 0.46332 0.0
O169 O 0.02803 0.72196 0.40836 0.0
O170 O 0.10844 0.75672 0.43811 0.0
O171 O 0.08919 0.79918 0.41574 0.0
C172 C 0.91147 0.76271 0.36643 0.0
C173 C 0.90818 0.73879 0.33561 0.0
H174 H 0.91256 0.69409 0.27873 0.0
H175 H 0.97027 0.68287 0.26737 0.0
H176 H 0.99081 0.83528 0.46527 0.0
H177 H 0.92873 0.8104 0.42746 0.0
H178 H 0.88715 0.76859 0.37266 0.0
H179 H 0.88135 0.72657 0.31861 0.0
Mn180 Mn 0.32274 0.3727 0.40305 0.0
Mn181 Mn 0.25539 0.28612 0.36513 0.0
C182 C 0.31402 0.31453 0.42804 0.0
C183 C 0.38764 0.42447 0.40954 0.0
C184 C 0.23294 0.32821 0.4223 0.0
O185 O 0.31053 0.39129 0.35432 0.0
O186 O 0.26155 0.33204 0.33594 0.0
C187 C 0.30628 0.29584 0.29913 0.0
N188 N 0.2845 0.27399 0.32885 0.0
C189 C 0.2985 0.22188 0.31322 0.0
C190 C 0.32084 0.24369 0.28231 0.0
C191 C 0.32489 0.28092 0.27534 0.0
C192 C 0.28109 0.23851 0.33621 0.0
H193 H 0.30953 0.32445 0.29361 0.0
C194 C 0.28218 0.3694 0.33231 0.0
O195 O 0.35713 0.42778 0.42103 0.0
O196 O 0.37993 0.39333 0.39044 0.0
N197 N 0.24483 0.23797 0.38869 0.0
C198 C 0.22016 0.21959 0.4182 0.0
C199 C 0.21149 0.18137 0.42793 0.0
C200 C 0.2277 0.16211 0.40685 0.0
C201 C 0.25223 0.18116 0.37608 0.0
C202 C 0.25938 0.21908 0.36743 0.0
H203 H 0.20679 0.23382 0.43387 0.0
O204 O 0.33033 0.34682 0.44702 0.0
O205 O 0.30485 0.31707 0.39342 0.0
O206 O 0.26695 0.35983 0.42267 0.0
O207 O 0.2253 0.29746 0.40333 0.0
C208 C 0.26922 0.1637 0.35324 0.0
C209 C 0.29266 0.1842 0.32201 0.0
H210 H 0.33501 0.23217 0.26376 0.0
H211 H 0.34219 0.29802 0.25161 0.0
H212 H 0.19178 0.16654 0.45124 0.0
H213 H 0.22045 0.13237 0.41401 0.0
H214 H 0.26443 0.13452 0.35944 0.0
H215 H 0.30568 0.17055 0.30472 0.0
Mn216 Mn 0.93027 0.62804 0.92419 0.0
Mn217 Mn 0.965 0.71116 0.87328 0.0
C218 C 0.9885 0.68395 0.94103 0.0
C219 C 0.92869 0.57015 0.94187 0.0
C220 C 0.89829 0.68625 0.92941 0.0
O221 O 0.89834 0.60678 0.87625 0.0
O222 O 0.92191 0.665 0.84666 0.0
C223 C 0.0026 0.68752 0.81356 0.0
N224 N 0.00558 0.71367 0.84029 0.0
C225 C 0.07497 0.75714 0.82506 0.0
C226 C 0.07257 0.73079 0.7972 0.0
C227 C 0.03626 0.69578 0.79152 0.0
C228 C 0.04047 0.74727 0.84621 0.0
H229 H 0.97479 0.66057 0.8091 0.0
C230 C 0.89883 0.62762 0.84859 0.0
O231 O 0.89984 0.57713 0.95086 0.0
O232 O 0.95614 0.59477 0.91938 0.0
N233 N 0.00692 0.75821 0.89503 0.0
C234 C 0.00469 0.77971 0.92401 0.0
C235 C 0.03854 0.81554 0.93352 0.0
C236 C 0.07416 0.82909 0.91288 0.0
C237 C 0.07583 0.80641 0.88328 0.0
C238 C 0.04103 0.7711 0.8749 0.0
H239 H 0.97736 0.7695 0.93986 0.0
O240 O 0.96767 0.65706 0.96536 0.0
O241 O 0.97503 0.67747 0.90697 0.0
O242 O 0.89608 0.65335 0.93713 0.0
O243 O 0.92418 0.71147 0.90707 0.0
C244 C 0.11071 0.81731 0.8619 0.0
C245 C 0.11033 0.79261 0.83292 0.0
H246 H 0.09847 0.73705 0.78015 0.0
H247 H 0.03422 0.67521 0.77018 0.0
H248 H 0.03712 0.83278 0.95656 0.0
H249 H 0.10004 0.85698 0.92001 0.0
H250 H 0.13811 0.84441 0.86779 0.0
H251 H 0.13747 0.80105 0.81698 0.0
Mn252 Mn 0.37782 0.30292 0.95026 0.0
Mn253 Mn 0.29816 0.24686 0.89548 0.0
C254 C 0.31563 0.29616 0.96389 0.0
C255 C 0.43201 0.36321 0.96677 0.0
C256 C 0.32985 0.21296 0.95387 0.0
O257 O 0.40473 0.29513 0.90413 0.0
O258 O 0.34909 0.26034 0.86949 0.0
C259 C 0.31322 0.30774 0.83876 0.0
N260 N 0.2882 0.28054 0.86388 0.0
C261 C 0.23427 0.29282 0.84787 0.0
C262 C 0.25933 0.32076 0.82158 0.0
C263 C 0.29906 0.32841 0.81716 0.0
C264 C 0.25022 0.27353 0.86888 0.0
H265 H 0.34374 0.31365 0.8353 0.0
C266 C 0.38712 0.27722 0.87422 0.0
O267 O 0.4292 0.33039 0.97832 0.0
O268 O 0.40521 0.3609 0.94328 0.0
N269 N 0.24644 0.23119 0.91637 0.0
C270 C 0.2265 0.20396 0.94347 0.0
C271 C 0.18615 0.19238 0.95094 0.0
C272 C 0.16661 0.20846 0.93013 0.0
C273 C 0.18784 0.23674 0.90266 0.0
C274 C 0.22788 0.24687 0.89623 0.0
H275 H 0.24113 0.19086 0.95898 0.0
O276 O 0.34315 0.3073 0.98918 0.0
O277 O 0.32549 0.29032 0.93068 0.0
O278 O 0.35832 0.24584 0.96527 0.0
O279 O 0.30572 0.20992 0.92779 0.0
C280 C 0.17079 0.25504 0.88118 0.0
C281 C 0.19412 0.28339 0.85411 0.0
H282 H 0.24845 0.3366 0.80474 0.0
H283 H 0.31866 0.35006 0.79707 0.0
H284 H 0.16998 0.17067 0.97231 0.0
H285 H 0.13522 0.19873 0.93539 0.0
H286 H 0.13985 0.24777 0.88547 0.0
H287 H 0.18086 0.29767 0.83815 0.0
Mn288 Mn 0.69246 0.07066 0.89586 0.0
Mn289 Mn 0.75348 0.04618 0.84933 0.0
C290 C 0.6991 0.01744 0.91417 0.0
C291 C 0.62891 0.06006 0.9103 0.0
C292 C 0.78327 0.10988 0.90786 0.0
O293 O 0.70168 0.10231 0.84807 0.0
O294 O 0.74611 0.08685 0.82258 0.0
C295 C 0.69741 0.00806 0.78638 0.0
N296 N 0.72037 0.00616 0.81445 0.0
C297 C 0.69937 0.93844 0.80018 0.0
C298 C 0.67585 0.93983 0.77092 0.0
C299 C 0.67478 0.97477 0.76407 0.0
C300 C 0.72113 0.9725 0.8216 0.0
H301 H 0.69614 0.03466 0.78113 0.0
C302 C 0.72652 0.10575 0.82248 0.0
O303 O 0.66049 0.09233 0.92081 0.0
O304 O 0.63455 0.03809 0.88669 0.0
N305 N 0.76303 0.00669 0.87114 0.0
C306 C 0.78808 0.01045 0.89971 0.0
C307 C 0.79329 0.97842 0.90959 0.0
C308 C 0.7732 0.94303 0.88959 0.0
C309 C 0.74788 0.9399 0.86003 0.0
C310 C 0.74417 0.97296 0.85126 0.0
H311 H 0.80385 0.03762 0.91489 0.0
O312 O 0.68719 0.03487 0.93745 0.0
O313 O 0.70645 0.03116 0.88034 0.0
O314 O 0.7498 0.10926 0.91237 0.0
O315 O 0.78823 0.0864 0.88623 0.0
C316 C 0.72653 0.9054 0.83868 0.0
C317 C 0.70205 0.90458 0.80895 0.0
H318 H 0.6584 0.91423 0.75362 0.0
H319 H 0.65652 0.97602 0.74168 0.0
H320 H 0.81296 0.98109 0.9324 0.0
H321 H 0.77785 0.91862 0.89685 0.0
H322 H 0.72869 0.87932 0.8449 0.0
H323 H 0.6856 0.87782 0.79285 0.0
Mn324 Mn 0.37838 0.07145 0.60631 0.0
Mn325 Mn 0.28908 0.04728 0.64513 0.0
C326 C 0.32054 0.02006 0.5819 0.0
C327 C 0.4338 0.06299 0.59837 0.0
C328 C 0.3285 0.11148 0.58803 0.0
O329 O 0.39633 0.10101 0.6554 0.0
O330 O 0.33501 0.08761 0.67444 0.0
C331 C 0.30193 0.00874 0.71089 0.0
N332 N 0.27881 0.00751 0.6815 0.0
C333 C 0.22681 0.9427 0.69877 0.0
C334 C 0.24994 0.94339 0.72934 0.0
C335 C 0.28777 0.97648 0.73529 0.0
C336 C 0.24277 0.97549 0.6751 0.0
H337 H 0.33095 0.0341 0.71574 0.0
C338 C 0.37319 0.10535 0.67815 0.0
O339 O 0.43448 0.09504 0.58721 0.0
O340 O 0.40307 0.03869 0.61801 0.0
N341 N 0.24077 0.00852 0.62179 0.0
C342 C 0.22186 0.01266 0.59141 0.0
C343 C 0.18294 0.98292 0.58256 0.0
C344 C 0.16379 0.94918 0.60505 0.0
C345 C 0.18378 0.94541 0.63609 0.0
C346 C 0.22223 0.97641 0.64398 0.0
H347 H 0.2362 0.03862 0.57433 0.0
O348 O 0.35303 0.03822 0.56239 0.0
O349 O 0.32263 0.0314 0.61659 0.0
O350 O 0.3618 0.11119 0.58749 0.0
O351 O 0.29788 0.08741 0.60713 0.0
C352 C 0.16682 0.91236 0.65981 0.0
C353 C 0.1885 0.91082 0.69093 0.0
H354 H 0.23898 0.91868 0.74838 0.0
H355 H 0.30588 0.97722 0.75875 0.0
H356 H 0.16755 0.98625 0.55874 0.0
H357 H 0.13352 0.92654 0.59855 0.0
H358 H 0.13721 0.88786 0.65426 0.0
H359 H 0.1753 0.88512 0.70881 0.0
Mn360 Mn 0.93107 0.30761 0.55836 0.0
Mn361 Mn 0.95311 0.24792 0.60934 0.0
C362 C 0.98545 0.29992 0.54258 0.0
C363 C 0.93883 0.36932 0.54509 0.0
C364 C 0.88791 0.21781 0.55056 0.0
O365 O 0.89669 0.29855 0.60502 0.0
O366 O 0.91609 0.26095 0.63683 0.0
C367 C -0.00065 0.30584 0.6682 0.0
N368 N 0.9968 0.27963 0.64174 0.0
C369 C 0.06265 0.29024 0.65685 0.0
C370 C 0.06589 0.31714 0.68448 0.0
C371 C 0.03417 0.32512 0.69004 0.0
C372 C 0.02742 0.27231 0.63569 0.0
H373 H 0.97501 0.312 0.67254 0.0
C374 C 0.8957 0.27882 0.6338 0.0
O375 O 0.90826 0.33742 0.53262 0.0
O376 O 0.96291 0.36519 0.56771 0.0
N377 N 0.9886 0.23235 0.587 0.0
C378 C 0.98087 0.206 0.55891 0.0
C379 C 0.00906 0.19394 0.55044 0.0
C380 C 0.0446 0.20868 0.57123 0.0
C381 C 0.05218 0.23616 0.59966 0.0
C382 C 0.02275 0.24668 0.60717 0.0
H383 H 0.95321 0.19393 0.54336 0.0
O384 O 0.96954 0.31288 0.51854 0.0
O385 O 0.97007 0.29299 0.57598 0.0
O386 O 0.8925 0.25136 0.54116 0.0
O387 O 0.90869 0.21319 0.57593 0.0
C388 C 0.08758 0.25322 0.6211 0.0
C389 C 0.093 0.28056 0.64942 0.0
H390 H 0.09261 0.33192 0.7015 0.0
H391 H 0.0365 0.34597 0.71119 0.0
H392 H 0.00314 0.17289 0.52831 0.0
H393 H 0.06577 0.19851 0.56524 0.0
H394 H 0.11096 0.24574 0.61586 0.0
H395 H 0.12054 0.29384 0.66542 0.0
Mn396 Mn 0.68794 0.62828 0.58725 0.0
Mn397 Mn 0.73553 0.71178 0.63769 0.0
C398 C 0.68693 0.68434 0.56867 0.0
C399 C 0.63218 0.57057 0.56848 0.0
C400 C 0.77814 0.68681 0.58283 0.0
O401 O 0.69687 0.60705 0.63597 0.0
O402 O 0.73272 0.66573 0.66433 0.0
C403 C 0.67337 0.68699 0.69672 0.0
N404 N 0.69674 0.71351 0.67031 0.0
C405 C 0.66995 0.75629 0.68548 0.0
C406 C 0.64579 0.72954 0.71298 0.0
C407 C 0.64741 0.69468 0.71853 0.0
C408 C 0.69507 0.74693 0.66449 0.0
H409 H 0.67449 0.66017 0.70112 0.0
C410 C 0.71781 0.62825 0.66318 0.0
O411 O 0.66826 0.5773 0.56102 0.0
O412 O 0.62863 0.59525 0.59033 0.0
N413 N 0.74057 0.75897 0.61632 0.0
C414 C 0.76522 0.78136 0.5882 0.0
C415 C 0.76732 0.81736 0.57922 0.0
C416 C 0.74452 0.83024 0.5996 0.0
C417 C 0.71934 0.80674 0.62839 0.0
C418 C 0.71874 0.77129 0.63627 0.0
H419 H 0.78303 0.77176 0.57268 0.0
O420 O 0.68124 0.65704 0.54499 0.0
O421 O 0.69248 0.67813 0.60331 0.0
O422 O 0.74784 0.65334 0.576 0.0
O423 O 0.77703 0.71263 0.60404 0.0
C424 C 0.69478 0.81707 0.64954 0.0
C425 C 0.66994 0.79176 0.67794 0.0
H426 H 0.62577 0.73539 0.7299 0.0
H427 H 0.62875 0.67382 0.73961 0.0
H428 H 0.7867 0.83528 0.55684 0.0
H429 H 0.74674 0.85833 0.593 0.0
H430 H 0.69448 0.84423 0.64396 0.0
H431 H 0.65087 0.79982 0.69377 0.0
C432 C 0.1671 0.35562 0.05622 0.0
C433 C 0.12656 0.3278 0.05203 0.0
C434 C 0.19673 0.35115 0.03706 0.0
C435 C 0.18512 0.31841 0.013 0.0
C436 C 0.14393 0.29188 0.00705 0.0
C437 C 0.11515 0.29683 0.02678 0.0
C438 C 0.24037 0.38 0.04431 0.0
C439 C 0.1302 0.25713 0.98132 0.0
C440 C 0.26652 0.31918 0.95128 0.0
C441 C 0.27843 0.29672 0.9727 0.0
C442 C 0.2349 0.32521 0.96315 0.0
C443 C 0.21586 0.30936 0.99775 0.0
C444 C 0.2274 0.28596 0.01901 0.0
C445 C 0.25871 0.2801 0.00625 0.0
C446 C 0.22295 0.3497 0.93941 0.0
C447 C 0.20779 0.2684 0.05599 0.0
H448 H 0.17566 0.37961 0.07585 0.0
H449 H 0.08359 0.276 0.02296 0.0
H450 H 0.25424 0.36501 0.05966 0.0
H451 H 0.25689 0.39079 0.01759 0.0
H452 H 0.24432 0.40568 0.06102 0.0
H453 H 0.09716 0.24132 0.97718 0.0
H454 H 0.145 0.2671 0.95384 0.0
H455 H 0.13905 0.2362 0.99307 0.0
H456 H 0.28288 0.33317 0.92598 0.0
H457 H 0.26859 0.26332 0.02302 0.0
H458 H 0.23065 0.3776 0.95406 0.0
H459 H 0.19003 0.33391 0.93485 0.0
H460 H 0.23825 0.35687 0.91183 0.0
H461 H 0.21318 0.29228 0.07593 0.0
H462 H 0.2194 0.24985 0.0684 0.0
H463 H 0.17485 0.2501 0.05248 0.0
C464 C 0.67264 0.81531 0.99469 0.0
C465 C 0.64732 0.80727 0.02549 0.0
C466 C 0.67943 0.84564 0.96995 0.0
C467 C 0.65984 0.86793 0.97604 0.0
C468 C 0.63109 0.85718 0.00514 0.0
C469 C 0.62552 0.82709 0.03002 0.0
C470 C 0.71058 0.85606 0.93982 0.0
C471 C 0.60851 0.87937 0.01169 0.0
C472 C 0.7133 0.97739 0.95809 0.0
C473 C 0.69529 0.97962 0.92505 0.0
C474 C 0.7038 0.94094 0.97357 0.0
C475 C 0.67408 0.906 0.95644 0.0
C476 C 0.65673 0.9081 0.92227 0.0
C477 C 0.66771 0.94512 0.90683 0.0
C478 C 0.72433 0.93994 0.00917 0.0
C479 C 0.62494 0.87158 0.90323 0.0
H480 H 0.689 0.79932 0.9912 0.0
H481 H 0.6058 0.82047 0.05393 0.0
H482 H 0.7024 0.86636 0.91422 0.0
H483 H 0.7396 0.88019 0.95014 0.0
H484 H 0.71491 0.83067 0.93257 0.0
H485 H 0.58289 0.86354 0.03122 0.0
H486 H 0.62914 0.9087 0.02372 0.0
H487 H 0.597 0.88422 0.98496 0.0
H488 H 0.73424 0.00433 0.97224 0.0
H489 H 0.65309 0.94716 0.88171 0.0
H490 H 0.73628 0.91923 0.00629 0.0
H491 H 0.70231 0.92924 0.03243 0.0
H492 H 0.74946 0.9694 0.01674 0.0
H493 H 0.63399 0.84859 0.9019 0.0
H494 H 0.61878 0.87781 0.87448 0.0
H495 H 0.5967 0.8594 0.91965 0.0
C496 C 0.20126 0.7825 0.0298 0.0
C497 C 0.22345 0.82363 0.0291 0.0
C498 C 0.16335 0.76251 0.01306 0.0
C499 C 0.148 0.78425 0.99426 0.0
C500 C 0.17091 0.82578 0.9926 0.0
C501 C 0.20822 0.84505 0.0105 0.0
C502 C 0.13931 0.71822 0.01633 0.0
C503 C 0.15623 0.84979 0.97169 0.0
C504 C 0.06197 0.72179 0.92932 0.0
C505 C 0.0289 0.71484 0.95137 0.0
C506 C 0.10118 0.74666 0.94186 0.0
C507 C 0.10716 0.76334 0.97796 0.0
C508 C 0.07371 0.75687 1.00004 0.0
C509 C 0.03491 0.73268 0.98639 0.0
C510 C 0.13613 0.75374 0.91716 0.0
C511 C 0.07882 0.77361 0.03892 0.0
H512 H 0.21308 0.76603 0.04439 0.0
H513 H 0.22579 0.87691 0.00953 0.0
H514 H 0.11043 0.70962 0.03072 0.0
H515 H 0.13206 0.70466 0.9882 0.0
H516 H 0.15556 0.70581 0.03205 0.0
H517 H 0.17672 0.88196 0.97469 0.0
H518 H 0.15372 0.84216 0.94164 0.0
H519 H 0.12596 0.84277 0.98167 0.0
H520 H 0.05719 0.70666 0.90286 0.0
H521 H 0.00914 0.72654 0.00364 0.0
H522 H 0.15295 0.74026 0.92984 0.0
H523 H 0.1572 0.78579 0.9146 0.0
H524 H 0.12633 0.74121 0.8888 0.0
H525 H 0.09293 0.76073 0.05703 0.0
H526 H 0.04978 0.76745 0.05165 0.0
H527 H 0.0991 0.80591 0.03846 0.0
C528 C 0.65397 0.72527 0.57633 0.0
C529 C 0.67993 0.7163 0.55636 0.0
C530 C 0.6421 0.75129 0.56163 0.0
C531 C 0.65503 0.76697 0.52542 0.0
C532 C 0.68192 0.75852 0.50551 0.0
C533 C 0.69412 0.7333 0.52132 0.0
C534 C 0.61448 0.76072 0.58415 0.0
C535 C 0.69604 0.77435 0.46669 0.0
C536 C 0.58401 0.78831 0.46946 0.0
C537 C 0.60391 0.82947 0.46986 0.0
C538 C 0.60064 0.76766 0.48718 0.0
C539 C 0.63734 0.78878 0.50673 0.0
C540 C 0.65728 0.8304 0.5075 0.0
C541 C 0.64051 0.85031 0.48863 0.0
C542 C 0.57914 0.72327 0.48469 0.0
C543 C 0.6955 0.85394 0.52922 0.0
H544 H 0.6419 0.71091 0.60283 0.0
H545 H 0.71369 0.72567 0.50572 0.0
H546 H 0.62694 0.79307 0.5857 0.0
H547 H 0.58482 0.7482 0.5703 0.0
H548 H 0.60996 0.74878 0.61295 0.0
H549 H 0.71842 0.76649 0.45575 0.0
H550 H 0.66998 0.76235 0.44746 0.0
H551 H 0.70964 0.80686 0.4665 0.0
H552 H 0.55572 0.77233 0.45477 0.0
H553 H 0.65545 0.88221 0.48945 0.0
H554 H 0.57066 0.71028 0.513 0.0
H555 H 0.59941 0.71339 0.47247 0.0
H556 H 0.55156 0.71147 0.46741 0.0
H557 H 0.68814 0.85055 0.55941 0.0
H558 H 0.71044 0.88578 0.52225 0.0
H559 H 0.71695 0.84301 0.52406 0.0
C560 C 0.17898 0.82542 0.46755 0.0
C561 C 0.14194 0.82286 0.45946 0.0
C562 C 0.20767 0.85662 0.48927 0.0
C563 C 0.19831 0.8849 0.50422 0.0
C564 C 0.16061 0.88179 0.4965 0.0
C565 C 0.1332 0.85108 0.47412 0.0
C566 C 0.2485 0.86029 0.49486 0.0
C567 C 0.14826 0.91013 0.51231 0.0
C568 C 0.26372 0.9505 0.58302 0.0
C569 C 0.28591 0.98638 0.56439 0.0
C570 C 0.23411 0.91729 0.56412 0.0
C571 C 0.22892 0.91951 0.52523 0.0
C572 C 0.25234 0.95544 0.50617 0.0
C573 C 0.27986 0.98854 0.52613 0.0
C574 C 0.20823 0.88007 0.58572 0.0
C575 C 0.24844 0.95895 0.4646 0.0
H576 H 0.18598 0.80377 0.45597 0.0
H577 H 0.10456 0.84908 0.4685 0.0
H578 H 0.27187 0.88838 0.48251 0.0
H579 H 0.2552 0.86117 0.52502 0.0
H580 H 0.25083 0.83561 0.48183 0.0
H581 H 0.13659 0.90027 0.54085 0.0
H582 H 0.17371 0.94057 0.51381 0.0
H583 H 0.12396 0.91051 0.49569 0.0
H584 H 0.26994 0.94825 0.6121 0.0
H585 H 0.29773 0.01609 0.51146 0.0
H586 H 0.21073 0.85512 0.57377 0.0
H587 H 0.17631 0.8726 0.58343 0.0
H588 H 0.21649 0.88301 0.61571 0.0
H589 H 0.25091 0.93523 0.4497 0.0
H590 H 0.2717 0.98783 0.45348 0.0
H591 H 0.21848 0.95543 0.4582 0.0
C592 C 0.0234 0.28298 0.49753 0.0
C593 C 0.02202 0.29887 0.53211 0.0
C594 C 0.05958 0.2876 0.48331 0.0
C595 C 0.09527 0.30887 0.50421 0.0
C596 C 0.09377 0.32385 0.53985 0.0
C597 C 0.05711 0.31924 0.55313 0.0
C598 C 0.05984 0.27115 0.4452 0.0
C599 C 0.13103 0.34597 0.56325 0.0
C600 C 0.1803 0.2937 0.46984 0.0
C601 C 0.20083 0.3261 0.44627 0.0
C602 C 0.14726 0.28893 0.49068 0.0
C603 C 0.13416 0.31699 0.48745 0.0
C604 C 0.15601 0.35079 0.46481 0.0
C605 C 0.18951 0.35515 0.44467 0.0
C606 C 0.12563 0.25317 0.51514 0.0
C607 C 0.14273 0.38119 0.46029 0.0
H608 H 0.9962 0.26785 0.4811 0.0
H609 H 0.05612 0.33271 0.5793 0.0
H610 H 0.07879 0.29553 0.42588 0.0
H611 H 0.07309 0.25146 0.44682 0.0
H612 H 0.02925 0.25431 0.43314 0.0
H613 H 0.12408 0.35254 0.59161 0.0
H614 H 0.14685 0.32868 0.56597 0.0
H615 H 0.15195 0.37413 0.54937 0.0
H616 H 0.18997 0.2719 0.47178 0.0
H617 H 0.2057 0.38027 0.4264 0.0
H618 H 0.09454 0.23465 0.50486 0.0
H619 H 0.12396 0.26253 0.54397 0.0
H620 H 0.14069 0.235 0.51582 0.0
H621 H 0.11333 0.36777 0.44582 0.0
H622 H 0.16462 0.4071 0.44392 0.0
H623 H 0.13856 0.39142 0.48797 0.0
C624 C 0.72777 0.73034 0.00339 0.0
C625 C 0.72005 0.7207 0.04121 0.0
C626 C 0.76002 0.7298 0.98534 0.0
C627 C 0.785 0.7193 0.00574 0.0
C628 C 0.77845 0.71147 0.04446 0.0
C629 C 0.74536 0.71137 0.0616 0.0
C630 C 0.76569 0.7379 0.94396 0.0
C631 C 0.80521 0.70135 0.06735 0.0
C632 C 0.83019 0.66512 0.95477 0.0
C633 C 0.86929 0.69538 0.94766 0.0
C634 C 0.80237 0.67278 0.97313 0.0
C635 C 0.81436 0.71146 0.98565 0.0
C636 C 0.85386 0.74215 0.97849 0.0
C637 C 0.88075 0.73382 0.95911 0.0
C638 C 0.7601 0.63945 0.97903 0.0
C639 C 0.86825 0.78341 0.99242 0.0
H640 H 0.70757 0.73686 0.9876 0.0
H641 H 0.73844 0.70264 0.09056 0.0
H642 H 0.79728 0.76002 0.9377 0.0
H643 H 0.75908 0.71046 0.92894 0.0
H644 H 0.74578 0.74877 0.93289 0.0
H645 H 0.79848 0.69994 0.09765 0.0
H646 H 0.80127 0.6724 0.05844 0.0
H647 H 0.83716 0.72356 0.06271 0.0
H648 H 0.82122 0.63543 0.94557 0.0
H649 H 0.91109 0.75717 0.95391 0.0
H650 H 0.73823 0.64726 0.96694 0.0
H651 H 0.75356 0.6344 0.00931 0.0
H652 H 0.75521 0.61151 0.96614 0.0
H653 H 0.84588 0.793 0.98657 0.0
H654 H 0.8974 0.80494 0.97971 0.0
H655 H 0.87222 0.78386 0.02308 0.0
C656 C 0.291 0.13987 0.96365 0.0
C657 C 0.32471 0.17642 0.97161 0.0
C658 C 0.28651 0.10501 0.97945 0.0
C659 C 0.31657 0.1067 0.00356 0.0
C660 C 0.35023 0.1435 0.0123 0.0
C661 C 0.35384 0.17789 0.99632 0.0
C662 C 0.25009 0.06629 0.96968 0.0
C663 C 0.38305 0.14644 0.03772 0.0
C664 C 0.29702 0.02078 0.06668 0.0
C665 C 0.31512 0.00291 0.04632 0.0
C666 C 0.2963 0.0541 0.05271 0.0
C667 C 0.31433 0.06989 0.01775 0.0
C668 C 0.33191 0.05146 0.99681 0.0
C669 C 0.33199 0.01816 0.0113 0.0
C670 C 0.277 0.07286 0.07564 0.0
C671 C 0.35158 0.0675 0.95946 0.0
H672 H 0.26815 0.13839 0.94485 0.0
H673 H 0.37999 0.20591 0.00272 0.0
H674 H 0.25948 0.04774 0.95373 0.0
H675 H 0.23497 0.04994 0.99544 0.0
H676 H 0.22807 0.07027 0.9527 0.0
H677 H 0.40628 0.17743 0.04314 0.0
H678 H 0.37014 0.13193 0.06479 0.0
H679 H 0.39781 0.13084 0.02497 0.0
H680 H 0.28382 0.00902 0.0937 0.0
H681 H 0.346 0.00449 0.99535 0.0
H682 H 0.25428 0.07572 0.05877 0.0
H683 H 0.30003 0.10298 0.08402 0.0
H684 H 0.26227 0.05568 0.1012 0.0
H685 H 0.32998 0.06954 0.94025 0.0
H686 H 0.36278 0.04895 0.94618 0.0
H687 H 0.37722 0.09769 0.963 0.0
C688 C 0.9798 0.26945 0.01271 0.0
C689 C 0.97099 0.27541 0.04929 0.0
C690 C 0.95041 0.2405 0.99001 0.0
C691 C 0.9114 0.21646 0.00453 0.0
C692 C 0.90292 0.22099 0.04216 0.0
C693 C 0.93259 0.25132 0.06384 0.0
C694 C 0.96057 0.23702 0.94993 0.0
C695 C 0.86227 0.19447 0.05915 0.0
C696 C 0.82318 0.17562 0.93777 0.0
C697 C 0.81736 0.13784 0.93077 0.0
C698 C 0.85412 0.20168 0.96132 0.0
C699 C 0.87882 0.18905 0.97931 0.0
C700 C 0.87302 0.15089 0.97217 0.0
C701 C 0.8426 0.12593 0.9477 0.0
C702 C 0.86055 0.24281 0.96673 0.0
C703 C 0.89748 0.13542 0.99143 0.0
H704 H 0.00944 0.2887 0.00134 0.0
H705 H 0.92548 0.2569 0.0917 0.0
H706 H 0.95426 0.20657 0.94408 0.0
H707 H 0.94142 0.24327 0.93103 0.0
H708 H 0.99255 0.25764 0.94318 0.0
H709 H 0.86133 0.2003 0.08938 0.0
H710 H 0.83898 0.19859 0.04469 0.0
H711 H 0.85445 0.16323 0.05544 0.0
H712 H 0.8037 0.18488 0.92454 0.0
H713 H 0.83772 0.09653 0.94296 0.0
H714 H 0.89199 0.26477 0.95962 0.0
H715 H 0.85566 0.24742 0.9964 0.0
H716 H 0.84004 0.2486 0.94927 0.0
H717 H 0.92921 0.15857 0.99477 0.0
H718 H 0.89668 0.11028 0.97606 0.0
H719 H 0.88454 0.12488 0.01953 0.0
C720 C 0.3572 0.17684 0.55622 0.0
C721 C 0.32436 0.13962 0.56348 0.0
C722 C 0.35338 0.20334 0.53232 0.0
C723 C 0.31624 0.19169 0.51431 0.0
C724 C 0.28322 0.15393 0.52131 0.0
C725 C 0.28761 0.12859 0.54608 0.0
C726 C 0.38876 0.2441 0.5271 0.0
C727 C 0.24349 0.13949 0.50195 0.0
C728 C 0.29463 0.27227 0.48367 0.0
C729 C 0.30835 0.27865 0.44672 0.0
C730 C 0.29644 0.24362 0.50573 0.0
C731 C 0.31141 0.22002 0.49011 0.0
C732 C 0.32358 0.22508 0.4522 0.0
C733 C 0.32311 0.25531 0.43122 0.0
C734 C 0.2839 0.23977 0.54619 0.0
C735 C 0.33765 0.19903 0.43408 0.0
H736 H 0.38563 0.18549 0.56981 0.0
H737 H 0.26234 0.0997 0.55107 0.0
H738 H 0.39757 0.2492 0.49727 0.0
H739 H 0.38027 0.26648 0.53545 0.0
H740 H 0.41521 0.24878 0.54375 0.0
H741 H 0.21895 0.11333 0.51601 0.0
H742 H 0.23489 0.16276 0.50051 0.0
H743 H 0.24635 0.13097 0.47311 0.0
H744 H 0.28394 0.29095 0.49582 0.0
H745 H 0.33516 0.26133 0.40311 0.0
H746 H 0.30948 0.24487 0.56436 0.0
H747 H 0.25921 0.20953 0.55185 0.0
H748 H 0.27361 0.26095 0.55413 0.0
H749 H 0.36491 0.20247 0.44831 0.0
H750 H 0.34458 0.20582 0.40399 0.0
H751 H 0.31409 0.16773 0.43697 0.0
C752 C 0.85515 0.14569 0.53621 0.0
C753 C 0.85712 0.18229 0.53093 0.0
C754 C 0.82553 0.11163 0.51867 0.0
C755 C 0.79692 0.11411 0.49555 0.0
C756 C 0.79933 0.15105 0.48927 0.0
C757 C 0.82946 0.18472 0.50693 0.0
C758 C 0.82406 0.07278 0.52588 0.0
C759 C 0.76912 0.1548 0.46503 0.0
C760 C 0.72955 0.02897 0.43175 0.0
C761 C 0.69449 0.00991 0.4533 0.0
C762 C 0.76357 0.06269 0.44531 0.0
C763 C 0.76216 0.07763 0.48101 0.0
C764 C 0.72699 0.05812 0.50297 0.0
C765 C 0.69373 0.02449 0.48893 0.0
C766 C 0.80078 0.08261 0.42133 0.0
C767 C 0.72415 0.07317 0.54112 0.0
H768 H 0.87657 0.14346 0.55437 0.0
H769 H 0.83074 0.21281 0.50252 0.0
H770 H 0.79675 0.05335 0.54226 0.0
H771 H 0.82217 0.05758 0.49916 0.0
H772 H 0.85072 0.07642 0.54152 0.0
H773 H 0.77689 0.18596 0.46073 0.0
H774 H 0.767 0.14106 0.43741 0.0
H775 H 0.73898 0.1389 0.47819 0.0
H776 H 0.73029 0.01781 0.40423 0.0
H777 H 0.66673 0.01001 0.50579 0.0
H778 H 0.82705 0.08522 0.43686 0.0
H779 H 0.80728 0.11291 0.41439 0.0
H780 H 0.79765 0.06639 0.39494 0.0
H781 H 0.74811 0.07456 0.55949 0.0
H782 H 0.69465 0.05433 0.55473 0.0
H783 H 0.72875 0.10349 0.53878 0.0
C784 C 0.94684 0.70583 0.44231 0.0
C785 C 0.98426 0.72067 0.4595 0.0
C786 C 0.9146 0.7058 0.46119 0.0
C787 C 0.91962 0.71894 0.49867 0.0
C788 C 0.95772 0.73479 0.51574 0.0
C789 C 0.98964 0.73557 0.49584 0.0
C790 C 0.87484 0.69042 0.44158 0.0
C791 C 0.9642 0.74877 0.55572 0.0
C792 C 0.83968 0.73347 0.54791 0.0
C793 C 0.81592 0.6963 0.5638 0.0
C794 C 0.87353 0.74145 0.52642 0.0
C795 C 0.88419 0.71169 0.52146 0.0
C796 C 0.86107 0.67455 0.53879 0.0
C797 C 0.8268 0.6671 0.55925 0.0
C798 C 0.89634 0.78103 0.50768 0.0
C799 C 0.87241 0.64258 0.53562 0.0
H800 H 0.94248 0.69315 0.41464 0.0
H801 H 0.01859 0.74646 0.50923 0.0
H802 H 0.85206 0.66282 0.45508 0.0
H803 H 0.86413 0.71215 0.44394 0.0
H804 H 0.87683 0.68438 0.41158 0.0
H805 H 0.99615 0.76205 0.56424 0.0
H806 H 0.95424 0.77088 0.5598 0.0
H807 H 0.94582 0.72359 0.57448 0.0
H808 H 0.83094 0.75586 0.55096 0.0
H809 H 0.80847 0.6384 0.57181 0.0
H810 H 0.92894 0.79124 0.50611 0.0
H811 H 0.89191 0.80374 0.52235 0.0
H812 H 0.88484 0.77834 0.47885 0.0
H813 H 0.87052 0.6333 0.50609 0.0
H814 H 0.85263 0.61629 0.55265 0.0
H815 H 0.9039 0.65395 0.54478 0.0
C816 C 0.2598 0.41727 0.31373 0.0
C817 C 0.26796 0.38706 0.30388 0.0
C818 C 0.2343 0.42537 0.29162 0.0
C819 C 0.21704 0.40291 0.25895 0.0
C820 C 0.2289 0.37544 0.24698 0.0
C821 C 0.25389 0.36762 0.26977 0.0
C822 C 0.22288 0.45519 0.30522 0.0
C823 C 0.21204 0.35137 0.21194 0.0
C824 C 0.10985 0.36493 0.22892 0.0
C825 C 0.11497 0.38487 0.19515 0.0
C826 C 0.14266 0.37357 0.25205 0.0
C827 C 0.18172 0.4024 0.24076 0.0
C828 C 0.18649 0.42531 0.20852 0.0
C829 C 0.15288 0.41636 0.18608 0.0
C830 C 0.13589 0.34897 0.28663 0.0
C831 C 0.22743 0.45658 0.19567 0.0
H832 H 0.27029 0.43207 0.34031 0.0
H833 H 0.26024 0.34429 0.26212 0.0
H834 H 0.21965 0.47178 0.28161 0.0
H835 H 0.19351 0.43968 0.3198 0.0
H836 H 0.2454 0.47634 0.32509 0.0
H837 H 0.22819 0.33526 0.20402 0.0
H838 H 0.17992 0.32953 0.21641 0.0
H839 H 0.21375 0.37048 0.18832 0.0
H840 H 0.08052 0.34063 0.236 0.0
H841 H 0.15702 0.4316 0.15977 0.0
H842 H 0.15257 0.36786 0.31063 0.0
H843 H 0.14731 0.32807 0.28178 0.0
H844 H 0.10359 0.33176 0.2942 0.0
H845 H 0.24651 0.47319 0.21968 0.0
H846 H 0.22535 0.47759 0.1761 0.0
H847 H 0.24257 0.44238 0.18097 0.0
C848 C 0.56439 0.7513 0.17502 0.0
C849 C 0.59924 0.74883 0.1815 0.0
C850 C 0.54992 0.76753 0.20205 0.0
C851 C 0.57037 0.78069 0.2365 0.0
C852 C 0.60413 0.77593 0.24386 0.0
C853 C 0.61847 0.76064 0.21608 0.0
C854 C 0.51428 0.77271 0.19287 0.0
C855 C 0.62624 0.78855 0.28055 0.0
C856 C 0.57266 0.86246 0.29583 0.0
C857 C 0.54731 0.84117 0.32551 0.0
C858 C 0.57806 0.84303 0.26514 0.0
C859 C 0.55826 0.80133 0.26443 0.0
C860 C 0.53077 0.77973 0.29313 0.0
C861 C 0.52537 0.79989 0.32312 0.0
C862 C 0.60686 0.86718 0.23458 0.0
C863 C 0.50935 0.7353 0.2937 0.0
H864 H 0.54996 0.74286 0.14799 0.0
H865 H 0.64552 0.75892 0.22104 0.0
H866 H 0.4922 0.76193 0.21607 0.0
H867 H 0.52445 0.80449 0.1892 0.0
H868 H 0.49902 0.757 0.16688 0.0
H869 H 0.64973 0.77975 0.28301 0.0
H870 H 0.64079 0.82102 0.28331 0.0
H871 H 0.60491 0.7755 0.30416 0.0
H872 H 0.58943 0.89432 0.29718 0.0
H873 H 0.50568 0.78301 0.34583 0.0
H874 H 0.59338 0.85592 0.20678 0.0
H875 H 0.63449 0.86468 0.23647 0.0
H876 H 0.61549 0.8988 0.23652 0.0
H877 H 0.49608 0.72316 0.26605 0.0
H878 H 0.48519 0.72288 0.3151 0.0
H879 H 0.53128 0.7252 0.29995 0.0
C880 C 0.27822 0.85511 0.20575 0.0
C881 C 0.28138 0.83297 0.17638 0.0
C882 C 0.25154 0.8367 0.23557 0.0
C883 C 0.22683 0.79522 0.23568 0.0
C884 C 0.23138 0.77259 0.20715 0.0
C885 C 0.25883 0.79168 0.17807 0.0
C886 C 0.24827 0.86185 0.26594 0.0
C887 C 0.20529 0.72838 0.20587 0.0
C888 C 0.1675 0.74647 0.32408 0.0
C889 C 0.13148 0.74661 0.31721 0.0
C890 C 0.19874 0.76151 0.29755 0.0
C891 C 0.19332 0.77615 0.26315 0.0
C892 C 0.15608 0.77423 0.25538 0.0
C893 C 0.12588 0.75999 0.28268 0.0
C894 C 0.23816 0.76361 0.30711 0.0
C895 C 0.14858 0.78851 0.2187 0.0
H896 H 0.29571 0.88696 0.20488 0.0
H897 H 0.26083 0.7742 0.15549 0.0
H898 H 0.21919 0.86153 0.26346 0.0
H899 H 0.24892 0.84983 0.29381 0.0
H900 H 0.27285 0.89288 0.2644 0.0
H901 H 0.21564 0.71472 0.18444 0.0
H902 H 0.20479 0.7152 0.23339 0.0
H903 H 0.17398 0.72086 0.19929 0.0
H904 H 0.17212 0.73667 0.35099 0.0
H905 H 0.09803 0.76009 0.27729 0.0
H906 H 0.2617 0.79488 0.3101 0.0
H907 H 0.24782 0.75081 0.28433 0.0
H908 H 0.23644 0.74796 0.3335 0.0
H909 H 0.16853 0.82078 0.21627 0.0
H910 H 0.11698 0.78204 0.21591 0.0
H911 H 0.15571 0.77453 0.19509 0.0
C912 C 0.82964 0.57941 0.82637 0.0
C913 C 0.86872 0.60958 0.81855 0.0
C914 C 0.79824 0.57012 0.80091 0.0
C915 C 0.80634 0.59163 0.76717 0.0
C916 C 0.84653 0.61893 0.75756 0.0
C917 C 0.87716 0.62753 0.78337 0.0
C918 C 0.75604 0.53992 0.81172 0.0
C919 C 0.85683 0.64221 0.72168 0.0
C920 C 0.7371 0.57916 0.68654 0.0
C921 C 0.72967 0.61043 0.69359 0.0
C922 C 0.75883 0.5696 0.71221 0.0
C923 C 0.77339 0.59198 0.74536 0.0
C924 C 0.76201 0.62056 0.75426 0.0
C925 C 0.7403 0.62939 0.72828 0.0
C926 C 0.76919 0.53805 0.70219 0.0
C927 C 0.77625 0.64482 0.78952 0.0
H928 H 0.82292 0.56527 0.85348 0.0
H929 H 0.90747 0.6504 0.77694 0.0
H930 H 0.74067 0.55505 0.82418 0.0
H931 H 0.73849 0.52325 0.78701 0.0
H932 H 0.75592 0.51888 0.83266 0.0
H933 H 0.88971 0.65885 0.71651 0.0
H934 H 0.8422 0.62246 0.69761 0.0
H935 H 0.8455 0.66353 0.72299 0.0
H936 H 0.72879 0.56423 0.65983 0.0
H937 H 0.73397 0.65311 0.73415 0.0
H938 H 0.76971 0.52173 0.72733 0.0
H939 H 0.79951 0.5519 0.68937 0.0
H940 H 0.74753 0.51684 0.68179 0.0
H941 H 0.77075 0.62559 0.81411 0.0
H942 H 0.76113 0.66259 0.79423 0.0
H943 H 0.80908 0.66517 0.78766 0.0
C944 C 0.43138 0.25085 0.85325 0.0
C945 C 0.4096 0.27007 0.84461 0.0
C946 C 0.43839 0.229 0.82585 0.0
C947 C 0.42318 0.22656 0.78935 0.0
C948 C 0.40644 0.25065 0.77954 0.0
C949 C 0.39965 0.27195 0.8074 0.0
C950 C 0.45754 0.20478 0.83718 0.0
C951 C 0.39056 0.24976 0.74083 0.0
C952 C 0.42855 0.16652 0.70781 0.0
C953 C 0.39023 0.13323 0.70979 0.0
C954 C 0.44136 0.19635 0.73506 0.0
C955 C 0.41514 0.19262 0.76473 0.0
C956 C 0.37778 0.15758 0.76827 0.0
C957 C 0.36587 0.12845 0.74083 0.0
C958 C 0.48173 0.23278 0.73062 0.0
C959 C 0.34892 0.15187 0.79967 0.0
H960 H 0.43898 0.24923 0.88207 0.0
H961 H 0.38299 0.28701 0.8007 0.0
H962 H 0.43369 0.17437 0.84376 0.0
H963 H 0.47612 0.20302 0.81422 0.0
H964 H 0.47655 0.21714 0.86237 0.0
H965 H 0.38466 0.27464 0.73613 0.0
H966 H 0.41204 0.25092 0.71936 0.0
H967 H 0.362 0.22181 0.73694 0.0
H968 H 0.44763 0.17034 0.68396 0.0
H969 H 0.33653 0.10244 0.74294 0.0
H970 H 0.49589 0.24455 0.75809 0.0
H971 H 0.47778 0.25592 0.71643 0.0
H972 H 0.50238 0.22683 0.71341 0.0
H973 H 0.36426 0.15718 0.82699 0.0
H974 H 0.32248 0.12179 0.79989 0.0
H975 H 0.33803 0.17341 0.79683 0.0
C976 C 0.73855 0.1712 0.79816 0.0
C977 C 0.73629 0.13462 0.79193 0.0
C978 C 0.75786 0.2021 0.77218 0.0
C979 C 0.77532 0.19608 0.73963 0.0
C980 C 0.76926 0.15793 0.73164 0.0
C981 C 0.74983 0.1278 0.75783 0.0
C982 C 0.76233 0.24183 0.78121 0.0
C983 C 0.78674 0.14971 0.69711 0.0
C984 C 0.82648 0.2602 0.65591 0.0
C985 C 0.86652 0.2714 0.6641 0.0
C986 C 0.79593 0.23954 0.68237 0.0
C987 C 0.80594 0.22984 0.71738 0.0
C988 C 0.84686 0.24589 0.72726 0.0
C989 C 0.87661 0.26643 0.70047 0.0
C990 C 0.75282 0.22449 0.67132 0.0
C991 C 0.8592 0.2371 0.76446 0.0
H992 H 0.72797 0.17663 0.8244 0.0
H993 H 0.74754 0.09937 0.75258 0.0
H994 H 0.79097 0.25972 0.79629 0.0
H995 H 0.76296 0.25799 0.75553 0.0
H996 H 0.73751 0.23894 0.7995 0.0
H997 H 0.77627 0.11782 0.69347 0.0
H998 H 0.77852 0.16053 0.67186 0.0
H999 H 0.81999 0.1655 0.69904 0.0
H1000 H 0.81852 0.26411 0.62785 0.0
H1001 H 0.90764 0.27557 0.70702 0.0
H1002 H 0.73443 0.22382 0.69561 0.0
H1003 H 0.74008 0.19401 0.66054 0.0
H1004 H 0.75036 0.24292 0.64899 0.0
H1005 H 0.84246 0.24157 0.7875 0.0
H1006 H 0.89187 0.25589 0.76965 0.0
H1007 H 0.85197 0.20582 0.76514 0.0
C1008 C 0.97347 0.42494 0.06539 0.0
C1009 C 0.01453 0.44395 0.07403 0.0
C1010 C 0.957 0.44372 0.04428 0.0
C1011 C 0.98184 0.4831 0.03281 0.0
C1012 C 0.02289 0.50328 0.0433 0.0
C1013 C 0.03901 0.48311 0.06308 0.0
C1014 C 0.91353 0.42066 0.03255 0.0
C1015 C 0.04993 0.54584 0.03287 0.0
C1016 C 0.95535 0.52338 0.94738 0.0
C1017 C 0.93605 0.5423 0.9636 0.0
C1018 C 0.96906 0.50267 0.96949 0.0
C1019 C 0.96507 0.50264 0.00883 0.0
C1020 C 0.94514 0.52139 0.02524 0.0
C1021 C 0.93013 0.5403 0.00231 0.0
C1022 C 0.98858 0.48156 0.95084 0.0
C1023 C 0.94153 0.52326 0.06707 0.0
H1024 H 0.95453 0.39435 0.07313 0.0
H1025 H 0.07077 0.49774 0.06956 0.0
H1026 H 0.89701 0.43599 0.04156 0.0
H1027 H 0.9117 0.41857 0.00166 0.0
H1028 H 0.89814 0.39039 0.04428 0.0
H1029 H 0.07973 0.55841 0.04657 0.0
H1030 H 0.05455 0.54844 0.00223 0.0
H1031 H 0.03572 0.56373 0.04079 0.0
H1032 H 0.96028 0.52534 0.91747 0.0
H1033 H 0.91612 0.55584 0.01498 0.0
H1034 H 0.97467 0.45071 0.96092 0.0
H1035 H 0.02087 0.49614 0.95817 0.0
H1036 H 0.98593 0.48128 0.91997 0.0
H1037 H 0.92606 0.4932 0.07909 0.0
H1038 H 0.92481 0.53869 0.07536 0.0
H1039 H 0.97194 0.53893 0.0796 0.0
C1040 C 0.57447 0.56891 0.06847 0.0
C1041 C 0.5525 0.58873 0.0735 0.0
C1042 C 0.55684 0.53131 0.05237 0.0
C1043 C 0.51581 0.51241 0.04239 0.0
C1044 C 0.49282 0.53129 0.0496 0.0
C1045 C 0.5117 0.56967 0.06432 0.0
C1046 C 0.58278 0.51293 0.04397 0.0
C1047 C 0.44859 0.51144 0.04071 0.0
C1048 C 0.47534 0.43615 0.96484 0.0
C1049 C 0.45891 0.40096 0.98506 0.0
C1050 C 0.4955 0.47267 0.9831 0.0
C1051 C 0.49751 0.47388 0.0226 0.0
C1052 C 0.48135 0.43829 0.04307 0.0
C1053 C 0.46291 0.40222 0.02395 0.0
C1054 C 0.5138 0.50993 0.96016 0.0
C1055 C 0.48159 0.43824 0.08519 0.0
H1056 H 0.60626 0.58385 0.07487 0.0
H1057 H 0.49474 0.58501 0.06807 0.0
H1058 H 0.5694 0.48298 0.05613 0.0
H1059 H 0.58446 0.50982 0.01333 0.0
H1060 H 0.61377 0.53076 0.05488 0.0
H1061 H 0.43411 0.52797 0.05205 0.0
H1062 H 0.4443 0.50897 0.01005 0.0
H1063 H 0.43304 0.48114 0.05229 0.0
H1064 H 0.47192 0.43508 0.93478 0.0
H1065 H 0.44933 0.37493 0.03965 0.0
H1066 H 0.54541 0.52949 0.96865 0.0
H1067 H 0.4972 0.52619 0.96514 0.0
H1068 H 0.51312 0.50387 0.9298 0.0
H1069 H 0.5126 0.45632 0.09581 0.0
H1070 H 0.46883 0.40808 0.0969 0.0
H1071 H 0.46376 0.4517 0.09577 0.0
C1072 C 0.46406 0.96095 0.07247 0.0
C1073 C 0.42568 0.94132 0.05682 0.0
C1074 C 0.4982 0.9812 0.04959 0.0
C1075 C 0.49342 0.98299 0.0105 0.0
C1076 C 0.45458 0.96294 0.99478 0.0
C1077 C 0.42133 0.94218 0.01808 0.0
C1078 C 0.53931 0.00062 0.06713 0.0
C1079 C 0.44792 0.96412 0.95338 0.0
C1080 C 0.5773 0.06324 0.95206 0.0
C1081 C 0.59249 0.04152 0.93381 0.0
C1082 C 0.54487 0.04464 0.97724 0.0
C1083 C 0.52889 0.00403 0.98549 0.0
C1084 C 0.54522 0.9826 0.9679 0.0
C1085 C 0.57599 0.00129 0.94176 0.0
C1086 C 0.52742 0.06819 0.99466 0.0
C1087 C 0.53007 0.9397 0.97632 0.0
H1088 H 0.46726 0.96069 0.10249 0.0
H1089 H 0.39152 0.92804 0.00602 0.0
H1090 H 0.55779 0.98889 0.05437 0.0
H1091 H 0.55482 0.03275 0.06166 0.0
H1092 H 0.53795 0.99578 0.09775 0.0
H1093 H 0.41556 0.94897 0.94599 0.0
H1094 H 0.46194 0.9951 0.94369 0.0
H1095 H 0.46241 0.94976 0.93791 0.0
H1096 H 0.59049 0.09446 0.94643 0.0
H1097 H 0.58832 0.98445 0.92861 0.0
H1098 H 0.52931 0.06749 0.02549 0.0
H1099 H 0.49515 0.0548 0.98737 0.0
H1100 H 0.54309 0.09936 0.98529 0.0
H1101 H 0.52557 0.93406 0.00674 0.0
H1102 H 0.55092 0.9295 0.96616 0.0
H1103 H 0.50076 0.92193 0.96234 0.0
C1104 C 0.54604 0.96562 0.488 0.0
C1105 C 0.52639 0.95275 0.45368 0.0
C1106 C 0.53539 0.98621 0.51334 0.0
C1107 C 0.50253 0.99198 0.50522 0.0
C1108 C 0.48115 0.97726 0.47129 0.0
C1109 C 0.49439 0.95907 0.44514 0.0
C1110 C 0.5591 0.00137 0.54897 0.0
C1111 C 0.44388 0.97991 0.46307 0.0
C1112 C 0.45109 0.01026 0.58745 0.0
C1113 C 0.45961 0.04904 0.58088 0.0
C1114 C 0.46545 0.9915 0.56362 0.0
C1115 C 0.48991 0.01236 0.53282 0.0
C1116 C 0.5022 0.05285 0.52842 0.0
C1117 C 0.48644 0.07063 0.55222 0.0
C1118 C 0.45202 0.94876 0.57114 0.0
C1119 C 0.53107 0.07706 0.49793 0.0
H1120 H 0.57057 0.96039 0.4948 0.0
H1121 H 0.47933 0.94913 0.41855 0.0
H1122 H 0.56712 0.03252 0.55375 0.0
H1123 H 0.54048 0.98387 0.57292 0.0
H1124 H 0.58711 -0.00065 0.54856 0.0
H1125 H 0.42918 0.9646 0.43675 0.0
H1126 H 0.42209 0.96659 0.48635 0.0
H1127 H 0.45148 0.01118 0.46089 0.0
H1128 H 0.43076 0.99333 0.60981 0.0
H1129 H 0.49355 0.10078 0.54717 0.0
H1130 H 0.46603 0.93631 0.55253 0.0
H1131 H 0.41893 0.93138 0.56808 0.0
H1132 H 0.45901 0.9452 0.60046 0.0
H1133 H 0.55768 0.0727 0.49802 0.0
H1134 H 0.54138 0.10897 0.50108 0.0
H1135 H 0.51638 0.06728 0.47036 0.0
C1136 C 0.94602 0.41117 0.49031 0.0
C1137 C 0.95044 0.40815 0.52876 0.0
C1138 C 0.96318 0.44802 0.47268 0.0
C1139 C 0.98386 0.48271 0.49428 0.0
C1140 C 0.98691 0.47979 0.53342 0.0
C1141 C 0.97095 0.44246 0.55008 0.0
C1142 C 0.96034 0.4498 0.43078 0.0
C1143 C 0.00719 0.51604 0.55765 0.0
C1144 C 0.05838 0.58012 0.44886 0.0
C1145 C 0.03388 0.59679 0.442 0.0
C1146 C 0.04228 0.54242 0.46497 0.0
C1147 C 0.00133 0.52202 0.47599 0.0
C1148 C 0.97679 0.53921 0.46956 0.0
C1149 C 0.99317 0.57594 0.45198 0.0
C1150 C 0.069 0.52439 0.47015 0.0
C1151 C 0.93349 0.51931 0.48217 0.0
H1152 H 0.93098 0.38459 0.47367 0.0
H1153 H 0.97463 0.44005 0.57977 0.0
H1154 H 0.94425 0.46594 0.42319 0.0
H1155 H 0.99092 0.46621 0.41855 0.0
H1156 H 0.94447 0.42007 0.41791 0.0
H1157 H 0.00475 0.50867 0.58781 0.0
H1158 H 0.03942 0.53341 0.55018 0.0
H1159 H 0.99363 0.53514 0.5528 0.0
H1160 H 0.08988 0.59634 0.44131 0.0
H1161 H 0.97433 0.58917 0.44744 0.0
H1162 H 0.0551 0.49483 0.45699 0.0
H1163 H 0.07238 0.52036 0.50028 0.0
H1164 H 0.09932 0.54285 0.45789 0.0
H1165 H 0.91613 0.49052 0.46797 0.0
H1166 H 0.91894 0.53738 0.47632 0.0
H1167 H 0.93167 0.51343 0.51259 0.0
C1168 C 0.44955 0.42917 0.43588 0.0
C1169 C 0.42763 0.44811 0.42645 0.0
C1170 C 0.48347 0.44747 0.45876 0.0
C1171 C 0.4969 0.48636 0.47123 0.0
C1172 C 0.4763 0.50655 0.45996 0.0
C1173 C 0.44121 0.48678 0.43841 0.0
C1174 C 0.50355 0.42434 0.47126 0.0
C1175 C 0.49076 0.54867 0.4714 0.0
C1176 C 0.55906 0.5241 0.55968 0.0
C1177 C 0.59807 0.5435 0.54518 0.0
C1178 C 0.52584 0.50408 0.53599 0.0
C1179 C 0.53186 0.50537 0.49685 0.0
C1180 C 0.57132 0.52475 0.4822 0.0
C1181 C 0.60399 0.54285 0.50664 0.0
C1182 C 0.4843 0.48223 0.55279 0.0
C1183 C 0.57898 0.52809 0.44065 0.0
H1184 H 0.43866 0.3989 0.4274 0.0
H1185 H 0.42412 0.50131 0.43136 0.0
H1186 H 0.53582 0.44012 0.46367 0.0
H1187 H 0.50173 0.42138 0.5021 0.0
H1188 H 0.48952 0.39442 0.45879 0.0
H1189 H 0.47416 0.56148 0.45694 0.0
H1190 H 0.48685 0.55017 0.50191 0.0
H1191 H 0.52326 0.56705 0.46519 0.0
H1192 H 0.55455 0.52507 0.58946 0.0
H1193 H 0.63415 0.55882 0.49532 0.0
H1194 H 0.46806 0.45172 0.54177 0.0
H1195 H 0.46684 0.4969 0.54484 0.0
H1196 H 0.48507 0.48098 0.58371 0.0
H1197 H 0.5655 0.49846 0.42779 0.0
H1198 H 0.61151 0.54423 0.4338 0.0
H1199 H 0.56446 0.54375 0.42766 0.0
loop_
_geom_bond_atom_site_label_1
_geom_bond_atom_site_label_2
_geom_bond_distance
_geom_bond_site_symmetry_2
_ccdc_geom_bond_type
Mn0 O5 2.095 . S
Mn0 O15 2.162 . S
Mn0 O16 2.297 . S
Mn0 O24 2.385 . S
Mn0 O25 2.209 . S
Mn0 O26 2.094 . S
Mn1 O6 2.121 . S
Mn1 N8 2.257 . S
Mn1 N17 2.282 . S
Mn1 O25 2.215 . S
Mn1 O27 2.117 . S
C2 O24 1.234 . S
C2 O25 1.283 . S
C3 O15 1.281 . S
C3 O16 1.236 . S
C4 O26 1.240 . S
C4 O27 1.264 . S
O5 Mn0 2.095 . S
O5 C14 1.250 . S
O6 Mn1 2.121 . S
O6 C14 1.258 . S
C7 N8 1.326 . S
C7 C11 1.460 1_455 S
C7 H13 0.929 . S
N8 Mn1 2.257 . S
N8 C7 1.326 . S
N8 C12 1.362 1_455 S
C9 C10 1.258 . S
C9 C12 1.431 . S
C9 C29 1.449 . S
C10 C9 1.258 . S
C10 C11 1.477 . S
C10 H30 0.931 . S
C11 C7 1.460 1_655 S
C11 C10 1.477 . S
C11 H31 0.930 . S
C12 N8 1.362 1_655 S
C12 C9 1.431 . S
C12 C22 1.476 1_655 S
H13 C7 0.929 . S
C14 O5 1.250 . S
C14 O6 1.258 . S
O15 Mn0 2.162 . S
O15 C3 1.281 . S
O16 Mn0 2.297 . S
O16 C3 1.236 . S
N17 Mn1 2.282 . S
N17 C18 1.328 . S
N17 C22 1.318 . S
C18 N17 1.328 . S
C18 C19 1.457 1_554 S
C18 H23 0.929 . S
C19 C18 1.457 1_556 S
C19 C20 1.291 1_456 S
C19 H32 0.931 . S
C20 C19 1.291 1_654 S
C20 C21 1.373 . S
C20 H33 0.929 1_554 S
C21 C20 1.373 . S
C21 C22 1.396 1_655 S
C21 C28 1.403 . S
C22 C12 1.476 1_455 S
C22 N17 1.318 . S
C22 C21 1.396 1_455 S
H23 C18 0.929 . S
O24 Mn0 2.385 . S
O24 C2 1.234 . S
O25 Mn0 2.209 . S
O25 Mn1 2.215 . S
O25 C2 1.283 . S
O26 Mn0 2.094 . S
O26 C4 1.240 . S
O27 Mn1 2.117 . S
O27 C4 1.264 . S
C28 C21 1.403 . S
C28 C29 1.399 . S
C28 H34 0.929 . S
C29 C9 1.449 . S
C29 C28 1.399 . S
C29 H35 0.930 . S
H30 C10 0.931 . S
H31 C11 0.930 . S
H32 C19 0.931 . S
H33 C20 0.929 1_556 S
H34 C28 0.929 . S
H35 C29 0.930 . S
Mn36 O41 2.095 . S
Mn36 O51 2.162 . S
Mn36 O52 2.297 . S
Mn36 O60 2.385 . S
Mn36 O61 2.209 . S
Mn36 O62 2.094 . S
Mn37 O42 2.121 . S
Mn37 N44 2.257 . S
Mn37 N53 2.282 . S
Mn37 O61 2.215 . S
Mn37 O63 2.117 . S
C38 O60 1.234 . S
C38 O61 1.283 . S
C39 O51 1.281 . S
C39 O52 1.236 . S
C40 O62 1.240 . S
C40 O63 1.264 . S
O41 Mn36 2.095 . S
O41 C50 1.250 . S
O42 Mn37 2.121 . S
O42 C50 1.258 . S
C43 N44 1.326 . S
C43 C47 1.460 . S
C43 H49 0.929 . S
N44 Mn37 2.257 . S
N44 C43 1.326 . S
N44 C48 1.362 . S
C45 C46 1.258 . S
C45 C48 1.431 . S
C45 C65 1.449 . S
C46 C45 1.258 . S
C46 C47 1.477 . S
C46 H66 0.931 . S
C47 C43 1.460 . S
C47 C46 1.477 . S
C47 H67 0.930 . S
C48 N44 1.362 . S
C48 C45 1.431 . S
C48 C58 1.476 . S
H49 C43 0.929 . S
C50 O41 1.250 . S
C50 O42 1.258 . S
O51 Mn36 2.162 . S
O51 C39 1.281 . S
O52 Mn36 2.297 . S
O52 C39 1.236 . S
N53 Mn37 2.282 . S
N53 C54 1.328 . S
N53 C58 1.318 . S
C54 N53 1.328 . S
C54 C55 1.457 1_554 S
C54 H59 0.936 . S
C55 C54 1.457 1_556 S
C55 C56 1.291 1_556 S
C55 H68 0.931 . S
C56 C55 1.291 1_554 S
C56 C57 1.373 . S
C56 H69 0.929 1_554 S
C57 C56 1.373 . S
C57 C58 1.396 . S
C57 C64 1.403 . S
C58 C48 1.476 . S
C58 N53 1.318 . S
C58 C57 1.396 . S
H59 C54 0.936 . S
O60 Mn36 2.385 . S
O60 C38 1.234 . S
O61 Mn36 2.209 . S
O61 Mn37 2.215 . S
O61 C38 1.283 . S
O62 Mn36 2.094 . S
O62 C40 1.240 . S
O63 Mn37 2.117 . S
O63 C40 1.264 . S
C64 C57 1.403 . S
C64 C65 1.399 . S
C64 H70 0.929 . S
C65 C45 1.449 . S
C65 C64 1.399 . S
C65 H71 0.930 . S
H66 C46 0.931 . S
H67 C47 0.930 . S
H68 C55 0.931 . S
H69 C56 0.929 1_556 S
H70 C64 0.929 . S
H71 C65 0.930 . S
Mn72 O77 2.095 . S
Mn72 O87 2.162 . S
Mn72 O88 2.297 . S
Mn72 O96 2.385 . S
Mn72 O97 2.209 . S
Mn72 O98 2.094 . S
Mn73 O78 2.121 . S
Mn73 N80 2.257 . S
Mn73 N89 2.282 . S
Mn73 O97 2.215 . S
Mn73 O99 2.117 . S
C74 O96 1.234 . S
C74 O97 1.283 . S
C75 O87 1.281 . S
C75 O88 1.236 . S
C76 O98 1.240 . S
C76 O99 1.264 . S
O77 Mn72 2.095 . S
O77 C86 1.250 . S
O78 Mn73 2.121 . S
O78 C86 1.258 . S
C79 N80 1.326 1_556 S
C79 C83 1.460 . S
C79 H85 0.929 . S
N80 Mn73 2.257 . S
N80 C79 1.326 1_554 S
N80 C84 1.362 . S
C81 C82 1.258 1_554 S
C81 C84 1.431 . S
C81 C101 1.449 . S
C82 C81 1.258 1_556 S
C82 C83 1.477 . S
C82 H102 0.931 . S
C83 C79 1.460 . S
C83 C82 1.477 . S
C83 H103 0.930 . S
C84 N80 1.362 . S
C84 C81 1.431 . S
C84 C94 1.476 . S
H85 C79 0.929 . S
C86 O77 1.250 . S
C86 O78 1.258 . S
O87 Mn72 2.162 . S
O87 C75 1.281 . S
O88 Mn72 2.297 . S
O88 C75 1.236 . S
N89 Mn73 2.282 . S
N89 C90 1.328 . S
N89 C94 1.318 . S
C90 N89 1.328 . S
C90 C91 1.457 . S
C90 H95 0.929 . S
C91 C90 1.457 . S
C91 C92 1.291 . S
C91 H104 0.931 . S
C92 C91 1.291 . S
C92 C93 1.373 . S
C92 H105 0.929 . S
C93 C92 1.373 . S
C93 C94 1.396 . S
C93 C100 1.403 . S
C94 C84 1.476 . S
C94 N89 1.318 . S
C94 C93 1.396 . S
H95 C90 0.929 . S
O96 Mn72 2.385 . S
O96 C74 1.234 . S
O97 Mn72 2.209 . S
O97 Mn73 2.215 . S
O97 C74 1.283 . S
O98 Mn72 2.094 . S
O98 C76 1.240 . S
O99 Mn73 2.117 . S
O99 C76 1.264 . S
C100 C93 1.403 . S
C100 C101 1.399 . S
C100 H106 0.929 . S
C101 C81 1.449 . S
C101 C100 1.399 . S
C101 H107 0.930 . S
H102 C82 0.931 . S
H103 C83 0.930 . S
H104 C91 0.931 . S
H105 C92 0.929 . S
H106 C100 0.929 . S
H107 C101 0.930 . S
Mn108 O113 2.095 . S
Mn108 O123 2.162 . S
Mn108 O124 2.297 . S
Mn108 O132 2.385 . S
Mn108 O133 2.209 . S
Mn108 O134 2.094 . S
Mn109 O114 2.121 . S
Mn109 N116 2.257 . S
Mn109 N125 2.282 . S
Mn109 O133 2.215 . S
Mn109 O135 2.117 . S
C110 O132 1.234 . S
C110 O133 1.283 . S
C111 O123 1.281 . S
C111 O124 1.236 . S
C112 O134 1.240 . S
C112 O135 1.264 . S
O113 Mn108 2.095 . S
O113 C122 1.250 . S
O114 Mn109 2.121 . S
O114 C122 1.258 . S
C115 N116 1.326 . S
C115 C119 1.460 . S
C115 H121 0.929 . S
N116 Mn109 2.257 . S
N116 C115 1.326 . S
N116 C120 1.362 . S
C117 C118 1.258 . S
C117 C120 1.431 . S
C117 C137 1.449 . S
C118 C117 1.258 . S
C118 C119 1.477 . S
C118 H138 0.931 . S
C119 C115 1.460 . S
C119 C118 1.477 . S
C119 H139 0.930 . S
C120 N116 1.362 . S
C120 C117 1.431 . S
C120 C130 1.476 . S
H121 C115 0.929 . S
C122 O113 1.250 . S
C122 O114 1.258 . S
O123 Mn108 2.162 . S
O123 C111 1.281 . S
O124 Mn108 2.297 . S
O124 C111 1.236 . S
N125 Mn109 2.282 . S
N125 C126 1.328 . S
N125 C130 1.318 . S
C126 N125 1.328 . S
C126 C127 1.457 . S
C126 H131 0.929 . S
C127 C126 1.457 . S
C127 C128 1.291 . S
C127 H140 0.931 . S
C128 C127 1.291 . S
C128 C129 1.373 . S
C128 H141 0.929 . S
C129 C128 1.373 . S
C129 C130 1.396 . S
C129 C136 1.403 . S
C130 C120 1.476 . S
C130 N125 1.318 . S
C130 C129 1.396 . S
H131 C126 0.929 . S
O132 Mn108 2.385 . S
O132 C110 1.234 . S
O133 Mn108 2.209 . S
O133 Mn109 2.215 . S
O133 C110 1.283 . S
O134 Mn108 2.094 . S
O134 C112 1.240 . S
O135 Mn109 2.117 . S
O135 C112 1.264 . S
C136 C129 1.403 . S
C136 C137 1.399 . S
C136 H142 0.929 . S
C137 C117 1.449 . S
C137 C136 1.399 . S
C137 H143 0.930 . S
H138 C118 0.931 . S
H139 C119 0.930 . S
H140 C127 0.931 . S
H141 C128 0.929 . S
H142 C136 0.929 . S
H143 C137 0.930 . S
Mn144 O149 2.095 . S
Mn144 O159 2.162 . S
Mn144 O160 2.297 . S
Mn144 O168 2.385 . S
Mn144 O169 2.209 . S
Mn144 O170 2.094 . S
Mn145 O150 2.121 . S
Mn145 N152 2.257 . S
Mn145 N161 2.282 . S
Mn145 O169 2.215 . S
Mn145 O171 2.117 . S
C146 O168 1.234 . S
C146 O169 1.283 . S
C147 O159 1.281 . S
C147 O160 1.236 . S
C148 O170 1.240 . S
C148 O171 1.264 . S
O149 Mn144 2.095 . S
O149 C158 1.250 . S
O150 Mn145 2.121 . S
O150 C158 1.258 . S
C151 N152 1.326 . S
C151 C155 1.460 1_455 S
C151 H157 0.929 . S
N152 Mn145 2.257 . S
N152 C151 1.326 . S
N152 C156 1.362 1_455 S
C153 C154 1.258 . S
C153 C156 1.431 . S
C153 C173 1.449 . S
C154 C153 1.258 . S
C154 C155 1.477 . S
C154 H174 0.931 . S
C155 C151 1.460 1_655 S
C155 C154 1.477 . S
C155 H175 0.930 . S
C156 N152 1.362 1_655 S
C156 C153 1.431 . S
C156 C166 1.476 1_655 S
H157 C151 0.929 . S
C158 O149 1.250 . S
C158 O150 1.258 . S
O159 Mn144 2.162 . S
O159 C147 1.281 . S
O160 Mn144 2.297 . S
O160 C147 1.236 . S
N161 Mn145 2.282 . S
N161 C162 1.328 . S
N161 C166 1.318 . S
C162 N161 1.328 . S
C162 C163 1.457 . S
C162 H167 0.929 . S
C163 C162 1.457 . S
C163 C164 1.291 1_455 S
C163 H176 0.931 . S
C164 C163 1.291 1_655 S
C164 C165 1.373 . S
C164 H177 0.929 . S
C165 C164 1.373 . S
C165 C166 1.396 1_655 S
C165 C172 1.403 . S
C166 C156 1.476 1_455 S
C166 N161 1.318 . S
C166 C165 1.396 1_455 S
H167 C162 0.929 . S
O168 Mn144 2.385 . S
O168 C146 1.234 . S
O169 Mn144 2.209 . S
O169 Mn145 2.215 . S
O169 C146 1.283 . S
O170 Mn144 2.094 . S
O170 C148 1.240 . S
O171 Mn145 2.117 . S
O171 C148 1.264 . S
C172 C165 1.403 . S
C172 C173 1.399 . S
C172 H178 0.929 . S
C173 C153 1.449 . S
C173 C172 1.399 . S
C173 H179 0.930 . S
H174 C154 0.931 . S
H175 C155 0.930 . S
H176 C163 0.931 . S
H177 C164 0.929 . S
H178 C172 0.929 . S
H179 C173 0.930 . S
Mn180 O185 2.095 . S
Mn180 O195 2.162 . S
Mn180 O196 2.297 . S
Mn180 O204 2.385 . S
Mn180 O205 2.209 . S
Mn180 O206 2.094 . S
Mn181 O186 2.121 . S
Mn181 N188 2.257 . S
Mn181 N197 2.282 . S
Mn181 O205 2.215 . S
Mn181 O207 2.117 . S
C182 O204 1.234 . S
C182 O205 1.283 . S
C183 O195 1.281 . S
C183 O196 1.236 . S
C184 O206 1.240 . S
C184 O207 1.264 . S
O185 Mn180 2.095 . S
O185 C194 1.250 . S
O186 Mn181 2.121 . S
O186 C194 1.258 . S
C187 N188 1.326 . S
C187 C191 1.460 . S
C187 H193 0.929 . S
N188 Mn181 2.257 . S
N188 C187 1.326 . S
N188 C192 1.362 . S
C189 C190 1.258 . S
C189 C192 1.431 . S
C189 C209 1.449 . S
C190 C189 1.258 . S
C190 C191 1.477 . S
C190 H210 0.931 . S
C191 C187 1.460 . S
C191 C190 1.477 . S
C191 H211 0.930 . S
C192 N188 1.362 . S
C192 C189 1.431 . S
C192 C202 1.476 . S
H193 C187 0.929 . S
C194 O185 1.250 . S
C194 O186 1.258 . S
O195 Mn180 2.162 . S
O195 C183 1.281 . S
O196 Mn180 2.297 . S
O196 C183 1.236 . S
N197 Mn181 2.282 . S
N197 C198 1.328 . S
N197 C202 1.318 . S
C198 N197 1.328 . S
C198 C199 1.457 . S
C198 H203 0.929 . S
C199 C198 1.457 . S
C199 C200 1.291 . S
C199 H212 0.931 . S
C200 C199 1.291 . S
C200 C201 1.373 . S
C200 H213 0.929 . S
C201 C200 1.373 . S
C201 C202 1.396 . S
C201 C208 1.403 . S
C202 C192 1.476 . S
C202 N197 1.318 . S
C202 C201 1.396 . S
H203 C198 0.929 . S
O204 Mn180 2.385 . S
O204 C182 1.234 . S
O205 Mn180 2.209 . S
O205 Mn181 2.215 . S
O205 C182 1.283 . S
O206 Mn180 2.094 . S
O206 C184 1.240 . S
O207 Mn181 2.117 . S
O207 C184 1.264 . S
C208 C201 1.403 . S
C208 C209 1.399 . S
C208 H214 0.929 . S
C209 C189 1.449 . S
C209 C208 1.399 . S
C209 H215 0.930 . S
H210 C190 0.931 . S
H211 C191 0.930 . S
H212 C199 0.931 . S
H213 C200 0.929 . S
H214 C208 0.929 . S
H215 C209 0.930 . S
Mn216 O221 2.095 . S
Mn216 O231 2.162 . S
Mn216 O232 2.297 . S
Mn216 O240 2.385 . S
Mn216 O241 2.209 . S
Mn216 O242 2.094 . S
Mn217 O222 2.121 . S
Mn217 N224 2.257 . S
Mn217 N233 2.282 . S
Mn217 O241 2.215 . S
Mn217 O243 2.117 . S
C218 O240 1.234 . S
C218 O241 1.283 . S
C219 O231 1.281 . S
C219 O232 1.236 . S
C220 O242 1.240 . S
C220 O243 1.264 . S
O221 Mn216 2.095 . S
O221 C230 1.250 . S
O222 Mn217 2.121 . S
O222 C230 1.258 . S
C223 N224 1.326 . S
C223 C227 1.460 1_655 S
C223 H229 0.929 . S
N224 Mn217 2.257 . S
N224 C223 1.326 . S
N224 C228 1.362 1_655 S
C225 C226 1.258 . S
C225 C228 1.431 . S
C225 C245 1.449 . S
C226 C225 1.258 . S
C226 C227 1.477 . S
C226 H246 0.931 . S
C227 C223 1.460 1_455 S
C227 C226 1.477 . S
C227 H247 0.930 . S
C228 N224 1.362 1_455 S
C228 C225 1.431 . S
C228 C238 1.478 . S
H229 C223 0.929 . S
C230 O221 1.250 . S
C230 O222 1.258 . S
O231 Mn216 2.162 . S
O231 C219 1.281 . S
O232 Mn216 2.297 . S
O232 C219 1.236 . S
N233 Mn217 2.282 . S
N233 C234 1.328 . S
N233 C238 1.314 1_655 S
C234 N233 1.328 . S
C234 C235 1.457 1_556 S
C234 H239 0.929 . S
C235 C234 1.457 1_554 S
C235 C236 1.291 1_654 S
C235 H248 0.931 . S
C236 C235 1.291 1_456 S
C236 C237 1.373 . S
C236 H249 0.929 1_556 S
C237 C236 1.373 . S
C237 C238 1.398 . S
C237 C244 1.403 . S
C238 C228 1.478 . S
C238 N233 1.314 1_455 S
C238 C237 1.398 . S
H239 C234 0.929 . S
O240 Mn216 2.385 . S
O240 C218 1.234 . S
O241 Mn216 2.209 . S
O241 Mn217 2.215 . S
O241 C218 1.283 . S
O242 Mn216 2.094 . S
O242 C220 1.240 . S
O243 Mn217 2.117 . S
O243 C220 1.264 . S
C244 C237 1.403 . S
C244 C245 1.399 . S
C244 H250 0.929 . S
C245 C225 1.449 . S
C245 C244 1.399 . S
C245 H251 0.930 . S
H246 C226 0.931 . S
H247 C227 0.930 . S
H248 C235 0.931 . S
H249 C236 0.929 1_554 S
H250 C244 0.929 . S
H251 C245 0.930 . S
Mn252 O257 2.095 . S
Mn252 O267 2.162 . S
Mn252 O268 2.297 . S
Mn252 O276 2.385 . S
Mn252 O277 2.209 . S
Mn252 O278 2.094 . S
Mn253 O258 2.121 . S
Mn253 N260 2.257 . S
Mn253 N269 2.282 . S
Mn253 O277 2.215 . S
Mn253 O279 2.117 . S
C254 O276 1.234 . S
C254 O277 1.283 . S
C255 O267 1.281 . S
C255 O268 1.236 . S
C256 O278 1.240 . S
C256 O279 1.264 . S
O257 Mn252 2.095 . S
O257 C266 1.250 . S
O258 Mn253 2.121 . S
O258 C266 1.258 . S
C259 N260 1.326 . S
C259 C263 1.460 . S
C259 H265 0.929 . S
N260 Mn253 2.257 . S
N260 C259 1.326 . S
N260 C264 1.362 . S
C261 C262 1.258 . S
C261 C264 1.431 . S
C261 C281 1.449 . S
C262 C261 1.258 . S
C262 C263 1.477 . S
C262 H282 0.931 . S
C263 C259 1.460 . S
C263 C262 1.477 . S
C263 H283 0.930 . S
C264 N260 1.362 . S
C264 C261 1.431 . S
C264 C274 1.476 . S
H265 C259 0.929 . S
C266 O257 1.250 . S
C266 O258 1.258 . S
O267 Mn252 2.162 . S
O267 C255 1.281 . S
O268 Mn252 2.297 . S
O268 C255 1.236 . S
N269 Mn253 2.282 . S
N269 C270 1.328 . S
N269 C274 1.318 . S
C270 N269 1.328 . S
C270 C271 1.457 . S
C270 H275 0.929 . S
C271 C270 1.457 . S
C271 C272 1.291 . S
C271 H284 0.931 1_556 S
C272 C271 1.291 . S
C272 C273 1.373 . S
C272 H285 0.929 . S
C273 C272 1.373 . S
C273 C274 1.396 . S
C273 C280 1.403 . S
C274 C264 1.476 . S
C274 N269 1.318 . S
C274 C273 1.396 . S
H275 C270 0.929 . S
O276 Mn252 2.385 . S
O276 C254 1.234 . S
O277 Mn252 2.209 . S
O277 Mn253 2.215 . S
O277 C254 1.283 . S
O278 Mn252 2.094 . S
O278 C256 1.240 . S
O279 Mn253 2.117 . S
O279 C256 1.264 . S
C280 C273 1.403 . S
C280 C281 1.399 . S
C280 H286 0.929 . S
C281 C261 1.449 . S
C281 C280 1.399 . S
C281 H287 0.930 . S
H282 C262 0.931 . S
H283 C263 0.930 . S
H284 C271 0.931 1_554 S
H285 C272 0.929 . S
H286 C280 0.929 . S
H287 C281 0.930 . S
Mn288 O293 2.095 . S
Mn288 O303 2.162 . S
Mn288 O304 2.297 . S
Mn288 O312 2.385 . S
Mn288 O313 2.209 . S
Mn288 O314 2.094 . S
Mn289 O294 2.121 . S
Mn289 N296 2.257 . S
Mn289 N305 2.282 . S
Mn289 O313 2.215 . S
Mn289 O315 2.117 . S
C290 O312 1.234 . S
C290 O313 1.283 . S
C291 O303 1.281 . S
C291 O304 1.236 . S
C292 O314 1.240 . S
C292 O315 1.264 . S
O293 Mn288 2.095 . S
O293 C302 1.250 . S
O294 Mn289 2.121 . S
O294 C302 1.258 . S
C295 N296 1.326 . S
C295 C299 1.460 1_545 S
C295 H301 0.929 . S
N296 Mn289 2.257 . S
N296 C295 1.326 . S
N296 C300 1.362 1_545 S
C297 C298 1.258 . S
C297 C300 1.431 . S
C297 C317 1.449 . S
C298 C297 1.258 . S
C298 C299 1.477 . S
C298 H318 0.931 . S
C299 C295 1.460 1_565 S
C299 C298 1.477 . S
C299 H319 0.930 . S
C300 N296 1.362 1_565 S
C300 C297 1.431 . S
C300 C310 1.476 1_565 S
H301 C295 0.929 . S
C302 O293 1.250 . S
C302 O294 1.258 . S
O303 Mn288 2.162 . S
O303 C291 1.281 . S
O304 Mn288 2.297 . S
O304 C291 1.236 . S
N305 Mn289 2.282 . S
N305 C306 1.328 . S
N305 C310 1.318 . S
C306 N305 1.328 . S
C306 C307 1.457 1_556 S
C306 H311 0.929 . S
C307 C306 1.457 1_554 S
C307 C308 1.291 1_544 S
C307 H320 0.931 . S
C308 C307 1.291 1_566 S
C308 C309 1.373 . S
C308 H321 0.929 1_556 S
C309 C308 1.373 . S
C309 C310 1.396 1_565 S
C309 C316 1.403 . S
C310 C300 1.476 1_545 S
C310 N305 1.318 . S
C310 C309 1.396 1_545 S
H311 C306 0.929 . S
O312 Mn288 2.385 . S
O312 C290 1.234 . S
O313 Mn288 2.209 . S
O313 Mn289 2.215 . S
O313 C290 1.283 . S
O314 Mn288 2.094 . S
O314 C292 1.240 . S
O315 Mn289 2.117 . S
O315 C292 1.264 . S
C316 C309 1.403 . S
C316 C317 1.399 . S
C316 H322 0.929 . S
C317 C297 1.449 . S
C317 C316 1.399 . S
C317 H323 0.930 . S
H318 C298 0.931 . S
H319 C299 0.930 . S
H320 C307 0.931 . S
H321 C308 0.929 1_554 S
H322 C316 0.929 . S
H323 C317 0.930 . S
Mn324 O329 2.095 . S
Mn324 O339 2.162 . S
Mn324 O340 2.297 . S
Mn324 O348 2.385 . S
Mn324 O349 2.209 . S
Mn324 O350 2.094 . S
Mn325 O330 2.121 . S
Mn325 N332 2.257 . S
Mn325 N341 2.282 . S
Mn325 O349 2.215 . S
Mn325 O351 2.117 . S
C326 O348 1.234 . S
C326 O349 1.283 . S
C327 O339 1.281 . S
C327 O340 1.236 . S
C328 O350 1.240 . S
C328 O351 1.264 . S
O329 Mn324 2.095 . S
O329 C338 1.250 . S
O330 Mn325 2.121 . S
O330 C338 1.258 . S
C331 N332 1.326 . S
C331 C335 1.460 1_545 S
C331 H337 0.929 . S
N332 Mn325 2.257 . S
N332 C331 1.326 . S
N332 C336 1.362 1_545 S
C333 C334 1.258 . S
C333 C336 1.431 . S
C333 C353 1.449 . S
C334 C333 1.258 . S
C334 C335 1.477 . S
C334 H354 0.931 . S
C335 C331 1.460 1_565 S
C335 C334 1.477 . S
C335 H355 0.930 . S
C336 N332 1.362 1_565 S
C336 C333 1.431 . S
C336 C346 1.476 1_565 S
H337 C331 0.929 . S
C338 O329 1.250 . S
C338 O330 1.258 . S
O339 Mn324 2.162 . S
O339 C327 1.281 . S
O340 Mn324 2.297 . S
O340 C327 1.236 . S
N341 Mn325 2.282 . S
N341 C342 1.328 . S
N341 C346 1.318 . S
C342 N341 1.328 . S
C342 C343 1.457 . S
C342 H347 0.929 . S
C343 C342 1.457 . S
C343 C344 1.291 1_545 S
C343 H356 0.931 . S
C344 C343 1.291 1_565 S
C344 C345 1.373 . S
C344 H357 0.929 . S
C345 C344 1.373 . S
C345 C346 1.396 1_565 S
C345 C352 1.403 . S
C346 C336 1.476 1_545 S
C346 N341 1.318 . S
C346 C345 1.396 1_545 S
H347 C342 0.929 . S
O348 Mn324 2.385 . S
O348 C326 1.234 . S
O349 Mn324 2.209 . S
O349 Mn325 2.215 . S
O349 C326 1.283 . S
O350 Mn324 2.094 . S
O350 C328 1.240 . S
O351 Mn325 2.117 . S
O351 C328 1.264 . S
C352 C345 1.403 . S
C352 C353 1.399 . S
C352 H358 0.929 . S
C353 C333 1.449 . S
C353 C352 1.399 . S
C353 H359 0.930 . S
H354 C334 0.931 . S
H355 C335 0.930 . S
H356 C343 0.931 . S
H357 C344 0.929 . S
H358 C352 0.929 . S
H359 C353 0.930 . S
Mn360 O365 2.095 . S
Mn360 O375 2.162 . S
Mn360 O376 2.297 . S
Mn360 O384 2.385 . S
Mn360 O385 2.209 . S
Mn360 O386 2.094 . S
Mn361 O366 2.121 . S
Mn361 N368 2.257 . S
Mn361 N377 2.282 . S
Mn361 O385 2.215 . S
Mn361 O387 2.117 . S
C362 O384 1.234 . S
C362 O385 1.283 . S
C363 O375 1.281 . S
C363 O376 1.236 . S
C364 O386 1.240 . S
C364 O387 1.264 . S
O365 Mn360 2.095 . S
O365 C374 1.250 . S
O366 Mn361 2.121 . S
O366 C374 1.258 . S
C367 N368 1.326 . S
C367 C371 1.460 1_655 S
C367 H373 0.929 . S
N368 Mn361 2.257 . S
N368 C367 1.326 . S
N368 C372 1.362 1_655 S
C369 C370 1.258 . S
C369 C372 1.431 . S
C369 C389 1.449 . S
C370 C369 1.258 . S
C370 C371 1.477 . S
C370 H390 0.931 . S
C371 C367 1.460 1_455 S
C371 C370 1.477 . S
C371 H391 0.930 . S
C372 N368 1.362 1_455 S
C372 C369 1.431 . S
C372 C382 1.476 1_455 S
H373 C367 0.929 . S
C374 O365 1.250 . S
C374 O366 1.258 . S
O375 Mn360 2.162 . S
O375 C363 1.281 . S
O376 Mn360 2.297 . S
O376 C363 1.236 . S
N377 Mn361 2.282 . S
N377 C378 1.328 . S
N377 C382 1.318 . S
C378 N377 1.328 . S
C378 C379 1.457 . S
C378 H383 0.929 . S
C379 C378 1.457 . S
C379 C380 1.291 1_655 S
C379 H392 0.931 . S
C380 C379 1.291 1_455 S
C380 C381 1.373 . S
C380 H393 0.929 . S
C381 C380 1.373 . S
C381 C382 1.396 1_455 S
C381 C388 1.403 . S
C382 C372 1.476 1_655 S
C382 N377 1.318 . S
C382 C381 1.396 1_655 S
H383 C378 0.929 . S
O384 Mn360 2.385 . S
O384 C362 1.234 . S
O385 Mn360 2.209 . S
O385 Mn361 2.215 . S
O385 C362 1.283 . S
O386 Mn360 2.094 . S
O386 C364 1.240 . S
O387 Mn361 2.117 . S
O387 C364 1.264 . S
C388 C381 1.403 . S
C388 C389 1.399 . S
C388 H394 0.929 . S
C389 C369 1.449 . S
C389 C388 1.399 . S
C389 H395 0.930 . S
H390 C370 0.931 . S
H391 C371 0.930 . S
H392 C379 0.931 . S
H393 C380 0.929 . S
H394 C388 0.929 . S
H395 C389 0.930 . S
Mn396 O401 2.095 . S
Mn396 O411 2.162 . S
Mn396 O412 2.297 . S
Mn396 O420 2.385 . S
Mn396 O421 2.209 . S
Mn396 O422 2.094 . S
Mn397 O402 2.121 . S
Mn397 N404 2.257 . S
Mn397 N413 2.282 . S
Mn397 O421 2.215 . S
Mn397 O423 2.117 . S
C398 O420 1.234 . S
C398 O421 1.283 . S
C399 O411 1.281 . S
C399 O412 1.236 . S
C400 O422 1.240 . S
C400 O423 1.264 . S
O401 Mn396 2.095 . S
O401 C410 1.250 . S
O402 Mn397 2.121 . S
O402 C410 1.258 . S
C403 N404 1.326 . S
C403 C407 1.460 . S
C403 H409 0.929 . S
N404 Mn397 2.257 . S
N404 C403 1.326 . S
N404 C408 1.362 . S
C405 C406 1.258 . S
C405 C408 1.431 . S
C405 C425 1.449 . S
C406 C405 1.258 . S
C406 C407 1.477 . S
C406 H426 0.931 . S
C407 C403 1.460 . S
C407 C406 1.477 . S
C407 H427 0.930 . S
C408 N404 1.362 . S
C408 C405 1.431 . S
C408 C418 1.476 . S
H409 C403 0.929 . S
C410 O401 1.250 . S
C410 O402 1.258 . S
O411 Mn396 2.162 . S
O411 C399 1.281 . S
O412 Mn396 2.297 . S
O412 C399 1.236 . S
N413 Mn397 2.282 . S
N413 C414 1.328 . S
N413 C418 1.318 . S
C414 N413 1.328 . S
C414 C415 1.457 . S
C414 H419 0.929 . S
C415 C414 1.457 . S
C415 C416 1.291 . S
C415 H428 0.931 . S
C416 C415 1.291 . S
C416 C417 1.373 . S
C416 H429 0.929 . S
C417 C416 1.373 . S
C417 C418 1.396 . S
C417 C424 1.403 . S
C418 C408 1.476 . S
C418 N413 1.318 . S
C418 C417 1.396 . S
H419 C414 0.929 . S
O420 Mn396 2.385 . S
O420 C398 1.234 . S
O421 Mn396 2.209 . S
O421 Mn397 2.215 . S
O421 C398 1.283 . S
O422 Mn396 2.094 . S
O422 C400 1.240 . S
O423 Mn397 2.117 . S
O423 C400 1.264 . S
C424 C417 1.403 . S
C424 C425 1.399 . S
C424 H430 0.929 . S
C425 C405 1.449 . S
C425 C424 1.399 . S
C425 H431 0.930 . S
H426 C406 0.931 . S
H427 C407 0.930 . S
H428 C415 0.931 . S
H429 C416 0.929 . S
H430 C424 0.929 . S
H431 C425 0.930 . S
C432 C433 1.391 . S
C432 C434 1.394 . S
C432 H448 0.931 . S
C433 C432 1.391 . S
C433 C437 1.376 . S
C434 C432 1.394 . S
C434 C435 1.369 . S
C434 C438 1.531 . S
C435 C434 1.369 . S
C435 C436 1.410 1_554 S
C435 C443 1.503 1_554 S
C436 C435 1.410 1_556 S
C436 C437 1.392 1_556 S
C436 C439 1.511 . S
C437 C433 1.376 . S
C437 C436 1.392 1_554 S
C437 H449 0.929 . S
C438 C434 1.531 . S
C438 H450 0.960 . S
C438 H451 0.962 . S
C438 H452 0.960 . S
C439 C436 1.511 . S
C439 H453 0.961 . S
C439 H454 0.961 . S
C439 H455 0.961 . S
C440 C441 1.370 . S
C440 C442 1.363 . S
C440 H456 0.931 . S
C441 C440 1.370 . S
C441 C445 1.408 . S
C442 C440 1.363 . S
C442 C443 1.370 . S
C442 C446 1.524 . S
C443 C435 1.503 1_556 S
C443 C442 1.370 . S
C443 C444 1.403 1_556 S
C444 C443 1.403 1_554 S
C444 C445 1.404 1_554 S
C444 C447 1.539 . S
C445 C441 1.408 . S
C445 C444 1.404 1_556 S
C445 H457 0.930 1_556 S
C446 C442 1.524 . S
C446 H458 0.956 . S
C446 H459 0.961 . S
C446 H460 0.961 . S
C447 C444 1.539 . S
C447 H461 0.958 . S
C447 H462 0.961 . S
C447 H463 0.960 . S
H448 C432 0.931 . S
H449 C437 0.929 . S
H450 C438 0.960 . S
H451 C438 0.962 . S
H452 C438 0.960 . S
H453 C439 0.961 . S
H454 C439 0.961 . S
H455 C439 0.961 . S
H456 C440 0.931 . S
H457 C445 0.930 1_554 S
H458 C446 0.956 . S
H459 C446 0.961 . S
H460 C446 0.961 . S
H461 C447 0.958 . S
H462 C447 0.961 . S
H463 C447 0.960 . S
C464 C465 1.391 1_556 S
C464 C466 1.394 . S
C464 H480 0.931 . S
C465 C464 1.391 1_554 S
C465 C469 1.376 . S
C466 C464 1.394 . S
C466 C467 1.369 . S
C466 C470 1.531 . S
C467 C466 1.369 . S
C467 C468 1.410 1_556 S
C467 C475 1.503 . S
C468 C467 1.410 1_554 S
C468 C469 1.392 . S
C468 C471 1.511 . S
C469 C465 1.376 . S
C469 C468 1.392 . S
C469 H481 0.929 . S
C470 C466 1.531 . S
C470 H482 0.960 . S
C470 H483 0.962 . S
C470 H484 0.960 . S
C471 C468 1.511 . S
C471 H485 0.961 . S
C471 H486 0.961 . S
C471 H487 0.961 . S
C472 C473 1.370 . S
C472 C474 1.363 . S
C472 H488 0.931 1_565 S
C473 C472 1.370 . S
C473 C477 1.408 . S
C474 C472 1.363 . S
C474 C475 1.370 . S
C474 C478 1.524 1_556 S
C475 C467 1.503 . S
C475 C474 1.370 . S
C475 C476 1.403 . S
C476 C475 1.403 . S
C476 C477 1.404 . S
C476 C479 1.539 . S
C477 C473 1.408 . S
C477 C476 1.404 . S
C477 H489 0.930 . S
C478 C474 1.524 1_554 S
C478 H490 0.956 1_554 S
C478 H491 0.961 . S
C478 H492 0.961 . S
C479 C476 1.539 . S
C479 H493 0.958 . S
C479 H494 0.961 . S
C479 H495 0.960 . S
H480 C464 0.931 . S
H481 C469 0.929 . S
H482 C470 0.960 . S
H483 C470 0.962 . S
H484 C470 0.960 . S
H485 C471 0.961 . S
H486 C471 0.961 . S
H487 C471 0.961 . S
H488 C472 0.931 1_545 S
H489 C477 0.930 . S
H490 C478 0.956 1_556 S
H491 C478 0.961 . S
H492 C478 0.961 . S
H493 C479 0.958 . S
H494 C479 0.961 . S
H495 C479 0.960 . S
C496 C497 1.391 . S
C496 C498 1.394 . S
C496 H512 0.931 . S
C497 C496 1.391 . S
C497 C501 1.376 1_554 S
C498 C496 1.394 . S
C498 C499 1.369 . S
C498 C502 1.531 . S
C499 C498 1.369 . S
C499 C500 1.410 1_554 S
C499 C507 1.503 1_554 S
C500 C499 1.410 1_556 S
C500 C501 1.392 . S
C500 C503 1.511 . S
C501 C497 1.376 1_556 S
C501 C500 1.392 . S
C501 H513 0.929 . S
C502 C498 1.531 . S
C502 H514 0.960 . S
C502 H515 0.962 . S
C502 H516 0.960 . S
C503 C500 1.511 . S
C503 H517 0.961 . S
C503 H518 0.961 . S
C503 H519 0.961 . S
C504 C505 1.370 . S
C504 C506 1.363 . S
C504 H520 0.931 . S
C505 C504 1.370 . S
C505 C509 1.408 . S
C506 C504 1.363 . S
C506 C507 1.370 . S
C506 C510 1.524 . S
C507 C499 1.503 1_556 S
C507 C506 1.370 . S
C507 C508 1.403 . S
C508 C507 1.403 . S
C508 C509 1.404 . S
C508 C511 1.539 1_556 S
C509 C505 1.408 . S
C509 C508 1.404 . S
C509 H521 0.930 1_455 S
C510 C506 1.524 . S
C510 H522 0.956 . S
C510 H523 0.961 . S
C510 H524 0.961 . S
C511 C508 1.539 1_554 S
C511 H525 0.958 . S
C511 H526 0.961 . S
C511 H527 0.960 . S
H512 C496 0.931 . S
H513 C501 0.929 . S
H514 C502 0.960 . S
H515 C502 0.962 . S
H516 C502 0.960 . S
H517 C503 0.961 . S
H518 C503 0.961 . S
H519 C503 0.961 . S
H520 C504 0.931 . S
H521 C509 0.930 1_655 S
H522 C510 0.956 . S
H523 C510 0.961 . S
H524 C510 0.961 . S
H525 C511 0.958 . S
H526 C511 0.961 . S
H527 C511 0.960 . S
C528 C529 1.391 . S
C528 C530 1.394 . S
C528 H544 0.931 . S
C529 C528 1.391 . S
C529 C533 1.376 . S
C530 C528 1.394 . S
C530 C531 1.369 . S
C530 C534 1.531 . S
C531 C530 1.369 . S
C531 C532 1.410 . S
C531 C539 1.503 . S
C532 C531 1.410 . S
C532 C533 1.392 . S
C532 C535 1.511 . S
C533 C529 1.376 . S
C533 C532 1.392 . S
C533 H545 0.929 . S
C534 C530 1.531 . S
C534 H546 0.960 . S
C534 H547 0.962 . S
C534 H548 0.960 . S
C535 C532 1.511 . S
C535 H549 0.961 . S
C535 H550 0.961 . S
C535 H551 0.961 . S
C536 C537 1.370 . S
C536 C538 1.363 . S
C536 H552 0.931 . S
C537 C536 1.370 . S
C537 C541 1.408 . S
C538 C536 1.363 . S
C538 C539 1.370 . S
C538 C542 1.524 . S
C539 C531 1.503 . S
C539 C538 1.370 . S
C539 C540 1.403 . S
C540 C539 1.403 . S
C540 C541 1.404 . S
C540 C543 1.539 . S
C541 C537 1.408 . S
C541 C540 1.404 . S
C541 H553 0.930 . S
C542 C538 1.524 . S
C542 H554 0.956 . S
C542 H555 0.961 . S
C542 H556 0.961 . S
C543 C540 1.539 . S
C543 H557 0.958 . S
C543 H558 0.961 . S
C543 H559 0.960 . S
H544 C528 0.931 . S
H545 C533 0.929 . S
H546 C534 0.960 . S
H547 C534 0.962 . S
H548 C534 0.960 . S
H549 C535 0.961 . S
H550 C535 0.961 . S
H551 C535 0.961 . S
H552 C536 0.931 . S
H553 C541 0.930 . S
H554 C542 0.956 . S
H555 C542 0.961 . S
H556 C542 0.961 . S
H557 C543 0.958 . S
H558 C543 0.961 . S
H559 C543 0.960 . S
C560 C561 1.391 . S
C560 C562 1.394 . S
C560 H576 0.931 . S
C561 C560 1.391 . S
C561 C565 1.376 . S
C562 C560 1.394 . S
C562 C563 1.369 . S
C562 C566 1.531 . S
C563 C562 1.369 . S
C563 C564 1.410 . S
C563 C571 1.503 . S
C564 C563 1.410 . S
C564 C565 1.392 . S
C564 C567 1.511 . S
C565 C561 1.376 . S
C565 C564 1.392 . S
C565 H577 0.929 . S
C566 C562 1.531 . S
C566 H578 0.960 . S
C566 H579 0.962 . S
C566 H580 0.960 . S
C567 C564 1.511 . S
C567 H581 0.961 . S
C567 H582 0.961 . S
C567 H583 0.961 . S
C568 C569 1.370 . S
C568 C570 1.363 . S
C568 H584 0.931 . S
C569 C568 1.370 . S
C569 C573 1.408 . S
C570 C568 1.363 . S
C570 C571 1.370 . S
C570 C574 1.524 . S
C571 C563 1.503 . S
C571 C570 1.370 . S
C571 C572 1.403 . S
C572 C571 1.403 . S
C572 C573 1.404 . S
C572 C575 1.539 . S
C573 C569 1.408 . S
C573 C572 1.404 . S
C573 H585 0.930 . S
C574 C570 1.524 . S
C574 H586 0.956 . S
C574 H587 0.961 . S
C574 H588 0.961 . S
C575 C572 1.539 . S
C575 H589 0.958 . S
C575 H590 0.961 . S
C575 H591 0.960 . S
H576 C560 0.931 . S
H577 C565 0.929 . S
H578 C566 0.960 . S
H579 C566 0.962 . S
H580 C566 0.960 . S
H581 C567 0.961 . S
H582 C567 0.961 . S
H583 C567 0.961 . S
H584 C568 0.931 . S
H585 C573 0.930 . S
H586 C574 0.956 . S
H587 C574 0.961 . S
H588 C574 0.961 . S
H589 C575 0.958 . S
H590 C575 0.961 . S
H591 C575 0.960 . S
C592 C593 1.399 . S
C592 C594 1.375 1_655 S
C592 H608 0.941 . S
C593 C592 1.399 . S
C593 C597 1.376 1_655 S
C594 C592 1.375 1_455 S
C594 C595 1.369 . S
C594 C598 1.531 . S
C595 C594 1.369 . S
C595 C596 1.410 . S
C595 C603 1.503 . S
C596 C595 1.410 . S
C596 C597 1.392 . S
C596 C599 1.511 . S
C597 C593 1.376 1_455 S
C597 C596 1.392 . S
C597 H609 0.929 . S
C598 C594 1.531 . S
C598 H610 0.960 . S
C598 H611 0.962 . S
C598 H612 0.960 . S
C599 C596 1.511 . S
C599 H613 0.961 . S
C599 H614 0.961 . S
C599 H615 0.961 . S
C600 C601 1.370 . S
C600 C602 1.363 . S
C600 H616 0.931 . S
C601 C600 1.370 . S
C601 C605 1.408 . S
C602 C600 1.363 . S
C602 C603 1.370 . S
C602 C606 1.524 . S
C603 C595 1.503 . S
C603 C602 1.370 . S
C603 C604 1.403 . S
C604 C603 1.403 . S
C604 C605 1.404 . S
C604 C607 1.539 . S
C605 C601 1.408 . S
C605 C604 1.404 . S
C605 H617 0.930 . S
C606 C602 1.524 . S
C606 H618 0.956 . S
C606 H619 0.961 . S
C606 H620 0.961 . S
C607 C604 1.539 . S
C607 H621 0.958 . S
C607 H622 0.961 . S
C607 H623 0.960 . S
H608 C592 0.941 . S
H609 C597 0.929 . S
H610 C598 0.960 . S
H611 C598 0.962 . S
H612 C598 0.960 . S
H613 C599 0.961 . S
H614 C599 0.961 . S
H615 C599 0.961 . S
H616 C600 0.931 . S
H617 C605 0.930 . S
H618 C606 0.956 . S
H619 C606 0.961 . S
H620 C606 0.961 . S
H621 C607 0.958 . S
H622 C607 0.961 . S
H623 C607 0.960 . S
C624 C625 1.391 1_556 S
C624 C626 1.394 . S
C624 H640 0.931 . S
C625 C624 1.391 1_554 S
C625 C629 1.376 . S
C626 C624 1.394 . S
C626 C627 1.369 1_556 S
C626 C630 1.531 . S
C627 C626 1.369 1_554 S
C627 C628 1.410 . S
C627 C635 1.503 1_554 S
C628 C627 1.410 . S
C628 C629 1.392 . S
C628 C631 1.511 . S
C629 C625 1.376 . S
C629 C628 1.392 . S
C629 H641 0.929 . S
C630 C626 1.531 . S
C630 H642 0.960 . S
C630 H643 0.962 . S
C630 H644 0.960 . S
C631 C628 1.511 . S
C631 H645 0.961 . S
C631 H646 0.961 . S
C631 H647 0.961 . S
C632 C633 1.370 . S
C632 C634 1.363 . S
C632 H648 0.931 . S
C633 C632 1.370 . S
C633 C637 1.408 . S
C634 C632 1.363 . S
C634 C635 1.370 . S
C634 C638 1.524 . S
C635 C627 1.503 1_556 S
C635 C634 1.370 . S
C635 C636 1.403 . S
C636 C635 1.403 . S
C636 C637 1.404 . S
C636 C639 1.539 1_556 S
C637 C633 1.408 . S
C637 C636 1.404 . S
C637 H649 0.930 . S
C638 C634 1.524 . S
C638 H650 0.956 . S
C638 H651 0.961 1_556 S
C638 H652 0.961 . S
C639 C636 1.539 1_554 S
C639 H653 0.958 1_554 S
C639 H654 0.961 . S
C639 H655 0.960 . S
H640 C624 0.931 . S
H641 C629 0.929 . S
H642 C630 0.960 . S
H643 C630 0.962 . S
H644 C630 0.960 . S
H645 C631 0.961 . S
H646 C631 0.961 . S
H647 C631 0.961 . S
H648 C632 0.931 . S
H649 C637 0.930 . S
H650 C638 0.956 . S
H651 C638 0.961 1_554 S
H652 C638 0.961 . S
H653 C639 0.958 1_556 S
H654 C639 0.961 . S
H655 C639 0.960 . S
C656 C657 1.391 . S
C656 C658 1.394 . S
C656 H672 0.931 . S
C657 C656 1.391 . S
C657 C661 1.376 . S
C658 C656 1.394 . S
C658 C659 1.369 . S
C658 C662 1.531 . S
C659 C658 1.369 . S
C659 C660 1.410 1_556 S
C659 C667 1.503 1_556 S
C660 C659 1.410 1_554 S
C660 C661 1.392 1_554 S
C660 C663 1.511 . S
C661 C657 1.376 . S
C661 C660 1.392 1_556 S
C661 H673 0.929 1_556 S
C662 C658 1.531 . S
C662 H674 0.960 . S
C662 H675 0.962 . S
C662 H676 0.960 . S
C663 C660 1.511 . S
C663 H677 0.961 . S
C663 H678 0.961 . S
C663 H679 0.961 . S
C664 C665 1.370 . S
C664 C666 1.363 . S
C664 H680 0.931 . S
C665 C664 1.370 . S
C665 C669 1.408 . S
C666 C664 1.363 . S
C666 C667 1.370 . S
C666 C670 1.524 . S
C667 C659 1.503 1_554 S
C667 C666 1.370 . S
C667 C668 1.403 1_554 S
C668 C667 1.403 1_556 S
C668 C669 1.404 1_556 S
C668 C671 1.539 . S
C669 C665 1.408 . S
C669 C668 1.404 1_554 S
C669 H681 0.930 1_554 S
C670 C666 1.524 . S
C670 H682 0.956 . S
C670 H683 0.961 . S
C670 H684 0.961 . S
C671 C668 1.539 . S
C671 H685 0.958 . S
C671 H686 0.961 . S
C671 H687 0.960 . S
H672 C656 0.931 . S
H673 C661 0.929 1_554 S
H674 C662 0.960 . S
H675 C662 0.962 . S
H676 C662 0.960 . S
H677 C663 0.961 . S
H678 C663 0.961 . S
H679 C663 0.961 . S
H680 C664 0.931 . S
H681 C669 0.930 1_556 S
H682 C670 0.956 . S
H683 C670 0.961 . S
H684 C670 0.961 . S
H685 C671 0.958 . S
H686 C671 0.961 . S
H687 C671 0.960 . S
C688 C689 1.391 . S
C688 C690 1.394 1_554 S
C688 H704 0.924 1_554 S
C689 C688 1.391 . S
C689 C693 1.376 . S
C690 C688 1.394 1_556 S
C690 C691 1.369 1_556 S
C690 C694 1.531 . S
C691 C690 1.369 1_554 S
C691 C692 1.410 . S
C691 C699 1.505 . S
C692 C691 1.410 . S
C692 C693 1.392 . S
C692 C695 1.511 . S
C693 C689 1.376 . S
C693 C692 1.392 . S
C693 H705 0.929 . S
C694 C690 1.531 . S
C694 H706 0.960 . S
C694 H707 0.962 . S
C694 H708 0.960 . S
C695 C692 1.511 . S
C695 H709 0.961 . S
C695 H710 0.961 . S
C695 H711 0.961 . S
C696 C697 1.370 1_554 S
C696 C698 1.363 . S
C696 H712 0.931 . S
C697 C696 1.370 1_556 S
C697 C701 1.408 . S
C698 C696 1.363 . S
C698 C699 1.373 . S
C698 C702 1.524 . S
C699 C691 1.505 . S
C699 C698 1.373 . S
C699 C700 1.398 1_554 S
C700 C699 1.398 1_556 S
C700 C701 1.404 . S
C700 C703 1.539 . S
C701 C697 1.408 . S
C701 C700 1.404 . S
C701 H713 0.930 . S
C702 C698 1.524 . S
C702 H714 0.956 . S
C702 H715 0.961 . S
C702 H716 0.961 . S
C703 C700 1.539 . S
C703 H717 0.958 . S
C703 H718 0.961 . S
C703 H719 0.960 . S
H704 C688 0.924 1_556 S
H705 C693 0.929 . S
H706 C694 0.960 . S
H707 C694 0.962 . S
H708 C694 0.960 . S
H709 C695 0.961 . S
H710 C695 0.961 . S
H711 C695 0.961 . S
H712 C696 0.931 . S
H713 C701 0.930 . S
H714 C702 0.956 . S
H715 C702 0.961 . S
H716 C702 0.961 . S
H717 C703 0.958 . S
H718 C703 0.961 . S
H719 C703 0.960 . S
C720 C721 1.391 . S
C720 C722 1.394 . S
C720 H736 0.931 . S
C721 C720 1.391 . S
C721 C725 1.376 . S
C722 C720 1.394 . S
C722 C723 1.369 . S
C722 C726 1.531 . S
C723 C722 1.369 . S
C723 C724 1.410 . S
C723 C731 1.503 . S
C724 C723 1.410 . S
C724 C725 1.392 . S
C724 C727 1.511 . S
C725 C721 1.376 . S
C725 C724 1.392 . S
C725 H737 0.929 . S
C726 C722 1.531 . S
C726 H738 0.960 . S
C726 H739 0.962 . S
C726 H740 0.960 . S
C727 C724 1.511 . S
C727 H741 0.961 . S
C727 H742 0.961 . S
C727 H743 0.961 . S
C728 C729 1.370 . S
C728 C730 1.363 . S
C728 H744 0.931 . S
C729 C728 1.370 . S
C729 C733 1.408 . S
C730 C728 1.363 . S
C730 C731 1.370 . S
C730 C734 1.524 . S
C731 C723 1.503 . S
C731 C730 1.370 . S
C731 C732 1.403 . S
C732 C731 1.403 . S
C732 C733 1.404 . S
C732 C735 1.539 . S
C733 C729 1.408 . S
C733 C732 1.404 . S
C733 H745 0.930 . S
C734 C730 1.524 . S
C734 H746 0.956 . S
C734 H747 0.961 . S
C734 H748 0.961 . S
C735 C732 1.539 . S
C735 H749 0.958 . S
C735 H750 0.961 . S
C735 H751 0.960 . S
H736 C720 0.931 . S
H737 C725 0.929 . S
H738 C726 0.960 . S
H739 C726 0.962 . S
H740 C726 0.960 . S
H741 C727 0.961 . S
H742 C727 0.961 . S
H743 C727 0.961 . S
H744 C728 0.931 . S
H745 C733 0.930 . S
H746 C734 0.956 . S
H747 C734 0.961 . S
H748 C734 0.961 . S
H749 C735 0.958 . S
H750 C735 0.961 . S
H751 C735 0.960 . S
C752 C753 1.391 . S
C752 C754 1.394 . S
C752 H768 0.931 . S
C753 C752 1.391 . S
C753 C757 1.376 . S
C754 C752 1.394 . S
C754 C755 1.369 . S
C754 C758 1.531 . S
C755 C754 1.369 . S
C755 C756 1.410 . S
C755 C763 1.503 . S
C756 C755 1.410 . S
C756 C757 1.392 . S
C756 C759 1.511 . S
C757 C753 1.376 . S
C757 C756 1.392 . S
C757 H769 0.929 . S
C758 C754 1.531 . S
C758 H770 0.960 . S
C758 H771 0.962 . S
C758 H772 0.960 . S
C759 C756 1.511 . S
C759 H773 0.961 . S
C759 H774 0.961 . S
C759 H775 0.961 . S
C760 C761 1.370 . S
C760 C762 1.363 . S
C760 H776 0.931 1_545 S
C761 C760 1.370 . S
C761 C765 1.408 . S
C762 C760 1.363 . S
C762 C763 1.370 . S
C762 C766 1.524 . S
C763 C755 1.503 . S
C763 C762 1.370 . S
C763 C764 1.403 . S
C764 C763 1.403 . S
C764 C765 1.404 . S
C764 C767 1.539 . S
C765 C761 1.408 . S
C765 C764 1.404 . S
C765 H777 0.930 . S
C766 C762 1.524 . S
C766 H778 0.956 . S
C766 H779 0.961 . S
C766 H780 0.961 . S
C767 C764 1.539 . S
C767 H781 0.958 . S
C767 H782 0.961 . S
C767 H783 0.960 . S
H768 C752 0.931 . S
H769 C757 0.929 . S
H770 C758 0.960 . S
H771 C758 0.962 . S
H772 C758 0.960 . S
H773 C759 0.961 . S
H774 C759 0.961 . S
H775 C759 0.961 . S
H776 C760 0.931 1_565 S
H777 C765 0.930 . S
H778 C766 0.956 . S
H779 C766 0.961 . S
H780 C766 0.961 . S
H781 C767 0.958 . S
H782 C767 0.961 . S
H783 C767 0.960 . S
C784 C785 1.391 1_655 S
C784 C786 1.394 . S
C784 H800 0.931 . S
C785 C784 1.391 1_455 S
C785 C789 1.376 1_455 S
C786 C784 1.394 . S
C786 C787 1.369 . S
C786 C790 1.531 . S
C787 C786 1.369 . S
C787 C788 1.410 . S
C787 C795 1.503 . S
C788 C787 1.410 . S
C788 C789 1.392 . S
C788 C791 1.511 . S
C789 C785 1.376 1_655 S
C789 C788 1.392 . S
C789 H801 0.929 1_655 S
C790 C786 1.531 . S
C790 H802 0.960 . S
C790 H803 0.962 . S
C790 H804 0.960 . S
C791 C788 1.511 . S
C791 H805 0.961 . S
C791 H806 0.961 . S
C791 H807 0.961 . S
C792 C793 1.370 . S
C792 C794 1.363 . S
C792 H808 0.931 . S
C793 C792 1.370 . S
C793 C797 1.408 . S
C794 C792 1.363 . S
C794 C795 1.370 . S
C794 C798 1.524 . S
C795 C787 1.503 . S
C795 C794 1.370 . S
C795 C796 1.403 . S
C796 C795 1.403 . S
C796 C797 1.404 . S
C796 C799 1.539 . S
C797 C793 1.408 . S
C797 C796 1.404 . S
C797 H809 0.930 . S
C798 C794 1.524 . S
C798 H810 0.956 . S
C798 H811 0.961 . S
C798 H812 0.961 . S
C799 C796 1.539 . S
C799 H813 0.958 . S
C799 H814 0.961 . S
C799 H815 0.960 . S
H800 C784 0.931 . S
H801 C789 0.929 1_455 S
H802 C790 0.960 . S
H803 C790 0.962 . S
H804 C790 0.960 . S
H805 C791 0.961 . S
H806 C791 0.961 . S
H807 C791 0.961 . S
H808 C792 0.931 . S
H809 C797 0.930 . S
H810 C798 0.956 . S
H811 C798 0.961 . S
H812 C798 0.961 . S
H813 C799 0.958 . S
H814 C799 0.961 . S
H815 C799 0.960 . S
C816 C817 1.391 . S
C816 C818 1.394 . S
C816 H832 0.931 . S
C817 C816 1.391 . S
C817 C821 1.376 . S
C818 C816 1.394 . S
C818 C819 1.369 . S
C818 C822 1.531 . S
C819 C818 1.369 . S
C819 C820 1.410 . S
C819 C827 1.503 . S
C820 C819 1.410 . S
C820 C821 1.392 . S
C820 C823 1.511 . S
C821 C817 1.376 . S
C821 C820 1.392 . S
C821 H833 0.929 . S
C822 C818 1.531 . S
C822 H834 0.960 . S
C822 H835 0.962 . S
C822 H836 0.960 . S
C823 C820 1.511 . S
C823 H837 0.961 . S
C823 H838 0.961 . S
C823 H839 0.961 . S
C824 C825 1.370 . S
C824 C826 1.363 . S
C824 H840 0.931 . S
C825 C824 1.370 . S
C825 C829 1.408 . S
C826 C824 1.363 . S
C826 C827 1.370 . S
C826 C830 1.524 . S
C827 C819 1.503 . S
C827 C826 1.370 . S
C827 C828 1.403 . S
C828 C827 1.403 . S
C828 C829 1.404 . S
C828 C831 1.539 . S
C829 C825 1.408 . S
C829 C828 1.404 . S
C829 H841 0.930 . S
C830 C826 1.524 . S
C830 H842 0.956 . S
C830 H843 0.961 . S
C830 H844 0.961 . S
C831 C828 1.539 . S
C831 H845 0.958 . S
C831 H846 0.961 . S
C831 H847 0.960 . S
H832 C816 0.931 . S
H833 C821 0.929 . S
H834 C822 0.960 . S
H835 C822 0.962 . S
H836 C822 0.960 . S
H837 C823 0.961 . S
H838 C823 0.961 . S
H839 C823 0.961 . S
H840 C824 0.931 . S
H841 C829 0.930 . S
H842 C830 0.956 . S
H843 C830 0.961 . S
H844 C830 0.961 . S
H845 C831 0.958 . S
H846 C831 0.961 . S
H847 C831 0.960 . S
C848 C849 1.391 . S
C848 C850 1.394 . S
C848 H864 0.931 . S
C849 C848 1.391 . S
C849 C853 1.376 . S
C850 C848 1.394 . S
C850 C851 1.369 . S
C850 C854 1.531 . S
C851 C850 1.369 . S
C851 C852 1.410 . S
C851 C859 1.503 . S
C852 C851 1.410 . S
C852 C853 1.392 . S
C852 C855 1.511 . S
C853 C849 1.376 . S
C853 C852 1.392 . S
C853 H865 0.929 . S
C854 C850 1.531 . S
C854 H866 0.960 . S
C854 H867 0.962 . S
C854 H868 0.960 . S
C855 C852 1.511 . S
C855 H869 0.961 . S
C855 H870 0.961 . S
C855 H871 0.961 . S
C856 C857 1.370 . S
C856 C858 1.363 . S
C856 H872 0.931 . S
C857 C856 1.370 . S
C857 C861 1.408 . S
C858 C856 1.363 . S
C858 C859 1.370 . S
C858 C862 1.524 . S
C859 C851 1.503 . S
C859 C858 1.370 . S
C859 C860 1.403 . S
C860 C859 1.403 . S
C860 C861 1.404 . S
C860 C863 1.539 . S
C861 C857 1.408 . S
C861 C860 1.404 . S
C861 H873 0.930 . S
C862 C858 1.524 . S
C862 H874 0.956 . S
C862 H875 0.961 . S
C862 H876 0.961 . S
C863 C860 1.539 . S
C863 H877 0.958 . S
C863 H878 0.961 . S
C863 H879 0.960 . S
H864 C848 0.931 . S
H865 C853 0.929 . S
H866 C854 0.960 . S
H867 C854 0.962 . S
H868 C854 0.960 . S
H869 C855 0.961 . S
H870 C855 0.961 . S
H871 C855 0.961 . S
H872 C856 0.931 . S
H873 C861 0.930 . S
H874 C862 0.956 . S
H875 C862 0.961 . S
H876 C862 0.961 . S
H877 C863 0.958 . S
H878 C863 0.961 . S
H879 C863 0.960 . S
C880 C881 1.391 . S
C880 C882 1.394 . S
C880 H896 0.931 . S
C881 C880 1.391 . S
C881 C885 1.376 . S
C882 C880 1.394 . S
C882 C883 1.369 . S
C882 C886 1.531 . S
C883 C882 1.369 . S
C883 C884 1.410 . S
C883 C891 1.503 . S
C884 C883 1.410 . S
C884 C885 1.392 . S
C884 C887 1.511 . S
C885 C881 1.376 . S
C885 C884 1.392 . S
C885 H897 0.929 . S
C886 C882 1.531 . S
C886 H898 0.960 . S
C886 H899 0.962 . S
C886 H900 0.960 . S
C887 C884 1.511 . S
C887 H901 0.961 . S
C887 H902 0.961 . S
C887 H903 0.961 . S
C888 C889 1.370 . S
C888 C890 1.363 . S
C888 H904 0.931 . S
C889 C888 1.370 . S
C889 C893 1.408 . S
C890 C888 1.363 . S
C890 C891 1.370 . S
C890 C894 1.524 . S
C891 C883 1.503 . S
C891 C890 1.370 . S
C891 C892 1.403 . S
C892 C891 1.403 . S
C892 C893 1.404 . S
C892 C895 1.539 . S
C893 C889 1.408 . S
C893 C892 1.404 . S
C893 H905 0.930 . S
C894 C890 1.524 . S
C894 H906 0.956 . S
C894 H907 0.961 . S
C894 H908 0.961 . S
C895 C892 1.539 . S
C895 H909 0.958 . S
C895 H910 0.961 . S
C895 H911 0.960 . S
H896 C880 0.931 . S
H897 C885 0.929 . S
H898 C886 0.960 . S
H899 C886 0.962 . S
H900 C886 0.960 . S
H901 C887 0.961 . S
H902 C887 0.961 . S
H903 C887 0.961 . S
H904 C888 0.931 . S
H905 C893 0.930 . S
H906 C894 0.956 . S
H907 C894 0.961 . S
H908 C894 0.961 . S
H909 C895 0.958 . S
H910 C895 0.961 . S
H911 C895 0.960 . S
C912 C913 1.391 . S
C912 C914 1.394 . S
C912 H928 0.931 . S
C913 C912 1.391 . S
C913 C917 1.376 . S
C914 C912 1.394 . S
C914 C915 1.369 . S
C914 C918 1.531 . S
C915 C914 1.369 . S
C915 C916 1.410 . S
C915 C923 1.503 . S
C916 C915 1.410 . S
C916 C917 1.392 . S
C916 C919 1.511 . S
C917 C913 1.376 . S
C917 C916 1.392 . S
C917 H929 0.929 . S
C918 C914 1.531 . S
C918 H930 0.960 . S
C918 H931 0.962 . S
C918 H932 0.960 . S
C919 C916 1.511 . S
C919 H933 0.961 . S
C919 H934 0.961 . S
C919 H935 0.961 . S
C920 C921 1.370 . S
C920 C922 1.363 . S
C920 H936 0.931 . S
C921 C920 1.370 . S
C921 C925 1.408 . S
C922 C920 1.363 . S
C922 C923 1.370 . S
C922 C926 1.524 . S
C923 C915 1.503 . S
C923 C922 1.370 . S
C923 C924 1.403 . S
C924 C923 1.403 . S
C924 C925 1.404 . S
C924 C927 1.539 . S
C925 C921 1.408 . S
C925 C924 1.404 . S
C925 H937 0.930 . S
C926 C922 1.524 . S
C926 H938 0.956 . S
C926 H939 0.961 . S
C926 H940 0.961 . S
C927 C924 1.539 . S
C927 H941 0.958 . S
C927 H942 0.961 . S
C927 H943 0.960 . S
H928 C912 0.931 . S
H929 C917 0.929 . S
H930 C918 0.960 . S
H931 C918 0.962 . S
H932 C918 0.960 . S
H933 C919 0.961 . S
H934 C919 0.961 . S
H935 C919 0.961 . S
H936 C920 0.931 . S
H937 C925 0.930 . S
H938 C926 0.956 . S
H939 C926 0.961 . S
H940 C926 0.961 . S
H941 C927 0.958 . S
H942 C927 0.961 . S
H943 C927 0.960 . S
C944 C945 1.391 . S
C944 C946 1.394 . S
C944 H960 0.931 . S
C945 C944 1.391 . S
C945 C949 1.376 . S
C946 C944 1.394 . S
C946 C947 1.369 . S
C946 C950 1.531 . S
C947 C946 1.369 . S
C947 C948 1.410 . S
C947 C955 1.503 . S
C948 C947 1.410 . S
C948 C949 1.392 . S
C948 C951 1.511 . S
C949 C945 1.376 . S
C949 C948 1.392 . S
C949 H961 0.929 . S
C950 C946 1.531 . S
C950 H962 0.960 . S
C950 H963 0.962 . S
C950 H964 0.960 . S
C951 C948 1.511 . S
C951 H965 0.961 . S
C951 H966 0.961 . S
C951 H967 0.961 . S
C952 C953 1.370 . S
C952 C954 1.363 . S
C952 H968 0.931 . S
C953 C952 1.370 . S
C953 C957 1.408 . S
C954 C952 1.363 . S
C954 C955 1.370 . S
C954 C958 1.524 . S
C955 C947 1.503 . S
C955 C954 1.370 . S
C955 C956 1.403 . S
C956 C955 1.403 . S
C956 C957 1.404 . S
C956 C959 1.539 . S
C957 C953 1.408 . S
C957 C956 1.404 . S
C957 H969 0.930 . S
C958 C954 1.524 . S
C958 H970 0.956 . S
C958 H971 0.961 . S
C958 H972 0.961 . S
C959 C956 1.539 . S
C959 H973 0.958 . S
C959 H974 0.961 . S
C959 H975 0.960 . S
H960 C944 0.931 . S
H961 C949 0.929 . S
H962 C950 0.960 . S
H963 C950 0.962 . S
H964 C950 0.960 . S
H965 C951 0.961 . S
H966 C951 0.961 . S
H967 C951 0.961 . S
H968 C952 0.931 . S
H969 C957 0.930 . S
H970 C958 0.956 . S
H971 C958 0.961 . S
H972 C958 0.961 . S
H973 C959 0.958 . S
H974 C959 0.961 . S
H975 C959 0.960 . S
C976 C977 1.391 . S
C976 C978 1.394 . S
C976 H992 0.931 . S
C977 C976 1.391 . S
C977 C981 1.376 . S
C978 C976 1.394 . S
C978 C979 1.369 . S
C978 C982 1.531 . S
C979 C978 1.369 . S
C979 C980 1.410 . S
C979 C987 1.503 . S
C980 C979 1.410 . S
C980 C981 1.392 . S
C980 C983 1.511 . S
C981 C977 1.376 . S
C981 C980 1.392 . S
C981 H993 0.929 . S
C982 C978 1.531 . S
C982 H994 0.960 . S
C982 H995 0.962 . S
C982 H996 0.960 . S
C983 C980 1.511 . S
C983 H997 0.961 . S
C983 H998 0.961 . S
C983 H999 0.961 . S
C984 C985 1.370 . S
C984 C986 1.363 . S
C984 H1000 0.931 . S
C985 C984 1.370 . S
C985 C989 1.408 . S
C986 C984 1.363 . S
C986 C987 1.370 . S
C986 C990 1.524 . S
C987 C979 1.503 . S
C987 C986 1.370 . S
C987 C988 1.403 . S
C988 C987 1.403 . S
C988 C989 1.404 . S
C988 C991 1.539 . S
C989 C985 1.408 . S
C989 C988 1.404 . S
C989 H1001 0.930 . S
C990 C986 1.524 . S
C990 H1002 0.956 . S
C990 H1003 0.961 . S
C990 H1004 0.961 . S
C991 C988 1.539 . S
C991 H1005 0.958 . S
C991 H1006 0.961 . S
C991 H1007 0.960 . S
H992 C976 0.931 . S
H993 C981 0.929 . S
H994 C982 0.960 . S
H995 C982 0.962 . S
H996 C982 0.960 . S
H997 C983 0.961 . S
H998 C983 0.961 . S
H999 C983 0.961 . S
H1000 C984 0.931 . S
H1001 C989 0.930 . S
H1002 C990 0.956 . S
H1003 C990 0.961 . S
H1004 C990 0.961 . S
H1005 C991 0.958 . S
H1006 C991 0.961 . S
H1007 C991 0.960 . S
C1008 C1009 1.391 . S
C1008 C1010 1.394 1_554 S
C1008 H1024 0.935 . S
C1009 C1008 1.391 . S
C1009 C1013 1.376 . S
C1010 C1008 1.394 1_556 S
C1010 C1011 1.369 1_556 S
C1010 C1014 1.531 1_455 S
C1011 C1010 1.369 1_554 S
C1011 C1012 1.410 . S
C1011 C1019 1.503 1_454 S
C1012 C1011 1.410 . S
C1012 C1013 1.392 . S
C1012 C1015 1.511 . S
C1013 C1009 1.376 . S
C1013 C1012 1.392 . S
C1013 H1025 0.929 . S
C1014 C1010 1.531 1_655 S
C1014 H1026 0.960 . S
C1014 H1027 0.962 . S
C1014 H1028 0.960 . S
C1015 C1012 1.511 . S
C1015 H1029 0.961 . S
C1015 H1030 0.961 . S
C1015 H1031 0.961 . S
C1016 C1017 1.370 . S
C1016 C1018 1.363 1_655 S
C1016 H1032 0.931 1_655 S
C1017 C1016 1.370 . S
C1017 C1021 1.408 . S
C1018 C1016 1.363 1_455 S
C1018 C1019 1.370 1_455 S
C1018 C1022 1.524 . S
C1019 C1011 1.503 1_656 S
C1019 C1018 1.370 1_655 S
C1019 C1020 1.403 . S
C1020 C1019 1.403 . S
C1020 C1021 1.404 . S
C1020 C1023 1.539 1_556 S
C1021 C1017 1.408 . S
C1021 C1020 1.404 . S
C1021 H1033 0.930 . S
C1022 C1018 1.524 . S
C1022 H1034 0.956 . S
C1022 H1035 0.961 . S
C1022 H1036 0.961 . S
C1023 C1020 1.539 1_554 S
C1023 H1037 0.958 . S
C1023 H1038 0.961 . S
C1023 H1039 0.960 . S
H1024 C1008 0.935 . S
H1025 C1013 0.929 . S
H1026 C1014 0.960 . S
H1027 C1014 0.962 . S
H1028 C1014 0.960 . S
H1029 C1015 0.961 . S
H1030 C1015 0.961 . S
H1031 C1015 0.961 . S
H1032 C1016 0.931 1_455 S
H1033 C1021 0.930 . S
H1034 C1022 0.956 . S
H1035 C1022 0.961 . S
H1036 C1022 0.961 . S
H1037 C1023 0.958 . S
H1038 C1023 0.961 . S
H1039 C1023 0.960 . S
C1040 C1041 1.391 . S
C1040 C1042 1.394 . S
C1040 H1056 0.931 . S
C1041 C1040 1.391 . S
C1041 C1045 1.376 . S
C1042 C1040 1.394 . S
C1042 C1043 1.369 . S
C1042 C1046 1.531 . S
C1043 C1042 1.369 . S
C1043 C1044 1.409 1_554 S
C1043 C1051 1.503 1_554 S
C1044 C1043 1.409 1_556 S
C1044 C1045 1.392 1_556 S
C1044 C1047 1.512 . S
C1045 C1041 1.376 . S
C1045 C1044 1.392 1_554 S
C1045 H1057 0.929 . S
C1046 C1042 1.531 . S
C1046 H1058 0.960 . S
C1046 H1059 0.962 . S
C1046 H1060 0.960 . S
C1047 C1044 1.512 . S
C1047 H1061 0.961 . S
C1047 H1062 0.961 . S
C1047 H1063 0.961 . S
C1048 C1049 1.370 . S
C1048 C1050 1.363 . S
C1048 H1064 0.931 . S
C1049 C1048 1.370 . S
C1049 C1053 1.408 . S
C1050 C1048 1.363 . S
C1050 C1051 1.370 . S
C1050 C1054 1.524 . S
C1051 C1043 1.503 1_556 S
C1051 C1050 1.370 . S
C1051 C1052 1.403 1_556 S
C1052 C1051 1.403 1_554 S
C1052 C1053 1.404 1_554 S
C1052 C1055 1.539 . S
C1053 C1049 1.408 . S
C1053 C1052 1.404 1_556 S
C1053 H1065 0.930 . S
C1054 C1050 1.524 . S
C1054 H1066 0.956 . S
C1054 H1067 0.961 . S
C1054 H1068 0.961 . S
C1055 C1052 1.539 . S
C1055 H1069 0.958 . S
C1055 H1070 0.961 . S
C1055 H1071 0.960 . S
H1056 C1040 0.931 . S
H1057 C1045 0.929 . S
H1058 C1046 0.960 . S
H1059 C1046 0.962 . S
H1060 C1046 0.960 . S
H1061 C1047 0.961 . S
H1062 C1047 0.961 . S
H1063 C1047 0.961 . S
H1064 C1048 0.931 . S
H1065 C1053 0.930 . S
H1066 C1054 0.956 . S
H1067 C1054 0.961 . S
H1068 C1054 0.961 . S
H1069 C1055 0.958 . S
H1070 C1055 0.961 . S
H1071 C1055 0.960 . S
C1072 C1073 1.391 . S
C1072 C1074 1.394 . S
C1072 H1088 0.931 . S
C1073 C1072 1.391 . S
C1073 C1077 1.376 . S
C1074 C1072 1.394 . S
C1074 C1075 1.369 . S
C1074 C1078 1.531 1_565 S
C1075 C1074 1.369 . S
C1075 C1076 1.410 . S
C1075 C1083 1.503 1_564 S
C1076 C1075 1.410 . S
C1076 C1077 1.392 . S
C1076 C1079 1.511 1_554 S
C1077 C1073 1.376 . S
C1077 C1076 1.392 . S
C1077 H1089 0.929 . S
C1078 C1074 1.531 1_545 S
C1078 H1090 0.960 . S
C1078 H1091 0.962 . S
C1078 H1092 0.960 . S
C1079 C1076 1.511 1_556 S
C1079 H1093 0.961 . S
C1079 H1094 0.961 . S
C1079 H1095 0.961 . S
C1080 C1081 1.370 . S
C1080 C1082 1.363 . S
C1080 H1096 0.931 . S
C1081 C1080 1.370 . S
C1081 C1085 1.408 . S
C1082 C1080 1.363 . S
C1082 C1083 1.370 . S
C1082 C1086 1.524 . S
C1083 C1075 1.503 1_546 S
C1083 C1082 1.370 . S
C1083 C1084 1.403 1_546 S
C1084 C1083 1.403 1_564 S
C1084 C1085 1.404 1_564 S
C1084 C1087 1.539 . S
C1085 C1081 1.408 . S
C1085 C1084 1.404 1_546 S
C1085 H1097 0.931 . S
C1086 C1082 1.524 . S
C1086 H1098 0.956 . S
C1086 H1099 0.961 . S
C1086 H1100 0.961 . S
C1087 C1084 1.539 . S
C1087 H1101 0.958 . S
C1087 H1102 0.961 . S
C1087 H1103 0.960 . S
H1088 C1072 0.931 . S
H1089 C1077 0.929 . S
H1090 C1078 0.960 . S
H1091 C1078 0.962 . S
H1092 C1078 0.960 . S
H1093 C1079 0.961 . S
H1094 C1079 0.961 . S
H1095 C1079 0.961 . S
H1096 C1080 0.931 . S
H1097 C1085 0.931 . S
H1098 C1086 0.956 . S
H1099 C1086 0.961 . S
H1100 C1086 0.961 . S
H1101 C1087 0.958 . S
H1102 C1087 0.961 . S
H1103 C1087 0.960 . S
C1104 C1105 1.391 . S
C1104 C1106 1.394 1_565 S
C1104 H1120 0.931 . S
C1105 C1104 1.391 . S
C1105 C1109 1.376 . S
C1106 C1104 1.394 1_545 S
C1106 C1107 1.369 1_545 S
C1106 C1110 1.531 . S
C1107 C1106 1.369 1_565 S
C1107 C1108 1.410 . S
C1107 C1115 1.503 1_565 S
C1108 C1107 1.410 . S
C1108 C1109 1.392 . S
C1108 C1111 1.511 . S
C1109 C1105 1.376 . S
C1109 C1108 1.392 . S
C1109 H1121 0.929 . S
C1110 C1106 1.531 . S
C1110 H1122 0.960 . S
C1110 H1123 0.962 . S
C1110 H1124 0.960 . S
C1111 C1108 1.511 . S
C1111 H1125 0.961 . S
C1111 H1126 0.961 . S
C1111 H1127 0.961 . S
C1112 C1113 1.370 . S
C1112 C1114 1.363 . S
C1112 H1128 0.931 . S
C1113 C1112 1.370 . S
C1113 C1117 1.408 . S
C1114 C1112 1.363 . S
C1114 C1115 1.370 . S
C1114 C1118 1.524 1_545 S
C1115 C1107 1.503 1_545 S
C1115 C1114 1.370 . S
C1115 C1116 1.403 . S
C1116 C1115 1.403 . S
C1116 C1117 1.404 . S
C1116 C1119 1.539 . S
C1117 C1113 1.408 . S
C1117 C1116 1.404 . S
C1117 H1129 0.930 . S
C1118 C1114 1.524 1_565 S
C1118 H1130 0.956 1_565 S
C1118 H1131 0.961 . S
C1118 H1132 0.961 . S
C1119 C1116 1.539 . S
C1119 H1133 0.958 . S
C1119 H1134 0.961 . S
C1119 H1135 0.960 1_545 S
H1120 C1104 0.931 . S
H1121 C1109 0.929 . S
H1122 C1110 0.960 . S
H1123 C1110 0.962 . S
H1124 C1110 0.960 . S
H1125 C1111 0.961 . S
H1126 C1111 0.961 . S
H1127 C1111 0.961 . S
H1128 C1112 0.931 . S
H1129 C1117 0.930 . S
H1130 C1118 0.956 1_545 S
H1131 C1118 0.961 . S
H1132 C1118 0.961 . S
H1133 C1119 0.958 . S
H1134 C1119 0.961 . S
H1135 C1119 0.960 1_565 S
C1136 C1137 1.391 . S
C1136 C1138 1.394 . S
C1136 H1152 0.931 . S
C1137 C1136 1.391 . S
C1137 C1141 1.376 . S
C1138 C1136 1.394 . S
C1138 C1139 1.369 . S
C1138 C1142 1.531 . S
C1139 C1138 1.369 . S
C1139 C1140 1.410 1_655 S
C1139 C1147 1.503 1_655 S
C1140 C1139 1.410 1_455 S
C1140 C1141 1.392 1_455 S
C1140 C1143 1.511 . S
C1141 C1137 1.376 . S
C1141 C1140 1.392 1_655 S
C1141 H1153 0.929 . S
C1142 C1138 1.531 . S
C1142 H1154 0.960 . S
C1142 H1155 0.962 . S
C1142 H1156 0.960 . S
C1143 C1140 1.511 . S
C1143 H1157 0.961 . S
C1143 H1158 0.961 . S
C1143 H1159 0.961 . S
C1144 C1145 1.370 . S
C1144 C1146 1.363 . S
C1144 H1160 0.931 . S
C1145 C1144 1.370 . S
C1145 C1149 1.408 . S
C1146 C1144 1.363 . S
C1146 C1147 1.370 . S
C1146 C1150 1.524 . S
C1147 C1139 1.503 1_455 S
C1147 C1146 1.370 . S
C1147 C1148 1.403 . S
C1148 C1147 1.403 . S
C1148 C1149 1.404 . S
C1148 C1151 1.539 1_455 S
C1149 C1145 1.408 . S
C1149 C1148 1.404 . S
C1149 H1161 0.930 . S
C1150 C1146 1.524 . S
C1150 H1162 0.956 . S
C1150 H1163 0.961 . S
C1150 H1164 0.961 . S
C1151 C1148 1.539 1_655 S
C1151 H1165 0.958 . S
C1151 H1166 0.961 . S
C1151 H1167 0.960 . S
H1152 C1136 0.931 . S
H1153 C1141 0.929 . S
H1154 C1142 0.960 . S
H1155 C1142 0.962 . S
H1156 C1142 0.960 . S
H1157 C1143 0.961 . S
H1158 C1143 0.961 . S
H1159 C1143 0.961 . S
H1160 C1144 0.931 . S
H1161 C1149 0.930 . S
H1162 C1150 0.956 . S
H1163 C1150 0.961 . S
H1164 C1150 0.961 . S
H1165 C1151 0.958 . S
H1166 C1151 0.961 . S
H1167 C1151 0.960 . S
C1168 C1169 1.391 . S
C1168 C1170 1.394 . S
C1168 H1184 0.931 . S
C1169 C1168 1.391 . S
C1169 C1173 1.376 . S
C1170 C1168 1.394 . S
C1170 C1171 1.369 . S
C1170 C1174 1.531 . S
C1171 C1170 1.369 . S
C1171 C1172 1.410 . S
C1171 C1179 1.503 . S
C1172 C1171 1.410 . S
C1172 C1173 1.392 . S
C1172 C1175 1.511 . S
C1173 C1169 1.376 . S
C1173 C1172 1.392 . S
C1173 H1185 0.929 . S
C1174 C1170 1.531 . S
C1174 H1186 0.960 . S
C1174 H1187 0.962 . S
C1174 H1188 0.960 . S
C1175 C1172 1.511 . S
C1175 H1189 0.961 . S
C1175 H1190 0.961 . S
C1175 H1191 0.961 . S
C1176 C1177 1.370 . S
C1176 C1178 1.363 . S
C1176 H1192 0.931 . S
C1177 C1176 1.370 . S
C1177 C1181 1.408 . S
C1178 C1176 1.363 . S
C1178 C1179 1.370 . S
C1178 C1182 1.524 . S
C1179 C1171 1.503 . S
C1179 C1178 1.370 . S
C1179 C1180 1.403 . S
C1180 C1179 1.403 . S
C1180 C1181 1.404 . S
C1180 C1183 1.539 . S
C1181 C1177 1.408 . S
C1181 C1180 1.404 . S
C1181 H1193 0.930 . S
C1182 C1178 1.524 . S
C1182 H1194 0.956 . S
C1182 H1195 0.961 . S
C1182 H1196 0.961 . S
C1183 C1180 1.539 . S
C1183 H1197 0.958 . S
C1183 H1198 0.961 . S
C1183 H1199 0.960 . S
H1184 C1168 0.931 . S
H1185 C1173 0.929 . S
H1186 C1174 0.960 . S
H1187 C1174 0.962 . S
H1188 C1174 0.960 . S
H1189 C1175 0.961 . S
H1190 C1175 0.961 . S
H1191 C1175 0.961 . S
H1192 C1176 0.931 . S
H1193 C1181 0.930 . S
H1194 C1182 0.956 . S
H1195 C1182 0.961 . S
H1196 C1182 0.961 . S
H1197 C1183 0.958 . S
H1198 C1183 0.961 . S
H1199 C1183 0.960 . S
C433 C4 0.653 . S
C441 C254 0.675 . S
C465 C40 0.708 . S
C473 C290 0.656 1_565 S
C497 C86 0.737 . S
C505 C218 0.727 1_455 S
C529 C398 0.758 . S
C537 C122 0.745 . S
C561 C148 0.673 . S
C569 C326 0.647 1_565 S
C593 C362 0.641 . S
C601 C184 0.684 . S
C625 C38 0.668 . S
C633 C220 0.631 . S
C657 C256 0.635 . S
C665 C75 0.615 1_545 S
C689 C2 0.730 1_655 S
C697 C292 0.719 . S
C721 C328 0.751 . S
C729 C182 0.749 . S
C753 C364 0.674 . S
C761 C111 0.612 1_545 S
C785 C146 0.626 . S
C793 C400 0.653 . S
C817 C194 1.539 . S
C825 C14 1.492 . S
C849 C50 1.490 . S
C857 C112 1.558 . S
C881 C76 1.547 . S
C889 C158 1.451 . S
C913 C230 1.438 . S
C921 C410 1.456 . S
C945 C266 1.430 . S
C953 C338 1.472 . S
C977 C302 1.433 . S
C985 C374 1.486 . S
C1009 C3 1.643 . S
C1017 C219 1.647 . S
C1041 C39 1.646 . S
C1049 C255 1.617 . S
C1073 C74 1.664 . S
C1081 C291 1.668 . S
C1105 C110 1.650 . S
C1113 C327 1.669 . S
C1137 C363 1.645 . S
C1145 C147 1.621 . S
C1169 C183 1.662 . S
C1177 C399 1.639 . S
