# Generated by pormake.
# Topology sml, (6)-cn, num edge types: 1
# Building blocks:
#     Node 0, Type 0, BuildingBlock: INOVEN_clean_sbu_0, # of connection points: 6
#     Node 1, Type 0, BuildingBlock: INOVEN_clean_sbu_0, # of connection points: 6
#     Node 2, Type 0, BuildingBlock: INOVEN_clean_sbu_0, # of connection points: 6
#     Node 3, Type 0, BuildingBlock: INOVEN_clean_sbu_0, # of connection points: 6
#     Node 4, Type 0, BuildingBlock: INOVEN_clean_sbu_0, # of connection points: 6
#     Node 5, Type 0, BuildingBlock: INOVEN_clean_sbu_0, # of connection points: 6
#     Edge 6, Type (0, 0), BuildingBlock: XIVTED_clean_linker_0, # of connection points: 2
#     Edge 7, Type (0, 0), BuildingBlock: XIVTED_clean_linker_0, # of connection points: 2
#     Edge 8, Type (0, 0), BuildingBlock: XIVTED_clean_linker_0, # of connection points: 2
#     Edge 9, Type (0, 0), BuildingBlock: XIVTED_clean_linker_0, # of connection points: 2
#     Edge 10, Type (0, 0), BuildingBlock: XIVTED_clean_linker_0, # of connection points: 2
#     Edge 11, Type (0, 0), BuildingBlock: XIVTED_clean_linker_0, # of connection points: 2
#     Edge 12, Type (0, 0), BuildingBlock: XIVTED_clean_linker_0, # of connection points: 2
#     Edge 13, Type (0, 0), BuildingBlock: XIVTED_clean_linker_0, # of connection points: 2
#     Edge 14, Type (0, 0), BuildingBlock: XIVTED_clean_linker_0, # of connection points: 2
#     Edge 15, Type (0, 0), BuildingBlock: XIVTED_clean_linker_0, # of connection points: 2
#     Edge 16, Type (0, 0), BuildingBlock: XIVTED_clean_linker_0, # of connection points: 2
#     Edge 17, Type (0, 0), BuildingBlock: XIVTED_clean_linker_0, # of connection points: 2
#     Edge 18, Type (0, 0), BuildingBlock: XIVTED_clean_linker_0, # of connection points: 2
#     Edge 19, Type (0, 0), BuildingBlock: XIVTED_clean_linker_0, # of connection points: 2
#     Edge 20, Type (0, 0), BuildingBlock: XIVTED_clean_linker_0, # of connection points: 2
#     Edge 21, Type (0, 0), BuildingBlock: XIVTED_clean_linker_0, # of connection points: 2
#     Edge 22, Type (0, 0), BuildingBlock: XIVTED_clean_linker_0, # of connection points: 2
#     Edge 23, Type (0, 0), BuildingBlock: XIVTED_clean_linker_0, # of connection points: 2
# Relax obj value: 0.209
# Max RMSD: 0.241
# Mean RMSD: 0.241
data_MOF--net-sml--node1-INOVEN_clean_sbu_0--edge1-XIVTED_clean_linker_0
_symmetry_space_group_name_H-M    P1
_symmetry_Int_Tables_number       1
_symmetry_cell_setting            triclinic
loop_
_symmetry_equiv_pos_as_xyz
'x, y, z'
_cell_length_a     33.033867
_cell_length_b     33.031414
_cell_length_c     25.195449
_cell_angle_alpha  90.089355
_cell_angle_beta   89.896759
_cell_angle_gamma 120.06135
loop_
_atom_site_label
_atom_site_type_symbol
_atom_site_fract_x
_atom_site_fract_y
_atom_site_fract_z
_atom_type_partial_charge
Gd0 Gd 0.17271 0.42969 0.97457 0.0
Gd1 Gd 0.20608 0.39379 0.06886 0.0
C2 C 0.20118 0.34821 0.95779 0.0
C3 C 0.16254 0.45967 0.88342 0.0
C4 C 0.16857 0.45283 0.82668 0.0
C5 C 0.14334 0.46209 0.78871 0.0
C6 C 0.19866 0.4368 0.80983 0.0
C7 C 0.1783 0.43979 0.71728 0.0
C8 C 0.20344 0.4303 0.75565 0.0
C9 C 0.14812 0.45569 0.73464 0.0
C10 C 0.10526 0.36782 0.03866 0.0
C11 C 0.18362 0.47941 0.08541 0.0
C12 C 0.21368 0.36244 0.16026 0.0
C13 C 0.21019 0.37162 0.21698 0.0
C14 C 0.23571 0.36217 0.25437 0.0
C15 C 0.18176 0.38945 0.23441 0.0
C16 C 0.20383 0.38727 0.32645 0.0
C17 C 0.1786 0.39719 0.28862 0.0
C18 C 0.23262 0.3699 0.30847 0.0
C19 C 0.27354 0.45799 1.00595 0.0
O20 O 0.19568 0.38201 0.93712 0.0
O21 O 0.20027 0.34124 1.00946 0.0
O22 O 0.12854 0.42388 0.90804 0.0
O23 O 0.20069 0.48156 0.91201 0.0
O24 O 0.10414 0.40284 0.01692 0.0
O25 O 0.14074 0.36597 0.02374 0.0
O26 O 0.189 0.44567 0.10649 0.0
O27 O 0.18089 0.48397 0.0336 0.0
O28 O 0.24942 0.39523 0.1343 0.0
O29 O 0.1748 0.34371 0.13276 0.0
O30 O 0.27644 0.42388 0.02778 0.0
O31 O 0.23711 0.45773 0.02091 0.0
H32 H 0.11972 0.4742 0.80093 0.0
H33 H 0.21853 0.42946 0.8385 0.0
H34 H 0.22732 0.41845 0.74381 0.0
H35 H 0.12761 0.4626 0.70646 0.0
H36 H 0.25808 0.3487 0.24171 0.0
H37 H 0.16175 0.39708 0.20621 0.0
H38 H 0.15575 0.41016 0.30092 0.0
H39 H 0.25322 0.36266 0.33617 0.0
Gd40 Gd 0.74066 0.17421 0.31307 0.0
Gd41 Gd 0.80755 0.21181 0.40895 0.0
C42 C 0.85186 0.20785 0.29966 0.0
C43 C 0.69899 0.15599 0.22189 0.0
C44 C 0.71191 0.16155 0.16538 0.0
C45 C 0.67827 0.13352 0.12776 0.0
C46 C 0.75732 0.19411 0.14848 0.0
C47 C 0.73495 0.17075 0.05639 0.0
C48 C 0.76874 0.19868 0.09444 0.0
C49 C 0.68962 0.13802 0.07381 0.0
C50 C 0.73522 0.10953 0.38161 0.0
C51 C 0.69885 0.18542 0.42123 0.0
C52 C 0.84739 0.22422 0.50055 0.0
C53 C 0.83398 0.21579 0.55687 0.0
C54 C 0.86692 0.24306 0.59547 0.0
C55 C 0.7888 0.18162 0.57266 0.0
C56 C 0.80993 0.20222 0.66559 0.0
C57 C 0.77687 0.17488 0.6266 0.0
C58 C 0.85508 0.23639 0.64927 0.0
C59 C 0.81078 0.27748 0.34269 0.0
O60 O 0.81231 0.19987 0.27717 0.0
O61 O 0.85717 0.20856 0.3516 0.0
O62 O 0.70567 0.12579 0.2483 0.0
O63 O 0.71128 0.19441 0.2486 0.0
O64 O 0.69917 0.10727 0.35835 0.0
O65 O 0.77249 0.14489 0.36632 0.0
O66 O 0.736 0.18784 0.44427 0.0
O67 O 0.69504 0.18641 0.36906 0.0
O68 O 0.84138 0.25611 0.47703 0.0
O69 O 0.83527 0.18725 0.4709 0.0
O70 O 0.84714 0.28211 0.36785 0.0
O71 O 0.77471 0.24042 0.35668 0.0
H72 H 0.64315 0.10798 0.14016 0.0
H73 H 0.78382 0.21608 0.177 0.0
H74 H 0.80384 0.22454 0.08243 0.0
H75 H 0.66297 0.1154 0.04581 0.0
H76 H 0.90186 0.2698 0.58395 0.0
H77 H 0.76281 0.16023 0.54335 0.0
H78 H 0.74194 0.14797 0.63776 0.0
H79 H 0.88115 0.25861 0.67804 0.0
Gd80 Gd 0.56391 0.75243 0.6629 0.0
Gd81 Gd 0.58688 0.81873 0.75852 0.0
C82 C 0.63991 0.86441 0.65178 0.0
C83 C 0.53925 0.7122 0.57101 0.0
C84 C 0.54461 0.72526 0.51457 0.0
C85 C 0.53615 0.69125 0.47613 0.0
C86 C 0.55815 0.77099 0.4985 0.0
C87 C 0.55422 0.74824 0.40559 0.0
C88 C 0.56295 0.7824 0.44443 0.0
C89 C 0.54088 0.70256 0.4222 0.0
C90 C 0.62322 0.74922 0.73278 0.0
C91 C 0.51137 0.70734 0.77083 0.0
C92 C 0.60734 0.86066 0.84969 0.0
C93 C 0.60303 0.84847 0.90632 0.0
C94 C 0.61264 0.88311 0.94432 0.0
C95 C 0.58879 0.80274 0.92298 0.0
C96 C 0.59387 0.8266 0.01559 0.0
C97 C 0.58424 0.79188 0.97717 0.0
C98 C 0.60813 0.87235 0.99841 0.0
C99 C 0.52524 0.8174 0.68762 0.0
O100 O 0.61063 0.82443 0.62818 0.0
O101 O 0.6414 0.86974 0.70375 0.0
O102 O 0.57723 0.71973 0.59567 0.0
O103 O 0.51303 0.72329 0.59954 0.0
O104 O 0.59414 0.71389 0.70412 0.0
O105 O 0.62321 0.78613 0.71949 0.0
O106 O 0.5418 0.74703 0.79411 0.0
O107 O 0.50936 0.70184 0.71876 0.0
O108 O 0.56817 0.84815 0.8246 0.0
O109 O 0.63676 0.85358 0.82189 0.0
O110 O 0.5561 0.85531 0.71124 0.0
O111 O 0.52734 0.78277 0.70437 0.0
H112 H 0.52592 0.65584 0.48787 0.0
H113 H 0.56482 0.79775 0.52767 0.0
H114 H 0.57285 0.81778 0.43306 0.0
H115 H 0.53465 0.67559 0.39353 0.0
H116 H 0.6234 0.91854 0.93212 0.0
H117 H 0.58119 0.77548 0.89416 0.0
H118 H 0.57367 0.75643 0.98895 0.0
H119 H 0.6151 0.89978 0.02674 0.0
Gd120 Gd 0.81084 0.55876 0.98526 0.0
Gd121 Gd 0.77137 0.5858 0.08064 0.0
C122 C 0.78014 0.63823 0.97316 0.0
C123 C 0.82818 0.53543 0.89326 0.0
C124 C 0.82155 0.54201 0.83683 0.0
C125 C 0.84941 0.53664 0.79872 0.0
C126 C 0.78838 0.55412 0.8205 0.0
C127 C 0.8113 0.55552 0.72805 0.0
C128 C 0.78326 0.56077 0.76655 0.0
C129 C 0.84436 0.54327 0.74489 0.0
C130 C 0.87582 0.61746 0.05415 0.0
C131 C 0.80262 0.50749 0.0931 0.0
C132 C 0.75106 0.60706 0.17212 0.0
C133 C 0.76014 0.60419 0.22872 0.0
C134 C 0.73402 0.61228 0.26675 0.0
C135 C 0.79291 0.59166 0.24535 0.0
C136 C 0.77246 0.59442 0.33793 0.0
C137 C 0.79912 0.58694 0.29954 0.0
C138 C 0.7401 0.6075 0.32079 0.0
C139 C 0.70724 0.52534 1.01124 0.0
O140 O 0.78664 0.60581 0.95038 0.0
O141 O 0.77843 0.64175 0.02522 0.0
O142 O 0.85819 0.57287 0.91909 0.0
O143 O 0.79046 0.50884 0.92083 0.0
O144 O 0.87925 0.58588 0.02714 0.0
O145 O 0.83992 0.61927 0.04072 0.0
O146 O 0.79966 0.54202 0.11589 0.0
O147 O 0.80057 0.50178 0.04109 0.0
O148 O 0.72487 0.5671 0.1482 0.0
O149 O 0.78648 0.63671 0.1431 0.0
O150 O 0.70314 0.5575 0.03602 0.0
O151 O 0.7434 0.52518 0.02648 0.0
H152 H 0.87514 0.52724 0.81061 0.0
H153 H 0.76662 0.55858 0.84943 0.0
H154 H 0.75783 0.57068 0.7551 0.0
H155 H 0.86602 0.53821 0.71639 0.0
H156 H 0.70854 0.62194 0.25459 0.0
H157 H 0.81322 0.58499 0.21648 0.0
H158 H 0.82401 0.5764 0.3113 0.0
H159 H 0.71954 0.61425 0.34918 0.0
Gd160 Gd 0.24804 0.80776 0.318 0.0
Gd161 Gd 0.1789 0.76938 0.41205 0.0
C162 C 0.1383 0.77997 0.30335 0.0
C163 C 0.28725 0.8192 0.22581 0.0
C164 C 0.27336 0.81237 0.16939 0.0
C165 C 0.30635 0.83975 0.13079 0.0
C166 C 0.22774 0.77946 0.15348 0.0
C167 C 0.24849 0.80167 0.06063 0.0
C168 C 0.21542 0.77413 0.09962 0.0
C169 C 0.29413 0.83448 0.07704 0.0
C170 C 0.25472 0.8736 0.38563 0.0
C171 C 0.28855 0.79824 0.42753 0.0
C172 C 0.13669 0.7505 0.50321 0.0
C173 C 0.1493 0.75815 0.55994 0.0
C174 C 0.11536 0.73165 0.5981 0.0
C175 C 0.19485 0.79052 0.57652 0.0
C176 C 0.17226 0.76942 0.66922 0.0
C177 C 0.20621 0.79618 0.63067 0.0
C178 C 0.12665 0.7372 0.65213 0.0
C179 C 0.17607 0.70576 0.34288 0.0
O180 O 0.17778 0.7867 0.28187 0.0
O181 O 0.13162 0.77745 0.35521 0.0
O182 O 0.28421 0.85235 0.25075 0.0
O183 O 0.273 0.78144 0.25461 0.0
O184 O 0.28964 0.87675 0.35853 0.0
O185 O 0.21669 0.83788 0.37205 0.0
O186 O 0.24937 0.79227 0.44918 0.0
O187 O 0.29524 0.80043 0.37565 0.0
O188 O 0.14665 0.72187 0.47817 0.0
O189 O 0.14588 0.78741 0.47504 0.0
O190 O 0.13892 0.70218 0.365 0.0
O191 O 0.21213 0.74108 0.36007 0.0
H192 H 0.34175 0.86529 0.14223 0.0
H193 H 0.20162 0.75802 0.18267 0.0
H194 H 0.17983 0.74891 0.08862 0.0
H195 H 0.32074 0.85576 0.04827 0.0
H196 H 0.08002 0.70648 0.58608 0.0
H197 H 0.22167 0.81116 0.54764 0.0
H198 H 0.2418 0.82092 0.64223 0.0
H199 H 0.09943 0.71651 0.68057 0.0
Gd200 Gd 0.43303 0.25608 0.63923 0.0
Gd201 Gd 0.39937 0.18789 0.73427 0.0
C202 C 0.35505 0.14549 0.62295 0.0
C203 C 0.45939 0.29703 0.54772 0.0
C204 C 0.45326 0.28357 0.49124 0.0
C205 C 0.45703 0.316 0.45297 0.0
C206 C 0.44315 0.23876 0.47502 0.0
C207 C 0.44068 0.25919 0.38247 0.0
C208 C 0.43678 0.22663 0.42112 0.0
C209 C 0.45089 0.30402 0.39915 0.0
C210 C 0.36902 0.25898 0.70242 0.0
C211 C 0.48247 0.29686 0.74896 0.0
C212 C 0.36908 0.14791 0.82561 0.0
C213 C 0.37703 0.16053 0.88233 0.0
C214 C 0.36708 0.12561 0.92003 0.0
C215 C 0.39502 0.20688 0.89938 0.0
C216 C 0.3923 0.18302 0.99162 0.0
C217 C 0.40239 0.21801 0.95347 0.0
C218 C 0.37469 0.13668 0.97406 0.0
C219 C 0.46381 0.18456 0.67164 0.0
O220 O 0.38907 0.18477 0.60243 0.0
O221 O 0.34732 0.13983 0.67462 0.0
O222 O 0.42207 0.29109 0.57265 0.0
O223 O 0.4845 0.28471 0.5762 0.0
O224 O 0.40349 0.29589 0.68111 0.0
O225 O 0.36904 0.22243 0.68828 0.0
O226 O 0.44767 0.25885 0.77076 0.0
O227 O 0.48853 0.30196 0.69704 0.0
O228 O 0.40379 0.1482 0.80023 0.0
O229 O 0.34832 0.16574 0.79777 0.0
O230 O 0.4307 0.14819 0.69558 0.0
O231 O 0.46304 0.22097 0.68493 0.0
H232 H 0.46457 0.35066 0.46476 0.0
H233 H 0.44024 0.21322 0.50397 0.0
H234 H 0.42941 0.19197 0.40967 0.0
H235 H 0.45343 0.3297 0.37065 0.0
H236 H 0.35361 0.08968 0.90762 0.0
H237 H 0.40337 0.23446 0.87095 0.0
H238 H 0.41549 0.25397 0.96536 0.0
H239 H 0.36736 0.10893 1.00197 0.0
H240 H 0.28391 0.24943 0.68253 0.0
H241 H 0.24588 0.30018 0.98361 0.0
H242 H 0.3816 0.27379 0.80821 0.0
H243 H 0.1886 0.33674 0.85029 0.0
H244 H 0.2801 0.26828 0.92197 0.0
H245 H 0.23377 0.26061 0.74639 0.0
C246 C 0.29422 0.2563 0.72384 0.0
C247 C 0.33644 0.26042 0.74074 0.0
C248 C 0.25943 0.28268 0.90638 0.0
C249 C 0.27995 0.27297 0.8133 0.0
C250 C 0.23962 0.3006 0.94148 0.0
C251 C 0.21475 0.32157 0.92199 0.0
C252 C 0.25382 0.28524 0.85152 0.0
C253 C 0.20798 0.32135 0.86696 0.0
C254 C 0.26586 0.26276 0.76005 0.0
C255 C 0.34892 0.26979 0.7942 0.0
N256 N 0.22767 0.30372 0.83355 0.0
N257 N 0.32078 0.27581 0.82875 0.0
H258 H 0.08535 0.4016 0.12651 0.0
H259 H 0.85395 0.18216 0.1969 0.0
H260 H 0.05536 0.27295 0.04944 0.0
H261 H 0.94307 0.26806 0.32409 0.0
H262 H 0.9219 0.21639 0.13706 0.0
H263 H 0.02829 0.35629 0.19588 0.0
C264 C 0.06691 0.36374 0.12463 0.0
C265 C 0.07461 0.34067 0.08259 0.0
C266 C 0.92655 0.22687 0.17838 0.0
C267 C 0.00888 0.28912 0.16026 0.0
C268 C 0.88795 0.20758 0.21238 0.0
C269 C 0.89307 0.22234 0.26542 0.0
C270 C 0.96994 0.26215 0.19728 0.0
C271 C 0.93776 0.25552 0.28355 0.0
C272 C 0.03469 0.33802 0.16414 0.0
C273 C 0.05014 0.29168 0.08157 0.0
N274 N 0.97436 0.27516 0.24918 0.0
N275 N 0.01735 0.26731 0.11936 0.0
H276 H 0.79265 0.075 0.40704 0.0
H277 H 0.66526 0.95454 0.67478 0.0
H278 H 0.66903 0.07702 0.45809 0.0
H279 H 0.67522 0.86836 0.55238 0.0
H280 H 0.69847 0.02086 0.61302 0.0
H281 H 0.77964 0.01865 0.47875 0.0
C282 C 0.76338 0.06417 0.43393 0.0
C283 C 0.73151 0.07996 0.42681 0.0
C284 C 0.69442 0.98764 0.60044 0.0
C285 C 0.71773 0.01792 0.50864 0.0
C286 C 0.67572 0.94994 0.63548 0.0
C287 C 0.66738 0.90597 0.6184 0.0
C288 C 0.70594 0.9815 0.5487 0.0
C289 C 0.68094 0.90171 0.56682 0.0
C290 C 0.75603 0.03225 0.47441 0.0
C291 C 0.69405 0.06516 0.46228 0.0
N292 N 0.69954 0.93912 0.53352 0.0
N293 N 0.68826 0.03505 0.50198 0.0
H294 H 0.65103 0.78466 0.833 0.0
H295 H 0.79434 0.65042 0.86649 0.0
H296 H 0.67275 0.70696 0.70981 0.0
H297 H 0.74314 0.69396 1.00005 0.0
H298 H 0.76683 0.68938 0.80705 0.0
H299 H 0.70057 0.76914 0.89271 0.0
C300 C 0.66741 0.76562 0.81816 0.0
C301 C 0.6583 0.74729 0.7666 0.0
C302 C 0.76199 0.69087 0.84939 0.0
C303 C 0.71407 0.72899 0.83407 0.0
C304 C 0.77771 0.66861 0.88345 0.0
C305 C 0.77024 0.66816 0.93832 0.0
C306 C 0.73832 0.71273 0.87013 0.0
C307 C 0.74924 0.69309 0.95795 0.0
C308 C 0.6952 0.75635 0.85226 0.0
C309 C 0.67903 0.72159 0.74945 0.0
N310 N 0.73336 0.71389 0.92375 0.0
N311 N 0.70583 0.7131 0.78314 0.0
H312 H 0.04535 0.74545 0.32789 0.0
H313 H 0.96825 0.65642 0.03554 0.0
H314 H 0.14165 0.78955 0.19577 0.0
H315 H 0.86994 0.65482 0.14916 0.0
H316 H 0.03225 0.70674 0.09477 0.0
H317 H 0.98011 0.71479 0.26481 0.0
C318 C 0.05287 0.74952 0.28576 0.0
C319 C 0.09903 0.76932 0.26712 0.0
C320 C -0.00324 0.69613 0.10657 0.0
C321 C 0.02479 0.73394 0.19513 0.0
C322 C 0.96028 0.6673 0.07284 0.0
C323 C 0.91396 0.65191 0.08754 0.0
C324 C 0.98678 0.70863 0.15614 0.0
C325 C 0.90528 0.66671 0.13623 0.0
C326 C 0.01562 0.73197 0.24982 0.0
C327 C 0.10667 0.77376 0.21208 0.0
N328 N 0.94142 0.69376 0.16939 0.0
N329 N 0.06995 0.75557 0.17813 0.0
H330 H 0.35482 0.14732 0.51481 0.0
H331 H 0.20968 0.86983 0.47871 0.0
H332 H 0.29479 0.05292 0.64756 0.0
H333 H 0.31065 0.96581 0.3667 0.0
H334 H 0.22445 0.93626 0.53579 0.0
H335 H 0.32147 0.08069 0.45481 0.0
C336 C 0.33425 0.11259 0.53143 0.0
C337 C 0.32842 0.10569 0.58649 0.0
C338 C 0.24277 0.94268 0.4983 0.0
C339 C 0.29001 0.02907 0.51765 0.0
C340 C 0.234 0.90487 0.46561 0.0
C341 C 0.25874 0.9125 0.41799 0.0
C342 C 0.27601 0.98824 0.48254 0.0
C343 C 0.29095 0.95852 0.40329 0.0
C344 C 0.31521 0.07453 0.49703 0.0
C345 C 0.30053 0.05983 0.60543 0.0
N346 N 0.29865 0.99464 0.43541 0.0
N347 N 0.28273 0.02308 0.57103 0.0
H348 H 0.18178 0.49502 0.6338 0.0
H349 H 0.20075 0.33233 0.41006 0.0
H350 H 0.18612 0.36932 0.66844 0.0
H351 H 0.1982 0.45898 0.37545 0.0
H352 H 0.19586 0.34555 0.50464 0.0
H353 H 0.18765 0.48235 0.53924 0.0
C354 C 0.18375 0.4646 0.62161 0.0
C355 C 0.18324 0.4331 0.65944 0.0
C356 C 0.19638 0.37048 0.4764 0.0
C357 C 0.19048 0.41861 0.55068 0.0
C358 C 0.19945 0.36311 0.42225 0.0
C359 C 0.20007 0.39465 0.38439 0.0
C360 C 0.19385 0.40972 0.49323 0.0
C361 C 0.19731 0.43338 0.40291 0.0
C362 C 0.18736 0.45753 0.56748 0.0
C363 C 0.18684 0.39484 0.64098 0.0
N364 N 0.19439 0.43982 0.45588 0.0
N365 N 0.19018 0.38863 0.58804 0.0
H366 H 0.8159 0.18444 1.00893 0.0
H367 H 0.72797 0.18582 0.71278 0.0
H368 H 0.68087 0.16801 0.97224 0.0
H369 H 0.86366 0.20395 0.74959 0.0
H370 H 0.70942 0.17752 0.80751 0.0
H371 H 0.83397 0.19148 0.91413 0.0
C372 C 0.79013 0.18258 0.98103 0.0
C373 C 0.74674 0.17556 0.99878 0.0
C374 C 0.74325 0.18328 0.79487 0.0
C375 C 0.76702 0.18303 0.88985 0.0
C376 C 0.75376 0.1877 0.74069 0.0
C377 C 0.79752 0.19571 0.72303 0.0
C378 C 0.77669 0.18681 0.83185 0.0
C379 C 0.82975 0.19851 0.76129 0.0
C380 C 0.80036 0.1863 0.92681 0.0
C381 C 0.71449 0.17272 0.96051 0.0
N382 N 0.81871 0.19411 0.81377 0.0
N383 N 0.72528 0.17647 0.90798 0.0
H384 H 0.49774 0.6953 0.32362 0.0
H385 H 0.65061 0.8796 0.09749 0.0
H386 H 0.62167 0.82781 0.35596 0.0
H387 H 0.52556 0.74788 0.06563 0.0
H388 H 0.64056 0.86136 0.19216 0.0
H389 H 0.50755 0.7139 0.22906 0.0
C390 C 0.52717 0.72826 0.31087 0.0
C391 C 0.55905 0.75993 0.34798 0.0
C392 C 0.61531 0.83641 0.16449 0.0
C393 C 0.57024 0.78169 0.2394 0.0
C394 C 0.62089 0.8469 0.11036 0.0
C395 C 0.58881 0.8153 0.07333 0.0
C396 C 0.57736 0.79395 0.18202 0.0
C397 C 0.55149 0.7731 0.0925 0.0
C398 C 0.5326 0.73896 0.2568 0.0
C399 C 0.59596 0.80249 0.32899 0.0
N400 N 0.54677 0.76373 0.14543 0.0
N401 N 0.6006 0.81204 0.27609 0.0
H402 H 0.8805 0.59865 0.65314 0.0
H403 H 0.7036 0.55371 0.41346 0.0
H404 H 0.73049 0.52849 0.67158 0.0
H405 H 0.85331 0.62064 0.39402 0.0
H406 H 0.7129 0.54517 0.50817 0.0
H407 H 0.87133 0.6077 0.55849 0.0
C408 C 0.84558 0.58494 0.6373 0.0
C409 C 0.80619 0.56256 0.67055 0.0
C410 C 0.74375 0.56174 0.48325 0.0
C411 C 0.79547 0.57329 0.56189 0.0
C412 C 0.7385 0.56687 0.42912 0.0
C413 C 0.77777 0.58815 0.39558 0.0
C414 C 0.78863 0.57802 0.50433 0.0
C415 C 0.82201 0.60364 0.41815 0.0
C416 C 0.8404 0.59034 0.5832 0.0
C417 C 0.76191 0.54638 0.64774 0.0
N418 N 0.82623 0.59838 0.47106 0.0
N419 N 0.75777 0.55196 0.5949 0.0
H420 H 0.22842 0.8503 0.72495 0.0
H421 H 0.19238 0.72068 1.00493 0.0
H422 H 0.14328 0.70092 0.74555 0.0
H423 H 0.27557 0.87029 0.98469 0.0
H424 H 0.1735 0.71278 0.91031 0.0
H425 H 0.24665 0.85822 0.81975 0.0
C426 C 0.21376 0.8191 0.74926 0.0
C427 C 0.18417 0.77486 0.72696 0.0
C428 C 0.19588 0.74735 0.92657 0.0
C429 C 0.20459 0.78376 0.83609 0.0
C430 C 0.20644 0.75194 0.98078 0.0
C431 C 0.23576 0.79624 1.00311 0.0
C432 C 0.21465 0.78733 0.89414 0.0
C433 C 0.25344 0.83534 0.96933 0.0
C434 C 0.22396 0.82369 0.80355 0.0
C435 C 0.1657 0.73582 0.76089 0.0
N436 N 0.24265 0.82996 0.91673 0.0
N437 N 0.17622 0.74119 0.81357 0.0
H438 H 0.37512 0.17662 0.33627 0.0
H439 H 0.46383 0.26153 0.03894 0.0
H440 H 0.49084 0.3131 0.29748 0.0
H441 H 0.33898 0.13122 0.07654 0.0
H442 H 0.4759 0.27979 0.13354 0.0
H443 H 0.36379 0.15762 0.2416 0.0
C444 C 0.39836 0.2025 0.30792 0.0
C445 C 0.43394 0.24661 0.32503 0.0
C446 C 0.44586 0.24719 0.12109 0.0
C447 C 0.42086 0.22518 0.2163 0.0
C448 C 0.43873 0.23682 0.06693 0.0
C449 C 0.40023 0.19471 0.04936 0.0
C450 C 0.41441 0.21522 0.15831 0.0
C451 C 0.36953 0.16378 0.08796 0.0
C452 C 0.39166 0.19173 0.2538 0.0
C453 C 0.46255 0.27891 0.28624 0.0
N454 N 0.37728 0.17464 0.14045 0.0
N455 N 0.45542 0.26755 0.23384 0.0
H456 H 0.22493 0.50596 0.18207 0.0
H457 H 0.10598 0.64939 0.27463 0.0
H458 H 0.13991 0.5308 0.07177 0.0
H459 H 0.24726 0.69009 0.31959 0.0
H460 H 0.10793 0.59543 0.20837 0.0
H461 H 0.22338 0.56288 0.24287 0.0
C462 C 0.20583 0.52335 0.17071 0.0
C463 C 0.18264 0.51389 0.12178 0.0
C464 C 0.13843 0.61638 0.23273 0.0
C465 C 0.18021 0.57833 0.19147 0.0
C466 C 0.13725 0.64678 0.27058 0.0
C467 C 0.17643 0.67375 0.30258 0.0
C468 C 0.17857 0.61228 0.22822 0.0
C469 C 0.21634 0.6697 0.29564 0.0
C470 C 0.20519 0.55592 0.20528 0.0
C471 C 0.15851 0.53748 0.10901 0.0
N472 N 0.2162 0.63902 0.25964 0.0
N473 N 0.15747 0.56841 0.14399 0.0
H474 H 0.6438 0.22407 0.40398 0.0
H475 H 0.47028 0.10856 0.64196 0.0
H476 H 0.66963 0.14131 0.51656 0.0
H477 H 0.53539 0.25757 0.61863 0.0
H478 H 0.52648 0.10689 0.57914 0.0
H479 H 0.58527 0.22345 0.46518 0.0
C480 C 0.63664 0.20527 0.44117 0.0
C481 C 0.66137 0.18267 0.45542 0.0
C482 C 0.52791 0.13975 0.58759 0.0
C483 C 0.5945 0.18114 0.52429 0.0
C484 C 0.49606 0.14081 0.62325 0.0
C485 C 0.4977 0.1832 0.63458 0.0
C486 C 0.56061 0.18111 0.56224 0.0
C487 C 0.53199 0.22402 0.60961 0.0
C488 C 0.60365 0.2052 0.47597 0.0
C489 C 0.65126 0.15917 0.50426 0.0
N490 N 0.56184 0.22194 0.57398 0.0
N491 N 0.61817 0.1586 0.53686 0.0
H492 H 0.28804 0.54511 0.98807 0.0
H493 H 0.46612 0.61296 0.7507 0.0
H494 H 0.33803 0.45169 0.94335 0.0
H495 H 0.47933 0.71435 0.86788 0.0
H496 H 0.40832 0.55021 0.80812 0.0
H497 H 0.34702 0.6052 0.93008 0.0
C498 C 0.31144 0.5373 0.96588 0.0
C499 C 0.30869 0.49375 0.97066 0.0
C500 C 0.42418 0.58627 0.82104 0.0
C501 C 0.37526 0.56171 0.90384 0.0
C502 C 0.45683 0.62196 0.78838 0.0
C503 C 0.47744 0.6688 0.80468 0.0
C504 C 0.4113 0.59787 0.86934 0.0
C505 C 0.46443 0.67868 0.85393 0.0
C506 C 0.34505 0.57155 0.93306 0.0
C507 C 0.33959 0.48517 0.94099 0.0
N508 N 0.43176 0.64354 0.88425 0.0
N509 N 0.37156 0.51886 0.90831 0.0
H510 H 0.73644 0.27265 0.29029 0.0
H511 H 0.8526 0.52702 0.18471 0.0
H512 H 0.8853 0.36088 0.31098 0.0
H513 H 0.76465 0.41342 0.0796 0.0
H514 H 0.85772 0.4708 0.2442 0.0
H515 H 0.73765 0.32793 0.22474 0.0
C516 C 0.76946 0.30325 0.28042 0.0
C517 C 0.81103 0.31158 0.30484 0.0
C518 C 0.83768 0.45845 0.20786 0.0
C519 C 0.81214 0.37589 0.23244 0.0
C520 C 0.83456 0.49026 0.17416 0.0
C521 C 0.80823 0.4746 0.12732 0.0
C522 C 0.81299 0.41069 0.19536 0.0
C523 C 0.78553 0.42676 0.11524 0.0
C524 C 0.77003 0.33483 0.24341 0.0
C525 C 0.85257 0.353 0.29256 0.0
N526 N 0.78774 0.39623 0.1496 0.0
N527 N 0.85205 0.38404 0.2575 0.0
H528 H 0.38363 0.84691 0.41246 0.0
H529 H 0.44195 0.74153 0.66258 0.0
H530 H 0.27688 0.75747 0.52408 0.0
H531 H 0.53293 0.88632 0.62108 0.0
H532 H 0.38519 0.73695 0.59685 0.0
H533 H 0.44368 0.8526 0.47487 0.0
C534 C 0.37291 0.82831 0.44986 0.0
C535 C 0.32539 0.80174 0.46333 0.0
C536 C 0.41765 0.76965 0.60216 0.0
C537 C 0.3932 0.80739 0.5336 0.0
C538 C 0.44997 0.77228 0.6394 0.0
C539 C 0.49173 0.8145 0.6474 0.0
C540 C 0.42776 0.80919 0.57186 0.0
C541 C 0.50071 0.85333 0.61632 0.0
C542 C 0.40703 0.83179 0.48535 0.0
C543 C 0.31319 0.77851 0.51234 0.0
N544 N 0.46899 0.84971 0.57945 0.0
N545 N 0.34688 0.78148 0.54551 0.0
H546 H 0.6268 0.5209 0.97707 0.0
H547 H 0.57697 0.35111 0.73632 0.0
H548 H 0.71032 0.45505 0.95729 0.0
H549 H 0.4641 0.32586 0.8425 0.0
H550 H 0.63279 0.40853 0.8 0.0
H551 H 0.57145 0.46678 0.91088 0.0
C552 C 0.63376 0.49544 0.95841 0.0
C553 C 0.67367 0.49297 0.97179 0.0
C554 C 0.59571 0.39053 0.80884 0.0
C555 C 0.61158 0.43242 0.89568 0.0
C556 C 0.56398 0.35817 0.77263 0.0
C557 C 0.51606 0.33386 0.78445 0.0
C558 C 0.57903 0.39948 0.85607 0.0
C559 C 0.50086 0.34382 0.83218 0.0
C560 C 0.60228 0.46477 0.92083 0.0
C561 C 0.68087 0.45912 0.94678 0.0
N562 N 0.53227 0.37628 0.86619 0.0
N563 N 0.65037 0.43042 0.90935 0.0
loop_
_geom_bond_atom_site_label_1
_geom_bond_atom_site_label_2
_geom_bond_distance
_geom_bond_site_symmetry_2
_ccdc_geom_bond_type
Gd0 C3 2.818 . S
Gd0 O20 2.377 . S
Gd0 O22 2.448 . S
Gd0 O23 2.506 . S
Gd0 O24 2.435 1_556 S
Gd0 O25 2.717 1_556 S
Gd0 O27 2.395 1_556 S
Gd0 O31 2.327 . S
Gd1 C12 2.818 . S
Gd1 O21 2.395 . S
Gd1 O25 2.327 . S
Gd1 O26 2.377 . S
Gd1 O28 2.448 . S
Gd1 O29 2.506 . S
Gd1 O30 2.435 . S
Gd1 O31 2.717 1_554 S
C2 O20 1.240 . S
C2 O21 1.240 1_556 S
C3 Gd0 2.818 . S
C3 C4 1.510 . S
C3 O22 1.249 . S
C3 O23 1.252 . S
C4 C3 1.510 . S
C4 C5 1.404 . S
C4 C6 1.352 . S
C5 C4 1.404 . S
C5 C9 1.389 . S
C5 H32 0.930 . S
C6 C4 1.352 . S
C6 C8 1.374 . S
C6 H33 0.931 . S
C7 C8 1.359 . S
C7 C9 1.364 . S
C8 C6 1.374 . S
C8 C7 1.359 . S
C8 H34 0.931 . S
C9 C5 1.389 . S
C9 C7 1.364 . S
C9 H35 0.931 . S
C10 O24 1.256 . S
C10 O25 1.257 . S
C11 O26 1.240 . S
C11 O27 1.240 . S
C12 Gd1 2.818 . S
C12 C13 1.510 . S
C12 O28 1.249 . S
C12 O29 1.252 . S
C13 C12 1.510 . S
C13 C14 1.404 . S
C13 C15 1.352 . S
C14 C13 1.404 . S
C14 C18 1.389 . S
C14 H36 0.930 . S
C15 C13 1.352 . S
C15 C17 1.374 . S
C15 H37 0.931 . S
C16 C17 1.359 . S
C16 C18 1.364 . S
C17 C15 1.374 . S
C17 C16 1.359 . S
C17 H38 0.931 . S
C18 C14 1.389 . S
C18 C16 1.364 . S
C18 H39 0.931 . S
C19 O30 1.256 1_556 S
C19 O31 1.257 . S
O20 Gd0 2.377 . S
O20 C2 1.240 . S
O21 Gd1 2.395 . S
O21 C2 1.240 1_554 S
O22 Gd0 2.448 . S
O22 C3 1.249 . S
O23 Gd0 2.506 . S
O23 C3 1.252 . S
O24 Gd0 2.435 1_554 S
O24 C10 1.256 . S
O25 Gd0 2.717 1_554 S
O25 Gd1 2.327 . S
O25 C10 1.257 . S
O26 Gd1 2.377 . S
O26 C11 1.240 . S
O27 Gd0 2.395 1_554 S
O27 C11 1.240 . S
O28 Gd1 2.448 . S
O28 C12 1.249 . S
O29 Gd1 2.506 . S
O29 C12 1.252 . S
O30 Gd1 2.435 . S
O30 C19 1.256 1_554 S
O31 Gd0 2.327 . S
O31 Gd1 2.717 1_556 S
O31 C19 1.257 . S
H32 C5 0.930 . S
H33 C6 0.931 . S
H34 C8 0.931 . S
H35 C9 0.931 . S
H36 C14 0.930 . S
H37 C15 0.931 . S
H38 C17 0.931 . S
H39 C18 0.931 . S
Gd40 C43 2.818 . S
Gd40 O60 2.377 . S
Gd40 O62 2.448 . S
Gd40 O63 2.506 . S
Gd40 O64 2.435 . S
Gd40 O65 2.717 . S
Gd40 O67 2.395 . S
Gd40 O71 2.327 . S
Gd41 C52 2.818 . S
Gd41 O61 2.395 . S
Gd41 O65 2.327 . S
Gd41 O66 2.377 . S
Gd41 O68 2.448 . S
Gd41 O69 2.506 . S
Gd41 O70 2.435 . S
Gd41 O71 2.717 . S
C42 O60 1.240 . S
C42 O61 1.240 . S
C43 Gd40 2.818 . S
C43 C44 1.510 . S
C43 O62 1.249 . S
C43 O63 1.252 . S
C44 C43 1.510 . S
C44 C45 1.404 . S
C44 C46 1.352 . S
C45 C44 1.404 . S
C45 C49 1.389 . S
C45 H72 0.930 . S
C46 C44 1.352 . S
C46 C48 1.374 . S
C46 H73 0.931 . S
C47 C48 1.359 . S
C47 C49 1.364 . S
C48 C46 1.374 . S
C48 C47 1.359 . S
C48 H74 0.931 . S
C49 C45 1.389 . S
C49 C47 1.364 . S
C49 H75 0.931 . S
C50 O64 1.256 . S
C50 O65 1.257 . S
C51 O66 1.240 . S
C51 O67 1.240 . S
C52 Gd41 2.818 . S
C52 C53 1.510 . S
C52 O68 1.249 . S
C52 O69 1.252 . S
C53 C52 1.510 . S
C53 C54 1.404 . S
C53 C55 1.352 . S
C54 C53 1.404 . S
C54 C58 1.389 . S
C54 H76 0.930 . S
C55 C53 1.352 . S
C55 C57 1.374 . S
C55 H77 0.931 . S
C56 C57 1.359 . S
C56 C58 1.364 . S
C57 C55 1.374 . S
C57 C56 1.359 . S
C57 H78 0.931 . S
C58 C54 1.389 . S
C58 C56 1.364 . S
C58 H79 0.931 . S
C59 O70 1.256 . S
C59 O71 1.257 . S
O60 Gd40 2.377 . S
O60 C42 1.240 . S
O61 Gd41 2.395 . S
O61 C42 1.240 . S
O62 Gd40 2.448 . S
O62 C43 1.249 . S
O63 Gd40 2.506 . S
O63 C43 1.252 . S
O64 Gd40 2.435 . S
O64 C50 1.256 . S
O65 Gd40 2.717 . S
O65 Gd41 2.327 . S
O65 C50 1.257 . S
O66 Gd41 2.377 . S
O66 C51 1.240 . S
O67 Gd40 2.395 . S
O67 C51 1.240 . S
O68 Gd41 2.448 . S
O68 C52 1.249 . S
O69 Gd41 2.506 . S
O69 C52 1.252 . S
O70 Gd41 2.435 . S
O70 C59 1.256 . S
O71 Gd40 2.327 . S
O71 Gd41 2.717 . S
O71 C59 1.257 . S
H72 C45 0.930 . S
H73 C46 0.931 . S
H74 C48 0.931 . S
H75 C49 0.931 . S
H76 C54 0.930 . S
H77 C55 0.931 . S
H78 C57 0.931 . S
H79 C58 0.931 . S
Gd80 C83 2.818 . S
Gd80 O100 2.377 . S
Gd80 O102 2.448 . S
Gd80 O103 2.506 . S
Gd80 O104 2.435 . S
Gd80 O105 2.717 . S
Gd80 O107 2.395 . S
Gd80 O111 2.327 . S
Gd81 C92 2.818 . S
Gd81 O101 2.395 . S
Gd81 O105 2.327 . S
Gd81 O106 2.377 . S
Gd81 O108 2.448 . S
Gd81 O109 2.506 . S
Gd81 O110 2.435 . S
Gd81 O111 2.717 . S
C82 O100 1.240 . S
C82 O101 1.240 . S
C83 Gd80 2.818 . S
C83 C84 1.510 . S
C83 O102 1.249 . S
C83 O103 1.252 . S
C84 C83 1.510 . S
C84 C85 1.404 . S
C84 C86 1.352 . S
C85 C84 1.404 . S
C85 C89 1.389 . S
C85 H112 0.930 . S
C86 C84 1.352 . S
C86 C88 1.374 . S
C86 H113 0.931 . S
C87 C88 1.359 . S
C87 C89 1.364 . S
C88 C86 1.374 . S
C88 C87 1.359 . S
C88 H114 0.931 . S
C89 C85 1.389 . S
C89 C87 1.364 . S
C89 H115 0.931 . S
C90 O104 1.256 . S
C90 O105 1.257 . S
C91 O106 1.240 . S
C91 O107 1.240 . S
C92 Gd81 2.818 . S
C92 C93 1.510 . S
C92 O108 1.249 . S
C92 O109 1.252 . S
C93 C92 1.510 . S
C93 C94 1.404 . S
C93 C95 1.352 . S
C94 C93 1.404 . S
C94 C98 1.389 . S
C94 H116 0.930 . S
C95 C93 1.352 . S
C95 C97 1.374 . S
C95 H117 0.931 . S
C96 C97 1.359 1_554 S
C96 C98 1.364 1_554 S
C97 C95 1.374 . S
C97 C96 1.359 1_556 S
C97 H118 0.931 1_556 S
C98 C94 1.389 . S
C98 C96 1.364 1_556 S
C98 H119 0.931 . S
C99 O110 1.256 . S
C99 O111 1.257 . S
O100 Gd80 2.377 . S
O100 C82 1.240 . S
O101 Gd81 2.395 . S
O101 C82 1.240 . S
O102 Gd80 2.448 . S
O102 C83 1.249 . S
O103 Gd80 2.506 . S
O103 C83 1.252 . S
O104 Gd80 2.435 . S
O104 C90 1.256 . S
O105 Gd80 2.717 . S
O105 Gd81 2.327 . S
O105 C90 1.257 . S
O106 Gd81 2.377 . S
O106 C91 1.240 . S
O107 Gd80 2.395 . S
O107 C91 1.240 . S
O108 Gd81 2.448 . S
O108 C92 1.249 . S
O109 Gd81 2.506 . S
O109 C92 1.252 . S
O110 Gd81 2.435 . S
O110 C99 1.256 . S
O111 Gd80 2.327 . S
O111 Gd81 2.717 . S
O111 C99 1.257 . S
H112 C85 0.930 . S
H113 C86 0.931 . S
H114 C88 0.931 . S
H115 C89 0.931 . S
H116 C94 0.930 . S
H117 C95 0.931 . S
H118 C97 0.931 1_554 S
H119 C98 0.931 . S
Gd120 C123 2.818 . S
Gd120 O140 2.377 . S
Gd120 O142 2.448 . S
Gd120 O143 2.506 . S
Gd120 O144 2.435 1_556 S
Gd120 O145 2.717 1_556 S
Gd120 O147 2.395 1_556 S
Gd120 O151 2.327 . S
Gd121 C132 2.818 . S
Gd121 O141 2.395 . S
Gd121 O145 2.327 . S
Gd121 O146 2.377 . S
Gd121 O148 2.448 . S
Gd121 O149 2.506 . S
Gd121 O150 2.435 . S
Gd121 O151 2.717 1_554 S
C122 O140 1.240 . S
C122 O141 1.240 1_556 S
C123 Gd120 2.818 . S
C123 C124 1.510 . S
C123 O142 1.249 . S
C123 O143 1.252 . S
C124 C123 1.510 . S
C124 C125 1.404 . S
C124 C126 1.352 . S
C125 C124 1.404 . S
C125 C129 1.389 . S
C125 H152 0.930 . S
C126 C124 1.352 . S
C126 C128 1.374 . S
C126 H153 0.931 . S
C127 C128 1.359 . S
C127 C129 1.364 . S
C128 C126 1.374 . S
C128 C127 1.359 . S
C128 H154 0.931 . S
C129 C125 1.389 . S
C129 C127 1.364 . S
C129 H155 0.931 . S
C130 O144 1.256 . S
C130 O145 1.257 . S
C131 O146 1.240 . S
C131 O147 1.240 . S
C132 Gd121 2.818 . S
C132 C133 1.510 . S
C132 O148 1.249 . S
C132 O149 1.252 . S
C133 C132 1.510 . S
C133 C134 1.404 . S
C133 C135 1.352 . S
C134 C133 1.404 . S
C134 C138 1.389 . S
C134 H156 0.930 . S
C135 C133 1.352 . S
C135 C137 1.374 . S
C135 H157 0.931 . S
C136 C137 1.359 . S
C136 C138 1.364 . S
C137 C135 1.374 . S
C137 C136 1.359 . S
C137 H158 0.931 . S
C138 C134 1.389 . S
C138 C136 1.364 . S
C138 H159 0.931 . S
C139 O150 1.256 1_556 S
C139 O151 1.257 . S
O140 Gd120 2.377 . S
O140 C122 1.240 . S
O141 Gd121 2.395 . S
O141 C122 1.240 1_554 S
O142 Gd120 2.448 . S
O142 C123 1.249 . S
O143 Gd120 2.506 . S
O143 C123 1.252 . S
O144 Gd120 2.435 1_554 S
O144 C130 1.256 . S
O145 Gd120 2.717 1_554 S
O145 Gd121 2.327 . S
O145 C130 1.257 . S
O146 Gd121 2.377 . S
O146 C131 1.240 . S
O147 Gd120 2.395 1_554 S
O147 C131 1.240 . S
O148 Gd121 2.448 . S
O148 C132 1.249 . S
O149 Gd121 2.506 . S
O149 C132 1.252 . S
O150 Gd121 2.435 . S
O150 C139 1.256 1_554 S
O151 Gd120 2.327 . S
O151 Gd121 2.717 1_556 S
O151 C139 1.257 . S
H152 C125 0.930 . S
H153 C126 0.931 . S
H154 C128 0.931 . S
H155 C129 0.931 . S
H156 C134 0.930 . S
H157 C135 0.931 . S
H158 C137 0.931 . S
H159 C138 0.931 . S
Gd160 C163 2.818 . S
Gd160 O180 2.377 . S
Gd160 O182 2.448 . S
Gd160 O183 2.506 . S
Gd160 O184 2.435 . S
Gd160 O185 2.717 . S
Gd160 O187 2.395 . S
Gd160 O191 2.327 . S
Gd161 C172 2.818 . S
Gd161 O181 2.395 . S
Gd161 O185 2.327 . S
Gd161 O186 2.377 . S
Gd161 O188 2.448 . S
Gd161 O189 2.506 . S
Gd161 O190 2.435 . S
Gd161 O191 2.717 . S
C162 O180 1.240 . S
C162 O181 1.240 . S
C163 Gd160 2.818 . S
C163 C164 1.510 . S
C163 O182 1.249 . S
C163 O183 1.252 . S
C164 C163 1.510 . S
C164 C165 1.404 . S
C164 C166 1.352 . S
C165 C164 1.404 . S
C165 C169 1.389 . S
C165 H192 0.930 . S
C166 C164 1.352 . S
C166 C168 1.374 . S
C166 H193 0.931 . S
C167 C168 1.359 . S
C167 C169 1.364 . S
C168 C166 1.374 . S
C168 C167 1.359 . S
C168 H194 0.931 . S
C169 C165 1.389 . S
C169 C167 1.364 . S
C169 H195 0.931 . S
C170 O184 1.256 . S
C170 O185 1.257 . S
C171 O186 1.240 . S
C171 O187 1.240 . S
C172 Gd161 2.818 . S
C172 C173 1.510 . S
C172 O188 1.249 . S
C172 O189 1.252 . S
C173 C172 1.510 . S
C173 C174 1.404 . S
C173 C175 1.352 . S
C174 C173 1.404 . S
C174 C178 1.389 . S
C174 H196 0.930 . S
C175 C173 1.352 . S
C175 C177 1.374 . S
C175 H197 0.931 . S
C176 C177 1.359 . S
C176 C178 1.364 . S
C177 C175 1.374 . S
C177 C176 1.359 . S
C177 H198 0.931 . S
C178 C174 1.389 . S
C178 C176 1.364 . S
C178 H199 0.931 . S
C179 O190 1.256 . S
C179 O191 1.257 . S
O180 Gd160 2.377 . S
O180 C162 1.240 . S
O181 Gd161 2.395 . S
O181 C162 1.240 . S
O182 Gd160 2.448 . S
O182 C163 1.249 . S
O183 Gd160 2.506 . S
O183 C163 1.252 . S
O184 Gd160 2.435 . S
O184 C170 1.256 . S
O185 Gd160 2.717 . S
O185 Gd161 2.327 . S
O185 C170 1.257 . S
O186 Gd161 2.377 . S
O186 C171 1.240 . S
O187 Gd160 2.395 . S
O187 C171 1.240 . S
O188 Gd161 2.448 . S
O188 C172 1.249 . S
O189 Gd161 2.506 . S
O189 C172 1.252 . S
O190 Gd161 2.435 . S
O190 C179 1.256 . S
O191 Gd160 2.327 . S
O191 Gd161 2.717 . S
O191 C179 1.257 . S
H192 C165 0.930 . S
H193 C166 0.931 . S
H194 C168 0.931 . S
H195 C169 0.931 . S
H196 C174 0.930 . S
H197 C175 0.931 . S
H198 C177 0.931 . S
H199 C178 0.931 . S
Gd200 C203 2.818 . S
Gd200 O220 2.377 . S
Gd200 O222 2.448 . S
Gd200 O223 2.506 . S
Gd200 O224 2.435 . S
Gd200 O225 2.717 . S
Gd200 O227 2.395 . S
Gd200 O231 2.327 . S
Gd201 C212 2.818 . S
Gd201 O221 2.395 . S
Gd201 O225 2.327 . S
Gd201 O226 2.377 . S
Gd201 O228 2.448 . S
Gd201 O229 2.506 . S
Gd201 O230 2.435 . S
Gd201 O231 2.717 . S
C202 O220 1.240 . S
C202 O221 1.240 . S
C203 Gd200 2.818 . S
C203 C204 1.510 . S
C203 O222 1.249 . S
C203 O223 1.252 . S
C204 C203 1.510 . S
C204 C205 1.404 . S
C204 C206 1.352 . S
C205 C204 1.404 . S
C205 C209 1.389 . S
C205 H232 0.930 . S
C206 C204 1.352 . S
C206 C208 1.374 . S
C206 H233 0.931 . S
C207 C208 1.359 . S
C207 C209 1.364 . S
C208 C206 1.374 . S
C208 C207 1.359 . S
C208 H234 0.931 . S
C209 C205 1.389 . S
C209 C207 1.364 . S
C209 H235 0.931 . S
C210 O224 1.256 . S
C210 O225 1.257 . S
C211 O226 1.240 . S
C211 O227 1.240 . S
C212 Gd201 2.818 . S
C212 C213 1.510 . S
C212 O228 1.249 . S
C212 O229 1.252 . S
C213 C212 1.510 . S
C213 C214 1.404 . S
C213 C215 1.352 . S
C214 C213 1.404 . S
C214 C218 1.389 . S
C214 H236 0.930 . S
C215 C213 1.352 . S
C215 C217 1.374 . S
C215 H237 0.931 . S
C216 C217 1.359 1_554 S
C216 C218 1.364 1_554 S
C217 C215 1.374 . S
C217 C216 1.359 1_556 S
C217 H238 0.931 1_556 S
C218 C214 1.389 . S
C218 C216 1.364 1_556 S
C218 H239 0.931 . S
C219 O230 1.256 . S
C219 O231 1.257 . S
O220 Gd200 2.377 . S
O220 C202 1.240 . S
O221 Gd201 2.395 . S
O221 C202 1.240 . S
O222 Gd200 2.448 . S
O222 C203 1.249 . S
O223 Gd200 2.506 . S
O223 C203 1.252 . S
O224 Gd200 2.435 . S
O224 C210 1.256 . S
O225 Gd200 2.717 . S
O225 Gd201 2.327 . S
O225 C210 1.257 . S
O226 Gd201 2.377 . S
O226 C211 1.240 . S
O227 Gd200 2.395 . S
O227 C211 1.240 . S
O228 Gd201 2.448 . S
O228 C212 1.249 . S
O229 Gd201 2.506 . S
O229 C212 1.252 . S
O230 Gd201 2.435 . S
O230 C219 1.256 . S
O231 Gd200 2.327 . S
O231 Gd201 2.717 . S
O231 C219 1.257 . S
H232 C205 0.930 . S
H233 C206 0.931 . S
H234 C208 0.931 . S
H235 C209 0.931 . S
H236 C214 0.930 . S
H237 C215 0.931 . S
H238 C217 0.931 1_554 S
H239 C218 0.931 . S
H240 C246 0.930 . S
H241 C250 0.930 . S
H242 C255 0.929 . S
H243 C253 0.929 . S
H244 C248 0.929 . S
H245 C254 0.929 . S
C246 H240 0.930 . S
C246 C247 1.367 . S
C246 C254 1.378 . S
C247 C246 1.367 . S
C247 C255 1.433 . S
C248 H244 0.929 . S
C248 C250 1.378 . S
C248 C252 1.350 . S
C249 C252 1.463 . S
C249 C254 1.350 . S
C249 N257 1.427 . S
C250 H241 0.930 . S
C250 C248 1.378 . S
C250 C251 1.367 . S
C251 C250 1.367 . S
C251 C253 1.433 . S
C252 C248 1.350 . S
C252 C249 1.463 . S
C252 N256 1.427 . S
C253 H243 0.929 . S
C253 C251 1.433 . S
C253 N256 1.384 . S
C254 H245 0.929 . S
C254 C246 1.378 . S
C254 C249 1.350 . S
C255 H242 0.929 . S
C255 C247 1.433 . S
C255 N257 1.384 . S
N256 C252 1.427 . S
N256 C253 1.384 . S
N257 C249 1.427 . S
N257 C255 1.384 . S
H258 C264 0.930 . S
H259 C268 0.930 . S
H260 C273 0.929 . S
H261 C271 0.929 . S
H262 C266 0.929 . S
H263 C272 0.929 . S
C264 H258 0.930 . S
C264 C265 1.367 . S
C264 C272 1.378 . S
C265 C264 1.367 . S
C265 C273 1.433 . S
C266 H262 0.929 . S
C266 C268 1.378 . S
C266 C270 1.350 . S
C267 C270 1.463 1_455 S
C267 C272 1.350 . S
C267 N275 1.427 . S
C268 H259 0.930 . S
C268 C266 1.378 . S
C268 C269 1.367 . S
C269 C268 1.367 . S
C269 C271 1.433 . S
C270 C266 1.350 . S
C270 C267 1.463 1_655 S
C270 N274 1.427 . S
C271 H261 0.929 . S
C271 C269 1.433 . S
C271 N274 1.384 . S
C272 H263 0.929 . S
C272 C264 1.378 . S
C272 C267 1.350 . S
C273 H260 0.929 . S
C273 C265 1.433 . S
C273 N275 1.384 . S
N274 C270 1.427 . S
N274 C271 1.384 . S
N275 C267 1.427 . S
N275 C273 1.384 . S
H276 C282 0.930 . S
H277 C286 0.930 . S
H278 C291 0.929 . S
H279 C289 0.929 . S
H280 C284 0.929 . S
H281 C290 0.929 1_565 S
C282 H276 0.930 . S
C282 C283 1.367 . S
C282 C290 1.378 . S
C283 C282 1.367 . S
C283 C291 1.433 . S
C284 H280 0.929 . S
C284 C286 1.378 . S
C284 C288 1.350 . S
C285 C288 1.463 1_545 S
C285 C290 1.350 . S
C285 N293 1.427 . S
C286 H277 0.930 . S
C286 C284 1.378 . S
C286 C287 1.367 . S
C287 C286 1.367 . S
C287 C289 1.433 . S
C288 C284 1.350 . S
C288 C285 1.463 1_565 S
C288 N292 1.427 . S
C289 H279 0.929 . S
C289 C287 1.433 . S
C289 N292 1.384 . S
C290 H281 0.929 1_545 S
C290 C282 1.378 . S
C290 C285 1.350 . S
C291 H278 0.929 . S
C291 C283 1.433 . S
C291 N293 1.384 . S
N292 C288 1.427 . S
N292 C289 1.384 . S
N293 C285 1.427 . S
N293 C291 1.384 . S
H294 C300 0.930 . S
H295 C304 0.930 . S
H296 C309 0.929 . S
H297 C307 0.929 . S
H298 C302 0.929 . S
H299 C308 0.929 . S
C300 H294 0.930 . S
C300 C301 1.367 . S
C300 C308 1.378 . S
C301 C300 1.367 . S
C301 C309 1.433 . S
C302 H298 0.929 . S
C302 C304 1.378 . S
C302 C306 1.350 . S
C303 C306 1.463 . S
C303 C308 1.350 . S
C303 N311 1.427 . S
C304 H295 0.930 . S
C304 C302 1.378 . S
C304 C305 1.367 . S
C305 C304 1.367 . S
C305 C307 1.433 . S
C306 C302 1.350 . S
C306 C303 1.463 . S
C306 N310 1.427 . S
C307 H297 0.929 . S
C307 C305 1.433 . S
C307 N310 1.384 . S
C308 H299 0.929 . S
C308 C300 1.378 . S
C308 C303 1.350 . S
C309 H296 0.929 . S
C309 C301 1.433 . S
C309 N311 1.384 . S
N310 C306 1.427 . S
N310 C307 1.384 . S
N311 C303 1.427 . S
N311 C309 1.384 . S
H312 C318 0.930 . S
H313 C322 0.930 . S
H314 C327 0.929 . S
H315 C325 0.929 . S
H316 C320 0.929 1_455 S
H317 C326 0.929 1_655 S
C318 H312 0.930 . S
C318 C319 1.367 . S
C318 C326 1.378 . S
C319 C318 1.367 . S
C319 C327 1.433 . S
C320 H316 0.929 1_655 S
C320 C322 1.378 . S
C320 C324 1.350 . S
C321 C324 1.463 1_455 S
C321 C326 1.350 . S
C321 N329 1.427 . S
C322 H313 0.930 . S
C322 C320 1.378 . S
C322 C323 1.367 . S
C323 C322 1.367 . S
C323 C325 1.433 . S
C324 C320 1.350 . S
C324 C321 1.463 1_655 S
C324 N328 1.427 . S
C325 H315 0.929 . S
C325 C323 1.433 . S
C325 N328 1.384 . S
C326 H317 0.929 1_455 S
C326 C318 1.378 . S
C326 C321 1.350 . S
C327 H314 0.929 . S
C327 C319 1.433 . S
C327 N329 1.384 . S
N328 C324 1.427 . S
N328 C325 1.384 . S
N329 C321 1.427 . S
N329 C327 1.384 . S
H330 C336 0.930 . S
H331 C340 0.930 . S
H332 C345 0.929 . S
H333 C343 0.929 . S
H334 C338 0.929 . S
H335 C344 0.929 . S
C336 H330 0.930 . S
C336 C337 1.367 . S
C336 C344 1.378 . S
C337 C336 1.367 . S
C337 C345 1.433 . S
C338 H334 0.929 . S
C338 C340 1.378 . S
C338 C342 1.350 . S
C339 C342 1.463 1_545 S
C339 C344 1.350 . S
C339 N347 1.427 . S
C340 H331 0.930 . S
C340 C338 1.378 . S
C340 C341 1.367 . S
C341 C340 1.367 . S
C341 C343 1.433 . S
C342 C338 1.350 . S
C342 C339 1.463 1_565 S
C342 N346 1.427 . S
C343 H333 0.929 . S
C343 C341 1.433 . S
C343 N346 1.384 . S
C344 H335 0.929 . S
C344 C336 1.378 . S
C344 C339 1.350 . S
C345 H332 0.929 . S
C345 C337 1.433 . S
C345 N347 1.384 . S
N346 C342 1.427 . S
N346 C343 1.384 . S
N347 C339 1.427 . S
N347 C345 1.384 . S
H348 C354 0.930 . S
H349 C358 0.930 . S
H350 C363 0.929 . S
H351 C361 0.929 . S
H352 C356 0.929 . S
H353 C362 0.929 . S
C354 H348 0.930 . S
C354 C355 1.367 . S
C354 C362 1.378 . S
C355 C354 1.367 . S
C355 C363 1.433 . S
C356 H352 0.929 . S
C356 C358 1.378 . S
C356 C360 1.350 . S
C357 C360 1.463 . S
C357 C362 1.350 . S
C357 N365 1.427 . S
C358 H349 0.930 . S
C358 C356 1.378 . S
C358 C359 1.367 . S
C359 C358 1.367 . S
C359 C361 1.433 . S
C360 C356 1.350 . S
C360 C357 1.463 . S
C360 N364 1.427 . S
C361 H351 0.929 . S
C361 C359 1.433 . S
C361 N364 1.384 . S
C362 H353 0.929 . S
C362 C354 1.378 . S
C362 C357 1.350 . S
C363 H350 0.929 . S
C363 C355 1.433 . S
C363 N365 1.384 . S
N364 C360 1.427 . S
N364 C361 1.384 . S
N365 C357 1.427 . S
N365 C363 1.384 . S
H366 C372 0.930 . S
H367 C376 0.930 . S
H368 C381 0.929 . S
H369 C379 0.929 . S
H370 C374 0.929 . S
H371 C380 0.929 . S
C372 H366 0.930 . S
C372 C373 1.367 . S
C372 C380 1.378 . S
C373 C372 1.367 . S
C373 C381 1.433 . S
C374 H370 0.929 . S
C374 C376 1.378 . S
C374 C378 1.350 . S
C375 C378 1.463 . S
C375 C380 1.350 . S
C375 N383 1.427 . S
C376 H367 0.930 . S
C376 C374 1.378 . S
C376 C377 1.367 . S
C377 C376 1.367 . S
C377 C379 1.433 . S
C378 C374 1.350 . S
C378 C375 1.463 . S
C378 N382 1.427 . S
C379 H369 0.929 . S
C379 C377 1.433 . S
C379 N382 1.384 . S
C380 H371 0.929 . S
C380 C372 1.378 . S
C380 C375 1.350 . S
C381 H368 0.929 . S
C381 C373 1.433 . S
C381 N383 1.384 . S
N382 C378 1.427 . S
N382 C379 1.384 . S
N383 C375 1.427 . S
N383 C381 1.384 . S
H384 C390 0.930 . S
H385 C394 0.930 . S
H386 C399 0.929 . S
H387 C397 0.929 . S
H388 C392 0.929 . S
H389 C398 0.929 . S
C390 H384 0.930 . S
C390 C391 1.367 . S
C390 C398 1.378 . S
C391 C390 1.367 . S
C391 C399 1.433 . S
C392 H388 0.929 . S
C392 C394 1.378 . S
C392 C396 1.350 . S
C393 C396 1.463 . S
C393 C398 1.350 . S
C393 N401 1.427 . S
C394 H385 0.930 . S
C394 C392 1.378 . S
C394 C395 1.367 . S
C395 C394 1.367 . S
C395 C397 1.433 . S
C396 C392 1.350 . S
C396 C393 1.463 . S
C396 N400 1.427 . S
C397 H387 0.929 . S
C397 C395 1.433 . S
C397 N400 1.384 . S
C398 H389 0.929 . S
C398 C390 1.378 . S
C398 C393 1.350 . S
C399 H386 0.929 . S
C399 C391 1.433 . S
C399 N401 1.384 . S
N400 C396 1.427 . S
N400 C397 1.384 . S
N401 C393 1.427 . S
N401 C399 1.384 . S
H402 C408 0.930 . S
H403 C412 0.930 . S
H404 C417 0.929 . S
H405 C415 0.929 . S
H406 C410 0.929 . S
H407 C416 0.929 . S
C408 H402 0.930 . S
C408 C409 1.367 . S
C408 C416 1.378 . S
C409 C408 1.367 . S
C409 C417 1.433 . S
C410 H406 0.929 . S
C410 C412 1.378 . S
C410 C414 1.350 . S
C411 C414 1.463 . S
C411 C416 1.350 . S
C411 N419 1.427 . S
C412 H403 0.930 . S
C412 C410 1.378 . S
C412 C413 1.367 . S
C413 C412 1.367 . S
C413 C415 1.433 . S
C414 C410 1.350 . S
C414 C411 1.463 . S
C414 N418 1.427 . S
C415 H405 0.929 . S
C415 C413 1.433 . S
C415 N418 1.384 . S
C416 H407 0.929 . S
C416 C408 1.378 . S
C416 C411 1.350 . S
C417 H404 0.929 . S
C417 C409 1.433 . S
C417 N419 1.384 . S
N418 C414 1.427 . S
N418 C415 1.384 . S
N419 C411 1.427 . S
N419 C417 1.384 . S
H420 C426 0.930 . S
H421 C430 0.930 . S
H422 C435 0.929 . S
H423 C433 0.929 . S
H424 C428 0.929 . S
H425 C434 0.929 . S
C426 H420 0.930 . S
C426 C427 1.367 . S
C426 C434 1.378 . S
C427 C426 1.367 . S
C427 C435 1.433 . S
C428 H424 0.929 . S
C428 C430 1.378 . S
C428 C432 1.350 . S
C429 C432 1.463 . S
C429 C434 1.350 . S
C429 N437 1.427 . S
C430 H421 0.930 . S
C430 C428 1.378 . S
C430 C431 1.367 . S
C431 C430 1.367 . S
C431 C433 1.433 . S
C432 C428 1.350 . S
C432 C429 1.463 . S
C432 N436 1.427 . S
C433 H423 0.929 . S
C433 C431 1.433 . S
C433 N436 1.384 . S
C434 H425 0.929 . S
C434 C426 1.378 . S
C434 C429 1.350 . S
C435 H422 0.929 . S
C435 C427 1.433 . S
C435 N437 1.384 . S
N436 C432 1.427 . S
N436 C433 1.384 . S
N437 C429 1.427 . S
N437 C435 1.384 . S
H438 C444 0.930 . S
H439 C448 0.930 . S
H440 C453 0.929 . S
H441 C451 0.929 . S
H442 C446 0.929 . S
H443 C452 0.929 . S
C444 H438 0.930 . S
C444 C445 1.367 . S
C444 C452 1.378 . S
C445 C444 1.367 . S
C445 C453 1.433 . S
C446 H442 0.929 . S
C446 C448 1.378 . S
C446 C450 1.350 . S
C447 C450 1.463 . S
C447 C452 1.350 . S
C447 N455 1.427 . S
C448 H439 0.930 . S
C448 C446 1.378 . S
C448 C449 1.367 . S
C449 C448 1.367 . S
C449 C451 1.433 . S
C450 C446 1.350 . S
C450 C447 1.463 . S
C450 N454 1.427 . S
C451 H441 0.929 . S
C451 C449 1.433 . S
C451 N454 1.384 . S
C452 H443 0.929 . S
C452 C444 1.378 . S
C452 C447 1.350 . S
C453 H440 0.929 . S
C453 C445 1.433 . S
C453 N455 1.384 . S
N454 C450 1.427 . S
N454 C451 1.384 . S
N455 C447 1.427 . S
N455 C453 1.384 . S
H456 C462 0.930 . S
H457 C466 0.930 . S
H458 C471 0.929 . S
H459 C469 0.929 . S
H460 C464 0.929 . S
H461 C470 0.929 . S
C462 H456 0.930 . S
C462 C463 1.367 . S
C462 C470 1.378 . S
C463 C462 1.367 . S
C463 C471 1.433 . S
C464 H460 0.929 . S
C464 C466 1.378 . S
C464 C468 1.350 . S
C465 C468 1.463 . S
C465 C470 1.350 . S
C465 N473 1.427 . S
C466 H457 0.930 . S
C466 C464 1.378 . S
C466 C467 1.367 . S
C467 C466 1.367 . S
C467 C469 1.433 . S
C468 C464 1.350 . S
C468 C465 1.463 . S
C468 N472 1.427 . S
C469 H459 0.929 . S
C469 C467 1.433 . S
C469 N472 1.384 . S
C470 H461 0.929 . S
C470 C462 1.378 . S
C470 C465 1.350 . S
C471 H458 0.929 . S
C471 C463 1.433 . S
C471 N473 1.384 . S
N472 C468 1.427 . S
N472 C469 1.384 . S
N473 C465 1.427 . S
N473 C471 1.384 . S
H474 C480 0.930 . S
H475 C484 0.930 . S
H476 C489 0.929 . S
H477 C487 0.929 . S
H478 C482 0.929 . S
H479 C488 0.929 . S
C480 H474 0.930 . S
C480 C481 1.367 . S
C480 C488 1.378 . S
C481 C480 1.367 . S
C481 C489 1.433 . S
C482 H478 0.929 . S
C482 C484 1.378 . S
C482 C486 1.350 . S
C483 C486 1.463 . S
C483 C488 1.350 . S
C483 N491 1.427 . S
C484 H475 0.930 . S
C484 C482 1.378 . S
C484 C485 1.367 . S
C485 C484 1.367 . S
C485 C487 1.433 . S
C486 C482 1.350 . S
C486 C483 1.463 . S
C486 N490 1.427 . S
C487 H477 0.929 . S
C487 C485 1.433 . S
C487 N490 1.384 . S
C488 H479 0.929 . S
C488 C480 1.378 . S
C488 C483 1.350 . S
C489 H476 0.929 . S
C489 C481 1.433 . S
C489 N491 1.384 . S
N490 C486 1.427 . S
N490 C487 1.384 . S
N491 C483 1.427 . S
N491 C489 1.384 . S
H492 C498 0.930 . S
H493 C502 0.930 . S
H494 C507 0.929 . S
H495 C505 0.929 . S
H496 C500 0.929 . S
H497 C506 0.929 . S
C498 H492 0.930 . S
C498 C499 1.367 . S
C498 C506 1.378 . S
C499 C498 1.367 . S
C499 C507 1.433 . S
C500 H496 0.929 . S
C500 C502 1.378 . S
C500 C504 1.350 . S
C501 C504 1.463 . S
C501 C506 1.350 . S
C501 N509 1.427 . S
C502 H493 0.930 . S
C502 C500 1.378 . S
C502 C503 1.367 . S
C503 C502 1.367 . S
C503 C505 1.433 . S
C504 C500 1.350 . S
C504 C501 1.463 . S
C504 N508 1.427 . S
C505 H495 0.929 . S
C505 C503 1.433 . S
C505 N508 1.384 . S
C506 H497 0.929 . S
C506 C498 1.378 . S
C506 C501 1.350 . S
C507 H494 0.929 . S
C507 C499 1.433 . S
C507 N509 1.384 . S
N508 C504 1.427 . S
N508 C505 1.384 . S
N509 C501 1.427 . S
N509 C507 1.384 . S
H510 C516 0.930 . S
H511 C520 0.930 . S
H512 C525 0.929 . S
H513 C523 0.929 . S
H514 C518 0.929 . S
H515 C524 0.929 . S
C516 H510 0.930 . S
C516 C517 1.367 . S
C516 C524 1.378 . S
C517 C516 1.367 . S
C517 C525 1.433 . S
C518 H514 0.929 . S
C518 C520 1.378 . S
C518 C522 1.350 . S
C519 C522 1.463 . S
C519 C524 1.350 . S
C519 N527 1.427 . S
C520 H511 0.930 . S
C520 C518 1.378 . S
C520 C521 1.367 . S
C521 C520 1.367 . S
C521 C523 1.433 . S
C522 C518 1.350 . S
C522 C519 1.463 . S
C522 N526 1.427 . S
C523 H513 0.929 . S
C523 C521 1.433 . S
C523 N526 1.384 . S
C524 H515 0.929 . S
C524 C516 1.378 . S
C524 C519 1.350 . S
C525 H512 0.929 . S
C525 C517 1.433 . S
C525 N527 1.384 . S
N526 C522 1.427 . S
N526 C523 1.384 . S
N527 C519 1.427 . S
N527 C525 1.384 . S
H528 C534 0.930 . S
H529 C538 0.930 . S
H530 C543 0.929 . S
H531 C541 0.929 . S
H532 C536 0.929 . S
H533 C542 0.929 . S
C534 H528 0.930 . S
C534 C535 1.367 . S
C534 C542 1.378 . S
C535 C534 1.367 . S
C535 C543 1.433 . S
C536 H532 0.929 . S
C536 C538 1.378 . S
C536 C540 1.350 . S
C537 C540 1.463 . S
C537 C542 1.350 . S
C537 N545 1.427 . S
C538 H529 0.930 . S
C538 C536 1.378 . S
C538 C539 1.367 . S
C539 C538 1.367 . S
C539 C541 1.433 . S
C540 C536 1.350 . S
C540 C537 1.463 . S
C540 N544 1.427 . S
C541 H531 0.929 . S
C541 C539 1.433 . S
C541 N544 1.384 . S
C542 H533 0.929 . S
C542 C534 1.378 . S
C542 C537 1.350 . S
C543 H530 0.929 . S
C543 C535 1.433 . S
C543 N545 1.384 . S
N544 C540 1.427 . S
N544 C541 1.384 . S
N545 C537 1.427 . S
N545 C543 1.384 . S
H546 C552 0.930 . S
H547 C556 0.930 . S
H548 C561 0.929 . S
H549 C559 0.929 . S
H550 C554 0.929 . S
H551 C560 0.929 . S
C552 H546 0.930 . S
C552 C553 1.367 . S
C552 C560 1.378 . S
C553 C552 1.367 . S
C553 C561 1.433 . S
C554 H550 0.929 . S
C554 C556 1.378 . S
C554 C558 1.350 . S
C555 C558 1.463 . S
C555 C560 1.350 . S
C555 N563 1.427 . S
C556 H547 0.930 . S
C556 C554 1.378 . S
C556 C557 1.367 . S
C557 C556 1.367 . S
C557 C559 1.433 . S
C558 C554 1.350 . S
C558 C555 1.463 . S
C558 N562 1.427 . S
C559 H549 0.929 . S
C559 C557 1.433 . S
C559 N562 1.384 . S
C560 H551 0.929 . S
C560 C552 1.378 . S
C560 C555 1.350 . S
C561 H548 0.929 . S
C561 C553 1.433 . S
C561 N563 1.384 . S
N562 C558 1.427 . S
N562 C559 1.384 . S
N563 C555 1.427 . S
N563 C561 1.384 . S
C247 C210 1.372 . S
C251 C2 1.400 . S
C265 C10 1.361 . S
C269 C42 1.404 . S
C283 C50 1.372 . S
C287 C82 1.401 . S
C301 C90 1.373 . S
C305 C122 1.401 . S
C319 C162 1.403 . S
C323 C130 1.362 . S
C337 C202 1.402 . S
C341 C170 1.372 . S
C355 C7 1.539 . S
C359 C16 1.539 . S
C373 C47 1.541 1_556 S
C377 C56 1.541 . S
C391 C87 1.537 . S
C395 C96 1.537 . S
C409 C127 1.552 . S
C413 C136 1.552 . S
C427 C176 1.533 . S
C431 C167 1.533 1_556 S
C445 C207 1.543 . S
C449 C216 1.543 . S
C463 C11 1.657 . S
C467 C179 1.667 . S
C481 C51 1.656 . S
C485 C219 1.665 . S
C499 C19 1.668 . S
C503 C91 1.660 . S
C517 C59 1.669 . S
C521 C131 1.660 . S
C535 C171 1.659 . S
C539 C99 1.667 . S
C553 C139 1.666 . S
C557 C211 1.655 . S
