# Generated by pormake.
# Topology uot, (4)-cn, num edge types: 1
# Building blocks:
#     Node 0, Type 0, BuildingBlock: NAHDIM_clean_sbu_0, # of connection points: 4
#     Node 1, Type 0, BuildingBlock: NAHDIM_clean_sbu_0, # of connection points: 4
#     Node 2, Type 0, BuildingBlock: NAHDIM_clean_sbu_0, # of connection points: 4
#     Node 3, Type 0, BuildingBlock: NAHDIM_clean_sbu_0, # of connection points: 4
#     Node 4, Type 0, BuildingBlock: NAHDIM_clean_sbu_0, # of connection points: 4
#     Node 5, Type 0, BuildingBlock: NAHDIM_clean_sbu_0, # of connection points: 4
#     Node 6, Type 0, BuildingBlock: NAHDIM_clean_sbu_0, # of connection points: 4
#     Node 7, Type 0, BuildingBlock: NAHDIM_clean_sbu_0, # of connection points: 4
#     Node 8, Type 0, BuildingBlock: NAHDIM_clean_sbu_0, # of connection points: 4
#     Node 9, Type 0, BuildingBlock: NAHDIM_clean_sbu_0, # of connection points: 4
#     Node 10, Type 0, BuildingBlock: NAHDIM_clean_sbu_0, # of connection points: 4
#     Node 11, Type 0, BuildingBlock: NAHDIM_clean_sbu_0, # of connection points: 4
#     Node 12, Type 0, BuildingBlock: NAHDIM_clean_sbu_0, # of connection points: 4
#     Node 13, Type 0, BuildingBlock: NAHDIM_clean_sbu_0, # of connection points: 4
#     Node 14, Type 0, BuildingBlock: NAHDIM_clean_sbu_0, # of connection points: 4
#     Node 15, Type 0, BuildingBlock: NAHDIM_clean_sbu_0, # of connection points: 4
#     Edge 16, Type (0, 0), BuildingBlock: UVAHIK_clean_linker_0, # of connection points: 2
#     Edge 17, Type (0, 0), BuildingBlock: UVAHIK_clean_linker_0, # of connection points: 2
#     Edge 18, Type (0, 0), BuildingBlock: UVAHIK_clean_linker_0, # of connection points: 2
#     Edge 19, Type (0, 0), BuildingBlock: UVAHIK_clean_linker_0, # of connection points: 2
#     Edge 20, Type (0, 0), BuildingBlock: UVAHIK_clean_linker_0, # of connection points: 2
#     Edge 21, Type (0, 0), BuildingBlock: UVAHIK_clean_linker_0, # of connection points: 2
#     Edge 22, Type (0, 0), BuildingBlock: UVAHIK_clean_linker_0, # of connection points: 2
#     Edge 23, Type (0, 0), BuildingBlock: UVAHIK_clean_linker_0, # of connection points: 2
#     Edge 24, Type (0, 0), BuildingBlock: UVAHIK_clean_linker_0, # of connection points: 2
#     Edge 25, Type (0, 0), BuildingBlock: UVAHIK_clean_linker_0, # of connection points: 2
#     Edge 26, Type (0, 0), BuildingBlock: UVAHIK_clean_linker_0, # of connection points: 2
#     Edge 27, Type (0, 0), BuildingBlock: UVAHIK_clean_linker_0, # of connection points: 2
#     Edge 28, Type (0, 0), BuildingBlock: UVAHIK_clean_linker_0, # of connection points: 2
#     Edge 29, Type (0, 0), BuildingBlock: UVAHIK_clean_linker_0, # of connection points: 2
#     Edge 30, Type (0, 0), BuildingBlock: UVAHIK_clean_linker_0, # of connection points: 2
#     Edge 31, Type (0, 0), BuildingBlock: UVAHIK_clean_linker_0, # of connection points: 2
#     Edge 32, Type (0, 0), BuildingBlock: UVAHIK_clean_linker_0, # of connection points: 2
#     Edge 33, Type (0, 0), BuildingBlock: UVAHIK_clean_linker_0, # of connection points: 2
#     Edge 34, Type (0, 0), BuildingBlock: UVAHIK_clean_linker_0, # of connection points: 2
#     Edge 35, Type (0, 0), BuildingBlock: UVAHIK_clean_linker_0, # of connection points: 2
#     Edge 36, Type (0, 0), BuildingBlock: UVAHIK_clean_linker_0, # of connection points: 2
#     Edge 37, Type (0, 0), BuildingBlock: UVAHIK_clean_linker_0, # of connection points: 2
#     Edge 38, Type (0, 0), BuildingBlock: UVAHIK_clean_linker_0, # of connection points: 2
#     Edge 39, Type (0, 0), BuildingBlock: UVAHIK_clean_linker_0, # of connection points: 2
#     Edge 40, Type (0, 0), BuildingBlock: UVAHIK_clean_linker_0, # of connection points: 2
#     Edge 41, Type (0, 0), BuildingBlock: UVAHIK_clean_linker_0, # of connection points: 2
#     Edge 42, Type (0, 0), BuildingBlock: UVAHIK_clean_linker_0, # of connection points: 2
#     Edge 43, Type (0, 0), BuildingBlock: UVAHIK_clean_linker_0, # of connection points: 2
#     Edge 44, Type (0, 0), BuildingBlock: UVAHIK_clean_linker_0, # of connection points: 2
#     Edge 45, Type (0, 0), BuildingBlock: UVAHIK_clean_linker_0, # of connection points: 2
#     Edge 46, Type (0, 0), BuildingBlock: UVAHIK_clean_linker_0, # of connection points: 2
#     Edge 47, Type (0, 0), BuildingBlock: UVAHIK_clean_linker_0, # of connection points: 2
# Relax obj value: 0.173
# Max RMSD: 0.206
# Mean RMSD: 0.206
data_MOF--net-uot--node1-NAHDIM_clean_sbu_0--edge1-UVAHIK_clean_linker_0
_symmetry_space_group_name_H-M    P1
_symmetry_Int_Tables_number       1
_symmetry_cell_setting            triclinic
loop_
_symmetry_equiv_pos_as_xyz
'x, y, z'
_cell_length_a     56.461552
_cell_length_b     56.434807
_cell_length_c     50.662781
_cell_angle_alpha  90.003661
_cell_angle_beta   89.99498
_cell_angle_gamma 89.997892
loop_
_atom_site_label
_atom_site_type_symbol
_atom_site_fract_x
_atom_site_fract_y
_atom_site_fract_z
_atom_type_partial_charge
C0 C 0.26178 0.43845 0.31852 0.0
O1 O 0.24637 0.43427 0.3374 0.0
O2 O 0.20074 0.4434 0.29838 0.0
Zn3 Zn 0.22474 0.46852 0.30781 0.0
O4 O 0.22239 0.47768 0.34611 0.0
C5 C 0.21214 0.49682 0.2622 0.0
O6 O 0.21191 0.4763 0.24995 0.0
O7 O 0.25694 0.45428 0.3015 0.0
C8 C 0.20433 0.48789 0.35581 0.0
O9 O 0.18613 0.49254 0.34049 0.0
C10 C 0.18775 0.43222 0.31466 0.0
O11 O 0.18905 0.43718 0.33994 0.0
O12 O 0.21827 0.49763 0.2863 0.0
C13 C 0.44824 0.72334 0.68588 0.0
O14 O 0.462 0.72421 0.66499 0.0
O15 O 0.42931 0.79886 0.69423 0.0
Zn16 Zn 0.45324 0.77418 0.68372 0.0
O17 O 0.45621 0.77292 0.64422 0.0
C18 C 0.49124 0.78173 0.72204 0.0
O19 O 0.47711 0.77103 0.73885 0.0
O20 O 0.44283 0.74249 0.69762 0.0
C21 C 0.46028 0.79183 0.63139 0.0
O22 O 0.46183 0.812 0.64423 0.0
C23 C 0.41142 0.80437 0.68028 0.0
O24 O 0.40775 0.79334 0.65781 0.0
O25 O 0.48476 0.78414 0.69818 0.0
C26 C 0.72028 0.54244 0.30957 0.0
O27 O 0.72129 0.52909 0.33079 0.0
O28 O 0.79504 0.56157 0.30171 0.0
Zn29 Zn 0.77119 0.53592 0.30958 0.0
O30 O 0.77046 0.52942 0.3486 0.0
C31 C 0.78523 0.50374 0.26718 0.0
O32 O 0.78092 0.52176 0.25148 0.0
O33 O 0.73924 0.54689 0.29698 0.0
C34 C 0.78935 0.52248 0.35983 0.0
O35 O 0.80874 0.52021 0.34571 0.0
C36 C 0.8014 0.57685 0.31874 0.0
O37 O 0.79214 0.57623 0.34252 0.0
O38 O 0.78158 0.50591 0.2918 0.0
C39 C 0.54491 0.27963 0.69228 0.0
O40 O 0.53135 0.27822 0.67127 0.0
O41 O 0.56224 0.20466 0.70351 0.0
Zn42 Zn 0.53728 0.22889 0.69448 0.0
O43 O 0.53103 0.2283 0.65541 0.0
C44 C 0.50797 0.2119 0.73671 0.0
O45 O 0.52847 0.21068 0.74892 0.0
O46 O 0.54914 0.26099 0.70555 0.0
C47 C 0.52567 0.20891 0.64415 0.0
O48 O 0.52427 0.18948 0.65836 0.0
C49 C 0.57804 0.19764 0.68743 0.0
O50 O 0.57871 0.20656 0.66349 0.0
O51 O 0.50725 0.22007 0.71336 0.0
C52 C 0.27394 0.54732 0.68707 0.0
O53 O 0.27287 0.53376 0.66603 0.0
O54 O 0.19914 0.56719 0.69573 0.0
Zn55 Zn 0.22292 0.54187 0.68657 0.0
O56 O 0.22332 0.537 0.64725 0.0
C57 C 0.2168 0.50505 0.72684 0.0
O58 O 0.22916 0.51908 0.74227 0.0
O59 O 0.25496 0.55237 0.69933 0.0
C60 C 0.20394 0.5328 0.63539 0.0
O61 O 0.18421 0.53193 0.64912 0.0
C62 C 0.19437 0.58415 0.68008 0.0
O63 O 0.20537 0.58546 0.65728 0.0
O64 O 0.21271 0.51128 0.70318 0.0
C65 C 0.54542 0.71946 0.30786 0.0
O66 O 0.53161 0.72063 0.32868 0.0
O67 O 0.56629 0.79345 0.30318 0.0
Zn68 Zn 0.53909 0.7705 0.30711 0.0
O69 O 0.52839 0.76947 0.34495 0.0
C70 C 0.51507 0.79414 0.26428 0.0
O71 O 0.5368 0.7975 0.25579 0.0
O72 O 0.55024 0.73833 0.29526 0.0
C73 C 0.51935 0.7879 0.35524 0.0
O74 O 0.51744 0.80723 0.34093 0.0
C75 C 0.57839 0.80175 0.32222 0.0
O76 O 0.57353 0.79517 0.34649 0.0
O77 O 0.51177 0.7822 0.28524 0.0
C78 C 0.72233 0.45417 0.6895 0.0
O79 O 0.7236 0.46753 0.66831 0.0
O80 O 0.79722 0.43504 0.6992 0.0
Zn81 Zn 0.7732 0.45983 0.68924 0.0
O82 O 0.77264 0.46405 0.64986 0.0
C83 C 0.78214 0.49597 0.72941 0.0
O84 O 0.77315 0.48056 0.74607 0.0
O85 O 0.74118 0.44934 0.7021 0.0
C86 C 0.7917 0.46888 0.63768 0.0
O87 O 0.81157 0.47043 0.65108 0.0
C88 C 0.80233 0.41764 0.68432 0.0
O89 O 0.79155 0.41545 0.66146 0.0
O90 O 0.78316 0.49084 0.70503 0.0
C91 C 0.44225 0.26196 0.32278 0.0
O92 O 0.43889 0.24772 0.34295 0.0
O93 O 0.44875 0.19926 0.30448 0.0
Zn94 Zn 0.4727 0.22463 0.3133 0.0
O95 O 0.48123 0.22348 0.35186 0.0
C96 C 0.50249 0.21197 0.26872 0.0
O97 O 0.48242 0.21149 0.2556 0.0
O98 O 0.45758 0.25625 0.30553 0.0
C99 C 0.48954 0.20504 0.36287 0.0
O100 O 0.49287 0.18582 0.34872 0.0
C101 C 0.43572 0.18889 0.32139 0.0
O102 O 0.43775 0.19438 0.34648 0.0
O103 O 0.50242 0.21833 0.29278 0.0
C104 C 0.77312 0.95251 0.80926 0.0
O105 O 0.77156 0.96845 0.82809 0.0
O106 O 0.69741 0.93608 0.79546 0.0
Zn107 Zn 0.72252 0.95888 0.80759 0.0
O108 O 0.7211 0.96203 0.84705 0.0
C109 C 0.71313 0.99483 0.76768 0.0
O110 O 0.71652 0.97745 0.75084 0.0
O111 O 0.75446 0.94634 0.79703 0.0
C112 C 0.70156 0.96637 0.85852 0.0
O113 O 0.68221 0.96839 0.84427 0.0
C114 C 0.69176 0.91799 0.80902 0.0
O115 O 0.70278 0.91387 0.83139 0.0
O116 O 0.71563 0.99092 0.79221 0.0
C117 C 0.94157 0.23193 0.17497 0.0
O118 O 0.94282 0.24343 0.15248 0.0
O119 O 0.94142 0.29814 0.19897 0.0
Zn120 Zn 0.96595 0.27333 0.19076 0.0
O121 O 0.97719 0.277 0.15321 0.0
C122 C 0.01469 0.27462 0.20714 0.0
O123 O 0.01789 0.26442 0.1841 0.0
O124 O 0.95096 0.24106 0.19539 0.0
C125 C 0.98409 0.29652 0.14337 0.0
O126 O 0.98411 0.31567 0.15812 0.0
C127 C 0.92756 0.30704 0.18186 0.0
O128 O 0.9288 0.29984 0.15725 0.0
O129 O 0.99371 0.2788 0.21495 0.0
C130 C 0.2183 0.04803 0.80417 0.0
O131 O 0.21813 0.0326 0.82359 0.0
O132 O 0.29399 0.0667 0.80261 0.0
Zn133 Zn 0.26876 0.0421 0.80895 0.0
O134 O 0.26493 0.03715 0.84822 0.0
C135 C 0.27591 0.00514 0.76844 0.0
O136 O 0.26365 0.01879 0.75248 0.0
O137 O 0.23798 0.054 0.79398 0.0
C138 C 0.27398 0.01931 0.85977 0.0
O139 O 0.28618 0.00391 0.84588 0.0
C140 C 0.31247 0.06738 0.81693 0.0
O141 O 0.31488 0.05189 0.8361 0.0
O142 O 0.27932 0.01163 0.79214 0.0
C143 C 0.06556 0.75578 0.18591 0.0
O144 O 0.07239 0.73961 0.16888 0.0
O145 O 0.05129 0.69612 0.19295 0.0
Zn146 Zn 0.02878 0.72341 0.18613 0.0
O147 O 0.02052 0.72501 0.14758 0.0
C148 C 0.99706 0.71534 0.23095 0.0
O149 O 0.01604 0.71827 0.24559 0.0
O150 O 0.04544 0.75351 0.19688 0.0
C151 C 0.00869 0.7082 0.13733 0.0
O152 O 0.00223 0.69027 0.15222 0.0
C153 C 0.06187 0.68469 0.17479 0.0
O154 O 0.05795 0.69019 0.15 0.0
O155 O -0.00138 0.71762 0.20607 0.0
C156 C 0.76628 0.04939 0.17191 0.0
O157 O 0.75514 0.04811 0.1492 0.0
O158 O 0.70005 0.04807 0.19626 0.0
Zn159 Zn 0.72512 0.02408 0.18697 0.0
O160 O 0.72157 0.01391 0.1491 0.0
C161 C 0.71662 0.99549 0.23397 0.0
O162 O 0.71657 0.0159 0.24644 0.0
O163 O 0.75708 0.03958 0.19206 0.0
C164 C 0.70214 0.00727 0.13886 0.0
O165 O 0.68293 0.00662 0.15348 0.0
C166 C 0.69127 0.06226 0.1794 0.0
O167 O 0.69847 0.06132 0.15477 0.0
O168 O 0.72075 0.99507 0.20933 0.0
C169 C 0.04547 0.22688 0.81207 0.0
O170 O 0.03174 0.22715 0.83301 0.0
O171 O 0.06223 0.30256 0.80262 0.0
Zn172 Zn 0.03841 0.27782 0.81322 0.0
O173 O 0.03504 0.27772 0.85274 0.0
C174 C 0.00131 0.28317 0.77358 0.0
O175 O 0.0165 0.27284 0.75764 0.0
O176 O 0.05002 0.24622 0.80029 0.0
C177 C 0.03089 0.29719 0.86447 0.0
O178 O 0.02907 0.31669 0.85043 0.0
C179 C 0.08033 0.30709 0.81667 0.0
O180 O 0.08367 0.29529 0.83872 0.0
O181 O 0.00691 0.28643 0.79759 0.0
C182 C 0.24603 0.92806 0.19332 0.0
O183 O 0.26331 0.92019 0.17831 0.0
O184 O 0.30465 0.94398 0.19822 0.0
Zn185 Zn 0.27713 0.9655 0.19035 0.0
O186 O 0.27551 0.9705 0.15118 0.0
C187 C 0.28881 0.99798 0.23228 0.0
O188 O 0.28889 0.97856 0.24658 0.0
O189 O 0.24726 0.94912 0.20212 0.0
C190 C 0.26349 0.98729 0.14122 0.0
O191 O 0.25182 0.00167 0.15694 0.0
C192 C 0.32409 0.94576 0.18573 0.0
O193 O 0.32638 0.96233 0.1677 0.0
O194 O 0.28305 0.99673 0.20809 0.0
C195 C 0.95303 0.77798 0.80679 0.0
O196 O 0.96931 0.77679 0.82527 0.0
O197 O 0.93631 0.70219 0.79565 0.0
Zn198 Zn 0.95993 0.7274 0.80554 0.0
O199 O 0.96502 0.72701 0.84478 0.0
C200 C 0.99492 0.72023 0.76369 0.0
O201 O 0.97788 0.72672 0.74758 0.0
O202 O 0.94693 0.75914 0.79484 0.0
C203 C 0.96892 0.70763 0.85678 0.0
O204 O 0.96941 0.68777 0.84326 0.0
C205 C 0.91899 0.69708 0.81063 0.0
O206 O 0.9163 0.70864 0.83294 0.0
O207 O 0.9911 0.71999 0.78839 0.0
C208 C 0.28819 0.40711 0.33646 0.0
C209 C 0.28326 0.4236 0.31645 0.0
C210 C 0.30699 0.39134 0.33392 0.0
C211 C 0.36316 0.37902 0.30089 0.0
H212 H 0.34724 0.31435 0.31988 0.0
C213 C 0.42771 0.29716 0.29676 0.0
C214 C 0.427 0.28307 0.31967 0.0
C215 C 0.4115 0.31577 0.2934 0.0
C216 C 0.35197 0.33233 0.31453 0.0
H217 H 0.2949 0.43722 0.27857 0.0
H218 H 0.32809 0.40935 0.27415 0.0
H219 H 0.31641 0.34441 0.31922 0.0
H220 H 0.40959 0.27824 0.35752 0.0
H221 H 0.38161 0.31037 0.3516 0.0
H222 H 0.399 0.36667 0.2967 0.0
C223 C 0.31722 0.40876 0.29175 0.0
C224 C 0.33434 0.34953 0.31418 0.0
C225 C 0.29824 0.42464 0.29427 0.0
C226 C 0.41048 0.28851 0.33949 0.0
C227 C 0.39436 0.30689 0.33609 0.0
C228 C 0.38094 0.36165 0.30121 0.0
C229 C 0.32136 0.39159 0.31131 0.0
C230 C 0.33985 0.37318 0.30818 0.0
C231 C 0.39432 0.32036 0.31281 0.0
C232 C 0.37555 0.33832 0.30885 0.0
H233 H 0.27723 0.40599 0.35396 0.0
H234 H 0.3101 0.37865 0.3496 0.0
H235 H 0.36783 0.39713 0.29613 0.0
H236 H 0.44031 0.29344 0.28119 0.0
H237 H 0.41184 0.32597 0.27529 0.0
C238 C 0.42239 0.69984 0.71631 0.0
C239 C 0.43651 0.70092 0.6935 0.0
C240 C 0.40862 0.67983 0.72155 0.0
C241 C 0.3968 0.61749 0.70095 0.0
H242 H 0.33208 0.63397 0.71872 0.0
C243 C 0.31605 0.55839 0.67747 0.0
C244 C 0.29633 0.55926 0.69438 0.0
C245 C 0.33592 0.57249 0.6824 0.0
C246 C 0.35015 0.62889 0.71432 0.0
H247 H 0.44841 0.68124 0.65919 0.0
H248 H 0.42402 0.64656 0.66802 0.0
H249 H 0.36224 0.6645 0.71855 0.0
H250 H 0.28277 0.57416 0.73085 0.0
H251 H 0.31754 0.59845 0.73964 0.0
H252 H 0.3843 0.58191 0.69581 0.0
C253 C 0.42376 0.66103 0.68205 0.0
C254 C 0.36751 0.64646 0.71423 0.0
C255 C 0.43766 0.681 0.67689 0.0
C256 C 0.29753 0.57333 0.71723 0.0
C257 C 0.31743 0.58732 0.72222 0.0
C258 C 0.37937 0.59986 0.70103 0.0
C259 C 0.40853 0.66051 0.70402 0.0
C260 C 0.39096 0.64109 0.70709 0.0
C261 C 0.33652 0.58767 0.70441 0.0
C262 C 0.35575 0.60547 0.70727 0.0
H263 H 0.42135 0.71477 0.72969 0.0
H264 H 0.39746 0.6798 0.73894 0.0
H265 H 0.41477 0.61272 0.69569 0.0
H266 H 0.31572 0.54769 0.65973 0.0
H267 H 0.35024 0.57244 0.66817 0.0
C268 C 0.5722 0.69576 0.27861 0.0
C269 C 0.55774 0.69711 0.30114 0.0
C270 C 0.58629 0.67584 0.27409 0.0
C271 C 0.59807 0.61389 0.29587 0.0
H272 H 0.66291 0.6301 0.27832 0.0
C273 C 0.67842 0.55421 0.31947 0.0
C274 C 0.69808 0.55482 0.30246 0.0
C275 C 0.65873 0.5686 0.31467 0.0
C276 C 0.64481 0.6251 0.28268 0.0
H277 H 0.54569 0.67798 0.33577 0.0
H278 H 0.5706 0.64343 0.32816 0.0
H279 H 0.63279 0.6607 0.27807 0.0
H280 H 0.71174 0.56966 0.266 0.0
H281 H 0.67727 0.59445 0.25744 0.0
H282 H 0.61046 0.57831 0.30132 0.0
C283 C 0.57088 0.65764 0.3138 0.0
C284 C 0.62748 0.6427 0.28254 0.0
C285 C 0.55668 0.67754 0.31826 0.0
C286 C 0.69701 0.569 0.27968 0.0
C287 C 0.6773 0.58329 0.27483 0.0
C288 C 0.61546 0.59621 0.29603 0.0
C289 C 0.58634 0.65685 0.29206 0.0
C290 C 0.60398 0.63742 0.28953 0.0
C291 C 0.65825 0.58381 0.2927 0.0
C292 C 0.63912 0.60172 0.28984 0.0
H293 H 0.57321 0.71042 0.26485 0.0
H294 H 0.59765 0.67558 0.25686 0.0
H295 H 0.58006 0.60918 0.30104 0.0
H296 H 0.67865 0.54344 0.33717 0.0
H297 H 0.64445 0.56869 0.32894 0.0
C298 C 0.55702 0.32112 0.68097 0.0
C299 C 0.55753 0.3019 0.69859 0.0
C300 C 0.57147 0.34089 0.68518 0.0
C301 C 0.62786 0.35558 0.71696 0.0
H302 H 0.61194 0.41993 0.69686 0.0
C303 C 0.69844 0.42826 0.71949 0.0
C304 C 0.69989 0.44221 0.69657 0.0
C305 C 0.67847 0.41432 0.72433 0.0
C306 C 0.61664 0.40204 0.70252 0.0
H307 H 0.5723 0.28909 0.73547 0.0
H308 H 0.59719 0.32369 0.74299 0.0
H309 H 0.58113 0.38948 0.69719 0.0
H310 H 0.6809 0.45355 0.66155 0.0
H311 H 0.64628 0.42889 0.66972 0.0
H312 H 0.66341 0.36774 0.72146 0.0
C313 C 0.58606 0.32326 0.72559 0.0
C314 C 0.59901 0.38461 0.70271 0.0
C315 C 0.57171 0.30347 0.72132 0.0
C316 C 0.68037 0.44296 0.67937 0.0
C317 C 0.66044 0.42891 0.68413 0.0
C318 C 0.64543 0.37294 0.71676 0.0
C319 C 0.58664 0.34188 0.70716 0.0
C320 C 0.60452 0.36109 0.70954 0.0
C321 C 0.65956 0.4139 0.70628 0.0
C322 C 0.64015 0.39629 0.70915 0.0
H323 H 0.54626 0.3205 0.66329 0.0
H324 H 0.5716 0.35483 0.67048 0.0
H325 H 0.63286 0.33757 0.72182 0.0
H326 H 0.71305 0.42751 0.73332 0.0
H327 H 0.67814 0.40334 0.74185 0.0
C328 C 0.79689 0.92164 0.7856 0.0
C329 C 0.79569 0.93986 0.80446 0.0
C330 C 0.81736 0.90792 0.78304 0.0
C331 C 0.86815 0.88797 0.82227 0.0
H332 H 0.88987 0.86244 0.75545 0.0
C333 C 0.94434 0.8204 0.81781 0.0
C334 C 0.93981 0.80027 0.80227 0.0
C335 C 0.92997 0.84049 0.81574 0.0
C336 C 0.88397 0.86939 0.77426 0.0
H337 H 0.8155 0.95875 0.83453 0.0
H338 H 0.8513 0.93492 0.8299 0.0
H339 H 0.85876 0.89251 0.75598 0.0
H340 H 0.91734 0.7859 0.77143 0.0
H341 H 0.8922 0.82079 0.76799 0.0
H342 H 0.89282 0.86445 0.84063 0.0
C343 C 0.83626 0.93101 0.81737 0.0
C344 C 0.86616 0.88661 0.77457 0.0
C345 C 0.81578 0.94474 0.81992 0.0
C346 C 0.9213 0.80108 0.78374 0.0
C347 C 0.90696 0.82117 0.78165 0.0
C348 C 0.88594 0.87079 0.82197 0.0
C349 C 0.83711 0.91213 0.79928 0.0
C350 C 0.85775 0.89578 0.79861 0.0
C351 C 0.91079 0.8409 0.79804 0.0
C352 C 0.89377 0.86098 0.798 0.0
H353 H 0.78175 0.91742 0.77334 0.0
H354 H 0.81731 0.89337 0.76911 0.0
H355 H 0.86184 0.89437 0.84116 0.0
H356 H 0.95854 0.82042 0.83218 0.0
H357 H 0.9336 0.85554 0.82836 0.0
C358 C 0.79716 0.07059 0.19879 0.0
C359 C 0.78797 0.06393 0.17408 0.0
C360 C 0.81603 0.08665 0.2004 0.0
C361 C 0.84213 0.13495 0.16166 0.0
H362 H 0.8951 0.13078 0.21017 0.0
C363 C 0.9196 0.19904 0.15319 0.0
C364 C 0.92769 0.20976 0.17652 0.0
C365 C 0.90443 0.17959 0.1542 0.0
C366 C 0.88029 0.13224 0.19669 0.0
H367 H 0.79234 0.06764 0.13172 0.0
H368 H 0.82524 0.09523 0.13454 0.0
H369 H 0.86507 0.09935 0.20964 0.0
H370 H 0.92713 0.20777 0.21927 0.0
H371 H 0.90024 0.17374 0.22103 0.0
H372 H 0.85697 0.16773 0.14876 0.0
C373 C 0.81757 0.08856 0.15268 0.0
C374 C 0.86313 0.11428 0.19639 0.0
C375 C 0.79876 0.07266 0.15108 0.0
C376 C 0.92114 0.19991 0.20095 0.0
C377 C 0.90582 0.18039 0.20196 0.0
C378 C 0.85915 0.15279 0.16197 0.0
C379 C 0.82599 0.09627 0.17732 0.0
C380 C 0.84405 0.11534 0.17859 0.0
C381 C 0.89685 0.17043 0.17856 0.0
C382 C 0.87859 0.15152 0.17921 0.0
H383 H 0.78922 0.06413 0.21687 0.0
H384 H 0.82213 0.0923 0.21966 0.0
H385 H 0.8273 0.13664 0.14823 0.0
H386 H 0.92456 0.20597 0.13403 0.0
H387 H 0.89828 0.17196 0.13581 0.0
C388 C 0.07265 0.20478 0.78177 0.0
C389 C 0.05786 0.20489 0.8041 0.0
C390 C 0.08669 0.18507 0.77604 0.0
C391 C 0.09738 0.12179 0.7926 0.0
H392 H 0.16284 0.13835 0.7787 0.0
C393 C 0.17604 0.05907 0.81277 0.0
C394 C 0.19645 0.06102 0.79703 0.0
C395 C 0.15668 0.07403 0.80855 0.0
C396 C 0.14458 0.13328 0.78197 0.0
H397 H 0.04519 0.18386 0.83704 0.0
H398 H 0.06995 0.14958 0.82724 0.0
H399 H 0.1331 0.16929 0.78043 0.0
H400 H 0.2118 0.07885 0.76318 0.0
H401 H 0.17785 0.10459 0.75548 0.0
H402 H 0.10913 0.08574 0.79482 0.0
C403 C 0.07055 0.16465 0.81403 0.0
C404 C 0.12748 0.15109 0.783 0.0
C405 C 0.05645 0.18437 0.81974 0.0
C406 C 0.19646 0.07712 0.77588 0.0
C407 C 0.17705 0.09196 0.77155 0.0
C408 C 0.11453 0.10391 0.79149 0.0
C409 C 0.0863 0.16504 0.79252 0.0
C410 C 0.10375 0.14563 0.78875 0.0
C411 C 0.15725 0.09115 0.78838 0.0
C412 C 0.13841 0.10951 0.7866 0.0
H413 H 0.07396 0.2202 0.76912 0.0
H414 H 0.09832 0.18575 0.75905 0.0
H415 H 0.07919 0.117 0.79677 0.0
H416 H 0.17543 0.04681 0.8292 0.0
H417 H 0.14183 0.07301 0.82202 0.0
C418 C 0.22717 0.88823 0.19315 0.0
C419 C 0.22582 0.91239 0.19959 0.0
C420 C 0.20821 0.87314 0.19821 0.0
C421 C 0.14414 0.87177 0.20518 0.0
H422 H 0.15701 0.80752 0.22832 0.0
C423 C 0.07385 0.79548 0.20671 0.0
C424 C 0.08176 0.77539 0.19283 0.0
C425 C 0.08966 0.81383 0.2129 0.0
C426 C 0.1531 0.82546 0.22203 0.0
H427 H 0.20351 0.93969 0.2166 0.0
H428 H 0.16996 0.91309 0.22526 0.0
H429 H 0.18833 0.8372 0.23021 0.0
H430 H 0.1124 0.75868 0.17483 0.0
H431 H 0.13975 0.79033 0.18584 0.0
H432 H 0.10905 0.85959 0.19611 0.0
C433 C 0.18587 0.90597 0.21633 0.0
C434 C 0.17101 0.84242 0.22307 0.0
C435 C 0.20506 0.92113 0.21145 0.0
C436 C 0.10569 0.77391 0.1855 0.0
C437 C 0.12144 0.79196 0.19198 0.0
C438 C 0.12612 0.85474 0.20423 0.0
C439 C 0.18732 0.8818 0.20976 0.0
C440 C 0.16702 0.86548 0.21363 0.0
C441 C 0.11364 0.81208 0.20574 0.0
C442 C 0.13078 0.83121 0.21167 0.0
H443 H 0.24289 0.88089 0.18401 0.0
H444 H 0.20973 0.85472 0.19246 0.0
H445 H 0.14058 0.88941 0.19773 0.0
H446 H 0.05547 0.7971 0.21257 0.0
H447 H 0.08323 0.82923 0.22347 0.0
C448 C 0.1949 0.51769 0.22292 0.0
C449 C 0.20205 0.51816 0.24947 0.0
C450 C 0.18276 0.53693 0.21195 0.0
C451 C 0.16605 0.60003 0.2243 0.0
H452 H 0.11181 0.58422 0.18077 0.0
C453 C 0.08761 0.66366 0.20751 0.0
C454 C 0.07922 0.66603 0.18153 0.0
C455 C 0.10446 0.64641 0.21371 0.0
C456 C 0.12705 0.58892 0.19264 0.0
H457 H 0.2029 0.5396 0.28504 0.0
H458 H 0.18136 0.5727 0.26623 0.0
H459 H 0.13882 0.55299 0.19479 0.0
H460 H 0.08177 0.65205 0.14173 0.0
H461 H 0.11095 0.62164 0.15274 0.0
H462 H 0.15359 0.63587 0.22293 0.0
C463 C 0.18542 0.55775 0.25362 0.0
C464 C 0.14263 0.57106 0.20058 0.0
C465 C 0.19769 0.53864 0.26449 0.0
C466 C 0.08789 0.65067 0.16193 0.0
C467 C 0.10453 0.63322 0.16821 0.0
C468 C 0.15032 0.61783 0.21659 0.0
C469 C 0.17738 0.55698 0.22736 0.0
C470 C 0.16216 0.57633 0.21683 0.0
C471 C 0.11305 0.631 0.19414 0.0
C472 C 0.13051 0.6124 0.20096 0.0
H473 H 0.19814 0.50224 0.21077 0.0
H474 H 0.17725 0.53591 0.19151 0.0
H475 H 0.18114 0.60483 0.23635 0.0
H476 H 0.08132 0.67525 0.22304 0.0
H477 H 0.11053 0.64489 0.23392 0.0
C478 C 0.52124 0.79062 0.75731 0.0
C479 C 0.51355 0.79288 0.73104 0.0
C480 C 0.54144 0.80268 0.76604 0.0
C481 C 0.57635 0.85562 0.75117 0.0
H482 H 0.62529 0.82646 0.7939 0.0
C483 C 0.66287 0.90471 0.77464 0.0
C484 C 0.67239 0.90227 0.8001 0.0
C485 C 0.6441 0.8904 0.76643 0.0
C486 C 0.61163 0.83495 0.78226 0.0
H487 H 0.52148 0.80901 0.69313 0.0
H488 H 0.55651 0.83002 0.70839 0.0
H489 H 0.59133 0.80291 0.77948 0.0
H490 H 0.6698 0.88278 0.83689 0.0
H491 H 0.63665 0.85816 0.82278 0.0
H492 H 0.59617 0.88772 0.75423 0.0
C493 C 0.54683 0.8191 0.72229 0.0
C494 C 0.59223 0.82144 0.77397 0.0
C495 C 0.52682 0.80694 0.71353 0.0
C496 C 0.66291 0.88503 0.81709 0.0
C497 C 0.64398 0.87082 0.80895 0.0
C498 C 0.59558 0.86916 0.75962 0.0
C499 C 0.55416 0.81738 0.74869 0.0
C500 C 0.57452 0.83161 0.75815 0.0
C501 C 0.63423 0.87346 0.78357 0.0
C502 C 0.61358 0.85897 0.77508 0.0
H503 H 0.51143 0.77988 0.77127 0.0
H504 H 0.54667 0.80112 0.78653 0.0
H505 H 0.56273 0.86405 0.7394 0.0
H506 H 0.66991 0.9177 0.76099 0.0
H507 H 0.63738 0.8926 0.74656 0.0
C508 C 0.89925 0.33972 0.17042 0.0
C509 C 0.91078 0.32593 0.18961 0.0
C510 C 0.88428 0.3583 0.17791 0.0
C511 C 0.87178 0.39756 0.23489 0.0
H512 H 0.81436 0.41255 0.19631 0.0
C513 C 0.80406 0.46422 0.27457 0.0
C514 C 0.79648 0.4819 0.25695 0.0
C515 C 0.81662 0.44458 0.26546 0.0
C516 C 0.83044 0.40862 0.20713 0.0
H517 H 0.91501 0.32025 0.23168 0.0
H518 H 0.8885 0.35209 0.24474 0.0
H519 H 0.83892 0.37913 0.18225 0.0
H520 H 0.79531 0.49229 0.21574 0.0
H521 H 0.81721 0.4577 0.19978 0.0
H522 H 0.86315 0.4268 0.25996 0.0
C523 C 0.89149 0.34909 0.22389 0.0
C524 C 0.84454 0.38954 0.19907 0.0
C525 C 0.90659 0.33071 0.21641 0.0
C526 C 0.80096 0.47902 0.22983 0.0
C527 C 0.81341 0.4592 0.22067 0.0
C528 C 0.8576 0.41642 0.24305 0.0
C529 C 0.88039 0.36335 0.20476 0.0
C530 C 0.86534 0.38372 0.21295 0.0
C531 C 0.82177 0.44205 0.23849 0.0
C532 C 0.83674 0.42209 0.22936 0.0
H533 H 0.90218 0.33651 0.14959 0.0
H534 H 0.87624 0.36906 0.16265 0.0
H535 H 0.88796 0.39402 0.24567 0.0
H536 H 0.80083 0.46579 0.29558 0.0
H537 H 0.82255 0.43144 0.27959 0.0
C538 C 0.4878 0.19 0.77337 0.0
C539 C 0.48651 0.20144 0.74878 0.0
C540 C 0.46817 0.17796 0.7835 0.0
C541 C 0.40324 0.17061 0.77663 0.0
H542 H 0.41575 0.10738 0.80316 0.0
C543 C 0.32985 0.10026 0.78984 0.0
C544 C 0.33137 0.08491 0.81163 0.0
C545 C 0.34816 0.11616 0.7843 0.0
C546 C 0.41193 0.12513 0.79623 0.0
H547 H 0.46325 0.21009 0.71606 0.0
H548 H 0.42908 0.18899 0.73367 0.0
H549 H 0.44865 0.13269 0.79026 0.0
H550 H 0.35306 0.07469 0.8451 0.0
H551 H 0.38484 0.10261 0.83563 0.0
H552 H 0.36645 0.16289 0.78232 0.0
C553 C 0.44522 0.18943 0.74521 0.0
C554 C 0.43082 0.13965 0.78884 0.0
C555 C 0.46487 0.20142 0.73505 0.0
C556 C 0.35139 0.08615 0.82805 0.0
C557 C 0.36967 0.10208 0.82255 0.0
C558 C 0.38432 0.15609 0.78409 0.0
C559 C 0.4468 0.17717 0.76929 0.0
C560 C 0.42669 0.16247 0.77873 0.0
C561 C 0.36839 0.11711 0.80046 0.0
C562 C 0.38844 0.13309 0.79376 0.0
H563 H 0.50416 0.18978 0.78453 0.0
H564 H 0.46983 0.16899 0.80231 0.0
H565 H 0.3995 0.18821 0.76921 0.0
H566 H 0.31467 0.09974 0.77677 0.0
H567 H 0.34673 0.12727 0.76695 0.0
C568 C 0.21052 0.47536 0.76315 0.0
C569 C 0.20655 0.48271 0.73701 0.0
C570 C 0.19985 0.45472 0.77282 0.0
C571 C 0.16948 0.39965 0.75084 0.0
H572 H 0.14072 0.40155 0.82033 0.0
C573 C 0.09587 0.33548 0.78297 0.0
C574 C 0.09724 0.32567 0.8084 0.0
C575 C 0.11163 0.35321 0.77517 0.0
C576 C 0.14894 0.40064 0.80104 0.0
H577 H 0.1885 0.47395 0.70045 0.0
H578 H 0.1697 0.43843 0.71736 0.0
H579 H 0.1643 0.43512 0.80507 0.0
H580 H 0.1162 0.32675 0.84564 0.0
H581 H 0.14361 0.358 0.83202 0.0
H582 H 0.15343 0.36549 0.74652 0.0
C583 C 0.18135 0.44828 0.73032 0.0
C584 C 0.1625 0.41984 0.7923 0.0
C585 C 0.19202 0.4688 0.72067 0.0
C586 C 0.11472 0.33394 0.82588 0.0
C587 C 0.13034 0.35189 0.81816 0.0
C588 C 0.1558 0.38057 0.7595 0.0
C589 C 0.18501 0.44102 0.75655 0.0
C590 C 0.17257 0.41974 0.7669 0.0
C591 C 0.12895 0.36167 0.79271 0.0
C592 C 0.14507 0.38104 0.78449 0.0
H593 H 0.22169 0.48565 0.77622 0.0
H594 H 0.20324 0.44949 0.79304 0.0
H595 H 0.17741 0.39876 0.73141 0.0
H596 H 0.08262 0.32949 0.76903 0.0
H597 H 0.10995 0.36064 0.75554 0.0
C598 C 0.34103 0.91111 0.21016 0.0
C599 C 0.3437 0.92906 0.19116 0.0
C600 C 0.35946 0.89525 0.21523 0.0
C601 C 0.42411 0.88878 0.20935 0.0
H602 H 0.41068 0.82237 0.22221 0.0
C603 C 0.49874 0.82164 0.22997 0.0
C604 C 0.49493 0.80638 0.25148 0.0
C605 C 0.48013 0.8351 0.21967 0.0
C606 C 0.4147 0.84089 0.2188 0.0
H607 H 0.36781 0.94434 0.16248 0.0
H608 H 0.39995 0.91655 0.17128 0.0
H609 H 0.37853 0.84913 0.21006 0.0
H610 H 0.46837 0.79261 0.27838 0.0
H611 H 0.43601 0.81618 0.26056 0.0
H612 H 0.46019 0.88065 0.21848 0.0
C613 C 0.38366 0.9149 0.18242 0.0
C614 C 0.39629 0.85622 0.21187 0.0
C615 C 0.3652 0.93077 0.17732 0.0
C616 C 0.47192 0.8042 0.2618 0.0
C617 C 0.45332 0.81763 0.25149 0.0
C618 C 0.44252 0.87345 0.21627 0.0
C619 C 0.381 0.89697 0.20145 0.0
C620 C 0.40074 0.8804 0.20737 0.0
C621 C 0.4573 0.83356 0.23062 0.0
C622 C 0.43799 0.84938 0.22136 0.0
H623 H 0.3247 0.90931 0.22121 0.0
H624 H 0.35696 0.88186 0.2303 0.0
H625 H 0.4281 0.90736 0.20635 0.0
H626 H 0.51623 0.82366 0.22147 0.0
H627 H 0.48368 0.84695 0.20332 0.0
C628 C 0.80476 0.53332 0.72125 0.0
C629 C 0.79258 0.51847 0.73891 0.0
C630 C 0.81585 0.55389 0.73018 0.0
C631 C 0.84017 0.58129 0.79054 0.0
H632 H 0.84334 0.637 0.74583 0.0
C633 C 0.88655 0.66855 0.822 0.0
C634 C 0.90239 0.67792 0.80329 0.0
C635 C 0.87128 0.65003 0.81519 0.0
C636 C 0.84264 0.62154 0.75848 0.0
H637 H 0.782 0.51393 0.77974 0.0
H638 H 0.80101 0.55022 0.79531 0.0
H639 H 0.81916 0.60332 0.73236 0.0
H640 H 0.91441 0.67545 0.76271 0.0
H641 H 0.88756 0.64332 0.75079 0.0
H642 H 0.86369 0.59971 0.81667 0.0
C643 C 0.80234 0.54567 0.77459 0.0
C644 C 0.82886 0.60221 0.75076 0.0
C645 C 0.79132 0.52495 0.76566 0.0
C646 C 0.90243 0.66861 0.77757 0.0
C647 C 0.88697 0.65031 0.77069 0.0
C648 C 0.8538 0.60075 0.79838 0.0
C649 C 0.81492 0.56028 0.75698 0.0
C650 C 0.8278 0.58166 0.76644 0.0
C651 C 0.87133 0.64076 0.78946 0.0
C652 C 0.85549 0.62088 0.78219 0.0
H653 H 0.80619 0.52882 0.70053 0.0
H654 H 0.82572 0.56443 0.71611 0.0
H655 H 0.84004 0.56567 0.80295 0.0
H656 H 0.88614 0.67532 0.842 0.0
H657 H 0.85931 0.64306 0.82998 0.0
C658 C 0.66998 0.0852 0.21428 0.0
C659 C 0.67308 0.07961 0.1875 0.0
C660 C 0.65268 0.10143 0.22207 0.0
C661 C 0.61234 0.1485 0.19649 0.0
H662 H 0.57942 0.13632 0.26227 0.0
C663 C 0.52483 0.19421 0.23069 0.0
C664 C 0.52423 0.20156 0.25721 0.0
C665 C 0.54428 0.18154 0.22096 0.0
C666 C 0.58861 0.14005 0.24397 0.0
H667 H 0.66049 0.08662 0.14784 0.0
H668 H 0.62964 0.11426 0.16147 0.0
H669 H 0.6102 0.10923 0.24769 0.0
H670 H 0.5441 0.20241 0.29391 0.0
H671 H 0.57774 0.1801 0.27696 0.0
H672 H 0.58983 0.17898 0.19257 0.0
C673 C 0.64099 0.10664 0.17646 0.0
C674 C 0.60636 0.12459 0.23562 0.0
C675 C 0.65858 0.09066 0.16863 0.0
C676 C 0.54391 0.19694 0.27342 0.0
C677 C 0.56315 0.18407 0.26378 0.0
C678 C 0.59427 0.16381 0.20469 0.0
C679 C 0.63774 0.11217 0.20331 0.0
C680 C 0.61862 0.12867 0.21187 0.0
C681 C 0.56328 0.17579 0.23767 0.0
C682 C 0.5824 0.1598 0.22862 0.0
H683 H 0.68107 0.07718 0.22926 0.0
H684 H 0.65113 0.10562 0.24285 0.0
H685 H 0.62157 0.15241 0.17827 0.0
H686 H 0.50998 0.19757 0.21769 0.0
H687 H 0.54397 0.1753 0.20074 0.0
C688 C 0.70031 0.02264 0.73168 0.0
C689 C 0.70375 0.01797 0.75867 0.0
C690 C 0.68921 0.04358 0.72354 0.0
C691 C 0.64595 0.08648 0.74722 0.0
H692 H 0.66737 0.12618 0.68951 0.0
C693 C 0.59763 0.173 0.72212 0.0
C694 C 0.59482 0.17884 0.69536 0.0
C695 C 0.61266 0.15457 0.72965 0.0
C696 C 0.66099 0.11513 0.70546 0.0
H697 H 0.69914 0.03212 0.79821 0.0
H698 H 0.6797 0.06843 0.78397 0.0
H699 H 0.69084 0.09171 0.70262 0.0
H700 H 0.60578 0.17014 0.65551 0.0
H701 H 0.63144 0.13742 0.66856 0.0
H702 H 0.6158 0.10914 0.74973 0.0
C703 C 0.68542 0.05583 0.76915 0.0
C704 C 0.67449 0.09545 0.713 0.0
C705 C 0.69667 0.03506 0.77726 0.0
C706 C 0.60766 0.16611 0.67631 0.0
C707 C 0.62248 0.14743 0.68382 0.0
C708 C 0.63234 0.10591 0.73953 0.0
C709 C 0.68117 0.0601 0.74226 0.0
C710 C 0.66714 0.08104 0.73406 0.0
C711 C 0.62498 0.14126 0.7106 0.0
C712 C 0.63971 0.12059 0.71865 0.0
H713 H 0.70562 0.00986 0.71686 0.0
H714 H 0.68607 0.0464 0.70268 0.0
H715 H 0.63963 0.0754 0.7632 0.0
H716 H 0.58817 0.18267 0.7373 0.0
H717 H 0.61456 0.15074 0.75049 0.0
C718 C 0.17447 0.40392 0.27972 0.0
C719 C 0.17156 0.41351 0.30509 0.0
C720 C 0.15916 0.38636 0.27048 0.0
C721 C 0.11334 0.34295 0.29232 0.0
H722 H 0.09529 0.34554 0.21853 0.0
C723 C 0.03191 0.29536 0.24647 0.0
C724 C 0.03506 0.28488 0.22153 0.0
C725 C 0.05029 0.30816 0.25826 0.0
C726 C 0.1004 0.3444 0.2391 0.0
H727 H 0.15037 0.41219 0.34074 0.0
H728 H 0.12306 0.38216 0.32429 0.0
H729 H 0.12342 0.37421 0.23575 0.0
H730 H 0.06039 0.27852 0.19009 0.0
H731 H 0.09233 0.30105 0.21059 0.0
H732 H 0.08936 0.31359 0.29563 0.0
C733 C 0.13755 0.38771 0.31173 0.0
C734 C 0.1166 0.36081 0.24901 0.0
C735 C 0.1531 0.40507 0.32111 0.0
C736 C 0.05734 0.28643 0.20927 0.0
C737 C 0.0756 0.29943 0.22091 0.0
C738 C 0.09685 0.3267 0.28244 0.0
C739 C 0.14032 0.3782 0.28623 0.0
C740 C 0.12331 0.36033 0.27575 0.0
C741 C 0.07206 0.3109 0.24519 0.0
C742 C 0.09026 0.32728 0.25572 0.0
H743 H 0.18871 0.40985 0.26701 0.0
H744 H 0.16222 0.37912 0.25099 0.0
H745 H 0.11834 0.34179 0.31291 0.0
H746 H 0.01498 0.29442 0.25648 0.0
H747 H 0.04707 0.3169 0.27696 0.0
C748 C 0.30203 0.97 0.77558 0.0
C749 C 0.28726 0.98316 0.75872 0.0
C750 C 0.31412 0.95015 0.76626 0.0
C751 C 0.31529 0.90482 0.71439 0.0
H752 H 0.38181 0.90072 0.73295 0.0
C753 C 0.37838 0.8331 0.67168 0.0
C754 C 0.39554 0.82375 0.68887 0.0
C755 C 0.36423 0.85222 0.67951 0.0
C756 C 0.36319 0.90138 0.72786 0.0
H757 H 0.27302 0.98529 0.71902 0.0
H758 H 0.29421 0.95035 0.70273 0.0
H759 H 0.35855 0.93443 0.74783 0.0
H760 H 0.41076 0.82658 0.72806 0.0
H761 H 0.38584 0.85942 0.74188 0.0
H762 H 0.31991 0.87153 0.69469 0.0
C763 C 0.29635 0.95553 0.72318 0.0
C764 C 0.34988 0.92075 0.73634 0.0
C765 C 0.2843 0.97556 0.73248 0.0
C766 C 0.39787 0.83352 0.71423 0.0
C767 C 0.38366 0.85247 0.72211 0.0
C768 C 0.32861 0.88528 0.70602 0.0
C769 C 0.31168 0.94288 0.7399 0.0
C770 C 0.32576 0.92259 0.72991 0.0
C771 C 0.36689 0.86228 0.70474 0.0
C772 C 0.35268 0.88324 0.71288 0.0
H773 H 0.30463 0.97523 0.79594 0.0
H774 H 0.32551 0.94052 0.77971 0.0
H775 H 0.29669 0.90573 0.70928 0.0
H776 H 0.37618 0.826 0.65197 0.0
H777 H 0.35164 0.85946 0.66556 0.0
C778 C 0.82544 0.5991 0.28548 0.0
C779 C 0.81945 0.59483 0.31197 0.0
C780 C 0.84284 0.61571 0.27906 0.0
C781 C 0.89631 0.64304 0.30458 0.0
H782 H 0.887 0.68829 0.24792 0.0
C783 C 0.97214 0.70435 0.27019 0.0
C784 C 0.97463 0.7068 0.24272 0.0
C785 C 0.95166 0.69421 0.28091 0.0
C786 C 0.88998 0.67565 0.26366 0.0
H787 H 0.82695 0.60466 0.35252 0.0
H788 H 0.85778 0.6334 0.34122 0.0
H789 H 0.85412 0.66331 0.2621 0.0
H790 H 0.95724 0.70112 0.20503 0.0
H791 H 0.92208 0.68299 0.22353 0.0
H792 H 0.93241 0.65443 0.3054 0.0
C793 C 0.84883 0.62397 0.32549 0.0
C794 C 0.8711 0.66143 0.27182 0.0
C795 C 0.83115 0.6076 0.33192 0.0
C796 C 0.95591 0.69959 0.2263 0.0
C797 C 0.93559 0.6893 0.23696 0.0
C798 C 0.9153 0.65705 0.2962 0.0
C799 C 0.85485 0.62815 0.299 0.0
C800 C 0.8742 0.64473 0.29205 0.0
C801 C 0.9333 0.68616 0.26438 0.0
C802 C 0.9125 0.67323 0.27529 0.0
H803 H 0.8167 0.58959 0.26966 0.0
H804 H 0.84732 0.61842 0.25848 0.0
H805 H 0.89921 0.63016 0.32009 0.0
H806 H 0.98619 0.70987 0.28339 0.0
H807 H 0.95035 0.69244 0.30214 0.0
C808 C 0.7054 0.95266 0.23295 0.0
C809 C 0.70901 0.97353 0.24753 0.0
C810 C 0.69562 0.93263 0.24486 0.0
C811 C 0.65761 0.91604 0.30102 0.0
H812 H 0.67167 0.85245 0.27658 0.0
C813 C 0.60639 0.83336 0.33757 0.0
C814 C 0.59721 0.81936 0.31702 0.0
C815 C 0.62323 0.85091 0.33227 0.0
C816 C 0.66762 0.87011 0.28363 0.0
H817 H 0.7064 0.9893 0.28646 0.0
H818 H 0.68981 0.95407 0.30746 0.0
H819 H 0.69654 0.88544 0.26239 0.0
H820 H 0.59903 0.81224 0.27498 0.0
H821 H 0.6286 0.84264 0.26585 0.0
H822 H 0.62856 0.90059 0.3221 0.0
C823 C 0.69402 0.9534 0.28662 0.0
C824 C 0.68178 0.88903 0.27545 0.0
C825 C 0.70367 0.97355 0.27463 0.0
C826 C 0.6057 0.82279 0.29123 0.0
C827 C 0.62275 0.84008 0.28602 0.0
C828 C 0.64362 0.89706 0.30944 0.0
C829 C 0.68939 0.93285 0.27173 0.0
C830 C 0.67655 0.91234 0.28344 0.0
C831 C 0.63147 0.8545 0.30642 0.0
C832 C 0.64812 0.87402 0.30027 0.0
H833 H 0.70928 0.952 0.21203 0.0
H834 H 0.69202 0.91732 0.23262 0.0
H835 H 0.65282 0.93374 0.30732 0.0
H836 H 0.60018 0.83115 0.35765 0.0
H837 H 0.62974 0.86175 0.34836 0.0
C838 C 0.82977 0.38386 0.67438 0.0
C839 C 0.82061 0.40036 0.69249 0.0
C840 C 0.84763 0.36809 0.68198 0.0
C841 C 0.87507 0.34038 0.74024 0.0
H842 H 0.9312 0.33573 0.69644 0.0
C843 C 0.96347 0.30538 0.78024 0.0
C844 C 0.97853 0.29247 0.76348 0.0
C845 C 0.94269 0.31553 0.77056 0.0
C846 C 0.91549 0.33643 0.70868 0.0
H847 H 0.82266 0.41296 0.73289 0.0
H848 H 0.85365 0.38537 0.74614 0.0
H849 H 0.89742 0.35897 0.68126 0.0
H850 H 0.98318 0.27949 0.72351 0.0
H851 H 0.9466 0.29695 0.70665 0.0
H852 H 0.89307 0.31801 0.76776 0.0
C853 C 0.847 0.38459 0.7261 0.0
C854 C 0.89617 0.3498 0.69999 0.0
C855 C 0.82936 0.40049 0.71845 0.0
C856 C 0.97201 0.28943 0.73692 0.0
C857 C 0.95112 0.29954 0.72722 0.0
C858 C 0.8943 0.32688 0.74885 0.0
C859 C 0.85644 0.36833 0.70792 0.0
C860 C 0.87596 0.3523 0.71593 0.0
C861 C 0.93634 0.31294 0.74388 0.0
C862 C 0.91495 0.32515 0.73344 0.0
H863 H 0.82341 0.38332 0.65422 0.0
H864 H 0.85451 0.35565 0.66761 0.0
H865 H 0.85955 0.34169 0.75274 0.0
H866 H 0.96796 0.30813 0.8008 0.0
H867 H 0.93198 0.32604 0.78387 0.0
C868 C 0.41237 0.16863 0.28602 0.0
C869 C 0.41839 0.17083 0.3128 0.0
C870 C 0.39615 0.15147 0.27782 0.0
C871 C 0.34969 0.11015 0.30258 0.0
H872 H 0.36201 0.07813 0.23627 0.0
C873 C 0.30558 0.02192 0.26958 0.0
C874 C 0.29871 0.02029 0.24297 0.0
C875 C 0.31771 0.0419 0.27877 0.0
C876 C 0.35818 0.08711 0.25469 0.0
H877 H 0.4121 0.1568 0.35202 0.0
H878 H 0.3844 0.12632 0.33763 0.0
H879 H 0.38854 0.10937 0.25098 0.0
H880 H 0.29814 0.03889 0.20545 0.0
H881 H 0.31942 0.07358 0.22149 0.0
H882 H 0.31968 0.08708 0.3065 0.0
C883 C 0.39172 0.13822 0.32299 0.0
C884 C 0.37335 0.10509 0.26312 0.0
C885 C 0.40775 0.1556 0.33124 0.0
C886 C 0.30327 0.0395 0.22604 0.0
C887 C 0.31556 0.05934 0.23516 0.0
C888 C 0.33464 0.09193 0.29426 0.0
C889 C 0.38578 0.13587 0.29615 0.0
C890 C 0.36932 0.1169 0.28716 0.0
C891 C 0.32336 0.0605 0.26145 0.0
C892 C 0.33874 0.08028 0.27019 0.0
H893 H 0.42008 0.18028 0.27136 0.0
H894 H 0.39166 0.15055 0.25706 0.0
H895 H 0.34581 0.11907 0.321 0.0
H896 H 0.30227 0.00745 0.28314 0.0
H897 H 0.32359 0.04232 0.29911 0.0
C898 C 0.16809 0.60369 0.71333 0.0
C899 C 0.17606 0.60176 0.68715 0.0
C900 C 0.15037 0.61989 0.71995 0.0
C901 C 0.09936 0.65053 0.69262 0.0
H902 H 0.10458 0.68989 0.75509 0.0
C903 C 0.02255 0.71122 0.7261 0.0
C904 C 0.01774 0.71123 0.75332 0.0
C905 C 0.04345 0.7011 0.71642 0.0
C906 C 0.10274 0.67889 0.73769 0.0
H907 H 0.17178 0.61535 0.64738 0.0
H908 H 0.14042 0.64341 0.65895 0.0
H909 H 0.13815 0.66564 0.74135 0.0
H910 H 0.03138 0.70106 0.79175 0.0
H911 H 0.06728 0.68303 0.77494 0.0
H912 H 0.06367 0.66288 0.6895 0.0
C913 C 0.14805 0.63245 0.67431 0.0
C914 C 0.12201 0.66508 0.72981 0.0
C915 C 0.16604 0.61647 0.66774 0.0
C916 C 0.03452 0.70144 0.77066 0.0
C917 C 0.05527 0.69122 0.761 0.0
C918 C 0.07997 0.66414 0.70067 0.0
C919 C 0.14003 0.63428 0.70047 0.0
C920 C 0.12037 0.65049 0.70745 0.0
C921 C 0.05992 0.69068 0.73374 0.0
C922 C 0.08128 0.67817 0.72359 0.0
H923 H 0.1755 0.59264 0.72874 0.0
H924 H 0.14434 0.62078 0.74023 0.0
H925 H 0.09757 0.63927 0.67541 0.0
H926 H 0.01003 0.71873 0.71223 0.0
H927 H 0.04661 0.7013 0.69534 0.0
C928 C 0.18194 0.52838 0.5928 0.0
C929 C 0.20355 0.52916 0.6065 0.0
C930 C 0.18154 0.52495 0.56549 0.0
C931 C 0.21978 0.52815 0.50595 0.0
H932 H 0.171 0.48844 0.47513 0.0
C933 C 0.22447 0.49238 0.39947 0.0
C934 C 0.20373 0.49386 0.38421 0.0
C935 C 0.22399 0.49774 0.42636 0.0
C936 C 0.18458 0.49977 0.48345 0.0
H937 H 0.24171 0.52676 0.60236 0.0
H938 H 0.24102 0.52015 0.55489 0.0
H939 H 0.1712 0.49545 0.52263 0.0
H940 H 0.16621 0.5021 0.38519 0.0
H941 H 0.16536 0.51123 0.43237 0.0
H942 H 0.23345 0.53192 0.46673 0.0
C943 C 0.22436 0.52274 0.56508 0.0
C944 C 0.18468 0.50385 0.51065 0.0
C945 C 0.22476 0.52638 0.59235 0.0
C946 C 0.18249 0.50082 0.39641 0.0
C947 C 0.18196 0.50593 0.42342 0.0
C948 C 0.21979 0.52388 0.47879 0.0
C949 C 0.20275 0.52201 0.55129 0.0
C950 C 0.20234 0.51803 0.52226 0.0
C951 C 0.20272 0.50446 0.43863 0.0
C952 C 0.20224 0.50959 0.4673 0.0
H953 H 0.16528 0.53062 0.60312 0.0
H954 H 0.16459 0.52487 0.55548 0.0
H955 H 0.23337 0.53953 0.5141 0.0
H956 H 0.24113 0.48708 0.39066 0.0
H957 H 0.2402 0.49623 0.43767 0.0
C958 C 0.50537 0.80904 0.39578 0.0
C959 C 0.51173 0.78781 0.38316 0.0
C960 C 0.49863 0.80904 0.42231 0.0
C961 C 0.50298 0.77306 0.48325 0.0
H962 H 0.45333 0.8151 0.50788 0.0
C963 C 0.46621 0.76916 0.58942 0.0
C964 C 0.4641 0.79101 0.60254 0.0
C965 C 0.47089 0.76839 0.56235 0.0
C966 C 0.46732 0.80337 0.50129 0.0
H967 H 0.5156 0.74985 0.38831 0.0
H968 H 0.50333 0.74975 0.4344 0.0
H969 H 0.46348 0.81425 0.46107 0.0
H970 H 0.46473 0.82917 0.59744 0.0
H971 H 0.47278 0.82779 0.55014 0.0
H972 H 0.50664 0.76208 0.52349 0.0
C973 C 0.50404 0.7665 0.42401 0.0
C974 C 0.47319 0.80292 0.4745 0.0
C975 C 0.51095 0.76653 0.39753 0.0
C976 C 0.46629 0.81206 0.58792 0.0
C977 C 0.47077 0.81128 0.56081 0.0
C978 C 0.49697 0.77339 0.50999 0.0
C979 C 0.49793 0.78778 0.43678 0.0
C980 C 0.4912 0.78785 0.46517 0.0
C981 C 0.47335 0.78944 0.54781 0.0
C982 C 0.47917 0.78864 0.5193 0.0
H983 H 0.5059 0.82575 0.38528 0.0
H984 H 0.4944 0.82579 0.4316 0.0
H985 H 0.51722 0.76154 0.47687 0.0
H986 H 0.46459 0.75261 0.6001 0.0
H987 H 0.47255 0.7513 0.55278 0.0
C988 C 0.76827 0.51625 0.40277 0.0
C989 C 0.78952 0.517 0.38836 0.0
C990 C 0.76843 0.51072 0.42965 0.0
C991 C 0.8056 0.48276 0.48133 0.0
H992 H 0.76304 0.51561 0.52898 0.0
C993 C 0.81271 0.47632 0.59494 0.0
C994 C 0.79141 0.47335 0.60892 0.0
C995 C 0.81241 0.48112 0.56789 0.0
C996 C 0.77486 0.50614 0.51586 0.0
H997 H 0.82764 0.51286 0.39093 0.0
H998 H 0.82799 0.50377 0.4379 0.0
H999 H 0.76279 0.52543 0.48212 0.0
H1000 H 0.7531 0.47293 0.60545 0.0
H1001 H 0.75263 0.4814 0.55822 0.0
H1002 H 0.8179 0.46376 0.51526 0.0
C1003 C 0.81113 0.50692 0.42835 0.0
C1004 C 0.7747 0.51172 0.489 0.0
C1005 C 0.81094 0.51228 0.40143 0.0
C1006 C 0.76982 0.47514 0.59525 0.0
C1007 C 0.76953 0.48013 0.56825 0.0
C1008 C 0.80587 0.47731 0.50822 0.0
C1009 C 0.78987 0.50599 0.44278 0.0
C1010 C 0.79005 0.50008 0.47139 0.0
C1011 C 0.79082 0.48323 0.55431 0.0
C1012 C 0.79049 0.48892 0.52575 0.0
H1013 H 0.75144 0.51967 0.39324 0.0
H1014 H 0.75169 0.50982 0.44004 0.0
H1015 H 0.81737 0.47315 0.46828 0.0
H1016 H 0.82964 0.47504 0.6049 0.0
H1017 H 0.82909 0.48362 0.55769 0.0
C1018 C 0.49349 0.22635 0.4059 0.0
C1019 C 0.49421 0.20505 0.39158 0.0
C1020 C 0.49716 0.22641 0.43314 0.0
C1021 C 0.52138 0.19024 0.48799 0.0
H1022 H 0.48355 0.23267 0.53102 0.0
C1023 C 0.51972 0.18631 0.60212 0.0
C1024 C 0.52172 0.20813 0.61531 0.0
C1025 C 0.51637 0.18559 0.5748 0.0
C1026 C 0.49436 0.22086 0.51922 0.0
H1027 H 0.49944 0.16708 0.39459 0.0
H1028 H 0.50533 0.16708 0.44227 0.0
H1029 H 0.47772 0.23185 0.48338 0.0
H1030 H 0.52162 0.24631 0.61023 0.0
H1031 H 0.51558 0.24501 0.56256 0.0
H1032 H 0.53773 0.17905 0.52407 0.0
C1033 C 0.50237 0.18383 0.43238 0.0
C1034 C 0.49109 0.22043 0.49191 0.0
C1035 C 0.49888 0.1838 0.40505 0.0
C1036 C 0.52014 0.22921 0.60065 0.0
C1037 C 0.51657 0.22848 0.57338 0.0
C1038 C 0.5245 0.19055 0.51536 0.0
C1039 C 0.50143 0.20513 0.44678 0.0
C1040 C 0.50467 0.20522 0.47592 0.0
C1041 C 0.51472 0.20667 0.56018 0.0
C1042 C 0.51111 0.20596 0.53122 0.0
H1043 H 0.4901 0.24306 0.39608 0.0
H1044 H 0.49679 0.2432 0.44348 0.0
H1045 H 0.53238 0.17856 0.47627 0.0
H1046 H 0.5209 0.16975 0.61286 0.0
H1047 H 0.5148 0.16853 0.56515 0.0
C1048 C 0.67936 0.99803 0.09759 0.0
C1049 C 0.70116 0.00158 0.11039 0.0
C1050 C 0.67859 0.99376 0.07039 0.0
C1051 C 0.71455 0.00162 0.00991 0.0
H1052 H 0.67077 0.9562 0.97961 0.0
C1053 C 0.7218 0.97041 0.9022 0.0
C1054 C 0.70073 0.96956 0.88747 0.0
C1055 C 0.72114 0.9741 0.92943 0.0
C1056 C 0.68293 0.96909 0.9878 0.0
H1057 H 0.73926 0.00278 0.10485 0.0
H1058 H 0.73793 0.99485 0.05774 0.0
H1059 H 0.67094 0.9628 0.02728 0.0
H1060 H 0.66241 0.97152 0.88983 0.0
H1061 H 0.66129 0.97786 0.93753 0.0
H1062 H 0.72674 0.00768 0.97051 0.0
C1063 C 0.72138 0.99592 0.06849 0.0
C1064 C 0.68301 0.97291 0.01508 0.0
C1065 C 0.72215 0.00031 0.09557 0.0
C1066 C 0.67896 0.97212 0.90062 0.0
C1067 C 0.67829 0.97563 0.92794 0.0
C1068 C 0.71456 0.9977 0.98272 0.0
C1069 C 0.6996 0.99287 0.0555 0.0
C1070 C 0.69895 0.98911 0.02647 0.0
C1071 C 0.6994 0.97685 0.94257 0.0
C1072 C 0.69887 0.9813 0.9714 0.0
H1073 H 0.66287 -0.00102 0.10845 0.0
H1074 H 0.6615 0.9917 0.06096 0.0
H1075 H 0.72668 0.01462 0.01792 0.0
H1076 H 0.73887 0.96846 0.89268 0.0
H1077 H 0.73767 0.97466 0.94026 0.0
C1078 C 0.02744 0.27687 0.90826 0.0
C1079 C 0.02803 0.29793 0.89348 0.0
C1080 C 0.02429 0.27758 0.9356 0.0
C1081 C 0.00179 0.31626 0.98896 0.0
H1082 H 0.03494 0.27177 0.03412 0.0
C1083 C 0.99549 0.31946 0.10291 0.0
C1084 C 0.9913 0.2976 0.11534 0.0
C1085 C 0.00146 0.32034 0.07613 0.0
C1086 C 0.02548 0.28423 0.02172 0.0
H1087 H 0.02618 0.33627 0.89585 0.0
H1088 H 0.02111 0.33752 0.94358 0.0
H1089 H 0.0427 0.2718 0.98676 0.0
H1090 H 0.99051 0.25949 0.10953 0.0
H1091 H 0.00096 0.26107 0.06294 0.0
H1092 H 0.9846 0.32865 0.02402 0.0
C1093 C 0.02262 0.32043 0.93401 0.0
C1094 C 0.02986 0.28421 0.99459 0.0
C1095 C 0.02565 0.31971 0.90665 0.0
C1096 C 0.9936 0.27664 0.10056 0.0
C1097 C -0.00026 0.27752 0.07389 0.0
C1098 C 0.99752 0.31636 0.01613 0.0
C1099 C 0.02178 0.29937 0.94881 0.0
C1100 C 0.01789 0.30006 0.97783 0.0
C1101 C 0.00357 0.29937 0.06134 0.0
C1102 C 0.00914 0.30018 0.03275 0.0
H1103 H 0.02913 0.25979 0.8987 0.0
H1104 H 0.02336 0.261 0.94631 0.0
H1105 H 0.992 0.32847 0.97661 0.0
H1106 H 0.99387 0.33592 0.11376 0.0
H1107 H 0.00451 0.33743 0.06701 0.0
C1108 C 0.28183 0.99672 0.90133 0.0
C1109 C 0.27123 0.01612 0.88858 0.0
C1110 C 0.2795 0.99374 0.92856 0.0
C1111 C 0.26641 0.02649 0.98977 0.0
H1112 H 0.25697 0.96355 0.01864 0.0
C1113 C 0.25043 0.00972 0.10105 0.0
C1114 C 0.2629 0.99067 0.11228 0.0
C1115 C 0.25015 0.01297 0.07369 0.0
C1116 C 0.25979 0.98122 0.01088 0.0
H1117 H 0.24968 0.04753 0.89442 0.0
H1118 H 0.24544 0.04218 0.94198 0.0
H1119 H 0.25871 0.96897 0.97094 0.0
H1120 H 0.2848 0.96003 0.10357 0.0
H1121 H 0.28441 0.96579 0.05596 0.0
H1122 H 0.26763 0.03869 0.02976 0.0
C1123 C 0.2558 0.02944 0.93093 0.0
C1124 C 0.2608 0.98432 0.98357 0.0
C1125 C 0.25814 0.03243 0.90366 0.0
C1126 C 0.27497 0.97487 0.09557 0.0
C1127 C 0.27463 0.97808 0.06825 0.0
C1128 C 0.26537 0.02339 0.01711 0.0
C1129 C 0.26648 0.01006 0.94368 0.0
C1130 C 0.26435 0.00696 0.97269 0.0
C1131 C 0.26225 0.99717 0.057 0.0
C1132 C 0.26228 0.00068 0.02797 0.0
H1133 H 0.2921 0.98387 0.89033 0.0
H1134 H 0.28824 0.97882 0.93783 0.0
H1135 H 0.26946 0.04412 0.98203 0.0
H1136 H 0.24092 0.02219 0.11337 0.0
H1137 H 0.24027 0.02772 0.06558 0.0
C1138 C 0.97233 0.68607 0.89979 0.0
C1139 C 0.97261 0.70747 0.88565 0.0
C1140 C 0.97561 0.68598 0.92712 0.0
C1141 C 0.97377 0.72551 0.98575 0.0
H1142 H 0.0099 0.67492 0.01836 0.0
C1143 C 0.00697 0.72874 0.09359 0.0
C1144 C 0.00346 0.70819 0.10876 0.0
C1145 C 0.00248 0.72857 0.06648 0.0
C1146 C -0.0004 0.68904 0.00952 0.0
H1147 H 0.97688 0.74555 0.889 0.0
H1148 H 0.9833 0.74536 0.93649 0.0
H1149 H 0.00388 0.67483 0.9707 0.0
H1150 H 0.99248 0.67136 0.10744 0.0
H1151 H 0.98489 0.67105 0.05999 0.0
H1152 H 0.97005 0.73995 0.02464 0.0
C1153 C 0.97992 0.72866 0.92665 0.0
C1154 C 0.99607 0.68898 0.98223 0.0
C1155 C 0.9764 0.72877 0.89937 0.0
C1156 C 0.99532 0.68749 0.0963 0.0
C1157 C 0.9911 0.68725 0.06913 0.0
C1158 C 0.97753 0.72569 0.01299 0.0
C1159 C 0.97949 0.70728 0.9409 0.0
C1160 C 0.98311 0.70722 0.96999 0.0
C1161 C 0.99466 0.70778 0.05397 0.0
C1162 C 0.99047 0.70746 0.02513 0.0
H1163 H 0.9693 0.66937 0.88979 0.0
H1164 H 0.97479 0.66921 0.93748 0.0
H1165 H 0.96332 0.7396 0.9771 0.0
H1166 H 0.01322 0.74497 0.10263 0.0
H1167 H 0.00554 0.74458 0.0552 0.0
loop_
_geom_bond_atom_site_label_1
_geom_bond_atom_site_label_2
_geom_bond_distance
_geom_bond_site_symmetry_2
_ccdc_geom_bond_type
C0 O1 1.160 . S
C0 O7 1.185 . S
O1 C0 1.160 . S
O2 Zn3 1.899 . S
O2 C10 1.284 . S
Zn3 O2 1.899 . S
Zn3 O4 2.032 . S
Zn3 O7 2.086 . S
Zn3 O12 1.977 . S
O4 Zn3 2.032 . S
O4 C8 1.278 . S
C5 O6 1.203 . S
C5 O12 1.267 . S
O6 C5 1.203 . S
O7 C0 1.185 . S
O7 Zn3 2.086 . S
C8 O4 1.278 . S
C8 O9 1.211 . S
O9 C8 1.211 . S
C10 O2 1.284 . S
C10 O11 1.273 . S
O11 C10 1.273 . S
O12 Zn3 1.977 . S
O12 C5 1.267 . S
C13 O14 1.160 . S
C13 O20 1.185 . S
O14 C13 1.160 . S
O15 Zn16 1.899 . S
O15 C23 1.284 . S
Zn16 O15 1.899 . S
Zn16 O17 2.032 . S
Zn16 O20 2.086 . S
Zn16 O25 1.977 . S
O17 Zn16 2.032 . S
O17 C21 1.278 . S
C18 O19 1.203 . S
C18 O25 1.267 . S
O19 C18 1.203 . S
O20 C13 1.185 . S
O20 Zn16 2.086 . S
C21 O17 1.278 . S
C21 O22 1.211 . S
O22 C21 1.211 . S
C23 O15 1.284 . S
C23 O24 1.273 . S
O24 C23 1.273 . S
O25 Zn16 1.977 . S
O25 C18 1.267 . S
C26 O27 1.160 . S
C26 O33 1.185 . S
O27 C26 1.160 . S
O28 Zn29 1.899 . S
O28 C36 1.284 . S
Zn29 O28 1.899 . S
Zn29 O30 2.032 . S
Zn29 O33 2.086 . S
Zn29 O38 1.977 . S
O30 Zn29 2.032 . S
O30 C34 1.278 . S
C31 O32 1.203 . S
C31 O38 1.267 . S
O32 C31 1.203 . S
O33 C26 1.185 . S
O33 Zn29 2.086 . S
C34 O30 1.278 . S
C34 O35 1.211 . S
O35 C34 1.211 . S
C36 O28 1.284 . S
C36 O37 1.273 . S
O37 C36 1.273 . S
O38 Zn29 1.977 . S
O38 C31 1.267 . S
C39 O40 1.160 . S
C39 O46 1.185 . S
O40 C39 1.160 . S
O41 Zn42 1.899 . S
O41 C49 1.284 . S
Zn42 O41 1.899 . S
Zn42 O43 2.032 . S
Zn42 O46 2.086 . S
Zn42 O51 1.977 . S
O43 Zn42 2.032 . S
O43 C47 1.278 . S
C44 O45 1.203 . S
C44 O51 1.267 . S
O45 C44 1.203 . S
O46 C39 1.185 . S
O46 Zn42 2.086 . S
C47 O43 1.278 . S
C47 O48 1.211 . S
O48 C47 1.211 . S
C49 O41 1.284 . S
C49 O50 1.273 . S
O50 C49 1.273 . S
O51 Zn42 1.977 . S
O51 C44 1.267 . S
C52 O53 1.160 . S
C52 O59 1.185 . S
O53 C52 1.160 . S
O54 Zn55 1.899 . S
O54 C62 1.284 . S
Zn55 O54 1.899 . S
Zn55 O56 2.032 . S
Zn55 O59 2.086 . S
Zn55 O64 1.977 . S
O56 Zn55 2.032 . S
O56 C60 1.278 . S
C57 O58 1.203 . S
C57 O64 1.267 . S
O58 C57 1.203 . S
O59 C52 1.185 . S
O59 Zn55 2.086 . S
C60 O56 1.278 . S
C60 O61 1.211 . S
O61 C60 1.211 . S
C62 O54 1.284 . S
C62 O63 1.273 . S
O63 C62 1.273 . S
O64 Zn55 1.977 . S
O64 C57 1.267 . S
C65 O66 1.160 . S
C65 O72 1.185 . S
O66 C65 1.160 . S
O67 Zn68 1.899 . S
O67 C75 1.284 . S
Zn68 O67 1.899 . S
Zn68 O69 2.032 . S
Zn68 O72 2.086 . S
Zn68 O77 1.977 . S
O69 Zn68 2.032 . S
O69 C73 1.278 . S
C70 O71 1.203 . S
C70 O77 1.267 . S
O71 C70 1.203 . S
O72 C65 1.185 . S
O72 Zn68 2.086 . S
C73 O69 1.278 . S
C73 O74 1.211 . S
O74 C73 1.211 . S
C75 O67 1.284 . S
C75 O76 1.273 . S
O76 C75 1.273 . S
O77 Zn68 1.977 . S
O77 C70 1.267 . S
C78 O79 1.160 . S
C78 O85 1.185 . S
O79 C78 1.160 . S
O80 Zn81 1.899 . S
O80 C88 1.284 . S
Zn81 O80 1.899 . S
Zn81 O82 2.032 . S
Zn81 O85 2.086 . S
Zn81 O90 1.977 . S
O82 Zn81 2.032 . S
O82 C86 1.278 . S
C83 O84 1.203 . S
C83 O90 1.267 . S
O84 C83 1.203 . S
O85 C78 1.185 . S
O85 Zn81 2.086 . S
C86 O82 1.278 . S
C86 O87 1.211 . S
O87 C86 1.211 . S
C88 O80 1.284 . S
C88 O89 1.273 . S
O89 C88 1.273 . S
O90 Zn81 1.977 . S
O90 C83 1.267 . S
C91 O92 1.160 . S
C91 O98 1.185 . S
O92 C91 1.160 . S
O93 Zn94 1.899 . S
O93 C101 1.284 . S
Zn94 O93 1.899 . S
Zn94 O95 2.032 . S
Zn94 O98 2.086 . S
Zn94 O103 1.977 . S
O95 Zn94 2.032 . S
O95 C99 1.278 . S
C96 O97 1.203 . S
C96 O103 1.267 . S
O97 C96 1.203 . S
O98 C91 1.185 . S
O98 Zn94 2.086 . S
C99 O95 1.278 . S
C99 O100 1.211 . S
O100 C99 1.211 . S
C101 O93 1.284 . S
C101 O102 1.273 . S
O102 C101 1.273 . S
O103 Zn94 1.977 . S
O103 C96 1.267 . S
C104 O105 1.160 . S
C104 O111 1.185 . S
O105 C104 1.160 . S
O106 Zn107 1.899 . S
O106 C114 1.284 . S
Zn107 O106 1.899 . S
Zn107 O108 2.032 . S
Zn107 O111 2.086 . S
Zn107 O116 1.977 . S
O108 Zn107 2.032 . S
O108 C112 1.278 . S
C109 O110 1.203 . S
C109 O116 1.267 . S
O110 C109 1.203 . S
O111 C104 1.185 . S
O111 Zn107 2.086 . S
C112 O108 1.278 . S
C112 O113 1.211 . S
O113 C112 1.211 . S
C114 O106 1.284 . S
C114 O115 1.273 . S
O115 C114 1.273 . S
O116 Zn107 1.977 . S
O116 C109 1.267 . S
C117 O118 1.160 . S
C117 O124 1.185 . S
O118 C117 1.160 . S
O119 Zn120 1.899 . S
O119 C127 1.284 . S
Zn120 O119 1.899 . S
Zn120 O121 2.032 . S
Zn120 O124 2.086 . S
Zn120 O129 1.977 . S
O121 Zn120 2.032 . S
O121 C125 1.278 . S
C122 O123 1.203 . S
C122 O129 1.267 . S
O123 C122 1.203 . S
O124 C117 1.185 . S
O124 Zn120 2.086 . S
C125 O121 1.278 . S
C125 O126 1.211 . S
O126 C125 1.211 . S
C127 O119 1.284 . S
C127 O128 1.273 . S
O128 C127 1.273 . S
O129 Zn120 1.977 . S
O129 C122 1.267 . S
C130 O131 1.160 . S
C130 O137 1.185 . S
O131 C130 1.160 . S
O132 Zn133 1.899 . S
O132 C140 1.284 . S
Zn133 O132 1.899 . S
Zn133 O134 2.032 . S
Zn133 O137 2.086 . S
Zn133 O142 1.977 . S
O134 Zn133 2.032 . S
O134 C138 1.278 . S
C135 O136 1.203 . S
C135 O142 1.267 . S
O136 C135 1.203 . S
O137 C130 1.185 . S
O137 Zn133 2.086 . S
C138 O134 1.278 . S
C138 O139 1.211 . S
O139 C138 1.211 . S
C140 O132 1.284 . S
C140 O141 1.273 . S
O141 C140 1.273 . S
O142 Zn133 1.977 . S
O142 C135 1.267 . S
C143 O144 1.160 . S
C143 O150 1.185 . S
O144 C143 1.160 . S
O145 Zn146 1.899 . S
O145 C153 1.284 . S
Zn146 O145 1.899 . S
Zn146 O147 2.032 . S
Zn146 O150 2.086 . S
Zn146 O155 1.977 . S
O147 Zn146 2.032 . S
O147 C151 1.278 . S
C148 O149 1.203 . S
C148 O155 1.267 . S
O149 C148 1.203 . S
O150 C143 1.185 . S
O150 Zn146 2.086 . S
C151 O147 1.278 . S
C151 O152 1.211 . S
O152 C151 1.211 . S
C153 O145 1.284 . S
C153 O154 1.273 . S
O154 C153 1.273 . S
O155 Zn146 1.977 . S
O155 C148 1.267 . S
C156 O157 1.160 . S
C156 O163 1.185 . S
O157 C156 1.160 . S
O158 Zn159 1.899 . S
O158 C166 1.284 . S
Zn159 O158 1.899 . S
Zn159 O160 2.032 . S
Zn159 O163 2.086 . S
Zn159 O168 1.977 . S
O160 Zn159 2.032 . S
O160 C164 1.278 . S
C161 O162 1.203 . S
C161 O168 1.267 . S
O162 C161 1.203 . S
O163 C156 1.185 . S
O163 Zn159 2.086 . S
C164 O160 1.278 . S
C164 O165 1.211 . S
O165 C164 1.211 . S
C166 O158 1.284 . S
C166 O167 1.273 . S
O167 C166 1.273 . S
O168 Zn159 1.977 . S
O168 C161 1.267 . S
C169 O170 1.160 . S
C169 O176 1.185 . S
O170 C169 1.160 . S
O171 Zn172 1.899 . S
O171 C179 1.284 . S
Zn172 O171 1.899 . S
Zn172 O173 2.032 . S
Zn172 O176 2.086 . S
Zn172 O181 1.977 . S
O173 Zn172 2.032 . S
O173 C177 1.278 . S
C174 O175 1.203 . S
C174 O181 1.267 . S
O175 C174 1.203 . S
O176 C169 1.185 . S
O176 Zn172 2.086 . S
C177 O173 1.278 . S
C177 O178 1.211 . S
O178 C177 1.211 . S
C179 O171 1.284 . S
C179 O180 1.273 . S
O180 C179 1.273 . S
O181 Zn172 1.977 . S
O181 C174 1.267 . S
C182 O183 1.160 . S
C182 O189 1.185 . S
O183 C182 1.160 . S
O184 Zn185 1.899 . S
O184 C192 1.284 . S
Zn185 O184 1.899 . S
Zn185 O186 2.032 . S
Zn185 O189 2.086 . S
Zn185 O194 1.977 . S
O186 Zn185 2.032 . S
O186 C190 1.278 . S
C187 O188 1.203 . S
C187 O194 1.267 . S
O188 C187 1.203 . S
O189 C182 1.185 . S
O189 Zn185 2.086 . S
C190 O186 1.278 . S
C190 O191 1.211 . S
O191 C190 1.211 . S
C192 O184 1.284 . S
C192 O193 1.273 . S
O193 C192 1.273 . S
O194 Zn185 1.977 . S
O194 C187 1.267 . S
C195 O196 1.160 . S
C195 O202 1.185 . S
O196 C195 1.160 . S
O197 Zn198 1.899 . S
O197 C205 1.284 . S
Zn198 O197 1.899 . S
Zn198 O199 2.032 . S
Zn198 O202 2.086 . S
Zn198 O207 1.977 . S
O199 Zn198 2.032 . S
O199 C203 1.278 . S
C200 O201 1.203 . S
C200 O207 1.267 . S
O201 C200 1.203 . S
O202 C195 1.185 . S
O202 Zn198 2.086 . S
C203 O199 1.278 . S
C203 O204 1.211 . S
O204 C203 1.211 . S
C205 O197 1.284 . S
C205 O206 1.273 . S
O206 C205 1.273 . S
O207 Zn198 1.977 . S
O207 C200 1.267 . S
C208 C209 1.349 . S
C208 C210 1.327 . S
C208 H233 0.950 . S
C209 C208 1.349 . S
C209 C225 1.349 . S
C210 C208 1.327 . S
C210 C229 1.429 . S
C210 H234 0.950 . S
C211 C228 1.574 . S
C211 C230 1.368 . S
C211 H235 0.949 . S
H212 C216 0.949 . S
C213 C214 1.349 . S
C213 C215 1.327 . S
C213 H236 0.950 . S
C214 C213 1.349 . S
C214 C226 1.349 . S
C215 C213 1.327 . S
C215 C231 1.429 . S
C215 H237 0.950 . S
C216 H212 0.949 . S
C216 C224 1.574 . S
C216 C232 1.368 . S
H217 C225 0.950 . S
H218 C223 0.950 . S
H219 C224 0.949 . S
H220 C226 0.950 . S
H221 C227 0.950 . S
H222 C228 0.949 . S
C223 H218 0.950 . S
C223 C225 1.327 . S
C223 C229 1.429 . S
C224 C216 1.574 . S
C224 H219 0.949 . S
C224 C230 1.368 . S
C225 C209 1.349 . S
C225 H217 0.950 . S
C225 C223 1.327 . S
C226 C214 1.349 . S
C226 H220 0.950 . S
C226 C227 1.327 . S
C227 H221 0.950 . S
C227 C226 1.327 . S
C227 C231 1.429 . S
C228 C211 1.574 . S
C228 H222 0.949 . S
C228 C232 1.368 . S
C229 C210 1.429 . S
C229 C223 1.429 . S
C229 C230 1.523 . S
C230 C211 1.368 . S
C230 C224 1.368 . S
C230 C229 1.523 . S
C231 C215 1.429 . S
C231 C227 1.429 . S
C231 C232 1.523 . S
C232 C216 1.368 . S
C232 C228 1.368 . S
C232 C231 1.523 . S
H233 C208 0.950 . S
H234 C210 0.950 . S
H235 C211 0.949 . S
H236 C213 0.950 . S
H237 C215 0.950 . S
C238 C239 1.349 . S
C238 C240 1.327 . S
C238 H263 0.950 . S
C239 C238 1.349 . S
C239 C255 1.349 . S
C240 C238 1.327 . S
C240 C259 1.429 . S
C240 H264 0.950 . S
C241 C258 1.574 . S
C241 C260 1.368 . S
C241 H265 0.949 . S
H242 C246 0.949 . S
C243 C244 1.349 . S
C243 C245 1.327 . S
C243 H266 0.950 . S
C244 C243 1.349 . S
C244 C256 1.349 . S
C245 C243 1.327 . S
C245 C261 1.429 . S
C245 H267 0.950 . S
C246 H242 0.949 . S
C246 C254 1.574 . S
C246 C262 1.368 . S
H247 C255 0.950 . S
H248 C253 0.950 . S
H249 C254 0.949 . S
H250 C256 0.950 . S
H251 C257 0.950 . S
H252 C258 0.949 . S
C253 H248 0.950 . S
C253 C255 1.327 . S
C253 C259 1.429 . S
C254 C246 1.574 . S
C254 H249 0.949 . S
C254 C260 1.368 . S
C255 C239 1.349 . S
C255 H247 0.950 . S
C255 C253 1.327 . S
C256 C244 1.349 . S
C256 H250 0.950 . S
C256 C257 1.327 . S
C257 H251 0.950 . S
C257 C256 1.327 . S
C257 C261 1.429 . S
C258 C241 1.574 . S
C258 H252 0.949 . S
C258 C262 1.368 . S
C259 C240 1.429 . S
C259 C253 1.429 . S
C259 C260 1.523 . S
C260 C241 1.368 . S
C260 C254 1.368 . S
C260 C259 1.523 . S
C261 C245 1.429 . S
C261 C257 1.429 . S
C261 C262 1.523 . S
C262 C246 1.368 . S
C262 C258 1.368 . S
C262 C261 1.523 . S
H263 C238 0.950 . S
H264 C240 0.950 . S
H265 C241 0.949 . S
H266 C243 0.950 . S
H267 C245 0.950 . S
C268 C269 1.349 . S
C268 C270 1.327 . S
C268 H293 0.950 . S
C269 C268 1.349 . S
C269 C285 1.349 . S
C270 C268 1.327 . S
C270 C289 1.429 . S
C270 H294 0.950 . S
C271 C288 1.574 . S
C271 C290 1.368 . S
C271 H295 0.949 . S
H272 C276 0.949 . S
C273 C274 1.349 . S
C273 C275 1.327 . S
C273 H296 0.950 . S
C274 C273 1.349 . S
C274 C286 1.349 . S
C275 C273 1.327 . S
C275 C291 1.429 . S
C275 H297 0.950 . S
C276 H272 0.949 . S
C276 C284 1.574 . S
C276 C292 1.368 . S
H277 C285 0.950 . S
H278 C283 0.950 . S
H279 C284 0.949 . S
H280 C286 0.950 . S
H281 C287 0.950 . S
H282 C288 0.949 . S
C283 H278 0.950 . S
C283 C285 1.327 . S
C283 C289 1.429 . S
C284 C276 1.574 . S
C284 H279 0.949 . S
C284 C290 1.368 . S
C285 C269 1.349 . S
C285 H277 0.950 . S
C285 C283 1.327 . S
C286 C274 1.349 . S
C286 H280 0.950 . S
C286 C287 1.327 . S
C287 H281 0.950 . S
C287 C286 1.327 . S
C287 C291 1.429 . S
C288 C271 1.574 . S
C288 H282 0.949 . S
C288 C292 1.368 . S
C289 C270 1.429 . S
C289 C283 1.429 . S
C289 C290 1.523 . S
C290 C271 1.368 . S
C290 C284 1.368 . S
C290 C289 1.523 . S
C291 C275 1.429 . S
C291 C287 1.429 . S
C291 C292 1.523 . S
C292 C276 1.368 . S
C292 C288 1.368 . S
C292 C291 1.523 . S
H293 C268 0.950 . S
H294 C270 0.950 . S
H295 C271 0.949 . S
H296 C273 0.950 . S
H297 C275 0.950 . S
C298 C299 1.349 . S
C298 C300 1.327 . S
C298 H323 0.950 . S
C299 C298 1.349 . S
C299 C315 1.349 . S
C300 C298 1.327 . S
C300 C319 1.429 . S
C300 H324 0.950 . S
C301 C318 1.574 . S
C301 C320 1.368 . S
C301 H325 0.949 . S
H302 C306 0.949 . S
C303 C304 1.349 . S
C303 C305 1.327 . S
C303 H326 0.950 . S
C304 C303 1.349 . S
C304 C316 1.349 . S
C305 C303 1.327 . S
C305 C321 1.429 . S
C305 H327 0.950 . S
C306 H302 0.949 . S
C306 C314 1.574 . S
C306 C322 1.368 . S
H307 C315 0.950 . S
H308 C313 0.950 . S
H309 C314 0.949 . S
H310 C316 0.950 . S
H311 C317 0.950 . S
H312 C318 0.949 . S
C313 H308 0.950 . S
C313 C315 1.327 . S
C313 C319 1.429 . S
C314 C306 1.574 . S
C314 H309 0.949 . S
C314 C320 1.368 . S
C315 C299 1.349 . S
C315 H307 0.950 . S
C315 C313 1.327 . S
C316 C304 1.349 . S
C316 H310 0.950 . S
C316 C317 1.327 . S
C317 H311 0.950 . S
C317 C316 1.327 . S
C317 C321 1.429 . S
C318 C301 1.574 . S
C318 H312 0.949 . S
C318 C322 1.368 . S
C319 C300 1.429 . S
C319 C313 1.429 . S
C319 C320 1.523 . S
C320 C301 1.368 . S
C320 C314 1.368 . S
C320 C319 1.523 . S
C321 C305 1.429 . S
C321 C317 1.429 . S
C321 C322 1.523 . S
C322 C306 1.368 . S
C322 C318 1.368 . S
C322 C321 1.523 . S
H323 C298 0.950 . S
H324 C300 0.950 . S
H325 C301 0.949 . S
H326 C303 0.950 . S
H327 C305 0.950 . S
C328 C329 1.349 . S
C328 C330 1.327 . S
C328 H353 0.950 . S
C329 C328 1.349 . S
C329 C345 1.349 . S
C330 C328 1.327 . S
C330 C349 1.429 . S
C330 H354 0.950 . S
C331 C348 1.574 . S
C331 C350 1.368 . S
C331 H355 0.949 . S
H332 C336 0.949 . S
C333 C334 1.349 . S
C333 C335 1.327 . S
C333 H356 0.950 . S
C334 C333 1.349 . S
C334 C346 1.349 . S
C335 C333 1.327 . S
C335 C351 1.429 . S
C335 H357 0.950 . S
C336 H332 0.949 . S
C336 C344 1.574 . S
C336 C352 1.368 . S
H337 C345 0.950 . S
H338 C343 0.950 . S
H339 C344 0.949 . S
H340 C346 0.950 . S
H341 C347 0.950 . S
H342 C348 0.949 . S
C343 H338 0.950 . S
C343 C345 1.327 . S
C343 C349 1.429 . S
C344 C336 1.574 . S
C344 H339 0.949 . S
C344 C350 1.368 . S
C345 C329 1.349 . S
C345 H337 0.950 . S
C345 C343 1.327 . S
C346 C334 1.349 . S
C346 H340 0.950 . S
C346 C347 1.327 . S
C347 H341 0.950 . S
C347 C346 1.327 . S
C347 C351 1.429 . S
C348 C331 1.574 . S
C348 H342 0.949 . S
C348 C352 1.368 . S
C349 C330 1.429 . S
C349 C343 1.429 . S
C349 C350 1.523 . S
C350 C331 1.368 . S
C350 C344 1.368 . S
C350 C349 1.523 . S
C351 C335 1.429 . S
C351 C347 1.429 . S
C351 C352 1.523 . S
C352 C336 1.368 . S
C352 C348 1.368 . S
C352 C351 1.523 . S
H353 C328 0.950 . S
H354 C330 0.950 . S
H355 C331 0.949 . S
H356 C333 0.950 . S
H357 C335 0.950 . S
C358 C359 1.349 . S
C358 C360 1.327 . S
C358 H383 0.950 . S
C359 C358 1.349 . S
C359 C375 1.349 . S
C360 C358 1.327 . S
C360 C379 1.429 . S
C360 H384 0.950 . S
C361 C378 1.574 . S
C361 C380 1.368 . S
C361 H385 0.949 . S
H362 C366 0.949 . S
C363 C364 1.349 . S
C363 C365 1.327 . S
C363 H386 0.950 . S
C364 C363 1.349 . S
C364 C376 1.349 . S
C365 C363 1.327 . S
C365 C381 1.429 . S
C365 H387 0.950 . S
C366 H362 0.949 . S
C366 C374 1.574 . S
C366 C382 1.368 . S
H367 C375 0.950 . S
H368 C373 0.950 . S
H369 C374 0.949 . S
H370 C376 0.950 . S
H371 C377 0.950 . S
H372 C378 0.949 . S
C373 H368 0.950 . S
C373 C375 1.327 . S
C373 C379 1.429 . S
C374 C366 1.574 . S
C374 H369 0.949 . S
C374 C380 1.368 . S
C375 C359 1.349 . S
C375 H367 0.950 . S
C375 C373 1.327 . S
C376 C364 1.349 . S
C376 H370 0.950 . S
C376 C377 1.327 . S
C377 H371 0.950 . S
C377 C376 1.327 . S
C377 C381 1.429 . S
C378 C361 1.574 . S
C378 H372 0.949 . S
C378 C382 1.368 . S
C379 C360 1.429 . S
C379 C373 1.429 . S
C379 C380 1.523 . S
C380 C361 1.368 . S
C380 C374 1.368 . S
C380 C379 1.523 . S
C381 C365 1.429 . S
C381 C377 1.429 . S
C381 C382 1.523 . S
C382 C366 1.368 . S
C382 C378 1.368 . S
C382 C381 1.523 . S
H383 C358 0.950 . S
H384 C360 0.950 . S
H385 C361 0.949 . S
H386 C363 0.950 . S
H387 C365 0.950 . S
C388 C389 1.349 . S
C388 C390 1.327 . S
C388 H413 0.950 . S
C389 C388 1.349 . S
C389 C405 1.349 . S
C390 C388 1.327 . S
C390 C409 1.429 . S
C390 H414 0.950 . S
C391 C408 1.574 . S
C391 C410 1.368 . S
C391 H415 0.949 . S
H392 C396 0.949 . S
C393 C394 1.349 . S
C393 C395 1.327 . S
C393 H416 0.950 . S
C394 C393 1.349 . S
C394 C406 1.349 . S
C395 C393 1.327 . S
C395 C411 1.429 . S
C395 H417 0.950 . S
C396 H392 0.949 . S
C396 C404 1.574 . S
C396 C412 1.368 . S
H397 C405 0.950 . S
H398 C403 0.950 . S
H399 C404 0.949 . S
H400 C406 0.950 . S
H401 C407 0.950 . S
H402 C408 0.949 . S
C403 H398 0.950 . S
C403 C405 1.327 . S
C403 C409 1.429 . S
C404 C396 1.574 . S
C404 H399 0.949 . S
C404 C410 1.368 . S
C405 C389 1.349 . S
C405 H397 0.950 . S
C405 C403 1.327 . S
C406 C394 1.349 . S
C406 H400 0.950 . S
C406 C407 1.327 . S
C407 H401 0.950 . S
C407 C406 1.327 . S
C407 C411 1.429 . S
C408 C391 1.574 . S
C408 H402 0.949 . S
C408 C412 1.368 . S
C409 C390 1.429 . S
C409 C403 1.429 . S
C409 C410 1.523 . S
C410 C391 1.368 . S
C410 C404 1.368 . S
C410 C409 1.523 . S
C411 C395 1.429 . S
C411 C407 1.429 . S
C411 C412 1.523 . S
C412 C396 1.368 . S
C412 C408 1.368 . S
C412 C411 1.523 . S
H413 C388 0.950 . S
H414 C390 0.950 . S
H415 C391 0.949 . S
H416 C393 0.950 . S
H417 C395 0.950 . S
C418 C419 1.349 . S
C418 C420 1.327 . S
C418 H443 0.950 . S
C419 C418 1.349 . S
C419 C435 1.349 . S
C420 C418 1.327 . S
C420 C439 1.429 . S
C420 H444 0.950 . S
C421 C438 1.574 . S
C421 C440 1.368 . S
C421 H445 0.949 . S
H422 C426 0.949 . S
C423 C424 1.349 . S
C423 C425 1.327 . S
C423 H446 0.950 . S
C424 C423 1.349 . S
C424 C436 1.349 . S
C425 C423 1.327 . S
C425 C441 1.429 . S
C425 H447 0.950 . S
C426 H422 0.949 . S
C426 C434 1.574 . S
C426 C442 1.368 . S
H427 C435 0.950 . S
H428 C433 0.950 . S
H429 C434 0.949 . S
H430 C436 0.950 . S
H431 C437 0.950 . S
H432 C438 0.949 . S
C433 H428 0.950 . S
C433 C435 1.327 . S
C433 C439 1.429 . S
C434 C426 1.574 . S
C434 H429 0.949 . S
C434 C440 1.368 . S
C435 C419 1.349 . S
C435 H427 0.950 . S
C435 C433 1.327 . S
C436 C424 1.349 . S
C436 H430 0.950 . S
C436 C437 1.327 . S
C437 H431 0.950 . S
C437 C436 1.327 . S
C437 C441 1.429 . S
C438 C421 1.574 . S
C438 H432 0.949 . S
C438 C442 1.368 . S
C439 C420 1.429 . S
C439 C433 1.429 . S
C439 C440 1.523 . S
C440 C421 1.368 . S
C440 C434 1.368 . S
C440 C439 1.523 . S
C441 C425 1.429 . S
C441 C437 1.429 . S
C441 C442 1.523 . S
C442 C426 1.368 . S
C442 C438 1.368 . S
C442 C441 1.523 . S
H443 C418 0.950 . S
H444 C420 0.950 . S
H445 C421 0.949 . S
H446 C423 0.950 . S
H447 C425 0.950 . S
C448 C449 1.349 . S
C448 C450 1.327 . S
C448 H473 0.950 . S
C449 C448 1.349 . S
C449 C465 1.349 . S
C450 C448 1.327 . S
C450 C469 1.429 . S
C450 H474 0.950 . S
C451 C468 1.574 . S
C451 C470 1.368 . S
C451 H475 0.949 . S
H452 C456 0.949 . S
C453 C454 1.349 . S
C453 C455 1.327 . S
C453 H476 0.950 . S
C454 C453 1.349 . S
C454 C466 1.349 . S
C455 C453 1.327 . S
C455 C471 1.429 . S
C455 H477 0.950 . S
C456 H452 0.949 . S
C456 C464 1.574 . S
C456 C472 1.368 . S
H457 C465 0.950 . S
H458 C463 0.950 . S
H459 C464 0.949 . S
H460 C466 0.950 . S
H461 C467 0.950 . S
H462 C468 0.949 . S
C463 H458 0.950 . S
C463 C465 1.327 . S
C463 C469 1.429 . S
C464 C456 1.574 . S
C464 H459 0.949 . S
C464 C470 1.368 . S
C465 C449 1.349 . S
C465 H457 0.950 . S
C465 C463 1.327 . S
C466 C454 1.349 . S
C466 H460 0.950 . S
C466 C467 1.327 . S
C467 H461 0.950 . S
C467 C466 1.327 . S
C467 C471 1.429 . S
C468 C451 1.574 . S
C468 H462 0.949 . S
C468 C472 1.368 . S
C469 C450 1.429 . S
C469 C463 1.429 . S
C469 C470 1.523 . S
C470 C451 1.368 . S
C470 C464 1.368 . S
C470 C469 1.523 . S
C471 C455 1.429 . S
C471 C467 1.429 . S
C471 C472 1.523 . S
C472 C456 1.368 . S
C472 C468 1.368 . S
C472 C471 1.523 . S
H473 C448 0.950 . S
H474 C450 0.950 . S
H475 C451 0.949 . S
H476 C453 0.950 . S
H477 C455 0.950 . S
C478 C479 1.349 . S
C478 C480 1.327 . S
C478 H503 0.950 . S
C479 C478 1.349 . S
C479 C495 1.349 . S
C480 C478 1.327 . S
C480 C499 1.429 . S
C480 H504 0.950 . S
C481 C498 1.574 . S
C481 C500 1.368 . S
C481 H505 0.949 . S
H482 C486 0.949 . S
C483 C484 1.349 . S
C483 C485 1.327 . S
C483 H506 0.950 . S
C484 C483 1.349 . S
C484 C496 1.349 . S
C485 C483 1.327 . S
C485 C501 1.429 . S
C485 H507 0.950 . S
C486 H482 0.949 . S
C486 C494 1.574 . S
C486 C502 1.368 . S
H487 C495 0.950 . S
H488 C493 0.950 . S
H489 C494 0.949 . S
H490 C496 0.950 . S
H491 C497 0.950 . S
H492 C498 0.949 . S
C493 H488 0.950 . S
C493 C495 1.327 . S
C493 C499 1.429 . S
C494 C486 1.574 . S
C494 H489 0.949 . S
C494 C500 1.368 . S
C495 C479 1.349 . S
C495 H487 0.950 . S
C495 C493 1.327 . S
C496 C484 1.349 . S
C496 H490 0.950 . S
C496 C497 1.327 . S
C497 H491 0.950 . S
C497 C496 1.327 . S
C497 C501 1.429 . S
C498 C481 1.574 . S
C498 H492 0.949 . S
C498 C502 1.368 . S
C499 C480 1.429 . S
C499 C493 1.429 . S
C499 C500 1.523 . S
C500 C481 1.368 . S
C500 C494 1.368 . S
C500 C499 1.523 . S
C501 C485 1.429 . S
C501 C497 1.429 . S
C501 C502 1.523 . S
C502 C486 1.368 . S
C502 C498 1.368 . S
C502 C501 1.523 . S
H503 C478 0.950 . S
H504 C480 0.950 . S
H505 C481 0.949 . S
H506 C483 0.950 . S
H507 C485 0.950 . S
C508 C509 1.349 . S
C508 C510 1.327 . S
C508 H533 0.950 . S
C509 C508 1.349 . S
C509 C525 1.349 . S
C510 C508 1.327 . S
C510 C529 1.429 . S
C510 H534 0.950 . S
C511 C528 1.574 . S
C511 C530 1.368 . S
C511 H535 0.949 . S
H512 C516 0.949 . S
C513 C514 1.349 . S
C513 C515 1.327 . S
C513 H536 0.950 . S
C514 C513 1.349 . S
C514 C526 1.349 . S
C515 C513 1.327 . S
C515 C531 1.429 . S
C515 H537 0.950 . S
C516 H512 0.949 . S
C516 C524 1.574 . S
C516 C532 1.368 . S
H517 C525 0.950 . S
H518 C523 0.950 . S
H519 C524 0.949 . S
H520 C526 0.950 . S
H521 C527 0.950 . S
H522 C528 0.949 . S
C523 H518 0.950 . S
C523 C525 1.327 . S
C523 C529 1.429 . S
C524 C516 1.574 . S
C524 H519 0.949 . S
C524 C530 1.368 . S
C525 C509 1.349 . S
C525 H517 0.950 . S
C525 C523 1.327 . S
C526 C514 1.349 . S
C526 H520 0.950 . S
C526 C527 1.327 . S
C527 H521 0.950 . S
C527 C526 1.327 . S
C527 C531 1.429 . S
C528 C511 1.574 . S
C528 H522 0.949 . S
C528 C532 1.368 . S
C529 C510 1.429 . S
C529 C523 1.429 . S
C529 C530 1.523 . S
C530 C511 1.368 . S
C530 C524 1.368 . S
C530 C529 1.523 . S
C531 C515 1.429 . S
C531 C527 1.429 . S
C531 C532 1.523 . S
C532 C516 1.368 . S
C532 C528 1.368 . S
C532 C531 1.523 . S
H533 C508 0.950 . S
H534 C510 0.950 . S
H535 C511 0.949 . S
H536 C513 0.950 . S
H537 C515 0.950 . S
C538 C539 1.349 . S
C538 C540 1.327 . S
C538 H563 0.950 . S
C539 C538 1.349 . S
C539 C555 1.349 . S
C540 C538 1.327 . S
C540 C559 1.429 . S
C540 H564 0.950 . S
C541 C558 1.574 . S
C541 C560 1.368 . S
C541 H565 0.949 . S
H542 C546 0.949 . S
C543 C544 1.349 . S
C543 C545 1.327 . S
C543 H566 0.950 . S
C544 C543 1.349 . S
C544 C556 1.349 . S
C545 C543 1.327 . S
C545 C561 1.429 . S
C545 H567 0.950 . S
C546 H542 0.949 . S
C546 C554 1.574 . S
C546 C562 1.368 . S
H547 C555 0.950 . S
H548 C553 0.950 . S
H549 C554 0.949 . S
H550 C556 0.950 . S
H551 C557 0.950 . S
H552 C558 0.949 . S
C553 H548 0.950 . S
C553 C555 1.327 . S
C553 C559 1.429 . S
C554 C546 1.574 . S
C554 H549 0.949 . S
C554 C560 1.368 . S
C555 C539 1.349 . S
C555 H547 0.950 . S
C555 C553 1.327 . S
C556 C544 1.349 . S
C556 H550 0.950 . S
C556 C557 1.327 . S
C557 H551 0.950 . S
C557 C556 1.327 . S
C557 C561 1.429 . S
C558 C541 1.574 . S
C558 H552 0.949 . S
C558 C562 1.368 . S
C559 C540 1.429 . S
C559 C553 1.429 . S
C559 C560 1.523 . S
C560 C541 1.368 . S
C560 C554 1.368 . S
C560 C559 1.523 . S
C561 C545 1.429 . S
C561 C557 1.429 . S
C561 C562 1.523 . S
C562 C546 1.368 . S
C562 C558 1.368 . S
C562 C561 1.523 . S
H563 C538 0.950 . S
H564 C540 0.950 . S
H565 C541 0.949 . S
H566 C543 0.950 . S
H567 C545 0.950 . S
C568 C569 1.349 . S
C568 C570 1.327 . S
C568 H593 0.950 . S
C569 C568 1.349 . S
C569 C585 1.349 . S
C570 C568 1.327 . S
C570 C589 1.429 . S
C570 H594 0.950 . S
C571 C588 1.574 . S
C571 C590 1.368 . S
C571 H595 0.949 . S
H572 C576 0.949 . S
C573 C574 1.349 . S
C573 C575 1.327 . S
C573 H596 0.950 . S
C574 C573 1.349 . S
C574 C586 1.349 . S
C575 C573 1.327 . S
C575 C591 1.429 . S
C575 H597 0.950 . S
C576 H572 0.949 . S
C576 C584 1.574 . S
C576 C592 1.368 . S
H577 C585 0.950 . S
H578 C583 0.950 . S
H579 C584 0.949 . S
H580 C586 0.950 . S
H581 C587 0.950 . S
H582 C588 0.949 . S
C583 H578 0.950 . S
C583 C585 1.327 . S
C583 C589 1.429 . S
C584 C576 1.574 . S
C584 H579 0.949 . S
C584 C590 1.368 . S
C585 C569 1.349 . S
C585 H577 0.950 . S
C585 C583 1.327 . S
C586 C574 1.349 . S
C586 H580 0.950 . S
C586 C587 1.327 . S
C587 H581 0.950 . S
C587 C586 1.327 . S
C587 C591 1.429 . S
C588 C571 1.574 . S
C588 H582 0.949 . S
C588 C592 1.368 . S
C589 C570 1.429 . S
C589 C583 1.429 . S
C589 C590 1.523 . S
C590 C571 1.368 . S
C590 C584 1.368 . S
C590 C589 1.523 . S
C591 C575 1.429 . S
C591 C587 1.429 . S
C591 C592 1.523 . S
C592 C576 1.368 . S
C592 C588 1.368 . S
C592 C591 1.523 . S
H593 C568 0.950 . S
H594 C570 0.950 . S
H595 C571 0.949 . S
H596 C573 0.950 . S
H597 C575 0.950 . S
C598 C599 1.349 . S
C598 C600 1.327 . S
C598 H623 0.950 . S
C599 C598 1.349 . S
C599 C615 1.349 . S
C600 C598 1.327 . S
C600 C619 1.429 . S
C600 H624 0.950 . S
C601 C618 1.574 . S
C601 C620 1.368 . S
C601 H625 0.949 . S
H602 C606 0.949 . S
C603 C604 1.349 . S
C603 C605 1.327 . S
C603 H626 0.950 . S
C604 C603 1.349 . S
C604 C616 1.349 . S
C605 C603 1.327 . S
C605 C621 1.429 . S
C605 H627 0.950 . S
C606 H602 0.949 . S
C606 C614 1.574 . S
C606 C622 1.368 . S
H607 C615 0.950 . S
H608 C613 0.950 . S
H609 C614 0.949 . S
H610 C616 0.950 . S
H611 C617 0.950 . S
H612 C618 0.949 . S
C613 H608 0.950 . S
C613 C615 1.327 . S
C613 C619 1.429 . S
C614 C606 1.574 . S
C614 H609 0.949 . S
C614 C620 1.368 . S
C615 C599 1.349 . S
C615 H607 0.950 . S
C615 C613 1.327 . S
C616 C604 1.349 . S
C616 H610 0.950 . S
C616 C617 1.327 . S
C617 H611 0.950 . S
C617 C616 1.327 . S
C617 C621 1.429 . S
C618 C601 1.574 . S
C618 H612 0.949 . S
C618 C622 1.368 . S
C619 C600 1.429 . S
C619 C613 1.429 . S
C619 C620 1.523 . S
C620 C601 1.368 . S
C620 C614 1.368 . S
C620 C619 1.523 . S
C621 C605 1.429 . S
C621 C617 1.429 . S
C621 C622 1.523 . S
C622 C606 1.368 . S
C622 C618 1.368 . S
C622 C621 1.523 . S
H623 C598 0.950 . S
H624 C600 0.950 . S
H625 C601 0.949 . S
H626 C603 0.950 . S
H627 C605 0.950 . S
C628 C629 1.349 . S
C628 C630 1.327 . S
C628 H653 0.950 . S
C629 C628 1.349 . S
C629 C645 1.349 . S
C630 C628 1.327 . S
C630 C649 1.429 . S
C630 H654 0.950 . S
C631 C648 1.574 . S
C631 C650 1.368 . S
C631 H655 0.949 . S
H632 C636 0.949 . S
C633 C634 1.349 . S
C633 C635 1.327 . S
C633 H656 0.950 . S
C634 C633 1.349 . S
C634 C646 1.349 . S
C635 C633 1.327 . S
C635 C651 1.429 . S
C635 H657 0.950 . S
C636 H632 0.949 . S
C636 C644 1.574 . S
C636 C652 1.368 . S
H637 C645 0.950 . S
H638 C643 0.950 . S
H639 C644 0.949 . S
H640 C646 0.950 . S
H641 C647 0.950 . S
H642 C648 0.949 . S
C643 H638 0.950 . S
C643 C645 1.327 . S
C643 C649 1.429 . S
C644 C636 1.574 . S
C644 H639 0.949 . S
C644 C650 1.368 . S
C645 C629 1.349 . S
C645 H637 0.950 . S
C645 C643 1.327 . S
C646 C634 1.349 . S
C646 H640 0.950 . S
C646 C647 1.327 . S
C647 H641 0.950 . S
C647 C646 1.327 . S
C647 C651 1.429 . S
C648 C631 1.574 . S
C648 H642 0.949 . S
C648 C652 1.368 . S
C649 C630 1.429 . S
C649 C643 1.429 . S
C649 C650 1.523 . S
C650 C631 1.368 . S
C650 C644 1.368 . S
C650 C649 1.523 . S
C651 C635 1.429 . S
C651 C647 1.429 . S
C651 C652 1.523 . S
C652 C636 1.368 . S
C652 C648 1.368 . S
C652 C651 1.523 . S
H653 C628 0.950 . S
H654 C630 0.950 . S
H655 C631 0.949 . S
H656 C633 0.950 . S
H657 C635 0.950 . S
C658 C659 1.349 . S
C658 C660 1.327 . S
C658 H683 0.950 . S
C659 C658 1.349 . S
C659 C675 1.349 . S
C660 C658 1.327 . S
C660 C679 1.429 . S
C660 H684 0.950 . S
C661 C678 1.574 . S
C661 C680 1.368 . S
C661 H685 0.949 . S
H662 C666 0.949 . S
C663 C664 1.349 . S
C663 C665 1.327 . S
C663 H686 0.950 . S
C664 C663 1.349 . S
C664 C676 1.349 . S
C665 C663 1.327 . S
C665 C681 1.429 . S
C665 H687 0.950 . S
C666 H662 0.949 . S
C666 C674 1.574 . S
C666 C682 1.368 . S
H667 C675 0.950 . S
H668 C673 0.950 . S
H669 C674 0.949 . S
H670 C676 0.950 . S
H671 C677 0.950 . S
H672 C678 0.949 . S
C673 H668 0.950 . S
C673 C675 1.327 . S
C673 C679 1.429 . S
C674 C666 1.574 . S
C674 H669 0.949 . S
C674 C680 1.368 . S
C675 C659 1.349 . S
C675 H667 0.950 . S
C675 C673 1.327 . S
C676 C664 1.349 . S
C676 H670 0.950 . S
C676 C677 1.327 . S
C677 H671 0.950 . S
C677 C676 1.327 . S
C677 C681 1.429 . S
C678 C661 1.574 . S
C678 H672 0.949 . S
C678 C682 1.368 . S
C679 C660 1.429 . S
C679 C673 1.429 . S
C679 C680 1.523 . S
C680 C661 1.368 . S
C680 C674 1.368 . S
C680 C679 1.523 . S
C681 C665 1.429 . S
C681 C677 1.429 . S
C681 C682 1.523 . S
C682 C666 1.368 . S
C682 C678 1.368 . S
C682 C681 1.523 . S
H683 C658 0.950 . S
H684 C660 0.950 . S
H685 C661 0.949 . S
H686 C663 0.950 . S
H687 C665 0.950 . S
C688 C689 1.349 . S
C688 C690 1.327 . S
C688 H713 0.950 1_545 S
C689 C688 1.349 . S
C689 C705 1.349 . S
C690 C688 1.327 . S
C690 C709 1.429 . S
C690 H714 0.950 . S
C691 C708 1.574 . S
C691 C710 1.368 . S
C691 H715 0.949 . S
H692 C696 0.949 . S
C693 C694 1.349 . S
C693 C695 1.327 . S
C693 H716 0.950 . S
C694 C693 1.349 . S
C694 C706 1.349 . S
C695 C693 1.327 . S
C695 C711 1.429 . S
C695 H717 0.950 . S
C696 H692 0.949 . S
C696 C704 1.574 . S
C696 C712 1.368 . S
H697 C705 0.950 . S
H698 C703 0.950 . S
H699 C704 0.949 . S
H700 C706 0.950 . S
H701 C707 0.950 . S
H702 C708 0.949 . S
C703 H698 0.950 . S
C703 C705 1.327 . S
C703 C709 1.429 . S
C704 C696 1.574 . S
C704 H699 0.949 . S
C704 C710 1.368 . S
C705 C689 1.349 . S
C705 H697 0.950 . S
C705 C703 1.327 . S
C706 C694 1.349 . S
C706 H700 0.950 . S
C706 C707 1.327 . S
C707 H701 0.950 . S
C707 C706 1.327 . S
C707 C711 1.429 . S
C708 C691 1.574 . S
C708 H702 0.949 . S
C708 C712 1.368 . S
C709 C690 1.429 . S
C709 C703 1.429 . S
C709 C710 1.523 . S
C710 C691 1.368 . S
C710 C704 1.368 . S
C710 C709 1.523 . S
C711 C695 1.429 . S
C711 C707 1.429 . S
C711 C712 1.523 . S
C712 C696 1.368 . S
C712 C708 1.368 . S
C712 C711 1.523 . S
H713 C688 0.950 1_565 S
H714 C690 0.950 . S
H715 C691 0.949 . S
H716 C693 0.950 . S
H717 C695 0.950 . S
C718 C719 1.349 . S
C718 C720 1.327 . S
C718 H743 0.950 . S
C719 C718 1.349 . S
C719 C735 1.349 . S
C720 C718 1.327 . S
C720 C739 1.429 . S
C720 H744 0.950 . S
C721 C738 1.574 . S
C721 C740 1.368 . S
C721 H745 0.949 . S
H722 C726 0.949 . S
C723 C724 1.349 . S
C723 C725 1.327 . S
C723 H746 0.950 1_455 S
C724 C723 1.349 . S
C724 C736 1.349 . S
C725 C723 1.327 . S
C725 C741 1.429 . S
C725 H747 0.950 . S
C726 H722 0.949 . S
C726 C734 1.574 . S
C726 C742 1.368 . S
H727 C735 0.950 . S
H728 C733 0.950 . S
H729 C734 0.949 . S
H730 C736 0.950 . S
H731 C737 0.950 . S
H732 C738 0.949 . S
C733 H728 0.950 . S
C733 C735 1.327 . S
C733 C739 1.429 . S
C734 C726 1.574 . S
C734 H729 0.949 . S
C734 C740 1.368 . S
C735 C719 1.349 . S
C735 H727 0.950 . S
C735 C733 1.327 . S
C736 C724 1.349 . S
C736 H730 0.950 . S
C736 C737 1.327 . S
C737 H731 0.950 . S
C737 C736 1.327 . S
C737 C741 1.429 . S
C738 C721 1.574 . S
C738 H732 0.949 . S
C738 C742 1.368 . S
C739 C720 1.429 . S
C739 C733 1.429 . S
C739 C740 1.523 . S
C740 C721 1.368 . S
C740 C734 1.368 . S
C740 C739 1.523 . S
C741 C725 1.429 . S
C741 C737 1.429 . S
C741 C742 1.523 . S
C742 C726 1.368 . S
C742 C738 1.368 . S
C742 C741 1.523 . S
H743 C718 0.950 . S
H744 C720 0.950 . S
H745 C721 0.949 . S
H746 C723 0.950 1_655 S
H747 C725 0.950 . S
C748 C749 1.349 . S
C748 C750 1.327 . S
C748 H773 0.950 1_565 S
C749 C748 1.349 . S
C749 C765 1.349 . S
C750 C748 1.327 . S
C750 C769 1.429 . S
C750 H774 0.950 . S
C751 C768 1.574 . S
C751 C770 1.368 . S
C751 H775 0.949 . S
H752 C756 0.949 . S
C753 C754 1.349 . S
C753 C755 1.327 . S
C753 H776 0.950 . S
C754 C753 1.349 . S
C754 C766 1.349 . S
C755 C753 1.327 . S
C755 C771 1.429 . S
C755 H777 0.950 . S
C756 H752 0.949 . S
C756 C764 1.574 . S
C756 C772 1.368 . S
H757 C765 0.950 . S
H758 C763 0.950 . S
H759 C764 0.949 . S
H760 C766 0.950 . S
H761 C767 0.950 . S
H762 C768 0.949 . S
C763 H758 0.950 . S
C763 C765 1.327 . S
C763 C769 1.429 . S
C764 C756 1.574 . S
C764 H759 0.949 . S
C764 C770 1.368 . S
C765 C749 1.349 . S
C765 H757 0.950 . S
C765 C763 1.327 . S
C766 C754 1.349 . S
C766 H760 0.950 . S
C766 C767 1.327 . S
C767 H761 0.950 . S
C767 C766 1.327 . S
C767 C771 1.429 . S
C768 C751 1.574 . S
C768 H762 0.949 . S
C768 C772 1.368 . S
C769 C750 1.429 . S
C769 C763 1.429 . S
C769 C770 1.523 . S
C770 C751 1.368 . S
C770 C764 1.368 . S
C770 C769 1.523 . S
C771 C755 1.429 . S
C771 C767 1.429 . S
C771 C772 1.523 . S
C772 C756 1.368 . S
C772 C768 1.368 . S
C772 C771 1.523 . S
H773 C748 0.950 1_545 S
H774 C750 0.950 . S
H775 C751 0.949 . S
H776 C753 0.950 . S
H777 C755 0.950 . S
C778 C779 1.349 . S
C778 C780 1.327 . S
C778 H803 0.950 . S
C779 C778 1.349 . S
C779 C795 1.349 . S
C780 C778 1.327 . S
C780 C799 1.429 . S
C780 H804 0.950 . S
C781 C798 1.574 . S
C781 C800 1.368 . S
C781 H805 0.949 . S
H782 C786 0.949 . S
C783 C784 1.349 . S
C783 C785 1.327 . S
C783 H806 0.950 1_655 S
C784 C783 1.349 . S
C784 C796 1.349 . S
C785 C783 1.327 . S
C785 C801 1.429 . S
C785 H807 0.950 . S
C786 H782 0.949 . S
C786 C794 1.574 . S
C786 C802 1.368 . S
H787 C795 0.950 . S
H788 C793 0.950 . S
H789 C794 0.949 . S
H790 C796 0.950 . S
H791 C797 0.950 . S
H792 C798 0.949 . S
C793 H788 0.950 . S
C793 C795 1.327 . S
C793 C799 1.429 . S
C794 C786 1.574 . S
C794 H789 0.949 . S
C794 C800 1.368 . S
C795 C779 1.349 . S
C795 H787 0.950 . S
C795 C793 1.327 . S
C796 C784 1.349 . S
C796 H790 0.950 . S
C796 C797 1.327 . S
C797 H791 0.950 . S
C797 C796 1.327 . S
C797 C801 1.429 . S
C798 C781 1.574 . S
C798 H792 0.949 . S
C798 C802 1.368 . S
C799 C780 1.429 . S
C799 C793 1.429 . S
C799 C800 1.523 . S
C800 C781 1.368 . S
C800 C794 1.368 . S
C800 C799 1.523 . S
C801 C785 1.429 . S
C801 C797 1.429 . S
C801 C802 1.523 . S
C802 C786 1.368 . S
C802 C798 1.368 . S
C802 C801 1.523 . S
H803 C778 0.950 . S
H804 C780 0.950 . S
H805 C781 0.949 . S
H806 C783 0.950 1_455 S
H807 C785 0.950 . S
C808 C809 1.349 . S
C808 C810 1.327 . S
C808 H833 0.950 . S
C809 C808 1.349 . S
C809 C825 1.349 . S
C810 C808 1.327 . S
C810 C829 1.429 . S
C810 H834 0.950 . S
C811 C828 1.574 . S
C811 C830 1.368 . S
C811 H835 0.949 . S
H812 C816 0.949 . S
C813 C814 1.349 . S
C813 C815 1.327 . S
C813 H836 0.950 . S
C814 C813 1.349 . S
C814 C826 1.349 . S
C815 C813 1.327 . S
C815 C831 1.429 . S
C815 H837 0.950 . S
C816 H812 0.949 . S
C816 C824 1.574 . S
C816 C832 1.368 . S
H817 C825 0.950 1_545 S
H818 C823 0.950 . S
H819 C824 0.949 . S
H820 C826 0.950 . S
H821 C827 0.950 . S
H822 C828 0.949 . S
C823 H818 0.950 . S
C823 C825 1.327 . S
C823 C829 1.429 . S
C824 C816 1.574 . S
C824 H819 0.949 . S
C824 C830 1.368 . S
C825 C809 1.349 . S
C825 H817 0.950 1_565 S
C825 C823 1.327 . S
C826 C814 1.349 . S
C826 H820 0.950 . S
C826 C827 1.327 . S
C827 H821 0.950 . S
C827 C826 1.327 . S
C827 C831 1.429 . S
C828 C811 1.574 . S
C828 H822 0.949 . S
C828 C832 1.368 . S
C829 C810 1.429 . S
C829 C823 1.429 . S
C829 C830 1.523 . S
C830 C811 1.368 . S
C830 C824 1.368 . S
C830 C829 1.523 . S
C831 C815 1.429 . S
C831 C827 1.429 . S
C831 C832 1.523 . S
C832 C816 1.368 . S
C832 C828 1.368 . S
C832 C831 1.523 . S
H833 C808 0.950 . S
H834 C810 0.950 . S
H835 C811 0.949 . S
H836 C813 0.950 . S
H837 C815 0.950 . S
C838 C839 1.349 . S
C838 C840 1.327 . S
C838 H863 0.950 . S
C839 C838 1.349 . S
C839 C855 1.349 . S
C840 C838 1.327 . S
C840 C859 1.429 . S
C840 H864 0.950 . S
C841 C858 1.574 . S
C841 C860 1.368 . S
C841 H865 0.949 . S
H842 C846 0.949 . S
C843 C844 1.349 . S
C843 C845 1.327 . S
C843 H866 0.950 . S
C844 C843 1.349 . S
C844 C856 1.349 . S
C845 C843 1.327 . S
C845 C861 1.429 . S
C845 H867 0.950 . S
C846 H842 0.949 . S
C846 C854 1.574 . S
C846 C862 1.368 . S
H847 C855 0.950 . S
H848 C853 0.950 . S
H849 C854 0.949 . S
H850 C856 0.950 1_455 S
H851 C857 0.950 . S
H852 C858 0.949 . S
C853 H848 0.950 . S
C853 C855 1.327 . S
C853 C859 1.429 . S
C854 C846 1.574 . S
C854 H849 0.949 . S
C854 C860 1.368 . S
C855 C839 1.349 . S
C855 H847 0.950 . S
C855 C853 1.327 . S
C856 C844 1.349 . S
C856 H850 0.950 1_655 S
C856 C857 1.327 . S
C857 H851 0.950 . S
C857 C856 1.327 . S
C857 C861 1.429 . S
C858 C841 1.574 . S
C858 H852 0.949 . S
C858 C862 1.368 . S
C859 C840 1.429 . S
C859 C853 1.429 . S
C859 C860 1.523 . S
C860 C841 1.368 . S
C860 C854 1.368 . S
C860 C859 1.523 . S
C861 C845 1.429 . S
C861 C857 1.429 . S
C861 C862 1.523 . S
C862 C846 1.368 . S
C862 C858 1.368 . S
C862 C861 1.523 . S
H863 C838 0.950 . S
H864 C840 0.950 . S
H865 C841 0.949 . S
H866 C843 0.950 . S
H867 C845 0.950 . S
C868 C869 1.349 . S
C868 C870 1.327 . S
C868 H893 0.950 . S
C869 C868 1.349 . S
C869 C885 1.349 . S
C870 C868 1.327 . S
C870 C889 1.429 . S
C870 H894 0.950 . S
C871 C888 1.574 . S
C871 C890 1.368 . S
C871 H895 0.949 . S
H872 C876 0.949 . S
C873 C874 1.349 . S
C873 C875 1.327 . S
C873 H896 0.950 . S
C874 C873 1.349 . S
C874 C886 1.349 . S
C875 C873 1.327 . S
C875 C891 1.429 . S
C875 H897 0.950 . S
C876 H872 0.949 . S
C876 C884 1.574 . S
C876 C892 1.368 . S
H877 C885 0.950 . S
H878 C883 0.950 . S
H879 C884 0.949 . S
H880 C886 0.950 . S
H881 C887 0.950 . S
H882 C888 0.949 . S
C883 H878 0.950 . S
C883 C885 1.327 . S
C883 C889 1.429 . S
C884 C876 1.574 . S
C884 H879 0.949 . S
C884 C890 1.368 . S
C885 C869 1.349 . S
C885 H877 0.950 . S
C885 C883 1.327 . S
C886 C874 1.349 . S
C886 H880 0.950 . S
C886 C887 1.327 . S
C887 H881 0.950 . S
C887 C886 1.327 . S
C887 C891 1.429 . S
C888 C871 1.574 . S
C888 H882 0.949 . S
C888 C892 1.368 . S
C889 C870 1.429 . S
C889 C883 1.429 . S
C889 C890 1.523 . S
C890 C871 1.368 . S
C890 C884 1.368 . S
C890 C889 1.523 . S
C891 C875 1.429 . S
C891 C887 1.429 . S
C891 C892 1.523 . S
C892 C876 1.368 . S
C892 C888 1.368 . S
C892 C891 1.523 . S
H893 C868 0.950 . S
H894 C870 0.950 . S
H895 C871 0.949 . S
H896 C873 0.950 . S
H897 C875 0.950 . S
C898 C899 1.349 . S
C898 C900 1.327 . S
C898 H923 0.950 . S
C899 C898 1.349 . S
C899 C915 1.349 . S
C900 C898 1.327 . S
C900 C919 1.429 . S
C900 H924 0.950 . S
C901 C918 1.574 . S
C901 C920 1.368 . S
C901 H925 0.949 . S
H902 C906 0.949 . S
C903 C904 1.349 . S
C903 C905 1.327 . S
C903 H926 0.950 1_455 S
C904 C903 1.349 . S
C904 C916 1.349 . S
C905 C903 1.327 . S
C905 C921 1.429 . S
C905 H927 0.950 . S
C906 H902 0.949 . S
C906 C914 1.574 . S
C906 C922 1.368 . S
H907 C915 0.950 . S
H908 C913 0.950 . S
H909 C914 0.949 . S
H910 C916 0.950 . S
H911 C917 0.950 . S
H912 C918 0.949 . S
C913 H908 0.950 . S
C913 C915 1.327 . S
C913 C919 1.429 . S
C914 C906 1.574 . S
C914 H909 0.949 . S
C914 C920 1.368 . S
C915 C899 1.349 . S
C915 H907 0.950 . S
C915 C913 1.327 . S
C916 C904 1.349 . S
C916 H910 0.950 . S
C916 C917 1.327 . S
C917 H911 0.950 . S
C917 C916 1.327 . S
C917 C921 1.429 . S
C918 C901 1.574 . S
C918 H912 0.949 . S
C918 C922 1.368 . S
C919 C900 1.429 . S
C919 C913 1.429 . S
C919 C920 1.523 . S
C920 C901 1.368 . S
C920 C914 1.368 . S
C920 C919 1.523 . S
C921 C905 1.429 . S
C921 C917 1.429 . S
C921 C922 1.523 . S
C922 C906 1.368 . S
C922 C918 1.368 . S
C922 C921 1.523 . S
H923 C898 0.950 . S
H924 C900 0.950 . S
H925 C901 0.949 . S
H926 C903 0.950 1_655 S
H927 C905 0.950 . S
C928 C929 1.349 . S
C928 C930 1.327 . S
C928 H953 0.950 . S
C929 C928 1.349 . S
C929 C945 1.349 . S
C930 C928 1.327 . S
C930 C949 1.429 . S
C930 H954 0.950 . S
C931 C948 1.574 . S
C931 C950 1.368 . S
C931 H955 0.949 . S
H932 C936 0.949 . S
C933 C934 1.349 . S
C933 C935 1.327 . S
C933 H956 0.950 . S
C934 C933 1.349 . S
C934 C946 1.349 . S
C935 C933 1.327 . S
C935 C951 1.429 . S
C935 H957 0.950 . S
C936 H932 0.949 . S
C936 C944 1.574 . S
C936 C952 1.368 . S
H937 C945 0.950 . S
H938 C943 0.950 . S
H939 C944 0.949 . S
H940 C946 0.950 . S
H941 C947 0.950 . S
H942 C948 0.949 . S
C943 H938 0.950 . S
C943 C945 1.327 . S
C943 C949 1.429 . S
C944 C936 1.574 . S
C944 H939 0.949 . S
C944 C950 1.368 . S
C945 C929 1.349 . S
C945 H937 0.950 . S
C945 C943 1.327 . S
C946 C934 1.349 . S
C946 H940 0.950 . S
C946 C947 1.327 . S
C947 H941 0.950 . S
C947 C946 1.327 . S
C947 C951 1.429 . S
C948 C931 1.574 . S
C948 H942 0.949 . S
C948 C952 1.368 . S
C949 C930 1.429 . S
C949 C943 1.429 . S
C949 C950 1.523 . S
C950 C931 1.368 . S
C950 C944 1.368 . S
C950 C949 1.523 . S
C951 C935 1.429 . S
C951 C947 1.429 . S
C951 C952 1.523 . S
C952 C936 1.368 . S
C952 C948 1.368 . S
C952 C951 1.523 . S
H953 C928 0.950 . S
H954 C930 0.950 . S
H955 C931 0.949 . S
H956 C933 0.950 . S
H957 C935 0.950 . S
C958 C959 1.349 . S
C958 C960 1.327 . S
C958 H983 0.950 . S
C959 C958 1.349 . S
C959 C975 1.349 . S
C960 C958 1.327 . S
C960 C979 1.429 . S
C960 H984 0.950 . S
C961 C978 1.574 . S
C961 C980 1.368 . S
C961 H985 0.949 . S
H962 C966 0.949 . S
C963 C964 1.349 . S
C963 C965 1.327 . S
C963 H986 0.950 . S
C964 C963 1.349 . S
C964 C976 1.349 . S
C965 C963 1.327 . S
C965 C981 1.429 . S
C965 H987 0.950 . S
C966 H962 0.949 . S
C966 C974 1.574 . S
C966 C982 1.368 . S
H967 C975 0.950 . S
H968 C973 0.950 . S
H969 C974 0.949 . S
H970 C976 0.950 . S
H971 C977 0.950 . S
H972 C978 0.949 . S
C973 H968 0.950 . S
C973 C975 1.327 . S
C973 C979 1.429 . S
C974 C966 1.574 . S
C974 H969 0.949 . S
C974 C980 1.368 . S
C975 C959 1.349 . S
C975 H967 0.950 . S
C975 C973 1.327 . S
C976 C964 1.349 . S
C976 H970 0.950 . S
C976 C977 1.327 . S
C977 H971 0.950 . S
C977 C976 1.327 . S
C977 C981 1.429 . S
C978 C961 1.574 . S
C978 H972 0.949 . S
C978 C982 1.368 . S
C979 C960 1.429 . S
C979 C973 1.429 . S
C979 C980 1.523 . S
C980 C961 1.368 . S
C980 C974 1.368 . S
C980 C979 1.523 . S
C981 C965 1.429 . S
C981 C977 1.429 . S
C981 C982 1.523 . S
C982 C966 1.368 . S
C982 C978 1.368 . S
C982 C981 1.523 . S
H983 C958 0.950 . S
H984 C960 0.950 . S
H985 C961 0.949 . S
H986 C963 0.950 . S
H987 C965 0.950 . S
C988 C989 1.349 . S
C988 C990 1.327 . S
C988 H1013 0.950 . S
C989 C988 1.349 . S
C989 C1005 1.349 . S
C990 C988 1.327 . S
C990 C1009 1.429 . S
C990 H1014 0.950 . S
C991 C1008 1.574 . S
C991 C1010 1.368 . S
C991 H1015 0.949 . S
H992 C996 0.949 . S
C993 C994 1.349 . S
C993 C995 1.327 . S
C993 H1016 0.950 . S
C994 C993 1.349 . S
C994 C1006 1.349 . S
C995 C993 1.327 . S
C995 C1011 1.429 . S
C995 H1017 0.950 . S
C996 H992 0.949 . S
C996 C1004 1.574 . S
C996 C1012 1.368 . S
H997 C1005 0.950 . S
H998 C1003 0.950 . S
H999 C1004 0.949 . S
H1000 C1006 0.950 . S
H1001 C1007 0.950 . S
H1002 C1008 0.949 . S
C1003 H998 0.950 . S
C1003 C1005 1.327 . S
C1003 C1009 1.429 . S
C1004 C996 1.574 . S
C1004 H999 0.949 . S
C1004 C1010 1.368 . S
C1005 C989 1.349 . S
C1005 H997 0.950 . S
C1005 C1003 1.327 . S
C1006 C994 1.349 . S
C1006 H1000 0.950 . S
C1006 C1007 1.327 . S
C1007 H1001 0.950 . S
C1007 C1006 1.327 . S
C1007 C1011 1.429 . S
C1008 C991 1.574 . S
C1008 H1002 0.949 . S
C1008 C1012 1.368 . S
C1009 C990 1.429 . S
C1009 C1003 1.429 . S
C1009 C1010 1.523 . S
C1010 C991 1.368 . S
C1010 C1004 1.368 . S
C1010 C1009 1.523 . S
C1011 C995 1.429 . S
C1011 C1007 1.429 . S
C1011 C1012 1.523 . S
C1012 C996 1.368 . S
C1012 C1008 1.368 . S
C1012 C1011 1.523 . S
H1013 C988 0.950 . S
H1014 C990 0.950 . S
H1015 C991 0.949 . S
H1016 C993 0.950 . S
H1017 C995 0.950 . S
C1018 C1019 1.349 . S
C1018 C1020 1.327 . S
C1018 H1043 0.950 . S
C1019 C1018 1.349 . S
C1019 C1035 1.349 . S
C1020 C1018 1.327 . S
C1020 C1039 1.429 . S
C1020 H1044 0.950 . S
C1021 C1038 1.574 . S
C1021 C1040 1.368 . S
C1021 H1045 0.949 . S
H1022 C1026 0.949 . S
C1023 C1024 1.349 . S
C1023 C1025 1.327 . S
C1023 H1046 0.950 . S
C1024 C1023 1.349 . S
C1024 C1036 1.349 . S
C1025 C1023 1.327 . S
C1025 C1041 1.429 . S
C1025 H1047 0.950 . S
C1026 H1022 0.949 . S
C1026 C1034 1.574 . S
C1026 C1042 1.368 . S
H1027 C1035 0.950 . S
H1028 C1033 0.950 . S
H1029 C1034 0.949 . S
H1030 C1036 0.950 . S
H1031 C1037 0.950 . S
H1032 C1038 0.949 . S
C1033 H1028 0.950 . S
C1033 C1035 1.327 . S
C1033 C1039 1.429 . S
C1034 C1026 1.574 . S
C1034 H1029 0.949 . S
C1034 C1040 1.368 . S
C1035 C1019 1.349 . S
C1035 H1027 0.950 . S
C1035 C1033 1.327 . S
C1036 C1024 1.349 . S
C1036 H1030 0.950 . S
C1036 C1037 1.327 . S
C1037 H1031 0.950 . S
C1037 C1036 1.327 . S
C1037 C1041 1.429 . S
C1038 C1021 1.574 . S
C1038 H1032 0.949 . S
C1038 C1042 1.368 . S
C1039 C1020 1.429 . S
C1039 C1033 1.429 . S
C1039 C1040 1.523 . S
C1040 C1021 1.368 . S
C1040 C1034 1.368 . S
C1040 C1039 1.523 . S
C1041 C1025 1.429 . S
C1041 C1037 1.429 . S
C1041 C1042 1.523 . S
C1042 C1026 1.368 . S
C1042 C1038 1.368 . S
C1042 C1041 1.523 . S
H1043 C1018 0.950 . S
H1044 C1020 0.950 . S
H1045 C1021 0.949 . S
H1046 C1023 0.950 . S
H1047 C1025 0.950 . S
C1048 C1049 1.349 . S
C1048 C1050 1.327 . S
C1048 H1073 0.950 . S
C1049 C1048 1.349 . S
C1049 C1065 1.349 . S
C1050 C1048 1.327 . S
C1050 C1069 1.429 . S
C1050 H1074 0.950 1_545 S
C1051 C1068 1.574 1_554 S
C1051 C1070 1.368 . S
C1051 H1075 0.949 . S
H1052 C1056 0.949 . S
C1053 C1054 1.349 . S
C1053 C1055 1.327 . S
C1053 H1076 0.950 . S
C1054 C1053 1.349 . S
C1054 C1066 1.349 . S
C1055 C1053 1.327 . S
C1055 C1071 1.429 . S
C1055 H1077 0.950 1_565 S
C1056 H1052 0.949 . S
C1056 C1064 1.574 1_556 S
C1056 C1072 1.368 . S
H1057 C1065 0.950 . S
H1058 C1063 0.950 . S
H1059 C1064 0.949 . S
H1060 C1066 0.950 . S
H1061 C1067 0.950 . S
H1062 C1068 0.949 . S
C1063 H1058 0.950 . S
C1063 C1065 1.327 . S
C1063 C1069 1.429 . S
C1064 C1056 1.574 1_554 S
C1064 H1059 0.949 . S
C1064 C1070 1.368 1_565 S
C1065 C1049 1.349 . S
C1065 H1057 0.950 . S
C1065 C1063 1.327 . S
C1066 C1054 1.349 . S
C1066 H1060 0.950 . S
C1066 C1067 1.327 . S
C1067 H1061 0.950 . S
C1067 C1066 1.327 . S
C1067 C1071 1.429 . S
C1068 C1051 1.574 1_556 S
C1068 H1062 0.949 . S
C1068 C1072 1.368 1_545 S
C1069 C1050 1.429 . S
C1069 C1063 1.429 . S
C1069 C1070 1.523 . S
C1070 C1051 1.368 . S
C1070 C1064 1.368 1_545 S
C1070 C1069 1.523 . S
C1071 C1055 1.429 . S
C1071 C1067 1.429 . S
C1071 C1072 1.523 . S
C1072 C1056 1.368 . S
C1072 C1068 1.368 1_565 S
C1072 C1071 1.523 . S
H1073 C1048 0.950 . S
H1074 C1050 0.950 1_565 S
H1075 C1051 0.949 . S
H1076 C1053 0.950 . S
H1077 C1055 0.950 1_545 S
C1078 C1079 1.349 . S
C1078 C1080 1.327 . S
C1078 H1103 0.950 . S
C1079 C1078 1.349 . S
C1079 C1095 1.349 . S
C1080 C1078 1.327 . S
C1080 C1099 1.429 . S
C1080 H1104 0.950 . S
C1081 C1098 1.574 1_556 S
C1081 C1100 1.368 1_655 S
C1081 H1105 0.949 . S
H1082 C1086 0.949 . S
C1083 C1084 1.349 . S
C1083 C1085 1.327 . S
C1083 H1106 0.950 . S
C1084 C1083 1.349 . S
C1084 C1096 1.349 . S
C1085 C1083 1.327 . S
C1085 C1101 1.429 . S
C1085 H1107 0.950 . S
C1086 H1082 0.949 . S
C1086 C1094 1.574 1_554 S
C1086 C1102 1.368 1_455 S
H1087 C1095 0.950 . S
H1088 C1093 0.940 1_655 S
H1089 C1094 0.949 . S
H1090 C1096 0.950 . S
H1091 C1097 0.940 1_455 S
H1092 C1098 0.949 . S
C1093 H1088 0.940 1_455 S
C1093 C1095 1.327 . S
C1093 C1099 1.429 . S
C1094 C1086 1.574 1_556 S
C1094 H1089 0.949 . S
C1094 C1100 1.368 . S
C1095 C1079 1.349 . S
C1095 H1087 0.950 . S
C1095 C1093 1.327 . S
C1096 C1084 1.349 . S
C1096 H1090 0.950 . S
C1096 C1097 1.327 . S
C1097 H1091 0.940 1_655 S
C1097 C1096 1.327 . S
C1097 C1101 1.429 . S
C1098 C1081 1.574 1_554 S
C1098 H1092 0.949 . S
C1098 C1102 1.368 . S
C1099 C1080 1.429 . S
C1099 C1093 1.429 . S
C1099 C1100 1.523 . S
C1100 C1081 1.368 1_455 S
C1100 C1094 1.368 . S
C1100 C1099 1.523 . S
C1101 C1085 1.429 . S
C1101 C1097 1.429 . S
C1101 C1102 1.523 . S
C1102 C1086 1.368 1_655 S
C1102 C1098 1.368 . S
C1102 C1101 1.523 . S
H1103 C1078 0.950 . S
H1104 C1080 0.950 . S
H1105 C1081 0.949 . S
H1106 C1083 0.950 . S
H1107 C1085 0.950 . S
C1108 C1109 1.349 . S
C1108 C1110 1.327 . S
C1108 H1133 0.950 . S
C1109 C1108 1.349 . S
C1109 C1125 1.349 . S
C1110 C1108 1.327 . S
C1110 C1129 1.429 . S
C1110 H1134 0.950 1_545 S
C1111 C1128 1.574 1_556 S
C1111 C1130 1.368 . S
C1111 H1135 0.949 . S
H1112 C1116 0.949 . S
C1113 C1114 1.349 . S
C1113 C1115 1.327 . S
C1113 H1136 0.950 . S
C1114 C1113 1.349 . S
C1114 C1126 1.349 . S
C1115 C1113 1.327 . S
C1115 C1131 1.429 . S
C1115 H1137 0.950 1_565 S
C1116 H1112 0.949 . S
C1116 C1124 1.574 1_554 S
C1116 C1132 1.368 . S
H1117 C1125 0.950 . S
H1118 C1123 0.950 . S
H1119 C1124 0.949 . S
H1120 C1126 0.950 . S
H1121 C1127 0.950 . S
H1122 C1128 0.949 . S
C1123 H1118 0.950 . S
C1123 C1125 1.327 . S
C1123 C1129 1.429 . S
C1124 C1116 1.574 1_556 S
C1124 H1119 0.949 . S
C1124 C1130 1.368 1_565 S
C1125 C1109 1.349 . S
C1125 H1117 0.950 . S
C1125 C1123 1.327 . S
C1126 C1114 1.349 . S
C1126 H1120 0.950 . S
C1126 C1127 1.327 . S
C1127 H1121 0.950 . S
C1127 C1126 1.327 . S
C1127 C1131 1.429 . S
C1128 C1111 1.574 1_554 S
C1128 H1122 0.949 . S
C1128 C1132 1.368 1_545 S
C1129 C1110 1.429 . S
C1129 C1123 1.429 . S
C1129 C1130 1.523 . S
C1130 C1111 1.368 . S
C1130 C1124 1.368 1_545 S
C1130 C1129 1.523 . S
C1131 C1115 1.429 . S
C1131 C1127 1.429 . S
C1131 C1132 1.523 . S
C1132 C1116 1.368 . S
C1132 C1128 1.368 1_565 S
C1132 C1131 1.523 . S
H1133 C1108 0.950 . S
H1134 C1110 0.950 1_565 S
H1135 C1111 0.949 . S
H1136 C1113 0.950 . S
H1137 C1115 0.950 1_545 S
C1138 C1139 1.349 . S
C1138 C1140 1.327 . S
C1138 H1163 0.950 . S
C1139 C1138 1.349 . S
C1139 C1155 1.349 . S
C1140 C1138 1.327 . S
C1140 C1159 1.429 . S
C1140 H1164 0.940 1_655 S
C1141 C1158 1.574 1_556 S
C1141 C1160 1.368 . S
C1141 H1165 0.949 . S
H1142 C1146 0.949 . S
C1143 C1144 1.349 . S
C1143 C1145 1.327 . S
C1143 H1166 0.950 . S
C1144 C1143 1.349 . S
C1144 C1156 1.349 . S
C1145 C1143 1.327 . S
C1145 C1161 1.429 . S
C1145 H1167 0.940 1_455 S
C1146 H1142 0.949 . S
C1146 C1154 1.574 1_554 S
C1146 C1162 1.368 . S
H1147 C1155 0.950 . S
H1148 C1153 0.950 . S
H1149 C1154 0.949 . S
H1150 C1156 0.950 . S
H1151 C1157 0.950 . S
H1152 C1158 0.949 . S
C1153 H1148 0.950 . S
C1153 C1155 1.327 . S
C1153 C1159 1.429 . S
C1154 C1146 1.574 1_556 S
C1154 H1149 0.949 . S
C1154 C1160 1.368 1_455 S
C1155 C1139 1.349 . S
C1155 H1147 0.950 . S
C1155 C1153 1.327 . S
C1156 C1144 1.349 . S
C1156 H1150 0.950 . S
C1156 C1157 1.327 . S
C1157 H1151 0.950 . S
C1157 C1156 1.327 . S
C1157 C1161 1.429 . S
C1158 C1141 1.574 1_554 S
C1158 H1152 0.949 . S
C1158 C1162 1.368 1_655 S
C1159 C1140 1.429 . S
C1159 C1153 1.429 . S
C1159 C1160 1.523 . S
C1160 C1141 1.368 . S
C1160 C1154 1.368 1_655 S
C1160 C1159 1.523 . S
C1161 C1145 1.429 . S
C1161 C1157 1.429 . S
C1161 C1162 1.523 . S
C1162 C1146 1.368 . S
C1162 C1158 1.368 1_455 S
C1162 C1161 1.523 . S
H1163 C1138 0.950 . S
H1164 C1140 0.940 1_455 S
H1165 C1141 0.949 . S
H1166 C1143 0.950 . S
H1167 C1145 0.940 1_655 S
C209 C0 1.025 . S
C214 C91 1.025 . S
C239 C13 1.025 . S
C244 C52 1.025 . S
C269 C65 1.025 . S
C274 C26 1.025 . S
C299 C39 1.025 . S
C304 C78 1.025 . S
C329 C104 1.025 . S
C334 C195 1.025 . S
C359 C156 1.025 . S
C364 C117 1.025 . S
C389 C169 1.025 . S
C394 C130 1.025 . S
C419 C182 1.025 . S
C424 C143 1.025 . S
C449 C5 1.008 . S
C454 C153 1.080 . S
C479 C18 1.008 . S
C484 C114 1.080 . S
C509 C127 1.080 . S
C514 C31 1.008 . S
C539 C44 1.008 . S
C544 C140 1.080 . S
C569 C57 1.008 . S
C574 C179 1.080 . S
C599 C192 1.080 . S
C604 C70 1.008 . S
C629 C83 1.008 . S
C634 C205 1.080 . S
C659 C166 1.080 . S
C664 C96 1.008 . S
C689 C109 1.008 1_545 S
C694 C49 1.080 . S
C719 C10 1.080 . S
C724 C122 1.008 1_455 S
C749 C135 1.008 1_565 S
C754 C23 1.080 . S
C779 C36 1.080 . S
C784 C148 1.008 1_655 S
C809 C161 1.008 1_565 S
C814 C75 1.080 . S
C839 C88 1.080 . S
C844 C174 1.008 1_655 S
C869 C101 1.080 . S
C874 C187 1.008 1_545 S
C899 C62 1.080 . S
C904 C200 1.008 1_455 S
C929 C60 1.548 . S
C934 C8 1.548 . S
C959 C73 1.547 . S
C964 C21 1.547 . S
C989 C34 1.547 . S
C994 C86 1.547 . S
C1019 C99 1.548 . S
C1024 C47 1.548 . S
C1049 C164 1.548 . S
C1054 C112 1.548 . S
C1079 C177 1.548 . S
C1084 C125 1.548 . S
C1109 C138 1.548 . S
C1114 C190 1.548 . S
C1139 C203 1.548 . S
C1144 C151 1.548 . S
