# Generated by pormake.
# Topology mok, (4)-cn, num edge types: 1
# Building blocks:
#     Node 0, Type 0, BuildingBlock: KUFVIS_clean_sbu_0, # of connection points: 4
#     Node 1, Type 0, BuildingBlock: KUFVIS_clean_sbu_0, # of connection points: 4
#     Node 2, Type 0, BuildingBlock: KUFVIS_clean_sbu_0, # of connection points: 4
#     Node 3, Type 0, BuildingBlock: KUFVIS_clean_sbu_0, # of connection points: 4
#     Node 4, Type 0, BuildingBlock: KUFVIS_clean_sbu_0, # of connection points: 4
#     Node 5, Type 0, BuildingBlock: KUFVIS_clean_sbu_0, # of connection points: 4
#     Node 6, Type 0, BuildingBlock: KUFVIS_clean_sbu_0, # of connection points: 4
#     Node 7, Type 0, BuildingBlock: KUFVIS_clean_sbu_0, # of connection points: 4
#     Edge 8, Type (0, 0), BuildingBlock: CIFDUS_clean_linker_0, # of connection points: 2
#     Edge 9, Type (0, 0), BuildingBlock: CIFDUS_clean_linker_0, # of connection points: 2
#     Edge 10, Type (0, 0), BuildingBlock: CIFDUS_clean_linker_0, # of connection points: 2
#     Edge 11, Type (0, 0), BuildingBlock: CIFDUS_clean_linker_0, # of connection points: 2
#     Edge 12, Type (0, 0), BuildingBlock: CIFDUS_clean_linker_0, # of connection points: 2
#     Edge 13, Type (0, 0), BuildingBlock: CIFDUS_clean_linker_0, # of connection points: 2
#     Edge 14, Type (0, 0), BuildingBlock: CIFDUS_clean_linker_0, # of connection points: 2
#     Edge 15, Type (0, 0), BuildingBlock: CIFDUS_clean_linker_0, # of connection points: 2
#     Edge 16, Type (0, 0), BuildingBlock: CIFDUS_clean_linker_0, # of connection points: 2
#     Edge 17, Type (0, 0), BuildingBlock: CIFDUS_clean_linker_0, # of connection points: 2
#     Edge 18, Type (0, 0), BuildingBlock: CIFDUS_clean_linker_0, # of connection points: 2
#     Edge 19, Type (0, 0), BuildingBlock: CIFDUS_clean_linker_0, # of connection points: 2
#     Edge 20, Type (0, 0), BuildingBlock: CIFDUS_clean_linker_0, # of connection points: 2
#     Edge 21, Type (0, 0), BuildingBlock: CIFDUS_clean_linker_0, # of connection points: 2
#     Edge 22, Type (0, 0), BuildingBlock: CIFDUS_clean_linker_0, # of connection points: 2
#     Edge 23, Type (0, 0), BuildingBlock: CIFDUS_clean_linker_0, # of connection points: 2
# Relax obj value: 0.031
# Max RMSD: 0.054
# Mean RMSD: 0.054
data_MOF--net-mok--node1-KUFVIS_clean_sbu_0--edge1-CIFDUS_clean_linker_0
_symmetry_space_group_name_H-M    P1
_symmetry_Int_Tables_number       1
_symmetry_cell_setting            triclinic
loop_
_symmetry_equiv_pos_as_xyz
'x, y, z'
_cell_length_a     47.278941
_cell_length_b     14.183184
_cell_length_c     22.833729
_cell_angle_alpha  89.976592
_cell_angle_beta   90.248502
_cell_angle_gamma 89.144565
loop_
_atom_site_label
_atom_site_type_symbol
_atom_site_fract_x
_atom_site_fract_y
_atom_site_fract_z
_atom_type_partial_charge
Mn0 Mn 0.63137 0.28819 1.00121 0.0
Mn1 Mn 0.57467 0.42992 0.98412 0.0
C2 C 0.62274 0.35185 0.90812 0.0
C3 C 0.67839 0.26292 0.02673 0.0
C4 C 0.57065 0.21587 0.99692 0.0
O5 O 0.6213 0.32712 0.08526 0.0
O6 O 0.58633 0.43279 0.06784 0.0
C7 C 0.5988 0.61654 0.0122 0.0
N8 N 0.58492 0.55882 0.97445 0.0
C9 C 0.57895 0.68443 0.9046 0.0
C10 C 0.59233 0.746 0.94349 0.0
C11 C 0.60244 0.71171 0.99746 0.0
C12 C 0.57517 0.59097 0.92253 0.0
H13 H 0.60729 0.59003 0.05294 0.0
C14 C 0.60375 0.39068 0.10238 0.0
O15 O 0.66007 0.19602 0.03014 0.0
O16 O 0.66924 0.34536 0.00979 0.0
N17 N 0.56233 0.43544 0.90533 0.0
C18 C 0.55635 0.36209 0.86923 0.0
C19 C 0.55411 0.37862 0.80914 0.0
C20 C 0.55678 0.47097 0.7879 0.0
C21 C 0.55973 0.54653 0.82638 0.0
C22 C 0.56408 0.52484 0.88518 0.0
H23 H 0.55584 0.29069 0.88546 0.0
O24 O 0.63772 0.27528 0.915 0.0
O25 O 0.61278 0.38897 0.95681 0.0
O26 O 0.59726 0.20064 0.99699 0.0
O27 O 0.56002 0.29916 0.99395 0.0
C28 C 0.56171 0.64098 0.80785 0.0
C29 C 0.57067 0.71062 0.84753 0.0
H30 H 0.59575 0.81889 0.93162 0.0
H31 H 0.61332 0.75822 0.02728 0.0
H32 H 0.55234 0.31973 0.77945 0.0
H33 H 0.55948 0.48291 0.74213 0.0
H34 H 0.55785 0.65994 0.76259 0.0
H35 H 0.57316 0.78239 0.83238 0.0
Mn36 Mn 0.38807 0.75283 0.03282 0.0
Mn37 Mn 0.4445 0.60821 0.02945 0.0
C38 C 0.40001 0.68462 0.94281 0.0
C39 C 0.3402 0.77959 0.04836 0.0
C40 C 0.44956 0.8221 0.03113 0.0
O41 O 0.39312 0.71906 0.11878 0.0
O42 O 0.4307 0.62312 0.11077 0.0
C43 C 0.41386 0.43666 0.0653 0.0
N44 N 0.43203 0.48081 0.02854 0.0
C45 C 0.44257 0.33613 0.97803 0.0
C46 C 0.42392 0.28889 0.01512 0.0
C47 C 0.40935 0.33958 0.05872 0.0
C48 C 0.44532 0.43352 0.98535 0.0
H49 H 0.4029 0.47518 0.09931 0.0
C50 C 0.41134 0.66286 0.14105 0.0
O51 O 0.35828 0.8471 0.05378 0.0
O52 O 0.35 0.69684 0.03422 0.0
N53 N 0.46143 0.58064 0.95611 0.0
C54 C 0.47785 0.63774 0.92308 0.0
C55 C 0.49481 0.59792 0.87929 0.0
C56 C 0.49496 0.49976 0.87076 0.0
C57 C 0.47809 0.44232 0.90537 0.0
C58 C 0.46158 0.48604 0.94813 0.0
H59 H 0.47828 0.71285 0.93058 0.0
O60 O 0.38591 0.76343 0.94688 0.0
O61 O 0.40777 0.64729 0.9932 0.0
O62 O 0.42296 0.83796 0.03376 0.0
O63 O 0.46004 0.73849 0.02957 0.0
C64 C 0.47692 0.34354 0.89885 0.0
C65 C 0.45864 0.29068 0.93429 0.0
H66 H 0.42056 0.2139 0.01047 0.0
H67 H 0.39492 0.30373 0.08754 0.0
H68 H 0.50705 0.643 0.8513 0.0
H69 H 0.50634 0.4695 0.83474 0.0
H70 H 0.4896 0.30782 0.86601 0.0
H71 H 0.45735 0.21518 0.92796 0.0
Mn72 Mn 0.61654 0.74217 0.5231 0.0
Mn73 Mn 0.56432 0.58765 0.52775 0.0
C74 C 0.60754 0.67092 0.61441 0.0
C75 C 0.66481 0.76783 0.5052 0.0
C76 C 0.55402 0.80137 0.51935 0.0
O77 O 0.60939 0.70958 0.43659 0.0
O78 O 0.58144 0.58484 0.44889 0.0
C79 C 0.59673 0.40842 0.51396 0.0
N80 N 0.57678 0.46145 0.54204 0.0
C81 C 0.56319 0.33052 0.6018 0.0
C82 C 0.58363 0.27404 0.57371 0.0
C83 C 0.60058 0.31333 0.52979 0.0
C84 C 0.56084 0.42506 0.58501 0.0
H85 H 0.60961 0.43878 0.48011 0.0
C86 C 0.59679 0.63706 0.41706 0.0
O87 O 0.64618 0.83594 0.50101 0.0
O88 O 0.65526 0.68548 0.51807 0.0
N89 N 0.54543 0.57933 0.60023 0.0
C90 C 0.53144 0.64789 0.63062 0.0
C91 C 0.515 0.62248 0.67856 0.0
C92 C 0.51245 0.52693 0.69289 0.0
C93 C 0.52629 0.45723 0.65981 0.0
C94 C 0.54354 0.48739 0.61464 0.0
H95 H 0.53315 0.72124 0.61895 0.0
O96 O 0.62061 0.75017 0.6096 0.0
O97 O 0.59944 0.63514 0.56414 0.0
O98 O 0.57982 0.82537 0.52652 0.0
O99 O 0.54718 0.71503 0.51353 0.0
C100 C 0.52637 0.36058 0.67441 0.0
C101 C 0.54536 0.29759 0.64641 0.0
H102 H 0.58663 0.20069 0.58577 0.0
H103 H 0.61644 0.27032 0.50803 0.0
H104 H 0.50491 0.67625 0.70515 0.0
H105 H 0.50255 0.50844 0.73318 0.0
H106 H 0.5131 0.33501 0.70935 0.0
H107 H 0.54628 0.22441 0.65996 0.0
Mn108 Mn 0.3819 0.32229 0.55193 0.0
Mn109 Mn 0.43822 0.45653 0.57774 0.0
C110 C 0.39031 0.37332 0.6475 0.0
C111 C 0.33334 0.31637 0.52787 0.0
C112 C 0.4441 0.24512 0.56181 0.0
O113 O 0.391 0.37212 0.47057 0.0
O114 O 0.43143 0.44586 0.4921 0.0
C115 C 0.41486 0.63777 0.53216 0.0
N116 N 0.42642 0.58621 0.57689 0.0
C117 C 0.42871 0.72353 0.63837 0.0
C118 C 0.41698 0.77808 0.59296 0.0
C119 C 0.40997 0.73491 0.53963 0.0
C120 C 0.43342 0.6272 0.62805 0.0
H121 H 0.40955 0.60546 0.4909 0.0
C122 C 0.41275 0.41806 0.45572 0.0
O123 O 0.34998 0.24367 0.51953 0.0
O124 O 0.34497 0.3905 0.54926 0.0
N125 N 0.44701 0.47606 0.65783 0.0
C126 C 0.45338 0.41052 0.69943 0.0
C127 C 0.45479 0.43891 0.75801 0.0
C128 C 0.45167 0.53508 0.7722 0.0
C129 C 0.44762 0.60197 0.72804 0.0
C130 C 0.44387 0.56857 0.67122 0.0
H131 H 0.4552 0.33663 0.68839 0.0
O132 O 0.37612 0.2976 0.63727 0.0
O133 O 0.40009 0.41598 0.60083 0.0
O134 O 0.41786 0.23103 0.54914 0.0
O135 O 0.45295 0.32564 0.5785 0.0
C136 C 0.44453 0.69934 0.73905 0.0
C137 C 0.43528 0.7604 0.69394 0.0
H138 H 0.41301 0.85292 0.59873 0.0
H139 H 0.40086 0.77643 0.50433 0.0
H140 H 0.45737 0.38646 0.79177 0.0
H141 H 0.45019 0.5569 0.81713 0.0
H142 H 0.44802 0.72721 0.78261 0.0
H143 H 0.43213 0.8347 0.70317 0.0
Mn144 Mn 0.12702 0.79717 1.00055 0.0
Mn145 Mn 0.0696 0.93156 0.9715 0.0
C146 C 0.12218 0.86437 0.90845 0.0
C147 C 0.17308 0.778 0.03409 0.0
C148 C 0.06746 0.71824 0.97946 0.0
O149 O 0.11317 0.83514 0.08183 0.0
O150 O 0.07495 0.92407 0.0573 0.0
C151 C 0.09006 0.11476 0.01565 0.0
N152 N 0.07962 0.06155 0.97107 0.0
C153 C 0.08047 0.19336 0.90496 0.0
C154 C 0.09137 0.2494 0.95005 0.0
C155 C 0.09604 0.21005 1.00572 0.0
C156 C 0.07455 0.09907 0.9177 0.0
H157 H 0.09406 0.08468 0.05837 0.0
C158 C 0.09206 0.88814 0.09489 0.0
O159 O 0.15559 0.7083 0.03396 0.0
O160 O 0.16354 0.8593 0.01615 0.0
N161 N 0.06305 0.94629 0.88999 0.0
C162 C 0.05931 0.87755 0.84935 0.0
C163 C 0.0597 0.90153 0.79001 0.0
C164 C 0.06268 0.99642 0.7735 0.0
C165 C 0.06505 0.06648 0.81612 0.0
C166 C 0.06614 0.03765 0.87451 0.0
H167 H 0.05791 0.80445 0.86208 0.0
O168 O 0.13725 0.78797 0.91561 0.0
O169 O 0.10945 0.89657 0.9553 0.0
O170 O 0.09384 0.70651 0.98944 0.0
O171 O 0.05605 0.79942 0.9713 0.0
C172 C 0.06909 0.16231 0.80259 0.0
C173 C 0.07663 0.226 0.84718 0.0
H174 H 0.09688 0.3221 0.94207 0.0
H175 H 0.10456 0.25274 0.04068 0.0
H176 H 0.05887 0.84662 0.75734 0.0
H177 H 0.06526 0.01433 0.72805 0.0
H178 H 0.06775 0.18673 0.75769 0.0
H179 H 0.08078 0.29872 0.83605 0.0
Mn180 Mn 0.89395 0.22353 0.01869 0.0
Mn181 Mn 0.95267 0.09033 1.00658 0.0
C182 C 0.90559 0.16384 0.92617 0.0
C183 C 0.84609 0.24675 0.03668 0.0
C184 C 0.95421 0.30337 0.01462 0.0
O185 O 0.90064 0.18152 0.10304 0.0
O186 O 0.9408 0.09873 0.08953 0.0
C187 C 0.92658 0.90981 0.04138 0.0
N188 N 0.94266 0.96051 1.00373 0.0
C189 C 0.95405 0.82226 0.94731 0.0
C190 C 0.93746 0.76847 0.98509 0.0
C191 C 0.92357 0.81252 0.03223 0.0
C192 C 0.95545 0.91932 0.95756 0.0
H193 H 0.91611 0.94335 0.07795 0.0
C194 C 0.9211 0.13095 0.12212 0.0
O195 O 0.86411 0.31373 0.04412 0.0
O196 O 0.85595 0.16523 0.01984 0.0
N197 N 0.96788 0.07158 0.93079 0.0
C198 C 0.98174 0.13488 0.89704 0.0
C199 C 0.99747 0.10253 0.84928 0.0
C200 C 0.99866 1.00561 0.83704 0.0
C201 C 0.98458 0.94157 0.87265 0.0
C202 C 0.96938 0.97799 0.91976 0.0
H203 H 0.98104 0.2093 0.9068 0.0
O204 O 0.89071 0.24062 0.93297 0.0
O205 O 0.91447 0.12418 0.97505 0.0
O206 O 0.92761 0.31369 0.02109 0.0
O207 O 0.96596 0.22254 0.00829 0.0
C208 C 0.98485 0.84328 0.86302 0.0
C209 C 0.96915 0.78378 0.89973 0.0
H210 H 0.93507 0.69352 0.97804 0.0
H211 H 0.91073 0.77149 0.06163 0.0
H212 H 0.00796 0.15215 0.82104 0.0
H213 H 0.00911 0.98153 0.79824 0.0
H214 H 0.99661 0.81304 0.8268 0.0
H215 H 0.96891 0.70868 0.89115 0.0
Mn216 Mn 0.1177 0.21455 0.51616 0.0
Mn217 Mn 0.06323 0.06573 0.51432 0.0
C218 C 0.1081 0.12973 0.6016 0.0
C219 C 0.16679 0.23153 0.50124 0.0
C220 C 0.05475 0.27977 0.52438 0.0
O221 O 0.11167 0.19399 0.42867 0.0
O222 O 0.07561 0.09422 0.43417 0.0
C223 C 0.095 0.90153 0.46603 0.0
N224 N 0.07737 0.93927 0.50716 0.0
C225 C 0.07276 0.78905 0.55467 0.0
C226 C 0.09072 0.74836 0.51269 0.0
C227 C 0.10195 0.80497 0.46826 0.0
C228 C 0.06667 0.8857 0.55023 0.0
H229 H 0.10379 0.94472 0.43192 0.0
C230 C 0.09377 0.13971 0.4049 0.0
O231 O 0.1498 0.30465 0.50061 0.0
O232 O 0.1552 0.1511 0.50969 0.0
N233 N 0.04837 0.02674 0.58734 0.0
C234 C 0.03235 0.07786 0.62543 0.0
C235 C 0.01845 0.03133 0.67065 0.0
C236 C 0.02115 0.9327 0.67612 0.0
C237 C 0.03806 0.88192 0.63706 0.0
C238 C 0.05083 0.93182 0.59199 0.0
H239 H 0.03012 0.15339 0.62118 0.0
O240 O 0.12107 0.20948 0.60303 0.0
O241 O 0.09957 0.1038 0.54946 0.0
O242 O 0.08112 0.30109 0.52176 0.0
O243 O 0.04646 0.19429 0.52223 0.0
C244 C 0.04302 0.78397 0.64161 0.0
C245 C 0.06092 0.73791 0.60119 0.0
H246 H 0.09611 0.6739 0.51433 0.0
H247 H 0.11593 0.77425 0.43581 0.0
H248 H 0.00695 0.07224 0.70263 0.0
H249 H 0.0114 0.8964 0.71216 0.0
H250 H 0.03355 0.74374 0.67657 0.0
H251 H 0.06517 0.66301 0.60584 0.0
Mn252 Mn 0.88194 0.78912 0.53854 0.0
Mn253 Mn 0.93518 0.94191 0.55016 0.0
C254 C 0.89168 0.85327 0.63043 0.0
C255 C 0.83382 0.76194 0.51934 0.0
C256 C 0.94583 0.73018 0.54496 0.0
O257 O 0.88774 0.82999 0.45377 0.0
O258 O 0.92574 0.91984 0.46676 0.0
C259 C 0.90497 0.10925 0.50076 0.0
N260 N 0.91987 0.06753 0.54528 0.0
C261 C 0.92087 0.21325 0.59902 0.0
C262 C 0.90585 0.25789 0.55354 0.0
C263 C 0.89779 0.2055 0.50425 0.0
C264 C 0.92787 0.11747 0.59256 0.0
H265 H 0.89868 0.06987 0.46263 0.0
C266 C 0.90707 0.88261 0.43394 0.0
O267 O 0.8528 0.69529 0.51334 0.0
O268 O 0.84287 0.84326 0.53601 0.0
N269 N 0.94626 0.97479 0.62719 0.0
C270 C 0.95533 0.917 0.67088 0.0
C271 C 0.9584 0.95421 0.72716 0.0
C272 C 0.95444 0.05141 0.73672 0.0
C273 C 0.94688 0.11046 0.69022 0.0
C274 C 0.94163 0.06811 0.63624 0.0
H275 H 0.95806 0.84214 0.66362 0.0
O276 O 0.87879 0.77374 0.625 0.0
O277 O 0.89899 0.8937 0.58095 0.0
O278 O 0.91971 0.70874 0.53722 0.0
O279 O 0.95364 0.81507 0.55433 0.0
C280 C 0.94135 0.20771 0.69708 0.0
C281 C 0.92851 0.25938 0.65119 0.0
H282 H 0.90007 0.33195 0.55636 0.0
H283 H 0.88604 0.23918 0.46904 0.0
H284 H 0.96286 0.90699 0.76289 0.0
H285 H 0.95481 0.07948 0.78045 0.0
H286 H 0.94562 0.24233 0.7384 0.0
H287 H 0.92356 0.33352 0.65739 0.0
H288 H 0.80446 0.1174 0.04209 0.0
H289 H 0.81923 0.41691 0.0462 0.0
H290 H 0.76838 0.4485 0.04722 0.0
H291 H 0.71981 0.39136 0.03961 0.0
H292 H 0.70489 0.09193 0.03736 0.0
H293 H 0.7557 0.06001 0.04357 0.0
C294 C 0.79651 0.1895 0.0437 0.0
C295 C 0.81551 0.26466 0.04341 0.0
C296 C 0.76726 0.20722 0.04443 0.0
C297 C 0.805 0.35776 0.04622 0.0
C298 C 0.77593 0.37597 0.04663 0.0
C299 C 0.72769 0.31916 0.04103 0.0
C300 C 0.70871 0.24419 0.03739 0.0
C301 C 0.75688 0.3013 0.04462 0.0
C302 C 0.71913 0.15094 0.03996 0.0
C303 C 0.74817 0.13257 0.04328 0.0
H304 H 0.2129 0.91226 0.04574 0.0
H305 H 0.20087 0.61144 0.05455 0.0
H306 H 0.25184 0.58599 0.06421 0.0
H307 H 0.29984 0.64824 0.06063 0.0
H308 H 0.31207 0.94882 0.05164 0.0
H309 H 0.26086 0.97545 0.05199 0.0
C310 C 0.22141 0.84121 0.05051 0.0
C311 C 0.20323 0.76379 0.04868 0.0
C312 C 0.25072 0.82705 0.05552 0.0
C313 C 0.21447 0.6722 0.05556 0.0
C314 C 0.24361 0.65754 0.06083 0.0
C315 C 0.29129 0.71962 0.05924 0.0
C316 C 0.3096 0.79641 0.05526 0.0
C317 C 0.26194 0.73428 0.05929 0.0
C318 C 0.29833 0.88856 0.05442 0.0
C319 C 0.26908 0.9038 0.05445 0.0
H320 H 0.79226 0.89558 0.50994 0.0
H321 H 0.80633 0.59434 0.50726 0.0
H322 H 0.75529 0.57001 0.49942 0.0
H323 H 0.70659 0.63424 0.49909 0.0
H324 H 0.69262 0.93559 0.50039 0.0
H325 H 0.74375 0.95996 0.50246 0.0
C326 C 0.7842 0.82451 0.50731 0.0
C327 C 0.80312 0.74677 0.50973 0.0
C328 C 0.75484 0.81115 0.50264 0.0
C329 C 0.79229 0.65534 0.5056 0.0
C330 C 0.76308 0.64143 0.50127 0.0
C331 C 0.7147 0.70535 0.49931 0.0
C332 C 0.69573 0.78306 0.49998 0.0
C333 C 0.74414 0.71878 0.50059 0.0
C334 C 0.70668 0.87459 0.49984 0.0
C335 C 0.73593 0.88853 0.50127 0.0
H336 H 0.20093 0.38615 0.51045 0.0
H337 H 0.20313 0.0859 0.48025 0.0
H338 H 0.2546 0.0852 0.48198 0.0
H339 H 0.29945 0.1675 0.49907 0.0
H340 H 0.29729 0.46726 0.53118 0.0
H341 H 0.24601 0.47022 0.52139 0.0
C342 C 0.2127 0.32095 0.50343 0.0
C343 C 0.19807 0.23633 0.49561 0.0
C344 C 0.24257 0.32052 0.50529 0.0
C345 C 0.21375 0.15225 0.48682 0.0
C346 C 0.24329 0.15154 0.48785 0.0
C347 C 0.28778 0.23352 0.50328 0.0
C348 C 0.30233 0.31667 0.51628 0.0
C349 C 0.258 0.23488 0.49818 0.0
C350 C 0.28675 0.40173 0.52161 0.0
C351 C 0.25729 0.40373 0.51602 0.0
H352 H 0.5901 0.56456 0.14533 0.0
H353 H 0.61932 0.2882 0.19943 0.0
H354 H 0.62035 0.34107 0.30158 0.0
H355 H 0.61196 0.46539 0.37546 0.0
H356 H 0.58768 0.74555 0.31992 0.0
H357 H 0.5864 0.69244 0.21762 0.0
C358 C 0.59694 0.51583 0.17919 0.0
C359 C 0.60448 0.42212 0.16453 0.0
C360 C 0.59859 0.54784 0.23738 0.0
C361 C 0.61333 0.36043 0.20938 0.0
C362 C 0.61397 0.39074 0.26777 0.0
C363 C 0.60671 0.51495 0.34081 0.0
C364 C 0.59985 0.6092 0.35498 0.0
C365 C 0.60658 0.4842 0.28225 0.0
C366 C 0.59326 0.673 0.30986 0.0
C367 C 0.59232 0.64237 0.25155 0.0
H368 H 0.44915 0.56211 0.20704 0.0
H369 H 0.36566 0.68924 0.21327 0.0
H370 H 0.3578 0.6176 0.30908 0.0
H371 H 0.37438 0.51599 0.39078 0.0
H372 H 0.45874 0.39726 0.38642 0.0
H373 H 0.46631 0.46644 0.28954 0.0
C374 C 0.42929 0.57505 0.22947 0.0
C375 C 0.40806 0.63126 0.20273 0.0
C376 C 0.42485 0.53332 0.2844 0.0
C377 C 0.38252 0.64715 0.23281 0.0
C378 C 0.37787 0.60535 0.28743 0.0
C379 C 0.39417 0.50406 0.3679 0.0
C380 C 0.41575 0.44979 0.39464 0.0
C381 C 0.39874 0.5473 0.31331 0.0
C382 C 0.44171 0.4374 0.36591 0.0
C383 C 0.4461 0.47758 0.31088 0.0
H384 H 0.40053 0.49039 0.91673 0.0
H385 H 0.39036 0.76561 0.8382 0.0
H386 H 0.37963 0.69462 0.74454 0.0
H387 H 0.38063 0.55702 0.67943 0.0
H388 H 0.39525 0.28093 0.75238 0.0
H389 H 0.39774 0.3483 0.85136 0.0
C390 C 0.3972 0.53479 0.87878 0.0
C391 C 0.39781 0.63403 0.88502 0.0
C392 C 0.39202 0.49309 0.82301 0.0
C393 C 0.39098 0.68936 0.83536 0.0
C394 C 0.38446 0.64879 0.78136 0.0
C395 C 0.38447 0.51167 0.71696 0.0
C396 C 0.38954 0.41486 0.70795 0.0
C397 C 0.38618 0.55113 0.77378 0.0
C398 C 0.39249 0.35638 0.75768 0.0
C399 C 0.39383 0.39494 0.81451 0.0
H400 H 0.62977 0.53846 0.87755 0.0
H401 H 0.61712 0.2641 0.80262 0.0
H402 H 0.61317 0.33363 0.70452 0.0
H403 H 0.60898 0.47643 0.64025 0.0
H404 H 0.6181 0.75033 0.71914 0.0
H405 H 0.6297 0.67776 0.8125 0.0
C406 C 0.62577 0.49407 0.83987 0.0
C407 C 0.62167 0.39684 0.84834 0.0
C408 C 0.62336 0.53484 0.78321 0.0
C409 C 0.61896 0.33978 0.79805 0.0
C410 C 0.61683 0.37956 0.74161 0.0
C411 C 0.612 0.52039 0.67824 0.0
C412 C 0.61074 0.61967 0.67217 0.0
C413 C 0.61771 0.47782 0.73375 0.0
C414 C 0.61775 0.6741 0.72184 0.0
C415 C 0.62473 0.63256 0.77572 0.0
H416 H 0.13076 0.98045 0.15888 0.0
H417 H 0.04533 0.87913 0.16249 0.0
H418 H 0.03735 0.95758 0.25666 0.0
H419 H 0.05468 0.05436 0.33713 0.0
H420 H 0.13972 0.16088 0.3332 0.0
H421 H 0.14753 0.0844 0.23842 0.0
C422 C 0.11067 0.97407 0.1812 0.0
C423 C 0.0889 0.92183 0.15528 0.0
C424 C 0.10594 0.02254 0.23402 0.0
C425 C 0.06252 0.91705 0.18281 0.0
C426 C 0.05789 0.96277 0.23608 0.0
C427 C 0.07485 0.06206 0.31531 0.0
C428 C 0.09661 0.11322 0.34242 0.0
C429 C 0.07938 0.01619 0.26179 0.0
C430 C 0.1225 0.12286 0.31315 0.0
C431 C 0.12712 0.07789 0.25937 0.0
H432 H 0.94737 0.97856 0.37513 0.0
H433 H 0.86419 0.8615 0.35332 0.0
H434 H 0.86013 0.93546 0.25673 0.0
H435 H 0.87999 0.03677 0.17892 0.0
H436 H 0.96385 0.14679 0.20031 0.0
H437 H 0.96757 0.07449 0.29745 0.0
C438 C 0.92838 0.96826 0.34922 0.0
C439 C 0.90612 0.91424 0.37178 0.0
C440 C 0.92606 1.01182 0.29417 0.0
C441 C 0.88179 0.90183 0.3371 0.0
C442 C 0.87931 0.94505 0.28205 0.0
C443 C 0.89877 0.0463 0.2056 0.0
C444 C 0.92135 0.09901 0.18354 0.0
C445 C 0.90115 1.00137 0.26049 0.0
C446 C 0.94605 0.10811 0.21719 0.0
C447 C 0.94826 0.06605 0.27235 0.0
H448 H 0.88158 0.03776 0.66332 0.0
H449 H 0.90289 0.76411 0.73359 0.0
H450 H 0.9078 0.83159 0.83183 0.0
H451 H 0.90877 0.97207 0.89763 0.0
H452 H 0.89305 0.24696 0.82278 0.0
H453 H 0.88151 0.17582 0.72917 0.0
C454 C 0.88754 0.99313 0.70004 0.0
C455 C 0.89336 0.89681 0.69024 0.0
C456 C 0.89078 0.03284 0.75662 0.0
C457 C 0.8993 0.83915 0.73928 0.0
C458 C 0.90206 0.87773 0.79572 0.0
C459 C 0.90434 0.01674 0.8603 0.0
C460 C 0.9033 0.11566 0.86761 0.0
C461 C 0.89889 0.9753 0.80474 0.0
C462 C 0.89489 0.17099 0.81897 0.0
C463 C 0.88796 0.13026 0.76509 0.0
H464 H 0.12198 0.80727 0.79359 0.0
H465 H 0.13496 0.05007 0.90302 0.0
H466 H 0.13564 0.15196 0.81657 0.0
H467 H 0.12166 0.17584 0.71346 0.0
H468 H 0.11278 0.93556 0.60113 0.0
H469 H 0.11875 0.82919 0.68497 0.0
C470 C 0.12508 0.88248 0.79828 0.0
C471 C 0.12618 0.92245 0.85484 0.0
C472 C 0.12455 0.94127 0.74816 0.0
C473 C 0.13207 0.0188 0.86017 0.0
C474 C 0.13272 0.07693 0.81066 0.0
C475 C 0.12096 0.10014 0.70712 0.0
C476 C 0.1131 0.06365 0.65192 0.0
C477 C 0.12685 0.0399 0.75497 0.0
C478 C 0.11459 0.96545 0.64424 0.0
C479 C 0.11946 0.90468 0.69194 0.0
H480 H 0.507 0.82339 0.00993 0.0
H481 H 0.43599 1.00953 0.04508 0.0
H482 H 0.4667 0.14559 0.03764 0.0
H483 H 0.51329 0.2143 0.0182 0.0
H484 H 0.58456 0.02832 0.98511 0.0
H485 H 0.55404 0.89181 0.99352 0.0
C486 C 0.49813 0.89363 0.01599 0.0
C487 C 0.46896 0.90503 0.02801 0.0
C488 C 0.51589 0.97277 0.01098 0.0
C489 C 0.45817 0.99743 0.03555 0.0
C490 C 0.47571 0.07591 0.03096 0.0
C491 C 0.52223 0.14403 0.01262 0.0
C492 C 0.5514 0.13271 1.00089 0.0
C493 C 0.50455 0.06479 0.01811 0.0
C494 C 0.56233 0.04027 0.9942 0.0
C495 C 0.54484 0.96161 0.99897 0.0
H496 H 0.55677 0.99535 0.5328 0.0
H497 H 0.49663 0.77161 0.51373 0.0
H498 H 0.4576 0.88451 0.52445 0.0
H499 H 0.43961 0.04907 0.54262 0.0
H500 H 0.50091 0.27041 0.55927 0.0
H501 H 0.53909 0.15733 0.54561 0.0
C502 C 0.53517 0.97089 0.53064 0.0
C503 C 0.53019 0.87395 0.52223 0.0
C504 C 0.5124 0.03651 0.53729 0.0
C505 C 0.50166 0.8452 0.51987 0.0
C506 C 0.47904 0.91004 0.52643 0.0
C507 C 0.4613 0.07271 0.54372 0.0
C508 C 0.46679 0.16946 0.55351 0.0
C509 C 0.48401 1.00628 0.53579 0.0
C510 C 0.4954 0.19715 0.55366 0.0
C511 C 0.51763 0.13227 0.54562 0.0
H512 H 0.01288 0.70436 0.01754 0.0
H513 H 0.08102 0.54088 0.94151 0.0
H514 H 0.05189 0.39969 0.9444 0.0
H515 H 0.0083 0.3199 0.97292 0.0
H516 H 0.94051 0.48209 0.0517 0.0
H517 H 0.96913 0.62382 0.04712 0.0
C518 C 0.02137 0.63777 1.00155 0.0
C519 C 0.04915 0.6335 0.97923 0.0
C520 C 1.00493 0.55557 1.00536 0.0
C521 C 0.05983 0.54632 0.95918 0.0
C522 C 0.04329 0.46527 0.96118 0.0
C523 C 0.99963 0.38624 0.98886 0.0
C524 C 0.9721 0.38956 0.01252 0.0
C525 C 0.01598 0.46855 0.98493 0.0
C526 C 0.96146 0.47682 0.03288 0.0
C527 C 0.97776 0.55844 0.02987 0.0
H528 H 0.05744 0.47517 0.50932 0.0
H529 H 0.99931 0.25484 0.55418 0.0
H530 H 0.9612 0.37035 0.56404 0.0
H531 H 0.94318 0.5355 0.56024 0.0
H532 H 1.00106 0.75598 0.51507 0.0
H533 H 0.03894 0.63941 0.50219 0.0
C534 C 0.03651 0.45217 0.5215 0.0
C535 C 0.03185 0.35506 0.5311 0.0
C536 C 0.01402 0.51969 0.52682 0.0
C537 C 1.00413 0.32818 0.54641 0.0
C538 C 0.98201 0.39461 0.5522 0.0
C539 C 0.96415 0.55845 0.54827 0.0
C540 C 0.96891 0.65564 0.53936 0.0
C541 C 0.98656 0.49084 0.54262 0.0
C542 C 0.99645 0.68258 0.52333 0.0
C543 C 0.01841 0.61576 0.51624 0.0
loop_
_geom_bond_atom_site_label_1
_geom_bond_atom_site_label_2
_geom_bond_distance
_geom_bond_site_symmetry_2
_ccdc_geom_bond_type
Mn0 O5 2.095 . S
Mn0 O15 2.162 . S
Mn0 O16 2.297 . S
Mn0 O24 2.385 1_554 S
Mn0 O25 2.209 1_554 S
Mn0 O26 2.094 . S
Mn1 O6 2.121 . S
Mn1 N8 2.257 1_554 S
Mn1 N17 2.282 1_554 S
Mn1 O25 2.215 1_554 S
Mn1 O27 2.117 . S
C2 O24 1.234 . S
C2 O25 1.283 . S
C3 O15 1.281 . S
C3 O16 1.236 . S
C4 O26 1.240 . S
C4 O27 1.264 . S
O5 Mn0 2.095 . S
O5 C14 1.250 . S
O6 Mn1 2.121 . S
O6 C14 1.258 . S
C7 N8 1.326 1_554 S
C7 C11 1.460 1_554 S
C7 H13 0.929 . S
N8 Mn1 2.257 1_556 S
N8 C7 1.326 1_556 S
N8 C12 1.362 . S
C9 C10 1.258 . S
C9 C12 1.431 . S
C9 C29 1.449 . S
C10 C9 1.258 . S
C10 C11 1.477 . S
C10 H30 0.931 . S
C11 C7 1.460 1_556 S
C11 C10 1.477 . S
C11 H31 0.930 1_556 S
C12 N8 1.362 . S
C12 C9 1.431 . S
C12 C22 1.476 . S
H13 C7 0.929 . S
C14 O5 1.250 . S
C14 O6 1.258 . S
O15 Mn0 2.162 . S
O15 C3 1.281 . S
O16 Mn0 2.297 . S
O16 C3 1.236 . S
N17 Mn1 2.282 1_556 S
N17 C18 1.328 . S
N17 C22 1.318 . S
C18 N17 1.328 . S
C18 C19 1.457 . S
C18 H23 0.929 . S
C19 C18 1.457 . S
C19 C20 1.291 . S
C19 H32 0.931 . S
C20 C19 1.291 . S
C20 C21 1.373 . S
C20 H33 0.929 . S
C21 C20 1.373 . S
C21 C22 1.396 . S
C21 C28 1.403 . S
C22 C12 1.476 . S
C22 N17 1.318 . S
C22 C21 1.396 . S
H23 C18 0.929 . S
O24 Mn0 2.385 1_556 S
O24 C2 1.234 . S
O25 Mn0 2.209 1_556 S
O25 Mn1 2.215 1_556 S
O25 C2 1.283 . S
O26 Mn0 2.094 . S
O26 C4 1.240 . S
O27 Mn1 2.117 . S
O27 C4 1.264 . S
C28 C21 1.403 . S
C28 C29 1.399 . S
C28 H34 0.929 . S
C29 C9 1.449 . S
C29 C28 1.399 . S
C29 H35 0.930 . S
H30 C10 0.931 . S
H31 C11 0.930 1_554 S
H32 C19 0.931 . S
H33 C20 0.929 . S
H34 C28 0.929 . S
H35 C29 0.930 . S
Mn36 O41 2.095 . S
Mn36 O51 2.162 . S
Mn36 O52 2.297 . S
Mn36 O60 2.385 1_554 S
Mn36 O61 2.209 1_554 S
Mn36 O62 2.094 . S
Mn37 O42 2.121 . S
Mn37 N44 2.257 1_554 S
Mn37 N53 2.282 1_554 S
Mn37 O61 2.215 1_554 S
Mn37 O63 2.117 . S
C38 O60 1.234 . S
C38 O61 1.283 . S
C39 O51 1.281 . S
C39 O52 1.236 . S
C40 O62 1.240 . S
C40 O63 1.264 . S
O41 Mn36 2.095 . S
O41 C50 1.250 . S
O42 Mn37 2.121 . S
O42 C50 1.258 . S
C43 N44 1.326 1_554 S
C43 C47 1.460 1_554 S
C43 H49 0.929 . S
N44 Mn37 2.257 1_556 S
N44 C43 1.326 1_556 S
N44 C48 1.362 . S
C45 C46 1.258 . S
C45 C48 1.431 . S
C45 C65 1.449 . S
C46 C45 1.258 . S
C46 C47 1.477 . S
C46 H66 0.931 . S
C47 C43 1.460 1_556 S
C47 C46 1.477 . S
C47 H67 0.930 1_556 S
C48 N44 1.362 . S
C48 C45 1.431 . S
C48 C58 1.476 . S
H49 C43 0.929 . S
C50 O41 1.250 . S
C50 O42 1.258 . S
O51 Mn36 2.162 . S
O51 C39 1.281 . S
O52 Mn36 2.297 . S
O52 C39 1.236 . S
N53 Mn37 2.282 1_556 S
N53 C54 1.328 . S
N53 C58 1.318 . S
C54 N53 1.328 . S
C54 C55 1.457 . S
C54 H59 0.929 . S
C55 C54 1.457 . S
C55 C56 1.291 . S
C55 H68 0.931 . S
C56 C55 1.291 . S
C56 C57 1.373 . S
C56 H69 0.929 . S
C57 C56 1.373 . S
C57 C58 1.396 . S
C57 C64 1.403 . S
C58 C48 1.476 . S
C58 N53 1.318 . S
C58 C57 1.396 . S
H59 C54 0.929 . S
O60 Mn36 2.385 1_556 S
O60 C38 1.234 . S
O61 Mn36 2.209 1_556 S
O61 Mn37 2.215 1_556 S
O61 C38 1.283 . S
O62 Mn36 2.094 . S
O62 C40 1.240 . S
O63 Mn37 2.117 . S
O63 C40 1.264 . S
C64 C57 1.403 . S
C64 C65 1.399 . S
C64 H70 0.929 . S
C65 C45 1.449 . S
C65 C64 1.399 . S
C65 H71 0.930 . S
H66 C46 0.931 . S
H67 C47 0.930 1_554 S
H68 C55 0.931 . S
H69 C56 0.929 . S
H70 C64 0.929 . S
H71 C65 0.930 . S
Mn72 O77 2.095 . S
Mn72 O87 2.162 . S
Mn72 O88 2.297 . S
Mn72 O96 2.385 . S
Mn72 O97 2.209 . S
Mn72 O98 2.094 . S
Mn73 O78 2.121 . S
Mn73 N80 2.257 . S
Mn73 N89 2.282 . S
Mn73 O97 2.215 . S
Mn73 O99 2.117 . S
C74 O96 1.234 . S
C74 O97 1.283 . S
C75 O87 1.281 . S
C75 O88 1.236 . S
C76 O98 1.240 . S
C76 O99 1.264 . S
O77 Mn72 2.095 . S
O77 C86 1.250 . S
O78 Mn73 2.121 . S
O78 C86 1.258 . S
C79 N80 1.326 . S
C79 C83 1.460 . S
C79 H85 0.929 . S
N80 Mn73 2.257 . S
N80 C79 1.326 . S
N80 C84 1.362 . S
C81 C82 1.258 . S
C81 C84 1.431 . S
C81 C101 1.449 . S
C82 C81 1.258 . S
C82 C83 1.477 . S
C82 H102 0.931 . S
C83 C79 1.460 . S
C83 C82 1.477 . S
C83 H103 0.930 . S
C84 N80 1.362 . S
C84 C81 1.431 . S
C84 C94 1.476 . S
H85 C79 0.929 . S
C86 O77 1.250 . S
C86 O78 1.258 . S
O87 Mn72 2.162 . S
O87 C75 1.281 . S
O88 Mn72 2.297 . S
O88 C75 1.236 . S
N89 Mn73 2.282 . S
N89 C90 1.328 . S
N89 C94 1.318 . S
C90 N89 1.328 . S
C90 C91 1.457 . S
C90 H95 0.929 . S
C91 C90 1.457 . S
C91 C92 1.291 . S
C91 H104 0.931 . S
C92 C91 1.291 . S
C92 C93 1.373 . S
C92 H105 0.929 . S
C93 C92 1.373 . S
C93 C94 1.396 . S
C93 C100 1.403 . S
C94 C84 1.476 . S
C94 N89 1.318 . S
C94 C93 1.396 . S
H95 C90 0.929 . S
O96 Mn72 2.385 . S
O96 C74 1.234 . S
O97 Mn72 2.209 . S
O97 Mn73 2.215 . S
O97 C74 1.283 . S
O98 Mn72 2.094 . S
O98 C76 1.240 . S
O99 Mn73 2.117 . S
O99 C76 1.264 . S
C100 C93 1.403 . S
C100 C101 1.399 . S
C100 H106 0.929 . S
C101 C81 1.449 . S
C101 C100 1.399 . S
C101 H107 0.930 . S
H102 C82 0.931 . S
H103 C83 0.930 . S
H104 C91 0.931 . S
H105 C92 0.929 . S
H106 C100 0.929 . S
H107 C101 0.930 . S
Mn108 O113 2.095 . S
Mn108 O123 2.162 . S
Mn108 O124 2.297 . S
Mn108 O132 2.385 . S
Mn108 O133 2.209 . S
Mn108 O134 2.094 . S
Mn109 O114 2.121 . S
Mn109 N116 2.257 . S
Mn109 N125 2.282 . S
Mn109 O133 2.215 . S
Mn109 O135 2.117 . S
C110 O132 1.234 . S
C110 O133 1.283 . S
C111 O123 1.281 . S
C111 O124 1.236 . S
C112 O134 1.240 . S
C112 O135 1.264 . S
O113 Mn108 2.095 . S
O113 C122 1.250 . S
O114 Mn109 2.121 . S
O114 C122 1.258 . S
C115 N116 1.326 . S
C115 C119 1.460 . S
C115 H121 0.929 . S
N116 Mn109 2.257 . S
N116 C115 1.326 . S
N116 C120 1.362 . S
C117 C118 1.258 . S
C117 C120 1.431 . S
C117 C137 1.449 . S
C118 C117 1.258 . S
C118 C119 1.477 . S
C118 H138 0.931 . S
C119 C115 1.460 . S
C119 C118 1.477 . S
C119 H139 0.930 . S
C120 N116 1.362 . S
C120 C117 1.431 . S
C120 C130 1.476 . S
H121 C115 0.929 . S
C122 O113 1.250 . S
C122 O114 1.258 . S
O123 Mn108 2.162 . S
O123 C111 1.281 . S
O124 Mn108 2.297 . S
O124 C111 1.236 . S
N125 Mn109 2.282 . S
N125 C126 1.328 . S
N125 C130 1.318 . S
C126 N125 1.328 . S
C126 C127 1.457 . S
C126 H131 0.929 . S
C127 C126 1.457 . S
C127 C128 1.291 . S
C127 H140 0.931 . S
C128 C127 1.291 . S
C128 C129 1.373 . S
C128 H141 0.929 . S
C129 C128 1.373 . S
C129 C130 1.396 . S
C129 C136 1.403 . S
C130 C120 1.476 . S
C130 N125 1.318 . S
C130 C129 1.396 . S
H131 C126 0.929 . S
O132 Mn108 2.385 . S
O132 C110 1.234 . S
O133 Mn108 2.209 . S
O133 Mn109 2.215 . S
O133 C110 1.283 . S
O134 Mn108 2.094 . S
O134 C112 1.240 . S
O135 Mn109 2.117 . S
O135 C112 1.264 . S
C136 C129 1.403 . S
C136 C137 1.399 . S
C136 H142 0.929 . S
C137 C117 1.449 . S
C137 C136 1.399 . S
C137 H143 0.930 . S
H138 C118 0.931 . S
H139 C119 0.930 . S
H140 C127 0.931 . S
H141 C128 0.929 . S
H142 C136 0.929 . S
H143 C137 0.930 . S
Mn144 O149 2.095 . S
Mn144 O159 2.162 . S
Mn144 O160 2.297 . S
Mn144 O168 2.385 1_554 S
Mn144 O169 2.209 1_554 S
Mn144 O170 2.094 . S
Mn145 O150 2.121 . S
Mn145 N152 2.257 1_564 S
Mn145 N161 2.282 1_554 S
Mn145 O169 2.215 1_554 S
Mn145 O171 2.117 . S
C146 O168 1.234 . S
C146 O169 1.283 . S
C147 O159 1.281 . S
C147 O160 1.236 . S
C148 O170 1.240 . S
C148 O171 1.264 . S
O149 Mn144 2.095 . S
O149 C158 1.250 . S
O150 Mn145 2.121 . S
O150 C158 1.258 . S
C151 N152 1.326 1_554 S
C151 C155 1.460 1_554 S
C151 H157 0.929 . S
N152 Mn145 2.257 1_546 S
N152 C151 1.326 1_556 S
N152 C156 1.362 . S
C153 C154 1.258 . S
C153 C156 1.431 . S
C153 C173 1.449 . S
C154 C153 1.258 . S
C154 C155 1.477 . S
C154 H174 0.931 . S
C155 C151 1.460 1_556 S
C155 C154 1.477 . S
C155 H175 0.930 1_556 S
C156 N152 1.362 . S
C156 C153 1.431 . S
C156 C166 1.476 . S
H157 C151 0.929 . S
C158 O149 1.250 . S
C158 O150 1.258 . S
O159 Mn144 2.162 . S
O159 C147 1.281 . S
O160 Mn144 2.297 . S
O160 C147 1.236 . S
N161 Mn145 2.282 1_556 S
N161 C162 1.328 . S
N161 C166 1.318 1_565 S
C162 N161 1.328 . S
C162 C163 1.457 . S
C162 H167 0.929 . S
C163 C162 1.457 . S
C163 C164 1.291 . S
C163 H176 0.931 . S
C164 C163 1.291 . S
C164 C165 1.373 1_565 S
C164 H177 0.929 . S
C165 C164 1.373 1_545 S
C165 C166 1.396 . S
C165 C172 1.403 . S
C166 C156 1.476 . S
C166 N161 1.318 1_545 S
C166 C165 1.396 . S
H167 C162 0.929 . S
O168 Mn144 2.385 1_556 S
O168 C146 1.234 . S
O169 Mn144 2.209 1_556 S
O169 Mn145 2.215 1_556 S
O169 C146 1.283 . S
O170 Mn144 2.094 . S
O170 C148 1.240 . S
O171 Mn145 2.117 . S
O171 C148 1.264 . S
C172 C165 1.403 . S
C172 C173 1.399 . S
C172 H178 0.929 . S
C173 C153 1.449 . S
C173 C172 1.399 . S
C173 H179 0.930 . S
H174 C154 0.931 . S
H175 C155 0.930 1_554 S
H176 C163 0.931 . S
H177 C164 0.929 . S
H178 C172 0.929 . S
H179 C173 0.930 . S
Mn180 O185 2.095 . S
Mn180 O195 2.162 . S
Mn180 O196 2.297 . S
Mn180 O204 2.385 1_554 S
Mn180 O205 2.209 1_554 S
Mn180 O206 2.094 . S
Mn181 O186 2.121 . S
Mn181 N188 2.257 1_544 S
Mn181 N197 2.282 1_554 S
Mn181 O205 2.215 1_554 S
Mn181 O207 2.117 . S
C182 O204 1.234 . S
C182 O205 1.283 . S
C183 O195 1.281 . S
C183 O196 1.236 . S
C184 O206 1.240 . S
C184 O207 1.264 . S
O185 Mn180 2.095 . S
O185 C194 1.250 . S
O186 Mn181 2.121 . S
O186 C194 1.258 . S
C187 N188 1.326 1_554 S
C187 C191 1.460 1_554 S
C187 H193 0.929 . S
N188 Mn181 2.257 1_566 S
N188 C187 1.326 1_556 S
N188 C192 1.362 . S
C189 C190 1.258 . S
C189 C192 1.431 . S
C189 C209 1.449 . S
C190 C189 1.258 . S
C190 C191 1.477 . S
C190 H210 0.931 . S
C191 C187 1.460 1_556 S
C191 C190 1.477 . S
C191 H211 0.930 1_556 S
C192 N188 1.362 . S
C192 C189 1.431 . S
C192 C202 1.476 . S
H193 C187 0.929 . S
C194 O185 1.250 . S
C194 O186 1.258 . S
O195 Mn180 2.162 . S
O195 C183 1.281 . S
O196 Mn180 2.297 . S
O196 C183 1.236 . S
N197 Mn181 2.282 1_556 S
N197 C198 1.328 . S
N197 C202 1.318 1_545 S
C198 N197 1.328 . S
C198 C199 1.457 . S
C198 H203 0.929 . S
C199 C198 1.457 . S
C199 C200 1.291 . S
C199 H212 0.931 . S
C200 C199 1.291 . S
C200 C201 1.373 1_545 S
C200 H213 0.929 . S
C201 C200 1.373 1_565 S
C201 C202 1.396 . S
C201 C208 1.403 . S
C202 C192 1.476 . S
C202 N197 1.318 1_565 S
C202 C201 1.396 . S
H203 C198 0.929 . S
O204 Mn180 2.385 1_556 S
O204 C182 1.234 . S
O205 Mn180 2.209 1_556 S
O205 Mn181 2.215 1_556 S
O205 C182 1.283 . S
O206 Mn180 2.094 . S
O206 C184 1.240 . S
O207 Mn181 2.117 . S
O207 C184 1.264 . S
C208 C201 1.403 . S
C208 C209 1.399 . S
C208 H214 0.929 . S
C209 C189 1.449 . S
C209 C208 1.399 . S
C209 H215 0.930 . S
H210 C190 0.931 . S
H211 C191 0.930 1_554 S
H212 C199 0.931 . S
H213 C200 0.929 . S
H214 C208 0.929 . S
H215 C209 0.930 . S
Mn216 O221 2.095 . S
Mn216 O231 2.162 . S
Mn216 O232 2.297 . S
Mn216 O240 2.385 . S
Mn216 O241 2.209 . S
Mn216 O242 2.094 . S
Mn217 O222 2.121 . S
Mn217 N224 2.257 1_545 S
Mn217 N233 2.282 . S
Mn217 O241 2.215 . S
Mn217 O243 2.117 . S
C218 O240 1.234 . S
C218 O241 1.283 . S
C219 O231 1.281 . S
C219 O232 1.236 . S
C220 O242 1.240 . S
C220 O243 1.264 . S
O221 Mn216 2.095 . S
O221 C230 1.250 . S
O222 Mn217 2.121 . S
O222 C230 1.258 . S
C223 N224 1.326 . S
C223 C227 1.460 . S
C223 H229 0.929 . S
N224 Mn217 2.257 1_565 S
N224 C223 1.326 . S
N224 C228 1.362 . S
C225 C226 1.258 . S
C225 C228 1.431 . S
C225 C245 1.449 . S
C226 C225 1.258 . S
C226 C227 1.477 . S
C226 H246 0.931 . S
C227 C223 1.460 . S
C227 C226 1.477 . S
C227 H247 0.930 . S
C228 N224 1.362 . S
C228 C225 1.431 . S
C228 C238 1.476 . S
H229 C223 0.929 . S
C230 O221 1.250 . S
C230 O222 1.258 . S
O231 Mn216 2.162 . S
O231 C219 1.281 . S
O232 Mn216 2.297 . S
O232 C219 1.236 . S
N233 Mn217 2.282 . S
N233 C234 1.328 . S
N233 C238 1.318 1_545 S
C234 N233 1.328 . S
C234 C235 1.457 . S
C234 H239 0.929 . S
C235 C234 1.457 . S
C235 C236 1.291 . S
C235 H248 0.931 . S
C236 C235 1.291 . S
C236 C237 1.373 1_545 S
C236 H249 0.929 . S
C237 C236 1.373 1_565 S
C237 C238 1.396 . S
C237 C244 1.403 . S
C238 C228 1.476 . S
C238 N233 1.318 1_565 S
C238 C237 1.396 . S
H239 C234 0.929 . S
O240 Mn216 2.385 . S
O240 C218 1.234 . S
O241 Mn216 2.209 . S
O241 Mn217 2.215 . S
O241 C218 1.283 . S
O242 Mn216 2.094 . S
O242 C220 1.240 . S
O243 Mn217 2.117 . S
O243 C220 1.264 . S
C244 C237 1.403 . S
C244 C245 1.399 . S
C244 H250 0.929 . S
C245 C225 1.449 . S
C245 C244 1.399 . S
C245 H251 0.930 . S
H246 C226 0.931 . S
H247 C227 0.930 . S
H248 C235 0.931 . S
H249 C236 0.929 . S
H250 C244 0.929 . S
H251 C245 0.930 . S
Mn252 O257 2.095 . S
Mn252 O267 2.162 . S
Mn252 O268 2.297 . S
Mn252 O276 2.385 . S
Mn252 O277 2.209 . S
Mn252 O278 2.094 . S
Mn253 O258 2.121 . S
Mn253 N260 2.257 1_565 S
Mn253 N269 2.282 . S
Mn253 O277 2.215 . S
Mn253 O279 2.117 . S
C254 O276 1.234 . S
C254 O277 1.283 . S
C255 O267 1.281 . S
C255 O268 1.236 . S
C256 O278 1.240 . S
C256 O279 1.264 . S
O257 Mn252 2.095 . S
O257 C266 1.250 . S
O258 Mn253 2.121 . S
O258 C266 1.258 . S
C259 N260 1.326 . S
C259 C263 1.460 . S
C259 H265 0.929 . S
N260 Mn253 2.257 1_545 S
N260 C259 1.326 . S
N260 C264 1.362 . S
C261 C262 1.258 . S
C261 C264 1.431 . S
C261 C281 1.449 . S
C262 C261 1.258 . S
C262 C263 1.477 . S
C262 H282 0.931 . S
C263 C259 1.460 . S
C263 C262 1.477 . S
C263 H283 0.930 . S
C264 N260 1.362 . S
C264 C261 1.431 . S
C264 C274 1.476 . S
H265 C259 0.929 . S
C266 O257 1.250 . S
C266 O258 1.258 . S
O267 Mn252 2.162 . S
O267 C255 1.281 . S
O268 Mn252 2.297 . S
O268 C255 1.236 . S
N269 Mn253 2.282 . S
N269 C270 1.328 . S
N269 C274 1.318 1_565 S
C270 N269 1.328 . S
C270 C271 1.457 . S
C270 H275 0.929 . S
C271 C270 1.457 . S
C271 C272 1.291 . S
C271 H284 0.931 . S
C272 C271 1.291 . S
C272 C273 1.373 1_565 S
C272 H285 0.929 . S
C273 C272 1.373 1_545 S
C273 C274 1.396 . S
C273 C280 1.403 . S
C274 C264 1.476 . S
C274 N269 1.318 1_545 S
C274 C273 1.396 . S
H275 C270 0.929 . S
O276 Mn252 2.385 . S
O276 C254 1.234 . S
O277 Mn252 2.209 . S
O277 Mn253 2.215 . S
O277 C254 1.283 . S
O278 Mn252 2.094 . S
O278 C256 1.240 . S
O279 Mn253 2.117 . S
O279 C256 1.264 . S
C280 C273 1.403 . S
C280 C281 1.399 . S
C280 H286 0.929 . S
C281 C261 1.449 . S
C281 C280 1.399 . S
C281 H287 0.930 . S
H282 C262 0.931 . S
H283 C263 0.930 . S
H284 C271 0.931 . S
H285 C272 0.929 . S
H286 C280 0.929 . S
H287 C281 0.930 . S
H288 C294 0.930 . S
H289 C297 0.930 . S
H290 C298 0.930 . S
H291 C299 0.930 . S
H292 C302 0.930 . S
H293 C303 0.930 . S
C294 H288 0.930 . S
C294 C295 1.349 1_554 S
C294 C296 1.415 . S
C295 C294 1.349 1_556 S
C295 C297 1.426 . S
C296 C294 1.415 . S
C296 C301 1.425 1_554 S
C296 C303 1.409 . S
C297 H289 0.930 . S
C297 C295 1.426 . S
C297 C298 1.362 . S
C298 H290 0.930 . S
C298 C297 1.362 . S
C298 C301 1.409 . S
C299 H291 0.930 . S
C299 C300 1.355 1_556 S
C299 C301 1.415 . S
C300 C299 1.355 1_554 S
C300 C302 1.419 . S
C301 C296 1.425 1_556 S
C301 C298 1.409 . S
C301 C299 1.415 . S
C302 H292 0.930 . S
C302 C300 1.419 . S
C302 C303 1.362 . S
C303 H293 0.930 . S
C303 C296 1.409 . S
C303 C302 1.362 . S
H304 C310 0.930 . S
H305 C313 0.930 1_556 S
H306 C314 0.931 . S
H307 C315 0.930 . S
H308 C318 0.930 . S
H309 C319 0.930 . S
C310 H304 0.930 . S
C310 C311 1.355 . S
C310 C312 1.415 . S
C311 C310 1.355 . S
C311 C313 1.419 . S
C312 C310 1.415 . S
C312 C317 1.425 . S
C312 C319 1.409 . S
C313 H305 0.930 1_554 S
C313 C311 1.419 . S
C313 C314 1.362 1_554 S
C314 H306 0.931 . S
C314 C313 1.362 1_556 S
C314 C317 1.409 1_556 S
C315 H307 0.930 . S
C315 C316 1.355 . S
C315 C317 1.415 . S
C316 C315 1.355 . S
C316 C318 1.419 . S
C317 C312 1.425 . S
C317 C314 1.409 1_554 S
C317 C315 1.415 . S
C318 H308 0.930 . S
C318 C316 1.419 . S
C318 C319 1.362 . S
C319 H309 0.930 . S
C319 C312 1.409 . S
C319 C318 1.362 . S
H320 C326 0.930 . S
H321 C329 0.930 . S
H322 C330 0.930 . S
H323 C331 0.930 . S
H324 C334 0.930 . S
H325 C335 0.930 . S
C326 H320 0.930 . S
C326 C327 1.355 . S
C326 C328 1.415 . S
C327 C326 1.355 . S
C327 C329 1.419 . S
C328 C326 1.415 . S
C328 C333 1.425 . S
C328 C335 1.409 . S
C329 H321 0.930 . S
C329 C327 1.419 . S
C329 C330 1.362 . S
C330 H322 0.930 . S
C330 C329 1.362 . S
C330 C333 1.409 . S
C331 H323 0.930 . S
C331 C332 1.355 . S
C331 C333 1.415 . S
C332 C331 1.355 . S
C332 C334 1.419 . S
C333 C328 1.425 . S
C333 C330 1.409 . S
C333 C331 1.415 . S
C334 H324 0.930 . S
C334 C332 1.419 . S
C334 C335 1.362 . S
C335 H325 0.930 . S
C335 C328 1.409 . S
C335 C334 1.362 . S
H336 C342 0.930 . S
H337 C345 0.930 . S
H338 C346 0.930 . S
H339 C347 0.930 . S
H340 C350 0.930 . S
H341 C351 0.930 . S
C342 H336 0.930 . S
C342 C343 1.355 . S
C342 C344 1.415 . S
C343 C342 1.355 . S
C343 C345 1.419 . S
C344 C342 1.415 . S
C344 C349 1.425 . S
C344 C351 1.409 . S
C345 H337 0.930 . S
C345 C343 1.419 . S
C345 C346 1.362 . S
C346 H338 0.930 . S
C346 C345 1.362 . S
C346 C349 1.409 . S
C347 H339 0.930 . S
C347 C348 1.355 . S
C347 C349 1.415 . S
C348 C347 1.355 . S
C348 C350 1.419 . S
C349 C344 1.425 . S
C349 C346 1.409 . S
C349 C347 1.415 . S
C350 H340 0.930 . S
C350 C348 1.419 . S
C350 C351 1.362 . S
C351 H341 0.930 . S
C351 C344 1.409 . S
C351 C350 1.362 . S
H352 C358 0.930 . S
H353 C361 0.930 . S
H354 C362 0.930 . S
H355 C363 0.930 . S
H356 C366 0.930 . S
H357 C367 0.930 . S
C358 H352 0.930 . S
C358 C359 1.355 . S
C358 C360 1.415 . S
C359 C358 1.355 . S
C359 C361 1.419 . S
C360 C358 1.415 . S
C360 C365 1.425 . S
C360 C367 1.409 . S
C361 H353 0.930 . S
C361 C359 1.419 . S
C361 C362 1.362 . S
C362 H354 0.930 . S
C362 C361 1.362 . S
C362 C365 1.409 . S
C363 H355 0.930 . S
C363 C364 1.355 . S
C363 C365 1.415 . S
C364 C363 1.355 . S
C364 C366 1.419 . S
C365 C360 1.425 . S
C365 C362 1.409 . S
C365 C363 1.415 . S
C366 H356 0.930 . S
C366 C364 1.419 . S
C366 C367 1.362 . S
C367 H357 0.930 . S
C367 C360 1.409 . S
C367 C366 1.362 . S
H368 C374 0.930 . S
H369 C377 0.930 . S
H370 C378 0.930 . S
H371 C379 0.930 . S
H372 C382 0.930 . S
H373 C383 0.930 . S
C374 H368 0.930 . S
C374 C375 1.355 . S
C374 C376 1.415 . S
C375 C374 1.355 . S
C375 C377 1.419 . S
C376 C374 1.415 . S
C376 C381 1.425 . S
C376 C383 1.409 . S
C377 H369 0.930 . S
C377 C375 1.419 . S
C377 C378 1.362 . S
C378 H370 0.930 . S
C378 C377 1.362 . S
C378 C381 1.409 . S
C379 H371 0.930 . S
C379 C380 1.355 . S
C379 C381 1.415 . S
C380 C379 1.355 . S
C380 C382 1.419 . S
C381 C376 1.425 . S
C381 C378 1.409 . S
C381 C379 1.415 . S
C382 H372 0.930 . S
C382 C380 1.419 . S
C382 C383 1.362 . S
C383 H373 0.930 . S
C383 C376 1.409 . S
C383 C382 1.362 . S
H384 C390 0.930 . S
H385 C393 0.930 . S
H386 C394 0.930 . S
H387 C395 0.930 . S
H388 C398 0.930 . S
H389 C399 0.930 . S
C390 H384 0.930 . S
C390 C391 1.355 . S
C390 C392 1.415 . S
C391 C390 1.355 . S
C391 C393 1.419 . S
C392 C390 1.415 . S
C392 C397 1.425 . S
C392 C399 1.409 . S
C393 H385 0.930 . S
C393 C391 1.419 . S
C393 C394 1.362 . S
C394 H386 0.930 . S
C394 C393 1.362 . S
C394 C397 1.409 . S
C395 H387 0.930 . S
C395 C396 1.355 . S
C395 C397 1.415 . S
C396 C395 1.355 . S
C396 C398 1.419 . S
C397 C392 1.425 . S
C397 C394 1.409 . S
C397 C395 1.415 . S
C398 H388 0.930 . S
C398 C396 1.419 . S
C398 C399 1.362 . S
C399 H389 0.930 . S
C399 C392 1.409 . S
C399 C398 1.362 . S
H400 C406 0.930 . S
H401 C409 0.930 . S
H402 C410 0.930 . S
H403 C411 0.930 . S
H404 C414 0.930 . S
H405 C415 0.930 . S
C406 H400 0.930 . S
C406 C407 1.355 . S
C406 C408 1.415 . S
C407 C406 1.355 . S
C407 C409 1.419 . S
C408 C406 1.415 . S
C408 C413 1.425 . S
C408 C415 1.409 . S
C409 H401 0.930 . S
C409 C407 1.419 . S
C409 C410 1.362 . S
C410 H402 0.930 . S
C410 C409 1.362 . S
C410 C413 1.409 . S
C411 H403 0.930 . S
C411 C412 1.355 . S
C411 C413 1.415 . S
C412 C411 1.355 . S
C412 C414 1.419 . S
C413 C408 1.425 . S
C413 C410 1.409 . S
C413 C411 1.415 . S
C414 H404 0.930 . S
C414 C412 1.419 . S
C414 C415 1.362 . S
C415 H405 0.930 . S
C415 C408 1.409 . S
C415 C414 1.362 . S
H416 C422 0.930 . S
H417 C425 0.930 . S
H418 C426 0.930 . S
H419 C427 0.930 . S
H420 C430 0.930 . S
H421 C431 0.930 . S
C422 H416 0.930 . S
C422 C423 1.355 . S
C422 C424 1.418 . S
C423 C422 1.355 . S
C423 C425 1.419 . S
C424 C422 1.418 . S
C424 C429 1.425 1_565 S
C424 C431 1.406 1_565 S
C425 H417 0.930 . S
C425 C423 1.419 . S
C425 C426 1.362 . S
C426 H418 0.930 . S
C426 C425 1.362 . S
C426 C429 1.406 1_565 S
C427 H419 0.930 . S
C427 C428 1.355 . S
C427 C429 1.418 . S
C428 C427 1.355 . S
C428 C430 1.419 . S
C429 C424 1.425 1_545 S
C429 C426 1.406 1_545 S
C429 C427 1.418 . S
C430 H420 0.930 . S
C430 C428 1.419 . S
C430 C431 1.362 . S
C431 H421 0.930 . S
C431 C424 1.406 1_545 S
C431 C430 1.362 . S
H432 C438 0.930 . S
H433 C441 0.930 . S
H434 C442 0.930 . S
H435 C443 0.930 . S
H436 C446 0.930 . S
H437 C447 0.930 . S
C438 H432 0.930 . S
C438 C439 1.355 . S
C438 C440 1.415 . S
C439 C438 1.355 . S
C439 C441 1.419 1_565 S
C440 C438 1.415 . S
C440 C445 1.425 1_565 S
C440 C447 1.409 . S
C441 H433 0.930 . S
C441 C439 1.419 1_545 S
C441 C442 1.362 . S
C442 H434 0.930 . S
C442 C441 1.362 . S
C442 C445 1.409 . S
C443 H435 0.930 . S
C443 C444 1.355 . S
C443 C445 1.415 . S
C444 C443 1.355 . S
C444 C446 1.419 1_545 S
C445 C440 1.425 1_545 S
C445 C442 1.409 . S
C445 C443 1.415 . S
C446 H436 0.930 . S
C446 C444 1.419 1_565 S
C446 C447 1.362 . S
C447 H437 0.930 . S
C447 C440 1.409 . S
C447 C446 1.362 . S
H448 C454 0.930 . S
H449 C457 0.930 . S
H450 C458 0.930 . S
H451 C459 0.930 . S
H452 C462 0.930 . S
H453 C463 0.930 . S
C454 H448 0.930 . S
C454 C455 1.355 1_545 S
C454 C456 1.415 . S
C455 C454 1.355 1_565 S
C455 C457 1.419 . S
C456 C454 1.415 . S
C456 C461 1.425 1_545 S
C456 C463 1.409 . S
C457 H449 0.930 . S
C457 C455 1.419 . S
C457 C458 1.362 . S
C458 H450 0.930 . S
C458 C457 1.362 . S
C458 C461 1.409 . S
C459 H451 0.930 . S
C459 C460 1.355 1_565 S
C459 C461 1.415 . S
C460 C459 1.355 1_545 S
C460 C462 1.419 . S
C461 C456 1.425 1_565 S
C461 C458 1.409 . S
C461 C459 1.415 . S
C462 H452 0.930 . S
C462 C460 1.419 . S
C462 C463 1.362 . S
C463 H453 0.930 . S
C463 C456 1.409 . S
C463 C462 1.362 . S
H464 C470 0.930 . S
H465 C473 0.930 . S
H466 C474 0.930 . S
H467 C475 0.930 . S
H468 C478 0.930 . S
H469 C479 0.930 . S
C470 H464 0.930 . S
C470 C471 1.355 . S
C470 C472 1.415 . S
C471 C470 1.355 . S
C471 C473 1.419 1_565 S
C472 C470 1.415 . S
C472 C477 1.425 1_565 S
C472 C479 1.409 . S
C473 H465 0.930 . S
C473 C471 1.419 1_545 S
C473 C474 1.362 . S
C474 H466 0.930 . S
C474 C473 1.362 . S
C474 C477 1.409 . S
C475 H467 0.930 . S
C475 C476 1.355 . S
C475 C477 1.415 . S
C476 C475 1.355 . S
C476 C478 1.419 1_545 S
C477 C472 1.425 1_545 S
C477 C474 1.409 . S
C477 C475 1.415 . S
C478 H468 0.930 . S
C478 C476 1.419 1_565 S
C478 C479 1.362 . S
C479 H469 0.930 . S
C479 C472 1.409 . S
C479 C478 1.362 . S
H480 C486 0.930 . S
H481 C489 0.930 . S
H482 C490 0.930 . S
H483 C491 0.930 . S
H484 C494 0.930 . S
H485 C495 0.930 . S
C486 H480 0.930 . S
C486 C487 1.355 1_556 S
C486 C488 1.415 . S
C487 C486 1.355 1_554 S
C487 C489 1.419 . S
C488 C486 1.415 . S
C488 C493 1.425 1_566 S
C488 C495 1.409 . S
C489 H481 0.930 . S
C489 C487 1.419 . S
C489 C490 1.362 1_565 S
C490 H482 0.930 . S
C490 C489 1.362 1_545 S
C490 C493 1.409 . S
C491 H483 0.930 . S
C491 C492 1.355 . S
C491 C493 1.415 . S
C492 C491 1.355 . S
C492 C494 1.419 1_554 S
C493 C488 1.425 1_544 S
C493 C490 1.409 . S
C493 C491 1.415 . S
C494 H484 0.930 . S
C494 C492 1.419 1_556 S
C494 C495 1.362 1_545 S
C495 H485 0.930 . S
C495 C488 1.409 . S
C495 C494 1.362 1_565 S
H496 C502 0.930 . S
H497 C505 0.930 . S
H498 C506 0.930 . S
H499 C507 0.930 . S
H500 C510 0.930 . S
H501 C511 0.930 . S
C502 H496 0.930 . S
C502 C503 1.355 . S
C502 C504 1.415 1_565 S
C503 C502 1.355 . S
C503 C505 1.419 . S
C504 C502 1.415 1_545 S
C504 C509 1.425 1_545 S
C504 C511 1.409 . S
C505 H497 0.930 . S
C505 C503 1.419 . S
C505 C506 1.362 . S
C506 H498 0.930 . S
C506 C505 1.362 . S
C506 C509 1.409 . S
C507 H499 0.930 . S
C507 C508 1.355 . S
C507 C509 1.415 1_545 S
C508 C507 1.355 . S
C508 C510 1.419 . S
C509 C504 1.425 1_565 S
C509 C506 1.409 . S
C509 C507 1.415 1_565 S
C510 H500 0.930 . S
C510 C508 1.419 . S
C510 C511 1.362 . S
C511 H501 0.930 . S
C511 C504 1.409 . S
C511 C510 1.362 . S
H512 C518 0.930 . S
H513 C521 0.930 . S
H514 C522 0.930 . S
H515 C523 0.930 . S
H516 C526 0.930 . S
H517 C527 0.930 . S
C518 H512 0.930 . S
C518 C519 1.355 . S
C518 C520 1.415 1_455 S
C519 C518 1.355 . S
C519 C521 1.419 1_554 S
C520 C518 1.415 1_655 S
C520 C525 1.425 1_654 S
C520 C527 1.409 . S
C521 H513 0.930 . S
C521 C519 1.419 1_556 S
C521 C522 1.362 . S
C522 H514 0.930 . S
C522 C521 1.362 . S
C522 C525 1.409 . S
C523 H515 0.930 . S
C523 C524 1.355 1_556 S
C523 C525 1.415 1_655 S
C524 C523 1.355 1_554 S
C524 C526 1.419 . S
C525 C520 1.425 1_456 S
C525 C522 1.409 . S
C525 C523 1.415 1_455 S
C526 H516 0.930 . S
C526 C524 1.419 . S
C526 C527 1.362 . S
C527 H517 0.930 . S
C527 C520 1.409 . S
C527 C526 1.362 . S
H528 C534 0.930 . S
H529 C537 0.930 . S
H530 C538 0.930 . S
H531 C539 0.930 . S
H532 C542 0.930 . S
H533 C543 0.930 . S
C534 H528 0.930 . S
C534 C535 1.355 . S
C534 C536 1.415 . S
C535 C534 1.355 . S
C535 C537 1.419 . S
C536 C534 1.415 . S
C536 C541 1.425 1_455 S
C536 C543 1.409 . S
C537 H529 0.930 . S
C537 C535 1.419 . S
C537 C538 1.362 1_455 S
C538 H530 0.930 . S
C538 C537 1.362 1_655 S
C538 C541 1.409 . S
C539 H531 0.930 . S
C539 C540 1.355 . S
C539 C541 1.415 . S
C540 C539 1.355 . S
C540 C542 1.419 . S
C541 C536 1.425 1_655 S
C541 C538 1.409 . S
C541 C539 1.415 . S
C542 H532 0.930 . S
C542 C540 1.419 . S
C542 C543 1.362 1_655 S
C543 H533 0.930 . S
C543 C536 1.409 . S
C543 C542 1.362 1_455 S
C295 C183 1.504 1_556 S
C300 C3 1.494 . S
C311 C147 1.505 . S
C316 C39 1.501 . S
C327 C255 1.503 . S
C332 C75 1.504 . S
C343 C219 1.494 . S
C348 C111 1.502 . S
C359 C14 1.374 . S
C364 C86 1.402 . S
C375 C50 1.397 . S
C380 C122 1.379 . S
C391 C38 1.354 . S
C396 C110 1.341 . S
C407 C2 1.341 . S
C412 C74 1.350 . S
C423 C158 1.365 . S
C428 C230 1.412 . S
C439 C266 1.372 . S
C444 C194 1.403 . S
C455 C254 1.358 . S
C460 C182 1.343 . S
C471 C146 1.372 . S
C476 C218 1.388 . S
C487 C40 1.504 . S
C492 C4 1.497 . S
C503 C76 1.490 . S
C508 C112 1.493 . S
C519 C148 1.503 . S
C524 C184 1.505 . S
C535 C220 1.490 . S
C540 C256 1.497 . S
