# Generated by pormake.
# Topology uoh, (4)-cn, num edge types: 1
# Building blocks:
#     Node 0, Type 0, BuildingBlock: CEKHIL_clean_sbu_0, # of connection points: 4
#     Node 1, Type 0, BuildingBlock: CEKHIL_clean_sbu_0, # of connection points: 4
#     Node 2, Type 0, BuildingBlock: CEKHIL_clean_sbu_0, # of connection points: 4
#     Node 3, Type 0, BuildingBlock: CEKHIL_clean_sbu_0, # of connection points: 4
#     Node 4, Type 0, BuildingBlock: CEKHIL_clean_sbu_0, # of connection points: 4
#     Node 5, Type 0, BuildingBlock: CEKHIL_clean_sbu_0, # of connection points: 4
#     Node 6, Type 0, BuildingBlock: CEKHIL_clean_sbu_0, # of connection points: 4
#     Node 7, Type 0, BuildingBlock: CEKHIL_clean_sbu_0, # of connection points: 4
#     Node 8, Type 0, BuildingBlock: CEKHIL_clean_sbu_0, # of connection points: 4
#     Node 9, Type 0, BuildingBlock: CEKHIL_clean_sbu_0, # of connection points: 4
#     Node 10, Type 0, BuildingBlock: CEKHIL_clean_sbu_0, # of connection points: 4
#     Node 11, Type 0, BuildingBlock: CEKHIL_clean_sbu_0, # of connection points: 4
#     Node 12, Type 0, BuildingBlock: CEKHIL_clean_sbu_0, # of connection points: 4
#     Node 13, Type 0, BuildingBlock: CEKHIL_clean_sbu_0, # of connection points: 4
#     Node 14, Type 0, BuildingBlock: CEKHIL_clean_sbu_0, # of connection points: 4
#     Node 15, Type 0, BuildingBlock: CEKHIL_clean_sbu_0, # of connection points: 4
#     Node 16, Type 0, BuildingBlock: CEKHIL_clean_sbu_0, # of connection points: 4
#     Node 17, Type 0, BuildingBlock: CEKHIL_clean_sbu_0, # of connection points: 4
#     Node 18, Type 0, BuildingBlock: CEKHIL_clean_sbu_0, # of connection points: 4
#     Node 19, Type 0, BuildingBlock: CEKHIL_clean_sbu_0, # of connection points: 4
#     Node 20, Type 0, BuildingBlock: CEKHIL_clean_sbu_0, # of connection points: 4
#     Node 21, Type 0, BuildingBlock: CEKHIL_clean_sbu_0, # of connection points: 4
#     Node 22, Type 0, BuildingBlock: CEKHIL_clean_sbu_0, # of connection points: 4
#     Node 23, Type 0, BuildingBlock: CEKHIL_clean_sbu_0, # of connection points: 4
#     Node 24, Type 0, BuildingBlock: CEKHIL_clean_sbu_0, # of connection points: 4
#     Node 25, Type 0, BuildingBlock: CEKHIL_clean_sbu_0, # of connection points: 4
#     Node 26, Type 0, BuildingBlock: CEKHIL_clean_sbu_0, # of connection points: 4
#     Node 27, Type 0, BuildingBlock: CEKHIL_clean_sbu_0, # of connection points: 4
#     Node 28, Type 0, BuildingBlock: CEKHIL_clean_sbu_0, # of connection points: 4
#     Node 29, Type 0, BuildingBlock: CEKHIL_clean_sbu_0, # of connection points: 4
#     Node 30, Type 0, BuildingBlock: CEKHIL_clean_sbu_0, # of connection points: 4
#     Node 31, Type 0, BuildingBlock: CEKHIL_clean_sbu_0, # of connection points: 4
#     Node 32, Type 0, BuildingBlock: CEKHIL_clean_sbu_0, # of connection points: 4
#     Node 33, Type 0, BuildingBlock: CEKHIL_clean_sbu_0, # of connection points: 4
#     Node 34, Type 0, BuildingBlock: CEKHIL_clean_sbu_0, # of connection points: 4
#     Node 35, Type 0, BuildingBlock: CEKHIL_clean_sbu_0, # of connection points: 4
#     Edge 36, Type (0, 0), BuildingBlock: ZUJKAS_clean_linker_0, # of connection points: 2
#     Edge 37, Type (0, 0), BuildingBlock: ZUJKAS_clean_linker_0, # of connection points: 2
#     Edge 38, Type (0, 0), BuildingBlock: ZUJKAS_clean_linker_0, # of connection points: 2
#     Edge 39, Type (0, 0), BuildingBlock: ZUJKAS_clean_linker_0, # of connection points: 2
#     Edge 40, Type (0, 0), BuildingBlock: ZUJKAS_clean_linker_0, # of connection points: 2
#     Edge 41, Type (0, 0), BuildingBlock: ZUJKAS_clean_linker_0, # of connection points: 2
#     Edge 42, Type (0, 0), BuildingBlock: ZUJKAS_clean_linker_0, # of connection points: 2
#     Edge 43, Type (0, 0), BuildingBlock: ZUJKAS_clean_linker_0, # of connection points: 2
#     Edge 44, Type (0, 0), BuildingBlock: ZUJKAS_clean_linker_0, # of connection points: 2
#     Edge 45, Type (0, 0), BuildingBlock: ZUJKAS_clean_linker_0, # of connection points: 2
#     Edge 46, Type (0, 0), BuildingBlock: ZUJKAS_clean_linker_0, # of connection points: 2
#     Edge 47, Type (0, 0), BuildingBlock: ZUJKAS_clean_linker_0, # of connection points: 2
#     Edge 48, Type (0, 0), BuildingBlock: ZUJKAS_clean_linker_0, # of connection points: 2
#     Edge 49, Type (0, 0), BuildingBlock: ZUJKAS_clean_linker_0, # of connection points: 2
#     Edge 50, Type (0, 0), BuildingBlock: ZUJKAS_clean_linker_0, # of connection points: 2
#     Edge 51, Type (0, 0), BuildingBlock: ZUJKAS_clean_linker_0, # of connection points: 2
#     Edge 52, Type (0, 0), BuildingBlock: ZUJKAS_clean_linker_0, # of connection points: 2
#     Edge 53, Type (0, 0), BuildingBlock: ZUJKAS_clean_linker_0, # of connection points: 2
#     Edge 54, Type (0, 0), BuildingBlock: ZUJKAS_clean_linker_0, # of connection points: 2
#     Edge 55, Type (0, 0), BuildingBlock: ZUJKAS_clean_linker_0, # of connection points: 2
#     Edge 56, Type (0, 0), BuildingBlock: ZUJKAS_clean_linker_0, # of connection points: 2
#     Edge 57, Type (0, 0), BuildingBlock: ZUJKAS_clean_linker_0, # of connection points: 2
#     Edge 58, Type (0, 0), BuildingBlock: ZUJKAS_clean_linker_0, # of connection points: 2
#     Edge 59, Type (0, 0), BuildingBlock: ZUJKAS_clean_linker_0, # of connection points: 2
#     Edge 60, Type (0, 0), BuildingBlock: ZUJKAS_clean_linker_0, # of connection points: 2
#     Edge 61, Type (0, 0), BuildingBlock: ZUJKAS_clean_linker_0, # of connection points: 2
#     Edge 62, Type (0, 0), BuildingBlock: ZUJKAS_clean_linker_0, # of connection points: 2
#     Edge 63, Type (0, 0), BuildingBlock: ZUJKAS_clean_linker_0, # of connection points: 2
#     Edge 64, Type (0, 0), BuildingBlock: ZUJKAS_clean_linker_0, # of connection points: 2
#     Edge 65, Type (0, 0), BuildingBlock: ZUJKAS_clean_linker_0, # of connection points: 2
#     Edge 66, Type (0, 0), BuildingBlock: ZUJKAS_clean_linker_0, # of connection points: 2
#     Edge 67, Type (0, 0), BuildingBlock: ZUJKAS_clean_linker_0, # of connection points: 2
#     Edge 68, Type (0, 0), BuildingBlock: ZUJKAS_clean_linker_0, # of connection points: 2
#     Edge 69, Type (0, 0), BuildingBlock: ZUJKAS_clean_linker_0, # of connection points: 2
#     Edge 70, Type (0, 0), BuildingBlock: ZUJKAS_clean_linker_0, # of connection points: 2
#     Edge 71, Type (0, 0), BuildingBlock: ZUJKAS_clean_linker_0, # of connection points: 2
#     Edge 72, Type (0, 0), BuildingBlock: ZUJKAS_clean_linker_0, # of connection points: 2
#     Edge 73, Type (0, 0), BuildingBlock: ZUJKAS_clean_linker_0, # of connection points: 2
#     Edge 74, Type (0, 0), BuildingBlock: ZUJKAS_clean_linker_0, # of connection points: 2
#     Edge 75, Type (0, 0), BuildingBlock: ZUJKAS_clean_linker_0, # of connection points: 2
#     Edge 76, Type (0, 0), BuildingBlock: ZUJKAS_clean_linker_0, # of connection points: 2
#     Edge 77, Type (0, 0), BuildingBlock: ZUJKAS_clean_linker_0, # of connection points: 2
#     Edge 78, Type (0, 0), BuildingBlock: ZUJKAS_clean_linker_0, # of connection points: 2
#     Edge 79, Type (0, 0), BuildingBlock: ZUJKAS_clean_linker_0, # of connection points: 2
#     Edge 80, Type (0, 0), BuildingBlock: ZUJKAS_clean_linker_0, # of connection points: 2
#     Edge 81, Type (0, 0), BuildingBlock: ZUJKAS_clean_linker_0, # of connection points: 2
#     Edge 82, Type (0, 0), BuildingBlock: ZUJKAS_clean_linker_0, # of connection points: 2
#     Edge 83, Type (0, 0), BuildingBlock: ZUJKAS_clean_linker_0, # of connection points: 2
#     Edge 84, Type (0, 0), BuildingBlock: ZUJKAS_clean_linker_0, # of connection points: 2
#     Edge 85, Type (0, 0), BuildingBlock: ZUJKAS_clean_linker_0, # of connection points: 2
#     Edge 86, Type (0, 0), BuildingBlock: ZUJKAS_clean_linker_0, # of connection points: 2
#     Edge 87, Type (0, 0), BuildingBlock: ZUJKAS_clean_linker_0, # of connection points: 2
#     Edge 88, Type (0, 0), BuildingBlock: ZUJKAS_clean_linker_0, # of connection points: 2
#     Edge 89, Type (0, 0), BuildingBlock: ZUJKAS_clean_linker_0, # of connection points: 2
#     Edge 90, Type (0, 0), BuildingBlock: ZUJKAS_clean_linker_0, # of connection points: 2
#     Edge 91, Type (0, 0), BuildingBlock: ZUJKAS_clean_linker_0, # of connection points: 2
#     Edge 92, Type (0, 0), BuildingBlock: ZUJKAS_clean_linker_0, # of connection points: 2
#     Edge 93, Type (0, 0), BuildingBlock: ZUJKAS_clean_linker_0, # of connection points: 2
#     Edge 94, Type (0, 0), BuildingBlock: ZUJKAS_clean_linker_0, # of connection points: 2
#     Edge 95, Type (0, 0), BuildingBlock: ZUJKAS_clean_linker_0, # of connection points: 2
#     Edge 96, Type (0, 0), BuildingBlock: ZUJKAS_clean_linker_0, # of connection points: 2
#     Edge 97, Type (0, 0), BuildingBlock: ZUJKAS_clean_linker_0, # of connection points: 2
#     Edge 98, Type (0, 0), BuildingBlock: ZUJKAS_clean_linker_0, # of connection points: 2
#     Edge 99, Type (0, 0), BuildingBlock: ZUJKAS_clean_linker_0, # of connection points: 2
#     Edge 100, Type (0, 0), BuildingBlock: ZUJKAS_clean_linker_0, # of connection points: 2
#     Edge 101, Type (0, 0), BuildingBlock: ZUJKAS_clean_linker_0, # of connection points: 2
#     Edge 102, Type (0, 0), BuildingBlock: ZUJKAS_clean_linker_0, # of connection points: 2
#     Edge 103, Type (0, 0), BuildingBlock: ZUJKAS_clean_linker_0, # of connection points: 2
#     Edge 104, Type (0, 0), BuildingBlock: ZUJKAS_clean_linker_0, # of connection points: 2
#     Edge 105, Type (0, 0), BuildingBlock: ZUJKAS_clean_linker_0, # of connection points: 2
#     Edge 106, Type (0, 0), BuildingBlock: ZUJKAS_clean_linker_0, # of connection points: 2
#     Edge 107, Type (0, 0), BuildingBlock: ZUJKAS_clean_linker_0, # of connection points: 2
# Relax obj value: 0.091
# Max RMSD: 0.140
# Mean RMSD: 0.140
data_MOF--net-uoh--node1-CEKHIL_clean_sbu_0--edge1-ZUJKAS_clean_linker_0
_symmetry_space_group_name_H-M    P1
_symmetry_Int_Tables_number       1
_symmetry_cell_setting            triclinic
loop_
_symmetry_equiv_pos_as_xyz
'x, y, z'
_cell_length_a     114.14224
_cell_length_b     114.13196
_cell_length_c     35.892907
_cell_angle_alpha  90.027789
_cell_angle_beta   89.989937
_cell_angle_gamma 120.01485
loop_
_atom_site_label
_atom_site_type_symbol
_atom_site_fract_x
_atom_site_fract_y
_atom_site_fract_z
_atom_type_partial_charge
Co0 Co 0.2396 0.14874 0.17509 0.0
O1 O 0.22481 0.1522 0.17822 0.0
O2 O 0.24579 0.16651 0.19619 0.0
C3 C 0.23544 0.14066 0.11656 0.0
O4 O 0.25752 0.1489 0.17442 0.0
Co5 Co 0.2341 0.11938 0.16466 0.0
O6 O 0.25397 0.12848 0.15655 0.0
C7 C 0.22911 0.12797 0.23731 0.0
C8 C 0.2334 0.16393 0.19193 0.0
C9 C 0.26188 0.14088 0.16485 0.0
O10 O 0.23522 0.14034 0.22619 0.0
O11 O 0.22639 0.11796 0.21588 0.0
O12 O 0.24202 0.15363 0.12251 0.0
O13 O 0.23053 0.13316 0.14576 0.0
Co14 Co 0.85146 0.08985 0.17164 0.0
O15 O 0.84817 0.07182 0.1793 0.0
O16 O 0.83361 0.07868 0.19273 0.0
C17 C 0.85987 0.09246 0.11372 0.0
O18 O 0.85115 0.10745 0.16624 0.0
Co19 Co 0.8808 0.11364 0.1599 0.0
O20 O 0.87162 0.12407 0.14783 0.0
C21 C 0.87185 0.10191 0.23454 0.0
C22 C 0.83638 0.06891 0.19198 0.0
C23 C 0.85917 0.11966 0.15518 0.0
O24 O 0.85957 0.09521 0.22288 0.0
O25 O 0.88197 0.10877 0.21303 0.0
O26 O 0.84686 0.08606 0.11904 0.0
O27 O 0.8672 0.0958 0.14345 0.0
Co28 Co 0.91017 0.76094 0.17147 0.0
O29 O 0.92808 0.77584 0.18016 0.0
O30 O 0.92135 0.75439 0.19297 0.0
C31 C 0.90786 0.7669 0.11343 0.0
O32 O 0.89278 0.74286 0.16519 0.0
Co33 Co 0.88597 0.76573 0.15805 0.0
O34 O 0.87603 0.74621 0.14513 0.0
C35 C 0.89698 0.76828 0.23383 0.0
C36 C 0.93103 0.76696 0.19278 0.0
C37 C 0.88064 0.7384 0.15321 0.0
O38 O 0.90439 0.76344 0.22243 0.0
O39 O 0.88983 0.77103 0.21191 0.0
O40 O 0.91441 0.76046 0.11908 0.0
O41 O 0.90412 0.7706 0.14299 0.0
Co42 Co 0.14834 0.23824 0.30892 0.0
O43 O 0.15178 0.22349 0.30353 0.0
O44 O 0.16582 0.24458 0.2859 0.0
C45 C 0.14098 0.2338 0.36815 0.0
O46 O 0.14858 0.25619 0.31159 0.0
Co47 Co 0.11926 0.23298 0.32339 0.0
O48 O 0.12863 0.25273 0.33343 0.0
C49 C 0.12699 0.22921 0.24784 0.0
C50 C 0.16334 0.23219 0.28914 0.0
C51 C 0.14085 0.26061 0.32351 0.0
O52 O 0.13934 0.2342 0.25858 0.0
O53 O 0.1173 0.22689 0.27012 0.0
O54 O 0.15387 0.24037 0.36098 0.0
O55 O 0.13311 0.22905 0.33956 0.0
Co56 Co 0.76143 0.90964 0.31275 0.0
O57 O 0.77657 0.92753 0.30582 0.0
O58 O 0.75526 0.92144 0.29325 0.0
C59 C 0.76716 0.90635 0.37009 0.0
O60 O 0.74314 0.89239 0.31772 0.0
Co61 Co 0.76564 0.88494 0.32236 0.0
O62 O 0.74617 0.87524 0.33585 0.0
C63 C 0.76823 0.89692 0.24788 0.0
C64 C 0.7679 0.93093 0.29426 0.0
C65 C 0.73851 0.88011 0.32878 0.0
O66 O 0.76383 0.90452 0.26083 0.0
O67 O 0.77068 0.88923 0.26846 0.0
O68 O 0.76092 0.91315 0.36566 0.0
O69 O 0.77083 0.90293 0.33986 0.0
Co70 Co 0.09052 0.85195 0.3075 0.0
O71 O 0.07243 0.84865 0.30114 0.0
O72 O 0.07918 0.83408 0.2867 0.0
C73 C 0.09355 0.86034 0.36561 0.0
O74 O 0.10817 0.85167 0.31159 0.0
Co75 Co 0.11438 0.88131 0.31868 0.0
O76 O 0.12486 0.87212 0.32992 0.0
C77 C 0.10217 0.87234 0.24447 0.0
C78 C 0.0694 0.8368 0.28852 0.0
C79 C 0.12042 0.85968 0.32229 0.0
O80 O 0.0955 0.86006 0.25615 0.0
O81 O 0.10919 0.88246 0.26588 0.0
O82 O 0.08711 0.84734 0.36016 0.0
O83 O 0.09669 0.8677 0.33595 0.0
Co84 Co 0.76068 0.85192 0.8097 0.0
O85 O 0.77524 0.84809 0.81107 0.0
O86 O 0.75475 0.83419 0.78857 0.0
C87 C 0.76342 0.85988 0.86821 0.0
O88 O 0.74298 0.85214 0.80577 0.0
Co89 Co 0.76638 0.8814 0.81844 0.0
O90 O 0.74644 0.87247 0.82412 0.0
C91 C 0.77208 0.87263 0.74682 0.0
C92 C 0.76688 0.83651 0.7961 0.0
C93 C 0.73859 0.86021 0.81449 0.0
O94 O 0.76651 0.86039 0.75892 0.0
O95 O 0.77399 0.88264 0.76726 0.0
O96 O 0.75678 0.84692 0.86203 0.0
O97 O 0.76919 0.86741 0.83954 0.0
Co98 Co 0.14927 0.91023 0.80566 0.0
O99 O 0.15298 0.92856 0.80242 0.0
O100 O 0.16689 0.92151 0.78343 0.0
C101 C 0.14169 0.90665 0.8646 0.0
O102 O 0.14922 0.89235 0.80631 0.0
Co103 Co 0.12001 0.88655 0.81795 0.0
O104 O 0.12906 0.8758 0.82671 0.0
C105 C 0.12819 0.89911 0.74373 0.0
C106 C 0.16454 0.93147 0.78792 0.0
C107 C 0.14131 0.88011 0.81718 0.0
O108 O 0.1405 0.90613 0.75502 0.0
O109 O 0.11836 0.89151 0.76534 0.0
O110 O 0.1546 0.91281 0.85785 0.0
O111 O 0.13392 0.90404 0.83595 0.0
Co112 Co 0.08991 0.2388 0.80947 0.0
O113 O 0.07205 0.22372 0.80156 0.0
O114 O 0.07861 0.24495 0.78646 0.0
C115 C 0.09231 0.23366 0.86842 0.0
O116 O 0.10725 0.25701 0.81455 0.0
Co117 Co 0.11415 0.23426 0.82471 0.0
O118 O 0.12389 0.25386 0.83679 0.0
C119 C 0.10334 0.23105 0.74846 0.0
C120 C 0.06901 0.23235 0.7876 0.0
C121 C 0.11932 0.26158 0.82729 0.0
O122 O 0.09571 0.23573 0.75913 0.0
O123 O 0.11062 0.22868 0.77095 0.0
O124 O 0.0857 0.23995 0.8615 0.0
O125 O 0.09602 0.22956 0.83959 0.0
Co126 Co 0.852 0.76066 0.67401 0.0
O127 O 0.84957 0.77608 0.67797 0.0
O128 O 0.83478 0.75543 0.69744 0.0
C129 C 0.85919 0.76435 0.61461 0.0
O130 O 0.85072 0.74218 0.67271 0.0
Co131 Co 0.88044 0.76422 0.6591 0.0
O132 O 0.87004 0.74448 0.64927 0.0
C133 C 0.87349 0.76917 0.73446 0.0
C134 C 0.83792 0.76798 0.69296 0.0
C135 C 0.85785 0.73714 0.66018 0.0
O136 O 0.8612 0.76486 0.72408 0.0
O137 O 0.88285 0.77057 0.71211 0.0
O138 O 0.84632 0.75833 0.62202 0.0
O139 O 0.86718 0.76895 0.64299 0.0
Co140 Co 0.23823 0.09096 0.67326 0.0
O141 O 0.22341 0.07282 0.67888 0.0
O142 O 0.24463 0.07961 0.69456 0.0
C143 C 0.23312 0.09393 0.61486 0.0
O144 O 0.25627 0.10857 0.67005 0.0
Co145 Co 0.23338 0.11508 0.66081 0.0
O146 O 0.253 0.12527 0.64919 0.0
C147 C 0.23018 0.10344 0.7361 0.0
C148 C 0.23216 0.06979 0.69197 0.0
C149 C 0.2608 0.12074 0.6583 0.0
O150 O 0.2347 0.0958 0.72436 0.0
O151 O 0.22801 0.11111 0.71459 0.0
O152 O 0.23983 0.08768 0.6208 0.0
O153 O 0.22877 0.09714 0.64415 0.0
Co154 Co 0.90856 0.1476 0.67507 0.0
O155 O 0.92669 0.15073 0.6783 0.0
O156 O 0.92025 0.1651 0.69752 0.0
C157 C 0.90484 0.14022 0.61594 0.0
O158 O 0.89096 0.14811 0.67483 0.0
Co159 Co 0.88433 0.1187 0.66207 0.0
O160 O 0.87399 0.12822 0.65424 0.0
C161 C 0.89709 0.12629 0.7362 0.0
C162 C 0.92994 0.16235 0.69308 0.0
C163 C 0.87863 0.14049 0.66419 0.0
O164 O 0.90428 0.13864 0.7254 0.0
O165 O 0.8893 0.11664 0.71433 0.0
O166 O 0.91127 0.15311 0.62304 0.0
O167 O 0.90199 0.13231 0.64436 0.0
Co168 Co 0.90493 0.48139 0.50403 0.0
O169 O 0.89053 0.48544 0.50724 0.0
O170 O 0.91172 0.49936 0.52433 0.0
C171 C 0.90028 0.47286 0.44596 0.0
O172 O 0.92255 0.48096 0.50318 0.0
Co173 Co 0.89863 0.4517 0.49505 0.0
O174 O 0.91842 0.46029 0.48599 0.0
C175 C 0.89469 0.46116 0.56774 0.0
C176 C 0.89944 0.49714 0.52045 0.0
C177 C 0.92659 0.47267 0.49384 0.0
O178 O 0.90069 0.4734 0.55561 0.0
O179 O 0.89169 0.45091 0.54698 0.0
O180 O 0.90717 0.48587 0.45114 0.0
O181 O 0.89537 0.46563 0.47562 0.0
Co182 Co 0.51836 0.42395 0.50788 0.0
O183 O 0.51567 0.40621 0.51701 0.0
O184 O 0.50049 0.41245 0.52841 0.0
C185 C 0.52708 0.42632 0.45038 0.0
O186 O 0.5174 0.44115 0.50078 0.0
Co187 Co 0.54738 0.44835 0.49588 0.0
O188 O 0.53767 0.45813 0.48234 0.0
C189 C 0.53847 0.43693 0.57089 0.0
C190 C 0.50365 0.40296 0.5286 0.0
C191 C 0.52513 0.45336 0.48928 0.0
O192 O 0.52621 0.4299 0.55921 0.0
O193 O 0.54857 0.44383 0.54933 0.0
O194 O 0.51406 0.4196 0.45534 0.0
O195 O 0.5343 0.4302 0.48032 0.0
Co196 Co 0.57685 0.09428 0.50749 0.0
O197 O 0.59455 0.1096 0.51565 0.0
O198 O 0.58838 0.08847 0.53085 0.0
C199 C 0.57445 0.09933 0.44845 0.0
O200 O 0.55973 0.07588 0.50223 0.0
Co201 Co 0.55229 0.09826 0.49175 0.0
O202 O 0.54283 0.07863 0.48014 0.0
C203 C 0.56301 0.10167 0.56815 0.0
C204 C 0.59779 0.10114 0.52985 0.0
C205 C 0.54761 0.07109 0.48963 0.0
O206 O 0.57082 0.09717 0.55766 0.0
O207 O 0.55566 0.10387 0.54551 0.0
O208 O 0.58125 0.09325 0.45555 0.0
O209 O 0.57053 0.10329 0.47716 0.0
Co210 Co 0.81505 0.57145 0.64141 0.0
O211 O 0.81863 0.5568 0.6359 0.0
O212 O 0.83285 0.57806 0.62007 0.0
C213 C 0.80697 0.56637 0.69985 0.0
O214 O 0.81514 0.58933 0.64458 0.0
Co215 Co 0.78582 0.56595 0.65328 0.0
O216 O 0.79495 0.58555 0.66522 0.0
C217 C 0.79453 0.56294 0.57826 0.0
C218 C 0.83036 0.56565 0.62268 0.0
C219 C 0.80725 0.59357 0.65637 0.0
O220 O 0.80672 0.56781 0.59023 0.0
O221 O 0.78456 0.56045 0.59961 0.0
O222 O 0.81994 0.57318 0.69388 0.0
O223 O 0.79943 0.56183 0.67056 0.0
Co224 Co 0.42727 0.24286 0.64219 0.0
O225 O 0.44227 0.26091 0.6367 0.0
O226 O 0.4211 0.25441 0.62104 0.0
C227 C 0.43208 0.23941 0.70048 0.0
O228 O 0.40913 0.22534 0.64502 0.0
Co229 Co 0.43197 0.21851 0.65353 0.0
O230 O 0.41228 0.2084 0.66448 0.0
C231 C 0.43576 0.23087 0.57914 0.0
C232 C 0.43365 0.26406 0.62326 0.0
C233 C 0.40455 0.21306 0.65597 0.0
O234 O 0.43079 0.23811 0.59098 0.0
O235 O 0.43806 0.22324 0.60043 0.0
O236 O 0.42572 0.24604 0.69484 0.0
O237 O 0.43642 0.23631 0.67099 0.0
Co238 Co 0.75811 0.18702 0.64762 0.0
O239 O 0.7402 0.18434 0.64211 0.0
O240 O 0.74603 0.16898 0.62902 0.0
C241 C 0.76211 0.19637 0.70472 0.0
O242 O 0.77538 0.18595 0.65116 0.0
Co243 Co 0.78295 0.21597 0.65516 0.0
O244 O 0.79274 0.20623 0.66788 0.0
C245 C 0.77021 0.20617 0.58165 0.0
C246 C 0.73661 0.17221 0.63069 0.0
C247 C 0.78777 0.19364 0.66123 0.0
O248 O 0.76271 0.19426 0.59527 0.0
O249 O 0.77813 0.21643 0.60159 0.0
O250 O 0.7552 0.1833 0.7008 0.0
O251 O 0.76518 0.20329 0.67424 0.0
Co252 Co 0.42839 0.18531 0.14246 0.0
O253 O 0.44343 0.1823 0.13762 0.0
O254 O 0.42229 0.16745 0.12228 0.0
C255 C 0.43324 0.19386 0.20043 0.0
O256 O 0.4102 0.18459 0.14521 0.0
Co257 Co 0.43303 0.21438 0.15238 0.0
O258 O 0.41338 0.20481 0.16365 0.0
C259 C 0.43666 0.20539 0.07843 0.0
C260 C 0.43483 0.17036 0.12511 0.0
C261 C 0.40563 0.19234 0.15583 0.0
O262 O 0.43177 0.19325 0.09085 0.0
O263 O 0.43901 0.21544 0.09928 0.0
O264 O 0.4269 0.18085 0.19522 0.0
O265 O 0.43755 0.20119 0.17071 0.0
Co266 Co 0.81635 0.24294 0.14469 0.0
O267 O 0.81977 0.26121 0.14533 0.0
O268 O 0.83413 0.25499 0.12434 0.0
C269 C 0.80799 0.23761 0.20281 0.0
O270 O 0.81663 0.22525 0.14154 0.0
Co271 Co 0.78708 0.21869 0.15196 0.0
O272 O 0.79633 0.20803 0.15869 0.0
C273 C 0.79607 0.23333 0.08069 0.0
C274 C 0.83148 0.26464 0.13088 0.0
C275 C 0.80872 0.21272 0.14998 0.0
O276 O 0.80821 0.24009 0.09339 0.0
O277 O 0.78599 0.22508 0.10065 0.0
O278 O 0.82099 0.2442 0.19737 0.0
O279 O 0.80062 0.23566 0.17362 0.0
Co280 Co 0.75751 0.57224 0.14019 0.0
O281 O 0.73939 0.55724 0.13637 0.0
O282 O 0.74578 0.57823 0.11909 0.0
C283 C 0.76138 0.56805 0.19878 0.0
O284 O 0.77508 0.59033 0.14142 0.0
Co285 Co 0.7817 0.56727 0.15101 0.0
O286 O 0.7921 0.58712 0.15986 0.0
C287 C 0.7684 0.56238 0.07789 0.0
C288 C 0.7361 0.56574 0.1228 0.0
C289 C 0.78746 0.59488 0.15139 0.0
O290 O 0.76185 0.56818 0.08906 0.0
O291 O 0.77578 0.55979 0.0994 0.0
O292 O 0.75478 0.57442 0.19279 0.0
O293 O 0.76418 0.56333 0.16954 0.0
Co294 Co 0.51772 0.09364 0.00767 0.0
O295 O 0.51476 0.10868 0.01379 0.0
O296 O 0.50035 0.08762 0.03097 0.0
C297 C 0.52505 0.09816 0.94845 0.0
O298 O 0.51694 0.07545 0.00431 0.0
Co299 Co 0.54648 0.09814 -0.00745 0.0
O300 O 0.53669 0.07839 0.9824 0.0
C301 C 0.53912 0.10215 0.06833 0.0
C302 C 0.50315 0.10013 0.02827 0.0
C303 C 0.52441 0.07075 -0.00778 0.0
O304 O 0.52677 0.09734 0.0579 0.0
O305 O 0.54869 0.1043 0.04578 0.0
O306 O 0.51217 0.09182 0.95566 0.0
O307 O 0.53296 0.10263 0.97703 0.0
Co308 Co 0.9058 0.42482 0.00489 0.0
O309 O 0.89112 0.40648 0.00611 0.0
O310 O 0.91192 0.41319 0.02601 0.0
C311 C 0.90201 0.42912 0.94639 0.0
O312 O 0.92368 0.44264 0.00606 0.0
Co313 Co 0.90054 0.44877 -0.00472 0.0
O314 O 0.92037 0.45952 0.98703 0.0
C315 C 0.89572 0.43528 0.06824 0.0
C316 C 0.89963 0.40335 0.02039 0.0
C317 C 0.92818 0.45502 -0.00376 0.0
O318 O 0.90089 0.42825 0.056 0.0
O319 O 0.89375 0.44327 0.04757 0.0
O320 O 0.90878 0.42293 0.95233 0.0
O321 O 0.89683 0.43146 0.97548 0.0
Co322 Co 0.57583 0.48142 0.0123 0.0
O323 O 0.59403 0.48482 0.01682 0.0
O324 O 0.58701 0.49868 0.03644 0.0
C325 C 0.57282 0.47467 0.95262 0.0
O326 O 0.55808 0.48162 0.01092 0.0
Co327 Co 0.55203 0.45249 -0.00368 0.0
O328 O 0.54166 0.46192 0.98757 0.0
C329 C 0.56368 0.4595 0.07184 0.0
C330 C 0.5969 0.4962 0.03249 0.0
C331 C 0.54596 0.47402 -0.0014 0.0
O332 O 0.5711 0.47192 0.0619 0.0
O333 O 0.55609 0.45004 0.04921 0.0
O334 O 0.57905 0.48748 0.96074 0.0
O335 O 0.5698 0.46649 0.98045 0.0
Co336 Co 0.57228 0.81586 0.84046 0.0
O337 O 0.55713 0.81848 0.84873 0.0
O338 O 0.57845 0.83363 0.86143 0.0
C339 C 0.56646 0.80741 0.78251 0.0
O340 O 0.59056 0.81695 0.83426 0.0
Co341 Co 0.56798 0.78702 0.82797 0.0
O342 O 0.58738 0.79694 0.81388 0.0
C343 C 0.56555 0.79569 0.90363 0.0
C344 C 0.5658 0.83046 0.86089 0.0
C345 C 0.5951 0.8094 0.8218 0.0
O346 O 0.56998 0.80782 0.89171 0.0
O347 O 0.56303 0.78574 0.88209 0.0
O348 O 0.57269 0.8204 0.788 0.0
O349 O 0.56283 0.80002 0.81218 0.0
Co350 Co 0.18562 0.75802 0.84194 0.0
O351 O 0.18246 0.73987 0.84541 0.0
O352 O 0.16758 0.74612 0.86074 0.0
C353 C 0.19474 0.76241 0.78458 0.0
O354 O 0.18499 0.77555 0.84036 0.0
Co355 Co 0.21479 0.7825 0.83495 0.0
O356 O 0.20537 0.79272 0.82354 0.0
C357 C 0.20506 0.76907 0.90766 0.0
C358 C 0.17044 0.73647 0.85743 0.0
C359 C 0.19284 0.78795 0.83059 0.0
O360 O 0.19307 0.76196 0.89421 0.0
O361 O 0.21532 0.77702 0.88778 0.0
O362 O 0.18168 0.75571 0.78879 0.0
O363 O 0.20176 0.76502 0.81479 0.0
Co364 Co 0.24259 0.42772 0.8416 0.0
O365 O 0.26052 0.4428 0.84833 0.0
O366 O 0.25405 0.42163 0.86382 0.0
C367 C 0.2397 0.43266 0.78297 0.0
O368 O 0.22518 0.40949 0.8376 0.0
Co369 Co 0.21821 0.43218 0.82781 0.0
O370 O 0.20844 0.41258 0.8159 0.0
C371 C 0.22969 0.4357 0.90337 0.0
C372 C 0.26366 0.43421 0.8621 0.0
C373 C 0.21305 0.40488 0.82527 0.0
O374 O 0.23728 0.43104 0.89226 0.0
O375 O 0.22214 0.43787 0.88139 0.0
O376 O 0.24633 0.42635 0.78932 0.0
O377 O 0.23624 0.43687 0.81207 0.0
Co378 Co 0.48041 0.90487 0.97416 0.0
O379 O 0.48398 0.89023 0.96848 0.0
O380 O 0.49799 0.91141 0.95146 0.0
C381 C 0.47295 0.90021 0.0332 0.0
O382 O 0.48042 0.92267 0.97696 0.0
Co383 Co 0.45118 0.89913 0.98779 0.0
O384 O 0.46015 0.91896 -0.00338 0.0
C385 C 0.45911 0.89492 0.91323 0.0
C386 C 0.49552 0.89901 0.95412 0.0
C387 C 0.47245 0.92695 0.98768 0.0
O388 O 0.47154 0.90083 0.9237 0.0
O389 O 0.44927 0.89205 0.93552 0.0
O390 O 0.48585 0.90699 0.02625 0.0
O391 O 0.46513 0.89541 0.00452 0.0
Co392 Co 0.09466 0.57678 0.97506 0.0
O393 O 0.10961 0.59487 0.96975 0.0
O394 O 0.08854 0.58821 0.95278 0.0
C395 C 0.09918 0.57356 0.03391 0.0
O396 O 0.07653 0.55924 0.97785 0.0
Co397 Co 0.09944 0.55258 0.98806 0.0
O398 O 0.07974 0.54249 -0.00122 0.0
C399 C 0.10328 0.56445 0.91303 0.0
C400 C 0.10102 0.59796 0.95576 0.0
C401 C 0.07198 0.54704 0.98955 0.0
O402 O 0.0984 0.57185 0.92432 0.0
O403 O 0.10552 0.55691 0.93484 0.0
O404 O 0.09281 0.58012 0.02738 0.0
O405 O 0.10373 0.5704 0.00493 0.0
Co406 Co 0.4242 0.51898 0.9741 0.0
O407 O 0.40624 0.5162 0.96917 0.0
O408 O 0.41228 0.50115 0.95398 0.0
C409 C 0.42805 0.52761 0.032 0.0
O410 O 0.44155 0.51803 0.97677 0.0
Co411 Co 0.44888 0.54792 0.98377 0.0
O412 O 0.45875 0.53815 -0.00479 0.0
C413 C 0.43608 0.539 0.91001 0.0
C414 C 0.40277 0.50424 0.95655 0.0
C415 C 0.45389 0.52567 0.98739 0.0
O416 O 0.42879 0.52688 0.92247 0.0
O417 O 0.4439 0.54904 0.93077 0.0
O418 O 0.42123 0.51459 0.02692 0.0
O419 O 0.43112 0.53489 0.0022 0.0
Co420 Co 0.09342 0.51717 0.47581 0.0
O421 O 0.10872 0.51462 0.46985 0.0
O422 O 0.08768 0.49958 0.45418 0.0
C423 C 0.09821 0.5252 0.5344 0.0
O424 O 0.07502 0.51596 0.47931 0.0
Co425 Co 0.09731 0.54583 0.48879 0.0
O426 O 0.07767 0.53572 0.50017 0.0
C427 C 0.10112 0.53783 0.41352 0.0
C428 C 0.1003 0.50274 0.4566 0.0
C429 C 0.07017 0.52334 0.49111 0.0
O430 O 0.09663 0.52562 0.42484 0.0
O431 O 0.10315 0.54755 0.43537 0.0
O432 O 0.09207 0.51225 0.52828 0.0
O433 O 0.10232 0.53278 0.50514 0.0
Co434 Co 0.4822 0.57644 0.47433 0.0
O435 O 0.48564 0.59469 0.47117 0.0
O436 O 0.5001 0.58807 0.45423 0.0
C437 C 0.47364 0.57234 0.53233 0.0
O438 O 0.4825 0.55874 0.47514 0.0
Co439 Co 0.45296 0.55224 0.48356 0.0
O440 O 0.46223 0.54175 0.49332 0.0
C441 C 0.46207 0.56543 0.41026 0.0
C442 C 0.49748 0.59786 0.45811 0.0
C443 C 0.47463 0.54636 0.48501 0.0
O444 O 0.47422 0.5725 0.42274 0.0
O445 O 0.452 0.5576 0.43089 0.0
O446 O 0.48666 0.5788 0.52721 0.0
O447 O 0.46637 0.56974 0.50265 0.0
Co448 Co 0.42407 0.90562 0.47492 0.0
O449 O 0.40589 0.89102 0.46846 0.0
O450 O 0.41311 0.91229 0.45239 0.0
C451 C 0.42658 0.90051 0.53377 0.0
O452 O 0.44191 0.9234 0.47859 0.0
Co453 Co 0.44746 0.89972 0.48856 0.0
O454 O 0.45831 0.91947 0.49844 0.0
C455 C 0.43565 0.89603 0.41369 0.0
C456 C 0.40317 0.89986 0.45439 0.0
C457 C 0.4541 0.92756 0.48966 0.0
O458 O 0.4291 0.9019 0.42434 0.0
O459 O 0.44249 0.89299 0.43592 0.0
O460 O 0.42055 0.9074 0.52713 0.0
O461 O 0.42974 0.89594 0.50486 0.0
Co462 Co 0.18446 0.42693 0.34099 0.0
O463 O 0.18142 0.44192 0.34687 0.0
O464 O 0.16679 0.42075 0.36254 0.0
C465 C 0.19258 0.43193 0.28262 0.0
O466 O 0.1838 0.40878 0.33757 0.0
Co467 Co 0.21345 0.4316 0.32853 0.0
O468 O 0.20381 0.41194 0.3172 0.0
C469 C 0.20509 0.43518 0.4035 0.0
C470 C 0.16964 0.43328 0.36023 0.0
C471 C 0.19145 0.4042 0.32604 0.0
O472 O 0.19285 0.43034 0.39199 0.0
O473 O 0.21494 0.43749 0.38185 0.0
O474 O 0.17961 0.42548 0.28848 0.0
O475 O 0.2001 0.43616 0.31198 0.0
Co476 Co 0.57253 0.75746 0.34248 0.0
O477 O 0.55779 0.73916 0.34556 0.0
O478 O 0.57872 0.74607 0.36461 0.0
C479 C 0.56873 0.76129 0.28349 0.0
O480 O 0.59043 0.77525 0.3422 0.0
Co481 Co 0.56724 0.78138 0.33037 0.0
O482 O 0.5871 0.79203 0.32232 0.0
C483 C 0.56253 0.76857 0.40432 0.0
C484 C 0.56639 0.73617 0.3601 0.0
C485 C 0.59491 0.78758 0.33185 0.0
O486 O 0.56787 0.76158 0.39312 0.0
O487 O 0.56035 0.7762 0.38269 0.0
O488 O 0.57526 0.7549 0.29018 0.0
O489 O 0.56362 0.76391 0.31222 0.0
Co490 Co 0.24296 0.8158 0.3426 0.0
O491 O 0.26107 0.81885 0.34607 0.0
O492 O 0.25491 0.83376 0.36186 0.0
C493 C 0.23856 0.80688 0.28495 0.0
O494 O 0.22546 0.81649 0.3414 0.0
Co495 Co 0.21841 0.78668 0.33481 0.0
O496 O 0.20826 0.79621 0.32398 0.0
C497 C 0.23185 0.79609 0.40768 0.0
C498 C 0.2645 0.83083 0.35855 0.0
C499 C 0.21305 0.8087 0.33159 0.0
O500 O 0.23899 0.80814 0.39461 0.0
O501 O 0.22388 0.78593 0.38754 0.0
O502 O 0.24531 0.81992 0.28954 0.0
O503 O 0.23592 0.79976 0.31496 0.0
H504 H 0.22402 0.12067 0.77279 0.0
H505 H 0.22317 0.12344 0.83983 0.0
H506 H 0.23075 0.09051 0.85881 0.0
H507 H 0.2319 0.08777 0.7915 0.0
H508 H 0.20727 0.10599 0.89644 0.0
H509 H 0.26176 0.12218 0.91444 0.0
H510 H 0.25429 0.12081 0.8692 0.0
H511 H 0.25141 0.10585 0.89353 0.0
C512 C 0.22539 0.1139 0.79108 0.0
C513 C 0.2282 0.1041 0.77668 0.0
C514 C 0.22488 0.1155 0.82944 0.0
C515 C 0.22712 0.10734 0.8542 0.0
C516 C 0.22927 0.0971 0.84009 0.0
H517 H 0.22115 0.11402 0.09663 0.0
H518 H 0.21855 0.10447 0.03394 0.0
C519 C 0.22987 0.09552 0.80162 0.0
C520 C 0.22784 0.11011 0.89463 0.0
H521 H 0.2499 0.12237 0.96777 0.0
C522 C 0.21652 0.10941 0.91222 0.0
C523 C 0.24 0.11469 0.91492 0.0
C524 C 0.25261 0.11605 0.89713 0.0
C525 C 0.21713 0.11346 0.9494 0.0
C526 C 0.22934 0.11824 0.96937 0.0
C527 C 0.24055 0.11863 0.95218 0.0
C528 C 0.23098 0.12383 0.00727 0.0
C529 C 0.20494 0.11316 0.96672 0.0
C530 C 0.23895 0.13783 0.0128 0.0
C531 C 0.24042 0.14331 0.0484 0.0
C532 C 0.23402 0.13484 0.07904 0.0
C533 C 0.22617 0.12079 0.07348 0.0
C534 C 0.22465 0.11532 0.03778 0.0
H535 H 0.19669 0.11048 0.94622 0.0
H536 H 0.201 0.10561 0.98957 0.0
H537 H 0.20785 0.12319 0.97903 0.0
H538 H 0.24392 0.14452 0.98945 0.0
H539 H 0.24655 0.15417 0.05188 0.0
H540 H 0.91213 0.14369 0.79228 0.0
H541 H 0.91016 0.13901 0.85914 0.0
H542 H 0.87994 0.09747 0.83781 0.0
H543 H 0.88195 0.10192 0.77113 0.0
H544 H 0.88694 0.131 0.89822 0.0
H545 H 0.90341 0.09322 0.91536 0.0
H546 H 0.90721 0.10358 0.87411 0.0
H547 H 0.89095 0.08853 0.87936 0.0
C548 C 0.90523 0.13349 0.80172 0.0
C549 C 0.89713 0.1232 0.77627 0.0
C550 C 0.90415 0.13084 0.83995 0.0
C551 C 0.89503 0.11786 0.85337 0.0
C552 C 0.88728 0.10748 0.82802 0.0
H553 H 0.84682 0.08986 0.04803 0.0
H554 H 0.85696 0.09707 0.9862 0.0
C555 C 0.88837 0.11009 0.78984 0.0
C556 C 0.89239 0.11549 0.89379 0.0
H557 H 0.88921 0.09398 0.96418 0.0
C558 C 0.88766 0.12306 0.91281 0.0
C559 C 0.89345 0.10521 0.91285 0.0
C560 C 0.89916 0.09727 0.89445 0.0
C561 C 0.88328 0.12014 0.94983 0.0
C562 C 0.8835 0.10929 0.96803 0.0
C563 C 0.8889 0.10218 0.9498 0.0
C564 C 0.8775 0.10478 0.00532 0.0
C565 C 0.87816 0.12847 0.96906 0.0
C566 C 0.88574 0.10659 0.03621 0.0
C567 C 0.87999 0.10254 0.07157 0.0
C568 C 0.86591 0.09649 0.07635 0.0
C569 C 0.85769 0.0945 0.04517 0.0
C570 C 0.86345 0.09864 0.00992 0.0
H571 H 0.88145 0.13821 0.95445 0.0
H572 H 0.86694 0.12271 0.96952 0.0
H573 H 0.88178 0.13063 -0.00166 0.0
H574 H 0.89661 0.11127 0.03301 0.0
H575 H 0.88656 0.10416 0.09512 0.0
H576 H 0.91608 0.76191 0.04699 0.0
H577 H 0.90956 0.76517 0.98449 0.0
H578 H 0.88466 0.77983 0.03231 0.0
H579 H 0.89122 0.77676 0.09499 0.0
H580 H 0.8737 0.7554 0.97083 0.0
H581 H 0.91891 0.80519 0.93751 0.0
H582 H 0.92142 0.7928 0.96187 0.0
H583 H 0.91278 0.80029 0.98462 0.0
C584 C 0.90926 0.76588 0.04421 0.0
C585 C 0.90415 0.76907 0.07581 0.0
C586 C 0.90559 0.76776 0.00859 0.0
C587 C 0.89671 0.77278 0.00409 0.0
C588 C 0.89157 0.77599 0.03546 0.0
H589 H 0.8582 0.77129 0.79033 0.0
H590 H 0.86321 0.77388 0.85715 0.0
C591 C 0.89533 0.77422 0.07113 0.0
C592 C 0.89247 0.77419 0.96642 0.0
H593 H 0.90377 0.79357 0.88812 0.0
C594 C 0.88013 0.7638 0.95274 0.0
C595 C 0.90098 0.78518 0.9433 0.0
C596 C 0.91426 0.79659 0.95739 0.0
C597 C 0.87633 0.76378 0.91557 0.0
C598 C 0.885 0.77464 0.89197 0.0
C599 C 0.89713 0.78529 0.90628 0.0
C600 C 0.88237 0.77446 0.85153 0.0
C601 C 0.86344 0.75178 0.90147 0.0
C602 C 0.89178 0.77458 0.82617 0.0
C603 C 0.88907 0.77333 0.78808 0.0
C604 C 0.87684 0.77185 0.77452 0.0
C605 C 0.86764 0.77225 0.79989 0.0
C606 C 0.87045 0.77365 0.83809 0.0
H607 H 0.85957 0.74303 0.92086 0.0
H608 H 0.85553 0.75466 0.8986 0.0
H609 H 0.86504 0.74849 0.87373 0.0
H610 H 0.90107 0.77523 0.83595 0.0
H611 H 0.8964 0.77308 0.76941 0.0
H612 H 0.11456 0.22056 0.39017 0.0
H613 H 0.10576 0.21894 0.45336 0.0
H614 H 0.1465 0.24257 0.49512 0.0
H615 H 0.15539 0.24431 0.43209 0.0
H616 H 0.1114 0.20826 0.5187 0.0
H617 H 0.12691 0.26254 0.53334 0.0
H618 H 0.12603 0.25477 0.48879 0.0
H619 H 0.14029 0.25958 0.51895 0.0
C620 C 0.12164 0.22543 0.41282 0.0
C621 C 0.13566 0.23262 0.40623 0.0
C622 C 0.11659 0.22448 0.44884 0.0
C623 C 0.12548 0.23079 0.47869 0.0
C624 C 0.13948 0.23783 0.47227 0.0
H625 H 0.11776 0.22077 0.71461 0.0
H626 H 0.1212 0.21948 0.64804 0.0
C627 C 0.14454 0.23876 0.43631 0.0
C628 C 0.12017 0.22991 0.51674 0.0
H629 H 0.11993 0.24928 0.58876 0.0
C630 C 0.11314 0.2172 0.53397 0.0
C631 C 0.12229 0.24157 0.53625 0.0
C632 C 0.12918 0.25538 0.51834 0.0
C633 C 0.10863 0.2159 0.57091 0.0
C634 C 0.11137 0.22766 0.59105 0.0
C635 C 0.11793 0.2403 0.57329 0.0
C636 C 0.10817 0.22722 0.63112 0.0
C637 C 0.10102 0.202 0.58811 0.0
C638 C 0.09973 0.23207 0.64366 0.0
C639 C 0.09778 0.23289 0.68179 0.0
C640 C 0.10435 0.22901 0.70807 0.0
C641 C 0.11254 0.22385 0.69525 0.0
C642 C 0.11445 0.22301 0.65715 0.0
H643 H 0.09639 0.19398 0.56649 0.0
H644 H 0.10816 0.20015 0.60459 0.0
H645 H 0.09294 0.20113 0.60708 0.0
H646 H 0.09486 0.23544 0.62393 0.0
H647 H 0.09141 0.23691 0.69061 0.0
H648 H 0.75978 0.9117 0.43729 0.0
H649 H 0.76293 0.90446 0.49874 0.0
H650 H 0.78208 0.88403 0.44821 0.0
H651 H 0.77909 0.89135 0.38652 0.0
H652 H 0.75275 0.87733 0.52236 0.0
H653 H 0.80894 0.90787 0.53077 0.0
H654 H 0.79927 0.91157 0.49784 0.0
H655 H 0.80194 0.89756 0.48986 0.0
C656 C 0.76472 0.90573 0.43924 0.0
C657 C 0.76921 0.90211 0.40716 0.0
C658 C 0.7665 0.9016 0.47433 0.0
C659 C 0.77285 0.89384 0.47794 0.0
C660 C 0.77735 0.8902 0.44598 0.0
H661 H 0.76675 0.85395 0.69164 0.0
H662 H 0.76847 0.85792 0.62438 0.0
C663 C 0.77557 0.89433 0.41081 0.0
C664 C 0.77432 0.88929 0.51526 0.0
H665 H 0.79753 0.89383 0.58205 0.0
C666 C 0.76253 0.88081 0.53534 0.0
C667 C 0.78712 0.89392 0.53195 0.0
C668 C 0.80007 0.90331 0.51173 0.0
C669 C 0.76316 0.87712 0.57218 0.0
C670 C 0.77595 0.88188 0.58911 0.0
C671 C 0.78777 0.8901 0.56874 0.0
C672 C 0.7771 0.87959 0.62912 0.0
C673 C 0.75012 0.86867 0.59326 0.0
C674 C 0.78203 0.89055 0.65384 0.0
C675 C 0.7811 0.88835 0.69222 0.0
C676 C 0.77523 0.87513 0.70657 0.0
C677 C 0.77121 0.86425 0.6816 0.0
C678 C 0.77214 0.86648 0.64315 0.0
H679 H 0.74123 0.86785 0.57822 0.0
H680 H 0.74848 0.85831 0.59713 0.0
H681 H 0.75064 0.87305 0.62126 0.0
H682 H 0.78595 0.90075 0.64346 0.0
H683 H 0.78445 0.89698 0.71056 0.0
H684 H 0.10365 0.88559 0.70863 0.0
H685 H 0.09941 0.88266 0.64177 0.0
H686 H 0.14188 0.90923 0.62018 0.0
H687 H 0.14632 0.91214 0.68718 0.0
H688 H 0.1051 0.90096 0.58092 0.0
H689 H 0.13303 0.87263 0.5726 0.0
H690 H 0.12794 0.87647 0.61639 0.0
H691 H 0.14222 0.88943 0.59162 0.0
C692 C 0.1121 0.89096 0.68978 0.0
C693 C 0.12537 0.89892 0.70337 0.0
C694 C 0.10963 0.88931 0.65154 0.0
C695 C 0.12036 0.89555 0.62618 0.0
C696 C 0.1335 0.90416 0.63944 0.0
H697 H 0.10768 0.88715 0.38401 0.0
H698 H 0.11488 0.89696 0.44629 0.0
C699 C 0.136 0.90583 0.67774 0.0
C700 C 0.11783 0.89211 0.58621 0.0
H701 H 0.12304 0.87455 0.51749 0.0
C702 C 0.10912 0.89531 0.56683 0.0
C703 C 0.12299 0.88461 0.56823 0.0
C704 C 0.13198 0.88046 0.58822 0.0
C705 C 0.10524 0.89099 0.52997 0.0
C706 C 0.11031 0.88339 0.51218 0.0
C707 C 0.11923 0.88043 0.53131 0.0
C708 C 0.10585 0.87763 0.47453 0.0
C709 C 0.09535 0.89412 0.51083 0.0
C710 C 0.09858 0.86354 0.46987 0.0
C711 C 0.09451 0.85792 0.43444 0.0
C712 C 0.09771 0.86631 0.40305 0.0
C713 C 0.10503 0.88044 0.40775 0.0
C714 C 0.10909 0.88606 0.44326 0.0
H715 H 0.0905 0.89788 0.53067 0.0
H716 H 0.10078 0.90204 0.48942 0.0
H717 H 0.08733 0.88499 0.49653 0.0
H718 H 0.09604 0.85689 0.49373 0.0
H719 H 0.08891 0.84701 0.43166 0.0
H720 H 0.77757 0.8825 0.20961 0.0
H721 H 0.77819 0.88001 0.14238 0.0
H722 H 0.76319 0.90761 0.12598 0.0
H723 H 0.76236 0.91009 0.19347 0.0
H724 H 0.74862 0.8835 0.08762 0.0
H725 H 0.80349 0.90541 0.06224 0.0
H726 H 0.7974 0.89307 0.09889 0.0
H727 H 0.79689 0.90848 0.1046 0.0
C728 C 0.77456 0.88821 0.19183 0.0
C729 C 0.76985 0.89646 0.20705 0.0
C730 C 0.77503 0.88684 0.15334 0.0
C731 C 0.77091 0.89376 0.12925 0.0
C732 C 0.76649 0.90225 0.14418 0.0
H733 H 0.7771 0.88651 0.88802 0.0
H734 H 0.77857 0.89611 0.95002 0.0
C735 C 0.76603 0.90365 0.18276 0.0
C736 C 0.77013 0.89115 0.08874 0.0
H737 H 0.78857 0.89044 0.01489 0.0
C738 C 0.75739 0.88521 0.07153 0.0
C739 C 0.7816 0.89355 0.06774 0.0
C740 C 0.79564 0.90061 0.08422 0.0
C741 C 0.7557 0.88095 0.0343 0.0
C742 C 0.76702 0.88251 0.0141 0.0
C743 C 0.77988 0.8891 0.03068 0.0
C744 C 0.76565 0.87679 0.97637 0.0
C745 C 0.74181 0.87467 0.01704 0.0
C746 C 0.75797 0.86276 0.97086 0.0
C747 C 0.75713 0.85724 0.93558 0.0
C748 C 0.76402 0.86569 0.9053 0.0
C749 C 0.77167 0.87976 0.91086 0.0
C750 C 0.77253 0.88526 0.94619 0.0
H751 H 0.73522 0.8777 0.03204 0.0
H752 H 0.7424 0.87758 0.98728 0.0
H753 H 0.73694 0.86349 0.01854 0.0
H754 H 0.7528 0.85604 -0.00599 0.0
H755 H 0.7512 0.84637 0.93212 0.0
H756 H 0.10056 0.85547 0.18855 0.0
H757 H 0.10524 0.86102 0.12248 0.0
H758 H 0.10925 0.90014 0.14277 0.0
H759 H 0.10533 0.89492 0.20928 0.0
H760 H 0.09474 0.86755 0.06679 0.0
H761 H 0.14532 0.91135 0.09856 0.0
H762 H 0.1348 0.89954 0.13383 0.0
H763 H 0.13185 0.91293 0.11901 0.0
C764 C 0.1023 0.8652 0.17883 0.0
C765 C 0.10281 0.87486 0.20405 0.0
C766 C 0.10497 0.86836 0.14108 0.0
C767 C 0.108 0.88115 0.12786 0.0
C768 C 0.10744 0.8904 0.15257 0.0
H769 H 0.11677 0.90052 0.8898 0.0
H770 H 0.10797 0.89423 0.95323 0.0
C771 C 0.1051 0.88738 0.19048 0.0
C772 C 0.11243 0.885 0.08874 0.0
H773 H 0.13833 0.90851 0.03566 0.0
C774 C 0.10428 0.8765 0.05993 0.0
C775 C 0.12501 0.89654 0.07988 0.0
C776 C 0.13481 0.90553 0.10945 0.0
C777 C 0.10838 0.87918 0.02254 0.0
C778 C 0.12075 0.89097 0.01365 0.0
C779 C 0.12882 0.89951 0.04245 0.0
C780 C 0.12583 0.89451 0.97491 0.0
C781 C 0.09964 0.86908 -0.00678 0.0
C782 C 0.13895 0.89721 0.96623 0.0
C783 C 0.14413 0.9012 0.93035 0.0
C784 C 0.1362 0.90238 0.90238 0.0
C785 C 0.12303 0.89956 0.91086 0.0
C786 C 0.11795 0.89584 0.947 0.0
H787 H 0.09302 0.85891 0.00543 0.0
H788 H 0.09301 0.87248 0.98038 0.0
H789 H 0.10588 0.86815 0.97096 0.0
H790 H 0.14523 0.89628 0.98731 0.0
H791 H 0.1543 0.90327 0.92445 0.0
H792 H 0.08659 0.24224 0.93327 0.0
H793 H 0.09343 0.24011 -0.00365 0.0
H794 H 0.11365 0.21965 0.95282 0.0
H795 H 0.10674 0.22163 0.88963 0.0
H796 H 0.09729 0.20712 0.01642 0.0
H797 H 0.13229 0.26209 0.03766 0.0
H798 H 0.11556 0.25787 0.02325 0.0
H799 H 0.1261 0.2548 -0.00777 0.0
C800 C 0.09249 0.23729 0.93713 0.0
C801 C 0.09619 0.23216 0.90654 0.0
C802 C 0.09644 0.23614 0.97312 0.0
C803 C 0.1042 0.2299 0.97907 0.0
C804 C 0.10771 0.22456 0.94869 0.0
H805 H 0.14496 0.23648 0.18989 0.0
H806 H 0.13996 0.23525 0.1233 0.0
C807 C 0.10377 0.22571 0.91266 0.0
C808 C 0.10859 0.22891 0.0171 0.0
H809 H 0.12684 0.24802 0.09124 0.0
C810 C 0.10384 0.21604 0.03274 0.0
C811 C 0.11729 0.24057 0.038 0.0
C812 C 0.12323 0.25462 0.02188 0.0
C813 C 0.10719 0.21455 0.06938 0.0
C814 C 0.11538 0.22624 0.09084 0.0
C815 C 0.1205 0.23908 0.07473 0.0
C816 C 0.11827 0.22547 0.13063 0.0
C817 C 0.10193 0.20051 0.08486 0.0
C818 C 0.10771 0.22023 0.15668 0.0
C819 C 0.11051 0.22095 0.19474 0.0
C820 C 0.12395 0.22698 0.20747 0.0
C821 C 0.13449 0.23177 0.18113 0.0
C822 C 0.13167 0.23109 0.14305 0.0
H823 H 0.09907 0.19289 0.0623 0.0
H824 H 0.10959 0.20009 0.10301 0.0
H825 H 0.09278 0.19769 0.10188 0.0
H826 H 0.09731 0.21606 0.14767 0.0
H827 H 0.10214 0.21714 0.21417 0.0
H828 H 0.9077 0.76059 0.29084 0.0
H829 H 0.90385 0.76128 0.35767 0.0
H830 H 0.8801 0.7803 0.3355 0.0
H831 H 0.88392 0.77978 0.26881 0.0
H832 H 0.89853 0.79137 0.39771 0.0
H833 H 0.86572 0.73532 0.40227 0.0
H834 H 0.88242 0.74168 0.38342 0.0
H835 H 0.87044 0.7447 0.35913 0.0
C836 C 0.90178 0.76507 0.30014 0.0
C837 C 0.89596 0.76997 0.27438 0.0
C838 C 0.89957 0.76541 0.33832 0.0
C839 C 0.89153 0.77065 0.35129 0.0
C840 C 0.88628 0.77615 0.3259 0.0
H841 H 0.84464 0.75596 0.55015 0.0
H842 H 0.8534 0.75796 0.48681 0.0
C843 C 0.88844 0.7758 0.28778 0.0
C844 C 0.88787 0.76973 0.39104 0.0
H845 H 0.86887 0.74713 0.45854 0.0
C846 C 0.89213 0.78172 0.4112 0.0
C847 C 0.87938 0.7571 0.40816 0.0
C848 C 0.87411 0.74394 0.38719 0.0
C849 C 0.88801 0.78141 0.44819 0.0
C850 C 0.87955 0.76877 0.46534 0.0
C851 C 0.8754 0.75679 0.44524 0.0
C852 C 0.87441 0.76772 0.50367 0.0
C853 C 0.89239 0.7946 0.46821 0.0
C854 C 0.88334 0.77243 0.534 0.0
C855 C 0.87837 0.77133 0.57014 0.0
C856 C 0.86439 0.76542 0.57647 0.0
C857 C 0.85546 0.76057 0.54607 0.0
C858 C 0.86044 0.7617 0.50994 0.0
H859 H 0.89629 0.80328 0.44861 0.0
H860 H 0.88386 0.79415 0.48428 0.0
H861 H 0.9006 0.79652 0.4881 0.0
H862 H 0.89413 0.77686 0.52974 0.0
H863 H 0.88549 0.77509 0.59308 0.0
H864 H 0.21454 0.10091 0.59333 0.0
H865 H 0.2102 0.10586 0.5301 0.0
H866 H 0.24271 0.10047 0.4887 0.0
H867 H 0.24662 0.09488 0.55144 0.0
H868 H 0.22464 0.12501 0.48285 0.0
H869 H 0.21339 0.07654 0.41883 0.0
H870 H 0.21484 0.07911 0.46856 0.0
H871 H 0.22974 0.08439 0.44034 0.0
C872 C 0.22069 0.10071 0.57063 0.0
C873 C 0.23081 0.09737 0.57709 0.0
C874 C 0.21821 0.10354 0.53457 0.0
C875 C 0.2259 0.10321 0.50448 0.0
C876 C 0.23632 0.10032 0.51122 0.0
H877 H 0.2433 0.144 0.2957 0.0
H878 H 0.24031 0.13795 0.36154 0.0
C879 C 0.23862 0.09723 0.54711 0.0
C880 C 0.22334 0.10624 0.46618 0.0
H881 H 0.21983 0.09518 0.37651 0.0
C882 C 0.22338 0.11839 0.45962 0.0
C883 C 0.22126 0.09743 0.43598 0.0
C884 C 0.21964 0.08358 0.44138 0.0
C885 C 0.22214 0.12231 0.42344 0.0
C886 C 0.22138 0.1141 0.3929 0.0
C887 C 0.22063 0.10162 0.39974 0.0
C888 C 0.22217 0.11849 0.35358 0.0
C889 C 0.2216 0.13516 0.41856 0.0
C890 C 0.21312 0.10952 0.32688 0.0
C891 C 0.2151 0.11278 0.28905 0.0
C892 C 0.22603 0.12519 0.27729 0.0
C893 C 0.23469 0.13444 0.30407 0.0
C894 C 0.23291 0.13103 0.34181 0.0
H895 H 0.21691 0.13709 0.4432 0.0
H896 H 0.23206 0.14384 0.416 0.0
H897 H 0.21578 0.13477 0.39335 0.0
H898 H 0.20477 0.09978 0.33521 0.0
H899 H 0.20825 0.1055 0.26894 0.0
H900 H 0.90191 0.15321 0.55632 0.0
H901 H 0.8952 0.14447 0.49304 0.0
H902 H 0.89256 0.10686 0.52624 0.0
H903 H 0.89855 0.11533 0.59006 0.0
H904 H 0.90752 0.13764 0.44491 0.0
H905 H 0.85758 0.09245 0.47267 0.0
H906 H 0.86673 0.10511 0.50772 0.0
H907 H 0.87095 0.09217 0.49809 0.0
C908 C 0.89976 0.14303 0.55013 0.0
C909 C 0.90068 0.13491 0.57796 0.0
C910 C 0.89594 0.13805 0.51402 0.0
C911 C 0.89316 0.12492 0.50496 0.0
C912 C 0.89424 0.11685 0.53274 0.0
H913 H 0.8944 0.10519 0.27017 0.0
H914 H 0.89947 0.10905 0.33677 0.0
C915 C 0.89777 0.12174 0.5691 0.0
C916 C 0.8898 0.12003 0.46601 0.0
H917 H 0.86653 0.09436 0.41165 0.0
C918 C 0.89852 0.1282 0.43764 0.0
C919 C 0.87799 0.10776 0.45651 0.0
C920 C 0.86771 0.09894 0.48532 0.0
C921 C 0.89572 0.12458 0.40005 0.0
C922 C 0.88416 0.11208 0.39059 0.0
C923 C 0.87548 0.10384 0.41896 0.0
C924 C 0.88047 0.10784 0.35128 0.0
C925 C 0.90491 0.13447 0.37095 0.0
C926 C 0.86774 0.10489 0.33778 0.0
C927 C 0.86466 0.10224 0.29998 0.0
C928 C 0.87436 0.10272 0.27499 0.0
C929 C 0.88684 0.10499 0.2888 0.0
C930 C 0.88978 0.1073 0.32676 0.0
H931 H 0.91073 0.14492 0.38224 0.0
H932 H 0.9123 0.13148 0.36158 0.0
H933 H 0.89907 0.13462 0.34638 0.0
H934 H 0.86035 0.10514 0.35622 0.0
H935 H 0.85496 0.10051 0.29007 0.0
H936 H 0.90027 0.42125 0.12302 0.0
H937 H 0.89834 0.42313 0.19033 0.0
H938 H 0.88333 0.45064 0.17238 0.0
H939 H 0.88503 0.44873 0.10528 0.0
H940 H 0.9127 0.4469 0.22837 0.0
H941 H 0.85796 0.42596 0.25288 0.0
H942 H 0.86449 0.42275 0.21061 0.0
H943 H 0.86419 0.43828 0.21619 0.0
C944 C 0.89629 0.42749 0.13332 0.0
C945 C 0.89289 0.43492 0.10866 0.0
C946 C 0.8952 0.42854 0.17181 0.0
C947 C 0.89056 0.43691 0.18631 0.0
C948 C 0.88666 0.4439 0.16179 0.0
H949 H 0.91133 0.48571 0.3804 0.0
H950 H 0.90878 0.47542 0.31896 0.0
C951 C 0.88775 0.44287 0.12336 0.0
C952 C 0.89127 0.43963 0.22679 0.0
H953 H 0.873 0.44124 0.29989 0.0
C954 C 0.90397 0.44544 0.24419 0.0
C955 C 0.87986 0.4376 0.2475 0.0
C956 C 0.86583 0.43067 0.23092 0.0
C957 C 0.9057 0.44995 0.28117 0.0
C958 C 0.89447 0.44879 0.30098 0.0
C959 C 0.88162 0.44229 0.28435 0.0
C960 C 0.89602 0.45488 0.33827 0.0
C961 C 0.91957 0.45612 0.29856 0.0
C962 C 0.88945 0.44673 0.36922 0.0
C963 C 0.89087 0.45258 0.40435 0.0
C964 C 0.89877 0.46668 0.4089 0.0
C965 C 0.90522 0.47482 0.37775 0.0
C966 C 0.90383 0.46896 0.3427 0.0
H967 H 0.92607 0.4529 0.2839 0.0
H968 H 0.92458 0.46731 0.29673 0.0
H969 H 0.9189 0.45331 0.32842 0.0
H970 H 0.88331 0.43585 0.36622 0.0
H971 H 0.88576 0.44606 0.42788 0.0
H972 H 0.54502 0.43642 0.10693 0.0
H973 H 0.54276 0.43179 0.17357 0.0
H974 H 0.57913 0.46987 0.194 0.0
H975 H 0.58126 0.47483 0.1272 0.0
H976 H 0.55847 0.42938 0.226 0.0
H977 H 0.55195 0.47355 0.2574 0.0
H978 H 0.55194 0.46794 0.21044 0.0
H979 H 0.56762 0.47763 0.23516 0.0
C980 C 0.55262 0.44379 0.12548 0.0
C981 C 0.56322 0.45609 0.11177 0.0
C982 C 0.55132 0.44111 0.1636 0.0
C983 C 0.56062 0.45061 0.18878 0.0
C984 C 0.57164 0.46257 0.1751 0.0
H985 H 0.55351 0.44374 0.43272 0.0
H986 H 0.56347 0.44995 0.37025 0.0
C987 C 0.57287 0.46535 0.13692 0.0
C988 C 0.55825 0.44812 0.22928 0.0
H989 H 0.55042 0.45971 0.3078 0.0
C990 C 0.55684 0.43608 0.24397 0.0
C991 C 0.55609 0.45688 0.25264 0.0
C992 C 0.55685 0.46967 0.23816 0.0
C993 C 0.55296 0.43238 0.28111 0.0
C994 C 0.55048 0.44095 0.30397 0.0
C995 C 0.5524 0.45323 0.28992 0.0
C996 C 0.54473 0.43681 0.34159 0.0
C997 C 0.55118 0.41918 0.29559 0.0
C998 C 0.53092 0.42746 0.34576 0.0
C999 C 0.52517 0.42402 0.38122 0.0
C1000 C 0.5332 0.42983 0.413 0.0
C1001 C 0.54709 0.43909 0.4087 0.0
C1002 C 0.5528 0.44264 0.37316 0.0
H1003 H 0.55552 0.41472 0.27635 0.0
H1004 H 0.55605 0.4207 0.32333 0.0
H1005 H 0.54023 0.41185 0.29906 0.0
H1006 H 0.52456 0.42297 0.32152 0.0
H1007 H 0.51446 0.41683 0.38372 0.0
H1008 H 0.58063 0.09106 0.38383 0.0
H1009 H 0.57407 0.09331 0.32049 0.0
H1010 H 0.55307 0.11306 0.36335 0.0
H1011 H 0.55969 0.11097 0.42679 0.0
H1012 H 0.54739 0.08274 0.29353 0.0
H1013 H 0.57752 0.13877 0.28029 0.0
H1014 H 0.58084 0.12961 0.31581 0.0
H1015 H 0.56682 0.13247 0.32069 0.0
C1016 C 0.57468 0.09595 0.37975 0.0
C1017 C 0.57069 0.10087 0.4102 0.0
C1018 C 0.57094 0.09721 0.3436 0.0
C1019 C 0.56323 0.10348 0.3373 0.0
C1020 C 0.55922 0.1084 0.36763 0.0
H1021 H 0.52145 0.09585 0.12676 0.0
H1022 H 0.52666 0.09714 0.19327 0.0
C1023 C 0.56295 0.10713 0.40382 0.0
C1024 C 0.55902 0.10441 0.29899 0.0
H1025 H 0.56294 0.12674 0.2302 0.0
C1026 C 0.55073 0.09235 0.27969 0.0
C1027 C 0.56348 0.11698 0.28112 0.0
C1028 C 0.57275 0.13022 0.30032 0.0
C1029 C 0.54685 0.09251 0.24273 0.0
C1030 C 0.55126 0.10507 0.22488 0.0
C1031 C 0.55948 0.11715 0.24423 0.0
C1032 C 0.5482 0.10578 0.18523 0.0
C1033 C 0.53843 0.07924 0.22267 0.0
C1034 C 0.55867 0.11071 0.15895 0.0
C1035 C 0.55577 0.11001 0.12098 0.0
C1036 C 0.54232 0.1044 0.10861 0.0
C1037 C 0.53191 0.10013 0.13524 0.0
C1038 C 0.53484 0.10082 0.17325 0.0
H1039 H 0.53803 0.0706 0.23808 0.0
H1040 H 0.52793 0.07729 0.21959 0.0
H1041 H 0.54253 0.07962 0.19435 0.0
H1042 H 0.56906 0.11463 0.16775 0.0
H1043 H 0.56405 0.1135 0.10134 0.0
H1044 H 0.81944 0.58044 0.76264 0.0
H1045 H 0.81002 0.57684 0.82543 0.0
H1046 H 0.7723 0.54367 0.78536 0.0
H1047 H 0.7815 0.54768 0.72202 0.0
H1048 H 0.76739 0.55818 0.83206 0.0
H1049 H 0.80535 0.54813 0.89653 0.0
H1050 H 0.81352 0.56436 0.87436 0.0
H1051 H 0.80406 0.54926 0.84675 0.0
C1052 C 0.80915 0.57236 0.76726 0.0
C1053 C 0.80123 0.56425 0.73762 0.0
C1054 C 0.80381 0.57024 0.8032 0.0
C1055 C 0.79058 0.55973 0.81035 0.0
C1056 C 0.78257 0.55176 0.78058 0.0
H1057 H 0.77071 0.54197 0.04585 0.0
H1058 H 0.77326 0.5388 0.97956 0.0
C1059 C 0.78783 0.55405 0.74446 0.0
C1060 C 0.78507 0.5573 0.84878 0.0
H1061 H 0.79288 0.55428 0.93856 0.0
C1062 C 0.77285 0.55713 0.85533 0.0
C1063 C 0.79196 0.55551 0.87905 0.0
C1064 C 0.80435 0.55416 0.87373 0.0
C1065 C 0.76771 0.5559 0.89154 0.0
C1066 C 0.77526 0.55537 0.92212 0.0
C1067 C 0.78714 0.55489 0.91531 0.0
C1068 C 0.77156 0.556 0.96146 0.0
C1069 C 0.75419 0.5551 0.89642 0.0
C1070 C 0.76943 0.56651 0.97342 0.0
C1071 C 0.76761 0.56811 0.01119 0.0
C1072 C 0.76834 0.55948 0.03782 0.0
C1073 C 0.77016 0.54879 0.02586 0.0
C1074 C 0.77163 0.54699 0.98801 0.0
H1075 H 0.74762 0.55036 0.87173 0.0
H1076 H 0.74881 0.5492 0.92157 0.0
H1077 H 0.75578 0.56548 0.89912 0.0
H1078 H 0.76977 0.57388 0.95382 0.0
H1079 H 0.76639 0.57654 0.0197 0.0
H1080 H 0.44459 0.22517 0.71895 0.0
H1081 H 0.44649 0.2173 0.7809 0.0
H1082 H 0.42468 0.23557 0.82812 0.0
H1083 H 0.42263 0.24338 0.7663 0.0
H1084 H 0.45847 0.23285 0.84575 0.0
H1085 H 0.40391 0.19616 0.86579 0.0
H1086 H 0.41111 0.20304 0.82073 0.0
H1087 H 0.40732 0.21278 0.85288 0.0
C1088 C 0.44017 0.22748 0.74253 0.0
C1089 C 0.4334 0.23484 0.73782 0.0
C1090 C 0.44127 0.22299 0.77784 0.0
C1091 C 0.43555 0.22569 0.80887 0.0
C1092 C 0.42893 0.23317 0.80433 0.0
H1093 H 0.44849 0.22964 0.04173 0.0
H1094 H 0.44958 0.23336 0.97469 0.0
C1095 C 0.42784 0.23768 0.76906 0.0
C1096 C 0.4367 0.22097 0.84627 0.0
H1097 H 0.41784 0.20231 0.92017 0.0
C1098 C 0.44961 0.22604 0.86193 0.0
C1099 C 0.42514 0.2119 0.86693 0.0
C1100 C 0.41108 0.20553 0.85064 0.0
C1101 C 0.45122 0.22281 0.89858 0.0
C1102 C 0.4396 0.21443 0.92005 0.0
C1103 C 0.42673 0.20882 0.90371 0.0
C1104 C 0.44041 0.21216 0.96027 0.0
C1105 C 0.46531 0.22849 0.91413 0.0
C1106 C 0.43488 0.19899 0.9744 0.0
C1107 C 0.43417 0.19679 0.01284 0.0
C1108 C 0.43883 0.20774 0.0378 0.0
C1109 C 0.44477 0.22096 0.02339 0.0
C1110 C 0.44551 0.22313 0.98502 0.0
H1111 H 0.47287 0.23104 0.89158 0.0
H1112 H 0.46807 0.23793 0.9297 0.0
H1113 H 0.4659 0.22124 0.93356 0.0
H1114 H 0.43081 0.19039 0.95568 0.0
H1115 H 0.42953 0.18648 0.02293 0.0
H1116 H 0.77583 0.22341 0.7206 0.0
H1117 H 0.78402 0.23407 0.78165 0.0
H1118 H 0.76744 0.19468 0.83232 0.0
H1119 H 0.75923 0.18395 0.77161 0.0
H1120 H 0.76825 0.22991 0.84907 0.0
H1121 H 0.8079 0.21576 0.86527 0.0
H1122 H 0.80051 0.21572 0.82073 0.0
H1123 H 0.79163 0.20185 0.85254 0.0
C1124 C 0.77395 0.21703 0.74477 0.0
C1125 C 0.76693 0.20285 0.74138 0.0
C1126 C 0.77862 0.22313 0.77954 0.0
C1127 C 0.77647 0.21514 0.81125 0.0
C1128 C 0.76937 0.201 0.80798 0.0
H1129 H 0.77196 0.2212 0.04318 0.0
H1130 H 0.76854 0.22004 0.97603 0.0
C1131 C 0.76464 0.19489 0.77334 0.0
C1132 C 0.78141 0.22146 0.84811 0.0
H1133 H 0.80116 0.22249 0.92065 0.0
C1134 C 0.7756 0.2285 0.8646 0.0
C1135 C 0.79119 0.21981 0.86789 0.0
C1136 C 0.79828 0.21299 0.85062 0.0
C1137 C 0.77872 0.23321 0.90142 0.0
C1138 C 0.78773 0.23065 0.92216 0.0
C1139 C 0.79416 0.22436 0.9048 0.0
C1140 C 0.7897 0.23317 0.96274 0.0
C1141 C 0.77215 0.24066 0.91798 0.0
C1142 C 0.80274 0.24099 0.97762 0.0
C1143 C 0.80476 0.2416 0.01614 0.0
C1144 C 0.79378 0.23428 0.04043 0.0
C1145 C 0.78066 0.22695 0.02539 0.0
C1146 C 0.77866 0.22636 0.98694 0.0
H1147 H 0.76936 0.24568 0.89601 0.0
H1148 H 0.76273 0.23332 0.93258 0.0
H1149 H 0.77893 0.2484 0.9384 0.0
H1150 H 0.8114 0.24625 0.95935 0.0
H1151 H 0.815 0.24738 0.0267 0.0
H1152 H 0.43161 0.24494 0.52363 0.0
H1153 H 0.43332 0.2426 0.45639 0.0
H1154 H 0.44684 0.21397 0.47567 0.0
H1155 H 0.44536 0.21632 0.54273 0.0
H1156 H 0.46088 0.23285 0.41751 0.0
H1157 H 0.40482 0.20764 0.40376 0.0
H1158 H 0.41312 0.22419 0.42458 0.0
H1159 H 0.41309 0.21033 0.44834 0.0
C1160 C 0.43509 0.23825 0.51363 0.0
C1161 C 0.43816 0.23066 0.53865 0.0
C1162 C 0.43603 0.23692 0.4752 0.0
C1163 C 0.43999 0.22795 0.46121 0.0
C1164 C 0.44372 0.22091 0.48601 0.0
H1165 H 0.42366 0.18057 0.26616 0.0
H1166 H 0.42599 0.19049 0.32801 0.0
C1167 C 0.44281 0.22224 0.52437 0.0
C1168 C 0.43941 0.2251 0.4209 0.0
H1169 H 0.41715 0.20923 0.3498 0.0
C1170 C 0.45136 0.22785 0.40247 0.0
C1171 C 0.42692 0.21845 0.40167 0.0
C1172 C 0.41372 0.21486 0.42052 0.0
C1173 C 0.45111 0.22381 0.36541 0.0
C1174 C 0.4386 0.21695 0.34647 0.0
C1175 C 0.42671 0.21454 0.36455 0.0
C1176 C 0.43743 0.21121 0.3089 0.0
C1177 C 0.46411 0.22635 0.34728 0.0
C1178 C 0.44304 0.21963 0.2778 0.0
C1179 C 0.44171 0.21399 0.24239 0.0
C1180 C 0.43473 0.19987 0.2377 0.0
C1181 C 0.42911 0.19149 0.26894 0.0
C1182 C 0.43041 0.19712 0.30424 0.0
H1183 H 0.47256 0.22992 0.36759 0.0
H1184 H 0.4627 0.21699 0.33369 0.0
H1185 H 0.46702 0.23419 0.32538 0.0
H1186 H 0.44834 0.23053 0.28089 0.0
H1187 H 0.44611 0.22069 0.21875 0.0
H1188 H 0.78361 0.2298 0.54233 0.0
H1189 H 0.78592 0.23252 0.47498 0.0
H1190 H 0.75968 0.18956 0.46049 0.0
H1191 H 0.75738 0.18664 0.52812 0.0
H1192 H 0.78396 0.19971 0.42267 0.0
H1193 H 0.76017 0.23071 0.39333 0.0
H1194 H 0.77235 0.23763 0.4303 0.0
H1195 H 0.75733 0.2214 0.43624 0.0
C1196 C 0.77815 0.22092 0.52494 0.0
C1197 C 0.77036 0.20798 0.54075 0.0
C1198 C 0.7794 0.22253 0.48637 0.0
C1199 C 0.77284 0.21127 0.46278 0.0
C1200 C 0.76475 0.19838 0.47829 0.0
H1201 H 0.7812 0.22398 0.22106 0.0
H1202 H 0.77124 0.21577 0.28269 0.0
C1203 C 0.76346 0.19675 0.51695 0.0
C1204 C 0.77552 0.2129 0.42226 0.0
H1205 H 0.77577 0.23131 0.3471 0.0
C1206 C 0.78197 0.20645 0.40595 0.0
C1207 C 0.77276 0.22155 0.40042 0.0
C1208 C 0.76514 0.22811 0.41587 0.0
C1209 C 0.78641 0.20899 0.36887 0.0
C1210 C 0.78451 0.21839 0.34787 0.0
C1211 C 0.77738 0.22426 0.36349 0.0
C1212 C 0.79045 0.2228 0.31037 0.0
C1213 C 0.79325 0.20176 0.35265 0.0
C1214 C 0.80455 0.22955 0.3057 0.0
C1215 C 0.81026 0.23427 0.27063 0.0
C1216 C 0.80196 0.23236 0.2397 0.0
C1217 C 0.78784 0.22557 0.24442 0.0
C1218 C 0.78214 0.22088 0.27954 0.0
H1219 H 0.7904 0.19224 0.36793 0.0
H1220 H 0.79064 0.19933 0.32277 0.0
H1221 H 0.80438 0.2084 0.35488 0.0
H1222 H 0.81114 0.23137 0.32934 0.0
H1223 H 0.82117 0.23951 0.26785 0.0
H1224 H 0.77025 0.55229 0.54186 0.0
H1225 H 0.76644 0.55143 0.47488 0.0
H1226 H 0.80915 0.56828 0.45518 0.0
H1227 H 0.81316 0.56933 0.52234 0.0
H1228 H 0.79826 0.58212 0.4193 0.0
H1229 H 0.76716 0.52709 0.39238 0.0
H1230 H 0.76082 0.53264 0.43016 0.0
H1231 H 0.7771 0.53386 0.43424 0.0
C1232 C 0.77884 0.55563 0.52339 0.0
C1233 C 0.79203 0.56095 0.5376 0.0
C1234 C 0.77661 0.55504 0.48503 0.0
C1235 C 0.78749 0.55965 0.4601 0.0
C1236 C 0.80062 0.5646 0.47403 0.0
H1237 H 0.77495 0.55496 0.21845 0.0
H1238 H 0.78253 0.55305 0.28086 0.0
C1239 C 0.80287 0.56518 0.51243 0.0
C1240 C 0.78525 0.56047 0.41983 0.0
H1241 H 0.76642 0.5418 0.34573 0.0
C1242 C 0.79144 0.57329 0.40304 0.0
C1243 C 0.77647 0.54891 0.39862 0.0
C1244 C 0.77011 0.53483 0.41465 0.0
C1245 C 0.78862 0.57493 0.36604 0.0
C1246 C 0.77921 0.56348 0.34556 0.0
C1247 C 0.7735 0.55058 0.36173 0.0
C1248 C 0.7748 0.56475 0.30783 0.0
C1249 C 0.79561 0.58893 0.34926 0.0
C1250 C 0.76781 0.57183 0.30255 0.0
C1251 C 0.76345 0.57291 0.26705 0.0
C1252 C 0.76597 0.56689 0.23627 0.0
C1253 C 0.7729 0.55973 0.24166 0.0
C1254 C 0.77722 0.55862 0.27723 0.0
H1255 H 0.80503 0.59588 0.36458 0.0
H1256 H 0.79816 0.58863 0.31954 0.0
H1257 H 0.78874 0.59318 0.35071 0.0
H1258 H 0.76564 0.57642 0.32598 0.0
H1259 H 0.7581 0.57845 0.26376 0.0
H1260 H 0.5479 0.11121 0.60177 0.0
H1261 H 0.54435 0.11243 0.6683 0.0
H1262 H 0.57182 0.09786 0.69277 0.0
H1263 H 0.57539 0.09646 0.62613 0.0
H1264 H 0.54682 0.08336 0.72798 0.0
H1265 H 0.56867 0.13851 0.74959 0.0
H1266 H 0.55691 0.13195 0.71153 0.0
H1267 H 0.57245 0.13157 0.70912 0.0
C1268 C 0.55335 0.10843 0.6212 0.0
C1269 C 0.56189 0.10367 0.6085 0.0
C1270 C 0.55137 0.10923 0.65927 0.0
C1271 C 0.55794 0.10538 0.68539 0.0
C1272 C 0.56672 0.10094 0.67296 0.0
H1273 H 0.55144 0.11165 0.92631 0.0
H1274 H 0.56025 0.11346 0.86306 0.0
C1275 C 0.56874 0.10016 0.63486 0.0
C1276 C 0.55471 0.10489 0.72544 0.0
H1277 H 0.55396 0.124 0.79755 0.0
C1278 C 0.54852 0.09227 0.74334 0.0
C1279 C 0.55705 0.11654 0.74543 0.0
C1280 C 0.56426 0.13044 0.72807 0.0
C1281 C 0.54413 0.09091 0.78037 0.0
C1282 C 0.54586 0.10245 0.79973 0.0
C1283 C 0.55252 0.11516 0.78237 0.0
C1284 C 0.54054 0.10145 0.8378 0.0
C1285 C 0.53763 0.07714 0.79847 0.0
C1286 C 0.52654 0.09424 0.84426 0.0
C1287 C 0.52148 0.09322 0.88026 0.0
C1288 C 0.53035 0.09941 0.91032 0.0
C1289 C 0.54437 0.10674 0.90368 0.0
C1290 C 0.54941 0.1078 0.86763 0.0
H1291 H 0.54004 0.07011 0.78332 0.0
H1292 H 0.54098 0.07791 0.82787 0.0
H1293 H 0.52648 0.0727 0.79838 0.0
H1294 H 0.51954 0.08943 0.82142 0.0
H1295 H 0.51063 0.08754 0.88454 0.0
H1296 H 0.87474 0.43876 0.60237 0.0
H1297 H 0.87255 0.4338 0.6691 0.0
H1298 H 0.90764 0.47287 0.69035 0.0
H1299 H 0.90937 0.47815 0.62407 0.0
H1300 H 0.88908 0.43049 0.70842 0.0
H1301 H 0.88504 0.47189 0.77466 0.0
H1302 H 0.88316 0.469 0.72506 0.0
H1303 H 0.89974 0.47878 0.74558 0.0
C1304 C 0.88177 0.44641 0.62146 0.0
C1305 C 0.89222 0.45884 0.60811 0.0
C1306 C 0.88052 0.44357 0.65957 0.0
C1307 C 0.88984 0.45301 0.68495 0.0
C1308 C 0.90006 0.46558 0.67165 0.0
H1309 H 0.91653 0.43139 0.88389 0.0
H1310 H 0.91289 0.43723 0.82109 0.0
C1311 C 0.90111 0.46855 0.63365 0.0
C1312 C 0.88988 0.4491 0.72439 0.0
H1313 H 0.89353 0.46049 0.81394 0.0
C1314 C 0.88982 0.43697 0.73148 0.0
C1315 C 0.89063 0.45739 0.75471 0.0
C1316 C 0.88949 0.4699 0.74958 0.0
C1317 C 0.891 0.43315 0.76775 0.0
C1318 C 0.8929 0.442 0.79769 0.0
C1319 C 0.89239 0.45385 0.79089 0.0
C1320 C 0.89555 0.43917 0.83614 0.0
C1321 C 0.89005 0.4196 0.77347 0.0
C1322 C 0.88748 0.43903 0.86585 0.0
C1323 C 0.88978 0.43605 0.90191 0.0
C1324 C 0.90011 0.43303 0.90877 0.0
C1325 C 0.90837 0.43348 0.87923 0.0
C1326 C 0.90623 0.43671 0.84332 0.0
H1327 H 0.88407 0.41238 0.75096 0.0
H1328 H 0.90037 0.42093 0.77276 0.0
H1329 H 0.88531 0.41505 0.80064 0.0
H1330 H 0.87926 0.441 0.86104 0.0
H1331 H 0.88328 0.4358 0.92426 0.0
H1332 H 0.52168 0.436 0.62614 0.0
H1333 H 0.52714 0.44092 0.69223 0.0
H1334 H 0.56611 0.44441 0.67321 0.0
H1335 H 0.56097 0.44026 0.60672 0.0
H1336 H 0.5332 0.43018 0.74802 0.0
H1337 H 0.57768 0.48043 0.71809 0.0
H1338 H 0.56597 0.47013 0.68231 0.0
H1339 H 0.57917 0.46693 0.69743 0.0
C1340 C 0.53136 0.43771 0.63616 0.0
C1341 C 0.541 0.43797 0.61133 0.0
C1342 C 0.53448 0.44053 0.6739 0.0
C1343 C 0.5472 0.44343 0.68748 0.0
C1344 C 0.55644 0.44271 0.66312 0.0
H1345 H 0.56616 0.44989 0.92501 0.0
H1346 H 0.55977 0.44185 0.86099 0.0
C1347 C 0.55346 0.44023 0.62523 0.0
C1348 C 0.55094 0.44773 0.72673 0.0
H1349 H 0.57478 0.47301 0.78077 0.0
C1350 C 0.54227 0.43957 0.75522 0.0
C1351 C 0.56264 0.46013 0.73605 0.0
C1352 C 0.57181 0.46997 0.70684 0.0
C1353 C 0.54499 0.44342 0.79278 0.0
C1354 C 0.55699 0.45553 0.80213 0.0
C1355 C 0.56565 0.46368 0.77362 0.0
C1356 C 0.56068 0.46022 0.84113 0.0
C1357 C 0.53475 0.43469 0.82178 0.0
C1358 C 0.56381 0.47338 0.851 0.0
C1359 C 0.56785 0.47813 0.88723 0.0
C1360 C 0.56867 0.46972 0.91435 0.0
C1361 C 0.56548 0.45653 0.90462 0.0
C1362 C 0.56171 0.45188 0.86816 0.0
H1363 H 0.52452 0.42846 0.80945 0.0
H1364 H 0.5378 0.42767 0.8339 0.0
H1365 H 0.53409 0.4409 0.84461 0.0
H1366 H 0.56313 0.48002 0.8306 0.0
H1367 H 0.5702 0.48832 0.89409 0.0
H1368 H 0.57353 0.82084 0.71631 0.0
H1369 H 0.57069 0.81114 0.65397 0.0
H1370 H 0.55233 0.77108 0.7013 0.0
H1371 H 0.55499 0.78069 0.76385 0.0
H1372 H 0.58166 0.79529 0.62847 0.0
H1373 H 0.52546 0.76776 0.619 0.0
H1374 H 0.53466 0.78083 0.65314 0.0
H1375 H 0.5325 0.76426 0.65946 0.0
C1376 C 0.56881 0.80996 0.71345 0.0
C1377 C 0.56447 0.80151 0.7449 0.0
C1378 C 0.5672 0.80444 0.67786 0.0
C1379 C 0.56117 0.7904 0.67309 0.0
C1380 C 0.55679 0.78192 0.70441 0.0
H1381 H 0.56884 0.7567 0.46143 0.0
H1382 H 0.56725 0.75984 0.52828 0.0
C1383 C 0.55839 0.78744 0.74008 0.0
C1384 C 0.56003 0.78478 0.6353 0.0
H1385 H 0.53734 0.76554 0.56808 0.0
C1386 C 0.57198 0.7887 0.61531 0.0
C1387 C 0.54737 0.77626 0.61834 0.0
C1388 C 0.53423 0.77207 0.63836 0.0
C1389 C 0.57163 0.78452 0.57844 0.0
C1390 C 0.55898 0.77602 0.56138 0.0
C1391 C 0.54701 0.77193 0.58151 0.0
C1392 C 0.55807 0.77232 0.52162 0.0
C1393 C 0.58478 0.78964 0.55754 0.0
C1394 C 0.55289 0.77782 0.496 0.0
C1395 C 0.55376 0.77607 0.45783 0.0
C1396 C 0.55981 0.76873 0.44463 0.0
C1397 C 0.56422 0.76251 0.47057 0.0
C1398 C 0.56336 0.7643 0.50878 0.0
H1399 H 0.59344 0.798 0.57255 0.0
H1400 H 0.58694 0.78124 0.55397 0.0
H1401 H 0.58407 0.79328 0.5294 0.0
H1402 H 0.54872 0.784 0.50548 0.0
H1403 H 0.55013 0.78089 0.43872 0.0
H1404 H 0.24578 0.81514 0.46163 0.0
H1405 H 0.24432 0.81175 0.52914 0.0
H1406 H 0.21704 0.76904 0.51322 0.0
H1407 H 0.21854 0.77223 0.44599 0.0
H1408 H 0.22086 0.80223 0.56896 0.0
H1409 H 0.24267 0.76913 0.59193 0.0
H1410 H 0.24541 0.77868 0.54951 0.0
H1411 H 0.23009 0.76272 0.55591 0.0
C1412 C 0.23966 0.80498 0.47243 0.0
C1413 C 0.23222 0.79396 0.4483 0.0
C1414 C 0.23885 0.80307 0.51102 0.0
C1415 C 0.23071 0.79012 0.52613 0.0
C1416 C 0.22363 0.77907 0.50214 0.0
H1417 H 0.1822 0.76072 0.71861 0.0
H1418 H 0.19279 0.76917 0.65788 0.0
C1419 C 0.22441 0.78095 0.46363 0.0
C1420 C 0.22836 0.78827 0.56678 0.0
H1421 H 0.22732 0.76851 0.63948 0.0
C1422 C 0.22251 0.79505 0.58457 0.0
C1423 C 0.23068 0.77903 0.58724 0.0
C1424 C 0.23769 0.77208 0.57024 0.0
C1425 C 0.21814 0.7922 0.62165 0.0
C1426 C 0.2195 0.7822 0.64113 0.0
C1427 C 0.22612 0.77604 0.62419 0.0
C1428 C 0.21327 0.77734 0.67812 0.0
C1429 C 0.21181 0.79969 0.63943 0.0
C1430 C 0.22131 0.77894 0.70937 0.0
C1431 C 0.21528 0.77412 0.74413 0.0
C1432 C 0.20113 0.7675 0.74797 0.0
C1433 C 0.19313 0.76581 0.71651 0.0
C1434 C 0.19915 0.77069 0.68187 0.0
H1435 H 0.2149 0.80943 0.62503 0.0
H1436 H 0.20063 0.79339 0.63764 0.0
H1437 H 0.21464 0.80178 0.66931 0.0
H1438 H 0.23222 0.78397 0.70687 0.0
H1439 H 0.2217 0.77553 0.76792 0.0
H1440 H 0.22944 0.44505 0.43894 0.0
H1441 H 0.23356 0.44626 0.5058 0.0
H1442 H 0.19131 0.43174 0.52699 0.0
H1443 H 0.18697 0.43031 0.45991 0.0
H1444 H 0.22852 0.45981 0.56492 0.0
H1445 H 0.1989 0.40367 0.5777 0.0
H1446 H 0.20414 0.41209 0.53322 0.0
H1447 H 0.1902 0.41163 0.5577 0.0
C1448 C 0.22101 0.44222 0.45768 0.0
C1449 C 0.20783 0.43739 0.44397 0.0
C1450 C 0.22341 0.44296 0.49592 0.0
C1451 C 0.2127 0.43889 0.52117 0.0
C1452 C 0.19965 0.43472 0.5078 0.0
H1453 H 0.2257 0.44526 0.76294 0.0
H1454 H 0.2184 0.44725 0.70027 0.0
C1455 C 0.19722 0.43396 0.46947 0.0
C1456 C 0.2152 0.43827 0.56128 0.0
H1457 H 0.20944 0.41602 0.6319 0.0
C1458 C 0.22425 0.45028 0.57978 0.0
C1459 C 0.2097 0.42576 0.58026 0.0
C1460 C 0.20027 0.41252 0.56127 0.0
C1461 C 0.22816 0.45007 0.61672 0.0
C1462 C 0.22277 0.43755 0.63549 0.0
C1463 C 0.2135 0.42559 0.61727 0.0
C1464 C 0.22721 0.43652 0.67333 0.0
C1465 C 0.2384 0.46316 0.63493 0.0
C1466 C 0.2344 0.42966 0.67879 0.0
C1467 C 0.23856 0.42848 0.71446 0.0
C1468 C 0.23551 0.43408 0.74523 0.0
C1469 C 0.22824 0.44089 0.73969 0.0
C1470 C 0.22411 0.44209 0.70396 0.0
H1471 H 0.24332 0.47157 0.61452 0.0
H1472 H 0.23327 0.46605 0.65627 0.0
H1473 H 0.24634 0.46191 0.64919 0.0
H1474 H 0.23684 0.42527 0.65538 0.0
H1475 H 0.24411 0.42315 0.71792 0.0
H1476 H 0.48591 0.91481 0.09488 0.0
H1477 H 0.4771 0.91151 0.15836 0.0
H1478 H 0.43926 0.87769 0.12139 0.0
H1479 H 0.44783 0.88141 0.05739 0.0
H1480 H 0.43448 0.89224 0.16801 0.0
H1481 H 0.47366 0.88353 0.23034 0.0
H1482 H 0.48131 0.89963 0.20747 0.0
H1483 H 0.47189 0.88433 0.18063 0.0
C1484 C 0.47573 0.90666 0.10034 0.0
C1485 C 0.46758 0.89828 0.07138 0.0
C1486 C 0.47073 0.90471 0.13667 0.0
C1487 C 0.45765 0.8941 0.14488 0.0
C1488 C 0.44942 0.88586 0.11579 0.0
H1489 H 0.43889 0.87624 0.38103 0.0
H1490 H 0.44173 0.87347 0.31464 0.0
C1491 C 0.45432 0.88799 0.07929 0.0
C1492 C 0.45251 0.89184 0.18369 0.0
H1493 H 0.46113 0.88935 0.27302 0.0
C1494 C 0.44021 0.89142 0.19095 0.0
C1495 C 0.45976 0.89037 0.21356 0.0
C1496 C 0.47229 0.88932 0.20753 0.0
C1497 C 0.4353 0.8902 0.22743 0.0
C1498 C 0.44317 0.88993 0.25756 0.0
C1499 C 0.45515 0.88975 0.25009 0.0
C1500 C 0.43961 0.89048 0.29708 0.0
C1501 C 0.42168 0.8891 0.23307 0.0
C1502 C 0.43724 0.9008 0.30936 0.0
C1503 C 0.43529 0.90218 0.34715 0.0
C1504 C 0.4361 0.89353 0.37353 0.0
C1505 C 0.43827 0.88308 0.36127 0.0
C1506 C 0.4399 0.8815 0.32337 0.0
H1507 H 0.41499 0.88427 0.20863 0.0
H1508 H 0.41651 0.88313 0.25834 0.0
H1509 H 0.42306 0.89939 0.23605 0.0
H1510 H 0.43743 0.90815 0.28995 0.0
H1511 H 0.4338 0.91044 0.35587 0.0
H1512 H 0.08912 0.57754 0.09854 0.0
H1513 H 0.09098 0.57017 0.16117 0.0
H1514 H 0.11359 0.55226 0.11728 0.0
H1515 H 0.11186 0.55967 0.05451 0.0
H1516 H 0.08194 0.543 0.18494 0.0
H1517 H 0.13737 0.57705 0.20365 0.0
H1518 H 0.1278 0.57994 0.16842 0.0
H1519 H 0.13213 0.56697 0.16193 0.0
C1520 C 0.09453 0.57208 0.10223 0.0
C1521 C 0.10039 0.56922 0.0717 0.0
C1522 C 0.09556 0.56787 0.13797 0.0
C1523 C 0.10253 0.56081 0.14378 0.0
C1524 C 0.10835 0.55787 0.11336 0.0
H1525 H 0.09604 0.5199 0.35631 0.0
H1526 H 0.09737 0.52452 0.28938 0.0
C1527 C 0.1073 0.56207 0.07757 0.0
C1528 C 0.10347 0.55635 0.18174 0.0
H1529 H 0.12557 0.56197 0.25272 0.0
C1530 C 0.09147 0.54705 0.19974 0.0
C1531 C 0.11594 0.56173 0.20081 0.0
C1532 C 0.12906 0.57205 0.18296 0.0
C1533 C 0.09156 0.54316 0.23673 0.0
C1534 C 0.10403 0.5486 0.25593 0.0
C1535 C 0.11606 0.55773 0.2377 0.0
C1536 C 0.10458 0.5459 0.29597 0.0
C1537 C 0.07828 0.53368 0.25543 0.0
C1538 C 0.10871 0.5565 0.32164 0.0
C1539 C 0.10803 0.55394 0.35979 0.0
C1540 C 0.10322 0.54071 0.37305 0.0
C1541 C 0.09969 0.5302 0.34713 0.0
C1542 C 0.10039 0.53279 0.30887 0.0
H1543 H 0.06947 0.53243 0.239 0.0
H1544 H 0.07735 0.52358 0.25861 0.0
H1545 H 0.07782 0.53744 0.28363 0.0
H1546 H 0.11203 0.56671 0.31216 0.0
H1547 H 0.11093 0.56231 0.37885 0.0
H1548 H 0.42368 0.51444 0.09823 0.0
H1549 H 0.43133 0.52447 0.15994 0.0
H1550 H 0.45063 0.5644 0.11154 0.0
H1551 H 0.4429 0.55444 0.04962 0.0
H1552 H 0.45855 0.54199 0.18322 0.0
H1553 H 0.42646 0.56584 0.19583 0.0
H1554 H 0.42308 0.5528 0.16203 0.0
H1555 H 0.43669 0.56975 0.15455 0.0
C1556 C 0.42951 0.52535 0.10072 0.0
C1557 C 0.43265 0.53366 0.06918 0.0
C1558 C 0.43389 0.53106 0.13594 0.0
C1559 C 0.44141 0.54515 0.14022 0.0
C1560 C 0.44465 0.5535 0.10879 0.0
H1561 H 0.48087 0.57862 0.35522 0.0
H1562 H 0.47711 0.57618 0.28785 0.0
C1563 C 0.44028 0.54779 0.07349 0.0
C1564 C 0.44598 0.55099 0.17773 0.0
H1565 H 0.44075 0.56855 0.24644 0.0
C1566 C 0.45479 0.54792 0.19699 0.0
C1567 C 0.44097 0.55867 0.19543 0.0
C1568 C 0.4312 0.56192 0.17614 0.0
C1569 C 0.45846 0.55201 0.23401 0.0
C1570 C 0.4533 0.55952 0.25195 0.0
C1571 C 0.44476 0.5629 0.23237 0.0
C1572 C 0.4555 0.56264 0.29215 0.0
C1573 C 0.4673 0.5477 0.25418 0.0
C1574 C 0.44451 0.55632 0.31665 0.0
C1575 C 0.44659 0.55771 0.35506 0.0
C1576 C 0.45972 0.56548 0.36969 0.0
C1577 C 0.47064 0.57245 0.34494 0.0
C1578 C 0.46853 0.57105 0.30644 0.0
H1579 H 0.46844 0.53996 0.23836 0.0
H1580 H 0.47752 0.55663 0.25826 0.0
H1581 H 0.46305 0.54353 0.28207 0.0
H1582 H 0.43437 0.54983 0.30607 0.0
H1583 H 0.43792 0.5523 0.3732 0.0
H1584 H 0.11445 0.55103 0.87816 0.0
H1585 H 0.11558 0.54779 0.81142 0.0
H1586 H 0.09827 0.57309 0.78917 0.0
H1587 H 0.09696 0.57634 0.85605 0.0
H1588 H 0.08463 0.54786 0.75503 0.0
H1589 H 0.13971 0.57252 0.72776 0.0
H1590 H 0.13432 0.56099 0.76638 0.0
H1591 H 0.13285 0.57594 0.76904 0.0
C1592 C 0.11107 0.5561 0.85917 0.0
C1593 C 0.10553 0.56387 0.87257 0.0
C1594 C 0.11183 0.55431 0.82096 0.0
C1595 C 0.10714 0.56031 0.7954 0.0
C1596 C 0.10201 0.56844 0.80852 0.0
H1597 H 0.11093 0.55185 0.55412 0.0
H1598 H 0.11312 0.56129 0.61671 0.0
C1599 C 0.10128 0.57028 0.84677 0.0
C1600 C 0.10633 0.55694 0.75537 0.0
H1601 H 0.1251 0.55679 0.68153 0.0
C1602 C 0.09349 0.54997 0.73879 0.0
C1603 C 0.11792 0.55981 0.73423 0.0
C1604 C 0.132 0.56785 0.75012 0.0
C1605 C 0.09187 0.54528 0.70201 0.0
C1606 C 0.10338 0.5475 0.68156 0.0
C1607 C 0.11628 0.55497 0.69754 0.0
C1608 C 0.10216 0.54181 0.64387 0.0
C1609 C 0.07785 0.5379 0.6854 0.0
C1610 C 0.09543 0.52774 0.63866 0.0
C1611 C 0.09418 0.52232 0.60305 0.0
C1612 C 0.09968 0.5309 0.5721 0.0
C1613 C 0.10655 0.54499 0.57746 0.0
C1614 C 0.10783 0.5504 0.61313 0.0
H1615 H 0.0707 0.54006 0.70089 0.0
H1616 H 0.07801 0.54074 0.65573 0.0
H1617 H 0.07394 0.52684 0.68669 0.0
H1618 H 0.09117 0.52096 0.66221 0.0
H1619 H 0.08888 0.51143 0.59977 0.0
H1620 H 0.44997 0.56304 0.87271 0.0
H1621 H 0.45194 0.56656 0.8056 0.0
H1622 H 0.42427 0.52404 0.78784 0.0
H1623 H 0.42232 0.52031 0.8552 0.0
H1624 H 0.44806 0.53351 0.74931 0.0
H1625 H 0.42687 0.56716 0.72596 0.0
H1626 H 0.43924 0.57323 0.76253 0.0
H1627 H 0.42376 0.55736 0.76806 0.0
C1628 C 0.44412 0.55443 0.85468 0.0
C1629 C 0.43606 0.54137 0.86944 0.0
C1630 C 0.44518 0.5565 0.81625 0.0
C1631 C 0.43812 0.54559 0.7918 0.0
C1632 C 0.42973 0.5326 0.80633 0.0
H1633 H 0.44685 0.55964 0.55034 0.0
H1634 H 0.43668 0.55168 0.61193 0.0
C1635 C 0.42865 0.53051 0.84483 0.0
C1636 C 0.44072 0.5476 0.7513 0.0
H1637 H 0.44207 0.56749 0.67859 0.0
C1638 C 0.44654 0.54076 0.73366 0.0
C1639 C 0.43858 0.55695 0.73084 0.0
C1640 C 0.43164 0.56399 0.74773 0.0
C1641 C 0.45097 0.5436 0.69664 0.0
C1642 C 0.44972 0.55365 0.67709 0.0
C1643 C 0.4432 0.55993 0.69395 0.0
C1644 C 0.45577 0.55829 0.63986 0.0
C1645 C 0.45719 0.53599 0.67895 0.0
C1646 C 0.46986 0.56477 0.63546 0.0
C1647 C 0.47569 0.56936 0.60047 0.0
C1648 C 0.46751 0.56756 0.56934 0.0
C1649 C 0.4534 0.56113 0.57385 0.0
C1650 C 0.44757 0.55659 0.60894 0.0
H1651 H 0.4541 0.52629 0.69357 0.0
H1652 H 0.45428 0.53382 0.64915 0.0
H1653 H 0.46838 0.54227 0.68049 0.0
H1654 H 0.47635 0.56636 0.6592 0.0
H1655 H 0.48659 0.57431 0.59782 0.0
H1656 H 0.43597 0.87501 0.8812 0.0
H1657 H 0.4302 0.87203 0.81491 0.0
H1658 H 0.4692 0.90654 0.78917 0.0
H1659 H 0.47527 0.90903 0.85496 0.0
H1660 H 0.42658 0.88772 0.77311 0.0
H1661 H 0.46743 0.88254 0.70795 0.0
H1662 H 0.46493 0.88149 0.75772 0.0
H1663 H 0.47467 0.89771 0.7352 0.0
C1664 C 0.4434 0.88176 0.86122 0.0
C1665 C 0.45607 0.89223 0.87316 0.0
C1666 C 0.44011 0.88006 0.82337 0.0
C1667 C 0.44932 0.88893 0.79682 0.0
C1668 C 0.46207 0.89926 0.80878 0.0
H1669 H 0.42779 0.91443 0.59659 0.0
H1670 H 0.43289 0.91044 0.65985 0.0
C1671 C 0.46549 0.90076 0.8465 0.0
C1672 C 0.44512 0.88834 0.75737 0.0
H1673 H 0.45613 0.89094 0.66772 0.0
C1674 C 0.43295 0.88818 0.75009 0.0
C1675 C 0.45323 0.88865 0.72709 0.0
C1676 C 0.4657 0.88744 0.73245 0.0
C1677 C 0.42899 0.88895 0.71365 0.0
C1678 C 0.43774 0.89056 0.68369 0.0
C1679 C 0.44957 0.89004 0.69073 0.0
C1680 C 0.43497 0.89315 0.64509 0.0
C1681 C 0.41542 0.88795 0.70781 0.0
C1682 C 0.43511 0.88521 0.61539 0.0
C1683 C 0.43257 0.88774 0.57904 0.0
C1684 C 0.42972 0.89815 0.57187 0.0
C1685 C 0.42976 0.90621 0.60146 0.0
C1686 C 0.43256 0.90386 0.63766 0.0
H1687 H 0.40821 0.88196 0.73033 0.0
H1688 H 0.4167 0.89824 0.70851 0.0
H1689 H 0.41088 0.88318 0.68065 0.0
H1690 H 0.43705 0.87697 0.62038 0.0
H1691 H 0.43262 0.88139 0.55666 0.0
H1692 H 0.2193 0.44501 0.26358 0.0
H1693 H 0.22895 0.44777 0.201 0.0
H1694 H 0.18881 0.42551 0.15457 0.0
H1695 H 0.17904 0.42273 0.21692 0.0
H1696 H 0.21167 0.41798 0.13598 0.0
H1697 H 0.22325 0.47097 0.11138 0.0
H1698 H 0.22655 0.46612 0.15631 0.0
H1699 H 0.20944 0.45964 0.14122 0.0
C1700 C 0.21253 0.44073 0.24003 0.0
C1701 C 0.19841 0.43366 0.24504 0.0
C1702 C 0.21806 0.44233 0.20442 0.0
C1703 C 0.20955 0.43688 0.17348 0.0
C1704 C 0.19548 0.42979 0.17833 0.0
H1705 H 0.21212 0.44156 0.93921 0.0
H1706 H 0.20954 0.44304 0.00611 0.0
C1707 C 0.18994 0.42822 0.21387 0.0
C1708 C 0.21524 0.43834 0.13585 0.0
H1709 H 0.22697 0.4598 0.0616 0.0
C1710 C 0.21519 0.42715 0.11972 0.0
C1711 C 0.21976 0.45034 0.11512 0.0
C1712 C 0.21979 0.46251 0.13162 0.0
C1713 C 0.21915 0.42747 0.08259 0.0
C1714 C 0.22339 0.43939 0.06142 0.0
C1715 C 0.2238 0.45073 0.07804 0.0
C1716 C 0.22605 0.43977 0.02102 0.0
C1717 C 0.21814 0.41486 0.06587 0.0
C1718 C 0.23643 0.43779 0.00727 0.0
C1719 C 0.23788 0.43682 0.96891 0.0
C1720 C 0.22904 0.43795 0.94374 0.0
C1721 C 0.21908 0.44059 0.95771 0.0
C1722 C 0.2176 0.44147 -0.00402 0.0
H1723 H 0.21226 0.40583 0.08381 0.0
H1724 H 0.2133 0.41278 0.03797 0.0
H1725 H 0.22846 0.41634 0.06244 0.0
H1726 H 0.24323 0.43673 0.0262 0.0
H1727 H 0.24577 0.43494 0.95907 0.0
H1728 H 0.55553 0.77143 0.93972 0.0
H1729 H 0.55471 0.76752 0.00663 0.0
H1730 H 0.57111 0.81015 0.027 0.0
H1731 H 0.57212 0.81426 0.95987 0.0
H1732 H 0.58487 0.79916 0.0638 0.0
H1733 H 0.52964 0.76798 0.08747 0.0
H1734 H 0.53549 0.76181 0.04995 0.0
H1735 H 0.53673 0.77811 0.04609 0.0
C1736 C 0.55882 0.77999 0.95832 0.0
C1737 C 0.56394 0.79318 0.94431 0.0
C1738 C 0.55825 0.7777 -0.00338 0.0
C1739 C 0.56269 0.78852 0.02171 0.0
C1740 C 0.56756 0.80166 0.008 0.0
H1741 H 0.55569 0.77478 0.26265 0.0
H1742 H 0.55447 0.78272 0.20017 0.0
C1743 C 0.56811 0.80397 0.96963 0.0
C1744 C 0.56323 0.78616 0.06201 0.0
H1745 H 0.54399 0.76707 0.13495 0.0
C1746 C 0.57592 0.79229 0.07953 0.0
C1747 C 0.55151 0.77732 0.08253 0.0
C1748 C 0.53756 0.77103 0.06567 0.0
C1749 C 0.57728 0.78933 0.11664 0.0
C1750 C 0.56566 0.77985 0.13642 0.0
C1751 C 0.55289 0.7742 0.11948 0.0
C1752 C 0.56661 0.77529 0.17424 0.0
C1753 C 0.59114 0.79627 0.13427 0.0
C1754 C 0.57371 0.76836 0.18012 0.0
C1755 C 0.5744 0.7638 0.21568 0.0
C1756 C 0.56796 0.76605 0.24589 0.0
C1757 C 0.56078 0.77292 0.23988 0.0
C1758 C 0.56007 0.77746 0.20428 0.0
H1759 H 0.59818 0.80578 0.11944 0.0
H1760 H 0.5906 0.79867 0.16399 0.0
H1761 H 0.59543 0.78944 0.13295 0.0
H1762 H 0.57861 0.76637 0.15711 0.0
H1763 H 0.57996 0.75849 0.21946 0.0
H1764 H 0.24123 0.81967 0.21877 0.0
H1765 H 0.23282 0.80927 0.1578 0.0
H1766 H 0.21606 0.76961 0.2069 0.0
H1767 H 0.22451 0.77994 0.26811 0.0
H1768 H 0.23122 0.77326 0.141 0.0
H1769 H 0.19309 0.78929 0.12238 0.0
H1770 H 0.20953 0.80298 0.13468 0.0
H1771 H 0.20038 0.7894 0.16716 0.0
C1772 C 0.23572 0.80873 0.21663 0.0
C1773 C 0.23349 0.80061 0.24818 0.0
C1774 C 0.23086 0.80281 0.18185 0.0
C1775 C 0.22365 0.78868 0.17805 0.0
C1776 C 0.22152 0.78053 0.2094 0.0
H1777 H 0.18566 0.75637 0.96154 0.0
H1778 H 0.18889 0.75819 0.02913 0.0
C1779 C 0.22635 0.78645 0.24427 0.0
C1780 C 0.21878 0.78253 0.14096 0.0
H1781 H 0.19982 0.7823 0.06727 0.0
C1782 C 0.2242 0.77505 0.12501 0.0
C1783 C 0.20941 0.78465 0.12053 0.0
C1784 C 0.20265 0.7919 0.13717 0.0
C1785 C 0.22112 0.77032 0.08821 0.0
C1786 C 0.21255 0.77334 0.06685 0.0
C1787 C 0.2065 0.78011 0.08359 0.0
C1788 C 0.21068 0.7707 0.02631 0.0
C1789 C 0.22724 0.76236 0.07234 0.0
C1790 C 0.22187 0.77703 0.00242 0.0
C1791 C 0.22008 0.77605 0.96388 0.0
C1792 C 0.20702 0.76878 0.9484 0.0
C1793 C 0.19585 0.76205 0.97246 0.0
C1794 C 0.19767 0.76307 0.01109 0.0
H1795 H 0.22969 0.75718 0.09468 0.0
H1796 H 0.22032 0.75467 0.052 0.0
H1797 H 0.23681 0.76937 0.05779 0.0
H1798 H 0.23197 0.7832 0.01357 0.0
H1799 H 0.22892 0.78135 0.94628 0.0
H1800 H 0.16164 0.20789 0.3013 0.0
H1801 H 0.17802 0.201 0.28467 0.0
H1802 H 0.20394 0.24015 0.2357 0.0
H1803 H 0.18751 0.24723 0.25247 0.0
H1804 H 0.19882 0.21697 0.19037 0.0
H1805 H 0.21574 0.21409 0.33295 0.0
H1806 H 0.19766 0.20573 0.32846 0.0
H1807 H 0.20757 0.22374 0.32188 0.0
C1808 C 0.17083 0.21509 0.28707 0.0
C1809 C 0.1733 0.22813 0.27826 0.0
C1810 C 0.18022 0.21116 0.27784 0.0
C1811 C 0.19228 0.22015 0.25959 0.0
C1812 C 0.19474 0.23313 0.25018 0.0
H1813 H 0.24846 0.18904 0.22402 0.0
H1814 H 0.24095 0.20532 0.23859 0.0
C1815 C 0.18535 0.23713 0.25971 0.0
C1816 C 0.20186 0.21556 0.24903 0.0
H1817 H 0.21918 0.20108 0.28576 0.0
C1818 C 0.20353 0.21376 0.21115 0.0
C1819 C 0.20817 0.21158 0.27617 0.0
C1820 C 0.20733 0.214 0.31715 0.0
C1821 C 0.2105 0.20714 0.19982 0.0
C1822 C 0.21576 0.20209 0.22714 0.0
C1823 C 0.215 0.20482 0.26488 0.0
C1824 C 0.22066 0.19267 0.21739 0.0
C1825 C 0.21177 0.2052 0.15875 0.0
C1826 C 0.21167 0.18012 0.20136 0.0
C1827 C 0.21586 0.17084 0.19331 0.0
C1828 C 0.22915 0.17388 0.20122 0.0
C1829 C 0.23817 0.18643 0.21754 0.0
C1830 C 0.23391 0.19573 0.22579 0.0
H1831 H 0.21123 0.21309 0.14194 0.0
H1832 H 0.22143 0.20547 0.15244 0.0
H1833 H 0.20329 0.1952 0.15002 0.0
H1834 H 0.2013 0.17742 0.1955 0.0
H1835 H 0.20864 0.16125 0.18088 0.0
H1836 H 0.79374 0.95183 0.2894 0.0
H1837 H 0.80135 0.97544 0.27537 0.0
H1838 H 0.75996 0.96595 0.26217 0.0
H1839 H 0.75218 0.94205 0.27582 0.0
H1840 H 0.77746 0.98293 0.20603 0.0
H1841 H 0.79889 0.00228 0.34568 0.0
H1842 H 0.80503 0.99185 0.32645 0.0
H1843 H 0.78729 0.98456 0.33679 0.0
C1844 C 0.78621 0.95472 0.28355 0.0
C1845 C 0.77234 0.94509 0.284 0.0
C1846 C 0.79059 0.96825 0.27578 0.0
C1847 C 0.78121 0.9725 0.26867 0.0
C1848 C 0.76735 0.96288 0.26805 0.0
H1849 H 0.81005 0.05875 0.21495 0.0
H1850 H 0.79416 0.03544 0.23515 0.0
C1851 C 0.76293 0.94926 0.27577 0.0
C1852 C 0.78613 0.98698 0.26109 0.0
H1853 H 0.80772 0.01851 0.29526 0.0
C1854 C 0.78379 0.99074 0.22583 0.0
C1855 C 0.79427 0.99714 0.28714 0.0
C1856 C 0.7964 0.99376 0.32627 0.0
C1857 C 0.79028 0.00439 0.21499 0.0
C1858 C 0.79924 0.01441 0.24006 0.0
C1859 C 0.80086 0.01074 0.2761 0.0
C1860 C 0.80844 0.02842 0.22771 0.0
C1861 C 0.78822 0.00804 0.17614 0.0
C1862 C 0.82164 0.03207 0.21716 0.0
C1863 C 0.83066 0.04523 0.20565 0.0
C1864 C 0.82666 0.05505 0.20467 0.0
C1865 C 0.81341 0.0514 0.21548 0.0
C1866 C 0.80434 0.03813 0.22691 0.0
H1867 H 0.78042 0.99913 0.16051 0.0
H1868 H 0.78512 0.01583 0.17744 0.0
H1869 H 0.79791 0.01247 0.16056 0.0
H1870 H 0.82496 0.02468 0.21775 0.0
H1871 H 0.84078 0.04771 0.19758 0.0
H1872 H 0.94174 0.75077 0.20968 0.0
H1873 H 0.96515 0.75814 0.22867 0.0
H1874 H 0.97476 0.79975 0.22373 0.0
H1875 H 0.95162 0.79258 0.20454 0.0
H1876 H 0.99142 0.78212 0.18277 0.0
H1877 H 0.98539 0.78925 0.33343 0.0
H1878 H 0.97169 0.77679 0.30514 0.0
H1879 H 0.97675 0.79436 0.30096 0.0
C1880 C 0.94885 0.76148 0.21282 0.0
C1881 C 0.94486 0.7711 0.20561 0.0
C1882 C 0.96218 0.76565 0.22353 0.0
C1883 C 0.97158 0.77946 0.22756 0.0
C1884 C 0.96759 0.78904 0.22077 0.0
H1885 H 0.04802 0.84099 0.28582 0.0
H1886 H 0.02454 0.82467 0.27138 0.0
C1887 C 0.95437 0.78492 0.2098 0.0
C1888 C 0.98573 0.78421 0.23842 0.0
H1889 H 0.00782 0.80018 0.3096 0.0
C1890 C 0.99506 0.78579 0.21067 0.0
C1891 C 0.9903 0.78895 0.27481 0.0
C1892 C 0.98054 0.78721 0.30553 0.0
C1893 C 0.00904 0.79288 0.21785 0.0
C1894 C 0.01367 0.79836 0.25378 0.0
C1895 C 0.00423 0.79599 0.28206 0.0
C1896 C 0.02811 0.80802 0.26145 0.0
C1897 C 0.01876 0.79527 0.18644 0.0
C1898 C 0.03796 0.80408 0.26041 0.0
C1899 C 0.05151 0.81347 0.26852 0.0
C1900 C 0.05533 0.82688 0.27799 0.0
C1901 C 0.04543 0.83075 0.27869 0.0
C1902 C 0.03198 0.82142 0.27054 0.0
H1903 H 0.01354 0.79188 0.15914 0.0
H1904 H 0.02647 0.80618 0.1845 0.0
H1905 H 0.02414 0.78961 0.19201 0.0
H1906 H 0.03514 0.79373 0.25388 0.0
H1907 H 0.05891 0.81019 0.26795 0.0
H1908 H 0.81691 0.75705 0.74301 0.0
H1909 H 0.80258 0.76644 0.76177 0.0
H1910 H 0.82341 0.7991 0.68322 0.0
H1911 H 0.83806 0.79018 0.66592 0.0
H1912 H 0.82205 0.80875 0.74675 0.0
H1913 H 0.77089 0.76624 0.71357 0.0
H1914 H 0.78002 0.76158 0.74525 0.0
H1915 H 0.78612 0.76657 0.69841 0.0
C1916 C 0.81832 0.76618 0.72967 0.0
C1917 C 0.82864 0.77295 0.70323 0.0
C1918 C 0.81005 0.77147 0.74012 0.0
C1919 C 0.81177 0.7834 0.72356 0.0
C1920 C 0.82188 0.78991 0.69647 0.0
H1921 H 0.76041 0.81957 0.73613 0.0
H1922 H 0.77056 0.80565 0.71977 0.0
C1923 C 0.83027 0.78481 0.68663 0.0
C1924 C 0.80386 0.78981 0.73601 0.0
H1925 H 0.77189 0.78462 0.74786 0.0
C1926 C 0.81108 0.80345 0.7468 0.0
C1927 C 0.78954 0.78297 0.73574 0.0
C1928 C 0.78118 0.76858 0.72226 0.0
C1929 C 0.80445 0.8105 0.75696 0.0
C1930 C 0.79013 0.80355 0.75821 0.0
C1931 C 0.78286 0.78989 0.74741 0.0
C1932 C 0.78266 0.81048 0.76997 0.0
C1933 C 0.81296 0.82547 0.76499 0.0
C1934 C 0.78564 0.81733 0.80419 0.0
C1935 C 0.7802 0.82554 0.81293 0.0
C1936 C 0.77123 0.82661 0.78831 0.0
C1937 C 0.76734 0.8189 0.75546 0.0
C1938 C 0.77311 0.81096 0.74618 0.0
H1939 H 0.82306 0.82993 0.7515 0.0
H1940 H 0.80792 0.83107 0.75512 0.0
H1941 H 0.81462 0.82702 0.79547 0.0
H1942 H 0.79257 0.81672 0.82362 0.0
H1943 H 0.78315 0.83122 0.83876 0.0
H1944 H 0.24801 0.05988 0.71913 0.0
H1945 H 0.24089 0.03618 0.73346 0.0
H1946 H 0.19998 0.02435 0.70195 0.0
H1947 H 0.20695 0.0478 0.68751 0.0
H1948 H 0.22071 0.01858 0.78479 0.0
H1949 H 0.20821 0.99876 0.64081 0.0
H1950 H 0.21868 0.01658 0.65101 0.0
H1951 H 0.20054 0.00862 0.65333 0.0
C1952 C 0.23751 0.05221 0.71525 0.0
C1953 C 0.22805 0.05569 0.70203 0.0
C1954 C 0.23347 0.0387 0.72335 0.0
C1955 C 0.21998 0.02851 0.71797 0.0
C1956 C 0.21052 0.03202 0.7054 0.0
H1957 H 0.16358 0.95409 0.8056 0.0
H1958 H 0.17973 0.97744 0.78914 0.0
C1959 C 0.2145 0.04546 0.69743 0.0
C1960 C 0.21543 0.0142 0.72684 0.0
H1961 H 0.19759 0.9824 0.69018 0.0
C1962 C 0.21591 0.01067 0.764 0.0
C1963 C 0.20938 0.00391 0.69956 0.0
C1964 C 0.20928 0.00715 0.65887 0.0
C1965 C 0.20956 0.99706 0.77506 0.0
C1966 C 0.20249 0.9868 0.7483 0.0
C1967 C 0.20291 0.99031 0.7107 0.0
C1968 C 0.19326 0.97261 0.75941 0.0
C1969 C 0.21002 0.99376 0.81551 0.0
C1970 C 0.19541 0.96211 0.74755 0.0
C1971 C 0.18616 0.94867 0.75704 0.0
C1972 C 0.17454 0.94556 0.77793 0.0
C1973 C 0.17243 0.95613 0.78947 0.0
C1974 C 0.1817 0.9695 0.78034 0.0
H1975 H 0.21884 0.00213 0.83003 0.0
H1976 H 0.20069 0.99218 0.8296 0.0
H1977 H 0.21054 0.98434 0.81842 0.0
H1978 H 0.20422 0.96433 0.73099 0.0
H1979 H 0.18802 0.94072 0.74768 0.0
H1980 H 0.95084 0.15741 0.69521 0.0
H1981 H 0.9745 0.17324 0.70925 0.0
H1982 H 0.96509 0.20503 0.7269 0.0
H1983 H 0.94114 0.18904 0.71357 0.0
H1984 H 0.99169 0.19671 0.67148 0.0
H1985 H 0.98671 0.20746 0.8203 0.0
H1986 H 0.97323 0.19344 0.79547 0.0
H1987 H 0.97664 0.21038 0.78715 0.0
C1988 C 0.95375 0.16774 0.70232 0.0
C1989 C 0.94412 0.17198 0.70333 0.0
C1990 C 0.96729 0.17679 0.71026 0.0
C1991 C 0.97155 0.19029 0.71931 0.0
C1992 C 0.96198 0.19459 0.72056 0.0
H1993 H 0.05778 0.24804 0.77016 0.0
H1994 H 0.0343 0.24013 0.75078 0.0
C1995 C 0.94833 0.18547 0.71283 0.0
C1996 C 0.98611 0.1997 0.72654 0.0
H1997 H 0.00873 0.21718 0.79583 0.0
C1998 C 0.99541 0.20137 0.69851 0.0
C1999 C 0.99094 0.20582 0.76176 0.0
C2000 C 0.98141 0.20416 0.79308 0.0
C2001 C 0.00937 0.20839 0.70533 0.0
C2002 C 0.01414 0.21388 0.74104 0.0
C2003 C 0.00496 0.21295 0.76845 0.0
C2004 C 0.02836 0.21893 0.75176 0.0
C2005 C 0.01895 0.20943 0.67488 0.0
C2006 C 0.03266 0.20959 0.75867 0.0
C2007 C 0.04592 0.21403 0.76994 0.0
C2008 C 0.05516 0.2279 0.77429 0.0
C2009 C 0.05088 0.23729 0.76688 0.0
C2010 C 0.03751 0.23281 0.75594 0.0
H2011 H 0.01404 0.20712 0.64704 0.0
H2012 H 0.028 0.21973 0.67429 0.0
H2013 H 0.02245 0.20211 0.6805 0.0
H2014 H 0.02569 0.19884 0.75569 0.0
H2015 H 0.0489 0.20655 0.77534 0.0
H2016 H 0.82775 0.54074 0.62949 0.0
H2017 H 0.84415 0.53386 0.61332 0.0
H2018 H 0.87213 0.57436 0.576 0.0
H2019 H 0.85562 0.58141 0.59213 0.0
H2020 H 0.86856 0.55348 0.52573 0.0
H2021 H 0.87945 0.54328 0.66849 0.0
H2022 H 0.86164 0.53533 0.65926 0.0
H2023 H 0.87176 0.55351 0.65924 0.0
C2024 C 0.83739 0.54824 0.61797 0.0
C2025 C 0.8404 0.56164 0.61219 0.0
C2026 C 0.8468 0.5443 0.60901 0.0
C2027 C 0.85945 0.55367 0.5942 0.0
C2028 C 0.86247 0.56703 0.58782 0.0
H2029 H 0.91438 0.52105 0.55839 0.0
H2030 H 0.90739 0.53756 0.57518 0.0
C2031 C 0.85303 0.57102 0.59698 0.0
C2032 C 0.86908 0.5491 0.58387 0.0
H2033 H 0.88396 0.53186 0.6186 0.0
C2034 C 0.87219 0.54902 0.54609 0.0
C2035 C 0.87401 0.54349 0.61053 0.0
C2036 C 0.87166 0.54402 0.6517 0.0
C2037 C 0.8792 0.54252 0.534 0.0
C2038 C 0.88304 0.53585 0.56036 0.0
C2039 C 0.88087 0.53686 0.59839 0.0
C2040 C 0.88778 0.52647 0.54873 0.0
C2041 C 0.88202 0.54242 0.49299 0.0
C2042 C 0.87899 0.51474 0.52882 0.0
C2043 C 0.88286 0.5053 0.51961 0.0
C2044 C 0.89563 0.50739 0.53008 0.0
C2045 C 0.9045 0.5192 0.54985 0.0
C2046 C 0.90054 0.52863 0.5594 0.0
H2047 H 0.8823 0.55114 0.4784 0.0
H2048 H 0.89178 0.5427 0.48836 0.0
H2049 H 0.87383 0.533 0.4803 0.0
H2050 H 0.86899 0.51276 0.521 0.0
H2051 H 0.8758 0.49632 0.50437 0.0
H2052 H 0.41789 0.27502 0.60369 0.0
H2053 H 0.42572 0.29852 0.58467 0.0
H2054 H 0.46712 0.30795 0.5965 0.0
H2055 H 0.45948 0.28472 0.61572 0.0
H2056 H 0.44715 0.32436 0.6307 0.0
H2057 H 0.46083 0.3191 0.48556 0.0
H2058 H 0.448 0.305 0.5119 0.0
H2059 H 0.46559 0.31113 0.52105 0.0
C2060 C 0.42865 0.28212 0.60214 0.0
C2061 C 0.43808 0.27804 0.61117 0.0
C2062 C 0.43308 0.2955 0.59139 0.0
C2063 C 0.44697 0.30486 0.5891 0.0
C2064 C 0.45635 0.3008 0.59799 0.0
H2065 H 0.50896 0.38253 0.53895 0.0
H2066 H 0.49301 0.35893 0.55327 0.0
C2067 C 0.45197 0.28753 0.609 0.0
C2068 C 0.45196 0.31901 0.57772 0.0
H2069 H 0.47057 0.34149 0.50968 0.0
C2070 C 0.45202 0.32814 0.60396 0.0
C2071 C 0.45826 0.32379 0.54283 0.0
C2072 C 0.45812 0.31426 0.51348 0.0
C2073 C 0.45908 0.34215 0.59711 0.0
C2074 C 0.46607 0.347 0.56298 0.0
C2075 C 0.46526 0.33774 0.5359 0.0
C2076 C 0.47553 0.36157 0.55626 0.0
C2077 C 0.45975 0.35169 0.62724 0.0
C2078 C 0.47102 0.37094 0.55361 0.0
C2079 C 0.48019 0.38456 0.54563 0.0
C2080 C 0.49396 0.38891 0.53987 0.0
C2081 C 0.49842 0.3795 0.54311 0.0
C2082 C 0.48931 0.36599 0.55122 0.0
H2083 H 0.4555 0.34639 0.65405 0.0
H2084 H 0.47038 0.3598 0.6319 0.0
H2085 H 0.45389 0.35656 0.61838 0.0
H2086 H 0.46039 0.36769 0.55691 0.0
H2087 H 0.47646 0.39158 0.54307 0.0
H2088 H 0.6094 0.08594 0.54907 0.0
H2089 H 0.63279 0.09433 0.57015 0.0
H2090 H 0.64061 0.13534 0.56326 0.0
H2091 H 0.61749 0.12715 0.54194 0.0
H2092 H 0.65833 0.11657 0.52715 0.0
H2093 H 0.65185 0.12874 0.67291 0.0
H2094 H 0.63804 0.11599 0.64557 0.0
H2095 H 0.64392 0.13359 0.63754 0.0
C2096 C 0.61611 0.09673 0.55225 0.0
C2097 C 0.61163 0.10589 0.54385 0.0
C2098 C 0.62943 0.10149 0.56418 0.0
C2099 C 0.63833 0.11543 0.5684 0.0
C2100 C 0.63383 0.12454 0.56037 0.0
H2101 H 0.71599 0.17753 0.62528 0.0
H2102 H 0.69232 0.16179 0.61091 0.0
C2103 C 0.62063 0.11983 0.54812 0.0
C2104 C 0.65249 0.12075 0.58029 0.0
H2105 H 0.67441 0.13893 0.64994 0.0
C2106 C 0.66189 0.12123 0.55424 0.0
C2107 C 0.65699 0.1268 0.61559 0.0
C2108 C 0.64719 0.12621 0.64474 0.0
C2109 C 0.67584 0.12842 0.56178 0.0
C2110 C 0.68041 0.13505 0.59652 0.0
C2111 C 0.6709 0.13389 0.62327 0.0
C2112 C 0.69494 0.14438 0.60442 0.0
C2113 C 0.6856 0.12955 0.53173 0.0
C2114 C 0.70432 0.13984 0.60546 0.0
C2115 C 0.71797 0.14889 0.61342 0.0
C2116 C 0.72237 0.16258 0.62083 0.0
C2117 C 0.71293 0.16705 0.61975 0.0
C2118 C 0.69938 0.15805 0.61162 0.0
H2119 H 0.68054 0.12598 0.50428 0.0
H2120 H 0.69393 0.14018 0.52881 0.0
H2121 H 0.69015 0.12328 0.53945 0.0
H2122 H 0.70107 0.12928 0.60061 0.0
H2123 H 0.725 0.14514 0.61431 0.0
H2124 H 0.41936 0.14431 0.09943 0.0
H2125 H 0.42695 0.12802 0.08614 0.0
H2126 H 0.46769 0.15797 0.11656 0.0
H2127 H 0.46026 0.17417 0.12998 0.0
H2128 H 0.44717 0.13086 0.03474 0.0
H2129 H 0.46052 0.12477 0.17889 0.0
H2130 H 0.4497 0.1317 0.16853 0.0
H2131 H 0.4678 0.1422 0.16558 0.0
C2132 C 0.42992 0.14739 0.10332 0.0
C2133 C 0.4392 0.1605 0.11589 0.0
C2134 C 0.43422 0.13808 0.09582 0.0
C2135 C 0.44781 0.14172 0.10116 0.0
C2136 C 0.45709 0.15485 0.11316 0.0
H2137 H 0.50569 0.1249 0.01828 0.0
H2138 H 0.48981 0.1323 0.03627 0.0
C2139 C 0.45284 0.16413 0.12053 0.0
C2140 C 0.45265 0.13216 0.09263 0.0
H2141 H 0.47114 0.11897 0.12961 0.0
C2142 C 0.45214 0.12799 0.0556 0.0
C2143 C 0.45899 0.1283 0.12 0.0
C2144 C 0.45918 0.13186 0.16056 0.0
C2145 C 0.45871 0.12092 0.04477 0.0
C2146 C 0.46595 0.11803 0.07162 0.0
C2147 C 0.46564 0.12132 0.10908 0.0
C2148 C 0.47522 0.11313 0.06054 0.0
C2149 C 0.45836 0.11706 0.00444 0.0
C2150 C 0.47231 0.09993 0.06879 0.0
C2151 C 0.48138 0.09561 0.05835 0.0
C2152 C 0.49353 0.10452 0.04002 0.0
C2153 C 0.49643 0.11778 0.03233 0.0
C2154 C 0.48734 0.12202 0.04243 0.0
H2155 H 0.45007 0.11732 0.98894 0.0
H2156 H 0.46811 0.12428 0.99103 0.0
H2157 H 0.45705 0.10677 0.00209 0.0
H2158 H 0.46302 0.09299 0.08302 0.0
H2159 H 0.47889 0.08534 0.06468 0.0
H2160 H 0.90895 0.3937 0.07602 0.0
H2161 H 0.89968 0.36996 0.09433 0.0
H2162 H 0.87175 0.35746 0.00193 0.0
H2163 H 0.88042 0.38108 0.98512 0.0
H2164 H 0.85874 0.34595 0.06083 0.0
H2165 H 0.90349 0.33921 0.0572 0.0
H2166 H 0.90598 0.3528 0.08736 0.0
H2167 H 0.90376 0.35397 0.03808 0.0
C2168 C 0.90096 0.38583 0.05945 0.0
C2169 C 0.89532 0.38917 0.02937 0.0
C2170 C 0.89574 0.37226 0.0697 0.0
C2171 C 0.88509 0.36185 0.04927 0.0
C2172 C 0.87991 0.36527 0.01824 0.0
H2173 H 0.85081 0.27461 0.07625 0.0
H2174 H 0.86464 0.29837 0.057 0.0
C2175 C 0.88487 0.37877 0.00864 0.0
C2176 C 0.87836 0.34753 0.06193 0.0
H2177 H 0.88375 0.32176 0.08759 0.0
C2178 C 0.86425 0.34067 0.06635 0.0
C2179 C 0.88547 0.34053 0.06882 0.0
C2180 C 0.90049 0.34696 0.06224 0.0
C2181 C 0.85704 0.3271 0.07743 0.0
C2182 C 0.8642 0.3203 0.08621 0.0
C2183 C 0.8783 0.32705 0.08143 0.0
C2184 C 0.85708 0.30615 0.10011 0.0
C2185 C 0.84178 0.32015 0.07863 0.0
C2186 C 0.84865 0.30271 0.13149 0.0
C2187 C 0.84056 0.2892 0.14186 0.0
C2188 C 0.84107 0.2789 0.12181 0.0
C2189 C 0.85022 0.28238 0.09206 0.0
C2190 C 0.85811 0.29593 0.08111 0.0
H2191 H 0.83787 0.3252 0.06004 0.0
H2192 H 0.83708 0.30936 0.07022 0.0
H2193 H 0.8385 0.32062 0.10742 0.0
H2194 H 0.84803 0.31045 0.14737 0.0
H2195 H 0.83377 0.28679 0.16534 0.0
H2196 H 0.71489 0.54002 0.12293 0.0
H2197 H 0.69123 0.53241 0.10944 0.0
H2198 H 0.70121 0.57359 0.08844 0.0
H2199 H 0.72514 0.58135 0.10144 0.0
H2200 H 0.67429 0.53995 0.14634 0.0
H2201 H 0.67956 0.55296 -0.00473 0.0
H2202 H 0.69274 0.55222 0.0211 0.0
H2203 H 0.68999 0.56626 0.0273 0.0
C2204 C 0.71211 0.54749 0.11526 0.0
C2205 C 0.72189 0.56129 0.11317 0.0
C2206 C 0.69856 0.54311 0.10767 0.0
C2207 C 0.69448 0.55241 0.09781 0.0
C2208 C 0.70419 0.56623 0.09555 0.0
H2209 H 0.60691 0.52187 0.06069 0.0
H2210 H 0.63046 0.53783 0.0787 0.0
C2211 C 0.71783 0.57064 0.10305 0.0
C2212 C 0.67997 0.54738 0.09027 0.0
H2213 H 0.65752 0.54094 0.01955 0.0
C2214 C 0.67061 0.5404 0.11881 0.0
C2215 C 0.67523 0.54798 0.0543 0.0
C2216 C 0.68485 0.55518 0.02255 0.0
C2217 C 0.65665 0.53344 0.11184 0.0
C2218 C 0.65198 0.53349 0.07552 0.0
C2219 C 0.66124 0.54104 0.04742 0.0
C2220 C 0.63778 0.52415 0.06506 0.0
C2221 C 0.64697 0.5254 0.14267 0.0
C2222 C 0.63423 0.51127 0.0517 0.0
C2223 C 0.62091 0.5022 0.04151 0.0
C2224 C 0.61087 0.50585 0.04449 0.0
C2225 C 0.61443 0.51877 0.05816 0.0
C2226 C 0.62784 0.52789 0.06835 0.0
H2227 H 0.65209 0.52736 0.17016 0.0
H2228 H 0.63875 0.5279 0.14445 0.0
H2229 H 0.64221 0.51444 0.13631 0.0
H2230 H 0.6418 0.50824 0.04916 0.0
H2231 H 0.61851 0.49233 0.03119 0.0
H2232 H 0.52201 0.91524 0.9327 0.0
H2233 H 0.5381 0.90789 0.91402 0.0
H2234 H 0.50709 0.86626 0.92922 0.0
H2235 H 0.49109 0.87341 0.94807 0.0
H2236 H 0.54262 0.88612 0.96302 0.0
H2237 H 0.525 0.87339 0.81642 0.0
H2238 H 0.5239 0.88638 0.8425 0.0
H2239 H 0.51213 0.86886 0.85145 0.0
C2240 C 0.51864 0.90453 0.93193 0.0
C2241 C 0.50529 0.89489 0.94183 0.0
C2242 C 0.52783 0.90037 0.9214 0.0
C2243 C 0.52371 0.88656 0.92027 0.0
C2244 C 0.51041 0.87697 0.92992 0.0
H2245 H 0.53995 0.82511 0.86927 0.0
H2246 H 0.53219 0.84099 0.88341 0.0
C2247 C 0.5013 0.88108 0.94068 0.0
C2248 C 0.53309 0.88182 0.90918 0.0
H2249 H 0.53771 0.86382 0.84076 0.0
C2250 C 0.54186 0.88152 0.93603 0.0
C2251 C 0.53196 0.87583 0.874 0.0
C2252 C 0.52282 0.87616 0.8442 0.0
C2253 C 0.54889 0.87452 0.92936 0.0
C2254 C 0.54714 0.86785 0.89484 0.0
C2255 C 0.53899 0.86891 0.86725 0.0
C2256 C 0.55228 0.85842 0.88817 0.0
C2257 C 0.5574 0.87357 0.96004 0.0
C2258 C 0.5662 0.86293 0.88658 0.0
C2259 C 0.5707 0.8538 0.8787 0.0
C2260 C 0.56133 0.84008 0.872 0.0
C2261 C 0.54743 0.83561 0.87417 0.0
C2262 C 0.54297 0.84469 0.88218 0.0
H2263 H 0.55609 0.87762 0.9869 0.0
H2264 H 0.5548 0.8629 0.96421 0.0
H2265 H 0.56824 0.87947 0.95207 0.0
H2266 H 0.57355 0.87353 0.89064 0.0
H2267 H 0.58147 0.85754 0.87698 0.0
H2268 H 0.12547 0.62033 0.9682 0.0
H2269 H 0.13283 0.64366 0.95084 0.0
H2270 H 0.09393 0.63095 0.90087 0.0
H2271 H 0.08638 0.60739 0.91842 0.0
H2272 H 0.11768 0.6486 0.85564 0.0
H2273 H 0.11996 0.66889 -0.0026 0.0
H2274 H 0.12799 0.65882 -0.00617 0.0
H2275 H 0.11005 0.65107 0.98645 0.0
C2276 C 0.11844 0.62246 0.95362 0.0
C2277 C 0.10533 0.61202 0.94474 0.0
C2278 C 0.12264 0.63582 0.94394 0.0
C2279 C 0.11385 0.63903 0.92514 0.0
C2280 C 0.1008 0.62865 0.91573 0.0
H2281 H 0.14504 0.72613 0.88754 0.0
H2282 H 0.12886 0.70231 0.90175 0.0
C2283 C 0.09652 0.61523 0.92573 0.0
C2284 C 0.11872 0.65322 0.91413 0.0
H2285 H 0.13311 0.68513 0.95017 0.0
C2286 C 0.12081 0.65658 0.8762 0.0
C2287 C 0.1226 0.66358 0.94099 0.0
C2288 C 0.11992 0.66043 0.98195 0.0
C2289 C 0.12758 0.67015 0.86462 0.0
C2290 C 0.13246 0.68054 0.89173 0.0
C2291 C 0.12949 0.67714 0.92945 0.0
C2292 C 0.14183 0.69487 0.88189 0.0
C2293 C 0.1298 0.67325 0.82354 0.0
C2294 C 0.15452 0.69854 0.86665 0.0
C2295 C 0.16376 0.71206 0.85881 0.0
C2296 C 0.16052 0.72221 0.86614 0.0
C2297 C 0.14781 0.71853 0.88152 0.0
C2298 C 0.13856 0.70495 0.88958 0.0
H2299 H 0.12208 0.66474 0.80655 0.0
H2300 H 0.12949 0.68258 0.81663 0.0
H2301 H 0.13989 0.67485 0.8156 0.0
H2302 H 0.15737 0.69095 0.86131 0.0
H2303 H 0.17348 0.71454 0.84706 0.0
H2304 H 0.27481 0.41856 0.88084 0.0
H2305 H 0.29834 0.42651 0.89988 0.0
H2306 H 0.30726 0.46784 0.891 0.0
H2307 H 0.28401 0.46008 0.87172 0.0
H2308 H 0.32419 0.44965 0.85303 0.0
H2309 H 0.31849 0.45959 0.00174 0.0
H2310 H 0.30469 0.44673 0.9746 0.0
H2311 H 0.30991 0.46424 0.96781 0.0
C2312 C 0.2818 0.42933 0.88311 0.0
C2313 C 0.27759 0.4387 0.87478 0.0
C2314 C 0.29519 0.43383 0.89386 0.0
C2315 C 0.30443 0.44773 0.89685 0.0
C2316 C 0.30022 0.45706 0.88889 0.0
H2317 H 0.38194 0.5093 0.95373 0.0
H2318 H 0.35827 0.49349 0.93961 0.0
C2319 C 0.28694 0.45261 0.87785 0.0
C2320 C 0.31863 0.45279 0.9078 0.0
H2321 H 0.34088 0.46986 0.97783 0.0
C2322 C 0.32789 0.45382 0.88052 0.0
C2323 C 0.32329 0.45822 0.94362 0.0
C2324 C 0.31361 0.45711 0.97386 0.0
C2325 C 0.34188 0.46094 0.88751 0.0
C2326 C 0.3466 0.46698 0.92287 0.0
C2327 C 0.33723 0.46526 0.95073 0.0
C2328 C 0.36114 0.47635 0.9304 0.0
C2329 C 0.35151 0.46268 0.85639 0.0
C2330 C 0.37065 0.47197 0.92974 0.0
C2331 C 0.38429 0.48107 0.93759 0.0
C2332 C 0.38856 0.49462 0.94653 0.0
C2333 C 0.37899 0.49893 0.94701 0.0
C2334 C 0.36544 0.4899 0.93903 0.0
H2335 H 0.34628 0.45935 0.82908 0.0
H2336 H 0.35963 0.47343 0.85409 0.0
H2337 H 0.35636 0.45656 0.86252 0.0
H2338 H 0.3675 0.46151 0.92369 0.0
H2339 H 0.39144 0.47744 0.93724 0.0
H2340 H 0.0851 0.47656 0.43168 0.0
H2341 H 0.09309 0.46064 0.41771 0.0
H2342 H 0.1339 0.49152 0.44413 0.0
H2343 H 0.12607 0.50735 0.45829 0.0
H2344 H 0.11302 0.46332 0.36501 0.0
H2345 H 0.12796 0.45929 0.50913 0.0
H2346 H 0.1168 0.46581 0.49865 0.0
H2347 H 0.13483 0.4765 0.49419 0.0
C2348 C 0.09577 0.47993 0.43446 0.0
C2349 C 0.10494 0.49318 0.44631 0.0
C2350 C 0.1003 0.47083 0.42656 0.0
C2351 C 0.11403 0.47484 0.43071 0.0
C2352 C 0.12321 0.48814 0.44167 0.0
H2353 H 0.17302 0.45853 0.35465 0.0
H2354 H 0.15711 0.46597 0.3721 0.0
C2355 C 0.11872 0.4972 0.4495 0.0
C2356 C 0.11905 0.46539 0.4226 0.0
H2357 H 0.13819 0.45301 0.45999 0.0
C2358 C 0.11826 0.4608 0.38592 0.0
C2359 C 0.12575 0.462 0.45005 0.0
C2360 C 0.12628 0.46604 0.4903 0.0
C2361 C 0.12487 0.45372 0.37546 0.0
C2362 C 0.13239 0.45123 0.40233 0.0
C2363 C 0.13244 0.45502 0.43947 0.0
C2364 C 0.14164 0.44631 0.39143 0.0
C2365 C 0.12433 0.44946 0.33544 0.0
C2366 C 0.13818 0.43279 0.39692 0.0
C2367 C 0.14726 0.42845 0.38683 0.0
C2368 C 0.15994 0.43764 0.37147 0.0
C2369 C 0.16334 0.45119 0.36637 0.0
C2370 C 0.15426 0.45547 0.37622 0.0
H2371 H 0.11643 0.45022 0.31932 0.0
H2372 H 0.13429 0.45605 0.32209 0.0
H2373 H 0.1223 0.43888 0.33404 0.0
H2374 H 0.12847 0.42562 0.40883 0.0
H2375 H 0.14437 0.41795 0.39106 0.0
H2376 H 0.5223 0.6077 0.42473 0.0
H2377 H 0.53859 0.6314 0.40955 0.0
H2378 H 0.51138 0.64358 0.45535 0.0
H2379 H 0.49517 0.62011 0.47055 0.0
H2380 H 0.53391 0.64882 0.36304 0.0
H2381 H 0.54782 0.66933 0.50604 0.0
H2382 H 0.53999 0.65146 0.49585 0.0
H2383 H 0.52984 0.65943 0.4995 0.0
C2384 C 0.51985 0.61545 0.43173 0.0
C2385 C 0.50747 0.61205 0.44887 0.0
C2386 C 0.52916 0.62896 0.4231 0.0
C2387 C 0.52628 0.63924 0.43199 0.0
C2388 C 0.51393 0.63583 0.44903 0.0
H2389 H 0.54204 0.71371 0.34705 0.0
H2390 H 0.53491 0.69035 0.36329 0.0
C2391 C 0.50462 0.62239 0.45741 0.0
C2392 C 0.53568 0.6535 0.42163 0.0
H2393 H 0.55142 0.68547 0.45759 0.0
C2394 C 0.53799 0.65684 0.38371 0.0
C2395 C 0.54118 0.66392 0.44865 0.0
C2396 C 0.53971 0.66086 0.48981 0.0
C2397 C 0.5448 0.67038 0.37203 0.0
C2398 C 0.54924 0.68079 0.39899 0.0
C2399 C 0.54785 0.67747 0.43696 0.0
C2400 C 0.554 0.695 0.38832 0.0
C2401 C 0.5468 0.67345 0.3309 0.0
C2402 C 0.56702 0.70541 0.39783 0.0
C2403 C 0.57115 0.71886 0.3886 0.0
C2404 C 0.56223 0.72206 0.3702 0.0
C2405 C 0.54917 0.71159 0.36113 0.0
C2406 C 0.54511 0.69821 0.37013 0.0
H2407 H 0.54675 0.66505 0.3151 0.0
H2408 H 0.53839 0.67473 0.32022 0.0
H2409 H 0.55647 0.68293 0.32541 0.0
H2410 H 0.57398 0.70313 0.41226 0.0
H2411 H 0.58127 0.72673 0.39603 0.0
H2412 H 0.38204 0.87426 0.44765 0.0
H2413 H 0.35897 0.8671 0.42809 0.0
H2414 H 0.36959 0.90873 0.413 0.0
H2415 H 0.39297 0.9161 0.43246 0.0
H2416 H 0.3427 0.8849 0.46319 0.0
H2417 H 0.34908 0.87671 0.31341 0.0
H2418 H 0.35794 0.87237 0.3473 0.0
H2419 H 0.3626 0.88974 0.34091 0.0
C2420 C 0.37954 0.88194 0.44016 0.0
C2421 C 0.38933 0.89576 0.44162 0.0
C2422 C 0.36634 0.87781 0.42899 0.0
C2423 C 0.36265 0.8874 0.41921 0.0
C2424 C 0.37233 0.90122 0.4205 0.0
H2425 H 0.27558 0.8575 0.37896 0.0
H2426 H 0.29947 0.87361 0.39238 0.0
C2427 C 0.38564 0.90538 0.4315 0.0
C2428 C 0.34855 0.88264 0.4079 0.0
H2429 H 0.32663 0.86646 0.33648 0.0
C2430 C 0.33914 0.88115 0.4353 0.0
C2431 C 0.34406 0.87772 0.37158 0.0
C2432 C 0.3539 0.87923 0.34136 0.0
C2433 C 0.32518 0.87407 0.42783 0.0
C2434 C 0.32063 0.86852 0.3919 0.0
C2435 C 0.33015 0.87072 0.36399 0.0
C2436 C 0.30615 0.85909 0.38382 0.0
C2437 C 0.3154 0.87181 0.45901 0.0
C2438 C 0.30203 0.84567 0.37408 0.0
C2439 C 0.2885 0.83653 0.3662 0.0
C2440 C 0.27875 0.8406 0.36787 0.0
C2441 C 0.28285 0.85405 0.37768 0.0
C2442 C 0.29648 0.86325 0.38545 0.0
H2443 H 0.32053 0.87486 0.48652 0.0
H2444 H 0.31044 0.87789 0.45367 0.0
H2445 H 0.30738 0.861 0.46038 0.0
H2446 H 0.30932 0.84224 0.37274 0.0
H2447 H 0.28569 0.82626 0.35876 0.0
H2448 H 0.28239 0.16681 0.17834 0.0
H2449 H 0.30677 0.17533 0.17666 0.0
H2450 H 0.29934 0.13546 0.14844 0.0
H2451 H 0.27502 0.12687 0.1495 0.0
H2452 H 0.32188 0.16695 0.21904 0.0
H2453 H 0.32605 0.15919 0.068 0.0
H2454 H 0.31134 0.15877 0.08805 0.0
H2455 H 0.31364 0.14435 0.09208 0.0
C2456 C 0.28592 0.15985 0.1716 0.0
C2457 C 0.2767 0.14615 0.16385 0.0
C2458 C 0.29986 0.16474 0.1707 0.0
C2459 C 0.30486 0.15607 0.16186 0.0
C2460 C 0.29571 0.14239 0.15452 0.0
H2461 H 0.38541 0.16618 0.14335 0.0
H2462 H 0.36095 0.15721 0.14642 0.0
C2463 C 0.28178 0.13749 0.15535 0.0
C2464 C 0.31963 0.16124 0.16118 0.0
H2465 H 0.3455 0.16521 0.10491 0.0
C2466 C 0.32707 0.16663 0.19407 0.0
C2467 C 0.32635 0.16076 0.12858 0.0
C2468 C 0.31898 0.15557 0.09206 0.0
C2469 C 0.34103 0.17137 0.1954 0.0
C2470 C 0.34775 0.17091 0.16277 0.0
C2471 C 0.3403 0.1655 0.12991 0.0
C2472 C 0.36256 0.17629 0.16188 0.0
C2473 C 0.3484 0.17658 0.23191 0.0
C2474 C 0.37155 0.19 0.16922 0.0
C2475 C 0.38551 0.19516 0.1676 0.0
C2476 C 0.39079 0.18672 0.15825 0.0
C2477 C 0.38172 0.17297 0.15071 0.0
C2478 C 0.36774 0.16782 0.15242 0.0
H2479 H 0.34134 0.17281 0.25599 0.0
H2480 H 0.35618 0.17356 0.23573 0.0
H2481 H 0.35355 0.1878 0.23207 0.0
H2482 H 0.36777 0.19678 0.17575 0.0
H2483 H 0.39214 0.20581 0.17334 0.0
H2484 H 0.83448 0.21836 0.13277 0.0
H2485 H 0.84309 0.20256 0.13103 0.0
H2486 H 0.80389 0.16999 0.16383 0.0
H2487 H 0.79514 0.18558 0.16531 0.0
H2488 H 0.84385 0.1865 0.18933 0.0
H2489 H 0.81272 0.15478 0.07131 0.0
H2490 H 0.81481 0.17122 0.08135 0.0
H2491 H 0.80311 0.1567 0.10802 0.0
C2492 C 0.82766 0.20783 0.13946 0.0
C2493 C 0.81408 0.20326 0.149 0.0
C2494 C 0.83261 0.19882 0.13846 0.0
C2495 C 0.82407 0.18508 0.1467 0.0
C2496 C 0.81057 0.1805 0.15658 0.0
H2497 H 0.83341 0.11461 0.16924 0.0
H2498 H 0.82514 0.13067 0.16678 0.0
C2499 C 0.80562 0.18948 0.15762 0.0
C2500 C 0.82934 0.17556 0.14616 0.0
H2501 H 0.82482 0.14647 0.10587 0.0
C2502 C 0.83978 0.1778 0.1709 0.0
C2503 C 0.82395 0.16421 0.12216 0.0
C2504 C 0.81311 0.16161 0.09395 0.0
C2505 C 0.84477 0.1688 0.17289 0.0
C2506 C 0.83932 0.1574 0.14904 0.0
C2507 C 0.82894 0.1552 0.12416 0.0
C2508 C 0.84429 0.14764 0.14953 0.0
C2509 C 0.85559 0.17138 0.20115 0.0
C2510 C 0.85772 0.15182 0.13993 0.0
C2511 C 0.86249 0.14269 0.14127 0.0
C2512 C 0.85389 0.12916 0.15213 0.0
C2513 C 0.84033 0.12494 0.1609 0.0
C2514 C 0.83558 0.1341 0.1595 0.0
H2515 H 0.85629 0.17854 0.22319 0.0
H2516 H 0.85362 0.16179 0.21456 0.0
H2517 H 0.86553 0.17585 0.1869 0.0
H2518 H 0.86454 0.16216 0.13145 0.0
H2519 H 0.87297 0.1463 0.13408 0.0
H2520 H 0.81404 0.60844 0.173 0.0
H2521 H 0.82962 0.63283 0.17294 0.0
H2522 H 0.79799 0.63941 0.13083 0.0
H2523 H 0.78223 0.61501 0.13121 0.0
H2524 H 0.83762 0.65047 0.11236 0.0
H2525 H 0.81238 0.66495 0.22048 0.0
H2526 H 0.80848 0.6477 0.21365 0.0
H2527 H 0.80155 0.6551 0.18286 0.0
C2528 C 0.81033 0.61505 0.16391 0.0
C2529 C 0.79683 0.60973 0.15221 0.0
C2530 C 0.81927 0.62899 0.16387 0.0
C2531 C 0.81492 0.63793 0.15231 0.0
C2532 C 0.80149 0.6327 0.14054 0.0
H2533 H 0.85438 0.72506 0.1288 0.0
H2534 H 0.83879 0.70068 0.12708 0.0
C2535 C 0.79251 0.61873 0.14062 0.0
C2536 C 0.82458 0.65269 0.15159 0.0
H2537 H 0.83052 0.68286 0.18764 0.0
C2538 C 0.8361 0.65756 0.12891 0.0
C2539 C 0.82255 0.66189 0.17319 0.0
C2540 C 0.81064 0.65717 0.1992 0.0
C2541 C 0.84558 0.67144 0.1268 0.0
C2542 C 0.84355 0.68064 0.14842 0.0
C2543 C 0.83202 0.67577 0.17106 0.0
C2544 C 0.85329 0.69538 0.14807 0.0
C2545 C 0.85751 0.67617 0.1009 0.0
C2546 C 0.86663 0.70049 0.1605 0.0
C2547 C 0.87562 0.71444 0.16148 0.0
C2548 C 0.87139 0.72357 0.15029 0.0
C2549 C 0.85802 0.71837 0.13761 0.0
C2550 C 0.84906 0.70442 0.13664 0.0
H2551 H 0.85579 0.66841 0.07956 0.0
H2552 H 0.85971 0.68567 0.08653 0.0
H2553 H 0.86658 0.67821 0.11732 0.0
H2554 H 0.87002 0.69368 0.1701 0.0
H2555 H 0.8858 0.71807 0.17161 0.0
H2556 H 0.16608 0.384 0.34623 0.0
H2557 H 0.15749 0.35958 0.34607 0.0
H2558 H 0.19545 0.36633 0.30155 0.0
H2559 H 0.20421 0.39069 0.30192 0.0
H2560 H 0.15484 0.34231 0.28634 0.0
H2561 H 0.19007 0.34318 0.39439 0.0
H2562 H 0.18746 0.35732 0.38634 0.0
H2563 H 0.19824 0.3544 0.35589 0.0
C2564 C 0.17262 0.38031 0.33636 0.0
C2565 C 0.18589 0.38935 0.32437 0.0
C2566 C 0.16768 0.36635 0.3363 0.0
C2567 C 0.17593 0.36119 0.32446 0.0
C2568 C 0.18903 0.37013 0.3116 0.0
H2569 H 0.16598 0.28099 0.30243 0.0
H2570 H 0.17428 0.30534 0.30236 0.0
C2571 C 0.19398 0.38407 0.31165 0.0
C2572 C 0.17081 0.34643 0.32521 0.0
H2573 H 0.17676 0.32238 0.36264 0.0
C2574 C 0.15957 0.33792 0.30316 0.0
C2575 C 0.17704 0.34077 0.34714 0.0
C2576 C 0.1888 0.34936 0.37256 0.0
C2577 C 0.15454 0.32391 0.30188 0.0
C2578 C 0.1608 0.31826 0.32373 0.0
C2579 C 0.17202 0.32676 0.34584 0.0
C2580 C 0.15578 0.30352 0.32425 0.0
C2581 C 0.14277 0.31531 0.27652 0.0
C2582 C 0.14272 0.29447 0.33724 0.0
C2583 C 0.13794 0.28057 0.33734 0.0
C2584 C 0.14615 0.27542 0.32461 0.0
C2585 C 0.15935 0.28457 0.31231 0.0
C2586 C 0.16412 0.2985 0.31224 0.0
H2587 H 0.14139 0.32148 0.2549 0.0
H2588 H 0.14417 0.30742 0.26249 0.0
H2589 H 0.13335 0.31016 0.29329 0.0
H2590 H 0.13623 0.29818 0.34739 0.0
H2591 H 0.12776 0.27386 0.34727 0.0
H2592 H 0.60828 0.8145 0.31363 0.0
H2593 H 0.63265 0.8302 0.31392 0.0
H2594 H 0.63955 0.79819 0.35062 0.0
H2595 H 0.61518 0.78231 0.35011 0.0
H2596 H 0.65083 0.83739 0.37426 0.0
H2597 H 0.66423 0.81377 0.25889 0.0
H2598 H 0.64709 0.80997 0.26745 0.0
H2599 H 0.6545 0.80238 0.29572 0.0
C2600 C 0.61495 0.81074 0.32162 0.0
C2601 C 0.60973 0.79709 0.33169 0.0
C2602 C 0.62888 0.81976 0.32183 0.0
C2603 C 0.63789 0.81532 0.33185 0.0
C2604 C 0.63276 0.80176 0.34216 0.0
H2605 H 0.72489 0.85353 0.3502 0.0
H2606 H 0.70048 0.83827 0.35246 0.0
C2607 C 0.61882 0.79271 0.342 0.0
C2608 C 0.65264 0.82496 0.33209 0.0
H2609 H 0.68244 0.83134 0.29238 0.0
C2610 C 0.65776 0.83611 0.35628 0.0
C2611 C 0.66161 0.82325 0.30856 0.0
C2612 C 0.65661 0.81177 0.28092 0.0
C2613 C 0.67167 0.84549 0.35807 0.0
C2614 C 0.68064 0.84375 0.33462 0.0
C2615 C 0.67552 0.83262 0.31038 0.0
C2616 C 0.69542 0.85332 0.33485 0.0
C2617 C 0.6767 0.857 0.3856 0.0
C2618 C 0.70067 0.86686 0.32417 0.0
C2619 C 0.71466 0.87566 0.32283 0.0
C2620 C 0.72366 0.87104 0.33197 0.0
C2621 C 0.71831 0.85747 0.34298 0.0
C2622 C 0.70434 0.8487 0.34427 0.0
H2623 H 0.66907 0.85506 0.40754 0.0
H2624 H 0.68619 0.85877 0.39918 0.0
H2625 H 0.67887 0.86639 0.37068 0.0
H2626 H 0.69395 0.87056 0.31616 0.0
H2627 H 0.71841 0.88602 0.31409 0.0
H2628 H 0.21855 0.83434 0.3498 0.0
H2629 H 0.20287 0.84311 0.34936 0.0
H2630 H 0.17103 0.80464 0.30926 0.0
H2631 H 0.18649 0.79573 0.30994 0.0
H2632 H 0.18794 0.84508 0.28967 0.0
H2633 H 0.15408 0.81159 0.40121 0.0
H2634 H 0.17069 0.81388 0.39288 0.0
H2635 H 0.1567 0.80276 0.36366 0.0
C2636 C 0.20822 0.82773 0.3409 0.0
C2637 C 0.20378 0.81428 0.33018 0.0
C2638 C 0.19928 0.83276 0.34068 0.0
C2639 C 0.18574 0.82444 0.32994 0.0
C2640 C 0.18136 0.81114 0.31846 0.0
H2641 H 0.11559 0.8342 0.305 0.0
H2642 H 0.13165 0.82594 0.30681 0.0
C2643 C 0.19026 0.80609 0.31869 0.0
C2644 C 0.17622 0.8297 0.33013 0.0
H2645 H 0.14646 0.82444 0.36757 0.0
C2646 C 0.17891 0.84064 0.30686 0.0
C2647 C 0.16445 0.82385 0.35256 0.0
C2648 C 0.16133 0.81245 0.37926 0.0
C2649 C 0.16997 0.84571 0.30476 0.0
C2650 C 0.15816 0.83981 0.32704 0.0
C2651 C 0.1555 0.82891 0.35045 0.0
C2652 C 0.14843 0.84482 0.32651 0.0
C2653 C 0.17308 0.85711 0.27805 0.0
C2654 C 0.15249 0.85808 0.33767 0.0
C2655 C 0.14336 0.86285 0.33666 0.0
C2656 C 0.12994 0.85441 0.32468 0.0
C2657 C 0.12584 0.84101 0.31428 0.0
C2658 C 0.135 0.83626 0.31528 0.0
H2659 H 0.18052 0.85814 0.25648 0.0
H2660 H 0.16374 0.85553 0.26394 0.0
H2661 H 0.17745 0.86677 0.29375 0.0
H2662 H 0.16273 0.86476 0.34721 0.0
H2663 H 0.14687 0.87319 0.34515 0.0
H2664 H 0.71818 0.83477 0.79575 0.0
H2665 H 0.69386 0.82659 0.79401 0.0
H2666 H 0.70119 0.86586 0.82881 0.0
H2667 H 0.72547 0.8742 0.83026 0.0
H2668 H 0.67745 0.82582 0.85314 0.0
H2669 H 0.67678 0.85777 0.73752 0.0
H2670 H 0.69108 0.85547 0.74642 0.0
H2671 H 0.68846 0.86706 0.77426 0.0
C2672 C 0.71465 0.84171 0.80282 0.0
C2673 C 0.72382 0.85517 0.81302 0.0
C2674 C 0.70074 0.83701 0.80181 0.0
C2675 C 0.69576 0.84569 0.81071 0.0
C2676 C 0.70485 0.85908 0.82105 0.0
H2677 H 0.61539 0.83527 0.83746 0.0
H2678 H 0.63984 0.84415 0.83432 0.0
C2679 C 0.71874 0.86379 0.82209 0.0
C2680 C 0.681 0.84058 0.81076 0.0
H2681 H 0.6564 0.8454 0.772 0.0
C2682 C 0.67283 0.83003 0.83524 0.0
C2683 C 0.67503 0.84617 0.78752 0.0
C2684 C 0.68325 0.85716 0.75968 0.0
C2685 C 0.65885 0.82505 0.83753 0.0
C2686 C 0.65288 0.83062 0.81427 0.0
C2687 C 0.66104 0.84118 0.78982 0.0
C2688 C 0.63812 0.82544 0.81463 0.0
C2689 C 0.65062 0.81404 0.86535 0.0
C2690 C 0.6291 0.81209 0.80378 0.0
C2691 C 0.61516 0.80698 0.80549 0.0
C2692 C 0.60993 0.81515 0.81801 0.0
C2693 C 0.61903 0.82867 0.82786 0.0
C2694 C 0.63301 0.83378 0.82607 0.0
H2695 H 0.6571 0.81323 0.88711 0.0
H2696 H 0.64299 0.8159 0.87913 0.0
H2697 H 0.64517 0.80418 0.85062 0.0
H2698 H 0.63286 0.80557 0.7942 0.0
H2699 H 0.60849 0.79656 0.7974 0.0
H2700 H 0.16661 0.78194 0.84185 0.0
H2701 H 0.1576 0.79737 0.83807 0.0
H2702 H 0.19732 0.83028 0.81076 0.0
H2703 H 0.2064 0.81499 0.81392 0.0
H2704 H 0.16533 0.82088 0.87967 0.0
H2705 H 0.17374 0.83254 0.72867 0.0
H2706 H 0.17437 0.81846 0.74942 0.0
H2707 H 0.18858 0.83532 0.75346 0.0
C2708 C 0.17343 0.79244 0.83482 0.0
C2709 C 0.18724 0.79718 0.82803 0.0
C2710 C 0.16826 0.80124 0.8327 0.0
C2711 C 0.17676 0.81492 0.82356 0.0
C2712 C 0.19053 0.8197 0.81704 0.0
H2713 H 0.1672 0.88544 0.80384 0.0
H2714 H 0.17568 0.86955 0.80624 0.0
C2715 C 0.19571 0.81093 0.81909 0.0
C2716 C 0.17134 0.8243 0.82204 0.0
H2717 H 0.16756 0.84608 0.76478 0.0
C2718 C 0.16573 0.82633 0.85451 0.0
C2719 C 0.17193 0.83143 0.7892 0.0
C2720 C 0.17736 0.82926 0.75309 0.0
C2721 C 0.16094 0.83551 0.85525 0.0
C2722 C 0.16156 0.84266 0.82242 0.0
C2723 C 0.16714 0.84061 0.78992 0.0
C2724 C 0.15639 0.85226 0.82114 0.0
C2725 C 0.15556 0.83771 0.89141 0.0
C2726 C 0.14271 0.84776 0.82823 0.0
C2727 C 0.13783 0.8568 0.82703 0.0
C2728 C 0.14653 0.87053 0.81833 0.0
C2729 C 0.16022 0.87497 0.8107 0.0
C2730 C 0.16509 0.8659 0.81203 0.0
H2731 H 0.15913 0.83435 0.91579 0.0
H2732 H 0.15867 0.84854 0.89519 0.0
H2733 H 0.14434 0.83175 0.89105 0.0
H2734 H 0.13575 0.83722 0.83446 0.0
H2735 H 0.12721 0.85299 0.83275 0.0
H2736 H 0.21763 0.38474 0.84993 0.0
H2737 H 0.20179 0.36032 0.84945 0.0
H2738 H 0.17166 0.36698 0.79686 0.0
H2739 H 0.18737 0.39131 0.79682 0.0
H2740 H 0.17597 0.34677 0.88392 0.0
H2741 H 0.17229 0.33777 0.73124 0.0
H2742 H 0.18578 0.3529 0.75227 0.0
H2743 H 0.16937 0.35116 0.74573 0.0
C2744 C 0.20769 0.38102 0.83789 0.0
C2745 C 0.20381 0.39003 0.82337 0.0
C2746 C 0.19865 0.36706 0.83773 0.0
C2747 C 0.18562 0.36185 0.82274 0.0
C2748 C 0.18175 0.37078 0.80796 0.0
H2749 H 0.1148 0.28176 0.80269 0.0
H2750 H 0.13067 0.30617 0.80333 0.0
C2751 C 0.19075 0.38471 0.80818 0.0
C2752 C 0.17585 0.34713 0.82396 0.0
H2753 H 0.15646 0.31968 0.76906 0.0
C2754 C 0.17176 0.34081 0.85884 0.0
C2755 C 0.17032 0.33944 0.79116 0.0
C2756 C 0.17473 0.34561 0.75294 0.0
C2757 C 0.1621 0.32701 0.86183 0.0
C2758 C 0.15658 0.31931 0.82903 0.0
C2759 C 0.16067 0.32563 0.79415 0.0
C2760 C 0.14678 0.3046 0.83024 0.0
C2761 C 0.15769 0.32085 0.90005 0.0
C2762 C 0.15061 0.29565 0.84511 0.0
C2763 C 0.1416 0.28172 0.84481 0.0
C2764 C 0.12857 0.27643 0.82944 0.0
C2765 C 0.12472 0.28546 0.81486 0.0
C2766 C 0.13378 0.29941 0.81511 0.0
H2767 H 0.16012 0.32869 0.92174 0.0
H2768 H 0.14664 0.31355 0.90071 0.0
H2769 H 0.16305 0.3153 0.90729 0.0
H2770 H 0.16068 0.29943 0.85632 0.0
H2771 H 0.14494 0.2751 0.85621 0.0
H2772 H 0.86949 0.72286 0.63381 0.0
H2773 H 0.86015 0.69843 0.63412 0.0
H2774 H 0.82364 0.69303 0.68556 0.0
H2775 H 0.83283 0.71756 0.68507 0.0
H2776 H 0.85193 0.68134 0.69643 0.0
H2777 H 0.80958 0.66676 0.59673 0.0
H2778 H 0.82338 0.68394 0.60115 0.0
H2779 H 0.81005 0.67709 0.63515 0.0
C2780 C 0.85943 0.71652 0.64503 0.0
C2781 C 0.85191 0.72222 0.65939 0.0
C2782 C 0.85412 0.70254 0.6452 0.0
C2783 C 0.84116 0.69392 0.65951 0.0
C2784 C 0.83358 0.69951 0.67379 0.0
H2785 H 0.79417 0.60648 0.68284 0.0
H2786 H 0.80256 0.63078 0.6852 0.0
C2787 C 0.83888 0.71353 0.67363 0.0
C2788 C 0.83585 0.67913 0.66045 0.0
H2789 H 0.81087 0.64895 0.62644 0.0
C2790 C 0.84296 0.67425 0.68111 0.0
C2791 C 0.82414 0.66992 0.64051 0.0
C2792 C 0.81638 0.67465 0.61685 0.0
C2793 C 0.83861 0.66038 0.6826 0.0
C2794 C 0.82698 0.65117 0.66231 0.0
C2795 C 0.81979 0.65604 0.64194 0.0
C2796 C 0.82213 0.63646 0.66165 0.0
C2797 C 0.84638 0.65568 0.70638 0.0
C2798 C 0.83033 0.63158 0.6474 0.0
C2799 C 0.8256 0.61767 0.6461 0.0
C2800 C 0.8125 0.60836 0.65871 0.0
C2801 C 0.80431 0.61332 0.67289 0.0
C2802 C 0.80907 0.62722 0.67425 0.0
H2803 H 0.85262 0.66334 0.72771 0.0
H2804 H 0.83943 0.64602 0.72068 0.0
H2805 H 0.85329 0.65397 0.68837 0.0
H2806 H 0.84035 0.63852 0.63681 0.0
H2807 H 0.83215 0.61423 0.63478 0.0
H2808 H 0.28101 0.11579 0.67965 0.0
H2809 H 0.3054 0.13163 0.67944 0.0
H2810 H 0.29865 0.16255 0.63275 0.0
H2811 H 0.27429 0.14691 0.63319 0.0
H2812 H 0.32264 0.14579 0.61953 0.0
H2813 H 0.32184 0.18101 0.72496 0.0
H2814 H 0.30767 0.16421 0.71755 0.0
H2815 H 0.31068 0.17771 0.68615 0.0
C2816 C 0.28469 0.12595 0.6693 0.0
C2817 C 0.27564 0.13009 0.65671 0.0
C2818 C 0.29864 0.13499 0.66922 0.0
C2819 C 0.3038 0.14832 0.65672 0.0
C2820 C 0.29485 0.15239 0.6433 0.0
H2821 H 0.38441 0.21814 0.63472 0.0
H2822 H 0.36 0.20233 0.63454 0.0
C2823 C 0.28091 0.14339 0.64339 0.0
C2824 C 0.31856 0.15795 0.65735 0.0
H2825 H 0.34268 0.1881 0.69395 0.0
C2826 C 0.32705 0.15501 0.63592 0.0
C2827 C 0.32425 0.16999 0.67871 0.0
C2828 C 0.31567 0.1734 0.70343 0.0
C2829 C 0.34108 0.16391 0.63474 0.0
C2830 C 0.34677 0.17594 0.65613 0.0
C2831 C 0.33828 0.17888 0.67754 0.0
C2832 C 0.36154 0.18555 0.65689 0.0
C2833 C 0.34965 0.1605 0.61002 0.0
C2834 C 0.37045 0.18142 0.67025 0.0
C2835 C 0.38438 0.1904 0.67037 0.0
C2836 C 0.3897 0.20375 0.65736 0.0
C2837 C 0.38069 0.20795 0.64485 0.0
C2838 C 0.36674 0.19893 0.6447 0.0
H2839 H 0.34349 0.15295 0.58836 0.0
H2840 H 0.35771 0.16969 0.59605 0.0
H2841 H 0.35458 0.15611 0.62726 0.0
H2842 H 0.36661 0.17123 0.6806 0.0
H2843 H 0.39098 0.18683 0.68052 0.0
H2844 H 0.88435 0.1662 0.6823 0.0
H2845 H 0.86871 0.17501 0.68342 0.0
H2846 H 0.83626 0.13626 0.64715 0.0
H2847 H 0.85169 0.1273 0.64619 0.0
H2848 H 0.85302 0.17626 0.62389 0.0
H2849 H 0.82067 0.14457 0.74037 0.0
H2850 H 0.83718 0.14675 0.73098 0.0
H2851 H 0.82287 0.13527 0.70331 0.0
C2852 C 0.87388 0.15952 0.67465 0.0
C2853 C 0.86929 0.14601 0.66434 0.0
C2854 C 0.86497 0.16458 0.6753 0.0
C2855 C 0.85129 0.15622 0.66595 0.0
C2856 C 0.84671 0.1428 0.6552 0.0
H2857 H 0.78178 0.16761 0.64631 0.0
H2858 H 0.79724 0.15859 0.6475 0.0
C2859 C 0.8556 0.13773 0.65446 0.0
C2860 C 0.84187 0.16159 0.66651 0.0
H2861 H 0.81293 0.15737 0.70706 0.0
C2862 C 0.84429 0.17219 0.64221 0.0
C2863 C 0.83047 0.15621 0.69034 0.0
C2864 C 0.82766 0.14515 0.71799 0.0
C2865 C 0.83548 0.17742 0.64061 0.0
C2866 C 0.82409 0.17205 0.66447 0.0
C2867 C 0.82166 0.16144 0.68878 0.0
C2868 C 0.81466 0.17741 0.66482 0.0
C2869 C 0.83828 0.18844 0.61283 0.0
C2870 C 0.81927 0.19089 0.67497 0.0
C2871 C 0.81049 0.19608 0.67434 0.0
C2872 C 0.79686 0.18786 0.66371 0.0
C2873 C 0.79219 0.17424 0.6545 0.0
C2874 C 0.80101 0.16906 0.65516 0.0
H2875 H 0.84524 0.18897 0.59041 0.0
H2876 H 0.82875 0.18683 0.59987 0.0
H2877 H 0.8431 0.19835 0.62737 0.0
H2878 H 0.82969 0.19742 0.68328 0.0
H2879 H 0.81444 0.20658 0.6819 0.0
H2880 H 0.05035 0.4977 0.47144 0.0
H2881 H 0.02583 0.4886 0.47148 0.0
H2882 H 0.03173 0.52639 0.51494 0.0
H2883 H 0.05616 0.53563 0.51479 0.0
H2884 H 0.00827 0.48603 0.53168 0.0
H2885 H 0.00875 0.52007 0.42049 0.0
H2886 H 0.02294 0.51759 0.42918 0.0
H2887 H 0.02003 0.52863 0.4586 0.0
C2888 C 0.04645 0.50408 0.48108 0.0
C2889 C 0.05527 0.51745 0.49281 0.0
C2890 C 0.03244 0.49885 0.48108 0.0
C2891 C 0.02701 0.50691 0.49258 0.0
C2892 C 0.03574 0.5201 0.50522 0.0
H2893 H 0.94742 0.49788 0.51234 0.0
H2894 H 0.97164 0.50569 0.51229 0.0
C2895 C 0.04972 0.52534 0.50527 0.0
C2896 C 0.01222 0.50157 0.49149 0.0
H2897 H 0.98803 0.50703 0.45286 0.0
C2898 C 0.00381 0.49054 0.51428 0.0
C2899 C 0.00647 0.50751 0.46877 0.0
C2900 C 0.01498 0.51903 0.4426 0.0
C2901 C 0.98979 0.4855 0.51571 0.0
C2902 C 0.98405 0.49152 0.49321 0.0
C2903 C 0.99247 0.50247 0.47017 0.0
C2904 C 0.96934 0.48666 0.49326 0.0
C2905 C 0.9813 0.47403 0.54204 0.0
C2906 C 0.96003 0.47343 0.48202 0.0
C2907 C 0.94616 0.46891 0.48204 0.0
C2908 C 0.94133 0.47758 0.49307 0.0
C2909 C 0.95074 0.49091 0.50375 0.0
C2910 C 0.9646 0.49541 0.50375 0.0
H2911 H 0.98757 0.47291 0.56389 0.0
H2912 H 0.97348 0.4756 0.55581 0.0
H2913 H 0.97608 0.46442 0.5261 0.0
H2914 H 0.96349 0.46662 0.47301 0.0
H2915 H 0.93925 0.45861 0.47339 0.0
H2916 H 0.4614 0.51967 0.50564 0.0
H2917 H 0.47012 0.50402 0.50552 0.0
H2918 H 0.5086 0.53574 0.46518 0.0
H2919 H 0.50006 0.55157 0.46559 0.0
H2920 H 0.48016 0.4962 0.44518 0.0
H2921 H 0.51909 0.52102 0.55547 0.0
H2922 H 0.50577 0.52492 0.54802 0.0
H2923 H 0.52032 0.53201 0.518 0.0
C2924 C 0.47176 0.52339 0.49692 0.0
C2925 C 0.48004 0.53693 0.48574 0.0
C2926 C 0.4767 0.5144 0.49683 0.0
C2927 C 0.49005 0.51876 0.48577 0.0
C2928 C 0.49835 0.53223 0.47448 0.0
H2929 H 0.53808 0.47965 0.46516 0.0
H2930 H 0.52916 0.49511 0.4625 0.0
C2931 C 0.49342 0.54126 0.47459 0.0
C2932 C 0.49513 0.50909 0.48525 0.0
H2933 H 0.51911 0.50304 0.5225 0.0
C2934 C 0.48865 0.49765 0.46216 0.0
C2935 C 0.5062 0.51104 0.50744 0.0
C2936 C 0.5132 0.52284 0.53391 0.0
C2937 C 0.49308 0.4882 0.46022 0.0
C2938 C 0.50415 0.49015 0.4824 0.0
C2939 C 0.51064 0.50159 0.50546 0.0
C2940 C 0.5092 0.48045 0.48223 0.0
C2941 C 0.48606 0.47636 0.43389 0.0
C2942 C 0.50092 0.46705 0.49418 0.0
C2943 C 0.50597 0.45814 0.4957 0.0
C2944 C 0.51945 0.4625 0.48555 0.0
C2945 C 0.52765 0.47591 0.47321 0.0
C2946 C 0.52259 0.48479 0.47169 0.0
H2947 H 0.48017 0.47816 0.41228 0.0
H2948 H 0.49347 0.47423 0.41986 0.0
H2949 H 0.47893 0.46722 0.4499 0.0
H2950 H 0.49063 0.46356 0.50309 0.0
H2951 H 0.49938 0.44792 0.50552 0.0
H2952 H 0.52155 0.0572 0.4639 0.0
H2953 H 0.50613 0.03281 0.46425 0.0
H2954 H 0.53736 0.02668 0.5116 0.0
H2955 H 0.553 0.05115 0.51115 0.0
H2956 H 0.52268 0.00882 0.45182 0.0
H2957 H 0.48847 0.0105 0.55897 0.0
H2958 H 0.49161 0.02152 0.51992 0.0
H2959 H 0.50528 0.02452 0.55062 0.0
C2960 C 0.52521 0.05071 0.47434 0.0
C2961 C 0.53853 0.05619 0.48779 0.0
C2962 C 0.51633 0.03676 0.47469 0.0
C2963 C 0.52053 0.02798 0.48862 0.0
C2964 C 0.5339 0.03332 0.50101 0.0
H2965 H 0.48051 0.94041 0.513 0.0
H2966 H 0.4967 0.96466 0.51307 0.0
C2967 C 0.54282 0.04731 0.50071 0.0
C2968 C 0.51091 0.01322 0.49019 0.0
H2969 H 0.48088 0.9895 0.52825 0.0
C2970 C 0.51358 0.00456 0.46869 0.0
C2971 C 0.49905 0.00774 0.51221 0.0
C2972 C 0.49595 0.01652 0.53702 0.0
C2973 C 0.50452 0.99055 0.46789 0.0
C2974 C 0.49261 0.98507 0.48976 0.0
C2975 C 0.49 0.99374 0.51145 0.0
C2976 C 0.4827 0.97036 0.49043 0.0
C2977 C 0.50759 0.98179 0.44289 0.0
C2978 C 0.46932 0.96555 0.47881 0.0
C2979 C 0.45997 0.95167 0.47897 0.0
C2980 C 0.46382 0.94234 0.49094 0.0
C2981 C 0.47719 0.94726 0.50332 0.0
C2982 C 0.48651 0.96113 0.50318 0.0
H2983 H 0.51513 0.98783 0.42111 0.0
H2984 H 0.51183 0.97667 0.4599 0.0
H2985 H 0.49826 0.97387 0.42907 0.0
H2986 H 0.46616 0.97253 0.46912 0.0
H2987 H 0.44978 0.94827 0.46934 0.0
H2988 H 0.49859 0.05079 0.00932 0.0
H2989 H 0.48958 0.0263 0.00894 0.0
H2990 H 0.52815 0.03252 0.97128 0.0
H2991 H 0.5373 0.05695 0.97175 0.0
H2992 H 0.48823 0.00931 0.94844 0.0
H2993 H 0.51988 0.00869 0.06512 0.0
H2994 H 0.51758 0.02297 0.05591 0.0
H2995 H 0.52915 0.02029 0.02821 0.0
C2996 C 0.50517 0.04697 0.00095 0.0
C2997 C 0.51871 0.05588 0.99081 0.0
C2998 C 0.5 0.03297 0.00074 0.0
C2999 C 0.50827 0.02764 0.99066 0.0
C3000 C 0.52168 0.03646 0.97983 0.0
H3001 H 0.49809 0.94745 0.97151 0.0
H3002 H 0.50644 0.97178 0.97186 0.0
C3003 C 0.52686 0.05043 0.97994 0.0
C3004 C 0.50288 0.01284 0.99114 0.0
H3005 H 0.50715 0.98818 0.0317 0.0
C3006 C 0.49229 0.00466 0.96677 0.0
C3007 C 0.50824 0.00685 0.01506 0.0
C3008 C 0.51926 0.01511 0.04282 0.0
C3009 C 0.48711 0.99062 0.9651 0.0
C3010 C 0.49251 0.98463 0.98894 0.0
C3011 C 0.50306 0.99282 0.01342 0.0
C3012 C 0.48738 0.96987 0.98888 0.0
C3013 C 0.47613 0.98237 0.93722 0.0
C3014 C 0.47395 0.96075 -0.00109 0.0
C3015 C 0.46912 0.94683 -0.00122 0.0
C3016 C 0.47767 0.94175 0.98875 0.0
C3017 C 0.4912 0.95096 0.97926 0.0
C3018 C 0.496 0.96489 0.97945 0.0
H3019 H 0.47549 0.98881 0.91502 0.0
H3020 H 0.47789 0.97458 0.92399 0.0
H3021 H 0.46623 0.97711 0.95176 0.0
H3022 H 0.4672 0.96441 0.007 0.0
H3023 H 0.45868 0.94006 0.00643 0.0
H3024 H 0.94843 0.44974 0.0147 0.0
H3025 H 0.97282 0.46559 0.01502 0.0
H3026 H 0.96596 0.49754 0.97757 0.0
H3027 H 0.9416 0.48189 0.97751 0.0
H3028 H 0.98939 0.48069 0.95532 0.0
H3029 H 0.99036 0.51426 0.06875 0.0
H3030 H 0.97597 0.49768 0.0604 0.0
H3031 H 0.97876 0.51175 0.03172 0.0
C3032 C 0.95208 0.46015 0.00666 0.0
C3033 C 0.94301 0.46453 -0.00374 0.0
C3034 C 0.96603 0.46919 0.00686 0.0
C3035 C 0.97117 0.48278 -0.0031 0.0
C3036 C 0.96218 0.48716 0.98612 0.0
H3037 H 0.05174 0.55244 0.97179 0.0
H3038 H 0.02731 0.53676 0.97331 0.0
C3039 C 0.94825 0.47815 0.9859 0.0
C3040 C 0.98596 0.4923 -0.00328 0.0
H3041 H 0.01074 0.52183 0.03464 0.0
C3042 C 0.99408 0.48965 0.9728 0.0
C3043 C 0.99202 0.504 0.01948 0.0
C3044 C 0.98387 0.50707 0.0468 0.0
C3045 C 0.0081 0.49851 0.97055 0.0
C3046 C 0.01415 0.5102 -0.00673 0.0
C3047 C 0.00604 0.51286 0.0172 0.0
C3048 C 0.02894 0.51972 -0.00709 0.0
C3049 C 0.01627 0.49542 0.9433 0.0
C3050 C 0.03792 0.51537 0.00405 0.0
C3051 C 0.05187 0.52427 0.00325 0.0
C3052 C 0.05714 0.53775 0.99141 0.0
C3053 C 0.04807 0.54213 0.98092 0.0
C3054 C 0.0341 0.5332 0.98179 0.0
H3055 H 0.00977 0.48809 0.92161 0.0
H3056 H 0.02406 0.50479 0.92938 0.0
H3057 H 0.02152 0.49091 0.95853 0.0
H3058 H 0.03412 0.50507 0.01344 0.0
H3059 H 0.0585 0.52054 0.01177 0.0
H3060 H 0.5511 0.49949 0.01743 0.0
H3061 H 0.53529 0.50807 0.01629 0.0
H3062 H 0.5036 0.46931 0.97737 0.0
H3063 H 0.5193 0.46068 0.97783 0.0
H3064 H 0.50519 0.49089 0.9377 0.0
H3065 H 0.50464 0.49913 0.09001 0.0
H3066 H 0.52123 0.50737 0.06958 0.0
H3067 H 0.51141 0.4892 0.07023 0.0
C3068 C 0.54076 0.49276 0.00871 0.0
C3069 C 0.53648 0.47936 -0.00212 0.0
C3070 C 0.53172 0.49767 0.0083 0.0
C3071 C 0.51822 0.48925 -0.00266 0.0
C3072 C 0.51396 0.47595 0.98612 0.0
H3073 H 0.44797 0.49971 0.97165 0.0
H3074 H 0.46332 0.49058 0.97413 0.0
C3075 C 0.52297 0.47104 0.98644 0.0
C3076 C 0.50857 0.49437 -0.00331 0.0
H3077 H 0.49351 0.50749 0.05166 0.0
C3078 C 0.50258 0.49446 0.96263 0.0
C3079 C 0.50518 0.499 0.02929 0.0
C3080 C 0.51084 0.49858 0.06694 0.0
C3081 C 0.49348 0.49932 0.96012 0.0
C3082 C 0.49014 0.50401 -0.00732 0.0
C3083 C 0.4961 0.50388 0.02676 0.0
C3084 C 0.48071 0.50937 -0.00817 0.0
C3085 C 0.48779 0.49971 0.9225 0.0
C3086 C 0.48531 0.52285 0.00194 0.0
C3087 C 0.47657 0.52808 0.00078 0.0
C3088 C 0.463 0.51992 0.98963 0.0
C3089 C 0.45836 0.50632 0.98015 0.0
C3090 C 0.46713 0.50109 0.98134 0.0
H3091 H 0.49377 0.49883 0.89936 0.0
H3092 H 0.47727 0.49112 0.9203 0.0
H3093 H 0.48752 0.50924 0.91889 0.0
H3094 H 0.49573 0.52938 0.0103 0.0
H3095 H 0.48051 0.53858 0.00841 0.0
loop_
_geom_bond_atom_site_label_1
_geom_bond_atom_site_label_2
_geom_bond_distance
_geom_bond_site_symmetry_2
_ccdc_geom_bond_type
Co0 O1 2.216 . S
Co0 O2 2.091 . S
Co0 O4 2.004 . S
Co0 O10 2.021 . S
Co0 O12 2.137 . S
Co0 O13 2.244 . S
O1 Co0 2.216 . S
O1 C8 1.247 . S
O2 Co0 2.091 . S
O2 C8 1.261 . S
C3 O12 1.247 . S
C3 O13 1.272 . S
O4 Co0 2.004 . S
O4 C9 1.259 . S
Co5 O6 2.061 . S
Co5 O11 2.052 . S
Co5 O13 2.135 . S
O6 Co5 2.061 . S
O6 C9 1.235 . S
C7 O10 1.238 . S
C7 O11 1.241 . S
C8 O1 1.247 . S
C8 O2 1.261 . S
C9 O4 1.259 . S
C9 O6 1.235 . S
O10 Co0 2.021 . S
O10 C7 1.238 . S
O11 Co5 2.052 . S
O11 C7 1.241 . S
O12 Co0 2.137 . S
O12 C3 1.247 . S
O13 Co0 2.244 . S
O13 C3 1.272 . S
O13 Co5 2.135 . S
Co14 O15 2.216 . S
Co14 O16 2.091 . S
Co14 O18 2.004 . S
Co14 O24 2.021 . S
Co14 O26 2.137 . S
Co14 O27 2.244 . S
O15 Co14 2.216 . S
O15 C22 1.247 . S
O16 Co14 2.091 . S
O16 C22 1.261 . S
C17 O26 1.247 . S
C17 O27 1.272 . S
O18 Co14 2.004 . S
O18 C23 1.259 . S
Co19 O20 2.061 . S
Co19 O25 2.052 . S
Co19 O27 2.135 . S
O20 Co19 2.061 . S
O20 C23 1.235 . S
C21 O24 1.238 . S
C21 O25 1.241 . S
C22 O15 1.247 . S
C22 O16 1.261 . S
C23 O18 1.259 . S
C23 O20 1.235 . S
O24 Co14 2.021 . S
O24 C21 1.238 . S
O25 Co19 2.052 . S
O25 C21 1.241 . S
O26 Co14 2.137 . S
O26 C17 1.247 . S
O27 Co14 2.244 . S
O27 C17 1.272 . S
O27 Co19 2.135 . S
Co28 O29 2.216 . S
Co28 O30 2.091 . S
Co28 O32 2.004 . S
Co28 O38 2.021 . S
Co28 O40 2.137 . S
Co28 O41 2.244 . S
O29 Co28 2.216 . S
O29 C36 1.247 . S
O30 Co28 2.091 . S
O30 C36 1.261 . S
C31 O40 1.247 . S
C31 O41 1.272 . S
O32 Co28 2.004 . S
O32 C37 1.259 . S
Co33 O34 2.061 . S
Co33 O39 2.052 . S
Co33 O41 2.135 . S
O34 Co33 2.061 . S
O34 C37 1.235 . S
C35 O38 1.238 . S
C35 O39 1.241 . S
C36 O29 1.247 . S
C36 O30 1.261 . S
C37 O32 1.259 . S
C37 O34 1.235 . S
O38 Co28 2.021 . S
O38 C35 1.238 . S
O39 Co33 2.052 . S
O39 C35 1.241 . S
O40 Co28 2.137 . S
O40 C31 1.247 . S
O41 Co28 2.244 . S
O41 C31 1.272 . S
O41 Co33 2.135 . S
Co42 O43 2.216 . S
Co42 O44 2.091 . S
Co42 O46 2.004 . S
Co42 O52 2.021 . S
Co42 O54 2.137 . S
Co42 O55 2.244 . S
O43 Co42 2.216 . S
O43 C50 1.247 . S
O44 Co42 2.091 . S
O44 C50 1.261 . S
C45 O54 1.247 . S
C45 O55 1.272 . S
O46 Co42 2.004 . S
O46 C51 1.259 . S
Co47 O48 2.061 . S
Co47 O53 2.052 . S
Co47 O55 2.135 . S
O48 Co47 2.061 . S
O48 C51 1.235 . S
C49 O52 1.238 . S
C49 O53 1.241 . S
C50 O43 1.247 . S
C50 O44 1.261 . S
C51 O46 1.259 . S
C51 O48 1.235 . S
O52 Co42 2.021 . S
O52 C49 1.238 . S
O53 Co47 2.052 . S
O53 C49 1.241 . S
O54 Co42 2.137 . S
O54 C45 1.247 . S
O55 Co42 2.244 . S
O55 C45 1.272 . S
O55 Co47 2.135 . S
Co56 O57 2.216 . S
Co56 O58 2.091 . S
Co56 O60 2.004 . S
Co56 O66 2.021 . S
Co56 O68 2.137 . S
Co56 O69 2.244 . S
O57 Co56 2.216 . S
O57 C64 1.247 . S
O58 Co56 2.091 . S
O58 C64 1.261 . S
C59 O68 1.247 . S
C59 O69 1.272 . S
O60 Co56 2.004 . S
O60 C65 1.259 . S
Co61 O62 2.061 . S
Co61 O67 2.052 . S
Co61 O69 2.135 . S
O62 Co61 2.061 . S
O62 C65 1.235 . S
C63 O66 1.238 . S
C63 O67 1.241 . S
C64 O57 1.247 . S
C64 O58 1.261 . S
C65 O60 1.259 . S
C65 O62 1.235 . S
O66 Co56 2.021 . S
O66 C63 1.238 . S
O67 Co61 2.052 . S
O67 C63 1.241 . S
O68 Co56 2.137 . S
O68 C59 1.247 . S
O69 Co56 2.244 . S
O69 C59 1.272 . S
O69 Co61 2.135 . S
Co70 O71 2.216 . S
Co70 O72 2.091 . S
Co70 O74 2.004 . S
Co70 O80 2.021 . S
Co70 O82 2.137 . S
Co70 O83 2.244 . S
O71 Co70 2.216 . S
O71 C78 1.247 . S
O72 Co70 2.091 . S
O72 C78 1.261 . S
C73 O82 1.247 . S
C73 O83 1.272 . S
O74 Co70 2.004 . S
O74 C79 1.259 . S
Co75 O76 2.061 . S
Co75 O81 2.052 . S
Co75 O83 2.135 . S
O76 Co75 2.061 . S
O76 C79 1.235 . S
C77 O80 1.238 . S
C77 O81 1.241 . S
C78 O71 1.247 . S
C78 O72 1.261 . S
C79 O74 1.259 . S
C79 O76 1.235 . S
O80 Co70 2.021 . S
O80 C77 1.238 . S
O81 Co75 2.052 . S
O81 C77 1.241 . S
O82 Co70 2.137 . S
O82 C73 1.247 . S
O83 Co70 2.244 . S
O83 C73 1.272 . S
O83 Co75 2.135 . S
Co84 O85 2.216 . S
Co84 O86 2.091 . S
Co84 O88 2.004 . S
Co84 O94 2.021 . S
Co84 O96 2.137 . S
Co84 O97 2.244 . S
O85 Co84 2.216 . S
O85 C92 1.247 . S
O86 Co84 2.091 . S
O86 C92 1.261 . S
C87 O96 1.247 . S
C87 O97 1.272 . S
O88 Co84 2.004 . S
O88 C93 1.259 . S
Co89 O90 2.061 . S
Co89 O95 2.052 . S
Co89 O97 2.135 . S
O90 Co89 2.061 . S
O90 C93 1.235 . S
C91 O94 1.238 . S
C91 O95 1.241 . S
C92 O85 1.247 . S
C92 O86 1.261 . S
C93 O88 1.259 . S
C93 O90 1.235 . S
O94 Co84 2.021 . S
O94 C91 1.238 . S
O95 Co89 2.052 . S
O95 C91 1.241 . S
O96 Co84 2.137 . S
O96 C87 1.247 . S
O97 Co84 2.244 . S
O97 C87 1.272 . S
O97 Co89 2.135 . S
Co98 O99 2.216 . S
Co98 O100 2.091 . S
Co98 O102 2.004 . S
Co98 O108 2.021 . S
Co98 O110 2.137 . S
Co98 O111 2.244 . S
O99 Co98 2.216 . S
O99 C106 1.247 . S
O100 Co98 2.091 . S
O100 C106 1.261 . S
C101 O110 1.247 . S
C101 O111 1.272 . S
O102 Co98 2.004 . S
O102 C107 1.259 . S
Co103 O104 2.061 . S
Co103 O109 2.052 . S
Co103 O111 2.135 . S
O104 Co103 2.061 . S
O104 C107 1.235 . S
C105 O108 1.238 . S
C105 O109 1.241 . S
C106 O99 1.247 . S
C106 O100 1.261 . S
C107 O102 1.259 . S
C107 O104 1.235 . S
O108 Co98 2.021 . S
O108 C105 1.238 . S
O109 Co103 2.052 . S
O109 C105 1.241 . S
O110 Co98 2.137 . S
O110 C101 1.247 . S
O111 Co98 2.244 . S
O111 C101 1.272 . S
O111 Co103 2.135 . S
Co112 O113 2.216 . S
Co112 O114 2.091 . S
Co112 O116 2.004 . S
Co112 O122 2.021 . S
Co112 O124 2.137 . S
Co112 O125 2.244 . S
O113 Co112 2.216 . S
O113 C120 1.247 . S
O114 Co112 2.091 . S
O114 C120 1.261 . S
C115 O124 1.247 . S
C115 O125 1.272 . S
O116 Co112 2.004 . S
O116 C121 1.259 . S
Co117 O118 2.061 . S
Co117 O123 2.052 . S
Co117 O125 2.135 . S
O118 Co117 2.061 . S
O118 C121 1.235 . S
C119 O122 1.238 . S
C119 O123 1.241 . S
C120 O113 1.247 . S
C120 O114 1.261 . S
C121 O116 1.259 . S
C121 O118 1.235 . S
O122 Co112 2.021 . S
O122 C119 1.238 . S
O123 Co117 2.052 . S
O123 C119 1.241 . S
O124 Co112 2.137 . S
O124 C115 1.247 . S
O125 Co112 2.244 . S
O125 C115 1.272 . S
O125 Co117 2.135 . S
Co126 O127 2.216 . S
Co126 O128 2.091 . S
Co126 O130 2.004 . S
Co126 O136 2.021 . S
Co126 O138 2.137 . S
Co126 O139 2.244 . S
O127 Co126 2.216 . S
O127 C134 1.247 . S
O128 Co126 2.091 . S
O128 C134 1.261 . S
C129 O138 1.247 . S
C129 O139 1.272 . S
O130 Co126 2.004 . S
O130 C135 1.259 . S
Co131 O132 2.061 . S
Co131 O137 2.052 . S
Co131 O139 2.135 . S
O132 Co131 2.061 . S
O132 C135 1.235 . S
C133 O136 1.238 . S
C133 O137 1.241 . S
C134 O127 1.247 . S
C134 O128 1.261 . S
C135 O130 1.259 . S
C135 O132 1.235 . S
O136 Co126 2.021 . S
O136 C133 1.238 . S
O137 Co131 2.052 . S
O137 C133 1.241 . S
O138 Co126 2.137 . S
O138 C129 1.247 . S
O139 Co126 2.244 . S
O139 C129 1.272 . S
O139 Co131 2.135 . S
Co140 O141 2.216 . S
Co140 O142 2.091 . S
Co140 O144 2.004 . S
Co140 O150 2.021 . S
Co140 O152 2.137 . S
Co140 O153 2.244 . S
O141 Co140 2.216 . S
O141 C148 1.247 . S
O142 Co140 2.091 . S
O142 C148 1.261 . S
C143 O152 1.247 . S
C143 O153 1.272 . S
O144 Co140 2.004 . S
O144 C149 1.259 . S
Co145 O146 2.061 . S
Co145 O151 2.052 . S
Co145 O153 2.135 . S
O146 Co145 2.061 . S
O146 C149 1.235 . S
C147 O150 1.238 . S
C147 O151 1.241 . S
C148 O141 1.247 . S
C148 O142 1.261 . S
C149 O144 1.259 . S
C149 O146 1.235 . S
O150 Co140 2.021 . S
O150 C147 1.238 . S
O151 Co145 2.052 . S
O151 C147 1.241 . S
O152 Co140 2.137 . S
O152 C143 1.247 . S
O153 Co140 2.244 . S
O153 C143 1.272 . S
O153 Co145 2.135 . S
Co154 O155 2.216 . S
Co154 O156 2.091 . S
Co154 O158 2.004 . S
Co154 O164 2.021 . S
Co154 O166 2.137 . S
Co154 O167 2.244 . S
O155 Co154 2.216 . S
O155 C162 1.247 . S
O156 Co154 2.091 . S
O156 C162 1.261 . S
C157 O166 1.247 . S
C157 O167 1.272 . S
O158 Co154 2.004 . S
O158 C163 1.259 . S
Co159 O160 2.061 . S
Co159 O165 2.052 . S
Co159 O167 2.135 . S
O160 Co159 2.061 . S
O160 C163 1.235 . S
C161 O164 1.238 . S
C161 O165 1.241 . S
C162 O155 1.247 . S
C162 O156 1.261 . S
C163 O158 1.259 . S
C163 O160 1.235 . S
O164 Co154 2.021 . S
O164 C161 1.238 . S
O165 Co159 2.052 . S
O165 C161 1.241 . S
O166 Co154 2.137 . S
O166 C157 1.247 . S
O167 Co154 2.244 . S
O167 C157 1.272 . S
O167 Co159 2.135 . S
Co168 O169 2.216 . S
Co168 O170 2.091 . S
Co168 O172 2.004 . S
Co168 O178 2.021 . S
Co168 O180 2.137 . S
Co168 O181 2.244 . S
O169 Co168 2.216 . S
O169 C176 1.247 . S
O170 Co168 2.091 . S
O170 C176 1.261 . S
C171 O180 1.247 . S
C171 O181 1.272 . S
O172 Co168 2.004 . S
O172 C177 1.259 . S
Co173 O174 2.061 . S
Co173 O179 2.052 . S
Co173 O181 2.135 . S
O174 Co173 2.061 . S
O174 C177 1.235 . S
C175 O178 1.238 . S
C175 O179 1.241 . S
C176 O169 1.247 . S
C176 O170 1.261 . S
C177 O172 1.259 . S
C177 O174 1.235 . S
O178 Co168 2.021 . S
O178 C175 1.238 . S
O179 Co173 2.052 . S
O179 C175 1.241 . S
O180 Co168 2.137 . S
O180 C171 1.247 . S
O181 Co168 2.244 . S
O181 C171 1.272 . S
O181 Co173 2.135 . S
Co182 O183 2.216 . S
Co182 O184 2.091 . S
Co182 O186 2.004 . S
Co182 O192 2.021 . S
Co182 O194 2.137 . S
Co182 O195 2.244 . S
O183 Co182 2.216 . S
O183 C190 1.247 . S
O184 Co182 2.091 . S
O184 C190 1.261 . S
C185 O194 1.247 . S
C185 O195 1.272 . S
O186 Co182 2.004 . S
O186 C191 1.259 . S
Co187 O188 2.061 . S
Co187 O193 2.052 . S
Co187 O195 2.135 . S
O188 Co187 2.061 . S
O188 C191 1.235 . S
C189 O192 1.238 . S
C189 O193 1.241 . S
C190 O183 1.247 . S
C190 O184 1.261 . S
C191 O186 1.259 . S
C191 O188 1.235 . S
O192 Co182 2.021 . S
O192 C189 1.238 . S
O193 Co187 2.052 . S
O193 C189 1.241 . S
O194 Co182 2.137 . S
O194 C185 1.247 . S
O195 Co182 2.244 . S
O195 C185 1.272 . S
O195 Co187 2.135 . S
Co196 O197 2.216 . S
Co196 O198 2.091 . S
Co196 O200 2.004 . S
Co196 O206 2.021 . S
Co196 O208 2.137 . S
Co196 O209 2.244 . S
O197 Co196 2.216 . S
O197 C204 1.247 . S
O198 Co196 2.091 . S
O198 C204 1.261 . S
C199 O208 1.247 . S
C199 O209 1.272 . S
O200 Co196 2.004 . S
O200 C205 1.259 . S
Co201 O202 2.061 . S
Co201 O207 2.052 . S
Co201 O209 2.135 . S
O202 Co201 2.061 . S
O202 C205 1.235 . S
C203 O206 1.238 . S
C203 O207 1.241 . S
C204 O197 1.247 . S
C204 O198 1.261 . S
C205 O200 1.259 . S
C205 O202 1.235 . S
O206 Co196 2.021 . S
O206 C203 1.238 . S
O207 Co201 2.052 . S
O207 C203 1.241 . S
O208 Co196 2.137 . S
O208 C199 1.247 . S
O209 Co196 2.244 . S
O209 C199 1.272 . S
O209 Co201 2.135 . S
Co210 O211 2.216 . S
Co210 O212 2.091 . S
Co210 O214 2.004 . S
Co210 O220 2.021 . S
Co210 O222 2.137 . S
Co210 O223 2.244 . S
O211 Co210 2.216 . S
O211 C218 1.247 . S
O212 Co210 2.091 . S
O212 C218 1.261 . S
C213 O222 1.247 . S
C213 O223 1.272 . S
O214 Co210 2.004 . S
O214 C219 1.259 . S
Co215 O216 2.061 . S
Co215 O221 2.052 . S
Co215 O223 2.135 . S
O216 Co215 2.061 . S
O216 C219 1.235 . S
C217 O220 1.238 . S
C217 O221 1.241 . S
C218 O211 1.247 . S
C218 O212 1.261 . S
C219 O214 1.259 . S
C219 O216 1.235 . S
O220 Co210 2.021 . S
O220 C217 1.238 . S
O221 Co215 2.052 . S
O221 C217 1.241 . S
O222 Co210 2.137 . S
O222 C213 1.247 . S
O223 Co210 2.244 . S
O223 C213 1.272 . S
O223 Co215 2.135 . S
Co224 O225 2.216 . S
Co224 O226 2.091 . S
Co224 O228 2.004 . S
Co224 O234 2.021 . S
Co224 O236 2.137 . S
Co224 O237 2.244 . S
O225 Co224 2.216 . S
O225 C232 1.247 . S
O226 Co224 2.091 . S
O226 C232 1.261 . S
C227 O236 1.247 . S
C227 O237 1.272 . S
O228 Co224 2.004 . S
O228 C233 1.259 . S
Co229 O230 2.061 . S
Co229 O235 2.052 . S
Co229 O237 2.135 . S
O230 Co229 2.061 . S
O230 C233 1.235 . S
C231 O234 1.238 . S
C231 O235 1.241 . S
C232 O225 1.247 . S
C232 O226 1.261 . S
C233 O228 1.259 . S
C233 O230 1.235 . S
O234 Co224 2.021 . S
O234 C231 1.238 . S
O235 Co229 2.052 . S
O235 C231 1.241 . S
O236 Co224 2.137 . S
O236 C227 1.247 . S
O237 Co224 2.244 . S
O237 C227 1.272 . S
O237 Co229 2.135 . S
Co238 O239 2.216 . S
Co238 O240 2.091 . S
Co238 O242 2.004 . S
Co238 O248 2.021 . S
Co238 O250 2.137 . S
Co238 O251 2.244 . S
O239 Co238 2.216 . S
O239 C246 1.247 . S
O240 Co238 2.091 . S
O240 C246 1.261 . S
C241 O250 1.247 . S
C241 O251 1.272 . S
O242 Co238 2.004 . S
O242 C247 1.259 . S
Co243 O244 2.061 . S
Co243 O249 2.052 . S
Co243 O251 2.135 . S
O244 Co243 2.061 . S
O244 C247 1.235 . S
C245 O248 1.238 . S
C245 O249 1.241 . S
C246 O239 1.247 . S
C246 O240 1.261 . S
C247 O242 1.259 . S
C247 O244 1.235 . S
O248 Co238 2.021 . S
O248 C245 1.238 . S
O249 Co243 2.052 . S
O249 C245 1.241 . S
O250 Co238 2.137 . S
O250 C241 1.247 . S
O251 Co238 2.244 . S
O251 C241 1.272 . S
O251 Co243 2.135 . S
Co252 O253 2.216 . S
Co252 O254 2.091 . S
Co252 O256 2.004 . S
Co252 O262 2.021 . S
Co252 O264 2.137 . S
Co252 O265 2.244 . S
O253 Co252 2.216 . S
O253 C260 1.247 . S
O254 Co252 2.091 . S
O254 C260 1.261 . S
C255 O264 1.247 . S
C255 O265 1.272 . S
O256 Co252 2.004 . S
O256 C261 1.259 . S
Co257 O258 2.061 . S
Co257 O263 2.052 . S
Co257 O265 2.135 . S
O258 Co257 2.061 . S
O258 C261 1.235 . S
C259 O262 1.238 . S
C259 O263 1.241 . S
C260 O253 1.247 . S
C260 O254 1.261 . S
C261 O256 1.259 . S
C261 O258 1.235 . S
O262 Co252 2.021 . S
O262 C259 1.238 . S
O263 Co257 2.052 . S
O263 C259 1.241 . S
O264 Co252 2.137 . S
O264 C255 1.247 . S
O265 Co252 2.244 . S
O265 C255 1.272 . S
O265 Co257 2.135 . S
Co266 O267 2.216 . S
Co266 O268 2.091 . S
Co266 O270 2.004 . S
Co266 O276 2.021 . S
Co266 O278 2.137 . S
Co266 O279 2.244 . S
O267 Co266 2.216 . S
O267 C274 1.247 . S
O268 Co266 2.091 . S
O268 C274 1.261 . S
C269 O278 1.247 . S
C269 O279 1.272 . S
O270 Co266 2.004 . S
O270 C275 1.259 . S
Co271 O272 2.061 . S
Co271 O277 2.052 . S
Co271 O279 2.135 . S
O272 Co271 2.061 . S
O272 C275 1.235 . S
C273 O276 1.238 . S
C273 O277 1.241 . S
C274 O267 1.247 . S
C274 O268 1.261 . S
C275 O270 1.259 . S
C275 O272 1.235 . S
O276 Co266 2.021 . S
O276 C273 1.238 . S
O277 Co271 2.052 . S
O277 C273 1.241 . S
O278 Co266 2.137 . S
O278 C269 1.247 . S
O279 Co266 2.244 . S
O279 C269 1.272 . S
O279 Co271 2.135 . S
Co280 O281 2.216 . S
Co280 O282 2.091 . S
Co280 O284 2.004 . S
Co280 O290 2.021 . S
Co280 O292 2.137 . S
Co280 O293 2.244 . S
O281 Co280 2.216 . S
O281 C288 1.247 . S
O282 Co280 2.091 . S
O282 C288 1.261 . S
C283 O292 1.247 . S
C283 O293 1.272 . S
O284 Co280 2.004 . S
O284 C289 1.259 . S
Co285 O286 2.061 . S
Co285 O291 2.052 . S
Co285 O293 2.135 . S
O286 Co285 2.061 . S
O286 C289 1.235 . S
C287 O290 1.238 . S
C287 O291 1.241 . S
C288 O281 1.247 . S
C288 O282 1.261 . S
C289 O284 1.259 . S
C289 O286 1.235 . S
O290 Co280 2.021 . S
O290 C287 1.238 . S
O291 Co285 2.052 . S
O291 C287 1.241 . S
O292 Co280 2.137 . S
O292 C283 1.247 . S
O293 Co280 2.244 . S
O293 C283 1.272 . S
O293 Co285 2.135 . S
Co294 O295 2.216 . S
Co294 O296 2.091 . S
Co294 O298 2.004 . S
Co294 O304 2.021 . S
Co294 O306 2.137 1_554 S
Co294 O307 2.244 . S
O295 Co294 2.216 . S
O295 C302 1.247 . S
O296 Co294 2.091 . S
O296 C302 1.261 . S
C297 O306 1.247 . S
C297 O307 1.272 1_556 S
O298 Co294 2.004 . S
O298 C303 1.259 . S
Co299 O300 2.061 . S
Co299 O305 2.052 . S
Co299 O307 2.135 . S
O300 Co299 2.061 . S
O300 C303 1.235 . S
C301 O304 1.238 . S
C301 O305 1.241 . S
C302 O295 1.247 . S
C302 O296 1.261 . S
C303 O298 1.259 . S
C303 O300 1.235 . S
O304 Co294 2.021 . S
O304 C301 1.238 . S
O305 Co299 2.052 . S
O305 C301 1.241 . S
O306 Co294 2.137 1_556 S
O306 C297 1.247 . S
O307 Co294 2.244 . S
O307 C297 1.272 1_554 S
O307 Co299 2.135 . S
Co308 O309 2.216 . S
Co308 O310 2.091 . S
Co308 O312 2.004 . S
Co308 O318 2.021 . S
Co308 O320 2.137 1_554 S
Co308 O321 2.244 . S
O309 Co308 2.216 . S
O309 C316 1.247 . S
O310 Co308 2.091 . S
O310 C316 1.261 . S
C311 O320 1.247 . S
C311 O321 1.272 1_556 S
O312 Co308 2.004 . S
O312 C317 1.259 . S
Co313 O314 2.061 . S
Co313 O319 2.052 . S
Co313 O321 2.135 . S
O314 Co313 2.061 . S
O314 C317 1.235 . S
C315 O318 1.238 . S
C315 O319 1.241 . S
C316 O309 1.247 . S
C316 O310 1.261 . S
C317 O312 1.259 . S
C317 O314 1.235 . S
O318 Co308 2.021 . S
O318 C315 1.238 . S
O319 Co313 2.052 . S
O319 C315 1.241 . S
O320 Co308 2.137 1_556 S
O320 C311 1.247 . S
O321 Co308 2.244 . S
O321 C311 1.272 1_554 S
O321 Co313 2.135 . S
Co322 O323 2.216 . S
Co322 O324 2.091 . S
Co322 O326 2.004 . S
Co322 O332 2.021 . S
Co322 O334 2.137 1_554 S
Co322 O335 2.244 . S
O323 Co322 2.216 . S
O323 C330 1.247 . S
O324 Co322 2.091 . S
O324 C330 1.261 . S
C325 O334 1.247 . S
C325 O335 1.272 1_556 S
O326 Co322 2.004 . S
O326 C331 1.259 . S
Co327 O328 2.061 . S
Co327 O333 2.052 . S
Co327 O335 2.135 . S
O328 Co327 2.061 . S
O328 C331 1.235 . S
C329 O332 1.238 . S
C329 O333 1.241 . S
C330 O323 1.247 . S
C330 O324 1.261 . S
C331 O326 1.259 . S
C331 O328 1.235 . S
O332 Co322 2.021 . S
O332 C329 1.238 . S
O333 Co327 2.052 . S
O333 C329 1.241 . S
O334 Co322 2.137 1_556 S
O334 C325 1.247 . S
O335 Co322 2.244 . S
O335 C325 1.272 1_554 S
O335 Co327 2.135 . S
Co336 O337 2.216 . S
Co336 O338 2.091 . S
Co336 O340 2.004 . S
Co336 O346 2.021 . S
Co336 O348 2.137 . S
Co336 O349 2.244 . S
O337 Co336 2.216 . S
O337 C344 1.247 . S
O338 Co336 2.091 . S
O338 C344 1.261 . S
C339 O348 1.247 . S
C339 O349 1.272 . S
O340 Co336 2.004 . S
O340 C345 1.259 . S
Co341 O342 2.061 . S
Co341 O347 2.052 . S
Co341 O349 2.135 . S
O342 Co341 2.061 . S
O342 C345 1.235 . S
C343 O346 1.238 . S
C343 O347 1.241 . S
C344 O337 1.247 . S
C344 O338 1.261 . S
C345 O340 1.259 . S
C345 O342 1.235 . S
O346 Co336 2.021 . S
O346 C343 1.238 . S
O347 Co341 2.052 . S
O347 C343 1.241 . S
O348 Co336 2.137 . S
O348 C339 1.247 . S
O349 Co336 2.244 . S
O349 C339 1.272 . S
O349 Co341 2.135 . S
Co350 O351 2.216 . S
Co350 O352 2.091 . S
Co350 O354 2.004 . S
Co350 O360 2.021 . S
Co350 O362 2.137 . S
Co350 O363 2.244 . S
O351 Co350 2.216 . S
O351 C358 1.247 . S
O352 Co350 2.091 . S
O352 C358 1.261 . S
C353 O362 1.247 . S
C353 O363 1.272 . S
O354 Co350 2.004 . S
O354 C359 1.259 . S
Co355 O356 2.061 . S
Co355 O361 2.052 . S
Co355 O363 2.135 . S
O356 Co355 2.061 . S
O356 C359 1.235 . S
C357 O360 1.238 . S
C357 O361 1.241 . S
C358 O351 1.247 . S
C358 O352 1.261 . S
C359 O354 1.259 . S
C359 O356 1.235 . S
O360 Co350 2.021 . S
O360 C357 1.238 . S
O361 Co355 2.052 . S
O361 C357 1.241 . S
O362 Co350 2.137 . S
O362 C353 1.247 . S
O363 Co350 2.244 . S
O363 C353 1.272 . S
O363 Co355 2.135 . S
Co364 O365 2.216 . S
Co364 O366 2.091 . S
Co364 O368 2.004 . S
Co364 O374 2.021 . S
Co364 O376 2.137 . S
Co364 O377 2.244 . S
O365 Co364 2.216 . S
O365 C372 1.247 . S
O366 Co364 2.091 . S
O366 C372 1.261 . S
C367 O376 1.247 . S
C367 O377 1.272 . S
O368 Co364 2.004 . S
O368 C373 1.259 . S
Co369 O370 2.061 . S
Co369 O375 2.052 . S
Co369 O377 2.135 . S
O370 Co369 2.061 . S
O370 C373 1.235 . S
C371 O374 1.238 . S
C371 O375 1.241 . S
C372 O365 1.247 . S
C372 O366 1.261 . S
C373 O368 1.259 . S
C373 O370 1.235 . S
O374 Co364 2.021 . S
O374 C371 1.238 . S
O375 Co369 2.052 . S
O375 C371 1.241 . S
O376 Co364 2.137 . S
O376 C367 1.247 . S
O377 Co364 2.244 . S
O377 C367 1.272 . S
O377 Co369 2.135 . S
Co378 O379 2.216 . S
Co378 O380 2.091 . S
Co378 O382 2.004 . S
Co378 O388 2.021 . S
Co378 O390 2.137 1_556 S
Co378 O391 2.244 . S
O379 Co378 2.216 . S
O379 C386 1.247 . S
O380 Co378 2.091 . S
O380 C386 1.261 . S
C381 O390 1.247 . S
C381 O391 1.272 1_554 S
O382 Co378 2.004 . S
O382 C387 1.259 . S
Co383 O384 2.061 . S
Co383 O389 2.052 . S
Co383 O391 2.135 . S
O384 Co383 2.061 . S
O384 C387 1.235 . S
C385 O388 1.238 . S
C385 O389 1.241 . S
C386 O379 1.247 . S
C386 O380 1.261 . S
C387 O382 1.259 . S
C387 O384 1.235 . S
O388 Co378 2.021 . S
O388 C385 1.238 . S
O389 Co383 2.052 . S
O389 C385 1.241 . S
O390 Co378 2.137 1_554 S
O390 C381 1.247 . S
O391 Co378 2.244 . S
O391 C381 1.272 1_556 S
O391 Co383 2.135 . S
Co392 O393 2.216 . S
Co392 O394 2.091 . S
Co392 O396 2.004 . S
Co392 O402 2.021 . S
Co392 O404 2.137 1_556 S
Co392 O405 2.244 . S
O393 Co392 2.216 . S
O393 C400 1.247 . S
O394 Co392 2.091 . S
O394 C400 1.261 . S
C395 O404 1.247 . S
C395 O405 1.272 1_554 S
O396 Co392 2.004 . S
O396 C401 1.259 . S
Co397 O398 2.061 . S
Co397 O403 2.052 . S
Co397 O405 2.135 . S
O398 Co397 2.061 . S
O398 C401 1.235 . S
C399 O402 1.238 . S
C399 O403 1.241 . S
C400 O393 1.247 . S
C400 O394 1.261 . S
C401 O396 1.259 . S
C401 O398 1.235 . S
O402 Co392 2.021 . S
O402 C399 1.238 . S
O403 Co397 2.052 . S
O403 C399 1.241 . S
O404 Co392 2.137 1_554 S
O404 C395 1.247 . S
O405 Co392 2.244 . S
O405 C395 1.272 1_556 S
O405 Co397 2.135 . S
Co406 O407 2.216 . S
Co406 O408 2.091 . S
Co406 O410 2.004 . S
Co406 O416 2.021 . S
Co406 O418 2.137 1_556 S
Co406 O419 2.244 . S
O407 Co406 2.216 . S
O407 C414 1.247 . S
O408 Co406 2.091 . S
O408 C414 1.261 . S
C409 O418 1.247 . S
C409 O419 1.272 1_554 S
O410 Co406 2.004 . S
O410 C415 1.259 . S
Co411 O412 2.061 . S
Co411 O417 2.052 . S
Co411 O419 2.135 . S
O412 Co411 2.061 . S
O412 C415 1.235 . S
C413 O416 1.238 . S
C413 O417 1.241 . S
C414 O407 1.247 . S
C414 O408 1.261 . S
C415 O410 1.259 . S
C415 O412 1.235 . S
O416 Co406 2.021 . S
O416 C413 1.238 . S
O417 Co411 2.052 . S
O417 C413 1.241 . S
O418 Co406 2.137 1_554 S
O418 C409 1.247 . S
O419 Co406 2.244 . S
O419 C409 1.272 1_556 S
O419 Co411 2.135 . S
Co420 O421 2.216 . S
Co420 O422 2.091 . S
Co420 O424 2.004 . S
Co420 O430 2.021 . S
Co420 O432 2.137 . S
Co420 O433 2.244 . S
O421 Co420 2.216 . S
O421 C428 1.247 . S
O422 Co420 2.091 . S
O422 C428 1.261 . S
C423 O432 1.247 . S
C423 O433 1.272 . S
O424 Co420 2.004 . S
O424 C429 1.259 . S
Co425 O426 2.061 . S
Co425 O431 2.052 . S
Co425 O433 2.135 . S
O426 Co425 2.061 . S
O426 C429 1.235 . S
C427 O430 1.238 . S
C427 O431 1.241 . S
C428 O421 1.247 . S
C428 O422 1.261 . S
C429 O424 1.259 . S
C429 O426 1.235 . S
O430 Co420 2.021 . S
O430 C427 1.238 . S
O431 Co425 2.052 . S
O431 C427 1.241 . S
O432 Co420 2.137 . S
O432 C423 1.247 . S
O433 Co420 2.244 . S
O433 C423 1.272 . S
O433 Co425 2.135 . S
Co434 O435 2.216 . S
Co434 O436 2.091 . S
Co434 O438 2.004 . S
Co434 O444 2.021 . S
Co434 O446 2.137 . S
Co434 O447 2.244 . S
O435 Co434 2.216 . S
O435 C442 1.247 . S
O436 Co434 2.091 . S
O436 C442 1.261 . S
C437 O446 1.247 . S
C437 O447 1.272 . S
O438 Co434 2.004 . S
O438 C443 1.259 . S
Co439 O440 2.061 . S
Co439 O445 2.052 . S
Co439 O447 2.135 . S
O440 Co439 2.061 . S
O440 C443 1.235 . S
C441 O444 1.238 . S
C441 O445 1.241 . S
C442 O435 1.247 . S
C442 O436 1.261 . S
C443 O438 1.259 . S
C443 O440 1.235 . S
O444 Co434 2.021 . S
O444 C441 1.238 . S
O445 Co439 2.052 . S
O445 C441 1.241 . S
O446 Co434 2.137 . S
O446 C437 1.247 . S
O447 Co434 2.244 . S
O447 C437 1.272 . S
O447 Co439 2.135 . S
Co448 O449 2.216 . S
Co448 O450 2.091 . S
Co448 O452 2.004 . S
Co448 O458 2.021 . S
Co448 O460 2.137 . S
Co448 O461 2.244 . S
O449 Co448 2.216 . S
O449 C456 1.247 . S
O450 Co448 2.091 . S
O450 C456 1.261 . S
C451 O460 1.247 . S
C451 O461 1.272 . S
O452 Co448 2.004 . S
O452 C457 1.259 . S
Co453 O454 2.061 . S
Co453 O459 2.052 . S
Co453 O461 2.135 . S
O454 Co453 2.061 . S
O454 C457 1.235 . S
C455 O458 1.238 . S
C455 O459 1.241 . S
C456 O449 1.247 . S
C456 O450 1.261 . S
C457 O452 1.259 . S
C457 O454 1.235 . S
O458 Co448 2.021 . S
O458 C455 1.238 . S
O459 Co453 2.052 . S
O459 C455 1.241 . S
O460 Co448 2.137 . S
O460 C451 1.247 . S
O461 Co448 2.244 . S
O461 C451 1.272 . S
O461 Co453 2.135 . S
Co462 O463 2.216 . S
Co462 O464 2.091 . S
Co462 O466 2.004 . S
Co462 O472 2.021 . S
Co462 O474 2.137 . S
Co462 O475 2.244 . S
O463 Co462 2.216 . S
O463 C470 1.247 . S
O464 Co462 2.091 . S
O464 C470 1.261 . S
C465 O474 1.247 . S
C465 O475 1.272 . S
O466 Co462 2.004 . S
O466 C471 1.259 . S
Co467 O468 2.061 . S
Co467 O473 2.052 . S
Co467 O475 2.135 . S
O468 Co467 2.061 . S
O468 C471 1.235 . S
C469 O472 1.238 . S
C469 O473 1.241 . S
C470 O463 1.247 . S
C470 O464 1.261 . S
C471 O466 1.259 . S
C471 O468 1.235 . S
O472 Co462 2.021 . S
O472 C469 1.238 . S
O473 Co467 2.052 . S
O473 C469 1.241 . S
O474 Co462 2.137 . S
O474 C465 1.247 . S
O475 Co462 2.244 . S
O475 C465 1.272 . S
O475 Co467 2.135 . S
Co476 O477 2.216 . S
Co476 O478 2.091 . S
Co476 O480 2.004 . S
Co476 O486 2.021 . S
Co476 O488 2.137 . S
Co476 O489 2.244 . S
O477 Co476 2.216 . S
O477 C484 1.247 . S
O478 Co476 2.091 . S
O478 C484 1.261 . S
C479 O488 1.247 . S
C479 O489 1.272 . S
O480 Co476 2.004 . S
O480 C485 1.259 . S
Co481 O482 2.061 . S
Co481 O487 2.052 . S
Co481 O489 2.135 . S
O482 Co481 2.061 . S
O482 C485 1.235 . S
C483 O486 1.238 . S
C483 O487 1.241 . S
C484 O477 1.247 . S
C484 O478 1.261 . S
C485 O480 1.259 . S
C485 O482 1.235 . S
O486 Co476 2.021 . S
O486 C483 1.238 . S
O487 Co481 2.052 . S
O487 C483 1.241 . S
O488 Co476 2.137 . S
O488 C479 1.247 . S
O489 Co476 2.244 . S
O489 C479 1.272 . S
O489 Co481 2.135 . S
Co490 O491 2.216 . S
Co490 O492 2.091 . S
Co490 O494 2.004 . S
Co490 O500 2.021 . S
Co490 O502 2.137 . S
Co490 O503 2.244 . S
O491 Co490 2.216 . S
O491 C498 1.247 . S
O492 Co490 2.091 . S
O492 C498 1.261 . S
C493 O502 1.247 . S
C493 O503 1.272 . S
O494 Co490 2.004 . S
O494 C499 1.259 . S
Co495 O496 2.061 . S
Co495 O501 2.052 . S
Co495 O503 2.135 . S
O496 Co495 2.061 . S
O496 C499 1.235 . S
C497 O500 1.238 . S
C497 O501 1.241 . S
C498 O491 1.247 . S
C498 O492 1.261 . S
C499 O494 1.259 . S
C499 O496 1.235 . S
O500 Co490 2.021 . S
O500 C497 1.238 . S
O501 Co495 2.052 . S
O501 C497 1.241 . S
O502 Co490 2.137 . S
O502 C493 1.247 . S
O503 Co490 2.244 . S
O503 C493 1.272 . S
O503 Co495 2.135 . S
H504 C512 0.929 . S
H505 C514 0.930 . S
H506 C516 0.930 . S
H507 C519 0.929 . S
H508 C522 0.930 . S
H509 C524 0.960 . S
H510 C524 0.960 . S
H511 C524 0.960 . S
C512 H504 0.929 . S
C512 C513 1.377 . S
C512 C514 1.384 . S
C513 C512 1.377 . S
C513 C519 1.390 . S
C514 H505 0.930 . S
C514 C512 1.384 . S
C514 C515 1.372 . S
C515 C514 1.372 . S
C515 C516 1.400 . S
C515 C520 1.490 . S
C516 H506 0.930 . S
C516 C515 1.400 . S
C516 C519 1.386 . S
H517 C533 0.930 . S
H518 C534 0.931 . S
C519 H507 0.929 . S
C519 C513 1.390 . S
C519 C516 1.386 . S
C520 C515 1.490 . S
C520 C522 1.395 . S
C520 C523 1.403 . S
H521 C527 0.930 1_554 S
C522 H508 0.930 . S
C522 C520 1.395 . S
C522 C525 1.403 . S
C523 C520 1.403 . S
C523 C524 1.524 . S
C523 C527 1.400 . S
C524 H509 0.960 . S
C524 H510 0.960 . S
C524 H511 0.960 . S
C524 C523 1.524 . S
C525 C522 1.403 . S
C525 C526 1.392 . S
C525 C529 1.495 . S
C526 C525 1.392 . S
C526 C527 1.385 . S
C526 C528 1.478 1_556 S
C527 H521 0.930 1_556 S
C527 C523 1.400 . S
C527 C526 1.385 . S
C528 C526 1.478 1_554 S
C528 C530 1.381 . S
C528 C534 1.383 . S
C529 C525 1.495 . S
C529 H535 0.959 . S
C529 H536 0.961 . S
C529 H537 0.960 . S
C530 C528 1.381 . S
C530 C531 1.394 . S
C530 H538 0.930 . S
C531 C530 1.394 . S
C531 C532 1.383 . S
C531 H539 0.929 . S
C532 C531 1.383 . S
C532 C533 1.377 . S
C533 H517 0.930 . S
C533 C532 1.377 . S
C533 C534 1.379 . S
C534 H518 0.931 . S
C534 C528 1.383 . S
C534 C533 1.379 . S
H535 C529 0.959 . S
H536 C529 0.961 . S
H537 C529 0.960 . S
H538 C530 0.930 . S
H539 C531 0.929 . S
H540 C548 0.929 . S
H541 C550 0.930 . S
H542 C552 0.930 . S
H543 C555 0.929 . S
H544 C558 0.930 . S
H545 C560 0.960 . S
H546 C560 0.960 . S
H547 C560 0.960 . S
C548 H540 0.929 . S
C548 C549 1.377 . S
C548 C550 1.384 . S
C549 C548 1.377 . S
C549 C555 1.390 . S
C550 H541 0.930 . S
C550 C548 1.384 . S
C550 C551 1.372 . S
C551 C550 1.372 . S
C551 C552 1.400 . S
C551 C556 1.490 . S
C552 H542 0.930 . S
C552 C551 1.400 . S
C552 C555 1.386 . S
H553 C569 0.930 . S
H554 C570 0.931 . S
C555 H543 0.929 . S
C555 C549 1.390 . S
C555 C552 1.386 . S
C556 C551 1.490 . S
C556 C558 1.395 . S
C556 C559 1.403 . S
H557 C563 0.930 . S
C558 H544 0.930 . S
C558 C556 1.395 . S
C558 C561 1.403 . S
C559 C556 1.403 . S
C559 C560 1.524 . S
C559 C563 1.400 . S
C560 H545 0.960 . S
C560 H546 0.960 . S
C560 H547 0.960 . S
C560 C559 1.524 . S
C561 C558 1.403 . S
C561 C562 1.392 . S
C561 C565 1.495 1_556 S
C562 C561 1.392 . S
C562 C563 1.385 . S
C562 C564 1.478 1_556 S
C563 H557 0.930 . S
C563 C559 1.400 . S
C563 C562 1.385 . S
C564 C562 1.478 1_554 S
C564 C566 1.381 . S
C564 C570 1.383 . S
C565 C561 1.495 1_554 S
C565 H571 0.959 1_554 S
C565 H572 0.961 . S
C565 H573 0.960 . S
C566 C564 1.381 . S
C566 C567 1.394 . S
C566 H574 0.930 . S
C567 C566 1.394 . S
C567 C568 1.383 . S
C567 H575 0.929 . S
C568 C567 1.383 . S
C568 C569 1.377 . S
C569 H553 0.930 . S
C569 C568 1.377 . S
C569 C570 1.379 . S
C570 H554 0.931 . S
C570 C564 1.383 . S
C570 C569 1.379 . S
H571 C565 0.959 1_556 S
H572 C565 0.961 . S
H573 C565 0.960 . S
H574 C566 0.930 . S
H575 C567 0.929 . S
H576 C584 0.929 . S
H577 C586 0.930 . S
H578 C588 0.930 . S
H579 C591 0.929 . S
H580 C594 0.930 1_554 S
H581 C596 0.960 . S
H582 C596 0.960 . S
H583 C596 0.960 . S
C584 H576 0.929 . S
C584 C585 1.377 . S
C584 C586 1.384 . S
C585 C584 1.377 . S
C585 C591 1.390 . S
C586 H577 0.930 . S
C586 C584 1.384 . S
C586 C587 1.372 . S
C587 C586 1.372 . S
C587 C588 1.400 . S
C587 C592 1.490 1_554 S
C588 H578 0.930 . S
C588 C587 1.400 . S
C588 C591 1.386 . S
H589 C605 0.930 . S
H590 C606 0.931 . S
C591 H579 0.929 . S
C591 C585 1.390 . S
C591 C588 1.386 . S
C592 C587 1.490 1_556 S
C592 C594 1.395 . S
C592 C595 1.403 . S
H593 C599 0.930 . S
C594 H580 0.930 1_556 S
C594 C592 1.395 . S
C594 C597 1.403 . S
C595 C592 1.403 . S
C595 C596 1.524 . S
C595 C599 1.400 . S
C596 H581 0.960 . S
C596 H582 0.960 . S
C596 H583 0.960 . S
C596 C595 1.524 . S
C597 C594 1.403 . S
C597 C598 1.392 . S
C597 C601 1.495 . S
C598 C597 1.392 . S
C598 C599 1.385 . S
C598 C600 1.478 . S
C599 H593 0.930 . S
C599 C595 1.400 . S
C599 C598 1.385 . S
C600 C598 1.478 . S
C600 C602 1.381 . S
C600 C606 1.383 . S
C601 C597 1.495 . S
C601 H607 0.959 . S
C601 H608 0.961 . S
C601 H609 0.960 . S
C602 C600 1.381 . S
C602 C603 1.394 . S
C602 H610 0.930 . S
C603 C602 1.394 . S
C603 C604 1.383 . S
C603 H611 0.929 . S
C604 C603 1.383 . S
C604 C605 1.377 . S
C605 H589 0.930 . S
C605 C604 1.377 . S
C605 C606 1.379 . S
C606 H590 0.931 . S
C606 C600 1.383 . S
C606 C605 1.379 . S
H607 C601 0.959 . S
H608 C601 0.961 . S
H609 C601 0.960 . S
H610 C602 0.930 . S
H611 C603 0.929 . S
H612 C620 0.929 . S
H613 C622 0.930 . S
H614 C624 0.930 . S
H615 C627 0.929 . S
H616 C630 0.930 . S
H617 C632 0.960 . S
H618 C632 0.960 . S
H619 C632 0.960 . S
C620 H612 0.929 . S
C620 C621 1.377 . S
C620 C622 1.384 . S
C621 C620 1.377 . S
C621 C627 1.390 . S
C622 H613 0.930 . S
C622 C620 1.384 . S
C622 C623 1.372 . S
C623 C622 1.372 . S
C623 C624 1.400 . S
C623 C628 1.490 . S
C624 H614 0.930 . S
C624 C623 1.400 . S
C624 C627 1.386 . S
H625 C641 0.930 . S
H626 C642 0.931 . S
C627 H615 0.929 . S
C627 C621 1.390 . S
C627 C624 1.386 . S
C628 C623 1.490 . S
C628 C630 1.395 . S
C628 C631 1.403 . S
H629 C635 0.930 . S
C630 H616 0.930 . S
C630 C628 1.395 . S
C630 C633 1.403 . S
C631 C628 1.403 . S
C631 C632 1.524 . S
C631 C635 1.400 . S
C632 H617 0.960 . S
C632 H618 0.960 . S
C632 H619 0.960 . S
C632 C631 1.524 . S
C633 C630 1.403 . S
C633 C634 1.392 . S
C633 C637 1.495 . S
C634 C633 1.392 . S
C634 C635 1.385 . S
C634 C636 1.478 . S
C635 H629 0.930 . S
C635 C631 1.400 . S
C635 C634 1.385 . S
C636 C634 1.478 . S
C636 C638 1.381 . S
C636 C642 1.383 . S
C637 C633 1.495 . S
C637 H643 0.959 . S
C637 H644 0.961 . S
C637 H645 0.960 . S
C638 C636 1.381 . S
C638 C639 1.394 . S
C638 H646 0.930 . S
C639 C638 1.394 . S
C639 C640 1.383 . S
C639 H647 0.929 . S
C640 C639 1.383 . S
C640 C641 1.377 . S
C641 H625 0.930 . S
C641 C640 1.377 . S
C641 C642 1.379 . S
C642 H626 0.931 . S
C642 C636 1.383 . S
C642 C641 1.379 . S
H643 C637 0.959 . S
H644 C637 0.961 . S
H645 C637 0.960 . S
H646 C638 0.930 . S
H647 C639 0.929 . S
H648 C656 0.929 . S
H649 C658 0.930 . S
H650 C660 0.930 . S
H651 C663 0.929 . S
H652 C666 0.930 . S
H653 C668 0.960 . S
H654 C668 0.960 . S
H655 C668 0.960 . S
C656 H648 0.929 . S
C656 C657 1.377 . S
C656 C658 1.384 . S
C657 C656 1.377 . S
C657 C663 1.390 . S
C658 H649 0.930 . S
C658 C656 1.384 . S
C658 C659 1.372 . S
C659 C658 1.372 . S
C659 C660 1.400 . S
C659 C664 1.490 . S
C660 H650 0.930 . S
C660 C659 1.400 . S
C660 C663 1.386 . S
H661 C677 0.930 . S
H662 C678 0.931 . S
C663 H651 0.929 . S
C663 C657 1.390 . S
C663 C660 1.386 . S
C664 C659 1.490 . S
C664 C666 1.395 . S
C664 C667 1.403 . S
H665 C671 0.930 . S
C666 H652 0.930 . S
C666 C664 1.395 . S
C666 C669 1.403 . S
C667 C664 1.403 . S
C667 C668 1.524 . S
C667 C671 1.400 . S
C668 H653 0.960 . S
C668 H654 0.960 . S
C668 H655 0.960 . S
C668 C667 1.524 . S
C669 C666 1.403 . S
C669 C670 1.392 . S
C669 C673 1.495 . S
C670 C669 1.392 . S
C670 C671 1.385 . S
C670 C672 1.478 . S
C671 H665 0.930 . S
C671 C667 1.400 . S
C671 C670 1.385 . S
C672 C670 1.478 . S
C672 C674 1.381 . S
C672 C678 1.383 . S
C673 C669 1.495 . S
C673 H679 0.959 . S
C673 H680 0.961 . S
C673 H681 0.960 . S
C674 C672 1.381 . S
C674 C675 1.394 . S
C674 H682 0.930 . S
C675 C674 1.394 . S
C675 C676 1.383 . S
C675 H683 0.929 . S
C676 C675 1.383 . S
C676 C677 1.377 . S
C677 H661 0.930 . S
C677 C676 1.377 . S
C677 C678 1.379 . S
C678 H662 0.931 . S
C678 C672 1.383 . S
C678 C677 1.379 . S
H679 C673 0.959 . S
H680 C673 0.961 . S
H681 C673 0.960 . S
H682 C674 0.930 . S
H683 C675 0.929 . S
H684 C692 0.929 . S
H685 C694 0.930 . S
H686 C696 0.930 . S
H687 C699 0.929 . S
H688 C702 0.930 . S
H689 C704 0.960 . S
H690 C704 0.960 . S
H691 C704 0.960 . S
C692 H684 0.929 . S
C692 C693 1.377 . S
C692 C694 1.384 . S
C693 C692 1.377 . S
C693 C699 1.390 . S
C694 H685 0.930 . S
C694 C692 1.384 . S
C694 C695 1.372 . S
C695 C694 1.372 . S
C695 C696 1.400 . S
C695 C700 1.490 . S
C696 H686 0.930 . S
C696 C695 1.400 . S
C696 C699 1.386 . S
H697 C713 0.930 . S
H698 C714 0.931 . S
C699 H687 0.929 . S
C699 C693 1.390 . S
C699 C696 1.386 . S
C700 C695 1.490 . S
C700 C702 1.395 . S
C700 C703 1.403 . S
H701 C707 0.930 . S
C702 H688 0.930 . S
C702 C700 1.395 . S
C702 C705 1.403 . S
C703 C700 1.403 . S
C703 C704 1.524 . S
C703 C707 1.400 . S
C704 H689 0.960 . S
C704 H690 0.960 . S
C704 H691 0.960 . S
C704 C703 1.524 . S
C705 C702 1.403 . S
C705 C706 1.392 . S
C705 C709 1.495 . S
C706 C705 1.392 . S
C706 C707 1.385 . S
C706 C708 1.478 . S
C707 H701 0.930 . S
C707 C703 1.400 . S
C707 C706 1.385 . S
C708 C706 1.478 . S
C708 C710 1.381 . S
C708 C714 1.383 . S
C709 C705 1.495 . S
C709 H715 0.959 . S
C709 H716 0.961 . S
C709 H717 0.960 . S
C710 C708 1.381 . S
C710 C711 1.394 . S
C710 H718 0.930 . S
C711 C710 1.394 . S
C711 C712 1.383 . S
C711 H719 0.929 . S
C712 C711 1.383 . S
C712 C713 1.377 . S
C713 H697 0.930 . S
C713 C712 1.377 . S
C713 C714 1.379 . S
C714 H698 0.931 . S
C714 C708 1.383 . S
C714 C713 1.379 . S
H715 C709 0.959 . S
H716 C709 0.961 . S
H717 C709 0.960 . S
H718 C710 0.930 . S
H719 C711 0.929 . S
H720 C728 0.929 . S
H721 C730 0.930 . S
H722 C732 0.930 . S
H723 C735 0.929 . S
H724 C738 0.930 . S
H725 C740 0.960 . S
H726 C740 0.960 . S
H727 C740 0.960 . S
C728 H720 0.929 . S
C728 C729 1.377 . S
C728 C730 1.384 . S
C729 C728 1.377 . S
C729 C735 1.390 . S
C730 H721 0.930 . S
C730 C728 1.384 . S
C730 C731 1.372 . S
C731 C730 1.372 . S
C731 C732 1.400 . S
C731 C736 1.490 . S
C732 H722 0.930 . S
C732 C731 1.400 . S
C732 C735 1.386 . S
H733 C749 0.930 . S
H734 C750 0.931 . S
C735 H723 0.929 . S
C735 C729 1.390 . S
C735 C732 1.386 . S
C736 C731 1.490 . S
C736 C738 1.395 . S
C736 C739 1.403 . S
H737 C743 0.930 . S
C738 H724 0.930 . S
C738 C736 1.395 . S
C738 C741 1.403 . S
C739 C736 1.403 . S
C739 C740 1.524 . S
C739 C743 1.400 . S
C740 H725 0.960 . S
C740 H726 0.960 . S
C740 H727 0.960 . S
C740 C739 1.524 . S
C741 C738 1.403 . S
C741 C742 1.392 . S
C741 C745 1.495 1_554 S
C742 C741 1.392 . S
C742 C743 1.385 . S
C742 C744 1.478 1_554 S
C743 H737 0.930 . S
C743 C739 1.400 . S
C743 C742 1.385 . S
C744 C742 1.478 1_556 S
C744 C746 1.381 . S
C744 C750 1.383 . S
C745 C741 1.495 1_556 S
C745 H751 0.959 1_556 S
C745 H752 0.961 . S
C745 H753 0.960 . S
C746 C744 1.381 . S
C746 C747 1.394 . S
C746 H754 0.930 . S
C747 C746 1.394 . S
C747 C748 1.383 . S
C747 H755 0.929 . S
C748 C747 1.383 . S
C748 C749 1.377 . S
C749 H733 0.930 . S
C749 C748 1.377 . S
C749 C750 1.379 . S
C750 H734 0.931 . S
C750 C744 1.383 . S
C750 C749 1.379 . S
H751 C745 0.959 1_554 S
H752 C745 0.961 . S
H753 C745 0.960 . S
H754 C746 0.930 . S
H755 C747 0.929 . S
H756 C764 0.929 . S
H757 C766 0.930 . S
H758 C768 0.930 . S
H759 C771 0.929 . S
H760 C774 0.930 . S
H761 C776 0.960 . S
H762 C776 0.960 . S
H763 C776 0.960 . S
C764 H756 0.929 . S
C764 C765 1.377 . S
C764 C766 1.384 . S
C765 C764 1.377 . S
C765 C771 1.390 . S
C766 H757 0.930 . S
C766 C764 1.384 . S
C766 C767 1.372 . S
C767 C766 1.372 . S
C767 C768 1.400 . S
C767 C772 1.490 . S
C768 H758 0.930 . S
C768 C767 1.400 . S
C768 C771 1.386 . S
H769 C785 0.930 . S
H770 C786 0.931 . S
C771 H759 0.929 . S
C771 C765 1.390 . S
C771 C768 1.386 . S
C772 C767 1.490 . S
C772 C774 1.395 . S
C772 C775 1.403 . S
H773 C779 0.930 . S
C774 H760 0.930 . S
C774 C772 1.395 . S
C774 C777 1.403 . S
C775 C772 1.403 . S
C775 C776 1.524 . S
C775 C779 1.400 . S
C776 H761 0.960 . S
C776 H762 0.960 . S
C776 H763 0.960 . S
C776 C775 1.524 . S
C777 C774 1.403 . S
C777 C778 1.392 . S
C777 C781 1.495 1_554 S
C778 C777 1.392 . S
C778 C779 1.385 . S
C778 C780 1.478 1_554 S
C779 H773 0.930 . S
C779 C775 1.400 . S
C779 C778 1.385 . S
C780 C778 1.478 1_556 S
C780 C782 1.381 . S
C780 C786 1.383 . S
C781 C777 1.495 1_556 S
C781 H787 0.959 1_556 S
C781 H788 0.961 . S
C781 H789 0.960 . S
C782 C780 1.381 . S
C782 C783 1.394 . S
C782 H790 0.930 . S
C783 C782 1.394 . S
C783 C784 1.383 . S
C783 H791 0.929 . S
C784 C783 1.383 . S
C784 C785 1.377 . S
C785 H769 0.930 . S
C785 C784 1.377 . S
C785 C786 1.379 . S
C786 H770 0.931 . S
C786 C780 1.383 . S
C786 C785 1.379 . S
H787 C781 0.959 1_554 S
H788 C781 0.961 . S
H789 C781 0.960 . S
H790 C782 0.930 . S
H791 C783 0.929 . S
H792 C800 0.929 . S
H793 C802 0.930 . S
H794 C804 0.930 . S
H795 C807 0.929 . S
H796 C810 0.930 . S
H797 C812 0.960 . S
H798 C812 0.960 . S
H799 C812 0.960 1_556 S
C800 H792 0.929 . S
C800 C801 1.377 . S
C800 C802 1.384 . S
C801 C800 1.377 . S
C801 C807 1.390 . S
C802 H793 0.930 . S
C802 C800 1.384 . S
C802 C803 1.372 . S
C803 C802 1.372 . S
C803 C804 1.400 . S
C803 C808 1.490 1_556 S
C804 H794 0.930 . S
C804 C803 1.400 . S
C804 C807 1.386 . S
H805 C821 0.930 . S
H806 C822 0.931 . S
C807 H795 0.929 . S
C807 C801 1.390 . S
C807 C804 1.386 . S
C808 C803 1.490 1_554 S
C808 C810 1.395 . S
C808 C811 1.403 . S
H809 C815 0.930 . S
C810 H796 0.930 . S
C810 C808 1.395 . S
C810 C813 1.403 . S
C811 C808 1.403 . S
C811 C812 1.524 . S
C811 C815 1.400 . S
C812 H797 0.960 . S
C812 H798 0.960 . S
C812 H799 0.960 1_554 S
C812 C811 1.524 . S
C813 C810 1.403 . S
C813 C814 1.392 . S
C813 C817 1.495 . S
C814 C813 1.392 . S
C814 C815 1.385 . S
C814 C816 1.478 . S
C815 H809 0.930 . S
C815 C811 1.400 . S
C815 C814 1.385 . S
C816 C814 1.478 . S
C816 C818 1.381 . S
C816 C822 1.383 . S
C817 C813 1.495 . S
C817 H823 0.959 . S
C817 H824 0.961 . S
C817 H825 0.960 . S
C818 C816 1.381 . S
C818 C819 1.394 . S
C818 H826 0.930 . S
C819 C818 1.394 . S
C819 C820 1.383 . S
C819 H827 0.929 . S
C820 C819 1.383 . S
C820 C821 1.377 . S
C821 H805 0.930 . S
C821 C820 1.377 . S
C821 C822 1.379 . S
C822 H806 0.931 . S
C822 C816 1.383 . S
C822 C821 1.379 . S
H823 C817 0.959 . S
H824 C817 0.961 . S
H825 C817 0.960 . S
H826 C818 0.930 . S
H827 C819 0.929 . S
H828 C836 0.929 . S
H829 C838 0.930 . S
H830 C840 0.930 . S
H831 C843 0.929 . S
H832 C846 0.930 . S
H833 C848 0.960 . S
H834 C848 0.960 . S
H835 C848 0.960 . S
C836 H828 0.929 . S
C836 C837 1.377 . S
C836 C838 1.384 . S
C837 C836 1.377 . S
C837 C843 1.390 . S
C838 H829 0.930 . S
C838 C836 1.384 . S
C838 C839 1.372 . S
C839 C838 1.372 . S
C839 C840 1.400 . S
C839 C844 1.490 . S
C840 H830 0.930 . S
C840 C839 1.400 . S
C840 C843 1.386 . S
H841 C857 0.930 . S
H842 C858 0.931 . S
C843 H831 0.929 . S
C843 C837 1.390 . S
C843 C840 1.386 . S
C844 C839 1.490 . S
C844 C846 1.395 . S
C844 C847 1.403 . S
H845 C851 0.930 . S
C846 H832 0.930 . S
C846 C844 1.395 . S
C846 C849 1.403 . S
C847 C844 1.403 . S
C847 C848 1.524 . S
C847 C851 1.400 . S
C848 H833 0.960 . S
C848 H834 0.960 . S
C848 H835 0.960 . S
C848 C847 1.524 . S
C849 C846 1.403 . S
C849 C850 1.392 . S
C849 C853 1.495 . S
C850 C849 1.392 . S
C850 C851 1.385 . S
C850 C852 1.478 . S
C851 H845 0.930 . S
C851 C847 1.400 . S
C851 C850 1.385 . S
C852 C850 1.478 . S
C852 C854 1.381 . S
C852 C858 1.383 . S
C853 C849 1.495 . S
C853 H859 0.959 . S
C853 H860 0.961 . S
C853 H861 0.960 . S
C854 C852 1.381 . S
C854 C855 1.394 . S
C854 H862 0.930 . S
C855 C854 1.394 . S
C855 C856 1.383 . S
C855 H863 0.929 . S
C856 C855 1.383 . S
C856 C857 1.377 . S
C857 H841 0.930 . S
C857 C856 1.377 . S
C857 C858 1.379 . S
C858 H842 0.931 . S
C858 C852 1.383 . S
C858 C857 1.379 . S
H859 C853 0.959 . S
H860 C853 0.961 . S
H861 C853 0.960 . S
H862 C854 0.930 . S
H863 C855 0.929 . S
H864 C872 0.929 . S
H865 C874 0.930 . S
H866 C876 0.930 . S
H867 C879 0.929 . S
H868 C882 0.930 . S
H869 C884 0.960 . S
H870 C884 0.960 . S
H871 C884 0.960 . S
C872 H864 0.929 . S
C872 C873 1.377 . S
C872 C874 1.384 . S
C873 C872 1.377 . S
C873 C879 1.390 . S
C874 H865 0.930 . S
C874 C872 1.384 . S
C874 C875 1.372 . S
C875 C874 1.372 . S
C875 C876 1.400 . S
C875 C880 1.490 . S
C876 H866 0.930 . S
C876 C875 1.400 . S
C876 C879 1.386 . S
H877 C893 0.930 . S
H878 C894 0.931 . S
C879 H867 0.929 . S
C879 C873 1.390 . S
C879 C876 1.386 . S
C880 C875 1.490 . S
C880 C882 1.395 . S
C880 C883 1.403 . S
H881 C887 0.930 . S
C882 H868 0.930 . S
C882 C880 1.395 . S
C882 C885 1.403 . S
C883 C880 1.403 . S
C883 C884 1.524 . S
C883 C887 1.400 . S
C884 H869 0.960 . S
C884 H870 0.960 . S
C884 H871 0.960 . S
C884 C883 1.524 . S
C885 C882 1.403 . S
C885 C886 1.392 . S
C885 C889 1.495 . S
C886 C885 1.392 . S
C886 C887 1.385 . S
C886 C888 1.478 . S
C887 H881 0.930 . S
C887 C883 1.400 . S
C887 C886 1.385 . S
C888 C886 1.478 . S
C888 C890 1.381 . S
C888 C894 1.383 . S
C889 C885 1.495 . S
C889 H895 0.959 . S
C889 H896 0.961 . S
C889 H897 0.960 . S
C890 C888 1.381 . S
C890 C891 1.394 . S
C890 H898 0.930 . S
C891 C890 1.394 . S
C891 C892 1.383 . S
C891 H899 0.929 . S
C892 C891 1.383 . S
C892 C893 1.377 . S
C893 H877 0.930 . S
C893 C892 1.377 . S
C893 C894 1.379 . S
C894 H878 0.931 . S
C894 C888 1.383 . S
C894 C893 1.379 . S
H895 C889 0.959 . S
H896 C889 0.961 . S
H897 C889 0.960 . S
H898 C890 0.930 . S
H899 C891 0.929 . S
H900 C908 0.929 . S
H901 C910 0.930 . S
H902 C912 0.930 . S
H903 C915 0.929 . S
H904 C918 0.930 . S
H905 C920 0.960 . S
H906 C920 0.960 . S
H907 C920 0.960 . S
C908 H900 0.929 . S
C908 C909 1.377 . S
C908 C910 1.384 . S
C909 C908 1.377 . S
C909 C915 1.390 . S
C910 H901 0.930 . S
C910 C908 1.384 . S
C910 C911 1.372 . S
C911 C910 1.372 . S
C911 C912 1.400 . S
C911 C916 1.490 . S
C912 H902 0.930 . S
C912 C911 1.400 . S
C912 C915 1.386 . S
H913 C929 0.930 . S
H914 C930 0.931 . S
C915 H903 0.929 . S
C915 C909 1.390 . S
C915 C912 1.386 . S
C916 C911 1.490 . S
C916 C918 1.395 . S
C916 C919 1.403 . S
H917 C923 0.930 . S
C918 H904 0.930 . S
C918 C916 1.395 . S
C918 C921 1.403 . S
C919 C916 1.403 . S
C919 C920 1.524 . S
C919 C923 1.400 . S
C920 H905 0.960 . S
C920 H906 0.960 . S
C920 H907 0.960 . S
C920 C919 1.524 . S
C921 C918 1.403 . S
C921 C922 1.392 . S
C921 C925 1.495 . S
C922 C921 1.392 . S
C922 C923 1.385 . S
C922 C924 1.478 . S
C923 H917 0.930 . S
C923 C919 1.400 . S
C923 C922 1.385 . S
C924 C922 1.478 . S
C924 C926 1.381 . S
C924 C930 1.383 . S
C925 C921 1.495 . S
C925 H931 0.959 . S
C925 H932 0.961 . S
C925 H933 0.960 . S
C926 C924 1.381 . S
C926 C927 1.394 . S
C926 H934 0.930 . S
C927 C926 1.394 . S
C927 C928 1.383 . S
C927 H935 0.929 . S
C928 C927 1.383 . S
C928 C929 1.377 . S
C929 H913 0.930 . S
C929 C928 1.377 . S
C929 C930 1.379 . S
C930 H914 0.931 . S
C930 C924 1.383 . S
C930 C929 1.379 . S
H931 C925 0.959 . S
H932 C925 0.961 . S
H933 C925 0.960 . S
H934 C926 0.930 . S
H935 C927 0.929 . S
H936 C944 0.929 . S
H937 C946 0.930 . S
H938 C948 0.930 . S
H939 C951 0.929 . S
H940 C954 0.930 . S
H941 C956 0.960 . S
H942 C956 0.960 . S
H943 C956 0.960 . S
C944 H936 0.929 . S
C944 C945 1.377 . S
C944 C946 1.384 . S
C945 C944 1.377 . S
C945 C951 1.390 . S
C946 H937 0.930 . S
C946 C944 1.384 . S
C946 C947 1.372 . S
C947 C946 1.372 . S
C947 C948 1.400 . S
C947 C952 1.490 . S
C948 H938 0.930 . S
C948 C947 1.400 . S
C948 C951 1.386 . S
H949 C965 0.930 . S
H950 C966 0.931 . S
C951 H939 0.929 . S
C951 C945 1.390 . S
C951 C948 1.386 . S
C952 C947 1.490 . S
C952 C954 1.395 . S
C952 C955 1.403 . S
H953 C959 0.930 . S
C954 H940 0.930 . S
C954 C952 1.395 . S
C954 C957 1.403 . S
C955 C952 1.403 . S
C955 C956 1.524 . S
C955 C959 1.400 . S
C956 H941 0.960 . S
C956 H942 0.960 . S
C956 H943 0.960 . S
C956 C955 1.524 . S
C957 C954 1.403 . S
C957 C958 1.392 . S
C957 C961 1.495 . S
C958 C957 1.392 . S
C958 C959 1.385 . S
C958 C960 1.478 . S
C959 H953 0.930 . S
C959 C955 1.400 . S
C959 C958 1.385 . S
C960 C958 1.478 . S
C960 C962 1.381 . S
C960 C966 1.383 . S
C961 C957 1.495 . S
C961 H967 0.959 . S
C961 H968 0.961 . S
C961 H969 0.960 . S
C962 C960 1.381 . S
C962 C963 1.394 . S
C962 H970 0.930 . S
C963 C962 1.394 . S
C963 C964 1.383 . S
C963 H971 0.929 . S
C964 C963 1.383 . S
C964 C965 1.377 . S
C965 H949 0.930 . S
C965 C964 1.377 . S
C965 C966 1.379 . S
C966 H950 0.931 . S
C966 C960 1.383 . S
C966 C965 1.379 . S
H967 C961 0.959 . S
H968 C961 0.961 . S
H969 C961 0.960 . S
H970 C962 0.930 . S
H971 C963 0.929 . S
H972 C980 0.929 . S
H973 C982 0.930 . S
H974 C984 0.930 . S
H975 C987 0.929 . S
H976 C990 0.930 . S
H977 C992 0.960 . S
H978 C992 0.960 . S
H979 C992 0.960 . S
C980 H972 0.929 . S
C980 C981 1.377 . S
C980 C982 1.384 . S
C981 C980 1.377 . S
C981 C987 1.390 . S
C982 H973 0.930 . S
C982 C980 1.384 . S
C982 C983 1.372 . S
C983 C982 1.372 . S
C983 C984 1.400 . S
C983 C988 1.490 . S
C984 H974 0.930 . S
C984 C983 1.400 . S
C984 C987 1.386 . S
H985 C1001 0.930 . S
H986 C1002 0.931 . S
C987 H975 0.929 . S
C987 C981 1.390 . S
C987 C984 1.386 . S
C988 C983 1.490 . S
C988 C990 1.395 . S
C988 C991 1.403 . S
H989 C995 0.930 . S
C990 H976 0.930 . S
C990 C988 1.395 . S
C990 C993 1.403 . S
C991 C988 1.403 . S
C991 C992 1.524 . S
C991 C995 1.400 . S
C992 H977 0.960 . S
C992 H978 0.960 . S
C992 H979 0.960 . S
C992 C991 1.524 . S
C993 C990 1.403 . S
C993 C994 1.392 . S
C993 C997 1.495 . S
C994 C993 1.392 . S
C994 C995 1.385 . S
C994 C996 1.478 . S
C995 H989 0.930 . S
C995 C991 1.400 . S
C995 C994 1.385 . S
C996 C994 1.478 . S
C996 C998 1.381 . S
C996 C1002 1.383 . S
C997 C993 1.495 . S
C997 H1003 0.959 . S
C997 H1004 0.961 . S
C997 H1005 0.960 . S
C998 C996 1.381 . S
C998 C999 1.394 . S
C998 H1006 0.930 . S
C999 C998 1.394 . S
C999 C1000 1.383 . S
C999 H1007 0.929 . S
C1000 C999 1.383 . S
C1000 C1001 1.377 . S
C1001 H985 0.930 . S
C1001 C1000 1.377 . S
C1001 C1002 1.379 . S
C1002 H986 0.931 . S
C1002 C996 1.383 . S
C1002 C1001 1.379 . S
H1003 C997 0.959 . S
H1004 C997 0.961 . S
H1005 C997 0.960 . S
H1006 C998 0.930 . S
H1007 C999 0.929 . S
H1008 C1016 0.929 . S
H1009 C1018 0.930 . S
H1010 C1020 0.930 . S
H1011 C1023 0.929 . S
H1012 C1026 0.930 . S
H1013 C1028 0.960 . S
H1014 C1028 0.960 . S
H1015 C1028 0.960 . S
C1016 H1008 0.929 . S
C1016 C1017 1.377 . S
C1016 C1018 1.384 . S
C1017 C1016 1.377 . S
C1017 C1023 1.390 . S
C1018 H1009 0.930 . S
C1018 C1016 1.384 . S
C1018 C1019 1.372 . S
C1019 C1018 1.372 . S
C1019 C1020 1.400 . S
C1019 C1024 1.490 . S
C1020 H1010 0.930 . S
C1020 C1019 1.400 . S
C1020 C1023 1.386 . S
H1021 C1037 0.930 . S
H1022 C1038 0.931 . S
C1023 H1011 0.929 . S
C1023 C1017 1.390 . S
C1023 C1020 1.386 . S
C1024 C1019 1.490 . S
C1024 C1026 1.395 . S
C1024 C1027 1.403 . S
H1025 C1031 0.930 . S
C1026 H1012 0.930 . S
C1026 C1024 1.395 . S
C1026 C1029 1.403 . S
C1027 C1024 1.403 . S
C1027 C1028 1.524 . S
C1027 C1031 1.400 . S
C1028 H1013 0.960 . S
C1028 H1014 0.960 . S
C1028 H1015 0.960 . S
C1028 C1027 1.524 . S
C1029 C1026 1.403 . S
C1029 C1030 1.392 . S
C1029 C1033 1.495 . S
C1030 C1029 1.392 . S
C1030 C1031 1.385 . S
C1030 C1032 1.478 . S
C1031 H1025 0.930 . S
C1031 C1027 1.400 . S
C1031 C1030 1.385 . S
C1032 C1030 1.478 . S
C1032 C1034 1.381 . S
C1032 C1038 1.383 . S
C1033 C1029 1.495 . S
C1033 H1039 0.959 . S
C1033 H1040 0.961 . S
C1033 H1041 0.960 . S
C1034 C1032 1.381 . S
C1034 C1035 1.394 . S
C1034 H1042 0.930 . S
C1035 C1034 1.394 . S
C1035 C1036 1.383 . S
C1035 H1043 0.929 . S
C1036 C1035 1.383 . S
C1036 C1037 1.377 . S
C1037 H1021 0.930 . S
C1037 C1036 1.377 . S
C1037 C1038 1.379 . S
C1038 H1022 0.931 . S
C1038 C1032 1.383 . S
C1038 C1037 1.379 . S
H1039 C1033 0.959 . S
H1040 C1033 0.961 . S
H1041 C1033 0.960 . S
H1042 C1034 0.930 . S
H1043 C1035 0.929 . S
H1044 C1052 0.929 . S
H1045 C1054 0.930 . S
H1046 C1056 0.930 . S
H1047 C1059 0.929 . S
H1048 C1062 0.930 . S
H1049 C1064 0.960 . S
H1050 C1064 0.960 . S
H1051 C1064 0.960 . S
C1052 H1044 0.929 . S
C1052 C1053 1.377 . S
C1052 C1054 1.384 . S
C1053 C1052 1.377 . S
C1053 C1059 1.390 . S
C1054 H1045 0.930 . S
C1054 C1052 1.384 . S
C1054 C1055 1.372 . S
C1055 C1054 1.372 . S
C1055 C1056 1.400 . S
C1055 C1060 1.490 . S
C1056 H1046 0.930 . S
C1056 C1055 1.400 . S
C1056 C1059 1.386 . S
H1057 C1073 0.930 . S
H1058 C1074 0.931 . S
C1059 H1047 0.929 . S
C1059 C1053 1.390 . S
C1059 C1056 1.386 . S
C1060 C1055 1.490 . S
C1060 C1062 1.395 . S
C1060 C1063 1.403 . S
H1061 C1067 0.930 . S
C1062 H1048 0.930 . S
C1062 C1060 1.395 . S
C1062 C1065 1.403 . S
C1063 C1060 1.403 . S
C1063 C1064 1.524 . S
C1063 C1067 1.400 . S
C1064 H1049 0.960 . S
C1064 H1050 0.960 . S
C1064 H1051 0.960 . S
C1064 C1063 1.524 . S
C1065 C1062 1.403 . S
C1065 C1066 1.392 . S
C1065 C1069 1.495 . S
C1066 C1065 1.392 . S
C1066 C1067 1.385 . S
C1066 C1068 1.478 . S
C1067 H1061 0.930 . S
C1067 C1063 1.400 . S
C1067 C1066 1.385 . S
C1068 C1066 1.478 . S
C1068 C1070 1.381 . S
C1068 C1074 1.383 . S
C1069 C1065 1.495 . S
C1069 H1075 0.959 . S
C1069 H1076 0.961 . S
C1069 H1077 0.960 . S
C1070 C1068 1.381 . S
C1070 C1071 1.394 1_556 S
C1070 H1078 0.930 . S
C1071 C1070 1.394 1_554 S
C1071 C1072 1.383 . S
C1071 H1079 0.929 . S
C1072 C1071 1.383 . S
C1072 C1073 1.377 . S
C1073 H1057 0.930 . S
C1073 C1072 1.377 . S
C1073 C1074 1.379 1_554 S
C1074 H1058 0.931 . S
C1074 C1068 1.383 . S
C1074 C1073 1.379 1_556 S
H1075 C1069 0.959 . S
H1076 C1069 0.961 . S
H1077 C1069 0.960 . S
H1078 C1070 0.930 . S
H1079 C1071 0.929 . S
H1080 C1088 0.929 . S
H1081 C1090 0.930 . S
H1082 C1092 0.930 . S
H1083 C1095 0.929 . S
H1084 C1098 0.930 . S
H1085 C1100 0.960 . S
H1086 C1100 0.960 . S
H1087 C1100 0.960 . S
C1088 H1080 0.929 . S
C1088 C1089 1.377 . S
C1088 C1090 1.384 . S
C1089 C1088 1.377 . S
C1089 C1095 1.390 . S
C1090 H1081 0.930 . S
C1090 C1088 1.384 . S
C1090 C1091 1.372 . S
C1091 C1090 1.372 . S
C1091 C1092 1.400 . S
C1091 C1096 1.490 . S
C1092 H1082 0.930 . S
C1092 C1091 1.400 . S
C1092 C1095 1.386 . S
H1093 C1109 0.930 . S
H1094 C1110 0.931 . S
C1095 H1083 0.929 . S
C1095 C1089 1.390 . S
C1095 C1092 1.386 . S
C1096 C1091 1.490 . S
C1096 C1098 1.395 . S
C1096 C1099 1.403 . S
H1097 C1103 0.930 . S
C1098 H1084 0.930 . S
C1098 C1096 1.395 . S
C1098 C1101 1.403 . S
C1099 C1096 1.403 . S
C1099 C1100 1.524 . S
C1099 C1103 1.400 . S
C1100 H1085 0.960 . S
C1100 H1086 0.960 . S
C1100 H1087 0.960 . S
C1100 C1099 1.524 . S
C1101 C1098 1.403 . S
C1101 C1102 1.392 . S
C1101 C1105 1.495 . S
C1102 C1101 1.392 . S
C1102 C1103 1.385 . S
C1102 C1104 1.478 . S
C1103 H1097 0.930 . S
C1103 C1099 1.400 . S
C1103 C1102 1.385 . S
C1104 C1102 1.478 . S
C1104 C1106 1.381 . S
C1104 C1110 1.383 . S
C1105 C1101 1.495 . S
C1105 H1111 0.959 . S
C1105 H1112 0.961 . S
C1105 H1113 0.960 . S
C1106 C1104 1.381 . S
C1106 C1107 1.394 1_556 S
C1106 H1114 0.930 . S
C1107 C1106 1.394 1_554 S
C1107 C1108 1.383 . S
C1107 H1115 0.929 . S
C1108 C1107 1.383 . S
C1108 C1109 1.377 . S
C1109 H1093 0.930 . S
C1109 C1108 1.377 . S
C1109 C1110 1.379 1_554 S
C1110 H1094 0.931 . S
C1110 C1104 1.383 . S
C1110 C1109 1.379 1_556 S
H1111 C1105 0.959 . S
H1112 C1105 0.961 . S
H1113 C1105 0.960 . S
H1114 C1106 0.930 . S
H1115 C1107 0.929 . S
H1116 C1124 0.929 . S
H1117 C1126 0.930 . S
H1118 C1128 0.930 . S
H1119 C1131 0.929 . S
H1120 C1134 0.930 . S
H1121 C1136 0.960 . S
H1122 C1136 0.960 . S
H1123 C1136 0.960 . S
C1124 H1116 0.929 . S
C1124 C1125 1.377 . S
C1124 C1126 1.384 . S
C1125 C1124 1.377 . S
C1125 C1131 1.390 . S
C1126 H1117 0.930 . S
C1126 C1124 1.384 . S
C1126 C1127 1.372 . S
C1127 C1126 1.372 . S
C1127 C1128 1.400 . S
C1127 C1132 1.490 . S
C1128 H1118 0.930 . S
C1128 C1127 1.400 . S
C1128 C1131 1.386 . S
H1129 C1145 0.930 . S
H1130 C1146 0.931 . S
C1131 H1119 0.929 . S
C1131 C1125 1.390 . S
C1131 C1128 1.386 . S
C1132 C1127 1.490 . S
C1132 C1134 1.395 . S
C1132 C1135 1.403 . S
H1133 C1139 0.930 . S
C1134 H1120 0.930 . S
C1134 C1132 1.395 . S
C1134 C1137 1.403 . S
C1135 C1132 1.403 . S
C1135 C1136 1.524 . S
C1135 C1139 1.400 . S
C1136 H1121 0.960 . S
C1136 H1122 0.960 . S
C1136 H1123 0.960 . S
C1136 C1135 1.524 . S
C1137 C1134 1.403 . S
C1137 C1138 1.392 . S
C1137 C1141 1.495 . S
C1138 C1137 1.392 . S
C1138 C1139 1.385 . S
C1138 C1140 1.478 . S
C1139 H1133 0.930 . S
C1139 C1135 1.400 . S
C1139 C1138 1.385 . S
C1140 C1138 1.478 . S
C1140 C1142 1.381 . S
C1140 C1146 1.383 . S
C1141 C1137 1.495 . S
C1141 H1147 0.959 . S
C1141 H1148 0.961 . S
C1141 H1149 0.960 . S
C1142 C1140 1.381 . S
C1142 C1143 1.394 1_556 S
C1142 H1150 0.930 . S
C1143 C1142 1.394 1_554 S
C1143 C1144 1.383 . S
C1143 H1151 0.929 . S
C1144 C1143 1.383 . S
C1144 C1145 1.377 . S
C1145 H1129 0.930 . S
C1145 C1144 1.377 . S
C1145 C1146 1.379 1_554 S
C1146 H1130 0.931 . S
C1146 C1140 1.383 . S
C1146 C1145 1.379 1_556 S
H1147 C1141 0.959 . S
H1148 C1141 0.961 . S
H1149 C1141 0.960 . S
H1150 C1142 0.930 . S
H1151 C1143 0.929 . S
H1152 C1160 0.929 . S
H1153 C1162 0.930 . S
H1154 C1164 0.930 . S
H1155 C1167 0.929 . S
H1156 C1170 0.930 . S
H1157 C1172 0.960 . S
H1158 C1172 0.960 . S
H1159 C1172 0.960 . S
C1160 H1152 0.929 . S
C1160 C1161 1.377 . S
C1160 C1162 1.384 . S
C1161 C1160 1.377 . S
C1161 C1167 1.390 . S
C1162 H1153 0.930 . S
C1162 C1160 1.384 . S
C1162 C1163 1.372 . S
C1163 C1162 1.372 . S
C1163 C1164 1.400 . S
C1163 C1168 1.490 . S
C1164 H1154 0.930 . S
C1164 C1163 1.400 . S
C1164 C1167 1.386 . S
H1165 C1181 0.930 . S
H1166 C1182 0.931 . S
C1167 H1155 0.929 . S
C1167 C1161 1.390 . S
C1167 C1164 1.386 . S
C1168 C1163 1.490 . S
C1168 C1170 1.395 . S
C1168 C1171 1.403 . S
H1169 C1175 0.930 . S
C1170 H1156 0.930 . S
C1170 C1168 1.395 . S
C1170 C1173 1.403 . S
C1171 C1168 1.403 . S
C1171 C1172 1.524 . S
C1171 C1175 1.400 . S
C1172 H1157 0.960 . S
C1172 H1158 0.960 . S
C1172 H1159 0.960 . S
C1172 C1171 1.524 . S
C1173 C1170 1.403 . S
C1173 C1174 1.392 . S
C1173 C1177 1.495 . S
C1174 C1173 1.392 . S
C1174 C1175 1.385 . S
C1174 C1176 1.478 . S
C1175 H1169 0.930 . S
C1175 C1171 1.400 . S
C1175 C1174 1.385 . S
C1176 C1174 1.478 . S
C1176 C1178 1.381 . S
C1176 C1182 1.383 . S
C1177 C1173 1.495 . S
C1177 H1183 0.959 . S
C1177 H1184 0.961 . S
C1177 H1185 0.960 . S
C1178 C1176 1.381 . S
C1178 C1179 1.394 . S
C1178 H1186 0.930 . S
C1179 C1178 1.394 . S
C1179 C1180 1.383 . S
C1179 H1187 0.929 . S
C1180 C1179 1.383 . S
C1180 C1181 1.377 . S
C1181 H1165 0.930 . S
C1181 C1180 1.377 . S
C1181 C1182 1.379 . S
C1182 H1166 0.931 . S
C1182 C1176 1.383 . S
C1182 C1181 1.379 . S
H1183 C1177 0.959 . S
H1184 C1177 0.961 . S
H1185 C1177 0.960 . S
H1186 C1178 0.930 . S
H1187 C1179 0.929 . S
H1188 C1196 0.929 . S
H1189 C1198 0.930 . S
H1190 C1200 0.930 . S
H1191 C1203 0.929 . S
H1192 C1206 0.930 . S
H1193 C1208 0.960 . S
H1194 C1208 0.960 . S
H1195 C1208 0.960 . S
C1196 H1188 0.929 . S
C1196 C1197 1.377 . S
C1196 C1198 1.384 . S
C1197 C1196 1.377 . S
C1197 C1203 1.390 . S
C1198 H1189 0.930 . S
C1198 C1196 1.384 . S
C1198 C1199 1.372 . S
C1199 C1198 1.372 . S
C1199 C1200 1.400 . S
C1199 C1204 1.490 . S
C1200 H1190 0.930 . S
C1200 C1199 1.400 . S
C1200 C1203 1.386 . S
H1201 C1217 0.930 . S
H1202 C1218 0.931 . S
C1203 H1191 0.929 . S
C1203 C1197 1.390 . S
C1203 C1200 1.386 . S
C1204 C1199 1.490 . S
C1204 C1206 1.395 . S
C1204 C1207 1.403 . S
H1205 C1211 0.930 . S
C1206 H1192 0.930 . S
C1206 C1204 1.395 . S
C1206 C1209 1.403 . S
C1207 C1204 1.403 . S
C1207 C1208 1.524 . S
C1207 C1211 1.400 . S
C1208 H1193 0.960 . S
C1208 H1194 0.960 . S
C1208 H1195 0.960 . S
C1208 C1207 1.524 . S
C1209 C1206 1.403 . S
C1209 C1210 1.392 . S
C1209 C1213 1.495 . S
C1210 C1209 1.392 . S
C1210 C1211 1.385 . S
C1210 C1212 1.478 . S
C1211 H1205 0.930 . S
C1211 C1207 1.400 . S
C1211 C1210 1.385 . S
C1212 C1210 1.478 . S
C1212 C1214 1.381 . S
C1212 C1218 1.383 . S
C1213 C1209 1.495 . S
C1213 H1219 0.959 . S
C1213 H1220 0.961 . S
C1213 H1221 0.960 . S
C1214 C1212 1.381 . S
C1214 C1215 1.394 . S
C1214 H1222 0.930 . S
C1215 C1214 1.394 . S
C1215 C1216 1.383 . S
C1215 H1223 0.929 . S
C1216 C1215 1.383 . S
C1216 C1217 1.377 . S
C1217 H1201 0.930 . S
C1217 C1216 1.377 . S
C1217 C1218 1.379 . S
C1218 H1202 0.931 . S
C1218 C1212 1.383 . S
C1218 C1217 1.379 . S
H1219 C1213 0.959 . S
H1220 C1213 0.961 . S
H1221 C1213 0.960 . S
H1222 C1214 0.930 . S
H1223 C1215 0.929 . S
H1224 C1232 0.929 . S
H1225 C1234 0.930 . S
H1226 C1236 0.930 . S
H1227 C1239 0.929 . S
H1228 C1242 0.930 . S
H1229 C1244 0.960 . S
H1230 C1244 0.960 . S
H1231 C1244 0.960 . S
C1232 H1224 0.929 . S
C1232 C1233 1.377 . S
C1232 C1234 1.384 . S
C1233 C1232 1.377 . S
C1233 C1239 1.390 . S
C1234 H1225 0.930 . S
C1234 C1232 1.384 . S
C1234 C1235 1.372 . S
C1235 C1234 1.372 . S
C1235 C1236 1.400 . S
C1235 C1240 1.490 . S
C1236 H1226 0.930 . S
C1236 C1235 1.400 . S
C1236 C1239 1.386 . S
H1237 C1253 0.930 . S
H1238 C1254 0.931 . S
C1239 H1227 0.929 . S
C1239 C1233 1.390 . S
C1239 C1236 1.386 . S
C1240 C1235 1.490 . S
C1240 C1242 1.395 . S
C1240 C1243 1.403 . S
H1241 C1247 0.930 . S
C1242 H1228 0.930 . S
C1242 C1240 1.395 . S
C1242 C1245 1.403 . S
C1243 C1240 1.403 . S
C1243 C1244 1.524 . S
C1243 C1247 1.400 . S
C1244 H1229 0.960 . S
C1244 H1230 0.960 . S
C1244 H1231 0.960 . S
C1244 C1243 1.524 . S
C1245 C1242 1.403 . S
C1245 C1246 1.392 . S
C1245 C1249 1.495 . S
C1246 C1245 1.392 . S
C1246 C1247 1.385 . S
C1246 C1248 1.478 . S
C1247 H1241 0.930 . S
C1247 C1243 1.400 . S
C1247 C1246 1.385 . S
C1248 C1246 1.478 . S
C1248 C1250 1.381 . S
C1248 C1254 1.383 . S
C1249 C1245 1.495 . S
C1249 H1255 0.959 . S
C1249 H1256 0.961 . S
C1249 H1257 0.960 . S
C1250 C1248 1.381 . S
C1250 C1251 1.394 . S
C1250 H1258 0.930 . S
C1251 C1250 1.394 . S
C1251 C1252 1.383 . S
C1251 H1259 0.929 . S
C1252 C1251 1.383 . S
C1252 C1253 1.377 . S
C1253 H1237 0.930 . S
C1253 C1252 1.377 . S
C1253 C1254 1.379 . S
C1254 H1238 0.931 . S
C1254 C1248 1.383 . S
C1254 C1253 1.379 . S
H1255 C1249 0.959 . S
H1256 C1249 0.961 . S
H1257 C1249 0.960 . S
H1258 C1250 0.930 . S
H1259 C1251 0.929 . S
H1260 C1268 0.929 . S
H1261 C1270 0.930 . S
H1262 C1272 0.930 . S
H1263 C1275 0.929 . S
H1264 C1278 0.930 . S
H1265 C1280 0.960 . S
H1266 C1280 0.960 . S
H1267 C1280 0.960 . S
C1268 H1260 0.929 . S
C1268 C1269 1.377 . S
C1268 C1270 1.384 . S
C1269 C1268 1.377 . S
C1269 C1275 1.390 . S
C1270 H1261 0.930 . S
C1270 C1268 1.384 . S
C1270 C1271 1.372 . S
C1271 C1270 1.372 . S
C1271 C1272 1.400 . S
C1271 C1276 1.490 . S
C1272 H1262 0.930 . S
C1272 C1271 1.400 . S
C1272 C1275 1.386 . S
H1273 C1289 0.930 . S
H1274 C1290 0.931 . S
C1275 H1263 0.929 . S
C1275 C1269 1.390 . S
C1275 C1272 1.386 . S
C1276 C1271 1.490 . S
C1276 C1278 1.395 . S
C1276 C1279 1.403 . S
H1277 C1283 0.930 . S
C1278 H1264 0.930 . S
C1278 C1276 1.395 . S
C1278 C1281 1.403 . S
C1279 C1276 1.403 . S
C1279 C1280 1.524 . S
C1279 C1283 1.400 . S
C1280 H1265 0.960 . S
C1280 H1266 0.960 . S
C1280 H1267 0.960 . S
C1280 C1279 1.524 . S
C1281 C1278 1.403 . S
C1281 C1282 1.392 . S
C1281 C1285 1.495 . S
C1282 C1281 1.392 . S
C1282 C1283 1.385 . S
C1282 C1284 1.478 . S
C1283 H1277 0.930 . S
C1283 C1279 1.400 . S
C1283 C1282 1.385 . S
C1284 C1282 1.478 . S
C1284 C1286 1.381 . S
C1284 C1290 1.383 . S
C1285 C1281 1.495 . S
C1285 H1291 0.959 . S
C1285 H1292 0.961 . S
C1285 H1293 0.960 . S
C1286 C1284 1.381 . S
C1286 C1287 1.394 . S
C1286 H1294 0.930 . S
C1287 C1286 1.394 . S
C1287 C1288 1.383 . S
C1287 H1295 0.929 . S
C1288 C1287 1.383 . S
C1288 C1289 1.377 . S
C1289 H1273 0.930 . S
C1289 C1288 1.377 . S
C1289 C1290 1.379 . S
C1290 H1274 0.931 . S
C1290 C1284 1.383 . S
C1290 C1289 1.379 . S
H1291 C1285 0.959 . S
H1292 C1285 0.961 . S
H1293 C1285 0.960 . S
H1294 C1286 0.930 . S
H1295 C1287 0.929 . S
H1296 C1304 0.929 . S
H1297 C1306 0.930 . S
H1298 C1308 0.930 . S
H1299 C1311 0.929 . S
H1300 C1314 0.930 . S
H1301 C1316 0.960 . S
H1302 C1316 0.960 . S
H1303 C1316 0.960 . S
C1304 H1296 0.929 . S
C1304 C1305 1.377 . S
C1304 C1306 1.384 . S
C1305 C1304 1.377 . S
C1305 C1311 1.390 . S
C1306 H1297 0.930 . S
C1306 C1304 1.384 . S
C1306 C1307 1.372 . S
C1307 C1306 1.372 . S
C1307 C1308 1.400 . S
C1307 C1312 1.490 . S
C1308 H1298 0.930 . S
C1308 C1307 1.400 . S
C1308 C1311 1.386 . S
H1309 C1325 0.930 . S
H1310 C1326 0.931 . S
C1311 H1299 0.929 . S
C1311 C1305 1.390 . S
C1311 C1308 1.386 . S
C1312 C1307 1.490 . S
C1312 C1314 1.395 . S
C1312 C1315 1.403 . S
H1313 C1319 0.930 . S
C1314 H1300 0.930 . S
C1314 C1312 1.395 . S
C1314 C1317 1.403 . S
C1315 C1312 1.403 . S
C1315 C1316 1.524 . S
C1315 C1319 1.400 . S
C1316 H1301 0.960 . S
C1316 H1302 0.960 . S
C1316 H1303 0.960 . S
C1316 C1315 1.524 . S
C1317 C1314 1.403 . S
C1317 C1318 1.392 . S
C1317 C1321 1.495 . S
C1318 C1317 1.392 . S
C1318 C1319 1.385 . S
C1318 C1320 1.478 . S
C1319 H1313 0.930 . S
C1319 C1315 1.400 . S
C1319 C1318 1.385 . S
C1320 C1318 1.478 . S
C1320 C1322 1.381 . S
C1320 C1326 1.383 . S
C1321 C1317 1.495 . S
C1321 H1327 0.959 . S
C1321 H1328 0.961 . S
C1321 H1329 0.960 . S
C1322 C1320 1.381 . S
C1322 C1323 1.394 . S
C1322 H1330 0.930 . S
C1323 C1322 1.394 . S
C1323 C1324 1.383 . S
C1323 H1331 0.929 . S
C1324 C1323 1.383 . S
C1324 C1325 1.377 . S
C1325 H1309 0.930 . S
C1325 C1324 1.377 . S
C1325 C1326 1.379 . S
C1326 H1310 0.931 . S
C1326 C1320 1.383 . S
C1326 C1325 1.379 . S
H1327 C1321 0.959 . S
H1328 C1321 0.961 . S
H1329 C1321 0.960 . S
H1330 C1322 0.930 . S
H1331 C1323 0.929 . S
H1332 C1340 0.929 . S
H1333 C1342 0.930 . S
H1334 C1344 0.930 . S
H1335 C1347 0.929 . S
H1336 C1350 0.930 . S
H1337 C1352 0.960 . S
H1338 C1352 0.960 . S
H1339 C1352 0.960 . S
C1340 H1332 0.929 . S
C1340 C1341 1.377 . S
C1340 C1342 1.384 . S
C1341 C1340 1.377 . S
C1341 C1347 1.390 . S
C1342 H1333 0.930 . S
C1342 C1340 1.384 . S
C1342 C1343 1.372 . S
C1343 C1342 1.372 . S
C1343 C1344 1.400 . S
C1343 C1348 1.490 . S
C1344 H1334 0.930 . S
C1344 C1343 1.400 . S
C1344 C1347 1.386 . S
H1345 C1361 0.930 . S
H1346 C1362 0.931 . S
C1347 H1335 0.929 . S
C1347 C1341 1.390 . S
C1347 C1344 1.386 . S
C1348 C1343 1.490 . S
C1348 C1350 1.395 . S
C1348 C1351 1.403 . S
H1349 C1355 0.930 . S
C1350 H1336 0.930 . S
C1350 C1348 1.395 . S
C1350 C1353 1.403 . S
C1351 C1348 1.403 . S
C1351 C1352 1.524 . S
C1351 C1355 1.400 . S
C1352 H1337 0.960 . S
C1352 H1338 0.960 . S
C1352 H1339 0.960 . S
C1352 C1351 1.524 . S
C1353 C1350 1.403 . S
C1353 C1354 1.392 . S
C1353 C1357 1.495 . S
C1354 C1353 1.392 . S
C1354 C1355 1.385 . S
C1354 C1356 1.478 . S
C1355 H1349 0.930 . S
C1355 C1351 1.400 . S
C1355 C1354 1.385 . S
C1356 C1354 1.478 . S
C1356 C1358 1.381 . S
C1356 C1362 1.383 . S
C1357 C1353 1.495 . S
C1357 H1363 0.959 . S
C1357 H1364 0.961 . S
C1357 H1365 0.960 . S
C1358 C1356 1.381 . S
C1358 C1359 1.394 . S
C1358 H1366 0.930 . S
C1359 C1358 1.394 . S
C1359 C1360 1.383 . S
C1359 H1367 0.929 . S
C1360 C1359 1.383 . S
C1360 C1361 1.377 . S
C1361 H1345 0.930 . S
C1361 C1360 1.377 . S
C1361 C1362 1.379 . S
C1362 H1346 0.931 . S
C1362 C1356 1.383 . S
C1362 C1361 1.379 . S
H1363 C1357 0.959 . S
H1364 C1357 0.961 . S
H1365 C1357 0.960 . S
H1366 C1358 0.930 . S
H1367 C1359 0.929 . S
H1368 C1376 0.929 . S
H1369 C1378 0.930 . S
H1370 C1380 0.930 . S
H1371 C1383 0.929 . S
H1372 C1386 0.930 . S
H1373 C1388 0.960 . S
H1374 C1388 0.960 . S
H1375 C1388 0.960 . S
C1376 H1368 0.929 . S
C1376 C1377 1.377 . S
C1376 C1378 1.384 . S
C1377 C1376 1.377 . S
C1377 C1383 1.390 . S
C1378 H1369 0.930 . S
C1378 C1376 1.384 . S
C1378 C1379 1.372 . S
C1379 C1378 1.372 . S
C1379 C1380 1.400 . S
C1379 C1384 1.490 . S
C1380 H1370 0.930 . S
C1380 C1379 1.400 . S
C1380 C1383 1.386 . S
H1381 C1397 0.930 . S
H1382 C1398 0.931 . S
C1383 H1371 0.929 . S
C1383 C1377 1.390 . S
C1383 C1380 1.386 . S
C1384 C1379 1.490 . S
C1384 C1386 1.395 . S
C1384 C1387 1.403 . S
H1385 C1391 0.930 . S
C1386 H1372 0.930 . S
C1386 C1384 1.395 . S
C1386 C1389 1.403 . S
C1387 C1384 1.403 . S
C1387 C1388 1.524 . S
C1387 C1391 1.400 . S
C1388 H1373 0.960 . S
C1388 H1374 0.960 . S
C1388 H1375 0.960 . S
C1388 C1387 1.524 . S
C1389 C1386 1.403 . S
C1389 C1390 1.392 . S
C1389 C1393 1.495 . S
C1390 C1389 1.392 . S
C1390 C1391 1.385 . S
C1390 C1392 1.478 . S
C1391 H1385 0.930 . S
C1391 C1387 1.400 . S
C1391 C1390 1.385 . S
C1392 C1390 1.478 . S
C1392 C1394 1.381 . S
C1392 C1398 1.383 . S
C1393 C1389 1.495 . S
C1393 H1399 0.959 . S
C1393 H1400 0.961 . S
C1393 H1401 0.960 . S
C1394 C1392 1.381 . S
C1394 C1395 1.394 . S
C1394 H1402 0.930 . S
C1395 C1394 1.394 . S
C1395 C1396 1.383 . S
C1395 H1403 0.929 . S
C1396 C1395 1.383 . S
C1396 C1397 1.377 . S
C1397 H1381 0.930 . S
C1397 C1396 1.377 . S
C1397 C1398 1.379 . S
C1398 H1382 0.931 . S
C1398 C1392 1.383 . S
C1398 C1397 1.379 . S
H1399 C1393 0.959 . S
H1400 C1393 0.961 . S
H1401 C1393 0.960 . S
H1402 C1394 0.930 . S
H1403 C1395 0.929 . S
H1404 C1412 0.929 . S
H1405 C1414 0.930 . S
H1406 C1416 0.930 . S
H1407 C1419 0.929 . S
H1408 C1422 0.930 . S
H1409 C1424 0.960 . S
H1410 C1424 0.960 . S
H1411 C1424 0.960 . S
C1412 H1404 0.929 . S
C1412 C1413 1.377 . S
C1412 C1414 1.384 . S
C1413 C1412 1.377 . S
C1413 C1419 1.390 . S
C1414 H1405 0.930 . S
C1414 C1412 1.384 . S
C1414 C1415 1.372 . S
C1415 C1414 1.372 . S
C1415 C1416 1.400 . S
C1415 C1420 1.490 . S
C1416 H1406 0.930 . S
C1416 C1415 1.400 . S
C1416 C1419 1.386 . S
H1417 C1433 0.930 . S
H1418 C1434 0.931 . S
C1419 H1407 0.929 . S
C1419 C1413 1.390 . S
C1419 C1416 1.386 . S
C1420 C1415 1.490 . S
C1420 C1422 1.395 . S
C1420 C1423 1.403 . S
H1421 C1427 0.930 . S
C1422 H1408 0.930 . S
C1422 C1420 1.395 . S
C1422 C1425 1.403 . S
C1423 C1420 1.403 . S
C1423 C1424 1.524 . S
C1423 C1427 1.400 . S
C1424 H1409 0.960 . S
C1424 H1410 0.960 . S
C1424 H1411 0.960 . S
C1424 C1423 1.524 . S
C1425 C1422 1.403 . S
C1425 C1426 1.392 . S
C1425 C1429 1.495 . S
C1426 C1425 1.392 . S
C1426 C1427 1.385 . S
C1426 C1428 1.478 . S
C1427 H1421 0.930 . S
C1427 C1423 1.400 . S
C1427 C1426 1.385 . S
C1428 C1426 1.478 . S
C1428 C1430 1.381 . S
C1428 C1434 1.383 . S
C1429 C1425 1.495 . S
C1429 H1435 0.959 . S
C1429 H1436 0.961 . S
C1429 H1437 0.960 . S
C1430 C1428 1.381 . S
C1430 C1431 1.394 . S
C1430 H1438 0.930 . S
C1431 C1430 1.394 . S
C1431 C1432 1.383 . S
C1431 H1439 0.929 . S
C1432 C1431 1.383 . S
C1432 C1433 1.377 . S
C1433 H1417 0.930 . S
C1433 C1432 1.377 . S
C1433 C1434 1.379 . S
C1434 H1418 0.931 . S
C1434 C1428 1.383 . S
C1434 C1433 1.379 . S
H1435 C1429 0.959 . S
H1436 C1429 0.961 . S
H1437 C1429 0.960 . S
H1438 C1430 0.930 . S
H1439 C1431 0.929 . S
H1440 C1448 0.929 . S
H1441 C1450 0.930 . S
H1442 C1452 0.930 . S
H1443 C1455 0.929 . S
H1444 C1458 0.930 . S
H1445 C1460 0.960 . S
H1446 C1460 0.960 . S
H1447 C1460 0.960 . S
C1448 H1440 0.929 . S
C1448 C1449 1.377 . S
C1448 C1450 1.384 . S
C1449 C1448 1.377 . S
C1449 C1455 1.390 . S
C1450 H1441 0.930 . S
C1450 C1448 1.384 . S
C1450 C1451 1.372 . S
C1451 C1450 1.372 . S
C1451 C1452 1.400 . S
C1451 C1456 1.490 . S
C1452 H1442 0.930 . S
C1452 C1451 1.400 . S
C1452 C1455 1.386 . S
H1453 C1469 0.930 . S
H1454 C1470 0.931 . S
C1455 H1443 0.929 . S
C1455 C1449 1.390 . S
C1455 C1452 1.386 . S
C1456 C1451 1.490 . S
C1456 C1458 1.395 . S
C1456 C1459 1.403 . S
H1457 C1463 0.930 . S
C1458 H1444 0.930 . S
C1458 C1456 1.395 . S
C1458 C1461 1.403 . S
C1459 C1456 1.403 . S
C1459 C1460 1.524 . S
C1459 C1463 1.400 . S
C1460 H1445 0.960 . S
C1460 H1446 0.960 . S
C1460 H1447 0.960 . S
C1460 C1459 1.524 . S
C1461 C1458 1.403 . S
C1461 C1462 1.392 . S
C1461 C1465 1.495 . S
C1462 C1461 1.392 . S
C1462 C1463 1.385 . S
C1462 C1464 1.478 . S
C1463 H1457 0.930 . S
C1463 C1459 1.400 . S
C1463 C1462 1.385 . S
C1464 C1462 1.478 . S
C1464 C1466 1.381 . S
C1464 C1470 1.383 . S
C1465 C1461 1.495 . S
C1465 H1471 0.959 . S
C1465 H1472 0.961 . S
C1465 H1473 0.960 . S
C1466 C1464 1.381 . S
C1466 C1467 1.394 . S
C1466 H1474 0.930 . S
C1467 C1466 1.394 . S
C1467 C1468 1.383 . S
C1467 H1475 0.929 . S
C1468 C1467 1.383 . S
C1468 C1469 1.377 . S
C1469 H1453 0.930 . S
C1469 C1468 1.377 . S
C1469 C1470 1.379 . S
C1470 H1454 0.931 . S
C1470 C1464 1.383 . S
C1470 C1469 1.379 . S
H1471 C1465 0.959 . S
H1472 C1465 0.961 . S
H1473 C1465 0.960 . S
H1474 C1466 0.930 . S
H1475 C1467 0.929 . S
H1476 C1484 0.929 . S
H1477 C1486 0.930 . S
H1478 C1488 0.930 . S
H1479 C1491 0.929 . S
H1480 C1494 0.930 . S
H1481 C1496 0.960 . S
H1482 C1496 0.960 . S
H1483 C1496 0.960 . S
C1484 H1476 0.929 . S
C1484 C1485 1.377 . S
C1484 C1486 1.384 . S
C1485 C1484 1.377 . S
C1485 C1491 1.390 . S
C1486 H1477 0.930 . S
C1486 C1484 1.384 . S
C1486 C1487 1.372 . S
C1487 C1486 1.372 . S
C1487 C1488 1.400 . S
C1487 C1492 1.490 . S
C1488 H1478 0.930 . S
C1488 C1487 1.400 . S
C1488 C1491 1.386 . S
H1489 C1505 0.930 . S
H1490 C1506 0.931 . S
C1491 H1479 0.929 . S
C1491 C1485 1.390 . S
C1491 C1488 1.386 . S
C1492 C1487 1.490 . S
C1492 C1494 1.395 . S
C1492 C1495 1.403 . S
H1493 C1499 0.930 . S
C1494 H1480 0.930 . S
C1494 C1492 1.395 . S
C1494 C1497 1.403 . S
C1495 C1492 1.403 . S
C1495 C1496 1.524 . S
C1495 C1499 1.400 . S
C1496 H1481 0.960 . S
C1496 H1482 0.960 . S
C1496 H1483 0.960 . S
C1496 C1495 1.524 . S
C1497 C1494 1.403 . S
C1497 C1498 1.392 . S
C1497 C1501 1.495 . S
C1498 C1497 1.392 . S
C1498 C1499 1.385 . S
C1498 C1500 1.478 . S
C1499 H1493 0.930 . S
C1499 C1495 1.400 . S
C1499 C1498 1.385 . S
C1500 C1498 1.478 . S
C1500 C1502 1.381 . S
C1500 C1506 1.383 . S
C1501 C1497 1.495 . S
C1501 H1507 0.959 . S
C1501 H1508 0.961 . S
C1501 H1509 0.960 . S
C1502 C1500 1.381 . S
C1502 C1503 1.394 . S
C1502 H1510 0.930 . S
C1503 C1502 1.394 . S
C1503 C1504 1.383 . S
C1503 H1511 0.929 . S
C1504 C1503 1.383 . S
C1504 C1505 1.377 . S
C1505 H1489 0.930 . S
C1505 C1504 1.377 . S
C1505 C1506 1.379 . S
C1506 H1490 0.931 . S
C1506 C1500 1.383 . S
C1506 C1505 1.379 . S
H1507 C1501 0.959 . S
H1508 C1501 0.961 . S
H1509 C1501 0.960 . S
H1510 C1502 0.930 . S
H1511 C1503 0.929 . S
H1512 C1520 0.929 . S
H1513 C1522 0.930 . S
H1514 C1524 0.930 . S
H1515 C1527 0.929 . S
H1516 C1530 0.930 . S
H1517 C1532 0.960 . S
H1518 C1532 0.960 . S
H1519 C1532 0.960 . S
C1520 H1512 0.929 . S
C1520 C1521 1.377 . S
C1520 C1522 1.384 . S
C1521 C1520 1.377 . S
C1521 C1527 1.390 . S
C1522 H1513 0.930 . S
C1522 C1520 1.384 . S
C1522 C1523 1.372 . S
C1523 C1522 1.372 . S
C1523 C1524 1.400 . S
C1523 C1528 1.490 . S
C1524 H1514 0.930 . S
C1524 C1523 1.400 . S
C1524 C1527 1.386 . S
H1525 C1541 0.930 . S
H1526 C1542 0.931 . S
C1527 H1515 0.929 . S
C1527 C1521 1.390 . S
C1527 C1524 1.386 . S
C1528 C1523 1.490 . S
C1528 C1530 1.395 . S
C1528 C1531 1.403 . S
H1529 C1535 0.930 . S
C1530 H1516 0.930 . S
C1530 C1528 1.395 . S
C1530 C1533 1.403 . S
C1531 C1528 1.403 . S
C1531 C1532 1.524 . S
C1531 C1535 1.400 . S
C1532 H1517 0.960 . S
C1532 H1518 0.960 . S
C1532 H1519 0.960 . S
C1532 C1531 1.524 . S
C1533 C1530 1.403 . S
C1533 C1534 1.392 . S
C1533 C1537 1.495 . S
C1534 C1533 1.392 . S
C1534 C1535 1.385 . S
C1534 C1536 1.478 . S
C1535 H1529 0.930 . S
C1535 C1531 1.400 . S
C1535 C1534 1.385 . S
C1536 C1534 1.478 . S
C1536 C1538 1.381 . S
C1536 C1542 1.383 . S
C1537 C1533 1.495 . S
C1537 H1543 0.959 . S
C1537 H1544 0.961 . S
C1537 H1545 0.960 . S
C1538 C1536 1.381 . S
C1538 C1539 1.394 . S
C1538 H1546 0.930 . S
C1539 C1538 1.394 . S
C1539 C1540 1.383 . S
C1539 H1547 0.929 . S
C1540 C1539 1.383 . S
C1540 C1541 1.377 . S
C1541 H1525 0.930 . S
C1541 C1540 1.377 . S
C1541 C1542 1.379 . S
C1542 H1526 0.931 . S
C1542 C1536 1.383 . S
C1542 C1541 1.379 . S
H1543 C1537 0.959 . S
H1544 C1537 0.961 . S
H1545 C1537 0.960 . S
H1546 C1538 0.930 . S
H1547 C1539 0.929 . S
H1548 C1556 0.929 . S
H1549 C1558 0.930 . S
H1550 C1560 0.930 . S
H1551 C1563 0.929 . S
H1552 C1566 0.930 . S
H1553 C1568 0.960 . S
H1554 C1568 0.960 . S
H1555 C1568 0.960 . S
C1556 H1548 0.929 . S
C1556 C1557 1.377 . S
C1556 C1558 1.384 . S
C1557 C1556 1.377 . S
C1557 C1563 1.390 . S
C1558 H1549 0.930 . S
C1558 C1556 1.384 . S
C1558 C1559 1.372 . S
C1559 C1558 1.372 . S
C1559 C1560 1.400 . S
C1559 C1564 1.490 . S
C1560 H1550 0.930 . S
C1560 C1559 1.400 . S
C1560 C1563 1.386 . S
H1561 C1577 0.930 . S
H1562 C1578 0.931 . S
C1563 H1551 0.929 . S
C1563 C1557 1.390 . S
C1563 C1560 1.386 . S
C1564 C1559 1.490 . S
C1564 C1566 1.395 . S
C1564 C1567 1.403 . S
H1565 C1571 0.930 . S
C1566 H1552 0.930 . S
C1566 C1564 1.395 . S
C1566 C1569 1.403 . S
C1567 C1564 1.403 . S
C1567 C1568 1.524 . S
C1567 C1571 1.400 . S
C1568 H1553 0.960 . S
C1568 H1554 0.960 . S
C1568 H1555 0.960 . S
C1568 C1567 1.524 . S
C1569 C1566 1.403 . S
C1569 C1570 1.392 . S
C1569 C1573 1.495 . S
C1570 C1569 1.392 . S
C1570 C1571 1.385 . S
C1570 C1572 1.478 . S
C1571 H1565 0.930 . S
C1571 C1567 1.400 . S
C1571 C1570 1.385 . S
C1572 C1570 1.478 . S
C1572 C1574 1.381 . S
C1572 C1578 1.383 . S
C1573 C1569 1.495 . S
C1573 H1579 0.959 . S
C1573 H1580 0.961 . S
C1573 H1581 0.960 . S
C1574 C1572 1.381 . S
C1574 C1575 1.394 . S
C1574 H1582 0.930 . S
C1575 C1574 1.394 . S
C1575 C1576 1.383 . S
C1575 H1583 0.929 . S
C1576 C1575 1.383 . S
C1576 C1577 1.377 . S
C1577 H1561 0.930 . S
C1577 C1576 1.377 . S
C1577 C1578 1.379 . S
C1578 H1562 0.931 . S
C1578 C1572 1.383 . S
C1578 C1577 1.379 . S
H1579 C1573 0.959 . S
H1580 C1573 0.961 . S
H1581 C1573 0.960 . S
H1582 C1574 0.930 . S
H1583 C1575 0.929 . S
H1584 C1592 0.929 . S
H1585 C1594 0.930 . S
H1586 C1596 0.930 . S
H1587 C1599 0.929 . S
H1588 C1602 0.930 . S
H1589 C1604 0.960 . S
H1590 C1604 0.960 . S
H1591 C1604 0.960 . S
C1592 H1584 0.929 . S
C1592 C1593 1.377 . S
C1592 C1594 1.384 . S
C1593 C1592 1.377 . S
C1593 C1599 1.390 . S
C1594 H1585 0.930 . S
C1594 C1592 1.384 . S
C1594 C1595 1.372 . S
C1595 C1594 1.372 . S
C1595 C1596 1.400 . S
C1595 C1600 1.490 . S
C1596 H1586 0.930 . S
C1596 C1595 1.400 . S
C1596 C1599 1.386 . S
H1597 C1613 0.930 . S
H1598 C1614 0.931 . S
C1599 H1587 0.929 . S
C1599 C1593 1.390 . S
C1599 C1596 1.386 . S
C1600 C1595 1.490 . S
C1600 C1602 1.395 . S
C1600 C1603 1.403 . S
H1601 C1607 0.930 . S
C1602 H1588 0.930 . S
C1602 C1600 1.395 . S
C1602 C1605 1.403 . S
C1603 C1600 1.403 . S
C1603 C1604 1.524 . S
C1603 C1607 1.400 . S
C1604 H1589 0.960 . S
C1604 H1590 0.960 . S
C1604 H1591 0.960 . S
C1604 C1603 1.524 . S
C1605 C1602 1.403 . S
C1605 C1606 1.392 . S
C1605 C1609 1.495 . S
C1606 C1605 1.392 . S
C1606 C1607 1.385 . S
C1606 C1608 1.478 . S
C1607 H1601 0.930 . S
C1607 C1603 1.400 . S
C1607 C1606 1.385 . S
C1608 C1606 1.478 . S
C1608 C1610 1.381 . S
C1608 C1614 1.383 . S
C1609 C1605 1.495 . S
C1609 H1615 0.959 . S
C1609 H1616 0.961 . S
C1609 H1617 0.960 . S
C1610 C1608 1.381 . S
C1610 C1611 1.394 . S
C1610 H1618 0.930 . S
C1611 C1610 1.394 . S
C1611 C1612 1.383 . S
C1611 H1619 0.929 . S
C1612 C1611 1.383 . S
C1612 C1613 1.377 . S
C1613 H1597 0.930 . S
C1613 C1612 1.377 . S
C1613 C1614 1.379 . S
C1614 H1598 0.931 . S
C1614 C1608 1.383 . S
C1614 C1613 1.379 . S
H1615 C1609 0.959 . S
H1616 C1609 0.961 . S
H1617 C1609 0.960 . S
H1618 C1610 0.930 . S
H1619 C1611 0.929 . S
H1620 C1628 0.929 . S
H1621 C1630 0.930 . S
H1622 C1632 0.930 . S
H1623 C1635 0.929 . S
H1624 C1638 0.930 . S
H1625 C1640 0.960 . S
H1626 C1640 0.960 . S
H1627 C1640 0.960 . S
C1628 H1620 0.929 . S
C1628 C1629 1.377 . S
C1628 C1630 1.384 . S
C1629 C1628 1.377 . S
C1629 C1635 1.390 . S
C1630 H1621 0.930 . S
C1630 C1628 1.384 . S
C1630 C1631 1.372 . S
C1631 C1630 1.372 . S
C1631 C1632 1.400 . S
C1631 C1636 1.490 . S
C1632 H1622 0.930 . S
C1632 C1631 1.400 . S
C1632 C1635 1.386 . S
H1633 C1649 0.930 . S
H1634 C1650 0.931 . S
C1635 H1623 0.929 . S
C1635 C1629 1.390 . S
C1635 C1632 1.386 . S
C1636 C1631 1.490 . S
C1636 C1638 1.395 . S
C1636 C1639 1.403 . S
H1637 C1643 0.930 . S
C1638 H1624 0.930 . S
C1638 C1636 1.395 . S
C1638 C1641 1.403 . S
C1639 C1636 1.403 . S
C1639 C1640 1.524 . S
C1639 C1643 1.400 . S
C1640 H1625 0.960 . S
C1640 H1626 0.960 . S
C1640 H1627 0.960 . S
C1640 C1639 1.524 . S
C1641 C1638 1.403 . S
C1641 C1642 1.392 . S
C1641 C1645 1.495 . S
C1642 C1641 1.392 . S
C1642 C1643 1.385 . S
C1642 C1644 1.478 . S
C1643 H1637 0.930 . S
C1643 C1639 1.400 . S
C1643 C1642 1.385 . S
C1644 C1642 1.478 . S
C1644 C1646 1.381 . S
C1644 C1650 1.383 . S
C1645 C1641 1.495 . S
C1645 H1651 0.959 . S
C1645 H1652 0.961 . S
C1645 H1653 0.960 . S
C1646 C1644 1.381 . S
C1646 C1647 1.394 . S
C1646 H1654 0.930 . S
C1647 C1646 1.394 . S
C1647 C1648 1.383 . S
C1647 H1655 0.929 . S
C1648 C1647 1.383 . S
C1648 C1649 1.377 . S
C1649 H1633 0.930 . S
C1649 C1648 1.377 . S
C1649 C1650 1.379 . S
C1650 H1634 0.931 . S
C1650 C1644 1.383 . S
C1650 C1649 1.379 . S
H1651 C1645 0.959 . S
H1652 C1645 0.961 . S
H1653 C1645 0.960 . S
H1654 C1646 0.930 . S
H1655 C1647 0.929 . S
H1656 C1664 0.929 . S
H1657 C1666 0.930 . S
H1658 C1668 0.930 . S
H1659 C1671 0.929 . S
H1660 C1674 0.930 . S
H1661 C1676 0.960 . S
H1662 C1676 0.960 . S
H1663 C1676 0.960 . S
C1664 H1656 0.929 . S
C1664 C1665 1.377 . S
C1664 C1666 1.384 . S
C1665 C1664 1.377 . S
C1665 C1671 1.390 . S
C1666 H1657 0.930 . S
C1666 C1664 1.384 . S
C1666 C1667 1.372 . S
C1667 C1666 1.372 . S
C1667 C1668 1.400 . S
C1667 C1672 1.490 . S
C1668 H1658 0.930 . S
C1668 C1667 1.400 . S
C1668 C1671 1.386 . S
H1669 C1685 0.930 . S
H1670 C1686 0.931 . S
C1671 H1659 0.929 . S
C1671 C1665 1.390 . S
C1671 C1668 1.386 . S
C1672 C1667 1.490 . S
C1672 C1674 1.395 . S
C1672 C1675 1.403 . S
H1673 C1679 0.930 . S
C1674 H1660 0.930 . S
C1674 C1672 1.395 . S
C1674 C1677 1.403 . S
C1675 C1672 1.403 . S
C1675 C1676 1.524 . S
C1675 C1679 1.400 . S
C1676 H1661 0.960 . S
C1676 H1662 0.960 . S
C1676 H1663 0.960 . S
C1676 C1675 1.524 . S
C1677 C1674 1.403 . S
C1677 C1678 1.392 . S
C1677 C1681 1.495 . S
C1678 C1677 1.392 . S
C1678 C1679 1.385 . S
C1678 C1680 1.478 . S
C1679 H1673 0.930 . S
C1679 C1675 1.400 . S
C1679 C1678 1.385 . S
C1680 C1678 1.478 . S
C1680 C1682 1.381 . S
C1680 C1686 1.383 . S
C1681 C1677 1.495 . S
C1681 H1687 0.959 . S
C1681 H1688 0.961 . S
C1681 H1689 0.960 . S
C1682 C1680 1.381 . S
C1682 C1683 1.394 . S
C1682 H1690 0.930 . S
C1683 C1682 1.394 . S
C1683 C1684 1.383 . S
C1683 H1691 0.929 . S
C1684 C1683 1.383 . S
C1684 C1685 1.377 . S
C1685 H1669 0.930 . S
C1685 C1684 1.377 . S
C1685 C1686 1.379 . S
C1686 H1670 0.931 . S
C1686 C1680 1.383 . S
C1686 C1685 1.379 . S
H1687 C1681 0.959 . S
H1688 C1681 0.961 . S
H1689 C1681 0.960 . S
H1690 C1682 0.930 . S
H1691 C1683 0.929 . S
H1692 C1700 0.929 . S
H1693 C1702 0.930 . S
H1694 C1704 0.930 . S
H1695 C1707 0.929 . S
H1696 C1710 0.930 . S
H1697 C1712 0.960 . S
H1698 C1712 0.960 . S
H1699 C1712 0.960 . S
C1700 H1692 0.929 . S
C1700 C1701 1.377 . S
C1700 C1702 1.384 . S
C1701 C1700 1.377 . S
C1701 C1707 1.390 . S
C1702 H1693 0.930 . S
C1702 C1700 1.384 . S
C1702 C1703 1.372 . S
C1703 C1702 1.372 . S
C1703 C1704 1.400 . S
C1703 C1708 1.490 . S
C1704 H1694 0.930 . S
C1704 C1703 1.400 . S
C1704 C1707 1.386 . S
H1705 C1721 0.930 . S
H1706 C1722 0.931 . S
C1707 H1695 0.929 . S
C1707 C1701 1.390 . S
C1707 C1704 1.386 . S
C1708 C1703 1.490 . S
C1708 C1710 1.395 . S
C1708 C1711 1.403 . S
H1709 C1715 0.930 . S
C1710 H1696 0.930 . S
C1710 C1708 1.395 . S
C1710 C1713 1.403 . S
C1711 C1708 1.403 . S
C1711 C1712 1.524 . S
C1711 C1715 1.400 . S
C1712 H1697 0.960 . S
C1712 H1698 0.960 . S
C1712 H1699 0.960 . S
C1712 C1711 1.524 . S
C1713 C1710 1.403 . S
C1713 C1714 1.392 . S
C1713 C1717 1.495 . S
C1714 C1713 1.392 . S
C1714 C1715 1.385 . S
C1714 C1716 1.478 . S
C1715 H1709 0.930 . S
C1715 C1711 1.400 . S
C1715 C1714 1.385 . S
C1716 C1714 1.478 . S
C1716 C1718 1.381 . S
C1716 C1722 1.383 . S
C1717 C1713 1.495 . S
C1717 H1723 0.959 . S
C1717 H1724 0.961 . S
C1717 H1725 0.960 . S
C1718 C1716 1.381 . S
C1718 C1719 1.394 1_554 S
C1718 H1726 0.930 . S
C1719 C1718 1.394 1_556 S
C1719 C1720 1.383 . S
C1719 H1727 0.929 . S
C1720 C1719 1.383 . S
C1720 C1721 1.377 . S
C1721 H1705 0.930 . S
C1721 C1720 1.377 . S
C1721 C1722 1.379 1_556 S
C1722 H1706 0.931 . S
C1722 C1716 1.383 . S
C1722 C1721 1.379 1_554 S
H1723 C1717 0.959 . S
H1724 C1717 0.961 . S
H1725 C1717 0.960 . S
H1726 C1718 0.930 . S
H1727 C1719 0.929 . S
H1728 C1736 0.929 . S
H1729 C1738 0.930 . S
H1730 C1740 0.930 . S
H1731 C1743 0.929 . S
H1732 C1746 0.930 . S
H1733 C1748 0.960 . S
H1734 C1748 0.960 . S
H1735 C1748 0.960 . S
C1736 H1728 0.929 . S
C1736 C1737 1.377 . S
C1736 C1738 1.384 1_556 S
C1737 C1736 1.377 . S
C1737 C1743 1.390 . S
C1738 H1729 0.930 . S
C1738 C1736 1.384 1_554 S
C1738 C1739 1.372 . S
C1739 C1738 1.372 . S
C1739 C1740 1.400 . S
C1739 C1744 1.490 . S
C1740 H1730 0.930 . S
C1740 C1739 1.400 . S
C1740 C1743 1.386 1_554 S
H1741 C1757 0.930 . S
H1742 C1758 0.931 . S
C1743 H1731 0.929 . S
C1743 C1737 1.390 . S
C1743 C1740 1.386 1_556 S
C1744 C1739 1.490 . S
C1744 C1746 1.395 . S
C1744 C1747 1.403 . S
H1745 C1751 0.930 . S
C1746 H1732 0.930 . S
C1746 C1744 1.395 . S
C1746 C1749 1.403 . S
C1747 C1744 1.403 . S
C1747 C1748 1.524 . S
C1747 C1751 1.400 . S
C1748 H1733 0.960 . S
C1748 H1734 0.960 . S
C1748 H1735 0.960 . S
C1748 C1747 1.524 . S
C1749 C1746 1.403 . S
C1749 C1750 1.392 . S
C1749 C1753 1.495 . S
C1750 C1749 1.392 . S
C1750 C1751 1.385 . S
C1750 C1752 1.478 . S
C1751 H1745 0.930 . S
C1751 C1747 1.400 . S
C1751 C1750 1.385 . S
C1752 C1750 1.478 . S
C1752 C1754 1.381 . S
C1752 C1758 1.383 . S
C1753 C1749 1.495 . S
C1753 H1759 0.959 . S
C1753 H1760 0.961 . S
C1753 H1761 0.960 . S
C1754 C1752 1.381 . S
C1754 C1755 1.394 . S
C1754 H1762 0.930 . S
C1755 C1754 1.394 . S
C1755 C1756 1.383 . S
C1755 H1763 0.929 . S
C1756 C1755 1.383 . S
C1756 C1757 1.377 . S
C1757 H1741 0.930 . S
C1757 C1756 1.377 . S
C1757 C1758 1.379 . S
C1758 H1742 0.931 . S
C1758 C1752 1.383 . S
C1758 C1757 1.379 . S
H1759 C1753 0.959 . S
H1760 C1753 0.961 . S
H1761 C1753 0.960 . S
H1762 C1754 0.930 . S
H1763 C1755 0.929 . S
H1764 C1772 0.929 . S
H1765 C1774 0.930 . S
H1766 C1776 0.930 . S
H1767 C1779 0.929 . S
H1768 C1782 0.930 . S
H1769 C1784 0.960 . S
H1770 C1784 0.960 . S
H1771 C1784 0.960 . S
C1772 H1764 0.929 . S
C1772 C1773 1.377 . S
C1772 C1774 1.384 . S
C1773 C1772 1.377 . S
C1773 C1779 1.390 . S
C1774 H1765 0.930 . S
C1774 C1772 1.384 . S
C1774 C1775 1.372 . S
C1775 C1774 1.372 . S
C1775 C1776 1.400 . S
C1775 C1780 1.490 . S
C1776 H1766 0.930 . S
C1776 C1775 1.400 . S
C1776 C1779 1.386 . S
H1777 C1793 0.930 . S
H1778 C1794 0.931 . S
C1779 H1767 0.929 . S
C1779 C1773 1.390 . S
C1779 C1776 1.386 . S
C1780 C1775 1.490 . S
C1780 C1782 1.395 . S
C1780 C1783 1.403 . S
H1781 C1787 0.930 . S
C1782 H1768 0.930 . S
C1782 C1780 1.395 . S
C1782 C1785 1.403 . S
C1783 C1780 1.403 . S
C1783 C1784 1.524 . S
C1783 C1787 1.400 . S
C1784 H1769 0.960 . S
C1784 H1770 0.960 . S
C1784 H1771 0.960 . S
C1784 C1783 1.524 . S
C1785 C1782 1.403 . S
C1785 C1786 1.392 . S
C1785 C1789 1.495 . S
C1786 C1785 1.392 . S
C1786 C1787 1.385 . S
C1786 C1788 1.478 . S
C1787 H1781 0.930 . S
C1787 C1783 1.400 . S
C1787 C1786 1.385 . S
C1788 C1786 1.478 . S
C1788 C1790 1.381 . S
C1788 C1794 1.383 . S
C1789 C1785 1.495 . S
C1789 H1795 0.959 . S
C1789 H1796 0.961 . S
C1789 H1797 0.960 . S
C1790 C1788 1.381 . S
C1790 C1791 1.394 1_554 S
C1790 H1798 0.930 . S
C1791 C1790 1.394 1_556 S
C1791 C1792 1.383 . S
C1791 H1799 0.929 . S
C1792 C1791 1.383 . S
C1792 C1793 1.377 . S
C1793 H1777 0.930 . S
C1793 C1792 1.377 . S
C1793 C1794 1.379 1_556 S
C1794 H1778 0.931 . S
C1794 C1788 1.383 . S
C1794 C1793 1.379 1_554 S
H1795 C1789 0.959 . S
H1796 C1789 0.961 . S
H1797 C1789 0.960 . S
H1798 C1790 0.930 . S
H1799 C1791 0.929 . S
H1800 C1808 0.929 . S
H1801 C1810 0.930 . S
H1802 C1812 0.930 . S
H1803 C1815 0.929 . S
H1804 C1818 0.930 . S
H1805 C1820 0.960 . S
H1806 C1820 0.960 . S
H1807 C1820 0.960 . S
C1808 H1800 0.929 . S
C1808 C1809 1.377 . S
C1808 C1810 1.384 . S
C1809 C1808 1.377 . S
C1809 C1815 1.390 . S
C1810 H1801 0.930 . S
C1810 C1808 1.384 . S
C1810 C1811 1.372 . S
C1811 C1810 1.372 . S
C1811 C1812 1.400 . S
C1811 C1816 1.490 . S
C1812 H1802 0.930 . S
C1812 C1811 1.400 . S
C1812 C1815 1.386 . S
H1813 C1829 0.930 . S
H1814 C1830 0.931 . S
C1815 H1803 0.929 . S
C1815 C1809 1.390 . S
C1815 C1812 1.386 . S
C1816 C1811 1.490 . S
C1816 C1818 1.395 . S
C1816 C1819 1.403 . S
H1817 C1823 0.930 . S
C1818 H1804 0.930 . S
C1818 C1816 1.395 . S
C1818 C1821 1.403 . S
C1819 C1816 1.403 . S
C1819 C1820 1.524 . S
C1819 C1823 1.400 . S
C1820 H1805 0.960 . S
C1820 H1806 0.960 . S
C1820 H1807 0.960 . S
C1820 C1819 1.524 . S
C1821 C1818 1.403 . S
C1821 C1822 1.392 . S
C1821 C1825 1.495 . S
C1822 C1821 1.392 . S
C1822 C1823 1.385 . S
C1822 C1824 1.478 . S
C1823 H1817 0.930 . S
C1823 C1819 1.400 . S
C1823 C1822 1.385 . S
C1824 C1822 1.478 . S
C1824 C1826 1.381 . S
C1824 C1830 1.383 . S
C1825 C1821 1.495 . S
C1825 H1831 0.959 . S
C1825 H1832 0.961 . S
C1825 H1833 0.960 . S
C1826 C1824 1.381 . S
C1826 C1827 1.394 . S
C1826 H1834 0.930 . S
C1827 C1826 1.394 . S
C1827 C1828 1.383 . S
C1827 H1835 0.929 . S
C1828 C1827 1.383 . S
C1828 C1829 1.377 . S
C1829 H1813 0.930 . S
C1829 C1828 1.377 . S
C1829 C1830 1.379 . S
C1830 H1814 0.931 . S
C1830 C1824 1.383 . S
C1830 C1829 1.379 . S
H1831 C1825 0.959 . S
H1832 C1825 0.961 . S
H1833 C1825 0.960 . S
H1834 C1826 0.930 . S
H1835 C1827 0.929 . S
H1836 C1844 0.929 . S
H1837 C1846 0.930 . S
H1838 C1848 0.930 . S
H1839 C1851 0.929 . S
H1840 C1854 0.930 . S
H1841 C1856 0.960 . S
H1842 C1856 0.960 . S
H1843 C1856 0.960 . S
C1844 H1836 0.929 . S
C1844 C1845 1.377 . S
C1844 C1846 1.384 . S
C1845 C1844 1.377 . S
C1845 C1851 1.390 . S
C1846 H1837 0.930 . S
C1846 C1844 1.384 . S
C1846 C1847 1.372 . S
C1847 C1846 1.372 . S
C1847 C1848 1.400 . S
C1847 C1852 1.490 . S
C1848 H1838 0.930 . S
C1848 C1847 1.400 . S
C1848 C1851 1.386 . S
H1849 C1865 0.930 . S
H1850 C1866 0.931 . S
C1851 H1839 0.929 . S
C1851 C1845 1.390 . S
C1851 C1848 1.386 . S
C1852 C1847 1.490 . S
C1852 C1854 1.395 . S
C1852 C1855 1.403 . S
H1853 C1859 0.930 . S
C1854 H1840 0.930 . S
C1854 C1852 1.395 . S
C1854 C1857 1.403 1_565 S
C1855 C1852 1.403 . S
C1855 C1856 1.524 . S
C1855 C1859 1.400 1_565 S
C1856 H1841 0.960 . S
C1856 H1842 0.960 . S
C1856 H1843 0.960 . S
C1856 C1855 1.524 . S
C1857 C1854 1.403 1_545 S
C1857 C1858 1.392 . S
C1857 C1861 1.495 . S
C1858 C1857 1.392 . S
C1858 C1859 1.385 . S
C1858 C1860 1.478 . S
C1859 H1853 0.930 . S
C1859 C1855 1.400 1_545 S
C1859 C1858 1.385 . S
C1860 C1858 1.478 . S
C1860 C1862 1.381 . S
C1860 C1866 1.383 . S
C1861 C1857 1.495 . S
C1861 H1867 0.959 . S
C1861 H1868 0.961 . S
C1861 H1869 0.960 . S
C1862 C1860 1.381 . S
C1862 C1863 1.394 . S
C1862 H1870 0.930 . S
C1863 C1862 1.394 . S
C1863 C1864 1.383 . S
C1863 H1871 0.929 . S
C1864 C1863 1.383 . S
C1864 C1865 1.377 . S
C1865 H1849 0.930 . S
C1865 C1864 1.377 . S
C1865 C1866 1.379 . S
C1866 H1850 0.931 . S
C1866 C1860 1.383 . S
C1866 C1865 1.379 . S
H1867 C1861 0.959 . S
H1868 C1861 0.961 . S
H1869 C1861 0.960 . S
H1870 C1862 0.930 . S
H1871 C1863 0.929 . S
H1872 C1880 0.929 . S
H1873 C1882 0.930 . S
H1874 C1884 0.930 . S
H1875 C1887 0.929 . S
H1876 C1890 0.930 . S
H1877 C1892 0.960 . S
H1878 C1892 0.960 . S
H1879 C1892 0.960 . S
C1880 H1872 0.929 . S
C1880 C1881 1.377 . S
C1880 C1882 1.384 . S
C1881 C1880 1.377 . S
C1881 C1887 1.390 . S
C1882 H1873 0.930 . S
C1882 C1880 1.384 . S
C1882 C1883 1.372 . S
C1883 C1882 1.372 . S
C1883 C1884 1.400 . S
C1883 C1888 1.490 . S
C1884 H1874 0.930 . S
C1884 C1883 1.400 . S
C1884 C1887 1.386 . S
H1885 C1901 0.930 . S
H1886 C1902 0.931 . S
C1887 H1875 0.929 . S
C1887 C1881 1.390 . S
C1887 C1884 1.386 . S
C1888 C1883 1.490 . S
C1888 C1890 1.395 . S
C1888 C1891 1.403 . S
H1889 C1895 0.930 . S
C1890 H1876 0.930 . S
C1890 C1888 1.395 . S
C1890 C1893 1.403 1_655 S
C1891 C1888 1.403 . S
C1891 C1892 1.524 . S
C1891 C1895 1.400 1_655 S
C1892 H1877 0.960 . S
C1892 H1878 0.960 . S
C1892 H1879 0.960 . S
C1892 C1891 1.524 . S
C1893 C1890 1.403 1_455 S
C1893 C1894 1.392 . S
C1893 C1897 1.495 . S
C1894 C1893 1.392 . S
C1894 C1895 1.385 . S
C1894 C1896 1.478 . S
C1895 H1889 0.930 . S
C1895 C1891 1.400 1_455 S
C1895 C1894 1.385 . S
C1896 C1894 1.478 . S
C1896 C1898 1.381 . S
C1896 C1902 1.383 . S
C1897 C1893 1.495 . S
C1897 H1903 0.959 . S
C1897 H1904 0.961 . S
C1897 H1905 0.960 . S
C1898 C1896 1.381 . S
C1898 C1899 1.394 . S
C1898 H1906 0.930 . S
C1899 C1898 1.394 . S
C1899 C1900 1.383 . S
C1899 H1907 0.929 . S
C1900 C1899 1.383 . S
C1900 C1901 1.377 . S
C1901 H1885 0.930 . S
C1901 C1900 1.377 . S
C1901 C1902 1.379 . S
C1902 H1886 0.931 . S
C1902 C1896 1.383 . S
C1902 C1901 1.379 . S
H1903 C1897 0.959 . S
H1904 C1897 0.961 . S
H1905 C1897 0.960 . S
H1906 C1898 0.930 . S
H1907 C1899 0.929 . S
H1908 C1916 0.929 . S
H1909 C1918 0.930 . S
H1910 C1920 0.930 . S
H1911 C1923 0.929 . S
H1912 C1926 0.930 . S
H1913 C1928 0.960 . S
H1914 C1928 0.960 . S
H1915 C1928 0.960 . S
C1916 H1908 0.929 . S
C1916 C1917 1.377 . S
C1916 C1918 1.384 . S
C1917 C1916 1.377 . S
C1917 C1923 1.390 . S
C1918 H1909 0.930 . S
C1918 C1916 1.384 . S
C1918 C1919 1.372 . S
C1919 C1918 1.372 . S
C1919 C1920 1.400 . S
C1919 C1924 1.490 . S
C1920 H1910 0.930 . S
C1920 C1919 1.400 . S
C1920 C1923 1.386 . S
H1921 C1937 0.930 . S
H1922 C1938 0.931 . S
C1923 H1911 0.929 . S
C1923 C1917 1.390 . S
C1923 C1920 1.386 . S
C1924 C1919 1.490 . S
C1924 C1926 1.395 . S
C1924 C1927 1.403 . S
H1925 C1931 0.930 . S
C1926 H1912 0.930 . S
C1926 C1924 1.395 . S
C1926 C1929 1.403 . S
C1927 C1924 1.403 . S
C1927 C1928 1.524 . S
C1927 C1931 1.400 . S
C1928 H1913 0.960 . S
C1928 H1914 0.960 . S
C1928 H1915 0.960 . S
C1928 C1927 1.524 . S
C1929 C1926 1.403 . S
C1929 C1930 1.392 . S
C1929 C1933 1.495 . S
C1930 C1929 1.392 . S
C1930 C1931 1.385 . S
C1930 C1932 1.478 . S
C1931 H1925 0.930 . S
C1931 C1927 1.400 . S
C1931 C1930 1.385 . S
C1932 C1930 1.478 . S
C1932 C1934 1.381 . S
C1932 C1938 1.383 . S
C1933 C1929 1.495 . S
C1933 H1939 0.959 . S
C1933 H1940 0.961 . S
C1933 H1941 0.960 . S
C1934 C1932 1.381 . S
C1934 C1935 1.394 . S
C1934 H1942 0.930 . S
C1935 C1934 1.394 . S
C1935 C1936 1.383 . S
C1935 H1943 0.929 . S
C1936 C1935 1.383 . S
C1936 C1937 1.377 . S
C1937 H1921 0.930 . S
C1937 C1936 1.377 . S
C1937 C1938 1.379 . S
C1938 H1922 0.931 . S
C1938 C1932 1.383 . S
C1938 C1937 1.379 . S
H1939 C1933 0.959 . S
H1940 C1933 0.961 . S
H1941 C1933 0.960 . S
H1942 C1934 0.930 . S
H1943 C1935 0.929 . S
H1944 C1952 0.929 . S
H1945 C1954 0.930 . S
H1946 C1956 0.930 . S
H1947 C1959 0.929 . S
H1948 C1962 0.930 . S
H1949 C1964 0.960 . S
H1950 C1964 0.960 . S
H1951 C1964 0.960 . S
C1952 H1944 0.929 . S
C1952 C1953 1.377 . S
C1952 C1954 1.384 . S
C1953 C1952 1.377 . S
C1953 C1959 1.390 . S
C1954 H1945 0.930 . S
C1954 C1952 1.384 . S
C1954 C1955 1.372 . S
C1955 C1954 1.372 . S
C1955 C1956 1.400 . S
C1955 C1960 1.490 . S
C1956 H1946 0.930 . S
C1956 C1955 1.400 . S
C1956 C1959 1.386 . S
H1957 C1973 0.930 . S
H1958 C1974 0.931 . S
C1959 H1947 0.929 . S
C1959 C1953 1.390 . S
C1959 C1956 1.386 . S
C1960 C1955 1.490 . S
C1960 C1962 1.395 . S
C1960 C1963 1.403 . S
H1961 C1967 0.930 . S
C1962 H1948 0.930 . S
C1962 C1960 1.395 . S
C1962 C1965 1.403 1_545 S
C1963 C1960 1.403 . S
C1963 C1964 1.524 . S
C1963 C1967 1.400 1_545 S
C1964 H1949 0.960 . S
C1964 H1950 0.960 . S
C1964 H1951 0.960 . S
C1964 C1963 1.524 . S
C1965 C1962 1.403 1_565 S
C1965 C1966 1.392 . S
C1965 C1969 1.495 . S
C1966 C1965 1.392 . S
C1966 C1967 1.385 . S
C1966 C1968 1.478 . S
C1967 H1961 0.930 . S
C1967 C1963 1.400 1_565 S
C1967 C1966 1.385 . S
C1968 C1966 1.478 . S
C1968 C1970 1.381 . S
C1968 C1974 1.383 . S
C1969 C1965 1.495 . S
C1969 H1975 0.959 . S
C1969 H1976 0.961 . S
C1969 H1977 0.960 . S
C1970 C1968 1.381 . S
C1970 C1971 1.394 . S
C1970 H1978 0.930 . S
C1971 C1970 1.394 . S
C1971 C1972 1.383 . S
C1971 H1979 0.929 . S
C1972 C1971 1.383 . S
C1972 C1973 1.377 . S
C1973 H1957 0.930 . S
C1973 C1972 1.377 . S
C1973 C1974 1.379 . S
C1974 H1958 0.931 . S
C1974 C1968 1.383 . S
C1974 C1973 1.379 . S
H1975 C1969 0.959 . S
H1976 C1969 0.961 . S
H1977 C1969 0.960 . S
H1978 C1970 0.930 . S
H1979 C1971 0.929 . S
H1980 C1988 0.929 . S
H1981 C1990 0.930 . S
H1982 C1992 0.930 . S
H1983 C1995 0.929 . S
H1984 C1998 0.930 . S
H1985 C2000 0.960 . S
H1986 C2000 0.960 . S
H1987 C2000 0.960 . S
C1988 H1980 0.929 . S
C1988 C1989 1.377 . S
C1988 C1990 1.384 . S
C1989 C1988 1.377 . S
C1989 C1995 1.390 . S
C1990 H1981 0.930 . S
C1990 C1988 1.384 . S
C1990 C1991 1.372 . S
C1991 C1990 1.372 . S
C1991 C1992 1.400 . S
C1991 C1996 1.490 . S
C1992 H1982 0.930 . S
C1992 C1991 1.400 . S
C1992 C1995 1.386 . S
H1993 C2009 0.930 . S
H1994 C2010 0.931 . S
C1995 H1983 0.929 . S
C1995 C1989 1.390 . S
C1995 C1992 1.386 . S
C1996 C1991 1.490 . S
C1996 C1998 1.395 . S
C1996 C1999 1.403 . S
H1997 C2003 0.930 . S
C1998 H1984 0.930 . S
C1998 C1996 1.395 . S
C1998 C2001 1.403 1_655 S
C1999 C1996 1.403 . S
C1999 C2000 1.524 . S
C1999 C2003 1.400 1_655 S
C2000 H1985 0.960 . S
C2000 H1986 0.960 . S
C2000 H1987 0.960 . S
C2000 C1999 1.524 . S
C2001 C1998 1.403 1_455 S
C2001 C2002 1.392 . S
C2001 C2005 1.495 . S
C2002 C2001 1.392 . S
C2002 C2003 1.385 . S
C2002 C2004 1.478 . S
C2003 H1997 0.930 . S
C2003 C1999 1.400 1_455 S
C2003 C2002 1.385 . S
C2004 C2002 1.478 . S
C2004 C2006 1.381 . S
C2004 C2010 1.383 . S
C2005 C2001 1.495 . S
C2005 H2011 0.959 . S
C2005 H2012 0.961 . S
C2005 H2013 0.960 . S
C2006 C2004 1.381 . S
C2006 C2007 1.394 . S
C2006 H2014 0.930 . S
C2007 C2006 1.394 . S
C2007 C2008 1.383 . S
C2007 H2015 0.929 . S
C2008 C2007 1.383 . S
C2008 C2009 1.377 . S
C2009 H1993 0.930 . S
C2009 C2008 1.377 . S
C2009 C2010 1.379 . S
C2010 H1994 0.931 . S
C2010 C2004 1.383 . S
C2010 C2009 1.379 . S
H2011 C2005 0.959 . S
H2012 C2005 0.961 . S
H2013 C2005 0.960 . S
H2014 C2006 0.930 . S
H2015 C2007 0.929 . S
H2016 C2024 0.929 . S
H2017 C2026 0.930 . S
H2018 C2028 0.930 . S
H2019 C2031 0.929 . S
H2020 C2034 0.930 . S
H2021 C2036 0.960 . S
H2022 C2036 0.960 . S
H2023 C2036 0.960 . S
C2024 H2016 0.929 . S
C2024 C2025 1.377 . S
C2024 C2026 1.384 . S
C2025 C2024 1.377 . S
C2025 C2031 1.390 . S
C2026 H2017 0.930 . S
C2026 C2024 1.384 . S
C2026 C2027 1.372 . S
C2027 C2026 1.372 . S
C2027 C2028 1.400 . S
C2027 C2032 1.490 . S
C2028 H2018 0.930 . S
C2028 C2027 1.400 . S
C2028 C2031 1.386 . S
H2029 C2045 0.930 . S
H2030 C2046 0.931 . S
C2031 H2019 0.929 . S
C2031 C2025 1.390 . S
C2031 C2028 1.386 . S
C2032 C2027 1.490 . S
C2032 C2034 1.395 . S
C2032 C2035 1.403 . S
H2033 C2039 0.930 . S
C2034 H2020 0.930 . S
C2034 C2032 1.395 . S
C2034 C2037 1.403 . S
C2035 C2032 1.403 . S
C2035 C2036 1.524 . S
C2035 C2039 1.400 . S
C2036 H2021 0.960 . S
C2036 H2022 0.960 . S
C2036 H2023 0.960 . S
C2036 C2035 1.524 . S
C2037 C2034 1.403 . S
C2037 C2038 1.392 . S
C2037 C2041 1.495 . S
C2038 C2037 1.392 . S
C2038 C2039 1.385 . S
C2038 C2040 1.478 . S
C2039 H2033 0.930 . S
C2039 C2035 1.400 . S
C2039 C2038 1.385 . S
C2040 C2038 1.478 . S
C2040 C2042 1.381 . S
C2040 C2046 1.383 . S
C2041 C2037 1.495 . S
C2041 H2047 0.959 . S
C2041 H2048 0.961 . S
C2041 H2049 0.960 . S
C2042 C2040 1.381 . S
C2042 C2043 1.394 . S
C2042 H2050 0.930 . S
C2043 C2042 1.394 . S
C2043 C2044 1.383 . S
C2043 H2051 0.929 . S
C2044 C2043 1.383 . S
C2044 C2045 1.377 . S
C2045 H2029 0.930 . S
C2045 C2044 1.377 . S
C2045 C2046 1.379 . S
C2046 H2030 0.931 . S
C2046 C2040 1.383 . S
C2046 C2045 1.379 . S
H2047 C2041 0.959 . S
H2048 C2041 0.961 . S
H2049 C2041 0.960 . S
H2050 C2042 0.930 . S
H2051 C2043 0.929 . S
H2052 C2060 0.929 . S
H2053 C2062 0.930 . S
H2054 C2064 0.930 . S
H2055 C2067 0.929 . S
H2056 C2070 0.930 . S
H2057 C2072 0.960 . S
H2058 C2072 0.960 . S
H2059 C2072 0.960 . S
C2060 H2052 0.929 . S
C2060 C2061 1.377 . S
C2060 C2062 1.384 . S
C2061 C2060 1.377 . S
C2061 C2067 1.390 . S
C2062 H2053 0.930 . S
C2062 C2060 1.384 . S
C2062 C2063 1.372 . S
C2063 C2062 1.372 . S
C2063 C2064 1.400 . S
C2063 C2068 1.490 . S
C2064 H2054 0.930 . S
C2064 C2063 1.400 . S
C2064 C2067 1.386 . S
H2065 C2081 0.930 . S
H2066 C2082 0.931 . S
C2067 H2055 0.929 . S
C2067 C2061 1.390 . S
C2067 C2064 1.386 . S
C2068 C2063 1.490 . S
C2068 C2070 1.395 . S
C2068 C2071 1.403 . S
H2069 C2075 0.930 . S
C2070 H2056 0.930 . S
C2070 C2068 1.395 . S
C2070 C2073 1.403 . S
C2071 C2068 1.403 . S
C2071 C2072 1.524 . S
C2071 C2075 1.400 . S
C2072 H2057 0.960 . S
C2072 H2058 0.960 . S
C2072 H2059 0.960 . S
C2072 C2071 1.524 . S
C2073 C2070 1.403 . S
C2073 C2074 1.392 . S
C2073 C2077 1.495 . S
C2074 C2073 1.392 . S
C2074 C2075 1.385 . S
C2074 C2076 1.478 . S
C2075 H2069 0.930 . S
C2075 C2071 1.400 . S
C2075 C2074 1.385 . S
C2076 C2074 1.478 . S
C2076 C2078 1.381 . S
C2076 C2082 1.383 . S
C2077 C2073 1.495 . S
C2077 H2083 0.959 . S
C2077 H2084 0.961 . S
C2077 H2085 0.960 . S
C2078 C2076 1.381 . S
C2078 C2079 1.394 . S
C2078 H2086 0.930 . S
C2079 C2078 1.394 . S
C2079 C2080 1.383 . S
C2079 H2087 0.929 . S
C2080 C2079 1.383 . S
C2080 C2081 1.377 . S
C2081 H2065 0.930 . S
C2081 C2080 1.377 . S
C2081 C2082 1.379 . S
C2082 H2066 0.931 . S
C2082 C2076 1.383 . S
C2082 C2081 1.379 . S
H2083 C2077 0.959 . S
H2084 C2077 0.961 . S
H2085 C2077 0.960 . S
H2086 C2078 0.930 . S
H2087 C2079 0.929 . S
H2088 C2096 0.929 . S
H2089 C2098 0.930 . S
H2090 C2100 0.930 . S
H2091 C2103 0.929 . S
H2092 C2106 0.930 . S
H2093 C2108 0.960 . S
H2094 C2108 0.960 . S
H2095 C2108 0.960 . S
C2096 H2088 0.929 . S
C2096 C2097 1.377 . S
C2096 C2098 1.384 . S
C2097 C2096 1.377 . S
C2097 C2103 1.390 . S
C2098 H2089 0.930 . S
C2098 C2096 1.384 . S
C2098 C2099 1.372 . S
C2099 C2098 1.372 . S
C2099 C2100 1.400 . S
C2099 C2104 1.490 . S
C2100 H2090 0.930 . S
C2100 C2099 1.400 . S
C2100 C2103 1.386 . S
H2101 C2117 0.930 . S
H2102 C2118 0.931 . S
C2103 H2091 0.929 . S
C2103 C2097 1.390 . S
C2103 C2100 1.386 . S
C2104 C2099 1.490 . S
C2104 C2106 1.395 . S
C2104 C2107 1.403 . S
H2105 C2111 0.930 . S
C2106 H2092 0.930 . S
C2106 C2104 1.395 . S
C2106 C2109 1.403 . S
C2107 C2104 1.403 . S
C2107 C2108 1.524 . S
C2107 C2111 1.400 . S
C2108 H2093 0.960 . S
C2108 H2094 0.960 . S
C2108 H2095 0.960 . S
C2108 C2107 1.524 . S
C2109 C2106 1.403 . S
C2109 C2110 1.392 . S
C2109 C2113 1.495 . S
C2110 C2109 1.392 . S
C2110 C2111 1.385 . S
C2110 C2112 1.478 . S
C2111 H2105 0.930 . S
C2111 C2107 1.400 . S
C2111 C2110 1.385 . S
C2112 C2110 1.478 . S
C2112 C2114 1.381 . S
C2112 C2118 1.383 . S
C2113 C2109 1.495 . S
C2113 H2119 0.959 . S
C2113 H2120 0.961 . S
C2113 H2121 0.960 . S
C2114 C2112 1.381 . S
C2114 C2115 1.394 . S
C2114 H2122 0.930 . S
C2115 C2114 1.394 . S
C2115 C2116 1.383 . S
C2115 H2123 0.929 . S
C2116 C2115 1.383 . S
C2116 C2117 1.377 . S
C2117 H2101 0.930 . S
C2117 C2116 1.377 . S
C2117 C2118 1.379 . S
C2118 H2102 0.931 . S
C2118 C2112 1.383 . S
C2118 C2117 1.379 . S
H2119 C2113 0.959 . S
H2120 C2113 0.961 . S
H2121 C2113 0.960 . S
H2122 C2114 0.930 . S
H2123 C2115 0.929 . S
H2124 C2132 0.929 . S
H2125 C2134 0.930 . S
H2126 C2136 0.930 . S
H2127 C2139 0.929 . S
H2128 C2142 0.930 . S
H2129 C2144 0.960 . S
H2130 C2144 0.960 . S
H2131 C2144 0.960 . S
C2132 H2124 0.929 . S
C2132 C2133 1.377 . S
C2132 C2134 1.384 . S
C2133 C2132 1.377 . S
C2133 C2139 1.390 . S
C2134 H2125 0.930 . S
C2134 C2132 1.384 . S
C2134 C2135 1.372 . S
C2135 C2134 1.372 . S
C2135 C2136 1.400 . S
C2135 C2140 1.490 . S
C2136 H2126 0.930 . S
C2136 C2135 1.400 . S
C2136 C2139 1.386 . S
H2137 C2153 0.930 . S
H2138 C2154 0.931 . S
C2139 H2127 0.929 . S
C2139 C2133 1.390 . S
C2139 C2136 1.386 . S
C2140 C2135 1.490 . S
C2140 C2142 1.395 . S
C2140 C2143 1.403 . S
H2141 C2147 0.930 . S
C2142 H2128 0.930 . S
C2142 C2140 1.395 . S
C2142 C2145 1.403 . S
C2143 C2140 1.403 . S
C2143 C2144 1.524 . S
C2143 C2147 1.400 . S
C2144 H2129 0.960 . S
C2144 H2130 0.960 . S
C2144 H2131 0.960 . S
C2144 C2143 1.524 . S
C2145 C2142 1.403 . S
C2145 C2146 1.392 . S
C2145 C2149 1.495 . S
C2146 C2145 1.392 . S
C2146 C2147 1.385 . S
C2146 C2148 1.478 . S
C2147 H2141 0.930 . S
C2147 C2143 1.400 . S
C2147 C2146 1.385 . S
C2148 C2146 1.478 . S
C2148 C2150 1.381 . S
C2148 C2154 1.383 . S
C2149 C2145 1.495 . S
C2149 H2155 0.959 . S
C2149 H2156 0.961 . S
C2149 H2157 0.960 . S
C2150 C2148 1.381 . S
C2150 C2151 1.394 . S
C2150 H2158 0.930 . S
C2151 C2150 1.394 . S
C2151 C2152 1.383 . S
C2151 H2159 0.929 . S
C2152 C2151 1.383 . S
C2152 C2153 1.377 . S
C2153 H2137 0.930 . S
C2153 C2152 1.377 . S
C2153 C2154 1.379 . S
C2154 H2138 0.931 . S
C2154 C2148 1.383 . S
C2154 C2153 1.379 . S
H2155 C2149 0.959 . S
H2156 C2149 0.961 . S
H2157 C2149 0.960 . S
H2158 C2150 0.930 . S
H2159 C2151 0.929 . S
H2160 C2168 0.929 . S
H2161 C2170 0.930 . S
H2162 C2172 0.930 . S
H2163 C2175 0.932 1_556 S
H2164 C2178 0.930 . S
H2165 C2180 0.960 . S
H2166 C2180 0.960 . S
H2167 C2180 0.960 . S
C2168 H2160 0.929 . S
C2168 C2169 1.377 . S
C2168 C2170 1.384 . S
C2169 C2168 1.377 . S
C2169 C2175 1.390 . S
C2170 H2161 0.930 . S
C2170 C2168 1.384 . S
C2170 C2171 1.372 . S
C2171 C2170 1.372 . S
C2171 C2172 1.400 . S
C2171 C2176 1.490 . S
C2172 H2162 0.930 . S
C2172 C2171 1.400 . S
C2172 C2175 1.386 . S
H2173 C2189 0.930 . S
H2174 C2190 0.931 . S
C2175 H2163 0.932 1_554 S
C2175 C2169 1.390 . S
C2175 C2172 1.386 . S
C2176 C2171 1.490 . S
C2176 C2178 1.395 . S
C2176 C2179 1.403 . S
H2177 C2183 0.930 . S
C2178 H2164 0.930 . S
C2178 C2176 1.395 . S
C2178 C2181 1.403 . S
C2179 C2176 1.403 . S
C2179 C2180 1.524 . S
C2179 C2183 1.400 . S
C2180 H2165 0.960 . S
C2180 H2166 0.960 . S
C2180 H2167 0.960 . S
C2180 C2179 1.524 . S
C2181 C2178 1.403 . S
C2181 C2182 1.392 . S
C2181 C2185 1.495 . S
C2182 C2181 1.392 . S
C2182 C2183 1.385 . S
C2182 C2184 1.478 . S
C2183 H2177 0.930 . S
C2183 C2179 1.400 . S
C2183 C2182 1.385 . S
C2184 C2182 1.478 . S
C2184 C2186 1.381 . S
C2184 C2190 1.383 . S
C2185 C2181 1.495 . S
C2185 H2191 0.959 . S
C2185 H2192 0.961 . S
C2185 H2193 0.960 . S
C2186 C2184 1.381 . S
C2186 C2187 1.394 . S
C2186 H2194 0.930 . S
C2187 C2186 1.394 . S
C2187 C2188 1.383 . S
C2187 H2195 0.929 . S
C2188 C2187 1.383 . S
C2188 C2189 1.377 . S
C2189 H2173 0.930 . S
C2189 C2188 1.377 . S
C2189 C2190 1.379 . S
C2190 H2174 0.931 . S
C2190 C2184 1.383 . S
C2190 C2189 1.379 . S
H2191 C2185 0.959 . S
H2192 C2185 0.961 . S
H2193 C2185 0.960 . S
H2194 C2186 0.930 . S
H2195 C2187 0.929 . S
H2196 C2204 0.929 . S
H2197 C2206 0.930 . S
H2198 C2208 0.930 . S
H2199 C2211 0.929 . S
H2200 C2214 0.930 . S
H2201 C2216 0.970 . S
H2202 C2216 0.960 . S
H2203 C2216 0.960 . S
C2204 H2196 0.929 . S
C2204 C2205 1.377 . S
C2204 C2206 1.384 . S
C2205 C2204 1.377 . S
C2205 C2211 1.390 . S
C2206 H2197 0.930 . S
C2206 C2204 1.384 . S
C2206 C2207 1.372 . S
C2207 C2206 1.372 . S
C2207 C2208 1.400 . S
C2207 C2212 1.490 . S
C2208 H2198 0.930 . S
C2208 C2207 1.400 . S
C2208 C2211 1.386 . S
H2209 C2225 0.930 . S
H2210 C2226 0.931 . S
C2211 H2199 0.929 . S
C2211 C2205 1.390 . S
C2211 C2208 1.386 . S
C2212 C2207 1.490 . S
C2212 C2214 1.395 . S
C2212 C2215 1.403 . S
H2213 C2219 0.930 . S
C2214 H2200 0.930 . S
C2214 C2212 1.395 . S
C2214 C2217 1.403 . S
C2215 C2212 1.403 . S
C2215 C2216 1.524 . S
C2215 C2219 1.400 . S
C2216 H2201 0.970 . S
C2216 H2202 0.960 . S
C2216 H2203 0.960 . S
C2216 C2215 1.524 . S
C2217 C2214 1.403 . S
C2217 C2218 1.392 . S
C2217 C2221 1.495 . S
C2218 C2217 1.392 . S
C2218 C2219 1.385 . S
C2218 C2220 1.478 . S
C2219 H2213 0.930 . S
C2219 C2215 1.400 . S
C2219 C2218 1.385 . S
C2220 C2218 1.478 . S
C2220 C2222 1.381 . S
C2220 C2226 1.383 . S
C2221 C2217 1.495 . S
C2221 H2227 0.959 . S
C2221 H2228 0.961 . S
C2221 H2229 0.960 . S
C2222 C2220 1.381 . S
C2222 C2223 1.394 . S
C2222 H2230 0.930 . S
C2223 C2222 1.394 . S
C2223 C2224 1.383 . S
C2223 H2231 0.929 . S
C2224 C2223 1.383 . S
C2224 C2225 1.377 . S
C2225 H2209 0.930 . S
C2225 C2224 1.377 . S
C2225 C2226 1.379 . S
C2226 H2210 0.931 . S
C2226 C2220 1.383 . S
C2226 C2225 1.379 . S
H2227 C2221 0.959 . S
H2228 C2221 0.961 . S
H2229 C2221 0.960 . S
H2230 C2222 0.930 . S
H2231 C2223 0.929 . S
H2232 C2240 0.929 . S
H2233 C2242 0.930 . S
H2234 C2244 0.930 . S
H2235 C2247 0.929 . S
H2236 C2250 0.930 . S
H2237 C2252 0.960 . S
H2238 C2252 0.960 . S
H2239 C2252 0.960 . S
C2240 H2232 0.929 . S
C2240 C2241 1.377 . S
C2240 C2242 1.384 . S
C2241 C2240 1.377 . S
C2241 C2247 1.390 . S
C2242 H2233 0.930 . S
C2242 C2240 1.384 . S
C2242 C2243 1.372 . S
C2243 C2242 1.372 . S
C2243 C2244 1.400 . S
C2243 C2248 1.490 . S
C2244 H2234 0.930 . S
C2244 C2243 1.400 . S
C2244 C2247 1.386 . S
H2245 C2261 0.930 . S
H2246 C2262 0.931 . S
C2247 H2235 0.929 . S
C2247 C2241 1.390 . S
C2247 C2244 1.386 . S
C2248 C2243 1.490 . S
C2248 C2250 1.395 . S
C2248 C2251 1.403 . S
H2249 C2255 0.930 . S
C2250 H2236 0.930 . S
C2250 C2248 1.395 . S
C2250 C2253 1.403 . S
C2251 C2248 1.403 . S
C2251 C2252 1.524 . S
C2251 C2255 1.400 . S
C2252 H2237 0.960 . S
C2252 H2238 0.960 . S
C2252 H2239 0.960 . S
C2252 C2251 1.524 . S
C2253 C2250 1.403 . S
C2253 C2254 1.392 . S
C2253 C2257 1.495 . S
C2254 C2253 1.392 . S
C2254 C2255 1.385 . S
C2254 C2256 1.478 . S
C2255 H2249 0.930 . S
C2255 C2251 1.400 . S
C2255 C2254 1.385 . S
C2256 C2254 1.478 . S
C2256 C2258 1.381 . S
C2256 C2262 1.383 . S
C2257 C2253 1.495 . S
C2257 H2263 0.959 . S
C2257 H2264 0.961 . S
C2257 H2265 0.960 . S
C2258 C2256 1.381 . S
C2258 C2259 1.394 . S
C2258 H2266 0.930 . S
C2259 C2258 1.394 . S
C2259 C2260 1.383 . S
C2259 H2267 0.929 . S
C2260 C2259 1.383 . S
C2260 C2261 1.377 . S
C2261 H2245 0.930 . S
C2261 C2260 1.377 . S
C2261 C2262 1.379 . S
C2262 H2246 0.931 . S
C2262 C2256 1.383 . S
C2262 C2261 1.379 . S
H2263 C2257 0.959 . S
H2264 C2257 0.961 . S
H2265 C2257 0.960 . S
H2266 C2258 0.930 . S
H2267 C2259 0.929 . S
H2268 C2276 0.929 . S
H2269 C2278 0.930 . S
H2270 C2280 0.930 . S
H2271 C2283 0.929 . S
H2272 C2286 0.930 . S
H2273 C2288 0.960 1_554 S
H2274 C2288 0.960 1_554 S
H2275 C2288 0.960 . S
C2276 H2268 0.929 . S
C2276 C2277 1.377 . S
C2276 C2278 1.384 . S
C2277 C2276 1.377 . S
C2277 C2283 1.390 . S
C2278 H2269 0.930 . S
C2278 C2276 1.384 . S
C2278 C2279 1.372 . S
C2279 C2278 1.372 . S
C2279 C2280 1.400 . S
C2279 C2284 1.490 . S
C2280 H2270 0.930 . S
C2280 C2279 1.400 . S
C2280 C2283 1.386 . S
H2281 C2297 0.930 . S
H2282 C2298 0.931 . S
C2283 H2271 0.929 . S
C2283 C2277 1.390 . S
C2283 C2280 1.386 . S
C2284 C2279 1.490 . S
C2284 C2286 1.395 . S
C2284 C2287 1.403 . S
H2285 C2291 0.930 . S
C2286 H2272 0.930 . S
C2286 C2284 1.395 . S
C2286 C2289 1.403 . S
C2287 C2284 1.403 . S
C2287 C2288 1.524 . S
C2287 C2291 1.400 . S
C2288 H2273 0.960 1_556 S
C2288 H2274 0.960 1_556 S
C2288 H2275 0.960 . S
C2288 C2287 1.524 . S
C2289 C2286 1.403 . S
C2289 C2290 1.392 . S
C2289 C2293 1.495 . S
C2290 C2289 1.392 . S
C2290 C2291 1.385 . S
C2290 C2292 1.478 . S
C2291 H2285 0.930 . S
C2291 C2287 1.400 . S
C2291 C2290 1.385 . S
C2292 C2290 1.478 . S
C2292 C2294 1.381 . S
C2292 C2298 1.383 . S
C2293 C2289 1.495 . S
C2293 H2299 0.959 . S
C2293 H2300 0.961 . S
C2293 H2301 0.960 . S
C2294 C2292 1.381 . S
C2294 C2295 1.394 . S
C2294 H2302 0.930 . S
C2295 C2294 1.394 . S
C2295 C2296 1.383 . S
C2295 H2303 0.929 . S
C2296 C2295 1.383 . S
C2296 C2297 1.377 . S
C2297 H2281 0.930 . S
C2297 C2296 1.377 . S
C2297 C2298 1.379 . S
C2298 H2282 0.931 . S
C2298 C2292 1.383 . S
C2298 C2297 1.379 . S
H2299 C2293 0.959 . S
H2300 C2293 0.961 . S
H2301 C2293 0.960 . S
H2302 C2294 0.930 . S
H2303 C2295 0.929 . S
H2304 C2312 0.929 . S
H2305 C2314 0.930 . S
H2306 C2316 0.930 . S
H2307 C2319 0.929 . S
H2308 C2322 0.930 . S
H2309 C2324 0.960 . S
H2310 C2324 0.960 . S
H2311 C2324 0.960 . S
C2312 H2304 0.929 . S
C2312 C2313 1.377 . S
C2312 C2314 1.384 . S
C2313 C2312 1.377 . S
C2313 C2319 1.390 . S
C2314 H2305 0.930 . S
C2314 C2312 1.384 . S
C2314 C2315 1.372 . S
C2315 C2314 1.372 . S
C2315 C2316 1.400 . S
C2315 C2320 1.490 . S
C2316 H2306 0.930 . S
C2316 C2315 1.400 . S
C2316 C2319 1.386 . S
H2317 C2333 0.930 . S
H2318 C2334 0.931 . S
C2319 H2307 0.929 . S
C2319 C2313 1.390 . S
C2319 C2316 1.386 . S
C2320 C2315 1.490 . S
C2320 C2322 1.395 . S
C2320 C2323 1.403 . S
H2321 C2327 0.930 . S
C2322 H2308 0.930 . S
C2322 C2320 1.395 . S
C2322 C2325 1.403 . S
C2323 C2320 1.403 . S
C2323 C2324 1.524 . S
C2323 C2327 1.400 . S
C2324 H2309 0.960 . S
C2324 H2310 0.960 . S
C2324 H2311 0.960 . S
C2324 C2323 1.524 . S
C2325 C2322 1.403 . S
C2325 C2326 1.392 . S
C2325 C2329 1.495 . S
C2326 C2325 1.392 . S
C2326 C2327 1.385 . S
C2326 C2328 1.478 . S
C2327 H2321 0.930 . S
C2327 C2323 1.400 . S
C2327 C2326 1.385 . S
C2328 C2326 1.478 . S
C2328 C2330 1.381 . S
C2328 C2334 1.383 . S
C2329 C2325 1.495 . S
C2329 H2335 0.959 . S
C2329 H2336 0.961 . S
C2329 H2337 0.960 . S
C2330 C2328 1.381 . S
C2330 C2331 1.394 . S
C2330 H2338 0.930 . S
C2331 C2330 1.394 . S
C2331 C2332 1.383 . S
C2331 H2339 0.929 . S
C2332 C2331 1.383 . S
C2332 C2333 1.377 . S
C2333 H2317 0.930 . S
C2333 C2332 1.377 . S
C2333 C2334 1.379 . S
C2334 H2318 0.931 . S
C2334 C2328 1.383 . S
C2334 C2333 1.379 . S
H2335 C2329 0.959 . S
H2336 C2329 0.961 . S
H2337 C2329 0.960 . S
H2338 C2330 0.930 . S
H2339 C2331 0.929 . S
H2340 C2348 0.929 . S
H2341 C2350 0.930 . S
H2342 C2352 0.930 . S
H2343 C2355 0.929 . S
H2344 C2358 0.930 . S
H2345 C2360 0.960 . S
H2346 C2360 0.960 . S
H2347 C2360 0.960 . S
C2348 H2340 0.929 . S
C2348 C2349 1.377 . S
C2348 C2350 1.384 . S
C2349 C2348 1.377 . S
C2349 C2355 1.390 . S
C2350 H2341 0.930 . S
C2350 C2348 1.384 . S
C2350 C2351 1.372 . S
C2351 C2350 1.372 . S
C2351 C2352 1.400 . S
C2351 C2356 1.490 . S
C2352 H2342 0.930 . S
C2352 C2351 1.400 . S
C2352 C2355 1.386 . S
H2353 C2369 0.930 . S
H2354 C2370 0.931 . S
C2355 H2343 0.929 . S
C2355 C2349 1.390 . S
C2355 C2352 1.386 . S
C2356 C2351 1.490 . S
C2356 C2358 1.395 . S
C2356 C2359 1.403 . S
H2357 C2363 0.930 . S
C2358 H2344 0.930 . S
C2358 C2356 1.395 . S
C2358 C2361 1.403 . S
C2359 C2356 1.403 . S
C2359 C2360 1.524 . S
C2359 C2363 1.400 . S
C2360 H2345 0.960 . S
C2360 H2346 0.960 . S
C2360 H2347 0.960 . S
C2360 C2359 1.524 . S
C2361 C2358 1.403 . S
C2361 C2362 1.392 . S
C2361 C2365 1.495 . S
C2362 C2361 1.392 . S
C2362 C2363 1.385 . S
C2362 C2364 1.478 . S
C2363 H2357 0.930 . S
C2363 C2359 1.400 . S
C2363 C2362 1.385 . S
C2364 C2362 1.478 . S
C2364 C2366 1.381 . S
C2364 C2370 1.383 . S
C2365 C2361 1.495 . S
C2365 H2371 0.959 . S
C2365 H2372 0.961 . S
C2365 H2373 0.960 . S
C2366 C2364 1.381 . S
C2366 C2367 1.394 . S
C2366 H2374 0.930 . S
C2367 C2366 1.394 . S
C2367 C2368 1.383 . S
C2367 H2375 0.929 . S
C2368 C2367 1.383 . S
C2368 C2369 1.377 . S
C2369 H2353 0.930 . S
C2369 C2368 1.377 . S
C2369 C2370 1.379 . S
C2370 H2354 0.931 . S
C2370 C2364 1.383 . S
C2370 C2369 1.379 . S
H2371 C2365 0.959 . S
H2372 C2365 0.961 . S
H2373 C2365 0.960 . S
H2374 C2366 0.930 . S
H2375 C2367 0.929 . S
H2376 C2384 0.929 . S
H2377 C2386 0.930 . S
H2378 C2388 0.930 . S
H2379 C2391 0.929 . S
H2380 C2394 0.930 . S
H2381 C2396 0.960 . S
H2382 C2396 0.960 . S
H2383 C2396 0.960 . S
C2384 H2376 0.929 . S
C2384 C2385 1.377 . S
C2384 C2386 1.384 . S
C2385 C2384 1.377 . S
C2385 C2391 1.390 . S
C2386 H2377 0.930 . S
C2386 C2384 1.384 . S
C2386 C2387 1.372 . S
C2387 C2386 1.372 . S
C2387 C2388 1.400 . S
C2387 C2392 1.490 . S
C2388 H2378 0.930 . S
C2388 C2387 1.400 . S
C2388 C2391 1.386 . S
H2389 C2405 0.930 . S
H2390 C2406 0.931 . S
C2391 H2379 0.929 . S
C2391 C2385 1.390 . S
C2391 C2388 1.386 . S
C2392 C2387 1.490 . S
C2392 C2394 1.395 . S
C2392 C2395 1.403 . S
H2393 C2399 0.930 . S
C2394 H2380 0.930 . S
C2394 C2392 1.395 . S
C2394 C2397 1.403 . S
C2395 C2392 1.403 . S
C2395 C2396 1.524 . S
C2395 C2399 1.400 . S
C2396 H2381 0.960 . S
C2396 H2382 0.960 . S
C2396 H2383 0.960 . S
C2396 C2395 1.524 . S
C2397 C2394 1.403 . S
C2397 C2398 1.392 . S
C2397 C2401 1.495 . S
C2398 C2397 1.392 . S
C2398 C2399 1.385 . S
C2398 C2400 1.478 . S
C2399 H2393 0.930 . S
C2399 C2395 1.400 . S
C2399 C2398 1.385 . S
C2400 C2398 1.478 . S
C2400 C2402 1.381 . S
C2400 C2406 1.383 . S
C2401 C2397 1.495 . S
C2401 H2407 0.959 . S
C2401 H2408 0.961 . S
C2401 H2409 0.960 . S
C2402 C2400 1.381 . S
C2402 C2403 1.394 . S
C2402 H2410 0.930 . S
C2403 C2402 1.394 . S
C2403 C2404 1.383 . S
C2403 H2411 0.929 . S
C2404 C2403 1.383 . S
C2404 C2405 1.377 . S
C2405 H2389 0.930 . S
C2405 C2404 1.377 . S
C2405 C2406 1.379 . S
C2406 H2390 0.931 . S
C2406 C2400 1.383 . S
C2406 C2405 1.379 . S
H2407 C2401 0.959 . S
H2408 C2401 0.961 . S
H2409 C2401 0.960 . S
H2410 C2402 0.930 . S
H2411 C2403 0.929 . S
H2412 C2420 0.929 . S
H2413 C2422 0.930 . S
H2414 C2424 0.930 . S
H2415 C2427 0.929 . S
H2416 C2430 0.930 . S
H2417 C2432 0.960 . S
H2418 C2432 0.960 . S
H2419 C2432 0.960 . S
C2420 H2412 0.929 . S
C2420 C2421 1.377 . S
C2420 C2422 1.384 . S
C2421 C2420 1.377 . S
C2421 C2427 1.390 . S
C2422 H2413 0.930 . S
C2422 C2420 1.384 . S
C2422 C2423 1.372 . S
C2423 C2422 1.372 . S
C2423 C2424 1.400 . S
C2423 C2428 1.490 . S
C2424 H2414 0.930 . S
C2424 C2423 1.400 . S
C2424 C2427 1.386 . S
H2425 C2441 0.930 . S
H2426 C2442 0.931 . S
C2427 H2415 0.929 . S
C2427 C2421 1.390 . S
C2427 C2424 1.386 . S
C2428 C2423 1.490 . S
C2428 C2430 1.395 . S
C2428 C2431 1.403 . S
H2429 C2435 0.930 . S
C2430 H2416 0.930 . S
C2430 C2428 1.395 . S
C2430 C2433 1.403 . S
C2431 C2428 1.403 . S
C2431 C2432 1.524 . S
C2431 C2435 1.400 . S
C2432 H2417 0.960 . S
C2432 H2418 0.960 . S
C2432 H2419 0.960 . S
C2432 C2431 1.524 . S
C2433 C2430 1.403 . S
C2433 C2434 1.392 . S
C2433 C2437 1.495 . S
C2434 C2433 1.392 . S
C2434 C2435 1.385 . S
C2434 C2436 1.478 . S
C2435 H2429 0.930 . S
C2435 C2431 1.400 . S
C2435 C2434 1.385 . S
C2436 C2434 1.478 . S
C2436 C2438 1.381 . S
C2436 C2442 1.383 . S
C2437 C2433 1.495 . S
C2437 H2443 0.959 . S
C2437 H2444 0.961 . S
C2437 H2445 0.960 . S
C2438 C2436 1.381 . S
C2438 C2439 1.394 . S
C2438 H2446 0.930 . S
C2439 C2438 1.394 . S
C2439 C2440 1.383 . S
C2439 H2447 0.929 . S
C2440 C2439 1.383 . S
C2440 C2441 1.377 . S
C2441 H2425 0.930 . S
C2441 C2440 1.377 . S
C2441 C2442 1.379 . S
C2442 H2426 0.931 . S
C2442 C2436 1.383 . S
C2442 C2441 1.379 . S
H2443 C2437 0.959 . S
H2444 C2437 0.961 . S
H2445 C2437 0.960 . S
H2446 C2438 0.930 . S
H2447 C2439 0.929 . S
H2448 C2456 0.929 . S
H2449 C2458 0.930 . S
H2450 C2460 0.930 . S
H2451 C2463 0.929 . S
H2452 C2466 0.930 . S
H2453 C2468 0.960 . S
H2454 C2468 0.960 . S
H2455 C2468 0.960 . S
C2456 H2448 0.929 . S
C2456 C2457 1.377 . S
C2456 C2458 1.384 . S
C2457 C2456 1.377 . S
C2457 C2463 1.390 . S
C2458 H2449 0.930 . S
C2458 C2456 1.384 . S
C2458 C2459 1.372 . S
C2459 C2458 1.372 . S
C2459 C2460 1.400 . S
C2459 C2464 1.490 . S
C2460 H2450 0.930 . S
C2460 C2459 1.400 . S
C2460 C2463 1.386 . S
H2461 C2477 0.930 . S
H2462 C2478 0.931 . S
C2463 H2451 0.929 . S
C2463 C2457 1.390 . S
C2463 C2460 1.386 . S
C2464 C2459 1.490 . S
C2464 C2466 1.395 . S
C2464 C2467 1.403 . S
H2465 C2471 0.930 . S
C2466 H2452 0.930 . S
C2466 C2464 1.395 . S
C2466 C2469 1.403 . S
C2467 C2464 1.403 . S
C2467 C2468 1.524 . S
C2467 C2471 1.400 . S
C2468 H2453 0.960 . S
C2468 H2454 0.960 . S
C2468 H2455 0.960 . S
C2468 C2467 1.524 . S
C2469 C2466 1.403 . S
C2469 C2470 1.392 . S
C2469 C2473 1.495 . S
C2470 C2469 1.392 . S
C2470 C2471 1.385 . S
C2470 C2472 1.478 . S
C2471 H2465 0.930 . S
C2471 C2467 1.400 . S
C2471 C2470 1.385 . S
C2472 C2470 1.478 . S
C2472 C2474 1.381 . S
C2472 C2478 1.383 . S
C2473 C2469 1.495 . S
C2473 H2479 0.959 . S
C2473 H2480 0.961 . S
C2473 H2481 0.960 . S
C2474 C2472 1.381 . S
C2474 C2475 1.394 . S
C2474 H2482 0.930 . S
C2475 C2474 1.394 . S
C2475 C2476 1.383 . S
C2475 H2483 0.929 . S
C2476 C2475 1.383 . S
C2476 C2477 1.377 . S
C2477 H2461 0.930 . S
C2477 C2476 1.377 . S
C2477 C2478 1.379 . S
C2478 H2462 0.931 . S
C2478 C2472 1.383 . S
C2478 C2477 1.379 . S
H2479 C2473 0.959 . S
H2480 C2473 0.961 . S
H2481 C2473 0.960 . S
H2482 C2474 0.930 . S
H2483 C2475 0.929 . S
H2484 C2492 0.929 . S
H2485 C2494 0.930 . S
H2486 C2496 0.930 . S
H2487 C2499 0.929 . S
H2488 C2502 0.930 . S
H2489 C2504 0.960 . S
H2490 C2504 0.960 . S
H2491 C2504 0.960 . S
C2492 H2484 0.929 . S
C2492 C2493 1.377 . S
C2492 C2494 1.384 . S
C2493 C2492 1.377 . S
C2493 C2499 1.390 . S
C2494 H2485 0.930 . S
C2494 C2492 1.384 . S
C2494 C2495 1.372 . S
C2495 C2494 1.372 . S
C2495 C2496 1.400 . S
C2495 C2500 1.490 . S
C2496 H2486 0.930 . S
C2496 C2495 1.400 . S
C2496 C2499 1.386 . S
H2497 C2513 0.930 . S
H2498 C2514 0.931 . S
C2499 H2487 0.929 . S
C2499 C2493 1.390 . S
C2499 C2496 1.386 . S
C2500 C2495 1.490 . S
C2500 C2502 1.395 . S
C2500 C2503 1.403 . S
H2501 C2507 0.930 . S
C2502 H2488 0.930 . S
C2502 C2500 1.395 . S
C2502 C2505 1.403 . S
C2503 C2500 1.403 . S
C2503 C2504 1.524 . S
C2503 C2507 1.400 . S
C2504 H2489 0.960 . S
C2504 H2490 0.960 . S
C2504 H2491 0.960 . S
C2504 C2503 1.524 . S
C2505 C2502 1.403 . S
C2505 C2506 1.392 . S
C2505 C2509 1.495 . S
C2506 C2505 1.392 . S
C2506 C2507 1.385 . S
C2506 C2508 1.478 . S
C2507 H2501 0.930 . S
C2507 C2503 1.400 . S
C2507 C2506 1.385 . S
C2508 C2506 1.478 . S
C2508 C2510 1.381 . S
C2508 C2514 1.383 . S
C2509 C2505 1.495 . S
C2509 H2515 0.959 . S
C2509 H2516 0.961 . S
C2509 H2517 0.960 . S
C2510 C2508 1.381 . S
C2510 C2511 1.394 . S
C2510 H2518 0.930 . S
C2511 C2510 1.394 . S
C2511 C2512 1.383 . S
C2511 H2519 0.929 . S
C2512 C2511 1.383 . S
C2512 C2513 1.377 . S
C2513 H2497 0.930 . S
C2513 C2512 1.377 . S
C2513 C2514 1.379 . S
C2514 H2498 0.931 . S
C2514 C2508 1.383 . S
C2514 C2513 1.379 . S
H2515 C2509 0.959 . S
H2516 C2509 0.961 . S
H2517 C2509 0.960 . S
H2518 C2510 0.930 . S
H2519 C2511 0.929 . S
H2520 C2528 0.929 . S
H2521 C2530 0.930 . S
H2522 C2532 0.930 . S
H2523 C2535 0.929 . S
H2524 C2538 0.930 . S
H2525 C2540 0.960 . S
H2526 C2540 0.960 . S
H2527 C2540 0.960 . S
C2528 H2520 0.929 . S
C2528 C2529 1.377 . S
C2528 C2530 1.384 . S
C2529 C2528 1.377 . S
C2529 C2535 1.390 . S
C2530 H2521 0.930 . S
C2530 C2528 1.384 . S
C2530 C2531 1.372 . S
C2531 C2530 1.372 . S
C2531 C2532 1.400 . S
C2531 C2536 1.490 . S
C2532 H2522 0.930 . S
C2532 C2531 1.400 . S
C2532 C2535 1.386 . S
H2533 C2549 0.930 . S
H2534 C2550 0.931 . S
C2535 H2523 0.929 . S
C2535 C2529 1.390 . S
C2535 C2532 1.386 . S
C2536 C2531 1.490 . S
C2536 C2538 1.395 . S
C2536 C2539 1.403 . S
H2537 C2543 0.930 . S
C2538 H2524 0.930 . S
C2538 C2536 1.395 . S
C2538 C2541 1.403 . S
C2539 C2536 1.403 . S
C2539 C2540 1.524 . S
C2539 C2543 1.400 . S
C2540 H2525 0.960 . S
C2540 H2526 0.960 . S
C2540 H2527 0.960 . S
C2540 C2539 1.524 . S
C2541 C2538 1.403 . S
C2541 C2542 1.392 . S
C2541 C2545 1.495 . S
C2542 C2541 1.392 . S
C2542 C2543 1.385 . S
C2542 C2544 1.478 . S
C2543 H2537 0.930 . S
C2543 C2539 1.400 . S
C2543 C2542 1.385 . S
C2544 C2542 1.478 . S
C2544 C2546 1.381 . S
C2544 C2550 1.383 . S
C2545 C2541 1.495 . S
C2545 H2551 0.959 . S
C2545 H2552 0.961 . S
C2545 H2553 0.960 . S
C2546 C2544 1.381 . S
C2546 C2547 1.394 . S
C2546 H2554 0.930 . S
C2547 C2546 1.394 . S
C2547 C2548 1.383 . S
C2547 H2555 0.929 . S
C2548 C2547 1.383 . S
C2548 C2549 1.377 . S
C2549 H2533 0.930 . S
C2549 C2548 1.377 . S
C2549 C2550 1.379 . S
C2550 H2534 0.931 . S
C2550 C2544 1.383 . S
C2550 C2549 1.379 . S
H2551 C2545 0.959 . S
H2552 C2545 0.961 . S
H2553 C2545 0.960 . S
H2554 C2546 0.930 . S
H2555 C2547 0.929 . S
H2556 C2564 0.929 . S
H2557 C2566 0.930 . S
H2558 C2568 0.930 . S
H2559 C2571 0.929 . S
H2560 C2574 0.930 . S
H2561 C2576 0.960 . S
H2562 C2576 0.960 . S
H2563 C2576 0.960 . S
C2564 H2556 0.929 . S
C2564 C2565 1.377 . S
C2564 C2566 1.384 . S
C2565 C2564 1.377 . S
C2565 C2571 1.390 . S
C2566 H2557 0.930 . S
C2566 C2564 1.384 . S
C2566 C2567 1.372 . S
C2567 C2566 1.372 . S
C2567 C2568 1.400 . S
C2567 C2572 1.490 . S
C2568 H2558 0.930 . S
C2568 C2567 1.400 . S
C2568 C2571 1.386 . S
H2569 C2585 0.930 . S
H2570 C2586 0.931 . S
C2571 H2559 0.929 . S
C2571 C2565 1.390 . S
C2571 C2568 1.386 . S
C2572 C2567 1.490 . S
C2572 C2574 1.395 . S
C2572 C2575 1.403 . S
H2573 C2579 0.930 . S
C2574 H2560 0.930 . S
C2574 C2572 1.395 . S
C2574 C2577 1.403 . S
C2575 C2572 1.403 . S
C2575 C2576 1.524 . S
C2575 C2579 1.400 . S
C2576 H2561 0.960 . S
C2576 H2562 0.960 . S
C2576 H2563 0.960 . S
C2576 C2575 1.524 . S
C2577 C2574 1.403 . S
C2577 C2578 1.392 . S
C2577 C2581 1.495 . S
C2578 C2577 1.392 . S
C2578 C2579 1.385 . S
C2578 C2580 1.478 . S
C2579 H2573 0.930 . S
C2579 C2575 1.400 . S
C2579 C2578 1.385 . S
C2580 C2578 1.478 . S
C2580 C2582 1.381 . S
C2580 C2586 1.383 . S
C2581 C2577 1.495 . S
C2581 H2587 0.959 . S
C2581 H2588 0.961 . S
C2581 H2589 0.960 . S
C2582 C2580 1.381 . S
C2582 C2583 1.394 . S
C2582 H2590 0.930 . S
C2583 C2582 1.394 . S
C2583 C2584 1.383 . S
C2583 H2591 0.929 . S
C2584 C2583 1.383 . S
C2584 C2585 1.377 . S
C2585 H2569 0.930 . S
C2585 C2584 1.377 . S
C2585 C2586 1.379 . S
C2586 H2570 0.931 . S
C2586 C2580 1.383 . S
C2586 C2585 1.379 . S
H2587 C2581 0.959 . S
H2588 C2581 0.961 . S
H2589 C2581 0.960 . S
H2590 C2582 0.930 . S
H2591 C2583 0.929 . S
H2592 C2600 0.929 . S
H2593 C2602 0.930 . S
H2594 C2604 0.930 . S
H2595 C2607 0.929 . S
H2596 C2610 0.930 . S
H2597 C2612 0.960 . S
H2598 C2612 0.960 . S
H2599 C2612 0.960 . S
C2600 H2592 0.929 . S
C2600 C2601 1.377 . S
C2600 C2602 1.384 . S
C2601 C2600 1.377 . S
C2601 C2607 1.390 . S
C2602 H2593 0.930 . S
C2602 C2600 1.384 . S
C2602 C2603 1.372 . S
C2603 C2602 1.372 . S
C2603 C2604 1.400 . S
C2603 C2608 1.490 . S
C2604 H2594 0.930 . S
C2604 C2603 1.400 . S
C2604 C2607 1.386 . S
H2605 C2621 0.930 . S
H2606 C2622 0.931 . S
C2607 H2595 0.929 . S
C2607 C2601 1.390 . S
C2607 C2604 1.386 . S
C2608 C2603 1.490 . S
C2608 C2610 1.395 . S
C2608 C2611 1.403 . S
H2609 C2615 0.930 . S
C2610 H2596 0.930 . S
C2610 C2608 1.395 . S
C2610 C2613 1.403 . S
C2611 C2608 1.403 . S
C2611 C2612 1.524 . S
C2611 C2615 1.400 . S
C2612 H2597 0.960 . S
C2612 H2598 0.960 . S
C2612 H2599 0.960 . S
C2612 C2611 1.524 . S
C2613 C2610 1.403 . S
C2613 C2614 1.392 . S
C2613 C2617 1.495 . S
C2614 C2613 1.392 . S
C2614 C2615 1.385 . S
C2614 C2616 1.478 . S
C2615 H2609 0.930 . S
C2615 C2611 1.400 . S
C2615 C2614 1.385 . S
C2616 C2614 1.478 . S
C2616 C2618 1.381 . S
C2616 C2622 1.383 . S
C2617 C2613 1.495 . S
C2617 H2623 0.959 . S
C2617 H2624 0.961 . S
C2617 H2625 0.960 . S
C2618 C2616 1.381 . S
C2618 C2619 1.394 . S
C2618 H2626 0.930 . S
C2619 C2618 1.394 . S
C2619 C2620 1.383 . S
C2619 H2627 0.929 . S
C2620 C2619 1.383 . S
C2620 C2621 1.377 . S
C2621 H2605 0.930 . S
C2621 C2620 1.377 . S
C2621 C2622 1.379 . S
C2622 H2606 0.931 . S
C2622 C2616 1.383 . S
C2622 C2621 1.379 . S
H2623 C2617 0.959 . S
H2624 C2617 0.961 . S
H2625 C2617 0.960 . S
H2626 C2618 0.930 . S
H2627 C2619 0.929 . S
H2628 C2636 0.929 . S
H2629 C2638 0.930 . S
H2630 C2640 0.930 . S
H2631 C2643 0.929 . S
H2632 C2646 0.930 . S
H2633 C2648 0.960 . S
H2634 C2648 0.960 . S
H2635 C2648 0.960 . S
C2636 H2628 0.929 . S
C2636 C2637 1.377 . S
C2636 C2638 1.384 . S
C2637 C2636 1.377 . S
C2637 C2643 1.390 . S
C2638 H2629 0.930 . S
C2638 C2636 1.384 . S
C2638 C2639 1.372 . S
C2639 C2638 1.372 . S
C2639 C2640 1.400 . S
C2639 C2644 1.490 . S
C2640 H2630 0.930 . S
C2640 C2639 1.400 . S
C2640 C2643 1.386 . S
H2641 C2657 0.930 . S
H2642 C2658 0.931 . S
C2643 H2631 0.929 . S
C2643 C2637 1.390 . S
C2643 C2640 1.386 . S
C2644 C2639 1.490 . S
C2644 C2646 1.395 . S
C2644 C2647 1.403 . S
H2645 C2651 0.930 . S
C2646 H2632 0.930 . S
C2646 C2644 1.395 . S
C2646 C2649 1.403 . S
C2647 C2644 1.403 . S
C2647 C2648 1.524 . S
C2647 C2651 1.400 . S
C2648 H2633 0.960 . S
C2648 H2634 0.960 . S
C2648 H2635 0.960 . S
C2648 C2647 1.524 . S
C2649 C2646 1.403 . S
C2649 C2650 1.392 . S
C2649 C2653 1.495 . S
C2650 C2649 1.392 . S
C2650 C2651 1.385 . S
C2650 C2652 1.478 . S
C2651 H2645 0.930 . S
C2651 C2647 1.400 . S
C2651 C2650 1.385 . S
C2652 C2650 1.478 . S
C2652 C2654 1.381 . S
C2652 C2658 1.383 . S
C2653 C2649 1.495 . S
C2653 H2659 0.959 . S
C2653 H2660 0.961 . S
C2653 H2661 0.960 . S
C2654 C2652 1.381 . S
C2654 C2655 1.394 . S
C2654 H2662 0.930 . S
C2655 C2654 1.394 . S
C2655 C2656 1.383 . S
C2655 H2663 0.929 . S
C2656 C2655 1.383 . S
C2656 C2657 1.377 . S
C2657 H2641 0.930 . S
C2657 C2656 1.377 . S
C2657 C2658 1.379 . S
C2658 H2642 0.931 . S
C2658 C2652 1.383 . S
C2658 C2657 1.379 . S
H2659 C2653 0.959 . S
H2660 C2653 0.961 . S
H2661 C2653 0.960 . S
H2662 C2654 0.930 . S
H2663 C2655 0.929 . S
H2664 C2672 0.929 . S
H2665 C2674 0.930 . S
H2666 C2676 0.930 . S
H2667 C2679 0.929 . S
H2668 C2682 0.930 . S
H2669 C2684 0.960 . S
H2670 C2684 0.960 . S
H2671 C2684 0.960 . S
C2672 H2664 0.929 . S
C2672 C2673 1.377 . S
C2672 C2674 1.384 . S
C2673 C2672 1.377 . S
C2673 C2679 1.390 . S
C2674 H2665 0.930 . S
C2674 C2672 1.384 . S
C2674 C2675 1.372 . S
C2675 C2674 1.372 . S
C2675 C2676 1.400 . S
C2675 C2680 1.490 . S
C2676 H2666 0.930 . S
C2676 C2675 1.400 . S
C2676 C2679 1.386 . S
H2677 C2693 0.930 . S
H2678 C2694 0.931 . S
C2679 H2667 0.929 . S
C2679 C2673 1.390 . S
C2679 C2676 1.386 . S
C2680 C2675 1.490 . S
C2680 C2682 1.395 . S
C2680 C2683 1.403 . S
H2681 C2687 0.930 . S
C2682 H2668 0.930 . S
C2682 C2680 1.395 . S
C2682 C2685 1.403 . S
C2683 C2680 1.403 . S
C2683 C2684 1.524 . S
C2683 C2687 1.400 . S
C2684 H2669 0.960 . S
C2684 H2670 0.960 . S
C2684 H2671 0.960 . S
C2684 C2683 1.524 . S
C2685 C2682 1.403 . S
C2685 C2686 1.392 . S
C2685 C2689 1.495 . S
C2686 C2685 1.392 . S
C2686 C2687 1.385 . S
C2686 C2688 1.478 . S
C2687 H2681 0.930 . S
C2687 C2683 1.400 . S
C2687 C2686 1.385 . S
C2688 C2686 1.478 . S
C2688 C2690 1.381 . S
C2688 C2694 1.383 . S
C2689 C2685 1.495 . S
C2689 H2695 0.959 . S
C2689 H2696 0.961 . S
C2689 H2697 0.960 . S
C2690 C2688 1.381 . S
C2690 C2691 1.394 . S
C2690 H2698 0.930 . S
C2691 C2690 1.394 . S
C2691 C2692 1.383 . S
C2691 H2699 0.929 . S
C2692 C2691 1.383 . S
C2692 C2693 1.377 . S
C2693 H2677 0.930 . S
C2693 C2692 1.377 . S
C2693 C2694 1.379 . S
C2694 H2678 0.931 . S
C2694 C2688 1.383 . S
C2694 C2693 1.379 . S
H2695 C2689 0.959 . S
H2696 C2689 0.961 . S
H2697 C2689 0.960 . S
H2698 C2690 0.930 . S
H2699 C2691 0.929 . S
H2700 C2708 0.929 . S
H2701 C2710 0.930 . S
H2702 C2712 0.930 . S
H2703 C2715 0.929 . S
H2704 C2718 0.930 . S
H2705 C2720 0.960 . S
H2706 C2720 0.960 . S
H2707 C2720 0.960 . S
C2708 H2700 0.929 . S
C2708 C2709 1.377 . S
C2708 C2710 1.384 . S
C2709 C2708 1.377 . S
C2709 C2715 1.390 . S
C2710 H2701 0.930 . S
C2710 C2708 1.384 . S
C2710 C2711 1.372 . S
C2711 C2710 1.372 . S
C2711 C2712 1.400 . S
C2711 C2716 1.490 . S
C2712 H2702 0.930 . S
C2712 C2711 1.400 . S
C2712 C2715 1.386 . S
H2713 C2729 0.930 . S
H2714 C2730 0.931 . S
C2715 H2703 0.929 . S
C2715 C2709 1.390 . S
C2715 C2712 1.386 . S
C2716 C2711 1.490 . S
C2716 C2718 1.395 . S
C2716 C2719 1.403 . S
H2717 C2723 0.930 . S
C2718 H2704 0.930 . S
C2718 C2716 1.395 . S
C2718 C2721 1.403 . S
C2719 C2716 1.403 . S
C2719 C2720 1.524 . S
C2719 C2723 1.400 . S
C2720 H2705 0.960 . S
C2720 H2706 0.960 . S
C2720 H2707 0.960 . S
C2720 C2719 1.524 . S
C2721 C2718 1.403 . S
C2721 C2722 1.392 . S
C2721 C2725 1.495 . S
C2722 C2721 1.392 . S
C2722 C2723 1.385 . S
C2722 C2724 1.478 . S
C2723 H2717 0.930 . S
C2723 C2719 1.400 . S
C2723 C2722 1.385 . S
C2724 C2722 1.478 . S
C2724 C2726 1.381 . S
C2724 C2730 1.383 . S
C2725 C2721 1.495 . S
C2725 H2731 0.959 . S
C2725 H2732 0.961 . S
C2725 H2733 0.960 . S
C2726 C2724 1.381 . S
C2726 C2727 1.394 . S
C2726 H2734 0.930 . S
C2727 C2726 1.394 . S
C2727 C2728 1.383 . S
C2727 H2735 0.929 . S
C2728 C2727 1.383 . S
C2728 C2729 1.377 . S
C2729 H2713 0.930 . S
C2729 C2728 1.377 . S
C2729 C2730 1.379 . S
C2730 H2714 0.931 . S
C2730 C2724 1.383 . S
C2730 C2729 1.379 . S
H2731 C2725 0.959 . S
H2732 C2725 0.961 . S
H2733 C2725 0.960 . S
H2734 C2726 0.930 . S
H2735 C2727 0.929 . S
H2736 C2744 0.929 . S
H2737 C2746 0.930 . S
H2738 C2748 0.930 . S
H2739 C2751 0.929 . S
H2740 C2754 0.930 . S
H2741 C2756 0.960 . S
H2742 C2756 0.960 . S
H2743 C2756 0.960 . S
C2744 H2736 0.929 . S
C2744 C2745 1.377 . S
C2744 C2746 1.384 . S
C2745 C2744 1.377 . S
C2745 C2751 1.390 . S
C2746 H2737 0.930 . S
C2746 C2744 1.384 . S
C2746 C2747 1.372 . S
C2747 C2746 1.372 . S
C2747 C2748 1.400 . S
C2747 C2752 1.490 . S
C2748 H2738 0.930 . S
C2748 C2747 1.400 . S
C2748 C2751 1.386 . S
H2749 C2765 0.930 . S
H2750 C2766 0.931 . S
C2751 H2739 0.929 . S
C2751 C2745 1.390 . S
C2751 C2748 1.386 . S
C2752 C2747 1.490 . S
C2752 C2754 1.395 . S
C2752 C2755 1.403 . S
H2753 C2759 0.930 . S
C2754 H2740 0.930 . S
C2754 C2752 1.395 . S
C2754 C2757 1.403 . S
C2755 C2752 1.403 . S
C2755 C2756 1.524 . S
C2755 C2759 1.400 . S
C2756 H2741 0.960 . S
C2756 H2742 0.960 . S
C2756 H2743 0.960 . S
C2756 C2755 1.524 . S
C2757 C2754 1.403 . S
C2757 C2758 1.392 . S
C2757 C2761 1.495 . S
C2758 C2757 1.392 . S
C2758 C2759 1.385 . S
C2758 C2760 1.478 . S
C2759 H2753 0.930 . S
C2759 C2755 1.400 . S
C2759 C2758 1.385 . S
C2760 C2758 1.478 . S
C2760 C2762 1.381 . S
C2760 C2766 1.383 . S
C2761 C2757 1.495 . S
C2761 H2767 0.959 . S
C2761 H2768 0.961 . S
C2761 H2769 0.960 . S
C2762 C2760 1.381 . S
C2762 C2763 1.394 . S
C2762 H2770 0.930 . S
C2763 C2762 1.394 . S
C2763 C2764 1.383 . S
C2763 H2771 0.929 . S
C2764 C2763 1.383 . S
C2764 C2765 1.377 . S
C2765 H2749 0.930 . S
C2765 C2764 1.377 . S
C2765 C2766 1.379 . S
C2766 H2750 0.931 . S
C2766 C2760 1.383 . S
C2766 C2765 1.379 . S
H2767 C2761 0.959 . S
H2768 C2761 0.961 . S
H2769 C2761 0.960 . S
H2770 C2762 0.930 . S
H2771 C2763 0.929 . S
H2772 C2780 0.929 . S
H2773 C2782 0.930 . S
H2774 C2784 0.930 . S
H2775 C2787 0.929 . S
H2776 C2790 0.930 . S
H2777 C2792 0.960 . S
H2778 C2792 0.960 . S
H2779 C2792 0.960 . S
C2780 H2772 0.929 . S
C2780 C2781 1.377 . S
C2780 C2782 1.384 . S
C2781 C2780 1.377 . S
C2781 C2787 1.390 . S
C2782 H2773 0.930 . S
C2782 C2780 1.384 . S
C2782 C2783 1.372 . S
C2783 C2782 1.372 . S
C2783 C2784 1.400 . S
C2783 C2788 1.490 . S
C2784 H2774 0.930 . S
C2784 C2783 1.400 . S
C2784 C2787 1.386 . S
H2785 C2801 0.930 . S
H2786 C2802 0.931 . S
C2787 H2775 0.929 . S
C2787 C2781 1.390 . S
C2787 C2784 1.386 . S
C2788 C2783 1.490 . S
C2788 C2790 1.395 . S
C2788 C2791 1.403 . S
H2789 C2795 0.930 . S
C2790 H2776 0.930 . S
C2790 C2788 1.395 . S
C2790 C2793 1.403 . S
C2791 C2788 1.403 . S
C2791 C2792 1.524 . S
C2791 C2795 1.400 . S
C2792 H2777 0.960 . S
C2792 H2778 0.960 . S
C2792 H2779 0.960 . S
C2792 C2791 1.524 . S
C2793 C2790 1.403 . S
C2793 C2794 1.392 . S
C2793 C2797 1.495 . S
C2794 C2793 1.392 . S
C2794 C2795 1.385 . S
C2794 C2796 1.478 . S
C2795 H2789 0.930 . S
C2795 C2791 1.400 . S
C2795 C2794 1.385 . S
C2796 C2794 1.478 . S
C2796 C2798 1.381 . S
C2796 C2802 1.383 . S
C2797 C2793 1.495 . S
C2797 H2803 0.959 . S
C2797 H2804 0.961 . S
C2797 H2805 0.960 . S
C2798 C2796 1.381 . S
C2798 C2799 1.394 . S
C2798 H2806 0.930 . S
C2799 C2798 1.394 . S
C2799 C2800 1.383 . S
C2799 H2807 0.929 . S
C2800 C2799 1.383 . S
C2800 C2801 1.377 . S
C2801 H2785 0.930 . S
C2801 C2800 1.377 . S
C2801 C2802 1.379 . S
C2802 H2786 0.931 . S
C2802 C2796 1.383 . S
C2802 C2801 1.379 . S
H2803 C2797 0.959 . S
H2804 C2797 0.961 . S
H2805 C2797 0.960 . S
H2806 C2798 0.930 . S
H2807 C2799 0.929 . S
H2808 C2816 0.929 . S
H2809 C2818 0.930 . S
H2810 C2820 0.930 . S
H2811 C2823 0.929 . S
H2812 C2826 0.930 . S
H2813 C2828 0.960 . S
H2814 C2828 0.960 . S
H2815 C2828 0.960 . S
C2816 H2808 0.929 . S
C2816 C2817 1.377 . S
C2816 C2818 1.384 . S
C2817 C2816 1.377 . S
C2817 C2823 1.390 . S
C2818 H2809 0.930 . S
C2818 C2816 1.384 . S
C2818 C2819 1.372 . S
C2819 C2818 1.372 . S
C2819 C2820 1.400 . S
C2819 C2824 1.490 . S
C2820 H2810 0.930 . S
C2820 C2819 1.400 . S
C2820 C2823 1.386 . S
H2821 C2837 0.930 . S
H2822 C2838 0.931 . S
C2823 H2811 0.929 . S
C2823 C2817 1.390 . S
C2823 C2820 1.386 . S
C2824 C2819 1.490 . S
C2824 C2826 1.395 . S
C2824 C2827 1.403 . S
H2825 C2831 0.930 . S
C2826 H2812 0.930 . S
C2826 C2824 1.395 . S
C2826 C2829 1.403 . S
C2827 C2824 1.403 . S
C2827 C2828 1.524 . S
C2827 C2831 1.400 . S
C2828 H2813 0.960 . S
C2828 H2814 0.960 . S
C2828 H2815 0.960 . S
C2828 C2827 1.524 . S
C2829 C2826 1.403 . S
C2829 C2830 1.392 . S
C2829 C2833 1.495 . S
C2830 C2829 1.392 . S
C2830 C2831 1.385 . S
C2830 C2832 1.478 . S
C2831 H2825 0.930 . S
C2831 C2827 1.400 . S
C2831 C2830 1.385 . S
C2832 C2830 1.478 . S
C2832 C2834 1.381 . S
C2832 C2838 1.383 . S
C2833 C2829 1.495 . S
C2833 H2839 0.959 . S
C2833 H2840 0.961 . S
C2833 H2841 0.960 . S
C2834 C2832 1.381 . S
C2834 C2835 1.394 . S
C2834 H2842 0.930 . S
C2835 C2834 1.394 . S
C2835 C2836 1.383 . S
C2835 H2843 0.929 . S
C2836 C2835 1.383 . S
C2836 C2837 1.377 . S
C2837 H2821 0.930 . S
C2837 C2836 1.377 . S
C2837 C2838 1.379 . S
C2838 H2822 0.931 . S
C2838 C2832 1.383 . S
C2838 C2837 1.379 . S
H2839 C2833 0.959 . S
H2840 C2833 0.961 . S
H2841 C2833 0.960 . S
H2842 C2834 0.930 . S
H2843 C2835 0.929 . S
H2844 C2852 0.929 . S
H2845 C2854 0.930 . S
H2846 C2856 0.930 . S
H2847 C2859 0.929 . S
H2848 C2862 0.930 . S
H2849 C2864 0.960 . S
H2850 C2864 0.960 . S
H2851 C2864 0.960 . S
C2852 H2844 0.929 . S
C2852 C2853 1.377 . S
C2852 C2854 1.384 . S
C2853 C2852 1.377 . S
C2853 C2859 1.390 . S
C2854 H2845 0.930 . S
C2854 C2852 1.384 . S
C2854 C2855 1.372 . S
C2855 C2854 1.372 . S
C2855 C2856 1.400 . S
C2855 C2860 1.490 . S
C2856 H2846 0.930 . S
C2856 C2855 1.400 . S
C2856 C2859 1.386 . S
H2857 C2873 0.930 . S
H2858 C2874 0.931 . S
C2859 H2847 0.929 . S
C2859 C2853 1.390 . S
C2859 C2856 1.386 . S
C2860 C2855 1.490 . S
C2860 C2862 1.395 . S
C2860 C2863 1.403 . S
H2861 C2867 0.930 . S
C2862 H2848 0.930 . S
C2862 C2860 1.395 . S
C2862 C2865 1.403 . S
C2863 C2860 1.403 . S
C2863 C2864 1.524 . S
C2863 C2867 1.400 . S
C2864 H2849 0.960 . S
C2864 H2850 0.960 . S
C2864 H2851 0.960 . S
C2864 C2863 1.524 . S
C2865 C2862 1.403 . S
C2865 C2866 1.392 . S
C2865 C2869 1.495 . S
C2866 C2865 1.392 . S
C2866 C2867 1.385 . S
C2866 C2868 1.478 . S
C2867 H2861 0.930 . S
C2867 C2863 1.400 . S
C2867 C2866 1.385 . S
C2868 C2866 1.478 . S
C2868 C2870 1.381 . S
C2868 C2874 1.383 . S
C2869 C2865 1.495 . S
C2869 H2875 0.959 . S
C2869 H2876 0.961 . S
C2869 H2877 0.960 . S
C2870 C2868 1.381 . S
C2870 C2871 1.394 . S
C2870 H2878 0.930 . S
C2871 C2870 1.394 . S
C2871 C2872 1.383 . S
C2871 H2879 0.929 . S
C2872 C2871 1.383 . S
C2872 C2873 1.377 . S
C2873 H2857 0.930 . S
C2873 C2872 1.377 . S
C2873 C2874 1.379 . S
C2874 H2858 0.931 . S
C2874 C2868 1.383 . S
C2874 C2873 1.379 . S
H2875 C2869 0.959 . S
H2876 C2869 0.961 . S
H2877 C2869 0.960 . S
H2878 C2870 0.930 . S
H2879 C2871 0.929 . S
H2880 C2888 0.929 . S
H2881 C2890 0.930 . S
H2882 C2892 0.930 . S
H2883 C2895 0.929 . S
H2884 C2898 0.930 . S
H2885 C2900 0.960 . S
H2886 C2900 0.960 . S
H2887 C2900 0.960 . S
C2888 H2880 0.929 . S
C2888 C2889 1.377 . S
C2888 C2890 1.384 . S
C2889 C2888 1.377 . S
C2889 C2895 1.390 . S
C2890 H2881 0.930 . S
C2890 C2888 1.384 . S
C2890 C2891 1.372 . S
C2891 C2890 1.372 . S
C2891 C2892 1.400 . S
C2891 C2896 1.490 . S
C2892 H2882 0.930 . S
C2892 C2891 1.400 . S
C2892 C2895 1.386 . S
H2893 C2909 0.930 . S
H2894 C2910 0.931 . S
C2895 H2883 0.929 . S
C2895 C2889 1.390 . S
C2895 C2892 1.386 . S
C2896 C2891 1.490 . S
C2896 C2898 1.395 . S
C2896 C2899 1.403 . S
H2897 C2903 0.930 . S
C2898 H2884 0.930 . S
C2898 C2896 1.395 . S
C2898 C2901 1.403 1_455 S
C2899 C2896 1.403 . S
C2899 C2900 1.524 . S
C2899 C2903 1.400 1_455 S
C2900 H2885 0.960 . S
C2900 H2886 0.960 . S
C2900 H2887 0.960 . S
C2900 C2899 1.524 . S
C2901 C2898 1.403 1_655 S
C2901 C2902 1.392 . S
C2901 C2905 1.495 . S
C2902 C2901 1.392 . S
C2902 C2903 1.385 . S
C2902 C2904 1.478 . S
C2903 H2897 0.930 . S
C2903 C2899 1.400 1_655 S
C2903 C2902 1.385 . S
C2904 C2902 1.478 . S
C2904 C2906 1.381 . S
C2904 C2910 1.383 . S
C2905 C2901 1.495 . S
C2905 H2911 0.959 . S
C2905 H2912 0.961 . S
C2905 H2913 0.960 . S
C2906 C2904 1.381 . S
C2906 C2907 1.394 . S
C2906 H2914 0.930 . S
C2907 C2906 1.394 . S
C2907 C2908 1.383 . S
C2907 H2915 0.929 . S
C2908 C2907 1.383 . S
C2908 C2909 1.377 . S
C2909 H2893 0.930 . S
C2909 C2908 1.377 . S
C2909 C2910 1.379 . S
C2910 H2894 0.931 . S
C2910 C2904 1.383 . S
C2910 C2909 1.379 . S
H2911 C2905 0.959 . S
H2912 C2905 0.961 . S
H2913 C2905 0.960 . S
H2914 C2906 0.930 . S
H2915 C2907 0.929 . S
H2916 C2924 0.929 . S
H2917 C2926 0.930 . S
H2918 C2928 0.930 . S
H2919 C2931 0.929 . S
H2920 C2934 0.930 . S
H2921 C2936 0.960 . S
H2922 C2936 0.960 . S
H2923 C2936 0.960 . S
C2924 H2916 0.929 . S
C2924 C2925 1.377 . S
C2924 C2926 1.384 . S
C2925 C2924 1.377 . S
C2925 C2931 1.390 . S
C2926 H2917 0.930 . S
C2926 C2924 1.384 . S
C2926 C2927 1.372 . S
C2927 C2926 1.372 . S
C2927 C2928 1.400 . S
C2927 C2932 1.490 . S
C2928 H2918 0.930 . S
C2928 C2927 1.400 . S
C2928 C2931 1.386 . S
H2929 C2945 0.930 . S
H2930 C2946 0.931 . S
C2931 H2919 0.929 . S
C2931 C2925 1.390 . S
C2931 C2928 1.386 . S
C2932 C2927 1.490 . S
C2932 C2934 1.395 . S
C2932 C2935 1.403 . S
H2933 C2939 0.930 . S
C2934 H2920 0.930 . S
C2934 C2932 1.395 . S
C2934 C2937 1.403 . S
C2935 C2932 1.403 . S
C2935 C2936 1.524 . S
C2935 C2939 1.400 . S
C2936 H2921 0.960 . S
C2936 H2922 0.960 . S
C2936 H2923 0.960 . S
C2936 C2935 1.524 . S
C2937 C2934 1.403 . S
C2937 C2938 1.392 . S
C2937 C2941 1.495 . S
C2938 C2937 1.392 . S
C2938 C2939 1.385 . S
C2938 C2940 1.478 . S
C2939 H2933 0.930 . S
C2939 C2935 1.400 . S
C2939 C2938 1.385 . S
C2940 C2938 1.478 . S
C2940 C2942 1.381 . S
C2940 C2946 1.383 . S
C2941 C2937 1.495 . S
C2941 H2947 0.959 . S
C2941 H2948 0.961 . S
C2941 H2949 0.960 . S
C2942 C2940 1.381 . S
C2942 C2943 1.394 . S
C2942 H2950 0.930 . S
C2943 C2942 1.394 . S
C2943 C2944 1.383 . S
C2943 H2951 0.929 . S
C2944 C2943 1.383 . S
C2944 C2945 1.377 . S
C2945 H2929 0.930 . S
C2945 C2944 1.377 . S
C2945 C2946 1.379 . S
C2946 H2930 0.931 . S
C2946 C2940 1.383 . S
C2946 C2945 1.379 . S
H2947 C2941 0.959 . S
H2948 C2941 0.961 . S
H2949 C2941 0.960 . S
H2950 C2942 0.930 . S
H2951 C2943 0.929 . S
H2952 C2960 0.929 . S
H2953 C2962 0.930 . S
H2954 C2964 0.930 . S
H2955 C2967 0.929 . S
H2956 C2970 0.930 . S
H2957 C2972 0.960 . S
H2958 C2972 0.960 . S
H2959 C2972 0.960 . S
C2960 H2952 0.929 . S
C2960 C2961 1.377 . S
C2960 C2962 1.384 . S
C2961 C2960 1.377 . S
C2961 C2967 1.390 . S
C2962 H2953 0.930 . S
C2962 C2960 1.384 . S
C2962 C2963 1.372 . S
C2963 C2962 1.372 . S
C2963 C2964 1.400 . S
C2963 C2968 1.490 . S
C2964 H2954 0.930 . S
C2964 C2963 1.400 . S
C2964 C2967 1.386 . S
H2965 C2981 0.930 . S
H2966 C2982 0.931 . S
C2967 H2955 0.929 . S
C2967 C2961 1.390 . S
C2967 C2964 1.386 . S
C2968 C2963 1.490 . S
C2968 C2970 1.395 . S
C2968 C2971 1.403 . S
H2969 C2975 0.930 . S
C2970 H2956 0.930 . S
C2970 C2968 1.395 . S
C2970 C2973 1.403 1_545 S
C2971 C2968 1.403 . S
C2971 C2972 1.524 . S
C2971 C2975 1.400 1_545 S
C2972 H2957 0.960 . S
C2972 H2958 0.960 . S
C2972 H2959 0.960 . S
C2972 C2971 1.524 . S
C2973 C2970 1.403 1_565 S
C2973 C2974 1.392 . S
C2973 C2977 1.495 . S
C2974 C2973 1.392 . S
C2974 C2975 1.385 . S
C2974 C2976 1.478 . S
C2975 H2969 0.930 . S
C2975 C2971 1.400 1_565 S
C2975 C2974 1.385 . S
C2976 C2974 1.478 . S
C2976 C2978 1.381 . S
C2976 C2982 1.383 . S
C2977 C2973 1.495 . S
C2977 H2983 0.959 . S
C2977 H2984 0.961 . S
C2977 H2985 0.960 . S
C2978 C2976 1.381 . S
C2978 C2979 1.394 . S
C2978 H2986 0.930 . S
C2979 C2978 1.394 . S
C2979 C2980 1.383 . S
C2979 H2987 0.929 . S
C2980 C2979 1.383 . S
C2980 C2981 1.377 . S
C2981 H2965 0.930 . S
C2981 C2980 1.377 . S
C2981 C2982 1.379 . S
C2982 H2966 0.931 . S
C2982 C2976 1.383 . S
C2982 C2981 1.379 . S
H2983 C2977 0.959 . S
H2984 C2977 0.961 . S
H2985 C2977 0.960 . S
H2986 C2978 0.930 . S
H2987 C2979 0.929 . S
H2988 C2996 0.929 . S
H2989 C2998 0.930 . S
H2990 C3000 0.930 . S
H2991 C3003 0.929 . S
H2992 C3006 0.930 . S
H2993 C3008 0.960 . S
H2994 C3008 0.960 . S
H2995 C3008 0.960 . S
C2996 H2988 0.929 . S
C2996 C2997 1.377 . S
C2996 C2998 1.384 . S
C2997 C2996 1.377 . S
C2997 C3003 1.390 . S
C2998 H2989 0.930 . S
C2998 C2996 1.384 . S
C2998 C2999 1.372 . S
C2999 C2998 1.372 . S
C2999 C3000 1.400 . S
C2999 C3004 1.490 . S
C3000 H2990 0.930 . S
C3000 C2999 1.400 . S
C3000 C3003 1.386 . S
H3001 C3017 0.930 . S
H3002 C3018 0.931 . S
C3003 H2991 0.929 . S
C3003 C2997 1.390 . S
C3003 C3000 1.386 . S
C3004 C2999 1.490 . S
C3004 C3006 1.395 1_554 S
C3004 C3007 1.403 . S
H3005 C3011 0.930 . S
C3006 H2992 0.930 . S
C3006 C3004 1.395 1_556 S
C3006 C3009 1.403 1_545 S
C3007 C3004 1.403 . S
C3007 C3008 1.524 . S
C3007 C3011 1.400 1_545 S
C3008 H2993 0.960 . S
C3008 H2994 0.960 . S
C3008 H2995 0.960 . S
C3008 C3007 1.524 . S
C3009 C3006 1.403 1_565 S
C3009 C3010 1.392 . S
C3009 C3013 1.495 . S
C3010 C3009 1.392 . S
C3010 C3011 1.385 1_556 S
C3010 C3012 1.478 . S
C3011 H3005 0.930 . S
C3011 C3007 1.400 1_565 S
C3011 C3010 1.385 1_554 S
C3012 C3010 1.478 . S
C3012 C3014 1.381 . S
C3012 C3018 1.383 . S
C3013 C3009 1.495 . S
C3013 H3019 0.959 . S
C3013 H3020 0.961 . S
C3013 H3021 0.960 . S
C3014 C3012 1.381 . S
C3014 C3015 1.394 . S
C3014 H3022 0.930 . S
C3015 C3014 1.394 . S
C3015 C3016 1.383 . S
C3015 H3023 0.929 . S
C3016 C3015 1.383 . S
C3016 C3017 1.377 . S
C3017 H3001 0.930 . S
C3017 C3016 1.377 . S
C3017 C3018 1.379 . S
C3018 H3002 0.931 . S
C3018 C3012 1.383 . S
C3018 C3017 1.379 . S
H3019 C3013 0.959 . S
H3020 C3013 0.961 . S
H3021 C3013 0.960 . S
H3022 C3014 0.930 . S
H3023 C3015 0.929 . S
H3024 C3032 0.929 . S
H3025 C3034 0.930 . S
H3026 C3036 0.930 . S
H3027 C3039 0.929 . S
H3028 C3042 0.930 . S
H3029 C3044 0.960 . S
H3030 C3044 0.960 . S
H3031 C3044 0.960 . S
C3032 H3024 0.929 . S
C3032 C3033 1.377 . S
C3032 C3034 1.384 . S
C3033 C3032 1.377 . S
C3033 C3039 1.390 . S
C3034 H3025 0.930 . S
C3034 C3032 1.384 . S
C3034 C3035 1.372 . S
C3035 C3034 1.372 . S
C3035 C3036 1.400 . S
C3035 C3040 1.490 . S
C3036 H3026 0.930 . S
C3036 C3035 1.400 . S
C3036 C3039 1.386 . S
H3037 C3053 0.930 . S
H3038 C3054 0.931 . S
C3039 H3027 0.929 . S
C3039 C3033 1.390 . S
C3039 C3036 1.386 . S
C3040 C3035 1.490 . S
C3040 C3042 1.395 1_554 S
C3040 C3043 1.403 . S
H3041 C3047 0.930 . S
C3042 H3028 0.930 . S
C3042 C3040 1.395 1_556 S
C3042 C3045 1.403 1_655 S
C3043 C3040 1.403 . S
C3043 C3044 1.524 . S
C3043 C3047 1.400 1_655 S
C3044 H3029 0.960 . S
C3044 H3030 0.960 . S
C3044 H3031 0.960 . S
C3044 C3043 1.524 . S
C3045 C3042 1.403 1_455 S
C3045 C3046 1.392 . S
C3045 C3049 1.495 . S
C3046 C3045 1.392 . S
C3046 C3047 1.385 1_556 S
C3046 C3048 1.478 . S
C3047 H3041 0.930 . S
C3047 C3043 1.400 1_455 S
C3047 C3046 1.385 1_554 S
C3048 C3046 1.478 . S
C3048 C3050 1.381 . S
C3048 C3054 1.383 . S
C3049 C3045 1.495 . S
C3049 H3055 0.959 . S
C3049 H3056 0.961 . S
C3049 H3057 0.960 . S
C3050 C3048 1.381 . S
C3050 C3051 1.394 . S
C3050 H3058 0.931 1_556 S
C3051 C3050 1.394 . S
C3051 C3052 1.383 . S
C3051 H3059 0.929 . S
C3052 C3051 1.383 . S
C3052 C3053 1.377 . S
C3053 H3037 0.930 . S
C3053 C3052 1.377 . S
C3053 C3054 1.379 . S
C3054 H3038 0.931 . S
C3054 C3048 1.383 . S
C3054 C3053 1.379 . S
H3055 C3049 0.959 . S
H3056 C3049 0.961 . S
H3057 C3049 0.960 . S
H3058 C3050 0.931 1_554 S
H3059 C3051 0.929 . S
H3060 C3068 0.929 . S
H3061 C3070 0.930 . S
H3062 C3072 0.930 . S
H3063 C3075 0.929 . S
H3064 C3078 0.930 . S
H3065 C3080 0.960 . S
H3066 C3080 0.960 . S
H3067 C3080 0.960 . S
C3068 H3060 0.929 . S
C3068 C3069 1.377 1_556 S
C3068 C3070 1.384 . S
C3069 C3068 1.377 1_554 S
C3069 C3075 1.390 . S
C3070 H3061 0.930 . S
C3070 C3068 1.384 . S
C3070 C3071 1.372 1_556 S
C3071 C3070 1.372 1_554 S
C3071 C3072 1.400 . S
C3071 C3076 1.490 . S
C3072 H3062 0.930 . S
C3072 C3071 1.400 . S
C3072 C3075 1.386 . S
H3073 C3089 0.930 1_554 S
H3074 C3090 0.931 . S
C3075 H3063 0.929 . S
C3075 C3069 1.390 . S
C3075 C3072 1.386 . S
C3076 C3071 1.490 . S
C3076 C3078 1.395 1_554 S
C3076 C3079 1.403 . S
H3077 C3083 0.930 . S
C3078 H3064 0.930 . S
C3078 C3076 1.395 1_556 S
C3078 C3081 1.403 . S
C3079 C3076 1.403 . S
C3079 C3080 1.524 . S
C3079 C3083 1.400 . S
C3080 H3065 0.960 . S
C3080 H3066 0.960 . S
C3080 H3067 0.960 . S
C3080 C3079 1.524 . S
C3081 C3078 1.403 . S
C3081 C3082 1.392 . S
C3081 C3085 1.495 . S
C3082 C3081 1.392 . S
C3082 C3083 1.385 1_556 S
C3082 C3084 1.478 . S
C3083 H3077 0.930 . S
C3083 C3079 1.400 . S
C3083 C3082 1.385 1_554 S
C3084 C3082 1.478 . S
C3084 C3086 1.381 . S
C3084 C3090 1.383 1_556 S
C3085 C3081 1.495 . S
C3085 H3091 0.959 . S
C3085 H3092 0.961 . S
C3085 H3093 0.960 . S
C3086 C3084 1.381 . S
C3086 C3087 1.394 . S
C3086 H3094 0.930 . S
C3087 C3086 1.394 . S
C3087 C3088 1.383 . S
C3087 H3095 0.929 . S
C3088 C3087 1.383 . S
C3088 C3089 1.377 . S
C3089 H3073 0.930 1_556 S
C3089 C3088 1.377 . S
C3089 C3090 1.379 1_556 S
C3090 H3074 0.931 . S
C3090 C3084 1.383 1_554 S
C3090 C3089 1.379 1_554 S
H3091 C3085 0.959 . S
H3092 C3085 0.961 . S
H3093 C3085 0.960 . S
H3094 C3086 0.930 . S
H3095 C3087 0.929 . S
C513 C147 1.046 . S
C532 C3 1.020 . S
C549 C161 1.053 . S
C568 C17 1.053 . S
C585 C31 1.028 . S
C604 C133 1.046 . S
C621 C45 1.032 . S
C640 C119 1.067 . S
C657 C59 1.040 . S
C676 C91 1.031 . S
C693 C105 1.049 . S
C712 C73 1.066 . S
C729 C63 1.047 . S
C748 C87 1.035 . S
C765 C77 1.046 . S
C784 C101 1.050 . S
C801 C115 1.033 . S
C820 C49 1.066 . S
C837 C35 1.046 . S
C856 C129 1.062 . S
C873 C143 1.037 . S
C892 C7 1.058 . S
C909 C157 1.034 . S
C928 C21 1.039 . S
C945 C315 1.054 . S
C964 C171 1.029 . S
C981 C329 1.046 . S
C1000 C185 1.030 . S
C1017 C199 1.038 . S
C1036 C301 1.030 . S
C1053 C213 1.028 . S
C1072 C287 1.055 . S
C1089 C227 1.030 . S
C1108 C259 1.062 . S
C1125 C241 1.036 . S
C1144 C273 1.068 . S
C1161 C231 1.051 . S
C1180 C255 1.051 . S
C1197 C245 1.051 . S
C1216 C269 1.005 . S
C1233 C217 1.052 . S
C1252 C283 1.005 . S
C1269 C203 1.049 . S
C1288 C297 1.021 . S
C1305 C175 1.054 . S
C1324 C311 1.013 . S
C1341 C189 1.047 . S
C1360 C325 1.040 . S
C1377 C339 1.040 . S
C1396 C483 1.032 . S
C1413 C497 1.054 . S
C1432 C353 1.035 . S
C1449 C469 1.047 . S
C1468 C367 1.059 . S
C1485 C381 1.029 . S
C1504 C455 1.057 . S
C1521 C395 1.030 . S
C1540 C427 1.037 . S
C1557 C409 1.035 . S
C1576 C441 1.028 . S
C1593 C399 1.053 . S
C1612 C423 1.000 . S
C1629 C413 1.047 . S
C1648 C437 1.033 . S
C1665 C385 1.054 . S
C1684 C451 1.012 . S
C1701 C465 1.041 . S
C1720 C371 1.038 . S
C1737 C343 1.052 . S
C1756 C479 1.004 . S
C1773 C493 1.030 . S
C1792 C357 1.068 . S
C1809 C50 1.522 . S
C1828 C8 1.520 . S
C1845 C64 1.522 . S
C1864 C22 1.515 . S
C1881 C36 1.520 . S
C1900 C78 1.517 . S
C1917 C134 1.520 . S
C1936 C92 1.523 . S
C1953 C148 1.522 . S
C1972 C106 1.515 . S
C1989 C162 1.521 . S
C2008 C120 1.522 . S
C2025 C218 1.522 . S
C2044 C176 1.516 . S
C2061 C232 1.521 . S
C2080 C190 1.513 . S
C2097 C204 1.521 . S
C2116 C246 1.513 . S
C2133 C260 1.522 . S
C2152 C302 1.514 . S
C2169 C316 1.520 . S
C2188 C274 1.523 . S
C2205 C288 1.522 . S
C2224 C330 1.517 . S
C2241 C386 1.521 . S
C2260 C344 1.513 . S
C2277 C400 1.522 . S
C2296 C358 1.520 . S
C2313 C372 1.521 . S
C2332 C414 1.514 . S
C2349 C428 1.521 . S
C2368 C470 1.517 . S
C2385 C442 1.520 . S
C2404 C484 1.521 . S
C2421 C456 1.522 . S
C2440 C498 1.514 . S
C2457 C9 1.491 . S
C2476 C261 1.473 . S
C2493 C275 1.497 . S
C2512 C23 1.486 . S
C2529 C289 1.492 . S
C2548 C37 1.499 . S
C2565 C471 1.495 . S
C2584 C51 1.481 . S
C2601 C485 1.490 . S
C2620 C65 1.482 . S
C2637 C499 1.495 . S
C2656 C79 1.477 . S
C2673 C93 1.497 . S
C2692 C345 1.491 . S
C2709 C359 1.491 . S
C2728 C107 1.474 . S
C2745 C373 1.497 . S
C2764 C121 1.499 . S
C2781 C135 1.493 . S
C2800 C219 1.503 . S
C2817 C149 1.494 . S
C2836 C233 1.475 . S
C2853 C163 1.497 . S
C2872 C247 1.493 . S
C2889 C429 1.496 . S
C2908 C177 1.481 . S
C2925 C443 1.492 . S
C2944 C191 1.500 . S
C2961 C205 1.490 . S
C2980 C457 1.477 . S
C2997 C303 1.497 . S
C3016 C387 1.495 . S
C3033 C317 1.496 . S
C3052 C401 1.485 . S
C3069 C331 1.497 . S
C3088 C415 1.506 . S
