# Generated by pormake.
# Topology vda, (6)-cn, num edge types: 1
# Building blocks:
#     Node 0, Type 0, BuildingBlock: OJICUG_clean_sbu_0, # of connection points: 6
#     Node 1, Type 0, BuildingBlock: OJICUG_clean_sbu_0, # of connection points: 6
#     Node 2, Type 0, BuildingBlock: OJICUG_clean_sbu_0, # of connection points: 6
#     Node 3, Type 0, BuildingBlock: OJICUG_clean_sbu_0, # of connection points: 6
#     Node 4, Type 0, BuildingBlock: OJICUG_clean_sbu_0, # of connection points: 6
#     Node 5, Type 0, BuildingBlock: OJICUG_clean_sbu_0, # of connection points: 6
#     Node 6, Type 0, BuildingBlock: OJICUG_clean_sbu_0, # of connection points: 6
#     Node 7, Type 0, BuildingBlock: OJICUG_clean_sbu_0, # of connection points: 6
#     Node 8, Type 0, BuildingBlock: OJICUG_clean_sbu_0, # of connection points: 6
#     Node 9, Type 0, BuildingBlock: OJICUG_clean_sbu_0, # of connection points: 6
#     Node 10, Type 0, BuildingBlock: OJICUG_clean_sbu_0, # of connection points: 6
#     Node 11, Type 0, BuildingBlock: OJICUG_clean_sbu_0, # of connection points: 6
#     Node 12, Type 0, BuildingBlock: OJICUG_clean_sbu_0, # of connection points: 6
#     Node 13, Type 0, BuildingBlock: OJICUG_clean_sbu_0, # of connection points: 6
#     Node 14, Type 0, BuildingBlock: OJICUG_clean_sbu_0, # of connection points: 6
#     Node 15, Type 0, BuildingBlock: OJICUG_clean_sbu_0, # of connection points: 6
#     Node 16, Type 0, BuildingBlock: OJICUG_clean_sbu_0, # of connection points: 6
#     Node 17, Type 0, BuildingBlock: OJICUG_clean_sbu_0, # of connection points: 6
#     Node 18, Type 0, BuildingBlock: OJICUG_clean_sbu_0, # of connection points: 6
#     Node 19, Type 0, BuildingBlock: OJICUG_clean_sbu_0, # of connection points: 6
#     Node 20, Type 0, BuildingBlock: OJICUG_clean_sbu_0, # of connection points: 6
#     Node 21, Type 0, BuildingBlock: OJICUG_clean_sbu_0, # of connection points: 6
#     Node 22, Type 0, BuildingBlock: OJICUG_clean_sbu_0, # of connection points: 6
#     Node 23, Type 0, BuildingBlock: OJICUG_clean_sbu_0, # of connection points: 6
#     Node 24, Type 0, BuildingBlock: OJICUG_clean_sbu_0, # of connection points: 6
#     Node 25, Type 0, BuildingBlock: OJICUG_clean_sbu_0, # of connection points: 6
#     Node 26, Type 0, BuildingBlock: OJICUG_clean_sbu_0, # of connection points: 6
#     Node 27, Type 0, BuildingBlock: OJICUG_clean_sbu_0, # of connection points: 6
#     Node 28, Type 0, BuildingBlock: OJICUG_clean_sbu_0, # of connection points: 6
#     Node 29, Type 0, BuildingBlock: OJICUG_clean_sbu_0, # of connection points: 6
#     Node 30, Type 0, BuildingBlock: OJICUG_clean_sbu_0, # of connection points: 6
#     Node 31, Type 0, BuildingBlock: OJICUG_clean_sbu_0, # of connection points: 6
#     Edge 32, Type (0, 0), BuildingBlock: KIFKEQ_clean_linker_1, # of connection points: 2
#     Edge 33, Type (0, 0), BuildingBlock: KIFKEQ_clean_linker_1, # of connection points: 2
#     Edge 34, Type (0, 0), BuildingBlock: KIFKEQ_clean_linker_1, # of connection points: 2
#     Edge 35, Type (0, 0), BuildingBlock: KIFKEQ_clean_linker_1, # of connection points: 2
#     Edge 36, Type (0, 0), BuildingBlock: KIFKEQ_clean_linker_1, # of connection points: 2
#     Edge 37, Type (0, 0), BuildingBlock: KIFKEQ_clean_linker_1, # of connection points: 2
#     Edge 38, Type (0, 0), BuildingBlock: KIFKEQ_clean_linker_1, # of connection points: 2
#     Edge 39, Type (0, 0), BuildingBlock: KIFKEQ_clean_linker_1, # of connection points: 2
#     Edge 40, Type (0, 0), BuildingBlock: KIFKEQ_clean_linker_1, # of connection points: 2
#     Edge 41, Type (0, 0), BuildingBlock: KIFKEQ_clean_linker_1, # of connection points: 2
#     Edge 42, Type (0, 0), BuildingBlock: KIFKEQ_clean_linker_1, # of connection points: 2
#     Edge 43, Type (0, 0), BuildingBlock: KIFKEQ_clean_linker_1, # of connection points: 2
#     Edge 44, Type (0, 0), BuildingBlock: KIFKEQ_clean_linker_1, # of connection points: 2
#     Edge 45, Type (0, 0), BuildingBlock: KIFKEQ_clean_linker_1, # of connection points: 2
#     Edge 46, Type (0, 0), BuildingBlock: KIFKEQ_clean_linker_1, # of connection points: 2
#     Edge 47, Type (0, 0), BuildingBlock: KIFKEQ_clean_linker_1, # of connection points: 2
#     Edge 48, Type (0, 0), BuildingBlock: KIFKEQ_clean_linker_1, # of connection points: 2
#     Edge 49, Type (0, 0), BuildingBlock: KIFKEQ_clean_linker_1, # of connection points: 2
#     Edge 50, Type (0, 0), BuildingBlock: KIFKEQ_clean_linker_1, # of connection points: 2
#     Edge 51, Type (0, 0), BuildingBlock: KIFKEQ_clean_linker_1, # of connection points: 2
#     Edge 52, Type (0, 0), BuildingBlock: KIFKEQ_clean_linker_1, # of connection points: 2
#     Edge 53, Type (0, 0), BuildingBlock: KIFKEQ_clean_linker_1, # of connection points: 2
#     Edge 54, Type (0, 0), BuildingBlock: KIFKEQ_clean_linker_1, # of connection points: 2
#     Edge 55, Type (0, 0), BuildingBlock: KIFKEQ_clean_linker_1, # of connection points: 2
#     Edge 56, Type (0, 0), BuildingBlock: KIFKEQ_clean_linker_1, # of connection points: 2
#     Edge 57, Type (0, 0), BuildingBlock: KIFKEQ_clean_linker_1, # of connection points: 2
#     Edge 58, Type (0, 0), BuildingBlock: KIFKEQ_clean_linker_1, # of connection points: 2
#     Edge 59, Type (0, 0), BuildingBlock: KIFKEQ_clean_linker_1, # of connection points: 2
#     Edge 60, Type (0, 0), BuildingBlock: KIFKEQ_clean_linker_1, # of connection points: 2
#     Edge 61, Type (0, 0), BuildingBlock: KIFKEQ_clean_linker_1, # of connection points: 2
#     Edge 62, Type (0, 0), BuildingBlock: KIFKEQ_clean_linker_1, # of connection points: 2
#     Edge 63, Type (0, 0), BuildingBlock: KIFKEQ_clean_linker_1, # of connection points: 2
#     Edge 64, Type (0, 0), BuildingBlock: KIFKEQ_clean_linker_1, # of connection points: 2
#     Edge 65, Type (0, 0), BuildingBlock: KIFKEQ_clean_linker_1, # of connection points: 2
#     Edge 66, Type (0, 0), BuildingBlock: KIFKEQ_clean_linker_1, # of connection points: 2
#     Edge 67, Type (0, 0), BuildingBlock: KIFKEQ_clean_linker_1, # of connection points: 2
#     Edge 68, Type (0, 0), BuildingBlock: KIFKEQ_clean_linker_1, # of connection points: 2
#     Edge 69, Type (0, 0), BuildingBlock: KIFKEQ_clean_linker_1, # of connection points: 2
#     Edge 70, Type (0, 0), BuildingBlock: KIFKEQ_clean_linker_1, # of connection points: 2
#     Edge 71, Type (0, 0), BuildingBlock: KIFKEQ_clean_linker_1, # of connection points: 2
#     Edge 72, Type (0, 0), BuildingBlock: KIFKEQ_clean_linker_1, # of connection points: 2
#     Edge 73, Type (0, 0), BuildingBlock: KIFKEQ_clean_linker_1, # of connection points: 2
#     Edge 74, Type (0, 0), BuildingBlock: KIFKEQ_clean_linker_1, # of connection points: 2
#     Edge 75, Type (0, 0), BuildingBlock: KIFKEQ_clean_linker_1, # of connection points: 2
#     Edge 76, Type (0, 0), BuildingBlock: KIFKEQ_clean_linker_1, # of connection points: 2
#     Edge 77, Type (0, 0), BuildingBlock: KIFKEQ_clean_linker_1, # of connection points: 2
#     Edge 78, Type (0, 0), BuildingBlock: KIFKEQ_clean_linker_1, # of connection points: 2
#     Edge 79, Type (0, 0), BuildingBlock: KIFKEQ_clean_linker_1, # of connection points: 2
#     Edge 80, Type (0, 0), BuildingBlock: KIFKEQ_clean_linker_1, # of connection points: 2
#     Edge 81, Type (0, 0), BuildingBlock: KIFKEQ_clean_linker_1, # of connection points: 2
#     Edge 82, Type (0, 0), BuildingBlock: KIFKEQ_clean_linker_1, # of connection points: 2
#     Edge 83, Type (0, 0), BuildingBlock: KIFKEQ_clean_linker_1, # of connection points: 2
#     Edge 84, Type (0, 0), BuildingBlock: KIFKEQ_clean_linker_1, # of connection points: 2
#     Edge 85, Type (0, 0), BuildingBlock: KIFKEQ_clean_linker_1, # of connection points: 2
#     Edge 86, Type (0, 0), BuildingBlock: KIFKEQ_clean_linker_1, # of connection points: 2
#     Edge 87, Type (0, 0), BuildingBlock: KIFKEQ_clean_linker_1, # of connection points: 2
#     Edge 88, Type (0, 0), BuildingBlock: KIFKEQ_clean_linker_1, # of connection points: 2
#     Edge 89, Type (0, 0), BuildingBlock: KIFKEQ_clean_linker_1, # of connection points: 2
#     Edge 90, Type (0, 0), BuildingBlock: KIFKEQ_clean_linker_1, # of connection points: 2
#     Edge 91, Type (0, 0), BuildingBlock: KIFKEQ_clean_linker_1, # of connection points: 2
#     Edge 92, Type (0, 0), BuildingBlock: KIFKEQ_clean_linker_1, # of connection points: 2
#     Edge 93, Type (0, 0), BuildingBlock: KIFKEQ_clean_linker_1, # of connection points: 2
#     Edge 94, Type (0, 0), BuildingBlock: KIFKEQ_clean_linker_1, # of connection points: 2
#     Edge 95, Type (0, 0), BuildingBlock: KIFKEQ_clean_linker_1, # of connection points: 2
#     Edge 96, Type (0, 0), BuildingBlock: KIFKEQ_clean_linker_1, # of connection points: 2
#     Edge 97, Type (0, 0), BuildingBlock: KIFKEQ_clean_linker_1, # of connection points: 2
#     Edge 98, Type (0, 0), BuildingBlock: KIFKEQ_clean_linker_1, # of connection points: 2
#     Edge 99, Type (0, 0), BuildingBlock: KIFKEQ_clean_linker_1, # of connection points: 2
#     Edge 100, Type (0, 0), BuildingBlock: KIFKEQ_clean_linker_1, # of connection points: 2
#     Edge 101, Type (0, 0), BuildingBlock: KIFKEQ_clean_linker_1, # of connection points: 2
#     Edge 102, Type (0, 0), BuildingBlock: KIFKEQ_clean_linker_1, # of connection points: 2
#     Edge 103, Type (0, 0), BuildingBlock: KIFKEQ_clean_linker_1, # of connection points: 2
#     Edge 104, Type (0, 0), BuildingBlock: KIFKEQ_clean_linker_1, # of connection points: 2
#     Edge 105, Type (0, 0), BuildingBlock: KIFKEQ_clean_linker_1, # of connection points: 2
#     Edge 106, Type (0, 0), BuildingBlock: KIFKEQ_clean_linker_1, # of connection points: 2
#     Edge 107, Type (0, 0), BuildingBlock: KIFKEQ_clean_linker_1, # of connection points: 2
#     Edge 108, Type (0, 0), BuildingBlock: KIFKEQ_clean_linker_1, # of connection points: 2
#     Edge 109, Type (0, 0), BuildingBlock: KIFKEQ_clean_linker_1, # of connection points: 2
#     Edge 110, Type (0, 0), BuildingBlock: KIFKEQ_clean_linker_1, # of connection points: 2
#     Edge 111, Type (0, 0), BuildingBlock: KIFKEQ_clean_linker_1, # of connection points: 2
#     Edge 112, Type (0, 0), BuildingBlock: KIFKEQ_clean_linker_1, # of connection points: 2
#     Edge 113, Type (0, 0), BuildingBlock: KIFKEQ_clean_linker_1, # of connection points: 2
#     Edge 114, Type (0, 0), BuildingBlock: KIFKEQ_clean_linker_1, # of connection points: 2
#     Edge 115, Type (0, 0), BuildingBlock: KIFKEQ_clean_linker_1, # of connection points: 2
#     Edge 116, Type (0, 0), BuildingBlock: KIFKEQ_clean_linker_1, # of connection points: 2
#     Edge 117, Type (0, 0), BuildingBlock: KIFKEQ_clean_linker_1, # of connection points: 2
#     Edge 118, Type (0, 0), BuildingBlock: KIFKEQ_clean_linker_1, # of connection points: 2
#     Edge 119, Type (0, 0), BuildingBlock: KIFKEQ_clean_linker_1, # of connection points: 2
#     Edge 120, Type (0, 0), BuildingBlock: KIFKEQ_clean_linker_1, # of connection points: 2
#     Edge 121, Type (0, 0), BuildingBlock: KIFKEQ_clean_linker_1, # of connection points: 2
#     Edge 122, Type (0, 0), BuildingBlock: KIFKEQ_clean_linker_1, # of connection points: 2
#     Edge 123, Type (0, 0), BuildingBlock: KIFKEQ_clean_linker_1, # of connection points: 2
#     Edge 124, Type (0, 0), BuildingBlock: KIFKEQ_clean_linker_1, # of connection points: 2
#     Edge 125, Type (0, 0), BuildingBlock: KIFKEQ_clean_linker_1, # of connection points: 2
#     Edge 126, Type (0, 0), BuildingBlock: KIFKEQ_clean_linker_1, # of connection points: 2
#     Edge 127, Type (0, 0), BuildingBlock: KIFKEQ_clean_linker_1, # of connection points: 2
# Relax obj value: 0.394
# Max RMSD: 0.262
# Mean RMSD: 0.262
data_MOF--net-vda--node1-OJICUG_clean_sbu_0--edge1-KIFKEQ_clean_linker_1
_symmetry_space_group_name_H-M    P1
_symmetry_Int_Tables_number       1
_symmetry_cell_setting            triclinic
loop_
_symmetry_equiv_pos_as_xyz
'x, y, z'
_cell_length_a     53.553749
_cell_length_b     34.141701
_cell_length_c     62.429073
_cell_angle_alpha  90.003268
_cell_angle_beta   90.008957
_cell_angle_gamma 90.018674
loop_
_atom_site_label
_atom_site_type_symbol
_atom_site_fract_x
_atom_site_fract_y
_atom_site_fract_z
_atom_type_partial_charge
Sc0 Sc 0.36957 0.06412 0.99044 0.0
Sc1 Sc 0.39073 0.10253 0.03832 0.0
Sc2 Sc 0.34835 0.15588 0.00768 0.0
O3 O 0.36943 0.10758 0.01203 0.0
C4 C 0.36966 0.13817 0.96041 0.0
C5 C 0.42728 0.06912 1.00514 0.0
C6 C 0.39747 0.19272 0.02698 0.0
C7 C 0.37307 0.01393 0.03146 0.0
C8 C 0.31151 0.08893 0.9921 0.0
C9 C 0.34121 0.13421 0.05741 0.0
O10 O 0.37806 0.10449 0.96521 0.0
O11 O 0.42347 0.09477 0.01951 0.0
O12 O 0.38095 0.19328 0.01228 0.0
O13 O 0.36129 0.02071 0.01422 0.0
O14 O 0.31499 0.12079 1.00238 0.0
O15 O 0.35853 0.10893 0.05772 0.0
O16 O 0.32959 0.06852 0.98482 0.0
O17 O 0.38652 0.03967 0.04058 0.0
O18 O 0.33778 0.15801 0.04183 0.0
O19 O 0.40953 0.05335 0.99452 0.0
O20 O 0.35624 0.15846 0.9732 0.0
O21 O 0.39928 0.1644 0.04012 0.0
Sc22 Sc 0.91876 0.08533 1.00655 0.0
Sc23 Sc 0.87505 0.1394 0.03575 0.0
Sc24 Sc 0.89913 0.17754 0.98902 0.0
O25 O 0.89775 0.13382 0.01035 0.0
C26 C 0.95656 0.15086 0.99113 0.0
C27 C 0.92393 0.10731 0.05644 0.0
C28 C 0.89494 0.22717 0.02978 0.0
C29 C 0.8689 0.04868 0.0248 0.0
C30 C 0.89818 0.10371 0.95904 0.0
C31 C 0.84098 0.17594 1.00226 0.0
O32 O 0.95255 0.11964 1.0018 0.0
O33 O 0.90615 0.13185 0.05636 0.0
O34 O 0.90804 0.21952 0.01335 0.0
O35 O 0.8862 0.04772 0.01079 0.0
O36 O 0.89006 0.13764 0.96375 0.0
O37 O 0.84322 0.14829 0.01571 0.0
O38 O 0.91133 0.08303 0.97191 0.0
O39 O 0.86575 0.07787 0.03714 0.0
O40 O 0.85972 0.19129 0.99285 0.0
O41 O 0.92854 0.084 0.04086 0.0
O42 O 0.93885 0.17127 0.98333 0.0
O43 O 0.88014 0.20223 0.03803 0.0
Sc44 Sc 0.37211 0.18267 0.27411 0.0
Sc45 Sc 0.39305 0.14415 0.22626 0.0
Sc46 Sc 0.35051 0.09124 0.25687 0.0
O47 O 0.37176 0.13931 0.25254 0.0
C48 C 0.37155 0.10891 0.30423 0.0
C49 C 0.42982 0.17646 0.25949 0.0
C50 C 0.39953 0.05408 0.23774 0.0
C51 C 0.37605 0.23305 0.23327 0.0
C52 C 0.31391 0.1585 0.27226 0.0
C53 C 0.34339 0.11328 0.20721 0.0
O54 O 0.38037 0.14229 0.29936 0.0
O55 O 0.42579 0.15087 0.24514 0.0
O56 O 0.38312 0.0538 0.25253 0.0
O57 O 0.36401 0.2261 0.25035 0.0
O58 O 0.31729 0.12664 0.26196 0.0
O59 O 0.36068 0.13862 0.20695 0.0
O60 O 0.33205 0.17869 0.27966 0.0
O61 O 0.38951 0.20729 0.22418 0.0
O62 O 0.34014 0.08912 0.22265 0.0
O63 O 0.41218 0.19277 0.27003 0.0
O64 O 0.35801 0.08881 0.29142 0.0
O65 O 0.40102 0.08199 0.2243 0.0
Sc66 Sc 0.91822 0.16225 0.25583 0.0
Sc67 Sc 0.87535 0.10522 0.22739 0.0
Sc68 Sc 0.89982 0.07 0.27458 0.0
O69 O 0.89789 0.11278 0.25269 0.0
C70 C 0.95683 0.09842 0.27197 0.0
C71 C 0.92368 0.13852 0.20623 0.0
C72 C 0.89643 0.01852 0.23442 0.0
C73 C 0.8675 0.19597 0.2374 0.0
C74 C 0.89789 0.14506 0.30357 0.0
C75 C 0.84173 0.06891 0.26139 0.0
O76 O 0.95245 0.12907 0.26092 0.0
O77 O 0.9063 0.1133 0.20665 0.0
O78 O 0.90926 0.02709 0.25087 0.0
O79 O 0.88515 0.19877 0.25105 0.0
O80 O 0.8902 0.1107 0.29927 0.0
O81 O 0.84364 0.09581 0.24746 0.0
O82 O 0.91079 0.16566 0.29047 0.0
O83 O 0.86498 0.16601 0.22551 0.0
O84 O 0.86064 0.05465 0.27104 0.0
O85 O 0.92794 0.16264 0.22151 0.0
O86 O 0.93938 0.07794 0.28014 0.0
O87 O 0.88148 0.04273 0.22578 0.0
Sc88 Sc 0.66863 0.83446 0.00753 0.0
Sc89 Sc 0.62486 0.88819 0.97812 0.0
Sc90 Sc 0.64943 0.92736 0.02448 0.0
O91 O 0.64772 0.88307 1.00348 0.0
C92 C 0.6485 0.8541 0.05502 0.0
C93 C 0.61857 0.79771 0.98966 0.0
C94 C 0.59112 0.9258 0.01166 0.0
C95 C 0.67365 0.85531 0.95751 0.0
C96 C 0.70677 0.90016 0.02223 0.0
C97 C 0.6449 0.97603 0.9833 0.0
O98 O 0.66127 0.83284 0.04216 0.0
O99 O 0.61529 0.82678 0.97726 0.0
O100 O 0.61 0.94099 0.02096 0.0
O101 O 0.67835 0.83242 0.97325 0.0
O102 O 0.6892 0.92116 0.02979 0.0
O103 O 0.63016 0.9508 0.97526 0.0
O104 O 0.70256 0.86853 0.012 0.0
O105 O 0.65582 0.87975 0.95743 0.0
O106 O 0.658 0.96894 0.9998 0.0
O107 O 0.636 0.79687 1.00355 0.0
O108 O 0.64068 0.88815 0.05017 0.0
O109 O 0.59314 0.89813 0.99817 0.0
Sc110 Sc 0.11847 0.81557 0.02324 0.0
Sc111 Sc 0.13979 0.85285 0.97521 0.0
Sc112 Sc 0.09792 0.90739 1.00563 0.0
O113 O 0.1186 0.85865 1.00148 0.0
C114 C 0.06062 0.84135 0.0212 0.0
C115 C 0.12155 0.76454 0.9825 0.0
C116 C 0.0906 0.88522 0.95602 0.0
C117 C 0.17616 0.81976 0.00859 0.0
C118 C 0.11882 0.88977 0.05303 0.0
C119 C 0.14743 0.94289 0.98647 0.0
O120 O 0.07852 0.82089 0.02877 0.0
O121 O 0.13522 0.78987 0.97324 0.0
O122 O 0.08761 0.90958 0.97141 0.0
O123 O 0.15836 0.80419 0.01925 0.0
O124 O 0.10543 0.91 0.04019 0.0
O125 O 0.14873 0.91469 0.97319 0.0
O126 O 0.12728 0.85611 0.04827 0.0
O127 O 0.17243 0.84509 0.99406 0.0
O128 O 0.13093 0.94387 1.00118 0.0
O129 O 0.10984 0.77192 0.99969 0.0
O130 O 0.06433 0.87293 0.01074 0.0
O131 O 0.10757 0.85937 0.95586 0.0
Sc132 Sc 0.66608 0.90536 0.7587 0.0
Sc133 Sc 0.62466 0.85037 0.78924 0.0
Sc134 Sc 0.64532 0.8135 0.74098 0.0
O135 O 0.64548 0.85645 0.76281 0.0
C136 C 0.64501 0.88796 0.7113 0.0
C137 C 0.61656 0.93995 0.7783 0.0
C138 C 0.58771 0.81815 0.75604 0.0
C139 C 0.67408 0.88225 0.80809 0.0
C140 C 0.70326 0.83923 0.74275 0.0
C141 C 0.64227 0.76216 0.78162 0.0
O142 O 0.6583 0.90826 0.7242 0.0
O143 O 0.61621 0.91199 0.79173 0.0
O144 O 0.60535 0.80256 0.74517 0.0
O145 O 0.6767 0.9071 0.79288 0.0
O146 O 0.68529 0.81862 0.73538 0.0
O147 O 0.62884 0.78758 0.79096 0.0
O148 O 0.69963 0.87091 0.75317 0.0
O149 O 0.65722 0.8562 0.80821 0.0
O150 O 0.65388 0.76944 0.76436 0.0
O151 O 0.63297 0.94177 0.76352 0.0
O152 O 0.6366 0.85423 0.71601 0.0
O153 O 0.59172 0.84323 0.77067 0.0
Sc154 Sc 0.11726 0.93237 0.73907 0.0
Sc155 Sc 0.14053 0.89549 0.78636 0.0
Sc156 Sc 0.09837 0.83953 0.75674 0.0
O157 O 0.1186 0.88892 0.7606 0.0
C158 C 0.06005 0.90415 0.74089 0.0
C159 C 0.12066 0.98295 0.77967 0.0
C160 C 0.09171 0.86222 0.80636 0.0
C161 C 0.17518 0.93145 0.753 0.0
C162 C 0.11901 0.85811 0.70927 0.0
C163 C 0.14856 0.80531 0.77569 0.0
O164 O 0.07762 0.92523 0.73336 0.0
O165 O 0.1351 0.95803 0.78832 0.0
O166 O 0.08814 0.83807 0.79095 0.0
O167 O 0.15661 0.94639 0.74313 0.0
O168 O 0.10617 0.83707 0.72219 0.0
O169 O 0.15025 0.83444 0.78826 0.0
O170 O 0.12669 0.89231 0.71394 0.0
O171 O 0.17274 0.90451 0.76685 0.0
O172 O 0.13149 0.80308 0.76149 0.0
O173 O 0.10803 0.97517 0.76299 0.0
O174 O 0.06425 0.87287 0.75148 0.0
O175 O 0.1089 0.88777 0.80636 0.0
Sc176 Sc 0.3687 0.5675 0.49084 0.0
Sc177 Sc 0.3901 0.60544 0.53869 0.0
Sc178 Sc 0.3481 0.65951 0.5082 0.0
O179 O 0.36883 0.61086 0.51245 0.0
C180 C 0.369 0.64152 0.46081 0.0
C181 C 0.42645 0.57247 0.50532 0.0
C182 C 0.39738 0.69539 0.52748 0.0
C183 C 0.37222 0.51699 0.53172 0.0
C184 C 0.31083 0.59321 0.49281 0.0
C185 C 0.3408 0.63726 0.55784 0.0
O186 O 0.37729 0.60778 0.46561 0.0
O187 O 0.42269 0.59803 0.51973 0.0
O188 O 0.38101 0.69618 0.51266 0.0
O189 O 0.3603 0.52406 0.51459 0.0
O190 O 0.31458 0.625 0.50307 0.0
O191 O 0.3579 0.61161 0.55803 0.0
O192 O 0.32871 0.57249 0.4854 0.0
O193 O 0.3859 0.54251 0.54076 0.0
O194 O 0.3377 0.66157 0.54243 0.0
O195 O 0.40866 0.55652 0.4948 0.0
O196 O 0.35574 0.66201 0.47365 0.0
O197 O 0.39865 0.66729 0.54079 0.0
Sc198 Sc 0.91885 0.58852 0.50737 0.0
Sc199 Sc 0.8755 0.64419 0.53578 0.0
Sc200 Sc 0.90028 0.68069 0.48885 0.0
O201 O 0.8983 0.63758 0.51058 0.0
C202 C 0.95733 0.65256 0.49176 0.0
C203 C 0.92382 0.61148 0.55707 0.0
C204 C 0.89611 0.73156 0.52923 0.0
C205 C 0.8686 0.55332 0.5254 0.0
C206 C 0.8988 0.60591 0.45958 0.0
C207 C 0.84198 0.68051 0.50173 0.0
O208 O 0.95283 0.62226 0.50301 0.0
O209 O 0.90638 0.63658 0.55666 0.0
O210 O 0.90923 0.72349 0.51285 0.0
O211 O 0.88598 0.55171 0.51149 0.0
O212 O 0.89096 0.64017 0.46395 0.0
O213 O 0.84396 0.65323 0.51545 0.0
O214 O 0.91181 0.58548 0.47267 0.0
O215 O 0.86562 0.58284 0.53755 0.0
O216 O 0.8609 0.69541 0.49234 0.0
O217 O 0.92815 0.58749 0.54175 0.0
O218 O 0.94008 0.67305 0.48327 0.0
O219 O 0.88123 0.70687 0.53761 0.0
Sc220 Sc 0.36499 0.67696 0.77573 0.0
Sc221 Sc 0.39049 0.64035 0.7292 0.0
Sc222 Sc 0.3468 0.58471 0.75716 0.0
O223 O 0.36732 0.63377 0.75412 0.0
C224 C 0.36605 0.60258 0.80516 0.0
C225 C 0.42344 0.67661 0.76349 0.0
C226 C 0.39721 0.54954 0.73963 0.0
C227 C 0.36996 0.72779 0.73557 0.0
C228 C 0.30805 0.64856 0.77225 0.0
C229 C 0.34245 0.6079 0.70744 0.0
O230 O 0.3741 0.63668 0.80076 0.0
O231 O 0.42167 0.64896 0.74997 0.0
O232 O 0.37981 0.54805 0.75351 0.0
O233 O 0.35624 0.71947 0.75154 0.0
O234 O 0.31276 0.61834 0.76101 0.0
O235 O 0.35983 0.63312 0.70806 0.0
O236 O 0.32515 0.66906 0.78098 0.0
O237 O 0.38511 0.70317 0.72749 0.0
O238 O 0.33807 0.58364 0.72264 0.0
O239 O 0.40438 0.69179 0.77251 0.0
O240 O 0.35318 0.58202 0.79201 0.0
O241 O 0.40014 0.5789 0.72734 0.0
Sc242 Sc 0.91691 0.65864 0.75646 0.0
Sc243 Sc 0.87505 0.60413 0.72585 0.0
Sc244 Sc 0.89655 0.5664 0.77378 0.0
O245 O 0.89629 0.60979 0.75214 0.0
C246 C 0.95434 0.59257 0.77196 0.0
C247 C 0.9243 0.63697 0.70678 0.0
C248 C 0.89359 0.51589 0.73278 0.0
C249 C 0.86738 0.69419 0.73722 0.0
C250 C 0.89571 0.6406 0.80372 0.0
C251 C 0.83883 0.57016 0.75918 0.0
O252 O 0.95055 0.62437 0.76173 0.0
O253 O 0.90716 0.61139 0.70645 0.0
O254 O 0.90517 0.523 0.75008 0.0
O255 O 0.88399 0.69523 0.75184 0.0
O256 O 0.88772 0.60666 0.79895 0.0
O257 O 0.84244 0.59557 0.74466 0.0
O258 O 0.90896 0.6612 0.79093 0.0
O259 O 0.86578 0.66579 0.72411 0.0
O260 O 0.8567 0.5548 0.76983 0.0
O261 O 0.92752 0.6609 0.72233 0.0
O262 O 0.93649 0.57175 0.77931 0.0
O263 O 0.87996 0.54132 0.72358 0.0
Sc264 Sc 0.66813 0.34001 0.50717 0.0
Sc265 Sc 0.62495 0.39458 0.47763 0.0
Sc266 Sc 0.64911 0.43289 0.52437 0.0
O267 O 0.64749 0.38893 0.50315 0.0
C268 C 0.64778 0.35925 0.55464 0.0
C269 C 0.61793 0.30419 0.48894 0.0
C270 C 0.59098 0.43173 0.51121 0.0
C271 C 0.6737 0.3613 0.45725 0.0
C272 C 0.70636 0.40521 0.52234 0.0
C273 C 0.64538 0.48215 0.48321 0.0
O274 O 0.66058 0.33808 0.54176 0.0
O275 O 0.61504 0.33333 0.47652 0.0
O276 O 0.60975 0.44677 0.52072 0.0
O277 O 0.67811 0.33813 0.47293 0.0
O278 O 0.68879 0.42625 0.52986 0.0
O279 O 0.63067 0.45713 0.47492 0.0
O280 O 0.70216 0.37373 0.51196 0.0
O281 O 0.65604 0.38602 0.45715 0.0
O282 O 0.658 0.47491 0.49998 0.0
O283 O 0.63527 0.30295 0.50291 0.0
O284 O 0.64004 0.39337 0.54986 0.0
O285 O 0.59311 0.40452 0.49747 0.0
Sc286 Sc 0.11672 0.31722 0.52384 0.0
Sc287 Sc 0.14101 0.35628 0.47735 0.0
Sc288 Sc 0.09769 0.41031 0.50702 0.0
O289 O 0.11838 0.36152 0.50284 0.0
C290 C 0.05943 0.34476 0.52178 0.0
C291 C 0.12086 0.26855 0.48258 0.0
C292 C 0.09224 0.38962 0.45702 0.0
C293 C 0.17493 0.31872 0.51082 0.0
C294 C 0.11799 0.39046 0.55442 0.0
C295 C 0.14782 0.44655 0.48894 0.0
O296 O 0.07699 0.32362 0.52924 0.0
O297 O 0.13554 0.29376 0.47446 0.0
O298 O 0.0878 0.4126 0.47278 0.0
O299 O 0.15612 0.30355 0.52022 0.0
O300 O 0.10522 0.41183 0.54162 0.0
O301 O 0.15073 0.41757 0.47642 0.0
O302 O 0.12567 0.35636 0.54953 0.0
O303 O 0.17284 0.34619 0.49723 0.0
O304 O 0.13051 0.44754 0.50295 0.0
O305 O 0.10797 0.27559 0.49922 0.0
O306 O 0.06365 0.37645 0.5116 0.0
O307 O 0.10991 0.36491 0.45685 0.0
Sc308 Sc 0.66852 0.41382 0.25806 0.0
Sc309 Sc 0.62687 0.35493 0.28617 0.0
Sc310 Sc 0.652 0.32085 0.23899 0.0
O311 O 0.64925 0.36342 0.26096 0.0
C312 C 0.64917 0.39584 0.21007 0.0
C313 C 0.61736 0.4451 0.27629 0.0
C314 C 0.59382 0.31832 0.25191 0.0
C315 C 0.67434 0.38986 0.30754 0.0
C316 C 0.70835 0.35215 0.24216 0.0
C317 C 0.64896 0.26885 0.27897 0.0
O318 O 0.66169 0.41682 0.22328 0.0
O319 O 0.61588 0.41543 0.2885 0.0
O320 O 0.6129 0.30417 0.24242 0.0
O321 O 0.6777 0.41486 0.29251 0.0
O322 O 0.69157 0.3309 0.23351 0.0
O323 O 0.63367 0.29268 0.28749 0.0
O324 O 0.70322 0.38198 0.25359 0.0
O325 O 0.65777 0.36336 0.30687 0.0
O326 O 0.66189 0.27785 0.26263 0.0
O327 O 0.63467 0.44858 0.26239 0.0
O328 O 0.64183 0.3613 0.21435 0.0
O329 O 0.59546 0.34522 0.26586 0.0
Sc330 Sc 0.11974 0.42982 0.23946 0.0
Sc331 Sc 0.14176 0.39414 0.28759 0.0
Sc332 Sc 0.09979 0.33848 0.25818 0.0
O333 O 0.12029 0.38745 0.26161 0.0
C334 C 0.06209 0.40334 0.2423 0.0
C335 C 0.12319 0.48206 0.2796 0.0
C336 C 0.09295 0.36231 0.30754 0.0
C337 C 0.17764 0.42642 0.25376 0.0
C338 C 0.12007 0.35487 0.21042 0.0
C339 C 0.14954 0.30396 0.27712 0.0
O340 O 0.07967 0.42343 0.23388 0.0
O341 O 0.1372 0.45715 0.2888 0.0
O342 O 0.09013 0.33707 0.29256 0.0
O343 O 0.15967 0.44202 0.2433 0.0
O344 O 0.10663 0.33515 0.22349 0.0
O345 O 0.1506 0.33234 0.29031 0.0
O346 O 0.12872 0.38855 0.21487 0.0
O347 O 0.17407 0.40097 0.26826 0.0
O348 O 0.13304 0.30251 0.26242 0.0
O349 O 0.111 0.47398 0.26272 0.0
O350 O 0.06614 0.37278 0.25351 0.0
O351 O 0.10972 0.3885 0.30722 0.0
Sc352 Sc 0.86685 0.06692 0.48906 0.0
Sc353 Sc 0.89117 0.10527 0.53572 0.0
Sc354 Sc 0.84741 0.15935 0.50659 0.0
O355 O 0.86837 0.11074 0.51037 0.0
C356 C 0.8676 0.14092 0.45901 0.0
C357 C 0.92512 0.06897 0.50193 0.0
C358 C 0.89735 0.19596 0.52471 0.0
C359 C 0.87167 0.01718 0.52982 0.0
C360 C 0.80941 0.09368 0.49151 0.0
C361 C 0.84234 0.13744 0.55648 0.0
O362 O 0.87547 0.10681 0.46364 0.0
O363 O 0.92293 0.09628 0.51561 0.0
O364 O 0.88 0.19691 0.51075 0.0
O365 O 0.85849 0.02456 0.5134 0.0
O366 O 0.81355 0.12516 0.50191 0.0
O367 O 0.8601 0.11287 0.5564 0.0
O368 O 0.82703 0.0729 0.48383 0.0
O369 O 0.88621 0.04246 0.5381 0.0
O370 O 0.83774 0.16075 0.54089 0.0
O371 O 0.90635 0.05368 0.49251 0.0
O372 O 0.85473 0.16179 0.47199 0.0
O373 O 0.9005 0.1668 0.53708 0.0
Sc374 Sc 0.41802 0.09003 0.50808 0.0
Sc375 Sc 0.37569 0.14341 0.53871 0.0
Sc376 Sc 0.39713 0.18204 0.49103 0.0
O377 O 0.39705 0.13842 0.51248 0.0
C378 C 0.45507 0.15677 0.49295 0.0
C379 C 0.42507 0.11135 0.55782 0.0
C380 C 0.3936 0.23198 0.53214 0.0
C381 C 0.36875 0.05338 0.52703 0.0
C382 C 0.39718 0.10847 0.46074 0.0
C383 C 0.33936 0.17708 0.50547 0.0
O384 O 0.45144 0.12491 0.50317 0.0
O385 O 0.40786 0.1368 0.55814 0.0
O386 O 0.40546 0.22517 0.51495 0.0
O387 O 0.38528 0.05291 0.51234 0.0
O388 O 0.38865 0.14201 0.46566 0.0
O389 O 0.34307 0.15135 0.5198 0.0
O390 O 0.41051 0.08801 0.47353 0.0
O391 O 0.36707 0.08149 0.54033 0.0
O392 O 0.35718 0.19297 0.49498 0.0
O393 O 0.42834 0.08744 0.54227 0.0
O394 O 0.43712 0.17733 0.48555 0.0
O395 O 0.37997 0.20631 0.54112 0.0
Sc396 Sc 0.86944 0.17993 0.77336 0.0
Sc397 Sc 0.89111 0.14184 0.72561 0.0
Sc398 Sc 0.84835 0.08825 0.75581 0.0
O399 O 0.86952 0.13658 0.75171 0.0
C400 C 0.86936 0.10567 0.80322 0.0
C401 C 0.92731 0.17503 0.75915 0.0
C402 C 0.89743 0.05132 0.73672 0.0
C403 C 0.87325 0.23043 0.73248 0.0
C404 C 0.81144 0.15489 0.7713 0.0
C405 C 0.84165 0.11042 0.70612 0.0
O406 O 0.87776 0.13942 0.79853 0.0
O407 O 0.92363 0.1495 0.7447 0.0
O408 O 0.88077 0.05073 0.75127 0.0
O409 O 0.86131 0.22344 0.74961 0.0
O410 O 0.81507 0.12316 0.76099 0.0
O411 O 0.85911 0.13548 0.70594 0.0
O412 O 0.8294 0.1754 0.77874 0.0
O413 O 0.88687 0.20482 0.72342 0.0
O414 O 0.83797 0.08656 0.72163 0.0
O415 O 0.90944 0.19082 0.76961 0.0
O416 O 0.85602 0.0854 0.79033 0.0
O417 O 0.8997 0.07993 0.72381 0.0
Sc418 Sc 0.41771 0.15878 0.75676 0.0
Sc419 Sc 0.37609 0.10237 0.72757 0.0
Sc420 Sc 0.39769 0.06766 0.77594 0.0
O421 O 0.39732 0.10962 0.75357 0.0
C422 C 0.45532 0.09408 0.77301 0.0
C423 C 0.42485 0.13385 0.70761 0.0
C424 C 0.39407 0.01445 0.73628 0.0
C425 C 0.36785 0.19231 0.73766 0.0
C426 C 0.39737 0.14309 0.80456 0.0
C427 C 0.33991 0.07126 0.76143 0.0
O428 O 0.45132 0.12446 0.76162 0.0
O429 O 0.40836 0.10724 0.70814 0.0
O430 O 0.40642 0.02286 0.75302 0.0
O431 O 0.38438 0.19463 0.75231 0.0
O432 O 0.38865 0.10942 0.80022 0.0
O433 O 0.34367 0.09642 0.74681 0.0
O434 O 0.41091 0.16259 0.79146 0.0
O435 O 0.36755 0.16404 0.72439 0.0
O436 O 0.35775 0.05561 0.77203 0.0
O437 O 0.42729 0.15968 0.72235 0.0
O438 O 0.43772 0.07418 0.78154 0.0
O439 O 0.38025 0.03935 0.72688 0.0
Sc440 Sc 0.16806 0.84084 0.50573 0.0
Sc441 Sc 0.12647 0.8958 0.47537 0.0
Sc442 Sc 0.14735 0.93263 0.52356 0.0
O443 O 0.14743 0.88971 0.50171 0.0
C444 C 0.14704 0.85809 0.55316 0.0
C445 C 0.11853 0.80607 0.48628 0.0
C446 C 0.08972 0.92817 0.50864 0.0
C447 C 0.17573 0.86385 0.45627 0.0
C448 C 0.20525 0.90693 0.52166 0.0
C449 C 0.14418 0.98402 0.48299 0.0
O450 O 0.1604 0.83789 0.54027 0.0
O451 O 0.11795 0.83418 0.47294 0.0
O452 O 0.10741 0.94375 0.51945 0.0
O453 O 0.17849 0.83909 0.4715 0.0
O454 O 0.18731 0.92742 0.52914 0.0
O455 O 0.13071 0.95859 0.47367 0.0
O456 O 0.20161 0.87535 0.51116 0.0
O457 O 0.1589 0.88993 0.45624 0.0
O458 O 0.1559 0.97671 0.50019 0.0
O459 O 0.13501 0.80431 0.50099 0.0
O460 O 0.13861 0.8918 0.54848 0.0
O461 O 0.09365 0.90296 0.49407 0.0
Sc462 Sc 0.6198 0.81589 0.52407 0.0
Sc463 Sc 0.64077 0.85558 0.4765 0.0
Sc464 Sc 0.59814 0.90773 0.50746 0.0
O465 O 0.61947 0.85983 0.50281 0.0
C466 C 0.56164 0.84019 0.52254 0.0
C467 C 0.62353 0.76666 0.48276 0.0
C468 C 0.59107 0.88691 0.45762 0.0
C469 C 0.67751 0.82196 0.50937 0.0
C470 C 0.61935 0.88902 0.55468 0.0
C471 C 0.64684 0.94573 0.48835 0.0
O472 O 0.57976 0.81979 0.52977 0.0
O473 O 0.63701 0.79263 0.47388 0.0
O474 O 0.58762 0.91049 0.4733 0.0
O475 O 0.65983 0.80563 0.51985 0.0
O476 O 0.60584 0.90943 0.542 0.0
O477 O 0.64883 0.91769 0.47505 0.0
O478 O 0.62813 0.85571 0.5496 0.0
O479 O 0.67355 0.84804 0.49527 0.0
O480 O 0.63047 0.94564 0.50316 0.0
O481 O 0.6116 0.77308 0.49997 0.0
O482 O 0.56503 0.8722 0.51242 0.0
O483 O 0.60848 0.86179 0.45717 0.0
Sc484 Sc 0.1675 0.91006 0.25658 0.0
Sc485 Sc 0.12395 0.85633 0.28613 0.0
Sc486 Sc 0.14801 0.81745 0.23958 0.0
O487 O 0.14658 0.86156 0.26068 0.0
C488 C 0.14686 0.89069 0.20919 0.0
C489 C 0.11771 0.94694 0.27472 0.0
C490 C 0.08995 0.81873 0.25306 0.0
C491 C 0.17288 0.88895 0.30655 0.0
C492 C 0.20532 0.84458 0.24143 0.0
C493 C 0.14397 0.76842 0.28056 0.0
O494 O 0.16 0.91163 0.22195 0.0
O495 O 0.11454 0.91792 0.2872 0.0
O496 O 0.10872 0.80335 0.24371 0.0
O497 O 0.17737 0.91206 0.29085 0.0
O498 O 0.18765 0.82398 0.2337 0.0
O499 O 0.12915 0.79346 0.2887 0.0
O500 O 0.20128 0.87586 0.252 0.0
O501 O 0.15512 0.86436 0.30665 0.0
O502 O 0.15711 0.77592 0.26412 0.0
O503 O 0.13497 0.94765 0.26068 0.0
O504 O 0.13872 0.85685 0.21411 0.0
O505 O 0.09211 0.84695 0.26616 0.0
Sc506 Sc 0.62067 0.93035 0.24006 0.0
Sc507 Sc 0.64173 0.89448 0.28833 0.0
Sc508 Sc 0.59975 0.83928 0.25862 0.0
O509 O 0.62054 0.88802 0.26218 0.0
C510 C 0.56262 0.90546 0.24255 0.0
C511 C 0.62509 0.98287 0.2799 0.0
C512 C 0.59238 0.86425 0.30783 0.0
C513 C 0.67842 0.92487 0.25464 0.0
C514 C 0.62043 0.85514 0.21099 0.0
C515 C 0.64932 0.80487 0.27808 0.0
O516 O 0.58061 0.92555 0.23479 0.0
O517 O 0.6386 0.9575 0.28921 0.0
O518 O 0.58974 0.83867 0.29297 0.0
O519 O 0.66072 0.94077 0.24397 0.0
O520 O 0.60703 0.83538 0.22405 0.0
O521 O 0.6493 0.83265 0.29162 0.0
O522 O 0.62901 0.88888 0.2154 0.0
O523 O 0.67445 0.89979 0.26929 0.0
O524 O 0.63295 0.8029 0.26328 0.0
O525 O 0.61257 0.97502 0.26319 0.0
O526 O 0.56622 0.87401 0.2532 0.0
O527 O 0.60919 0.89039 0.30751 0.0
Sc528 Sc 0.86653 0.56488 0.98692 0.0
Sc529 Sc 0.89393 0.59996 0.03295 0.0
Sc530 Sc 0.84802 0.65569 0.00761 0.0
O531 O 0.86932 0.60716 0.0091 0.0
C532 C 0.86655 0.64134 0.95899 0.0
C533 C 0.92537 0.5653 0.99743 0.0
C534 C 0.89893 0.69167 0.02454 0.0
C535 C 0.87295 0.51282 0.0265 0.0
C536 C 0.80946 0.59192 0.99162 0.0
C537 C 0.8459 0.62845 0.05693 0.0
O538 O 0.87455 0.60683 0.96247 0.0
O539 O 0.92398 0.59302 0.01088 0.0
O540 O 0.88044 0.69387 0.01174 0.0
O541 O 0.85883 0.52127 0.01079 0.0
O542 O 0.81419 0.62159 1.00327 0.0
O543 O 0.86458 0.6058 0.05531 0.0
O544 O 0.82655 0.57212 0.98247 0.0
O545 O 0.88857 0.53716 0.03418 0.0
O546 O 0.83968 0.65286 0.04225 0.0
O547 O 0.90601 0.54998 0.98898 0.0
O548 O 0.85407 0.66112 0.97279 0.0
O549 O 0.9035 0.66106 0.03539 0.0
Sc550 Sc 0.41734 0.58639 0.00825 0.0
Sc551 Sc 0.37444 0.6417 0.03764 0.0
Sc552 Sc 0.39883 0.67944 0.99085 0.0
O553 O 0.39697 0.63561 0.01215 0.0
C554 C 0.45595 0.65108 0.99301 0.0
C555 C 0.42312 0.60829 0.05808 0.0
C556 C 0.39502 0.7291 0.03182 0.0
C557 C 0.36706 0.5513 0.02668 0.0
C558 C 0.397 0.60545 0.96075 0.0
C559 C 0.34064 0.67867 1.00387 0.0
O560 O 0.45155 0.61959 1.0033 0.0
O561 O 0.40553 0.63314 0.05812 0.0
O562 O 0.40776 0.7216 0.01517 0.0
O563 O 0.38434 0.54974 0.01267 0.0
O564 O 0.38969 0.63986 0.96541 0.0
O565 O 0.34266 0.65163 0.01772 0.0
O566 O 0.4096 0.58409 0.97368 0.0
O567 O 0.36436 0.58057 0.03902 0.0
O568 O 0.35947 0.69354 0.99437 0.0
O569 O 0.42742 0.58488 0.04247 0.0
O570 O 0.43853 0.67246 0.98552 0.0
O571 O 0.38025 0.70422 0.04013 0.0
Sc572 Sc 0.8692 0.67802 0.2772 0.0
Sc573 Sc 0.89247 0.64482 0.22925 0.0
Sc574 Sc 0.8493 0.58793 0.25635 0.0
O575 O 0.87007 0.63686 0.25441 0.0
C576 C 0.86895 0.60091 0.30464 0.0
C577 C 0.92746 0.67372 0.26423 0.0
C578 C 0.89952 0.55457 0.23746 0.0
C579 C 0.87463 0.73234 0.23834 0.0
C580 C 0.81152 0.65229 0.27313 0.0
C581 C 0.84358 0.61716 0.2076 0.0
O582 O 0.87733 0.63511 0.30108 0.0
O583 O 0.92407 0.64834 0.24966 0.0
O584 O 0.88257 0.55157 0.25171 0.0
O585 O 0.86134 0.72358 0.25448 0.0
O586 O 0.81567 0.62218 0.26157 0.0
O587 O 0.86097 0.64226 0.20901 0.0
O588 O 0.82902 0.67194 0.28197 0.0
O589 O 0.88913 0.70776 0.22951 0.0
O590 O 0.84005 0.59046 0.22177 0.0
O591 O 0.9093 0.68979 0.27422 0.0
O592 O 0.85586 0.58179 0.29103 0.0
O593 O 0.90011 0.58345 0.22467 0.0
Sc594 Sc 0.41786 0.66191 0.257 0.0
Sc595 Sc 0.37516 0.60594 0.22809 0.0
Sc596 Sc 0.39988 0.5691 0.27489 0.0
O597 O 0.39771 0.61256 0.25342 0.0
C598 C 0.45666 0.5985 0.2724 0.0
C599 C 0.42332 0.63987 0.20723 0.0
C600 C 0.39654 0.51896 0.2342 0.0
C601 C 0.36757 0.69649 0.2389 0.0
C602 C 0.39789 0.64293 0.30469 0.0
C603 C 0.34172 0.56849 0.26169 0.0
O604 O 0.45199 0.62876 0.26118 0.0
O605 O 0.40612 0.61434 0.20746 0.0
O606 O 0.4095 0.52712 0.25066 0.0
O607 O 0.38473 0.6981 0.25301 0.0
O608 O 0.39001 0.60885 0.3 0.0
O609 O 0.34359 0.59622 0.24825 0.0
O610 O 0.41084 0.66384 0.29176 0.0
O611 O 0.36497 0.66718 0.22653 0.0
O612 O 0.36068 0.55355 0.271 0.0
O613 O 0.42728 0.66385 0.22264 0.0
O614 O 0.43953 0.57764 0.28081 0.0
O615 O 0.38132 0.54332 0.22598 0.0
Sc616 Sc 0.16767 0.33691 1.00691 0.0
Sc617 Sc 0.12497 0.38977 0.97649 0.0
Sc618 Sc 0.14591 0.42819 0.02432 0.0
O619 O 0.14633 0.38488 1.0027 0.0
C620 C 0.14634 0.35413 0.05425 0.0
C621 C 0.11902 0.29937 0.98752 0.0
C622 C 0.08824 0.4219 0.00963 0.0
C623 C 0.1747 0.35961 0.95731 0.0
C624 C 0.20407 0.40406 0.02255 0.0
C625 C 0.14199 0.4787 0.98356 0.0
O626 O 0.15995 0.33416 0.04145 0.0
O627 O 0.1172 0.32759 0.97431 0.0
O628 O 0.10587 0.43847 0.02008 0.0
O629 O 0.17814 0.33537 0.97269 0.0
O630 O 0.18594 0.42416 0.03002 0.0
O631 O 0.1284 0.45297 0.97455 0.0
O632 O 0.2007 0.37236 0.01214 0.0
O633 O 0.15725 0.38468 0.95713 0.0
O634 O 0.15412 0.47169 1.00059 0.0
O635 O 0.13535 0.29915 1.00236 0.0
O636 O 0.13755 0.38757 0.04944 0.0
O637 O 0.09232 0.39594 0.9955 0.0
Sc638 Sc 0.61897 0.31312 0.02531 0.0
Sc639 Sc 0.63983 0.34899 0.97686 0.0
Sc640 Sc 0.59845 0.40477 1.00698 0.0
O641 O 0.61895 0.35567 1.0032 0.0
C642 C 0.56109 0.33901 0.02318 0.0
C643 C 0.62199 0.26095 0.98495 0.0
C644 C 0.59055 0.38084 0.95767 0.0
C645 C 0.67661 0.31714 0.01034 0.0
C646 C 0.61957 0.38842 0.05447 0.0
C647 C 0.648 0.43895 0.98724 0.0
O648 O 0.57897 0.31844 0.03074 0.0
O649 O 0.63538 0.28623 0.97543 0.0
O650 O 0.58784 0.40584 0.97279 0.0
O651 O 0.65894 0.3019 0.02132 0.0
O652 O 0.60633 0.40853 0.04145 0.0
O653 O 0.64859 0.41049 0.97412 0.0
O654 O 0.6277 0.35441 0.05004 0.0
O655 O 0.67267 0.34191 0.99555 0.0
O656 O 0.63152 0.44108 1.00192 0.0
O657 O 0.61046 0.26851 1.00221 0.0
O658 O 0.56485 0.37054 0.01267 0.0
O659 O 0.60739 0.35478 0.95772 0.0
Sc660 Sc 0.16797 0.41053 0.75803 0.0
Sc661 Sc 0.12467 0.35546 0.78685 0.0
Sc662 Sc 0.14958 0.31784 0.74027 0.0
O663 O 0.1475 0.36151 0.76163 0.0
C664 C 0.14815 0.39154 0.71034 0.0
C665 C 0.11752 0.44586 0.77576 0.0
C666 C 0.09129 0.31801 0.75315 0.0
C667 C 0.17294 0.38882 0.8079 0.0
C668 C 0.20659 0.34622 0.74291 0.0
C669 C 0.14535 0.26811 0.78097 0.0
O670 O 0.16112 0.41239 0.72327 0.0
O671 O 0.11479 0.41676 0.78824 0.0
O672 O 0.11028 0.30298 0.74393 0.0
O673 O 0.17722 0.4125 0.79242 0.0
O674 O 0.18932 0.32556 0.73456 0.0
O675 O 0.13035 0.29289 0.78908 0.0
O676 O 0.20208 0.37676 0.75398 0.0
O677 O 0.15555 0.36362 0.80767 0.0
O678 O 0.15867 0.27592 0.76467 0.0
O679 O 0.13487 0.44723 0.7618 0.0
O680 O 0.14016 0.35752 0.71503 0.0
O681 O 0.09315 0.34581 0.76656 0.0
Sc682 Sc 0.61656 0.42886 0.74137 0.0
Sc683 Sc 0.64057 0.38994 0.78798 0.0
Sc684 Sc 0.59758 0.33572 0.75804 0.0
O685 O 0.61815 0.3846 0.76236 0.0
C686 C 0.55933 0.40102 0.74314 0.0
C687 C 0.62024 0.4775 0.78266 0.0
C688 C 0.59179 0.35616 0.80805 0.0
C689 C 0.67466 0.42769 0.7547 0.0
C690 C 0.61801 0.35587 0.71071 0.0
C691 C 0.64776 0.29988 0.77621 0.0
O692 O 0.57692 0.42214 0.73571 0.0
O693 O 0.63495 0.45243 0.79086 0.0
O694 O 0.5876 0.3331 0.79227 0.0
O695 O 0.65588 0.44275 0.74522 0.0
O696 O 0.60512 0.33449 0.72342 0.0
O697 O 0.65039 0.32867 0.7889 0.0
O698 O 0.6258 0.38985 0.71571 0.0
O699 O 0.67254 0.40024 0.7683 0.0
O700 O 0.63056 0.29885 0.7621 0.0
O701 O 0.6075 0.47036 0.76596 0.0
O702 O 0.5635 0.36943 0.75343 0.0
O703 O 0.60933 0.38112 0.8083 0.0
H704 H 0.42924 0.78738 0.02518 0.0
H705 H 0.35825 0.76338 0.05546 0.0
H706 H 0.42328 0.85728 0.03176 0.0
H707 H 0.35228 0.83326 0.06171 0.0
H708 H 0.33935 0.9552 0.0247 0.0
H709 H 0.34559 0.88545 0.03147 0.0
H710 H 0.41636 0.91049 0.06162 0.0
H711 H 0.41004 0.98037 0.05518 0.0
C712 C 0.41268 0.79691 0.03368 0.0
C713 C 0.39413 0.76992 0.03962 0.0
C714 C 0.40933 0.83685 0.03754 0.0
C715 C 0.38724 0.85048 0.04711 0.0
C716 C 0.36941 0.82337 0.05423 0.0
C717 C 0.37293 0.7834 0.05072 0.0
C718 C 0.35592 0.94592 0.03327 0.0
C719 C 0.37427 0.97317 0.03927 0.0
C720 C 0.35943 0.90607 0.03723 0.0
C721 C 0.38152 0.89278 0.04695 0.0
C722 C 0.39922 0.92014 0.05404 0.0
C723 C 0.39551 0.96007 0.05044 0.0
H724 H 0.83917 0.45402 0.01926 0.0
H725 H 0.9096 0.47867 0.0504 0.0
H726 H 0.84497 0.38432 0.02643 0.0
H727 H 0.91532 0.40904 0.05737 0.0
H728 H 0.92949 0.28506 0.024 0.0
H729 H 0.92313 0.35518 0.02927 0.0
H730 H 0.85035 0.33245 0.05628 0.0
H731 H 0.8567 0.26227 0.05124 0.0
C732 C 0.8556 0.4447 0.028 0.0
C733 C 0.87401 0.47184 0.03405 0.0
C734 C 0.85884 0.40485 0.03222 0.0
C735 C 0.88067 0.39145 0.04233 0.0
C736 C 0.89841 0.41871 0.04944 0.0
C737 C 0.89502 0.45857 0.0455 0.0
C738 C 0.91242 0.29496 0.03158 0.0
C739 C 0.89355 0.26822 0.03706 0.0
C740 C 0.90882 0.33504 0.03468 0.0
C741 C 0.88617 0.34908 0.04303 0.0
C742 C 0.86791 0.32227 0.0497 0.0
C743 C 0.87166 0.28213 0.04693 0.0
H744 H 0.3604 0.48374 0.21016 0.0
H745 H 0.43097 0.46118 0.24148 0.0
H746 H 0.35515 0.41378 0.20377 0.0
H747 H 0.4257 0.39117 0.23481 0.0
H748 H 0.34181 0.29117 0.23924 0.0
H749 H 0.34793 0.36112 0.23312 0.0
H750 H 0.42016 0.33777 0.20524 0.0
H751 H 0.41396 0.26761 0.21106 0.0
C752 C 0.37514 0.46403 0.21515 0.0
C753 C 0.39602 0.47798 0.22654 0.0
C754 C 0.37203 0.42398 0.21155 0.0
C755 C 0.38993 0.3972 0.21891 0.0
C756 C 0.41169 0.4113 0.22885 0.0
C757 C 0.41464 0.45133 0.23276 0.0
C758 C 0.3587 0.30087 0.2313 0.0
C759 C 0.37745 0.27398 0.22574 0.0
C760 C 0.36216 0.34086 0.22771 0.0
C761 C 0.38458 0.35471 0.21881 0.0
C762 C 0.40276 0.32773 0.21219 0.0
C763 C 0.39911 0.28763 0.21541 0.0
H764 H 0.84159 0.79149 0.24683 0.0
H765 H 0.9112 0.76656 0.21446 0.0
H766 H 0.84756 0.86129 0.2398 0.0
H767 H 0.91716 0.83628 0.20776 0.0
H768 H 0.93108 0.96114 0.24138 0.0
H769 H 0.925 0.89074 0.23668 0.0
H770 H 0.85272 0.91203 0.2084 0.0
H771 H 0.8588 0.98237 0.21276 0.0
C772 C 0.85789 0.80081 0.23791 0.0
C773 C 0.87599 0.77358 0.23136 0.0
C774 C 0.86123 0.84066 0.23379 0.0
C775 C 0.88287 0.85392 0.22333 0.0
C776 C 0.90038 0.82664 0.21591 0.0
C777 C 0.89687 0.78678 0.21971 0.0
C778 C 0.9142 0.95084 0.23364 0.0
C779 C 0.89537 0.97722 0.22758 0.0
C780 C 0.91076 0.91064 0.23089 0.0
C781 C 0.8883 0.89621 0.22235 0.0
C782 C 0.87012 0.92259 0.21513 0.0
C783 C 0.87372 0.96281 0.21752 0.0
H784 H 0.60644 0.01007 0.96168 0.0
H785 H 0.67932 0.03445 0.98834 0.0
H786 H 0.59974 0.08 0.95605 0.0
H787 H 0.67264 0.10438 0.98236 0.0
H788 H 0.58915 0.20182 0.99385 0.0
H789 H 0.59511 0.13206 0.98684 0.0
H790 H 0.66341 0.15751 0.95288 0.0
H791 H 0.65739 0.22731 0.95954 0.0
C792 C 0.62136 0.0302 0.96571 0.0
C793 C 0.64337 0.01683 0.97562 0.0
C794 C 0.61741 0.07019 0.96258 0.0
C795 C 0.6356 0.09738 0.96889 0.0
C796 C 0.65839 0.08388 0.97724 0.0
C797 C 0.66217 0.04393 0.98073 0.0
C798 C 0.6051 0.19262 0.98444 0.0
C799 C 0.62288 0.21999 0.97741 0.0
C800 C 0.60844 0.15277 0.98034 0.0
C801 C 0.62979 0.13961 0.96942 0.0
C802 C 0.64686 0.16706 0.96138 0.0
C803 C 0.6433 0.20696 0.96514 0.0
H804 H 0.08721 0.70684 0.98963 0.0
H805 H 0.15815 0.72935 0.959 0.0
H806 H 0.0927 0.63675 0.98344 0.0
H807 H 0.1637 0.65914 0.95312 0.0
H808 H 0.10464 0.51302 0.96053 0.0
H809 H 0.09876 0.58301 0.95407 0.0
H810 H 0.17032 0.60681 0.98311 0.0
H811 H 0.17613 0.53697 0.98989 0.0
C812 C 0.10367 0.6969 0.98115 0.0
C813 C 0.12231 0.72355 0.97495 0.0
C814 C 0.10676 0.65683 0.97751 0.0
C815 C 0.1287 0.64266 0.96792 0.0
C816 C 0.14667 0.66942 0.96061 0.0
C817 C 0.14339 0.70957 0.96389 0.0
C818 C 0.11942 0.53307 0.96504 0.0
C819 C 0.14079 0.51957 0.97587 0.0
C820 C 0.11596 0.57309 0.96142 0.0
C821 C 0.13404 0.60018 0.96817 0.0
C822 C 0.15619 0.58646 0.9776 0.0
C823 C 0.15946 0.54654 0.98158 0.0
H824 H 0.6063 0.72856 0.80643 0.0
H825 H 0.67553 0.70329 0.77359 0.0
H826 H 0.60024 0.65876 0.81311 0.0
H827 H 0.66954 0.63355 0.78064 0.0
H828 H 0.58579 0.53566 0.77694 0.0
H829 H 0.59205 0.60558 0.78329 0.0
H830 H 0.66405 0.58155 0.81144 0.0
H831 H 0.65778 0.51164 0.80544 0.0
C832 C 0.62059 0.70826 0.80118 0.0
C833 C 0.64131 0.72132 0.7893 0.0
C834 C 0.61702 0.66836 0.80495 0.0
C835 C 0.63437 0.64099 0.79731 0.0
C836 C 0.65599 0.65421 0.78683 0.0
C837 C 0.65935 0.69404 0.7827 0.0
C838 C 0.60264 0.5452 0.78502 0.0
C839 C 0.62135 0.51822 0.79052 0.0
C840 C 0.60616 0.58514 0.78874 0.0
C841 C 0.62861 0.59874 0.79771 0.0
C842 C 0.64664 0.57165 0.80443 0.0
C843 C 0.64294 0.53167 0.80107 0.0
H844 H 0.10743 0.23406 0.80331 0.0
H845 H 0.1791 0.20912 0.77446 0.0
H846 H 0.10049 0.1642 0.80875 0.0
H847 H 0.17215 0.13917 0.78024 0.0
H848 H 0.15732 0.01653 0.80372 0.0
H849 H 0.16399 0.08626 0.80989 0.0
H850 H 0.0942 0.11209 0.77834 0.0
H851 H 0.08754 0.04229 0.77183 0.0
C852 C 0.12204 0.21381 0.79871 0.0
C853 C 0.14377 0.22706 0.78828 0.0
C854 C 0.11795 0.17385 0.80174 0.0
C855 C 0.1357 0.14651 0.7948 0.0
C856 C 0.15824 0.15981 0.78585 0.0
C857 C 0.16217 0.19977 0.78247 0.0
C858 C 0.14305 0.03693 0.79856 0.0
C859 C 0.12195 0.02394 0.78712 0.0
C860 C 0.14699 0.07681 0.80202 0.0
C861 C 0.12969 0.10434 0.79449 0.0
C862 C 0.10774 0.0913 0.78443 0.0
C863 C 0.10398 0.05142 0.78062 0.0
H864 H 0.42774 0.29024 0.52576 0.0
H865 H 0.35651 0.26606 0.55551 0.0
H866 H 0.42176 0.3601 0.53236 0.0
H867 H 0.35044 0.33606 0.56176 0.0
H868 H 0.33832 0.45855 0.52472 0.0
H869 H 0.34416 0.38873 0.53158 0.0
H870 H 0.41472 0.41305 0.56224 0.0
H871 H 0.40882 0.48297 0.55571 0.0
C872 C 0.41111 0.29976 0.53415 0.0
C873 C 0.39253 0.27275 0.53997 0.0
C874 C 0.40774 0.33968 0.53802 0.0
C875 C 0.38557 0.35331 0.54745 0.0
C876 C 0.36765 0.32617 0.55441 0.0
C877 C 0.37122 0.28616 0.55091 0.0
C878 C 0.35476 0.4491 0.53341 0.0
C879 C 0.37319 0.47617 0.53951 0.0
C880 C 0.35803 0.4092 0.53744 0.0
C881 C 0.37996 0.39567 0.54733 0.0
C882 C 0.39771 0.42286 0.55453 0.0
C883 C 0.39423 0.46284 0.55086 0.0
H884 H 0.83791 0.95808 0.52382 0.0
H885 H 0.91004 0.98332 0.55172 0.0
H886 H 0.84489 0.88822 0.52971 0.0
H887 H 0.91703 0.91344 0.55731 0.0
H888 H 0.8594 0.76577 0.55302 0.0
H889 H 0.85299 0.8356 0.55899 0.0
H890 H 0.92309 0.86053 0.52772 0.0
H891 H 0.92952 0.79063 0.52147 0.0
C892 C 0.85497 0.9488 0.53165 0.0
C893 C 0.87345 0.97617 0.53719 0.0
C894 C 0.85893 0.90886 0.53509 0.0
C895 C 0.88158 0.89559 0.54384 0.0
C896 C 0.89948 0.92302 0.55046 0.0
C897 C 0.89536 0.96299 0.54736 0.0
C898 C 0.8738 0.78599 0.54787 0.0
C899 C 0.89491 0.77268 0.53658 0.0
C900 C 0.87 0.82596 0.55122 0.0
C901 C 0.88745 0.85331 0.5437 0.0
C902 C 0.90942 0.83994 0.5338 0.0
C903 C 0.91305 0.79997 0.53014 0.0
H904 H 0.42697 0.95537 0.7452 0.0
H905 H 0.35744 0.97974 0.7126 0.0
H906 H 0.42053 0.88533 0.73934 0.0
H907 H 0.35097 0.9097 0.70707 0.0
H908 H 0.40846 0.76276 0.71438 0.0
H909 H 0.41518 0.83279 0.70929 0.0
H910 H 0.34264 0.85659 0.73644 0.0
H911 H 0.3359 0.78647 0.74184 0.0
C912 C 0.4106 0.94585 0.73642 0.0
C913 C 0.39267 0.97305 0.72948 0.0
C914 C 0.40697 0.90582 0.733 0.0
C915 C 0.38518 0.89228 0.72287 0.0
C916 C 0.36785 0.91949 0.715 0.0
C917 C 0.37168 0.95955 0.71809 0.0
C918 C 0.39364 0.78278 0.71877 0.0
C919 C 0.37167 0.7691 0.72865 0.0
C920 C 0.3976 0.82286 0.71596 0.0
C921 C 0.3795 0.84993 0.72258 0.0
C922 C 0.35683 0.83621 0.73108 0.0
C923 C 0.35301 0.79613 0.73424 0.0
H924 H 0.91046 0.26491 0.70938 0.0
H925 H 0.83899 0.28849 0.73883 0.0
H926 H 0.91636 0.33497 0.70317 0.0
H927 H 0.84481 0.35841 0.73227 0.0
H928 H 0.92779 0.45798 0.73989 0.0
H929 H 0.9223 0.38803 0.73318 0.0
H930 H 0.85171 0.41122 0.70232 0.0
H931 H 0.85728 0.48128 0.7087 0.0
C932 C 0.89567 0.28489 0.71394 0.0
C933 C 0.87432 0.27128 0.72476 0.0
C934 C 0.89915 0.32495 0.71046 0.0
C935 C 0.88109 0.35194 0.71732 0.0
C936 C 0.85892 0.33812 0.72668 0.0
C937 C 0.85565 0.29816 0.73053 0.0
C938 C 0.91143 0.44826 0.73118 0.0
C939 C 0.8929 0.47506 0.72497 0.0
C940 C 0.90835 0.40828 0.72724 0.0
C941 C 0.88651 0.39438 0.71735 0.0
C942 C 0.86866 0.42131 0.71003 0.0
C943 C 0.87195 0.46137 0.71361 0.0
H944 H 0.67954 0.54048 0.48992 0.0
H945 H 0.609 0.51609 0.45894 0.0
H946 H 0.67375 0.61026 0.48293 0.0
H947 H 0.60321 0.58589 0.45225 0.0
H948 H 0.58956 0.70805 0.48869 0.0
H949 H 0.5959 0.63834 0.48196 0.0
H950 H 0.66743 0.66334 0.45316 0.0
H951 H 0.66102 0.73322 0.45958 0.0
C952 C 0.66312 0.54989 0.48118 0.0
C953 C 0.64464 0.52284 0.47518 0.0
C954 C 0.65988 0.58978 0.47708 0.0
C955 C 0.63795 0.6033 0.46719 0.0
C956 C 0.62022 0.5761 0.45998 0.0
C957 C 0.62364 0.53617 0.46375 0.0
C958 C 0.60633 0.69877 0.48041 0.0
C959 C 0.62485 0.72601 0.47481 0.0
C960 C 0.6099 0.65893 0.47646 0.0
C961 C 0.63223 0.64561 0.46716 0.0
C962 C 0.65011 0.67298 0.46041 0.0
C963 C 0.64634 0.71293 0.464 0.0
H964 H 0.17724 0.04318 0.49111 0.0
H965 H 0.10804 0.01747 0.4583 0.0
H966 H 0.17093 0.11293 0.48431 0.0
H967 H 0.10166 0.08727 0.45186 0.0
H968 H 0.08672 0.20989 0.4883 0.0
H969 H 0.0933 0.14008 0.48183 0.0
H970 H 0.16514 0.16516 0.45367 0.0
H971 H 0.15855 0.23495 0.45978 0.0
C972 C 0.161 0.05234 0.48205 0.0
C973 C 0.14306 0.02492 0.4754 0.0
C974 C 0.15746 0.09218 0.47807 0.0
C975 C 0.13574 0.10526 0.46767 0.0
C976 C 0.1185 0.07777 0.45996 0.0
C977 C 0.12226 0.03787 0.46359 0.0
C978 C 0.1036 0.2006 0.4802 0.0
C979 C 0.12217 0.22785 0.47471 0.0
C980 C 0.10731 0.16072 0.47641 0.0
C981 C 0.12981 0.14745 0.4674 0.0
C982 C 0.14771 0.1748 0.46071 0.0
C983 C 0.14382 0.21471 0.46413 0.0
H984 H 0.68241 0.21037 0.2699 0.0
H985 H 0.61342 0.23373 0.3036 0.0
H986 H 0.67647 0.14021 0.27594 0.0
H987 H 0.60748 0.16378 0.30923 0.0
H988 H 0.66363 0.01685 0.30144 0.0
H989 H 0.67091 0.08684 0.30661 0.0
H990 H 0.59908 0.11215 0.27848 0.0
H991 H 0.59187 0.0422 0.27289 0.0
C992 C 0.66632 0.20066 0.27898 0.0
C993 C 0.6483 0.22759 0.28608 0.0
C994 C 0.66298 0.16059 0.28249 0.0
C995 C 0.64142 0.14685 0.29289 0.0
C996 C 0.62417 0.17379 0.30108 0.0
C997 C 0.62769 0.21382 0.2979 0.0
C998 C 0.64911 0.03726 0.29683 0.0
C999 C 0.62719 0.02412 0.28666 0.0
C1000 C 0.65339 0.07724 0.29969 0.0
C1001 C 0.6356 0.10463 0.29288 0.0
C1002 C 0.613 0.09145 0.284 0.0
C1003 C 0.60891 0.05152 0.28074 0.0
H1004 H 0.10548 0.73322 0.30165 0.0
H1005 H 0.17883 0.71069 0.27552 0.0
H1006 H 0.09941 0.6631 0.30723 0.0
H1007 H 0.17276 0.6406 0.28137 0.0
H1008 H 0.08952 0.54025 0.27118 0.0
H1009 H 0.09496 0.61026 0.27764 0.0
H1010 H 0.16458 0.58727 0.31015 0.0
H1011 H 0.15911 0.51718 0.30395 0.0
C1012 C 0.12061 0.71345 0.29771 0.0
C1013 C 0.14261 0.72743 0.28803 0.0
C1014 C 0.11703 0.67333 0.30079 0.0
C1015 C 0.13555 0.64656 0.29463 0.0
C1016 C 0.15826 0.6607 0.2864 0.0
C1017 C 0.16169 0.70076 0.28297 0.0
C1018 C 0.10569 0.55003 0.28014 0.0
C1019 C 0.12396 0.52323 0.2869 0.0
C1020 C 0.10874 0.59006 0.28394 0.0
C1021 C 0.13027 0.60405 0.29428 0.0
C1022 C 0.14788 0.57716 0.30205 0.0
C1023 C 0.14464 0.53706 0.29857 0.0
H1024 H 0.34008 0.18342 0.93428 0.0
H1025 H 0.41149 0.12502 0.93693 0.0
H1026 H 0.34676 0.19715 0.89608 0.0
H1027 H 0.41826 0.13907 0.89912 0.0
H1028 H 0.42962 0.18091 0.83177 0.0
H1029 H 0.42359 0.19154 0.87036 0.0
H1030 H 0.34806 0.14836 0.86513 0.0
H1031 H 0.35421 0.13732 0.82692 0.0
C1032 C 0.35745 0.17445 0.92686 0.0
C1033 C 0.37515 0.15282 0.93853 0.0
C1034 C 0.36124 0.18216 0.90501 0.0
C1035 C 0.38303 0.16913 0.89457 0.0
C1036 C 0.40141 0.14987 0.90668 0.0
C1037 C 0.39742 0.14154 0.92832 0.0
C1038 C 0.41154 0.17486 0.83881 0.0
C1039 C 0.39243 0.15811 0.82641 0.0
C1040 C 0.40812 0.18069 0.86088 0.0
C1041 C 0.38537 0.17062 0.87081 0.0
C1042 C 0.3657 0.15676 0.85799 0.0
C1043 C 0.36927 0.15024 0.83611 0.0
H1044 H 0.83868 0.06364 0.82995 0.0
H1045 H 0.91194 0.11585 0.82604 0.0
H1046 H 0.84528 0.05111 0.8683 0.0
H1047 H 0.91866 0.10285 0.864 0.0
H1048 H 0.85552 0.11417 0.9364 0.0
H1049 H 0.84876 0.10222 0.89834 0.0
H1050 H 0.92217 0.05078 0.89356 0.0
H1051 H 0.9288 0.06227 0.93201 0.0
C1052 C 0.85643 0.07137 0.83713 0.0
C1053 C 0.87471 0.091 0.82508 0.0
C1054 C 0.86017 0.06437 0.85906 0.0
C1055 C 0.88248 0.07607 0.86917 0.0
C1056 C 0.90139 0.09313 0.85669 0.0
C1057 C 0.89746 0.10083 0.83497 0.0
C1058 C 0.86998 0.0994 0.92734 0.0
C1059 C 0.89275 0.08937 0.93712 0.0
C1060 C 0.86604 0.09232 0.90556 0.0
C1061 C 0.88495 0.07569 0.89292 0.0
C1062 C 0.90728 0.06373 0.90292 0.0
C1063 C 0.91103 0.07011 0.9249 0.0
H1064 H 0.42816 0.06678 0.43414 0.0
H1065 H 0.35512 0.11982 0.43732 0.0
H1066 H 0.4223 0.05528 0.39561 0.0
H1067 H 0.34913 0.10784 0.39917 0.0
H1068 H 0.34019 0.06786 0.33081 0.0
H1069 H 0.34595 0.05618 0.36933 0.0
H1070 H 0.41965 0.10699 0.36576 0.0
H1071 H 0.41376 0.11915 0.32761 0.0
C1072 C 0.41061 0.07492 0.42675 0.0
C1073 C 0.39218 0.09445 0.43868 0.0
C1074 C 0.4073 0.06852 0.40471 0.0
C1075 C 0.38526 0.08073 0.39436 0.0
C1076 C 0.36619 0.09774 0.40668 0.0
C1077 C 0.3697 0.10484 0.42851 0.0
C1078 C 0.35782 0.07556 0.33819 0.0
C1079 C 0.37644 0.09467 0.32626 0.0
C1080 C 0.36109 0.06907 0.36022 0.0
C1081 C 0.38324 0.08075 0.37057 0.0
C1082 C 0.40248 0.09731 0.35826 0.0
C1083 C 0.39903 0.1045 0.33642 0.0
H1084 H 0.92885 0.18494 0.33098 0.0
H1085 H 0.8546 0.1369 0.32551 0.0
H1086 H 0.92197 0.19582 0.36945 0.0
H1087 H 0.84758 0.1483 0.3636 0.0
H1088 H 0.83787 0.18505 0.43247 0.0
H1089 H 0.84493 0.19847 0.39427 0.0
H1090 H 0.91709 0.14264 0.39831 0.0
H1091 H 0.90989 0.12877 0.4361 0.0
C1092 C 0.91081 0.17795 0.33785 0.0
C1093 C 0.8923 0.1599 0.32533 0.0
C1094 C 0.90692 0.18395 0.35985 0.0
C1095 C 0.88425 0.17279 0.36956 0.0
C1096 C 0.86513 0.15755 0.35661 0.0
C1097 C 0.8692 0.15083 0.33481 0.0
C1098 C 0.85545 0.17655 0.42526 0.0
C1099 C 0.87323 0.15558 0.43719 0.0
C1100 C 0.85946 0.18408 0.40342 0.0
C1101 C 0.88157 0.17158 0.39328 0.0
C1102 C 0.9 0.15302 0.40565 0.0
C1103 C 0.89578 0.1448 0.42727 0.0
H1104 H 0.6633 0.86284 0.18833 0.0
H1105 H 0.58887 0.81501 0.18415 0.0
H1106 H 0.66967 0.85032 0.15027 0.0
H1107 H 0.59511 0.80298 0.14571 0.0
H1108 H 0.67846 0.81084 0.08179 0.0
H1109 H 0.67185 0.79902 0.12021 0.0
H1110 H 0.59967 0.85477 0.11612 0.0
H1111 H 0.60642 0.86705 0.0781 0.0
C1112 C 0.64849 0.84879 0.17932 0.0
C1113 C 0.62554 0.84008 0.18916 0.0
C1114 C 0.6522 0.8414 0.15754 0.0
C1115 C 0.63287 0.82581 0.14496 0.0
C1116 C 0.61033 0.81511 0.15502 0.0
C1117 C 0.60679 0.82179 0.17701 0.0
C1118 C 0.66096 0.81965 0.08904 0.0
C1119 C 0.64305 0.84014 0.07702 0.0
C1120 C 0.65721 0.81304 0.11101 0.0
C1121 C 0.63524 0.82602 0.12119 0.0
C1122 C 0.61666 0.84405 0.10875 0.0
C1123 C 0.62062 0.85134 0.08699 0.0
H1124 H 0.10453 0.87887 0.18621 0.0
H1125 H 0.17731 0.93269 0.18227 0.0
H1126 H 0.09793 0.89085 0.14813 0.0
H1127 H 0.17085 0.94416 0.1438 0.0
H1128 H 0.1614 0.87988 0.07591 0.0
H1129 H 0.16788 0.89222 0.11398 0.0
H1130 H 0.09417 0.94271 0.11833 0.0
H1131 H 0.08783 0.93088 0.07989 0.0
C1132 C 0.11893 0.89401 0.17725 0.0
C1133 C 0.14151 0.90464 0.18717 0.0
C1134 C 0.11507 0.90111 0.15545 0.0
C1135 C 0.13389 0.91834 0.14294 0.0
C1136 C 0.15603 0.93076 0.15306 0.0
C1137 C 0.15969 0.92437 0.17506 0.0
C1138 C 0.1468 0.89452 0.08487 0.0
C1139 C 0.12405 0.90421 0.07496 0.0
C1140 C 0.15058 0.90181 0.10666 0.0
C1141 C 0.13151 0.91831 0.11918 0.0
C1142 C 0.10918 0.92987 0.10907 0.0
C1143 C 0.10559 0.92329 0.08708 0.0
H1144 H 0.66142 0.8778 0.57814 0.0
H1145 H 0.58816 0.93006 0.58141 0.0
H1146 H 0.66733 0.88952 0.61633 0.0
H1147 H 0.59393 0.94128 0.61997 0.0
H1148 H 0.60282 0.87727 0.68794 0.0
H1149 H 0.59685 0.88941 0.64979 0.0
H1150 H 0.67026 0.94124 0.64624 0.0
H1151 H 0.67609 0.9296 0.68476 0.0
C1152 C 0.64677 0.89254 0.58698 0.0
C1153 C 0.62426 0.9028 0.57682 0.0
C1154 C 0.65023 0.89949 0.60884 0.0
C1155 C 0.63108 0.91622 0.62119 0.0
C1156 C 0.609 0.92826 0.61085 0.0
C1157 C 0.60573 0.92202 0.58879 0.0
C1158 C 0.61745 0.89216 0.67913 0.0
C1159 C 0.63998 0.9023 0.6893 0.0
C1160 C 0.61397 0.89933 0.6573 0.0
C1161 C 0.63311 0.91615 0.64498 0.0
C1162 C 0.6552 0.92814 0.65534 0.0
C1163 C 0.65849 0.92168 0.67738 0.0
H1164 H 0.10439 0.86745 0.57601 0.0
H1165 H 0.17825 0.8175 0.58007 0.0
H1166 H 0.09801 0.85528 0.61411 0.0
H1167 H 0.17201 0.80588 0.61855 0.0
H1168 H 0.08887 0.81521 0.68251 0.0
H1169 H 0.09538 0.80348 0.64407 0.0
H1170 H 0.16795 0.85798 0.64823 0.0
H1171 H 0.16129 0.87024 0.68629 0.0
C1172 C 0.11907 0.85305 0.58499 0.0
C1173 C 0.14187 0.84359 0.5751 0.0
C1174 C 0.11535 0.84587 0.6068 0.0
C1175 C 0.13452 0.82974 0.61936 0.0
C1176 C 0.15691 0.81841 0.60926 0.0
C1177 C 0.16044 0.82487 0.58725 0.0
C1178 C 0.10644 0.82372 0.67528 0.0
C1179 C 0.1245 0.84386 0.68734 0.0
C1180 C 0.11012 0.81719 0.65329 0.0
C1181 C 0.13217 0.82988 0.64313 0.0
C1182 C 0.15089 0.84751 0.65559 0.0
C1183 C 0.147 0.85475 0.67737 0.0
H1184 H 0.35524 0.63229 0.32732 0.0
H1185 H 0.42854 0.68411 0.33185 0.0
H1186 H 0.34848 0.64399 0.36541 0.0
H1187 H 0.42193 0.69529 0.37033 0.0
H1188 H 0.33839 0.68326 0.43386 0.0
H1189 H 0.345 0.69524 0.39546 0.0
H1190 H 0.41827 0.64327 0.39996 0.0
H1191 H 0.41153 0.63079 0.43798 0.0
C1192 C 0.36971 0.64699 0.33642 0.0
C1193 C 0.39247 0.65713 0.32665 0.0
C1194 C 0.36577 0.65391 0.35822 0.0
C1195 C 0.38468 0.67045 0.37091 0.0
C1196 C 0.40702 0.68242 0.36094 0.0
C1197 C 0.41077 0.67623 0.33893 0.0
C1198 C 0.35611 0.67535 0.42671 0.0
C1199 C 0.37437 0.65585 0.43886 0.0
C1200 C 0.35986 0.68202 0.40474 0.0
C1201 C 0.38215 0.67013 0.39468 0.0
C1202 C 0.40102 0.65313 0.40724 0.0
C1203 C 0.39708 0.64575 0.429 0.0
H1204 H 0.92764 0.55912 0.4336 0.0
H1205 H 0.85679 0.61908 0.43645 0.0
H1206 H 0.92029 0.5444 0.39558 0.0
H1207 H 0.84935 0.60415 0.39886 0.0
H1208 H 0.83651 0.56366 0.3319 0.0
H1209 H 0.84298 0.55228 0.37038 0.0
H1210 H 0.91924 0.59181 0.36435 0.0
H1211 H 0.91266 0.60351 0.32626 0.0
C1212 C 0.91025 0.56822 0.42627 0.0
C1213 C 0.89292 0.5906 0.43792 0.0
C1214 C 0.90607 0.55994 0.40452 0.0
C1215 C 0.88424 0.57317 0.39419 0.0
C1216 C 0.86621 0.59315 0.40633 0.0
C1217 C 0.87058 0.60201 0.42785 0.0
C1218 C 0.85484 0.56861 0.33873 0.0
C1219 C 0.87405 0.58461 0.32617 0.0
C1220 C 0.85851 0.56239 0.36074 0.0
C1221 C 0.8816 0.57136 0.37044 0.0
C1222 C 0.90133 0.58425 0.35741 0.0
C1223 C 0.89753 0.59113 0.33559 0.0
H1224 H 0.4094 0.60959 0.82711 0.0
H1225 H 0.33452 0.56412 0.83274 0.0
H1226 H 0.41636 0.59808 0.8652 0.0
H1227 H 0.34134 0.55316 0.87122 0.0
H1228 H 0.35472 0.61909 0.93805 0.0
H1229 H 0.34712 0.6058 0.90024 0.0
H1230 H 0.4185 0.54772 0.89575 0.0
H1231 H 0.42597 0.56054 0.93396 0.0
C1232 C 0.39462 0.59623 0.83645 0.0
C1233 C 0.37139 0.58787 0.82701 0.0
C1234 C 0.39866 0.58944 0.85825 0.0
C1235 C 0.37939 0.57485 0.87125 0.0
C1236 C 0.35653 0.56451 0.86159 0.0
C1237 C 0.35265 0.57055 0.83958 0.0
C1238 C 0.36856 0.60267 0.92912 0.0
C1239 C 0.39103 0.59109 0.93892 0.0
C1240 C 0.36411 0.59481 0.90749 0.0
C1241 C 0.38222 0.57579 0.89498 0.0
C1242 C 0.40422 0.56249 0.905 0.0
C1243 C 0.40846 0.56967 0.92686 0.0
H1244 H 0.85361 0.62709 0.82672 0.0
H1245 H 0.9248 0.68607 0.83017 0.0
H1246 H 0.84636 0.64063 0.86451 0.0
H1247 H 0.91763 0.69931 0.86836 0.0
H1248 H 0.90991 0.63741 0.93694 0.0
H1249 H 0.91633 0.64999 0.89892 0.0
H1250 H 0.84054 0.692 0.89366 0.0
H1251 H 0.83426 0.67981 0.9321 0.0
C1252 C 0.86751 0.64366 0.8355 0.0
C1253 C 0.88989 0.65521 0.82553 0.0
C1254 C 0.86325 0.65171 0.85714 0.0
C1255 C 0.88144 0.67095 0.86947 0.0
C1256 C 0.9033 0.68434 0.85926 0.0
C1257 C 0.90737 0.67691 0.83741 0.0
C1258 C 0.89485 0.65046 0.9278 0.0
C1259 C 0.87156 0.65752 0.93742 0.0
C1260 C 0.89857 0.65785 0.90602 0.0
C1261 C 0.87892 0.6718 0.89323 0.0
C1262 C 0.85601 0.68112 0.90312 0.0
C1263 C 0.85244 0.6744 0.92511 0.0
H1264 H 0.58747 0.31536 0.6832 0.0
H1265 H 0.66073 0.36718 0.68826 0.0
H1266 H 0.59425 0.30493 0.64468 0.0
H1267 H 0.66768 0.35614 0.65012 0.0
H1268 H 0.67787 0.31657 0.58153 0.0
H1269 H 0.67101 0.30435 0.61989 0.0
H1270 H 0.59836 0.3584 0.61541 0.0
H1271 H 0.60538 0.37122 0.57745 0.0
C1272 C 0.60526 0.32341 0.67622 0.0
C1273 C 0.62351 0.34229 0.68867 0.0
C1274 C 0.60911 0.31763 0.65419 0.0
C1275 C 0.63149 0.32977 0.64438 0.0
C1276 C 0.65035 0.34611 0.65721 0.0
C1277 C 0.64631 0.35265 0.67904 0.0
C1278 C 0.66023 0.32493 0.58868 0.0
C1279 C 0.64223 0.34508 0.57657 0.0
C1280 C 0.65634 0.3181 0.61061 0.0
C1281 C 0.63414 0.33045 0.62065 0.0
C1282 C 0.61552 0.34818 0.60813 0.0
C1283 C 0.61962 0.35575 0.58642 0.0
H1284 H 0.1052 0.38208 0.68801 0.0
H1285 H 0.17908 0.43165 0.68297 0.0
H1286 H 0.09825 0.39381 0.64995 0.0
H1287 H 0.17228 0.44282 0.6445 0.0
H1288 H 0.08824 0.43347 0.58147 0.0
H1289 H 0.09532 0.44541 0.61982 0.0
H1290 H 0.16759 0.39017 0.6151 0.0
H1291 H 0.16036 0.37769 0.57714 0.0
C1292 C 0.11976 0.3963 0.67881 0.0
C1293 C 0.14273 0.4058 0.68841 0.0
C1294 C 0.11571 0.40324 0.65702 0.0
C1295 C 0.13473 0.41913 0.6442 0.0
C1296 C 0.1573 0.43047 0.65401 0.0
C1297 C 0.16116 0.42428 0.676 0.0
C1298 C 0.10585 0.42478 0.58856 0.0
C1299 C 0.12367 0.40439 0.57638 0.0
C1300 C 0.10986 0.43146 0.61049 0.0
C1301 C 0.13201 0.41869 0.62047 0.0
C1302 C 0.15047 0.40072 0.60788 0.0
C1303 C 0.14624 0.39333 0.58616 0.0
H1304 H 0.68029 0.43512 0.18253 0.0
H1305 H 0.60597 0.38743 0.18804 0.0
H1306 H 0.67363 0.44509 0.14395 0.0
H1307 H 0.59915 0.39793 0.14984 0.0
H1308 H 0.5897 0.43297 0.0807 0.0
H1309 H 0.5966 0.44712 0.11884 0.0
H1310 H 0.66891 0.3917 0.11531 0.0
H1311 H 0.66188 0.37711 0.07756 0.0
C1312 C 0.66228 0.42804 0.17564 0.0
C1313 C 0.64368 0.41038 0.18822 0.0
C1314 C 0.65851 0.43349 0.15357 0.0
C1315 C 0.63588 0.42217 0.14384 0.0
C1316 C 0.61668 0.40731 0.15683 0.0
C1317 C 0.62063 0.40113 0.1787 0.0
C1318 C 0.60728 0.42472 0.08799 0.0
C1319 C 0.62516 0.40366 0.07621 0.0
C1320 C 0.6112 0.43266 0.10981 0.0
C1321 C 0.6333 0.42048 0.12009 0.0
C1322 C 0.65182 0.40184 0.10786 0.0
C1323 C 0.6477 0.39323 0.08626 0.0
H1324 H 0.08869 0.31355 0.18393 0.0
H1325 H 0.16252 0.36383 0.18729 0.0
H1326 H 0.09462 0.30133 0.14547 0.0
H1327 H 0.16856 0.35123 0.14922 0.0
H1328 H 0.17735 0.31241 0.08086 0.0
H1329 H 0.17131 0.30042 0.11931 0.0
H1330 H 0.09789 0.35212 0.11557 0.0
H1331 H 0.10404 0.36449 0.07749 0.0
C1332 C 0.10642 0.32088 0.1766 0.0
C1333 C 0.12507 0.3399 0.18854 0.0
C1334 C 0.10978 0.31409 0.1546 0.0
C1335 C 0.13204 0.32544 0.14429 0.0
C1336 C 0.15131 0.34179 0.15666 0.0
C1337 C 0.14778 0.34925 0.17846 0.0
C1338 C 0.15971 0.32023 0.08818 0.0
C1339 C 0.14126 0.33967 0.07623 0.0
C1340 C 0.15629 0.31356 0.11019 0.0
C1341 C 0.13414 0.32544 0.12049 0.0
C1342 C 0.11505 0.34228 0.10812 0.0
C1343 C 0.11865 0.34961 0.08632 0.0
H1344 H 0.5445 0.89599 1.00401 0.0
H1345 H 0.58335 0.0023 0.02132 0.0
H1346 H 0.5055 0.93263 1.0013 0.0
H1347 H 0.54499 0.03918 0.01747 0.0
H1348 H 0.46758 0.08713 0.02994 0.0
H1349 H 0.50646 0.05183 0.0326 0.0
H1350 H 0.48451 0.97846 0.97935 0.0
H1351 H 0.4446 0.01269 0.97745 0.0
C1352 C 0.54463 0.92711 0.00742 0.0
C1353 C 0.5669 0.94616 0.01314 0.0
C1354 C 0.52239 0.94826 1.00553 0.0
C1355 C 0.52207 0.98902 0.00894 0.0
C1356 C 0.54433 0.00779 0.01506 0.0
C1357 C 0.5664 0.98657 0.01734 0.0
C1358 C 0.47105 0.06383 0.01855 0.0
C1359 C 0.45278 0.0526 1.00356 0.0
C1360 C 0.49353 0.04355 0.02006 0.0
C1361 C 0.49862 0.01191 1.00636 0.0
C1362 C 0.48096 0.00202 0.99054 0.0
C1363 C 0.45821 0.02203 0.98923 0.0
H1364 H 0.79445 0.14543 0.00928 0.0
H1365 H 0.83314 0.25297 0.99418 0.0
H1366 H 0.75537 0.18169 0.01268 0.0
H1367 H 0.79472 0.28943 0.99876 0.0
H1368 H 0.71729 0.33756 0.98663 0.0
H1369 H 0.75635 0.30293 0.98374 0.0
H1370 H 0.73398 0.22587 0.03528 0.0
H1371 H 0.69383 0.25942 0.03733 0.0
C1372 C 0.79451 0.17676 1.0065 0.0
C1373 C 0.81673 0.19627 1.00115 0.0
C1374 C 0.77223 0.19767 0.00879 0.0
C1375 C 0.77185 0.23863 1.00621 0.0
C1376 C 0.7941 0.2579 1.00052 0.0
C1377 C 0.81619 0.23693 0.9978 0.0
C1378 C 0.72069 0.31355 0.99759 0.0
C1379 C 0.70221 0.30106 0.01209 0.0
C1380 C 0.74329 0.29367 0.99597 0.0
C1381 C 0.74833 0.2612 0.00909 0.0
C1382 C 0.73048 0.25012 0.02451 0.0
C1383 C 0.70759 0.26973 0.02593 0.0
H1384 H 0.44741 0.23389 0.28642 0.0
H1385 H 0.47029 0.15575 0.23554 0.0
H1386 H 0.48755 0.26731 0.28413 0.0
H1387 H 0.50947 0.19025 0.23247 0.0
H1388 H 0.58653 0.24128 0.24316 0.0
H1389 H 0.54813 0.20428 0.2473 0.0
H1390 H 0.50821 0.31152 0.26107 0.0
H1391 H 0.54712 0.34821 0.25804 0.0
C1392 C 0.46105 0.22356 0.27492 0.0
C1393 C 0.45549 0.1923 0.26109 0.0
C1394 C 0.48394 0.24308 0.27338 0.0
C1395 C 0.50162 0.23202 0.25782 0.0
C1396 C 0.49648 0.19952 0.24475 0.0
C1397 C 0.47384 0.17972 0.24649 0.0
C1398 C 0.56945 0.25705 0.24662 0.0
C1399 C 0.56976 0.29766 0.25014 0.0
C1400 C 0.54739 0.23579 0.24911 0.0
C1401 C 0.52503 0.25478 0.25476 0.0
C1402 C 0.52518 0.29574 0.25729 0.0
C1403 C 0.54736 0.3169 0.25521 0.0
H1404 H 0.71885 0.90596 0.27907 0.0
H1405 H 0.69584 0.98102 0.22686 0.0
H1406 H 0.75778 0.94119 0.28178 0.0
H1407 H 0.73578 0.01513 0.22879 0.0
H1408 H 0.79499 0.09808 0.254 0.0
H1409 H 0.75624 0.06085 0.25111 0.0
H1410 H 0.79637 0.95473 0.26688 0.0
H1411 H 0.83452 0.99224 0.27092 0.0
C1412 C 0.72233 0.92937 0.26775 0.0
C1413 C 0.70401 0.9409 0.25288 0.0
C1414 C 0.74484 0.9496 0.26928 0.0
C1415 C 0.74988 0.98145 0.25572 0.0
C1416 C 0.73223 0.99144 0.23991 0.0
C1417 C 0.70947 0.9715 0.23857 0.0
C1418 C 0.7953 0.06692 0.25729 0.0
C1419 C 0.81767 0.04816 0.26294 0.0
C1420 C 0.77322 0.04544 0.2553 0.0
C1421 C 0.77317 0.00463 0.2585 0.0
C1422 C 0.79553 0.98614 0.2646 0.0
C1423 C 0.81745 0.00771 0.26701 0.0
H1424 H 0.19342 0.76381 0.03661 0.0
H1425 H 0.21658 0.83797 0.98406 0.0
H1426 H 0.23355 0.73012 0.03516 0.0
H1427 H 0.25564 0.80317 0.98182 0.0
H1428 H 0.33265 0.75493 0.99392 0.0
H1429 H 0.29405 0.79134 0.99737 0.0
H1430 H 0.25493 0.68438 0.01342 0.0
H1431 H 0.29416 0.64826 0.01112 0.0
C1432 C 0.2071 0.77319 0.02491 0.0
C1433 C 0.20167 0.8035 0.01042 0.0
C1434 C 0.22997 0.75351 0.02386 0.0
C1435 C 0.24774 0.76348 0.00815 0.0
C1436 C 0.24263 0.79486 0.99429 0.0
C1437 C 0.22004 0.81484 0.99555 0.0
C1438 C 0.31572 0.73903 0.99778 0.0
C1439 C 0.31636 0.69868 1.00209 0.0
C1440 C 0.29353 0.75996 0.99984 0.0
C1441 C 0.27131 0.74092 1.00582 0.0
C1442 C 0.27179 0.7002 0.0093 0.0
C1443 C 0.29415 0.67935 0.00766 0.0
H1444 H 0.57038 0.76041 0.72915 0.0
H1445 H 0.54708 0.83874 0.77981 0.0
H1446 H 0.53024 0.72689 0.7313 0.0
H1447 H 0.50794 0.80416 0.78274 0.0
H1448 H 0.43099 0.75373 0.77178 0.0
H1449 H 0.46946 0.79039 0.76759 0.0
H1450 H 0.50916 0.68278 0.75423 0.0
H1451 H 0.47013 0.64633 0.75731 0.0
C1452 C 0.55665 0.77077 0.74057 0.0
C1453 C 0.56209 0.80213 0.75438 0.0
C1454 C 0.53377 0.75118 0.74203 0.0
C1455 C 0.51596 0.76231 0.75747 0.0
C1456 C 0.52101 0.79485 0.77054 0.0
C1457 C 0.54364 0.81469 0.76888 0.0
C1458 C 0.44803 0.73777 0.76838 0.0
C1459 C 0.44761 0.6971 0.76504 0.0
C1460 C 0.47013 0.75885 0.76588 0.0
C1461 C 0.49248 0.73967 0.76039 0.0
C1462 C 0.49221 0.69869 0.75793 0.0
C1463 C 0.46996 0.67767 0.76003 0.0
H1464 H 0.32296 0.01244 0.78784 0.0
H1465 H 0.29896 0.09295 0.73847 0.0
H1466 H 0.28268 0.97923 0.78578 0.0
H1467 H 0.25983 0.05865 0.73548 0.0
H1468 H 0.18314 0.00857 0.7456 0.0
H1469 H 0.22167 0.04466 0.75044 0.0
H1470 H 0.26082 0.9362 0.76302 0.0
H1471 H 0.22159 0.90034 0.75946 0.0
C1472 C 0.30906 0.02332 0.77674 0.0
C1473 C 0.31432 0.05522 0.76325 0.0
C1474 C 0.2861 0.00392 0.7753 0.0
C1475 C 0.26807 0.01577 0.7602 0.0
C1476 C 0.27301 0.04878 0.74746 0.0
C1477 C 0.29567 0.06846 0.74913 0.0
C1478 C 0.20007 0.99233 0.74897 0.0
C1479 C 0.19945 0.95159 0.7519 0.0
C1480 C 0.22223 0.01307 0.75184 0.0
C1481 C 0.24446 0.99347 0.75722 0.0
C1482 C 0.24398 0.95242 0.75938 0.0
C1483 C 0.22163 0.93175 0.75698 0.0
H1484 H 0.54452 0.40114 0.50405 0.0
H1485 H 0.58297 0.50821 0.52058 0.0
H1486 H 0.50531 0.43721 0.50141 0.0
H1487 H 0.5444 0.54455 0.51675 0.0
H1488 H 0.46691 0.59152 0.52963 0.0
H1489 H 0.50599 0.55685 0.53212 0.0
H1490 H 0.48391 0.48237 0.47936 0.0
H1491 H 0.44375 0.51594 0.47767 0.0
C1492 C 0.54451 0.43232 0.5073 0.0
C1493 C 0.5667 0.45177 0.51278 0.0
C1494 C 0.52215 0.45313 0.50545 0.0
C1495 C 0.52166 0.49394 0.50864 0.0
C1496 C 0.54388 0.51312 0.51452 0.0
C1497 C 0.56605 0.49222 0.5168 0.0
C1498 C 0.47038 0.5681 0.51831 0.0
C1499 C 0.452 0.55632 0.50355 0.0
C1500 C 0.49298 0.5482 0.51971 0.0
C1501 C 0.4981 0.51644 0.50611 0.0
C1502 C 0.48033 0.50605 0.49048 0.0
C1503 C 0.45744 0.52566 0.48928 0.0
H1504 H 0.83402 0.75717 0.49243 0.0
H1505 H 0.79546 0.65013 0.50876 0.0
H1506 H 0.79548 0.79365 0.49645 0.0
H1507 H 0.75633 0.68632 0.51166 0.0
H1508 H 0.69518 0.7647 0.5364 0.0
H1509 H 0.73525 0.73105 0.53409 0.0
H1510 H 0.75678 0.80669 0.48167 0.0
H1511 H 0.71771 0.8414 0.48476 0.0
C1512 C 0.81709 0.74122 0.49621 0.0
C1513 C 0.81772 0.70073 0.50013 0.0
C1514 C 0.79493 0.76219 0.4986 0.0
C1515 C 0.77271 0.74308 0.50456 0.0
C1516 C 0.77317 0.70222 0.50759 0.0
C1517 C 0.79549 0.68134 0.5056 0.0
C1518 C 0.70872 0.77465 0.52471 0.0
C1519 C 0.70311 0.80568 0.51074 0.0
C1520 C 0.73157 0.75499 0.52316 0.0
C1521 C 0.74918 0.76566 0.50744 0.0
C1522 C 0.7439 0.79777 0.49412 0.0
C1523 C 0.72131 0.81771 0.49588 0.0
H1524 H 0.82178 0.51448 0.78746 0.0
H1525 H 0.7984 0.58737 0.73445 0.0
H1526 H 0.78176 0.48037 0.78618 0.0
H1527 H 0.75945 0.55217 0.7324 0.0
H1528 H 0.6826 0.50394 0.7447 0.0
H1529 H 0.72111 0.54057 0.74812 0.0
H1530 H 0.76034 0.43405 0.76475 0.0
H1531 H 0.72117 0.39768 0.76247 0.0
C1532 C 0.80807 0.52348 0.77569 0.0
C1533 C 0.81339 0.55359 0.76104 0.0
C1534 C 0.78526 0.50357 0.77474 0.0
C1535 C 0.76745 0.51309 0.75898 0.0
C1536 C 0.77249 0.54422 0.74493 0.0
C1537 C 0.79501 0.56443 0.74608 0.0
C1538 C 0.69952 0.48816 0.7487 0.0
C1539 C 0.69892 0.44785 0.75314 0.0
C1540 C 0.72167 0.50923 0.75073 0.0
C1541 C 0.74391 0.49038 0.75681 0.0
C1542 C 0.74347 0.44971 0.76051 0.0
C1543 C 0.72114 0.42872 0.75889 0.0
H1544 H 0.32212 0.23331 0.47761 0.0
H1545 H 0.29895 0.15891 0.53005 0.0
H1546 H 0.28204 0.26715 0.47918 0.0
H1547 H 0.25992 0.19382 0.53239 0.0
H1548 H 0.18294 0.24232 0.52052 0.0
H1549 H 0.2215 0.20587 0.51692 0.0
H1550 H 0.26064 0.31283 0.50093 0.0
H1551 H 0.22144 0.34902 0.50337 0.0
C1552 C 0.30844 0.22391 0.48931 0.0
C1553 C 0.31385 0.19346 0.50373 0.0
C1554 C 0.2856 0.24368 0.49043 0.0
C1555 C 0.26783 0.23367 0.50613 0.0
C1556 C 0.27293 0.20218 0.51993 0.0
C1557 C 0.29549 0.18212 0.5186 0.0
C1558 C 0.19986 0.25823 0.51663 0.0
C1559 C 0.19922 0.29861 0.5124 0.0
C1560 C 0.22203 0.23726 0.51449 0.0
C1561 C 0.24426 0.25628 0.50851 0.0
C1562 C 0.24378 0.29702 0.50506 0.0
C1563 C 0.22143 0.31791 0.50679 0.0
H1564 H 0.19412 0.48588 0.22757 0.0
H1565 H 0.21892 0.40476 0.27635 0.0
H1566 H 0.23427 0.51948 0.22953 0.0
H1567 H 0.25799 0.43939 0.27921 0.0
H1568 H 0.33442 0.49095 0.26862 0.0
H1569 H 0.29603 0.45429 0.26398 0.0
H1570 H 0.25598 0.56236 0.25257 0.0
H1571 H 0.29498 0.59881 0.256 0.0
C1572 C 0.20817 0.47495 0.23852 0.0
C1573 C 0.20316 0.44276 0.25187 0.0
C1574 C 0.23107 0.49457 0.2399 0.0
C1575 C 0.2493 0.48264 0.25481 0.0
C1576 C 0.24463 0.44934 0.26739 0.0
C1577 C 0.22201 0.42947 0.26579 0.0
C1578 C 0.31732 0.50696 0.26555 0.0
C1579 C 0.31762 0.54778 0.26289 0.0
C1580 C 0.29525 0.4859 0.26279 0.0
C1581 C 0.2728 0.50524 0.25776 0.0
C1582 C 0.27298 0.54634 0.25591 0.0
C1583 C 0.29521 0.56734 0.25823 0.0
H1584 H 0.04934 0.90896 0.48424 0.0
H1585 H 0.0723 0.98495 0.53609 0.0
H1586 H 0.01028 0.94367 0.48153 0.0
H1587 H 0.03216 0.01856 0.53418 0.0
H1588 H 0.93324 0.99245 0.49268 0.0
H1589 H 0.9718 0.95616 0.49669 0.0
H1590 H 0.01079 0.06358 0.51203 0.0
H1591 H 0.97157 0.09963 0.50919 0.0
C1592 C 0.04583 0.9325 0.49549 0.0
C1593 C 0.06416 0.94435 0.51029 0.0
C1594 C 0.02324 0.95242 0.49395 0.0
C1595 C 0.01807 0.9843 0.50746 0.0
C1596 C 0.03578 0.99479 0.52312 0.0
C1597 C 0.05865 0.97515 0.52445 0.0
C1598 C 0.95013 0.00848 0.49649 0.0
C1599 C 0.94944 0.04896 0.50044 0.0
C1600 C 0.97231 0.98761 0.49887 0.0
C1601 C 0.9945 0.00681 0.50481 0.0
C1602 C 0.99397 0.04764 0.50794 0.0
C1603 C 0.97161 0.06844 0.50598 0.0
H1604 H 0.04454 0.3478 0.75986 0.0
H1605 H 0.08389 0.24096 0.74462 0.0
H1606 H 1.00557 0.31107 0.76266 0.0
H1607 H 0.04552 0.204 0.74856 0.0
H1608 H 0.96819 0.15558 0.73541 0.0
H1609 H 1.00725 0.1905 0.73304 0.0
H1610 H 0.98423 0.26622 0.78495 0.0
H1611 H 0.94418 0.23233 0.78653 0.0
C1612 C 0.04478 0.31652 0.75693 0.0
C1613 C 0.06716 0.29735 0.75174 0.0
C1614 C 0.02256 0.29534 0.75887 0.0
C1615 C 0.02237 0.25442 0.75606 0.0
C1616 C 0.04477 0.23549 0.7505 0.0
C1617 C 0.06683 0.25674 0.74815 0.0
C1618 C 0.97146 0.17933 0.74657 0.0
C1619 C 0.95284 0.19134 0.76105 0.0
C1620 C 0.99405 0.19938 0.74524 0.0
C1621 C 0.99889 0.23159 0.75861 0.0
C1622 C 0.98088 0.2422 0.77399 0.0
C1623 C 0.95804 0.2224 0.77513 0.0
H1624 H 0.94324 0.73483 0.28957 0.0
H1625 H 0.96931 0.65053 0.24294 0.0
H1626 H 0.9831 0.76915 0.28717 0.0
H1627 H 1.00805 0.68585 0.23955 0.0
H1628 H 0.08351 0.74063 0.2483 0.0
H1629 H 0.04573 0.70325 0.25427 0.0
H1630 H 1.00439 0.81089 0.26333 0.0
H1631 H 0.04292 0.84825 0.25868 0.0
C1632 C 0.95753 0.72332 0.27903 0.0
C1633 C 0.95293 0.69011 0.26633 0.0
C1634 C 0.98025 0.74336 0.27738 0.0
C1635 C 0.9987 0.7308 0.26284 0.0
C1636 C 0.99451 0.69636 0.25106 0.0
C1637 C 0.97208 0.67608 0.25296 0.0
C1638 C 0.06625 0.75638 0.25114 0.0
C1639 C 0.06605 0.7974 0.25273 0.0
C1640 C 0.04453 0.7349 0.25466 0.0
C1641 C 0.02189 0.75392 0.25936 0.0
C1642 C 0.02156 0.79515 0.26024 0.0
C1643 C 0.0435 0.81664 0.2572 0.0
H1644 H 0.93215 0.48752 0.99077 0.0
H1645 H 0.97234 0.59521 1.0022 0.0
H1646 H 0.97021 0.45039 0.99617 0.0
H1647 H 0.01099 0.55821 1.00643 0.0
H1648 H 0.07101 0.48241 0.03464 0.0
H1649 H 0.03117 0.51632 0.03104 0.0
H1650 H 0.00874 0.43373 0.98215 0.0
H1651 H 0.04755 0.39883 0.9866 0.0
C1652 C 0.94935 0.50337 0.99368 0.0
C1653 C 0.94933 0.5443 0.99591 0.0
C1654 C 0.97123 0.48203 0.9969 0.0
C1655 C 0.99372 0.50119 1.00199 0.0
C1656 C 0.9939 0.54236 1.00313 0.0
C1657 C 0.97188 0.56367 1.00033 0.0
C1658 C 0.0573 0.47097 0.02352 0.0
C1659 C 0.06263 0.43806 0.01081 0.0
C1660 C 0.0346 0.49078 0.02119 0.0
C1661 C 0.01689 0.47831 1.00596 0.0
C1662 C 0.02176 0.44417 0.99413 0.0
C1663 C 0.04419 0.42412 0.99667 0.0
H1664 H 0.33944 0.05318 0.17882 0.0
H1665 H 0.31479 0.17114 0.19113 0.0
H1666 H 0.32778 0.06024 0.14128 0.0
H1667 H 0.30206 0.1781 0.15379 0.0
H1668 H 0.33836 0.19458 0.08566 0.0
H1669 H 0.3279 0.18779 0.12345 0.0
H1670 H 0.30087 0.07038 0.11164 0.0
H1671 H 0.31237 0.07707 0.074 0.0
C1672 C 0.33023 0.07982 0.17369 0.0
C1673 C 0.32795 0.11156 0.18775 0.0
C1674 C 0.32356 0.08408 0.15211 0.0
C1675 C 0.31438 0.12015 0.14431 0.0
C1676 C 0.30959 0.1503 0.15908 0.0
C1677 C 0.31654 0.14615 0.18053 0.0
C1678 C 0.32906 0.16814 0.09101 0.0
C1679 C 0.32609 0.13643 0.07702 0.0
C1680 C 0.32311 0.16402 0.11274 0.0
C1681 C 0.31397 0.12811 0.12079 0.0
C1682 C 0.3084 0.09806 0.10616 0.0
C1683 C 0.31463 0.10206 0.08453 0.0
H1684 H 0.95231 0.08017 0.19088 0.0
H1685 H 0.92627 0.1966 0.17646 0.0
H1686 H 0.96407 0.07067 0.15347 0.0
H1687 H 0.93713 0.18703 0.13887 0.0
H1688 H 0.92644 0.04919 0.08612 0.0
H1689 H 0.93711 0.05877 0.12374 0.0
H1690 H 0.96426 0.17507 0.10924 0.0
H1691 H 0.95271 0.16554 0.07177 0.0
C1692 C 0.95007 0.10432 0.17977 0.0
C1693 C 0.93857 0.1392 0.18645 0.0
C1694 C 0.95648 0.09871 0.1583 0.0
C1695 C 0.95109 0.12768 0.14299 0.0
C1696 C 0.94178 0.16409 0.15016 0.0
C1697 C 0.9356 0.1698 0.17175 0.0
C1698 C 0.93581 0.07596 0.09086 0.0
C1699 C 0.93892 0.10652 0.07615 0.0
C1700 C 0.94187 0.08168 0.11247 0.0
C1701 C 0.95117 0.11808 0.11967 0.0
C1702 C 0.95669 0.14703 0.10438 0.0
C1703 C 0.95042 0.14139 0.08287 0.0
H1704 H 0.70361 0.82514 0.82366 0.0
H1705 H 0.67691 0.94163 0.83702 0.0
H1706 H 0.71544 0.81697 0.86114 0.0
H1707 H 0.68783 0.93337 0.87467 0.0
H1708 H 0.67675 0.79664 0.92816 0.0
H1709 H 0.68806 0.80545 0.89063 0.0
H1710 H 0.71449 0.92236 0.90469 0.0
H1711 H 0.70228 0.91358 0.94206 0.0
C1712 C 0.70129 0.84963 0.83453 0.0
C1713 C 0.68949 0.88408 0.82755 0.0
C1714 C 0.70773 0.84477 0.85605 0.0
C1715 C 0.70208 0.87407 0.8711 0.0
C1716 C 0.69265 0.91018 0.86359 0.0
C1717 C 0.68645 0.91514 0.84196 0.0
C1718 C 0.68607 0.8234 0.92336 0.0
C1719 C 0.68878 0.85434 0.93788 0.0
C1720 C 0.69253 0.82867 0.9018 0.0
C1721 C 0.70183 0.86499 0.89448 0.0
C1722 C 0.70693 0.89436 0.90964 0.0
C1723 C 0.70027 0.88917 0.93109 0.0
H1724 H 0.06134 0.82827 0.93985 0.0
H1725 H 0.0879 0.94523 0.9275 0.0
H1726 H 0.04959 0.82108 0.90229 0.0
H1727 H 0.07713 0.93795 0.88977 0.0
H1728 H 0.06319 0.92024 0.82227 0.0
H1729 H 0.05076 0.92787 0.85964 0.0
H1730 H 0.07665 0.81029 0.87266 0.0
H1731 H 0.08809 0.80258 0.8351 0.0
C1732 C 0.06367 0.85305 0.92918 0.0
C1733 C 0.07538 0.88738 0.93646 0.0
C1734 C 0.05729 0.84876 0.90761 0.0
C1735 C 0.06292 0.8785 0.89282 0.0
C1736 C 0.0723 0.91442 0.90064 0.0
C1737 C 0.07843 0.91883 0.92232 0.0
C1738 C 0.06505 0.89545 0.833 0.0
C1739 C 0.07646 0.86076 0.82591 0.0
C1740 C 0.05825 0.89998 0.85446 0.0
C1741 C 0.06318 0.8701 0.86935 0.0
C1742 C 0.07235 0.83392 0.86171 0.0
C1743 C 0.07888 0.82928 0.84013 0.0
H1744 H 0.31441 0.66699 0.69217 0.0
H1745 H 0.33907 0.54985 0.67765 0.0
H1746 H 0.30202 0.67651 0.65492 0.0
H1747 H 0.32756 0.55943 0.64019 0.0
H1748 H 0.31103 0.58044 0.57338 0.0
H1749 H 0.29982 0.57179 0.61098 0.0
H1750 H 0.3284 0.68755 0.62473 0.0
H1751 H 0.33874 0.69627 0.587 0.0
C1752 C 0.31625 0.64274 0.68108 0.0
C1753 C 0.32754 0.60762 0.68767 0.0
C1754 C 0.30946 0.64834 0.65969 0.0
C1755 C 0.31422 0.61912 0.64438 0.0
C1756 C 0.32337 0.58256 0.65149 0.0
C1757 C 0.32994 0.57686 0.67299 0.0
C1758 C 0.31367 0.60472 0.58434 0.0
C1759 C 0.32556 0.63912 0.57739 0.0
C1760 C 0.30761 0.59957 0.60592 0.0
C1761 C 0.31371 0.62853 0.62104 0.0
C1762 C 0.32323 0.66462 0.6136 0.0
C1763 C 0.32908 0.66986 0.59192 0.0
H1764 H 0.92736 0.55257 0.58627 0.0
H1765 H 0.9517 0.67034 0.5729 0.0
H1766 H 0.93862 0.56111 0.62384 0.0
H1767 H 0.96392 0.67882 0.61028 0.0
H1768 H 0.95401 0.58035 0.69094 0.0
H1769 H 0.96574 0.57275 0.6534 0.0
H1770 H 0.93744 0.68894 0.64035 0.0
H1771 H 0.92666 0.69663 0.67805 0.0
C1772 C 0.93639 0.57951 0.59121 0.0
C1773 C 0.93874 0.61075 0.57683 0.0
C1774 C 0.94282 0.58461 0.61278 0.0
C1775 C 0.9518 0.62104 0.62025 0.0
C1776 C 0.95659 0.65074 0.60522 0.0
C1777 C 0.9499 0.64574 0.58377 0.0
C1778 C 0.95152 0.60492 0.68016 0.0
C1779 C 0.9396 0.63916 0.68728 0.0
C1780 C 0.95789 0.60039 0.6586 0.0
C1781 C 0.95203 0.62979 0.64367 0.0
C1782 C 0.94244 0.66568 0.65133 0.0
C1783 C 0.93631 0.67032 0.67299 0.0
H1784 H 0.67637 0.44851 0.33703 0.0
H1785 H 0.70344 0.33239 0.32323 0.0
H1786 H 0.68718 0.43972 0.3747 0.0
H1787 H 0.7151 0.32369 0.36072 0.0
H1788 H 0.67665 0.30271 0.42785 0.0
H1789 H 0.68768 0.31183 0.39028 0.0
H1790 H 0.71441 0.42848 0.4045 0.0
H1791 H 0.70255 0.41939 0.44192 0.0
C1792 C 0.6859 0.42197 0.3419 0.0
C1793 C 0.68914 0.39118 0.32735 0.0
C1794 C 0.69206 0.41672 0.36352 0.0
C1795 C 0.70161 0.38059 0.37088 0.0
C1796 C 0.70731 0.3515 0.35573 0.0
C1797 C 0.70095 0.35666 0.33422 0.0
C1798 C 0.68601 0.32946 0.42307 0.0
C1799 C 0.68889 0.36025 0.43767 0.0
C1800 C 0.69228 0.33491 0.40149 0.0
C1801 C 0.70156 0.37128 0.39422 0.0
C1802 C 0.70687 0.40046 0.40943 0.0
C1803 C 0.70041 0.39508 0.4309 0.0
H1804 H 0.08971 0.44847 0.42778 0.0
H1805 H 0.06313 0.33202 0.44144 0.0
H1806 H 0.0788 0.43986 0.39016 0.0
H1807 H 0.05134 0.32345 0.40396 0.0
H1808 H 0.08978 0.30333 0.33673 0.0
H1809 H 0.07849 0.31194 0.37428 0.0
H1810 H 0.05177 0.42871 0.36037 0.0
H1811 H 0.06397 0.42018 0.323 0.0
C1812 C 0.08022 0.4219 0.4229 0.0
C1813 C 0.07712 0.39101 0.4374 0.0
C1814 C 0.07401 0.41673 0.40129 0.0
C1815 C 0.06457 0.38056 0.39388 0.0
C1816 C 0.05902 0.35132 0.40899 0.0
C1817 C 0.06544 0.35641 0.4305 0.0
C1818 C 0.0804 0.33002 0.34157 0.0
C1819 C 0.0777 0.36106 0.3271 0.0
C1820 C 0.07397 0.33517 0.36314 0.0
C1821 C 0.06465 0.37144 0.37051 0.0
C1822 C 0.0594 0.40078 0.35539 0.0
C1823 C 0.06607 0.39574 0.33394 0.0
H1824 H 0.83924 0.19617 0.58577 0.0
H1825 H 0.81389 0.07905 0.57208 0.0
H1826 H 0.82798 0.18752 0.62332 0.0
H1827 H 0.80166 0.07047 0.60945 0.0
H1828 H 0.8388 0.05121 0.67715 0.0
H1829 H 0.82806 0.05951 0.63948 0.0
H1830 H 0.80089 0.17623 0.65288 0.0
H1831 H 0.8126 0.168 0.6904 0.0
C1832 C 0.82997 0.16939 0.59063 0.0
C1833 C 0.82731 0.13835 0.57616 0.0
C1834 C 0.82354 0.16422 0.6122 0.0
C1835 C 0.81428 0.12791 0.61958 0.0
C1836 C 0.80921 0.09845 0.60447 0.0
C1837 C 0.81588 0.10352 0.58301 0.0
C1838 C 0.82941 0.0778 0.67217 0.0
C1839 C 0.82642 0.10889 0.68656 0.0
C1840 C 0.8233 0.08279 0.65053 0.0
C1841 C 0.81403 0.11896 0.64298 0.0
C1842 C 0.80848 0.14836 0.658 0.0
C1843 C 0.81484 0.14348 0.67954 0.0
H1844 H 0.42799 0.05131 0.58628 0.0
H1845 H 0.45426 0.16843 0.57395 0.0
H1846 H 0.43896 0.05849 0.62396 0.0
H1847 H 0.46624 0.17552 0.61147 0.0
H1848 H 0.42837 0.19365 0.67892 0.0
H1849 H 0.43957 0.18616 0.6413 0.0
H1850 H 0.46541 0.06842 0.65396 0.0
H1851 H 0.45319 0.0758 0.69139 0.0
C1852 C 0.43744 0.07774 0.59145 0.0
C1853 C 0.44036 0.10925 0.57733 0.0
C1854 C 0.44369 0.08208 0.61311 0.0
C1855 C 0.45306 0.11801 0.62093 0.0
C1856 C 0.45855 0.14783 0.60615 0.0
C1857 C 0.45204 0.1436 0.5846 0.0
C1858 C 0.4375 0.16693 0.6738 0.0
C1859 C 0.43991 0.13531 0.68792 0.0
C1860 C 0.4439 0.16243 0.65218 0.0
C1861 C 0.45296 0.12626 0.64442 0.0
C1862 C 0.45795 0.09628 0.65923 0.0
C1863 C 0.45126 0.10065 0.68072 0.0
H1864 H 0.17662 0.94791 0.33569 0.0
H1865 H 0.20126 0.83043 0.32206 0.0
H1866 H 0.18843 0.93951 0.37314 0.0
H1867 H 0.21401 0.82207 0.35932 0.0
H1868 H 0.20504 0.92068 0.44003 0.0
H1869 H 0.21612 0.92826 0.40235 0.0
H1870 H 0.1881 0.81171 0.38976 0.0
H1871 H 0.17796 0.80404 0.42759 0.0
C1872 C 0.18584 0.92109 0.34052 0.0
C1873 C 0.18815 0.8899 0.3261 0.0
C1874 C 0.19258 0.91606 0.36203 0.0
C1875 C 0.20182 0.87974 0.36941 0.0
C1876 C 0.20651 0.85008 0.35433 0.0
C1877 C 0.19953 0.85502 0.33294 0.0
C1878 C 0.20248 0.89603 0.42931 0.0
C1879 C 0.19079 0.8617 0.43662 0.0
C1880 C 0.20847 0.90055 0.40767 0.0
C1881 C 0.20248 0.87104 0.39284 0.0
C1882 C 0.19318 0.83507 0.40065 0.0
C1883 C 0.18743 0.83043 0.4224 0.0
H1884 H 0.58841 0.947 0.42921 0.0
H1885 H 0.56181 0.83 0.44135 0.0
H1886 H 0.57778 0.93989 0.39146 0.0
H1887 H 0.55015 0.82299 0.40376 0.0
H1888 H 0.58828 0.80451 0.33649 0.0
H1889 H 0.57684 0.81213 0.37405 0.0
H1890 H 0.55175 0.93023 0.36126 0.0
H1891 H 0.56425 0.92271 0.32391 0.0
C1892 C 0.57894 0.92063 0.42398 0.0
C1893 C 0.57582 0.88914 0.43808 0.0
C1894 C 0.57289 0.91632 0.40227 0.0
C1895 C 0.56352 0.88044 0.39438 0.0
C1896 C 0.55784 0.85064 0.40913 0.0
C1897 C 0.56416 0.85484 0.43072 0.0
C1898 C 0.57927 0.83135 0.34157 0.0
C1899 C 0.57714 0.863 0.32743 0.0
C1900 C 0.57273 0.83593 0.36316 0.0
C1901 C 0.5638 0.87221 0.37088 0.0
C1902 C 0.5591 0.90227 0.35604 0.0
C1903 C 0.56594 0.89782 0.33458 0.0
H1904 H 0.81717 0.68427 0.07783 0.0
H1905 H 0.8421 0.56426 0.08183 0.0
H1906 H 0.80207 0.68014 0.11481 0.0
H1907 H 0.82897 0.56073 0.11847 0.0
H1908 H 0.81935 0.55725 0.1861 0.0
H1909 H 0.80559 0.5594 0.14874 0.0
H1910 H 0.82255 0.68335 0.14666 0.0
H1911 H 0.83417 0.68144 0.1838 0.0
C1912 C 0.81906 0.65691 0.08646 0.0
C1913 C 0.83166 0.62514 0.07721 0.0
C1914 C 0.81063 0.6545 0.10775 0.0
C1915 C 0.81499 0.62048 0.12016 0.0
C1916 C 0.82512 0.58754 0.10985 0.0
C1917 C 0.83315 0.5898 0.08872 0.0
C1918 C 0.81916 0.58509 0.17778 0.0
C1919 C 0.82874 0.61881 0.1876 0.0
C1920 C 0.81158 0.58639 0.15625 0.0
C1921 C 0.81396 0.62125 0.14414 0.0
C1922 C 0.8205 0.65579 0.15502 0.0
C1923 C 0.82759 0.65458 0.17645 0.0
H1924 H 0.45279 0.58231 0.19224 0.0
H1925 H 0.42554 0.69789 0.17742 0.0
H1926 H 0.46466 0.57269 0.15487 0.0
H1927 H 0.43663 0.68823 0.13988 0.0
H1928 H 0.42592 0.55029 0.08784 0.0
H1929 H 0.43706 0.56016 0.12534 0.0
H1930 H 0.46424 0.6762 0.1103 0.0
H1931 H 0.45232 0.66634 0.07294 0.0
C1932 C 0.45035 0.6063 0.18106 0.0
C1933 C 0.43843 0.64093 0.1876 0.0
C1934 C 0.45683 0.60062 0.15962 0.0
C1935 C 0.45116 0.62928 0.14423 0.0
C1936 C 0.4415 0.66555 0.15126 0.0
C1937 C 0.43519 0.67131 0.17281 0.0
C1938 C 0.43542 0.57703 0.09242 0.0
C1939 C 0.43841 0.60746 0.07761 0.0
C1940 C 0.44175 0.58292 0.11395 0.0
C1941 C 0.45117 0.61937 0.12096 0.0
C1942 C 0.4566 0.64812 0.10556 0.0
C1943 C 0.45011 0.6423 0.08412 0.0
H1944 H 0.2036 0.41761 0.94186 0.0
H1945 H 0.17783 0.30073 0.92813 0.0
H1946 H 0.21494 0.42667 0.90432 0.0
H1947 H 0.18827 0.30983 0.89045 0.0
H1948 H 0.17554 0.44704 0.83758 0.0
H1949 H 0.18716 0.43794 0.87504 0.0
H1950 H 0.2146 0.32191 0.86034 0.0
H1951 H 0.20209 0.33094 0.82306 0.0
C1952 C 0.20142 0.39323 0.93089 0.0
C1953 C 0.19002 0.35838 0.93779 0.0
C1954 C 0.20755 0.3986 0.90934 0.0
C1955 C 0.20202 0.3694 0.8942 0.0
C1956 C 0.19301 0.33296 0.9016 0.0
C1957 C 0.18709 0.3275 0.92325 0.0
C1958 C 0.18512 0.42042 0.84224 0.0
C1959 C 0.18803 0.38977 0.82756 0.0
C1960 C 0.19176 0.41499 0.86374 0.0
C1961 C 0.20146 0.3788 0.87086 0.0
C1962 C 0.20673 0.34978 0.85555 0.0
C1963 C 0.19988 0.35512 0.83415 0.0
H1964 H 0.58741 0.44052 0.92894 0.0
H1965 H 0.56167 0.32323 0.94167 0.0
H1966 H 0.57672 0.4326 0.89123 0.0
H1967 H 0.55005 0.3154 0.90412 0.0
H1968 H 0.58892 0.2969 0.83705 0.0
H1969 H 0.57746 0.30488 0.8746 0.0
H1970 H 0.55031 0.42156 0.86109 0.0
H1971 H 0.56267 0.41364 0.82371 0.0
C1972 C 0.57813 0.41389 0.92385 0.0
C1973 C 0.57531 0.38254 0.9381 0.0
C1974 C 0.57206 0.40912 0.90217 0.0
C1975 C 0.56297 0.37293 0.89447 0.0
C1976 C 0.55752 0.34328 0.90936 0.0
C1977 C 0.56384 0.34794 0.93092 0.0
C1978 C 0.57941 0.32342 0.84197 0.0
C1979 C 0.57655 0.35456 0.8276 0.0
C1980 C 0.57287 0.32821 0.86354 0.0
C1981 C 0.56333 0.36425 0.87104 0.0
C1982 C 0.55806 0.39378 0.85602 0.0
C1983 C 0.56481 0.38907 0.83456 0.0
H1984 H 0.17766 0.96105 0.95265 0.0
H1985 H 0.16367 0.99221 0.01858 0.0
H1986 H 0.21518 0.00114 0.95273 0.0
H1987 H 0.20181 0.03173 0.01887 0.0
H1988 H 0.26727 0.11721 0.00899 0.0
H1989 H 0.22563 0.08792 1.0065 0.0
H1990 H 0.2557 0.9947 0.9675 0.0
H1991 H 0.29679 0.02414 0.96954 0.0
C1992 C 0.18243 0.97684 0.96715 0.0
C1993 C 0.16762 0.97307 0.98566 0.0
C1994 C 0.20415 -0.00035 0.96725 0.0
C1995 C 0.21199 0.01919 0.98594 0.0
C1996 C 0.19643 0.0173 1.00413 0.0
C1997 C 0.17448 0.9946 1.00398 0.0
C1998 C 0.26492 0.09074 0.99965 0.0
C1999 C 0.28557 0.07324 0.98943 0.0
C2000 C 0.24102 0.07373 0.99836 0.0
C2001 C 0.23708 0.03887 0.98674 0.0
C2002 C 0.2577 0.02188 0.97627 0.0
C2003 C 0.28148 0.03875 0.97758 0.0
H2004 H 0.09102 0.2778 0.95294 0.0
H2005 H 0.10231 0.25111 0.01982 0.0
H2006 H 0.05422 0.2361 0.95241 0.0
H2007 H 0.06481 0.21015 0.01953 0.0
H2008 H 0.97211 0.21338 0.96726 0.0
H2009 H 0.01316 0.2428 0.96567 0.0
H2010 H 0.0419 0.15284 0.00761 0.0
H2011 H 1.00018 0.12362 0.00968 0.0
C2012 C 0.08581 0.26262 0.96751 0.0
C2013 C 0.09958 0.26813 0.98647 0.0
C2014 C 0.06451 0.2389 0.96727 0.0
C2015 C 0.05605 0.22029 0.98604 0.0
C2016 C 0.0707 0.22382 1.00472 0.0
C2017 C 0.09226 0.24735 1.0049 0.0
C2018 C 0.98712 0.19944 0.97604 0.0
C2019 C 0.98261 0.16598 0.98863 0.0
C2020 C 0.01089 0.21628 0.97499 0.0
C2021 C 0.0311 0.20025 0.98642 0.0
C2022 C 0.02681 0.16627 0.99871 0.0
C2023 C 1.00288 0.14929 0.99976 0.0
H2024 H 0.26963 0.1299 0.25563 0.0
H2025 H 0.29932 0.224 0.29428 0.0
H2026 H 0.22802 0.15925 0.25797 0.0
H2027 H 0.25823 0.25351 0.29616 0.0
H2028 H 0.16586 0.25406 0.24533 0.0
H2029 H 0.20414 0.21493 0.24522 0.0
H2030 H 0.21775 0.24744 0.31105 0.0
H2031 H 0.18009 0.28714 0.31095 0.0
C2032 C 0.26733 0.15663 0.26476 0.0
C2033 C 0.28802 0.17438 0.27481 0.0
C2034 C 0.24344 0.17366 0.26596 0.0
C2035 C 0.23955 0.20882 0.27731 0.0
C2036 C 0.2602 0.2261 0.2876 0.0
C2037 C 0.28397 0.20919 0.28639 0.0
C2038 C 0.17677 0.25219 0.25991 0.0
C2039 C 0.16991 0.27413 0.27808 0.0
C2040 C 0.19879 0.22971 0.25985 0.0
C2041 C 0.21445 0.22845 0.27801 0.0
C2042 C 0.20665 0.24844 0.29656 0.0
C2043 C 0.18484 0.27103 0.29656 0.0
H2044 H 1.0 0.12415 0.25198 0.0
H2045 H 0.97296 0.03814 0.29713 0.0
H2046 H 0.04166 0.09459 0.25375 0.0
H2047 H 0.01382 0.00828 0.29837 0.0
H2048 H 0.09119 0.97107 0.30951 0.0
H2049 H 0.05513 0.01429 0.31028 0.0
H2050 H 0.06397 0.03655 0.24257 0.0
H2051 H 0.10089 0.99427 0.24209 0.0
C2052 C 1.00294 0.09929 0.26245 0.0
C2053 C 0.98296 0.08369 0.27442 0.0
C2054 C 0.02681 0.08208 0.26332 0.0
C2055 C 0.03133 0.04895 0.27624 0.0
C2056 C 0.01143 0.03414 0.28854 0.0
C2057 C 0.98774 0.05123 0.28769 0.0
C2058 C 0.08576 0.9858 0.29486 0.0
C2059 C 0.09884 0.97893 0.2757 0.0
C2060 C 0.06488 0.01039 0.29524 0.0
C2061 C 0.05609 0.02835 0.27638 0.0
C2062 C 0.07012 0.02343 0.25745 0.0
C2063 C 0.09134 -0.00086 0.25715 0.0
H2064 H 0.75003 0.87267 1.00319 0.0
H2065 H 0.72282 0.96242 0.04602 0.0
H2066 H 0.79188 0.90162 1.00487 0.0
H2067 H 0.76397 0.99154 0.04724 0.0
H2068 H 0.84177 0.02598 0.05951 0.0
H2069 H 0.80513 0.98393 0.06022 0.0
H2070 H 0.8148 0.95926 0.99286 0.0
H2071 H 0.8522 0.00058 0.9924 0.0
C2072 C 0.75295 0.89826 0.01312 0.0
C2073 C 0.7329 0.91505 0.02449 0.0
C2074 C 0.77694 0.91508 0.01394 0.0
C2075 C 0.7815 0.94895 0.02625 0.0
C2076 C 0.76149 0.96509 0.03791 0.0
C2077 C 0.73767 0.94843 0.03707 0.0
C2078 C 0.8364 0.01096 0.04493 0.0
C2079 C 0.84985 0.01694 0.02586 0.0
C2080 C 0.8152 0.98705 0.04527 0.0
C2081 C 0.8065 0.9688 0.02648 0.0
C2082 C 0.82089 0.97269 0.00768 0.0
C2083 C 0.84239 0.99639 0.00739 0.0
H2084 H 0.01679 0.86938 1.00344 0.0
H2085 H 0.0454 0.77743 0.04416 0.0
H2086 H 0.97509 0.84012 1.00546 0.0
H2087 H 1.00433 0.748 0.0457 0.0
H2088 H 0.92694 0.71253 0.059 0.0
H2089 H 0.96358 0.75457 0.05964 0.0
H2090 H 0.95171 0.78342 0.99304 0.0
H2091 H 0.91427 0.74209 0.9927 0.0
C2092 C 0.01421 0.84319 0.01298 0.0
C2093 C 0.03462 0.82595 0.02368 0.0
C2094 C 0.99029 0.82621 0.01399 0.0
C2095 C 0.98613 0.79166 0.02581 0.0
C2096 C 1.0065 0.77498 0.03677 0.0
C2097 C 0.03027 0.79183 0.03576 0.0
C2098 C 0.9318 0.72853 0.0446 0.0
C2099 C 0.91773 0.72373 0.02577 0.0
C2100 C 0.95302 0.7524 0.0449 0.0
C2101 C 0.96113 0.77178 0.02625 0.0
C2102 C 0.9461 0.76909 0.00774 0.0
C2103 C 0.92457 0.74543 0.00753 0.0
H2104 H 0.83762 0.71309 0.70325 0.0
H2105 H 0.851 0.74312 0.76942 0.0
H2106 H 0.80013 0.75321 0.70325 0.0
H2107 H 0.81288 0.78264 0.76964 0.0
H2108 H 0.74729 0.86771 0.75992 0.0
H2109 H 0.78906 0.8389 0.75742 0.0
H2110 H 0.75953 0.74617 0.71775 0.0
H2111 H 0.71833 0.77515 0.71979 0.0
C2112 C 0.83273 0.72865 0.71777 0.0
C2113 C 0.84733 0.72455 0.73638 0.0
C2114 C 0.81102 0.75148 0.71784 0.0
C2115 C 0.80301 0.77065 0.73658 0.0
C2116 C 0.81841 0.76849 0.75487 0.0
C2117 C 0.84034 0.7458 0.75475 0.0
C2118 C 0.74979 0.84147 0.75042 0.0
C2119 C 0.72926 0.82395 0.74002 0.0
C2120 C 0.77376 0.82473 0.74913 0.0
C2121 C 0.77788 0.79014 0.73732 0.0
C2122 C 0.75738 0.77316 0.72666 0.0
C2123 C 0.73355 0.78976 0.72797 0.0
H2124 H 0.91408 0.00326 0.76911 0.0
H2125 H 0.92526 0.02935 0.70216 0.0
H2126 H 0.95156 0.96228 0.76889 0.0
H2127 H 0.962 0.98756 0.70168 0.0
H2128 H 0.01655 0.87644 0.75947 0.0
H2129 H 0.97467 0.90508 0.75722 0.0
H2130 H 1.003 0.99467 0.71483 0.0
H2131 H 0.04417 0.96582 0.71658 0.0
C2132 C 0.92409 -0.00066 0.75419 0.0
C2133 C 0.91678 0.01998 0.73571 0.0
C2134 C 0.94564 0.97579 0.75404 0.0
C2135 C 0.96025 0.9721 0.73536 0.0
C2136 C 0.95175 0.9905 0.71654 0.0
C2137 C 0.93048 0.01428 0.71675 0.0
C2138 C 0.01371 0.90188 0.7494 0.0
C2139 C 0.0339 0.91867 0.7382 0.0
C2140 C 0.9897 0.91853 0.74825 0.0
C2141 C 0.98525 0.95226 0.7358 0.0
C2142 C 1.00538 0.96834 0.72427 0.0
C2143 C 0.02922 0.95183 0.72542 0.0
H2144 H 0.26729 0.62124 0.51095 0.0
H2145 H 0.29526 0.52974 0.46961 0.0
H2146 H 0.22547 0.59241 0.50901 0.0
H2147 H 0.254 0.50079 0.46807 0.0
H2148 H 0.17582 0.46824 0.45455 0.0
H2149 H 0.21297 0.50915 0.45423 0.0
H2150 H 0.20225 0.535 0.52133 0.0
H2151 H 0.16442 0.49461 0.52144 0.0
C2152 C 0.26455 0.59525 0.50129 0.0
C2153 C 0.2848 0.57798 0.49039 0.0
C2154 C 0.24056 0.57852 0.50032 0.0
C2155 C 0.23618 0.54425 0.48833 0.0
C2156 C 0.25639 0.52754 0.47716 0.0
C2157 C 0.28025 0.54411 0.47816 0.0
C2158 C 0.18107 0.48325 0.46916 0.0
C2159 C 0.1672 0.47784 0.48807 0.0
C2160 C 0.20256 0.5065 0.46903 0.0
C2161 C 0.21108 0.52477 0.48787 0.0
C2162 C 0.1963 0.5215 0.50649 0.0
C2163 C 0.17455 0.49837 0.50657 0.0
H2164 H 0.07608 0.81129 0.46254 0.0
H2165 H 0.11272 0.73587 0.50833 0.0
H2166 H 0.03965 0.77034 0.46334 0.0
H2167 H 0.07617 0.69264 0.5082 0.0
H2168 H 0.99453 0.65259 0.52188 0.0
H2169 H 0.03512 0.68503 0.51968 0.0
H2170 H 0.02013 0.71449 0.45351 0.0
H2171 H 0.97903 0.68476 0.45646 0.0
C2172 C 0.07669 0.78525 0.47244 0.0
C2173 C 0.09763 0.77703 0.48531 0.0
C2174 C 0.05559 0.76128 0.47277 0.0
C2175 C 0.05464 0.72749 0.48567 0.0
C2176 C 0.07586 0.71853 0.49821 0.0
C2177 C 0.09702 0.74314 0.49815 0.0
C2178 C 1.00014 0.66569 0.50682 0.0
C2179 C 0.9835 0.66649 0.4894 0.0
C2180 C 0.02353 0.68425 0.50549 0.0
C2181 C 0.03108 0.70338 0.48653 0.0
C2182 C 0.0149 0.7016 0.46869 0.0
C2183 C 0.99133 0.68408 0.47024 0.0
H2184 H 0.28546 0.67919 0.80752 0.0
H2185 H 0.27175 0.64999 0.74139 0.0
H2186 H 0.24441 0.70921 0.80997 0.0
H2187 H 0.23125 0.68277 0.74313 0.0
H2188 H 0.15386 0.73521 0.75339 0.0
H2189 H 0.1898 0.69072 0.75397 0.0
H2190 H 0.22612 0.76616 0.8001 0.0
H2191 H 0.19034 0.80833 0.80043 0.0
C2192 C 0.27356 0.67921 0.79348 0.0
C2193 C 0.28187 0.66242 0.77426 0.0
C2194 C 0.25003 0.69688 0.79475 0.0
C2195 C 0.23442 0.69965 0.77658 0.0
C2196 C 0.24241 0.68121 0.75755 0.0
C2197 C 0.26574 0.66248 0.75649 0.0
C2198 C 0.16937 0.74171 0.76394 0.0
C2199 C 0.16893 0.77541 0.77693 0.0
C2200 C 0.19016 0.71638 0.76415 0.0
C2201 C 0.21115 0.72437 0.77717 0.0
C2202 C 0.21033 0.75787 0.79028 0.0
C2203 C 0.18961 0.78258 0.79031 0.0
H2204 H 0.0891 0.46668 0.81008 0.0
H2205 H 0.10096 0.49431 0.7434 0.0
H2206 H 0.05196 0.50758 0.81045 0.0
H2207 H 0.06311 0.53463 0.74354 0.0
H2208 H 0.99799 0.62065 0.75392 0.0
H2209 H 0.03977 0.59169 0.75586 0.0
H2210 H 0.01104 0.49994 0.79662 0.0
H2211 H 0.96985 0.52905 0.79512 0.0
C2212 C 0.08394 0.48192 0.79552 0.0
C2213 C 0.09797 0.4769 0.77667 0.0
C2214 C 0.06245 0.50518 0.79567 0.0
C2215 C 0.05405 0.52383 0.7769 0.0
C2216 C 0.06895 0.52086 0.75834 0.0
C2217 C 0.09071 0.49774 0.75824 0.0
C2218 C 1.00069 0.59461 0.76355 0.0
C2219 C 0.98038 0.57737 0.7744 0.0
C2220 C 0.02465 0.5778 0.76451 0.0
C2221 C 0.02897 0.54344 0.77645 0.0
C2222 C 0.00872 0.52676 0.78758 0.0
C2223 C 0.98489 0.54342 0.78659 0.0
H2224 H 0.72219 0.46761 0.5461 0.0
H2225 H 0.74983 0.37728 0.50383 0.0
H2226 H 0.7633 0.4967 0.54755 0.0
H2227 H 0.79167 0.40617 0.50579 0.0
H2228 H 0.85217 0.50448 0.49327 0.0
H2229 H 0.81476 0.46323 0.49373 0.0
H2230 H 0.80424 0.48986 0.56078 0.0
H2231 H 0.84086 0.53195 0.56003 0.0
C2232 C 0.73713 0.45347 0.53734 0.0
C2233 C 0.73248 0.41997 0.52482 0.0
C2234 C 0.76094 0.47011 0.53831 0.0
C2235 C 0.78107 0.45382 0.52689 0.0
C2236 C 0.77664 0.41977 0.51468 0.0
C2237 C 0.75266 0.40299 0.5137 0.0
C2238 C 0.84215 0.50079 0.5082 0.0
C2239 C 0.84936 0.52189 0.52655 0.0
C2240 C 0.82065 0.4771 0.50848 0.0
C2241 C 0.80604 0.47374 0.52719 0.0
C2242 C 0.81448 0.49257 0.5459 0.0
C2243 C 0.83567 0.51651 0.54553 0.0
H2244 H 0.01611 0.37212 0.50274 0.0
H2245 H 0.04342 0.2827 0.54572 0.0
H2246 H 0.97427 0.34308 0.5045 0.0
H2247 H 1.00232 0.2535 0.54702 0.0
H2248 H 0.92461 0.21874 0.55935 0.0
H2249 H 0.9612 0.2609 0.55998 0.0
H2250 H 0.95133 0.28541 0.49262 0.0
H2251 H 0.91396 0.244 0.49225 0.0
C2252 C 0.01321 0.34659 0.51273 0.0
C2253 C 0.03329 0.32992 0.52411 0.0
C2254 C 0.98923 0.32972 0.51359 0.0
C2255 C 0.98471 0.29591 0.52596 0.0
C2256 C 1.00475 0.2799 0.53764 0.0
C2257 C 0.02855 0.29661 0.53676 0.0
C2258 C 0.92992 0.23374 0.54475 0.0
C2259 C 0.91642 0.2277 0.52571 0.0
C2260 C 0.9511 0.25772 0.54505 0.0
C2261 C 0.95973 0.27597 0.52624 0.0
C2262 C 0.9453 0.27199 0.50746 0.0
C2263 C 0.92382 0.24823 0.50722 0.0
H2264 H 0.73121 0.32422 0.20638 0.0
H2265 H 0.74473 0.35028 0.27293 0.0
H2266 H 0.7724 0.29475 0.20352 0.0
H2267 H 0.7854 0.31805 0.27072 0.0
H2268 H 0.86262 0.26575 0.26001 0.0
H2269 H 0.82693 0.31071 0.25969 0.0
H2270 H 0.79044 0.23711 0.21279 0.0
H2271 H 0.826 0.19444 0.21223 0.0
C2272 C 0.74313 0.32372 0.2204 0.0
C2273 C 0.73471 0.33939 0.23987 0.0
C2274 C 0.76673 0.30636 0.21889 0.0
C2275 C 0.7823 0.30277 0.23703 0.0
C2276 C 0.77425 0.32026 0.25631 0.0
C2277 C 0.75084 0.3387 0.25764 0.0
C2278 C 0.84715 0.25977 0.24933 0.0
C2279 C 0.84742 0.22634 0.23613 0.0
C2280 C 0.82649 0.28537 0.24928 0.0
C2281 C 0.80551 0.27798 0.23616 0.0
C2282 C 0.80623 0.24489 0.22274 0.0
C2283 C 0.8268 0.21987 0.22257 0.0
H2284 H 0.94261 0.56293 0.21493 0.0
H2285 H 0.90563 0.4829 0.25811 0.0
H2286 H 0.97951 0.52311 0.21557 0.0
H2287 H 0.94273 0.44081 0.25774 0.0
H2288 H 0.02418 0.40084 0.27175 0.0
H2289 H 0.98352 0.43296 0.26971 0.0
H2290 H 1.00005 0.46891 0.20478 0.0
H2291 H 0.0412 0.43938 0.20765 0.0
C2292 C 0.94204 0.53612 0.2242 0.0
C2293 C 0.92082 0.52624 0.23639 0.0
C2294 C 0.96344 0.5128 0.22443 0.0
C2295 C 0.96446 0.47804 0.23651 0.0
C2296 C 0.943 0.46748 0.24838 0.0
C2297 C 0.92153 0.49143 0.24845 0.0
C2298 C 0.01894 0.41536 0.257 0.0
C2299 C 0.03603 0.41792 0.23994 0.0
C2300 C 0.99548 0.43373 0.25575 0.0
C2301 C 0.98827 0.45448 0.2372 0.0
C2302 C 1.00497 0.4547 0.21968 0.0
C2303 C 0.0286 0.43732 0.22118 0.0
H2304 H 0.79343 0.03168 0.46745 0.0
H2305 H 0.76613 0.12077 0.51066 0.0
H2306 H 0.75227 0.00252 0.46608 0.0
H2307 H 0.72431 0.09177 0.50885 0.0
H2308 H 0.664 0.99295 0.52097 0.0
H2309 H 0.70153 0.03392 0.52065 0.0
H2310 H 0.711 0.01027 0.45317 0.0
H2311 H 0.67418 0.96863 0.45369 0.0
C2312 C 0.77856 0.04551 0.47646 0.0
C2313 C 0.78331 0.07872 0.48918 0.0
C2314 C 0.75474 0.02883 0.47554 0.0
C2315 C 0.73472 0.04476 0.48726 0.0
C2316 C 0.73926 0.07846 0.49972 0.0
C2317 C 0.76323 0.09531 0.50061 0.0
C2318 C 0.6738 0.99725 0.50598 0.0
C2319 C 0.66618 0.97711 0.48742 0.0
C2320 C 0.69537 0.02077 0.50578 0.0
C2321 C 0.70973 0.02489 0.48698 0.0
C2322 C 0.70094 0.00698 0.46811 0.0
C2323 C 0.67963 0.98329 0.46836 0.0
H2324 H 0.47032 0.22077 0.47004 0.0
H2325 H 0.49883 0.12875 0.51076 0.0
H2326 H 0.51148 0.25001 0.46844 0.0
H2327 H 0.54056 0.15787 0.50874 0.0
H2328 H 0.60165 0.25546 0.52125 0.0
H2329 H 0.56385 0.215 0.52117 0.0
H2330 H 0.55237 0.24232 0.45433 0.0
H2331 H 0.58947 0.28333 0.45464 0.0
C2332 C 0.48543 0.20635 0.47844 0.0
C2333 C 0.48105 0.17223 0.49052 0.0
C2334 C 0.50924 0.22309 0.4774 0.0
C2335 C 0.52958 0.20631 0.48836 0.0
C2336 C 0.52537 0.17182 0.50021 0.0
C2337 C 0.50143 0.15492 0.50122 0.0
C2338 C 0.59135 0.25204 0.50643 0.0
C2339 C 0.59849 0.27299 0.48802 0.0
C2340 C 0.56961 0.22886 0.50637 0.0
C2341 C 0.55464 0.22594 0.48785 0.0
C2342 C 0.56292 0.24468 0.46907 0.0
C2343 C 0.5844 0.26799 0.46919 0.0
H2344 H 0.6643 0.25194 0.74363 0.0
H2345 H 0.67641 0.27891 0.81037 0.0
H2346 H 0.70238 0.21218 0.74346 0.0
H2347 H 0.71384 0.23867 0.8104 0.0
H2348 H 0.79605 0.21873 0.79431 0.0
H2349 H 0.7547 0.24741 0.79612 0.0
H2350 H 0.72592 0.1551 0.75576 0.0
H2351 H 0.76776 0.12654 0.75356 0.0
C2352 C 0.67465 0.24847 0.75842 0.0
C2353 C 0.6674 0.26897 0.77695 0.0
C2354 C 0.69655 0.2257 0.75833 0.0
C2355 C 0.71159 0.22278 0.77682 0.0
C2356 C 0.70322 0.24105 0.79569 0.0
C2357 C 0.68156 0.26392 0.79573 0.0
C2358 C 0.78096 0.20417 0.78594 0.0
C2359 C 0.78544 0.17016 0.7738 0.0
C2360 C 0.75706 0.22058 0.78709 0.0
C2361 C 0.73676 0.20357 0.77617 0.0
C2362 C 0.74108 0.16921 0.76425 0.0
C2363 C 0.76509 0.15265 0.76314 0.0
H2364 H 0.57369 0.93328 0.80131 0.0
H2365 H 0.61082 0.01087 0.75691 0.0
H2366 H 0.53714 0.97395 0.80058 0.0
H2367 H 0.57415 0.05381 0.75716 0.0
H2368 H 0.49294 0.09488 0.74329 0.0
H2369 H 0.53334 0.06202 0.74542 0.0
H2370 H 0.51724 0.02909 0.8109 0.0
H2371 H 0.4763 0.05933 0.80798 0.0
C2372 C 0.57437 0.95973 0.79175 0.0
C2373 C 0.5955 0.96868 0.77924 0.0
C2374 C 0.55319 0.98354 0.79146 0.0
C2375 C 0.55235 0.01787 0.77899 0.0
C2376 C 0.57374 0.02749 0.76681 0.0
C2377 C 0.59497 0.00305 0.7668 0.0
C2378 C 0.49824 0.08089 0.75819 0.0
C2379 C 0.48132 0.07936 0.7754 0.0
C2380 C 0.52154 0.06209 0.75948 0.0
C2381 C 0.52877 0.04194 0.77822 0.0
C2382 C 0.51228 0.04281 0.79587 0.0
C2383 C 0.48879 0.0606 0.79435 0.0
H2384 H 0.24916 0.87916 0.50396 0.0
H2385 H 0.22041 0.97041 0.54507 0.0
H2386 H 0.29088 0.90821 0.50637 0.0
H2387 H 0.26156 -0.00038 0.54704 0.0
H2388 H 0.33965 0.03297 0.56114 0.0
H2389 H 0.30238 0.99234 0.56115 0.0
H2390 H 0.3143 0.96517 0.49436 0.0
H2391 H 0.35222 0.0052 0.49456 0.0
C2392 C 0.25171 0.90515 0.51366 0.0
C2393 C 0.23125 0.92226 0.52435 0.0
C2394 C 0.27564 0.92202 0.5149 0.0
C2395 C 0.27979 0.95632 0.52695 0.0
C2396 C 0.25938 0.97286 0.53791 0.0
C2397 C 0.23558 0.95613 0.53666 0.0
C2398 C 0.33463 0.01779 0.54653 0.0
C2399 C 0.34893 0.02269 0.52781 0.0
C2400 C 0.31305 0.99467 0.54648 0.0
C2401 C 0.30485 0.976 0.52764 0.0
C2402 C 0.31997 0.97892 0.50921 0.0
C2403 C 0.34179 0.00191 0.50931 0.0
H2404 H 0.42716 0.71387 0.5615 0.0
H2405 H 0.41393 0.74437 0.49536 0.0
H2406 H 0.46484 0.75357 0.56156 0.0
H2407 H 0.4522 0.78359 0.49524 0.0
H2408 H 0.5176 0.8689 0.50567 0.0
H2409 H 0.47588 0.83995 0.50799 0.0
H2410 H 0.50552 0.74604 0.54673 0.0
H2411 H 0.54677 0.77511 0.54482 0.0
C2412 C 0.43212 0.72946 0.547 0.0
C2413 C 0.41751 0.72559 0.52837 0.0
C2414 C 0.45393 0.75204 0.54698 0.0
C2415 C 0.462 0.77126 0.52828 0.0
C2416 C 0.44661 0.76936 0.50998 0.0
C2417 C 0.4246 0.74686 0.51004 0.0
C2418 C 0.51515 0.84233 0.51491 0.0
C2419 C 0.53572 0.82452 0.5251 0.0
C2420 C 0.49121 0.82554 0.5161 0.0
C2421 C 0.48715 0.79062 0.5276 0.0
C2422 C 0.50767 0.77328 0.53804 0.0
C2423 C 0.53151 0.78993 0.53682 0.0
H2424 H 0.3509 0.74527 0.27096 0.0
H2425 H 0.33978 0.71739 0.2042 0.0
H2426 H 0.31343 0.78633 0.27035 0.0
H2427 H 0.30308 0.75924 0.20333 0.0
H2428 H 0.22097 0.78174 0.21789 0.0
H2429 H 0.26205 0.75247 0.21656 0.0
H2430 H 0.29058 0.8434 0.25801 0.0
H2431 H 0.24882 0.87245 0.25985 0.0
C2432 C 0.34089 0.7488 0.256 0.0
C2433 C 0.34819 0.72766 0.2377 0.0
C2434 C 0.31937 0.77238 0.25563 0.0
C2435 C 0.30481 0.77559 0.23689 0.0
C2436 C 0.3133 0.75666 0.21823 0.0
C2437 C 0.33453 0.73285 0.21867 0.0
C2438 C 0.23594 0.79592 0.22661 0.0
C2439 C 0.23138 0.82959 0.239 0.0
C2440 C 0.25972 0.77917 0.22571 0.0
C2441 C 0.27987 0.79554 0.23709 0.0
C2442 C 0.27552 0.82974 0.24917 0.0
C2443 C 0.25158 0.84661 0.25007 0.0
H2444 H 0.51863 0.87869 0.26068 0.0
H2445 H 0.54765 0.96898 0.21908 0.0
H2446 H 0.4771 0.90847 0.25848 0.0
H2447 H 0.50673 -0.00106 0.21734 0.0
H2448 H 0.41609 0.0058 0.27019 0.0
H2449 H 0.45389 0.9655 0.27033 0.0
H2450 H 0.46583 0.99276 0.20356 0.0
H2451 H 0.4287 0.03368 0.20363 0.0
C2452 C 0.51618 0.90463 0.25092 0.0
C2453 C 0.53668 0.92122 0.24002 0.0
C2454 C 0.49235 0.92194 0.2498 0.0
C2455 C 0.48832 0.9562 0.23768 0.0
C2456 C 0.50877 0.97223 0.22652 0.0
C2457 C 0.53247 0.95506 0.22765 0.0
C2458 C 0.42651 0.0025 0.25543 0.0
C2459 C 0.41939 0.02336 0.23696 0.0
C2460 C 0.44826 0.97935 0.2555 0.0
C2461 C 0.46336 0.97631 0.23706 0.0
C2462 C 0.45521 0.99515 0.21826 0.0
C2463 C 0.43369 0.01844 0.21824 0.0
H2464 H 0.65416 0.50904 0.0093 0.0
H2465 H 0.6901 0.4338 0.96302 0.0
H2466 H 0.69078 0.5521 0.00895 0.0
H2467 H 0.72661 0.47461 0.9636 0.0
H2468 H 0.78724 0.56017 0.95642 0.0
H2469 H 0.74608 0.53058 0.95375 0.0
H2470 H 0.73202 0.55916 0.02019 0.0
H2471 H 0.77268 0.59142 0.02214 0.0
C2472 C 0.66972 0.50178 0.99896 0.0
C2473 C 0.6689 0.46797 0.98607 0.0
C2474 C 0.69091 0.52629 0.9989 0.0
C2475 C 0.71198 0.51731 0.98617 0.0
C2476 C 0.71081 0.48365 0.97319 0.0
C2477 C 0.68966 0.45976 0.97298 0.0
C2478 C 0.77515 0.56066 0.97034 0.0
C2479 C 0.78327 0.57795 0.9895 0.0
C2480 C 0.75154 0.54324 0.96894 0.0
C2481 C 0.73559 0.54128 0.98691 0.0
C2482 C 0.74342 0.5601 1.00589 0.0
C2483 C 0.76686 0.57854 1.00708 0.0
H2484 H 0.49901 0.62337 0.01229 0.0
H2485 H 0.47242 0.71232 0.96867 0.0
H2486 H 0.54103 0.65169 0.01047 0.0
H2487 H 0.51374 0.7408 0.9673 0.0
H2488 H 0.59167 0.77407 0.95502 0.0
H2489 H 0.55492 0.73224 0.95451 0.0
H2490 H 0.56413 0.70949 0.02212 0.0
H2491 H 0.60165 0.75058 0.02239 0.0
C2492 C 0.50211 0.64863 1.00214 0.0
C2493 C 0.48218 0.66542 0.99061 0.0
C2494 C 0.52619 0.66509 1.00124 0.0
C2495 C 0.53097 0.69856 0.98868 0.0
C2496 C 0.51109 0.71465 0.97684 0.0
C2497 C 0.48718 0.69836 0.97776 0.0
C2498 C 0.58618 0.7595 0.9697 0.0
C2499 C 0.59952 0.76597 0.98878 0.0
C2500 C 0.56493 0.73572 0.96946 0.0
C2501 C 0.55606 0.71811 0.98838 0.0
C2502 C 0.57035 0.72243 0.00721 0.0
C2503 C 0.59192 0.74599 0.00739 0.0
H2504 H 0.69221 0.81236 0.30101 0.0
H2505 H 0.65563 0.73408 0.25665 0.0
H2506 H 0.72906 0.7723 0.30029 0.0
H2507 H 0.6926 0.69177 0.2569 0.0
H2508 H 0.77391 0.65107 0.24333 0.0
H2509 H 0.73343 0.68374 0.24529 0.0
H2510 H 0.74938 0.71761 0.31066 0.0
H2511 H 0.79037 0.68751 0.30792 0.0
C2512 C 0.69172 0.78588 0.29146 0.0
C2513 C 0.67063 0.77654 0.27899 0.0
C2514 C 0.71308 0.76243 0.29117 0.0
C2515 C 0.71417 0.72808 0.27872 0.0
C2516 C 0.69283 0.71811 0.26654 0.0
C2517 C 0.67142 0.74219 0.26653 0.0
C2518 C 0.76857 0.66524 0.25817 0.0
C2519 C 0.78547 0.66702 0.2754 0.0
C2520 C 0.74522 0.68394 0.25937 0.0
C2521 C 0.7379 0.70428 0.27802 0.0
C2522 C 0.75438 0.70374 0.29568 0.0
C2523 C 0.77792 0.68601 0.29426 0.0
H2524 H 0.61213 0.51664 0.25546 0.0
H2525 H 0.57464 0.43887 0.2996 0.0
H2526 H 0.57576 0.56025 0.25613 0.0
H2527 H 0.53848 0.48033 0.29933 0.0
H2528 H 0.47847 0.56597 0.30753 0.0
H2529 H 0.51967 0.53648 0.31024 0.0
H2530 H 0.53454 0.56775 0.2443 0.0
H2531 H 0.49384 0.59985 0.24233 0.0
C2532 C 0.59629 0.50892 0.26539 0.0
C2533 C 0.59657 0.47422 0.27756 0.0
C2534 C 0.57527 0.53376 0.26565 0.0
C2535 C 0.55392 0.52426 0.27789 0.0
C2536 C 0.55455 0.48972 0.29016 0.0
C2537 C 0.57548 0.46546 0.29015 0.0
C2538 C 0.49077 0.56712 0.29376 0.0
C2539 C 0.48287 0.58501 0.27471 0.0
C2540 C 0.51438 0.54979 0.29517 0.0
C2541 C 0.53051 0.54856 0.2773 0.0
C2542 C 0.52295 0.56812 0.25849 0.0
C2543 C 0.49951 0.58647 0.2573 0.0
H2544 H 0.3509 0.50187 0.99464 0.0
H2545 H 0.33812 0.53172 0.06092 0.0
H2546 H 0.31299 0.46173 0.99476 0.0
H2547 H 0.30086 0.49106 0.06125 0.0
H2548 H 0.24804 0.37579 1.00538 0.0
H2549 H 0.28968 0.40505 0.00752 0.0
H2550 H 0.26007 0.49826 0.04678 0.0
H2551 H 0.21891 0.46886 0.04506 0.0
C2552 C 0.34044 0.49897 0.0094 0.0
C2553 C 0.34746 0.52036 0.0277 0.0
C2554 C 0.31863 0.47597 0.00948 0.0
C2555 C 0.30346 0.47369 0.02791 0.0
C2556 C 0.31158 0.49292 0.04659 0.0
C2557 C 0.33315 0.51603 0.04645 0.0
C2558 C 0.25048 0.40226 0.01471 0.0
C2559 C 0.22996 0.4198 0.02508 0.0
C2560 C 0.27438 0.41922 0.01579 0.0
C2561 C 0.27841 0.45405 0.02737 0.0
C2562 C 0.25794 0.47109 0.03802 0.0
C2563 C 0.23415 0.45426 0.03692 0.0
H2564 H 0.54558 0.27563 0.04653 0.0
H2565 H 0.51742 0.36686 1.00511 0.0
H2566 H 0.50437 0.24649 0.0481 0.0
H2567 H 0.47566 0.33789 1.00711 0.0
H2568 H 0.41439 0.24097 0.99468 0.0
H2569 H 0.45235 0.28097 0.99486 0.0
H2570 H 0.46334 0.25384 0.06178 0.0
H2571 H 0.42604 0.21326 0.06139 0.0
C2572 C 0.53053 0.28992 0.03797 0.0
C2573 C 0.53504 0.32377 0.02569 0.0
C2574 C 0.50669 0.27324 0.03899 0.0
C2575 C 0.48643 0.28979 0.02781 0.0
C2576 C 0.49077 0.32407 0.0158 0.0
C2577 C 0.51473 0.3409 0.0148 0.0
C2578 C 0.42462 0.24429 0.00954 0.0
C2579 C 0.41722 0.22353 0.02796 0.0
C2580 C 0.44646 0.26724 0.00966 0.0
C2581 C 0.46134 0.27015 0.02824 0.0
C2582 C 0.45287 0.25152 0.04699 0.0
C2583 C 0.43127 0.22844 0.04682 0.0
H2584 H 0.32489 0.18563 0.71467 0.0
H2585 H 0.36218 0.26323 0.75897 0.0
H2586 H 0.28836 0.22652 0.71542 0.0
H2587 H 0.32556 0.30625 0.7588 0.0
H2588 H 0.24419 0.3473 0.77275 0.0
H2589 H 0.28464 0.31442 0.77064 0.0
H2590 H 0.26879 0.28211 0.70502 0.0
H2591 H 0.22788 0.31243 0.70789 0.0
C2592 C 0.32561 0.21211 0.72422 0.0
C2593 C 0.34677 0.22103 0.73667 0.0
C2594 C 0.30445 0.23602 0.72453 0.0
C2595 C 0.30368 0.27037 0.737 0.0
C2596 C 0.32511 0.27992 0.74915 0.0
C2597 C 0.3463 0.25543 0.74911 0.0
C2598 C 0.24958 0.33352 0.75782 0.0
C2599 C 0.23274 0.33215 0.74055 0.0
C2600 C 0.27289 0.31467 0.75654 0.0
C2601 C 0.28016 0.29461 0.73778 0.0
C2602 C 0.26378 0.29574 0.72007 0.0
C2603 C 0.24031 0.31361 0.72156 0.0
H2604 H 0.51579 0.37335 0.7617 0.0
H2605 H 0.54361 0.46332 0.71928 0.0
H2606 H 0.47399 0.4024 0.75968 0.0
H2607 H 0.50257 0.49256 0.71777 0.0
H2608 H 0.42508 0.52793 0.70511 0.0
H2609 H 0.46165 0.48578 0.70452 0.0
H2610 H 0.45094 0.45964 0.7716 0.0
H2611 H 0.41357 0.50096 0.77191 0.0
C2612 C 0.51301 0.399 0.75178 0.0
C2613 C 0.53322 0.41583 0.74064 0.0
C2614 C 0.48905 0.41588 0.75077 0.0
C2615 C 0.4847 0.44987 0.7385 0.0
C2616 C 0.50487 0.46602 0.72706 0.0
C2617 C 0.52864 0.44928 0.72807 0.0
C2618 C 0.43021 0.5126 0.71965 0.0
C2619 C 0.41647 0.51813 0.7386 0.0
C2620 C 0.45138 0.48862 0.71937 0.0
C2621 C 0.45976 0.46988 0.73813 0.0
C2622 C 0.4451 0.47342 0.75681 0.0
C2623 C 0.42363 0.49715 0.75701 0.0
loop_
_geom_bond_atom_site_label_1
_geom_bond_atom_site_label_2
_geom_bond_distance
_geom_bond_site_symmetry_2
_ccdc_geom_bond_type
Sc0 O3 2.025 1_556 S
Sc0 O10 2.105 . S
Sc0 O13 2.105 1_556 S
Sc0 O16 2.105 . S
Sc0 O19 2.105 . S
Sc1 O3 2.025 . S
Sc1 O11 2.105 . S
Sc1 O15 2.105 . S
Sc1 O17 2.105 . S
Sc1 O21 2.105 . S
Sc2 O3 2.025 . S
Sc2 O12 2.105 . S
Sc2 O14 2.105 . S
Sc2 O18 2.105 . S
Sc2 O20 2.105 1_554 S
O3 Sc0 2.025 1_554 S
O3 Sc1 2.025 . S
O3 Sc2 2.025 . S
C4 O10 1.268 . S
C4 O20 1.268 . S
C5 O11 1.268 1_556 S
C5 O19 1.268 . S
C6 O12 1.268 . S
C6 O21 1.268 . S
C7 O13 1.268 . S
C7 O17 1.268 . S
C8 O14 1.268 1_556 S
C8 O16 1.268 . S
C9 O15 1.268 . S
C9 O18 1.268 . S
O10 Sc0 2.105 . S
O10 C4 1.268 . S
O11 Sc1 2.105 . S
O11 C5 1.268 1_554 S
O12 Sc2 2.105 . S
O12 C6 1.268 . S
O13 Sc0 2.105 1_554 S
O13 C7 1.268 . S
O14 Sc2 2.105 . S
O14 C8 1.268 1_554 S
O15 Sc1 2.105 . S
O15 C9 1.268 . S
O16 Sc0 2.105 . S
O16 C8 1.268 . S
O17 Sc1 2.105 . S
O17 C7 1.268 . S
O18 Sc2 2.105 . S
O18 C9 1.268 . S
O19 Sc0 2.105 . S
O19 C5 1.268 . S
O20 Sc2 2.105 1_556 S
O20 C4 1.268 . S
O21 Sc1 2.105 . S
O21 C6 1.268 . S
Sc22 O25 2.025 . S
Sc22 O32 2.105 . S
Sc22 O35 2.105 . S
Sc22 O38 2.105 1_554 S
Sc22 O41 2.105 . S
Sc23 O25 2.025 . S
Sc23 O33 2.105 . S
Sc23 O37 2.105 . S
Sc23 O39 2.105 . S
Sc23 O43 2.105 . S
Sc24 O25 2.025 1_556 S
Sc24 O34 2.105 1_556 S
Sc24 O36 2.105 . S
Sc24 O40 2.105 . S
Sc24 O42 2.105 . S
O25 Sc22 2.025 . S
O25 Sc23 2.025 . S
O25 Sc24 2.025 1_554 S
C26 O32 1.268 1_556 S
C26 O42 1.268 . S
C27 O33 1.268 . S
C27 O41 1.268 . S
C28 O34 1.268 . S
C28 O43 1.268 . S
C29 O35 1.268 . S
C29 O39 1.268 . S
C30 O36 1.268 . S
C30 O38 1.268 . S
C31 O37 1.268 1_556 S
C31 O40 1.268 . S
O32 Sc22 2.105 . S
O32 C26 1.268 1_554 S
O33 Sc23 2.105 . S
O33 C27 1.268 . S
O34 Sc24 2.105 1_554 S
O34 C28 1.268 . S
O35 Sc22 2.105 . S
O35 C29 1.268 . S
O36 Sc24 2.105 . S
O36 C30 1.268 . S
O37 Sc23 2.105 . S
O37 C31 1.268 1_554 S
O38 Sc22 2.105 1_556 S
O38 C30 1.268 . S
O39 Sc23 2.105 . S
O39 C29 1.268 . S
O40 Sc24 2.105 . S
O40 C31 1.268 . S
O41 Sc22 2.105 . S
O41 C27 1.268 . S
O42 Sc24 2.105 . S
O42 C26 1.268 . S
O43 Sc23 2.105 . S
O43 C28 1.268 . S
Sc44 O47 2.025 . S
Sc44 O54 2.105 . S
Sc44 O57 2.105 . S
Sc44 O60 2.105 . S
Sc44 O63 2.105 . S
Sc45 O47 2.025 . S
Sc45 O55 2.105 . S
Sc45 O59 2.105 . S
Sc45 O61 2.105 . S
Sc45 O65 2.105 . S
Sc46 O47 2.025 . S
Sc46 O56 2.105 . S
Sc46 O58 2.105 . S
Sc46 O62 2.105 . S
Sc46 O64 2.105 . S
O47 Sc44 2.025 . S
O47 Sc45 2.025 . S
O47 Sc46 2.025 . S
C48 O54 1.268 . S
C48 O64 1.268 . S
C49 O55 1.268 . S
C49 O63 1.268 . S
C50 O56 1.268 . S
C50 O65 1.268 . S
C51 O57 1.268 . S
C51 O61 1.268 . S
C52 O58 1.268 . S
C52 O60 1.268 . S
C53 O59 1.268 . S
C53 O62 1.268 . S
O54 Sc44 2.105 . S
O54 C48 1.268 . S
O55 Sc45 2.105 . S
O55 C49 1.268 . S
O56 Sc46 2.105 . S
O56 C50 1.268 . S
O57 Sc44 2.105 . S
O57 C51 1.268 . S
O58 Sc46 2.105 . S
O58 C52 1.268 . S
O59 Sc45 2.105 . S
O59 C53 1.268 . S
O60 Sc44 2.105 . S
O60 C52 1.268 . S
O61 Sc45 2.105 . S
O61 C51 1.268 . S
O62 Sc46 2.105 . S
O62 C53 1.268 . S
O63 Sc44 2.105 . S
O63 C49 1.268 . S
O64 Sc46 2.105 . S
O64 C48 1.268 . S
O65 Sc45 2.105 . S
O65 C50 1.268 . S
Sc66 O69 2.025 . S
Sc66 O76 2.105 . S
Sc66 O79 2.105 . S
Sc66 O82 2.105 . S
Sc66 O85 2.105 . S
Sc67 O69 2.025 . S
Sc67 O77 2.105 . S
Sc67 O81 2.105 . S
Sc67 O83 2.105 . S
Sc67 O87 2.105 . S
Sc68 O69 2.025 . S
Sc68 O78 2.105 . S
Sc68 O80 2.105 . S
Sc68 O84 2.105 . S
Sc68 O86 2.105 . S
O69 Sc66 2.025 . S
O69 Sc67 2.025 . S
O69 Sc68 2.025 . S
C70 O76 1.268 . S
C70 O86 1.268 . S
C71 O77 1.268 . S
C71 O85 1.268 . S
C72 O78 1.268 . S
C72 O87 1.268 . S
C73 O79 1.268 . S
C73 O83 1.268 . S
C74 O80 1.268 . S
C74 O82 1.268 . S
C75 O81 1.268 . S
C75 O84 1.268 . S
O76 Sc66 2.105 . S
O76 C70 1.268 . S
O77 Sc67 2.105 . S
O77 C71 1.268 . S
O78 Sc68 2.105 . S
O78 C72 1.268 . S
O79 Sc66 2.105 . S
O79 C73 1.268 . S
O80 Sc68 2.105 . S
O80 C74 1.268 . S
O81 Sc67 2.105 . S
O81 C75 1.268 . S
O82 Sc66 2.105 . S
O82 C74 1.268 . S
O83 Sc67 2.105 . S
O83 C73 1.268 . S
O84 Sc68 2.105 . S
O84 C75 1.268 . S
O85 Sc66 2.105 . S
O85 C71 1.268 . S
O86 Sc68 2.105 . S
O86 C70 1.268 . S
O87 Sc67 2.105 . S
O87 C72 1.268 . S
Sc88 O91 2.025 . S
Sc88 O98 2.105 1_556 S
Sc88 O101 2.105 . S
Sc88 O104 2.105 . S
Sc88 O107 2.105 . S
Sc89 O91 2.025 . S
Sc89 O99 2.105 . S
Sc89 O103 2.105 . S
Sc89 O105 2.105 . S
Sc89 O109 2.105 . S
Sc90 O91 2.025 1_554 S
Sc90 O100 2.105 . S
Sc90 O102 2.105 . S
Sc90 O106 2.105 1_554 S
Sc90 O108 2.105 . S
O91 Sc88 2.025 . S
O91 Sc89 2.025 . S
O91 Sc90 2.025 1_556 S
C92 O98 1.268 . S
C92 O108 1.268 . S
C93 O99 1.268 . S
C93 O107 1.268 . S
C94 O100 1.268 . S
C94 O109 1.268 1_554 S
C95 O101 1.268 . S
C95 O105 1.268 . S
C96 O102 1.268 . S
C96 O104 1.268 1_554 S
C97 O103 1.268 . S
C97 O106 1.268 . S
O98 Sc88 2.105 1_554 S
O98 C92 1.268 . S
O99 Sc89 2.105 . S
O99 C93 1.268 . S
O100 Sc90 2.105 . S
O100 C94 1.268 . S
O101 Sc88 2.105 . S
O101 C95 1.268 . S
O102 Sc90 2.105 . S
O102 C96 1.268 . S
O103 Sc89 2.105 . S
O103 C97 1.268 . S
O104 Sc88 2.105 . S
O104 C96 1.268 1_556 S
O105 Sc89 2.105 . S
O105 C95 1.268 . S
O106 Sc90 2.105 1_556 S
O106 C97 1.268 . S
O107 Sc88 2.105 . S
O107 C93 1.268 . S
O108 Sc90 2.105 . S
O108 C92 1.268 . S
O109 Sc89 2.105 . S
O109 C94 1.268 1_556 S
Sc110 O113 2.025 1_554 S
Sc110 O120 2.105 . S
Sc110 O123 2.105 . S
Sc110 O126 2.105 . S
Sc110 O129 2.105 1_554 S
Sc111 O113 2.025 . S
Sc111 O121 2.105 . S
Sc111 O125 2.105 . S
Sc111 O127 2.105 . S
Sc111 O131 2.105 . S
Sc112 O113 2.025 . S
Sc112 O122 2.105 . S
Sc112 O124 2.105 1_556 S
Sc112 O128 2.105 . S
Sc112 O130 2.105 . S
O113 Sc110 2.025 1_556 S
O113 Sc111 2.025 . S
O113 Sc112 2.025 . S
C114 O120 1.268 . S
C114 O130 1.268 1_554 S
C115 O121 1.268 . S
C115 O129 1.268 . S
C116 O122 1.268 . S
C116 O131 1.268 . S
C117 O123 1.268 . S
C117 O127 1.268 1_554 S
C118 O124 1.268 . S
C118 O126 1.268 . S
C119 O125 1.268 . S
C119 O128 1.268 . S
O120 Sc110 2.105 . S
O120 C114 1.268 . S
O121 Sc111 2.105 . S
O121 C115 1.268 . S
O122 Sc112 2.105 . S
O122 C116 1.268 . S
O123 Sc110 2.105 . S
O123 C117 1.268 . S
O124 Sc112 2.105 1_554 S
O124 C118 1.268 . S
O125 Sc111 2.105 . S
O125 C119 1.268 . S
O126 Sc110 2.105 . S
O126 C118 1.268 . S
O127 Sc111 2.105 . S
O127 C117 1.268 1_556 S
O128 Sc112 2.105 . S
O128 C119 1.268 . S
O129 Sc110 2.105 1_556 S
O129 C115 1.268 . S
O130 Sc112 2.105 . S
O130 C114 1.268 1_556 S
O131 Sc111 2.105 . S
O131 C116 1.268 . S
Sc132 O135 2.025 . S
Sc132 O142 2.105 . S
Sc132 O145 2.105 . S
Sc132 O148 2.105 . S
Sc132 O151 2.105 . S
Sc133 O135 2.025 . S
Sc133 O143 2.105 . S
Sc133 O147 2.105 . S
Sc133 O149 2.105 . S
Sc133 O153 2.105 . S
Sc134 O135 2.025 . S
Sc134 O144 2.105 . S
Sc134 O146 2.105 . S
Sc134 O150 2.105 . S
Sc134 O152 2.105 . S
O135 Sc132 2.025 . S
O135 Sc133 2.025 . S
O135 Sc134 2.025 . S
C136 O142 1.268 . S
C136 O152 1.268 . S
C137 O143 1.268 . S
C137 O151 1.268 . S
C138 O144 1.268 . S
C138 O153 1.268 . S
C139 O145 1.268 . S
C139 O149 1.268 . S
C140 O146 1.268 . S
C140 O148 1.268 . S
C141 O147 1.268 . S
C141 O150 1.268 . S
O142 Sc132 2.105 . S
O142 C136 1.268 . S
O143 Sc133 2.105 . S
O143 C137 1.268 . S
O144 Sc134 2.105 . S
O144 C138 1.268 . S
O145 Sc132 2.105 . S
O145 C139 1.268 . S
O146 Sc134 2.105 . S
O146 C140 1.268 . S
O147 Sc133 2.105 . S
O147 C141 1.268 . S
O148 Sc132 2.105 . S
O148 C140 1.268 . S
O149 Sc133 2.105 . S
O149 C139 1.268 . S
O150 Sc134 2.105 . S
O150 C141 1.268 . S
O151 Sc132 2.105 . S
O151 C137 1.268 . S
O152 Sc134 2.105 . S
O152 C136 1.268 . S
O153 Sc133 2.105 . S
O153 C138 1.268 . S
Sc154 O157 2.025 . S
Sc154 O164 2.105 . S
Sc154 O167 2.105 . S
Sc154 O170 2.105 . S
Sc154 O173 2.105 . S
Sc155 O157 2.025 . S
Sc155 O165 2.105 . S
Sc155 O169 2.105 . S
Sc155 O171 2.105 . S
Sc155 O175 2.105 . S
Sc156 O157 2.025 . S
Sc156 O166 2.105 . S
Sc156 O168 2.105 . S
Sc156 O172 2.105 . S
Sc156 O174 2.105 . S
O157 Sc154 2.025 . S
O157 Sc155 2.025 . S
O157 Sc156 2.025 . S
C158 O164 1.268 . S
C158 O174 1.268 . S
C159 O165 1.268 . S
C159 O173 1.268 . S
C160 O166 1.268 . S
C160 O175 1.268 . S
C161 O167 1.268 . S
C161 O171 1.268 . S
C162 O168 1.268 . S
C162 O170 1.268 . S
C163 O169 1.268 . S
C163 O172 1.268 . S
O164 Sc154 2.105 . S
O164 C158 1.268 . S
O165 Sc155 2.105 . S
O165 C159 1.268 . S
O166 Sc156 2.105 . S
O166 C160 1.268 . S
O167 Sc154 2.105 . S
O167 C161 1.268 . S
O168 Sc156 2.105 . S
O168 C162 1.268 . S
O169 Sc155 2.105 . S
O169 C163 1.268 . S
O170 Sc154 2.105 . S
O170 C162 1.268 . S
O171 Sc155 2.105 . S
O171 C161 1.268 . S
O172 Sc156 2.105 . S
O172 C163 1.268 . S
O173 Sc154 2.105 . S
O173 C159 1.268 . S
O174 Sc156 2.105 . S
O174 C158 1.268 . S
O175 Sc155 2.105 . S
O175 C160 1.268 . S
Sc176 O179 2.025 . S
Sc176 O186 2.105 . S
Sc176 O189 2.105 . S
Sc176 O192 2.105 . S
Sc176 O195 2.105 . S
Sc177 O179 2.025 . S
Sc177 O187 2.105 . S
Sc177 O191 2.105 . S
Sc177 O193 2.105 . S
Sc177 O197 2.105 . S
Sc178 O179 2.025 . S
Sc178 O188 2.105 . S
Sc178 O190 2.105 . S
Sc178 O194 2.105 . S
Sc178 O196 2.105 . S
O179 Sc176 2.025 . S
O179 Sc177 2.025 . S
O179 Sc178 2.025 . S
C180 O186 1.268 . S
C180 O196 1.268 . S
C181 O187 1.268 . S
C181 O195 1.268 . S
C182 O188 1.268 . S
C182 O197 1.268 . S
C183 O189 1.268 . S
C183 O193 1.268 . S
C184 O190 1.268 . S
C184 O192 1.268 . S
C185 O191 1.268 . S
C185 O194 1.268 . S
O186 Sc176 2.105 . S
O186 C180 1.268 . S
O187 Sc177 2.105 . S
O187 C181 1.268 . S
O188 Sc178 2.105 . S
O188 C182 1.268 . S
O189 Sc176 2.105 . S
O189 C183 1.268 . S
O190 Sc178 2.105 . S
O190 C184 1.268 . S
O191 Sc177 2.105 . S
O191 C185 1.268 . S
O192 Sc176 2.105 . S
O192 C184 1.268 . S
O193 Sc177 2.105 . S
O193 C183 1.268 . S
O194 Sc178 2.105 . S
O194 C185 1.268 . S
O195 Sc176 2.105 . S
O195 C181 1.268 . S
O196 Sc178 2.105 . S
O196 C180 1.268 . S
O197 Sc177 2.105 . S
O197 C182 1.268 . S
Sc198 O201 2.025 . S
Sc198 O208 2.105 . S
Sc198 O211 2.105 . S
Sc198 O214 2.105 . S
Sc198 O217 2.105 . S
Sc199 O201 2.025 . S
Sc199 O209 2.105 . S
Sc199 O213 2.105 . S
Sc199 O215 2.105 . S
Sc199 O219 2.105 . S
Sc200 O201 2.025 . S
Sc200 O210 2.105 . S
Sc200 O212 2.105 . S
Sc200 O216 2.105 . S
Sc200 O218 2.105 . S
O201 Sc198 2.025 . S
O201 Sc199 2.025 . S
O201 Sc200 2.025 . S
C202 O208 1.268 . S
C202 O218 1.268 . S
C203 O209 1.268 . S
C203 O217 1.268 . S
C204 O210 1.268 . S
C204 O219 1.268 . S
C205 O211 1.268 . S
C205 O215 1.268 . S
C206 O212 1.268 . S
C206 O214 1.268 . S
C207 O213 1.268 . S
C207 O216 1.268 . S
O208 Sc198 2.105 . S
O208 C202 1.268 . S
O209 Sc199 2.105 . S
O209 C203 1.268 . S
O210 Sc200 2.105 . S
O210 C204 1.268 . S
O211 Sc198 2.105 . S
O211 C205 1.268 . S
O212 Sc200 2.105 . S
O212 C206 1.268 . S
O213 Sc199 2.105 . S
O213 C207 1.268 . S
O214 Sc198 2.105 . S
O214 C206 1.268 . S
O215 Sc199 2.105 . S
O215 C205 1.268 . S
O216 Sc200 2.105 . S
O216 C207 1.268 . S
O217 Sc198 2.105 . S
O217 C203 1.268 . S
O218 Sc200 2.105 . S
O218 C202 1.268 . S
O219 Sc199 2.105 . S
O219 C204 1.268 . S
Sc220 O223 2.025 . S
Sc220 O230 2.105 . S
Sc220 O233 2.105 . S
Sc220 O236 2.105 . S
Sc220 O239 2.105 . S
Sc221 O223 2.025 . S
Sc221 O231 2.105 . S
Sc221 O235 2.105 . S
Sc221 O237 2.105 . S
Sc221 O241 2.105 . S
Sc222 O223 2.025 . S
Sc222 O232 2.105 . S
Sc222 O234 2.105 . S
Sc222 O238 2.105 . S
Sc222 O240 2.105 . S
O223 Sc220 2.025 . S
O223 Sc221 2.025 . S
O223 Sc222 2.025 . S
C224 O230 1.268 . S
C224 O240 1.268 . S
C225 O231 1.268 . S
C225 O239 1.268 . S
C226 O232 1.268 . S
C226 O241 1.268 . S
C227 O233 1.268 . S
C227 O237 1.268 . S
C228 O234 1.268 . S
C228 O236 1.268 . S
C229 O235 1.268 . S
C229 O238 1.268 . S
O230 Sc220 2.105 . S
O230 C224 1.268 . S
O231 Sc221 2.105 . S
O231 C225 1.268 . S
O232 Sc222 2.105 . S
O232 C226 1.268 . S
O233 Sc220 2.105 . S
O233 C227 1.268 . S
O234 Sc222 2.105 . S
O234 C228 1.268 . S
O235 Sc221 2.105 . S
O235 C229 1.268 . S
O236 Sc220 2.105 . S
O236 C228 1.268 . S
O237 Sc221 2.105 . S
O237 C227 1.268 . S
O238 Sc222 2.105 . S
O238 C229 1.268 . S
O239 Sc220 2.105 . S
O239 C225 1.268 . S
O240 Sc222 2.105 . S
O240 C224 1.268 . S
O241 Sc221 2.105 . S
O241 C226 1.268 . S
Sc242 O245 2.025 . S
Sc242 O252 2.105 . S
Sc242 O255 2.105 . S
Sc242 O258 2.105 . S
Sc242 O261 2.105 . S
Sc243 O245 2.025 . S
Sc243 O253 2.105 . S
Sc243 O257 2.105 . S
Sc243 O259 2.105 . S
Sc243 O263 2.105 . S
Sc244 O245 2.025 . S
Sc244 O254 2.105 . S
Sc244 O256 2.105 . S
Sc244 O260 2.105 . S
Sc244 O262 2.105 . S
O245 Sc242 2.025 . S
O245 Sc243 2.025 . S
O245 Sc244 2.025 . S
C246 O252 1.268 . S
C246 O262 1.268 . S
C247 O253 1.268 . S
C247 O261 1.268 . S
C248 O254 1.268 . S
C248 O263 1.268 . S
C249 O255 1.268 . S
C249 O259 1.268 . S
C250 O256 1.268 . S
C250 O258 1.268 . S
C251 O257 1.268 . S
C251 O260 1.268 . S
O252 Sc242 2.105 . S
O252 C246 1.268 . S
O253 Sc243 2.105 . S
O253 C247 1.268 . S
O254 Sc244 2.105 . S
O254 C248 1.268 . S
O255 Sc242 2.105 . S
O255 C249 1.268 . S
O256 Sc244 2.105 . S
O256 C250 1.268 . S
O257 Sc243 2.105 . S
O257 C251 1.268 . S
O258 Sc242 2.105 . S
O258 C250 1.268 . S
O259 Sc243 2.105 . S
O259 C249 1.268 . S
O260 Sc244 2.105 . S
O260 C251 1.268 . S
O261 Sc242 2.105 . S
O261 C247 1.268 . S
O262 Sc244 2.105 . S
O262 C246 1.268 . S
O263 Sc243 2.105 . S
O263 C248 1.268 . S
Sc264 O267 2.025 . S
Sc264 O274 2.105 . S
Sc264 O277 2.105 . S
Sc264 O280 2.105 . S
Sc264 O283 2.105 . S
Sc265 O267 2.025 . S
Sc265 O275 2.105 . S
Sc265 O279 2.105 . S
Sc265 O281 2.105 . S
Sc265 O285 2.105 . S
Sc266 O267 2.025 . S
Sc266 O276 2.105 . S
Sc266 O278 2.105 . S
Sc266 O282 2.105 . S
Sc266 O284 2.105 . S
O267 Sc264 2.025 . S
O267 Sc265 2.025 . S
O267 Sc266 2.025 . S
C268 O274 1.268 . S
C268 O284 1.268 . S
C269 O275 1.268 . S
C269 O283 1.268 . S
C270 O276 1.268 . S
C270 O285 1.268 . S
C271 O277 1.268 . S
C271 O281 1.268 . S
C272 O278 1.268 . S
C272 O280 1.268 . S
C273 O279 1.268 . S
C273 O282 1.268 . S
O274 Sc264 2.105 . S
O274 C268 1.268 . S
O275 Sc265 2.105 . S
O275 C269 1.268 . S
O276 Sc266 2.105 . S
O276 C270 1.268 . S
O277 Sc264 2.105 . S
O277 C271 1.268 . S
O278 Sc266 2.105 . S
O278 C272 1.268 . S
O279 Sc265 2.105 . S
O279 C273 1.268 . S
O280 Sc264 2.105 . S
O280 C272 1.268 . S
O281 Sc265 2.105 . S
O281 C271 1.268 . S
O282 Sc266 2.105 . S
O282 C273 1.268 . S
O283 Sc264 2.105 . S
O283 C269 1.268 . S
O284 Sc266 2.105 . S
O284 C268 1.268 . S
O285 Sc265 2.105 . S
O285 C270 1.268 . S
Sc286 O289 2.025 . S
Sc286 O296 2.105 . S
Sc286 O299 2.105 . S
Sc286 O302 2.105 . S
Sc286 O305 2.105 . S
Sc287 O289 2.025 . S
Sc287 O297 2.105 . S
Sc287 O301 2.105 . S
Sc287 O303 2.105 . S
Sc287 O307 2.105 . S
Sc288 O289 2.025 . S
Sc288 O298 2.105 . S
Sc288 O300 2.105 . S
Sc288 O304 2.105 . S
Sc288 O306 2.105 . S
O289 Sc286 2.025 . S
O289 Sc287 2.025 . S
O289 Sc288 2.025 . S
C290 O296 1.268 . S
C290 O306 1.268 . S
C291 O297 1.268 . S
C291 O305 1.268 . S
C292 O298 1.268 . S
C292 O307 1.268 . S
C293 O299 1.268 . S
C293 O303 1.268 . S
C294 O300 1.268 . S
C294 O302 1.268 . S
C295 O301 1.268 . S
C295 O304 1.268 . S
O296 Sc286 2.105 . S
O296 C290 1.268 . S
O297 Sc287 2.105 . S
O297 C291 1.268 . S
O298 Sc288 2.105 . S
O298 C292 1.268 . S
O299 Sc286 2.105 . S
O299 C293 1.268 . S
O300 Sc288 2.105 . S
O300 C294 1.268 . S
O301 Sc287 2.105 . S
O301 C295 1.268 . S
O302 Sc286 2.105 . S
O302 C294 1.268 . S
O303 Sc287 2.105 . S
O303 C293 1.268 . S
O304 Sc288 2.105 . S
O304 C295 1.268 . S
O305 Sc286 2.105 . S
O305 C291 1.268 . S
O306 Sc288 2.105 . S
O306 C290 1.268 . S
O307 Sc287 2.105 . S
O307 C292 1.268 . S
Sc308 O311 2.025 . S
Sc308 O318 2.105 . S
Sc308 O321 2.105 . S
Sc308 O324 2.105 . S
Sc308 O327 2.105 . S
Sc309 O311 2.025 . S
Sc309 O319 2.105 . S
Sc309 O323 2.105 . S
Sc309 O325 2.105 . S
Sc309 O329 2.105 . S
Sc310 O311 2.025 . S
Sc310 O320 2.105 . S
Sc310 O322 2.105 . S
Sc310 O326 2.105 . S
Sc310 O328 2.105 . S
O311 Sc308 2.025 . S
O311 Sc309 2.025 . S
O311 Sc310 2.025 . S
C312 O318 1.268 . S
C312 O328 1.268 . S
C313 O319 1.268 . S
C313 O327 1.268 . S
C314 O320 1.268 . S
C314 O329 1.268 . S
C315 O321 1.268 . S
C315 O325 1.268 . S
C316 O322 1.268 . S
C316 O324 1.268 . S
C317 O323 1.268 . S
C317 O326 1.268 . S
O318 Sc308 2.105 . S
O318 C312 1.268 . S
O319 Sc309 2.105 . S
O319 C313 1.268 . S
O320 Sc310 2.105 . S
O320 C314 1.268 . S
O321 Sc308 2.105 . S
O321 C315 1.268 . S
O322 Sc310 2.105 . S
O322 C316 1.268 . S
O323 Sc309 2.105 . S
O323 C317 1.268 . S
O324 Sc308 2.105 . S
O324 C316 1.268 . S
O325 Sc309 2.105 . S
O325 C315 1.268 . S
O326 Sc310 2.105 . S
O326 C317 1.268 . S
O327 Sc308 2.105 . S
O327 C313 1.268 . S
O328 Sc310 2.105 . S
O328 C312 1.268 . S
O329 Sc309 2.105 . S
O329 C314 1.268 . S
Sc330 O333 2.025 . S
Sc330 O340 2.105 . S
Sc330 O343 2.105 . S
Sc330 O346 2.105 . S
Sc330 O349 2.105 . S
Sc331 O333 2.025 . S
Sc331 O341 2.105 . S
Sc331 O345 2.105 . S
Sc331 O347 2.105 . S
Sc331 O351 2.105 . S
Sc332 O333 2.025 . S
Sc332 O342 2.105 . S
Sc332 O344 2.105 . S
Sc332 O348 2.105 . S
Sc332 O350 2.105 . S
O333 Sc330 2.025 . S
O333 Sc331 2.025 . S
O333 Sc332 2.025 . S
C334 O340 1.268 . S
C334 O350 1.268 . S
C335 O341 1.268 . S
C335 O349 1.268 . S
C336 O342 1.268 . S
C336 O351 1.268 . S
C337 O343 1.268 . S
C337 O347 1.268 . S
C338 O344 1.268 . S
C338 O346 1.268 . S
C339 O345 1.268 . S
C339 O348 1.268 . S
O340 Sc330 2.105 . S
O340 C334 1.268 . S
O341 Sc331 2.105 . S
O341 C335 1.268 . S
O342 Sc332 2.105 . S
O342 C336 1.268 . S
O343 Sc330 2.105 . S
O343 C337 1.268 . S
O344 Sc332 2.105 . S
O344 C338 1.268 . S
O345 Sc331 2.105 . S
O345 C339 1.268 . S
O346 Sc330 2.105 . S
O346 C338 1.268 . S
O347 Sc331 2.105 . S
O347 C337 1.268 . S
O348 Sc332 2.105 . S
O348 C339 1.268 . S
O349 Sc330 2.105 . S
O349 C335 1.268 . S
O350 Sc332 2.105 . S
O350 C334 1.268 . S
O351 Sc331 2.105 . S
O351 C336 1.268 . S
Sc352 O355 2.025 . S
Sc352 O362 2.105 . S
Sc352 O365 2.105 . S
Sc352 O368 2.105 . S
Sc352 O371 2.105 . S
Sc353 O355 2.025 . S
Sc353 O363 2.105 . S
Sc353 O367 2.105 . S
Sc353 O369 2.105 . S
Sc353 O373 2.105 . S
Sc354 O355 2.025 . S
Sc354 O364 2.105 . S
Sc354 O366 2.105 . S
Sc354 O370 2.105 . S
Sc354 O372 2.105 . S
O355 Sc352 2.025 . S
O355 Sc353 2.025 . S
O355 Sc354 2.025 . S
C356 O362 1.268 . S
C356 O372 1.268 . S
C357 O363 1.268 . S
C357 O371 1.268 . S
C358 O364 1.268 . S
C358 O373 1.268 . S
C359 O365 1.268 . S
C359 O369 1.268 . S
C360 O366 1.268 . S
C360 O368 1.268 . S
C361 O367 1.268 . S
C361 O370 1.268 . S
O362 Sc352 2.105 . S
O362 C356 1.268 . S
O363 Sc353 2.105 . S
O363 C357 1.268 . S
O364 Sc354 2.105 . S
O364 C358 1.268 . S
O365 Sc352 2.105 . S
O365 C359 1.268 . S
O366 Sc354 2.105 . S
O366 C360 1.268 . S
O367 Sc353 2.105 . S
O367 C361 1.268 . S
O368 Sc352 2.105 . S
O368 C360 1.268 . S
O369 Sc353 2.105 . S
O369 C359 1.268 . S
O370 Sc354 2.105 . S
O370 C361 1.268 . S
O371 Sc352 2.105 . S
O371 C357 1.268 . S
O372 Sc354 2.105 . S
O372 C356 1.268 . S
O373 Sc353 2.105 . S
O373 C358 1.268 . S
Sc374 O377 2.025 . S
Sc374 O384 2.105 . S
Sc374 O387 2.105 . S
Sc374 O390 2.105 . S
Sc374 O393 2.105 . S
Sc375 O377 2.025 . S
Sc375 O385 2.105 . S
Sc375 O389 2.105 . S
Sc375 O391 2.105 . S
Sc375 O395 2.105 . S
Sc376 O377 2.025 . S
Sc376 O386 2.105 . S
Sc376 O388 2.105 . S
Sc376 O392 2.105 . S
Sc376 O394 2.105 . S
O377 Sc374 2.025 . S
O377 Sc375 2.025 . S
O377 Sc376 2.025 . S
C378 O384 1.268 . S
C378 O394 1.268 . S
C379 O385 1.268 . S
C379 O393 1.268 . S
C380 O386 1.268 . S
C380 O395 1.268 . S
C381 O387 1.268 . S
C381 O391 1.268 . S
C382 O388 1.268 . S
C382 O390 1.268 . S
C383 O389 1.268 . S
C383 O392 1.268 . S
O384 Sc374 2.105 . S
O384 C378 1.268 . S
O385 Sc375 2.105 . S
O385 C379 1.268 . S
O386 Sc376 2.105 . S
O386 C380 1.268 . S
O387 Sc374 2.105 . S
O387 C381 1.268 . S
O388 Sc376 2.105 . S
O388 C382 1.268 . S
O389 Sc375 2.105 . S
O389 C383 1.268 . S
O390 Sc374 2.105 . S
O390 C382 1.268 . S
O391 Sc375 2.105 . S
O391 C381 1.268 . S
O392 Sc376 2.105 . S
O392 C383 1.268 . S
O393 Sc374 2.105 . S
O393 C379 1.268 . S
O394 Sc376 2.105 . S
O394 C378 1.268 . S
O395 Sc375 2.105 . S
O395 C380 1.268 . S
Sc396 O399 2.025 . S
Sc396 O406 2.105 . S
Sc396 O409 2.105 . S
Sc396 O412 2.105 . S
Sc396 O415 2.105 . S
Sc397 O399 2.025 . S
Sc397 O407 2.105 . S
Sc397 O411 2.105 . S
Sc397 O413 2.105 . S
Sc397 O417 2.105 . S
Sc398 O399 2.025 . S
Sc398 O408 2.105 . S
Sc398 O410 2.105 . S
Sc398 O414 2.105 . S
Sc398 O416 2.105 . S
O399 Sc396 2.025 . S
O399 Sc397 2.025 . S
O399 Sc398 2.025 . S
C400 O406 1.268 . S
C400 O416 1.268 . S
C401 O407 1.268 . S
C401 O415 1.268 . S
C402 O408 1.268 . S
C402 O417 1.268 . S
C403 O409 1.268 . S
C403 O413 1.268 . S
C404 O410 1.268 . S
C404 O412 1.268 . S
C405 O411 1.268 . S
C405 O414 1.268 . S
O406 Sc396 2.105 . S
O406 C400 1.268 . S
O407 Sc397 2.105 . S
O407 C401 1.268 . S
O408 Sc398 2.105 . S
O408 C402 1.268 . S
O409 Sc396 2.105 . S
O409 C403 1.268 . S
O410 Sc398 2.105 . S
O410 C404 1.268 . S
O411 Sc397 2.105 . S
O411 C405 1.268 . S
O412 Sc396 2.105 . S
O412 C404 1.268 . S
O413 Sc397 2.105 . S
O413 C403 1.268 . S
O414 Sc398 2.105 . S
O414 C405 1.268 . S
O415 Sc396 2.105 . S
O415 C401 1.268 . S
O416 Sc398 2.105 . S
O416 C400 1.268 . S
O417 Sc397 2.105 . S
O417 C402 1.268 . S
Sc418 O421 2.025 . S
Sc418 O428 2.105 . S
Sc418 O431 2.105 . S
Sc418 O434 2.105 . S
Sc418 O437 2.105 . S
Sc419 O421 2.025 . S
Sc419 O429 2.105 . S
Sc419 O433 2.105 . S
Sc419 O435 2.105 . S
Sc419 O439 2.105 . S
Sc420 O421 2.025 . S
Sc420 O430 2.105 . S
Sc420 O432 2.105 . S
Sc420 O436 2.105 . S
Sc420 O438 2.105 . S
O421 Sc418 2.025 . S
O421 Sc419 2.025 . S
O421 Sc420 2.025 . S
C422 O428 1.268 . S
C422 O438 1.268 . S
C423 O429 1.268 . S
C423 O437 1.268 . S
C424 O430 1.268 . S
C424 O439 1.268 . S
C425 O431 1.268 . S
C425 O435 1.268 . S
C426 O432 1.268 . S
C426 O434 1.268 . S
C427 O433 1.268 . S
C427 O436 1.268 . S
O428 Sc418 2.105 . S
O428 C422 1.268 . S
O429 Sc419 2.105 . S
O429 C423 1.268 . S
O430 Sc420 2.105 . S
O430 C424 1.268 . S
O431 Sc418 2.105 . S
O431 C425 1.268 . S
O432 Sc420 2.105 . S
O432 C426 1.268 . S
O433 Sc419 2.105 . S
O433 C427 1.268 . S
O434 Sc418 2.105 . S
O434 C426 1.268 . S
O435 Sc419 2.105 . S
O435 C425 1.268 . S
O436 Sc420 2.105 . S
O436 C427 1.268 . S
O437 Sc418 2.105 . S
O437 C423 1.268 . S
O438 Sc420 2.105 . S
O438 C422 1.268 . S
O439 Sc419 2.105 . S
O439 C424 1.268 . S
Sc440 O443 2.025 . S
Sc440 O450 2.105 . S
Sc440 O453 2.105 . S
Sc440 O456 2.105 . S
Sc440 O459 2.105 . S
Sc441 O443 2.025 . S
Sc441 O451 2.105 . S
Sc441 O455 2.105 . S
Sc441 O457 2.105 . S
Sc441 O461 2.105 . S
Sc442 O443 2.025 . S
Sc442 O452 2.105 . S
Sc442 O454 2.105 . S
Sc442 O458 2.105 . S
Sc442 O460 2.105 . S
O443 Sc440 2.025 . S
O443 Sc441 2.025 . S
O443 Sc442 2.025 . S
C444 O450 1.268 . S
C444 O460 1.268 . S
C445 O451 1.268 . S
C445 O459 1.268 . S
C446 O452 1.268 . S
C446 O461 1.268 . S
C447 O453 1.268 . S
C447 O457 1.268 . S
C448 O454 1.268 . S
C448 O456 1.268 . S
C449 O455 1.268 . S
C449 O458 1.268 . S
O450 Sc440 2.105 . S
O450 C444 1.268 . S
O451 Sc441 2.105 . S
O451 C445 1.268 . S
O452 Sc442 2.105 . S
O452 C446 1.268 . S
O453 Sc440 2.105 . S
O453 C447 1.268 . S
O454 Sc442 2.105 . S
O454 C448 1.268 . S
O455 Sc441 2.105 . S
O455 C449 1.268 . S
O456 Sc440 2.105 . S
O456 C448 1.268 . S
O457 Sc441 2.105 . S
O457 C447 1.268 . S
O458 Sc442 2.105 . S
O458 C449 1.268 . S
O459 Sc440 2.105 . S
O459 C445 1.268 . S
O460 Sc442 2.105 . S
O460 C444 1.268 . S
O461 Sc441 2.105 . S
O461 C446 1.268 . S
Sc462 O465 2.025 . S
Sc462 O472 2.105 . S
Sc462 O475 2.105 . S
Sc462 O478 2.105 . S
Sc462 O481 2.105 . S
Sc463 O465 2.025 . S
Sc463 O473 2.105 . S
Sc463 O477 2.105 . S
Sc463 O479 2.105 . S
Sc463 O483 2.105 . S
Sc464 O465 2.025 . S
Sc464 O474 2.105 . S
Sc464 O476 2.105 . S
Sc464 O480 2.105 . S
Sc464 O482 2.105 . S
O465 Sc462 2.025 . S
O465 Sc463 2.025 . S
O465 Sc464 2.025 . S
C466 O472 1.268 . S
C466 O482 1.268 . S
C467 O473 1.268 . S
C467 O481 1.268 . S
C468 O474 1.268 . S
C468 O483 1.268 . S
C469 O475 1.268 . S
C469 O479 1.268 . S
C470 O476 1.268 . S
C470 O478 1.268 . S
C471 O477 1.268 . S
C471 O480 1.268 . S
O472 Sc462 2.105 . S
O472 C466 1.268 . S
O473 Sc463 2.105 . S
O473 C467 1.268 . S
O474 Sc464 2.105 . S
O474 C468 1.268 . S
O475 Sc462 2.105 . S
O475 C469 1.268 . S
O476 Sc464 2.105 . S
O476 C470 1.268 . S
O477 Sc463 2.105 . S
O477 C471 1.268 . S
O478 Sc462 2.105 . S
O478 C470 1.268 . S
O479 Sc463 2.105 . S
O479 C469 1.268 . S
O480 Sc464 2.105 . S
O480 C471 1.268 . S
O481 Sc462 2.105 . S
O481 C467 1.268 . S
O482 Sc464 2.105 . S
O482 C466 1.268 . S
O483 Sc463 2.105 . S
O483 C468 1.268 . S
Sc484 O487 2.025 . S
Sc484 O494 2.105 . S
Sc484 O497 2.105 . S
Sc484 O500 2.105 . S
Sc484 O503 2.105 . S
Sc485 O487 2.025 . S
Sc485 O495 2.105 . S
Sc485 O499 2.105 . S
Sc485 O501 2.105 . S
Sc485 O505 2.105 . S
Sc486 O487 2.025 . S
Sc486 O496 2.105 . S
Sc486 O498 2.105 . S
Sc486 O502 2.105 . S
Sc486 O504 2.105 . S
O487 Sc484 2.025 . S
O487 Sc485 2.025 . S
O487 Sc486 2.025 . S
C488 O494 1.268 . S
C488 O504 1.268 . S
C489 O495 1.268 . S
C489 O503 1.268 . S
C490 O496 1.268 . S
C490 O505 1.268 . S
C491 O497 1.268 . S
C491 O501 1.268 . S
C492 O498 1.268 . S
C492 O500 1.268 . S
C493 O499 1.268 . S
C493 O502 1.268 . S
O494 Sc484 2.105 . S
O494 C488 1.268 . S
O495 Sc485 2.105 . S
O495 C489 1.268 . S
O496 Sc486 2.105 . S
O496 C490 1.268 . S
O497 Sc484 2.105 . S
O497 C491 1.268 . S
O498 Sc486 2.105 . S
O498 C492 1.268 . S
O499 Sc485 2.105 . S
O499 C493 1.268 . S
O500 Sc484 2.105 . S
O500 C492 1.268 . S
O501 Sc485 2.105 . S
O501 C491 1.268 . S
O502 Sc486 2.105 . S
O502 C493 1.268 . S
O503 Sc484 2.105 . S
O503 C489 1.268 . S
O504 Sc486 2.105 . S
O504 C488 1.268 . S
O505 Sc485 2.105 . S
O505 C490 1.268 . S
Sc506 O509 2.025 . S
Sc506 O516 2.105 . S
Sc506 O519 2.105 . S
Sc506 O522 2.105 . S
Sc506 O525 2.105 . S
Sc507 O509 2.025 . S
Sc507 O517 2.105 . S
Sc507 O521 2.105 . S
Sc507 O523 2.105 . S
Sc507 O527 2.105 . S
Sc508 O509 2.025 . S
Sc508 O518 2.105 . S
Sc508 O520 2.105 . S
Sc508 O524 2.105 . S
Sc508 O526 2.105 . S
O509 Sc506 2.025 . S
O509 Sc507 2.025 . S
O509 Sc508 2.025 . S
C510 O516 1.268 . S
C510 O526 1.268 . S
C511 O517 1.268 . S
C511 O525 1.268 . S
C512 O518 1.268 . S
C512 O527 1.268 . S
C513 O519 1.268 . S
C513 O523 1.268 . S
C514 O520 1.268 . S
C514 O522 1.268 . S
C515 O521 1.268 . S
C515 O524 1.268 . S
O516 Sc506 2.105 . S
O516 C510 1.268 . S
O517 Sc507 2.105 . S
O517 C511 1.268 . S
O518 Sc508 2.105 . S
O518 C512 1.268 . S
O519 Sc506 2.105 . S
O519 C513 1.268 . S
O520 Sc508 2.105 . S
O520 C514 1.268 . S
O521 Sc507 2.105 . S
O521 C515 1.268 . S
O522 Sc506 2.105 . S
O522 C514 1.268 . S
O523 Sc507 2.105 . S
O523 C513 1.268 . S
O524 Sc508 2.105 . S
O524 C515 1.268 . S
O525 Sc506 2.105 . S
O525 C511 1.268 . S
O526 Sc508 2.105 . S
O526 C510 1.268 . S
O527 Sc507 2.105 . S
O527 C512 1.268 . S
Sc528 O531 2.025 1_556 S
Sc528 O538 2.105 . S
Sc528 O541 2.105 1_556 S
Sc528 O544 2.105 . S
Sc528 O547 2.105 . S
Sc529 O531 2.025 . S
Sc529 O539 2.105 . S
Sc529 O543 2.105 . S
Sc529 O545 2.105 . S
Sc529 O549 2.105 . S
Sc530 O531 2.025 . S
Sc530 O540 2.105 . S
Sc530 O542 2.105 . S
Sc530 O546 2.105 . S
Sc530 O548 2.105 1_554 S
O531 Sc528 2.025 1_554 S
O531 Sc529 2.025 . S
O531 Sc530 2.025 . S
C532 O538 1.268 . S
C532 O548 1.268 . S
C533 O539 1.268 1_556 S
C533 O547 1.268 . S
C534 O540 1.268 . S
C534 O549 1.268 . S
C535 O541 1.268 . S
C535 O545 1.268 . S
C536 O542 1.268 1_556 S
C536 O544 1.268 . S
C537 O543 1.268 . S
C537 O546 1.268 . S
O538 Sc528 2.105 . S
O538 C532 1.268 . S
O539 Sc529 2.105 . S
O539 C533 1.268 1_554 S
O540 Sc530 2.105 . S
O540 C534 1.268 . S
O541 Sc528 2.105 1_554 S
O541 C535 1.268 . S
O542 Sc530 2.105 . S
O542 C536 1.268 1_554 S
O543 Sc529 2.105 . S
O543 C537 1.268 . S
O544 Sc528 2.105 . S
O544 C536 1.268 . S
O545 Sc529 2.105 . S
O545 C535 1.268 . S
O546 Sc530 2.105 . S
O546 C537 1.268 . S
O547 Sc528 2.105 . S
O547 C533 1.268 . S
O548 Sc530 2.105 1_556 S
O548 C532 1.268 . S
O549 Sc529 2.105 . S
O549 C534 1.268 . S
Sc550 O553 2.025 . S
Sc550 O560 2.105 . S
Sc550 O563 2.105 . S
Sc550 O566 2.105 1_554 S
Sc550 O569 2.105 . S
Sc551 O553 2.025 . S
Sc551 O561 2.105 . S
Sc551 O565 2.105 . S
Sc551 O567 2.105 . S
Sc551 O571 2.105 . S
Sc552 O553 2.025 1_556 S
Sc552 O562 2.105 1_556 S
Sc552 O564 2.105 . S
Sc552 O568 2.105 . S
Sc552 O570 2.105 . S
O553 Sc550 2.025 . S
O553 Sc551 2.025 . S
O553 Sc552 2.025 1_554 S
C554 O560 1.268 1_556 S
C554 O570 1.268 . S
C555 O561 1.268 . S
C555 O569 1.268 . S
C556 O562 1.268 . S
C556 O571 1.268 . S
C557 O563 1.268 . S
C557 O567 1.268 . S
C558 O564 1.268 . S
C558 O566 1.268 . S
C559 O565 1.268 1_556 S
C559 O568 1.268 . S
O560 Sc550 2.105 . S
O560 C554 1.268 1_554 S
O561 Sc551 2.105 . S
O561 C555 1.268 . S
O562 Sc552 2.105 1_554 S
O562 C556 1.268 . S
O563 Sc550 2.105 . S
O563 C557 1.268 . S
O564 Sc552 2.105 . S
O564 C558 1.268 . S
O565 Sc551 2.105 . S
O565 C559 1.268 1_554 S
O566 Sc550 2.105 1_556 S
O566 C558 1.268 . S
O567 Sc551 2.105 . S
O567 C557 1.268 . S
O568 Sc552 2.105 . S
O568 C559 1.268 . S
O569 Sc550 2.105 . S
O569 C555 1.268 . S
O570 Sc552 2.105 . S
O570 C554 1.268 . S
O571 Sc551 2.105 . S
O571 C556 1.268 . S
Sc572 O575 2.025 . S
Sc572 O582 2.105 . S
Sc572 O585 2.105 . S
Sc572 O588 2.105 . S
Sc572 O591 2.105 . S
Sc573 O575 2.025 . S
Sc573 O583 2.105 . S
Sc573 O587 2.105 . S
Sc573 O589 2.105 . S
Sc573 O593 2.105 . S
Sc574 O575 2.025 . S
Sc574 O584 2.105 . S
Sc574 O586 2.105 . S
Sc574 O590 2.105 . S
Sc574 O592 2.105 . S
O575 Sc572 2.025 . S
O575 Sc573 2.025 . S
O575 Sc574 2.025 . S
C576 O582 1.268 . S
C576 O592 1.268 . S
C577 O583 1.268 . S
C577 O591 1.268 . S
C578 O584 1.268 . S
C578 O593 1.268 . S
C579 O585 1.268 . S
C579 O589 1.268 . S
C580 O586 1.268 . S
C580 O588 1.268 . S
C581 O587 1.268 . S
C581 O590 1.268 . S
O582 Sc572 2.105 . S
O582 C576 1.268 . S
O583 Sc573 2.105 . S
O583 C577 1.268 . S
O584 Sc574 2.105 . S
O584 C578 1.268 . S
O585 Sc572 2.105 . S
O585 C579 1.268 . S
O586 Sc574 2.105 . S
O586 C580 1.268 . S
O587 Sc573 2.105 . S
O587 C581 1.268 . S
O588 Sc572 2.105 . S
O588 C580 1.268 . S
O589 Sc573 2.105 . S
O589 C579 1.268 . S
O590 Sc574 2.105 . S
O590 C581 1.268 . S
O591 Sc572 2.105 . S
O591 C577 1.268 . S
O592 Sc574 2.105 . S
O592 C576 1.268 . S
O593 Sc573 2.105 . S
O593 C578 1.268 . S
Sc594 O597 2.025 . S
Sc594 O604 2.105 . S
Sc594 O607 2.105 . S
Sc594 O610 2.105 . S
Sc594 O613 2.105 . S
Sc595 O597 2.025 . S
Sc595 O605 2.105 . S
Sc595 O609 2.105 . S
Sc595 O611 2.105 . S
Sc595 O615 2.105 . S
Sc596 O597 2.025 . S
Sc596 O606 2.105 . S
Sc596 O608 2.105 . S
Sc596 O612 2.105 . S
Sc596 O614 2.105 . S
O597 Sc594 2.025 . S
O597 Sc595 2.025 . S
O597 Sc596 2.025 . S
C598 O604 1.268 . S
C598 O614 1.268 . S
C599 O605 1.268 . S
C599 O613 1.268 . S
C600 O606 1.268 . S
C600 O615 1.268 . S
C601 O607 1.268 . S
C601 O611 1.268 . S
C602 O608 1.268 . S
C602 O610 1.268 . S
C603 O609 1.268 . S
C603 O612 1.268 . S
O604 Sc594 2.105 . S
O604 C598 1.268 . S
O605 Sc595 2.105 . S
O605 C599 1.268 . S
O606 Sc596 2.105 . S
O606 C600 1.268 . S
O607 Sc594 2.105 . S
O607 C601 1.268 . S
O608 Sc596 2.105 . S
O608 C602 1.268 . S
O609 Sc595 2.105 . S
O609 C603 1.268 . S
O610 Sc594 2.105 . S
O610 C602 1.268 . S
O611 Sc595 2.105 . S
O611 C601 1.268 . S
O612 Sc596 2.105 . S
O612 C603 1.268 . S
O613 Sc594 2.105 . S
O613 C599 1.268 . S
O614 Sc596 2.105 . S
O614 C598 1.268 . S
O615 Sc595 2.105 . S
O615 C600 1.268 . S
Sc616 O619 2.025 . S
Sc616 O626 2.105 1_556 S
Sc616 O629 2.105 . S
Sc616 O632 2.105 . S
Sc616 O635 2.105 . S
Sc617 O619 2.025 . S
Sc617 O627 2.105 . S
Sc617 O631 2.105 . S
Sc617 O633 2.105 . S
Sc617 O637 2.105 . S
Sc618 O619 2.025 1_554 S
Sc618 O628 2.105 . S
Sc618 O630 2.105 . S
Sc618 O634 2.105 1_554 S
Sc618 O636 2.105 . S
O619 Sc616 2.025 . S
O619 Sc617 2.025 . S
O619 Sc618 2.025 1_556 S
C620 O626 1.268 . S
C620 O636 1.268 . S
C621 O627 1.268 . S
C621 O635 1.268 . S
C622 O628 1.268 . S
C622 O637 1.268 1_554 S
C623 O629 1.268 . S
C623 O633 1.268 . S
C624 O630 1.268 . S
C624 O632 1.268 1_554 S
C625 O631 1.268 . S
C625 O634 1.268 . S
O626 Sc616 2.105 1_554 S
O626 C620 1.268 . S
O627 Sc617 2.105 . S
O627 C621 1.268 . S
O628 Sc618 2.105 . S
O628 C622 1.268 . S
O629 Sc616 2.105 . S
O629 C623 1.268 . S
O630 Sc618 2.105 . S
O630 C624 1.268 . S
O631 Sc617 2.105 . S
O631 C625 1.268 . S
O632 Sc616 2.105 . S
O632 C624 1.268 1_556 S
O633 Sc617 2.105 . S
O633 C623 1.268 . S
O634 Sc618 2.105 1_556 S
O634 C625 1.268 . S
O635 Sc616 2.105 . S
O635 C621 1.268 . S
O636 Sc618 2.105 . S
O636 C620 1.268 . S
O637 Sc617 2.105 . S
O637 C622 1.268 1_556 S
Sc638 O641 2.025 1_554 S
Sc638 O648 2.105 . S
Sc638 O651 2.105 . S
Sc638 O654 2.105 . S
Sc638 O657 2.105 1_554 S
Sc639 O641 2.025 . S
Sc639 O649 2.105 . S
Sc639 O653 2.105 . S
Sc639 O655 2.105 . S
Sc639 O659 2.105 . S
Sc640 O641 2.025 . S
Sc640 O650 2.105 . S
Sc640 O652 2.105 1_556 S
Sc640 O656 2.105 . S
Sc640 O658 2.105 . S
O641 Sc638 2.025 1_556 S
O641 Sc639 2.025 . S
O641 Sc640 2.025 . S
C642 O648 1.268 . S
C642 O658 1.268 1_554 S
C643 O649 1.268 . S
C643 O657 1.268 . S
C644 O650 1.268 . S
C644 O659 1.268 . S
C645 O651 1.268 . S
C645 O655 1.268 1_554 S
C646 O652 1.268 . S
C646 O654 1.268 . S
C647 O653 1.268 . S
C647 O656 1.268 . S
O648 Sc638 2.105 . S
O648 C642 1.268 . S
O649 Sc639 2.105 . S
O649 C643 1.268 . S
O650 Sc640 2.105 . S
O650 C644 1.268 . S
O651 Sc638 2.105 . S
O651 C645 1.268 . S
O652 Sc640 2.105 1_554 S
O652 C646 1.268 . S
O653 Sc639 2.105 . S
O653 C647 1.268 . S
O654 Sc638 2.105 . S
O654 C646 1.268 . S
O655 Sc639 2.105 . S
O655 C645 1.268 1_556 S
O656 Sc640 2.105 . S
O656 C647 1.268 . S
O657 Sc638 2.105 1_556 S
O657 C643 1.268 . S
O658 Sc640 2.105 . S
O658 C642 1.268 1_556 S
O659 Sc639 2.105 . S
O659 C644 1.268 . S
Sc660 O663 2.025 . S
Sc660 O670 2.105 . S
Sc660 O673 2.105 . S
Sc660 O676 2.105 . S
Sc660 O679 2.105 . S
Sc661 O663 2.025 . S
Sc661 O671 2.105 . S
Sc661 O675 2.105 . S
Sc661 O677 2.105 . S
Sc661 O681 2.105 . S
Sc662 O663 2.025 . S
Sc662 O672 2.105 . S
Sc662 O674 2.105 . S
Sc662 O678 2.105 . S
Sc662 O680 2.105 . S
O663 Sc660 2.025 . S
O663 Sc661 2.025 . S
O663 Sc662 2.025 . S
C664 O670 1.268 . S
C664 O680 1.268 . S
C665 O671 1.268 . S
C665 O679 1.268 . S
C666 O672 1.268 . S
C666 O681 1.268 . S
C667 O673 1.268 . S
C667 O677 1.268 . S
C668 O674 1.268 . S
C668 O676 1.268 . S
C669 O675 1.268 . S
C669 O678 1.268 . S
O670 Sc660 2.105 . S
O670 C664 1.268 . S
O671 Sc661 2.105 . S
O671 C665 1.268 . S
O672 Sc662 2.105 . S
O672 C666 1.268 . S
O673 Sc660 2.105 . S
O673 C667 1.268 . S
O674 Sc662 2.105 . S
O674 C668 1.268 . S
O675 Sc661 2.105 . S
O675 C669 1.268 . S
O676 Sc660 2.105 . S
O676 C668 1.268 . S
O677 Sc661 2.105 . S
O677 C667 1.268 . S
O678 Sc662 2.105 . S
O678 C669 1.268 . S
O679 Sc660 2.105 . S
O679 C665 1.268 . S
O680 Sc662 2.105 . S
O680 C664 1.268 . S
O681 Sc661 2.105 . S
O681 C666 1.268 . S
Sc682 O685 2.025 . S
Sc682 O692 2.105 . S
Sc682 O695 2.105 . S
Sc682 O698 2.105 . S
Sc682 O701 2.105 . S
Sc683 O685 2.025 . S
Sc683 O693 2.105 . S
Sc683 O697 2.105 . S
Sc683 O699 2.105 . S
Sc683 O703 2.105 . S
Sc684 O685 2.025 . S
Sc684 O694 2.105 . S
Sc684 O696 2.105 . S
Sc684 O700 2.105 . S
Sc684 O702 2.105 . S
O685 Sc682 2.025 . S
O685 Sc683 2.025 . S
O685 Sc684 2.025 . S
C686 O692 1.268 . S
C686 O702 1.268 . S
C687 O693 1.268 . S
C687 O701 1.268 . S
C688 O694 1.268 . S
C688 O703 1.268 . S
C689 O695 1.268 . S
C689 O699 1.268 . S
C690 O696 1.268 . S
C690 O698 1.268 . S
C691 O697 1.268 . S
C691 O700 1.268 . S
O692 Sc682 2.105 . S
O692 C686 1.268 . S
O693 Sc683 2.105 . S
O693 C687 1.268 . S
O694 Sc684 2.105 . S
O694 C688 1.268 . S
O695 Sc682 2.105 . S
O695 C689 1.268 . S
O696 Sc684 2.105 . S
O696 C690 1.268 . S
O697 Sc683 2.105 . S
O697 C691 1.268 . S
O698 Sc682 2.105 . S
O698 C690 1.268 . S
O699 Sc683 2.105 . S
O699 C689 1.268 . S
O700 Sc684 2.105 . S
O700 C691 1.268 . S
O701 Sc682 2.105 . S
O701 C687 1.268 . S
O702 Sc684 2.105 . S
O702 C686 1.268 . S
O703 Sc683 2.105 . S
O703 C688 1.268 . S
H704 C712 0.950 . S
H705 C717 0.950 . S
H706 C714 0.950 . S
H707 C716 0.950 . S
H708 C718 0.950 . S
H709 C720 0.950 . S
H710 C722 0.950 . S
H711 C723 0.950 . S
C712 H704 0.950 . S
C712 C713 1.386 . S
C712 C714 1.391 . S
C713 C712 1.386 . S
C713 C717 1.393 . S
C714 H706 0.950 . S
C714 C712 1.391 . S
C714 C715 1.400 . S
C715 C714 1.400 . S
C715 C716 1.398 . S
C715 C721 1.491 . S
C716 H707 0.950 . S
C716 C715 1.398 . S
C716 C717 1.391 . S
C717 H705 0.950 . S
C717 C713 1.393 . S
C717 C716 1.391 . S
C718 H708 0.950 . S
C718 C719 1.386 . S
C718 C720 1.391 . S
C719 C718 1.386 . S
C719 C723 1.393 . S
C720 H709 0.950 . S
C720 C718 1.391 . S
C720 C721 1.400 . S
C721 C715 1.491 . S
C721 C720 1.400 . S
C721 C722 1.398 . S
C722 H710 0.950 . S
C722 C721 1.398 . S
C722 C723 1.391 . S
C723 H711 0.950 . S
C723 C719 1.393 . S
C723 C722 1.391 . S
H724 C732 0.950 . S
H725 C737 0.950 . S
H726 C734 0.950 . S
H727 C736 0.950 . S
H728 C738 0.950 . S
H729 C740 0.950 . S
H730 C742 0.950 . S
H731 C743 0.950 . S
C732 H724 0.950 . S
C732 C733 1.386 . S
C732 C734 1.391 . S
C733 C732 1.386 . S
C733 C737 1.393 . S
C734 H726 0.950 . S
C734 C732 1.391 . S
C734 C735 1.400 . S
C735 C734 1.400 . S
C735 C736 1.398 . S
C735 C741 1.491 . S
C736 H727 0.950 . S
C736 C735 1.398 . S
C736 C737 1.391 . S
C737 H725 0.950 . S
C737 C733 1.393 . S
C737 C736 1.391 . S
C738 H728 0.950 . S
C738 C739 1.386 . S
C738 C740 1.391 . S
C739 C738 1.386 . S
C739 C743 1.393 . S
C740 H729 0.950 . S
C740 C738 1.391 . S
C740 C741 1.400 . S
C741 C735 1.491 . S
C741 C740 1.400 . S
C741 C742 1.398 . S
C742 H730 0.950 . S
C742 C741 1.398 . S
C742 C743 1.391 . S
C743 H731 0.950 . S
C743 C739 1.393 . S
C743 C742 1.391 . S
H744 C752 0.950 . S
H745 C757 0.950 . S
H746 C754 0.950 . S
H747 C756 0.950 . S
H748 C758 0.950 . S
H749 C760 0.950 . S
H750 C762 0.950 . S
H751 C763 0.950 . S
C752 H744 0.950 . S
C752 C753 1.386 . S
C752 C754 1.391 . S
C753 C752 1.386 . S
C753 C757 1.393 . S
C754 H746 0.950 . S
C754 C752 1.391 . S
C754 C755 1.400 . S
C755 C754 1.400 . S
C755 C756 1.398 . S
C755 C761 1.491 . S
C756 H747 0.950 . S
C756 C755 1.398 . S
C756 C757 1.391 . S
C757 H745 0.950 . S
C757 C753 1.393 . S
C757 C756 1.391 . S
C758 H748 0.950 . S
C758 C759 1.386 . S
C758 C760 1.391 . S
C759 C758 1.386 . S
C759 C763 1.393 . S
C760 H749 0.950 . S
C760 C758 1.391 . S
C760 C761 1.400 . S
C761 C755 1.491 . S
C761 C760 1.400 . S
C761 C762 1.398 . S
C762 H750 0.950 . S
C762 C761 1.398 . S
C762 C763 1.391 . S
C763 H751 0.950 . S
C763 C759 1.393 . S
C763 C762 1.391 . S
H764 C772 0.950 . S
H765 C777 0.950 . S
H766 C774 0.950 . S
H767 C776 0.950 . S
H768 C778 0.950 . S
H769 C780 0.950 . S
H770 C782 0.950 . S
H771 C783 0.950 . S
C772 H764 0.950 . S
C772 C773 1.386 . S
C772 C774 1.391 . S
C773 C772 1.386 . S
C773 C777 1.393 . S
C774 H766 0.950 . S
C774 C772 1.391 . S
C774 C775 1.400 . S
C775 C774 1.400 . S
C775 C776 1.398 . S
C775 C781 1.491 . S
C776 H767 0.950 . S
C776 C775 1.398 . S
C776 C777 1.391 . S
C777 H765 0.950 . S
C777 C773 1.393 . S
C777 C776 1.391 . S
C778 H768 0.950 . S
C778 C779 1.386 . S
C778 C780 1.391 . S
C779 C778 1.386 . S
C779 C783 1.393 . S
C780 H769 0.950 . S
C780 C778 1.391 . S
C780 C781 1.400 . S
C781 C775 1.491 . S
C781 C780 1.400 . S
C781 C782 1.398 . S
C782 H770 0.950 . S
C782 C781 1.398 . S
C782 C783 1.391 . S
C783 H771 0.950 . S
C783 C779 1.393 . S
C783 C782 1.391 . S
H784 C792 0.950 . S
H785 C797 0.950 . S
H786 C794 0.950 . S
H787 C796 0.950 . S
H788 C798 0.950 . S
H789 C800 0.950 . S
H790 C802 0.950 . S
H791 C803 0.950 . S
C792 H784 0.950 . S
C792 C793 1.386 . S
C792 C794 1.391 . S
C793 C792 1.386 . S
C793 C797 1.393 . S
C794 H786 0.950 . S
C794 C792 1.391 . S
C794 C795 1.400 . S
C795 C794 1.400 . S
C795 C796 1.398 . S
C795 C801 1.491 . S
C796 H787 0.950 . S
C796 C795 1.398 . S
C796 C797 1.391 . S
C797 H785 0.950 . S
C797 C793 1.393 . S
C797 C796 1.391 . S
C798 H788 0.950 . S
C798 C799 1.386 . S
C798 C800 1.391 . S
C799 C798 1.386 . S
C799 C803 1.393 . S
C800 H789 0.950 . S
C800 C798 1.391 . S
C800 C801 1.400 . S
C801 C795 1.491 . S
C801 C800 1.400 . S
C801 C802 1.398 . S
C802 H790 0.950 . S
C802 C801 1.398 . S
C802 C803 1.391 . S
C803 H791 0.950 . S
C803 C799 1.393 . S
C803 C802 1.391 . S
H804 C812 0.950 . S
H805 C817 0.950 . S
H806 C814 0.950 . S
H807 C816 0.950 . S
H808 C818 0.950 . S
H809 C820 0.950 . S
H810 C822 0.950 . S
H811 C823 0.950 . S
C812 H804 0.950 . S
C812 C813 1.386 . S
C812 C814 1.391 . S
C813 C812 1.386 . S
C813 C817 1.393 . S
C814 H806 0.950 . S
C814 C812 1.391 . S
C814 C815 1.400 . S
C815 C814 1.400 . S
C815 C816 1.398 . S
C815 C821 1.491 . S
C816 H807 0.950 . S
C816 C815 1.398 . S
C816 C817 1.391 . S
C817 H805 0.950 . S
C817 C813 1.393 . S
C817 C816 1.391 . S
C818 H808 0.950 . S
C818 C819 1.386 . S
C818 C820 1.391 . S
C819 C818 1.386 . S
C819 C823 1.393 . S
C820 H809 0.950 . S
C820 C818 1.391 . S
C820 C821 1.400 . S
C821 C815 1.491 . S
C821 C820 1.400 . S
C821 C822 1.398 . S
C822 H810 0.950 . S
C822 C821 1.398 . S
C822 C823 1.391 . S
C823 H811 0.950 . S
C823 C819 1.393 . S
C823 C822 1.391 . S
H824 C832 0.950 . S
H825 C837 0.950 . S
H826 C834 0.950 . S
H827 C836 0.950 . S
H828 C838 0.950 . S
H829 C840 0.950 . S
H830 C842 0.950 . S
H831 C843 0.950 . S
C832 H824 0.950 . S
C832 C833 1.386 . S
C832 C834 1.391 . S
C833 C832 1.386 . S
C833 C837 1.393 . S
C834 H826 0.950 . S
C834 C832 1.391 . S
C834 C835 1.400 . S
C835 C834 1.400 . S
C835 C836 1.398 . S
C835 C841 1.491 . S
C836 H827 0.950 . S
C836 C835 1.398 . S
C836 C837 1.391 . S
C837 H825 0.950 . S
C837 C833 1.393 . S
C837 C836 1.391 . S
C838 H828 0.950 . S
C838 C839 1.386 . S
C838 C840 1.391 . S
C839 C838 1.386 . S
C839 C843 1.393 . S
C840 H829 0.950 . S
C840 C838 1.391 . S
C840 C841 1.400 . S
C841 C835 1.491 . S
C841 C840 1.400 . S
C841 C842 1.398 . S
C842 H830 0.950 . S
C842 C841 1.398 . S
C842 C843 1.391 . S
C843 H831 0.950 . S
C843 C839 1.393 . S
C843 C842 1.391 . S
H844 C852 0.950 . S
H845 C857 0.950 . S
H846 C854 0.950 . S
H847 C856 0.950 . S
H848 C858 0.950 . S
H849 C860 0.950 . S
H850 C862 0.950 . S
H851 C863 0.950 . S
C852 H844 0.950 . S
C852 C853 1.386 . S
C852 C854 1.391 . S
C853 C852 1.386 . S
C853 C857 1.393 . S
C854 H846 0.950 . S
C854 C852 1.391 . S
C854 C855 1.400 . S
C855 C854 1.400 . S
C855 C856 1.398 . S
C855 C861 1.491 . S
C856 H847 0.950 . S
C856 C855 1.398 . S
C856 C857 1.391 . S
C857 H845 0.950 . S
C857 C853 1.393 . S
C857 C856 1.391 . S
C858 H848 0.950 . S
C858 C859 1.386 . S
C858 C860 1.391 . S
C859 C858 1.386 . S
C859 C863 1.393 . S
C860 H849 0.950 . S
C860 C858 1.391 . S
C860 C861 1.400 . S
C861 C855 1.491 . S
C861 C860 1.400 . S
C861 C862 1.398 . S
C862 H850 0.950 . S
C862 C861 1.398 . S
C862 C863 1.391 . S
C863 H851 0.950 . S
C863 C859 1.393 . S
C863 C862 1.391 . S
H864 C872 0.950 . S
H865 C877 0.950 . S
H866 C874 0.950 . S
H867 C876 0.950 . S
H868 C878 0.950 . S
H869 C880 0.950 . S
H870 C882 0.950 . S
H871 C883 0.950 . S
C872 H864 0.950 . S
C872 C873 1.386 . S
C872 C874 1.391 . S
C873 C872 1.386 . S
C873 C877 1.393 . S
C874 H866 0.950 . S
C874 C872 1.391 . S
C874 C875 1.400 . S
C875 C874 1.400 . S
C875 C876 1.398 . S
C875 C881 1.491 . S
C876 H867 0.950 . S
C876 C875 1.398 . S
C876 C877 1.391 . S
C877 H865 0.950 . S
C877 C873 1.393 . S
C877 C876 1.391 . S
C878 H868 0.950 . S
C878 C879 1.386 . S
C878 C880 1.391 . S
C879 C878 1.386 . S
C879 C883 1.393 . S
C880 H869 0.950 . S
C880 C878 1.391 . S
C880 C881 1.400 . S
C881 C875 1.491 . S
C881 C880 1.400 . S
C881 C882 1.398 . S
C882 H870 0.950 . S
C882 C881 1.398 . S
C882 C883 1.391 . S
C883 H871 0.950 . S
C883 C879 1.393 . S
C883 C882 1.391 . S
H884 C892 0.950 . S
H885 C897 0.950 . S
H886 C894 0.950 . S
H887 C896 0.950 . S
H888 C898 0.950 . S
H889 C900 0.950 . S
H890 C902 0.950 . S
H891 C903 0.950 . S
C892 H884 0.950 . S
C892 C893 1.386 . S
C892 C894 1.391 . S
C893 C892 1.386 . S
C893 C897 1.393 . S
C894 H886 0.950 . S
C894 C892 1.391 . S
C894 C895 1.400 . S
C895 C894 1.400 . S
C895 C896 1.398 . S
C895 C901 1.491 . S
C896 H887 0.950 . S
C896 C895 1.398 . S
C896 C897 1.391 . S
C897 H885 0.950 . S
C897 C893 1.393 . S
C897 C896 1.391 . S
C898 H888 0.950 . S
C898 C899 1.386 . S
C898 C900 1.391 . S
C899 C898 1.386 . S
C899 C903 1.393 . S
C900 H889 0.950 . S
C900 C898 1.391 . S
C900 C901 1.400 . S
C901 C895 1.491 . S
C901 C900 1.400 . S
C901 C902 1.398 . S
C902 H890 0.950 . S
C902 C901 1.398 . S
C902 C903 1.391 . S
C903 H891 0.950 . S
C903 C899 1.393 . S
C903 C902 1.391 . S
H904 C912 0.950 . S
H905 C917 0.950 . S
H906 C914 0.950 . S
H907 C916 0.950 . S
H908 C918 0.950 . S
H909 C920 0.950 . S
H910 C922 0.950 . S
H911 C923 0.950 . S
C912 H904 0.950 . S
C912 C913 1.386 . S
C912 C914 1.391 . S
C913 C912 1.386 . S
C913 C917 1.393 . S
C914 H906 0.950 . S
C914 C912 1.391 . S
C914 C915 1.400 . S
C915 C914 1.400 . S
C915 C916 1.398 . S
C915 C921 1.491 . S
C916 H907 0.950 . S
C916 C915 1.398 . S
C916 C917 1.391 . S
C917 H905 0.950 . S
C917 C913 1.393 . S
C917 C916 1.391 . S
C918 H908 0.950 . S
C918 C919 1.386 . S
C918 C920 1.391 . S
C919 C918 1.386 . S
C919 C923 1.393 . S
C920 H909 0.950 . S
C920 C918 1.391 . S
C920 C921 1.400 . S
C921 C915 1.491 . S
C921 C920 1.400 . S
C921 C922 1.398 . S
C922 H910 0.950 . S
C922 C921 1.398 . S
C922 C923 1.391 . S
C923 H911 0.950 . S
C923 C919 1.393 . S
C923 C922 1.391 . S
H924 C932 0.950 . S
H925 C937 0.950 . S
H926 C934 0.950 . S
H927 C936 0.950 . S
H928 C938 0.950 . S
H929 C940 0.950 . S
H930 C942 0.950 . S
H931 C943 0.950 . S
C932 H924 0.950 . S
C932 C933 1.386 . S
C932 C934 1.391 . S
C933 C932 1.386 . S
C933 C937 1.393 . S
C934 H926 0.950 . S
C934 C932 1.391 . S
C934 C935 1.400 . S
C935 C934 1.400 . S
C935 C936 1.398 . S
C935 C941 1.491 . S
C936 H927 0.950 . S
C936 C935 1.398 . S
C936 C937 1.391 . S
C937 H925 0.950 . S
C937 C933 1.393 . S
C937 C936 1.391 . S
C938 H928 0.950 . S
C938 C939 1.386 . S
C938 C940 1.391 . S
C939 C938 1.386 . S
C939 C943 1.393 . S
C940 H929 0.950 . S
C940 C938 1.391 . S
C940 C941 1.400 . S
C941 C935 1.491 . S
C941 C940 1.400 . S
C941 C942 1.398 . S
C942 H930 0.950 . S
C942 C941 1.398 . S
C942 C943 1.391 . S
C943 H931 0.950 . S
C943 C939 1.393 . S
C943 C942 1.391 . S
H944 C952 0.950 . S
H945 C957 0.950 . S
H946 C954 0.950 . S
H947 C956 0.950 . S
H948 C958 0.950 . S
H949 C960 0.950 . S
H950 C962 0.950 . S
H951 C963 0.950 . S
C952 H944 0.950 . S
C952 C953 1.386 . S
C952 C954 1.391 . S
C953 C952 1.386 . S
C953 C957 1.393 . S
C954 H946 0.950 . S
C954 C952 1.391 . S
C954 C955 1.400 . S
C955 C954 1.400 . S
C955 C956 1.398 . S
C955 C961 1.491 . S
C956 H947 0.950 . S
C956 C955 1.398 . S
C956 C957 1.391 . S
C957 H945 0.950 . S
C957 C953 1.393 . S
C957 C956 1.391 . S
C958 H948 0.950 . S
C958 C959 1.386 . S
C958 C960 1.391 . S
C959 C958 1.386 . S
C959 C963 1.393 . S
C960 H949 0.950 . S
C960 C958 1.391 . S
C960 C961 1.400 . S
C961 C955 1.491 . S
C961 C960 1.400 . S
C961 C962 1.398 . S
C962 H950 0.950 . S
C962 C961 1.398 . S
C962 C963 1.391 . S
C963 H951 0.950 . S
C963 C959 1.393 . S
C963 C962 1.391 . S
H964 C972 0.950 . S
H965 C977 0.950 . S
H966 C974 0.950 . S
H967 C976 0.950 . S
H968 C978 0.950 . S
H969 C980 0.950 . S
H970 C982 0.950 . S
H971 C983 0.950 . S
C972 H964 0.950 . S
C972 C973 1.386 . S
C972 C974 1.391 . S
C973 C972 1.386 . S
C973 C977 1.393 . S
C974 H966 0.950 . S
C974 C972 1.391 . S
C974 C975 1.400 . S
C975 C974 1.400 . S
C975 C976 1.398 . S
C975 C981 1.491 . S
C976 H967 0.950 . S
C976 C975 1.398 . S
C976 C977 1.391 . S
C977 H965 0.950 . S
C977 C973 1.393 . S
C977 C976 1.391 . S
C978 H968 0.950 . S
C978 C979 1.386 . S
C978 C980 1.391 . S
C979 C978 1.386 . S
C979 C983 1.393 . S
C980 H969 0.950 . S
C980 C978 1.391 . S
C980 C981 1.400 . S
C981 C975 1.491 . S
C981 C980 1.400 . S
C981 C982 1.398 . S
C982 H970 0.950 . S
C982 C981 1.398 . S
C982 C983 1.391 . S
C983 H971 0.950 . S
C983 C979 1.393 . S
C983 C982 1.391 . S
H984 C992 0.950 . S
H985 C997 0.950 . S
H986 C994 0.950 . S
H987 C996 0.950 . S
H988 C998 0.950 . S
H989 C1000 0.950 . S
H990 C1002 0.950 . S
H991 C1003 0.950 . S
C992 H984 0.950 . S
C992 C993 1.386 . S
C992 C994 1.391 . S
C993 C992 1.386 . S
C993 C997 1.393 . S
C994 H986 0.950 . S
C994 C992 1.391 . S
C994 C995 1.400 . S
C995 C994 1.400 . S
C995 C996 1.398 . S
C995 C1001 1.491 . S
C996 H987 0.950 . S
C996 C995 1.398 . S
C996 C997 1.391 . S
C997 H985 0.950 . S
C997 C993 1.393 . S
C997 C996 1.391 . S
C998 H988 0.950 . S
C998 C999 1.386 . S
C998 C1000 1.391 . S
C999 C998 1.386 . S
C999 C1003 1.393 . S
C1000 H989 0.950 . S
C1000 C998 1.391 . S
C1000 C1001 1.400 . S
C1001 C995 1.491 . S
C1001 C1000 1.400 . S
C1001 C1002 1.398 . S
C1002 H990 0.950 . S
C1002 C1001 1.398 . S
C1002 C1003 1.391 . S
C1003 H991 0.950 . S
C1003 C999 1.393 . S
C1003 C1002 1.391 . S
H1004 C1012 0.950 . S
H1005 C1017 0.950 . S
H1006 C1014 0.950 . S
H1007 C1016 0.950 . S
H1008 C1018 0.950 . S
H1009 C1020 0.950 . S
H1010 C1022 0.950 . S
H1011 C1023 0.950 . S
C1012 H1004 0.950 . S
C1012 C1013 1.386 . S
C1012 C1014 1.391 . S
C1013 C1012 1.386 . S
C1013 C1017 1.393 . S
C1014 H1006 0.950 . S
C1014 C1012 1.391 . S
C1014 C1015 1.400 . S
C1015 C1014 1.400 . S
C1015 C1016 1.398 . S
C1015 C1021 1.491 . S
C1016 H1007 0.950 . S
C1016 C1015 1.398 . S
C1016 C1017 1.391 . S
C1017 H1005 0.950 . S
C1017 C1013 1.393 . S
C1017 C1016 1.391 . S
C1018 H1008 0.950 . S
C1018 C1019 1.386 . S
C1018 C1020 1.391 . S
C1019 C1018 1.386 . S
C1019 C1023 1.393 . S
C1020 H1009 0.950 . S
C1020 C1018 1.391 . S
C1020 C1021 1.400 . S
C1021 C1015 1.491 . S
C1021 C1020 1.400 . S
C1021 C1022 1.398 . S
C1022 H1010 0.950 . S
C1022 C1021 1.398 . S
C1022 C1023 1.391 . S
C1023 H1011 0.950 . S
C1023 C1019 1.393 . S
C1023 C1022 1.391 . S
H1024 C1032 0.950 . S
H1025 C1037 0.950 . S
H1026 C1034 0.950 . S
H1027 C1036 0.950 . S
H1028 C1038 0.950 . S
H1029 C1040 0.950 . S
H1030 C1042 0.950 . S
H1031 C1043 0.950 . S
C1032 H1024 0.950 . S
C1032 C1033 1.386 . S
C1032 C1034 1.391 . S
C1033 C1032 1.386 . S
C1033 C1037 1.393 . S
C1034 H1026 0.950 . S
C1034 C1032 1.391 . S
C1034 C1035 1.400 . S
C1035 C1034 1.400 . S
C1035 C1036 1.398 . S
C1035 C1041 1.491 . S
C1036 H1027 0.950 . S
C1036 C1035 1.398 . S
C1036 C1037 1.391 . S
C1037 H1025 0.950 . S
C1037 C1033 1.393 . S
C1037 C1036 1.391 . S
C1038 H1028 0.950 . S
C1038 C1039 1.386 . S
C1038 C1040 1.391 . S
C1039 C1038 1.386 . S
C1039 C1043 1.393 . S
C1040 H1029 0.950 . S
C1040 C1038 1.391 . S
C1040 C1041 1.400 . S
C1041 C1035 1.491 . S
C1041 C1040 1.400 . S
C1041 C1042 1.398 . S
C1042 H1030 0.950 . S
C1042 C1041 1.398 . S
C1042 C1043 1.391 . S
C1043 H1031 0.950 . S
C1043 C1039 1.393 . S
C1043 C1042 1.391 . S
H1044 C1052 0.950 . S
H1045 C1057 0.950 . S
H1046 C1054 0.950 . S
H1047 C1056 0.950 . S
H1048 C1058 0.950 . S
H1049 C1060 0.950 . S
H1050 C1062 0.950 . S
H1051 C1063 0.950 . S
C1052 H1044 0.950 . S
C1052 C1053 1.386 . S
C1052 C1054 1.391 . S
C1053 C1052 1.386 . S
C1053 C1057 1.393 . S
C1054 H1046 0.950 . S
C1054 C1052 1.391 . S
C1054 C1055 1.400 . S
C1055 C1054 1.400 . S
C1055 C1056 1.398 . S
C1055 C1061 1.491 . S
C1056 H1047 0.950 . S
C1056 C1055 1.398 . S
C1056 C1057 1.391 . S
C1057 H1045 0.950 . S
C1057 C1053 1.393 . S
C1057 C1056 1.391 . S
C1058 H1048 0.950 . S
C1058 C1059 1.386 . S
C1058 C1060 1.391 . S
C1059 C1058 1.386 . S
C1059 C1063 1.393 . S
C1060 H1049 0.950 . S
C1060 C1058 1.391 . S
C1060 C1061 1.400 . S
C1061 C1055 1.491 . S
C1061 C1060 1.400 . S
C1061 C1062 1.398 . S
C1062 H1050 0.950 . S
C1062 C1061 1.398 . S
C1062 C1063 1.391 . S
C1063 H1051 0.950 . S
C1063 C1059 1.393 . S
C1063 C1062 1.391 . S
H1064 C1072 0.950 . S
H1065 C1077 0.950 . S
H1066 C1074 0.950 . S
H1067 C1076 0.950 . S
H1068 C1078 0.950 . S
H1069 C1080 0.950 . S
H1070 C1082 0.950 . S
H1071 C1083 0.950 . S
C1072 H1064 0.950 . S
C1072 C1073 1.386 . S
C1072 C1074 1.391 . S
C1073 C1072 1.386 . S
C1073 C1077 1.393 . S
C1074 H1066 0.950 . S
C1074 C1072 1.391 . S
C1074 C1075 1.400 . S
C1075 C1074 1.400 . S
C1075 C1076 1.398 . S
C1075 C1081 1.491 . S
C1076 H1067 0.950 . S
C1076 C1075 1.398 . S
C1076 C1077 1.391 . S
C1077 H1065 0.950 . S
C1077 C1073 1.393 . S
C1077 C1076 1.391 . S
C1078 H1068 0.950 . S
C1078 C1079 1.386 . S
C1078 C1080 1.391 . S
C1079 C1078 1.386 . S
C1079 C1083 1.393 . S
C1080 H1069 0.950 . S
C1080 C1078 1.391 . S
C1080 C1081 1.400 . S
C1081 C1075 1.491 . S
C1081 C1080 1.400 . S
C1081 C1082 1.398 . S
C1082 H1070 0.950 . S
C1082 C1081 1.398 . S
C1082 C1083 1.391 . S
C1083 H1071 0.950 . S
C1083 C1079 1.393 . S
C1083 C1082 1.391 . S
H1084 C1092 0.950 . S
H1085 C1097 0.950 . S
H1086 C1094 0.950 . S
H1087 C1096 0.950 . S
H1088 C1098 0.950 . S
H1089 C1100 0.950 . S
H1090 C1102 0.950 . S
H1091 C1103 0.950 . S
C1092 H1084 0.950 . S
C1092 C1093 1.386 . S
C1092 C1094 1.391 . S
C1093 C1092 1.386 . S
C1093 C1097 1.393 . S
C1094 H1086 0.950 . S
C1094 C1092 1.391 . S
C1094 C1095 1.400 . S
C1095 C1094 1.400 . S
C1095 C1096 1.398 . S
C1095 C1101 1.491 . S
C1096 H1087 0.950 . S
C1096 C1095 1.398 . S
C1096 C1097 1.391 . S
C1097 H1085 0.950 . S
C1097 C1093 1.393 . S
C1097 C1096 1.391 . S
C1098 H1088 0.950 . S
C1098 C1099 1.386 . S
C1098 C1100 1.391 . S
C1099 C1098 1.386 . S
C1099 C1103 1.393 . S
C1100 H1089 0.950 . S
C1100 C1098 1.391 . S
C1100 C1101 1.400 . S
C1101 C1095 1.491 . S
C1101 C1100 1.400 . S
C1101 C1102 1.398 . S
C1102 H1090 0.950 . S
C1102 C1101 1.398 . S
C1102 C1103 1.391 . S
C1103 H1091 0.950 . S
C1103 C1099 1.393 . S
C1103 C1102 1.391 . S
H1104 C1112 0.950 . S
H1105 C1117 0.950 . S
H1106 C1114 0.950 . S
H1107 C1116 0.950 . S
H1108 C1118 0.950 . S
H1109 C1120 0.950 . S
H1110 C1122 0.950 . S
H1111 C1123 0.950 . S
C1112 H1104 0.950 . S
C1112 C1113 1.386 . S
C1112 C1114 1.391 . S
C1113 C1112 1.386 . S
C1113 C1117 1.393 . S
C1114 H1106 0.950 . S
C1114 C1112 1.391 . S
C1114 C1115 1.400 . S
C1115 C1114 1.400 . S
C1115 C1116 1.398 . S
C1115 C1121 1.491 . S
C1116 H1107 0.950 . S
C1116 C1115 1.398 . S
C1116 C1117 1.391 . S
C1117 H1105 0.950 . S
C1117 C1113 1.393 . S
C1117 C1116 1.391 . S
C1118 H1108 0.950 . S
C1118 C1119 1.386 . S
C1118 C1120 1.391 . S
C1119 C1118 1.386 . S
C1119 C1123 1.393 . S
C1120 H1109 0.950 . S
C1120 C1118 1.391 . S
C1120 C1121 1.400 . S
C1121 C1115 1.491 . S
C1121 C1120 1.400 . S
C1121 C1122 1.398 . S
C1122 H1110 0.950 . S
C1122 C1121 1.398 . S
C1122 C1123 1.391 . S
C1123 H1111 0.950 . S
C1123 C1119 1.393 . S
C1123 C1122 1.391 . S
H1124 C1132 0.950 . S
H1125 C1137 0.950 . S
H1126 C1134 0.950 . S
H1127 C1136 0.950 . S
H1128 C1138 0.950 . S
H1129 C1140 0.950 . S
H1130 C1142 0.950 . S
H1131 C1143 0.950 . S
C1132 H1124 0.950 . S
C1132 C1133 1.386 . S
C1132 C1134 1.391 . S
C1133 C1132 1.386 . S
C1133 C1137 1.393 . S
C1134 H1126 0.950 . S
C1134 C1132 1.391 . S
C1134 C1135 1.400 . S
C1135 C1134 1.400 . S
C1135 C1136 1.398 . S
C1135 C1141 1.491 . S
C1136 H1127 0.950 . S
C1136 C1135 1.398 . S
C1136 C1137 1.391 . S
C1137 H1125 0.950 . S
C1137 C1133 1.393 . S
C1137 C1136 1.391 . S
C1138 H1128 0.950 . S
C1138 C1139 1.386 . S
C1138 C1140 1.391 . S
C1139 C1138 1.386 . S
C1139 C1143 1.393 . S
C1140 H1129 0.950 . S
C1140 C1138 1.391 . S
C1140 C1141 1.400 . S
C1141 C1135 1.491 . S
C1141 C1140 1.400 . S
C1141 C1142 1.398 . S
C1142 H1130 0.950 . S
C1142 C1141 1.398 . S
C1142 C1143 1.391 . S
C1143 H1131 0.950 . S
C1143 C1139 1.393 . S
C1143 C1142 1.391 . S
H1144 C1152 0.950 . S
H1145 C1157 0.950 . S
H1146 C1154 0.950 . S
H1147 C1156 0.950 . S
H1148 C1158 0.950 . S
H1149 C1160 0.950 . S
H1150 C1162 0.950 . S
H1151 C1163 0.950 . S
C1152 H1144 0.950 . S
C1152 C1153 1.386 . S
C1152 C1154 1.391 . S
C1153 C1152 1.386 . S
C1153 C1157 1.393 . S
C1154 H1146 0.950 . S
C1154 C1152 1.391 . S
C1154 C1155 1.400 . S
C1155 C1154 1.400 . S
C1155 C1156 1.398 . S
C1155 C1161 1.491 . S
C1156 H1147 0.950 . S
C1156 C1155 1.398 . S
C1156 C1157 1.391 . S
C1157 H1145 0.950 . S
C1157 C1153 1.393 . S
C1157 C1156 1.391 . S
C1158 H1148 0.950 . S
C1158 C1159 1.386 . S
C1158 C1160 1.391 . S
C1159 C1158 1.386 . S
C1159 C1163 1.393 . S
C1160 H1149 0.950 . S
C1160 C1158 1.391 . S
C1160 C1161 1.400 . S
C1161 C1155 1.491 . S
C1161 C1160 1.400 . S
C1161 C1162 1.398 . S
C1162 H1150 0.950 . S
C1162 C1161 1.398 . S
C1162 C1163 1.391 . S
C1163 H1151 0.950 . S
C1163 C1159 1.393 . S
C1163 C1162 1.391 . S
H1164 C1172 0.950 . S
H1165 C1177 0.950 . S
H1166 C1174 0.950 . S
H1167 C1176 0.950 . S
H1168 C1178 0.950 . S
H1169 C1180 0.950 . S
H1170 C1182 0.950 . S
H1171 C1183 0.950 . S
C1172 H1164 0.950 . S
C1172 C1173 1.386 . S
C1172 C1174 1.391 . S
C1173 C1172 1.386 . S
C1173 C1177 1.393 . S
C1174 H1166 0.950 . S
C1174 C1172 1.391 . S
C1174 C1175 1.400 . S
C1175 C1174 1.400 . S
C1175 C1176 1.398 . S
C1175 C1181 1.491 . S
C1176 H1167 0.950 . S
C1176 C1175 1.398 . S
C1176 C1177 1.391 . S
C1177 H1165 0.950 . S
C1177 C1173 1.393 . S
C1177 C1176 1.391 . S
C1178 H1168 0.950 . S
C1178 C1179 1.386 . S
C1178 C1180 1.391 . S
C1179 C1178 1.386 . S
C1179 C1183 1.393 . S
C1180 H1169 0.950 . S
C1180 C1178 1.391 . S
C1180 C1181 1.400 . S
C1181 C1175 1.491 . S
C1181 C1180 1.400 . S
C1181 C1182 1.398 . S
C1182 H1170 0.950 . S
C1182 C1181 1.398 . S
C1182 C1183 1.391 . S
C1183 H1171 0.950 . S
C1183 C1179 1.393 . S
C1183 C1182 1.391 . S
H1184 C1192 0.950 . S
H1185 C1197 0.950 . S
H1186 C1194 0.950 . S
H1187 C1196 0.950 . S
H1188 C1198 0.950 . S
H1189 C1200 0.950 . S
H1190 C1202 0.950 . S
H1191 C1203 0.950 . S
C1192 H1184 0.950 . S
C1192 C1193 1.386 . S
C1192 C1194 1.391 . S
C1193 C1192 1.386 . S
C1193 C1197 1.393 . S
C1194 H1186 0.950 . S
C1194 C1192 1.391 . S
C1194 C1195 1.400 . S
C1195 C1194 1.400 . S
C1195 C1196 1.398 . S
C1195 C1201 1.491 . S
C1196 H1187 0.950 . S
C1196 C1195 1.398 . S
C1196 C1197 1.391 . S
C1197 H1185 0.950 . S
C1197 C1193 1.393 . S
C1197 C1196 1.391 . S
C1198 H1188 0.950 . S
C1198 C1199 1.386 . S
C1198 C1200 1.391 . S
C1199 C1198 1.386 . S
C1199 C1203 1.393 . S
C1200 H1189 0.950 . S
C1200 C1198 1.391 . S
C1200 C1201 1.400 . S
C1201 C1195 1.491 . S
C1201 C1200 1.400 . S
C1201 C1202 1.398 . S
C1202 H1190 0.950 . S
C1202 C1201 1.398 . S
C1202 C1203 1.391 . S
C1203 H1191 0.950 . S
C1203 C1199 1.393 . S
C1203 C1202 1.391 . S
H1204 C1212 0.950 . S
H1205 C1217 0.950 . S
H1206 C1214 0.950 . S
H1207 C1216 0.950 . S
H1208 C1218 0.950 . S
H1209 C1220 0.950 . S
H1210 C1222 0.950 . S
H1211 C1223 0.950 . S
C1212 H1204 0.950 . S
C1212 C1213 1.386 . S
C1212 C1214 1.391 . S
C1213 C1212 1.386 . S
C1213 C1217 1.393 . S
C1214 H1206 0.950 . S
C1214 C1212 1.391 . S
C1214 C1215 1.400 . S
C1215 C1214 1.400 . S
C1215 C1216 1.398 . S
C1215 C1221 1.491 . S
C1216 H1207 0.950 . S
C1216 C1215 1.398 . S
C1216 C1217 1.391 . S
C1217 H1205 0.950 . S
C1217 C1213 1.393 . S
C1217 C1216 1.391 . S
C1218 H1208 0.950 . S
C1218 C1219 1.386 . S
C1218 C1220 1.391 . S
C1219 C1218 1.386 . S
C1219 C1223 1.393 . S
C1220 H1209 0.950 . S
C1220 C1218 1.391 . S
C1220 C1221 1.400 . S
C1221 C1215 1.491 . S
C1221 C1220 1.400 . S
C1221 C1222 1.398 . S
C1222 H1210 0.950 . S
C1222 C1221 1.398 . S
C1222 C1223 1.391 . S
C1223 H1211 0.950 . S
C1223 C1219 1.393 . S
C1223 C1222 1.391 . S
H1224 C1232 0.950 . S
H1225 C1237 0.950 . S
H1226 C1234 0.950 . S
H1227 C1236 0.950 . S
H1228 C1238 0.950 . S
H1229 C1240 0.950 . S
H1230 C1242 0.950 . S
H1231 C1243 0.950 . S
C1232 H1224 0.950 . S
C1232 C1233 1.386 . S
C1232 C1234 1.391 . S
C1233 C1232 1.386 . S
C1233 C1237 1.393 . S
C1234 H1226 0.950 . S
C1234 C1232 1.391 . S
C1234 C1235 1.400 . S
C1235 C1234 1.400 . S
C1235 C1236 1.398 . S
C1235 C1241 1.491 . S
C1236 H1227 0.950 . S
C1236 C1235 1.398 . S
C1236 C1237 1.391 . S
C1237 H1225 0.950 . S
C1237 C1233 1.393 . S
C1237 C1236 1.391 . S
C1238 H1228 0.950 . S
C1238 C1239 1.386 . S
C1238 C1240 1.391 . S
C1239 C1238 1.386 . S
C1239 C1243 1.393 . S
C1240 H1229 0.950 . S
C1240 C1238 1.391 . S
C1240 C1241 1.400 . S
C1241 C1235 1.491 . S
C1241 C1240 1.400 . S
C1241 C1242 1.398 . S
C1242 H1230 0.950 . S
C1242 C1241 1.398 . S
C1242 C1243 1.391 . S
C1243 H1231 0.950 . S
C1243 C1239 1.393 . S
C1243 C1242 1.391 . S
H1244 C1252 0.950 . S
H1245 C1257 0.950 . S
H1246 C1254 0.950 . S
H1247 C1256 0.950 . S
H1248 C1258 0.950 . S
H1249 C1260 0.950 . S
H1250 C1262 0.950 . S
H1251 C1263 0.950 . S
C1252 H1244 0.950 . S
C1252 C1253 1.386 . S
C1252 C1254 1.391 . S
C1253 C1252 1.386 . S
C1253 C1257 1.393 . S
C1254 H1246 0.950 . S
C1254 C1252 1.391 . S
C1254 C1255 1.400 . S
C1255 C1254 1.400 . S
C1255 C1256 1.398 . S
C1255 C1261 1.491 . S
C1256 H1247 0.950 . S
C1256 C1255 1.398 . S
C1256 C1257 1.391 . S
C1257 H1245 0.950 . S
C1257 C1253 1.393 . S
C1257 C1256 1.391 . S
C1258 H1248 0.950 . S
C1258 C1259 1.386 . S
C1258 C1260 1.391 . S
C1259 C1258 1.386 . S
C1259 C1263 1.393 . S
C1260 H1249 0.950 . S
C1260 C1258 1.391 . S
C1260 C1261 1.400 . S
C1261 C1255 1.491 . S
C1261 C1260 1.400 . S
C1261 C1262 1.398 . S
C1262 H1250 0.950 . S
C1262 C1261 1.398 . S
C1262 C1263 1.391 . S
C1263 H1251 0.950 . S
C1263 C1259 1.393 . S
C1263 C1262 1.391 . S
H1264 C1272 0.950 . S
H1265 C1277 0.950 . S
H1266 C1274 0.950 . S
H1267 C1276 0.950 . S
H1268 C1278 0.950 . S
H1269 C1280 0.950 . S
H1270 C1282 0.950 . S
H1271 C1283 0.950 . S
C1272 H1264 0.950 . S
C1272 C1273 1.386 . S
C1272 C1274 1.391 . S
C1273 C1272 1.386 . S
C1273 C1277 1.393 . S
C1274 H1266 0.950 . S
C1274 C1272 1.391 . S
C1274 C1275 1.400 . S
C1275 C1274 1.400 . S
C1275 C1276 1.398 . S
C1275 C1281 1.491 . S
C1276 H1267 0.950 . S
C1276 C1275 1.398 . S
C1276 C1277 1.391 . S
C1277 H1265 0.950 . S
C1277 C1273 1.393 . S
C1277 C1276 1.391 . S
C1278 H1268 0.950 . S
C1278 C1279 1.386 . S
C1278 C1280 1.391 . S
C1279 C1278 1.386 . S
C1279 C1283 1.393 . S
C1280 H1269 0.950 . S
C1280 C1278 1.391 . S
C1280 C1281 1.400 . S
C1281 C1275 1.491 . S
C1281 C1280 1.400 . S
C1281 C1282 1.398 . S
C1282 H1270 0.950 . S
C1282 C1281 1.398 . S
C1282 C1283 1.391 . S
C1283 H1271 0.950 . S
C1283 C1279 1.393 . S
C1283 C1282 1.391 . S
H1284 C1292 0.950 . S
H1285 C1297 0.950 . S
H1286 C1294 0.950 . S
H1287 C1296 0.950 . S
H1288 C1298 0.950 . S
H1289 C1300 0.950 . S
H1290 C1302 0.950 . S
H1291 C1303 0.950 . S
C1292 H1284 0.950 . S
C1292 C1293 1.386 . S
C1292 C1294 1.391 . S
C1293 C1292 1.386 . S
C1293 C1297 1.393 . S
C1294 H1286 0.950 . S
C1294 C1292 1.391 . S
C1294 C1295 1.400 . S
C1295 C1294 1.400 . S
C1295 C1296 1.398 . S
C1295 C1301 1.491 . S
C1296 H1287 0.950 . S
C1296 C1295 1.398 . S
C1296 C1297 1.391 . S
C1297 H1285 0.950 . S
C1297 C1293 1.393 . S
C1297 C1296 1.391 . S
C1298 H1288 0.950 . S
C1298 C1299 1.386 . S
C1298 C1300 1.391 . S
C1299 C1298 1.386 . S
C1299 C1303 1.393 . S
C1300 H1289 0.950 . S
C1300 C1298 1.391 . S
C1300 C1301 1.400 . S
C1301 C1295 1.491 . S
C1301 C1300 1.400 . S
C1301 C1302 1.398 . S
C1302 H1290 0.950 . S
C1302 C1301 1.398 . S
C1302 C1303 1.391 . S
C1303 H1291 0.950 . S
C1303 C1299 1.393 . S
C1303 C1302 1.391 . S
H1304 C1312 0.950 . S
H1305 C1317 0.950 . S
H1306 C1314 0.950 . S
H1307 C1316 0.950 . S
H1308 C1318 0.950 . S
H1309 C1320 0.950 . S
H1310 C1322 0.950 . S
H1311 C1323 0.950 . S
C1312 H1304 0.950 . S
C1312 C1313 1.386 . S
C1312 C1314 1.391 . S
C1313 C1312 1.386 . S
C1313 C1317 1.393 . S
C1314 H1306 0.950 . S
C1314 C1312 1.391 . S
C1314 C1315 1.400 . S
C1315 C1314 1.400 . S
C1315 C1316 1.398 . S
C1315 C1321 1.491 . S
C1316 H1307 0.950 . S
C1316 C1315 1.398 . S
C1316 C1317 1.391 . S
C1317 H1305 0.950 . S
C1317 C1313 1.393 . S
C1317 C1316 1.391 . S
C1318 H1308 0.950 . S
C1318 C1319 1.386 . S
C1318 C1320 1.391 . S
C1319 C1318 1.386 . S
C1319 C1323 1.393 . S
C1320 H1309 0.950 . S
C1320 C1318 1.391 . S
C1320 C1321 1.400 . S
C1321 C1315 1.491 . S
C1321 C1320 1.400 . S
C1321 C1322 1.398 . S
C1322 H1310 0.950 . S
C1322 C1321 1.398 . S
C1322 C1323 1.391 . S
C1323 H1311 0.950 . S
C1323 C1319 1.393 . S
C1323 C1322 1.391 . S
H1324 C1332 0.950 . S
H1325 C1337 0.950 . S
H1326 C1334 0.950 . S
H1327 C1336 0.950 . S
H1328 C1338 0.950 . S
H1329 C1340 0.950 . S
H1330 C1342 0.950 . S
H1331 C1343 0.950 . S
C1332 H1324 0.950 . S
C1332 C1333 1.386 . S
C1332 C1334 1.391 . S
C1333 C1332 1.386 . S
C1333 C1337 1.393 . S
C1334 H1326 0.950 . S
C1334 C1332 1.391 . S
C1334 C1335 1.400 . S
C1335 C1334 1.400 . S
C1335 C1336 1.398 . S
C1335 C1341 1.491 . S
C1336 H1327 0.950 . S
C1336 C1335 1.398 . S
C1336 C1337 1.391 . S
C1337 H1325 0.950 . S
C1337 C1333 1.393 . S
C1337 C1336 1.391 . S
C1338 H1328 0.950 . S
C1338 C1339 1.386 . S
C1338 C1340 1.391 . S
C1339 C1338 1.386 . S
C1339 C1343 1.393 . S
C1340 H1329 0.950 . S
C1340 C1338 1.391 . S
C1340 C1341 1.400 . S
C1341 C1335 1.491 . S
C1341 C1340 1.400 . S
C1341 C1342 1.398 . S
C1342 H1330 0.950 . S
C1342 C1341 1.398 . S
C1342 C1343 1.391 . S
C1343 H1331 0.950 . S
C1343 C1339 1.393 . S
C1343 C1342 1.391 . S
H1344 C1352 0.950 . S
H1345 C1357 0.950 1_545 S
H1346 C1354 0.950 . S
H1347 C1356 0.950 . S
H1348 C1358 0.950 . S
H1349 C1360 0.950 . S
H1350 C1362 0.950 . S
H1351 C1363 0.950 1_565 S
C1352 H1344 0.950 . S
C1352 C1353 1.386 . S
C1352 C1354 1.391 . S
C1353 C1352 1.386 . S
C1353 C1357 1.393 . S
C1354 H1346 0.950 . S
C1354 C1352 1.391 . S
C1354 C1355 1.400 . S
C1355 C1354 1.400 . S
C1355 C1356 1.398 1_565 S
C1355 C1361 1.491 1_564 S
C1356 H1347 0.950 . S
C1356 C1355 1.398 1_545 S
C1356 C1357 1.391 1_545 S
C1357 H1345 0.950 1_565 S
C1357 C1353 1.393 . S
C1357 C1356 1.391 1_565 S
C1358 H1348 0.950 . S
C1358 C1359 1.386 . S
C1358 C1360 1.391 . S
C1359 C1358 1.386 . S
C1359 C1363 1.393 . S
C1360 H1349 0.950 . S
C1360 C1358 1.391 . S
C1360 C1361 1.400 . S
C1361 C1355 1.491 1_546 S
C1361 C1360 1.400 . S
C1361 C1362 1.398 1_545 S
C1362 H1350 0.950 . S
C1362 C1361 1.398 1_565 S
C1362 C1363 1.391 1_565 S
C1363 H1351 0.950 1_545 S
C1363 C1359 1.393 . S
C1363 C1362 1.391 1_545 S
H1364 C1372 0.950 . S
H1365 C1377 0.950 . S
H1366 C1374 0.950 . S
H1367 C1376 0.950 . S
H1368 C1378 0.950 . S
H1369 C1380 0.950 . S
H1370 C1382 0.950 . S
H1371 C1383 0.950 . S
C1372 H1364 0.950 . S
C1372 C1373 1.386 1_554 S
C1372 C1374 1.391 . S
C1373 C1372 1.386 1_556 S
C1373 C1377 1.393 . S
C1374 H1366 0.950 . S
C1374 C1372 1.391 . S
C1374 C1375 1.400 1_554 S
C1375 C1374 1.400 1_556 S
C1375 C1376 1.398 . S
C1375 C1381 1.491 1_556 S
C1376 H1367 0.950 . S
C1376 C1375 1.398 . S
C1376 C1377 1.391 . S
C1377 H1365 0.950 . S
C1377 C1373 1.393 . S
C1377 C1376 1.391 . S
C1378 H1368 0.950 . S
C1378 C1379 1.386 1_556 S
C1378 C1380 1.391 . S
C1379 C1378 1.386 1_554 S
C1379 C1383 1.393 . S
C1380 H1369 0.950 . S
C1380 C1378 1.391 . S
C1380 C1381 1.400 1_556 S
C1381 C1375 1.491 1_554 S
C1381 C1380 1.400 1_554 S
C1381 C1382 1.398 . S
C1382 H1370 0.950 . S
C1382 C1381 1.398 . S
C1382 C1383 1.391 . S
C1383 H1371 0.950 . S
C1383 C1379 1.393 . S
C1383 C1382 1.391 . S
H1384 C1392 0.950 . S
H1385 C1397 0.950 . S
H1386 C1394 0.950 . S
H1387 C1396 0.950 . S
H1388 C1398 0.950 . S
H1389 C1400 0.950 . S
H1390 C1402 0.950 . S
H1391 C1403 0.950 . S
C1392 H1384 0.950 . S
C1392 C1393 1.386 . S
C1392 C1394 1.391 . S
C1393 C1392 1.386 . S
C1393 C1397 1.393 . S
C1394 H1386 0.950 . S
C1394 C1392 1.391 . S
C1394 C1395 1.400 . S
C1395 C1394 1.400 . S
C1395 C1396 1.398 . S
C1395 C1401 1.491 . S
C1396 H1387 0.950 . S
C1396 C1395 1.398 . S
C1396 C1397 1.391 . S
C1397 H1385 0.950 . S
C1397 C1393 1.393 . S
C1397 C1396 1.391 . S
C1398 H1388 0.950 . S
C1398 C1399 1.386 . S
C1398 C1400 1.391 . S
C1399 C1398 1.386 . S
C1399 C1403 1.393 . S
C1400 H1389 0.950 . S
C1400 C1398 1.391 . S
C1400 C1401 1.400 . S
C1401 C1395 1.491 . S
C1401 C1400 1.400 . S
C1401 C1402 1.398 . S
C1402 H1390 0.950 . S
C1402 C1401 1.398 . S
C1402 C1403 1.391 . S
C1403 H1391 0.950 . S
C1403 C1399 1.393 . S
C1403 C1402 1.391 . S
H1404 C1412 0.950 . S
H1405 C1417 0.950 1_545 S
H1406 C1414 0.950 . S
H1407 C1416 0.950 . S
H1408 C1418 0.950 . S
H1409 C1420 0.950 . S
H1410 C1422 0.950 . S
H1411 C1423 0.950 1_565 S
C1412 H1404 0.950 . S
C1412 C1413 1.386 . S
C1412 C1414 1.391 . S
C1413 C1412 1.386 . S
C1413 C1417 1.393 . S
C1414 H1406 0.950 . S
C1414 C1412 1.391 . S
C1414 C1415 1.400 . S
C1415 C1414 1.400 . S
C1415 C1416 1.398 1_565 S
C1415 C1421 1.491 1_565 S
C1416 H1407 0.950 . S
C1416 C1415 1.398 1_545 S
C1416 C1417 1.391 1_545 S
C1417 H1405 0.950 1_565 S
C1417 C1413 1.393 . S
C1417 C1416 1.391 1_565 S
C1418 H1408 0.950 . S
C1418 C1419 1.386 . S
C1418 C1420 1.391 . S
C1419 C1418 1.386 . S
C1419 C1423 1.393 . S
C1420 H1409 0.950 . S
C1420 C1418 1.391 . S
C1420 C1421 1.400 . S
C1421 C1415 1.491 1_545 S
C1421 C1420 1.400 . S
C1421 C1422 1.398 1_545 S
C1422 H1410 0.950 . S
C1422 C1421 1.398 1_565 S
C1422 C1423 1.391 1_565 S
C1423 H1411 0.950 1_545 S
C1423 C1419 1.393 . S
C1423 C1422 1.391 1_545 S
H1424 C1432 0.950 . S
H1425 C1437 0.950 . S
H1426 C1434 0.950 . S
H1427 C1436 0.950 . S
H1428 C1438 0.950 . S
H1429 C1440 0.950 . S
H1430 C1442 0.950 . S
H1431 C1443 0.950 . S
C1432 H1424 0.950 . S
C1432 C1433 1.386 . S
C1432 C1434 1.391 . S
C1433 C1432 1.386 . S
C1433 C1437 1.393 1_554 S
C1434 H1426 0.950 . S
C1434 C1432 1.391 . S
C1434 C1435 1.400 . S
C1435 C1434 1.400 . S
C1435 C1436 1.398 1_554 S
C1435 C1441 1.491 1_554 S
C1436 H1427 0.950 . S
C1436 C1435 1.398 1_556 S
C1436 C1437 1.391 . S
C1437 H1425 0.950 . S
C1437 C1433 1.393 1_556 S
C1437 C1436 1.391 . S
C1438 H1428 0.950 . S
C1438 C1439 1.386 . S
C1438 C1440 1.391 . S
C1439 C1438 1.386 . S
C1439 C1443 1.393 1_556 S
C1440 H1429 0.950 . S
C1440 C1438 1.391 . S
C1440 C1441 1.400 . S
C1441 C1435 1.491 1_556 S
C1441 C1440 1.400 . S
C1441 C1442 1.398 1_556 S
C1442 H1430 0.950 . S
C1442 C1441 1.398 1_554 S
C1442 C1443 1.391 . S
C1443 H1431 0.950 . S
C1443 C1439 1.393 1_554 S
C1443 C1442 1.391 . S
H1444 C1452 0.950 . S
H1445 C1457 0.950 . S
H1446 C1454 0.950 . S
H1447 C1456 0.950 . S
H1448 C1458 0.950 . S
H1449 C1460 0.950 . S
H1450 C1462 0.950 . S
H1451 C1463 0.950 . S
C1452 H1444 0.950 . S
C1452 C1453 1.386 . S
C1452 C1454 1.391 . S
C1453 C1452 1.386 . S
C1453 C1457 1.393 . S
C1454 H1446 0.950 . S
C1454 C1452 1.391 . S
C1454 C1455 1.400 . S
C1455 C1454 1.400 . S
C1455 C1456 1.398 . S
C1455 C1461 1.491 . S
C1456 H1447 0.950 . S
C1456 C1455 1.398 . S
C1456 C1457 1.391 . S
C1457 H1445 0.950 . S
C1457 C1453 1.393 . S
C1457 C1456 1.391 . S
C1458 H1448 0.950 . S
C1458 C1459 1.386 . S
C1458 C1460 1.391 . S
C1459 C1458 1.386 . S
C1459 C1463 1.393 . S
C1460 H1449 0.950 . S
C1460 C1458 1.391 . S
C1460 C1461 1.400 . S
C1461 C1455 1.491 . S
C1461 C1460 1.400 . S
C1461 C1462 1.398 . S
C1462 H1450 0.950 . S
C1462 C1461 1.398 . S
C1462 C1463 1.391 . S
C1463 H1451 0.950 . S
C1463 C1459 1.393 . S
C1463 C1462 1.391 . S
H1464 C1472 0.950 . S
H1465 C1477 0.950 . S
H1466 C1474 0.950 1_565 S
H1467 C1476 0.950 . S
H1468 C1478 0.950 . S
H1469 C1480 0.950 1_545 S
H1470 C1482 0.950 . S
H1471 C1483 0.950 . S
C1472 H1464 0.950 . S
C1472 C1473 1.386 . S
C1472 C1474 1.391 . S
C1473 C1472 1.386 . S
C1473 C1477 1.393 . S
C1474 H1466 0.950 1_545 S
C1474 C1472 1.391 . S
C1474 C1475 1.400 . S
C1475 C1474 1.400 . S
C1475 C1476 1.398 . S
C1475 C1481 1.491 1_545 S
C1476 H1467 0.950 . S
C1476 C1475 1.398 . S
C1476 C1477 1.391 . S
C1477 H1465 0.950 . S
C1477 C1473 1.393 . S
C1477 C1476 1.391 . S
C1478 H1468 0.950 . S
C1478 C1479 1.386 . S
C1478 C1480 1.391 . S
C1479 C1478 1.386 . S
C1479 C1483 1.393 . S
C1480 H1469 0.950 1_565 S
C1480 C1478 1.391 . S
C1480 C1481 1.400 . S
C1481 C1475 1.491 1_565 S
C1481 C1480 1.400 . S
C1481 C1482 1.398 . S
C1482 H1470 0.950 . S
C1482 C1481 1.398 . S
C1482 C1483 1.391 . S
C1483 H1471 0.950 . S
C1483 C1479 1.393 . S
C1483 C1482 1.391 . S
H1484 C1492 0.950 . S
H1485 C1497 0.950 . S
H1486 C1494 0.950 . S
H1487 C1496 0.950 . S
H1488 C1498 0.950 . S
H1489 C1500 0.950 . S
H1490 C1502 0.950 . S
H1491 C1503 0.950 . S
C1492 H1484 0.950 . S
C1492 C1493 1.386 . S
C1492 C1494 1.391 . S
C1493 C1492 1.386 . S
C1493 C1497 1.393 . S
C1494 H1486 0.950 . S
C1494 C1492 1.391 . S
C1494 C1495 1.400 . S
C1495 C1494 1.400 . S
C1495 C1496 1.398 . S
C1495 C1501 1.491 . S
C1496 H1487 0.950 . S
C1496 C1495 1.398 . S
C1496 C1497 1.391 . S
C1497 H1485 0.950 . S
C1497 C1493 1.393 . S
C1497 C1496 1.391 . S
C1498 H1488 0.950 . S
C1498 C1499 1.386 . S
C1498 C1500 1.391 . S
C1499 C1498 1.386 . S
C1499 C1503 1.393 . S
C1500 H1489 0.950 . S
C1500 C1498 1.391 . S
C1500 C1501 1.400 . S
C1501 C1495 1.491 . S
C1501 C1500 1.400 . S
C1501 C1502 1.398 . S
C1502 H1490 0.950 . S
C1502 C1501 1.398 . S
C1502 C1503 1.391 . S
C1503 H1491 0.950 . S
C1503 C1499 1.393 . S
C1503 C1502 1.391 . S
H1504 C1512 0.950 . S
H1505 C1517 0.950 . S
H1506 C1514 0.950 . S
H1507 C1516 0.950 . S
H1508 C1518 0.950 . S
H1509 C1520 0.950 . S
H1510 C1522 0.950 . S
H1511 C1523 0.950 . S
C1512 H1504 0.950 . S
C1512 C1513 1.386 . S
C1512 C1514 1.391 . S
C1513 C1512 1.386 . S
C1513 C1517 1.393 . S
C1514 H1506 0.950 . S
C1514 C1512 1.391 . S
C1514 C1515 1.400 . S
C1515 C1514 1.400 . S
C1515 C1516 1.398 . S
C1515 C1521 1.491 . S
C1516 H1507 0.950 . S
C1516 C1515 1.398 . S
C1516 C1517 1.391 . S
C1517 H1505 0.950 . S
C1517 C1513 1.393 . S
C1517 C1516 1.391 . S
C1518 H1508 0.950 . S
C1518 C1519 1.386 . S
C1518 C1520 1.391 . S
C1519 C1518 1.386 . S
C1519 C1523 1.393 . S
C1520 H1509 0.950 . S
C1520 C1518 1.391 . S
C1520 C1521 1.400 . S
C1521 C1515 1.491 . S
C1521 C1520 1.400 . S
C1521 C1522 1.398 . S
C1522 H1510 0.950 . S
C1522 C1521 1.398 . S
C1522 C1523 1.391 . S
C1523 H1511 0.950 . S
C1523 C1519 1.393 . S
C1523 C1522 1.391 . S
H1524 C1532 0.950 . S
H1525 C1537 0.950 . S
H1526 C1534 0.950 . S
H1527 C1536 0.950 . S
H1528 C1538 0.950 . S
H1529 C1540 0.950 . S
H1530 C1542 0.950 . S
H1531 C1543 0.950 . S
C1532 H1524 0.950 . S
C1532 C1533 1.386 . S
C1532 C1534 1.391 . S
C1533 C1532 1.386 . S
C1533 C1537 1.393 . S
C1534 H1526 0.950 . S
C1534 C1532 1.391 . S
C1534 C1535 1.400 . S
C1535 C1534 1.400 . S
C1535 C1536 1.398 . S
C1535 C1541 1.491 . S
C1536 H1527 0.950 . S
C1536 C1535 1.398 . S
C1536 C1537 1.391 . S
C1537 H1525 0.950 . S
C1537 C1533 1.393 . S
C1537 C1536 1.391 . S
C1538 H1528 0.950 . S
C1538 C1539 1.386 . S
C1538 C1540 1.391 . S
C1539 C1538 1.386 . S
C1539 C1543 1.393 . S
C1540 H1529 0.950 . S
C1540 C1538 1.391 . S
C1540 C1541 1.400 . S
C1541 C1535 1.491 . S
C1541 C1540 1.400 . S
C1541 C1542 1.398 . S
C1542 H1530 0.950 . S
C1542 C1541 1.398 . S
C1542 C1543 1.391 . S
C1543 H1531 0.950 . S
C1543 C1539 1.393 . S
C1543 C1542 1.391 . S
H1544 C1552 0.950 . S
H1545 C1557 0.950 . S
H1546 C1554 0.950 . S
H1547 C1556 0.950 . S
H1548 C1558 0.950 . S
H1549 C1560 0.950 . S
H1550 C1562 0.950 . S
H1551 C1563 0.950 . S
C1552 H1544 0.950 . S
C1552 C1553 1.386 . S
C1552 C1554 1.391 . S
C1553 C1552 1.386 . S
C1553 C1557 1.393 . S
C1554 H1546 0.950 . S
C1554 C1552 1.391 . S
C1554 C1555 1.400 . S
C1555 C1554 1.400 . S
C1555 C1556 1.398 . S
C1555 C1561 1.491 . S
C1556 H1547 0.950 . S
C1556 C1555 1.398 . S
C1556 C1557 1.391 . S
C1557 H1545 0.950 . S
C1557 C1553 1.393 . S
C1557 C1556 1.391 . S
C1558 H1548 0.950 . S
C1558 C1559 1.386 . S
C1558 C1560 1.391 . S
C1559 C1558 1.386 . S
C1559 C1563 1.393 . S
C1560 H1549 0.950 . S
C1560 C1558 1.391 . S
C1560 C1561 1.400 . S
C1561 C1555 1.491 . S
C1561 C1560 1.400 . S
C1561 C1562 1.398 . S
C1562 H1550 0.950 . S
C1562 C1561 1.398 . S
C1562 C1563 1.391 . S
C1563 H1551 0.950 . S
C1563 C1559 1.393 . S
C1563 C1562 1.391 . S
H1564 C1572 0.950 . S
H1565 C1577 0.950 . S
H1566 C1574 0.950 . S
H1567 C1576 0.950 . S
H1568 C1578 0.950 . S
H1569 C1580 0.950 . S
H1570 C1582 0.950 . S
H1571 C1583 0.950 . S
C1572 H1564 0.950 . S
C1572 C1573 1.386 . S
C1572 C1574 1.391 . S
C1573 C1572 1.386 . S
C1573 C1577 1.393 . S
C1574 H1566 0.950 . S
C1574 C1572 1.391 . S
C1574 C1575 1.400 . S
C1575 C1574 1.400 . S
C1575 C1576 1.398 . S
C1575 C1581 1.491 . S
C1576 H1567 0.950 . S
C1576 C1575 1.398 . S
C1576 C1577 1.391 . S
C1577 H1565 0.950 . S
C1577 C1573 1.393 . S
C1577 C1576 1.391 . S
C1578 H1568 0.950 . S
C1578 C1579 1.386 . S
C1578 C1580 1.391 . S
C1579 C1578 1.386 . S
C1579 C1583 1.393 . S
C1580 H1569 0.950 . S
C1580 C1578 1.391 . S
C1580 C1581 1.400 . S
C1581 C1575 1.491 . S
C1581 C1580 1.400 . S
C1581 C1582 1.398 . S
C1582 H1570 0.950 . S
C1582 C1581 1.398 . S
C1582 C1583 1.391 . S
C1583 H1571 0.950 . S
C1583 C1579 1.393 . S
C1583 C1582 1.391 . S
H1584 C1592 0.950 . S
H1585 C1597 0.950 . S
H1586 C1594 0.950 1_545 S
H1587 C1596 0.950 1_655 S
H1588 C1598 0.950 . S
H1589 C1600 0.950 1_565 S
H1590 C1602 0.950 1_455 S
H1591 C1603 0.950 . S
C1592 H1584 0.950 . S
C1592 C1593 1.386 . S
C1592 C1594 1.391 . S
C1593 C1592 1.386 . S
C1593 C1597 1.393 . S
C1594 H1586 0.950 1_565 S
C1594 C1592 1.391 . S
C1594 C1595 1.400 . S
C1595 C1594 1.400 . S
C1595 C1596 1.398 . S
C1595 C1601 1.491 1_465 S
C1596 H1587 0.950 1_455 S
C1596 C1595 1.398 . S
C1596 C1597 1.391 . S
C1597 H1585 0.950 . S
C1597 C1593 1.393 . S
C1597 C1596 1.391 . S
C1598 H1588 0.950 . S
C1598 C1599 1.386 . S
C1598 C1600 1.391 . S
C1599 C1598 1.386 . S
C1599 C1603 1.393 . S
C1600 H1589 0.950 1_545 S
C1600 C1598 1.391 . S
C1600 C1601 1.400 . S
C1601 C1595 1.491 1_645 S
C1601 C1600 1.400 . S
C1601 C1602 1.398 . S
C1602 H1590 0.950 1_655 S
C1602 C1601 1.398 . S
C1602 C1603 1.391 . S
C1603 H1591 0.950 . S
C1603 C1599 1.393 . S
C1603 C1602 1.391 . S
H1604 C1612 0.950 . S
H1605 C1617 0.950 . S
H1606 C1614 0.950 1_655 S
H1607 C1616 0.950 . S
H1608 C1618 0.950 . S
H1609 C1620 0.950 1_455 S
H1610 C1622 0.950 . S
H1611 C1623 0.950 . S
C1612 H1604 0.950 . S
C1612 C1613 1.386 . S
C1612 C1614 1.391 . S
C1613 C1612 1.386 . S
C1613 C1617 1.393 . S
C1614 H1606 0.950 1_455 S
C1614 C1612 1.391 . S
C1614 C1615 1.400 . S
C1615 C1614 1.400 . S
C1615 C1616 1.398 . S
C1615 C1621 1.491 1_455 S
C1616 H1607 0.950 . S
C1616 C1615 1.398 . S
C1616 C1617 1.391 . S
C1617 H1605 0.950 . S
C1617 C1613 1.393 . S
C1617 C1616 1.391 . S
C1618 H1608 0.950 . S
C1618 C1619 1.386 . S
C1618 C1620 1.391 . S
C1619 C1618 1.386 . S
C1619 C1623 1.393 . S
C1620 H1609 0.950 1_655 S
C1620 C1618 1.391 . S
C1620 C1621 1.400 . S
C1621 C1615 1.491 1_655 S
C1621 C1620 1.400 . S
C1621 C1622 1.398 . S
C1622 H1610 0.950 . S
C1622 C1621 1.398 . S
C1622 C1623 1.391 . S
C1623 H1611 0.950 . S
C1623 C1619 1.393 . S
C1623 C1622 1.391 . S
H1624 C1632 0.950 . S
H1625 C1637 0.950 . S
H1626 C1634 0.950 . S
H1627 C1636 0.950 . S
H1628 C1638 0.950 . S
H1629 C1640 0.950 . S
H1630 C1642 0.950 . S
H1631 C1643 0.950 . S
C1632 H1624 0.950 . S
C1632 C1633 1.386 . S
C1632 C1634 1.391 . S
C1633 C1632 1.386 . S
C1633 C1637 1.393 . S
C1634 H1626 0.950 . S
C1634 C1632 1.391 . S
C1634 C1635 1.400 . S
C1635 C1634 1.400 . S
C1635 C1636 1.398 . S
C1635 C1641 1.491 1_655 S
C1636 H1627 0.950 . S
C1636 C1635 1.398 . S
C1636 C1637 1.391 . S
C1637 H1625 0.950 . S
C1637 C1633 1.393 . S
C1637 C1636 1.391 . S
C1638 H1628 0.950 . S
C1638 C1639 1.386 . S
C1638 C1640 1.391 . S
C1639 C1638 1.386 . S
C1639 C1643 1.393 . S
C1640 H1629 0.950 . S
C1640 C1638 1.391 . S
C1640 C1641 1.400 . S
C1641 C1635 1.491 1_455 S
C1641 C1640 1.400 . S
C1641 C1642 1.398 . S
C1642 H1630 0.950 . S
C1642 C1641 1.398 . S
C1642 C1643 1.391 . S
C1643 H1631 0.950 . S
C1643 C1639 1.393 . S
C1643 C1642 1.391 . S
H1644 C1652 0.950 . S
H1645 C1657 0.950 1_554 S
H1646 C1654 0.950 . S
H1647 C1656 0.950 . S
H1648 C1658 0.950 . S
H1649 C1660 0.950 . S
H1650 C1662 0.950 . S
H1651 C1663 0.950 1_556 S
C1652 H1644 0.950 . S
C1652 C1653 1.386 . S
C1652 C1654 1.391 . S
C1653 C1652 1.386 . S
C1653 C1657 1.393 . S
C1654 H1646 0.950 . S
C1654 C1652 1.391 . S
C1654 C1655 1.400 . S
C1655 C1654 1.400 . S
C1655 C1656 1.398 1_556 S
C1655 C1661 1.491 1_656 S
C1656 H1647 0.950 . S
C1656 C1655 1.398 1_554 S
C1656 C1657 1.391 1_554 S
C1657 H1645 0.950 1_556 S
C1657 C1653 1.393 . S
C1657 C1656 1.391 1_556 S
C1658 H1648 0.950 . S
C1658 C1659 1.386 . S
C1658 C1660 1.391 . S
C1659 C1658 1.386 . S
C1659 C1663 1.393 . S
C1660 H1649 0.950 . S
C1660 C1658 1.391 . S
C1660 C1661 1.400 . S
C1661 C1655 1.491 1_454 S
C1661 C1660 1.400 . S
C1661 C1662 1.398 1_554 S
C1662 H1650 0.950 . S
C1662 C1661 1.398 1_556 S
C1662 C1663 1.391 1_556 S
C1663 H1651 0.950 1_554 S
C1663 C1659 1.393 . S
C1663 C1662 1.391 1_554 S
H1664 C1672 0.950 . S
H1665 C1677 0.950 . S
H1666 C1674 0.950 . S
H1667 C1676 0.950 . S
H1668 C1678 0.950 . S
H1669 C1680 0.950 . S
H1670 C1682 0.950 . S
H1671 C1683 0.950 . S
C1672 H1664 0.950 . S
C1672 C1673 1.386 . S
C1672 C1674 1.391 . S
C1673 C1672 1.386 . S
C1673 C1677 1.393 . S
C1674 H1666 0.950 . S
C1674 C1672 1.391 . S
C1674 C1675 1.400 . S
C1675 C1674 1.400 . S
C1675 C1676 1.398 . S
C1675 C1681 1.491 . S
C1676 H1667 0.950 . S
C1676 C1675 1.398 . S
C1676 C1677 1.391 . S
C1677 H1665 0.950 . S
C1677 C1673 1.393 . S
C1677 C1676 1.391 . S
C1678 H1668 0.950 . S
C1678 C1679 1.386 . S
C1678 C1680 1.391 . S
C1679 C1678 1.386 . S
C1679 C1683 1.393 . S
C1680 H1669 0.950 . S
C1680 C1678 1.391 . S
C1680 C1681 1.400 . S
C1681 C1675 1.491 . S
C1681 C1680 1.400 . S
C1681 C1682 1.398 . S
C1682 H1670 0.950 . S
C1682 C1681 1.398 . S
C1682 C1683 1.391 . S
C1683 H1671 0.950 . S
C1683 C1679 1.393 . S
C1683 C1682 1.391 . S
H1684 C1692 0.950 . S
H1685 C1697 0.950 . S
H1686 C1694 0.950 . S
H1687 C1696 0.950 . S
H1688 C1698 0.950 . S
H1689 C1700 0.950 . S
H1690 C1702 0.950 . S
H1691 C1703 0.950 . S
C1692 H1684 0.950 . S
C1692 C1693 1.386 . S
C1692 C1694 1.391 . S
C1693 C1692 1.386 . S
C1693 C1697 1.393 . S
C1694 H1686 0.950 . S
C1694 C1692 1.391 . S
C1694 C1695 1.400 . S
C1695 C1694 1.400 . S
C1695 C1696 1.398 . S
C1695 C1701 1.491 . S
C1696 H1687 0.950 . S
C1696 C1695 1.398 . S
C1696 C1697 1.391 . S
C1697 H1685 0.950 . S
C1697 C1693 1.393 . S
C1697 C1696 1.391 . S
C1698 H1688 0.950 . S
C1698 C1699 1.386 . S
C1698 C1700 1.391 . S
C1699 C1698 1.386 . S
C1699 C1703 1.393 . S
C1700 H1689 0.950 . S
C1700 C1698 1.391 . S
C1700 C1701 1.400 . S
C1701 C1695 1.491 . S
C1701 C1700 1.400 . S
C1701 C1702 1.398 . S
C1702 H1690 0.950 . S
C1702 C1701 1.398 . S
C1702 C1703 1.391 . S
C1703 H1691 0.950 . S
C1703 C1699 1.393 . S
C1703 C1702 1.391 . S
H1704 C1712 0.950 . S
H1705 C1717 0.950 . S
H1706 C1714 0.950 . S
H1707 C1716 0.950 . S
H1708 C1718 0.950 . S
H1709 C1720 0.950 . S
H1710 C1722 0.950 . S
H1711 C1723 0.950 . S
C1712 H1704 0.950 . S
C1712 C1713 1.386 . S
C1712 C1714 1.391 . S
C1713 C1712 1.386 . S
C1713 C1717 1.393 . S
C1714 H1706 0.950 . S
C1714 C1712 1.391 . S
C1714 C1715 1.400 . S
C1715 C1714 1.400 . S
C1715 C1716 1.398 . S
C1715 C1721 1.491 . S
C1716 H1707 0.950 . S
C1716 C1715 1.398 . S
C1716 C1717 1.391 . S
C1717 H1705 0.950 . S
C1717 C1713 1.393 . S
C1717 C1716 1.391 . S
C1718 H1708 0.950 . S
C1718 C1719 1.386 . S
C1718 C1720 1.391 . S
C1719 C1718 1.386 . S
C1719 C1723 1.393 . S
C1720 H1709 0.950 . S
C1720 C1718 1.391 . S
C1720 C1721 1.400 . S
C1721 C1715 1.491 . S
C1721 C1720 1.400 . S
C1721 C1722 1.398 . S
C1722 H1710 0.950 . S
C1722 C1721 1.398 . S
C1722 C1723 1.391 . S
C1723 H1711 0.950 . S
C1723 C1719 1.393 . S
C1723 C1722 1.391 . S
H1724 C1732 0.950 . S
H1725 C1737 0.950 . S
H1726 C1734 0.950 . S
H1727 C1736 0.950 . S
H1728 C1738 0.950 . S
H1729 C1740 0.950 . S
H1730 C1742 0.950 . S
H1731 C1743 0.950 . S
C1732 H1724 0.950 . S
C1732 C1733 1.386 . S
C1732 C1734 1.391 . S
C1733 C1732 1.386 . S
C1733 C1737 1.393 . S
C1734 H1726 0.950 . S
C1734 C1732 1.391 . S
C1734 C1735 1.400 . S
C1735 C1734 1.400 . S
C1735 C1736 1.398 . S
C1735 C1741 1.491 . S
C1736 H1727 0.950 . S
C1736 C1735 1.398 . S
C1736 C1737 1.391 . S
C1737 H1725 0.950 . S
C1737 C1733 1.393 . S
C1737 C1736 1.391 . S
C1738 H1728 0.950 . S
C1738 C1739 1.386 . S
C1738 C1740 1.391 . S
C1739 C1738 1.386 . S
C1739 C1743 1.393 . S
C1740 H1729 0.950 . S
C1740 C1738 1.391 . S
C1740 C1741 1.400 . S
C1741 C1735 1.491 . S
C1741 C1740 1.400 . S
C1741 C1742 1.398 . S
C1742 H1730 0.950 . S
C1742 C1741 1.398 . S
C1742 C1743 1.391 . S
C1743 H1731 0.950 . S
C1743 C1739 1.393 . S
C1743 C1742 1.391 . S
H1744 C1752 0.950 . S
H1745 C1757 0.950 . S
H1746 C1754 0.950 . S
H1747 C1756 0.950 . S
H1748 C1758 0.950 . S
H1749 C1760 0.950 . S
H1750 C1762 0.950 . S
H1751 C1763 0.950 . S
C1752 H1744 0.950 . S
C1752 C1753 1.386 . S
C1752 C1754 1.391 . S
C1753 C1752 1.386 . S
C1753 C1757 1.393 . S
C1754 H1746 0.950 . S
C1754 C1752 1.391 . S
C1754 C1755 1.400 . S
C1755 C1754 1.400 . S
C1755 C1756 1.398 . S
C1755 C1761 1.491 . S
C1756 H1747 0.950 . S
C1756 C1755 1.398 . S
C1756 C1757 1.391 . S
C1757 H1745 0.950 . S
C1757 C1753 1.393 . S
C1757 C1756 1.391 . S
C1758 H1748 0.950 . S
C1758 C1759 1.386 . S
C1758 C1760 1.391 . S
C1759 C1758 1.386 . S
C1759 C1763 1.393 . S
C1760 H1749 0.950 . S
C1760 C1758 1.391 . S
C1760 C1761 1.400 . S
C1761 C1755 1.491 . S
C1761 C1760 1.400 . S
C1761 C1762 1.398 . S
C1762 H1750 0.950 . S
C1762 C1761 1.398 . S
C1762 C1763 1.391 . S
C1763 H1751 0.950 . S
C1763 C1759 1.393 . S
C1763 C1762 1.391 . S
H1764 C1772 0.950 . S
H1765 C1777 0.950 . S
H1766 C1774 0.950 . S
H1767 C1776 0.950 . S
H1768 C1778 0.950 . S
H1769 C1780 0.950 . S
H1770 C1782 0.950 . S
H1771 C1783 0.950 . S
C1772 H1764 0.950 . S
C1772 C1773 1.386 . S
C1772 C1774 1.391 . S
C1773 C1772 1.386 . S
C1773 C1777 1.393 . S
C1774 H1766 0.950 . S
C1774 C1772 1.391 . S
C1774 C1775 1.400 . S
C1775 C1774 1.400 . S
C1775 C1776 1.398 . S
C1775 C1781 1.491 . S
C1776 H1767 0.950 . S
C1776 C1775 1.398 . S
C1776 C1777 1.391 . S
C1777 H1765 0.950 . S
C1777 C1773 1.393 . S
C1777 C1776 1.391 . S
C1778 H1768 0.950 . S
C1778 C1779 1.386 . S
C1778 C1780 1.391 . S
C1779 C1778 1.386 . S
C1779 C1783 1.393 . S
C1780 H1769 0.950 . S
C1780 C1778 1.391 . S
C1780 C1781 1.400 . S
C1781 C1775 1.491 . S
C1781 C1780 1.400 . S
C1781 C1782 1.398 . S
C1782 H1770 0.950 . S
C1782 C1781 1.398 . S
C1782 C1783 1.391 . S
C1783 H1771 0.950 . S
C1783 C1779 1.393 . S
C1783 C1782 1.391 . S
H1784 C1792 0.950 . S
H1785 C1797 0.950 . S
H1786 C1794 0.950 . S
H1787 C1796 0.950 . S
H1788 C1798 0.950 . S
H1789 C1800 0.950 . S
H1790 C1802 0.950 . S
H1791 C1803 0.950 . S
C1792 H1784 0.950 . S
C1792 C1793 1.386 . S
C1792 C1794 1.391 . S
C1793 C1792 1.386 . S
C1793 C1797 1.393 . S
C1794 H1786 0.950 . S
C1794 C1792 1.391 . S
C1794 C1795 1.400 . S
C1795 C1794 1.400 . S
C1795 C1796 1.398 . S
C1795 C1801 1.491 . S
C1796 H1787 0.950 . S
C1796 C1795 1.398 . S
C1796 C1797 1.391 . S
C1797 H1785 0.950 . S
C1797 C1793 1.393 . S
C1797 C1796 1.391 . S
C1798 H1788 0.950 . S
C1798 C1799 1.386 . S
C1798 C1800 1.391 . S
C1799 C1798 1.386 . S
C1799 C1803 1.393 . S
C1800 H1789 0.950 . S
C1800 C1798 1.391 . S
C1800 C1801 1.400 . S
C1801 C1795 1.491 . S
C1801 C1800 1.400 . S
C1801 C1802 1.398 . S
C1802 H1790 0.950 . S
C1802 C1801 1.398 . S
C1802 C1803 1.391 . S
C1803 H1791 0.950 . S
C1803 C1799 1.393 . S
C1803 C1802 1.391 . S
H1804 C1812 0.950 . S
H1805 C1817 0.950 . S
H1806 C1814 0.950 . S
H1807 C1816 0.950 . S
H1808 C1818 0.950 . S
H1809 C1820 0.950 . S
H1810 C1822 0.950 . S
H1811 C1823 0.950 . S
C1812 H1804 0.950 . S
C1812 C1813 1.386 . S
C1812 C1814 1.391 . S
C1813 C1812 1.386 . S
C1813 C1817 1.393 . S
C1814 H1806 0.950 . S
C1814 C1812 1.391 . S
C1814 C1815 1.400 . S
C1815 C1814 1.400 . S
C1815 C1816 1.398 . S
C1815 C1821 1.491 . S
C1816 H1807 0.950 . S
C1816 C1815 1.398 . S
C1816 C1817 1.391 . S
C1817 H1805 0.950 . S
C1817 C1813 1.393 . S
C1817 C1816 1.391 . S
C1818 H1808 0.950 . S
C1818 C1819 1.386 . S
C1818 C1820 1.391 . S
C1819 C1818 1.386 . S
C1819 C1823 1.393 . S
C1820 H1809 0.950 . S
C1820 C1818 1.391 . S
C1820 C1821 1.400 . S
C1821 C1815 1.491 . S
C1821 C1820 1.400 . S
C1821 C1822 1.398 . S
C1822 H1810 0.950 . S
C1822 C1821 1.398 . S
C1822 C1823 1.391 . S
C1823 H1811 0.950 . S
C1823 C1819 1.393 . S
C1823 C1822 1.391 . S
H1824 C1832 0.950 . S
H1825 C1837 0.950 . S
H1826 C1834 0.950 . S
H1827 C1836 0.950 . S
H1828 C1838 0.950 . S
H1829 C1840 0.950 . S
H1830 C1842 0.950 . S
H1831 C1843 0.950 . S
C1832 H1824 0.950 . S
C1832 C1833 1.386 . S
C1832 C1834 1.391 . S
C1833 C1832 1.386 . S
C1833 C1837 1.393 . S
C1834 H1826 0.950 . S
C1834 C1832 1.391 . S
C1834 C1835 1.400 . S
C1835 C1834 1.400 . S
C1835 C1836 1.398 . S
C1835 C1841 1.491 . S
C1836 H1827 0.950 . S
C1836 C1835 1.398 . S
C1836 C1837 1.391 . S
C1837 H1825 0.950 . S
C1837 C1833 1.393 . S
C1837 C1836 1.391 . S
C1838 H1828 0.950 . S
C1838 C1839 1.386 . S
C1838 C1840 1.391 . S
C1839 C1838 1.386 . S
C1839 C1843 1.393 . S
C1840 H1829 0.950 . S
C1840 C1838 1.391 . S
C1840 C1841 1.400 . S
C1841 C1835 1.491 . S
C1841 C1840 1.400 . S
C1841 C1842 1.398 . S
C1842 H1830 0.950 . S
C1842 C1841 1.398 . S
C1842 C1843 1.391 . S
C1843 H1831 0.950 . S
C1843 C1839 1.393 . S
C1843 C1842 1.391 . S
H1844 C1852 0.950 . S
H1845 C1857 0.950 . S
H1846 C1854 0.950 . S
H1847 C1856 0.950 . S
H1848 C1858 0.950 . S
H1849 C1860 0.950 . S
H1850 C1862 0.950 . S
H1851 C1863 0.950 . S
C1852 H1844 0.950 . S
C1852 C1853 1.386 . S
C1852 C1854 1.391 . S
C1853 C1852 1.386 . S
C1853 C1857 1.393 . S
C1854 H1846 0.950 . S
C1854 C1852 1.391 . S
C1854 C1855 1.400 . S
C1855 C1854 1.400 . S
C1855 C1856 1.398 . S
C1855 C1861 1.491 . S
C1856 H1847 0.950 . S
C1856 C1855 1.398 . S
C1856 C1857 1.391 . S
C1857 H1845 0.950 . S
C1857 C1853 1.393 . S
C1857 C1856 1.391 . S
C1858 H1848 0.950 . S
C1858 C1859 1.386 . S
C1858 C1860 1.391 . S
C1859 C1858 1.386 . S
C1859 C1863 1.393 . S
C1860 H1849 0.950 . S
C1860 C1858 1.391 . S
C1860 C1861 1.400 . S
C1861 C1855 1.491 . S
C1861 C1860 1.400 . S
C1861 C1862 1.398 . S
C1862 H1850 0.950 . S
C1862 C1861 1.398 . S
C1862 C1863 1.391 . S
C1863 H1851 0.950 . S
C1863 C1859 1.393 . S
C1863 C1862 1.391 . S
H1864 C1872 0.950 . S
H1865 C1877 0.950 . S
H1866 C1874 0.950 . S
H1867 C1876 0.950 . S
H1868 C1878 0.950 . S
H1869 C1880 0.950 . S
H1870 C1882 0.950 . S
H1871 C1883 0.950 . S
C1872 H1864 0.950 . S
C1872 C1873 1.386 . S
C1872 C1874 1.391 . S
C1873 C1872 1.386 . S
C1873 C1877 1.393 . S
C1874 H1866 0.950 . S
C1874 C1872 1.391 . S
C1874 C1875 1.400 . S
C1875 C1874 1.400 . S
C1875 C1876 1.398 . S
C1875 C1881 1.491 . S
C1876 H1867 0.950 . S
C1876 C1875 1.398 . S
C1876 C1877 1.391 . S
C1877 H1865 0.950 . S
C1877 C1873 1.393 . S
C1877 C1876 1.391 . S
C1878 H1868 0.950 . S
C1878 C1879 1.386 . S
C1878 C1880 1.391 . S
C1879 C1878 1.386 . S
C1879 C1883 1.393 . S
C1880 H1869 0.950 . S
C1880 C1878 1.391 . S
C1880 C1881 1.400 . S
C1881 C1875 1.491 . S
C1881 C1880 1.400 . S
C1881 C1882 1.398 . S
C1882 H1870 0.950 . S
C1882 C1881 1.398 . S
C1882 C1883 1.391 . S
C1883 H1871 0.950 . S
C1883 C1879 1.393 . S
C1883 C1882 1.391 . S
H1884 C1892 0.950 . S
H1885 C1897 0.950 . S
H1886 C1894 0.950 . S
H1887 C1896 0.950 . S
H1888 C1898 0.950 . S
H1889 C1900 0.950 . S
H1890 C1902 0.950 . S
H1891 C1903 0.950 . S
C1892 H1884 0.950 . S
C1892 C1893 1.386 . S
C1892 C1894 1.391 . S
C1893 C1892 1.386 . S
C1893 C1897 1.393 . S
C1894 H1886 0.950 . S
C1894 C1892 1.391 . S
C1894 C1895 1.400 . S
C1895 C1894 1.400 . S
C1895 C1896 1.398 . S
C1895 C1901 1.491 . S
C1896 H1887 0.950 . S
C1896 C1895 1.398 . S
C1896 C1897 1.391 . S
C1897 H1885 0.950 . S
C1897 C1893 1.393 . S
C1897 C1896 1.391 . S
C1898 H1888 0.950 . S
C1898 C1899 1.386 . S
C1898 C1900 1.391 . S
C1899 C1898 1.386 . S
C1899 C1903 1.393 . S
C1900 H1889 0.950 . S
C1900 C1898 1.391 . S
C1900 C1901 1.400 . S
C1901 C1895 1.491 . S
C1901 C1900 1.400 . S
C1901 C1902 1.398 . S
C1902 H1890 0.950 . S
C1902 C1901 1.398 . S
C1902 C1903 1.391 . S
C1903 H1891 0.950 . S
C1903 C1899 1.393 . S
C1903 C1902 1.391 . S
H1904 C1912 0.950 . S
H1905 C1917 0.950 . S
H1906 C1914 0.950 . S
H1907 C1916 0.950 . S
H1908 C1918 0.950 . S
H1909 C1920 0.950 . S
H1910 C1922 0.950 . S
H1911 C1923 0.950 . S
C1912 H1904 0.950 . S
C1912 C1913 1.386 . S
C1912 C1914 1.391 . S
C1913 C1912 1.386 . S
C1913 C1917 1.393 . S
C1914 H1906 0.950 . S
C1914 C1912 1.391 . S
C1914 C1915 1.400 . S
C1915 C1914 1.400 . S
C1915 C1916 1.398 . S
C1915 C1921 1.491 . S
C1916 H1907 0.950 . S
C1916 C1915 1.398 . S
C1916 C1917 1.391 . S
C1917 H1905 0.950 . S
C1917 C1913 1.393 . S
C1917 C1916 1.391 . S
C1918 H1908 0.950 . S
C1918 C1919 1.386 . S
C1918 C1920 1.391 . S
C1919 C1918 1.386 . S
C1919 C1923 1.393 . S
C1920 H1909 0.950 . S
C1920 C1918 1.391 . S
C1920 C1921 1.400 . S
C1921 C1915 1.491 . S
C1921 C1920 1.400 . S
C1921 C1922 1.398 . S
C1922 H1910 0.950 . S
C1922 C1921 1.398 . S
C1922 C1923 1.391 . S
C1923 H1911 0.950 . S
C1923 C1919 1.393 . S
C1923 C1922 1.391 . S
H1924 C1932 0.950 . S
H1925 C1937 0.950 . S
H1926 C1934 0.950 . S
H1927 C1936 0.950 . S
H1928 C1938 0.950 . S
H1929 C1940 0.950 . S
H1930 C1942 0.950 . S
H1931 C1943 0.950 . S
C1932 H1924 0.950 . S
C1932 C1933 1.386 . S
C1932 C1934 1.391 . S
C1933 C1932 1.386 . S
C1933 C1937 1.393 . S
C1934 H1926 0.950 . S
C1934 C1932 1.391 . S
C1934 C1935 1.400 . S
C1935 C1934 1.400 . S
C1935 C1936 1.398 . S
C1935 C1941 1.491 . S
C1936 H1927 0.950 . S
C1936 C1935 1.398 . S
C1936 C1937 1.391 . S
C1937 H1925 0.950 . S
C1937 C1933 1.393 . S
C1937 C1936 1.391 . S
C1938 H1928 0.950 . S
C1938 C1939 1.386 . S
C1938 C1940 1.391 . S
C1939 C1938 1.386 . S
C1939 C1943 1.393 . S
C1940 H1929 0.950 . S
C1940 C1938 1.391 . S
C1940 C1941 1.400 . S
C1941 C1935 1.491 . S
C1941 C1940 1.400 . S
C1941 C1942 1.398 . S
C1942 H1930 0.950 . S
C1942 C1941 1.398 . S
C1942 C1943 1.391 . S
C1943 H1931 0.950 . S
C1943 C1939 1.393 . S
C1943 C1942 1.391 . S
H1944 C1952 0.950 . S
H1945 C1957 0.950 . S
H1946 C1954 0.950 . S
H1947 C1956 0.950 . S
H1948 C1958 0.950 . S
H1949 C1960 0.950 . S
H1950 C1962 0.950 . S
H1951 C1963 0.950 . S
C1952 H1944 0.950 . S
C1952 C1953 1.386 . S
C1952 C1954 1.391 . S
C1953 C1952 1.386 . S
C1953 C1957 1.393 . S
C1954 H1946 0.950 . S
C1954 C1952 1.391 . S
C1954 C1955 1.400 . S
C1955 C1954 1.400 . S
C1955 C1956 1.398 . S
C1955 C1961 1.491 . S
C1956 H1947 0.950 . S
C1956 C1955 1.398 . S
C1956 C1957 1.391 . S
C1957 H1945 0.950 . S
C1957 C1953 1.393 . S
C1957 C1956 1.391 . S
C1958 H1948 0.950 . S
C1958 C1959 1.386 . S
C1958 C1960 1.391 . S
C1959 C1958 1.386 . S
C1959 C1963 1.393 . S
C1960 H1949 0.950 . S
C1960 C1958 1.391 . S
C1960 C1961 1.400 . S
C1961 C1955 1.491 . S
C1961 C1960 1.400 . S
C1961 C1962 1.398 . S
C1962 H1950 0.950 . S
C1962 C1961 1.398 . S
C1962 C1963 1.391 . S
C1963 H1951 0.950 . S
C1963 C1959 1.393 . S
C1963 C1962 1.391 . S
H1964 C1972 0.950 . S
H1965 C1977 0.950 . S
H1966 C1974 0.950 . S
H1967 C1976 0.950 . S
H1968 C1978 0.950 . S
H1969 C1980 0.950 . S
H1970 C1982 0.950 . S
H1971 C1983 0.950 . S
C1972 H1964 0.950 . S
C1972 C1973 1.386 . S
C1972 C1974 1.391 . S
C1973 C1972 1.386 . S
C1973 C1977 1.393 . S
C1974 H1966 0.950 . S
C1974 C1972 1.391 . S
C1974 C1975 1.400 . S
C1975 C1974 1.400 . S
C1975 C1976 1.398 . S
C1975 C1981 1.491 . S
C1976 H1967 0.950 . S
C1976 C1975 1.398 . S
C1976 C1977 1.391 . S
C1977 H1965 0.950 . S
C1977 C1973 1.393 . S
C1977 C1976 1.391 . S
C1978 H1968 0.950 . S
C1978 C1979 1.386 . S
C1978 C1980 1.391 . S
C1979 C1978 1.386 . S
C1979 C1983 1.393 . S
C1980 H1969 0.950 . S
C1980 C1978 1.391 . S
C1980 C1981 1.400 . S
C1981 C1975 1.491 . S
C1981 C1980 1.400 . S
C1981 C1982 1.398 . S
C1982 H1970 0.950 . S
C1982 C1981 1.398 . S
C1982 C1983 1.391 . S
C1983 H1971 0.950 . S
C1983 C1979 1.393 . S
C1983 C1982 1.391 . S
H1984 C1992 0.950 . S
H1985 C1997 0.941 1_545 S
H1986 C1994 0.950 1_554 S
H1987 C1996 0.950 . S
H1988 C1998 0.950 . S
H1989 C2000 0.950 . S
H1990 C2002 0.950 1_565 S
H1991 C2003 0.950 . S
C1992 H1984 0.950 . S
C1992 C1993 1.386 . S
C1992 C1994 1.391 . S
C1993 C1992 1.386 . S
C1993 C1997 1.412 . S
C1994 H1986 0.950 1_556 S
C1994 C1992 1.391 . S
C1994 C1995 1.400 1_565 S
C1995 C1994 1.400 1_545 S
C1995 C1996 1.398 . S
C1995 C2001 1.491 . S
C1996 H1987 0.950 . S
C1996 C1995 1.398 . S
C1996 C1997 1.381 1_545 S
C1997 H1985 0.941 1_565 S
C1997 C1993 1.412 . S
C1997 C1996 1.381 1_565 S
C1998 H1988 0.950 . S
C1998 C1999 1.388 1_556 S
C1998 C2000 1.391 . S
C1999 C1998 1.388 1_554 S
C1999 C2003 1.391 . S
C2000 H1989 0.950 . S
C2000 C1998 1.391 . S
C2000 C2001 1.400 . S
C2001 C1995 1.491 . S
C2001 C2000 1.400 . S
C2001 C2002 1.398 1_556 S
C2002 H1990 0.950 1_545 S
C2002 C2001 1.398 1_554 S
C2002 C2003 1.391 . S
C2003 H1991 0.950 . S
C2003 C1999 1.391 . S
C2003 C2002 1.391 . S
H2004 C2012 0.950 . S
H2005 C2017 0.950 1_554 S
H2006 C2014 0.950 . S
H2007 C2016 0.951 . S
H2008 C2018 0.950 . S
H2009 C2020 0.950 . S
H2010 C2022 0.950 . S
H2011 C2023 0.950 . S
C2012 H2004 0.950 . S
C2012 C2013 1.386 . S
C2012 C2014 1.391 . S
C2013 C2012 1.386 . S
C2013 C2017 1.393 . S
C2014 H2006 0.950 . S
C2014 C2012 1.391 . S
C2014 C2015 1.400 . S
C2015 C2014 1.400 . S
C2015 C2016 1.398 1_556 S
C2015 C2021 1.491 . S
C2016 H2007 0.951 . S
C2016 C2015 1.398 1_554 S
C2016 C2017 1.390 1_554 S
C2017 H2005 0.950 1_556 S
C2017 C2013 1.393 . S
C2017 C2016 1.390 1_556 S
C2018 H2008 0.950 . S
C2018 C2019 1.386 1_554 S
C2018 C2020 1.391 . S
C2019 C2018 1.386 1_556 S
C2019 C2023 1.393 . S
C2020 H2009 0.950 . S
C2020 C2018 1.391 . S
C2020 C2021 1.400 1_654 S
C2021 C2015 1.491 . S
C2021 C2020 1.400 1_456 S
C2021 C2022 1.398 . S
C2022 H2010 0.950 . S
C2022 C2021 1.398 . S
C2022 C2023 1.391 1_455 S
C2023 H2011 0.950 . S
C2023 C2019 1.393 . S
C2023 C2022 1.391 1_655 S
H2024 C2032 0.950 . S
H2025 C2037 0.950 . S
H2026 C2034 0.950 . S
H2027 C2036 0.950 . S
H2028 C2038 0.950 . S
H2029 C2040 0.950 . S
H2030 C2042 0.950 . S
H2031 C2043 0.950 . S
C2032 H2024 0.950 . S
C2032 C2033 1.386 . S
C2032 C2034 1.391 . S
C2033 C2032 1.386 . S
C2033 C2037 1.393 . S
C2034 H2026 0.950 . S
C2034 C2032 1.391 . S
C2034 C2035 1.400 . S
C2035 C2034 1.400 . S
C2035 C2036 1.398 . S
C2035 C2041 1.491 . S
C2036 H2027 0.950 . S
C2036 C2035 1.398 . S
C2036 C2037 1.391 . S
C2037 H2025 0.950 . S
C2037 C2033 1.393 . S
C2037 C2036 1.391 . S
C2038 H2028 0.950 . S
C2038 C2039 1.386 . S
C2038 C2040 1.391 . S
C2039 C2038 1.386 . S
C2039 C2043 1.393 . S
C2040 H2029 0.950 . S
C2040 C2038 1.391 . S
C2040 C2041 1.400 . S
C2041 C2035 1.491 . S
C2041 C2040 1.400 . S
C2041 C2042 1.398 . S
C2042 H2030 0.950 . S
C2042 C2041 1.398 . S
C2042 C2043 1.391 . S
C2043 H2031 0.950 . S
C2043 C2039 1.393 . S
C2043 C2042 1.391 . S
H2044 C2052 0.950 . S
H2045 C2057 0.950 . S
H2046 C2054 0.950 . S
H2047 C2056 0.950 1_565 S
H2048 C2058 0.950 . S
H2049 C2060 0.950 . S
H2050 C2062 0.950 . S
H2051 C2063 0.950 . S
C2052 H2044 0.950 . S
C2052 C2053 1.386 . S
C2052 C2054 1.391 1_655 S
C2053 C2052 1.386 . S
C2053 C2057 1.393 . S
C2054 H2046 0.950 . S
C2054 C2052 1.391 1_455 S
C2054 C2055 1.400 . S
C2055 C2054 1.400 . S
C2055 C2056 1.398 1_455 S
C2055 C2061 1.491 . S
C2056 H2047 0.950 1_545 S
C2056 C2055 1.398 1_655 S
C2056 C2057 1.391 . S
C2057 H2045 0.950 . S
C2057 C2053 1.393 . S
C2057 C2056 1.391 . S
C2058 H2048 0.950 . S
C2058 C2059 1.386 . S
C2058 C2060 1.391 . S
C2059 C2058 1.386 . S
C2059 C2063 1.393 1_565 S
C2060 H2049 0.950 . S
C2060 C2058 1.391 . S
C2060 C2061 1.400 1_565 S
C2061 C2055 1.491 . S
C2061 C2060 1.400 1_545 S
C2061 C2062 1.398 . S
C2062 H2050 0.950 . S
C2062 C2061 1.398 . S
C2062 C2063 1.391 . S
C2063 H2051 0.950 . S
C2063 C2059 1.393 1_545 S
C2063 C2062 1.391 . S
H2064 C2072 0.950 . S
H2065 C2077 0.950 . S
H2066 C2074 0.953 . S
H2067 C2076 0.950 1_545 S
H2068 C2078 0.950 . S
H2069 C2080 0.950 . S
H2070 C2082 0.950 . S
H2071 C2083 0.957 . S
C2072 H2064 0.950 . S
C2072 C2073 1.387 1_556 S
C2072 C2074 1.394 . S
C2073 C2072 1.387 1_554 S
C2073 C2077 1.391 . S
C2074 H2066 0.953 . S
C2074 C2072 1.394 . S
C2074 C2075 1.395 1_556 S
C2075 C2074 1.395 1_554 S
C2075 C2076 1.398 . S
C2075 C2081 1.491 . S
C2076 H2067 0.950 1_565 S
C2076 C2075 1.398 . S
C2076 C2077 1.391 . S
C2077 H2065 0.950 . S
C2077 C2073 1.391 . S
C2077 C2076 1.391 . S
C2078 H2068 0.950 . S
C2078 C2079 1.386 . S
C2078 C2080 1.391 . S
C2079 C2078 1.386 . S
C2079 C2083 1.377 1_545 S
C2080 H2069 0.950 . S
C2080 C2078 1.391 . S
C2080 C2081 1.400 1_545 S
C2081 C2075 1.491 . S
C2081 C2080 1.400 1_565 S
C2081 C2082 1.398 . S
C2082 H2070 0.950 . S
C2082 C2081 1.398 . S
C2082 C2083 1.399 . S
C2083 H2071 0.957 . S
C2083 C2079 1.377 1_565 S
C2083 C2082 1.399 . S
H2084 C2092 0.950 . S
H2085 C2097 0.950 . S
H2086 C2094 0.950 . S
H2087 C2096 0.950 . S
H2088 C2098 0.950 . S
H2089 C2100 0.950 . S
H2090 C2102 0.950 . S
H2091 C2103 0.950 . S
C2092 H2084 0.950 . S
C2092 C2093 1.386 1_556 S
C2092 C2094 1.391 1_455 S
C2093 C2092 1.386 1_554 S
C2093 C2097 1.391 . S
C2094 H2086 0.950 . S
C2094 C2092 1.391 1_655 S
C2094 C2095 1.400 1_556 S
C2095 C2094 1.400 1_554 S
C2095 C2096 1.398 1_655 S
C2095 C2101 1.491 . S
C2096 H2087 0.950 . S
C2096 C2095 1.398 1_455 S
C2096 C2097 1.391 . S
C2097 H2085 0.950 . S
C2097 C2093 1.391 . S
C2097 C2096 1.391 . S
C2098 H2088 0.950 . S
C2098 C2099 1.386 . S
C2098 C2100 1.391 . S
C2099 C2098 1.386 . S
C2099 C2103 1.393 . S
C2100 H2089 0.950 . S
C2100 C2098 1.391 . S
C2100 C2101 1.400 . S
C2101 C2095 1.491 . S
C2101 C2100 1.400 . S
C2101 C2102 1.398 . S
C2102 H2090 0.950 . S
C2102 C2101 1.398 . S
C2102 C2103 1.391 . S
C2103 H2091 0.950 . S
C2103 C2099 1.393 . S
C2103 C2102 1.391 . S
H2104 C2112 0.950 . S
H2105 C2117 0.950 . S
H2106 C2114 0.950 . S
H2107 C2116 0.950 . S
H2108 C2118 0.950 . S
H2109 C2120 0.950 . S
H2110 C2122 0.950 . S
H2111 C2123 0.950 . S
C2112 H2104 0.950 . S
C2112 C2113 1.386 . S
C2112 C2114 1.391 . S
C2113 C2112 1.386 . S
C2113 C2117 1.393 . S
C2114 H2106 0.950 . S
C2114 C2112 1.391 . S
C2114 C2115 1.400 . S
C2115 C2114 1.400 . S
C2115 C2116 1.398 . S
C2115 C2121 1.491 . S
C2116 H2107 0.950 . S
C2116 C2115 1.398 . S
C2116 C2117 1.391 . S
C2117 H2105 0.950 . S
C2117 C2113 1.393 . S
C2117 C2116 1.391 . S
C2118 H2108 0.950 . S
C2118 C2119 1.386 . S
C2118 C2120 1.391 . S
C2119 C2118 1.386 . S
C2119 C2123 1.393 . S
C2120 H2109 0.950 . S
C2120 C2118 1.391 . S
C2120 C2121 1.400 . S
C2121 C2115 1.491 . S
C2121 C2120 1.400 . S
C2121 C2122 1.398 . S
C2122 H2110 0.950 . S
C2122 C2121 1.398 . S
C2122 C2123 1.391 . S
C2123 H2111 0.950 . S
C2123 C2119 1.393 . S
C2123 C2122 1.391 . S
H2124 C2132 0.950 . S
H2125 C2137 0.950 1_565 S
H2126 C2134 0.950 . S
H2127 C2136 0.950 . S
H2128 C2138 0.950 . S
H2129 C2140 0.950 . S
H2130 C2142 0.950 1_545 S
H2131 C2143 0.950 . S
C2132 H2124 0.950 . S
C2132 C2133 1.386 . S
C2132 C2134 1.391 . S
C2133 C2132 1.386 . S
C2133 C2137 1.393 . S
C2134 H2126 0.950 . S
C2134 C2132 1.391 . S
C2134 C2135 1.400 1_545 S
C2135 C2134 1.400 1_565 S
C2135 C2136 1.398 . S
C2135 C2141 1.491 . S
C2136 H2127 0.950 . S
C2136 C2135 1.398 . S
C2136 C2137 1.391 1_565 S
C2137 H2125 0.950 1_545 S
C2137 C2133 1.393 . S
C2137 C2136 1.391 1_545 S
C2138 H2128 0.950 . S
C2138 C2139 1.386 . S
C2138 C2140 1.391 1_455 S
C2139 C2138 1.386 . S
C2139 C2143 1.393 . S
C2140 H2129 0.950 . S
C2140 C2138 1.391 1_655 S
C2140 C2141 1.400 . S
C2141 C2135 1.491 . S
C2141 C2140 1.400 . S
C2141 C2142 1.398 1_655 S
C2142 H2130 0.950 1_565 S
C2142 C2141 1.398 1_455 S
C2142 C2143 1.391 . S
C2143 H2131 0.950 . S
C2143 C2139 1.393 . S
C2143 C2142 1.391 . S
H2144 C2152 0.950 . S
H2145 C2157 0.950 . S
H2146 C2154 0.950 . S
H2147 C2156 0.950 . S
H2148 C2158 0.950 . S
H2149 C2160 0.950 . S
H2150 C2162 0.950 . S
H2151 C2163 0.950 . S
C2152 H2144 0.950 . S
C2152 C2153 1.386 . S
C2152 C2154 1.391 . S
C2153 C2152 1.386 . S
C2153 C2157 1.393 . S
C2154 H2146 0.950 . S
C2154 C2152 1.391 . S
C2154 C2155 1.400 . S
C2155 C2154 1.400 . S
C2155 C2156 1.398 . S
C2155 C2161 1.491 . S
C2156 H2147 0.950 . S
C2156 C2155 1.398 . S
C2156 C2157 1.391 . S
C2157 H2145 0.950 . S
C2157 C2153 1.393 . S
C2157 C2156 1.391 . S
C2158 H2148 0.950 . S
C2158 C2159 1.386 . S
C2158 C2160 1.391 . S
C2159 C2158 1.386 . S
C2159 C2163 1.393 . S
C2160 H2149 0.950 . S
C2160 C2158 1.391 . S
C2160 C2161 1.400 . S
C2161 C2155 1.491 . S
C2161 C2160 1.400 . S
C2161 C2162 1.398 . S
C2162 H2150 0.950 . S
C2162 C2161 1.398 . S
C2162 C2163 1.391 . S
C2163 H2151 0.950 . S
C2163 C2159 1.393 . S
C2163 C2162 1.391 . S
H2164 C2172 0.950 . S
H2165 C2177 0.950 . S
H2166 C2174 0.950 . S
H2167 C2176 0.950 . S
H2168 C2178 0.950 . S
H2169 C2180 0.950 1_455 S
H2170 C2182 0.950 . S
H2171 C2183 0.950 . S
C2172 H2164 0.950 . S
C2172 C2173 1.386 . S
C2172 C2174 1.391 . S
C2173 C2172 1.386 . S
C2173 C2177 1.393 . S
C2174 H2166 0.950 . S
C2174 C2172 1.391 . S
C2174 C2175 1.400 . S
C2175 C2174 1.400 . S
C2175 C2176 1.398 . S
C2175 C2181 1.491 . S
C2176 H2167 0.950 . S
C2176 C2175 1.398 . S
C2176 C2177 1.391 . S
C2177 H2165 0.950 . S
C2177 C2173 1.393 . S
C2177 C2176 1.391 . S
C2178 H2168 0.950 . S
C2178 C2179 1.386 . S
C2178 C2180 1.391 . S
C2179 C2178 1.386 . S
C2179 C2183 1.393 . S
C2180 H2169 0.950 1_655 S
C2180 C2178 1.391 . S
C2180 C2181 1.400 1_655 S
C2181 C2175 1.491 . S
C2181 C2180 1.400 1_455 S
C2181 C2182 1.398 1_455 S
C2182 H2170 0.950 . S
C2182 C2181 1.398 1_655 S
C2182 C2183 1.391 . S
C2183 H2171 0.950 . S
C2183 C2179 1.393 . S
C2183 C2182 1.391 . S
H2184 C2192 0.950 . S
H2185 C2197 0.950 . S
H2186 C2194 0.950 . S
H2187 C2196 0.950 . S
H2188 C2198 0.950 . S
H2189 C2200 0.950 . S
H2190 C2202 0.950 . S
H2191 C2203 0.950 . S
C2192 H2184 0.950 . S
C2192 C2193 1.386 . S
C2192 C2194 1.391 . S
C2193 C2192 1.386 . S
C2193 C2197 1.393 . S
C2194 H2186 0.950 . S
C2194 C2192 1.391 . S
C2194 C2195 1.400 . S
C2195 C2194 1.400 . S
C2195 C2196 1.398 . S
C2195 C2201 1.491 . S
C2196 H2187 0.950 . S
C2196 C2195 1.398 . S
C2196 C2197 1.391 . S
C2197 H2185 0.950 . S
C2197 C2193 1.393 . S
C2197 C2196 1.391 . S
C2198 H2188 0.950 . S
C2198 C2199 1.386 . S
C2198 C2200 1.391 . S
C2199 C2198 1.386 . S
C2199 C2203 1.393 . S
C2200 H2189 0.950 . S
C2200 C2198 1.391 . S
C2200 C2201 1.400 . S
C2201 C2195 1.491 . S
C2201 C2200 1.400 . S
C2201 C2202 1.398 . S
C2202 H2190 0.950 . S
C2202 C2201 1.398 . S
C2202 C2203 1.391 . S
C2203 H2191 0.950 . S
C2203 C2199 1.393 . S
C2203 C2202 1.391 . S
H2204 C2212 0.950 . S
H2205 C2217 0.950 . S
H2206 C2214 0.950 . S
H2207 C2216 0.950 . S
H2208 C2218 0.950 . S
H2209 C2220 0.950 . S
H2210 C2222 0.950 . S
H2211 C2223 0.950 . S
C2212 H2204 0.950 . S
C2212 C2213 1.386 . S
C2212 C2214 1.391 . S
C2213 C2212 1.386 . S
C2213 C2217 1.393 . S
C2214 H2206 0.950 . S
C2214 C2212 1.391 . S
C2214 C2215 1.400 . S
C2215 C2214 1.400 . S
C2215 C2216 1.398 . S
C2215 C2221 1.491 . S
C2216 H2207 0.950 . S
C2216 C2215 1.398 . S
C2216 C2217 1.391 . S
C2217 H2205 0.950 . S
C2217 C2213 1.393 . S
C2217 C2216 1.391 . S
C2218 H2208 0.950 . S
C2218 C2219 1.386 . S
C2218 C2220 1.391 1_655 S
C2219 C2218 1.386 . S
C2219 C2223 1.393 . S
C2220 H2209 0.950 . S
C2220 C2218 1.391 1_455 S
C2220 C2221 1.400 . S
C2221 C2215 1.491 . S
C2221 C2220 1.400 . S
C2221 C2222 1.398 1_455 S
C2222 H2210 0.950 . S
C2222 C2221 1.398 1_655 S
C2222 C2223 1.391 . S
C2223 H2211 0.950 . S
C2223 C2219 1.393 . S
C2223 C2222 1.391 . S
H2224 C2232 0.950 . S
H2225 C2237 0.950 . S
H2226 C2234 0.950 . S
H2227 C2236 0.950 . S
H2228 C2238 0.950 . S
H2229 C2240 0.950 . S
H2230 C2242 0.950 . S
H2231 C2243 0.950 . S
C2232 H2224 0.950 . S
C2232 C2233 1.386 . S
C2232 C2234 1.391 . S
C2233 C2232 1.386 . S
C2233 C2237 1.393 . S
C2234 H2226 0.950 . S
C2234 C2232 1.391 . S
C2234 C2235 1.400 . S
C2235 C2234 1.400 . S
C2235 C2236 1.398 . S
C2235 C2241 1.491 . S
C2236 H2227 0.950 . S
C2236 C2235 1.398 . S
C2236 C2237 1.391 . S
C2237 H2225 0.950 . S
C2237 C2233 1.393 . S
C2237 C2236 1.391 . S
C2238 H2228 0.950 . S
C2238 C2239 1.386 . S
C2238 C2240 1.391 . S
C2239 C2238 1.386 . S
C2239 C2243 1.393 . S
C2240 H2229 0.950 . S
C2240 C2238 1.391 . S
C2240 C2241 1.400 . S
C2241 C2235 1.491 . S
C2241 C2240 1.400 . S
C2241 C2242 1.398 . S
C2242 H2230 0.950 . S
C2242 C2241 1.398 . S
C2242 C2243 1.391 . S
C2243 H2231 0.950 . S
C2243 C2239 1.393 . S
C2243 C2242 1.391 . S
H2244 C2252 0.950 . S
H2245 C2257 0.950 . S
H2246 C2254 0.950 . S
H2247 C2256 0.950 . S
H2248 C2258 0.950 . S
H2249 C2260 0.950 . S
H2250 C2262 0.950 . S
H2251 C2263 0.950 . S
C2252 H2244 0.950 . S
C2252 C2253 1.386 . S
C2252 C2254 1.391 1_455 S
C2253 C2252 1.386 . S
C2253 C2257 1.393 . S
C2254 H2246 0.950 . S
C2254 C2252 1.391 1_655 S
C2254 C2255 1.400 . S
C2255 C2254 1.400 . S
C2255 C2256 1.398 1_655 S
C2255 C2261 1.491 . S
C2256 H2247 0.950 . S
C2256 C2255 1.398 1_455 S
C2256 C2257 1.391 . S
C2257 H2245 0.950 . S
C2257 C2253 1.393 . S
C2257 C2256 1.391 . S
C2258 H2248 0.950 . S
C2258 C2259 1.386 . S
C2258 C2260 1.391 . S
C2259 C2258 1.386 . S
C2259 C2263 1.393 . S
C2260 H2249 0.950 . S
C2260 C2258 1.391 . S
C2260 C2261 1.400 . S
C2261 C2255 1.491 . S
C2261 C2260 1.400 . S
C2261 C2262 1.398 . S
C2262 H2250 0.950 . S
C2262 C2261 1.398 . S
C2262 C2263 1.391 . S
C2263 H2251 0.950 . S
C2263 C2259 1.393 . S
C2263 C2262 1.391 . S
H2264 C2272 0.950 . S
H2265 C2277 0.950 . S
H2266 C2274 0.950 . S
H2267 C2276 0.950 . S
H2268 C2278 0.950 . S
H2269 C2280 0.950 . S
H2270 C2282 0.950 . S
H2271 C2283 0.950 . S
C2272 H2264 0.950 . S
C2272 C2273 1.386 . S
C2272 C2274 1.391 . S
C2273 C2272 1.386 . S
C2273 C2277 1.393 . S
C2274 H2266 0.950 . S
C2274 C2272 1.391 . S
C2274 C2275 1.400 . S
C2275 C2274 1.400 . S
C2275 C2276 1.398 . S
C2275 C2281 1.491 . S
C2276 H2267 0.950 . S
C2276 C2275 1.398 . S
C2276 C2277 1.391 . S
C2277 H2265 0.950 . S
C2277 C2273 1.393 . S
C2277 C2276 1.391 . S
C2278 H2268 0.950 . S
C2278 C2279 1.386 . S
C2278 C2280 1.391 . S
C2279 C2278 1.386 . S
C2279 C2283 1.393 . S
C2280 H2269 0.950 . S
C2280 C2278 1.391 . S
C2280 C2281 1.400 . S
C2281 C2275 1.491 . S
C2281 C2280 1.400 . S
C2281 C2282 1.398 . S
C2282 H2270 0.950 . S
C2282 C2281 1.398 . S
C2282 C2283 1.391 . S
C2283 H2271 0.950 . S
C2283 C2279 1.393 . S
C2283 C2282 1.391 . S
H2284 C2292 0.950 . S
H2285 C2297 0.950 . S
H2286 C2294 0.950 . S
H2287 C2296 0.950 . S
H2288 C2298 0.950 . S
H2289 C2300 0.930 1_655 S
H2290 C2302 0.950 . S
H2291 C2303 0.950 . S
C2292 H2284 0.950 . S
C2292 C2293 1.386 . S
C2292 C2294 1.391 . S
C2293 C2292 1.386 . S
C2293 C2297 1.393 . S
C2294 H2286 0.950 . S
C2294 C2292 1.391 . S
C2294 C2295 1.400 . S
C2295 C2294 1.400 . S
C2295 C2296 1.398 . S
C2295 C2301 1.491 . S
C2296 H2287 0.950 . S
C2296 C2295 1.398 . S
C2296 C2297 1.391 . S
C2297 H2285 0.950 . S
C2297 C2293 1.393 . S
C2297 C2296 1.391 . S
C2298 H2288 0.950 . S
C2298 C2299 1.386 . S
C2298 C2300 1.421 . S
C2299 C2298 1.386 . S
C2299 C2303 1.393 . S
C2300 H2289 0.930 1_455 S
C2300 C2298 1.421 . S
C2300 C2301 1.391 1_455 S
C2301 C2295 1.491 . S
C2301 C2300 1.391 1_655 S
C2301 C2302 1.398 1_655 S
C2302 H2290 0.950 . S
C2302 C2301 1.398 1_455 S
C2302 C2303 1.391 . S
C2303 H2291 0.950 . S
C2303 C2299 1.393 . S
C2303 C2302 1.391 . S
H2304 C2312 0.950 . S
H2305 C2317 0.950 . S
H2306 C2314 0.950 1_565 S
H2307 C2316 0.950 . S
H2308 C2318 0.938 1_545 S
H2309 C2320 0.950 . S
H2310 C2322 0.950 . S
H2311 C2323 0.950 . S
C2312 H2304 0.950 . S
C2312 C2313 1.386 . S
C2312 C2314 1.391 . S
C2313 C2312 1.386 . S
C2313 C2317 1.393 . S
C2314 H2306 0.950 1_545 S
C2314 C2312 1.391 . S
C2314 C2315 1.400 . S
C2315 C2314 1.400 . S
C2315 C2316 1.398 . S
C2315 C2321 1.491 . S
C2316 H2307 0.950 . S
C2316 C2315 1.398 . S
C2316 C2317 1.391 . S
C2317 H2305 0.950 . S
C2317 C2313 1.393 . S
C2317 C2316 1.391 . S
C2318 H2308 0.938 1_565 S
C2318 C2319 1.411 . S
C2318 C2320 1.378 1_565 S
C2319 C2318 1.411 . S
C2319 C2323 1.393 . S
C2320 H2309 0.950 . S
C2320 C2318 1.378 1_545 S
C2320 C2321 1.400 . S
C2321 C2315 1.491 . S
C2321 C2320 1.400 . S
C2321 C2322 1.398 1_545 S
C2322 H2310 0.950 . S
C2322 C2321 1.398 1_565 S
C2322 C2323 1.391 . S
C2323 H2311 0.950 . S
C2323 C2319 1.393 . S
C2323 C2322 1.391 . S
H2324 C2332 0.950 . S
H2325 C2337 0.950 . S
H2326 C2334 0.950 . S
H2327 C2336 0.950 . S
H2328 C2338 0.950 . S
H2329 C2340 0.950 . S
H2330 C2342 0.950 . S
H2331 C2343 0.950 . S
C2332 H2324 0.950 . S
C2332 C2333 1.386 . S
C2332 C2334 1.391 . S
C2333 C2332 1.386 . S
C2333 C2337 1.393 . S
C2334 H2326 0.950 . S
C2334 C2332 1.391 . S
C2334 C2335 1.400 . S
C2335 C2334 1.400 . S
C2335 C2336 1.398 . S
C2335 C2341 1.491 . S
C2336 H2327 0.950 . S
C2336 C2335 1.398 . S
C2336 C2337 1.391 . S
C2337 H2325 0.950 . S
C2337 C2333 1.393 . S
C2337 C2336 1.391 . S
C2338 H2328 0.950 . S
C2338 C2339 1.386 . S
C2338 C2340 1.391 . S
C2339 C2338 1.386 . S
C2339 C2343 1.393 . S
C2340 H2329 0.950 . S
C2340 C2338 1.391 . S
C2340 C2341 1.400 . S
C2341 C2335 1.491 . S
C2341 C2340 1.400 . S
C2341 C2342 1.398 . S
C2342 H2330 0.950 . S
C2342 C2341 1.398 . S
C2342 C2343 1.391 . S
C2343 H2331 0.950 . S
C2343 C2339 1.393 . S
C2343 C2342 1.391 . S
H2344 C2352 0.950 . S
H2345 C2357 0.950 . S
H2346 C2354 0.950 . S
H2347 C2356 0.950 . S
H2348 C2358 0.950 . S
H2349 C2360 0.950 . S
H2350 C2362 0.950 . S
H2351 C2363 0.950 . S
C2352 H2344 0.950 . S
C2352 C2353 1.386 . S
C2352 C2354 1.391 . S
C2353 C2352 1.386 . S
C2353 C2357 1.393 . S
C2354 H2346 0.950 . S
C2354 C2352 1.391 . S
C2354 C2355 1.400 . S
C2355 C2354 1.400 . S
C2355 C2356 1.398 . S
C2355 C2361 1.491 . S
C2356 H2347 0.950 . S
C2356 C2355 1.398 . S
C2356 C2357 1.391 . S
C2357 H2345 0.950 . S
C2357 C2353 1.393 . S
C2357 C2356 1.391 . S
C2358 H2348 0.950 . S
C2358 C2359 1.386 . S
C2358 C2360 1.391 . S
C2359 C2358 1.386 . S
C2359 C2363 1.393 . S
C2360 H2349 0.950 . S
C2360 C2358 1.391 . S
C2360 C2361 1.400 . S
C2361 C2355 1.491 . S
C2361 C2360 1.400 . S
C2361 C2362 1.398 . S
C2362 H2350 0.950 . S
C2362 C2361 1.398 . S
C2362 C2363 1.391 . S
C2363 H2351 0.950 . S
C2363 C2359 1.393 . S
C2363 C2362 1.391 . S
H2364 C2372 0.950 . S
H2365 C2377 0.950 . S
H2366 C2374 0.950 . S
H2367 C2376 0.950 . S
H2368 C2378 0.950 . S
H2369 C2380 0.950 . S
H2370 C2382 0.950 . S
H2371 C2383 0.950 . S
C2372 H2364 0.950 . S
C2372 C2373 1.386 . S
C2372 C2374 1.391 . S
C2373 C2372 1.386 . S
C2373 C2377 1.393 . S
C2374 H2366 0.950 . S
C2374 C2372 1.391 . S
C2374 C2375 1.400 1_565 S
C2375 C2374 1.400 1_545 S
C2375 C2376 1.398 . S
C2375 C2381 1.491 . S
C2376 H2367 0.950 . S
C2376 C2375 1.398 . S
C2376 C2377 1.391 1_545 S
C2377 H2365 0.950 . S
C2377 C2373 1.393 . S
C2377 C2376 1.391 1_565 S
C2378 H2368 0.950 . S
C2378 C2379 1.386 . S
C2378 C2380 1.391 . S
C2379 C2378 1.386 . S
C2379 C2383 1.393 . S
C2380 H2369 0.950 . S
C2380 C2378 1.391 . S
C2380 C2381 1.400 . S
C2381 C2375 1.491 . S
C2381 C2380 1.400 . S
C2381 C2382 1.398 . S
C2382 H2370 0.950 . S
C2382 C2381 1.398 . S
C2382 C2383 1.391 . S
C2383 H2371 0.950 . S
C2383 C2379 1.393 . S
C2383 C2382 1.391 . S
H2384 C2392 0.950 . S
H2385 C2397 0.950 . S
H2386 C2394 0.950 . S
H2387 C2396 0.950 1_545 S
H2388 C2398 0.950 . S
H2389 C2400 0.950 . S
H2390 C2402 0.950 . S
H2391 C2403 0.950 1_565 S
C2392 H2384 0.950 . S
C2392 C2393 1.386 . S
C2392 C2394 1.391 . S
C2393 C2392 1.386 . S
C2393 C2397 1.393 . S
C2394 H2386 0.950 . S
C2394 C2392 1.391 . S
C2394 C2395 1.400 . S
C2395 C2394 1.400 . S
C2395 C2396 1.398 . S
C2395 C2401 1.491 . S
C2396 H2387 0.950 1_565 S
C2396 C2395 1.398 . S
C2396 C2397 1.391 . S
C2397 H2385 0.950 . S
C2397 C2393 1.393 . S
C2397 C2396 1.391 . S
C2398 H2388 0.950 . S
C2398 C2399 1.386 . S
C2398 C2400 1.391 . S
C2399 C2398 1.386 . S
C2399 C2403 1.393 . S
C2400 H2389 0.950 . S
C2400 C2398 1.391 . S
C2400 C2401 1.400 1_545 S
C2401 C2395 1.491 . S
C2401 C2400 1.400 1_565 S
C2401 C2402 1.398 . S
C2402 H2390 0.950 . S
C2402 C2401 1.398 . S
C2402 C2403 1.391 1_565 S
C2403 H2391 0.950 1_545 S
C2403 C2399 1.393 . S
C2403 C2402 1.391 1_545 S
H2404 C2412 0.950 . S
H2405 C2417 0.950 . S
H2406 C2414 0.950 . S
H2407 C2416 0.950 . S
H2408 C2418 0.950 . S
H2409 C2420 0.950 . S
H2410 C2422 0.950 . S
H2411 C2423 0.950 . S
C2412 H2404 0.950 . S
C2412 C2413 1.386 . S
C2412 C2414 1.391 . S
C2413 C2412 1.386 . S
C2413 C2417 1.393 . S
C2414 H2406 0.950 . S
C2414 C2412 1.391 . S
C2414 C2415 1.400 . S
C2415 C2414 1.400 . S
C2415 C2416 1.398 . S
C2415 C2421 1.491 . S
C2416 H2407 0.950 . S
C2416 C2415 1.398 . S
C2416 C2417 1.391 . S
C2417 H2405 0.950 . S
C2417 C2413 1.393 . S
C2417 C2416 1.391 . S
C2418 H2408 0.950 . S
C2418 C2419 1.386 . S
C2418 C2420 1.391 . S
C2419 C2418 1.386 . S
C2419 C2423 1.393 . S
C2420 H2409 0.950 . S
C2420 C2418 1.391 . S
C2420 C2421 1.400 . S
C2421 C2415 1.491 . S
C2421 C2420 1.400 . S
C2421 C2422 1.398 . S
C2422 H2410 0.950 . S
C2422 C2421 1.398 . S
C2422 C2423 1.391 . S
C2423 H2411 0.950 . S
C2423 C2419 1.393 . S
C2423 C2422 1.391 . S
H2424 C2432 0.950 . S
H2425 C2437 0.950 . S
H2426 C2434 0.950 . S
H2427 C2436 0.950 . S
H2428 C2438 0.950 . S
H2429 C2440 0.950 . S
H2430 C2442 0.950 . S
H2431 C2443 0.950 . S
C2432 H2424 0.950 . S
C2432 C2433 1.386 . S
C2432 C2434 1.391 . S
C2433 C2432 1.386 . S
C2433 C2437 1.393 . S
C2434 H2426 0.950 . S
C2434 C2432 1.391 . S
C2434 C2435 1.400 . S
C2435 C2434 1.400 . S
C2435 C2436 1.398 . S
C2435 C2441 1.491 . S
C2436 H2427 0.950 . S
C2436 C2435 1.398 . S
C2436 C2437 1.391 . S
C2437 H2425 0.950 . S
C2437 C2433 1.393 . S
C2437 C2436 1.391 . S
C2438 H2428 0.950 . S
C2438 C2439 1.386 . S
C2438 C2440 1.391 . S
C2439 C2438 1.386 . S
C2439 C2443 1.393 . S
C2440 H2429 0.950 . S
C2440 C2438 1.391 . S
C2440 C2441 1.400 . S
C2441 C2435 1.491 . S
C2441 C2440 1.400 . S
C2441 C2442 1.398 . S
C2442 H2430 0.950 . S
C2442 C2441 1.398 . S
C2442 C2443 1.391 . S
C2443 H2431 0.950 . S
C2443 C2439 1.393 . S
C2443 C2442 1.391 . S
H2444 C2452 0.950 . S
H2445 C2457 0.950 . S
H2446 C2454 0.950 . S
H2447 C2456 0.950 1_545 S
H2448 C2458 0.950 . S
H2449 C2460 0.950 . S
H2450 C2462 0.950 . S
H2451 C2463 0.950 1_565 S
C2452 H2444 0.950 . S
C2452 C2453 1.386 . S
C2452 C2454 1.391 . S
C2453 C2452 1.386 . S
C2453 C2457 1.393 . S
C2454 H2446 0.950 . S
C2454 C2452 1.391 . S
C2454 C2455 1.400 . S
C2455 C2454 1.400 . S
C2455 C2456 1.398 . S
C2455 C2461 1.491 . S
C2456 H2447 0.950 1_565 S
C2456 C2455 1.398 . S
C2456 C2457 1.391 . S
C2457 H2445 0.950 . S
C2457 C2453 1.393 . S
C2457 C2456 1.391 . S
C2458 H2448 0.950 . S
C2458 C2459 1.386 . S
C2458 C2460 1.391 . S
C2459 C2458 1.386 . S
C2459 C2463 1.393 . S
C2460 H2449 0.950 . S
C2460 C2458 1.391 . S
C2460 C2461 1.400 1_545 S
C2461 C2455 1.491 . S
C2461 C2460 1.400 1_565 S
C2461 C2462 1.398 . S
C2462 H2450 0.950 . S
C2462 C2461 1.398 . S
C2462 C2463 1.391 1_565 S
C2463 H2451 0.950 1_545 S
C2463 C2459 1.393 . S
C2463 C2462 1.391 1_545 S
H2464 C2472 0.965 . S
H2465 C2477 0.950 . S
H2466 C2474 0.950 . S
H2467 C2476 0.950 . S
H2468 C2478 0.950 . S
H2469 C2480 0.950 . S
H2470 C2482 0.950 . S
H2471 C2483 0.950 . S
C2472 H2464 0.965 . S
C2472 C2473 1.368 1_554 S
C2472 C2474 1.395 . S
C2473 C2472 1.368 1_556 S
C2473 C2477 1.393 . S
C2474 H2466 0.950 . S
C2474 C2472 1.395 . S
C2474 C2475 1.400 1_554 S
C2475 C2474 1.400 1_556 S
C2475 C2476 1.398 . S
C2475 C2481 1.491 . S
C2476 H2467 0.950 . S
C2476 C2475 1.398 . S
C2476 C2477 1.391 . S
C2477 H2465 0.950 . S
C2477 C2473 1.393 . S
C2477 C2476 1.391 . S
C2478 H2468 0.950 . S
C2478 C2479 1.386 . S
C2478 C2480 1.391 . S
C2479 C2478 1.386 . S
C2479 C2483 1.393 1_556 S
C2480 H2469 0.950 . S
C2480 C2478 1.391 . S
C2480 C2481 1.400 . S
C2481 C2475 1.491 . S
C2481 C2480 1.400 . S
C2481 C2482 1.398 1_556 S
C2482 H2470 0.950 . S
C2482 C2481 1.398 1_554 S
C2482 C2483 1.391 . S
C2483 H2471 0.950 . S
C2483 C2479 1.393 1_554 S
C2483 C2482 1.391 . S
H2484 C2492 0.950 . S
H2485 C2497 0.950 . S
H2486 C2494 0.950 . S
H2487 C2496 0.950 . S
H2488 C2498 0.950 . S
H2489 C2500 0.950 . S
H2490 C2502 0.945 1_554 S
H2491 C2503 0.950 1_554 S
C2492 H2484 0.950 . S
C2492 C2493 1.386 1_554 S
C2492 C2494 1.391 . S
C2493 C2492 1.386 1_556 S
C2493 C2497 1.393 . S
C2494 H2486 0.950 . S
C2494 C2492 1.391 . S
C2494 C2495 1.400 1_554 S
C2495 C2494 1.400 1_556 S
C2495 C2496 1.398 . S
C2495 C2501 1.491 . S
C2496 H2487 0.950 . S
C2496 C2495 1.398 . S
C2496 C2497 1.391 . S
C2497 H2485 0.950 . S
C2497 C2493 1.393 . S
C2497 C2496 1.391 . S
C2498 H2488 0.950 . S
C2498 C2499 1.386 . S
C2498 C2500 1.391 . S
C2499 C2498 1.386 . S
C2499 C2503 1.393 . S
C2500 H2489 0.950 . S
C2500 C2498 1.391 . S
C2500 C2501 1.400 . S
C2501 C2495 1.491 . S
C2501 C2500 1.400 . S
C2501 C2502 1.402 . S
C2502 H2490 0.945 1_556 S
C2502 C2501 1.402 . S
C2502 C2503 1.392 . S
C2503 H2491 0.950 1_556 S
C2503 C2499 1.393 . S
C2503 C2502 1.392 . S
H2504 C2512 0.950 . S
H2505 C2517 0.950 . S
H2506 C2514 0.950 . S
H2507 C2516 0.950 . S
H2508 C2518 0.950 . S
H2509 C2520 0.950 . S
H2510 C2522 0.950 . S
H2511 C2523 0.950 . S
C2512 H2504 0.950 . S
C2512 C2513 1.386 . S
C2512 C2514 1.391 . S
C2513 C2512 1.386 . S
C2513 C2517 1.393 . S
C2514 H2506 0.950 . S
C2514 C2512 1.391 . S
C2514 C2515 1.400 . S
C2515 C2514 1.400 . S
C2515 C2516 1.398 . S
C2515 C2521 1.491 . S
C2516 H2507 0.950 . S
C2516 C2515 1.398 . S
C2516 C2517 1.391 . S
C2517 H2505 0.950 . S
C2517 C2513 1.393 . S
C2517 C2516 1.391 . S
C2518 H2508 0.950 . S
C2518 C2519 1.386 . S
C2518 C2520 1.391 . S
C2519 C2518 1.386 . S
C2519 C2523 1.393 . S
C2520 H2509 0.950 . S
C2520 C2518 1.391 . S
C2520 C2521 1.400 . S
C2521 C2515 1.491 . S
C2521 C2520 1.400 . S
C2521 C2522 1.398 . S
C2522 H2510 0.950 . S
C2522 C2521 1.398 . S
C2522 C2523 1.391 . S
C2523 H2511 0.950 . S
C2523 C2519 1.393 . S
C2523 C2522 1.391 . S
H2524 C2532 0.950 . S
H2525 C2537 0.950 . S
H2526 C2534 0.950 . S
H2527 C2536 0.950 . S
H2528 C2538 0.950 . S
H2529 C2540 0.950 . S
H2530 C2542 0.950 . S
H2531 C2543 0.950 . S
C2532 H2524 0.950 . S
C2532 C2533 1.386 . S
C2532 C2534 1.391 . S
C2533 C2532 1.386 . S
C2533 C2537 1.393 . S
C2534 H2526 0.950 . S
C2534 C2532 1.391 . S
C2534 C2535 1.400 . S
C2535 C2534 1.400 . S
C2535 C2536 1.398 . S
C2535 C2541 1.491 . S
C2536 H2527 0.950 . S
C2536 C2535 1.398 . S
C2536 C2537 1.391 . S
C2537 H2525 0.950 . S
C2537 C2533 1.393 . S
C2537 C2536 1.391 . S
C2538 H2528 0.950 . S
C2538 C2539 1.386 . S
C2538 C2540 1.391 . S
C2539 C2538 1.386 . S
C2539 C2543 1.393 . S
C2540 H2529 0.950 . S
C2540 C2538 1.391 . S
C2540 C2541 1.400 . S
C2541 C2535 1.491 . S
C2541 C2540 1.400 . S
C2541 C2542 1.398 . S
C2542 H2530 0.950 . S
C2542 C2541 1.398 . S
C2542 C2543 1.391 . S
C2543 H2531 0.950 . S
C2543 C2539 1.393 . S
C2543 C2542 1.391 . S
H2544 C2552 0.950 . S
H2545 C2557 0.950 . S
H2546 C2554 0.950 . S
H2547 C2556 0.950 . S
H2548 C2558 0.950 . S
H2549 C2560 0.950 . S
H2550 C2562 0.950 . S
H2551 C2563 0.950 . S
C2552 H2544 0.950 . S
C2552 C2553 1.386 1_556 S
C2552 C2554 1.391 . S
C2553 C2552 1.386 1_554 S
C2553 C2557 1.393 . S
C2554 H2546 0.950 . S
C2554 C2552 1.391 . S
C2554 C2555 1.400 1_556 S
C2555 C2554 1.400 1_554 S
C2555 C2556 1.398 . S
C2555 C2561 1.491 . S
C2556 H2547 0.950 . S
C2556 C2555 1.398 . S
C2556 C2557 1.391 . S
C2557 H2545 0.950 . S
C2557 C2553 1.393 . S
C2557 C2556 1.391 . S
C2558 H2548 0.950 . S
C2558 C2559 1.386 . S
C2558 C2560 1.391 . S
C2559 C2558 1.386 . S
C2559 C2563 1.393 1_554 S
C2560 H2549 0.950 . S
C2560 C2558 1.391 . S
C2560 C2561 1.400 . S
C2561 C2555 1.491 . S
C2561 C2560 1.400 . S
C2561 C2562 1.398 1_554 S
C2562 H2550 0.950 . S
C2562 C2561 1.398 1_556 S
C2562 C2563 1.391 . S
C2563 H2551 0.950 . S
C2563 C2559 1.393 1_556 S
C2563 C2562 1.391 . S
H2564 C2572 0.950 . S
H2565 C2577 0.950 . S
H2566 C2574 0.950 . S
H2567 C2576 0.950 . S
H2568 C2578 0.950 1_556 S
H2569 C2580 0.950 1_556 S
H2570 C2582 0.950 . S
H2571 C2583 0.950 . S
C2572 H2564 0.950 . S
C2572 C2573 1.386 . S
C2572 C2574 1.391 . S
C2573 C2572 1.386 . S
C2573 C2577 1.393 1_554 S
C2574 H2566 0.950 . S
C2574 C2572 1.391 . S
C2574 C2575 1.400 . S
C2575 C2574 1.400 . S
C2575 C2576 1.398 1_554 S
C2575 C2581 1.491 . S
C2576 H2567 0.950 . S
C2576 C2575 1.398 1_556 S
C2576 C2577 1.391 . S
C2577 H2565 0.950 . S
C2577 C2573 1.393 1_556 S
C2577 C2576 1.391 . S
C2578 H2568 0.950 1_554 S
C2578 C2579 1.386 . S
C2578 C2580 1.391 . S
C2579 C2578 1.386 . S
C2579 C2583 1.393 . S
C2580 H2569 0.950 1_554 S
C2580 C2578 1.391 . S
C2580 C2581 1.400 . S
C2581 C2575 1.491 . S
C2581 C2580 1.400 . S
C2581 C2582 1.398 . S
C2582 H2570 0.950 . S
C2582 C2581 1.398 . S
C2582 C2583 1.391 . S
C2583 H2571 0.950 . S
C2583 C2579 1.393 . S
C2583 C2582 1.391 . S
H2584 C2592 0.950 . S
H2585 C2597 0.950 . S
H2586 C2594 0.950 . S
H2587 C2596 0.950 . S
H2588 C2598 0.950 . S
H2589 C2600 0.950 . S
H2590 C2602 0.950 . S
H2591 C2603 0.950 . S
C2592 H2584 0.950 . S
C2592 C2593 1.386 . S
C2592 C2594 1.391 . S
C2593 C2592 1.386 . S
C2593 C2597 1.393 . S
C2594 H2586 0.950 . S
C2594 C2592 1.391 . S
C2594 C2595 1.400 . S
C2595 C2594 1.400 . S
C2595 C2596 1.398 . S
C2595 C2601 1.491 . S
C2596 H2587 0.950 . S
C2596 C2595 1.398 . S
C2596 C2597 1.391 . S
C2597 H2585 0.950 . S
C2597 C2593 1.393 . S
C2597 C2596 1.391 . S
C2598 H2588 0.950 . S
C2598 C2599 1.386 . S
C2598 C2600 1.391 . S
C2599 C2598 1.386 . S
C2599 C2603 1.393 . S
C2600 H2589 0.950 . S
C2600 C2598 1.391 . S
C2600 C2601 1.400 . S
C2601 C2595 1.491 . S
C2601 C2600 1.400 . S
C2601 C2602 1.398 . S
C2602 H2590 0.950 . S
C2602 C2601 1.398 . S
C2602 C2603 1.391 . S
C2603 H2591 0.950 . S
C2603 C2599 1.393 . S
C2603 C2602 1.391 . S
H2604 C2612 0.950 . S
H2605 C2617 0.950 . S
H2606 C2614 0.950 . S
H2607 C2616 0.950 . S
H2608 C2618 0.950 . S
H2609 C2620 0.950 . S
H2610 C2622 0.950 . S
H2611 C2623 0.950 . S
C2612 H2604 0.950 . S
C2612 C2613 1.386 . S
C2612 C2614 1.391 . S
C2613 C2612 1.386 . S
C2613 C2617 1.393 . S
C2614 H2606 0.950 . S
C2614 C2612 1.391 . S
C2614 C2615 1.400 . S
C2615 C2614 1.400 . S
C2615 C2616 1.398 . S
C2615 C2621 1.491 . S
C2616 H2607 0.950 . S
C2616 C2615 1.398 . S
C2616 C2617 1.391 . S
C2617 H2605 0.950 . S
C2617 C2613 1.393 . S
C2617 C2616 1.391 . S
C2618 H2608 0.950 . S
C2618 C2619 1.386 . S
C2618 C2620 1.391 . S
C2619 C2618 1.386 . S
C2619 C2623 1.393 . S
C2620 H2609 0.950 . S
C2620 C2618 1.391 . S
C2620 C2621 1.400 . S
C2621 C2615 1.491 . S
C2621 C2620 1.400 . S
C2621 C2622 1.398 . S
C2622 H2610 0.950 . S
C2622 C2621 1.398 . S
C2622 C2623 1.391 . S
C2623 H2611 0.950 . S
C2623 C2619 1.393 . S
C2623 C2622 1.391 . S
C713 C556 1.243 . S
C719 C7 1.275 1_565 S
C733 C535 1.248 . S
C739 C28 1.244 . S
C753 C600 1.260 . S
C759 C51 1.277 . S
C773 C579 1.238 . S
C779 C72 1.264 1_565 S
C793 C97 1.249 1_545 S
C799 C643 1.244 . S
C813 C115 1.277 . S
C819 C625 1.248 . S
C833 C141 1.253 . S
C839 C687 1.241 . S
C853 C669 1.248 . S
C859 C159 1.278 1_545 S
C873 C380 1.244 . S
C879 C183 1.276 . S
C893 C359 1.268 1_565 S
C899 C204 1.238 . S
C913 C424 1.252 1_565 S
C919 C227 1.242 . S
C933 C403 1.251 . S
C939 C248 1.278 . S
C953 C273 1.265 . S
C959 C467 1.238 . S
C973 C449 1.266 1_545 S
C979 C291 1.238 . S
C993 C317 1.278 . S
C999 C511 1.251 1_545 S
C1013 C493 1.256 . S
C1019 C335 1.278 . S
C1033 C4 1.871 . S
C1039 C426 1.857 . S
C1053 C400 1.869 . S
C1059 C30 1.869 . S
C1073 C382 1.868 . S
C1079 C48 1.858 . S
C1093 C74 1.871 . S
C1099 C356 1.857 . S
C1113 C514 1.874 . S
C1119 C92 1.862 . S
C1133 C488 1.871 . S
C1139 C118 1.857 . S
C1153 C470 1.874 . S
C1159 C136 1.858 . S
C1173 C444 1.865 . S
C1179 C162 1.872 . S
C1193 C602 1.859 . S
C1199 C180 1.866 . S
C1213 C206 1.874 . S
C1219 C576 1.859 . S
C1233 C224 1.857 . S
C1239 C558 1.871 . S
C1253 C250 1.862 . S
C1259 C532 1.862 . S
C1273 C690 1.858 . S
C1279 C268 1.874 . S
C1293 C664 1.865 . S
C1299 C294 1.873 . S
C1313 C312 1.859 . S
C1319 C646 1.874 . S
C1333 C338 1.857 . S
C1339 C620 1.873 . S
C1353 C94 1.253 . S
C1359 C5 1.253 . S
C1373 C31 1.212 . S
C1379 C645 1.212 . S
C1393 C49 1.255 . S
C1399 C314 1.255 . S
C1413 C513 1.256 . S
C1419 C75 1.256 . S
C1433 C117 1.224 . S
C1439 C559 1.224 . S
C1453 C138 1.224 . S
C1459 C225 1.224 . S
C1473 C427 1.236 . S
C1479 C161 1.236 . S
C1493 C270 1.235 . S
C1499 C181 1.235 . S
C1513 C207 1.256 . S
C1519 C469 1.256 . S
C1533 C251 1.256 . S
C1539 C689 1.256 . S
C1553 C383 1.255 . S
C1559 C293 1.255 . S
C1573 C337 1.213 . S
C1579 C603 1.213 . S
C1593 C446 1.235 . S
C1599 C357 1.235 . S
C1613 C666 1.248 . S
C1619 C401 1.248 . S
C1633 C577 1.253 . S
C1639 C490 1.253 . S
C1653 C533 1.256 . S
C1659 C622 1.256 . S
C1673 C53 0.947 . S
C1679 C9 0.912 . S
C1693 C71 0.929 . S
C1699 C27 0.917 . S
C1713 C139 0.922 . S
C1719 C95 0.940 . S
C1733 C116 0.947 . S
C1739 C160 0.906 . S
C1753 C229 0.909 . S
C1759 C185 0.948 . S
C1773 C203 0.925 . S
C1779 C247 0.938 . S
C1793 C315 0.908 . S
C1799 C271 0.941 . S
C1813 C292 0.911 . S
C1819 C336 0.936 . S
C1833 C361 0.940 . S
C1839 C405 0.908 . S
C1853 C379 0.948 . S
C1859 C423 0.908 . S
C1873 C491 0.931 . S
C1879 C447 0.915 . S
C1893 C468 0.909 . S
C1899 C512 0.948 . S
C1913 C537 0.932 . S
C1919 C581 0.915 . S
C1933 C599 0.929 . S
C1939 C555 0.917 . S
C1953 C623 0.924 . S
C1959 C667 0.939 . S
C1973 C644 0.909 . S
C1979 C688 0.939 . S
C1993 C119 1.520 . S
C1999 C8 1.515 1_554 S
C2013 C621 1.527 . S
C2019 C26 1.497 . S
C2033 C52 1.497 . S
C2039 C339 1.529 . S
C2053 C70 1.498 . S
C2059 C489 1.526 . S
C2073 C96 1.510 . S
C2079 C29 1.523 . S
C2093 C114 1.510 . S
C2099 C534 1.523 . S
C2113 C249 1.523 . S
C2119 C140 1.503 . S
C2133 C402 1.529 . S
C2139 C158 1.497 . S
C2153 C184 1.498 . S
C2159 C295 1.527 . S
C2173 C445 1.529 . S
C2179 C202 1.500 . S
C2193 C228 1.503 . S
C2199 C163 1.528 . S
C2213 C665 1.525 . S
C2219 C246 1.507 . S
C2233 C272 1.506 . S
C2239 C205 1.520 . S
C2253 C290 1.513 . S
C2259 C358 1.521 . S
C2273 C316 1.514 . S
C2279 C73 1.517 . S
C2293 C578 1.519 . S
C2299 C334 1.510 . S
C2313 C360 1.515 . S
C2319 C471 1.519 . S
C2333 C378 1.515 . S
C2339 C269 1.518 . S
C2353 C691 1.526 . S
C2359 C404 1.499 . S
C2373 C137 1.528 . S
C2379 C422 1.502 . S
C2393 C448 1.514 . S
C2399 C381 1.519 . S
C2413 C182 1.526 . S
C2419 C466 1.498 . S
C2433 C601 1.520 . S
C2439 C492 1.514 . S
C2453 C510 1.515 . S
C2459 C50 1.518 . S
C2473 C647 1.521 . S
C2479 C536 1.506 . S
C2493 C554 1.501 . S
C2499 C93 1.524 . S
C2513 C515 1.529 . S
C2519 C580 1.498 . S
C2533 C313 1.520 . S
C2539 C598 1.508 . S
C2553 C557 1.529 . S
C2559 C624 1.497 . S
C2573 C642 1.503 . S
C2579 C6 1.522 . S
C2593 C425 1.521 . S
C2599 C668 1.505 . S
C2613 C686 1.502 . S
C2619 C226 1.528 . S
