# Generated by pormake.
# Topology hal, (4)-cn, num edge types: 1
# Building blocks:
#     Node 0, Type 0, BuildingBlock: TATPOV_clean_sbu_0, # of connection points: 4
#     Node 1, Type 0, BuildingBlock: TATPOV_clean_sbu_0, # of connection points: 4
#     Node 2, Type 0, BuildingBlock: TATPOV_clean_sbu_0, # of connection points: 4
#     Node 3, Type 0, BuildingBlock: TATPOV_clean_sbu_0, # of connection points: 4
#     Node 4, Type 0, BuildingBlock: TATPOV_clean_sbu_0, # of connection points: 4
#     Node 5, Type 0, BuildingBlock: TATPOV_clean_sbu_0, # of connection points: 4
#     Node 6, Type 0, BuildingBlock: TATPOV_clean_sbu_0, # of connection points: 4
#     Node 7, Type 0, BuildingBlock: TATPOV_clean_sbu_0, # of connection points: 4
#     Node 8, Type 0, BuildingBlock: TATPOV_clean_sbu_0, # of connection points: 4
#     Node 9, Type 0, BuildingBlock: TATPOV_clean_sbu_0, # of connection points: 4
#     Node 10, Type 0, BuildingBlock: TATPOV_clean_sbu_0, # of connection points: 4
#     Node 11, Type 0, BuildingBlock: TATPOV_clean_sbu_0, # of connection points: 4
#     Node 12, Type 0, BuildingBlock: TATPOV_clean_sbu_0, # of connection points: 4
#     Node 13, Type 0, BuildingBlock: TATPOV_clean_sbu_0, # of connection points: 4
#     Node 14, Type 0, BuildingBlock: TATPOV_clean_sbu_0, # of connection points: 4
#     Node 15, Type 0, BuildingBlock: TATPOV_clean_sbu_0, # of connection points: 4
#     Node 16, Type 0, BuildingBlock: TATPOV_clean_sbu_0, # of connection points: 4
#     Node 17, Type 0, BuildingBlock: TATPOV_clean_sbu_0, # of connection points: 4
#     Node 18, Type 0, BuildingBlock: TATPOV_clean_sbu_0, # of connection points: 4
#     Node 19, Type 0, BuildingBlock: TATPOV_clean_sbu_0, # of connection points: 4
#     Node 20, Type 0, BuildingBlock: TATPOV_clean_sbu_0, # of connection points: 4
#     Node 21, Type 0, BuildingBlock: TATPOV_clean_sbu_0, # of connection points: 4
#     Node 22, Type 0, BuildingBlock: TATPOV_clean_sbu_0, # of connection points: 4
#     Node 23, Type 0, BuildingBlock: TATPOV_clean_sbu_0, # of connection points: 4
#     Node 24, Type 0, BuildingBlock: TATPOV_clean_sbu_0, # of connection points: 4
#     Node 25, Type 0, BuildingBlock: TATPOV_clean_sbu_0, # of connection points: 4
#     Node 26, Type 0, BuildingBlock: TATPOV_clean_sbu_0, # of connection points: 4
#     Node 27, Type 0, BuildingBlock: TATPOV_clean_sbu_0, # of connection points: 4
#     Node 28, Type 0, BuildingBlock: TATPOV_clean_sbu_0, # of connection points: 4
#     Node 29, Type 0, BuildingBlock: TATPOV_clean_sbu_0, # of connection points: 4
#     Node 30, Type 0, BuildingBlock: TATPOV_clean_sbu_0, # of connection points: 4
#     Node 31, Type 0, BuildingBlock: TATPOV_clean_sbu_0, # of connection points: 4
#     Node 32, Type 0, BuildingBlock: TATPOV_clean_sbu_0, # of connection points: 4
#     Node 33, Type 0, BuildingBlock: TATPOV_clean_sbu_0, # of connection points: 4
#     Node 34, Type 0, BuildingBlock: TATPOV_clean_sbu_0, # of connection points: 4
#     Node 35, Type 0, BuildingBlock: TATPOV_clean_sbu_0, # of connection points: 4
#     Node 36, Type 0, BuildingBlock: TATPOV_clean_sbu_0, # of connection points: 4
#     Node 37, Type 0, BuildingBlock: TATPOV_clean_sbu_0, # of connection points: 4
#     Node 38, Type 0, BuildingBlock: TATPOV_clean_sbu_0, # of connection points: 4
#     Node 39, Type 0, BuildingBlock: TATPOV_clean_sbu_0, # of connection points: 4
#     Node 40, Type 0, BuildingBlock: TATPOV_clean_sbu_0, # of connection points: 4
#     Node 41, Type 0, BuildingBlock: TATPOV_clean_sbu_0, # of connection points: 4
#     Node 42, Type 0, BuildingBlock: TATPOV_clean_sbu_0, # of connection points: 4
#     Node 43, Type 0, BuildingBlock: TATPOV_clean_sbu_0, # of connection points: 4
#     Node 44, Type 0, BuildingBlock: TATPOV_clean_sbu_0, # of connection points: 4
#     Node 45, Type 0, BuildingBlock: TATPOV_clean_sbu_0, # of connection points: 4
#     Node 46, Type 0, BuildingBlock: TATPOV_clean_sbu_0, # of connection points: 4
#     Node 47, Type 0, BuildingBlock: TATPOV_clean_sbu_0, # of connection points: 4
#     Node 48, Type 0, BuildingBlock: TATPOV_clean_sbu_0, # of connection points: 4
#     Node 49, Type 0, BuildingBlock: TATPOV_clean_sbu_0, # of connection points: 4
#     Node 50, Type 0, BuildingBlock: TATPOV_clean_sbu_0, # of connection points: 4
#     Node 51, Type 0, BuildingBlock: TATPOV_clean_sbu_0, # of connection points: 4
#     Node 52, Type 0, BuildingBlock: TATPOV_clean_sbu_0, # of connection points: 4
#     Node 53, Type 0, BuildingBlock: TATPOV_clean_sbu_0, # of connection points: 4
#     Node 54, Type 0, BuildingBlock: TATPOV_clean_sbu_0, # of connection points: 4
#     Node 55, Type 0, BuildingBlock: TATPOV_clean_sbu_0, # of connection points: 4
#     Node 56, Type 0, BuildingBlock: TATPOV_clean_sbu_0, # of connection points: 4
#     Node 57, Type 0, BuildingBlock: TATPOV_clean_sbu_0, # of connection points: 4
#     Node 58, Type 0, BuildingBlock: TATPOV_clean_sbu_0, # of connection points: 4
#     Node 59, Type 0, BuildingBlock: TATPOV_clean_sbu_0, # of connection points: 4
#     Node 60, Type 0, BuildingBlock: TATPOV_clean_sbu_0, # of connection points: 4
#     Node 61, Type 0, BuildingBlock: TATPOV_clean_sbu_0, # of connection points: 4
#     Node 62, Type 0, BuildingBlock: TATPOV_clean_sbu_0, # of connection points: 4
#     Node 63, Type 0, BuildingBlock: TATPOV_clean_sbu_0, # of connection points: 4
#     Node 64, Type 0, BuildingBlock: TATPOV_clean_sbu_0, # of connection points: 4
#     Node 65, Type 0, BuildingBlock: TATPOV_clean_sbu_0, # of connection points: 4
#     Node 66, Type 0, BuildingBlock: TATPOV_clean_sbu_0, # of connection points: 4
#     Node 67, Type 0, BuildingBlock: TATPOV_clean_sbu_0, # of connection points: 4
#     Node 68, Type 0, BuildingBlock: TATPOV_clean_sbu_0, # of connection points: 4
#     Node 69, Type 0, BuildingBlock: TATPOV_clean_sbu_0, # of connection points: 4
#     Node 70, Type 0, BuildingBlock: TATPOV_clean_sbu_0, # of connection points: 4
#     Node 71, Type 0, BuildingBlock: TATPOV_clean_sbu_0, # of connection points: 4
#     Node 72, Type 0, BuildingBlock: TATPOV_clean_sbu_0, # of connection points: 4
#     Node 73, Type 0, BuildingBlock: TATPOV_clean_sbu_0, # of connection points: 4
#     Node 74, Type 0, BuildingBlock: TATPOV_clean_sbu_0, # of connection points: 4
#     Node 75, Type 0, BuildingBlock: TATPOV_clean_sbu_0, # of connection points: 4
#     Node 76, Type 0, BuildingBlock: TATPOV_clean_sbu_0, # of connection points: 4
#     Node 77, Type 0, BuildingBlock: TATPOV_clean_sbu_0, # of connection points: 4
#     Node 78, Type 0, BuildingBlock: TATPOV_clean_sbu_0, # of connection points: 4
#     Node 79, Type 0, BuildingBlock: TATPOV_clean_sbu_0, # of connection points: 4
#     Node 80, Type 0, BuildingBlock: TATPOV_clean_sbu_0, # of connection points: 4
#     Node 81, Type 0, BuildingBlock: TATPOV_clean_sbu_0, # of connection points: 4
#     Node 82, Type 0, BuildingBlock: TATPOV_clean_sbu_0, # of connection points: 4
#     Node 83, Type 0, BuildingBlock: TATPOV_clean_sbu_0, # of connection points: 4
#     Node 84, Type 0, BuildingBlock: TATPOV_clean_sbu_0, # of connection points: 4
#     Node 85, Type 0, BuildingBlock: TATPOV_clean_sbu_0, # of connection points: 4
#     Node 86, Type 0, BuildingBlock: TATPOV_clean_sbu_0, # of connection points: 4
#     Node 87, Type 0, BuildingBlock: TATPOV_clean_sbu_0, # of connection points: 4
#     Node 88, Type 0, BuildingBlock: TATPOV_clean_sbu_0, # of connection points: 4
#     Node 89, Type 0, BuildingBlock: TATPOV_clean_sbu_0, # of connection points: 4
#     Node 90, Type 0, BuildingBlock: TATPOV_clean_sbu_0, # of connection points: 4
#     Node 91, Type 0, BuildingBlock: TATPOV_clean_sbu_0, # of connection points: 4
#     Node 92, Type 0, BuildingBlock: TATPOV_clean_sbu_0, # of connection points: 4
#     Node 93, Type 0, BuildingBlock: TATPOV_clean_sbu_0, # of connection points: 4
#     Node 94, Type 0, BuildingBlock: TATPOV_clean_sbu_0, # of connection points: 4
#     Node 95, Type 0, BuildingBlock: TATPOV_clean_sbu_0, # of connection points: 4
#     Edge 96, Type (0, 0), None
#     Edge 97, Type (0, 0), None
#     Edge 98, Type (0, 0), None
#     Edge 99, Type (0, 0), None
#     Edge 100, Type (0, 0), None
#     Edge 101, Type (0, 0), None
#     Edge 102, Type (0, 0), None
#     Edge 103, Type (0, 0), None
#     Edge 104, Type (0, 0), None
#     Edge 105, Type (0, 0), None
#     Edge 106, Type (0, 0), None
#     Edge 107, Type (0, 0), None
#     Edge 108, Type (0, 0), None
#     Edge 109, Type (0, 0), None
#     Edge 110, Type (0, 0), None
#     Edge 111, Type (0, 0), None
#     Edge 112, Type (0, 0), None
#     Edge 113, Type (0, 0), None
#     Edge 114, Type (0, 0), None
#     Edge 115, Type (0, 0), None
#     Edge 116, Type (0, 0), None
#     Edge 117, Type (0, 0), None
#     Edge 118, Type (0, 0), None
#     Edge 119, Type (0, 0), None
#     Edge 120, Type (0, 0), None
#     Edge 121, Type (0, 0), None
#     Edge 122, Type (0, 0), None
#     Edge 123, Type (0, 0), None
#     Edge 124, Type (0, 0), None
#     Edge 125, Type (0, 0), None
#     Edge 126, Type (0, 0), None
#     Edge 127, Type (0, 0), None
#     Edge 128, Type (0, 0), None
#     Edge 129, Type (0, 0), None
#     Edge 130, Type (0, 0), None
#     Edge 131, Type (0, 0), None
#     Edge 132, Type (0, 0), None
#     Edge 133, Type (0, 0), None
#     Edge 134, Type (0, 0), None
#     Edge 135, Type (0, 0), None
#     Edge 136, Type (0, 0), None
#     Edge 137, Type (0, 0), None
#     Edge 138, Type (0, 0), None
#     Edge 139, Type (0, 0), None
#     Edge 140, Type (0, 0), None
#     Edge 141, Type (0, 0), None
#     Edge 142, Type (0, 0), None
#     Edge 143, Type (0, 0), None
#     Edge 144, Type (0, 0), None
#     Edge 145, Type (0, 0), None
#     Edge 146, Type (0, 0), None
#     Edge 147, Type (0, 0), None
#     Edge 148, Type (0, 0), None
#     Edge 149, Type (0, 0), None
#     Edge 150, Type (0, 0), None
#     Edge 151, Type (0, 0), None
#     Edge 152, Type (0, 0), None
#     Edge 153, Type (0, 0), None
#     Edge 154, Type (0, 0), None
#     Edge 155, Type (0, 0), None
#     Edge 156, Type (0, 0), None
#     Edge 157, Type (0, 0), None
#     Edge 158, Type (0, 0), None
#     Edge 159, Type (0, 0), None
#     Edge 160, Type (0, 0), None
#     Edge 161, Type (0, 0), None
#     Edge 162, Type (0, 0), None
#     Edge 163, Type (0, 0), None
#     Edge 164, Type (0, 0), None
#     Edge 165, Type (0, 0), None
#     Edge 166, Type (0, 0), None
#     Edge 167, Type (0, 0), None
#     Edge 168, Type (0, 0), None
#     Edge 169, Type (0, 0), None
#     Edge 170, Type (0, 0), None
#     Edge 171, Type (0, 0), None
#     Edge 172, Type (0, 0), None
#     Edge 173, Type (0, 0), None
#     Edge 174, Type (0, 0), None
#     Edge 175, Type (0, 0), None
#     Edge 176, Type (0, 0), None
#     Edge 177, Type (0, 0), None
#     Edge 178, Type (0, 0), None
#     Edge 179, Type (0, 0), None
#     Edge 180, Type (0, 0), None
#     Edge 181, Type (0, 0), None
#     Edge 182, Type (0, 0), None
#     Edge 183, Type (0, 0), None
#     Edge 184, Type (0, 0), None
#     Edge 185, Type (0, 0), None
#     Edge 186, Type (0, 0), None
#     Edge 187, Type (0, 0), None
#     Edge 188, Type (0, 0), None
#     Edge 189, Type (0, 0), None
#     Edge 190, Type (0, 0), None
#     Edge 191, Type (0, 0), None
#     Edge 192, Type (0, 0), None
#     Edge 193, Type (0, 0), None
#     Edge 194, Type (0, 0), None
#     Edge 195, Type (0, 0), None
#     Edge 196, Type (0, 0), None
#     Edge 197, Type (0, 0), None
#     Edge 198, Type (0, 0), None
#     Edge 199, Type (0, 0), None
#     Edge 200, Type (0, 0), None
#     Edge 201, Type (0, 0), None
#     Edge 202, Type (0, 0), None
#     Edge 203, Type (0, 0), None
#     Edge 204, Type (0, 0), None
#     Edge 205, Type (0, 0), None
#     Edge 206, Type (0, 0), None
#     Edge 207, Type (0, 0), None
#     Edge 208, Type (0, 0), None
#     Edge 209, Type (0, 0), None
#     Edge 210, Type (0, 0), None
#     Edge 211, Type (0, 0), None
#     Edge 212, Type (0, 0), None
#     Edge 213, Type (0, 0), None
#     Edge 214, Type (0, 0), None
#     Edge 215, Type (0, 0), None
#     Edge 216, Type (0, 0), None
#     Edge 217, Type (0, 0), None
#     Edge 218, Type (0, 0), None
#     Edge 219, Type (0, 0), None
#     Edge 220, Type (0, 0), None
#     Edge 221, Type (0, 0), None
#     Edge 222, Type (0, 0), None
#     Edge 223, Type (0, 0), None
#     Edge 224, Type (0, 0), None
#     Edge 225, Type (0, 0), None
#     Edge 226, Type (0, 0), None
#     Edge 227, Type (0, 0), None
#     Edge 228, Type (0, 0), None
#     Edge 229, Type (0, 0), None
#     Edge 230, Type (0, 0), None
#     Edge 231, Type (0, 0), None
#     Edge 232, Type (0, 0), None
#     Edge 233, Type (0, 0), None
#     Edge 234, Type (0, 0), None
#     Edge 235, Type (0, 0), None
#     Edge 236, Type (0, 0), None
#     Edge 237, Type (0, 0), None
#     Edge 238, Type (0, 0), None
#     Edge 239, Type (0, 0), None
#     Edge 240, Type (0, 0), None
#     Edge 241, Type (0, 0), None
#     Edge 242, Type (0, 0), None
#     Edge 243, Type (0, 0), None
#     Edge 244, Type (0, 0), None
#     Edge 245, Type (0, 0), None
#     Edge 246, Type (0, 0), None
#     Edge 247, Type (0, 0), None
#     Edge 248, Type (0, 0), None
#     Edge 249, Type (0, 0), None
#     Edge 250, Type (0, 0), None
#     Edge 251, Type (0, 0), None
#     Edge 252, Type (0, 0), None
#     Edge 253, Type (0, 0), None
#     Edge 254, Type (0, 0), None
#     Edge 255, Type (0, 0), None
#     Edge 256, Type (0, 0), None
#     Edge 257, Type (0, 0), None
#     Edge 258, Type (0, 0), None
#     Edge 259, Type (0, 0), None
#     Edge 260, Type (0, 0), None
#     Edge 261, Type (0, 0), None
#     Edge 262, Type (0, 0), None
#     Edge 263, Type (0, 0), None
#     Edge 264, Type (0, 0), None
#     Edge 265, Type (0, 0), None
#     Edge 266, Type (0, 0), None
#     Edge 267, Type (0, 0), None
#     Edge 268, Type (0, 0), None
#     Edge 269, Type (0, 0), None
#     Edge 270, Type (0, 0), None
#     Edge 271, Type (0, 0), None
#     Edge 272, Type (0, 0), None
#     Edge 273, Type (0, 0), None
#     Edge 274, Type (0, 0), None
#     Edge 275, Type (0, 0), None
#     Edge 276, Type (0, 0), None
#     Edge 277, Type (0, 0), None
#     Edge 278, Type (0, 0), None
#     Edge 279, Type (0, 0), None
#     Edge 280, Type (0, 0), None
#     Edge 281, Type (0, 0), None
#     Edge 282, Type (0, 0), None
#     Edge 283, Type (0, 0), None
#     Edge 284, Type (0, 0), None
#     Edge 285, Type (0, 0), None
#     Edge 286, Type (0, 0), None
#     Edge 287, Type (0, 0), None
# Relax obj value: 0.262
# Max RMSD: 0.261
# Mean RMSD: 0.261
data_MOF--net-hal--node1-TATPOV_clean_sbu_0--edge1-none
_symmetry_space_group_name_H-M    P1
_symmetry_Int_Tables_number       1
_symmetry_cell_setting            triclinic
loop_
_symmetry_equiv_pos_as_xyz
'x, y, z'
_cell_length_a     40.339361
_cell_length_b     41.18486
_cell_length_c     40.807626
_cell_angle_alpha  89.999625
_cell_angle_beta   90.000405
_cell_angle_gamma 89.999878
loop_
_atom_site_label
_atom_site_type_symbol
_atom_site_fract_x
_atom_site_fract_y
_atom_site_fract_z
_atom_type_partial_charge
Zn0 Zn 0.11462 0.16072 0.31356 0.0
Zn1 Zn 0.05971 0.17307 0.31897 0.0
O2 O 0.07836 0.19622 0.35957 0.0
O3 O 0.1106 0.15467 0.36436 0.0
O4 O 0.00987 0.17615 0.32236 0.0
O5 O 0.12885 0.20269 0.29569 0.0
O6 O 0.07786 0.19904 0.27699 0.0
C7 C 0.09909 0.18038 0.37673 0.0
C8 C 0.08937 0.11029 0.30028 0.0
O9 O 0.07132 0.12311 0.32227 0.0
O10 O 0.09734 0.12906 0.27741 0.0
C11 C 0.99225 0.15289 0.33337 0.0
O12 O 0.00633 0.12552 0.34213 0.0
C13 C 0.10723 0.21102 0.27494 0.0
Zn14 Zn 0.78523 0.08336 0.26043 0.0
Zn15 Zn 0.79605 0.05992 0.30922 0.0
O16 O 0.7732 0.08867 0.34121 0.0
O17 O 0.75629 0.1107 0.29485 0.0
O18 O 0.81404 0.01862 0.32795 0.0
O19 O 0.77116 0.04483 0.23402 0.0
O20 O 0.75509 0.03917 0.28426 0.0
C21 C 0.75632 0.11017 0.32625 0.0
C22 C 0.84379 0.10668 0.26804 0.0
O23 O 0.8361 0.09179 0.29458 0.0
O24 O 0.82527 0.10352 0.24345 0.0
C25 C 0.79366 0.00149 0.34425 0.0
O26 O 0.76618 0.01478 0.35506 0.0
C27 C 0.75195 0.03166 0.2542 0.0
Zn28 Zn 0.87173 0.8054 0.31355 0.0
Zn29 Zn 0.92664 0.79304 0.31897 0.0
O30 O 0.90799 0.7699 0.35956 0.0
O31 O 0.87575 0.81145 0.36436 0.0
O32 O 0.97648 0.78996 0.32236 0.0
O33 O 0.8575 0.76343 0.29568 0.0
O34 O 0.90849 0.76707 0.27699 0.0
C35 C 0.88726 0.78574 0.37672 0.0
C36 C 0.89699 0.85583 0.30027 0.0
O37 O 0.91503 0.84301 0.32227 0.0
O38 O 0.88901 0.83705 0.2774 0.0
C39 C -0.0059 0.81321 0.33339 0.0
O40 O 0.98002 0.84058 0.34217 0.0
C41 C 0.87913 0.7551 0.27493 0.0
Zn42 Zn 0.20108 0.88281 0.26047 0.0
Zn43 Zn 0.1903 0.9062 0.30928 0.0
O44 O 0.21313 0.87745 0.34126 0.0
O45 O 0.23 0.85544 0.29488 0.0
O46 O 0.17232 0.94751 0.32797 0.0
O47 O 0.21515 0.92138 0.23411 0.0
O48 O 0.23131 0.92689 0.28434 0.0
C49 C 0.22999 0.85595 0.32629 0.0
C50 C 0.14255 0.85946 0.26808 0.0
O51 O 0.15026 0.87431 0.29463 0.0
O52 O 0.16103 0.86268 0.24346 0.0
C53 C 0.19269 0.96464 0.34427 0.0
O54 O 0.22017 0.95135 0.35511 0.0
C55 C 0.23442 0.93446 0.25429 0.0
Zn56 Zn 0.11462 0.8054 0.66149 0.0
Zn57 Zn 0.05971 0.79304 0.65607 0.0
O58 O 0.07836 0.76989 0.61548 0.0
O59 O 0.1106 0.81145 0.61068 0.0
O60 O 0.00988 0.78995 0.65268 0.0
O61 O 0.12886 0.76343 0.67936 0.0
O62 O 0.07786 0.76707 0.69806 0.0
C63 C 0.09909 0.78574 0.59832 0.0
C64 C 0.08936 0.85583 0.67476 0.0
O65 O 0.07132 0.84301 0.65277 0.0
O66 O 0.09734 0.83706 0.69763 0.0
C67 C 0.99226 0.8132 0.64165 0.0
O68 O 0.00633 0.84057 0.63287 0.0
C69 C 0.10723 0.7551 0.70011 0.0
Zn70 Zn 0.2011 0.08334 0.71459 0.0
Zn71 Zn 0.19029 0.05992 0.66579 0.0
O72 O 0.21314 0.08868 0.63381 0.0
O73 O 0.23003 0.11069 0.68018 0.0
O74 O 0.17231 0.01862 0.64708 0.0
O75 O 0.21517 0.04479 0.74098 0.0
O76 O 0.23127 0.0392 0.69075 0.0
C77 C 0.23001 0.11017 0.64878 0.0
C78 C 0.14255 0.10668 0.70698 0.0
O79 O 0.15025 0.0918 0.68044 0.0
O80 O 0.16105 0.10349 0.73158 0.0
C81 C 0.19269 0.00149 0.63078 0.0
O82 O 0.22017 0.01478 0.61996 0.0
C83 C 0.2344 0.03166 0.7208 0.0
Zn84 Zn 0.87173 0.16072 0.66148 0.0
Zn85 Zn 0.92664 0.17307 0.65606 0.0
O86 O 0.90799 0.19622 0.61547 0.0
O87 O 0.87575 0.15467 0.61067 0.0
O88 O 0.97648 0.17616 0.65267 0.0
O89 O 0.8575 0.20269 0.67935 0.0
O90 O 0.90849 0.19904 0.69805 0.0
C91 C 0.88726 0.18038 0.59831 0.0
C92 C 0.89699 0.11029 0.67476 0.0
O93 O 0.91503 0.12311 0.65276 0.0
O94 O 0.88901 0.12906 0.69763 0.0
C95 C -0.00591 0.1529 0.64165 0.0
O96 O 0.98002 0.12553 0.63289 0.0
C97 C 0.87912 0.21101 0.7001 0.0
Zn98 Zn 0.78527 0.88281 0.71457 0.0
Zn99 Zn 0.79607 0.9062 0.66577 0.0
O100 O 0.77324 0.87745 0.63378 0.0
O101 O 0.75635 0.85544 0.68015 0.0
O102 O 0.81406 0.9475 0.64707 0.0
O103 O 0.77122 0.92139 0.74093 0.0
O104 O 0.75506 0.9269 0.6907 0.0
C105 C 0.75637 0.85596 0.64875 0.0
C106 C 0.84381 0.85944 0.70697 0.0
O107 O 0.8361 0.8743 0.68042 0.0
O108 O 0.82532 0.86266 0.73158 0.0
C109 C 0.79368 0.96464 0.63076 0.0
O110 O 0.76621 0.95134 0.61992 0.0
C111 C 0.75195 0.93447 0.72075 0.0
Zn112 Zn 0.26669 0.15524 0.19346 0.0
Zn113 Zn 0.28401 0.10127 0.17276 0.0
O114 O 0.32768 0.12348 0.18565 0.0
O115 O 0.30988 0.16225 0.21778 0.0
O116 O 0.29713 0.05631 0.15989 0.0
O117 O 0.22578 0.13934 0.21579 0.0
O118 O 0.2492 0.09163 0.21028 0.0
C119 C 0.3338 0.14752 0.20423 0.0
C120 C 0.26813 0.15306 0.12354 0.0
O121 O 0.27019 0.12258 0.12873 0.0
O122 O 0.26662 0.17245 0.14751 0.0
C123 C 0.32652 0.04571 0.1566 0.0
O124 O 0.35187 0.06536 0.16024 0.0
C125 C 0.22663 0.10946 0.22275 0.0
Zn126 Zn 0.9045 0.30106 0.18983 0.0
Zn127 Zn 0.95842 0.31274 0.18668 0.0
O128 O 0.93772 0.3532 0.20883 0.0
O129 O 0.89943 0.34794 0.1723 0.0
O130 O 0.00717 0.31757 0.18467 0.0
O131 O 0.90826 0.29485 0.23886 0.0
O132 O 0.9507 0.27182 0.21615 0.0
C133 C 0.91236 0.36498 0.19459 0.0
C134 C 0.92094 0.28121 0.13551 0.0
O135 O 0.93837 0.30669 0.13941 0.0
O136 O 0.92037 0.26265 0.15995 0.0
C137 C 0.0249 0.32617 0.16055 0.0
O138 O 0.01102 0.33507 0.13287 0.0
C139 C 0.92877 0.27174 0.23862 0.0
Zn140 Zn 0.71969 0.81086 0.19344 0.0
Zn141 Zn 0.70236 0.86483 0.17274 0.0
O142 O 0.65869 0.84261 0.18563 0.0
O143 O 0.6765 0.80383 0.21776 0.0
O144 O 0.68922 0.90978 0.15987 0.0
O145 O 0.76059 0.82677 0.21578 0.0
O146 O 0.73716 0.87448 0.21026 0.0
C147 C 0.65258 0.81857 0.20421 0.0
C148 C 0.71824 0.81304 0.12353 0.0
O149 O 0.71617 0.84352 0.12871 0.0
O150 O 0.71976 0.79365 0.14749 0.0
C151 C 0.65983 0.92038 0.15658 0.0
O152 O 0.63448 0.90073 0.16025 0.0
C153 C 0.75974 0.85665 0.22274 0.0
Zn154 Zn 0.08185 0.66505 0.18983 0.0
Zn155 Zn 0.02794 0.65337 0.18668 0.0
O156 O 0.04863 0.61292 0.20884 0.0
O157 O 0.08693 0.61817 0.17231 0.0
O158 O 0.97918 0.64855 0.18468 0.0
O159 O 0.0781 0.67128 0.23885 0.0
O160 O 0.03566 0.6943 0.21614 0.0
C161 C 0.07399 0.60113 0.1946 0.0
C162 C 0.06541 0.68489 0.1355 0.0
O163 O 0.04798 0.65942 0.13941 0.0
O164 O 0.06599 0.70346 0.15993 0.0
C165 C 0.96145 0.63994 0.16055 0.0
O166 O 0.97534 0.63103 0.13288 0.0
C167 C 0.0576 0.69439 0.23861 0.0
Zn168 Zn 0.26668 0.81087 0.78158 0.0
Zn169 Zn 0.284 0.86484 0.80228 0.0
O170 O 0.32767 0.84263 0.78939 0.0
O171 O 0.30987 0.80385 0.75726 0.0
O172 O 0.29712 0.9098 0.81515 0.0
O173 O 0.22577 0.82678 0.75924 0.0
O174 O 0.24919 0.87449 0.76475 0.0
C175 C 0.33379 0.81859 0.77081 0.0
C176 C 0.26812 0.81305 0.85149 0.0
O177 O 0.27018 0.84353 0.84631 0.0
O178 O 0.26661 0.79366 0.82753 0.0
C179 C 0.32651 0.92039 0.81846 0.0
O180 O 0.35186 0.90074 0.81482 0.0
C181 C 0.22662 0.85666 0.75228 0.0
Zn182 Zn 0.08184 0.30107 0.78521 0.0
Zn183 Zn 0.02793 0.31275 0.78836 0.0
O184 O 0.04863 0.35321 0.7662 0.0
O185 O 0.08692 0.34795 0.80273 0.0
O186 O 0.97917 0.31757 0.79036 0.0
O187 O 0.07809 0.29485 0.73619 0.0
O188 O 0.03565 0.27183 0.75889 0.0
C189 C 0.07398 0.36499 0.78045 0.0
C190 C 0.0654 0.28123 0.83953 0.0
O191 O 0.04797 0.3067 0.83563 0.0
O192 O 0.06598 0.26266 0.8151 0.0
C193 C 0.96144 0.32617 0.81449 0.0
O194 O 0.97533 0.33507 0.84217 0.0
C195 C 0.05759 0.27174 0.73642 0.0
Zn196 Zn 0.71967 0.15524 0.78158 0.0
Zn197 Zn 0.70235 0.10127 0.80227 0.0
O198 O 0.65868 0.12348 0.78939 0.0
O199 O 0.67648 0.16226 0.75726 0.0
O200 O 0.68923 0.05631 0.81514 0.0
O201 O 0.76058 0.13934 0.75925 0.0
O202 O 0.73716 0.09163 0.76475 0.0
C203 C 0.65256 0.14752 0.77081 0.0
C204 C 0.71823 0.15305 0.8515 0.0
O205 O 0.71616 0.12258 0.84631 0.0
O206 O 0.71974 0.17245 0.82754 0.0
C207 C 0.65984 0.04571 0.81844 0.0
O208 O 0.63449 0.06535 0.81479 0.0
C209 C 0.75973 0.10946 0.75229 0.0
Zn210 Zn 0.90451 0.66503 0.78523 0.0
Zn211 Zn 0.95843 0.65336 0.78836 0.0
O212 O 0.93773 0.61291 0.7662 0.0
O213 O 0.89945 0.61815 0.80274 0.0
O214 O 0.00718 0.64854 0.79036 0.0
O215 O 0.90825 0.67126 0.7362 0.0
O216 O 0.95069 0.69429 0.7589 0.0
C217 C 0.91238 0.60111 0.78045 0.0
C218 C 0.92096 0.68487 0.83955 0.0
O219 O 0.93839 0.6594 0.83564 0.0
O220 O 0.92037 0.70344 0.81512 0.0
C221 C 0.02491 0.63993 0.81449 0.0
O222 O 0.01103 0.63102 0.84216 0.0
C223 C 0.92875 0.69437 0.73644 0.0
Zn224 Zn 0.21074 0.2888 0.09225 0.0
Zn225 Zn 0.18092 0.29562 0.04685 0.0
O226 O 0.19867 0.34194 0.05931 0.0
O227 O 0.18839 0.32939 0.10986 0.0
O228 O 0.15837 0.29842 0.00318 0.0
O229 O 0.25318 0.29232 0.06591 0.0
O230 O 0.21939 0.26428 0.03557 0.0
C231 C 0.19454 0.35105 0.08883 0.0
C232 C 0.1592 0.25291 0.10125 0.0
O233 O 0.14951 0.27667 0.08349 0.0
O234 O 0.18923 0.24464 0.09885 0.0
C235 C 0.15655 0.32408 0.98599 0.0
O236 O 0.16475 0.35221 -0.00127 0.0
C237 C 0.24891 0.27168 0.04344 0.0
Zn238 Zn 0.21075 0.67732 0.8828 0.0
Zn239 Zn 0.18093 0.6705 0.9282 0.0
O240 O 0.19868 0.62418 0.91573 0.0
O241 O 0.18841 0.63673 0.86519 0.0
O242 O 0.15837 0.66769 0.97186 0.0
O243 O 0.25319 0.6738 0.90915 0.0
O244 O 0.21939 0.70184 0.93949 0.0
C245 C 0.19456 0.61507 0.88621 0.0
C246 C 0.15921 0.7132 0.8738 0.0
O247 O 0.14951 0.68944 0.89155 0.0
O248 O 0.18923 0.72148 0.8762 0.0
C249 C 0.15656 0.64203 -0.01095 0.0
O250 O 0.16477 0.6139 0.97631 0.0
C251 C 0.24891 0.69445 0.93162 0.0
Zn252 Zn 0.26541 0.17537 0.81742 0.0
Zn253 Zn 0.27922 0.15997 0.87199 0.0
O254 O 0.32304 0.17227 0.84837 0.0
O255 O 0.30411 0.20571 0.81144 0.0
O256 O 0.29121 0.15483 0.91951 0.0
O257 O 0.21999 0.19084 0.82441 0.0
O258 O 0.23942 0.1938 0.87445 0.0
C259 C 0.32854 0.19148 0.82455 0.0
C260 C 0.27248 0.10725 0.8239 0.0
O261 O 0.27007 0.11357 0.85443 0.0
O262 O 0.27251 0.13008 0.80324 0.0
C263 C 0.31144 0.17513 0.93166 0.0
O264 O 0.32495 0.19719 0.91266 0.0
C265 C 0.21697 0.20071 0.85349 0.0
Zn266 Zn 0.77561 0.28879 0.8828 0.0
Zn267 Zn 0.80543 0.2956 0.92819 0.0
O268 O 0.78768 0.34192 0.91573 0.0
O269 O 0.79794 0.32937 0.86519 0.0
O270 O 0.82799 0.2984 0.97186 0.0
O271 O 0.73317 0.2923 0.90915 0.0
O272 O 0.76696 0.26426 0.93948 0.0
C273 C 0.7918 0.35103 0.88621 0.0
C274 C 0.82715 0.2529 0.87379 0.0
O275 O 0.83684 0.27666 0.89155 0.0
O276 O 0.79712 0.24462 0.8762 0.0
C277 C 0.8298 0.32406 -0.01095 0.0
O278 O 0.82159 0.3522 0.97631 0.0
C279 C 0.73745 0.27166 0.93162 0.0
Zn280 Zn 0.72096 0.79073 0.8174 0.0
Zn281 Zn 0.70716 0.80614 0.87196 0.0
O282 O 0.66332 0.79383 0.84836 0.0
O283 O 0.68225 0.76039 0.81143 0.0
O284 O 0.69516 0.81128 0.91949 0.0
O285 O 0.76638 0.77525 0.82439 0.0
O286 O 0.74695 0.77231 0.87443 0.0
C287 C 0.65783 0.77463 0.82454 0.0
C288 C 0.71389 0.85885 0.82387 0.0
O289 O 0.7163 0.85254 0.8544 0.0
O290 O 0.71387 0.83602 0.80321 0.0
C291 C 0.67502 0.79089 0.93164 0.0
O292 O 0.66163 0.76877 0.91264 0.0
C293 C 0.76939 0.76539 0.85347 0.0
Zn294 Zn 0.77562 0.6773 0.09225 0.0
Zn295 Zn 0.80544 0.67048 0.04685 0.0
O296 O 0.78769 0.62416 0.05931 0.0
O297 O 0.79797 0.63671 0.10986 0.0
O298 O 0.82799 0.66769 0.00318 0.0
O299 O 0.73318 0.67378 0.0659 0.0
O300 O 0.76697 0.70182 0.03557 0.0
C301 C 0.79182 0.61505 0.08883 0.0
C302 C 0.82716 0.71319 0.10125 0.0
O303 O 0.83685 0.68943 0.0835 0.0
O304 O 0.79713 0.72147 0.09884 0.0
C305 C 0.82981 0.64203 0.98599 0.0
O306 O 0.82161 0.61389 -0.00127 0.0
C307 C 0.73746 0.69442 0.04343 0.0
Zn308 Zn 0.26544 0.79073 0.15762 0.0
Zn309 Zn 0.27923 0.80614 0.10305 0.0
O310 O 0.32306 0.79384 0.12667 0.0
O311 O 0.30414 0.76038 0.16359 0.0
O312 O 0.29122 0.8113 0.05552 0.0
O313 O 0.22002 0.77525 0.15063 0.0
O314 O 0.23944 0.77231 0.10058 0.0
C315 C 0.32856 0.77463 0.15048 0.0
C316 C 0.2725 0.85885 0.15116 0.0
O317 O 0.27008 0.85254 0.12062 0.0
O318 O 0.27253 0.83602 0.17181 0.0
C319 C 0.31154 0.79109 0.04337 0.0
O320 O 0.32515 0.76909 0.06237 0.0
C321 C 0.217 0.76539 0.12155 0.0
Zn322 Zn 0.72093 0.17535 0.15761 0.0
Zn323 Zn 0.70712 0.15996 0.10305 0.0
O324 O 0.6633 0.17227 0.12668 0.0
O325 O 0.68224 0.2057 0.16361 0.0
O326 O 0.69512 0.15481 0.05552 0.0
O327 O 0.76636 0.19082 0.15062 0.0
O328 O 0.74692 0.19379 0.10058 0.0
C329 C 0.65781 0.19147 0.1505 0.0
C330 C 0.71385 0.10724 0.15113 0.0
O331 O 0.71626 0.11356 0.1206 0.0
O332 O 0.71383 0.13006 0.17179 0.0
C333 C 0.67474 0.17498 0.04337 0.0
O334 O 0.66107 0.19693 0.06237 0.0
C335 C 0.76936 0.2007 0.12154 0.0
Zn336 Zn 0.86808 0.76662 0.71572 0.0
Zn337 Zn 0.89985 0.77411 0.66771 0.0
O338 O 0.87884 0.81979 0.68092 0.0
O339 O 0.86196 0.81156 0.73106 0.0
O340 O 0.94262 0.78344 0.64474 0.0
O341 O 0.8936 0.73793 0.7443 0.0
O342 O 0.91817 0.73542 0.69659 0.0
C343 C 0.86541 0.83054 0.70708 0.0
C344 C 0.83777 0.74639 0.65116 0.0
O345 O 0.86463 0.7557 0.63768 0.0
O346 O 0.83476 0.7479 0.68218 0.0
C347 C 0.95616 0.81122 0.64399 0.0
O348 O 0.93914 0.83707 0.65236 0.0
C349 C 0.91514 0.72539 0.72597 0.0
Zn350 Zn 0.17869 0.84902 0.66972 0.0
Zn351 Zn 0.18063 0.90428 0.66715 0.0
O352 O 0.13234 0.89425 0.68196 0.0
O353 O 0.13586 0.85976 0.64308 0.0
O354 O 0.18106 0.95274 0.65897 0.0
O355 O 0.1803 0.84962 0.71871 0.0
O356 O 0.21202 0.89115 0.70661 0.0
C357 C 0.11756 0.87481 0.66281 0.0
C358 C 0.21155 0.85624 0.62144 0.0
O359 O 0.19171 0.88035 0.62213 0.0
O360 O 0.22483 0.84925 0.64838 0.0
C361 C 0.19048 0.96604 0.6324 0.0
O362 O 0.20336 0.94823 0.60897 0.0
C363 C 0.20404 0.86822 0.72636 0.0
Zn364 Zn 0.11826 0.19949 0.71572 0.0
Zn365 Zn 0.08649 0.192 0.66771 0.0
O366 O 0.10751 0.14632 0.68092 0.0
O367 O 0.12436 0.15455 0.73108 0.0
O368 O 0.04373 0.18266 0.64473 0.0
O369 O 0.09273 0.22818 0.74429 0.0
O370 O 0.06818 0.23069 0.69658 0.0
C371 C 0.12093 0.13556 0.70709 0.0
C372 C 0.14858 0.21972 0.65117 0.0
O373 O 0.12172 0.21041 0.63768 0.0
O374 O 0.15158 0.2182 0.68219 0.0
C375 C 0.03019 0.15489 0.64399 0.0
O376 O 0.04721 0.12904 0.65238 0.0
C377 C 0.07119 0.24072 0.72596 0.0
Zn378 Zn 0.80766 0.1171 0.66972 0.0
Zn379 Zn 0.80572 0.06184 0.66716 0.0
O380 O 0.85401 0.07187 0.68196 0.0
O381 O 0.85049 0.10636 0.64308 0.0
O382 O 0.80529 0.01338 0.65897 0.0
O383 O 0.80605 0.1165 0.71871 0.0
O384 O 0.77433 0.07497 0.70661 0.0
C385 C 0.86879 0.0913 0.6628 0.0
C386 C 0.7748 0.10987 0.62144 0.0
O387 O 0.79464 0.08577 0.62213 0.0
O388 O 0.76152 0.11687 0.64838 0.0
C389 C 0.79589 8e-05 0.63239 0.0
O390 O 0.78303 0.0179 0.60896 0.0
C391 C 0.78231 0.0979 0.72636 0.0
Zn392 Zn 0.86809 0.19948 0.25932 0.0
Zn393 Zn 0.89985 0.19199 0.30733 0.0
O394 O 0.87883 0.14631 0.29411 0.0
O395 O 0.862 0.15455 0.24395 0.0
O396 O 0.94261 0.18265 0.33031 0.0
O397 O 0.89361 0.22818 0.23075 0.0
O398 O 0.91818 0.23069 0.27846 0.0
C399 C 0.86542 0.13556 0.26794 0.0
C400 C 0.83777 0.2197 0.32387 0.0
O401 O 0.86463 0.2104 0.33736 0.0
O402 O 0.83476 0.21818 0.29285 0.0
C403 C 0.95615 0.15487 0.33103 0.0
O404 O 0.93914 0.12903 0.32263 0.0
C405 C 0.91515 0.24072 0.24908 0.0
Zn406 Zn 0.80767 0.84902 0.3053 0.0
Zn407 Zn 0.80572 0.90428 0.30787 0.0
O408 O 0.85401 0.89425 0.29307 0.0
O409 O 0.85049 0.85976 0.33194 0.0
O410 O 0.80529 0.95274 0.31606 0.0
O411 O 0.80606 0.84962 0.25631 0.0
O412 O 0.77433 0.89115 0.26841 0.0
C413 C 0.86879 0.87481 0.31222 0.0
C414 C 0.7748 0.85624 0.35358 0.0
O415 O 0.79464 0.88035 0.3529 0.0
O416 O 0.76152 0.84924 0.32664 0.0
C417 C 0.79587 0.96604 0.34262 0.0
O418 O 0.78299 0.94823 0.36605 0.0
C419 C 0.78231 0.86822 0.24866 0.0
Zn420 Zn 0.11827 0.76663 0.25933 0.0
Zn421 Zn 0.0865 0.77412 0.30733 0.0
O422 O 0.10751 0.8198 0.29413 0.0
O423 O 0.1244 0.81157 0.24398 0.0
O424 O 0.04374 0.78345 0.33031 0.0
O425 O 0.09274 0.73796 0.23075 0.0
O426 O 0.06819 0.73543 0.27846 0.0
C427 C 0.12095 0.83055 0.26797 0.0
C428 C 0.14858 0.74639 0.32388 0.0
O429 O 0.12173 0.7557 0.33737 0.0
O430 O 0.15159 0.7479 0.29286 0.0
C431 C 0.0302 0.81123 0.33105 0.0
O432 O 0.04721 0.83708 0.32268 0.0
C433 C 0.0712 0.72541 0.24908 0.0
Zn434 Zn 0.17869 0.11711 0.30532 0.0
Zn435 Zn 0.18064 0.06184 0.30789 0.0
O436 O 0.13235 0.07187 0.29308 0.0
O437 O 0.13587 0.10636 0.33195 0.0
O438 O 0.18107 0.01338 0.31608 0.0
O439 O 0.1803 0.1165 0.25632 0.0
O440 O 0.21203 0.07497 0.26843 0.0
C441 C 0.11757 0.09131 0.31223 0.0
C442 C 0.21156 0.10988 0.3536 0.0
O443 O 0.19172 0.08578 0.35291 0.0
O444 O 0.22484 0.11688 0.32666 0.0
C445 C 0.19049 9e-05 0.34264 0.0
O446 O 0.20336 0.0179 0.36607 0.0
C447 C 0.20405 0.0979 0.24868 0.0
Zn448 Zn 0.66695 0.92725 0.7529 0.0
Zn449 Zn 0.6814 0.94834 0.80161 0.0
O450 O 0.70329 0.9159 0.82986 0.0
O451 O 0.69124 0.8916 0.78287 0.0
O452 O 0.68037 -0.00734 0.82054 0.0
O453 O 0.69486 0.94441 0.71633 0.0
O454 O 0.71802 0.9486 0.76483 0.0
C455 C 0.70373 0.89072 0.81173 0.0
C456 C 0.61358 0.91696 0.78007 0.0
O457 O 0.63496 0.92507 0.80159 0.0
O458 O 0.61708 0.92842 0.7516 0.0
C459 C 0.65492 0.01061 0.81848 0.0
O460 O 0.62675 -0.00167 0.80818 0.0
C461 C 0.72069 0.94705 0.73367 0.0
Zn462 Zn 0.16449 0.7186 0.77746 0.0
Zn463 Zn 0.11413 0.68352 0.78172 0.0
O464 O 0.12603 0.69673 0.82927 0.0
O465 O 0.15882 0.73845 0.82246 0.0
O466 O 0.071 0.66103 0.78719 0.0
O467 O 0.14948 0.7404 0.73648 0.0
O468 O 0.10119 0.7175 0.74518 0.0
C469 C 0.14389 0.71911 0.84155 0.0
C470 C 0.17868 0.64997 0.7717 0.0
O471 O 0.14727 0.64749 0.76925 0.0
O472 O 0.19181 0.67757 0.77594 0.0
C473 C 0.06037 0.64665 0.81263 0.0
O474 O 0.07943 0.64346 0.8385 0.0
C475 C 0.11936 0.7369 0.72878 0.0
Zn476 Zn 0.3194 0.03884 0.75293 0.0
Zn477 Zn 0.30496 0.01776 0.80164 0.0
O478 O 0.28308 0.05021 0.8299 0.0
O479 O 0.29513 0.0745 0.7829 0.0
O480 O 0.30599 0.97344 0.82057 0.0
O481 O 0.29148 0.02167 0.71637 0.0
O482 O 0.26833 0.01751 0.76487 0.0
C483 C 0.28264 0.07538 0.81177 0.0
C484 C 0.37278 0.04913 0.78008 0.0
O485 O 0.3514 0.04103 0.80161 0.0
O486 O 0.36927 0.03766 0.75162 0.0
C487 C 0.33144 0.95549 0.81851 0.0
O488 O 0.35961 0.96776 0.80821 0.0
C489 C 0.26565 0.01905 0.73372 0.0
Zn490 Zn 0.82186 0.24751 0.77746 0.0
Zn491 Zn 0.87223 0.28259 0.78172 0.0
O492 O 0.86032 0.26937 0.82927 0.0
O493 O 0.82753 0.22766 0.82246 0.0
O494 O 0.91536 0.30508 0.7872 0.0
O495 O 0.83687 0.22572 0.73648 0.0
O496 O 0.88517 0.24861 0.74518 0.0
C497 C 0.84246 0.247 0.84155 0.0
C498 C 0.80768 0.31614 0.7717 0.0
O499 O 0.83909 0.31862 0.76925 0.0
O500 O 0.79454 0.28854 0.77593 0.0
C501 C 0.92599 0.31945 0.81263 0.0
O502 O 0.90693 0.32263 0.83851 0.0
C503 C 0.867 0.22921 0.72878 0.0
Zn504 Zn 0.66695 0.03881 0.22209 0.0
Zn505 Zn 0.68138 0.01775 0.17338 0.0
O506 O 0.70325 0.05019 0.14512 0.0
O507 O 0.69122 0.07448 0.19212 0.0
O508 O 0.68034 0.97343 0.15445 0.0
O509 O 0.69488 0.02164 0.25864 0.0
O510 O 0.71802 0.0175 0.21014 0.0
C511 C 0.7037 0.07537 0.16325 0.0
C512 C 0.61357 0.04912 0.19497 0.0
O513 O 0.63493 0.04102 0.17343 0.0
O514 O 0.61708 0.03763 0.22342 0.0
C515 C 0.6549 0.95547 0.15653 0.0
O516 O 0.62673 0.96775 0.16685 0.0
C517 C 0.7207 0.01903 0.24129 0.0
Zn518 Zn 0.82187 0.71859 0.19758 0.0
Zn519 Zn 0.87224 0.68351 0.19333 0.0
O520 O 0.86033 0.69673 0.14577 0.0
O521 O 0.82754 0.73844 0.15258 0.0
O522 O 0.91537 0.66103 0.18785 0.0
O523 O 0.83688 0.74039 0.23856 0.0
O524 O 0.88517 0.7175 0.22987 0.0
C525 C 0.84247 0.7191 0.13349 0.0
C526 C 0.80768 0.64996 0.20335 0.0
O527 O 0.8391 0.64748 0.20579 0.0
O528 O 0.79455 0.67756 0.19911 0.0
C529 C 0.92599 0.64665 0.16242 0.0
O530 O 0.90693 0.64346 0.13654 0.0
C531 C 0.867 0.73689 0.24626 0.0
Zn532 Zn 0.31943 0.92724 0.22213 0.0
Zn533 Zn 0.30497 0.94834 0.17343 0.0
O534 O 0.28308 0.9159 0.14517 0.0
O535 O 0.29514 0.89159 0.19216 0.0
O536 O 0.306 -0.00734 0.1545 0.0
O537 O 0.29151 0.94439 0.2587 0.0
O538 O 0.26835 0.94859 0.21021 0.0
C539 C 0.28265 0.89071 0.1633 0.0
C540 C 0.37279 0.91696 0.19497 0.0
O541 O 0.35141 0.92507 0.17345 0.0
O542 O 0.36929 0.92842 0.22344 0.0
C543 C 0.33144 0.01061 0.15655 0.0
O544 O 0.35962 -0.00166 0.16685 0.0
C545 C 0.26569 0.94704 0.24136 0.0
Zn546 Zn 0.16448 0.24751 0.19758 0.0
Zn547 Zn 0.11412 0.2826 0.19332 0.0
O548 O 0.12603 0.26938 0.14577 0.0
O549 O 0.15882 0.22767 0.15258 0.0
O550 O 0.07099 0.30508 0.18784 0.0
O551 O 0.14948 0.22572 0.23856 0.0
O552 O 0.10118 0.24861 0.22986 0.0
C553 C 0.14388 0.24701 0.13349 0.0
C554 C 0.17867 0.31615 0.20334 0.0
O555 O 0.14726 0.31862 0.20579 0.0
O556 O 0.19181 0.28855 0.19911 0.0
C557 C 0.06036 0.31946 0.16241 0.0
O558 O 0.07942 0.32264 0.13653 0.0
C559 C 0.11935 0.22922 0.24626 0.0
Zn560 Zn 0.82202 0.69026 0.83468 0.0
Zn561 Zn 0.82758 0.68147 0.88886 0.0
O562 O 0.87653 0.69361 0.87794 0.0
O563 O 0.86683 0.66948 0.83167 0.0
O564 O 0.82775 0.67233 0.93714 0.0
O565 O 0.81706 0.73803 0.83733 0.0
O566 O 0.79317 0.71974 0.88171 0.0
C567 C 0.88756 0.6796 0.85241 0.0
C568 C 0.79563 0.63656 0.83944 0.0
O569 O 0.81644 0.63843 0.86296 0.0
O570 O 0.78103 0.66243 0.83145 0.0
C571 C 0.83411 0.64519 0.95053 0.0
O572 O 0.84022 0.61959 0.93232 0.0
C573 C 0.79587 0.74173 0.85977 0.0
Zn574 Zn 0.822 0.27582 0.14036 0.0
Zn575 Zn 0.82757 0.28461 0.08618 0.0
O576 O 0.87652 0.27248 0.09711 0.0
O577 O 0.86681 0.29658 0.14339 0.0
O578 O 0.82774 0.29376 0.0379 0.0
O579 O 0.81703 0.22805 0.1377 0.0
O580 O 0.79315 0.24635 0.09332 0.0
C581 C 0.88754 0.28647 0.12265 0.0
C582 C 0.79562 0.32953 0.1356 0.0
O583 O 0.81644 0.32766 0.11208 0.0
O584 O 0.78102 0.30366 0.1436 0.0
C585 C 0.8341 0.3209 0.02452 0.0
O586 O 0.8402 0.3465 0.04272 0.0
C587 C 0.79584 0.22435 0.11526 0.0
Zn588 Zn 0.6618 0.74692 0.05704 0.0
Zn589 Zn 0.68629 0.78956 0.03239 0.0
O590 O 0.71214 0.81471 0.06498 0.0
O591 O 0.69014 0.77372 0.09262 0.0
O592 O 0.68758 0.80629 0.9864 0.0
O593 O 0.68095 0.70576 0.04215 0.0
O594 O 0.71492 0.74626 0.03256 0.0
C595 C 0.70806 0.79942 0.09185 0.0
C596 C 0.61422 0.783 0.06119 0.0
O597 O 0.6401 0.79944 0.05437 0.0
O598 O 0.61274 0.75444 0.05031 0.0
C599 C 0.67077 0.7885 0.96715 0.0
O600 O 0.65323 0.7645 0.97935 0.0
C601 C 0.70974 0.7158 0.0357 0.0
Zn602 Zn 0.16435 0.69028 0.14036 0.0
Zn603 Zn 0.15879 0.68148 0.08618 0.0
O604 O 0.10984 0.69362 0.0971 0.0
O605 O 0.11954 0.66952 0.14338 0.0
O606 O 0.15862 0.67234 0.0379 0.0
O607 O 0.16932 0.73805 0.1377 0.0
O608 O 0.19321 0.71975 0.09333 0.0
C609 C 0.09881 0.67962 0.12264 0.0
C610 C 0.19073 0.63657 0.13561 0.0
O611 O 0.16992 0.63844 0.11209 0.0
O612 O 0.20534 0.66244 0.1436 0.0
C613 C 0.15226 0.64519 0.02452 0.0
O614 O 0.14616 0.6196 0.04272 0.0
C615 C 0.19052 0.74174 0.11526 0.0
Zn616 Zn 0.32457 0.21918 0.05705 0.0
Zn617 Zn 0.30008 0.17654 0.0324 0.0
O618 O 0.27423 0.1514 0.06499 0.0
O619 O 0.29623 0.19239 0.09263 0.0
O620 O 0.29879 0.1598 0.98642 0.0
O621 O 0.30542 0.26034 0.04215 0.0
O622 O 0.27145 0.21984 0.03256 0.0
C623 C 0.27831 0.16668 0.09187 0.0
C624 C 0.37214 0.1831 0.06121 0.0
O625 O 0.34627 0.16666 0.05438 0.0
O626 O 0.37363 0.21166 0.05034 0.0
C627 C 0.31568 0.17752 0.96717 0.0
O628 O 0.33331 0.20145 0.97937 0.0
C629 C 0.27663 0.2503 0.03571 0.0
Zn630 Zn 0.16434 0.27584 0.83468 0.0
Zn631 Zn 0.15878 0.28463 0.88886 0.0
O632 O 0.10983 0.2725 0.87794 0.0
O633 O 0.11953 0.2966 0.83166 0.0
O634 O 0.15861 0.29377 0.93714 0.0
O635 O 0.16931 0.22807 0.83734 0.0
O636 O 0.19319 0.24636 0.88171 0.0
C637 C 0.0988 0.28649 0.8524 0.0
C638 C 0.19073 0.32954 0.83944 0.0
O639 O 0.16991 0.32767 0.86296 0.0
O640 O 0.20533 0.30368 0.83144 0.0
C641 C 0.15225 0.32092 0.95052 0.0
O642 O 0.14615 0.34651 0.93232 0.0
C643 C 0.1905 0.22437 0.85977 0.0
Zn644 Zn 0.66179 0.21916 0.918 0.0
Zn645 Zn 0.68628 0.17651 0.94264 0.0
O646 O 0.71213 0.15138 0.91004 0.0
O647 O 0.69013 0.19238 0.88241 0.0
O648 O 0.68756 0.15976 -0.01139 0.0
O649 O 0.68094 0.26032 0.93291 0.0
O650 O 0.71491 0.21982 0.94249 0.0
C651 C 0.70805 0.16667 0.88318 0.0
C652 C 0.61421 0.18308 0.91382 0.0
O653 O 0.64008 0.16665 0.92065 0.0
O654 O 0.61272 0.21164 0.9247 0.0
C655 C 0.67052 0.17736 0.00785 0.0
O656 O 0.65277 0.20121 -0.00435 0.0
C657 C 0.70973 0.25028 0.93936 0.0
Zn658 Zn 0.32456 0.74695 0.918 0.0
Zn659 Zn 0.30007 0.7896 0.94264 0.0
O660 O 0.27421 0.81473 0.91004 0.0
O661 O 0.29621 0.77373 0.88241 0.0
O662 O 0.29878 0.80635 -0.01139 0.0
O663 O 0.30541 0.70579 0.93291 0.0
O664 O 0.27144 0.74629 0.94249 0.0
C665 C 0.2783 0.79944 0.88317 0.0
C666 C 0.37213 0.78303 0.91382 0.0
O667 O 0.34626 0.79947 0.92065 0.0
O668 O 0.37362 0.75447 0.92471 0.0
C669 C 0.31577 0.78871 0.00785 0.0
O670 O 0.33348 0.76483 -0.00435 0.0
C671 C 0.27663 0.71583 0.93936 0.0
Zn672 Zn 0.83843 0.61176 0.74423 0.0
Zn673 Zn 0.8139 0.56301 0.76933 0.0
O674 O 0.79348 0.58812 0.80692 0.0
O675 O 0.82479 0.62888 0.79044 0.0
O676 O 0.80696 0.51575 0.779 0.0
O677 O 0.80851 0.61967 0.70759 0.0
O678 O 0.7861 0.57466 0.72641 0.0
C679 C 0.80538 0.61629 0.81156 0.0
C680 C 0.88881 0.5814 0.76179 0.0
O681 O 0.86434 0.57047 0.77814 0.0
O682 O 0.88304 0.59166 0.73334 0.0
C683 C 0.81109 0.50542 0.80807 0.0
O684 O 0.8192 0.52583 0.83146 0.0
C685 C 0.78659 0.59798 0.7056 0.0
Zn686 Zn 0.14793 0.35436 0.74423 0.0
Zn687 Zn 0.17246 0.4031 0.76933 0.0
O688 O 0.19288 0.37799 0.80692 0.0
O689 O 0.16157 0.33723 0.79043 0.0
O690 O 0.1794 0.45036 0.779 0.0
O691 O 0.17784 0.34645 0.70758 0.0
O692 O 0.20026 0.39145 0.72641 0.0
C693 C 0.18098 0.34982 0.81156 0.0
C694 C 0.09755 0.38471 0.76179 0.0
O695 O 0.12202 0.39564 0.77814 0.0
O696 O 0.10331 0.37446 0.73334 0.0
C697 C 0.17527 0.46069 0.80808 0.0
O698 O 0.16716 0.44029 0.83146 0.0
C699 C 0.19977 0.36813 0.7056 0.0
Zn700 Zn 0.14793 0.61177 0.23082 0.0
Zn701 Zn 0.17246 0.56301 0.20571 0.0
O702 O 0.19289 0.58813 0.16813 0.0
O703 O 0.16157 0.62889 0.18461 0.0
O704 O 0.1794 0.51576 0.19605 0.0
O705 O 0.17785 0.61967 0.26746 0.0
O706 O 0.20026 0.57466 0.24863 0.0
C707 C 0.18099 0.6163 0.16349 0.0
C708 C 0.09755 0.58142 0.21325 0.0
O709 O 0.12202 0.57048 0.1969 0.0
O710 O 0.10332 0.59166 0.24171 0.0
C711 C 0.17527 0.50543 0.16697 0.0
O712 O 0.16716 0.52583 0.14359 0.0
C713 C 0.19977 0.59799 0.26944 0.0
Zn714 Zn 0.83842 0.35434 0.23081 0.0
Zn715 Zn 0.81389 0.40309 0.20571 0.0
O716 O 0.79346 0.37797 0.16812 0.0
O717 O 0.82478 0.33722 0.1846 0.0
O718 O 0.80695 0.45034 0.19604 0.0
O719 O 0.80851 0.34643 0.26746 0.0
O720 O 0.78609 0.39144 0.24863 0.0
C721 C 0.80537 0.3498 0.16348 0.0
C722 C 0.8888 0.3847 0.21324 0.0
O723 O 0.86432 0.39563 0.1969 0.0
O724 O 0.88303 0.37445 0.2417 0.0
C725 C 0.81107 0.46067 0.16697 0.0
O726 O 0.81918 0.44027 0.14358 0.0
C727 C 0.78658 0.36812 0.26944 0.0
Zn728 Zn 0.33855 0.57664 0.70796 0.0
Zn729 Zn 0.33533 0.52199 0.69861 0.0
O730 O 0.38199 0.53318 0.717 0.0
O731 O 0.38112 0.57022 0.68049 0.0
O732 O 0.334 0.47435 0.69043 0.0
O733 O 0.33484 0.56764 0.75673 0.0
O734 O 0.30223 0.53049 0.73602 0.0
C735 C 0.39692 0.55659 0.7033 0.0
C736 C 0.29734 0.56781 0.65796 0.0
O737 O 0.31901 0.54539 0.65501 0.0
O738 O 0.29474 0.58166 0.68535 0.0
C739 C 0.35495 0.45889 0.67326 0.0
O740 O 0.3799 0.4743 0.65964 0.0
C741 C 0.31006 0.54903 0.7598 0.0
Zn742 Zn 0.64781 0.38947 0.70796 0.0
Zn743 Zn 0.65103 0.44413 0.69861 0.0
O744 O 0.60437 0.43294 0.717 0.0
O745 O 0.60525 0.3959 0.68049 0.0
O746 O 0.65237 0.49176 0.69043 0.0
O747 O 0.65152 0.39848 0.75673 0.0
O748 O 0.68413 0.43563 0.73602 0.0
C749 C 0.58944 0.40953 0.7033 0.0
C750 C 0.68902 0.3983 0.65796 0.0
O751 O 0.66735 0.42073 0.65501 0.0
O752 O 0.69162 0.38445 0.68535 0.0
C753 C 0.63141 0.50722 0.67326 0.0
O754 O 0.60647 0.49181 0.65963 0.0
C755 C 0.67629 0.41708 0.75981 0.0
Zn756 Zn 0.33854 0.38947 0.26709 0.0
Zn757 Zn 0.33532 0.44413 0.27644 0.0
O758 O 0.38198 0.43294 0.25804 0.0
O759 O 0.38111 0.3959 0.29455 0.0
O760 O 0.33399 0.49176 0.28461 0.0
O761 O 0.33483 0.39848 0.21831 0.0
O762 O 0.30223 0.43563 0.23902 0.0
C763 C 0.39691 0.40953 0.27174 0.0
C764 C 0.29733 0.39831 0.31709 0.0
O765 O 0.319 0.42073 0.32003 0.0
O766 O 0.29473 0.38446 0.28969 0.0
C767 C 0.35495 0.50722 0.30178 0.0
O768 O 0.37989 0.49181 0.3154 0.0
C769 C 0.31006 0.41708 0.21524 0.0
Zn770 Zn 0.64782 0.57663 0.26709 0.0
Zn771 Zn 0.65103 0.52198 0.27644 0.0
O772 O 0.60437 0.53317 0.25805 0.0
O773 O 0.60525 0.57021 0.29455 0.0
O774 O 0.65237 0.47435 0.28462 0.0
O775 O 0.65152 0.56763 0.21831 0.0
O776 O 0.68413 0.53048 0.23903 0.0
C777 C 0.58944 0.55658 0.27174 0.0
C778 C 0.68903 0.56781 0.31709 0.0
O779 O 0.66736 0.54538 0.32003 0.0
O780 O 0.69162 0.58165 0.28969 0.0
C781 C 0.63141 0.45889 0.30179 0.0
O782 O 0.60647 0.4743 0.3154 0.0
C783 C 0.6763 0.54902 0.21524 0.0
Zn784 Zn 0.16763 0.76168 0.61163 0.0
Zn785 Zn 0.19446 0.77542 0.55819 0.0
O786 O 0.21553 0.81542 0.57954 0.0
O787 O 0.17762 0.81063 0.61792 0.0
O788 O 0.20271 0.77788 0.50912 0.0
O789 O 0.19981 0.73118 0.62838 0.0
O790 O 0.2179 0.7324 0.57739 0.0
C791 C 0.19987 0.82738 0.60374 0.0
C792 C 0.12116 0.76828 0.57573 0.0
O793 O 0.14385 0.7855 0.5628 0.0
O794 O 0.12967 0.74071 0.58573 0.0
C795 C 0.22252 0.79813 0.49607 0.0
O796 O 0.24025 0.81743 0.51473 0.0
C797 C 0.21839 0.71998 0.6063 0.0
Zn798 Zn 0.16763 0.20445 0.36342 0.0
Zn799 Zn 0.19446 0.1907 0.41686 0.0
O800 O 0.21553 0.15071 0.39551 0.0
O801 O 0.17762 0.15549 0.35712 0.0
O802 O 0.20271 0.18823 0.46592 0.0
O803 O 0.19979 0.23494 0.34667 0.0
O804 O 0.21789 0.23372 0.39766 0.0
C805 C 0.19987 0.13874 0.3713 0.0
C806 C 0.12115 0.19783 0.39931 0.0
O807 O 0.14384 0.18061 0.41224 0.0
O808 O 0.12966 0.2254 0.38932 0.0
C809 C 0.22252 0.16798 0.47898 0.0
O810 O 0.24024 0.14868 0.46032 0.0
C811 C 0.21838 0.24615 0.36875 0.0
Zn812 Zn 0.36208 0.65318 0.40949 0.0
Zn813 Zn 0.33793 0.67404 0.45442 0.0
O814 O 0.37843 0.70119 0.43761 0.0
O815 O 0.41023 0.66506 0.41544 0.0
O816 O 0.33883 0.66917 0.50269 0.0
O817 O 0.32642 0.68933 0.39325 0.0
O818 O 0.30529 0.70642 0.44031 0.0
C819 C 0.40422 0.69462 0.42089 0.0
C820 C 0.31888 0.61051 0.41586 0.0
O821 O 0.31155 0.63531 0.43307 0.0
O822 O 0.34909 0.60589 0.40933 0.0
C823 C 0.35244 0.64474 0.5161 0.0
O824 O 0.36717 0.62272 0.49795 0.0
C825 C 0.30629 0.70764 0.40913 0.0
Zn826 Zn 0.81872 0.76168 0.36341 0.0
Zn827 Zn 0.79189 0.77542 0.41684 0.0
O828 O 0.77082 0.81542 0.39549 0.0
O829 O 0.80874 0.81063 0.35711 0.0
O830 O 0.78364 0.77789 0.46591 0.0
O831 O 0.78655 0.73118 0.34665 0.0
O832 O 0.76845 0.73241 0.39764 0.0
C833 C 0.78648 0.82739 0.37128 0.0
C834 C 0.86519 0.76829 0.3993 0.0
O835 O 0.8425 0.78551 0.41223 0.0
O836 O 0.85669 0.74072 0.38931 0.0
C837 C 0.76384 0.79815 0.47897 0.0
O838 O 0.74612 0.81745 0.46031 0.0
C839 C 0.76797 0.71998 0.36874 0.0
Zn840 Zn 0.62428 0.31294 0.4095 0.0
Zn841 Zn 0.64844 0.29208 0.45442 0.0
O842 O 0.60793 0.26494 0.43761 0.0
O843 O 0.57614 0.30108 0.41544 0.0
O844 O 0.64754 0.29696 0.50269 0.0
O845 O 0.65995 0.2768 0.39326 0.0
O846 O 0.68108 0.25969 0.44032 0.0
C847 C 0.58214 0.27151 0.42089 0.0
C848 C 0.66749 0.35561 0.41586 0.0
O849 O 0.67482 0.33081 0.43307 0.0
O850 O 0.63728 0.36024 0.40935 0.0
C851 C 0.63393 0.32138 0.5161 0.0
O852 O 0.6192 0.34341 0.49795 0.0
C853 C 0.68007 0.25848 0.40914 0.0
Zn854 Zn 0.81872 0.20444 0.61162 0.0
Zn855 Zn 0.79189 0.19069 0.55818 0.0
O856 O 0.77082 0.1507 0.57953 0.0
O857 O 0.80874 0.15548 0.61791 0.0
O858 O 0.78364 0.18822 0.50911 0.0
O859 O 0.78655 0.23493 0.62837 0.0
O860 O 0.76845 0.23371 0.57738 0.0
C861 C 0.78648 0.13873 0.60374 0.0
C862 C 0.86519 0.19783 0.57572 0.0
O863 O 0.8425 0.18061 0.56279 0.0
O864 O 0.85669 0.2254 0.58571 0.0
C865 C 0.76382 0.16797 0.49606 0.0
O866 O 0.7461 0.14868 0.51472 0.0
C867 C 0.76797 0.24614 0.60629 0.0
Zn868 Zn 0.36207 0.31294 0.56555 0.0
Zn869 Zn 0.33792 0.29208 0.52063 0.0
O870 O 0.37842 0.26494 0.53743 0.0
O871 O 0.41022 0.30107 0.5596 0.0
O872 O 0.33882 0.29696 0.47235 0.0
O873 O 0.32641 0.2768 0.58179 0.0
O874 O 0.30528 0.2597 0.53473 0.0
C875 C 0.40421 0.2715 0.55416 0.0
C876 C 0.31887 0.35562 0.55918 0.0
O877 O 0.31154 0.33082 0.54198 0.0
O878 O 0.34908 0.36024 0.56571 0.0
C879 C 0.35243 0.32138 0.45894 0.0
O880 O 0.36716 0.3434 0.47709 0.0
C881 C 0.30628 0.25849 0.56591 0.0
Zn882 Zn 0.62428 0.65318 0.56555 0.0
Zn883 Zn 0.64843 0.67404 0.52062 0.0
O884 O 0.60793 0.70118 0.53743 0.0
O885 O 0.57614 0.66505 0.55959 0.0
O886 O 0.64754 0.66916 0.47235 0.0
O887 O 0.65994 0.68932 0.58178 0.0
O888 O 0.68108 0.70642 0.53472 0.0
C889 C 0.58214 0.69462 0.55415 0.0
C890 C 0.66749 0.61051 0.55918 0.0
O891 O 0.67482 0.63531 0.54197 0.0
O892 O 0.63727 0.60589 0.5657 0.0
C893 C 0.63393 0.64474 0.45894 0.0
O894 O 0.6192 0.62271 0.47708 0.0
C895 C 0.68007 0.70764 0.5659 0.0
Zn896 Zn 0.25174 0.37272 0.1488 0.0
Zn897 Zn 0.20911 0.40878 0.17352 0.0
O898 O 0.18813 0.37334 0.20036 0.0
O899 O 0.22298 0.34013 0.17544 0.0
O900 O 0.18625 0.45105 0.18184 0.0
O901 O 0.2936 0.38883 0.16809 0.0
O902 O 0.25578 0.41781 0.19329 0.0
C903 C 0.19859 0.34471 0.19476 0.0
C904 C 0.2099 0.38059 0.10183 0.0
O905 O 0.19585 0.39167 0.12745 0.0
O906 O 0.24116 0.38053 0.10103 0.0
C907 C 0.18331 0.47174 0.15899 0.0
O908 O 0.19163 0.46386 0.12892 0.0
C909 C 0.28597 0.40949 0.18961 0.0
Zn910 Zn 0.73462 0.59338 0.1488 0.0
Zn911 Zn 0.77724 0.55733 0.17352 0.0
O912 O 0.79822 0.59276 0.20036 0.0
O913 O 0.76338 0.62598 0.17544 0.0
O914 O 0.8001 0.51505 0.18184 0.0
O915 O 0.69275 0.57727 0.16809 0.0
O916 O 0.73058 0.5483 0.19329 0.0
C917 C 0.78777 0.6214 0.19477 0.0
C918 C 0.77646 0.58552 0.10183 0.0
O919 O 0.79051 0.57443 0.12745 0.0
O920 O 0.7452 0.58558 0.10103 0.0
C921 C 0.80303 0.49437 0.15899 0.0
O922 O 0.79471 0.50225 0.12892 0.0
C923 C 0.70038 0.55661 0.18961 0.0
Zn924 Zn 0.73461 0.37271 0.82624 0.0
Zn925 Zn 0.77724 0.40877 0.80153 0.0
O926 O 0.79822 0.37334 0.77469 0.0
O927 O 0.76337 0.34012 0.7996 0.0
O928 O 0.8001 0.45104 0.79321 0.0
O929 O 0.69275 0.38883 0.80696 0.0
O930 O 0.73057 0.4178 0.78176 0.0
C931 C 0.78776 0.3447 0.78028 0.0
C932 C 0.77645 0.38058 0.87322 0.0
O933 O 0.7905 0.39166 0.8476 0.0
O934 O 0.74518 0.38052 0.87402 0.0
C935 C 0.80304 0.47173 0.81606 0.0
O936 O 0.79472 0.46386 0.84613 0.0
C937 C 0.70038 0.40949 0.78544 0.0
Zn938 Zn 0.25175 0.5934 0.82624 0.0
Zn939 Zn 0.20912 0.55734 0.80153 0.0
O940 O 0.18814 0.59277 0.77469 0.0
O941 O 0.22299 0.62599 0.7996 0.0
O942 O 0.18626 0.51507 0.79321 0.0
O943 O 0.29361 0.57728 0.80696 0.0
O944 O 0.25579 0.54831 0.78175 0.0
C945 C 0.1986 0.62141 0.78028 0.0
C946 C 0.20991 0.58553 0.87322 0.0
O947 O 0.19586 0.57445 0.8476 0.0
O948 O 0.24117 0.58559 0.87402 0.0
C949 C 0.18332 0.49438 0.81606 0.0
O950 O 0.19164 0.50225 0.84613 0.0
C951 C 0.28598 0.55662 0.78544 0.0
Zn952 Zn 0.72439 0.33161 0.34228 0.0
Zn953 Zn 0.68617 0.37197 0.31379 0.0
O954 O 0.6788 0.37534 0.36354 0.0
O955 O 0.71782 0.34795 0.38845 0.0
O956 O 0.66377 0.41182 0.2973 0.0
O957 O 0.76448 0.34202 0.31566 0.0
O958 O 0.73191 0.37658 0.29038 0.0
C959 C 0.69132 0.36433 0.38995 0.0
C960 C 0.66448 0.3036 0.31065 0.0
O961 O 0.65842 0.33228 0.30052 0.0
O962 O 0.69064 0.29792 0.32697 0.0
C963 C 0.63846 0.42507 0.31004 0.0
O964 O 0.62261 0.41063 0.33406 0.0
C965 C 0.76021 0.36331 0.29377 0.0
Zn966 Zn 0.26196 0.63449 0.34229 0.0
Zn967 Zn 0.30019 0.59414 0.3138 0.0
O968 O 0.30756 0.59077 0.36354 0.0
O969 O 0.26854 0.61816 0.38846 0.0
O970 O 0.32259 0.55428 0.2973 0.0
O971 O 0.22188 0.62408 0.31567 0.0
O972 O 0.25444 0.58952 0.29038 0.0
C973 C 0.29505 0.60178 0.38995 0.0
C974 C 0.32186 0.66251 0.31065 0.0
O975 O 0.32793 0.63383 0.30051 0.0
O976 O 0.29571 0.66819 0.32697 0.0
C977 C 0.3479 0.54104 0.31003 0.0
O978 O 0.36375 0.55548 0.33406 0.0
C979 C 0.22614 0.60279 0.29378 0.0
Zn980 Zn 0.7244 0.63449 0.63276 0.0
Zn981 Zn 0.68618 0.59413 0.66125 0.0
O982 O 0.67881 0.59076 0.6115 0.0
O983 O 0.71782 0.61816 0.58659 0.0
O984 O 0.66377 0.55428 0.67774 0.0
O985 O 0.76448 0.62408 0.65938 0.0
O986 O 0.73192 0.58952 0.68466 0.0
C987 C 0.69132 0.60178 0.58509 0.0
C988 C 0.6645 0.66251 0.66439 0.0
O989 O 0.65843 0.63382 0.67452 0.0
O990 O 0.69065 0.66818 0.64807 0.0
C991 C 0.63847 0.54104 0.665 0.0
O992 O 0.62261 0.55548 0.64098 0.0
C993 C 0.76022 0.60279 0.68127 0.0
Zn994 Zn 0.26196 0.33163 0.63276 0.0
Zn995 Zn 0.30018 0.37198 0.66125 0.0
O996 O 0.30755 0.37535 0.61151 0.0
O997 O 0.26853 0.34796 0.58659 0.0
O998 O 0.32259 0.41183 0.67775 0.0
O999 O 0.22188 0.34204 0.65938 0.0
O1000 O 0.25444 0.3766 0.68467 0.0
C1001 C 0.29504 0.36434 0.5851 0.0
C1002 C 0.32186 0.3036 0.6644 0.0
O1003 O 0.32793 0.33229 0.67453 0.0
O1004 O 0.29571 0.29793 0.64808 0.0
C1005 C 0.3479 0.42508 0.66501 0.0
O1006 O 0.36375 0.41064 0.64099 0.0
C1007 C 0.22614 0.36333 0.68127 0.0
Zn1008 Zn 0.73729 0.20839 0.34107 0.0
Zn1009 Zn 0.76461 0.19055 0.39496 0.0
O1010 O 0.80533 0.20935 0.37114 0.0
O1011 O 0.78071 0.22799 0.3268 0.0
O1012 O 0.77922 0.18171 0.44143 0.0
O1013 O 0.70099 0.23548 0.36022 0.0
O1014 O 0.72551 0.22162 0.40604 0.0
C1015 C 0.80698 0.22249 0.34289 0.0
C1016 C 0.74496 0.13953 0.34369 0.0
O1017 O 0.75687 0.1461 0.37196 0.0
O1018 O 0.73187 0.1618 0.32662 0.0
C1019 C 0.75848 0.16813 0.46048 0.0
O1020 O 0.73065 0.15668 0.44842 0.0
C1021 C 0.70288 0.2372 0.39101 0.0
Zn1022 Zn 0.73731 0.75772 0.63396 0.0
Zn1023 Zn 0.76463 0.77555 0.58006 0.0
O1024 O 0.80534 0.75675 0.60389 0.0
O1025 O 0.78072 0.7381 0.64822 0.0
O1026 O 0.77924 0.78439 0.53359 0.0
O1027 O 0.70099 0.73065 0.61481 0.0
O1028 O 0.72552 0.74449 0.56899 0.0
C1029 C 0.80699 0.7436 0.63213 0.0
C1030 C 0.745 0.82658 0.63133 0.0
O1031 O 0.75689 0.82001 0.60306 0.0
O1032 O 0.73192 0.80431 0.64841 0.0
C1033 C 0.75849 0.79798 0.51455 0.0
O1034 O 0.73068 0.80945 0.52661 0.0
C1035 C 0.70288 0.72892 0.58403 0.0
Zn1036 Zn 0.72303 0.32375 0.65552 0.0
Zn1037 Zn 0.68104 0.31256 0.60833 0.0
O1038 O 0.6824 0.36248 0.61579 0.0
O1039 O 0.73148 0.36836 0.63616 0.0
O1040 O 0.65719 0.30651 0.56629 0.0
O1041 O 0.7517 0.28654 0.64329 0.0
O1042 O 0.72161 0.28216 0.5987 0.0
C1043 C 0.7034 0.38057 0.63015 0.0
C1044 C 0.65496 0.30424 0.67495 0.0
O1045 O 0.65032 0.29677 0.64496 0.0
O1046 O 0.6823 0.31646 0.68408 0.0
C1047 C 0.64011 0.32727 0.55081 0.0
O1048 O 0.63376 0.35571 0.56391 0.0
C1049 C 0.74638 0.27334 0.61584 0.0
Zn1050 Zn 0.24905 0.2084 0.63398 0.0
Zn1051 Zn 0.22173 0.19056 0.58008 0.0
O1052 O 0.18102 0.20937 0.6039 0.0
O1053 O 0.20564 0.228 0.64824 0.0
O1054 O 0.20712 0.18173 0.53361 0.0
O1055 O 0.28536 0.23549 0.61482 0.0
O1056 O 0.26084 0.22163 0.569 0.0
C1057 C 0.17936 0.2225 0.63215 0.0
C1058 C 0.24137 0.13954 0.63135 0.0
O1059 O 0.22948 0.14611 0.60308 0.0
O1060 O 0.25446 0.16181 0.64842 0.0
C1061 C 0.22787 0.16814 0.51456 0.0
O1062 O 0.25569 0.15668 0.52662 0.0
C1063 C 0.28347 0.23721 0.58404 0.0
Zn1064 Zn 0.26333 0.64236 0.65552 0.0
Zn1065 Zn 0.30531 0.65355 0.60833 0.0
O1066 O 0.30396 0.60364 0.61578 0.0
O1067 O 0.25488 0.59775 0.63616 0.0
O1068 O 0.32916 0.65961 0.56629 0.0
O1069 O 0.23466 0.67958 0.64329 0.0
O1070 O 0.26474 0.68395 0.5987 0.0
C1071 C 0.28296 0.58555 0.63015 0.0
C1072 C 0.3314 0.66187 0.67495 0.0
O1073 O 0.33604 0.66934 0.64496 0.0
O1074 O 0.30406 0.64965 0.68408 0.0
C1075 C 0.34626 0.63886 0.55081 0.0
O1076 O 0.35261 0.61042 0.56392 0.0
C1077 C 0.23997 0.69278 0.61584 0.0
Zn1078 Zn 0.24904 0.75771 0.34107 0.0
Zn1079 Zn 0.22173 0.77555 0.39497 0.0
O1080 O 0.18102 0.75674 0.37114 0.0
O1081 O 0.20564 0.73809 0.32681 0.0
O1082 O 0.20712 0.78438 0.44144 0.0
O1083 O 0.28536 0.73064 0.36022 0.0
O1084 O 0.26084 0.74449 0.40605 0.0
C1085 C 0.17936 0.7436 0.34291 0.0
C1086 C 0.24135 0.82658 0.3437 0.0
O1087 O 0.22947 0.82 0.37198 0.0
O1088 O 0.25443 0.80431 0.32662 0.0
C1089 C 0.22787 0.79797 0.46048 0.0
O1090 O 0.25569 0.80943 0.44842 0.0
C1091 C 0.28348 0.72891 0.39101 0.0
Zn1092 Zn 0.72303 0.64236 0.31951 0.0
Zn1093 Zn 0.68104 0.65355 0.36671 0.0
O1094 O 0.6824 0.60364 0.35926 0.0
O1095 O 0.73149 0.59775 0.33888 0.0
O1096 O 0.6572 0.65961 0.40875 0.0
O1097 O 0.7517 0.67958 0.33175 0.0
O1098 O 0.72162 0.68395 0.37633 0.0
C1099 C 0.7034 0.58555 0.34489 0.0
C1100 C 0.65496 0.66187 0.30009 0.0
O1101 O 0.65032 0.66934 0.33007 0.0
O1102 O 0.6823 0.64964 0.29096 0.0
C1103 C 0.6401 0.63885 0.42422 0.0
O1104 O 0.63375 0.61041 0.41112 0.0
C1105 C 0.74638 0.69278 0.35919 0.0
Zn1106 Zn 0.26332 0.32376 0.31952 0.0
Zn1107 Zn 0.30531 0.31257 0.36672 0.0
O1108 O 0.30396 0.36248 0.35926 0.0
O1109 O 0.25487 0.36837 0.33888 0.0
O1110 O 0.32916 0.30651 0.40876 0.0
O1111 O 0.23464 0.28655 0.33176 0.0
O1112 O 0.26473 0.28217 0.37634 0.0
C1113 C 0.28296 0.38057 0.34489 0.0
C1114 C 0.33139 0.30424 0.30009 0.0
O1115 O 0.33603 0.29678 0.33008 0.0
O1116 O 0.30404 0.31647 0.29097 0.0
C1117 C 0.34625 0.32727 0.42423 0.0
O1118 O 0.35261 0.3557 0.41112 0.0
C1119 C 0.23996 0.27335 0.35921 0.0
Zn1120 Zn 0.61565 0.21039 0.8214 0.0
Zn1121 Zn 0.56607 0.18562 0.82034 0.0
O1122 O 0.57453 0.18835 0.87047 0.0
O1123 O 0.6262 0.17941 0.85871 0.0
O1124 O 0.52149 0.16629 0.81357 0.0
O1125 O 0.59769 0.25545 0.82954 0.0
O1126 O 0.5616 0.23088 0.79836 0.0
C1127 C 0.6033 0.17977 0.87981 0.0
C1128 C 0.62228 0.16631 0.77717 0.0
O1129 O 0.60098 0.15548 0.79756 0.0
O1130 O 0.62503 0.19671 0.77453 0.0
C1131 C 0.50607 0.14621 0.83154 0.0
O1132 O 0.51998 0.13441 0.85807 0.0
C1133 C 0.57473 0.25714 0.80857 0.0
Zn1134 Zn 0.3707 0.75572 0.8214 0.0
Zn1135 Zn 0.42028 0.78049 0.82034 0.0
O1136 O 0.41182 0.77776 0.87048 0.0
O1137 O 0.36015 0.7867 0.85871 0.0
O1138 O 0.46486 0.79982 0.81358 0.0
O1139 O 0.38867 0.71067 0.82955 0.0
O1140 O 0.42476 0.73524 0.79837 0.0
C1141 C 0.38305 0.78634 0.87981 0.0
C1142 C 0.36407 0.7998 0.77717 0.0
O1143 O 0.38537 0.81063 0.79756 0.0
O1144 O 0.36132 0.7694 0.77453 0.0
C1145 C 0.48031 0.81987 0.83157 0.0
O1146 O 0.46641 0.83163 0.85814 0.0
C1147 C 0.41162 0.70897 0.80857 0.0
Zn1148 Zn 0.61566 0.75569 0.15362 0.0
Zn1149 Zn 0.56608 0.78047 0.15468 0.0
O1150 O 0.57454 0.77773 0.10454 0.0
O1151 O 0.62621 0.78666 0.1163 0.0
O1152 O 0.52151 0.79981 0.16145 0.0
O1153 O 0.59769 0.71064 0.14548 0.0
O1154 O 0.56161 0.73522 0.17666 0.0
C1155 C 0.60331 0.78631 0.09521 0.0
C1156 C 0.6223 0.79978 0.19785 0.0
O1157 O 0.60099 0.81061 0.17746 0.0
O1158 O 0.62505 0.76937 0.20049 0.0
C1159 C 0.50607 0.81986 0.14346 0.0
O1160 O 0.51997 0.83163 0.11691 0.0
C1161 C 0.57474 0.70895 0.16646 0.0
Zn1162 Zn 0.37071 0.21039 0.15363 0.0
Zn1163 Zn 0.42029 0.18563 0.1547 0.0
O1164 O 0.41183 0.18836 0.10456 0.0
O1165 O 0.36016 0.17941 0.11632 0.0
O1166 O 0.46487 0.16629 0.16146 0.0
O1167 O 0.38867 0.25545 0.1455 0.0
O1168 O 0.42476 0.23088 0.17668 0.0
C1169 C 0.38306 0.17978 0.09523 0.0
C1170 C 0.36408 0.16631 0.19787 0.0
O1171 O 0.38538 0.15548 0.17747 0.0
O1172 O 0.36133 0.19671 0.20051 0.0
C1173 C 0.4803 0.14624 0.14348 0.0
O1174 O 0.46641 0.13447 0.11692 0.0
C1175 C 0.41162 0.25714 0.16647 0.0
Zn1176 Zn 0.37595 0.2193 0.63037 0.0
Zn1177 Zn 0.4166 0.25689 0.65834 0.0
O1178 O 0.37766 0.28551 0.67192 0.0
O1179 O 0.34225 0.25286 0.64755 0.0
O1180 O 0.45772 0.27788 0.67473 0.0
O1181 O 0.38512 0.17941 0.65616 0.0
O1182 O 0.4165 0.21335 0.68369 0.0
C1183 C 0.34808 0.2787 0.66356 0.0
C1184 C 0.40991 0.24948 0.58202 0.0
O1185 O 0.42058 0.26241 0.60833 0.0
O1186 O 0.39195 0.22438 0.58394 0.0
C1187 C 0.4711 0.30224 0.66105 0.0
O1188 O 0.45681 0.31622 0.63583 0.0
C1189 C 0.40375 0.18527 0.6803 0.0
Zn1190 Zn 0.61041 0.74681 0.63037 0.0
Zn1191 Zn 0.56976 0.70922 0.65833 0.0
O1192 O 0.6087 0.6806 0.67192 0.0
O1193 O 0.64411 0.71325 0.64755 0.0
O1194 O 0.52864 0.68823 0.67473 0.0
O1195 O 0.60123 0.7867 0.65616 0.0
O1196 O 0.56985 0.75275 0.68369 0.0
C1197 C 0.63828 0.68742 0.66355 0.0
C1198 C 0.57645 0.71664 0.58201 0.0
O1199 O 0.56578 0.7037 0.60833 0.0
O1200 O 0.5944 0.74174 0.58393 0.0
C1201 C 0.51525 0.66388 0.66104 0.0
O1202 O 0.52953 0.64991 0.63581 0.0
C1203 C 0.58261 0.78084 0.6803 0.0
Zn1204 Zn 0.61039 0.2193 0.34469 0.0
Zn1205 Zn 0.56974 0.25689 0.31671 0.0
O1206 O 0.60869 0.2855 0.30313 0.0
O1207 O 0.64409 0.25285 0.3275 0.0
O1208 O 0.52863 0.27787 0.30032 0.0
O1209 O 0.60122 0.17941 0.3189 0.0
O1210 O 0.56984 0.21335 0.29136 0.0
C1211 C 0.63826 0.27869 0.31149 0.0
C1212 C 0.57644 0.24948 0.39303 0.0
O1213 O 0.56577 0.26241 0.36672 0.0
O1214 O 0.59438 0.22438 0.39112 0.0
C1215 C 0.51524 0.30223 0.314 0.0
O1216 O 0.52953 0.31621 0.33923 0.0
C1217 C 0.58259 0.18526 0.29476 0.0
Zn1218 Zn 0.37595 0.74682 0.34467 0.0
Zn1219 Zn 0.4166 0.70922 0.3167 0.0
O1220 O 0.37766 0.68061 0.30312 0.0
O1221 O 0.34225 0.71326 0.32749 0.0
O1222 O 0.45772 0.68823 0.30031 0.0
O1223 O 0.38513 0.7867 0.31887 0.0
O1224 O 0.41651 0.75276 0.29135 0.0
C1225 C 0.34808 0.68742 0.31149 0.0
C1226 C 0.40991 0.71664 0.39302 0.0
O1227 O 0.42059 0.70371 0.36671 0.0
O1228 O 0.39196 0.74174 0.3911 0.0
C1229 C 0.47111 0.66388 0.31399 0.0
O1230 O 0.45683 0.64991 0.33923 0.0
C1231 C 0.40376 0.78084 0.29473 0.0
Zn1232 Zn 0.36494 0.82256 0.22059 0.0
Zn1233 Zn 0.41438 0.82083 0.19568 0.0
O1234 O 0.40918 0.87092 0.20064 0.0
O1235 O 0.35612 0.86324 0.19488 0.0
O1236 O 0.45908 0.81375 0.17662 0.0
O1237 O 0.38116 0.82507 0.26685 0.0
O1238 O 0.41664 0.79527 0.23981 0.0
C1239 C 0.38062 0.8823 0.19428 0.0
C1240 C 0.35698 0.78178 0.17186 0.0
O1241 O 0.37953 0.80158 0.16271 0.0
O1242 O 0.352 0.77868 0.20222 0.0
C1243 C 0.47219 0.82847 0.15258 0.0
O1244 O 0.45557 0.85076 0.13649 0.0
C1245 C 0.40298 0.80312 0.26685 0.0
Zn1246 Zn 0.62142 0.14353 0.22064 0.0
Zn1247 Zn 0.57199 0.14526 0.1957 0.0
O1248 O 0.57719 0.09516 0.20065 0.0
O1249 O 0.63026 0.10283 0.19496 0.0
O1250 O 0.5273 0.15234 0.17664 0.0
O1251 O 0.60521 0.14103 0.26689 0.0
O1252 O 0.56972 0.17082 0.23983 0.0
C1253 C 0.60575 0.08378 0.19431 0.0
C1254 C 0.6294 0.1843 0.17189 0.0
O1255 O 0.60685 0.16452 0.16274 0.0
O1256 O 0.63439 0.18739 0.20226 0.0
C1257 C 0.51418 0.13763 0.15259 0.0
O1258 O 0.53081 0.11534 0.13651 0.0
C1259 C 0.58338 0.16298 0.26688 0.0
Zn1260 Zn 0.36492 0.14354 0.75443 0.0
Zn1261 Zn 0.41435 0.14527 0.77935 0.0
O1262 O 0.40916 0.09518 0.7744 0.0
O1263 O 0.35609 0.10285 0.78012 0.0
O1264 O 0.45905 0.15235 0.79842 0.0
O1265 O 0.38114 0.14104 0.70817 0.0
O1266 O 0.41663 0.17083 0.73523 0.0
C1267 C 0.3806 0.0838 0.78075 0.0
C1268 C 0.35696 0.18432 0.80317 0.0
O1269 O 0.3795 0.16453 0.81232 0.0
O1270 O 0.35197 0.18741 0.7728 0.0
C1271 C 0.47219 0.13761 0.82243 0.0
O1272 O 0.45558 0.11529 0.83849 0.0
C1273 C 0.40296 0.16299 0.70817 0.0
Zn1274 Zn 0.62143 0.82255 0.75444 0.0
Zn1275 Zn 0.572 0.82083 0.77935 0.0
O1276 O 0.5772 0.87092 0.77439 0.0
O1277 O 0.63026 0.86324 0.78014 0.0
O1278 O 0.5273 0.81375 0.79842 0.0
O1279 O 0.60521 0.82507 0.70818 0.0
O1280 O 0.56973 0.79527 0.73523 0.0
C1281 C 0.60576 0.8823 0.78075 0.0
C1282 C 0.6294 0.78178 0.80317 0.0
O1283 O 0.60686 0.80157 0.81232 0.0
O1284 O 0.63438 0.77868 0.7728 0.0
C1285 C 0.51419 0.82846 0.82246 0.0
O1286 O 0.53082 0.85075 0.83855 0.0
C1287 C 0.58339 0.80311 0.70818 0.0
Zn1288 Zn 0.59653 0.62728 0.21717 0.0
Zn1289 Zn 0.55946 0.6546 0.25791 0.0
O1290 O 0.59821 0.66963 0.28526 0.0
O1291 O 0.63102 0.64298 0.25131 0.0
O1292 O 0.5174 0.66819 0.27931 0.0
O1293 O 0.58874 0.65472 0.17771 0.0
O1294 O 0.56027 0.68121 0.21493 0.0
C1295 C 0.627 0.65985 0.27717 0.0
C1296 C 0.57114 0.57932 0.25065 0.0
O1297 O 0.56227 0.60535 0.26495 0.0
O1298 O 0.58023 0.58098 0.22106 0.0
C1299 C 0.50293 0.65228 0.30177 0.0
O1300 O 0.51644 0.6258 0.31369 0.0
C1301 C 0.57204 0.6793 0.18604 0.0
Zn1302 Zn 0.38981 0.33882 0.21717 0.0
Zn1303 Zn 0.42689 0.3115 0.25792 0.0
O1304 O 0.38814 0.29648 0.28526 0.0
O1305 O 0.35532 0.32313 0.25132 0.0
O1306 O 0.46895 0.29791 0.27932 0.0
O1307 O 0.39761 0.31137 0.17772 0.0
O1308 O 0.42608 0.28489 0.21494 0.0
C1309 C 0.35935 0.30625 0.27717 0.0
C1310 C 0.41521 0.38678 0.25065 0.0
O1311 O 0.42408 0.36075 0.26495 0.0
O1312 O 0.40611 0.38512 0.22106 0.0
C1313 C 0.48342 0.31383 0.30177 0.0
O1314 O 0.46991 0.34032 0.31368 0.0
C1315 C 0.41431 0.28679 0.18605 0.0
Zn1316 Zn 0.38982 0.62729 0.75788 0.0
Zn1317 Zn 0.4269 0.65461 0.71713 0.0
O1318 O 0.38815 0.66964 0.68978 0.0
O1319 O 0.35534 0.64299 0.72373 0.0
O1320 O 0.46896 0.6682 0.69573 0.0
O1321 O 0.39762 0.65474 0.79733 0.0
O1322 O 0.42609 0.68123 0.76011 0.0
C1323 C 0.35936 0.65986 0.69787 0.0
C1324 C 0.41522 0.57933 0.72439 0.0
O1325 O 0.42409 0.60536 0.7101 0.0
O1326 O 0.40612 0.581 0.75399 0.0
C1327 C 0.48343 0.65228 0.67327 0.0
O1328 O 0.46991 0.62581 0.66135 0.0
C1329 C 0.41432 0.67933 0.789 0.0
Zn1330 Zn 0.59654 0.33882 0.75787 0.0
Zn1331 Zn 0.55946 0.3115 0.71712 0.0
O1332 O 0.59821 0.29648 0.68978 0.0
O1333 O 0.63102 0.32312 0.72372 0.0
O1334 O 0.5174 0.29791 0.69572 0.0
O1335 O 0.58874 0.31137 0.79732 0.0
O1336 O 0.56027 0.28489 0.7601 0.0
C1337 C 0.627 0.30625 0.69787 0.0
C1338 C 0.57114 0.38678 0.72439 0.0
O1339 O 0.56227 0.36075 0.71009 0.0
O1340 O 0.58024 0.38512 0.75398 0.0
C1341 C 0.50292 0.31384 0.67328 0.0
O1342 O 0.51642 0.34033 0.66137 0.0
C1343 C 0.57204 0.28679 0.78899 0.0
loop_
_geom_bond_atom_site_label_1
_geom_bond_atom_site_label_2
_geom_bond_distance
_geom_bond_site_symmetry_2
_ccdc_geom_bond_type
Zn0 O3 2.031 . S
Zn0 O5 2.049 . S
Zn0 O10 2.067 . S
Zn1 O2 1.962 . S
Zn1 O4 1.986 . S
Zn1 O6 1.996 . S
Zn1 O9 1.943 . S
O2 Zn1 1.962 . S
O2 C7 1.254 . S
O3 Zn0 2.031 . S
O3 C7 1.269 . S
O4 Zn1 1.986 . S
O4 C11 1.262 . S
O5 Zn0 2.049 . S
O5 C13 1.260 . S
O6 Zn1 1.996 . S
O6 C13 1.257 . S
C7 O2 1.254 . S
C7 O3 1.269 . S
C8 O9 1.249 . S
C8 O10 1.270 . S
O9 Zn1 1.943 . S
O9 C8 1.249 . S
O10 Zn0 2.067 . S
O10 C8 1.270 . S
C11 O4 1.262 . S
C11 O12 1.232 . S
O12 C11 1.232 . S
C13 O5 1.260 . S
C13 O6 1.257 . S
Zn14 O17 2.031 . S
Zn14 O19 2.049 . S
Zn14 O24 2.067 . S
Zn15 O16 1.962 . S
Zn15 O18 1.986 . S
Zn15 O20 1.996 . S
Zn15 O23 1.943 . S
O16 Zn15 1.962 . S
O16 C21 1.254 . S
O17 Zn14 2.031 . S
O17 C21 1.269 . S
O18 Zn15 1.986 . S
O18 C25 1.262 . S
O19 Zn14 2.049 . S
O19 C27 1.260 . S
O20 Zn15 1.996 . S
O20 C27 1.257 . S
C21 O16 1.254 . S
C21 O17 1.269 . S
C22 O23 1.249 . S
C22 O24 1.270 . S
O23 Zn15 1.943 . S
O23 C22 1.249 . S
O24 Zn14 2.067 . S
O24 C22 1.270 . S
C25 O18 1.262 . S
C25 O26 1.232 . S
O26 C25 1.232 . S
C27 O19 1.260 . S
C27 O20 1.257 . S
Zn28 O31 2.031 . S
Zn28 O33 2.049 . S
Zn28 O38 2.067 . S
Zn29 O30 1.962 . S
Zn29 O32 1.986 . S
Zn29 O34 1.996 . S
Zn29 O37 1.943 . S
O30 Zn29 1.962 . S
O30 C35 1.254 . S
O31 Zn28 2.031 . S
O31 C35 1.269 . S
O32 Zn29 1.986 . S
O32 C39 1.262 . S
O33 Zn28 2.049 . S
O33 C41 1.260 . S
O34 Zn29 1.996 . S
O34 C41 1.257 . S
C35 O30 1.254 . S
C35 O31 1.269 . S
C36 O37 1.249 . S
C36 O38 1.270 . S
O37 Zn29 1.943 . S
O37 C36 1.249 . S
O38 Zn28 2.067 . S
O38 C36 1.270 . S
C39 O32 1.262 . S
C39 O40 1.232 . S
O40 C39 1.232 . S
C41 O33 1.260 . S
C41 O34 1.257 . S
Zn42 O45 2.031 . S
Zn42 O47 2.049 . S
Zn42 O52 2.067 . S
Zn43 O44 1.962 . S
Zn43 O46 1.986 . S
Zn43 O48 1.996 . S
Zn43 O51 1.943 . S
O44 Zn43 1.962 . S
O44 C49 1.254 . S
O45 Zn42 2.031 . S
O45 C49 1.269 . S
O46 Zn43 1.986 . S
O46 C53 1.262 . S
O47 Zn42 2.049 . S
O47 C55 1.260 . S
O48 Zn43 1.996 . S
O48 C55 1.257 . S
C49 O44 1.254 . S
C49 O45 1.269 . S
C50 O51 1.249 . S
C50 O52 1.270 . S
O51 Zn43 1.943 . S
O51 C50 1.249 . S
O52 Zn42 2.067 . S
O52 C50 1.270 . S
C53 O46 1.262 . S
C53 O54 1.232 . S
O54 C53 1.232 . S
C55 O47 1.260 . S
C55 O48 1.257 . S
Zn56 O59 2.031 . S
Zn56 O61 2.049 . S
Zn56 O66 2.067 . S
Zn57 O58 1.962 . S
Zn57 O60 1.986 . S
Zn57 O62 1.996 . S
Zn57 O65 1.943 . S
O58 Zn57 1.962 . S
O58 C63 1.254 . S
O59 Zn56 2.031 . S
O59 C63 1.269 . S
O60 Zn57 1.986 . S
O60 C67 1.262 . S
O61 Zn56 2.049 . S
O61 C69 1.260 . S
O62 Zn57 1.996 . S
O62 C69 1.257 . S
C63 O58 1.254 . S
C63 O59 1.269 . S
C64 O65 1.249 . S
C64 O66 1.270 . S
O65 Zn57 1.943 . S
O65 C64 1.249 . S
O66 Zn56 2.067 . S
O66 C64 1.270 . S
C67 O60 1.262 . S
C67 O68 1.232 . S
O68 C67 1.232 . S
C69 O61 1.260 . S
C69 O62 1.257 . S
Zn70 O73 2.031 . S
Zn70 O75 2.049 . S
Zn70 O80 2.067 . S
Zn71 O72 1.962 . S
Zn71 O74 1.986 . S
Zn71 O76 1.996 . S
Zn71 O79 1.943 . S
O72 Zn71 1.962 . S
O72 C77 1.254 . S
O73 Zn70 2.031 . S
O73 C77 1.269 . S
O74 Zn71 1.986 . S
O74 C81 1.262 . S
O75 Zn70 2.049 . S
O75 C83 1.260 . S
O76 Zn71 1.996 . S
O76 C83 1.257 . S
C77 O72 1.254 . S
C77 O73 1.269 . S
C78 O79 1.249 . S
C78 O80 1.270 . S
O79 Zn71 1.943 . S
O79 C78 1.249 . S
O80 Zn70 2.067 . S
O80 C78 1.270 . S
C81 O74 1.262 . S
C81 O82 1.232 . S
O82 C81 1.232 . S
C83 O75 1.260 . S
C83 O76 1.257 . S
Zn84 O87 2.031 . S
Zn84 O89 2.049 . S
Zn84 O94 2.067 . S
Zn85 O86 1.962 . S
Zn85 O88 1.986 . S
Zn85 O90 1.996 . S
Zn85 O93 1.943 . S
O86 Zn85 1.962 . S
O86 C91 1.254 . S
O87 Zn84 2.031 . S
O87 C91 1.269 . S
O88 Zn85 1.986 . S
O88 C95 1.262 . S
O89 Zn84 2.049 . S
O89 C97 1.260 . S
O90 Zn85 1.996 . S
O90 C97 1.257 . S
C91 O86 1.254 . S
C91 O87 1.269 . S
C92 O93 1.249 . S
C92 O94 1.270 . S
O93 Zn85 1.943 . S
O93 C92 1.249 . S
O94 Zn84 2.067 . S
O94 C92 1.270 . S
C95 O88 1.262 . S
C95 O96 1.232 . S
O96 C95 1.232 . S
C97 O89 1.260 . S
C97 O90 1.257 . S
Zn98 O101 2.031 . S
Zn98 O103 2.049 . S
Zn98 O108 2.067 . S
Zn99 O100 1.962 . S
Zn99 O102 1.986 . S
Zn99 O104 1.996 . S
Zn99 O107 1.943 . S
O100 Zn99 1.962 . S
O100 C105 1.254 . S
O101 Zn98 2.031 . S
O101 C105 1.269 . S
O102 Zn99 1.986 . S
O102 C109 1.262 . S
O103 Zn98 2.049 . S
O103 C111 1.260 . S
O104 Zn99 1.996 . S
O104 C111 1.257 . S
C105 O100 1.254 . S
C105 O101 1.269 . S
C106 O107 1.249 . S
C106 O108 1.270 . S
O107 Zn99 1.943 . S
O107 C106 1.249 . S
O108 Zn98 2.067 . S
O108 C106 1.270 . S
C109 O102 1.262 . S
C109 O110 1.232 . S
O110 C109 1.232 . S
C111 O103 1.260 . S
C111 O104 1.257 . S
Zn112 O115 2.031 . S
Zn112 O117 2.049 . S
Zn112 O122 2.067 . S
Zn113 O114 1.962 . S
Zn113 O116 1.986 . S
Zn113 O118 1.996 . S
Zn113 O121 1.943 . S
O114 Zn113 1.962 . S
O114 C119 1.254 . S
O115 Zn112 2.031 . S
O115 C119 1.269 . S
O116 Zn113 1.986 . S
O116 C123 1.262 . S
O117 Zn112 2.049 . S
O117 C125 1.260 . S
O118 Zn113 1.996 . S
O118 C125 1.257 . S
C119 O114 1.254 . S
C119 O115 1.269 . S
C120 O121 1.249 . S
C120 O122 1.270 . S
O121 Zn113 1.943 . S
O121 C120 1.249 . S
O122 Zn112 2.067 . S
O122 C120 1.270 . S
C123 O116 1.262 . S
C123 O124 1.232 . S
O124 C123 1.232 . S
C125 O117 1.260 . S
C125 O118 1.257 . S
Zn126 O129 2.031 . S
Zn126 O131 2.049 . S
Zn126 O136 2.067 . S
Zn127 O128 1.962 . S
Zn127 O130 1.986 . S
Zn127 O132 1.996 . S
Zn127 O135 1.943 . S
O128 Zn127 1.962 . S
O128 C133 1.254 . S
O129 Zn126 2.031 . S
O129 C133 1.269 . S
O130 Zn127 1.986 . S
O130 C137 1.262 . S
O131 Zn126 2.049 . S
O131 C139 1.260 . S
O132 Zn127 1.996 . S
O132 C139 1.257 . S
C133 O128 1.254 . S
C133 O129 1.269 . S
C134 O135 1.249 . S
C134 O136 1.270 . S
O135 Zn127 1.943 . S
O135 C134 1.249 . S
O136 Zn126 2.067 . S
O136 C134 1.270 . S
C137 O130 1.262 . S
C137 O138 1.232 . S
O138 C137 1.232 . S
C139 O131 1.260 . S
C139 O132 1.257 . S
Zn140 O143 2.031 . S
Zn140 O145 2.049 . S
Zn140 O150 2.067 . S
Zn141 O142 1.962 . S
Zn141 O144 1.986 . S
Zn141 O146 1.996 . S
Zn141 O149 1.943 . S
O142 Zn141 1.962 . S
O142 C147 1.254 . S
O143 Zn140 2.031 . S
O143 C147 1.269 . S
O144 Zn141 1.986 . S
O144 C151 1.262 . S
O145 Zn140 2.049 . S
O145 C153 1.260 . S
O146 Zn141 1.996 . S
O146 C153 1.257 . S
C147 O142 1.254 . S
C147 O143 1.269 . S
C148 O149 1.249 . S
C148 O150 1.270 . S
O149 Zn141 1.943 . S
O149 C148 1.249 . S
O150 Zn140 2.067 . S
O150 C148 1.270 . S
C151 O144 1.262 . S
C151 O152 1.232 . S
O152 C151 1.232 . S
C153 O145 1.260 . S
C153 O146 1.257 . S
Zn154 O157 2.031 . S
Zn154 O159 2.049 . S
Zn154 O164 2.067 . S
Zn155 O156 1.962 . S
Zn155 O158 1.986 . S
Zn155 O160 1.996 . S
Zn155 O163 1.943 . S
O156 Zn155 1.962 . S
O156 C161 1.254 . S
O157 Zn154 2.031 . S
O157 C161 1.269 . S
O158 Zn155 1.986 . S
O158 C165 1.262 . S
O159 Zn154 2.049 . S
O159 C167 1.260 . S
O160 Zn155 1.996 . S
O160 C167 1.257 . S
C161 O156 1.254 . S
C161 O157 1.269 . S
C162 O163 1.249 . S
C162 O164 1.270 . S
O163 Zn155 1.943 . S
O163 C162 1.249 . S
O164 Zn154 2.067 . S
O164 C162 1.270 . S
C165 O158 1.262 . S
C165 O166 1.232 . S
O166 C165 1.232 . S
C167 O159 1.260 . S
C167 O160 1.257 . S
Zn168 O171 2.031 . S
Zn168 O173 2.049 . S
Zn168 O178 2.067 . S
Zn169 O170 1.962 . S
Zn169 O172 1.986 . S
Zn169 O174 1.996 . S
Zn169 O177 1.943 . S
O170 Zn169 1.962 . S
O170 C175 1.254 . S
O171 Zn168 2.031 . S
O171 C175 1.269 . S
O172 Zn169 1.986 . S
O172 C179 1.262 . S
O173 Zn168 2.049 . S
O173 C181 1.260 . S
O174 Zn169 1.996 . S
O174 C181 1.257 . S
C175 O170 1.254 . S
C175 O171 1.269 . S
C176 O177 1.249 . S
C176 O178 1.270 . S
O177 Zn169 1.943 . S
O177 C176 1.249 . S
O178 Zn168 2.067 . S
O178 C176 1.270 . S
C179 O172 1.262 . S
C179 O180 1.232 . S
O180 C179 1.232 . S
C181 O173 1.260 . S
C181 O174 1.257 . S
Zn182 O185 2.031 . S
Zn182 O187 2.049 . S
Zn182 O192 2.067 . S
Zn183 O184 1.962 . S
Zn183 O186 1.986 . S
Zn183 O188 1.996 . S
Zn183 O191 1.943 . S
O184 Zn183 1.962 . S
O184 C189 1.254 . S
O185 Zn182 2.031 . S
O185 C189 1.269 . S
O186 Zn183 1.986 . S
O186 C193 1.262 . S
O187 Zn182 2.049 . S
O187 C195 1.260 . S
O188 Zn183 1.996 . S
O188 C195 1.257 . S
C189 O184 1.254 . S
C189 O185 1.269 . S
C190 O191 1.249 . S
C190 O192 1.270 . S
O191 Zn183 1.943 . S
O191 C190 1.249 . S
O192 Zn182 2.067 . S
O192 C190 1.270 . S
C193 O186 1.262 . S
C193 O194 1.232 . S
O194 C193 1.232 . S
C195 O187 1.260 . S
C195 O188 1.257 . S
Zn196 O199 2.031 . S
Zn196 O201 2.049 . S
Zn196 O206 2.067 . S
Zn197 O198 1.962 . S
Zn197 O200 1.986 . S
Zn197 O202 1.996 . S
Zn197 O205 1.943 . S
O198 Zn197 1.962 . S
O198 C203 1.254 . S
O199 Zn196 2.031 . S
O199 C203 1.269 . S
O200 Zn197 1.986 . S
O200 C207 1.262 . S
O201 Zn196 2.049 . S
O201 C209 1.260 . S
O202 Zn197 1.996 . S
O202 C209 1.257 . S
C203 O198 1.254 . S
C203 O199 1.269 . S
C204 O205 1.249 . S
C204 O206 1.270 . S
O205 Zn197 1.943 . S
O205 C204 1.249 . S
O206 Zn196 2.067 . S
O206 C204 1.270 . S
C207 O200 1.262 . S
C207 O208 1.232 . S
O208 C207 1.232 . S
C209 O201 1.260 . S
C209 O202 1.257 . S
Zn210 O213 2.031 . S
Zn210 O215 2.049 . S
Zn210 O220 2.067 . S
Zn211 O212 1.962 . S
Zn211 O214 1.986 . S
Zn211 O216 1.996 . S
Zn211 O219 1.943 . S
O212 Zn211 1.962 . S
O212 C217 1.254 . S
O213 Zn210 2.031 . S
O213 C217 1.269 . S
O214 Zn211 1.986 . S
O214 C221 1.262 . S
O215 Zn210 2.049 . S
O215 C223 1.260 . S
O216 Zn211 1.996 . S
O216 C223 1.257 . S
C217 O212 1.254 . S
C217 O213 1.269 . S
C218 O219 1.249 . S
C218 O220 1.270 . S
O219 Zn211 1.943 . S
O219 C218 1.249 . S
O220 Zn210 2.067 . S
O220 C218 1.270 . S
C221 O214 1.262 . S
C221 O222 1.232 . S
O222 C221 1.232 . S
C223 O215 1.260 . S
C223 O216 1.257 . S
Zn224 O227 2.031 . S
Zn224 O229 2.049 . S
Zn224 O234 2.067 . S
Zn225 O226 1.962 . S
Zn225 O228 1.986 . S
Zn225 O230 1.996 . S
Zn225 O233 1.943 . S
O226 Zn225 1.962 . S
O226 C231 1.254 . S
O227 Zn224 2.031 . S
O227 C231 1.269 . S
O228 Zn225 1.986 . S
O228 C235 1.262 . S
O229 Zn224 2.049 . S
O229 C237 1.260 . S
O230 Zn225 1.996 . S
O230 C237 1.257 . S
C231 O226 1.254 . S
C231 O227 1.269 . S
C232 O233 1.249 . S
C232 O234 1.270 . S
O233 Zn225 1.943 . S
O233 C232 1.249 . S
O234 Zn224 2.067 . S
O234 C232 1.270 . S
C235 O228 1.262 . S
C235 O236 1.232 . S
O236 C235 1.232 . S
C237 O229 1.260 . S
C237 O230 1.257 . S
Zn238 O241 2.031 . S
Zn238 O243 2.049 . S
Zn238 O248 2.067 . S
Zn239 O240 1.962 . S
Zn239 O242 1.986 . S
Zn239 O244 1.996 . S
Zn239 O247 1.943 . S
O240 Zn239 1.962 . S
O240 C245 1.254 . S
O241 Zn238 2.031 . S
O241 C245 1.269 . S
O242 Zn239 1.986 . S
O242 C249 1.262 . S
O243 Zn238 2.049 . S
O243 C251 1.260 . S
O244 Zn239 1.996 . S
O244 C251 1.257 . S
C245 O240 1.254 . S
C245 O241 1.269 . S
C246 O247 1.249 . S
C246 O248 1.270 . S
O247 Zn239 1.943 . S
O247 C246 1.249 . S
O248 Zn238 2.067 . S
O248 C246 1.270 . S
C249 O242 1.262 . S
C249 O250 1.232 . S
O250 C249 1.232 . S
C251 O243 1.260 . S
C251 O244 1.257 . S
Zn252 O255 2.031 . S
Zn252 O257 2.049 . S
Zn252 O262 2.067 . S
Zn253 O254 1.962 . S
Zn253 O256 1.986 . S
Zn253 O258 1.996 . S
Zn253 O261 1.943 . S
O254 Zn253 1.962 . S
O254 C259 1.254 . S
O255 Zn252 2.031 . S
O255 C259 1.269 . S
O256 Zn253 1.986 . S
O256 C263 1.262 . S
O257 Zn252 2.049 . S
O257 C265 1.260 . S
O258 Zn253 1.996 . S
O258 C265 1.257 . S
C259 O254 1.254 . S
C259 O255 1.269 . S
C260 O261 1.249 . S
C260 O262 1.270 . S
O261 Zn253 1.943 . S
O261 C260 1.249 . S
O262 Zn252 2.067 . S
O262 C260 1.270 . S
C263 O256 1.262 . S
C263 O264 1.232 . S
O264 C263 1.232 . S
C265 O257 1.260 . S
C265 O258 1.257 . S
Zn266 O269 2.031 . S
Zn266 O271 2.049 . S
Zn266 O276 2.067 . S
Zn267 O268 1.962 . S
Zn267 O270 1.986 . S
Zn267 O272 1.996 . S
Zn267 O275 1.943 . S
O268 Zn267 1.962 . S
O268 C273 1.254 . S
O269 Zn266 2.031 . S
O269 C273 1.269 . S
O270 Zn267 1.986 . S
O270 C277 1.262 . S
O271 Zn266 2.049 . S
O271 C279 1.260 . S
O272 Zn267 1.996 . S
O272 C279 1.257 . S
C273 O268 1.254 . S
C273 O269 1.269 . S
C274 O275 1.249 . S
C274 O276 1.270 . S
O275 Zn267 1.943 . S
O275 C274 1.249 . S
O276 Zn266 2.067 . S
O276 C274 1.270 . S
C277 O270 1.262 . S
C277 O278 1.232 . S
O278 C277 1.232 . S
C279 O271 1.260 . S
C279 O272 1.257 . S
Zn280 O283 2.031 . S
Zn280 O285 2.049 . S
Zn280 O290 2.067 . S
Zn281 O282 1.962 . S
Zn281 O284 1.986 . S
Zn281 O286 1.996 . S
Zn281 O289 1.943 . S
O282 Zn281 1.962 . S
O282 C287 1.254 . S
O283 Zn280 2.031 . S
O283 C287 1.269 . S
O284 Zn281 1.986 . S
O284 C291 1.262 . S
O285 Zn280 2.049 . S
O285 C293 1.260 . S
O286 Zn281 1.996 . S
O286 C293 1.257 . S
C287 O282 1.254 . S
C287 O283 1.269 . S
C288 O289 1.249 . S
C288 O290 1.270 . S
O289 Zn281 1.943 . S
O289 C288 1.249 . S
O290 Zn280 2.067 . S
O290 C288 1.270 . S
C291 O284 1.262 . S
C291 O292 1.232 . S
O292 C291 1.232 . S
C293 O285 1.260 . S
C293 O286 1.257 . S
Zn294 O297 2.031 . S
Zn294 O299 2.049 . S
Zn294 O304 2.067 . S
Zn295 O296 1.962 . S
Zn295 O298 1.986 . S
Zn295 O300 1.996 . S
Zn295 O303 1.943 . S
O296 Zn295 1.962 . S
O296 C301 1.254 . S
O297 Zn294 2.031 . S
O297 C301 1.269 . S
O298 Zn295 1.986 . S
O298 C305 1.262 . S
O299 Zn294 2.049 . S
O299 C307 1.260 . S
O300 Zn295 1.996 . S
O300 C307 1.257 . S
C301 O296 1.254 . S
C301 O297 1.269 . S
C302 O303 1.249 . S
C302 O304 1.270 . S
O303 Zn295 1.943 . S
O303 C302 1.249 . S
O304 Zn294 2.067 . S
O304 C302 1.270 . S
C305 O298 1.262 . S
C305 O306 1.232 . S
O306 C305 1.232 . S
C307 O299 1.260 . S
C307 O300 1.257 . S
Zn308 O311 2.031 . S
Zn308 O313 2.049 . S
Zn308 O318 2.067 . S
Zn309 O310 1.962 . S
Zn309 O312 1.986 . S
Zn309 O314 1.996 . S
Zn309 O317 1.943 . S
O310 Zn309 1.962 . S
O310 C315 1.254 . S
O311 Zn308 2.031 . S
O311 C315 1.269 . S
O312 Zn309 1.986 . S
O312 C319 1.262 . S
O313 Zn308 2.049 . S
O313 C321 1.260 . S
O314 Zn309 1.996 . S
O314 C321 1.257 . S
C315 O310 1.254 . S
C315 O311 1.269 . S
C316 O317 1.249 . S
C316 O318 1.270 . S
O317 Zn309 1.943 . S
O317 C316 1.249 . S
O318 Zn308 2.067 . S
O318 C316 1.270 . S
C319 O312 1.262 . S
C319 O320 1.232 . S
O320 C319 1.232 . S
C321 O313 1.260 . S
C321 O314 1.257 . S
Zn322 O325 2.031 . S
Zn322 O327 2.049 . S
Zn322 O332 2.067 . S
Zn323 O324 1.962 . S
Zn323 O326 1.986 . S
Zn323 O328 1.996 . S
Zn323 O331 1.943 . S
O324 Zn323 1.962 . S
O324 C329 1.254 . S
O325 Zn322 2.031 . S
O325 C329 1.269 . S
O326 Zn323 1.986 . S
O326 C333 1.262 . S
O327 Zn322 2.049 . S
O327 C335 1.260 . S
O328 Zn323 1.996 . S
O328 C335 1.257 . S
C329 O324 1.254 . S
C329 O325 1.269 . S
C330 O331 1.249 . S
C330 O332 1.270 . S
O331 Zn323 1.943 . S
O331 C330 1.249 . S
O332 Zn322 2.067 . S
O332 C330 1.270 . S
C333 O326 1.262 . S
C333 O334 1.232 . S
O334 C333 1.232 . S
C335 O327 1.260 . S
C335 O328 1.257 . S
Zn336 O339 2.031 . S
Zn336 O341 2.049 . S
Zn336 O346 2.067 . S
Zn337 O338 1.962 . S
Zn337 O340 1.986 . S
Zn337 O342 1.996 . S
Zn337 O345 1.943 . S
O338 Zn337 1.962 . S
O338 C343 1.254 . S
O339 Zn336 2.031 . S
O339 C343 1.269 . S
O340 Zn337 1.986 . S
O340 C347 1.262 . S
O341 Zn336 2.049 . S
O341 C349 1.260 . S
O342 Zn337 1.996 . S
O342 C349 1.257 . S
C343 O338 1.254 . S
C343 O339 1.269 . S
C344 O345 1.249 . S
C344 O346 1.270 . S
O345 Zn337 1.943 . S
O345 C344 1.249 . S
O346 Zn336 2.067 . S
O346 C344 1.270 . S
C347 O340 1.262 . S
C347 O348 1.232 . S
O348 C347 1.232 . S
C349 O341 1.260 . S
C349 O342 1.257 . S
Zn350 O353 2.031 . S
Zn350 O355 2.049 . S
Zn350 O360 2.067 . S
Zn351 O352 1.962 . S
Zn351 O354 1.986 . S
Zn351 O356 1.996 . S
Zn351 O359 1.943 . S
O352 Zn351 1.962 . S
O352 C357 1.254 . S
O353 Zn350 2.031 . S
O353 C357 1.269 . S
O354 Zn351 1.986 . S
O354 C361 1.262 . S
O355 Zn350 2.049 . S
O355 C363 1.260 . S
O356 Zn351 1.996 . S
O356 C363 1.257 . S
C357 O352 1.254 . S
C357 O353 1.269 . S
C358 O359 1.249 . S
C358 O360 1.270 . S
O359 Zn351 1.943 . S
O359 C358 1.249 . S
O360 Zn350 2.067 . S
O360 C358 1.270 . S
C361 O354 1.262 . S
C361 O362 1.232 . S
O362 C361 1.232 . S
C363 O355 1.260 . S
C363 O356 1.257 . S
Zn364 O367 2.031 . S
Zn364 O369 2.049 . S
Zn364 O374 2.067 . S
Zn365 O366 1.962 . S
Zn365 O368 1.986 . S
Zn365 O370 1.996 . S
Zn365 O373 1.943 . S
O366 Zn365 1.962 . S
O366 C371 1.254 . S
O367 Zn364 2.031 . S
O367 C371 1.269 . S
O368 Zn365 1.986 . S
O368 C375 1.262 . S
O369 Zn364 2.049 . S
O369 C377 1.260 . S
O370 Zn365 1.996 . S
O370 C377 1.257 . S
C371 O366 1.254 . S
C371 O367 1.269 . S
C372 O373 1.249 . S
C372 O374 1.270 . S
O373 Zn365 1.943 . S
O373 C372 1.249 . S
O374 Zn364 2.067 . S
O374 C372 1.270 . S
C375 O368 1.262 . S
C375 O376 1.232 . S
O376 C375 1.232 . S
C377 O369 1.260 . S
C377 O370 1.257 . S
Zn378 O381 2.031 . S
Zn378 O383 2.049 . S
Zn378 O388 2.067 . S
Zn379 O380 1.962 . S
Zn379 O382 1.986 . S
Zn379 O384 1.996 . S
Zn379 O387 1.943 . S
O380 Zn379 1.962 . S
O380 C385 1.254 . S
O381 Zn378 2.031 . S
O381 C385 1.269 . S
O382 Zn379 1.986 . S
O382 C389 1.262 . S
O383 Zn378 2.049 . S
O383 C391 1.260 . S
O384 Zn379 1.996 . S
O384 C391 1.257 . S
C385 O380 1.254 . S
C385 O381 1.269 . S
C386 O387 1.249 . S
C386 O388 1.270 . S
O387 Zn379 1.943 . S
O387 C386 1.249 . S
O388 Zn378 2.067 . S
O388 C386 1.270 . S
C389 O382 1.262 . S
C389 O390 1.232 . S
O390 C389 1.232 . S
C391 O383 1.260 . S
C391 O384 1.257 . S
Zn392 O395 2.031 . S
Zn392 O397 2.049 . S
Zn392 O402 2.067 . S
Zn393 O394 1.962 . S
Zn393 O396 1.986 . S
Zn393 O398 1.996 . S
Zn393 O401 1.943 . S
O394 Zn393 1.962 . S
O394 C399 1.254 . S
O395 Zn392 2.031 . S
O395 C399 1.269 . S
O396 Zn393 1.986 . S
O396 C403 1.262 . S
O397 Zn392 2.049 . S
O397 C405 1.260 . S
O398 Zn393 1.996 . S
O398 C405 1.257 . S
C399 O394 1.254 . S
C399 O395 1.269 . S
C400 O401 1.249 . S
C400 O402 1.270 . S
O401 Zn393 1.943 . S
O401 C400 1.249 . S
O402 Zn392 2.067 . S
O402 C400 1.270 . S
C403 O396 1.262 . S
C403 O404 1.232 . S
O404 C403 1.232 . S
C405 O397 1.260 . S
C405 O398 1.257 . S
Zn406 O409 2.031 . S
Zn406 O411 2.049 . S
Zn406 O416 2.067 . S
Zn407 O408 1.962 . S
Zn407 O410 1.986 . S
Zn407 O412 1.996 . S
Zn407 O415 1.943 . S
O408 Zn407 1.962 . S
O408 C413 1.254 . S
O409 Zn406 2.031 . S
O409 C413 1.269 . S
O410 Zn407 1.986 . S
O410 C417 1.262 . S
O411 Zn406 2.049 . S
O411 C419 1.260 . S
O412 Zn407 1.996 . S
O412 C419 1.257 . S
C413 O408 1.254 . S
C413 O409 1.269 . S
C414 O415 1.249 . S
C414 O416 1.270 . S
O415 Zn407 1.943 . S
O415 C414 1.249 . S
O416 Zn406 2.067 . S
O416 C414 1.270 . S
C417 O410 1.262 . S
C417 O418 1.232 . S
O418 C417 1.232 . S
C419 O411 1.260 . S
C419 O412 1.257 . S
Zn420 O423 2.031 . S
Zn420 O425 2.049 . S
Zn420 O430 2.067 . S
Zn421 O422 1.962 . S
Zn421 O424 1.986 . S
Zn421 O426 1.996 . S
Zn421 O429 1.943 . S
O422 Zn421 1.962 . S
O422 C427 1.254 . S
O423 Zn420 2.031 . S
O423 C427 1.269 . S
O424 Zn421 1.986 . S
O424 C431 1.262 . S
O425 Zn420 2.049 . S
O425 C433 1.260 . S
O426 Zn421 1.996 . S
O426 C433 1.257 . S
C427 O422 1.254 . S
C427 O423 1.269 . S
C428 O429 1.249 . S
C428 O430 1.270 . S
O429 Zn421 1.943 . S
O429 C428 1.249 . S
O430 Zn420 2.067 . S
O430 C428 1.270 . S
C431 O424 1.262 . S
C431 O432 1.232 . S
O432 C431 1.232 . S
C433 O425 1.260 . S
C433 O426 1.257 . S
Zn434 O437 2.031 . S
Zn434 O439 2.049 . S
Zn434 O444 2.067 . S
Zn435 O436 1.962 . S
Zn435 O438 1.986 . S
Zn435 O440 1.996 . S
Zn435 O443 1.943 . S
O436 Zn435 1.962 . S
O436 C441 1.254 . S
O437 Zn434 2.031 . S
O437 C441 1.269 . S
O438 Zn435 1.986 . S
O438 C445 1.262 . S
O439 Zn434 2.049 . S
O439 C447 1.260 . S
O440 Zn435 1.996 . S
O440 C447 1.257 . S
C441 O436 1.254 . S
C441 O437 1.269 . S
C442 O443 1.249 . S
C442 O444 1.270 . S
O443 Zn435 1.943 . S
O443 C442 1.249 . S
O444 Zn434 2.067 . S
O444 C442 1.270 . S
C445 O438 1.262 . S
C445 O446 1.232 . S
O446 C445 1.232 . S
C447 O439 1.260 . S
C447 O440 1.257 . S
Zn448 O451 2.031 . S
Zn448 O453 2.049 . S
Zn448 O458 2.067 . S
Zn449 O450 1.962 . S
Zn449 O452 1.986 . S
Zn449 O454 1.996 . S
Zn449 O457 1.943 . S
O450 Zn449 1.962 . S
O450 C455 1.254 . S
O451 Zn448 2.031 . S
O451 C455 1.269 . S
O452 Zn449 1.986 . S
O452 C459 1.262 . S
O453 Zn448 2.049 . S
O453 C461 1.260 . S
O454 Zn449 1.996 . S
O454 C461 1.257 . S
C455 O450 1.254 . S
C455 O451 1.269 . S
C456 O457 1.249 . S
C456 O458 1.270 . S
O457 Zn449 1.943 . S
O457 C456 1.249 . S
O458 Zn448 2.067 . S
O458 C456 1.270 . S
C459 O452 1.262 . S
C459 O460 1.232 . S
O460 C459 1.232 . S
C461 O453 1.260 . S
C461 O454 1.257 . S
Zn462 O465 2.031 . S
Zn462 O467 2.049 . S
Zn462 O472 2.067 . S
Zn463 O464 1.962 . S
Zn463 O466 1.986 . S
Zn463 O468 1.996 . S
Zn463 O471 1.943 . S
O464 Zn463 1.962 . S
O464 C469 1.254 . S
O465 Zn462 2.031 . S
O465 C469 1.269 . S
O466 Zn463 1.986 . S
O466 C473 1.262 . S
O467 Zn462 2.049 . S
O467 C475 1.260 . S
O468 Zn463 1.996 . S
O468 C475 1.257 . S
C469 O464 1.254 . S
C469 O465 1.269 . S
C470 O471 1.249 . S
C470 O472 1.270 . S
O471 Zn463 1.943 . S
O471 C470 1.249 . S
O472 Zn462 2.067 . S
O472 C470 1.270 . S
C473 O466 1.262 . S
C473 O474 1.232 . S
O474 C473 1.232 . S
C475 O467 1.260 . S
C475 O468 1.257 . S
Zn476 O479 2.031 . S
Zn476 O481 2.049 . S
Zn476 O486 2.067 . S
Zn477 O478 1.962 . S
Zn477 O480 1.986 . S
Zn477 O482 1.996 . S
Zn477 O485 1.943 . S
O478 Zn477 1.962 . S
O478 C483 1.254 . S
O479 Zn476 2.031 . S
O479 C483 1.269 . S
O480 Zn477 1.986 . S
O480 C487 1.262 . S
O481 Zn476 2.049 . S
O481 C489 1.260 . S
O482 Zn477 1.996 . S
O482 C489 1.257 . S
C483 O478 1.254 . S
C483 O479 1.269 . S
C484 O485 1.249 . S
C484 O486 1.270 . S
O485 Zn477 1.943 . S
O485 C484 1.249 . S
O486 Zn476 2.067 . S
O486 C484 1.270 . S
C487 O480 1.262 . S
C487 O488 1.232 . S
O488 C487 1.232 . S
C489 O481 1.260 . S
C489 O482 1.257 . S
Zn490 O493 2.031 . S
Zn490 O495 2.049 . S
Zn490 O500 2.067 . S
Zn491 O492 1.962 . S
Zn491 O494 1.986 . S
Zn491 O496 1.996 . S
Zn491 O499 1.943 . S
O492 Zn491 1.962 . S
O492 C497 1.254 . S
O493 Zn490 2.031 . S
O493 C497 1.269 . S
O494 Zn491 1.986 . S
O494 C501 1.262 . S
O495 Zn490 2.049 . S
O495 C503 1.260 . S
O496 Zn491 1.996 . S
O496 C503 1.257 . S
C497 O492 1.254 . S
C497 O493 1.269 . S
C498 O499 1.249 . S
C498 O500 1.270 . S
O499 Zn491 1.943 . S
O499 C498 1.249 . S
O500 Zn490 2.067 . S
O500 C498 1.270 . S
C501 O494 1.262 . S
C501 O502 1.232 . S
O502 C501 1.232 . S
C503 O495 1.260 . S
C503 O496 1.257 . S
Zn504 O507 2.031 . S
Zn504 O509 2.049 . S
Zn504 O514 2.067 . S
Zn505 O506 1.962 . S
Zn505 O508 1.986 . S
Zn505 O510 1.996 . S
Zn505 O513 1.943 . S
O506 Zn505 1.962 . S
O506 C511 1.254 . S
O507 Zn504 2.031 . S
O507 C511 1.269 . S
O508 Zn505 1.986 . S
O508 C515 1.262 . S
O509 Zn504 2.049 . S
O509 C517 1.260 . S
O510 Zn505 1.996 . S
O510 C517 1.257 . S
C511 O506 1.254 . S
C511 O507 1.269 . S
C512 O513 1.249 . S
C512 O514 1.270 . S
O513 Zn505 1.943 . S
O513 C512 1.249 . S
O514 Zn504 2.067 . S
O514 C512 1.270 . S
C515 O508 1.262 . S
C515 O516 1.232 . S
O516 C515 1.232 . S
C517 O509 1.260 . S
C517 O510 1.257 . S
Zn518 O521 2.031 . S
Zn518 O523 2.049 . S
Zn518 O528 2.067 . S
Zn519 O520 1.962 . S
Zn519 O522 1.986 . S
Zn519 O524 1.996 . S
Zn519 O527 1.943 . S
O520 Zn519 1.962 . S
O520 C525 1.254 . S
O521 Zn518 2.031 . S
O521 C525 1.269 . S
O522 Zn519 1.986 . S
O522 C529 1.262 . S
O523 Zn518 2.049 . S
O523 C531 1.260 . S
O524 Zn519 1.996 . S
O524 C531 1.257 . S
C525 O520 1.254 . S
C525 O521 1.269 . S
C526 O527 1.249 . S
C526 O528 1.270 . S
O527 Zn519 1.943 . S
O527 C526 1.249 . S
O528 Zn518 2.067 . S
O528 C526 1.270 . S
C529 O522 1.262 . S
C529 O530 1.232 . S
O530 C529 1.232 . S
C531 O523 1.260 . S
C531 O524 1.257 . S
Zn532 O535 2.031 . S
Zn532 O537 2.049 . S
Zn532 O542 2.067 . S
Zn533 O534 1.962 . S
Zn533 O536 1.986 . S
Zn533 O538 1.996 . S
Zn533 O541 1.943 . S
O534 Zn533 1.962 . S
O534 C539 1.254 . S
O535 Zn532 2.031 . S
O535 C539 1.269 . S
O536 Zn533 1.986 . S
O536 C543 1.262 . S
O537 Zn532 2.049 . S
O537 C545 1.260 . S
O538 Zn533 1.996 . S
O538 C545 1.257 . S
C539 O534 1.254 . S
C539 O535 1.269 . S
C540 O541 1.249 . S
C540 O542 1.270 . S
O541 Zn533 1.943 . S
O541 C540 1.249 . S
O542 Zn532 2.067 . S
O542 C540 1.270 . S
C543 O536 1.262 . S
C543 O544 1.232 . S
O544 C543 1.232 . S
C545 O537 1.260 . S
C545 O538 1.257 . S
Zn546 O549 2.031 . S
Zn546 O551 2.049 . S
Zn546 O556 2.067 . S
Zn547 O548 1.962 . S
Zn547 O550 1.986 . S
Zn547 O552 1.996 . S
Zn547 O555 1.943 . S
O548 Zn547 1.962 . S
O548 C553 1.254 . S
O549 Zn546 2.031 . S
O549 C553 1.269 . S
O550 Zn547 1.986 . S
O550 C557 1.262 . S
O551 Zn546 2.049 . S
O551 C559 1.260 . S
O552 Zn547 1.996 . S
O552 C559 1.257 . S
C553 O548 1.254 . S
C553 O549 1.269 . S
C554 O555 1.249 . S
C554 O556 1.270 . S
O555 Zn547 1.943 . S
O555 C554 1.249 . S
O556 Zn546 2.067 . S
O556 C554 1.270 . S
C557 O550 1.262 . S
C557 O558 1.232 . S
O558 C557 1.232 . S
C559 O551 1.260 . S
C559 O552 1.257 . S
Zn560 O563 2.031 . S
Zn560 O565 2.049 . S
Zn560 O570 2.067 . S
Zn561 O562 1.962 . S
Zn561 O564 1.986 . S
Zn561 O566 1.996 . S
Zn561 O569 1.943 . S
O562 Zn561 1.962 . S
O562 C567 1.254 . S
O563 Zn560 2.031 . S
O563 C567 1.269 . S
O564 Zn561 1.986 . S
O564 C571 1.262 . S
O565 Zn560 2.049 . S
O565 C573 1.260 . S
O566 Zn561 1.996 . S
O566 C573 1.257 . S
C567 O562 1.254 . S
C567 O563 1.269 . S
C568 O569 1.249 . S
C568 O570 1.270 . S
O569 Zn561 1.943 . S
O569 C568 1.249 . S
O570 Zn560 2.067 . S
O570 C568 1.270 . S
C571 O564 1.262 . S
C571 O572 1.232 . S
O572 C571 1.232 . S
C573 O565 1.260 . S
C573 O566 1.257 . S
Zn574 O577 2.031 . S
Zn574 O579 2.049 . S
Zn574 O584 2.067 . S
Zn575 O576 1.962 . S
Zn575 O578 1.986 . S
Zn575 O580 1.996 . S
Zn575 O583 1.943 . S
O576 Zn575 1.962 . S
O576 C581 1.254 . S
O577 Zn574 2.031 . S
O577 C581 1.269 . S
O578 Zn575 1.986 . S
O578 C585 1.262 . S
O579 Zn574 2.049 . S
O579 C587 1.260 . S
O580 Zn575 1.996 . S
O580 C587 1.257 . S
C581 O576 1.254 . S
C581 O577 1.269 . S
C582 O583 1.249 . S
C582 O584 1.270 . S
O583 Zn575 1.943 . S
O583 C582 1.249 . S
O584 Zn574 2.067 . S
O584 C582 1.270 . S
C585 O578 1.262 . S
C585 O586 1.232 . S
O586 C585 1.232 . S
C587 O579 1.260 . S
C587 O580 1.257 . S
Zn588 O591 2.031 . S
Zn588 O593 2.049 . S
Zn588 O598 2.067 . S
Zn589 O590 1.962 . S
Zn589 O592 1.986 . S
Zn589 O594 1.996 . S
Zn589 O597 1.943 . S
O590 Zn589 1.962 . S
O590 C595 1.254 . S
O591 Zn588 2.031 . S
O591 C595 1.269 . S
O592 Zn589 1.986 . S
O592 C599 1.262 . S
O593 Zn588 2.049 . S
O593 C601 1.260 . S
O594 Zn589 1.996 . S
O594 C601 1.257 . S
C595 O590 1.254 . S
C595 O591 1.269 . S
C596 O597 1.249 . S
C596 O598 1.270 . S
O597 Zn589 1.943 . S
O597 C596 1.249 . S
O598 Zn588 2.067 . S
O598 C596 1.270 . S
C599 O592 1.262 . S
C599 O600 1.232 . S
O600 C599 1.232 . S
C601 O593 1.260 . S
C601 O594 1.257 . S
Zn602 O605 2.031 . S
Zn602 O607 2.049 . S
Zn602 O612 2.067 . S
Zn603 O604 1.962 . S
Zn603 O606 1.986 . S
Zn603 O608 1.996 . S
Zn603 O611 1.943 . S
O604 Zn603 1.962 . S
O604 C609 1.254 . S
O605 Zn602 2.031 . S
O605 C609 1.269 . S
O606 Zn603 1.986 . S
O606 C613 1.262 . S
O607 Zn602 2.049 . S
O607 C615 1.260 . S
O608 Zn603 1.996 . S
O608 C615 1.257 . S
C609 O604 1.254 . S
C609 O605 1.269 . S
C610 O611 1.249 . S
C610 O612 1.270 . S
O611 Zn603 1.943 . S
O611 C610 1.249 . S
O612 Zn602 2.067 . S
O612 C610 1.270 . S
C613 O606 1.262 . S
C613 O614 1.232 . S
O614 C613 1.232 . S
C615 O607 1.260 . S
C615 O608 1.257 . S
Zn616 O619 2.031 . S
Zn616 O621 2.049 . S
Zn616 O626 2.067 . S
Zn617 O618 1.962 . S
Zn617 O620 1.986 . S
Zn617 O622 1.996 . S
Zn617 O625 1.943 . S
O618 Zn617 1.962 . S
O618 C623 1.254 . S
O619 Zn616 2.031 . S
O619 C623 1.269 . S
O620 Zn617 1.986 . S
O620 C627 1.262 . S
O621 Zn616 2.049 . S
O621 C629 1.260 . S
O622 Zn617 1.996 . S
O622 C629 1.257 . S
C623 O618 1.254 . S
C623 O619 1.269 . S
C624 O625 1.249 . S
C624 O626 1.270 . S
O625 Zn617 1.943 . S
O625 C624 1.249 . S
O626 Zn616 2.067 . S
O626 C624 1.270 . S
C627 O620 1.262 . S
C627 O628 1.232 . S
O628 C627 1.232 . S
C629 O621 1.260 . S
C629 O622 1.257 . S
Zn630 O633 2.031 . S
Zn630 O635 2.049 . S
Zn630 O640 2.067 . S
Zn631 O632 1.962 . S
Zn631 O634 1.986 . S
Zn631 O636 1.996 . S
Zn631 O639 1.943 . S
O632 Zn631 1.962 . S
O632 C637 1.254 . S
O633 Zn630 2.031 . S
O633 C637 1.269 . S
O634 Zn631 1.986 . S
O634 C641 1.262 . S
O635 Zn630 2.049 . S
O635 C643 1.260 . S
O636 Zn631 1.996 . S
O636 C643 1.257 . S
C637 O632 1.254 . S
C637 O633 1.269 . S
C638 O639 1.249 . S
C638 O640 1.270 . S
O639 Zn631 1.943 . S
O639 C638 1.249 . S
O640 Zn630 2.067 . S
O640 C638 1.270 . S
C641 O634 1.262 . S
C641 O642 1.232 . S
O642 C641 1.232 . S
C643 O635 1.260 . S
C643 O636 1.257 . S
Zn644 O647 2.031 . S
Zn644 O649 2.049 . S
Zn644 O654 2.067 . S
Zn645 O646 1.962 . S
Zn645 O648 1.986 . S
Zn645 O650 1.996 . S
Zn645 O653 1.943 . S
O646 Zn645 1.962 . S
O646 C651 1.254 . S
O647 Zn644 2.031 . S
O647 C651 1.269 . S
O648 Zn645 1.986 . S
O648 C655 1.262 . S
O649 Zn644 2.049 . S
O649 C657 1.260 . S
O650 Zn645 1.996 . S
O650 C657 1.257 . S
C651 O646 1.254 . S
C651 O647 1.269 . S
C652 O653 1.249 . S
C652 O654 1.270 . S
O653 Zn645 1.943 . S
O653 C652 1.249 . S
O654 Zn644 2.067 . S
O654 C652 1.270 . S
C655 O648 1.262 . S
C655 O656 1.232 . S
O656 C655 1.232 . S
C657 O649 1.260 . S
C657 O650 1.257 . S
Zn658 O661 2.031 . S
Zn658 O663 2.049 . S
Zn658 O668 2.067 . S
Zn659 O660 1.962 . S
Zn659 O662 1.986 . S
Zn659 O664 1.996 . S
Zn659 O667 1.943 . S
O660 Zn659 1.962 . S
O660 C665 1.254 . S
O661 Zn658 2.031 . S
O661 C665 1.269 . S
O662 Zn659 1.986 . S
O662 C669 1.262 . S
O663 Zn658 2.049 . S
O663 C671 1.260 . S
O664 Zn659 1.996 . S
O664 C671 1.257 . S
C665 O660 1.254 . S
C665 O661 1.269 . S
C666 O667 1.249 . S
C666 O668 1.270 . S
O667 Zn659 1.943 . S
O667 C666 1.249 . S
O668 Zn658 2.067 . S
O668 C666 1.270 . S
C669 O662 1.262 . S
C669 O670 1.232 . S
O670 C669 1.232 . S
C671 O663 1.260 . S
C671 O664 1.257 . S
Zn672 O675 2.031 . S
Zn672 O677 2.049 . S
Zn672 O682 2.067 . S
Zn673 O674 1.962 . S
Zn673 O676 1.986 . S
Zn673 O678 1.996 . S
Zn673 O681 1.943 . S
O674 Zn673 1.962 . S
O674 C679 1.254 . S
O675 Zn672 2.031 . S
O675 C679 1.269 . S
O676 Zn673 1.986 . S
O676 C683 1.262 . S
O677 Zn672 2.049 . S
O677 C685 1.260 . S
O678 Zn673 1.996 . S
O678 C685 1.257 . S
C679 O674 1.254 . S
C679 O675 1.269 . S
C680 O681 1.249 . S
C680 O682 1.270 . S
O681 Zn673 1.943 . S
O681 C680 1.249 . S
O682 Zn672 2.067 . S
O682 C680 1.270 . S
C683 O676 1.262 . S
C683 O684 1.232 . S
O684 C683 1.232 . S
C685 O677 1.260 . S
C685 O678 1.257 . S
Zn686 O689 2.031 . S
Zn686 O691 2.049 . S
Zn686 O696 2.067 . S
Zn687 O688 1.962 . S
Zn687 O690 1.986 . S
Zn687 O692 1.996 . S
Zn687 O695 1.943 . S
O688 Zn687 1.962 . S
O688 C693 1.254 . S
O689 Zn686 2.031 . S
O689 C693 1.269 . S
O690 Zn687 1.986 . S
O690 C697 1.262 . S
O691 Zn686 2.049 . S
O691 C699 1.260 . S
O692 Zn687 1.996 . S
O692 C699 1.257 . S
C693 O688 1.254 . S
C693 O689 1.269 . S
C694 O695 1.249 . S
C694 O696 1.270 . S
O695 Zn687 1.943 . S
O695 C694 1.249 . S
O696 Zn686 2.067 . S
O696 C694 1.270 . S
C697 O690 1.262 . S
C697 O698 1.232 . S
O698 C697 1.232 . S
C699 O691 1.260 . S
C699 O692 1.257 . S
Zn700 O703 2.031 . S
Zn700 O705 2.049 . S
Zn700 O710 2.067 . S
Zn701 O702 1.962 . S
Zn701 O704 1.986 . S
Zn701 O706 1.996 . S
Zn701 O709 1.943 . S
O702 Zn701 1.962 . S
O702 C707 1.254 . S
O703 Zn700 2.031 . S
O703 C707 1.269 . S
O704 Zn701 1.986 . S
O704 C711 1.262 . S
O705 Zn700 2.049 . S
O705 C713 1.260 . S
O706 Zn701 1.996 . S
O706 C713 1.257 . S
C707 O702 1.254 . S
C707 O703 1.269 . S
C708 O709 1.249 . S
C708 O710 1.270 . S
O709 Zn701 1.943 . S
O709 C708 1.249 . S
O710 Zn700 2.067 . S
O710 C708 1.270 . S
C711 O704 1.262 . S
C711 O712 1.232 . S
O712 C711 1.232 . S
C713 O705 1.260 . S
C713 O706 1.257 . S
Zn714 O717 2.031 . S
Zn714 O719 2.049 . S
Zn714 O724 2.067 . S
Zn715 O716 1.962 . S
Zn715 O718 1.986 . S
Zn715 O720 1.996 . S
Zn715 O723 1.943 . S
O716 Zn715 1.962 . S
O716 C721 1.254 . S
O717 Zn714 2.031 . S
O717 C721 1.269 . S
O718 Zn715 1.986 . S
O718 C725 1.262 . S
O719 Zn714 2.049 . S
O719 C727 1.260 . S
O720 Zn715 1.996 . S
O720 C727 1.257 . S
C721 O716 1.254 . S
C721 O717 1.269 . S
C722 O723 1.249 . S
C722 O724 1.270 . S
O723 Zn715 1.943 . S
O723 C722 1.249 . S
O724 Zn714 2.067 . S
O724 C722 1.270 . S
C725 O718 1.262 . S
C725 O726 1.232 . S
O726 C725 1.232 . S
C727 O719 1.260 . S
C727 O720 1.257 . S
Zn728 O731 2.031 . S
Zn728 O733 2.049 . S
Zn728 O738 2.067 . S
Zn729 O730 1.962 . S
Zn729 O732 1.986 . S
Zn729 O734 1.996 . S
Zn729 O737 1.943 . S
O730 Zn729 1.962 . S
O730 C735 1.254 . S
O731 Zn728 2.031 . S
O731 C735 1.269 . S
O732 Zn729 1.986 . S
O732 C739 1.262 . S
O733 Zn728 2.049 . S
O733 C741 1.260 . S
O734 Zn729 1.996 . S
O734 C741 1.257 . S
C735 O730 1.254 . S
C735 O731 1.269 . S
C736 O737 1.249 . S
C736 O738 1.270 . S
O737 Zn729 1.943 . S
O737 C736 1.249 . S
O738 Zn728 2.067 . S
O738 C736 1.270 . S
C739 O732 1.262 . S
C739 O740 1.232 . S
O740 C739 1.232 . S
C741 O733 1.260 . S
C741 O734 1.257 . S
Zn742 O745 2.031 . S
Zn742 O747 2.049 . S
Zn742 O752 2.067 . S
Zn743 O744 1.962 . S
Zn743 O746 1.986 . S
Zn743 O748 1.996 . S
Zn743 O751 1.943 . S
O744 Zn743 1.962 . S
O744 C749 1.254 . S
O745 Zn742 2.031 . S
O745 C749 1.269 . S
O746 Zn743 1.986 . S
O746 C753 1.262 . S
O747 Zn742 2.049 . S
O747 C755 1.260 . S
O748 Zn743 1.996 . S
O748 C755 1.257 . S
C749 O744 1.254 . S
C749 O745 1.269 . S
C750 O751 1.249 . S
C750 O752 1.270 . S
O751 Zn743 1.943 . S
O751 C750 1.249 . S
O752 Zn742 2.067 . S
O752 C750 1.270 . S
C753 O746 1.262 . S
C753 O754 1.232 . S
O754 C753 1.232 . S
C755 O747 1.260 . S
C755 O748 1.257 . S
Zn756 O759 2.031 . S
Zn756 O761 2.049 . S
Zn756 O766 2.067 . S
Zn757 O758 1.962 . S
Zn757 O760 1.986 . S
Zn757 O762 1.996 . S
Zn757 O765 1.943 . S
O758 Zn757 1.962 . S
O758 C763 1.254 . S
O759 Zn756 2.031 . S
O759 C763 1.269 . S
O760 Zn757 1.986 . S
O760 C767 1.262 . S
O761 Zn756 2.049 . S
O761 C769 1.260 . S
O762 Zn757 1.996 . S
O762 C769 1.257 . S
C763 O758 1.254 . S
C763 O759 1.269 . S
C764 O765 1.249 . S
C764 O766 1.270 . S
O765 Zn757 1.943 . S
O765 C764 1.249 . S
O766 Zn756 2.067 . S
O766 C764 1.270 . S
C767 O760 1.262 . S
C767 O768 1.232 . S
O768 C767 1.232 . S
C769 O761 1.260 . S
C769 O762 1.257 . S
Zn770 O773 2.031 . S
Zn770 O775 2.049 . S
Zn770 O780 2.067 . S
Zn771 O772 1.962 . S
Zn771 O774 1.986 . S
Zn771 O776 1.996 . S
Zn771 O779 1.943 . S
O772 Zn771 1.962 . S
O772 C777 1.254 . S
O773 Zn770 2.031 . S
O773 C777 1.269 . S
O774 Zn771 1.986 . S
O774 C781 1.262 . S
O775 Zn770 2.049 . S
O775 C783 1.260 . S
O776 Zn771 1.996 . S
O776 C783 1.257 . S
C777 O772 1.254 . S
C777 O773 1.269 . S
C778 O779 1.249 . S
C778 O780 1.270 . S
O779 Zn771 1.943 . S
O779 C778 1.249 . S
O780 Zn770 2.067 . S
O780 C778 1.270 . S
C781 O774 1.262 . S
C781 O782 1.232 . S
O782 C781 1.232 . S
C783 O775 1.260 . S
C783 O776 1.257 . S
Zn784 O787 2.031 . S
Zn784 O789 2.049 . S
Zn784 O794 2.067 . S
Zn785 O786 1.962 . S
Zn785 O788 1.986 . S
Zn785 O790 1.996 . S
Zn785 O793 1.943 . S
O786 Zn785 1.962 . S
O786 C791 1.254 . S
O787 Zn784 2.031 . S
O787 C791 1.269 . S
O788 Zn785 1.986 . S
O788 C795 1.262 . S
O789 Zn784 2.049 . S
O789 C797 1.260 . S
O790 Zn785 1.996 . S
O790 C797 1.257 . S
C791 O786 1.254 . S
C791 O787 1.269 . S
C792 O793 1.249 . S
C792 O794 1.270 . S
O793 Zn785 1.943 . S
O793 C792 1.249 . S
O794 Zn784 2.067 . S
O794 C792 1.270 . S
C795 O788 1.262 . S
C795 O796 1.232 . S
O796 C795 1.232 . S
C797 O789 1.260 . S
C797 O790 1.257 . S
Zn798 O801 2.031 . S
Zn798 O803 2.049 . S
Zn798 O808 2.067 . S
Zn799 O800 1.962 . S
Zn799 O802 1.986 . S
Zn799 O804 1.996 . S
Zn799 O807 1.943 . S
O800 Zn799 1.962 . S
O800 C805 1.254 . S
O801 Zn798 2.031 . S
O801 C805 1.269 . S
O802 Zn799 1.986 . S
O802 C809 1.262 . S
O803 Zn798 2.049 . S
O803 C811 1.260 . S
O804 Zn799 1.996 . S
O804 C811 1.257 . S
C805 O800 1.254 . S
C805 O801 1.269 . S
C806 O807 1.249 . S
C806 O808 1.270 . S
O807 Zn799 1.943 . S
O807 C806 1.249 . S
O808 Zn798 2.067 . S
O808 C806 1.270 . S
C809 O802 1.262 . S
C809 O810 1.232 . S
O810 C809 1.232 . S
C811 O803 1.260 . S
C811 O804 1.257 . S
Zn812 O815 2.031 . S
Zn812 O817 2.049 . S
Zn812 O822 2.067 . S
Zn813 O814 1.962 . S
Zn813 O816 1.986 . S
Zn813 O818 1.996 . S
Zn813 O821 1.943 . S
O814 Zn813 1.962 . S
O814 C819 1.254 . S
O815 Zn812 2.031 . S
O815 C819 1.269 . S
O816 Zn813 1.986 . S
O816 C823 1.262 . S
O817 Zn812 2.049 . S
O817 C825 1.260 . S
O818 Zn813 1.996 . S
O818 C825 1.257 . S
C819 O814 1.254 . S
C819 O815 1.269 . S
C820 O821 1.249 . S
C820 O822 1.270 . S
O821 Zn813 1.943 . S
O821 C820 1.249 . S
O822 Zn812 2.067 . S
O822 C820 1.270 . S
C823 O816 1.262 . S
C823 O824 1.232 . S
O824 C823 1.232 . S
C825 O817 1.260 . S
C825 O818 1.257 . S
Zn826 O829 2.031 . S
Zn826 O831 2.049 . S
Zn826 O836 2.067 . S
Zn827 O828 1.962 . S
Zn827 O830 1.986 . S
Zn827 O832 1.996 . S
Zn827 O835 1.943 . S
O828 Zn827 1.962 . S
O828 C833 1.254 . S
O829 Zn826 2.031 . S
O829 C833 1.269 . S
O830 Zn827 1.986 . S
O830 C837 1.262 . S
O831 Zn826 2.049 . S
O831 C839 1.260 . S
O832 Zn827 1.996 . S
O832 C839 1.257 . S
C833 O828 1.254 . S
C833 O829 1.269 . S
C834 O835 1.249 . S
C834 O836 1.270 . S
O835 Zn827 1.943 . S
O835 C834 1.249 . S
O836 Zn826 2.067 . S
O836 C834 1.270 . S
C837 O830 1.262 . S
C837 O838 1.232 . S
O838 C837 1.232 . S
C839 O831 1.260 . S
C839 O832 1.257 . S
Zn840 O843 2.031 . S
Zn840 O845 2.049 . S
Zn840 O850 2.067 . S
Zn841 O842 1.962 . S
Zn841 O844 1.986 . S
Zn841 O846 1.996 . S
Zn841 O849 1.943 . S
O842 Zn841 1.962 . S
O842 C847 1.254 . S
O843 Zn840 2.031 . S
O843 C847 1.269 . S
O844 Zn841 1.986 . S
O844 C851 1.262 . S
O845 Zn840 2.049 . S
O845 C853 1.260 . S
O846 Zn841 1.996 . S
O846 C853 1.257 . S
C847 O842 1.254 . S
C847 O843 1.269 . S
C848 O849 1.249 . S
C848 O850 1.270 . S
O849 Zn841 1.943 . S
O849 C848 1.249 . S
O850 Zn840 2.067 . S
O850 C848 1.270 . S
C851 O844 1.262 . S
C851 O852 1.232 . S
O852 C851 1.232 . S
C853 O845 1.260 . S
C853 O846 1.257 . S
Zn854 O857 2.031 . S
Zn854 O859 2.049 . S
Zn854 O864 2.067 . S
Zn855 O856 1.962 . S
Zn855 O858 1.986 . S
Zn855 O860 1.996 . S
Zn855 O863 1.943 . S
O856 Zn855 1.962 . S
O856 C861 1.254 . S
O857 Zn854 2.031 . S
O857 C861 1.269 . S
O858 Zn855 1.986 . S
O858 C865 1.262 . S
O859 Zn854 2.049 . S
O859 C867 1.260 . S
O860 Zn855 1.996 . S
O860 C867 1.257 . S
C861 O856 1.254 . S
C861 O857 1.269 . S
C862 O863 1.249 . S
C862 O864 1.270 . S
O863 Zn855 1.943 . S
O863 C862 1.249 . S
O864 Zn854 2.067 . S
O864 C862 1.270 . S
C865 O858 1.262 . S
C865 O866 1.232 . S
O866 C865 1.232 . S
C867 O859 1.260 . S
C867 O860 1.257 . S
Zn868 O871 2.031 . S
Zn868 O873 2.049 . S
Zn868 O878 2.067 . S
Zn869 O870 1.962 . S
Zn869 O872 1.986 . S
Zn869 O874 1.996 . S
Zn869 O877 1.943 . S
O870 Zn869 1.962 . S
O870 C875 1.254 . S
O871 Zn868 2.031 . S
O871 C875 1.269 . S
O872 Zn869 1.986 . S
O872 C879 1.262 . S
O873 Zn868 2.049 . S
O873 C881 1.260 . S
O874 Zn869 1.996 . S
O874 C881 1.257 . S
C875 O870 1.254 . S
C875 O871 1.269 . S
C876 O877 1.249 . S
C876 O878 1.270 . S
O877 Zn869 1.943 . S
O877 C876 1.249 . S
O878 Zn868 2.067 . S
O878 C876 1.270 . S
C879 O872 1.262 . S
C879 O880 1.232 . S
O880 C879 1.232 . S
C881 O873 1.260 . S
C881 O874 1.257 . S
Zn882 O885 2.031 . S
Zn882 O887 2.049 . S
Zn882 O892 2.067 . S
Zn883 O884 1.962 . S
Zn883 O886 1.986 . S
Zn883 O888 1.996 . S
Zn883 O891 1.943 . S
O884 Zn883 1.962 . S
O884 C889 1.254 . S
O885 Zn882 2.031 . S
O885 C889 1.269 . S
O886 Zn883 1.986 . S
O886 C893 1.262 . S
O887 Zn882 2.049 . S
O887 C895 1.260 . S
O888 Zn883 1.996 . S
O888 C895 1.257 . S
C889 O884 1.254 . S
C889 O885 1.269 . S
C890 O891 1.249 . S
C890 O892 1.270 . S
O891 Zn883 1.943 . S
O891 C890 1.249 . S
O892 Zn882 2.067 . S
O892 C890 1.270 . S
C893 O886 1.262 . S
C893 O894 1.232 . S
O894 C893 1.232 . S
C895 O887 1.260 . S
C895 O888 1.257 . S
Zn896 O899 2.031 . S
Zn896 O901 2.049 . S
Zn896 O906 2.067 . S
Zn897 O898 1.962 . S
Zn897 O900 1.986 . S
Zn897 O902 1.996 . S
Zn897 O905 1.943 . S
O898 Zn897 1.962 . S
O898 C903 1.254 . S
O899 Zn896 2.031 . S
O899 C903 1.269 . S
O900 Zn897 1.986 . S
O900 C907 1.262 . S
O901 Zn896 2.049 . S
O901 C909 1.260 . S
O902 Zn897 1.996 . S
O902 C909 1.257 . S
C903 O898 1.254 . S
C903 O899 1.269 . S
C904 O905 1.249 . S
C904 O906 1.270 . S
O905 Zn897 1.943 . S
O905 C904 1.249 . S
O906 Zn896 2.067 . S
O906 C904 1.270 . S
C907 O900 1.262 . S
C907 O908 1.232 . S
O908 C907 1.232 . S
C909 O901 1.260 . S
C909 O902 1.257 . S
Zn910 O913 2.031 . S
Zn910 O915 2.049 . S
Zn910 O920 2.067 . S
Zn911 O912 1.962 . S
Zn911 O914 1.986 . S
Zn911 O916 1.996 . S
Zn911 O919 1.943 . S
O912 Zn911 1.962 . S
O912 C917 1.254 . S
O913 Zn910 2.031 . S
O913 C917 1.269 . S
O914 Zn911 1.986 . S
O914 C921 1.262 . S
O915 Zn910 2.049 . S
O915 C923 1.260 . S
O916 Zn911 1.996 . S
O916 C923 1.257 . S
C917 O912 1.254 . S
C917 O913 1.269 . S
C918 O919 1.249 . S
C918 O920 1.270 . S
O919 Zn911 1.943 . S
O919 C918 1.249 . S
O920 Zn910 2.067 . S
O920 C918 1.270 . S
C921 O914 1.262 . S
C921 O922 1.232 . S
O922 C921 1.232 . S
C923 O915 1.260 . S
C923 O916 1.257 . S
Zn924 O927 2.031 . S
Zn924 O929 2.049 . S
Zn924 O934 2.067 . S
Zn925 O926 1.962 . S
Zn925 O928 1.986 . S
Zn925 O930 1.996 . S
Zn925 O933 1.943 . S
O926 Zn925 1.962 . S
O926 C931 1.254 . S
O927 Zn924 2.031 . S
O927 C931 1.269 . S
O928 Zn925 1.986 . S
O928 C935 1.262 . S
O929 Zn924 2.049 . S
O929 C937 1.260 . S
O930 Zn925 1.996 . S
O930 C937 1.257 . S
C931 O926 1.254 . S
C931 O927 1.269 . S
C932 O933 1.249 . S
C932 O934 1.270 . S
O933 Zn925 1.943 . S
O933 C932 1.249 . S
O934 Zn924 2.067 . S
O934 C932 1.270 . S
C935 O928 1.262 . S
C935 O936 1.232 . S
O936 C935 1.232 . S
C937 O929 1.260 . S
C937 O930 1.257 . S
Zn938 O941 2.031 . S
Zn938 O943 2.049 . S
Zn938 O948 2.067 . S
Zn939 O940 1.962 . S
Zn939 O942 1.986 . S
Zn939 O944 1.996 . S
Zn939 O947 1.943 . S
O940 Zn939 1.962 . S
O940 C945 1.254 . S
O941 Zn938 2.031 . S
O941 C945 1.269 . S
O942 Zn939 1.986 . S
O942 C949 1.262 . S
O943 Zn938 2.049 . S
O943 C951 1.260 . S
O944 Zn939 1.996 . S
O944 C951 1.257 . S
C945 O940 1.254 . S
C945 O941 1.269 . S
C946 O947 1.249 . S
C946 O948 1.270 . S
O947 Zn939 1.943 . S
O947 C946 1.249 . S
O948 Zn938 2.067 . S
O948 C946 1.270 . S
C949 O942 1.262 . S
C949 O950 1.232 . S
O950 C949 1.232 . S
C951 O943 1.260 . S
C951 O944 1.257 . S
Zn952 O955 2.031 . S
Zn952 O957 2.049 . S
Zn952 O962 2.067 . S
Zn953 O954 1.962 . S
Zn953 O956 1.986 . S
Zn953 O958 1.996 . S
Zn953 O961 1.943 . S
O954 Zn953 1.962 . S
O954 C959 1.254 . S
O955 Zn952 2.031 . S
O955 C959 1.269 . S
O956 Zn953 1.986 . S
O956 C963 1.262 . S
O957 Zn952 2.049 . S
O957 C965 1.260 . S
O958 Zn953 1.996 . S
O958 C965 1.257 . S
C959 O954 1.254 . S
C959 O955 1.269 . S
C960 O961 1.249 . S
C960 O962 1.270 . S
O961 Zn953 1.943 . S
O961 C960 1.249 . S
O962 Zn952 2.067 . S
O962 C960 1.270 . S
C963 O956 1.262 . S
C963 O964 1.232 . S
O964 C963 1.232 . S
C965 O957 1.260 . S
C965 O958 1.257 . S
Zn966 O969 2.031 . S
Zn966 O971 2.049 . S
Zn966 O976 2.067 . S
Zn967 O968 1.962 . S
Zn967 O970 1.986 . S
Zn967 O972 1.996 . S
Zn967 O975 1.943 . S
O968 Zn967 1.962 . S
O968 C973 1.254 . S
O969 Zn966 2.031 . S
O969 C973 1.269 . S
O970 Zn967 1.986 . S
O970 C977 1.262 . S
O971 Zn966 2.049 . S
O971 C979 1.260 . S
O972 Zn967 1.996 . S
O972 C979 1.257 . S
C973 O968 1.254 . S
C973 O969 1.269 . S
C974 O975 1.249 . S
C974 O976 1.270 . S
O975 Zn967 1.943 . S
O975 C974 1.249 . S
O976 Zn966 2.067 . S
O976 C974 1.270 . S
C977 O970 1.262 . S
C977 O978 1.232 . S
O978 C977 1.232 . S
C979 O971 1.260 . S
C979 O972 1.257 . S
Zn980 O983 2.031 . S
Zn980 O985 2.049 . S
Zn980 O990 2.067 . S
Zn981 O982 1.962 . S
Zn981 O984 1.986 . S
Zn981 O986 1.996 . S
Zn981 O989 1.943 . S
O982 Zn981 1.962 . S
O982 C987 1.254 . S
O983 Zn980 2.031 . S
O983 C987 1.269 . S
O984 Zn981 1.986 . S
O984 C991 1.262 . S
O985 Zn980 2.049 . S
O985 C993 1.260 . S
O986 Zn981 1.996 . S
O986 C993 1.257 . S
C987 O982 1.254 . S
C987 O983 1.269 . S
C988 O989 1.249 . S
C988 O990 1.270 . S
O989 Zn981 1.943 . S
O989 C988 1.249 . S
O990 Zn980 2.067 . S
O990 C988 1.270 . S
C991 O984 1.262 . S
C991 O992 1.232 . S
O992 C991 1.232 . S
C993 O985 1.260 . S
C993 O986 1.257 . S
Zn994 O997 2.031 . S
Zn994 O999 2.049 . S
Zn994 O1004 2.067 . S
Zn995 O996 1.962 . S
Zn995 O998 1.986 . S
Zn995 O1000 1.996 . S
Zn995 O1003 1.943 . S
O996 Zn995 1.962 . S
O996 C1001 1.254 . S
O997 Zn994 2.031 . S
O997 C1001 1.269 . S
O998 Zn995 1.986 . S
O998 C1005 1.262 . S
O999 Zn994 2.049 . S
O999 C1007 1.260 . S
O1000 Zn995 1.996 . S
O1000 C1007 1.257 . S
C1001 O996 1.254 . S
C1001 O997 1.269 . S
C1002 O1003 1.249 . S
C1002 O1004 1.270 . S
O1003 Zn995 1.943 . S
O1003 C1002 1.249 . S
O1004 Zn994 2.067 . S
O1004 C1002 1.270 . S
C1005 O998 1.262 . S
C1005 O1006 1.232 . S
O1006 C1005 1.232 . S
C1007 O999 1.260 . S
C1007 O1000 1.257 . S
Zn1008 O1011 2.031 . S
Zn1008 O1013 2.049 . S
Zn1008 O1018 2.067 . S
Zn1009 O1010 1.962 . S
Zn1009 O1012 1.986 . S
Zn1009 O1014 1.996 . S
Zn1009 O1017 1.943 . S
O1010 Zn1009 1.962 . S
O1010 C1015 1.254 . S
O1011 Zn1008 2.031 . S
O1011 C1015 1.269 . S
O1012 Zn1009 1.986 . S
O1012 C1019 1.262 . S
O1013 Zn1008 2.049 . S
O1013 C1021 1.260 . S
O1014 Zn1009 1.996 . S
O1014 C1021 1.257 . S
C1015 O1010 1.254 . S
C1015 O1011 1.269 . S
C1016 O1017 1.249 . S
C1016 O1018 1.270 . S
O1017 Zn1009 1.943 . S
O1017 C1016 1.249 . S
O1018 Zn1008 2.067 . S
O1018 C1016 1.270 . S
C1019 O1012 1.262 . S
C1019 O1020 1.232 . S
O1020 C1019 1.232 . S
C1021 O1013 1.260 . S
C1021 O1014 1.257 . S
Zn1022 O1025 2.031 . S
Zn1022 O1027 2.049 . S
Zn1022 O1032 2.067 . S
Zn1023 O1024 1.962 . S
Zn1023 O1026 1.986 . S
Zn1023 O1028 1.996 . S
Zn1023 O1031 1.943 . S
O1024 Zn1023 1.962 . S
O1024 C1029 1.254 . S
O1025 Zn1022 2.031 . S
O1025 C1029 1.269 . S
O1026 Zn1023 1.986 . S
O1026 C1033 1.262 . S
O1027 Zn1022 2.049 . S
O1027 C1035 1.260 . S
O1028 Zn1023 1.996 . S
O1028 C1035 1.257 . S
C1029 O1024 1.254 . S
C1029 O1025 1.269 . S
C1030 O1031 1.249 . S
C1030 O1032 1.270 . S
O1031 Zn1023 1.943 . S
O1031 C1030 1.249 . S
O1032 Zn1022 2.067 . S
O1032 C1030 1.270 . S
C1033 O1026 1.262 . S
C1033 O1034 1.232 . S
O1034 C1033 1.232 . S
C1035 O1027 1.260 . S
C1035 O1028 1.257 . S
Zn1036 O1039 2.031 . S
Zn1036 O1041 2.049 . S
Zn1036 O1046 2.067 . S
Zn1037 O1038 1.962 . S
Zn1037 O1040 1.986 . S
Zn1037 O1042 1.996 . S
Zn1037 O1045 1.943 . S
O1038 Zn1037 1.962 . S
O1038 C1043 1.254 . S
O1039 Zn1036 2.031 . S
O1039 C1043 1.269 . S
O1040 Zn1037 1.986 . S
O1040 C1047 1.262 . S
O1041 Zn1036 2.049 . S
O1041 C1049 1.260 . S
O1042 Zn1037 1.996 . S
O1042 C1049 1.257 . S
C1043 O1038 1.254 . S
C1043 O1039 1.269 . S
C1044 O1045 1.249 . S
C1044 O1046 1.270 . S
O1045 Zn1037 1.943 . S
O1045 C1044 1.249 . S
O1046 Zn1036 2.067 . S
O1046 C1044 1.270 . S
C1047 O1040 1.262 . S
C1047 O1048 1.232 . S
O1048 C1047 1.232 . S
C1049 O1041 1.260 . S
C1049 O1042 1.257 . S
Zn1050 O1053 2.031 . S
Zn1050 O1055 2.049 . S
Zn1050 O1060 2.067 . S
Zn1051 O1052 1.962 . S
Zn1051 O1054 1.986 . S
Zn1051 O1056 1.996 . S
Zn1051 O1059 1.943 . S
O1052 Zn1051 1.962 . S
O1052 C1057 1.254 . S
O1053 Zn1050 2.031 . S
O1053 C1057 1.269 . S
O1054 Zn1051 1.986 . S
O1054 C1061 1.262 . S
O1055 Zn1050 2.049 . S
O1055 C1063 1.260 . S
O1056 Zn1051 1.996 . S
O1056 C1063 1.257 . S
C1057 O1052 1.254 . S
C1057 O1053 1.269 . S
C1058 O1059 1.249 . S
C1058 O1060 1.270 . S
O1059 Zn1051 1.943 . S
O1059 C1058 1.249 . S
O1060 Zn1050 2.067 . S
O1060 C1058 1.270 . S
C1061 O1054 1.262 . S
C1061 O1062 1.232 . S
O1062 C1061 1.232 . S
C1063 O1055 1.260 . S
C1063 O1056 1.257 . S
Zn1064 O1067 2.031 . S
Zn1064 O1069 2.049 . S
Zn1064 O1074 2.067 . S
Zn1065 O1066 1.962 . S
Zn1065 O1068 1.986 . S
Zn1065 O1070 1.996 . S
Zn1065 O1073 1.943 . S
O1066 Zn1065 1.962 . S
O1066 C1071 1.254 . S
O1067 Zn1064 2.031 . S
O1067 C1071 1.269 . S
O1068 Zn1065 1.986 . S
O1068 C1075 1.262 . S
O1069 Zn1064 2.049 . S
O1069 C1077 1.260 . S
O1070 Zn1065 1.996 . S
O1070 C1077 1.257 . S
C1071 O1066 1.254 . S
C1071 O1067 1.269 . S
C1072 O1073 1.249 . S
C1072 O1074 1.270 . S
O1073 Zn1065 1.943 . S
O1073 C1072 1.249 . S
O1074 Zn1064 2.067 . S
O1074 C1072 1.270 . S
C1075 O1068 1.262 . S
C1075 O1076 1.232 . S
O1076 C1075 1.232 . S
C1077 O1069 1.260 . S
C1077 O1070 1.257 . S
Zn1078 O1081 2.031 . S
Zn1078 O1083 2.049 . S
Zn1078 O1088 2.067 . S
Zn1079 O1080 1.962 . S
Zn1079 O1082 1.986 . S
Zn1079 O1084 1.996 . S
Zn1079 O1087 1.943 . S
O1080 Zn1079 1.962 . S
O1080 C1085 1.254 . S
O1081 Zn1078 2.031 . S
O1081 C1085 1.269 . S
O1082 Zn1079 1.986 . S
O1082 C1089 1.262 . S
O1083 Zn1078 2.049 . S
O1083 C1091 1.260 . S
O1084 Zn1079 1.996 . S
O1084 C1091 1.257 . S
C1085 O1080 1.254 . S
C1085 O1081 1.269 . S
C1086 O1087 1.249 . S
C1086 O1088 1.270 . S
O1087 Zn1079 1.943 . S
O1087 C1086 1.249 . S
O1088 Zn1078 2.067 . S
O1088 C1086 1.270 . S
C1089 O1082 1.262 . S
C1089 O1090 1.232 . S
O1090 C1089 1.232 . S
C1091 O1083 1.260 . S
C1091 O1084 1.257 . S
Zn1092 O1095 2.031 . S
Zn1092 O1097 2.049 . S
Zn1092 O1102 2.067 . S
Zn1093 O1094 1.962 . S
Zn1093 O1096 1.986 . S
Zn1093 O1098 1.996 . S
Zn1093 O1101 1.943 . S
O1094 Zn1093 1.962 . S
O1094 C1099 1.254 . S
O1095 Zn1092 2.031 . S
O1095 C1099 1.269 . S
O1096 Zn1093 1.986 . S
O1096 C1103 1.262 . S
O1097 Zn1092 2.049 . S
O1097 C1105 1.260 . S
O1098 Zn1093 1.996 . S
O1098 C1105 1.257 . S
C1099 O1094 1.254 . S
C1099 O1095 1.269 . S
C1100 O1101 1.249 . S
C1100 O1102 1.270 . S
O1101 Zn1093 1.943 . S
O1101 C1100 1.249 . S
O1102 Zn1092 2.067 . S
O1102 C1100 1.270 . S
C1103 O1096 1.262 . S
C1103 O1104 1.232 . S
O1104 C1103 1.232 . S
C1105 O1097 1.260 . S
C1105 O1098 1.257 . S
Zn1106 O1109 2.031 . S
Zn1106 O1111 2.049 . S
Zn1106 O1116 2.067 . S
Zn1107 O1108 1.962 . S
Zn1107 O1110 1.986 . S
Zn1107 O1112 1.996 . S
Zn1107 O1115 1.943 . S
O1108 Zn1107 1.962 . S
O1108 C1113 1.254 . S
O1109 Zn1106 2.031 . S
O1109 C1113 1.269 . S
O1110 Zn1107 1.986 . S
O1110 C1117 1.262 . S
O1111 Zn1106 2.049 . S
O1111 C1119 1.260 . S
O1112 Zn1107 1.996 . S
O1112 C1119 1.257 . S
C1113 O1108 1.254 . S
C1113 O1109 1.269 . S
C1114 O1115 1.249 . S
C1114 O1116 1.270 . S
O1115 Zn1107 1.943 . S
O1115 C1114 1.249 . S
O1116 Zn1106 2.067 . S
O1116 C1114 1.270 . S
C1117 O1110 1.262 . S
C1117 O1118 1.232 . S
O1118 C1117 1.232 . S
C1119 O1111 1.260 . S
C1119 O1112 1.257 . S
Zn1120 O1123 2.031 . S
Zn1120 O1125 2.049 . S
Zn1120 O1130 2.067 . S
Zn1121 O1122 1.962 . S
Zn1121 O1124 1.986 . S
Zn1121 O1126 1.996 . S
Zn1121 O1129 1.943 . S
O1122 Zn1121 1.962 . S
O1122 C1127 1.254 . S
O1123 Zn1120 2.031 . S
O1123 C1127 1.269 . S
O1124 Zn1121 1.986 . S
O1124 C1131 1.262 . S
O1125 Zn1120 2.049 . S
O1125 C1133 1.260 . S
O1126 Zn1121 1.996 . S
O1126 C1133 1.257 . S
C1127 O1122 1.254 . S
C1127 O1123 1.269 . S
C1128 O1129 1.249 . S
C1128 O1130 1.270 . S
O1129 Zn1121 1.943 . S
O1129 C1128 1.249 . S
O1130 Zn1120 2.067 . S
O1130 C1128 1.270 . S
C1131 O1124 1.262 . S
C1131 O1132 1.232 . S
O1132 C1131 1.232 . S
C1133 O1125 1.260 . S
C1133 O1126 1.257 . S
Zn1134 O1137 2.031 . S
Zn1134 O1139 2.049 . S
Zn1134 O1144 2.067 . S
Zn1135 O1136 1.962 . S
Zn1135 O1138 1.986 . S
Zn1135 O1140 1.996 . S
Zn1135 O1143 1.943 . S
O1136 Zn1135 1.962 . S
O1136 C1141 1.254 . S
O1137 Zn1134 2.031 . S
O1137 C1141 1.269 . S
O1138 Zn1135 1.986 . S
O1138 C1145 1.262 . S
O1139 Zn1134 2.049 . S
O1139 C1147 1.260 . S
O1140 Zn1135 1.996 . S
O1140 C1147 1.257 . S
C1141 O1136 1.254 . S
C1141 O1137 1.269 . S
C1142 O1143 1.249 . S
C1142 O1144 1.270 . S
O1143 Zn1135 1.943 . S
O1143 C1142 1.249 . S
O1144 Zn1134 2.067 . S
O1144 C1142 1.270 . S
C1145 O1138 1.262 . S
C1145 O1146 1.232 . S
O1146 C1145 1.232 . S
C1147 O1139 1.260 . S
C1147 O1140 1.257 . S
Zn1148 O1151 2.031 . S
Zn1148 O1153 2.049 . S
Zn1148 O1158 2.067 . S
Zn1149 O1150 1.962 . S
Zn1149 O1152 1.986 . S
Zn1149 O1154 1.996 . S
Zn1149 O1157 1.943 . S
O1150 Zn1149 1.962 . S
O1150 C1155 1.254 . S
O1151 Zn1148 2.031 . S
O1151 C1155 1.269 . S
O1152 Zn1149 1.986 . S
O1152 C1159 1.262 . S
O1153 Zn1148 2.049 . S
O1153 C1161 1.260 . S
O1154 Zn1149 1.996 . S
O1154 C1161 1.257 . S
C1155 O1150 1.254 . S
C1155 O1151 1.269 . S
C1156 O1157 1.249 . S
C1156 O1158 1.270 . S
O1157 Zn1149 1.943 . S
O1157 C1156 1.249 . S
O1158 Zn1148 2.067 . S
O1158 C1156 1.270 . S
C1159 O1152 1.262 . S
C1159 O1160 1.232 . S
O1160 C1159 1.232 . S
C1161 O1153 1.260 . S
C1161 O1154 1.257 . S
Zn1162 O1165 2.031 . S
Zn1162 O1167 2.049 . S
Zn1162 O1172 2.067 . S
Zn1163 O1164 1.962 . S
Zn1163 O1166 1.986 . S
Zn1163 O1168 1.996 . S
Zn1163 O1171 1.943 . S
O1164 Zn1163 1.962 . S
O1164 C1169 1.254 . S
O1165 Zn1162 2.031 . S
O1165 C1169 1.269 . S
O1166 Zn1163 1.986 . S
O1166 C1173 1.262 . S
O1167 Zn1162 2.049 . S
O1167 C1175 1.260 . S
O1168 Zn1163 1.996 . S
O1168 C1175 1.257 . S
C1169 O1164 1.254 . S
C1169 O1165 1.269 . S
C1170 O1171 1.249 . S
C1170 O1172 1.270 . S
O1171 Zn1163 1.943 . S
O1171 C1170 1.249 . S
O1172 Zn1162 2.067 . S
O1172 C1170 1.270 . S
C1173 O1166 1.262 . S
C1173 O1174 1.232 . S
O1174 C1173 1.232 . S
C1175 O1167 1.260 . S
C1175 O1168 1.257 . S
Zn1176 O1179 2.031 . S
Zn1176 O1181 2.049 . S
Zn1176 O1186 2.067 . S
Zn1177 O1178 1.962 . S
Zn1177 O1180 1.986 . S
Zn1177 O1182 1.996 . S
Zn1177 O1185 1.943 . S
O1178 Zn1177 1.962 . S
O1178 C1183 1.254 . S
O1179 Zn1176 2.031 . S
O1179 C1183 1.269 . S
O1180 Zn1177 1.986 . S
O1180 C1187 1.262 . S
O1181 Zn1176 2.049 . S
O1181 C1189 1.260 . S
O1182 Zn1177 1.996 . S
O1182 C1189 1.257 . S
C1183 O1178 1.254 . S
C1183 O1179 1.269 . S
C1184 O1185 1.249 . S
C1184 O1186 1.270 . S
O1185 Zn1177 1.943 . S
O1185 C1184 1.249 . S
O1186 Zn1176 2.067 . S
O1186 C1184 1.270 . S
C1187 O1180 1.262 . S
C1187 O1188 1.232 . S
O1188 C1187 1.232 . S
C1189 O1181 1.260 . S
C1189 O1182 1.257 . S
Zn1190 O1193 2.031 . S
Zn1190 O1195 2.049 . S
Zn1190 O1200 2.067 . S
Zn1191 O1192 1.962 . S
Zn1191 O1194 1.986 . S
Zn1191 O1196 1.996 . S
Zn1191 O1199 1.943 . S
O1192 Zn1191 1.962 . S
O1192 C1197 1.254 . S
O1193 Zn1190 2.031 . S
O1193 C1197 1.269 . S
O1194 Zn1191 1.986 . S
O1194 C1201 1.262 . S
O1195 Zn1190 2.049 . S
O1195 C1203 1.260 . S
O1196 Zn1191 1.996 . S
O1196 C1203 1.257 . S
C1197 O1192 1.254 . S
C1197 O1193 1.269 . S
C1198 O1199 1.249 . S
C1198 O1200 1.270 . S
O1199 Zn1191 1.943 . S
O1199 C1198 1.249 . S
O1200 Zn1190 2.067 . S
O1200 C1198 1.270 . S
C1201 O1194 1.262 . S
C1201 O1202 1.232 . S
O1202 C1201 1.232 . S
C1203 O1195 1.260 . S
C1203 O1196 1.257 . S
Zn1204 O1207 2.031 . S
Zn1204 O1209 2.049 . S
Zn1204 O1214 2.067 . S
Zn1205 O1206 1.962 . S
Zn1205 O1208 1.986 . S
Zn1205 O1210 1.996 . S
Zn1205 O1213 1.943 . S
O1206 Zn1205 1.962 . S
O1206 C1211 1.254 . S
O1207 Zn1204 2.031 . S
O1207 C1211 1.269 . S
O1208 Zn1205 1.986 . S
O1208 C1215 1.262 . S
O1209 Zn1204 2.049 . S
O1209 C1217 1.260 . S
O1210 Zn1205 1.996 . S
O1210 C1217 1.257 . S
C1211 O1206 1.254 . S
C1211 O1207 1.269 . S
C1212 O1213 1.249 . S
C1212 O1214 1.270 . S
O1213 Zn1205 1.943 . S
O1213 C1212 1.249 . S
O1214 Zn1204 2.067 . S
O1214 C1212 1.270 . S
C1215 O1208 1.262 . S
C1215 O1216 1.232 . S
O1216 C1215 1.232 . S
C1217 O1209 1.260 . S
C1217 O1210 1.257 . S
Zn1218 O1221 2.031 . S
Zn1218 O1223 2.049 . S
Zn1218 O1228 2.067 . S
Zn1219 O1220 1.962 . S
Zn1219 O1222 1.986 . S
Zn1219 O1224 1.996 . S
Zn1219 O1227 1.943 . S
O1220 Zn1219 1.962 . S
O1220 C1225 1.254 . S
O1221 Zn1218 2.031 . S
O1221 C1225 1.269 . S
O1222 Zn1219 1.986 . S
O1222 C1229 1.262 . S
O1223 Zn1218 2.049 . S
O1223 C1231 1.260 . S
O1224 Zn1219 1.996 . S
O1224 C1231 1.257 . S
C1225 O1220 1.254 . S
C1225 O1221 1.269 . S
C1226 O1227 1.249 . S
C1226 O1228 1.270 . S
O1227 Zn1219 1.943 . S
O1227 C1226 1.249 . S
O1228 Zn1218 2.067 . S
O1228 C1226 1.270 . S
C1229 O1222 1.262 . S
C1229 O1230 1.232 . S
O1230 C1229 1.232 . S
C1231 O1223 1.260 . S
C1231 O1224 1.257 . S
Zn1232 O1235 2.031 . S
Zn1232 O1237 2.049 . S
Zn1232 O1242 2.067 . S
Zn1233 O1234 1.962 . S
Zn1233 O1236 1.986 . S
Zn1233 O1238 1.996 . S
Zn1233 O1241 1.943 . S
O1234 Zn1233 1.962 . S
O1234 C1239 1.254 . S
O1235 Zn1232 2.031 . S
O1235 C1239 1.269 . S
O1236 Zn1233 1.986 . S
O1236 C1243 1.262 . S
O1237 Zn1232 2.049 . S
O1237 C1245 1.260 . S
O1238 Zn1233 1.996 . S
O1238 C1245 1.257 . S
C1239 O1234 1.254 . S
C1239 O1235 1.269 . S
C1240 O1241 1.249 . S
C1240 O1242 1.270 . S
O1241 Zn1233 1.943 . S
O1241 C1240 1.249 . S
O1242 Zn1232 2.067 . S
O1242 C1240 1.270 . S
C1243 O1236 1.262 . S
C1243 O1244 1.232 . S
O1244 C1243 1.232 . S
C1245 O1237 1.260 . S
C1245 O1238 1.257 . S
Zn1246 O1249 2.031 . S
Zn1246 O1251 2.049 . S
Zn1246 O1256 2.067 . S
Zn1247 O1248 1.962 . S
Zn1247 O1250 1.986 . S
Zn1247 O1252 1.996 . S
Zn1247 O1255 1.943 . S
O1248 Zn1247 1.962 . S
O1248 C1253 1.254 . S
O1249 Zn1246 2.031 . S
O1249 C1253 1.269 . S
O1250 Zn1247 1.986 . S
O1250 C1257 1.262 . S
O1251 Zn1246 2.049 . S
O1251 C1259 1.260 . S
O1252 Zn1247 1.996 . S
O1252 C1259 1.257 . S
C1253 O1248 1.254 . S
C1253 O1249 1.269 . S
C1254 O1255 1.249 . S
C1254 O1256 1.270 . S
O1255 Zn1247 1.943 . S
O1255 C1254 1.249 . S
O1256 Zn1246 2.067 . S
O1256 C1254 1.270 . S
C1257 O1250 1.262 . S
C1257 O1258 1.232 . S
O1258 C1257 1.232 . S
C1259 O1251 1.260 . S
C1259 O1252 1.257 . S
Zn1260 O1263 2.031 . S
Zn1260 O1265 2.049 . S
Zn1260 O1270 2.067 . S
Zn1261 O1262 1.962 . S
Zn1261 O1264 1.986 . S
Zn1261 O1266 1.996 . S
Zn1261 O1269 1.943 . S
O1262 Zn1261 1.962 . S
O1262 C1267 1.254 . S
O1263 Zn1260 2.031 . S
O1263 C1267 1.269 . S
O1264 Zn1261 1.986 . S
O1264 C1271 1.262 . S
O1265 Zn1260 2.049 . S
O1265 C1273 1.260 . S
O1266 Zn1261 1.996 . S
O1266 C1273 1.257 . S
C1267 O1262 1.254 . S
C1267 O1263 1.269 . S
C1268 O1269 1.249 . S
C1268 O1270 1.270 . S
O1269 Zn1261 1.943 . S
O1269 C1268 1.249 . S
O1270 Zn1260 2.067 . S
O1270 C1268 1.270 . S
C1271 O1264 1.262 . S
C1271 O1272 1.232 . S
O1272 C1271 1.232 . S
C1273 O1265 1.260 . S
C1273 O1266 1.257 . S
Zn1274 O1277 2.031 . S
Zn1274 O1279 2.049 . S
Zn1274 O1284 2.067 . S
Zn1275 O1276 1.962 . S
Zn1275 O1278 1.986 . S
Zn1275 O1280 1.996 . S
Zn1275 O1283 1.943 . S
O1276 Zn1275 1.962 . S
O1276 C1281 1.254 . S
O1277 Zn1274 2.031 . S
O1277 C1281 1.269 . S
O1278 Zn1275 1.986 . S
O1278 C1285 1.262 . S
O1279 Zn1274 2.049 . S
O1279 C1287 1.260 . S
O1280 Zn1275 1.996 . S
O1280 C1287 1.257 . S
C1281 O1276 1.254 . S
C1281 O1277 1.269 . S
C1282 O1283 1.249 . S
C1282 O1284 1.270 . S
O1283 Zn1275 1.943 . S
O1283 C1282 1.249 . S
O1284 Zn1274 2.067 . S
O1284 C1282 1.270 . S
C1285 O1278 1.262 . S
C1285 O1286 1.232 . S
O1286 C1285 1.232 . S
C1287 O1279 1.260 . S
C1287 O1280 1.257 . S
Zn1288 O1291 2.031 . S
Zn1288 O1293 2.049 . S
Zn1288 O1298 2.067 . S
Zn1289 O1290 1.962 . S
Zn1289 O1292 1.986 . S
Zn1289 O1294 1.996 . S
Zn1289 O1297 1.943 . S
O1290 Zn1289 1.962 . S
O1290 C1295 1.254 . S
O1291 Zn1288 2.031 . S
O1291 C1295 1.269 . S
O1292 Zn1289 1.986 . S
O1292 C1299 1.262 . S
O1293 Zn1288 2.049 . S
O1293 C1301 1.260 . S
O1294 Zn1289 1.996 . S
O1294 C1301 1.257 . S
C1295 O1290 1.254 . S
C1295 O1291 1.269 . S
C1296 O1297 1.249 . S
C1296 O1298 1.270 . S
O1297 Zn1289 1.943 . S
O1297 C1296 1.249 . S
O1298 Zn1288 2.067 . S
O1298 C1296 1.270 . S
C1299 O1292 1.262 . S
C1299 O1300 1.232 . S
O1300 C1299 1.232 . S
C1301 O1293 1.260 . S
C1301 O1294 1.257 . S
Zn1302 O1305 2.031 . S
Zn1302 O1307 2.049 . S
Zn1302 O1312 2.067 . S
Zn1303 O1304 1.962 . S
Zn1303 O1306 1.986 . S
Zn1303 O1308 1.996 . S
Zn1303 O1311 1.943 . S
O1304 Zn1303 1.962 . S
O1304 C1309 1.254 . S
O1305 Zn1302 2.031 . S
O1305 C1309 1.269 . S
O1306 Zn1303 1.986 . S
O1306 C1313 1.262 . S
O1307 Zn1302 2.049 . S
O1307 C1315 1.260 . S
O1308 Zn1303 1.996 . S
O1308 C1315 1.257 . S
C1309 O1304 1.254 . S
C1309 O1305 1.269 . S
C1310 O1311 1.249 . S
C1310 O1312 1.270 . S
O1311 Zn1303 1.943 . S
O1311 C1310 1.249 . S
O1312 Zn1302 2.067 . S
O1312 C1310 1.270 . S
C1313 O1306 1.262 . S
C1313 O1314 1.232 . S
O1314 C1313 1.232 . S
C1315 O1307 1.260 . S
C1315 O1308 1.257 . S
Zn1316 O1319 2.031 . S
Zn1316 O1321 2.049 . S
Zn1316 O1326 2.067 . S
Zn1317 O1318 1.962 . S
Zn1317 O1320 1.986 . S
Zn1317 O1322 1.996 . S
Zn1317 O1325 1.943 . S
O1318 Zn1317 1.962 . S
O1318 C1323 1.254 . S
O1319 Zn1316 2.031 . S
O1319 C1323 1.269 . S
O1320 Zn1317 1.986 . S
O1320 C1327 1.262 . S
O1321 Zn1316 2.049 . S
O1321 C1329 1.260 . S
O1322 Zn1317 1.996 . S
O1322 C1329 1.257 . S
C1323 O1318 1.254 . S
C1323 O1319 1.269 . S
C1324 O1325 1.249 . S
C1324 O1326 1.270 . S
O1325 Zn1317 1.943 . S
O1325 C1324 1.249 . S
O1326 Zn1316 2.067 . S
O1326 C1324 1.270 . S
C1327 O1320 1.262 . S
C1327 O1328 1.232 . S
O1328 C1327 1.232 . S
C1329 O1321 1.260 . S
C1329 O1322 1.257 . S
Zn1330 O1333 2.031 . S
Zn1330 O1335 2.049 . S
Zn1330 O1340 2.067 . S
Zn1331 O1332 1.962 . S
Zn1331 O1334 1.986 . S
Zn1331 O1336 1.996 . S
Zn1331 O1339 1.943 . S
O1332 Zn1331 1.962 . S
O1332 C1337 1.254 . S
O1333 Zn1330 2.031 . S
O1333 C1337 1.269 . S
O1334 Zn1331 1.986 . S
O1334 C1341 1.262 . S
O1335 Zn1330 2.049 . S
O1335 C1343 1.260 . S
O1336 Zn1331 1.996 . S
O1336 C1343 1.257 . S
C1337 O1332 1.254 . S
C1337 O1333 1.269 . S
C1338 O1339 1.249 . S
C1338 O1340 1.270 . S
O1339 Zn1331 1.943 . S
O1339 C1338 1.249 . S
O1340 Zn1330 2.067 . S
O1340 C1338 1.270 . S
C1341 O1334 1.262 . S
C1341 O1342 1.232 . S
O1342 C1341 1.232 . S
C1343 O1335 1.260 . S
C1343 O1336 1.257 . S
C559 C13 1.194 . S
C517 C27 1.194 . S
C531 C41 1.194 . S
C545 C55 1.194 . S
C475 C69 1.194 . S
C489 C83 1.194 . S
C97 C503 1.194 . S
C461 C111 1.194 . S
C125 C447 1.194 . S
C139 C405 1.194 . S
C153 C419 1.194 . S
C167 C433 1.194 . S
C363 C181 1.194 . S
C377 C195 1.194 . S
C391 C209 1.194 . S
C349 C223 1.194 . S
C237 C629 1.194 . S
C251 C671 1.194 . S
C643 C265 1.194 . S
C657 C279 1.194 . S
C573 C293 1.194 . S
C601 C307 1.194 . S
C321 C615 1.194 . S
C587 C335 1.194 . S
C993 C685 1.194 . S
C699 C1007 1.194 . S
C713 C979 1.194 . S
C727 C965 1.194 . S
C741 C951 1.194 . S
C755 C937 1.194 . S
C909 C769 1.194 . S
C923 C783 1.194 . S
C797 C1077 1.194 . S
C811 C1119 1.194 . S
C1091 C825 1.194 . S
C839 C1105 1.194 . S
C853 C1021 1.194 . S
C867 C1049 1.194 . S
C1063 C881 1.194 . S
C1035 C895 1.194 . S
C1133 C1343 1.194 . S
C1329 C1147 1.194 . S
C1301 C1161 1.194 . S
C1315 C1175 1.194 . S
C1273 C1189 1.194 . S
C1203 C1287 1.194 . S
C1259 C1217 1.194 . S
C1245 C1231 1.194 . S
C8 C441 0.936 . S
C22 C399 0.936 . S
C36 C413 0.936 . S
C50 C427 0.936 . S
C64 C357 0.936 . S
C78 C371 0.936 . S
C385 C92 0.936 . S
C106 C343 0.936 . S
C120 C623 0.936 . S
C581 C134 0.936 . S
C148 C595 0.936 . S
C162 C609 0.936 . S
C665 C176 0.936 . S
C637 C190 0.936 . S
C651 C204 0.936 . S
C218 C567 0.936 . S
C232 C553 0.936 . S
C246 C469 0.936 . S
C260 C483 0.936 . S
C274 C497 0.936 . S
C288 C455 0.936 . S
C302 C525 0.936 . S
C539 C316 0.936 . S
C330 C511 0.936 . S
C470 C945 0.936 . S
C217 C680 0.936 . S
C498 C931 0.936 . S
C694 C189 0.936 . S
C554 C903 0.936 . S
C708 C161 0.936 . S
C917 C526 0.936 . S
C722 C133 0.936 . S
C1071 C736 0.936 . S
C344 C1029 0.936 . S
C1043 C750 0.936 . S
C1057 C372 0.936 . S
C1113 C764 0.936 . S
C428 C1085 0.936 . S
C778 C1099 0.936 . S
C400 C1015 0.936 . S
C792 C63 0.936 . S
C806 C7 0.936 . S
C973 C820 0.936 . S
C834 C35 0.936 . S
C848 C959 0.936 . S
C91 C862 0.936 . S
C876 C1001 0.936 . S
C987 C890 0.936 . S
C203 C1128 0.936 . S
C1267 C484 0.936 . S
C1142 C175 0.936 . S
C456 C1281 0.936 . S
C147 C1156 0.936 . S
C1253 C512 0.936 . S
C119 C1170 0.936 . S
C1239 C540 0.936 . S
C861 C386 0.936 . S
C1184 C875 0.936 . S
C791 C358 0.936 . S
C1198 C889 0.936 . S
C833 C414 0.936 . S
C1212 C847 0.936 . S
C442 C805 0.936 . S
C819 C1226 0.936 . S
C1337 C1044 0.936 . S
C1295 C1100 0.936 . S
C1016 C21 0.936 . S
C1309 C1114 0.936 . S
C49 C1086 0.936 . S
C1072 C1323 0.936 . S
C1030 C105 0.936 . S
C1058 C77 0.936 . S
C1296 C777 0.936 . S
C1225 C974 0.936 . S
C1310 C763 0.936 . S
C960 C1211 0.936 . S
C1338 C749 0.936 . S
C988 C1197 0.936 . S
C1324 C735 0.936 . S
C1002 C1183 0.936 . S
C918 C301 0.936 . S
C315 C1240 0.936 . S
C904 C231 0.936 . S
C1254 C329 0.936 . S
C932 C273 0.936 . S
C287 C1282 0.936 . S
C245 C946 0.936 . S
C259 C1268 0.936 . S
C1155 C596 0.936 . S
C652 C1127 0.936 . S
C679 C568 0.936 . S
C666 C1141 0.936 . S
C693 C638 0.936 . S
C1169 C624 0.936 . S
C721 C582 0.936 . S
C707 C610 0.936 . S
C403 C11 1.393 1_655 S
C25 C417 1.393 1_545 S
C431 C39 1.393 1_455 S
C53 C445 1.393 1_565 S
C347 C67 1.393 1_655 S
C361 C81 1.393 1_565 S
C95 C375 1.393 1_655 S
C109 C389 1.393 1_565 S
C543 C123 1.393 1_565 S
C137 C557 1.393 1_655 S
C151 C515 1.393 1_565 S
C529 C165 1.393 1_655 S
C179 C487 1.393 1_565 S
C501 C193 1.393 1_655 S
C459 C207 1.393 1_565 S
C473 C221 1.393 1_455 S
C235 C641 1.393 1_554 S
C613 C249 1.393 1_554 S
C627 C263 1.393 1_554 S
C585 C277 1.393 1_554 S
C291 C599 1.393 1_556 S
C305 C571 1.393 1_554 S
C669 C319 1.393 1_556 S
C333 C655 1.393 1_554 S
C683 C935 1.393 . S
C949 C697 1.393 . S
C907 C711 1.393 . S
C921 C725 1.393 . S
C739 C1005 1.393 . S
C991 C753 1.393 . S
C767 C977 1.393 . S
C781 C963 1.393 . S
C1089 C795 1.393 . S
C809 C1061 1.393 . S
C1075 C823 1.393 . S
C1033 C837 1.393 . S
C1047 C851 1.393 . S
C1019 C865 1.393 . S
C1117 C879 1.393 . S
C1103 C893 1.393 . S
C1131 C1271 1.393 . S
C1285 C1145 1.393 . S
C1159 C1243 1.393 . S
C1257 C1173 1.393 . S
C1187 C1341 1.393 . S
C1201 C1327 1.393 . S
C1313 C1215 1.393 . S
C1229 C1299 1.393 . S
