# Generated by pormake.
# Topology vby, (6)-cn, num edge types: 1
# Building blocks:
#     Node 0, Type 0, BuildingBlock: BETFEN_clean_sbu_0, # of connection points: 6
#     Node 1, Type 0, BuildingBlock: BETFEN_clean_sbu_0, # of connection points: 6
#     Node 2, Type 0, BuildingBlock: BETFEN_clean_sbu_0, # of connection points: 6
#     Node 3, Type 0, BuildingBlock: BETFEN_clean_sbu_0, # of connection points: 6
#     Node 4, Type 0, BuildingBlock: BETFEN_clean_sbu_0, # of connection points: 6
#     Node 5, Type 0, BuildingBlock: BETFEN_clean_sbu_0, # of connection points: 6
#     Node 6, Type 0, BuildingBlock: BETFEN_clean_sbu_0, # of connection points: 6
#     Node 7, Type 0, BuildingBlock: BETFEN_clean_sbu_0, # of connection points: 6
#     Edge 8, Type (0, 0), BuildingBlock: XUDNAN_clean_linker_2, # of connection points: 2
#     Edge 9, Type (0, 0), BuildingBlock: XUDNAN_clean_linker_2, # of connection points: 2
#     Edge 10, Type (0, 0), BuildingBlock: XUDNAN_clean_linker_2, # of connection points: 2
#     Edge 11, Type (0, 0), BuildingBlock: XUDNAN_clean_linker_2, # of connection points: 2
#     Edge 12, Type (0, 0), BuildingBlock: XUDNAN_clean_linker_2, # of connection points: 2
#     Edge 13, Type (0, 0), BuildingBlock: XUDNAN_clean_linker_2, # of connection points: 2
#     Edge 14, Type (0, 0), BuildingBlock: XUDNAN_clean_linker_2, # of connection points: 2
#     Edge 15, Type (0, 0), BuildingBlock: XUDNAN_clean_linker_2, # of connection points: 2
#     Edge 16, Type (0, 0), BuildingBlock: XUDNAN_clean_linker_2, # of connection points: 2
#     Edge 17, Type (0, 0), BuildingBlock: XUDNAN_clean_linker_2, # of connection points: 2
#     Edge 18, Type (0, 0), BuildingBlock: XUDNAN_clean_linker_2, # of connection points: 2
#     Edge 19, Type (0, 0), BuildingBlock: XUDNAN_clean_linker_2, # of connection points: 2
#     Edge 20, Type (0, 0), BuildingBlock: XUDNAN_clean_linker_2, # of connection points: 2
#     Edge 21, Type (0, 0), BuildingBlock: XUDNAN_clean_linker_2, # of connection points: 2
#     Edge 22, Type (0, 0), BuildingBlock: XUDNAN_clean_linker_2, # of connection points: 2
#     Edge 23, Type (0, 0), BuildingBlock: XUDNAN_clean_linker_2, # of connection points: 2
#     Edge 24, Type (0, 0), BuildingBlock: XUDNAN_clean_linker_2, # of connection points: 2
#     Edge 25, Type (0, 0), BuildingBlock: XUDNAN_clean_linker_2, # of connection points: 2
#     Edge 26, Type (0, 0), BuildingBlock: XUDNAN_clean_linker_2, # of connection points: 2
#     Edge 27, Type (0, 0), BuildingBlock: XUDNAN_clean_linker_2, # of connection points: 2
#     Edge 28, Type (0, 0), BuildingBlock: XUDNAN_clean_linker_2, # of connection points: 2
#     Edge 29, Type (0, 0), BuildingBlock: XUDNAN_clean_linker_2, # of connection points: 2
#     Edge 30, Type (0, 0), BuildingBlock: XUDNAN_clean_linker_2, # of connection points: 2
#     Edge 31, Type (0, 0), BuildingBlock: XUDNAN_clean_linker_2, # of connection points: 2
# Relax obj value: 0.201
# Max RMSD: 0.215
# Mean RMSD: 0.215
data_MOF--net-vby--node1-BETFEN_clean_sbu_0--edge1-XUDNAN_clean_linker_2
_symmetry_space_group_name_H-M    P1
_symmetry_Int_Tables_number       1
_symmetry_cell_setting            triclinic
loop_
_symmetry_equiv_pos_as_xyz
'x, y, z'
_cell_length_a     15.705872
_cell_length_b     105.45291
_cell_length_c     29.710258
_cell_angle_alpha  89.978543
_cell_angle_beta   94.368938
_cell_angle_gamma 89.930518
loop_
_atom_site_label
_atom_site_type_symbol
_atom_site_fract_x
_atom_site_fract_y
_atom_site_fract_z
_atom_type_partial_charge
Pr0 Pr 0.09527 0.36968 0.02211 0.0
Pr1 Pr 0.09657 0.39788 0.02419 0.0
C2 C 0.11181 0.34424 0.01061 0.0
C3 C 0.1618 0.33217 0.0141 0.0
C4 C 0.1523 0.3237 0.05008 0.0
C5 C 0.183 0.31119 0.0486 0.0
C6 C 0.2235 0.30678 0.01092 0.0
C7 C 0.23905 0.31559 0.97675 0.0
C8 C 0.2082 0.32807 0.97816 0.0
C9 C 0.08301 0.37958 0.10903 0.0
C10 C 0.28137 0.38424 0.02324 0.0
C11 C 0.08524 0.42316 0.04051 0.0
C12 C 0.05299 0.43628 0.03137 0.0
C13 C 0.05404 0.4418 0.98837 0.0
C14 C 0.03782 0.45479 0.98213 0.0
C15 C 1.01999 0.46267 0.01869 0.0
C16 C 1.0157 0.45699 0.06137 0.0
C17 C 1.03201 0.44397 0.06757 0.0
C18 C 0.09044 0.388 0.93532 0.0
C19 C 0.90913 0.38299 0.01608 0.0
O20 O 0.1268 0.35258 0.97959 0.0
O21 O 0.08578 0.34938 0.04711 0.0
O22 O 0.13481 0.3838 0.08177 0.0
O23 O 0.03863 0.37023 0.09157 0.0
O24 O 0.24401 0.39416 0.04026 0.0
O25 O 0.23598 0.37441 0.00866 0.0
O26 O 0.03909 0.41479 0.06016 0.0
O27 O 0.13607 0.41813 0.01266 0.0
O28 O 0.04825 0.38377 0.96653 0.0
O29 O 0.13363 0.39789 0.9491 0.0
O30 O 0.95142 0.37321 0.00137 0.0
O31 O 0.95031 0.39315 0.03229 0.0
H32 H 0.11672 0.3265 0.07828 0.0
H33 H 0.16982 0.30476 0.07562 0.0
H34 H 0.27203 0.3127 0.94773 0.0
H35 H 0.21705 0.33428 0.94987 0.0
H36 H 0.07056 0.43618 0.95977 0.0
H37 H 0.04287 0.45874 0.9488 0.0
H38 H 1.00083 0.46263 0.0902 0.0
H39 H 1.03129 0.44 0.10116 0.0
Pr40 Pr 0.99137 0.62109 0.01538 0.0
Pr41 Pr 0.97658 0.6527 0.01357 0.0
C42 C 0.99966 0.59638 0.99232 0.0
C43 C 1.02978 0.58322 0.00212 0.0
C44 C 1.00708 0.57645 0.04033 0.0
C45 C 1.01875 0.56323 0.04302 0.0
C46 C 0.05241 0.55656 0.00736 0.0
C47 C 0.08251 0.56356 0.97148 0.0
C48 C 0.07113 0.57671 0.96886 0.0
C49 C 1.00105 0.63054 0.10445 0.0
C50 C 0.16971 0.63856 0.01718 0.0
C51 C 0.95996 0.67747 0.03526 0.0
C52 C 0.91244 0.68966 0.02768 0.0
C53 C 0.92051 0.69723 0.98906 0.0
C54 C 0.8898 0.7098 0.98727 0.0
C55 C 0.85141 0.71508 0.02424 0.0
C56 C 0.83723 0.70714 0.06103 0.0
C57 C 0.8674 0.69464 0.06274 0.0
C58 C 0.97416 0.64237 0.92508 0.0
C59 C 0.79754 0.63554 0.00752 0.0
O60 O 0.05362 0.60487 0.9793 0.0
O61 O 0.93951 0.60112 0.01558 0.0
O62 O 0.99438 0.63716 0.06862 0.0
O63 O 1.00648 0.61864 0.09386 0.0
O64 O 0.12586 0.6491 0.02402 0.0
O65 O 0.13354 0.62733 0.00989 0.0
O66 O 0.92377 0.66825 0.05647 0.0
O67 O 1.00987 0.67346 0.00481 0.0
O68 O 0.97728 0.6366 0.96234 0.0
O69 O 0.96592 0.65441 0.93307 0.0
O70 O 0.84223 0.62501 0.00177 0.0
O71 O 0.83324 0.64677 0.01478 0.0
H72 H 0.97571 0.58122 0.06679 0.0
H73 H 0.99529 0.55813 0.0712 0.0
H74 H 0.11001 0.55875 0.94381 0.0
H75 H 0.0896 0.58166 0.93917 0.0
H76 H 0.95445 0.69369 0.96125 0.0
H77 H 0.90158 0.71564 0.9584 0.0
H78 H 0.80682 0.71085 0.0898 0.0
H79 H 0.85976 0.6891 0.09289 0.0
Pr80 Pr 0.0967 0.62292 0.51344 0.0
Pr81 Pr 0.09688 0.65243 0.5208 0.0
C82 C 0.0831 0.59738 0.51328 0.0
C83 C 0.04812 0.58434 0.51406 0.0
C84 C 0.06549 0.57598 0.47918 0.0
C85 C 0.0492 0.56299 0.48273 0.0
C86 C 1.01424 0.55799 0.52123 0.0
C87 C 0.98973 0.56662 0.55431 0.0
C88 C 1.00751 0.57962 0.55106 0.0
C89 C 0.09657 0.6362 0.43043 0.0
C90 C 0.91083 0.63781 0.52018 0.0
C91 C 0.11152 0.6773 0.50013 0.0
C92 C 0.16016 0.68936 0.50827 0.0
C93 C 0.13723 0.69823 0.54074 0.0
C94 C 0.17133 0.71057 0.54183 0.0
C95 C 0.22874 0.71438 0.51025 0.0
C96 C 0.25696 0.70515 0.48046 0.0
C97 C 0.22272 0.69288 0.47922 0.0
C98 C 0.11031 0.64278 0.61005 0.0
C99 C 0.28217 0.63643 0.52524 0.0
O100 O 0.09463 0.60406 0.55035 0.0
O101 O 0.07636 0.60414 0.47636 0.0
O102 O 0.05185 0.63879 0.46288 0.0
O103 O 0.14791 0.62693 0.44244 0.0
O104 O 0.94804 0.64873 0.51142 0.0
O105 O 0.95467 0.62717 0.52656 0.0
O106 O 0.14721 0.66816 0.47831 0.0
O107 O 0.06235 0.67316 0.53071 0.0
O108 O 0.10598 0.6363 0.57412 0.0
O109 O 0.10755 0.65475 0.6001 0.0
O110 O 0.23982 0.62616 0.5351 0.0
O111 O 0.24218 0.64705 0.51256 0.0
H112 H 0.09665 0.57938 0.45019 0.0
H113 H 0.0695 0.55686 0.4564 0.0
H114 H 0.95959 0.56332 0.5837 0.0
H115 H 0.99243 0.58587 0.57828 0.0
H116 H 0.0895 0.69586 0.5638 0.0
H117 H 0.14828 0.71734 0.56545 0.0
H118 H 0.30294 0.70755 0.45646 0.0
H119 H 0.24238 0.68635 0.45385 0.0
Pr120 Pr 0.97467 0.36869 0.51976 0.0
Pr121 Pr 0.98023 0.40069 0.51334 0.0
C122 C 0.96106 0.34423 0.54627 0.0
C123 C 0.91754 0.33187 0.53607 0.0
C124 C 0.91323 0.32642 0.49274 0.0
C125 C 0.87883 0.31422 0.48529 0.0
C126 C 0.84842 0.30712 0.521 0.0
C127 C 0.85061 0.31277 0.56397 0.0
C128 C 0.88447 0.32499 0.57132 0.0
C129 C 0.96898 0.37765 0.42939 0.0
C130 C 0.79202 0.3855 0.5095 0.0
C131 C 0.9884 0.42491 0.48431 0.0
C132 C 1.01385 0.43801 0.49719 0.0
C133 C 0.99958 0.44297 0.53975 0.0
C134 C 1.01432 0.45584 0.5492 0.0
C135 C 0.04477 0.46408 0.51652 0.0
C136 C 0.0633 0.45883 0.47471 0.0
C137 C 0.04749 0.44599 0.46514 0.0
C138 C 0.9984 0.39211 0.60396 0.0
C139 C 0.16118 0.38379 0.5151 0.0
O140 O 0.91618 0.35347 0.56218 0.0
O141 O 1.01791 0.34818 0.51933 0.0
O142 O 0.96943 0.38399 0.46523 0.0
O143 O 0.96522 0.36571 0.44006 0.0
O144 O 0.83493 0.39572 0.49832 0.0
O145 O 0.82993 0.37473 0.52278 0.0
O146 O 0.04909 0.4166 0.4794 0.0
O147 O 0.92157 0.42011 0.5021 0.0
O148 O 0.98934 0.38545 0.56872 0.0
O149 O 0.99869 0.404 0.5923 0.0
O150 O 0.12344 0.37351 0.5306 0.0
O151 O 0.11841 0.39414 0.50198 0.0
H152 H 0.93796 0.33145 0.46476 0.0
H153 H 0.87855 0.31019 0.45176 0.0
H154 H 0.82641 0.30773 0.59206 0.0
H155 H 0.88652 0.32897 0.605 0.0
H156 H 0.97425 0.43701 0.56525 0.0
H157 H 0.99804 0.45935 0.58165 0.0
H158 H 0.0889 0.46464 0.44894 0.0
H159 H 0.05959 0.44234 0.43213 0.0
Pr160 Pr 0.59527 0.8688 0.01667 0.0
Pr161 Pr 0.58804 0.90048 0.02325 0.0
C162 C 0.60949 0.84446 0.98898 0.0
C163 C 0.65283 0.83206 0.99849 0.0
C164 C 0.65627 0.82639 0.04144 0.0
C165 C 0.69074 0.81418 0.04833 0.0
C166 C 0.72237 0.80728 0.01246 0.0
C167 C 0.72084 0.81313 0.96982 0.0
C168 C 0.68671 0.82536 0.96301 0.0
C169 C 0.60181 0.87749 0.1077 0.0
C170 C 0.77754 0.88556 0.02481 0.0
C171 C 0.57996 0.92464 0.05311 0.0
C172 C 0.55421 0.93782 0.04174 0.0
C173 C 0.53035 0.94165 0.99732 0.0
C174 C 0.51648 0.95454 0.98724 0.0
C175 C 0.52797 0.96392 0.02123 0.0
C176 C 0.54692 0.95982 0.06604 0.0
C177 C 0.55948 0.94695 0.07607 0.0
C178 C 0.57664 0.89263 0.93196 0.0
C179 C 0.40669 0.88397 0.01439 0.0
O180 O 0.65473 0.85376 0.97386 0.0
O181 O 0.55235 0.84828 0.01601 0.0
O182 O 0.59948 0.88394 0.072 0.0
O183 O 0.60518 0.86559 0.09643 0.0
O184 O 0.73423 0.89586 0.03497 0.0
O185 O 0.74016 0.87457 0.01439 0.0
O186 O 0.51982 0.91628 0.05815 0.0
O187 O 0.6456 0.92001 0.03385 0.0
O188 O 0.58151 0.88548 0.96633 0.0
O189 O 0.575 0.90437 0.9452 0.0
O190 O 0.44673 0.87345 0.00279 0.0
O191 O 0.44778 0.89429 0.02896 0.0
H192 H 0.63087 0.83128 0.06955 0.0
H193 H 0.69028 0.80999 0.0816 0.0
H194 H 0.74592 0.80824 0.94163 0.0
H195 H 0.68524 0.82951 0.9296 0.0
H196 H 0.52479 0.93473 0.97031 0.0
H197 H 0.49897 0.95715 0.95253 0.0
H198 H 0.55691 0.96654 0.0934 0.0
H199 H 0.57712 0.94418 0.11065 0.0
Pr200 Pr 0.48925 0.1239 0.01877 0.0
Pr201 Pr 0.48172 0.1529 0.01623 0.0
C202 C 0.51616 0.09865 0.01358 0.0
C203 C 0.53103 0.08473 0.01142 0.0
C204 C 0.54034 0.07734 0.05093 0.0
C205 C 0.55257 0.06416 0.04863 0.0
C206 C 0.55479 0.05795 0.00664 0.0
C207 C 0.5459 0.06552 0.96726 0.0
C208 C 0.53505 0.07867 0.96967 0.0
C209 C 0.48263 0.13551 0.10334 0.0
C210 C 0.67262 0.13988 0.01589 0.0
C211 C 0.46512 0.17732 0.04256 0.0
C212 C 0.4214 0.18965 0.03221 0.0
C213 C 0.42619 0.19572 0.99037 0.0
C214 C 0.39261 0.20794 0.98305 0.0
C215 C 0.35274 0.21448 0.01724 0.0
C216 C 0.34594 0.20821 0.0587 0.0
C217 C 0.37992 0.19598 0.06605 0.0
C218 C 0.46534 0.14556 0.92512 0.0
C219 C 0.29904 0.13656 0.01101 0.0
O220 O 0.5029 0.10579 0.97766 0.0
O221 O 0.51484 0.10469 0.05184 0.0
O222 O 0.52872 0.1391 0.07268 0.0
O223 O 0.43496 0.126 0.08965 0.0
O224 O 0.62978 0.15055 0.01944 0.0
O225 O 0.63459 0.12872 0.01347 0.0
O226 O 0.42039 0.16802 0.05804 0.0
O227 O 0.52271 0.17346 0.01593 0.0
O228 O 0.47384 0.13762 0.95752 0.0
O229 O 0.46236 0.15709 0.93987 0.0
O230 O 0.3414 0.12614 0.00241 0.0
O231 O 0.33848 0.14728 0.02178 0.0
H232 H 0.53788 0.08172 0.08377 0.0
H233 H 0.56054 0.05892 0.07997 0.0
H234 H 0.54488 0.06134 0.93401 0.0
H235 H 0.52842 0.08407 0.93858 0.0
H236 H 0.45778 0.19116 0.96353 0.0
H237 H 0.40055 0.21241 0.95084 0.0
H238 H 0.31464 0.21275 0.08564 0.0
H239 H 0.37531 0.19154 0.09867 0.0
Pr240 Pr 0.59559 0.12189 0.52308 0.0
Pr241 Pr 0.60806 0.15187 0.52635 0.0
C242 C 0.58976 0.09717 0.54754 0.0
C243 C 0.5595 0.08419 0.53555 0.0
C244 C 0.56669 0.07907 0.49238 0.0
C245 C 0.54853 0.06624 0.48385 0.0
C246 C 0.52235 0.05819 0.5182 0.0
C247 C 0.5112 0.06356 0.56076 0.0
C248 C 0.52981 0.07638 0.56929 0.0
C249 C 0.5863 0.13077 0.43336 0.0
C250 C 0.41364 0.13801 0.51459 0.0
C251 C 0.60624 0.1775 0.51723 0.0
C252 C 0.65581 0.18962 0.51837 0.0
C253 C 0.65689 0.19773 0.55612 0.0
C254 C 0.68794 0.21022 0.55389 0.0
C255 C 0.71763 0.21494 0.51366 0.0
C256 C 0.72244 0.20652 0.47714 0.0
C257 C 0.69191 0.19406 0.47941 0.0
C258 C 0.61972 0.13942 0.61187 0.0
C259 C 0.7859 0.13618 0.52261 0.0
O260 O 0.53394 0.10557 0.55891 0.0
O261 O 0.6506 0.10203 0.5252 0.0
O262 O 0.59459 0.13751 0.4686 0.0
O263 O 0.58001 0.1189 0.4443 0.0
O264 O 0.45829 0.14871 0.51462 0.0
O265 O 0.44977 0.1267 0.51816 0.0
O266 O 0.61375 0.16964 0.48366 0.0
O267 O 0.59359 0.17173 0.55513 0.0
O268 O 0.57085 0.13673 0.57755 0.0
O269 O 0.66946 0.14858 0.60061 0.0
O270 O 0.74417 0.12629 0.53763 0.0
O271 O 0.7459 0.14666 0.50931 0.0
H272 H 0.58912 0.08487 0.46561 0.0
H273 H 0.55875 0.06255 0.4507 0.0
H274 H 0.48932 0.05783 0.58783 0.0
H275 H 0.5234 0.08012 0.60283 0.0
H276 H 0.62947 0.19467 0.58667 0.0
H277 H 0.68326 0.21641 0.58267 0.0
H278 H 0.74635 0.20976 0.44587 0.0
H279 H 0.69262 0.18814 0.44967 0.0
Pr280 Pr 0.47512 0.86909 0.51609 0.0
Pr281 Pr 0.48046 0.89853 0.5228 0.0
C282 C 0.45936 0.84447 0.54009 0.0
C283 C 0.41871 0.83197 0.52907 0.0
C284 C 0.43479 0.82542 0.48947 0.0
C285 C 0.40519 0.81301 0.48217 0.0
C286 C 0.35742 0.80674 0.51392 0.0
C287 C 0.33938 0.81349 0.55305 0.0
C288 C 0.36995 0.8259 0.56056 0.0
C289 C 0.4717 0.87821 0.42662 0.0
C290 C 0.29078 0.8855 0.51083 0.0
C291 C 0.50998 0.92368 0.51954 0.0
C292 C 0.52626 0.93751 0.51768 0.0
C293 C 0.51034 0.94542 0.55417 0.0
C294 C 0.5185 0.95864 0.55066 0.0
C295 C 0.54383 0.96423 0.51071 0.0
C296 C 0.56569 0.95614 0.47557 0.0
C297 C 0.55598 0.94298 0.4788 0.0
C298 C 0.47452 0.88563 0.60608 0.0
C299 C 0.66456 0.88246 0.5186 0.0
O300 O 0.41243 0.85356 0.55542 0.0
O301 O 0.51773 0.84863 0.51447 0.0
O302 O 0.47432 0.8851 0.46171 0.0
O303 O 0.46709 0.86633 0.4377 0.0
O304 O 0.33253 0.89626 0.50678 0.0
O305 O 0.33045 0.87456 0.51781 0.0
O306 O 0.48601 0.91704 0.48356 0.0
O307 O 0.51723 0.91725 0.55725 0.0
O308 O 0.51951 0.88269 0.57409 0.0
O309 O 0.4262 0.8952 0.59337 0.0
O310 O 0.62288 0.87172 0.5229 0.0
O311 O 0.62546 0.89357 0.51547 0.0
H312 H 0.4725 0.82973 0.46454 0.0
H313 H 0.42265 0.80822 0.45202 0.0
H314 H 0.30199 0.80919 0.57811 0.0
H315 H 0.35694 0.83068 0.59159 0.0
H316 H 0.48821 0.94143 0.58479 0.0
H317 H 0.50099 0.96446 0.57851 0.0
H318 H 0.58852 0.95997 0.4449 0.0
H319 H 0.57076 0.93708 0.45057 0.0
H320 H 0.42086 0.39444 0.0757 0.0
H321 H 0.35021 0.37375 0.95215 0.0
H322 H 0.50119 0.37172 0.93752 0.0
H323 H 0.60285 0.41159 0.03562 0.0
H324 H 0.66878 0.40986 0.08765 0.0
H325 H 0.55421 0.41028 0.08849 0.0
H326 H 0.5584 0.38877 0.13059 0.0
H327 H 0.67292 0.38824 0.12949 0.0
H328 H 0.60884 0.37531 0.10626 0.0
H329 H 0.65641 0.37065 0.93695 0.0
H330 H 0.81296 0.37173 0.94843 0.0
H331 H 0.79191 0.39346 0.07115 0.0
C332 C 0.43753 0.38966 0.04536 0.0
C333 C 0.37351 0.38422 0.01507 0.0
C334 C 0.39789 0.37787 0.97604 0.0
C335 C 0.48362 0.37669 0.96732 0.0
C336 C 0.5452 0.38184 0.998 0.0
C337 C 0.52403 0.38824 0.03621 0.0
C338 C 0.60474 0.39241 0.06405 0.0
C339 C 0.60779 0.4069 0.06923 0.0
C340 C 0.61161 0.38579 0.11034 0.0
C341 C 0.67358 0.38766 0.03467 0.0
C342 C 0.63704 0.38142 0.99718 0.0
C343 C 0.68599 0.37563 0.96589 0.0
C344 C 0.77494 0.37626 0.97277 0.0
C345 C 0.81459 0.3828 0.01029 0.0
C346 C 0.76315 0.38861 0.04168 0.0
H347 H 0.30979 0.63278 0.07639 0.0
H348 H 0.23667 0.64604 0.94088 0.0
H349 H 0.38813 0.64581 0.92333 0.0
H350 H 0.50789 0.6515 0.0905 0.0
H351 H 0.56607 0.63938 0.12272 0.0
H352 H 0.45201 0.64066 0.12474 0.0
H353 H 0.43557 0.6172 0.10041 0.0
H354 H 0.54947 0.61587 0.09784 0.0
H355 H 0.47895 0.61198 0.04909 0.0
H356 H 0.5459 0.6436 0.91927 0.0
H357 H 0.70282 0.64128 0.93075 0.0
H358 H 0.67919 0.63001 0.0695 0.0
C359 C 0.32627 0.63579 0.0433 0.0
C360 C 0.26187 0.63958 0.00998 0.0
C361 C 0.28529 0.6433 0.96692 0.0
C362 C 0.37107 0.64311 0.95662 0.0
C363 C 0.43324 0.63926 0.98987 0.0
C364 C 0.41238 0.63583 0.0326 0.0
C365 C 0.49255 0.63236 0.06223 0.0
C366 C 0.50539 0.64152 0.10242 0.0
C367 C 0.48889 0.61853 0.07833 0.0
C368 C 0.56134 0.63416 0.02922 0.0
C369 C 0.52519 0.63811 0.98765 0.0
C370 C 0.5749 0.64052 0.95164 0.0
C371 C 0.6639 0.6391 0.95833 0.0
C372 C 0.70287 0.63526 0.00058 0.0
C373 C 0.6508 0.63272 0.03653 0.0
H374 H 0.77215 0.6485 0.46885 0.0
H375 H 0.84141 0.62553 0.58731 0.0
H376 H 0.68967 0.62286 0.60012 0.0
H377 H 0.59035 0.66461 0.50966 0.0
H378 H 0.52463 0.6636 0.45731 0.0
H379 H 0.6392 0.66394 0.45669 0.0
H380 H 0.63487 0.64301 0.41128 0.0
H381 H 0.52024 0.64257 0.41191 0.0
H382 H 0.58351 0.6293 0.43315 0.0
H383 H 0.53411 0.62199 0.60029 0.0
H384 H 0.37765 0.62375 0.58974 0.0
H385 H 0.40053 0.64752 0.47197 0.0
C386 C 0.75488 0.64306 0.49771 0.0
C387 C 0.81856 0.63728 0.52739 0.0
C388 C 0.79375 0.63001 0.5642 0.0
C389 C 0.70768 0.62843 0.57175 0.0
C390 C 0.64639 0.63405 0.54189 0.0
C391 C 0.66814 0.6412 0.50548 0.0
C392 C 0.5878 0.64582 0.47818 0.0
C393 C 0.58538 0.66036 0.47533 0.0
C394 C 0.58123 0.63982 0.43083 0.0
C395 C 0.51842 0.64069 0.50651 0.0
C396 C 0.55442 0.63369 0.54239 0.0
C397 C 0.50495 0.62753 0.57257 0.0
C398 C 0.41606 0.62858 0.56627 0.0
C399 C 0.37689 0.63591 0.53055 0.0
C400 C 0.42888 0.64207 0.50017 0.0
H401 H 0.67373 0.37416 0.56234 0.0
H402 H 0.69506 0.39857 0.44606 0.0
H403 H 0.53841 0.40001 0.43546 0.0
H404 H 0.48574 0.35695 0.52334 0.0
H405 H 0.43695 0.35715 0.57634 0.0
H406 H 0.55149 0.35781 0.57573 0.0
H407 H 0.55441 0.37853 0.62244 0.0
H408 H 0.43989 0.37786 0.62347 0.0
H409 H 0.48984 0.3918 0.60236 0.0
H410 H 0.38285 0.39845 0.43466 0.0
H411 H 0.23182 0.39553 0.44701 0.0
H412 H 0.30144 0.37284 0.5663 0.0
C413 C 0.64508 0.37973 0.53451 0.0
C414 C 0.69693 0.38613 0.50455 0.0
C415 C 0.65708 0.39356 0.46927 0.0
C416 C 0.56798 0.39442 0.46292 0.0
C417 C 0.51881 0.38798 0.49261 0.0
C418 C 0.55531 0.38095 0.52824 0.0
C419 C 0.48603 0.37554 0.5562 0.0
C420 C 0.49033 0.36099 0.55798 0.0
C421 C 0.49297 0.38127 0.60395 0.0
C422 C 0.4052 0.38013 0.52924 0.0
C423 C 0.4267 0.38738 0.493 0.0
C424 C 0.36515 0.39286 0.46304 0.0
C425 C 0.2792 0.39113 0.47045 0.0
C426 C 0.2541 0.38396 0.50763 0.0
C427 C 0.3183 0.37823 0.53727 0.0
H428 H 0.90559 0.86694 0.03007 0.0
H429 H 0.86278 0.9074 0.01146 0.0
H430 H 1.01518 0.91046 0.00256 0.0
H431 H 0.10916 0.87032 0.09614 0.0
H432 H 0.15799 0.85666 0.07222 0.0
H433 H 0.04395 0.85719 0.07549 0.0
H434 H 1.02186 0.85321 0.98943 0.0
H435 H 0.13592 0.85271 0.98597 0.0
H436 H 0.07179 0.86364 0.95119 0.0
H437 H 0.16754 0.90966 0.99411 0.0
H438 H 0.32052 0.9055 0.99447 0.0
H439 H 0.27744 0.86564 0.0223 0.0
C440 C 0.92854 0.87643 0.02412 0.0
C441 C 0.87148 0.88694 0.02158 0.0
C442 C 0.90446 0.8992 0.01401 0.0
C443 C 0.99118 0.90105 0.00855 0.0
C444 C 0.04534 0.89058 0.01111 0.0
C445 C 1.01629 0.87852 0.01929 0.0
C446 C 0.09082 0.86914 0.02237 0.0
C447 C 0.10108 0.86296 0.06936 0.0
C448 C 0.07938 0.85907 0.98501 0.0
C449 C 0.16572 0.87789 0.0147 0.0
C450 C 0.13663 0.89017 0.00774 0.0
C451 C 0.19132 0.90011 -0.00015 0.0
C452 C 0.27855 0.89761 0.00023 0.0
C453 C 0.31186 0.88526 0.00889 0.0
C454 C 0.25419 0.87516 0.01536 0.0
H455 H 0.17614 0.12458 0.05858 0.0
H456 H 0.21083 0.15041 0.94793 0.0
H457 H 0.05515 0.15388 0.93789 0.0
H458 H 0.97567 0.11028 0.0143 0.0
H459 H 0.92923 0.10999 0.06796 0.0
H460 H 0.0434 0.10905 0.06595 0.0
H461 H 0.06123 0.12845 0.11911 0.0
H462 H 0.947 0.12948 0.12096 0.0
H463 H 1.00633 0.14302 0.10371 0.0
H464 H 0.89959 0.15575 0.94202 0.0
H465 H 0.74697 0.15457 0.95617 0.0
H466 H 0.80592 0.12702 0.06239 0.0
C467 C 0.15028 0.13072 0.0317 0.0
C468 C 0.20499 0.13708 0.00333 0.0
C469 C 0.16965 0.14537 0.96949 0.0
C470 C 0.08147 0.14744 0.9637 0.0
C471 C 1.02911 0.14124 0.9924 0.0
C472 C 0.06157 0.133 0.02568 0.0
C473 C 0.99005 0.12799 0.05271 0.0
C474 C 0.98426 0.11346 0.05003 0.0
C475 C 1.00189 0.1325 0.10204 0.0
C476 C 0.91261 0.13431 0.02809 0.0
C477 C 0.93746 0.14214 0.99418 0.0
C478 C 0.87909 0.14956 0.96814 0.0
C479 C 0.79269 0.14888 0.9765 0.0
C480 C 0.76499 0.14065 0.00994 0.0
C481 C 0.82566 0.13325 0.03614 0.0
H482 H 0.29627 0.14037 0.57861 0.0
H483 H 0.31906 0.13617 0.435 0.0
H484 H 0.16161 0.13486 0.42216 0.0
H485 H 0.12366 0.11871 0.587 0.0
H486 H 0.06951 0.12789 0.62731 0.0
H487 H 0.18356 0.12918 0.62547 0.0
H488 H 0.17019 0.15344 0.61434 0.0
H489 H 0.05616 0.15228 0.61671 0.0
H490 H 0.09981 0.15963 0.56877 0.0
H491 H 1.00269 0.13353 0.42481 0.0
H492 H 0.85118 0.13307 0.4422 0.0
H493 H 0.92744 0.13773 0.58445 0.0
C494 C 0.26758 0.13936 0.54448 0.0
C495 C 0.31931 0.13852 0.50755 0.0
C496 C 0.28021 0.13698 0.46348 0.0
C497 C 0.19095 0.13618 0.45598 0.0
C498 C 0.14144 0.13689 0.49298 0.0
C499 C 0.17809 0.13854 0.53638 0.0
C500 C 0.10972 0.13888 0.57011 0.0
C501 C 0.12239 0.12802 0.6045 0.0
C502 C 0.10893 0.15183 0.59388 0.0
C503 C 1.02913 0.13697 0.53898 0.0
C504 C 0.04929 0.1359 0.49461 0.0
C505 C 0.98625 0.13431 0.45942 0.0
C506 C 0.90041 0.134 0.46959 0.0
C507 C 0.87782 0.13512 0.51459 0.0
C508 C 0.94315 0.13657 0.54983 0.0
H509 H 0.79928 0.89457 0.56644 0.0
H510 H 0.73669 0.86869 0.45552 0.0
H511 H 0.88888 0.86758 0.44022 0.0
H512 H 0.9676 0.91186 0.52035 0.0
H513 H 0.03623 0.91237 0.57182 0.0
H514 H 0.92221 0.91134 0.57428 0.0
H515 H 0.94035 0.89114 0.62341 0.0
H516 H 0.05456 0.89214 0.62146 0.0
H517 H 0.9991 0.87785 0.60351 0.0
H518 H 0.04499 0.86923 0.43604 0.0
H519 H 0.20091 0.87244 0.44598 0.0
H520 H 0.16892 0.8969 0.56072 0.0
C521 C 0.81816 0.88873 0.53893 0.0
C522 C 0.75663 0.88177 0.51179 0.0
C523 C 0.78315 0.87404 0.47661 0.0
C524 C 0.86929 0.87339 0.46762 0.0
C525 C 0.9286 0.88035 0.49471 0.0
C526 C 0.90484 0.88771 0.53017 0.0
C527 C 0.98301 0.89362 0.55539 0.0
C528 C 0.97687 0.90816 0.55542 0.0
C529 C 0.99496 0.88838 0.60381 0.0
C530 C 0.05365 0.88897 0.52704 0.0
C531 C 1.02028 0.8812 0.49259 0.0
C532 C 0.07195 0.87532 0.46273 0.0
C533 C 0.16031 0.87724 0.4685 0.0
C534 C 0.19654 0.88509 0.50342 0.0
C535 C 0.14247 0.89112 0.53298 0.0
H536 H 0.09423 0.53743 0.0708 0.0
H537 H 0.98525 0.54391 0.934 0.0
H538 H 0.95888 0.52108 0.92466 0.0
H539 H 0.20151 0.50782 0.04598 0.0
H540 H 0.18101 0.50038 0.0987 0.0
H541 H 0.19044 0.51738 0.09553 0.0
H542 H 0.04212 0.51966 0.12688 0.0
H543 H 1.03125 0.50267 0.12921 0.0
H544 H 0.95084 0.51205 0.09805 0.0
H545 H 0.93839 0.49795 0.92972 0.0
H546 H 0.94208 0.47507 0.94537 0.0
H547 H 0.07219 0.48239 0.07717 0.0
C548 C 0.06495 0.53399 0.03895 0.0
C549 C 0.04221 0.54251 0.00298 0.0
C550 C 1.00438 0.53762 0.96179 0.0
C551 C 0.98833 0.52464 0.95625 0.0
C552 C 1.01078 0.51652 0.99211 0.0
C553 C 0.04949 0.5209 0.03248 0.0
C554 C 0.06978 0.50985 0.06466 0.0
C555 C 0.16644 0.5088 0.07692 0.0
C556 C 1.02055 0.51114 0.10722 0.0
C557 C 0.03698 0.49868 0.03572 0.0
C558 C 1.00199 0.50286 0.99435 0.0
C559 C 0.9668 0.49451 0.96175 0.0
C560 C 0.96979 0.48147 0.9709 0.0
C561 C 1.00903 0.47674 0.01211 0.0
C562 C 0.04145 0.48558 0.04532 0.0
H563 H 1.02599 0.48407 0.45499 0.0
H564 H 0.08178 0.4763 0.59804 0.0
H565 H 0.0721 0.49907 0.61412 0.0
H566 H 0.15767 0.51377 0.45943 0.0
H567 H 0.08796 0.52128 0.4164 0.0
H568 H 0.10195 0.50432 0.41609 0.0
H569 H 0.93822 0.50163 0.41593 0.0
H570 H 0.92386 0.51855 0.4177 0.0
H571 H 0.88222 0.50868 0.46046 0.0
H572 H 0.04737 0.52246 0.61588 0.0
H573 H 1.03244 0.54529 0.60254 0.0
H574 H 0.9964 0.53833 0.45796 0.0
C575 C 0.03801 0.48707 0.4897 0.0
C576 C 0.05191 0.47811 0.52531 0.0
C577 C 0.06727 0.48273 0.5701 0.0
C578 C 0.06274 0.49572 0.57967 0.0
C579 C 0.04525 0.50415 0.54408 0.0
C580 C 1.03584 0.50007 0.49985 0.0
C581 C 1.02107 0.51125 0.46783 0.0
C582 C 0.09663 0.51274 0.43819 0.0
C583 C 0.93625 0.50995 0.4388 0.0
C584 C 1.01863 0.52213 0.50127 0.0
C585 C 1.03362 0.51779 0.54499 0.0
C586 C 1.03603 0.52599 0.58174 0.0
C587 C 1.02605 0.53903 0.57368 0.0
C588 C 1.01296 0.54389 0.52908 0.0
C589 C 1.0075 0.53515 0.49253 0.0
H590 H 0.48575 0.98474 0.07363 0.0
H591 H 0.5759 0.97504 0.94304 0.0
H592 H 0.59435 0.99761 0.92699 0.0
H593 H 0.37466 0.01368 0.04237 0.0
H594 H 0.41083 0.02185 0.0936 0.0
H595 H 0.39955 1.00487 0.09374 0.0
H596 H 0.557 1.00287 0.1257 0.0
H597 H 0.56932 0.01985 0.1244 0.0
H598 H 0.6402 1.00984 0.09529 0.0
H599 H 0.61892 0.02098 0.92774 0.0
H600 H 0.62324 0.04395 0.93917 0.0
H601 H 0.51007 0.03911 0.06737 0.0
C602 C 0.50954 0.98727 0.0416 0.0
C603 C 0.5293 0.97783 0.00978 0.0
C604 C 0.55859 0.98184 0.968 0.0
C605 C 0.57063 0.99473 0.95867 0.0
C606 C 0.55382 1.00364 0.99141 0.0
C607 C 0.52282 1.00014 0.03181 0.0
C608 C 0.5116 0.0117 0.06145 0.0
C609 C 0.41859 0.0131 0.07345 0.0
C610 C 0.57316 0.01102 0.10425 0.0
C611 C 0.53721 0.02226 0.03034 0.0
C612 C 0.56394 0.01731 0.99081 0.0
C613 C 0.59556 0.02501 0.95796 0.0
C614 C 0.59664 0.03817 0.96467 0.0
C615 C 0.56337 0.04372 0.00328 0.0
C616 C 0.53534 0.03547 0.03709 0.0
H617 H 0.55714 0.03828 0.57833 0.0
H618 H 0.46211 0.04612 0.43984 0.0
H619 H 0.46165 0.02325 0.42353 0.0
H620 H 0.6928 0.0131 0.55867 0.0
H621 H 0.66663 1.00345 0.60579 0.0
H622 H 0.65588 0.02043 0.60845 0.0
H623 H 0.49709 0.01832 0.62494 0.0
H624 H 0.50813 1.00131 0.6238 0.0
H625 H 0.42616 1.00898 0.58773 0.0
H626 H 0.47988 0.99984 0.42027 0.0
H627 H 0.49747 0.97697 0.4322 0.0
H628 H 0.57756 0.98369 0.57352 0.0
C629 C 0.53452 0.03524 0.54475 0.0
C630 C 0.5115 0.0442 0.51014 0.0
C631 C 0.48281 0.03962 0.4667 0.0
C632 C 0.48167 0.0266 0.45711 0.0
C633 C 0.50778 0.01814 0.49145 0.0
C634 C 0.53165 0.02221 0.5347 0.0
C635 C 0.55548 0.01101 0.56547 0.0
C636 C 0.64823 0.01206 0.58576 0.0
C637 C 0.493 1.00984 0.60269 0.0
C638 C 0.54433 1.00007 0.53221 0.0
C639 C 0.51643 1.00445 0.48982 0.0
C640 C 0.50129 0.99628 0.45337 0.0
C641 C 0.51265 0.98323 0.4605 0.0
C642 C 0.5395 0.97833 0.5038 0.0
C643 C 0.55627 0.98699 0.54003 0.0
H644 H 0.28184 0.28854 0.07459 0.0
H645 H 0.19977 0.29326 0.93258 0.0
H646 H 0.21822 0.27043 0.92051 0.0
H647 H 0.44237 0.26458 0.05995 0.0
H648 H 0.41916 0.25562 0.10922 0.0
H649 H 0.39963 0.27245 0.10719 0.0
H650 H 0.24264 0.26845 0.12396 0.0
H651 H 0.26136 0.25158 0.12522 0.0
H652 H 0.17714 0.25811 0.08756 0.0
H653 H 0.24004 0.24708 0.92312 0.0
H654 H 0.27867 0.22483 0.93875 0.0
H655 H 0.3525 0.23458 0.07839 0.0
C656 C 0.26773 0.28478 0.04096 0.0
C657 C 0.24001 0.29288 0.00446 0.0
C658 C 0.22279 0.28746 0.96101 0.0
C659 C 0.23211 0.27441 0.95382 0.0
C660 C 0.25871 0.26673 0.99033 0.0
C661 C 0.27713 0.27167 0.03302 0.0
C662 C 0.30605 0.26118 0.06604 0.0
C663 C 0.39723 0.26361 0.0868 0.0
C664 C 0.24305 0.25975 0.10288 0.0
C665 C 0.30272 0.24968 0.03488 0.0
C666 C 0.2737 0.25313 0.99158 0.0
C667 C 0.26403 0.24428 0.95678 0.0
C668 C 0.28691 0.23163 0.966 0.0
C669 C 0.3207 0.22782 0.00959 0.0
C670 C 0.32689 0.23704 0.04467 0.0
H671 H 0.69673 0.78629 0.95648 0.0
H672 H 0.82285 0.79809 0.08473 0.0
H673 H 0.86885 0.77605 0.09999 0.0
H674 H 0.61976 0.75675 0.99464 0.0
H675 H 0.63707 0.74807 0.94386 0.0
H676 H 0.61704 0.76489 0.94119 0.0
H677 H 0.75774 0.76842 0.90296 0.0
H678 H 0.77731 0.75158 0.90479 0.0
H679 H 0.85654 0.76237 0.92958 0.0
H680 H 0.89426 0.75284 0.10414 0.0
H681 H 0.90728 0.72977 0.09492 0.0
H682 H 0.76935 0.7322 0.96293 0.0
C683 C 0.73515 0.78428 0.98747 0.0
C684 C 0.75535 0.79401 0.01963 0.0
C685 C 0.80503 0.79086 0.05993 0.0
C686 C 0.83191 0.77835 0.06881 0.0
C687 C 0.80915 0.76898 0.03705 0.0
C688 C 0.76271 0.77176 0.99694 0.0
C689 C 0.74561 0.75975 0.96916 0.0
C690 C 0.64914 0.75721 0.96179 0.0
C691 C 0.78678 0.76059 0.92394 0.0
C692 C 0.78974 0.7498 6e-05 0.0
C693 C 0.82531 0.75542 0.03911 0.0
C694 C 0.86714 0.74835 0.07361 0.0
C695 C 0.87366 0.7352 0.06817 0.0
C696 C 0.83914 0.7291 0.02838 0.0
C697 C 0.79678 0.73657 0.99367 0.0
H698 H 0.262 0.73341 0.57533 0.0
H699 H 0.24142 0.72679 0.43051 0.0
H700 H 0.26734 0.74933 0.41732 0.0
H701 H 0.15513 0.764 0.56931 0.0
H702 H 0.2222 0.77113 0.61428 0.0
H703 H 0.20379 0.75426 0.61405 0.0
H704 H 0.36647 0.75005 0.61802 0.0
H705 H 0.38531 0.76689 0.61919 0.0
H706 H 0.42979 0.75723 0.57674 0.0
H707 H 0.28406 0.77257 0.41801 0.0
H708 H 0.31271 0.79506 0.43274 0.0
H709 H 0.33396 0.78749 0.57712 0.0
C710 C 0.26318 0.7367 0.54087 0.0
C711 C 0.2503 0.72812 0.504 0.0
C712 C 0.25278 0.73294 0.4595 0.0
C713 C 0.26649 0.74583 0.45151 0.0
C714 C 0.27774 0.75398 0.48824 0.0
C715 C 0.2775 0.74966 0.53212 0.0
C716 C 0.29217 0.76066 0.56516 0.0
C717 C 0.21366 0.76263 0.59231 0.0
C718 C 0.3733 0.75858 0.59662 0.0
C719 C 0.30269 0.77168 0.53277 0.0
C720 C 0.29192 0.76756 0.48864 0.0
C721 C 0.29478 0.77588 0.45244 0.0
C722 C 0.3121 0.7887 0.46129 0.0
C723 C 0.32902 0.79322 0.5061 0.0
C724 C 0.32212 0.78451 0.54237 0.0
H725 H 0.87969 0.28601 0.57548 0.0
H726 H 0.74502 0.29796 0.4496 0.0
H727 H 0.69898 0.27588 0.43473 0.0
H728 H 0.9548 0.25648 0.53424 0.0
H729 H 0.94258 0.24779 0.58561 0.0
H730 H 0.9626 0.26461 0.58775 0.0
H731 H 0.82618 0.26816 0.6299 0.0
H732 H 0.80677 0.25132 0.62859 0.0
H733 H 0.72542 0.26212 0.60583 0.0
H734 H 0.67247 0.25246 0.43153 0.0
H735 H 0.65845 0.22944 0.4423 0.0
H736 H 0.80762 0.23211 0.57105 0.0
C737 C 0.83955 0.28402 0.54506 0.0
C738 C 0.81653 0.29381 0.51356 0.0
C739 C 0.76477 0.29068 0.47393 0.0
C740 C 0.73795 0.27815 0.46527 0.0
C741 C 0.76328 0.26873 0.49648 0.0
C742 C 0.81235 0.2715 0.53578 0.0
C743 C 0.83204 0.25949 0.5632 0.0
C744 C 0.92874 0.25694 0.56798 0.0
C745 C 0.79538 0.26033 0.60963 0.0
C746 C 0.78545 0.24957 0.5334 0.0
C747 C 0.74706 0.25515 0.49489 0.0
C748 C 0.70205 0.24801 0.46161 0.0
C749 C 0.69502 0.23488 0.46791 0.0
C750 C 0.73214 0.22887 0.50737 0.0
C751 C 0.77812 0.23639 0.54059 0.0
H752 H 1.02039 0.36479 0.17184 0.0
H753 H 0.13692 0.40158 0.15657 0.0
H754 H 0.11648 0.40629 0.23759 0.0
H755 H 0.86065 0.37408 0.24139 0.0
H756 H 0.86725 0.35963 0.27394 0.0
H757 H 0.89432 0.35954 0.21617 0.0
H758 H 0.04426 0.3503 0.24041 0.0
H759 H 1.01726 0.35008 0.29818 0.0
H760 H 0.11151 0.35833 0.28322 0.0
H761 H 0.07636 0.40621 0.32469 0.0
H762 H 1.03362 0.40089 0.40171 0.0
H763 H 0.94456 0.36423 0.35274 0.0
C764 C 0.04211 0.37388 0.18522 0.0
C765 C 0.08009 0.38281 0.15774 0.0
C766 C 0.10806 0.39453 0.17709 0.0
C767 C 0.09611 0.39728 0.22303 0.0
C768 C 0.05659 0.38818 0.24899 0.0
C769 C 1.03111 0.37668 0.23021 0.0
C770 C 0.99124 0.3682 0.26354 0.0
C771 C 0.89784 0.36519 0.24782 0.0
C772 C 0.04422 0.35601 0.27182 0.0
C773 C 0.9969 0.3766 0.30461 0.0
C774 C 1.03453 0.38814 0.29635 0.0
C775 C 0.04684 0.39717 0.33091 0.0
C776 C 1.02183 0.39412 0.37457 0.0
C777 C 0.98526 0.38214 0.38322 0.0
C778 C 0.97192 0.37348 0.34735 0.0
H779 H 0.0788 0.64898 0.16297 0.0
H780 H 0.8867 0.61941 0.15259 0.0
H781 H 0.87953 0.61964 0.23468 0.0
H782 H 0.19524 0.63955 0.25584 0.0
H783 H 0.21105 0.65443 0.28521 0.0
H784 H 0.19001 0.65429 0.22487 0.0
H785 H 0.06053 0.66918 0.23097 0.0
H786 H 0.08199 0.66954 0.29151 0.0
H787 H 0.97824 0.66487 0.26716 0.0
H788 H 0.91122 0.61966 0.31646 0.0
H789 H 0.97014 0.6213 0.39557 0.0
H790 H 0.13959 0.65132 0.35848 0.0
C791 C 1.03237 0.64305 0.17796 0.0
C792 C 0.98253 0.63424 0.15112 0.0
C793 C 0.92471 0.62631 0.17224 0.0
C794 C 0.92019 0.62635 0.21902 0.0
C795 C 0.97269 0.63459 0.24488 0.0
C796 C 1.02587 0.64312 0.22539 0.0
C797 C 0.07801 0.65045 0.26234 0.0
C798 C 0.1743 0.64961 0.25671 0.0
C799 C 0.04797 0.66433 0.26302 0.0
C800 C 0.05359 0.64355 0.30469 0.0
C801 C 0.99019 0.63477 0.29358 0.0
C802 C 0.9591 0.62674 0.32581 0.0
C803 C 0.99306 0.62771 0.37066 0.0
C804 C 0.05831 0.63652 0.38318 0.0
C805 C 0.08881 0.64462 0.3498 0.0
H806 H 0.89198 0.64691 0.84221 0.0
H807 H 0.11071 0.62744 0.90715 0.0
H808 H 0.16528 0.62334 0.83219 0.0
H809 H 0.8742 0.62507 0.73941 0.0
H810 H 0.8378 0.63794 0.70293 0.0
H811 H 0.81146 0.63769 0.76098 0.0
H812 H 0.87835 0.66 0.77294 0.0
H813 H 0.90542 0.66028 0.71527 0.0
H814 H 0.98758 0.66256 0.76032 0.0
H815 H 0.20454 0.624 0.74848 0.0
H816 H 0.21961 0.6286 0.66724 0.0
H817 H 0.97297 0.64709 0.65807 0.0
C818 C 0.94984 0.6414 0.84046 0.0
C819 C 0.99639 0.63732 0.88052 0.0
C820 C 0.07284 0.63037 0.87693 0.0
C821 C 0.10456 0.62808 0.83438 0.0
C822 C 0.05799 0.6325 0.79542 0.0
C823 C 0.98096 0.63873 0.79822 0.0
C824 C 0.94406 0.64289 0.75179 0.0
C825 C 0.862 0.63546 0.73797 0.0
C826 C 0.928 0.65729 0.75001 0.0
C827 C 1.0153 0.63904 0.72285 0.0
C828 C 0.07972 0.63273 0.74815 0.0
C829 C 0.15343 0.62871 0.72844 0.0
C830 C 0.1615 0.6313 0.68219 0.0
C831 C 0.09688 0.63802 0.65623 0.0
C832 C 1.02281 0.64179 0.67698 0.0
H833 H 1.0352 0.40689 0.67649 0.0
H834 H 0.98246 0.36777 0.64009 0.0
H835 H 0.99636 0.36188 0.72174 0.0
H836 H 0.19388 0.40103 0.76472 0.0
H837 H 0.161 0.41408 0.79857 0.0
H838 H 0.14319 0.41474 0.73806 0.0
H839 H 0.98139 0.41858 0.7452 0.0
H840 H 0.99857 0.41792 0.80578 0.0
H841 H 0.922 0.40749 0.77672 0.0
H842 H 1.01366 0.36111 0.81192 0.0
H843 H 0.04241 0.3652 0.89436 0.0
H844 H 0.09153 0.40467 0.86589 0.0
C845 C 1.02643 0.39705 0.68542 0.0
C846 C 1.00756 0.38781 0.65186 0.0
C847 C 0.99698 0.37503 0.66526 0.0
C848 C 1.00456 0.37163 0.7116 0.0
C849 C 1.02319 0.38112 0.74395 0.0
C850 C 1.03441 0.39355 0.73087 0.0
C851 C 0.05575 0.40213 0.77078 0.0
C852 C 0.14368 0.40836 0.76785 0.0
C853 C 0.98525 0.41212 0.77485 0.0
C854 C 0.05688 0.39268 0.80892 0.0
C855 C 0.03635 0.3806 0.79346 0.0
C856 C 1.03051 0.37054 0.82387 0.0
C857 C 0.04678 0.37293 0.87066 0.0
C858 C 0.0704 0.38522 0.88649 0.0
C859 C 0.07512 0.39513 0.85492 0.0
H860 H 0.62236 0.86345 0.1836 0.0
H861 H 0.55141 0.90128 0.13825 0.0
H862 H 0.51562 0.90676 0.21632 0.0
H863 H 0.45783 0.85882 0.25225 0.0
H864 H 0.52075 0.84995 0.29471 0.0
H865 H 0.54964 0.84992 0.23732 0.0
H866 H 0.70163 0.85803 0.26324 0.0
H867 H 0.67377 0.85789 0.32096 0.0
H868 H 0.7132 0.87223 0.29693 0.0
H869 H 0.47979 0.90701 0.30399 0.0
H870 H 0.44919 0.90184 0.3833 0.0
H871 H 0.53905 0.86353 0.36427 0.0
C872 C 0.60057 0.87298 0.19003 0.0
C873 C 0.58986 0.88191 0.15469 0.0
C874 C 0.56078 0.89427 0.1648 0.0
C875 C 0.54008 0.89744 0.20916 0.0
C876 C 0.54927 0.88817 0.24315 0.0
C877 C 0.57976 0.87623 0.23357 0.0
C878 C 0.5808 0.86756 0.27405 0.0
C879 C 0.52386 0.85588 0.26397 0.0
C880 C 0.67281 0.8637 0.28971 0.0
C881 C 0.54366 0.87619 0.30802 0.0
C882 C 0.52698 0.88818 0.29058 0.0
C883 C 0.49291 0.89761 0.31742 0.0
C884 C 0.47559 0.89461 0.36251 0.0
C885 C 0.49064 0.88221 0.38001 0.0
C886 C 0.52547 0.87305 0.35201 0.0
H887 H 0.4267 0.12266 0.17492 0.0
H888 H 0.5827 0.15473 0.14218 0.0
H889 H 0.62025 0.15834 0.22402 0.0
H890 H 0.34869 0.13509 0.27807 0.0
H891 H 0.35485 0.11987 0.30573 0.0
H892 H 0.33534 0.12076 0.24526 0.0
H893 H 0.46637 0.10631 0.23547 0.0
H894 H 0.48618 0.10529 0.2958 0.0
H895 H 0.56917 0.11075 0.26185 0.0
H896 H 0.64222 0.15776 0.31264 0.0
H897 H 0.65432 0.15203 0.39431 0.0
H898 H 0.49106 0.11956 0.36495 0.0
C899 C 0.46766 0.13059 0.18484 0.0
C900 C 0.50093 0.13851 0.15211 0.0
C901 C 0.55578 0.14861 0.1667 0.0
C902 C 0.57739 0.15072 0.21315 0.0
C903 C 0.5441 0.14259 0.24463 0.0
C904 C 0.49074 0.13268 0.2307 0.0
C905 C 0.4676 0.12467 0.27017 0.0
C906 C 0.37088 0.12513 0.2751 0.0
C907 C 0.49923 0.11095 0.26554 0.0
C908 C 0.51659 0.13146 0.30876 0.0
C909 C 0.55946 0.14192 0.29389 0.0
C910 C 0.60875 0.14957 0.32434 0.0
C911 C 0.6151 0.1463 0.37069 0.0
C912 C 0.57392 0.13533 0.3859 0.0
C913 C 0.52368 0.12796 0.35434 0.0
H914 H 0.5417 0.12626 0.87474 0.0
H915 H 0.38023 0.15973 0.86243 0.0
H916 H 0.39435 0.16026 0.7811 0.0
H917 H 0.68754 0.13377 0.80038 0.0
H918 H 0.69512 0.11884 0.77138 0.0
H919 H 0.6619 0.11918 0.82801 0.0
H920 H 0.52313 0.10726 0.80204 0.0
H921 H 0.55674 0.10671 0.74533 0.0
H922 H 0.45468 0.11346 0.75574 0.0
H923 H 0.444 0.16017 0.70605 0.0
H924 H 0.51308 0.15749 0.63515 0.0
H925 H 0.63939 0.12342 0.68806 0.0
C926 C 0.50681 0.13336 0.85451 0.0
C927 C 0.46 0.14303 0.87539 0.0
C928 C 0.41667 0.15228 0.84765 0.0
C929 C 0.42417 0.15267 0.80116 0.0
C930 C 0.47401 0.14357 0.78188 0.0
C931 C 0.51259 0.1338 0.80695 0.0
C932 C 0.56434 0.12557 0.77636 0.0
C933 C 0.6578 0.12428 0.79518 0.0
C934 C 0.52226 0.11247 0.76948 0.0
C935 C 0.55626 0.13316 0.73227 0.0
C936 C 0.50154 0.14329 0.73642 0.0
C937 C 0.48557 0.15213 0.70197 0.0
C938 C 0.52566 0.1506 0.66191 0.0
C939 C 0.58174 0.14034 0.65612 0.0
C940 C 0.59689 0.13138 0.69167 0.0
H941 H 0.44044 0.86998 0.67861 0.0
H942 H 0.59395 0.90171 0.63963 0.0
H943 H 0.65342 0.90407 0.71821 0.0
H944 H 0.38055 0.88116 0.77964 0.0
H945 H 0.39366 0.86676 0.81223 0.0
H946 H 0.37338 0.86594 0.75192 0.0
H947 H 0.50985 0.8525 0.74655 0.0
H948 H 0.53078 0.85328 0.80707 0.0
H949 H 0.61071 0.85842 0.7707 0.0
H950 H 0.68468 0.90485 0.79909 0.0
H951 H 0.67892 0.90538 0.88109 0.0
H952 H 0.50487 0.87338 0.87428 0.0
C953 C 0.48807 0.8772 0.68681 0.0
C954 C 0.51344 0.88564 0.6531 0.0
C955 C 0.57468 0.8951 0.66488 0.0
C956 C 0.60909 0.89646 0.7094 0.0
C957 C 0.58268 0.88816 0.74205 0.0
C958 C 0.52409 0.87864 0.73167 0.0
C959 C 0.50359 0.87167 0.77467 0.0
C960 C 0.40703 0.87138 0.77992 0.0
C961 C 0.54089 0.85817 0.77476 0.0
C962 C 0.55162 0.87979 0.81092 0.0
C963 C 0.60005 0.88879 0.79059 0.0
C964 C 0.64791 0.89777 0.81548 0.0
C965 C 0.64401 0.898 0.86223 0.0
C966 C 0.59177 0.88944 0.88434 0.0
C967 C 0.54665 0.8799 0.85848 0.0
loop_
_geom_bond_atom_site_label_1
_geom_bond_atom_site_label_2
_geom_bond_distance
_geom_bond_site_symmetry_2
_ccdc_geom_bond_type
Pr0 C2 2.880 . S
Pr0 O20 2.562 1_554 S
Pr0 O21 2.490 . S
Pr0 O22 2.695 . S
Pr0 O23 2.512 . S
Pr0 O25 2.437 . S
Pr0 O28 2.436 1_554 S
Pr0 O30 2.438 1_455 S
Pr1 C11 2.880 1_455 S
Pr1 O22 2.436 . S
Pr1 O24 2.438 . S
Pr1 O26 2.562 . S
Pr1 O27 2.490 1_554 S
Pr1 O28 2.695 1_554 S
Pr1 O29 2.512 1_554 S
Pr1 O31 2.437 1_454 S
C2 Pr0 2.880 . S
C2 C3 1.491 . S
C2 O20 1.254 1_554 S
C2 O21 1.225 . S
C3 C2 1.491 . S
C3 C4 1.392 . S
C3 C8 1.356 1_554 S
C4 C3 1.392 . S
C4 C5 1.368 . S
C4 H32 0.929 . S
C5 C4 1.368 . S
C5 C6 1.386 . S
C5 H33 0.929 . S
C6 C5 1.386 . S
C6 C7 1.373 1_554 S
C7 C6 1.373 1_556 S
C7 C8 1.409 . S
C7 H34 0.931 . S
C8 C3 1.356 1_556 S
C8 C7 1.409 . S
C8 H35 0.930 . S
C9 O22 1.270 . S
C9 O23 1.248 . S
C10 O24 1.267 . S
C10 O25 1.278 . S
C11 Pr1 2.880 1_655 S
C11 C12 1.491 . S
C11 O26 1.254 1_655 S
C11 O27 1.225 1_654 S
C12 C11 1.491 . S
C12 C13 1.392 1_554 S
C12 C17 1.356 . S
C13 C12 1.392 1_556 S
C13 C14 1.368 . S
C13 H36 0.929 . S
C14 C13 1.368 . S
C14 C15 1.386 1_556 S
C14 H37 0.929 . S
C15 C14 1.386 1_554 S
C15 C16 1.373 . S
C16 C15 1.373 . S
C16 C17 1.409 . S
C16 H38 0.931 . S
C17 C12 1.356 . S
C17 C16 1.409 . S
C17 H39 0.930 . S
C18 O28 1.270 . S
C18 O29 1.248 . S
C19 O30 1.267 . S
C19 O31 1.278 1_554 S
O20 Pr0 2.562 1_556 S
O20 C2 1.254 1_556 S
O21 Pr0 2.490 . S
O21 C2 1.225 . S
O22 Pr0 2.695 . S
O22 Pr1 2.436 . S
O22 C9 1.270 . S
O23 Pr0 2.512 . S
O23 C9 1.248 . S
O24 Pr1 2.438 . S
O24 C10 1.267 . S
O25 Pr0 2.437 . S
O25 C10 1.278 . S
O26 Pr1 2.562 . S
O26 C11 1.254 1_455 S
O27 Pr1 2.490 1_556 S
O27 C11 1.225 1_456 S
O28 Pr0 2.436 1_556 S
O28 Pr1 2.695 1_556 S
O28 C18 1.270 . S
O29 Pr1 2.512 1_556 S
O29 C18 1.248 . S
O30 Pr0 2.438 1_655 S
O30 C19 1.267 . S
O31 Pr1 2.437 1_656 S
O31 C19 1.278 1_556 S
H32 C4 0.929 . S
H33 C5 0.929 . S
H34 C7 0.931 . S
H35 C8 0.930 . S
H36 C13 0.929 . S
H37 C14 0.929 . S
H38 C16 0.931 . S
H39 C17 0.930 . S
Pr40 C42 2.880 1_655 S
Pr40 O60 2.562 1_554 S
Pr40 O61 2.490 . S
Pr40 O62 2.695 . S
Pr40 O63 2.512 . S
Pr40 O65 2.437 1_655 S
Pr40 O68 2.436 1_554 S
Pr40 O70 2.438 . S
Pr41 C51 2.880 . S
Pr41 O62 2.436 . S
Pr41 O64 2.438 1_655 S
Pr41 O66 2.562 . S
Pr41 O67 2.490 1_554 S
Pr41 O68 2.695 1_554 S
Pr41 O69 2.512 1_554 S
Pr41 O71 2.437 1_554 S
C42 Pr40 2.880 1_455 S
C42 C43 1.491 . S
C42 O60 1.254 1_454 S
C42 O61 1.225 1_455 S
C43 C42 1.491 . S
C43 C44 1.392 . S
C43 C48 1.356 1_554 S
C44 C43 1.392 . S
C44 C45 1.368 . S
C44 H72 0.929 . S
C45 C44 1.368 . S
C45 C46 1.386 . S
C45 H73 0.929 . S
C46 C45 1.386 . S
C46 C47 1.373 1_554 S
C47 C46 1.373 1_556 S
C47 C48 1.409 . S
C47 H74 0.931 . S
C48 C43 1.356 1_556 S
C48 C47 1.409 . S
C48 H75 0.930 . S
C49 O62 1.270 . S
C49 O63 1.248 . S
C50 O64 1.267 . S
C50 O65 1.278 . S
C51 Pr41 2.880 . S
C51 C52 1.491 . S
C51 O66 1.254 . S
C51 O67 1.225 1_554 S
C52 C51 1.491 . S
C52 C53 1.392 1_554 S
C52 C57 1.356 . S
C53 C52 1.392 1_556 S
C53 C54 1.368 . S
C53 H76 0.929 . S
C54 C53 1.368 . S
C54 C55 1.386 1_556 S
C54 H77 0.929 . S
C55 C54 1.386 1_554 S
C55 C56 1.373 . S
C56 C55 1.373 . S
C56 C57 1.409 . S
C56 H78 0.931 . S
C57 C52 1.356 . S
C57 C56 1.409 . S
C57 H79 0.930 . S
C58 O68 1.270 . S
C58 O69 1.248 . S
C59 O70 1.267 . S
C59 O71 1.278 1_554 S
O60 Pr40 2.562 1_556 S
O60 C42 1.254 1_656 S
O61 Pr40 2.490 . S
O61 C42 1.225 1_655 S
O62 Pr40 2.695 . S
O62 Pr41 2.436 . S
O62 C49 1.270 . S
O63 Pr40 2.512 . S
O63 C49 1.248 . S
O64 Pr41 2.438 1_455 S
O64 C50 1.267 . S
O65 Pr40 2.437 1_455 S
O65 C50 1.278 . S
O66 Pr41 2.562 . S
O66 C51 1.254 . S
O67 Pr41 2.490 1_556 S
O67 C51 1.225 1_556 S
O68 Pr40 2.436 1_556 S
O68 Pr41 2.695 1_556 S
O68 C58 1.270 . S
O69 Pr41 2.512 1_556 S
O69 C58 1.248 . S
O70 Pr40 2.438 . S
O70 C59 1.267 . S
O71 Pr41 2.437 1_556 S
O71 C59 1.278 1_556 S
H72 C44 0.929 . S
H73 C45 0.929 . S
H74 C47 0.931 . S
H75 C48 0.930 . S
H76 C53 0.929 . S
H77 C54 0.929 . S
H78 C56 0.931 . S
H79 C57 0.930 . S
Pr80 C82 2.880 1_455 S
Pr80 O100 2.562 . S
Pr80 O101 2.490 . S
Pr80 O102 2.695 . S
Pr80 O103 2.512 . S
Pr80 O105 2.437 1_455 S
Pr80 O108 2.436 . S
Pr80 O110 2.438 . S
Pr81 C91 2.880 . S
Pr81 O102 2.436 . S
Pr81 O104 2.438 1_455 S
Pr81 O106 2.562 . S
Pr81 O107 2.490 . S
Pr81 O108 2.695 . S
Pr81 O109 2.512 . S
Pr81 O111 2.437 . S
C82 Pr80 2.880 1_655 S
C82 C83 1.491 . S
C82 O100 1.254 1_655 S
C82 O101 1.225 1_655 S
C83 C82 1.491 . S
C83 C84 1.392 . S
C83 C88 1.356 . S
C84 C83 1.392 . S
C84 C85 1.368 . S
C84 H112 0.929 . S
C85 C84 1.368 . S
C85 C86 1.386 . S
C85 H113 0.929 . S
C86 C85 1.386 . S
C86 C87 1.373 . S
C87 C86 1.373 . S
C87 C88 1.409 . S
C87 H114 0.931 . S
C88 C83 1.356 . S
C88 C87 1.409 . S
C88 H115 0.930 . S
C89 O102 1.270 . S
C89 O103 1.248 . S
C90 O104 1.267 . S
C90 O105 1.278 . S
C91 Pr81 2.880 . S
C91 C92 1.491 . S
C91 O106 1.254 . S
C91 O107 1.225 . S
C92 C91 1.491 . S
C92 C93 1.392 . S
C92 C97 1.356 . S
C93 C92 1.392 . S
C93 C94 1.368 . S
C93 H116 0.929 . S
C94 C93 1.368 . S
C94 C95 1.386 . S
C94 H117 0.929 . S
C95 C94 1.386 . S
C95 C96 1.373 . S
C96 C95 1.373 . S
C96 C97 1.409 . S
C96 H118 0.931 . S
C97 C92 1.356 . S
C97 C96 1.409 . S
C97 H119 0.930 . S
C98 O108 1.270 . S
C98 O109 1.248 . S
C99 O110 1.267 . S
C99 O111 1.278 . S
O100 Pr80 2.562 . S
O100 C82 1.254 1_455 S
O101 Pr80 2.490 . S
O101 C82 1.225 1_455 S
O102 Pr80 2.695 . S
O102 Pr81 2.436 . S
O102 C89 1.270 . S
O103 Pr80 2.512 . S
O103 C89 1.248 . S
O104 Pr81 2.438 1_655 S
O104 C90 1.267 . S
O105 Pr80 2.437 1_655 S
O105 C90 1.278 . S
O106 Pr81 2.562 . S
O106 C91 1.254 . S
O107 Pr81 2.490 . S
O107 C91 1.225 . S
O108 Pr80 2.436 . S
O108 Pr81 2.695 . S
O108 C98 1.270 . S
O109 Pr81 2.512 . S
O109 C98 1.248 . S
O110 Pr80 2.438 . S
O110 C99 1.267 . S
O111 Pr81 2.437 . S
O111 C99 1.278 . S
H112 C84 0.929 . S
H113 C85 0.929 . S
H114 C87 0.931 . S
H115 C88 0.930 . S
H116 C93 0.929 . S
H117 C94 0.929 . S
H118 C96 0.931 . S
H119 C97 0.930 . S
Pr120 C122 2.880 . S
Pr120 O140 2.562 . S
Pr120 O141 2.490 . S
Pr120 O142 2.695 . S
Pr120 O143 2.512 . S
Pr120 O145 2.437 . S
Pr120 O148 2.436 . S
Pr120 O150 2.438 1_655 S
Pr121 C131 2.880 1_655 S
Pr121 O142 2.436 . S
Pr121 O144 2.438 . S
Pr121 O146 2.562 . S
Pr121 O147 2.490 . S
Pr121 O148 2.695 . S
Pr121 O149 2.512 . S
Pr121 O151 2.437 1_655 S
C122 Pr120 2.880 . S
C122 C123 1.491 . S
C122 O140 1.254 . S
C122 O141 1.225 . S
C123 C122 1.491 . S
C123 C124 1.392 . S
C123 C128 1.356 . S
C124 C123 1.392 . S
C124 C125 1.368 . S
C124 H152 0.929 . S
C125 C124 1.368 . S
C125 C126 1.386 . S
C125 H153 0.929 . S
C126 C125 1.386 . S
C126 C127 1.373 . S
C127 C126 1.373 . S
C127 C128 1.409 . S
C127 H154 0.931 . S
C128 C123 1.356 . S
C128 C127 1.409 . S
C128 H155 0.930 . S
C129 O142 1.270 . S
C129 O143 1.248 . S
C130 O144 1.267 . S
C130 O145 1.278 . S
C131 Pr121 2.880 1_455 S
C131 C132 1.491 . S
C131 O146 1.254 1_455 S
C131 O147 1.225 1_455 S
C132 C131 1.491 . S
C132 C133 1.392 . S
C132 C137 1.356 . S
C133 C132 1.392 . S
C133 C134 1.368 . S
C133 H156 0.929 . S
C134 C133 1.368 . S
C134 C135 1.386 . S
C134 H157 0.929 . S
C135 C134 1.386 . S
C135 C136 1.373 . S
C136 C135 1.373 . S
C136 C137 1.409 . S
C136 H158 0.931 . S
C137 C132 1.356 . S
C137 C136 1.409 . S
C137 H159 0.930 . S
C138 O148 1.270 . S
C138 O149 1.248 . S
C139 O150 1.267 . S
C139 O151 1.278 . S
O140 Pr120 2.562 . S
O140 C122 1.254 . S
O141 Pr120 2.490 . S
O141 C122 1.225 . S
O142 Pr120 2.695 . S
O142 Pr121 2.436 . S
O142 C129 1.270 . S
O143 Pr120 2.512 . S
O143 C129 1.248 . S
O144 Pr121 2.438 . S
O144 C130 1.267 . S
O145 Pr120 2.437 . S
O145 C130 1.278 . S
O146 Pr121 2.562 . S
O146 C131 1.254 1_655 S
O147 Pr121 2.490 . S
O147 C131 1.225 1_655 S
O148 Pr120 2.436 . S
O148 Pr121 2.695 . S
O148 C138 1.270 . S
O149 Pr121 2.512 . S
O149 C138 1.248 . S
O150 Pr120 2.438 1_455 S
O150 C139 1.267 . S
O151 Pr121 2.437 1_455 S
O151 C139 1.278 . S
H152 C124 0.929 . S
H153 C125 0.929 . S
H154 C127 0.931 . S
H155 C128 0.930 . S
H156 C133 0.929 . S
H157 C134 0.929 . S
H158 C136 0.931 . S
H159 C137 0.930 . S
Pr160 C162 2.880 . S
Pr160 O180 2.562 1_554 S
Pr160 O181 2.490 . S
Pr160 O182 2.695 . S
Pr160 O183 2.512 . S
Pr160 O185 2.437 . S
Pr160 O188 2.436 1_554 S
Pr160 O190 2.438 . S
Pr161 C171 2.880 . S
Pr161 O182 2.436 . S
Pr161 O184 2.438 . S
Pr161 O186 2.562 . S
Pr161 O187 2.490 1_554 S
Pr161 O188 2.695 1_554 S
Pr161 O189 2.512 1_554 S
Pr161 O191 2.437 1_554 S
C162 Pr160 2.880 . S
C162 C163 1.491 . S
C162 O180 1.254 1_554 S
C162 O181 1.225 . S
C163 C162 1.491 . S
C163 C164 1.392 . S
C163 C168 1.356 1_554 S
C164 C163 1.392 . S
C164 C165 1.368 . S
C164 H192 0.929 . S
C165 C164 1.368 . S
C165 C166 1.386 . S
C165 H193 0.929 . S
C166 C165 1.386 . S
C166 C167 1.373 1_554 S
C167 C166 1.373 1_556 S
C167 C168 1.409 . S
C167 H194 0.931 . S
C168 C163 1.356 1_556 S
C168 C167 1.409 . S
C168 H195 0.930 . S
C169 O182 1.270 . S
C169 O183 1.248 . S
C170 O184 1.267 . S
C170 O185 1.278 . S
C171 Pr161 2.880 . S
C171 C172 1.491 . S
C171 O186 1.254 . S
C171 O187 1.225 1_554 S
C172 C171 1.491 . S
C172 C173 1.392 1_554 S
C172 C177 1.356 . S
C173 C172 1.392 1_556 S
C173 C174 1.368 . S
C173 H196 0.929 . S
C174 C173 1.368 . S
C174 C175 1.386 1_556 S
C174 H197 0.929 . S
C175 C174 1.386 1_554 S
C175 C176 1.373 . S
C176 C175 1.373 . S
C176 C177 1.409 . S
C176 H198 0.931 . S
C177 C172 1.356 . S
C177 C176 1.409 . S
C177 H199 0.930 . S
C178 O188 1.270 . S
C178 O189 1.248 . S
C179 O190 1.267 . S
C179 O191 1.278 1_554 S
O180 Pr160 2.562 1_556 S
O180 C162 1.254 1_556 S
O181 Pr160 2.490 . S
O181 C162 1.225 . S
O182 Pr160 2.695 . S
O182 Pr161 2.436 . S
O182 C169 1.270 . S
O183 Pr160 2.512 . S
O183 C169 1.248 . S
O184 Pr161 2.438 . S
O184 C170 1.267 . S
O185 Pr160 2.437 . S
O185 C170 1.278 . S
O186 Pr161 2.562 . S
O186 C171 1.254 . S
O187 Pr161 2.490 1_556 S
O187 C171 1.225 1_556 S
O188 Pr160 2.436 1_556 S
O188 Pr161 2.695 1_556 S
O188 C178 1.270 . S
O189 Pr161 2.512 1_556 S
O189 C178 1.248 . S
O190 Pr160 2.438 . S
O190 C179 1.267 . S
O191 Pr161 2.437 1_556 S
O191 C179 1.278 1_556 S
H192 C164 0.929 . S
H193 C165 0.929 . S
H194 C167 0.931 . S
H195 C168 0.930 . S
H196 C173 0.929 . S
H197 C174 0.929 . S
H198 C176 0.931 . S
H199 C177 0.930 . S
Pr200 C202 2.880 . S
Pr200 O220 2.562 1_554 S
Pr200 O221 2.490 . S
Pr200 O222 2.695 . S
Pr200 O223 2.512 . S
Pr200 O225 2.437 . S
Pr200 O228 2.436 1_554 S
Pr200 O230 2.438 . S
Pr201 C211 2.880 . S
Pr201 O222 2.436 . S
Pr201 O224 2.438 . S
Pr201 O226 2.562 . S
Pr201 O227 2.490 1_554 S
Pr201 O228 2.695 1_554 S
Pr201 O229 2.512 1_554 S
Pr201 O231 2.437 1_554 S
C202 Pr200 2.880 . S
C202 C203 1.491 . S
C202 O220 1.254 1_554 S
C202 O221 1.225 . S
C203 C202 1.491 . S
C203 C204 1.392 . S
C203 C208 1.356 1_554 S
C204 C203 1.392 . S
C204 C205 1.368 . S
C204 H232 0.929 . S
C205 C204 1.368 . S
C205 C206 1.386 . S
C205 H233 0.929 . S
C206 C205 1.386 . S
C206 C207 1.373 1_554 S
C207 C206 1.373 1_556 S
C207 C208 1.409 . S
C207 H234 0.931 . S
C208 C203 1.356 1_556 S
C208 C207 1.409 . S
C208 H235 0.930 . S
C209 O222 1.270 . S
C209 O223 1.248 . S
C210 O224 1.267 . S
C210 O225 1.278 . S
C211 Pr201 2.880 . S
C211 C212 1.491 . S
C211 O226 1.254 . S
C211 O227 1.225 1_554 S
C212 C211 1.491 . S
C212 C213 1.392 1_554 S
C212 C217 1.356 . S
C213 C212 1.392 1_556 S
C213 C214 1.368 . S
C213 H236 0.929 . S
C214 C213 1.368 . S
C214 C215 1.386 1_556 S
C214 H237 0.929 . S
C215 C214 1.386 1_554 S
C215 C216 1.373 . S
C216 C215 1.373 . S
C216 C217 1.409 . S
C216 H238 0.931 . S
C217 C212 1.356 . S
C217 C216 1.409 . S
C217 H239 0.930 . S
C218 O228 1.270 . S
C218 O229 1.248 . S
C219 O230 1.267 . S
C219 O231 1.278 1_554 S
O220 Pr200 2.562 1_556 S
O220 C202 1.254 1_556 S
O221 Pr200 2.490 . S
O221 C202 1.225 . S
O222 Pr200 2.695 . S
O222 Pr201 2.436 . S
O222 C209 1.270 . S
O223 Pr200 2.512 . S
O223 C209 1.248 . S
O224 Pr201 2.438 . S
O224 C210 1.267 . S
O225 Pr200 2.437 . S
O225 C210 1.278 . S
O226 Pr201 2.562 . S
O226 C211 1.254 . S
O227 Pr201 2.490 1_556 S
O227 C211 1.225 1_556 S
O228 Pr200 2.436 1_556 S
O228 Pr201 2.695 1_556 S
O228 C218 1.270 . S
O229 Pr201 2.512 1_556 S
O229 C218 1.248 . S
O230 Pr200 2.438 . S
O230 C219 1.267 . S
O231 Pr201 2.437 1_556 S
O231 C219 1.278 1_556 S
H232 C204 0.929 . S
H233 C205 0.929 . S
H234 C207 0.931 . S
H235 C208 0.930 . S
H236 C213 0.929 . S
H237 C214 0.929 . S
H238 C216 0.931 . S
H239 C217 0.930 . S
Pr240 C242 2.880 . S
Pr240 O260 2.562 . S
Pr240 O261 2.490 . S
Pr240 O262 2.695 . S
Pr240 O263 2.512 . S
Pr240 O265 2.437 . S
Pr240 O268 2.436 . S
Pr240 O270 2.438 . S
Pr241 C251 2.880 . S
Pr241 O262 2.436 . S
Pr241 O264 2.438 . S
Pr241 O266 2.562 . S
Pr241 O267 2.490 . S
Pr241 O268 2.695 . S
Pr241 O269 2.512 . S
Pr241 O271 2.437 . S
C242 Pr240 2.880 . S
C242 C243 1.491 . S
C242 O260 1.254 . S
C242 O261 1.225 . S
C243 C242 1.491 . S
C243 C244 1.392 . S
C243 C248 1.356 . S
C244 C243 1.392 . S
C244 C245 1.368 . S
C244 H272 0.929 . S
C245 C244 1.368 . S
C245 C246 1.386 . S
C245 H273 0.929 . S
C246 C245 1.386 . S
C246 C247 1.373 . S
C247 C246 1.373 . S
C247 C248 1.409 . S
C247 H274 0.931 . S
C248 C243 1.356 . S
C248 C247 1.409 . S
C248 H275 0.930 . S
C249 O262 1.270 . S
C249 O263 1.248 . S
C250 O264 1.267 . S
C250 O265 1.278 . S
C251 Pr241 2.880 . S
C251 C252 1.491 . S
C251 O266 1.254 . S
C251 O267 1.225 . S
C252 C251 1.491 . S
C252 C253 1.392 . S
C252 C257 1.356 . S
C253 C252 1.392 . S
C253 C254 1.368 . S
C253 H276 0.929 . S
C254 C253 1.368 . S
C254 C255 1.386 . S
C254 H277 0.929 . S
C255 C254 1.386 . S
C255 C256 1.373 . S
C256 C255 1.373 . S
C256 C257 1.409 . S
C256 H278 0.931 . S
C257 C252 1.356 . S
C257 C256 1.409 . S
C257 H279 0.930 . S
C258 O268 1.270 . S
C258 O269 1.248 . S
C259 O270 1.267 . S
C259 O271 1.278 . S
O260 Pr240 2.562 . S
O260 C242 1.254 . S
O261 Pr240 2.490 . S
O261 C242 1.225 . S
O262 Pr240 2.695 . S
O262 Pr241 2.436 . S
O262 C249 1.270 . S
O263 Pr240 2.512 . S
O263 C249 1.248 . S
O264 Pr241 2.438 . S
O264 C250 1.267 . S
O265 Pr240 2.437 . S
O265 C250 1.278 . S
O266 Pr241 2.562 . S
O266 C251 1.254 . S
O267 Pr241 2.490 . S
O267 C251 1.225 . S
O268 Pr240 2.436 . S
O268 Pr241 2.695 . S
O268 C258 1.270 . S
O269 Pr241 2.512 . S
O269 C258 1.248 . S
O270 Pr240 2.438 . S
O270 C259 1.267 . S
O271 Pr241 2.437 . S
O271 C259 1.278 . S
H272 C244 0.929 . S
H273 C245 0.929 . S
H274 C247 0.931 . S
H275 C248 0.930 . S
H276 C253 0.929 . S
H277 C254 0.929 . S
H278 C256 0.931 . S
H279 C257 0.930 . S
Pr280 C282 2.880 . S
Pr280 O300 2.562 . S
Pr280 O301 2.490 . S
Pr280 O302 2.695 . S
Pr280 O303 2.512 . S
Pr280 O305 2.437 . S
Pr280 O308 2.436 . S
Pr280 O310 2.438 . S
Pr281 C291 2.880 . S
Pr281 O302 2.436 . S
Pr281 O304 2.438 . S
Pr281 O306 2.562 . S
Pr281 O307 2.490 . S
Pr281 O308 2.695 . S
Pr281 O309 2.512 . S
Pr281 O311 2.437 . S
C282 Pr280 2.880 . S
C282 C283 1.491 . S
C282 O300 1.254 . S
C282 O301 1.225 . S
C283 C282 1.491 . S
C283 C284 1.392 . S
C283 C288 1.356 . S
C284 C283 1.392 . S
C284 C285 1.368 . S
C284 H312 0.929 . S
C285 C284 1.368 . S
C285 C286 1.386 . S
C285 H313 0.929 . S
C286 C285 1.386 . S
C286 C287 1.373 . S
C287 C286 1.373 . S
C287 C288 1.409 . S
C287 H314 0.931 . S
C288 C283 1.356 . S
C288 C287 1.409 . S
C288 H315 0.930 . S
C289 O302 1.270 . S
C289 O303 1.248 . S
C290 O304 1.267 . S
C290 O305 1.278 . S
C291 Pr281 2.880 . S
C291 C292 1.491 . S
C291 O306 1.254 . S
C291 O307 1.225 . S
C292 C291 1.491 . S
C292 C293 1.392 . S
C292 C297 1.356 . S
C293 C292 1.392 . S
C293 C294 1.368 . S
C293 H316 0.929 . S
C294 C293 1.368 . S
C294 C295 1.386 . S
C294 H317 0.929 . S
C295 C294 1.386 . S
C295 C296 1.373 . S
C296 C295 1.373 . S
C296 C297 1.409 . S
C296 H318 0.931 . S
C297 C292 1.356 . S
C297 C296 1.409 . S
C297 H319 0.930 . S
C298 O308 1.270 . S
C298 O309 1.248 . S
C299 O310 1.267 . S
C299 O311 1.278 . S
O300 Pr280 2.562 . S
O300 C282 1.254 . S
O301 Pr280 2.490 . S
O301 C282 1.225 . S
O302 Pr280 2.695 . S
O302 Pr281 2.436 . S
O302 C289 1.270 . S
O303 Pr280 2.512 . S
O303 C289 1.248 . S
O304 Pr281 2.438 . S
O304 C290 1.267 . S
O305 Pr280 2.437 . S
O305 C290 1.278 . S
O306 Pr281 2.562 . S
O306 C291 1.254 . S
O307 Pr281 2.490 . S
O307 C291 1.225 . S
O308 Pr280 2.436 . S
O308 Pr281 2.695 . S
O308 C298 1.270 . S
O309 Pr281 2.512 . S
O309 C298 1.248 . S
O310 Pr280 2.438 . S
O310 C299 1.267 . S
O311 Pr281 2.437 . S
O311 C299 1.278 . S
H312 C284 0.929 . S
H313 C285 0.929 . S
H314 C287 0.931 . S
H315 C288 0.930 . S
H316 C293 0.929 . S
H317 C294 0.929 . S
H318 C296 0.931 . S
H319 C297 0.930 . S
H320 C332 0.930 . S
H321 C334 0.930 . S
H322 C335 0.930 . S
H323 C339 0.959 . S
H324 C339 0.959 . S
H325 C339 0.961 . S
H326 C340 0.960 . S
H327 C340 0.961 . S
H328 C340 0.959 . S
H329 C343 0.929 . S
H330 C344 0.931 . S
H331 C346 0.930 . S
C332 H320 0.930 . S
C332 C333 1.399 . S
C332 C337 1.399 . S
C333 C332 1.399 . S
C333 C334 1.376 1_554 S
C334 H321 0.930 . S
C334 C333 1.376 1_556 S
C334 C335 1.388 . S
C335 H322 0.930 . S
C335 C334 1.388 . S
C335 C336 1.379 1_556 S
C336 C335 1.379 1_554 S
C336 C337 1.409 . S
C336 C342 1.462 1_554 S
C337 C332 1.399 . S
C337 C336 1.409 . S
C337 C338 1.516 . S
C338 C337 1.516 . S
C338 C339 1.502 . S
C338 C340 1.561 . S
C338 C341 1.526 . S
C339 H323 0.959 . S
C339 H324 0.959 . S
C339 H325 0.961 . S
C339 C338 1.502 . S
C340 H326 0.960 . S
C340 H327 0.961 . S
C340 H328 0.959 . S
C340 C338 1.561 . S
C341 C338 1.526 . S
C341 C342 1.387 1_554 S
C341 C346 1.390 . S
C342 C336 1.462 1_556 S
C342 C341 1.387 1_556 S
C342 C343 1.407 . S
C343 H329 0.929 . S
C343 C342 1.407 . S
C343 C344 1.385 . S
C344 H330 0.931 . S
C344 C343 1.385 . S
C344 C345 1.389 1_556 S
C345 C344 1.389 1_554 S
C345 C346 1.387 . S
C346 H331 0.930 . S
C346 C341 1.390 . S
C346 C345 1.387 . S
H347 C359 0.930 . S
H348 C361 0.930 . S
H349 C362 0.930 . S
H350 C366 0.959 . S
H351 C366 0.959 . S
H352 C366 0.961 . S
H353 C367 0.960 . S
H354 C367 0.961 . S
H355 C367 0.959 . S
H356 C370 0.929 . S
H357 C371 0.931 . S
H358 C373 0.930 . S
C359 H347 0.930 . S
C359 C360 1.399 . S
C359 C364 1.399 . S
C360 C359 1.399 . S
C360 C361 1.376 1_554 S
C361 H348 0.930 . S
C361 C360 1.376 1_556 S
C361 C362 1.388 . S
C362 H349 0.930 . S
C362 C361 1.388 . S
C362 C363 1.390 . S
C363 C362 1.390 . S
C363 C364 1.394 1_556 S
C363 C369 1.465 . S
C364 C359 1.399 . S
C364 C363 1.394 1_554 S
C364 C365 1.516 . S
C365 C364 1.516 . S
C365 C366 1.502 . S
C365 C367 1.561 . S
C365 C368 1.526 . S
C366 H350 0.959 . S
C366 H351 0.959 . S
C366 H352 0.961 . S
C366 C365 1.502 . S
C367 H353 0.960 . S
C367 H354 0.961 . S
C367 H355 0.959 . S
C367 C365 1.561 . S
C368 C365 1.526 . S
C368 C369 1.396 1_554 S
C368 C373 1.390 . S
C369 C363 1.465 . S
C369 C368 1.396 1_556 S
C369 C370 1.399 . S
C370 H356 0.929 . S
C370 C369 1.399 . S
C370 C371 1.385 . S
C371 H357 0.931 . S
C371 C370 1.385 . S
C371 C372 1.389 1_556 S
C372 C371 1.389 1_554 S
C372 C373 1.387 . S
C373 H358 0.930 . S
C373 C368 1.390 . S
C373 C372 1.387 . S
H374 C386 0.930 . S
H375 C388 0.930 . S
H376 C389 0.930 . S
H377 C393 0.959 . S
H378 C393 0.959 . S
H379 C393 0.961 . S
H380 C394 0.960 . S
H381 C394 0.961 . S
H382 C394 0.959 . S
H383 C397 0.929 . S
H384 C398 0.931 . S
H385 C400 0.930 . S
C386 H374 0.930 . S
C386 C387 1.399 . S
C386 C391 1.399 . S
C387 C386 1.399 . S
C387 C388 1.376 . S
C388 H375 0.930 . S
C388 C387 1.376 . S
C388 C389 1.388 . S
C389 H376 0.930 . S
C389 C388 1.388 . S
C389 C390 1.390 . S
C390 C389 1.390 . S
C390 C391 1.394 . S
C390 C396 1.465 . S
C391 C386 1.399 . S
C391 C390 1.394 . S
C391 C392 1.516 . S
C392 C391 1.516 . S
C392 C393 1.502 . S
C392 C394 1.561 . S
C392 C395 1.526 . S
C393 H377 0.959 . S
C393 H378 0.959 . S
C393 H379 0.961 . S
C393 C392 1.502 . S
C394 H380 0.960 . S
C394 H381 0.961 . S
C394 H382 0.959 . S
C394 C392 1.561 . S
C395 C392 1.526 . S
C395 C396 1.396 . S
C395 C400 1.390 . S
C396 C390 1.465 . S
C396 C395 1.396 . S
C396 C397 1.399 . S
C397 H383 0.929 . S
C397 C396 1.399 . S
C397 C398 1.385 . S
C398 H384 0.931 . S
C398 C397 1.385 . S
C398 C399 1.389 . S
C399 C398 1.389 . S
C399 C400 1.387 . S
C400 H385 0.930 . S
C400 C395 1.390 . S
C400 C399 1.387 . S
H401 C413 0.930 . S
H402 C415 0.930 . S
H403 C416 0.930 . S
H404 C420 0.959 . S
H405 C420 0.959 . S
H406 C420 0.961 . S
H407 C421 0.960 . S
H408 C421 0.961 . S
H409 C421 0.959 . S
H410 C424 0.929 . S
H411 C425 0.931 . S
H412 C427 0.930 . S
C413 H401 0.930 . S
C413 C414 1.399 . S
C413 C418 1.399 . S
C414 C413 1.399 . S
C414 C415 1.376 . S
C415 H402 0.930 . S
C415 C414 1.376 . S
C415 C416 1.388 . S
C416 H403 0.930 . S
C416 C415 1.388 . S
C416 C417 1.390 . S
C417 C416 1.390 . S
C417 C418 1.394 . S
C417 C423 1.465 . S
C418 C413 1.399 . S
C418 C417 1.394 . S
C418 C419 1.516 . S
C419 C418 1.516 . S
C419 C420 1.502 . S
C419 C421 1.561 . S
C419 C422 1.526 . S
C420 H404 0.959 . S
C420 H405 0.959 . S
C420 H406 0.961 . S
C420 C419 1.502 . S
C421 H407 0.960 . S
C421 H408 0.961 . S
C421 H409 0.959 . S
C421 C419 1.561 . S
C422 C419 1.526 . S
C422 C423 1.396 . S
C422 C427 1.390 . S
C423 C417 1.465 . S
C423 C422 1.396 . S
C423 C424 1.399 . S
C424 H410 0.929 . S
C424 C423 1.399 . S
C424 C425 1.385 . S
C425 H411 0.931 . S
C425 C424 1.385 . S
C425 C426 1.389 . S
C426 C425 1.389 . S
C426 C427 1.387 . S
C427 H412 0.930 . S
C427 C422 1.390 . S
C427 C426 1.387 . S
H428 C440 0.930 . S
H429 C442 0.928 1_556 S
H430 C443 0.930 1_556 S
H431 C447 0.959 . S
H432 C447 0.959 . S
H433 C447 0.961 . S
H434 C448 0.960 . S
H435 C448 0.961 . S
H436 C448 0.959 . S
H437 C451 0.929 1_556 S
H438 C452 0.934 . S
H439 C454 0.930 . S
C440 H428 0.930 . S
C440 C441 1.399 . S
C440 C445 1.399 . S
C441 C440 1.399 . S
C441 C442 1.376 . S
C442 H429 0.928 1_554 S
C442 C441 1.376 . S
C442 C443 1.388 . S
C443 H430 0.930 1_554 S
C443 C442 1.388 . S
C443 C444 1.390 1_655 S
C444 C443 1.390 1_455 S
C444 C445 1.394 1_455 S
C444 C450 1.465 . S
C445 C440 1.399 . S
C445 C444 1.394 1_655 S
C445 C446 1.516 1_655 S
C446 C445 1.516 1_455 S
C446 C447 1.502 . S
C446 C448 1.561 1_554 S
C446 C449 1.526 . S
C447 H431 0.959 . S
C447 H432 0.959 . S
C447 H433 0.961 . S
C447 C446 1.502 . S
C448 H434 0.960 . S
C448 H435 0.961 . S
C448 H436 0.959 . S
C448 C446 1.561 1_556 S
C449 C446 1.526 . S
C449 C450 1.396 . S
C449 C454 1.390 . S
C450 C444 1.465 . S
C450 C449 1.396 . S
C450 C451 1.399 . S
C451 H437 0.929 1_554 S
C451 C450 1.399 . S
C451 C452 1.385 . S
C452 H438 0.934 . S
C452 C451 1.385 . S
C452 C453 1.389 . S
C453 C452 1.389 . S
C453 C454 1.387 . S
C454 H439 0.930 . S
C454 C449 1.390 . S
C454 C453 1.387 . S
H455 C467 0.930 . S
H456 C469 0.930 . S
H457 C470 0.930 1_655 S
H458 C474 0.959 . S
H459 C474 0.959 . S
H460 C474 0.961 1_455 S
H461 C475 0.960 1_455 S
H462 C475 0.961 . S
H463 C475 0.959 . S
H464 C478 0.929 . S
H465 C479 0.931 . S
H466 C481 0.930 . S
C467 H455 0.930 . S
C467 C468 1.399 . S
C467 C472 1.399 . S
C468 C467 1.399 . S
C468 C469 1.376 1_554 S
C469 H456 0.930 . S
C469 C468 1.376 1_556 S
C469 C470 1.388 . S
C470 H457 0.930 1_455 S
C470 C469 1.388 . S
C470 C471 1.390 1_456 S
C471 C470 1.390 1_654 S
C471 C472 1.394 1_655 S
C471 C477 1.463 . S
C472 C467 1.399 . S
C472 C471 1.394 1_455 S
C472 C473 1.516 1_455 S
C473 C472 1.516 1_655 S
C473 C474 1.502 . S
C473 C475 1.561 . S
C473 C476 1.526 . S
C474 H458 0.959 . S
C474 H459 0.959 . S
C474 H460 0.961 1_655 S
C474 C473 1.502 . S
C475 H461 0.960 1_655 S
C475 H462 0.961 . S
C475 H463 0.959 . S
C475 C473 1.561 . S
C476 C473 1.526 . S
C476 C477 1.414 . S
C476 C481 1.390 . S
C477 C471 1.463 . S
C477 C476 1.414 . S
C477 C478 1.386 1_554 S
C478 H464 0.929 . S
C478 C477 1.386 1_556 S
C478 C479 1.385 . S
C479 H465 0.931 . S
C479 C478 1.385 . S
C479 C480 1.389 1_556 S
C480 C479 1.389 1_554 S
C480 C481 1.387 . S
C481 H466 0.930 . S
C481 C476 1.390 . S
C481 C480 1.387 . S
H482 C494 0.930 . S
H483 C496 0.930 . S
H484 C497 0.930 . S
H485 C501 0.959 . S
H486 C501 0.959 . S
H487 C501 0.961 . S
H488 C502 0.960 . S
H489 C502 0.961 . S
H490 C502 0.959 . S
H491 C505 0.929 . S
H492 C506 0.931 . S
H493 C508 0.930 . S
C494 H482 0.930 . S
C494 C495 1.399 . S
C494 C499 1.399 . S
C495 C494 1.399 . S
C495 C496 1.376 . S
C496 H483 0.930 . S
C496 C495 1.376 . S
C496 C497 1.388 . S
C497 H484 0.930 . S
C497 C496 1.388 . S
C497 C498 1.390 . S
C498 C497 1.390 . S
C498 C499 1.394 . S
C498 C504 1.465 . S
C499 C494 1.399 . S
C499 C498 1.394 . S
C499 C500 1.516 . S
C500 C499 1.516 . S
C500 C501 1.502 . S
C500 C502 1.561 . S
C500 C503 1.526 1_455 S
C501 H485 0.959 . S
C501 H486 0.959 . S
C501 H487 0.961 . S
C501 C500 1.502 . S
C502 H488 0.960 . S
C502 H489 0.961 . S
C502 H490 0.959 . S
C502 C500 1.561 . S
C503 C500 1.526 1_655 S
C503 C504 1.396 1_655 S
C503 C508 1.390 . S
C504 C498 1.465 . S
C504 C503 1.396 1_455 S
C504 C505 1.399 1_455 S
C505 H491 0.929 . S
C505 C504 1.399 1_655 S
C505 C506 1.385 . S
C506 H492 0.931 . S
C506 C505 1.385 . S
C506 C507 1.389 . S
C507 C506 1.389 . S
C507 C508 1.387 . S
C508 H493 0.930 . S
C508 C503 1.390 . S
C508 C507 1.387 . S
H509 C521 0.930 . S
H510 C523 0.930 . S
H511 C524 0.930 . S
H512 C528 0.959 . S
H513 C528 0.959 1_455 S
H514 C528 0.961 . S
H515 C529 0.960 . S
H516 C529 0.961 1_455 S
H517 C529 0.959 . S
H518 C532 0.929 1_655 S
H519 C533 0.931 . S
H520 C535 0.930 . S
C521 H509 0.930 . S
C521 C522 1.399 . S
C521 C526 1.399 . S
C522 C521 1.399 . S
C522 C523 1.376 . S
C523 H510 0.930 . S
C523 C522 1.376 . S
C523 C524 1.388 . S
C524 H511 0.930 . S
C524 C523 1.388 . S
C524 C525 1.390 . S
C525 C524 1.390 . S
C525 C526 1.394 . S
C525 C531 1.465 . S
C526 C521 1.399 . S
C526 C525 1.394 . S
C526 C527 1.516 . S
C527 C526 1.516 . S
C527 C528 1.502 . S
C527 C529 1.561 . S
C527 C530 1.526 1_655 S
C528 H512 0.959 . S
C528 H513 0.959 1_655 S
C528 H514 0.961 . S
C528 C527 1.502 . S
C529 H515 0.960 . S
C529 H516 0.961 1_655 S
C529 H517 0.959 . S
C529 C527 1.561 . S
C530 C527 1.526 1_455 S
C530 C531 1.396 1_455 S
C530 C535 1.390 . S
C531 C525 1.465 . S
C531 C530 1.396 1_655 S
C531 C532 1.399 1_655 S
C532 H518 0.929 1_455 S
C532 C531 1.399 1_455 S
C532 C533 1.385 . S
C533 H519 0.931 . S
C533 C532 1.385 . S
C533 C534 1.389 . S
C534 C533 1.389 . S
C534 C535 1.387 . S
C535 H520 0.930 . S
C535 C530 1.390 . S
C535 C534 1.387 . S
H536 C548 0.930 . S
H537 C550 0.930 . S
H538 C551 0.930 . S
H539 C555 0.959 . S
H540 C555 0.959 . S
H541 C555 0.961 . S
H542 C556 0.960 1_455 S
H543 C556 0.961 . S
H544 C556 0.959 . S
H545 C559 0.929 . S
H546 C560 0.931 . S
H547 C562 0.930 . S
C548 H536 0.930 . S
C548 C549 1.399 . S
C548 C553 1.399 . S
C549 C548 1.399 . S
C549 C550 1.376 1_554 S
C550 H537 0.930 . S
C550 C549 1.376 1_556 S
C550 C551 1.388 1_455 S
C551 H538 0.930 . S
C551 C550 1.388 1_655 S
C551 C552 1.390 . S
C552 C551 1.390 . S
C552 C553 1.394 1_656 S
C552 C558 1.468 . S
C553 C548 1.399 . S
C553 C552 1.394 1_454 S
C553 C554 1.516 . S
C554 C553 1.516 . S
C554 C555 1.502 . S
C554 C556 1.561 1_455 S
C554 C557 1.526 1_455 S
C555 H539 0.959 . S
C555 H540 0.959 . S
C555 H541 0.961 . S
C555 C554 1.502 . S
C556 H542 0.960 1_655 S
C556 H543 0.961 . S
C556 H544 0.959 . S
C556 C554 1.561 1_655 S
C557 C554 1.526 1_655 S
C557 C558 1.375 1_554 S
C557 C562 1.390 . S
C558 C552 1.468 . S
C558 C557 1.375 1_556 S
C558 C559 1.414 . S
C559 H545 0.929 . S
C559 C558 1.414 . S
C559 C560 1.385 . S
C560 H546 0.931 . S
C560 C559 1.385 . S
C560 C561 1.389 1_556 S
C561 C560 1.389 1_554 S
C561 C562 1.387 . S
C562 H547 0.930 . S
C562 C557 1.390 . S
C562 C561 1.387 . S
H563 C575 0.930 . S
H564 C577 0.930 . S
H565 C578 0.930 . S
H566 C582 0.959 . S
H567 C582 0.959 . S
H568 C582 0.961 . S
H569 C583 0.960 . S
H570 C583 0.961 . S
H571 C583 0.959 . S
H572 C586 0.929 . S
H573 C587 0.931 . S
H574 C589 0.930 . S
C575 H563 0.930 . S
C575 C576 1.399 . S
C575 C580 1.399 . S
C576 C575 1.399 . S
C576 C577 1.376 . S
C577 H564 0.930 . S
C577 C576 1.376 . S
C577 C578 1.388 . S
C578 H565 0.930 . S
C578 C577 1.388 . S
C578 C579 1.390 . S
C579 C578 1.390 . S
C579 C580 1.394 . S
C579 C585 1.465 1_455 S
C580 C575 1.399 . S
C580 C579 1.394 . S
C580 C581 1.516 1_455 S
C581 C580 1.516 1_655 S
C581 C582 1.502 1_655 S
C581 C583 1.561 . S
C581 C584 1.526 . S
C582 H566 0.959 . S
C582 H567 0.959 . S
C582 H568 0.961 . S
C582 C581 1.502 1_455 S
C583 H569 0.960 . S
C583 H570 0.961 . S
C583 H571 0.959 . S
C583 C581 1.561 . S
C584 C581 1.526 . S
C584 C585 1.396 . S
C584 C589 1.390 . S
C585 C579 1.465 1_655 S
C585 C584 1.396 . S
C585 C586 1.399 . S
C586 H572 0.929 . S
C586 C585 1.399 . S
C586 C587 1.385 . S
C587 H573 0.931 . S
C587 C586 1.385 . S
C587 C588 1.389 . S
C588 C587 1.389 . S
C588 C589 1.387 . S
C589 H574 0.930 . S
C589 C584 1.390 . S
C589 C588 1.387 . S
H590 C602 0.930 . S
H591 C604 0.930 . S
H592 C605 0.930 . S
H593 C609 0.959 . S
H594 C609 0.959 . S
H595 C609 0.961 . S
H596 C610 0.992 . S
H597 C610 0.924 1_545 S
H598 C610 0.977 . S
H599 C613 0.929 . S
H600 C614 0.931 . S
H601 C616 0.930 . S
C602 H590 0.930 . S
C602 C603 1.399 . S
C602 C607 1.399 . S
C603 C602 1.399 . S
C603 C604 1.376 1_554 S
C604 H591 0.930 . S
C604 C603 1.376 1_556 S
C604 C605 1.388 . S
C605 H592 0.930 . S
C605 C604 1.388 . S
C605 C606 1.396 . S
C606 C605 1.396 . S
C606 C607 1.385 1_556 S
C606 C612 1.466 1_565 S
C607 C602 1.399 . S
C607 C606 1.385 1_554 S
C607 C608 1.516 1_565 S
C608 C607 1.516 1_545 S
C608 C609 1.502 . S
C608 C610 1.551 1_545 S
C608 C611 1.526 . S
C609 H593 0.959 . S
C609 H594 0.959 . S
C609 H595 0.961 . S
C609 C608 1.502 . S
C610 H596 0.992 . S
C610 H597 0.924 1_565 S
C610 H598 0.977 . S
C610 C608 1.551 1_565 S
C611 C608 1.526 . S
C611 C612 1.396 1_554 S
C611 C616 1.390 . S
C612 C606 1.466 1_545 S
C612 C611 1.396 1_556 S
C612 C613 1.399 . S
C613 H599 0.929 . S
C613 C612 1.399 . S
C613 C614 1.385 . S
C614 H600 0.931 . S
C614 C613 1.385 . S
C614 C615 1.389 1_556 S
C615 C614 1.389 1_554 S
C615 C616 1.387 . S
C616 H601 0.930 . S
C616 C611 1.390 . S
C616 C615 1.387 . S
H617 C629 0.930 . S
H618 C631 0.930 . S
H619 C632 0.930 . S
H620 C636 0.959 . S
H621 C636 0.959 1_565 S
H622 C636 0.961 . S
H623 C637 0.938 1_545 S
H624 C637 0.961 . S
H625 C637 0.959 . S
H626 C640 0.929 . S
H627 C641 0.931 . S
H628 C643 0.930 . S
C629 H617 0.930 . S
C629 C630 1.399 . S
C629 C634 1.399 . S
C630 C629 1.399 . S
C630 C631 1.376 . S
C631 H618 0.930 . S
C631 C630 1.376 . S
C631 C632 1.388 . S
C632 H619 0.930 . S
C632 C631 1.388 . S
C632 C633 1.390 . S
C633 C632 1.390 . S
C633 C634 1.394 . S
C633 C639 1.465 1_545 S
C634 C629 1.399 . S
C634 C633 1.394 . S
C634 C635 1.507 1_545 S
C635 C634 1.507 1_565 S
C635 C636 1.497 1_565 S
C635 C637 1.567 . S
C635 C638 1.535 . S
C636 H620 0.959 . S
C636 H621 0.959 1_545 S
C636 H622 0.961 . S
C636 C635 1.497 1_545 S
C637 H623 0.938 1_565 S
C637 H624 0.961 . S
C637 H625 0.959 . S
C637 C635 1.567 . S
C638 C635 1.535 . S
C638 C639 1.396 . S
C638 C643 1.390 . S
C639 C633 1.465 1_565 S
C639 C638 1.396 . S
C639 C640 1.399 . S
C640 H626 0.929 . S
C640 C639 1.399 . S
C640 C641 1.385 . S
C641 H627 0.931 . S
C641 C640 1.385 . S
C641 C642 1.389 . S
C642 C641 1.389 . S
C642 C643 1.387 . S
C643 H628 0.930 . S
C643 C638 1.390 . S
C643 C642 1.387 . S
H644 C656 0.930 . S
H645 C658 0.930 . S
H646 C659 0.930 . S
H647 C663 0.959 . S
H648 C663 0.959 . S
H649 C663 0.961 . S
H650 C664 0.960 . S
H651 C664 0.961 . S
H652 C664 0.959 . S
H653 C667 0.929 . S
H654 C668 0.931 . S
H655 C670 0.930 . S
C656 H644 0.930 . S
C656 C657 1.399 . S
C656 C661 1.399 . S
C657 C656 1.399 . S
C657 C658 1.376 1_554 S
C658 H645 0.930 . S
C658 C657 1.376 1_556 S
C658 C659 1.388 . S
C659 H646 0.930 . S
C659 C658 1.388 . S
C659 C660 1.390 . S
C660 C659 1.390 . S
C660 C661 1.394 1_556 S
C660 C666 1.465 . S
C661 C656 1.399 . S
C661 C660 1.394 1_554 S
C661 C662 1.516 . S
C662 C661 1.516 . S
C662 C663 1.502 . S
C662 C664 1.561 . S
C662 C665 1.526 . S
C663 H647 0.959 . S
C663 H648 0.959 . S
C663 H649 0.961 . S
C663 C662 1.502 . S
C664 H650 0.960 . S
C664 H651 0.961 . S
C664 H652 0.959 . S
C664 C662 1.561 . S
C665 C662 1.526 . S
C665 C666 1.396 1_554 S
C665 C670 1.390 . S
C666 C660 1.465 . S
C666 C665 1.396 1_556 S
C666 C667 1.399 . S
C667 H653 0.929 . S
C667 C666 1.399 . S
C667 C668 1.385 . S
C668 H654 0.931 . S
C668 C667 1.385 . S
C668 C669 1.389 1_556 S
C669 C668 1.389 1_554 S
C669 C670 1.387 . S
C670 H655 0.930 . S
C670 C665 1.390 . S
C670 C669 1.387 . S
H671 C683 0.930 . S
H672 C685 0.930 . S
H673 C686 0.930 . S
H674 C690 0.959 . S
H675 C690 0.959 . S
H676 C690 0.961 . S
H677 C691 0.960 . S
H678 C691 0.961 . S
H679 C691 0.959 . S
H680 C694 0.929 . S
H681 C695 0.931 . S
H682 C697 0.930 . S
C683 H671 0.930 . S
C683 C684 1.399 1_556 S
C683 C688 1.399 . S
C684 C683 1.399 1_554 S
C684 C685 1.376 . S
C685 H672 0.930 . S
C685 C684 1.376 . S
C685 C686 1.388 . S
C686 H673 0.930 . S
C686 C685 1.388 . S
C686 C687 1.390 . S
C687 C686 1.390 . S
C687 C688 1.394 1_554 S
C687 C693 1.465 . S
C688 C683 1.399 . S
C688 C687 1.394 1_556 S
C688 C689 1.516 . S
C689 C688 1.516 . S
C689 C690 1.502 . S
C689 C691 1.561 . S
C689 C692 1.535 . S
C690 H674 0.959 . S
C690 H675 0.959 . S
C690 H676 0.961 . S
C690 C689 1.502 . S
C691 H677 0.960 . S
C691 H678 0.961 . S
C691 H679 0.959 . S
C691 C689 1.561 . S
C692 C689 1.535 . S
C692 C693 1.385 1_556 S
C692 C697 1.391 . S
C693 C687 1.465 . S
C693 C692 1.385 1_554 S
C693 C694 1.399 . S
C694 H680 0.929 . S
C694 C693 1.399 . S
C694 C695 1.385 . S
C695 H681 0.931 . S
C695 C694 1.385 . S
C695 C696 1.389 . S
C696 C695 1.389 . S
C696 C697 1.387 1_554 S
C697 H682 0.930 . S
C697 C692 1.391 . S
C697 C696 1.387 1_556 S
H698 C710 0.930 . S
H699 C712 0.930 . S
H700 C713 0.930 . S
H701 C717 0.959 . S
H702 C717 0.959 . S
H703 C717 0.961 . S
H704 C718 0.960 . S
H705 C718 0.961 . S
H706 C718 0.959 . S
H707 C721 0.929 . S
H708 C722 0.931 . S
H709 C724 0.930 . S
C710 H698 0.930 . S
C710 C711 1.399 . S
C710 C715 1.399 . S
C711 C710 1.399 . S
C711 C712 1.376 . S
C712 H699 0.930 . S
C712 C711 1.376 . S
C712 C713 1.388 . S
C713 H700 0.930 . S
C713 C712 1.388 . S
C713 C714 1.390 . S
C714 C713 1.390 . S
C714 C715 1.394 . S
C714 C720 1.465 . S
C715 C710 1.399 . S
C715 C714 1.394 . S
C715 C716 1.516 . S
C716 C715 1.516 . S
C716 C717 1.502 . S
C716 C718 1.561 . S
C716 C719 1.526 . S
C717 H701 0.959 . S
C717 H702 0.959 . S
C717 H703 0.961 . S
C717 C716 1.502 . S
C718 H704 0.960 . S
C718 H705 0.961 . S
C718 H706 0.959 . S
C718 C716 1.561 . S
C719 C716 1.526 . S
C719 C720 1.396 . S
C719 C724 1.390 . S
C720 C714 1.465 . S
C720 C719 1.396 . S
C720 C721 1.399 . S
C721 H707 0.929 . S
C721 C720 1.399 . S
C721 C722 1.385 . S
C722 H708 0.931 . S
C722 C721 1.385 . S
C722 C723 1.389 . S
C723 C722 1.389 . S
C723 C724 1.387 . S
C724 H709 0.930 . S
C724 C719 1.390 . S
C724 C723 1.387 . S
H725 C737 0.930 . S
H726 C739 0.930 . S
H727 C740 0.930 . S
H728 C744 0.959 . S
H729 C744 0.959 . S
H730 C744 0.961 . S
H731 C745 0.960 . S
H732 C745 0.961 . S
H733 C745 0.959 . S
H734 C748 0.929 . S
H735 C749 0.931 . S
H736 C751 0.930 . S
C737 H725 0.930 . S
C737 C738 1.399 . S
C737 C742 1.399 . S
C738 C737 1.399 . S
C738 C739 1.376 . S
C739 H726 0.930 . S
C739 C738 1.376 . S
C739 C740 1.388 . S
C740 H727 0.930 . S
C740 C739 1.388 . S
C740 C741 1.390 . S
C741 C740 1.390 . S
C741 C742 1.394 . S
C741 C747 1.465 . S
C742 C737 1.399 . S
C742 C741 1.394 . S
C742 C743 1.516 . S
C743 C742 1.516 . S
C743 C744 1.502 . S
C743 C745 1.561 . S
C743 C746 1.526 . S
C744 H728 0.959 . S
C744 H729 0.959 . S
C744 H730 0.961 . S
C744 C743 1.502 . S
C745 H731 0.960 . S
C745 H732 0.961 . S
C745 H733 0.959 . S
C745 C743 1.561 . S
C746 C743 1.526 . S
C746 C747 1.396 . S
C746 C751 1.390 . S
C747 C741 1.465 . S
C747 C746 1.396 . S
C747 C748 1.399 . S
C748 H734 0.929 . S
C748 C747 1.399 . S
C748 C749 1.385 . S
C749 H735 0.931 . S
C749 C748 1.385 . S
C749 C750 1.389 . S
C750 C749 1.389 . S
C750 C751 1.387 . S
C751 H736 0.930 . S
C751 C746 1.390 . S
C751 C750 1.387 . S
H752 C764 0.930 1_655 S
H753 C766 0.930 . S
H754 C767 0.930 . S
H755 C771 0.959 . S
H756 C771 0.959 . S
H757 C771 0.961 . S
H758 C772 0.960 . S
H759 C772 0.961 1_655 S
H760 C772 0.959 . S
H761 C775 0.929 . S
H762 C776 0.931 1_455 S
H763 C778 0.930 . S
C764 H752 0.930 1_455 S
C764 C765 1.399 . S
C764 C769 1.399 . S
C765 C764 1.399 . S
C765 C766 1.376 . S
C766 H753 0.930 . S
C766 C765 1.376 . S
C766 C767 1.388 . S
C767 H754 0.930 . S
C767 C766 1.388 . S
C767 C768 1.390 . S
C768 C767 1.390 . S
C768 C769 1.394 . S
C768 C774 1.465 . S
C769 C764 1.399 . S
C769 C768 1.394 . S
C769 C770 1.516 1_455 S
C770 C769 1.516 1_655 S
C770 C771 1.502 . S
C770 C772 1.561 1_655 S
C770 C773 1.526 . S
C771 H755 0.959 . S
C771 H756 0.959 . S
C771 H757 0.961 . S
C771 C770 1.502 . S
C772 H758 0.960 . S
C772 H759 0.961 1_455 S
C772 H760 0.959 . S
C772 C770 1.561 1_455 S
C773 C770 1.526 . S
C773 C774 1.396 1_655 S
C773 C778 1.390 . S
C774 C768 1.465 . S
C774 C773 1.396 1_455 S
C774 C775 1.399 . S
C775 H761 0.929 . S
C775 C774 1.399 . S
C775 C776 1.385 1_455 S
C776 H762 0.931 1_655 S
C776 C775 1.385 1_655 S
C776 C777 1.389 . S
C777 C776 1.389 . S
C777 C778 1.387 . S
C778 H763 0.930 . S
C778 C773 1.390 . S
C778 C777 1.387 . S
H779 C791 0.930 1_455 S
H780 C793 0.930 . S
H781 C794 0.930 . S
H782 C798 0.959 . S
H783 C798 0.959 . S
H784 C798 0.961 . S
H785 C799 0.960 . S
H786 C799 0.961 1_455 S
H787 C799 0.959 . S
H788 C802 0.929 . S
H789 C803 0.931 . S
H790 C805 0.930 . S
C791 H779 0.930 1_655 S
C791 C792 1.399 . S
C791 C796 1.399 . S
C792 C791 1.399 . S
C792 C793 1.376 . S
C793 H780 0.930 . S
C793 C792 1.376 . S
C793 C794 1.388 . S
C794 H781 0.930 . S
C794 C793 1.388 . S
C794 C795 1.390 . S
C795 C794 1.390 . S
C795 C796 1.394 . S
C795 C801 1.465 . S
C796 C791 1.399 . S
C796 C795 1.394 . S
C796 C797 1.516 1_655 S
C797 C796 1.516 1_455 S
C797 C798 1.502 . S
C797 C799 1.561 1_455 S
C797 C800 1.526 . S
C798 H782 0.959 . S
C798 H783 0.959 . S
C798 H784 0.961 . S
C798 C797 1.502 . S
C799 H785 0.960 . S
C799 H786 0.961 1_655 S
C799 H787 0.959 . S
C799 C797 1.561 1_655 S
C800 C797 1.526 . S
C800 C801 1.396 1_455 S
C800 C805 1.390 . S
C801 C795 1.465 . S
C801 C800 1.396 1_655 S
C801 C802 1.399 . S
C802 H788 0.929 . S
C802 C801 1.399 . S
C802 C803 1.385 . S
C803 H789 0.931 . S
C803 C802 1.385 . S
C803 C804 1.389 1_655 S
C804 C803 1.389 1_455 S
C804 C805 1.387 . S
C805 H790 0.930 . S
C805 C800 1.390 . S
C805 C804 1.387 . S
H806 C818 0.930 . S
H807 C820 0.930 . S
H808 C821 0.930 . S
H809 C825 0.959 . S
H810 C825 0.959 . S
H811 C825 0.961 . S
H812 C826 0.960 . S
H813 C826 0.961 . S
H814 C826 0.959 . S
H815 C829 0.929 . S
H816 C830 0.931 . S
H817 C832 0.930 . S
C818 H806 0.930 . S
C818 C819 1.399 . S
C818 C823 1.399 . S
C819 C818 1.399 . S
C819 C820 1.376 1_655 S
C820 H807 0.930 . S
C820 C819 1.376 1_455 S
C820 C821 1.388 . S
C821 H808 0.930 . S
C821 C820 1.388 . S
C821 C822 1.390 . S
C822 C821 1.390 . S
C822 C823 1.394 1_455 S
C822 C828 1.465 . S
C823 C818 1.399 . S
C823 C822 1.394 1_655 S
C823 C824 1.516 . S
C824 C823 1.516 . S
C824 C825 1.502 . S
C824 C826 1.561 . S
C824 C827 1.526 . S
C825 H809 0.959 . S
C825 H810 0.959 . S
C825 H811 0.961 . S
C825 C824 1.502 . S
C826 H812 0.960 . S
C826 H813 0.961 . S
C826 H814 0.959 . S
C826 C824 1.561 . S
C827 C824 1.526 . S
C827 C828 1.396 1_655 S
C827 C832 1.390 . S
C828 C822 1.465 . S
C828 C827 1.396 1_455 S
C828 C829 1.399 . S
C829 H815 0.929 . S
C829 C828 1.399 . S
C829 C830 1.385 . S
C830 H816 0.931 . S
C830 C829 1.385 . S
C830 C831 1.389 . S
C831 C830 1.389 . S
C831 C832 1.387 1_455 S
C832 H817 0.930 . S
C832 C827 1.390 . S
C832 C831 1.387 1_655 S
H833 C845 0.930 . S
H834 C847 0.930 . S
H835 C848 0.930 . S
H836 C852 0.959 . S
H837 C852 0.959 . S
H838 C852 0.961 . S
H839 C853 0.960 . S
H840 C853 0.961 . S
H841 C853 0.959 . S
H842 C856 0.929 . S
H843 C857 0.931 . S
H844 C859 0.930 . S
C845 H833 0.930 . S
C845 C846 1.399 . S
C845 C850 1.399 . S
C846 C845 1.399 . S
C846 C847 1.376 . S
C847 H834 0.930 . S
C847 C846 1.376 . S
C847 C848 1.388 . S
C848 H835 0.930 . S
C848 C847 1.388 . S
C848 C849 1.390 . S
C849 C848 1.390 . S
C849 C850 1.394 . S
C849 C855 1.465 . S
C850 C845 1.399 . S
C850 C849 1.394 . S
C850 C851 1.516 1_655 S
C851 C850 1.516 1_455 S
C851 C852 1.502 . S
C851 C853 1.561 1_455 S
C851 C854 1.526 . S
C852 H836 0.959 . S
C852 H837 0.959 . S
C852 H838 0.961 . S
C852 C851 1.502 . S
C853 H839 0.960 . S
C853 H840 0.961 . S
C853 H841 0.959 . S
C853 C851 1.561 1_655 S
C854 C851 1.526 . S
C854 C855 1.396 1_455 S
C854 C859 1.390 . S
C855 C849 1.465 . S
C855 C854 1.396 1_655 S
C855 C856 1.399 . S
C856 H842 0.929 . S
C856 C855 1.399 . S
C856 C857 1.385 1_655 S
C857 H843 0.931 . S
C857 C856 1.385 1_455 S
C857 C858 1.389 . S
C858 C857 1.389 . S
C858 C859 1.387 . S
C859 H844 0.930 . S
C859 C854 1.390 . S
C859 C858 1.387 . S
H860 C872 0.930 . S
H861 C874 0.930 . S
H862 C875 0.930 . S
H863 C879 0.959 . S
H864 C879 0.959 . S
H865 C879 0.961 . S
H866 C880 0.960 . S
H867 C880 0.961 . S
H868 C880 0.959 . S
H869 C883 0.929 . S
H870 C884 0.931 . S
H871 C886 0.930 . S
C872 H860 0.930 . S
C872 C873 1.399 . S
C872 C877 1.399 . S
C873 C872 1.399 . S
C873 C874 1.376 . S
C874 H861 0.930 . S
C874 C873 1.376 . S
C874 C875 1.388 . S
C875 H862 0.930 . S
C875 C874 1.388 . S
C875 C876 1.390 . S
C876 C875 1.390 . S
C876 C877 1.394 . S
C876 C882 1.465 . S
C877 C872 1.399 . S
C877 C876 1.394 . S
C877 C878 1.516 . S
C878 C877 1.516 . S
C878 C879 1.502 . S
C878 C880 1.561 . S
C878 C881 1.526 . S
C879 H863 0.959 . S
C879 H864 0.959 . S
C879 H865 0.961 . S
C879 C878 1.502 . S
C880 H866 0.960 . S
C880 H867 0.961 . S
C880 H868 0.959 . S
C880 C878 1.561 . S
C881 C878 1.526 . S
C881 C882 1.396 . S
C881 C886 1.390 . S
C882 C876 1.465 . S
C882 C881 1.396 . S
C882 C883 1.399 . S
C883 H869 0.929 . S
C883 C882 1.399 . S
C883 C884 1.385 . S
C884 H870 0.931 . S
C884 C883 1.385 . S
C884 C885 1.389 . S
C885 C884 1.389 . S
C885 C886 1.387 . S
C886 H871 0.930 . S
C886 C881 1.390 . S
C886 C885 1.387 . S
H887 C899 0.930 . S
H888 C901 0.930 . S
H889 C902 0.930 . S
H890 C906 0.959 . S
H891 C906 0.959 . S
H892 C906 0.961 . S
H893 C907 0.960 . S
H894 C907 0.961 . S
H895 C907 0.959 . S
H896 C910 0.929 . S
H897 C911 0.931 . S
H898 C913 0.930 . S
C899 H887 0.930 . S
C899 C900 1.399 . S
C899 C904 1.399 . S
C900 C899 1.399 . S
C900 C901 1.376 . S
C901 H888 0.930 . S
C901 C900 1.376 . S
C901 C902 1.388 . S
C902 H889 0.930 . S
C902 C901 1.388 . S
C902 C903 1.390 . S
C903 C902 1.390 . S
C903 C904 1.394 . S
C903 C909 1.465 . S
C904 C899 1.399 . S
C904 C903 1.394 . S
C904 C905 1.516 . S
C905 C904 1.516 . S
C905 C906 1.502 . S
C905 C907 1.561 . S
C905 C908 1.526 . S
C906 H890 0.959 . S
C906 H891 0.959 . S
C906 H892 0.961 . S
C906 C905 1.502 . S
C907 H893 0.960 . S
C907 H894 0.961 . S
C907 H895 0.959 . S
C907 C905 1.561 . S
C908 C905 1.526 . S
C908 C909 1.396 . S
C908 C913 1.390 . S
C909 C903 1.465 . S
C909 C908 1.396 . S
C909 C910 1.399 . S
C910 H896 0.929 . S
C910 C909 1.399 . S
C910 C911 1.385 . S
C911 H897 0.931 . S
C911 C910 1.385 . S
C911 C912 1.389 . S
C912 C911 1.389 . S
C912 C913 1.387 . S
C913 H898 0.930 . S
C913 C908 1.390 . S
C913 C912 1.387 . S
H914 C926 0.930 . S
H915 C928 0.930 . S
H916 C929 0.930 . S
H917 C933 0.959 . S
H918 C933 0.959 . S
H919 C933 0.961 . S
H920 C934 0.960 . S
H921 C934 0.961 . S
H922 C934 0.959 . S
H923 C937 0.929 . S
H924 C938 0.931 . S
H925 C940 0.930 . S
C926 H914 0.930 . S
C926 C927 1.399 . S
C926 C931 1.399 . S
C927 C926 1.399 . S
C927 C928 1.376 . S
C928 H915 0.930 . S
C928 C927 1.376 . S
C928 C929 1.388 . S
C929 H916 0.930 . S
C929 C928 1.388 . S
C929 C930 1.390 . S
C930 C929 1.390 . S
C930 C931 1.394 . S
C930 C936 1.465 . S
C931 C926 1.399 . S
C931 C930 1.394 . S
C931 C932 1.516 . S
C932 C931 1.516 . S
C932 C933 1.502 . S
C932 C934 1.561 . S
C932 C935 1.526 . S
C933 H917 0.959 . S
C933 H918 0.959 . S
C933 H919 0.961 . S
C933 C932 1.502 . S
C934 H920 0.960 . S
C934 H921 0.961 . S
C934 H922 0.959 . S
C934 C932 1.561 . S
C935 C932 1.526 . S
C935 C936 1.396 . S
C935 C940 1.390 . S
C936 C930 1.465 . S
C936 C935 1.396 . S
C936 C937 1.399 . S
C937 H923 0.929 . S
C937 C936 1.399 . S
C937 C938 1.385 . S
C938 H924 0.931 . S
C938 C937 1.385 . S
C938 C939 1.389 . S
C939 C938 1.389 . S
C939 C940 1.387 . S
C940 H925 0.930 . S
C940 C935 1.390 . S
C940 C939 1.387 . S
H941 C953 0.930 . S
H942 C955 0.930 . S
H943 C956 0.930 . S
H944 C960 0.959 . S
H945 C960 0.959 . S
H946 C960 0.961 . S
H947 C961 0.960 . S
H948 C961 0.961 . S
H949 C961 0.959 . S
H950 C964 0.929 . S
H951 C965 0.931 . S
H952 C967 0.930 . S
C953 H941 0.930 . S
C953 C954 1.399 . S
C953 C958 1.399 . S
C954 C953 1.399 . S
C954 C955 1.376 . S
C955 H942 0.930 . S
C955 C954 1.376 . S
C955 C956 1.388 . S
C956 H943 0.930 . S
C956 C955 1.388 . S
C956 C957 1.390 . S
C957 C956 1.390 . S
C957 C958 1.394 . S
C957 C963 1.465 . S
C958 C953 1.399 . S
C958 C957 1.394 . S
C958 C959 1.516 . S
C959 C958 1.516 . S
C959 C960 1.502 . S
C959 C961 1.561 . S
C959 C962 1.526 . S
C960 H944 0.959 . S
C960 H945 0.959 . S
C960 H946 0.961 . S
C960 C959 1.502 . S
C961 H947 0.960 . S
C961 H948 0.961 . S
C961 H949 0.959 . S
C961 C959 1.561 . S
C962 C959 1.526 . S
C962 C963 1.396 . S
C962 C967 1.390 . S
C963 C957 1.465 . S
C963 C962 1.396 . S
C963 C964 1.399 . S
C964 H950 0.929 . S
C964 C963 1.399 . S
C964 C965 1.385 . S
C965 H951 0.931 . S
C965 C964 1.385 . S
C965 C966 1.389 . S
C966 C965 1.389 . S
C966 C967 1.387 . S
C967 H952 0.930 . S
C967 C962 1.390 . S
C967 C966 1.387 . S
C333 C10 2.320 . S
C345 C19 2.277 . S
C360 C50 2.310 . S
C372 C59 2.291 . S
C387 C90 2.320 . S
C399 C99 2.276 . S
C414 C130 2.273 . S
C426 C139 2.318 . S
C441 C170 2.283 . S
C453 C179 2.315 . S
C468 C219 2.313 . S
C480 C210 2.287 . S
C495 C250 2.280 . S
C507 C259 2.307 . S
C522 C299 2.281 . S
C534 C290 2.306 . S
C549 C46 2.596 . S
C561 C15 2.634 . S
C576 C135 2.596 . S
C588 C86 2.632 . S
C603 C175 2.591 . S
C615 C206 2.640 . S
C630 C246 2.638 . S
C642 C295 2.614 . S
C657 C6 1.815 . S
C669 C215 1.833 . S
C684 C166 1.851 . S
C696 C55 1.814 . S
C711 C95 1.852 . S
C723 C286 1.812 . S
C738 C126 1.852 . S
C750 C255 1.812 . S
C765 C9 1.617 . S
C777 C129 1.594 . S
C792 C49 1.456 . S
C804 C89 1.440 . S
C819 C58 1.548 . S
C831 C98 1.604 . S
C846 C138 1.506 . S
C858 C18 1.505 . S
C873 C169 1.615 . S
C885 C289 1.614 . S
C900 C209 1.483 . S
C912 C249 1.502 . S
C927 C218 1.570 . S
C939 C258 1.535 . S
C954 C298 1.444 . S
C966 C178 1.445 . S
