# Generated by pormake.
# Topology neb, (4)-cn, num edge types: 1
# Building blocks:
#     Node 0, Type 0, BuildingBlock: UXUYUI_clean_sbu_0, # of connection points: 4
#     Node 1, Type 0, BuildingBlock: UXUYUI_clean_sbu_0, # of connection points: 4
#     Node 2, Type 0, BuildingBlock: UXUYUI_clean_sbu_0, # of connection points: 4
#     Node 3, Type 0, BuildingBlock: UXUYUI_clean_sbu_0, # of connection points: 4
#     Node 4, Type 0, BuildingBlock: UXUYUI_clean_sbu_0, # of connection points: 4
#     Node 5, Type 0, BuildingBlock: UXUYUI_clean_sbu_0, # of connection points: 4
#     Node 6, Type 0, BuildingBlock: UXUYUI_clean_sbu_0, # of connection points: 4
#     Node 7, Type 0, BuildingBlock: UXUYUI_clean_sbu_0, # of connection points: 4
#     Node 8, Type 0, BuildingBlock: UXUYUI_clean_sbu_0, # of connection points: 4
#     Node 9, Type 0, BuildingBlock: UXUYUI_clean_sbu_0, # of connection points: 4
#     Node 10, Type 0, BuildingBlock: UXUYUI_clean_sbu_0, # of connection points: 4
#     Node 11, Type 0, BuildingBlock: UXUYUI_clean_sbu_0, # of connection points: 4
#     Node 12, Type 0, BuildingBlock: UXUYUI_clean_sbu_0, # of connection points: 4
#     Node 13, Type 0, BuildingBlock: UXUYUI_clean_sbu_0, # of connection points: 4
#     Node 14, Type 0, BuildingBlock: UXUYUI_clean_sbu_0, # of connection points: 4
#     Node 15, Type 0, BuildingBlock: UXUYUI_clean_sbu_0, # of connection points: 4
#     Edge 16, Type (0, 0), BuildingBlock: MIFKUJ_clean_linker_0, # of connection points: 2
#     Edge 17, Type (0, 0), BuildingBlock: MIFKUJ_clean_linker_0, # of connection points: 2
#     Edge 18, Type (0, 0), BuildingBlock: MIFKUJ_clean_linker_0, # of connection points: 2
#     Edge 19, Type (0, 0), BuildingBlock: MIFKUJ_clean_linker_0, # of connection points: 2
#     Edge 20, Type (0, 0), BuildingBlock: MIFKUJ_clean_linker_0, # of connection points: 2
#     Edge 21, Type (0, 0), BuildingBlock: MIFKUJ_clean_linker_0, # of connection points: 2
#     Edge 22, Type (0, 0), BuildingBlock: MIFKUJ_clean_linker_0, # of connection points: 2
#     Edge 23, Type (0, 0), BuildingBlock: MIFKUJ_clean_linker_0, # of connection points: 2
#     Edge 24, Type (0, 0), BuildingBlock: MIFKUJ_clean_linker_0, # of connection points: 2
#     Edge 25, Type (0, 0), BuildingBlock: MIFKUJ_clean_linker_0, # of connection points: 2
#     Edge 26, Type (0, 0), BuildingBlock: MIFKUJ_clean_linker_0, # of connection points: 2
#     Edge 27, Type (0, 0), BuildingBlock: MIFKUJ_clean_linker_0, # of connection points: 2
#     Edge 28, Type (0, 0), BuildingBlock: MIFKUJ_clean_linker_0, # of connection points: 2
#     Edge 29, Type (0, 0), BuildingBlock: MIFKUJ_clean_linker_0, # of connection points: 2
#     Edge 30, Type (0, 0), BuildingBlock: MIFKUJ_clean_linker_0, # of connection points: 2
#     Edge 31, Type (0, 0), BuildingBlock: MIFKUJ_clean_linker_0, # of connection points: 2
#     Edge 32, Type (0, 0), BuildingBlock: MIFKUJ_clean_linker_0, # of connection points: 2
#     Edge 33, Type (0, 0), BuildingBlock: MIFKUJ_clean_linker_0, # of connection points: 2
#     Edge 34, Type (0, 0), BuildingBlock: MIFKUJ_clean_linker_0, # of connection points: 2
#     Edge 35, Type (0, 0), BuildingBlock: MIFKUJ_clean_linker_0, # of connection points: 2
#     Edge 36, Type (0, 0), BuildingBlock: MIFKUJ_clean_linker_0, # of connection points: 2
#     Edge 37, Type (0, 0), BuildingBlock: MIFKUJ_clean_linker_0, # of connection points: 2
#     Edge 38, Type (0, 0), BuildingBlock: MIFKUJ_clean_linker_0, # of connection points: 2
#     Edge 39, Type (0, 0), BuildingBlock: MIFKUJ_clean_linker_0, # of connection points: 2
#     Edge 40, Type (0, 0), BuildingBlock: MIFKUJ_clean_linker_0, # of connection points: 2
#     Edge 41, Type (0, 0), BuildingBlock: MIFKUJ_clean_linker_0, # of connection points: 2
#     Edge 42, Type (0, 0), BuildingBlock: MIFKUJ_clean_linker_0, # of connection points: 2
#     Edge 43, Type (0, 0), BuildingBlock: MIFKUJ_clean_linker_0, # of connection points: 2
#     Edge 44, Type (0, 0), BuildingBlock: MIFKUJ_clean_linker_0, # of connection points: 2
#     Edge 45, Type (0, 0), BuildingBlock: MIFKUJ_clean_linker_0, # of connection points: 2
#     Edge 46, Type (0, 0), BuildingBlock: MIFKUJ_clean_linker_0, # of connection points: 2
#     Edge 47, Type (0, 0), BuildingBlock: MIFKUJ_clean_linker_0, # of connection points: 2
# Relax obj value: 0.156
# Max RMSD: 0.184
# Mean RMSD: 0.183
data_MOF--net-neb--node1-UXUYUI_clean_sbu_0--edge1-MIFKUJ_clean_linker_0
_symmetry_space_group_name_H-M    P1
_symmetry_Int_Tables_number       1
_symmetry_cell_setting            triclinic
loop_
_symmetry_equiv_pos_as_xyz
'x, y, z'
_cell_length_a     80.684672
_cell_length_b     38.202113
_cell_length_c     129.74835
_cell_angle_alpha  89.98671
_cell_angle_beta   90.005951
_cell_angle_gamma 90.000128
loop_
_atom_site_label
_atom_site_type_symbol
_atom_site_fract_x
_atom_site_fract_y
_atom_site_fract_z
_atom_type_partial_charge
Li0 Li 0.10729 0.11542 0.44688 0.0
Li1 Li 0.13512 0.13784 0.44752 0.0
Li2 Li 0.11623 0.15223 0.43334 0.0
Li3 Li 0.12801 0.09422 0.43459 0.0
C4 C 0.10529 0.17664 0.45623 0.0
N5 N 0.08683 0.19806 0.47301 0.0
C6 C 0.11234 0.17683 0.46607 0.0
C7 C 0.08892 0.18774 0.4549 0.0
C8 C 0.10278 0.18768 0.47446 0.0
C9 C 0.07977 0.19834 0.46349 0.0
C10 C 0.1245 0.0549 0.45264 0.0
C11 C 0.12989 0.00312 0.46276 0.0
N12 N 0.11688 0.98682 0.45814 0.0
C13 C 0.11118 0.03757 0.44798 0.0
C14 C 0.13392 0.03753 0.4601 0.0
C15 C 0.10753 0.0032 0.45087 0.0
C16 C 0.07451 0.09207 0.45059 0.0
N17 N 0.08898 0.1014 0.45519 0.0
C18 C 0.0781 0.08693 0.47177 0.0
C19 C 0.09104 0.09882 0.46555 0.0
C20 C 0.06299 0.07689 0.46725 0.0
C21 C 0.06131 0.07967 0.45649 0.0
H22 H 0.07334 0.09331 0.44232 0.0
H23 H 0.10283 0.10557 0.46897 0.0
C24 C 0.15822 0.18829 0.45352 0.0
N25 N 0.1526 0.15559 0.45568 0.0
C26 C 0.17138 0.20243 0.45912 0.0
C27 C 0.17268 0.14889 0.46905 0.0
C28 C 0.15946 0.13582 0.46326 0.0
C29 C 0.17882 0.18262 0.46699 0.0
H30 H 0.15254 0.20322 0.44738 0.0
H31 H 0.15469 0.10992 0.46479 0.0
C32 C 0.09351 0.11322 0.42427 0.0
N33 N 0.07152 0.12771 0.4085 0.0
C34 C 0.09479 0.09563 0.41486 0.0
C35 C 0.08085 0.13773 0.42571 0.0
C36 C 0.0836 0.10342 0.40697 0.0
C37 C 0.06992 0.14484 0.41763 0.0
C38 C 0.15637 0.13276 0.43092 0.0
C39 C 0.16507 0.15269 0.42369 0.0
C40 C 0.16463 0.10679 0.43651 0.0
C41 C 0.18195 0.14634 0.42219 0.0
C42 C 0.18152 0.10125 0.43479 0.0
N43 N 0.18976 0.12097 0.42772 0.0
C44 C 0.10441 0.21841 0.42626 0.0
C45 C 0.11423 0.1791 0.4135 0.0
C46 C 0.10121 0.2438 0.41876 0.0
N47 N 0.11087 0.18694 0.42349 0.0
C48 C 0.11103 0.20343 0.40576 0.0
C49 C 0.10466 0.23654 0.40834 0.0
H50 H 0.10201 0.22396 0.43429 0.0
H51 H 0.11944 0.15387 0.41157 0.0
C52 C 0.13996 0.02472 0.42894 0.0
N53 N 0.13632 0.05795 0.42592 0.0
C54 C 0.14473 -0.00028 0.42166 0.0
C55 C 0.14298 0.04418 0.40845 0.0
C56 C 0.13817 0.06816 0.41596 0.0
C57 C 0.14594 0.00919 0.41121 0.0
H58 H 0.13893 0.01727 0.43693 0.0
H59 H 0.1355 0.09493 0.41381 0.0
O60 O 0.11438 0.16568 0.44793 0.0
O61 O 0.1282 0.08885 0.45013 0.0
O62 O 0.10452 0.10637 0.43205 0.0
O63 O 0.13985 0.13882 0.43246 0.0
H64 H 0.12497 0.16832 0.46725 0.0
H65 H 0.08332 0.18811 0.44734 0.0
H66 H 0.10804 0.18773 0.48213 0.0
H67 H 0.06706 0.2068 0.46259 0.0
H68 H 0.13709 0.98939 0.46852 0.0
H69 H 0.10374 0.05029 0.44217 0.0
H70 H 0.14425 0.05046 0.4638 0.0
H71 H 0.09726 0.98953 0.44733 0.0
H72 H 0.07996 0.08553 0.48003 0.0
H73 H 0.05008 0.07145 0.45262 0.0
H74 H 0.17587 0.22833 0.45719 0.0
H75 H 0.17793 0.13291 0.47512 0.0
H76 H 0.10426 0.07607 0.41367 0.0
H77 H 0.07961 0.1514 0.43296 0.0
H78 H 0.08451 0.09012 0.39963 0.0
H79 H 0.06018 0.164 0.41861 0.0
H80 H 0.15883 0.17286 0.41929 0.0
H81 H 0.15811 0.09104 0.44212 0.0
H82 H 0.18885 0.16157 0.41662 0.0
H83 H 0.18807 0.08127 0.43906 0.0
H84 H 0.09652 0.26909 0.42113 0.0
H85 H 0.11361 0.19636 0.39784 0.0
H86 H 0.14689 0.97304 0.42414 0.0
H87 H 0.14414 0.05288 0.40054 0.0
Li88 Li 0.13108 0.14858 0.81136 0.0
Li89 Li 0.11954 0.08992 0.809 0.0
Li90 Li 0.14057 0.11298 0.79719 0.0
Li91 Li 0.11219 0.13528 0.79714 0.0
C92 C 0.15291 0.10612 0.82027 0.0
N93 N 0.17288 0.11467 0.83738 0.0
C94 C 0.14877 0.08989 0.82957 0.0
C95 C 0.16728 0.12643 0.81964 0.0
C96 C 0.15902 0.09459 0.83814 0.0
C97 C 0.17719 0.13053 0.82838 0.0
C98 C 0.09295 0.15056 0.81276 0.0
C99 C 0.06339 0.15238 0.81004 0.0
N100 N 0.06325 0.18653 0.81301 0.0
C101 C 0.09251 0.18563 0.81581 0.0
C102 C 0.07828 0.13371 0.80989 0.0
C103 C 0.07737 0.20336 0.81589 0.0
C104 C 0.14296 0.21385 0.81899 0.0
N105 N 0.13674 0.18197 0.82155 0.0
C106 C 0.13649 0.19722 0.83938 0.0
C107 C 0.13339 0.1734 0.83149 0.0
C108 C 0.1426 0.23074 0.83701 0.0
C109 C 0.14596 0.23882 0.82663 0.0
H110 H 0.14517 0.2202 0.81098 0.0
H111 H 0.12808 0.14813 0.83327 0.0
C112 C 0.12277 0.02131 0.8166 0.0
N113 N 0.1127 0.04982 0.81648 0.0
C114 C 0.1191 0.99291 0.82297 0.0
C115 C 0.09465 0.02361 0.82885 0.0
C116 C 0.09877 0.05137 0.82234 0.0
C117 C 0.10503 0.99414 0.82934 0.0
H118 H 0.13398 0.02121 0.81203 0.0
H119 H 0.09115 0.07462 0.82223 0.0
C120 C 0.14276 0.17778 0.78953 0.0
N121 N 0.16276 0.20653 0.77447 0.0
C122 C 0.13643 0.18406 0.77968 0.0
C123 C 0.15921 0.18641 0.79176 0.0
C124 C 0.14675 0.19856 0.77216 0.0
C125 C 0.16914 0.20081 0.78403 0.0
C126 C 0.11611 0.05331 0.79223 0.0
C127 C 0.12858 0.0296 0.78955 0.0
C128 C 0.09994 0.04128 0.79379 0.0
C129 C 0.12468 0.99414 0.78855 0.0
C130 C 0.09654 0.0056 0.79273 0.0
N131 N 0.10888 0.98297 0.79016 0.0
C132 C 0.1722 0.08459 0.79353 0.0
C133 C 0.15842 0.10471 0.77854 0.0
C134 C 0.18555 0.07283 0.78765 0.0
N135 N 0.15903 0.10024 0.78892 0.0
C136 C 0.17162 0.09387 0.77236 0.0
C137 C 0.18541 0.07735 0.77689 0.0
H138 H 0.17215 0.08041 0.80177 0.0
H139 H 0.14758 0.11627 0.77503 0.0
C140 C 0.09212 0.18912 0.78916 0.0
N141 N 0.09504 0.15411 0.7888 0.0
C142 C 0.07922 0.20369 0.78342 0.0
C143 C 0.07286 0.14599 0.77686 0.0
C144 C 0.08586 0.13253 0.78275 0.0
C145 C 0.06933 0.18201 0.7772 0.0
H146 H 0.09972 0.20563 0.79401 0.0
H147 H 0.0886 0.10487 0.78252 0.0
O148 O 0.14293 0.10226 0.81182 0.0
O149 O 0.1077 0.13296 0.81242 0.0
O150 O 0.13289 0.1634 0.79698 0.0
O151 O 0.11973 0.08804 0.79342 0.0
H152 H 0.13766 0.0742 0.83022 0.0
H153 H 0.17069 0.13907 0.81248 0.0
H154 H 0.15591 0.08236 0.84541 0.0
H155 H 0.1883 0.14634 0.82802 0.0
H156 H 0.05196 0.13976 0.80777 0.0
H157 H 0.10375 0.19914 0.81801 0.0
H158 H 0.07842 0.10666 0.80743 0.0
H159 H 0.07685 0.23055 0.81819 0.0
H160 H 0.13396 0.18944 0.84725 0.0
H161 H 0.15036 0.26447 0.82438 0.0
H162 H 0.12758 0.97097 0.82324 0.0
H163 H 0.08364 0.02549 0.83359 0.0
H164 H 0.12374 0.17748 0.77782 0.0
H165 H 0.16427 0.18187 0.79936 0.0
H166 H 0.14205 0.2034 0.76448 0.0
H167 H 0.18192 0.20744 0.78563 0.0
H168 H 0.14117 0.03841 0.78833 0.0
H169 H 0.09016 0.05923 0.79594 0.0
H170 H 0.13422 0.97547 0.78653 0.0
H171 H 0.08411 0.9959 0.79399 0.0
H172 H 0.19565 0.05947 0.79149 0.0
H173 H 0.17096 0.09829 0.76413 0.0
H174 H 0.07685 0.23152 0.784 0.0
H175 H 0.06575 0.12841 0.77203 0.0
Li176 Li 0.88794 0.88644 0.54814 0.0
Li177 Li 0.86844 0.90208 0.56103 0.0
Li178 Li 0.87876 0.84356 0.56115 0.0
Li179 Li 0.85899 0.86439 0.54752 0.0
C180 C 0.90777 0.87945 0.56555 0.0
N181 N 0.94043 0.86363 0.56994 0.0
C182 C 0.9165 0.89911 0.57282 0.0
C183 C 0.91564 0.85169 0.56052 0.0
C184 C 0.93301 0.89072 0.57493 0.0
C185 C 0.93216 0.84412 0.56284 0.0
C186 C 0.87098 0.94739 0.544 0.0
C187 C 0.86808 -0.00074 0.53356 0.0
N188 N 0.87947 0.01582 0.53955 0.0
C189 C 0.88267 0.96493 0.55006 0.0
C190 C 0.86363 0.96465 0.53568 0.0
C191 C 0.88679 -0.00049 0.54768 0.0
C192 C 0.90562 0.89335 0.52949 0.0
N193 N 0.90577 0.90173 0.53967 0.0
C194 C 0.93093 0.93391 0.5376 0.0
C195 C 0.91799 0.92191 0.54377 0.0
C196 C 0.93114 0.92562 0.52708 0.0
C197 C 0.91825 0.9052 0.52299 0.0
H198 H 0.89561 0.87766 0.52641 0.0
H199 H 0.91759 0.92923 0.5518 0.0
C200 C 0.86753 0.93561 0.58006 0.0
N201 N 0.86179 0.93814 0.57024 0.0
C202 C 0.86315 0.96066 0.58737 0.0
C203 C 0.84735 0.99097 0.57427 0.0
C204 C 0.85174 0.96485 0.56725 0.0
C205 C 0.85308 0.98888 0.58446 0.0
H206 H 0.87547 0.91398 0.5822 0.0
H207 H 0.84716 0.96592 0.55943 0.0
C208 C 0.8823 0.80739 0.54081 0.0
N209 N 0.88638 0.74515 0.53026 0.0
C210 C 0.86919 0.7836 0.54008 0.0
C211 C 0.89744 0.79965 0.5361 0.0
C212 C 0.87151 0.75224 0.53473 0.0
C213 C 0.89928 0.76801 0.53083 0.0
C214 C 0.84475 0.86721 0.57007 0.0
C215 C 0.84791 0.85744 0.58026 0.0
C216 C 0.83082 0.88753 0.56778 0.0
C217 C 0.83714 0.86851 0.58804 0.0
C218 C 0.82036 0.8981 0.57578 0.0
N219 N 0.82372 0.88847 0.58565 0.0
C220 C 0.89206 0.81196 0.57892 0.0
C221 C 0.87995 0.77191 0.56718 0.0
C222 C 0.89543 0.785 0.58585 0.0
N223 N 0.88453 0.80501 0.56977 0.0
C224 C 0.88294 0.74417 0.57394 0.0
C225 C 0.89068 0.75065 0.58344 0.0
H226 H 0.89498 0.83863 0.58101 0.0
H227 H 0.87353 0.76712 0.56004 0.0
C228 C 0.84288 0.85208 0.52848 0.0
N229 N 0.84143 0.8498 0.53889 0.0
C230 C 0.83028 0.8392 0.52213 0.0
C231 C 0.81497 0.82238 0.53738 0.0
C232 C 0.82787 0.83536 0.54341 0.0
C233 C 0.81611 0.82402 0.52659 0.0
H234 H 0.85392 0.86343 0.52512 0.0
H235 H 0.82723 0.83322 0.5517 0.0
O236 O 0.89162 0.88762 0.56341 0.0
O237 O 0.86683 0.91338 0.54607 0.0
O238 O 0.88019 0.83861 0.54581 0.0
O239 O 0.85538 0.85742 0.56239 0.0
H240 H 0.91057 0.92069 0.57678 0.0
H241 H 0.90909 0.83606 0.55492 0.0
H242 H 0.93992 0.90576 0.58054 0.0
H243 H 0.9384 0.8227 0.55901 0.0
H244 H 0.86248 0.01294 0.52714 0.0
H245 H 0.8885 0.95206 0.55653 0.0
H246 H 0.85459 0.95139 0.5309 0.0
H247 H 0.89581 0.01338 0.5523 0.0
H248 H 0.94048 0.9502 0.54099 0.0
H249 H 0.91801 0.89832 0.51489 0.0
H250 H 0.86788 0.95847 0.59516 0.0
H251 H 0.83951 0.0124 0.5718 0.0
H252 H 0.8574 0.78906 0.5437 0.0
H253 H 0.90768 0.81791 0.5365 0.0
H254 H 0.86149 0.73352 0.53415 0.0
H255 H 0.91094 0.76165 0.52717 0.0
H256 H 0.85865 0.84176 0.58216 0.0
H257 H 0.82827 0.89551 0.55993 0.0
H258 H 0.83949 0.86133 0.59597 0.0
H259 H 0.80961 0.91407 0.57414 0.0
H260 H 0.90108 0.79118 0.59321 0.0
H261 H 0.87903 0.71801 0.57182 0.0
H262 H 0.83159 0.84111 0.51384 0.0
H263 H 0.80443 0.81031 0.54112 0.0
Li264 Li 0.8793 0.90808 0.18536 0.0
Li265 Li 0.85851 0.88562 0.19745 0.0
Li266 Li 0.88683 0.86302 0.19737 0.0
Li267 Li 0.86748 0.84932 0.18337 0.0
C268 C 0.88344 0.94494 0.20226 0.0
N269 N 0.89142 0.01476 0.20474 0.0
C270 C 0.87125 0.96899 0.20517 0.0
C271 C 0.89971 0.95634 0.20068 0.0
C272 C 0.87553 0.00419 0.20637 0.0
C273 C 0.90348 0.99177 0.20195 0.0
C274 C 0.84581 0.89216 0.17434 0.0
C275 C 0.82193 0.86672 0.16604 0.0
N276 N 0.82584 0.88404 0.15721 0.0
C277 C 0.84955 0.90986 0.1652 0.0
C278 C 0.83184 0.87057 0.17479 0.0
C279 C 0.83931 0.90537 0.15662 0.0
C280 C 0.8994 0.94352 0.17106 0.0
N281 N 0.88648 0.94753 0.17768 0.0
C282 C 0.88209 0.00612 0.17187 0.0
C283 C 0.87783 0.978 0.17821 0.0
C284 C 0.89513 0.00244 0.16479 0.0
C285 C 0.90396 0.97079 0.1645 0.0
H286 H 0.90584 0.91877 0.17065 0.0
H287 H 0.8673 0.98008 0.18332 0.0
C288 C 0.84187 0.8978 0.21633 0.0
N289 N 0.84028 0.89861 0.2059 0.0
C290 C 0.82878 0.90858 0.22261 0.0
C291 C 0.81284 0.92152 0.20731 0.0
C292 C 0.82617 0.91022 0.20133 0.0
C293 C 0.81403 0.92088 0.21811 0.0
H294 H 0.85337 0.88915 0.21975 0.0
H295 H 0.82538 0.91144 0.19303 0.0
C296 C 0.9057 0.84753 0.1814 0.0
N297 N 0.93566 0.8127 0.18042 0.0
C298 C 0.90627 0.81266 0.17815 0.0
C299 C 0.92036 0.86477 0.18406 0.0
C300 C 0.92155 0.7955 0.17772 0.0
C301 C 0.93538 0.84667 0.18355 0.0
C302 C 0.85637 0.82231 0.20561 0.0
C303 C 0.8629 0.81822 0.21551 0.0
C304 C 0.83986 0.81337 0.20368 0.0
C305 C 0.8527 0.80555 0.22337 0.0
C306 C 0.83006 0.80086 0.21175 0.0
N307 N 0.83663 0.79725 0.22135 0.0
C308 C 0.91256 0.8663 0.21213 0.0
C309 C 0.90809 0.81021 0.20483 0.0
C310 C 0.92569 0.85346 0.21802 0.0
N311 N 0.90421 0.84471 0.20563 0.0
C312 C 0.92125 0.79634 0.21049 0.0
C313 C 0.93032 0.81808 0.21718 0.0
H314 H 0.90901 0.89349 0.21274 0.0
H315 H 0.90108 0.79359 0.19968 0.0
C316 C 0.86376 0.8234 0.16334 0.0
N317 N 0.86156 0.81518 0.17343 0.0
C318 C 0.86033 0.79886 0.15569 0.0
C319 C 0.85305 0.75724 0.16898 0.0
C320 C 0.85626 0.78296 0.17638 0.0
C321 C 0.85517 0.76494 0.15845 0.0
H322 H 0.86839 0.84897 0.16124 0.0
H323 H 0.85496 0.77694 0.18448 0.0
O324 O 0.87947 0.91044 0.20093 0.0
O325 O 0.85578 0.89593 0.18279 0.0
O326 O 0.89084 0.86461 0.18205 0.0
O327 O 0.86607 0.83511 0.19784 0.0
H328 H 0.8586 0.96066 0.2064 0.0
H329 H 0.90927 0.93809 0.19839 0.0
H330 H 0.86622 0.02312 0.20858 0.0
H331 H 0.91599 0.001 0.20069 0.0
H332 H 0.81115 0.84992 0.16626 0.0
H333 H 0.86032 0.92664 0.1647 0.0
H334 H 0.82878 0.85667 0.1818 0.0
H335 H 0.8421 0.91876 0.14948 0.0
H336 H 0.87481 0.02992 0.17219 0.0
H337 H 0.9141 0.967 0.15915 0.0
H338 H 0.83024 0.90733 0.2309 0.0
H339 H 0.80189 0.93152 0.20348 0.0
H340 H 0.89504 0.79889 0.17608 0.0
H341 H 0.92012 0.89173 0.18662 0.0
H342 H 0.92218 0.76847 0.17527 0.0
H343 H 0.94681 0.8596 0.18566 0.0
H344 H 0.87564 0.82505 0.21713 0.0
H345 H 0.83465 0.8163 0.19604 0.0
H346 H 0.85755 0.80241 0.23109 0.0
H347 H 0.81724 0.79404 0.21039 0.0
H348 H 0.93205 0.87105 0.22323 0.0
H349 H 0.92444 0.76902 0.20949 0.0
H350 H 0.86188 0.80644 0.14771 0.0
H351 H 0.84945 0.73137 0.17154 0.0
Li352 Li 0.13675 0.63685 0.94672 0.0
Li353 Li 0.10908 0.61014 0.94817 0.0
Li354 Li 0.12821 0.59401 0.93488 0.0
Li355 Li 0.11635 0.65089 0.93391 0.0
C356 C 0.13897 0.5567 0.95008 0.0
N357 N 0.15506 0.49292 0.94928 0.0
C358 C 0.13011 0.52569 0.95157 0.0
C359 C 0.15603 0.55531 0.94825 0.0
C360 C 0.13846 0.49369 0.95112 0.0
C361 C 0.16394 0.5228 0.94787 0.0
C362 C 0.11867 0.68126 0.95721 0.0
C363 C 0.12397 0.73758 0.96493 0.0
N364 N 0.12785 0.72149 0.97397 0.0
C365 C 0.12259 0.66529 0.9666 0.0
C366 C 0.11928 0.7177 0.95638 0.0
C367 C 0.12725 0.68608 0.97497 0.0
C368 C 0.16025 0.68854 0.95154 0.0
N369 N 0.15485 0.65606 0.95415 0.0
C370 C 0.17509 0.65201 0.96751 0.0
C371 C 0.16189 0.63774 0.96198 0.0
C372 C 0.18095 0.68568 0.96506 0.0
C373 C 0.17328 0.70403 0.95695 0.0
H374 H 0.15428 0.70255 0.94531 0.0
H375 H 0.15721 0.61209 0.96396 0.0
C376 C 0.08479 0.56216 0.95371 0.0
N377 N 0.0916 0.59319 0.95659 0.0
C378 C 0.07152 0.54811 0.9592 0.0
C379 C 0.07249 0.5982 0.97058 0.0
C380 C 0.08565 0.6115 0.96478 0.0
C381 C 0.06525 0.56615 0.96778 0.0
H382 H 0.08962 0.54847 0.94706 0.0
H383 H 0.09095 0.63656 0.96675 0.0
C384 C 0.14346 0.64105 0.9215 0.0
N385 N 0.15058 0.64805 0.90076 0.0
C386 C 0.13288 0.62661 0.91409 0.0
C387 C 0.15765 0.65907 0.91835 0.0
C388 C 0.1367 0.63042 0.90365 0.0
C389 C 0.16104 0.66232 0.90783 0.0
C390 C 0.08794 0.60952 0.93149 0.0
C391 C 0.07939 0.58696 0.92488 0.0
C392 C 0.0794 0.63667 0.9364 0.0
C393 C 0.06243 0.59194 0.92329 0.0
C394 C 0.06244 0.64076 0.93461 0.0
N395 N 0.05438 0.6185 0.92815 0.0
C396 C 0.123 0.5307 0.92477 0.0
C397 C 0.1505 0.55177 0.92305 0.0
C398 C 0.12657 0.5021 0.9185 0.0
N399 N 0.13486 0.55492 0.92682 0.0
C400 C 0.15467 0.52337 0.91678 0.0
C401 C 0.14257 0.4982 0.91435 0.0
H402 H 0.11069 0.5339 0.92793 0.0
H403 H 0.1597 0.57144 0.92485 0.0
C404 C 0.11598 0.71863 0.92549 0.0
N405 N 0.10921 0.68623 0.92452 0.0
C406 C 0.11288 0.74433 0.91808 0.0
C407 C 0.09593 0.70279 0.9088 0.0
C408 C 0.09932 0.67797 0.91639 0.0
C409 C 0.10293 0.73632 0.90951 0.0
H410 H 0.12437 0.72403 0.93179 0.0
H411 H 0.09461 0.65172 0.9155 0.0
O412 O 0.13096 0.58824 0.95024 0.0
O413 O 0.11457 0.66122 0.94885 0.0
O414 O 0.13994 0.63825 0.93178 0.0
O415 O 0.10453 0.60454 0.93317 0.0
H416 H 0.11692 0.52629 0.95301 0.0
H417 H 0.16305 0.57906 0.94695 0.0
H418 H 0.13175 0.46946 0.95221 0.0
H419 H 0.17711 0.52132 0.94638 0.0
H420 H 0.12455 0.76581 0.96438 0.0
H421 H 0.12233 0.63707 0.96736 0.0
H422 H 0.11614 0.73053 0.94921 0.0
H423 H 0.13046 0.67404 0.98225 0.0
H424 H 0.18072 0.63661 0.97358 0.0
H425 H 0.17712 0.73026 0.95489 0.0
H426 H 0.06632 0.52323 0.95684 0.0
H427 H 0.06782 0.61311 0.97706 0.0
H428 H 0.1218 0.61268 0.91635 0.0
H429 H 0.16593 0.67053 0.92398 0.0
H430 H 0.12861 0.61941 0.89785 0.0
H431 H 0.17198 0.67623 0.90529 0.0
H432 H 0.0858 0.56583 0.92101 0.0
H433 H 0.08572 0.65444 0.94154 0.0
H434 H 0.05567 0.57467 0.91819 0.0
H435 H 0.05568 0.66163 0.93836 0.0
H436 H 0.11674 0.4838 0.9167 0.0
H437 H 0.1672 0.52122 0.91386 0.0
H438 H 0.11882 0.76964 0.91881 0.0
H439 H 0.08819 0.69554 0.90232 0.0
Li440 Li 0.12951 0.65478 0.3112 0.0
Li441 Li 0.11734 0.59927 0.31044 0.0
Li442 Li 0.13894 0.61492 0.2979 0.0
Li443 Li 0.10951 0.64182 0.29745 0.0
C444 C 0.15259 0.61296 0.32023 0.0
N445 N 0.17637 0.62023 0.33539 0.0
C446 C 0.14795 0.6139 0.3306 0.0
C447 C 0.16934 0.61521 0.31756 0.0
C448 C 0.16015 0.61776 0.33815 0.0
C449 C 0.18118 0.61899 0.32534 0.0
C450 C 0.0929 0.63846 0.3189 0.0
C451 C 0.06375 0.62937 0.32204 0.0
N452 N 0.06692 0.62631 0.3323 0.0
C453 C 0.09584 0.6356 0.32948 0.0
C454 C 0.07672 0.6356 0.31514 0.0
C455 C 0.08255 0.62928 0.33613 0.0
C456 C 0.12385 0.71047 0.32473 0.0
N457 N 0.13625 0.69173 0.32028 0.0
C458 C 0.15666 0.72577 0.32913 0.0
C459 C 0.15244 0.69923 0.32222 0.0
C460 C 0.14409 0.74512 0.33396 0.0
C461 C 0.1275 0.73739 0.33162 0.0
H462 H 0.11108 0.70449 0.32295 0.0
H463 H 0.16212 0.68482 0.31837 0.0
C464 C 0.12273 0.5403 0.32244 0.0
N465 N 0.1102 0.55986 0.31847 0.0
C466 C 0.11933 0.51148 0.32865 0.0
C467 C 0.09007 0.52246 0.32638 0.0
C468 C 0.09406 0.55112 0.32015 0.0
C469 C 0.10282 0.50237 0.33076 0.0
H470 H 0.13545 0.54712 0.32082 0.0
H471 H 0.08426 0.56616 0.31665 0.0
C472 C 0.13934 0.69673 0.29657 0.0
N473 N 0.15419 0.76162 0.2983 0.0
C474 C 0.12962 0.72694 0.29719 0.0
C475 C 0.15661 0.69951 0.2968 0.0
C476 C 0.13737 0.75951 0.29808 0.0
C477 C 0.16388 0.73257 0.29767 0.0
C478 C 0.10843 0.56143 0.29469 0.0
C479 C 0.11719 0.52988 0.29481 0.0
C480 C 0.09111 0.56099 0.29447 0.0
C481 C 0.10844 0.49831 0.29476 0.0
C482 C 0.08282 0.52888 0.2944 0.0
N483 N 0.09159 0.49847 0.29456 0.0
C484 C 0.16351 0.56671 0.2926 0.0
C485 C 0.16325 0.61763 0.28217 0.0
C486 C 0.17706 0.55344 0.28719 0.0
N487 N 0.15694 0.59823 0.29001 0.0
C488 C 0.177 0.60567 0.27667 0.0
C489 C 0.18414 0.5731 0.27914 0.0
H490 H 0.15826 0.552 0.29893 0.0
H491 H 0.15773 0.64261 0.28027 0.0
C492 C 0.08451 0.68912 0.29171 0.0
N493 N 0.09261 0.65954 0.28881 0.0
C494 C 0.07174 0.7025 0.28562 0.0
C495 C 0.0758 0.65447 0.27374 0.0
C496 C 0.08865 0.6423 0.27998 0.0
C497 C 0.06718 0.68493 0.27655 0.0
H498 H 0.08785 0.70205 0.29883 0.0
H499 H 0.09539 0.6189 0.27786 0.0
O500 O 0.14084 0.60901 0.31272 0.0
O501 O 0.10573 0.64491 0.31229 0.0
O502 O 0.13198 0.66456 0.29594 0.0
O503 O 0.11674 0.59261 0.295 0.0
H504 H 0.13506 0.61168 0.33278 0.0
H505 H 0.17315 0.61444 0.30957 0.0
H506 H 0.15673 0.61873 0.3462 0.0
H507 H 0.19418 0.62101 0.3234 0.0
H508 H 0.05118 0.62687 0.31923 0.0
H509 H 0.10825 0.63826 0.33253 0.0
H510 H 0.07421 0.63779 0.30698 0.0
H511 H 0.08466 0.62682 0.34433 0.0
H512 H 0.16961 0.73134 0.3306 0.0
H513 H 0.11742 0.75158 0.33522 0.0
H514 H 0.12956 0.49695 0.33195 0.0
H515 H 0.07717 0.51597 0.32769 0.0
H516 H 0.11625 0.72523 0.29708 0.0
H517 H 0.16432 0.67636 0.29651 0.0
H518 H 0.13 0.7831 0.29862 0.0
H519 H 0.17723 0.73509 0.29793 0.0
H520 H 0.13058 0.52976 0.29502 0.0
H521 H 0.08413 0.58516 0.29452 0.0
H522 H 0.11506 0.47369 0.29491 0.0
H523 H 0.06942 0.52814 0.29429 0.0
H524 H 0.18185 0.52794 0.28929 0.0
H525 H 0.18211 0.6221 0.27066 0.0
H526 H 0.06525 0.72587 0.28808 0.0
H527 H 0.0727 0.6404 0.26675 0.0
Li528 Li 0.88723 0.38521 0.0482 0.0
Li529 Li 0.86682 0.40368 0.06028 0.0
Li530 Li 0.87827 0.34599 0.06161 0.0
Li531 Li 0.85943 0.36109 0.04747 0.0
C532 C 0.90598 0.38444 0.06617 0.0
N533 N 0.93827 0.37123 0.07211 0.0
C534 C 0.9131 0.40334 0.07426 0.0
C535 C 0.91528 0.35877 0.06111 0.0
C536 C 0.92945 0.39629 0.07714 0.0
C537 C 0.93158 0.3525 0.06423 0.0
C538 C 0.86958 0.44374 0.04206 0.0
C539 C 0.86689 0.4908 0.02978 0.0
N540 N 0.87687 0.51109 0.03575 0.0
C541 C 0.87982 0.46505 0.04807 0.0
C542 C 0.86307 0.45666 0.03283 0.0
C543 C 0.88335 0.49903 0.04476 0.0
C544 C 0.90795 0.38501 0.03068 0.0
N545 N 0.90551 0.39999 0.04005 0.0
C546 C 0.92892 0.43736 0.03765 0.0
C547 C 0.91569 0.4256 0.04363 0.0
C548 C 0.9318 0.42247 0.02791 0.0
C549 C 0.92112 0.39585 0.02445 0.0
H550 H 0.89963 0.3647 0.02804 0.0
H551 H 0.91348 0.43716 0.0511 0.0
C552 C 0.86317 0.43723 0.07895 0.0
N553 N 0.85907 0.44056 0.06884 0.0
C554 C 0.85881 0.4632 0.08598 0.0
C555 C 0.84596 0.49553 0.07208 0.0
C556 C 0.85028 0.46852 0.06533 0.0
C557 C 0.85037 0.49306 0.08252 0.0
H558 H 0.87005 0.41451 0.0815 0.0
H559 H 0.84687 0.47015 0.05729 0.0
C560 C 0.87787 0.30079 0.04455 0.0
N561 N 0.87143 0.23125 0.04027 0.0
C562 C 0.86586 0.28259 0.05018 0.0
C563 C 0.8866 0.28361 0.03675 0.0
C564 C 0.86279 0.24746 0.0479 0.0
C565 C 0.88317 0.24844 0.0347 0.0
C566 C 0.83995 0.37047 0.06647 0.0
C567 C 0.83579 0.36243 0.07665 0.0
C568 C 0.82928 0.39119 0.06056 0.0
C569 C 0.82101 0.37537 0.08078 0.0
C570 C 0.81462 0.40363 0.06497 0.0
N571 N 0.81083 0.39555 0.0749 0.0
C572 C 0.88016 0.31748 0.08118 0.0
C573 C 0.89473 0.28387 0.06879 0.0
C574 C 0.88446 0.29398 0.08895 0.0
N575 N 0.88508 0.31176 0.07132 0.0
C576 C 0.89937 0.25968 0.07633 0.0
C577 C 0.89412 0.26447 0.08657 0.0
H578 H 0.8729 0.34043 0.083 0.0
H579 H 0.89891 0.28045 0.06094 0.0
C580 C 0.84374 0.34891 0.02838 0.0
N581 N 0.84266 0.34329 0.03869 0.0
C582 C 0.83176 0.33506 0.02175 0.0
C583 C 0.81782 0.31015 0.03652 0.0
C584 C 0.83009 0.32426 0.04284 0.0
C585 C 0.81857 0.31532 0.02581 0.0
H586 H 0.854 0.36387 0.02531 0.0
H587 H 0.82964 0.31986 0.05106 0.0
O588 O 0.88995 0.39108 0.06334 0.0
O589 O 0.86607 0.4102 0.04504 0.0
O590 O 0.88105 0.33533 0.04653 0.0
O591 O 0.85459 0.35897 0.06236 0.0
H592 H 0.90605 0.42325 0.07826 0.0
H593 H 0.91002 0.34384 0.05484 0.0
H594 H 0.93512 0.41074 0.08339 0.0
H595 H 0.93892 0.33273 0.06038 0.0
H596 H 0.86194 0.50114 0.02265 0.0
H597 H 0.88497 0.45552 0.05523 0.0
H598 H 0.85516 0.44042 0.02808 0.0
H599 H 0.89125 0.51579 0.04934 0.0
H600 H 0.93662 0.45834 0.04058 0.0
H601 H 0.92297 0.38333 0.01706 0.0
H602 H 0.86253 0.46058 0.09397 0.0
H603 H 0.83935 0.51816 0.06918 0.0
H604 H 0.85901 0.29531 0.05627 0.0
H605 H 0.89592 0.29733 0.03231 0.0
H606 H 0.85354 0.23307 0.0522 0.0
H607 H 0.88983 0.23482 0.02868 0.0
H608 H 0.84385 0.34637 0.08134 0.0
H609 H 0.8324 0.39801 0.0527 0.0
H610 H 0.81765 0.3694 0.08865 0.0
H611 H 0.8063 0.41984 0.0605 0.0
H612 H 0.88 0.29861 0.0967 0.0
H613 H 0.90708 0.23765 0.07419 0.0
H614 H 0.83298 0.33931 0.01353 0.0
H615 H 0.80778 0.29559 0.04003 0.0
Li616 Li 0.86931 0.34322 0.68506 0.0
Li617 Li 0.88828 0.36067 0.69879 0.0
Li618 Li 0.85943 0.37937 0.69892 0.0
Li619 Li 0.87922 0.40348 0.68659 0.0
C620 C 0.85915 0.31775 0.70767 0.0
N621 N 0.84018 0.29421 0.72398 0.0
C622 C 0.86571 0.31742 0.71764 0.0
C623 C 0.84299 0.30591 0.70598 0.0
C624 C 0.85591 0.30543 0.72578 0.0
C625 C 0.83358 0.29419 0.71433 0.0
C626 C 0.90732 0.34574 0.68305 0.0
C627 C 0.93697 0.3477 0.68538 0.0
N628 N 0.93793 0.31332 0.68272 0.0
C629 C 0.9086 0.31047 0.6803 0.0
C630 C 0.92161 0.36459 0.68556 0.0
C631 C 0.92419 0.29454 0.68019 0.0
C632 C 0.86637 0.31529 0.66524 0.0
N633 N 0.86413 0.30773 0.67537 0.0
C634 C 0.85526 0.24979 0.67123 0.0
C635 C 0.85875 0.27575 0.6785 0.0
C636 C 0.85713 0.257 0.66065 0.0
C637 C 0.86265 0.29049 0.65772 0.0
H638 H 0.87099 0.34074 0.66301 0.0
H639 H 0.8574 0.27027 0.68663 0.0
C640 C 0.91517 0.36725 0.71282 0.0
N641 N 0.90613 0.34455 0.70705 0.0
C642 C 0.92848 0.35513 0.7187 0.0
C643 C 0.92274 0.29648 0.71267 0.0
C644 C 0.90953 0.30972 0.70694 0.0
C645 C 0.93245 0.31929 0.71864 0.0
H646 H 0.91203 0.39474 0.71287 0.0
H647 H 0.90202 0.29229 0.70232 0.0
C648 C 0.84628 0.38141 0.67583 0.0
N649 N 0.82676 0.36763 0.6588 0.0
C650 C 0.84941 0.39834 0.66647 0.0
C651 C 0.83317 0.35758 0.67652 0.0
C652 C 0.8394 0.39101 0.65795 0.0
C653 C 0.82347 0.35092 0.66782 0.0
C654 C 0.88251 0.44248 0.70286 0.0
C655 C 0.86953 0.46537 0.7052 0.0
C656 C 0.89841 0.45577 0.70112 0.0
C657 C 0.87268 0.50129 0.70572 0.0
C658 C 0.90104 0.49186 0.70169 0.0
N659 N 0.88823 0.51368 0.70396 0.0
C660 C 0.84336 0.3945 0.71776 0.0
C661 C 0.82607 0.39658 0.70301 0.0
C662 C 0.83021 0.40473 0.72407 0.0
N663 N 0.84105 0.39067 0.70745 0.0
C664 C 0.81259 0.40688 0.70901 0.0
C665 C 0.81461 0.41141 0.71968 0.0
H666 H 0.85552 0.39032 0.72105 0.0
H667 H 0.82463 0.39398 0.69478 0.0
C668 C 0.89855 0.44394 0.67282 0.0
N669 N 0.8846 0.44361 0.67869 0.0
C670 C 0.90145 0.47146 0.66598 0.0
C671 C 0.87577 0.49808 0.67155 0.0
C672 C 0.87339 0.47012 0.67829 0.0
C673 C 0.88978 0.49858 0.66512 0.0
H674 H 0.90707 0.42217 0.67315 0.0
H675 H 0.86227 0.4688 0.68294 0.0
O676 O 0.86841 0.33005 0.69962 0.0
O677 O 0.89214 0.36161 0.68342 0.0
O678 O 0.85608 0.38789 0.68423 0.0
O679 O 0.87963 0.40728 0.70213 0.0
H680 H 0.87817 0.32667 0.71909 0.0
H681 H 0.83772 0.30605 0.69831 0.0
H682 H 0.8608 0.30519 0.73355 0.0
H683 H 0.82102 0.28514 0.71315 0.0
H684 H 0.94811 0.36188 0.68739 0.0
H685 H 0.89768 0.29543 0.67838 0.0
H686 H 0.92083 0.39184 0.68778 0.0
H687 H 0.92536 0.26722 0.67812 0.0
H688 H 0.85143 0.22421 0.67392 0.0
H689 H 0.86406 0.2977 0.6497 0.0
H690 H 0.93545 0.37355 0.72333 0.0
H691 H 0.92546 0.26875 0.71229 0.0
H692 H 0.85956 0.41661 0.66573 0.0
H693 H 0.83067 0.34398 0.68367 0.0
H694 H 0.84172 0.40381 0.65066 0.0
H695 H 0.81337 0.33237 0.66824 0.0
H696 H 0.85713 0.4556 0.7065 0.0
H697 H 0.90856 0.43846 0.6992 0.0
H698 H 0.86274 0.51933 0.70748 0.0
H699 H 0.91326 0.50253 0.7003 0.0
H700 H 0.83236 0.40842 0.73224 0.0
H701 H 0.80075 0.41144 0.70532 0.0
H702 H 0.91229 0.47063 0.66106 0.0
H703 H 0.86654 0.51862 0.67117 0.0
Li704 Li 0.6106 0.11703 0.94729 0.0
Li705 Li 0.63843 0.13786 0.94667 0.0
Li706 Li 0.61742 0.15921 0.93418 0.0
Li707 Li 0.62827 0.09799 0.93356 0.0
C708 C 0.60834 0.18948 0.95408 0.0
N709 N 0.58824 0.23748 0.96395 0.0
C710 C 0.61267 0.20216 0.96382 0.0
C711 C 0.59388 0.2015 0.94932 0.0
C712 C 0.60231 0.22632 0.9687 0.0
C713 C 0.58386 0.2257 0.95444 0.0
C714 C 0.63365 0.07857 0.95846 0.0
C715 C 0.64177 0.03541 0.97106 0.0
N716 N 0.6385 0.05869 0.97873 0.0
C717 C 0.63034 0.10204 0.96647 0.0
C718 C 0.63939 0.04496 0.96077 0.0
C719 C 0.63288 0.09151 0.97666 0.0
C720 C 0.59174 0.064 0.95607 0.0
N721 N 0.59349 0.09941 0.95618 0.0
C722 C 0.571 0.10483 0.96807 0.0
C723 C 0.58352 0.11988 0.96211 0.0
C724 C 0.56865 0.06845 0.96785 0.0
C725 C 0.57925 0.04791 0.96179 0.0
H726 H 0.59997 0.04825 0.95141 0.0
H727 H 0.58509 0.14783 0.96222 0.0
C728 C 0.65875 0.18777 0.95589 0.0
N729 N 0.65732 0.15287 0.95412 0.0
C730 C 0.67237 0.20085 0.96127 0.0
C731 C 0.68286 0.14178 0.96283 0.0
C732 C 0.66901 0.12984 0.95742 0.0
C733 C 0.68466 0.17775 0.96483 0.0
H734 H 0.64925 0.20542 0.95313 0.0
H735 H 0.66763 0.10222 0.95582 0.0
C736 C 0.59047 0.09722 0.93224 0.0
N737 N 0.56083 0.061 0.93282 0.0
C738 C 0.59016 0.06123 0.9303 0.0
C739 C 0.57567 0.11485 0.93436 0.0
C740 C 0.57506 0.04338 0.93065 0.0
C741 C 0.56083 0.09605 0.93466 0.0
C742 C 0.65654 0.13842 0.92843 0.0
C743 C 0.66392 0.16307 0.92193 0.0
C744 C 0.6657 0.10959 0.93183 0.0
C745 C 0.6804 0.15842 0.91892 0.0
C746 C 0.68214 0.10588 0.92865 0.0
N747 N 0.68909 0.13016 0.92232 0.0
C748 C 0.62182 0.22541 0.92564 0.0
C749 C 0.59797 0.19558 0.91953 0.0
C750 C 0.61901 0.25291 0.91879 0.0
N751 N 0.61147 0.19741 0.92578 0.0
C752 C 0.59461 0.22264 0.9126 0.0
C753 C 0.60539 0.25146 0.91205 0.0
H754 H 0.63251 0.22587 0.93067 0.0
H755 H 0.59009 0.1727 0.91975 0.0
C756 C 0.64101 0.03189 0.92745 0.0
N757 N 0.63395 0.06221 0.92419 0.0
C758 C 0.64468 0.00545 0.92038 0.0
C759 C 0.63381 0.04219 0.90678 0.0
C760 C 0.63041 0.06791 0.9141 0.0
C761 C 0.64097 0.01035 0.90989 0.0
H762 H 0.64371 0.02823 0.93554 0.0
H763 H 0.62473 0.09232 0.91179 0.0
O764 O 0.61847 0.16614 0.94917 0.0
O765 O 0.63122 0.08811 0.9484 0.0
O766 O 0.60519 0.11501 0.93215 0.0
O767 O 0.64045 0.14275 0.93149 0.0
H768 H 0.62391 0.1934 0.96757 0.0
H769 H 0.59035 0.1921 0.94178 0.0
H770 H 0.60548 0.23626 0.97625 0.0
H771 H 0.57259 0.23509 0.95087 0.0
H772 H 0.64622 0.00948 0.97296 0.0
H773 H 0.62585 0.12807 0.96487 0.0
H774 H 0.64197 0.02641 0.95468 0.0
H775 H 0.63037 0.10944 0.98292 0.0
H776 H 0.56301 0.12154 0.97264 0.0
H777 H 0.57796 0.01971 0.96153 0.0
H778 H 0.67314 0.2287 0.96276 0.0
H779 H 0.69214 0.12312 0.96531 0.0
H780 H 0.60147 0.04711 0.92868 0.0
H781 H 0.57565 0.14268 0.93585 0.0
H782 H 0.57466 0.01549 0.92924 0.0
H783 H 0.54931 0.10931 0.93637 0.0
H784 H 0.65698 0.18556 0.91926 0.0
H785 H 0.6602 0.09039 0.93691 0.0
H786 H 0.68628 0.17728 0.91389 0.0
H787 H 0.68938 0.08373 0.93124 0.0
H788 H 0.62751 0.27484 0.91866 0.0
H789 H 0.58409 0.22039 0.90746 0.0
H790 H 0.65038 0.9815 0.9231 0.0
H791 H 0.63048 0.04689 0.89881 0.0
Li792 Li 0.62906 0.1551 0.31024 0.0
Li793 Li 0.61701 0.09886 0.31103 0.0
Li794 Li 0.63722 0.11095 0.29782 0.0
Li795 Li 0.60836 0.13852 0.29754 0.0
C796 C 0.64554 0.10956 0.32298 0.0
N797 N 0.65497 0.1075 0.34346 0.0
C798 C 0.63426 0.11851 0.33072 0.0
C799 C 0.66165 0.09971 0.32567 0.0
C800 C 0.63924 0.11725 0.34102 0.0
C801 C 0.66618 0.09879 0.33606 0.0
C802 C 0.59031 0.14432 0.31701 0.0
C803 C 0.56106 0.13125 0.3166 0.0
N804 N 0.55944 0.1446 0.32626 0.0
C805 C 0.58833 0.1581 0.32692 0.0
C806 C 0.57655 0.1309 0.31179 0.0
C807 C 0.57264 0.1579 0.33147 0.0
C808 C 0.62473 0.21745 0.321 0.0
N809 N 0.63645 0.194 0.31806 0.0
C810 C 0.6574 0.22566 0.32714 0.0
C811 C 0.65258 0.19767 0.32088 0.0
C812 C 0.64546 0.24991 0.33051 0.0
C813 C 0.62895 0.24561 0.32728 0.0
H814 H 0.61202 0.21393 0.31856 0.0
H815 H 0.66166 0.1787 0.31836 0.0
C816 C 0.62281 0.03658 0.32144 0.0
N817 N 0.61088 0.06133 0.32017 0.0
C818 C 0.62078 0.00981 0.32863 0.0
C819 C 0.59397 0.03375 0.33296 0.0
C820 C 0.59648 0.05996 0.32562 0.0
C821 C 0.60636 0.00859 0.33468 0.0
H822 H 0.63415 0.03816 0.31702 0.0
H823 H 0.58708 0.07954 0.32455 0.0
C824 C 0.63936 0.19053 0.29445 0.0
N825 N 0.65721 0.2522 0.29434 0.0
C826 C 0.63111 0.22269 0.29437 0.0
C827 C 0.65667 0.18967 0.29442 0.0
C828 C 0.64036 0.2536 0.29433 0.0
C829 C 0.66548 0.22116 0.29437 0.0
C830 C 0.61032 0.05409 0.29621 0.0
C831 C 0.62225 0.02759 0.29582 0.0
C832 C 0.59356 0.04529 0.297 0.0
C833 C 0.61721 0.99266 0.29641 0.0
C834 C 0.58902 0.01005 0.29758 0.0
N835 N 0.60084 0.98469 0.29729 0.0
C836 C 0.66682 0.07438 0.29439 0.0
C837 C 0.65463 0.09831 0.27932 0.0
C838 C 0.67988 0.0606 0.28864 0.0
N839 N 0.6546 0.09286 0.28967 0.0
C840 C 0.66743 0.08482 0.27325 0.0
C841 C 0.6803 0.06576 0.27792 0.0
H842 H 0.66631 0.07011 0.30261 0.0
H843 H 0.64471 0.11316 0.2758 0.0
C844 C 0.58431 0.18715 0.29192 0.0
N845 N 0.59126 0.15625 0.28907 0.0
C846 C 0.57156 0.20173 0.28608 0.0
C847 C 0.57343 0.15245 0.27443 0.0
C848 C 0.58614 0.13874 0.28054 0.0
C849 C 0.56597 0.18442 0.27717 0.0
H850 H 0.58861 0.20029 0.2988 0.0
H851 H 0.59195 0.11419 0.27848 0.0
O852 O 0.641 0.11078 0.3128 0.0
O853 O 0.60557 0.14485 0.31241 0.0
O854 O 0.63055 0.16002 0.29483 0.0
O855 O 0.61506 0.08844 0.29587 0.0
H856 H 0.62177 0.12627 0.32882 0.0
H857 H 0.67062 0.09298 0.31979 0.0
H858 H 0.63061 0.12405 0.34707 0.0
H859 H 0.67861 0.09121 0.33824 0.0
H860 H 0.55032 0.12084 0.31265 0.0
H861 H 0.59881 0.16882 0.33106 0.0
H862 H 0.57779 0.12009 0.30415 0.0
H863 H 0.57095 0.16839 0.33914 0.0
H864 H 0.67029 0.22819 0.32932 0.0
H865 H 0.61926 0.26323 0.32981 0.0
H866 H 0.63054 0.99059 0.32954 0.0
H867 H 0.58271 0.03406 0.3375 0.0
H868 H 0.61771 0.22375 0.29445 0.0
H869 H 0.66323 0.16496 0.29456 0.0
H870 H 0.63416 0.27869 0.29433 0.0
H871 H 0.67889 0.22093 0.2944 0.0
H872 H 0.63527 0.03392 0.2952 0.0
H873 H 0.58415 0.0654 0.29719 0.0
H874 H 0.62632 0.9719 0.29621 0.0
H875 H 0.5761 0.00287 0.29826 0.0
H876 H 0.68943 0.04562 0.29252 0.0
H877 H 0.66737 0.0896 0.26502 0.0
H878 H 0.566 0.22607 0.28859 0.0
H879 H 0.56964 0.13841 0.26757 0.0
Li880 Li 0.35942 0.86488 0.04543 0.0
Li881 Li 0.37954 0.84219 0.05834 0.0
Li882 Li 0.36967 0.90243 0.05925 0.0
Li883 Li 0.38906 0.88509 0.04616 0.0
C884 C 0.34722 0.86466 0.06901 0.0
N885 N 0.32942 0.88001 0.08664 0.0
C886 C 0.35213 0.85089 0.07852 0.0
C887 C 0.33318 0.88603 0.06847 0.0
C888 C 0.34298 0.85898 0.08734 0.0
C889 C 0.32438 0.89356 0.07747 0.0
C890 C 0.38402 0.80326 0.0417 0.0
C891 C 0.40349 0.75543 0.04254 0.0
N892 N 0.3913 0.73294 0.03962 0.0
C893 C 0.3717 0.7797 0.03866 0.0
C894 C 0.40007 0.79109 0.04361 0.0
C895 C 0.37562 0.74424 0.03767 0.0
C896 C 0.34386 0.84965 0.02648 0.0
N897 N 0.34154 0.85176 0.03683 0.0
C898 C 0.31367 0.83161 0.03516 0.0
C899 C 0.32685 0.84306 0.04124 0.0
C900 C 0.31572 0.82842 0.02444 0.0
C901 C 0.33107 0.83786 0.0201 0.0
H902 H 0.35578 0.85638 0.02322 0.0
H903 H 0.32541 0.84475 0.04951 0.0
C904 C 0.3976 0.80365 0.07323 0.0
N905 N 0.38496 0.80218 0.06632 0.0
C906 C 0.4007 0.77537 0.07978 0.0
C907 C 0.37792 0.74442 0.07181 0.0
C908 C 0.37514 0.77343 0.06552 0.0
C909 C 0.39068 0.74532 0.07919 0.0
H910 H 0.40493 0.82721 0.0739 0.0
H911 H 0.36491 0.77335 0.06014 0.0
C912 C 0.35902 0.9419 0.04198 0.0
N913 N 0.33988 -0.00035 0.03714 0.0
C914 C 0.36657 0.97369 0.03944 0.0
C915 C 0.34173 0.93946 0.04199 0.0
C916 C 0.35668 0.0026 0.03704 0.0
C917 C 0.33228 0.96895 0.03954 0.0
C918 C 0.4078 0.89849 0.0623 0.0
C919 C 0.40974 0.93364 0.06504 0.0
C920 C 0.42179 0.8779 0.0604 0.0
C921 C 0.42569 0.94769 0.06575 0.0
C922 C 0.43752 0.89294 0.06117 0.0
N923 N 0.43913 0.92723 0.06381 0.0
C924 C 0.37071 0.93024 0.07879 0.0
C925 C 0.35547 0.96704 0.06757 0.0
C926 C 0.36819 0.9532 0.08698 0.0
N927 N 0.36445 0.93748 0.0693 0.0
C928 C 0.35277 0.99098 0.07553 0.0
C929 C 0.35928 0.98432 0.08539 0.0
H930 H 0.37774 0.90648 0.07999 0.0
H931 H 0.35047 0.97242 0.06005 0.0
C932 C 0.41512 0.87776 0.03159 0.0
N933 N 0.40729 0.90039 0.03804 0.0
C934 C 0.42872 0.8889 0.02579 0.0
C935 C 0.42585 0.94642 0.03335 0.0
C936 C 0.41227 0.93423 0.03895 0.0
C937 C 0.43429 0.92362 0.02668 0.0
H938 H 0.41081 0.85107 0.03095 0.0
H939 H 0.40577 0.9517 0.04408 0.0
O940 O 0.35628 0.85778 0.06032 0.0
O941 O 0.38038 0.83801 0.04284 0.0
O942 O 0.36854 0.91325 0.04422 0.0
O943 O 0.39228 0.88436 0.06142 0.0
H944 H 0.363 0.83448 0.07912 0.0
H945 H 0.32923 0.89708 0.0612 0.0
H946 H 0.3467 0.84866 0.09475 0.0
H947 H 0.31357 0.91028 0.07716 0.0
H948 H 0.41583 0.74563 0.04405 0.0
H949 H 0.3592 0.7886 0.03719 0.0
H950 H 0.40975 0.80895 0.04597 0.0
H951 H 0.36619 0.72569 0.03537 0.0
H952 H 0.30202 0.82528 0.03886 0.0
H953 H 0.33335 0.83532 0.01192 0.0
H954 H 0.41045 0.77759 0.08547 0.0
H955 H 0.36999 0.72173 0.07098 0.0
H956 H 0.37991 0.97608 0.03931 0.0
H957 H 0.33564 0.91525 0.04397 0.0
H958 H 0.36237 0.02737 0.03509 0.0
H959 H 0.31889 0.96743 0.03957 0.0
H960 H 0.39907 0.95007 0.06645 0.0
H961 H 0.42051 0.85067 0.05827 0.0
H962 H 0.42738 0.9749 0.0678 0.0
H963 H 0.44845 0.87737 0.05966 0.0
H964 H 0.37317 0.94656 0.09448 0.0
H965 H 0.34597 0.01478 0.07391 0.0
H966 H 0.43494 0.87044 0.02078 0.0
H967 H 0.42957 0.97352 0.03415 0.0
Li968 Li 0.38137 0.90398 0.68245 0.0
Li969 Li 0.3601 0.88832 0.69516 0.0
Li970 Li 0.38836 0.85971 0.6952 0.0
Li971 Li 0.36785 0.84463 0.68202 0.0
C972 C 0.38882 0.94202 0.69944 0.0
N973 N 0.40196 0.00787 0.70274 0.0
C974 C 0.37837 0.97032 0.70152 0.0
C975 C 0.40597 0.9471 0.69921 0.0
C976 C 0.38524 0.00344 0.70313 0.0
C977 C 0.41237 0.98061 0.70085 0.0
C978 C 0.34208 0.89994 0.67687 0.0
C979 C 0.31306 0.88552 0.67548 0.0
N980 N 0.31022 0.91691 0.67086 0.0
C981 C 0.3389 0.93189 0.672 0.0
C982 C 0.32909 0.87643 0.67854 0.0
C983 C 0.3227 0.94005 0.66906 0.0
C984 C 0.40086 0.93436 0.66671 0.0
N985 N 0.38923 0.94111 0.67402 0.0
C986 C 0.38668 0.0002 0.6682 0.0
C987 C 0.38217 0.97326 0.67489 0.0
C988 C 0.39847 0.99386 0.66045 0.0
C989 C 0.40575 0.96052 0.65984 0.0
H990 H 0.40602 0.90839 0.66599 0.0
H991 H 0.37258 0.97765 0.68056 0.0
C992 C 0.33959 0.89073 0.71277 0.0
N993 N 0.3426 0.906 0.70349 0.0
C994 C 0.32689 0.90327 0.71909 0.0
C995 C 0.32071 0.94707 0.70619 0.0
C996 C 0.33363 0.93397 0.7002 0.0
C997 C 0.31721 0.93165 0.71576 0.0
H998 H 0.34708 0.86881 0.71526 0.0
H999 H 0.33666 0.94651 0.69299 0.0
C1000 C 0.40692 0.84424 0.67813 0.0
N1001 N 0.43819 0.81721 0.67462 0.0
C1002 C 0.40876 0.81115 0.67368 0.0
C1003 C 0.42099 0.86376 0.68066 0.0
C1004 C 0.42467 0.79789 0.672 0.0
C1005 C 0.43668 0.8496 0.67887 0.0
C1006 C 0.35791 0.80813 0.69973 0.0
C1007 C 0.36677 0.77781 0.70216 0.0
C1008 C 0.3406 0.8077 0.70014 0.0
C1009 C 0.35816 0.74726 0.70468 0.0
C1010 C 0.33243 0.77665 0.70271 0.0
N1011 N 0.34131 0.7473 0.70489 0.0
C1012 C 0.41063 0.85991 0.71197 0.0
C1013 C 0.41236 0.80975 0.7013 0.0
C1014 C 0.42342 0.84729 0.71821 0.0
N1015 N 0.4055 0.84122 0.70366 0.0
C1016 C 0.4253 0.79635 0.70723 0.0
C1017 C 0.43105 0.81518 0.71582 0.0
H1018 H 0.40476 0.8846 0.71378 0.0
H1019 H 0.40783 0.79505 0.69477 0.0
C1020 C 0.35173 0.81713 0.66447 0.0
N1021 N 0.36036 0.80837 0.67309 0.0
C1022 C 0.34718 0.79146 0.65736 0.0
C1023 C 0.36066 0.7482 0.66806 0.0
C1024 C 0.36486 0.7747 0.67499 0.0
C1025 C 0.35182 0.75648 0.65905 0.0
H1026 H 0.34874 0.8442 0.66295 0.0
H1027 H 0.37234 0.76859 0.68165 0.0
O1028 O 0.3823 0.90942 0.69781 0.0
O1029 O 0.35785 0.89175 0.67992 0.0
O1030 O 0.39143 0.85747 0.67994 0.0
O1031 O 0.36616 0.83832 0.69727 0.0
H1032 H 0.36509 0.96684 0.70182 0.0
H1033 H 0.41426 0.92539 0.69785 0.0
H1034 H 0.37729 0.02562 0.70467 0.0
H1035 H 0.42561 0.98493 0.70065 0.0
H1036 H 0.3029 0.86758 0.67675 0.0
H1037 H 0.34881 0.95028 0.67055 0.0
H1038 H 0.33141 0.85127 0.68204 0.0
H1039 H 0.32004 0.96477 0.66534 0.0
H1040 H 0.38049 0.02527 0.66881 0.0
H1041 H 0.41494 0.95454 0.65402 0.0
H1042 H 0.32454 0.89072 0.72643 0.0
H1043 H 0.31374 0.96946 0.70346 0.0
H1044 H 0.39802 0.79581 0.67157 0.0
H1045 H 0.41979 0.88958 0.68396 0.0
H1046 H 0.42627 0.77224 0.66861 0.0
H1047 H 0.44767 0.86438 0.68084 0.0
H1048 H 0.38017 0.77776 0.70202 0.0
H1049 H 0.33352 0.83114 0.69862 0.0
H1050 H 0.36488 0.72353 0.70649 0.0
H1051 H 0.31904 0.77593 0.70302 0.0
H1052 H 0.42715 0.86241 0.72487 0.0
H1053 H 0.43087 0.77173 0.70498 0.0
H1054 H 0.34031 0.79905 0.65055 0.0
H1055 H 0.36487 0.72177 0.66956 0.0
Li1056 Li 0.6115 0.60952 0.44726 0.0
Li1057 Li 0.64014 0.63042 0.44756 0.0
Li1058 Li 0.61986 0.65487 0.43551 0.0
Li1059 Li 0.63083 0.59546 0.43333 0.0
C1060 C 0.61562 0.6906 0.4527 0.0
N1061 N 0.60782 0.76022 0.4558 0.0
C1062 C 0.62787 0.71421 0.45581 0.0
C1063 C 0.59937 0.70232 0.45125 0.0
C1064 C 0.62369 0.74932 0.45732 0.0
C1065 C 0.59569 0.73765 0.45282 0.0
C1066 C 0.64131 0.56768 0.45569 0.0
C1067 C 0.66735 0.54623 0.46227 0.0
N1068 N 0.66044 0.5431 0.47179 0.0
C1069 C 0.63444 0.56411 0.46552 0.0
C1070 C 0.65786 0.55851 0.45402 0.0
C1071 C 0.64433 0.55166 0.47356 0.0
C1072 C 0.58892 0.55799 0.45391 0.0
N1073 N 0.59379 0.59171 0.45535 0.0
C1074 C 0.57319 0.59986 0.46835 0.0
C1075 C 0.58635 0.61261 0.46245 0.0
C1076 C 0.56761 0.56545 0.46682 0.0
C1077 C 0.57563 0.54438 0.4595 0.0
H1078 H 0.59534 0.54174 0.44838 0.0
H1079 H 0.59064 0.63915 0.46354 0.0
C1080 C 0.67283 0.65219 0.45148 0.0
N1081 N 0.65844 0.64237 0.45607 0.0
C1082 C 0.68622 0.66339 0.45742 0.0
C1083 C 0.66975 0.65399 0.47274 0.0
C1084 C 0.65665 0.64308 0.46648 0.0
C1085 C 0.68475 0.66465 0.4682 0.0
H1086 H 0.67379 0.65222 0.44318 0.0
H1087 H 0.64493 0.63574 0.46991 0.0
C1088 C 0.59255 0.59691 0.43093 0.0
N1089 N 0.56188 0.56528 0.42923 0.0
C1090 C 0.59131 0.56252 0.42734 0.0
C1091 C 0.5782 0.61534 0.43356 0.0
C1092 C 0.57568 0.54698 0.42655 0.0
C1093 C 0.56281 0.59884 0.43269 0.0
C1094 C 0.6528 0.63677 0.42437 0.0
C1095 C 0.64891 0.65443 0.41525 0.0
C1096 C 0.66648 0.61431 0.42464 0.0
C1097 C 0.65871 0.64908 0.40651 0.0
C1098 C 0.67595 0.60962 0.41573 0.0
N1099 N 0.67189 0.62694 0.40693 0.0
C1100 C 0.62311 0.72479 0.42903 0.0
C1101 C 0.60101 0.69377 0.42119 0.0
C1102 C 0.62005 0.75388 0.42282 0.0
N1103 N 0.61366 0.69554 0.42808 0.0
C1104 C 0.59763 0.72211 0.41472 0.0
C1105 C 0.60739 0.75253 0.41537 0.0
H1106 H 0.63337 0.72512 0.43438 0.0
H1107 H 0.59397 0.66985 0.42042 0.0
C1108 C 0.64302 0.53013 0.42612 0.0
N1109 N 0.63657 0.56154 0.4233 0.0
C1110 C 0.64685 0.50511 0.41864 0.0
C1111 C 0.63755 0.54559 0.40553 0.0
C1112 C 0.63364 0.5695 0.41326 0.0
C1113 C 0.64411 0.51267 0.40815 0.0
H1114 H 0.64497 0.52433 0.43418 0.0
H1115 H 0.62824 0.59452 0.41127 0.0
O1116 O 0.61949 0.6562 0.45108 0.0
O1117 O 0.63191 0.58035 0.44775 0.0
O1118 O 0.60775 0.6124 0.43191 0.0
O1119 O 0.64322 0.64125 0.43297 0.0
H1120 H 0.64052 0.70562 0.45694 0.0
H1121 H 0.58975 0.68439 0.44885 0.0
H1122 H 0.63306 0.76792 0.45967 0.0
H1123 H 0.5832 0.74713 0.45167 0.0
H1124 H 0.6802 0.53926 0.46111 0.0
H1125 H 0.62166 0.57116 0.46695 0.0
H1126 H 0.66336 0.56119 0.44645 0.0
H1127 H 0.63921 0.54891 0.48123 0.0
H1128 H 0.56728 0.61685 0.47393 0.0
H1129 H 0.5718 0.51756 0.45822 0.0
H1130 H 0.6974 0.67204 0.45357 0.0
H1131 H 0.66811 0.6543 0.48102 0.0
H1132 H 0.60229 0.54786 0.42528 0.0
H1133 H 0.57896 0.64198 0.43634 0.0
H1134 H 0.57453 0.52031 0.42383 0.0
H1135 H 0.55161 0.6127 0.43477 0.0
H1136 H 0.63836 0.67183 0.41487 0.0
H1137 H 0.66961 0.60031 0.43162 0.0
H1138 H 0.6558 0.66245 0.39938 0.0
H1139 H 0.68649 0.59212 0.41582 0.0
H1140 H 0.62776 0.77687 0.4237 0.0
H1141 H 0.58796 0.71954 0.40899 0.0
H1142 H 0.65156 0.47991 0.42107 0.0
H1143 H 0.63545 0.55297 0.39758 0.0
Li1144 Li 0.61662 0.59764 0.81006 0.0
Li1145 Li 0.63068 0.6553 0.80931 0.0
Li1146 Li 0.61056 0.63844 0.79588 0.0
Li1147 Li 0.63814 0.61098 0.79725 0.0
C1148 C 0.59419 0.6476 0.81763 0.0
N1149 N 0.56881 0.65182 0.83187 0.0
C1150 C 0.59694 0.66322 0.82722 0.0
C1151 C 0.57849 0.63449 0.81523 0.0
C1152 C 0.58396 0.66499 0.83433 0.0
C1153 C 0.56583 0.63677 0.82255 0.0
C1154 C 0.6546 0.59075 0.81355 0.0
C1155 C 0.68441 0.58741 0.81259 0.0
N1156 N 0.68361 0.55253 0.81464 0.0
C1157 C 0.65408 0.55494 0.81572 0.0
C1158 C 0.66988 0.60721 0.81204 0.0
C1159 C 0.66889 0.53605 0.81622 0.0
C1160 C 0.60681 0.52913 0.81527 0.0
N1161 N 0.60812 0.56239 0.81891 0.0
C1162 C 0.60041 0.54372 0.83581 0.0
C1163 C 0.60507 0.57007 0.82896 0.0
C1164 C 0.59938 0.50905 0.83232 0.0
C1165 C 0.6025 0.50183 0.8219 0.0
H1166 H 0.60978 0.52358 0.80731 0.0
H1167 H 0.6069 0.59636 0.83177 0.0
C1168 C 0.63004 0.72433 0.81707 0.0
N1169 N 0.63757 0.69263 0.81791 0.0
C1170 C 0.63367 0.75093 0.82408 0.0
C1171 C 0.65257 0.71159 0.83276 0.0
C1172 C 0.64876 0.68591 0.82549 0.0
C1173 C 0.64483 0.74442 0.83216 0.0
H1174 H 0.6208 0.72854 0.81116 0.0
H1175 H 0.65428 0.66022 0.82611 0.0
C1176 C 0.60599 0.56995 0.7889 0.0
N1177 N 0.58458 0.53487 0.7759 0.0
C1178 C 0.61146 0.55847 0.77926 0.0
C1179 C 0.5897 0.5633 0.79198 0.0
C1180 C 0.60043 0.54085 0.77278 0.0
C1181 C 0.57905 0.54561 0.78528 0.0
C1182 C 0.63817 0.69394 0.79309 0.0
C1183 C 0.62751 0.71989 0.78939 0.0
C1184 C 0.6543 0.70281 0.79604 0.0
C1185 C 0.63312 0.75445 0.78882 0.0
C1186 C 0.65942 0.73767 0.79538 0.0
N1187 N 0.64881 0.76255 0.79182 0.0
C1188 C 0.58289 0.67937 0.79118 0.0
C1189 C 0.59197 0.64421 0.77723 0.0
C1190 C 0.56999 0.69288 0.78524 0.0
N1191 N 0.59344 0.65526 0.78715 0.0
C1192 C 0.5791 0.6567 0.77104 0.0
C1193 C 0.56792 0.68134 0.77505 0.0
H1194 H 0.58456 0.68826 0.79902 0.0
H1195 H 0.60082 0.62588 0.7741 0.0
C1196 C 0.6565 0.55468 0.78938 0.0
N1197 N 0.65555 0.59018 0.78962 0.0
C1198 C 0.66939 0.53821 0.7841 0.0
C1199 C 0.67986 0.5952 0.77924 0.0
C1200 C 0.66682 0.61056 0.78467 0.0
C1201 C 0.68128 0.55856 0.77895 0.0
H1202 H 0.64725 0.53919 0.79334 0.0
H1203 H 0.66572 0.63873 0.78497 0.0
O1204 O 0.60674 0.64572 0.81057 0.0
O1205 O 0.64022 0.60951 0.81275 0.0
O1206 O 0.6166 0.58739 0.79531 0.0
O1207 O 0.63287 0.66002 0.79379 0.0
H1208 H 0.60901 0.67355 0.8292 0.0
H1209 H 0.57607 0.62286 0.80779 0.0
H1210 H 0.58594 0.67682 0.8418 0.0
H1211 H 0.55362 0.62666 0.82081 0.0
H1212 H 0.69631 0.59974 0.81135 0.0
H1213 H 0.64237 0.54179 0.8169 0.0
H1214 H 0.6705 0.63491 0.81035 0.0
H1215 H 0.66866 0.50828 0.81783 0.0
H1216 H 0.59848 0.55009 0.84386 0.0
H1217 H 0.60197 0.47529 0.81898 0.0
H1218 H 0.62724 0.77574 0.82348 0.0
H1219 H 0.66123 0.70566 0.83889 0.0
H1220 H 0.62406 0.56337 0.77678 0.0
H1221 H 0.58536 0.57159 0.79947 0.0
H1222 H 0.60446 0.53195 0.76527 0.0
H1223 H 0.56639 0.54036 0.78755 0.0
H1224 H 0.61503 0.71348 0.78701 0.0
H1225 H 0.6627 0.68306 0.79894 0.0
H1226 H 0.62498 0.77483 0.78601 0.0
H1227 H 0.67182 0.74494 0.79771 0.0
H1228 H 0.5616 0.7118 0.78861 0.0
H1229 H 0.57805 0.64761 0.76316 0.0
H1230 H 0.66992 0.50989 0.78395 0.0
H1231 H 0.68885 0.61181 0.77544 0.0
Li1232 Li 0.38835 0.38432 0.54629 0.0
Li1233 Li 0.36637 0.40085 0.55915 0.0
Li1234 Li 0.37942 0.34424 0.55979 0.0
Li1235 Li 0.35971 0.35699 0.54666 0.0
C1236 C 0.40078 0.38587 0.56916 0.0
N1237 N 0.4219 0.37285 0.58546 0.0
C1238 C 0.39527 0.39036 0.57929 0.0
C1239 C 0.41704 0.37502 0.5673 0.0
C1240 C 0.40614 0.38356 0.58742 0.0
C1241 C 0.42753 0.36852 0.57566 0.0
C1242 C 0.36097 0.44055 0.54305 0.0
C1243 C 0.33951 0.4843 0.54435 0.0
N1244 N 0.35084 0.50959 0.54215 0.0
C1245 C 0.37237 0.46694 0.54073 0.0
C1246 C 0.34438 0.44924 0.5448 0.0
C1247 C 0.36702 0.50169 0.54033 0.0
C1248 C 0.40843 0.38876 0.52847 0.0
N1249 N 0.4061 0.40116 0.53818 0.0
C1250 C 0.42925 0.43964 0.53649 0.0
C1251 C 0.41615 0.42607 0.54226 0.0
C1252 C 0.43217 0.42712 0.52646 0.0
C1253 C 0.42154 0.40121 0.52248 0.0
H1254 H 0.40017 0.36901 0.52543 0.0
H1255 H 0.41383 0.43571 0.54996 0.0
C1256 C 0.3457 0.43445 0.57376 0.0
N1257 N 0.35909 0.4385 0.56752 0.0
C1258 C 0.34137 0.46073 0.58073 0.0
C1259 C 0.36459 0.49497 0.57463 0.0
C1260 C 0.3685 0.46798 0.56781 0.0
C1261 C 0.35099 0.49131 0.58131 0.0
H1262 H 0.33869 0.41039 0.57356 0.0
H1263 H 0.37935 0.47003 0.56296 0.0
C1264 C 0.38936 0.30237 0.54424 0.0
N1265 N 0.40463 0.23769 0.54321 0.0
C1266 C 0.38103 0.27236 0.54759 0.0
C1267 C 0.40547 0.29945 0.54037 0.0
C1268 C 0.38897 0.23992 0.54702 0.0
C1269 C 0.41297 0.26652 0.5399 0.0
C1270 C 0.34082 0.33878 0.56209 0.0
C1271 C 0.33992 0.30317 0.56453 0.0
C1272 C 0.32628 0.35714 0.5598 0.0
C1273 C 0.32451 0.28651 0.56458 0.0
C1274 C 0.31111 0.33952 0.55991 0.0
N1275 N 0.31055 0.30486 0.56228 0.0
C1276 C 0.3784 0.30757 0.57836 0.0
C1277 C 0.40201 0.29296 0.5684 0.0
C1278 C 0.38313 0.28408 0.58604 0.0
N1279 N 0.38758 0.31095 0.56964 0.0
C1280 C 0.4071 0.26877 0.57582 0.0
C1281 C 0.39752 0.26394 0.58473 0.0
H1282 H 0.36732 0.32314 0.57936 0.0
H1283 H 0.40961 0.2974 0.56169 0.0
C1284 C 0.33512 0.3623 0.53122 0.0
N1285 N 0.34256 0.33964 0.53784 0.0
C1286 C 0.32221 0.351 0.52487 0.0
C1287 C 0.32495 0.29314 0.53219 0.0
C1288 C 0.33789 0.30549 0.53831 0.0
C1289 C 0.31687 0.316 0.52535 0.0
H1290 H 0.33921 0.3892 0.53086 0.0
H1291 H 0.34399 0.28786 0.54356 0.0
O1292 O 0.39019 0.39143 0.56111 0.0
O1293 O 0.36604 0.40643 0.54367 0.0
O1294 O 0.38178 0.33438 0.54468 0.0
O1295 O 0.35582 0.35554 0.56189 0.0
H1296 H 0.38268 0.39861 0.58083 0.0
H1297 H 0.42143 0.37121 0.5595 0.0
H1298 H 0.40203 0.38669 0.59531 0.0
H1299 H 0.44013 0.35988 0.57435 0.0
H1300 H 0.32673 0.49141 0.54575 0.0
H1301 H 0.38523 0.46072 0.5393 0.0
H1302 H 0.33537 0.42917 0.54655 0.0
H1303 H 0.37573 0.5224 0.5386 0.0
H1304 H 0.43683 0.46008 0.53983 0.0
H1305 H 0.42341 0.39034 0.51486 0.0
H1306 H 0.33075 0.45692 0.58571 0.0
H1307 H 0.37253 0.5178 0.57496 0.0
H1308 H 0.36874 0.27417 0.55083 0.0
H1309 H 0.41218 0.32236 0.53782 0.0
H1310 H 0.3827 0.21655 0.54967 0.0
H1311 H 0.42544 0.2639 0.53694 0.0
H1312 H 0.351 0.28836 0.56622 0.0
H1313 H 0.32671 0.38464 0.55788 0.0
H1314 H 0.32366 0.25893 0.56641 0.0
H1315 H 0.2998 0.35339 0.5581 0.0
H1316 H 0.3754 0.2811 0.59281 0.0
H1317 H 0.41845 0.25415 0.57465 0.0
H1318 H 0.31657 0.36944 0.51959 0.0
H1319 H 0.32115 0.26609 0.53295 0.0
Li1320 Li 0.37758 0.39984 0.18299 0.0
Li1321 Li 0.35928 0.3892 0.19691 0.0
Li1322 Li 0.3881 0.36602 0.19713 0.0
Li1323 Li 0.36685 0.34198 0.18485 0.0
C1324 C 0.37718 0.45048 0.19853 0.0
N1325 N 0.36989 0.52069 0.20091 0.0
C1326 C 0.36452 0.46585 0.19273 0.0
C1327 C 0.38612 0.47082 0.20554 0.0
C1328 C 0.36102 0.50137 0.19404 0.0
C1329 C 0.38225 0.50627 0.20663 0.0
C1330 C 0.33782 0.37744 0.18031 0.0
C1331 C 0.31352 0.34321 0.18427 0.0
N1332 N 0.30478 0.36173 0.17716 0.0
C1333 C 0.32861 0.39604 0.17301 0.0
C1334 C 0.33024 0.35073 0.18597 0.0
C1335 C 0.31191 0.38774 0.17154 0.0
C1336 C 0.375 0.43001 0.16362 0.0
N1337 N 0.38336 0.43282 0.17266 0.0
C1338 C 0.39832 0.48244 0.1664 0.0
C1339 C 0.39498 0.45809 0.17417 0.0
C1340 C 0.3896 0.48059 0.15703 0.0
C1341 C 0.37797 0.45361 0.15566 0.0
H1342 H 0.36597 0.40934 0.16262 0.0
H1343 H 0.4015 0.45954 0.18144 0.0
C1344 C 0.34505 0.40581 0.21606 0.0
N1345 N 0.3426 0.40793 0.20571 0.0
C1346 C 0.33345 0.42004 0.22287 0.0
C1347 C 0.31703 0.43821 0.20824 0.0
C1348 C 0.32905 0.42418 0.20174 0.0
C1349 C 0.31914 0.43647 0.21899 0.0
H1350 H 0.35611 0.3933 0.219 0.0
H1351 H 0.32758 0.42667 0.19351 0.0
C1352 C 0.40116 0.36295 0.17477 0.0
N1353 N 0.42292 0.38176 0.15931 0.0
C1354 C 0.39755 0.35479 0.16452 0.0
C1355 C 0.41587 0.38043 0.17719 0.0
C1356 C 0.40871 0.3646 0.1568 0.0
C1357 C 0.42671 0.38977 0.16925 0.0
C1358 C 0.36349 0.31401 0.2065 0.0
C1359 C 0.37541 0.28802 0.2081 0.0
C1360 C 0.34822 0.31179 0.21155 0.0
C1361 C 0.37179 0.26003 0.21465 0.0
C1362 C 0.34507 0.28338 0.21804 0.0
N1363 N 0.35682 0.2583 0.21944 0.0
C1364 C 0.40885 0.36779 0.21479 0.0
C1365 C 0.41646 0.32753 0.20169 0.0
C1366 C 0.42195 0.35641 0.22099 0.0
N1367 N 0.40634 0.35304 0.20538 0.0
C1368 C 0.42956 0.31514 0.20767 0.0
C1369 C 0.43235 0.32942 0.21748 0.0
H1370 H 0.40053 0.38799 0.2175 0.0
H1371 H 0.41411 0.31633 0.19418 0.0
C1372 C 0.35399 0.30682 0.16784 0.0
N1373 N 0.36011 0.30148 0.17747 0.0
C1374 C 0.35037 0.27846 0.16146 0.0
C1375 C 0.35928 0.23952 0.17507 0.0
C1376 C 0.36265 0.26868 0.18121 0.0
C1377 C 0.35329 0.24428 0.165 0.0
H1378 H 0.35248 0.3332 0.16496 0.0
H1379 H 0.36781 0.2651 0.1888 0.0
O1380 O 0.38082 0.41569 0.19746 0.0
O1381 O 0.35418 0.38541 0.18179 0.0
O1382 O 0.39019 0.3545 0.1824 0.0
O1383 O 0.3669 0.342 0.20026 0.0
H1384 H 0.35746 0.45061 0.18725 0.0
H1385 H 0.39594 0.45928 0.21011 0.0
H1386 H 0.35126 0.51359 0.1896 0.0
H1387 H 0.38907 0.52233 0.21203 0.0
H1388 H 0.30751 0.3226 0.1886 0.0
H1389 H 0.33431 0.41677 0.16856 0.0
H1390 H 0.33719 0.33582 0.19155 0.0
H1391 H 0.30463 0.40199 0.16594 0.0
H1392 H 0.40731 0.50293 0.1678 0.0
H1393 H 0.37122 0.45075 0.14849 0.0
H1394 H 0.33584 0.41863 0.23107 0.0
H1395 H 0.30616 0.45012 0.20483 0.0
H1396 H 0.38618 0.34137 0.16253 0.0
H1397 H 0.41877 0.38709 0.18509 0.0
H1398 H 0.40604 0.35866 0.14882 0.0
H1399 H 0.43809 0.4035 0.17099 0.0
H1400 H 0.38725 0.28919 0.20422 0.0
H1401 H 0.33888 0.33178 0.21048 0.0
H1402 H 0.38088 0.23965 0.21591 0.0
H1403 H 0.3333 0.28131 0.22198 0.0
H1404 H 0.42368 0.36791 0.22855 0.0
H1405 H 0.43742 0.29458 0.20464 0.0
H1406 H 0.34609 0.28333 0.15368 0.0
H1407 H 0.36166 0.21356 0.17808 0.0
H1408 H 0.28836 0.35107 0.52022 0.0
H1409 H 0.26522 0.32984 0.50985 0.0
H1410 H 0.29006 0.23074 0.50588 0.0
H1411 H 0.31366 0.25244 0.51574 0.0
H1412 H 0.27643 0.25009 0.48842 0.0
H1413 H 0.25811 0.24225 0.52357 0.0
H1414 H 0.25233 0.26429 0.54107 0.0
H1415 H 0.21795 0.33911 0.52869 0.0
H1416 H 0.2237 0.31783 0.5111 0.0
H1417 H 0.20716 0.14872 0.47285 0.0
H1418 H 0.23055 0.17257 0.48256 0.0
H1419 H 0.20611 0.27287 0.48409 0.0
H1420 H 0.18247 0.24895 0.47461 0.0
H1421 H 0.21933 0.25402 0.50257 0.0
H1422 H 0.23743 0.25997 0.46733 0.0
H1423 H 0.24318 0.23663 0.44997 0.0
H1424 H 0.27797 0.16352 0.46277 0.0
H1425 H 0.27225 0.1861 0.48023 0.0
C1426 C 0.28904 0.32495 0.51701 0.0
C1427 C 0.30287 0.30342 0.51887 0.0
C1428 C 0.27569 0.31268 0.51119 0.0
C1429 C 0.27576 0.27846 0.50724 0.0
C1430 C 0.28967 0.25716 0.5089 0.0
C1431 C 0.3031 0.26951 0.51464 0.0
C1432 C 0.26132 0.26473 0.50142 0.0
C1433 C 0.26398 0.25057 0.49157 0.0
C1434 C 0.24501 0.26599 0.50543 0.0
C1435 C 0.24146 0.27868 0.51601 0.0
C1436 C 0.2494 0.26357 0.52458 0.0
C1437 C 0.24612 0.2759 0.53451 0.0
C1438 C 0.23481 0.30314 0.53599 0.0
C1439 C 0.22673 0.31804 0.52754 0.0
C1440 C 0.22998 0.30584 0.51758 0.0
C1441 C 0.20669 0.17576 0.47533 0.0
C1442 C 0.19298 0.19697 0.47294 0.0
C1443 C 0.22013 0.18944 0.4808 0.0
C1444 C 0.22014 0.2246 0.48393 0.0
C1445 C 0.20638 0.24571 0.48169 0.0
C1446 C 0.19294 0.23208 0.47621 0.0
C1447 C 0.23447 0.2393 0.48961 0.0
C1448 C 0.23179 0.25363 0.49943 0.0
C1449 C 0.25076 0.23799 0.48559 0.0
C1450 C 0.2543 0.22452 0.4751 0.0
C1451 C 0.24621 0.23874 0.46645 0.0
C1452 C 0.24948 0.22568 0.45659 0.0
C1453 C 0.2609 0.19855 0.45527 0.0
C1454 C 0.26911 0.1845 0.46381 0.0
C1455 C 0.26587 0.19745 0.47368 0.0
H1456 H 0.26342 0.18847 0.44764 0.0
H1457 H 0.23229 0.31265 0.54369 0.0
H1458 H 0.96435 0.92332 0.53076 0.0
H1459 H 0.98655 0.94871 0.52034 0.0
H1460 H 0.95048 0.98448 0.49813 0.0
H1461 H 0.92826 0.95824 0.50843 0.0
H1462 H 0.97668 0.96063 0.48849 0.0
H1463 H 0.96769 0.04029 0.51632 0.0
H1464 H 0.96464 0.05849 0.53446 0.0
H1465 H 0.01446 0.0253 0.54078 0.0
H1466 H 0.01774 0.00642 0.52271 0.0
H1467 H 0.02954 0.08708 0.46482 0.0
H1468 H 0.00703 0.06076 0.47476 0.0
H1469 H 0.04267 0.00874 0.49421 0.0
H1470 H 0.06528 0.03382 0.48411 0.0
H1471 H 0.01645 0.04225 0.50505 0.0
H1472 H 0.02466 0.96248 0.47667 0.0
H1473 H 0.02712 0.94672 0.45831 0.0
H1474 H 0.97769 0.98396 0.45279 0.0
H1475 H 0.97503 0.00044 0.47111 0.0
C1476 C 0.96119 0.93653 0.52364 0.0
C1477 C 0.94461 0.93906 0.52042 0.0
C1478 C 0.97386 0.95113 0.51771 0.0
C1479 C 0.97015 0.96916 0.50856 0.0
C1480 C 0.95363 0.9708 0.50518 0.0
C1481 C 0.94096 0.95579 0.51105 0.0
C1482 C 0.98349 0.98667 0.50261 0.0
C1483 C 0.98522 0.97884 0.49209 0.0
C1484 C 0.99479 0.01013 0.50732 0.0
C1485 C 0.9929 0.02164 0.51818 0.0
C1486 C 0.97796 0.03664 0.5216 0.0
C1487 C 0.97619 0.04711 0.53186 0.0
C1488 C 0.98933 0.04298 0.53877 0.0
C1489 C 0.00428 0.02845 0.53542 0.0
C1490 C 0.00611 0.01788 0.52517 0.0
C1491 C 0.03263 0.06979 0.47114 0.0
C1492 C 0.04926 0.06248 0.47362 0.0
C1493 C 0.01974 0.05494 0.47684 0.0
C1494 C 0.02323 0.03268 0.48516 0.0
C1495 C 0.03976 0.02596 0.48783 0.0
C1496 C 0.05266 0.04051 0.48207 0.0
C1497 C 0.00962 0.01601 0.49101 0.0
C1498 C 0.00785 0.02406 0.50149 0.0
C1499 C 0.99817 0.99314 0.48623 0.0
C1500 C -0.00029 0.98303 0.47524 0.0
C1501 C 0.01437 0.96759 0.47153 0.0
C1502 C 0.01579 0.95847 0.46113 0.0
C1503 C 0.00259 0.96443 0.45438 0.0
C1504 C 0.98792 0.97942 0.45803 0.0
C1505 C 0.98644 0.98862 0.46842 0.0
H1506 H 0.00371 0.95735 0.44634 0.0
H1507 H 0.98794 0.0511 0.54671 0.0
H1508 H 0.28565 0.94715 0.70987 0.0
H1509 H 0.26348 0.97209 0.7204 0.0
H1510 H 0.29615 0.97336 0.74676 0.0
H1511 H 0.31821 0.94743 0.73628 0.0
H1512 H 0.26687 0.95301 0.75257 0.0
H1513 H 0.28717 0.04869 0.73256 0.0
H1514 H 0.29542 0.08021 0.71679 0.0
H1515 H 0.24574 0.0723 0.70515 0.0
H1516 H 0.23724 0.04026 0.7208 0.0
H1517 H 0.21864 0.07567 0.78155 0.0
H1518 H 0.24107 0.05055 0.77129 0.0
H1519 H 0.20638 0.02476 0.74721 0.0
H1520 H 0.18369 0.04815 0.75757 0.0
H1521 H 0.23694 0.05896 0.74058 0.0
H1522 H 0.21747 0.96199 0.76123 0.0
H1523 H 0.21006 0.93286 0.77755 0.0
H1524 H 0.25975 0.94699 0.78866 0.0
H1525 H 0.26739 0.97672 0.77245 0.0
C1526 C 0.28807 0.95279 0.71791 0.0
C1527 C 0.30365 0.94559 0.72225 0.0
C1528 C 0.27544 0.96714 0.72392 0.0
C1529 C 0.27824 0.97528 0.73433 0.0
C1530 C 0.2937 0.9674 0.73874 0.0
C1531 C 0.30629 0.95258 0.73276 0.0
C1532 C 0.26504 0.992 0.7406 0.0
C1533 C 0.26052 0.97646 0.75 0.0
C1534 C 0.25656 0.0224 0.73722 0.0
C1535 C 0.26161 0.04178 0.72781 0.0
C1536 C 0.27803 0.05344 0.7266 0.0
C1537 C 0.28275 0.07143 0.71769 0.0
C1538 C 0.27112 0.07818 0.70996 0.0
C1539 C 0.25474 0.06702 0.71114 0.0
C1540 C 0.24996 0.04896 0.72003 0.0
C1541 C 0.21569 0.06432 0.77413 0.0
C1542 C 0.19927 0.06386 0.77043 0.0
C1543 C 0.22856 0.05021 0.76825 0.0
C1544 C 0.22532 0.03575 0.75854 0.0
C1545 C 0.2091 0.03597 0.75469 0.0
C1546 C 0.19616 0.0496 0.76061 0.0
C1547 C 0.23883 0.01982 0.75244 0.0
C1548 C 0.24339 0.03556 0.74311 0.0
C1549 C 0.2475 0.98997 0.75596 0.0
C1550 C 0.24295 0.97192 0.76568 0.0
C1551 C 0.22678 0.95918 0.76719 0.0
C1552 C 0.22254 0.9425 0.77641 0.0
C1553 C 0.23442 0.93816 0.78415 0.0
C1554 C 0.25056 0.95042 0.78267 0.0
C1555 C 0.25485 0.96716 0.77346 0.0
H1556 H 0.23112 0.92523 0.79128 0.0
H1557 H 0.2748 0.09212 0.70307 0.0
H1558 H 0.03849 0.15389 0.7743 0.0
H1559 H 0.01564 0.17789 0.76417 0.0
H1560 H 0.04551 0.26774 0.7564 0.0
H1561 H 0.06854 0.2437 0.76642 0.0
H1562 H 0.0142 0.28638 0.76204 0.0
H1563 H 0.03947 0.20457 0.7389 0.0
H1564 H 0.05062 0.1474 0.73347 0.0
H1565 H 0.00282 0.10031 0.73786 0.0
H1566 H 0.99143 0.15713 0.74347 0.0
H1567 H 0.963 0.34924 0.72131 0.0
H1568 H 0.98629 0.3267 0.73138 0.0
H1569 H 0.95743 0.236 0.73974 0.0
H1570 H 0.93399 0.25857 0.72982 0.0
H1571 H 0.98862 0.21842 0.73359 0.0
H1572 H 0.96347 0.3002 0.75692 0.0
H1573 H 0.95236 0.35743 0.76234 0.0
H1574 H 1e-05 0.40467 0.7575 0.0
H1575 H 0.01136 0.34778 0.7519 0.0
C1576 C 0.04028 0.17857 0.77035 0.0
C1577 C 0.05538 0.19678 0.77113 0.0
C1578 C 0.02719 0.1923 0.76459 0.0
C1579 C 0.02895 0.22441 0.75945 0.0
C1580 C 0.0439 0.24292 0.76032 0.0
C1581 C 0.05702 0.22919 0.76607 0.0
C1582 C 0.01514 0.23869 0.7532 0.0
C1583 C 0.00876 0.27176 0.75572 0.0
C1584 C 0.00784 0.21925 0.74511 0.0
C1585 C 0.01464 0.18505 0.7417 0.0
C1586 C 0.03137 0.18197 0.73879 0.0
C1587 C 0.03773 0.14963 0.73566 0.0
C1588 C 0.02745 0.12022 0.73534 0.0
C1589 C 0.01077 0.12311 0.73813 0.0
C1590 C 0.00435 0.15538 0.74127 0.0
C1591 C 0.96153 0.3247 0.72539 0.0
C1592 C 0.94661 0.30575 0.72478 0.0
C1593 C 0.97487 0.31181 0.73111 0.0
C1594 C 0.97353 0.27981 0.73636 0.0
C1595 C 0.95872 0.26071 0.73571 0.0
C1596 C 0.94537 0.2736 0.73002 0.0
C1597 C 0.98763 0.26604 0.74245 0.0
C1598 C 0.99408 0.23306 0.7399 0.0
C1599 C 0.995 0.28558 0.7505 0.0
C1600 C 0.98822 0.3198 0.75389 0.0
C1601 C 0.97155 0.32285 0.75693 0.0
C1602 C 0.96521 0.35522 0.76004 0.0
C1603 C 0.97546 0.38469 0.76023 0.0
C1604 C 0.99208 0.38183 0.75733 0.0
C1605 C 0.99848 0.34953 0.75419 0.0
H1606 H 0.97053 0.40973 0.76265 0.0
H1607 H 0.03239 0.09521 0.73292 0.0
H1608 H 0.81941 0.78327 0.50938 0.0
H1609 H 0.79735 0.75577 0.4993 0.0
H1610 H 0.76066 0.80295 0.5191 0.0
H1611 H 0.78266 0.8304 0.52923 0.0
H1612 H 0.75401 0.73553 0.51613 0.0
H1613 H 0.7677 0.83358 0.49463 0.0
H1614 H 0.78609 0.87232 0.48462 0.0
H1615 H 0.79964 0.7863 0.46506 0.0
H1616 H 0.78149 0.74691 0.47505 0.0
H1617 H 0.6827 0.70773 0.48501 0.0
H1618 H 0.70545 0.73293 0.49495 0.0
H1619 H 0.74079 0.67929 0.47565 0.0
H1620 H 0.71808 0.65342 0.46576 0.0
H1621 H 0.74852 0.74852 0.47824 0.0
H1622 H 0.73411 0.65088 0.49964 0.0
H1623 H 0.71536 0.61281 0.50961 0.0
H1624 H 0.7028 0.69904 0.52935 0.0
H1625 H 0.72131 0.73778 0.51939 0.0
C1626 C 0.80664 0.78818 0.51149 0.0
C1627 C 0.80276 0.809 0.52009 0.0
C1628 C 0.79404 0.77241 0.50573 0.0
C1629 C 0.77735 0.77749 0.50841 0.0
C1630 C 0.77345 0.79857 0.51692 0.0
C1631 C 0.78603 0.8142 0.52271 0.0
C1632 C 0.76393 0.7601 0.50251 0.0
C1633 C 0.75268 0.73875 0.50786 0.0
C1634 C 0.76245 0.76358 0.49169 0.0
C1635 C 0.77336 0.78722 0.48566 0.0
C1636 C 0.7747 0.82286 0.48825 0.0
C1637 C 0.78507 0.84495 0.48257 0.0
C1638 C 0.79407 0.83176 0.47423 0.0
C1639 C 0.79268 0.79647 0.47154 0.0
C1640 C 0.78235 0.77426 0.4772 0.0
C1641 C 0.69529 0.70074 0.48299 0.0
C1642 C 0.69856 0.67849 0.47459 0.0
C1643 C 0.70829 0.71531 0.48865 0.0
C1644 C 0.7248 0.70783 0.48607 0.0
C1645 C 0.72813 0.68547 0.47775 0.0
C1646 C 0.71514 0.6708 0.47209 0.0
C1647 C 0.73858 0.72416 0.49187 0.0
C1648 C 0.74989 0.74528 0.4865 0.0
C1649 C 0.74008 0.72057 0.50268 0.0
C1650 C 0.72898 0.69731 0.5087 0.0
C1651 C 0.72725 0.6618 0.50605 0.0
C1652 C 0.71668 0.64008 0.51171 0.0
C1653 C 0.70787 0.65351 0.52009 0.0
C1654 C 0.70963 0.68868 0.52284 0.0
C1655 C 0.72016 0.71052 0.5172 0.0
H1656 H 0.69969 0.63666 0.52447 0.0
H1657 H 0.80208 0.84891 0.46984 0.0
H1658 H 0.67826 0.03156 0.25945 0.0
H1659 H 0.701 0.00653 0.24936 0.0
H1660 H 0.73604 0.04144 0.27226 0.0
H1661 H 0.7134 0.067 0.28231 0.0
H1662 H 0.74636 0.05542 0.25243 0.0
H1663 H 0.72493 0.95764 0.27166 0.0
H1664 H 0.70318 0.91738 0.2778 0.0
H1665 H 0.69303 0.8861 0.24665 0.0
H1666 H 0.71457 0.92658 0.24031 0.0
H1667 H 0.816 0.95894 0.236 0.0
H1668 H 0.79324 0.98212 0.24631 0.0
H1669 H 0.75795 0.93778 0.22501 0.0
H1670 H 0.78063 0.91279 0.21495 0.0
H1671 H 0.74754 0.92875 0.244 0.0
H1672 H 0.76838 0.02591 0.22455 0.0
H1673 H 0.78963 0.06669 0.21804 0.0
H1674 H 0.80023 0.09998 0.24895 0.0
H1675 H 0.77919 0.05903 0.25567 0.0
C1676 C 0.69083 0.03415 0.26229 0.0
C1677 C 0.69406 0.05114 0.27169 0.0
C1678 C 0.70378 0.01962 0.25656 0.0
C1679 C 0.72017 0.02185 0.26012 0.0
C1680 C 0.72346 0.03933 0.26941 0.0
C1681 C 0.71052 0.05369 0.27517 0.0
C1682 C 0.73391 0.00594 0.25418 0.0
C1683 C 0.74675 0.02765 0.25069 0.0
C1684 C 0.73415 0.96988 0.2517 0.0
C1685 C 0.72125 0.9454 0.25551 0.0
C1686 C 0.71796 0.94239 0.26612 0.0
C1687 C 0.70569 0.91949 0.26963 0.0
C1688 C 0.6967 0.89926 0.26262 0.0
C1689 C 0.69999 0.90183 0.25207 0.0
C1690 C 0.71224 0.92472 0.24851 0.0
C1691 C 0.8034 0.95356 0.23358 0.0
C1692 C 0.80017 0.93409 0.2246 0.0
C1693 C 0.7904 0.96726 0.23943 0.0
C1694 C 0.77389 0.96227 0.23633 0.0
C1695 C 0.7706 0.94217 0.22751 0.0
C1696 C 0.78359 0.92819 0.22171 0.0
C1697 C 0.76006 0.97822 0.24223 0.0
C1698 C 0.74718 0.95653 0.24572 0.0
C1699 C 0.75971 0.01438 0.24464 0.0
C1700 C 0.77232 0.03916 0.24062 0.0
C1701 C 0.77533 0.04174 0.22997 0.0
C1702 C 0.78732 0.06492 0.22624 0.0
C1703 C 0.7963 0.08585 0.23308 0.0
C1704 C 0.79328 0.08371 0.24366 0.0
C1705 C 0.78131 0.06055 0.24743 0.0
H1706 H 0.80558 0.10377 0.23017 0.0
H1707 H 0.6872 0.88154 0.26536 0.0
H1708 H 0.93321 0.75343 0.22626 0.0
H1709 H 0.95666 0.73028 0.23595 0.0
H1710 H 0.98267 0.82806 0.23202 0.0
H1711 H 0.9597 0.85066 0.22176 0.0
H1712 H 0.00323 0.77656 0.22926 0.0
H1713 H 0.96318 0.80516 0.2551 0.0
H1714 H 0.93588 0.80467 0.26365 0.0
H1715 H 0.93904 0.69319 0.26739 0.0
H1716 H 0.96627 0.69295 0.25874 0.0
H1717 H 0.06192 0.75182 0.26993 0.0
H1718 H 0.03873 0.77361 0.25953 0.0
H1719 H 0.01798 0.66963 0.25845 0.0
H1720 H 0.04118 0.64765 0.26881 0.0
H1721 H 0.99498 0.7237 0.26382 0.0
H1722 H 0.03599 0.69723 0.23799 0.0
H1723 H 0.06365 0.70029 0.22997 0.0
H1724 H 0.05896 0.81179 0.22698 0.0
H1725 H 0.03135 0.80946 0.23513 0.0
C1726 C 0.94399 0.76991 0.22733 0.0
C1727 C 0.9445 0.80401 0.22324 0.0
C1728 C 0.95732 0.75676 0.233 0.0
C1729 C 0.97133 0.77762 0.23487 0.0
C1730 C 0.97196 0.81152 0.23072 0.0
C1731 C 0.95871 0.82456 0.22495 0.0
C1732 C 0.98539 0.76402 0.24108 0.0
C1733 C 0.00142 0.76544 0.23688 0.0
C1734 C 0.98305 0.74895 0.25095 0.0
C1735 C 0.96669 0.749 0.25617 0.0
C1736 C 0.95799 0.78051 0.25767 0.0
C1737 C 0.94255 0.78037 0.26255 0.0
C1738 C 0.93571 0.74891 0.26604 0.0
C1739 C 0.94434 0.71753 0.26467 0.0
C1740 C 0.95979 0.71752 0.25979 0.0
C1741 C 0.05239 0.73367 0.26748 0.0
C1742 C 0.05333 0.69806 0.27014 0.0
C1743 C 0.03923 0.74608 0.26151 0.0
C1744 C 0.02673 0.72315 0.25821 0.0
C1745 C 0.02755 0.68766 0.26093 0.0
C1746 C 0.04082 0.67514 0.26677 0.0
C1747 C 0.01268 0.73633 0.25199 0.0
C1748 C 0.9967 0.73483 0.2562 0.0
C1749 C 0.0151 0.75176 0.2422 0.0
C1750 C 0.03167 0.7532 0.23727 0.0
C1751 C 0.04091 0.72244 0.23571 0.0
C1752 C 0.05657 0.72404 0.23112 0.0
C1753 C 0.06308 0.75623 0.228 0.0
C1754 C 0.05392 0.78688 0.22942 0.0
C1755 C 0.03825 0.78543 0.23402 0.0
H1756 H 0.0752 0.75741 0.22444 0.0
H1757 H 0.92375 0.74886 0.26981 0.0
H1758 H 0.29346 0.77672 0.02924 0.0
H1759 H 0.27097 0.75418 0.01867 0.0
H1760 H 0.28508 0.82375 0.99398 0.0
H1761 H 0.30699 0.84825 0.00479 0.0
H1762 H 0.25297 0.82289 0.99551 0.0
H1763 H 0.29448 0.73446 0.99362 0.0
H1764 H 0.31508 0.69224 0.00014 0.0
H1765 H 0.27674 0.63638 0.01615 0.0
H1766 H 0.25593 0.67856 0.00984 0.0
H1767 H 0.20597 0.7276 0.95769 0.0
H1768 H 0.22893 0.75332 0.96736 0.0
H1769 H 0.21118 0.70426 0.99517 0.0
H1770 H 0.18777 0.67964 0.98571 0.0
H1771 H 0.24588 0.69476 0.99104 0.0
H1772 H 0.20466 0.78647 0.99275 0.0
H1773 H 0.18476 0.8285 0.98534 0.0
H1774 H 0.22401 0.87762 0.96829 0.0
H1775 H 0.24412 0.83551 0.9755 0.0
C1776 C 0.29167 0.78772 0.02163 0.0
C1777 C 0.30209 0.81441 0.0179 0.0
C1778 C 0.27893 0.77436 0.01552 0.0
C1779 C 0.27651 0.78676 0.00545 0.0
C1780 C 0.28677 0.8136 0.00171 0.0
C1781 C 0.29941 0.82732 0.00787 0.0
C1782 C 0.26313 0.77196 -0.0011 0.0
C1783 C 0.25161 0.79489 0.9944 0.0
C1784 C 0.26119 0.73538 0.99753 0.0
C1785 C 0.27366 0.70987 0.00132 0.0
C1786 C 0.29046 0.71332 -0.00141 0.0
C1787 C 0.30217 0.68937 0.00224 0.0
C1788 C 0.29723 0.6617 0.00857 0.0
C1789 C 0.28055 0.65786 0.01125 0.0
C1790 C 0.26879 0.68176 0.00763 0.0
C1791 C 0.20675 0.72268 0.96589 0.0
C1792 C 0.19496 0.70147 0.9709 0.0
C1793 C 0.21996 0.73724 0.97139 0.0
C1794 C 0.2217 0.73066 0.98196 0.0
C1795 C 0.21007 0.70944 0.98699 0.0
C1796 C 0.19675 0.69522 0.98154 0.0
C1797 C 0.23575 0.74567 0.9878 0.0
C1798 C 0.24738 0.72274 0.99213 0.0
C1799 C 0.23792 0.7822 0.98887 0.0
C1800 C 0.22586 0.8076 0.98457 0.0
C1801 C 0.20902 0.80603 0.98735 0.0
C1802 C 0.19771 0.8299 0.9832 0.0
C1803 C 0.20311 0.85565 0.97633 0.0
C1804 C 0.21984 0.85762 0.97361 0.0
C1805 C 0.2312 0.83378 0.97773 0.0
H1806 H 0.19434 0.87412 0.97312 0.0
H1807 H 0.30632 0.64318 0.01139 0.0
H1808 H 0.06245 0.56084 0.98869 0.0
H1809 H 0.03954 0.53522 -0.00147 0.0
H1810 H 0.0136 0.51274 0.97022 0.0
H1811 H 0.03644 0.53847 0.96034 0.0
H1812 H 0.99348 0.54294 0.98555 0.0
H1813 H 0.03229 0.44832 0.98177 0.0
H1814 H 0.0597 0.42006 0.98293 0.0
H1815 H 0.06006 0.43575 0.0157 0.0
H1816 H 0.03274 0.4646 0.01472 0.0
H1817 H 0.93216 0.43223 0.00696 0.0
H1818 H 0.95482 0.45477 0.9964 0.0
H1819 H 0.98529 0.4655 0.02354 0.0
H1820 H 0.96303 0.44127 0.03408 0.0
H1821 H 0.00308 0.44053 0.00832 0.0
H1822 H 0.96521 0.53634 0.01242 0.0
H1823 H 0.93817 0.56631 0.01166 0.0
H1824 H 0.93637 0.55074 0.9789 0.0
H1825 H 0.96331 0.52023 0.97949 0.0
C1826 C 0.0518 0.55066 0.98458 0.0
C1827 C 0.05123 0.5515 0.97376 0.0
C1828 C 0.0388 0.53587 0.99019 0.0
C1829 C 0.02498 0.52186 0.98508 0.0
C1830 C 0.0242 0.52333 0.97429 0.0
C1831 C 0.03728 0.53781 0.96867 0.0
C1832 C 0.01136 0.50548 0.99101 0.0
C1833 C 0.99549 0.52025 0.99042 0.0
C1834 C 0.01415 0.47642 0.99753 0.0
C1835 C 0.03054 0.45893 0.99815 0.0
C1836 C 0.03828 0.44602 0.98921 0.0
C1837 C 0.05378 0.42984 0.98984 0.0
C1838 C 0.06164 0.42619 -0.00062 0.0
C1839 C 0.05397 0.43864 0.00832 0.0
C1840 C 0.03847 0.45487 0.00773 0.0
C1841 C 0.94376 0.43886 0.01067 0.0
C1842 C 0.94572 0.43513 0.02139 0.0
C1843 C 0.95665 0.45215 0.00463 0.0
C1844 C 0.97166 0.46242 0.0092 0.0
C1845 C 0.97379 0.45796 0.01986 0.0
C1846 C 0.96097 0.44442 0.02589 0.0
C1847 C 0.98512 0.47808 0.00293 0.0
C1848 C 0.00101 0.46318 0.00344 0.0
C1849 C 0.98237 0.50724 0.9964 0.0
C1850 C 0.96619 0.52568 0.99602 0.0
C1851 C 0.95899 0.53907 0.00507 0.0
C1852 C 0.94369 0.55619 0.00467 0.0
C1853 C 0.93553 0.56034 0.99524 0.0
C1854 C 0.94269 0.54746 0.9862 0.0
C1855 C 0.95797 0.53026 0.98656 0.0
H1856 H 0.92369 0.57361 0.99495 0.0
H1857 H 0.07364 0.41366 -0.00015 0.0
H1858 H 0.30026 0.49542 0.21598 0.0
H1859 H 0.27841 0.51833 0.22694 0.0
H1860 H 0.28821 0.43747 0.24936 0.0
H1861 H 0.30918 0.41243 0.238 0.0
H1862 H 0.25705 0.44343 0.24759 0.0
H1863 H 0.30003 0.52662 0.25274 0.0
H1864 H 0.32193 0.56868 0.24801 0.0
H1865 H 0.28594 0.63344 0.23281 0.0
H1866 H 0.26385 0.59152 0.23733 0.0
H1867 H 0.21013 0.53401 0.28663 0.0
H1868 H 0.23377 0.51082 0.27708 0.0
H1869 H 0.21594 0.56022 0.24936 0.0
H1870 H 0.1917 0.58189 0.25863 0.0
H1871 H 0.25198 0.57032 0.25512 0.0
H1872 H 0.20943 0.48177 0.24992 0.0
H1873 H 0.18848 0.43956 0.25601 0.0
H1874 H 0.22576 0.38493 0.27331 0.0
H1875 H 0.2469 0.42718 0.26745 0.0
C1876 C 0.29767 0.48209 0.22317 0.0
C1877 C 0.3065 0.45183 0.22604 0.0
C1878 C 0.28533 0.4957 0.22954 0.0
C1879 C 0.28182 0.48008 0.23909 0.0
C1880 C 0.29072 0.45012 0.24205 0.0
C1881 C 0.30287 0.43606 0.23558 0.0
C1882 C 0.26841 0.4942 0.24575 0.0
C1883 C 0.25616 0.47111 0.24937 0.0
C1884 C 0.26706 0.53039 0.24803 0.0
C1885 C 0.2803 0.55575 0.24531 0.0
C1886 C 0.2968 0.5497 0.24833 0.0
C1887 C 0.30924 0.57354 0.24569 0.0
C1888 C 0.30533 0.60367 0.24009 0.0
C1889 C 0.28895 0.61007 0.23714 0.0
C1890 C 0.27646 0.5863 0.23975 0.0
C1891 C 0.21101 0.53956 0.27847 0.0
C1892 C 0.19885 0.55977 0.27342 0.0
C1893 C 0.22464 0.52653 0.27306 0.0
C1894 C 0.22653 0.53389 0.26255 0.0
C1895 C 0.21469 0.5545 0.2575 0.0
C1896 C 0.20089 0.56703 0.26285 0.0
C1897 C 0.24075 0.51959 0.25677 0.0
C1898 C 0.25308 0.54266 0.25336 0.0
C1899 C 0.24238 0.48336 0.25487 0.0
C1900 C 0.2297 0.45787 0.25834 0.0
C1901 C 0.21313 0.46096 0.25511 0.0
C1902 C 0.20123 0.43699 0.2585 0.0
C1903 C 0.20578 0.40965 0.26507 0.0
C1904 C 0.22225 0.40616 0.26824 0.0
C1905 C 0.23419 0.4301 0.26488 0.0
H1906 H 0.19655 0.3911 0.26769 0.0
H1907 H 0.31498 0.6221 0.23806 0.0
H1908 H 0.69937 0.14882 0.98182 0.0
H1909 H 0.72287 0.17156 0.99162 0.0
H1910 H 0.72597 0.26014 0.97108 0.0
H1911 H 0.70283 0.2369 0.96101 0.0
H1912 H 0.75626 0.23508 0.97544 0.0
H1913 H 0.70808 0.26837 0.99457 0.0
H1914 H 0.68146 0.25931 0.00351 0.0
H1915 H 0.70505 0.1895 0.02491 0.0
H1916 H 0.73179 0.19776 0.016 0.0
H1917 H 0.8044 0.34488 0.00865 0.0
H1918 H 0.7826 0.32032 0.99774 0.0
H1919 H 0.78134 0.22756 0.01667 0.0
H1920 H 0.80342 0.25139 0.02746 0.0
H1921 H 0.7502 0.25539 0.01302 0.0
H1922 H 0.79868 0.22335 0.99368 0.0
H1923 H 0.82513 0.23399 0.98469 0.0
H1924 H 0.80069 0.30383 0.96368 0.0
H1925 H 0.77412 0.29398 0.97263 0.0
C1926 C 0.70518 0.1729 0.97931 0.0
C1927 C 0.69918 0.19114 0.97066 0.0
C1928 C 0.71851 0.18604 0.98497 0.0
C1929 C 0.72602 0.2178 0.98216 0.0
C1930 C 0.7203 0.23568 0.97341 0.0
C1931 C 0.70698 0.22252 0.96773 0.0
C1932 C 0.73969 0.23256 0.98844 0.0
C1933 C 0.75488 0.23995 0.98363 0.0
C1934 C 0.73795 0.23838 -0.00084 0.0
C1935 C 0.7219 0.23341 0.00455 0.0
C1936 C 0.70757 0.25086 0.00113 0.0
C1937 C 0.69246 0.24591 0.0062 0.0
C1938 C 0.69156 0.22377 0.01476 0.0
C1939 C 0.70577 0.2066 0.01827 0.0
C1940 C 0.7209 0.21143 0.01322 0.0
C1941 C 0.79968 0.31902 0.01041 0.0
C1942 C 0.80565 0.30017 0.01896 0.0
C1943 C 0.78718 0.30509 0.00418 0.0
C1944 C 0.7804 0.27211 0.0064 0.0
C1945 C 0.78636 0.25315 0.01487 0.0
C1946 C 0.79893 0.26692 0.02106 0.0
C1947 C 0.76678 0.2577 4e-05 0.0
C1948 C 0.75158 0.25047 0.00483 0.0
C1949 C 0.76849 0.25229 0.98931 0.0
C1950 C 0.78444 0.25821 0.9839 0.0
C1951 C 0.79897 0.24122 0.9872 0.0
C1952 C 0.81398 0.24706 0.9821 0.0
C1953 C 0.8146 0.26965 0.97364 0.0
C1954 C 0.8002 0.28638 0.97024 0.0
C1955 C 0.78516 0.28066 0.97532 0.0
H1956 H 0.82623 0.27413 0.9697 0.0
H1957 H 0.67985 0.21998 0.01868 0.0
H1958 H 0.69301 0.57556 0.75985 0.0
H1959 H 0.71552 0.54749 0.75033 0.0
H1960 H 0.72289 0.47501 0.77541 0.0
H1961 H 0.70054 0.50344 0.78508 0.0
H1962 H 0.75227 0.50178 0.76801 0.0
H1963 H 0.7035 0.44764 0.75437 0.0
H1964 H 0.67555 0.44594 0.74671 0.0
H1965 H 0.69333 0.50138 0.72013 0.0
H1966 H 0.72136 0.50387 0.7277 0.0
H1967 H 0.80524 0.38919 0.73891 0.0
H1968 H 0.78243 0.41152 0.74949 0.0
H1969 H 0.76978 0.48512 0.72552 0.0
H1970 H 0.79252 0.4631 0.71495 0.0
H1971 H 0.74261 0.45376 0.73299 0.0
H1972 H 0.79083 0.51094 0.74695 0.0
H1973 H 0.81879 0.51361 0.75458 0.0
H1974 H 0.80209 0.45324 0.7805 0.0
H1975 H 0.77406 0.4498 0.77294 0.0
C1976 C 0.6995 0.55382 0.76337 0.0
C1977 C 0.69499 0.54163 0.7732 0.0
C1978 C 0.71226 0.53764 0.75789 0.0
C1979 C 0.72073 0.50895 0.76213 0.0
C1980 C 0.71645 0.49703 0.772 0.0
C1981 C 0.70362 0.51311 0.77747 0.0
C1982 C 0.73411 0.49156 0.75623 0.0
C1983 C 0.75013 0.49074 0.76043 0.0
C1984 C 0.73133 0.47778 0.74626 0.0
C1985 C 0.7145 0.47621 0.74165 0.0
C1986 C 0.70142 0.45972 0.74693 0.0
C1987 C 0.68557 0.45857 0.74259 0.0
C1988 C 0.68266 0.47361 0.73295 0.0
C1989 C 0.69561 0.48977 0.7276 0.0
C1990 C 0.71148 0.49103 0.73191 0.0
C1991 C 0.79765 0.41027 0.73593 0.0
C1992 C 0.80067 0.42436 0.72609 0.0
C1993 C 0.78462 0.42296 0.74197 0.0
C1994 C 0.77449 0.45016 0.73831 0.0
C1995 C 0.7774 0.46402 0.72847 0.0
C1996 C 0.79037 0.45132 0.72243 0.0
C1997 C 0.76084 0.46438 0.74471 0.0
C1998 C 0.74475 0.46457 0.74061 0.0
C1999 C 0.76358 0.47765 0.75475 0.0
C2000 C 0.7804 0.47978 0.75932 0.0
C2001 C 0.79315 0.49799 0.75423 0.0
C2002 C 0.809 0.49969 0.75855 0.0
C2003 C 0.81222 0.48351 0.768 0.0
C2004 C 0.79958 0.4657 0.77317 0.0
C2005 C 0.78371 0.46388 0.76887 0.0
H2006 H 0.82451 0.48487 0.77134 0.0
H2007 H 0.67038 0.47269 0.7296 0.0
H2008 H 0.56052 0.07996 0.98798 0.0
H2009 H 0.53802 0.0528 0.99784 0.0
H2010 H 0.52377 0.99296 0.97108 0.0
H2011 H 0.54626 0.02005 0.96118 0.0
H2012 H 0.49704 0.02582 0.98114 0.0
H2013 H 0.54341 0.95229 0.98923 0.0
H2014 H 0.57186 0.93936 0.99502 0.0
H2015 H 0.56114 0.9842 0.02462 0.0
H2016 H 0.53268 0.99791 0.01895 0.0
H2017 H 0.4414 0.91063 0.00643 0.0
H2018 H 0.46474 0.93311 0.99636 0.0
H2019 H 0.48282 0.98815 0.02313 0.0
H2020 H 0.45976 0.96507 0.0333 0.0
H2021 H 0.5078 0.9563 0.01276 0.0
H2022 H 0.46205 0.03159 0.00477 0.0
H2023 H 0.43367 0.046 -0.00086 0.0
H2024 H 0.44325 -0.00035 0.96959 0.0
H2025 H 0.47163 0.98449 0.9751 0.0
C2026 C 0.55255 0.06108 0.98421 0.0
C2027 C 0.55512 0.052 0.97384 0.0
C2028 C 0.53979 0.04547 0.98985 0.0
C2029 C 0.52934 0.02075 0.98519 0.0
C2030 C 0.53176 0.01193 0.97481 0.0
C2031 C 0.54463 0.02722 0.96919 0.0
C2032 C 0.51576 0.00437 0.99114 0.0
C2033 C 0.49938 0.01015 0.98797 0.0
C2034 C 0.51887 0.98471 0.00018 0.0
C2035 C 0.53596 0.97645 0.00362 0.0
C2036 C 0.54716 0.95969 0.99694 0.0
C2037 C 0.56328 0.95216 0.00021 0.0
C2038 C 0.56832 0.96104 0.01017 0.0
C2039 C 0.55723 0.97739 0.0169 0.0
C2040 C 0.5411 0.98502 0.01366 0.0
C2041 C 0.45046 0.92719 0.0102 0.0
C2042 C 0.4487 0.93624 0.02064 0.0
C2043 C 0.4637 0.94023 0.00442 0.0
C2044 C 0.47539 0.96263 0.00897 0.0
C2045 C 0.4739 0.97102 0.01946 0.0
C2046 C 0.46065 0.95805 0.02523 0.0
C2047 C 0.48904 0.97778 0.00278 0.0
C2048 C 0.50545 0.97182 0.00591 0.0
C2049 C 0.48596 0.99747 0.99373 0.0
C2050 C 0.4689 0.00655 0.99039 0.0
C2051 C 0.45806 0.02419 0.99711 0.0
C2052 C 0.44198 0.03254 0.99393 0.0
C2053 C 0.43664 0.02365 0.98403 0.0
C2054 C 0.44739 0.00646 0.97727 0.0
C2055 C 0.46348 0.998 0.98041 0.0
H2056 H 0.42419 0.03016 0.98158 0.0
H2057 H 0.5808 0.95517 0.01269 0.0
H2058 H 0.43976 0.26108 0.2213 0.0
H2059 H 0.46241 0.23788 0.23181 0.0
H2060 H 0.47803 0.34303 0.23904 0.0
H2061 H 0.45537 0.36648 0.22846 0.0
H2062 H 0.50405 0.2987 0.23287 0.0
H2063 H 0.45883 0.29862 0.25687 0.0
H2064 H 0.43055 0.28532 0.2629 0.0
H2065 H 0.44015 0.17526 0.25984 0.0
H2066 H 0.46843 0.18792 0.25365 0.0
H2067 H 0.56099 0.25332 0.27224 0.0
H2068 H 0.53818 0.27858 0.26238 0.0
H2069 H 0.51777 0.17547 0.25759 0.0
H2070 H 0.54017 0.1501 0.26785 0.0
H2071 H 0.49403 0.2202 0.26271 0.0
H2072 H 0.53859 0.21903 0.23834 0.0
H2073 H 0.56676 0.23103 0.23187 0.0
H2074 H 0.55839 0.34151 0.23503 0.0
H2075 H 0.53024 0.33015 0.24167 0.0
C2076 C 0.44805 0.27925 0.22511 0.0
C2077 C 0.44585 0.31557 0.22406 0.0
C2078 C 0.4609 0.26597 0.23115 0.0
C2079 C 0.47181 0.28876 0.23623 0.0
C2080 C 0.4697 0.32506 0.23518 0.0
C2081 C 0.45672 0.33838 0.22921 0.0
C2082 C 0.48558 0.27453 0.2425 0.0
C2083 C 0.5019 0.28198 0.2395 0.0
C2084 C 0.48269 0.25195 0.25095 0.0
C2085 C 0.4657 0.24424 0.2547 0.0
C2086 C 0.45487 0.27159 0.2574 0.0
C2087 C 0.43884 0.26416 0.26086 0.0
C2088 C 0.43354 0.22947 0.26173 0.0
C2089 C 0.44427 0.20212 0.25916 0.0
C2090 C 0.4603 0.20941 0.25568 0.0
C2091 C 0.55158 0.236 0.26917 0.0
C2092 C 0.55241 0.19965 0.27085 0.0
C2093 C 0.53864 0.25047 0.26343 0.0
C2094 C 0.52637 0.22889 0.25914 0.0
C2095 C 0.52714 0.19261 0.26081 0.0
C2096 C 0.54004 0.17811 0.26659 0.0
C2097 C 0.51258 0.24422 0.25307 0.0
C2098 C 0.49623 0.23698 0.2561 0.0
C2099 C 0.51545 0.26679 0.2446 0.0
C2100 C 0.53237 0.27372 0.2406 0.0
C2101 C 0.54281 0.24588 0.23774 0.0
C2102 C 0.55876 0.25257 0.23402 0.0
C2103 C 0.56438 0.28701 0.23306 0.0
C2104 C 0.55403 0.31484 0.23579 0.0
C2105 C 0.53807 0.30829 0.23952 0.0
H2106 H 0.57673 0.29214 0.23018 0.0
H2107 H 0.42113 0.22377 0.26442 0.0
H2108 H 0.43775 0.74684 0.7209 0.0
H2109 H 0.46113 0.72434 0.73075 0.0
H2110 H 0.47874 0.8297 0.73562 0.0
H2111 H 0.45601 0.85232 0.72516 0.0
H2112 H 0.50363 0.79001 0.73115 0.0
H2113 H 0.45845 0.78082 0.75486 0.0
H2114 H 0.43065 0.76356 0.76091 0.0
H2115 H 0.44312 0.65518 0.75681 0.0
H2116 H 0.47093 0.67181 0.75061 0.0
H2117 H 0.55835 0.74937 0.77269 0.0
H2118 H 0.53513 0.7718 0.76247 0.0
H2119 H 0.52318 0.66669 0.75288 0.0
H2120 H 0.54639 0.64407 0.76311 0.0
H2121 H 0.49564 0.706 0.75989 0.0
H2122 H 0.54145 0.71745 0.73632 0.0
H2123 H 0.56933 0.73666 0.73097 0.0
H2124 H 0.55547 0.84393 0.73581 0.0
H2125 H 0.52757 0.82531 0.74134 0.0
C2126 C 0.44668 0.76528 0.72395 0.0
C2127 C 0.44494 0.80147 0.72221 0.0
C2128 C 0.45994 0.75236 0.72972 0.0
C2129 C 0.47157 0.77534 0.73408 0.0
C2130 C 0.46988 0.81145 0.73238 0.0
C2131 C 0.45675 0.82438 0.72648 0.0
C2132 C 0.4857 0.76167 0.74022 0.0
C2133 C 0.50183 0.77205 0.73753 0.0
C2134 C 0.48343 0.73768 0.74843 0.0
C2135 C 0.46672 0.72759 0.75218 0.0
C2136 C 0.45522 0.75331 0.75518 0.0
C2137 C 0.43947 0.74364 0.75865 0.0
C2138 C 0.4351 0.7083 0.75922 0.0
C2139 C 0.4465 0.68255 0.75635 0.0
C2140 C 0.46227 0.69208 0.75287 0.0
C2141 C 0.55074 0.73107 0.76841 0.0
C2142 C 0.55415 0.695 0.76867 0.0
C2143 C 0.53757 0.74391 0.76255 0.0
C2144 C 0.52753 0.72088 0.7569 0.0
C2145 C 0.53083 0.68484 0.75718 0.0
C2146 C 0.54413 0.67201 0.76296 0.0
C2147 C 0.51343 0.73442 0.7508 0.0
C2148 C 0.49735 0.72401 0.75351 0.0
C2149 C 0.51572 0.75871 0.7427 0.0
C2150 C 0.53247 0.76996 0.73934 0.0
C2151 C 0.54439 0.74512 0.73633 0.0
C2152 C 0.56019 0.7559 0.73325 0.0
C2153 C 0.56418 0.79149 0.73308 0.0
C2154 C 0.55237 0.81637 0.73596 0.0
C2155 C 0.53656 0.80572 0.73906 0.0
H2156 H 0.57642 0.79978 0.73069 0.0
H2157 H 0.4229 0.70086 0.76191 0.0
H2158 H 0.43308 0.43888 0.50555 0.0
H2159 H 0.45615 0.46154 0.49535 0.0
H2160 H 0.48571 0.47145 0.52286 0.0
H2161 H 0.46306 0.44729 0.53311 0.0
H2162 H 0.48507 0.53247 0.50957 0.0
H2163 H 0.49436 0.40752 0.50822 0.0
H2164 H 0.48625 0.34634 0.50486 0.0
H2165 H 0.47653 0.37152 0.47318 0.0
H2166 H 0.48436 0.43301 0.47638 0.0
H2167 H 0.56344 0.56731 0.48764 0.0
H2168 H 0.54028 0.54371 0.49763 0.0
H2169 H 0.51667 0.50963 0.4695 0.0
H2170 H 0.54018 0.53203 0.45954 0.0
H2171 H 0.51355 0.46109 0.48299 0.0
H2172 H 0.50379 0.58432 0.48349 0.0
H2173 H 0.51038 0.64668 0.48617 0.0
H2174 H 0.51887 0.62731 0.51834 0.0
H2175 H 0.51255 0.5647 0.51582 0.0
C2176 C 0.44455 0.4453 0.50945 0.0
C2177 C 0.44615 0.44113 0.52019 0.0
C2178 C 0.45768 0.4585 0.50359 0.0
C2179 C 0.47259 0.46809 0.50837 0.0
C2180 C 0.47423 0.46433 0.51906 0.0
C2181 C 0.46121 0.4507 0.52491 0.0
C2182 C 0.48649 0.48213 0.5022 0.0
C2183 C 0.49147 0.51683 0.50384 0.0
C2184 C 0.49439 0.46194 0.49451 0.0
C2185 C 0.48977 0.42494 0.49257 0.0
C2186 C 0.49035 0.40008 0.50056 0.0
C2187 C 0.48583 0.36534 0.49868 0.0
C2188 C 0.48083 0.35507 0.48882 0.0
C2189 C 0.48038 0.37952 0.48081 0.0
C2190 C 0.48487 0.41431 0.48265 0.0
C2191 C 0.55325 0.55489 0.48362 0.0
C2192 C 0.55352 0.55155 0.47284 0.0
C2193 C 0.53999 0.54153 0.48931 0.0
C2194 C 0.52655 0.52541 0.48432 0.0
C2195 C 0.52687 0.52195 0.47354 0.0
C2196 C 0.54028 0.53475 0.46786 0.0
C2197 C 0.51229 0.51167 0.49034 0.0
C2198 C 0.50719 0.47695 0.48868 0.0
C2199 C 0.50407 0.53209 0.49789 0.0
C2200 C 0.50784 0.56975 0.49944 0.0
C2201 C 0.50718 0.59331 0.49112 0.0
C2202 C 0.51085 0.62871 0.49261 0.0
C2203 C 0.51508 0.64093 0.50241 0.0
C2204 C 0.51561 0.61779 0.51075 0.0
C2205 C 0.51197 0.58235 0.5093 0.0
H2206 H 0.51792 0.66835 0.50355 0.0
H2207 H 0.47735 0.32815 0.48738 0.0
H2208 H 0.13055 0.81037 0.33529 0.0
H2209 H 0.13588 0.85495 0.34837 0.0
H2210 H 0.17213 0.78765 0.36269 0.0
H2211 H 0.16664 0.74256 0.34967 0.0
H2212 H 0.15026 0.81477 0.37662 0.0
H2213 H 0.18511 0.85852 0.35004 0.0
H2214 H 0.1927 0.87666 0.33243 0.0
H2215 H 0.15566 0.9573 0.33325 0.0
H2216 H 0.14766 0.93932 0.35082 0.0
H2217 H 0.16791 0.95419 0.41192 0.0
H2218 H 0.17227 0.90899 0.39879 0.0
H2219 H 0.13606 0.95888 0.37923 0.0
H2220 H 0.13147 0.00362 0.39228 0.0
H2221 H 0.16323 0.93862 0.36838 0.0
H2222 H 0.1258 0.88879 0.39366 0.0
H2223 H 0.11754 0.87026 0.41113 0.0
H2224 H 0.15931 0.80074 0.41255 0.0
H2225 H 0.16793 0.81925 0.39513 0.0
C2226 C 0.13968 0.8051 0.34121 0.0
C2227 C 0.14815 0.77298 0.34149 0.0
C2228 C 0.14282 0.8307 0.34862 0.0
C2229 C 0.15451 0.82471 0.35644 0.0
C2230 C 0.16312 0.79281 0.35669 0.0
C2231 C 0.16005 0.76722 0.34922 0.0
C2232 C 0.15696 0.85118 0.36464 0.0
C2233 C 0.15348 0.8417 0.37486 0.0
C2234 C 0.16091 0.88637 0.3623 0.0
C2235 C 0.16571 0.8974 0.35174 0.0
C2236 C 0.17849 0.87996 0.34644 0.0
C2237 C 0.18288 0.89024 0.33647 0.0
C2238 C 0.17465 0.91807 0.33172 0.0
C2239 C 0.16202 0.93573 0.33694 0.0
C2240 C 0.15757 0.92554 0.34691 0.0
C2241 C 0.16086 0.95546 0.40483 0.0
C2242 C 0.14935 0.98254 0.40315 0.0
C2243 C 0.16341 0.92972 0.39733 0.0
C2244 C 0.15443 0.93055 0.38806 0.0
C2245 C 0.14321 0.9579 0.38629 0.0
C2246 C 0.14064 0.98354 0.39377 0.0
C2247 C 0.15611 0.90236 0.38029 0.0
C2248 C 0.16035 0.91154 0.37016 0.0
C2249 C 0.15282 0.86691 0.3827 0.0
C2250 C 0.14762 0.85573 0.39316 0.0
C2251 C 0.1333 0.86978 0.39774 0.0
C2252 C 0.12854 0.85924 0.40762 0.0
C2253 C 0.13793 0.83443 0.41296 0.0
C2254 C 0.15207 0.82002 0.40842 0.0
C2255 C 0.1569 0.83052 0.39854 0.0
H2256 H 0.13422 0.82629 0.42061 0.0
H2257 H 0.17807 0.926 0.324 0.0
H2258 H 0.07974 0.28546 0.4067 0.0
H2259 H 0.07674 0.33108 0.39359 0.0
H2260 H 0.12082 0.29355 0.37835 0.0
H2261 H 0.12446 0.24948 0.39168 0.0
H2262 H 0.12191 0.36112 0.3797 0.0
H2263 H 0.08052 0.27731 0.3692 0.0
H2264 H 0.05583 0.24003 0.37145 0.0
H2265 H 0.0262 0.33094 0.37772 0.0
H2266 H 0.05078 0.36873 0.37563 0.0
H2267 H 0.11779 0.43835 0.33121 0.0
H2268 H 0.11486 0.39306 0.34436 0.0
H2269 H 0.07669 0.45357 0.35931 0.0
H2270 H 0.07972 0.49946 0.34622 0.0
H2271 H 0.07089 0.37848 0.35895 0.0
H2272 H 0.11277 0.46202 0.36857 0.0
H2273 H 0.13759 0.49824 0.36556 0.0
H2274 H 0.1666 0.40563 0.36041 0.0
H2275 H 0.14186 0.36887 0.36323 0.0
C2276 C 0.08887 0.28711 0.4006 0.0
C2277 C 0.10231 0.26364 0.40024 0.0
C2278 C 0.08702 0.31294 0.39304 0.0
C2279 C 0.09845 0.31549 0.38491 0.0
C2280 C 0.11181 0.29205 0.38453 0.0
C2281 C 0.11377 0.26654 0.39211 0.0
C2282 C 0.09697 0.34318 0.37694 0.0
C2283 C 0.11079 0.36459 0.37511 0.0
C2284 C 0.0823 0.34848 0.37114 0.0
C2285 C 0.06752 0.3258 0.37237 0.0
C2286 C 0.06876 0.28932 0.37114 0.0
C2287 C 0.05479 0.2681 0.37237 0.0
C2288 C 0.03946 0.2831 0.37476 0.0
C2289 C 0.03808 0.31935 0.37589 0.0
C2290 C 0.05203 0.34069 0.37467 0.0
C2291 C 0.10868 0.44193 0.33725 0.0
C2292 C 0.09918 0.47272 0.33778 0.0
C2293 C 0.10696 0.41597 0.34471 0.0
C2294 C 0.09573 0.4203 0.35286 0.0
C2295 C 0.08543 0.44985 0.35307 0.0
C2296 C 0.08716 0.47597 0.34558 0.0
C2297 C 0.09596 0.39547 0.3616 0.0
C2298 C 0.08193 0.37492 0.3636 0.0
C2299 C 0.11047 0.39069 0.36755 0.0
C2300 C 0.12543 0.41271 0.36603 0.0
C2301 C 0.12441 0.44939 0.36673 0.0
C2302 C 0.13847 0.47002 0.36506 0.0
C2303 C 0.15366 0.45425 0.36278 0.0
C2304 C 0.15482 0.41781 0.36218 0.0
C2305 C 0.14079 0.39706 0.36382 0.0
H2306 H 0.16453 0.47026 0.36148 0.0
H2307 H 0.02866 0.26663 0.37571 0.0
H2308 H 0.16646 0.28207 0.8386 0.0
H2309 H 0.16877 0.32742 0.85178 0.0
H2310 H 0.12644 0.2841 0.86761 0.0
H2311 H 0.12325 0.2406 0.85412 0.0
H2312 H 0.12322 0.35018 0.867 0.0
H2313 H 0.16813 0.27372 0.87608 0.0
H2314 H 0.19378 0.23998 0.87324 0.0
H2315 H 0.22 0.33471 0.86605 0.0
H2316 H 0.19443 0.36899 0.86872 0.0
H2317 H 0.1315 0.4305 0.91546 0.0
H2318 H 0.13432 0.38483 0.90242 0.0
H2319 H 0.16512 0.4529 0.88412 0.0
H2320 H 0.16185 0.49942 0.89692 0.0
H2321 H 0.17537 0.37705 0.88568 0.0
H2322 H 0.1291 0.45246 0.87704 0.0
H2323 H 0.10326 0.4841 0.88104 0.0
H2324 H 0.07933 0.38704 0.8886 0.0
H2325 H 0.10514 0.35486 0.8848 0.0
C2326 C 0.15754 0.28237 0.84483 0.0
C2327 C 0.14469 0.25746 0.84527 0.0
C2328 C 0.15903 0.30805 0.85245 0.0
C2329 C 0.14792 0.30893 0.86078 0.0
C2330 C 0.1352 0.28395 0.86128 0.0
C2331 C 0.13353 0.2587 0.8536 0.0
C2332 C 0.14901 0.33658 0.86881 0.0
C2333 C 0.13461 0.35564 0.87114 0.0
C2334 C 0.16394 0.34441 0.87409 0.0
C2335 C 0.17933 0.32387 0.87249 0.0
C2336 C 0.17933 0.28733 0.87381 0.0
C2337 C 0.19386 0.26811 0.87225 0.0
C2338 C 0.2085 0.28518 0.86944 0.0
C2339 C 0.20864 0.32152 0.86821 0.0
C2340 C 0.19414 0.34086 0.86976 0.0
C2341 C 0.13889 0.43585 0.90868 0.0
C2342 C 0.14622 0.46888 0.90717 0.0
C2343 C 0.14061 0.40959 0.90129 0.0
C2344 C 0.14983 0.4157 0.89232 0.0
C2345 C 0.15802 0.44776 0.89104 0.0
C2346 C 0.15615 0.47425 0.89838 0.0
C2347 C 0.14956 0.38978 0.88388 0.0
C2348 C 0.16407 0.37135 0.88147 0.0
C2349 C 0.13469 0.38206 0.8786 0.0
C2350 C 0.11909 0.40131 0.88073 0.0
C2351 C 0.11837 0.4379 0.87963 0.0
C2352 C 0.10372 0.45592 0.88185 0.0
C2353 C 0.08967 0.4376 0.8851 0.0
C2354 C 0.09022 0.4012 0.8861 0.0
C2355 C 0.10486 0.38305 0.88391 0.0
H2356 H 0.07834 0.4516 0.88681 0.0
H2357 H 0.21974 0.27025 0.86824 0.0
H2358 H 0.10455 0.72389 0.88883 0.0
H2359 H 0.10241 0.76634 0.87482 0.0
H2360 H 0.09491 0.8492 0.89691 0.0
H2361 H 0.09669 0.80664 0.91101 0.0
H2362 H 0.07397 0.85436 0.87987 0.0
H2363 H 0.13207 0.8383 0.88688 0.0
H2364 H 0.15761 0.80387 0.88936 0.0
H2365 H 0.15365 0.76412 0.8585 0.0
H2366 H 0.12793 0.79795 0.85589 0.0
H2367 H 0.09574 0.0016 0.84944 0.0
H2368 H 0.09276 0.95588 0.86244 0.0
H2369 H 0.10467 0.87746 0.83968 0.0
H2370 H 0.10772 0.92326 0.8266 0.0
H2371 H 0.12241 0.86813 0.85665 0.0
H2372 H 0.06508 0.88627 0.84919 0.0
H2373 H 0.03942 0.92023 0.84667 0.0
H2374 H 0.04157 0.95555 0.87805 0.0
H2375 H 0.06739 0.92218 0.88073 0.0
C2376 C 0.10217 0.75105 0.89071 0.0
C2377 C 0.10079 0.76195 0.90103 0.0
C2378 C 0.10108 0.77529 0.8827 0.0
C2379 C 0.09866 0.81091 0.88485 0.0
C2380 C 0.09681 0.8218 0.89511 0.0
C2381 C 0.09796 0.79755 0.90315 0.0
C2382 C 0.09871 0.83691 0.87639 0.0
C2383 C 0.0846 0.8577 0.87484 0.0
C2384 C 0.11245 0.84052 0.8697 0.0
C2385 C 0.12798 0.82037 0.87123 0.0
C2386 C 0.13657 0.822 0.88065 0.0
C2387 C 0.15109 0.80263 0.88207 0.0
C2388 C 0.15722 0.78174 0.8741 0.0
C2389 C 0.14887 0.78027 0.86467 0.0
C2390 C 0.13433 0.79955 0.86322 0.0
C2391 C 0.09739 0.97457 0.84714 0.0
C2392 C 0.10192 0.96602 0.83699 0.0
C2393 C 0.0957 0.94845 0.85459 0.0
C2394 C 0.09833 0.91321 0.85201 0.0
C2395 C 0.10258 0.9045 0.84183 0.0
C2396 C 0.10435 0.93066 0.83438 0.0
C2397 C 0.09764 0.88577 0.86008 0.0
C2398 C 0.11168 0.8647 0.86159 0.0
C2399 C 0.08382 0.88189 0.86671 0.0
C2400 C 0.06826 0.90195 0.86514 0.0
C2401 C 0.06016 0.90149 0.85554 0.0
C2402 C 0.04557 0.9206 0.85408 0.0
C2403 C 0.03889 0.9401 0.86219 0.0
C2404 C 0.04677 0.94046 0.87178 0.0
C2405 C 0.06137 0.92142 0.87327 0.0
H2406 H 0.02759 0.95487 0.86104 0.0
H2407 H 0.16847 0.76676 0.87522 0.0
H2408 H 0.83365 0.20458 0.66108 0.0
H2409 H 0.82919 0.15843 0.64832 0.0
H2410 H 0.86764 0.20221 0.62923 0.0
H2411 H 0.87306 0.24694 0.64216 0.0
H2412 H 0.83381 0.18227 0.61937 0.0
H2413 H 0.88005 0.14072 0.64075 0.0
H2414 H 0.89252 0.12557 0.65752 0.0
H2415 H 0.85346 0.0516 0.66313 0.0
H2416 H 0.84063 0.06676 0.64644 0.0
H2417 H 0.85883 0.05852 0.58245 0.0
H2418 H 0.8552 0.10385 0.59553 0.0
H2419 H 0.83456 0.02716 0.61637 0.0
H2420 H 0.83905 0.98145 0.60341 0.0
H2421 H 0.85516 0.06279 0.62634 0.0
H2422 H 0.8107 0.09535 0.60455 0.0
H2423 H 0.79619 0.10983 0.58838 0.0
H2424 H 0.8278 0.19907 0.58411 0.0
H2425 H 0.84268 0.18486 0.60019 0.0
C2426 C 0.84134 0.20426 0.65425 0.0
C2427 C 0.85377 0.22966 0.65272 0.0
C2428 C 0.83861 0.17808 0.64692 0.0
C2429 C 0.84803 0.17723 0.63785 0.0
C2430 C 0.86014 0.20281 0.63616 0.0
C2431 C 0.86313 0.22851 0.64356 0.0
C2432 C 0.84592 0.14868 0.63032 0.0
C2433 C 0.8385 0.15611 0.62081 0.0
C2434 C 0.8515 0.11443 0.63244 0.0
C2435 C 0.85928 0.1052 0.64243 0.0
C2436 C 0.87403 0.1215 0.64561 0.0
C2437 C 0.88119 0.11285 0.65509 0.0
C2438 C 0.87376 0.08772 0.66141 0.0
C2439 C 0.85919 0.07111 0.65824 0.0
C2440 C 0.85197 0.07971 0.64877 0.0
C2441 C 0.85329 0.05157 0.58978 0.0
C2442 C 0.84918 0.01668 0.59197 0.0
C2443 C 0.85112 0.07748 0.59724 0.0
C2444 C 0.84434 0.06914 0.60692 0.0
C2445 C 0.8398 0.03431 0.60898 0.0
C2446 C 0.84232 0.00825 0.60159 0.0
C2447 C 0.84326 0.0962 0.61513 0.0
C2448 C 0.85013 0.08862 0.62483 0.0
C2449 C 0.83681 0.13013 0.61323 0.0
C2450 C 0.82789 0.13887 0.60355 0.0
C2451 C 0.81464 0.11792 0.60013 0.0
C2452 C 0.80634 0.12611 0.59098 0.0
C2453 C 0.81109 0.15531 0.58521 0.0
C2454 C 0.82414 0.17644 0.58859 0.0
C2455 C 0.8325 0.16836 0.59773 0.0
H2456 H 0.80464 0.1616 0.57814 0.0
H2457 H 0.87931 0.08105 0.66874 0.0
H2458 H 0.86575 0.52286 0.65224 0.0
H2459 H 0.86869 0.5648 0.63817 0.0
H2460 H 0.92063 0.57652 0.64524 0.0
H2461 H 0.91772 0.53478 0.65952 0.0
H2462 H 0.9044 0.64026 0.64132 0.0
H2463 H 0.91062 0.52772 0.62552 0.0
H2464 H 0.90291 0.46663 0.62171 0.0
H2465 H 0.85717 0.50146 0.60824 0.0
H2466 H 0.8645 0.56276 0.61211 0.0
H2467 H 0.91811 0.73566 0.59501 0.0
H2468 H 0.92073 0.69119 0.60852 0.0
H2469 H 0.87038 0.65821 0.60286 0.0
H2470 H 0.86785 0.70202 0.58924 0.0
H2471 H 0.88921 0.60327 0.60589 0.0
H2472 H 0.88111 0.71404 0.62306 0.0
H2473 H 0.88765 0.77549 0.62725 0.0
H2474 H 0.93557 0.74458 0.63841 0.0
H2475 H 0.92939 0.68297 0.63416 0.0
C2476 C 0.87775 0.53474 0.65091 0.0
C2477 C 0.89151 0.5256 0.65699 0.0
C2478 C 0.87944 0.55843 0.64281 0.0
C2479 C 0.89492 0.57336 0.6406 0.0
C2480 C 0.9086 0.56508 0.64681 0.0
C2481 C 0.90694 0.54117 0.65491 0.0
C2482 C 0.89669 0.59732 0.63171 0.0
C2483 C 0.90139 0.63209 0.63353 0.0
C2484 C 0.89245 0.58666 0.62161 0.0
C2485 C 0.88807 0.54983 0.61918 0.0
C2486 C 0.89887 0.52235 0.62181 0.0
C2487 C 0.89457 0.48768 0.61963 0.0
C2488 C 0.87955 0.48017 0.61476 0.0
C2489 C 0.86881 0.50732 0.61202 0.0
C2490 C 0.87304 0.54204 0.6142 0.0
C2491 C 0.90765 0.71876 0.59664 0.0
C2492 C 0.89277 0.72229 0.59111 0.0
C2493 C 0.90914 0.69345 0.60436 0.0
C2494 C 0.89566 0.67173 0.60681 0.0
C2495 C 0.88095 0.67464 0.6011 0.0
C2496 C 0.87952 0.69963 0.59331 0.0
C2497 C 0.89659 0.64654 0.6155 0.0
C2498 C 0.89242 0.61144 0.61364 0.0
C2499 C 0.90118 0.657 0.62558 0.0
C2500 C 0.90486 0.69398 0.62819 0.0
C2501 C 0.89309 0.72039 0.62634 0.0
C2502 C 0.89672 0.75524 0.62873 0.0
C2503 C 0.91204 0.76394 0.63306 0.0
C2504 C 0.92373 0.7378 0.63504 0.0
C2505 C 0.92017 0.70292 0.63265 0.0
H2506 H 0.91483 0.79094 0.63491 0.0
H2507 H 0.87624 0.45331 0.61308 0.0
H2508 H 0.83549 0.49051 0.1014 0.0
H2509 H 0.83348 0.53811 0.11408 0.0
H2510 H 0.85711 0.60847 0.09264 0.0
H2511 H 0.85884 0.56126 0.07988 0.0
H2512 H 0.87219 0.59866 0.1138 0.0
H2513 H 0.82075 0.62511 0.09604 0.0
H2514 H 0.79305 0.6104 0.08929 0.0
H2515 H 0.77666 0.58403 0.11981 0.0
H2516 H 0.80437 0.59809 0.12672 0.0
H2517 H 0.87227 0.75671 0.14032 0.0
H2518 H 0.86867 0.71188 0.12729 0.0
H2519 H 0.8302 0.66377 0.14554 0.0
H2520 H 0.83266 0.71059 0.15826 0.0
H2521 H 0.82183 0.65955 0.12646 0.0
H2522 H 0.87108 0.63147 0.14477 0.0
H2523 H 0.89856 0.64126 0.15258 0.0
H2524 H 0.91903 0.66344 0.12274 0.0
H2525 H 0.89162 0.65427 0.11476 0.0
C2526 C 0.83998 0.51633 0.09936 0.0
C2527 C 0.84729 0.52237 0.08969 0.0
C2528 C 0.8388 0.54339 0.10657 0.0
C2529 C 0.84515 0.57664 0.10425 0.0
C2530 C 0.8521 0.58294 0.09452 0.0
C2531 C 0.853 0.55609 0.08724 0.0
C2532 C 0.84578 0.60406 0.11225 0.0
C2533 C 0.86124 0.61239 0.11649 0.0
C2534 C 0.83135 0.62059 0.11602 0.0
C2535 C 0.81469 0.61227 0.11187 0.0
C2536 C 0.8113 0.61583 0.10129 0.0
C2537 C 0.79558 0.60769 0.09744 0.0
C2538 C 0.78312 0.59619 0.10411 0.0
C2539 C 0.78634 0.59289 0.11465 0.0
C2540 C 0.80204 0.60097 0.11854 0.0
C2541 C 0.86275 0.7372 0.14151 0.0
C2542 C 0.85277 0.73748 0.15042 0.0
C2543 C 0.86091 0.71109 0.1341 0.0
C2544 C 0.84946 0.68388 0.13554 0.0
C2545 C 0.83923 0.68432 0.14429 0.0
C2546 C 0.84082 0.71093 0.15163 0.0
C2547 C 0.84837 0.65488 0.12793 0.0
C2548 C 0.83283 0.64595 0.1238 0.0
C2549 C 0.86271 0.63705 0.12443 0.0
C2550 C 0.87925 0.64248 0.12918 0.0
C2551 C 0.88142 0.63868 0.13988 0.0
C2552 C 0.89698 0.64408 0.14434 0.0
C2553 C 0.91052 0.65305 0.13816 0.0
C2554 C 0.90853 0.65654 0.12752 0.0
C2555 C 0.89298 0.6512 0.12302 0.0
H2556 H 0.92256 0.65722 0.14163 0.0
H2557 H 0.77095 0.58991 0.10111 0.0
H2558 H 0.89945 0.99568 0.14409 0.0
H2559 H 0.90321 0.04219 0.13141 0.0
H2560 H 0.90272 0.11916 0.15577 0.0
H2561 H 0.89849 0.07254 0.16848 0.0
H2562 H 0.8834 0.13937 0.14108 0.0
H2563 H 0.93895 0.09723 0.14205 0.0
H2564 H 0.9614 0.05346 0.14157 0.0
H2565 H 0.94786 0.02548 0.11065 0.0
H2566 H 0.92518 0.06874 0.11098 0.0
H2567 H 0.90293 0.27713 0.10662 0.0
H2568 H 0.90685 0.23423 0.12039 0.0
H2569 H 0.89891 0.15034 0.09872 0.0
H2570 H 0.89461 0.19301 0.08493 0.0
H2571 H 0.9248 0.13705 0.1128 0.0
H2572 H 0.86766 0.17595 0.11289 0.0
H2573 H 0.84558 0.22055 0.11348 0.0
H2574 H 0.86318 0.25566 0.14296 0.0
H2575 H 0.88553 0.21157 0.14246 0.0
C2576 C 0.90043 0.02247 0.14675 0.0
C2577 C 0.89874 0.03055 0.15726 0.0
C2578 C 0.90264 0.04905 0.1395 0.0
C2579 C 0.90351 0.08419 0.14264 0.0
C2580 C 0.90212 0.09224 0.15317 0.0
C2581 C 0.89969 0.06566 0.16042 0.0
C2582 C 0.90468 0.11257 0.13485 0.0
C2583 C 0.8927 0.1392 0.13504 0.0
C2584 C 0.91659 0.11206 0.12682 0.0
C2585 C 0.93028 0.08608 0.12657 0.0
C2586 C 0.94068 0.08157 0.13517 0.0
C2587 C 0.95346 0.05688 0.13492 0.0
C2588 C 0.95603 0.03666 0.12609 0.0
C2589 C 0.94585 0.04115 0.11748 0.0
C2590 C 0.93304 0.06579 0.11769 0.0
C2591 C 0.90201 0.24955 0.10478 0.0
C2592 C 0.89825 0.23851 0.0947 0.0
C2593 C 0.90436 0.22511 0.11264 0.0
C2594 C 0.903 0.18919 0.11057 0.0
C2595 C 0.90004 0.17798 0.10045 0.0
C2596 C 0.89763 0.20241 0.09258 0.0
C2597 C 0.9035 0.1634 0.11907 0.0
C2598 C 0.91572 0.1373 0.11897 0.0
C2599 C 0.8919 0.16447 0.12723 0.0
C2600 C 0.87837 0.19074 0.12758 0.0
C2601 C 0.8669 0.19337 0.11946 0.0
C2602 C 0.85433 0.21852 0.11978 0.0
C2603 C 0.85301 0.24099 0.12824 0.0
C2604 C 0.86424 0.23827 0.1364 0.0
C2605 C 0.87685 0.2132 0.13611 0.0
H2606 H 0.84327 0.26045 0.12848 0.0
H2607 H 0.96593 0.01755 0.12592 0.0
H2608 H 0.6516 0.8141 0.82988 0.0
H2609 H 0.65363 0.85833 0.84355 0.0
H2610 H 0.64523 0.77848 0.86647 0.0
H2611 H 0.64331 0.73421 0.85287 0.0
H2612 H 0.6241 0.83792 0.86796 0.0
H2613 H 0.68196 0.80983 0.86499 0.0
H2614 H 0.70839 0.80146 0.85579 0.0
H2615 H 0.70784 0.90916 0.84632 0.0
H2616 H 0.68125 0.91805 0.85534 0.0
H2617 H 0.63607 0.93994 0.91236 0.0
H2618 H 0.63938 0.89391 0.89949 0.0
H2619 H 0.65519 0.97062 0.87715 0.0
H2620 H 0.65262 0.01668 0.89013 0.0
H2621 H 0.67315 0.91214 0.87538 0.0
H2622 H 0.61553 0.94089 0.87733 0.0
H2623 H 0.5886 0.95087 0.88581 0.0
H2624 H 0.58787 0.84415 0.89619 0.0
H2625 H 0.61494 0.83367 0.88789 0.0
C2626 C 0.65035 0.80604 0.83785 0.0
C2627 C 0.64735 0.77081 0.84035 0.0
C2628 C 0.65157 0.83121 0.84563 0.0
C2629 C 0.64963 0.82154 0.85599 0.0
C2630 C 0.64682 0.78635 0.85851 0.0
C2631 C 0.64582 0.76113 0.85075 0.0
C2632 C 0.64959 0.84842 0.86418 0.0
C2633 C 0.63489 0.8538 0.86971 0.0
C2634 C 0.66353 0.86977 0.86618 0.0
C2635 C 0.67952 0.8645 0.86075 0.0
C2636 C 0.68739 0.83164 0.86086 0.0
C2637 C 0.70242 0.82682 0.8557 0.0
C2638 C 0.70977 0.85473 0.85044 0.0
C2639 C 0.70211 0.88755 0.85037 0.0
C2640 C 0.68707 0.8925 0.85552 0.0
C2641 C 0.64056 0.94698 0.90478 0.0
C2642 C 0.64397 0.98206 0.90226 0.0
C2643 C 0.64228 0.92067 0.89739 0.0
C2644 C 0.64725 0.92894 0.88731 0.0
C2645 C 0.65124 0.96369 0.88487 0.0
C2646 C 0.64961 0.99002 0.89227 0.0
C2647 C 0.64765 0.90154 0.87923 0.0
C2648 C 0.66238 0.89616 0.87368 0.0
C2649 C 0.63364 0.88043 0.87709 0.0
C2650 C 0.61735 0.88661 0.88208 0.0
C2651 C 0.6097 0.91963 0.88149 0.0
C2652 C 0.5944 0.92537 0.88625 0.0
C2653 C 0.58655 0.89819 0.89156 0.0
C2654 C 0.59398 0.86519 0.89209 0.0
C2655 C 0.6093 0.85933 0.88736 0.0
H2656 H 0.5747 0.90268 0.89524 0.0
H2657 H 0.72141 0.85095 0.84645 0.0
H2658 H 0.57656 0.28439 0.90651 0.0
H2659 H 0.57285 0.3287 0.89303 0.0
H2660 H 0.6251 0.32363 0.88605 0.0
H2661 H 0.62889 0.27994 0.89956 0.0
H2662 H 0.61576 0.38866 0.88639 0.0
H2663 H 0.59521 0.28319 0.87088 0.0
H2664 H 0.57771 0.2305 0.86946 0.0
H2665 H 0.53399 0.2946 0.86935 0.0
H2666 H 0.55124 0.34769 0.87091 0.0
H2667 H 0.61849 0.45136 0.83501 0.0
H2668 H 0.61633 0.40762 0.84876 0.0
H2669 H 0.57231 0.45836 0.86022 0.0
H2670 H 0.57463 0.50286 0.84659 0.0
H2671 H 0.57509 0.3734 0.85803 0.0
H2672 H 0.59768 0.47971 0.8735 0.0
H2673 H 0.61677 0.53012 0.87362 0.0
H2674 H 0.65848 0.46037 0.87258 0.0
H2675 H 0.63959 0.40954 0.87226 0.0
C2676 C 0.58723 0.29276 0.90207 0.0
C2677 C 0.60302 0.27883 0.9041 0.0
C2678 C 0.5851 0.31798 0.89437 0.0
C2679 C 0.59868 0.32925 0.88846 0.0
C2680 C 0.61446 0.31548 0.89054 0.0
C2681 C 0.61661 0.29057 0.89828 0.0
C2682 C 0.59661 0.35546 0.88012 0.0
C2683 C 0.60688 0.38513 0.88019 0.0
C2684 C 0.5849 0.35123 0.87207 0.0
C2685 C 0.5745 0.31937 0.87114 0.0
C2686 C 0.58186 0.28603 0.87064 0.0
C2687 C 0.57198 0.2561 0.8698 0.0
C2688 C 0.55474 0.25919 0.86935 0.0
C2689 C 0.54734 0.29224 0.86972 0.0
C2690 C 0.55716 0.32226 0.87058 0.0
C2691 C 0.60817 0.45276 0.84034 0.0
C2692 C 0.59671 0.48036 0.83977 0.0
C2693 C 0.60698 0.42788 0.84817 0.0
C2694 C 0.59417 0.42994 0.85545 0.0
C2695 C 0.58223 0.45643 0.85462 0.0
C2696 C 0.5836 0.48178 0.84689 0.0
C2697 C 0.59425 0.40607 0.86438 0.0
C2698 C 0.58371 0.37693 0.86436 0.0
C2699 C 0.60586 0.41042 0.87241 0.0
C2700 C 0.61723 0.44088 0.87274 0.0
C2701 C 0.61092 0.47515 0.87319 0.0
C2702 C 0.6217 0.50379 0.87331 0.0
C2703 C 0.63883 0.49845 0.87308 0.0
C2704 C 0.64521 0.46446 0.87274 0.0
C2705 C 0.63447 0.43573 0.87259 0.0
H2706 H 0.64716 0.52066 0.87318 0.0
H2707 H 0.54712 0.23599 0.86869 0.0
H2708 H 0.66722 0.24783 0.34677 0.0
H2709 H 0.6723 0.29342 0.35957 0.0
H2710 H 0.63809 0.36174 0.34378 0.0
H2711 H 0.63373 0.31717 0.33063 0.0
H2712 H 0.66279 0.39864 0.35084 0.0
H2713 H 0.6265 0.31015 0.36485 0.0
H2714 H 0.6185 0.25025 0.36991 0.0
H2715 H 0.66005 0.24499 0.39054 0.0
H2716 H 0.66842 0.30474 0.38549 0.0
H2717 H 0.62666 0.50059 0.39037 0.0
H2718 H 0.63234 0.45742 0.37703 0.0
H2719 H 0.67436 0.41969 0.39427 0.0
H2720 H 0.66936 0.46415 0.4075 0.0
H2721 H 0.6506 0.36685 0.38715 0.0
H2722 H 0.68363 0.46152 0.37443 0.0
H2723 H 0.68927 0.52268 0.36949 0.0
H2724 H 0.65111 0.51754 0.34646 0.0
H2725 H 0.64506 0.45648 0.35138 0.0
C2726 C 0.66109 0.27285 0.34587 0.0
C2727 C 0.64988 0.27865 0.33773 0.0
C2728 C 0.66387 0.29877 0.35327 0.0
C2729 C 0.6553 0.33072 0.35277 0.0
C2730 C 0.64476 0.3372 0.34438 0.0
C2731 C 0.64213 0.31151 0.33692 0.0
C2732 C 0.65645 0.35671 0.36124 0.0
C2733 C 0.66008 0.39168 0.35877 0.0
C2734 C 0.65323 0.34756 0.37163 0.0
C2735 C 0.6482 0.31171 0.3747 0.0
C2736 C 0.634 0.2961 0.37041 0.0
C2737 C 0.62939 0.26221 0.37328 0.0
C2738 C 0.63879 0.24378 0.38052 0.0
C2739 C 0.6528 0.25926 0.38492 0.0
C2740 C 0.65748 0.29314 0.38205 0.0
C2741 C 0.63735 0.48375 0.39127 0.0
C2742 C 0.64761 0.48616 0.40002 0.0
C2743 C 0.6405 0.4589 0.38365 0.0
C2744 C 0.65382 0.43564 0.38466 0.0
C2745 C 0.66402 0.43753 0.39338 0.0
C2746 C 0.66104 0.4628 0.40096 0.0
C2747 C 0.65659 0.40867 0.37668 0.0
C2748 C 0.65365 0.37359 0.37925 0.0
C2749 C 0.66015 0.41781 0.36636 0.0
C2750 C 0.66382 0.45447 0.36333 0.0
C2751 C 0.67635 0.47351 0.36837 0.0
C2752 C 0.67963 0.50815 0.36556 0.0
C2753 C 0.67053 0.524 0.35768 0.0
C2754 C 0.65815 0.50522 0.35257 0.0
C2755 C 0.6548 0.47058 0.35536 0.0
H2756 H 0.6731 0.55083 0.35551 0.0
H2757 H 0.6352 0.21754 0.38273 0.0
H2758 H 0.63149 0.79237 0.40629 0.0
H2759 H 0.6281 0.83845 0.3935 0.0
H2760 H 0.57513 0.82374 0.39409 0.0
H2761 H 0.57831 0.77814 0.40723 0.0
H2762 H 0.58885 0.82521 0.37409 0.0
H2763 H 0.58958 0.89436 0.40476 0.0
H2764 H 0.60014 0.91415 0.42161 0.0
H2765 H 0.64589 0.94578 0.4075 0.0
H2766 H 0.63571 0.9257 0.39058 0.0
H2767 H 0.57842 0.9729 0.34077 0.0
H2768 H 0.57574 0.93176 0.35512 0.0
H2769 H 0.62786 0.94326 0.36178 0.0
H2770 H 0.63046 0.98558 0.34783 0.0
H2771 H 0.61071 0.94548 0.37895 0.0
H2772 H 0.61183 0.87077 0.34897 0.0
H2773 H 0.60238 0.8493 0.33204 0.0
H2774 H 0.55438 0.82671 0.34469 0.0
H2775 H 0.56349 0.84849 0.36168 0.0
C2776 C 0.61906 0.79936 0.40391 0.0
C2777 C 0.60516 0.78162 0.40787 0.0
C2778 C 0.61716 0.8256 0.39654 0.0
C2779 C 0.60136 0.83463 0.39292 0.0
C2780 C 0.58743 0.81709 0.39681 0.0
C2781 C 0.58929 0.79097 0.40427 0.0
C2782 C 0.59962 0.86166 0.38483 0.0
C2783 C 0.5933 0.85175 0.37519 0.0
C2784 C 0.60577 0.89598 0.38625 0.0
C2785 C 0.61191 0.90828 0.39641 0.0
C2786 C 0.60194 0.90529 0.40526 0.0
C2787 C 0.60786 0.91661 0.41482 0.0
C2788 C 0.62369 0.93116 0.41563 0.0
C2789 C 0.63363 0.93449 0.40687 0.0
C2790 C 0.62779 0.92319 0.39728 0.0
C2791 C 0.58929 0.96685 0.34534 0.0
C2792 C 0.60468 0.98242 0.3431 0.0
C2793 C 0.58776 0.94308 0.35348 0.0
C2794 C 0.60164 0.93416 0.35946 0.0
C2795 C 0.61699 0.9497 0.35725 0.0
C2796 C 0.61849 0.97359 0.34918 0.0
C2797 C 0.60031 0.90885 0.3681 0.0
C2798 C 0.60604 0.9191 0.37786 0.0
C2799 C 0.59376 0.87475 0.36676 0.0
C2800 C 0.58828 0.86165 0.35656 0.0
C2801 C 0.59922 0.8615 0.34812 0.0
C2802 C 0.59393 0.84922 0.33852 0.0
C2803 C 0.57777 0.83676 0.33728 0.0
C2804 C 0.56688 0.83645 0.34565 0.0
C2805 C 0.5721 0.84874 0.35527 0.0
H2806 H 0.5737 0.82725 0.32984 0.0
H2807 H 0.62824 0.9399 0.42304 0.0
H2808 H 0.37469 0.18983 0.16235 0.0
H2809 H 0.37348 0.14399 0.14925 0.0
H2810 H 0.32704 0.18537 0.13818 0.0
H2811 H 0.32803 0.2312 0.15141 0.0
H2812 H 0.32833 0.11077 0.13879 0.0
H2813 H 0.35989 0.20809 0.12588 0.0
H2814 H 0.38175 0.25313 0.12659 0.0
H2815 H 0.41896 0.17304 0.12855 0.0
H2816 H 0.39729 0.1275 0.12801 0.0
H2817 H 0.33201 0.02459 0.08996 0.0
H2818 H 0.32923 0.06792 0.10371 0.0
H2819 H 0.37882 0.04441 0.11407 0.0
H2820 H 0.38203 0.0026 0.10005 0.0
H2821 H 0.37451 0.11195 0.11352 0.0
H2822 H 0.34342 0.01445 0.12686 0.0
H2823 H 0.32182 0.96879 0.1266 0.0
H2824 H 0.28412 0.0477 0.12416 0.0
H2825 H 0.30553 0.09384 0.12427 0.0
C2826 C 0.36402 0.18873 0.15729 0.0
C2827 C 0.35148 0.21419 0.15787 0.0
C2828 C 0.36341 0.16268 0.14977 0.0
C2829 C 0.35028 0.16163 0.1427 0.0
C2830 C 0.3373 0.18587 0.14357 0.0
C2831 C 0.33795 0.21211 0.15106 0.0
C2832 C 0.35073 0.13666 0.13399 0.0
C2833 C 0.33829 0.11121 0.13317 0.0
C2834 C 0.36388 0.13707 0.12679 0.0
C2835 C 0.37695 0.1644 0.127 0.0
C2836 C 0.37273 0.20009 0.12654 0.0
C2837 C 0.38508 0.22571 0.1269 0.0
C2838 C 0.40173 0.21595 0.12764 0.0
C2839 C 0.40606 0.18055 0.12799 0.0
C2840 C 0.39374 0.15483 0.12765 0.0
C2841 C 0.34238 0.02885 0.09511 0.0
C2842 C 0.35723 0.00998 0.0939 0.0
C2843 C 0.34069 0.05334 0.10305 0.0
C2844 C 0.35374 0.0591 0.11001 0.0
C2845 C 0.36855 0.04031 0.10882 0.0
C2846 C 0.37031 0.01611 0.10085 0.0
C2847 C 0.35227 0.08538 0.11837 0.0
C2848 C 0.36451 0.11136 0.11911 0.0
C2849 C 0.33897 0.08526 0.12551 0.0
C2850 C 0.32609 0.05757 0.12547 0.0
C2851 C 0.33053 0.02205 0.12619 0.0
C2852 C 0.31832 0.99609 0.12608 0.0
C2853 C 0.30161 0.00534 0.12533 0.0
C2854 C 0.29707 0.04058 0.12472 0.0
C2855 C 0.30924 0.06664 0.12482 0.0
H2856 H 0.29217 0.9852 0.12525 0.0
H2857 H 0.41128 0.23583 0.12791 0.0
H2858 H 0.36604 0.51176 0.1451 0.0
H2859 H 0.37004 0.55393 0.13124 0.0
H2860 H 0.42279 0.55261 0.13658 0.0
H2861 H 0.41891 0.50974 0.15046 0.0
H2862 H 0.41055 0.61953 0.13392 0.0
H2863 H 0.40838 0.51099 0.11615 0.0
H2864 H 0.39754 0.45265 0.11163 0.0
H2865 H 0.35206 0.499 0.1012 0.0
H2866 H 0.36252 0.55761 0.1058 0.0
H2867 H 0.41981 0.7185 0.08692 0.0
H2868 H 0.42307 0.67172 0.09967 0.0
H2869 H 0.37003 0.65849 0.10078 0.0
H2870 H 0.36658 0.70574 0.08836 0.0
H2871 H 0.38726 0.59537 0.09924 0.0
H2872 H 0.38857 0.70269 0.1192 0.0
H2873 H 0.39945 0.76087 0.12388 0.0
H2874 H 0.44722 0.71593 0.13004 0.0
H2875 H 0.43666 0.6575 0.12526 0.0
C2876 C 0.37853 0.52006 0.14326 0.0
C2877 C 0.39218 0.50705 0.1488 0.0
C2878 C 0.38079 0.54426 0.13535 0.0
C2879 C 0.39673 0.55594 0.13278 0.0
C2880 C 0.41039 0.54377 0.13843 0.0
C2881 C 0.40814 0.5194 0.14637 0.0
C2882 C 0.39889 0.58107 0.12419 0.0
C2883 C 0.4058 0.61401 0.12627 0.0
C2884 C 0.39254 0.57391 0.11424 0.0
C2885 C 0.38621 0.53871 0.11139 0.0
C2886 C 0.39602 0.50874 0.11296 0.0
C2887 C 0.38995 0.47562 0.11038 0.0
C2888 C 0.37411 0.47212 0.10615 0.0
C2889 C 0.36432 0.50175 0.10448 0.0
C2890 C 0.37033 0.53495 0.10706 0.0
C2891 C 0.40882 0.70581 0.08992 0.0
C2892 C 0.39292 0.71591 0.08658 0.0
C2893 C 0.41073 0.67899 0.09717 0.0
C2894 C 0.39679 0.66175 0.10116 0.0
C2895 C 0.38096 0.67133 0.09772 0.0
C2896 C 0.37902 0.69826 0.09057 0.0
C2897 C 0.39847 0.63408 0.10907 0.0
C2898 C 0.39229 0.60063 0.10684 0.0
C2899 C 0.40556 0.64075 0.11885 0.0
C2900 C 0.41189 0.67583 0.12174 0.0
C2901 C 0.40143 0.70527 0.12146 0.0
C2902 C 0.40753 0.73828 0.12415 0.0
C2903 C 0.42403 0.74212 0.12722 0.0
C2904 C 0.43445 0.71293 0.12764 0.0
C2905 C 0.42842 0.67987 0.12494 0.0
H2906 H 0.42873 0.76769 0.12931 0.0
H2907 H 0.36943 0.44645 0.10415 0.0
H2908 H 0.3423 0.68837 0.6622 0.0
H2909 H 0.33894 0.64242 0.64923 0.0
H2910 H 0.3501 0.71676 0.62519 0.0
H2911 H 0.35375 0.76265 0.63807 0.0
H2912 H 0.32438 0.67303 0.61987 0.0
H2913 H 0.37966 0.66367 0.63369 0.0
H2914 H 0.40046 0.65766 0.6475 0.0
H2915 H 0.37917 0.5592 0.65642 0.0
H2916 H 0.35807 0.56489 0.64275 0.0
H2917 H 0.35174 0.56261 0.57918 0.0
H2918 H 0.34844 0.60662 0.59272 0.0
H2919 H 0.33916 0.52493 0.61495 0.0
H2920 H 0.34288 0.48077 0.60152 0.0
H2921 H 0.36196 0.5704 0.6218 0.0
H2922 H 0.30793 0.5776 0.60694 0.0
H2923 H 0.28736 0.58381 0.593 0.0
H2924 H 0.30632 0.68602 0.58588 0.0
H2925 H 0.32717 0.68023 0.59969 0.0
C2926 C 0.34404 0.69494 0.65415 0.0
C2927 C 0.34839 0.72916 0.65119 0.0
C2928 C 0.34205 0.6687 0.64675 0.0
C2929 C 0.34442 0.67617 0.63627 0.0
C2930 C 0.34815 0.71051 0.63324 0.0
C2931 C 0.35018 0.73673 0.64063 0.0
C2932 C 0.34388 0.6479 0.62846 0.0
C2933 C 0.33267 0.65069 0.62024 0.0
C2934 C 0.35446 0.61845 0.62908 0.0
C2935 C 0.36717 0.61491 0.63728 0.0
C2936 C 0.37933 0.64088 0.63865 0.0
C2937 C 0.39119 0.63751 0.64645 0.0
C2938 C 0.39111 0.60812 0.65286 0.0
C2939 C 0.3792 0.58199 0.65147 0.0
C2940 C 0.36729 0.58526 0.64369 0.0
C2941 C 0.34894 0.55405 0.58695 0.0
C2942 C 0.34757 0.51823 0.58928 0.0
C2943 C 0.3469 0.57922 0.59465 0.0
C2944 C 0.34342 0.56904 0.60482 0.0
C2945 C 0.34178 0.53334 0.60714 0.0
C2946 C 0.34378 0.50817 0.59944 0.0
C2947 C 0.3425 0.59552 0.61315 0.0
C2948 C 0.35351 0.59248 0.62148 0.0
C2949 C 0.33175 0.62473 0.6126 0.0
C2950 C 0.31921 0.62834 0.60429 0.0
C2951 C 0.30781 0.60129 0.60235 0.0
C2952 C 0.29608 0.60475 0.59448 0.0
C2953 C 0.29556 0.63525 0.58855 0.0
C2954 C 0.30674 0.66239 0.59048 0.0
C2955 C 0.31851 0.65904 0.59833 0.0
H2956 H 0.28646 0.63789 0.58246 0.0
H2957 H 0.4003 0.60555 0.65888 0.0
H2958 H 0.40611 0.19608 0.58119 0.0
H2959 H 0.41023 0.1498 0.59401 0.0
H2960 H 0.40287 0.22468 0.61846 0.0
H2961 H 0.39873 0.27112 0.60566 0.0
H2962 H 0.42897 0.17432 0.62221 0.0
H2963 H 0.37147 0.18031 0.61209 0.0
H2964 H 0.3485 0.18134 0.59956 0.0
H2965 H 0.36276 0.0798 0.58849 0.0
H2966 H 0.386 0.07843 0.60085 0.0
H2967 H 0.40296 0.06422 0.66352 0.0
H2968 H 0.4066 0.10952 0.65039 0.0
H2969 H 0.40638 0.03045 0.62665 0.0
H2970 H 0.4022 0.9852 0.63968 0.0
H2971 H 0.38565 0.08207 0.62205 0.0
H2972 H 0.44196 0.07356 0.63299 0.0
H2973 H 0.46515 0.07238 0.64536 0.0
H2974 H 0.45373 0.17738 0.65478 0.0
H2975 H 0.43029 0.17902 0.64257 0.0
C2976 C 0.40572 0.20278 0.5893 0.0
C2977 C 0.40199 0.23706 0.59246 0.0
C2978 C 0.40801 0.17635 0.5966 0.0
C2979 C 0.40673 0.18388 0.60715 0.0
C2980 C 0.40391 0.21844 0.61034 0.0
C2981 C 0.40143 0.24481 0.60304 0.0
C2982 C 0.40687 0.15524 0.61481 0.0
C2983 C 0.41946 0.15425 0.62226 0.0
C2984 C 0.39461 0.12879 0.6147 0.0
C2985 C 0.38058 0.12945 0.60731 0.0
C2986 C 0.3698 0.15834 0.60692 0.0
C2987 C 0.35671 0.15897 0.59986 0.0
C2988 C 0.3542 0.1307 0.59321 0.0
C2989 C 0.36474 0.1017 0.59363 0.0
C2990 C 0.37787 0.10099 0.60066 0.0
C2991 C 0.40375 0.05649 0.6555 0.0
C2992 C 0.40227 0.02112 0.65264 0.0
C2993 C 0.40599 0.08236 0.64802 0.0
C2994 C 0.40689 0.07332 0.63754 0.0
C2995 C 0.40578 0.03798 0.63469 0.0
C2996 C 0.40353 0.01212 0.64216 0.0
C2997 C 0.40781 0.10087 0.62951 0.0
C2998 C 0.39532 0.10182 0.62199 0.0
C2999 C 0.42019 0.12714 0.62957 0.0
C3000 C 0.43426 0.12628 0.63693 0.0
C3001 C 0.4443 0.0963 0.63776 0.0
C3002 C 0.45751 0.09557 0.64473 0.0
C3003 C 0.46089 0.12476 0.65087 0.0
C3004 C 0.45108 0.15477 0.65003 0.0
C3005 C 0.43784 0.15563 0.64308 0.0
H3006 H 0.47112 0.12415 0.65626 0.0
H3007 H 0.34406 0.13122 0.58775 0.0
loop_
_geom_bond_atom_site_label_1
_geom_bond_atom_site_label_2
_geom_bond_distance
_geom_bond_site_symmetry_2
_ccdc_geom_bond_type
Li0 N17 1.990 . S
Li0 O60 1.956 . S
Li0 O61 1.970 . S
Li0 O62 1.961 . S
Li1 N25 1.990 . S
Li1 O60 1.970 . S
Li1 O61 1.956 . S
Li1 O63 1.961 . S
Li2 N47 1.990 . S
Li2 O60 1.961 . S
Li2 O62 1.956 . S
Li2 O63 1.970 . S
Li3 N53 1.990 . S
Li3 O61 1.961 . S
Li3 O62 1.970 . S
Li3 O63 1.956 . S
C4 C6 1.348 . S
C4 C7 1.356 . S
C4 O60 1.325 . S
N5 C8 1.314 . S
N5 C9 1.279 . S
C6 C4 1.348 . S
C6 C8 1.353 . S
C6 H64 0.929 . S
C7 C4 1.356 . S
C7 C9 1.358 . S
C7 H65 0.930 . S
C8 N5 1.314 . S
C8 C6 1.353 . S
C8 H66 0.930 . S
C9 N5 1.279 . S
C9 C7 1.358 . S
C9 H67 0.930 . S
C10 C13 1.348 . S
C10 C14 1.356 . S
C10 O61 1.325 . S
C11 N12 1.279 . S
C11 C14 1.358 . S
C11 H68 0.930 1_545 S
N12 C11 1.279 . S
N12 C15 1.314 . S
C13 C10 1.348 . S
C13 C15 1.353 . S
C13 H69 0.929 . S
C14 C10 1.356 . S
C14 C11 1.358 . S
C14 H70 0.930 . S
C15 N12 1.314 . S
C15 C13 1.353 . S
C15 H71 0.930 . S
C16 N17 1.314 . S
C16 C21 1.353 . S
C16 H22 0.930 . S
N17 Li0 1.990 . S
N17 C16 1.314 . S
N17 C19 1.279 . S
C18 C19 1.358 . S
C18 C20 1.356 . S
C18 H72 0.930 . S
C19 N17 1.279 . S
C19 C18 1.358 . S
C19 H23 0.930 . S
C20 C18 1.356 . S
C20 C21 1.348 . S
C21 C16 1.353 . S
C21 C20 1.348 . S
C21 H73 0.929 . S
H22 C16 0.930 . S
H23 C19 0.930 . S
C24 N25 1.314 . S
C24 C26 1.353 . S
C24 H30 0.930 . S
N25 Li1 1.990 . S
N25 C24 1.314 . S
N25 C28 1.279 . S
C26 C24 1.353 . S
C26 C29 1.348 . S
C26 H74 0.929 . S
C27 C28 1.358 . S
C27 C29 1.356 . S
C27 H75 0.930 . S
C28 N25 1.279 . S
C28 C27 1.358 . S
C28 H31 0.930 . S
C29 C26 1.348 . S
C29 C27 1.356 . S
H30 C24 0.930 . S
H31 C28 0.930 . S
C32 C34 1.348 . S
C32 C35 1.356 . S
C32 O62 1.325 . S
N33 C36 1.314 . S
N33 C37 1.279 . S
C34 C32 1.348 . S
C34 C36 1.353 . S
C34 H76 0.929 . S
C35 C32 1.356 . S
C35 C37 1.358 . S
C35 H77 0.930 . S
C36 N33 1.314 . S
C36 C34 1.353 . S
C36 H78 0.930 . S
C37 N33 1.279 . S
C37 C35 1.358 . S
C37 H79 0.930 . S
C38 C39 1.348 . S
C38 C40 1.356 . S
C38 O63 1.325 . S
C39 C38 1.348 . S
C39 C41 1.353 . S
C39 H80 0.929 . S
C40 C38 1.356 . S
C40 C42 1.358 . S
C40 H81 0.930 . S
C41 C39 1.353 . S
C41 N43 1.314 . S
C41 H82 0.930 . S
C42 C40 1.358 . S
C42 N43 1.279 . S
C42 H83 0.930 . S
N43 C41 1.314 . S
N43 C42 1.279 . S
C44 C46 1.353 . S
C44 N47 1.314 . S
C44 H50 0.930 . S
C45 N47 1.279 . S
C45 C48 1.358 . S
C45 H51 0.930 . S
C46 C44 1.353 . S
C46 C49 1.348 . S
C46 H84 0.929 . S
N47 Li2 1.990 . S
N47 C44 1.314 . S
N47 C45 1.279 . S
C48 C45 1.358 . S
C48 C49 1.356 . S
C48 H85 0.930 . S
C49 C46 1.348 . S
C49 C48 1.356 . S
H50 C44 0.930 . S
H51 C45 0.930 . S
C52 N53 1.314 . S
C52 C54 1.353 1_545 S
C52 H58 0.930 . S
N53 Li3 1.990 . S
N53 C52 1.314 . S
N53 C56 1.279 . S
C54 C52 1.353 1_565 S
C54 C57 1.348 . S
C54 H86 0.929 . S
C55 C56 1.358 . S
C55 C57 1.356 1_545 S
C55 H87 0.930 . S
C56 N53 1.279 . S
C56 C55 1.358 . S
C56 H59 0.930 . S
C57 C54 1.348 . S
C57 C55 1.356 1_565 S
H58 C52 0.930 . S
H59 C56 0.930 . S
O60 Li0 1.956 . S
O60 Li1 1.970 . S
O60 Li2 1.961 . S
O60 C4 1.325 . S
O61 Li0 1.970 . S
O61 Li1 1.956 . S
O61 Li3 1.961 . S
O61 C10 1.325 . S
O62 Li0 1.961 . S
O62 Li2 1.956 . S
O62 Li3 1.970 . S
O62 C32 1.325 . S
O63 Li1 1.961 . S
O63 Li2 1.970 . S
O63 Li3 1.956 . S
O63 C38 1.325 . S
H64 C6 0.929 . S
H65 C7 0.930 . S
H66 C8 0.930 . S
H67 C9 0.930 . S
H68 C11 0.930 1_565 S
H69 C13 0.929 . S
H70 C14 0.930 . S
H71 C15 0.930 . S
H72 C18 0.930 . S
H73 C21 0.929 . S
H74 C26 0.929 . S
H75 C27 0.930 . S
H76 C34 0.929 . S
H77 C35 0.930 . S
H78 C36 0.930 . S
H79 C37 0.930 . S
H80 C39 0.929 . S
H81 C40 0.930 . S
H82 C41 0.930 . S
H83 C42 0.930 . S
H84 C46 0.929 . S
H85 C48 0.930 . S
H86 C54 0.929 . S
H87 C55 0.930 . S
Li88 N105 1.990 . S
Li88 O148 1.956 . S
Li88 O149 1.970 . S
Li88 O150 1.961 . S
Li89 N113 1.990 . S
Li89 O148 1.970 . S
Li89 O149 1.956 . S
Li89 O151 1.961 . S
Li90 N135 1.990 . S
Li90 O148 1.961 . S
Li90 O150 1.956 . S
Li90 O151 1.970 . S
Li91 N141 1.990 . S
Li91 O149 1.961 . S
Li91 O150 1.970 . S
Li91 O151 1.956 . S
C92 C94 1.348 . S
C92 C95 1.356 . S
C92 O148 1.325 . S
N93 C96 1.314 . S
N93 C97 1.279 . S
C94 C92 1.348 . S
C94 C96 1.353 . S
C94 H152 0.929 . S
C95 C92 1.356 . S
C95 C97 1.358 . S
C95 H153 0.930 . S
C96 N93 1.314 . S
C96 C94 1.353 . S
C96 H154 0.930 . S
C97 N93 1.279 . S
C97 C95 1.358 . S
C97 H155 0.930 . S
C98 C101 1.348 . S
C98 C102 1.356 . S
C98 O149 1.325 . S
C99 N100 1.279 . S
C99 C102 1.358 . S
C99 H156 0.930 . S
N100 C99 1.279 . S
N100 C103 1.314 . S
C101 C98 1.348 . S
C101 C103 1.353 . S
C101 H157 0.929 . S
C102 C98 1.356 . S
C102 C99 1.358 . S
C102 H158 0.930 . S
C103 N100 1.314 . S
C103 C101 1.353 . S
C103 H159 0.930 . S
C104 N105 1.314 . S
C104 C109 1.353 . S
C104 H110 0.930 . S
N105 Li88 1.990 . S
N105 C104 1.314 . S
N105 C107 1.279 . S
C106 C107 1.358 . S
C106 C108 1.356 . S
C106 H160 0.930 . S
C107 N105 1.279 . S
C107 C106 1.358 . S
C107 H111 0.930 . S
C108 C106 1.356 . S
C108 C109 1.348 . S
C109 C104 1.353 . S
C109 C108 1.348 . S
C109 H161 0.929 . S
H110 C104 0.930 . S
H111 C107 0.930 . S
C112 N113 1.314 . S
C112 C114 1.353 1_545 S
C112 H118 0.930 . S
N113 Li89 1.990 . S
N113 C112 1.314 . S
N113 C116 1.279 . S
C114 C112 1.353 1_565 S
C114 C117 1.348 . S
C114 H162 0.929 . S
C115 C116 1.358 . S
C115 C117 1.356 1_545 S
C115 H163 0.930 . S
C116 N113 1.279 . S
C116 C115 1.358 . S
C116 H119 0.930 . S
C117 C114 1.348 . S
C117 C115 1.356 1_565 S
H118 C112 0.930 . S
H119 C116 0.930 . S
C120 C122 1.348 . S
C120 C123 1.356 . S
C120 O150 1.325 . S
N121 C124 1.314 . S
N121 C125 1.279 . S
C122 C120 1.348 . S
C122 C124 1.353 . S
C122 H164 0.929 . S
C123 C120 1.356 . S
C123 C125 1.358 . S
C123 H165 0.930 . S
C124 N121 1.314 . S
C124 C122 1.353 . S
C124 H166 0.930 . S
C125 N121 1.279 . S
C125 C123 1.358 . S
C125 H167 0.930 . S
C126 C127 1.348 . S
C126 C128 1.356 . S
C126 O151 1.325 . S
C127 C126 1.348 . S
C127 C129 1.353 . S
C127 H168 0.929 . S
C128 C126 1.356 . S
C128 C130 1.358 . S
C128 H169 0.930 . S
C129 C127 1.353 . S
C129 N131 1.314 . S
C129 H170 0.930 . S
C130 C128 1.358 . S
C130 N131 1.279 . S
C130 H171 0.930 1_545 S
N131 C129 1.314 . S
N131 C130 1.279 . S
C132 C134 1.353 . S
C132 N135 1.314 . S
C132 H138 0.930 . S
C133 N135 1.279 . S
C133 C136 1.358 . S
C133 H139 0.930 . S
C134 C132 1.353 . S
C134 C137 1.348 . S
C134 H172 0.929 . S
N135 Li90 1.990 . S
N135 C132 1.314 . S
N135 C133 1.279 . S
C136 C133 1.358 . S
C136 C137 1.356 . S
C136 H173 0.930 . S
C137 C134 1.348 . S
C137 C136 1.356 . S
H138 C132 0.930 . S
H139 C133 0.930 . S
C140 N141 1.314 . S
C140 C142 1.353 . S
C140 H146 0.930 . S
N141 Li91 1.990 . S
N141 C140 1.314 . S
N141 C144 1.279 . S
C142 C140 1.353 . S
C142 C145 1.348 . S
C142 H174 0.929 . S
C143 C144 1.358 . S
C143 C145 1.356 . S
C143 H175 0.930 . S
C144 N141 1.279 . S
C144 C143 1.358 . S
C144 H147 0.930 . S
C145 C142 1.348 . S
C145 C143 1.356 . S
H146 C140 0.930 . S
H147 C144 0.930 . S
O148 Li88 1.956 . S
O148 Li89 1.970 . S
O148 Li90 1.961 . S
O148 C92 1.325 . S
O149 Li88 1.970 . S
O149 Li89 1.956 . S
O149 Li91 1.961 . S
O149 C98 1.325 . S
O150 Li88 1.961 . S
O150 Li90 1.956 . S
O150 Li91 1.970 . S
O150 C120 1.325 . S
O151 Li89 1.961 . S
O151 Li90 1.970 . S
O151 Li91 1.956 . S
O151 C126 1.325 . S
H152 C94 0.929 . S
H153 C95 0.930 . S
H154 C96 0.930 . S
H155 C97 0.930 . S
H156 C99 0.930 . S
H157 C101 0.929 . S
H158 C102 0.930 . S
H159 C103 0.930 . S
H160 C106 0.930 . S
H161 C109 0.929 . S
H162 C114 0.929 . S
H163 C115 0.930 . S
H164 C122 0.929 . S
H165 C123 0.930 . S
H166 C124 0.930 . S
H167 C125 0.930 . S
H168 C127 0.929 . S
H169 C128 0.930 . S
H170 C129 0.930 . S
H171 C130 0.930 1_565 S
H172 C134 0.929 . S
H173 C136 0.930 . S
H174 C142 0.929 . S
H175 C143 0.930 . S
Li176 N193 1.990 . S
Li176 O236 1.956 . S
Li176 O237 1.970 . S
Li176 O238 1.961 . S
Li177 N201 1.990 . S
Li177 O236 1.970 . S
Li177 O237 1.956 . S
Li177 O239 1.961 . S
Li178 N223 1.990 . S
Li178 O236 1.961 . S
Li178 O238 1.956 . S
Li178 O239 1.970 . S
Li179 N229 1.990 . S
Li179 O237 1.961 . S
Li179 O238 1.970 . S
Li179 O239 1.956 . S
C180 C182 1.348 . S
C180 C183 1.356 . S
C180 O236 1.325 . S
N181 C184 1.314 . S
N181 C185 1.279 . S
C182 C180 1.348 . S
C182 C184 1.353 . S
C182 H240 0.929 . S
C183 C180 1.356 . S
C183 C185 1.358 . S
C183 H241 0.930 . S
C184 N181 1.314 . S
C184 C182 1.353 . S
C184 H242 0.930 . S
C185 N181 1.279 . S
C185 C183 1.358 . S
C185 H243 0.930 . S
C186 C189 1.348 . S
C186 C190 1.356 . S
C186 O237 1.325 . S
C187 N188 1.281 1_565 S
C187 C190 1.358 . S
C187 H244 0.930 . S
N188 C187 1.281 1_545 S
N188 C191 1.315 1_545 S
C189 C186 1.348 . S
C189 C191 1.353 . S
C189 H245 0.929 . S
C190 C186 1.356 . S
C190 C187 1.358 . S
C190 H246 0.930 . S
C191 N188 1.315 1_565 S
C191 C189 1.353 . S
C191 H247 0.930 . S
C192 N193 1.314 . S
C192 C197 1.353 . S
C192 H198 0.930 . S
N193 Li176 1.990 . S
N193 C192 1.314 . S
N193 C195 1.279 . S
C194 C195 1.358 . S
C194 C196 1.356 . S
C194 H248 0.930 . S
C195 N193 1.279 . S
C195 C194 1.358 . S
C195 H199 0.930 . S
C196 C194 1.356 . S
C196 C197 1.348 . S
C197 C192 1.353 . S
C197 C196 1.348 . S
C197 H249 0.929 . S
H198 C192 0.930 . S
H199 C195 0.930 . S
C200 N201 1.314 . S
C200 C202 1.353 . S
C200 H206 0.930 . S
N201 Li177 1.990 . S
N201 C200 1.314 . S
N201 C204 1.279 . S
C202 C200 1.353 . S
C202 C205 1.348 1_565 S
C202 H250 0.929 . S
C203 C204 1.358 1_545 S
C203 C205 1.356 . S
C203 H251 0.930 . S
C204 N201 1.279 . S
C204 C203 1.358 1_565 S
C204 H207 0.930 . S
C205 C202 1.348 1_545 S
C205 C203 1.356 . S
H206 C200 0.930 . S
H207 C204 0.930 . S
C208 C210 1.348 . S
C208 C211 1.356 . S
C208 O238 1.325 . S
N209 C212 1.314 . S
N209 C213 1.279 . S
C210 C208 1.348 . S
C210 C212 1.353 . S
C210 H252 0.929 . S
C211 C208 1.356 . S
C211 C213 1.358 . S
C211 H253 0.930 . S
C212 N209 1.314 . S
C212 C210 1.353 . S
C212 H254 0.930 . S
C213 N209 1.279 . S
C213 C211 1.358 . S
C213 H255 0.930 . S
C214 C215 1.348 . S
C214 C216 1.356 . S
C214 O239 1.325 . S
C215 C214 1.348 . S
C215 C217 1.353 . S
C215 H256 0.929 . S
C216 C214 1.356 . S
C216 C218 1.358 . S
C216 H257 0.930 . S
C217 C215 1.353 . S
C217 N219 1.314 . S
C217 H258 0.930 . S
C218 C216 1.358 . S
C218 N219 1.279 . S
C218 H259 0.930 . S
N219 C217 1.314 . S
N219 C218 1.279 . S
C220 C222 1.353 . S
C220 N223 1.314 . S
C220 H226 0.930 . S
C221 N223 1.279 . S
C221 C224 1.358 . S
C221 H227 0.930 . S
C222 C220 1.353 . S
C222 C225 1.348 . S
C222 H260 0.929 . S
N223 Li178 1.990 . S
N223 C220 1.314 . S
N223 C221 1.279 . S
C224 C221 1.358 . S
C224 C225 1.356 . S
C224 H261 0.930 . S
C225 C222 1.348 . S
C225 C224 1.356 . S
H226 C220 0.930 . S
H227 C221 0.930 . S
C228 N229 1.314 . S
C228 C230 1.353 . S
C228 H234 0.930 . S
N229 Li179 1.990 . S
N229 C228 1.314 . S
N229 C232 1.279 . S
C230 C228 1.353 . S
C230 C233 1.348 . S
C230 H262 0.929 . S
C231 C232 1.358 . S
C231 C233 1.356 . S
C231 H263 0.930 . S
C232 N229 1.279 . S
C232 C231 1.358 . S
C232 H235 0.930 . S
C233 C230 1.348 . S
C233 C231 1.356 . S
H234 C228 0.930 . S
H235 C232 0.930 . S
O236 Li176 1.956 . S
O236 Li177 1.970 . S
O236 Li178 1.961 . S
O236 C180 1.325 . S
O237 Li176 1.970 . S
O237 Li177 1.956 . S
O237 Li179 1.961 . S
O237 C186 1.325 . S
O238 Li176 1.961 . S
O238 Li178 1.956 . S
O238 Li179 1.970 . S
O238 C208 1.325 . S
O239 Li177 1.961 . S
O239 Li178 1.970 . S
O239 Li179 1.956 . S
O239 C214 1.325 . S
H240 C182 0.929 . S
H241 C183 0.930 . S
H242 C184 0.930 . S
H243 C185 0.930 . S
H244 C187 0.930 . S
H245 C189 0.929 . S
H246 C190 0.930 . S
H247 C191 0.930 . S
H248 C194 0.930 . S
H249 C197 0.929 . S
H250 C202 0.929 . S
H251 C203 0.930 . S
H252 C210 0.929 . S
H253 C211 0.930 . S
H254 C212 0.930 . S
H255 C213 0.930 . S
H256 C215 0.929 . S
H257 C216 0.930 . S
H258 C217 0.930 . S
H259 C218 0.930 . S
H260 C222 0.929 . S
H261 C224 0.930 . S
H262 C230 0.929 . S
H263 C231 0.930 . S
Li264 N281 1.990 . S
Li264 O324 1.956 . S
Li264 O325 1.970 . S
Li264 O326 1.961 . S
Li265 N289 1.990 . S
Li265 O324 1.970 . S
Li265 O325 1.956 . S
Li265 O327 1.961 . S
Li266 N311 1.990 . S
Li266 O324 1.961 . S
Li266 O326 1.956 . S
Li266 O327 1.970 . S
Li267 N317 1.990 . S
Li267 O325 1.961 . S
Li267 O326 1.970 . S
Li267 O327 1.956 . S
C268 C270 1.348 . S
C268 C271 1.356 . S
C268 O324 1.325 . S
N269 C272 1.315 1_545 S
N269 C273 1.281 1_545 S
C270 C268 1.348 . S
C270 C272 1.353 . S
C270 H328 0.929 . S
C271 C268 1.356 . S
C271 C273 1.358 . S
C271 H329 0.930 . S
C272 N269 1.315 1_565 S
C272 C270 1.353 . S
C272 H330 0.930 . S
C273 N269 1.281 1_565 S
C273 C271 1.358 . S
C273 H331 0.930 . S
C274 C277 1.348 . S
C274 C278 1.356 . S
C274 O325 1.325 . S
C275 N276 1.279 . S
C275 C278 1.358 . S
C275 H332 0.930 . S
N276 C275 1.279 . S
N276 C279 1.314 . S
C277 C274 1.348 . S
C277 C279 1.353 . S
C277 H333 0.929 . S
C278 C274 1.356 . S
C278 C275 1.358 . S
C278 H334 0.930 . S
C279 N276 1.314 . S
C279 C277 1.353 . S
C279 H335 0.930 . S
C280 N281 1.314 . S
C280 C285 1.353 . S
C280 H286 0.930 . S
N281 Li264 1.990 . S
N281 C280 1.314 . S
N281 C283 1.279 . S
C282 C283 1.358 1_545 S
C282 C284 1.356 . S
C282 H336 0.930 . S
C283 N281 1.279 . S
C283 C282 1.358 1_565 S
C283 H287 0.930 . S
C284 C282 1.356 . S
C284 C285 1.348 1_545 S
C285 C280 1.353 . S
C285 C284 1.348 1_565 S
C285 H337 0.929 . S
H286 C280 0.930 . S
H287 C283 0.930 . S
C288 N289 1.314 . S
C288 C290 1.353 . S
C288 H294 0.930 . S
N289 Li265 1.990 . S
N289 C288 1.314 . S
N289 C292 1.279 . S
C290 C288 1.353 . S
C290 C293 1.348 . S
C290 H338 0.929 . S
C291 C292 1.358 . S
C291 C293 1.356 . S
C291 H339 0.930 . S
C292 N289 1.279 . S
C292 C291 1.358 . S
C292 H295 0.930 . S
C293 C290 1.348 . S
C293 C291 1.356 . S
H294 C288 0.930 . S
H295 C292 0.930 . S
C296 C298 1.348 . S
C296 C299 1.356 . S
C296 O326 1.325 . S
N297 C300 1.314 . S
N297 C301 1.279 . S
C298 C296 1.348 . S
C298 C300 1.353 . S
C298 H340 0.929 . S
C299 C296 1.356 . S
C299 C301 1.358 . S
C299 H341 0.930 . S
C300 N297 1.314 . S
C300 C298 1.353 . S
C300 H342 0.930 . S
C301 N297 1.279 . S
C301 C299 1.358 . S
C301 H343 0.930 . S
C302 C303 1.348 . S
C302 C304 1.356 . S
C302 O327 1.325 . S
C303 C302 1.348 . S
C303 C305 1.353 . S
C303 H344 0.929 . S
C304 C302 1.356 . S
C304 C306 1.358 . S
C304 H345 0.930 . S
C305 C303 1.353 . S
C305 N307 1.314 . S
C305 H346 0.930 . S
C306 C304 1.358 . S
C306 N307 1.279 . S
C306 H347 0.930 . S
N307 C305 1.314 . S
N307 C306 1.279 . S
C308 C310 1.353 . S
C308 N311 1.314 . S
C308 H314 0.930 . S
C309 N311 1.279 . S
C309 C312 1.358 . S
C309 H315 0.930 . S
C310 C308 1.353 . S
C310 C313 1.348 . S
C310 H348 0.929 . S
N311 Li266 1.990 . S
N311 C308 1.314 . S
N311 C309 1.279 . S
C312 C309 1.358 . S
C312 C313 1.356 . S
C312 H349 0.930 . S
C313 C310 1.348 . S
C313 C312 1.356 . S
H314 C308 0.930 . S
H315 C309 0.930 . S
C316 N317 1.314 . S
C316 C318 1.353 . S
C316 H322 0.930 . S
N317 Li267 1.990 . S
N317 C316 1.314 . S
N317 C320 1.279 . S
C318 C316 1.353 . S
C318 C321 1.348 . S
C318 H350 0.929 . S
C319 C320 1.358 . S
C319 C321 1.356 . S
C319 H351 0.930 . S
C320 N317 1.279 . S
C320 C319 1.358 . S
C320 H323 0.930 . S
C321 C318 1.348 . S
C321 C319 1.356 . S
H322 C316 0.930 . S
H323 C320 0.930 . S
O324 Li264 1.956 . S
O324 Li265 1.970 . S
O324 Li266 1.961 . S
O324 C268 1.325 . S
O325 Li264 1.970 . S
O325 Li265 1.956 . S
O325 Li267 1.961 . S
O325 C274 1.325 . S
O326 Li264 1.961 . S
O326 Li266 1.956 . S
O326 Li267 1.970 . S
O326 C296 1.325 . S
O327 Li265 1.961 . S
O327 Li266 1.970 . S
O327 Li267 1.956 . S
O327 C302 1.325 . S
H328 C270 0.929 . S
H329 C271 0.930 . S
H330 C272 0.930 . S
H331 C273 0.930 . S
H332 C275 0.930 . S
H333 C277 0.929 . S
H334 C278 0.930 . S
H335 C279 0.930 . S
H336 C282 0.930 . S
H337 C285 0.929 . S
H338 C290 0.929 . S
H339 C291 0.930 . S
H340 C298 0.929 . S
H341 C299 0.930 . S
H342 C300 0.930 . S
H343 C301 0.930 . S
H344 C303 0.929 . S
H345 C304 0.930 . S
H346 C305 0.930 . S
H347 C306 0.930 . S
H348 C310 0.929 . S
H349 C312 0.930 . S
H350 C318 0.929 . S
H351 C319 0.930 . S
Li352 N369 1.990 . S
Li352 O412 1.956 . S
Li352 O413 1.970 . S
Li352 O414 1.961 . S
Li353 N377 1.990 . S
Li353 O412 1.970 . S
Li353 O413 1.956 . S
Li353 O415 1.961 . S
Li354 N399 1.990 . S
Li354 O412 1.961 . S
Li354 O414 1.956 . S
Li354 O415 1.970 . S
Li355 N405 1.990 . S
Li355 O413 1.961 . S
Li355 O414 1.970 . S
Li355 O415 1.956 . S
C356 C358 1.348 . S
C356 C359 1.356 . S
C356 O412 1.325 . S
N357 C360 1.314 . S
N357 C361 1.279 . S
C358 C356 1.348 . S
C358 C360 1.353 . S
C358 H416 0.929 . S
C359 C356 1.356 . S
C359 C361 1.358 . S
C359 H417 0.930 . S
C360 N357 1.314 . S
C360 C358 1.353 . S
C360 H418 0.930 . S
C361 N357 1.279 . S
C361 C359 1.358 . S
C361 H419 0.930 . S
C362 C365 1.348 . S
C362 C366 1.356 . S
C362 O413 1.325 . S
C363 N364 1.279 . S
C363 C366 1.358 . S
C363 H420 0.930 . S
N364 C363 1.279 . S
N364 C367 1.314 . S
C365 C362 1.348 . S
C365 C367 1.353 . S
C365 H421 0.929 . S
C366 C362 1.356 . S
C366 C363 1.358 . S
C366 H422 0.930 . S
C367 N364 1.314 . S
C367 C365 1.353 . S
C367 H423 0.930 . S
C368 N369 1.314 . S
C368 C373 1.353 . S
C368 H374 0.930 . S
N369 Li352 1.990 . S
N369 C368 1.314 . S
N369 C371 1.279 . S
C370 C371 1.358 . S
C370 C372 1.356 . S
C370 H424 0.930 . S
C371 N369 1.279 . S
C371 C370 1.358 . S
C371 H375 0.930 . S
C372 C370 1.356 . S
C372 C373 1.348 . S
C373 C368 1.353 . S
C373 C372 1.348 . S
C373 H425 0.929 . S
H374 C368 0.930 . S
H375 C371 0.930 . S
C376 N377 1.314 . S
C376 C378 1.353 . S
C376 H382 0.930 . S
N377 Li353 1.990 . S
N377 C376 1.314 . S
N377 C380 1.279 . S
C378 C376 1.353 . S
C378 C381 1.348 . S
C378 H426 0.929 . S
C379 C380 1.358 . S
C379 C381 1.356 . S
C379 H427 0.930 . S
C380 N377 1.279 . S
C380 C379 1.358 . S
C380 H383 0.930 . S
C381 C378 1.348 . S
C381 C379 1.356 . S
H382 C376 0.930 . S
H383 C380 0.930 . S
C384 C386 1.348 . S
C384 C387 1.356 . S
C384 O414 1.325 . S
N385 C388 1.314 . S
N385 C389 1.279 . S
C386 C384 1.348 . S
C386 C388 1.353 . S
C386 H428 0.929 . S
C387 C384 1.356 . S
C387 C389 1.358 . S
C387 H429 0.930 . S
C388 N385 1.314 . S
C388 C386 1.353 . S
C388 H430 0.930 . S
C389 N385 1.279 . S
C389 C387 1.358 . S
C389 H431 0.930 . S
C390 C391 1.348 . S
C390 C392 1.356 . S
C390 O415 1.325 . S
C391 C390 1.348 . S
C391 C393 1.353 . S
C391 H432 0.929 . S
C392 C390 1.356 . S
C392 C394 1.358 . S
C392 H433 0.930 . S
C393 C391 1.353 . S
C393 N395 1.314 . S
C393 H434 0.930 . S
C394 C392 1.358 . S
C394 N395 1.279 . S
C394 H435 0.930 . S
N395 C393 1.314 . S
N395 C394 1.279 . S
C396 C398 1.353 . S
C396 N399 1.314 . S
C396 H402 0.930 . S
C397 N399 1.279 . S
C397 C400 1.358 . S
C397 H403 0.930 . S
C398 C396 1.353 . S
C398 C401 1.348 . S
C398 H436 0.929 . S
N399 Li354 1.990 . S
N399 C396 1.314 . S
N399 C397 1.279 . S
C400 C397 1.358 . S
C400 C401 1.356 . S
C400 H437 0.930 . S
C401 C398 1.348 . S
C401 C400 1.356 . S
H402 C396 0.930 . S
H403 C397 0.930 . S
C404 N405 1.314 . S
C404 C406 1.353 . S
C404 H410 0.930 . S
N405 Li355 1.990 . S
N405 C404 1.314 . S
N405 C408 1.279 . S
C406 C404 1.353 . S
C406 C409 1.348 . S
C406 H438 0.929 . S
C407 C408 1.358 . S
C407 C409 1.356 . S
C407 H439 0.930 . S
C408 N405 1.279 . S
C408 C407 1.358 . S
C408 H411 0.930 . S
C409 C406 1.348 . S
C409 C407 1.356 . S
H410 C404 0.930 . S
H411 C408 0.930 . S
O412 Li352 1.956 . S
O412 Li353 1.970 . S
O412 Li354 1.961 . S
O412 C356 1.325 . S
O413 Li352 1.970 . S
O413 Li353 1.956 . S
O413 Li355 1.961 . S
O413 C362 1.325 . S
O414 Li352 1.961 . S
O414 Li354 1.956 . S
O414 Li355 1.970 . S
O414 C384 1.325 . S
O415 Li353 1.961 . S
O415 Li354 1.970 . S
O415 Li355 1.956 . S
O415 C390 1.325 . S
H416 C358 0.929 . S
H417 C359 0.930 . S
H418 C360 0.930 . S
H419 C361 0.930 . S
H420 C363 0.930 . S
H421 C365 0.929 . S
H422 C366 0.930 . S
H423 C367 0.930 . S
H424 C370 0.930 . S
H425 C373 0.929 . S
H426 C378 0.929 . S
H427 C379 0.930 . S
H428 C386 0.929 . S
H429 C387 0.930 . S
H430 C388 0.930 . S
H431 C389 0.930 . S
H432 C391 0.929 . S
H433 C392 0.930 . S
H434 C393 0.930 . S
H435 C394 0.930 . S
H436 C398 0.929 . S
H437 C400 0.930 . S
H438 C406 0.929 . S
H439 C407 0.930 . S
Li440 N457 1.990 . S
Li440 O500 1.956 . S
Li440 O501 1.970 . S
Li440 O502 1.961 . S
Li441 N465 1.990 . S
Li441 O500 1.970 . S
Li441 O501 1.956 . S
Li441 O503 1.961 . S
Li442 N487 1.990 . S
Li442 O500 1.961 . S
Li442 O502 1.956 . S
Li442 O503 1.970 . S
Li443 N493 1.990 . S
Li443 O501 1.961 . S
Li443 O502 1.970 . S
Li443 O503 1.956 . S
C444 C446 1.348 . S
C444 C447 1.356 . S
C444 O500 1.325 . S
N445 C448 1.314 . S
N445 C449 1.279 . S
C446 C444 1.348 . S
C446 C448 1.353 . S
C446 H504 0.929 . S
C447 C444 1.356 . S
C447 C449 1.358 . S
C447 H505 0.930 . S
C448 N445 1.314 . S
C448 C446 1.353 . S
C448 H506 0.930 . S
C449 N445 1.279 . S
C449 C447 1.358 . S
C449 H507 0.930 . S
C450 C453 1.348 . S
C450 C454 1.356 . S
C450 O501 1.325 . S
C451 N452 1.279 . S
C451 C454 1.358 . S
C451 H508 0.930 . S
N452 C451 1.279 . S
N452 C455 1.314 . S
C453 C450 1.348 . S
C453 C455 1.353 . S
C453 H509 0.929 . S
C454 C450 1.356 . S
C454 C451 1.358 . S
C454 H510 0.930 . S
C455 N452 1.314 . S
C455 C453 1.353 . S
C455 H511 0.930 . S
C456 N457 1.314 . S
C456 C461 1.353 . S
C456 H462 0.930 . S
N457 Li440 1.990 . S
N457 C456 1.314 . S
N457 C459 1.279 . S
C458 C459 1.358 . S
C458 C460 1.356 . S
C458 H512 0.930 . S
C459 N457 1.279 . S
C459 C458 1.358 . S
C459 H463 0.930 . S
C460 C458 1.356 . S
C460 C461 1.348 . S
C461 C456 1.353 . S
C461 C460 1.348 . S
C461 H513 0.929 . S
H462 C456 0.930 . S
H463 C459 0.930 . S
C464 N465 1.314 . S
C464 C466 1.353 . S
C464 H470 0.930 . S
N465 Li441 1.990 . S
N465 C464 1.314 . S
N465 C468 1.279 . S
C466 C464 1.353 . S
C466 C469 1.348 . S
C466 H514 0.929 . S
C467 C468 1.358 . S
C467 C469 1.356 . S
C467 H515 0.930 . S
C468 N465 1.279 . S
C468 C467 1.358 . S
C468 H471 0.930 . S
C469 C466 1.348 . S
C469 C467 1.356 . S
H470 C464 0.930 . S
H471 C468 0.930 . S
C472 C474 1.348 . S
C472 C475 1.356 . S
C472 O502 1.325 . S
N473 C476 1.314 . S
N473 C477 1.279 . S
C474 C472 1.348 . S
C474 C476 1.353 . S
C474 H516 0.929 . S
C475 C472 1.356 . S
C475 C477 1.358 . S
C475 H517 0.930 . S
C476 N473 1.314 . S
C476 C474 1.353 . S
C476 H518 0.930 . S
C477 N473 1.279 . S
C477 C475 1.358 . S
C477 H519 0.930 . S
C478 C479 1.348 . S
C478 C480 1.356 . S
C478 O503 1.325 . S
C479 C478 1.348 . S
C479 C481 1.353 . S
C479 H520 0.929 . S
C480 C478 1.356 . S
C480 C482 1.358 . S
C480 H521 0.930 . S
C481 C479 1.353 . S
C481 N483 1.314 . S
C481 H522 0.930 . S
C482 C480 1.358 . S
C482 N483 1.279 . S
C482 H523 0.930 . S
N483 C481 1.314 . S
N483 C482 1.279 . S
C484 C486 1.353 . S
C484 N487 1.314 . S
C484 H490 0.930 . S
C485 N487 1.279 . S
C485 C488 1.358 . S
C485 H491 0.930 . S
C486 C484 1.353 . S
C486 C489 1.348 . S
C486 H524 0.929 . S
N487 Li442 1.990 . S
N487 C484 1.314 . S
N487 C485 1.279 . S
C488 C485 1.358 . S
C488 C489 1.356 . S
C488 H525 0.930 . S
C489 C486 1.348 . S
C489 C488 1.356 . S
H490 C484 0.930 . S
H491 C485 0.930 . S
C492 N493 1.314 . S
C492 C494 1.353 . S
C492 H498 0.930 . S
N493 Li443 1.990 . S
N493 C492 1.314 . S
N493 C496 1.279 . S
C494 C492 1.353 . S
C494 C497 1.348 . S
C494 H526 0.929 . S
C495 C496 1.358 . S
C495 C497 1.356 . S
C495 H527 0.930 . S
C496 N493 1.279 . S
C496 C495 1.358 . S
C496 H499 0.930 . S
C497 C494 1.348 . S
C497 C495 1.356 . S
H498 C492 0.930 . S
H499 C496 0.930 . S
O500 Li440 1.956 . S
O500 Li441 1.970 . S
O500 Li442 1.961 . S
O500 C444 1.325 . S
O501 Li440 1.970 . S
O501 Li441 1.956 . S
O501 Li443 1.961 . S
O501 C450 1.325 . S
O502 Li440 1.961 . S
O502 Li442 1.956 . S
O502 Li443 1.970 . S
O502 C472 1.325 . S
O503 Li441 1.961 . S
O503 Li442 1.970 . S
O503 Li443 1.956 . S
O503 C478 1.325 . S
H504 C446 0.929 . S
H505 C447 0.930 . S
H506 C448 0.930 . S
H507 C449 0.930 . S
H508 C451 0.930 . S
H509 C453 0.929 . S
H510 C454 0.930 . S
H511 C455 0.930 . S
H512 C458 0.930 . S
H513 C461 0.929 . S
H514 C466 0.929 . S
H515 C467 0.930 . S
H516 C474 0.929 . S
H517 C475 0.930 . S
H518 C476 0.930 . S
H519 C477 0.930 . S
H520 C479 0.929 . S
H521 C480 0.930 . S
H522 C481 0.930 . S
H523 C482 0.930 . S
H524 C486 0.929 . S
H525 C488 0.930 . S
H526 C494 0.929 . S
H527 C495 0.930 . S
Li528 N545 1.990 . S
Li528 O588 1.956 . S
Li528 O589 1.970 . S
Li528 O590 1.961 . S
Li529 N553 1.990 . S
Li529 O588 1.970 . S
Li529 O589 1.956 . S
Li529 O591 1.961 . S
Li530 N575 1.990 . S
Li530 O588 1.961 . S
Li530 O590 1.956 . S
Li530 O591 1.970 . S
Li531 N581 1.990 . S
Li531 O589 1.961 . S
Li531 O590 1.970 . S
Li531 O591 1.956 . S
C532 C534 1.348 . S
C532 C535 1.356 . S
C532 O588 1.325 . S
N533 C536 1.314 . S
N533 C537 1.279 . S
C534 C532 1.348 . S
C534 C536 1.353 . S
C534 H592 0.929 . S
C535 C532 1.356 . S
C535 C537 1.358 . S
C535 H593 0.930 . S
C536 N533 1.314 . S
C536 C534 1.353 . S
C536 H594 0.930 . S
C537 N533 1.279 . S
C537 C535 1.358 . S
C537 H595 0.930 . S
C538 C541 1.348 . S
C538 C542 1.356 . S
C538 O589 1.325 . S
C539 N540 1.279 . S
C539 C542 1.358 . S
C539 H596 0.930 . S
N540 C539 1.279 . S
N540 C543 1.314 . S
C541 C538 1.348 . S
C541 C543 1.353 . S
C541 H597 0.929 . S
C542 C538 1.356 . S
C542 C539 1.358 . S
C542 H598 0.930 . S
C543 N540 1.314 . S
C543 C541 1.353 . S
C543 H599 0.930 . S
C544 N545 1.314 . S
C544 C549 1.353 . S
C544 H550 0.930 . S
N545 Li528 1.990 . S
N545 C544 1.314 . S
N545 C547 1.279 . S
C546 C547 1.358 . S
C546 C548 1.356 . S
C546 H600 0.930 . S
C547 N545 1.279 . S
C547 C546 1.358 . S
C547 H551 0.930 . S
C548 C546 1.356 . S
C548 C549 1.348 . S
C549 C544 1.353 . S
C549 C548 1.348 . S
C549 H601 0.929 . S
H550 C544 0.930 . S
H551 C547 0.930 . S
C552 N553 1.314 . S
C552 C554 1.353 . S
C552 H558 0.930 . S
N553 Li529 1.990 . S
N553 C552 1.314 . S
N553 C556 1.279 . S
C554 C552 1.353 . S
C554 C557 1.348 . S
C554 H602 0.929 . S
C555 C556 1.358 . S
C555 C557 1.356 . S
C555 H603 0.930 . S
C556 N553 1.279 . S
C556 C555 1.358 . S
C556 H559 0.930 . S
C557 C554 1.348 . S
C557 C555 1.356 . S
H558 C552 0.930 . S
H559 C556 0.930 . S
C560 C562 1.348 . S
C560 C563 1.356 . S
C560 O590 1.325 . S
N561 C564 1.314 . S
N561 C565 1.279 . S
C562 C560 1.348 . S
C562 C564 1.353 . S
C562 H604 0.929 . S
C563 C560 1.356 . S
C563 C565 1.358 . S
C563 H605 0.930 . S
C564 N561 1.314 . S
C564 C562 1.353 . S
C564 H606 0.930 . S
C565 N561 1.279 . S
C565 C563 1.358 . S
C565 H607 0.930 . S
C566 C567 1.348 . S
C566 C568 1.356 . S
C566 O591 1.325 . S
C567 C566 1.348 . S
C567 C569 1.353 . S
C567 H608 0.929 . S
C568 C566 1.356 . S
C568 C570 1.358 . S
C568 H609 0.930 . S
C569 C567 1.353 . S
C569 N571 1.314 . S
C569 H610 0.930 . S
C570 C568 1.358 . S
C570 N571 1.279 . S
C570 H611 0.930 . S
N571 C569 1.314 . S
N571 C570 1.279 . S
C572 C574 1.353 . S
C572 N575 1.314 . S
C572 H578 0.930 . S
C573 N575 1.279 . S
C573 C576 1.358 . S
C573 H579 0.930 . S
C574 C572 1.353 . S
C574 C577 1.348 . S
C574 H612 0.929 . S
N575 Li530 1.990 . S
N575 C572 1.314 . S
N575 C573 1.279 . S
C576 C573 1.358 . S
C576 C577 1.356 . S
C576 H613 0.930 . S
C577 C574 1.348 . S
C577 C576 1.356 . S
H578 C572 0.930 . S
H579 C573 0.930 . S
C580 N581 1.314 . S
C580 C582 1.353 . S
C580 H586 0.930 . S
N581 Li531 1.990 . S
N581 C580 1.314 . S
N581 C584 1.279 . S
C582 C580 1.353 . S
C582 C585 1.348 . S
C582 H614 0.929 . S
C583 C584 1.358 . S
C583 C585 1.356 . S
C583 H615 0.930 . S
C584 N581 1.279 . S
C584 C583 1.358 . S
C584 H587 0.930 . S
C585 C582 1.348 . S
C585 C583 1.356 . S
H586 C580 0.930 . S
H587 C584 0.930 . S
O588 Li528 1.956 . S
O588 Li529 1.970 . S
O588 Li530 1.961 . S
O588 C532 1.325 . S
O589 Li528 1.970 . S
O589 Li529 1.956 . S
O589 Li531 1.961 . S
O589 C538 1.325 . S
O590 Li528 1.961 . S
O590 Li530 1.956 . S
O590 Li531 1.970 . S
O590 C560 1.325 . S
O591 Li529 1.961 . S
O591 Li530 1.970 . S
O591 Li531 1.956 . S
O591 C566 1.325 . S
H592 C534 0.929 . S
H593 C535 0.930 . S
H594 C536 0.930 . S
H595 C537 0.930 . S
H596 C539 0.930 . S
H597 C541 0.929 . S
H598 C542 0.930 . S
H599 C543 0.930 . S
H600 C546 0.930 . S
H601 C549 0.929 . S
H602 C554 0.929 . S
H603 C555 0.930 . S
H604 C562 0.929 . S
H605 C563 0.930 . S
H606 C564 0.930 . S
H607 C565 0.930 . S
H608 C567 0.929 . S
H609 C568 0.930 . S
H610 C569 0.930 . S
H611 C570 0.930 . S
H612 C574 0.929 . S
H613 C576 0.930 . S
H614 C582 0.929 . S
H615 C583 0.930 . S
Li616 N633 1.990 . S
Li616 O676 1.956 . S
Li616 O677 1.970 . S
Li616 O678 1.961 . S
Li617 N641 1.990 . S
Li617 O676 1.970 . S
Li617 O677 1.956 . S
Li617 O679 1.961 . S
Li618 N663 1.990 . S
Li618 O676 1.961 . S
Li618 O678 1.956 . S
Li618 O679 1.970 . S
Li619 N669 1.990 . S
Li619 O677 1.961 . S
Li619 O678 1.970 . S
Li619 O679 1.956 . S
C620 C622 1.348 . S
C620 C623 1.356 . S
C620 O676 1.325 . S
N621 C624 1.314 . S
N621 C625 1.279 . S
C622 C620 1.348 . S
C622 C624 1.353 . S
C622 H680 0.929 . S
C623 C620 1.356 . S
C623 C625 1.358 . S
C623 H681 0.930 . S
C624 N621 1.314 . S
C624 C622 1.353 . S
C624 H682 0.930 . S
C625 N621 1.279 . S
C625 C623 1.358 . S
C625 H683 0.930 . S
C626 C629 1.348 . S
C626 C630 1.356 . S
C626 O677 1.325 . S
C627 N628 1.279 . S
C627 C630 1.358 . S
C627 H684 0.930 . S
N628 C627 1.279 . S
N628 C631 1.314 . S
C629 C626 1.348 . S
C629 C631 1.353 . S
C629 H685 0.929 . S
C630 C626 1.356 . S
C630 C627 1.358 . S
C630 H686 0.930 . S
C631 N628 1.314 . S
C631 C629 1.353 . S
C631 H687 0.930 . S
C632 N633 1.314 . S
C632 C637 1.353 . S
C632 H638 0.930 . S
N633 Li616 1.990 . S
N633 C632 1.314 . S
N633 C635 1.279 . S
C634 C635 1.358 . S
C634 C636 1.356 . S
C634 H688 0.930 . S
C635 N633 1.279 . S
C635 C634 1.358 . S
C635 H639 0.930 . S
C636 C634 1.356 . S
C636 C637 1.348 . S
C637 C632 1.353 . S
C637 C636 1.348 . S
C637 H689 0.929 . S
H638 C632 0.930 . S
H639 C635 0.930 . S
C640 N641 1.314 . S
C640 C642 1.353 . S
C640 H646 0.930 . S
N641 Li617 1.990 . S
N641 C640 1.314 . S
N641 C644 1.279 . S
C642 C640 1.353 . S
C642 C645 1.348 . S
C642 H690 0.929 . S
C643 C644 1.358 . S
C643 C645 1.356 . S
C643 H691 0.930 . S
C644 N641 1.279 . S
C644 C643 1.358 . S
C644 H647 0.930 . S
C645 C642 1.348 . S
C645 C643 1.356 . S
H646 C640 0.930 . S
H647 C644 0.930 . S
C648 C650 1.348 . S
C648 C651 1.356 . S
C648 O678 1.325 . S
N649 C652 1.314 . S
N649 C653 1.279 . S
C650 C648 1.348 . S
C650 C652 1.353 . S
C650 H692 0.929 . S
C651 C648 1.356 . S
C651 C653 1.358 . S
C651 H693 0.930 . S
C652 N649 1.314 . S
C652 C650 1.353 . S
C652 H694 0.930 . S
C653 N649 1.279 . S
C653 C651 1.358 . S
C653 H695 0.930 . S
C654 C655 1.348 . S
C654 C656 1.356 . S
C654 O679 1.325 . S
C655 C654 1.348 . S
C655 C657 1.353 . S
C655 H696 0.929 . S
C656 C654 1.356 . S
C656 C658 1.358 . S
C656 H697 0.930 . S
C657 C655 1.353 . S
C657 N659 1.314 . S
C657 H698 0.930 . S
C658 C656 1.358 . S
C658 N659 1.279 . S
C658 H699 0.930 . S
N659 C657 1.314 . S
N659 C658 1.279 . S
C660 C662 1.353 . S
C660 N663 1.314 . S
C660 H666 0.930 . S
C661 N663 1.279 . S
C661 C664 1.358 . S
C661 H667 0.930 . S
C662 C660 1.353 . S
C662 C665 1.348 . S
C662 H700 0.929 . S
N663 Li618 1.990 . S
N663 C660 1.314 . S
N663 C661 1.279 . S
C664 C661 1.358 . S
C664 C665 1.356 . S
C664 H701 0.930 . S
C665 C662 1.348 . S
C665 C664 1.356 . S
H666 C660 0.930 . S
H667 C661 0.930 . S
C668 N669 1.314 . S
C668 C670 1.353 . S
C668 H674 0.930 . S
N669 Li619 1.990 . S
N669 C668 1.314 . S
N669 C672 1.279 . S
C670 C668 1.353 . S
C670 C673 1.348 . S
C670 H702 0.929 . S
C671 C672 1.358 . S
C671 C673 1.356 . S
C671 H703 0.930 . S
C672 N669 1.279 . S
C672 C671 1.358 . S
C672 H675 0.930 . S
C673 C670 1.348 . S
C673 C671 1.356 . S
H674 C668 0.930 . S
H675 C672 0.930 . S
O676 Li616 1.956 . S
O676 Li617 1.970 . S
O676 Li618 1.961 . S
O676 C620 1.325 . S
O677 Li616 1.970 . S
O677 Li617 1.956 . S
O677 Li619 1.961 . S
O677 C626 1.325 . S
O678 Li616 1.961 . S
O678 Li618 1.956 . S
O678 Li619 1.970 . S
O678 C648 1.325 . S
O679 Li617 1.961 . S
O679 Li618 1.970 . S
O679 Li619 1.956 . S
O679 C654 1.325 . S
H680 C622 0.929 . S
H681 C623 0.930 . S
H682 C624 0.930 . S
H683 C625 0.930 . S
H684 C627 0.930 . S
H685 C629 0.929 . S
H686 C630 0.930 . S
H687 C631 0.930 . S
H688 C634 0.930 . S
H689 C637 0.929 . S
H690 C642 0.929 . S
H691 C643 0.930 . S
H692 C650 0.929 . S
H693 C651 0.930 . S
H694 C652 0.930 . S
H695 C653 0.930 . S
H696 C655 0.929 . S
H697 C656 0.930 . S
H698 C657 0.930 . S
H699 C658 0.930 . S
H700 C662 0.929 . S
H701 C664 0.930 . S
H702 C670 0.929 . S
H703 C671 0.930 . S
Li704 N721 1.990 . S
Li704 O764 1.956 . S
Li704 O765 1.970 . S
Li704 O766 1.961 . S
Li705 N729 1.990 . S
Li705 O764 1.970 . S
Li705 O765 1.956 . S
Li705 O767 1.961 . S
Li706 N751 1.990 . S
Li706 O764 1.961 . S
Li706 O766 1.956 . S
Li706 O767 1.970 . S
Li707 N757 1.990 . S
Li707 O765 1.961 . S
Li707 O766 1.970 . S
Li707 O767 1.956 . S
C708 C710 1.348 . S
C708 C711 1.356 . S
C708 O764 1.325 . S
N709 C712 1.314 . S
N709 C713 1.279 . S
C710 C708 1.348 . S
C710 C712 1.353 . S
C710 H768 0.929 . S
C711 C708 1.356 . S
C711 C713 1.358 . S
C711 H769 0.930 . S
C712 N709 1.314 . S
C712 C710 1.353 . S
C712 H770 0.930 . S
C713 N709 1.279 . S
C713 C711 1.358 . S
C713 H771 0.930 . S
C714 C717 1.348 . S
C714 C718 1.356 . S
C714 O765 1.325 . S
C715 N716 1.279 . S
C715 C718 1.358 . S
C715 H772 0.930 1_545 S
N716 C715 1.279 . S
N716 C719 1.314 . S
C717 C714 1.348 . S
C717 C719 1.353 . S
C717 H773 0.929 . S
C718 C714 1.356 . S
C718 C715 1.358 . S
C718 H774 0.930 . S
C719 N716 1.314 . S
C719 C717 1.353 . S
C719 H775 0.930 . S
C720 N721 1.314 . S
C720 C725 1.353 . S
C720 H726 0.930 . S
N721 Li704 1.990 . S
N721 C720 1.314 . S
N721 C723 1.279 . S
C722 C723 1.358 . S
C722 C724 1.356 . S
C722 H776 0.930 . S
C723 N721 1.279 . S
C723 C722 1.358 . S
C723 H727 0.930 . S
C724 C722 1.356 . S
C724 C725 1.348 . S
C725 C720 1.353 . S
C725 C724 1.348 . S
C725 H777 0.929 . S
H726 C720 0.930 . S
H727 C723 0.930 . S
C728 N729 1.314 . S
C728 C730 1.353 . S
C728 H734 0.930 . S
N729 Li705 1.990 . S
N729 C728 1.314 . S
N729 C732 1.279 . S
C730 C728 1.353 . S
C730 C733 1.348 . S
C730 H778 0.929 . S
C731 C732 1.358 . S
C731 C733 1.356 . S
C731 H779 0.930 . S
C732 N729 1.279 . S
C732 C731 1.358 . S
C732 H735 0.930 . S
C733 C730 1.348 . S
C733 C731 1.356 . S
H734 C728 0.930 . S
H735 C732 0.930 . S
C736 C738 1.348 . S
C736 C739 1.356 . S
C736 O766 1.325 . S
N737 C740 1.314 . S
N737 C741 1.279 . S
C738 C736 1.348 . S
C738 C740 1.353 . S
C738 H780 0.929 . S
C739 C736 1.356 . S
C739 C741 1.358 . S
C739 H781 0.930 . S
C740 N737 1.314 . S
C740 C738 1.353 . S
C740 H782 0.930 . S
C741 N737 1.279 . S
C741 C739 1.358 . S
C741 H783 0.930 . S
C742 C743 1.348 . S
C742 C744 1.356 . S
C742 O767 1.325 . S
C743 C742 1.348 . S
C743 C745 1.353 . S
C743 H784 0.929 . S
C744 C742 1.356 . S
C744 C746 1.358 . S
C744 H785 0.930 . S
C745 C743 1.353 . S
C745 N747 1.314 . S
C745 H786 0.930 . S
C746 C744 1.358 . S
C746 N747 1.279 . S
C746 H787 0.930 . S
N747 C745 1.314 . S
N747 C746 1.279 . S
C748 C750 1.353 . S
C748 N751 1.314 . S
C748 H754 0.930 . S
C749 N751 1.279 . S
C749 C752 1.358 . S
C749 H755 0.930 . S
C750 C748 1.353 . S
C750 C753 1.348 . S
C750 H788 0.929 . S
N751 Li706 1.990 . S
N751 C748 1.314 . S
N751 C749 1.279 . S
C752 C749 1.358 . S
C752 C753 1.356 . S
C752 H789 0.930 . S
C753 C750 1.348 . S
C753 C752 1.356 . S
H754 C748 0.930 . S
H755 C749 0.930 . S
C756 N757 1.314 . S
C756 C758 1.353 1_545 S
C756 H762 0.930 . S
N757 Li707 1.990 . S
N757 C756 1.314 . S
N757 C760 1.279 . S
C758 C756 1.353 1_565 S
C758 C761 1.348 . S
C758 H790 0.929 . S
C759 C760 1.358 . S
C759 C761 1.356 1_545 S
C759 H791 0.930 . S
C760 N757 1.279 . S
C760 C759 1.358 . S
C760 H763 0.930 . S
C761 C758 1.348 . S
C761 C759 1.356 1_565 S
H762 C756 0.930 . S
H763 C760 0.930 . S
O764 Li704 1.956 . S
O764 Li705 1.970 . S
O764 Li706 1.961 . S
O764 C708 1.325 . S
O765 Li704 1.970 . S
O765 Li705 1.956 . S
O765 Li707 1.961 . S
O765 C714 1.325 . S
O766 Li704 1.961 . S
O766 Li706 1.956 . S
O766 Li707 1.970 . S
O766 C736 1.325 . S
O767 Li705 1.961 . S
O767 Li706 1.970 . S
O767 Li707 1.956 . S
O767 C742 1.325 . S
H768 C710 0.929 . S
H769 C711 0.930 . S
H770 C712 0.930 . S
H771 C713 0.930 . S
H772 C715 0.930 1_565 S
H773 C717 0.929 . S
H774 C718 0.930 . S
H775 C719 0.930 . S
H776 C722 0.930 . S
H777 C725 0.929 . S
H778 C730 0.929 . S
H779 C731 0.930 . S
H780 C738 0.929 . S
H781 C739 0.930 . S
H782 C740 0.930 . S
H783 C741 0.930 . S
H784 C743 0.929 . S
H785 C744 0.930 . S
H786 C745 0.930 . S
H787 C746 0.930 . S
H788 C750 0.929 . S
H789 C752 0.930 . S
H790 C758 0.929 . S
H791 C759 0.930 . S
Li792 N809 1.990 . S
Li792 O852 1.956 . S
Li792 O853 1.970 . S
Li792 O854 1.961 . S
Li793 N817 1.990 . S
Li793 O852 1.970 . S
Li793 O853 1.956 . S
Li793 O855 1.961 . S
Li794 N839 1.990 . S
Li794 O852 1.961 . S
Li794 O854 1.956 . S
Li794 O855 1.970 . S
Li795 N845 1.990 . S
Li795 O853 1.961 . S
Li795 O854 1.970 . S
Li795 O855 1.956 . S
C796 C798 1.348 . S
C796 C799 1.356 . S
C796 O852 1.325 . S
N797 C800 1.314 . S
N797 C801 1.279 . S
C798 C796 1.348 . S
C798 C800 1.353 . S
C798 H856 0.929 . S
C799 C796 1.356 . S
C799 C801 1.358 . S
C799 H857 0.930 . S
C800 N797 1.314 . S
C800 C798 1.353 . S
C800 H858 0.930 . S
C801 N797 1.279 . S
C801 C799 1.358 . S
C801 H859 0.930 . S
C802 C805 1.348 . S
C802 C806 1.356 . S
C802 O853 1.325 . S
C803 N804 1.279 . S
C803 C806 1.358 . S
C803 H860 0.930 . S
N804 C803 1.279 . S
N804 C807 1.314 . S
C805 C802 1.348 . S
C805 C807 1.353 . S
C805 H861 0.929 . S
C806 C802 1.356 . S
C806 C803 1.358 . S
C806 H862 0.930 . S
C807 N804 1.314 . S
C807 C805 1.353 . S
C807 H863 0.930 . S
C808 N809 1.314 . S
C808 C813 1.353 . S
C808 H814 0.930 . S
N809 Li792 1.990 . S
N809 C808 1.314 . S
N809 C811 1.279 . S
C810 C811 1.358 . S
C810 C812 1.356 . S
C810 H864 0.930 . S
C811 N809 1.279 . S
C811 C810 1.358 . S
C811 H815 0.930 . S
C812 C810 1.356 . S
C812 C813 1.348 . S
C813 C808 1.353 . S
C813 C812 1.348 . S
C813 H865 0.929 . S
H814 C808 0.930 . S
H815 C811 0.930 . S
C816 N817 1.314 . S
C816 C818 1.353 1_545 S
C816 H822 0.930 . S
N817 Li793 1.990 . S
N817 C816 1.314 . S
N817 C820 1.279 . S
C818 C816 1.353 1_565 S
C818 C821 1.348 . S
C818 H866 0.929 . S
C819 C820 1.358 . S
C819 C821 1.356 1_545 S
C819 H867 0.930 . S
C820 N817 1.279 . S
C820 C819 1.358 . S
C820 H823 0.930 . S
C821 C818 1.348 . S
C821 C819 1.356 1_565 S
H822 C816 0.930 . S
H823 C820 0.930 . S
C824 C826 1.348 . S
C824 C827 1.356 . S
C824 O854 1.325 . S
N825 C828 1.314 . S
N825 C829 1.279 . S
C826 C824 1.348 . S
C826 C828 1.353 . S
C826 H868 0.929 . S
C827 C824 1.356 . S
C827 C829 1.358 . S
C827 H869 0.930 . S
C828 N825 1.314 . S
C828 C826 1.353 . S
C828 H870 0.930 . S
C829 N825 1.279 . S
C829 C827 1.358 . S
C829 H871 0.930 . S
C830 C831 1.348 . S
C830 C832 1.356 . S
C830 O855 1.325 . S
C831 C830 1.348 . S
C831 C833 1.353 . S
C831 H872 0.929 . S
C832 C830 1.356 . S
C832 C834 1.358 . S
C832 H873 0.930 . S
C833 C831 1.353 . S
C833 N835 1.314 . S
C833 H874 0.930 . S
C834 C832 1.358 . S
C834 N835 1.279 . S
C834 H875 0.930 1_545 S
N835 C833 1.314 . S
N835 C834 1.279 . S
C836 C838 1.353 . S
C836 N839 1.314 . S
C836 H842 0.930 . S
C837 N839 1.279 . S
C837 C840 1.358 . S
C837 H843 0.930 . S
C838 C836 1.353 . S
C838 C841 1.348 . S
C838 H876 0.929 . S
N839 Li794 1.990 . S
N839 C836 1.314 . S
N839 C837 1.279 . S
C840 C837 1.358 . S
C840 C841 1.356 . S
C840 H877 0.930 . S
C841 C838 1.348 . S
C841 C840 1.356 . S
H842 C836 0.930 . S
H843 C837 0.930 . S
C844 N845 1.314 . S
C844 C846 1.353 . S
C844 H850 0.930 . S
N845 Li795 1.990 . S
N845 C844 1.314 . S
N845 C848 1.279 . S
C846 C844 1.353 . S
C846 C849 1.348 . S
C846 H878 0.929 . S
C847 C848 1.358 . S
C847 C849 1.356 . S
C847 H879 0.930 . S
C848 N845 1.279 . S
C848 C847 1.358 . S
C848 H851 0.930 . S
C849 C846 1.348 . S
C849 C847 1.356 . S
H850 C844 0.930 . S
H851 C848 0.930 . S
O852 Li792 1.956 . S
O852 Li793 1.970 . S
O852 Li794 1.961 . S
O852 C796 1.325 . S
O853 Li792 1.970 . S
O853 Li793 1.956 . S
O853 Li795 1.961 . S
O853 C802 1.325 . S
O854 Li792 1.961 . S
O854 Li794 1.956 . S
O854 Li795 1.970 . S
O854 C824 1.325 . S
O855 Li793 1.961 . S
O855 Li794 1.970 . S
O855 Li795 1.956 . S
O855 C830 1.325 . S
H856 C798 0.929 . S
H857 C799 0.930 . S
H858 C800 0.930 . S
H859 C801 0.930 . S
H860 C803 0.930 . S
H861 C805 0.929 . S
H862 C806 0.930 . S
H863 C807 0.930 . S
H864 C810 0.930 . S
H865 C813 0.929 . S
H866 C818 0.929 . S
H867 C819 0.930 . S
H868 C826 0.929 . S
H869 C827 0.930 . S
H870 C828 0.930 . S
H871 C829 0.930 . S
H872 C831 0.929 . S
H873 C832 0.930 . S
H874 C833 0.930 . S
H875 C834 0.930 1_565 S
H876 C838 0.929 . S
H877 C840 0.930 . S
H878 C846 0.929 . S
H879 C847 0.930 . S
Li880 N897 1.990 . S
Li880 O940 1.956 . S
Li880 O941 1.970 . S
Li880 O942 1.961 . S
Li881 N905 1.990 . S
Li881 O940 1.970 . S
Li881 O941 1.956 . S
Li881 O943 1.961 . S
Li882 N927 1.990 . S
Li882 O940 1.961 . S
Li882 O942 1.956 . S
Li882 O943 1.970 . S
Li883 N933 1.990 . S
Li883 O941 1.961 . S
Li883 O942 1.970 . S
Li883 O943 1.956 . S
C884 C886 1.348 . S
C884 C887 1.356 . S
C884 O940 1.325 . S
N885 C888 1.314 . S
N885 C889 1.279 . S
C886 C884 1.348 . S
C886 C888 1.353 . S
C886 H944 0.929 . S
C887 C884 1.356 . S
C887 C889 1.358 . S
C887 H945 0.930 . S
C888 N885 1.314 . S
C888 C886 1.353 . S
C888 H946 0.930 . S
C889 N885 1.279 . S
C889 C887 1.358 . S
C889 H947 0.930 . S
C890 C893 1.348 . S
C890 C894 1.356 . S
C890 O941 1.325 . S
C891 N892 1.279 . S
C891 C894 1.358 . S
C891 H948 0.930 . S
N892 C891 1.279 . S
N892 C895 1.314 . S
C893 C890 1.348 . S
C893 C895 1.353 . S
C893 H949 0.929 . S
C894 C890 1.356 . S
C894 C891 1.358 . S
C894 H950 0.930 . S
C895 N892 1.314 . S
C895 C893 1.353 . S
C895 H951 0.930 . S
C896 N897 1.314 . S
C896 C901 1.353 . S
C896 H902 0.930 . S
N897 Li880 1.990 . S
N897 C896 1.314 . S
N897 C899 1.279 . S
C898 C899 1.358 . S
C898 C900 1.356 . S
C898 H952 0.930 . S
C899 N897 1.279 . S
C899 C898 1.358 . S
C899 H903 0.930 . S
C900 C898 1.356 . S
C900 C901 1.348 . S
C901 C896 1.353 . S
C901 C900 1.348 . S
C901 H953 0.929 . S
H902 C896 0.930 . S
H903 C899 0.930 . S
C904 N905 1.314 . S
C904 C906 1.353 . S
C904 H910 0.930 . S
N905 Li881 1.990 . S
N905 C904 1.314 . S
N905 C908 1.279 . S
C906 C904 1.353 . S
C906 C909 1.348 . S
C906 H954 0.929 . S
C907 C908 1.358 . S
C907 C909 1.356 . S
C907 H955 0.930 . S
C908 N905 1.279 . S
C908 C907 1.358 . S
C908 H911 0.930 . S
C909 C906 1.348 . S
C909 C907 1.356 . S
H910 C904 0.930 . S
H911 C908 0.930 . S
C912 C914 1.348 . S
C912 C915 1.356 . S
C912 O942 1.325 . S
N913 C916 1.315 1_545 S
N913 C917 1.281 1_545 S
C914 C912 1.348 . S
C914 C916 1.353 . S
C914 H956 0.929 . S
C915 C912 1.356 . S
C915 C917 1.358 . S
C915 H957 0.930 . S
C916 N913 1.315 1_565 S
C916 C914 1.353 . S
C916 H958 0.930 . S
C917 N913 1.281 1_565 S
C917 C915 1.358 . S
C917 H959 0.930 . S
C918 C919 1.348 . S
C918 C920 1.356 . S
C918 O943 1.325 . S
C919 C918 1.348 . S
C919 C921 1.353 . S
C919 H960 0.929 . S
C920 C918 1.356 . S
C920 C922 1.358 . S
C920 H961 0.930 . S
C921 C919 1.353 . S
C921 N923 1.314 . S
C921 H962 0.930 . S
C922 C920 1.358 . S
C922 N923 1.279 . S
C922 H963 0.930 . S
N923 C921 1.314 . S
N923 C922 1.279 . S
C924 C926 1.353 . S
C924 N927 1.314 . S
C924 H930 0.930 . S
C925 N927 1.279 . S
C925 C928 1.358 1_565 S
C925 H931 0.930 . S
C926 C924 1.353 . S
C926 C929 1.348 1_565 S
C926 H964 0.929 . S
N927 Li882 1.990 . S
N927 C924 1.314 . S
N927 C925 1.279 . S
C928 C925 1.358 1_545 S
C928 C929 1.356 . S
C928 H965 0.930 . S
C929 C926 1.348 1_545 S
C929 C928 1.356 . S
H930 C924 0.930 . S
H931 C925 0.930 . S
C932 N933 1.314 . S
C932 C934 1.353 . S
C932 H938 0.930 . S
N933 Li883 1.990 . S
N933 C932 1.314 . S
N933 C936 1.279 . S
C934 C932 1.353 . S
C934 C937 1.348 . S
C934 H966 0.929 . S
C935 C936 1.358 . S
C935 C937 1.356 . S
C935 H967 0.930 . S
C936 N933 1.279 . S
C936 C935 1.358 . S
C936 H939 0.930 . S
C937 C934 1.348 . S
C937 C935 1.356 . S
H938 C932 0.930 . S
H939 C936 0.930 . S
O940 Li880 1.956 . S
O940 Li881 1.970 . S
O940 Li882 1.961 . S
O940 C884 1.325 . S
O941 Li880 1.970 . S
O941 Li881 1.956 . S
O941 Li883 1.961 . S
O941 C890 1.325 . S
O942 Li880 1.961 . S
O942 Li882 1.956 . S
O942 Li883 1.970 . S
O942 C912 1.325 . S
O943 Li881 1.961 . S
O943 Li882 1.970 . S
O943 Li883 1.956 . S
O943 C918 1.325 . S
H944 C886 0.929 . S
H945 C887 0.930 . S
H946 C888 0.930 . S
H947 C889 0.930 . S
H948 C891 0.930 . S
H949 C893 0.929 . S
H950 C894 0.930 . S
H951 C895 0.930 . S
H952 C898 0.930 . S
H953 C901 0.929 . S
H954 C906 0.929 . S
H955 C907 0.930 . S
H956 C914 0.929 . S
H957 C915 0.930 . S
H958 C916 0.930 . S
H959 C917 0.930 . S
H960 C919 0.929 . S
H961 C920 0.930 . S
H962 C921 0.930 . S
H963 C922 0.930 . S
H964 C926 0.929 . S
H965 C928 0.930 . S
H966 C934 0.929 . S
H967 C935 0.930 . S
Li968 N985 1.990 . S
Li968 O1028 1.956 . S
Li968 O1029 1.970 . S
Li968 O1030 1.961 . S
Li969 N993 1.990 . S
Li969 O1028 1.970 . S
Li969 O1029 1.956 . S
Li969 O1031 1.961 . S
Li970 N1015 1.990 . S
Li970 O1028 1.961 . S
Li970 O1030 1.956 . S
Li970 O1031 1.970 . S
Li971 N1021 1.990 . S
Li971 O1029 1.961 . S
Li971 O1030 1.970 . S
Li971 O1031 1.956 . S
C972 C974 1.348 . S
C972 C975 1.356 . S
C972 O1028 1.325 . S
N973 C976 1.315 1_545 S
N973 C977 1.281 1_545 S
C974 C972 1.348 . S
C974 C976 1.353 . S
C974 H1032 0.929 . S
C975 C972 1.356 . S
C975 C977 1.358 . S
C975 H1033 0.930 . S
C976 N973 1.315 1_565 S
C976 C974 1.353 . S
C976 H1034 0.930 . S
C977 N973 1.281 1_565 S
C977 C975 1.358 . S
C977 H1035 0.930 . S
C978 C981 1.348 . S
C978 C982 1.356 . S
C978 O1029 1.325 . S
C979 N980 1.279 . S
C979 C982 1.358 . S
C979 H1036 0.930 . S
N980 C979 1.279 . S
N980 C983 1.314 . S
C981 C978 1.348 . S
C981 C983 1.353 . S
C981 H1037 0.929 . S
C982 C978 1.356 . S
C982 C979 1.358 . S
C982 H1038 0.930 . S
C983 N980 1.314 . S
C983 C981 1.353 . S
C983 H1039 0.930 . S
C984 N985 1.314 . S
C984 C989 1.353 . S
C984 H990 0.930 . S
N985 Li968 1.990 . S
N985 C984 1.314 . S
N985 C987 1.279 . S
C986 C987 1.358 1_545 S
C986 C988 1.356 . S
C986 H1040 0.930 . S
C987 N985 1.279 . S
C987 C986 1.358 1_565 S
C987 H991 0.930 . S
C988 C986 1.356 . S
C988 C989 1.348 1_545 S
C989 C984 1.353 . S
C989 C988 1.348 1_565 S
C989 H1041 0.929 . S
H990 C984 0.930 . S
H991 C987 0.930 . S
C992 N993 1.314 . S
C992 C994 1.353 . S
C992 H998 0.930 . S
N993 Li969 1.990 . S
N993 C992 1.314 . S
N993 C996 1.279 . S
C994 C992 1.353 . S
C994 C997 1.348 . S
C994 H1042 0.929 . S
C995 C996 1.358 . S
C995 C997 1.356 . S
C995 H1043 0.930 . S
C996 N993 1.279 . S
C996 C995 1.358 . S
C996 H999 0.930 . S
C997 C994 1.348 . S
C997 C995 1.356 . S
H998 C992 0.930 . S
H999 C996 0.930 . S
C1000 C1002 1.348 . S
C1000 C1003 1.356 . S
C1000 O1030 1.325 . S
N1001 C1004 1.314 . S
N1001 C1005 1.279 . S
C1002 C1000 1.348 . S
C1002 C1004 1.353 . S
C1002 H1044 0.929 . S
C1003 C1000 1.356 . S
C1003 C1005 1.358 . S
C1003 H1045 0.930 . S
C1004 N1001 1.314 . S
C1004 C1002 1.353 . S
C1004 H1046 0.930 . S
C1005 N1001 1.279 . S
C1005 C1003 1.358 . S
C1005 H1047 0.930 . S
C1006 C1007 1.348 . S
C1006 C1008 1.356 . S
C1006 O1031 1.325 . S
C1007 C1006 1.348 . S
C1007 C1009 1.353 . S
C1007 H1048 0.929 . S
C1008 C1006 1.356 . S
C1008 C1010 1.358 . S
C1008 H1049 0.930 . S
C1009 C1007 1.353 . S
C1009 N1011 1.314 . S
C1009 H1050 0.930 . S
C1010 C1008 1.358 . S
C1010 N1011 1.279 . S
C1010 H1051 0.930 . S
N1011 C1009 1.314 . S
N1011 C1010 1.279 . S
C1012 C1014 1.353 . S
C1012 N1015 1.314 . S
C1012 H1018 0.930 . S
C1013 N1015 1.279 . S
C1013 C1016 1.358 . S
C1013 H1019 0.930 . S
C1014 C1012 1.353 . S
C1014 C1017 1.348 . S
C1014 H1052 0.929 . S
N1015 Li970 1.990 . S
N1015 C1012 1.314 . S
N1015 C1013 1.279 . S
C1016 C1013 1.358 . S
C1016 C1017 1.356 . S
C1016 H1053 0.930 . S
C1017 C1014 1.348 . S
C1017 C1016 1.356 . S
H1018 C1012 0.930 . S
H1019 C1013 0.930 . S
C1020 N1021 1.314 . S
C1020 C1022 1.353 . S
C1020 H1026 0.930 . S
N1021 Li971 1.990 . S
N1021 C1020 1.314 . S
N1021 C1024 1.279 . S
C1022 C1020 1.353 . S
C1022 C1025 1.348 . S
C1022 H1054 0.929 . S
C1023 C1024 1.358 . S
C1023 C1025 1.356 . S
C1023 H1055 0.930 . S
C1024 N1021 1.279 . S
C1024 C1023 1.358 . S
C1024 H1027 0.930 . S
C1025 C1022 1.348 . S
C1025 C1023 1.356 . S
H1026 C1020 0.930 . S
H1027 C1024 0.930 . S
O1028 Li968 1.956 . S
O1028 Li969 1.970 . S
O1028 Li970 1.961 . S
O1028 C972 1.325 . S
O1029 Li968 1.970 . S
O1029 Li969 1.956 . S
O1029 Li971 1.961 . S
O1029 C978 1.325 . S
O1030 Li968 1.961 . S
O1030 Li970 1.956 . S
O1030 Li971 1.970 . S
O1030 C1000 1.325 . S
O1031 Li969 1.961 . S
O1031 Li970 1.970 . S
O1031 Li971 1.956 . S
O1031 C1006 1.325 . S
H1032 C974 0.929 . S
H1033 C975 0.930 . S
H1034 C976 0.930 . S
H1035 C977 0.930 . S
H1036 C979 0.930 . S
H1037 C981 0.929 . S
H1038 C982 0.930 . S
H1039 C983 0.930 . S
H1040 C986 0.930 . S
H1041 C989 0.929 . S
H1042 C994 0.929 . S
H1043 C995 0.930 . S
H1044 C1002 0.929 . S
H1045 C1003 0.930 . S
H1046 C1004 0.930 . S
H1047 C1005 0.930 . S
H1048 C1007 0.929 . S
H1049 C1008 0.930 . S
H1050 C1009 0.930 . S
H1051 C1010 0.930 . S
H1052 C1014 0.929 . S
H1053 C1016 0.930 . S
H1054 C1022 0.929 . S
H1055 C1023 0.930 . S
Li1056 N1073 1.990 . S
Li1056 O1116 1.956 . S
Li1056 O1117 1.970 . S
Li1056 O1118 1.961 . S
Li1057 N1081 1.990 . S
Li1057 O1116 1.970 . S
Li1057 O1117 1.956 . S
Li1057 O1119 1.961 . S
Li1058 N1103 1.990 . S
Li1058 O1116 1.961 . S
Li1058 O1118 1.956 . S
Li1058 O1119 1.970 . S
Li1059 N1109 1.990 . S
Li1059 O1117 1.961 . S
Li1059 O1118 1.970 . S
Li1059 O1119 1.956 . S
C1060 C1062 1.348 . S
C1060 C1063 1.356 . S
C1060 O1116 1.325 . S
N1061 C1064 1.314 . S
N1061 C1065 1.279 . S
C1062 C1060 1.348 . S
C1062 C1064 1.353 . S
C1062 H1120 0.929 . S
C1063 C1060 1.356 . S
C1063 C1065 1.358 . S
C1063 H1121 0.930 . S
C1064 N1061 1.314 . S
C1064 C1062 1.353 . S
C1064 H1122 0.930 . S
C1065 N1061 1.279 . S
C1065 C1063 1.358 . S
C1065 H1123 0.930 . S
C1066 C1069 1.348 . S
C1066 C1070 1.356 . S
C1066 O1117 1.325 . S
C1067 N1068 1.279 . S
C1067 C1070 1.358 . S
C1067 H1124 0.930 . S
N1068 C1067 1.279 . S
N1068 C1071 1.314 . S
C1069 C1066 1.348 . S
C1069 C1071 1.353 . S
C1069 H1125 0.929 . S
C1070 C1066 1.356 . S
C1070 C1067 1.358 . S
C1070 H1126 0.930 . S
C1071 N1068 1.314 . S
C1071 C1069 1.353 . S
C1071 H1127 0.930 . S
C1072 N1073 1.314 . S
C1072 C1077 1.353 . S
C1072 H1078 0.930 . S
N1073 Li1056 1.990 . S
N1073 C1072 1.314 . S
N1073 C1075 1.279 . S
C1074 C1075 1.358 . S
C1074 C1076 1.356 . S
C1074 H1128 0.930 . S
C1075 N1073 1.279 . S
C1075 C1074 1.358 . S
C1075 H1079 0.930 . S
C1076 C1074 1.356 . S
C1076 C1077 1.348 . S
C1077 C1072 1.353 . S
C1077 C1076 1.348 . S
C1077 H1129 0.929 . S
H1078 C1072 0.930 . S
H1079 C1075 0.930 . S
C1080 N1081 1.314 . S
C1080 C1082 1.353 . S
C1080 H1086 0.930 . S
N1081 Li1057 1.990 . S
N1081 C1080 1.314 . S
N1081 C1084 1.279 . S
C1082 C1080 1.353 . S
C1082 C1085 1.348 . S
C1082 H1130 0.929 . S
C1083 C1084 1.358 . S
C1083 C1085 1.356 . S
C1083 H1131 0.930 . S
C1084 N1081 1.279 . S
C1084 C1083 1.358 . S
C1084 H1087 0.930 . S
C1085 C1082 1.348 . S
C1085 C1083 1.356 . S
H1086 C1080 0.930 . S
H1087 C1084 0.930 . S
C1088 C1090 1.348 . S
C1088 C1091 1.356 . S
C1088 O1118 1.325 . S
N1089 C1092 1.314 . S
N1089 C1093 1.279 . S
C1090 C1088 1.348 . S
C1090 C1092 1.353 . S
C1090 H1132 0.929 . S
C1091 C1088 1.356 . S
C1091 C1093 1.358 . S
C1091 H1133 0.930 . S
C1092 N1089 1.314 . S
C1092 C1090 1.353 . S
C1092 H1134 0.930 . S
C1093 N1089 1.279 . S
C1093 C1091 1.358 . S
C1093 H1135 0.930 . S
C1094 C1095 1.348 . S
C1094 C1096 1.356 . S
C1094 O1119 1.325 . S
C1095 C1094 1.348 . S
C1095 C1097 1.353 . S
C1095 H1136 0.929 . S
C1096 C1094 1.356 . S
C1096 C1098 1.358 . S
C1096 H1137 0.930 . S
C1097 C1095 1.353 . S
C1097 N1099 1.314 . S
C1097 H1138 0.930 . S
C1098 C1096 1.358 . S
C1098 N1099 1.279 . S
C1098 H1139 0.930 . S
N1099 C1097 1.314 . S
N1099 C1098 1.279 . S
C1100 C1102 1.353 . S
C1100 N1103 1.314 . S
C1100 H1106 0.930 . S
C1101 N1103 1.279 . S
C1101 C1104 1.358 . S
C1101 H1107 0.930 . S
C1102 C1100 1.353 . S
C1102 C1105 1.348 . S
C1102 H1140 0.929 . S
N1103 Li1058 1.990 . S
N1103 C1100 1.314 . S
N1103 C1101 1.279 . S
C1104 C1101 1.358 . S
C1104 C1105 1.356 . S
C1104 H1141 0.930 . S
C1105 C1102 1.348 . S
C1105 C1104 1.356 . S
H1106 C1100 0.930 . S
H1107 C1101 0.930 . S
C1108 N1109 1.314 . S
C1108 C1110 1.353 . S
C1108 H1114 0.930 . S
N1109 Li1059 1.990 . S
N1109 C1108 1.314 . S
N1109 C1112 1.279 . S
C1110 C1108 1.353 . S
C1110 C1113 1.348 . S
C1110 H1142 0.929 . S
C1111 C1112 1.358 . S
C1111 C1113 1.356 . S
C1111 H1143 0.930 . S
C1112 N1109 1.279 . S
C1112 C1111 1.358 . S
C1112 H1115 0.930 . S
C1113 C1110 1.348 . S
C1113 C1111 1.356 . S
H1114 C1108 0.930 . S
H1115 C1112 0.930 . S
O1116 Li1056 1.956 . S
O1116 Li1057 1.970 . S
O1116 Li1058 1.961 . S
O1116 C1060 1.325 . S
O1117 Li1056 1.970 . S
O1117 Li1057 1.956 . S
O1117 Li1059 1.961 . S
O1117 C1066 1.325 . S
O1118 Li1056 1.961 . S
O1118 Li1058 1.956 . S
O1118 Li1059 1.970 . S
O1118 C1088 1.325 . S
O1119 Li1057 1.961 . S
O1119 Li1058 1.970 . S
O1119 Li1059 1.956 . S
O1119 C1094 1.325 . S
H1120 C1062 0.929 . S
H1121 C1063 0.930 . S
H1122 C1064 0.930 . S
H1123 C1065 0.930 . S
H1124 C1067 0.930 . S
H1125 C1069 0.929 . S
H1126 C1070 0.930 . S
H1127 C1071 0.930 . S
H1128 C1074 0.930 . S
H1129 C1077 0.929 . S
H1130 C1082 0.929 . S
H1131 C1083 0.930 . S
H1132 C1090 0.929 . S
H1133 C1091 0.930 . S
H1134 C1092 0.930 . S
H1135 C1093 0.930 . S
H1136 C1095 0.929 . S
H1137 C1096 0.930 . S
H1138 C1097 0.930 . S
H1139 C1098 0.930 . S
H1140 C1102 0.929 . S
H1141 C1104 0.930 . S
H1142 C1110 0.929 . S
H1143 C1111 0.930 . S
Li1144 N1161 1.990 . S
Li1144 O1204 1.956 . S
Li1144 O1205 1.970 . S
Li1144 O1206 1.961 . S
Li1145 N1169 1.990 . S
Li1145 O1204 1.970 . S
Li1145 O1205 1.956 . S
Li1145 O1207 1.961 . S
Li1146 N1191 1.990 . S
Li1146 O1204 1.961 . S
Li1146 O1206 1.956 . S
Li1146 O1207 1.970 . S
Li1147 N1197 1.990 . S
Li1147 O1205 1.961 . S
Li1147 O1206 1.970 . S
Li1147 O1207 1.956 . S
C1148 C1150 1.348 . S
C1148 C1151 1.356 . S
C1148 O1204 1.325 . S
N1149 C1152 1.314 . S
N1149 C1153 1.279 . S
C1150 C1148 1.348 . S
C1150 C1152 1.353 . S
C1150 H1208 0.929 . S
C1151 C1148 1.356 . S
C1151 C1153 1.358 . S
C1151 H1209 0.930 . S
C1152 N1149 1.314 . S
C1152 C1150 1.353 . S
C1152 H1210 0.930 . S
C1153 N1149 1.279 . S
C1153 C1151 1.358 . S
C1153 H1211 0.930 . S
C1154 C1157 1.348 . S
C1154 C1158 1.356 . S
C1154 O1205 1.325 . S
C1155 N1156 1.279 . S
C1155 C1158 1.358 . S
C1155 H1212 0.930 . S
N1156 C1155 1.279 . S
N1156 C1159 1.314 . S
C1157 C1154 1.348 . S
C1157 C1159 1.353 . S
C1157 H1213 0.929 . S
C1158 C1154 1.356 . S
C1158 C1155 1.358 . S
C1158 H1214 0.930 . S
C1159 N1156 1.314 . S
C1159 C1157 1.353 . S
C1159 H1215 0.930 . S
C1160 N1161 1.314 . S
C1160 C1165 1.353 . S
C1160 H1166 0.930 . S
N1161 Li1144 1.990 . S
N1161 C1160 1.314 . S
N1161 C1163 1.279 . S
C1162 C1163 1.358 . S
C1162 C1164 1.356 . S
C1162 H1216 0.930 . S
C1163 N1161 1.279 . S
C1163 C1162 1.358 . S
C1163 H1167 0.930 . S
C1164 C1162 1.356 . S
C1164 C1165 1.348 . S
C1165 C1160 1.353 . S
C1165 C1164 1.348 . S
C1165 H1217 0.929 . S
H1166 C1160 0.930 . S
H1167 C1163 0.930 . S
C1168 N1169 1.314 . S
C1168 C1170 1.353 . S
C1168 H1174 0.930 . S
N1169 Li1145 1.990 . S
N1169 C1168 1.314 . S
N1169 C1172 1.279 . S
C1170 C1168 1.353 . S
C1170 C1173 1.348 . S
C1170 H1218 0.929 . S
C1171 C1172 1.358 . S
C1171 C1173 1.356 . S
C1171 H1219 0.930 . S
C1172 N1169 1.279 . S
C1172 C1171 1.358 . S
C1172 H1175 0.930 . S
C1173 C1170 1.348 . S
C1173 C1171 1.356 . S
H1174 C1168 0.930 . S
H1175 C1172 0.930 . S
C1176 C1178 1.348 . S
C1176 C1179 1.356 . S
C1176 O1206 1.325 . S
N1177 C1180 1.314 . S
N1177 C1181 1.279 . S
C1178 C1176 1.348 . S
C1178 C1180 1.353 . S
C1178 H1220 0.929 . S
C1179 C1176 1.356 . S
C1179 C1181 1.358 . S
C1179 H1221 0.930 . S
C1180 N1177 1.314 . S
C1180 C1178 1.353 . S
C1180 H1222 0.930 . S
C1181 N1177 1.279 . S
C1181 C1179 1.358 . S
C1181 H1223 0.930 . S
C1182 C1183 1.348 . S
C1182 C1184 1.356 . S
C1182 O1207 1.325 . S
C1183 C1182 1.348 . S
C1183 C1185 1.353 . S
C1183 H1224 0.929 . S
C1184 C1182 1.356 . S
C1184 C1186 1.358 . S
C1184 H1225 0.930 . S
C1185 C1183 1.353 . S
C1185 N1187 1.314 . S
C1185 H1226 0.930 . S
C1186 C1184 1.358 . S
C1186 N1187 1.279 . S
C1186 H1227 0.930 . S
N1187 C1185 1.314 . S
N1187 C1186 1.279 . S
C1188 C1190 1.353 . S
C1188 N1191 1.314 . S
C1188 H1194 0.930 . S
C1189 N1191 1.279 . S
C1189 C1192 1.358 . S
C1189 H1195 0.930 . S
C1190 C1188 1.353 . S
C1190 C1193 1.348 . S
C1190 H1228 0.929 . S
N1191 Li1146 1.990 . S
N1191 C1188 1.314 . S
N1191 C1189 1.279 . S
C1192 C1189 1.358 . S
C1192 C1193 1.356 . S
C1192 H1229 0.930 . S
C1193 C1190 1.348 . S
C1193 C1192 1.356 . S
H1194 C1188 0.930 . S
H1195 C1189 0.930 . S
C1196 N1197 1.314 . S
C1196 C1198 1.353 . S
C1196 H1202 0.930 . S
N1197 Li1147 1.990 . S
N1197 C1196 1.314 . S
N1197 C1200 1.279 . S
C1198 C1196 1.353 . S
C1198 C1201 1.348 . S
C1198 H1230 0.929 . S
C1199 C1200 1.358 . S
C1199 C1201 1.356 . S
C1199 H1231 0.930 . S
C1200 N1197 1.279 . S
C1200 C1199 1.358 . S
C1200 H1203 0.930 . S
C1201 C1198 1.348 . S
C1201 C1199 1.356 . S
H1202 C1196 0.930 . S
H1203 C1200 0.930 . S
O1204 Li1144 1.956 . S
O1204 Li1145 1.970 . S
O1204 Li1146 1.961 . S
O1204 C1148 1.325 . S
O1205 Li1144 1.970 . S
O1205 Li1145 1.956 . S
O1205 Li1147 1.961 . S
O1205 C1154 1.325 . S
O1206 Li1144 1.961 . S
O1206 Li1146 1.956 . S
O1206 Li1147 1.970 . S
O1206 C1176 1.325 . S
O1207 Li1145 1.961 . S
O1207 Li1146 1.970 . S
O1207 Li1147 1.956 . S
O1207 C1182 1.325 . S
H1208 C1150 0.929 . S
H1209 C1151 0.930 . S
H1210 C1152 0.930 . S
H1211 C1153 0.930 . S
H1212 C1155 0.930 . S
H1213 C1157 0.929 . S
H1214 C1158 0.930 . S
H1215 C1159 0.930 . S
H1216 C1162 0.930 . S
H1217 C1165 0.929 . S
H1218 C1170 0.929 . S
H1219 C1171 0.930 . S
H1220 C1178 0.929 . S
H1221 C1179 0.930 . S
H1222 C1180 0.930 . S
H1223 C1181 0.930 . S
H1224 C1183 0.929 . S
H1225 C1184 0.930 . S
H1226 C1185 0.930 . S
H1227 C1186 0.930 . S
H1228 C1190 0.929 . S
H1229 C1192 0.930 . S
H1230 C1198 0.929 . S
H1231 C1199 0.930 . S
Li1232 N1249 1.990 . S
Li1232 O1292 1.956 . S
Li1232 O1293 1.970 . S
Li1232 O1294 1.961 . S
Li1233 N1257 1.990 . S
Li1233 O1292 1.970 . S
Li1233 O1293 1.956 . S
Li1233 O1295 1.961 . S
Li1234 N1279 1.990 . S
Li1234 O1292 1.961 . S
Li1234 O1294 1.956 . S
Li1234 O1295 1.970 . S
Li1235 N1285 1.990 . S
Li1235 O1293 1.961 . S
Li1235 O1294 1.970 . S
Li1235 O1295 1.956 . S
C1236 C1238 1.348 . S
C1236 C1239 1.356 . S
C1236 O1292 1.325 . S
N1237 C1240 1.314 . S
N1237 C1241 1.279 . S
C1238 C1236 1.348 . S
C1238 C1240 1.353 . S
C1238 H1296 0.929 . S
C1239 C1236 1.356 . S
C1239 C1241 1.358 . S
C1239 H1297 0.930 . S
C1240 N1237 1.314 . S
C1240 C1238 1.353 . S
C1240 H1298 0.930 . S
C1241 N1237 1.279 . S
C1241 C1239 1.358 . S
C1241 H1299 0.930 . S
C1242 C1245 1.348 . S
C1242 C1246 1.356 . S
C1242 O1293 1.325 . S
C1243 N1244 1.279 . S
C1243 C1246 1.358 . S
C1243 H1300 0.930 . S
N1244 C1243 1.279 . S
N1244 C1247 1.314 . S
C1245 C1242 1.348 . S
C1245 C1247 1.353 . S
C1245 H1301 0.929 . S
C1246 C1242 1.356 . S
C1246 C1243 1.358 . S
C1246 H1302 0.930 . S
C1247 N1244 1.314 . S
C1247 C1245 1.353 . S
C1247 H1303 0.930 . S
C1248 N1249 1.314 . S
C1248 C1253 1.353 . S
C1248 H1254 0.930 . S
N1249 Li1232 1.990 . S
N1249 C1248 1.314 . S
N1249 C1251 1.279 . S
C1250 C1251 1.358 . S
C1250 C1252 1.356 . S
C1250 H1304 0.930 . S
C1251 N1249 1.279 . S
C1251 C1250 1.358 . S
C1251 H1255 0.930 . S
C1252 C1250 1.356 . S
C1252 C1253 1.348 . S
C1253 C1248 1.353 . S
C1253 C1252 1.348 . S
C1253 H1305 0.929 . S
H1254 C1248 0.930 . S
H1255 C1251 0.930 . S
C1256 N1257 1.314 . S
C1256 C1258 1.353 . S
C1256 H1262 0.930 . S
N1257 Li1233 1.990 . S
N1257 C1256 1.314 . S
N1257 C1260 1.279 . S
C1258 C1256 1.353 . S
C1258 C1261 1.348 . S
C1258 H1306 0.929 . S
C1259 C1260 1.358 . S
C1259 C1261 1.356 . S
C1259 H1307 0.930 . S
C1260 N1257 1.279 . S
C1260 C1259 1.358 . S
C1260 H1263 0.930 . S
C1261 C1258 1.348 . S
C1261 C1259 1.356 . S
H1262 C1256 0.930 . S
H1263 C1260 0.930 . S
C1264 C1266 1.348 . S
C1264 C1267 1.356 . S
C1264 O1294 1.325 . S
N1265 C1268 1.314 . S
N1265 C1269 1.279 . S
C1266 C1264 1.348 . S
C1266 C1268 1.353 . S
C1266 H1308 0.929 . S
C1267 C1264 1.356 . S
C1267 C1269 1.358 . S
C1267 H1309 0.930 . S
C1268 N1265 1.314 . S
C1268 C1266 1.353 . S
C1268 H1310 0.930 . S
C1269 N1265 1.279 . S
C1269 C1267 1.358 . S
C1269 H1311 0.930 . S
C1270 C1271 1.348 . S
C1270 C1272 1.356 . S
C1270 O1295 1.325 . S
C1271 C1270 1.348 . S
C1271 C1273 1.353 . S
C1271 H1312 0.929 . S
C1272 C1270 1.356 . S
C1272 C1274 1.358 . S
C1272 H1313 0.930 . S
C1273 C1271 1.353 . S
C1273 N1275 1.314 . S
C1273 H1314 0.930 . S
C1274 C1272 1.358 . S
C1274 N1275 1.279 . S
C1274 H1315 0.930 . S
N1275 C1273 1.314 . S
N1275 C1274 1.279 . S
C1276 C1278 1.353 . S
C1276 N1279 1.314 . S
C1276 H1282 0.930 . S
C1277 N1279 1.279 . S
C1277 C1280 1.358 . S
C1277 H1283 0.930 . S
C1278 C1276 1.353 . S
C1278 C1281 1.348 . S
C1278 H1316 0.929 . S
N1279 Li1234 1.990 . S
N1279 C1276 1.314 . S
N1279 C1277 1.279 . S
C1280 C1277 1.358 . S
C1280 C1281 1.356 . S
C1280 H1317 0.930 . S
C1281 C1278 1.348 . S
C1281 C1280 1.356 . S
H1282 C1276 0.930 . S
H1283 C1277 0.930 . S
C1284 N1285 1.314 . S
C1284 C1286 1.353 . S
C1284 H1290 0.930 . S
N1285 Li1235 1.990 . S
N1285 C1284 1.314 . S
N1285 C1288 1.279 . S
C1286 C1284 1.353 . S
C1286 C1289 1.348 . S
C1286 H1318 0.929 . S
C1287 C1288 1.358 . S
C1287 C1289 1.356 . S
C1287 H1319 0.930 . S
C1288 N1285 1.279 . S
C1288 C1287 1.358 . S
C1288 H1291 0.930 . S
C1289 C1286 1.348 . S
C1289 C1287 1.356 . S
H1290 C1284 0.930 . S
H1291 C1288 0.930 . S
O1292 Li1232 1.956 . S
O1292 Li1233 1.970 . S
O1292 Li1234 1.961 . S
O1292 C1236 1.325 . S
O1293 Li1232 1.970 . S
O1293 Li1233 1.956 . S
O1293 Li1235 1.961 . S
O1293 C1242 1.325 . S
O1294 Li1232 1.961 . S
O1294 Li1234 1.956 . S
O1294 Li1235 1.970 . S
O1294 C1264 1.325 . S
O1295 Li1233 1.961 . S
O1295 Li1234 1.970 . S
O1295 Li1235 1.956 . S
O1295 C1270 1.325 . S
H1296 C1238 0.929 . S
H1297 C1239 0.930 . S
H1298 C1240 0.930 . S
H1299 C1241 0.930 . S
H1300 C1243 0.930 . S
H1301 C1245 0.929 . S
H1302 C1246 0.930 . S
H1303 C1247 0.930 . S
H1304 C1250 0.930 . S
H1305 C1253 0.929 . S
H1306 C1258 0.929 . S
H1307 C1259 0.930 . S
H1308 C1266 0.929 . S
H1309 C1267 0.930 . S
H1310 C1268 0.930 . S
H1311 C1269 0.930 . S
H1312 C1271 0.929 . S
H1313 C1272 0.930 . S
H1314 C1273 0.930 . S
H1315 C1274 0.930 . S
H1316 C1278 0.929 . S
H1317 C1280 0.930 . S
H1318 C1286 0.929 . S
H1319 C1287 0.930 . S
Li1320 N1337 1.990 . S
Li1320 O1380 1.956 . S
Li1320 O1381 1.970 . S
Li1320 O1382 1.961 . S
Li1321 N1345 1.990 . S
Li1321 O1380 1.970 . S
Li1321 O1381 1.956 . S
Li1321 O1383 1.961 . S
Li1322 N1367 1.990 . S
Li1322 O1380 1.961 . S
Li1322 O1382 1.956 . S
Li1322 O1383 1.970 . S
Li1323 N1373 1.990 . S
Li1323 O1381 1.961 . S
Li1323 O1382 1.970 . S
Li1323 O1383 1.956 . S
C1324 C1326 1.348 . S
C1324 C1327 1.356 . S
C1324 O1380 1.325 . S
N1325 C1328 1.314 . S
N1325 C1329 1.279 . S
C1326 C1324 1.348 . S
C1326 C1328 1.353 . S
C1326 H1384 0.929 . S
C1327 C1324 1.356 . S
C1327 C1329 1.358 . S
C1327 H1385 0.930 . S
C1328 N1325 1.314 . S
C1328 C1326 1.353 . S
C1328 H1386 0.930 . S
C1329 N1325 1.279 . S
C1329 C1327 1.358 . S
C1329 H1387 0.930 . S
C1330 C1333 1.348 . S
C1330 C1334 1.356 . S
C1330 O1381 1.325 . S
C1331 N1332 1.279 . S
C1331 C1334 1.358 . S
C1331 H1388 0.930 . S
N1332 C1331 1.279 . S
N1332 C1335 1.314 . S
C1333 C1330 1.348 . S
C1333 C1335 1.353 . S
C1333 H1389 0.929 . S
C1334 C1330 1.356 . S
C1334 C1331 1.358 . S
C1334 H1390 0.930 . S
C1335 N1332 1.314 . S
C1335 C1333 1.353 . S
C1335 H1391 0.930 . S
C1336 N1337 1.314 . S
C1336 C1341 1.353 . S
C1336 H1342 0.930 . S
N1337 Li1320 1.990 . S
N1337 C1336 1.314 . S
N1337 C1339 1.279 . S
C1338 C1339 1.358 . S
C1338 C1340 1.356 . S
C1338 H1392 0.930 . S
C1339 N1337 1.279 . S
C1339 C1338 1.358 . S
C1339 H1343 0.930 . S
C1340 C1338 1.356 . S
C1340 C1341 1.348 . S
C1341 C1336 1.353 . S
C1341 C1340 1.348 . S
C1341 H1393 0.929 . S
H1342 C1336 0.930 . S
H1343 C1339 0.930 . S
C1344 N1345 1.314 . S
C1344 C1346 1.353 . S
C1344 H1350 0.930 . S
N1345 Li1321 1.990 . S
N1345 C1344 1.314 . S
N1345 C1348 1.279 . S
C1346 C1344 1.353 . S
C1346 C1349 1.348 . S
C1346 H1394 0.929 . S
C1347 C1348 1.358 . S
C1347 C1349 1.356 . S
C1347 H1395 0.930 . S
C1348 N1345 1.279 . S
C1348 C1347 1.358 . S
C1348 H1351 0.930 . S
C1349 C1346 1.348 . S
C1349 C1347 1.356 . S
H1350 C1344 0.930 . S
H1351 C1348 0.930 . S
C1352 C1354 1.348 . S
C1352 C1355 1.356 . S
C1352 O1382 1.325 . S
N1353 C1356 1.314 . S
N1353 C1357 1.279 . S
C1354 C1352 1.348 . S
C1354 C1356 1.353 . S
C1354 H1396 0.929 . S
C1355 C1352 1.356 . S
C1355 C1357 1.358 . S
C1355 H1397 0.930 . S
C1356 N1353 1.314 . S
C1356 C1354 1.353 . S
C1356 H1398 0.930 . S
C1357 N1353 1.279 . S
C1357 C1355 1.358 . S
C1357 H1399 0.930 . S
C1358 C1359 1.348 . S
C1358 C1360 1.356 . S
C1358 O1383 1.325 . S
C1359 C1358 1.348 . S
C1359 C1361 1.353 . S
C1359 H1400 0.929 . S
C1360 C1358 1.356 . S
C1360 C1362 1.358 . S
C1360 H1401 0.930 . S
C1361 C1359 1.353 . S
C1361 N1363 1.314 . S
C1361 H1402 0.930 . S
C1362 C1360 1.358 . S
C1362 N1363 1.279 . S
C1362 H1403 0.930 . S
N1363 C1361 1.314 . S
N1363 C1362 1.279 . S
C1364 C1366 1.353 . S
C1364 N1367 1.314 . S
C1364 H1370 0.930 . S
C1365 N1367 1.279 . S
C1365 C1368 1.358 . S
C1365 H1371 0.930 . S
C1366 C1364 1.353 . S
C1366 C1369 1.348 . S
C1366 H1404 0.929 . S
N1367 Li1322 1.990 . S
N1367 C1364 1.314 . S
N1367 C1365 1.279 . S
C1368 C1365 1.358 . S
C1368 C1369 1.356 . S
C1368 H1405 0.930 . S
C1369 C1366 1.348 . S
C1369 C1368 1.356 . S
H1370 C1364 0.930 . S
H1371 C1365 0.930 . S
C1372 N1373 1.314 . S
C1372 C1374 1.353 . S
C1372 H1378 0.930 . S
N1373 Li1323 1.990 . S
N1373 C1372 1.314 . S
N1373 C1376 1.279 . S
C1374 C1372 1.353 . S
C1374 C1377 1.348 . S
C1374 H1406 0.929 . S
C1375 C1376 1.358 . S
C1375 C1377 1.356 . S
C1375 H1407 0.930 . S
C1376 N1373 1.279 . S
C1376 C1375 1.358 . S
C1376 H1379 0.930 . S
C1377 C1374 1.348 . S
C1377 C1375 1.356 . S
H1378 C1372 0.930 . S
H1379 C1376 0.930 . S
O1380 Li1320 1.956 . S
O1380 Li1321 1.970 . S
O1380 Li1322 1.961 . S
O1380 C1324 1.325 . S
O1381 Li1320 1.970 . S
O1381 Li1321 1.956 . S
O1381 Li1323 1.961 . S
O1381 C1330 1.325 . S
O1382 Li1320 1.961 . S
O1382 Li1322 1.956 . S
O1382 Li1323 1.970 . S
O1382 C1352 1.325 . S
O1383 Li1321 1.961 . S
O1383 Li1322 1.970 . S
O1383 Li1323 1.956 . S
O1383 C1358 1.325 . S
H1384 C1326 0.929 . S
H1385 C1327 0.930 . S
H1386 C1328 0.930 . S
H1387 C1329 0.930 . S
H1388 C1331 0.930 . S
H1389 C1333 0.929 . S
H1390 C1334 0.930 . S
H1391 C1335 0.930 . S
H1392 C1338 0.930 . S
H1393 C1341 0.929 . S
H1394 C1346 0.929 . S
H1395 C1347 0.930 . S
H1396 C1354 0.929 . S
H1397 C1355 0.930 . S
H1398 C1356 0.930 . S
H1399 C1357 0.930 . S
H1400 C1359 0.929 . S
H1401 C1360 0.930 . S
H1402 C1361 0.930 . S
H1403 C1362 0.930 . S
H1404 C1366 0.929 . S
H1405 C1368 0.930 . S
H1406 C1374 0.929 . S
H1407 C1375 0.930 . S
H1408 C1426 0.951 . S
H1409 C1428 0.951 . S
H1410 C1430 0.950 . S
H1411 C1431 0.950 . S
H1412 C1433 0.950 . S
H1413 C1436 0.950 . S
H1414 C1437 0.950 . S
H1415 C1439 0.950 . S
H1416 C1440 0.950 . S
H1417 C1441 0.951 . S
H1418 C1443 0.951 . S
H1419 C1445 0.950 . S
H1420 C1446 0.950 . S
H1421 C1448 0.950 . S
H1422 C1451 0.950 . S
H1423 C1452 0.950 . S
H1424 C1454 0.950 . S
H1425 C1455 0.950 . S
C1426 H1408 0.951 . S
C1426 C1427 1.366 . S
C1426 C1428 1.388 . S
C1427 C1426 1.366 . S
C1427 C1431 1.385 . S
C1428 H1409 0.951 . S
C1428 C1426 1.388 . S
C1428 C1429 1.366 . S
C1429 C1428 1.366 . S
C1429 C1430 1.414 . S
C1429 C1432 1.499 . S
C1430 H1410 0.950 . S
C1430 C1429 1.414 . S
C1430 C1431 1.374 . S
C1431 H1411 0.950 . S
C1431 C1427 1.385 . S
C1431 C1430 1.374 . S
C1432 C1429 1.499 . S
C1432 C1433 1.373 . S
C1432 C1434 1.389 . S
C1433 H1412 0.950 . S
C1433 C1432 1.373 . S
C1433 C1449 1.377 . S
C1434 C1432 1.389 . S
C1434 C1435 1.524 . S
C1434 C1448 1.377 . S
C1435 C1434 1.524 . S
C1435 C1436 1.397 . S
C1435 C1440 1.363 . S
C1436 H1413 0.950 . S
C1436 C1435 1.397 . S
C1436 C1437 1.334 . S
C1437 H1414 0.950 . S
C1437 C1436 1.334 . S
C1437 C1438 1.287 . S
C1438 C1437 1.287 . S
C1438 C1439 1.524 . S
C1438 H1457 0.913 . S
C1439 H1415 0.950 . S
C1439 C1438 1.524 . S
C1439 C1440 1.415 . S
C1440 H1416 0.950 . S
C1440 C1435 1.363 . S
C1440 C1439 1.415 . S
C1441 H1417 0.951 . S
C1441 C1442 1.366 . S
C1441 C1443 1.388 . S
C1442 C1441 1.366 . S
C1442 C1446 1.385 . S
C1443 H1418 0.951 . S
C1443 C1441 1.388 . S
C1443 C1444 1.366 . S
C1444 C1443 1.366 . S
C1444 C1445 1.414 . S
C1444 C1447 1.499 . S
C1445 H1419 0.950 . S
C1445 C1444 1.414 . S
C1445 C1446 1.374 . S
C1446 H1420 0.950 . S
C1446 C1442 1.385 . S
C1446 C1445 1.374 . S
C1447 C1444 1.499 . S
C1447 C1448 1.373 . S
C1447 C1449 1.389 . S
C1448 H1421 0.950 . S
C1448 C1434 1.377 . S
C1448 C1447 1.373 . S
C1449 C1433 1.377 . S
C1449 C1447 1.389 . S
C1449 C1450 1.524 . S
C1450 C1449 1.524 . S
C1450 C1451 1.397 . S
C1450 C1455 1.363 . S
C1451 H1422 0.950 . S
C1451 C1450 1.397 . S
C1451 C1452 1.334 . S
C1452 H1423 0.950 . S
C1452 C1451 1.334 . S
C1452 C1453 1.287 . S
C1453 C1452 1.287 . S
C1453 C1454 1.524 . S
C1453 H1456 0.999 . S
C1454 H1424 0.950 . S
C1454 C1453 1.524 . S
C1454 C1455 1.415 . S
C1455 H1425 0.950 . S
C1455 C1450 1.363 . S
C1455 C1454 1.415 . S
H1456 C1453 0.999 . S
H1457 C1438 0.913 . S
H1458 C1476 0.951 . S
H1459 C1478 0.951 . S
H1460 C1480 0.950 . S
H1461 C1481 0.950 . S
H1462 C1483 0.950 . S
H1463 C1486 0.950 . S
H1464 C1487 0.950 . S
H1465 C1489 0.955 . S
H1466 C1490 0.954 . S
H1467 C1491 0.951 . S
H1468 C1493 0.951 . S
H1469 C1495 0.950 . S
H1470 C1496 0.950 . S
H1471 C1498 0.950 . S
H1472 C1501 0.950 . S
H1473 C1502 0.950 . S
H1474 C1504 0.957 . S
H1475 C1505 0.951 . S
C1476 H1458 0.951 . S
C1476 C1477 1.366 . S
C1476 C1478 1.388 . S
C1477 C1476 1.366 . S
C1477 C1481 1.385 . S
C1478 H1459 0.951 . S
C1478 C1476 1.388 . S
C1478 C1479 1.366 . S
C1479 C1478 1.366 . S
C1479 C1480 1.414 . S
C1479 C1482 1.499 . S
C1480 H1460 0.950 . S
C1480 C1479 1.414 . S
C1480 C1481 1.374 . S
C1481 H1461 0.950 . S
C1481 C1477 1.385 . S
C1481 C1480 1.374 . S
C1482 C1479 1.499 . S
C1482 C1483 1.373 . S
C1482 C1484 1.375 1_665 S
C1483 H1462 0.950 . S
C1483 C1482 1.373 . S
C1483 C1499 1.377 . S
C1484 C1482 1.375 1_445 S
C1484 C1485 1.528 . S
C1484 C1498 1.390 . S
C1485 C1484 1.528 . S
C1485 C1486 1.397 1_455 S
C1485 C1490 1.361 1_545 S
C1486 H1463 0.950 . S
C1486 C1485 1.397 1_655 S
C1486 C1487 1.334 . S
C1487 H1464 0.950 . S
C1487 C1486 1.334 . S
C1487 C1488 1.287 1_655 S
C1488 C1487 1.287 1_455 S
C1488 C1489 1.524 . S
C1488 H1507 0.913 . S
C1489 H1465 0.955 . S
C1489 C1488 1.524 . S
C1489 C1490 1.413 1_545 S
C1490 H1466 0.954 . S
C1490 C1485 1.361 1_565 S
C1490 C1489 1.413 1_565 S
C1491 H1467 0.951 . S
C1491 C1492 1.366 . S
C1491 C1493 1.388 . S
C1492 C1491 1.366 . S
C1492 C1496 1.385 . S
C1493 H1468 0.951 . S
C1493 C1491 1.388 . S
C1493 C1494 1.366 . S
C1494 C1493 1.366 . S
C1494 C1495 1.414 . S
C1494 C1497 1.499 . S
C1495 H1469 0.950 . S
C1495 C1494 1.414 . S
C1495 C1496 1.374 . S
C1496 H1470 0.950 . S
C1496 C1492 1.385 . S
C1496 C1495 1.374 . S
C1497 C1494 1.499 . S
C1497 C1498 1.373 . S
C1497 C1499 1.389 1_445 S
C1498 H1471 0.950 . S
C1498 C1484 1.390 . S
C1498 C1497 1.373 . S
C1499 C1483 1.377 . S
C1499 C1497 1.389 1_665 S
C1499 C1500 1.524 . S
C1500 C1499 1.524 . S
C1500 C1501 1.397 1_655 S
C1500 C1505 1.362 1_565 S
C1501 H1472 0.950 . S
C1501 C1500 1.397 1_455 S
C1501 C1502 1.334 . S
C1502 H1473 0.950 . S
C1502 C1501 1.334 . S
C1502 C1503 1.287 1_455 S
C1503 C1502 1.287 1_655 S
C1503 C1504 1.524 . S
C1503 H1506 0.999 . S
C1504 H1474 0.957 . S
C1504 C1503 1.524 . S
C1504 C1505 1.414 1_565 S
C1505 H1475 0.951 . S
C1505 C1500 1.362 1_545 S
C1505 C1504 1.414 1_545 S
H1506 C1503 0.999 . S
H1507 C1488 0.913 . S
H1508 C1526 0.951 . S
H1509 C1528 0.951 . S
H1510 C1530 0.950 . S
H1511 C1531 0.950 . S
H1512 C1533 0.950 . S
H1513 C1536 0.950 . S
H1514 C1537 0.950 . S
H1515 C1539 0.950 . S
H1516 C1540 0.950 . S
H1517 C1541 0.951 . S
H1518 C1543 0.951 . S
H1519 C1545 0.950 . S
H1520 C1546 0.950 . S
H1521 C1548 0.950 . S
H1522 C1551 0.950 . S
H1523 C1552 0.950 . S
H1524 C1554 0.950 . S
H1525 C1555 0.950 . S
C1526 H1508 0.951 . S
C1526 C1527 1.366 . S
C1526 C1528 1.388 . S
C1527 C1526 1.366 . S
C1527 C1531 1.385 . S
C1528 H1509 0.951 . S
C1528 C1526 1.388 . S
C1528 C1529 1.366 . S
C1529 C1528 1.366 . S
C1529 C1530 1.414 . S
C1529 C1532 1.499 . S
C1530 H1510 0.950 . S
C1530 C1529 1.414 . S
C1530 C1531 1.374 . S
C1531 H1511 0.950 . S
C1531 C1527 1.385 . S
C1531 C1530 1.374 . S
C1532 C1529 1.499 . S
C1532 C1533 1.373 . S
C1532 C1534 1.389 1_565 S
C1533 H1512 0.950 . S
C1533 C1532 1.373 . S
C1533 C1549 1.377 . S
C1534 C1532 1.389 1_545 S
C1534 C1535 1.524 . S
C1534 C1548 1.377 . S
C1535 C1534 1.524 . S
C1535 C1536 1.397 . S
C1535 C1540 1.363 . S
C1536 H1513 0.950 . S
C1536 C1535 1.397 . S
C1536 C1537 1.334 . S
C1537 H1514 0.950 . S
C1537 C1536 1.334 . S
C1537 C1538 1.287 . S
C1538 C1537 1.287 . S
C1538 C1539 1.524 . S
C1538 H1557 0.913 . S
C1539 H1515 0.950 . S
C1539 C1538 1.524 . S
C1539 C1540 1.415 . S
C1540 H1516 0.950 . S
C1540 C1535 1.363 . S
C1540 C1539 1.415 . S
C1541 H1517 0.951 . S
C1541 C1542 1.366 . S
C1541 C1543 1.388 . S
C1542 C1541 1.366 . S
C1542 C1546 1.385 . S
C1543 H1518 0.951 . S
C1543 C1541 1.388 . S
C1543 C1544 1.366 . S
C1544 C1543 1.366 . S
C1544 C1545 1.414 . S
C1544 C1547 1.499 . S
C1545 H1519 0.950 . S
C1545 C1544 1.414 . S
C1545 C1546 1.374 . S
C1546 H1520 0.950 . S
C1546 C1542 1.385 . S
C1546 C1545 1.374 . S
C1547 C1544 1.499 . S
C1547 C1548 1.373 . S
C1547 C1549 1.389 1_545 S
C1548 H1521 0.950 . S
C1548 C1534 1.377 . S
C1548 C1547 1.373 . S
C1549 C1533 1.377 . S
C1549 C1547 1.389 1_565 S
C1549 C1550 1.524 . S
C1550 C1549 1.524 . S
C1550 C1551 1.397 . S
C1550 C1555 1.363 . S
C1551 H1522 0.950 . S
C1551 C1550 1.397 . S
C1551 C1552 1.334 . S
C1552 H1523 0.950 . S
C1552 C1551 1.334 . S
C1552 C1553 1.287 . S
C1553 C1552 1.287 . S
C1553 C1554 1.524 . S
C1553 H1556 0.999 . S
C1554 H1524 0.950 . S
C1554 C1553 1.524 . S
C1554 C1555 1.415 . S
C1555 H1525 0.950 . S
C1555 C1550 1.363 . S
C1555 C1554 1.415 . S
H1556 C1553 0.999 . S
H1557 C1538 0.913 . S
H1558 C1576 0.951 . S
H1559 C1578 0.951 . S
H1560 C1580 0.950 . S
H1561 C1581 0.950 . S
H1562 C1583 0.950 . S
H1563 C1586 0.950 . S
H1564 C1587 0.950 . S
H1565 C1589 0.950 . S
H1566 C1590 0.950 . S
H1567 C1591 0.951 . S
H1568 C1593 0.951 . S
H1569 C1595 0.950 . S
H1570 C1596 0.950 . S
H1571 C1598 0.950 . S
H1572 C1601 0.950 . S
H1573 C1602 0.950 . S
H1574 C1604 0.950 . S
H1575 C1605 0.950 . S
C1576 H1558 0.951 . S
C1576 C1577 1.366 . S
C1576 C1578 1.388 . S
C1577 C1576 1.366 . S
C1577 C1581 1.385 . S
C1578 H1559 0.951 . S
C1578 C1576 1.388 . S
C1578 C1579 1.366 . S
C1579 C1578 1.366 . S
C1579 C1580 1.414 . S
C1579 C1582 1.499 . S
C1580 H1560 0.950 . S
C1580 C1579 1.414 . S
C1580 C1581 1.374 . S
C1581 H1561 0.950 . S
C1581 C1577 1.385 . S
C1581 C1580 1.374 . S
C1582 C1579 1.499 . S
C1582 C1583 1.375 . S
C1582 C1584 1.389 . S
C1583 H1562 0.950 . S
C1583 C1582 1.375 . S
C1583 C1599 1.375 1_455 S
C1584 C1582 1.389 . S
C1584 C1585 1.524 . S
C1584 C1598 1.371 1_455 S
C1585 C1584 1.524 . S
C1585 C1586 1.397 . S
C1585 C1590 1.363 . S
C1586 H1563 0.950 . S
C1586 C1585 1.397 . S
C1586 C1587 1.334 . S
C1587 H1564 0.950 . S
C1587 C1586 1.334 . S
C1587 C1588 1.287 . S
C1588 C1587 1.287 . S
C1588 C1589 1.524 . S
C1588 H1607 0.913 . S
C1589 H1565 0.950 . S
C1589 C1588 1.524 . S
C1589 C1590 1.415 . S
C1590 H1566 0.950 . S
C1590 C1585 1.363 . S
C1590 C1589 1.415 . S
C1591 H1567 0.951 . S
C1591 C1592 1.366 . S
C1591 C1593 1.388 . S
C1592 C1591 1.366 . S
C1592 C1596 1.385 . S
C1593 H1568 0.951 . S
C1593 C1591 1.388 . S
C1593 C1594 1.366 . S
C1594 C1593 1.366 . S
C1594 C1595 1.414 . S
C1594 C1597 1.499 . S
C1595 H1569 0.950 . S
C1595 C1594 1.414 . S
C1595 C1596 1.374 . S
C1596 H1570 0.950 . S
C1596 C1592 1.385 . S
C1596 C1595 1.374 . S
C1597 C1594 1.499 . S
C1597 C1598 1.379 . S
C1597 C1599 1.389 . S
C1598 H1571 0.950 . S
C1598 C1584 1.371 1_655 S
C1598 C1597 1.379 . S
C1599 C1583 1.375 1_655 S
C1599 C1597 1.389 . S
C1599 C1600 1.524 . S
C1600 C1599 1.524 . S
C1600 C1601 1.397 . S
C1600 C1605 1.363 . S
C1601 H1572 0.950 . S
C1601 C1600 1.397 . S
C1601 C1602 1.334 . S
C1602 H1573 0.950 . S
C1602 C1601 1.334 . S
C1602 C1603 1.287 . S
C1603 C1602 1.287 . S
C1603 C1604 1.524 . S
C1603 H1606 0.999 . S
C1604 H1574 0.950 . S
C1604 C1603 1.524 . S
C1604 C1605 1.415 . S
C1605 H1575 0.950 . S
C1605 C1600 1.363 . S
C1605 C1604 1.415 . S
H1606 C1603 0.999 . S
H1607 C1588 0.913 . S
H1608 C1626 0.951 . S
H1609 C1628 0.951 . S
H1610 C1630 0.950 . S
H1611 C1631 0.950 . S
H1612 C1633 0.950 . S
H1613 C1636 0.950 . S
H1614 C1637 0.950 . S
H1615 C1639 0.950 . S
H1616 C1640 0.950 . S
H1617 C1641 0.951 . S
H1618 C1643 0.951 . S
H1619 C1645 0.950 . S
H1620 C1646 0.950 . S
H1621 C1648 0.950 . S
H1622 C1651 0.950 . S
H1623 C1652 0.950 . S
H1624 C1654 0.950 . S
H1625 C1655 0.950 . S
C1626 H1608 0.951 . S
C1626 C1627 1.366 . S
C1626 C1628 1.388 . S
C1627 C1626 1.366 . S
C1627 C1631 1.385 . S
C1628 H1609 0.951 . S
C1628 C1626 1.388 . S
C1628 C1629 1.366 . S
C1629 C1628 1.366 . S
C1629 C1630 1.414 . S
C1629 C1632 1.499 . S
C1630 H1610 0.950 . S
C1630 C1629 1.414 . S
C1630 C1631 1.374 . S
C1631 H1611 0.950 . S
C1631 C1627 1.385 . S
C1631 C1630 1.374 . S
C1632 C1629 1.499 . S
C1632 C1633 1.373 . S
C1632 C1634 1.389 . S
C1633 H1612 0.950 . S
C1633 C1632 1.373 . S
C1633 C1649 1.377 . S
C1634 C1632 1.389 . S
C1634 C1635 1.524 . S
C1634 C1648 1.377 . S
C1635 C1634 1.524 . S
C1635 C1636 1.397 . S
C1635 C1640 1.363 . S
C1636 H1613 0.950 . S
C1636 C1635 1.397 . S
C1636 C1637 1.334 . S
C1637 H1614 0.950 . S
C1637 C1636 1.334 . S
C1637 C1638 1.287 . S
C1638 C1637 1.287 . S
C1638 C1639 1.524 . S
C1638 H1657 0.913 . S
C1639 H1615 0.950 . S
C1639 C1638 1.524 . S
C1639 C1640 1.415 . S
C1640 H1616 0.950 . S
C1640 C1635 1.363 . S
C1640 C1639 1.415 . S
C1641 H1617 0.951 . S
C1641 C1642 1.366 . S
C1641 C1643 1.388 . S
C1642 C1641 1.366 . S
C1642 C1646 1.385 . S
C1643 H1618 0.951 . S
C1643 C1641 1.388 . S
C1643 C1644 1.366 . S
C1644 C1643 1.366 . S
C1644 C1645 1.414 . S
C1644 C1647 1.499 . S
C1645 H1619 0.950 . S
C1645 C1644 1.414 . S
C1645 C1646 1.374 . S
C1646 H1620 0.950 . S
C1646 C1642 1.385 . S
C1646 C1645 1.374 . S
C1647 C1644 1.499 . S
C1647 C1648 1.373 . S
C1647 C1649 1.389 . S
C1648 H1621 0.950 . S
C1648 C1634 1.377 . S
C1648 C1647 1.373 . S
C1649 C1633 1.377 . S
C1649 C1647 1.389 . S
C1649 C1650 1.524 . S
C1650 C1649 1.524 . S
C1650 C1651 1.397 . S
C1650 C1655 1.363 . S
C1651 H1622 0.950 . S
C1651 C1650 1.397 . S
C1651 C1652 1.334 . S
C1652 H1623 0.950 . S
C1652 C1651 1.334 . S
C1652 C1653 1.287 . S
C1653 C1652 1.287 . S
C1653 C1654 1.524 . S
C1653 H1656 0.999 . S
C1654 H1624 0.950 . S
C1654 C1653 1.524 . S
C1654 C1655 1.415 . S
C1655 H1625 0.950 . S
C1655 C1650 1.363 . S
C1655 C1654 1.415 . S
H1656 C1653 0.999 . S
H1657 C1638 0.913 . S
H1658 C1676 0.951 . S
H1659 C1678 0.951 . S
H1660 C1680 0.950 . S
H1661 C1681 0.950 . S
H1662 C1683 0.950 . S
H1663 C1686 0.950 . S
H1664 C1687 0.950 . S
H1665 C1689 0.950 . S
H1666 C1690 0.950 . S
H1667 C1691 0.951 . S
H1668 C1693 0.951 . S
H1669 C1695 0.950 . S
H1670 C1696 0.950 . S
H1671 C1698 0.950 . S
H1672 C1701 0.950 . S
H1673 C1702 0.950 . S
H1674 C1704 0.950 . S
H1675 C1705 0.950 . S
C1676 H1658 0.951 . S
C1676 C1677 1.366 . S
C1676 C1678 1.388 . S
C1677 C1676 1.366 . S
C1677 C1681 1.385 . S
C1678 H1659 0.951 . S
C1678 C1676 1.388 . S
C1678 C1679 1.366 . S
C1679 C1678 1.366 . S
C1679 C1680 1.414 . S
C1679 C1682 1.499 . S
C1680 H1660 0.950 . S
C1680 C1679 1.414 . S
C1680 C1681 1.374 . S
C1681 H1661 0.950 . S
C1681 C1677 1.385 . S
C1681 C1680 1.374 . S
C1682 C1679 1.499 . S
C1682 C1683 1.373 . S
C1682 C1684 1.389 1_545 S
C1683 H1662 0.950 . S
C1683 C1682 1.373 . S
C1683 C1699 1.377 . S
C1684 C1682 1.389 1_565 S
C1684 C1685 1.524 . S
C1684 C1698 1.377 . S
C1685 C1684 1.524 . S
C1685 C1686 1.397 . S
C1685 C1690 1.363 . S
C1686 H1663 0.950 . S
C1686 C1685 1.397 . S
C1686 C1687 1.334 . S
C1687 H1664 0.950 . S
C1687 C1686 1.334 . S
C1687 C1688 1.287 . S
C1688 C1687 1.287 . S
C1688 C1689 1.524 . S
C1688 H1707 0.913 . S
C1689 H1665 0.950 . S
C1689 C1688 1.524 . S
C1689 C1690 1.415 . S
C1690 H1666 0.950 . S
C1690 C1685 1.363 . S
C1690 C1689 1.415 . S
C1691 H1667 0.951 . S
C1691 C1692 1.366 . S
C1691 C1693 1.388 . S
C1692 C1691 1.366 . S
C1692 C1696 1.385 . S
C1693 H1668 0.951 . S
C1693 C1691 1.388 . S
C1693 C1694 1.366 . S
C1694 C1693 1.366 . S
C1694 C1695 1.414 . S
C1694 C1697 1.499 . S
C1695 H1669 0.950 . S
C1695 C1694 1.414 . S
C1695 C1696 1.374 . S
C1696 H1670 0.950 . S
C1696 C1692 1.385 . S
C1696 C1695 1.374 . S
C1697 C1694 1.499 . S
C1697 C1698 1.373 . S
C1697 C1699 1.389 1_565 S
C1698 H1671 0.950 . S
C1698 C1684 1.377 . S
C1698 C1697 1.373 . S
C1699 C1683 1.377 . S
C1699 C1697 1.389 1_545 S
C1699 C1700 1.524 . S
C1700 C1699 1.524 . S
C1700 C1701 1.397 . S
C1700 C1705 1.363 . S
C1701 H1672 0.950 . S
C1701 C1700 1.397 . S
C1701 C1702 1.334 . S
C1702 H1673 0.950 . S
C1702 C1701 1.334 . S
C1702 C1703 1.287 . S
C1703 C1702 1.287 . S
C1703 C1704 1.524 . S
C1703 H1706 0.999 . S
C1704 H1674 0.950 . S
C1704 C1703 1.524 . S
C1704 C1705 1.415 . S
C1705 H1675 0.950 . S
C1705 C1700 1.363 . S
C1705 C1704 1.415 . S
H1706 C1703 0.999 . S
H1707 C1688 0.913 . S
H1708 C1726 0.951 . S
H1709 C1728 0.951 . S
H1710 C1730 0.950 . S
H1711 C1731 0.950 . S
H1712 C1733 0.950 . S
H1713 C1736 0.950 . S
H1714 C1737 0.950 . S
H1715 C1739 0.950 . S
H1716 C1740 0.950 . S
H1717 C1741 0.951 . S
H1718 C1743 0.951 . S
H1719 C1745 0.950 . S
H1720 C1746 0.950 . S
H1721 C1748 0.950 . S
H1722 C1751 0.950 . S
H1723 C1752 0.950 . S
H1724 C1754 0.950 . S
H1725 C1755 0.950 . S
C1726 H1708 0.951 . S
C1726 C1727 1.366 . S
C1726 C1728 1.388 . S
C1727 C1726 1.366 . S
C1727 C1731 1.385 . S
C1728 H1709 0.951 . S
C1728 C1726 1.388 . S
C1728 C1729 1.366 . S
C1729 C1728 1.366 . S
C1729 C1730 1.414 . S
C1729 C1732 1.499 . S
C1730 H1710 0.950 . S
C1730 C1729 1.414 . S
C1730 C1731 1.374 . S
C1731 H1711 0.950 . S
C1731 C1727 1.385 . S
C1731 C1730 1.374 . S
C1732 C1729 1.499 . S
C1732 C1733 1.373 1_655 S
C1732 C1734 1.389 . S
C1733 H1712 0.950 . S
C1733 C1732 1.373 1_455 S
C1733 C1749 1.377 . S
C1734 C1732 1.389 . S
C1734 C1735 1.524 . S
C1734 C1748 1.377 . S
C1735 C1734 1.524 . S
C1735 C1736 1.397 . S
C1735 C1740 1.363 . S
C1736 H1713 0.950 . S
C1736 C1735 1.397 . S
C1736 C1737 1.334 . S
C1737 H1714 0.950 . S
C1737 C1736 1.334 . S
C1737 C1738 1.287 . S
C1738 C1737 1.287 . S
C1738 C1739 1.524 . S
C1738 H1757 0.913 . S
C1739 H1715 0.950 . S
C1739 C1738 1.524 . S
C1739 C1740 1.415 . S
C1740 H1716 0.950 . S
C1740 C1735 1.363 . S
C1740 C1739 1.415 . S
C1741 H1717 0.951 . S
C1741 C1742 1.366 . S
C1741 C1743 1.388 . S
C1742 C1741 1.366 . S
C1742 C1746 1.385 . S
C1743 H1718 0.951 . S
C1743 C1741 1.388 . S
C1743 C1744 1.366 . S
C1744 C1743 1.366 . S
C1744 C1745 1.414 . S
C1744 C1747 1.499 . S
C1745 H1719 0.950 . S
C1745 C1744 1.414 . S
C1745 C1746 1.374 . S
C1746 H1720 0.950 . S
C1746 C1742 1.385 . S
C1746 C1745 1.374 . S
C1747 C1744 1.499 . S
C1747 C1748 1.373 1_455 S
C1747 C1749 1.389 . S
C1748 H1721 0.950 . S
C1748 C1734 1.377 . S
C1748 C1747 1.373 1_655 S
C1749 C1733 1.377 . S
C1749 C1747 1.389 . S
C1749 C1750 1.524 . S
C1750 C1749 1.524 . S
C1750 C1751 1.397 . S
C1750 C1755 1.363 . S
C1751 H1722 0.950 . S
C1751 C1750 1.397 . S
C1751 C1752 1.334 . S
C1752 H1723 0.950 . S
C1752 C1751 1.334 . S
C1752 C1753 1.287 . S
C1753 C1752 1.287 . S
C1753 C1754 1.524 . S
C1753 H1756 0.999 . S
C1754 H1724 0.950 . S
C1754 C1753 1.524 . S
C1754 C1755 1.415 . S
C1755 H1725 0.950 . S
C1755 C1750 1.363 . S
C1755 C1754 1.415 . S
H1756 C1753 0.999 . S
H1757 C1738 0.913 . S
H1758 C1776 0.951 . S
H1759 C1778 0.951 . S
H1760 C1780 0.948 . S
H1761 C1781 0.950 . S
H1762 C1783 0.950 . S
H1763 C1786 0.979 . S
H1764 C1787 0.950 . S
H1765 C1789 0.950 . S
H1766 C1790 0.950 . S
H1767 C1791 0.951 . S
H1768 C1793 0.951 . S
H1769 C1795 0.950 . S
H1770 C1796 0.950 . S
H1771 C1798 0.950 . S
H1772 C1801 0.950 . S
H1773 C1802 0.950 . S
H1774 C1804 0.950 . S
H1775 C1805 0.950 . S
C1776 H1758 0.951 . S
C1776 C1777 1.366 . S
C1776 C1778 1.388 . S
C1777 C1776 1.366 . S
C1777 C1781 1.385 . S
C1778 H1759 0.951 . S
C1778 C1776 1.388 . S
C1778 C1779 1.366 . S
C1779 C1778 1.366 . S
C1779 C1780 1.414 . S
C1779 C1782 1.499 . S
C1780 H1760 0.948 . S
C1780 C1779 1.414 . S
C1780 C1781 1.374 . S
C1781 H1761 0.950 . S
C1781 C1777 1.385 . S
C1781 C1780 1.374 . S
C1782 C1779 1.499 . S
C1782 C1783 1.358 1_554 S
C1782 C1784 1.389 . S
C1783 H1762 0.950 . S
C1783 C1782 1.358 1_556 S
C1783 C1799 1.394 . S
C1784 C1782 1.389 . S
C1784 C1785 1.524 . S
C1784 C1798 1.377 1_554 S
C1785 C1784 1.524 . S
C1785 C1786 1.397 . S
C1785 C1790 1.363 . S
C1786 H1763 0.979 . S
C1786 C1785 1.397 . S
C1786 C1787 1.334 . S
C1787 H1764 0.950 . S
C1787 C1786 1.334 . S
C1787 C1788 1.287 . S
C1788 C1787 1.287 . S
C1788 C1789 1.524 . S
C1788 H1807 0.913 . S
C1789 H1765 0.950 . S
C1789 C1788 1.524 . S
C1789 C1790 1.415 . S
C1790 H1766 0.950 . S
C1790 C1785 1.363 . S
C1790 C1789 1.415 . S
C1791 H1767 0.951 . S
C1791 C1792 1.366 . S
C1791 C1793 1.388 . S
C1792 C1791 1.366 . S
C1792 C1796 1.385 . S
C1793 H1768 0.951 . S
C1793 C1791 1.388 . S
C1793 C1794 1.366 . S
C1794 C1793 1.366 . S
C1794 C1795 1.414 . S
C1794 C1797 1.499 . S
C1795 H1769 0.950 . S
C1795 C1794 1.414 . S
C1795 C1796 1.374 . S
C1796 H1770 0.950 . S
C1796 C1792 1.385 . S
C1796 C1795 1.374 . S
C1797 C1794 1.499 . S
C1797 C1798 1.373 . S
C1797 C1799 1.389 . S
C1798 H1771 0.950 . S
C1798 C1784 1.377 1_556 S
C1798 C1797 1.373 . S
C1799 C1783 1.394 . S
C1799 C1797 1.389 . S
C1799 C1800 1.524 . S
C1800 C1799 1.524 . S
C1800 C1801 1.397 . S
C1800 C1805 1.363 . S
C1801 H1772 0.950 . S
C1801 C1800 1.397 . S
C1801 C1802 1.334 . S
C1802 H1773 0.950 . S
C1802 C1801 1.334 . S
C1802 C1803 1.287 . S
C1803 C1802 1.287 . S
C1803 C1804 1.524 . S
C1803 H1806 0.999 . S
C1804 H1774 0.950 . S
C1804 C1803 1.524 . S
C1804 C1805 1.415 . S
C1805 H1775 0.950 . S
C1805 C1800 1.363 . S
C1805 C1804 1.415 . S
H1806 C1803 0.999 . S
H1807 C1788 0.913 . S
H1808 C1826 0.951 . S
H1809 C1828 0.951 . S
H1810 C1830 0.950 . S
H1811 C1831 0.950 . S
H1812 C1833 0.950 . S
H1813 C1836 0.950 . S
H1814 C1837 0.950 . S
H1815 C1839 0.950 . S
H1816 C1840 0.950 . S
H1817 C1841 0.951 . S
H1818 C1843 0.906 1_556 S
H1819 C1845 0.950 . S
H1820 C1846 0.950 . S
H1821 C1848 0.950 . S
H1822 C1851 0.950 . S
H1823 C1852 0.950 . S
H1824 C1854 0.950 . S
H1825 C1855 0.950 . S
C1826 H1808 0.951 . S
C1826 C1827 1.366 . S
C1826 C1828 1.388 . S
C1827 C1826 1.366 . S
C1827 C1831 1.385 . S
C1828 H1809 0.951 . S
C1828 C1826 1.388 . S
C1828 C1829 1.366 . S
C1829 C1828 1.366 . S
C1829 C1830 1.414 . S
C1829 C1832 1.499 . S
C1830 H1810 0.950 . S
C1830 C1829 1.414 . S
C1830 C1831 1.374 . S
C1831 H1811 0.950 . S
C1831 C1827 1.385 . S
C1831 C1830 1.374 . S
C1832 C1829 1.499 . S
C1832 C1833 1.373 1_455 S
C1832 C1834 1.394 . S
C1833 H1812 0.950 . S
C1833 C1832 1.373 1_655 S
C1833 C1849 1.377 . S
C1834 C1832 1.394 . S
C1834 C1835 1.521 1_556 S
C1834 C1848 1.372 1_556 S
C1835 C1834 1.521 1_554 S
C1835 C1836 1.338 1_554 S
C1835 C1840 1.425 . S
C1836 H1813 0.950 . S
C1836 C1835 1.338 1_556 S
C1836 C1837 1.334 . S
C1837 H1814 0.950 . S
C1837 C1836 1.334 . S
C1837 C1838 1.279 1_556 S
C1838 C1837 1.279 1_554 S
C1838 C1839 1.532 . S
C1838 H1857 0.913 . S
C1839 H1815 0.950 . S
C1839 C1838 1.532 . S
C1839 C1840 1.415 . S
C1840 H1816 0.950 . S
C1840 C1835 1.425 . S
C1840 C1839 1.415 . S
C1841 H1817 0.951 . S
C1841 C1842 1.366 . S
C1841 C1843 1.388 . S
C1842 C1841 1.366 . S
C1842 C1846 1.385 . S
C1843 H1818 0.906 1_554 S
C1843 C1841 1.388 . S
C1843 C1844 1.366 . S
C1844 C1843 1.366 . S
C1844 C1845 1.414 . S
C1844 C1847 1.499 . S
C1845 H1819 0.950 . S
C1845 C1844 1.414 . S
C1845 C1846 1.374 . S
C1846 H1820 0.950 . S
C1846 C1842 1.385 . S
C1846 C1845 1.374 . S
C1847 C1844 1.499 . S
C1847 C1848 1.373 1_655 S
C1847 C1849 1.389 1_554 S
C1848 H1821 0.950 . S
C1848 C1834 1.372 1_554 S
C1848 C1847 1.373 1_455 S
C1849 C1833 1.377 . S
C1849 C1847 1.389 1_556 S
C1849 C1850 1.524 . S
C1850 C1849 1.524 . S
C1850 C1851 1.397 1_556 S
C1850 C1855 1.363 . S
C1851 H1822 0.950 . S
C1851 C1850 1.397 1_554 S
C1851 C1852 1.334 . S
C1852 H1823 0.950 . S
C1852 C1851 1.334 . S
C1852 C1853 1.287 1_554 S
C1853 C1852 1.287 1_556 S
C1853 C1854 1.524 . S
C1853 H1856 0.999 . S
C1854 H1824 0.950 . S
C1854 C1853 1.524 . S
C1854 C1855 1.415 . S
C1855 H1825 0.950 . S
C1855 C1850 1.363 . S
C1855 C1854 1.415 . S
H1856 C1853 0.999 . S
H1857 C1838 0.913 . S
H1858 C1876 0.951 . S
H1859 C1878 0.951 . S
H1860 C1880 0.950 . S
H1861 C1881 0.950 . S
H1862 C1883 0.950 . S
H1863 C1886 0.950 . S
H1864 C1887 0.950 . S
H1865 C1889 0.950 . S
H1866 C1890 0.950 . S
H1867 C1891 0.951 . S
H1868 C1893 0.951 . S
H1869 C1895 0.950 . S
H1870 C1896 0.950 . S
H1871 C1898 0.950 . S
H1872 C1901 0.950 . S
H1873 C1902 0.950 . S
H1874 C1904 0.950 . S
H1875 C1905 0.950 . S
C1876 H1858 0.951 . S
C1876 C1877 1.366 . S
C1876 C1878 1.388 . S
C1877 C1876 1.366 . S
C1877 C1881 1.385 . S
C1878 H1859 0.951 . S
C1878 C1876 1.388 . S
C1878 C1879 1.366 . S
C1879 C1878 1.366 . S
C1879 C1880 1.414 . S
C1879 C1882 1.499 . S
C1880 H1860 0.950 . S
C1880 C1879 1.414 . S
C1880 C1881 1.374 . S
C1881 H1861 0.950 . S
C1881 C1877 1.385 . S
C1881 C1880 1.374 . S
C1882 C1879 1.499 . S
C1882 C1883 1.373 . S
C1882 C1884 1.389 . S
C1883 H1862 0.950 . S
C1883 C1882 1.373 . S
C1883 C1899 1.377 . S
C1884 C1882 1.389 . S
C1884 C1885 1.524 . S
C1884 C1898 1.377 . S
C1885 C1884 1.524 . S
C1885 C1886 1.397 . S
C1885 C1890 1.363 . S
C1886 H1863 0.950 . S
C1886 C1885 1.397 . S
C1886 C1887 1.334 . S
C1887 H1864 0.950 . S
C1887 C1886 1.334 . S
C1887 C1888 1.287 . S
C1888 C1887 1.287 . S
C1888 C1889 1.524 . S
C1888 H1907 0.913 . S
C1889 H1865 0.950 . S
C1889 C1888 1.524 . S
C1889 C1890 1.415 . S
C1890 H1866 0.950 . S
C1890 C1885 1.363 . S
C1890 C1889 1.415 . S
C1891 H1867 0.951 . S
C1891 C1892 1.366 . S
C1891 C1893 1.388 . S
C1892 C1891 1.366 . S
C1892 C1896 1.385 . S
C1893 H1868 0.951 . S
C1893 C1891 1.388 . S
C1893 C1894 1.366 . S
C1894 C1893 1.366 . S
C1894 C1895 1.414 . S
C1894 C1897 1.499 . S
C1895 H1869 0.950 . S
C1895 C1894 1.414 . S
C1895 C1896 1.374 . S
C1896 H1870 0.950 . S
C1896 C1892 1.385 . S
C1896 C1895 1.374 . S
C1897 C1894 1.499 . S
C1897 C1898 1.373 . S
C1897 C1899 1.389 . S
C1898 H1871 0.950 . S
C1898 C1884 1.377 . S
C1898 C1897 1.373 . S
C1899 C1883 1.377 . S
C1899 C1897 1.389 . S
C1899 C1900 1.524 . S
C1900 C1899 1.524 . S
C1900 C1901 1.397 . S
C1900 C1905 1.363 . S
C1901 H1872 0.950 . S
C1901 C1900 1.397 . S
C1901 C1902 1.334 . S
C1902 H1873 0.950 . S
C1902 C1901 1.334 . S
C1902 C1903 1.287 . S
C1903 C1902 1.287 . S
C1903 C1904 1.524 . S
C1903 H1906 0.999 . S
C1904 H1874 0.950 . S
C1904 C1903 1.524 . S
C1904 C1905 1.415 . S
C1905 H1875 0.950 . S
C1905 C1900 1.363 . S
C1905 C1904 1.415 . S
H1906 C1903 0.999 . S
H1907 C1888 0.913 . S
H1908 C1926 0.951 . S
H1909 C1928 0.951 . S
H1910 C1930 0.950 . S
H1911 C1931 0.950 . S
H1912 C1933 0.950 . S
H1913 C1936 0.878 1_556 S
H1914 C1937 0.915 1_556 S
H1915 C1939 0.950 . S
H1916 C1940 0.950 . S
H1917 C1941 0.951 . S
H1918 C1943 0.909 1_556 S
H1919 C1945 0.950 . S
H1920 C1946 0.950 . S
H1921 C1948 0.950 . S
H1922 C1951 0.950 1_554 S
H1923 C1952 0.950 . S
H1924 C1954 0.950 . S
H1925 C1955 0.950 . S
C1926 H1908 0.951 . S
C1926 C1927 1.366 . S
C1926 C1928 1.388 . S
C1927 C1926 1.366 . S
C1927 C1931 1.385 . S
C1928 H1909 0.951 . S
C1928 C1926 1.388 . S
C1928 C1929 1.366 . S
C1929 C1928 1.366 . S
C1929 C1930 1.414 . S
C1929 C1932 1.499 . S
C1930 H1910 0.950 . S
C1930 C1929 1.414 . S
C1930 C1931 1.374 . S
C1931 H1911 0.950 . S
C1931 C1927 1.385 . S
C1931 C1930 1.374 . S
C1932 C1929 1.499 . S
C1932 C1933 1.373 . S
C1932 C1934 1.389 1_556 S
C1933 H1912 0.950 . S
C1933 C1932 1.373 . S
C1933 C1949 1.377 . S
C1934 C1932 1.389 1_554 S
C1934 C1935 1.524 . S
C1934 C1948 1.377 . S
C1935 C1934 1.524 . S
C1935 C1936 1.445 . S
C1935 C1940 1.363 . S
C1936 H1913 0.878 1_554 S
C1936 C1935 1.445 . S
C1936 C1937 1.361 . S
C1937 H1914 0.915 1_554 S
C1937 C1936 1.361 . S
C1937 C1938 1.287 . S
C1938 C1937 1.287 . S
C1938 C1939 1.524 . S
C1938 H1957 0.913 . S
C1939 H1915 0.950 . S
C1939 C1938 1.524 . S
C1939 C1940 1.415 . S
C1940 H1916 0.950 . S
C1940 C1935 1.363 . S
C1940 C1939 1.415 . S
C1941 H1917 0.951 . S
C1941 C1942 1.366 . S
C1941 C1943 1.388 . S
C1942 C1941 1.366 . S
C1942 C1946 1.385 . S
C1943 H1918 0.909 1_554 S
C1943 C1941 1.388 . S
C1943 C1944 1.366 . S
C1944 C1943 1.366 . S
C1944 C1945 1.414 . S
C1944 C1947 1.499 . S
C1945 H1919 0.950 . S
C1945 C1944 1.414 . S
C1945 C1946 1.374 . S
C1946 H1920 0.950 . S
C1946 C1942 1.385 . S
C1946 C1945 1.374 . S
C1947 C1944 1.499 . S
C1947 C1948 1.373 . S
C1947 C1949 1.389 1_554 S
C1948 H1921 0.950 . S
C1948 C1934 1.377 . S
C1948 C1947 1.373 . S
C1949 C1933 1.377 . S
C1949 C1947 1.389 1_556 S
C1949 C1950 1.524 . S
C1950 C1949 1.524 . S
C1950 C1951 1.397 . S
C1950 C1955 1.363 . S
C1951 H1922 0.950 1_556 S
C1951 C1950 1.397 . S
C1951 C1952 1.334 . S
C1952 H1923 0.950 . S
C1952 C1951 1.334 . S
C1952 C1953 1.287 . S
C1953 C1952 1.287 . S
C1953 C1954 1.524 . S
C1953 H1956 0.999 . S
C1954 H1924 0.950 . S
C1954 C1953 1.524 . S
C1954 C1955 1.415 . S
C1955 H1925 0.950 . S
C1955 C1950 1.363 . S
C1955 C1954 1.415 . S
H1956 C1953 0.999 . S
H1957 C1938 0.913 . S
H1958 C1976 0.951 . S
H1959 C1978 0.951 . S
H1960 C1980 0.950 . S
H1961 C1981 0.950 . S
H1962 C1983 0.950 . S
H1963 C1986 0.950 . S
H1964 C1987 0.950 . S
H1965 C1989 0.950 . S
H1966 C1990 0.950 . S
H1967 C1991 0.951 . S
H1968 C1993 0.951 . S
H1969 C1995 0.950 . S
H1970 C1996 0.950 . S
H1971 C1998 0.950 . S
H1972 C2001 0.950 . S
H1973 C2002 0.950 . S
H1974 C2004 0.950 . S
H1975 C2005 0.950 . S
C1976 H1958 0.951 . S
C1976 C1977 1.366 . S
C1976 C1978 1.388 . S
C1977 C1976 1.366 . S
C1977 C1981 1.385 . S
C1978 H1959 0.951 . S
C1978 C1976 1.388 . S
C1978 C1979 1.366 . S
C1979 C1978 1.366 . S
C1979 C1980 1.414 . S
C1979 C1982 1.499 . S
C1980 H1960 0.950 . S
C1980 C1979 1.414 . S
C1980 C1981 1.374 . S
C1981 H1961 0.950 . S
C1981 C1977 1.385 . S
C1981 C1980 1.374 . S
C1982 C1979 1.499 . S
C1982 C1983 1.373 . S
C1982 C1984 1.389 . S
C1983 H1962 0.950 . S
C1983 C1982 1.373 . S
C1983 C1999 1.377 . S
C1984 C1982 1.389 . S
C1984 C1985 1.524 . S
C1984 C1998 1.377 . S
C1985 C1984 1.524 . S
C1985 C1986 1.397 . S
C1985 C1990 1.363 . S
C1986 H1963 0.950 . S
C1986 C1985 1.397 . S
C1986 C1987 1.334 . S
C1987 H1964 0.950 . S
C1987 C1986 1.334 . S
C1987 C1988 1.287 . S
C1988 C1987 1.287 . S
C1988 C1989 1.524 . S
C1988 H2007 0.913 . S
C1989 H1965 0.950 . S
C1989 C1988 1.524 . S
C1989 C1990 1.415 . S
C1990 H1966 0.950 . S
C1990 C1985 1.363 . S
C1990 C1989 1.415 . S
C1991 H1967 0.951 . S
C1991 C1992 1.366 . S
C1991 C1993 1.388 . S
C1992 C1991 1.366 . S
C1992 C1996 1.385 . S
C1993 H1968 0.951 . S
C1993 C1991 1.388 . S
C1993 C1994 1.366 . S
C1994 C1993 1.366 . S
C1994 C1995 1.414 . S
C1994 C1997 1.499 . S
C1995 H1969 0.950 . S
C1995 C1994 1.414 . S
C1995 C1996 1.374 . S
C1996 H1970 0.950 . S
C1996 C1992 1.385 . S
C1996 C1995 1.374 . S
C1997 C1994 1.499 . S
C1997 C1998 1.373 . S
C1997 C1999 1.389 . S
C1998 H1971 0.950 . S
C1998 C1984 1.377 . S
C1998 C1997 1.373 . S
C1999 C1983 1.377 . S
C1999 C1997 1.389 . S
C1999 C2000 1.524 . S
C2000 C1999 1.524 . S
C2000 C2001 1.397 . S
C2000 C2005 1.363 . S
C2001 H1972 0.950 . S
C2001 C2000 1.397 . S
C2001 C2002 1.334 . S
C2002 H1973 0.950 . S
C2002 C2001 1.334 . S
C2002 C2003 1.287 . S
C2003 C2002 1.287 . S
C2003 C2004 1.524 . S
C2003 H2006 0.999 . S
C2004 H1974 0.950 . S
C2004 C2003 1.524 . S
C2004 C2005 1.415 . S
C2005 H1975 0.950 . S
C2005 C2000 1.363 . S
C2005 C2004 1.415 . S
H2006 C2003 0.999 . S
H2007 C1988 0.913 . S
H2008 C2026 0.951 . S
H2009 C2028 0.951 . S
H2010 C2030 0.950 . S
H2011 C2031 0.950 . S
H2012 C2033 0.950 . S
H2013 C2036 0.950 . S
H2014 C2037 0.950 . S
H2015 C2039 0.950 . S
H2016 C2040 0.950 . S
H2017 C2041 0.951 . S
H2018 C2043 0.951 . S
H2019 C2045 0.950 . S
H2020 C2046 0.950 . S
H2021 C2048 0.950 . S
H2022 C2051 0.950 . S
H2023 C2052 0.950 . S
H2024 C2054 0.950 . S
H2025 C2055 0.950 . S
C2026 H2008 0.951 . S
C2026 C2027 1.366 . S
C2026 C2028 1.388 . S
C2027 C2026 1.366 . S
C2027 C2031 1.385 . S
C2028 H2009 0.951 . S
C2028 C2026 1.388 . S
C2028 C2029 1.366 . S
C2029 C2028 1.366 . S
C2029 C2030 1.414 . S
C2029 C2032 1.499 . S
C2030 H2010 0.950 . S
C2030 C2029 1.414 . S
C2030 C2031 1.374 . S
C2031 H2011 0.950 . S
C2031 C2027 1.385 . S
C2031 C2030 1.374 . S
C2032 C2029 1.499 . S
C2032 C2033 1.373 . S
C2032 C2034 1.389 1_545 S
C2033 H2012 0.950 . S
C2033 C2032 1.373 . S
C2033 C2049 1.333 1_556 S
C2034 C2032 1.389 1_565 S
C2034 C2035 1.524 . S
C2034 C2048 1.377 1_556 S
C2035 C2034 1.524 . S
C2035 C2036 1.397 . S
C2035 C2040 1.363 1_556 S
C2036 H2013 0.950 . S
C2036 C2035 1.397 . S
C2036 C2037 1.334 . S
C2037 H2014 0.950 . S
C2037 C2036 1.334 . S
C2037 C2038 1.287 . S
C2038 C2037 1.287 . S
C2038 C2039 1.524 1_556 S
C2038 H2057 0.913 . S
C2039 H2015 0.950 . S
C2039 C2038 1.524 1_554 S
C2039 C2040 1.415 . S
C2040 H2016 0.950 . S
C2040 C2035 1.363 1_554 S
C2040 C2039 1.415 . S
C2041 H2017 0.951 . S
C2041 C2042 1.366 . S
C2041 C2043 1.388 . S
C2042 C2041 1.366 . S
C2042 C2046 1.385 . S
C2043 H2018 0.951 . S
C2043 C2041 1.388 . S
C2043 C2044 1.366 . S
C2044 C2043 1.366 . S
C2044 C2045 1.414 . S
C2044 C2047 1.499 . S
C2045 H2019 0.950 . S
C2045 C2044 1.414 . S
C2045 C2046 1.374 . S
C2046 H2020 0.950 . S
C2046 C2042 1.385 . S
C2046 C2045 1.374 . S
C2047 C2044 1.499 . S
C2047 C2048 1.373 . S
C2047 C2049 1.424 1_565 S
C2048 H2021 0.950 . S
C2048 C2034 1.377 1_554 S
C2048 C2047 1.373 . S
C2049 C2033 1.333 1_554 S
C2049 C2047 1.424 1_545 S
C2049 C2050 1.539 . S
C2050 C2049 1.539 . S
C2050 C2051 1.397 . S
C2050 C2055 1.363 1_554 S
C2051 H2022 0.950 . S
C2051 C2050 1.397 . S
C2051 C2052 1.334 . S
C2052 H2023 0.950 . S
C2052 C2051 1.334 . S
C2052 C2053 1.287 . S
C2053 C2052 1.287 . S
C2053 C2054 1.524 1_554 S
C2053 H2056 0.999 . S
C2054 H2024 0.950 . S
C2054 C2053 1.524 1_556 S
C2054 C2055 1.415 . S
C2055 H2025 0.950 . S
C2055 C2050 1.363 1_556 S
C2055 C2054 1.415 . S
H2056 C2053 0.999 . S
H2057 C2038 0.913 . S
H2058 C2076 0.951 . S
H2059 C2078 0.951 . S
H2060 C2080 0.950 . S
H2061 C2081 0.950 . S
H2062 C2083 0.950 . S
H2063 C2086 0.950 . S
H2064 C2087 0.950 . S
H2065 C2089 0.950 . S
H2066 C2090 0.950 . S
H2067 C2091 0.951 . S
H2068 C2093 0.951 . S
H2069 C2095 0.950 . S
H2070 C2096 0.950 . S
H2071 C2098 0.950 . S
H2072 C2101 0.950 . S
H2073 C2102 0.950 . S
H2074 C2104 0.950 . S
H2075 C2105 0.950 . S
C2076 H2058 0.951 . S
C2076 C2077 1.366 . S
C2076 C2078 1.388 . S
C2077 C2076 1.366 . S
C2077 C2081 1.385 . S
C2078 H2059 0.951 . S
C2078 C2076 1.388 . S
C2078 C2079 1.366 . S
C2079 C2078 1.366 . S
C2079 C2080 1.414 . S
C2079 C2082 1.499 . S
C2080 H2060 0.950 . S
C2080 C2079 1.414 . S
C2080 C2081 1.374 . S
C2081 H2061 0.950 . S
C2081 C2077 1.385 . S
C2081 C2080 1.374 . S
C2082 C2079 1.499 . S
C2082 C2083 1.373 . S
C2082 C2084 1.389 . S
C2083 H2062 0.950 . S
C2083 C2082 1.373 . S
C2083 C2099 1.377 . S
C2084 C2082 1.389 . S
C2084 C2085 1.524 . S
C2084 C2098 1.377 . S
C2085 C2084 1.524 . S
C2085 C2086 1.397 . S
C2085 C2090 1.363 . S
C2086 H2063 0.950 . S
C2086 C2085 1.397 . S
C2086 C2087 1.334 . S
C2087 H2064 0.950 . S
C2087 C2086 1.334 . S
C2087 C2088 1.287 . S
C2088 C2087 1.287 . S
C2088 C2089 1.524 . S
C2088 H2107 0.913 . S
C2089 H2065 0.950 . S
C2089 C2088 1.524 . S
C2089 C2090 1.415 . S
C2090 H2066 0.950 . S
C2090 C2085 1.363 . S
C2090 C2089 1.415 . S
C2091 H2067 0.951 . S
C2091 C2092 1.366 . S
C2091 C2093 1.388 . S
C2092 C2091 1.366 . S
C2092 C2096 1.385 . S
C2093 H2068 0.951 . S
C2093 C2091 1.388 . S
C2093 C2094 1.366 . S
C2094 C2093 1.366 . S
C2094 C2095 1.414 . S
C2094 C2097 1.499 . S
C2095 H2069 0.950 . S
C2095 C2094 1.414 . S
C2095 C2096 1.374 . S
C2096 H2070 0.950 . S
C2096 C2092 1.385 . S
C2096 C2095 1.374 . S
C2097 C2094 1.499 . S
C2097 C2098 1.373 . S
C2097 C2099 1.389 . S
C2098 H2071 0.950 . S
C2098 C2084 1.377 . S
C2098 C2097 1.373 . S
C2099 C2083 1.377 . S
C2099 C2097 1.389 . S
C2099 C2100 1.524 . S
C2100 C2099 1.524 . S
C2100 C2101 1.397 . S
C2100 C2105 1.363 . S
C2101 H2072 0.950 . S
C2101 C2100 1.397 . S
C2101 C2102 1.334 . S
C2102 H2073 0.950 . S
C2102 C2101 1.334 . S
C2102 C2103 1.287 . S
C2103 C2102 1.287 . S
C2103 C2104 1.524 . S
C2103 H2106 0.999 . S
C2104 H2074 0.950 . S
C2104 C2103 1.524 . S
C2104 C2105 1.415 . S
C2105 H2075 0.950 . S
C2105 C2100 1.363 . S
C2105 C2104 1.415 . S
H2106 C2103 0.999 . S
H2107 C2088 0.913 . S
H2108 C2126 0.951 . S
H2109 C2128 0.951 . S
H2110 C2130 0.950 . S
H2111 C2131 0.950 . S
H2112 C2133 0.950 . S
H2113 C2136 0.950 . S
H2114 C2137 0.950 . S
H2115 C2139 0.950 . S
H2116 C2140 0.950 . S
H2117 C2141 0.951 . S
H2118 C2143 0.951 . S
H2119 C2145 0.950 . S
H2120 C2146 0.950 . S
H2121 C2148 0.950 . S
H2122 C2151 0.950 . S
H2123 C2152 0.950 . S
H2124 C2154 0.950 . S
H2125 C2155 0.950 . S
C2126 H2108 0.951 . S
C2126 C2127 1.366 . S
C2126 C2128 1.388 . S
C2127 C2126 1.366 . S
C2127 C2131 1.385 . S
C2128 H2109 0.951 . S
C2128 C2126 1.388 . S
C2128 C2129 1.366 . S
C2129 C2128 1.366 . S
C2129 C2130 1.414 . S
C2129 C2132 1.499 . S
C2130 H2110 0.950 . S
C2130 C2129 1.414 . S
C2130 C2131 1.374 . S
C2131 H2111 0.950 . S
C2131 C2127 1.385 . S
C2131 C2130 1.374 . S
C2132 C2129 1.499 . S
C2132 C2133 1.373 . S
C2132 C2134 1.389 . S
C2133 H2112 0.950 . S
C2133 C2132 1.373 . S
C2133 C2149 1.377 . S
C2134 C2132 1.389 . S
C2134 C2135 1.524 . S
C2134 C2148 1.377 . S
C2135 C2134 1.524 . S
C2135 C2136 1.397 . S
C2135 C2140 1.363 . S
C2136 H2113 0.950 . S
C2136 C2135 1.397 . S
C2136 C2137 1.334 . S
C2137 H2114 0.950 . S
C2137 C2136 1.334 . S
C2137 C2138 1.287 . S
C2138 C2137 1.287 . S
C2138 C2139 1.524 . S
C2138 H2157 0.913 . S
C2139 H2115 0.950 . S
C2139 C2138 1.524 . S
C2139 C2140 1.415 . S
C2140 H2116 0.950 . S
C2140 C2135 1.363 . S
C2140 C2139 1.415 . S
C2141 H2117 0.951 . S
C2141 C2142 1.366 . S
C2141 C2143 1.388 . S
C2142 C2141 1.366 . S
C2142 C2146 1.385 . S
C2143 H2118 0.951 . S
C2143 C2141 1.388 . S
C2143 C2144 1.366 . S
C2144 C2143 1.366 . S
C2144 C2145 1.414 . S
C2144 C2147 1.499 . S
C2145 H2119 0.950 . S
C2145 C2144 1.414 . S
C2145 C2146 1.374 . S
C2146 H2120 0.950 . S
C2146 C2142 1.385 . S
C2146 C2145 1.374 . S
C2147 C2144 1.499 . S
C2147 C2148 1.373 . S
C2147 C2149 1.389 . S
C2148 H2121 0.950 . S
C2148 C2134 1.377 . S
C2148 C2147 1.373 . S
C2149 C2133 1.377 . S
C2149 C2147 1.389 . S
C2149 C2150 1.524 . S
C2150 C2149 1.524 . S
C2150 C2151 1.397 . S
C2150 C2155 1.363 . S
C2151 H2122 0.950 . S
C2151 C2150 1.397 . S
C2151 C2152 1.334 . S
C2152 H2123 0.950 . S
C2152 C2151 1.334 . S
C2152 C2153 1.287 . S
C2153 C2152 1.287 . S
C2153 C2154 1.524 . S
C2153 H2156 0.999 . S
C2154 H2124 0.950 . S
C2154 C2153 1.524 . S
C2154 C2155 1.415 . S
C2155 H2125 0.950 . S
C2155 C2150 1.363 . S
C2155 C2154 1.415 . S
H2156 C2153 0.999 . S
H2157 C2138 0.913 . S
H2158 C2176 0.951 . S
H2159 C2178 0.951 . S
H2160 C2180 0.950 . S
H2161 C2181 0.950 . S
H2162 C2183 0.950 . S
H2163 C2186 0.950 . S
H2164 C2187 0.950 . S
H2165 C2189 0.950 . S
H2166 C2190 0.950 . S
H2167 C2191 0.951 . S
H2168 C2193 0.951 . S
H2169 C2195 0.950 . S
H2170 C2196 0.950 . S
H2171 C2198 0.950 . S
H2172 C2201 0.950 . S
H2173 C2202 0.950 . S
H2174 C2204 0.950 . S
H2175 C2205 0.950 . S
C2176 H2158 0.951 . S
C2176 C2177 1.366 . S
C2176 C2178 1.388 . S
C2177 C2176 1.366 . S
C2177 C2181 1.385 . S
C2178 H2159 0.951 . S
C2178 C2176 1.388 . S
C2178 C2179 1.366 . S
C2179 C2178 1.366 . S
C2179 C2180 1.414 . S
C2179 C2182 1.499 . S
C2180 H2160 0.950 . S
C2180 C2179 1.414 . S
C2180 C2181 1.374 . S
C2181 H2161 0.950 . S
C2181 C2177 1.385 . S
C2181 C2180 1.374 . S
C2182 C2179 1.499 . S
C2182 C2183 1.373 . S
C2182 C2184 1.389 . S
C2183 H2162 0.950 . S
C2183 C2182 1.373 . S
C2183 C2199 1.377 . S
C2184 C2182 1.389 . S
C2184 C2185 1.524 . S
C2184 C2198 1.377 . S
C2185 C2184 1.524 . S
C2185 C2186 1.397 . S
C2185 C2190 1.363 . S
C2186 H2163 0.950 . S
C2186 C2185 1.397 . S
C2186 C2187 1.334 . S
C2187 H2164 0.950 . S
C2187 C2186 1.334 . S
C2187 C2188 1.287 . S
C2188 C2187 1.287 . S
C2188 C2189 1.524 . S
C2188 H2207 0.913 . S
C2189 H2165 0.950 . S
C2189 C2188 1.524 . S
C2189 C2190 1.415 . S
C2190 H2166 0.950 . S
C2190 C2185 1.363 . S
C2190 C2189 1.415 . S
C2191 H2167 0.951 . S
C2191 C2192 1.366 . S
C2191 C2193 1.388 . S
C2192 C2191 1.366 . S
C2192 C2196 1.385 . S
C2193 H2168 0.951 . S
C2193 C2191 1.388 . S
C2193 C2194 1.366 . S
C2194 C2193 1.366 . S
C2194 C2195 1.414 . S
C2194 C2197 1.499 . S
C2195 H2169 0.950 . S
C2195 C2194 1.414 . S
C2195 C2196 1.374 . S
C2196 H2170 0.950 . S
C2196 C2192 1.385 . S
C2196 C2195 1.374 . S
C2197 C2194 1.499 . S
C2197 C2198 1.373 . S
C2197 C2199 1.389 . S
C2198 H2171 0.950 . S
C2198 C2184 1.377 . S
C2198 C2197 1.373 . S
C2199 C2183 1.377 . S
C2199 C2197 1.389 . S
C2199 C2200 1.524 . S
C2200 C2199 1.524 . S
C2200 C2201 1.397 . S
C2200 C2205 1.363 . S
C2201 H2172 0.950 . S
C2201 C2200 1.397 . S
C2201 C2202 1.334 . S
C2202 H2173 0.950 . S
C2202 C2201 1.334 . S
C2202 C2203 1.287 . S
C2203 C2202 1.287 . S
C2203 C2204 1.524 . S
C2203 H2206 0.999 . S
C2204 H2174 0.950 . S
C2204 C2203 1.524 . S
C2204 C2205 1.415 . S
C2205 H2175 0.950 . S
C2205 C2200 1.363 . S
C2205 C2204 1.415 . S
H2206 C2203 0.999 . S
H2207 C2188 0.913 . S
H2208 C2226 0.951 . S
H2209 C2228 0.951 . S
H2210 C2230 0.950 . S
H2211 C2231 0.950 . S
H2212 C2233 0.950 . S
H2213 C2236 0.950 . S
H2214 C2237 0.950 . S
H2215 C2239 0.950 . S
H2216 C2240 0.950 . S
H2217 C2241 0.951 . S
H2218 C2243 0.951 . S
H2219 C2245 0.950 . S
H2220 C2246 0.950 1_545 S
H2221 C2248 0.950 . S
H2222 C2251 0.950 . S
H2223 C2252 0.950 . S
H2224 C2254 0.950 . S
H2225 C2255 0.950 . S
C2226 H2208 0.951 . S
C2226 C2227 1.366 . S
C2226 C2228 1.388 . S
C2227 C2226 1.366 . S
C2227 C2231 1.385 . S
C2228 H2209 0.951 . S
C2228 C2226 1.388 . S
C2228 C2229 1.366 . S
C2229 C2228 1.366 . S
C2229 C2230 1.414 . S
C2229 C2232 1.499 . S
C2230 H2210 0.950 . S
C2230 C2229 1.414 . S
C2230 C2231 1.374 . S
C2231 H2211 0.950 . S
C2231 C2227 1.385 . S
C2231 C2230 1.374 . S
C2232 C2229 1.499 . S
C2232 C2233 1.373 . S
C2232 C2234 1.389 . S
C2233 H2212 0.950 . S
C2233 C2232 1.373 . S
C2233 C2249 1.377 . S
C2234 C2232 1.389 . S
C2234 C2235 1.524 . S
C2234 C2248 1.377 . S
C2235 C2234 1.524 . S
C2235 C2236 1.397 . S
C2235 C2240 1.363 . S
C2236 H2213 0.950 . S
C2236 C2235 1.397 . S
C2236 C2237 1.334 . S
C2237 H2214 0.950 . S
C2237 C2236 1.334 . S
C2237 C2238 1.287 . S
C2238 C2237 1.287 . S
C2238 C2239 1.524 . S
C2238 H2257 0.913 . S
C2239 H2215 0.950 . S
C2239 C2238 1.524 . S
C2239 C2240 1.415 . S
C2240 H2216 0.950 . S
C2240 C2235 1.363 . S
C2240 C2239 1.415 . S
C2241 H2217 0.951 . S
C2241 C2242 1.366 . S
C2241 C2243 1.388 . S
C2242 C2241 1.366 . S
C2242 C2246 1.385 . S
C2243 H2218 0.951 . S
C2243 C2241 1.388 . S
C2243 C2244 1.366 . S
C2244 C2243 1.366 . S
C2244 C2245 1.414 . S
C2244 C2247 1.499 . S
C2245 H2219 0.950 . S
C2245 C2244 1.414 . S
C2245 C2246 1.374 . S
C2246 H2220 0.950 1_565 S
C2246 C2242 1.385 . S
C2246 C2245 1.374 . S
C2247 C2244 1.499 . S
C2247 C2248 1.373 . S
C2247 C2249 1.389 . S
C2248 H2221 0.950 . S
C2248 C2234 1.377 . S
C2248 C2247 1.373 . S
C2249 C2233 1.377 . S
C2249 C2247 1.389 . S
C2249 C2250 1.524 . S
C2250 C2249 1.524 . S
C2250 C2251 1.397 . S
C2250 C2255 1.363 . S
C2251 H2222 0.950 . S
C2251 C2250 1.397 . S
C2251 C2252 1.334 . S
C2252 H2223 0.950 . S
C2252 C2251 1.334 . S
C2252 C2253 1.287 . S
C2253 C2252 1.287 . S
C2253 C2254 1.524 . S
C2253 H2256 0.999 . S
C2254 H2224 0.950 . S
C2254 C2253 1.524 . S
C2254 C2255 1.415 . S
C2255 H2225 0.950 . S
C2255 C2250 1.363 . S
C2255 C2254 1.415 . S
H2256 C2253 0.999 . S
H2257 C2238 0.913 . S
H2258 C2276 0.951 . S
H2259 C2278 0.951 . S
H2260 C2280 0.950 . S
H2261 C2281 0.950 . S
H2262 C2283 0.950 . S
H2263 C2286 0.950 . S
H2264 C2287 0.950 . S
H2265 C2289 0.950 . S
H2266 C2290 0.950 . S
H2267 C2291 0.951 . S
H2268 C2293 0.951 . S
H2269 C2295 0.950 . S
H2270 C2296 0.950 . S
H2271 C2298 0.950 . S
H2272 C2301 0.950 . S
H2273 C2302 0.950 . S
H2274 C2304 0.950 . S
H2275 C2305 0.950 . S
C2276 H2258 0.951 . S
C2276 C2277 1.366 . S
C2276 C2278 1.388 . S
C2277 C2276 1.366 . S
C2277 C2281 1.385 . S
C2278 H2259 0.951 . S
C2278 C2276 1.388 . S
C2278 C2279 1.366 . S
C2279 C2278 1.366 . S
C2279 C2280 1.414 . S
C2279 C2282 1.499 . S
C2280 H2260 0.950 . S
C2280 C2279 1.414 . S
C2280 C2281 1.374 . S
C2281 H2261 0.950 . S
C2281 C2277 1.385 . S
C2281 C2280 1.374 . S
C2282 C2279 1.499 . S
C2282 C2283 1.373 . S
C2282 C2284 1.389 . S
C2283 H2262 0.950 . S
C2283 C2282 1.373 . S
C2283 C2299 1.377 . S
C2284 C2282 1.389 . S
C2284 C2285 1.524 . S
C2284 C2298 1.377 . S
C2285 C2284 1.524 . S
C2285 C2286 1.397 . S
C2285 C2290 1.363 . S
C2286 H2263 0.950 . S
C2286 C2285 1.397 . S
C2286 C2287 1.334 . S
C2287 H2264 0.950 . S
C2287 C2286 1.334 . S
C2287 C2288 1.287 . S
C2288 C2287 1.287 . S
C2288 C2289 1.524 . S
C2288 H2307 0.913 . S
C2289 H2265 0.950 . S
C2289 C2288 1.524 . S
C2289 C2290 1.415 . S
C2290 H2266 0.950 . S
C2290 C2285 1.363 . S
C2290 C2289 1.415 . S
C2291 H2267 0.951 . S
C2291 C2292 1.366 . S
C2291 C2293 1.388 . S
C2292 C2291 1.366 . S
C2292 C2296 1.385 . S
C2293 H2268 0.951 . S
C2293 C2291 1.388 . S
C2293 C2294 1.366 . S
C2294 C2293 1.366 . S
C2294 C2295 1.414 . S
C2294 C2297 1.499 . S
C2295 H2269 0.950 . S
C2295 C2294 1.414 . S
C2295 C2296 1.374 . S
C2296 H2270 0.950 . S
C2296 C2292 1.385 . S
C2296 C2295 1.374 . S
C2297 C2294 1.499 . S
C2297 C2298 1.373 . S
C2297 C2299 1.389 . S
C2298 H2271 0.950 . S
C2298 C2284 1.377 . S
C2298 C2297 1.373 . S
C2299 C2283 1.377 . S
C2299 C2297 1.389 . S
C2299 C2300 1.524 . S
C2300 C2299 1.524 . S
C2300 C2301 1.397 . S
C2300 C2305 1.363 . S
C2301 H2272 0.950 . S
C2301 C2300 1.397 . S
C2301 C2302 1.334 . S
C2302 H2273 0.950 . S
C2302 C2301 1.334 . S
C2302 C2303 1.287 . S
C2303 C2302 1.287 . S
C2303 C2304 1.524 . S
C2303 H2306 0.999 . S
C2304 H2274 0.950 . S
C2304 C2303 1.524 . S
C2304 C2305 1.415 . S
C2305 H2275 0.950 . S
C2305 C2300 1.363 . S
C2305 C2304 1.415 . S
H2306 C2303 0.999 . S
H2307 C2288 0.913 . S
H2308 C2326 0.951 . S
H2309 C2328 0.951 . S
H2310 C2330 0.950 . S
H2311 C2331 0.950 . S
H2312 C2333 0.950 . S
H2313 C2336 0.950 . S
H2314 C2337 0.950 . S
H2315 C2339 0.950 . S
H2316 C2340 0.950 . S
H2317 C2341 0.951 . S
H2318 C2343 0.951 . S
H2319 C2345 0.950 . S
H2320 C2346 0.950 . S
H2321 C2348 0.950 . S
H2322 C2351 0.950 . S
H2323 C2352 0.950 . S
H2324 C2354 0.950 . S
H2325 C2355 0.950 . S
C2326 H2308 0.951 . S
C2326 C2327 1.366 . S
C2326 C2328 1.388 . S
C2327 C2326 1.366 . S
C2327 C2331 1.385 . S
C2328 H2309 0.951 . S
C2328 C2326 1.388 . S
C2328 C2329 1.366 . S
C2329 C2328 1.366 . S
C2329 C2330 1.414 . S
C2329 C2332 1.499 . S
C2330 H2310 0.950 . S
C2330 C2329 1.414 . S
C2330 C2331 1.374 . S
C2331 H2311 0.950 . S
C2331 C2327 1.385 . S
C2331 C2330 1.374 . S
C2332 C2329 1.499 . S
C2332 C2333 1.373 . S
C2332 C2334 1.389 . S
C2333 H2312 0.950 . S
C2333 C2332 1.373 . S
C2333 C2349 1.377 . S
C2334 C2332 1.389 . S
C2334 C2335 1.524 . S
C2334 C2348 1.377 . S
C2335 C2334 1.524 . S
C2335 C2336 1.397 . S
C2335 C2340 1.363 . S
C2336 H2313 0.950 . S
C2336 C2335 1.397 . S
C2336 C2337 1.334 . S
C2337 H2314 0.950 . S
C2337 C2336 1.334 . S
C2337 C2338 1.287 . S
C2338 C2337 1.287 . S
C2338 C2339 1.524 . S
C2338 H2357 0.913 . S
C2339 H2315 0.950 . S
C2339 C2338 1.524 . S
C2339 C2340 1.415 . S
C2340 H2316 0.950 . S
C2340 C2335 1.363 . S
C2340 C2339 1.415 . S
C2341 H2317 0.951 . S
C2341 C2342 1.366 . S
C2341 C2343 1.388 . S
C2342 C2341 1.366 . S
C2342 C2346 1.385 . S
C2343 H2318 0.951 . S
C2343 C2341 1.388 . S
C2343 C2344 1.366 . S
C2344 C2343 1.366 . S
C2344 C2345 1.414 . S
C2344 C2347 1.499 . S
C2345 H2319 0.950 . S
C2345 C2344 1.414 . S
C2345 C2346 1.374 . S
C2346 H2320 0.950 . S
C2346 C2342 1.385 . S
C2346 C2345 1.374 . S
C2347 C2344 1.499 . S
C2347 C2348 1.373 . S
C2347 C2349 1.389 . S
C2348 H2321 0.950 . S
C2348 C2334 1.377 . S
C2348 C2347 1.373 . S
C2349 C2333 1.377 . S
C2349 C2347 1.389 . S
C2349 C2350 1.524 . S
C2350 C2349 1.524 . S
C2350 C2351 1.397 . S
C2350 C2355 1.363 . S
C2351 H2322 0.950 . S
C2351 C2350 1.397 . S
C2351 C2352 1.334 . S
C2352 H2323 0.950 . S
C2352 C2351 1.334 . S
C2352 C2353 1.287 . S
C2353 C2352 1.287 . S
C2353 C2354 1.524 . S
C2353 H2356 0.999 . S
C2354 H2324 0.950 . S
C2354 C2353 1.524 . S
C2354 C2355 1.415 . S
C2355 H2325 0.950 . S
C2355 C2350 1.363 . S
C2355 C2354 1.415 . S
H2356 C2353 0.999 . S
H2357 C2338 0.913 . S
H2358 C2376 0.951 . S
H2359 C2378 0.951 . S
H2360 C2380 0.950 . S
H2361 C2381 0.950 . S
H2362 C2383 0.950 . S
H2363 C2386 0.950 . S
H2364 C2387 0.950 . S
H2365 C2389 0.950 . S
H2366 C2390 0.950 . S
H2367 C2391 0.951 1_545 S
H2368 C2393 0.951 . S
H2369 C2395 0.950 . S
H2370 C2396 0.950 . S
H2371 C2398 0.950 . S
H2372 C2401 0.950 . S
H2373 C2402 0.950 . S
H2374 C2404 0.950 . S
H2375 C2405 0.950 . S
C2376 H2358 0.951 . S
C2376 C2377 1.366 . S
C2376 C2378 1.388 . S
C2377 C2376 1.366 . S
C2377 C2381 1.385 . S
C2378 H2359 0.951 . S
C2378 C2376 1.388 . S
C2378 C2379 1.366 . S
C2379 C2378 1.366 . S
C2379 C2380 1.414 . S
C2379 C2382 1.499 . S
C2380 H2360 0.950 . S
C2380 C2379 1.414 . S
C2380 C2381 1.374 . S
C2381 H2361 0.950 . S
C2381 C2377 1.385 . S
C2381 C2380 1.374 . S
C2382 C2379 1.499 . S
C2382 C2383 1.373 . S
C2382 C2384 1.389 . S
C2383 H2362 0.950 . S
C2383 C2382 1.373 . S
C2383 C2399 1.377 . S
C2384 C2382 1.389 . S
C2384 C2385 1.524 . S
C2384 C2398 1.377 . S
C2385 C2384 1.524 . S
C2385 C2386 1.397 . S
C2385 C2390 1.363 . S
C2386 H2363 0.950 . S
C2386 C2385 1.397 . S
C2386 C2387 1.334 . S
C2387 H2364 0.950 . S
C2387 C2386 1.334 . S
C2387 C2388 1.287 . S
C2388 C2387 1.287 . S
C2388 C2389 1.524 . S
C2388 H2407 0.913 . S
C2389 H2365 0.950 . S
C2389 C2388 1.524 . S
C2389 C2390 1.415 . S
C2390 H2366 0.950 . S
C2390 C2385 1.363 . S
C2390 C2389 1.415 . S
C2391 H2367 0.951 1_565 S
C2391 C2392 1.366 . S
C2391 C2393 1.388 . S
C2392 C2391 1.366 . S
C2392 C2396 1.385 . S
C2393 H2368 0.951 . S
C2393 C2391 1.388 . S
C2393 C2394 1.366 . S
C2394 C2393 1.366 . S
C2394 C2395 1.414 . S
C2394 C2397 1.499 . S
C2395 H2369 0.950 . S
C2395 C2394 1.414 . S
C2395 C2396 1.374 . S
C2396 H2370 0.950 . S
C2396 C2392 1.385 . S
C2396 C2395 1.374 . S
C2397 C2394 1.499 . S
C2397 C2398 1.373 . S
C2397 C2399 1.389 . S
C2398 H2371 0.950 . S
C2398 C2384 1.377 . S
C2398 C2397 1.373 . S
C2399 C2383 1.377 . S
C2399 C2397 1.389 . S
C2399 C2400 1.524 . S
C2400 C2399 1.524 . S
C2400 C2401 1.397 . S
C2400 C2405 1.363 . S
C2401 H2372 0.950 . S
C2401 C2400 1.397 . S
C2401 C2402 1.334 . S
C2402 H2373 0.950 . S
C2402 C2401 1.334 . S
C2402 C2403 1.287 . S
C2403 C2402 1.287 . S
C2403 C2404 1.524 . S
C2403 H2406 0.999 . S
C2404 H2374 0.950 . S
C2404 C2403 1.524 . S
C2404 C2405 1.415 . S
C2405 H2375 0.950 . S
C2405 C2400 1.363 . S
C2405 C2404 1.415 . S
H2406 C2403 0.999 . S
H2407 C2388 0.913 . S
H2408 C2426 0.951 . S
H2409 C2428 0.951 . S
H2410 C2430 0.950 . S
H2411 C2431 0.950 . S
H2412 C2433 0.950 . S
H2413 C2436 0.950 . S
H2414 C2437 0.950 . S
H2415 C2439 0.950 . S
H2416 C2440 0.950 . S
H2417 C2441 0.951 . S
H2418 C2443 0.951 . S
H2419 C2445 0.950 . S
H2420 C2446 0.950 1_565 S
H2421 C2448 0.950 . S
H2422 C2451 0.950 . S
H2423 C2452 0.950 . S
H2424 C2454 0.950 . S
H2425 C2455 0.950 . S
C2426 H2408 0.951 . S
C2426 C2427 1.366 . S
C2426 C2428 1.388 . S
C2427 C2426 1.366 . S
C2427 C2431 1.385 . S
C2428 H2409 0.951 . S
C2428 C2426 1.388 . S
C2428 C2429 1.366 . S
C2429 C2428 1.366 . S
C2429 C2430 1.414 . S
C2429 C2432 1.499 . S
C2430 H2410 0.950 . S
C2430 C2429 1.414 . S
C2430 C2431 1.374 . S
C2431 H2411 0.950 . S
C2431 C2427 1.385 . S
C2431 C2430 1.374 . S
C2432 C2429 1.499 . S
C2432 C2433 1.373 . S
C2432 C2434 1.389 . S
C2433 H2412 0.950 . S
C2433 C2432 1.373 . S
C2433 C2449 1.377 . S
C2434 C2432 1.389 . S
C2434 C2435 1.524 . S
C2434 C2448 1.377 . S
C2435 C2434 1.524 . S
C2435 C2436 1.397 . S
C2435 C2440 1.363 . S
C2436 H2413 0.950 . S
C2436 C2435 1.397 . S
C2436 C2437 1.334 . S
C2437 H2414 0.950 . S
C2437 C2436 1.334 . S
C2437 C2438 1.287 . S
C2438 C2437 1.287 . S
C2438 C2439 1.524 . S
C2438 H2457 0.913 . S
C2439 H2415 0.950 . S
C2439 C2438 1.524 . S
C2439 C2440 1.415 . S
C2440 H2416 0.950 . S
C2440 C2435 1.363 . S
C2440 C2439 1.415 . S
C2441 H2417 0.951 . S
C2441 C2442 1.366 . S
C2441 C2443 1.388 . S
C2442 C2441 1.366 . S
C2442 C2446 1.385 . S
C2443 H2418 0.951 . S
C2443 C2441 1.388 . S
C2443 C2444 1.366 . S
C2444 C2443 1.366 . S
C2444 C2445 1.414 . S
C2444 C2447 1.499 . S
C2445 H2419 0.950 . S
C2445 C2444 1.414 . S
C2445 C2446 1.374 . S
C2446 H2420 0.950 1_545 S
C2446 C2442 1.385 . S
C2446 C2445 1.374 . S
C2447 C2444 1.499 . S
C2447 C2448 1.373 . S
C2447 C2449 1.389 . S
C2448 H2421 0.950 . S
C2448 C2434 1.377 . S
C2448 C2447 1.373 . S
C2449 C2433 1.377 . S
C2449 C2447 1.389 . S
C2449 C2450 1.524 . S
C2450 C2449 1.524 . S
C2450 C2451 1.397 . S
C2450 C2455 1.363 . S
C2451 H2422 0.950 . S
C2451 C2450 1.397 . S
C2451 C2452 1.334 . S
C2452 H2423 0.950 . S
C2452 C2451 1.334 . S
C2452 C2453 1.287 . S
C2453 C2452 1.287 . S
C2453 C2454 1.524 . S
C2453 H2456 0.999 . S
C2454 H2424 0.950 . S
C2454 C2453 1.524 . S
C2454 C2455 1.415 . S
C2455 H2425 0.950 . S
C2455 C2450 1.363 . S
C2455 C2454 1.415 . S
H2456 C2453 0.999 . S
H2457 C2438 0.913 . S
H2458 C2476 0.951 . S
H2459 C2478 0.951 . S
H2460 C2480 0.950 . S
H2461 C2481 0.950 . S
H2462 C2483 0.950 . S
H2463 C2486 0.950 . S
H2464 C2487 0.950 . S
H2465 C2489 0.950 . S
H2466 C2490 0.950 . S
H2467 C2491 0.951 . S
H2468 C2493 0.951 . S
H2469 C2495 0.950 . S
H2470 C2496 0.950 . S
H2471 C2498 0.950 . S
H2472 C2501 0.950 . S
H2473 C2502 0.950 . S
H2474 C2504 0.950 . S
H2475 C2505 0.950 . S
C2476 H2458 0.951 . S
C2476 C2477 1.366 . S
C2476 C2478 1.388 . S
C2477 C2476 1.366 . S
C2477 C2481 1.385 . S
C2478 H2459 0.951 . S
C2478 C2476 1.388 . S
C2478 C2479 1.366 . S
C2479 C2478 1.366 . S
C2479 C2480 1.414 . S
C2479 C2482 1.499 . S
C2480 H2460 0.950 . S
C2480 C2479 1.414 . S
C2480 C2481 1.374 . S
C2481 H2461 0.950 . S
C2481 C2477 1.385 . S
C2481 C2480 1.374 . S
C2482 C2479 1.499 . S
C2482 C2483 1.373 . S
C2482 C2484 1.389 . S
C2483 H2462 0.950 . S
C2483 C2482 1.373 . S
C2483 C2499 1.377 . S
C2484 C2482 1.389 . S
C2484 C2485 1.524 . S
C2484 C2498 1.377 . S
C2485 C2484 1.524 . S
C2485 C2486 1.397 . S
C2485 C2490 1.363 . S
C2486 H2463 0.950 . S
C2486 C2485 1.397 . S
C2486 C2487 1.334 . S
C2487 H2464 0.950 . S
C2487 C2486 1.334 . S
C2487 C2488 1.287 . S
C2488 C2487 1.287 . S
C2488 C2489 1.524 . S
C2488 H2507 0.913 . S
C2489 H2465 0.950 . S
C2489 C2488 1.524 . S
C2489 C2490 1.415 . S
C2490 H2466 0.950 . S
C2490 C2485 1.363 . S
C2490 C2489 1.415 . S
C2491 H2467 0.951 . S
C2491 C2492 1.366 . S
C2491 C2493 1.388 . S
C2492 C2491 1.366 . S
C2492 C2496 1.385 . S
C2493 H2468 0.951 . S
C2493 C2491 1.388 . S
C2493 C2494 1.366 . S
C2494 C2493 1.366 . S
C2494 C2495 1.414 . S
C2494 C2497 1.499 . S
C2495 H2469 0.950 . S
C2495 C2494 1.414 . S
C2495 C2496 1.374 . S
C2496 H2470 0.950 . S
C2496 C2492 1.385 . S
C2496 C2495 1.374 . S
C2497 C2494 1.499 . S
C2497 C2498 1.373 . S
C2497 C2499 1.389 . S
C2498 H2471 0.950 . S
C2498 C2484 1.377 . S
C2498 C2497 1.373 . S
C2499 C2483 1.377 . S
C2499 C2497 1.389 . S
C2499 C2500 1.524 . S
C2500 C2499 1.524 . S
C2500 C2501 1.397 . S
C2500 C2505 1.363 . S
C2501 H2472 0.950 . S
C2501 C2500 1.397 . S
C2501 C2502 1.334 . S
C2502 H2473 0.950 . S
C2502 C2501 1.334 . S
C2502 C2503 1.287 . S
C2503 C2502 1.287 . S
C2503 C2504 1.524 . S
C2503 H2506 0.999 . S
C2504 H2474 0.950 . S
C2504 C2503 1.524 . S
C2504 C2505 1.415 . S
C2505 H2475 0.950 . S
C2505 C2500 1.363 . S
C2505 C2504 1.415 . S
H2506 C2503 0.999 . S
H2507 C2488 0.913 . S
H2508 C2526 0.951 . S
H2509 C2528 0.951 . S
H2510 C2530 0.950 . S
H2511 C2531 0.950 . S
H2512 C2533 0.950 . S
H2513 C2536 0.950 . S
H2514 C2537 0.950 . S
H2515 C2539 0.950 . S
H2516 C2540 0.950 . S
H2517 C2541 0.951 . S
H2518 C2543 0.951 . S
H2519 C2545 0.950 . S
H2520 C2546 0.950 . S
H2521 C2548 0.950 . S
H2522 C2551 0.950 . S
H2523 C2552 0.950 . S
H2524 C2554 0.950 . S
H2525 C2555 0.950 . S
C2526 H2508 0.951 . S
C2526 C2527 1.366 . S
C2526 C2528 1.388 . S
C2527 C2526 1.366 . S
C2527 C2531 1.385 . S
C2528 H2509 0.951 . S
C2528 C2526 1.388 . S
C2528 C2529 1.366 . S
C2529 C2528 1.366 . S
C2529 C2530 1.414 . S
C2529 C2532 1.499 . S
C2530 H2510 0.950 . S
C2530 C2529 1.414 . S
C2530 C2531 1.374 . S
C2531 H2511 0.950 . S
C2531 C2527 1.385 . S
C2531 C2530 1.374 . S
C2532 C2529 1.499 . S
C2532 C2533 1.373 . S
C2532 C2534 1.389 . S
C2533 H2512 0.950 . S
C2533 C2532 1.373 . S
C2533 C2549 1.377 . S
C2534 C2532 1.389 . S
C2534 C2535 1.524 . S
C2534 C2548 1.377 . S
C2535 C2534 1.524 . S
C2535 C2536 1.397 . S
C2535 C2540 1.363 . S
C2536 H2513 0.950 . S
C2536 C2535 1.397 . S
C2536 C2537 1.334 . S
C2537 H2514 0.950 . S
C2537 C2536 1.334 . S
C2537 C2538 1.287 . S
C2538 C2537 1.287 . S
C2538 C2539 1.524 . S
C2538 H2557 0.913 . S
C2539 H2515 0.950 . S
C2539 C2538 1.524 . S
C2539 C2540 1.415 . S
C2540 H2516 0.950 . S
C2540 C2535 1.363 . S
C2540 C2539 1.415 . S
C2541 H2517 0.951 . S
C2541 C2542 1.366 . S
C2541 C2543 1.388 . S
C2542 C2541 1.366 . S
C2542 C2546 1.385 . S
C2543 H2518 0.951 . S
C2543 C2541 1.388 . S
C2543 C2544 1.366 . S
C2544 C2543 1.366 . S
C2544 C2545 1.414 . S
C2544 C2547 1.499 . S
C2545 H2519 0.950 . S
C2545 C2544 1.414 . S
C2545 C2546 1.374 . S
C2546 H2520 0.950 . S
C2546 C2542 1.385 . S
C2546 C2545 1.374 . S
C2547 C2544 1.499 . S
C2547 C2548 1.373 . S
C2547 C2549 1.389 . S
C2548 H2521 0.950 . S
C2548 C2534 1.377 . S
C2548 C2547 1.373 . S
C2549 C2533 1.377 . S
C2549 C2547 1.389 . S
C2549 C2550 1.524 . S
C2550 C2549 1.524 . S
C2550 C2551 1.397 . S
C2550 C2555 1.363 . S
C2551 H2522 0.950 . S
C2551 C2550 1.397 . S
C2551 C2552 1.334 . S
C2552 H2523 0.950 . S
C2552 C2551 1.334 . S
C2552 C2553 1.287 . S
C2553 C2552 1.287 . S
C2553 C2554 1.524 . S
C2553 H2556 0.999 . S
C2554 H2524 0.950 . S
C2554 C2553 1.524 . S
C2554 C2555 1.415 . S
C2555 H2525 0.950 . S
C2555 C2550 1.363 . S
C2555 C2554 1.415 . S
H2556 C2553 0.999 . S
H2557 C2538 0.913 . S
H2558 C2576 0.951 1_565 S
H2559 C2578 0.951 . S
H2560 C2580 0.950 . S
H2561 C2581 0.950 . S
H2562 C2583 0.950 . S
H2563 C2586 0.950 . S
H2564 C2587 0.950 . S
H2565 C2589 0.946 1_565 S
H2566 C2590 0.950 . S
H2567 C2591 0.951 . S
H2568 C2593 0.951 . S
H2569 C2595 0.950 . S
H2570 C2596 0.950 . S
H2571 C2598 0.950 . S
H2572 C2601 0.950 . S
H2573 C2602 0.950 . S
H2574 C2604 0.950 . S
H2575 C2605 0.950 . S
C2576 H2558 0.951 1_545 S
C2576 C2577 1.366 . S
C2576 C2578 1.388 . S
C2577 C2576 1.366 . S
C2577 C2581 1.385 . S
C2578 H2559 0.951 . S
C2578 C2576 1.388 . S
C2578 C2579 1.366 . S
C2579 C2578 1.366 . S
C2579 C2580 1.414 . S
C2579 C2582 1.499 . S
C2580 H2560 0.950 . S
C2580 C2579 1.414 . S
C2580 C2581 1.374 . S
C2581 H2561 0.950 . S
C2581 C2577 1.385 . S
C2581 C2580 1.374 . S
C2582 C2579 1.499 . S
C2582 C2583 1.373 . S
C2582 C2584 1.389 . S
C2583 H2562 0.950 . S
C2583 C2582 1.373 . S
C2583 C2599 1.377 . S
C2584 C2582 1.389 . S
C2584 C2585 1.524 . S
C2584 C2598 1.377 . S
C2585 C2584 1.524 . S
C2585 C2586 1.397 . S
C2585 C2590 1.363 . S
C2586 H2563 0.950 . S
C2586 C2585 1.397 . S
C2586 C2587 1.334 . S
C2587 H2564 0.950 . S
C2587 C2586 1.334 . S
C2587 C2588 1.287 . S
C2588 C2587 1.287 . S
C2588 C2589 1.524 . S
C2588 H2607 0.913 1_545 S
C2589 H2565 0.946 1_545 S
C2589 C2588 1.524 . S
C2589 C2590 1.415 . S
C2590 H2566 0.950 . S
C2590 C2585 1.363 . S
C2590 C2589 1.415 . S
C2591 H2567 0.951 . S
C2591 C2592 1.366 . S
C2591 C2593 1.388 . S
C2592 C2591 1.366 . S
C2592 C2596 1.385 . S
C2593 H2568 0.951 . S
C2593 C2591 1.388 . S
C2593 C2594 1.366 . S
C2594 C2593 1.366 . S
C2594 C2595 1.414 . S
C2594 C2597 1.499 . S
C2595 H2569 0.950 . S
C2595 C2594 1.414 . S
C2595 C2596 1.374 . S
C2596 H2570 0.950 . S
C2596 C2592 1.385 . S
C2596 C2595 1.374 . S
C2597 C2594 1.499 . S
C2597 C2598 1.373 . S
C2597 C2599 1.389 . S
C2598 H2571 0.950 . S
C2598 C2584 1.377 . S
C2598 C2597 1.373 . S
C2599 C2583 1.377 . S
C2599 C2597 1.389 . S
C2599 C2600 1.524 . S
C2600 C2599 1.524 . S
C2600 C2601 1.397 . S
C2600 C2605 1.363 . S
C2601 H2572 0.950 . S
C2601 C2600 1.397 . S
C2601 C2602 1.334 . S
C2602 H2573 0.950 . S
C2602 C2601 1.334 . S
C2602 C2603 1.287 . S
C2603 C2602 1.287 . S
C2603 C2604 1.524 . S
C2603 H2606 0.999 . S
C2604 H2574 0.950 . S
C2604 C2603 1.524 . S
C2604 C2605 1.415 . S
C2605 H2575 0.950 . S
C2605 C2600 1.363 . S
C2605 C2604 1.415 . S
H2606 C2603 0.999 . S
H2607 C2588 0.913 1_565 S
H2608 C2626 0.951 . S
H2609 C2628 0.951 . S
H2610 C2630 0.950 . S
H2611 C2631 0.950 . S
H2612 C2633 0.950 . S
H2613 C2636 0.950 . S
H2614 C2637 0.950 . S
H2615 C2639 0.950 . S
H2616 C2640 0.950 . S
H2617 C2641 0.951 . S
H2618 C2643 0.951 . S
H2619 C2645 0.950 . S
H2620 C2646 0.950 1_545 S
H2621 C2648 0.950 . S
H2622 C2651 0.950 . S
H2623 C2652 0.950 . S
H2624 C2654 0.950 . S
H2625 C2655 0.950 . S
C2626 H2608 0.951 . S
C2626 C2627 1.366 . S
C2626 C2628 1.388 . S
C2627 C2626 1.366 . S
C2627 C2631 1.385 . S
C2628 H2609 0.951 . S
C2628 C2626 1.388 . S
C2628 C2629 1.366 . S
C2629 C2628 1.366 . S
C2629 C2630 1.414 . S
C2629 C2632 1.499 . S
C2630 H2610 0.950 . S
C2630 C2629 1.414 . S
C2630 C2631 1.374 . S
C2631 H2611 0.950 . S
C2631 C2627 1.385 . S
C2631 C2630 1.374 . S
C2632 C2629 1.499 . S
C2632 C2633 1.373 . S
C2632 C2634 1.389 . S
C2633 H2612 0.950 . S
C2633 C2632 1.373 . S
C2633 C2649 1.377 . S
C2634 C2632 1.389 . S
C2634 C2635 1.524 . S
C2634 C2648 1.377 . S
C2635 C2634 1.524 . S
C2635 C2636 1.397 . S
C2635 C2640 1.363 . S
C2636 H2613 0.950 . S
C2636 C2635 1.397 . S
C2636 C2637 1.334 . S
C2637 H2614 0.950 . S
C2637 C2636 1.334 . S
C2637 C2638 1.287 . S
C2638 C2637 1.287 . S
C2638 C2639 1.524 . S
C2638 H2657 0.913 . S
C2639 H2615 0.950 . S
C2639 C2638 1.524 . S
C2639 C2640 1.415 . S
C2640 H2616 0.950 . S
C2640 C2635 1.363 . S
C2640 C2639 1.415 . S
C2641 H2617 0.951 . S
C2641 C2642 1.366 . S
C2641 C2643 1.388 . S
C2642 C2641 1.366 . S
C2642 C2646 1.385 . S
C2643 H2618 0.951 . S
C2643 C2641 1.388 . S
C2643 C2644 1.366 . S
C2644 C2643 1.366 . S
C2644 C2645 1.414 . S
C2644 C2647 1.499 . S
C2645 H2619 0.950 . S
C2645 C2644 1.414 . S
C2645 C2646 1.374 . S
C2646 H2620 0.950 1_565 S
C2646 C2642 1.385 . S
C2646 C2645 1.374 . S
C2647 C2644 1.499 . S
C2647 C2648 1.373 . S
C2647 C2649 1.389 . S
C2648 H2621 0.950 . S
C2648 C2634 1.377 . S
C2648 C2647 1.373 . S
C2649 C2633 1.377 . S
C2649 C2647 1.389 . S
C2649 C2650 1.524 . S
C2650 C2649 1.524 . S
C2650 C2651 1.397 . S
C2650 C2655 1.363 . S
C2651 H2622 0.950 . S
C2651 C2650 1.397 . S
C2651 C2652 1.334 . S
C2652 H2623 0.950 . S
C2652 C2651 1.334 . S
C2652 C2653 1.287 . S
C2653 C2652 1.287 . S
C2653 C2654 1.524 . S
C2653 H2656 0.999 . S
C2654 H2624 0.950 . S
C2654 C2653 1.524 . S
C2654 C2655 1.415 . S
C2655 H2625 0.950 . S
C2655 C2650 1.363 . S
C2655 C2654 1.415 . S
H2656 C2653 0.999 . S
H2657 C2638 0.913 . S
H2658 C2676 0.951 . S
H2659 C2678 0.951 . S
H2660 C2680 0.950 . S
H2661 C2681 0.950 . S
H2662 C2683 0.950 . S
H2663 C2686 0.950 . S
H2664 C2687 0.950 . S
H2665 C2689 0.950 . S
H2666 C2690 0.950 . S
H2667 C2691 0.951 . S
H2668 C2693 0.951 . S
H2669 C2695 0.950 . S
H2670 C2696 0.950 . S
H2671 C2698 0.950 . S
H2672 C2701 0.950 . S
H2673 C2702 0.950 . S
H2674 C2704 0.950 . S
H2675 C2705 0.950 . S
C2676 H2658 0.951 . S
C2676 C2677 1.366 . S
C2676 C2678 1.388 . S
C2677 C2676 1.366 . S
C2677 C2681 1.385 . S
C2678 H2659 0.951 . S
C2678 C2676 1.388 . S
C2678 C2679 1.366 . S
C2679 C2678 1.366 . S
C2679 C2680 1.414 . S
C2679 C2682 1.499 . S
C2680 H2660 0.950 . S
C2680 C2679 1.414 . S
C2680 C2681 1.374 . S
C2681 H2661 0.950 . S
C2681 C2677 1.385 . S
C2681 C2680 1.374 . S
C2682 C2679 1.499 . S
C2682 C2683 1.373 . S
C2682 C2684 1.389 . S
C2683 H2662 0.950 . S
C2683 C2682 1.373 . S
C2683 C2699 1.377 . S
C2684 C2682 1.389 . S
C2684 C2685 1.524 . S
C2684 C2698 1.377 . S
C2685 C2684 1.524 . S
C2685 C2686 1.397 . S
C2685 C2690 1.363 . S
C2686 H2663 0.950 . S
C2686 C2685 1.397 . S
C2686 C2687 1.334 . S
C2687 H2664 0.950 . S
C2687 C2686 1.334 . S
C2687 C2688 1.287 . S
C2688 C2687 1.287 . S
C2688 C2689 1.524 . S
C2688 H2707 0.913 . S
C2689 H2665 0.950 . S
C2689 C2688 1.524 . S
C2689 C2690 1.415 . S
C2690 H2666 0.950 . S
C2690 C2685 1.363 . S
C2690 C2689 1.415 . S
C2691 H2667 0.951 . S
C2691 C2692 1.366 . S
C2691 C2693 1.388 . S
C2692 C2691 1.366 . S
C2692 C2696 1.385 . S
C2693 H2668 0.951 . S
C2693 C2691 1.388 . S
C2693 C2694 1.366 . S
C2694 C2693 1.366 . S
C2694 C2695 1.414 . S
C2694 C2697 1.499 . S
C2695 H2669 0.950 . S
C2695 C2694 1.414 . S
C2695 C2696 1.374 . S
C2696 H2670 0.950 . S
C2696 C2692 1.385 . S
C2696 C2695 1.374 . S
C2697 C2694 1.499 . S
C2697 C2698 1.373 . S
C2697 C2699 1.389 . S
C2698 H2671 0.950 . S
C2698 C2684 1.377 . S
C2698 C2697 1.373 . S
C2699 C2683 1.377 . S
C2699 C2697 1.389 . S
C2699 C2700 1.524 . S
C2700 C2699 1.524 . S
C2700 C2701 1.397 . S
C2700 C2705 1.363 . S
C2701 H2672 0.950 . S
C2701 C2700 1.397 . S
C2701 C2702 1.334 . S
C2702 H2673 0.950 . S
C2702 C2701 1.334 . S
C2702 C2703 1.287 . S
C2703 C2702 1.287 . S
C2703 C2704 1.524 . S
C2703 H2706 0.999 . S
C2704 H2674 0.950 . S
C2704 C2703 1.524 . S
C2704 C2705 1.415 . S
C2705 H2675 0.950 . S
C2705 C2700 1.363 . S
C2705 C2704 1.415 . S
H2706 C2703 0.999 . S
H2707 C2688 0.913 . S
H2708 C2726 0.951 . S
H2709 C2728 0.951 . S
H2710 C2730 0.950 . S
H2711 C2731 0.950 . S
H2712 C2733 0.950 . S
H2713 C2736 0.950 . S
H2714 C2737 0.950 . S
H2715 C2739 0.950 . S
H2716 C2740 0.950 . S
H2717 C2741 0.951 . S
H2718 C2743 0.951 . S
H2719 C2745 0.950 . S
H2720 C2746 0.950 . S
H2721 C2748 0.950 . S
H2722 C2751 0.950 . S
H2723 C2752 0.950 . S
H2724 C2754 0.950 . S
H2725 C2755 0.950 . S
C2726 H2708 0.951 . S
C2726 C2727 1.366 . S
C2726 C2728 1.388 . S
C2727 C2726 1.366 . S
C2727 C2731 1.385 . S
C2728 H2709 0.951 . S
C2728 C2726 1.388 . S
C2728 C2729 1.366 . S
C2729 C2728 1.366 . S
C2729 C2730 1.414 . S
C2729 C2732 1.499 . S
C2730 H2710 0.950 . S
C2730 C2729 1.414 . S
C2730 C2731 1.374 . S
C2731 H2711 0.950 . S
C2731 C2727 1.385 . S
C2731 C2730 1.374 . S
C2732 C2729 1.499 . S
C2732 C2733 1.373 . S
C2732 C2734 1.389 . S
C2733 H2712 0.950 . S
C2733 C2732 1.373 . S
C2733 C2749 1.377 . S
C2734 C2732 1.389 . S
C2734 C2735 1.524 . S
C2734 C2748 1.377 . S
C2735 C2734 1.524 . S
C2735 C2736 1.397 . S
C2735 C2740 1.363 . S
C2736 H2713 0.950 . S
C2736 C2735 1.397 . S
C2736 C2737 1.334 . S
C2737 H2714 0.950 . S
C2737 C2736 1.334 . S
C2737 C2738 1.287 . S
C2738 C2737 1.287 . S
C2738 C2739 1.524 . S
C2738 H2757 0.913 . S
C2739 H2715 0.950 . S
C2739 C2738 1.524 . S
C2739 C2740 1.415 . S
C2740 H2716 0.950 . S
C2740 C2735 1.363 . S
C2740 C2739 1.415 . S
C2741 H2717 0.951 . S
C2741 C2742 1.366 . S
C2741 C2743 1.388 . S
C2742 C2741 1.366 . S
C2742 C2746 1.385 . S
C2743 H2718 0.951 . S
C2743 C2741 1.388 . S
C2743 C2744 1.366 . S
C2744 C2743 1.366 . S
C2744 C2745 1.414 . S
C2744 C2747 1.499 . S
C2745 H2719 0.950 . S
C2745 C2744 1.414 . S
C2745 C2746 1.374 . S
C2746 H2720 0.950 . S
C2746 C2742 1.385 . S
C2746 C2745 1.374 . S
C2747 C2744 1.499 . S
C2747 C2748 1.373 . S
C2747 C2749 1.389 . S
C2748 H2721 0.950 . S
C2748 C2734 1.377 . S
C2748 C2747 1.373 . S
C2749 C2733 1.377 . S
C2749 C2747 1.389 . S
C2749 C2750 1.524 . S
C2750 C2749 1.524 . S
C2750 C2751 1.397 . S
C2750 C2755 1.363 . S
C2751 H2722 0.950 . S
C2751 C2750 1.397 . S
C2751 C2752 1.334 . S
C2752 H2723 0.950 . S
C2752 C2751 1.334 . S
C2752 C2753 1.287 . S
C2753 C2752 1.287 . S
C2753 C2754 1.524 . S
C2753 H2756 0.999 . S
C2754 H2724 0.950 . S
C2754 C2753 1.524 . S
C2754 C2755 1.415 . S
C2755 H2725 0.950 . S
C2755 C2750 1.363 . S
C2755 C2754 1.415 . S
H2756 C2753 0.999 . S
H2757 C2738 0.913 . S
H2758 C2776 0.951 . S
H2759 C2778 0.951 . S
H2760 C2780 0.950 . S
H2761 C2781 0.950 . S
H2762 C2783 0.950 . S
H2763 C2786 0.950 . S
H2764 C2787 0.950 . S
H2765 C2789 0.950 . S
H2766 C2790 0.950 . S
H2767 C2791 0.951 . S
H2768 C2793 0.951 . S
H2769 C2795 0.950 . S
H2770 C2796 0.950 . S
H2771 C2798 0.950 . S
H2772 C2801 0.950 . S
H2773 C2802 0.950 . S
H2774 C2804 0.950 . S
H2775 C2805 0.950 . S
C2776 H2758 0.951 . S
C2776 C2777 1.366 . S
C2776 C2778 1.388 . S
C2777 C2776 1.366 . S
C2777 C2781 1.385 . S
C2778 H2759 0.951 . S
C2778 C2776 1.388 . S
C2778 C2779 1.366 . S
C2779 C2778 1.366 . S
C2779 C2780 1.414 . S
C2779 C2782 1.499 . S
C2780 H2760 0.950 . S
C2780 C2779 1.414 . S
C2780 C2781 1.374 . S
C2781 H2761 0.950 . S
C2781 C2777 1.385 . S
C2781 C2780 1.374 . S
C2782 C2779 1.499 . S
C2782 C2783 1.373 . S
C2782 C2784 1.389 . S
C2783 H2762 0.950 . S
C2783 C2782 1.373 . S
C2783 C2799 1.377 . S
C2784 C2782 1.389 . S
C2784 C2785 1.524 . S
C2784 C2798 1.377 . S
C2785 C2784 1.524 . S
C2785 C2786 1.397 . S
C2785 C2790 1.363 . S
C2786 H2763 0.950 . S
C2786 C2785 1.397 . S
C2786 C2787 1.334 . S
C2787 H2764 0.950 . S
C2787 C2786 1.334 . S
C2787 C2788 1.287 . S
C2788 C2787 1.287 . S
C2788 C2789 1.524 . S
C2788 H2807 0.913 . S
C2789 H2765 0.950 . S
C2789 C2788 1.524 . S
C2789 C2790 1.415 . S
C2790 H2766 0.950 . S
C2790 C2785 1.363 . S
C2790 C2789 1.415 . S
C2791 H2767 0.951 . S
C2791 C2792 1.366 . S
C2791 C2793 1.388 . S
C2792 C2791 1.366 . S
C2792 C2796 1.385 . S
C2793 H2768 0.951 . S
C2793 C2791 1.388 . S
C2793 C2794 1.366 . S
C2794 C2793 1.366 . S
C2794 C2795 1.414 . S
C2794 C2797 1.499 . S
C2795 H2769 0.950 . S
C2795 C2794 1.414 . S
C2795 C2796 1.374 . S
C2796 H2770 0.950 . S
C2796 C2792 1.385 . S
C2796 C2795 1.374 . S
C2797 C2794 1.499 . S
C2797 C2798 1.373 . S
C2797 C2799 1.389 . S
C2798 H2771 0.950 . S
C2798 C2784 1.377 . S
C2798 C2797 1.373 . S
C2799 C2783 1.377 . S
C2799 C2797 1.389 . S
C2799 C2800 1.524 . S
C2800 C2799 1.524 . S
C2800 C2801 1.397 . S
C2800 C2805 1.363 . S
C2801 H2772 0.950 . S
C2801 C2800 1.397 . S
C2801 C2802 1.334 . S
C2802 H2773 0.950 . S
C2802 C2801 1.334 . S
C2802 C2803 1.287 . S
C2803 C2802 1.287 . S
C2803 C2804 1.524 . S
C2803 H2806 0.999 . S
C2804 H2774 0.950 . S
C2804 C2803 1.524 . S
C2804 C2805 1.415 . S
C2805 H2775 0.950 . S
C2805 C2800 1.363 . S
C2805 C2804 1.415 . S
H2806 C2803 0.999 . S
H2807 C2788 0.913 . S
H2808 C2826 0.951 . S
H2809 C2828 0.951 . S
H2810 C2830 0.950 . S
H2811 C2831 0.950 . S
H2812 C2833 0.950 . S
H2813 C2836 0.950 . S
H2814 C2837 0.950 . S
H2815 C2839 0.950 . S
H2816 C2840 0.950 . S
H2817 C2841 0.951 . S
H2818 C2843 0.951 . S
H2819 C2845 0.950 . S
H2820 C2846 0.950 . S
H2821 C2848 0.950 . S
H2822 C2851 0.950 . S
H2823 C2852 0.950 . S
H2824 C2854 0.950 . S
H2825 C2855 0.950 . S
C2826 H2808 0.951 . S
C2826 C2827 1.366 . S
C2826 C2828 1.388 . S
C2827 C2826 1.366 . S
C2827 C2831 1.385 . S
C2828 H2809 0.951 . S
C2828 C2826 1.388 . S
C2828 C2829 1.366 . S
C2829 C2828 1.366 . S
C2829 C2830 1.414 . S
C2829 C2832 1.499 . S
C2830 H2810 0.950 . S
C2830 C2829 1.414 . S
C2830 C2831 1.374 . S
C2831 H2811 0.950 . S
C2831 C2827 1.385 . S
C2831 C2830 1.374 . S
C2832 C2829 1.499 . S
C2832 C2833 1.373 . S
C2832 C2834 1.389 . S
C2833 H2812 0.950 . S
C2833 C2832 1.373 . S
C2833 C2849 1.377 . S
C2834 C2832 1.389 . S
C2834 C2835 1.524 . S
C2834 C2848 1.377 . S
C2835 C2834 1.524 . S
C2835 C2836 1.397 . S
C2835 C2840 1.363 . S
C2836 H2813 0.950 . S
C2836 C2835 1.397 . S
C2836 C2837 1.334 . S
C2837 H2814 0.950 . S
C2837 C2836 1.334 . S
C2837 C2838 1.287 . S
C2838 C2837 1.287 . S
C2838 C2839 1.524 . S
C2838 H2857 0.913 . S
C2839 H2815 0.950 . S
C2839 C2838 1.524 . S
C2839 C2840 1.415 . S
C2840 H2816 0.950 . S
C2840 C2835 1.363 . S
C2840 C2839 1.415 . S
C2841 H2817 0.951 . S
C2841 C2842 1.366 . S
C2841 C2843 1.388 . S
C2842 C2841 1.366 . S
C2842 C2846 1.385 . S
C2843 H2818 0.951 . S
C2843 C2841 1.388 . S
C2843 C2844 1.366 . S
C2844 C2843 1.366 . S
C2844 C2845 1.414 . S
C2844 C2847 1.499 . S
C2845 H2819 0.950 . S
C2845 C2844 1.414 . S
C2845 C2846 1.374 . S
C2846 H2820 0.950 . S
C2846 C2842 1.385 . S
C2846 C2845 1.374 . S
C2847 C2844 1.499 . S
C2847 C2848 1.373 . S
C2847 C2849 1.389 . S
C2848 H2821 0.950 . S
C2848 C2834 1.377 . S
C2848 C2847 1.373 . S
C2849 C2833 1.377 . S
C2849 C2847 1.389 . S
C2849 C2850 1.524 . S
C2850 C2849 1.524 . S
C2850 C2851 1.397 . S
C2850 C2855 1.363 . S
C2851 H2822 0.950 . S
C2851 C2850 1.397 . S
C2851 C2852 1.334 . S
C2852 H2823 0.950 . S
C2852 C2851 1.334 . S
C2852 C2853 1.287 . S
C2853 C2852 1.287 . S
C2853 C2854 1.524 . S
C2853 H2856 0.999 . S
C2854 H2824 0.950 . S
C2854 C2853 1.524 . S
C2854 C2855 1.415 . S
C2855 H2825 0.950 . S
C2855 C2850 1.363 . S
C2855 C2854 1.415 . S
H2856 C2853 0.999 . S
H2857 C2838 0.913 . S
H2858 C2876 0.951 . S
H2859 C2878 0.951 . S
H2860 C2880 0.950 . S
H2861 C2881 0.950 . S
H2862 C2883 0.950 . S
H2863 C2886 0.950 . S
H2864 C2887 0.950 . S
H2865 C2889 0.950 . S
H2866 C2890 0.950 . S
H2867 C2891 0.951 . S
H2868 C2893 0.951 . S
H2869 C2895 0.950 . S
H2870 C2896 0.950 . S
H2871 C2898 0.950 . S
H2872 C2901 0.950 . S
H2873 C2902 0.950 . S
H2874 C2904 0.950 . S
H2875 C2905 0.950 . S
C2876 H2858 0.951 . S
C2876 C2877 1.366 . S
C2876 C2878 1.388 . S
C2877 C2876 1.366 . S
C2877 C2881 1.385 . S
C2878 H2859 0.951 . S
C2878 C2876 1.388 . S
C2878 C2879 1.366 . S
C2879 C2878 1.366 . S
C2879 C2880 1.414 . S
C2879 C2882 1.499 . S
C2880 H2860 0.950 . S
C2880 C2879 1.414 . S
C2880 C2881 1.374 . S
C2881 H2861 0.950 . S
C2881 C2877 1.385 . S
C2881 C2880 1.374 . S
C2882 C2879 1.499 . S
C2882 C2883 1.373 . S
C2882 C2884 1.389 . S
C2883 H2862 0.950 . S
C2883 C2882 1.373 . S
C2883 C2899 1.377 . S
C2884 C2882 1.389 . S
C2884 C2885 1.524 . S
C2884 C2898 1.377 . S
C2885 C2884 1.524 . S
C2885 C2886 1.397 . S
C2885 C2890 1.363 . S
C2886 H2863 0.950 . S
C2886 C2885 1.397 . S
C2886 C2887 1.334 . S
C2887 H2864 0.950 . S
C2887 C2886 1.334 . S
C2887 C2888 1.287 . S
C2888 C2887 1.287 . S
C2888 C2889 1.524 . S
C2888 H2907 0.913 . S
C2889 H2865 0.950 . S
C2889 C2888 1.524 . S
C2889 C2890 1.415 . S
C2890 H2866 0.950 . S
C2890 C2885 1.363 . S
C2890 C2889 1.415 . S
C2891 H2867 0.951 . S
C2891 C2892 1.366 . S
C2891 C2893 1.388 . S
C2892 C2891 1.366 . S
C2892 C2896 1.385 . S
C2893 H2868 0.951 . S
C2893 C2891 1.388 . S
C2893 C2894 1.366 . S
C2894 C2893 1.366 . S
C2894 C2895 1.414 . S
C2894 C2897 1.499 . S
C2895 H2869 0.950 . S
C2895 C2894 1.414 . S
C2895 C2896 1.374 . S
C2896 H2870 0.950 . S
C2896 C2892 1.385 . S
C2896 C2895 1.374 . S
C2897 C2894 1.499 . S
C2897 C2898 1.373 . S
C2897 C2899 1.389 . S
C2898 H2871 0.950 . S
C2898 C2884 1.377 . S
C2898 C2897 1.373 . S
C2899 C2883 1.377 . S
C2899 C2897 1.389 . S
C2899 C2900 1.524 . S
C2900 C2899 1.524 . S
C2900 C2901 1.397 . S
C2900 C2905 1.363 . S
C2901 H2872 0.950 . S
C2901 C2900 1.397 . S
C2901 C2902 1.334 . S
C2902 H2873 0.950 . S
C2902 C2901 1.334 . S
C2902 C2903 1.287 . S
C2903 C2902 1.287 . S
C2903 C2904 1.524 . S
C2903 H2906 0.999 . S
C2904 H2874 0.950 . S
C2904 C2903 1.524 . S
C2904 C2905 1.415 . S
C2905 H2875 0.950 . S
C2905 C2900 1.363 . S
C2905 C2904 1.415 . S
H2906 C2903 0.999 . S
H2907 C2888 0.913 . S
H2908 C2926 0.951 . S
H2909 C2928 0.951 . S
H2910 C2930 0.950 . S
H2911 C2931 0.950 . S
H2912 C2933 0.950 . S
H2913 C2936 0.950 . S
H2914 C2937 0.950 . S
H2915 C2939 0.950 . S
H2916 C2940 0.950 . S
H2917 C2941 0.951 . S
H2918 C2943 0.951 . S
H2919 C2945 0.950 . S
H2920 C2946 0.950 . S
H2921 C2948 0.950 . S
H2922 C2951 0.950 . S
H2923 C2952 0.950 . S
H2924 C2954 0.950 . S
H2925 C2955 0.950 . S
C2926 H2908 0.951 . S
C2926 C2927 1.366 . S
C2926 C2928 1.388 . S
C2927 C2926 1.366 . S
C2927 C2931 1.385 . S
C2928 H2909 0.951 . S
C2928 C2926 1.388 . S
C2928 C2929 1.366 . S
C2929 C2928 1.366 . S
C2929 C2930 1.414 . S
C2929 C2932 1.499 . S
C2930 H2910 0.950 . S
C2930 C2929 1.414 . S
C2930 C2931 1.374 . S
C2931 H2911 0.950 . S
C2931 C2927 1.385 . S
C2931 C2930 1.374 . S
C2932 C2929 1.499 . S
C2932 C2933 1.373 . S
C2932 C2934 1.389 . S
C2933 H2912 0.950 . S
C2933 C2932 1.373 . S
C2933 C2949 1.377 . S
C2934 C2932 1.389 . S
C2934 C2935 1.524 . S
C2934 C2948 1.377 . S
C2935 C2934 1.524 . S
C2935 C2936 1.397 . S
C2935 C2940 1.363 . S
C2936 H2913 0.950 . S
C2936 C2935 1.397 . S
C2936 C2937 1.334 . S
C2937 H2914 0.950 . S
C2937 C2936 1.334 . S
C2937 C2938 1.287 . S
C2938 C2937 1.287 . S
C2938 C2939 1.524 . S
C2938 H2957 0.913 . S
C2939 H2915 0.950 . S
C2939 C2938 1.524 . S
C2939 C2940 1.415 . S
C2940 H2916 0.950 . S
C2940 C2935 1.363 . S
C2940 C2939 1.415 . S
C2941 H2917 0.951 . S
C2941 C2942 1.366 . S
C2941 C2943 1.388 . S
C2942 C2941 1.366 . S
C2942 C2946 1.385 . S
C2943 H2918 0.951 . S
C2943 C2941 1.388 . S
C2943 C2944 1.366 . S
C2944 C2943 1.366 . S
C2944 C2945 1.414 . S
C2944 C2947 1.499 . S
C2945 H2919 0.950 . S
C2945 C2944 1.414 . S
C2945 C2946 1.374 . S
C2946 H2920 0.950 . S
C2946 C2942 1.385 . S
C2946 C2945 1.374 . S
C2947 C2944 1.499 . S
C2947 C2948 1.373 . S
C2947 C2949 1.389 . S
C2948 H2921 0.950 . S
C2948 C2934 1.377 . S
C2948 C2947 1.373 . S
C2949 C2933 1.377 . S
C2949 C2947 1.389 . S
C2949 C2950 1.524 . S
C2950 C2949 1.524 . S
C2950 C2951 1.397 . S
C2950 C2955 1.363 . S
C2951 H2922 0.950 . S
C2951 C2950 1.397 . S
C2951 C2952 1.334 . S
C2952 H2923 0.950 . S
C2952 C2951 1.334 . S
C2952 C2953 1.287 . S
C2953 C2952 1.287 . S
C2953 C2954 1.524 . S
C2953 H2956 0.999 . S
C2954 H2924 0.950 . S
C2954 C2953 1.524 . S
C2954 C2955 1.415 . S
C2955 H2925 0.950 . S
C2955 C2950 1.363 . S
C2955 C2954 1.415 . S
H2956 C2953 0.999 . S
H2957 C2938 0.913 . S
H2958 C2976 0.951 . S
H2959 C2978 0.951 . S
H2960 C2980 0.950 . S
H2961 C2981 0.950 . S
H2962 C2983 0.950 . S
H2963 C2986 0.950 . S
H2964 C2987 0.950 . S
H2965 C2989 0.950 . S
H2966 C2990 0.950 . S
H2967 C2991 0.951 . S
H2968 C2993 0.951 . S
H2969 C2995 0.950 . S
H2970 C2996 0.950 1_565 S
H2971 C2998 0.950 . S
H2972 C3001 0.950 . S
H2973 C3002 0.950 . S
H2974 C3004 0.950 . S
H2975 C3005 0.950 . S
C2976 H2958 0.951 . S
C2976 C2977 1.366 . S
C2976 C2978 1.388 . S
C2977 C2976 1.366 . S
C2977 C2981 1.385 . S
C2978 H2959 0.951 . S
C2978 C2976 1.388 . S
C2978 C2979 1.366 . S
C2979 C2978 1.366 . S
C2979 C2980 1.414 . S
C2979 C2982 1.499 . S
C2980 H2960 0.950 . S
C2980 C2979 1.414 . S
C2980 C2981 1.374 . S
C2981 H2961 0.950 . S
C2981 C2977 1.385 . S
C2981 C2980 1.374 . S
C2982 C2979 1.499 . S
C2982 C2983 1.373 . S
C2982 C2984 1.389 . S
C2983 H2962 0.950 . S
C2983 C2982 1.373 . S
C2983 C2999 1.377 . S
C2984 C2982 1.389 . S
C2984 C2985 1.524 . S
C2984 C2998 1.377 . S
C2985 C2984 1.524 . S
C2985 C2986 1.397 . S
C2985 C2990 1.363 . S
C2986 H2963 0.950 . S
C2986 C2985 1.397 . S
C2986 C2987 1.334 . S
C2987 H2964 0.950 . S
C2987 C2986 1.334 . S
C2987 C2988 1.287 . S
C2988 C2987 1.287 . S
C2988 C2989 1.524 . S
C2988 H3007 0.913 . S
C2989 H2965 0.950 . S
C2989 C2988 1.524 . S
C2989 C2990 1.415 . S
C2990 H2966 0.950 . S
C2990 C2985 1.363 . S
C2990 C2989 1.415 . S
C2991 H2967 0.951 . S
C2991 C2992 1.366 . S
C2991 C2993 1.388 . S
C2992 C2991 1.366 . S
C2992 C2996 1.385 . S
C2993 H2968 0.951 . S
C2993 C2991 1.388 . S
C2993 C2994 1.366 . S
C2994 C2993 1.366 . S
C2994 C2995 1.414 . S
C2994 C2997 1.499 . S
C2995 H2969 0.950 . S
C2995 C2994 1.414 . S
C2995 C2996 1.374 . S
C2996 H2970 0.950 1_545 S
C2996 C2992 1.385 . S
C2996 C2995 1.374 . S
C2997 C2994 1.499 . S
C2997 C2998 1.373 . S
C2997 C2999 1.389 . S
C2998 H2971 0.950 . S
C2998 C2984 1.377 . S
C2998 C2997 1.373 . S
C2999 C2983 1.377 . S
C2999 C2997 1.389 . S
C2999 C3000 1.524 . S
C3000 C2999 1.524 . S
C3000 C3001 1.397 . S
C3000 C3005 1.363 . S
C3001 H2972 0.950 . S
C3001 C3000 1.397 . S
C3001 C3002 1.334 . S
C3002 H2973 0.950 . S
C3002 C3001 1.334 . S
C3002 C3003 1.287 . S
C3003 C3002 1.287 . S
C3003 C3004 1.524 . S
C3003 H3006 0.999 . S
C3004 H2974 0.950 . S
C3004 C3003 1.524 . S
C3004 C3005 1.415 . S
C3005 H2975 0.950 . S
C3005 C3000 1.363 . S
C3005 C3004 1.415 . S
H3006 C3003 0.999 . S
H3007 C2988 0.913 . S
C1427 C1289 1.638 . S
C1442 C29 1.640 . S
C1477 C196 1.638 . S
C1492 C20 1.640 . S
C1527 C997 1.638 . S
C1542 C137 1.640 . S
C1577 C145 1.640 . S
C1592 C645 1.638 . S
C1627 C233 1.637 . S
C1642 C1085 1.640 . S
C1677 C841 1.640 . S
C1692 C293 1.638 . S
C1727 C313 1.638 . S
C1742 C497 1.640 . S
C1777 C900 1.638 . S
C1792 C372 1.640 . S
C1827 C381 1.640 . S
C1842 C548 1.638 . S
C1877 C1349 1.638 . S
C1892 C489 1.640 . S
C1927 C733 1.640 . S
C1942 C585 1.638 . S
C1977 C1201 1.640 . S
C1992 C665 1.638 . S
C2027 C724 1.640 . S
C2042 C937 1.638 . S
C2077 C1369 1.638 . S
C2092 C849 1.640 . S
C2127 C1017 1.638 . S
C2142 C1193 1.640 . S
C2177 C1252 1.637 . S
C2192 C1076 1.639 . S
C2227 C460 0.790 . S
C2242 C57 0.790 . S
C2277 C49 0.790 . S
C2292 C469 0.790 . S
C2327 C108 0.790 . S
C2342 C401 0.791 . S
C2377 C409 0.791 . S
C2392 C117 0.790 . S
C2427 C636 0.802 . S
C2442 C205 0.802 . S
C2477 C673 0.803 . S
C2492 C225 0.802 . S
C2527 C557 0.802 . S
C2542 C321 0.802 . S
C2577 C284 0.802 . S
C2592 C577 0.803 . S
C2627 C1173 0.790 . S
C2642 C761 0.791 . S
C2677 C753 0.791 . S
C2692 C1164 0.791 . S
C2727 C812 0.791 . S
C2742 C1113 0.790 . S
C2777 C1105 0.790 . S
C2792 C821 0.790 . S
C2827 C1377 0.803 . S
C2842 C929 0.802 . S
C2877 C1340 0.803 . S
C2892 C909 0.803 . S
C2927 C1025 0.802 . S
C2942 C1261 0.802 . S
C2977 C1281 0.802 . S
C2992 C988 0.802 . S
