# Generated by pormake.
# Topology lcy, (6)-cn, num edge types: 1
# Building blocks:
#     Node 0, Type 0, BuildingBlock: UKALOJ_clean_sbu_0, # of connection points: 6
#     Node 1, Type 0, BuildingBlock: UKALOJ_clean_sbu_0, # of connection points: 6
#     Node 2, Type 0, BuildingBlock: UKALOJ_clean_sbu_0, # of connection points: 6
#     Node 3, Type 0, BuildingBlock: UKALOJ_clean_sbu_0, # of connection points: 6
#     Edge 4, Type (0, 0), BuildingBlock: XUDNAN_clean_linker_2, # of connection points: 2
#     Edge 5, Type (0, 0), BuildingBlock: XUDNAN_clean_linker_2, # of connection points: 2
#     Edge 6, Type (0, 0), BuildingBlock: XUDNAN_clean_linker_2, # of connection points: 2
#     Edge 7, Type (0, 0), BuildingBlock: XUDNAN_clean_linker_2, # of connection points: 2
#     Edge 8, Type (0, 0), BuildingBlock: XUDNAN_clean_linker_2, # of connection points: 2
#     Edge 9, Type (0, 0), BuildingBlock: XUDNAN_clean_linker_2, # of connection points: 2
#     Edge 10, Type (0, 0), BuildingBlock: XUDNAN_clean_linker_2, # of connection points: 2
#     Edge 11, Type (0, 0), BuildingBlock: XUDNAN_clean_linker_2, # of connection points: 2
#     Edge 12, Type (0, 0), BuildingBlock: XUDNAN_clean_linker_2, # of connection points: 2
#     Edge 13, Type (0, 0), BuildingBlock: XUDNAN_clean_linker_2, # of connection points: 2
#     Edge 14, Type (0, 0), BuildingBlock: XUDNAN_clean_linker_2, # of connection points: 2
#     Edge 15, Type (0, 0), BuildingBlock: XUDNAN_clean_linker_2, # of connection points: 2
# Relax obj value: 0.341
# Max RMSD: 0.294
# Mean RMSD: 0.263
data_MOF--net-lcy--node1-UKALOJ_clean_sbu_0--edge1-XUDNAN_clean_linker_2
_symmetry_space_group_name_H-M    P1
_symmetry_Int_Tables_number       1
_symmetry_cell_setting            triclinic
loop_
_symmetry_equiv_pos_as_xyz
'x, y, z'
_cell_length_a     26.541692
_cell_length_b     27.055105
_cell_length_c     26.641031
_cell_angle_alpha  89.375185
_cell_angle_beta   100.13658
_cell_angle_gamma 99.084561
loop_
_atom_site_label
_atom_site_type_symbol
_atom_site_fract_x
_atom_site_fract_y
_atom_site_fract_z
_atom_type_partial_charge
Zn0 Zn 0.35813 0.43221 0.342 0.0
O1 O 0.34028 0.49623 0.37703 0.0
C2 C 0.45339 0.49393 0.3183 0.0
Zn3 Zn 0.42671 0.43073 0.40367 0.0
C4 C 0.36917 0.51313 0.41852 0.0
O5 O 0.40792 0.49263 0.43737 0.0
C6 C 0.4142 0.34782 0.33035 0.0
O7 O 0.37645 0.38223 0.44514 0.0
O8 O 0.31076 0.38866 0.38337 0.0
N9 N 0.48943 0.43029 0.4609 0.0
C10 C 0.51532 0.39316 0.47982 0.0
C11 C 0.5571 0.46128 0.5153 0.0
N12 N 0.5154 0.47254 0.48317 0.0
N13 N 0.55809 0.41174 0.51352 0.0
C14 C 0.29079 0.46558 0.24484 0.0
C15 C 0.24271 0.39716 0.21796 0.0
N16 N 0.29817 0.4318 0.28188 0.0
N17 N 0.2677 0.38943 0.26532 0.0
N18 N 0.25682 0.44464 0.20417 0.0
H19 H 0.33343 0.53099 0.28822 0.0
H20 H 0.28569 0.54329 0.23414 0.0
H21 H 0.34512 0.5261 0.22389 0.0
C22 C 0.31543 0.51953 0.24855 0.0
C23 C 0.49738 0.33858 0.46758 0.0
H24 H 0.45447 0.33035 0.45898 0.0
H25 H 0.51171 0.31536 0.49995 0.0
H26 H 0.51293 0.32821 0.43381 0.0
O27 O 0.44403 0.36833 0.36938 0.0
O28 O 0.37526 0.36716 0.30988 0.0
C29 C 0.32819 0.37231 0.42668 0.0
O30 O 0.40648 0.47646 0.30114 0.0
O31 O 0.47431 0.48071 0.36197 0.0
Zn32 Zn 0.9138 0.15178 0.62203 0.0
O33 O 0.86114 0.20457 0.60205 0.0
C34 C 0.95549 0.21774 0.71123 0.0
Zn35 Zn 0.87262 0.12557 0.68534 0.0
C36 C 0.82557 0.20604 0.62841 0.0
O37 O 0.82115 0.17613 0.66509 0.0
C38 C 0.95863 0.06724 0.67914 0.0
O39 O 0.82028 0.06763 0.63807 0.0
O40 O 0.86123 0.09796 0.57668 0.0
N41 N 0.84385 0.1052 0.74993 0.0
C42 C 0.7976 0.0985 0.76561 0.0
C43 C 0.85453 0.0844 0.82894 0.0
N44 N 0.87893 0.09659 0.78951 0.0
N45 N 0.80339 0.08532 0.81529 0.0
C46 C 0.98645 0.20628 0.55146 0.0
C47 C 0.98971 0.14498 0.50334 0.0
N48 N 0.95008 0.1683 0.56088 0.0
N49 N 0.95154 0.13065 0.53008 0.0
N50 N 0.01233 0.1923 0.5161 0.0
H51 H 0.9662 0.26488 0.59454 0.0
H52 H 0.0136 0.28575 0.55505 0.0
H53 H 0.03252 0.25272 0.61207 0.0
C54 C 0.0002 0.25528 0.58003 0.0
C55 C 0.74734 0.10309 0.73168 0.0
H56 H 0.74996 0.09669 0.69123 0.0
H57 H 0.73876 0.14154 0.73566 0.0
H58 H 0.71527 0.07606 0.74268 0.0
O59 O 0.92474 0.07337 0.70558 0.0
O60 O 0.96461 0.09659 0.64227 0.0
C61 C 0.82575 0.06739 0.59143 0.0
O62 O 0.96525 0.20842 0.66773 0.0
O63 O 0.92248 0.18653 0.72942 0.0
Zn64 Zn 0.08147 0.66196 0.84465 0.0
O65 O 0.13767 0.71065 0.89563 0.0
C66 C 0.0688 0.73948 0.76513 0.0
Zn67 Zn 0.13732 0.66058 0.7931 0.0
C68 C 0.1805 0.72837 0.88241 0.0
O69 O 0.18815 0.71754 0.83854 0.0
C70 C 0.04378 0.58353 0.76251 0.0
O71 O 0.17384 0.60663 0.84014 0.0
O72 O 0.11037 0.60293 0.88376 0.0
N73 N 0.1896 0.66664 0.74528 0.0
C74 C 0.20508 0.63572 0.71383 0.0
C75 C 0.24583 0.7091 0.70571 0.0
N76 N 0.21498 0.71208 0.74004 0.0
N77 N 0.24032 0.66168 0.6884 0.0
C78 C 0.01384 0.69675 0.91682 0.0
C79 C 0.95983 0.63042 0.92217 0.0
N80 N 0.02782 0.66011 0.89099 0.0
N81 N 0.99448 0.61887 0.89467 0.0
N82 N 0.97089 0.67913 0.93624 0.0
H83 H 0.08398 0.74498 0.94805 0.0
H84 H 0.02778 0.77221 0.94996 0.0
H85 H 0.04975 0.76667 0.88995 0.0
C86 C 0.045 0.74821 0.92652 0.0
C87 C 0.18745 0.58031 0.71023 0.0
H88 H 0.17681 0.5661 0.74678 0.0
H89 H 0.21821 0.5607 0.70041 0.0
H90 H 0.15265 0.57201 0.67994 0.0
O91 O 0.08756 0.59934 0.74995 0.0
O92 O 0.0286 0.60833 0.79577 0.0
C93 C 0.15152 0.58808 0.87629 0.0
O94 O 0.05269 0.72368 0.80542 0.0
O95 O 0.10134 0.71697 0.74845 0.0
Zn96 Zn 0.61673 0.87723 0.1624 0.0
O97 O 0.55842 0.83832 0.10381 0.0
C98 C 0.63302 0.97001 0.10001 0.0
Zn99 Zn 0.56335 0.93024 0.16976 0.0
C100 C 0.51823 0.85734 0.08615 0.0
O101 O 0.51254 0.89865 0.10447 0.0
C102 C 0.6584 0.9454 0.25129 0.0
O103 O 0.52595 0.87354 0.21425 0.0
O104 O 0.58812 0.82871 0.21381 0.0
N105 N 0.51062 0.97576 0.17615 0.0
C106 C 0.50054 1.00193 0.21492 0.0
C107 C 0.45112 0.01973 0.1472 0.0
N108 N 0.47953 0.98654 0.13429 0.0
N109 N 0.46324 0.02974 0.19762 0.0
C110 C 0.68736 0.8221 0.11002 0.0
C111 C 0.73461 0.7936 0.17334 0.0
N112 N 0.66871 0.83183 0.15212 0.0
N113 N 0.69781 0.81367 0.19138 0.0
N114 N 0.72915 0.79892 0.12245 0.0
H115 H 0.62141 0.83116 0.05196 0.0
H116 H 0.67244 0.80699 0.02887 0.0
H117 H 0.68007 0.87181 0.04676 0.0
C118 C 0.66379 0.8335 0.05648 0.0
C119 C 0.53103 1.00381 0.26808 0.0
H120 H 0.53875 0.9658 0.27956 0.0
H121 H 0.51111 0.01852 0.29637 0.0
H122 H 0.56851 0.02885 0.26884 0.0
O123 O 0.61532 0.96083 0.23718 0.0
O124 O 0.67134 0.91333 0.22355 0.0
C125 C 0.54644 0.83489 0.22799 0.0
O126 O 0.64593 0.92727 0.10982 0.0
O127 O 0.59949 0.98442 0.12274 0.0
H128 H 0.10486 0.53086 0.94467 0.0
H129 H 0.2534 0.57413 0.89675 0.0
H130 H 0.29626 0.53519 0.9738 0.0
H131 H 0.14651 0.56193 0.07026 0.0
H132 H 0.10625 0.51114 0.09545 0.0
H133 H 0.08582 0.53353 0.03253 0.0
H134 H 0.07779 0.4445 0.99411 0.0
H135 H 0.09709 0.42138 0.05715 0.0
H136 H 0.13223 0.41116 0.00713 0.0
H137 H 0.32375 0.50245 0.06158 0.0
H138 H 0.33323 0.4729 0.15047 0.0
H139 H 0.16688 0.45306 0.14156 0.0
C140 C 0.14622 0.53072 0.94945 0.0
C141 C 0.17584 0.5552 0.91459 0.0
C142 C 0.22991 0.55486 0.92254 0.0
C143 C 0.25456 0.53311 0.96635 0.0
C144 C 0.2244 0.51147 1.00125 0.0
C145 C 0.17125 0.50937 0.99279 0.0
C146 C 0.14803 0.488 0.03794 0.0
C147 C 0.12003 0.52592 0.06034 0.0
C148 C 0.11164 0.43829 0.02319 0.0
C149 C 0.19659 0.4798 0.07399 0.0
C150 C 0.24021 0.49324 0.05199 0.0
C151 C 0.28983 0.49147 0.07893 0.0
C152 C 0.29492 0.47539 0.12948 0.0
C153 C 0.25076 0.46191 0.1527 0.0
C154 C 0.20102 0.46344 0.12439 0.0
H155 H 0.65561 0.02382 0.31617 0.0
H156 H 0.72806 0.89219 0.30535 0.0
H157 H 0.76891 0.90306 0.39582 0.0
H158 H 0.76595 0.0951 0.39767 0.0
H159 H 0.72667 0.12475 0.43314 0.0
H160 H 0.70198 0.10513 0.36794 0.0
H161 H 0.62166 0.05285 0.39654 0.0
H162 H 0.647 0.07144 0.46204 0.0
H163 H 0.6307 1.00596 0.44447 0.0
H164 H 0.80153 0.92725 0.48786 0.0
H165 H 0.83625 0.9723 0.57017 0.0
H166 H 0.7458 0.08953 0.52134 0.0
C167 C 0.68026 0.99746 0.33277 0.0
C168 C 0.6884 0.95706 0.30349 0.0
C169 C 0.72142 0.92368 0.32669 0.0
C170 C 0.74435 0.92915 0.37834 0.0
C171 C 0.73443 0.96849 0.40645 0.0
C172 C 0.7042 1.00281 0.38425 0.0
C173 C 0.70267 0.04368 0.42226 0.0
C174 C 0.72571 0.0952 0.40419 0.0
C175 C 0.6472 0.04344 0.43188 0.0
C176 C 0.73707 0.02712 0.46908 0.0
C177 C 0.7541 0.98305 0.45942 0.0
C178 C 0.78802 0.96148 0.49609 0.0
C179 C 0.80699 0.98684 0.54299 0.0
C180 C 0.79211 0.03322 0.55259 0.0
C181 C 0.75593 0.053 0.5156 0.0
H182 H 0.2002 0.59673 0.60838 0.0
H183 H 0.33945 0.69367 0.68072 0.0
H184 H 0.38437 0.67432 0.61146 0.0
H185 H 0.26511 0.50112 0.56829 0.0
H186 H 0.22047 0.48779 0.50901 0.0
H187 H 0.19885 0.51117 0.56318 0.0
H188 H 0.16789 0.58427 0.50881 0.0
H189 H 0.19035 0.56158 0.45468 0.0
H190 H 0.21321 0.62494 0.47782 0.0
H191 H 0.41555 0.64157 0.53836 0.0
H192 H 0.43361 0.59143 0.46858 0.0
H193 H 0.27412 0.5167 0.44166 0.0
C194 C 0.24039 0.61303 0.61009 0.0
C195 C 0.2668 0.64609 0.65024 0.0
C196 C 0.31886 0.66807 0.65028 0.0
C197 C 0.34449 0.65756 0.61107 0.0
C198 C 0.31731 0.62525 0.57179 0.0
C199 C 0.26663 0.60288 0.57111 0.0
C200 C 0.24727 0.56782 0.52542 0.0
C201 C 0.23206 0.51378 0.54251 0.0
C202 C 0.20199 0.58575 0.48956 0.0
C203 C 0.2954 0.57333 0.50122 0.0
C204 C 0.33511 0.60713 0.52839 0.0
C205 C 0.38463 0.61566 0.51619 0.0
C206 C 0.39447 0.58732 0.47644 0.0
C207 C 0.35487 0.55139 0.44932 0.0
C208 C 0.30436 0.54542 0.4607 0.0
H209 H 0.71552 0.95549 0.05769 0.0
H210 H 0.59689 0.05023 0.04841 0.0
H211 H 0.62538 0.0899 0.97144 0.0
H212 H 0.81373 0.04233 0.0147 0.0
H213 H 0.83437 0.99547 0.97884 0.0
H214 H 0.80622 0.97799 0.03442 0.0
H215 H 0.73715 0.91187 0.98028 0.0
H216 H 0.76503 0.92938 0.92456 0.0
H217 H 0.69728 0.93105 0.92389 0.0
H218 H 0.66749 0.11733 0.89273 0.0
H219 H 0.72138 0.13228 0.82505 0.0
H220 H 0.80509 0.0132 0.88472 0.0
C221 C 0.69525 0.98446 0.03958 0.0
C222 C 0.65365 0.99939 0.05879 0.0
C223 C 0.62911 0.03837 0.03449 0.0
C224 C 0.64474 0.06077 0.99053 0.0
C225 C 0.68462 0.04343 0.97139 0.0
C226 C 0.70951 1.0062 0.9955 0.0
C227 C 0.75014 0.9927 0.9673 0.0
C228 C 0.80431 1.00277 1.00081 0.0
C229 C 0.73656 0.93802 0.94786 0.0
C230 C 0.74506 0.0287 0.92375 0.0
C231 C 0.70709 0.05769 0.92627 0.0
C232 C 0.69692 0.09441 0.89023 0.0
C233 C 0.72718 0.10225 0.8515 0.0
C234 C 0.7667 0.07321 0.84914 0.0
C235 C 0.77483 0.03563 0.88539 0.0
H236 H 0.04291 0.27969 0.47227 0.0
H237 H 0.09765 0.15083 0.54757 0.0
H238 H 0.1881 0.18699 0.54115 0.0
H239 H 0.1276 0.29401 0.38308 0.0
H240 H 0.13719 0.36148 0.38467 0.0
H241 H 0.07797 0.32656 0.39872 0.0
H242 H 0.09346 0.37358 0.48598 0.0
H243 H 0.15288 0.40841 0.4719 0.0
H244 H 0.15352 0.37302 0.52966 0.0
H245 H 0.27223 0.23657 0.52361 0.0
H246 H 0.34162 0.29192 0.48899 0.0
H247 H 0.23031 0.38732 0.42561 0.0
C248 C 0.07421 0.25959 0.48766 0.0
C249 C 0.06404 0.21285 0.51041 0.0
C250 C 0.10533 0.18673 0.52972 0.0
C251 C 0.15659 0.20715 0.5267 0.0
C252 C 0.16562 0.25373 0.50437 0.0
C253 C 0.1255 0.27947 0.48493 0.0
C254 C 0.14506 0.3274 0.46015 0.0
C255 C 0.12051 0.32731 0.4033 0.0
C256 C 0.13567 0.37331 0.48865 0.0
C257 C 0.20211 0.32387 0.46737 0.0
C258 C 0.21362 0.2817 0.49378 0.0
C259 C 0.26381 0.26993 0.5032 0.0
C260 C 0.30294 0.30151 0.48373 0.0
C261 C 0.29092 0.34343 0.4547 0.0
C262 C 0.24031 0.35525 0.44764 0.0
H263 H 0.00603 0.80083 0.79639 0.0
H264 H 0.10125 0.7871 0.68202 0.0
H265 H 0.08608 0.87035 0.64938 0.0
H266 H 0.91121 0.86497 0.71666 0.0
H267 H 0.90412 0.90421 0.7684 0.0
H268 H 0.9212 0.8429 0.78121 0.0
H269 H 0.00245 0.88228 0.84503 0.0
H270 H 0.98606 0.94381 0.83192 0.0
H271 H 0.04868 0.93061 0.82394 0.0
H272 H 0.06257 0.95738 0.63087 0.0
H273 H 0.02754 0.03716 0.62423 0.0
H274 H 0.94825 0.99408 0.75103 0.0
C275 C 0.02317 0.81492 0.76401 0.0
C276 C 0.05471 0.78697 0.74168 0.0
C277 C 0.07669 0.80736 0.69966 0.0
C278 C 0.0685 0.85486 0.68098 0.0
C279 C 0.03816 0.88179 0.70458 0.0
C280 C 0.01541 0.86228 0.74487 0.0
C281 C 0.98467 0.89885 0.76368 0.0
C282 C 0.92687 0.87639 0.75707 0.0
C283 C 0.00681 0.91483 0.81945 0.0
C284 C 0.99374 0.94207 0.72781 0.0
C285 C 0.02483 0.93162 0.69408 0.0
C286 C 0.03816 0.96584 0.65712 0.0
C287 C 0.01829 0.0113 0.65381 0.0
C288 C 0.98531 0.02238 0.68722 0.0
C289 C 0.97366 0.98725 0.7251 0.0
H290 H 0.24803 0.818 0.89197 0.0
H291 H 0.21798 0.67162 0.9583 0.0
H292 H 0.30486 0.6863 0.01212 0.0
H293 H 0.38108 0.82275 0.88966 0.0
H294 H 0.40071 0.8874 0.90967 0.0
H295 H 0.33586 0.8664 0.87609 0.0
H296 H 0.29733 0.89921 0.94974 0.0
H297 H 0.36203 0.9216 0.98285 0.0
H298 H 0.31792 0.87966 0.01399 0.0
H299 H 0.39822 0.71262 0.05084 0.0
H300 H 0.48415 0.7577 0.09044 0.0
H301 H 0.45028 0.89159 0.00899 0.0
C302 C 0.25942 0.78986 0.91896 0.0
C303 C 0.22639 0.74399 0.92171 0.0
C304 C 0.24255 0.70742 0.95664 0.0
C305 C 0.29203 0.71512 0.98678 0.0
C306 C 0.32439 0.76014 0.98238 0.0
C307 C 0.30816 0.79773 0.95092 0.0
C308 C 0.3498 0.84367 0.95591 0.0
C309 C 0.36792 0.85574 0.90478 0.0
C310 C 0.33063 0.88869 0.97689 0.0
C311 C 0.39204 0.82562 0.99437 0.0
C312 C 0.37703 0.77681 0.00797 0.0
C313 C 0.41016 0.75113 0.04115 0.0
C314 C 0.45909 0.77681 0.06298 0.0
C315 C 0.47361 0.828 0.05277 0.0
C316 C 0.44003 0.85238 0.01727 0.0
H317 H 0.43736 0.31287 0.24248 0.0
H318 H 0.39796 0.26823 0.38925 0.0
H319 H 0.40006 0.17979 0.36856 0.0
H320 H 0.36667 0.2036 0.16899 0.0
H321 H 0.41635 0.2005 0.13141 0.0
H322 H 0.4083 0.25993 0.15614 0.0
H323 H 0.5047 0.27499 0.20045 0.0
H324 H 0.51311 0.21583 0.17555 0.0
H325 H 0.52903 0.22868 0.24323 0.0
H326 H 0.40494 0.09678 0.3316 0.0
H327 H 0.42331 0.02494 0.28462 0.0
H328 H 0.46694 0.12444 0.1657 0.0
C329 C 0.42904 0.2842 0.26988 0.0
C330 C 0.41744 0.29649 0.31722 0.0
C331 C 0.40719 0.2588 0.35284 0.0
C332 C 0.4079 0.2087 0.34132 0.0
C333 C 0.41952 0.19739 0.29427 0.0
C334 C 0.43068 0.23403 0.25939 0.0
C335 C 0.44558 0.21208 0.21321 0.0
C336 C 0.4069 0.21947 0.16457 0.0
C337 C 0.50142 0.2342 0.20783 0.0
C338 C 0.4412 0.15758 0.22776 0.0
C339 C 0.42526 0.14977 0.27424 0.0
C340 C 0.41815 0.10242 0.29548 0.0
C341 C 0.42902 0.06209 0.26898 0.0
C342 C 0.44802 0.06993 0.22277 0.0
C343 C 0.4529 0.11794 0.20135 0.0
H344 H 0.77181 0.23257 0.53694 0.0
H345 H 0.79992 0.26251 0.69985 0.0
H346 H 0.7368 0.32152 0.68751 0.0
H347 H 0.75023 0.35846 0.49496 0.0
H348 H 0.69851 0.3353 0.44337 0.0
H349 H 0.74966 0.29923 0.46435 0.0
H350 H 0.68142 0.2232 0.47881 0.0
H351 H 0.63009 0.25912 0.45833 0.0
H352 H 0.63576 0.23026 0.51993 0.0
H353 H 0.66974 0.37571 0.65815 0.0
H354 H 0.59902 0.41855 0.61344 0.0
H355 H 0.60998 0.34976 0.47061 0.0
C356 C 0.76524 0.25243 0.56968 0.0
C357 C 0.79089 0.24375 0.61924 0.0
C358 C 0.78057 0.26907 0.66158 0.0
C359 C 0.74496 0.30264 0.65495 0.0
C360 C 0.71946 0.30986 0.60577 0.0
C361 C 0.72881 0.28534 0.56383 0.0
C362 C 0.69335 0.29723 0.51566 0.0
C363 C 0.72482 0.32417 0.47733 0.0
C364 C 0.65807 0.24962 0.4918 0.0
C365 C 0.66259 0.33198 0.5372 0.0
C366 C 0.67875 0.33924 0.58915 0.0
C367 C 0.65656 0.3702 0.6175 0.0
C368 C 0.6166 0.39429 0.59202 0.0
C369 C 0.59875 0.38649 0.53912 0.0
C370 C 0.62228 0.35523 0.51137 0.0
H371 H 0.07535 0.50973 0.70888 0.0
H372 H 0.95492 0.53646 0.79179 0.0
H373 H 0.92425 0.44583 0.79244 0.0
H374 H 0.99477 0.40284 0.63014 0.0
H375 H 0.04905 0.37003 0.63164 0.0
H376 H 0.05934 0.43745 0.63465 0.0
H377 H 0.12554 0.43525 0.71825 0.0
H378 H 0.11435 0.36781 0.71621 0.0
H379 H 0.10566 0.40085 0.77167 0.0
H380 H 0.91231 0.35204 0.79303 0.0
H381 H 0.90709 0.26186 0.77678 0.0
H382 H 0.03211 0.29376 0.69007 0.0
C383 C 0.04152 0.49673 0.72576 0.0
C384 C 0.01768 0.53082 0.75027 0.0
C385 C 0.97392 0.51165 0.77253 0.0
C386 C 0.9564 0.45997 0.77356 0.0
C387 C 0.98235 0.42744 0.75149 0.0
C388 C 0.02293 0.44498 0.72657 0.0
C389 C 0.04354 0.40152 0.70556 0.0
C390 C 0.03622 0.40306 0.64702 0.0
C391 C 0.10067 0.40138 0.72935 0.0
C392 C 0.00862 0.35702 0.72318 0.0
C393 C 0.97417 0.37298 0.75025 0.0
C394 C 0.93874 0.33912 0.77137 0.0
C395 C 0.93659 0.2877 0.76248 0.0
C396 C 0.9691 0.27017 0.73199 0.0
C397 C 0.00658 0.3056 0.71336 0.0
H398 H 0.92255 0.64827 0.0148 0.0
H399 H 0.94132 0.76777 0.9068 0.0
H400 H 0.88444 0.81346 0.94627 0.0
H401 H 0.78686 0.64995 0.01072 0.0
H402 H 0.78847 0.63549 0.07713 0.0
H403 H 0.83405 0.61393 0.04314 0.0
H404 H 0.91024 0.65768 0.11043 0.0
H405 H 0.86488 0.67939 0.14463 0.0
H406 H 0.91512 0.72357 0.124 0.0
H407 H 0.8284 0.84708 0.9987 0.0
H408 H 0.76812 0.86276 0.05503 0.0
H409 H 0.77667 0.71741 0.12285 0.0
C410 C 0.91502 0.68435 1.00008 0.0
C411 C 0.93833 0.70591 0.95964 0.0
C412 C 0.92618 0.75216 0.93973 0.0
C413 C 0.89351 0.77803 0.96149 0.0
C414 C 0.87215 0.75634 1.00215 0.0
C415 C 0.88169 0.71024 0.02082 0.0
C416 C 0.85112 0.69401 0.06275 0.0
C417 C 0.81285 0.64547 0.0475 0.0
C418 C 0.88752 0.68834 0.11345 0.0
C419 C 0.82302 0.73829 0.06472 0.0
C420 C 0.83625 0.77399 0.02977 0.0
C421 C 0.81674 0.81891 0.02534 0.0
C422 C 0.78194 0.82718 0.05688 0.0
C423 C 0.76587 0.79018 0.09124 0.0
C424 C 0.78757 0.74566 0.09597 0.0
H425 H 0.56927 0.78185 0.31469 0.0
H426 H 0.45909 0.7852 0.17435 0.0
H427 H 0.433 0.69375 0.17773 0.0
H428 H 0.61094 0.67189 0.29747 0.0
H429 H 0.61151 0.64756 0.3608 0.0
H430 H 0.61941 0.71414 0.35125 0.0
H431 H 0.54084 0.72195 0.39465 0.0
H432 H 0.53467 0.6559 0.40708 0.0
H433 H 0.47995 0.68173 0.37349 0.0
H434 H 0.43466 0.60219 0.18613 0.0
H435 H 0.43065 0.51621 0.21825 0.0
H436 H 0.52674 0.57245 0.36134 0.0
C437 C 0.53756 0.76356 0.28643 0.0
C438 C 0.51584 0.79006 0.24433 0.0
C439 C 0.4754 0.76525 0.20718 0.0
C440 C 0.46115 0.71332 0.20828 0.0
C441 C 0.48624 0.68756 0.24812 0.0
C442 C 0.52098 0.71196 0.28831 0.0
C443 C 0.53986 0.67514 0.32782 0.0
C444 C 0.59894 0.67736 0.33471 0.0
C445 C 0.52279 0.6842 0.37877 0.0
C446 C 0.51153 0.62624 0.30256 0.0
C447 C 0.48243 0.63445 0.25576 0.0
C448 C 0.45551 0.59533 0.2236 0.0
C449 C 0.45391 0.54668 0.24198 0.0
C450 C 0.47658 0.53812 0.29289 0.0
C451 C 0.50868 0.57792 0.32238 0.0
loop_
_geom_bond_atom_site_label_1
_geom_bond_atom_site_label_2
_geom_bond_distance
_geom_bond_site_symmetry_2
_ccdc_geom_bond_type
Zn0 O1 2.055 . S
Zn0 O8 2.046 . S
Zn0 N16 2.036 . S
Zn0 O28 2.053 . S
Zn0 O30 2.066 . S
O1 Zn0 2.055 . S
O1 C4 1.259 . S
C2 O30 1.256 . S
C2 O31 1.244 . S
Zn3 O5 2.046 . S
Zn3 O7 2.055 . S
Zn3 N9 2.036 . S
Zn3 O27 2.066 . S
Zn3 O31 2.053 . S
C4 O1 1.259 . S
C4 O5 1.254 . S
O5 Zn3 2.046 . S
O5 C4 1.254 . S
C6 O27 1.256 . S
C6 O28 1.244 . S
O7 Zn3 2.055 . S
O7 C29 1.259 . S
O8 Zn0 2.046 . S
O8 C29 1.254 . S
N9 Zn3 2.036 . S
N9 C10 1.298 . S
N9 N12 1.398 . S
C10 N9 1.298 . S
C10 N13 1.367 . S
C10 C23 1.481 . S
C11 N12 1.299 . S
C11 N13 1.379 . S
N12 N9 1.398 . S
N12 C11 1.299 . S
N13 C10 1.367 . S
N13 C11 1.379 . S
C14 N16 1.298 . S
C14 N18 1.367 . S
C14 C22 1.481 . S
C15 N17 1.299 . S
C15 N18 1.379 . S
N16 Zn0 2.036 . S
N16 C14 1.298 . S
N16 N17 1.398 . S
N17 C15 1.299 . S
N17 N16 1.398 . S
N18 C14 1.367 . S
N18 C15 1.379 . S
H19 C22 0.980 . S
H20 C22 0.981 . S
H21 C22 0.981 . S
C22 C14 1.481 . S
C22 H19 0.980 . S
C22 H20 0.981 . S
C22 H21 0.981 . S
C23 C10 1.481 . S
C23 H24 0.980 . S
C23 H25 0.981 . S
C23 H26 0.981 . S
H24 C23 0.980 . S
H25 C23 0.981 . S
H26 C23 0.981 . S
O27 Zn3 2.066 . S
O27 C6 1.256 . S
O28 Zn0 2.053 . S
O28 C6 1.244 . S
C29 O7 1.259 . S
C29 O8 1.254 . S
O30 Zn0 2.066 . S
O30 C2 1.256 . S
O31 C2 1.244 . S
O31 Zn3 2.053 . S
Zn32 O33 2.055 . S
Zn32 O40 2.046 . S
Zn32 N48 2.036 . S
Zn32 O60 2.053 . S
Zn32 O62 2.066 . S
O33 Zn32 2.055 . S
O33 C36 1.259 . S
C34 O62 1.256 . S
C34 O63 1.244 . S
Zn35 O37 2.046 . S
Zn35 O39 2.055 . S
Zn35 N41 2.036 . S
Zn35 O59 2.066 . S
Zn35 O63 2.053 . S
C36 O33 1.259 . S
C36 O37 1.254 . S
O37 Zn35 2.046 . S
O37 C36 1.254 . S
C38 O59 1.256 . S
C38 O60 1.244 . S
O39 Zn35 2.055 . S
O39 C61 1.259 . S
O40 Zn32 2.046 . S
O40 C61 1.254 . S
N41 Zn35 2.036 . S
N41 C42 1.298 . S
N41 N44 1.398 . S
C42 N41 1.298 . S
C42 N45 1.367 . S
C42 C55 1.481 1_545 S
C43 N44 1.299 . S
C43 N45 1.379 . S
N44 N41 1.398 . S
N44 C43 1.299 . S
N45 C42 1.367 . S
N45 C43 1.379 . S
C46 N48 1.298 . S
C46 N50 1.367 1_655 S
C46 C54 1.481 . S
C47 N49 1.299 . S
C47 N50 1.379 . S
N48 Zn32 2.036 . S
N48 C46 1.298 . S
N48 N49 1.398 1_655 S
N49 C47 1.299 . S
N49 N48 1.398 1_455 S
N50 C46 1.367 1_455 S
N50 C47 1.379 . S
H51 C54 0.980 . S
H52 C54 0.981 . S
H53 C54 0.981 . S
C54 C46 1.481 . S
C54 H51 0.980 . S
C54 H52 0.981 . S
C54 H53 0.981 . S
C55 C42 1.481 1_565 S
C55 H56 0.980 1_565 S
C55 H57 0.981 . S
C55 H58 0.981 . S
H56 C55 0.980 1_545 S
H57 C55 0.981 . S
H58 C55 0.981 . S
O59 Zn35 2.066 . S
O59 C38 1.256 . S
O60 Zn32 2.053 . S
O60 C38 1.244 . S
C61 O39 1.259 . S
C61 O40 1.254 . S
O62 Zn32 2.066 . S
O62 C34 1.256 . S
O63 C34 1.244 . S
O63 Zn35 2.053 . S
Zn64 O65 2.055 . S
Zn64 O72 2.046 . S
Zn64 N80 2.036 . S
Zn64 O92 2.053 . S
Zn64 O94 2.066 . S
O65 Zn64 2.055 . S
O65 C68 1.259 . S
C66 O94 1.256 . S
C66 O95 1.244 . S
Zn67 O69 2.046 . S
Zn67 O71 2.055 . S
Zn67 N73 2.036 . S
Zn67 O91 2.066 . S
Zn67 O95 2.053 . S
C68 O65 1.259 . S
C68 O69 1.254 . S
O69 Zn67 2.046 . S
O69 C68 1.254 . S
C70 O91 1.256 . S
C70 O92 1.244 . S
O71 Zn67 2.055 . S
O71 C93 1.259 . S
O72 Zn64 2.046 . S
O72 C93 1.254 . S
N73 Zn67 2.036 . S
N73 C74 1.298 . S
N73 N76 1.398 . S
C74 N73 1.298 . S
C74 N77 1.367 . S
C74 C87 1.481 . S
C75 N76 1.299 . S
C75 N77 1.379 . S
N76 N73 1.398 . S
N76 C75 1.299 . S
N77 C74 1.367 . S
N77 C75 1.379 . S
C78 N80 1.298 . S
C78 N82 1.367 1_455 S
C78 C86 1.481 . S
C79 N81 1.314 . S
C79 N82 1.379 . S
N80 Zn64 2.036 . S
N80 C78 1.298 . S
N80 N81 1.387 1_455 S
N81 C79 1.314 . S
N81 N80 1.387 1_655 S
N82 C78 1.367 1_655 S
N82 C79 1.379 . S
H83 C86 0.980 . S
H84 C86 0.981 . S
H85 C86 0.981 . S
C86 C78 1.481 . S
C86 H83 0.980 . S
C86 H84 0.981 . S
C86 H85 0.981 . S
C87 C74 1.481 . S
C87 H88 0.980 . S
C87 H89 0.981 . S
C87 H90 0.981 . S
H88 C87 0.980 . S
H89 C87 0.981 . S
H90 C87 0.981 . S
O91 Zn67 2.066 . S
O91 C70 1.256 . S
O92 Zn64 2.053 . S
O92 C70 1.244 . S
C93 O71 1.259 . S
C93 O72 1.254 . S
O94 Zn64 2.066 . S
O94 C66 1.256 . S
O95 C66 1.244 . S
O95 Zn67 2.053 . S
Zn96 O97 2.055 . S
Zn96 O104 2.046 . S
Zn96 N112 2.036 . S
Zn96 O124 2.053 . S
Zn96 O126 2.066 . S
O97 Zn96 2.055 . S
O97 C100 1.259 . S
C98 O126 1.256 . S
C98 O127 1.244 . S
Zn99 O101 2.046 . S
Zn99 O103 2.055 . S
Zn99 N105 2.036 . S
Zn99 O123 2.066 . S
Zn99 O127 2.053 . S
C100 O97 1.259 . S
C100 O101 1.254 . S
O101 Zn99 2.046 . S
O101 C100 1.254 . S
C102 O123 1.256 . S
C102 O124 1.244 . S
O103 Zn99 2.055 . S
O103 C125 1.259 . S
O104 Zn96 2.046 . S
O104 C125 1.254 . S
N105 Zn99 2.036 . S
N105 C106 1.298 . S
N105 N108 1.398 1_565 S
C106 N105 1.298 . S
C106 N109 1.367 1_565 S
C106 C119 1.481 . S
C107 N108 1.299 . S
C107 N109 1.379 . S
N108 N105 1.398 1_545 S
N108 C107 1.299 . S
N109 C106 1.367 1_545 S
N109 C107 1.379 . S
C110 N112 1.298 . S
C110 N114 1.367 . S
C110 C118 1.481 . S
C111 N113 1.299 . S
C111 N114 1.379 . S
N112 Zn96 2.036 . S
N112 C110 1.298 . S
N112 N113 1.398 . S
N113 C111 1.299 . S
N113 N112 1.398 . S
N114 C110 1.367 . S
N114 C111 1.379 . S
H115 C118 0.980 . S
H116 C118 0.981 . S
H117 C118 0.981 . S
C118 C110 1.481 . S
C118 H115 0.980 . S
C118 H116 0.981 . S
C118 H117 0.981 . S
C119 C106 1.481 . S
C119 H120 0.980 . S
C119 H121 0.981 . S
C119 H122 0.981 . S
H120 C119 0.980 . S
H121 C119 0.981 . S
H122 C119 0.981 . S
O123 Zn99 2.066 . S
O123 C102 1.256 . S
O124 Zn96 2.053 . S
O124 C102 1.244 . S
C125 O103 1.259 . S
C125 O104 1.254 . S
O126 Zn96 2.066 . S
O126 C98 1.256 . S
O127 C98 1.244 . S
O127 Zn99 2.053 . S
H128 C140 0.930 . S
H129 C142 0.930 . S
H130 C143 0.930 . S
H131 C147 0.959 . S
H132 C147 0.959 . S
H133 C147 0.961 . S
H134 C148 0.960 1_556 S
H135 C148 0.961 . S
H136 C148 0.959 . S
H137 C151 0.929 . S
H138 C152 0.931 . S
H139 C154 0.930 . S
C140 H128 0.930 . S
C140 C141 1.399 . S
C140 C145 1.399 1_556 S
C141 C140 1.399 . S
C141 C142 1.376 . S
C142 H129 0.930 . S
C142 C141 1.376 . S
C142 C143 1.388 1_556 S
C143 H130 0.930 . S
C143 C142 1.388 1_554 S
C143 C144 1.390 . S
C144 C143 1.390 . S
C144 C145 1.394 . S
C144 C150 1.465 . S
C145 C140 1.399 1_554 S
C145 C144 1.394 . S
C145 C146 1.516 . S
C146 C145 1.516 . S
C146 C147 1.502 . S
C146 C148 1.561 . S
C146 C149 1.526 . S
C147 H131 0.959 . S
C147 H132 0.959 . S
C147 H133 0.961 . S
C147 C146 1.502 . S
C148 H134 0.960 1_554 S
C148 H135 0.961 . S
C148 H136 0.959 . S
C148 C146 1.561 . S
C149 C146 1.526 . S
C149 C150 1.396 . S
C149 C154 1.390 . S
C150 C144 1.465 . S
C150 C149 1.396 . S
C150 C151 1.399 . S
C151 H137 0.929 . S
C151 C150 1.399 . S
C151 C152 1.385 . S
C152 H138 0.931 . S
C152 C151 1.385 . S
C152 C153 1.389 . S
C153 C152 1.389 . S
C153 C154 1.387 . S
C154 H139 0.930 . S
C154 C149 1.390 . S
C154 C153 1.387 . S
H155 C167 0.930 1_545 S
H156 C169 0.930 . S
H157 C170 0.930 . S
H158 C174 0.959 . S
H159 C174 0.959 . S
H160 C174 0.961 . S
H161 C175 0.960 . S
H162 C175 0.961 . S
H163 C175 0.959 . S
H164 C178 0.929 . S
H165 C179 0.931 . S
H166 C181 0.930 . S
C167 H155 0.930 1_565 S
C167 C168 1.399 . S
C167 C172 1.399 . S
C168 C167 1.399 . S
C168 C169 1.376 . S
C169 H156 0.930 . S
C169 C168 1.376 . S
C169 C170 1.388 . S
C170 H157 0.930 . S
C170 C169 1.388 . S
C170 C171 1.390 . S
C171 C170 1.390 . S
C171 C172 1.394 . S
C171 C177 1.465 . S
C172 C167 1.399 . S
C172 C171 1.394 . S
C172 C173 1.516 1_565 S
C173 C172 1.516 1_545 S
C173 C174 1.502 . S
C173 C175 1.561 . S
C173 C176 1.526 . S
C174 H158 0.959 . S
C174 H159 0.959 . S
C174 H160 0.961 . S
C174 C173 1.502 . S
C175 H161 0.960 . S
C175 H162 0.961 . S
C175 H163 0.959 . S
C175 C173 1.561 . S
C176 C173 1.526 . S
C176 C177 1.396 1_545 S
C176 C181 1.390 . S
C177 C171 1.465 . S
C177 C176 1.396 1_565 S
C177 C178 1.399 . S
C178 H164 0.929 . S
C178 C177 1.399 . S
C178 C179 1.385 . S
C179 H165 0.931 . S
C179 C178 1.385 . S
C179 C180 1.389 1_565 S
C180 C179 1.389 1_545 S
C180 C181 1.387 . S
C181 H166 0.930 . S
C181 C176 1.390 . S
C181 C180 1.387 . S
H182 C194 0.930 . S
H183 C196 0.930 . S
H184 C197 0.930 . S
H185 C201 0.959 . S
H186 C201 0.959 . S
H187 C201 0.961 . S
H188 C202 0.960 . S
H189 C202 0.961 . S
H190 C202 0.959 . S
H191 C205 0.929 . S
H192 C206 0.931 . S
H193 C208 0.930 . S
C194 H182 0.930 . S
C194 C195 1.399 . S
C194 C199 1.399 . S
C195 C194 1.399 . S
C195 C196 1.376 . S
C196 H183 0.930 . S
C196 C195 1.376 . S
C196 C197 1.388 . S
C197 H184 0.930 . S
C197 C196 1.388 . S
C197 C198 1.390 . S
C198 C197 1.390 . S
C198 C199 1.394 . S
C198 C204 1.465 . S
C199 C194 1.399 . S
C199 C198 1.394 . S
C199 C200 1.516 . S
C200 C199 1.516 . S
C200 C201 1.502 . S
C200 C202 1.561 . S
C200 C203 1.526 . S
C201 H185 0.959 . S
C201 H186 0.959 . S
C201 H187 0.961 . S
C201 C200 1.502 . S
C202 H188 0.960 . S
C202 H189 0.961 . S
C202 H190 0.959 . S
C202 C200 1.561 . S
C203 C200 1.526 . S
C203 C204 1.396 . S
C203 C208 1.390 . S
C204 C198 1.465 . S
C204 C203 1.396 . S
C204 C205 1.399 . S
C205 H191 0.929 . S
C205 C204 1.399 . S
C205 C206 1.385 . S
C206 H192 0.931 . S
C206 C205 1.385 . S
C206 C207 1.389 . S
C207 C206 1.389 . S
C207 C208 1.387 . S
C208 H193 0.930 . S
C208 C203 1.390 . S
C208 C207 1.387 . S
H209 C221 0.930 . S
H210 C223 0.930 . S
H211 C224 0.930 . S
H212 C228 0.959 . S
H213 C228 0.959 . S
H214 C228 0.961 . S
H215 C229 0.960 . S
H216 C229 0.961 . S
H217 C229 0.959 . S
H218 C232 0.929 . S
H219 C233 0.931 . S
H220 C235 0.930 . S
C221 H209 0.930 . S
C221 C222 1.399 . S
C221 C226 1.399 1_554 S
C222 C221 1.399 . S
C222 C223 1.376 1_565 S
C223 H210 0.930 . S
C223 C222 1.376 1_545 S
C223 C224 1.388 1_554 S
C224 H211 0.930 . S
C224 C223 1.388 1_556 S
C224 C225 1.390 . S
C225 C224 1.390 . S
C225 C226 1.394 1_545 S
C225 C231 1.465 . S
C226 C221 1.399 1_556 S
C226 C225 1.394 1_565 S
C226 C227 1.516 . S
C227 C226 1.516 . S
C227 C228 1.502 . S
C227 C229 1.561 . S
C227 C230 1.526 . S
C228 H212 0.959 . S
C228 H213 0.959 . S
C228 H214 0.961 . S
C228 C227 1.502 . S
C229 H215 0.960 . S
C229 H216 0.961 . S
C229 H217 0.959 . S
C229 C227 1.561 . S
C230 C227 1.526 . S
C230 C231 1.396 1_565 S
C230 C235 1.390 . S
C231 C225 1.465 . S
C231 C230 1.396 1_545 S
C231 C232 1.399 . S
C232 H218 0.929 . S
C232 C231 1.399 . S
C232 C233 1.385 . S
C233 H219 0.931 . S
C233 C232 1.385 . S
C233 C234 1.389 . S
C234 C233 1.389 . S
C234 C235 1.387 1_545 S
C235 H220 0.930 . S
C235 C230 1.390 . S
C235 C234 1.387 1_565 S
H236 C248 0.930 . S
H237 C250 0.930 . S
H238 C251 0.930 . S
H239 C255 0.959 . S
H240 C255 0.959 . S
H241 C255 0.961 . S
H242 C256 0.960 . S
H243 C256 0.961 . S
H244 C256 0.959 . S
H245 C259 0.929 . S
H246 C260 0.931 . S
H247 C262 0.930 . S
C248 H236 0.930 . S
C248 C249 1.399 . S
C248 C253 1.399 . S
C249 C248 1.399 . S
C249 C250 1.376 . S
C250 H237 0.930 . S
C250 C249 1.376 . S
C250 C251 1.388 . S
C251 H238 0.930 . S
C251 C250 1.388 . S
C251 C252 1.390 . S
C252 C251 1.390 . S
C252 C253 1.394 . S
C252 C258 1.465 . S
C253 C248 1.399 . S
C253 C252 1.394 . S
C253 C254 1.516 . S
C254 C253 1.516 . S
C254 C255 1.502 . S
C254 C256 1.561 . S
C254 C257 1.526 . S
C255 H239 0.959 . S
C255 H240 0.959 . S
C255 H241 0.961 . S
C255 C254 1.502 . S
C256 H242 0.960 . S
C256 H243 0.961 . S
C256 H244 0.959 . S
C256 C254 1.561 . S
C257 C254 1.526 . S
C257 C258 1.396 . S
C257 C262 1.390 . S
C258 C252 1.465 . S
C258 C257 1.396 . S
C258 C259 1.399 . S
C259 H245 0.929 . S
C259 C258 1.399 . S
C259 C260 1.385 . S
C260 H246 0.931 . S
C260 C259 1.385 . S
C260 C261 1.389 . S
C261 C260 1.389 . S
C261 C262 1.387 . S
C262 H247 0.930 . S
C262 C257 1.390 . S
C262 C261 1.387 . S
H263 C275 0.930 . S
H264 C277 0.930 . S
H265 C278 0.930 . S
H266 C282 0.959 . S
H267 C282 0.959 . S
H268 C282 0.961 . S
H269 C283 0.960 . S
H270 C283 0.961 . S
H271 C283 0.959 . S
H272 C286 0.929 . S
H273 C287 0.932 1_545 S
H274 C289 0.930 . S
C275 H263 0.930 . S
C275 C276 1.399 . S
C275 C280 1.399 . S
C276 C275 1.399 . S
C276 C277 1.376 . S
C277 H264 0.930 . S
C277 C276 1.376 . S
C277 C278 1.388 . S
C278 H265 0.930 . S
C278 C277 1.388 . S
C278 C279 1.390 . S
C279 C278 1.390 . S
C279 C280 1.394 . S
C279 C285 1.465 . S
C280 C275 1.399 . S
C280 C279 1.394 . S
C280 C281 1.516 . S
C281 C280 1.516 . S
C281 C282 1.502 1_455 S
C281 C283 1.561 . S
C281 C284 1.526 . S
C282 H266 0.959 . S
C282 H267 0.959 . S
C282 H268 0.961 . S
C282 C281 1.502 1_655 S
C283 H269 0.960 . S
C283 H270 0.961 . S
C283 H271 0.959 . S
C283 C281 1.561 . S
C284 C281 1.526 . S
C284 C285 1.396 . S
C284 C289 1.390 1_455 S
C285 C279 1.465 . S
C285 C284 1.396 . S
C285 C286 1.399 . S
C286 H272 0.929 . S
C286 C285 1.399 . S
C286 C287 1.385 1_455 S
C287 H273 0.932 1_565 S
C287 C286 1.385 1_655 S
C287 C288 1.389 1_565 S
C288 C287 1.389 1_545 S
C288 C289 1.387 1_545 S
C289 H274 0.930 . S
C289 C284 1.390 1_655 S
C289 C288 1.387 1_565 S
H290 C302 0.930 . S
H291 C304 0.930 . S
H292 C305 0.930 . S
H293 C309 0.959 . S
H294 C309 0.959 . S
H295 C309 0.961 . S
H296 C310 0.960 . S
H297 C310 0.961 . S
H298 C310 0.959 . S
H299 C313 0.929 . S
H300 C314 0.931 . S
H301 C316 0.930 1_556 S
C302 H290 0.930 . S
C302 C303 1.399 . S
C302 C307 1.399 . S
C303 C302 1.399 . S
C303 C304 1.376 . S
C304 H291 0.930 . S
C304 C303 1.376 . S
C304 C305 1.388 . S
C305 H292 0.930 . S
C305 C304 1.388 . S
C305 C306 1.390 . S
C306 C305 1.390 . S
C306 C307 1.394 . S
C306 C312 1.471 . S
C307 C302 1.399 . S
C307 C306 1.394 . S
C307 C308 1.516 . S
C308 C307 1.516 . S
C308 C309 1.502 . S
C308 C310 1.561 . S
C308 C311 1.526 . S
C309 H293 0.959 . S
C309 H294 0.959 . S
C309 H295 0.961 . S
C309 C308 1.502 . S
C310 H296 0.960 . S
C310 H297 0.961 . S
C310 H298 0.959 . S
C310 C308 1.561 . S
C311 C308 1.526 . S
C311 C312 1.401 . S
C311 C316 1.390 1_556 S
C312 C306 1.471 . S
C312 C311 1.401 . S
C312 C313 1.390 1_556 S
C313 H299 0.929 . S
C313 C312 1.390 1_554 S
C313 C314 1.385 . S
C314 H300 0.931 . S
C314 C313 1.385 . S
C314 C315 1.389 . S
C315 C314 1.389 . S
C315 C316 1.387 . S
C316 H301 0.930 1_554 S
C316 C311 1.390 1_554 S
C316 C315 1.387 . S
H317 C329 0.930 . S
H318 C331 0.930 . S
H319 C332 0.930 . S
H320 C336 0.959 . S
H321 C336 0.959 . S
H322 C336 0.961 . S
H323 C337 0.960 . S
H324 C337 0.961 . S
H325 C337 0.959 . S
H326 C340 0.929 . S
H327 C341 0.931 . S
H328 C343 0.930 . S
C329 H317 0.930 . S
C329 C330 1.399 . S
C329 C334 1.399 . S
C330 C329 1.399 . S
C330 C331 1.376 . S
C331 H318 0.930 . S
C331 C330 1.376 . S
C331 C332 1.388 . S
C332 H319 0.930 . S
C332 C331 1.388 . S
C332 C333 1.390 . S
C333 C332 1.390 . S
C333 C334 1.394 . S
C333 C339 1.465 . S
C334 C329 1.399 . S
C334 C333 1.394 . S
C334 C335 1.516 . S
C335 C334 1.516 . S
C335 C336 1.502 . S
C335 C337 1.561 . S
C335 C338 1.526 . S
C336 H320 0.959 . S
C336 H321 0.959 . S
C336 H322 0.961 . S
C336 C335 1.502 . S
C337 H323 0.960 . S
C337 H324 0.961 . S
C337 H325 0.959 . S
C337 C335 1.561 . S
C338 C335 1.526 . S
C338 C339 1.396 . S
C338 C343 1.390 . S
C339 C333 1.465 . S
C339 C338 1.396 . S
C339 C340 1.399 . S
C340 H326 0.929 . S
C340 C339 1.399 . S
C340 C341 1.385 . S
C341 H327 0.931 . S
C341 C340 1.385 . S
C341 C342 1.389 . S
C342 C341 1.389 . S
C342 C343 1.387 . S
C343 H328 0.930 . S
C343 C338 1.390 . S
C343 C342 1.387 . S
H344 C356 0.930 . S
H345 C358 0.930 . S
H346 C359 0.930 . S
H347 C363 0.959 . S
H348 C363 0.959 . S
H349 C363 0.961 . S
H350 C364 0.960 . S
H351 C364 0.961 . S
H352 C364 0.959 . S
H353 C367 0.929 . S
H354 C368 0.931 . S
H355 C370 0.930 . S
C356 H344 0.930 . S
C356 C357 1.399 . S
C356 C361 1.399 . S
C357 C356 1.399 . S
C357 C358 1.376 . S
C358 H345 0.930 . S
C358 C357 1.376 . S
C358 C359 1.388 . S
C359 H346 0.930 . S
C359 C358 1.388 . S
C359 C360 1.390 . S
C360 C359 1.390 . S
C360 C361 1.394 . S
C360 C366 1.465 . S
C361 C356 1.399 . S
C361 C360 1.394 . S
C361 C362 1.516 . S
C362 C361 1.516 . S
C362 C363 1.502 . S
C362 C364 1.561 . S
C362 C365 1.526 . S
C363 H347 0.959 . S
C363 H348 0.959 . S
C363 H349 0.961 . S
C363 C362 1.502 . S
C364 H350 0.960 . S
C364 H351 0.961 . S
C364 H352 0.959 . S
C364 C362 1.561 . S
C365 C362 1.526 . S
C365 C366 1.396 . S
C365 C370 1.390 . S
C366 C360 1.465 . S
C366 C365 1.396 . S
C366 C367 1.399 . S
C367 H353 0.929 . S
C367 C366 1.399 . S
C367 C368 1.385 . S
C368 H354 0.931 . S
C368 C367 1.385 . S
C368 C369 1.389 . S
C369 C368 1.389 . S
C369 C370 1.387 . S
C370 H355 0.930 . S
C370 C365 1.390 . S
C370 C369 1.387 . S
H371 C383 0.930 . S
H372 C385 0.930 . S
H373 C386 0.930 . S
H374 C390 0.959 . S
H375 C390 0.959 . S
H376 C390 0.961 . S
H377 C391 0.960 . S
H378 C391 0.958 1_655 S
H379 C391 0.959 . S
H380 C394 0.929 . S
H381 C395 0.931 . S
H382 C397 0.930 . S
C383 H371 0.930 . S
C383 C384 1.399 . S
C383 C388 1.399 . S
C384 C383 1.399 . S
C384 C385 1.376 . S
C385 H372 0.930 . S
C385 C384 1.376 . S
C385 C386 1.388 . S
C386 H373 0.930 . S
C386 C385 1.388 . S
C386 C387 1.390 . S
C387 C386 1.390 . S
C387 C388 1.394 . S
C387 C393 1.465 . S
C388 C383 1.399 . S
C388 C387 1.394 . S
C388 C389 1.516 1_455 S
C389 C388 1.516 1_655 S
C389 C390 1.502 . S
C389 C391 1.561 1_655 S
C389 C392 1.526 . S
C390 H374 0.959 . S
C390 H375 0.959 . S
C390 H376 0.961 . S
C390 C389 1.502 . S
C391 H377 0.960 . S
C391 H378 0.958 1_455 S
C391 H379 0.959 . S
C391 C389 1.561 1_455 S
C392 C389 1.526 . S
C392 C393 1.396 1_655 S
C392 C397 1.390 . S
C393 C387 1.465 . S
C393 C392 1.396 1_455 S
C393 C394 1.399 . S
C394 H380 0.929 . S
C394 C393 1.399 . S
C394 C395 1.385 1_455 S
C395 H381 0.931 . S
C395 C394 1.385 1_655 S
C395 C396 1.389 . S
C396 C395 1.389 . S
C396 C397 1.387 . S
C397 H382 0.930 . S
C397 C392 1.390 . S
C397 C396 1.387 . S
H398 C410 0.930 . S
H399 C412 0.930 . S
H400 C413 0.930 . S
H401 C417 0.959 . S
H402 C417 0.959 1_554 S
H403 C417 0.961 . S
H404 C418 0.960 . S
H405 C418 0.961 . S
H406 C418 0.959 . S
H407 C421 0.929 . S
H408 C422 0.931 . S
H409 C424 0.930 . S
C410 H398 0.930 . S
C410 C411 1.399 . S
C410 C415 1.399 1_556 S
C411 C410 1.399 . S
C411 C412 1.376 . S
C412 H399 0.930 . S
C412 C411 1.376 . S
C412 C413 1.388 . S
C413 H400 0.930 . S
C413 C412 1.388 . S
C413 C414 1.390 1_556 S
C414 C413 1.390 1_554 S
C414 C415 1.394 . S
C414 C420 1.465 . S
C415 C410 1.399 1_554 S
C415 C414 1.394 . S
C415 C416 1.516 . S
C416 C415 1.516 . S
C416 C417 1.502 1_554 S
C416 C418 1.561 . S
C416 C419 1.526 . S
C417 H401 0.959 . S
C417 H402 0.959 1_556 S
C417 H403 0.961 . S
C417 C416 1.502 1_556 S
C418 H404 0.960 . S
C418 H405 0.961 . S
C418 H406 0.959 . S
C418 C416 1.561 . S
C419 C416 1.526 . S
C419 C420 1.396 . S
C419 C424 1.390 . S
C420 C414 1.465 . S
C420 C419 1.396 . S
C420 C421 1.399 . S
C421 H407 0.929 . S
C421 C420 1.399 . S
C421 C422 1.385 . S
C422 H408 0.931 . S
C422 C421 1.385 . S
C422 C423 1.389 . S
C423 C422 1.389 . S
C423 C424 1.387 . S
C424 H409 0.930 . S
C424 C419 1.390 . S
C424 C423 1.387 . S
H425 C437 0.930 . S
H426 C439 0.930 . S
H427 C440 0.930 . S
H428 C444 0.959 . S
H429 C444 0.959 . S
H430 C444 0.961 . S
H431 C445 0.960 . S
H432 C445 0.961 . S
H433 C445 0.959 . S
H434 C448 0.929 . S
H435 C449 0.931 . S
H436 C451 0.930 . S
C437 H425 0.930 . S
C437 C438 1.399 . S
C437 C442 1.399 . S
C438 C437 1.399 . S
C438 C439 1.376 . S
C439 H426 0.930 . S
C439 C438 1.376 . S
C439 C440 1.388 . S
C440 H427 0.930 . S
C440 C439 1.388 . S
C440 C441 1.390 . S
C441 C440 1.390 . S
C441 C442 1.394 . S
C441 C447 1.465 . S
C442 C437 1.399 . S
C442 C441 1.394 . S
C442 C443 1.516 . S
C443 C442 1.516 . S
C443 C444 1.502 . S
C443 C445 1.561 . S
C443 C446 1.526 . S
C444 H428 0.959 . S
C444 H429 0.959 . S
C444 H430 0.961 . S
C444 C443 1.502 . S
C445 H431 0.960 . S
C445 H432 0.961 . S
C445 H433 0.959 . S
C445 C443 1.561 . S
C446 C443 1.526 . S
C446 C447 1.396 . S
C446 C451 1.390 . S
C447 C441 1.465 . S
C447 C446 1.396 . S
C447 C448 1.399 . S
C448 H434 0.929 . S
C448 C447 1.399 . S
C448 C449 1.385 . S
C449 H435 0.931 . S
C449 C448 1.385 . S
C449 C450 1.389 . S
C450 C449 1.389 . S
C450 C451 1.387 . S
C451 H436 0.930 . S
C451 C446 1.390 . S
C451 C450 1.387 . S
C141 C93 1.194 . S
C153 N18 1.268 . S
C168 C102 1.652 . S
C180 C61 1.611 . S
C195 N77 0.949 . S
C207 C4 1.018 . S
C222 C98 1.535 . S
C234 N45 1.411 . S
C249 N50 1.090 . S
C261 C29 1.178 . S
C276 C66 1.927 . S
C288 C38 1.938 . S
C303 C68 1.177 . S
C315 C100 1.264 . S
C330 C6 1.487 . S
C342 N109 1.482 . S
C357 C36 1.170 . S
C369 N13 1.222 . S
C384 C70 2.177 . S
C396 C34 2.206 . S
C411 N82 1.067 . S
C423 N114 0.992 . S
C438 C125 1.512 . S
C450 C2 1.503 . S
