# Generated by pormake.
# Topology pts-e, (5)-cn, num edge types: 1
# Building blocks:
#     Node 0, Type 0, BuildingBlock: XOMCOT_clean_sbu_0, # of connection points: 5
#     Node 1, Type 0, BuildingBlock: XOMCOT_clean_sbu_0, # of connection points: 5
#     Node 2, Type 0, BuildingBlock: XOMCOT_clean_sbu_0, # of connection points: 5
#     Node 3, Type 0, BuildingBlock: XOMCOT_clean_sbu_0, # of connection points: 5
#     Node 4, Type 0, BuildingBlock: XOMCOT_clean_sbu_0, # of connection points: 5
#     Node 5, Type 0, BuildingBlock: XOMCOT_clean_sbu_0, # of connection points: 5
#     Node 6, Type 0, BuildingBlock: XOMCOT_clean_sbu_0, # of connection points: 5
#     Node 7, Type 0, BuildingBlock: XOMCOT_clean_sbu_0, # of connection points: 5
#     Edge 8, Type (0, 0), BuildingBlock: MIFKUJ_clean_linker_0, # of connection points: 2
#     Edge 9, Type (0, 0), BuildingBlock: MIFKUJ_clean_linker_0, # of connection points: 2
#     Edge 10, Type (0, 0), BuildingBlock: MIFKUJ_clean_linker_0, # of connection points: 2
#     Edge 11, Type (0, 0), BuildingBlock: MIFKUJ_clean_linker_0, # of connection points: 2
#     Edge 12, Type (0, 0), BuildingBlock: MIFKUJ_clean_linker_0, # of connection points: 2
#     Edge 13, Type (0, 0), BuildingBlock: MIFKUJ_clean_linker_0, # of connection points: 2
#     Edge 14, Type (0, 0), BuildingBlock: MIFKUJ_clean_linker_0, # of connection points: 2
#     Edge 15, Type (0, 0), BuildingBlock: MIFKUJ_clean_linker_0, # of connection points: 2
#     Edge 16, Type (0, 0), BuildingBlock: MIFKUJ_clean_linker_0, # of connection points: 2
#     Edge 17, Type (0, 0), BuildingBlock: MIFKUJ_clean_linker_0, # of connection points: 2
#     Edge 18, Type (0, 0), BuildingBlock: MIFKUJ_clean_linker_0, # of connection points: 2
#     Edge 19, Type (0, 0), BuildingBlock: MIFKUJ_clean_linker_0, # of connection points: 2
#     Edge 20, Type (0, 0), BuildingBlock: MIFKUJ_clean_linker_0, # of connection points: 2
#     Edge 21, Type (0, 0), BuildingBlock: MIFKUJ_clean_linker_0, # of connection points: 2
#     Edge 22, Type (0, 0), BuildingBlock: MIFKUJ_clean_linker_0, # of connection points: 2
#     Edge 23, Type (0, 0), BuildingBlock: MIFKUJ_clean_linker_0, # of connection points: 2
#     Edge 24, Type (0, 0), BuildingBlock: MIFKUJ_clean_linker_0, # of connection points: 2
#     Edge 25, Type (0, 0), BuildingBlock: MIFKUJ_clean_linker_0, # of connection points: 2
#     Edge 26, Type (0, 0), BuildingBlock: MIFKUJ_clean_linker_0, # of connection points: 2
#     Edge 27, Type (0, 0), BuildingBlock: MIFKUJ_clean_linker_0, # of connection points: 2
# Relax obj value: 0.524
# Max RMSD: 0.259
# Mean RMSD: 0.259
data_MOF--net-pts-e--node1-XOMCOT_clean_sbu_0--edge1-MIFKUJ_clean_linker_0
_symmetry_space_group_name_H-M    P1
_symmetry_Int_Tables_number       1
_symmetry_cell_setting            triclinic
loop_
_symmetry_equiv_pos_as_xyz
'x, y, z'
_cell_length_a     42.585133
_cell_length_b     42.566863
_cell_length_c     61.150994
_cell_angle_alpha  89.914655
_cell_angle_beta   90.071748
_cell_angle_gamma 89.964686
loop_
_atom_site_label
_atom_site_type_symbol
_atom_site_fract_x
_atom_site_fract_y
_atom_site_fract_z
_atom_type_partial_charge
Co0 Co 0.2736 0.0393 0.15413 0.0
C1 C 0.34082 0.02667 0.16008 0.0
C2 C 0.31392 0.98405 0.16063 0.0
C3 C 0.34491 0.97678 0.16492 0.0
N4 N 0.31154 0.01535 0.15776 0.0
N5 N 0.36151 0.00374 0.16481 0.0
H6 H 0.34684 0.0513 0.1589 0.0
H7 H 0.29434 0.96788 0.16038 0.0
C8 C 0.23582 0.02539 0.19405 0.0
O9 O 0.23049 0.05564 0.19618 0.0
N10 N 0.23465 0.06253 0.15032 0.0
C11 C 0.22917 0.09359 0.14786 0.0
C12 C 0.19736 0.09837 0.14586 0.0
C13 C 0.20607 0.04898 0.14928 0.0
N14 N 0.18282 0.07029 0.14683 0.0
C15 C 0.30053 0.09897 0.16338 0.0
C16 C 0.31238 0.08995 0.20726 0.0
C17 C 0.31874 0.1195 0.19793 0.0
C18 C 0.31341 0.12331 0.17547 0.0
C19 C 0.29895 0.06619 0.19446 0.0
N20 N 0.29122 0.07166 0.17308 0.0
H21 H 0.29754 0.10258 0.14606 0.0
H22 H 0.29518 0.04338 0.20173 0.0
H23 H 0.24641 0.11198 0.14734 0.0
H24 H 0.20257 0.02385 0.15022 0.0
O25 O 0.28868 0.0551 0.12664 0.0
O26 O 0.26086 0.01147 0.13067 0.0
O27 O 0.25402 0.01533 0.17901 0.0
C28 C 0.27514 0.03104 0.11767 0.0
H29 H 0.35426 0.95378 0.1688 0.0
H30 H 0.18593 0.12093 0.14406 0.0
H31 H 0.31736 0.08526 0.22432 0.0
H32 H 0.3178 0.14534 0.16719 0.0
Co33 Co 0.02344 0.28012 0.64467 0.0
C34 C 0.03979 0.34833 0.6449 0.0
C35 C 0.08028 0.31866 0.643 0.0
C36 C 0.09028 0.34941 0.64408 0.0
N37 N 0.04859 0.318 0.64404 0.0
N38 N 0.06464 0.36781 0.64511 0.0
H39 H 0.01602 0.35655 0.64613 0.0
H40 H 0.09512 0.29806 0.64227 0.0
C41 C 0.06379 0.27578 0.68472 0.0
O42 O 0.05892 0.30576 0.6885 0.0
N43 N 3e-05 0.24159 0.64502 0.0
C44 C 0.96877 0.23692 0.64483 0.0
C45 C 0.9633 0.20506 0.64669 0.0
C46 C 0.01306 0.21298 0.64671 0.0
N47 N 0.99126 0.1901 0.64798 0.0
C48 C 0.97252 0.31941 0.65847 0.0
C49 C 0.96465 0.29257 0.69914 0.0
C50 C 0.94291 0.31523 0.69202 0.0
C51 C 0.94766 0.32926 0.67159 0.0
C52 C 0.98957 0.28386 0.68567 0.0
N53 N 0.99374 0.2976 0.66568 0.0
H54 H 0.97363 0.32834 0.64198 0.0
H55 H 0.00377 0.26417 0.69071 0.0
H56 H 0.95127 0.25529 0.64387 0.0
H57 H 0.03817 0.20924 0.64695 0.0
O58 O 0.00232 0.29252 0.61824 0.0
O59 O 0.04664 0.26512 0.61962 0.0
O60 O 0.05122 0.26236 0.66825 0.0
C61 C 0.02463 0.27806 0.60786 0.0
H62 H 0.11434 0.35759 0.64443 0.0
H63 H 0.94053 0.19393 0.64754 0.0
H64 H 0.96114 0.27974 0.71424 0.0
H65 H 0.93128 0.34644 0.66518 0.0
Co66 Co 0.77272 0.03006 0.14947 0.0
C67 C 0.70959 0.03527 0.16955 0.0
C68 C 0.73342 0.07946 0.16851 0.0
C69 C 0.70327 0.08446 0.17587 0.0
N70 N 0.73749 0.0485 0.16481 0.0
N71 N 0.68828 0.05658 0.17634 0.0
H72 H 0.70421 0.01093 0.16704 0.0
H73 H 0.75065 0.09741 0.16495 0.0
C74 C 0.80242 0.06369 0.1873 0.0
O75 O 0.77994 0.05314 0.20004 0.0
N76 N 0.80762 0.01239 0.13374 0.0
C77 C 0.81051 0.98269 0.1264 0.0
C78 C 0.84091 0.97834 0.11931 0.0
C79 C 0.83573 0.02592 0.13052 0.0
N80 N 0.85661 0.00558 0.122 0.0
C81 C 0.7538 0.97122 0.16816 0.0
C82 C 0.80822 0.96091 0.19164 0.0
C83 C 0.78603 0.93677 0.19007 0.0
C84 C 0.7582 0.94242 0.17862 0.0
C85 C 0.80277 0.98947 0.18112 0.0
N86 N 0.77561 0.99469 0.16971 0.0
H87 H 0.7341 0.9733 0.15723 0.0
H88 H 0.8218 0.00613 0.18068 0.0
H89 H 0.79235 0.96498 0.12729 0.0
H90 H 0.84143 0.04953 0.13567 0.0
O91 O 0.7446 0.01187 0.12836 0.0
O92 O 0.76589 0.0593 0.12581 0.0
O93 O 0.80287 0.05641 0.16706 0.0
C94 C 0.74833 0.03757 0.11716 0.0
H95 H 0.69269 0.10707 0.1792 0.0
H96 H 0.85104 0.95655 0.11356 0.0
H97 H 0.83037 0.95719 0.19999 0.0
H98 H 0.74106 0.92391 0.17631 0.0
Co99 Co 0.02369 0.77048 0.65952 0.0
C100 C 0.01116 0.70338 0.67142 0.0
C101 C 0.97025 0.7275 0.65983 0.0
C102 C 0.96187 0.6972 0.66507 0.0
N103 N 0.00125 0.73132 0.66362 0.0
N104 N 0.98765 0.68229 0.6725 0.0
H105 H 0.0349 0.69798 0.67609 0.0
H106 H 0.95468 0.74564 0.6538 0.0
C107 C 0.988 0.77804 0.70095 0.0
O108 O -0.00027 0.75136 0.70803 0.0
N109 N 0.04481 0.81003 0.65537 0.0
C110 C 0.07541 0.8148 0.65086 0.0
C111 C 0.08092 0.8467 0.65043 0.0
C112 C 0.03205 0.83879 0.65738 0.0
N113 N 0.0536 0.86164 0.6545 0.0
C114 C 0.07883 0.73772 0.6731 0.0
C115 C 0.09159 0.77546 0.70866 0.0
C116 C 0.1149 0.7549 0.70107 0.0
C117 C 0.10782 0.73505 0.68356 0.0
C118 C 0.06298 0.77752 0.69767 0.0
N119 N 0.05679 0.75888 0.68 0.0
H120 H 0.07494 0.72402 0.6585 0.0
H121 H 0.04732 0.79637 0.7021 0.0
H122 H 0.09255 0.7964 0.64836 0.0
H123 H 0.00762 0.84287 0.66134 0.0
O124 O 0.0428 0.75469 0.63324 0.0
O125 O 0.99726 0.77988 0.63459 0.0
O126 O 0.99647 0.7897 0.68265 0.0
C127 C 0.01875 0.76615 0.62286 0.0
H128 H 0.93872 0.68695 0.66357 0.0
H129 H 0.10322 0.85799 0.64726 0.0
H130 H 0.09648 0.79209 0.72161 0.0
H131 H 0.12531 0.71914 0.67704 0.0
Co132 Co 0.28306 0.03333 0.84746 0.0
C133 C 0.34928 0.0488 0.83837 0.0
C134 C 0.3277 0.0839 0.85845 0.0
C135 C 0.3586 0.09206 0.85522 0.0
N136 N 0.32173 0.05709 0.84743 0.0
N137 N 0.37205 0.06995 0.84252 0.0
H138 H 0.35307 0.02702 0.82974 0.0
H139 H 0.31073 0.09689 0.86798 0.0
C140 C 0.27013 0.08955 0.81785 0.0
O141 O 0.29907 0.09967 0.81955 0.0
N142 N 0.24456 0.00928 0.84815 0.0
C143 C 0.24052 0.97945 0.85511 0.0
C144 C 0.20904 0.97233 0.85444 0.0
C145 C 0.21549 0.01999 0.8437 0.0
N146 N 0.19341 0.99787 0.84723 0.0
C147 C 0.30561 0.97667 0.82829 0.0
C148 C 0.30571 0.99646 0.78533 0.0
C149 C 0.30939 0.96421 0.78973 0.0
C150 C 0.31068 0.95485 0.81175 0.0
C151 C 0.29962 0.01738 0.80242 0.0
N152 N 0.29793 0.00701 0.82354 0.0
H153 H 0.3063 0.96857 0.84497 0.0
H154 H 0.29592 0.04167 0.79839 0.0
H155 H 0.25881 0.96416 0.86115 0.0
H156 H 0.2103 0.04398 0.83913 0.0
O157 O 0.29906 0.00946 0.87194 0.0
O158 O 0.27093 0.05321 0.87448 0.0
O159 O 0.26166 0.06363 0.82663 0.0
C160 C 0.28559 0.03033 0.88426 0.0
H161 H 0.37017 0.1126 0.8618 0.0
H162 H 0.19847 0.95031 0.85934 0.0
H163 H 0.30623 0.00549 0.76879 0.0
H164 H 0.31352 0.93054 0.8165 0.0
Co165 Co 0.05854 0.2703 0.33917 0.0
C166 C 0.05058 0.33847 0.33649 0.0
C167 C 0.00968 0.31418 0.32484 0.0
C168 C 0.00484 0.34598 0.32249 0.0
N169 N 0.03839 0.3097 0.33349 0.0
N170 N 0.03065 0.36119 0.32977 0.0
H171 H 0.07354 0.34251 0.34349 0.0
H172 H 0.99358 0.29566 0.3203 0.0
C173 C 0.04567 0.23099 0.2994 0.0
O174 O 0.07498 0.2214 0.29923 0.0
N175 N 0.07802 0.22991 0.34487 0.0
C176 C 0.10811 0.2202 0.34264 0.0
C177 C 0.10921 0.18809 0.34543 0.0
C178 C 0.06155 0.20367 0.34934 0.0
N179 N 0.07995 0.17804 0.34974 0.0
C180 C 0.12069 0.29354 0.33431 0.0
C181 C 0.12249 0.2959 0.28922 0.0
C182 C 0.15023 0.3006 0.30118 0.0
C183 C 0.14858 0.30132 0.32397 0.0
C184 C 0.09463 0.28874 0.30037 0.0
N185 N 0.0948 0.28485 0.32257 0.0
H186 H 0.1209 0.29225 0.3519 0.0
H187 H 0.07337 0.28547 0.29105 0.0
H188 H 0.12786 0.2345 0.33804 0.0
H189 H 0.03622 0.20298 0.35067 0.0
O190 O 0.07156 0.2847 0.36753 0.0
O191 O 0.02653 0.26064 0.36078 0.0
O192 O 0.03651 0.25173 0.31306 0.0
C193 C 0.04552 0.2732 0.37497 0.0
H194 H 0.98419 0.3569 0.3155 0.0
H195 H 0.12962 0.17314 0.3436 0.0
H196 H 0.12269 0.29597 0.27151 0.0
H197 H 0.16931 0.30577 0.33379 0.0
Co198 Co 0.7788 0.04045 0.8509 0.0
C199 C 0.71328 0.02766 0.83594 0.0
C200 C 0.73867 0.98583 0.8441 0.0
C201 C 0.70935 0.97732 0.83677 0.0
N202 N 0.74122 0.0174 0.84336 0.0
N203 N 0.69354 0.00372 0.83152 0.0
H204 H 0.70688 0.05195 0.83427 0.0
H205 H 0.75716 0.97004 0.8493 0.0
C206 C 0.79566 0.00209 0.81188 0.0
O207 O 0.76924 0.01111 0.80268 0.0
N208 N 0.8168 0.06201 0.85858 0.0
C209 C 0.82178 0.09319 0.86032 0.0
C210 C 0.85371 0.09825 0.86189 0.0
C211 C 0.84526 0.04855 0.85967 0.0
N212 N 0.86819 0.07008 0.8615 0.0
C213 C 0.74924 0.09473 0.83248 0.0
C214 C 0.79096 0.10323 0.79847 0.0
C215 C 0.76819 0.12611 0.80254 0.0
C216 C 0.74697 0.12166 0.81958 0.0
C217 C 0.7926 0.07672 0.81188 0.0
N218 N 0.77149 0.07227 0.82845 0.0
H219 H 0.73408 0.09296 0.84654 0.0
H220 H 0.81244 0.06126 0.80989 0.0
H221 H 0.80373 0.11101 0.85929 0.0
H222 H 0.84928 0.0236 0.85769 0.0
O223 O 0.75747 0.06067 0.87474 0.0
O224 O 0.7825 0.01508 0.87705 0.0
O225 O 0.80344 0.01259 0.83066 0.0
C226 C 0.7663 0.03701 0.88668 0.0
H227 H 0.7005 0.95359 0.83533 0.0
H228 H 0.86542 0.1208 0.86252 0.0
H229 H 0.80863 0.10684 0.78599 0.0
H230 H 0.7299 0.13961 0.82362 0.0
Co231 Co 0.01768 0.77657 0.35153 0.0
C232 C 0.03865 0.71141 0.35058 0.0
C233 C 0.07746 0.74285 0.34585 0.0
C234 C 0.08817 0.7124 0.34387 0.0
N235 N 0.0464 0.74194 0.34983 0.0
N236 N 0.06361 0.69274 0.3467 0.0
H237 H 0.01494 0.70326 0.35336 0.0
H238 H 0.09109 0.76407 0.3438 0.0
C239 C 0.03374 0.8134 0.31126 0.0
O240 O 0.00374 0.81353 0.30616 0.0
N241 N 0.98931 0.81229 0.35385 0.0
C242 C 0.96075 0.81441 0.36346 0.0
C243 C 0.95148 0.8455 0.36382 0.0
C244 C 0.99746 0.84226 0.34971 0.0
N245 N 0.97458 0.86268 0.35481 0.0
C246 C 0.96101 0.75023 0.33409 0.0
C247 C 0.98472 0.73508 0.29344 0.0
C248 C 0.9522 0.73304 0.29692 0.0
C249 C 0.94073 0.73923 0.31798 0.0
C250 C 0.00412 0.74654 0.31006 0.0
N251 N 0.99165 0.75641 0.32946 0.0
H252 H 0.95181 0.75434 0.35018 0.0
H253 H 0.02901 0.74875 0.30698 0.0
H254 H 0.94819 0.79532 0.37109 0.0
H255 H 0.02054 0.84951 0.34441 0.0
O256 O -0.00079 0.75805 0.37716 0.0
O257 O 0.03914 0.79172 0.37721 0.0
O258 O 0.04316 0.79946 0.32863 0.0
C259 C 0.0197 0.77418 0.38824 0.0
H260 H 0.11186 0.70543 0.33974 0.0
H261 H 0.93 0.85483 0.3707 0.0
H262 H 0.99493 0.7293 0.27775 0.0
H263 H 0.91598 0.73756 0.32181 0.0
H264 H 0.26443 0.97741 0.09407 0.0
H265 H 0.26536 0.97202 0.05399 0.0
H266 H 0.28615 0.07076 0.04771 0.0
H267 H 0.286 0.07617 0.08743 0.0
H268 H 0.2341 0.04545 0.02059 0.0
H269 H 0.34328 0.0271 0.04173 0.0
H270 H 0.38478 -0.00122 0.06187 0.0
H271 H 0.35758 0.91246 0.03094 0.0
H272 H 0.31558 0.94024 0.01085 0.0
H273 H 0.2801 0.07757 0.91378 0.0
H274 H 0.27851 0.07299 0.95359 0.0
H275 H 0.2889 0.97235 0.94841 0.0
H276 H 0.29228 0.97714 0.90855 0.0
H277 H 0.32085 0.99142 0.98166 0.0
H278 H 0.21661 0.00894 0.95688 0.0
H279 H 0.17496 0.03566 0.93598 0.0
H280 H 0.18862 0.11942 0.97387 0.0
H281 H 0.23115 0.09352 0.99454 0.0
C282 C 0.2692 0.99788 0.08407 0.0
C283 C 0.27525 0.02717 0.09377 0.0
C284 C 0.26976 0.99477 0.06129 0.0
C285 C 0.27581 0.02103 0.04806 0.0
C286 C 0.2814 0.05029 0.05773 0.0
C287 C 0.28144 0.05328 0.0804 0.0
C288 C 0.27652 0.01845 0.02403 0.0
C289 C 0.25305 0.03375 0.01199 0.0
C290 C 0.30074 0.00226 0.01302 0.0
C291 C 0.32604 0.98565 0.02502 0.0
C292 C 0.34594 0.00202 0.0394 0.0
C293 C 0.3696 0.98609 0.05077 0.0
C294 C 0.37374 0.95381 0.04775 0.0
C295 C 0.3543 0.93744 0.0333 0.0
C296 C 0.33057 0.95326 0.02192 0.0
C297 C 0.28222 0.05453 0.92119 0.0
C298 C 0.28604 0.02769 0.90821 0.0
C299 C 0.28116 0.05187 0.9439 0.0
C300 C 0.28272 0.02221 0.95398 0.0
C301 C 0.28746 0.99544 0.94101 0.0
C302 C 0.28932 0.99819 0.91828 0.0
C303 C 0.27878 0.01924 0.978 0.0
C304 C 0.30155 0.00278 0.99009 0.0
C305 C 0.25353 0.03394 0.98909 0.0
C306 C 0.22725 0.04932 0.97717 0.0
C307 C 0.21085 0.03311 0.9607 0.0
C308 C 0.1871 0.04814 0.94886 0.0
C309 C 0.17911 0.07923 0.95361 0.0
C310 C 0.19485 0.09534 0.97021 0.0
C311 C 0.21882 0.0805 0.98197 0.0
H312 H 0.16071 0.09086 0.94444 0.0
H313 H 0.39208 0.94152 0.05656 0.0
H314 H 0.98904 0.26703 0.39606 0.0
H315 H 0.98048 0.26543 0.4359 0.0
H316 H 0.08018 0.27436 0.44656 0.0
H317 H 0.0888 0.27693 0.40717 0.0
H318 H 0.04457 0.22276 0.47088 0.0
H319 H 0.04759 0.33512 0.45388 0.0
H320 H 0.02924 0.3822 0.43406 0.0
H321 H 0.93584 0.36752 0.45841 0.0
H322 H 0.9536 0.32005 0.47812 0.0
H323 H 0.07291 0.26162 0.58089 0.0
H324 H 0.07183 0.25834 0.54097 0.0
H325 H 0.97394 0.28487 0.54099 0.0
H326 H 0.97531 0.28945 0.58077 0.0
H327 H 0.00199 0.31513 0.51042 0.0
H328 H -0.00101 0.20752 0.53171 0.0
H329 H 0.01556 0.15966 0.55136 0.0
H330 H 0.10487 0.16245 0.51892 0.0
H331 H 0.08904 0.21061 0.49932 0.0
C332 C 0.00902 0.26872 0.40698 0.0
C333 C 0.03952 0.27233 0.39863 0.0
C334 C 0.00413 0.26775 0.4296 0.0
C335 C 0.02977 0.26967 0.44398 0.0
C336 C 0.06019 0.27274 0.43563 0.0
C337 C 0.065 0.27443 0.41316 0.0
C338 C 0.02525 0.26927 0.46784 0.0
C339 C 0.03533 0.24288 0.47965 0.0
C340 C 0.01244 0.29528 0.47898 0.0
C341 C 0.00181 0.32383 0.4672 0.0
C342 C 0.02307 0.34174 0.4548 0.0
C343 C 0.0128 0.36854 0.44364 0.0
C344 C 0.98136 0.37778 0.4449 0.0
C345 C 0.96016 0.36029 0.45739 0.0
C346 C 0.97032 0.33345 0.46857 0.0
C347 C 0.0512 0.26671 0.57234 0.0
C348 C 0.02422 0.27577 0.58386 0.0
C349 C 0.05051 0.26463 0.54956 0.0
C350 C 0.02262 0.27082 0.53799 0.0
C351 C 0.99569 0.27994 0.54954 0.0
C352 C 0.99651 0.28253 0.57227 0.0
C353 C 0.02179 0.26867 0.51381 0.0
C354 C 0.01075 0.29464 0.50184 0.0
C355 C 0.03334 0.24201 0.50253 0.0
C356 C 0.04288 0.21284 0.51415 0.0
C357 C 0.02224 0.19805 0.52886 0.0
C358 C 0.0315 0.17085 0.53999 0.0
C359 C 0.06127 0.15805 0.53642 0.0
C360 C 0.08182 0.1724 0.52168 0.0
C361 C 0.0727 0.19963 0.51053 0.0
H362 H 0.06839 0.13699 0.54503 0.0
H363 H 0.97346 0.39854 0.43626 0.0
H364 H 0.72563 0.99024 0.09198 0.0
H365 H 0.71976 0.99067 0.05227 0.0
H366 H 0.74071 0.08971 0.05093 0.0
H367 H 0.74744 0.08943 0.09076 0.0
H368 H 0.68924 0.06017 0.01858 0.0
H369 H 0.79869 0.05653 0.04427 0.0
H370 H 0.83923 0.03442 0.06873 0.0
H371 H 0.82209 0.94236 0.04273 0.0
H372 H 0.78089 0.96386 0.01849 0.0
H373 H 0.74666 0.08525 0.91219 0.0
H374 H 0.73644 0.08448 0.95137 0.0
H375 H 0.75834 0.98546 0.95345 0.0
H376 H 0.76996 0.98648 0.91421 0.0
H377 H 0.7849 0.01259 0.98607 0.0
H378 H 0.68084 0.01449 0.95755 0.0
H379 H 0.63681 0.03278 0.93469 0.0
H380 H 0.63976 0.12291 0.966 0.0
H381 H 0.68412 0.10528 0.98894 0.0
C382 C 0.72809 0.01234 0.08335 0.0
C383 C 0.73741 0.03975 0.09438 0.0
C384 C 0.72467 0.01251 0.06069 0.0
C385 C 0.73001 0.04016 0.04884 0.0
C386 C 0.73641 0.06821 0.05995 0.0
C387 C 0.74038 0.06797 0.08263 0.0
C388 C 0.73394 0.03854 0.02497 0.0
C389 C 0.7102 0.05014 0.01134 0.0
C390 C 0.76092 0.02446 0.01581 0.0
C391 C 0.7865 0.01174 0.02975 0.0
C392 C 0.8034 0.03154 0.0439 0.0
C393 C 0.8265 0.01913 0.05771 0.0
C394 C 0.83318 0.987 0.05731 0.0
C395 C 0.81685 0.96724 0.04304 0.0
C396 C 0.79362 0.97952 0.02927 0.0
C397 C 0.74911 0.06325 0.92097 0.0
C398 C 0.75901 0.03588 0.91019 0.0
C399 C 0.74306 0.0628 0.94335 0.0
C400 C 0.74603 0.03479 0.95532 0.0
C401 C 0.7558 0.00734 0.94454 0.0
C402 C 0.76238 0.00791 0.92215 0.0
C403 C 0.74025 0.03461 0.97924 0.0
C404 C 0.76374 0.0226 0.99305 0.0
C405 C 0.71278 0.04794 0.98851 0.0
C406 C 0.68599 0.05863 0.97484 0.0
C407 C 0.67226 0.03828 0.95947 0.0
C408 C 0.64721 0.04852 0.9465 0.0
C409 C 0.63554 0.07901 0.94882 0.0
C410 C 0.64884 0.0993 0.9642 0.0
C411 C 0.67391 0.08918 0.97722 0.0
H412 H 0.61615 0.08688 0.93874 0.0
H413 H 0.85107 0.97744 0.06801 0.0
H414 H 0.0403 0.8193 0.41633 0.0
H415 H 0.03897 0.81779 0.45633 0.0
H416 H 0.00022 0.72408 0.454 0.0
H417 H -0.00015 0.72637 0.41408 0.0
H418 H 0.97142 0.75391 0.48341 0.0
H419 H 0.08081 0.74111 0.46641 0.0
H420 H 0.13145 0.75502 0.44943 0.0
H421 H 0.13248 0.84226 0.48458 0.0
H422 H 0.08164 0.82904 0.50157 0.0
H423 H 0.05788 0.73485 0.59537 0.0
H424 H 0.05711 0.73493 0.55548 0.0
H425 H 0.97588 0.79561 0.55604 0.0
H426 H 0.97611 0.79507 0.59608 0.0
H427 H 0.06514 0.78105 0.52775 0.0
H428 H 0.93089 0.78048 0.51118 0.0
H429 H 0.8824 0.76003 0.52805 0.0
H430 H 0.93528 0.68724 0.55994 0.0
H431 H 0.98398 0.70697 0.54303 0.0
C432 C 0.03164 0.79839 0.42443 0.0
C433 C 0.02031 0.7729 0.41224 0.0
C434 C 0.03097 0.79747 0.44726 0.0
C435 C 0.01995 0.77061 0.45824 0.0
C436 C 0.00875 0.7451 0.44595 0.0
C437 C 0.00867 0.74635 0.42316 0.0
C438 C 0.01974 0.76904 0.48249 0.0
C439 C 0.99195 0.75985 0.49308 0.0
C440 C 0.04661 0.77632 0.49517 0.0
C441 C 0.0773 0.7842 0.48511 0.0
C442 C 0.09176 0.76334 0.47042 0.0
C443 C 0.1205 0.77109 0.4608 0.0
C444 C 0.13514 0.79954 0.46588 0.0
C445 C 0.1211 0.82025 0.48064 0.0
C446 C 0.09234 0.81263 0.49029 0.0
C447 C 0.03968 0.748 0.58702 0.0
C448 C 0.017 0.76491 0.59882 0.0
C449 C 0.03937 0.74813 0.56422 0.0
C450 C 0.01641 0.76518 0.55279 0.0
C451 C 0.99357 0.78195 0.56454 0.0
C452 C 0.99375 0.78166 0.5874 0.0
C453 C 0.01689 0.76588 0.52858 0.0
C454 C 0.04465 0.77511 0.51804 0.0
C455 C 0.99034 0.75765 0.51593 0.0
C456 C 0.96112 0.74545 0.52603 0.0
C457 C 0.93214 0.76006 0.52174 0.0
C458 C 0.90462 0.7486 0.53131 0.0
C459 C 0.90578 0.72243 0.54512 0.0
C460 C 0.93443 0.70759 0.54932 0.0
C461 C 0.962 0.71893 0.53977 0.0
H462 H 0.88445 0.7136 0.55252 0.0
H463 H 0.15738 0.8055 0.45842 0.0
H464 H 0.17157 0.33325 0.26506 0.0
H465 H 0.22205 0.32547 0.24622 0.0
H466 H 0.24777 0.25558 0.29434 0.0
H467 H 0.19885 0.26422 0.31332 0.0
H468 H 0.29829 0.2825 0.28226 0.0
H469 H 0.20544 0.23881 0.24329 0.0
H470 H 0.15531 0.24478 0.22336 0.0
H471 H 0.19951 0.30754 0.17777 0.0
H472 H 0.24983 0.30209 0.1976 0.0
H473 H 0.30081 0.13192 0.24013 0.0
H474 H 0.29854 0.18328 0.25704 0.0
H475 H 0.34963 0.22327 0.20301 0.0
H476 H 0.3548 0.17118 0.18672 0.0
H477 H 0.27935 0.23666 0.20899 0.0
H478 H 0.37729 0.2485 0.24332 0.0
H479 H 0.42379 0.23289 0.26477 0.0
H480 H 0.36615 0.21974 0.32159 0.0
H481 H 0.3192 0.23476 0.30045 0.0
C482 C 0.18846 0.31677 0.27172 0.0
C483 C 0.18138 0.29932 0.29059 0.0
C484 C 0.21725 0.31237 0.26103 0.0
C485 C 0.2387 0.28968 0.26871 0.0
C486 C 0.23201 0.27351 0.28815 0.0
C487 C 0.20381 0.27833 0.29897 0.0
C488 C 0.26566 0.27858 0.25541 0.0
C489 C 0.29442 0.27282 0.26608 0.0
C490 C 0.26124 0.26707 0.23391 0.0
C491 C 0.23114 0.27041 0.22204 0.0
C492 C 0.20435 0.25398 0.22906 0.0
C493 C 0.17595 0.25726 0.2178 0.0
C494 C 0.1742 0.27662 0.19936 0.0
C495 C 0.20088 0.29265 0.1921 0.0
C496 C 0.22933 0.2895 0.20334 0.0
C497 C 0.31328 0.15102 0.23232 0.0
C498 C 0.32684 0.14743 0.21151 0.0
C499 C 0.31188 0.18057 0.24208 0.0
C500 C 0.3235 0.20703 0.23106 0.0
C501 C 0.34042 0.20307 0.21167 0.0
C502 C 0.34279 0.17329 0.20224 0.0
C503 C 0.31026 0.23791 0.23685 0.0
C504 C 0.28416 0.24772 0.22463 0.0
C505 C 0.31652 0.25187 0.25728 0.0
C506 C 0.34466 0.24287 0.27024 0.0
C507 C 0.37447 0.24213 0.26036 0.0
C508 C 0.40093 0.23339 0.27248 0.0
C509 C 0.39793 0.22536 0.29453 0.0
C510 C 0.36845 0.22605 0.30452 0.0
C511 C 0.3419 0.23476 0.29247 0.0
H512 H 0.41845 0.2186 0.30389 0.0
H513 H 0.1522 0.27913 0.19065 0.0
H514 H 0.79795 0.17738 0.81739 0.0
H515 H 0.80891 0.22575 0.79738 0.0
H516 H 0.75363 0.19196 0.74298 0.0
H517 H 0.74388 0.14271 0.76292 0.0
H518 H 0.80682 0.20806 0.72907 0.0
H519 H 0.73356 0.26152 0.77254 0.0
H520 H 0.70495 0.27764 0.80569 0.0
H521 H 0.78923 0.3182 0.8319 0.0
H522 H 0.81852 0.30192 0.79908 0.0
H523 H 0.88392 0.32248 0.67468 0.0
H524 H 0.83495 0.31049 0.69314 0.0
H525 H 0.88417 0.30292 0.75455 0.0
H526 H 0.93329 0.31665 0.73642 0.0
H527 H 0.81792 0.31571 0.7592 0.0
H528 H 0.89028 0.2427 0.72053 0.0
H529 H 0.91885 0.22817 0.68692 0.0
H530 H 0.83189 0.22547 0.6513 0.0
H531 H 0.80294 0.24053 0.68465 0.0
C532 C 0.78762 0.18074 0.80135 0.0
C533 C 0.77021 0.15669 0.79153 0.0
C534 C 0.79352 0.20851 0.79 0.0
C535 C 0.78169 0.21285 0.76874 0.0
C536 C 0.76285 0.18925 0.75939 0.0
C537 C 0.7573 0.16121 0.77069 0.0
C538 C 0.79357 0.23932 0.75526 0.0
C539 C 0.80813 0.23184 0.73538 0.0
C540 C 0.79572 0.27041 0.76345 0.0
C541 C 0.77828 0.2804 0.7833 0.0
C542 C 0.74607 0.2737 0.78542 0.0
C543 C 0.72972 0.2829 0.80416 0.0
C544 C 0.74527 0.29892 0.82089 0.0
C545 C 0.7772 0.30582 0.81891 0.0
C546 C 0.79368 0.29667 0.80021 0.0
C547 C 0.88428 0.32012 0.6923 0.0
C548 C 0.91282 0.31935 0.70398 0.0
C549 C 0.85607 0.31321 0.70284 0.0
C550 C 0.85619 0.30481 0.72502 0.0
C551 C 0.88368 0.30896 0.73733 0.0
C552 C 0.91185 0.31632 0.72687 0.0
C553 C 0.83154 0.28381 0.7337 0.0
C554 C 0.81508 0.29223 0.75264 0.0
C555 C 0.82728 0.25353 0.72465 0.0
C556 C 0.84453 0.24298 0.70496 0.0
C557 C 0.87731 0.23899 0.70551 0.0
C558 C 0.89356 0.23073 0.68651 0.0
C559 C 0.87718 0.22598 0.66697 0.0
C560 C 0.84453 0.22923 0.66643 0.0
C561 C 0.8282 0.23764 0.68536 0.0
H562 H 0.88973 0.21978 0.65223 0.0
H563 H 0.73256 0.30601 0.83539 0.0
H564 H 0.83985 0.9043 0.18308 0.0
H565 H 0.85333 0.85181 0.19599 0.0
H566 H 0.76277 0.84385 0.22707 0.0
H567 H 0.74911 0.89692 0.21416 0.0
H568 H 0.81209 0.82985 0.25449 0.0
H569 H 0.77718 0.7962 0.18527 0.0
H570 H 0.77061 0.79744 0.14524 0.0
H571 H 0.86978 0.78393 0.13684 0.0
H572 H 0.87707 0.78309 0.17682 0.0
H573 H 0.89427 0.70386 0.29599 0.0
H574 H 0.85138 0.71855 0.27144 0.0
H575 H 0.91649 0.76967 0.2309 0.0
H576 H 0.95896 0.75652 0.25558 0.0
H577 H 0.86123 0.74799 0.20794 0.0
H578 H 0.89392 0.80769 0.27386 0.0
H579 H 0.90498 0.80944 0.31348 0.0
H580 H 0.81196 0.77568 0.32701 0.0
H581 H 0.80058 0.77339 0.2874 0.0
C582 C 0.82281 0.89141 0.19269 0.0
C583 C 0.79362 0.90477 0.19791 0.0
C584 C 0.83032 0.86123 0.19975 0.0
C585 C 0.80882 0.84375 0.21216 0.0
C586 C 0.77949 0.85687 0.21728 0.0
C587 C 0.7718 0.8871 0.20999 0.0
C588 C 0.81892 0.81334 0.22154 0.0
C589 C 0.82165 0.81128 0.24433 0.0
C590 C 0.83181 0.78936 0.20825 0.0
C591 C 0.82766 0.78959 0.18412 0.0
C592 C 0.79763 0.79365 0.17491 0.0
C593 C 0.79377 0.79427 0.15221 0.0
C594 C 0.81976 0.79076 0.1385 0.0
C595 C 0.84966 0.78659 0.14748 0.0
C596 C 0.85366 0.78596 0.17017 0.0
C597 C 0.89966 0.71743 0.28148 0.0
C598 C 0.92987 0.73013 0.27831 0.0
C599 C 0.87514 0.72544 0.26732 0.0
C600 C 0.88074 0.7458 0.24971 0.0
C601 C 0.9117 0.754 0.24448 0.0
C602 C 0.9361 0.74639 0.25873 0.0
C603 C 0.85517 0.76534 0.24066 0.0
C604 C 0.84992 0.76559 0.21804 0.0
C605 C 0.84011 0.78792 0.25402 0.0
C606 C 0.84651 0.79012 0.27777 0.0
C607 C 0.87588 0.8006 0.28532 0.0
C608 C 0.88221 0.80167 0.30774 0.0
C609 C 0.8592 0.79262 0.32275 0.0
C610 C 0.82978 0.78262 0.31536 0.0
C611 C 0.82337 0.78143 0.29293 0.0
H612 H 0.86416 0.7934 0.3401 0.0
H613 H 0.81672 0.79127 0.12093 0.0
H614 H 0.33323 0.90343 0.7889 0.0
H615 H 0.31266 0.86069 0.76709 0.0
H616 H 0.26353 0.92717 0.72613 0.0
H617 H 0.28015 0.96953 0.74953 0.0
H618 H 0.22377 0.89154 0.74061 0.0
H619 H 0.32182 0.87087 0.70728 0.0
H620 H 0.37884 0.86176 0.70443 0.0
H621 H 0.37027 0.7784 0.74357 0.0
H622 H 0.31326 0.78722 0.74694 0.0
H623 H 0.16713 0.75984 0.67563 0.0
H624 H 0.21596 0.78563 0.68613 0.0
H625 H 0.18548 0.78724 0.75331 0.0
H626 H 0.13649 0.76132 0.74296 0.0
H627 H 0.26738 0.7878 0.71953 0.0
H628 H 0.17479 0.86312 0.76308 0.0
H629 H 0.11771 0.87314 0.76121 0.0
H630 H 0.118 0.85211 0.69256 0.0
H631 H 0.17509 0.8425 0.69397 0.0
C632 C 0.31796 0.90918 0.77532 0.0
C633 C 0.30707 0.94013 0.77198 0.0
C634 C 0.30683 0.88453 0.7624 0.0
C635 C 0.28589 0.8905 0.74515 0.0
C636 C 0.27907 0.92182 0.73968 0.0
C637 C 0.28907 0.9463 0.7531 0.0
C638 C 0.26641 0.86473 0.73589 0.0
C639 C 0.2337 0.86916 0.73571 0.0
C640 C 0.2789 0.83526 0.72939 0.0
C641 C 0.31323 0.82985 0.72748 0.0
C642 C 0.33211 0.85072 0.71543 0.0
C643 C 0.36444 0.84558 0.71369 0.0
C644 C 0.37817 0.81955 0.72384 0.0
C645 C 0.3596 0.79856 0.73572 0.0
C646 C 0.32726 0.80359 0.73751 0.0
C647 C 0.17149 0.76411 0.69283 0.0
C648 C 0.14772 0.75924 0.70846 0.0
C649 C 0.19952 0.77881 0.69879 0.0
C650 C 0.20394 0.78879 0.72038 0.0
C651 C 0.18228 0.77982 0.73651 0.0
C652 C 0.15423 0.76524 0.73057 0.0
C653 C 0.22557 0.81506 0.72488 0.0
C654 C 0.25817 0.81058 0.72418 0.0
C655 C 0.21329 0.84503 0.7298 0.0
C656 C 0.17911 0.8518 0.7287 0.0
C657 C 0.16267 0.86082 0.74758 0.0
C658 C 0.13032 0.86641 0.74659 0.0
C659 C 0.11423 0.8632 0.72678 0.0
C660 C 0.13047 0.85455 0.70789 0.0
C661 C 0.1628 0.849 0.70878 0.0
H662 H 0.08918 0.86744 0.72606 0.0
H663 H 0.40321 0.81561 0.72247 0.0
H664 H 0.9323 0.80192 0.6882 0.0
H665 H 0.89768 0.83649 0.70913 0.0
H666 H 0.96073 0.83045 0.76436 0.0
H667 H 0.99424 0.79393 0.74381 0.0
H668 H 0.90257 0.83507 0.77837 0.0
H669 H 0.96458 0.88785 0.72455 0.0
H670 H 0.98452 0.89794 0.6876 0.0
H671 H 0.89184 0.92327 0.66606 0.0
H672 H 0.87109 0.91243 0.70291 0.0
H673 H 0.85205 0.97907 0.82616 0.0
H674 H 0.88503 0.93965 0.80844 0.0
H675 H 0.81947 0.93446 0.75474 0.0
H676 H 0.78637 0.97401 0.77225 0.0
H677 H 0.88097 0.93659 0.74119 0.0
H678 H 0.81839 0.87927 0.79361 0.0
H679 H 0.79766 0.86799 0.83043 0.0
H680 H 0.89134 0.85264 0.85423 0.0
H681 H 0.91267 0.86427 0.81759 0.0
C682 C 0.93832 0.80757 0.70497 0.0
C683 C 0.96587 0.79575 0.71445 0.0
C684 C 0.91868 0.82734 0.71688 0.0
C685 C 0.92713 0.83684 0.73807 0.0
C686 C 0.95387 0.82361 0.74798 0.0
C687 C 0.97301 0.80291 0.73627 0.0
C688 C 0.90957 0.8624 0.74909 0.0
C689 C 0.89816 0.85738 0.77033 0.0
C690 C 0.90356 0.89148 0.73851 0.0
C691 C 0.9162 0.89894 0.71648 0.0
C692 C 0.94834 0.89522 0.7119 0.0
C693 C 0.9598 0.90111 0.69092 0.0
C694 C 0.93942 0.9111 0.67439 0.0
C695 C 0.90757 0.91545 0.67887 0.0
C696 C 0.89595 0.90942 0.69981 0.0
C697 C 0.84465 0.96964 0.81054 0.0
C698 C 0.81644 0.97951 0.80067 0.0
C699 C 0.8635 0.94706 0.8005 0.0
C700 C 0.85442 0.93389 0.78046 0.0
C701 C 0.82678 0.94431 0.77026 0.0
C702 C 0.80788 0.96686 0.7803 0.0
C703 C 0.87347 0.90892 0.77018 0.0
C704 C 0.8854 0.91422 0.74917 0.0
C705 C 0.87995 0.88019 0.78095 0.0
C706 C 0.86714 0.87295 0.80292 0.0
C707 C 0.83459 0.87372 0.80674 0.0
C708 C 0.82272 0.86723 0.82756 0.0
C709 C 0.84318 0.85969 0.84467 0.0
C710 C 0.87553 0.85853 0.84097 0.0
C711 C 0.88752 0.86505 0.82017 0.0
H712 H 0.83395 0.85467 0.86079 0.0
H713 H 0.94817 0.91546 0.65809 0.0
H714 H 0.22421 0.96397 0.18483 0.0
H715 H 0.19087 0.92759 0.20502 0.0
H716 H 0.1751 -0.00167 0.25433 0.0
H717 H 0.20728 0.03544 0.2335 0.0
H718 H 0.19208 0.90052 0.24187 0.0
H719 H 0.10299 0.98964 0.27714 0.0
H720 H 0.0806 0.04169 0.26853 0.0
H721 H 0.09978 0.02728 0.20035 0.0
H722 H 0.12165 0.97494 0.20851 0.0
H723 H 0.09517 0.82629 0.32082 0.0
H724 H 0.13061 0.8614 0.30117 0.0
H725 H 0.05838 0.87948 0.25322 0.0
H726 H 0.02248 0.84502 0.2731 0.0
H727 H 0.08487 0.93232 0.26449 0.0
H728 H 0.12191 0.83152 0.24204 0.0
H729 H 0.14109 0.77728 0.24693 0.0
H730 H 0.22136 0.81153 0.28212 0.0
H731 H 0.20242 0.86598 0.2777 0.0
C732 C 0.21381 0.97174 0.20005 0.0
C733 C 0.21821 0.00262 0.20754 0.0
C734 C 0.19475 0.95087 0.21161 0.0
C735 C 0.17999 0.96028 0.23105 0.0
C736 C 0.18554 0.99072 0.23909 0.0
C737 C 0.20411 0.01186 0.22726 0.0
C738 C 0.15836 0.93831 0.24251 0.0
C739 C 0.16866 0.90755 0.24684 0.0
C740 C 0.12753 0.94717 0.2487 0.0
C741 C 0.11423 0.97852 0.2435 0.0
C742 C 0.10228 0.99756 0.26031 0.0
C743 C 0.08966 0.02709 0.2555 0.0
C744 C 0.08876 0.0378 0.2339 0.0
C745 C 0.10045 0.01898 0.21706 0.0
C746 C 0.11298 0.98937 0.22178 0.0
C747 C 0.08687 0.83753 0.306 0.0
C748 C 0.05599 0.8328 0.2985 0.0
C749 C 0.10722 0.85756 0.29474 0.0
C750 C 0.09727 0.8729 0.2756 0.0
C751 C 0.06656 0.86796 0.26797 0.0
C752 C 0.04611 0.84811 0.2793 0.0
C753 C 0.11863 0.89465 0.2638 0.0
C754 C 0.10831 0.92537 0.25952 0.0
C755 C 0.14907 0.88549 0.25707 0.0
C756 C 0.16059 0.8528 0.25972 0.0
C757 C 0.14353 0.82747 0.25096 0.0
C758 C 0.15437 0.79669 0.25363 0.0
C759 C 0.18238 0.79096 0.26488 0.0
C760 C 0.19964 0.81601 0.27344 0.0
C761 C 0.18888 0.84683 0.27084 0.0
H762 H 0.19074 0.76712 0.26692 0.0
H763 H 0.07897 0.06065 0.23022 0.0
H764 H 0.10725 0.29635 0.71434 0.0
H765 H 0.1402 0.26408 0.73847 0.0
H766 H 0.09543 0.18027 0.71412 0.0
H767 H 0.06277 0.21219 0.68978 0.0
H768 H 0.10402 0.18317 0.76155 0.0
H769 H 0.16104 0.19508 0.6937 0.0
H770 H 0.18446 0.22571 0.6636 0.0
H771 H 0.24341 0.27435 0.70941 0.0
H772 H 0.21996 0.24432 0.73983 0.0
H773 H 0.21476 0.06966 0.79967 0.0
H774 H 0.17741 0.10093 0.77835 0.0
H775 H 0.23582 0.18288 0.78699 0.0
H776 H 0.2737 0.15151 0.80744 0.0
H777 H 0.21867 0.18083 0.74738 0.0
H778 H 0.16449 0.16846 0.81543 0.0
H779 H 0.13988 0.14079 0.84643 0.0
H780 H 0.07474 0.09644 0.80265 0.0
H781 H 0.09947 0.12319 0.77129 0.0
C782 C 0.1043 0.27107 0.71426 0.0
C783 C 0.08265 0.25676 0.70008 0.0
C784 C 0.1231 0.25272 0.728 0.0
C785 C 0.1202 0.21987 0.72797 0.0
C786 C 0.0979 0.2056 0.71437 0.0
C787 C 0.07946 0.22387 0.70039 0.0
C788 C 0.14156 0.20026 0.74129 0.0
C789 C 0.12908 0.18228 0.75842 0.0
C790 C 0.17421 0.19982 0.73734 0.0
C791 C 0.18851 0.2177 0.71905 0.0
C792 C 0.1788 0.2125 0.69737 0.0
C793 C 0.19211 0.22972 0.68025 0.0
C794 C 0.21534 0.25203 0.6846 0.0
C795 C 0.22537 0.2571 0.70607 0.0
C796 C 0.21209 0.23997 0.72326 0.0
C797 C 0.21955 0.09437 0.79703 0.0
C798 C 0.2472 0.10814 0.80514 0.0
C799 C 0.19809 0.11228 0.78496 0.0
C800 C 0.20355 0.14442 0.78127 0.0
C801 C 0.23108 0.15814 0.78954 0.0
C802 C 0.25275 0.14017 0.80124 0.0
C803 C 0.18139 0.16369 0.76809 0.0
C804 C 0.19368 0.18159 0.75078 0.0
C805 C 0.14859 0.16426 0.77211 0.0
C806 C 0.13411 0.1476 0.79094 0.0
C807 C 0.14518 0.15251 0.81236 0.0
C808 C 0.13117 0.13701 0.83001 0.0
C809 C 0.10579 0.11685 0.8265 0.0
C810 C 0.09442 0.11206 0.80533 0.0
C811 C 0.10848 0.12732 0.78761 0.0
H812 H 0.09491 0.10496 0.84019 0.0
H813 H 0.22563 0.26533 0.67132 0.0
H814 H 0.85877 0.07759 0.1681 0.0
H815 H 0.90235 0.10754 0.18359 0.0
H816 H 0.84942 0.12157 0.24286 0.0
H817 H 0.80564 0.09152 0.22751 0.0
H818 H 0.87763 0.1766 0.22627 0.0
H819 H 0.90575 0.06762 0.24086 0.0
H820 H 0.91773 0.01317 0.22996 0.0
H821 H 0.99415 0.04581 0.19031 0.0
H822 H 0.98214 0.10062 0.20052 0.0
H823 H 0.98278 0.22696 0.30569 0.0
H824 H 0.94426 0.20017 0.28307 0.0
H825 H 0.01682 0.17564 0.23687 0.0
H826 H 0.05604 0.20107 0.26036 0.0
H827 H 0.98159 0.12833 0.24111 0.0
H828 H 0.95886 0.23491 0.22655 0.0
H829 H 0.94846 0.29076 0.23435 0.0
H830 H 0.8645 0.26566 0.26901 0.0
H831 H 0.87461 0.2096 0.26171 0.0
C832 C 0.8563 0.08709 0.18441 0.0
C833 C 0.82867 0.08217 0.19658 0.0
C834 C 0.88132 0.10409 0.19326 0.0
C835 C 0.87916 0.1166 0.2144 0.0
C836 C 0.85152 0.11206 0.2265 0.0
C837 C 0.82658 0.09482 0.21774 0.0
C838 C 0.90554 0.13462 0.22398 0.0
C839 C 0.9003 0.16604 0.22973 0.0
C840 C 0.93559 0.12121 0.22737 0.0
C841 C 0.94279 0.08827 0.22125 0.0
C842 C 0.92489 0.06324 0.22961 0.0
C843 C 0.93169 0.03232 0.22356 0.0
C844 C 0.95658 0.02608 0.20934 0.0
C845 C 0.97478 0.05075 0.2012 0.0
C846 C 0.96798 0.08174 0.20711 0.0
C847 C 0.99054 0.21615 0.2906 0.0
C848 C 0.02238 0.21638 0.28467 0.0
C849 C 0.96841 0.20095 0.27757 0.0
C850 C 0.97736 0.18652 0.25788 0.0
C851 C 0.00924 0.18675 0.25188 0.0
C852 C 0.03161 0.20137 0.26526 0.0
C853 C 0.95343 0.17025 0.24421 0.0
C854 C 0.95911 0.13918 0.23751 0.0
C855 C 0.924 0.18425 0.23937 0.0
C856 C 0.91762 0.218 0.24368 0.0
C857 C 0.93827 0.24127 0.23595 0.0
C858 C 0.93242 0.27298 0.24027 0.0
C859 C 0.90586 0.28175 0.25219 0.0
C860 C 0.88506 0.25883 0.25977 0.0
C861 C 0.89082 0.22708 0.25552 0.0
H862 H 0.90138 0.30631 0.25553 0.0
H863 H 0.96184 0.00213 0.20469 0.0
H864 H 0.13809 0.1083 0.12924 0.0
H865 H 0.08208 0.09744 0.12608 0.0
H866 H 0.09561 0.00763 0.15739 0.0
H867 H 0.15154 0.01864 0.16138 0.0
H868 H 0.06252 0.0043 0.11815 0.0
H869 H 0.06088 0.06396 0.1846 0.0
H870 H 0.07027 0.10906 0.20903 0.0
H871 H 0.01517 0.16821 0.167 0.0
H872 H 0.0061 0.12371 0.14202 0.0
H873 H 0.90201 0.96384 0.13233 0.0
H874 H 0.95811 0.97475 0.1358 0.0
H875 H 0.94253 0.06956 0.11305 0.0
H876 H 0.88618 0.05879 0.11009 0.0
H877 H 0.97694 0.07026 0.14836 0.0
H878 H 0.97984 0.01289 0.08114 0.0
H879 H 0.9691 0.96853 0.05636 0.0
H880 H 0.0208 0.90659 0.09862 0.0
H881 H 0.03149 0.95051 0.12383 0.0
C882 C 0.12922 0.08645 0.13583 0.0
C883 C 0.14954 0.06428 0.14544 0.0
C884 C 0.09714 0.08029 0.13395 0.0
C885 C 0.08478 0.05181 0.14157 0.0
C886 C 0.10481 0.02972 0.15135 0.0
C887 C 0.13684 0.03599 0.15345 0.0
C888 C 0.05126 0.04433 0.13816 0.0
C889 C 0.04375 0.01844 0.12499 0.0
C890 C 0.02695 0.06347 0.14655 0.0
C891 C 0.03324 0.09054 0.16123 0.0
C892 C 0.05124 0.08669 0.18036 0.0
C893 C 0.05637 0.11212 0.19436 0.0
C894 C 0.0434 0.14147 0.18955 0.0
C895 C 0.02529 0.14548 0.17069 0.0
C896 C 0.02017 0.12016 0.15658 0.0
C897 C 0.91071 0.98673 0.12756 0.0
C898 C 0.8899 0.01048 0.12086 0.0
C899 C 0.94274 0.993 0.1296 0.0
C900 C 0.95456 0.02292 0.12454 0.0
C901 C 0.9339 0.04634 0.11711 0.0
C902 C 0.90183 0.04018 0.11534 0.0
C903 C 0.98815 0.03034 0.12818 0.0
C904 C 0.99569 0.05619 0.14141 0.0
C905 C 0.01252 0.0114 0.11965 0.0
C906 C 0.00622 0.98495 0.10448 0.0
C907 C 0.98872 0.98976 0.08524 0.0
C908 C 0.98267 0.96471 0.0711 0.0
C909 C 0.99419 0.93475 0.07594 0.0
C910 C 0.01186 0.9298 0.09491 0.0
C911 C 0.01795 0.95478 0.10912 0.0
H912 H 0.98948 0.91538 0.06497 0.0
H913 H 0.04732 0.16109 0.20045 0.0
H914 H 0.04489 0.16237 0.6627 0.0
H915 H 0.05576 0.10646 0.66522 0.0
H916 H 0.96185 0.08575 0.64325 0.0
H917 H 0.95091 0.14193 0.63969 0.0
H918 H 0.98496 0.0508 0.68186 0.0
H919 H 0.01359 0.07774 0.6078 0.0
H920 H 0.04099 0.10937 0.57993 0.0
H921 H 0.12992 0.08431 0.60819 0.0
H922 H 0.10299 0.05293 0.63648 0.0
H923 H 0.00064 0.89281 0.64366 0.0
H924 H 0.99112 0.94939 0.64668 0.0
H925 H 0.08548 0.96285 0.67031 0.0
H926 H 0.09492 0.90602 0.66803 0.0
H927 H 0.06417 0.00205 0.63304 0.0
H928 H 0.03857 0.97432 0.70569 0.0
H929 H 0.01432 0.94991 0.73808 0.0
H930 H 0.92314 0.97921 0.71609 0.0
H931 H 0.94674 0.00331 0.6833 0.0
C932 C 0.02653 0.14617 0.65806 0.0
C933 C 0.99708 0.15692 0.65061 0.0
C934 C 0.0328 0.11414 0.65971 0.0
C935 C 0.00969 0.09216 0.65424 0.0
C936 C 0.97995 0.10253 0.64752 0.0
C937 C 0.97374 0.13466 0.64557 0.0
C938 C 0.01693 0.05831 0.65521 0.0
C939 C 0.00181 0.03986 0.67097 0.0
C940 C 0.03999 0.04475 0.64156 0.0
C941 C 0.05625 0.06324 0.62439 0.0
C942 C 0.03898 0.07919 0.60819 0.0
C943 C 0.05443 0.09703 0.59229 0.0
C944 C 0.08718 0.09892 0.59232 0.0
C945 C 0.10455 0.08286 0.60821 0.0
C946 C 0.0892 0.06502 0.62416 0.0
C947 C 0.01918 0.90774 0.64985 0.0
C948 C 0.04839 0.89498 0.65583 0.0
C949 C 0.01367 0.93995 0.65161 0.0
C950 C 0.03735 0.95999 0.65915 0.0
C951 C 0.06681 0.94755 0.66471 0.0
C952 C 0.07223 0.91522 0.66321 0.0
C953 C 0.03176 0.99418 0.65952 0.0
C954 C 0.04719 0.01279 0.64394 0.0
C955 C 0.00917 0.00792 0.67351 0.0
C956 C 0.99446 0.99037 0.69186 0.0
C957 C 0.01328 0.97499 0.70747 0.0
C958 C -0.00033 0.96145 0.72603 0.0
C959 C 0.96726 0.96329 0.72924 0.0
C960 C 0.94829 0.97807 0.71367 0.0
C961 C 0.96176 0.99157 0.69506 0.0
H962 H 0.95679 0.95301 0.7437 0.0
H963 H 0.09911 0.11276 0.58001 0.0
H964 H 0.91109 0.1028 0.83831 0.0
H965 H 0.96662 0.08879 0.83319 0.0
H966 H 0.95456 0.00871 0.87567 0.0
H967 H 0.89913 0.02245 0.88057 0.0
H968 H 0.007 0.04786 0.88529 0.0
H969 H 0.95799 0.99417 0.82552 0.0
H970 H 0.92583 0.98852 0.79222 0.0
H971 H 0.98704 0.05163 0.75785 0.0
H972 H 0.01929 0.05815 0.79111 0.0
H973 H 0.14897 0.96812 0.8712 0.0
H974 H 0.09272 0.97886 0.87113 0.0
H975 H 0.10567 0.04818 0.82045 0.0
H976 H 0.16199 0.03714 0.8201 0.0
H977 H 0.0526 0.01603 0.81404 0.0
H978 H 0.10165 0.06932 0.87455 0.0
H979 H 0.13279 0.0747 0.90835 0.0
H980 H 0.07047 0.01142 0.9416 0.0
H981 H 0.03924 0.00525 0.90789 0.0
C982 C 0.92052 0.08247 0.84671 0.0
C983 C 0.90113 0.06374 0.85994 0.0
C984 C 0.95197 0.07431 0.84358 0.0
C985 C 0.96438 0.04759 0.8539 0.0
C986 C 0.94522 0.02931 0.8675 0.0
C987 C 0.91374 0.03716 0.87032 0.0
C988 C 0.9977 0.03919 0.85126 0.0
C989 C 0.01697 0.04055 0.86978 0.0
C990 C 0.01053 0.03041 0.83085 0.0
C991 C 0.9908 0.02705 0.81094 0.0
C992 C 0.96436 0.00723 0.81098 0.0
C993 C 0.94616 0.00378 0.79208 0.0
C994 C 0.95429 0.01985 0.77297 0.0
C995 C 0.9807 0.03931 0.7727 0.0
C996 C -0.00106 0.0429 0.79157 0.0
C997 C 0.13983 0.98529 0.85979 0.0
C998 C 0.15998 0.00212 0.84587 0.0
C999 C 0.10771 0.9916 0.8599 0.0
C1000 C 0.09523 0.01501 0.84624 0.0
C1001 C 0.11497 0.03054 0.83144 0.0
C1002 C 0.14713 0.0243 0.83134 0.0
C1003 C 0.06193 0.02436 0.84819 0.0
C1004 C 0.04268 0.02339 0.82954 0.0
C1005 C 0.04897 0.03348 0.86852 0.0
C1006 C 0.06824 0.03665 0.88864 0.0
C1007 C 0.09476 0.05632 0.889 0.0
C1008 C 0.11239 0.05955 0.90816 0.0
C1009 C 0.10357 0.04344 0.92712 0.0
C1010 C 0.07724 0.0239 0.92691 0.0
C1011 C 0.05958 0.02052 0.90779 0.0
H1012 H 0.117 0.04614 0.94201 0.0
H1013 H 0.94019 0.01714 0.75836 0.0
H1014 H 0.95595 0.90717 0.38361 0.0
H1015 H 0.96906 0.96333 0.38176 0.0
H1016 H 0.01128 0.94908 0.31838 0.0
H1017 H -0.0013 0.89319 0.32045 0.0
H1018 H 0.0512 0.97575 0.34576 0.0
H1019 H 0.9438 0.99215 0.32447 0.0
H1020 H 0.88628 0.98806 0.32801 0.0
H1021 H 0.89004 0.03763 0.38906 0.0
H1022 H 0.94767 0.04166 0.38603 0.0
H1023 H 0.09223 0.13228 0.32087 0.0
H1024 H 0.06995 0.07927 0.32074 0.0
H1025 H 0.02142 0.0995 0.38113 0.0
H1026 H 0.04226 0.15325 0.38029 0.0
H1027 H 0.98397 0.06972 0.35591 0.0
H1028 H 0.092 0.05216 0.37735 0.0
H1029 H 0.14955 0.05581 0.37346 0.0
H1030 H 0.14448 0.00759 0.3119 0.0
H1031 H 0.08687 0.00393 0.31537 0.0
C1032 C 0.96725 0.91636 0.3691 0.0
C1033 C 0.97667 0.89607 0.35227 0.0
C1034 C 0.97474 0.94832 0.36803 0.0
C1035 C 0.99127 0.96028 0.34996 0.0
C1036 C -0.00126 0.94028 0.33253 0.0
C1037 C 0.99157 0.90846 0.33371 0.0
C1038 C 0.0039 0.99262 0.35009 0.0
C1039 C 0.03644 0.99635 0.34769 0.0
C1040 C 0.98474 0.01932 0.35328 0.0
C1041 C 0.95009 0.01691 0.35513 0.0
C1042 C 0.9324 0.00193 0.33875 0.0
C1043 C 0.89977 -0.00032 0.34064 0.0
C1044 C 0.88452 0.0125 0.35878 0.0
C1045 C 0.90188 0.02768 0.37504 0.0
C1046 C 0.93453 0.02998 0.37323 0.0
C1047 C 0.07711 0.12507 0.33418 0.0
C1048 C 0.06917 0.14629 0.35077 0.0
C1049 C 0.06442 0.09487 0.33417 0.0
C1050 C 0.04452 0.08511 0.3512 0.0
C1051 C 0.03676 0.10643 0.36786 0.0
C1052 C 0.04876 0.13692 0.3675 0.0
C1053 C 0.03133 0.05289 0.35145 0.0
C1054 C -0.00126 0.04913 0.35402 0.0
C1055 C 0.05046 0.02603 0.34845 0.0
C1056 C 0.08513 0.02798 0.34654 0.0
C1057 C 0.10316 0.04247 0.36295 0.0
C1058 C 0.13578 0.04452 0.36082 0.0
C1059 C 0.15066 0.032 0.34243 0.0
C1060 C 0.13295 0.0173 0.32614 0.0
C1061 C 0.10033 0.01519 0.32819 0.0
H1062 H 0.17591 0.03363 0.34082 0.0
H1063 H 0.85926 0.01074 0.36021 0.0
H1064 H 0.38546 0.05091 0.18888 0.0
H1065 H 0.44077 0.06002 0.19748 0.0
H1066 H 0.46584 0.9756 0.16253 0.0
H1067 H 0.41018 0.96599 0.15451 0.0
H1068 H 0.50051 0.98125 0.19842 0.0
H1069 H 0.47049 0.05007 0.13874 0.0
H1070 H 0.43801 0.091 0.12121 0.0
H1071 H 0.46338 0.15632 0.17167 0.0
H1072 H 0.49573 0.11562 0.18964 0.0
H1073 H 0.65273 0.00895 0.16021 0.0
H1074 H 0.597 0.00062 0.16557 0.0
H1075 H 0.59193 0.08384 0.20553 0.0
H1076 H 0.64848 0.09213 0.20066 0.0
H1077 H 0.54672 0.08205 0.17331 0.0
H1078 H 0.58374 0.01424 0.22962 0.0
H1079 H 0.61672 0.97288 0.24611 0.0
H1080 H 0.57906 0.90521 0.20117 0.0
H1081 H 0.54618 0.94626 0.18418 0.0
C1082 C 0.40284 0.03433 0.18307 0.0
C1083 C 0.39381 0.00802 0.17074 0.0
C1084 C 0.43437 0.03951 0.18802 0.0
C1085 C 0.45747 0.01885 0.18026 0.0
C1086 C 0.44837 0.99189 0.16863 0.0
C1087 C 0.41671 0.98643 0.164 0.0
C1088 C 0.4912 0.02605 0.18333 0.0
C1089 C 0.51068 0.00319 0.19282 0.0
C1090 C 0.50426 0.05512 0.17663 0.0
C1091 C 0.48526 0.07973 0.16564 0.0
C1092 C 0.46901 0.07312 0.14615 0.0
C1093 C 0.45064 0.09627 0.13613 0.0
C1094 C 0.44856 0.12622 0.14536 0.0
C1095 C 0.46497 0.13311 0.16457 0.0
C1096 C 0.48335 0.11002 0.17466 0.0
C1097 C 0.64019 0.02517 0.17061 0.0
C1098 C 0.65533 0.05113 0.18018 0.0
C1099 C 0.60816 0.02037 0.17359 0.0
C1100 C 0.59047 0.04135 0.18619 0.0
C1101 C 0.60531 0.0673 0.19583 0.0
C1102 C 0.63754 0.07207 0.19294 0.0
C1103 C 0.55614 0.03693 0.1879 0.0
C1104 C 0.53651 0.06032 0.17928 0.0
C1105 C 0.54302 0.00829 0.19527 0.0
C1106 C 0.5626 0.98342 0.20554 0.0
C1107 C 0.58264 0.99059 0.22315 0.0
C1108 C 0.6013 0.96719 0.2326 0.0
C1109 C 0.60002 0.93645 0.22467 0.0
C1110 C 0.58003 0.92904 0.2073 0.0
C1111 C 0.56133 0.95236 0.19777 0.0
H1112 H 0.61449 0.91836 0.23201 0.0
H1113 H 0.4343 0.14411 0.1376 0.0
H1114 H 0.02629 0.65744 0.70298 0.0
H1115 H 0.03992 0.60184 0.70683 0.0
H1116 H 0.97038 0.57809 0.65822 0.0
H1117 H 0.9566 0.63355 0.65444 0.0
H1118 H 0.9765 0.53205 0.69005 0.0
H1119 H 0.0437 0.59584 0.64264 0.0
H1120 H 0.07858 0.6412 0.63625 0.0
H1121 H 0.14151 0.60774 0.68604 0.0
H1122 H 0.10668 0.56244 0.69296 0.0
H1123 H 0.02345 0.4076 0.62692 0.0
H1124 H 0.01311 0.46152 0.63845 0.0
H1125 H 0.09097 0.45666 0.68356 0.0
H1126 H 0.10151 0.4024 0.67183 0.0
H1127 H 0.08483 0.51524 0.66232 0.0
H1128 H 0.02209 0.44448 0.70361 0.0
H1129 H 0.98691 0.39909 0.7088 0.0
H1130 H 0.9155 0.44494 0.67077 0.0
H1131 H 0.95047 0.49035 0.66495 0.0
C1132 C 0.01353 0.64022 0.69346 0.0
C1133 C 0.99089 0.64971 0.67807 0.0
C1134 C 0.02119 0.60855 0.69577 0.0
C1135 C 0.00657 0.58607 0.68248 0.0
C1136 C 0.98194 0.59517 0.66859 0.0
C1137 C 0.9741 0.62683 0.66641 0.0
C1138 C 0.0198 0.55417 0.68047 0.0
C1139 C 0.00019 0.52828 0.68409 0.0
C1140 C 0.05101 0.5494 0.67317 0.0
C1141 C 0.07247 0.57597 0.66846 0.0
C1142 C 0.06494 0.59823 0.65226 0.0
C1143 C 0.08466 0.62393 0.64856 0.0
C1144 C 0.1122 0.6274 0.66077 0.0
C1145 C 0.12014 0.60506 0.67663 0.0
C1146 C 0.10042 0.57937 0.68044 0.0
C1147 C 0.03866 0.4183 0.639 0.0
C1148 C 0.063 0.40098 0.6487 0.0
C1149 C 0.03271 0.44893 0.64562 0.0
C1150 C 0.05079 0.46259 0.66225 0.0
C1151 C 0.07664 0.44626 0.67084 0.0
C1152 C 0.08274 0.41549 0.66407 0.0
C1153 C 0.04118 0.4932 0.67125 0.0
C1154 C 0.06146 0.51885 0.66891 0.0
C1155 C 0.01059 0.4977 0.67976 0.0
C1156 C 0.98902 0.47082 0.68377 0.0
C1157 C -0.00106 0.44485 0.69626 0.0
C1158 C 0.97904 0.41909 0.6993 0.0
C1159 C 0.949 0.41912 0.6901 0.0
C1160 C 0.93878 0.44496 0.67789 0.0
C1161 C 0.95863 0.47074 0.67474 0.0
H1162 H 0.93364 0.39915 0.69246 0.0
H1163 H 0.12741 0.64735 0.65793 0.0
H1164 H 0.42219 0.09786 0.86188 0.0
H1165 H 0.47731 0.08913 0.85337 0.0
H1166 H 0.45094 0.02647 0.80106 0.0
H1167 H 0.3958 0.03665 0.80852 0.0
H1168 H 0.50575 0.03611 0.85803 0.0
H1169 H 0.50978 0.02092 0.76367 0.0
H1170 H 0.48429 0.04283 0.73077 0.0
H1171 H 0.46421 0.12823 0.76534 0.0
H1172 H 0.48994 0.10701 0.79835 0.0
H1173 H 0.64646 0.96164 0.83778 0.0
H1174 H 0.59063 0.97112 0.83187 0.0
H1175 H 0.61168 0.06213 0.80443 0.0
H1176 H 0.66755 0.05202 0.80892 0.0
H1177 H 0.55988 0.03905 0.78623 0.0
H1178 H 0.60071 0.05365 0.85937 0.0
H1179 H 0.62848 0.03646 0.89272 0.0
H1180 H 0.56094 0.96278 0.90204 0.0
H1181 H 0.53305 0.97927 0.86852 0.0
C1182 C 0.42799 0.08291 0.84819 0.0
C1183 C 0.40447 0.06755 0.83614 0.0
C1184 C 0.45957 0.07776 0.84344 0.0
C1185 C 0.4682 0.05708 0.82664 0.0
C1186 C 0.44483 0.04277 0.81396 0.0
C1187 C 0.41326 0.04823 0.81851 0.0
C1188 C 0.50145 0.04809 0.82388 0.0
C1189 C 0.51754 0.03689 0.84232 0.0
C1190 C 0.51683 0.04909 0.80338 0.0
C1191 C 0.50152 0.06221 0.78355 0.0
C1192 C 0.50002 0.04441 0.76423 0.0
C1193 C 0.48551 0.05671 0.74556 0.0
C1194 C 0.47254 0.08686 0.74599 0.0
C1195 C 0.47415 0.10482 0.76506 0.0
C1196 C 0.48865 0.09265 0.78377 0.0
C1197 C 0.63935 0.98322 0.82983 0.0
C1198 C 0.66141 0.00656 0.82454 0.0
C1199 C 0.6074 0.98866 0.82655 0.0
C1200 C 0.5971 0.01771 0.81836 0.0
C1201 C 0.61916 0.03971 0.81105 0.0
C1202 C 0.65109 0.03409 0.81399 0.0
C1203 C 0.56389 0.02711 0.82036 0.0
C1204 C 0.54786 0.03825 0.80186 0.0
C1205 C 0.54869 0.02694 0.84092 0.0
C1206 C 0.565 0.01749 0.86135 0.0
C1207 C 0.59187 0.03371 0.86849 0.0
C1208 C 0.60763 0.02409 0.88742 0.0
C1209 C 0.59652 -0.00153 0.89946 0.0
C1210 C 0.56954 0.98256 0.89267 0.0
C1211 C 0.55375 0.99204 0.87372 0.0
H1212 H 0.60879 0.99093 0.91406 0.0
H1213 H 0.46131 0.09633 0.73152 0.0
H1214 H 0.08706 0.39097 0.33109 0.0
H1215 H 0.09612 0.44744 0.33263 0.0
H1216 H 0.99634 0.46403 0.32953 0.0
H1217 H 0.98683 0.40753 0.32872 0.0
H1218 H 0.03291 0.50226 0.30093 0.0
H1219 H 0.02919 0.46947 0.37661 0.0
H1220 H 0.04523 0.43706 0.40816 0.0
H1221 H 0.13998 0.47029 0.40184 0.0
H1222 H 0.12456 0.50256 0.37001 0.0
H1223 H 0.01348 0.6566 0.33599 0.0
H1224 H 0.01239 0.60001 0.33181 0.0
H1225 H 0.11169 0.59544 0.34558 0.0
H1226 H 0.11269 0.6524 0.35103 0.0
H1227 H 0.08088 0.55043 0.36687 0.0
H1228 H 0.08399 0.58707 0.2932 0.0
H1229 H 0.06824 0.61932 0.2615 0.0
H1230 H 0.97595 0.57884 0.26324 0.0
H1231 H 0.991 0.54665 0.29515 0.0
C1232 C 0.06695 0.40648 0.331 0.0
C1233 C 0.03614 0.39456 0.32998 0.0
C1234 C 0.07224 0.43877 0.33171 0.0
C1235 C 0.04688 0.4597 0.3313 0.0
C1236 C 0.01618 0.44808 0.32979 0.0
C1237 C 0.01082 0.41578 0.32927 0.0
C1238 C 0.05228 0.49379 0.33292 0.0
C1239 C 0.04316 0.51293 0.31537 0.0
C1240 C 0.06657 0.5073 0.35153 0.0
C1241 C 0.0758 0.48814 0.37078 0.0
C1242 C 0.0535 0.46966 0.38183 0.0
C1243 C 0.06246 0.45135 0.39979 0.0
C1244 C 0.09362 0.45154 0.40696 0.0
C1245 C 0.11586 0.47013 0.39624 0.0
C1246 C 0.10702 0.48844 0.37825 0.0
C1247 C 0.03508 0.64372 0.33849 0.0
C1248 C 0.06319 0.65915 0.344 0.0
C1249 C 0.03449 0.6113 0.33573 0.0
C1250 C 0.06207 0.59361 0.33799 0.0
C1251 C 0.09018 0.60876 0.34361 0.0
C1252 C 0.09076 0.64131 0.34657 0.0
C1253 C 0.06104 0.55919 0.33497 0.0
C1254 C 0.071 0.53988 0.35226 0.0
C1255 C 0.04766 0.5455 0.31604 0.0
C1256 C 0.03859 0.56458 0.29668 0.0
C1257 C 0.06028 0.58518 0.28691 0.0
C1258 C 0.05148 0.60343 0.26889 0.0
C1259 C 0.0211 0.60117 0.26039 0.0
C1260 C -0.00052 0.58057 0.26985 0.0
C1261 C 0.00814 0.56228 0.28788 0.0
H1262 H 0.01433 0.61534 0.24644 0.0
H1263 H 0.10052 0.43735 0.42086 0.0
loop_
_geom_bond_atom_site_label_1
_geom_bond_atom_site_label_2
_geom_bond_distance
_geom_bond_site_symmetry_2
_ccdc_geom_bond_type
Co0 N4 2.148 . S
Co0 N10 2.128 . S
Co0 N20 2.194 . S
Co0 O25 2.351 . S
Co0 O26 2.155 . S
Co0 O27 2.096 1_545 S
C1 N4 1.301 . S
C1 N5 1.328 . S
C1 H6 0.930 . S
C2 C3 1.333 . S
C2 N4 1.317 . S
C2 H7 0.930 1_545 S
C3 C2 1.333 . S
C3 N5 1.350 . S
C3 H29 0.931 1_545 S
N4 Co0 2.148 . S
N4 C1 1.301 . S
N4 C2 1.317 . S
N5 C1 1.328 . S
N5 C3 1.350 . S
H6 C1 0.930 . S
H7 C2 0.930 1_565 S
C8 O9 1.224 1_565 S
C8 O27 1.247 . S
O9 C8 1.224 1_545 S
N10 Co0 2.128 . S
N10 C11 1.355 . S
N10 C13 1.311 . S
C11 N10 1.355 . S
C11 C12 1.363 . S
C11 H23 0.929 . S
C12 C11 1.363 . S
C12 N14 1.375 . S
C12 H30 0.931 . S
C13 N10 1.311 . S
C13 N14 1.347 . S
C13 H24 0.929 . S
N14 C12 1.375 . S
N14 C13 1.347 . S
C15 C18 1.365 . S
C15 N20 1.328 . S
C15 H21 0.929 . S
C16 C17 1.362 . S
C16 C19 1.378 . S
C16 H31 0.929 . S
C17 C16 1.362 . S
C17 C18 1.366 . S
C18 C15 1.365 . S
C18 C17 1.366 . S
C18 H32 0.930 . S
C19 C16 1.378 . S
C19 N20 1.315 . S
C19 H22 0.930 . S
N20 Co0 2.194 . S
N20 C15 1.328 . S
N20 C19 1.315 . S
H21 C15 0.929 . S
H22 C19 0.930 . S
H23 C11 0.929 . S
H24 C13 0.929 . S
O25 Co0 2.351 . S
O25 C28 1.244 . S
O26 Co0 2.155 . S
O26 C28 1.240 . S
O27 Co0 2.096 1_565 S
O27 C8 1.247 . S
C28 O25 1.244 . S
C28 O26 1.240 . S
H29 C3 0.931 1_565 S
H30 C12 0.931 . S
H31 C16 0.929 . S
H32 C18 0.930 . S
Co33 N37 2.148 . S
Co33 N43 2.128 . S
Co33 N53 2.194 1_455 S
Co33 O58 2.351 1_455 S
Co33 O59 2.155 . S
Co33 O60 2.096 . S
C34 N37 1.301 . S
C34 N38 1.328 . S
C34 H39 0.930 1_455 S
C35 C36 1.333 . S
C35 N37 1.317 . S
C35 H40 0.930 . S
C36 C35 1.333 . S
C36 N38 1.350 . S
C36 H62 0.931 . S
N37 Co33 2.148 . S
N37 C34 1.301 . S
N37 C35 1.317 . S
N38 C34 1.328 . S
N38 C36 1.350 . S
H39 C34 0.930 1_655 S
H40 C35 0.930 . S
C41 O42 1.224 . S
C41 O60 1.247 . S
O42 C41 1.224 . S
N43 Co33 2.128 . S
N43 C44 1.355 1_455 S
N43 C46 1.311 . S
C44 N43 1.355 1_655 S
C44 C45 1.363 . S
C44 H56 0.929 . S
C45 C44 1.363 . S
C45 N47 1.375 1_655 S
C45 H63 0.931 . S
C46 N43 1.311 . S
C46 N47 1.347 . S
C46 H57 0.929 . S
N47 C45 1.375 1_455 S
N47 C46 1.347 . S
C48 C51 1.365 . S
C48 N53 1.328 . S
C48 H54 0.929 . S
C49 C50 1.362 . S
C49 C52 1.378 . S
C49 H64 0.929 . S
C50 C49 1.362 . S
C50 C51 1.366 . S
C51 C48 1.365 . S
C51 C50 1.366 . S
C51 H65 0.930 . S
C52 C49 1.378 . S
C52 N53 1.315 . S
C52 H55 0.930 . S
N53 Co33 2.194 1_655 S
N53 C48 1.328 . S
N53 C52 1.315 . S
H54 C48 0.929 . S
H55 C52 0.930 . S
H56 C44 0.929 . S
H57 C46 0.929 . S
O58 Co33 2.351 1_655 S
O58 C61 1.244 1_655 S
O59 Co33 2.155 . S
O59 C61 1.240 . S
O60 Co33 2.096 . S
O60 C41 1.247 . S
C61 O58 1.244 1_455 S
C61 O59 1.240 . S
H62 C36 0.931 . S
H63 C45 0.931 . S
H64 C49 0.929 . S
H65 C51 0.930 . S
Co66 N70 2.148 . S
Co66 N76 2.128 . S
Co66 N86 2.194 1_545 S
Co66 O91 2.351 1_545 S
Co66 O92 2.155 . S
Co66 O93 2.096 . S
C67 N70 1.301 . S
C67 N71 1.328 . S
C67 H72 0.930 1_545 S
C68 C69 1.333 . S
C68 N70 1.317 . S
C68 H73 0.930 . S
C69 C68 1.333 . S
C69 N71 1.350 . S
C69 H95 0.931 . S
N70 Co66 2.148 . S
N70 C67 1.301 . S
N70 C68 1.317 . S
N71 C67 1.328 . S
N71 C69 1.350 . S
H72 C67 0.930 1_565 S
H73 C68 0.930 . S
C74 O75 1.224 . S
C74 O93 1.247 . S
O75 C74 1.224 . S
N76 Co66 2.128 . S
N76 C77 1.355 1_545 S
N76 C79 1.311 . S
C77 N76 1.355 1_565 S
C77 C78 1.363 . S
C77 H89 0.929 . S
C78 C77 1.363 . S
C78 N80 1.375 1_565 S
C78 H96 0.931 . S
C79 N76 1.311 . S
C79 N80 1.347 . S
C79 H90 0.929 . S
N80 C78 1.375 1_545 S
N80 C79 1.347 . S
C81 C84 1.365 . S
C81 N86 1.328 . S
C81 H87 0.929 . S
C82 C83 1.362 . S
C82 C85 1.378 . S
C82 H97 0.929 . S
C83 C82 1.362 . S
C83 C84 1.366 . S
C84 C81 1.365 . S
C84 C83 1.366 . S
C84 H98 0.930 . S
C85 C82 1.378 . S
C85 N86 1.315 . S
C85 H88 0.930 . S
N86 Co66 2.194 1_565 S
N86 C81 1.328 . S
N86 C85 1.315 . S
H87 C81 0.929 . S
H88 C85 0.930 . S
H89 C77 0.929 . S
H90 C79 0.929 . S
O91 Co66 2.351 1_565 S
O91 C94 1.244 1_565 S
O92 Co66 2.155 . S
O92 C94 1.240 . S
O93 Co66 2.096 . S
O93 C74 1.247 . S
C94 O91 1.244 1_545 S
C94 O92 1.240 . S
H95 C69 0.931 . S
H96 C78 0.931 . S
H97 C82 0.929 . S
H98 C84 0.930 . S
Co99 N103 2.148 . S
Co99 N109 2.128 . S
Co99 N119 2.194 . S
Co99 O124 2.351 . S
Co99 O125 2.155 . S
Co99 O126 2.096 1_455 S
C100 N103 1.301 . S
C100 N104 1.328 . S
C100 H105 0.930 . S
C101 C102 1.333 . S
C101 N103 1.317 . S
C101 H106 0.930 1_455 S
C102 C101 1.333 . S
C102 N104 1.350 . S
C102 H128 0.931 1_455 S
N103 Co99 2.148 . S
N103 C100 1.301 . S
N103 C101 1.317 . S
N104 C100 1.328 . S
N104 C102 1.350 . S
H105 C100 0.930 . S
H106 C101 0.930 1_655 S
C107 O108 1.224 1_655 S
C107 O126 1.247 . S
O108 C107 1.224 1_455 S
N109 Co99 2.128 . S
N109 C110 1.355 . S
N109 C112 1.311 . S
C110 N109 1.355 . S
C110 C111 1.363 . S
C110 H122 0.929 . S
C111 C110 1.363 . S
C111 N113 1.375 . S
C111 H129 0.931 . S
C112 N109 1.311 . S
C112 N113 1.347 . S
C112 H123 0.929 . S
N113 C111 1.375 . S
N113 C112 1.347 . S
C114 C117 1.365 . S
C114 N119 1.328 . S
C114 H120 0.929 . S
C115 C116 1.362 . S
C115 C118 1.378 . S
C115 H130 0.929 . S
C116 C115 1.362 . S
C116 C117 1.366 . S
C117 C114 1.365 . S
C117 C116 1.366 . S
C117 H131 0.930 . S
C118 C115 1.378 . S
C118 N119 1.315 . S
C118 H121 0.930 . S
N119 Co99 2.194 . S
N119 C114 1.328 . S
N119 C118 1.315 . S
H120 C114 0.929 . S
H121 C118 0.930 . S
H122 C110 0.929 . S
H123 C112 0.929 . S
O124 Co99 2.351 . S
O124 C127 1.244 . S
O125 Co99 2.155 . S
O125 C127 1.240 . S
O126 Co99 2.096 1_655 S
O126 C107 1.247 . S
C127 O124 1.244 . S
C127 O125 1.240 . S
H128 C102 0.931 1_655 S
H129 C111 0.931 . S
H130 C115 0.929 . S
H131 C117 0.930 . S
Co132 N136 2.148 . S
Co132 N142 2.128 . S
Co132 N152 2.194 1_545 S
Co132 O157 2.351 1_545 S
Co132 O158 2.155 . S
Co132 O159 2.096 . S
C133 N136 1.301 . S
C133 N137 1.328 . S
C133 H138 0.930 1_545 S
C134 C135 1.333 . S
C134 N136 1.317 . S
C134 H139 0.930 . S
C135 C134 1.333 . S
C135 N137 1.350 . S
C135 H161 0.931 . S
N136 Co132 2.148 . S
N136 C133 1.301 . S
N136 C134 1.317 . S
N137 C133 1.328 . S
N137 C135 1.350 . S
H138 C133 0.930 1_565 S
H139 C134 0.930 . S
C140 O141 1.224 . S
C140 O159 1.247 . S
O141 C140 1.224 . S
N142 Co132 2.128 . S
N142 C143 1.355 1_545 S
N142 C145 1.311 . S
C143 N142 1.355 1_565 S
C143 C144 1.363 . S
C143 H155 0.929 . S
C144 C143 1.363 . S
C144 N146 1.375 1_565 S
C144 H162 0.931 . S
C145 N142 1.311 . S
C145 N146 1.347 . S
C145 H156 0.929 . S
N146 C144 1.375 1_545 S
N146 C145 1.347 . S
C147 C150 1.365 . S
C147 N152 1.328 . S
C147 H153 0.929 . S
C148 C149 1.362 . S
C148 C151 1.378 . S
C148 H163 0.929 . S
C149 C148 1.362 . S
C149 C150 1.366 . S
C150 C147 1.365 . S
C150 C149 1.366 . S
C150 H164 0.930 . S
C151 C148 1.378 . S
C151 N152 1.315 . S
C151 H154 0.930 . S
N152 Co132 2.194 1_565 S
N152 C147 1.328 . S
N152 C151 1.315 . S
H153 C147 0.929 . S
H154 C151 0.930 . S
H155 C143 0.929 . S
H156 C145 0.929 . S
O157 Co132 2.351 1_565 S
O157 C160 1.244 1_565 S
O158 Co132 2.155 . S
O158 C160 1.240 . S
O159 Co132 2.096 . S
O159 C140 1.247 . S
C160 O157 1.244 1_545 S
C160 O158 1.240 . S
H161 C135 0.931 . S
H162 C144 0.931 . S
H163 C148 0.929 . S
H164 C150 0.930 . S
Co165 N169 2.148 . S
Co165 N175 2.128 . S
Co165 N185 2.194 . S
Co165 O190 2.351 . S
Co165 O191 2.155 . S
Co165 O192 2.096 1_455 S
C166 N169 1.301 . S
C166 N170 1.328 . S
C166 H171 0.930 . S
C167 C168 1.333 . S
C167 N169 1.317 . S
C167 H172 0.930 1_455 S
C168 C167 1.333 . S
C168 N170 1.350 . S
C168 H194 0.931 1_455 S
N169 Co165 2.148 . S
N169 C166 1.301 . S
N169 C167 1.317 . S
N170 C166 1.328 . S
N170 C168 1.350 . S
H171 C166 0.930 . S
H172 C167 0.930 1_655 S
C173 O174 1.224 1_655 S
C173 O192 1.247 . S
O174 C173 1.224 1_455 S
N175 Co165 2.128 . S
N175 C176 1.355 . S
N175 C178 1.311 . S
C176 N175 1.355 . S
C176 C177 1.363 . S
C176 H188 0.929 . S
C177 C176 1.363 . S
C177 N179 1.375 . S
C177 H195 0.931 . S
C178 N175 1.311 . S
C178 N179 1.347 . S
C178 H189 0.929 . S
N179 C177 1.375 . S
N179 C178 1.347 . S
C180 C183 1.365 . S
C180 N185 1.328 . S
C180 H186 0.929 . S
C181 C182 1.362 . S
C181 C184 1.378 . S
C181 H196 0.929 . S
C182 C181 1.362 . S
C182 C183 1.366 . S
C183 C180 1.365 . S
C183 C182 1.366 . S
C183 H197 0.930 . S
C184 C181 1.378 . S
C184 N185 1.315 . S
C184 H187 0.930 . S
N185 Co165 2.194 . S
N185 C180 1.328 . S
N185 C184 1.315 . S
H186 C180 0.929 . S
H187 C184 0.930 . S
H188 C176 0.929 . S
H189 C178 0.929 . S
O190 Co165 2.351 . S
O190 C193 1.244 . S
O191 Co165 2.155 . S
O191 C193 1.240 . S
O192 Co165 2.096 1_655 S
O192 C173 1.247 . S
C193 O190 1.244 . S
C193 O191 1.240 . S
H194 C168 0.931 1_655 S
H195 C177 0.931 . S
H196 C181 0.929 . S
H197 C183 0.930 . S
Co198 N202 2.148 . S
Co198 N208 2.128 . S
Co198 N218 2.194 . S
Co198 O223 2.351 . S
Co198 O224 2.155 . S
Co198 O225 2.096 1_545 S
C199 N202 1.301 . S
C199 N203 1.328 . S
C199 H204 0.930 . S
C200 C201 1.333 . S
C200 N202 1.317 . S
C200 H205 0.930 1_545 S
C201 C200 1.333 . S
C201 N203 1.350 . S
C201 H227 0.931 1_545 S
N202 Co198 2.148 . S
N202 C199 1.301 . S
N202 C200 1.317 . S
N203 C199 1.328 . S
N203 C201 1.350 . S
H204 C199 0.930 . S
H205 C200 0.930 1_565 S
C206 O207 1.224 1_565 S
C206 O225 1.247 . S
O207 C206 1.224 1_545 S
N208 Co198 2.128 . S
N208 C209 1.355 . S
N208 C211 1.311 . S
C209 N208 1.355 . S
C209 C210 1.363 . S
C209 H221 0.929 . S
C210 C209 1.363 . S
C210 N212 1.375 . S
C210 H228 0.931 . S
C211 N208 1.311 . S
C211 N212 1.347 . S
C211 H222 0.929 . S
N212 C210 1.375 . S
N212 C211 1.347 . S
C213 C216 1.365 . S
C213 N218 1.328 . S
C213 H219 0.929 . S
C214 C215 1.362 . S
C214 C217 1.378 . S
C214 H229 0.929 . S
C215 C214 1.362 . S
C215 C216 1.366 . S
C216 C213 1.365 . S
C216 C215 1.366 . S
C216 H230 0.930 . S
C217 C214 1.378 . S
C217 N218 1.315 . S
C217 H220 0.930 . S
N218 Co198 2.194 . S
N218 C213 1.328 . S
N218 C217 1.315 . S
H219 C213 0.929 . S
H220 C217 0.930 . S
H221 C209 0.929 . S
H222 C211 0.929 . S
O223 Co198 2.351 . S
O223 C226 1.244 . S
O224 Co198 2.155 . S
O224 C226 1.240 . S
O225 Co198 2.096 1_565 S
O225 C206 1.247 . S
C226 O223 1.244 . S
C226 O224 1.240 . S
H227 C201 0.931 1_565 S
H228 C210 0.931 . S
H229 C214 0.929 . S
H230 C216 0.930 . S
Co231 N235 2.148 . S
Co231 N241 2.128 . S
Co231 N251 2.194 1_455 S
Co231 O256 2.351 1_455 S
Co231 O257 2.155 . S
Co231 O258 2.096 . S
C232 N235 1.301 . S
C232 N236 1.328 . S
C232 H237 0.930 1_455 S
C233 C234 1.333 . S
C233 N235 1.317 . S
C233 H238 0.930 . S
C234 C233 1.333 . S
C234 N236 1.350 . S
C234 H260 0.931 . S
N235 Co231 2.148 . S
N235 C232 1.301 . S
N235 C233 1.317 . S
N236 C232 1.328 . S
N236 C234 1.350 . S
H237 C232 0.930 1_655 S
H238 C233 0.930 . S
C239 O240 1.224 . S
C239 O258 1.247 . S
O240 C239 1.224 . S
N241 Co231 2.128 . S
N241 C242 1.355 1_455 S
N241 C244 1.311 . S
C242 N241 1.355 1_655 S
C242 C243 1.363 . S
C242 H254 0.929 . S
C243 C242 1.363 . S
C243 N245 1.375 1_655 S
C243 H261 0.931 . S
C244 N241 1.311 . S
C244 N245 1.347 . S
C244 H255 0.929 . S
N245 C243 1.375 1_455 S
N245 C244 1.347 . S
C246 C249 1.365 . S
C246 N251 1.328 . S
C246 H252 0.929 . S
C247 C248 1.362 . S
C247 C250 1.378 . S
C247 H262 0.929 . S
C248 C247 1.362 . S
C248 C249 1.366 . S
C249 C246 1.365 . S
C249 C248 1.366 . S
C249 H263 0.930 . S
C250 C247 1.378 . S
C250 N251 1.315 . S
C250 H253 0.930 . S
N251 Co231 2.194 1_655 S
N251 C246 1.328 . S
N251 C250 1.315 . S
H252 C246 0.929 . S
H253 C250 0.930 . S
H254 C242 0.929 . S
H255 C244 0.929 . S
O256 Co231 2.351 1_655 S
O256 C259 1.244 1_655 S
O257 Co231 2.155 . S
O257 C259 1.240 . S
O258 Co231 2.096 . S
O258 C239 1.247 . S
C259 O256 1.244 1_455 S
C259 O257 1.240 . S
H260 C234 0.931 . S
H261 C243 0.931 . S
H262 C247 0.929 . S
H263 C249 0.930 . S
H264 C282 0.977 . S
H265 C284 0.951 1_565 S
H266 C286 0.950 . S
H267 C287 0.950 . S
H268 C289 0.950 . S
H269 C292 0.950 1_545 S
H270 C293 0.950 . S
H271 C295 0.950 . S
H272 C296 0.950 . S
H273 C297 0.951 . S
H274 C299 0.951 . S
H275 C301 0.950 . S
H276 C302 0.950 . S
H277 C304 0.950 1_565 S
H278 C307 0.950 . S
H279 C308 0.950 . S
H280 C310 0.950 . S
H281 C311 0.950 . S
C282 H264 0.977 . S
C282 C283 1.366 . S
C282 C284 1.388 . S
C283 C282 1.366 . S
C283 C287 1.385 . S
C284 H265 0.951 1_545 S
C284 C282 1.388 . S
C284 C285 1.366 . S
C285 C284 1.366 . S
C285 C286 1.414 . S
C285 C288 1.499 . S
C286 H266 0.950 . S
C286 C285 1.414 . S
C286 C287 1.374 . S
C287 H267 0.950 . S
C287 C283 1.385 . S
C287 C286 1.374 . S
C288 C285 1.499 . S
C288 C289 1.373 . S
C288 C290 1.389 . S
C289 H268 0.950 . S
C289 C288 1.373 . S
C289 C305 1.377 1_554 S
C290 C288 1.389 . S
C290 C291 1.524 1_545 S
C290 C304 1.377 1_554 S
C291 C290 1.524 1_565 S
C291 C292 1.397 . S
C291 C296 1.363 . S
C292 H269 0.950 1_565 S
C292 C291 1.397 . S
C292 C293 1.334 . S
C293 H270 0.950 . S
C293 C292 1.334 . S
C293 C294 1.287 . S
C294 C293 1.287 . S
C294 C295 1.524 . S
C294 H313 0.913 . S
C295 H271 0.950 . S
C295 C294 1.524 . S
C295 C296 1.415 . S
C296 H272 0.950 . S
C296 C291 1.363 . S
C296 C295 1.415 . S
C297 H273 0.951 . S
C297 C298 1.366 . S
C297 C299 1.388 . S
C298 C297 1.366 . S
C298 C302 1.385 1_545 S
C299 H274 0.951 . S
C299 C297 1.388 . S
C299 C300 1.366 . S
C300 C299 1.366 . S
C300 C301 1.414 1_545 S
C300 C303 1.499 . S
C301 H275 0.950 . S
C301 C300 1.414 1_565 S
C301 C302 1.374 . S
C302 H276 0.950 . S
C302 C298 1.385 1_565 S
C302 C301 1.374 . S
C303 C300 1.499 . S
C303 C304 1.373 . S
C303 C305 1.389 . S
C304 H277 0.950 1_545 S
C304 C290 1.377 1_556 S
C304 C303 1.373 . S
C305 C289 1.377 1_556 S
C305 C303 1.389 . S
C305 C306 1.524 . S
C306 C305 1.524 . S
C306 C307 1.397 . S
C306 C311 1.363 . S
C307 H278 0.950 . S
C307 C306 1.397 . S
C307 C308 1.334 . S
C308 H279 0.950 . S
C308 C307 1.334 . S
C308 C309 1.287 . S
C309 C308 1.287 . S
C309 C310 1.524 . S
C309 H312 0.999 . S
C310 H280 0.950 . S
C310 C309 1.524 . S
C310 C311 1.415 . S
C311 H281 0.950 . S
C311 C306 1.363 . S
C311 C310 1.415 . S
H312 C309 0.999 . S
H313 C294 0.913 . S
H314 C332 0.951 1_655 S
H315 C334 0.951 1_655 S
H316 C336 0.950 . S
H317 C337 0.950 . S
H318 C339 0.950 . S
H319 C342 0.950 . S
H320 C343 0.950 . S
H321 C345 0.950 . S
H322 C346 0.950 . S
H323 C347 0.951 . S
H324 C349 0.951 . S
H325 C351 0.950 . S
H326 C352 0.950 . S
H327 C354 0.950 . S
H328 C357 0.950 . S
H329 C358 0.950 . S
H330 C360 0.950 . S
H331 C361 0.950 . S
C332 H314 0.951 1_455 S
C332 C333 1.366 . S
C332 C334 1.388 . S
C333 C332 1.366 . S
C333 C337 1.385 . S
C334 H315 0.951 1_455 S
C334 C332 1.388 . S
C334 C335 1.366 . S
C335 C334 1.366 . S
C335 C336 1.414 . S
C335 C338 1.499 . S
C336 H316 0.950 . S
C336 C335 1.414 . S
C336 C337 1.374 . S
C337 H317 0.950 . S
C337 C333 1.385 . S
C337 C336 1.374 . S
C338 C335 1.499 . S
C338 C339 1.373 . S
C338 C340 1.389 . S
C339 H318 0.950 . S
C339 C338 1.373 . S
C339 C355 1.377 . S
C340 C338 1.389 . S
C340 C341 1.524 . S
C340 C354 1.377 . S
C341 C340 1.524 . S
C341 C342 1.397 . S
C341 C346 1.363 1_455 S
C342 H319 0.950 . S
C342 C341 1.397 . S
C342 C343 1.334 . S
C343 H320 0.950 . S
C343 C342 1.334 . S
C343 C344 1.287 1_455 S
C344 C343 1.287 1_655 S
C344 C345 1.524 . S
C344 H363 0.913 . S
C345 H321 0.950 . S
C345 C344 1.524 . S
C345 C346 1.415 . S
C346 H322 0.950 . S
C346 C341 1.363 1_655 S
C346 C345 1.415 . S
C347 H323 0.951 . S
C347 C348 1.366 . S
C347 C349 1.388 . S
C348 C347 1.366 . S
C348 C352 1.385 1_455 S
C349 H324 0.951 . S
C349 C347 1.388 . S
C349 C350 1.366 . S
C350 C349 1.366 . S
C350 C351 1.414 1_455 S
C350 C353 1.499 . S
C351 H325 0.950 . S
C351 C350 1.414 1_655 S
C351 C352 1.374 . S
C352 H326 0.950 . S
C352 C348 1.385 1_655 S
C352 C351 1.374 . S
C353 C350 1.499 . S
C353 C354 1.373 . S
C353 C355 1.389 . S
C354 H327 0.950 . S
C354 C340 1.377 . S
C354 C353 1.373 . S
C355 C339 1.377 . S
C355 C353 1.389 . S
C355 C356 1.524 . S
C356 C355 1.524 . S
C356 C357 1.397 . S
C356 C361 1.363 . S
C357 H328 0.950 . S
C357 C356 1.397 . S
C357 C358 1.334 . S
C358 H329 0.950 . S
C358 C357 1.334 . S
C358 C359 1.287 . S
C359 C358 1.287 . S
C359 C360 1.524 . S
C359 H362 0.999 . S
C360 H330 0.950 . S
C360 C359 1.524 . S
C360 C361 1.415 . S
C361 H331 0.950 . S
C361 C356 1.363 . S
C361 C360 1.415 . S
H362 C359 0.999 . S
H363 C344 0.913 . S
H364 C382 0.951 . S
H365 C384 0.951 . S
H366 C386 0.950 . S
H367 C387 0.950 . S
H368 C389 0.950 . S
H369 C392 0.950 1_545 S
H370 C393 0.950 . S
H371 C395 0.950 . S
H372 C396 0.960 . S
H373 C397 0.951 . S
H374 C399 0.951 . S
H375 C401 0.950 1_565 S
H376 C402 0.950 1_565 S
H377 C404 0.950 1_565 S
H378 C407 0.950 . S
H379 C408 0.950 . S
H380 C410 0.950 . S
H381 C411 0.962 . S
C382 H364 0.951 . S
C382 C383 1.366 1_565 S
C382 C384 1.388 . S
C383 C382 1.366 1_545 S
C383 C387 1.385 . S
C384 H365 0.951 . S
C384 C382 1.388 . S
C384 C385 1.366 1_565 S
C385 C384 1.366 1_545 S
C385 C386 1.414 . S
C385 C388 1.499 . S
C386 H366 0.950 . S
C386 C385 1.414 . S
C386 C387 1.374 . S
C387 H367 0.950 . S
C387 C383 1.385 . S
C387 C386 1.374 . S
C388 C385 1.499 . S
C388 C389 1.373 . S
C388 C390 1.389 . S
C389 H368 0.950 . S
C389 C388 1.373 . S
C389 C405 1.377 1_554 S
C390 C388 1.389 . S
C390 C391 1.524 1_545 S
C390 C404 1.377 1_554 S
C391 C390 1.524 1_565 S
C391 C392 1.397 . S
C391 C396 1.363 . S
C392 H369 0.950 1_565 S
C392 C391 1.397 . S
C392 C393 1.334 . S
C393 H370 0.950 . S
C393 C392 1.334 . S
C393 C394 1.287 . S
C394 C393 1.287 . S
C394 C395 1.524 . S
C394 H413 0.913 . S
C395 H371 0.950 . S
C395 C394 1.524 . S
C395 C396 1.415 . S
C396 H372 0.960 . S
C396 C391 1.363 . S
C396 C395 1.415 . S
C397 H373 0.951 . S
C397 C398 1.366 . S
C397 C399 1.388 . S
C398 C397 1.366 . S
C398 C402 1.385 . S
C399 H374 0.951 . S
C399 C397 1.388 . S
C399 C400 1.366 . S
C400 C399 1.366 . S
C400 C401 1.414 . S
C400 C403 1.499 . S
C401 H375 0.950 1_545 S
C401 C400 1.414 . S
C401 C402 1.374 . S
C402 H376 0.950 1_545 S
C402 C398 1.385 . S
C402 C401 1.374 . S
C403 C400 1.499 . S
C403 C404 1.373 . S
C403 C405 1.389 . S
C404 H377 0.950 1_545 S
C404 C390 1.377 1_556 S
C404 C403 1.373 . S
C405 C389 1.377 1_556 S
C405 C403 1.389 . S
C405 C406 1.524 . S
C406 C405 1.524 . S
C406 C407 1.397 . S
C406 C411 1.363 . S
C407 H378 0.950 . S
C407 C406 1.397 . S
C407 C408 1.334 . S
C408 H379 0.950 . S
C408 C407 1.334 . S
C408 C409 1.287 . S
C409 C408 1.287 . S
C409 C410 1.524 . S
C409 H412 0.999 . S
C410 H380 0.950 . S
C410 C409 1.524 . S
C410 C411 1.415 . S
C411 H381 0.962 . S
C411 C406 1.363 . S
C411 C410 1.415 . S
H412 C409 0.999 . S
H413 C394 0.913 . S
H414 C432 0.951 . S
H415 C434 0.951 . S
H416 C436 0.950 . S
H417 C437 0.950 . S
H418 C439 0.950 . S
H419 C442 0.950 . S
H420 C443 0.950 . S
H421 C445 0.950 . S
H422 C446 0.950 . S
H423 C447 0.951 . S
H424 C449 0.951 . S
H425 C451 0.950 . S
H426 C452 0.950 . S
H427 C454 0.950 . S
H428 C457 0.950 . S
H429 C458 0.950 . S
H430 C460 0.950 . S
H431 C461 0.950 . S
C432 H414 0.951 . S
C432 C433 1.366 . S
C432 C434 1.388 . S
C433 C432 1.366 . S
C433 C437 1.385 . S
C434 H415 0.951 . S
C434 C432 1.388 . S
C434 C435 1.366 . S
C435 C434 1.366 . S
C435 C436 1.414 . S
C435 C438 1.499 . S
C436 H416 0.950 . S
C436 C435 1.414 . S
C436 C437 1.374 . S
C437 H417 0.950 . S
C437 C433 1.385 . S
C437 C436 1.374 . S
C438 C435 1.499 . S
C438 C439 1.373 . S
C438 C440 1.389 . S
C439 H418 0.950 . S
C439 C438 1.373 . S
C439 C455 1.377 . S
C440 C438 1.389 . S
C440 C441 1.524 . S
C440 C454 1.377 . S
C441 C440 1.524 . S
C441 C442 1.397 . S
C441 C446 1.363 . S
C442 H419 0.950 . S
C442 C441 1.397 . S
C442 C443 1.334 . S
C443 H420 0.950 . S
C443 C442 1.334 . S
C443 C444 1.287 . S
C444 C443 1.287 . S
C444 C445 1.524 . S
C444 H463 0.913 . S
C445 H421 0.950 . S
C445 C444 1.524 . S
C445 C446 1.415 . S
C446 H422 0.950 . S
C446 C441 1.363 . S
C446 C445 1.415 . S
C447 H423 0.951 . S
C447 C448 1.366 . S
C447 C449 1.388 . S
C448 C447 1.366 . S
C448 C452 1.385 . S
C449 H424 0.951 . S
C449 C447 1.388 . S
C449 C450 1.366 . S
C450 C449 1.366 . S
C450 C451 1.414 . S
C450 C453 1.499 . S
C451 H425 0.950 . S
C451 C450 1.414 . S
C451 C452 1.374 . S
C452 H426 0.950 . S
C452 C448 1.385 . S
C452 C451 1.374 . S
C453 C450 1.499 . S
C453 C454 1.373 . S
C453 C455 1.389 . S
C454 H427 0.950 . S
C454 C440 1.377 . S
C454 C453 1.373 . S
C455 C439 1.377 . S
C455 C453 1.389 . S
C455 C456 1.524 . S
C456 C455 1.524 . S
C456 C457 1.397 1_455 S
C456 C461 1.363 . S
C457 H428 0.950 . S
C457 C456 1.397 1_655 S
C457 C458 1.334 . S
C458 H429 0.950 . S
C458 C457 1.334 . S
C458 C459 1.287 . S
C459 C458 1.287 . S
C459 C460 1.524 . S
C459 H462 0.999 . S
C460 H430 0.950 . S
C460 C459 1.524 . S
C460 C461 1.415 1_655 S
C461 H431 0.950 . S
C461 C456 1.363 . S
C461 C460 1.415 1_455 S
H462 C459 0.999 . S
H463 C444 0.913 . S
H464 C482 0.951 . S
H465 C484 0.951 . S
H466 C486 0.950 . S
H467 C487 0.950 . S
H468 C489 0.950 . S
H469 C492 0.950 . S
H470 C493 0.950 . S
H471 C495 0.950 . S
H472 C496 0.950 . S
H473 C497 0.951 . S
H474 C499 0.951 . S
H475 C501 0.950 . S
H476 C502 0.950 . S
H477 C504 0.950 . S
H478 C507 0.950 . S
H479 C508 0.950 . S
H480 C510 0.950 . S
H481 C511 0.950 . S
C482 H464 0.951 . S
C482 C483 1.366 . S
C482 C484 1.388 . S
C483 C482 1.366 . S
C483 C487 1.385 . S
C484 H465 0.951 . S
C484 C482 1.388 . S
C484 C485 1.366 . S
C485 C484 1.366 . S
C485 C486 1.414 . S
C485 C488 1.499 . S
C486 H466 0.950 . S
C486 C485 1.414 . S
C486 C487 1.374 . S
C487 H467 0.950 . S
C487 C483 1.385 . S
C487 C486 1.374 . S
C488 C485 1.499 . S
C488 C489 1.373 . S
C488 C490 1.389 . S
C489 H468 0.950 . S
C489 C488 1.373 . S
C489 C505 1.377 . S
C490 C488 1.389 . S
C490 C491 1.524 . S
C490 C504 1.377 . S
C491 C490 1.524 . S
C491 C492 1.397 . S
C491 C496 1.363 . S
C492 H469 0.950 . S
C492 C491 1.397 . S
C492 C493 1.334 . S
C493 H470 0.950 . S
C493 C492 1.334 . S
C493 C494 1.287 . S
C494 C493 1.287 . S
C494 C495 1.524 . S
C494 H513 0.913 . S
C495 H471 0.950 . S
C495 C494 1.524 . S
C495 C496 1.415 . S
C496 H472 0.950 . S
C496 C491 1.363 . S
C496 C495 1.415 . S
C497 H473 0.951 . S
C497 C498 1.366 . S
C497 C499 1.388 . S
C498 C497 1.366 . S
C498 C502 1.385 . S
C499 H474 0.951 . S
C499 C497 1.388 . S
C499 C500 1.366 . S
C500 C499 1.366 . S
C500 C501 1.414 . S
C500 C503 1.499 . S
C501 H475 0.950 . S
C501 C500 1.414 . S
C501 C502 1.374 . S
C502 H476 0.950 . S
C502 C498 1.385 . S
C502 C501 1.374 . S
C503 C500 1.499 . S
C503 C504 1.373 . S
C503 C505 1.389 . S
C504 H477 0.950 . S
C504 C490 1.377 . S
C504 C503 1.373 . S
C505 C489 1.377 . S
C505 C503 1.389 . S
C505 C506 1.524 . S
C506 C505 1.524 . S
C506 C507 1.397 . S
C506 C511 1.363 . S
C507 H478 0.950 . S
C507 C506 1.397 . S
C507 C508 1.334 . S
C508 H479 0.950 . S
C508 C507 1.334 . S
C508 C509 1.287 . S
C509 C508 1.287 . S
C509 C510 1.524 . S
C509 H512 0.999 . S
C510 H480 0.950 . S
C510 C509 1.524 . S
C510 C511 1.415 . S
C511 H481 0.950 . S
C511 C506 1.363 . S
C511 C510 1.415 . S
H512 C509 0.999 . S
H513 C494 0.913 . S
H514 C532 0.951 . S
H515 C534 0.951 . S
H516 C536 0.950 . S
H517 C537 0.950 . S
H518 C539 0.950 . S
H519 C542 0.950 . S
H520 C543 0.950 . S
H521 C545 0.950 . S
H522 C546 0.950 . S
H523 C547 0.951 . S
H524 C549 0.951 . S
H525 C551 0.950 . S
H526 C552 0.950 . S
H527 C554 0.950 . S
H528 C557 0.950 . S
H529 C558 0.950 . S
H530 C560 0.950 . S
H531 C561 0.950 . S
C532 H514 0.951 . S
C532 C533 1.366 . S
C532 C534 1.388 . S
C533 C532 1.366 . S
C533 C537 1.385 . S
C534 H515 0.951 . S
C534 C532 1.388 . S
C534 C535 1.366 . S
C535 C534 1.366 . S
C535 C536 1.414 . S
C535 C538 1.499 . S
C536 H516 0.950 . S
C536 C535 1.414 . S
C536 C537 1.374 . S
C537 H517 0.950 . S
C537 C533 1.385 . S
C537 C536 1.374 . S
C538 C535 1.499 . S
C538 C539 1.373 . S
C538 C540 1.389 . S
C539 H518 0.950 . S
C539 C538 1.373 . S
C539 C555 1.377 . S
C540 C538 1.389 . S
C540 C541 1.524 . S
C540 C554 1.377 . S
C541 C540 1.524 . S
C541 C542 1.397 . S
C541 C546 1.363 . S
C542 H519 0.950 . S
C542 C541 1.397 . S
C542 C543 1.334 . S
C543 H520 0.950 . S
C543 C542 1.334 . S
C543 C544 1.287 . S
C544 C543 1.287 . S
C544 C545 1.524 . S
C544 H563 0.913 . S
C545 H521 0.950 . S
C545 C544 1.524 . S
C545 C546 1.415 . S
C546 H522 0.950 . S
C546 C541 1.363 . S
C546 C545 1.415 . S
C547 H523 0.951 . S
C547 C548 1.366 . S
C547 C549 1.388 . S
C548 C547 1.366 . S
C548 C552 1.385 . S
C549 H524 0.951 . S
C549 C547 1.388 . S
C549 C550 1.366 . S
C550 C549 1.366 . S
C550 C551 1.414 . S
C550 C553 1.499 . S
C551 H525 0.950 . S
C551 C550 1.414 . S
C551 C552 1.374 . S
C552 H526 0.950 . S
C552 C548 1.385 . S
C552 C551 1.374 . S
C553 C550 1.499 . S
C553 C554 1.373 . S
C553 C555 1.389 . S
C554 H527 0.950 . S
C554 C540 1.377 . S
C554 C553 1.373 . S
C555 C539 1.377 . S
C555 C553 1.389 . S
C555 C556 1.524 . S
C556 C555 1.524 . S
C556 C557 1.397 . S
C556 C561 1.363 . S
C557 H528 0.950 . S
C557 C556 1.397 . S
C557 C558 1.334 . S
C558 H529 0.950 . S
C558 C557 1.334 . S
C558 C559 1.287 . S
C559 C558 1.287 . S
C559 C560 1.524 . S
C559 H562 0.999 . S
C560 H530 0.950 . S
C560 C559 1.524 . S
C560 C561 1.415 . S
C561 H531 0.950 . S
C561 C556 1.363 . S
C561 C560 1.415 . S
H562 C559 0.999 . S
H563 C544 0.913 . S
H564 C582 0.951 . S
H565 C584 0.951 . S
H566 C586 0.950 . S
H567 C587 0.950 . S
H568 C589 0.950 . S
H569 C592 0.950 . S
H570 C593 0.950 . S
H571 C595 0.950 . S
H572 C596 0.950 . S
H573 C597 0.951 . S
H574 C599 0.951 . S
H575 C601 0.950 . S
H576 C602 0.950 . S
H577 C604 0.950 . S
H578 C607 0.950 . S
H579 C608 0.950 . S
H580 C610 0.950 . S
H581 C611 0.950 . S
C582 H564 0.951 . S
C582 C583 1.366 . S
C582 C584 1.388 . S
C583 C582 1.366 . S
C583 C587 1.385 . S
C584 H565 0.951 . S
C584 C582 1.388 . S
C584 C585 1.366 . S
C585 C584 1.366 . S
C585 C586 1.414 . S
C585 C588 1.499 . S
C586 H566 0.950 . S
C586 C585 1.414 . S
C586 C587 1.374 . S
C587 H567 0.950 . S
C587 C583 1.385 . S
C587 C586 1.374 . S
C588 C585 1.499 . S
C588 C589 1.373 . S
C588 C590 1.389 . S
C589 H568 0.950 . S
C589 C588 1.373 . S
C589 C605 1.377 . S
C590 C588 1.389 . S
C590 C591 1.524 . S
C590 C604 1.377 . S
C591 C590 1.524 . S
C591 C592 1.397 . S
C591 C596 1.363 . S
C592 H569 0.950 . S
C592 C591 1.397 . S
C592 C593 1.334 . S
C593 H570 0.950 . S
C593 C592 1.334 . S
C593 C594 1.287 . S
C594 C593 1.287 . S
C594 C595 1.524 . S
C594 H613 0.913 . S
C595 H571 0.950 . S
C595 C594 1.524 . S
C595 C596 1.415 . S
C596 H572 0.950 . S
C596 C591 1.363 . S
C596 C595 1.415 . S
C597 H573 0.951 . S
C597 C598 1.366 . S
C597 C599 1.388 . S
C598 C597 1.366 . S
C598 C602 1.385 . S
C599 H574 0.951 . S
C599 C597 1.388 . S
C599 C600 1.366 . S
C600 C599 1.366 . S
C600 C601 1.414 . S
C600 C603 1.499 . S
C601 H575 0.950 . S
C601 C600 1.414 . S
C601 C602 1.374 . S
C602 H576 0.950 . S
C602 C598 1.385 . S
C602 C601 1.374 . S
C603 C600 1.499 . S
C603 C604 1.373 . S
C603 C605 1.389 . S
C604 H577 0.950 . S
C604 C590 1.377 . S
C604 C603 1.373 . S
C605 C589 1.377 . S
C605 C603 1.389 . S
C605 C606 1.524 . S
C606 C605 1.524 . S
C606 C607 1.397 . S
C606 C611 1.363 . S
C607 H578 0.950 . S
C607 C606 1.397 . S
C607 C608 1.334 . S
C608 H579 0.950 . S
C608 C607 1.334 . S
C608 C609 1.287 . S
C609 C608 1.287 . S
C609 C610 1.524 . S
C609 H612 0.999 . S
C610 H580 0.950 . S
C610 C609 1.524 . S
C610 C611 1.415 . S
C611 H581 0.950 . S
C611 C606 1.363 . S
C611 C610 1.415 . S
H612 C609 0.999 . S
H613 C594 0.913 . S
H614 C632 0.951 . S
H615 C634 0.951 . S
H616 C636 0.950 . S
H617 C637 0.950 . S
H618 C639 0.950 . S
H619 C642 0.950 . S
H620 C643 0.950 . S
H621 C645 0.950 . S
H622 C646 0.950 . S
H623 C647 0.951 . S
H624 C649 0.951 . S
H625 C651 0.950 . S
H626 C652 0.950 . S
H627 C654 0.950 . S
H628 C657 0.950 . S
H629 C658 0.950 . S
H630 C660 0.950 . S
H631 C661 0.950 . S
C632 H614 0.951 . S
C632 C633 1.366 . S
C632 C634 1.388 . S
C633 C632 1.366 . S
C633 C637 1.385 . S
C634 H615 0.951 . S
C634 C632 1.388 . S
C634 C635 1.366 . S
C635 C634 1.366 . S
C635 C636 1.414 . S
C635 C638 1.499 . S
C636 H616 0.950 . S
C636 C635 1.414 . S
C636 C637 1.374 . S
C637 H617 0.950 . S
C637 C633 1.385 . S
C637 C636 1.374 . S
C638 C635 1.499 . S
C638 C639 1.373 . S
C638 C640 1.389 . S
C639 H618 0.950 . S
C639 C638 1.373 . S
C639 C655 1.377 . S
C640 C638 1.389 . S
C640 C641 1.524 . S
C640 C654 1.377 . S
C641 C640 1.524 . S
C641 C642 1.397 . S
C641 C646 1.363 . S
C642 H619 0.950 . S
C642 C641 1.397 . S
C642 C643 1.334 . S
C643 H620 0.950 . S
C643 C642 1.334 . S
C643 C644 1.287 . S
C644 C643 1.287 . S
C644 C645 1.524 . S
C644 H663 0.913 . S
C645 H621 0.950 . S
C645 C644 1.524 . S
C645 C646 1.415 . S
C646 H622 0.950 . S
C646 C641 1.363 . S
C646 C645 1.415 . S
C647 H623 0.951 . S
C647 C648 1.366 . S
C647 C649 1.388 . S
C648 C647 1.366 . S
C648 C652 1.385 . S
C649 H624 0.951 . S
C649 C647 1.388 . S
C649 C650 1.366 . S
C650 C649 1.366 . S
C650 C651 1.414 . S
C650 C653 1.499 . S
C651 H625 0.950 . S
C651 C650 1.414 . S
C651 C652 1.374 . S
C652 H626 0.950 . S
C652 C648 1.385 . S
C652 C651 1.374 . S
C653 C650 1.499 . S
C653 C654 1.373 . S
C653 C655 1.389 . S
C654 H627 0.950 . S
C654 C640 1.377 . S
C654 C653 1.373 . S
C655 C639 1.377 . S
C655 C653 1.389 . S
C655 C656 1.524 . S
C656 C655 1.524 . S
C656 C657 1.397 . S
C656 C661 1.363 . S
C657 H628 0.950 . S
C657 C656 1.397 . S
C657 C658 1.334 . S
C658 H629 0.950 . S
C658 C657 1.334 . S
C658 C659 1.287 . S
C659 C658 1.287 . S
C659 C660 1.524 . S
C659 H662 0.999 . S
C660 H630 0.950 . S
C660 C659 1.524 . S
C660 C661 1.415 . S
C661 H631 0.950 . S
C661 C656 1.363 . S
C661 C660 1.415 . S
H662 C659 0.999 . S
H663 C644 0.913 . S
H664 C682 0.951 . S
H665 C684 0.951 . S
H666 C686 0.950 . S
H667 C687 0.950 1_455 S
H668 C689 0.950 . S
H669 C692 0.950 . S
H670 C693 0.950 . S
H671 C695 0.950 . S
H672 C696 0.950 . S
H673 C697 0.951 . S
H674 C699 0.951 . S
H675 C701 0.950 . S
H676 C702 0.950 . S
H677 C704 0.950 . S
H678 C707 0.950 . S
H679 C708 0.950 . S
H680 C710 0.950 . S
H681 C711 0.950 . S
C682 H664 0.951 . S
C682 C683 1.366 . S
C682 C684 1.388 . S
C683 C682 1.366 . S
C683 C687 1.385 . S
C684 H665 0.951 . S
C684 C682 1.388 . S
C684 C685 1.366 . S
C685 C684 1.366 . S
C685 C686 1.414 . S
C685 C688 1.499 . S
C686 H666 0.950 . S
C686 C685 1.414 . S
C686 C687 1.374 . S
C687 H667 0.950 1_655 S
C687 C683 1.385 . S
C687 C686 1.374 . S
C688 C685 1.499 . S
C688 C689 1.373 . S
C688 C690 1.389 . S
C689 H668 0.950 . S
C689 C688 1.373 . S
C689 C705 1.377 . S
C690 C688 1.389 . S
C690 C691 1.524 . S
C690 C704 1.377 . S
C691 C690 1.524 . S
C691 C692 1.397 . S
C691 C696 1.363 . S
C692 H669 0.950 . S
C692 C691 1.397 . S
C692 C693 1.334 . S
C693 H670 0.950 . S
C693 C692 1.334 . S
C693 C694 1.287 . S
C694 C693 1.287 . S
C694 C695 1.524 . S
C694 H713 0.913 . S
C695 H671 0.950 . S
C695 C694 1.524 . S
C695 C696 1.415 . S
C696 H672 0.950 . S
C696 C691 1.363 . S
C696 C695 1.415 . S
C697 H673 0.951 . S
C697 C698 1.366 . S
C697 C699 1.388 . S
C698 C697 1.366 . S
C698 C702 1.385 . S
C699 H674 0.951 . S
C699 C697 1.388 . S
C699 C700 1.366 . S
C700 C699 1.366 . S
C700 C701 1.414 . S
C700 C703 1.499 . S
C701 H675 0.950 . S
C701 C700 1.414 . S
C701 C702 1.374 . S
C702 H676 0.950 . S
C702 C698 1.385 . S
C702 C701 1.374 . S
C703 C700 1.499 . S
C703 C704 1.373 . S
C703 C705 1.389 . S
C704 H677 0.950 . S
C704 C690 1.377 . S
C704 C703 1.373 . S
C705 C689 1.377 . S
C705 C703 1.389 . S
C705 C706 1.524 . S
C706 C705 1.524 . S
C706 C707 1.397 . S
C706 C711 1.363 . S
C707 H678 0.950 . S
C707 C706 1.397 . S
C707 C708 1.334 . S
C708 H679 0.950 . S
C708 C707 1.334 . S
C708 C709 1.287 . S
C709 C708 1.287 . S
C709 C710 1.524 . S
C709 H712 0.999 . S
C710 H680 0.950 . S
C710 C709 1.524 . S
C710 C711 1.415 . S
C711 H681 0.950 . S
C711 C706 1.363 . S
C711 C710 1.415 . S
H712 C709 0.999 . S
H713 C694 0.913 . S
H714 C732 0.951 . S
H715 C734 0.951 . S
H716 C736 0.950 . S
H717 C737 0.950 . S
H718 C739 0.950 . S
H719 C742 0.950 . S
H720 C743 0.950 . S
H721 C745 0.950 . S
H722 C746 0.950 . S
H723 C747 0.951 . S
H724 C749 0.951 . S
H725 C751 0.950 . S
H726 C752 0.950 . S
H727 C754 0.950 . S
H728 C757 0.950 . S
H729 C758 0.950 . S
H730 C760 0.950 . S
H731 C761 0.950 . S
C732 H714 0.951 . S
C732 C733 1.366 . S
C732 C734 1.388 . S
C733 C732 1.366 . S
C733 C737 1.385 . S
C734 H715 0.951 . S
C734 C732 1.388 . S
C734 C735 1.366 . S
C735 C734 1.366 . S
C735 C736 1.414 . S
C735 C738 1.499 . S
C736 H716 0.950 . S
C736 C735 1.414 . S
C736 C737 1.374 . S
C737 H717 0.950 . S
C737 C733 1.385 . S
C737 C736 1.374 . S
C738 C735 1.499 . S
C738 C739 1.373 . S
C738 C740 1.389 . S
C739 H718 0.950 . S
C739 C738 1.373 . S
C739 C755 1.377 . S
C740 C738 1.389 . S
C740 C741 1.524 . S
C740 C754 1.377 . S
C741 C740 1.524 . S
C741 C742 1.397 . S
C741 C746 1.363 . S
C742 H719 0.950 . S
C742 C741 1.397 . S
C742 C743 1.334 1_565 S
C743 H720 0.950 . S
C743 C742 1.334 1_545 S
C743 C744 1.287 . S
C744 C743 1.287 . S
C744 C745 1.524 1_545 S
C744 H763 0.913 . S
C745 H721 0.950 . S
C745 C744 1.524 1_565 S
C745 C746 1.415 . S
C746 H722 0.950 . S
C746 C741 1.363 . S
C746 C745 1.415 . S
C747 H723 0.951 . S
C747 C748 1.366 . S
C747 C749 1.388 . S
C748 C747 1.366 . S
C748 C752 1.385 . S
C749 H724 0.951 . S
C749 C747 1.388 . S
C749 C750 1.366 . S
C750 C749 1.366 . S
C750 C751 1.414 . S
C750 C753 1.499 . S
C751 H725 0.950 . S
C751 C750 1.414 . S
C751 C752 1.374 . S
C752 H726 0.950 . S
C752 C748 1.385 . S
C752 C751 1.374 . S
C753 C750 1.499 . S
C753 C754 1.373 . S
C753 C755 1.389 . S
C754 H727 0.950 . S
C754 C740 1.377 . S
C754 C753 1.373 . S
C755 C739 1.377 . S
C755 C753 1.389 . S
C755 C756 1.524 . S
C756 C755 1.524 . S
C756 C757 1.397 . S
C756 C761 1.363 . S
C757 H728 0.950 . S
C757 C756 1.397 . S
C757 C758 1.334 . S
C758 H729 0.950 . S
C758 C757 1.334 . S
C758 C759 1.287 . S
C759 C758 1.287 . S
C759 C760 1.524 . S
C759 H762 0.999 . S
C760 H730 0.950 . S
C760 C759 1.524 . S
C760 C761 1.415 . S
C761 H731 0.950 . S
C761 C756 1.363 . S
C761 C760 1.415 . S
H762 C759 0.999 . S
H763 C744 0.913 . S
H764 C782 0.951 . S
H765 C784 0.951 . S
H766 C786 0.950 . S
H767 C787 0.950 . S
H768 C789 0.950 . S
H769 C792 0.950 . S
H770 C793 0.950 . S
H771 C795 0.950 . S
H772 C796 0.950 . S
H773 C797 0.951 . S
H774 C799 0.951 . S
H775 C801 0.950 . S
H776 C802 0.950 . S
H777 C804 0.950 . S
H778 C807 0.950 . S
H779 C808 0.950 . S
H780 C810 0.950 . S
H781 C811 0.950 . S
C782 H764 0.951 . S
C782 C783 1.366 . S
C782 C784 1.388 . S
C783 C782 1.366 . S
C783 C787 1.385 . S
C784 H765 0.951 . S
C784 C782 1.388 . S
C784 C785 1.366 . S
C785 C784 1.366 . S
C785 C786 1.414 . S
C785 C788 1.499 . S
C786 H766 0.950 . S
C786 C785 1.414 . S
C786 C787 1.374 . S
C787 H767 0.950 . S
C787 C783 1.385 . S
C787 C786 1.374 . S
C788 C785 1.499 . S
C788 C789 1.373 . S
C788 C790 1.389 . S
C789 H768 0.950 . S
C789 C788 1.373 . S
C789 C805 1.377 . S
C790 C788 1.389 . S
C790 C791 1.524 . S
C790 C804 1.377 . S
C791 C790 1.524 . S
C791 C792 1.397 . S
C791 C796 1.363 . S
C792 H769 0.950 . S
C792 C791 1.397 . S
C792 C793 1.334 . S
C793 H770 0.950 . S
C793 C792 1.334 . S
C793 C794 1.287 . S
C794 C793 1.287 . S
C794 C795 1.524 . S
C794 H813 0.913 . S
C795 H771 0.950 . S
C795 C794 1.524 . S
C795 C796 1.415 . S
C796 H772 0.950 . S
C796 C791 1.363 . S
C796 C795 1.415 . S
C797 H773 0.951 . S
C797 C798 1.366 . S
C797 C799 1.388 . S
C798 C797 1.366 . S
C798 C802 1.385 . S
C799 H774 0.951 . S
C799 C797 1.388 . S
C799 C800 1.366 . S
C800 C799 1.366 . S
C800 C801 1.414 . S
C800 C803 1.499 . S
C801 H775 0.950 . S
C801 C800 1.414 . S
C801 C802 1.374 . S
C802 H776 0.950 . S
C802 C798 1.385 . S
C802 C801 1.374 . S
C803 C800 1.499 . S
C803 C804 1.373 . S
C803 C805 1.389 . S
C804 H777 0.950 . S
C804 C790 1.377 . S
C804 C803 1.373 . S
C805 C789 1.377 . S
C805 C803 1.389 . S
C805 C806 1.524 . S
C806 C805 1.524 . S
C806 C807 1.397 . S
C806 C811 1.363 . S
C807 H778 0.950 . S
C807 C806 1.397 . S
C807 C808 1.334 . S
C808 H779 0.950 . S
C808 C807 1.334 . S
C808 C809 1.287 . S
C809 C808 1.287 . S
C809 C810 1.524 . S
C809 H812 0.999 . S
C810 H780 0.950 . S
C810 C809 1.524 . S
C810 C811 1.415 . S
C811 H781 0.950 . S
C811 C806 1.363 . S
C811 C810 1.415 . S
H812 C809 0.999 . S
H813 C794 0.913 . S
H814 C832 0.951 . S
H815 C834 0.951 . S
H816 C836 0.950 . S
H817 C837 0.950 . S
H818 C839 0.950 . S
H819 C842 0.950 . S
H820 C843 0.950 . S
H821 C845 0.950 . S
H822 C846 0.950 . S
H823 C847 0.951 . S
H824 C849 0.951 . S
H825 C851 0.950 . S
H826 C852 0.950 . S
H827 C854 0.950 . S
H828 C857 0.950 . S
H829 C858 0.950 . S
H830 C860 0.950 . S
H831 C861 0.950 . S
C832 H814 0.951 . S
C832 C833 1.366 . S
C832 C834 1.388 . S
C833 C832 1.366 . S
C833 C837 1.385 . S
C834 H815 0.951 . S
C834 C832 1.388 . S
C834 C835 1.366 . S
C835 C834 1.366 . S
C835 C836 1.414 . S
C835 C838 1.499 . S
C836 H816 0.950 . S
C836 C835 1.414 . S
C836 C837 1.374 . S
C837 H817 0.950 . S
C837 C833 1.385 . S
C837 C836 1.374 . S
C838 C835 1.499 . S
C838 C839 1.373 . S
C838 C840 1.389 . S
C839 H818 0.950 . S
C839 C838 1.373 . S
C839 C855 1.377 . S
C840 C838 1.389 . S
C840 C841 1.524 . S
C840 C854 1.377 . S
C841 C840 1.524 . S
C841 C842 1.397 . S
C841 C846 1.363 . S
C842 H819 0.950 . S
C842 C841 1.397 . S
C842 C843 1.334 . S
C843 H820 0.950 . S
C843 C842 1.334 . S
C843 C844 1.287 . S
C844 C843 1.287 . S
C844 C845 1.524 . S
C844 H863 0.913 . S
C845 H821 0.950 . S
C845 C844 1.524 . S
C845 C846 1.415 . S
C846 H822 0.950 . S
C846 C841 1.363 . S
C846 C845 1.415 . S
C847 H823 0.951 . S
C847 C848 1.366 . S
C847 C849 1.388 . S
C848 C847 1.366 . S
C848 C852 1.385 . S
C849 H824 0.951 . S
C849 C847 1.388 . S
C849 C850 1.366 . S
C850 C849 1.366 . S
C850 C851 1.414 . S
C850 C853 1.499 . S
C851 H825 0.950 . S
C851 C850 1.414 . S
C851 C852 1.374 . S
C852 H826 0.950 . S
C852 C848 1.385 . S
C852 C851 1.374 . S
C853 C850 1.499 . S
C853 C854 1.373 . S
C853 C855 1.389 . S
C854 H827 0.950 . S
C854 C840 1.377 . S
C854 C853 1.373 . S
C855 C839 1.377 . S
C855 C853 1.389 . S
C855 C856 1.524 . S
C856 C855 1.524 . S
C856 C857 1.397 . S
C856 C861 1.363 . S
C857 H828 0.950 . S
C857 C856 1.397 . S
C857 C858 1.334 . S
C858 H829 0.950 . S
C858 C857 1.334 . S
C858 C859 1.287 . S
C859 C858 1.287 . S
C859 C860 1.524 . S
C859 H862 0.999 . S
C860 H830 0.950 . S
C860 C859 1.524 . S
C860 C861 1.415 . S
C861 H831 0.950 . S
C861 C856 1.363 . S
C861 C860 1.415 . S
H862 C859 0.999 . S
H863 C844 0.913 . S
H864 C882 0.951 . S
H865 C884 0.951 . S
H866 C886 0.950 1_565 S
H867 C887 0.950 1_565 S
H868 C889 0.950 . S
H869 C892 0.950 . S
H870 C893 0.950 . S
H871 C895 0.950 . S
H872 C896 0.950 . S
H873 C897 0.953 1_565 S
H874 C899 0.951 1_565 S
H875 C901 0.950 . S
H876 C902 0.950 . S
H877 C904 0.950 . S
H878 C907 0.950 . S
H879 C908 0.950 1_545 S
H880 C910 0.950 . S
H881 C911 0.950 . S
C882 H864 0.951 . S
C882 C883 1.366 . S
C882 C884 1.388 . S
C883 C882 1.366 . S
C883 C887 1.385 . S
C884 H865 0.951 . S
C884 C882 1.388 . S
C884 C885 1.366 . S
C885 C884 1.366 . S
C885 C886 1.414 . S
C885 C888 1.499 . S
C886 H866 0.950 1_545 S
C886 C885 1.414 . S
C886 C887 1.374 . S
C887 H867 0.950 1_545 S
C887 C883 1.385 . S
C887 C886 1.374 . S
C888 C885 1.499 . S
C888 C889 1.373 . S
C888 C890 1.389 . S
C889 H868 0.950 . S
C889 C888 1.373 . S
C889 C905 1.377 . S
C890 C888 1.389 . S
C890 C891 1.524 . S
C890 C904 1.377 . S
C891 C890 1.524 . S
C891 C892 1.397 . S
C891 C896 1.363 . S
C892 H869 0.950 . S
C892 C891 1.397 . S
C892 C893 1.334 . S
C893 H870 0.950 . S
C893 C892 1.334 . S
C893 C894 1.287 . S
C894 C893 1.287 . S
C894 C895 1.524 . S
C894 H913 0.913 . S
C895 H871 0.950 . S
C895 C894 1.524 . S
C895 C896 1.415 . S
C896 H872 0.950 . S
C896 C891 1.363 . S
C896 C895 1.415 . S
C897 H873 0.953 1_545 S
C897 C898 1.363 . S
C897 C899 1.388 . S
C898 C897 1.363 . S
C898 C902 1.385 . S
C899 H874 0.951 1_545 S
C899 C897 1.388 . S
C899 C900 1.366 . S
C900 C899 1.366 . S
C900 C901 1.414 . S
C900 C903 1.519 . S
C901 H875 0.950 . S
C901 C900 1.414 . S
C901 C902 1.374 . S
C902 H876 0.950 . S
C902 C898 1.385 . S
C902 C901 1.374 . S
C903 C900 1.519 . S
C903 C904 1.364 1_655 S
C903 C905 1.378 1_655 S
C904 H877 0.950 . S
C904 C890 1.377 . S
C904 C903 1.364 1_455 S
C905 C889 1.377 . S
C905 C903 1.378 1_455 S
C905 C906 1.524 1_545 S
C906 C905 1.524 1_565 S
C906 C907 1.397 1_465 S
C906 C911 1.363 . S
C907 H878 0.950 . S
C907 C906 1.397 1_645 S
C907 C908 1.334 1_545 S
C908 H879 0.950 1_565 S
C908 C907 1.334 1_565 S
C908 C909 1.287 . S
C909 C908 1.287 . S
C909 C910 1.524 1_655 S
C909 H912 0.999 . S
C910 H880 0.950 . S
C910 C909 1.524 1_455 S
C910 C911 1.415 . S
C911 H881 0.950 . S
C911 C906 1.363 . S
C911 C910 1.415 . S
H912 C909 0.999 . S
H913 C894 0.913 . S
H914 C932 0.951 . S
H915 C934 0.951 . S
H916 C936 0.950 1_655 S
H917 C937 0.951 . S
H918 C939 0.950 1_655 S
H919 C942 0.950 . S
H920 C943 0.950 . S
H921 C945 0.950 . S
H922 C946 0.950 . S
H923 C947 0.951 1_655 S
H924 C949 0.951 1_655 S
H925 C951 0.950 . S
H926 C952 0.950 . S
H927 C954 0.950 . S
H928 C957 0.950 1_455 S
H929 C958 0.950 . S
H930 C960 0.950 . S
H931 C961 0.950 . S
C932 H914 0.951 . S
C932 C933 1.366 . S
C932 C934 1.388 . S
C933 C932 1.366 . S
C933 C937 1.384 1_455 S
C934 H915 0.951 . S
C934 C932 1.388 . S
C934 C935 1.366 . S
C935 C934 1.366 . S
C935 C936 1.414 . S
C935 C938 1.499 . S
C936 H916 0.950 1_455 S
C936 C935 1.414 . S
C936 C937 1.374 1_455 S
C937 H917 0.951 . S
C937 C933 1.384 1_655 S
C937 C936 1.374 1_655 S
C938 C935 1.499 . S
C938 C939 1.373 . S
C938 C940 1.389 . S
C939 H918 0.950 1_455 S
C939 C938 1.373 . S
C939 C955 1.377 . S
C940 C938 1.389 . S
C940 C941 1.524 . S
C940 C954 1.377 . S
C941 C940 1.524 . S
C941 C942 1.397 . S
C941 C946 1.363 . S
C942 H919 0.950 . S
C942 C941 1.397 . S
C942 C943 1.334 . S
C943 H920 0.950 . S
C943 C942 1.334 . S
C943 C944 1.287 . S
C944 C943 1.287 . S
C944 C945 1.524 . S
C944 H963 0.913 . S
C945 H921 0.950 . S
C945 C944 1.524 . S
C945 C946 1.415 . S
C946 H922 0.950 . S
C946 C941 1.363 . S
C946 C945 1.415 . S
C947 H923 0.951 1_455 S
C947 C948 1.366 . S
C947 C949 1.388 . S
C948 C947 1.366 . S
C948 C952 1.385 . S
C949 H924 0.951 1_455 S
C949 C947 1.388 . S
C949 C950 1.366 . S
C950 C949 1.366 . S
C950 C951 1.414 . S
C950 C953 1.520 . S
C951 H925 0.950 . S
C951 C950 1.414 . S
C951 C952 1.374 . S
C952 H926 0.950 . S
C952 C948 1.385 . S
C952 C951 1.374 . S
C953 C950 1.520 . S
C953 C954 1.363 1_565 S
C953 C955 1.379 1_565 S
C954 H927 0.950 . S
C954 C940 1.377 . S
C954 C953 1.363 1_545 S
C955 C939 1.377 . S
C955 C953 1.379 1_545 S
C955 C956 1.529 1_455 S
C956 C955 1.529 1_655 S
C956 C957 1.391 1_545 S
C956 C961 1.365 . S
C957 H928 0.950 1_655 S
C957 C956 1.391 1_565 S
C957 C958 1.334 . S
C958 H929 0.950 . S
C958 C957 1.334 . S
C958 C959 1.287 . S
C959 C958 1.287 . S
C959 C960 1.524 . S
C959 H962 0.999 . S
C960 H930 0.950 . S
C960 C959 1.524 . S
C960 C961 1.415 1_565 S
C961 H931 0.950 . S
C961 C956 1.365 . S
C961 C960 1.415 1_545 S
H962 C959 0.999 . S
H963 C944 0.913 . S
H964 C982 0.951 . S
H965 C984 0.951 . S
H966 C986 0.950 1_565 S
H967 C987 0.950 1_565 S
H968 C989 0.950 . S
H969 C992 0.950 . S
H970 C993 0.950 . S
H971 C995 0.945 1_455 S
H972 C996 0.950 . S
H973 C997 0.951 1_565 S
H974 C999 0.951 1_565 S
H975 C1001 0.950 . S
H976 C1002 0.950 . S
H977 C1004 0.950 . S
H978 C1007 0.950 . S
H979 C1008 0.950 . S
H980 C1010 0.950 . S
H981 C1011 0.950 . S
C982 H964 0.951 . S
C982 C983 1.366 . S
C982 C984 1.388 . S
C983 C982 1.366 . S
C983 C987 1.385 . S
C984 H965 0.951 . S
C984 C982 1.388 . S
C984 C985 1.366 . S
C985 C984 1.366 . S
C985 C986 1.414 . S
C985 C988 1.524 . S
C986 H966 0.950 1_545 S
C986 C985 1.414 . S
C986 C987 1.374 . S
C987 H967 0.950 1_545 S
C987 C983 1.385 . S
C987 C986 1.374 . S
C988 C985 1.524 . S
C988 C989 1.362 1_655 S
C988 C990 1.376 1_655 S
C989 H968 0.950 . S
C989 C988 1.362 1_455 S
C989 C1005 1.377 . S
C990 C988 1.376 1_455 S
C990 C991 1.524 . S
C990 C1004 1.377 . S
C991 C990 1.524 . S
C991 C992 1.397 1_455 S
C991 C996 1.363 . S
C992 H969 0.950 . S
C992 C991 1.397 1_655 S
C992 C993 1.334 . S
C993 H970 0.950 . S
C993 C992 1.334 . S
C993 C994 1.287 . S
C994 C993 1.287 . S
C994 C995 1.540 . S
C994 H1013 0.913 . S
C995 H971 0.945 1_655 S
C995 C994 1.540 . S
C995 C996 1.405 1_655 S
C996 H972 0.950 . S
C996 C991 1.363 . S
C996 C995 1.405 1_455 S
C997 H973 0.951 1_545 S
C997 C998 1.366 . S
C997 C999 1.388 . S
C998 C997 1.366 . S
C998 C1002 1.385 . S
C999 H974 0.951 1_545 S
C999 C997 1.388 . S
C999 C1000 1.366 . S
C1000 C999 1.366 . S
C1000 C1001 1.414 . S
C1000 C1003 1.499 . S
C1001 H975 0.950 . S
C1001 C1000 1.414 . S
C1001 C1002 1.374 . S
C1002 H976 0.950 . S
C1002 C998 1.385 . S
C1002 C1001 1.374 . S
C1003 C1000 1.499 . S
C1003 C1004 1.373 . S
C1003 C1005 1.389 . S
C1004 H977 0.950 . S
C1004 C990 1.377 . S
C1004 C1003 1.373 . S
C1005 C989 1.377 . S
C1005 C1003 1.389 . S
C1005 C1006 1.524 . S
C1006 C1005 1.524 . S
C1006 C1007 1.397 . S
C1006 C1011 1.363 1_545 S
C1007 H978 0.950 . S
C1007 C1006 1.397 . S
C1007 C1008 1.334 . S
C1008 H979 0.950 . S
C1008 C1007 1.334 . S
C1008 C1009 1.287 . S
C1009 C1008 1.287 . S
C1009 C1010 1.524 1_545 S
C1009 H1012 0.999 . S
C1010 H980 0.950 . S
C1010 C1009 1.524 1_565 S
C1010 C1011 1.415 . S
C1011 H981 0.950 . S
C1011 C1006 1.363 1_565 S
C1011 C1010 1.415 . S
H1012 C1009 0.999 . S
H1013 C994 0.913 . S
H1014 C1032 0.951 . S
H1015 C1034 0.951 . S
H1016 C1036 0.950 . S
H1017 C1037 0.950 . S
H1018 C1039 0.950 . S
H1019 C1042 0.950 . S
H1020 C1043 0.950 . S
H1021 C1045 0.950 . S
H1022 C1046 0.950 . S
H1023 C1047 0.951 . S
H1024 C1049 0.951 . S
H1025 C1051 0.950 . S
H1026 C1052 0.950 . S
H1027 C1054 0.950 1_655 S
H1028 C1057 0.950 . S
H1029 C1058 0.950 . S
H1030 C1060 0.950 . S
H1031 C1061 0.950 . S
C1032 H1014 0.951 . S
C1032 C1033 1.366 . S
C1032 C1034 1.388 . S
C1033 C1032 1.366 . S
C1033 C1037 1.385 . S
C1034 H1015 0.951 . S
C1034 C1032 1.388 . S
C1034 C1035 1.366 . S
C1035 C1034 1.366 . S
C1035 C1036 1.414 . S
C1035 C1038 1.515 . S
C1036 H1016 0.950 . S
C1036 C1035 1.414 . S
C1036 C1037 1.374 . S
C1037 H1017 0.950 . S
C1037 C1033 1.385 . S
C1037 C1036 1.374 . S
C1038 C1035 1.515 . S
C1038 C1039 1.366 1_565 S
C1038 C1040 1.380 1_565 S
C1039 H1018 0.950 . S
C1039 C1038 1.366 1_545 S
C1039 C1055 1.377 . S
C1040 C1038 1.380 1_545 S
C1040 C1041 1.524 1_455 S
C1040 C1054 1.377 . S
C1041 C1040 1.524 1_655 S
C1041 C1042 1.397 1_545 S
C1041 C1046 1.363 . S
C1042 H1019 0.950 . S
C1042 C1041 1.397 1_565 S
C1042 C1043 1.334 . S
C1043 H1020 0.950 . S
C1043 C1042 1.334 . S
C1043 C1044 1.287 . S
C1044 C1043 1.287 . S
C1044 C1045 1.524 1_565 S
C1044 H1063 0.913 . S
C1045 H1021 0.950 . S
C1045 C1044 1.524 1_545 S
C1045 C1046 1.415 . S
C1046 H1022 0.950 . S
C1046 C1041 1.363 . S
C1046 C1045 1.415 . S
C1047 H1023 0.951 . S
C1047 C1048 1.366 . S
C1047 C1049 1.388 . S
C1048 C1047 1.366 . S
C1048 C1052 1.385 . S
C1049 H1024 0.951 . S
C1049 C1047 1.388 . S
C1049 C1050 1.366 . S
C1050 C1049 1.366 . S
C1050 C1051 1.414 . S
C1050 C1053 1.499 . S
C1051 H1025 0.950 . S
C1051 C1050 1.414 . S
C1051 C1052 1.374 . S
C1052 H1026 0.950 . S
C1052 C1048 1.385 . S
C1052 C1051 1.374 . S
C1053 C1050 1.499 . S
C1053 C1054 1.373 . S
C1053 C1055 1.389 . S
C1054 H1027 0.950 1_455 S
C1054 C1040 1.377 . S
C1054 C1053 1.373 . S
C1055 C1039 1.377 . S
C1055 C1053 1.389 . S
C1055 C1056 1.524 . S
C1056 C1055 1.524 . S
C1056 C1057 1.397 . S
C1056 C1061 1.363 . S
C1057 H1028 0.950 . S
C1057 C1056 1.397 . S
C1057 C1058 1.334 . S
C1058 H1029 0.950 . S
C1058 C1057 1.334 . S
C1058 C1059 1.287 . S
C1059 C1058 1.287 . S
C1059 C1060 1.524 . S
C1059 H1062 0.999 . S
C1060 H1030 0.950 . S
C1060 C1059 1.524 . S
C1060 C1061 1.415 . S
C1061 H1031 0.950 . S
C1061 C1056 1.363 . S
C1061 C1060 1.415 . S
H1062 C1059 0.999 . S
H1063 C1044 0.913 . S
H1064 C1082 0.951 . S
H1065 C1084 0.951 . S
H1066 C1086 0.950 . S
H1067 C1087 0.950 . S
H1068 C1089 0.950 1_565 S
H1069 C1092 0.950 . S
H1070 C1093 0.950 . S
H1071 C1095 0.950 . S
H1072 C1096 0.950 . S
H1073 C1097 0.951 1_565 S
H1074 C1099 0.951 1_565 S
H1075 C1101 0.950 . S
H1076 C1102 0.950 . S
H1077 C1104 0.950 . S
H1078 C1107 0.950 . S
H1079 C1108 0.950 . S
H1080 C1110 0.950 . S
H1081 C1111 0.950 . S
C1082 H1064 0.951 . S
C1082 C1083 1.366 . S
C1082 C1084 1.388 . S
C1083 C1082 1.366 . S
C1083 C1087 1.385 . S
C1084 H1065 0.951 . S
C1084 C1082 1.388 . S
C1084 C1085 1.366 . S
C1085 C1084 1.366 . S
C1085 C1086 1.414 . S
C1085 C1088 1.499 . S
C1086 H1066 0.950 . S
C1086 C1085 1.414 . S
C1086 C1087 1.374 . S
C1087 H1067 0.950 . S
C1087 C1083 1.385 . S
C1087 C1086 1.374 . S
C1088 C1085 1.499 . S
C1088 C1089 1.373 . S
C1088 C1090 1.389 . S
C1089 H1068 0.950 1_545 S
C1089 C1088 1.373 . S
C1089 C1105 1.377 . S
C1090 C1088 1.389 . S
C1090 C1091 1.524 . S
C1090 C1104 1.377 . S
C1091 C1090 1.524 . S
C1091 C1092 1.397 . S
C1091 C1096 1.363 . S
C1092 H1069 0.950 . S
C1092 C1091 1.397 . S
C1092 C1093 1.334 . S
C1093 H1070 0.950 . S
C1093 C1092 1.334 . S
C1093 C1094 1.287 . S
C1094 C1093 1.287 . S
C1094 C1095 1.524 . S
C1094 H1113 0.913 . S
C1095 H1071 0.950 . S
C1095 C1094 1.524 . S
C1095 C1096 1.415 . S
C1096 H1072 0.950 . S
C1096 C1091 1.363 . S
C1096 C1095 1.415 . S
C1097 H1073 0.951 1_545 S
C1097 C1098 1.366 . S
C1097 C1099 1.388 . S
C1098 C1097 1.366 . S
C1098 C1102 1.385 . S
C1099 H1074 0.951 1_545 S
C1099 C1097 1.388 . S
C1099 C1100 1.366 . S
C1100 C1099 1.366 . S
C1100 C1101 1.414 . S
C1100 C1103 1.499 . S
C1101 H1075 0.950 . S
C1101 C1100 1.414 . S
C1101 C1102 1.374 . S
C1102 H1076 0.950 . S
C1102 C1098 1.385 . S
C1102 C1101 1.374 . S
C1103 C1100 1.499 . S
C1103 C1104 1.373 . S
C1103 C1105 1.389 . S
C1104 H1077 0.950 . S
C1104 C1090 1.377 . S
C1104 C1103 1.373 . S
C1105 C1089 1.377 . S
C1105 C1103 1.389 . S
C1105 C1106 1.524 1_545 S
C1106 C1105 1.524 1_565 S
C1106 C1107 1.397 . S
C1106 C1111 1.363 . S
C1107 H1078 0.950 . S
C1107 C1106 1.397 . S
C1107 C1108 1.334 . S
C1108 H1079 0.950 . S
C1108 C1107 1.334 . S
C1108 C1109 1.287 . S
C1109 C1108 1.287 . S
C1109 C1110 1.524 . S
C1109 H1112 0.999 . S
C1110 H1080 0.950 . S
C1110 C1109 1.524 . S
C1110 C1111 1.415 . S
C1111 H1081 0.950 . S
C1111 C1106 1.363 . S
C1111 C1110 1.415 . S
H1112 C1109 0.999 . S
H1113 C1094 0.913 . S
H1114 C1132 0.951 . S
H1115 C1134 0.951 . S
H1116 C1136 0.950 1_655 S
H1117 C1137 0.950 1_655 S
H1118 C1139 0.950 1_655 S
H1119 C1142 0.950 . S
H1120 C1143 0.950 . S
H1121 C1145 0.950 . S
H1122 C1146 0.950 . S
H1123 C1147 0.951 . S
H1124 C1149 0.963 . S
H1125 C1151 0.950 . S
H1126 C1152 0.950 . S
H1127 C1154 0.950 . S
H1128 C1157 0.950 1_455 S
H1129 C1158 0.950 . S
H1130 C1160 0.950 . S
H1131 C1161 0.950 . S
C1132 H1114 0.951 . S
C1132 C1133 1.366 . S
C1132 C1134 1.388 . S
C1133 C1132 1.366 . S
C1133 C1137 1.385 . S
C1134 H1115 0.951 . S
C1134 C1132 1.388 . S
C1134 C1135 1.366 . S
C1135 C1134 1.366 . S
C1135 C1136 1.414 . S
C1135 C1138 1.499 . S
C1136 H1116 0.950 1_455 S
C1136 C1135 1.414 . S
C1136 C1137 1.374 . S
C1137 H1117 0.950 1_455 S
C1137 C1133 1.385 . S
C1137 C1136 1.374 . S
C1138 C1135 1.499 . S
C1138 C1139 1.373 . S
C1138 C1140 1.389 . S
C1139 H1118 0.950 1_455 S
C1139 C1138 1.373 . S
C1139 C1155 1.377 . S
C1140 C1138 1.389 . S
C1140 C1141 1.524 . S
C1140 C1154 1.377 . S
C1141 C1140 1.524 . S
C1141 C1142 1.397 . S
C1141 C1146 1.363 . S
C1142 H1119 0.950 . S
C1142 C1141 1.397 . S
C1142 C1143 1.334 . S
C1143 H1120 0.950 . S
C1143 C1142 1.334 . S
C1143 C1144 1.287 . S
C1144 C1143 1.287 . S
C1144 C1145 1.524 . S
C1144 H1163 0.913 . S
C1145 H1121 0.950 . S
C1145 C1144 1.524 . S
C1145 C1146 1.415 . S
C1146 H1122 0.950 . S
C1146 C1141 1.363 . S
C1146 C1145 1.415 . S
C1147 H1123 0.951 . S
C1147 C1148 1.366 1_655 S
C1147 C1149 1.389 . S
C1148 C1147 1.366 1_455 S
C1148 C1152 1.385 . S
C1149 H1124 0.963 . S
C1149 C1147 1.389 . S
C1149 C1150 1.353 1_655 S
C1150 C1149 1.353 1_455 S
C1150 C1151 1.414 . S
C1150 C1153 1.499 . S
C1151 H1125 0.950 . S
C1151 C1150 1.414 . S
C1151 C1152 1.374 . S
C1152 H1126 0.950 . S
C1152 C1148 1.385 . S
C1152 C1151 1.374 . S
C1153 C1150 1.499 . S
C1153 C1154 1.373 . S
C1153 C1155 1.389 . S
C1154 H1127 0.950 . S
C1154 C1140 1.377 . S
C1154 C1153 1.373 . S
C1155 C1139 1.377 . S
C1155 C1153 1.389 . S
C1155 C1156 1.524 1_455 S
C1156 C1155 1.524 1_655 S
C1156 C1157 1.397 . S
C1156 C1161 1.363 . S
C1157 H1128 0.950 1_655 S
C1157 C1156 1.397 . S
C1157 C1158 1.334 . S
C1158 H1129 0.950 . S
C1158 C1157 1.334 . S
C1158 C1159 1.287 . S
C1159 C1158 1.287 . S
C1159 C1160 1.524 . S
C1159 H1162 0.999 . S
C1160 H1130 0.950 . S
C1160 C1159 1.524 . S
C1160 C1161 1.415 . S
C1161 H1131 0.950 . S
C1161 C1156 1.363 . S
C1161 C1160 1.415 . S
H1162 C1159 0.999 . S
H1163 C1144 0.913 . S
H1164 C1182 0.951 . S
H1165 C1184 0.951 . S
H1166 C1186 0.950 . S
H1167 C1187 0.950 . S
H1168 C1189 0.950 1_565 S
H1169 C1192 0.950 . S
H1170 C1193 0.950 . S
H1171 C1195 0.950 . S
H1172 C1196 0.950 . S
H1173 C1197 0.951 1_565 S
H1174 C1199 0.951 1_565 S
H1175 C1201 0.950 . S
H1176 C1202 0.950 . S
H1177 C1204 0.950 . S
H1178 C1207 0.950 . S
H1179 C1208 0.950 . S
H1180 C1210 0.950 . S
H1181 C1211 0.950 . S
C1182 H1164 0.951 . S
C1182 C1183 1.366 . S
C1182 C1184 1.388 . S
C1183 C1182 1.366 . S
C1183 C1187 1.385 1_545 S
C1184 H1165 0.951 . S
C1184 C1182 1.388 . S
C1184 C1185 1.366 . S
C1185 C1184 1.366 . S
C1185 C1186 1.414 1_545 S
C1185 C1188 1.499 . S
C1186 H1166 0.950 . S
C1186 C1185 1.414 1_565 S
C1186 C1187 1.374 . S
C1187 H1167 0.950 . S
C1187 C1183 1.385 1_565 S
C1187 C1186 1.374 . S
C1188 C1185 1.499 . S
C1188 C1189 1.373 . S
C1188 C1190 1.389 . S
C1189 H1168 0.950 1_545 S
C1189 C1188 1.373 . S
C1189 C1205 1.377 . S
C1190 C1188 1.389 . S
C1190 C1191 1.524 . S
C1190 C1204 1.377 . S
C1191 C1190 1.524 . S
C1191 C1192 1.397 . S
C1191 C1196 1.363 . S
C1192 H1169 0.950 . S
C1192 C1191 1.397 . S
C1192 C1193 1.334 . S
C1193 H1170 0.950 . S
C1193 C1192 1.334 . S
C1193 C1194 1.287 . S
C1194 C1193 1.287 . S
C1194 C1195 1.524 . S
C1194 H1213 0.913 . S
C1195 H1171 0.950 . S
C1195 C1194 1.524 . S
C1195 C1196 1.415 . S
C1196 H1172 0.950 . S
C1196 C1191 1.363 . S
C1196 C1195 1.415 . S
C1197 H1173 0.951 1_545 S
C1197 C1198 1.366 . S
C1197 C1199 1.388 . S
C1198 C1197 1.366 . S
C1198 C1202 1.385 . S
C1199 H1174 0.951 1_545 S
C1199 C1197 1.388 . S
C1199 C1200 1.366 . S
C1200 C1199 1.366 . S
C1200 C1201 1.414 . S
C1200 C1203 1.499 . S
C1201 H1175 0.950 . S
C1201 C1200 1.414 . S
C1201 C1202 1.374 . S
C1202 H1176 0.950 . S
C1202 C1198 1.385 . S
C1202 C1201 1.374 . S
C1203 C1200 1.499 . S
C1203 C1204 1.373 . S
C1203 C1205 1.389 . S
C1204 H1177 0.950 . S
C1204 C1190 1.377 . S
C1204 C1203 1.373 . S
C1205 C1189 1.377 . S
C1205 C1203 1.389 . S
C1205 C1206 1.524 1_545 S
C1206 C1205 1.524 1_565 S
C1206 C1207 1.397 1_565 S
C1206 C1211 1.363 . S
C1207 H1178 0.950 . S
C1207 C1206 1.397 1_545 S
C1207 C1208 1.334 1_545 S
C1208 H1179 0.950 . S
C1208 C1207 1.334 1_565 S
C1208 C1209 1.287 . S
C1209 C1208 1.287 . S
C1209 C1210 1.524 . S
C1209 H1212 0.999 . S
C1210 H1180 0.950 . S
C1210 C1209 1.524 . S
C1210 C1211 1.415 . S
C1211 H1181 0.950 . S
C1211 C1206 1.363 . S
C1211 C1210 1.415 . S
H1212 C1209 0.999 . S
H1213 C1194 0.913 . S
H1214 C1232 0.951 . S
H1215 C1234 0.951 . S
H1216 C1236 0.950 1_655 S
H1217 C1237 0.950 1_655 S
H1218 C1239 0.950 . S
H1219 C1242 0.950 . S
H1220 C1243 0.950 . S
H1221 C1245 0.950 . S
H1222 C1246 0.950 . S
H1223 C1247 0.951 . S
H1224 C1249 0.951 . S
H1225 C1251 0.950 . S
H1226 C1252 0.950 . S
H1227 C1254 0.950 . S
H1228 C1257 0.950 . S
H1229 C1258 0.950 . S
H1230 C1260 0.950 . S
H1231 C1261 0.950 . S
C1232 H1214 0.951 . S
C1232 C1233 1.366 . S
C1232 C1234 1.388 . S
C1233 C1232 1.366 . S
C1233 C1237 1.385 . S
C1234 H1215 0.951 . S
C1234 C1232 1.388 . S
C1234 C1235 1.366 . S
C1235 C1234 1.366 . S
C1235 C1236 1.414 . S
C1235 C1238 1.499 . S
C1236 H1216 0.950 1_455 S
C1236 C1235 1.414 . S
C1236 C1237 1.374 . S
C1237 H1217 0.950 1_455 S
C1237 C1233 1.385 . S
C1237 C1236 1.374 . S
C1238 C1235 1.499 . S
C1238 C1239 1.373 . S
C1238 C1240 1.389 . S
C1239 H1218 0.950 . S
C1239 C1238 1.373 . S
C1239 C1255 1.377 . S
C1240 C1238 1.389 . S
C1240 C1241 1.524 . S
C1240 C1254 1.377 . S
C1241 C1240 1.524 . S
C1241 C1242 1.397 . S
C1241 C1246 1.363 . S
C1242 H1219 0.950 . S
C1242 C1241 1.397 . S
C1242 C1243 1.334 . S
C1243 H1220 0.950 . S
C1243 C1242 1.334 . S
C1243 C1244 1.287 . S
C1244 C1243 1.287 . S
C1244 C1245 1.524 . S
C1244 H1263 0.913 . S
C1245 H1221 0.950 . S
C1245 C1244 1.524 . S
C1245 C1246 1.415 . S
C1246 H1222 0.950 . S
C1246 C1241 1.363 . S
C1246 C1245 1.415 . S
C1247 H1223 0.951 . S
C1247 C1248 1.366 1_655 S
C1247 C1249 1.388 . S
C1248 C1247 1.366 1_455 S
C1248 C1252 1.385 . S
C1249 H1224 0.951 . S
C1249 C1247 1.388 . S
C1249 C1250 1.366 1_655 S
C1250 C1249 1.366 1_455 S
C1250 C1251 1.414 . S
C1250 C1253 1.499 . S
C1251 H1225 0.950 . S
C1251 C1250 1.414 . S
C1251 C1252 1.374 . S
C1252 H1226 0.950 . S
C1252 C1248 1.385 . S
C1252 C1251 1.374 . S
C1253 C1250 1.499 . S
C1253 C1254 1.373 . S
C1253 C1255 1.389 . S
C1254 H1227 0.950 . S
C1254 C1240 1.377 . S
C1254 C1253 1.373 . S
C1255 C1239 1.377 . S
C1255 C1253 1.389 . S
C1255 C1256 1.531 . S
C1256 C1255 1.531 . S
C1256 C1257 1.404 . S
C1256 C1261 1.350 1_455 S
C1257 H1228 0.950 . S
C1257 C1256 1.404 . S
C1257 C1258 1.334 . S
C1258 H1229 0.950 . S
C1258 C1257 1.334 . S
C1258 C1259 1.287 1_455 S
C1259 C1258 1.287 1_655 S
C1259 C1260 1.524 . S
C1259 H1262 0.999 . S
C1260 H1230 0.950 . S
C1260 C1259 1.524 . S
C1260 C1261 1.415 . S
C1261 H1231 0.950 . S
C1261 C1256 1.350 1_655 S
C1261 C1260 1.415 . S
H1262 C1259 0.999 . S
H1263 C1244 0.913 . S
C283 C28 1.680 . S
C298 C160 1.681 . S
C333 C193 1.680 . S
C348 C61 1.681 . S
C383 C94 1.680 . S
C398 C226 1.680 . S
C433 C259 1.680 . S
C448 C127 1.680 . S
C483 C182 0.828 . S
C498 C17 0.827 . S
C533 C215 0.827 . S
C548 C50 0.829 . S
C583 C83 0.828 . S
C598 C248 0.828 . S
C633 C149 0.828 . S
C648 C116 0.829 . S
C683 C107 1.070 . S
C698 C206 1.070 . S
C733 C8 1.070 . S
C748 C239 1.068 . S
C783 C41 1.069 . S
C798 C140 1.070 . S
C833 C74 1.070 . S
C848 C173 1.068 . S
C883 N14 0.543 . S
C898 N80 0.544 . S
C933 N47 0.543 . S
C948 N113 0.543 . S
C983 N212 0.543 . S
C998 N146 0.544 . S
C1033 N245 0.545 . S
C1048 N179 0.544 . S
C1083 N5 0.946 . S
C1098 N71 0.946 . S
C1133 N104 0.947 . S
C1148 N38 0.947 . S
C1183 N137 0.948 . S
C1198 N203 0.948 . S
C1233 N170 0.946 . S
C1248 N236 0.947 . S
