# Generated by pormake.
# Topology smm, (6)-cn, num edge types: 1
# Building blocks:
#     Node 0, Type 0, BuildingBlock: FUNLAD_clean_sbu_0, # of connection points: 6
#     Node 1, Type 0, BuildingBlock: FUNLAD_clean_sbu_0, # of connection points: 6
#     Node 2, Type 0, BuildingBlock: FUNLAD_clean_sbu_0, # of connection points: 6
#     Node 3, Type 0, BuildingBlock: FUNLAD_clean_sbu_0, # of connection points: 6
#     Node 4, Type 0, BuildingBlock: FUNLAD_clean_sbu_0, # of connection points: 6
#     Node 5, Type 0, BuildingBlock: FUNLAD_clean_sbu_0, # of connection points: 6
#     Node 6, Type 0, BuildingBlock: FUNLAD_clean_sbu_0, # of connection points: 6
#     Node 7, Type 0, BuildingBlock: FUNLAD_clean_sbu_0, # of connection points: 6
#     Node 8, Type 0, BuildingBlock: FUNLAD_clean_sbu_0, # of connection points: 6
#     Edge 9, Type (0, 0), BuildingBlock: EZIPEK_clean_linker_0, # of connection points: 2
#     Edge 10, Type (0, 0), BuildingBlock: EZIPEK_clean_linker_0, # of connection points: 2
#     Edge 11, Type (0, 0), BuildingBlock: EZIPEK_clean_linker_0, # of connection points: 2
#     Edge 12, Type (0, 0), BuildingBlock: EZIPEK_clean_linker_0, # of connection points: 2
#     Edge 13, Type (0, 0), BuildingBlock: EZIPEK_clean_linker_0, # of connection points: 2
#     Edge 14, Type (0, 0), BuildingBlock: EZIPEK_clean_linker_0, # of connection points: 2
#     Edge 15, Type (0, 0), BuildingBlock: EZIPEK_clean_linker_0, # of connection points: 2
#     Edge 16, Type (0, 0), BuildingBlock: EZIPEK_clean_linker_0, # of connection points: 2
#     Edge 17, Type (0, 0), BuildingBlock: EZIPEK_clean_linker_0, # of connection points: 2
#     Edge 18, Type (0, 0), BuildingBlock: EZIPEK_clean_linker_0, # of connection points: 2
#     Edge 19, Type (0, 0), BuildingBlock: EZIPEK_clean_linker_0, # of connection points: 2
#     Edge 20, Type (0, 0), BuildingBlock: EZIPEK_clean_linker_0, # of connection points: 2
#     Edge 21, Type (0, 0), BuildingBlock: EZIPEK_clean_linker_0, # of connection points: 2
#     Edge 22, Type (0, 0), BuildingBlock: EZIPEK_clean_linker_0, # of connection points: 2
#     Edge 23, Type (0, 0), BuildingBlock: EZIPEK_clean_linker_0, # of connection points: 2
#     Edge 24, Type (0, 0), BuildingBlock: EZIPEK_clean_linker_0, # of connection points: 2
#     Edge 25, Type (0, 0), BuildingBlock: EZIPEK_clean_linker_0, # of connection points: 2
#     Edge 26, Type (0, 0), BuildingBlock: EZIPEK_clean_linker_0, # of connection points: 2
#     Edge 27, Type (0, 0), BuildingBlock: EZIPEK_clean_linker_0, # of connection points: 2
#     Edge 28, Type (0, 0), BuildingBlock: EZIPEK_clean_linker_0, # of connection points: 2
#     Edge 29, Type (0, 0), BuildingBlock: EZIPEK_clean_linker_0, # of connection points: 2
#     Edge 30, Type (0, 0), BuildingBlock: EZIPEK_clean_linker_0, # of connection points: 2
#     Edge 31, Type (0, 0), BuildingBlock: EZIPEK_clean_linker_0, # of connection points: 2
#     Edge 32, Type (0, 0), BuildingBlock: EZIPEK_clean_linker_0, # of connection points: 2
#     Edge 33, Type (0, 0), BuildingBlock: EZIPEK_clean_linker_0, # of connection points: 2
#     Edge 34, Type (0, 0), BuildingBlock: EZIPEK_clean_linker_0, # of connection points: 2
#     Edge 35, Type (0, 0), BuildingBlock: EZIPEK_clean_linker_0, # of connection points: 2
# Relax obj value: 0.489
# Max RMSD: 0.302
# Mean RMSD: 0.300
data_MOF--net-smm--node1-FUNLAD_clean_sbu_0--edge1-EZIPEK_clean_linker_0
_symmetry_space_group_name_H-M    P1
_symmetry_Int_Tables_number       1
_symmetry_cell_setting            triclinic
loop_
_symmetry_equiv_pos_as_xyz
'x, y, z'
_cell_length_a     34.592199
_cell_length_b     34.571365
_cell_length_c     17.029383
_cell_angle_alpha  90.479861
_cell_angle_beta   90.525269
_cell_angle_gamma 120.02774
loop_
_atom_site_label
_atom_site_type_symbol
_atom_site_fract_x
_atom_site_fract_y
_atom_site_fract_z
_atom_type_partial_charge
C0 C 0.94634 0.09567 0.01836 0.0
N1 N 0.02915 0.19603 0.18968 0.0
C2 C 0.99019 0.16768 0.22562 0.0
C3 C 0.98672 0.16859 0.30596 0.0
C4 C 0.02355 0.19911 0.35028 0.0
C5 C 0.06387 0.22807 0.31349 0.0
C6 C 0.06594 0.22597 0.23157 0.0
Zn7 Zn 0.0224 0.19344 0.0718 0.0
C8 C 0.07156 0.16207 0.99752 0.0
N9 N 0.98442 0.17767 0.83786 0.0
C10 C 0.94517 0.1627 0.79775 0.0
C11 C 0.02402 0.19438 0.8001 0.0
C12 C 0.0256 0.19728 0.71954 0.0
C13 C 0.98602 0.18196 0.67676 0.0
C14 C 0.94515 0.16424 0.71564 0.0
Zn15 Zn 0.99168 0.1792 0.95539 0.0
O16 O 0.97377 0.11825 0.07433 0.0
C17 C 0.94266 0.20751 0.05557 0.0
O18 O 0.94442 0.11557 0.95859 0.0
H19 H 0.055 0.20632 0.83241 0.0
H20 H 0.96058 0.14566 0.19201 0.0
H21 H 0.91419 0.14959 0.82926 0.0
O22 O 0.97326 0.20731 0.09481 0.0
O23 O 0.9402 0.19912 0.9816 0.0
H24 H 0.0962 0.24875 0.20152 0.0
O25 O 0.03798 0.24294 0.94012 0.0
O26 O 0.07171 0.2666 0.05329 0.0
O27 O 0.04361 0.15756 0.94317 0.0
O28 O 0.07182 0.18047 0.06151 0.0
C29 C 0.06832 0.27357 0.9804 0.0
H30 H 0.95521 0.14618 0.33333 0.0
H31 H 0.09281 0.25197 0.34743 0.0
H32 H 0.05749 0.21093 0.69058 0.0
H33 H 0.91407 0.15193 0.68302 0.0
C34 C 0.84334 0.90609 0.98609 0.0
N35 N 0.83111 0.80235 0.83363 0.0
C36 C 0.81083 0.82171 0.79444 0.0
C37 C 0.80764 0.81967 0.71369 0.0
C38 C 0.82651 0.79856 0.67214 0.0
C39 C 0.84734 0.77853 0.71253 0.0
C40 C 0.849 0.78058 0.79476 0.0
Zn41 Zn 0.83125 0.81021 0.95123 0.0
C42 C 0.91718 0.85628 0.0146 0.0
N43 N 0.81891 0.83553 0.18478 0.0
C44 C 0.78746 0.83983 0.22519 0.0
C45 C 0.84907 0.82741 0.22215 0.0
C46 C 0.84821 0.82264 0.30245 0.0
C47 C 0.81574 0.82567 0.34506 0.0
C48 C 0.78526 0.83497 0.30685 0.0
Zn49 Zn 0.81986 0.8295 0.06705 0.0
O50 O 0.84828 0.88145 0.93517 0.0
C51 C 0.73694 0.78963 0.97779 0.0
O52 O 0.82945 0.89029 0.05288 0.0
H53 H 0.87227 0.82157 0.18963 0.0
H54 H 0.797 0.83917 0.82566 0.0
H55 H 0.76325 0.84526 0.19401 0.0
O56 O 0.76593 0.78856 0.93613 0.0
O57 O 0.74679 0.80331 0.04914 0.0
H58 H 0.86503 0.76558 0.82731 0.0
O59 O 0.80891 0.76716 0.09184 0.0
O60 O 0.81485 0.74079 0.97879 0.0
O61 O 0.89447 0.85976 0.07031 0.0
O62 O 0.89697 0.8318 0.95596 0.0
C63 C 0.80795 0.73582 0.05273 0.0
H64 H 0.79175 0.83569 0.68362 0.0
H65 H 0.86261 0.76242 0.68095 0.0
H66 H 0.87181 0.81513 0.33092 0.0
H67 H 0.75982 0.83744 0.33941 0.0
C68 C 0.1816 0.08381 0.0192 0.0
N69 N 0.18371 0.98557 0.16135 0.0
C70 C 0.21029 0.02477 0.20095 0.0
C71 C 0.21338 0.02642 0.28166 0.0
C72 C 0.18743 0.98786 0.32391 0.0
C73 C 0.15979 0.94735 0.2835 0.0
C74 C 0.15871 0.94688 0.20084 0.0
Zn75 Zn 0.18551 0.99632 0.04265 0.0
C76 C 0.1049 0.96069 0.96735 0.0
N77 N 0.21396 0.04672 0.81447 0.0
C78 C 0.25253 0.05696 0.77714 0.0
C79 C 0.17606 0.0362 0.77313 0.0
C80 C 0.17399 0.02888 0.69257 0.0
C81 C 0.21226 0.03598 0.65281 0.0
C82 C 0.25278 0.05342 0.69519 0.0
Zn83 Zn 0.20604 0.03103 0.93075 0.0
O84 O 0.17769 0.05469 0.06894 0.0
C85 C 0.28421 0.06457 0.03089 0.0
O86 O 0.19393 0.08126 0.95107 0.0
H87 H 0.14626 0.03034 0.80282 0.0
H88 H 0.22907 0.05582 0.17039 0.0
H89 H 0.28231 0.06501 0.81092 0.0
O90 O 0.25205 0.03083 0.06004 0.0
O91 O 0.27807 0.07746 0.96412 0.0
H92 H 0.13729 0.91621 0.16867 0.0
O93 O 0.21778 0.98 0.89986 0.0
O94 O 0.18918 0.93744 1.00196 0.0
O95 O 0.13159 0.98395 0.91279 0.0
O96 O 0.1201 0.96055 0.03448 0.0
C97 C 0.20396 0.94258 0.93172 0.0
H98 H 0.23476 0.05816 0.31121 0.0
H99 H 0.13905 0.91701 0.31534 0.0
H100 H 0.14233 0.01659 0.66182 0.0
H101 H 0.28332 0.06061 0.66603 0.0
C102 C 0.72706 0.49039 0.31382 0.0
N103 N 0.62705 0.49622 0.16738 0.0
C104 C 0.63557 0.46848 0.12281 0.0
C105 C 0.64082 0.47415 0.0415 0.0
C106 C 0.63672 0.50829 0.00556 0.0
C107 C 0.62357 0.53353 0.05133 0.0
C108 C 0.61885 0.52688 0.13264 0.0
Zn109 Zn 0.64654 0.50591 0.28551 0.0
C110 C 0.60935 0.42769 0.37547 0.0
N111 N 0.70346 0.54078 0.51788 0.0
C112 C 0.70179 0.5071 0.56142 0.0
C113 C 0.70414 0.57661 0.55363 0.0
C114 C 0.69859 0.57726 0.63506 0.0
C115 C 0.69264 0.54087 0.67993 0.0
C116 C 0.69618 0.50642 0.64286 0.0
Zn117 Zn 0.68428 0.52748 0.3999 0.0
O118 O 0.69721 0.48575 0.26347 0.0
C119 C 0.72279 0.60152 0.28603 0.0
O120 O 0.73139 0.5115 0.37722 0.0
H121 H 0.70466 0.60274 0.51831 0.0
H122 H 0.64185 0.44424 0.15075 0.0
H123 H 0.70102 0.47881 0.53245 0.0
O124 O 0.69045 0.56859 0.25249 0.0
O125 O 0.73054 0.59798 0.35882 0.0
H126 H 0.61261 0.54901 0.16868 0.0
O127 O 0.63688 0.54194 0.43016 0.0
O128 O 0.596 0.52527 0.32325 0.0
O129 O 0.63798 0.45557 0.4253 0.0
O130 O 0.60344 0.44189 0.31088 0.0
C131 C 0.60307 0.53826 0.39543 0.0
H132 H 0.65055 0.45381 0.00768 0.0
H133 H 0.61982 0.55997 0.0253 0.0
H134 H 0.69599 0.60439 0.66184 0.0
H135 H 0.6919 0.47793 0.67589 0.0
C136 C 0.52542 0.23853 0.32987 0.0
N137 N 0.50239 0.13578 0.16258 0.0
C138 C 0.49369 0.16546 0.12557 0.0
C139 C 0.48837 0.16406 0.04514 0.0
C140 C 0.49185 0.1318 1.00159 0.0
C141 C 0.50144 0.10157 0.03947 0.0
C142 C 0.5065 0.1041 0.12149 0.0
Zn143 Zn 0.49872 0.13936 0.28086 0.0
C144 C 0.57562 0.16331 0.3614 0.0
N145 N 0.47368 0.15581 0.51255 0.0
C146 C 0.4506 0.17187 0.55244 0.0
C147 C 0.49417 0.13631 0.55074 0.0
C148 C 0.492 0.13203 0.63115 0.0
C149 C 0.46918 0.14859 0.67373 0.0
C150 C 0.4481 0.16879 0.63454 0.0
Zn151 Zn 0.47992 0.15427 0.39429 0.0
O152 O 0.52998 0.21479 0.27651 0.0
C153 C 0.40604 0.13062 0.29001 0.0
O154 O 0.5018 0.2198 0.38847 0.0
H155 H 0.51182 0.12296 0.51891 0.0
H156 H 0.48822 0.18902 0.15843 0.0
H157 H 0.43434 0.18695 0.52084 0.0
O158 O 0.43703 0.12915 0.25542 0.0
O159 O 0.41038 0.13927 0.36393 0.0
H160 H 0.51242 0.08026 0.15225 0.0
O161 O 0.45695 0.08901 0.41065 0.0
O162 O 0.47137 0.06586 0.30157 0.0
O163 O 0.55199 0.17035 0.41112 0.0
O164 O 0.55881 0.14808 0.29475 0.0
C165 C 0.45726 0.05827 0.37222 0.0
H166 H 0.48075 0.18756 0.01708 0.0
H167 H 0.50435 0.07632 0.00629 0.0
H168 H 0.50865 0.11645 0.66018 0.0
H169 H 0.43052 0.18218 0.66694 0.0
C170 C 0.76565 0.2693 0.34014 0.0
N171 N 0.85825 0.36183 0.17401 0.0
C172 C 0.83448 0.32202 0.13503 0.0
C173 C 0.83626 0.31955 0.05433 0.0
C174 C 0.86132 0.35858 0.01219 0.0
C175 C 0.88375 0.39991 0.0524 0.0
C176 C 0.88239 0.40069 0.13466 0.0
Zn177 Zn 0.85836 0.35469 0.29221 0.0
C178 C 0.8183 0.39396 0.36687 0.0
N179 N 0.84859 0.31483 0.52123 0.0
C180 C 0.8438 0.27903 0.56206 0.0
C181 C 0.85655 0.35316 0.55882 0.0
C182 C 0.85947 0.35672 0.63951 0.0
C183 C 0.85454 0.32074 0.68292 0.0
C184 C 0.84675 0.28131 0.64441 0.0
Zn185 Zn 0.84886 0.32117 0.40268 0.0
O186 O 0.78401 0.30073 0.28955 0.0
C187 C 0.88491 0.28241 0.29823 0.0
O188 O 0.78931 0.26654 0.39356 0.0
H189 H 0.86213 0.38211 0.52644 0.0
H190 H 0.81568 0.29138 0.16675 0.0
H191 H 0.83809 0.24916 0.531 0.0
O192 O 0.8762 0.30937 0.26543 0.0
O193 O 0.88044 0.27876 0.37305 0.0
H194 H 0.90119 0.43189 0.16693 0.0
O195 O 0.90897 0.37418 0.42396 0.0
O196 O 0.93087 0.40791 0.31258 0.0
O197 O 0.81469 0.36395 0.41501 0.0
O198 O 0.84147 0.40115 0.30684 0.0
C199 C 0.93815 0.40585 0.38603 0.0
H200 H 0.81837 0.28724 0.02488 0.0
H201 H 0.90296 0.43069 0.02079 0.0
H202 H 0.86584 0.38758 0.66799 0.0
H203 H 0.84284 0.25298 0.67746 0.0
C204 C 0.27463 0.761 0.6824 0.0
N205 N 0.36479 0.87124 0.84247 0.0
C206 C 0.3518 0.83298 0.88262 0.0
C207 C 0.34559 0.83203 0.96287 0.0
C208 C 0.35613 0.87154 1.00365 0.0
C209 C 0.37486 0.91184 0.96247 0.0
C210 C 0.37753 0.91069 0.88065 0.0
Zn211 Zn 0.35224 0.8636 0.72511 0.0
C212 C 0.39934 0.82573 0.65606 0.0
N213 N 0.31034 0.8372 0.4932 0.0
C214 C 0.27148 0.82112 0.45124 0.0
C215 C 0.35059 0.85706 0.45703 0.0
C216 C 0.35336 0.86314 0.37709 0.0
C217 C 0.3143 0.84634 0.33203 0.0
C218 C 0.27268 0.82475 0.36912 0.0
Zn219 Zn 0.31825 0.83869 0.61181 0.0
O220 O 0.29924 0.7881 0.73778 0.0
C221 C 0.2688 0.86897 0.71307 0.0
O222 O 0.27542 0.77584 0.61539 0.0
H223 H 0.38132 0.86953 0.49038 0.0
H224 H 0.34367 0.80235 0.85231 0.0
H225 H 0.23988 0.80553 0.48118 0.0
O226 O 0.30558 0.88144 0.74742 0.0
O227 O 0.26288 0.85165 0.64383 0.0
H228 H 0.38758 0.94073 0.84759 0.0
O229 O 0.36074 0.90374 0.59468 0.0
O230 O 0.40311 0.93491 0.69677 0.0
O231 O 0.37228 0.81998 0.59922 0.0
O232 O 0.39944 0.84687 0.71624 0.0
C233 C 0.39287 0.93758 0.6255 0.0
H234 H 0.3319 0.80039 0.99274 0.0
H235 H 0.3845 0.94317 0.9926 0.0
H236 H 0.38593 0.87987 0.35016 0.0
H237 H 0.24189 0.81113 0.33515 0.0
C238 C 0.1676 0.57147 0.66223 0.0
N239 N 0.15886 0.46829 0.51253 0.0
C240 C 0.14008 0.48978 0.4751 0.0
C241 C 0.13682 0.48938 0.39431 0.0
C242 C 0.15379 0.46751 0.34993 0.0
C243 C 0.17351 0.44559 0.38815 0.0
C244 C 0.17548 0.44618 0.4708 0.0
Zn245 Zn 0.15676 0.47441 0.63267 0.0
C246 C 0.23874 0.5204 0.70241 0.0
N247 N 0.13426 0.49989 0.86129 0.0
C248 C 0.10406 0.50588 0.90267 0.0
C249 C 0.16368 0.49064 0.89872 0.0
C250 C 0.16374 0.48692 0.97932 0.0
C251 C 0.1331 0.49237 0.02324 0.0
C252 C 0.10297 0.50234 0.98502 0.0
Zn253 Zn 0.13793 0.49504 0.74152 0.0
O254 O 0.1755 0.54635 0.61725 0.0
C255 C 0.06002 0.45399 0.64207 0.0
O256 O 0.14832 0.55588 0.72614 0.0
H257 H 0.18599 0.48352 0.86615 0.0
H258 H 0.12671 0.50722 0.50762 0.0
H259 H 0.08027 0.51215 0.872 0.0
O260 O 0.09277 0.454 0.61184 0.0
O261 O 0.0645 0.46837 0.71316 0.0
H262 H 0.1903 0.42933 0.50128 0.0
O263 O 0.12614 0.43329 0.7665 0.0
O264 O 0.13916 0.4042 0.66352 0.0
O265 O 0.21351 0.52518 0.7517 0.0
O266 O 0.22128 0.49468 0.64391 0.0
C267 C 0.12774 0.40115 0.73569 0.0
H268 H 0.12151 0.5066 0.36645 0.0
H269 H 0.18715 0.42856 0.35464 0.0
H270 H 0.187 0.47873 0.0072 0.0
H271 H 0.07871 0.50652 0.01815 0.0
C272 C 0.50167 0.73862 0.7007 0.0
N273 N 0.50195 0.64245 0.8559 0.0
C274 C 0.5212 0.68283 0.89407 0.0
C275 C 0.52436 0.68569 0.97487 0.0
C276 C 0.50611 0.64673 0.01824 0.0
C277 C 0.48476 0.605 0.97909 0.0
C278 C 0.48358 0.60362 0.89655 0.0
Zn279 Zn 0.50762 0.65006 0.7368 0.0
C280 C 0.42776 0.61504 0.66065 0.0
N281 N 0.53554 0.69499 0.50919 0.0
C282 C 0.56299 0.73216 0.46782 0.0
C283 C 0.50738 0.6555 0.4718 0.0
C284 C 0.50622 0.65173 0.39111 0.0
C285 C 0.53367 0.689 0.34713 0.0
C286 C 0.56241 0.72994 0.3853 0.0
Zn287 Zn 0.53015 0.68776 0.62829 0.0
O288 O 0.49058 0.70556 0.74686 0.0
C289 C 0.60595 0.72172 0.73243 0.0
O290 O 0.5228 0.74053 0.63987 0.0
H291 H 0.48593 0.62591 0.50439 0.0
H292 H 0.53567 0.71362 0.86203 0.0
H293 H 0.58512 0.76317 0.4985 0.0
O294 O 0.57118 0.69184 0.76246 0.0
O295 O 0.6038 0.73096 0.6602 0.0
H296 H 0.46839 0.57192 0.86526 0.0
O297 O 0.53973 0.63637 0.60736 0.0
O298 O 0.52446 0.59572 0.71135 0.0
O299 O 0.45443 0.64476 0.61282 0.0
O300 O 0.44342 0.6068 0.72098 0.0
C301 C 0.53722 0.60297 0.63981 0.0
H302 H 0.54072 0.71829 1.00353 0.0
H303 H 0.47001 0.57427 0.01183 0.0
H304 H 0.48374 0.61983 0.36303 0.0
H305 H 0.58393 0.75936 0.35188 0.0
C306 C 0.06723 0.33348 0.90811 0.0
C307 C 0.09383 0.31607 0.93629 0.0
C308 C 0.14326 0.35012 0.82209 0.0
C309 C 0.11266 0.362 0.78935 0.0
N310 N 0.03967 0.35439 0.79482 0.0
N311 N 0.15561 0.30407 0.9155 0.0
C312 C 0.07275 0.35003 0.83057 0.0
C313 C 0.13169 0.3236 0.89202 0.0
N314 N 0.03529 0.33261 0.95546 0.0
N315 N 0.18367 0.36506 0.78783 0.0
H316 H 0.1489 0.28651 0.96793 0.0
H317 H 0.18044 0.30378 0.88177 0.0
H318 H 0.19189 0.38253 0.73527 0.0
H319 H 0.20937 0.3618 0.81328 0.0
H320 H 0.01732 0.34847 0.94157 0.0
H321 H 0.03057 0.31992 0.01217 0.0
H322 H 0.0081 0.34221 0.81863 0.0
H323 H 0.04251 0.36591 0.73761 0.0
C324 C 0.69553 0.80691 0.87627 0.0
C325 C 0.69463 0.77704 0.93447 0.0
C326 C 0.64716 0.7143 0.84714 0.0
C327 C 0.64477 0.74334 0.78998 0.0
N328 N 0.66127 0.81811 0.75972 0.0
N329 N 0.65828 0.70312 0.98423 0.0
C330 C 0.66749 0.79002 0.80718 0.0
C331 C 0.66621 0.73103 0.92275 0.0
N332 N 0.72472 0.85155 0.88597 0.0
N333 N 0.63162 0.67036 0.82877 0.0
H334 H 0.67236 0.71539 0.03985 0.0
H335 H 0.63449 0.66921 0.98187 0.0
H336 H 0.6181 0.65653 0.7739 0.0
H337 H 0.63618 0.64888 0.86529 0.0
H338 H 0.73155 0.87482 0.84206 0.0
H339 H 0.74355 0.86468 0.93761 0.0
H340 H 0.67282 0.8515 0.77419 0.0
H341 H 0.64244 0.80744 0.70785 0.0
C342 C 0.21577 0.87636 0.90357 0.0
C343 C 0.20174 0.90624 0.87889 0.0
C344 C 0.20652 0.88673 0.74053 0.0
C345 C 0.23343 0.86895 0.76477 0.0
N346 N 0.25207 0.83413 0.86979 0.0
N347 N 0.16637 0.92464 0.77374 0.0
C348 C 0.23358 0.85907 0.84662 0.0
C349 C 0.1914 0.90627 0.79735 0.0
N350 N 0.21056 0.86328 0.97995 0.0
N351 N 0.19436 0.88533 0.66409 0.0
H352 H 0.1511 0.93561 0.81367 0.0
H353 H 0.15923 0.92663 0.71469 0.0
H354 H 0.20266 0.87005 0.61947 0.0
H355 H 0.20266 0.87005 0.61947 0.0
H356 H 0.21605 0.83819 1.00069 0.0
H357 H 0.19608 0.87416 0.02144 0.0
H358 H 0.25886 0.8303 0.92793 0.0
H359 H 0.26146 0.81769 0.82955 0.0
C360 C 0.36331 0.14759 0.18835 0.0
C361 C 0.36544 0.11628 0.23935 0.0
C362 C 0.33146 0.05961 0.1349 0.0
C363 C 0.32354 0.08841 0.08671 0.0
N364 N 0.32794 0.16007 0.07462 0.0
N365 N 0.33716 0.03944 0.2684 0.0
C366 C 0.33851 0.13271 0.11523 0.0
C367 C 0.34439 0.07124 0.21476 0.0
N368 N 0.3857 0.19168 0.20945 0.0
N369 N 0.32561 0.02037 0.10433 0.0
H370 H 0.34567 0.04784 0.32761 0.0
H371 H 0.31837 0.00535 0.25545 0.0
H372 H 0.31707 0.01148 0.04527 0.0
H373 H 0.33381 -0.00045 0.13546 0.0
H374 H 0.39014 0.21712 0.17172 0.0
H375 H 0.40106 0.20237 0.26464 0.0
H376 H 0.33338 0.19056 0.09698 0.0
H377 H 0.31208 0.15139 0.01978 0.0
C378 C 0.88013 0.2124 0.23366 0.0
C379 C 0.90131 0.25965 0.24217 0.0
C380 C 0.92895 0.26634 0.10631 0.0
C381 C 0.91428 0.22051 0.10218 0.0
N382 N 0.87679 0.14891 0.16383 0.0
N383 N 0.95517 0.33144 0.19012 0.0
C384 C 0.88983 0.19323 0.16654 0.0
C385 C 0.92864 0.28639 0.17936 0.0
N386 N 0.84973 0.1858 0.28764 0.0
N387 N 0.9436 0.29091 0.03988 0.0
H388 H 0.95706 0.34718 0.2435 0.0
H389 H 0.97839 0.35214 0.14922 0.0
H390 H 0.94281 0.27619 0.98563 0.0
H391 H 0.95188 0.32425 0.03758 0.0
H392 H 0.82961 0.15135 0.28031 0.0
H393 H 0.84297 0.19861 0.33795 0.0
H394 H 0.86392 0.1279 0.21176 0.0
H395 H 0.88069 0.1339 0.11337 0.0
C396 C 0.81721 0.69097 0.15944 0.0
C397 C 0.79079 0.69334 0.09688 0.0
C398 C 0.72418 0.64809 0.17388 0.0
C399 C 0.74922 0.64078 0.23299 0.0
N400 N 0.82079 0.65054 0.273 0.0
N401 N 0.71839 0.66266 0.03673 0.0
C402 C 0.79624 0.66091 0.22339 0.0
C403 C 0.74405 0.66753 0.10141 0.0
N404 N 0.86239 0.71852 0.1587 0.0
N405 N 0.68137 0.63784 0.18811 0.0
H406 H 0.73241 0.67684 0.98301 0.0
H407 H 0.68404 0.64062 0.03469 0.0
H408 H 0.66629 0.62589 0.2421 0.0
H409 H 0.66313 0.64602 0.1495 0.0
H410 H 0.88321 0.72253 0.20642 0.0
H411 H 0.87846 0.73885 0.11097 0.0
H412 H 0.85417 0.66044 0.26348 0.0
H413 H 0.80713 0.62982 0.32103 0.0
C414 C 0.01654 0.40814 0.52678 0.0
C415 C 0.02183 0.44086 0.58413 0.0
C416 C 0.98051 0.46288 0.49202 0.0
C417 C 0.98022 0.43329 0.43285 0.0
N418 N 0.01263 0.39062 0.38786 0.0
N419 N 0.01342 0.50461 0.61383 0.0
C420 C 0.0038 0.41081 0.44843 0.0
C421 C 0.00504 0.46984 0.56473 0.0
N422 N 0.02468 0.37476 0.54717 0.0
N423 N 0.95605 0.48328 0.47923 0.0
H424 H 0.02919 0.50943 0.66835 0.0
H425 H 0.00639 0.52962 0.59873 0.0
H426 H 0.94041 0.48055 0.42504 0.0
H427 H 0.95015 0.50108 0.52255 0.0
H428 H 0.01942 0.34891 0.50881 0.0
H429 H 0.03245 0.37084 0.60478 0.0
H430 H 0.03142 0.37487 0.39433 0.0
H431 H 0.0056 0.39508 0.33009 0.0
C432 C 0.59543 0.60784 0.5514 0.0
C433 C 0.55452 0.57918 0.58944 0.0
C434 C 0.53864 0.52264 0.48493 0.0
C435 C 0.5773 0.55377 0.44365 0.0
N436 N 0.63541 0.62977 0.42898 0.0
N437 N 0.48409 0.51058 0.58566 0.0
C438 C 0.60298 0.5977 0.47418 0.0
C439 C 0.5252 0.53672 0.55436 0.0
N440 N 0.62707 0.64563 0.58926 0.0
N441 N 0.51544 0.47943 0.4587 0.0
H442 H 0.47449 0.51938 0.63768 0.0
H443 H 0.45922 0.48152 0.55839 0.0
H444 H 0.52311 0.46945 0.4059 0.0
H445 H 0.49005 0.45377 0.49031 0.0
H446 H 0.65902 0.66596 0.56778 0.0
H447 H 0.62251 0.65412 0.64574 0.0
H448 H 0.65302 0.66353 0.44479 0.0
H449 H 0.64112 0.6229 0.37184 0.0
C450 C 0.39813 0.99522 0.44081 0.0
C451 C 0.4432 0.01704 0.41895 0.0
C452 C 0.46005 0.99101 0.54352 0.0
C453 C 0.41583 0.97586 0.56978 0.0
N454 N 0.347 0.97602 0.54837 0.0
N455 N 0.51905 0.0395 0.45452 0.0
C456 C 0.38652 0.98251 0.51995 0.0
C457 C 0.47478 0.01572 0.47175 0.0
N458 N 0.36634 0.98705 0.38524 0.0
N459 N 0.48751 0.98082 0.58526 0.0
H460 H 0.53018 0.05594 0.40123 0.0
H461 H 0.54426 0.04433 0.49417 0.0
H462 H 0.47838 0.96447 0.63883 0.0
H463 H 0.51824 0.98672 0.56463 0.0
H464 H 0.33222 0.96866 0.39623 0.0
H465 H 0.37495 0.9945 0.32643 0.0
H466 H 0.32635 0.98426 0.51652 0.0
H467 H 0.33787 0.96736 0.60669 0.0
C468 C 0.17379 0.14927 0.97798 0.0
C469 C 0.16227 0.11353 0.03105 0.0
C470 C 0.08953 0.10641 0.0502 0.0
C471 C 0.09966 0.1409 0.99536 0.0
N472 N 0.15301 0.19934 0.91402 0.0
N473 N 0.11944 0.07615 0.14466 0.0
C474 C 0.14242 0.16365 0.96108 0.0
C475 C 0.12333 0.09766 0.07578 0.0
N476 N 0.2151 0.16947 0.94505 0.0
N477 N 0.04715 0.08139 0.07719 0.0
H478 H 0.14612 0.0745 0.16999 0.0
H479 H 0.09266 0.06643 0.18234 0.0
H480 H 0.02109 0.0855 0.05682 0.0
H481 H 0.03701 0.05338 0.11202 0.0
H482 H 0.225 0.19259 0.90019 0.0
H483 H 0.24006 0.16304 0.96438 0.0
H484 H 0.18457 0.2201 0.89162 0.0
H485 H 0.1297 0.20875 0.89809 0.0
C486 C 0.84987 0.97758 0.03515 0.0
C487 C 0.86121 0.9551 0.97735 0.0
C488 C 0.92909 0.02479 0.94909 0.0
C489 C 0.92064 0.04615 0.0135 0.0
N490 N 0.87459 0.04223 0.12145 0.0
N491 N 0.89898 0.96267 0.85601 0.0
C492 C 0.88133 0.02236 0.05749 0.0
C493 C 0.89714 0.98022 0.92711 0.0
N494 N 0.80775 0.9565 0.06483 0.0
N495 N 0.96864 0.04669 0.91058 0.0
H496 H 0.87275 0.93258 0.83423 0.0
H497 H 0.9227 0.98053 0.81377 0.0
H498 H 0.99334 0.07885 0.92595 0.0
H499 H 0.97892 0.03156 0.8691 0.0
H500 H 0.79569 0.97172 0.10257 0.0
H501 H 0.78316 0.92515 0.04392 0.0
H502 H 0.84858 0.02541 0.16049 0.0
H503 H 0.89748 0.07477 0.13953 0.0
C504 C 0.98716 0.93093 1.00178 0.0
C505 C 0.96665 0.88372 0.00979 0.0
C506 C 0.03601 0.88688 0.96716 0.0
C507 C 0.0559 0.9337 0.95808 0.0
N508 N 0.04954 -0.00049 0.95222 0.0
N509 N 0.97034 0.81612 0.9981 0.0
C510 C 0.03098 0.95537 0.97062 0.0
C511 C 0.99086 0.86156 0.99163 0.0
N512 N 0.96523 0.95263 0.02526 0.0
N513 N 0.06134 0.8672 0.95483 0.0
H514 H 0.93908 0.79722 0.02343 0.0
H515 H 0.98353 0.79679 0.97754 0.0
H516 H 0.09336 0.88462 0.93155 0.0
H517 H 0.05154 0.83434 0.96859 0.0
H518 H 0.97993 0.9872 0.0287 0.0
H519 H 0.93323 0.93649 0.04794 0.0
H520 H 0.03229 0.01697 0.95266 0.0
H521 H 0.08153 0.01786 0.92931 0.0
C522 C 0.79624 0.48811 0.34253 0.0
C523 C 0.75242 0.46596 0.30943 0.0
C524 C 0.74833 0.39367 0.33012 0.0
C525 C 0.79079 0.41594 0.36856 0.0
N526 N 0.85209 0.48302 0.4224 0.0
N527 N 0.68858 0.39761 0.26148 0.0
C528 C 0.81376 0.46288 0.37795 0.0
C529 C 0.72917 0.41869 0.2993 0.0
N530 N 0.82136 0.53357 0.33791 0.0
N531 N 0.72679 0.34829 0.32245 0.0
H532 H 0.67607 0.41431 0.2292 0.0
H533 H 0.66729 0.36325 0.25894 0.0
H534 H 0.73763 0.32969 0.35317 0.0
H535 H 0.69832 0.32884 0.28836 0.0
H536 H 0.8548 0.55202 0.35514 0.0
H537 H 0.80963 0.55236 0.30917 0.0
H538 H 0.86921 0.51687 0.43729 0.0
H539 H 0.86418 0.4645 0.45092 0.0
C540 C 0.54225 0.35366 0.35076 0.0
C541 C 0.5861 0.37802 0.38337 0.0
C542 C 0.59225 0.31014 0.37342 0.0
C543 C 0.55063 0.28804 0.33217 0.0
N544 N 0.48905 0.29027 0.27138 0.0
N545 N 0.65197 0.37826 0.43305 0.0
C546 C 0.52656 0.31037 0.31797 0.0
C547 C 0.6107 0.35576 0.39787 0.0
N548 N 0.51532 0.37203 0.35304 0.0
N549 N 0.61367 0.28692 0.38993 0.0
H550 H 0.66516 0.40985 0.45826 0.0
H551 H 0.67373 0.36588 0.43807 0.0
H552 H 0.60331 0.25544 0.36564 0.0
H553 H 0.64095 0.29796 0.42801 0.0
H554 H 0.48174 0.35492 0.33627 0.0
H555 H 0.52567 0.40297 0.38003 0.0
H556 H 0.47171 0.30607 0.25298 0.0
H557 H 0.47813 0.25918 0.24449 0.0
C558 C 0.64744 0.17242 0.30939 0.0
C559 C 0.62467 0.18023 0.37125 0.0
C560 C 0.69564 0.24213 0.41928 0.0
C561 C 0.71654 0.23994 0.34813 0.0
N562 N 0.7121 0.20246 0.22567 0.0
N563 N 0.63103 0.20643 0.50393 0.0
C564 C 0.69236 0.20485 0.29324 0.0
C565 C 0.64987 0.2105 0.43208 0.0
N566 N 0.62696 0.13218 0.27046 0.0
N567 N 0.71906 0.27534 0.47365 0.0
H568 H 0.59965 0.17966 0.51699 0.0
H569 H 0.64818 0.22521 0.55348 0.0
H570 H 0.75293 0.29807 0.46978 0.0
H571 H 0.70441 0.28262 0.52028 0.0
H572 H 0.64275 0.12279 0.22892 0.0
H573 H 0.59612 0.10592 0.28781 0.0
H574 H 0.69452 0.18044 0.17952 0.0
H575 H 0.74548 0.22468 0.2133 0.0
C576 C 0.44506 0.75795 0.75095 0.0
C577 C 0.48288 0.76936 0.7054 0.0
C578 C 0.46657 0.81885 0.62516 0.0
C579 C 0.42517 0.80203 0.66313 0.0
N580 N 0.37292 0.75193 0.75828 0.0
N581 N 0.54035 0.8266 0.62725 0.0
C582 C 0.41404 0.77075 0.72526 0.0
C583 C 0.49684 0.80455 0.65023 0.0
N584 N 0.44055 0.73801 0.82183 0.0
N585 N 0.47667 0.84807 0.56489 0.0
H586 H 0.5642 0.8202 0.65234 0.0
H587 H 0.55403 0.85453 0.59158 0.0
H588 H 0.45521 0.85932 0.54629 0.0
H589 H 0.50441 0.85844 0.52947 0.0
H590 H 0.41531 0.73193 0.86114 0.0
H591 H 0.46594 0.734 0.84675 0.0
H592 H 0.36092 0.72537 0.79703 0.0
H593 H 0.349 0.75969 0.74046 0.0
C594 C 0.22695 0.64372 0.60639 0.0
C595 C 0.18838 0.6207 0.65183 0.0
C596 C 0.20811 0.6899 0.72549 0.0
C597 C 0.24954 0.71153 0.68686 0.0
N598 N 0.30103 0.70719 0.59694 0.0
N599 N 0.13276 0.6263 0.72669 0.0
C600 C 0.25963 0.68773 0.62924 0.0
C601 C 0.17614 0.64516 0.70358 0.0
N602 N 0.23067 0.62503 0.53793 0.0
N603 N 0.19967 0.71191 0.78365 0.0
H604 H 0.10799 0.59539 0.70441 0.0
H605 H 0.12027 0.643 0.75957 0.0
H606 H 0.22298 0.74433 0.80115 0.0
H607 H 0.17175 0.69691 0.81922 0.0
H608 H 0.25668 0.64161 0.49878 0.0
H609 H 0.20422 0.59573 0.51409 0.0
H610 H 0.31191 0.69022 0.56077 0.0
H611 H 0.32613 0.73908 0.61282 0.0
C612 C 0.35514 0.54481 0.66182 0.0
C613 C 0.3783 0.59188 0.65463 0.0
C614 C 0.31126 0.5938 0.6965 0.0
C615 C 0.28842 0.54656 0.70483 0.0
N616 N 0.29112 0.4786 0.71272 0.0
N617 N 0.37735 0.66093 0.65228 0.0
C618 C 0.31123 0.52256 0.69223 0.0
C619 C 0.35602 0.61635 0.66834 0.0
N620 N 0.37522 0.52145 0.6373 0.0
N621 N 0.29073 0.61722 0.71785 0.0
H622 H 0.40951 0.6781 0.63016 0.0
H623 H 0.36228 0.68041 0.65394 0.0
H624 H 0.25835 0.60225 0.73881 0.0
H625 H 0.30674 0.65185 0.72181 0.0
H626 H 0.35926 0.48674 0.63419 0.0
H627 H 0.40694 0.53717 0.61265 0.0
H628 H 0.3069 0.45969 0.71174 0.0
H629 H 0.25971 0.46219 0.73844 0.0
C630 C 0.98958 0.2191 0.55 0.0
C631 C 0.98919 0.18339 0.59089 0.0
C632 C 0.02031 0.16502 0.47834 0.0
C633 C 0.01818 0.19881 0.43556 0.0
N634 N 0.99524 0.25401 0.42442 0.0
N635 N 0.99472 0.11666 0.59091 0.0
C636 C 0.00121 0.22482 0.46958 0.0
C637 C 0.0016 0.1545 0.55387 0.0
N638 N 0.98031 0.24824 0.58877 0.0
N639 N 0.04071 0.14343 0.44678 0.0
H640 H 0.9803 0.10778 0.6462 0.0
H641 H -0.00076 0.09204 0.5642 0.0
H642 H 0.05488 0.15051 0.39118 0.0
H643 H 0.04715 0.12146 0.47807 0.0
H644 H 0.98418 0.27738 0.56433 0.0
H645 H 0.97067 0.24442 0.64733 0.0
H646 H 0.97795 0.26982 0.44299 0.0
H647 H 0.00545 0.26056 0.3662 0.0
C648 C 0.85541 0.84491 0.55442 0.0
C649 C 0.82725 0.80222 0.58626 0.0
C650 C 0.7899 0.77434 0.45896 0.0
C651 C 0.81486 0.81843 0.42991 0.0
N652 N 0.86674 0.89689 0.45082 0.0
N653 N 0.76573 0.72677 0.5731 0.0
C654 C 0.84626 0.85413 0.47804 0.0
C655 C 0.79402 0.76686 0.53963 0.0
N656 N 0.89125 0.8763 0.5973 0.0
N657 N 0.76321 0.73972 0.40896 0.0
H658 H 0.7688 0.71987 0.63161 0.0
H659 H 0.73809 0.701 0.54417 0.0
H660 H 0.75795 0.74435 0.35019 0.0
H661 H 0.74822 0.70623 0.42421 0.0
H662 H 0.91549 0.90667 0.5748 0.0
H663 H 0.89912 0.87018 0.65346 0.0
H664 H 0.88667 0.92493 0.48581 0.0
H665 H 0.86063 0.90475 0.39473 0.0
C666 C 0.22088 0.99289 0.53866 0.0
C667 C 0.20829 0.02386 0.56759 0.0
C668 C 0.17183 0.01973 0.4418 0.0
C669 C 0.18837 0.99293 0.41028 0.0
N670 N 0.23365 0.9585 0.42384 0.0
N671 N 0.184 0.07662 0.5376 0.0
C672 C 0.2145 0.98083 0.45732 0.0
C673 C 0.18721 0.0401 0.51645 0.0
N674 N 0.23757 0.97399 0.58872 0.0
N675 N 0.14155 0.02594 0.39982 0.0
H676 H 0.19771 0.09445 0.58991 0.0
H677 H 0.17249 0.09219 0.49946 0.0
H678 H 0.12921 0.01097 0.34484 0.0
H679 H 0.12546 0.04205 0.42299 0.0
H680 H 0.24643 0.95065 0.57125 0.0
H681 H 0.23942 0.97865 0.64935 0.0
H682 H 0.25645 0.95209 0.4525 0.0
H683 H 0.22859 0.94822 0.36506 0.0
C684 C 0.71024 0.55573 0.82531 0.0
C685 C 0.67811 0.53624 0.76351 0.0
C686 C 0.61826 0.49982 0.86021 0.0
C687 C 0.65026 0.51999 0.92202 0.0
N688 N 0.72515 0.57374 0.96457 0.0
N689 N 0.60095 0.49741 0.721 0.0
C690 C 0.69582 0.55007 0.90481 0.0
C691 C 0.63188 0.51061 0.78073 0.0
N692 N 0.75465 0.57844 0.808 0.0
N693 N 0.57505 0.46932 0.8775 0.0
H694 H 0.60962 0.50425 0.66216 0.0
H695 H 0.56677 0.48293 0.72989 0.0
H696 H 0.56365 0.4618 0.93494 0.0
H697 H 0.55112 0.44941 0.83541 0.0
H698 H 0.78008 0.58911 0.8501 0.0
H699 H 0.76626 0.58429 0.75055 0.0
H700 H 0.75751 0.5998 0.95573 0.0
H701 H 0.7161 0.5698 0.02347 0.0
C702 C 0.43682 0.11056 0.80037 0.0
C703 C 0.4714 0.14688 0.75982 0.0
C704 C 0.5216 0.16586 0.87322 0.0
C705 C 0.48615 0.13188 0.91597 0.0
N706 N 0.40829 0.07589 0.92594 0.0
N707 N 0.54331 0.21414 0.76055 0.0
C708 C 0.44317 0.10522 0.88118 0.0
C709 C 0.51277 0.17617 0.7974 0.0
N710 N 0.39868 0.08053 0.76102 0.0
N711 N 0.56381 0.18773 0.90502 0.0
H712 H 0.53751 0.22282 0.70491 0.0
H713 H 0.57238 0.23903 0.78768 0.0
H714 H 0.57138 0.18062 0.96063 0.0
H715 H 0.59193 0.20985 0.87388 0.0
H716 H 0.37451 0.05057 0.78495 0.0
H717 H 0.39232 0.08444 0.70247 0.0
H718 H 0.37518 0.05944 0.90633 0.0
H719 H 0.41213 0.06996 0.98469 0.0
C720 C 0.89907 0.3496 0.80718 0.0
C721 C 0.85674 0.32595 0.76893 0.0
C722 C 0.82084 0.33557 0.88411 0.0
C723 C 0.8621 0.35429 0.92583 0.0
N724 N 0.94031 0.37627 0.93004 0.0
N725 N 0.77657 0.29118 0.77251 0.0
C726 C 0.90134 0.36084 0.88814 0.0
C727 C 0.81733 0.31716 0.80812 0.0
N728 N 0.93708 0.36231 0.76544 0.0
N729 N 0.78543 0.33673 0.91667 0.0
H730 H 0.77285 0.2775 0.71622 0.0
H731 H 0.7464 0.27993 0.80115 0.0
H732 H 0.7875 0.3514 0.97152 0.0
H733 H 0.75566 0.3274 0.88644 0.0
H734 H 0.96894 0.38507 0.78667 0.0
H735 H 0.9366 0.35223 0.70733 0.0
H736 H 0.96869 0.37733 0.90759 0.0
H737 H 0.94374 0.38569 0.98907 0.0
C738 C 0.34214 0.83009 0.21015 0.0
C739 C 0.31909 0.8496 0.24589 0.0
C740 C 0.31867 0.88401 0.12123 0.0
C741 C 0.34697 0.8691 0.0891 0.0
N742 N 0.39671 0.84024 0.11359 0.0
N743 N 0.29248 0.90211 0.23999 0.0
C744 C 0.36212 0.84588 0.13692 0.0
C745 C 0.30933 0.87868 0.20285 0.0
N746 N 0.34488 0.79636 0.24624 0.0
N747 N 0.29926 0.90151 0.07414 0.0
H748 H 0.28504 0.89895 0.29959 0.0
H749 H 0.28906 0.92718 0.21304 0.0
H750 H 0.30311 0.90413 0.01356 0.0
H751 H 0.27578 0.90958 0.09419 0.0
H752 H 0.35841 0.77873 0.21923 0.0
H753 H 0.32932 0.78298 0.29941 0.0
H754 H 0.41117 0.82659 0.1497 0.0
H755 H 0.41416 0.85392 0.06205 0.0
C756 C 0.1688 0.52171 0.15386 0.0
C757 C 0.13396 0.48671 0.10914 0.0
C758 C 0.11507 0.43613 0.22064 0.0
C759 C 0.15162 0.47053 0.26354 0.0
N760 N 0.21799 0.543 0.26809 0.0
N761 N 0.07616 0.40967 0.09528 0.0
C762 C 0.17996 0.51244 0.22902 0.0
C763 C 0.10753 0.44363 0.14138 0.0
N764 N 0.19063 0.56399 0.12454 0.0
N765 N 0.08708 0.39677 0.25651 0.0
H766 H 0.06817 0.4146 0.03843 0.0
H767 H 0.05938 0.37639 0.11193 0.0
H768 H 0.09361 0.38916 0.31244 0.0
H769 H 0.05665 0.37235 0.23262 0.0
H770 H 0.21356 0.592 0.15681 0.0
H771 H 0.1828 0.57175 0.0697 0.0
H772 H 0.24234 0.57264 0.24362 0.0
H773 H 0.22724 0.53676 0.32298 0.0
C774 C 0.49338 0.68295 0.22185 0.0
C775 C 0.52992 0.68326 0.26095 0.0
C776 C 0.54404 0.6497 0.14541 0.0
C777 C 0.50926 0.65187 0.10469 0.0
N778 N 0.451 0.67077 0.10078 0.0
N779 N 0.59284 0.67147 0.26054 0.0
C780 C 0.4838 0.66837 0.14226 0.0
C781 C 0.55606 0.66787 0.22282 0.0
N782 N 0.46716 0.69542 0.26202 0.0
N783 N 0.56502 0.62965 0.11031 0.0
H784 H 0.60229 0.68437 0.31752 0.0
H785 H 0.61596 0.66496 0.23394 0.0
H786 H 0.55817 0.61737 0.05272 0.0
H787 H 0.58645 0.62166 0.13992 0.0
H788 H 0.43689 0.69099 0.24087 0.0
H789 H 0.47494 0.70897 0.31881 0.0
H790 H 0.43488 0.68752 0.12042 0.0
H791 H 0.44061 0.6569 0.04456 0.0
loop_
_geom_bond_atom_site_label_1
_geom_bond_atom_site_label_2
_geom_bond_distance
_geom_bond_site_symmetry_2
_ccdc_geom_bond_type
C0 O16 1.251 . S
C0 O18 1.254 1_554 S
N1 C2 1.333 . S
N1 C6 1.307 . S
N1 Zn7 2.020 . S
C2 N1 1.333 . S
C2 C3 1.379 . S
C2 H20 0.952 1_455 S
C3 C2 1.379 . S
C3 C4 1.390 . S
C3 H30 0.949 1_455 S
C4 C3 1.390 . S
C4 C5 1.357 . S
C5 C4 1.357 . S
C5 C6 1.370 . S
C5 H31 0.950 . S
C6 N1 1.307 . S
C6 C5 1.370 . S
C6 H24 0.948 . S
Zn7 N1 2.020 . S
Zn7 O16 2.039 1_455 S
Zn7 O22 2.034 1_455 S
Zn7 O26 2.025 . S
Zn7 O28 2.024 . S
C8 O27 1.246 . S
C8 O28 1.249 1_556 S
N9 C10 1.307 . S
N9 C11 1.333 1_655 S
N9 Zn15 2.020 . S
C10 N9 1.307 . S
C10 C14 1.370 . S
C10 H21 0.948 . S
C11 N9 1.333 1_455 S
C11 C12 1.379 . S
C11 H19 0.952 . S
C12 C11 1.379 . S
C12 C13 1.390 1_455 S
C12 H32 0.949 . S
C13 C12 1.390 1_655 S
C13 C14 1.357 . S
C14 C10 1.370 . S
C14 C13 1.357 . S
C14 H33 0.950 . S
Zn15 N9 2.020 . S
Zn15 O18 2.025 . S
Zn15 O23 2.024 . S
Zn15 O25 2.039 1_655 S
Zn15 O27 2.034 1_655 S
O16 C0 1.251 . S
O16 Zn7 2.039 1_655 S
C17 O22 1.246 . S
C17 O23 1.249 1_554 S
O18 C0 1.254 1_556 S
O18 Zn15 2.025 . S
H19 C11 0.952 . S
H20 C2 0.952 1_655 S
H21 C10 0.948 . S
O22 Zn7 2.034 1_655 S
O22 C17 1.246 . S
O23 Zn15 2.024 . S
O23 C17 1.249 1_556 S
H24 C6 0.948 . S
O25 Zn15 2.039 1_455 S
O25 C29 1.251 . S
O26 Zn7 2.025 . S
O26 C29 1.254 1_554 S
O27 C8 1.246 . S
O27 Zn15 2.034 1_455 S
O28 Zn7 2.024 . S
O28 C8 1.249 1_554 S
C29 O25 1.251 . S
C29 O26 1.254 1_556 S
H30 C3 0.949 1_655 S
H31 C5 0.950 . S
H32 C12 0.949 . S
H33 C14 0.950 . S
C34 O50 1.251 . S
C34 O52 1.254 1_556 S
N35 C36 1.333 . S
N35 C40 1.307 . S
N35 Zn41 2.020 . S
C36 N35 1.333 . S
C36 C37 1.379 . S
C36 H54 0.952 . S
C37 C36 1.379 . S
C37 C38 1.390 . S
C37 H64 0.949 . S
C38 C37 1.390 . S
C38 C39 1.357 . S
C39 C38 1.357 . S
C39 C40 1.370 . S
C39 H65 0.950 . S
C40 N35 1.307 . S
C40 C39 1.370 . S
C40 H58 0.948 . S
Zn41 N35 2.020 . S
Zn41 O50 2.039 . S
Zn41 O56 2.034 . S
Zn41 O60 2.025 . S
Zn41 O62 2.024 . S
C42 O61 1.246 . S
C42 O62 1.249 1_554 S
N43 C44 1.307 . S
N43 C45 1.333 . S
N43 Zn49 2.020 . S
C44 N43 1.307 . S
C44 C48 1.370 . S
C44 H55 0.948 . S
C45 N43 1.333 . S
C45 C46 1.379 . S
C45 H53 0.952 . S
C46 C45 1.379 . S
C46 C47 1.390 . S
C46 H66 0.949 . S
C47 C46 1.390 . S
C47 C48 1.357 . S
C48 C44 1.370 . S
C48 C47 1.357 . S
C48 H67 0.950 . S
Zn49 N43 2.020 . S
Zn49 O52 2.025 . S
Zn49 O57 2.024 . S
Zn49 O59 2.039 . S
Zn49 O61 2.034 . S
O50 C34 1.251 . S
O50 Zn41 2.039 . S
C51 O56 1.246 . S
C51 O57 1.249 1_556 S
O52 C34 1.254 1_554 S
O52 Zn49 2.025 . S
H53 C45 0.952 . S
H54 C36 0.952 . S
H55 C44 0.948 . S
O56 Zn41 2.034 . S
O56 C51 1.246 . S
O57 Zn49 2.024 . S
O57 C51 1.249 1_554 S
H58 C40 0.948 . S
O59 Zn49 2.039 . S
O59 C63 1.251 . S
O60 Zn41 2.025 . S
O60 C63 1.254 1_556 S
O61 C42 1.246 . S
O61 Zn49 2.034 . S
O62 Zn41 2.024 . S
O62 C42 1.249 1_556 S
C63 O59 1.251 . S
C63 O60 1.254 1_554 S
H64 C37 0.949 . S
H65 C39 0.950 . S
H66 C46 0.949 . S
H67 C48 0.950 . S
C68 O84 1.251 . S
C68 O86 1.254 1_554 S
N69 C70 1.333 1_565 S
N69 C74 1.307 . S
N69 Zn75 2.020 . S
C70 N69 1.333 1_545 S
C70 C71 1.379 . S
C70 H88 0.952 . S
C71 C70 1.379 . S
C71 C72 1.390 1_545 S
C71 H98 0.949 . S
C72 C71 1.390 1_565 S
C72 C73 1.357 . S
C73 C72 1.357 . S
C73 C74 1.370 . S
C73 H99 0.950 . S
C74 N69 1.307 . S
C74 C73 1.370 . S
C74 H92 0.948 . S
Zn75 N69 2.020 . S
Zn75 O84 2.039 1_565 S
Zn75 O90 2.034 1_565 S
Zn75 O94 2.025 . S
Zn75 O96 2.024 . S
C76 O95 1.246 . S
C76 O96 1.249 1_556 S
N77 C78 1.307 . S
N77 C79 1.333 1_545 S
N77 Zn83 2.020 . S
C78 N77 1.307 . S
C78 C82 1.370 . S
C78 H89 0.948 . S
C79 N77 1.333 1_565 S
C79 C80 1.379 1_565 S
C79 H87 0.952 . S
C80 C79 1.379 1_545 S
C80 C81 1.390 . S
C80 H100 0.949 1_545 S
C81 C80 1.390 . S
C81 C82 1.357 . S
C82 C78 1.370 . S
C82 C81 1.357 . S
C82 H101 0.950 . S
Zn83 N77 2.020 . S
Zn83 O86 2.025 . S
Zn83 O91 2.024 . S
Zn83 O93 2.039 1_545 S
Zn83 O95 2.034 1_545 S
O84 C68 1.251 . S
O84 Zn75 2.039 1_545 S
C85 O90 1.246 . S
C85 O91 1.249 1_554 S
O86 C68 1.254 1_556 S
O86 Zn83 2.025 . S
H87 C79 0.952 . S
H88 C70 0.952 . S
H89 C78 0.948 . S
O90 Zn75 2.034 1_545 S
O90 C85 1.246 . S
O91 Zn83 2.024 . S
O91 C85 1.249 1_556 S
H92 C74 0.948 . S
O93 Zn83 2.039 1_565 S
O93 C97 1.251 . S
O94 Zn75 2.025 . S
O94 C97 1.254 1_554 S
O95 C76 1.246 . S
O95 Zn83 2.034 1_565 S
O96 Zn75 2.024 . S
O96 C76 1.249 1_554 S
C97 O93 1.251 . S
C97 O94 1.254 1_556 S
H98 C71 0.949 . S
H99 C73 0.950 . S
H100 C80 0.949 1_565 S
H101 C82 0.950 . S
C102 O118 1.251 . S
C102 O120 1.254 . S
N103 C104 1.333 . S
N103 C108 1.307 . S
N103 Zn109 2.020 . S
C104 N103 1.333 . S
C104 C105 1.379 . S
C104 H122 0.952 . S
C105 C104 1.379 . S
C105 C106 1.390 1_554 S
C105 H132 0.949 1_554 S
C106 C105 1.390 1_556 S
C106 C107 1.357 1_556 S
C107 C106 1.357 1_554 S
C107 C108 1.370 . S
C107 H133 0.950 . S
C108 N103 1.307 . S
C108 C107 1.370 . S
C108 H126 0.948 . S
Zn109 N103 2.020 . S
Zn109 O118 2.039 . S
Zn109 O124 2.034 . S
Zn109 O128 2.025 . S
Zn109 O130 2.024 . S
C110 O129 1.246 . S
C110 O130 1.249 . S
N111 C112 1.307 . S
N111 C113 1.333 . S
N111 Zn117 2.020 . S
C112 N111 1.307 . S
C112 C116 1.370 . S
C112 H123 0.948 . S
C113 N111 1.333 . S
C113 C114 1.379 . S
C113 H121 0.952 . S
C114 C113 1.379 . S
C114 C115 1.390 . S
C114 H134 0.949 . S
C115 C114 1.390 . S
C115 C116 1.357 . S
C116 C112 1.370 . S
C116 C115 1.357 . S
C116 H135 0.950 . S
Zn117 N111 2.020 . S
Zn117 O120 2.025 . S
Zn117 O125 2.024 . S
Zn117 O127 2.039 . S
Zn117 O129 2.034 . S
O118 C102 1.251 . S
O118 Zn109 2.039 . S
C119 O124 1.246 . S
C119 O125 1.249 . S
O120 C102 1.254 . S
O120 Zn117 2.025 . S
H121 C113 0.952 . S
H122 C104 0.952 . S
H123 C112 0.948 . S
O124 Zn109 2.034 . S
O124 C119 1.246 . S
O125 Zn117 2.024 . S
O125 C119 1.249 . S
H126 C108 0.948 . S
O127 Zn117 2.039 . S
O127 C131 1.251 . S
O128 Zn109 2.025 . S
O128 C131 1.254 . S
O129 C110 1.246 . S
O129 Zn117 2.034 . S
O130 Zn109 2.024 . S
O130 C110 1.249 . S
C131 O127 1.251 . S
C131 O128 1.254 . S
H132 C105 0.949 1_556 S
H133 C107 0.950 . S
H134 C114 0.949 . S
H135 C116 0.950 . S
C136 O152 1.251 . S
C136 O154 1.254 . S
N137 C138 1.333 . S
N137 C142 1.307 . S
N137 Zn143 2.020 . S
C138 N137 1.333 . S
C138 C139 1.379 . S
C138 H156 0.952 . S
C139 C138 1.379 . S
C139 C140 1.390 1_554 S
C139 H166 0.949 1_554 S
C140 C139 1.390 1_556 S
C140 C141 1.357 1_556 S
C141 C140 1.357 1_554 S
C141 C142 1.370 . S
C141 H167 0.950 . S
C142 N137 1.307 . S
C142 C141 1.370 . S
C142 H160 0.948 . S
Zn143 N137 2.020 . S
Zn143 O152 2.039 . S
Zn143 O158 2.034 . S
Zn143 O162 2.025 . S
Zn143 O164 2.024 . S
C144 O163 1.246 . S
C144 O164 1.249 . S
N145 C146 1.307 . S
N145 C147 1.333 . S
N145 Zn151 2.020 . S
C146 N145 1.307 . S
C146 C150 1.370 . S
C146 H157 0.948 . S
C147 N145 1.333 . S
C147 C148 1.379 . S
C147 H155 0.952 . S
C148 C147 1.379 . S
C148 C149 1.390 . S
C148 H168 0.949 . S
C149 C148 1.390 . S
C149 C150 1.357 . S
C150 C146 1.370 . S
C150 C149 1.357 . S
C150 H169 0.950 . S
Zn151 N145 2.020 . S
Zn151 O154 2.025 . S
Zn151 O159 2.024 . S
Zn151 O161 2.039 . S
Zn151 O163 2.034 . S
O152 C136 1.251 . S
O152 Zn143 2.039 . S
C153 O158 1.246 . S
C153 O159 1.249 . S
O154 C136 1.254 . S
O154 Zn151 2.025 . S
H155 C147 0.952 . S
H156 C138 0.952 . S
H157 C146 0.948 . S
O158 Zn143 2.034 . S
O158 C153 1.246 . S
O159 Zn151 2.024 . S
O159 C153 1.249 . S
H160 C142 0.948 . S
O161 Zn151 2.039 . S
O161 C165 1.251 . S
O162 Zn143 2.025 . S
O162 C165 1.254 . S
O163 C144 1.246 . S
O163 Zn151 2.034 . S
O164 Zn143 2.024 . S
O164 C144 1.249 . S
C165 O161 1.251 . S
C165 O162 1.254 . S
H166 C139 0.949 1_556 S
H167 C141 0.950 . S
H168 C148 0.949 . S
H169 C150 0.950 . S
C170 O186 1.251 . S
C170 O188 1.254 . S
N171 C172 1.333 . S
N171 C176 1.307 . S
N171 Zn177 2.020 . S
C172 N171 1.333 . S
C172 C173 1.379 . S
C172 H190 0.952 . S
C173 C172 1.379 . S
C173 C174 1.390 1_554 S
C173 H200 0.949 1_554 S
C174 C173 1.390 1_556 S
C174 C175 1.357 1_556 S
C175 C174 1.357 1_554 S
C175 C176 1.370 . S
C175 H201 0.950 . S
C176 N171 1.307 . S
C176 C175 1.370 . S
C176 H194 0.948 . S
Zn177 N171 2.020 . S
Zn177 O186 2.039 . S
Zn177 O192 2.034 . S
Zn177 O196 2.025 . S
Zn177 O198 2.024 . S
C178 O197 1.246 . S
C178 O198 1.249 . S
N179 C180 1.307 . S
N179 C181 1.333 . S
N179 Zn185 2.020 . S
C180 N179 1.307 . S
C180 C184 1.370 . S
C180 H191 0.948 . S
C181 N179 1.333 . S
C181 C182 1.379 . S
C181 H189 0.952 . S
C182 C181 1.379 . S
C182 C183 1.390 . S
C182 H202 0.949 . S
C183 C182 1.390 . S
C183 C184 1.357 . S
C184 C180 1.370 . S
C184 C183 1.357 . S
C184 H203 0.950 . S
Zn185 N179 2.020 . S
Zn185 O188 2.025 . S
Zn185 O193 2.024 . S
Zn185 O195 2.039 . S
Zn185 O197 2.034 . S
O186 C170 1.251 . S
O186 Zn177 2.039 . S
C187 O192 1.246 . S
C187 O193 1.249 . S
O188 C170 1.254 . S
O188 Zn185 2.025 . S
H189 C181 0.952 . S
H190 C172 0.952 . S
H191 C180 0.948 . S
O192 Zn177 2.034 . S
O192 C187 1.246 . S
O193 Zn185 2.024 . S
O193 C187 1.249 . S
H194 C176 0.948 . S
O195 Zn185 2.039 . S
O195 C199 1.251 . S
O196 Zn177 2.025 . S
O196 C199 1.254 . S
O197 C178 1.246 . S
O197 Zn185 2.034 . S
O198 Zn177 2.024 . S
O198 C178 1.249 . S
C199 O195 1.251 . S
C199 O196 1.254 . S
H200 C173 0.949 1_556 S
H201 C175 0.950 . S
H202 C182 0.949 . S
H203 C184 0.950 . S
C204 O220 1.251 . S
C204 O222 1.254 . S
N205 C206 1.333 . S
N205 C210 1.307 . S
N205 Zn211 2.020 . S
C206 N205 1.333 . S
C206 C207 1.379 . S
C206 H224 0.952 . S
C207 C206 1.379 . S
C207 C208 1.390 1_556 S
C207 H234 0.949 1_556 S
C208 C207 1.390 1_554 S
C208 C209 1.357 1_554 S
C209 C208 1.357 1_556 S
C209 C210 1.370 . S
C209 H235 0.950 . S
C210 N205 1.307 . S
C210 C209 1.370 . S
C210 H228 0.948 . S
Zn211 N205 2.020 . S
Zn211 O220 2.039 . S
Zn211 O226 2.034 . S
Zn211 O230 2.025 . S
Zn211 O232 2.024 . S
C212 O231 1.246 . S
C212 O232 1.249 . S
N213 C214 1.307 . S
N213 C215 1.333 . S
N213 Zn219 2.020 . S
C214 N213 1.307 . S
C214 C218 1.370 . S
C214 H225 0.948 . S
C215 N213 1.333 . S
C215 C216 1.379 . S
C215 H223 0.952 . S
C216 C215 1.379 . S
C216 C217 1.390 . S
C216 H236 0.949 . S
C217 C216 1.390 . S
C217 C218 1.357 . S
C218 C214 1.370 . S
C218 C217 1.357 . S
C218 H237 0.950 . S
Zn219 N213 2.020 . S
Zn219 O222 2.025 . S
Zn219 O227 2.024 . S
Zn219 O229 2.039 . S
Zn219 O231 2.034 . S
O220 C204 1.251 . S
O220 Zn211 2.039 . S
C221 O226 1.246 . S
C221 O227 1.249 . S
O222 C204 1.254 . S
O222 Zn219 2.025 . S
H223 C215 0.952 . S
H224 C206 0.952 . S
H225 C214 0.948 . S
O226 Zn211 2.034 . S
O226 C221 1.246 . S
O227 Zn219 2.024 . S
O227 C221 1.249 . S
H228 C210 0.948 . S
O229 Zn219 2.039 . S
O229 C233 1.251 . S
O230 Zn211 2.025 . S
O230 C233 1.254 . S
O231 C212 1.246 . S
O231 Zn219 2.034 . S
O232 Zn211 2.024 . S
O232 C212 1.249 . S
C233 O229 1.251 . S
C233 O230 1.254 . S
H234 C207 0.949 1_554 S
H235 C209 0.950 . S
H236 C216 0.949 . S
H237 C218 0.950 . S
C238 O254 1.251 . S
C238 O256 1.254 . S
N239 C240 1.333 . S
N239 C244 1.307 . S
N239 Zn245 2.020 . S
C240 N239 1.333 . S
C240 C241 1.379 . S
C240 H258 0.952 . S
C241 C240 1.379 . S
C241 C242 1.390 . S
C241 H268 0.949 . S
C242 C241 1.390 . S
C242 C243 1.357 . S
C243 C242 1.357 . S
C243 C244 1.370 . S
C243 H269 0.950 . S
C244 N239 1.307 . S
C244 C243 1.370 . S
C244 H262 0.948 . S
Zn245 N239 2.020 . S
Zn245 O254 2.039 . S
Zn245 O260 2.034 . S
Zn245 O264 2.025 . S
Zn245 O266 2.024 . S
C246 O265 1.246 . S
C246 O266 1.249 . S
N247 C248 1.307 . S
N247 C249 1.333 . S
N247 Zn253 2.020 . S
C248 N247 1.307 . S
C248 C252 1.370 . S
C248 H259 0.948 . S
C249 N247 1.333 . S
C249 C250 1.388 . S
C249 H257 0.952 . S
C250 C249 1.388 . S
C250 C251 1.387 1_556 S
C250 H270 0.944 1_556 S
C251 C250 1.387 1_554 S
C251 C252 1.357 1_554 S
C252 C248 1.370 . S
C252 C251 1.357 1_556 S
C252 H271 0.950 1_556 S
Zn253 N247 2.020 . S
Zn253 O256 2.025 . S
Zn253 O261 2.024 . S
Zn253 O263 2.039 . S
Zn253 O265 2.034 . S
O254 C238 1.251 . S
O254 Zn245 2.039 . S
C255 O260 1.246 . S
C255 O261 1.249 . S
O256 C238 1.254 . S
O256 Zn253 2.025 . S
H257 C249 0.952 . S
H258 C240 0.952 . S
H259 C248 0.948 . S
O260 Zn245 2.034 . S
O260 C255 1.246 . S
O261 Zn253 2.024 . S
O261 C255 1.249 . S
H262 C244 0.948 . S
O263 Zn253 2.039 . S
O263 C267 1.251 . S
O264 Zn245 2.025 . S
O264 C267 1.254 . S
O265 C246 1.246 . S
O265 Zn253 2.034 . S
O266 Zn245 2.024 . S
O266 C246 1.249 . S
C267 O263 1.251 . S
C267 O264 1.254 . S
H268 C241 0.949 . S
H269 C243 0.950 . S
H270 C250 0.944 1_554 S
H271 C252 0.950 1_554 S
C272 O288 1.251 . S
C272 O290 1.254 . S
N273 C274 1.333 . S
N273 C278 1.307 . S
N273 Zn279 2.020 . S
C274 N273 1.333 . S
C274 C275 1.381 . S
C274 H292 0.952 . S
C275 C274 1.381 . S
C275 C276 1.389 1_556 S
C275 H302 0.948 1_556 S
C276 C275 1.389 1_554 S
C276 C277 1.357 1_554 S
C277 C276 1.357 1_556 S
C277 C278 1.370 . S
C277 H303 0.950 . S
C278 N273 1.307 . S
C278 C277 1.370 . S
C278 H296 0.948 . S
Zn279 N273 2.020 . S
Zn279 O288 2.039 . S
Zn279 O294 2.034 . S
Zn279 O298 2.025 . S
Zn279 O300 2.024 . S
C280 O299 1.246 . S
C280 O300 1.249 . S
N281 C282 1.307 . S
N281 C283 1.333 . S
N281 Zn287 2.020 . S
C282 N281 1.307 . S
C282 C286 1.370 . S
C282 H293 0.948 . S
C283 N281 1.333 . S
C283 C284 1.379 . S
C283 H291 0.952 . S
C284 C283 1.379 . S
C284 C285 1.390 . S
C284 H304 0.949 . S
C285 C284 1.390 . S
C285 C286 1.357 . S
C286 C282 1.370 . S
C286 C285 1.357 . S
C286 H305 0.950 . S
Zn287 N281 2.020 . S
Zn287 O290 2.025 . S
Zn287 O295 2.024 . S
Zn287 O297 2.039 . S
Zn287 O299 2.034 . S
O288 C272 1.251 . S
O288 Zn279 2.039 . S
C289 O294 1.246 . S
C289 O295 1.249 . S
O290 C272 1.254 . S
O290 Zn287 2.025 . S
H291 C283 0.952 . S
H292 C274 0.952 . S
H293 C282 0.948 . S
O294 Zn279 2.034 . S
O294 C289 1.246 . S
O295 Zn287 2.024 . S
O295 C289 1.249 . S
H296 C278 0.948 . S
O297 Zn287 2.039 . S
O297 C301 1.251 . S
O298 Zn279 2.025 . S
O298 C301 1.254 . S
O299 C280 1.246 . S
O299 Zn287 2.034 . S
O300 Zn279 2.024 . S
O300 C280 1.249 . S
C301 O297 1.251 . S
C301 O298 1.254 . S
H302 C275 0.948 1_554 S
H303 C277 0.950 . S
H304 C284 0.949 . S
H305 C286 0.950 . S
C306 C307 1.363 . S
C306 C312 1.379 . S
C306 N314 1.356 . S
C307 C306 1.363 . S
C307 C313 1.363 . S
C308 C309 1.363 . S
C308 C313 1.379 . S
C308 N315 1.356 . S
C309 C308 1.363 . S
C309 C312 1.363 . S
N310 C312 1.356 . S
N310 H322 0.984 . S
N310 H323 0.985 . S
N311 C313 1.356 . S
N311 H316 0.984 . S
N311 H317 0.985 . S
C312 C306 1.379 . S
C312 C309 1.363 . S
C312 N310 1.356 . S
C313 C307 1.363 . S
C313 C308 1.379 . S
C313 N311 1.356 . S
N314 C306 1.356 . S
N314 H320 0.984 . S
N314 H321 0.984 1_556 S
N315 C308 1.356 . S
N315 H318 0.984 . S
N315 H319 0.985 . S
H316 N311 0.984 . S
H317 N311 0.985 . S
H318 N315 0.984 . S
H319 N315 0.985 . S
H320 N314 0.984 . S
H321 N314 0.984 1_554 S
H322 N310 0.984 . S
H323 N310 0.985 . S
C324 C325 1.363 . S
C324 C330 1.379 . S
C324 N332 1.356 . S
C325 C324 1.363 . S
C325 C331 1.363 . S
C326 C327 1.363 . S
C326 C331 1.379 . S
C326 N333 1.356 . S
C327 C326 1.363 . S
C327 C330 1.363 . S
N328 C330 1.356 . S
N328 H340 0.984 . S
N328 H341 0.985 . S
N329 C331 1.356 . S
N329 H334 0.984 . S
N329 H335 0.985 . S
C330 C324 1.379 . S
C330 C327 1.363 . S
C330 N328 1.356 . S
C331 C325 1.363 . S
C331 C326 1.379 . S
C331 N329 1.356 . S
N332 C324 1.356 . S
N332 H338 0.984 . S
N332 H339 0.984 . S
N333 C326 1.356 . S
N333 H336 0.984 . S
N333 H337 0.985 . S
H334 N329 0.984 . S
H335 N329 0.985 . S
H336 N333 0.984 . S
H337 N333 0.985 . S
H338 N332 0.984 . S
H339 N332 0.984 . S
H340 N328 0.984 . S
H341 N328 0.985 . S
C342 C343 1.363 . S
C342 C348 1.379 . S
C342 N350 1.356 . S
C343 C342 1.363 . S
C343 C349 1.363 . S
C344 C345 1.363 . S
C344 C349 1.379 . S
C344 N351 1.356 . S
C345 C344 1.363 . S
C345 C348 1.363 . S
N346 C348 1.356 . S
N346 H358 0.984 . S
N346 H359 0.985 . S
N347 C349 1.356 . S
N347 H352 0.984 . S
N347 H353 0.985 . S
C348 C342 1.379 . S
C348 C345 1.363 . S
C348 N346 1.356 . S
C349 C343 1.363 . S
C349 C344 1.379 . S
C349 N347 1.356 . S
N350 C342 1.356 . S
N350 H356 0.982 1_556 S
N350 H357 0.984 1_556 S
N351 C344 1.356 . S
N351 H354 0.984 . S
N351 H355 0.985 . S
H352 N347 0.984 . S
H353 N347 0.985 . S
H354 N351 0.984 . S
H355 N351 0.985 . S
H356 N350 0.982 1_554 S
H357 N350 0.984 1_554 S
H358 N346 0.984 . S
H359 N346 0.985 . S
C360 C361 1.363 . S
C360 C366 1.379 . S
C360 N368 1.356 . S
C361 C360 1.363 . S
C361 C367 1.363 . S
C362 C363 1.363 . S
C362 C367 1.379 . S
C362 N369 1.356 . S
C363 C362 1.363 . S
C363 C366 1.363 . S
N364 C366 1.356 . S
N364 H376 0.984 . S
N364 H377 0.985 . S
N365 C367 1.356 . S
N365 H370 0.984 . S
N365 H371 0.985 . S
C366 C360 1.379 . S
C366 C363 1.363 . S
C366 N364 1.356 . S
C367 C361 1.363 . S
C367 C362 1.379 . S
C367 N365 1.356 . S
N368 C360 1.356 . S
N368 H374 0.984 . S
N368 H375 0.984 . S
N369 C362 1.356 . S
N369 H372 0.984 . S
N369 H373 0.985 1_545 S
H370 N365 0.984 . S
H371 N365 0.985 . S
H372 N369 0.984 . S
H373 N369 0.985 1_565 S
H374 N368 0.984 . S
H375 N368 0.984 . S
H376 N364 0.984 . S
H377 N364 0.985 . S
C378 C379 1.363 . S
C378 C384 1.379 . S
C378 N386 1.356 . S
C379 C378 1.363 . S
C379 C385 1.363 . S
C380 C381 1.363 . S
C380 C385 1.379 . S
C380 N387 1.356 . S
C381 C380 1.363 . S
C381 C384 1.363 . S
N382 C384 1.356 . S
N382 H394 0.984 . S
N382 H395 0.985 . S
N383 C385 1.356 . S
N383 H388 0.984 . S
N383 H389 0.985 . S
C384 C378 1.379 . S
C384 C381 1.363 . S
C384 N382 1.356 . S
C385 C379 1.363 . S
C385 C380 1.379 . S
C385 N383 1.356 . S
N386 C378 1.356 . S
N386 H392 0.984 . S
N386 H393 0.984 . S
N387 C380 1.356 . S
N387 H390 0.984 1_554 S
N387 H391 0.985 . S
H388 N383 0.984 . S
H389 N383 0.985 . S
H390 N387 0.984 1_556 S
H391 N387 0.985 . S
H392 N386 0.984 . S
H393 N386 0.984 . S
H394 N382 0.984 . S
H395 N382 0.985 . S
C396 C397 1.363 . S
C396 C402 1.379 . S
C396 N404 1.356 . S
C397 C396 1.363 . S
C397 C403 1.363 . S
C398 C399 1.363 . S
C398 C403 1.379 . S
C398 N405 1.356 . S
C399 C398 1.363 . S
C399 C402 1.363 . S
N400 C402 1.356 . S
N400 H412 0.984 . S
N400 H413 0.985 . S
N401 C403 1.356 . S
N401 H406 0.984 1_554 S
N401 H407 0.985 . S
C402 C396 1.379 . S
C402 C399 1.363 . S
C402 N400 1.356 . S
C403 C397 1.363 . S
C403 C398 1.379 . S
C403 N401 1.356 . S
N404 C396 1.356 . S
N404 H410 0.984 . S
N404 H411 0.984 . S
N405 C398 1.356 . S
N405 H408 0.984 . S
N405 H409 0.985 . S
H406 N401 0.984 1_556 S
H407 N401 0.985 . S
H408 N405 0.984 . S
H409 N405 0.985 . S
H410 N404 0.984 . S
H411 N404 0.984 . S
H412 N400 0.984 . S
H413 N400 0.985 . S
C414 C415 1.363 . S
C414 C420 1.379 . S
C414 N422 1.356 . S
C415 C414 1.363 . S
C415 C421 1.363 1_455 S
C416 C417 1.363 . S
C416 C421 1.379 . S
C416 N423 1.356 . S
C417 C416 1.363 . S
C417 C420 1.363 1_655 S
N418 C420 1.356 . S
N418 H430 0.984 . S
N418 H431 0.985 1_455 S
N419 C421 1.351 . S
N419 H424 0.969 1_655 S
N419 H425 1.005 . S
C420 C414 1.379 . S
C420 C417 1.363 1_455 S
C420 N418 1.356 . S
C421 C415 1.363 1_655 S
C421 C416 1.379 . S
C421 N419 1.351 . S
N422 C414 1.356 . S
N422 H428 0.984 . S
N422 H429 0.984 . S
N423 C416 1.356 . S
N423 H426 0.984 . S
N423 H427 0.985 . S
H424 N419 0.969 1_455 S
H425 N419 1.005 . S
H426 N423 0.984 . S
H427 N423 0.985 . S
H428 N422 0.984 . S
H429 N422 0.984 . S
H430 N418 0.984 . S
H431 N418 0.985 1_655 S
C432 C433 1.363 . S
C432 C438 1.379 . S
C432 N440 1.356 . S
C433 C432 1.363 . S
C433 C439 1.363 . S
C434 C435 1.363 . S
C434 C439 1.379 . S
C434 N441 1.356 . S
C435 C434 1.363 . S
C435 C438 1.363 . S
N436 C438 1.356 . S
N436 H448 0.984 . S
N436 H449 0.985 . S
N437 C439 1.356 . S
N437 H442 0.984 . S
N437 H443 0.985 . S
C438 C432 1.379 . S
C438 C435 1.363 . S
C438 N436 1.356 . S
C439 C433 1.363 . S
C439 C434 1.379 . S
C439 N437 1.356 . S
N440 C432 1.356 . S
N440 H446 0.984 . S
N440 H447 0.984 . S
N441 C434 1.356 . S
N441 H444 0.984 . S
N441 H445 0.985 . S
H442 N437 0.984 . S
H443 N437 0.985 . S
H444 N441 0.984 . S
H445 N441 0.985 . S
H446 N440 0.984 . S
H447 N440 0.984 . S
H448 N436 0.984 . S
H449 N436 0.985 . S
C450 C451 1.363 . S
C450 C456 1.379 1_545 S
C450 N458 1.356 . S
C451 C450 1.363 . S
C451 C457 1.363 . S
C452 C453 1.363 1_545 S
C452 C457 1.379 . S
C452 N459 1.356 1_545 S
C453 C452 1.363 1_565 S
C453 C456 1.363 . S
N454 C456 1.356 . S
N454 H466 0.984 . S
N454 H467 0.985 . S
N455 C457 1.356 . S
N455 H460 0.984 . S
N455 H461 0.985 . S
C456 C450 1.379 1_565 S
C456 C453 1.363 . S
C456 N454 1.356 . S
C457 C451 1.363 . S
C457 C452 1.379 . S
C457 N455 1.356 . S
N458 C450 1.356 . S
N458 H464 0.984 1_545 S
N458 H465 0.984 . S
N459 C452 1.356 1_565 S
N459 H462 0.984 . S
N459 H463 0.985 1_565 S
H460 N455 0.984 . S
H461 N455 0.985 . S
H462 N459 0.984 . S
H463 N459 0.985 1_545 S
H464 N458 0.984 1_565 S
H465 N458 0.984 . S
H466 N454 0.984 . S
H467 N454 0.985 . S
C468 C469 1.363 1_556 S
C468 C474 1.379 . S
C468 N476 1.356 . S
C469 C468 1.363 1_554 S
C469 C475 1.363 . S
C470 C471 1.363 1_554 S
C470 C475 1.379 . S
C470 N477 1.356 . S
C471 C470 1.363 1_556 S
C471 C474 1.363 . S
N472 C474 1.356 . S
N472 H484 0.984 . S
N472 H485 0.985 . S
N473 C475 1.356 . S
N473 H478 0.984 . S
N473 H479 0.985 . S
C474 C468 1.379 . S
C474 C471 1.363 . S
C474 N472 1.356 . S
C475 C469 1.363 . S
C475 C470 1.379 . S
C475 N473 1.356 . S
N476 C468 1.356 . S
N476 H482 0.984 . S
N476 H483 0.984 . S
N477 C470 1.356 . S
N477 H480 0.984 . S
N477 H481 0.985 . S
H478 N473 0.984 . S
H479 N473 0.985 . S
H480 N477 0.984 . S
H481 N477 0.985 . S
H482 N476 0.984 . S
H483 N476 0.984 . S
H484 N472 0.984 . S
H485 N472 0.985 . S
C486 C487 1.363 1_554 S
C486 C492 1.379 1_565 S
C486 N494 1.356 . S
C487 C486 1.363 1_556 S
C487 C493 1.363 . S
C488 C489 1.363 1_556 S
C488 C493 1.379 1_545 S
C488 N495 1.356 . S
C489 C488 1.363 1_554 S
C489 C492 1.363 . S
N490 C492 1.356 . S
N490 H502 0.984 . S
N490 H503 0.985 . S
N491 C493 1.356 . S
N491 H496 0.984 . S
N491 H497 0.985 . S
C492 C486 1.379 1_545 S
C492 C489 1.363 . S
C492 N490 1.356 . S
C493 C487 1.363 . S
C493 C488 1.379 1_565 S
C493 N491 1.356 . S
N494 C486 1.356 . S
N494 H500 0.984 . S
N494 H501 0.984 . S
N495 C488 1.356 . S
N495 H498 0.984 . S
N495 H499 0.985 . S
H496 N491 0.984 . S
H497 N491 0.985 . S
H498 N495 0.984 . S
H499 N495 0.985 . S
H500 N494 0.984 . S
H501 N494 0.984 . S
H502 N490 0.984 . S
H503 N490 0.985 . S
C504 C505 1.363 . S
C504 C510 1.379 1_655 S
C504 N512 1.356 . S
C505 C504 1.363 . S
C505 C511 1.363 1_554 S
C506 C507 1.363 . S
C506 C511 1.379 1_455 S
C506 N513 1.356 . S
C507 C506 1.363 . S
C507 C510 1.363 1_556 S
N508 C510 1.356 . S
N508 H520 0.984 1_565 S
N508 H521 0.985 . S
N509 C511 1.356 . S
N509 H514 0.984 1_556 S
N509 H515 0.985 . S
C510 C504 1.379 1_455 S
C510 C507 1.363 1_554 S
C510 N508 1.356 . S
C511 C505 1.363 1_556 S
C511 C506 1.379 1_655 S
C511 N509 1.356 . S
N512 C504 1.356 . S
N512 H518 0.984 . S
N512 H519 0.984 . S
N513 C506 1.356 . S
N513 H516 0.984 . S
N513 H517 0.985 . S
H514 N509 0.984 1_554 S
H515 N509 0.985 . S
H516 N513 0.984 . S
H517 N513 0.985 . S
H518 N512 0.984 . S
H519 N512 0.984 . S
H520 N508 0.984 1_545 S
H521 N508 0.985 . S
C522 C523 1.363 . S
C522 C528 1.379 . S
C522 N530 1.356 . S
C523 C522 1.363 . S
C523 C529 1.363 . S
C524 C525 1.363 . S
C524 C529 1.379 . S
C524 N531 1.356 . S
C525 C524 1.363 . S
C525 C528 1.363 . S
N526 C528 1.356 . S
N526 H538 0.984 . S
N526 H539 0.985 . S
N527 C529 1.356 . S
N527 H532 0.984 . S
N527 H533 0.985 . S
C528 C522 1.379 . S
C528 C525 1.363 . S
C528 N526 1.356 . S
C529 C523 1.363 . S
C529 C524 1.379 . S
C529 N527 1.356 . S
N530 C522 1.356 . S
N530 H536 0.984 . S
N530 H537 0.984 . S
N531 C524 1.356 . S
N531 H534 0.984 . S
N531 H535 0.985 . S
H532 N527 0.984 . S
H533 N527 0.985 . S
H534 N531 0.984 . S
H535 N531 0.985 . S
H536 N530 0.984 . S
H537 N530 0.984 . S
H538 N526 0.984 . S
H539 N526 0.985 . S
C540 C541 1.363 . S
C540 C546 1.379 . S
C540 N548 1.356 . S
C541 C540 1.363 . S
C541 C547 1.363 . S
C542 C543 1.363 . S
C542 C547 1.379 . S
C542 N549 1.356 . S
C543 C542 1.363 . S
C543 C546 1.363 . S
N544 C546 1.356 . S
N544 H556 0.984 . S
N544 H557 0.985 . S
N545 C547 1.356 . S
N545 H550 0.984 . S
N545 H551 0.985 . S
C546 C540 1.379 . S
C546 C543 1.363 . S
C546 N544 1.356 . S
C547 C541 1.363 . S
C547 C542 1.379 . S
C547 N545 1.356 . S
N548 C540 1.356 . S
N548 H554 0.984 . S
N548 H555 0.984 . S
N549 C542 1.356 . S
N549 H552 0.984 . S
N549 H553 0.985 . S
H550 N545 0.984 . S
H551 N545 0.985 . S
H552 N549 0.984 . S
H553 N549 0.985 . S
H554 N548 0.984 . S
H555 N548 0.984 . S
H556 N544 0.984 . S
H557 N544 0.985 . S
C558 C559 1.363 . S
C558 C564 1.379 . S
C558 N566 1.356 . S
C559 C558 1.363 . S
C559 C565 1.363 . S
C560 C561 1.363 . S
C560 C565 1.379 . S
C560 N567 1.356 . S
C561 C560 1.363 . S
C561 C564 1.363 . S
N562 C564 1.356 . S
N562 H574 0.984 . S
N562 H575 0.985 . S
N563 C565 1.356 . S
N563 H568 0.984 . S
N563 H569 0.985 . S
C564 C558 1.379 . S
C564 C561 1.363 . S
C564 N562 1.356 . S
C565 C559 1.363 . S
C565 C560 1.379 . S
C565 N563 1.356 . S
N566 C558 1.356 . S
N566 H572 0.984 . S
N566 H573 0.984 . S
N567 C560 1.356 . S
N567 H570 0.984 . S
N567 H571 0.985 . S
H568 N563 0.984 . S
H569 N563 0.985 . S
H570 N567 0.984 . S
H571 N567 0.985 . S
H572 N566 0.984 . S
H573 N566 0.984 . S
H574 N562 0.984 . S
H575 N562 0.985 . S
C576 C577 1.363 . S
C576 C582 1.379 . S
C576 N584 1.356 . S
C577 C576 1.363 . S
C577 C583 1.363 . S
C578 C579 1.363 . S
C578 C583 1.379 . S
C578 N585 1.356 . S
C579 C578 1.363 . S
C579 C582 1.363 . S
N580 C582 1.356 . S
N580 H592 0.984 . S
N580 H593 0.985 . S
N581 C583 1.356 . S
N581 H586 0.984 . S
N581 H587 0.985 . S
C582 C576 1.379 . S
C582 C579 1.363 . S
C582 N580 1.356 . S
C583 C577 1.363 . S
C583 C578 1.379 . S
C583 N581 1.356 . S
N584 C576 1.356 . S
N584 H590 0.984 . S
N584 H591 0.984 . S
N585 C578 1.356 . S
N585 H588 0.984 . S
N585 H589 0.985 . S
H586 N581 0.984 . S
H587 N581 0.985 . S
H588 N585 0.984 . S
H589 N585 0.985 . S
H590 N584 0.984 . S
H591 N584 0.984 . S
H592 N580 0.984 . S
H593 N580 0.985 . S
C594 C595 1.363 . S
C594 C600 1.379 . S
C594 N602 1.356 . S
C595 C594 1.363 . S
C595 C601 1.363 . S
C596 C597 1.363 . S
C596 C601 1.379 . S
C596 N603 1.356 . S
C597 C596 1.363 . S
C597 C600 1.363 . S
N598 C600 1.356 . S
N598 H610 0.984 . S
N598 H611 0.985 . S
N599 C601 1.356 . S
N599 H604 0.984 . S
N599 H605 0.985 . S
C600 C594 1.379 . S
C600 C597 1.363 . S
C600 N598 1.356 . S
C601 C595 1.363 . S
C601 C596 1.379 . S
C601 N599 1.356 . S
N602 C594 1.356 . S
N602 H608 0.984 . S
N602 H609 0.984 . S
N603 C596 1.356 . S
N603 H606 0.984 . S
N603 H607 0.985 . S
H604 N599 0.984 . S
H605 N599 0.985 . S
H606 N603 0.984 . S
H607 N603 0.985 . S
H608 N602 0.984 . S
H609 N602 0.984 . S
H610 N598 0.984 . S
H611 N598 0.985 . S
C612 C613 1.363 . S
C612 C618 1.379 . S
C612 N620 1.356 . S
C613 C612 1.363 . S
C613 C619 1.363 . S
C614 C615 1.363 . S
C614 C619 1.379 . S
C614 N621 1.356 . S
C615 C614 1.363 . S
C615 C618 1.363 . S
N616 C618 1.356 . S
N616 H628 0.984 . S
N616 H629 0.985 . S
N617 C619 1.356 . S
N617 H622 0.984 . S
N617 H623 0.985 . S
C618 C612 1.379 . S
C618 C615 1.363 . S
C618 N616 1.356 . S
C619 C613 1.363 . S
C619 C614 1.379 . S
C619 N617 1.356 . S
N620 C612 1.356 . S
N620 H626 0.984 . S
N620 H627 0.984 . S
N621 C614 1.356 . S
N621 H624 0.984 . S
N621 H625 0.985 . S
H622 N617 0.984 . S
H623 N617 0.985 . S
H624 N621 0.984 . S
H625 N621 0.985 . S
H626 N620 0.984 . S
H627 N620 0.984 . S
H628 N616 0.984 . S
H629 N616 0.985 . S
C630 C631 1.363 . S
C630 C636 1.379 1_655 S
C630 N638 1.356 . S
C631 C630 1.363 . S
C631 C637 1.363 . S
C632 C633 1.363 . S
C632 C637 1.379 1_455 S
C632 N639 1.356 . S
C633 C632 1.363 . S
C633 C636 1.363 . S
N634 C636 1.356 . S
N634 H646 0.984 . S
N634 H647 0.985 . S
N635 C637 1.356 . S
N635 H640 0.984 . S
N635 H641 0.985 . S
C636 C630 1.379 1_455 S
C636 C633 1.363 . S
C636 N634 1.356 . S
C637 C631 1.363 . S
C637 C632 1.379 1_655 S
C637 N635 1.356 . S
N638 C630 1.356 . S
N638 H644 0.984 . S
N638 H645 0.984 . S
N639 C632 1.356 . S
N639 H642 0.984 . S
N639 H643 0.985 . S
H640 N635 0.984 . S
H641 N635 0.985 . S
H642 N639 0.984 . S
H643 N639 0.985 . S
H644 N638 0.984 . S
H645 N638 0.984 . S
H646 N634 0.984 . S
H647 N634 0.985 . S
C648 C649 1.363 . S
C648 C654 1.379 . S
C648 N656 1.356 . S
C649 C648 1.363 . S
C649 C655 1.363 . S
C650 C651 1.363 . S
C650 C655 1.379 . S
C650 N657 1.356 . S
C651 C650 1.363 . S
C651 C654 1.363 . S
N652 C654 1.356 . S
N652 H664 0.984 . S
N652 H665 0.985 . S
N653 C655 1.356 . S
N653 H658 0.984 . S
N653 H659 0.985 . S
C654 C648 1.379 . S
C654 C651 1.363 . S
C654 N652 1.356 . S
C655 C649 1.363 . S
C655 C650 1.379 . S
C655 N653 1.356 . S
N656 C648 1.356 . S
N656 H662 0.984 . S
N656 H663 0.984 . S
N657 C650 1.356 . S
N657 H660 0.984 . S
N657 H661 0.985 . S
H658 N653 0.984 . S
H659 N653 0.985 . S
H660 N657 0.984 . S
H661 N657 0.985 . S
H662 N656 0.984 . S
H663 N656 0.984 . S
H664 N652 0.984 . S
H665 N652 0.985 . S
C666 C667 1.363 1_565 S
C666 C672 1.379 . S
C666 N674 1.356 . S
C667 C666 1.363 1_545 S
C667 C673 1.363 . S
C668 C669 1.363 1_545 S
C668 C673 1.379 . S
C668 N675 1.356 . S
C669 C668 1.363 1_565 S
C669 C672 1.363 . S
N670 C672 1.356 . S
N670 H682 0.984 . S
N670 H683 0.985 . S
N671 C673 1.356 . S
N671 H676 0.984 . S
N671 H677 0.985 . S
C672 C666 1.379 . S
C672 C669 1.363 . S
C672 N670 1.356 . S
C673 C667 1.363 . S
C673 C668 1.379 . S
C673 N671 1.356 . S
N674 C666 1.356 . S
N674 H680 0.984 . S
N674 H681 0.984 1_565 S
N675 C668 1.356 . S
N675 H678 0.984 1_545 S
N675 H679 0.985 . S
H676 N671 0.984 . S
H677 N671 0.985 . S
H678 N675 0.984 1_565 S
H679 N675 0.985 . S
H680 N674 0.984 . S
H681 N674 0.984 1_545 S
H682 N670 0.984 . S
H683 N670 0.985 . S
C684 C685 1.363 . S
C684 C690 1.379 . S
C684 N692 1.356 . S
C685 C684 1.363 . S
C685 C691 1.363 . S
C686 C687 1.363 . S
C686 C691 1.379 . S
C686 N693 1.356 . S
C687 C686 1.363 . S
C687 C690 1.363 . S
N688 C690 1.356 . S
N688 H700 0.984 1_556 S
N688 H701 0.985 1_556 S
N689 C691 1.356 . S
N689 H694 0.984 . S
N689 H695 0.985 . S
C690 C684 1.379 . S
C690 C687 1.363 . S
C690 N688 1.356 . S
C691 C685 1.363 . S
C691 C686 1.379 . S
C691 N689 1.356 . S
N692 C684 1.356 . S
N692 H698 0.984 . S
N692 H699 0.984 . S
N693 C686 1.356 . S
N693 H696 0.984 . S
N693 H697 0.985 . S
H694 N689 0.984 . S
H695 N689 0.985 . S
H696 N693 0.984 . S
H697 N693 0.985 . S
H698 N692 0.984 . S
H699 N692 0.984 . S
H700 N688 0.984 1_554 S
H701 N688 0.985 1_554 S
C702 C703 1.363 . S
C702 C708 1.379 . S
C702 N710 1.356 . S
C703 C702 1.363 . S
C703 C709 1.363 . S
C704 C705 1.363 . S
C704 C709 1.379 . S
C704 N711 1.356 . S
C705 C704 1.363 . S
C705 C708 1.363 . S
N706 C708 1.356 . S
N706 H718 0.984 . S
N706 H719 0.985 . S
N707 C709 1.356 . S
N707 H712 0.984 . S
N707 H713 0.985 . S
C708 C702 1.379 . S
C708 C705 1.363 . S
C708 N706 1.356 . S
C709 C703 1.363 . S
C709 C704 1.379 . S
C709 N707 1.356 . S
N710 C702 1.356 . S
N710 H716 0.984 . S
N710 H717 0.984 . S
N711 C704 1.356 . S
N711 H714 0.984 . S
N711 H715 0.985 . S
H712 N707 0.984 . S
H713 N707 0.985 . S
H714 N711 0.984 . S
H715 N711 0.985 . S
H716 N710 0.984 . S
H717 N710 0.984 . S
H718 N706 0.984 . S
H719 N706 0.985 . S
C720 C721 1.363 . S
C720 C726 1.379 . S
C720 N728 1.356 . S
C721 C720 1.363 . S
C721 C727 1.363 . S
C722 C723 1.363 . S
C722 C727 1.379 . S
C722 N729 1.356 . S
C723 C722 1.363 . S
C723 C726 1.363 . S
N724 C726 1.356 . S
N724 H736 0.984 . S
N724 H737 0.985 . S
N725 C727 1.356 . S
N725 H730 0.984 . S
N725 H731 0.985 . S
C726 C720 1.379 . S
C726 C723 1.363 . S
C726 N724 1.356 . S
C727 C721 1.363 . S
C727 C722 1.379 . S
C727 N725 1.356 . S
N728 C720 1.356 . S
N728 H734 0.984 . S
N728 H735 0.984 . S
N729 C722 1.356 . S
N729 H732 0.984 1_556 S
N729 H733 0.985 . S
H730 N725 0.984 . S
H731 N725 0.985 . S
H732 N729 0.984 1_554 S
H733 N729 0.985 . S
H734 N728 0.984 . S
H735 N728 0.984 . S
H736 N724 0.984 . S
H737 N724 0.985 . S
C738 C739 1.363 . S
C738 C744 1.379 . S
C738 N746 1.356 . S
C739 C738 1.363 . S
C739 C745 1.363 . S
C740 C741 1.363 . S
C740 C745 1.379 . S
C740 N747 1.356 . S
C741 C740 1.363 . S
C741 C744 1.363 . S
N742 C744 1.356 . S
N742 H754 0.984 . S
N742 H755 0.985 . S
N743 C745 1.356 . S
N743 H748 0.984 . S
N743 H749 0.985 . S
C744 C738 1.379 . S
C744 C741 1.363 . S
C744 N742 1.356 . S
C745 C739 1.363 . S
C745 C740 1.379 . S
C745 N743 1.356 . S
N746 C738 1.356 . S
N746 H752 0.984 . S
N746 H753 0.984 . S
N747 C740 1.356 . S
N747 H750 0.984 . S
N747 H751 0.985 . S
H748 N743 0.984 . S
H749 N743 0.985 . S
H750 N747 0.984 . S
H751 N747 0.985 . S
H752 N746 0.984 . S
H753 N746 0.984 . S
H754 N742 0.984 . S
H755 N742 0.985 . S
C756 C757 1.363 . S
C756 C762 1.379 . S
C756 N764 1.356 . S
C757 C756 1.363 . S
C757 C763 1.363 . S
C758 C759 1.363 . S
C758 C763 1.379 . S
C758 N765 1.356 . S
C759 C758 1.363 . S
C759 C762 1.363 . S
N760 C762 1.356 . S
N760 H772 0.984 . S
N760 H773 0.985 . S
N761 C763 1.356 . S
N761 H766 0.984 . S
N761 H767 0.985 . S
C762 C756 1.379 . S
C762 C759 1.363 . S
C762 N760 1.356 . S
C763 C757 1.363 . S
C763 C758 1.379 . S
C763 N761 1.356 . S
N764 C756 1.356 . S
N764 H770 0.984 . S
N764 H771 0.984 . S
N765 C758 1.356 . S
N765 H768 0.984 . S
N765 H769 0.985 . S
H766 N761 0.984 . S
H767 N761 0.985 . S
H768 N765 0.984 . S
H769 N765 0.985 . S
H770 N764 0.984 . S
H771 N764 0.984 . S
H772 N760 0.984 . S
H773 N760 0.985 . S
C774 C775 1.363 . S
C774 C780 1.379 . S
C774 N782 1.356 . S
C775 C774 1.363 . S
C775 C781 1.363 . S
C776 C777 1.363 . S
C776 C781 1.379 . S
C776 N783 1.356 . S
C777 C776 1.363 . S
C777 C780 1.363 . S
N778 C780 1.356 . S
N778 H790 0.984 . S
N778 H791 0.985 . S
N779 C781 1.356 . S
N779 H784 0.984 . S
N779 H785 0.985 . S
C780 C774 1.379 . S
C780 C777 1.363 . S
C780 N778 1.356 . S
C781 C775 1.363 . S
C781 C776 1.379 . S
C781 N779 1.356 . S
N782 C774 1.356 . S
N782 H788 0.984 . S
N782 H789 0.984 . S
N783 C776 1.356 . S
N783 H786 0.984 . S
N783 H787 0.985 . S
H784 N779 0.984 . S
H785 N779 0.985 . S
H786 N783 0.984 . S
H787 N783 0.985 . S
H788 N782 0.984 . S
H789 N782 0.984 . S
H790 N778 0.984 . S
H791 N778 0.985 . S
C307 C29 1.943 . S
C309 C267 1.944 . S
C325 C51 1.935 . S
C327 C289 1.936 . S
C343 C97 1.939 . S
C345 C221 1.940 . S
C361 C153 1.894 . S
C363 C85 1.893 . S
C379 C187 1.919 . S
C381 C17 1.920 . S
C397 C63 1.934 . S
C399 C119 1.935 . S
C415 C255 1.946 . S
C417 C199 1.944 . S
C433 C301 1.959 . S
C435 C131 1.960 . S
C451 C165 1.984 . S
C453 C233 1.987 . S
C469 C68 1.395 . S
C471 C8 1.400 . S
C487 C34 1.407 . S
C489 C0 1.407 . S
C505 C42 1.415 . S
C507 C76 1.416 . S
C523 C102 1.409 . S
C525 C178 1.415 . S
C541 C110 1.417 . S
C543 C136 1.412 . S
C559 C144 1.412 . S
C561 C170 1.407 . S
C577 C272 1.424 . S
C579 C212 1.429 . S
C595 C238 1.408 . S
C597 C204 1.407 . S
C613 C280 1.416 . S
C615 C246 1.416 . S
C631 C13 1.382 . S
C633 C4 1.382 . S
C649 C38 1.350 . S
C651 C47 1.350 . S
C667 C81 1.337 . S
C669 C72 1.337 . S
C685 C115 1.378 . S
C687 C106 1.378 . S
C703 C149 1.364 . S
C705 C140 1.364 . S
C721 C183 1.351 . S
C723 C174 1.351 . S
C739 C217 1.391 . S
C741 C208 1.391 . S
C757 C251 1.377 . S
C759 C242 1.377 . S
C775 C285 1.346 . S
C777 C276 1.346 . S
