# Generated by pormake.
# Topology vcb, (5)-cn, num edge types: 1
# Building blocks:
#     Node 0, Type 0, BuildingBlock: XOMCOT_clean_sbu_1, # of connection points: 5
#     Node 1, Type 0, BuildingBlock: XOMCOT_clean_sbu_1, # of connection points: 5
#     Node 2, Type 0, BuildingBlock: XOMCOT_clean_sbu_1, # of connection points: 5
#     Node 3, Type 0, BuildingBlock: XOMCOT_clean_sbu_1, # of connection points: 5
#     Node 4, Type 0, BuildingBlock: XOMCOT_clean_sbu_1, # of connection points: 5
#     Node 5, Type 0, BuildingBlock: XOMCOT_clean_sbu_1, # of connection points: 5
#     Node 6, Type 0, BuildingBlock: XOMCOT_clean_sbu_1, # of connection points: 5
#     Node 7, Type 0, BuildingBlock: XOMCOT_clean_sbu_1, # of connection points: 5
#     Node 8, Type 0, BuildingBlock: XOMCOT_clean_sbu_1, # of connection points: 5
#     Node 9, Type 0, BuildingBlock: XOMCOT_clean_sbu_1, # of connection points: 5
#     Node 10, Type 0, BuildingBlock: XOMCOT_clean_sbu_1, # of connection points: 5
#     Node 11, Type 0, BuildingBlock: XOMCOT_clean_sbu_1, # of connection points: 5
#     Node 12, Type 0, BuildingBlock: XOMCOT_clean_sbu_1, # of connection points: 5
#     Node 13, Type 0, BuildingBlock: XOMCOT_clean_sbu_1, # of connection points: 5
#     Node 14, Type 0, BuildingBlock: XOMCOT_clean_sbu_1, # of connection points: 5
#     Node 15, Type 0, BuildingBlock: XOMCOT_clean_sbu_1, # of connection points: 5
#     Node 16, Type 0, BuildingBlock: XOMCOT_clean_sbu_1, # of connection points: 5
#     Node 17, Type 0, BuildingBlock: XOMCOT_clean_sbu_1, # of connection points: 5
#     Node 18, Type 0, BuildingBlock: XOMCOT_clean_sbu_1, # of connection points: 5
#     Node 19, Type 0, BuildingBlock: XOMCOT_clean_sbu_1, # of connection points: 5
#     Node 20, Type 0, BuildingBlock: XOMCOT_clean_sbu_1, # of connection points: 5
#     Node 21, Type 0, BuildingBlock: XOMCOT_clean_sbu_1, # of connection points: 5
#     Node 22, Type 0, BuildingBlock: XOMCOT_clean_sbu_1, # of connection points: 5
#     Node 23, Type 0, BuildingBlock: XOMCOT_clean_sbu_1, # of connection points: 5
#     Node 24, Type 0, BuildingBlock: XOMCOT_clean_sbu_1, # of connection points: 5
#     Node 25, Type 0, BuildingBlock: XOMCOT_clean_sbu_1, # of connection points: 5
#     Node 26, Type 0, BuildingBlock: XOMCOT_clean_sbu_1, # of connection points: 5
#     Node 27, Type 0, BuildingBlock: XOMCOT_clean_sbu_1, # of connection points: 5
#     Node 28, Type 0, BuildingBlock: XOMCOT_clean_sbu_1, # of connection points: 5
#     Node 29, Type 0, BuildingBlock: XOMCOT_clean_sbu_1, # of connection points: 5
#     Node 30, Type 0, BuildingBlock: XOMCOT_clean_sbu_1, # of connection points: 5
#     Node 31, Type 0, BuildingBlock: XOMCOT_clean_sbu_1, # of connection points: 5
#     Edge 32, Type (0, 0), BuildingBlock: OJICUG_clean_linker_0, # of connection points: 2
#     Edge 33, Type (0, 0), BuildingBlock: OJICUG_clean_linker_0, # of connection points: 2
#     Edge 34, Type (0, 0), BuildingBlock: OJICUG_clean_linker_0, # of connection points: 2
#     Edge 35, Type (0, 0), BuildingBlock: OJICUG_clean_linker_0, # of connection points: 2
#     Edge 36, Type (0, 0), BuildingBlock: OJICUG_clean_linker_0, # of connection points: 2
#     Edge 37, Type (0, 0), BuildingBlock: OJICUG_clean_linker_0, # of connection points: 2
#     Edge 38, Type (0, 0), BuildingBlock: OJICUG_clean_linker_0, # of connection points: 2
#     Edge 39, Type (0, 0), BuildingBlock: OJICUG_clean_linker_0, # of connection points: 2
#     Edge 40, Type (0, 0), BuildingBlock: OJICUG_clean_linker_0, # of connection points: 2
#     Edge 41, Type (0, 0), BuildingBlock: OJICUG_clean_linker_0, # of connection points: 2
#     Edge 42, Type (0, 0), BuildingBlock: OJICUG_clean_linker_0, # of connection points: 2
#     Edge 43, Type (0, 0), BuildingBlock: OJICUG_clean_linker_0, # of connection points: 2
#     Edge 44, Type (0, 0), BuildingBlock: OJICUG_clean_linker_0, # of connection points: 2
#     Edge 45, Type (0, 0), BuildingBlock: OJICUG_clean_linker_0, # of connection points: 2
#     Edge 46, Type (0, 0), BuildingBlock: OJICUG_clean_linker_0, # of connection points: 2
#     Edge 47, Type (0, 0), BuildingBlock: OJICUG_clean_linker_0, # of connection points: 2
#     Edge 48, Type (0, 0), BuildingBlock: OJICUG_clean_linker_0, # of connection points: 2
#     Edge 49, Type (0, 0), BuildingBlock: OJICUG_clean_linker_0, # of connection points: 2
#     Edge 50, Type (0, 0), BuildingBlock: OJICUG_clean_linker_0, # of connection points: 2
#     Edge 51, Type (0, 0), BuildingBlock: OJICUG_clean_linker_0, # of connection points: 2
#     Edge 52, Type (0, 0), BuildingBlock: OJICUG_clean_linker_0, # of connection points: 2
#     Edge 53, Type (0, 0), BuildingBlock: OJICUG_clean_linker_0, # of connection points: 2
#     Edge 54, Type (0, 0), BuildingBlock: OJICUG_clean_linker_0, # of connection points: 2
#     Edge 55, Type (0, 0), BuildingBlock: OJICUG_clean_linker_0, # of connection points: 2
#     Edge 56, Type (0, 0), BuildingBlock: OJICUG_clean_linker_0, # of connection points: 2
#     Edge 57, Type (0, 0), BuildingBlock: OJICUG_clean_linker_0, # of connection points: 2
#     Edge 58, Type (0, 0), BuildingBlock: OJICUG_clean_linker_0, # of connection points: 2
#     Edge 59, Type (0, 0), BuildingBlock: OJICUG_clean_linker_0, # of connection points: 2
#     Edge 60, Type (0, 0), BuildingBlock: OJICUG_clean_linker_0, # of connection points: 2
#     Edge 61, Type (0, 0), BuildingBlock: OJICUG_clean_linker_0, # of connection points: 2
#     Edge 62, Type (0, 0), BuildingBlock: OJICUG_clean_linker_0, # of connection points: 2
#     Edge 63, Type (0, 0), BuildingBlock: OJICUG_clean_linker_0, # of connection points: 2
#     Edge 64, Type (0, 0), BuildingBlock: OJICUG_clean_linker_0, # of connection points: 2
#     Edge 65, Type (0, 0), BuildingBlock: OJICUG_clean_linker_0, # of connection points: 2
#     Edge 66, Type (0, 0), BuildingBlock: OJICUG_clean_linker_0, # of connection points: 2
#     Edge 67, Type (0, 0), BuildingBlock: OJICUG_clean_linker_0, # of connection points: 2
#     Edge 68, Type (0, 0), BuildingBlock: OJICUG_clean_linker_0, # of connection points: 2
#     Edge 69, Type (0, 0), BuildingBlock: OJICUG_clean_linker_0, # of connection points: 2
#     Edge 70, Type (0, 0), BuildingBlock: OJICUG_clean_linker_0, # of connection points: 2
#     Edge 71, Type (0, 0), BuildingBlock: OJICUG_clean_linker_0, # of connection points: 2
#     Edge 72, Type (0, 0), BuildingBlock: OJICUG_clean_linker_0, # of connection points: 2
#     Edge 73, Type (0, 0), BuildingBlock: OJICUG_clean_linker_0, # of connection points: 2
#     Edge 74, Type (0, 0), BuildingBlock: OJICUG_clean_linker_0, # of connection points: 2
#     Edge 75, Type (0, 0), BuildingBlock: OJICUG_clean_linker_0, # of connection points: 2
#     Edge 76, Type (0, 0), BuildingBlock: OJICUG_clean_linker_0, # of connection points: 2
#     Edge 77, Type (0, 0), BuildingBlock: OJICUG_clean_linker_0, # of connection points: 2
#     Edge 78, Type (0, 0), BuildingBlock: OJICUG_clean_linker_0, # of connection points: 2
#     Edge 79, Type (0, 0), BuildingBlock: OJICUG_clean_linker_0, # of connection points: 2
#     Edge 80, Type (0, 0), BuildingBlock: OJICUG_clean_linker_0, # of connection points: 2
#     Edge 81, Type (0, 0), BuildingBlock: OJICUG_clean_linker_0, # of connection points: 2
#     Edge 82, Type (0, 0), BuildingBlock: OJICUG_clean_linker_0, # of connection points: 2
#     Edge 83, Type (0, 0), BuildingBlock: OJICUG_clean_linker_0, # of connection points: 2
#     Edge 84, Type (0, 0), BuildingBlock: OJICUG_clean_linker_0, # of connection points: 2
#     Edge 85, Type (0, 0), BuildingBlock: OJICUG_clean_linker_0, # of connection points: 2
#     Edge 86, Type (0, 0), BuildingBlock: OJICUG_clean_linker_0, # of connection points: 2
#     Edge 87, Type (0, 0), BuildingBlock: OJICUG_clean_linker_0, # of connection points: 2
#     Edge 88, Type (0, 0), BuildingBlock: OJICUG_clean_linker_0, # of connection points: 2
#     Edge 89, Type (0, 0), BuildingBlock: OJICUG_clean_linker_0, # of connection points: 2
#     Edge 90, Type (0, 0), BuildingBlock: OJICUG_clean_linker_0, # of connection points: 2
#     Edge 91, Type (0, 0), BuildingBlock: OJICUG_clean_linker_0, # of connection points: 2
#     Edge 92, Type (0, 0), BuildingBlock: OJICUG_clean_linker_0, # of connection points: 2
#     Edge 93, Type (0, 0), BuildingBlock: OJICUG_clean_linker_0, # of connection points: 2
#     Edge 94, Type (0, 0), BuildingBlock: OJICUG_clean_linker_0, # of connection points: 2
#     Edge 95, Type (0, 0), BuildingBlock: OJICUG_clean_linker_0, # of connection points: 2
#     Edge 96, Type (0, 0), BuildingBlock: OJICUG_clean_linker_0, # of connection points: 2
#     Edge 97, Type (0, 0), BuildingBlock: OJICUG_clean_linker_0, # of connection points: 2
#     Edge 98, Type (0, 0), BuildingBlock: OJICUG_clean_linker_0, # of connection points: 2
#     Edge 99, Type (0, 0), BuildingBlock: OJICUG_clean_linker_0, # of connection points: 2
#     Edge 100, Type (0, 0), BuildingBlock: OJICUG_clean_linker_0, # of connection points: 2
#     Edge 101, Type (0, 0), BuildingBlock: OJICUG_clean_linker_0, # of connection points: 2
#     Edge 102, Type (0, 0), BuildingBlock: OJICUG_clean_linker_0, # of connection points: 2
#     Edge 103, Type (0, 0), BuildingBlock: OJICUG_clean_linker_0, # of connection points: 2
#     Edge 104, Type (0, 0), BuildingBlock: OJICUG_clean_linker_0, # of connection points: 2
#     Edge 105, Type (0, 0), BuildingBlock: OJICUG_clean_linker_0, # of connection points: 2
#     Edge 106, Type (0, 0), BuildingBlock: OJICUG_clean_linker_0, # of connection points: 2
#     Edge 107, Type (0, 0), BuildingBlock: OJICUG_clean_linker_0, # of connection points: 2
#     Edge 108, Type (0, 0), BuildingBlock: OJICUG_clean_linker_0, # of connection points: 2
#     Edge 109, Type (0, 0), BuildingBlock: OJICUG_clean_linker_0, # of connection points: 2
#     Edge 110, Type (0, 0), BuildingBlock: OJICUG_clean_linker_0, # of connection points: 2
#     Edge 111, Type (0, 0), BuildingBlock: OJICUG_clean_linker_0, # of connection points: 2
# Relax obj value: 0.101
# Max RMSD: 0.129
# Mean RMSD: 0.129
data_MOF--net-vcb--node1-XOMCOT_clean_sbu_1--edge1-OJICUG_clean_linker_0
_symmetry_space_group_name_H-M    P1
_symmetry_Int_Tables_number       1
_symmetry_cell_setting            triclinic
loop_
_symmetry_equiv_pos_as_xyz
'x, y, z'
_cell_length_a     52.327592
_cell_length_b     75.287877
_cell_length_c     19.732819
_cell_angle_alpha  89.980338
_cell_angle_beta   89.97398
_cell_angle_gamma 90.020892
loop_
_atom_site_label
_atom_site_type_symbol
_atom_site_fract_x
_atom_site_fract_y
_atom_site_fract_z
_atom_type_partial_charge
C0 C 0.99027 0.05298 0.28161 0.0
C1 C 0.96413 0.05407 0.28254 0.0
N2 N 0.95741 0.06876 0.31707 0.0
N3 N 1.0003 0.06692 0.31522 0.0
C4 C 0.97975 0.07633 0.33678 0.0
H5 H 1.00142 0.04262 0.25784 0.0
Co6 Co 0.03585 0.07013 0.31939 0.0
C7 C 0.04347 0.08326 0.46031 0.0
O8 O 0.0605 0.07057 0.46758 0.0
N9 N 0.07204 0.0733 0.31831 0.0
C10 C 0.11171 0.07163 0.27702 0.0
C11 C 0.08702 0.06576 0.27048 0.0
C12 C 0.08817 0.08457 0.35094 0.0
N13 N 0.11252 0.08347 0.32796 0.0
O14 O 0.0333 0.08964 0.25816 0.0
H15 H 0.0803 0.05696 0.23109 0.0
H16 H 0.08214 0.09421 0.38812 0.0
O17 O 0.03252 0.08555 0.40241 0.0
C18 C 0.03307 0.08295 0.19853 0.0
O19 O 0.03306 0.06557 0.19254 0.0
N20 N 0.03813 0.04946 0.37246 0.0
C21 C 0.04075 0.01717 0.44072 0.0
C22 C 1.02461 0.03073 0.46402 0.0
C23 C 1.02297 0.04658 0.42787 0.0
C24 C 0.05248 0.03594 0.34683 0.0
C25 C 0.05442 0.01983 0.38064 0.0
H26 H 1.00966 0.05662 0.44478 0.0
H27 H 0.06166 0.0372 0.29845 0.0
H28 H 0.98113 0.08855 0.36545 0.0
H29 H 0.95102 0.04453 0.2607 0.0
H30 H 0.12774 0.06759 0.246 0.0
H31 H 1.01326 0.02914 0.5095 0.0
H32 H 0.06586 0.00934 0.35852 0.0
C33 C 0.31793 0.1535 0.34349 0.0
C34 C 0.34408 0.15389 0.33781 0.0
N35 N 0.354 0.14205 0.38171 0.0
N36 N 0.31114 0.14148 0.39079 0.0
C37 C 0.33354 0.13468 0.41333 0.0
H38 H 0.30461 0.16164 0.31536 0.0
Co39 Co 0.2768 0.13662 0.41188 0.0
C40 C 0.28171 0.12772 0.56034 0.0
O41 O 0.26842 0.14188 0.57592 0.0
N42 N 0.24136 0.13152 0.43162 0.0
C43 C 0.20168 0.13253 0.47365 0.0
C44 C 0.22594 0.13932 0.47809 0.0
C45 C 0.22552 0.1199 0.3997 0.0
N46 N 0.20131 0.12031 0.42411 0.0
O47 O 0.27966 0.11556 0.35916 0.0
H48 H 0.23126 0.15002 0.51152 0.0
H49 H 0.23144 0.11129 0.3589 0.0
O50 O 0.2866 0.12406 0.4979 0.0
C51 C 0.27528 0.12145 0.29934 0.0
O52 O 0.26648 0.13772 0.29308 0.0
N53 N 0.27459 0.15887 0.45197 0.0
C54 C 0.27426 0.19504 0.47866 0.0
C55 C 0.29228 0.18392 0.50988 0.0
C56 C 0.29255 0.16588 0.49441 0.0
C57 C 0.25762 0.16964 0.41947 0.0
C58 C 0.25671 0.1877 0.4332 0.0
H59 H 0.30759 0.15763 0.51486 0.0
H60 H 0.2452 0.16424 0.38082 0.0
H61 H 0.33482 0.12451 0.45193 0.0
H62 H 0.35495 0.16265 0.30521 0.0
H63 H 0.18534 0.13687 0.50288 0.0
H64 H 0.30645 0.18919 0.54447 0.0
H65 H 0.24322 0.19595 0.40597 0.0
C66 C 1.00845 0.1568 0.90385 0.0
C67 C 0.98235 0.15699 0.91088 0.0
N68 N 0.97241 0.1441 0.87152 0.0
N69 N 1.01521 0.14389 0.86009 0.0
C70 C 0.99282 0.13634 0.84105 0.0
H71 H 1.02177 0.16557 0.92903 0.0
Co72 Co 0.04956 0.13871 0.84046 0.0
C73 C 0.0454 0.12904 0.69205 0.0
O74 O 0.05949 0.14279 0.67604 0.0
N75 N 0.08501 0.13335 0.82235 0.0
C76 C 0.12487 0.13399 0.78139 0.0
C77 C 0.10074 0.14091 0.77595 0.0
C78 C 0.10061 0.12182 0.85561 0.0
N79 N 0.12488 0.12199 0.83171 0.0
O80 O 0.04624 0.11778 0.89424 0.0
H81 H 0.09573 0.15156 0.74195 0.0
H82 H 0.09449 0.11348 0.89707 0.0
O83 O 0.03988 0.12585 0.75456 0.0
C84 C 0.05006 0.12366 0.95433 0.0
O85 O 0.05793 0.14015 0.96124 0.0
N86 N 0.05236 0.16079 0.79913 0.0
C87 C 0.05556 0.19636 0.76456 0.0
C88 C 0.03738 0.18539 0.73351 0.0
C89 C 0.03548 0.16767 0.75337 0.0
C90 C 0.06913 0.17161 0.83223 0.0
C91 C 0.07135 0.18942 0.815 0.0
H92 H 1.0203 0.15954 0.73292 0.0
H93 H 0.08065 0.16637 0.87311 0.0
H94 H 0.99156 0.12527 0.8063 0.0
H95 H 0.97151 0.16623 0.94153 0.0
H96 H 0.14142 0.13811 0.75244 0.0
H97 H 1.02416 0.19065 0.69634 0.0
H98 H 0.08504 0.19773 0.84129 0.0
C99 C 0.33352 0.04923 0.95974 0.0
C100 C 0.35956 0.04859 0.953 0.0
N101 N 0.36745 0.06384 0.9243 0.0
N102 N 0.3247 0.06471 0.93446 0.0
C103 C 0.34596 0.07352 0.91374 0.0
H104 H 0.32156 0.03891 0.981 0.0
Co105 Co 0.28949 0.06998 0.93526 0.0
C106 C 0.28195 0.08261 0.79355 0.0
O107 O 0.26389 0.07058 0.78736 0.0
N108 N 0.25389 0.07531 0.94107 0.0
C109 C 0.2153 0.07625 0.98925 0.0
C110 C 0.23978 0.06989 0.99459 0.0
C111 C 0.23759 0.08588 0.90582 0.0
N112 N 0.2138 0.0863 0.93306 0.0
O113 O 0.29555 0.08942 0.99462 0.0
H114 H 0.24692 0.06186 0.03584 0.0
H115 H 0.24312 0.09392 0.86304 0.0
O116 O 0.29321 0.08477 0.85103 0.0
C117 C 0.29709 0.08266 0.05402 0.0
O118 O 0.29719 0.06528 0.05979 0.0
N119 N 0.28344 0.04926 0.88446 0.0
C120 C 0.27723 0.01594 0.82629 0.0
C121 C 0.29448 0.02812 0.79827 0.0
C122 C 0.29775 0.04461 0.82916 0.0
C123 C 0.26725 0.03721 0.91311 0.0
C124 C 0.26346 0.02065 0.88415 0.0
H125 H 0.31215 0.05353 0.80948 0.0
H126 H 0.25813 0.03989 0.96074 0.0
H127 H 0.34566 0.08648 0.89002 0.0
H128 H 0.37183 0.03767 0.96766 0.0
H129 H 0.19985 0.07358 0.02424 0.0
H130 H 0.30613 0.02464 0.75488 0.0
H131 H 0.25044 0.01138 0.90814 0.0
C132 C 0.0739 0.89797 0.74879 0.0
C133 C 0.09991 0.89577 0.74927 0.0
N134 N 0.1071 0.88877 0.68941 0.0
N135 N 0.06441 0.89232 0.68913 0.0
C136 C 0.08512 0.88681 0.65369 0.0
H137 H 0.06271 0.90391 0.78883 0.0
Co138 Co 1.02969 0.89445 0.66848 0.0
C139 C 1.02301 0.88241 0.52747 0.0
O140 O 1.0088 0.89663 0.5193 0.0
N141 N 0.99388 0.89646 0.65013 0.0
C142 C 0.95356 0.90506 0.63411 0.0
C143 C 0.9782 0.91068 0.64503 0.0
C144 C 0.97798 0.88237 0.64256 0.0
N145 N 0.95331 0.88718 0.63276 0.0
O146 O 1.02271 0.87479 0.72668 0.0
H147 H 0.98372 0.92441 0.64913 0.0
H148 H 0.9845 0.86877 0.64523 0.0
O149 O 0.03323 0.87922 0.58564 0.0
C150 C 1.01628 0.88181 0.78327 0.0
O151 O 1.01354 0.89914 0.78603 0.0
N152 N 0.03732 0.91515 0.62147 0.0
C153 C 0.04507 0.94888 0.57045 0.0
C154 C 0.05477 0.9341 0.5358 0.0
C155 C 0.05125 0.9172 0.56337 0.0
C156 C 1.03133 0.92954 0.65995 0.0
C157 C 0.03429 0.94658 0.63458 0.0
H158 H 0.05939 0.90591 0.53756 0.0
H159 H 1.02301 0.9277 0.70961 0.0
H160 H 0.08416 0.88183 0.60234 0.0
H161 H 0.11264 0.89986 0.78956 0.0
H162 H 0.93718 0.91363 0.62735 0.0
H163 H 0.06419 0.93555 0.48722 0.0
H164 H 1.0277 0.95782 0.66409 0.0
C165 C 0.7463 0.81765 0.69445 0.0
C166 C 0.72011 0.81835 0.69686 0.0
N167 N 0.71182 0.82868 0.64558 0.0
N168 N 0.75478 0.8275 0.64207 0.0
C169 C 0.73332 0.83408 0.61304 0.0
H170 H 0.75843 0.80999 0.7278 0.0
Co171 Co 0.78955 0.82917 0.6204 0.0
C172 C 0.79019 0.84017 0.4759 0.0
O173 O 0.80535 0.82664 0.4644 0.0
N174 N 0.82566 0.83094 0.59994 0.0
C175 C 0.86563 0.82602 0.56461 0.0
C176 C 0.84123 0.81941 0.56713 0.0
C177 C 0.84156 0.84457 0.61631 0.0
N178 N 0.866 0.84187 0.59597 0.0
O179 O 0.79159 0.84971 0.67631 0.0
H180 H 0.83549 0.80709 0.5438 0.0
H181 H 0.83542 0.85628 0.64324 0.0
O182 O 0.78203 0.84319 0.53639 0.0
C183 C 0.79736 0.84317 0.73425 0.0
O184 O 0.80293 0.82618 0.73783 0.0
N185 N 0.7867 0.80748 0.57716 0.0
C186 C 0.78218 0.77233 0.53818 0.0
C187 C 0.76818 0.78556 0.50458 0.0
C188 C 0.77023 0.80314 0.52614 0.0
C189 C 0.7984 0.79455 0.61407 0.0
C190 C 0.79695 0.77691 0.59449 0.0
H191 H 0.75846 0.81316 0.50247 0.0
H192 H 0.80941 0.79806 0.65842 0.0
H193 H 0.73344 0.84243 0.56842 0.0
H194 H 0.7081 0.81115 0.73206 0.0
H195 H 0.88169 0.81967 0.54003 0.0
H196 H 0.75593 0.78236 0.46206 0.0
H197 H 0.80714 0.76694 0.6234 0.0
C198 C 0.05913 0.8149 0.07064 0.0
C199 C 0.08527 0.81519 0.06526 0.0
N200 N 0.09472 0.82566 0.11463 0.0
N201 N 0.05176 0.82515 0.12305 0.0
C202 C 0.0739 0.83154 0.1492 0.0
H203 H 0.04625 0.80732 0.03904 0.0
Co204 Co 1.01708 0.82759 0.14617 0.0
C205 C 1.01758 0.83814 0.29112 0.0
O206 O 1.00218 0.82473 0.30265 0.0
N207 N 0.98112 0.83011 0.16775 0.0
C208 C 0.94109 0.8258 0.2039 0.0
C209 C 0.96529 0.81886 0.20113 0.0
C210 C 0.96556 0.84393 0.15126 0.0
N211 N 0.94109 0.8416 0.17208 0.0
O212 O 1.01581 0.84836 0.09114 0.0
H213 H 0.97071 0.80645 0.22434 0.0
H214 H 0.97195 0.8555 0.12371 0.0
O215 O 1.02558 0.8412 0.2305 0.0
C216 C 1.00952 0.84211 0.03312 0.0
O217 O 1.00307 0.82527 0.02918 0.0
N218 N 1.01902 0.80567 0.18845 0.0
C219 C 1.0243 0.76999 0.22082 0.0
C220 C 0.03813 0.78298 0.25648 0.0
C221 C 0.03577 0.80079 0.23808 0.0
C222 C 1.00668 0.79313 0.15101 0.0
C223 C 1.00862 0.77526 0.1671 0.0
H224 H 0.04788 0.81053 0.26224 0.0
H225 H 0.99532 0.79709 0.10784 0.0
H226 H 0.07474 0.84018 0.19291 0.0
H227 H 0.09646 0.80767 0.02917 0.0
H228 H 0.9249 0.81969 0.22878 0.0
H229 H 0.05096 0.7794 0.29728 0.0
H230 H 0.99855 0.76564 0.13624 0.0
C231 C 0.73513 0.89948 0.01437 0.0
C232 C 0.70908 0.89774 0.01181 0.0
N233 N 0.7008 0.89176 0.07229 0.0
N234 N 0.74366 0.89453 0.07596 0.0
C235 C 0.72222 0.88999 0.11062 0.0
H236 H 0.74705 0.90456 0.97407 0.0
Co237 Co 0.7785 0.89604 0.09755 0.0
C238 C 0.78452 0.88431 0.23928 0.0
O239 O 0.79944 0.8982 0.24698 0.0
N240 N 0.81435 0.89745 0.11667 0.0
C241 C 0.85482 0.90564 0.13325 0.0
C242 C 0.83032 0.91151 0.12208 0.0
C243 C 0.82994 0.8832 0.12444 0.0
N244 N 0.8547 0.88776 0.13451 0.0
O245 O 0.78485 0.87596 0.04082 0.0
H246 H 0.82503 0.92529 0.11809 0.0
H247 H 0.82314 0.86966 0.12165 0.0
O248 O 0.77405 0.88128 0.18131 0.0
C249 C 0.79221 0.88271 0.9845 0.0
O250 O 0.79615 0.89993 0.98166 0.0
N251 N 0.77173 0.91717 0.14245 0.0
C252 C 0.76593 0.95176 0.18713 0.0
C253 C 0.75673 0.93758 0.22636 0.0
C254 C 0.75899 0.92025 0.20173 0.0
C255 C 0.77764 0.93091 0.10053 0.0
C256 C 0.77548 0.94833 0.12231 0.0
H257 H 0.75081 0.90949 0.23059 0.0
H258 H 0.78541 0.92826 0.05083 0.0
H259 H 0.72229 0.88573 0.16299 0.0
H260 H 0.69707 0.90136 0.96936 0.0
H261 H 0.87138 0.91404 0.14026 0.0
H262 H 0.74803 0.93987 0.27541 0.0
H263 H 0.78233 0.95891 0.08982 0.0
C264 C 0.99712 0.57096 0.75592 0.0
C265 C 0.97115 0.57295 0.75179 0.0
N266 N 0.96237 0.57833 0.81253 0.0
N267 N 1.00513 0.5752 0.81878 0.0
C268 C 0.98341 0.57954 0.85259 0.0
H269 H 1.00931 0.56617 0.71573 0.0
Co270 Co 0.03979 0.57314 0.84234 0.0
C271 C 0.04527 0.58492 0.98375 0.0
O272 O 0.05933 0.57064 0.99232 0.0
N273 N 0.07541 0.57123 0.86315 0.0
C274 C 0.11603 0.56285 0.87573 0.0
C275 C 0.09143 0.55712 0.86445 0.0
C276 C 0.09103 0.58536 0.87367 0.0
N277 N 0.1158 0.58066 0.88137 0.0
O278 O 0.04732 0.59292 0.78515 0.0
H279 H 0.08618 0.54347 0.85614 0.0
H280 H 0.08437 0.59897 0.87339 0.0
O281 O 0.03536 0.58821 0.92527 0.0
C282 C 0.055 0.586 0.72949 0.0
O283 O 0.05847 0.56872 0.72724 0.0
N284 N 1.03187 0.5523 0.88817 0.0
C285 C 1.02288 0.51821 0.93518 0.0
C286 C 1.01377 0.53292 0.97148 0.0
C287 C 1.01774 0.54997 0.94573 0.0
C288 C 0.03799 0.53811 0.84881 0.0
C289 C 0.0343 0.52092 0.87196 0.0
H290 H 1.00956 0.56114 0.97224 0.0
H291 H 0.04665 0.5402 0.79971 0.0
H292 H 0.98297 0.58325 0.90556 0.0
H293 H 0.95947 0.56986 0.7081 0.0
H294 H 0.13282 0.55451 0.87882 0.0
H295 H 1.00367 0.53125 0.01898 0.0
H296 H 0.0411 0.50991 0.84154 0.0
C297 C 0.3214 0.64291 0.79305 0.0
C298 C 0.3476 0.6424 0.79345 0.0
N299 N 0.35546 0.63897 0.85704 0.0
N300 N 0.31245 0.63963 0.85591 0.0
C301 C 0.33374 0.63744 0.89421 0.0
H302 H 0.30967 0.64595 0.74956 0.0
Co303 Co 0.27733 0.63952 0.87542 0.0
C304 C 0.27163 0.62724 0.0169 0.0
O305 O 0.25431 0.63973 0.02392 0.0
N306 N 0.24125 0.63921 0.8925 0.0
C307 C 0.19988 0.64575 0.90342 0.0
C308 C 0.22412 0.65261 0.89762 0.0
C309 C 0.22663 0.62434 0.89561 0.0
N310 N 0.20137 0.62791 0.90175 0.0
O311 O 0.27353 0.61909 0.81896 0.0
H312 H 0.22837 0.66659 0.89558 0.0
H313 H 0.23445 0.61107 0.89245 0.0
O314 O 0.28291 0.62516 0.95944 0.0
C315 C 0.26575 0.62534 0.76223 0.0
O316 O 0.2599 0.64229 0.75886 0.0
N317 N 0.28146 0.66102 0.92014 0.0
C318 C 0.28209 0.6959 0.96432 0.0
C319 C 0.29198 0.68233 0.00548 0.0
C320 C 0.29225 0.6649 0.98136 0.0
C321 C 0.27497 0.67433 0.87677 0.0
C322 C 0.27453 0.69184 0.89821 0.0
H323 H 0.30089 0.6547 0.01211 0.0
H324 H 0.26859 0.67116 0.82614 0.0
H325 H 0.33335 0.63496 0.94822 0.0
H326 H 0.35995 0.64512 0.75067 0.0
H327 H 0.18242 0.65343 0.90567 0.0
H328 H 0.29931 0.68517 0.05565 0.0
H329 H 0.26726 0.70195 0.86423 0.0
C330 C 1.0036 0.64278 0.44956 0.0
C331 C 0.97739 0.64215 0.44978 0.0
N332 N 0.96938 0.63822 0.38676 0.0
N333 N 1.01238 0.63908 0.38688 0.0
C334 C 0.99099 0.63643 0.34942 0.0
H335 H 1.01546 0.64624 0.49235 0.0
Co336 Co 0.04738 0.63929 0.36564 0.0
C337 C 0.05183 0.62784 0.2235 0.0
O338 O 0.06804 0.64101 0.21592 0.0
N339 N 0.08336 0.63925 0.34651 0.0
C340 C 0.12461 0.64581 0.33229 0.0
C341 C 0.10035 0.65264 0.33814 0.0
C342 C 0.09807 0.62442 0.3447 0.0
N343 N 0.12326 0.62801 0.33695 0.0
O344 O 0.05182 0.61885 0.42187 0.0
H345 H 0.09602 0.66662 0.3376 0.0
H346 H 0.09038 0.61116 0.35 0.0
O347 O 0.04152 0.62503 0.28178 0.0
C348 C 0.0596 0.6252 0.47842 0.0
O349 O 0.06519 0.6422 0.4815 0.0
N350 N 0.04244 0.6608 0.3215 0.0
C351 C 0.03516 0.69586 0.28384 0.0
C352 C 1.02522 0.68212 0.24384 0.0
C353 C 1.02866 0.66452 0.2644 0.0
C354 C 0.04993 0.67413 0.3636 0.0
C355 C 0.04718 0.69175 0.34495 0.0
H356 H 1.0198 0.6541 0.2352 0.0
H357 H 0.0586 0.67098 0.4118 0.0
H358 H 0.99121 0.63353 0.29573 0.0
H359 H 0.96514 0.64523 0.49239 0.0
H360 H 0.14199 0.65352 0.32786 0.0
H361 H 1.01489 0.68495 0.19752 0.0
H362 H 0.05403 0.70208 0.37859 0.0
C363 C 0.32773 0.56976 0.48345 0.0
C364 C 0.35369 0.57183 0.48751 0.0
N365 N 0.36231 0.57775 0.42733 0.0
N366 N 0.31958 0.57449 0.42122 0.0
C367 C 0.3412 0.57916 0.3876 0.0
H368 H 0.31562 0.56468 0.52331 0.0
Co369 Co 0.28482 0.57284 0.39894 0.0
C370 C 0.27872 0.58487 0.25758 0.0
O371 O 0.26385 0.57096 0.24946 0.0
N372 N 0.24906 0.57129 0.3796 0.0
C373 C 0.20827 0.56312 0.36941 0.0
C374 C 0.23282 0.5573 0.38039 0.0
C375 C 0.23361 0.58547 0.36845 0.0
N376 N 0.20874 0.58087 0.36202 0.0
O377 O 0.27808 0.59274 0.45599 0.0
H378 H 0.23788 0.54368 0.39016 0.0
H379 H 0.24047 0.59902 0.36725 0.0
O380 O 0.28923 0.58782 0.31559 0.0
C381 C 0.27053 0.58591 0.51198 0.0
O382 O 0.26677 0.56866 0.51456 0.0
N383 N 0.29187 0.55186 0.35315 0.0
C384 C 0.29503 0.51776 0.30233 0.0
C385 C 0.30514 0.53206 0.26535 0.0
C386 C 0.30425 0.5491 0.29314 0.0
C387 C 0.28581 0.53784 0.39353 0.0
C388 C 0.28664 0.52064 0.36867 0.0
H389 H 0.31274 0.55998 0.26551 0.0
H390 H 0.27864 0.54016 0.44412 0.0
H391 H 0.3415 0.58333 0.33511 0.0
H392 H 0.36545 0.56849 0.53078 0.0
H393 H 0.19134 0.55487 0.36775 0.0
H394 H 0.3131 0.53012 0.21521 0.0
H395 H 0.27932 0.50991 0.39968 0.0
C396 C 0.06118 0.40051 0.21271 0.0
C397 C 0.08737 0.39976 0.21288 0.0
N398 N 0.09517 0.39126 0.15646 0.0
N399 N 0.05212 0.39246 0.1567 0.0
C400 C 0.0733 0.387 0.12301 0.0
H401 H 0.04948 0.407 0.2504 0.0
Co402 Co 1.01693 0.39176 0.13855 0.0
C403 C 1.01123 0.37867 0.9982 0.0
O404 O 0.99425 0.39133 0.99004 0.0
N405 N 0.98055 0.39107 0.12281 0.0
C406 C 0.93945 0.39773 0.10568 0.0
C407 C 0.96401 0.40414 0.10547 0.0
C408 C 0.96516 0.37674 0.13214 0.0
N409 N 0.94005 0.38045 0.12299 0.0
O410 O 1.01396 0.37179 0.1977 0.0
H411 H 0.96891 0.41766 0.09325 0.0
H412 H 0.97226 0.36377 0.14614 0.0
O413 O 1.02231 0.37675 0.056 0.0
C414 C 1.00766 0.37847 0.25499 0.0
O415 O 1.0028 0.39557 0.25804 0.0
N416 N 1.02063 0.41284 0.09106 0.0
C417 C 1.02449 0.44729 0.04298 0.0
C418 C 0.03481 0.43313 0.00571 0.0
C419 C 0.0334 0.41594 0.03188 0.0
C420 C 1.01306 0.42666 0.13077 0.0
C421 C 1.01419 0.44397 0.1071 0.0
H422 H 0.04276 0.4053 0.00494 0.0
H423 H 1.00502 0.42407 0.18026 0.0
H424 H 0.07271 0.38028 0.0746 0.0
H425 H 0.0997 0.40574 0.2505 0.0
H426 H 0.92243 0.40548 0.09606 0.0
H427 H 0.04416 0.43538 0.95747 0.0
H428 H 1.00646 0.45456 0.13806 0.0
C429 C 0.73343 0.29947 0.20864 0.0
C430 C 0.70743 0.29846 0.20154 0.0
N431 N 0.69909 0.31373 0.17383 0.0
N432 N 0.7418 0.31522 0.18476 0.0
C433 C 0.72031 0.3238 0.16438 0.0
H434 H 0.74566 0.28923 0.22922 0.0
Co435 Co 0.77688 0.32088 0.1863 0.0
C436 C 0.78455 0.33503 0.04686 0.0
O437 O 0.80337 0.32361 0.04006 0.0
N438 N 0.81233 0.32648 0.19303 0.0
C439 C 0.85045 0.32725 0.24345 0.0
C440 C 0.82617 0.32046 0.24595 0.0
C441 C 0.82859 0.33781 0.16098 0.0
N442 N 0.85219 0.33813 0.18954 0.0
O443 O 0.77044 0.33977 0.2481 0.0
H444 H 0.81883 0.31192 0.2855 0.0
H445 H 0.82316 0.3462 0.11917 0.0
O446 O 0.77281 0.33637 0.10405 0.0
C447 C 0.76885 0.33285 0.30722 0.0
O448 O 0.76858 0.31545 0.31231 0.0
N449 N 0.7834 0.30074 0.1325 0.0
C450 C 0.79177 0.26887 0.06462 0.0
C451 C 0.77404 0.28123 0.03977 0.0
C452 C 0.76957 0.29685 0.07561 0.0
C453 C 0.79974 0.28845 0.1588 0.0
C454 C 0.80451 0.27258 0.12526 0.0
H455 H 0.75499 0.30585 0.0576 0.0
H456 H 0.80833 0.2904 0.20764 0.0
H457 H 0.72026 0.33687 0.14159 0.0
H458 H 0.69549 0.28728 0.21531 0.0
H459 H 0.86531 0.32483 0.28039 0.0
H460 H 0.76345 0.27881 0.99356 0.0
H461 H 0.81727 0.263 0.14827 0.0
C462 C 0.06651 0.32423 0.52657 0.0
C463 C 0.09246 0.32635 0.52196 0.0
N464 N 0.1014 0.33147 0.58289 0.0
N465 N 0.05872 0.3281 0.58996 0.0
C466 C 0.08046 0.33244 0.62343 0.0
H467 H 0.05421 0.31944 0.48659 0.0
Co468 Co 1.02454 0.32501 0.61563 0.0
C469 C 1.02015 0.33553 0.75884 0.0
O470 O 1.00751 0.32062 0.76729 0.0
N471 N 0.98931 0.32199 0.63892 0.0
C472 C 0.9497 0.31229 0.65845 0.0
C473 C 0.97456 0.30734 0.64603 0.0
C474 C 0.97272 0.33563 0.64758 0.0
N475 N 0.94848 0.33014 0.65911 0.0
O476 O 1.01565 0.34505 0.56099 0.0
H477 H 0.9809 0.29377 0.6422 0.0
H478 H 0.97833 0.34942 0.64381 0.0
O479 O 1.02896 0.33958 0.69979 0.0
C480 C 1.00784 0.33849 0.50484 0.0
O481 O 1.00434 0.32123 0.50123 0.0
N482 N 0.03405 0.30403 0.65815 0.0
C483 C 0.04914 0.26981 0.69195 0.0
C484 C 0.05699 0.28432 0.73151 0.0
C485 C 0.04974 0.30149 0.71264 0.0
C486 C 1.02829 0.29025 0.61638 0.0
C487 C 0.03491 0.27301 0.63319 0.0
H488 H 0.05718 0.3126 0.74097 0.0
H489 H 1.01799 0.29269 0.56985 0.0
H490 H 0.08101 0.33579 0.67672 0.0
H491 H 0.104 0.32335 0.47789 0.0
H492 H 0.9338 0.30334 0.66652 0.0
H493 H 0.06895 0.28245 0.77572 0.0
H494 H 1.02849 0.26231 0.60075 0.0
C495 C 0.74335 0.4006 0.58347 0.0
C496 C 0.71733 0.40023 0.57492 0.0
N497 N 0.70714 0.38957 0.62268 0.0
N498 N 0.74979 0.39023 0.63641 0.0
C499 C 0.72733 0.38364 0.65942 0.0
H500 H 0.75679 0.40821 0.55362 0.0
Co501 Co 0.78382 0.38735 0.66349 0.0
C502 C 0.77852 0.37921 0.81144 0.0
O503 O 0.79093 0.39389 0.82521 0.0
N504 N 0.81914 0.38428 0.68967 0.0
C505 C 0.85771 0.38775 0.7365 0.0
C506 C 0.83341 0.3944 0.73206 0.0
C507 C 0.8357 0.3714 0.66958 0.0
N508 N 0.8593 0.37328 0.69693 0.0
O509 O 0.78436 0.36581 0.61307 0.0
H510 H 0.82696 0.40607 0.75874 0.0
H511 H 0.83077 0.3609 0.63472 0.0
O512 O 0.77372 0.37498 0.74948 0.0
C513 C 0.79056 0.37127 0.55381 0.0
O514 O 0.79932 0.38756 0.54775 0.0
N515 N 0.78253 0.40994 0.70073 0.0
C516 C 0.77854 0.44619 0.72326 0.0
C517 C 0.76177 0.43436 0.75557 0.0
C518 C 0.76365 0.41622 0.74211 0.0
C519 C 0.79799 0.4214 0.66642 0.0
C520 C 0.7968 0.43953 0.67821 0.0
H521 H 0.7496 0.40728 0.76333 0.0
H522 H 0.81123 0.41639 0.62894 0.0
H523 H 0.72582 0.37477 0.70237 0.0
H524 H 0.7067 0.4078 0.53778 0.0
H525 H 0.87294 0.39314 0.76737 0.0
H526 H 0.74679 0.43913 0.78876 0.0
H527 H 0.8099 0.44824 0.6517 0.0
C528 C 0.50942 0.07075 0.80641 0.0
C529 C 0.48348 0.06895 0.80037 0.0
N530 N 0.47247 0.07505 0.85742 0.0
N531 N 0.51512 0.07803 0.86694 0.0
C532 C 0.49206 0.08065 0.89705 0.0
H533 H 0.52335 0.06619 0.76994 0.0
Co534 Co 0.54944 0.08 0.89431 0.0
C535 C 0.5479 0.09063 0.03827 0.0
O536 O 0.56334 0.07725 0.04982 0.0
N537 N 0.58506 0.08203 0.91991 0.0
C538 C 0.6248 0.07698 0.9566 0.0
C539 C 0.60064 0.07011 0.95058 0.0
C540 C 0.6007 0.09616 0.90857 0.0
N541 N 0.62504 0.09339 0.92957 0.0
O542 O 0.55227 0.10075 0.83928 0.0
H543 H 0.59505 0.05727 0.96969 0.0
H544 H 0.59445 0.10824 0.88422 0.0
O545 O 0.54003 0.09373 0.97756 0.0
C546 C 0.56087 0.09483 0.78284 0.0
O547 O 0.56895 0.07831 0.78038 0.0
N548 N 0.54605 0.05814 0.93648 0.0
C549 C 0.53917 0.02262 0.96854 0.0
C550 C 0.52578 0.0358 0.00403 0.0
C551 C 0.52906 0.05357 0.98607 0.0
C552 C 0.55783 0.04537 0.89891 0.0
C553 C 0.55519 0.02755 0.91507 0.0
H554 H 0.51743 0.0635 0.01068 0.0
H555 H 0.56944 0.04912 0.8559 0.0
H556 H 0.48975 0.08545 0.94838 0.0
H557 H 0.47349 0.0629 0.75824 0.0
H558 H 0.64083 0.07031 0.97998 0.0
H559 H 0.51266 0.0324 0.04447 0.0
H560 H 0.565 0.0177 0.88466 0.0
C561 C 0.83046 0.14561 0.76159 0.0
C562 C 0.85641 0.14351 0.75713 0.0
N563 N 0.86544 0.13922 0.81883 0.0
N564 N 0.82272 0.14249 0.82568 0.0
C565 C 0.84458 0.13873 0.8598 0.0
H566 H 0.81814 0.14977 0.7207 0.0
Co567 Co 0.78829 0.14523 0.85044 0.0
C568 C 0.78297 0.13398 0.99274 0.0
O569 O 0.76974 0.14864 1.00127 0.0
N570 N 0.75284 0.14779 0.87283 0.0
C571 C 0.71289 0.15677 0.89228 0.0
C572 C 0.7375 0.16217 0.87883 0.0
C573 C 0.7368 0.13387 0.88262 0.0
N574 N 0.71237 0.1389 0.89447 0.0
O575 O 0.77975 0.12541 0.79431 0.0
H576 H 0.74328 0.17582 0.87341 0.0
H577 H 0.74303 0.1202 0.87974 0.0
O578 O 0.7925 0.13032 0.93409 0.0
C579 C 0.77174 0.13242 0.7391 0.0
O580 O 0.76872 0.14973 0.73694 0.0
N581 N 0.79714 0.16609 0.89463 0.0
C582 C 0.80417 0.2003 0.94101 0.0
C583 C 0.81422 0.18596 0.97765 0.0
C584 C 0.81109 0.16877 0.95227 0.0
C585 C 0.79107 0.18005 0.854 0.0
C586 C 0.79381 0.19733 0.87685 0.0
H587 H 0.81913 0.15774 0.97997 0.0
H588 H 0.78252 0.1777 0.805 0.0
H589 H 0.84526 0.13601 0.91361 0.0
H590 H 0.86791 0.14587 0.7124 0.0
H591 H 0.69669 0.16547 0.89987 0.0
H592 H 0.82328 0.18794 0.02642 0.0
H593 H 0.78687 0.20821 0.84598 0.0
C594 C 0.49461 0.14843 0.50233 0.0
C595 C 0.46863 0.14628 0.50539 0.0
N596 N 0.46038 0.14048 0.44473 0.0
N597 N 0.5031 0.14386 0.44024 0.0
C598 C 0.4817 0.13916 0.40582 0.0
H599 H 0.50646 0.15353 0.54266 0.0
Co600 Co 0.53779 0.14592 0.41736 0.0
C601 C 0.54333 0.13417 0.27587 0.0
O602 O 0.55774 0.14831 0.26768 0.0
N603 N 0.57346 0.14783 0.39711 0.0
C604 C 0.61413 0.15622 0.38566 0.0
C605 C 0.58954 0.16191 0.39734 0.0
C606 C 0.58903 0.13374 0.3855 0.0
N607 N 0.61383 0.13846 0.37831 0.0
O608 O 0.5452 0.12616 0.47491 0.0
H609 H 0.58435 0.17551 0.40701 0.0
H610 H 0.5823 0.12015 0.38447 0.0
O611 O 0.53342 0.13088 0.33436 0.0
C612 C 0.55236 0.13329 0.5307 0.0
O613 O 0.55536 0.15062 0.53259 0.0
N614 N 0.52997 0.16674 0.37118 0.0
C615 C 0.5212 0.20075 0.32316 0.0
C616 C 0.51208 0.18599 0.28717 0.0
C617 C 0.51592 0.16899 0.31346 0.0
C618 C 0.53606 0.181 0.41025 0.0
C619 C 0.53247 0.19815 0.3866 0.0
H620 H 0.50768 0.1578 0.28724 0.0
H621 H 0.54454 0.179 0.45957 0.0
H622 H 0.48168 0.13512 0.3532 0.0
H623 H 0.45659 0.14956 0.54823 0.0
H624 H 0.63096 0.16455 0.3834 0.0
H625 H 0.50208 0.1876 0.23952 0.0
H626 H 0.53923 0.2092 0.41681 0.0
C627 C 0.81945 0.07516 0.45628 0.0
C628 C 0.84565 0.07558 0.45558 0.0
N629 N 0.85345 0.07938 0.39221 0.0
N630 N 0.81044 0.07887 0.39385 0.0
C631 C 0.83169 0.08123 0.3555 0.0
H632 H 0.80773 0.07194 0.49965 0.0
Co633 Co 0.77534 0.07937 0.37445 0.0
C634 C 0.77017 0.09191 0.23296 0.0
O635 O 0.75226 0.07983 0.22567 0.0
N636 N 0.73924 0.08005 0.35735 0.0
C637 C 0.69787 0.07367 0.34493 0.0
C638 C 0.72209 0.06675 0.34951 0.0
C639 C 0.72463 0.09495 0.35686 0.0
N640 N 0.69937 0.09146 0.34999 0.0
O641 O 0.77207 0.09979 0.4312 0.0
H642 H 0.72632 0.05276 0.34849 0.0
H643 H 0.73246 0.10817 0.36241 0.0
O644 O 0.7814 0.0937 0.29059 0.0
C645 C 0.76431 0.09354 0.48798 0.0
O646 O 0.758 0.07667 0.49108 0.0
N647 N 0.77898 0.05786 0.32964 0.0
C648 C 0.7794 0.0229 0.28623 0.0
C649 C 0.78925 0.0364 0.24462 0.0
C650 C 0.78962 0.05387 0.26832 0.0
C651 C 0.77235 0.04463 0.37326 0.0
C652 C 0.77182 0.02708 0.35222 0.0
H653 H 0.79835 0.06399 0.23732 0.0
H654 H 0.76598 0.04788 0.42382 0.0
H655 H 0.83124 0.08408 0.30176 0.0
H656 H 0.85805 0.07256 0.49796 0.0
H657 H 0.68042 0.06603 0.34103 0.0
H658 H 0.79658 0.03346 0.19452 0.0
H659 H 0.76454 0.01704 0.38647 0.0
C660 C 0.55914 0.90408 0.1844 0.0
C661 C 0.58528 0.90367 0.18962 0.0
N662 N 0.59459 0.89312 0.14028 0.0
N663 N 0.55165 0.89382 0.13213 0.0
C664 C 0.5737 0.88731 0.10595 0.0
H665 H 0.54635 0.91176 0.21591 0.0
Co666 Co 0.51699 0.89158 0.10879 0.0
C667 C 0.51723 0.8805 0.96497 0.0
O668 O 0.50174 0.89384 0.95335 0.0
N669 N 0.48101 0.88923 0.08707 0.0
C670 C 0.44095 0.89357 0.05132 0.0
C671 C 0.46511 0.90058 0.05452 0.0
C672 C 0.46555 0.87527 0.10257 0.0
N673 N 0.44106 0.87762 0.08199 0.0
O674 O 0.51523 0.8711 0.16506 0.0
H675 H 0.47046 0.91308 0.03185 0.0
H676 H 0.47203 0.86359 0.12915 0.0
O677 O 0.52538 0.87757 0.0255 0.0
C678 C 0.50886 0.87753 0.22271 0.0
O679 O 0.50263 0.89441 0.226 0.0
N680 N 0.5195 0.91323 0.06477 0.0
C681 C 0.52578 0.94852 0.02846 0.0
C682 C 0.53956 0.93517 0.99493 0.0
C683 C 0.53661 0.91754 0.01514 0.0
C684 C 0.50735 0.92619 0.10053 0.0
C685 C 0.50968 0.94388 0.08219 0.0
H686 H 0.54861 0.90749 0.99245 0.0
H687 H 0.49578 0.92269 0.14393 0.0
H688 H 0.57443 0.87865 0.06225 0.0
H689 H 0.59658 0.91118 0.22549 0.0
H690 H 0.42474 0.89973 0.02682 0.0
H691 H 0.55279 0.93835 0.95449 0.0
H692 H 0.49965 0.95388 0.11132 0.0
C693 C 0.23554 0.81906 0.23813 0.0
C694 C 0.2095 0.82082 0.24109 0.0
N695 N 0.20111 0.82681 0.18077 0.0
N696 N 0.24397 0.82401 0.17644 0.0
C697 C 0.22248 0.82857 0.14211 0.0
H698 H 0.24753 0.81399 0.27827 0.0
Co699 Co 0.27884 0.82252 0.1547 0.0
C700 C 0.28488 0.83386 0.0126 0.0
O701 O 0.29977 0.81993 0.00549 0.0
N702 N 0.3147 0.82114 0.13547 0.0
C703 C 0.35525 0.81309 0.11916 0.0
C704 C 0.33077 0.80713 0.13038 0.0
C705 C 0.3302 0.83544 0.12743 0.0
N706 N 0.355 0.83097 0.11755 0.0
O707 O 0.28518 0.84274 0.21076 0.0
H708 H 0.32559 0.79334 0.1347 0.0
H709 H 0.32329 0.84896 0.12997 0.0
O710 O 0.27438 0.83707 0.07043 0.0
C711 C 0.29269 0.83605 0.267 0.0
O712 O 0.29651 0.81882 0.27008 0.0
N713 N 0.2721 0.80128 0.11047 0.0
C714 C 0.26693 0.76667 0.06563 0.0
C715 C 0.25736 0.78077 0.02664 0.0
C716 C 0.25931 0.7981 0.05139 0.0
C717 C 0.27824 0.78758 0.15235 0.0
C718 C 0.2764 0.77015 0.13047 0.0
H719 H 0.25093 0.80881 0.02264 0.0
H720 H 0.28603 0.79029 0.20198 0.0
H721 H 0.22247 0.83286 0.08976 0.0
H722 H 0.19757 0.8172 0.28373 0.0
H723 H 0.37188 0.80475 0.11246 0.0
H724 H 0.24871 0.77842 0.9776 0.0
H725 H 0.28349 0.75962 0.16282 0.0
C726 C 0.57355 0.82265 0.50378 0.0
C727 C 0.59961 0.82461 0.50318 0.0
N728 N 0.6071 0.83065 0.56427 0.0
N729 N 0.56432 0.82752 0.56475 0.0
C730 C 0.58525 0.83232 0.6008 0.0
H731 H 0.56216 0.81737 0.46283 0.0
Co732 Co 0.52963 0.82525 0.58637 0.0
C733 C 0.52353 0.83667 0.72806 0.0
O734 O 0.50951 0.82233 0.7359 0.0
N735 N 0.49388 0.82313 0.60596 0.0
C736 C 0.45373 0.81444 0.62428 0.0
C737 C 0.47833 0.80887 0.6124 0.0
C738 C 0.47793 0.83719 0.61385 0.0
N739 N 0.45335 0.83233 0.62498 0.0
O740 O 0.52236 0.8451 0.52938 0.0
H741 H 0.48394 0.79515 0.60882 0.0
H742 H 0.48437 0.8508 0.61052 0.0
O743 O 0.53347 0.84014 0.66978 0.0
C744 C 0.51554 0.83812 0.47307 0.0
O745 O 0.51269 0.82079 0.47036 0.0
N746 N 0.5375 0.80438 0.63184 0.0
C747 C 0.54604 0.77037 0.67914 0.0
C748 C 0.55567 0.78498 0.71492 0.0
C749 C 0.55173 0.80203 0.68923 0.0
C750 C 0.5314 0.7902 0.59233 0.0
C751 C 0.53478 0.77302 0.61583 0.0
H752 H 0.55983 0.8132 0.71588 0.0
H753 H 0.52272 0.7923 0.5433 0.0
H754 H 0.58454 0.83655 0.65315 0.0
H755 H 0.61216 0.82097 0.46186 0.0
H756 H 0.43746 0.80583 0.63212 0.0
H757 H 0.56539 0.78328 0.76294 0.0
H758 H 0.52817 0.76193 0.58552 0.0
C759 C 0.246 0.89877 0.55457 0.0
C760 C 0.21983 0.89788 0.55227 0.0
N761 N 0.21159 0.88844 0.60604 0.0
N762 N 0.25452 0.88989 0.60935 0.0
C763 C 0.23311 0.88371 0.63991 0.0
H764 H 0.25806 0.90597 0.51958 0.0
Co765 Co 0.28925 0.88917 0.63169 0.0
C766 C 0.29144 0.8772 0.77409 0.0
O767 O 0.30682 0.89068 0.78478 0.0
N768 N 0.32534 0.88837 0.65226 0.0
C769 C 0.3655 0.89433 0.68329 0.0
C770 C 0.34101 0.90078 0.67953 0.0
C771 C 0.34122 0.87441 0.64061 0.0
N772 N 0.3658 0.87771 0.65828 0.0
O773 O 0.29277 0.86909 0.57408 0.0
H774 H 0.33534 0.91364 0.69819 0.0
H775 H 0.33488 0.86202 0.61884 0.0
O776 O 0.28248 0.87442 0.71425 0.0
C777 C 0.29904 0.87571 0.51667 0.0
O778 O 0.30435 0.89275 0.51354 0.0
N779 N 0.28473 0.91038 0.67758 0.0
C780 C 0.27638 0.94487 0.72125 0.0
C781 C 0.26435 0.93058 0.75393 0.0
C782 C 0.26827 0.91338 0.73008 0.0
C783 C 0.29454 0.92424 0.64166 0.0
C784 C 0.29124 0.94158 0.66364 0.0
H785 H 0.2577 0.90262 0.75291 0.0
H786 H 0.30557 0.92171 0.59634 0.0
H787 H 0.23327 0.87625 0.68675 0.0
H788 H 0.20779 0.90447 0.51545 0.0
H789 H 0.38168 0.9014 0.70409 0.0
H790 H 0.25174 0.93271 0.7967 0.0
H791 H 0.30063 0.95223 0.63638 0.0
C792 C 0.50521 0.56423 0.33391 0.0
C793 C 0.47913 0.56417 0.32693 0.0
N794 N 0.46917 0.57608 0.37049 0.0
N795 N 0.51199 0.57612 0.38167 0.0
C796 C 0.48958 0.58315 0.40335 0.0
H797 H 0.5185 0.55595 0.30629 0.0
Co798 Co 0.54653 0.58017 0.40303 0.0
C799 C 0.54381 0.59003 0.55014 0.0
O800 O 0.55799 0.57619 0.56436 0.0
N801 N 0.5823 0.58434 0.42254 0.0
C802 C 0.62238 0.58211 0.46125 0.0
C803 C 0.59807 0.57535 0.46498 0.0
C804 C 0.59803 0.59658 0.39372 0.0
N805 N 0.62243 0.59544 0.41609 0.0
O806 O 0.54501 0.60113 0.34932 0.0
H807 H 0.59281 0.5641 0.49584 0.0
H808 H 0.5919 0.60622 0.35663 0.0
O809 O 0.5374 0.5933 0.48835 0.0
C810 C 0.54966 0.59524 0.28971 0.0
O811 O 0.55732 0.57869 0.28348 0.0
N812 N 0.54728 0.55811 0.44457 0.0
C813 C 0.54579 0.52232 0.47764 0.0
C814 C 0.52918 0.53439 0.50929 0.0
C815 C 0.52971 0.55221 0.49046 0.0
C816 C 0.56262 0.54641 0.4111 0.0
C817 C 0.5626 0.5285 0.42781 0.0
H818 H 0.51568 0.56119 0.51152 0.0
H819 H 0.57466 0.55102 0.37014 0.0
H820 H 0.48828 0.59325 0.44217 0.0
H821 H 0.4683 0.55557 0.29367 0.0
H822 H 0.63895 0.57709 0.4879 0.0
H823 H 0.51558 0.53009 0.54728 0.0
H824 H 0.57493 0.51951 0.40016 0.0
C825 C 0.83256 0.66561 0.27974 0.0
C826 C 0.85872 0.66454 0.28064 0.0
N827 N 0.86543 0.64964 0.31395 0.0
N828 N 0.82256 0.65146 0.31218 0.0
C829 C 0.8431 0.64194 0.33295 0.0
H830 H 0.82139 0.67607 0.25668 0.0
Co831 Co 0.78709 0.64786 0.3161 0.0
C832 C 0.78001 0.63458 0.45662 0.0
O833 O 0.76264 0.64703 0.46433 0.0
N834 N 0.75098 0.64423 0.31486 0.0
C835 C 0.71143 0.64542 0.27276 0.0
C836 C 0.73601 0.65151 0.26649 0.0
C837 C 0.73499 0.63285 0.34752 0.0
N838 N 0.71068 0.63365 0.32397 0.0
O839 O 0.79021 0.62852 0.25463 0.0
H840 H 0.74266 0.66032 0.22699 0.0
H841 H 0.74115 0.62335 0.38508 0.0
O842 O 0.79084 0.63244 0.39854 0.0
C843 C 0.79058 0.63539 0.1953 0.0
O844 O 0.79025 0.65278 0.18996 0.0
N845 N 0.78426 0.66842 0.36956 0.0
C846 C 0.78214 0.70105 0.43521 0.0
C847 C 0.79853 0.68769 0.45867 0.0
C848 C 0.79975 0.67159 0.42409 0.0
C849 C 0.76931 0.68169 0.34443 0.0
C850 C 0.76754 0.69794 0.37715 0.0
H851 H 0.81333 0.6617 0.44079 0.0
H852 H 0.75967 0.68022 0.29682 0.0
H853 H 0.84174 0.62953 0.36041 0.0
H854 H 0.87183 0.67419 0.25952 0.0
H855 H 0.69547 0.64927 0.24122 0.0
H856 H 0.8106 0.68976 0.50255 0.0
H857 H 0.75577 0.70827 0.35516 0.0
C858 C 0.49274 0.66623 0.96062 0.0
C859 C 0.46658 0.66521 0.96052 0.0
N860 N 0.45965 0.65025 0.92794 0.0
N861 N 0.50255 0.65201 0.92833 0.0
C862 C 0.48188 0.64248 0.90852 0.0
H863 H 0.50405 0.67672 0.9831 0.0
Co864 Co 0.53804 0.64841 0.92406 0.0
C865 C 0.54526 0.63507 0.7836 0.0
O866 O 0.56272 0.64747 0.77612 0.0
N867 N 0.57414 0.64482 0.92508 0.0
C868 C 0.61375 0.64604 0.96687 0.0
C869 C 0.58922 0.65224 0.97291 0.0
C870 C 0.59002 0.63328 0.89293 0.0
N871 N 0.61435 0.63409 0.91628 0.0
O872 O 0.535 0.62902 0.98531 0.0
H873 H 0.58266 0.66117 0.01207 0.0
H874 H 0.58379 0.62366 0.8559 0.0
O875 O 0.53424 0.63298 0.84151 0.0
C876 C 0.53475 0.63582 0.04473 0.0
O877 O 0.53507 0.65321 0.05035 0.0
N878 N 0.5408 0.66898 0.87065 0.0
C879 C 0.54351 0.70131 0.80276 0.0
C880 C 0.52728 0.68781 0.77947 0.0
C881 C 0.5256 0.67195 0.81542 0.0
C882 C 0.55545 0.68239 0.89594 0.0
C883 C 0.55743 0.69853 0.86231 0.0
H884 H 0.5121 0.662 0.79877 0.0
H885 H 0.56476 0.68107 0.9441 0.0
H886 H 0.48309 0.63 0.88149 0.0
H887 H 0.45361 0.67493 0.98172 0.0
H888 H 0.6298 0.64991 0.99809 0.0
H889 H 0.51577 0.68951 0.73436 0.0
H890 H 0.569 0.70896 0.88437 0.0
C891 C 0.81944 0.56317 0.9049 0.0
C892 C 0.84554 0.56305 0.91171 0.0
N893 N 0.85549 0.57525 0.86923 0.0
N894 N 0.81265 0.57536 0.85826 0.0
C895 C 0.83506 0.58254 0.83722 0.0
H896 H 0.80613 0.55475 0.93191 0.0
Co897 Co 0.77822 0.57996 0.83687 0.0
C898 C 0.783 0.58883 0.68847 0.0
O899 O 0.77026 0.57442 0.67306 0.0
N900 N 0.74271 0.58482 0.81684 0.0
C901 C 0.70312 0.58378 0.7742 0.0
C902 C 0.72739 0.57697 0.77027 0.0
C903 C 0.7268 0.5965 0.84823 0.0
N904 N 0.70265 0.59607 0.82348 0.0
O905 O 0.78057 0.60106 0.88965 0.0
H906 H 0.73282 0.56628 0.73692 0.0
H907 H 0.73264 0.60522 0.88876 0.0
O908 O 0.78782 0.59259 0.75086 0.0
C909 C 0.77611 0.59512 0.94937 0.0
O910 O 0.76824 0.57861 0.95556 0.0
N911 N 0.77637 0.55766 0.79684 0.0
C912 C 0.77575 0.52154 0.7694 0.0
C913 C 0.79401 0.53258 0.73879 0.0
C914 C 0.79443 0.55062 0.75468 0.0
C915 C 0.75929 0.54691 0.82906 0.0
C916 C 0.7582 0.52889 0.81484 0.0
H917 H 0.80961 0.55885 0.73471 0.0
H918 H 0.74674 0.55231 0.86739 0.0
H919 H 0.83634 0.59295 0.79956 0.0
H920 H 0.85639 0.55426 0.94419 0.0
H921 H 0.68685 0.57944 0.74467 0.0
H922 H 0.80849 0.52719 0.70539 0.0
H923 H 0.74409 0.52074 0.8403 0.0
C924 C 0.56542 0.39739 0.73196 0.0
C925 C 0.59132 0.39524 0.73755 0.0
N926 N 0.60026 0.38864 0.67874 0.0
N927 N 0.55768 0.39206 0.6701 0.0
C928 C 0.57941 0.38687 0.63836 0.0
H929 H 0.55307 0.40301 0.77022 0.0
Co930 Co 0.52338 0.39403 0.64483 0.0
C931 C 0.51923 0.38274 0.50259 0.0
O932 O 0.5055 0.39716 0.49377 0.0
N933 N 0.48793 0.39592 0.62202 0.0
C934 C 0.44784 0.40432 0.60095 0.0
C935 C 0.47235 0.41007 0.61281 0.0
C936 C 0.47212 0.38176 0.61527 0.0
N937 N 0.44761 0.38645 0.60286 0.0
O938 O 0.51575 0.37409 0.70114 0.0
H939 H 0.47786 0.42383 0.61452 0.0
H940 H 0.47852 0.36819 0.62087 0.0
O941 O 0.52846 0.37917 0.56161 0.0
C942 C 0.508 0.38084 0.75705 0.0
O943 O 0.50412 0.39807 0.75972 0.0
N944 N 0.53158 0.41493 0.60023 0.0
C945 C 0.54088 0.4491 0.55589 0.0
C946 C 0.55122 0.43466 0.52054 0.0
C947 C 0.54682 0.41749 0.54478 0.0
C948 C 0.52457 0.42895 0.63944 0.0
C949 C 0.52829 0.44619 0.61726 0.0
H950 H 0.55553 0.4064 0.51891 0.0
H951 H 0.51503 0.42666 0.68724 0.0
H952 H 0.58 0.38219 0.58655 0.0
H953 H 0.60284 0.39906 0.7807 0.0
H954 H 0.4315 0.41276 0.59146 0.0
H955 H 0.56209 0.43662 0.47441 0.0
H956 H 0.52117 0.45716 0.64742 0.0
C957 C 0.24306 0.31469 0.6836 0.0
C958 C 0.21702 0.31565 0.69067 0.0
N959 N 0.20784 0.32698 0.64372 0.0
N960 N 0.25056 0.32533 0.63245 0.0
C961 C 0.22867 0.33267 0.60889 0.0
H962 H 0.25576 0.30642 0.71311 0.0
Co963 Co 0.28498 0.32723 0.60744 0.0
C964 C 0.28349 0.33757 0.46239 0.0
O965 O 0.29752 0.32353 0.44981 0.0
N966 N 0.32073 0.32925 0.58355 0.0
C967 C 0.3601 0.32482 0.54285 0.0
C968 C 0.33589 0.31802 0.54794 0.0
C969 C 0.33668 0.34293 0.59885 0.0
N970 N 0.36073 0.34052 0.57519 0.0
O971 O 0.28731 0.34795 0.66245 0.0
H972 H 0.32995 0.30576 0.52441 0.0
H973 H 0.33088 0.35449 0.62728 0.0
O974 O 0.27642 0.341 0.52354 0.0
C975 C 0.29349 0.34157 0.72036 0.0
O976 O 0.29932 0.32463 0.72419 0.0
N977 N 0.28198 0.30538 0.56539 0.0
C978 C 0.27749 0.26999 0.53 0.0
C979 C 0.26221 0.28279 0.49808 0.0
C980 C 0.26436 0.30055 0.51777 0.0
C981 C 0.29504 0.29282 0.60088 0.0
C982 C 0.29367 0.2751 0.58278 0.0
H983 H 0.25173 0.31031 0.49565 0.0
H984 H 0.30696 0.29669 0.64309 0.0
H985 H 0.22803 0.34189 0.56686 0.0
H986 H 0.20568 0.30804 0.72616 0.0
H987 H 0.37583 0.31877 0.51577 0.0
H988 H 0.24876 0.27911 0.4588 0.0
H989 H 0.30481 0.26542 0.61072 0.0
C990 C 0.55974 0.32135 0.03919 0.0
C991 C 0.58584 0.32012 0.03806 0.0
N992 N 0.59483 0.32482 0.09929 0.0
N993 N 0.55193 0.32683 0.10087 0.0
C994 C 0.57389 0.3289 0.13676 0.0
H995 H 0.54718 0.31756 0.99828 0.0
Co996 Co 0.51687 0.32739 0.12178 0.0
C997 C 0.51195 0.34011 0.26252 0.0
O998 O 0.49479 0.32754 0.27045 0.0
N999 N 0.48073 0.32795 0.13993 0.0
C1000 C 0.43952 0.3213 0.15506 0.0
C1001 C 0.4639 0.3146 0.15123 0.0
C1002 C 0.46575 0.34266 0.1378 0.0
N1003 N 0.44058 0.33899 0.1461 0.0
O1004 O 0.51317 0.34758 0.06392 0.0
H1005 H 0.46842 0.30071 0.15556 0.0
H1006 H 0.47321 0.35588 0.12936 0.0
O1007 O 0.52298 0.34212 0.20465 0.0
C1008 C 0.50518 0.34127 0.00752 0.0
O1009 O 0.49902 0.32436 0.00475 0.0
N1010 N 0.52106 0.30613 0.16807 0.0
C1011 C 0.52442 0.27154 0.21483 0.0
C1012 C 0.53456 0.28556 0.25315 0.0
C1013 C 0.5334 0.30283 0.22771 0.0
C1014 C 0.51389 0.29245 0.12723 0.0
C1015 C 0.51478 0.27505 0.15017 0.0
H1016 H 0.54251 0.31334 0.25586 0.0
H1017 H 0.50626 0.2952 0.07743 0.0
H1018 H 0.57447 0.33218 0.19013 0.0
H1019 H 0.59735 0.31531 0.99631 0.0
H1020 H 0.42227 0.31354 0.16127 0.0
H1021 H 0.54347 0.28317 0.30185 0.0
H1022 H 0.50725 0.26456 0.11836 0.0
C1023 C 0.23294 0.40021 0.00979 0.0
C1024 C 0.20683 0.39877 0.01049 0.0
N1025 N 0.1996 0.39158 0.07004 0.0
N1026 N 0.24255 0.3939 0.06835 0.0
C1027 C 0.22173 0.38881 0.1045 0.0
H1028 H 0.24419 0.40598 0.9695 0.0
Co1029 Co 0.27777 0.39457 0.08568 0.0
C1030 C 0.28527 0.38182 0.22601 0.0
O1031 O 0.30175 0.39487 0.23302 0.0
N1032 N 0.31397 0.39522 0.10016 0.0
C1033 C 0.35509 0.40297 0.10409 0.0
C1034 C 0.33054 0.40897 0.09526 0.0
C1035 C 0.32929 0.38095 0.11112 0.0
N1036 N 0.35438 0.38531 0.11396 0.0
O1037 O 0.28239 0.37459 0.02737 0.0
H1038 H 0.32572 0.42254 0.08405 0.0
H1039 H 0.32214 0.3675 0.11513 0.0
O1040 O 0.2738 0.37958 0.1689 0.0
C1041 C 0.28865 0.38139 0.97022 0.0
O1042 O 0.29245 0.39862 0.96702 0.0
N1043 N 0.27275 0.41563 0.133 0.0
C1044 C 0.27244 0.44971 0.18495 0.0
C1045 C 0.26255 0.43557 0.22322 0.0
C1046 C 0.262 0.41856 0.19507 0.0
C1047 C 0.27846 0.42959 0.09198 0.0
C1048 C 0.27915 0.44674 0.11733 0.0
H1049 H 0.25352 0.40788 0.22374 0.0
H1050 H 0.28419 0.42721 0.04015 0.0
H1051 H 0.22277 0.38342 0.15525 0.0
H1052 H 0.1941 0.40339 0.97104 0.0
H1053 H 0.37218 0.41107 0.10283 0.0
H1054 H 0.25569 0.4376 0.27444 0.0
H1055 H 0.28621 0.45734 0.08525 0.0
C1056 C 0.04069 0.08745 0.58588 0.0
C1057 C 0.0381 0.09463 0.52013 0.0
H1058 H 0.04415 0.09266 0.69264 0.0
C1059 C 0.0336 0.11288 0.5133 0.0
H1060 H 0.04399 0.07336 0.59274 0.0
C1061 C 0.03401 0.12392 0.57059 0.0
C1062 C 0.03834 0.11688 0.63591 0.0
H1063 H 1.0316 0.11878 0.46352 0.0
H1064 H 1.03227 0.13813 0.56341 0.0
C1065 C 0.04055 0.09844 0.64328 0.0
C1066 C 0.28522 0.0972 0.61015 0.0
C1067 C 0.28834 0.11559 0.61681 0.0
H1068 H 0.28067 0.07234 0.66173 0.0
C1069 C 0.29321 0.1227 0.6817 0.0
H1070 H 0.2812 0.09138 0.56109 0.0
C1071 C 0.29324 0.1118 0.73937 0.0
C1072 C 0.28781 0.09365 0.73328 0.0
H1073 H 0.29566 0.13688 0.68827 0.0
H1074 H 0.29565 0.11778 0.78889 0.0
C1075 C 0.2847 0.08636 0.66794 0.0
C1076 C 1.0276 0.85237 0.47331 0.0
C1077 C 1.02718 0.87091 0.46743 0.0
H1078 H 1.02486 0.82745 0.42131 0.0
C1079 C 1.02737 0.87854 0.40209 0.0
H1080 H 1.02733 0.84614 0.52279 0.0
C1081 C 1.02644 0.86788 0.34385 0.0
C1082 C 1.0247 0.84938 0.34992 0.0
H1083 H 1.0272 0.89284 0.39605 0.0
H1084 H 1.02528 0.87415 0.29453 0.0
C1085 C 1.02607 0.84172 0.41512 0.0
C1086 C 0.78152 0.84372 0.35196 0.0
C1087 C 0.78308 0.85141 0.41706 0.0
H1088 H 0.77998 0.84808 0.2443 0.0
C1089 C 0.78133 0.86991 0.423 0.0
H1090 H 0.78272 0.82944 0.34589 0.0
C1091 C 0.78021 0.88054 0.36467 0.0
C1092 C 0.7802 0.87287 0.29942 0.0
H1093 H 0.78261 0.8762 0.47224 0.0
H1094 H 0.78044 0.89484 0.37054 0.0
C1095 C 0.7798 0.85433 0.29372 0.0
C1096 C 0.0403 0.59898 0.16722 0.0
C1097 C 0.04514 0.61724 0.16263 0.0
H1098 H 0.03655 0.5744 0.11322 0.0
C1099 C 0.04628 0.62517 0.09788 0.0
H1100 H 0.03938 0.59251 0.21621 0.0
C1101 C 0.04407 0.61491 0.03887 0.0
C1102 C 0.04126 0.59645 0.04358 0.0
H1103 H 0.0498 0.63929 0.09279 0.0
H1104 H 0.04635 0.62122 0.9899 0.0
C1105 C 0.03871 0.58866 0.10823 0.0
C1106 C 0.27731 0.6249 0.14251 0.0
C1107 C 0.27875 0.61687 0.078 0.0
H1108 H 0.2771 0.62112 0.2506 0.0
C1109 C 0.28409 0.59867 0.07396 0.0
H1110 H 0.27336 0.63897 0.14713 0.0
C1111 C 0.28582 0.58846 0.13328 0.0
C1112 C 0.28297 0.59634 0.19767 0.0
H1113 H 0.2852 0.59213 0.02515 0.0
H1114 H 0.28826 0.57422 0.12875 0.0
C1115 C 0.27969 0.61476 0.20183 0.0
C1116 C 1.02377 0.34987 0.94265 0.0
C1117 C 1.01841 0.36805 0.93769 0.0
H1118 H 1.02846 0.32529 0.88911 0.0
C1119 C 1.01722 0.37588 0.87276 0.0
H1120 H 1.02474 0.34348 0.99178 0.0
C1121 C 1.01993 0.36558 0.81395 0.0
C1122 C 1.02329 0.34718 0.81892 0.0
H1123 H 1.0133 0.38994 0.86736 0.0
H1124 H 1.01767 0.37183 0.76485 0.0
C1125 C 1.02584 0.3395 0.88381 0.0
C1126 C 0.77032 0.36355 0.99215 0.0
C1127 C 0.77734 0.34566 0.98653 0.0
H1128 H 0.76505 0.38827 0.93997 0.0
C1129 C 0.78041 0.33827 0.92133 0.0
H1130 H 0.76787 0.36958 0.04155 0.0
C1131 C 0.77822 0.34882 0.86308 0.0
C1132 C 0.77346 0.36706 0.86903 0.0
H1133 H 0.78561 0.32443 0.91549 0.0
H1134 H 0.78224 0.34299 0.81403 0.0
C1135 C 0.7687 0.3742 0.93394 0.0
C1136 C 0.53775 0.10437 0.22068 0.0
C1137 C 0.53864 0.12291 0.21553 0.0
H1138 H 0.53994 0.07958 0.16765 0.0
C1139 C 0.53851 0.13073 0.15052 0.0
H1140 H 0.53794 0.09799 0.26989 0.0
C1141 C 0.5392 0.12024 0.09186 0.0
C1142 C 0.54059 0.10172 0.09721 0.0
H1143 H 0.53902 0.14505 0.14507 0.0
H1144 H 0.54055 0.12664 0.0428 0.0
C1145 C 0.53899 0.09388 0.16206 0.0
C1146 C 0.77576 0.09413 0.10711 0.0
C1147 C 0.7783 0.10194 0.17179 0.0
H1148 H 0.77618 0.09802 0.99909 0.0
C1149 C 0.78631 0.11967 0.17608 0.0
H1150 H 0.76982 0.08041 0.10219 0.0
C1151 C 0.78962 0.12976 0.11691 0.0
C1152 C 0.78572 0.12219 0.05237 0.0
H1153 H 0.7884 0.12604 0.22498 0.0
H1154 H 0.79413 0.14375 0.12166 0.0
C1155 C 0.77969 0.10411 0.04795 0.0
C1156 C 0.52613 0.87715 0.84121 0.0
C1157 C 0.52462 0.86938 0.90618 0.0
H1158 H 0.52768 0.87292 0.73351 0.0
C1159 C 0.52651 0.85089 0.91193 0.0
H1160 H 0.52483 0.89143 0.83532 0.0
C1161 C 0.52769 0.84033 0.8535 0.0
C1162 C 0.52757 0.84806 0.78835 0.0
H1163 H 0.52527 0.84454 0.96111 0.0
H1164 H 0.5276 0.82601 0.85922 0.0
C1165 C 0.52788 0.8666 0.78285 0.0
C1166 C 0.28195 0.84772 0.82834 0.0
C1167 C 0.28424 0.8662 0.83349 0.0
H1168 H 0.28037 0.82296 0.88192 0.0
C1169 C 0.2829 0.87411 0.89824 0.0
H1170 H 0.28302 0.84127 0.77936 0.0
C1171 C 0.28088 0.8637 0.95694 0.0
C1172 C 0.28074 0.84515 0.95204 0.0
H1173 H 0.28447 0.88839 0.90368 0.0
H1174 H 0.28125 0.8701 0.00609 0.0
C1175 C 0.28053 0.83728 0.88713 0.0
C1176 C 0.53405 0.60577 0.73012 0.0
C1177 C 0.53909 0.62396 0.7237 0.0
H1178 H 0.53148 0.58069 0.67906 0.0
C1179 C 0.54133 0.63131 0.65816 0.0
H1180 H 0.53229 0.59976 0.77978 0.0
C1181 C 0.5403 0.6205 0.60036 0.0
C1182 C 0.53755 0.60208 0.60715 0.0
H1183 H 0.54502 0.64537 0.65169 0.0
H1184 H 0.54365 0.62637 0.55101 0.0
C1185 C 0.53359 0.5949 0.67239 0.0
C1186 C 0.78469 0.61952 0.63947 0.0
C1187 C 0.78864 0.60123 0.63204 0.0
H1188 H 0.77872 0.64439 0.5891 0.0
C1189 C 0.7933 0.59438 0.56664 0.0
H1190 H 0.78078 0.62514 0.68894 0.0
C1191 C 0.79239 0.6054 0.50936 0.0
C1192 C 0.78621 0.62341 0.51634 0.0
H1193 H 0.79637 0.58027 0.55945 0.0
H1194 H 0.79479 0.5996 0.45953 0.0
C1195 C 0.78324 0.63047 0.58211 0.0
C1196 C 0.52429 0.36881 0.31889 0.0
C1197 C 0.51922 0.35058 0.32326 0.0
H1198 H 0.52827 0.39332 0.37323 0.0
C1199 C 0.51806 0.34259 0.38792 0.0
H1200 H 0.5252 0.37531 0.26997 0.0
C1201 C 0.52038 0.35279 0.44707 0.0
C1202 C 0.52332 0.37123 0.44264 0.0
H1203 H 0.51434 0.32849 0.39281 0.0
H1204 H 0.51801 0.34643 0.49595 0.0
C1205 C 0.52599 0.37907 0.37805 0.0
C1206 C 0.28038 0.36786 0.41019 0.0
C1207 C 0.27773 0.34941 0.40437 0.0
H1208 H 0.285 0.39256 0.35759 0.0
C1209 C 0.2741 0.34198 0.33946 0.0
H1210 H 0.28349 0.37392 0.45929 0.0
C1211 C 0.27462 0.35263 0.28117 0.0
C1212 C 0.27944 0.37088 0.28664 0.0
H1213 H 0.27206 0.32774 0.33356 0.0
H1214 H 0.27299 0.34644 0.23182 0.0
C1215 C 0.2815 0.37846 0.35181 0.0
C1216 C 0.15599 0.09577 0.30921 0.0
C1217 C 0.13478 0.09298 0.35192 0.0
H1218 H 0.19355 0.10668 0.29817 0.0
C1219 C 0.13605 0.09918 0.41899 0.0
H1220 H 0.15563 0.09142 0.25698 0.0
C1221 C 0.15793 0.1079 0.44273 0.0
C1222 C 0.17913 0.11071 0.40001 0.0
H1223 H 0.12031 0.09702 0.45363 0.0
H1224 H 0.15829 0.11226 0.49495 0.0
C1225 C 0.17786 0.1045 0.33293 0.0
C1226 C 0.16762 0.10862 0.81401 0.0
C1227 C 0.14691 0.1125 0.85707 0.0
H1228 H 0.20482 0.09715 0.80381 0.0
C1229 C 0.14861 0.10761 0.92563 0.0
H1230 H 0.16682 0.11198 0.76072 0.0
C1231 C 0.17057 0.09923 0.9506 0.0
C1232 C 0.19137 0.09539 0.90758 0.0
H1233 H 0.13324 0.11065 0.96044 0.0
H1234 H 0.17129 0.09601 0.00397 0.0
C1235 C 0.18952 0.10016 0.83885 0.0
C1236 C 0.88499 0.8713 0.62344 0.0
C1237 C 0.88799 0.85333 0.60566 0.0
H1238 H 0.903 0.89595 0.64711 0.0
C1239 C 0.913 0.84674 0.59741 0.0
H1240 H 0.86621 0.87703 0.62982 0.0
C1241 C 0.93428 0.85777 0.60602 0.0
C1242 C 0.93129 0.87573 0.6238 0.0
H1243 H 0.91636 0.83297 0.58469 0.0
H1244 H 0.95305 0.85214 0.59805 0.0
C1245 C 0.90629 0.8823 0.63261 0.0
C1246 C 0.92272 0.8712 0.1441 0.0
C1247 C 0.91935 0.85327 0.16213 0.0
H1248 H 0.90523 0.89602 0.12013 0.0
C1249 C 0.89418 0.84694 0.17039 0.0
H1250 H 0.94164 0.87673 0.13767 0.0
C1251 C 0.87313 0.85817 0.16157 0.0
C1252 C 0.8765 0.8761 0.14361 0.0
H1253 H 0.89052 0.83322 0.18327 0.0
H1254 H 0.85424 0.85274 0.16954 0.0
C1255 C 0.90165 0.88241 0.13478 0.0
C1256 C 0.15597 0.6205 0.92531 0.0
C1257 C 0.18015 0.61556 0.90017 0.0
H1258 H 0.1167 0.61328 0.93964 0.0
C1259 C 0.18285 0.59864 0.87078 0.0
H1260 H 0.15317 0.63325 0.94937 0.0
C1261 C 0.16189 0.58715 0.86551 0.0
C1262 C 0.13762 0.59227 0.88926 0.0
H1263 H 0.20097 0.5944 0.84992 0.0
H1264 H 0.1646 0.57444 0.84098 0.0
C1265 C 0.13498 0.60904 0.91973 0.0
C1266 C 0.14189 0.59912 0.37211 0.0
C1267 C 0.14452 0.61572 0.3401 0.0
H1268 H 0.16015 0.57522 0.40496 0.0
C1269 C 0.16865 0.62042 0.3139 0.0
H1270 H 0.12385 0.59509 0.39401 0.0
C1271 C 0.18963 0.609 0.32071 0.0
C1272 C 0.18702 0.59253 0.35349 0.0
H1273 H 0.17141 0.63293 0.28797 0.0
H1274 H 0.20787 0.61302 0.29983 0.0
C1275 C 0.16282 0.58768 0.37858 0.0
C1276 C 0.92045 0.35389 0.17673 0.0
C1277 C 0.91819 0.36906 0.13565 0.0
H1278 H 0.90174 0.33209 0.22468 0.0
C1279 C 0.89384 0.37339 0.10992 0.0
H1280 H 0.93868 0.35007 0.19797 0.0
C1281 C 0.8723 0.36321 0.12664 0.0
C1282 C 0.87448 0.34832 0.16934 0.0
H1283 H 0.89125 0.38476 0.07716 0.0
H1284 H 0.85393 0.36731 0.1071 0.0
C1285 C 0.89899 0.34365 0.19303 0.0
C1286 C 0.90136 0.33414 0.65549 0.0
C1287 C 0.92594 0.34103 0.66813 0.0
H1288 H 0.861 0.33883 0.65511 0.0
C1289 C 0.92809 0.35877 0.68949 0.0
H1290 H 0.89887 0.32063 0.63812 0.0
C1291 C 0.90634 0.3693 0.6982 0.0
C1292 C 0.88173 0.3624 0.68618 0.0
H1293 H 0.94658 0.36454 0.70034 0.0
H1294 H 0.90894 0.38293 0.71401 0.0
C1295 C 0.87956 0.34468 0.66442 0.0
C1296 C 0.67203 0.09854 0.93114 0.0
C1297 C 0.64699 0.10505 0.92224 0.0
H1298 H 0.71205 0.104 0.931 0.0
C1299 C 0.64399 0.12308 0.90506 0.0
H1300 H 0.67547 0.08478 0.9437 0.0
C1301 C 0.66529 0.13414 0.89628 0.0
C1302 C 0.69029 0.12756 0.90482 0.0
H1303 H 0.62522 0.12879 0.89834 0.0
H1304 H 0.66202 0.1478 0.88183 0.0
C1305 C 0.69328 0.10961 0.9229 0.0
C1306 C 0.68086 0.12037 0.38583 0.0
C1307 C 0.67814 0.10378 0.3538 0.0
H1308 H 0.66263 0.14422 0.41948 0.0
C1309 C 0.65391 0.09909 0.32822 0.0
H1310 H 0.699 0.12439 0.40713 0.0
C1311 C 0.63293 0.11047 0.33584 0.0
C1312 C 0.6356 0.1269 0.3688 0.0
H1313 H 0.65107 0.08661 0.30217 0.0
H1314 H 0.61462 0.10643 0.31548 0.0
C1315 C 0.6599 0.13177 0.3931 0.0
C1316 C 0.40191 0.83652 0.11742 0.0
C1317 C 0.37672 0.84274 0.10863 0.0
H1318 H 0.44184 0.84238 0.11505 0.0
C1319 C 0.37323 0.86068 0.0911 0.0
H1320 H 0.40559 0.8229 0.13171 0.0
C1321 C 0.39419 0.87203 0.08281 0.0
C1322 C 0.4194 0.8658 0.09116 0.0
H1323 H 0.35431 0.86605 0.08314 0.0
H1324 H 0.39042 0.88576 0.07032 0.0
C1325 C 0.4229 0.84784 0.10861 0.0
C1326 C 0.40627 0.83698 0.62772 0.0
C1327 C 0.43128 0.84374 0.6341 0.0
H1328 H 0.3662 0.84208 0.63141 0.0
C1329 C 0.4342 0.86189 0.64922 0.0
H1330 H 0.40298 0.82318 0.61546 0.0
C1331 C 0.41288 0.87292 0.65708 0.0
C1332 C 0.38786 0.86617 0.65073 0.0
H1333 H 0.45296 0.86768 0.65541 0.0
H1334 H 0.41625 0.88681 0.6675 0.0
C1335 C 0.38494 0.84798 0.63618 0.0
C1336 C 0.66577 0.60775 0.43598 0.0
C1337 C 0.64447 0.60539 0.39332 0.0
H1338 H 0.7033 0.61868 0.4479 0.0
C1339 C 0.64548 0.61236 0.32735 0.0
H1340 H 0.66556 0.60273 0.48737 0.0
C1341 C 0.66722 0.62139 0.30452 0.0
C1342 C 0.68854 0.62382 0.34715 0.0
H1343 H 0.62969 0.61051 0.29268 0.0
H1344 H 0.66734 0.62625 0.25295 0.0
C1345 C 0.6875 0.61686 0.41324 0.0
C1346 C 0.63772 0.61773 0.82649 0.0
C1347 C 0.63641 0.62419 0.89321 0.0
H1348 H 0.6599 0.60417 0.75157 0.0
C1349 C 0.65741 0.62129 0.93647 0.0
H1350 H 0.62214 0.61995 0.79145 0.0
C1351 C 0.67915 0.61226 0.91358 0.0
C1352 C 0.6805 0.60584 0.8468 0.0
H1353 H 0.657 0.6258 0.98849 0.0
H1354 H 0.69468 0.61004 0.94874 0.0
C1355 C 0.65947 0.6087 0.80358 0.0
C1356 C 0.40069 0.38142 0.60493 0.0
C1357 C 0.42567 0.37489 0.59565 0.0
H1358 H 0.36064 0.37588 0.60491 0.0
C1359 C 0.42878 0.35682 0.57974 0.0
H1360 H 0.39738 0.39517 0.61805 0.0
C1361 C 0.40759 0.34562 0.57352 0.0
C1362 C 0.3826 0.35215 0.58246 0.0
H1363 H 0.44757 0.35126 0.57148 0.0
H1364 H 0.41096 0.33176 0.56222 0.0
C1365 C 0.37947 0.37024 0.59826 0.0
C1366 C 0.37385 0.35768 0.1591 0.0
C1367 C 0.37612 0.37367 0.12286 0.0
H1368 H 0.39256 0.33442 0.19668 0.0
C1369 C 0.40015 0.37823 0.09582 0.0
H1370 H 0.35576 0.35389 0.18147 0.0
C1371 C 0.42129 0.36706 0.10429 0.0
C1372 C 0.41905 0.351 0.14022 0.0
H1373 H 0.40258 0.39029 0.06673 0.0
H1374 H 0.43921 0.37086 0.08115 0.0
C1375 C 0.39504 0.34653 0.16786 0.0
C1376 C 1.02138 0.97585 0.53598 0.0
C1377 C 0.04453 0.9665 0.5387 0.0
H1378 H 1.00188 -0.00101 0.50147 0.0
C1379 C 0.06662 0.97393 0.51043 0.0
H1380 H 1.00402 0.97018 0.55675 0.0
C1381 C 0.06555 -0.00938 0.4799 0.0
C1382 C 0.04226 -6e-05 0.47628 0.0
H1383 H 0.08468 0.96692 0.51254 0.0
H1384 H 0.08295 -0.00377 0.45923 0.0
C1385 C 1.02021 -0.00762 0.50473 0.0
C1386 C 0.29831 0.22338 0.49089 0.0
C1387 C 0.27484 0.21438 0.48957 0.0
H1388 H 0.31737 0.24826 0.5034 0.0
C1389 C 0.25201 0.22402 0.49717 0.0
H1390 H 0.31615 0.21636 0.48336 0.0
C1391 C 0.25272 0.24232 0.50769 0.0
C1392 C 0.27626 0.25116 0.51106 0.0
H1393 H 0.23366 0.21735 0.49652 0.0
H1394 H 0.23498 0.24945 0.51559 0.0
C1395 C 0.29901 0.24161 0.50168 0.0
C1396 C 0.05973 0.23836 0.66249 0.0
C1397 C 0.05471 0.25132 0.71215 0.0
H1398 H 0.06352 0.21063 0.64049 0.0
C1399 C 0.05238 0.2461 0.78024 0.0
H1400 H 0.06229 0.24201 0.60983 0.0
C1401 C 0.05364 0.22818 0.7977 0.0
C1402 C 0.05695 0.21527 0.74724 0.0
H1403 H 0.04828 0.25573 0.81952 0.0
H1404 H 0.05084 0.22434 0.85011 0.0
C1405 C 0.06052 0.22046 0.67982 0.0
C1406 C 0.27617 0.96602 0.81813 0.0
C1407 C 0.27425 0.96307 0.74813 0.0
H1408 H 0.27892 -0.01483 0.89752 0.0
C1409 C 0.27211 0.97767 0.704 0.0
H1410 H 0.27828 0.95505 0.85319 0.0
C1411 C 0.27275 -0.00507 0.72936 0.0
C1412 C 0.27525 -0.00218 0.7992 0.0
H1413 H 0.27022 0.97575 0.64984 0.0
H1414 H 0.27137 0.00601 0.69451 0.0
C1415 C 0.27663 0.98325 0.84345 0.0
C1416 C 0.7587 0.72807 0.47412 0.0
C1417 C 0.78181 0.71876 0.46681 0.0
H1418 H 0.74069 0.75248 0.50275 0.0
C1419 C 0.80485 0.727 0.4851 0.0
H1420 H 0.74065 0.72192 0.46098 0.0
C1421 C 0.80483 0.74438 0.5089 0.0
C1422 C 0.7818 0.75382 0.51467 0.0
H1423 H 0.82297 0.72026 0.47875 0.0
H1424 H 0.82293 0.7506 0.52107 0.0
C1425 C 0.7587 0.74551 0.49768 0.0
C1426 C 0.05381 0.72584 0.2663 0.0
C1427 C 0.03247 0.71457 0.26411 0.0
H1428 H 0.06804 0.7522 0.25331 0.0
C1429 C 1.00845 0.72149 0.24738 0.0
H1430 H 0.07256 0.72067 0.27876 0.0
C1431 C 1.00574 0.73958 0.23416 0.0
C1432 C 1.02708 0.75094 0.23672 0.0
H1433 H 0.9917 0.71303 0.24645 0.0
H1434 H 0.98688 0.7447 0.22289 0.0
C1435 C 0.05117 0.74387 0.25245 0.0
C1436 C 0.77762 0.9728 0.27919 0.0
C1437 C 0.76737 0.96992 0.21445 0.0
H1438 H 0.79031 -0.0081 0.35186 0.0
C1439 C 0.76109 -0.01546 0.17349 0.0
H1440 H 0.78308 0.96173 0.31115 0.0
C1441 C 0.76542 0.00177 0.19646 0.0
C1442 C 0.77603 0.00465 0.2608 0.0
H1443 H 0.75301 0.98264 0.12348 0.0
H1444 H 0.76015 0.01284 0.16425 0.0
C1445 C 0.78196 -0.00997 0.30215 0.0
C1446 C 1.01647 0.46841 0.94811 0.0
C1447 C 1.0241 0.46546 0.01531 0.0
H1448 H 1.00928 0.48759 0.87054 0.0
C1449 C 1.03028 0.48 0.05676 0.0
H1450 H 1.01114 0.45743 0.91559 0.0
C1451 C 1.02905 0.49722 0.03123 0.0
C1452 C 1.02169 0.50017 0.9638 0.0
H1453 H 0.03643 0.47805 0.10863 0.0
H1454 H 0.03458 0.50818 0.06362 0.0
C1455 C 1.01524 0.48564 0.92257 0.0
C1456 C 0.28411 0.72884 0.94966 0.0
C1457 C 0.27848 0.71405 0.9905 0.0
H1458 H 0.28453 0.75716 0.9415 0.0
C1459 C 0.26778 0.71667 0.05494 0.0
H1460 H 0.29252 0.72717 0.8999 0.0
C1461 C 0.26302 0.7338 0.07843 0.0
C1462 C 0.26893 0.74857 0.03789 0.0
H1463 H 0.26273 0.70548 0.08678 0.0
H1464 H 0.25486 0.7355 0.12847 0.0
C1465 C 0.27932 0.74596 0.97312 0.0
C1466 C 0.29589 0.48463 0.30686 0.0
C1467 C 0.29089 0.5003 0.27067 0.0
H1468 H 0.29377 0.45627 0.30795 0.0
C1469 C 0.27927 0.49929 0.20673 0.0
H1470 H 0.3049 0.48509 0.35625 0.0
C1471 C 0.27255 0.48287 0.17961 0.0
C1472 C 0.27747 0.46718 0.21586 0.0
H1473 H 0.27466 0.51122 0.17858 0.0
H1474 H 0.26335 0.48245 0.13048 0.0
C1475 C 0.28924 0.4682 0.27966 0.0
C1476 C 0.82282 0.22669 0.99989 0.0
C1477 C 0.80174 0.21797 0.97158 0.0
H1478 H 0.83638 0.25011 0.04955 0.0
C1479 C 0.77762 0.22608 0.97293 0.0
H1480 H 0.84158 0.22061 0.999 0.0
C1481 C 0.7745 0.24267 0.00248 0.0
C1482 C 0.79552 0.25158 0.03065 0.0
H1483 H 0.76101 0.21939 0.9523 0.0
H1484 H 0.75546 0.24828 0.00466 0.0
C1485 C 0.81977 0.24348 0.02878 0.0
C1486 C 0.77838 0.4956 0.69126 0.0
C1487 C 0.77584 0.50225 0.75724 0.0
H1488 H 0.78054 0.47252 0.62859 0.0
C1489 C 0.77349 0.49038 0.81187 0.0
H1490 H 0.77987 0.50452 0.64831 0.0
C1491 C 0.77391 0.47213 0.80072 0.0
C1492 C 0.77675 0.46547 0.73481 0.0
H1493 H 0.77187 0.49521 0.8634 0.0
H1494 H 0.77266 0.46324 0.84378 0.0
C1495 C 0.77875 0.47735 0.68009 0.0
C1496 C 0.51114 -0.00325 0.99483 0.0
C1497 C 0.53571 0.00369 0.98458 0.0
H1498 H 0.48872 0.97361 0.01511 0.0
C1499 C 0.55697 -0.00767 0.98725 0.0
H1500 H 0.49443 0.00519 0.99176 0.0
C1501 C 0.55373 0.9743 1.00027 0.0
C1502 C 0.52916 0.96736 0.01081 0.0
H1503 H 0.57614 -0.00256 0.98004 0.0
H1504 H 0.57046 0.96588 0.00359 0.0
C1505 C 0.50789 0.97871 0.00777 0.0
C1506 C 0.51356 0.23331 0.33476 0.0
C1507 C 0.52018 0.21873 0.29404 0.0
H1508 H 0.50978 0.26153 0.3413 0.0
C1509 C 0.52797 0.22157 0.22687 0.0
H1510 H 0.50726 0.23142 0.38656 0.0
C1511 C 0.5296 0.23876 0.20121 0.0
C1512 C 0.52339 0.25337 0.2423 0.0
H1513 H 0.5336 0.21055 0.19489 0.0
H1514 H 0.53615 0.24065 0.14963 0.0
C1515 C 0.51519 0.2505 0.30911 0.0
C1516 C 0.56777 0.72819 0.76427 0.0
C1517 C 0.54463 0.7187 0.76825 0.0
H1518 H 0.58634 0.75224 0.73297 0.0
C1519 C 0.52228 0.72628 0.74169 0.0
H1520 H 0.58538 0.72257 0.78357 0.0
C1521 C 0.523 0.743 0.71202 0.0
C1522 C 0.54599 0.75254 0.70904 0.0
H1523 H 0.50405 0.71953 0.74535 0.0
H1524 H 0.50541 0.74869 0.69277 0.0
C1525 C 0.5684 0.74508 0.73533 0.0
C1526 C 0.521 0.49496 0.5047 0.0
C1527 C 0.54471 0.50322 0.49397 0.0
H1528 H 0.50142 0.47112 0.53215 0.0
C1529 C 0.56726 0.49312 0.49886 0.0
H1530 H 0.50329 0.50227 0.49944 0.0
C1531 C 0.5661 0.47517 0.51622 0.0
C1532 C 0.54242 0.46724 0.52949 0.0
H1533 H 0.5858 0.49918 0.49112 0.0
H1534 H 0.58366 0.46769 0.52183 0.0
C1535 C 0.5199 0.47715 0.52267 0.0
C1536 C 0.92526 0.08165 0.39502 0.0
C1537 C 0.9315 0.07409 0.33216 0.0
H1538 H 0.89539 0.08939 0.46323 0.0
C1539 C 0.91159 0.0702 0.28642 0.0
H1540 H 0.94012 0.08476 0.43131 0.0
C1541 C 0.88599 0.07287 0.30453 0.0
C1542 C 0.87968 0.07932 0.36911 0.0
H1543 H 0.91581 0.0646 0.23717 0.0
H1544 H 0.87115 0.06899 0.26933 0.0
C1545 C 0.89964 0.08415 0.41342 0.0
C1546 C 0.42553 0.14242 0.35987 0.0
C1547 C 0.43388 0.13832 0.42565 0.0
H1548 H 0.39357 0.14662 0.29407 0.0
C1549 C 0.41548 0.13368 0.47474 0.0
H1550 H 0.43914 0.14608 0.32096 0.0
C1551 C 0.38935 0.13411 0.45961 0.0
C1552 C 0.3809 0.13926 0.39499 0.0
H1553 H 0.42129 0.13018 0.52566 0.0
H1554 H 0.37578 0.13121 0.49949 0.0
C1555 C 0.39936 0.14293 0.34478 0.0
C1556 C 0.93647 0.13363 0.80005 0.0
C1557 C 0.94548 0.14051 0.86171 0.0
H1558 H 0.90392 0.12752 0.73864 0.0
C1559 C 0.92747 0.14504 0.91206 0.0
H1560 H 0.94968 0.12999 0.76018 0.0
C1561 C 0.90116 0.1437 0.89961 0.0
C1562 C 0.8922 0.13787 0.83637 0.0
H1563 H 0.9337 0.15005 0.96072 0.0
H1564 H 0.88789 0.14807 0.93825 0.0
C1565 C 0.91019 0.13236 0.78754 0.0
C1566 C 0.40561 0.08357 0.92202 0.0
C1567 C 0.39341 0.06757 0.90434 0.0
H1568 H 0.44098 0.09837 0.92239 0.0
C1569 C 0.40762 0.05432 0.87156 0.0
H1570 H 0.39507 0.09388 0.94814 0.0
C1571 C 0.43339 0.05688 0.85668 0.0
C1572 C 0.44589 0.07268 0.87501 0.0
H1573 H 0.39868 0.04187 0.85766 0.0
H1574 H 0.44375 0.0463 0.83165 0.0
C1575 C 0.43181 0.08603 0.90812 0.0
C1576 C 0.16538 0.88735 0.57803 0.0
C1577 C 0.1852 0.88607 0.62616 0.0
H1578 H 0.12511 0.88926 0.56007 0.0
C1579 C 0.1786 0.88379 0.69463 0.0
H1580 H 0.16967 0.88873 0.52466 0.0
C1581 C 0.15295 0.88383 0.71478 0.0
C1582 C 0.13319 0.8862 0.66712 0.0
H1583 H 0.19321 0.88275 0.73319 0.0
H1584 H 0.14865 0.88245 0.76815 0.0
C1585 C 0.13972 0.88744 0.59823 0.0
C1586 C 0.66566 0.82952 0.67458 0.0
C1587 C 0.68541 0.83149 0.62652 0.0
H1588 H 0.62539 0.82769 0.6928 0.0
C1589 C 0.67871 0.835 0.5589 0.0
H1590 H 0.67005 0.82718 0.7274 0.0
C1591 C 0.65301 0.83553 0.53926 0.0
C1592 C 0.6333 0.83255 0.58662 0.0
H1593 H 0.69326 0.83659 0.52042 0.0
H1594 H 0.64861 0.83787 0.48644 0.0
C1595 C 0.63996 0.83004 0.65491 0.0
C1596 C 0.16643 0.82628 0.09486 0.0
C1597 C 0.17453 0.82895 0.16191 0.0
H1598 H 0.1348 0.82345 0.02701 0.0
C1599 C 0.15585 0.83234 0.21181 0.0
H1600 H 0.18018 0.82365 0.05515 0.0
C1601 C 0.12975 0.83202 0.19595 0.0
C1602 C 0.12157 0.82831 0.12968 0.0
H1603 H 0.16137 0.83483 0.26378 0.0
H1604 H 0.11603 0.83392 0.23632 0.0
C1605 C 0.14031 0.82595 0.07898 0.0
C1606 C 0.65546 0.88629 0.0421 0.0
C1607 C 0.67426 0.88967 0.09163 0.0
H1608 H 0.61559 0.88476 0.0183 0.0
C1609 C 0.66632 0.89239 0.15881 0.0
H1610 H 0.66085 0.88376 0.99004 0.0
C1611 C 0.64024 0.89276 0.17517 0.0
C1612 C 0.62139 0.89041 0.12482 0.0
H1613 H 0.68017 0.89502 0.19826 0.0
H1614 H 0.63485 0.89531 0.2272 0.0
C1615 C 0.62941 0.88666 0.05842 0.0
C1616 C 0.91758 0.58493 0.78066 0.0
C1617 C 0.93567 0.58017 0.83035 0.0
H1618 H 0.87803 0.58712 0.75381 0.0
C1619 C 0.92685 0.57558 0.89524 0.0
H1620 H 0.92374 0.58881 0.73042 0.0
C1621 C 0.90056 0.5747 0.90874 0.0
C1622 C 0.88244 0.57846 0.85779 0.0
H1623 H 0.9402 0.57182 0.9346 0.0
H1624 H 0.89443 0.57063 0.95877 0.0
C1625 C 0.89133 0.58412 0.7942 0.0
C1626 C 0.38825 0.64631 0.94302 0.0
C1627 C 0.38172 0.63918 0.87966 0.0
H1628 H 0.4183 0.6553 0.00825 0.0
C1629 C 0.40153 0.63388 0.83564 0.0
H1630 H 0.37352 0.65057 0.97792 0.0
C1631 C 0.42721 0.63657 0.85295 0.0
C1632 C 0.43367 0.6448 0.91438 0.0
H1633 H 0.3971 0.62812 0.78677 0.0
H1634 H 0.44193 0.63307 0.81676 0.0
C1635 C 0.41392 0.64917 0.96002 0.0
C1636 C 0.92321 0.6336 0.40857 0.0
C1637 C 0.94312 0.63846 0.36413 0.0
H1638 H 0.88276 0.63316 0.42709 0.0
C1639 C 0.93675 0.64522 0.30003 0.0
H1640 H 0.92752 0.62817 0.45806 0.0
C1641 C 0.91116 0.64812 0.28253 0.0
C1642 C 0.89131 0.64416 0.32838 0.0
H1643 H 0.95157 0.64917 0.26481 0.0
H1644 H 0.90689 0.65396 0.2337 0.0
C1645 C 0.89758 0.63632 0.39073 0.0
C1646 C 0.40696 0.58455 0.46004 0.0
C1647 C 0.38895 0.58005 0.40974 0.0
H1648 H 0.44647 0.58685 0.48722 0.0
C1649 C 0.39784 0.57618 0.34428 0.0
H1650 H 0.40073 0.58791 0.51075 0.0
C1651 C 0.42414 0.57567 0.33072 0.0
C1652 C 0.4422 0.5791 0.38218 0.0
H1653 H 0.38456 0.57266 0.30444 0.0
H1654 H 0.43035 0.57212 0.2802 0.0
C1655 C 0.43322 0.58411 0.44644 0.0
C1656 C 0.14156 0.38954 0.18267 0.0
C1657 C 0.12148 0.38906 0.13499 0.0
H1658 H 0.18197 0.39076 0.19983 0.0
C1659 C 0.1278 0.38764 0.06602 0.0
H1660 H 0.13754 0.39022 0.23637 0.0
C1661 C 0.1534 0.38769 0.04517 0.0
C1662 C 0.17345 0.38921 0.0926 0.0
H1663 H 0.113 0.38721 0.02778 0.0
H1664 H 0.15744 0.38691 0.99148 0.0
C1665 C 0.16718 0.38963 0.16179 0.0
C1666 C 0.6348 0.33583 0.15317 0.0
C1667 C 0.62083 0.32222 0.1213 0.0
H1668 H 0.67137 0.34396 0.19335 0.0
C1669 C 0.6332 0.30617 0.10614 0.0
H1670 H 0.62569 0.34838 0.16463 0.0
C1671 C 0.65885 0.30363 0.12264 0.0
C1672 C 0.67304 0.31718 0.15382 0.0
H1673 H 0.62288 0.29551 0.08148 0.0
H1674 H 0.66774 0.29104 0.11057 0.0
C1675 C 0.66087 0.33339 0.16867 0.0
C1676 C 0.17275 0.33547 0.56561 0.0
C1677 C 0.1811 0.33056 0.63061 0.0
H1678 H 0.14092 0.34002 0.49995 0.0
C1679 C 0.1626 0.32794 0.68164 0.0
H1680 H 0.18632 0.33763 0.52504 0.0
C1681 C 0.13645 0.32909 0.66704 0.0
C1682 C 0.12811 0.33292 0.601 0.0
H1683 H 0.16827 0.32455 0.73274 0.0
H1684 H 0.12284 0.32615 0.70678 0.0
C1685 C 0.14662 0.33665 0.55106 0.0
C1686 C 0.64486 0.38273 0.71376 0.0
C1687 C 0.62694 0.38622 0.66219 0.0
H1688 H 0.68427 0.38111 0.742 0.0
C1689 C 0.6359 0.3889 0.5959 0.0
H1690 H 0.6386 0.38026 0.76519 0.0
C1691 C 0.6622 0.38921 0.58245 0.0
C1692 C 0.68016 0.38682 0.63492 0.0
H1693 H 0.62269 0.39162 0.55502 0.0
H1694 H 0.66844 0.39178 0.5311 0.0
C1695 C 0.67111 0.38303 0.70035 0.0
C1696 C 0.04241 0.11174 0.13977 0.0
C1697 C 0.03552 0.0938 0.1364 0.0
H1698 H 0.05265 0.13509 0.08495 0.0
C1699 C 0.03282 0.08573 0.07225 0.0
H1700 H 0.04477 0.11829 0.18823 0.0
C1701 C 0.03741 0.09531 0.01273 0.0
C1702 C 0.04491 0.11314 0.01619 0.0
H1703 H 1.02745 0.07188 0.0679 0.0
H1704 H 0.03534 0.08873 0.96425 0.0
C1705 C 0.04712 0.12128 0.08034 0.0
C1706 C 0.29806 0.08531 0.18013 0.0
C1707 C 0.29413 0.09332 0.11633 0.0
H1708 H 0.29502 0.08777 0.28821 0.0
C1709 C 0.2846 0.11066 0.1136 0.0
H1710 H 0.30541 0.0719 0.18388 0.0
C1711 C 0.27838 0.11961 0.17333 0.0
C1712 C 0.2817 0.11146 0.23713 0.0
H1713 H 0.28112 0.11711 0.06538 0.0
H1714 H 0.27076 0.13294 0.1692 0.0
C1715 C 0.29195 0.0943 0.23998 0.0
C1716 C 1.01085 0.84358 0.9069 0.0
C1717 C 1.01098 0.85251 0.96977 0.0
H1718 H 1.01263 0.84575 0.79857 0.0
C1719 C 1.01273 0.87105 0.97057 0.0
H1720 H 1.0097 0.82923 0.90453 0.0
C1721 C 1.01412 0.88047 0.90963 0.0
C1722 C 1.01416 0.87152 0.84677 0.0
H1723 H 1.01288 0.87825 0.01807 0.0
H1724 H 1.01548 0.89481 0.91195 0.0
C1725 C 1.0126 0.85298 0.84603 0.0
C1726 C 0.79554 0.84446 0.86049 0.0
C1727 C 0.79629 0.85348 0.7978 0.0
H1728 H 0.79345 0.84655 0.96884 0.0
C1729 C 0.79581 0.87204 0.79729 0.0
H1730 H 0.79571 0.83008 0.86257 0.0
C1731 C 0.79481 0.88141 0.85833 0.0
C1732 C 0.7939 0.87239 0.92103 0.0
H1733 H 0.79636 0.87931 0.74992 0.0
H1734 H 0.79443 0.89578 0.85617 0.0
C1735 C 0.79417 0.85382 0.9215 0.0
C1736 C 0.05821 0.61472 0.66592 0.0
C1737 C 0.05702 0.59617 0.66576 0.0
H1738 H 0.0603 0.63837 0.60661 0.0
C1739 C 0.05713 0.58708 0.60321 0.0
H1740 H 0.05813 0.62205 0.71317 0.0
C1741 C 0.05803 0.59638 0.54196 0.0
C1742 C 0.05928 0.61493 0.54214 0.0
H1743 H 0.05605 0.57272 0.60136 0.0
H1744 H 0.05778 0.58907 0.49468 0.0
C1745 C 0.05954 0.624 0.60472 0.0
C1746 C 0.26771 0.59648 0.69925 0.0
C1747 C 0.26632 0.61502 0.69872 0.0
H1748 H 0.26982 0.57277 0.64029 0.0
C1749 C 0.26605 0.62404 0.63599 0.0
H1750 H 0.26797 0.58922 0.74666 0.0
C1751 C 0.26745 0.6147 0.57497 0.0
C1752 C 0.26871 0.59615 0.57549 0.0
H1753 H 0.26518 0.6384 0.63386 0.0
H1754 H 0.26745 0.62197 0.52759 0.0
C1755 C 0.26868 0.58712 0.63819 0.0
C1756 C 1.00784 0.36751 0.44226 0.0
C1757 C 1.00661 0.34894 0.44151 0.0
H1758 H 1.00897 0.39134 0.38363 0.0
C1759 C 1.00542 0.34006 0.37857 0.0
H1760 H 1.00887 0.37469 0.48974 0.0
C1761 C 1.00587 0.34953 0.31766 0.0
C1762 C 1.00711 0.36808 0.31846 0.0
H1763 H 1.00463 0.3257 0.3761 0.0
H1764 H 1.00516 0.34235 0.27013 0.0
C1765 C 1.00789 0.37699 0.38135 0.0
C1766 C 0.76751 0.33541 0.43346 0.0
C1767 C 0.77213 0.34335 0.36986 0.0
H1768 H 0.76987 0.33784 0.5417 0.0
C1769 C 0.78268 0.36042 0.36761 0.0
H1770 H 0.75944 0.32218 0.4368 0.0
C1771 C 0.78902 0.3692 0.42761 0.0
C1772 C 0.78477 0.36119 0.49129 0.0
H1773 H 0.78678 0.36678 0.31957 0.0
H1774 H 0.79732 0.38234 0.4238 0.0
C1775 C 0.77368 0.34426 0.49361 0.0
C1776 C 0.56033 0.09576 0.65645 0.0
C1777 C 0.55912 0.1049 0.71881 0.0
H1778 H 0.55879 0.09746 0.54789 0.0
C1779 C 0.55566 0.12332 0.7185 0.0
H1780 H 0.56274 0.08147 0.65497 0.0
C1781 C 0.55372 0.13243 0.65701 0.0
C1782 C 0.55476 0.12326 0.59467 0.0
H1783 H 0.55458 0.13067 0.76559 0.0
H1784 H 0.55106 0.14669 0.65848 0.0
C1785 C 0.55794 0.10483 0.59498 0.0
C1786 C 0.76884 0.13146 0.61299 0.0
C1787 C 0.76905 0.12231 0.67545 0.0
H1788 H 0.76744 0.12959 0.50451 0.0
C1789 C 0.76729 0.10378 0.6755 0.0
H1790 H 0.77036 0.1458 0.61121 0.0
C1791 C 0.76527 0.09459 0.61427 0.0
C1792 C 0.76542 0.10372 0.55178 0.0
H1793 H 0.76743 0.09642 0.72267 0.0
H1794 H 0.76406 0.08023 0.61602 0.0
C1795 C 0.76726 0.12225 0.55172 0.0
C1796 C 0.51188 0.86692 0.41004 0.0
C1797 C 0.51331 0.84837 0.40956 0.0
H1798 H 0.5091 0.89062 0.3511 0.0
C1799 C 0.51309 0.83935 0.34687 0.0
H1800 H 0.51205 0.8742 0.45739 0.0
C1801 C 0.5117 0.8487 0.28582 0.0
C1802 C 0.51013 0.86725 0.28632 0.0
H1803 H 0.51435 0.82501 0.34472 0.0
H1804 H 0.51176 0.84144 0.23845 0.0
C1805 C 0.51012 0.87626 0.34902 0.0
C1806 C 0.29758 0.87441 0.39028 0.0
C1807 C 0.2981 0.86543 0.45306 0.0
H1808 H 0.29518 0.87223 0.28195 0.0
C1809 C 0.29708 0.84687 0.45379 0.0
H1810 H 0.29817 0.88878 0.38806 0.0
C1811 C 0.29566 0.83747 0.39295 0.0
C1812 C 0.29485 0.84644 0.33017 0.0
H1813 H 0.29742 0.83963 0.50122 0.0
H1814 H 0.29481 0.82311 0.39535 0.0
C1815 C 0.29577 0.865 0.3294 0.0
C1816 C 0.54362 0.60709 0.10401 0.0
C1817 C 0.5368 0.62504 0.10699 0.0
H1818 H 0.55335 0.58374 0.15942 0.0
C1819 C 0.53376 0.63317 0.17088 0.0
H1820 H 0.54625 0.6005 0.0557 0.0
C1821 C 0.53788 0.62361 0.23063 0.0
C1822 C 0.54528 0.60576 0.22758 0.0
H1823 H 0.52844 0.64703 0.17487 0.0
H1824 H 0.5355 0.63022 0.27897 0.0
C1825 C 0.54789 0.59757 0.16366 0.0
C1826 C 0.79174 0.63295 0.06903 0.0
C1827 C 0.78875 0.62469 0.13277 0.0
H1828 H 0.79005 0.63017 0.96084 0.0
C1829 C 0.78218 0.60669 0.13532 0.0
H1830 H 0.79687 0.64685 0.06537 0.0
C1831 C 0.77807 0.59725 0.07544 0.0
C1832 C 0.78058 0.60557 0.01167 0.0
H1833 H 0.7796 0.60001 0.18347 0.0
H1834 H 0.77278 0.58338 0.07939 0.0
C1835 C 0.78777 0.62346 0.00904 0.0
C1836 C 0.50496 0.3426 0.88121 0.0
C1837 C 0.50528 0.35159 0.94393 0.0
H1838 H 0.50582 0.34472 0.77275 0.0
C1839 C 0.50612 0.37016 0.94443 0.0
H1840 H 0.50451 0.32822 0.87914 0.0
C1841 C 0.5065 0.37955 0.88335 0.0
C1842 C 0.5065 0.37054 0.82062 0.0
H1843 H 0.50638 0.3774 0.99184 0.0
H1844 H 0.50725 0.39391 0.88546 0.0
C1845 C 0.50579 0.35198 0.82014 0.0
C1846 C 0.29244 0.34304 0.84669 0.0
C1847 C 0.29241 0.35197 0.78377 0.0
H1848 H 0.29101 0.34524 0.95508 0.0
C1849 C 0.29106 0.37052 0.78295 0.0
H1850 H 0.29327 0.32867 0.84908 0.0
C1851 C 0.29003 0.37995 0.84387 0.0
C1852 C 0.28996 0.37102 0.90678 0.0
H1853 H 0.29098 0.37773 0.73544 0.0
H1854 H 0.28903 0.39431 0.84149 0.0
C1855 C 0.29105 0.35246 0.90758 0.0
loop_
_geom_bond_atom_site_label_1
_geom_bond_atom_site_label_2
_geom_bond_distance
_geom_bond_site_symmetry_2
_ccdc_geom_bond_type
C0 C1 1.351 . S
C0 N3 1.368 . S
C0 H5 0.931 . S
C1 C0 1.351 . S
C1 N2 1.373 . S
C1 H29 0.930 . S
N2 C1 1.373 . S
N2 C4 1.340 . S
N3 C0 1.368 . S
N3 C4 1.321 . S
N3 Co6 2.135 . S
C4 N2 1.340 . S
C4 N3 1.321 . S
C4 H28 0.930 . S
H5 C0 0.931 . S
Co6 N3 2.135 . S
Co6 N9 2.121 1_655 S
Co6 O14 2.055 . S
Co6 O17 2.039 . S
Co6 N20 2.140 1_655 S
C7 O8 1.227 . S
C7 O17 1.265 . S
O8 C7 1.227 . S
N9 Co6 2.121 1_455 S
N9 C11 1.375 . S
N9 C12 1.313 . S
C10 C11 1.338 . S
C10 N13 1.377 . S
C10 H30 0.930 . S
C11 N9 1.375 . S
C11 C10 1.338 . S
C11 H15 0.931 . S
C12 N9 1.313 . S
C12 N13 1.344 . S
C12 H16 0.930 . S
N13 C10 1.377 . S
N13 C12 1.344 . S
O14 Co6 2.055 . S
O14 C18 1.251 1_655 S
H15 C11 0.931 . S
H16 C12 0.930 . S
O17 Co6 2.039 . S
O17 C7 1.265 . S
C18 O14 1.251 1_455 S
C18 O19 1.227 . S
O19 C18 1.227 . S
N20 Co6 2.140 1_455 S
N20 C23 1.346 1_455 S
N20 C24 1.345 . S
C21 C22 1.387 1_455 S
C21 C25 1.391 . S
C22 C21 1.387 1_655 S
C22 C23 1.369 . S
C22 H31 0.929 . S
C23 N20 1.346 1_655 S
C23 C22 1.369 . S
C23 H26 0.928 . S
C24 N20 1.345 . S
C24 C25 1.371 . S
C24 H27 0.931 . S
C25 C21 1.391 . S
C25 C24 1.371 . S
C25 H32 0.930 . S
H26 C23 0.928 . S
H27 C24 0.931 . S
H28 C4 0.930 . S
H29 C1 0.930 . S
H30 C10 0.930 . S
H31 C22 0.929 . S
H32 C25 0.930 . S
C33 C34 1.351 . S
C33 N36 1.368 . S
C33 H38 0.931 . S
C34 C33 1.351 . S
C34 N35 1.373 . S
C34 H62 0.930 . S
N35 C34 1.373 . S
N35 C37 1.340 . S
N36 C33 1.368 . S
N36 C37 1.321 . S
N36 Co39 2.135 . S
C37 N35 1.340 . S
C37 N36 1.321 . S
C37 H61 0.930 . S
H38 C33 0.931 . S
Co39 N36 2.135 . S
Co39 N42 2.121 . S
Co39 O47 2.055 . S
Co39 O50 2.039 . S
Co39 N53 2.140 . S
C40 O41 1.227 . S
C40 O50 1.265 . S
O41 C40 1.227 . S
N42 Co39 2.121 . S
N42 C44 1.375 . S
N42 C45 1.313 . S
C43 C44 1.338 . S
C43 N46 1.377 . S
C43 H63 0.930 . S
C44 N42 1.375 . S
C44 C43 1.338 . S
C44 H48 0.931 . S
C45 N42 1.313 . S
C45 N46 1.344 . S
C45 H49 0.930 . S
N46 C43 1.377 . S
N46 C45 1.344 . S
O47 Co39 2.055 . S
O47 C51 1.253 . S
H48 C44 0.931 . S
H49 C45 0.930 . S
O50 Co39 2.039 . S
O50 C40 1.265 . S
C51 O47 1.253 . S
C51 O52 1.227 . S
O52 C51 1.227 . S
N53 Co39 2.140 . S
N53 C56 1.346 . S
N53 C57 1.345 . S
C54 C55 1.387 . S
C54 C58 1.391 . S
C55 C54 1.387 . S
C55 C56 1.369 . S
C55 H64 0.929 . S
C56 N53 1.346 . S
C56 C55 1.369 . S
C56 H59 0.928 . S
C57 N53 1.345 . S
C57 C58 1.371 . S
C57 H60 0.931 . S
C58 C54 1.391 . S
C58 C57 1.371 . S
C58 H65 0.930 . S
H59 C56 0.928 . S
H60 C57 0.931 . S
H61 C37 0.930 . S
H62 C34 0.930 . S
H63 C43 0.930 . S
H64 C55 0.929 . S
H65 C58 0.930 . S
C66 C67 1.351 . S
C66 N69 1.368 . S
C66 H71 0.931 . S
C67 C66 1.351 . S
C67 N68 1.373 . S
C67 H95 0.930 . S
N68 C67 1.373 . S
N68 C70 1.340 . S
N69 C66 1.368 . S
N69 C70 1.321 . S
N69 Co72 2.135 . S
C70 N68 1.340 . S
C70 N69 1.321 . S
C70 H94 0.930 . S
H71 C66 0.931 . S
Co72 N69 2.135 . S
Co72 N75 2.121 1_655 S
Co72 O80 2.055 . S
Co72 O83 2.039 . S
Co72 N86 2.140 1_655 S
C73 O74 1.227 . S
C73 O83 1.265 . S
O74 C73 1.227 . S
N75 Co72 2.121 1_455 S
N75 C77 1.375 . S
N75 C78 1.313 . S
C76 C77 1.338 . S
C76 N79 1.377 . S
C76 H96 0.930 . S
C77 N75 1.375 . S
C77 C76 1.338 . S
C77 H81 0.931 . S
C78 N75 1.313 . S
C78 N79 1.344 . S
C78 H82 0.930 . S
N79 C76 1.377 . S
N79 C78 1.344 . S
O80 Co72 2.055 . S
O80 C84 1.251 1_656 S
H81 C77 0.931 . S
H82 C78 0.930 . S
O83 Co72 2.039 . S
O83 C73 1.265 . S
C84 O80 1.251 1_454 S
C84 O85 1.227 1_554 S
O85 C84 1.227 1_556 S
N86 Co72 2.140 1_455 S
N86 C89 1.346 1_455 S
N86 C90 1.345 . S
C87 C88 1.387 1_455 S
C87 C91 1.391 . S
C88 C87 1.387 1_655 S
C88 C89 1.369 . S
C88 H97 0.929 . S
C89 N86 1.346 1_655 S
C89 C88 1.369 . S
C89 H92 0.928 . S
C90 N86 1.345 . S
C90 C91 1.371 . S
C90 H93 0.931 . S
C91 C87 1.391 . S
C91 C90 1.371 . S
C91 H98 0.930 . S
H92 C89 0.928 . S
H93 C90 0.931 . S
H94 C70 0.930 . S
H95 C67 0.930 . S
H96 C76 0.930 . S
H97 C88 0.929 . S
H98 C91 0.930 . S
C99 C100 1.351 . S
C99 N102 1.368 . S
C99 H104 0.931 . S
C100 C99 1.351 . S
C100 N101 1.373 . S
C100 H128 0.930 . S
N101 C100 1.373 . S
N101 C103 1.340 . S
N102 C99 1.368 . S
N102 C103 1.321 . S
N102 Co105 2.135 . S
C103 N101 1.340 . S
C103 N102 1.321 . S
C103 H127 0.930 . S
H104 C99 0.931 . S
Co105 N102 2.135 . S
Co105 N108 2.121 . S
Co105 O113 2.055 . S
Co105 O116 2.039 . S
Co105 N119 2.140 . S
C106 O107 1.227 . S
C106 O116 1.265 . S
O107 C106 1.227 . S
N108 Co105 2.121 . S
N108 C110 1.375 . S
N108 C111 1.313 . S
C109 C110 1.338 . S
C109 N112 1.377 . S
C109 H129 0.930 . S
C110 N108 1.375 . S
C110 C109 1.338 . S
C110 H114 0.931 . S
C111 N108 1.313 . S
C111 N112 1.344 . S
C111 H115 0.930 . S
N112 C109 1.377 . S
N112 C111 1.344 . S
O113 Co105 2.055 . S
O113 C117 1.253 1_556 S
H114 C110 0.931 . S
H115 C111 0.930 . S
O116 Co105 2.039 . S
O116 C106 1.265 . S
C117 O113 1.253 1_554 S
C117 O118 1.227 1_554 S
O118 C117 1.227 1_556 S
N119 Co105 2.140 . S
N119 C122 1.346 . S
N119 C123 1.345 . S
C120 C121 1.387 . S
C120 C124 1.391 . S
C121 C120 1.387 . S
C121 C122 1.369 . S
C121 H130 0.929 . S
C122 N119 1.346 . S
C122 C121 1.369 . S
C122 H125 0.928 . S
C123 N119 1.345 . S
C123 C124 1.371 . S
C123 H126 0.931 . S
C124 C120 1.391 . S
C124 C123 1.371 . S
C124 H131 0.930 . S
H125 C122 0.928 . S
H126 C123 0.931 . S
H127 C103 0.930 . S
H128 C100 0.930 . S
H129 C109 0.930 . S
H130 C121 0.929 . S
H131 C124 0.930 . S
C132 C133 1.351 . S
C132 N135 1.368 . S
C132 H137 0.931 . S
C133 C132 1.351 . S
C133 N134 1.373 . S
C133 H161 0.930 . S
N134 C133 1.373 . S
N134 C136 1.340 . S
N135 C132 1.368 . S
N135 C136 1.321 . S
N135 Co138 2.135 . S
C136 N134 1.340 . S
C136 N135 1.321 . S
C136 H160 0.930 . S
H137 C132 0.931 . S
Co138 N135 2.135 . S
Co138 N141 2.121 1_455 S
Co138 O146 2.055 . S
Co138 O149 2.039 . S
Co138 N152 2.140 1_455 S
C139 O140 1.227 . S
C139 O149 1.265 . S
O140 C139 1.227 . S
N141 Co138 2.121 1_655 S
N141 C143 1.375 . S
N141 C144 1.313 . S
C142 C143 1.338 . S
C142 N145 1.377 . S
C142 H162 0.930 . S
C143 N141 1.375 . S
C143 C142 1.338 . S
C143 H147 0.931 . S
C144 N141 1.313 . S
C144 N145 1.344 . S
C144 H148 0.930 . S
N145 C142 1.377 . S
N145 C144 1.344 . S
O146 Co138 2.055 . S
O146 C150 1.251 1_455 S
H147 C143 0.931 . S
H148 C144 0.930 . S
O149 Co138 2.039 . S
O149 C139 1.265 . S
C150 O146 1.251 1_655 S
C150 O151 1.227 . S
O151 C150 1.227 . S
N152 Co138 2.140 1_655 S
N152 C155 1.346 1_655 S
N152 C156 1.345 . S
C153 C154 1.387 1_655 S
C153 C157 1.391 . S
C154 C153 1.387 1_455 S
C154 C155 1.369 . S
C154 H163 0.929 . S
C155 N152 1.346 1_455 S
C155 C154 1.369 . S
C155 H158 0.928 . S
C156 N152 1.345 . S
C156 C157 1.371 . S
C156 H159 0.931 . S
C157 C153 1.391 . S
C157 C156 1.371 . S
C157 H164 0.930 . S
H158 C155 0.928 . S
H159 C156 0.931 . S
H160 C136 0.930 . S
H161 C133 0.930 . S
H162 C142 0.930 . S
H163 C154 0.929 . S
H164 C157 0.930 . S
C165 C166 1.351 . S
C165 N168 1.368 . S
C165 H170 0.931 . S
C166 C165 1.351 . S
C166 N167 1.373 . S
C166 H194 0.930 . S
N167 C166 1.373 . S
N167 C169 1.340 . S
N168 C165 1.368 . S
N168 C169 1.321 . S
N168 Co171 2.135 . S
C169 N167 1.340 . S
C169 N168 1.321 . S
C169 H193 0.930 . S
H170 C165 0.931 . S
Co171 N168 2.135 . S
Co171 N174 2.121 . S
Co171 O179 2.055 . S
Co171 O182 2.039 . S
Co171 N185 2.140 . S
C172 O173 1.227 . S
C172 O182 1.265 . S
O173 C172 1.227 . S
N174 Co171 2.121 . S
N174 C176 1.375 . S
N174 C177 1.313 . S
C175 C176 1.338 . S
C175 N178 1.377 . S
C175 H195 0.930 . S
C176 N174 1.375 . S
C176 C175 1.338 . S
C176 H180 0.931 . S
C177 N174 1.313 . S
C177 N178 1.344 . S
C177 H181 0.930 . S
N178 C175 1.377 . S
N178 C177 1.344 . S
O179 Co171 2.055 . S
O179 C183 1.253 . S
H180 C176 0.931 . S
H181 C177 0.930 . S
O182 Co171 2.039 . S
O182 C172 1.265 . S
C183 O179 1.253 . S
C183 O184 1.227 . S
O184 C183 1.227 . S
N185 Co171 2.140 . S
N185 C188 1.346 . S
N185 C189 1.345 . S
C186 C187 1.387 . S
C186 C190 1.391 . S
C187 C186 1.387 . S
C187 C188 1.369 . S
C187 H196 0.929 . S
C188 N185 1.346 . S
C188 C187 1.369 . S
C188 H191 0.928 . S
C189 N185 1.345 . S
C189 C190 1.371 . S
C189 H192 0.931 . S
C190 C186 1.391 . S
C190 C189 1.371 . S
C190 H197 0.930 . S
H191 C188 0.928 . S
H192 C189 0.931 . S
H193 C169 0.930 . S
H194 C166 0.930 . S
H195 C175 0.930 . S
H196 C187 0.929 . S
H197 C190 0.930 . S
C198 C199 1.351 . S
C198 N201 1.368 . S
C198 H203 0.931 . S
C199 C198 1.351 . S
C199 N200 1.373 . S
C199 H227 0.930 . S
N200 C199 1.373 . S
N200 C202 1.340 . S
N201 C198 1.368 . S
N201 C202 1.321 . S
N201 Co204 2.135 . S
C202 N200 1.340 . S
C202 N201 1.321 . S
C202 H226 0.930 . S
H203 C198 0.931 . S
Co204 N201 2.135 . S
Co204 N207 2.121 1_455 S
Co204 O212 2.055 . S
Co204 O215 2.039 . S
Co204 N218 2.140 1_455 S
C205 O206 1.227 . S
C205 O215 1.265 . S
O206 C205 1.227 . S
N207 Co204 2.121 1_655 S
N207 C209 1.375 . S
N207 C210 1.313 . S
C208 C209 1.338 . S
C208 N211 1.377 . S
C208 H228 0.930 . S
C209 N207 1.375 . S
C209 C208 1.338 . S
C209 H213 0.931 . S
C210 N207 1.313 . S
C210 N211 1.344 . S
C210 H214 0.930 . S
N211 C208 1.377 . S
N211 C210 1.344 . S
O212 Co204 2.055 . S
O212 C216 1.251 1_454 S
H213 C209 0.931 . S
H214 C210 0.930 . S
O215 Co204 2.039 . S
O215 C205 1.265 . S
C216 O212 1.251 1_656 S
C216 O217 1.227 1_556 S
O217 C216 1.227 1_554 S
N218 Co204 2.140 1_655 S
N218 C221 1.346 1_655 S
N218 C222 1.345 . S
C219 C220 1.387 1_655 S
C219 C223 1.391 . S
C220 C219 1.387 1_455 S
C220 C221 1.369 . S
C220 H229 0.929 . S
C221 N218 1.346 1_455 S
C221 C220 1.369 . S
C221 H224 0.928 . S
C222 N218 1.345 . S
C222 C223 1.371 . S
C222 H225 0.931 . S
C223 C219 1.391 . S
C223 C222 1.371 . S
C223 H230 0.930 . S
H224 C221 0.928 . S
H225 C222 0.931 . S
H226 C202 0.930 . S
H227 C199 0.930 . S
H228 C208 0.930 . S
H229 C220 0.929 . S
H230 C223 0.930 . S
C231 C232 1.351 . S
C231 N234 1.368 . S
C231 H236 0.931 . S
C232 C231 1.351 . S
C232 N233 1.373 . S
C232 H260 0.930 . S
N233 C232 1.373 . S
N233 C235 1.340 . S
N234 C231 1.368 . S
N234 C235 1.321 . S
N234 Co237 2.135 . S
C235 N233 1.340 . S
C235 N234 1.321 . S
C235 H259 0.930 . S
H236 C231 0.931 . S
Co237 N234 2.135 . S
Co237 N240 2.121 . S
Co237 O245 2.055 . S
Co237 O248 2.039 . S
Co237 N251 2.140 . S
C238 O239 1.227 . S
C238 O248 1.265 . S
O239 C238 1.227 . S
N240 Co237 2.121 . S
N240 C242 1.375 . S
N240 C243 1.313 . S
C241 C242 1.338 . S
C241 N244 1.377 . S
C241 H261 0.930 . S
C242 N240 1.375 . S
C242 C241 1.338 . S
C242 H246 0.931 . S
C243 N240 1.313 . S
C243 N244 1.344 . S
C243 H247 0.930 . S
N244 C241 1.377 . S
N244 C243 1.344 . S
O245 Co237 2.055 . S
O245 C249 1.253 1_554 S
H246 C242 0.931 . S
H247 C243 0.930 . S
O248 Co237 2.039 . S
O248 C238 1.265 . S
C249 O245 1.253 1_556 S
C249 O250 1.227 1_556 S
O250 C249 1.227 1_554 S
N251 Co237 2.140 . S
N251 C254 1.346 . S
N251 C255 1.345 . S
C252 C253 1.387 . S
C252 C256 1.391 . S
C253 C252 1.387 . S
C253 C254 1.369 . S
C253 H262 0.929 . S
C254 N251 1.346 . S
C254 C253 1.369 . S
C254 H257 0.928 . S
C255 N251 1.345 . S
C255 C256 1.371 . S
C255 H258 0.931 . S
C256 C252 1.391 . S
C256 C255 1.371 . S
C256 H263 0.930 . S
H257 C254 0.928 . S
H258 C255 0.931 . S
H259 C235 0.930 . S
H260 C232 0.930 . S
H261 C241 0.930 . S
H262 C253 0.929 . S
H263 C256 0.930 . S
C264 C265 1.351 . S
C264 N267 1.368 . S
C264 H269 0.931 . S
C265 C264 1.351 . S
C265 N266 1.373 . S
C265 H293 0.930 . S
N266 C265 1.373 . S
N266 C268 1.340 . S
N267 C264 1.368 . S
N267 C268 1.321 . S
N267 Co270 2.135 . S
C268 N266 1.340 . S
C268 N267 1.321 . S
C268 H292 0.930 . S
H269 C264 0.931 . S
Co270 N267 2.135 . S
Co270 N273 2.121 1_655 S
Co270 O278 2.055 . S
Co270 O281 2.039 . S
Co270 N284 2.140 1_655 S
C271 O272 1.227 . S
C271 O281 1.265 1_554 S
O272 C271 1.227 . S
N273 Co270 2.121 1_455 S
N273 C275 1.375 . S
N273 C276 1.313 . S
C274 C275 1.338 . S
C274 N277 1.377 . S
C274 H294 0.930 . S
C275 N273 1.375 . S
C275 C274 1.338 . S
C275 H279 0.931 . S
C276 N273 1.313 . S
C276 N277 1.344 . S
C276 H280 0.930 . S
N277 C274 1.377 . S
N277 C276 1.344 . S
O278 Co270 2.055 . S
O278 C282 1.251 1_655 S
H279 C275 0.931 . S
H280 C276 0.930 . S
O281 Co270 2.039 . S
O281 C271 1.265 1_556 S
C282 O278 1.251 1_455 S
C282 O283 1.227 . S
O283 C282 1.227 . S
N284 Co270 2.140 1_455 S
N284 C287 1.346 1_455 S
N284 C288 1.345 . S
C285 C286 1.387 1_455 S
C285 C289 1.391 . S
C286 C285 1.387 1_655 S
C286 C287 1.369 . S
C286 H295 0.929 . S
C287 N284 1.346 1_655 S
C287 C286 1.369 . S
C287 H290 0.928 . S
C288 N284 1.345 . S
C288 C289 1.371 . S
C288 H291 0.931 . S
C289 C285 1.391 . S
C289 C288 1.371 . S
C289 H296 0.930 . S
H290 C287 0.928 . S
H291 C288 0.931 . S
H292 C268 0.930 . S
H293 C265 0.930 . S
H294 C274 0.930 . S
H295 C286 0.929 . S
H296 C289 0.930 . S
C297 C298 1.351 . S
C297 N300 1.368 . S
C297 H302 0.931 . S
C298 C297 1.351 . S
C298 N299 1.373 . S
C298 H326 0.930 . S
N299 C298 1.373 . S
N299 C301 1.340 . S
N300 C297 1.368 . S
N300 C301 1.321 . S
N300 Co303 2.135 . S
C301 N299 1.340 . S
C301 N300 1.321 . S
C301 H325 0.930 . S
H302 C297 0.931 . S
Co303 N300 2.135 . S
Co303 N306 2.121 . S
Co303 O311 2.055 . S
Co303 O314 2.039 . S
Co303 N317 2.140 . S
C304 O305 1.227 . S
C304 O314 1.265 1_554 S
O305 C304 1.227 . S
N306 Co303 2.121 . S
N306 C308 1.375 . S
N306 C309 1.313 . S
C307 C308 1.338 . S
C307 N310 1.377 . S
C307 H327 0.930 . S
C308 N306 1.375 . S
C308 C307 1.338 . S
C308 H312 0.931 . S
C309 N306 1.313 . S
C309 N310 1.344 . S
C309 H313 0.930 . S
N310 C307 1.377 . S
N310 C309 1.344 . S
O311 Co303 2.055 . S
O311 C315 1.253 . S
H312 C308 0.931 . S
H313 C309 0.930 . S
O314 Co303 2.039 . S
O314 C304 1.265 1_556 S
C315 O311 1.253 . S
C315 O316 1.227 . S
O316 C315 1.227 . S
N317 Co303 2.140 . S
N317 C320 1.346 . S
N317 C321 1.345 . S
C318 C319 1.387 . S
C318 C322 1.391 . S
C319 C318 1.387 . S
C319 C320 1.369 . S
C319 H328 0.929 . S
C320 N317 1.346 . S
C320 C319 1.369 . S
C320 H323 0.928 . S
C321 N317 1.345 . S
C321 C322 1.371 . S
C321 H324 0.931 . S
C322 C318 1.391 . S
C322 C321 1.371 . S
C322 H329 0.930 . S
H323 C320 0.928 . S
H324 C321 0.931 . S
H325 C301 0.930 . S
H326 C298 0.930 . S
H327 C307 0.930 . S
H328 C319 0.929 . S
H329 C322 0.930 . S
C330 C331 1.351 . S
C330 N333 1.368 . S
C330 H335 0.931 . S
C331 C330 1.351 . S
C331 N332 1.373 . S
C331 H359 0.930 . S
N332 C331 1.373 . S
N332 C334 1.340 . S
N333 C330 1.368 . S
N333 C334 1.321 . S
N333 Co336 2.135 . S
C334 N332 1.340 . S
C334 N333 1.321 . S
C334 H358 0.930 . S
H335 C330 0.931 . S
Co336 N333 2.135 . S
Co336 N339 2.121 1_655 S
Co336 O344 2.055 . S
Co336 O347 2.039 . S
Co336 N350 2.140 1_655 S
C337 O338 1.227 . S
C337 O347 1.265 . S
O338 C337 1.227 . S
N339 Co336 2.121 1_455 S
N339 C341 1.375 . S
N339 C342 1.313 . S
C340 C341 1.338 . S
C340 N343 1.377 . S
C340 H360 0.930 . S
C341 N339 1.375 . S
C341 C340 1.338 . S
C341 H345 0.931 . S
C342 N339 1.313 . S
C342 N343 1.344 . S
C342 H346 0.930 . S
N343 C340 1.377 . S
N343 C342 1.344 . S
O344 Co336 2.055 . S
O344 C348 1.251 1_655 S
H345 C341 0.931 . S
H346 C342 0.930 . S
O347 Co336 2.039 . S
O347 C337 1.265 . S
C348 O344 1.251 1_455 S
C348 O349 1.227 . S
O349 C348 1.227 . S
N350 Co336 2.140 1_455 S
N350 C353 1.346 1_455 S
N350 C354 1.345 . S
C351 C352 1.387 1_455 S
C351 C355 1.391 . S
C352 C351 1.387 1_655 S
C352 C353 1.369 . S
C352 H361 0.929 . S
C353 N350 1.346 1_655 S
C353 C352 1.369 . S
C353 H356 0.928 . S
C354 N350 1.345 . S
C354 C355 1.371 . S
C354 H357 0.931 . S
C355 C351 1.391 . S
C355 C354 1.371 . S
C355 H362 0.930 . S
H356 C353 0.928 . S
H357 C354 0.931 . S
H358 C334 0.930 . S
H359 C331 0.930 . S
H360 C340 0.930 . S
H361 C352 0.929 . S
H362 C355 0.930 . S
C363 C364 1.351 . S
C363 N366 1.368 . S
C363 H368 0.931 . S
C364 C363 1.351 . S
C364 N365 1.373 . S
C364 H392 0.930 . S
N365 C364 1.373 . S
N365 C367 1.340 . S
N366 C363 1.368 . S
N366 C367 1.321 . S
N366 Co369 2.135 . S
C367 N365 1.340 . S
C367 N366 1.321 . S
C367 H391 0.930 . S
H368 C363 0.931 . S
Co369 N366 2.135 . S
Co369 N372 2.121 . S
Co369 O377 2.055 . S
Co369 O380 2.039 . S
Co369 N383 2.140 . S
C370 O371 1.227 . S
C370 O380 1.265 . S
O371 C370 1.227 . S
N372 Co369 2.121 . S
N372 C374 1.375 . S
N372 C375 1.313 . S
C373 C374 1.338 . S
C373 N376 1.377 . S
C373 H393 0.930 . S
C374 N372 1.375 . S
C374 C373 1.338 . S
C374 H378 0.931 . S
C375 N372 1.313 . S
C375 N376 1.344 . S
C375 H379 0.930 . S
N376 C373 1.377 . S
N376 C375 1.344 . S
O377 Co369 2.055 . S
O377 C381 1.253 . S
H378 C374 0.931 . S
H379 C375 0.930 . S
O380 Co369 2.039 . S
O380 C370 1.265 . S
C381 O377 1.253 . S
C381 O382 1.227 . S
O382 C381 1.227 . S
N383 Co369 2.140 . S
N383 C386 1.346 . S
N383 C387 1.345 . S
C384 C385 1.387 . S
C384 C388 1.391 . S
C385 C384 1.387 . S
C385 C386 1.369 . S
C385 H394 0.929 . S
C386 N383 1.346 . S
C386 C385 1.369 . S
C386 H389 0.928 . S
C387 N383 1.345 . S
C387 C388 1.371 . S
C387 H390 0.931 . S
C388 C384 1.391 . S
C388 C387 1.371 . S
C388 H395 0.930 . S
H389 C386 0.928 . S
H390 C387 0.931 . S
H391 C367 0.930 . S
H392 C364 0.930 . S
H393 C373 0.930 . S
H394 C385 0.929 . S
H395 C388 0.930 . S
C396 C397 1.351 . S
C396 N399 1.368 . S
C396 H401 0.931 . S
C397 C396 1.351 . S
C397 N398 1.373 . S
C397 H425 0.930 . S
N398 C397 1.373 . S
N398 C400 1.340 . S
N399 C396 1.368 . S
N399 C400 1.321 . S
N399 Co402 2.135 . S
C400 N398 1.340 . S
C400 N399 1.321 . S
C400 H424 0.930 . S
H401 C396 0.931 . S
Co402 N399 2.135 . S
Co402 N405 2.121 1_455 S
Co402 O410 2.055 . S
Co402 O413 2.039 . S
Co402 N416 2.140 1_455 S
C403 O404 1.227 . S
C403 O413 1.265 1_556 S
O404 C403 1.227 . S
N405 Co402 2.121 1_655 S
N405 C407 1.375 . S
N405 C408 1.313 . S
C406 C407 1.338 . S
C406 N409 1.377 . S
C406 H426 0.930 . S
C407 N405 1.375 . S
C407 C406 1.338 . S
C407 H411 0.931 . S
C408 N405 1.313 . S
C408 N409 1.344 . S
C408 H412 0.930 . S
N409 C406 1.377 . S
N409 C408 1.344 . S
O410 Co402 2.055 . S
O410 C414 1.251 1_455 S
H411 C407 0.931 . S
H412 C408 0.930 . S
O413 Co402 2.039 . S
O413 C403 1.265 1_554 S
C414 O410 1.251 1_655 S
C414 O415 1.227 . S
O415 C414 1.227 . S
N416 Co402 2.140 1_655 S
N416 C419 1.346 1_655 S
N416 C420 1.345 . S
C417 C418 1.387 1_655 S
C417 C421 1.391 . S
C418 C417 1.387 1_455 S
C418 C419 1.369 . S
C418 H427 0.929 . S
C419 N416 1.346 1_455 S
C419 C418 1.369 . S
C419 H422 0.928 . S
C420 N416 1.345 . S
C420 C421 1.371 . S
C420 H423 0.931 . S
C421 C417 1.391 . S
C421 C420 1.371 . S
C421 H428 0.930 . S
H422 C419 0.928 . S
H423 C420 0.931 . S
H424 C400 0.930 . S
H425 C397 0.930 . S
H426 C406 0.930 . S
H427 C418 0.929 . S
H428 C421 0.930 . S
C429 C430 1.351 . S
C429 N432 1.368 . S
C429 H434 0.931 . S
C430 C429 1.351 . S
C430 N431 1.373 . S
C430 H458 0.930 . S
N431 C430 1.373 . S
N431 C433 1.340 . S
N432 C429 1.368 . S
N432 C433 1.321 . S
N432 Co435 2.135 . S
C433 N431 1.340 . S
C433 N432 1.321 . S
C433 H457 0.930 . S
H434 C429 0.931 . S
Co435 N432 2.135 . S
Co435 N438 2.121 . S
Co435 O443 2.055 . S
Co435 O446 2.039 . S
Co435 N449 2.140 . S
C436 O437 1.227 . S
C436 O446 1.265 1_556 S
O437 C436 1.227 . S
N438 Co435 2.121 . S
N438 C440 1.375 . S
N438 C441 1.313 . S
C439 C440 1.338 . S
C439 N442 1.377 . S
C439 H459 0.930 . S
C440 N438 1.375 . S
C440 C439 1.338 . S
C440 H444 0.931 . S
C441 N438 1.313 . S
C441 N442 1.344 . S
C441 H445 0.930 . S
N442 C439 1.377 . S
N442 C441 1.344 . S
O443 Co435 2.055 . S
O443 C447 1.253 . S
H444 C440 0.931 . S
H445 C441 0.930 . S
O446 Co435 2.039 . S
O446 C436 1.265 1_554 S
C447 O443 1.253 . S
C447 O448 1.227 . S
O448 C447 1.227 . S
N449 Co435 2.140 . S
N449 C452 1.346 . S
N449 C453 1.345 . S
C450 C451 1.387 . S
C450 C454 1.391 . S
C451 C450 1.387 . S
C451 C452 1.369 . S
C451 H460 0.929 . S
C452 N449 1.346 . S
C452 C451 1.369 . S
C452 H455 0.928 . S
C453 N449 1.345 . S
C453 C454 1.371 . S
C453 H456 0.931 . S
C454 C450 1.391 . S
C454 C453 1.371 . S
C454 H461 0.930 . S
H455 C452 0.928 . S
H456 C453 0.931 . S
H457 C433 0.930 . S
H458 C430 0.930 . S
H459 C439 0.930 . S
H460 C451 0.929 . S
H461 C454 0.930 . S
C462 C463 1.351 . S
C462 N465 1.368 . S
C462 H467 0.931 . S
C463 C462 1.351 . S
C463 N464 1.373 . S
C463 H491 0.930 . S
N464 C463 1.373 . S
N464 C466 1.340 . S
N465 C462 1.368 . S
N465 C466 1.321 . S
N465 Co468 2.135 . S
C466 N464 1.340 . S
C466 N465 1.321 . S
C466 H490 0.930 . S
H467 C462 0.931 . S
Co468 N465 2.135 . S
Co468 N471 2.121 1_455 S
Co468 O476 2.055 . S
Co468 O479 2.039 . S
Co468 N482 2.140 1_455 S
C469 O470 1.227 . S
C469 O479 1.265 . S
O470 C469 1.227 . S
N471 Co468 2.121 1_655 S
N471 C473 1.375 . S
N471 C474 1.313 . S
C472 C473 1.338 . S
C472 N475 1.377 . S
C472 H492 0.930 . S
C473 N471 1.375 . S
C473 C472 1.338 . S
C473 H477 0.931 . S
C474 N471 1.313 . S
C474 N475 1.344 . S
C474 H478 0.930 . S
N475 C472 1.377 . S
N475 C474 1.344 . S
O476 Co468 2.055 . S
O476 C480 1.251 1_455 S
H477 C473 0.931 . S
H478 C474 0.930 . S
O479 Co468 2.039 . S
O479 C469 1.265 . S
C480 O476 1.251 1_655 S
C480 O481 1.227 . S
O481 C480 1.227 . S
N482 Co468 2.140 1_655 S
N482 C485 1.346 1_655 S
N482 C486 1.345 . S
C483 C484 1.387 1_655 S
C483 C487 1.391 . S
C484 C483 1.387 1_455 S
C484 C485 1.369 . S
C484 H493 0.929 . S
C485 N482 1.346 1_455 S
C485 C484 1.369 . S
C485 H488 0.928 . S
C486 N482 1.345 . S
C486 C487 1.371 . S
C486 H489 0.931 . S
C487 C483 1.391 . S
C487 C486 1.371 . S
C487 H494 0.930 . S
H488 C485 0.928 . S
H489 C486 0.931 . S
H490 C466 0.930 . S
H491 C463 0.930 . S
H492 C472 0.930 . S
H493 C484 0.929 . S
H494 C487 0.930 . S
C495 C496 1.351 . S
C495 N498 1.368 . S
C495 H500 0.931 . S
C496 C495 1.351 . S
C496 N497 1.373 . S
C496 H524 0.930 . S
N497 C496 1.373 . S
N497 C499 1.340 . S
N498 C495 1.368 . S
N498 C499 1.321 . S
N498 Co501 2.135 . S
C499 N497 1.340 . S
C499 N498 1.321 . S
C499 H523 0.930 . S
H500 C495 0.931 . S
Co501 N498 2.135 . S
Co501 N504 2.121 . S
Co501 O509 2.055 . S
Co501 O512 2.039 . S
Co501 N515 2.140 . S
C502 O503 1.227 . S
C502 O512 1.265 . S
O503 C502 1.227 . S
N504 Co501 2.121 . S
N504 C506 1.375 . S
N504 C507 1.313 . S
C505 C506 1.338 . S
C505 N508 1.377 . S
C505 H525 0.930 . S
C506 N504 1.375 . S
C506 C505 1.338 . S
C506 H510 0.931 . S
C507 N504 1.313 . S
C507 N508 1.344 . S
C507 H511 0.930 . S
N508 C505 1.377 . S
N508 C507 1.344 . S
O509 Co501 2.055 . S
O509 C513 1.253 . S
H510 C506 0.931 . S
H511 C507 0.930 . S
O512 Co501 2.039 . S
O512 C502 1.265 . S
C513 O509 1.253 . S
C513 O514 1.227 . S
O514 C513 1.227 . S
N515 Co501 2.140 . S
N515 C518 1.346 . S
N515 C519 1.345 . S
C516 C517 1.387 . S
C516 C520 1.391 . S
C517 C516 1.387 . S
C517 C518 1.369 . S
C517 H526 0.929 . S
C518 N515 1.346 . S
C518 C517 1.369 . S
C518 H521 0.928 . S
C519 N515 1.345 . S
C519 C520 1.371 . S
C519 H522 0.931 . S
C520 C516 1.391 . S
C520 C519 1.371 . S
C520 H527 0.930 . S
H521 C518 0.928 . S
H522 C519 0.931 . S
H523 C499 0.930 . S
H524 C496 0.930 . S
H525 C505 0.930 . S
H526 C517 0.929 . S
H527 C520 0.930 . S
C528 C529 1.351 . S
C528 N531 1.368 . S
C528 H533 0.931 . S
C529 C528 1.351 . S
C529 N530 1.373 . S
C529 H557 0.930 . S
N530 C529 1.373 . S
N530 C532 1.340 . S
N531 C528 1.368 . S
N531 C532 1.321 . S
N531 Co534 2.135 . S
C532 N530 1.340 . S
C532 N531 1.321 . S
C532 H556 0.930 . S
H533 C528 0.931 . S
Co534 N531 2.135 . S
Co534 N537 2.121 . S
Co534 O542 2.055 . S
Co534 O545 2.039 . S
Co534 N548 2.140 . S
C535 O536 1.227 . S
C535 O545 1.265 1_554 S
O536 C535 1.227 . S
N537 Co534 2.121 . S
N537 C539 1.375 . S
N537 C540 1.313 . S
C538 C539 1.338 . S
C538 N541 1.377 . S
C538 H558 0.930 . S
C539 N537 1.375 . S
C539 C538 1.338 . S
C539 H543 0.931 . S
C540 N537 1.313 . S
C540 N541 1.344 . S
C540 H544 0.930 . S
N541 C538 1.377 . S
N541 C540 1.344 . S
O542 Co534 2.055 . S
O542 C546 1.253 . S
H543 C539 0.931 . S
H544 C540 0.930 . S
O545 Co534 2.039 . S
O545 C535 1.265 1_556 S
C546 O542 1.253 . S
C546 O547 1.227 . S
O547 C546 1.227 . S
N548 Co534 2.140 . S
N548 C551 1.346 . S
N548 C552 1.345 . S
C549 C550 1.387 . S
C549 C553 1.391 . S
C550 C549 1.387 . S
C550 C551 1.369 . S
C550 H559 0.929 . S
C551 N548 1.346 . S
C551 C550 1.369 . S
C551 H554 0.928 . S
C552 N548 1.345 . S
C552 C553 1.371 . S
C552 H555 0.931 . S
C553 C549 1.391 . S
C553 C552 1.371 . S
C553 H560 0.930 . S
H554 C551 0.928 . S
H555 C552 0.931 . S
H556 C532 0.930 . S
H557 C529 0.930 . S
H558 C538 0.930 . S
H559 C550 0.929 . S
H560 C553 0.930 . S
C561 C562 1.351 . S
C561 N564 1.368 . S
C561 H566 0.931 . S
C562 C561 1.351 . S
C562 N563 1.373 . S
C562 H590 0.930 . S
N563 C562 1.373 . S
N563 C565 1.340 . S
N564 C561 1.368 . S
N564 C565 1.321 . S
N564 Co567 2.135 . S
C565 N563 1.340 . S
C565 N564 1.321 . S
C565 H589 0.930 . S
H566 C561 0.931 . S
Co567 N564 2.135 . S
Co567 N570 2.121 . S
Co567 O575 2.055 . S
Co567 O578 2.039 . S
Co567 N581 2.140 . S
C568 O569 1.227 . S
C568 O578 1.265 1_554 S
O569 C568 1.227 . S
N570 Co567 2.121 . S
N570 C572 1.375 . S
N570 C573 1.313 . S
C571 C572 1.338 . S
C571 N574 1.377 . S
C571 H591 0.930 . S
C572 N570 1.375 . S
C572 C571 1.338 . S
C572 H576 0.931 . S
C573 N570 1.313 . S
C573 N574 1.344 . S
C573 H577 0.930 . S
N574 C571 1.377 . S
N574 C573 1.344 . S
O575 Co567 2.055 . S
O575 C579 1.253 . S
H576 C572 0.931 . S
H577 C573 0.930 . S
O578 Co567 2.039 . S
O578 C568 1.265 1_556 S
C579 O575 1.253 . S
C579 O580 1.227 . S
O580 C579 1.227 . S
N581 Co567 2.140 . S
N581 C584 1.346 . S
N581 C585 1.345 . S
C582 C583 1.387 . S
C582 C586 1.391 . S
C583 C582 1.387 . S
C583 C584 1.369 . S
C583 H592 0.929 . S
C584 N581 1.346 . S
C584 C583 1.369 . S
C584 H587 0.928 . S
C585 N581 1.345 . S
C585 C586 1.371 . S
C585 H588 0.931 . S
C586 C582 1.391 . S
C586 C585 1.371 . S
C586 H593 0.930 . S
H587 C584 0.928 . S
H588 C585 0.931 . S
H589 C565 0.930 . S
H590 C562 0.930 . S
H591 C571 0.930 . S
H592 C583 0.929 . S
H593 C586 0.930 . S
C594 C595 1.351 . S
C594 N597 1.368 . S
C594 H599 0.931 . S
C595 C594 1.351 . S
C595 N596 1.373 . S
C595 H623 0.930 . S
N596 C595 1.373 . S
N596 C598 1.340 . S
N597 C594 1.368 . S
N597 C598 1.321 . S
N597 Co600 2.135 . S
C598 N596 1.340 . S
C598 N597 1.321 . S
C598 H622 0.930 . S
H599 C594 0.931 . S
Co600 N597 2.135 . S
Co600 N603 2.121 . S
Co600 O608 2.055 . S
Co600 O611 2.039 . S
Co600 N614 2.140 . S
C601 O602 1.227 . S
C601 O611 1.265 . S
O602 C601 1.227 . S
N603 Co600 2.121 . S
N603 C605 1.375 . S
N603 C606 1.313 . S
C604 C605 1.338 . S
C604 N607 1.377 . S
C604 H624 0.930 . S
C605 N603 1.375 . S
C605 C604 1.338 . S
C605 H609 0.931 . S
C606 N603 1.313 . S
C606 N607 1.344 . S
C606 H610 0.930 . S
N607 C604 1.377 . S
N607 C606 1.344 . S
O608 Co600 2.055 . S
O608 C612 1.253 . S
H609 C605 0.931 . S
H610 C606 0.930 . S
O611 Co600 2.039 . S
O611 C601 1.265 . S
C612 O608 1.253 . S
C612 O613 1.227 . S
O613 C612 1.227 . S
N614 Co600 2.140 . S
N614 C617 1.346 . S
N614 C618 1.345 . S
C615 C616 1.387 . S
C615 C619 1.391 . S
C616 C615 1.387 . S
C616 C617 1.369 . S
C616 H625 0.929 . S
C617 N614 1.346 . S
C617 C616 1.369 . S
C617 H620 0.928 . S
C618 N614 1.345 . S
C618 C619 1.371 . S
C618 H621 0.931 . S
C619 C615 1.391 . S
C619 C618 1.371 . S
C619 H626 0.930 . S
H620 C617 0.928 . S
H621 C618 0.931 . S
H622 C598 0.930 . S
H623 C595 0.930 . S
H624 C604 0.930 . S
H625 C616 0.929 . S
H626 C619 0.930 . S
C627 C628 1.351 . S
C627 N630 1.368 . S
C627 H632 0.931 . S
C628 C627 1.351 . S
C628 N629 1.373 . S
C628 H656 0.930 . S
N629 C628 1.373 . S
N629 C631 1.340 . S
N630 C627 1.368 . S
N630 C631 1.321 . S
N630 Co633 2.135 . S
C631 N629 1.340 . S
C631 N630 1.321 . S
C631 H655 0.930 . S
H632 C627 0.931 . S
Co633 N630 2.135 . S
Co633 N636 2.121 . S
Co633 O641 2.055 . S
Co633 O644 2.039 . S
Co633 N647 2.140 . S
C634 O635 1.227 . S
C634 O644 1.265 . S
O635 C634 1.227 . S
N636 Co633 2.121 . S
N636 C638 1.375 . S
N636 C639 1.313 . S
C637 C638 1.338 . S
C637 N640 1.377 . S
C637 H657 0.930 . S
C638 N636 1.375 . S
C638 C637 1.338 . S
C638 H642 0.931 . S
C639 N636 1.313 . S
C639 N640 1.344 . S
C639 H643 0.930 . S
N640 C637 1.377 . S
N640 C639 1.344 . S
O641 Co633 2.055 . S
O641 C645 1.253 . S
H642 C638 0.931 . S
H643 C639 0.930 . S
O644 Co633 2.039 . S
O644 C634 1.265 . S
C645 O641 1.253 . S
C645 O646 1.227 . S
O646 C645 1.227 . S
N647 Co633 2.140 . S
N647 C650 1.346 . S
N647 C651 1.345 . S
C648 C649 1.387 . S
C648 C652 1.391 . S
C649 C648 1.387 . S
C649 C650 1.369 . S
C649 H658 0.929 . S
C650 N647 1.346 . S
C650 C649 1.369 . S
C650 H653 0.928 . S
C651 N647 1.345 . S
C651 C652 1.371 . S
C651 H654 0.931 . S
C652 C648 1.391 . S
C652 C651 1.371 . S
C652 H659 0.930 . S
H653 C650 0.928 . S
H654 C651 0.931 . S
H655 C631 0.930 . S
H656 C628 0.930 . S
H657 C637 0.930 . S
H658 C649 0.929 . S
H659 C652 0.930 . S
C660 C661 1.351 . S
C660 N663 1.368 . S
C660 H665 0.931 . S
C661 C660 1.351 . S
C661 N662 1.373 . S
C661 H689 0.930 . S
N662 C661 1.373 . S
N662 C664 1.340 . S
N663 C660 1.368 . S
N663 C664 1.321 . S
N663 Co666 2.135 . S
C664 N662 1.340 . S
C664 N663 1.321 . S
C664 H688 0.930 . S
H665 C660 0.931 . S
Co666 N663 2.135 . S
Co666 N669 2.121 . S
Co666 O674 2.055 . S
Co666 O677 2.039 . S
Co666 N680 2.140 . S
C667 O668 1.227 . S
C667 O677 1.265 1_556 S
O668 C667 1.227 . S
N669 Co666 2.121 . S
N669 C671 1.375 . S
N669 C672 1.313 . S
C670 C671 1.338 . S
C670 N673 1.377 . S
C670 H690 0.930 . S
C671 N669 1.375 . S
C671 C670 1.338 . S
C671 H675 0.931 . S
C672 N669 1.313 . S
C672 N673 1.344 . S
C672 H676 0.930 . S
N673 C670 1.377 . S
N673 C672 1.344 . S
O674 Co666 2.055 . S
O674 C678 1.253 . S
H675 C671 0.931 . S
H676 C672 0.930 . S
O677 Co666 2.039 . S
O677 C667 1.265 1_554 S
C678 O674 1.253 . S
C678 O679 1.227 . S
O679 C678 1.227 . S
N680 Co666 2.140 . S
N680 C683 1.346 . S
N680 C684 1.345 . S
C681 C682 1.387 . S
C681 C685 1.391 . S
C682 C681 1.387 . S
C682 C683 1.369 . S
C682 H691 0.929 . S
C683 N680 1.346 . S
C683 C682 1.369 . S
C683 H686 0.928 . S
C684 N680 1.345 . S
C684 C685 1.371 . S
C684 H687 0.931 . S
C685 C681 1.391 . S
C685 C684 1.371 . S
C685 H692 0.930 . S
H686 C683 0.928 . S
H687 C684 0.931 . S
H688 C664 0.930 . S
H689 C661 0.930 . S
H690 C670 0.930 . S
H691 C682 0.929 . S
H692 C685 0.930 . S
C693 C694 1.351 . S
C693 N696 1.368 . S
C693 H698 0.931 . S
C694 C693 1.351 . S
C694 N695 1.373 . S
C694 H722 0.930 . S
N695 C694 1.373 . S
N695 C697 1.340 . S
N696 C693 1.368 . S
N696 C697 1.321 . S
N696 Co699 2.135 . S
C697 N695 1.340 . S
C697 N696 1.321 . S
C697 H721 0.930 . S
H698 C693 0.931 . S
Co699 N696 2.135 . S
Co699 N702 2.121 . S
Co699 O707 2.055 . S
Co699 O710 2.039 . S
Co699 N713 2.140 . S
C700 O701 1.227 . S
C700 O710 1.265 1_556 S
O701 C700 1.227 . S
N702 Co699 2.121 . S
N702 C704 1.375 . S
N702 C705 1.313 . S
C703 C704 1.338 . S
C703 N706 1.377 . S
C703 H723 0.930 . S
C704 N702 1.375 . S
C704 C703 1.338 . S
C704 H708 0.931 . S
C705 N702 1.313 . S
C705 N706 1.344 . S
C705 H709 0.930 . S
N706 C703 1.377 . S
N706 C705 1.344 . S
O707 Co699 2.055 . S
O707 C711 1.253 . S
H708 C704 0.931 . S
H709 C705 0.930 . S
O710 Co699 2.039 . S
O710 C700 1.265 1_554 S
C711 O707 1.253 . S
C711 O712 1.227 . S
O712 C711 1.227 . S
N713 Co699 2.140 . S
N713 C716 1.346 . S
N713 C717 1.345 . S
C714 C715 1.387 . S
C714 C718 1.391 . S
C715 C714 1.387 . S
C715 C716 1.369 . S
C715 H724 0.929 . S
C716 N713 1.346 . S
C716 C715 1.369 . S
C716 H719 0.928 . S
C717 N713 1.345 . S
C717 C718 1.371 . S
C717 H720 0.931 . S
C718 C714 1.391 . S
C718 C717 1.371 . S
C718 H725 0.930 . S
H719 C716 0.928 . S
H720 C717 0.931 . S
H721 C697 0.930 . S
H722 C694 0.930 . S
H723 C703 0.930 . S
H724 C715 0.929 . S
H725 C718 0.930 . S
C726 C727 1.351 . S
C726 N729 1.368 . S
C726 H731 0.931 . S
C727 C726 1.351 . S
C727 N728 1.373 . S
C727 H755 0.930 . S
N728 C727 1.373 . S
N728 C730 1.340 . S
N729 C726 1.368 . S
N729 C730 1.321 . S
N729 Co732 2.135 . S
C730 N728 1.340 . S
C730 N729 1.321 . S
C730 H754 0.930 . S
H731 C726 0.931 . S
Co732 N729 2.135 . S
Co732 N735 2.121 . S
Co732 O740 2.055 . S
Co732 O743 2.039 . S
Co732 N746 2.140 . S
C733 O734 1.227 . S
C733 O743 1.265 . S
O734 C733 1.227 . S
N735 Co732 2.121 . S
N735 C737 1.375 . S
N735 C738 1.313 . S
C736 C737 1.338 . S
C736 N739 1.377 . S
C736 H756 0.930 . S
C737 N735 1.375 . S
C737 C736 1.338 . S
C737 H741 0.931 . S
C738 N735 1.313 . S
C738 N739 1.344 . S
C738 H742 0.930 . S
N739 C736 1.377 . S
N739 C738 1.344 . S
O740 Co732 2.055 . S
O740 C744 1.253 . S
H741 C737 0.931 . S
H742 C738 0.930 . S
O743 Co732 2.039 . S
O743 C733 1.265 . S
C744 O740 1.253 . S
C744 O745 1.227 . S
O745 C744 1.227 . S
N746 Co732 2.140 . S
N746 C749 1.346 . S
N746 C750 1.345 . S
C747 C748 1.387 . S
C747 C751 1.391 . S
C748 C747 1.387 . S
C748 C749 1.369 . S
C748 H757 0.929 . S
C749 N746 1.346 . S
C749 C748 1.369 . S
C749 H752 0.928 . S
C750 N746 1.345 . S
C750 C751 1.371 . S
C750 H753 0.931 . S
C751 C747 1.391 . S
C751 C750 1.371 . S
C751 H758 0.930 . S
H752 C749 0.928 . S
H753 C750 0.931 . S
H754 C730 0.930 . S
H755 C727 0.930 . S
H756 C736 0.930 . S
H757 C748 0.929 . S
H758 C751 0.930 . S
C759 C760 1.351 . S
C759 N762 1.368 . S
C759 H764 0.931 . S
C760 C759 1.351 . S
C760 N761 1.373 . S
C760 H788 0.930 . S
N761 C760 1.373 . S
N761 C763 1.340 . S
N762 C759 1.368 . S
N762 C763 1.321 . S
N762 Co765 2.135 . S
C763 N761 1.340 . S
C763 N762 1.321 . S
C763 H787 0.930 . S
H764 C759 0.931 . S
Co765 N762 2.135 . S
Co765 N768 2.121 . S
Co765 O773 2.055 . S
Co765 O776 2.039 . S
Co765 N779 2.140 . S
C766 O767 1.227 . S
C766 O776 1.265 . S
O767 C766 1.227 . S
N768 Co765 2.121 . S
N768 C770 1.375 . S
N768 C771 1.313 . S
C769 C770 1.338 . S
C769 N772 1.377 . S
C769 H789 0.930 . S
C770 N768 1.375 . S
C770 C769 1.338 . S
C770 H774 0.931 . S
C771 N768 1.313 . S
C771 N772 1.344 . S
C771 H775 0.930 . S
N772 C769 1.377 . S
N772 C771 1.344 . S
O773 Co765 2.055 . S
O773 C777 1.253 . S
H774 C770 0.931 . S
H775 C771 0.930 . S
O776 Co765 2.039 . S
O776 C766 1.265 . S
C777 O773 1.253 . S
C777 O778 1.227 . S
O778 C777 1.227 . S
N779 Co765 2.140 . S
N779 C782 1.346 . S
N779 C783 1.345 . S
C780 C781 1.387 . S
C780 C784 1.391 . S
C781 C780 1.387 . S
C781 C782 1.369 . S
C781 H790 0.929 . S
C782 N779 1.346 . S
C782 C781 1.369 . S
C782 H785 0.928 . S
C783 N779 1.345 . S
C783 C784 1.371 . S
C783 H786 0.931 . S
C784 C780 1.391 . S
C784 C783 1.371 . S
C784 H791 0.930 . S
H785 C782 0.928 . S
H786 C783 0.931 . S
H787 C763 0.930 . S
H788 C760 0.930 . S
H789 C769 0.930 . S
H790 C781 0.929 . S
H791 C784 0.930 . S
C792 C793 1.351 . S
C792 N795 1.368 . S
C792 H797 0.931 . S
C793 C792 1.351 . S
C793 N794 1.373 . S
C793 H821 0.930 . S
N794 C793 1.373 . S
N794 C796 1.340 . S
N795 C792 1.368 . S
N795 C796 1.321 . S
N795 Co798 2.135 . S
C796 N794 1.340 . S
C796 N795 1.321 . S
C796 H820 0.930 . S
H797 C792 0.931 . S
Co798 N795 2.135 . S
Co798 N801 2.121 . S
Co798 O806 2.055 . S
Co798 O809 2.039 . S
Co798 N812 2.140 . S
C799 O800 1.227 . S
C799 O809 1.265 . S
O800 C799 1.227 . S
N801 Co798 2.121 . S
N801 C803 1.375 . S
N801 C804 1.313 . S
C802 C803 1.338 . S
C802 N805 1.377 . S
C802 H822 0.930 . S
C803 N801 1.375 . S
C803 C802 1.338 . S
C803 H807 0.931 . S
C804 N801 1.313 . S
C804 N805 1.344 . S
C804 H808 0.930 . S
N805 C802 1.377 . S
N805 C804 1.344 . S
O806 Co798 2.055 . S
O806 C810 1.253 . S
H807 C803 0.931 . S
H808 C804 0.930 . S
O809 Co798 2.039 . S
O809 C799 1.265 . S
C810 O806 1.253 . S
C810 O811 1.227 . S
O811 C810 1.227 . S
N812 Co798 2.140 . S
N812 C815 1.346 . S
N812 C816 1.345 . S
C813 C814 1.387 . S
C813 C817 1.391 . S
C814 C813 1.387 . S
C814 C815 1.369 . S
C814 H823 0.929 . S
C815 N812 1.346 . S
C815 C814 1.369 . S
C815 H818 0.928 . S
C816 N812 1.345 . S
C816 C817 1.371 . S
C816 H819 0.931 . S
C817 C813 1.391 . S
C817 C816 1.371 . S
C817 H824 0.930 . S
H818 C815 0.928 . S
H819 C816 0.931 . S
H820 C796 0.930 . S
H821 C793 0.930 . S
H822 C802 0.930 . S
H823 C814 0.929 . S
H824 C817 0.930 . S
C825 C826 1.351 . S
C825 N828 1.368 . S
C825 H830 0.931 . S
C826 C825 1.351 . S
C826 N827 1.373 . S
C826 H854 0.930 . S
N827 C826 1.373 . S
N827 C829 1.340 . S
N828 C825 1.368 . S
N828 C829 1.321 . S
N828 Co831 2.135 . S
C829 N827 1.340 . S
C829 N828 1.321 . S
C829 H853 0.930 . S
H830 C825 0.931 . S
Co831 N828 2.135 . S
Co831 N834 2.121 . S
Co831 O839 2.055 . S
Co831 O842 2.039 . S
Co831 N845 2.140 . S
C832 O833 1.227 . S
C832 O842 1.265 . S
O833 C832 1.227 . S
N834 Co831 2.121 . S
N834 C836 1.375 . S
N834 C837 1.313 . S
C835 C836 1.338 . S
C835 N838 1.377 . S
C835 H855 0.930 . S
C836 N834 1.375 . S
C836 C835 1.338 . S
C836 H840 0.931 . S
C837 N834 1.313 . S
C837 N838 1.344 . S
C837 H841 0.930 . S
N838 C835 1.377 . S
N838 C837 1.344 . S
O839 Co831 2.055 . S
O839 C843 1.253 . S
H840 C836 0.931 . S
H841 C837 0.930 . S
O842 Co831 2.039 . S
O842 C832 1.265 . S
C843 O839 1.253 . S
C843 O844 1.227 . S
O844 C843 1.227 . S
N845 Co831 2.140 . S
N845 C848 1.346 . S
N845 C849 1.345 . S
C846 C847 1.387 . S
C846 C850 1.391 . S
C847 C846 1.387 . S
C847 C848 1.369 . S
C847 H856 0.929 . S
C848 N845 1.346 . S
C848 C847 1.369 . S
C848 H851 0.928 . S
C849 N845 1.345 . S
C849 C850 1.371 . S
C849 H852 0.931 . S
C850 C846 1.391 . S
C850 C849 1.371 . S
C850 H857 0.930 . S
H851 C848 0.928 . S
H852 C849 0.931 . S
H853 C829 0.930 . S
H854 C826 0.930 . S
H855 C835 0.930 . S
H856 C847 0.929 . S
H857 C850 0.930 . S
C858 C859 1.351 . S
C858 N861 1.368 . S
C858 H863 0.931 . S
C859 C858 1.351 . S
C859 N860 1.373 . S
C859 H887 0.930 . S
N860 C859 1.373 . S
N860 C862 1.340 . S
N861 C858 1.368 . S
N861 C862 1.321 . S
N861 Co864 2.135 . S
C862 N860 1.340 . S
C862 N861 1.321 . S
C862 H886 0.930 . S
H863 C858 0.931 . S
Co864 N861 2.135 . S
Co864 N867 2.121 . S
Co864 O872 2.055 . S
Co864 O875 2.039 . S
Co864 N878 2.140 . S
C865 O866 1.227 . S
C865 O875 1.265 . S
O866 C865 1.227 . S
N867 Co864 2.121 . S
N867 C869 1.375 . S
N867 C870 1.313 . S
C868 C869 1.338 . S
C868 N871 1.377 . S
C868 H888 0.930 . S
C869 N867 1.375 . S
C869 C868 1.338 . S
C869 H873 0.931 . S
C870 N867 1.313 . S
C870 N871 1.344 . S
C870 H874 0.930 . S
N871 C868 1.377 . S
N871 C870 1.344 . S
O872 Co864 2.055 . S
O872 C876 1.253 1_556 S
H873 C869 0.931 . S
H874 C870 0.930 . S
O875 Co864 2.039 . S
O875 C865 1.265 . S
C876 O872 1.253 1_554 S
C876 O877 1.227 1_554 S
O877 C876 1.227 1_556 S
N878 Co864 2.140 . S
N878 C881 1.346 . S
N878 C882 1.345 . S
C879 C880 1.387 . S
C879 C883 1.391 . S
C880 C879 1.387 . S
C880 C881 1.369 . S
C880 H889 0.929 . S
C881 N878 1.346 . S
C881 C880 1.369 . S
C881 H884 0.928 . S
C882 N878 1.345 . S
C882 C883 1.371 . S
C882 H885 0.931 . S
C883 C879 1.391 . S
C883 C882 1.371 . S
C883 H890 0.930 . S
H884 C881 0.928 . S
H885 C882 0.931 . S
H886 C862 0.930 . S
H887 C859 0.930 . S
H888 C868 0.930 . S
H889 C880 0.929 . S
H890 C883 0.930 . S
C891 C892 1.351 . S
C891 N894 1.368 . S
C891 H896 0.931 . S
C892 C891 1.351 . S
C892 N893 1.373 . S
C892 H920 0.930 . S
N893 C892 1.373 . S
N893 C895 1.340 . S
N894 C891 1.368 . S
N894 C895 1.321 . S
N894 Co897 2.135 . S
C895 N893 1.340 . S
C895 N894 1.321 . S
C895 H919 0.930 . S
H896 C891 0.931 . S
Co897 N894 2.135 . S
Co897 N900 2.121 . S
Co897 O905 2.055 . S
Co897 O908 2.039 . S
Co897 N911 2.140 . S
C898 O899 1.227 . S
C898 O908 1.265 . S
O899 C898 1.227 . S
N900 Co897 2.121 . S
N900 C902 1.375 . S
N900 C903 1.313 . S
C901 C902 1.338 . S
C901 N904 1.377 . S
C901 H921 0.930 . S
C902 N900 1.375 . S
C902 C901 1.338 . S
C902 H906 0.931 . S
C903 N900 1.313 . S
C903 N904 1.344 . S
C903 H907 0.930 . S
N904 C901 1.377 . S
N904 C903 1.344 . S
O905 Co897 2.055 . S
O905 C909 1.253 1_556 S
H906 C902 0.931 . S
H907 C903 0.930 . S
O908 Co897 2.039 . S
O908 C898 1.265 . S
C909 O905 1.253 1_554 S
C909 O910 1.227 1_554 S
O910 C909 1.227 1_556 S
N911 Co897 2.140 . S
N911 C914 1.346 . S
N911 C915 1.345 . S
C912 C913 1.387 . S
C912 C916 1.391 . S
C913 C912 1.387 . S
C913 C914 1.369 . S
C913 H922 0.929 . S
C914 N911 1.346 . S
C914 C913 1.369 . S
C914 H917 0.928 . S
C915 N911 1.345 . S
C915 C916 1.371 . S
C915 H918 0.931 . S
C916 C912 1.391 . S
C916 C915 1.371 . S
C916 H923 0.930 . S
H917 C914 0.928 . S
H918 C915 0.931 . S
H919 C895 0.930 . S
H920 C892 0.930 . S
H921 C901 0.930 . S
H922 C913 0.929 . S
H923 C916 0.930 . S
C924 C925 1.351 . S
C924 N927 1.368 . S
C924 H929 0.931 . S
C925 C924 1.351 . S
C925 N926 1.373 . S
C925 H953 0.930 . S
N926 C925 1.373 . S
N926 C928 1.340 . S
N927 C924 1.368 . S
N927 C928 1.321 . S
N927 Co930 2.135 . S
C928 N926 1.340 . S
C928 N927 1.321 . S
C928 H952 0.930 . S
H929 C924 0.931 . S
Co930 N927 2.135 . S
Co930 N933 2.121 . S
Co930 O938 2.055 . S
Co930 O941 2.039 . S
Co930 N944 2.140 . S
C931 O932 1.227 . S
C931 O941 1.265 . S
O932 C931 1.227 . S
N933 Co930 2.121 . S
N933 C935 1.375 . S
N933 C936 1.313 . S
C934 C935 1.338 . S
C934 N937 1.377 . S
C934 H954 0.930 . S
C935 N933 1.375 . S
C935 C934 1.338 . S
C935 H939 0.931 . S
C936 N933 1.313 . S
C936 N937 1.344 . S
C936 H940 0.930 . S
N937 C934 1.377 . S
N937 C936 1.344 . S
O938 Co930 2.055 . S
O938 C942 1.253 . S
H939 C935 0.931 . S
H940 C936 0.930 . S
O941 Co930 2.039 . S
O941 C931 1.265 . S
C942 O938 1.253 . S
C942 O943 1.227 . S
O943 C942 1.227 . S
N944 Co930 2.140 . S
N944 C947 1.346 . S
N944 C948 1.345 . S
C945 C946 1.387 . S
C945 C949 1.391 . S
C946 C945 1.387 . S
C946 C947 1.369 . S
C946 H955 0.929 . S
C947 N944 1.346 . S
C947 C946 1.369 . S
C947 H950 0.928 . S
C948 N944 1.345 . S
C948 C949 1.371 . S
C948 H951 0.931 . S
C949 C945 1.391 . S
C949 C948 1.371 . S
C949 H956 0.930 . S
H950 C947 0.928 . S
H951 C948 0.931 . S
H952 C928 0.930 . S
H953 C925 0.930 . S
H954 C934 0.930 . S
H955 C946 0.929 . S
H956 C949 0.930 . S
C957 C958 1.351 . S
C957 N960 1.368 . S
C957 H962 0.931 . S
C958 C957 1.351 . S
C958 N959 1.373 . S
C958 H986 0.930 . S
N959 C958 1.373 . S
N959 C961 1.340 . S
N960 C957 1.368 . S
N960 C961 1.321 . S
N960 Co963 2.135 . S
C961 N959 1.340 . S
C961 N960 1.321 . S
C961 H985 0.930 . S
H962 C957 0.931 . S
Co963 N960 2.135 . S
Co963 N966 2.121 . S
Co963 O971 2.055 . S
Co963 O974 2.039 . S
Co963 N977 2.140 . S
C964 O965 1.227 . S
C964 O974 1.265 . S
O965 C964 1.227 . S
N966 Co963 2.121 . S
N966 C968 1.375 . S
N966 C969 1.313 . S
C967 C968 1.338 . S
C967 N970 1.377 . S
C967 H987 0.930 . S
C968 N966 1.375 . S
C968 C967 1.338 . S
C968 H972 0.931 . S
C969 N966 1.313 . S
C969 N970 1.344 . S
C969 H973 0.930 . S
N970 C967 1.377 . S
N970 C969 1.344 . S
O971 Co963 2.055 . S
O971 C975 1.253 . S
H972 C968 0.931 . S
H973 C969 0.930 . S
O974 Co963 2.039 . S
O974 C964 1.265 . S
C975 O971 1.253 . S
C975 O976 1.227 . S
O976 C975 1.227 . S
N977 Co963 2.140 . S
N977 C980 1.346 . S
N977 C981 1.345 . S
C978 C979 1.387 . S
C978 C982 1.391 . S
C979 C978 1.387 . S
C979 C980 1.369 . S
C979 H988 0.929 . S
C980 N977 1.346 . S
C980 C979 1.369 . S
C980 H983 0.928 . S
C981 N977 1.345 . S
C981 C982 1.371 . S
C981 H984 0.931 . S
C982 C978 1.391 . S
C982 C981 1.371 . S
C982 H989 0.930 . S
H983 C980 0.928 . S
H984 C981 0.931 . S
H985 C961 0.930 . S
H986 C958 0.930 . S
H987 C967 0.930 . S
H988 C979 0.929 . S
H989 C982 0.930 . S
C990 C991 1.351 . S
C990 N993 1.368 . S
C990 H995 0.931 . S
C991 C990 1.351 . S
C991 N992 1.373 . S
C991 H1019 0.930 . S
N992 C991 1.373 . S
N992 C994 1.340 . S
N993 C990 1.368 . S
N993 C994 1.321 . S
N993 Co996 2.135 . S
C994 N992 1.340 . S
C994 N993 1.321 . S
C994 H1018 0.930 . S
H995 C990 0.931 . S
Co996 N993 2.135 . S
Co996 N999 2.121 . S
Co996 O1004 2.055 . S
Co996 O1007 2.039 . S
Co996 N1010 2.140 . S
C997 O998 1.227 . S
C997 O1007 1.265 . S
O998 C997 1.227 . S
N999 Co996 2.121 . S
N999 C1001 1.375 . S
N999 C1002 1.313 . S
C1000 C1001 1.338 . S
C1000 N1003 1.377 . S
C1000 H1020 0.930 . S
C1001 N999 1.375 . S
C1001 C1000 1.338 . S
C1001 H1005 0.931 . S
C1002 N999 1.313 . S
C1002 N1003 1.344 . S
C1002 H1006 0.930 . S
N1003 C1000 1.377 . S
N1003 C1002 1.344 . S
O1004 Co996 2.055 . S
O1004 C1008 1.253 1_554 S
H1005 C1001 0.931 . S
H1006 C1002 0.930 . S
O1007 Co996 2.039 . S
O1007 C997 1.265 . S
C1008 O1004 1.253 1_556 S
C1008 O1009 1.227 1_556 S
O1009 C1008 1.227 1_554 S
N1010 Co996 2.140 . S
N1010 C1013 1.346 . S
N1010 C1014 1.345 . S
C1011 C1012 1.387 . S
C1011 C1015 1.391 . S
C1012 C1011 1.387 . S
C1012 C1013 1.369 . S
C1012 H1021 0.929 . S
C1013 N1010 1.346 . S
C1013 C1012 1.369 . S
C1013 H1016 0.928 . S
C1014 N1010 1.345 . S
C1014 C1015 1.371 . S
C1014 H1017 0.931 . S
C1015 C1011 1.391 . S
C1015 C1014 1.371 . S
C1015 H1022 0.930 . S
H1016 C1013 0.928 . S
H1017 C1014 0.931 . S
H1018 C994 0.930 . S
H1019 C991 0.930 . S
H1020 C1000 0.930 . S
H1021 C1012 0.929 . S
H1022 C1015 0.930 . S
C1023 C1024 1.351 . S
C1023 N1026 1.368 . S
C1023 H1028 0.931 . S
C1024 C1023 1.351 . S
C1024 N1025 1.373 . S
C1024 H1052 0.930 . S
N1025 C1024 1.373 . S
N1025 C1027 1.340 . S
N1026 C1023 1.368 . S
N1026 C1027 1.321 . S
N1026 Co1029 2.135 . S
C1027 N1025 1.340 . S
C1027 N1026 1.321 . S
C1027 H1051 0.930 . S
H1028 C1023 0.931 . S
Co1029 N1026 2.135 . S
Co1029 N1032 2.121 . S
Co1029 O1037 2.055 . S
Co1029 O1040 2.039 . S
Co1029 N1043 2.140 . S
C1030 O1031 1.227 . S
C1030 O1040 1.265 . S
O1031 C1030 1.227 . S
N1032 Co1029 2.121 . S
N1032 C1034 1.375 . S
N1032 C1035 1.313 . S
C1033 C1034 1.338 . S
C1033 N1036 1.377 . S
C1033 H1053 0.930 . S
C1034 N1032 1.375 . S
C1034 C1033 1.338 . S
C1034 H1038 0.931 . S
C1035 N1032 1.313 . S
C1035 N1036 1.344 . S
C1035 H1039 0.930 . S
N1036 C1033 1.377 . S
N1036 C1035 1.344 . S
O1037 Co1029 2.055 . S
O1037 C1041 1.253 1_554 S
H1038 C1034 0.931 . S
H1039 C1035 0.930 . S
O1040 Co1029 2.039 . S
O1040 C1030 1.265 . S
C1041 O1037 1.253 1_556 S
C1041 O1042 1.227 1_556 S
O1042 C1041 1.227 1_554 S
N1043 Co1029 2.140 . S
N1043 C1046 1.346 . S
N1043 C1047 1.345 . S
C1044 C1045 1.387 . S
C1044 C1048 1.391 . S
C1045 C1044 1.387 . S
C1045 C1046 1.369 . S
C1045 H1054 0.929 . S
C1046 N1043 1.346 . S
C1046 C1045 1.369 . S
C1046 H1049 0.928 . S
C1047 N1043 1.345 . S
C1047 C1048 1.371 . S
C1047 H1050 0.931 . S
C1048 C1044 1.391 . S
C1048 C1047 1.371 . S
C1048 H1055 0.930 . S
H1049 C1046 0.928 . S
H1050 C1047 0.931 . S
H1051 C1027 0.930 . S
H1052 C1024 0.930 . S
H1053 C1033 0.930 . S
H1054 C1045 0.929 . S
H1055 C1048 0.930 . S
C1056 C1057 1.387 1_455 S
C1056 H1060 0.950 . S
C1056 C1065 1.390 . S
C1057 C1056 1.387 1_655 S
C1057 C1059 1.387 . S
H1058 C1065 0.950 . S
C1059 C1057 1.387 . S
C1059 C1061 1.390 . S
C1059 H1063 0.950 . S
H1060 C1056 0.950 . S
C1061 C1059 1.390 . S
C1061 C1062 1.387 . S
C1061 H1064 0.950 . S
C1062 C1061 1.387 . S
C1062 C1065 1.387 1_655 S
H1063 C1059 0.950 . S
H1064 C1061 0.950 . S
C1065 C1056 1.390 . S
C1065 H1058 0.950 . S
C1065 C1062 1.387 1_455 S
C1066 C1067 1.387 . S
C1066 H1070 0.950 . S
C1066 C1075 1.390 . S
C1067 C1066 1.387 . S
C1067 C1069 1.387 . S
H1068 C1075 0.950 . S
C1069 C1067 1.387 . S
C1069 C1071 1.390 . S
C1069 H1073 0.950 . S
H1070 C1066 0.950 . S
C1071 C1069 1.390 . S
C1071 C1072 1.387 . S
C1071 H1074 0.950 . S
C1072 C1071 1.387 . S
C1072 C1075 1.387 . S
H1073 C1069 0.950 . S
H1074 C1071 0.950 . S
C1075 C1066 1.390 . S
C1075 H1068 0.950 . S
C1075 C1072 1.387 . S
C1076 C1077 1.387 . S
C1076 H1080 0.950 . S
C1076 C1085 1.390 . S
C1077 C1076 1.387 . S
C1077 C1079 1.387 1_455 S
H1078 C1085 0.950 . S
C1079 C1077 1.387 1_655 S
C1079 C1081 1.390 . S
C1079 H1083 0.950 . S
H1080 C1076 0.950 . S
C1081 C1079 1.390 . S
C1081 C1082 1.387 1_655 S
C1081 H1084 0.950 . S
C1082 C1081 1.387 1_455 S
C1082 C1085 1.387 . S
H1083 C1079 0.950 . S
H1084 C1081 0.950 . S
C1085 C1076 1.390 . S
C1085 H1078 0.950 . S
C1085 C1082 1.387 . S
C1086 C1087 1.387 . S
C1086 H1090 0.950 . S
C1086 C1095 1.390 . S
C1087 C1086 1.387 . S
C1087 C1089 1.387 . S
H1088 C1095 0.950 . S
C1089 C1087 1.387 . S
C1089 C1091 1.390 . S
C1089 H1093 0.950 . S
H1090 C1086 0.950 . S
C1091 C1089 1.390 . S
C1091 C1092 1.387 . S
C1091 H1094 0.950 . S
C1092 C1091 1.387 . S
C1092 C1095 1.387 . S
H1093 C1089 0.950 . S
H1094 C1091 0.950 . S
C1095 C1086 1.390 . S
C1095 H1088 0.950 . S
C1095 C1092 1.387 . S
C1096 C1097 1.387 . S
C1096 H1100 0.950 . S
C1096 C1105 1.390 . S
C1097 C1096 1.387 . S
C1097 C1099 1.387 1_655 S
H1098 C1105 0.950 . S
C1099 C1097 1.387 1_455 S
C1099 C1101 1.390 . S
C1099 H1103 0.950 . S
H1100 C1096 0.950 . S
C1101 C1099 1.390 . S
C1101 C1102 1.387 1_455 S
C1101 H1104 0.950 . S
C1102 C1101 1.387 1_655 S
C1102 C1105 1.387 . S
H1103 C1099 0.950 . S
H1104 C1101 0.950 . S
C1105 C1096 1.390 . S
C1105 H1098 0.950 . S
C1105 C1102 1.387 . S
C1106 C1107 1.387 . S
C1106 H1110 0.950 . S
C1106 C1115 1.390 . S
C1107 C1106 1.387 . S
C1107 C1109 1.387 . S
H1108 C1115 0.950 . S
C1109 C1107 1.387 . S
C1109 C1111 1.390 . S
C1109 H1113 0.950 . S
H1110 C1106 0.950 . S
C1111 C1109 1.390 . S
C1111 C1112 1.387 . S
C1111 H1114 0.950 . S
C1112 C1111 1.387 . S
C1112 C1115 1.387 . S
H1113 C1109 0.950 . S
H1114 C1111 0.950 . S
C1115 C1106 1.390 . S
C1115 H1108 0.950 . S
C1115 C1112 1.387 . S
C1116 C1117 1.387 . S
C1116 H1120 0.950 . S
C1116 C1125 1.390 . S
C1117 C1116 1.387 . S
C1117 C1119 1.387 1_455 S
H1118 C1125 0.950 . S
C1119 C1117 1.387 1_655 S
C1119 C1121 1.390 . S
C1119 H1123 0.950 . S
H1120 C1116 0.950 . S
C1121 C1119 1.390 . S
C1121 C1122 1.387 1_655 S
C1121 H1124 0.950 . S
C1122 C1121 1.387 1_455 S
C1122 C1125 1.387 . S
H1123 C1119 0.950 . S
H1124 C1121 0.950 . S
C1125 C1116 1.390 . S
C1125 H1118 0.950 . S
C1125 C1122 1.387 . S
C1126 C1127 1.387 . S
C1126 H1130 0.950 . S
C1126 C1135 1.390 . S
C1127 C1126 1.387 . S
C1127 C1129 1.387 . S
H1128 C1135 0.950 . S
C1129 C1127 1.387 . S
C1129 C1131 1.390 . S
C1129 H1133 0.950 . S
H1130 C1126 0.950 . S
C1131 C1129 1.390 . S
C1131 C1132 1.387 . S
C1131 H1134 0.950 . S
C1132 C1131 1.387 . S
C1132 C1135 1.387 . S
H1133 C1129 0.950 . S
H1134 C1131 0.950 . S
C1135 C1126 1.390 . S
C1135 H1128 0.950 . S
C1135 C1132 1.387 . S
C1136 C1137 1.387 . S
C1136 H1140 0.950 . S
C1136 C1145 1.390 . S
C1137 C1136 1.387 . S
C1137 C1139 1.387 . S
H1138 C1145 0.950 . S
C1139 C1137 1.387 . S
C1139 C1141 1.390 . S
C1139 H1143 0.950 . S
H1140 C1136 0.950 . S
C1141 C1139 1.390 . S
C1141 C1142 1.387 . S
C1141 H1144 0.950 . S
C1142 C1141 1.387 . S
C1142 C1145 1.387 . S
H1143 C1139 0.950 . S
H1144 C1141 0.950 . S
C1145 C1136 1.390 . S
C1145 H1138 0.950 . S
C1145 C1142 1.387 . S
C1146 C1147 1.387 . S
C1146 H1150 0.950 . S
C1146 C1155 1.390 . S
C1147 C1146 1.387 . S
C1147 C1149 1.387 . S
H1148 C1155 0.950 . S
C1149 C1147 1.387 . S
C1149 C1151 1.390 . S
C1149 H1153 0.950 . S
H1150 C1146 0.950 . S
C1151 C1149 1.390 . S
C1151 C1152 1.387 . S
C1151 H1154 0.950 . S
C1152 C1151 1.387 . S
C1152 C1155 1.387 . S
H1153 C1149 0.950 . S
H1154 C1151 0.950 . S
C1155 C1146 1.390 . S
C1155 H1148 0.950 . S
C1155 C1152 1.387 . S
C1156 C1157 1.387 . S
C1156 H1160 0.950 . S
C1156 C1165 1.390 . S
C1157 C1156 1.387 . S
C1157 C1159 1.387 . S
H1158 C1165 0.950 . S
C1159 C1157 1.387 . S
C1159 C1161 1.390 . S
C1159 H1163 0.950 . S
H1160 C1156 0.950 . S
C1161 C1159 1.390 . S
C1161 C1162 1.387 . S
C1161 H1164 0.950 . S
C1162 C1161 1.387 . S
C1162 C1165 1.387 . S
H1163 C1159 0.950 . S
H1164 C1161 0.950 . S
C1165 C1156 1.390 . S
C1165 H1158 0.950 . S
C1165 C1162 1.387 . S
C1166 C1167 1.387 . S
C1166 H1170 0.950 . S
C1166 C1175 1.390 . S
C1167 C1166 1.387 . S
C1167 C1169 1.387 . S
H1168 C1175 0.950 . S
C1169 C1167 1.387 . S
C1169 C1171 1.390 . S
C1169 H1173 0.950 . S
H1170 C1166 0.950 . S
C1171 C1169 1.390 . S
C1171 C1172 1.387 . S
C1171 H1174 0.950 . S
C1172 C1171 1.387 . S
C1172 C1175 1.387 . S
H1173 C1169 0.950 . S
H1174 C1171 0.950 . S
C1175 C1166 1.390 . S
C1175 H1168 0.950 . S
C1175 C1172 1.387 . S
C1176 C1177 1.387 . S
C1176 H1180 0.950 . S
C1176 C1185 1.390 . S
C1177 C1176 1.387 . S
C1177 C1179 1.387 . S
H1178 C1185 0.950 . S
C1179 C1177 1.387 . S
C1179 C1181 1.390 . S
C1179 H1183 0.950 . S
H1180 C1176 0.950 . S
C1181 C1179 1.390 . S
C1181 C1182 1.387 . S
C1181 H1184 0.950 . S
C1182 C1181 1.387 . S
C1182 C1185 1.387 . S
H1183 C1179 0.950 . S
H1184 C1181 0.950 . S
C1185 C1176 1.390 . S
C1185 H1178 0.950 . S
C1185 C1182 1.387 . S
C1186 C1187 1.387 . S
C1186 H1190 0.950 . S
C1186 C1195 1.390 . S
C1187 C1186 1.387 . S
C1187 C1189 1.387 . S
H1188 C1195 0.950 . S
C1189 C1187 1.387 . S
C1189 C1191 1.390 . S
C1189 H1193 0.950 . S
H1190 C1186 0.950 . S
C1191 C1189 1.390 . S
C1191 C1192 1.387 . S
C1191 H1194 0.950 . S
C1192 C1191 1.387 . S
C1192 C1195 1.387 . S
H1193 C1189 0.950 . S
H1194 C1191 0.950 . S
C1195 C1186 1.390 . S
C1195 H1188 0.950 . S
C1195 C1192 1.387 . S
C1196 C1197 1.387 . S
C1196 H1200 0.950 . S
C1196 C1205 1.390 . S
C1197 C1196 1.387 . S
C1197 C1199 1.387 . S
H1198 C1205 0.950 . S
C1199 C1197 1.387 . S
C1199 C1201 1.390 . S
C1199 H1203 0.950 . S
H1200 C1196 0.950 . S
C1201 C1199 1.390 . S
C1201 C1202 1.387 . S
C1201 H1204 0.950 . S
C1202 C1201 1.387 . S
C1202 C1205 1.387 . S
H1203 C1199 0.950 . S
H1204 C1201 0.950 . S
C1205 C1196 1.390 . S
C1205 H1198 0.950 . S
C1205 C1202 1.387 . S
C1206 C1207 1.387 . S
C1206 H1210 0.950 . S
C1206 C1215 1.390 . S
C1207 C1206 1.387 . S
C1207 C1209 1.387 . S
H1208 C1215 0.950 . S
C1209 C1207 1.387 . S
C1209 C1211 1.390 . S
C1209 H1213 0.950 . S
H1210 C1206 0.950 . S
C1211 C1209 1.390 . S
C1211 C1212 1.387 . S
C1211 H1214 0.950 . S
C1212 C1211 1.387 . S
C1212 C1215 1.387 . S
H1213 C1209 0.950 . S
H1214 C1211 0.950 . S
C1215 C1206 1.390 . S
C1215 H1208 0.950 . S
C1215 C1212 1.387 . S
C1216 C1217 1.387 . S
C1216 H1220 0.950 . S
C1216 C1225 1.390 . S
C1217 C1216 1.387 . S
C1217 C1219 1.387 . S
H1218 C1225 0.950 . S
C1219 C1217 1.387 . S
C1219 C1221 1.390 . S
C1219 H1223 0.950 . S
H1220 C1216 0.950 . S
C1221 C1219 1.390 . S
C1221 C1222 1.387 . S
C1221 H1224 0.950 . S
C1222 C1221 1.387 . S
C1222 C1225 1.387 . S
H1223 C1219 0.950 . S
H1224 C1221 0.950 . S
C1225 C1216 1.390 . S
C1225 H1218 0.950 . S
C1225 C1222 1.387 . S
C1226 C1227 1.387 . S
C1226 H1230 0.950 . S
C1226 C1235 1.390 . S
C1227 C1226 1.387 . S
C1227 C1229 1.387 . S
H1228 C1235 0.950 . S
C1229 C1227 1.387 . S
C1229 C1231 1.390 . S
C1229 H1233 0.950 . S
H1230 C1226 0.950 . S
C1231 C1229 1.390 . S
C1231 C1232 1.387 . S
C1231 H1234 0.950 . S
C1232 C1231 1.387 . S
C1232 C1235 1.387 . S
H1233 C1229 0.950 . S
H1234 C1231 0.950 . S
C1235 C1226 1.390 . S
C1235 H1228 0.950 . S
C1235 C1232 1.387 . S
C1236 C1237 1.387 . S
C1236 H1240 0.950 . S
C1236 C1245 1.390 . S
C1237 C1236 1.387 . S
C1237 C1239 1.387 . S
H1238 C1245 0.950 . S
C1239 C1237 1.387 . S
C1239 C1241 1.390 . S
C1239 H1243 0.950 . S
H1240 C1236 0.950 . S
C1241 C1239 1.390 . S
C1241 C1242 1.387 . S
C1241 H1244 0.950 . S
C1242 C1241 1.387 . S
C1242 C1245 1.387 . S
H1243 C1239 0.950 . S
H1244 C1241 0.950 . S
C1245 C1236 1.390 . S
C1245 H1238 0.950 . S
C1245 C1242 1.387 . S
C1246 C1247 1.387 . S
C1246 H1250 0.950 . S
C1246 C1255 1.390 . S
C1247 C1246 1.387 . S
C1247 C1249 1.387 . S
H1248 C1255 0.950 . S
C1249 C1247 1.387 . S
C1249 C1251 1.390 . S
C1249 H1253 0.950 . S
H1250 C1246 0.950 . S
C1251 C1249 1.390 . S
C1251 C1252 1.387 . S
C1251 H1254 0.950 . S
C1252 C1251 1.387 . S
C1252 C1255 1.387 . S
H1253 C1249 0.950 . S
H1254 C1251 0.950 . S
C1255 C1246 1.390 . S
C1255 H1248 0.950 . S
C1255 C1252 1.387 . S
C1256 C1257 1.387 . S
C1256 H1260 0.950 . S
C1256 C1265 1.390 . S
C1257 C1256 1.387 . S
C1257 C1259 1.387 . S
H1258 C1265 0.950 . S
C1259 C1257 1.387 . S
C1259 C1261 1.390 . S
C1259 H1263 0.950 . S
H1260 C1256 0.950 . S
C1261 C1259 1.390 . S
C1261 C1262 1.387 . S
C1261 H1264 0.950 . S
C1262 C1261 1.387 . S
C1262 C1265 1.387 . S
H1263 C1259 0.950 . S
H1264 C1261 0.950 . S
C1265 C1256 1.390 . S
C1265 H1258 0.950 . S
C1265 C1262 1.387 . S
C1266 C1267 1.387 . S
C1266 H1270 0.950 . S
C1266 C1275 1.390 . S
C1267 C1266 1.387 . S
C1267 C1269 1.387 . S
H1268 C1275 0.950 . S
C1269 C1267 1.387 . S
C1269 C1271 1.390 . S
C1269 H1273 0.950 . S
H1270 C1266 0.950 . S
C1271 C1269 1.390 . S
C1271 C1272 1.387 . S
C1271 H1274 0.950 . S
C1272 C1271 1.387 . S
C1272 C1275 1.387 . S
H1273 C1269 0.950 . S
H1274 C1271 0.950 . S
C1275 C1266 1.390 . S
C1275 H1268 0.950 . S
C1275 C1272 1.387 . S
C1276 C1277 1.387 . S
C1276 H1280 0.950 . S
C1276 C1285 1.390 . S
C1277 C1276 1.387 . S
C1277 C1279 1.387 . S
H1278 C1285 0.950 . S
C1279 C1277 1.387 . S
C1279 C1281 1.390 . S
C1279 H1283 0.950 . S
H1280 C1276 0.950 . S
C1281 C1279 1.390 . S
C1281 C1282 1.387 . S
C1281 H1284 0.950 . S
C1282 C1281 1.387 . S
C1282 C1285 1.387 . S
H1283 C1279 0.950 . S
H1284 C1281 0.950 . S
C1285 C1276 1.390 . S
C1285 H1278 0.950 . S
C1285 C1282 1.387 . S
C1286 C1287 1.387 . S
C1286 H1290 0.950 . S
C1286 C1295 1.390 . S
C1287 C1286 1.387 . S
C1287 C1289 1.387 . S
H1288 C1295 0.950 . S
C1289 C1287 1.387 . S
C1289 C1291 1.390 . S
C1289 H1293 0.950 . S
H1290 C1286 0.950 . S
C1291 C1289 1.390 . S
C1291 C1292 1.387 . S
C1291 H1294 0.950 . S
C1292 C1291 1.387 . S
C1292 C1295 1.387 . S
H1293 C1289 0.950 . S
H1294 C1291 0.950 . S
C1295 C1286 1.390 . S
C1295 H1288 0.950 . S
C1295 C1292 1.387 . S
C1296 C1297 1.387 . S
C1296 H1300 0.950 . S
C1296 C1305 1.390 . S
C1297 C1296 1.387 . S
C1297 C1299 1.387 . S
H1298 C1305 0.950 . S
C1299 C1297 1.387 . S
C1299 C1301 1.390 . S
C1299 H1303 0.950 . S
H1300 C1296 0.950 . S
C1301 C1299 1.390 . S
C1301 C1302 1.387 . S
C1301 H1304 0.950 . S
C1302 C1301 1.387 . S
C1302 C1305 1.387 . S
H1303 C1299 0.950 . S
H1304 C1301 0.950 . S
C1305 C1296 1.390 . S
C1305 H1298 0.950 . S
C1305 C1302 1.387 . S
C1306 C1307 1.387 . S
C1306 H1310 0.950 . S
C1306 C1315 1.390 . S
C1307 C1306 1.387 . S
C1307 C1309 1.387 . S
H1308 C1315 0.950 . S
C1309 C1307 1.387 . S
C1309 C1311 1.390 . S
C1309 H1313 0.950 . S
H1310 C1306 0.950 . S
C1311 C1309 1.390 . S
C1311 C1312 1.387 . S
C1311 H1314 0.950 . S
C1312 C1311 1.387 . S
C1312 C1315 1.387 . S
H1313 C1309 0.950 . S
H1314 C1311 0.950 . S
C1315 C1306 1.390 . S
C1315 H1308 0.950 . S
C1315 C1312 1.387 . S
C1316 C1317 1.387 . S
C1316 H1320 0.950 . S
C1316 C1325 1.390 . S
C1317 C1316 1.387 . S
C1317 C1319 1.387 . S
H1318 C1325 0.950 . S
C1319 C1317 1.387 . S
C1319 C1321 1.390 . S
C1319 H1323 0.950 . S
H1320 C1316 0.950 . S
C1321 C1319 1.390 . S
C1321 C1322 1.387 . S
C1321 H1324 0.950 . S
C1322 C1321 1.387 . S
C1322 C1325 1.387 . S
H1323 C1319 0.950 . S
H1324 C1321 0.950 . S
C1325 C1316 1.390 . S
C1325 H1318 0.950 . S
C1325 C1322 1.387 . S
C1326 C1327 1.387 . S
C1326 H1330 0.950 . S
C1326 C1335 1.390 . S
C1327 C1326 1.387 . S
C1327 C1329 1.387 . S
H1328 C1335 0.950 . S
C1329 C1327 1.387 . S
C1329 C1331 1.390 . S
C1329 H1333 0.950 . S
H1330 C1326 0.950 . S
C1331 C1329 1.390 . S
C1331 C1332 1.387 . S
C1331 H1334 0.950 . S
C1332 C1331 1.387 . S
C1332 C1335 1.387 . S
H1333 C1329 0.950 . S
H1334 C1331 0.950 . S
C1335 C1326 1.390 . S
C1335 H1328 0.950 . S
C1335 C1332 1.387 . S
C1336 C1337 1.387 . S
C1336 H1340 0.950 . S
C1336 C1345 1.390 . S
C1337 C1336 1.387 . S
C1337 C1339 1.387 . S
H1338 C1345 0.950 . S
C1339 C1337 1.387 . S
C1339 C1341 1.390 . S
C1339 H1343 0.950 . S
H1340 C1336 0.950 . S
C1341 C1339 1.390 . S
C1341 C1342 1.387 . S
C1341 H1344 0.950 . S
C1342 C1341 1.387 . S
C1342 C1345 1.387 . S
H1343 C1339 0.950 . S
H1344 C1341 0.950 . S
C1345 C1336 1.390 . S
C1345 H1338 0.950 . S
C1345 C1342 1.387 . S
C1346 C1347 1.387 . S
C1346 H1350 0.950 . S
C1346 C1355 1.390 . S
C1347 C1346 1.387 . S
C1347 C1349 1.387 . S
H1348 C1355 0.950 . S
C1349 C1347 1.387 . S
C1349 C1351 1.390 . S
C1349 H1353 0.950 . S
H1350 C1346 0.950 . S
C1351 C1349 1.390 . S
C1351 C1352 1.387 . S
C1351 H1354 0.950 . S
C1352 C1351 1.387 . S
C1352 C1355 1.387 . S
H1353 C1349 0.950 . S
H1354 C1351 0.950 . S
C1355 C1346 1.390 . S
C1355 H1348 0.950 . S
C1355 C1352 1.387 . S
C1356 C1357 1.387 . S
C1356 H1360 0.950 . S
C1356 C1365 1.390 . S
C1357 C1356 1.387 . S
C1357 C1359 1.387 . S
H1358 C1365 0.950 . S
C1359 C1357 1.387 . S
C1359 C1361 1.390 . S
C1359 H1363 0.950 . S
H1360 C1356 0.950 . S
C1361 C1359 1.390 . S
C1361 C1362 1.387 . S
C1361 H1364 0.950 . S
C1362 C1361 1.387 . S
C1362 C1365 1.387 . S
H1363 C1359 0.950 . S
H1364 C1361 0.950 . S
C1365 C1356 1.390 . S
C1365 H1358 0.950 . S
C1365 C1362 1.387 . S
C1366 C1367 1.387 . S
C1366 H1370 0.950 . S
C1366 C1375 1.390 . S
C1367 C1366 1.387 . S
C1367 C1369 1.387 . S
H1368 C1375 0.950 . S
C1369 C1367 1.387 . S
C1369 C1371 1.390 . S
C1369 H1373 0.950 . S
H1370 C1366 0.950 . S
C1371 C1369 1.390 . S
C1371 C1372 1.387 . S
C1371 H1374 0.950 . S
C1372 C1371 1.387 . S
C1372 C1375 1.387 . S
H1373 C1369 0.950 . S
H1374 C1371 0.950 . S
C1375 C1366 1.390 . S
C1375 H1368 0.950 . S
C1375 C1372 1.387 . S
C1376 C1377 1.387 . S
C1376 H1380 0.950 . S
C1376 C1385 1.390 1_565 S
C1377 C1376 1.387 . S
C1377 C1379 1.387 1_655 S
H1378 C1385 0.950 . S
C1379 C1377 1.387 1_455 S
C1379 C1381 1.390 1_565 S
C1379 H1383 0.950 . S
H1380 C1376 0.950 . S
C1381 C1379 1.390 1_545 S
C1381 C1382 1.387 . S
C1381 H1384 0.950 . S
C1382 C1381 1.387 . S
C1382 C1385 1.387 1_455 S
H1383 C1379 0.950 . S
H1384 C1381 0.950 . S
C1385 C1376 1.390 1_545 S
C1385 H1378 0.950 . S
C1385 C1382 1.387 1_655 S
C1386 C1387 1.387 . S
C1386 H1390 0.950 . S
C1386 C1395 1.390 . S
C1387 C1386 1.387 . S
C1387 C1389 1.387 . S
H1388 C1395 0.950 . S
C1389 C1387 1.387 . S
C1389 C1391 1.390 . S
C1389 H1393 0.950 . S
H1390 C1386 0.950 . S
C1391 C1389 1.390 . S
C1391 C1392 1.387 . S
C1391 H1394 0.950 . S
C1392 C1391 1.387 . S
C1392 C1395 1.387 . S
H1393 C1389 0.950 . S
H1394 C1391 0.950 . S
C1395 C1386 1.390 . S
C1395 H1388 0.950 . S
C1395 C1392 1.387 . S
C1396 C1397 1.387 . S
C1396 H1400 0.950 . S
C1396 C1405 1.390 . S
C1397 C1396 1.387 . S
C1397 C1399 1.387 1_655 S
H1398 C1405 0.950 . S
C1399 C1397 1.387 1_455 S
C1399 C1401 1.390 . S
C1399 H1403 0.950 . S
H1400 C1396 0.950 . S
C1401 C1399 1.390 . S
C1401 C1402 1.387 . S
C1401 H1404 0.950 . S
C1402 C1401 1.387 . S
C1402 C1405 1.387 1_455 S
H1403 C1399 0.950 . S
H1404 C1401 0.950 . S
C1405 C1396 1.390 . S
C1405 H1398 0.950 . S
C1405 C1402 1.387 1_655 S
C1406 C1407 1.387 . S
C1406 H1410 0.950 . S
C1406 C1415 1.390 . S
C1407 C1406 1.387 . S
C1407 C1409 1.387 1_565 S
H1408 C1415 0.950 . S
C1409 C1407 1.387 1_545 S
C1409 C1411 1.390 . S
C1409 H1413 0.950 . S
H1410 C1406 0.950 . S
C1411 C1409 1.390 . S
C1411 C1412 1.387 . S
C1411 H1414 0.950 . S
C1412 C1411 1.387 . S
C1412 C1415 1.387 1_545 S
H1413 C1409 0.950 . S
H1414 C1411 0.950 . S
C1415 C1406 1.390 . S
C1415 H1408 0.950 . S
C1415 C1412 1.387 1_565 S
C1416 C1417 1.387 . S
C1416 H1420 0.950 . S
C1416 C1425 1.390 . S
C1417 C1416 1.387 . S
C1417 C1419 1.387 . S
H1418 C1425 0.950 . S
C1419 C1417 1.387 . S
C1419 C1421 1.390 . S
C1419 H1423 0.950 . S
H1420 C1416 0.950 . S
C1421 C1419 1.390 . S
C1421 C1422 1.387 . S
C1421 H1424 0.950 . S
C1422 C1421 1.387 . S
C1422 C1425 1.387 . S
H1423 C1419 0.950 . S
H1424 C1421 0.950 . S
C1425 C1416 1.390 . S
C1425 H1418 0.950 . S
C1425 C1422 1.387 . S
C1426 C1427 1.387 . S
C1426 H1430 0.950 . S
C1426 C1435 1.390 . S
C1427 C1426 1.387 . S
C1427 C1429 1.387 1_455 S
H1428 C1435 0.950 . S
C1429 C1427 1.387 1_655 S
C1429 C1431 1.390 . S
C1429 H1433 0.950 . S
H1430 C1426 0.950 . S
C1431 C1429 1.390 . S
C1431 C1432 1.387 . S
C1431 H1434 0.950 . S
C1432 C1431 1.387 . S
C1432 C1435 1.387 1_655 S
H1433 C1429 0.950 . S
H1434 C1431 0.950 . S
C1435 C1426 1.390 . S
C1435 H1428 0.950 . S
C1435 C1432 1.387 1_455 S
C1436 C1437 1.387 . S
C1436 H1440 0.950 . S
C1436 C1445 1.390 . S
C1437 C1436 1.387 . S
C1437 C1439 1.387 1_565 S
H1438 C1445 0.950 . S
C1439 C1437 1.387 1_545 S
C1439 C1441 1.390 . S
C1439 H1443 0.950 . S
H1440 C1436 0.950 . S
C1441 C1439 1.390 . S
C1441 C1442 1.387 . S
C1441 H1444 0.950 . S
C1442 C1441 1.387 . S
C1442 C1445 1.387 1_545 S
H1443 C1439 0.950 . S
H1444 C1441 0.950 . S
C1445 C1436 1.390 . S
C1445 H1438 0.950 . S
C1445 C1442 1.387 1_565 S
C1446 C1447 1.380 1_456 S
C1446 H1450 0.952 . S
C1446 C1455 1.397 . S
C1447 C1446 1.380 1_654 S
C1447 C1449 1.387 . S
H1448 C1455 0.950 . S
C1449 C1447 1.387 . S
C1449 C1451 1.390 . S
C1449 H1453 0.950 . S
H1450 C1446 0.952 . S
C1451 C1449 1.390 . S
C1451 C1452 1.387 1_654 S
C1451 H1454 0.950 . S
C1452 C1451 1.387 1_456 S
C1452 C1455 1.387 . S
H1453 C1449 0.950 . S
H1454 C1451 0.950 . S
C1455 C1446 1.397 . S
C1455 H1448 0.950 . S
C1455 C1452 1.387 . S
C1456 C1457 1.387 . S
C1456 H1460 0.950 . S
C1456 C1465 1.390 . S
C1457 C1456 1.387 . S
C1457 C1459 1.387 1_556 S
H1458 C1465 0.950 . S
C1459 C1457 1.387 1_554 S
C1459 C1461 1.390 . S
C1459 H1463 0.950 . S
H1460 C1456 0.950 . S
C1461 C1459 1.390 . S
C1461 C1462 1.387 . S
C1461 H1464 0.950 . S
C1462 C1461 1.387 . S
C1462 C1465 1.387 1_554 S
H1463 C1459 0.950 . S
H1464 C1461 0.950 . S
C1465 C1456 1.390 . S
C1465 H1458 0.950 . S
C1465 C1462 1.387 1_556 S
C1466 C1467 1.387 . S
C1466 H1470 0.950 . S
C1466 C1475 1.390 . S
C1467 C1466 1.387 . S
C1467 C1469 1.387 . S
H1468 C1475 0.950 . S
C1469 C1467 1.387 . S
C1469 C1471 1.390 . S
C1469 H1473 0.950 . S
H1470 C1466 0.950 . S
C1471 C1469 1.390 . S
C1471 C1472 1.387 . S
C1471 H1474 0.950 . S
C1472 C1471 1.387 . S
C1472 C1475 1.387 . S
H1473 C1469 0.950 . S
H1474 C1471 0.950 . S
C1475 C1466 1.390 . S
C1475 H1468 0.950 . S
C1475 C1472 1.387 . S
C1476 C1477 1.387 . S
C1476 H1480 0.950 . S
C1476 C1485 1.390 1_556 S
C1477 C1476 1.387 . S
C1477 C1479 1.387 . S
H1478 C1485 0.950 . S
C1479 C1477 1.387 . S
C1479 C1481 1.390 1_556 S
C1479 H1483 0.950 . S
H1480 C1476 0.950 . S
C1481 C1479 1.390 1_554 S
C1481 C1482 1.387 . S
C1481 H1484 0.950 . S
C1482 C1481 1.387 . S
C1482 C1485 1.387 . S
H1483 C1479 0.950 . S
H1484 C1481 0.950 . S
C1485 C1476 1.390 1_554 S
C1485 H1478 0.950 . S
C1485 C1482 1.387 . S
C1486 C1487 1.387 . S
C1486 H1490 0.950 . S
C1486 C1495 1.390 . S
C1487 C1486 1.387 . S
C1487 C1489 1.387 . S
H1488 C1495 0.950 . S
C1489 C1487 1.387 . S
C1489 C1491 1.390 . S
C1489 H1493 0.950 . S
H1490 C1486 0.950 . S
C1491 C1489 1.390 . S
C1491 C1492 1.387 . S
C1491 H1494 0.950 . S
C1492 C1491 1.387 . S
C1492 C1495 1.387 . S
H1493 C1489 0.950 . S
H1494 C1491 0.950 . S
C1495 C1486 1.390 . S
C1495 H1488 0.950 . S
C1495 C1492 1.387 . S
C1496 C1497 1.387 . S
C1496 H1500 0.950 . S
C1496 C1505 1.390 1_546 S
C1497 C1496 1.387 . S
C1497 C1499 1.387 . S
H1498 C1505 0.950 . S
C1499 C1497 1.387 . S
C1499 C1501 1.390 1_546 S
C1499 H1503 0.950 . S
H1500 C1496 0.950 . S
C1501 C1499 1.390 1_564 S
C1501 C1502 1.387 . S
C1501 H1504 0.950 . S
C1502 C1501 1.387 . S
C1502 C1505 1.387 . S
H1503 C1499 0.950 . S
H1504 C1501 0.950 . S
C1505 C1496 1.390 1_564 S
C1505 H1498 0.950 . S
C1505 C1502 1.387 . S
C1506 C1507 1.387 . S
C1506 H1510 0.950 . S
C1506 C1515 1.390 . S
C1507 C1506 1.387 . S
C1507 C1509 1.387 . S
H1508 C1515 0.950 . S
C1509 C1507 1.387 . S
C1509 C1511 1.390 . S
C1509 H1513 0.950 . S
H1510 C1506 0.950 . S
C1511 C1509 1.390 . S
C1511 C1512 1.387 . S
C1511 H1514 0.950 . S
C1512 C1511 1.387 . S
C1512 C1515 1.387 . S
H1513 C1509 0.950 . S
H1514 C1511 0.950 . S
C1515 C1506 1.390 . S
C1515 H1508 0.950 . S
C1515 C1512 1.387 . S
C1516 C1517 1.387 . S
C1516 H1520 0.950 . S
C1516 C1525 1.390 . S
C1517 C1516 1.387 . S
C1517 C1519 1.387 . S
H1518 C1525 0.950 . S
C1519 C1517 1.387 . S
C1519 C1521 1.390 . S
C1519 H1523 0.950 . S
H1520 C1516 0.950 . S
C1521 C1519 1.390 . S
C1521 C1522 1.387 . S
C1521 H1524 0.950 . S
C1522 C1521 1.387 . S
C1522 C1525 1.387 . S
H1523 C1519 0.950 . S
H1524 C1521 0.950 . S
C1525 C1516 1.390 . S
C1525 H1518 0.950 . S
C1525 C1522 1.387 . S
C1526 C1527 1.387 . S
C1526 H1530 0.950 . S
C1526 C1535 1.390 . S
C1527 C1526 1.387 . S
C1527 C1529 1.387 . S
H1528 C1535 0.950 . S
C1529 C1527 1.387 . S
C1529 C1531 1.390 . S
C1529 H1533 0.950 . S
H1530 C1526 0.950 . S
C1531 C1529 1.390 . S
C1531 C1532 1.387 . S
C1531 H1534 0.950 . S
C1532 C1531 1.387 . S
C1532 C1535 1.387 . S
H1533 C1529 0.950 . S
H1534 C1531 0.950 . S
C1535 C1526 1.390 . S
C1535 H1528 0.950 . S
C1535 C1532 1.387 . S
C1536 C1537 1.387 . S
C1536 H1540 0.950 . S
C1536 C1545 1.390 . S
C1537 C1536 1.387 . S
C1537 C1539 1.387 . S
H1538 C1545 0.950 . S
C1539 C1537 1.387 . S
C1539 C1541 1.390 . S
C1539 H1543 0.950 . S
H1540 C1536 0.950 . S
C1541 C1539 1.390 . S
C1541 C1542 1.387 . S
C1541 H1544 0.950 . S
C1542 C1541 1.387 . S
C1542 C1545 1.387 . S
H1543 C1539 0.950 . S
H1544 C1541 0.950 . S
C1545 C1536 1.390 . S
C1545 H1538 0.950 . S
C1545 C1542 1.387 . S
C1546 C1547 1.387 . S
C1546 H1550 0.950 . S
C1546 C1555 1.390 . S
C1547 C1546 1.387 . S
C1547 C1549 1.387 . S
H1548 C1555 0.950 . S
C1549 C1547 1.387 . S
C1549 C1551 1.390 . S
C1549 H1553 0.950 . S
H1550 C1546 0.950 . S
C1551 C1549 1.390 . S
C1551 C1552 1.387 . S
C1551 H1554 0.950 . S
C1552 C1551 1.387 . S
C1552 C1555 1.387 . S
H1553 C1549 0.950 . S
H1554 C1551 0.950 . S
C1555 C1546 1.390 . S
C1555 H1548 0.950 . S
C1555 C1552 1.387 . S
C1556 C1557 1.387 . S
C1556 H1560 0.950 . S
C1556 C1565 1.390 . S
C1557 C1556 1.387 . S
C1557 C1559 1.387 . S
H1558 C1565 0.950 . S
C1559 C1557 1.387 . S
C1559 C1561 1.390 . S
C1559 H1563 0.950 . S
H1560 C1556 0.950 . S
C1561 C1559 1.390 . S
C1561 C1562 1.387 . S
C1561 H1564 0.950 . S
C1562 C1561 1.387 . S
C1562 C1565 1.387 . S
H1563 C1559 0.950 . S
H1564 C1561 0.950 . S
C1565 C1556 1.390 . S
C1565 H1558 0.950 . S
C1565 C1562 1.387 . S
C1566 C1567 1.387 . S
C1566 H1570 0.950 . S
C1566 C1575 1.390 . S
C1567 C1566 1.387 . S
C1567 C1569 1.387 . S
H1568 C1575 0.950 . S
C1569 C1567 1.387 . S
C1569 C1571 1.390 . S
C1569 H1573 0.950 . S
H1570 C1566 0.950 . S
C1571 C1569 1.390 . S
C1571 C1572 1.387 . S
C1571 H1574 0.950 . S
C1572 C1571 1.387 . S
C1572 C1575 1.387 . S
H1573 C1569 0.950 . S
H1574 C1571 0.950 . S
C1575 C1566 1.390 . S
C1575 H1568 0.950 . S
C1575 C1572 1.387 . S
C1576 C1577 1.387 . S
C1576 H1580 0.950 . S
C1576 C1585 1.390 . S
C1577 C1576 1.387 . S
C1577 C1579 1.387 . S
H1578 C1585 0.950 . S
C1579 C1577 1.387 . S
C1579 C1581 1.390 . S
C1579 H1583 0.950 . S
H1580 C1576 0.950 . S
C1581 C1579 1.390 . S
C1581 C1582 1.387 . S
C1581 H1584 0.950 . S
C1582 C1581 1.387 . S
C1582 C1585 1.387 . S
H1583 C1579 0.950 . S
H1584 C1581 0.950 . S
C1585 C1576 1.390 . S
C1585 H1578 0.950 . S
C1585 C1582 1.387 . S
C1586 C1587 1.387 . S
C1586 H1590 0.950 . S
C1586 C1595 1.390 . S
C1587 C1586 1.387 . S
C1587 C1589 1.387 . S
H1588 C1595 0.950 . S
C1589 C1587 1.387 . S
C1589 C1591 1.390 . S
C1589 H1593 0.950 . S
H1590 C1586 0.950 . S
C1591 C1589 1.390 . S
C1591 C1592 1.387 . S
C1591 H1594 0.950 . S
C1592 C1591 1.387 . S
C1592 C1595 1.387 . S
H1593 C1589 0.950 . S
H1594 C1591 0.950 . S
C1595 C1586 1.390 . S
C1595 H1588 0.950 . S
C1595 C1592 1.387 . S
C1596 C1597 1.387 . S
C1596 H1600 0.950 . S
C1596 C1605 1.390 . S
C1597 C1596 1.387 . S
C1597 C1599 1.387 . S
H1598 C1605 0.950 . S
C1599 C1597 1.387 . S
C1599 C1601 1.390 . S
C1599 H1603 0.950 . S
H1600 C1596 0.950 . S
C1601 C1599 1.390 . S
C1601 C1602 1.387 . S
C1601 H1604 0.950 . S
C1602 C1601 1.387 . S
C1602 C1605 1.387 . S
H1603 C1599 0.950 . S
H1604 C1601 0.950 . S
C1605 C1596 1.390 . S
C1605 H1598 0.950 . S
C1605 C1602 1.387 . S
C1606 C1607 1.387 . S
C1606 H1610 0.950 . S
C1606 C1615 1.390 . S
C1607 C1606 1.387 . S
C1607 C1609 1.387 . S
H1608 C1615 0.950 . S
C1609 C1607 1.387 . S
C1609 C1611 1.390 . S
C1609 H1613 0.950 . S
H1610 C1606 0.950 . S
C1611 C1609 1.390 . S
C1611 C1612 1.387 . S
C1611 H1614 0.950 . S
C1612 C1611 1.387 . S
C1612 C1615 1.387 . S
H1613 C1609 0.950 . S
H1614 C1611 0.950 . S
C1615 C1606 1.390 . S
C1615 H1608 0.950 . S
C1615 C1612 1.387 . S
C1616 C1617 1.387 . S
C1616 H1620 0.950 . S
C1616 C1625 1.390 . S
C1617 C1616 1.387 . S
C1617 C1619 1.387 . S
H1618 C1625 0.950 . S
C1619 C1617 1.387 . S
C1619 C1621 1.390 . S
C1619 H1623 0.950 . S
H1620 C1616 0.950 . S
C1621 C1619 1.390 . S
C1621 C1622 1.387 . S
C1621 H1624 0.950 . S
C1622 C1621 1.387 . S
C1622 C1625 1.387 . S
H1623 C1619 0.950 . S
H1624 C1621 0.950 . S
C1625 C1616 1.390 . S
C1625 H1618 0.950 . S
C1625 C1622 1.387 . S
C1626 C1627 1.387 . S
C1626 H1630 0.950 . S
C1626 C1635 1.390 . S
C1627 C1626 1.387 . S
C1627 C1629 1.387 . S
H1628 C1635 0.950 . S
C1629 C1627 1.387 . S
C1629 C1631 1.390 . S
C1629 H1633 0.950 . S
H1630 C1626 0.950 . S
C1631 C1629 1.390 . S
C1631 C1632 1.387 . S
C1631 H1634 0.950 . S
C1632 C1631 1.387 . S
C1632 C1635 1.387 . S
H1633 C1629 0.950 . S
H1634 C1631 0.950 . S
C1635 C1626 1.390 . S
C1635 H1628 0.950 . S
C1635 C1632 1.387 . S
C1636 C1637 1.387 . S
C1636 H1640 0.950 . S
C1636 C1645 1.390 . S
C1637 C1636 1.387 . S
C1637 C1639 1.387 . S
H1638 C1645 0.950 . S
C1639 C1637 1.387 . S
C1639 C1641 1.390 . S
C1639 H1643 0.950 . S
H1640 C1636 0.950 . S
C1641 C1639 1.390 . S
C1641 C1642 1.387 . S
C1641 H1644 0.950 . S
C1642 C1641 1.387 . S
C1642 C1645 1.387 . S
H1643 C1639 0.950 . S
H1644 C1641 0.950 . S
C1645 C1636 1.390 . S
C1645 H1638 0.950 . S
C1645 C1642 1.387 . S
C1646 C1647 1.387 . S
C1646 H1650 0.950 . S
C1646 C1655 1.390 . S
C1647 C1646 1.387 . S
C1647 C1649 1.387 . S
H1648 C1655 0.950 . S
C1649 C1647 1.387 . S
C1649 C1651 1.390 . S
C1649 H1653 0.950 . S
H1650 C1646 0.950 . S
C1651 C1649 1.390 . S
C1651 C1652 1.387 . S
C1651 H1654 0.950 . S
C1652 C1651 1.387 . S
C1652 C1655 1.387 . S
H1653 C1649 0.950 . S
H1654 C1651 0.950 . S
C1655 C1646 1.390 . S
C1655 H1648 0.950 . S
C1655 C1652 1.387 . S
C1656 C1657 1.387 . S
C1656 H1660 0.950 . S
C1656 C1665 1.390 . S
C1657 C1656 1.387 . S
C1657 C1659 1.387 . S
H1658 C1665 0.950 . S
C1659 C1657 1.387 . S
C1659 C1661 1.390 . S
C1659 H1663 0.950 . S
H1660 C1656 0.950 . S
C1661 C1659 1.390 . S
C1661 C1662 1.387 . S
C1661 H1664 0.950 . S
C1662 C1661 1.387 . S
C1662 C1665 1.387 . S
H1663 C1659 0.950 . S
H1664 C1661 0.950 . S
C1665 C1656 1.390 . S
C1665 H1658 0.950 . S
C1665 C1662 1.387 . S
C1666 C1667 1.387 . S
C1666 H1670 0.950 . S
C1666 C1675 1.390 . S
C1667 C1666 1.387 . S
C1667 C1669 1.387 . S
H1668 C1675 0.950 . S
C1669 C1667 1.387 . S
C1669 C1671 1.390 . S
C1669 H1673 0.950 . S
H1670 C1666 0.950 . S
C1671 C1669 1.390 . S
C1671 C1672 1.387 . S
C1671 H1674 0.950 . S
C1672 C1671 1.387 . S
C1672 C1675 1.387 . S
H1673 C1669 0.950 . S
H1674 C1671 0.950 . S
C1675 C1666 1.390 . S
C1675 H1668 0.950 . S
C1675 C1672 1.387 . S
C1676 C1677 1.387 . S
C1676 H1680 0.950 . S
C1676 C1685 1.390 . S
C1677 C1676 1.387 . S
C1677 C1679 1.387 . S
H1678 C1685 0.950 . S
C1679 C1677 1.387 . S
C1679 C1681 1.390 . S
C1679 H1683 0.950 . S
H1680 C1676 0.950 . S
C1681 C1679 1.390 . S
C1681 C1682 1.387 . S
C1681 H1684 0.950 . S
C1682 C1681 1.387 . S
C1682 C1685 1.387 . S
H1683 C1679 0.950 . S
H1684 C1681 0.950 . S
C1685 C1676 1.390 . S
C1685 H1678 0.950 . S
C1685 C1682 1.387 . S
C1686 C1687 1.387 . S
C1686 H1690 0.950 . S
C1686 C1695 1.390 . S
C1687 C1686 1.387 . S
C1687 C1689 1.387 . S
H1688 C1695 0.950 . S
C1689 C1687 1.387 . S
C1689 C1691 1.390 . S
C1689 H1693 0.950 . S
H1690 C1686 0.950 . S
C1691 C1689 1.390 . S
C1691 C1692 1.387 . S
C1691 H1694 0.950 . S
C1692 C1691 1.387 . S
C1692 C1695 1.387 . S
H1693 C1689 0.950 . S
H1694 C1691 0.950 . S
C1695 C1686 1.390 . S
C1695 H1688 0.950 . S
C1695 C1692 1.387 . S
C1696 C1697 1.387 . S
C1696 H1700 0.950 . S
C1696 C1705 1.390 . S
C1697 C1696 1.387 . S
C1697 C1699 1.387 1_455 S
H1698 C1705 0.950 . S
C1699 C1697 1.387 1_655 S
C1699 C1701 1.390 . S
C1699 H1703 0.950 . S
H1700 C1696 0.950 . S
C1701 C1699 1.390 . S
C1701 C1702 1.387 1_655 S
C1701 H1704 0.950 . S
C1702 C1701 1.387 1_455 S
C1702 C1705 1.387 . S
H1703 C1699 0.950 . S
H1704 C1701 0.950 . S
C1705 C1696 1.390 . S
C1705 H1698 0.950 . S
C1705 C1702 1.387 . S
C1706 C1707 1.387 . S
C1706 H1710 0.950 . S
C1706 C1715 1.390 . S
C1707 C1706 1.387 . S
C1707 C1709 1.387 . S
H1708 C1715 0.950 . S
C1709 C1707 1.387 . S
C1709 C1711 1.390 . S
C1709 H1713 0.950 . S
H1710 C1706 0.950 . S
C1711 C1709 1.390 . S
C1711 C1712 1.387 . S
C1711 H1714 0.950 . S
C1712 C1711 1.387 . S
C1712 C1715 1.387 . S
H1713 C1709 0.950 . S
H1714 C1711 0.950 . S
C1715 C1706 1.390 . S
C1715 H1708 0.950 . S
C1715 C1712 1.387 . S
C1716 C1717 1.387 . S
C1716 H1720 0.950 . S
C1716 C1725 1.390 . S
C1717 C1716 1.387 . S
C1717 C1719 1.387 1_655 S
H1718 C1725 0.950 . S
C1719 C1717 1.387 1_455 S
C1719 C1721 1.390 . S
C1719 H1723 0.950 . S
H1720 C1716 0.950 . S
C1721 C1719 1.390 . S
C1721 C1722 1.387 1_455 S
C1721 H1724 0.950 . S
C1722 C1721 1.387 1_655 S
C1722 C1725 1.387 . S
H1723 C1719 0.950 . S
H1724 C1721 0.950 . S
C1725 C1716 1.390 . S
C1725 H1718 0.950 . S
C1725 C1722 1.387 . S
C1726 C1727 1.387 . S
C1726 H1730 0.950 . S
C1726 C1735 1.390 . S
C1727 C1726 1.387 . S
C1727 C1729 1.387 . S
H1728 C1735 0.950 . S
C1729 C1727 1.387 . S
C1729 C1731 1.390 . S
C1729 H1733 0.950 . S
H1730 C1726 0.950 . S
C1731 C1729 1.390 . S
C1731 C1732 1.387 . S
C1731 H1734 0.950 . S
C1732 C1731 1.387 . S
C1732 C1735 1.387 . S
H1733 C1729 0.950 . S
H1734 C1731 0.950 . S
C1735 C1726 1.390 . S
C1735 H1728 0.950 . S
C1735 C1732 1.387 . S
C1736 C1737 1.387 1_655 S
C1736 H1740 0.950 . S
C1736 C1745 1.390 . S
C1737 C1736 1.387 1_455 S
C1737 C1739 1.387 . S
H1738 C1745 0.950 . S
C1739 C1737 1.387 . S
C1739 C1741 1.390 . S
C1739 H1743 0.950 . S
H1740 C1736 0.950 . S
C1741 C1739 1.390 . S
C1741 C1742 1.387 . S
C1741 H1744 0.950 . S
C1742 C1741 1.387 . S
C1742 C1745 1.387 1_455 S
H1743 C1739 0.950 . S
H1744 C1741 0.950 . S
C1745 C1736 1.390 . S
C1745 H1738 0.950 . S
C1745 C1742 1.387 1_655 S
C1746 C1747 1.387 . S
C1746 H1750 0.950 . S
C1746 C1755 1.390 . S
C1747 C1746 1.387 . S
C1747 C1749 1.387 . S
H1748 C1755 0.950 . S
C1749 C1747 1.387 . S
C1749 C1751 1.390 . S
C1749 H1753 0.950 . S
H1750 C1746 0.950 . S
C1751 C1749 1.390 . S
C1751 C1752 1.387 . S
C1751 H1754 0.950 . S
C1752 C1751 1.387 . S
C1752 C1755 1.387 . S
H1753 C1749 0.950 . S
H1754 C1751 0.950 . S
C1755 C1746 1.390 . S
C1755 H1748 0.950 . S
C1755 C1752 1.387 . S
C1756 C1757 1.387 1_455 S
C1756 H1760 0.950 . S
C1756 C1765 1.390 . S
C1757 C1756 1.387 1_655 S
C1757 C1759 1.387 . S
H1758 C1765 0.950 . S
C1759 C1757 1.387 . S
C1759 C1761 1.390 . S
C1759 H1763 0.950 . S
H1760 C1756 0.950 . S
C1761 C1759 1.390 . S
C1761 C1762 1.387 . S
C1761 H1764 0.950 . S
C1762 C1761 1.387 . S
C1762 C1765 1.387 1_655 S
H1763 C1759 0.950 . S
H1764 C1761 0.950 . S
C1765 C1756 1.390 . S
C1765 H1758 0.950 . S
C1765 C1762 1.387 1_455 S
C1766 C1767 1.387 . S
C1766 H1770 0.950 . S
C1766 C1775 1.390 . S
C1767 C1766 1.387 . S
C1767 C1769 1.387 . S
H1768 C1775 0.950 . S
C1769 C1767 1.387 . S
C1769 C1771 1.390 . S
C1769 H1773 0.950 . S
H1770 C1766 0.950 . S
C1771 C1769 1.390 . S
C1771 C1772 1.387 . S
C1771 H1774 0.950 . S
C1772 C1771 1.387 . S
C1772 C1775 1.387 . S
H1773 C1769 0.950 . S
H1774 C1771 0.950 . S
C1775 C1766 1.390 . S
C1775 H1768 0.950 . S
C1775 C1772 1.387 . S
C1776 C1777 1.387 . S
C1776 H1780 0.950 . S
C1776 C1785 1.390 . S
C1777 C1776 1.387 . S
C1777 C1779 1.387 . S
H1778 C1785 0.950 . S
C1779 C1777 1.387 . S
C1779 C1781 1.390 . S
C1779 H1783 0.950 . S
H1780 C1776 0.950 . S
C1781 C1779 1.390 . S
C1781 C1782 1.387 . S
C1781 H1784 0.950 . S
C1782 C1781 1.387 . S
C1782 C1785 1.387 . S
H1783 C1779 0.950 . S
H1784 C1781 0.950 . S
C1785 C1776 1.390 . S
C1785 H1778 0.950 . S
C1785 C1782 1.387 . S
C1786 C1787 1.387 . S
C1786 H1790 0.950 . S
C1786 C1795 1.390 . S
C1787 C1786 1.387 . S
C1787 C1789 1.387 . S
H1788 C1795 0.950 . S
C1789 C1787 1.387 . S
C1789 C1791 1.390 . S
C1789 H1793 0.950 . S
H1790 C1786 0.950 . S
C1791 C1789 1.390 . S
C1791 C1792 1.387 . S
C1791 H1794 0.950 . S
C1792 C1791 1.387 . S
C1792 C1795 1.387 . S
H1793 C1789 0.950 . S
H1794 C1791 0.950 . S
C1795 C1786 1.390 . S
C1795 H1788 0.950 . S
C1795 C1792 1.387 . S
C1796 C1797 1.387 . S
C1796 H1800 0.950 . S
C1796 C1805 1.390 . S
C1797 C1796 1.387 . S
C1797 C1799 1.387 . S
H1798 C1805 0.950 . S
C1799 C1797 1.387 . S
C1799 C1801 1.390 . S
C1799 H1803 0.950 . S
H1800 C1796 0.950 . S
C1801 C1799 1.390 . S
C1801 C1802 1.387 . S
C1801 H1804 0.950 . S
C1802 C1801 1.387 . S
C1802 C1805 1.387 . S
H1803 C1799 0.950 . S
H1804 C1801 0.950 . S
C1805 C1796 1.390 . S
C1805 H1798 0.950 . S
C1805 C1802 1.387 . S
C1806 C1807 1.387 . S
C1806 H1810 0.950 . S
C1806 C1815 1.390 . S
C1807 C1806 1.387 . S
C1807 C1809 1.387 . S
H1808 C1815 0.950 . S
C1809 C1807 1.387 . S
C1809 C1811 1.390 . S
C1809 H1813 0.950 . S
H1810 C1806 0.950 . S
C1811 C1809 1.390 . S
C1811 C1812 1.387 . S
C1811 H1814 0.950 . S
C1812 C1811 1.387 . S
C1812 C1815 1.387 . S
H1813 C1809 0.950 . S
H1814 C1811 0.950 . S
C1815 C1806 1.390 . S
C1815 H1808 0.950 . S
C1815 C1812 1.387 . S
C1816 C1817 1.387 . S
C1816 H1820 0.950 . S
C1816 C1825 1.390 . S
C1817 C1816 1.387 . S
C1817 C1819 1.387 . S
H1818 C1825 0.950 . S
C1819 C1817 1.387 . S
C1819 C1821 1.390 . S
C1819 H1823 0.950 . S
H1820 C1816 0.950 . S
C1821 C1819 1.390 . S
C1821 C1822 1.387 . S
C1821 H1824 0.950 . S
C1822 C1821 1.387 . S
C1822 C1825 1.387 . S
H1823 C1819 0.950 . S
H1824 C1821 0.950 . S
C1825 C1816 1.390 . S
C1825 H1818 0.950 . S
C1825 C1822 1.387 . S
C1826 C1827 1.387 . S
C1826 H1830 0.950 . S
C1826 C1835 1.390 . S
C1827 C1826 1.387 . S
C1827 C1829 1.387 . S
H1828 C1835 0.950 . S
C1829 C1827 1.387 . S
C1829 C1831 1.390 . S
C1829 H1833 0.950 . S
H1830 C1826 0.950 . S
C1831 C1829 1.390 . S
C1831 C1832 1.387 . S
C1831 H1834 0.950 . S
C1832 C1831 1.387 . S
C1832 C1835 1.387 . S
H1833 C1829 0.950 . S
H1834 C1831 0.950 . S
C1835 C1826 1.390 . S
C1835 H1828 0.950 . S
C1835 C1832 1.387 . S
C1836 C1837 1.387 . S
C1836 H1840 0.950 . S
C1836 C1845 1.390 . S
C1837 C1836 1.387 . S
C1837 C1839 1.387 . S
H1838 C1845 0.950 . S
C1839 C1837 1.387 . S
C1839 C1841 1.390 . S
C1839 H1843 0.950 . S
H1840 C1836 0.950 . S
C1841 C1839 1.390 . S
C1841 C1842 1.387 . S
C1841 H1844 0.950 . S
C1842 C1841 1.387 . S
C1842 C1845 1.387 . S
H1843 C1839 0.950 . S
H1844 C1841 0.950 . S
C1845 C1836 1.390 . S
C1845 H1838 0.950 . S
C1845 C1842 1.387 . S
C1846 C1847 1.387 . S
C1846 H1850 0.950 . S
C1846 C1855 1.390 . S
C1847 C1846 1.387 . S
C1847 C1849 1.387 . S
H1848 C1855 0.950 . S
C1849 C1847 1.387 . S
C1849 C1851 1.390 . S
C1849 H1853 0.950 . S
H1850 C1846 0.950 . S
C1851 C1849 1.390 . S
C1851 C1852 1.387 . S
C1851 H1854 0.950 . S
C1852 C1851 1.387 . S
C1852 C1855 1.387 . S
H1853 C1849 0.950 . S
H1854 C1851 0.950 . S
C1855 C1846 1.390 . S
C1855 H1848 0.950 . S
C1855 C1852 1.387 . S
C1057 C7 1.004 . S
C1062 C73 1.004 . S
C1067 C40 1.001 . S
C1072 C106 1.001 . S
C1077 C139 1.004 . S
C1082 C205 1.004 . S
C1087 C172 1.001 . S
C1092 C238 1.001 . S
C1097 C337 1.008 . S
C1102 C271 1.008 . S
C1107 C304 1.001 . S
C1112 C370 1.001 . S
C1117 C403 1.004 . S
C1122 C469 1.004 . S
C1127 C436 1.001 . S
C1132 C502 1.001 . S
C1137 C601 1.007 . S
C1142 C535 1.007 . S
C1147 C634 1.004 . S
C1152 C568 1.004 . S
C1157 C667 1.003 . S
C1162 C733 1.003 . S
C1167 C766 1.004 . S
C1172 C700 1.004 . S
C1177 C865 1.007 . S
C1182 C799 1.007 . S
C1187 C898 1.000 . S
C1192 C832 1.000 . S
C1197 C997 1.003 . S
C1202 C931 1.003 . S
C1207 C964 1.004 . S
C1212 C1030 1.004 . S
C1217 N13 1.729 . S
C1222 N46 1.724 . S
C1227 N79 1.727 . S
C1232 N112 1.722 . S
C1237 N178 1.727 . S
C1242 N145 1.722 . S
C1247 N211 1.727 . S
C1252 N244 1.722 . S
C1257 N310 1.729 . S
C1262 N277 1.723 . S
C1267 N343 1.727 . S
C1272 N376 1.722 . S
C1277 N409 1.727 . S
C1282 N442 1.722 . S
C1287 N475 1.727 . S
C1292 N508 1.722 . S
C1297 N541 1.731 . S
C1302 N574 1.732 . S
C1307 N640 1.733 . S
C1312 N607 1.733 . S
C1317 N706 1.732 . S
C1322 N673 1.731 . S
C1327 N739 1.731 . S
C1332 N772 1.732 . S
C1337 N805 1.731 . S
C1342 N838 1.732 . S
C1347 N871 1.731 . S
C1352 N904 1.732 . S
C1357 N937 1.733 . S
C1362 N970 1.733 . S
C1367 N1036 1.733 . S
C1372 N1003 1.733 . S
C1377 C153 1.669 . S
C1382 C21 1.669 . S
C1387 C54 1.669 . S
C1392 C978 1.669 . S
C1397 C483 1.669 . S
C1402 C87 1.670 . S
C1407 C780 1.670 . S
C1412 C120 1.670 . S
C1417 C846 1.671 . S
C1422 C186 1.671 . S
C1427 C351 1.671 . S
C1432 C219 1.672 . S
C1437 C252 1.669 . S
C1442 C648 1.669 . S
C1447 C417 1.669 . S
C1452 C285 1.670 . S
C1457 C318 1.669 . S
C1462 C714 1.669 . S
C1467 C384 1.669 . S
C1472 C1044 1.669 . S
C1477 C582 1.669 . S
C1482 C450 1.669 . S
C1487 C912 1.669 . S
C1492 C516 1.669 . S
C1497 C549 1.668 . S
C1502 C681 1.668 . S
C1507 C615 1.669 . S
C1512 C1011 1.669 . S
C1517 C879 1.671 . S
C1522 C747 1.671 . S
C1527 C813 1.668 . S
C1532 C945 1.668 . S
C1537 N2 1.279 . S
C1542 N629 1.284 . S
C1547 N596 1.274 . S
C1552 N35 1.274 . S
C1557 N68 1.284 . S
C1562 N563 1.289 . S
C1567 N101 1.278 . S
C1572 N530 1.278 . S
C1577 N761 1.283 . S
C1582 N134 1.289 . S
C1587 N167 1.278 . S
C1592 N728 1.278 . S
C1597 N695 1.284 . S
C1602 N200 1.289 . S
C1607 N233 1.274 . S
C1612 N662 1.274 . S
C1617 N266 1.284 . S
C1622 N893 1.289 . S
C1627 N299 1.274 . S
C1632 N860 1.274 . S
C1637 N332 1.284 . S
C1642 N827 1.289 . S
C1647 N365 1.278 . S
C1652 N794 1.278 . S
C1657 N398 1.284 . S
C1662 N1025 1.289 . S
C1667 N992 1.274 . S
C1672 N431 1.274 . S
C1677 N959 1.279 . S
C1682 N464 1.285 . S
C1687 N926 1.274 . S
C1692 N497 1.274 . S
C1697 C18 1.328 . S
C1702 C84 1.328 . S
C1707 C117 1.328 . S
C1712 C51 1.328 . S
C1717 C216 1.329 . S
C1722 C150 1.329 . S
C1727 C183 1.328 . S
C1732 C249 1.328 . S
C1737 C282 1.329 . S
C1742 C348 1.329 . S
C1747 C315 1.328 . S
C1752 C381 1.328 . S
C1757 C480 1.328 . S
C1762 C414 1.328 . S
C1767 C447 1.328 . S
C1772 C513 1.328 . S
C1777 C546 1.328 . S
C1782 C612 1.328 . S
C1787 C579 1.328 . S
C1792 C645 1.328 . S
C1797 C744 1.328 . S
C1802 C678 1.328 . S
C1807 C777 1.328 . S
C1812 C711 1.328 . S
C1817 C876 1.328 . S
C1822 C810 1.328 . S
C1827 C843 1.328 . S
C1832 C909 1.328 . S
C1837 C1008 1.328 . S
C1842 C942 1.328 . S
C1847 C975 1.328 . S
C1852 C1041 1.328 . S
