# Generated by pormake.
# Topology can, (4)-cn, num edge types: 1
# Building blocks:
#     Node 0, Type 0, BuildingBlock: AZAVOO_clean_sbu_0, # of connection points: 4
#     Node 1, Type 0, BuildingBlock: AZAVOO_clean_sbu_0, # of connection points: 4
#     Node 2, Type 0, BuildingBlock: AZAVOO_clean_sbu_0, # of connection points: 4
#     Node 3, Type 0, BuildingBlock: AZAVOO_clean_sbu_0, # of connection points: 4
#     Node 4, Type 0, BuildingBlock: AZAVOO_clean_sbu_0, # of connection points: 4
#     Node 5, Type 0, BuildingBlock: AZAVOO_clean_sbu_0, # of connection points: 4
#     Node 6, Type 0, BuildingBlock: AZAVOO_clean_sbu_0, # of connection points: 4
#     Node 7, Type 0, BuildingBlock: AZAVOO_clean_sbu_0, # of connection points: 4
#     Node 8, Type 0, BuildingBlock: AZAVOO_clean_sbu_0, # of connection points: 4
#     Node 9, Type 0, BuildingBlock: AZAVOO_clean_sbu_0, # of connection points: 4
#     Node 10, Type 0, BuildingBlock: AZAVOO_clean_sbu_0, # of connection points: 4
#     Node 11, Type 0, BuildingBlock: AZAVOO_clean_sbu_0, # of connection points: 4
#     Edge 12, Type (0, 0), BuildingBlock: XIVTED_clean_linker_0, # of connection points: 2
#     Edge 13, Type (0, 0), BuildingBlock: XIVTED_clean_linker_0, # of connection points: 2
#     Edge 14, Type (0, 0), BuildingBlock: XIVTED_clean_linker_0, # of connection points: 2
#     Edge 15, Type (0, 0), BuildingBlock: XIVTED_clean_linker_0, # of connection points: 2
#     Edge 16, Type (0, 0), BuildingBlock: XIVTED_clean_linker_0, # of connection points: 2
#     Edge 17, Type (0, 0), BuildingBlock: XIVTED_clean_linker_0, # of connection points: 2
#     Edge 18, Type (0, 0), BuildingBlock: XIVTED_clean_linker_0, # of connection points: 2
#     Edge 19, Type (0, 0), BuildingBlock: XIVTED_clean_linker_0, # of connection points: 2
#     Edge 20, Type (0, 0), BuildingBlock: XIVTED_clean_linker_0, # of connection points: 2
#     Edge 21, Type (0, 0), BuildingBlock: XIVTED_clean_linker_0, # of connection points: 2
#     Edge 22, Type (0, 0), BuildingBlock: XIVTED_clean_linker_0, # of connection points: 2
#     Edge 23, Type (0, 0), BuildingBlock: XIVTED_clean_linker_0, # of connection points: 2
#     Edge 24, Type (0, 0), BuildingBlock: XIVTED_clean_linker_0, # of connection points: 2
#     Edge 25, Type (0, 0), BuildingBlock: XIVTED_clean_linker_0, # of connection points: 2
#     Edge 26, Type (0, 0), BuildingBlock: XIVTED_clean_linker_0, # of connection points: 2
#     Edge 27, Type (0, 0), BuildingBlock: XIVTED_clean_linker_0, # of connection points: 2
#     Edge 28, Type (0, 0), BuildingBlock: XIVTED_clean_linker_0, # of connection points: 2
#     Edge 29, Type (0, 0), BuildingBlock: XIVTED_clean_linker_0, # of connection points: 2
#     Edge 30, Type (0, 0), BuildingBlock: XIVTED_clean_linker_0, # of connection points: 2
#     Edge 31, Type (0, 0), BuildingBlock: XIVTED_clean_linker_0, # of connection points: 2
#     Edge 32, Type (0, 0), BuildingBlock: XIVTED_clean_linker_0, # of connection points: 2
#     Edge 33, Type (0, 0), BuildingBlock: XIVTED_clean_linker_0, # of connection points: 2
#     Edge 34, Type (0, 0), BuildingBlock: XIVTED_clean_linker_0, # of connection points: 2
#     Edge 35, Type (0, 0), BuildingBlock: XIVTED_clean_linker_0, # of connection points: 2
# Relax obj value: 0.086
# Max RMSD: 0.099
# Mean RMSD: 0.099
data_MOF--net-can--node1-AZAVOO_clean_sbu_0--edge1-XIVTED_clean_linker_0
_symmetry_space_group_name_H-M    P1
_symmetry_Int_Tables_number       1
_symmetry_cell_setting            triclinic
loop_
_symmetry_equiv_pos_as_xyz
'x, y, z'
_cell_length_a     58.448975
_cell_length_b     58.507803
_cell_length_c     26.88397
_cell_angle_alpha  90.054359
_cell_angle_beta   89.96245
_cell_angle_gamma 120.16709
loop_
_atom_site_label
_atom_site_type_symbol
_atom_site_fract_x
_atom_site_fract_y
_atom_site_fract_z
_atom_type_partial_charge
Mg0 Mg 0.06894 0.39542 0.25682 0.0
O1 O 0.06666 0.43332 0.26003 0.0
O2 O 0.08093 0.45216 0.33449 0.0
Mg3 Mg 0.09362 0.42717 0.37873 0.0
C4 C 0.07163 0.45166 0.29132 0.0
C5 C 0.03628 0.37091 0.16424 0.0
O6 O 0.02352 0.35399 0.20008 0.0
O7 O 0.11375 0.42019 0.24533 0.0
O8 O 0.1263 0.43658 0.32218 0.0
O9 O 0.02934 0.37329 0.29276 0.0
O10 O 0.06706 0.39264 0.33411 0.0
C11 C 0.13176 0.43384 0.27733 0.0
C12 C 0.04166 0.37989 0.33483 0.0
O13 O 0.05848 0.39133 0.17396 0.0
Mg14 Mg 0.67039 0.06689 0.75224 0.0
O15 O 0.63049 0.06484 0.76056 0.0
O16 O 0.62777 0.07923 0.83606 0.0
Mg17 Mg 0.66642 0.09103 0.87674 0.0
C18 C 0.61797 0.07006 0.79331 0.0
C19 C 0.66283 0.03675 0.65579 0.0
O20 O 0.67113 0.02556 0.68781 0.0
O21 O 0.6905 0.11177 0.74192 0.0
O22 O 0.68876 0.12393 0.82026 0.0
O23 O 0.65405 0.02716 0.78774 0.0
O24 O 0.6735 0.06495 0.82885 0.0
C25 C 0.69591 0.12961 0.77491 0.0
C26 C 0.66124 0.0396 0.82975 0.0
O27 O 0.6615 0.05686 0.66966 0.0
Mg28 Mg 0.59629 0.67154 0.24781 0.0
O29 O 0.55966 0.63049 0.25607 0.0
O30 O 0.54283 0.62682 0.33218 0.0
Mg31 Mg 0.56829 0.66581 0.37291 0.0
C32 C 0.54241 0.61728 0.28928 0.0
C33 C 0.62093 0.67623 0.14579 0.0
O34 O 0.64041 0.69447 0.17243 0.0
O35 O 0.56943 0.68934 0.2385 0.0
O36 O 0.55559 0.68661 0.31717 0.0
O37 O 0.62163 0.65723 0.28233 0.0
O38 O 0.60167 0.67482 0.32407 0.0
C39 C 0.55639 0.69365 0.27194 0.0
C40 C 0.61583 0.66373 0.32456 0.0
O41 O 0.59804 0.66349 0.16525 0.0
Mg42 Mg 0.91307 0.59874 0.75104 0.0
O43 O 0.91605 0.56135 0.75852 0.0
O44 O 0.90204 0.54406 0.8341 0.0
Mg45 Mg 0.88891 0.56967 0.87508 0.0
C46 C 0.91136 0.54376 0.79133 0.0
C47 C 0.94612 0.62051 0.6574 0.0
O48 O 0.9597 0.63777 0.69227 0.0
O49 O 0.86826 0.57297 0.74004 0.0
O50 O 0.85611 0.55829 0.81796 0.0
O51 O 0.95261 0.62233 0.78693 0.0
O52 O 0.91483 0.60332 0.82805 0.0
C53 C 0.85044 0.55979 0.77265 0.0
C54 C 0.94021 0.61651 0.82892 0.0
O55 O 0.92349 0.60095 0.66818 0.0
Mg56 Mg 0.31947 0.91959 0.25386 0.0
O57 O 0.35907 0.92045 0.25721 0.0
O58 O 0.3629 0.90646 0.33241 0.0
Mg59 Mg 0.32555 0.89549 0.37684 0.0
C60 C 0.37196 0.91517 0.28905 0.0
C61 C 0.32675 0.95085 0.16032 0.0
O62 O 0.32242 0.96363 0.19584 0.0
O63 O 0.2977 0.87463 0.24411 0.0
O64 O 0.30093 0.86254 0.32164 0.0
O65 O 0.33835 0.95966 0.28842 0.0
O66 O 0.31885 0.92233 0.33084 0.0
C67 C 0.29253 0.85683 0.27696 0.0
C68 C 0.33219 0.9477 0.33085 0.0
O69 O 0.32553 0.92903 0.1707 0.0
Mg70 Mg 0.38554 0.31589 0.75484 0.0
O71 O 0.42286 0.35641 0.76313 0.0
O72 O 0.44004 0.36031 0.83889 0.0
Mg73 Mg 0.41393 0.3214 0.87951 0.0
C74 C 0.44038 0.36966 0.79586 0.0
C75 C 0.38425 0.34537 0.66223 0.0
O76 O 0.38746 0.36161 0.69884 0.0
O77 O 0.41148 0.29717 0.74515 0.0
O78 O 0.42563 0.29972 0.8235 0.0
O79 O 0.36099 0.33106 0.78908 0.0
O80 O 0.38043 0.31314 0.83132 0.0
C81 C 0.42436 0.2925 0.77824 0.0
C82 C 0.36676 0.32477 0.83147 0.0
O83 O 0.38388 0.32391 0.67211 0.0
Mg84 Mg 0.59167 0.9164 0.23144 0.0
O85 O 0.55461 0.92004 0.22382 0.0
O86 O 0.53739 0.9064 0.14809 0.0
Mg87 Mg 0.56311 0.89355 0.10667 0.0
C88 C 0.53708 0.91557 0.19099 0.0
C89 C 0.59521 0.9478 0.32546 0.0
O90 O 0.59271 0.96166 0.28967 0.0
O91 O 0.56534 0.87158 0.24086 0.0
O92 O 0.55133 0.8601 0.16237 0.0
O93 O 0.61682 0.95613 0.19667 0.0
O94 O 0.5966 0.91855 0.15497 0.0
C95 C 0.55248 0.85404 0.20757 0.0
C96 C 0.6109 0.94384 0.15444 0.0
O97 O 0.59404 0.92605 0.31449 0.0
Mg98 Mg 0.65977 0.58902 0.7301 0.0
O99 O 0.61841 0.55236 0.72591 0.0
O100 O 0.61398 0.53329 0.65178 0.0
Mg101 Mg 0.6522 0.55742 0.60809 0.0
C102 C 0.60487 0.53414 0.69446 0.0
C103 C 0.66568 0.61737 0.82773 0.0
O104 O 0.68216 0.6359 0.79723 0.0
O105 O 0.67783 0.56263 0.74195 0.0
O106 O 0.67447 0.54685 0.66469 0.0
O107 O 0.64563 0.61388 0.6932 0.0
O108 O 0.66191 0.59218 0.65335 0.0
C109 C 0.68213 0.54903 0.70983 0.0
C110 C 0.6516 0.60703 0.65154 0.0
O111 O 0.65343 0.59357 0.81246 0.0
Mg112 Mg 0.0646 0.66747 0.22925 0.0
O113 O 0.06266 0.62746 0.22537 0.0
O114 O 0.07736 0.62359 0.15088 0.0
Mg115 Mg 0.08937 0.66124 0.10681 0.0
C116 C 0.06803 0.61447 0.19391 0.0
C117 C 0.03178 0.65859 0.32204 0.0
O118 O 0.01859 0.66198 0.28609 0.0
O119 O 0.10948 0.68806 0.24044 0.0
O120 O 0.12202 0.68496 0.16312 0.0
O121 O 0.02502 0.65023 0.19287 0.0
O122 O 0.0629 0.6689 0.15209 0.0
C123 C 0.12749 0.69302 0.20806 0.0
C124 C 0.03752 0.65666 0.15097 0.0
O125 O 0.05417 0.66092 0.31223 0.0
Mg126 Mg 0.39747 0.07012 0.73344 0.0
O127 O 0.43629 0.06944 0.73184 0.0
O128 O 0.45547 0.08465 0.65793 0.0
Mg129 Mg 0.4298 0.09603 0.6125 0.0
C130 C 0.45506 0.07529 0.701 0.0
C131 C 0.37256 0.03726 0.82556 0.0
O132 O 0.35635 0.024 0.78907 0.0
O133 O 0.42051 0.11488 0.7453 0.0
O134 O 0.43705 0.12824 0.66878 0.0
O135 O 0.37669 0.03057 0.69709 0.0
O136 O 0.39535 0.06836 0.65611 0.0
C137 C 0.43358 0.13321 0.71354 0.0
C138 C 0.38313 0.043 0.65512 0.0
O139 O 0.39273 0.05971 0.81629 0.0
Mg140 Mg 0.32084 0.39934 0.23519 0.0
O141 O 0.36191 0.43607 0.22823 0.0
O142 O 0.36555 0.4537 0.15296 0.0
Mg143 Mg 0.3268 0.42842 0.11131 0.0
C144 C 0.3751 0.4537 0.19563 0.0
C145 C 0.32378 0.3742 0.33113 0.0
O146 O 0.31343 0.35481 0.29863 0.0
O147 O 0.30254 0.42558 0.24548 0.0
O148 O 0.30482 0.43979 0.1673 0.0
O149 O 0.33543 0.37444 0.20026 0.0
O150 O 0.31805 0.39458 0.15865 0.0
C151 C 0.29766 0.4384 0.21264 0.0
C152 C 0.32903 0.38031 0.15808 0.0
O153 O 0.32836 0.39697 0.31772 0.0
Mg154 Mg 0.91883 0.32691 0.73669 0.0
O155 O 0.91921 0.36629 0.7344 0.0
O156 O 0.90468 0.3699 0.65958 0.0
Mg157 Mg 0.89388 0.33288 0.61449 0.0
C158 C 0.91354 0.379 0.70285 0.0
C159 C 0.95064 0.33329 0.82872 0.0
O160 O 0.96278 0.32882 0.79215 0.0
O161 O 0.87385 0.30457 0.74719 0.0
O162 O 0.86131 0.30792 0.67011 0.0
O163 O 0.95876 0.34604 0.70132 0.0
O164 O 0.92118 0.32645 0.65959 0.0
C165 C 0.85584 0.29934 0.71471 0.0
C166 C 0.94657 0.3397 0.6591 0.0
O167 O 0.9289 0.33257 0.81972 0.0
H168 H 0.98415 0.33953 0.14198 0.0
H169 H 0.00255 0.35243 0.85014 0.0
H170 H 0.05955 0.39283 0.07441 0.0
H171 H 0.92774 0.33065 0.91965 0.0
H172 H 0.0237 0.36346 0.93172 0.0
H173 H 0.96305 0.33209 0.06062 0.0
C174 C -0.00369 0.34964 0.10996 0.0
C175 C 0.02371 0.36673 0.11488 0.0
C176 C 0.0027 0.35641 0.92911 0.0
C177 C -0.0004 0.35814 0.02168 0.0
C178 C 0.99054 0.34993 0.88264 0.0
C179 C 0.96328 0.34045 0.8782 0.0
C180 C 0.98744 0.35292 0.97166 0.0
C181 C 0.94878 0.33788 0.92149 0.0
C182 C 0.98418 0.3455 0.06364 0.0
C183 C 0.03839 0.37949 0.07221 0.0
N184 N 0.96101 0.34381 0.96661 0.0
N185 N 0.02617 0.37472 0.02719 0.0
H186 H 0.6094 0.92868 0.40588 0.0
H187 H 0.64224 0.05285 0.58047 0.0
H188 H 0.59803 0.99304 0.36045 0.0
H189 H 0.66056 0.99218 0.61883 0.0
H190 H 0.62403 0.03033 0.50114 0.0
H191 H 0.62542 0.95028 0.48654 0.0
C192 C 0.61003 0.94722 0.41299 0.0
C193 C 0.60246 0.95911 0.37621 0.0
C194 C 0.63209 0.022 0.52693 0.0
C195 C 0.62101 0.98408 0.46835 0.0
C196 C 0.64257 0.0349 0.57215 0.0
C197 C 0.65301 0.02445 0.60637 0.0
C198 C 0.63196 -0.00158 0.51594 0.0
C199 C 0.65279 0.00103 0.59363 0.0
C200 C 0.61932 0.95963 0.45898 0.0
C201 C 0.60377 0.98319 0.38757 0.0
N202 N 0.6424 0.98882 0.54959 0.0
N203 N 0.61295 0.99491 0.43251 0.0
H204 H 0.66558 0.70317 0.08959 0.0
H205 H 0.6246 0.58679 0.89133 0.0
H206 H 0.58951 0.63144 0.09109 0.0
H207 H 0.69222 0.66514 0.87453 0.0
H208 H 0.61284 0.60126 0.96799 0.0
H209 H 0.67666 0.68841 0.0131 0.0
C210 C 0.6511 0.68438 0.07362 0.0
C211 C 0.62657 0.66853 0.09681 0.0
C212 C 0.63028 0.61523 0.94752 0.0
C213 C 0.63931 0.65129 0.00938 0.0
C214 C 0.63712 0.60694 0.90398 0.0
C215 C 0.65943 0.62479 0.87643 0.0
C216 C 0.646 0.64148 0.96379 0.0
C217 C 0.67482 0.65071 0.89444 0.0
C218 C 0.65747 0.67593 0.02994 0.0
C219 C 0.60861 0.64435 0.07435 0.0
N220 N 0.66782 0.65824 0.9369 0.0
N221 N 0.61541 0.63637 0.03205 0.0
H222 H 0.05602 0.66177 0.41159 0.0
H223 H 0.92147 0.59789 0.56883 0.0
H224 H 0.97989 0.63793 0.34591 0.0
H225 H -0.00184 0.65007 0.633 0.0
H226 H 0.94253 0.60511 0.48671 0.0
H227 H 0.03486 0.65022 0.4939 0.0
C228 C 0.03489 0.654 0.41447 0.0
C229 C 0.01973 0.65105 0.37201 0.0
C230 C 0.95467 0.61488 0.51893 0.0
C231 C -0.00454 0.63754 0.46541 0.0
C232 C 0.94269 0.61073 0.56567 0.0
C233 C 0.95805 0.62361 0.60762 0.0
C234 C 0.9822 0.63163 0.51446 0.0
C235 C 0.98551 0.63999 0.60153 0.0
C236 C 0.02285 0.64748 0.46131 0.0
C237 C 0.99239 0.64083 0.37775 0.0
N238 N -0.00329 0.64349 0.55588 0.0
N239 N 0.98112 0.63439 0.42354 0.0
H240 H 0.39249 0.06155 0.91556 0.0
H241 H 0.32578 0.92701 0.07146 0.0
H242 H 0.34171 0.98525 0.84879 0.0
H243 H 0.34597 0.00242 0.13611 0.0
H244 H 0.33867 0.94833 0.98945 0.0
H245 H 0.38273 0.04026 -0.00231 0.0
C246 C 0.37941 0.04036 0.91818 0.0
C247 C 0.36771 0.02517 0.87546 0.0
C248 C 0.34026 0.96013 0.02175 0.0
C249 C 0.35681 0.00078 0.96863 0.0
C250 C 0.33298 0.94801 0.06841 0.0
C251 C 0.3346 0.96293 0.11048 0.0
C252 C 0.34967 0.98738 0.01749 0.0
C253 C 0.34412 0.9901 0.10454 0.0
C254 C 0.3738 0.02826 0.96491 0.0
C255 C 0.35093 -0.00224 0.88085 0.0
N256 N 0.3514 0.00148 0.05897 0.0
N257 N 0.34605 0.98643 0.92655 0.0
H258 H 0.31936 0.32856 0.3672 0.0
H259 H 0.38722 0.39083 0.62868 0.0
H260 H 0.34785 0.40999 0.40711 0.0
H261 H 0.36678 0.31232 0.58111 0.0
H262 H 0.37284 0.39825 0.54814 0.0
H263 H 0.33566 0.32207 0.44625 0.0
C264 C 0.32893 0.34508 0.39269 0.0
C265 C 0.33222 0.36988 0.38044 0.0
C266 C 0.37164 0.37946 0.55517 0.0
C267 C 0.35112 0.36255 0.47119 0.0
C268 C 0.37989 0.37519 0.60115 0.0
C269 C 0.3781 0.35085 0.61177 0.0
C270 C 0.36134 0.35918 0.51952 0.0
C271 C 0.36852 0.33138 0.57457 0.0
C272 C 0.33835 0.34136 0.4378 0.0
C273 C 0.34484 0.39053 0.41501 0.0
N274 N 0.36033 0.33591 0.53022 0.0
N275 N 0.35383 0.38639 0.45883 0.0
H276 H 0.91965 0.6106 0.92216 0.0
H277 H 0.05885 0.67033 0.05804 0.0
H278 H -0.00683 0.63646 0.84378 0.0
H279 H 0.9841 0.62795 0.13528 0.0
H280 H 0.03528 0.66005 0.97932 0.0
H281 H 0.94316 0.61917 0.00081 0.0
C282 C 0.94072 0.61789 0.92147 0.0
C283 C 0.95446 0.6225 0.87642 0.0
C284 C 0.02404 0.65282 0.01344 0.0
C285 C 0.9815 0.63272 0.96627 0.0
C286 C 0.03747 0.65856 0.05846 0.0
C287 C 0.02339 0.64972 0.10325 0.0
C288 C -0.00368 0.63839 0.01326 0.0
C289 C -0.0043 0.63507 0.10154 0.0
C290 C 0.95413 0.62284 0.96643 0.0
C291 C 0.98184 0.63257 0.87774 0.0
N292 N 0.98301 0.62992 0.05715 0.0
N293 N -0.00549 0.63736 0.92208 0.0
H294 H 0.36608 0.00071 0.34409 0.0
H295 H 0.36147 0.98986 0.64064 0.0
H296 H 0.31888 0.92788 0.42468 0.0
H297 H 0.39173 0.06373 0.56155 0.0
H298 H 0.35078 0.9666 0.56102 0.0
H299 H 0.38062 0.02423 0.42347 0.0
C300 C 0.35889 0.98967 0.37842 0.0
C301 C 0.34145 0.9623 0.37788 0.0
C302 C 0.3599 0.98793 0.56119 0.0
C303 C 0.35796 0.9889 0.46829 0.0
C304 C 0.36602 0.00119 0.60656 0.0
C305 C 0.3776 0.02875 0.60764 0.0
C306 C 0.36545 0.00239 0.51678 0.0
C307 C 0.38309 0.0425 0.56244 0.0
C308 C 0.36718 0.00307 0.4236 0.0
C309 C 0.33267 0.94892 0.42334 0.0
N310 N 0.37693 0.02914 0.51875 0.0
N311 N 0.34105 0.96236 0.46674 0.0
H312 H 0.34607 0.35714 0.84623 0.0
H313 H 0.35651 0.35439 0.14241 0.0
H314 H 0.37194 0.30972 0.92458 0.0
H315 H 0.3144 0.38682 0.06539 0.0
H316 H 0.36539 0.34052 0.06229 0.0
H317 H 0.33689 0.37084 0.92628 0.0
C318 C 0.34979 0.34962 0.88021 0.0
C319 C 0.36009 0.33257 0.87885 0.0
C320 C 0.35426 0.35074 0.06304 0.0
C321 C 0.34981 0.34815 0.97013 0.0
C322 C 0.34924 0.35868 0.10869 0.0
C323 C 0.33496 0.37202 0.11047 0.0
C324 C 0.34495 0.35627 0.01908 0.0
C325 C 0.32588 0.377 0.06573 0.0
C326 C 0.34459 0.35744 0.92582 0.0
C327 C 0.36449 0.32331 0.92392 0.0
N328 N 0.33109 0.36917 0.02182 0.0
N329 N 0.35943 0.33132 0.96776 0.0
H330 H -8e-05 0.37099 0.64482 0.0
H331 H 0.98866 0.36011 0.34849 0.0
H332 H 0.92606 0.32639 0.56562 0.0
H333 H 0.06201 0.38806 0.42863 0.0
H334 H 0.96544 0.35218 0.42782 0.0
H335 H 0.02337 0.38238 0.56522 0.0
C336 C 0.98864 0.36377 0.61073 0.0
C337 C 0.96102 0.34787 0.61175 0.0
C338 C 0.98664 0.36015 0.42793 0.0
C339 C 0.98757 0.36071 0.52103 0.0
C340 C -0.00013 0.36464 0.38274 0.0
C341 C 0.0273 0.37494 0.38206 0.0
C342 C 0.00101 0.36603 0.47255 0.0
C343 C 0.04091 0.38047 0.42744 0.0
C344 C 0.002 0.37022 0.5654 0.0
C345 C 0.94733 0.33899 0.56657 0.0
N346 N 0.0276 0.37596 0.47093 0.0
N347 N 0.96077 0.34552 0.523 0.0
H348 H 0.67749 0.06086 0.9221 0.0
H349 H 0.60519 0.92255 0.06207 0.0
H350 H 0.62971 0.98645 0.84653 0.0
H351 H 0.63503 -0.00272 0.13804 0.0
H352 H 0.61723 0.94566 0.9829 0.0
H353 H 0.66527 0.03785 0.00148 0.0
C354 C 0.66421 0.03969 0.92217 0.0
C355 C 0.65425 0.02557 0.87764 0.0
C356 C 0.62101 0.95701 0.01682 0.0
C357 C 0.64064 -0.00091 0.96847 0.0
C358 C 0.61405 0.94384 0.06213 0.0
C359 C 0.61873 0.95801 0.10671 0.0
C360 C 0.63304 0.98461 0.01604 0.0
C361 C 0.63095 0.98561 0.10449 0.0
C362 C 0.65734 0.02657 0.96758 0.0
C363 C 0.63772 -0.00192 0.88001 0.0
N364 N 0.63772 -0.00194 0.05976 0.0
N365 N 0.63141 0.9857 0.9248 0.0
H366 H 0.61201 0.68093 0.41642 0.0
H367 H 0.66579 0.59847 0.55987 0.0
H368 H 0.63577 0.6308 0.34166 0.0
H369 H 0.62635 0.63493 0.63293 0.0
H370 H 0.65788 0.6126 0.47992 0.0
H371 H 0.62062 0.66716 0.49612 0.0
C372 C 0.61894 0.66689 0.41676 0.0
C373 C 0.62278 0.65662 0.37237 0.0
C374 C 0.65082 0.61738 0.51338 0.0
C375 C 0.63299 0.64106 0.46365 0.0
C376 C 0.65518 0.60919 0.55913 0.0
C377 C 0.64637 0.61522 0.60315 0.0
C378 C 0.63779 0.63194 0.51159 0.0
C379 C 0.63334 0.62975 0.59987 0.0
C380 C 0.6239 0.6591 0.46235 0.0
C381 C 0.63244 0.63907 0.37505 0.0
N382 N 0.62946 0.63767 0.55476 0.0
N383 N 0.63716 0.63175 0.42009 0.0
H384 H 0.05842 0.5924 0.28697 0.0
H385 H 0.06148 0.46346 0.19816 0.0
H386 H 0.06957 0.57734 0.13409 0.0
H387 H 0.07183 0.48975 0.35095 0.0
H388 H 0.05707 0.50134 0.17419 0.0
H389 H 0.05587 0.5509 0.31088 0.0
C390 C 0.06011 0.58029 0.25835 0.0
C391 C 0.06445 0.5885 0.20847 0.0
C392 C 0.06019 0.49872 0.21297 0.0
C393 C 0.06153 0.541 0.23567 0.0
C394 C 0.06264 0.47706 0.22674 0.0
C395 C 0.06727 0.47353 0.27661 0.0
C396 C 0.06216 0.51684 0.24936 0.0
C397 C 0.06854 0.49181 0.312 0.0
C398 C 0.05875 0.55665 0.27209 0.0
C399 C 0.06647 0.57195 0.17304 0.0
N400 N 0.06606 0.51271 0.29767 0.0
N401 N 0.06506 0.54902 0.18735 0.0
H402 H 0.46776 0.06624 0.79437 0.0
H403 H 0.59438 0.05971 0.70166 0.0
H404 H 0.49294 0.07544 0.64099 0.0
H405 H 0.58217 0.07317 0.85494 0.0
H406 H 0.55308 0.05805 0.67959 0.0
H407 H 0.50577 0.06171 0.8177 0.0
C408 C 0.48117 0.06717 0.76556 0.0
C409 C 0.47726 0.07143 0.71567 0.0
C410 C 0.5594 0.06125 0.71809 0.0
C411 C 0.52061 0.06611 0.74212 0.0
C412 C 0.58293 0.06209 0.7308 0.0
C413 C 0.59191 0.06682 0.78022 0.0
C414 C 0.5446 0.06495 0.75505 0.0
C415 C 0.57616 0.06972 0.81631 0.0
C416 C 0.50287 0.06464 0.77895 0.0
C417 C 0.49528 0.07243 0.67995 0.0
N418 N 0.55329 0.06881 0.80298 0.0
N419 N 0.51616 0.0698 0.69389 0.0
H420 H 0.50579 0.58003 0.35227 0.0
H421 H 0.41253 0.49035 0.13301 0.0
H422 H 0.52826 0.59398 0.19736 0.0
H423 H 0.39875 0.46684 0.28737 0.0
H424 H 0.45533 0.52808 0.15579 0.0
H425 H 0.46688 0.53809 0.32946 0.0
C426 C 0.50267 0.5742 0.3135 0.0
C427 C 0.52022 0.59069 0.27664 0.0
C428 C 0.44304 0.51454 0.18462 0.0
C429 C 0.47558 0.54276 0.25026 0.0
C430 C 0.41854 0.49302 0.17167 0.0
C431 C 0.40189 0.47549 0.20838 0.0
C432 C 0.45085 0.51877 0.23473 0.0
C433 C 0.41087 0.47987 0.25782 0.0
C434 C 0.48047 0.55021 0.30052 0.0
C435 C 0.51524 0.58198 0.22704 0.0
N436 N 0.43463 0.50122 0.26961 0.0
N437 N 0.49323 0.55875 0.21526 0.0
H438 H 0.92261 0.53098 0.7 0.0
H439 H 0.92139 0.40098 0.79602 0.0
H440 H 0.90994 0.50598 0.85362 0.0
H441 H 0.91313 0.41612 0.64175 0.0
H442 H 0.92426 0.44291 0.81835 0.0
H443 H 0.92643 0.49245 0.67887 0.0
C444 C 0.92084 0.51753 0.72939 0.0
C445 C 0.9157 0.52162 0.77862 0.0
C446 C 0.92193 0.43705 0.77962 0.0
C447 C 0.92006 0.47747 0.75458 0.0
C448 C 0.92036 0.41317 0.76681 0.0
C449 C 0.91679 0.4049 0.71697 0.0
C450 C 0.92017 0.45287 0.74228 0.0
C451 C 0.91561 0.42155 0.68071 0.0
C452 C 0.92293 0.49548 0.71723 0.0
C453 C 0.91365 0.5035 0.8151 0.0
N454 N 0.91726 0.4447 0.6941 0.0
N455 N 0.91576 0.48217 0.80231 0.0
H456 H 0.40937 0.91522 0.35029 0.0
H457 H 0.49944 0.91463 0.12887 0.0
H458 H 0.394 0.92317 0.196 0.0
H459 H 0.52382 0.92575 0.28285 0.0
H460 H 0.46073 0.91773 0.15239 0.0
H461 H 0.45129 0.91882 0.32616 0.0
C462 C 0.41482 0.9178 0.31132 0.0
C463 C 0.39802 0.91871 0.27507 0.0
C464 C 0.47468 0.91971 0.18095 0.0
C465 C 0.44602 0.92276 0.2472 0.0
C466 C 0.49677 0.91789 0.16758 0.0
C467 C 0.51482 0.91971 0.204 0.0
C468 C 0.47043 0.92309 0.23115 0.0
C469 C 0.5104 0.92413 0.25352 0.0
C470 C 0.43884 0.91996 0.29761 0.0
C471 C 0.40629 0.92231 0.22521 0.0
N472 N 0.48851 0.9254 0.26569 0.0
N473 N 0.42961 0.92397 0.21269 0.0
H474 H 0.56632 0.49737 0.63384 0.0
H475 H 0.47861 0.40664 0.85719 0.0
H476 H 0.58305 0.52122 0.78778 0.0
H477 H 0.45259 0.39318 0.70413 0.0
H478 H 0.51677 0.44887 0.83292 0.0
H479 H 0.52432 0.45929 0.659 0.0
C480 C 0.56109 0.49471 0.67292 0.0
C481 C 0.57835 0.51242 0.70879 0.0
C482 C 0.50257 0.43677 0.80476 0.0
C483 C 0.53033 0.4687 0.73788 0.0
C484 C 0.48081 0.41261 0.81854 0.0
C485 C 0.46246 0.39619 0.78259 0.0
C486 C 0.50619 0.44445 0.75458 0.0
C487 C 0.46627 0.40509 0.73313 0.0
C488 C 0.53706 0.47298 0.68724 0.0
C489 C 0.5704 0.50805 0.75885 0.0
N490 N 0.48784 0.42848 0.72053 0.0
N491 N 0.54709 0.48646 0.77197 0.0
H492 H 0.15374 0.43497 0.1861 0.0
H493 H 0.27792 0.44103 0.3041 0.0
H494 H 0.1741 0.45638 0.34034 0.0
H495 H 0.27597 0.45847 0.14851 0.0
H496 H 0.24103 0.44867 0.31906 0.0
H497 H 0.19921 0.44527 0.17063 0.0
C498 C 0.16781 0.44223 0.21648 0.0
C499 C 0.15992 0.44432 0.26472 0.0
C500 C 0.24909 0.45135 0.28185 0.0
C501 C 0.2117 0.45575 0.24749 0.0
C502 C 0.27013 0.44696 0.2733 0.0
C503 C 0.27971 0.44855 0.22485 0.0
C504 C 0.23731 0.45682 0.24151 0.0
C505 C 0.26898 0.45658 0.18641 0.0
C506 C 0.19378 0.44818 0.20763 0.0
C507 C 0.17912 0.45408 0.30263 0.0
N508 N 0.24795 0.45981 0.19536 0.0
N509 N 0.20397 0.4589 0.29343 0.0
H510 H 0.81302 0.28246 0.65332 0.0
H511 H 0.71552 0.15206 0.68337 0.0
H512 H 0.83471 0.27147 0.80131 0.0
H513 H 0.71727 0.17146 0.839 0.0
H514 H 0.75059 0.19754 0.66776 0.0
H515 H 0.76923 0.24399 0.66528 0.0
C516 C 0.80854 0.2722 0.68863 0.0
C517 C 0.8279 0.27984 0.72598 0.0
C518 C 0.74273 0.19199 0.70504 0.0
C519 C 0.77785 0.23561 0.73931 0.0
C520 C 0.72283 0.16596 0.71401 0.0
C521 C 0.71361 0.1578 0.76259 0.0
C522 C 0.75358 0.20977 0.74508 0.0
C523 C 0.72387 0.17674 0.80094 0.0
C524 C 0.78356 0.2501 0.69512 0.0
C525 C 0.82062 0.26606 0.77122 0.0
N526 N 0.7437 0.20167 0.79152 0.0
N527 N 0.79618 0.24439 0.77645 0.0
H528 H 0.53285 0.71151 0.3368 0.0
H529 H 0.53021 0.81242 0.14276 0.0
H530 H 0.55343 0.71423 0.18159 0.0
H531 H 0.55034 0.8309 0.29798 0.0
H532 H 0.52182 0.76781 0.15768 0.0
H533 H 0.52242 0.74631 0.32189 0.0
C534 C 0.53469 0.71898 0.29929 0.0
C535 C 0.54469 0.71033 0.26052 0.0
C536 C 0.52757 0.78153 0.18855 0.0
C537 C 0.53243 0.74997 0.24357 0.0
C538 C 0.53234 0.80702 0.18028 0.0
C539 C 0.54167 0.82573 0.21904 0.0
C540 C 0.53176 0.77454 0.23599 0.0
C541 C 0.54364 0.81731 0.26686 0.0
C542 C 0.52874 0.73889 0.29102 0.0
C543 C 0.54623 0.72058 0.21271 0.0
N544 N 0.53905 0.79235 0.27389 0.0
N545 N 0.54047 0.74015 0.20567 0.0
H546 H 0.82798 0.5564 0.68092 0.0
H547 H 0.69765 0.52166 0.64925 0.0
H548 H 0.80829 0.53734 0.83608 0.0
H549 H 0.70828 0.55382 0.79776 0.0
H550 H 0.73551 0.51557 0.66198 0.0
H551 H 0.78208 0.54432 0.66491 0.0
C552 C 0.81394 0.54914 0.71136 0.0
C553 C 0.82214 0.54825 0.75997 0.0
C554 C 0.72938 0.52375 0.69182 0.0
C555 C 0.76969 0.53432 0.74199 0.0
C556 C 0.70762 0.52706 0.6849 0.0
C557 C 0.70023 0.53907 0.72205 0.0
C558 C 0.74371 0.53235 0.73626 0.0
C559 C 0.71357 0.54501 0.76775 0.0
C560 C 0.78768 0.54203 0.70216 0.0
C561 C 0.80301 0.53863 0.79803 0.0
N562 N 0.73494 0.54189 0.77336 0.0
N563 N 0.77783 0.53264 0.78842 0.0
H564 H 0.27049 0.81544 0.34209 0.0
H565 H 0.16963 0.71367 0.14442 0.0
H566 H 0.27106 0.83412 0.18641 0.0
H567 H 0.14957 0.71477 0.29885 0.0
H568 H 0.2141 0.75012 0.16082 0.0
H569 H 0.23365 0.7711 0.32631 0.0
C570 C 0.26325 0.81015 0.30434 0.0
C571 C 0.27362 0.82878 0.26557 0.0
C572 C 0.20004 0.74207 0.19117 0.0
C573 C 0.23158 0.77792 0.24764 0.0
C574 C 0.17464 0.72119 0.18206 0.0
C575 C 0.15558 0.71143 0.22022 0.0
C576 C 0.2066 0.75305 0.23886 0.0
C577 C 0.16346 0.7219 0.26821 0.0
C578 C 0.24215 0.78482 0.29558 0.0
C579 C 0.26346 0.82056 0.21749 0.0
N580 N 0.18838 0.74237 0.2761 0.0
N581 N 0.24279 0.79573 0.20993 0.0
H582 H 0.42777 0.27305 0.68693 0.0
H583 H 0.433 0.15423 0.80483 0.0
H584 H 0.44581 0.27231 0.8426 0.0
H585 H 0.45295 0.17543 0.65044 0.0
H586 H 0.43913 0.19818 0.8203 0.0
H587 H 0.43847 0.23821 0.67193 0.0
C588 C 0.4344 0.26593 0.71775 0.0
C589 C 0.4354 0.27529 0.7662 0.0
C590 C 0.44265 0.19331 0.78326 0.0
C591 C 0.44723 0.23528 0.74947 0.0
C592 C 0.4391 0.16822 0.77442 0.0
C593 C 0.44199 0.16093 0.72615 0.0
C594 C 0.4486 0.21094 0.74336 0.0
C595 C 0.45015 0.18 0.68819 0.0
C596 C 0.44055 0.24609 0.70918 0.0
C597 C 0.44436 0.26546 0.80469 0.0
N598 N 0.45262 0.20393 0.69739 0.0
N599 N 0.44939 0.24561 0.79568 0.0
loop_
_geom_bond_atom_site_label_1
_geom_bond_atom_site_label_2
_geom_bond_distance
_geom_bond_site_symmetry_2
_ccdc_geom_bond_type
Mg0 O1 2.028 . S
Mg0 O7 1.986 . S
Mg0 O9 2.114 . S
Mg0 O10 2.251 . S
Mg0 O13 2.010 . S
O1 Mg0 2.028 . S
O1 C4 1.250 . S
O2 Mg3 2.028 . S
O2 C4 1.248 . S
Mg3 O2 2.028 . S
Mg3 O8 2.032 . S
Mg3 O10 2.079 . S
C4 O1 1.250 . S
C4 O2 1.248 . S
C5 O6 1.264 . S
C5 O13 1.249 . S
O6 C5 1.264 . S
O7 Mg0 1.986 . S
O7 C11 1.246 . S
O8 Mg3 2.032 . S
O8 C11 1.259 . S
O9 Mg0 2.114 . S
O9 C12 1.252 . S
O10 Mg0 2.251 . S
O10 Mg3 2.079 . S
O10 C12 1.273 . S
C11 O7 1.246 . S
C11 O8 1.259 . S
C12 O9 1.252 . S
C12 O10 1.273 . S
O13 Mg0 2.010 . S
O13 C5 1.249 . S
Mg14 O15 2.028 . S
Mg14 O21 1.986 . S
Mg14 O23 2.114 . S
Mg14 O24 2.251 . S
Mg14 O27 2.010 . S
O15 Mg14 2.028 . S
O15 C18 1.250 . S
O16 Mg17 2.028 . S
O16 C18 1.248 . S
Mg17 O16 2.028 . S
Mg17 O22 2.032 . S
Mg17 O24 2.079 . S
C18 O15 1.250 . S
C18 O16 1.248 . S
C19 O20 1.264 . S
C19 O27 1.249 . S
O20 C19 1.264 . S
O21 Mg14 1.986 . S
O21 C25 1.246 . S
O22 Mg17 2.032 . S
O22 C25 1.259 . S
O23 Mg14 2.114 . S
O23 C26 1.252 . S
O24 Mg14 2.251 . S
O24 Mg17 2.079 . S
O24 C26 1.273 . S
C25 O21 1.246 . S
C25 O22 1.259 . S
C26 O23 1.252 . S
C26 O24 1.273 . S
O27 Mg14 2.010 . S
O27 C19 1.249 . S
Mg28 O29 2.028 . S
Mg28 O35 1.986 . S
Mg28 O37 2.114 . S
Mg28 O38 2.251 . S
Mg28 O41 2.010 . S
O29 Mg28 2.028 . S
O29 C32 1.250 . S
O30 Mg31 2.028 . S
O30 C32 1.248 . S
Mg31 O30 2.028 . S
Mg31 O36 2.032 . S
Mg31 O38 2.079 . S
C32 O29 1.250 . S
C32 O30 1.248 . S
C33 O34 1.264 . S
C33 O41 1.249 . S
O34 C33 1.264 . S
O35 Mg28 1.986 . S
O35 C39 1.246 . S
O36 Mg31 2.032 . S
O36 C39 1.259 . S
O37 Mg28 2.114 . S
O37 C40 1.252 . S
O38 Mg28 2.251 . S
O38 Mg31 2.079 . S
O38 C40 1.273 . S
C39 O35 1.246 . S
C39 O36 1.259 . S
C40 O37 1.252 . S
C40 O38 1.273 . S
O41 Mg28 2.010 . S
O41 C33 1.249 . S
Mg42 O43 2.028 . S
Mg42 O49 1.986 . S
Mg42 O51 2.114 . S
Mg42 O52 2.251 . S
Mg42 O55 2.010 . S
O43 Mg42 2.028 . S
O43 C46 1.250 . S
O44 Mg45 2.028 . S
O44 C46 1.248 . S
Mg45 O44 2.028 . S
Mg45 O50 2.032 . S
Mg45 O52 2.079 . S
C46 O43 1.250 . S
C46 O44 1.248 . S
C47 O48 1.264 . S
C47 O55 1.249 . S
O48 C47 1.264 . S
O49 Mg42 1.986 . S
O49 C53 1.246 . S
O50 Mg45 2.032 . S
O50 C53 1.259 . S
O51 Mg42 2.114 . S
O51 C54 1.252 . S
O52 Mg42 2.251 . S
O52 Mg45 2.079 . S
O52 C54 1.273 . S
C53 O49 1.246 . S
C53 O50 1.259 . S
C54 O51 1.252 . S
C54 O52 1.273 . S
O55 Mg42 2.010 . S
O55 C47 1.249 . S
Mg56 O57 2.028 . S
Mg56 O63 1.986 . S
Mg56 O65 2.114 . S
Mg56 O66 2.251 . S
Mg56 O69 2.010 . S
O57 Mg56 2.028 . S
O57 C60 1.250 . S
O58 Mg59 2.028 . S
O58 C60 1.248 . S
Mg59 O58 2.028 . S
Mg59 O64 2.032 . S
Mg59 O66 2.079 . S
C60 O57 1.250 . S
C60 O58 1.248 . S
C61 O62 1.264 . S
C61 O69 1.249 . S
O62 C61 1.264 . S
O63 Mg56 1.986 . S
O63 C67 1.246 . S
O64 Mg59 2.032 . S
O64 C67 1.259 . S
O65 Mg56 2.114 . S
O65 C68 1.252 . S
O66 Mg56 2.251 . S
O66 Mg59 2.079 . S
O66 C68 1.273 . S
C67 O63 1.246 . S
C67 O64 1.259 . S
C68 O65 1.252 . S
C68 O66 1.273 . S
O69 Mg56 2.010 . S
O69 C61 1.249 . S
Mg70 O71 2.028 . S
Mg70 O77 1.986 . S
Mg70 O79 2.114 . S
Mg70 O80 2.251 . S
Mg70 O83 2.010 . S
O71 Mg70 2.028 . S
O71 C74 1.250 . S
O72 Mg73 2.028 . S
O72 C74 1.248 . S
Mg73 O72 2.028 . S
Mg73 O78 2.032 . S
Mg73 O80 2.079 . S
C74 O71 1.250 . S
C74 O72 1.248 . S
C75 O76 1.264 . S
C75 O83 1.249 . S
O76 C75 1.264 . S
O77 Mg70 1.986 . S
O77 C81 1.246 . S
O78 Mg73 2.032 . S
O78 C81 1.259 . S
O79 Mg70 2.114 . S
O79 C82 1.252 . S
O80 Mg70 2.251 . S
O80 Mg73 2.079 . S
O80 C82 1.273 . S
C81 O77 1.246 . S
C81 O78 1.259 . S
C82 O79 1.252 . S
C82 O80 1.273 . S
O83 Mg70 2.010 . S
O83 C75 1.249 . S
Mg84 O85 2.028 . S
Mg84 O91 1.986 . S
Mg84 O93 2.114 . S
Mg84 O94 2.251 . S
Mg84 O97 2.010 . S
O85 Mg84 2.028 . S
O85 C88 1.250 . S
O86 Mg87 2.028 . S
O86 C88 1.248 . S
Mg87 O86 2.028 . S
Mg87 O92 2.032 . S
Mg87 O94 2.079 . S
C88 O85 1.250 . S
C88 O86 1.248 . S
C89 O90 1.264 . S
C89 O97 1.249 . S
O90 C89 1.264 . S
O91 Mg84 1.986 . S
O91 C95 1.246 . S
O92 Mg87 2.032 . S
O92 C95 1.259 . S
O93 Mg84 2.114 . S
O93 C96 1.252 . S
O94 Mg84 2.251 . S
O94 Mg87 2.079 . S
O94 C96 1.273 . S
C95 O91 1.246 . S
C95 O92 1.259 . S
C96 O93 1.252 . S
C96 O94 1.273 . S
O97 Mg84 2.010 . S
O97 C89 1.249 . S
Mg98 O99 2.028 . S
Mg98 O105 1.986 . S
Mg98 O107 2.114 . S
Mg98 O108 2.251 . S
Mg98 O111 2.010 . S
O99 Mg98 2.028 . S
O99 C102 1.250 . S
O100 Mg101 2.028 . S
O100 C102 1.248 . S
Mg101 O100 2.028 . S
Mg101 O106 2.032 . S
Mg101 O108 2.079 . S
C102 O99 1.250 . S
C102 O100 1.248 . S
C103 O104 1.264 . S
C103 O111 1.249 . S
O104 C103 1.264 . S
O105 Mg98 1.986 . S
O105 C109 1.246 . S
O106 Mg101 2.032 . S
O106 C109 1.259 . S
O107 Mg98 2.114 . S
O107 C110 1.252 . S
O108 Mg98 2.251 . S
O108 Mg101 2.079 . S
O108 C110 1.273 . S
C109 O105 1.246 . S
C109 O106 1.259 . S
C110 O107 1.252 . S
C110 O108 1.273 . S
O111 Mg98 2.010 . S
O111 C103 1.249 . S
Mg112 O113 2.028 . S
Mg112 O119 1.986 . S
Mg112 O121 2.114 . S
Mg112 O122 2.251 . S
Mg112 O125 2.010 . S
O113 Mg112 2.028 . S
O113 C116 1.250 . S
O114 Mg115 2.028 . S
O114 C116 1.248 . S
Mg115 O114 2.028 . S
Mg115 O120 2.032 . S
Mg115 O122 2.079 . S
C116 O113 1.250 . S
C116 O114 1.248 . S
C117 O118 1.264 . S
C117 O125 1.249 . S
O118 C117 1.264 . S
O119 Mg112 1.986 . S
O119 C123 1.246 . S
O120 Mg115 2.032 . S
O120 C123 1.259 . S
O121 Mg112 2.114 . S
O121 C124 1.252 . S
O122 Mg112 2.251 . S
O122 Mg115 2.079 . S
O122 C124 1.273 . S
C123 O119 1.246 . S
C123 O120 1.259 . S
C124 O121 1.252 . S
C124 O122 1.273 . S
O125 Mg112 2.010 . S
O125 C117 1.249 . S
Mg126 O127 2.028 . S
Mg126 O133 1.986 . S
Mg126 O135 2.114 . S
Mg126 O136 2.251 . S
Mg126 O139 2.010 . S
O127 Mg126 2.028 . S
O127 C130 1.250 . S
O128 Mg129 2.028 . S
O128 C130 1.248 . S
Mg129 O128 2.028 . S
Mg129 O134 2.032 . S
Mg129 O136 2.079 . S
C130 O127 1.250 . S
C130 O128 1.248 . S
C131 O132 1.264 . S
C131 O139 1.249 . S
O132 C131 1.264 . S
O133 Mg126 1.986 . S
O133 C137 1.246 . S
O134 Mg129 2.032 . S
O134 C137 1.259 . S
O135 Mg126 2.114 . S
O135 C138 1.252 . S
O136 Mg126 2.251 . S
O136 Mg129 2.079 . S
O136 C138 1.273 . S
C137 O133 1.246 . S
C137 O134 1.259 . S
C138 O135 1.252 . S
C138 O136 1.273 . S
O139 Mg126 2.010 . S
O139 C131 1.249 . S
Mg140 O141 2.028 . S
Mg140 O147 1.986 . S
Mg140 O149 2.114 . S
Mg140 O150 2.251 . S
Mg140 O153 2.010 . S
O141 Mg140 2.028 . S
O141 C144 1.250 . S
O142 Mg143 2.028 . S
O142 C144 1.248 . S
Mg143 O142 2.028 . S
Mg143 O148 2.032 . S
Mg143 O150 2.079 . S
C144 O141 1.250 . S
C144 O142 1.248 . S
C145 O146 1.264 . S
C145 O153 1.249 . S
O146 C145 1.264 . S
O147 Mg140 1.986 . S
O147 C151 1.246 . S
O148 Mg143 2.032 . S
O148 C151 1.259 . S
O149 Mg140 2.114 . S
O149 C152 1.252 . S
O150 Mg140 2.251 . S
O150 Mg143 2.079 . S
O150 C152 1.273 . S
C151 O147 1.246 . S
C151 O148 1.259 . S
C152 O149 1.252 . S
C152 O150 1.273 . S
O153 Mg140 2.010 . S
O153 C145 1.249 . S
Mg154 O155 2.028 . S
Mg154 O161 1.986 . S
Mg154 O163 2.114 . S
Mg154 O164 2.251 . S
Mg154 O167 2.010 . S
O155 Mg154 2.028 . S
O155 C158 1.250 . S
O156 Mg157 2.028 . S
O156 C158 1.248 . S
Mg157 O156 2.028 . S
Mg157 O162 2.032 . S
Mg157 O164 2.079 . S
C158 O155 1.250 . S
C158 O156 1.248 . S
C159 O160 1.264 . S
C159 O167 1.249 . S
O160 C159 1.264 . S
O161 Mg154 1.986 . S
O161 C165 1.246 . S
O162 Mg157 2.032 . S
O162 C165 1.259 . S
O163 Mg154 2.114 . S
O163 C166 1.252 . S
O164 Mg154 2.251 . S
O164 Mg157 2.079 . S
O164 C166 1.273 . S
C165 O161 1.246 . S
C165 O162 1.259 . S
C166 O163 1.252 . S
C166 O164 1.273 . S
O167 Mg154 2.010 . S
O167 C159 1.249 . S
H168 C174 0.930 1_655 S
H169 C178 0.930 1_455 S
H170 C183 0.929 . S
H171 C181 0.929 . S
H172 C176 0.929 . S
H173 C182 0.929 . S
C174 H168 0.930 1_455 S
C174 C175 1.367 . S
C174 C182 1.378 1_455 S
C175 C174 1.367 . S
C175 C183 1.433 . S
C176 H172 0.929 . S
C176 C178 1.378 1_455 S
C176 C180 1.350 1_455 S
C177 C180 1.463 1_454 S
C177 C182 1.350 1_455 S
C177 N185 1.427 . S
C178 H169 0.930 1_655 S
C178 C176 1.378 1_655 S
C178 C179 1.367 . S
C179 C178 1.367 . S
C179 C181 1.433 . S
C180 C176 1.350 1_655 S
C180 C177 1.463 1_656 S
C180 N184 1.427 . S
C181 H171 0.929 . S
C181 C179 1.433 . S
C181 N184 1.384 . S
C182 H173 0.929 . S
C182 C174 1.378 1_655 S
C182 C177 1.350 1_655 S
C183 H170 0.929 . S
C183 C175 1.433 . S
C183 N185 1.384 . S
N184 C180 1.427 . S
N184 C181 1.384 . S
N185 C177 1.427 . S
N185 C183 1.384 . S
H186 C192 0.930 . S
H187 C196 0.930 . S
H188 C201 0.929 . S
H189 C199 0.929 . S
H190 C194 0.929 . S
H191 C200 0.929 . S
C192 H186 0.930 . S
C192 C193 1.367 . S
C192 C200 1.378 . S
C193 C192 1.367 . S
C193 C201 1.433 . S
C194 H190 0.929 . S
C194 C196 1.378 . S
C194 C198 1.350 . S
C195 C198 1.463 1_565 S
C195 C200 1.350 . S
C195 N203 1.427 1_565 S
C196 H187 0.930 . S
C196 C194 1.378 . S
C196 C197 1.367 . S
C197 C196 1.367 . S
C197 C199 1.433 . S
C198 C194 1.350 . S
C198 C195 1.463 1_545 S
C198 N202 1.427 1_545 S
C199 H189 0.929 . S
C199 C197 1.433 . S
C199 N202 1.384 1_545 S
C200 H191 0.929 . S
C200 C192 1.378 . S
C200 C195 1.350 . S
C201 H188 0.929 . S
C201 C193 1.433 . S
C201 N203 1.384 1_565 S
N202 C198 1.427 1_565 S
N202 C199 1.384 1_565 S
N203 C195 1.427 1_545 S
N203 C201 1.384 1_545 S
H204 C210 0.930 . S
H205 C214 0.930 . S
H206 C219 0.929 . S
H207 C217 0.929 . S
H208 C212 0.929 . S
H209 C218 0.929 . S
C210 H204 0.930 . S
C210 C211 1.367 . S
C210 C218 1.378 . S
C211 C210 1.367 . S
C211 C219 1.433 . S
C212 H208 0.929 . S
C212 C214 1.378 . S
C212 C216 1.350 . S
C213 C216 1.463 1_554 S
C213 C218 1.350 . S
C213 N221 1.427 . S
C214 H205 0.930 . S
C214 C212 1.378 . S
C214 C215 1.367 . S
C215 C214 1.367 . S
C215 C217 1.433 . S
C216 C212 1.350 . S
C216 C213 1.463 1_556 S
C216 N220 1.427 . S
C217 H207 0.929 . S
C217 C215 1.433 . S
C217 N220 1.384 . S
C218 H209 0.929 . S
C218 C210 1.378 . S
C218 C213 1.350 . S
C219 H206 0.929 . S
C219 C211 1.433 . S
C219 N221 1.384 . S
N220 C216 1.427 . S
N220 C217 1.384 . S
N221 C213 1.427 . S
N221 C219 1.384 . S
H222 C228 0.930 . S
H223 C232 0.930 . S
H224 C237 0.929 . S
H225 C235 0.929 . S
H226 C230 0.929 . S
H227 C236 0.929 . S
C228 H222 0.930 . S
C228 C229 1.367 . S
C228 C236 1.378 . S
C229 C228 1.367 . S
C229 C237 1.433 . S
C230 H226 0.929 . S
C230 C232 1.378 . S
C230 C234 1.350 . S
C231 C234 1.463 1_455 S
C231 C236 1.350 . S
C231 N239 1.427 1_455 S
C232 H223 0.930 . S
C232 C230 1.378 . S
C232 C233 1.367 . S
C233 C232 1.367 . S
C233 C235 1.433 . S
C234 C230 1.350 . S
C234 C231 1.463 1_655 S
C234 N238 1.427 1_655 S
C235 H225 0.929 . S
C235 C233 1.433 . S
C235 N238 1.384 1_655 S
C236 H227 0.929 . S
C236 C228 1.378 . S
C236 C231 1.350 . S
C237 H224 0.929 . S
C237 C229 1.433 . S
C237 N239 1.384 1_455 S
N238 C234 1.427 1_455 S
N238 C235 1.384 1_455 S
N239 C231 1.427 1_655 S
N239 C237 1.384 1_655 S
H240 C246 0.930 . S
H241 C250 0.930 . S
H242 C255 0.929 1_565 S
H243 C253 0.929 1_545 S
H244 C248 0.929 1_556 S
H245 C254 0.929 1_554 S
C246 H240 0.930 . S
C246 C247 1.367 . S
C246 C254 1.378 . S
C247 C246 1.367 . S
C247 C255 1.433 . S
C248 H244 0.929 1_554 S
C248 C250 1.378 . S
C248 C252 1.350 . S
C249 C252 1.463 1_546 S
C249 C254 1.350 . S
C249 N257 1.427 1_545 S
C250 H241 0.930 . S
C250 C248 1.378 . S
C250 C251 1.367 . S
C251 C250 1.367 . S
C251 C253 1.433 . S
C252 C248 1.350 . S
C252 C249 1.463 1_564 S
C252 N256 1.427 1_565 S
C253 H243 0.929 1_565 S
C253 C251 1.433 . S
C253 N256 1.384 1_565 S
C254 H245 0.929 1_556 S
C254 C246 1.378 . S
C254 C249 1.350 . S
C255 H242 0.929 1_545 S
C255 C247 1.433 . S
C255 N257 1.384 1_545 S
N256 C252 1.427 1_545 S
N256 C253 1.384 1_545 S
N257 C249 1.427 1_565 S
N257 C255 1.384 1_565 S
H258 C264 0.930 . S
H259 C268 0.930 . S
H260 C273 0.929 . S
H261 C271 0.929 . S
H262 C266 0.929 . S
H263 C272 0.929 . S
C264 H258 0.930 . S
C264 C265 1.367 . S
C264 C272 1.378 . S
C265 C264 1.367 . S
C265 C273 1.433 . S
C266 H262 0.929 . S
C266 C268 1.378 . S
C266 C270 1.350 . S
C267 C270 1.463 . S
C267 C272 1.350 . S
C267 N275 1.427 . S
C268 H259 0.930 . S
C268 C266 1.378 . S
C268 C269 1.367 . S
C269 C268 1.367 . S
C269 C271 1.433 . S
C270 C266 1.350 . S
C270 C267 1.463 . S
C270 N274 1.427 . S
C271 H261 0.929 . S
C271 C269 1.433 . S
C271 N274 1.384 . S
C272 H263 0.929 . S
C272 C264 1.378 . S
C272 C267 1.350 . S
C273 H260 0.929 . S
C273 C265 1.433 . S
C273 N275 1.384 . S
N274 C270 1.427 . S
N274 C271 1.384 . S
N275 C267 1.427 . S
N275 C273 1.384 . S
H276 C282 0.930 . S
H277 C286 0.930 . S
H278 C291 0.929 . S
H279 C289 0.929 . S
H280 C284 0.929 . S
H281 C290 0.929 . S
C282 H276 0.930 . S
C282 C283 1.367 . S
C282 C290 1.378 . S
C283 C282 1.367 . S
C283 C291 1.433 . S
C284 H280 0.929 . S
C284 C286 1.378 . S
C284 C288 1.350 . S
C285 C288 1.463 1_656 S
C285 C290 1.350 . S
C285 N293 1.427 . S
C286 H277 0.930 . S
C286 C284 1.378 . S
C286 C287 1.367 . S
C287 C286 1.367 . S
C287 C289 1.433 . S
C288 C284 1.350 . S
C288 C285 1.463 1_454 S
C288 N292 1.427 . S
C289 H279 0.929 . S
C289 C287 1.433 . S
C289 N292 1.384 . S
C290 H281 0.929 . S
C290 C282 1.378 . S
C290 C285 1.350 . S
C291 H278 0.929 . S
C291 C283 1.433 . S
C291 N293 1.384 . S
N292 C288 1.427 . S
N292 C289 1.384 . S
N293 C285 1.427 . S
N293 C291 1.384 . S
H294 C300 0.930 . S
H295 C304 0.930 . S
H296 C309 0.929 . S
H297 C307 0.929 . S
H298 C302 0.929 . S
H299 C308 0.929 . S
C300 H294 0.930 . S
C300 C301 1.367 . S
C300 C308 1.378 1_565 S
C301 C300 1.367 . S
C301 C309 1.433 . S
C302 H298 0.929 . S
C302 C304 1.378 1_565 S
C302 C306 1.350 1_565 S
C303 C306 1.463 1_565 S
C303 C308 1.350 1_565 S
C303 N311 1.427 . S
C304 H295 0.930 . S
C304 C302 1.378 1_545 S
C304 C305 1.367 . S
C305 C304 1.367 . S
C305 C307 1.433 . S
C306 C302 1.350 1_545 S
C306 C303 1.463 1_545 S
C306 N310 1.427 . S
C307 H297 0.929 . S
C307 C305 1.433 . S
C307 N310 1.384 . S
C308 H299 0.929 . S
C308 C300 1.378 1_545 S
C308 C303 1.350 1_545 S
C309 H296 0.929 . S
C309 C301 1.433 . S
C309 N311 1.384 . S
N310 C306 1.427 . S
N310 C307 1.384 . S
N311 C303 1.427 . S
N311 C309 1.384 . S
H312 C318 0.930 . S
H313 C322 0.930 . S
H314 C327 0.929 . S
H315 C325 0.929 . S
H316 C320 0.929 . S
H317 C326 0.929 . S
C318 H312 0.930 . S
C318 C319 1.367 . S
C318 C326 1.378 . S
C319 C318 1.367 . S
C319 C327 1.433 . S
C320 H316 0.929 . S
C320 C322 1.378 . S
C320 C324 1.350 . S
C321 C324 1.463 1_556 S
C321 C326 1.350 . S
C321 N329 1.427 . S
C322 H313 0.930 . S
C322 C320 1.378 . S
C322 C323 1.367 . S
C323 C322 1.367 . S
C323 C325 1.433 . S
C324 C320 1.350 . S
C324 C321 1.463 1_554 S
C324 N328 1.427 . S
C325 H315 0.929 . S
C325 C323 1.433 . S
C325 N328 1.384 . S
C326 H317 0.929 . S
C326 C318 1.378 . S
C326 C321 1.350 . S
C327 H314 0.929 . S
C327 C319 1.433 . S
C327 N329 1.384 . S
N328 C324 1.427 . S
N328 C325 1.384 . S
N329 C321 1.427 . S
N329 C327 1.384 . S
H330 C336 0.926 1_455 S
H331 C340 0.926 1_655 S
H332 C345 0.929 . S
H333 C343 0.929 . S
H334 C338 0.929 . S
H335 C344 0.929 . S
C336 H330 0.926 1_655 S
C336 C337 1.367 . S
C336 C344 1.378 1_655 S
C337 C336 1.367 . S
C337 C345 1.433 . S
C338 H334 0.929 . S
C338 C340 1.378 1_655 S
C338 C342 1.350 1_655 S
C339 C342 1.463 1_655 S
C339 C344 1.350 1_655 S
C339 N347 1.427 . S
C340 H331 0.926 1_455 S
C340 C338 1.378 1_455 S
C340 C341 1.367 . S
C341 C340 1.367 . S
C341 C343 1.433 . S
C342 C338 1.350 1_455 S
C342 C339 1.463 1_455 S
C342 N346 1.427 . S
C343 H333 0.929 . S
C343 C341 1.433 . S
C343 N346 1.384 . S
C344 H335 0.929 . S
C344 C336 1.378 1_455 S
C344 C339 1.350 1_455 S
C345 H332 0.929 . S
C345 C337 1.433 . S
C345 N347 1.384 . S
N346 C342 1.427 . S
N346 C343 1.384 . S
N347 C339 1.427 . S
N347 C345 1.384 . S
H348 C354 0.930 . S
H349 C358 0.930 . S
H350 C363 0.929 . S
H351 C361 0.929 . S
H352 C356 0.929 1_556 S
H353 C362 0.929 1_554 S
C354 H348 0.930 . S
C354 C355 1.367 . S
C354 C362 1.378 . S
C355 C354 1.367 . S
C355 C363 1.433 . S
C356 H352 0.929 1_554 S
C356 C358 1.378 . S
C356 C360 1.350 . S
C357 C360 1.463 1_546 S
C357 C362 1.350 . S
C357 N365 1.427 1_545 S
C358 H349 0.930 . S
C358 C356 1.378 . S
C358 C359 1.367 . S
C359 C358 1.367 . S
C359 C361 1.433 . S
C360 C356 1.350 . S
C360 C357 1.463 1_564 S
C360 N364 1.427 1_565 S
C361 H351 0.929 . S
C361 C359 1.433 . S
C361 N364 1.384 1_565 S
C362 H353 0.929 1_556 S
C362 C354 1.378 . S
C362 C357 1.350 . S
C363 H350 0.929 . S
C363 C355 1.433 . S
C363 N365 1.384 1_545 S
N364 C360 1.427 1_545 S
N364 C361 1.384 1_545 S
N365 C357 1.427 1_565 S
N365 C363 1.384 1_565 S
H366 C372 0.930 . S
H367 C376 0.930 . S
H368 C381 0.929 . S
H369 C379 0.929 . S
H370 C374 0.929 . S
H371 C380 0.929 . S
C372 H366 0.930 . S
C372 C373 1.367 . S
C372 C380 1.378 . S
C373 C372 1.367 . S
C373 C381 1.433 . S
C374 H370 0.929 . S
C374 C376 1.378 . S
C374 C378 1.350 . S
C375 C378 1.463 . S
C375 C380 1.350 . S
C375 N383 1.427 . S
C376 H367 0.930 . S
C376 C374 1.378 . S
C376 C377 1.367 . S
C377 C376 1.367 . S
C377 C379 1.433 . S
C378 C374 1.350 . S
C378 C375 1.463 . S
C378 N382 1.427 . S
C379 H369 0.929 . S
C379 C377 1.433 . S
C379 N382 1.384 . S
C380 H371 0.929 . S
C380 C372 1.378 . S
C380 C375 1.350 . S
C381 H368 0.929 . S
C381 C373 1.433 . S
C381 N383 1.384 . S
N382 C378 1.427 . S
N382 C379 1.384 . S
N383 C375 1.427 . S
N383 C381 1.384 . S
H384 C390 0.930 . S
H385 C394 0.930 . S
H386 C399 0.929 . S
H387 C397 0.929 . S
H388 C392 0.929 . S
H389 C398 0.929 . S
C390 H384 0.930 . S
C390 C391 1.367 . S
C390 C398 1.378 . S
C391 C390 1.367 . S
C391 C399 1.433 . S
C392 H388 0.929 . S
C392 C394 1.378 . S
C392 C396 1.350 . S
C393 C396 1.463 . S
C393 C398 1.350 . S
C393 N401 1.427 . S
C394 H385 0.930 . S
C394 C392 1.378 . S
C394 C395 1.367 . S
C395 C394 1.367 . S
C395 C397 1.433 . S
C396 C392 1.350 . S
C396 C393 1.463 . S
C396 N400 1.427 . S
C397 H387 0.929 . S
C397 C395 1.433 . S
C397 N400 1.384 . S
C398 H389 0.929 . S
C398 C390 1.378 . S
C398 C393 1.350 . S
C399 H386 0.929 . S
C399 C391 1.433 . S
C399 N401 1.384 . S
N400 C396 1.427 . S
N400 C397 1.384 . S
N401 C393 1.427 . S
N401 C399 1.384 . S
H402 C408 0.930 . S
H403 C412 0.930 . S
H404 C417 0.929 . S
H405 C415 0.929 . S
H406 C410 0.929 . S
H407 C416 0.929 . S
C408 H402 0.930 . S
C408 C409 1.367 . S
C408 C416 1.378 . S
C409 C408 1.367 . S
C409 C417 1.433 . S
C410 H406 0.929 . S
C410 C412 1.378 . S
C410 C414 1.350 . S
C411 C414 1.463 . S
C411 C416 1.350 . S
C411 N419 1.427 . S
C412 H403 0.930 . S
C412 C410 1.378 . S
C412 C413 1.367 . S
C413 C412 1.367 . S
C413 C415 1.433 . S
C414 C410 1.350 . S
C414 C411 1.463 . S
C414 N418 1.427 . S
C415 H405 0.929 . S
C415 C413 1.433 . S
C415 N418 1.384 . S
C416 H407 0.929 . S
C416 C408 1.378 . S
C416 C411 1.350 . S
C417 H404 0.929 . S
C417 C409 1.433 . S
C417 N419 1.384 . S
N418 C414 1.427 . S
N418 C415 1.384 . S
N419 C411 1.427 . S
N419 C417 1.384 . S
H420 C426 0.930 . S
H421 C430 0.930 . S
H422 C435 0.929 . S
H423 C433 0.929 . S
H424 C428 0.929 . S
H425 C434 0.929 . S
C426 H420 0.930 . S
C426 C427 1.367 . S
C426 C434 1.378 . S
C427 C426 1.367 . S
C427 C435 1.433 . S
C428 H424 0.929 . S
C428 C430 1.378 . S
C428 C432 1.350 . S
C429 C432 1.463 . S
C429 C434 1.350 . S
C429 N437 1.427 . S
C430 H421 0.930 . S
C430 C428 1.378 . S
C430 C431 1.367 . S
C431 C430 1.367 . S
C431 C433 1.433 . S
C432 C428 1.350 . S
C432 C429 1.463 . S
C432 N436 1.427 . S
C433 H423 0.929 . S
C433 C431 1.433 . S
C433 N436 1.384 . S
C434 H425 0.929 . S
C434 C426 1.378 . S
C434 C429 1.350 . S
C435 H422 0.929 . S
C435 C427 1.433 . S
C435 N437 1.384 . S
N436 C432 1.427 . S
N436 C433 1.384 . S
N437 C429 1.427 . S
N437 C435 1.384 . S
H438 C444 0.930 . S
H439 C448 0.930 . S
H440 C453 0.929 . S
H441 C451 0.929 . S
H442 C446 0.929 . S
H443 C452 0.929 . S
C444 H438 0.930 . S
C444 C445 1.367 . S
C444 C452 1.378 . S
C445 C444 1.367 . S
C445 C453 1.433 . S
C446 H442 0.929 . S
C446 C448 1.378 . S
C446 C450 1.350 . S
C447 C450 1.463 . S
C447 C452 1.350 . S
C447 N455 1.427 . S
C448 H439 0.930 . S
C448 C446 1.378 . S
C448 C449 1.367 . S
C449 C448 1.367 . S
C449 C451 1.433 . S
C450 C446 1.350 . S
C450 C447 1.463 . S
C450 N454 1.427 . S
C451 H441 0.929 . S
C451 C449 1.433 . S
C451 N454 1.384 . S
C452 H443 0.929 . S
C452 C444 1.378 . S
C452 C447 1.350 . S
C453 H440 0.929 . S
C453 C445 1.433 . S
C453 N455 1.384 . S
N454 C450 1.427 . S
N454 C451 1.384 . S
N455 C447 1.427 . S
N455 C453 1.384 . S
H456 C462 0.930 . S
H457 C466 0.930 . S
H458 C471 0.929 . S
H459 C469 0.929 . S
H460 C464 0.929 . S
H461 C470 0.929 . S
C462 H456 0.930 . S
C462 C463 1.367 . S
C462 C470 1.378 . S
C463 C462 1.367 . S
C463 C471 1.433 . S
C464 H460 0.929 . S
C464 C466 1.378 . S
C464 C468 1.350 . S
C465 C468 1.463 . S
C465 C470 1.350 . S
C465 N473 1.427 . S
C466 H457 0.930 . S
C466 C464 1.378 . S
C466 C467 1.367 . S
C467 C466 1.367 . S
C467 C469 1.433 . S
C468 C464 1.350 . S
C468 C465 1.463 . S
C468 N472 1.427 . S
C469 H459 0.929 . S
C469 C467 1.433 . S
C469 N472 1.384 . S
C470 H461 0.929 . S
C470 C462 1.378 . S
C470 C465 1.350 . S
C471 H458 0.929 . S
C471 C463 1.433 . S
C471 N473 1.384 . S
N472 C468 1.427 . S
N472 C469 1.384 . S
N473 C465 1.427 . S
N473 C471 1.384 . S
H474 C480 0.930 . S
H475 C484 0.930 . S
H476 C489 0.929 . S
H477 C487 0.929 . S
H478 C482 0.929 . S
H479 C488 0.929 . S
C480 H474 0.930 . S
C480 C481 1.367 . S
C480 C488 1.378 . S
C481 C480 1.367 . S
C481 C489 1.433 . S
C482 H478 0.929 . S
C482 C484 1.378 . S
C482 C486 1.350 . S
C483 C486 1.463 . S
C483 C488 1.350 . S
C483 N491 1.427 . S
C484 H475 0.930 . S
C484 C482 1.378 . S
C484 C485 1.367 . S
C485 C484 1.367 . S
C485 C487 1.433 . S
C486 C482 1.350 . S
C486 C483 1.463 . S
C486 N490 1.427 . S
C487 H477 0.929 . S
C487 C485 1.433 . S
C487 N490 1.384 . S
C488 H479 0.929 . S
C488 C480 1.378 . S
C488 C483 1.350 . S
C489 H476 0.929 . S
C489 C481 1.433 . S
C489 N491 1.384 . S
N490 C486 1.427 . S
N490 C487 1.384 . S
N491 C483 1.427 . S
N491 C489 1.384 . S
H492 C498 0.930 . S
H493 C502 0.930 . S
H494 C507 0.929 . S
H495 C505 0.929 . S
H496 C500 0.929 . S
H497 C506 0.929 . S
C498 H492 0.930 . S
C498 C499 1.367 . S
C498 C506 1.378 . S
C499 C498 1.367 . S
C499 C507 1.433 . S
C500 H496 0.929 . S
C500 C502 1.378 . S
C500 C504 1.350 . S
C501 C504 1.463 . S
C501 C506 1.350 . S
C501 N509 1.427 . S
C502 H493 0.930 . S
C502 C500 1.378 . S
C502 C503 1.367 . S
C503 C502 1.367 . S
C503 C505 1.433 . S
C504 C500 1.350 . S
C504 C501 1.463 . S
C504 N508 1.427 . S
C505 H495 0.929 . S
C505 C503 1.433 . S
C505 N508 1.384 . S
C506 H497 0.929 . S
C506 C498 1.378 . S
C506 C501 1.350 . S
C507 H494 0.929 . S
C507 C499 1.433 . S
C507 N509 1.384 . S
N508 C504 1.427 . S
N508 C505 1.384 . S
N509 C501 1.427 . S
N509 C507 1.384 . S
H510 C516 0.930 . S
H511 C520 0.930 . S
H512 C525 0.929 . S
H513 C523 0.929 . S
H514 C518 0.929 . S
H515 C524 0.929 . S
C516 H510 0.930 . S
C516 C517 1.367 . S
C516 C524 1.378 . S
C517 C516 1.367 . S
C517 C525 1.433 . S
C518 H514 0.929 . S
C518 C520 1.378 . S
C518 C522 1.350 . S
C519 C522 1.463 . S
C519 C524 1.350 . S
C519 N527 1.427 . S
C520 H511 0.930 . S
C520 C518 1.378 . S
C520 C521 1.367 . S
C521 C520 1.367 . S
C521 C523 1.433 . S
C522 C518 1.350 . S
C522 C519 1.463 . S
C522 N526 1.427 . S
C523 H513 0.929 . S
C523 C521 1.433 . S
C523 N526 1.384 . S
C524 H515 0.929 . S
C524 C516 1.378 . S
C524 C519 1.350 . S
C525 H512 0.929 . S
C525 C517 1.433 . S
C525 N527 1.384 . S
N526 C522 1.427 . S
N526 C523 1.384 . S
N527 C519 1.427 . S
N527 C525 1.384 . S
H528 C534 0.930 . S
H529 C538 0.930 . S
H530 C543 0.929 . S
H531 C541 0.929 . S
H532 C536 0.929 . S
H533 C542 0.929 . S
C534 H528 0.930 . S
C534 C535 1.367 . S
C534 C542 1.378 . S
C535 C534 1.367 . S
C535 C543 1.433 . S
C536 H532 0.929 . S
C536 C538 1.378 . S
C536 C540 1.350 . S
C537 C540 1.463 . S
C537 C542 1.350 . S
C537 N545 1.427 . S
C538 H529 0.930 . S
C538 C536 1.378 . S
C538 C539 1.367 . S
C539 C538 1.367 . S
C539 C541 1.433 . S
C540 C536 1.350 . S
C540 C537 1.463 . S
C540 N544 1.427 . S
C541 H531 0.929 . S
C541 C539 1.433 . S
C541 N544 1.384 . S
C542 H533 0.929 . S
C542 C534 1.378 . S
C542 C537 1.350 . S
C543 H530 0.929 . S
C543 C535 1.433 . S
C543 N545 1.384 . S
N544 C540 1.427 . S
N544 C541 1.384 . S
N545 C537 1.427 . S
N545 C543 1.384 . S
H546 C552 0.930 . S
H547 C556 0.930 . S
H548 C561 0.929 . S
H549 C559 0.929 . S
H550 C554 0.929 . S
H551 C560 0.929 . S
C552 H546 0.930 . S
C552 C553 1.367 . S
C552 C560 1.378 . S
C553 C552 1.367 . S
C553 C561 1.433 . S
C554 H550 0.929 . S
C554 C556 1.378 . S
C554 C558 1.350 . S
C555 C558 1.463 . S
C555 C560 1.350 . S
C555 N563 1.427 . S
C556 H547 0.930 . S
C556 C554 1.378 . S
C556 C557 1.367 . S
C557 C556 1.367 . S
C557 C559 1.433 . S
C558 C554 1.350 . S
C558 C555 1.463 . S
C558 N562 1.427 . S
C559 H549 0.929 . S
C559 C557 1.433 . S
C559 N562 1.384 . S
C560 H551 0.929 . S
C560 C552 1.378 . S
C560 C555 1.350 . S
C561 H548 0.929 . S
C561 C553 1.433 . S
C561 N563 1.384 . S
N562 C558 1.427 . S
N562 C559 1.384 . S
N563 C555 1.427 . S
N563 C561 1.384 . S
H564 C570 0.930 . S
H565 C574 0.930 . S
H566 C579 0.929 . S
H567 C577 0.929 . S
H568 C572 0.929 . S
H569 C578 0.929 . S
C570 H564 0.930 . S
C570 C571 1.367 . S
C570 C578 1.378 . S
C571 C570 1.367 . S
C571 C579 1.433 . S
C572 H568 0.929 . S
C572 C574 1.378 . S
C572 C576 1.350 . S
C573 C576 1.463 . S
C573 C578 1.350 . S
C573 N581 1.427 . S
C574 H565 0.930 . S
C574 C572 1.378 . S
C574 C575 1.367 . S
C575 C574 1.367 . S
C575 C577 1.433 . S
C576 C572 1.350 . S
C576 C573 1.463 . S
C576 N580 1.427 . S
C577 H567 0.929 . S
C577 C575 1.433 . S
C577 N580 1.384 . S
C578 H569 0.929 . S
C578 C570 1.378 . S
C578 C573 1.350 . S
C579 H566 0.929 . S
C579 C571 1.433 . S
C579 N581 1.384 . S
N580 C576 1.427 . S
N580 C577 1.384 . S
N581 C573 1.427 . S
N581 C579 1.384 . S
H582 C588 0.930 . S
H583 C592 0.930 . S
H584 C597 0.929 . S
H585 C595 0.929 . S
H586 C590 0.929 . S
H587 C596 0.929 . S
C588 H582 0.930 . S
C588 C589 1.367 . S
C588 C596 1.378 . S
C589 C588 1.367 . S
C589 C597 1.433 . S
C590 H586 0.929 . S
C590 C592 1.378 . S
C590 C594 1.350 . S
C591 C594 1.463 . S
C591 C596 1.350 . S
C591 N599 1.427 . S
C592 H583 0.930 . S
C592 C590 1.378 . S
C592 C593 1.367 . S
C593 C592 1.367 . S
C593 C595 1.433 . S
C594 C590 1.350 . S
C594 C591 1.463 . S
C594 N598 1.427 . S
C595 H585 0.929 . S
C595 C593 1.433 . S
C595 N598 1.384 . S
C596 H587 0.929 . S
C596 C588 1.378 . S
C596 C591 1.350 . S
C597 H584 0.929 . S
C597 C589 1.433 . S
C597 N599 1.384 . S
N598 C594 1.427 . S
N598 C595 1.384 . S
N599 C591 1.427 . S
N599 C597 1.384 . S
C175 C5 1.168 . S
C179 C159 1.162 . S
C193 C89 1.160 . S
C197 C19 1.180 . S
C211 C33 1.156 . S
C215 C103 1.182 . S
C229 C117 1.160 . S
C233 C47 1.180 . S
C247 C131 1.166 . S
C251 C61 1.176 . S
C265 C145 1.155 . S
C269 C75 1.177 . S
C283 C54 1.608 . S
C287 C124 1.604 . S
C301 C68 1.605 . S
C305 C138 1.607 . S
C319 C82 1.606 . S
C323 C152 1.606 . S
C337 C166 1.606 . S
C341 C12 1.606 . S
C355 C26 1.605 . S
C359 C96 1.608 . S
C373 C40 1.608 . S
C377 C110 1.605 . S
C391 C116 1.356 . S
C395 C4 1.356 . S
C409 C130 1.352 . S
C413 C18 1.353 . S
C427 C32 1.345 . S
C431 C144 1.345 . S
C445 C46 1.355 . S
C449 C158 1.355 . S
C463 C60 1.347 . S
C467 C88 1.348 . S
C481 C102 1.346 . S
C485 C74 1.347 . S
C499 C11 1.264 . S
C503 C151 1.259 . S
C517 C165 1.256 . S
C521 C25 1.262 . S
C535 C39 1.257 . S
C539 C95 1.254 . S
C553 C53 1.262 . S
C557 C109 1.257 . S
C571 C67 1.258 . S
C575 C123 1.254 . S
C589 C81 1.260 . S
C593 C137 1.264 . S
