# Generated by pormake.
# Topology wna, (6)-cn, num edge types: 1
# Building blocks:
#     Node 0, Type 0, BuildingBlock: KUMJIN_clean_sbu_1, # of connection points: 6
#     Node 1, Type 0, BuildingBlock: KUMJIN_clean_sbu_1, # of connection points: 6
#     Node 2, Type 0, BuildingBlock: KUMJIN_clean_sbu_1, # of connection points: 6
#     Node 3, Type 0, BuildingBlock: KUMJIN_clean_sbu_1, # of connection points: 6
#     Node 4, Type 0, BuildingBlock: KUMJIN_clean_sbu_1, # of connection points: 6
#     Node 5, Type 0, BuildingBlock: KUMJIN_clean_sbu_1, # of connection points: 6
#     Node 6, Type 0, BuildingBlock: KUMJIN_clean_sbu_1, # of connection points: 6
#     Node 7, Type 0, BuildingBlock: KUMJIN_clean_sbu_1, # of connection points: 6
#     Node 8, Type 0, BuildingBlock: KUMJIN_clean_sbu_1, # of connection points: 6
#     Node 9, Type 0, BuildingBlock: KUMJIN_clean_sbu_1, # of connection points: 6
#     Node 10, Type 0, BuildingBlock: KUMJIN_clean_sbu_1, # of connection points: 6
#     Node 11, Type 0, BuildingBlock: KUMJIN_clean_sbu_1, # of connection points: 6
#     Node 12, Type 0, BuildingBlock: KUMJIN_clean_sbu_1, # of connection points: 6
#     Node 13, Type 0, BuildingBlock: KUMJIN_clean_sbu_1, # of connection points: 6
#     Node 14, Type 0, BuildingBlock: KUMJIN_clean_sbu_1, # of connection points: 6
#     Node 15, Type 0, BuildingBlock: KUMJIN_clean_sbu_1, # of connection points: 6
#     Node 16, Type 0, BuildingBlock: KUMJIN_clean_sbu_1, # of connection points: 6
#     Node 17, Type 0, BuildingBlock: KUMJIN_clean_sbu_1, # of connection points: 6
#     Node 18, Type 0, BuildingBlock: KUMJIN_clean_sbu_1, # of connection points: 6
#     Node 19, Type 0, BuildingBlock: KUMJIN_clean_sbu_1, # of connection points: 6
#     Node 20, Type 0, BuildingBlock: KUMJIN_clean_sbu_1, # of connection points: 6
#     Node 21, Type 0, BuildingBlock: KUMJIN_clean_sbu_1, # of connection points: 6
#     Node 22, Type 0, BuildingBlock: KUMJIN_clean_sbu_1, # of connection points: 6
#     Node 23, Type 0, BuildingBlock: KUMJIN_clean_sbu_1, # of connection points: 6
#     Node 24, Type 0, BuildingBlock: KUMJIN_clean_sbu_1, # of connection points: 6
#     Node 25, Type 0, BuildingBlock: KUMJIN_clean_sbu_1, # of connection points: 6
#     Node 26, Type 0, BuildingBlock: KUMJIN_clean_sbu_1, # of connection points: 6
#     Node 27, Type 0, BuildingBlock: KUMJIN_clean_sbu_1, # of connection points: 6
#     Node 28, Type 0, BuildingBlock: KUMJIN_clean_sbu_1, # of connection points: 6
#     Node 29, Type 0, BuildingBlock: KUMJIN_clean_sbu_1, # of connection points: 6
#     Node 30, Type 0, BuildingBlock: KUMJIN_clean_sbu_1, # of connection points: 6
#     Node 31, Type 0, BuildingBlock: KUMJIN_clean_sbu_1, # of connection points: 6
#     Node 32, Type 0, BuildingBlock: KUMJIN_clean_sbu_1, # of connection points: 6
#     Node 33, Type 0, BuildingBlock: KUMJIN_clean_sbu_1, # of connection points: 6
#     Node 34, Type 0, BuildingBlock: KUMJIN_clean_sbu_1, # of connection points: 6
#     Node 35, Type 0, BuildingBlock: KUMJIN_clean_sbu_1, # of connection points: 6
#     Edge 36, Type (0, 0), BuildingBlock: AJUNOK_clean_linker_0, # of connection points: 2
#     Edge 37, Type (0, 0), BuildingBlock: AJUNOK_clean_linker_0, # of connection points: 2
#     Edge 38, Type (0, 0), BuildingBlock: AJUNOK_clean_linker_0, # of connection points: 2
#     Edge 39, Type (0, 0), BuildingBlock: AJUNOK_clean_linker_0, # of connection points: 2
#     Edge 40, Type (0, 0), BuildingBlock: AJUNOK_clean_linker_0, # of connection points: 2
#     Edge 41, Type (0, 0), BuildingBlock: AJUNOK_clean_linker_0, # of connection points: 2
#     Edge 42, Type (0, 0), BuildingBlock: AJUNOK_clean_linker_0, # of connection points: 2
#     Edge 43, Type (0, 0), BuildingBlock: AJUNOK_clean_linker_0, # of connection points: 2
#     Edge 44, Type (0, 0), BuildingBlock: AJUNOK_clean_linker_0, # of connection points: 2
#     Edge 45, Type (0, 0), BuildingBlock: AJUNOK_clean_linker_0, # of connection points: 2
#     Edge 46, Type (0, 0), BuildingBlock: AJUNOK_clean_linker_0, # of connection points: 2
#     Edge 47, Type (0, 0), BuildingBlock: AJUNOK_clean_linker_0, # of connection points: 2
#     Edge 48, Type (0, 0), BuildingBlock: AJUNOK_clean_linker_0, # of connection points: 2
#     Edge 49, Type (0, 0), BuildingBlock: AJUNOK_clean_linker_0, # of connection points: 2
#     Edge 50, Type (0, 0), BuildingBlock: AJUNOK_clean_linker_0, # of connection points: 2
#     Edge 51, Type (0, 0), BuildingBlock: AJUNOK_clean_linker_0, # of connection points: 2
#     Edge 52, Type (0, 0), BuildingBlock: AJUNOK_clean_linker_0, # of connection points: 2
#     Edge 53, Type (0, 0), BuildingBlock: AJUNOK_clean_linker_0, # of connection points: 2
#     Edge 54, Type (0, 0), BuildingBlock: AJUNOK_clean_linker_0, # of connection points: 2
#     Edge 55, Type (0, 0), BuildingBlock: AJUNOK_clean_linker_0, # of connection points: 2
#     Edge 56, Type (0, 0), BuildingBlock: AJUNOK_clean_linker_0, # of connection points: 2
#     Edge 57, Type (0, 0), BuildingBlock: AJUNOK_clean_linker_0, # of connection points: 2
#     Edge 58, Type (0, 0), BuildingBlock: AJUNOK_clean_linker_0, # of connection points: 2
#     Edge 59, Type (0, 0), BuildingBlock: AJUNOK_clean_linker_0, # of connection points: 2
#     Edge 60, Type (0, 0), BuildingBlock: AJUNOK_clean_linker_0, # of connection points: 2
#     Edge 61, Type (0, 0), BuildingBlock: AJUNOK_clean_linker_0, # of connection points: 2
#     Edge 62, Type (0, 0), BuildingBlock: AJUNOK_clean_linker_0, # of connection points: 2
#     Edge 63, Type (0, 0), BuildingBlock: AJUNOK_clean_linker_0, # of connection points: 2
#     Edge 64, Type (0, 0), BuildingBlock: AJUNOK_clean_linker_0, # of connection points: 2
#     Edge 65, Type (0, 0), BuildingBlock: AJUNOK_clean_linker_0, # of connection points: 2
#     Edge 66, Type (0, 0), BuildingBlock: AJUNOK_clean_linker_0, # of connection points: 2
#     Edge 67, Type (0, 0), BuildingBlock: AJUNOK_clean_linker_0, # of connection points: 2
#     Edge 68, Type (0, 0), BuildingBlock: AJUNOK_clean_linker_0, # of connection points: 2
#     Edge 69, Type (0, 0), BuildingBlock: AJUNOK_clean_linker_0, # of connection points: 2
#     Edge 70, Type (0, 0), BuildingBlock: AJUNOK_clean_linker_0, # of connection points: 2
#     Edge 71, Type (0, 0), BuildingBlock: AJUNOK_clean_linker_0, # of connection points: 2
#     Edge 72, Type (0, 0), BuildingBlock: AJUNOK_clean_linker_0, # of connection points: 2
#     Edge 73, Type (0, 0), BuildingBlock: AJUNOK_clean_linker_0, # of connection points: 2
#     Edge 74, Type (0, 0), BuildingBlock: AJUNOK_clean_linker_0, # of connection points: 2
#     Edge 75, Type (0, 0), BuildingBlock: AJUNOK_clean_linker_0, # of connection points: 2
#     Edge 76, Type (0, 0), BuildingBlock: AJUNOK_clean_linker_0, # of connection points: 2
#     Edge 77, Type (0, 0), BuildingBlock: AJUNOK_clean_linker_0, # of connection points: 2
#     Edge 78, Type (0, 0), BuildingBlock: AJUNOK_clean_linker_0, # of connection points: 2
#     Edge 79, Type (0, 0), BuildingBlock: AJUNOK_clean_linker_0, # of connection points: 2
#     Edge 80, Type (0, 0), BuildingBlock: AJUNOK_clean_linker_0, # of connection points: 2
#     Edge 81, Type (0, 0), BuildingBlock: AJUNOK_clean_linker_0, # of connection points: 2
#     Edge 82, Type (0, 0), BuildingBlock: AJUNOK_clean_linker_0, # of connection points: 2
#     Edge 83, Type (0, 0), BuildingBlock: AJUNOK_clean_linker_0, # of connection points: 2
#     Edge 84, Type (0, 0), BuildingBlock: AJUNOK_clean_linker_0, # of connection points: 2
#     Edge 85, Type (0, 0), BuildingBlock: AJUNOK_clean_linker_0, # of connection points: 2
#     Edge 86, Type (0, 0), BuildingBlock: AJUNOK_clean_linker_0, # of connection points: 2
#     Edge 87, Type (0, 0), BuildingBlock: AJUNOK_clean_linker_0, # of connection points: 2
#     Edge 88, Type (0, 0), BuildingBlock: AJUNOK_clean_linker_0, # of connection points: 2
#     Edge 89, Type (0, 0), BuildingBlock: AJUNOK_clean_linker_0, # of connection points: 2
#     Edge 90, Type (0, 0), BuildingBlock: AJUNOK_clean_linker_0, # of connection points: 2
#     Edge 91, Type (0, 0), BuildingBlock: AJUNOK_clean_linker_0, # of connection points: 2
#     Edge 92, Type (0, 0), BuildingBlock: AJUNOK_clean_linker_0, # of connection points: 2
#     Edge 93, Type (0, 0), BuildingBlock: AJUNOK_clean_linker_0, # of connection points: 2
#     Edge 94, Type (0, 0), BuildingBlock: AJUNOK_clean_linker_0, # of connection points: 2
#     Edge 95, Type (0, 0), BuildingBlock: AJUNOK_clean_linker_0, # of connection points: 2
#     Edge 96, Type (0, 0), BuildingBlock: AJUNOK_clean_linker_0, # of connection points: 2
#     Edge 97, Type (0, 0), BuildingBlock: AJUNOK_clean_linker_0, # of connection points: 2
#     Edge 98, Type (0, 0), BuildingBlock: AJUNOK_clean_linker_0, # of connection points: 2
#     Edge 99, Type (0, 0), BuildingBlock: AJUNOK_clean_linker_0, # of connection points: 2
#     Edge 100, Type (0, 0), BuildingBlock: AJUNOK_clean_linker_0, # of connection points: 2
#     Edge 101, Type (0, 0), BuildingBlock: AJUNOK_clean_linker_0, # of connection points: 2
#     Edge 102, Type (0, 0), BuildingBlock: AJUNOK_clean_linker_0, # of connection points: 2
#     Edge 103, Type (0, 0), BuildingBlock: AJUNOK_clean_linker_0, # of connection points: 2
#     Edge 104, Type (0, 0), BuildingBlock: AJUNOK_clean_linker_0, # of connection points: 2
#     Edge 105, Type (0, 0), BuildingBlock: AJUNOK_clean_linker_0, # of connection points: 2
#     Edge 106, Type (0, 0), BuildingBlock: AJUNOK_clean_linker_0, # of connection points: 2
#     Edge 107, Type (0, 0), BuildingBlock: AJUNOK_clean_linker_0, # of connection points: 2
#     Edge 108, Type (0, 0), BuildingBlock: AJUNOK_clean_linker_0, # of connection points: 2
#     Edge 109, Type (0, 0), BuildingBlock: AJUNOK_clean_linker_0, # of connection points: 2
#     Edge 110, Type (0, 0), BuildingBlock: AJUNOK_clean_linker_0, # of connection points: 2
#     Edge 111, Type (0, 0), BuildingBlock: AJUNOK_clean_linker_0, # of connection points: 2
#     Edge 112, Type (0, 0), BuildingBlock: AJUNOK_clean_linker_0, # of connection points: 2
#     Edge 113, Type (0, 0), BuildingBlock: AJUNOK_clean_linker_0, # of connection points: 2
#     Edge 114, Type (0, 0), BuildingBlock: AJUNOK_clean_linker_0, # of connection points: 2
#     Edge 115, Type (0, 0), BuildingBlock: AJUNOK_clean_linker_0, # of connection points: 2
#     Edge 116, Type (0, 0), BuildingBlock: AJUNOK_clean_linker_0, # of connection points: 2
#     Edge 117, Type (0, 0), BuildingBlock: AJUNOK_clean_linker_0, # of connection points: 2
#     Edge 118, Type (0, 0), BuildingBlock: AJUNOK_clean_linker_0, # of connection points: 2
#     Edge 119, Type (0, 0), BuildingBlock: AJUNOK_clean_linker_0, # of connection points: 2
#     Edge 120, Type (0, 0), BuildingBlock: AJUNOK_clean_linker_0, # of connection points: 2
#     Edge 121, Type (0, 0), BuildingBlock: AJUNOK_clean_linker_0, # of connection points: 2
#     Edge 122, Type (0, 0), BuildingBlock: AJUNOK_clean_linker_0, # of connection points: 2
#     Edge 123, Type (0, 0), BuildingBlock: AJUNOK_clean_linker_0, # of connection points: 2
#     Edge 124, Type (0, 0), BuildingBlock: AJUNOK_clean_linker_0, # of connection points: 2
#     Edge 125, Type (0, 0), BuildingBlock: AJUNOK_clean_linker_0, # of connection points: 2
#     Edge 126, Type (0, 0), BuildingBlock: AJUNOK_clean_linker_0, # of connection points: 2
#     Edge 127, Type (0, 0), BuildingBlock: AJUNOK_clean_linker_0, # of connection points: 2
#     Edge 128, Type (0, 0), BuildingBlock: AJUNOK_clean_linker_0, # of connection points: 2
#     Edge 129, Type (0, 0), BuildingBlock: AJUNOK_clean_linker_0, # of connection points: 2
#     Edge 130, Type (0, 0), BuildingBlock: AJUNOK_clean_linker_0, # of connection points: 2
#     Edge 131, Type (0, 0), BuildingBlock: AJUNOK_clean_linker_0, # of connection points: 2
#     Edge 132, Type (0, 0), BuildingBlock: AJUNOK_clean_linker_0, # of connection points: 2
#     Edge 133, Type (0, 0), BuildingBlock: AJUNOK_clean_linker_0, # of connection points: 2
#     Edge 134, Type (0, 0), BuildingBlock: AJUNOK_clean_linker_0, # of connection points: 2
#     Edge 135, Type (0, 0), BuildingBlock: AJUNOK_clean_linker_0, # of connection points: 2
#     Edge 136, Type (0, 0), BuildingBlock: AJUNOK_clean_linker_0, # of connection points: 2
#     Edge 137, Type (0, 0), BuildingBlock: AJUNOK_clean_linker_0, # of connection points: 2
#     Edge 138, Type (0, 0), BuildingBlock: AJUNOK_clean_linker_0, # of connection points: 2
#     Edge 139, Type (0, 0), BuildingBlock: AJUNOK_clean_linker_0, # of connection points: 2
#     Edge 140, Type (0, 0), BuildingBlock: AJUNOK_clean_linker_0, # of connection points: 2
#     Edge 141, Type (0, 0), BuildingBlock: AJUNOK_clean_linker_0, # of connection points: 2
#     Edge 142, Type (0, 0), BuildingBlock: AJUNOK_clean_linker_0, # of connection points: 2
#     Edge 143, Type (0, 0), BuildingBlock: AJUNOK_clean_linker_0, # of connection points: 2
# Relax obj value: 0.171
# Max RMSD: 0.266
# Mean RMSD: 0.239
data_MOF--net-wna--node1-KUMJIN_clean_sbu_1--edge1-AJUNOK_clean_linker_0
_symmetry_space_group_name_H-M    P1
_symmetry_Int_Tables_number       1
_symmetry_cell_setting            triclinic
loop_
_symmetry_equiv_pos_as_xyz
'x, y, z'
_cell_length_a     30.253419
_cell_length_b     30.24693
_cell_length_c     123.60947
_cell_angle_alpha  89.989235
_cell_angle_beta   90.017289
_cell_angle_gamma 119.99136
loop_
_atom_site_label
_atom_site_type_symbol
_atom_site_fract_x
_atom_site_fract_y
_atom_site_fract_z
_atom_type_partial_charge
Eu0 Eu 0.13231 0.25225 0.1897 0.0
C1 C 0.05612 0.18534 0.13982 0.0
N2 N 0.09892 0.19166 0.14474 0.0
C3 C 0.09436 0.12202 0.1347 0.0
C4 C 0.0291 0.14506 0.13245 0.0
C5 C 0.11931 0.16194 0.14206 0.0
C6 C 0.04859 0.11288 0.12999 0.0
C7 C 0.99614 0.21505 0.13685 0.0
C8 C 0.0408 0.2208 0.14176 0.0
C9 C 0.96761 0.17356 0.12991 0.0
C10 C 0.98475 0.13938 0.12752 0.0
Eu11 Eu 0.13971 0.26038 0.15681 0.0
N12 N 0.07104 0.26233 0.14795 0.0
C13 C 0.98235 0.25203 0.13883 0.0
C14 C 0.06167 0.30189 0.14842 0.0
C15 C 0.01567 0.29596 0.14458 0.0
H16 H 0.15522 0.16935 0.14549 0.0
H17 H 1.00645 0.32555 0.14602 0.0
H18 H 0.09818 0.34285 0.19328 0.0
H19 H 0.30271 0.26154 0.20681 0.0
H20 H 0.08943 0.33814 0.15171 0.0
H21 H 0.94718 0.24784 0.13562 0.0
H22 H 0.21364 0.22001 0.20029 0.0
H23 H 0.11104 0.09901 0.13259 0.0
H24 H 0.93337 0.16874 0.12602 0.0
H25 H 0.96404 0.10941 0.12167 0.0
H26 H 0.13969 0.43628 0.19488 0.0
H27 H 0.02953 0.08193 0.12425 0.0
H28 H 0.35511 0.35601 0.20717 0.0
N29 N 0.16799 0.34188 0.19244 0.0
C30 C 0.2183 0.36844 0.19516 0.0
C31 C 0.16261 0.41797 0.19465 0.0
C32 C 0.24359 0.42173 0.19683 0.0
C33 C 0.13929 0.36507 0.19334 0.0
C34 C 0.21537 0.44673 0.19605 0.0
N35 N 0.21622 0.28986 0.19676 0.0
C36 C 0.23639 0.26111 0.20042 0.0
C37 C 0.29399 0.36704 0.2012 0.0
C38 C 0.24307 0.34155 0.1975 0.0
C39 C 0.3161 0.33787 0.20428 0.0
C40 C 0.28679 0.28461 0.20409 0.0
H41 H 0.23329 0.48759 0.19726 0.0
H42 H 0.31546 0.48877 0.20105 0.0
H43 H 0.35987 0.44085 0.2047 0.0
O44 O 0.12131 0.20573 0.20424 0.0
O45 O 0.20505 0.27065 0.1804 0.0
O46 O 0.20112 0.32113 0.1675 0.0
O47 O 0.08895 0.25427 0.20363 0.0
O48 O 0.13549 0.18375 0.18292 0.0
O49 O 0.15278 0.19794 0.16425 0.0
O50 O 0.16537 0.30126 0.14129 0.0
O51 O 0.06693 0.19004 0.16285 0.0
O52 O 0.06053 0.18953 0.18172 0.0
O53 O 0.21075 0.27284 0.14947 0.0
O54 O 0.12945 0.31976 0.16621 0.0
O55 O 0.07943 0.27338 0.18044 0.0
C56 C 0.22848 0.30824 0.17351 0.0
C57 C 0.11561 0.24324 0.22069 0.0
C58 C 0.09774 0.24398 0.24001 0.0
C59 C 0.14636 0.28754 0.24125 0.0
C60 C 0.16401 0.28608 0.22226 0.0
C61 C 0.17936 0.30782 0.23247 0.0
C62 C 0.08266 0.22196 0.22962 0.0
C63 C 0.14639 0.1718 0.17333 0.0
C64 C 0.09751 0.22428 0.20964 0.0
C65 C 0.29524 0.44776 0.19991 0.0
C66 C 0.32047 0.42047 0.20204 0.0
C67 C 0.04264 0.1702 0.17204 0.0
C68 C 0.24374 0.31608 0.13221 0.0
C69 C 0.26681 0.34077 0.11328 0.0
C70 C 0.31566 0.34797 0.11539 0.0
C71 C 0.29284 0.32353 0.13407 0.0
C72 C 0.23107 0.32554 0.12179 0.0
C73 C 0.32856 0.33964 0.12571 0.0
C74 C 0.09143 0.30851 0.17293 0.0
C75 C 0.20557 0.29591 0.14104 0.0
H76 H 0.15846 0.30726 0.24892 0.0
H77 H 0.18941 0.30391 0.21557 0.0
H78 H 0.21646 0.34153 0.23352 0.0
H79 H 0.045 0.18916 0.2284 0.0
H80 H 0.34416 0.3607 0.10904 0.0
H81 H 0.30365 0.31677 0.14199 0.0
H82 H 0.19329 0.31978 0.12023 0.0
H83 H 0.36639 0.34553 0.12724 0.0
Eu84 Eu 0.76174 0.87566 0.18538 0.0
C85 C 0.8644 0.91663 0.13646 0.0
N86 N 0.83566 0.93371 0.14139 0.0
C87 C 0.8778 0.01159 0.13131 0.0
C88 C 0.90266 0.94761 0.12899 0.0
C89 C 0.83994 0.97925 0.13854 0.0
C90 C 0.90991 0.99606 0.12664 0.0
C91 C 0.87607 0.84519 0.13182 0.0
C92 C 0.85121 0.86592 0.13787 0.0
C93 C 0.91672 0.87696 0.12497 0.0
C94 C 0.92993 0.92806 0.12354 0.0
Eu95 Eu 0.77124 0.87611 0.15307 0.0
N96 N 0.81026 0.83556 0.14417 0.0
C97 C 0.85724 0.79254 0.1323 0.0
C98 C 0.7895 0.78379 0.14408 0.0
C99 C 0.81324 0.76164 0.13829 0.0
H100 H 0.81418 0.9906 0.14196 0.0
H101 H 0.79836 0.72095 0.1386 0.0
H102 H 0.65214 0.76312 0.18568 0.0
H103 H 0.80014 0.06478 0.19861 0.0
H104 H 0.75526 0.75982 0.14866 0.0
H105 H 0.87535 0.77516 0.1278 0.0
H106 H 0.82205 1.00315 0.1911 0.0
H107 H 0.88142 0.04795 0.12919 0.0
H108 H 0.93673 0.86184 0.12038 0.0
H109 H 0.95992 0.95154 0.11787 0.0
H110 H 0.56244 0.72912 0.19092 0.0
H111 H 0.93831 0.02048 0.1208 0.0
H112 H 0.71191 0.03592 0.20466 0.0
N113 N 0.67439 0.83989 0.18944 0.0
C114 C 0.66083 0.87194 0.19421 0.0
C115 C 0.5895 0.76949 0.19173 0.0
C116 C 0.61008 0.85389 0.19759 0.0
C117 C 0.64016 0.78905 0.1885 0.0
C118 C 0.57428 0.8021 0.19622 0.0
N119 N 0.74624 0.93995 0.1921 0.0
C120 C 0.78299 0.99 0.19328 0.0
C121 C 0.68374 0.95747 0.20003 0.0
C122 C 0.69752 0.92328 0.19548 0.0
C123 C 0.7211 1.00882 0.2011 0.0
C124 C 0.77088 0.02517 0.1977 0.0
H125 H 0.53499 0.78679 0.19874 0.0
H126 H 0.55771 0.87478 0.20476 0.0
H127 H 0.62205 0.96542 0.20684 0.0
O128 O 0.79024 0.90026 0.2019 0.0
O129 O 0.70429 0.87981 0.17389 0.0
O130 O 0.75283 0.93339 0.16064 0.0
O131 O 0.75899 0.82136 0.19735 0.0
O132 O 0.83118 0.94757 0.17895 0.0
O133 O 0.82882 0.95515 0.16015 0.0
O134 O 0.69497 0.85732 0.14733 0.0
O135 O 0.81525 0.84437 0.16239 0.0
O136 O 0.83701 0.88769 0.17865 0.0
O137 O 0.75083 0.8619 0.13593 0.0
O138 O 0.71108 0.80129 0.16125 0.0
O139 O 0.7423 0.79884 0.17815 0.0
C140 C 0.71724 0.92071 0.16798 0.0
C141 C 0.75116 0.83817 0.21574 0.0
C142 C 0.75587 0.82682 0.23526 0.0
C143 C 0.70212 0.79838 0.23556 0.0
C144 C 0.69774 0.81078 0.21636 0.0
C145 C 0.67346 0.79124 0.22622 0.0
C146 C 0.78004 0.84692 0.22524 0.0
C147 C 0.84922 0.97336 0.1698 0.0
C148 C 0.77729 0.85453 0.20519 0.0
C149 C 0.59654 0.88795 0.20216 0.0
C150 C 0.63321 0.93957 0.20335 0.0
C151 C 0.84717 0.86576 0.17056 0.0
C152 C 0.69398 0.88736 0.12935 0.0
C153 C 0.68628 0.90996 0.11059 0.0
C154 C 0.67714 0.94819 0.11458 0.0
C155 C 0.68474 0.92592 0.13305 0.0
C156 C 0.69424 0.87921 0.11806 0.0
C157 C 0.67611 0.95583 0.1257 0.0
C158 C 0.71501 0.77573 0.16952 0.0
C159 C 0.70625 0.8575 0.13711 0.0
H160 H 0.68194 0.77983 0.24291 0.0
H161 H 0.6747 0.80315 0.2092 0.0
H162 H 0.63221 0.76906 0.22656 0.0
H163 H 0.82133 0.8682 0.22473 0.0
H164 H 0.67091 0.97236 0.10905 0.0
H165 H 0.68482 0.93347 0.14162 0.0
H166 H 0.70209 0.8501 0.11509 0.0
H167 H 0.66923 0.98557 0.12863 0.0
Eu168 Eu 0.14235 0.8917 0.18759 0.0
C169 C 0.15201 0.97757 0.14033 0.0
N170 N 0.1146 0.93504 0.14518 0.0
C171 C 0.05078 0.94995 0.13738 0.0
C172 C 0.14014 0.00913 0.13404 0.0
C173 C 0.06442 0.92006 0.14357 0.0
C174 C 0.0887 0.99453 0.13255 0.0
C175 C 0.24172 0.03181 0.13624 0.0
C176 C 0.20201 0.98812 0.14129 0.0
C177 C 0.23047 0.06493 0.13045 0.0
C178 C 0.17972 0.05324 0.12922 0.0
Eu179 Eu 0.13997 0.88537 0.1552 0.0
N180 N 0.21138 0.95397 0.14649 0.0
C181 C 0.29137 0.03992 0.13685 0.0
C182 C 0.25855 0.95865 0.14584 0.0
C183 C 0.2996 1.00274 0.14156 0.0
H184 H 0.03475 0.88474 0.14696 0.0
H185 H 0.3373 1.00747 0.14182 0.0
H186 H 0.26485 0.91712 0.191 0.0
H187 H 0.96997 0.72502 0.20252 0.0
H188 H 0.26495 0.92847 0.14853 0.0
H189 H 0.32306 0.07362 0.13332 0.0
H190 H 0.02318 0.81391 0.19599 0.0
H191 H 1.01104 0.93829 0.13628 0.0
H192 H 0.26056 0.0987 0.12655 0.0
H193 H 0.17152 0.07811 0.12437 0.0
H194 H 0.3105 0.86963 0.19326 0.0
H195 H 0.07762 0.01646 0.12746 0.0
H196 H 1.00788 0.66934 0.20443 0.0
N197 N 0.19098 0.85077 0.19093 0.0
C198 C 0.16395 0.8007 0.19386 0.0
C199 C 0.26918 0.84943 0.19316 0.0
C200 C 0.1885 0.77218 0.19577 0.0
C201 C 0.24305 0.87609 0.1915 0.0
C202 C 0.24172 0.79691 0.19502 0.0
N203 N 0.08973 0.80776 0.19419 0.0
C204 C 0.03984 0.78976 0.19694 0.0
C205 C 0.08307 0.72785 0.1993 0.0
C206 C 0.11198 0.77878 0.19573 0.0
C207 C 0.03126 0.70823 0.20162 0.0
C208 C 1.00974 0.73955 0.20058 0.0
H209 H 0.26205 0.77643 0.19644 0.0
H210 H 0.17765 0.69801 0.20019 0.0
H211 H 0.08519 0.65908 0.2032 0.0
O212 O 0.10632 0.90948 0.20108 0.0
O213 O 0.09058 0.81909 0.17798 0.0
O214 O 0.14322 0.82269 0.16473 0.0
O215 O 0.18377 0.92599 0.20248 0.0
O216 O 0.07493 0.89667 0.18079 0.0
O217 O 0.06252 0.86112 0.16346 0.0
O218 O 0.15087 0.86259 0.1388 0.0
O219 O 0.1336 0.9518 0.16241 0.0
O220 O 0.17314 0.96858 0.17909 0.0
O221 O 0.07943 0.81692 0.14761 0.0
O222 O 0.21224 0.89583 0.1639 0.0
O223 O 0.21826 0.94286 0.17894 0.0
C224 C 0.10566 0.79539 0.17138 0.0
C225 C 0.13697 0.9046 0.21852 0.0
C226 C 0.15089 0.92172 0.23793 0.0
C227 C 0.13915 0.87083 0.23952 0.0
C228 C 0.12422 0.85391 0.22041 0.0
C229 C 0.12478 0.83702 0.23085 0.0
C230 C 0.14899 0.93801 0.22732 0.0
C231 C 0.047 0.87673 0.17197 0.0
C232 C 0.14557 0.92503 0.20744 0.0
C233 C 0.1595 0.72065 0.19884 0.0
C234 C 0.10689 0.69853 0.2006 0.0
C235 C 0.15525 0.98214 0.17077 0.0
C236 C 0.08317 0.78602 0.12967 0.0
C237 C 0.08352 0.7611 0.11079 0.0
C238 C 0.03624 0.71674 0.11256 0.0
C239 C 0.03582 0.74126 0.13114 0.0
C240 C 0.10736 0.79553 0.11945 0.0
C241 C 1.01273 0.70691 0.12266 0.0
C242 C 0.24021 0.9319 0.17099 0.0
C243 C 0.10503 0.82297 0.13873 0.0
H244 H 0.14304 0.85733 0.24737 0.0
H245 H 0.11603 0.82782 0.21384 0.0
H246 H 0.1162 0.79813 0.23217 0.0
H247 H 0.15893 0.97721 0.22581 0.0
H248 H 0.01772 0.68921 0.10613 0.0
H249 H 0.01631 0.73277 0.13886 0.0
H250 H 0.14379 0.82986 0.11817 0.0
H251 H 0.97636 0.67252 0.1239 0.0
Eu252 Eu 0.25873 0.12371 0.32257 0.0
C253 C 0.16813 0.04146 0.36928 0.0
N254 N 0.18158 0.08657 0.36428 0.0
C255 C 0.10982 0.08746 0.37226 0.0
C256 C 0.12367 0.01687 0.37572 0.0
C257 C 0.1549 0.11107 0.36629 0.0
C258 C 0.09402 0.04014 0.37701 0.0
C259 C 0.18754 0.97474 0.37376 0.0
C260 C 0.2003 0.02107 0.36851 0.0
C261 C 0.14246 0.94943 0.37983 0.0
C262 C 0.11091 0.97069 0.3809 0.0
Eu263 Eu 0.26012 0.12463 0.3548 0.0
N264 N 0.2444 0.04681 0.36274 0.0
C265 C 0.22054 0.95513 0.37276 0.0
C266 C 0.2784 0.02969 0.3625 0.0
C267 C 0.26597 0.9827 0.36703 0.0
H268 H 0.16932 0.14983 0.36375 0.0
H269 H 0.29182 0.9682 0.36616 0.0
H270 H 0.35042 0.09083 0.31881 0.0
H271 H 0.26238 0.29054 0.30495 0.0
H272 H 0.31579 0.05261 0.35913 0.0
H273 H 0.21158 0.91912 0.37647 0.0
H274 H 0.22284 0.20365 0.31259 0.0
H275 H 0.08815 0.10653 0.3734 0.0
H276 H 0.13224 0.91384 0.38389 0.0
H277 H 0.07694 0.95145 0.38587 0.0
H278 H 0.44359 0.13345 0.31677 0.0
H279 H 0.05975 0.02271 0.38192 0.0
H280 H 0.35674 0.34274 0.30334 0.0
N281 N 0.34815 0.16004 0.31957 0.0
C282 C 0.37329 0.20972 0.31631 0.0
C283 C 0.4247 0.15583 0.317 0.0
C284 C 0.42637 0.23554 0.31431 0.0
C285 C 0.372 0.13195 0.31865 0.0
C286 C 0.45239 0.20836 0.31522 0.0
N287 N 0.29362 0.20605 0.31491 0.0
C288 C 0.26386 0.22587 0.31168 0.0
C289 C 0.36947 0.28335 0.30966 0.0
C290 C 0.34514 0.23308 0.31373 0.0
C291 C 0.33936 0.30444 0.30661 0.0
C292 C 0.28626 0.27526 0.30749 0.0
H293 H 0.49308 0.22671 0.31374 0.0
H294 H 0.49196 0.30714 0.3094 0.0
H295 H 0.4422 0.34935 0.30554 0.0
O296 O 0.22503 0.12056 0.30662 0.0
O297 O 0.28 0.19808 0.33153 0.0
O298 O 0.32395 0.19482 0.34613 0.0
O299 O 0.24953 0.06717 0.31055 0.0
O300 O 0.1892 0.12405 0.32933 0.0
O301 O 0.2088 0.15362 0.34709 0.0
O302 O 0.30333 0.13404 0.36966 0.0
O303 O 0.20622 0.04608 0.34695 0.0
O304 O 0.18508 0.06087 0.32983 0.0
O305 O 0.27007 0.18163 0.36697 0.0
O306 O 0.32469 0.11883 0.3464 0.0
O307 O 0.28194 0.07197 0.33154 0.0
C308 C 0.31572 0.2215 0.33883 0.0
C309 C 0.25688 0.09189 0.29244 0.0
C310 C 0.25082 0.06148 0.27391 0.0
C311 C 0.30446 0.09074 0.27312 0.0
C312 C 0.31002 0.12147 0.2914 0.0
C313 C 0.33361 0.1212 0.28174 0.0
C314 C 0.22737 0.06397 0.28356 0.0
C315 C 0.1795 0.14161 0.33829 0.0
C316 C 0.23233 0.08451 0.30303 0.0
C317 C 0.45113 0.28651 0.31078 0.0
C318 C 0.42276 0.31044 0.30851 0.0
C319 C 0.17542 0.03195 0.33847 0.0
C320 C 0.33816 0.21101 0.3797 0.0
C321 C 0.37613 0.24926 0.39724 0.0
C322 C 0.41785 0.28879 0.39171 0.0
C323 C 0.3802 0.25064 0.37439 0.0
C324 C 0.33621 0.2105 0.39111 0.0
C325 C 0.41979 0.28938 0.38039 0.0
C326 C 0.31673 0.08377 0.33911 0.0
C327 C 0.29587 0.16959 0.37361 0.0
H328 H 0.32424 0.0893 0.26595 0.0
H329 H 0.33336 0.14358 0.29812 0.0
H330 H 0.37475 0.14335 0.28104 0.0
H331 H 0.18625 0.04335 0.28437 0.0
H332 H 0.44854 0.31989 0.39613 0.0
H333 H 0.38229 0.25167 0.36563 0.0
H334 H 0.30364 0.17978 0.39521 0.0
H335 H 0.45199 0.32022 0.37626 0.0
Eu336 Eu 0.89116 0.13272 0.32504 0.0
C337 C 0.95991 0.10992 0.37463 0.0
N338 N 0.91317 0.08898 0.36988 0.0
C339 C 0.88197 0.01536 0.38124 0.0
C340 C 0.96977 0.08322 0.38275 0.0
C341 C 0.87386 0.04331 0.37331 0.0
C342 C 0.93034 0.03494 0.38587 0.0
C343 C 0.04277 0.18488 0.37789 0.0
C344 C 0.99591 0.1604 0.37227 0.0
C345 C 0.05366 0.15751 0.38559 0.0
C346 C 0.01727 0.10681 0.38801 0.0
Eu347 Eu 0.90126 0.14088 0.35747 0.0
N348 N 0.98309 0.18699 0.3653 0.0
C349 C 0.07613 0.23696 0.37605 0.0
C350 C 1.01346 0.23859 0.3642 0.0
C351 C 0.06111 0.26405 0.36927 0.0
H352 H 0.836 0.02892 0.36999 0.0
H353 H 0.08587 0.30462 0.36807 0.0
H354 H 0.88395 0.24 0.32416 0.0
H355 H 0.76275 0.94546 0.30731 0.0
H356 H 1.00099 0.2598 0.3593 0.0
H357 H 0.11261 0.25702 0.38015 0.0
H358 H 0.84134 0.01119 0.31615 0.0
H359 H 0.85042 0.97949 0.38397 0.0
H360 H 0.08955 0.17562 0.38994 0.0
H361 H 0.02566 0.08675 0.39421 0.0
H362 H 0.82316 0.26735 0.31856 0.0
H363 H 0.93618 0.0136 0.3922 0.0
H364 H 0.69548 0.96499 0.30212 0.0
N365 N 0.83489 0.16226 0.32014 0.0
C366 C 0.791 0.1279 0.3151 0.0
C367 C 0.81328 0.22785 0.31769 0.0
C368 C 0.75547 0.14204 0.31152 0.0
C369 C 0.84731 0.21209 0.32108 0.0
C370 C 0.76689 0.19255 0.31299 0.0
N371 N 0.81718 0.06626 0.31674 0.0
C372 C 0.81134 0.01955 0.31436 0.0
C373 C 0.73633 0.0421 0.30831 0.0
C374 C 0.78157 0.07844 0.31352 0.0
C375 C 0.72926 0.99352 0.30627 0.0
C376 C 0.76717 0.9824 0.30919 0.0
H377 H 0.74062 0.20489 0.31035 0.0
H378 H 0.68187 0.11554 0.30393 0.0
H379 H 0.66508 0.02802 0.30111 0.0
O380 O 0.90174 0.11294 0.30853 0.0
O381 O 0.83065 0.13274 0.33612 0.0
O382 O 0.82441 0.08309 0.35037 0.0
O383 O 0.94925 0.18961 0.31438 0.0
O384 O 0.88216 0.05867 0.33245 0.0
O385 O 0.87749 0.05993 0.35142 0.0
O386 O 0.84848 0.1663 0.36297 0.0
O387 O 0.97621 0.16929 0.3479 0.0
O388 O 0.9502 0.11791 0.33286 0.0
O389 O 0.89369 0.15351 0.37465 0.0
O390 O 0.91111 0.21177 0.3485 0.0
O391 O 0.9458 0.21177 0.3319 0.0
C392 C 0.80237 0.09351 0.34241 0.0
C393 C 0.93289 0.17951 0.29559 0.0
C394 C 0.96216 0.20262 0.27687 0.0
C395 C 0.93217 0.22617 0.27605 0.0
C396 C 0.90302 0.20273 0.29448 0.0
C397 C 0.90244 0.22559 0.28473 0.0
C398 C 0.96122 0.17825 0.2867 0.0
C399 C 0.87486 0.03675 0.34212 0.0
C400 C 0.93714 0.15901 0.30611 0.0
C401 C 0.70982 0.1055 0.30662 0.0
C402 C 0.70022 0.05564 0.30503 0.0
C403 C 0.98538 0.14522 0.34006 0.0
C404 C 0.8148 0.14207 0.38106 0.0
C405 C 0.78416 0.12789 0.39988 0.0
C406 C 0.73383 0.10515 0.39601 0.0
C407 C 0.764 0.1188 0.37746 0.0
C408 C 0.82459 0.14598 0.39234 0.0
C409 C 0.72393 0.10044 0.3849 0.0
C410 C 0.93963 0.23602 0.34008 0.0
C411 C 0.85793 0.16462 0.37323 0.0
H412 H 0.93242 0.24609 0.26875 0.0
H413 H 0.88079 0.20393 0.30116 0.0
H414 H 0.87969 0.24393 0.28398 0.0
H415 H 0.98269 0.15859 0.28753 0.0
H416 H 0.70203 0.09037 0.40161 0.0
H417 H 0.75513 0.11502 0.3689 0.0
H418 H 0.86359 0.16385 0.39524 0.0
H419 H 0.68496 0.08259 0.38203 0.0
Eu420 Eu 0.87658 0.76398 0.32251 0.0
C421 C 0.87977 0.8354 0.37031 0.0
N422 N 0.91614 0.83245 0.36442 0.0
C423 C 0.97957 0.91483 0.37077 0.0
C424 C 0.89215 0.87894 0.37661 0.0
C425 C 0.96587 0.87062 0.36485 0.0
C426 C 0.94272 0.91911 0.3767 0.0
C427 C 0.79185 0.79626 0.37626 0.0
C428 C 0.83029 0.79434 0.37016 0.0
C429 C 0.80383 0.83985 0.38242 0.0
C430 C 0.85402 0.88069 0.38272 0.0
Eu431 Eu 0.89001 0.75598 0.35476 0.0
N432 N 0.82034 0.75152 0.36457 0.0
C433 C 0.74286 0.75351 0.37633 0.0
C434 C 0.77431 0.70798 0.36578 0.0
C435 C 0.7343 0.70907 0.37111 0.0
H436 H 0.99496 0.86728 0.36053 0.0
H437 H 0.69728 0.67523 0.3713 0.0
H438 H 0.75613 0.66035 0.32218 0.0
H439 H 0.0359 0.79313 0.2977 0.0
H440 H 0.76815 0.67195 0.36275 0.0
H441 H 0.71211 0.75382 0.38074 0.0
H442 H 0.99015 0.81688 0.31102 0.0
H443 H 0.0185 0.9455 0.37065 0.0
H444 H 0.77487 0.8417 0.38723 0.0
H445 H 0.86321 0.91295 0.3879 0.0
H446 H 0.71439 0.5688 0.31853 0.0
H447 H 0.9538 0.95335 0.38137 0.0
H448 H 0.99679 0.70384 0.29139 0.0
N449 N 0.83114 0.67469 0.31883 0.0
C450 C 0.85771 0.65686 0.31315 0.0
C451 C 0.75509 0.59267 0.31729 0.0
C452 C 0.83381 0.60555 0.30963 0.0
C453 C 0.77954 0.64445 0.31996 0.0
C454 C 0.78269 0.57278 0.31232 0.0
N455 N 0.92818 0.74118 0.3126 0.0
C456 C 0.97427 0.77742 0.30862 0.0
C457 C 0.93162 0.67625 0.30208 0.0
C458 C 0.90692 0.6914 0.30963 0.0
C459 C 0.97795 0.71363 0.2976 0.0
C460 C 0.99993 0.76419 0.30106 0.0
H461 H 0.76318 0.53311 0.30984 0.0
H462 H 0.8423 0.55029 0.30004 0.0
H463 H 0.92679 0.61256 0.29304 0.0
O464 O 0.90192 0.81691 0.30856 0.0
O465 O 0.93079 0.7379 0.32955 0.0
O466 O 0.88526 0.69197 0.34411 0.0
O467 O 0.82464 0.75549 0.30944 0.0
O468 O 0.94708 0.83386 0.32934 0.0
O469 O 0.96532 0.80541 0.34545 0.0
O470 O 0.87755 0.71784 0.37053 0.0
O471 O 0.89433 0.8297 0.34855 0.0
O472 O 0.85247 0.81293 0.3321 0.0
O473 O 0.95034 0.74801 0.36273 0.0
O474 O 0.81573 0.69521 0.34656 0.0
O475 O 0.80501 0.73877 0.33266 0.0
C476 C 0.91953 0.70109 0.3366 0.0
C477 C 0.85875 0.77865 0.29198 0.0
C478 C 0.84635 0.78949 0.27275 0.0
C479 C 0.84807 0.74474 0.27048 0.0
C480 C 0.85776 0.73308 0.28938 0.0
C481 C 0.85398 0.71701 0.27874 0.0
C482 C 0.85323 0.80714 0.28358 0.0
C483 C 0.97814 0.83921 0.33746 0.0
C484 C 0.85848 0.79217 0.3035 0.0
C485 C 0.86013 0.58949 0.3028 0.0
C486 C 0.90829 0.62498 0.29882 0.0
C487 C 0.87056 0.84047 0.34096 0.0
C488 C 0.95 0.75247 0.38205 0.0
C489 C 0.95394 0.75113 0.40191 0.0
C490 C 0.99604 0.80077 0.40168 0.0
C491 C 0.99351 0.80146 0.38214 0.0
C492 C 0.9307 0.72695 0.39204 0.0
C493 C 0.01576 0.82549 0.39188 0.0
C494 C 0.78574 0.70521 0.34053 0.0
C495 C 0.92458 0.7286 0.37161 0.0
H496 H 0.84212 0.72942 0.26235 0.0
H497 H 0.85722 0.70836 0.2956 0.0
H498 H 0.85324 0.68162 0.27693 0.0
H499 H 0.85253 0.84168 0.28554 0.0
H500 H 0.01451 0.82005 0.40913 0.0
H501 H 1.01058 0.8214 0.37468 0.0
H502 H 0.89784 0.68877 0.39214 0.0
H503 H 0.04876 0.86337 0.39185 0.0
Eu504 Eu 0.90288 0.76399 0.8553 0.0
C505 C 0.80811 0.65198 0.81649 0.0
N506 N 0.85798 0.67518 0.81955 0.0
C507 C 0.85744 0.59612 0.81706 0.0
C508 C 0.77994 0.59887 0.81453 0.0
C509 C 0.88375 0.64898 0.81865 0.0
C510 C 0.80483 0.5706 0.81539 0.0
C511 C 0.73723 0.66013 0.80972 0.0
C512 C 0.7869 0.68212 0.81403 0.0
C513 C 0.70772 0.60692 0.80862 0.0
C514 C 0.72901 0.5763 0.81105 0.0
Eu515 Eu 0.89872 0.76508 0.82247 0.0
N516 N 0.81617 0.73352 0.81521 0.0
C517 C 0.7196 0.69246 0.80617 0.0
C518 C 0.79956 0.76535 0.81161 0.0
C519 C 0.75109 0.74534 0.80702 0.0
H520 H 0.92486 0.66874 0.81882 0.0
H521 H 0.73818 0.7707 0.80409 0.0
H522 H 0.8663 0.84562 0.86532 0.0
H523 H 0.07459 0.754 0.86423 0.0
H524 H 0.82416 0.80619 0.81219 0.0
H525 H 0.68233 0.67695 0.80246 0.0
H526 H 0.986 0.72081 0.85811 0.0
H527 H 0.878 0.57538 0.81681 0.0
H528 H 0.6691 0.58927 0.80551 0.0
H529 H 0.7066 0.53549 0.80971 0.0
H530 H 0.90348 0.9243 0.87597 0.0
H531 H 0.78464 0.5298 0.81396 0.0
H532 H 0.11921 0.83568 0.8741 0.0
N533 N 0.93465 0.84134 0.8651 0.0
C534 C 0.98193 0.85953 0.86952 0.0
C535 C 0.92615 0.90689 0.87415 0.0
C536 C 1.00378 0.90366 0.87608 0.0
C537 C 0.90563 0.86266 0.86787 0.0
C538 C 0.97559 0.92786 0.87817 0.0
N539 N 0.98442 0.7879 0.86236 0.0
C540 C 1.00651 0.75826 0.86161 0.0
C541 C 0.0565 0.85055 0.87259 0.0
C542 C 1.00755 0.8324 0.86807 0.0
C543 C 0.08121 0.82249 0.87095 0.0
C544 C 0.05601 0.77613 0.86545 0.0
H545 H 0.99109 0.96186 0.88315 0.0
H546 H 0.06935 0.9551 0.88571 0.0
H547 H 0.11648 0.90986 0.88224 0.0
O548 O 0.89886 0.72194 0.87006 0.0
O549 O 0.97987 0.81486 0.84682 0.0
O550 O 0.96446 0.83607 0.82976 0.0
O551 O 0.84568 0.74901 0.86779 0.0
O552 O 0.90578 0.69838 0.84679 0.0
O553 O 0.94952 0.73984 0.83138 0.0
O554 O 0.91112 0.81001 0.80769 0.0
O555 O 0.82594 0.745 0.83192 0.0
O556 O 0.83262 0.70188 0.8464 0.0
O557 O 0.94252 0.76067 0.80874 0.0
O558 O 0.89853 0.83499 0.82953 0.0
O559 O 0.87733 0.8179 0.84793 0.0
C560 C 0.99226 0.84676 0.8386 0.0
C561 C 0.8238 0.6835 0.8809 0.0
C562 C 0.78977 0.64783 0.89884 0.0
C563 C 0.75182 0.60326 0.89376 0.0
C564 C 0.78583 0.63864 0.87605 0.0
C565 C 0.74998 0.5988 0.88248 0.0
C566 C 0.82552 0.68807 0.89228 0.0
C567 C 0.93752 0.70442 0.83888 0.0
C568 C 0.86186 0.72628 0.87431 0.0
C569 C 0.05231 0.92145 0.88062 0.0
C570 C 0.07898 0.89554 0.87872 0.0
C571 C 0.80451 0.7108 0.83961 0.0
C572 C 0.91946 0.77441 0.79126 0.0
C573 C 0.94095 0.7779 0.77199 0.0
C574 C 0.88898 0.74451 0.76976 0.0
C575 C 0.8681 0.74073 0.78876 0.0
C576 C 0.9559 0.79249 0.78286 0.0
C577 C 0.85303 0.72599 0.77808 0.0
C578 C 0.8861 0.84595 0.83907 0.0
C579 C 0.9353 0.79114 0.80256 0.0
H580 H 0.72302 0.5721 0.89852 0.0
H581 H 0.78383 0.63459 0.86732 0.0
H582 H 0.72044 0.56434 0.8787 0.0
H583 H 0.85494 0.7228 0.89602 0.0
H584 H 0.87595 0.73296 0.76154 0.0
H585 H 0.8395 0.72584 0.79502 0.0
H586 H 0.99578 0.81736 0.78483 0.0
H587 H 0.8132 0.70024 0.77625 0.0
Eu588 Eu 0.26372 0.13685 0.85545 0.0
C589 C 0.37312 0.15966 0.81656 0.0
N590 N 0.35263 0.18838 0.82002 0.0
C591 C 0.435 0.26398 0.81872 0.0
C592 C 0.42619 0.18175 0.81492 0.0
C593 C 0.38214 0.24038 0.8201 0.0
C594 C 0.45734 0.23436 0.81643 0.0
C595 C 0.36051 0.07829 0.81003 0.0
C596 C 0.34072 0.1086 0.81398 0.0
C597 C 0.4135 0.09957 0.80896 0.0
C598 C 0.44625 0.15116 0.8114 0.0
Eu599 Eu 0.26269 0.14266 0.82287 0.0
N600 N 0.28965 0.08835 0.81542 0.0
C601 C 0.32636 0.02757 0.80719 0.0
C602 C 0.25593 0.03961 0.81226 0.0
C603 C 0.27382 1.00828 0.8082 0.0
H604 H 0.36523 0.26421 0.82085 0.0
H605 H 0.24714 0.96933 0.80589 0.0
H606 H 0.15038 0.03175 0.86086 0.0
H607 H 0.33819 0.33332 0.86889 0.0
H608 H 0.21536 0.02477 0.81318 0.0
H609 H 0.34024 1.00338 0.80403 0.0
H610 H 0.34489 0.2617 0.86194 0.0
H611 H 0.45831 0.30513 0.81917 0.0
H612 H 0.42946 0.07668 0.80607 0.0
H613 H 0.48697 0.16739 0.81025 0.0
H614 H 0.07201 0.00941 0.87068 0.0
H615 H 0.49825 0.2528 0.81524 0.0
H616 H 0.25861 0.31842 0.87797 0.0
N617 N 0.1858 0.11113 0.86446 0.0
C618 C 0.1824 0.14802 0.87004 0.0
C619 C 0.10291 0.04829 0.87069 0.0
C620 C 0.13846 0.13613 0.87616 0.0
C621 C 0.14712 0.06159 0.86483 0.0
C622 C 0.09908 0.0853 0.87661 0.0
N623 N 0.26596 0.20779 0.86412 0.0
C624 C 0.30837 0.25497 0.86477 0.0
C625 C 0.21917 0.23723 0.87487 0.0
C626 C 0.22274 0.19789 0.86953 0.0
C627 C 0.26053 0.28695 0.87429 0.0
C628 C 0.30544 0.29563 0.86927 0.0
H629 H 0.06578 0.07381 0.88158 0.0
H630 H 0.10149 0.16683 0.88622 0.0
H631 H 0.1717 0.25554 0.88489 0.0
O632 O 0.29951 0.15341 0.87156 0.0
O633 O 0.19329 0.13554 0.84795 0.0
O634 O 0.21667 0.17421 0.83111 0.0
O635 O 0.271 0.0789 0.86462 0.0
O636 O 0.32726 0.20794 0.84679 0.0
O637 O 0.28913 0.21842 0.83173 0.0
O638 O 0.20356 0.11561 0.8103 0.0
O639 O 0.28088 0.08752 0.83192 0.0
O640 O 0.32821 0.13663 0.8459 0.0
O641 O 0.27887 0.17682 0.80677 0.0
O642 O 0.19148 0.07408 0.82979 0.0
O643 O 0.21327 0.05925 0.84706 0.0
C644 C 0.18483 0.15636 0.83937 0.0
C645 C 0.26477 0.08344 0.88382 0.0
C646 C 0.26606 0.08146 0.90373 0.0
C647 C 0.21609 0.0397 0.90356 0.0
C648 C 0.21544 0.04051 0.88401 0.0
C649 C 0.19124 0.01938 0.8938 0.0
C650 C 0.29034 0.10354 0.89378 0.0
C651 C 0.3204 0.2379 0.84003 0.0
C652 C 0.2893 0.10686 0.87329 0.0
C653 C 0.13502 0.1752 0.88152 0.0
C654 C 0.17496 0.22573 0.88075 0.0
C655 C 0.31798 0.10018 0.83889 0.0
C656 C 0.21145 0.18031 0.79839 0.0
C657 C 0.17959 0.20486 0.78267 0.0
C658 C 0.17377 0.23967 0.78921 0.0
C659 C 0.20688 0.21652 0.80465 0.0
C660 C 0.19828 0.17487 0.78734 0.0
C661 C 0.18751 0.24551 0.80011 0.0
C662 C 0.18201 0.04557 0.83859 0.0
C663 C 0.23232 0.15027 0.8033 0.0
H664 H 0.1966 0.02167 0.91102 0.0
H665 H 0.19549 0.02281 0.8766 0.0
H666 H 0.15319 0.98661 0.89385 0.0
H667 H 0.32872 0.13607 0.89377 0.0
H668 H 0.15979 0.26341 0.78581 0.0
H669 H 0.21819 0.22229 0.81307 0.0
H670 H 0.20279 0.14775 0.78241 0.0
H671 H 0.18362 0.273 0.80502 0.0
Eu672 Eu 0.8882 0.13525 0.85478 0.0
C673 C 0.8464 0.20112 0.81573 0.0
N674 N 0.82552 0.15169 0.81891 0.0
C675 C 0.74165 0.14049 0.81657 0.0
C676 C 0.81569 0.22325 0.81371 0.0
C677 C 0.7739 0.1203 0.81809 0.0
C678 C 0.76275 0.19272 0.81475 0.0
C679 C 0.91899 0.27532 0.80794 0.0
C680 C 0.89741 0.22712 0.81295 0.0
C681 C 0.88983 0.29941 0.80683 0.0
C682 C 0.83824 0.27352 0.80981 0.0
Eu683 Eu 0.88363 0.12142 0.82228 0.0
N684 N 0.92466 0.20292 0.81414 0.0
C685 C 0.96802 0.29624 0.80357 0.0
C686 C 0.97225 0.22268 0.80975 0.0
C687 C 0.99436 0.26928 0.8043 0.0
H688 H 0.75731 0.07941 0.81844 0.0
H689 H 0.03157 0.28413 0.80062 0.0
H690 H 0.98927 0.14846 0.86753 0.0
H691 H 0.6879 1.00598 0.86556 0.0
H692 H 0.99271 0.20198 0.81042 0.0
H693 H 0.98496 0.33222 0.79926 0.0
H694 H 0.7611 0.08926 0.86086 0.0
H695 H 0.70066 0.11552 0.81646 0.0
H696 H 0.9061 0.33697 0.80321 0.0
H697 H 0.81542 0.29142 0.80838 0.0
H698 H 1.01217 0.1019 0.88058 0.0
H699 H 0.73779 0.20816 0.81328 0.0
H700 H 0.70229 0.93964 0.87393 0.0
N701 N 0.9121 0.08988 0.86647 0.0
C702 C 0.87469 0.04492 0.87046 0.0
C703 C 0.97395 0.08405 0.87743 0.0
C704 C 0.88612 0.01576 0.87762 0.0
C705 C 0.96093 0.11057 0.87006 0.0
C706 C 0.93678 0.03569 0.88099 0.0
N707 N 0.81533 0.06465 0.86284 0.0
C708 C 0.76759 0.05869 0.86322 0.0
C709 C 0.78444 0.98549 0.87263 0.0
C710 C 0.82463 0.03091 0.86822 0.0
C711 C 0.73436 0.97493 0.87105 0.0
C712 C 0.72604 0.01231 0.86648 0.0
H713 H 0.94705 0.01534 0.88675 0.0
H714 H 0.85416 0.94664 0.88726 0.0
H715 H 0.76521 0.91884 0.88243 0.0
O716 O 0.87325 0.15731 0.87094 0.0
O717 O 0.8997 0.06991 0.84837 0.0
O718 O 0.85958 0.04777 0.83167 0.0
O719 O 0.94405 0.20703 0.86231 0.0
O720 O 0.81568 0.12158 0.84568 0.0
O721 O 0.81156 0.06951 0.83192 0.0
O722 O 0.92063 0.10378 0.80888 0.0
O723 O 0.93823 0.1981 0.8305 0.0
O724 O 0.88858 0.19771 0.84423 0.0
O725 O 0.841 0.07873 0.80809 0.0
O726 O 0.95611 0.12659 0.82907 0.0
O727 O 0.96622 0.15496 0.84707 0.0
C728 C 0.87869 0.03733 0.84026 0.0
C729 C 0.93468 0.23832 0.87985 0.0
C730 C 0.93873 0.26368 0.89896 0.0
C731 C 0.97069 0.31481 0.89584 0.0
C732 C 0.96642 0.2899 0.87712 0.0
C733 C 0.98416 0.3277 0.88504 0.0
C734 C 0.92089 0.22519 0.89087 0.0
C735 C 0.78845 0.08239 0.83922 0.0
C736 C 0.91696 0.19959 0.87103 0.0
C737 C 0.84633 0.96957 0.8817 0.0
C738 C 0.79561 0.95388 0.879 0.0
C739 C 0.92576 0.2234 0.83733 0.0
C740 C 0.88357 0.09816 0.79151 0.0
C741 C 0.86736 0.07361 0.77239 0.0
C742 C 0.87283 0.12175 0.77008 0.0
C743 C 0.88789 0.14527 0.78892 0.0
C744 C 0.87482 0.06301 0.78318 0.0
C745 C 0.88375 0.1574 0.77825 0.0
C746 C 0.98364 0.14468 0.83802 0.0
C747 C 0.87982 0.08223 0.80293 0.0
H748 H 0.98603 0.34505 0.90183 0.0
H749 H 0.97746 0.30117 0.86878 0.0
H750 H 1.00874 0.36729 0.88281 0.0
H751 H 0.89664 0.18554 0.89312 0.0
H752 H 0.86656 0.13135 0.762 0.0
H753 H 0.89228 0.17197 0.79513 0.0
H754 H 0.87211 0.02696 0.78523 0.0
H755 H 0.88669 0.19375 0.77638 0.0
Eu756 Eu 0.7672 0.89053 0.65408 0.0
C757 C 0.65808 0.79377 0.69542 0.0
N758 N 0.6772 0.84182 0.69136 0.0
C759 C 0.59888 0.83991 0.6956 0.0
C760 C 0.60749 0.76622 0.69932 0.0
C761 C 0.64932 0.8659 0.69193 0.0
C762 C 0.57761 0.7896 0.69916 0.0
C763 C 0.67044 0.72263 0.70005 0.0
C764 C 0.68959 0.77248 0.69596 0.0
C765 C 0.61983 0.69485 0.70371 0.0
C766 C 0.58856 0.7167 0.70342 0.0
Eu767 Eu 0.76427 0.88382 0.6864 0.0
N768 N 0.73867 0.80019 0.69242 0.0
C769 C 0.70275 0.70206 0.70035 0.0
C770 C 0.77038 0.78035 0.69278 0.0
C771 C 0.75288 0.73095 0.69667 0.0
H772 H 0.66634 0.90582 0.69007 0.0
H773 H 0.77825 0.71543 0.69692 0.0
H774 H 0.80412 0.81574 0.64227 0.0
H775 H 0.79919 0.07793 0.64172 0.0
H776 H 0.80926 0.8025 0.6902 0.0
H777 H 0.68938 0.66411 0.70351 0.0
H778 H 0.75796 0.99667 0.65193 0.0
H779 H 0.57685 0.85913 0.69591 0.0
H780 H 0.60456 0.65648 0.70685 0.0
H781 H 0.54974 0.69496 0.70638 0.0
H782 H 0.86185 0.82083 0.62745 0.0
H783 H 0.53864 0.76972 0.70209 0.0
H784 H 0.86543 0.09391 0.62811 0.0
N785 N 0.82395 0.8934 0.6408 0.0
C786 C 0.84942 0.93759 0.6351 0.0
C787 C 0.85898 0.854 0.62958 0.0
C788 C 0.882 0.94199 0.62651 0.0
C789 C 0.82675 0.8513 0.63798 0.0
C790 C 0.88709 0.89971 0.62389 0.0
N791 N 0.80428 0.96973 0.64495 0.0
C792 C 0.78801 1.0042 0.64624 0.0
C793 C 0.8622 0.02166 0.63091 0.0
C794 C 0.83939 0.97692 0.63725 0.0
C795 C 0.8485 0.0589 0.63278 0.0
C796 C 0.81098 0.04995 0.64042 0.0
H797 H 0.9114 0.90156 0.61727 0.0
H798 H 0.93159 0.99148 0.61385 0.0
H799 H 0.91325 0.06062 0.61756 0.0
O800 O 0.7391 0.88398 0.63754 0.0
O801 O 0.8156 0.96658 0.66291 0.0
O802 O 0.83834 0.94798 0.67947 0.0
O803 O 0.68982 0.83053 0.64958 0.0
O804 O 0.70803 0.90328 0.66302 0.0
O805 O 0.74467 0.94158 0.6792 0.0
O806 O 0.79494 0.8833 0.7025 0.0
O807 O 0.70578 0.82187 0.67507 0.0
O808 O 0.75234 0.81581 0.6615 0.0
O809 O 0.76917 0.93654 0.69902 0.0
O810 O 0.83178 0.87769 0.67952 0.0
O811 O 0.82821 0.87304 0.66051 0.0
C812 C 0.84773 0.97818 0.67107 0.0
C813 C 0.68367 0.80056 0.6313 0.0
C814 C 0.67722 0.77306 0.61234 0.0
C815 C 0.66194 0.72342 0.61602 0.0
C816 C 0.66771 0.75045 0.63468 0.0
C817 C 0.65698 0.71228 0.62707 0.0
C818 C 0.6883 0.81156 0.62009 0.0
C819 C 0.71459 0.93514 0.67092 0.0
C820 C 0.69663 0.84196 0.63929 0.0
C821 C 0.90627 0.98732 0.62046 0.0
C822 C 0.89609 0.02684 0.62261 0.0
C823 C 0.71755 0.79344 0.669 0.0
C824 C 0.76365 0.91043 0.71722 0.0
C825 C 0.77139 0.93381 0.73641 0.0
C826 C 0.71788 0.90407 0.73732 0.0
C827 C 0.7108 0.87971 0.71854 0.0
C828 C 0.79398 0.93667 0.72622 0.0
C829 C 0.68812 0.87651 0.72852 0.0
C830 C 0.84931 0.87294 0.66996 0.0
C831 C 0.78698 0.91872 0.70637 0.0
H832 H 0.65456 0.69322 0.61034 0.0
H833 H 0.66394 0.74074 0.6432 0.0
H834 H 0.64514 0.67387 0.62976 0.0
H835 H 0.70038 0.85007 0.6174 0.0
H836 H 0.69845 0.9032 0.74473 0.0
H837 H 0.68668 0.85931 0.71185 0.0
H838 H 0.83491 0.96012 0.72521 0.0
H839 H 0.64708 0.85372 0.72935 0.0
Eu840 Eu 0.13204 0.87877 0.65334 0.0
C841 C 0.22911 0.8721 0.69564 0.0
N842 N 0.18274 0.84086 0.69107 0.0
C843 C 0.19185 0.76792 0.69459 0.0
C844 C 0.25927 0.85214 0.69963 0.0
C845 C 0.16314 0.78932 0.69082 0.0
C846 C 0.24026 0.79947 0.69895 0.0
C847 C 0.29459 0.95737 0.70098 0.0
C848 C 0.2467 0.9244 0.69627 0.0
C849 C 0.32474 0.93754 0.70489 0.0
C850 C 0.30718 0.88515 0.7042 0.0
Eu851 Eu 0.13597 0.88058 0.68594 0.0
N852 N 0.21687 0.94288 0.69241 0.0
C853 C 0.31069 0.00934 0.70173 0.0
C854 C 0.23238 0.9936 0.69315 0.0
C855 C 0.27961 0.0276 0.69775 0.0
H856 H 0.12487 0.76435 0.68802 0.0
H857 H 0.29164 0.06774 0.6984 0.0
H858 H 0.21092 0.99198 0.64246 0.0
H859 H 0.94197 0.73176 0.63986 0.0
H860 H 0.20808 1.00806 0.69047 0.0
H861 H 0.34668 0.03541 0.70553 0.0
H862 H 0.02246 0.76633 0.65035 0.0
H863 H 0.17627 0.72701 0.69429 0.0
H864 H 0.36172 0.96246 0.70849 0.0
H865 H 0.33088 0.87048 0.70728 0.0
H866 H 0.20918 0.0501 0.62853 0.0
H867 H 0.26229 0.78271 0.70193 0.0
H868 H 0.93198 0.78513 0.62608 0.0
N869 N 0.133 0.93617 0.64035 0.0
C870 C 0.09032 0.91961 0.63423 0.0
C871 C 0.1753 0.01379 0.63014 0.0
C872 C 0.08797 0.95063 0.62599 0.0
C873 C 0.17603 0.98127 0.6381 0.0
C874 C 0.13082 0.99869 0.62416 0.0
N875 N 0.05452 0.84044 0.64344 0.0
C876 C 0.01763 0.79035 0.64455 0.0
C877 C 1.00624 0.85101 0.62916 0.0
C878 C 0.05011 0.8702 0.63575 0.0
C879 C 0.96674 0.8009 0.63082 0.0
C880 C 0.97244 0.7705 0.63855 0.0
H881 H 0.13052 0.02358 0.61789 0.0
H882 H 0.04127 0.95538 0.61325 0.0
H883 H 0.96988 0.86804 0.61599 0.0
O884 O 0.19253 0.86199 0.64891 0.0
O885 O 0.05527 0.85097 0.66188 0.0
O886 O 0.07113 0.88862 0.67884 0.0
O887 O 0.13875 0.85676 0.63685 0.0
O888 O 0.11635 0.80544 0.66225 0.0
O889 O 0.07865 0.80368 0.67857 0.0
O890 O 0.12701 0.91145 0.70124 0.0
O891 O 0.20182 0.88768 0.67516 0.0
O892 O 0.20633 0.93776 0.66111 0.0
O893 O 0.09027 0.82999 0.69926 0.0
O894 O 0.13898 0.95198 0.67884 0.0
O895 O 0.15187 0.95768 0.66001 0.0
C896 C 0.04242 0.86968 0.67018 0.0
C897 C 0.22273 0.88719 0.63066 0.0
C898 C 0.25085 0.91145 0.61184 0.0
C899 C 0.29996 0.94614 0.61562 0.0
C900 C 0.27235 0.92229 0.63418 0.0
C901 C 0.31058 0.95138 0.6267 0.0
C902 C 0.21226 0.88185 0.6194 0.0
C903 C 0.08448 0.78013 0.6702 0.0
C904 C 0.18132 0.85744 0.63859 0.0
C905 C 0.04388 0.93201 0.61958 0.0
C906 C 1.00322 0.88226 0.62113 0.0
C907 C 0.22951 0.92686 0.66873 0.0
C908 C 0.11234 0.86286 0.71723 0.0
C909 C 0.0875 0.84602 0.73632 0.0
C910 C 0.13836 0.86215 0.73905 0.0
C911 C 0.16284 0.87874 0.72021 0.0
C912 C 0.07445 0.84587 0.72534 0.0
C913 C 0.17566 0.87809 0.73103 0.0
C914 C 0.148 0.97644 0.66947 0.0
C915 C 0.09953 0.86725 0.70585 0.0
H916 H 0.33009 0.96953 0.60997 0.0
H917 H 0.28164 0.92769 0.64272 0.0
H918 H 0.3486 0.97846 0.62951 0.0
H919 H 0.1741 0.85537 0.61653 0.0
H920 H 0.14917 0.86234 0.74742 0.0
H921 H 0.19263 0.89255 0.71425 0.0
H922 H 0.03536 0.83401 0.72317 0.0
H923 H 0.21482 0.89061 0.73322 0.0
Eu924 Eu 0.13928 0.25837 0.65533 0.0
C925 C 0.15605 0.36476 0.69293 0.0
N926 N 0.18395 0.34297 0.68971 0.0
C927 C 0.26021 0.42516 0.69035 0.0
C928 C 0.17881 0.41819 0.6941 0.0
C929 C 0.23595 0.372 0.68952 0.0
C930 C 0.23128 0.44853 0.69232 0.0
C931 C 0.07599 0.35446 0.69971 0.0
C932 C 0.10546 0.3334 0.69593 0.0
C933 C 0.0977 0.40768 0.70019 0.0
C934 C 0.14905 0.43947 0.69744 0.0
Eu935 Eu 0.138 0.25208 0.68802 0.0
N936 N 0.08528 0.28198 0.69531 0.0
C937 C 0.02578 0.32135 0.70305 0.0
C938 C 0.03699 0.24945 0.69894 0.0
C939 C 1.00638 0.26863 0.70276 0.0
H940 H 0.25937 0.35458 0.68929 0.0
H941 H 0.96784 0.24277 0.70546 0.0
H942 H 0.01696 0.20015 0.64681 0.0
H943 H 0.30305 0.25285 0.63803 0.0
H944 H 0.02182 0.20867 0.69858 0.0
H945 H 1.00204 0.33613 0.70603 0.0
H946 H 0.26025 0.28484 0.65016 0.0
H947 H 0.30137 0.44791 0.68983 0.0
H948 H 0.07546 0.4246 0.70294 0.0
H949 H 0.16576 0.48045 0.69819 0.0
H950 H 0.96444 0.13881 0.63263 0.0
H951 H 0.25021 0.48967 0.69313 0.0
H952 H 0.2529 0.18284 0.62537 0.0
N953 N 0.08265 0.19397 0.64347 0.0
C954 C 0.10467 0.17468 0.63679 0.0
C955 C 1.00353 0.14795 0.63383 0.0
C956 C 0.07557 0.13867 0.62874 0.0
C957 C 0.03331 0.18243 0.64188 0.0
C958 C 0.02461 0.12552 0.62732 0.0
N959 N 0.18584 0.23198 0.64448 0.0
C960 C 0.23768 0.25387 0.64471 0.0
C961 C 0.18063 0.17478 0.63032 0.0
C962 C 0.15723 0.19357 0.63741 0.0
C963 C 0.23359 0.19628 0.63068 0.0
C964 C 0.26217 0.23612 0.63783 0.0
H965 H 1.00183 0.09904 0.62104 0.0
H966 H 0.07649 0.09021 0.61593 0.0
H967 H 0.16832 0.12132 0.61743 0.0
O968 O 0.16523 0.2987 0.63966 0.0
O969 O 0.15939 0.19914 0.66161 0.0
O970 O 0.14106 0.18551 0.68016 0.0
O971 O 0.10496 0.30051 0.64863 0.0
O972 O 0.21662 0.3132 0.66295 0.0
O973 O 0.21432 0.27499 0.6794 0.0
O974 O 0.10734 0.20671 0.70288 0.0
O975 O 0.08129 0.26763 0.67893 0.0
O976 O 0.13788 0.31708 0.6665 0.0
O977 O 0.18677 0.26156 0.70193 0.0
O978 O 0.06886 0.18098 0.68148 0.0
O979 O 0.06372 0.19555 0.66294 0.0
C980 C 0.15216 0.173 0.67069 0.0
C981 C 0.09815 0.30057 0.62949 0.0
C982 C 0.08887 0.3011 0.60977 0.0
C983 C 0.03599 0.27932 0.61106 0.0
C984 C 0.0452 0.28165 0.63044 0.0
C985 C 0.01443 0.27009 0.62131 0.0
C986 C 0.12012 0.31119 0.61901 0.0
C987 C 0.23971 0.30504 0.67114 0.0
C988 C 0.12966 0.31115 0.63948 0.0
C989 C 0.09858 0.11856 0.62202 0.0
C990 C 0.15088 0.13632 0.62285 0.0
C991 C 0.09566 0.30392 0.67176 0.0
C992 C 0.14819 0.24979 0.71901 0.0
C993 C 0.14782 0.24435 0.73875 0.0
C994 C 0.14404 0.28872 0.73935 0.0
C995 C 0.14616 0.29496 0.7199 0.0
C996 C 0.14976 0.22472 0.72851 0.0
C997 C 0.1435 0.31395 0.72998 0.0
C998 C 0.04526 0.1686 0.672 0.0
C999 C 0.14999 0.23007 0.70818 0.0
H1000 H 1.01144 0.27078 0.60406 0.0
H1001 H 0.02704 0.27531 0.63827 0.0
H1002 H 0.97371 0.25458 0.62221 0.0
H1003 H 0.161 0.32791 0.61806 0.0
H1004 H 0.1428 0.30463 0.74713 0.0
H1005 H 0.14741 0.31607 0.7128 0.0
H1006 H 0.15255 0.19043 0.72795 0.0
H1007 H 0.14167 0.34872 0.73054 0.0
Eu1008 Eu 0.79789 0.59289 0.52052 0.0
C1009 C 0.72935 0.48954 0.4733 0.0
N1010 N 0.77555 0.51263 0.47833 0.0
C1011 C 0.7949 0.45148 0.47063 0.0
C1012 C 0.71391 0.44567 0.46686 0.0
C1013 C 0.80952 0.49619 0.47647 0.0
C1014 C 0.7465 0.42557 0.46594 0.0
C1015 C 0.6555 0.49413 0.46718 0.0
C1016 C 0.69997 0.51306 0.47357 0.0
C1017 C 0.63888 0.4492 0.46117 0.0
C1018 C 0.66805 0.42506 0.46101 0.0
Eu1019 Eu 0.79602 0.58766 0.48822 0.0
N1020 N 0.71723 0.55701 0.47931 0.0
C1021 C 0.63035 0.52227 0.46658 0.0
C1022 C 0.69387 0.58551 0.47849 0.0
C1023 C 0.64967 0.56814 0.47225 0.0
H1024 H 0.84833 0.51788 0.47935 0.0
H1025 H 0.63043 0.58996 0.47178 0.0
H1026 H 0.79775 0.70307 0.52231 0.0
H1027 H 0.94048 0.54376 0.53409 0.0
H1028 H 0.70953 0.62173 0.4826 0.0
H1029 H 0.59629 0.50919 0.4617 0.0
H1030 H 0.85988 0.52714 0.52579 0.0
H1031 H 0.82158 0.43801 0.4695 0.0
H1032 H 0.6045 0.43383 0.45632 0.0
H1033 H 0.65586 0.39162 0.45597 0.0
H1034 H 0.85352 0.79047 0.52913 0.0
H1035 H 0.73562 0.39167 0.46117 0.0
H1036 H 1.00003 0.62937 0.54147 0.0
N1037 N 0.85078 0.67849 0.52565 0.0
C1038 C 0.89511 0.6893 0.53066 0.0
C1039 C 0.8661 0.7627 0.52943 0.0
C1040 C 0.92753 0.73828 0.535 0.0
C1041 C 0.83513 0.71361 0.52528 0.0
C1042 C 0.91265 0.7752 0.53425 0.0
N1043 N 0.87559 0.60383 0.52743 0.0
C1044 C 0.88657 0.56537 0.5284 0.0
C1045 C 0.95426 0.66193 0.53646 0.0
C1046 C 0.90812 0.65124 0.53144 0.0
C1047 C 0.9658 0.62279 0.53736 0.0
C1048 C 0.93204 0.57442 0.53327 0.0
H1049 H 0.93647 0.81321 0.5375 0.0
H1050 H 0.99922 0.78644 0.5432 0.0
H1051 H 0.02276 0.71972 0.54443 0.0
O1052 O 0.79038 0.56335 0.53706 0.0
O1053 O 0.86199 0.65372 0.50985 0.0
O1054 O 0.87109 0.60818 0.4964 0.0
O1055 O 0.74312 0.59401 0.53187 0.0
O1056 O 0.79501 0.52077 0.51381 0.0
O1057 O 0.82811 0.54073 0.49637 0.0
O1058 O 0.8477 0.66359 0.48136 0.0
O1059 O 0.71801 0.54498 0.49672 0.0
O1060 O 0.7362 0.51967 0.51288 0.0
O1061 O 0.80992 0.59848 0.47085 0.0
O1062 O 0.78464 0.65038 0.49625 0.0
O1063 O 0.74561 0.61772 0.5127 0.0
C1064 C 0.89187 0.64368 0.50384 0.0
C1065 C 0.76234 0.59961 0.55058 0.0
C1066 C 0.73436 0.59406 0.56941 0.0
C1067 C 0.76649 0.6473 0.57032 0.0
C1068 C 0.79438 0.65234 0.55183 0.0
C1069 C 0.79665 0.67593 0.56165 0.0
C1070 C 0.73355 0.57039 0.55948 0.0
C1071 C 0.81418 0.51121 0.50507 0.0
C1072 C 0.75611 0.57503 0.53992 0.0
C1073 C 0.97366 0.74893 0.5399 0.0
C1074 C 0.98707 0.71094 0.5406 0.0
C1075 C 0.70482 0.51229 0.50481 0.0
C1076 C 0.88852 0.66412 0.4647 0.0
C1077 C 0.9279 0.68405 0.44667 0.0
C1078 C 0.97219 0.68783 0.45126 0.0
C1079 C 0.93315 0.66802 0.46904 0.0
C1080 C 0.88619 0.67258 0.45352 0.0
C1081 C 0.97484 0.68012 0.46234 0.0
C1082 C 0.75381 0.64704 0.5042 0.0
C1083 C 0.84251 0.64683 0.47144 0.0
H1084 H 0.76758 0.66725 0.57768 0.0
H1085 H 0.81709 0.67557 0.54522 0.0
H1086 H 0.82106 0.71682 0.56247 0.0
H1087 H 0.71032 0.52942 0.55856 0.0
H1088 H 1.00507 0.69728 0.44628 0.0
H1089 H 0.9355 0.66103 0.47756 0.0
H1090 H 0.8515 0.66899 0.45012 0.0
H1091 H 1.00928 0.6832 0.46573 0.0
Eu1092 Eu 0.43974 0.21904 0.52177 0.0
C1093 C 0.50502 0.196 0.47551 0.0
N1094 N 0.50309 0.23667 0.47957 0.0
C1095 C 0.58561 0.29376 0.47221 0.0
C1096 C 0.54833 0.20268 0.46985 0.0
C1097 C 0.54149 0.28532 0.47762 0.0
C1098 C 0.58922 0.2523 0.46836 0.0
C1099 C 0.46306 0.10483 0.47241 0.0
C1100 C 0.4627 0.14782 0.4767 0.0
C1101 C 0.50679 0.11096 0.4671 0.0
C1102 C 0.54894 0.15985 0.46568 0.0
Eu1103 Eu 0.4289 0.21889 0.48928 0.0
N1104 N 0.42002 0.14341 0.48138 0.0
C1105 C 0.41873 0.05723 0.4732 0.0
C1106 C 0.37498 0.09846 0.4807 0.0
C1107 C 0.37418 0.05421 0.47721 0.0
H1108 H 0.53864 0.31753 0.48048 0.0
H1109 H 0.33913 0.0181 0.4776 0.0
H1110 H 0.35082 0.09475 0.52696 0.0
H1111 H 0.44152 0.38858 0.53715 0.0
H1112 H 0.33962 0.09637 0.483 0.0
H1113 H 0.41818 0.02318 0.47035 0.0
H1114 H 0.47836 0.33827 0.52952 0.0
H1115 H 0.61691 0.33212 0.47112 0.0
H1116 H 0.50764 0.07837 0.4637 0.0
H1117 H 0.58111 0.16422 0.46107 0.0
H1118 H 0.25998 0.04485 0.53172 0.0
H1119 H 0.62337 0.25911 0.46412 0.0
H1120 H 0.34923 0.34607 0.54139 0.0
N1121 N 0.35338 0.16648 0.52732 0.0
C1122 C 0.32941 0.1915 0.53099 0.0
C1123 C 0.27867 0.08607 0.53131 0.0
C1124 C 0.27793 0.1645 0.53434 0.0
C1125 C 0.32996 0.11457 0.52827 0.0
C1126 C 0.25216 0.11112 0.53412 0.0
N1127 N 0.40743 0.26883 0.52933 0.0
C1128 C 0.43814 0.31965 0.53146 0.0
C1129 C 0.33478 0.27115 0.53653 0.0
C1130 C 0.35745 0.24411 0.53219 0.0
C1131 C 0.36526 0.32391 0.53811 0.0
C1132 C 0.41735 0.3481 0.53571 0.0
H1133 H 0.21263 0.08897 0.53663 0.0
H1134 H 0.21484 0.17133 0.54072 0.0
H1135 H 0.26457 0.2648 0.54256 0.0
O1136 O 0.504 0.25998 0.53278 0.0
O1137 O 0.41261 0.26761 0.51267 0.0
O1138 O 0.36384 0.2149 0.49927 0.0
O1139 O 0.4399 0.18913 0.53794 0.0
O1140 O 0.50724 0.28712 0.51403 0.0
O1141 O 0.48208 0.2983 0.49683 0.0
O1142 O 0.39608 0.20598 0.47273 0.0
O1143 O 0.50303 0.22854 0.49649 0.0
O1144 O 0.4808 0.1842 0.51257 0.0
O1145 O 0.41876 0.27734 0.48124 0.0
O1146 O 0.36821 0.14892 0.49884 0.0
O1147 O 0.41273 0.14266 0.51321 0.0
C1148 C 0.37276 0.25095 0.50627 0.0
C1149 C 0.52081 0.20975 0.54475 0.0
C1150 C 0.55813 0.19018 0.56028 0.0
C1151 C 0.58938 0.18174 0.55312 0.0
C1152 C 0.55237 0.20118 0.5378 0.0
C1153 C 0.58646 0.18731 0.54198 0.0
C1154 C 0.52376 0.2043 0.55599 0.0
C1155 C 0.51354 0.31478 0.50528 0.0
C1156 C 0.48563 0.22542 0.54031 0.0
C1157 C 0.25449 0.19144 0.53824 0.0
C1158 C 0.28285 0.24465 0.53933 0.0
C1159 C 0.5117 0.20378 0.5042 0.0
C1160 C 0.3828 0.27032 0.46331 0.0
C1161 C 0.36734 0.27538 0.44393 0.0
C1162 C 0.35103 0.31037 0.44642 0.0
C1163 C 0.36639 0.30544 0.46546 0.0
C1164 C 0.38301 0.2551 0.45249 0.0
C1165 C 0.3505 0.32511 0.45708 0.0
C1166 C 0.37737 0.1208 0.50569 0.0
C1167 C 0.3999 0.25074 0.47246 0.0
H1168 H 0.6158 0.17031 0.55614 0.0
H1169 H 0.55096 0.20571 0.52915 0.0
H1170 H 0.6107 0.18095 0.53655 0.0
H1171 H 0.49995 0.21179 0.56136 0.0
H1172 H 0.33933 0.32707 0.44007 0.0
H1173 H 0.36552 0.31752 0.47367 0.0
H1174 H 0.39536 0.22784 0.45075 0.0
H1175 H 0.33794 0.35216 0.45885 0.0
Eu1176 Eu 0.8049 0.22437 0.52057 0.0
C1177 C 0.76582 0.26664 0.46894 0.0
N1178 N 0.75176 0.22481 0.47519 0.0
C1179 C 0.67734 0.17616 0.46434 0.0
C1180 C 0.73485 0.26522 0.46027 0.0
C1181 C 0.70907 0.17953 0.47288 0.0
C1182 C 0.68984 0.2194 0.4581 0.0
C1183 C 0.83197 0.35091 0.46334 0.0
C1184 C 0.81397 0.30884 0.47042 0.0
C1185 C 0.79989 0.351 0.45514 0.0
C1186 C 0.75143 0.30823 0.4536 0.0
Eu1187 Eu 0.81069 0.23032 0.48823 0.0
N1188 N 0.84523 0.3062 0.47797 0.0
C1189 C 0.88266 0.39032 0.46433 0.0
C1190 C 0.89571 0.34247 0.47838 0.0
C1191 C 0.91482 0.38571 0.47177 0.0
H1192 H 0.70015 0.14578 0.47752 0.0
H1193 H 0.95432 0.41539 0.47239 0.0
H1194 H 0.90788 0.20863 0.51856 0.0
H1195 H 0.62345 0.10707 0.54135 0.0
H1196 H 0.92093 0.3383 0.48396 0.0
H1197 H 0.89783 0.42348 0.4591 0.0
H1198 H 0.68608 0.17974 0.5304 0.0
H1199 H 0.64386 0.13995 0.46246 0.0
H1200 H 0.81292 0.38321 0.44969 0.0
H1201 H 0.72792 0.30804 0.44696 0.0
H1202 H 0.93356 0.14691 0.52437 0.0
H1203 H 0.66557 0.2165 0.45137 0.0
H1204 H 0.64398 0.04229 0.54781 0.0
N1205 N 0.83244 0.1656 0.52475 0.0
C1206 C 0.79924 0.12447 0.53076 0.0
C1207 C 0.89553 0.1399 0.52612 0.0
C1208 C 0.81281 0.08864 0.53442 0.0
C1209 C 0.88066 0.17459 0.52271 0.0
C1210 C 0.86139 0.09658 0.53194 0.0
N1211 N 0.73948 0.15356 0.5298 0.0
C1212 C 0.6942 0.15004 0.53264 0.0
C1213 C 0.71695 0.07635 0.53964 0.0
C1214 C 0.75151 0.11815 0.53326 0.0
C1215 C 0.67062 0.07273 0.54258 0.0
C1216 C 0.65903 0.10947 0.539 0.0
H1217 H 0.87316 0.0699 0.5346 0.0
H1218 H 0.78745 0.0182 0.5433 0.0
H1219 H 0.70372 1.00765 0.54793 0.0
O1220 O 0.7879 0.23883 0.53707 0.0
O1221 O 0.80008 0.16011 0.50985 0.0
O1222 O 0.75106 0.15511 0.49565 0.0
O1223 O 0.86521 0.27836 0.5313 0.0
O1224 O 0.73051 0.21527 0.51342 0.0
O1225 O 0.732 0.21361 0.49439 0.0
O1226 O 0.83508 0.22406 0.47193 0.0
O1227 O 0.84117 0.30682 0.49722 0.0
O1228 O 0.79278 0.28588 0.5128 0.0
O1229 O 0.82969 0.17098 0.48426 0.0
O1230 O 0.88513 0.24818 0.49688 0.0
O1231 O 0.88303 0.27968 0.51373 0.0
C1232 C 0.76047 0.13243 0.50361 0.0
C1233 C 0.85309 0.25842 0.54998 0.0
C1234 C 0.86599 0.27005 0.56959 0.0
C1235 C 0.88759 0.23827 0.56945 0.0
C1236 C 0.87604 0.22798 0.55011 0.0
C1237 C 0.89278 0.21771 0.55977 0.0
C1238 C 0.84795 0.27936 0.55979 0.0
C1239 C 0.70902 0.21014 0.50377 0.0
C1240 C 0.83542 0.26893 0.53963 0.0
C1241 C 0.77777 0.04624 0.54048 0.0
C1242 C 0.73006 0.0402 0.54311 0.0
C1243 C 0.81812 0.31815 0.50492 0.0
C1244 C 0.81145 0.14087 0.46583 0.0
C1245 C 0.79445 0.11266 0.44682 0.0
C1246 C 0.76801 0.06179 0.45042 0.0
C1247 C 0.78439 0.08954 0.46912 0.0
C1248 C 0.81609 0.15217 0.45461 0.0
C1249 C 0.76286 0.05045 0.46146 0.0
C1250 C 0.90838 0.27622 0.50545 0.0
C1251 C 0.83633 0.18258 0.47396 0.0
H1252 H 0.90022 0.22894 0.57687 0.0
H1253 H 0.88137 0.21229 0.54273 0.0
H1254 H 0.90993 0.19372 0.55977 0.0
H1255 H 0.83079 0.30339 0.55976 0.0
H1256 H 0.75068 0.03068 0.44466 0.0
H1257 H 0.78 0.07944 0.47762 0.0
H1258 H 0.83713 0.19152 0.45192 0.0
H1259 H 0.74212 0.01106 0.46411 0.0
Eu1260 Eu 0.9269 0.46176 0.65545 0.0
C1261 C 0.83984 0.40551 0.70562 0.0
N1262 N 0.86469 0.45036 0.70012 0.0
C1263 C 0.82246 0.48478 0.71064 0.0
C1264 C 0.80446 0.39846 0.7138 0.0
C1265 C 0.8581 0.49048 0.70278 0.0
C1266 C 0.79537 0.43842 0.71614 0.0
C1267 C 0.83184 0.32365 0.71014 0.0
C1268 C 0.85344 0.36844 0.7038 0.0
C1269 C 0.79565 0.31612 0.7181 0.0
C1270 C 0.78165 0.35317 0.71985 0.0
Eu1271 Eu 0.92704 0.45804 0.68769 0.0
N1272 N 0.89123 0.37835 0.69659 0.0
C1273 C 0.8493 0.28903 0.70871 0.0
C1274 C 0.91129 0.34677 0.69583 0.0
C1275 C 0.8895 0.30086 0.70158 0.0
H1276 H 0.88085 0.5271 0.69889 0.0
H1277 H 0.90433 0.2751 0.70067 0.0
H1278 H 0.03458 0.45797 0.65203 0.0
H1279 H 0.88397 0.61368 0.64598 0.0
H1280 H 0.94361 0.35682 0.69063 0.0
H1281 H 0.83333 0.25402 0.71336 0.0
H1282 H 0.86457 0.52929 0.65252 0.0
H1283 H 0.81691 0.51649 0.71265 0.0
H1284 H 0.77953 0.28254 0.72321 0.0
H1285 H 0.75458 0.3473 0.72621 0.0
H1286 H 0.12149 0.51328 0.64491 0.0
H1287 H 0.76928 0.43443 0.72254 0.0
H1288 H 0.96949 0.67328 0.63859 0.0
N1289 N 1.01174 0.51318 0.64975 0.0
C1290 C 0.02339 0.55903 0.64537 0.0
C1291 C 0.0945 0.52687 0.64511 0.0
C1292 C 0.07226 0.59149 0.641 0.0
C1293 C 0.04561 0.49599 0.64935 0.0
C1294 C 0.10802 0.57496 0.64098 0.0
N1295 N 0.93954 0.54188 0.64967 0.0
C1296 C 0.90264 0.55533 0.64974 0.0
C1297 C 0.99883 0.62243 0.64144 0.0
C1298 C 0.98668 0.57407 0.64549 0.0
C1299 C 0.96151 0.6367 0.64172 0.0
C1300 C 0.91325 0.60309 0.64588 0.0
H1301 H 0.14596 0.59883 0.63771 0.0
H1302 H 0.12158 0.66507 0.6336 0.0
H1303 H 0.05755 0.69238 0.63409 0.0
O1304 O 0.89345 0.45658 0.63946 0.0
O1305 O 0.9872 0.52593 0.66624 0.0
O1306 O 0.94168 0.53224 0.68002 0.0
O1307 O 0.93283 0.41511 0.64265 0.0
O1308 O 0.85562 0.45859 0.66266 0.0
O1309 O 0.87052 0.48127 0.68099 0.0
O1310 O 1.00368 0.51773 0.69276 0.0
O1311 O 0.8808 0.38114 0.67912 0.0
O1312 O 0.85476 0.39637 0.66264 0.0
O1313 O 0.95174 0.46475 0.70449 0.0
O1314 O 0.98719 0.44648 0.67872 0.0
O1315 O 0.95104 0.4073 0.66254 0.0
C1316 C 0.97638 0.55456 0.6725 0.0
C1317 C 0.86691 0.38015 0.62967 0.0
C1318 C 0.83907 0.32976 0.61297 0.0
C1319 C 0.7946 0.29353 0.61838 0.0
C1320 C 0.82239 0.3435 0.63487 0.0
C1321 C 0.78633 0.30056 0.62921 0.0
C1322 C 0.87474 0.37361 0.6187 0.0
C1323 C 0.84369 0.47208 0.67194 0.0
C1324 C 0.90633 0.42446 0.63567 0.0
C1325 C 0.08413 0.63949 0.63692 0.0
C1326 C 0.04765 0.65504 0.6372 0.0
C1327 C 0.84718 0.36789 0.67125 0.0
C1328 C 1.00566 0.54732 0.71083 0.0
C1329 C 0.02083 0.57783 0.7296 0.0
C1330 C 0.01724 0.62043 0.72628 0.0
C1331 C 1.00164 0.58986 0.70777 0.0
C1332 C 0.01552 0.54162 0.72176 0.0
C1333 C 1.00773 0.62629 0.71547 0.0
C1334 C 0.98136 0.41472 0.67082 0.0
C1335 C 0.9949 0.5062 0.70301 0.0
H1336 H 0.76659 0.25913 0.6143 0.0
H1337 H 0.8157 0.34796 0.6433 0.0
H1338 H 0.75214 0.27221 0.63329 0.0
H1339 H 0.90873 0.40272 0.61469 0.0
H1340 H 0.02252 0.64969 0.73204 0.0
H1341 H 0.99318 0.59464 0.69948 0.0
H1342 H 0.01789 0.50842 0.72419 0.0
H1343 H 1.00486 0.65916 0.71304 0.0
Eu1344 Eu 0.55882 0.46977 0.65644 0.0
C1345 C 0.61352 0.43053 0.7066 0.0
N1346 N 0.56942 0.41291 0.70091 0.0
C1347 C 0.53126 0.33471 0.71094 0.0
C1348 C 0.61841 0.40004 0.7146 0.0
C1349 C 0.52783 0.36671 0.70325 0.0
C1350 C 0.57693 0.35127 0.71657 0.0
C1351 C 0.69525 0.50231 0.71194 0.0
C1352 C 0.65171 0.48111 0.70524 0.0
C1353 C 0.70102 0.47147 0.71963 0.0
C1354 C 0.663 0.42031 0.72088 0.0
Eu1355 Eu 0.56575 0.47068 0.68874 0.0
N1356 N 0.64357 0.51101 0.69825 0.0
C1357 C 0.73013 0.55468 0.71121 0.0
C1358 C 0.67557 0.56261 0.69802 0.0
C1359 C 0.71985 0.58507 0.70434 0.0
H1360 H 0.49214 0.35448 0.69907 0.0
H1361 H 0.746 0.62574 0.70394 0.0
H1362 H 0.59703 0.59446 0.65152 0.0
H1363 H 0.37897 0.29971 0.64652 0.0
H1364 H 0.6671 0.58611 0.69281 0.0
H1365 H 0.76413 0.57232 0.71621 0.0
H1366 H 0.46696 0.34773 0.65312 0.0
H1367 H 0.49844 0.29774 0.71265 0.0
H1368 H 0.73379 0.48751 0.72497 0.0
H1369 H 0.6674 0.39744 0.72708 0.0
H1370 H 0.55889 0.64605 0.6461 0.0
H1371 H 0.57906 0.32718 0.72278 0.0
H1372 H 0.33549 0.34607 0.63997 0.0
N1373 N 0.52678 0.5239 0.65124 0.0
C1374 C 0.47741 0.49966 0.64777 0.0
C1375 C 0.53525 0.60499 0.64674 0.0
C1376 C 0.45456 0.52769 0.64406 0.0
C1377 C 0.55649 0.57558 0.65015 0.0
C1378 C 0.48384 0.58101 0.64384 0.0
N1379 N 0.47346 0.42016 0.65073 0.0
C1380 C 0.44853 0.36822 0.65039 0.0
C1381 C 0.39987 0.42046 0.64339 0.0
C1382 C 0.45026 0.44645 0.64738 0.0
C1383 C 0.3741 0.36712 0.64302 0.0
C1384 C 0.39844 0.34091 0.64662 0.0
H1385 H 0.46768 0.60386 0.64105 0.0
H1386 H 0.38574 0.52272 0.63752 0.0
H1387 H 0.33782 0.42892 0.63699 0.0
O1388 O 0.55704 0.4322 0.64116 0.0
O1389 O 0.49347 0.46101 0.66767 0.0
O1390 O 0.49023 0.41074 0.68155 0.0
O1391 O 0.60778 0.51299 0.64279 0.0
O1392 O 0.54908 0.39441 0.66282 0.0
O1393 O 0.55069 0.39355 0.68179 0.0
O1394 O 0.50376 0.48351 0.69413 0.0
O1395 O 0.64239 0.50231 0.67995 0.0
O1396 O 0.62265 0.45931 0.66367 0.0
O1397 O 0.56221 0.49329 0.70537 0.0
O1398 O 0.57797 0.54286 0.6798 0.0
O1399 O 0.61799 0.54535 0.66386 0.0
C1400 C 0.46638 0.42153 0.67408 0.0
C1401 C 0.57536 0.48235 0.62527 0.0
C1402 C 0.59716 0.5059 0.60622 0.0
C1403 C 0.54972 0.50333 0.60483 0.0
C1404 C 0.52739 0.47725 0.62339 0.0
C1405 C 0.5149 0.4883 0.6133 0.0
C1406 C 0.61014 0.4962 0.61661 0.0
C1407 C 0.54675 0.37189 0.67219 0.0
C1408 C 0.58943 0.47409 0.63625 0.0
C1409 C 0.40391 0.50176 0.64034 0.0
C1410 C 0.3767 0.44834 0.63999 0.0
C1411 C 0.6536 0.48063 0.67197 0.0
C1412 C 0.48011 0.45897 0.7126 0.0
C1413 C 0.45434 0.44353 0.73169 0.0
C1414 C 0.41417 0.39494 0.72883 0.0
C1415 C 0.43942 0.41032 0.71 0.0
C1416 C 0.48716 0.47567 0.72348 0.0
C1417 C 0.40667 0.3787 0.71808 0.0
C1418 C 0.61088 0.56878 0.67206 0.0
C1419 C 0.51817 0.49014 0.70425 0.0
H1420 H 0.5395 0.51344 0.59721 0.0
H1421 H 0.49948 0.46488 0.62968 0.0
H1422 H 0.47815 0.48548 0.61207 0.0
H1423 H 0.64691 0.49914 0.61795 0.0
H1424 H 0.38817 0.36959 0.73494 0.0
H1425 H 0.43349 0.39628 0.70176 0.0
H1426 H 0.51886 0.51287 0.7256 0.0
H1427 H 0.37556 0.34117 0.716 0.0
Eu1428 Eu 0.55916 0.09786 0.65436 0.0
C1429 C 0.58396 0.17599 0.70522 0.0
N1430 N 0.60842 0.15718 0.69919 0.0
C1431 C 0.68568 0.20755 0.70911 0.0
C1432 C 0.61045 0.21275 0.71333 0.0
C1433 C 0.65836 0.17199 0.70107 0.0
C1434 C 0.66173 0.22821 0.71526 0.0
C1435 C 0.50723 0.17961 0.70924 0.0
C1436 C 0.53218 0.15828 0.70339 0.0
C1437 C 0.53365 0.21611 0.71729 0.0
C1438 C 0.58496 0.23237 0.71938 0.0
Eu1439 Eu 0.55674 0.09157 0.68713 0.0
N1440 N 0.50655 0.12132 0.69579 0.0
C1441 C 0.45652 0.16421 0.70673 0.0
C1442 C 0.45671 0.10567 0.69349 0.0
C1443 C 0.43153 0.12776 0.6987 0.0
H1444 H 0.67708 0.15554 0.69652 0.0
H1445 H 0.39263 0.11646 0.69656 0.0
H1446 H 0.43794 0.9961 0.65151 0.0
H1447 H 0.73469 0.1113 0.6392 0.0
H1448 H 0.4358 0.07666 0.68762 0.0
H1449 H 0.43648 0.18055 0.71088 0.0
H1450 H 0.67842 0.14363 0.64564 0.0
H1451 H 0.72495 0.21825 0.71061 0.0
H1452 H 0.51462 0.23193 0.72199 0.0
H1453 H 0.60473 0.26035 0.72568 0.0
H1454 H 0.39623 0.90333 0.64941 0.0
H1455 H 0.68285 0.25557 0.72156 0.0
H1456 H 0.70041 0.01819 0.63746 0.0
N1457 N 0.51354 1.00778 0.65139 0.0
C1458 C 0.54232 0.98672 0.64834 0.0
C1459 C 0.43747 0.92609 0.64939 0.0
C1460 C 0.51977 0.93379 0.6464 0.0
C1461 C 0.46151 0.97883 0.65102 0.0
C1462 C 0.46681 0.90324 0.64734 0.0
N1463 N 0.61444 0.06962 0.64788 0.0
C1464 C 0.66371 0.10303 0.64496 0.0
C1465 C 0.62458 0.99841 0.64277 0.0
C1466 C 0.59406 0.01852 0.64642 0.0
C1467 C 0.67593 0.03224 0.64035 0.0
C1468 C 0.69539 0.08482 0.64131 0.0
H1469 H 0.44805 0.86245 0.64593 0.0
H1470 H 0.53378 0.87263 0.64185 0.0
H1471 H 0.6257 0.92923 0.63878 0.0
O1472 O 0.59279 0.15341 0.64107 0.0
O1473 O 0.61302 0.08019 0.66396 0.0
O1474 O 0.55607 0.0304 0.67638 0.0
O1475 O 0.51967 0.08677 0.63891 0.0
O1476 O 0.62592 0.16925 0.66158 0.0
O1477 O 0.63469 0.14774 0.67942 0.0
O1478 O 0.53074 0.05406 0.70307 0.0
O1479 O 0.55983 0.16318 0.68038 0.0
O1480 O 0.53089 0.147 0.66257 0.0
O1481 O 0.59378 0.05411 0.69484 0.0
O1482 O 0.47944 0.03587 0.6795 0.0
O1483 O 0.48156 0.07059 0.66255 0.0
C1484 C 0.59739 0.04261 0.67085 0.0
C1485 C 0.57083 0.11887 0.62332 0.0
C1486 C 0.57974 0.13583 0.60387 0.0
C1487 C 0.59845 0.10199 0.60269 0.0
C1488 C 0.58753 0.0836 0.62178 0.0
C1489 C 0.602 0.07583 0.61159 0.0
C1490 C 0.56614 0.14456 0.61424 0.0
C1491 C 0.6511 0.17837 0.67083 0.0
C1492 C 0.55617 0.12689 0.63426 0.0
C1493 C 0.55041 0.91327 0.64321 0.0
C1494 C 0.60273 0.94549 0.64143 0.0
C1495 C 0.5434 0.17477 0.67152 0.0
C1496 C 0.59739 0.05558 0.71409 0.0
C1497 C 0.6028 0.05362 0.73389 0.0
C1498 C 0.65614 0.07859 0.73311 0.0
C1499 C 0.65092 0.07783 0.71365 0.0
C1500 C 0.57321 0.04249 0.72434 0.0
C1501 C 0.67993 0.09034 0.72307 0.0
C1502 C 0.45646 0.04045 0.6708 0.0
C1503 C 0.56756 0.04348 0.7038 0.0
H1504 H 0.60895 0.09469 0.59478 0.0
H1505 H 0.58853 0.06116 0.62837 0.0
H1506 H 0.61517 0.04875 0.61057 0.0
H1507 H 0.5517 0.17069 0.61522 0.0
H1508 H 0.67941 0.08737 0.74033 0.0
H1509 H 0.67087 0.08576 0.70601 0.0
H1510 H 0.53197 0.02304 0.72489 0.0
H1511 H 0.72107 0.1083 0.72257 0.0
Eu1512 Eu 0.56497 0.09172 0.18858 0.0
C1513 C 0.47496 1.00693 0.14339 0.0
N1514 N 0.51063 0.01154 0.15073 0.0
C1515 C 0.48807 0.92435 0.1478 0.0
C1516 C 0.44426 0.96025 0.13798 0.0
C1517 C 0.5182 0.97148 0.15284 0.0
C1518 C 0.45105 0.91873 0.14031 0.0
C1519 C 0.43363 0.0455 0.1334 0.0
C1520 C 0.46948 0.04919 0.14117 0.0
C1521 C 0.40345 0.99915 0.12795 0.0
C1522 C 0.40844 0.9566 0.1303 0.0
Eu1523 Eu 0.5666 0.09575 0.15649 0.0
N1524 N 0.5001 0.09419 0.14631 0.0
C1525 C 0.4293 0.08863 0.13126 0.0
C1526 C 0.49585 0.13633 0.1443 0.0
C1527 C 0.46005 0.13399 0.13684 0.0
H1528 H 0.54807 0.97599 0.15822 0.0
H1529 H 0.45717 0.16759 0.13516 0.0
H1530 H 0.49373 0.13255 0.20067 0.0
H1531 H 0.75509 0.1258 0.1996 0.0
H1532 H 0.52154 0.17252 0.14803 0.0
H1533 H 0.40256 0.08737 0.12527 0.0
H1534 H 0.67085 0.08084 0.19059 0.0
H1535 H 0.49408 0.89267 0.14953 0.0
H1536 H 0.37576 0.99573 0.12195 0.0
H1537 H 0.38466 0.92109 0.12605 0.0
H1538 H 0.50287 0.19397 0.2149 0.0
H1539 H 0.42819 0.88231 0.13632 0.0
H1540 H 0.77511 0.19689 0.21215 0.0
N1541 N 0.57183 0.15297 0.20116 0.0
C1542 C 0.61755 0.17986 0.20628 0.0
C1543 C 0.53564 0.19109 0.21242 0.0
C1544 C 0.62422 0.2146 0.21458 0.0
C1545 C 0.53067 0.15684 0.2043 0.0
C1546 C 0.58266 0.22016 0.21757 0.0
N1547 N 0.64658 0.1308 0.19683 0.0
C1548 C 0.68011 0.11313 0.19574 0.0
C1549 C 0.70234 0.1931 0.20984 0.0
C1550 C 0.65607 0.16869 0.20401 0.0
C1551 C 0.73886 0.17851 0.20793 0.0
C1552 C 0.72755 0.13813 0.20091 0.0
H1553 H 0.58591 0.24493 0.22419 0.0
H1554 H 0.67667 0.26701 0.22653 0.0
H1555 H 0.74445 0.24721 0.22251 0.0
O1556 O 0.51166 0.01321 0.194 0.0
O1557 O 0.6419 0.1434 0.18014 0.0
O1558 O 0.62506 0.1708 0.16406 0.0
O1559 O 0.55797 0.07054 0.20567 0.0
O1560 O 0.57905 0.0328 0.17975 0.0
O1561 O 0.62061 0.07327 0.1642 0.0
O1562 O 0.58454 0.12696 0.13997 0.0
O1563 O 0.4966 0.03348 0.16582 0.0
O1564 O 0.48922 0.07331 0.18076 0.0
O1565 O 0.62558 0.09267 0.14692 0.0
O1566 O 0.56115 0.16228 0.16397 0.0
O1567 O 0.53633 0.14461 0.18215 0.0
C1568 C 0.65425 0.17827 0.17254 0.0
C1569 C 0.47983 1.00335 0.21236 0.0
C1570 C 0.4517 0.99013 0.23143 0.0
C1571 C 0.40112 0.95973 0.22785 0.0
C1572 C 0.42877 0.9731 0.20911 0.0
C1573 C 0.38984 0.95159 0.21681 0.0
C1574 C 0.49101 0.01195 0.22359 0.0
C1575 C 0.61255 0.04109 0.17207 0.0
C1576 C 0.52195 0.02387 0.20427 0.0
C1577 C 0.6709 0.24017 0.22013 0.0
C1578 C 0.70972 0.22927 0.21778 0.0
C1579 C 0.46773 0.0419 0.17257 0.0
C1580 C 0.61072 0.08305 0.128 0.0
C1581 C 0.61919 0.08206 0.10826 0.0
C1582 C 0.59879 0.02885 0.10874 0.0
C1583 C 0.5913 0.03008 0.12818 0.0
C1584 C 0.625 0.10901 0.118 0.0
C1585 C 0.58513 1.00324 0.11862 0.0
C1586 C 0.54503 0.17201 0.17318 0.0
C1587 C 0.61689 0.11133 0.13819 0.0
H1588 H 0.37004 0.94276 0.23362 0.0
H1589 H 0.41885 0.96568 0.20063 0.0
H1590 H 0.35062 0.92828 0.21421 0.0
H1591 H 0.5303 0.03479 0.22622 0.0
H1592 H 0.59312 1.00684 0.10144 0.0
H1593 H 0.58136 0.00935 0.13572 0.0
H1594 H 0.64142 0.15009 0.11787 0.0
H1595 H 0.56988 0.96237 0.11887 0.0
Eu1596 Eu 0.93111 0.47247 0.18812 0.0
C1597 C 0.02087 0.46321 0.14398 0.0
N1598 N 0.01553 0.49582 0.15072 0.0
C1599 C 0.10357 0.55893 0.14821 0.0
C1600 C 0.06861 0.47718 0.13927 0.0
C1601 C 0.05539 0.54383 0.15252 0.0
C1602 C 0.11032 0.52534 0.14161 0.0
C1603 C 0.98218 0.38353 0.13396 0.0
C1604 C 0.9781 0.41646 0.14146 0.0
C1605 C 0.02979 0.39717 0.12937 0.0
C1606 C 0.07295 0.44357 0.13211 0.0
Eu1607 Eu 0.93117 0.47013 0.15595 0.0
N1608 N 0.93215 0.40435 0.14586 0.0
C1609 C 0.93817 0.33789 0.13119 0.0
C1610 C 0.88903 0.36001 0.1431 0.0
C1611 C 0.89152 0.32587 0.13586 0.0
H1612 H 0.04988 0.57072 0.15713 0.0
H1613 H 0.85716 0.29107 0.13362 0.0
H1614 H 0.88842 0.35763 0.19917 0.0
H1615 H 0.90753 0.63092 0.20183 0.0
H1616 H 0.8521 0.35224 0.14592 0.0
H1617 H 0.93971 0.31201 0.12535 0.0
H1618 H 0.9466 0.58937 0.19136 0.0
H1619 H 0.13522 0.5968 0.14981 0.0
H1620 H 0.0336 0.37204 0.12367 0.0
H1621 H 0.10933 0.45363 0.12844 0.0
H1622 H 0.82772 0.30412 0.21341 0.0
H1623 H 0.14756 0.5374 0.13815 0.0
H1624 H 0.83836 0.58031 0.21486 0.0
N1625 N 0.87121 0.41731 0.20083 0.0
C1626 C 0.84634 0.43661 0.20656 0.0
C1627 C 0.83208 0.34098 0.21148 0.0
C1628 C 0.81258 0.40807 0.21496 0.0
C1629 C 0.86608 0.37109 0.20339 0.0
C1630 C 0.80497 0.35945 0.21725 0.0
N1631 N 0.89567 0.51538 0.19744 0.0
C1632 C 0.91495 0.56685 0.1967 0.0
C1633 C 0.83752 0.5097 0.21138 0.0
C1634 C 0.85882 0.48704 0.2048 0.0
C1635 C 0.85415 0.56166 0.21002 0.0
C1636 C 0.89337 0.59045 0.2027 0.0
H1637 H 0.77992 0.33697 0.22377 0.0
H1638 H 0.76432 0.40869 0.22782 0.0
H1639 H 0.78659 0.49772 0.22479 0.0
O1640 O 0.95794 0.49248 0.2048 0.0
O1641 O 0.88353 0.50238 0.17951 0.0
O1642 O 0.85768 0.45724 0.16357 0.0
O1643 O 1.00654 0.48551 0.19304 0.0
O1644 O 0.99245 0.54435 0.1795 0.0
O1645 O 0.95477 0.54734 0.16364 0.0
O1646 O 0.89982 0.4567 0.13954 0.0
O1647 O 0.99081 0.46165 0.16599 0.0
O1648 O 0.94521 0.41262 0.18021 0.0
O1649 O 0.94231 0.53355 0.14555 0.0
O1650 O 0.86407 0.39568 0.16291 0.0
O1651 O 0.86925 0.39438 0.18186 0.0
C1652 C 0.84897 0.47923 0.17184 0.0
C1653 C 1.00974 0.46103 0.21135 0.0
C1654 C 0.02836 0.4489 0.23016 0.0
C1655 C 0.02532 0.40274 0.227 0.0
C1656 C 1.00689 0.41478 0.20849 0.0
C1657 C 0.01465 0.38594 0.21628 0.0
C1658 C 0.02009 0.47772 0.22222 0.0
C1659 C 0.98681 0.57033 0.17162 0.0
C1660 C 0.99951 0.49098 0.20327 0.0
C1661 C 0.79006 0.43002 0.22128 0.0
C1662 C 0.80266 0.48072 0.21953 0.0
C1663 C 0.97941 0.42323 0.17262 0.0
C1664 C 0.87991 0.51634 0.13208 0.0
C1665 C 0.84839 0.53586 0.11552 0.0
C1666 C 0.80924 0.5361 0.12162 0.0
C1667 C 0.8409 0.51732 0.13798 0.0
C1668 C 0.88381 0.526 0.12086 0.0
C1669 C 0.80559 0.52684 0.13276 0.0
C1670 C 0.84778 0.37303 0.1725 0.0
C1671 C 0.91621 0.5045 0.13747 0.0
H1672 H 0.03206 0.37989 0.23279 0.0
H1673 H 0.99828 0.4007 0.20026 0.0
H1674 H 1.01255 0.35039 0.21399 0.0
H1675 H 0.021 0.51277 0.22449 0.0
H1676 H 0.7821 0.54466 0.11783 0.0
H1677 H 0.83795 0.51091 0.14663 0.0
H1678 H 0.9142 0.5256 0.11629 0.0
H1679 H 0.77548 0.52741 0.13737 0.0
Eu1680 Eu 0.55468 0.45716 0.18996 0.0
C1681 C 0.55676 0.5574 0.14782 0.0
N1682 N 0.52232 0.51416 0.15305 0.0
C1683 C 0.45641 0.53464 0.14995 0.0
C1684 C 0.54237 0.59198 0.14375 0.0
C1685 C 0.47242 0.50153 0.15384 0.0
C1686 C 0.49157 0.58018 0.14493 0.0
C1687 C 0.64283 0.6117 0.14115 0.0
C1688 C 0.60641 0.56683 0.14645 0.0
C1689 C 0.62901 0.64696 0.1374 0.0
C1690 C 0.57888 0.63702 0.13865 0.0
Eu1691 Eu 0.55059 0.45698 0.15773 0.0
N1692 N 0.6188 0.5318 0.15004 0.0
C1693 C 0.69189 0.6194 0.13954 0.0
C1694 C 0.66646 0.53879 0.14827 0.0
C1695 C 0.70379 0.58288 0.14312 0.0
H1696 H 0.44464 0.46495 0.15702 0.0
H1697 H 0.74143 0.58816 0.14171 0.0
H1698 H 0.67227 0.51983 0.20031 0.0
H1699 H 0.38957 0.28582 0.20554 0.0
H1700 H 0.67574 0.50991 0.15043 0.0
H1701 H 0.72028 0.65267 0.13526 0.0
H1702 H 0.43481 0.36511 0.19475 0.0
H1703 H 0.41678 0.52453 0.15062 0.0
H1704 H 0.65668 0.68174 0.13337 0.0
H1705 H 0.56865 0.66429 0.13559 0.0
H1706 H 0.72644 0.50337 0.21261 0.0
H1707 H 0.47902 0.60569 0.14188 0.0
H1708 H 0.43853 0.25737 0.21666 0.0
N1709 N 0.60955 0.44412 0.2013 0.0
C1710 C 0.58845 0.39855 0.20653 0.0
C1711 C 0.68814 0.47313 0.21084 0.0
C1712 C 0.61729 0.38823 0.21403 0.0
C1713 C 0.65766 0.48218 0.20375 0.0
C1714 C 0.66807 0.42567 0.2159 0.0
N1715 N 0.50853 0.37854 0.19903 0.0
C1716 C 0.45643 0.35202 0.19934 0.0
C1717 C 0.51193 0.32086 0.21198 0.0
C1718 C 0.53627 0.36501 0.20548 0.0
C1719 C 0.45861 0.29151 0.21177 0.0
C1720 C 0.43075 0.30758 0.20554 0.0
H1721 H 0.69096 0.41925 0.22172 0.0
H1722 H 0.6153 0.33463 0.22587 0.0
H1723 H 0.52285 0.27589 0.22419 0.0
O1724 O 0.53144 0.51147 0.19571 0.0
O1725 O 0.52068 0.37824 0.18173 0.0
O1726 O 0.5621 0.39475 0.1653 0.0
O1727 O 0.55165 0.47116 0.20723 0.0
O1728 O 0.48092 0.44559 0.18182 0.0
O1729 O 0.47412 0.40449 0.1657 0.0
O1730 O 0.56868 0.44552 0.14113 0.0
O1731 O 0.55569 0.52158 0.16846 0.0
O1732 O 0.61126 0.53109 0.18168 0.0
O1733 O 0.49112 0.40344 0.14677 0.0
O1734 O 0.62094 0.45659 0.16432 0.0
O1735 O 0.63384 0.48214 0.1824 0.0
C1736 C 0.53989 0.3645 0.17365 0.0
C1737 C 0.5626 0.5502 0.21323 0.0
C1738 C 0.57925 0.58485 0.23176 0.0
C1739 C 0.60513 0.63439 0.22738 0.0
C1740 C 0.58869 0.60014 0.20912 0.0
C1741 C 0.60983 0.64186 0.21617 0.0
C1742 C 0.55841 0.54284 0.22458 0.0
C1743 C 0.45317 0.41374 0.17406 0.0
C1744 C 0.53816 0.50524 0.20592 0.0
C1745 C 0.59367 0.3428 0.22002 0.0
C1746 C 0.54106 0.30933 0.21905 0.0
C1747 C 0.59695 0.55156 0.17411 0.0
C1748 C 0.50339 0.42221 0.12805 0.0
C1749 C 0.4802 0.39876 0.10907 0.0
C1750 C 0.46518 0.43582 0.10839 0.0
C1751 C 0.48826 0.45891 0.12707 0.0
C1752 C 0.49971 0.39239 0.11897 0.0
C1753 C 0.46942 0.46574 0.11732 0.0
C1754 C 0.64952 0.47205 0.17317 0.0
C1755 C 0.52155 0.41375 0.13853 0.0
H1756 H 0.62236 0.66746 0.23264 0.0
H1757 H 0.59269 0.607 0.20048 0.0
H1758 H 0.63 0.68025 0.21294 0.0
H1759 H 0.53819 0.50442 0.22783 0.0
H1760 H 0.44914 0.44105 0.10099 0.0
H1761 H 0.49044 0.48207 0.13383 0.0
H1762 H 0.51193 0.36438 0.11964 0.0
H1763 H 0.45748 0.49395 0.11672 0.0
Eu1764 Eu 0.43345 0.22416 0.9899 0.0
C1765 C 0.3434 0.12652 0.03397 0.0
N1766 N 0.34821 0.16297 0.02684 0.0
C1767 C 0.25978 0.13715 0.02911 0.0
C1768 C 0.29591 0.09344 0.03886 0.0
C1769 C 0.30781 0.16988 0.02469 0.0
C1770 C 0.25373 0.0986 0.0362 0.0
C1771 C 0.38311 0.08855 0.04467 0.0
C1772 C 0.38658 0.12382 0.03677 0.0
C1773 C 0.33589 0.05565 0.04955 0.0
C1774 C 0.29234 0.05768 0.04656 0.0
Eu1775 Eu 0.43266 0.22298 0.02188 0.0
N1776 N 0.43225 0.15698 0.03217 0.0
C1777 C 0.42726 0.08739 0.0475 0.0
C1778 C 0.47538 0.1555 0.03481 0.0
C1779 C 0.47333 0.12031 0.04241 0.0
H1780 H 0.31319 0.20165 0.0199 0.0
H1781 H 0.5075 0.11944 0.04458 0.0
H1782 H 0.46966 0.14929 0.97823 0.0
H1783 H 0.46164 0.4086 0.97637 0.0
H1784 H 0.51202 0.18305 0.03153 0.0
H1785 H 0.42618 0.06114 0.05361 0.0
H1786 H 0.4214 0.32822 0.9869 0.0
H1787 H 0.22782 0.14257 0.02728 0.0
H1788 H 0.33261 0.02822 0.05559 0.0
H1789 H 0.25622 0.03209 0.05041 0.0
H1790 H 0.52599 0.15308 0.96339 0.0
H1791 H 0.21669 0.07392 0.03979 0.0
H1792 H 0.53058 0.42587 0.96337 0.0
N1793 N 0.49189 0.22763 0.97705 0.0
C1794 C 0.51786 0.27183 0.97138 0.0
C1795 C 0.52518 0.18715 0.9657 0.0
C1796 C 0.55017 0.27572 0.96276 0.0
C1797 C 0.49365 0.1851 0.97415 0.0
C1798 C 0.55408 0.23284 0.96006 0.0
N1799 N 0.47077 0.30322 0.98071 0.0
C1800 C 0.4526 0.3364 0.98149 0.0
C1801 C 0.52949 0.35506 0.96676 0.0
C1802 C 0.50718 0.3109 0.97329 0.0
C1803 C 0.51408 0.39132 0.96818 0.0
C1804 C 0.47504 0.38165 0.97549 0.0
H1805 H 0.57757 0.23403 0.95333 0.0
H1806 H 0.59951 0.32444 0.94999 0.0
H1807 H 0.58113 0.39361 0.95343 0.0
O1808 O 0.357 0.16355 0.98498 0.0
O1809 O 0.48269 0.30209 0.99833 0.0
O1810 O 0.50704 0.28226 0.01438 0.0
O1811 O 0.40702 0.21777 0.97321 0.0
O1812 O 0.3718 0.23437 0.99841 0.0
O1813 O 0.40971 0.27681 0.01404 0.0
O1814 O 0.46566 0.24352 0.03817 0.0
O1815 O 0.37346 0.15388 0.01196 0.0
O1816 O 0.4188 0.15003 0.99774 0.0
O1817 O 0.42209 0.27643 0.03195 0.0
O1818 O 0.50115 0.21856 0.01503 0.0
O1819 O 0.49118 0.20166 0.99639 0.0
C1820 C 0.51584 0.31395 0.00632 0.0
C1821 C 0.35423 0.13474 0.96678 0.0
C1822 C 0.33903 0.1043 0.94797 0.0
C1823 C 0.3431 0.06196 0.95127 0.0
C1824 C 0.35828 0.09215 0.9698 0.0
C1825 C 0.35253 0.05598 0.96208 0.0
C1826 C 0.34415 0.14042 0.95585 0.0
C1827 C 0.37789 0.26734 0.006 0.0
C1828 C 0.36465 0.17549 0.97473 0.0
C1829 C 0.57441 0.32071 0.95661 0.0
C1830 C 0.564 0.36019 0.95859 0.0
C1831 C 0.3847 0.1267 1.00536 0.0
C1832 C 0.41775 0.26068 0.05083 0.0
C1833 C 0.41812 0.27481 0.07035 0.0
C1834 C 0.36561 0.23891 0.07064 0.0
C1835 C 0.3651 0.22638 0.05137 0.0
C1836 C 0.44419 0.28518 0.06037 0.0
C1837 C 0.33941 0.215 0.06121 0.0
C1838 C 0.51484 0.20645 0.00576 0.0
C1839 C 0.44497 0.27114 0.04038 0.0
H1840 H 0.33821 0.03294 0.94548 0.0
H1841 H 0.3666 0.08715 0.97809 0.0
H1842 H 0.35559 0.02319 0.96448 0.0
H1843 H 0.34139 0.17343 0.95344 0.0
H1844 H 0.34415 0.23075 0.07809 0.0
H1845 H 0.34346 0.20887 0.04418 0.0
H1846 H 0.48468 0.31262 0.05999 0.0
H1847 H 0.29876 0.18837 0.06149 0.0
Eu1848 Eu 0.80408 0.21545 0.98994 0.0
C1849 C 0.87611 0.16903 0.0278 0.0
N1850 N 0.82606 0.14811 0.02507 0.0
C1851 C 0.81569 0.06427 0.0267 0.0
C1852 C 0.89885 0.13843 0.02913 0.0
C1853 C 0.79498 0.09637 0.02576 0.0
C1854 C 0.86827 0.08552 0.02799 0.0
C1855 C 0.95258 0.24191 0.03489 0.0
C1856 C 0.90275 0.22003 0.03069 0.0
C1857 C 0.97692 0.21276 0.0353 0.0
C1858 C 0.95014 0.16109 0.03238 0.0
Eu1859 Eu 0.79608 0.20699 0.02256 0.0
N1860 N 0.87849 0.24743 0.0301 0.0
C1861 C 0.97537 0.29156 0.03903 0.0
C1862 C 0.8994 0.29496 0.03454 0.0
C1863 C 0.94807 0.31771 0.03909 0.0
H1864 H 0.75402 0.07953 0.02569 0.0
H1865 H 0.96391 0.35512 0.0427 0.0
H1866 H 0.7898 0.31712 0.98451 0.0
H1867 H 0.69504 0.01988 0.97467 0.0
H1868 H 0.8785 0.31535 0.03441 0.0
H1869 H 1.01305 0.30898 0.04261 0.0
H1870 H 0.76896 0.09352 0.98267 0.0
H1871 H 0.79093 0.02323 0.0267 0.0
H1872 H 0.01563 0.2292 0.03831 0.0
H1873 H 0.96849 0.13836 0.03325 0.0
H1874 H 0.72883 0.33525 0.97524 0.0
H1875 H 0.88417 0.06063 0.02895 0.0
H1876 H 0.62749 0.03061 0.96578 0.0
N1877 N 0.74784 0.23729 0.98132 0.0
C1878 C 0.70839 0.19903 0.97576 0.0
C1879 C 0.72286 0.29693 0.97526 0.0
C1880 C 0.67447 0.20866 0.96974 0.0
C1881 C 0.75676 0.28621 0.98074 0.0
C1882 C 0.68174 0.25813 0.96968 0.0
N1883 N 0.73787 0.1427 0.98115 0.0
C1884 C 0.7374 0.0976 0.97994 0.0
C1885 C 0.66258 0.11047 0.96998 0.0
C1886 C 0.70271 0.15039 0.97587 0.0
C1887 C 0.65856 0.06241 0.96995 0.0
C1888 C 0.69646 0.05615 0.9749 0.0
H1889 H 0.65648 0.26708 0.96521 0.0
H1890 H 0.61007 0.17618 0.95879 0.0
H1891 H 0.59821 0.08993 0.95934 0.0
O1892 O 0.81678 0.20026 0.97325 0.0
O1893 O 0.73484 0.21651 0.99742 0.0
O1894 O 0.71896 0.18509 0.01508 0.0
O1895 O 0.86858 0.27307 0.9803 0.0
O1896 O 0.79447 0.14375 0.99866 0.0
O1897 O 0.74302 0.13482 0.01298 0.0
O1898 O 0.77832 0.24503 0.03547 0.0
O1899 O 0.87132 0.26233 0.01387 0.0
O1900 O 0.87146 0.21784 0.99902 0.0
O1901 O 0.76765 0.17049 0.03836 0.0
O1902 O 0.7983 0.27817 0.0159 0.0
O1903 O 0.83044 0.29316 0.99825 0.0
C1904 C 0.70552 0.19892 0.0061 0.0
C1905 C 0.89702 0.24665 0.96461 0.0
C1906 C 0.92839 0.24566 0.94624 0.0
C1907 C 0.97278 0.24988 0.95092 0.0
C1908 C 0.94168 0.25089 0.96899 0.0
C1909 C 0.97924 0.25242 0.96216 0.0
C1910 C 0.89039 0.24368 0.95324 0.0
C1911 C 0.75542 0.11435 1.00499 0.0
C1912 C 0.8564 0.24474 0.97163 0.0
C1913 C 0.63516 0.16907 0.96378 0.0
C1914 C 0.62878 0.12001 0.96401 0.0
C1915 C 0.89659 0.25161 0.00664 0.0
C1916 C 0.71366 0.19259 0.04782 0.0
C1917 C 0.66208 0.16538 0.06436 0.0
C1918 C 0.62175 0.16495 0.05857 0.0
C1919 C 0.67306 0.19224 0.04228 0.0
C1920 C 0.70808 0.17923 0.05885 0.0
C1921 C 0.62753 0.17876 0.04765 0.0
C1922 C 0.81638 0.30736 0.0072 0.0
C1923 C 0.76208 0.20726 0.04223 0.0
H1924 H 1.00311 0.25219 0.94587 0.0
H1925 H 0.94747 0.25296 0.97767 0.0
H1926 H 0.01377 0.25592 0.9656 0.0
H1927 H 0.85541 0.23948 0.94987 0.0
H1928 H 0.58531 0.15298 0.0624 0.0
H1929 H 0.67657 0.20236 0.0338 0.0
H1930 H 0.73965 0.17985 0.06314 0.0
H1931 H 0.59653 0.17875 0.0433 0.0
Eu1932 Eu 0.81493 0.58117 0.98915 0.0
C1933 C 0.81013 0.69192 0.0295 0.0
N1934 N 0.84406 0.68038 0.02492 0.0
C1935 C 0.91089 0.76744 0.02674 0.0
C1936 C 0.82532 0.74252 0.03256 0.0
C1937 C 0.89416 0.71688 0.0238 0.0
C1938 C 0.8763 0.7804 0.03108 0.0
C1939 C 0.72334 0.66489 0.03511 0.0
C1940 C 0.75963 0.6533 0.03083 0.0
C1941 C 0.73838 0.71526 0.0381 0.0
C1942 C 0.78923 0.7539 0.03687 0.0
Eu1943 Eu 0.81308 0.59309 0.02138 0.0
N1944 N 0.74583 0.60473 0.02783 0.0
C1945 C 0.67288 0.62551 0.03629 0.0
C1946 C 0.69678 0.56601 0.02922 0.0
C1947 C 0.65956 0.57588 0.03335 0.0
H1948 H 0.92171 0.70697 0.02102 0.0
H1949 H 0.62074 0.54503 0.0344 0.0
H1950 H 0.70105 0.52517 0.97714 0.0
H1951 H 0.98214 0.56496 0.97904 0.0
H1952 H 0.68604 0.52714 0.02744 0.0
H1953 H 0.64413 0.63296 0.03961 0.0
H1954 H 0.93605 0.60554 0.98691 0.0
H1955 H 0.95064 0.79625 0.02579 0.0
H1956 H 0.71091 0.72475 0.04137 0.0
H1957 H 0.80019 0.79258 0.0392 0.0
H1958 H 0.64942 0.45124 0.96533 0.0
H1959 H 0.88943 0.81965 0.03334 0.0
H1960 H 0.93507 0.48489 0.9686 0.0
N1961 N 0.76331 0.51152 0.97788 0.0
C1962 C 0.7852 0.48536 0.97378 0.0
C1963 C 0.68714 0.45969 0.96775 0.0
C1964 C 0.75785 0.44386 0.96669 0.0
C1965 C 0.71615 0.50118 0.97454 0.0
C1966 C 0.70771 0.43028 0.96395 0.0
N1967 N 0.86311 0.54634 0.98185 0.0
C1968 C 0.91507 0.56992 0.9826 0.0
C1969 C 0.86173 0.48004 0.97079 0.0
C1970 C 0.83668 0.50348 0.97576 0.0
C1971 C 0.91449 0.50192 0.97222 0.0
C1972 C 0.9413 0.54732 0.97806 0.0
H1973 H 0.68551 0.39869 0.95852 0.0
H1974 H 0.76163 0.38688 0.95673 0.0
H1975 H 0.85233 0.41802 0.96046 0.0
O1976 O 0.83595 0.65662 0.98252 0.0
O1977 O 0.84694 0.53916 0.99912 0.0
O1978 O 0.80173 0.51752 0.01505 0.0
O1979 O 0.8236 0.59563 0.97174 0.0
O1980 O 0.88642 0.64605 0.99732 0.0
O1981 O 0.89111 0.616 0.01415 0.0
O1982 O 0.7908 0.56677 0.03812 0.0
O1983 O 0.80776 0.64886 0.00951 0.0
O1984 O 0.75623 0.59917 0.99606 0.0
O1985 O 0.86921 0.59903 0.03332 0.0
O1986 O 0.74233 0.52161 0.01488 0.0
O1987 O 0.73469 0.52706 0.99615 0.0
C1988 C 0.82503 0.5073 0.00727 0.0
C1989 C 0.80253 0.65509 0.9648 0.0
C1990 C 0.78078 0.66371 0.94603 0.0
C1991 C 0.74479 0.67614 0.95001 0.0
C1992 C 0.76593 0.66707 0.96851 0.0
C1993 C 0.73746 0.67768 0.96114 0.0
C1994 C 0.80988 0.65361 0.95354 0.0
C1995 C 0.91322 0.644 0.00553 0.0
C1996 C 0.83188 0.64188 0.97245 0.0
C1997 C 0.78215 0.41905 0.96213 0.0
C1998 C 0.83384 0.43683 0.96425 0.0
C1999 C 0.76763 0.6351 1.00327 0.0
C2000 C 0.85365 0.60935 0.05171 0.0
C2001 C 0.86658 0.61083 0.07136 0.0
C2002 C 0.88744 0.66408 0.0712 0.0
C2003 C 0.87496 0.66253 0.05187 0.0
C2004 C 0.84943 0.58346 0.06152 0.0
C2005 C 0.8916 0.6896 0.06154 0.0
C2006 C 0.71627 0.50517 0.00568 0.0
C2007 C 0.83698 0.58112 0.04134 0.0
H2008 H 0.72147 0.68361 0.94449 0.0
H2009 H 0.75897 0.66782 0.97709 0.0
H2010 H 0.70909 0.68655 0.96408 0.0
H2011 H 0.83825 0.64455 0.95065 0.0
H2012 H 0.9001 0.68604 0.07862 0.0
H2013 H 0.87916 0.68336 0.04453 0.0
H2014 H 0.83363 0.54246 0.06146 0.0
H2015 H 0.90785 0.73063 0.06154 0.0
Eu2016 Eu 0.46686 0.92246 0.8539 0.0
C2017 C 0.40489 0.83241 0.80465 0.0
N2018 N 0.45098 0.85694 0.8097 0.0
C2019 C 0.48088 0.81112 0.79903 0.0
C2020 C 0.39463 0.79478 0.79676 0.0
C2021 C 0.4896 0.84862 0.80667 0.0
C2022 C 0.43294 0.78354 0.79417 0.0
C2023 C 0.32503 0.82907 0.80022 0.0
C2024 C 0.37029 0.84934 0.80638 0.0
C2025 C 0.31334 0.78932 0.79288 0.0
C2026 C 0.34803 0.77219 0.79115 0.0
Eu2027 Eu 0.46291 0.92181 0.8219 0.0
N2028 N 0.38361 0.88956 0.81313 0.0
C2029 C 0.29444 0.85154 0.80109 0.0
C2030 C 0.35567 0.91364 0.8135 0.0
C2031 C 0.31017 0.8944 0.80765 0.0
H2032 H 0.52721 0.87109 0.81018 0.0
H2033 H 0.28711 0.9124 0.80823 0.0
H2034 H 0.48275 0.04119 0.85261 0.0
H2035 H 0.57144 0.85246 0.87765 0.0
H2036 H 0.36842 0.94753 0.81835 0.0
H2037 H 0.25942 0.83705 0.79648 0.0
H2038 H 0.50713 0.84563 0.86456 0.0
H2039 H 0.51151 0.80451 0.79671 0.0
H2040 H 0.27869 0.77329 0.78813 0.0
H2041 H 0.33937 0.74293 0.78513 0.0
H2042 H 0.54098 0.12694 0.85968 0.0
H2043 H 0.42665 0.7557 0.78799 0.0
H2044 H 0.6317 0.93549 0.8858 0.0
N2045 N 0.5228 1.00731 0.85955 0.0
C2046 C 0.56052 0.01362 0.86647 0.0
C2047 C 0.54729 0.09558 0.86156 0.0
C2048 C 0.59371 0.06185 0.87107 0.0
C2049 C 0.51464 0.04695 0.8574 0.0
C2050 C 0.58727 0.10319 0.86836 0.0
N2051 N 0.53244 0.92524 0.86478 0.0
C2052 C 0.53476 0.88279 0.86763 0.0
C2053 C 0.60193 0.97657 0.8769 0.0
C2054 C 0.56514 0.97149 0.86922 0.0
C2055 C 0.60435 0.93321 0.87984 0.0
C2056 C 0.5707 0.88625 0.87518 0.0
H2057 H 0.61206 0.14079 0.8717 0.0
H2058 H 0.65701 0.10386 0.88206 0.0
H2059 H 0.66363 0.02906 0.88731 0.0
O2060 O 0.44866 0.89296 0.87052 0.0
O2061 O 0.53404 0.98367 0.84409 0.0
O2062 O 0.53825 0.93918 0.82974 0.0
O2063 O 0.4034 0.92048 0.86261 0.0
O2064 O 0.47973 0.85855 0.84701 0.0
O2065 O 0.48081 0.86066 0.82804 0.0
O2066 O 0.52572 0.99552 0.81625 0.0
O2067 O 0.38642 0.8766 0.83103 0.0
O2068 O 0.40952 0.8482 0.846 0.0
O2069 O 0.46812 0.94537 0.80503 0.0
O2070 O 0.45341 0.98428 0.83029 0.0
O2071 O 0.41486 0.94905 0.84648 0.0
C2072 C 0.56138 0.97255 0.83754 0.0
C2073 C 0.41102 0.92896 0.88165 0.0
C2074 C 0.38209 0.92035 0.90043 0.0
C2075 C 0.395 0.97205 0.90024 0.0
C2076 C 0.42413 0.98048 0.88172 0.0
C2077 C 0.41666 1.00196 0.89103 0.0
C2078 C 0.39217 0.89981 0.89113 0.0
C2079 C 0.48516 0.8418 0.83741 0.0
C2080 C 0.41233 0.90365 0.87158 0.0
C2081 C 0.63126 0.06713 0.87846 0.0
C2082 C 0.63494 0.02452 0.88147 0.0
C2083 C 0.37575 0.84164 0.83857 0.0
C2084 C 0.5504 0.99295 0.79798 0.0
C2085 C 0.57707 1.00282 0.779 0.0
C2086 C 0.61686 0.99405 0.782 0.0
C2087 C 0.59057 0.98448 0.80077 0.0
C2088 C 0.54407 1.00261 0.78707 0.0
C2089 C 0.62369 0.98531 0.79281 0.0
C2090 C 0.42221 0.97927 0.83821 0.0
C2091 C 0.51188 0.98657 0.80612 0.0
H2092 H 0.38713 0.98919 0.90711 0.0
H2093 H 0.43897 1.00375 0.87453 0.0
H2094 H 0.42616 0.04154 0.89101 0.0
H2095 H 0.3845 0.86082 0.89108 0.0
H2096 H 0.64296 0.99428 0.77597 0.0
H2097 H 0.59578 0.97623 0.80905 0.0
H2098 H 0.51266 1.00837 0.78483 0.0
H2099 H 0.65446 0.97856 0.79501 0.0
Eu2100 Eu 0.10283 0.54511 0.8545 0.0
C2101 C 0.19484 0.56222 0.80703 0.0
N2102 N 0.18591 0.59277 0.8137 0.0
C2103 C 0.26497 0.66545 0.808 0.0
C2104 C 0.23898 0.58271 0.80046 0.0
C2105 C 0.21973 0.64407 0.81393 0.0
C2106 C 0.27452 0.63477 0.80114 0.0
C2107 C 0.16924 0.47774 0.80006 0.0
C2108 C 0.15945 0.51029 0.80657 0.0
C2109 C 0.2122 0.49835 0.79333 0.0
C2110 C 0.2461 0.55088 0.7933 0.0
Eu2111 Eu 0.10412 0.55232 0.82221 0.0
N2112 N 0.11589 0.49135 0.81256 0.0
C2113 C 0.13553 0.42526 0.8005 0.0
C2114 C 0.08114 0.44044 0.81234 0.0
C2115 C 0.09194 0.40667 0.80686 0.0
H2116 H 0.21082 0.66989 0.81789 0.0
H2117 H 0.06643 0.36638 0.80746 0.0
H2118 H 1.00325 0.42318 0.85627 0.0
H2119 H 0.11331 0.71133 0.87417 0.0
H2120 H 0.04467 0.42536 0.8162 0.0
H2121 H 0.14267 0.39882 0.79596 0.0
H2122 H 0.14707 0.66064 0.86541 0.0
H2123 H 0.29143 0.70605 0.80843 0.0
H2124 H 0.21947 0.474 0.78807 0.0
H2125 H 0.2784 0.56633 0.78785 0.0
H2126 H 0.90988 0.37902 0.858 0.0
H2127 H 0.30899 0.65178 0.7963 0.0
H2128 H 0.01991 0.67504 0.87602 0.0
N2129 N 1.01264 0.49772 0.85691 0.0
C2130 C 0.99087 0.52472 0.86072 0.0
C2131 C 0.93189 0.42027 0.85839 0.0
C2132 C 0.93771 0.50092 0.86247 0.0
C2133 C 0.98479 0.44564 0.85693 0.0
C2134 C 0.90794 0.4483 0.86078 0.0
N2135 N 0.07363 0.59619 0.86278 0.0
C2136 C 0.10633 0.64444 0.86639 0.0
C2137 C 1.00137 0.60305 0.86859 0.0
C2138 C 0.0223 0.57494 0.86399 0.0
C2139 C 0.03458 0.65262 0.87227 0.0
C2140 C 0.0873 0.67321 0.87125 0.0
H2141 H 0.86706 0.42851 0.86209 0.0
H2142 H 0.87562 0.51209 0.86773 0.0
H2143 H 0.93138 0.60181 0.87295 0.0
O2144 O 0.13802 0.5702 0.87054 0.0
O2145 O 0.08083 0.5988 0.84608 0.0
O2146 O 0.03783 0.55105 0.83153 0.0
O2147 O 0.10188 0.49101 0.86627 0.0
O2148 O 0.17518 0.61468 0.84835 0.0
O2149 O 0.15173 0.62909 0.83131 0.0
O2150 O 0.06532 0.53048 0.80638 0.0
O2151 O 0.15778 0.52594 0.82924 0.0
O2152 O 0.17535 0.55386 0.84709 0.0
O2153 O 0.09314 0.60637 0.81252 0.0
O2154 O 0.03867 0.47906 0.82974 0.0
O2155 O 0.07856 0.47146 0.84484 0.0
C2156 C 0.04564 0.58651 0.83866 0.0
C2157 C 0.09715 0.50943 0.88447 0.0
C2158 C 0.09486 0.48085 0.90305 0.0
C2159 C 0.04365 0.46904 0.90381 0.0
C2160 C 0.04628 0.49774 0.88546 0.0
C2161 C 0.01984 0.47801 0.89511 0.0
C2162 C 0.12171 0.50222 0.89336 0.0
C2163 C 0.1831 0.64399 0.83977 0.0
C2164 C 0.12322 0.52435 0.87395 0.0
C2165 C 0.91644 0.52958 0.86652 0.0
C2166 C 0.94821 0.58056 0.86956 0.0
C2167 C 0.18609 0.53775 0.83808 0.0
C2168 C 0.09741 0.59817 0.79345 0.0
C2169 C 0.09442 0.59793 0.77357 0.0
C2170 C 0.14418 0.64004 0.77346 0.0
C2171 C 0.14599 0.6421 0.79295 0.0
C2172 C 0.07116 0.57654 0.78365 0.0
C2173 C 0.16952 0.66199 0.78307 0.0
C2174 C 0.04518 0.45042 0.83693 0.0
C2175 C 0.0742 0.57627 0.80417 0.0
H2176 H 0.02154 0.45179 0.91106 0.0
H2177 H 0.02663 0.50274 0.87873 0.0
H2178 H 0.98036 0.46849 0.89576 0.0
H2179 H 0.1614 0.51256 0.8926 0.0
H2180 H 0.16284 0.65733 0.76588 0.0
H2181 H 0.16575 0.66188 0.8002 0.0
H2182 H 0.03297 0.54373 0.78385 0.0
H2183 H 0.20723 0.69526 0.78284 0.0
Eu2184 Eu 0.47954 0.56709 0.85599 0.0
C2185 C 0.46075 0.62037 0.80684 0.0
N2186 N 0.43254 0.57583 0.81225 0.0
C2187 C 0.35805 0.55929 0.80232 0.0
C2188 C 0.43782 0.63677 0.79908 0.0
C2189 C 0.3822 0.54504 0.81 0.0
C2190 C 0.38582 0.60564 0.79687 0.0
C2191 C 0.5425 0.69611 0.80346 0.0
C2192 C 0.51296 0.64884 0.80878 0.0
C2193 C 0.51966 0.71266 0.79581 0.0
C2194 C 0.46766 0.68265 0.7935 0.0
Eu2195 Eu 0.47689 0.5502 0.82386 0.0
N2196 N 0.53503 0.62995 0.8156 0.0
C2197 C 0.59442 0.72512 0.80585 0.0
C2198 C 0.58671 0.65611 0.81696 0.0
C2199 C 0.61641 0.70517 0.81273 0.0
H2200 H 0.36114 0.50828 0.81376 0.0
H2201 H 0.65661 0.72707 0.81457 0.0
H2202 H 0.59566 0.57141 0.85802 0.0
H2203 H 0.30452 0.44477 0.87757 0.0
H2204 H 0.6061 0.63943 0.82094 0.0
H2205 H 0.61808 0.76232 0.80221 0.0
H2206 H 0.36095 0.51404 0.86502 0.0
H2207 H 0.31846 0.53355 0.80046 0.0
H2208 H 0.54225 0.74803 0.79144 0.0
H2209 H 0.45097 0.69487 0.78728 0.0
H2210 H 0.62777 0.51566 0.86378 0.0
H2211 H 0.3673 0.6166 0.79081 0.0
H2212 H 0.33421 0.38943 0.88568 0.0
N2213 N 0.51775 0.51834 0.86154 0.0
C2214 C 0.48652 0.47603 0.86752 0.0
C2215 C 0.58761 0.50327 0.86461 0.0
C2216 C 0.50468 0.44493 0.87192 0.0
C2217 C 0.56858 0.53405 0.86083 0.0
C2218 C 0.55527 0.45794 0.86999 0.0
N2219 N 0.41992 0.49546 0.86563 0.0
C2220 C 0.37314 0.48864 0.86825 0.0
C2221 C 0.40628 0.4257 0.87712 0.0
C2222 C 0.43716 0.46555 0.86996 0.0
C2223 C 0.35838 0.41876 0.87997 0.0
C2224 C 0.34149 0.44995 0.87541 0.0
H2225 H 0.5705 0.43489 0.87317 0.0
H2226 H 0.48621 0.37918 0.88196 0.0
H2227 H 0.40066 0.36319 0.88674 0.0
O2228 O 0.45571 0.60796 0.86707 0.0
O2229 O 0.4272 0.48801 0.84859 0.0
O2230 O 0.47949 0.49159 0.83517 0.0
O2231 O 0.51322 0.5902 0.87206 0.0
O2232 O 0.4113 0.5661 0.84799 0.0
O2233 O 0.39759 0.52131 0.8318 0.0
O2234 O 0.50052 0.53593 0.80792 0.0
O2235 O 0.46851 0.61697 0.83014 0.0
O2236 O 0.51439 0.64104 0.84603 0.0
O2237 O 0.43401 0.47641 0.81588 0.0
O2238 O 0.55279 0.56756 0.83183 0.0
O2239 O 0.55748 0.61075 0.84776 0.0
C2240 C 0.44173 0.46429 0.84184 0.0
C2241 C 0.51591 0.66106 0.88036 0.0
C2242 C 0.55386 0.70828 0.89707 0.0
C2243 C 0.57611 0.75396 0.89111 0.0
C2244 C 0.53869 0.70695 0.87458 0.0
C2245 C 0.56896 0.75307 0.87993 0.0
C2246 C 0.52365 0.66176 0.89161 0.0
C2247 C 0.38213 0.54059 0.83965 0.0
C2248 C 0.48711 0.61189 0.87473 0.0
C2249 C 0.47282 0.40342 0.87857 0.0
C2250 C 0.42417 0.39442 0.88132 0.0
C2251 C 0.49399 0.65144 0.83765 0.0
C2252 C 0.43152 0.47658 0.79658 0.0
C2253 C 0.42727 0.47162 0.7767 0.0
C2254 C 0.37404 0.44921 0.7773 0.0
C2255 C 0.37776 0.4513 0.7968 0.0
C2256 C 0.45623 0.48571 0.78639 0.0
C2257 C 0.34955 0.43889 0.78727 0.0
C2258 C 0.57912 0.59941 0.83977 0.0
C2259 C 0.46073 0.49044 0.80698 0.0
H2260 H 0.60028 0.79021 0.89507 0.0
H2261 H 0.53365 0.70686 0.86592 0.0
H2262 H 0.58785 0.78811 0.87536 0.0
H2263 H 0.50663 0.62616 0.89608 0.0
H2264 H 0.35114 0.43796 0.77 0.0
H2265 H 0.35704 0.44074 0.80437 0.0
H2266 H 0.49736 0.50292 0.786 0.0
H2267 H 0.30832 0.42024 0.78762 0.0
Eu2268 Eu 0.59785 0.7921 0.98924 0.0
C2269 C 0.50834 0.7403 0.03919 0.0
N2270 N 0.53666 0.78523 0.0339 0.0
C2271 C 0.50451 0.82631 0.04537 0.0
C2272 C 0.47519 0.73633 0.04763 0.0
C2273 C 0.53629 0.82827 0.03699 0.0
C2274 C 0.47333 0.78003 0.05064 0.0
C2275 C 0.49142 0.65451 0.04309 0.0
C2276 C 0.51716 0.70015 0.03707 0.0
C2277 C 0.45585 0.64931 0.05101 0.0
C2278 C 0.44787 0.69015 0.0533 0.0
Eu2279 Eu 0.5959 0.78829 0.0213 0.0
N2280 N 0.55462 0.70771 0.02996 0.0
C2281 C 0.50417 0.61648 0.04139 0.0
C2282 C 0.57034 0.67262 0.029 0.0
C2283 C 0.54416 0.6258 0.03439 0.0
H2284 H 0.56159 0.86434 0.03312 0.0
H2285 H 0.55519 0.59716 0.03326 0.0
H2286 H 0.71686 0.80926 0.99251 0.0
H2287 H 0.53284 0.89914 0.96488 0.0
H2288 H 0.6021 0.68026 0.02381 0.0
H2289 H 0.48478 0.58065 0.04575 0.0
H2290 H 0.52392 0.83436 0.97816 0.0
H2291 H 0.50529 0.86086 0.04793 0.0
H2292 H 0.43571 0.61452 0.05569 0.0
H2293 H 0.42182 0.68622 0.05974 0.0
H2294 H 0.80249 0.86311 0.9849 0.0
H2295 H 0.44974 0.77897 0.05733 0.0
H2296 H 0.61644 0.95505 0.9563 0.0
N2297 N 0.68376 0.84719 0.98421 0.0
C2298 C 0.69088 0.88322 0.97673 0.0
C2299 C 0.77156 0.8694 0.98259 0.0
C2300 C 0.73919 0.914 0.97193 0.0
C2301 C 0.72295 0.8392 0.987 0.0
C2302 C 0.77974 0.90695 0.97503 0.0
N2303 N 0.60294 0.85777 0.97813 0.0
C2304 C 0.56134 0.86118 0.97509 0.0
C2305 C 0.65569 0.92448 0.96561 0.0
C2306 C 0.64953 0.88869 0.97364 0.0
C2307 C 0.61325 0.92836 0.96252 0.0
C2308 C 0.566 0.89692 0.96735 0.0
H2309 H 0.81736 0.92989 0.97153 0.0
H2310 H 0.78219 0.97386 0.96027 0.0
H2311 H 0.70904 0.98256 0.95464 0.0
O2312 O 0.56939 0.77412 0.97252 0.0
O2313 O 0.6586 0.85965 0.99916 0.0
O2314 O 0.61474 0.86449 0.01358 0.0
O2315 O 0.59859 0.73028 0.9803 0.0
O2316 O 0.534 0.80554 0.99602 0.0
O2317 O 0.5374 0.80953 0.01502 0.0
O2318 O 0.67267 0.84616 0.02662 0.0
O2319 O 0.54782 0.71266 0.01206 0.0
O2320 O 0.52204 0.73577 0.99668 0.0
O2321 O 0.61943 0.79359 0.03825 0.0
O2322 O 0.65545 0.77373 0.0131 0.0
O2323 O 0.61966 0.73691 0.99682 0.0
C2324 C 0.64807 0.88732 0.00577 0.0
C2325 C 0.61382 0.74514 0.96149 0.0
C2326 C 0.61996 0.73609 0.94195 0.0
C2327 C 0.6724 0.75384 0.94314 0.0
C2328 C 0.6662 0.76211 0.96244 0.0
C2329 C 0.69527 0.76687 0.95331 0.0
C2330 C 0.59086 0.73252 0.95117 0.0
C2331 C 0.51805 0.81262 0.00559 0.0
C2332 C 0.58321 0.74012 0.97123 0.0
C2333 C 0.74539 0.95 0.96404 0.0
C2334 C 0.7037 0.95488 0.96081 0.0
C2335 C 0.51305 0.70332 1.00459 0.0
C2336 C 0.67389 0.87705 0.04458 0.0
C2337 C 0.68493 0.90965 0.06326 0.0
C2338 C 0.68916 0.95498 0.05909 0.0
C2339 C 0.67844 0.9229 0.04078 0.0
C2340 C 0.67721 0.87058 0.05586 0.0
C2341 C 0.68613 0.96149 0.048 0.0
C2342 C 0.64901 0.74223 1.00512 0.0
C2343 C 0.6629 0.83497 0.03689 0.0
H2344 H 0.69588 0.75804 0.93616 0.0
H2345 H 0.68473 0.77136 0.97024 0.0
H2346 H 0.73566 0.78034 0.95413 0.0
H2347 H 0.55045 0.71926 0.95035 0.0
H2348 H 0.6942 0.98546 0.06446 0.0
H2349 H 0.67545 0.92882 0.03223 0.0
H2350 H 0.67404 0.83541 0.05883 0.0
H2351 H 0.68931 0.99657 0.04498 0.0
Eu2352 Eu 0.23491 0.80253 0.98856 0.0
C2353 C 0.32429 0.82225 0.03544 0.0
N2354 N 0.28266 0.78293 0.03075 0.0
C2355 C 0.30297 0.72313 0.03868 0.0
C2356 C 0.35775 0.8134 0.04181 0.0
C2357 C 0.27127 0.73378 0.03238 0.0
C2358 C 0.34648 0.763 0.04341 0.0
C2359 C 0.37545 0.91295 0.03887 0.0
C2360 C 0.33227 0.87118 0.03417 0.0
C2361 C 0.40993 0.90463 0.04491 0.0
C2362 C 0.40038 0.85484 0.04659 0.0
Eu2363 Eu 0.22801 0.80314 0.02108 0.0
N2364 N 0.29628 0.87761 0.02896 0.0
C2365 C 0.38164 0.96164 0.03768 0.0
C2366 C 0.29856 0.92375 0.02934 0.0
C2367 C 0.34261 0.96694 0.03298 0.0
H2368 H 0.23774 0.70272 0.02881 0.0
H2369 H 0.34586 1.00396 0.03222 0.0
H2370 H 0.25924 0.92424 0.98464 0.0
H2371 H 0.06923 0.6252 0.9753 0.0
H2372 H 0.26664 0.92761 0.02678 0.0
H2373 H 0.41542 0.99484 0.04072 0.0
H2374 H 0.15703 0.68016 0.98214 0.0
H2375 H 0.29347 0.68415 0.03987 0.0
H2376 H 0.44295 0.93624 0.04868 0.0
H2377 H 0.4255 0.8487 0.0518 0.0
H2378 H 0.21149 0.96837 0.98079 0.0
H2379 H 0.37051 0.75429 0.04839 0.0
H2380 H 0.01431 0.66257 0.97142 0.0
N2381 N 0.19376 0.84977 0.98423 0.0
C2382 C 0.14444 0.82176 0.98081 0.0
C2383 C 0.19181 0.92708 0.98102 0.0
C2384 C 0.11604 0.84552 0.978 0.0
C2385 C 0.21852 0.9018 0.98357 0.0
C2386 C 0.14003 0.89879 0.97845 0.0
N2387 N 0.15132 0.74742 0.98216 0.0
C2388 C 0.13317 0.69654 0.98042 0.0
C2389 C 0.07248 0.73933 0.97577 0.0
C2390 C 0.1229 0.7693 0.97957 0.0
C2391 C 0.05282 0.6868 0.97437 0.0
C2392 C 0.08355 0.66547 0.97658 0.0
H2393 H 0.11957 0.91849 0.97635 0.0
H2394 H 0.04279 0.83325 0.97243 0.0
H2395 H 1.00455 0.74025 0.97056 0.0
O2396 O 0.25453 0.76555 0.97558 0.0
O2397 O 0.16121 0.75408 0.99824 0.0
O2398 O 0.16524 0.80656 0.01161 0.0
O2399 O 0.268 0.84157 0.97332 0.0
O2400 O 0.23674 0.73511 0.99614 0.0
O2401 O 0.20005 0.72398 0.01332 0.0
O2402 O 0.20841 0.81928 0.03714 0.0
O2403 O 0.2934 0.79462 0.01386 0.0
O2404 O 0.31211 0.83328 0.99705 0.0
O2405 O 0.16092 0.74577 0.02984 0.0
O2406 O 0.23595 0.87215 0.01152 0.0
O2407 O 0.2855 0.8788 0.99696 0.0
C2408 C 0.13795 0.77029 1.0047 0.0
C2409 C 0.24892 0.79169 0.95766 0.0
C2410 C 0.26347 0.80732 0.93818 0.0
C2411 C 0.21021 0.7812 0.93661 0.0
C2412 C 0.19623 0.76446 0.95574 0.0
C2413 C 0.17705 0.75922 0.9453 0.0
C2414 C 0.28253 0.81257 0.94882 0.0
C2415 C 0.2142 0.70701 1.00481 0.0
C2416 C 0.26892 0.80332 0.96883 0.0
C2417 C 0.06526 0.81563 0.97451 0.0
C2418 C 0.04353 0.76269 0.9734 0.0
C2419 C 0.32504 0.8166 0.00569 0.0
C2420 C 0.16825 0.74858 0.04906 0.0
C2421 C 0.15817 0.74465 0.06881 0.0
C2422 C 0.16594 0.70256 0.06898 0.0
C2423 C 0.17368 0.70512 0.0495 0.0
C2424 C 0.16007 0.76804 0.05878 0.0
C2425 C 0.17345 0.68294 0.0594 0.0
C2426 C 0.27322 0.90035 1.00472 0.0
C2427 C 0.17035 0.77331 0.03856 0.0
H2428 H 0.19381 0.77885 0.92871 0.0
H2429 H 0.16959 0.74841 0.96226 0.0
H2430 H 0.13621 0.73918 0.94398 0.0
H2431 H 0.32331 0.83371 0.95028 0.0
H2432 H 0.16433 0.68356 0.07653 0.0
H2433 H 0.17759 0.6878 0.0422 0.0
H2434 H 0.15481 0.80094 0.05853 0.0
H2435 H 0.17818 0.64978 0.05962 0.0
Eu2436 Eu 0.21838 0.42668 0.98958 0.0
C2437 C 0.24302 0.52772 0.03674 0.0
N2438 N 0.2713 0.51604 0.02999 0.0
C2439 C 0.3466 0.59489 0.03471 0.0
C2440 C 0.26582 0.57397 0.04266 0.0
C2441 C 0.32293 0.54795 0.02942 0.0
C2442 C 0.31809 0.60782 0.04146 0.0
C2443 C 0.16156 0.50393 0.04514 0.0
C2444 C 0.19138 0.49271 0.03808 0.0
C2445 C 0.18423 0.54981 0.05097 0.0
C2446 C 0.23621 0.58464 0.04977 0.0
Eu2447 Eu 0.22691 0.43296 0.02212 0.0
N2448 N 0.17006 0.44803 0.03244 0.0
C2449 C 0.10945 0.46906 0.04599 0.0
C2450 C 0.11937 0.41338 0.03346 0.0
C2451 C 0.08838 0.42402 0.04005 0.0
H2452 H 0.3473 0.53593 0.02581 0.0
H2453 H 0.04835 0.39731 0.04066 0.0
H2454 H 0.09825 0.32444 0.98817 0.0
H2455 H 0.39397 0.44244 0.97364 0.0
H2456 H 0.10265 0.37704 0.02942 0.0
H2457 H 0.08512 0.47664 0.05118 0.0
H2458 H 0.33819 0.47422 0.98068 0.0
H2459 H 0.3873 0.61999 0.03394 0.0
H2460 H 0.16177 0.55876 0.05643 0.0
H2461 H 0.25319 0.61971 0.05441 0.0
H2462 H 0.05672 0.23169 0.98571 0.0
H2463 H 0.33716 0.64327 0.04595 0.0
H2464 H 0.35958 0.34963 0.97134 0.0
N2465 N 0.17379 0.33662 0.98717 0.0
C2466 C 0.20242 0.31634 0.9835 0.0
C2467 C 0.09791 0.25477 0.98538 0.0
C2468 C 0.17994 0.26357 0.98138 0.0
C2469 C 0.12182 0.30736 0.98721 0.0
C2470 C 0.12723 0.23253 0.98273 0.0
N2471 N 0.27369 0.4 0.9824 0.0
C2472 C 0.32306 0.43368 0.9796 0.0
C2473 C 0.28389 0.32923 0.97692 0.0
C2474 C 0.25355 0.34889 0.98093 0.0
C2475 C 0.33506 0.36335 0.9744 0.0
C2476 C 0.35461 0.4158 0.97567 0.0
H2477 H 0.10853 0.19187 0.98118 0.0
H2478 H 0.19372 0.2032 0.97607 0.0
H2479 H 0.28499 0.26052 0.97246 0.0
O2480 O 0.24597 0.46327 0.97373 0.0
O2481 O 0.2713 0.40649 0.99879 0.0
O2482 O 0.22197 0.36469 0.01316 0.0
O2483 O 0.16557 0.42062 0.97688 0.0
O2484 O 0.28476 0.50161 0.99557 0.0
O2485 O 0.3021 0.4791 0.01236 0.0
O2486 O 0.20546 0.39329 0.03782 0.0
O2487 O 0.1979 0.48401 0.01499 0.0
O2488 O 0.21866 0.49587 0.99664 0.0
O2489 O 0.28195 0.42335 0.03181 0.0
O2490 O 0.15199 0.36744 0.01508 0.0
O2491 O 0.1437 0.40102 0.99893 0.0
C2492 C 0.25762 0.37142 0.00625 0.0
C2493 C 0.19108 0.41963 0.95903 0.0
C2494 C 0.16824 0.4158 0.93995 0.0
C2495 C 0.16142 0.36626 0.93939 0.0
C2496 C 0.18527 0.37082 0.95816 0.0
C2497 C 0.17068 0.34439 0.9484 0.0
C2498 C 0.18321 0.44233 0.94988 0.0
C2499 C 0.31471 0.51125 1.00408 0.0
C2500 C 0.20062 0.44489 0.96964 0.0
C2501 C 0.21027 0.24372 0.97757 0.0
C2502 C 0.26219 0.27639 0.97545 0.0
C2503 C 0.20429 0.50821 0.00569 0.0
C2504 C 0.27207 0.4254 0.0509 0.0
C2505 C 0.27095 0.41903 0.07072 0.0
C2506 C 0.31057 0.47004 0.07122 0.0
C2507 C 0.3137 0.47529 0.05176 0.0
C2508 C 0.25113 0.39691 0.06049 0.0
C2509 C 0.33188 0.49774 0.06181 0.0
C2510 C 0.12337 0.37118 0.00744 0.0
C2511 C 0.2515 0.40309 0.04007 0.0
H2512 H 0.14746 0.34361 0.9321 0.0
H2513 H 0.19052 0.35249 0.96508 0.0
H2514 H 0.16521 0.30623 0.94789 0.0
H2515 H 0.18769 0.48008 0.95056 0.0
H2516 H 0.32679 0.48784 0.07893 0.0
H2517 H 0.33311 0.49685 0.04468 0.0
H2518 H 0.22025 0.35772 0.05999 0.0
H2519 H 0.36353 0.53641 0.06231 0.0
Eu2520 Eu 0.23291 0.43297 0.52274 0.0
C2521 C 0.12265 0.34329 0.48076 0.0
N2522 N 0.16473 0.34842 0.48595 0.0
C2523 C 0.13708 0.26014 0.48286 0.0
C2524 C 0.08527 0.29545 0.47667 0.0
C2525 C 0.17312 0.3082 0.48679 0.0
C2526 C 0.0929 0.25367 0.47781 0.0
C2527 C 0.07228 0.38086 0.47476 0.0
C2528 C 0.1165 0.3858 0.47974 0.0
C2529 C 0.03462 0.33309 0.47085 0.0
C2530 C 0.04122 0.2906 0.47175 0.0
Eu2531 Eu 0.22658 0.43243 0.49063 0.0
N2532 N 0.15376 0.43187 0.48349 0.0
C2533 C 0.06745 0.42428 0.4737 0.0
C2534 C 0.14976 0.4746 0.48218 0.0
C2535 C 0.10634 0.47131 0.47741 0.0
H2536 H 0.20797 0.31337 0.49031 0.0
H2537 H 0.10335 0.50527 0.4764 0.0
H2538 H 0.16567 0.47947 0.53452 0.0
H2539 H 0.41674 0.45432 0.5345 0.0
H2540 H 0.18046 0.51174 0.48447 0.0
H2541 H 0.0344 0.42212 0.46981 0.0
H2542 H 0.33452 0.41622 0.52468 0.0
H2543 H 0.14366 0.22824 0.4836 0.0
H2544 H 1.00036 0.32868 0.46705 0.0
H2545 H 1.0119 0.25407 0.46866 0.0
H2546 H 0.17761 0.5426 0.54856 0.0
H2547 H 0.06506 0.21634 0.47478 0.0
H2548 H 0.43914 0.52452 0.5475 0.0
N2549 N 0.2423 0.49508 0.53538 0.0
C2550 C 0.28762 0.51948 0.54071 0.0
C2551 C 0.20911 0.53711 0.54632 0.0
C2552 C 0.29549 0.55445 0.54905 0.0
C2553 C 0.20262 0.5019 0.53829 0.0
C2554 C 0.2559 0.56374 0.55169 0.0
N2555 N 0.31357 0.46821 0.5312 0.0
C2556 C 0.34492 0.44804 0.53008 0.0
C2557 C 0.36954 0.52667 0.54474 0.0
C2558 C 0.32427 0.50564 0.53857 0.0
C2559 C 0.40379 0.509 0.54298 0.0
C2560 C 0.39121 0.46923 0.53568 0.0
H2561 H 0.26048 0.58967 0.55818 0.0
H2562 H 0.34765 0.60323 0.56145 0.0
H2563 H 0.41204 0.57836 0.55781 0.0
O2564 O 0.17634 0.35487 0.52762 0.0
O2565 O 0.30927 0.47966 0.51382 0.0
O2566 O 0.29173 0.50572 0.4976 0.0
O2567 O 0.22438 0.40925 0.53965 0.0
O2568 O 0.24161 0.37082 0.51398 0.0
O2569 O 0.27865 0.40535 0.49761 0.0
O2570 O 0.23707 0.46224 0.47407 0.0
O2571 O 0.16136 0.37322 0.50144 0.0
O2572 O 0.15829 0.41907 0.51554 0.0
O2573 O 0.27671 0.42343 0.47918 0.0
O2574 O 0.23155 0.50429 0.49806 0.0
O2575 O 0.20722 0.48804 0.51624 0.0
C2576 C 0.32173 0.51333 0.50595 0.0
C2577 C 0.14221 0.34921 0.5454 0.0
C2578 C 0.10957 0.33472 0.56394 0.0
C2579 C 0.06343 0.32917 0.56006 0.0
C2580 C 0.09571 0.34343 0.5417 0.0
C2581 C 0.05651 0.3332 0.549 0.0
C2582 C 0.14875 0.34429 0.55656 0.0
C2583 C 0.27126 0.37472 0.50581 0.0
C2584 C 0.18561 0.36423 0.53794 0.0
C2585 C 0.34119 0.57659 0.55496 0.0
C2586 C 0.37792 0.56249 0.55286 0.0
C2587 C 0.13427 0.38474 0.50803 0.0
C2588 C 0.25581 0.41825 0.46059 0.0
C2589 C 0.27694 0.41657 0.44152 0.0
C2590 C 0.23533 0.3666 0.44073 0.0
C2591 C 0.21494 0.36824 0.45954 0.0
C2592 C 0.28691 0.44245 0.45153 0.0
C2593 C 0.20462 0.34273 0.44968 0.0
C2594 C 0.21705 0.51559 0.50728 0.0
C2595 C 0.26683 0.44487 0.47113 0.0
H2596 H 0.03274 0.32175 0.56561 0.0
H2597 H 0.0899 0.34747 0.53319 0.0
H2598 H 0.02082 0.32895 0.54609 0.0
H2599 H 0.18472 0.34932 0.55953 0.0
H2600 H 0.22717 0.34546 0.43322 0.0
H2601 H 0.19114 0.3485 0.46631 0.0
H2602 H 0.31863 0.4811 0.45227 0.0
H2603 H 0.173 0.30404 0.449 0.0
Eu2604 Eu 0.59697 0.80925 0.5217 0.0
C2605 C 0.70624 0.83113 0.48417 0.0
N2606 N 0.68181 0.85679 0.48714 0.0
C2607 C 0.76065 0.93627 0.48548 0.0
C2608 C 0.75967 0.857 0.48266 0.0
C2609 C 0.70757 0.9089 0.48658 0.0
C2610 C 0.78709 0.91004 0.48387 0.0
C2611 C 0.70087 0.75303 0.4775 0.0
C2612 C 0.67728 0.77991 0.48144 0.0
C2613 C 0.75427 0.77777 0.47678 0.0
C2614 C 0.78361 0.8297 0.47932 0.0
Eu2615 Eu 0.5914 0.80615 0.4892 0.0
N2616 N 0.62563 0.75694 0.48213 0.0
C2617 C 0.66999 0.70252 0.4741 0.0
C2618 C 0.59519 0.70821 0.47848 0.0
C2619 C 0.61689 0.6802 0.47449 0.0
H2620 H 0.6874 0.92982 0.48654 0.0
H2621 H 0.59254 0.64154 0.47168 0.0
H2622 H 0.53391 0.68769 0.53093 0.0
H2623 H 0.59251 0.97791 0.5358 0.0
H2624 H 0.55413 0.6908 0.47891 0.0
H2625 H 0.68687 0.68105 0.4709 0.0
H2626 H 0.62482 0.93144 0.52519 0.0
H2627 H 0.78087 0.9776 0.48547 0.0
H2628 H 0.77312 0.75752 0.47393 0.0
H2629 H 0.82465 0.84883 0.4783 0.0
H2630 H 0.46901 0.63826 0.54451 0.0
H2631 H 0.82811 0.93132 0.48277 0.0
H2632 H 0.52287 0.93185 0.54899 0.0
N2633 N 0.52896 0.75506 0.53312 0.0
C2634 C 0.51027 0.77923 0.53933 0.0
C2635 C 0.47924 0.67741 0.54303 0.0
C2636 C 0.47362 0.75223 0.54742 0.0
C2637 C 0.5157 0.70552 0.5352 0.0
C2638 C 0.4576 0.70063 0.54909 0.0
N2639 N 0.56912 0.85852 0.53105 0.0
C2640 C 0.59265 0.91045 0.53044 0.0
C2641 C 0.51327 0.8578 0.54501 0.0
C2642 C 0.53061 0.83199 0.53825 0.0
C2643 C 0.53563 0.91082 0.54404 0.0
C2644 C 0.57539 0.93714 0.5367 0.0
H2645 H 0.43013 0.67906 0.55533 0.0
H2646 H 0.42834 0.75768 0.56034 0.0
H2647 H 0.46209 0.84977 0.55807 0.0
O2648 O 0.64075 0.8478 0.5363 0.0
O2649 O 0.53872 0.83022 0.51496 0.0
O2650 O 0.52313 0.80662 0.49673 0.0
O2651 O 0.62439 0.77085 0.53255 0.0
O2652 O 0.65594 0.88206 0.5133 0.0
O2653 O 0.61292 0.88158 0.49792 0.0
O2654 O 0.54908 0.77341 0.47408 0.0
O2655 O 0.60809 0.75035 0.49848 0.0
O2656 O 0.65698 0.80186 0.51197 0.0
O2657 O 0.59544 0.85428 0.47559 0.0
O2658 O 0.5206 0.73649 0.49579 0.0
O2659 O 0.53682 0.73211 0.51423 0.0
C2660 C 0.51157 0.82049 0.50596 0.0
C2661 C 0.68327 0.81406 0.54704 0.0
C2662 C 0.71042 0.81149 0.56565 0.0
C2663 C 0.75804 0.82165 0.56157 0.0
C2664 C 0.73076 0.82374 0.54318 0.0
C2665 C 0.76804 0.82776 0.55044 0.0
C2666 C 0.67342 0.80846 0.55826 0.0
C2667 C 0.64546 0.90643 0.50582 0.0
C2668 C 0.64244 0.80781 0.53963 0.0
C2669 C 0.45608 0.77793 0.55403 0.0
C2670 C 0.47552 0.83041 0.55277 0.0
C2671 C 0.64436 0.76267 0.50564 0.0
C2672 C 0.58965 0.82037 0.45824 0.0
C2673 C 0.59204 0.83833 0.43886 0.0
C2674 C 0.63687 0.8353 0.43798 0.0
C2675 C 0.63406 0.81723 0.45706 0.0
C2676 C 0.56854 0.83076 0.4491 0.0
C2677 C 0.65727 0.82429 0.447 0.0
C2678 C 0.50914 0.71312 0.5053 0.0
C2679 C 0.56781 0.81682 0.4691 0.0
H2680 H 0.78729 0.82389 0.56697 0.0
H2681 H 0.73883 0.82789 0.53458 0.0
H2682 H 0.80469 0.83509 0.54743 0.0
H2683 H 0.63678 0.80165 0.5612 0.0
H2684 H 0.65733 0.84316 0.4304 0.0
H2685 H 0.65168 0.81072 0.46395 0.0
H2686 H 0.53456 0.83386 0.45 0.0
H2687 H 0.69201 0.82253 0.44624 0.0
Eu2688 Eu 0.21876 0.79795 0.52293 0.0
C2689 C 0.21316 0.88486 0.47807 0.0
N2690 N 0.18378 0.84928 0.48558 0.0
C2691 C 0.11833 0.87137 0.4835 0.0
C2692 C 0.19593 0.91534 0.47301 0.0
C2693 C 0.1364 0.84127 0.48813 0.0
C2694 C 0.1482 0.90856 0.4759 0.0
C2695 C 0.29017 0.9252 0.46714 0.0
C2696 C 0.26016 0.89009 0.47524 0.0
C2697 C 0.27281 0.9552 0.46204 0.0
C2698 C 0.22613 0.95067 0.46505 0.0
Eu2699 Eu 0.21344 0.79375 0.49088 0.0
N2700 N 0.27576 0.85981 0.4801 0.0
C2701 C 0.33673 0.92898 0.46433 0.0
C2702 C 0.32153 0.86386 0.47748 0.0
C2703 C 0.35283 0.89879 0.46964 0.0
H2704 H 0.11206 0.81107 0.49352 0.0
H2705 H 0.38872 0.90139 0.46748 0.0
H2706 H 0.33445 0.87133 0.53347 0.0
H2707 H 0.06555 0.6172 0.5386 0.0
H2708 H 0.33303 0.8385 0.48098 0.0
H2709 H 0.36052 0.95509 0.45807 0.0
H2710 H 0.10304 0.69768 0.528 0.0
H2711 H 0.08092 0.8651 0.48562 0.0
H2712 H 0.29549 0.98239 0.45582 0.0
H2713 H 0.21341 0.97426 0.46106 0.0
H2714 H 0.3936 0.86325 0.54609 0.0
H2715 H 0.13373 0.93129 0.4722 0.0
H2716 H 0.12063 0.59749 0.54983 0.0
N2717 N 0.2779 0.79301 0.5345 0.0
C2718 C 0.2612 0.74807 0.53981 0.0
C2719 C 0.35689 0.83034 0.54425 0.0
C2720 C 0.29276 0.74227 0.5474 0.0
C2721 C 0.3238 0.83463 0.537 0.0
C2722 C 0.34139 0.78379 0.5494 0.0
N2723 N 0.17929 0.71953 0.53231 0.0
C2724 C 0.12752 0.68842 0.53267 0.0
C2725 C 0.19006 0.66624 0.54528 0.0
C2726 C 0.21029 0.71033 0.53874 0.0
C2727 C 0.13752 0.63205 0.54501 0.0
C2728 C 0.10608 0.64354 0.5388 0.0
H2729 H 0.3658 0.78115 0.55543 0.0
H2730 H 0.29726 0.69184 0.55925 0.0
H2731 H 0.20682 0.62615 0.55763 0.0
O2732 O 0.19642 0.85324 0.52843 0.0
O2733 O 0.1882 0.71925 0.51477 0.0
O2734 O 0.23196 0.73696 0.49869 0.0
O2735 O 0.20893 0.8079 0.5401 0.0
O2736 O 0.14378 0.78315 0.51493 0.0
O2737 O 0.13848 0.74028 0.49926 0.0
O2738 O 0.22504 0.77307 0.47451 0.0
O2739 O 0.22364 0.86475 0.5002 0.0
O2740 O 0.27422 0.87242 0.51455 0.0
O2741 O 0.14971 0.73551 0.48149 0.0
O2742 O 0.28735 0.8001 0.49734 0.0
O2743 O 0.29838 0.82536 0.51548 0.0
C2744 C 0.2099 0.70668 0.507 0.0
C2745 C 0.22644 0.88876 0.54617 0.0
C2746 C 0.24471 0.92222 0.56479 0.0
C2747 C 0.27774 0.97109 0.56056 0.0
C2748 C 0.25956 0.93804 0.54223 0.0
C2749 C 0.28498 0.97881 0.5494 0.0
C2750 C 0.21942 0.88103 0.55749 0.0
C2751 C 0.11657 0.74931 0.50745 0.0
C2752 C 0.19953 0.8448 0.5387 0.0
C2753 C 0.2735 0.69694 0.55339 0.0
C2754 C 0.22213 0.65928 0.55241 0.0
C2755 C 0.26208 0.8937 0.50669 0.0
C2756 C 0.15539 0.74587 0.46243 0.0
C2757 C 0.1342 0.72037 0.44344 0.0
C2758 C 0.11032 0.75011 0.44291 0.0
C2759 C 0.13056 0.77439 0.46167 0.0
C2760 C 0.15805 0.71978 0.45324 0.0
C2761 C 0.10892 0.77709 0.45193 0.0
C2762 C 0.31549 0.81723 0.50623 0.0
C2763 C 0.17686 0.74144 0.47285 0.0
H2764 H 0.29875 1.00334 0.56591 0.0
H2765 H 0.26612 0.94506 0.53363 0.0
H2766 H 0.31075 0.01663 0.5463 0.0
H2767 H 0.19407 0.84305 0.56061 0.0
H2768 H 0.09095 0.75117 0.43563 0.0
H2769 H 0.12713 0.79395 0.46862 0.0
H2770 H 0.17833 0.69882 0.45382 0.0
H2771 H 0.08961 0.79902 0.45144 0.0
Eu2772 Eu 0.09749 0.55217 0.32251 0.0
C2773 C 0.98578 0.46269 0.36064 0.0
N2774 N 1.00677 0.51218 0.35732 0.0
C2775 C 0.92456 0.50584 0.35845 0.0
C2776 C 0.93258 0.43182 0.36209 0.0
C2777 C 0.97752 0.53491 0.35721 0.0
C2778 C 0.90179 0.45369 0.36058 0.0
C2779 C 0.99749 0.39323 0.3671 0.0
C2780 C 0.01779 0.44373 0.36336 0.0
C2781 C 0.9444 0.36161 0.36794 0.0
C2782 C 0.91203 0.3809 0.36547 0.0
Eu2783 Eu 0.09707 0.55736 0.35521 0.0
N2784 N 0.06909 0.47496 0.36234 0.0
C2785 C 0.03124 0.37615 0.36998 0.0
C2786 C 0.10232 0.4592 0.36548 0.0
C2787 C 0.08386 0.40943 0.36925 0.0
H2788 H 0.99479 0.57573 0.35655 0.0
H2789 H 0.11023 0.39674 0.37155 0.0
H2790 H 0.22016 0.57821 0.31963 0.0
H2791 H 1.00277 0.64697 0.30487 0.0
H2792 H 0.143 0.48477 0.36474 0.0
H2793 H 0.01706 0.33761 0.37289 0.0
H2794 H 1.00756 0.58069 0.31487 0.0
H2795 H 0.9015 0.52395 0.35801 0.0
H2796 H 0.92803 0.3225 0.37068 0.0
H2797 H 0.87121 0.3565 0.36647 0.0
H2798 H 0.29809 0.64068 0.31048 0.0
H2799 H 0.86081 0.43137 0.36165 0.0
H2800 H 0.07868 0.71425 0.29515 0.0
N2801 N 0.17579 0.61066 0.31416 0.0
C2802 C 0.17432 0.64604 0.3076 0.0
C2803 C 0.26353 0.64242 0.30953 0.0
C2804 C 0.21788 0.68118 0.30175 0.0
C2805 C 0.21927 0.60765 0.31496 0.0
C2806 C 0.26275 0.67891 0.30279 0.0
N2807 N 0.08757 0.61297 0.31253 0.0
C2808 C 0.04198 0.61127 0.31138 0.0
C2809 C 0.12732 0.6852 0.30048 0.0
C2810 C 0.12941 0.64793 0.30697 0.0
C2811 C 0.08152 0.6858 0.29994 0.0
C2812 C 0.03873 0.64836 0.30537 0.0
H2813 H 0.29697 0.70493 0.29844 0.0
H2814 H 0.24802 0.74426 0.29043 0.0
H2815 H 0.16937 0.74863 0.28952 0.0
O2816 O 0.05957 0.52692 0.3067 0.0
O2817 O 0.15937 0.62906 0.32936 0.0
O2818 O 0.16375 0.62873 0.34819 0.0
O2819 O 0.10024 0.49177 0.31329 0.0
O2820 O 0.03338 0.55805 0.33114 0.0
O2821 O 0.07318 0.60798 0.34585 0.0
O2822 O 0.13891 0.56966 0.37051 0.0
O2823 O 0.07885 0.48459 0.34595 0.0
O2824 O 0.03252 0.48704 0.33182 0.0
O2825 O 0.08808 0.59909 0.36866 0.0
O2826 O 0.16984 0.56217 0.34862 0.0
O2827 O 0.14902 0.52729 0.33117 0.0
C2828 C 0.18075 0.65048 0.33867 0.0
C2829 C 0.10423 0.50431 0.29416 0.0
C2830 C 0.10384 0.50527 0.27424 0.0
C2831 C 0.15654 0.52301 0.27437 0.0
C2832 C 0.15679 0.52133 0.2939 0.0
C2833 C 0.18264 0.53112 0.28409 0.0
C2834 C 0.07761 0.49572 0.28423 0.0
C2835 C 0.04153 0.59612 0.33761 0.0
C2836 C 0.07794 0.49704 0.30474 0.0
C2837 C 0.21545 0.71768 0.29516 0.0
C2838 C 0.17051 0.72004 0.29461 0.0
C2839 C 0.0426 0.46057 0.33878 0.0
C2840 C 0.09603 0.57402 0.3862 0.0
C2841 C 0.09331 0.59025 0.40557 0.0
C2842 C 0.04916 0.54189 0.4065 0.0
C2843 C 0.05258 0.52583 0.38748 0.0
C2844 C 0.11655 0.60616 0.39529 0.0
C2845 C 0.02947 0.50982 0.39756 0.0
C2846 C 0.1793 0.54321 0.3398 0.0
C2847 C 0.11736 0.59222 0.37529 0.0
H2848 H 0.17759 0.52972 0.26688 0.0
H2849 H 0.17814 0.52703 0.30128 0.0
H2850 H 0.22316 0.54482 0.28399 0.0
H2851 H 0.037 0.48217 0.28428 0.0
H2852 H 0.02873 0.52924 0.41409 0.0
H2853 H 0.03559 0.50107 0.38064 0.0
H2854 H 0.14993 0.64363 0.39431 0.0
H2855 H 0.99537 0.47285 0.39838 0.0
Eu2856 Eu 0.46231 0.54985 0.3227 0.0
C2857 C 0.55269 0.54739 0.36796 0.0
N2858 N 0.5172 0.51609 0.36065 0.0
C2859 C 0.54082 0.45219 0.36357 0.0
C2860 C 0.58372 0.53189 0.3734 0.0
C2861 C 0.51006 0.46859 0.35859 0.0
C2862 C 0.57778 0.48395 0.37102 0.0
C2863 C 0.59258 0.62695 0.37804 0.0
C2864 C 0.55724 0.59465 0.37021 0.0
C2865 C 0.62243 0.61089 0.38366 0.0
C2866 C 0.61858 0.5639 0.38124 0.0
Eu2867 Eu 0.45974 0.54251 0.35487 0.0
N2868 N 0.52594 0.60822 0.36508 0.0
C2869 C 0.5963 0.67415 0.38014 0.0
C2870 C 0.52908 0.65405 0.36719 0.0
C2871 C 0.56481 0.68795 0.37462 0.0
H2872 H 0.47931 0.44269 0.35348 0.0
H2873 H 0.56692 0.72406 0.37633 0.0
H2874 H 0.50306 0.6734 0.31565 0.0
H2875 H 0.3004 0.37792 0.30668 0.0
H2876 H 0.50271 0.66393 0.3636 0.0
H2877 H 0.6228 0.69988 0.38614 0.0
H2878 H 0.38035 0.42818 0.31697 0.0
H2879 H 0.535 0.41452 0.36189 0.0
H2880 H 0.64932 0.63502 0.38979 0.0
H2881 H 0.64237 0.55242 0.38556 0.0
H2882 H 0.46767 0.72291 0.30765 0.0
H2883 H 0.60092 0.47076 0.37503 0.0
H2884 H 0.2605 0.42106 0.29733 0.0
N2885 N 0.43423 0.6019 0.31417 0.0
C2886 C 0.38798 0.57658 0.30919 0.0
C2887 C 0.44457 0.68186 0.30807 0.0
C2888 C 0.36805 0.60334 0.30354 0.0
C2889 C 0.46387 0.65361 0.31303 0.0
C2890 C 0.39623 0.65669 0.30337 0.0
N2891 N 0.38278 0.49872 0.31431 0.0
C2892 C 0.36203 0.4472 0.31329 0.0
C2893 C 0.31734 0.49637 0.30281 0.0
C2894 C 0.36237 0.52361 0.30896 0.0
C2895 C 0.29497 0.44333 0.30201 0.0
C2896 C 0.31739 0.41872 0.3073 0.0
H2897 H 0.38188 0.6786 0.29925 0.0
H2898 H 0.30613 0.59615 0.29348 0.0
H2899 H 0.26178 0.50225 0.29285 0.0
O2900 O 0.50039 0.51576 0.31368 0.0
O2901 O 0.38354 0.51618 0.3311 0.0
O2902 O 0.40266 0.56043 0.34711 0.0
O2903 O 0.48405 0.56934 0.30569 0.0
O2904 O 0.45511 0.47683 0.33049 0.0
O2905 O 0.41026 0.46713 0.34615 0.0
O2906 O 0.44001 0.5526 0.37144 0.0
O2907 O 0.52974 0.55038 0.34559 0.0
O2908 O 0.53894 0.60061 0.331 0.0
O2909 O 0.40034 0.47841 0.364 0.0
O2910 O 0.46121 0.614 0.34803 0.0
O2911 O 0.50051 0.62821 0.33129 0.0
C2912 C 0.37056 0.53598 0.3392 0.0
C2913 C 0.54771 0.55622 0.29749 0.0
C2914 C 0.58287 0.56976 0.27905 0.0
C2915 C 0.63063 0.58282 0.28352 0.0
C2916 C 0.59595 0.57002 0.30171 0.0
C2917 C 0.63709 0.58323 0.29474 0.0
C2918 C 0.54146 0.55654 0.28615 0.0
C2919 C 0.42194 0.44739 0.33793 0.0
C2920 C 0.50279 0.53926 0.30465 0.0
C2921 C 0.32182 0.57615 0.29788 0.0
C2922 C 0.29666 0.5228 0.29748 0.0
C2923 C 0.55931 0.58781 0.33896 0.0
C2924 C 0.41296 0.48119 0.383 0.0
C2925 C 0.39637 0.46348 0.40238 0.0
C2926 C 0.42264 0.43606 0.40205 0.0
C2927 C 0.43821 0.45293 0.38294 0.0
C2928 C 0.39186 0.48626 0.39277 0.0
C2929 C 0.44358 0.43114 0.39241 0.0
C2930 C 0.48463 0.64397 0.33964 0.0
C2931 C 0.40765 0.5044 0.37288 0.0
H2932 H 0.66323 0.5934 0.27831 0.0
H2933 H 0.60175 0.57023 0.31036 0.0
H2934 H 0.6742 0.5937 0.29805 0.0
H2935 H 0.50415 0.54551 0.28285 0.0
H2936 H 0.42537 0.41669 0.40917 0.0
H2937 H 0.45291 0.44667 0.37555 0.0
H2938 H 0.37142 0.50721 0.39286 0.0
H2939 H 0.46309 0.40937 0.39222 0.0
Eu2940 Eu 0.47869 0.92118 0.32095 0.0
C2941 C 0.48038 0.019 0.36463 0.0
N2942 N 0.51099 0.01021 0.35796 0.0
C2943 C 0.57853 0.09677 0.36014 0.0
C2944 C 0.49786 0.06773 0.36921 0.0
C2945 C 0.55983 0.04786 0.35586 0.0
C2946 C 0.54745 0.10677 0.36685 0.0
C2947 C 0.39994 0.98697 0.37419 0.0
C2948 C 0.43167 0.97896 0.36706 0.0
C2949 C 0.41694 0.03568 0.37857 0.0
C2950 C 0.46569 0.07594 0.37607 0.0
Eu2951 Eu 0.47895 0.92404 0.35312 0.0
N2952 N 0.41595 0.93193 0.36277 0.0
C2953 C 0.35236 0.94547 0.37694 0.0
C2954 C 0.36896 0.89164 0.36522 0.0
C2955 C 0.33649 0.89783 0.3723 0.0
H2956 H 0.58488 0.04012 0.35111 0.0
H2957 H 0.29965 0.86558 0.37436 0.0
H2958 H 0.36684 0.88882 0.30988 0.0
H2959 H 0.62689 0.8827 0.30651 0.0
H2960 H 0.35719 0.85404 0.36219 0.0
H2961 H 0.32741 0.94989 0.38257 0.0
H2962 H 0.5917 0.92758 0.31711 0.0
H2963 H 0.61721 0.1265 0.35842 0.0
H2964 H 0.39284 0.0425 0.38399 0.0
H2965 H 0.47841 0.1132 0.37959 0.0
H2966 H 0.31102 0.83282 0.29527 0.0
H2967 H 0.56222 0.14465 0.37022 0.0
H2968 H 0.57126 0.81343 0.29397 0.0
N2969 N 0.42056 0.86358 0.3083 0.0
C2970 C 0.43608 0.83547 0.30256 0.0
C2971 C 0.34561 0.83252 0.29735 0.0
C2972 C 0.40575 0.80336 0.2941 0.0
C2973 C 0.37694 0.86382 0.30565 0.0
C2974 C 0.35997 0.80198 0.29158 0.0
N2975 N 0.51587 0.88008 0.31146 0.0
C2976 C 0.56689 0.89632 0.31186 0.0
C2977 C 0.50417 0.81891 0.29766 0.0
C2978 C 0.48506 0.84365 0.30425 0.0
C2979 C 0.55533 0.83201 0.29879 0.0
C2980 C 0.587 0.87146 0.3058 0.0
H2981 H 0.33633 0.77872 0.28496 0.0
H2982 H 0.40041 0.75096 0.28153 0.0
H2983 H 0.48641 0.76419 0.28472 0.0
O2984 O 0.49873 0.99896 0.31601 0.0
O2985 O 0.50818 0.87322 0.32969 0.0
O2986 O 0.46304 0.84869 0.34567 0.0
O2987 O 0.49805 0.9465 0.30416 0.0
O2988 O 0.55389 0.97912 0.32927 0.0
O2989 O 0.5548 0.94363 0.34563 0.0
O2990 O 0.46286 0.89332 0.36967 0.0
O2991 O 0.47364 0.98496 0.34292 0.0
O2992 O 0.42208 0.94022 0.32896 0.0
O2993 O 0.5392 0.92673 0.36327 0.0
O2994 O 0.4051 0.85826 0.34628 0.0
O2995 O 0.39886 0.86259 0.32746 0.0
C2996 C 0.4869 0.84031 0.33772 0.0
C2997 C 0.4789 1.00855 0.29747 0.0
C2998 C 0.46442 0.02113 0.27834 0.0
C2999 C 0.43949 0.0473 0.2818 0.0
C3000 C 0.45363 0.03485 0.3006 0.0
C3001 C 0.43401 0.05385 0.29281 0.0
C3002 C 0.4837 1.00136 0.28626 0.0
C3003 C 0.57874 0.97251 0.3373 0.0
C3004 C 0.50263 0.99093 0.30575 0.0
C3005 C 0.42354 0.77638 0.28796 0.0
C3006 C 0.47257 0.78399 0.28976 0.0
C3007 C 0.43436 0.97447 0.33664 0.0
C3008 C 0.53136 0.9331 0.38215 0.0
C3009 C 0.55322 0.92845 0.40104 0.0
C3010 C 0.57881 0.98216 0.40152 0.0
C3011 C 0.55718 0.9865 0.38288 0.0
C3012 C 0.52848 0.90418 0.39131 0.0
C3013 C 0.58019 0.01078 0.39255 0.0
C3014 C 0.37973 0.84162 0.33703 0.0
C3015 C 0.51018 0.90723 0.37174 0.0
H3016 H 0.42366 0.06227 0.27594 0.0
H3017 H 0.44926 0.0411 0.30907 0.0
H3018 H 0.41456 0.07401 0.29532 0.0
H3019 H 0.50326 0.98136 0.2837 0.0
H3020 H 0.59895 1.00231 0.40876 0.0
H3021 H 0.56048 0.00956 0.37595 0.0
H3022 H 0.50752 0.86292 0.39076 0.0
H3023 H 0.60028 0.05204 0.39301 0.0
C3024 C 0.12332 0.0875 0.16471 0.0
C3025 C 0.15084 0.12486 0.1726 0.0
C3026 C 0.12572 0.04221 0.16405 0.0
C3027 C 0.15593 0.03218 0.17125 0.0
H3028 H 0.09843 0.09254 0.15918 0.0
H3029 H 0.10262 0.01435 0.15799 0.0
S3030 S 0.23829 0.11993 0.19296 0.0
N3031 N 0.21099 0.14999 0.18744 0.0
N3032 N 0.21596 0.06561 0.18628 0.0
C3033 C 0.18439 0.06991 0.17907 0.0
C3034 C 0.18166 0.11589 0.17974 0.0
C3035 C 0.96178 0.10577 0.16228 0.0
C3036 C 0.99288 0.12061 0.1716 0.0
C3037 C 0.91531 0.05887 0.16178 0.0
C3038 C 0.89782 0.02427 0.17054 0.0
H3039 H 0.97303 0.13078 0.15533 0.0
H3040 H 0.89287 0.05002 0.15448 0.0
S3041 S 0.96634 0.04373 0.19672 0.0
N3042 N 1.00322 0.09579 0.18972 0.0
N3043 N 0.91705 1.00868 0.18884 0.0
C3044 C 0.92884 0.03881 0.17991 0.0
C3045 C 0.9759 0.08648 0.18042 0.0
C3046 C 0.98646 0.9077 0.17712 0.0
C3047 C 0.99554 0.87247 0.17152 0.0
C3048 C 0.93864 0.90501 0.17673 0.0
C3049 C 0.89726 0.8666 0.17083 0.0
H3050 H 0.01686 0.9383 0.18171 0.0
H3051 H 0.93432 0.93373 0.18104 0.0
S3052 S 0.8994 0.76147 0.15579 0.0
N3053 N 0.95842 0.79679 0.1602 0.0
N3054 N 0.86797 0.78957 0.16016 0.0
C3055 C 0.9055 0.83028 0.16546 0.0
C3056 C 0.95464 0.83379 0.16563 0.0
C3057 C 0.12216 0.17321 0.34641 0.0
C3058 C 0.13169 0.14594 0.33834 0.0
C3059 C 0.07545 0.17339 0.34692 0.0
C3060 C 0.03611 0.14694 0.33929 0.0
H3061 H 0.15114 0.19525 0.35235 0.0
H3062 H 0.07032 0.1945 0.35337 0.0
S3063 S 0.04413 0.07598 0.31544 0.0
N3064 N 0.09891 0.09649 0.32176 0.0
N3065 N 1.01252 0.09661 0.32273 0.0
C3066 C 0.04628 0.12181 0.33084 0.0
C3067 C 0.09358 0.12161 0.33033 0.0
C3068 C 0.90738 0.93177 0.34735 0.0
C3069 C 0.86852 0.88895 0.34188 0.0
C3070 C 0.90799 0.97872 0.34774 0.0
C3071 C 0.87002 0.98511 0.34259 0.0
H3072 H 0.9387 0.92969 0.35102 0.0
H3073 H 0.93947 0.01082 0.35178 0.0
S3074 S 0.7563 0.88379 0.32842 0.0
N3075 N 0.78859 0.85541 0.33203 0.0
N3076 N 0.78999 0.94327 0.33275 0.0
C3077 C 0.83007 0.94232 0.33744 0.0
C3078 C 0.82929 0.89446 0.33707 0.0
C3079 C 0.03698 0.93107 0.33232 0.0
C3080 C 0.02953 0.88703 0.3378 0.0
C3081 C 0.08395 0.97705 0.33266 0.0
C3082 C 0.12609 0.98181 0.33853 0.0
H3083 H 1.00598 0.93043 0.32779 0.0
H3084 H 0.08701 0.0094 0.32831 0.0
S3085 S 0.12875 0.87667 0.35347 0.0
N3086 N 0.06975 0.85047 0.34884 0.0
N3087 N 0.15798 0.93666 0.34933 0.0
C3088 C 0.11959 0.93789 0.34392 0.0
C3089 C 0.07151 0.89076 0.34359 0.0
C3090 C 0.91536 0.93476 0.84632 0.0
C3091 C 0.88164 0.8931 0.83981 0.0
C3092 C 0.9132 0.98043 0.84673 0.0
C3093 C 0.87788 0.98698 0.84045 0.0
H3094 H 0.94483 0.93273 0.85088 0.0
H3095 H 0.94059 0.01143 0.85175 0.0
S3096 S 0.77981 0.88829 0.82234 0.0
N3097 N 0.81066 0.86069 0.82731 0.0
N3098 N 0.80723 0.94601 0.8277 0.0
C3099 C 0.84375 0.94519 0.83395 0.0
C3100 C 0.84562 0.89862 0.83369 0.0
C3101 C 0.12957 0.95302 0.84466 0.0
C3102 C 0.13357 0.99498 0.8388 0.0
C3103 C 0.08391 0.9052 0.84471 0.0
C3104 C 0.04038 0.89754 0.83895 0.0
H3105 H 0.16215 0.9569 0.84912 0.0
H3106 H 0.08311 0.87381 0.84909 0.0
S3107 S 0.02852 0.99685 0.82363 0.0
N3108 N 0.08811 0.02634 0.82793 0.0
N3109 N 1.00324 0.93773 0.82808 0.0
C3110 C 0.04355 0.93974 0.8334 0.0
C3111 C 0.08977 0.98801 0.83331 0.0
C3112 C 0.06615 0.16406 0.84758 0.0
C3113 C 0.03665 0.15119 0.83803 0.0
C3114 C 0.11404 0.16654 0.84792 0.0
C3115 C 0.13542 0.157 0.83872 0.0
H3116 H 0.05224 0.17203 0.85494 0.0
H3117 H 0.13471 0.17673 0.85546 0.0
S3118 S 0.07662 0.12524 0.81138 0.0
N3119 N 0.0349 0.13145 0.81885 0.0
N3120 N 0.12393 0.13604 0.81961 0.0
C3121 C 0.1074 0.14594 0.82902 0.0
C3122 C 0.05848 0.14301 0.82865 0.0
C3123 C 0.91422 0.85464 0.67901 0.0
C3124 C 0.89792 0.87056 0.66982 0.0
C3125 C 0.96035 0.85352 0.67904 0.0
C3126 C 0.99269 0.86894 0.66995 0.0
H3127 H 0.89167 0.8433 0.6863 0.0
H3128 H 0.97086 0.84067 0.68627 0.0
S3129 S 0.97468 0.92469 0.64488 0.0
N3130 N 0.9224 0.9081 0.65191 0.0
N3131 N 1.00933 0.90829 0.65233 0.0
C3132 C 0.9784 0.88734 0.661 0.0
C3133 C 0.93117 0.88765 0.66085 0.0
C3134 C 0.12082 0.08309 0.67708 0.0
C3135 C 0.15325 0.12399 0.67026 0.0
C3136 C 0.11976 0.03601 0.67679 0.0
C3137 C 0.15096 0.0274 0.66964 0.0
H3138 H 0.09526 0.08711 0.68261 0.0
H3139 H 0.09353 1.00575 0.68211 0.0
S3140 S 0.24698 0.12343 0.651 0.0
N3141 N 0.22015 0.15352 0.65672 0.0
N3142 N 0.21801 0.06534 0.65616 0.0
C3143 C 0.18421 0.06816 0.66292 0.0
C3144 C 0.18537 0.11624 0.66323 0.0
C3145 C 0.91078 0.06216 0.67969 0.0
C3146 C 0.89683 0.02781 0.67095 0.0
C3147 C 0.95847 0.10784 0.67994 0.0
C3148 C 0.99442 0.12063 0.67154 0.0
H3149 H 0.88458 0.05372 0.68637 0.0
H3150 H 0.9672 0.13331 0.68677 0.0
S3151 S 0.97986 0.03924 0.64789 0.0
N3152 N 0.92463 1.00785 0.65423 0.0
N3153 N 0.01482 0.09138 0.65504 0.0
C3154 C 0.98153 0.08552 0.66302 0.0
C3155 C 0.93267 0.03978 0.66264 0.0
C3156 C 0.77942 0.37244 0.50976 0.0
C3157 C 0.81931 0.36851 0.50481 0.0
C3158 C 0.77876 0.41866 0.5099 0.0
C3159 C 0.8174 0.46325 0.50495 0.0
H3160 H 0.74795 0.33929 0.51352 0.0
H3161 H 0.74717 0.41915 0.51383 0.0
S3162 S 0.93436 0.47627 0.49225 0.0
N3163 N 0.9017 0.41565 0.4959 0.0
N3164 N 0.89915 0.5016 0.49577 0.0
C3165 C 0.85811 0.46038 0.50016 0.0
C3166 C 0.85933 0.41337 0.50017 0.0
C3167 C 0.60263 0.37559 0.51157 0.0
C3168 C 0.56113 0.36593 0.50485 0.0
C3169 C 0.64789 0.42297 0.51156 0.0
C3170 C 0.65456 0.46329 0.50477 0.0
H3171 H 0.60051 0.34614 0.51689 0.0
H3172 H 0.67791 0.42778 0.51701 0.0
S3173 S 0.55474 0.46058 0.48688 0.0
N3174 N 0.52829 0.40215 0.4918 0.0
N3175 N 0.61255 0.49193 0.49217 0.0
C3176 C 0.61271 0.45486 0.49829 0.0
C3177 C 0.56649 0.4061 0.49821 0.0
C3178 C 0.60355 0.24149 0.49838 0.0
C3179 C 0.56078 0.20268 0.50387 0.0
C3180 C 0.65068 0.24262 0.49811 0.0
C3181 C 0.65748 0.20541 0.50346 0.0
H3182 H 0.60113 0.27221 0.49447 0.0
H3183 H 0.68253 0.27382 0.49395 0.0
S3184 S 0.55706 0.09256 0.51803 0.0
N3185 N 0.52796 0.12373 0.51409 0.0
N3186 N 0.61653 0.12646 0.51371 0.0
C3187 C 0.61499 0.16575 0.50876 0.0
C3188 C 0.56676 0.16426 0.50895 0.0
C3189 C 0.7516 0.43793 0.66693 0.0
C3190 C 0.79597 0.47528 0.67219 0.0
C3191 C 0.70612 0.4401 0.66694 0.0
C3192 C 0.70297 0.48003 0.67212 0.0
H3193 H 0.75181 0.40627 0.66288 0.0
H3194 H 0.67294 0.40984 0.66292 0.0
S3195 S 0.8105 0.59074 0.68589 0.0
N3196 N 0.83484 0.55497 0.68214 0.0
N3197 N 0.75044 0.56026 0.68182 0.0
C3198 C 0.74757 0.51826 0.67719 0.0
C3199 C 0.79368 0.51558 0.67731 0.0
C3200 C 0.55148 0.25259 0.68108 0.0
C3201 C 0.54096 0.22332 0.67154 0.0
C3202 C 0.55229 0.29956 0.68124 0.0
C3203 C 0.54289 0.32018 0.67187 0.0
H3204 H 0.56018 0.23977 0.68853 0.0
H3205 H 0.56195 0.32047 0.68877 0.0
S3206 S 0.51519 0.26005 0.64456 0.0
N3207 N 0.52147 0.21927 0.65235 0.0
N3208 N 0.52415 0.30741 0.65258 0.0
C3209 C 0.53264 0.29146 0.66223 0.0
C3210 C 0.53129 0.24326 0.66209 0.0
C3211 C 0.78864 0.27925 0.66437 0.0
C3212 C 0.79877 0.31831 0.67184 0.0
C3213 C 0.74113 0.23364 0.66422 0.0
C3214 C 0.70193 0.22554 0.67149 0.0
H3215 H 0.81752 0.28421 0.65854 0.0
H3216 H 0.73502 0.20462 0.65835 0.0
S3217 S 0.70708 0.31878 0.69166 0.0
N3218 N 0.7644 0.34751 0.68609 0.0
N3219 N 0.6753 0.26234 0.68575 0.0
C3220 C 0.71141 0.2647 0.67887 0.0
C3221 C 0.75976 0.31097 0.67905 0.0
C3222 C 0.57673 0.26285 0.16767 0.0
C3223 C 0.54156 0.21974 0.17359 0.0
C3224 C 0.5754 0.30865 0.16782 0.0
C3225 C 0.53894 0.31415 0.17388 0.0
H3226 H 0.60619 0.26153 0.16294 0.0
H3227 H 0.60362 0.34019 0.16313 0.0
S3228 S 0.43392 0.21038 0.18971 0.0
N3229 N 0.46672 0.18413 0.18512 0.0
N3230 N 0.46352 0.26979 0.18521 0.0
C3231 C 0.50269 0.27084 0.17966 0.0
C3232 C 0.50425 0.22396 0.17957 0.0
C3233 C 0.78957 0.28349 0.16541 0.0
C3234 C 0.79923 0.32253 0.17289 0.0
C3235 C 0.74303 0.2366 0.16547 0.0
C3236 C 0.70438 0.22667 0.17305 0.0
H3237 H 0.8183 0.28893 0.15953 0.0
H3238 H 0.73719 0.20788 0.15951 0.0
S3239 S 0.70817 0.31731 0.19371 0.0
N3240 N 0.7644 0.34849 0.18771 0.0
N3241 N 0.67764 0.2609 0.18776 0.0
C3242 C 0.7133 0.26533 0.1805 0.0
C3243 C 0.76052 0.313 0.18045 0.0
C3244 C 0.78669 0.5034 0.18026 0.0
C3245 C 0.79836 0.47791 0.17216 0.0
C3246 C 0.7391 0.50182 0.18055 0.0
C3247 C 0.70092 0.47507 0.17269 0.0
H3248 H 0.81448 0.52494 0.18644 0.0
H3249 H 0.73264 0.52242 0.18691 0.0
S3250 S 0.71164 0.40158 0.14966 0.0
N3251 N 0.76608 0.42363 0.15619 0.0
N3252 N 0.67942 0.42334 0.15637 0.0
C3253 C 0.71254 0.45007 0.16446 0.0
C3254 C 0.76025 0.45069 0.1643 0.0
C3255 C 0.64889 0.23178 0.0129 0.0
C3256 C 0.65588 0.19857 0.00606 0.0
C3257 C 0.60315 0.23354 0.01283 0.0
C3258 C 0.56231 0.20232 0.00586 0.0
H3259 H 0.67936 0.25721 0.01826 0.0
H3260 H 0.6002 0.26039 0.01816 0.0
S3261 S 0.55858 0.10364 0.98745 0.0
N3262 N 0.61619 0.13034 0.99288 0.0
N3263 N 0.53075 0.13389 0.99263 0.0
C3264 C 0.56843 0.16803 0.99917 0.0
C3265 C 0.61498 0.1661 0.9993 0.0
C3266 C 0.84818 0.39676 0.99971 0.0
C3267 C 0.82107 0.35942 0.00767 0.0
C3268 C 0.85055 0.44463 0.99981 0.0
C3269 C 0.82547 0.45757 0.00776 0.0
H3270 H 0.86783 0.38909 0.9933 0.0
H3271 H 0.87241 0.47168 0.99359 0.0
S3272 S 0.75357 0.37567 0.03118 0.0
N3273 N 0.77177 0.34088 0.0243 0.0
N3274 N 0.7759 0.4296 0.0244 0.0
C3275 C 0.79987 0.42125 0.01601 0.0
C3276 C 0.79773 0.37273 0.01597 0.0
C3277 C 0.58204 0.39733 0.99743 0.0
C3278 C 0.56564 0.3641 0.00641 0.0
C3279 C 0.62994 0.44291 0.9973 0.0
C3280 C 0.66415 0.45762 0.00612 0.0
H3281 H 0.55801 0.38804 0.99036 0.0
H3282 H 0.63991 0.46683 0.9902 0.0
S3283 S 0.63849 0.38617 0.03205 0.0
N3284 N 0.58704 0.35145 0.02471 0.0
N3285 N 0.67632 0.43521 0.02436 0.0
C3286 C 0.64761 0.42525 0.01526 0.0
C3287 C 0.59884 0.37918 0.01543 0.0
C3288 C 0.45439 0.75132 0.83143 0.0
C3289 C 0.49036 0.79507 0.8371 0.0
C3290 C 0.45652 0.70571 0.8315 0.0
C3291 C 0.49507 0.7018 0.83714 0.0
H3292 H 0.42344 0.7519 0.82714 0.0
H3293 H 0.42689 0.67286 0.82726 0.0
S3294 S 0.60433 0.80891 0.85138 0.0
N3295 N 0.56893 0.83344 0.84744 0.0
N3296 N 0.57434 0.74895 0.84721 0.0
C3297 C 0.53293 0.74636 0.84232 0.0
C3298 C 0.5302 0.79255 0.84239 0.0
C3299 C 0.27374 0.70452 0.8456 0.0
C3300 C 0.23034 0.69605 0.8397 0.0
C3301 C 0.31998 0.75126 0.84511 0.0
C3302 C 0.32517 0.7927 0.83887 0.0
H3303 H 0.27245 0.67447 0.85055 0.0
H3304 H 0.35216 0.75456 0.84964 0.0
S3305 S 0.22087 0.79362 0.82323 0.0
N3306 N 0.19463 0.73511 0.8281 0.0
N3307 N 0.28035 0.82339 0.82763 0.0
C3308 C 0.28136 0.7857 0.83336 0.0
C3309 C 0.23437 0.7376 0.83371 0.0
C3310 C 0.32261 0.57224 0.84481 0.0
C3311 C 0.33078 0.537 0.83894 0.0
C3312 C 0.27596 0.57159 0.84443 0.0
C3313 C 0.23507 0.53662 0.83796 0.0
H3314 H 0.35269 0.6011 0.84978 0.0
H3315 H 0.27216 0.5992 0.84928 0.0
S3316 S 0.23349 0.43248 0.82181 0.0
N3317 N 0.29111 0.46222 0.82725 0.0
N3318 N 0.20471 0.46365 0.82594 0.0
C3319 C 0.24214 0.50079 0.83206 0.0
C3320 C 0.28951 0.50036 0.83269 0.0
C3321 C 0.43018 0.7853 0.01275 0.0
C3322 C 0.47098 0.81729 0.00589 0.0
C3323 C 0.38376 0.78574 0.01268 0.0
C3324 C 0.37594 0.81868 0.00585 0.0
H3325 H 0.43351 0.7584 0.018 0.0
H3326 H 0.35331 0.7589 0.01783 0.0
S3327 S 0.47343 0.91491 0.98734 0.0
N3328 N 0.50216 0.88603 0.99278 0.0
N3329 N 0.41549 0.88712 0.99261 0.0
C3330 C 0.41723 0.8521 0.9992 0.0
C3331 C 0.46447 0.85139 0.99925 0.0
C3332 C 0.2265 0.63809 0.99657 0.0
C3333 C 0.20614 0.6539 1.00497 0.0
C3334 C 0.22293 0.5901 0.99667 0.0
C3335 C 0.20042 0.55578 1.00535 0.0
H3336 H 0.2462 0.66318 0.98983 0.0
H3337 H 0.23922 0.58054 0.9899 0.0
S3338 S 0.12891 0.57238 0.02788 0.0
N3339 N 0.15354 0.62678 0.02119 0.0
N3340 N 0.14815 0.53709 0.02147 0.0
C3341 C 0.17633 0.56925 0.0134 0.0
C3342 C 0.17908 0.6181 0.01321 0.0
C3343 C 0.40918 0.56306 0.00912 0.0
C3344 C 0.36584 0.55973 1.00399 0.0
C3345 C 0.45641 0.60943 0.00949 0.0
C3346 C 0.46263 0.65437 1.00461 0.0
H3347 H 0.40655 0.52957 0.01293 0.0
H3348 H 0.48843 0.60973 0.01346 0.0
S3349 S 0.36134 0.6667 0.99026 0.0
N3350 N 0.33314 0.60626 0.99397 0.0
N3351 N 0.42058 0.69227 0.99463 0.0
C3352 C 0.41971 0.65134 0.99941 0.0
C3353 C 0.37192 0.60442 0.99906 0.0
C3354 C 0.25089 0.60726 0.502 0.0
C3355 C 0.21439 0.56368 0.5076 0.0
C3356 C 0.24897 0.65282 0.50193 0.0
C3357 C 0.21037 0.65719 0.50739 0.0
H3358 H 0.28159 0.60634 0.49768 0.0
H3359 H 0.27813 0.6849 0.4975 0.0
S3360 S 0.10128 0.55169 0.52187 0.0
N3361 N 0.13643 0.52669 0.51811 0.0
N3362 N 0.1314 0.6112 0.51749 0.0
C3363 C 0.17279 0.61333 0.51274 0.0
C3364 C 0.17523 0.56706 0.51298 0.0
C3365 C 0.45477 0.62253 0.49865 0.0
C3366 C 0.46221 0.66155 0.50593 0.0
C3367 C 0.40996 0.57412 0.4989 0.0
C3368 C 0.3709 0.56273 0.50647 0.0
H3369 H 0.48378 0.62952 0.49268 0.0
H3370 H 0.40561 0.54552 0.49306 0.0
S3371 S 0.36801 0.65351 0.52621 0.0
N3372 N 0.42403 0.68663 0.5202 0.0
N3373 N 0.34075 0.59597 0.52076 0.0
C3374 C 0.37744 0.60162 0.51365 0.0
C3375 C 0.42284 0.65089 0.51336 0.0
C3376 C 0.42223 0.7893 0.49937 0.0
C3377 C 0.46303 0.82255 0.5061 0.0
C3378 C 0.37576 0.78928 0.49924 0.0
C3379 C 0.36712 0.82169 0.50601 0.0
H3380 H 0.4259 0.76242 0.49419 0.0
H3381 H 0.34612 0.76303 0.49385 0.0
S3382 S 0.46458 0.92349 0.52344 0.0
N3383 N 0.49383 0.89412 0.51852 0.0
N3384 N 0.40617 0.89317 0.51845 0.0
C3385 C 0.40822 0.85674 0.51243 0.0
C3386 C 0.45602 0.85724 0.51246 0.0
C3387 C 0.26818 0.57037 0.34636 0.0
C3388 C 0.22642 0.53851 0.33973 0.0
C3389 C 0.31366 0.56844 0.34618 0.0
C3390 C 0.32009 0.53463 0.33934 0.0
H3391 H 0.26614 0.59772 0.35167 0.0
H3392 H 0.34412 0.59402 0.3515 0.0
S3393 S 0.2186 0.43597 0.32197 0.0
N3394 N 0.1926 0.46832 0.3269 0.0
N3395 N 0.2769 0.4629 0.32703 0.0
C3396 C 0.27761 0.50061 0.33309 0.0
C3397 C 0.23133 0.5031 0.33315 0.0
C3398 C 0.44852 0.70134 0.34365 0.0
C3399 C 0.48809 0.69537 0.33921 0.0
C3400 C 0.44864 0.74788 0.34301 0.0
C3401 C 0.4886 0.79136 0.33799 0.0
H3402 H 0.4165 0.66946 0.34753 0.0
H3403 H 0.41661 0.7495 0.34642 0.0
S3404 S 0.60553 0.79877 0.32648 0.0
N3405 N 0.57084 0.73872 0.3304 0.0
N3406 N 0.57177 0.8264 0.32946 0.0
C3407 C 0.52942 0.78657 0.33382 0.0
C3408 C 0.52906 0.73876 0.33439 0.0
C3409 C 0.24444 0.73407 0.32959 0.0
C3410 C 0.23042 0.70027 0.33847 0.0
C3411 C 0.29232 0.77958 0.32913 0.0
C3412 C 0.32835 0.7936 0.33757 0.0
H3413 H 0.21805 0.72564 0.32297 0.0
H3414 H 0.30088 0.80408 0.32214 0.0
S3415 S 0.31176 0.71704 0.36242 0.0
N3416 N 0.25775 0.68386 0.35577 0.0
N3417 N 0.3466 0.7679 0.35493 0.0
C3418 C 0.31469 0.75988 0.34647 0.0
C3419 C 0.26617 0.71384 0.34693 0.0
C3420 C 0.31237 0.30935 0.17383 0.0
C3421 C 0.2858 0.33654 0.17318 0.0
C3422 C 0.36623 0.33461 0.17413 0.0
C3423 C 0.39599 0.38827 0.17436 0.0
H3424 H 0.2913 0.26799 0.17397 0.0
H3425 H 0.38478 0.31187 0.17433 0.0
S3426 S 0.34549 0.4776 0.17341 0.0
N3427 N 0.29389 0.42051 0.1727 0.0
N3428 N 0.39438 0.46774 0.17437 0.0
C3429 C 0.36989 0.41596 0.17408 0.0
C3430 C 0.31512 0.39022 0.17319 0.0
C3431 C 0.61625 0.95931 0.17465 0.0
C3432 C 0.64014 0.01115 0.17159 0.0
C3433 C 0.64081 0.93017 0.17333 0.0
C3434 C 0.69101 0.95181 0.16923 0.0
H3435 H 0.57763 0.94061 0.17776 0.0
H3436 H 0.61988 0.89006 0.1754 0.0
S3437 S 0.77163 0.08682 0.16059 0.0
N3438 N 0.71756 0.08297 0.16444 0.0
N3439 N 0.76392 0.0293 0.16241 0.0
C3440 C 0.71546 1.00382 0.16631 0.0
C3441 C 0.69017 0.03313 0.16743 0.0
C3442 C 0.09967 0.70844 0.17055 0.0
C3443 C 0.07549 0.73801 0.17084 0.0
C3444 C 0.07124 0.65439 0.17117 0.0
C3445 C 0.01735 0.62762 0.17162 0.0
H3446 H 0.14092 0.72726 0.17023 0.0
H3447 H 0.09163 0.63346 0.17116 0.0
S3448 S 0.93567 0.68647 0.17311 0.0
N3449 N 0.99427 0.73565 0.17236 0.0
N3450 N 0.94144 0.63508 0.17259 0.0
C3451 C 0.99295 0.65671 0.17183 0.0
C3452 C 0.02178 0.71148 0.17167 0.0
C3453 C 0.31748 0.30597 0.33848 0.0
C3454 C 0.34447 0.27912 0.33891 0.0
C3455 C 0.34287 0.35992 0.33803 0.0
C3456 C 0.39654 0.38984 0.33741 0.0
H3457 H 0.27614 0.28502 0.33867 0.0
H3458 H 0.32013 0.37848 0.33809 0.0
S3459 S 0.48534 0.33855 0.3375 0.0
N3460 N 0.42832 0.28708 0.33859 0.0
N3461 N 0.47565 0.38761 0.33674 0.0
C3462 C 0.42397 0.36338 0.33739 0.0
C3463 C 0.39813 0.30845 0.3384 0.0
C3464 C 0.6641 0.05343 0.33449 0.0
C3465 C 0.63605 1.00202 0.3378 0.0
C3466 C 0.71746 0.0829 0.33614 0.0
C3467 C 0.74548 0.06192 0.34083 0.0
H3468 H 0.64444 0.07169 0.331 0.0
H3469 H 0.73672 0.12287 0.33397 0.0
S3470 S 0.6904 0.92834 0.35051 0.0
N3471 N 0.64073 0.93129 0.34589 0.0
N3472 N 0.7403 0.98574 0.34864 0.0
C3473 C 0.71781 0.01035 0.34404 0.0
C3474 C 0.66353 0.98067 0.34255 0.0
C3475 C 1.00293 0.70029 0.33848 0.0
C3476 C 0.94972 0.67348 0.33668 0.0
C3477 C 0.03194 0.67514 0.33873 0.0
C3478 C 1.00971 0.62218 0.33676 0.0
H3479 H 0.02225 0.74105 0.33992 0.0
H3480 H 0.07243 0.69758 0.34042 0.0
S3481 S 0.87208 0.53456 0.33116 0.0
N3482 N 0.87613 0.59064 0.33291 0.0
N3483 N 0.9306 0.54432 0.33262 0.0
C3484 C 0.95673 0.59528 0.33462 0.0
C3485 C 0.9269 0.62057 0.33479 0.0
C3486 C 0.66528 0.68012 0.8402 0.0
C3487 C 0.63667 0.62635 0.83966 0.0
C3488 C 0.71922 0.70681 0.84013 0.0
C3489 C 0.74721 0.681 0.84015 0.0
H3490 H 0.6457 0.70187 0.84039 0.0
H3491 H 0.73925 0.74817 0.8402 0.0
S3492 S 0.69118 0.54041 0.83917 0.0
N3493 N 0.64098 0.5484 0.83893 0.0
N3494 N 0.74182 0.59821 0.83981 0.0
C3495 C 0.71916 0.62724 0.83989 0.0
C3496 C 0.66419 0.60009 0.83939 0.0
C3497 C 0.39832 0.0931 0.83884 0.0
C3498 C 0.34463 0.06947 0.83921 0.0
C3499 C 0.42327 0.06406 0.83813 0.0
C3500 C 0.39568 0.01013 0.83822 0.0
H3501 H 0.42116 0.13436 0.83877 0.0
H3502 H 0.46453 0.08402 0.83768 0.0
S3503 S 0.25461 0.92964 0.83882 0.0
N3504 N 0.26492 0.98867 0.83909 0.0
N3505 N 0.31156 0.93469 0.83857 0.0
C3506 C 0.34213 0.98626 0.83867 0.0
C3507 C 0.31675 0.01568 0.83896 0.0
C3508 C 0.93197 0.31103 0.83654 0.0
C3509 C 0.95595 0.28125 0.83728 0.0
C3510 C 0.96061 0.36527 0.83587 0.0
C3511 C 0.01455 0.39245 0.83638 0.0
H3512 H 0.89072 0.29222 0.83624 0.0
H3513 H 0.94026 0.38616 0.83528 0.0
S3514 S 0.09605 0.33293 0.83783 0.0
N3515 N 0.03731 0.28372 0.83779 0.0
N3516 N 0.09031 0.38441 0.83733 0.0
C3517 C 0.03872 0.36296 0.83708 0.0
C3518 C 1.00977 0.30795 0.83732 0.0
C3519 C 0.68924 0.65475 0.66876 0.0
C3520 C 0.63759 0.6261 0.67189 0.0
C3521 C 0.71453 0.70849 0.66786 0.0
C3522 C 0.68926 0.73615 0.66994 0.0
H3523 H 0.71042 0.63541 0.66702 0.0
H3524 H 0.75445 0.72862 0.66557 0.0
S3525 S 0.55181 0.67872 0.67669 0.0
N3526 N 0.56106 0.62936 0.67621 0.0
N3527 N 0.60775 0.72959 0.67411 0.0
C3528 C 0.63716 0.70777 0.67274 0.0
C3529 C 0.61164 0.65311 0.67384 0.0
C3530 C 0.36914 0.96402 0.6754 0.0
C3531 C 0.39861 0.01199 0.67036 0.0
C3532 C 0.3151 0.93639 0.67467 0.0
C3533 C 0.28747 0.956 0.66922 0.0
H3534 H 0.38802 0.94699 0.67973 0.0
H3535 H 0.29494 0.89893 0.6783 0.0
S3536 S 0.34619 0.08038 0.65471 0.0
N3537 N 0.39546 0.0775 0.65959 0.0
N3538 N 0.29512 0.02715 0.6586 0.0
C3539 C 0.31669 1.00401 0.66416 0.0
C3540 C 0.37161 0.03156 0.66469 0.0
C3541 C 0.98645 0.3339 0.67153 0.0
C3542 C 1.01153 0.38759 0.67097 0.0
C3543 C 0.01393 0.30742 0.67177 0.0
C3544 C 0.06763 0.3332 0.67093 0.0
H3545 H 0.94519 0.31219 0.67202 0.0
H3546 H 0.99284 0.26623 0.67254 0.0
S3547 S 0.15159 0.47369 0.66898 0.0
N3548 N 0.09351 0.46562 0.66986 0.0
N3549 N 0.14458 0.4159 0.66924 0.0
C3550 C 0.09304 0.38682 0.67006 0.0
C3551 C 0.06521 0.41393 0.67037 0.0
C3552 C 0.97673 0.64657 0.5031 0.0
C3553 C 0.94901 0.67166 0.5053 0.0
C3554 C 0.03037 0.67159 0.50409 0.0
C3555 C 0.05915 0.72287 0.50748 0.0
H3556 H 0.95679 0.60707 0.50053 0.0
H3557 H 0.04958 0.6505 0.50214 0.0
S3558 S 1.00652 0.80807 0.51307 0.0
N3559 N 0.95571 0.7527 0.51007 0.0
N3560 N 0.05575 0.79865 0.51251 0.0
C3561 C 0.03206 0.7485 0.50975 0.0
C3562 C 0.97739 0.72329 0.5085 0.0
C3563 C 0.29722 0.26329 0.51026 0.0
C3564 C 0.34546 0.28094 0.50544 0.0
C3565 C 0.27363 0.2937 0.51051 0.0
C3566 C 0.29645 0.34245 0.50562 0.0
H3567 H 0.27804 0.22612 0.51408 0.0
H3568 H 0.23697 0.27863 0.51448 0.0
S3569 S 0.42168 0.40571 0.49168 0.0
N3570 N 0.41502 0.35073 0.49578 0.0
N3571 N 0.36984 0.40603 0.49565 0.0
C3572 C 0.34403 0.35977 0.50057 0.0
C3573 C 0.36866 0.3296 0.50063 0.0
C3574 C 0.7237 0.993 0.50977 0.0
C3575 C 0.67351 0.96417 0.50571 0.0
C3576 C 0.75153 0.04696 0.50906 0.0
C3577 C 0.73022 0.07492 0.5045 0.0
H3578 H 0.74232 0.97365 0.51324 0.0
H3579 H 0.79063 0.06678 0.51186 0.0
S3580 S 0.59875 0.01839 0.49344 0.0
N3581 N 0.60311 0.96847 0.49733 0.0
N3582 N 0.65449 0.06895 0.49627 0.0
C3583 C 0.6797 0.04655 0.50062 0.0
C3584 C 0.65165 0.99168 0.50119 0.0
C3585 C 1.00659 0.69398 0.67397 0.0
C3586 C 0.0575 0.72263 0.67036 0.0
C3587 C 0.98094 0.64008 0.67457 0.0
C3588 C 1.00506 0.61207 0.6717 0.0
H3589 H 0.98617 0.71341 0.67631 0.0
H3590 H 0.94165 0.62014 0.67727 0.0
S3591 S 0.14069 0.66915 0.66338 0.0
N3592 N 0.13227 0.71879 0.66468 0.0
N3593 N 0.08513 0.61835 0.66626 0.0
C3594 C 0.05651 0.64041 0.6684 0.0
C3595 C 0.08234 0.69527 0.6676 0.0
C3596 C 0.32645 0.38473 0.66804 0.0
C3597 C 0.29757 0.33369 0.67163 0.0
C3598 C 0.38035 0.41313 0.66912 0.0
C3599 C 0.40847 0.39154 0.6735 0.0
H3600 H 0.30715 0.40346 0.66461 0.0
H3601 H 0.40013 0.45253 0.66649 0.0
S3602 S 0.35164 0.25889 0.68393 0.0
N3603 N 0.30183 0.26307 0.67988 0.0
N3604 N 0.40221 0.31513 0.68145 0.0
C3605 C 0.37995 0.34051 0.67712 0.0
C3606 C 0.32505 0.31198 0.67624 0.0
C3607 C 0.70802 0.01514 0.67158 0.0
C3608 C 0.68373 0.96153 0.67103 0.0
C3609 C 0.67975 0.0408 0.67163 0.0
C3610 C 0.62589 0.01395 0.67171 0.0
H3611 H 0.74932 0.03753 0.67169 0.0
H3612 H 0.70031 0.08215 0.67165 0.0
S3613 S 0.54369 0.87312 0.67071 0.0
N3614 N 0.60237 0.88253 0.67029 0.0
N3615 N 0.54955 0.93036 0.67151 0.0
C3616 C 0.60115 0.96029 0.67151 0.0
C3617 C 0.62994 0.93426 0.67086 0.0
C3618 C 0.3272 1.00864 0.17527 0.0
C3619 C 0.29831 0.95917 0.1708 0.0
C3620 C 0.38123 0.03466 0.17571 0.0
C3621 C 0.40982 0.01291 0.17169 0.0
H3622 H 0.30781 0.02769 0.17849 0.0
H3623 H 0.40085 0.07251 0.17923 0.0
S3624 S 0.35336 0.88218 0.1602 0.0
N3625 N 0.30323 0.88825 0.16293 0.0
N3626 N 0.4039 0.93676 0.16372 0.0
C3627 C 0.38148 0.96321 0.16731 0.0
C3628 C 0.32627 0.93658 0.16689 0.0
C3629 C 0.98607 0.34407 0.17616 0.0
C3630 C 1.00904 0.39512 0.17253 0.0
C3631 C 1.01274 0.31668 0.17627 0.0
C3632 C 0.0639 0.3389 0.17278 0.0
H3633 H 0.94677 0.32478 0.17887 0.0
H3634 H 0.99282 0.27745 0.17903 0.0
S3635 S 0.14416 0.47346 0.16385 0.0
N3636 N 0.08788 0.46788 0.16622 0.0
N3637 N 0.13763 0.41695 0.16644 0.0
C3638 C 0.08777 0.39038 0.16942 0.0
C3639 C 0.06053 0.41819 0.16927 0.0
C3640 C 0.67943 0.63628 0.17398 0.0
C3641 C 0.62605 0.60858 0.17248 0.0
C3642 C 0.70787 0.6899 0.17273 0.0
C3643 C 0.68449 0.71838 0.16973 0.0
H3644 H 0.69951 0.61634 0.17618 0.0
H3645 H 0.74865 0.70932 0.17416 0.0
S3646 S 0.5454 0.66597 0.16623 0.0
N3647 N 0.55059 0.61529 0.16899 0.0
N3648 N 0.60421 0.71497 0.16595 0.0
C3649 C 0.63124 0.6913 0.1682 0.0
C3650 C 0.60205 0.63684 0.16976 0.0
C3651 C 0.35151 0.98715 1.00165 0.0
C3652 C 0.30028 0.95807 1.00509 0.0
C3653 C 0.37813 0.04112 1.00183 0.0
C3654 C 0.35505 0.06902 0.00548 0.0
H3655 H 0.37155 0.968 0.99886 0.0
H3656 H 0.41746 0.06121 0.99913 0.0
S3657 S 0.21978 0.01183 0.01411 0.0
N3658 N 0.22637 0.96194 0.01143 0.0
N3659 N 0.27608 0.06267 0.0118 0.0
C3660 C 0.30351 0.04047 0.00873 0.0
C3661 C 0.27629 0.98541 0.0085 0.0
C3662 C 0.03847 0.28645 0.00782 0.0
C3663 C 0.06555 0.34044 0.00806 0.0
C3664 C 0.98429 0.25792 0.00698 0.0
C3665 C 0.95445 0.28194 0.00679 0.0
H3666 H 0.05941 0.26606 0.00794 0.0
H3667 H 0.96556 0.21666 0.00671 0.0
S3668 S 1.00597 0.422 0.00807 0.0
N3669 N 0.05748 0.41624 0.00828 0.0
N3670 N 0.95682 0.36329 0.00748 0.0
C3671 C 0.98107 0.33571 0.00745 0.0
C3672 C 0.03606 0.36466 0.00789 0.0
C3673 C 0.75804 0.71209 0.00789 0.0
C3674 C 0.73692 0.66201 1.00377 0.0
C3675 C 0.72922 0.73716 0.00866 0.0
C3676 C 0.67843 0.71413 1.00493 0.0
H3677 H 0.79756 0.73258 0.01039 0.0
H3678 H 0.74745 0.77555 0.0119 0.0
S3679 S 0.60479 0.58392 0.99323 0.0
N3680 N 0.66115 0.59042 0.99597 0.0
N3681 N 0.60835 0.6381 0.99689 0.0
C3682 C 0.65713 0.6645 1.0006 0.0
C3683 C 0.68599 0.63851 1.00009 0.0
C3684 C 0.70171 0.07561 0.84323 0.0
C3685 C 0.73023 0.05343 0.83935 0.0
C3686 C 0.64751 0.0492 0.84288 0.0
C3687 C 0.61902 0.99974 0.83839 0.0
H3688 H 0.72145 0.11407 0.84643 0.0
H3689 H 0.62785 0.06833 0.84591 0.0
S3690 S 0.67401 0.92309 0.82756 0.0
N3691 N 0.72431 0.97724 0.83133 0.0
N3692 N 0.62402 0.92922 0.83034 0.0
C3693 C 0.64697 0.9771 0.83457 0.0
C3694 C 0.70185 1.00343 0.83511 0.0
C3695 C 0.938 0.61998 0.83922 0.0
C3696 C 0.96471 0.67393 0.83886 0.0
C3697 C 0.96382 0.59162 0.83861 0.0
C3698 C 0.01761 0.61606 0.83821 0.0
H3699 H 0.89675 0.59948 0.83974 0.0
H3700 H 0.9416 0.55034 0.83881 0.0
S3701 S 0.10535 0.75633 0.8386 0.0
N3702 N 0.04802 0.75015 0.83838 0.0
N3703 N 0.09619 0.69771 0.83858 0.0
C3704 C 0.04447 0.66987 0.8384 0.0
C3705 C 0.01824 0.69849 0.83836 0.0
C3706 C 0.33064 0.32643 0.83849 0.0
C3707 C 0.35249 0.29567 0.84079 0.0
C3708 C 0.3595 0.38047 0.83893 0.0
C3709 C 0.41221 0.4067 0.84126 0.0
H3710 H 0.29048 0.30848 0.83647 0.0
H3711 H 0.34043 0.40199 0.83727 0.0
S3712 S 0.48868 0.34525 0.84783 0.0
N3713 N 0.43067 0.29656 0.84573 0.0
N3714 N 0.48495 0.39739 0.84596 0.0
C3715 C 0.43474 0.37662 0.84347 0.0
C3716 C 0.405 0.32152 0.84338 0.0
C3717 C 0.65252 0.97271 0.00853 0.0
C3718 C 0.67619 0.94512 1.00503 0.0
C3719 C 0.67788 0.02672 0.00819 0.0
C3720 C 0.72852 0.05639 1.00439 0.0
H3721 H 0.61376 0.95233 0.01157 0.0
H3722 H 0.65755 0.04548 0.01104 0.0
S3723 S 0.80999 1.00381 0.99528 0.0
N3724 N 0.75485 0.95259 0.99819 0.0
N3725 N 0.80231 0.05325 0.99767 0.0
C3726 C 0.75288 0.02935 1.00096 0.0
C3727 C 0.72689 0.97422 1.00125 0.0
C3728 C 0.9954 0.72881 1.00277 0.0
C3729 C 0.97055 0.67636 0.00542 0.0
C3730 C 0.04936 0.7597 1.00307 0.0
C3731 C 0.08081 0.73907 0.00567 0.0
H3732 H 0.97293 0.74631 1.0006 0.0
H3733 H 0.06662 0.79966 1.00093 0.0
S3734 S 0.03511 0.6035 0.01254 0.0
N3735 N 0.98213 0.60549 0.01059 0.0
N3736 N 0.08255 0.66222 0.01051 0.0
C3737 C 0.05633 0.68655 0.00809 0.0
C3738 C 1.00163 0.65564 0.00814 0.0
C3739 C 0.34033 0.37083 0.00744 0.0
C3740 C 0.28654 0.34332 0.00712 0.0
C3741 C 0.36926 0.34592 0.0072 0.0
C3742 C 0.34588 0.29256 0.00601 0.0
H3743 H 0.36029 0.41212 0.00792 0.0
H3744 H 0.41046 0.36879 0.00769 0.0
S3745 S 0.20619 0.2029 1.00439 0.0
N3746 N 0.21107 0.25947 0.00587 0.0
N3747 N 0.26522 0.21324 1.00411 0.0
C3748 C 0.29212 0.26472 1.00535 0.0
C3749 C 0.26257 0.28989 0.00625 0.0
C3750 C 0.0485 0.31051 0.50185 0.0
C3751 C 0.07645 0.35641 0.50771 0.0
C3752 C 0.99473 0.28569 0.50083 0.0
C3753 C 0.96583 0.30402 0.50614 0.0
H3754 H 0.06815 0.29274 0.49823 0.0
H3755 H 0.97558 0.25094 0.4961 0.0
S3756 S 0.01848 0.41717 0.52421 0.0
N3757 N 0.06932 0.41576 0.51986 0.0
N3758 N 0.96923 0.36837 0.5184 0.0
C3759 C 0.99289 0.34805 0.51258 0.0
C3760 C 0.04764 0.37409 0.51334 0.0
C3761 C 0.6475 0.68095 0.50419 0.0
C3762 C 0.6736 0.73444 0.50555 0.0
C3763 C 0.67374 0.65329 0.50365 0.0
C3764 C 0.72746 0.67801 0.50388 0.0
H3765 H 0.60621 0.66011 0.50372 0.0
H3766 H 0.65174 0.61209 0.50296 0.0
S3767 S 0.81437 0.81774 0.50654 0.0
N3768 N 0.7567 0.81095 0.50706 0.0
N3769 N 0.80588 0.75975 0.50493 0.0
C3770 C 0.75413 0.73164 0.5048 0.0
C3771 C 0.72732 0.75957 0.50593 0.0
C3772 C 0.34118 0.98013 0.50957 0.0
C3773 C 0.29022 0.95149 0.50593 0.0
C3774 C 0.3686 0.03412 0.50932 0.0
C3775 C 0.34665 0.06283 0.50547 0.0
H3776 H 0.3604 0.9606 0.51264 0.0
H3777 H 0.40766 0.0536 0.51219 0.0
S3778 S 0.21274 1.0073 0.49601 0.0
N3779 N 0.21809 0.95687 0.49892 0.0
N3780 N 0.26901 0.05766 0.49859 0.0
C3781 C 0.29542 0.03478 0.50197 0.0
C3782 C 0.26753 0.97958 0.50215 0.0
C3783 C 0.96256 0.37307 0.33841 0.0
C3784 C 0.01624 0.40331 0.33839 0.0
C3785 C 0.93784 0.31917 0.33928 0.0
C3786 C 0.96576 0.29321 0.33964 0.0
H3787 H 0.93953 0.39128 0.33818 0.0
H3788 H 0.89654 0.29765 0.33954 0.0
S3789 S 0.10669 0.35427 0.34012 0.0
N3790 N 0.09609 0.40274 0.33943 0.0
N3791 N 0.04993 0.30221 0.34002 0.0
C3792 C 0.01923 0.32299 0.33946 0.0
C3793 C 0.04431 0.37769 0.3391 0.0
C3794 C 0.69889 0.69637 0.33756 0.0
C3795 C 0.72791 0.67459 0.34131 0.0
C3796 C 0.64507 0.66825 0.337 0.0
C3797 C 0.61682 0.61667 0.34022 0.0
H3798 H 0.71805 0.7357 0.33486 0.0
H3799 H 0.62539 0.68728 0.33394 0.0
S3800 S 0.67345 0.53974 0.35003 0.0
N3801 N 0.72348 0.59681 0.34789 0.0
N3802 N 0.62278 0.54444 0.34697 0.0
C3803 C 0.64511 0.5943 0.34408 0.0
C3804 C 0.70026 0.62299 0.34458 0.0
C3805 C 0.32571 1.00609 0.33507 0.0
C3806 C 0.34747 0.05651 0.33906 0.0
C3807 C 0.35384 0.98024 0.3344 0.0
C3808 C 0.40547 1.00338 0.33762 0.0
H3809 H 0.28628 0.98617 0.33245 0.0
H3810 H 0.33472 0.9415 0.33134 0.0
S3811 S 0.48273 0.13722 0.3473 0.0
N3812 N 0.42517 0.12956 0.34563 0.0
N3813 N 0.47821 0.08214 0.34402 0.0
C3814 C 0.42802 0.0542 0.34141 0.0
C3815 C 0.3991 0.08031 0.34223 0.0
C3816 C 0.24352 0.40896 0.09015 0.0
C3817 C 0.25541 0.38917 0.08097 0.0
C3818 C 0.243 0.39015 0.10058 0.0
C3819 C 0.255 0.35135 0.10221 0.0
H3820 H 0.23773 0.44137 0.08931 0.0
H3821 H 0.23682 0.4086 0.10746 0.0
S3822 S 0.28207 0.28224 0.08083 0.0
N3823 N 0.27417 0.32508 0.07415 0.0
N3824 N 0.27336 0.28989 0.09373 0.0
C3825 C 0.26304 0.32866 0.09305 0.0
C3826 C 0.26308 0.34745 0.08243 0.0
C3827 C 0.7256 0.94686 0.08127 0.0
C3828 C 0.68863 0.90474 0.0753 0.0
C3829 C 0.72581 0.94709 0.09263 0.0
C3830 C 0.68961 0.90492 0.09862 0.0
H3831 H 0.75393 0.9808 0.07711 0.0
H3832 H 0.75384 0.98122 0.09679 0.0
S3833 S 0.58605 0.78395 0.08718 0.0
N3834 N 0.61554 0.81879 0.07643 0.0
N3835 N 0.61701 0.81895 0.0978 0.0
C3836 C 0.65396 0.86153 0.09285 0.0
C3837 C 0.6533 0.86144 0.08121 0.0
C3838 C 0.15508 0.77153 0.09881 0.0
C3839 C 0.10765 0.76906 0.09993 0.0
C3840 C 0.17297 0.76709 0.08859 0.0
C3841 C 0.14439 0.76061 0.07911 0.0
H3842 H 0.1769 0.77353 0.10593 0.0
H3843 H 0.20836 0.76633 0.08816 0.0
S3844 S 0.0207 0.75803 0.07761 0.0
N3845 N 0.0348 0.76466 0.09063 0.0
N3846 N 0.06829 0.75626 0.07148 0.0
C3847 C 0.09872 0.76184 0.08007 0.0
C3848 C 0.08037 0.76599 0.09046 0.0
C3849 C 0.32637 0.24989 0.42556 0.0
C3850 C 0.36848 0.26191 0.43232 0.0
C3851 C 0.32854 0.24397 0.41433 0.0
C3852 C 0.37309 0.25019 0.40932 0.0
H3853 H 0.29169 0.24623 0.42896 0.0
H3854 H 0.29567 0.23642 0.40948 0.0
S3855 S 0.49268 0.27776 0.4234 0.0
N3856 N 0.45523 0.27715 0.43319 0.0
N3857 N 0.45914 0.26534 0.41213 0.0
C3858 C 0.41479 0.26013 0.41603 0.0
C3859 C 0.41248 0.26597 0.42749 0.0
C3860 C 0.81447 0.10325 0.41657 0.0
C3861 C 0.79338 0.13082 0.41181 0.0
C3862 C 0.81642 0.09916 0.42789 0.0
C3863 C 0.79827 0.12329 0.43493 0.0
H3864 H 0.82743 0.08277 0.41149 0.0
H3865 H 0.83117 0.0759 0.43118 0.0
S3866 S 0.74281 0.20304 0.42656 0.0
N3867 N 0.75613 0.18457 0.41502 0.0
N3868 N 0.76081 0.17778 0.43625 0.0
C3869 C 0.77932 0.15292 0.43027 0.0
C3870 C 0.77653 0.15637 0.41874 0.0
C3871 C 0.91782 0.74518 0.42046 0.0
C3872 C 0.93707 0.72546 0.41261 0.0
C3873 C 0.91215 0.72939 0.43133 0.0
C3874 C 0.92654 0.69404 0.43483 0.0
H3875 H 0.90919 0.77472 0.41825 0.0
H3876 H 0.8991 0.74716 0.43715 0.0
S3877 S 0.9764 0.62903 0.4173 0.0
N3878 N 0.96821 0.66704 0.40896 0.0
N3879 N 0.95777 0.63729 0.42932 0.0
C3880 C 0.94383 0.67249 0.42694 0.0
C3881 C 0.94903 0.6882 0.41586 0.0
C3882 C 0.79274 0.69551 0.91582 0.0
C3883 C 0.79093 0.6526 0.91091 0.0
C3884 C 0.79028 0.69914 0.92714 0.0
C3885 C 0.7866 0.66035 0.93406 0.0
H3886 H 0.79468 0.72595 0.91086 0.0
H3887 H 0.79099 0.73256 0.9305 0.0
S3888 S 0.7824 0.54088 0.92534 0.0
N3889 N 0.78692 0.57125 0.91392 0.0
N3890 N 0.78186 0.57784 0.9351 0.0
C3891 C 0.78587 0.61777 0.92927 0.0
C3892 C 0.78804 0.61392 0.91774 0.0
C3893 C 0.2667 0.10775 0.92306 0.0
C3894 C 0.29195 0.09884 0.91447 0.0
C3895 C 0.28409 0.11291 0.9338 0.0
C3896 C 0.32711 0.10871 0.93641 0.0
H3897 H 0.23175 0.10838 0.92153 0.0
H3898 H 0.26192 0.11717 0.94017 0.0
S3899 S 0.41042 0.09173 0.91681 0.0
N3900 N 0.36488 0.09064 0.90924 0.0
N3901 N 0.39764 0.10043 0.92937 0.0
C3902 C 0.35455 0.10307 0.92782 0.0
C3903 C 0.33706 0.09823 0.91687 0.0
C3904 C 0.93931 0.2191 0.91623 0.0
C3905 C 0.92679 0.2522 0.91077 0.0
C3906 C 0.93782 0.21573 0.92764 0.0
C3907 C 0.92338 0.24503 0.93409 0.0
H3908 H 0.95288 0.19757 0.9117 0.0
H3909 H 0.94934 0.19083 0.93145 0.0
S3910 S 0.88286 0.33445 0.92365 0.0
N3911 N 0.89579 0.312 0.91265 0.0
N3912 N 0.89379 0.30641 0.93394 0.0
C3913 C 0.90832 0.27633 0.92866 0.0
C3914 C 0.9099 0.27976 0.91708 0.0
C3915 C 0.73604 0.83541 0.58519 0.0
C3916 C 0.69948 0.80298 0.57755 0.0
C3917 C 0.72793 0.82651 0.59639 0.0
C3918 C 0.68306 0.78454 0.60046 0.0
H3919 H 0.77149 0.86786 0.58248 0.0
H3920 H 0.75775 0.8519 0.60189 0.0
S3921 S 0.57428 0.68916 0.584 0.0
N3922 N 0.61609 0.72759 0.57498 0.0
N3923 N 0.60039 0.71174 0.59593 0.0
C3924 C 0.64564 0.75258 0.59293 0.0
C3925 C 0.65389 0.76161 0.58153 0.0
C3926 C 0.24663 0.87778 0.58198 0.0
C3927 C 0.23861 0.91478 0.57681 0.0
C3928 C 0.24796 0.875 0.59337 0.0
C3929 C 0.24062 0.90862 0.6 0.0
H3930 H 0.25436 0.8524 0.5772 0.0
H3931 H 0.2567 0.84767 0.597 0.0
S3932 S 0.21283 1.00856 0.59066 0.0
N3933 N 0.21913 0.98298 0.57937 0.0
N3934 N 0.22178 0.97759 0.60065 0.0
C3935 C 0.23019 0.94402 0.59498 0.0
C3936 C 0.22908 0.94709 0.58343 0.0
C3937 C 0.11282 0.28717 0.5803 0.0
C3938 C 0.11631 0.33149 0.57577 0.0
C3939 C 0.10899 0.27936 0.59158 0.0
C3940 C 0.10945 0.31604 0.59866 0.0
H3941 H 0.10974 0.25702 0.57507 0.0
H3942 H 0.10232 0.2431 0.59473 0.0
S3943 S 0.12259 0.44031 0.59084 0.0
N3944 N 0.12338 0.41374 0.57922 0.0
N3945 N 0.1171 0.39948 0.60036 0.0
C3946 C 0.11625 0.36179 0.59423 0.0
C3947 C 0.11945 0.36942 0.58279 0.0
C3948 C 0.07374 0.56558 0.74368 0.0
C3949 C 0.03253 0.57296 0.74115 0.0
C3950 C 0.09101 0.5695 0.75439 0.0
C3951 C 0.06737 0.58026 0.76301 0.0
H3952 H 0.09479 0.55984 0.73728 0.0
H3953 H 0.12488 0.56678 0.75587 0.0
S3954 S 0.95389 0.59619 0.7609 0.0
N3955 N 0.96519 0.58625 0.74832 0.0
N3956 N 0.99792 0.59386 0.76839 0.0
C3957 C 0.0239 0.58402 0.76069 0.0
C3958 C 1.00651 0.58043 0.74978 0.0
C3959 C 0.46354 0.42802 0.75133 0.0
C3960 C 0.46049 0.45948 0.74329 0.0
C3961 C 0.45852 0.43584 0.76238 0.0
C3962 C 0.44982 0.47516 0.76582 0.0
H3963 H 0.46711 0.3954 0.74901 0.0
H3964 H 0.4575 0.40855 0.7682 0.0
S3965 S 0.44242 0.57033 0.74817 0.0
N3966 N 0.45196 0.53376 0.73967 0.0
N3967 N 0.44149 0.54773 0.76039 0.0
C3968 C 0.44973 0.50867 0.75794 0.0
C3969 C 0.45543 0.50109 0.74669 0.0
C3970 C 0.57113 0.98807 0.74842 0.0
C3971 C 0.58026 0.03597 0.74479 0.0
C3972 C 0.56673 0.97633 0.75951 0.0
C3973 C 0.57096 0.01194 0.76738 0.0
H3974 H 0.57134 0.96101 0.74271 0.0
H3975 H 0.56269 0.94012 0.76199 0.0
S3976 S 0.59079 0.14115 0.76198 0.0
N3977 N 0.59044 0.11804 0.74984 0.0
N3978 N 0.58109 0.09566 0.77068 0.0
C3979 C 0.57649 0.05857 0.7638 0.0
C3980 C 0.58152 0.0707 0.75251 0.0
C3981 C 0.44153 0.95737 0.25062 0.0
C3982 C 0.46211 0.99897 0.24335 0.0
C3983 C 0.4451 0.96472 0.26193 0.0
C3984 C 0.46861 0.01401 0.26645 0.0
H3985 H 0.42135 0.91869 0.24753 0.0
H3986 H 0.42721 0.93157 0.26716 0.0
S3987 S 0.53098 0.13577 0.25108 0.0
N3988 N 0.50916 0.09128 0.24161 0.0
N3989 N 0.51515 0.1051 0.26276 0.0
C3990 C 0.49084 0.05588 0.25929 0.0
C3991 C 0.48788 0.04839 0.24779 0.0
C3992 C 0.03727 0.44572 0.26102 0.0
C3993 C 0.07749 0.49487 0.26352 0.0
C3994 C 0.01986 0.43196 0.25031 0.0
C3995 C 0.04182 0.4668 0.24165 0.0
H3996 H 0.02115 0.41679 0.26727 0.0
H3997 H 0.99005 0.39309 0.24874 0.0
S3998 S 0.14444 0.60216 0.24418 0.0
N3999 N 0.13529 0.57997 0.25667 0.0
N4000 N 0.10369 0.55399 0.23659 0.0
C4001 C 0.07988 0.51702 0.24419 0.0
C4002 C 0.09743 0.531 0.25509 0.0
C4003 C 0.59272 0.54746 0.24886 0.0
C4004 C 0.5753 0.57763 0.24379 0.0
C4005 C 0.59407 0.54431 0.26023 0.0
C4006 C 0.57713 0.57039 0.26701 0.0
H4007 H 0.60708 0.52752 0.24402 0.0
H4008 H 0.60901 0.52165 0.26375 0.0
S4009 S 0.52526 0.65218 0.25779 0.0
N4010 N 0.53888 0.63249 0.24647 0.0
N4011 N 0.5409 0.6261 0.26773 0.0
C4012 C 0.55803 0.59925 0.26203 0.0
C4013 C 0.55732 0.60304 0.25047 0.0
C4014 C 0.97818 0.20294 0.25687 0.0
C4015 C 0.9955 0.2059 0.26759 0.0
C4016 C 1.01064 0.21281 0.24798 0.0
C4017 C 0.06171 0.22517 0.24939 0.0
H4018 H 0.93946 0.19435 0.25531 0.0
H4019 H 0.99607 0.21299 0.23999 0.0
S4020 S 0.1245 0.23087 0.2756 0.0
N4021 N 0.06688 0.21915 0.27898 0.0
N4022 N 0.12616 0.23312 0.26226 0.0
C4023 C 0.07847 0.22439 0.25999 0.0
C4024 C 0.04585 0.21575 0.26908 0.0
C4025 C 0.85108 0.81487 0.25329 0.0
C4026 C 0.83195 0.81299 0.26378 0.0
C4027 C 0.82832 0.82255 0.24416 0.0
C4028 C 0.78613 0.83 0.24511 0.0
H4029 H 0.88191 0.80695 0.25205 0.0
H4030 H 0.84197 0.81918 0.23628 0.0
S4031 S 0.72905 0.84081 0.27089 0.0
N4032 N 0.77257 0.82626 0.27467 0.0
N4033 N 0.73262 0.84496 0.25756 0.0
C4034 C 0.77048 0.83422 0.25563 0.0
C4035 C 0.79284 0.82499 0.26494 0.0
C4036 C 0.23567 0.04193 0.25406 0.0
C4037 C 0.22039 0.02691 0.26484 0.0
C4038 C 0.2119 1.00843 0.24542 0.0
C4039 C 0.17058 0.95881 0.24709 0.0
H4040 H 0.26725 0.07959 0.25226 0.0
H4041 H 0.22763 0.02117 0.23741 0.0
S4042 S 0.11079 0.90235 0.27355 0.0
N4043 N 0.15953 0.95888 0.27662 0.0
N4044 N 0.11103 0.89864 0.26025 0.0
C4045 C 0.1523 0.94453 0.25774 0.0
C4046 C 0.17794 0.97786 0.26662 0.0
C4047 C 0.97529 0.76263 0.75465 0.0
C4048 C 0.97876 0.79658 0.7629 0.0
C4049 C 1.00949 0.77914 0.74589 0.0
C4050 C 0.04886 0.83012 0.74508 0.0
H4051 H 0.94628 0.72266 0.75504 0.0
H4052 H 1.0059 0.75155 0.73985 0.0
S4053 S 0.07338 0.93522 0.76395 0.0
N4054 N 0.02358 0.88461 0.76919 0.0
N4055 N 0.08873 0.91491 0.75295 0.0
C4056 C 0.05271 0.86459 0.75315 0.0
C4057 C 0.01757 0.84802 0.76201 0.0
C4058 C 0.11323 0.2067 0.75686 0.0
C4059 C 0.15172 0.22113 0.74902 0.0
C4060 C 0.12117 0.19751 0.7676 0.0
C4061 C 0.16799 0.20258 0.77092 0.0
H4062 H 0.07782 0.20549 0.7548 0.0
H4063 H 0.09147 0.18911 0.77349 0.0
S4064 S 0.27972 0.23618 0.75334 0.0
N4065 N 0.23704 0.23694 0.74511 0.0
N4066 N 0.25219 0.21984 0.76535 0.0
C4067 C 0.20553 0.21361 0.76301 0.0
C4068 C 0.19734 0.22289 0.75204 0.0
C4069 C 0.86535 0.04924 0.75285 0.0
C4070 C 0.8495 0.03416 0.76362 0.0
C4071 C 0.84181 0.01593 0.74414 0.0
C4072 C 0.80233 0.96538 0.7458 0.0
H4073 H 0.89479 0.08799 0.75105 0.0
H4074 H 0.853 0.03103 0.73604 0.0
S4075 S 0.75347 0.90303 0.77245 0.0
N4076 N 0.7947 0.96301 0.77543 0.0
N4077 N 0.75487 0.89915 0.75916 0.0
C4078 C 0.78982 0.94813 0.75656 0.0
C4079 C 0.81239 0.98263 0.76544 0.0
C4080 C 0.6852 0.55775 0.59832 0.0
C4081 C 0.63335 0.52135 0.5969 0.0
C4082 C 0.71809 0.57867 0.58943 0.0
C4083 C 0.70044 0.5649 0.5787 0.0
H4084 H 0.70012 0.57201 0.60632 0.0
H4085 H 0.75745 0.60719 0.59099 0.0
S4086 S 0.5692 0.46574 0.57072 0.0
N4087 N 0.56757 0.46681 0.58405 0.0
N4088 N 0.62782 0.5093 0.56733 0.0
C4089 C 0.64923 0.52637 0.57722 0.0
C4090 C 0.61614 0.504 0.58631 0.0
C4091 C 0.61562 0.19168 0.5877 0.0
C4092 C 0.57275 0.15914 0.59396 0.0
C4093 C 0.61028 0.20395 0.57702 0.0
C4094 C 0.56187 0.1836 0.57214 0.0
H4095 H 0.65367 0.20564 0.59091 0.0
H4096 H 0.64451 0.22789 0.5724 0.0
S4097 S 0.43755 0.09793 0.58535 0.0
N4098 N 0.4804 0.10868 0.5948 0.0
N4099 N 0.47008 0.13089 0.57465 0.0
C4100 C 0.51854 0.15307 0.57853 0.0
C4101 C 0.52408 0.14095 0.58945 0.0
C4102 C 0.80811 0.29999 0.59394 0.0
C4103 C 0.84843 0.32029 0.60152 0.0
C4104 C 0.81458 0.28611 0.58344 0.0
C4105 C 0.86163 0.29191 0.5801 0.0
H4106 H 0.77085 0.29385 0.59619 0.0
H4107 H 0.78193 0.26882 0.57807 0.0
S4108 S 0.98066 0.34737 0.59636 0.0
N4109 N 0.93791 0.34744 0.60463 0.0
N4110 N 0.95045 0.32358 0.58484 0.0
C4111 C 0.9029 0.3145 0.58739 0.0
C4112 C 0.89626 0.32818 0.59809 0.0
C4113 C 0.67049 0.11437 0.07945 0.0
C4114 C 0.65511 0.14889 0.07594 0.0
C4115 C 0.66033 0.09458 0.09 0.0
C4116 C 0.63417 0.10825 0.09752 0.0
H4117 H 0.68907 0.10111 0.0739 0.0
H4118 H 0.67236 0.06755 0.09222 0.0
S4119 S 0.58928 0.20053 0.09268 0.0
N4120 N 0.61599 0.19913 0.08114 0.0
N4121 N 0.59505 0.16034 0.1008 0.0
C4122 C 0.62018 0.14415 0.09425 0.0
C4123 C 0.63091 0.16466 0.08351 0.0
C4124 C 0.90059 0.58777 0.09969 0.0
C4125 C 0.8537 0.54894 0.10376 0.0
C4126 C 0.90494 0.60573 0.08904 0.0
C4127 C 0.8627 0.58529 0.08196 0.0
H4128 H 0.93364 0.60605 0.10493 0.0
H4129 H 0.94143 0.637 0.08642 0.0
S4130 S 0.73271 0.47921 0.08828 0.0
N4131 N 0.76521 0.48758 0.09958 0.0
N4132 N 0.7733 0.5216 0.07961 0.0
C4133 C 0.81631 0.54453 0.08573 0.0
C4134 C 0.81181 0.52642 0.09661 0.0
C4135 C 0.48611 0.38852 0.08908 0.0
C4136 C 0.47309 0.36618 0.09945 0.0
C4137 C 0.47144 0.35855 0.07969 0.0
C4138 C 0.44335 0.30497 0.08027 0.0
H4139 H 0.5059 0.42966 0.08821 0.0
H4140 H 0.47946 0.37765 0.07192 0.0
S4141 S 0.40627 0.22736 0.1054 0.0
N4142 N 0.43448 0.28698 0.10971 0.0
N4143 N 0.409 0.23069 0.09206 0.0
C4144 C 0.43376 0.28209 0.09058 0.0
C4145 C 0.4482 0.31264 0.10016 0.0
C4146 C 0.36813 0.90928 0.92059 0.0
C4147 C 0.3556 0.88801 0.91011 0.0
C4148 C 0.33973 0.88227 0.92969 0.0
C4149 C 0.29818 0.83225 0.92877 0.0
H4150 H 0.39939 0.94782 0.92179 0.0
H4151 H 0.3492 0.9017 0.93742 0.0
S4152 S 0.25344 0.75577 0.90351 0.0
N4153 N 0.29965 0.81216 0.89955 0.0
N4154 N 0.25032 0.75992 0.91676 0.0
C4155 C 0.28772 0.80899 0.91849 0.0
C4156 C 0.31541 0.83708 0.90916 0.0
C4157 C 0.12664 0.46196 0.93185 0.0
C4158 C 0.15555 0.43765 0.93043 0.0
C4159 C 0.10903 0.47755 0.92297 0.0
C4160 C 0.11888 0.46883 0.91227 0.0
H4161 H 0.1158 0.46739 0.93987 0.0
H4162 H 0.08654 0.49568 0.92452 0.0
S4163 S 0.19634 0.41014 0.90415 0.0
N4164 N 0.19759 0.41016 0.91749 0.0
N4165 N 0.16106 0.43558 0.90081 0.0
C4166 C 0.14917 0.44601 0.91073 0.0
C4167 C 0.16817 0.43127 0.91979 0.0
C4168 C 0.55654 0.74156 0.91581 0.0
C4169 C 0.5649 0.70966 0.90883 0.0
C4170 C 0.57185 0.74776 0.92671 0.0
C4171 C 0.59686 0.72295 0.93096 0.0
H4172 H 0.53902 0.76275 0.91276 0.0
H4173 H 0.56618 0.77393 0.93171 0.0
S4174 S 0.6259 0.63365 0.9162 0.0
N4175 N 0.59799 0.65149 0.90708 0.0
N4176 N 0.62695 0.66329 0.9275 0.0
C4177 C 0.6039 0.68965 0.92415 0.0
C4178 C 0.58785 0.68294 0.91311 0.0
C4179 C 0.28817 0.4356 0.42166 0.0
C4180 C 0.31032 0.43948 0.4319 0.0
C4181 C 0.31717 0.44723 0.41215 0.0
C4182 C 0.36948 0.46308 0.4125 0.0
H4183 H 0.24751 0.42111 0.42096 0.0
H4184 H 0.29773 0.44056 0.40445 0.0
S4185 S 0.44724 0.48612 0.43731 0.0
N4186 N 0.38869 0.46481 0.44185 0.0
N4187 N 0.44352 0.48803 0.424 0.0
C4188 C 0.39288 0.4709 0.42273 0.0
C4189 C 0.36328 0.45888 0.43241 0.0
C4190 C 0.55148 0.91453 0.42113 0.0
C4191 C 0.55508 0.89898 0.41057 0.0
C4192 C 0.56067 0.89279 0.43027 0.0
C4193 C 0.57328 0.85408 0.42925 0.0
H4194 H 0.54309 0.94503 0.42236 0.0
H4195 H 0.56036 0.90829 0.43815 0.0
S4196 S 0.5807 0.79432 0.40358 0.0
N4197 N 0.56876 0.83958 0.39974 0.0
N4198 N 0.58243 0.79648 0.41693 0.0
C4199 C 0.5732 0.83543 0.4188 0.0
C4200 C 0.56487 0.85827 0.40947 0.0
C4201 C 0.13433 0.70741 0.42328 0.0
C4202 C 0.13136 0.68857 0.43387 0.0
C4203 C 0.12446 0.67623 0.41415 0.0
C4204 C 0.11192 0.62494 0.41517 0.0
H4205 H 0.14292 0.74634 0.42201 0.0
H4206 H 0.12441 0.69192 0.40628 0.0
S4207 S 0.10568 0.55823 0.44085 0.0
N4208 N 0.11782 0.61549 0.44468 0.0
N4209 N 0.10336 0.55846 0.42752 0.0
C4210 C 0.11247 0.60659 0.42563 0.0
C4211 C 0.12131 0.63796 0.43495 0.0
loop_
_geom_bond_atom_site_label_1
_geom_bond_atom_site_label_2
_geom_bond_distance
_geom_bond_site_symmetry_2
_ccdc_geom_bond_type
Eu0 N29 2.600 . S
Eu0 N35 2.562 . S
Eu0 O44 2.462 . S
Eu0 O45 2.373 . S
Eu0 O47 2.432 . S
Eu0 O48 2.291 . S
Eu0 O52 2.335 . S
Eu0 O55 2.372 . S
Eu0 C64 2.787 . S
C1 N2 1.365 . S
C1 C4 1.405 . S
C1 C8 1.448 . S
N2 C1 1.365 . S
N2 C5 1.319 . S
N2 Eu11 2.600 . S
C3 C5 1.397 . S
C3 C6 1.367 . S
C3 H23 0.931 . S
C4 C1 1.405 . S
C4 C6 1.403 . S
C4 C10 1.439 1_455 S
C5 N2 1.319 . S
C5 C3 1.397 . S
C5 H16 0.930 . S
C6 C3 1.367 . S
C6 C4 1.403 . S
C6 H27 0.929 1_545 S
C7 C8 1.430 1_655 S
C7 C9 1.387 . S
C7 C13 1.404 . S
C8 C1 1.448 . S
C8 C7 1.430 1_455 S
C8 N12 1.351 . S
C9 C7 1.387 . S
C9 C10 1.374 . S
C9 H24 0.931 . S
C10 C4 1.439 1_655 S
C10 C9 1.374 . S
C10 H25 0.931 1_545 S
Eu11 N2 2.600 . S
Eu11 N12 2.562 . S
Eu11 O46 2.335 . S
Eu11 O49 2.372 . S
Eu11 O50 2.462 . S
Eu11 O51 2.373 . S
Eu11 O53 2.432 . S
Eu11 O54 2.291 . S
Eu11 C75 2.787 . S
N12 C8 1.351 . S
N12 Eu11 2.562 . S
N12 C14 1.325 . S
C13 C7 1.404 . S
C13 C15 1.366 . S
C13 H21 0.930 . S
C14 N12 1.325 . S
C14 C15 1.416 1_455 S
C14 H20 0.929 . S
C15 C13 1.366 . S
C15 C14 1.416 1_655 S
C15 H17 0.930 . S
H16 C5 0.930 . S
H17 C15 0.930 . S
H18 C33 0.930 . S
H19 C40 0.930 . S
H20 C14 0.929 . S
H21 C13 0.930 . S
H22 C36 0.929 . S
H23 C3 0.931 . S
H24 C9 0.931 . S
H25 C10 0.931 1_565 S
H26 C31 0.931 . S
H27 C6 0.929 1_565 S
H28 C39 0.930 . S
N29 Eu0 2.600 . S
N29 C30 1.365 . S
N29 C33 1.319 . S
C30 N29 1.365 . S
C30 C32 1.405 . S
C30 C38 1.448 . S
C31 H26 0.931 . S
C31 C33 1.397 . S
C31 C34 1.367 . S
C32 C30 1.405 . S
C32 C34 1.403 . S
C32 C65 1.439 . S
C33 H18 0.930 . S
C33 N29 1.319 . S
C33 C31 1.397 . S
C34 C31 1.367 . S
C34 C32 1.403 . S
C34 H41 0.929 . S
N35 Eu0 2.562 . S
N35 C36 1.325 . S
N35 C38 1.351 . S
C36 H22 0.929 . S
C36 N35 1.325 . S
C36 C40 1.416 . S
C37 C38 1.430 . S
C37 C39 1.404 . S
C37 C66 1.387 . S
C38 C30 1.448 . S
C38 N35 1.351 . S
C38 C37 1.430 . S
C39 H28 0.930 . S
C39 C37 1.404 . S
C39 C40 1.366 . S
C40 H19 0.930 . S
C40 C36 1.416 . S
C40 C39 1.366 . S
H41 C34 0.929 . S
H42 C65 0.931 . S
H43 C66 0.931 . S
O44 Eu0 2.462 . S
O44 C64 1.252 . S
O45 Eu0 2.373 . S
O45 C56 1.249 . S
O46 Eu11 2.335 . S
O46 C56 1.264 . S
O47 Eu0 2.432 . S
O47 C64 1.268 . S
O48 Eu0 2.291 . S
O48 C63 1.255 . S
O49 Eu11 2.372 . S
O49 C63 1.257 . S
O50 Eu11 2.462 . S
O50 C75 1.252 . S
O51 Eu11 2.373 . S
O51 C67 1.249 . S
O52 Eu0 2.335 . S
O52 C67 1.264 . S
O53 Eu11 2.432 . S
O53 C75 1.268 . S
O54 Eu11 2.291 . S
O54 C74 1.255 . S
O55 Eu0 2.372 . S
O55 C74 1.257 . S
C56 O45 1.249 . S
C56 O46 1.264 . S
C57 C60 1.382 . S
C57 C62 1.390 . S
C57 C64 1.506 . S
C58 C59 1.398 . S
C58 C62 1.392 . S
C59 C58 1.398 . S
C59 C61 1.372 . S
C59 H76 0.931 . S
C60 C57 1.382 . S
C60 C61 1.390 . S
C60 H77 0.931 . S
C61 C59 1.372 . S
C61 C60 1.390 . S
C61 H78 0.929 . S
C62 C57 1.390 . S
C62 C58 1.392 . S
C62 H79 0.930 . S
C63 O48 1.255 . S
C63 O49 1.257 . S
C64 Eu0 2.787 . S
C64 O44 1.252 . S
C64 O47 1.268 . S
C64 C57 1.506 . S
C65 C32 1.439 . S
C65 H42 0.931 . S
C65 C66 1.374 . S
C66 C37 1.387 . S
C66 H43 0.931 . S
C66 C65 1.374 . S
C67 O51 1.249 . S
C67 O52 1.264 . S
C68 C71 1.382 . S
C68 C72 1.390 . S
C68 C75 1.506 . S
C69 C70 1.398 . S
C69 C72 1.392 . S
C70 C69 1.398 . S
C70 C73 1.372 . S
C70 H80 0.931 . S
C71 C68 1.382 . S
C71 C73 1.390 . S
C71 H81 0.931 . S
C72 C68 1.390 . S
C72 C69 1.392 . S
C72 H82 0.930 . S
C73 C70 1.372 . S
C73 C71 1.390 . S
C73 H83 0.929 . S
C74 O54 1.255 . S
C74 O55 1.257 . S
C75 Eu11 2.787 . S
C75 O50 1.252 . S
C75 O53 1.268 . S
C75 C68 1.506 . S
H76 C59 0.931 . S
H77 C60 0.931 . S
H78 C61 0.929 . S
H79 C62 0.930 . S
H80 C70 0.931 . S
H81 C71 0.931 . S
H82 C72 0.930 . S
H83 C73 0.929 . S
Eu84 N113 2.600 . S
Eu84 N119 2.562 . S
Eu84 O128 2.462 . S
Eu84 O129 2.373 . S
Eu84 O131 2.432 . S
Eu84 O132 2.291 . S
Eu84 O136 2.335 . S
Eu84 O139 2.372 . S
Eu84 C148 2.787 . S
C85 N86 1.365 . S
C85 C88 1.405 . S
C85 C92 1.448 . S
N86 C85 1.365 . S
N86 C89 1.319 1_565 S
N86 Eu95 2.600 . S
C87 C89 1.397 . S
C87 C90 1.367 . S
C87 H107 0.931 . S
C88 C85 1.405 . S
C88 C90 1.403 1_565 S
C88 C94 1.439 . S
C89 N86 1.319 1_545 S
C89 C87 1.397 . S
C89 H100 0.930 . S
C90 C87 1.367 . S
C90 C88 1.403 1_545 S
C90 H111 0.929 1_655 S
C91 C92 1.430 . S
C91 C93 1.387 . S
C91 C97 1.404 . S
C92 C85 1.448 . S
C92 C91 1.430 . S
C92 N96 1.351 . S
C93 C91 1.387 . S
C93 C94 1.374 . S
C93 H108 0.931 . S
C94 C88 1.439 . S
C94 C93 1.374 . S
C94 H109 0.931 1_655 S
Eu95 N86 2.600 . S
Eu95 N96 2.562 . S
Eu95 O130 2.335 . S
Eu95 O133 2.372 . S
Eu95 O134 2.462 . S
Eu95 O135 2.373 . S
Eu95 O137 2.432 . S
Eu95 O138 2.291 . S
Eu95 C159 2.787 . S
N96 C92 1.351 . S
N96 Eu95 2.562 . S
N96 C98 1.325 . S
C97 C91 1.404 . S
C97 C99 1.366 . S
C97 H105 0.930 . S
C98 N96 1.325 . S
C98 C99 1.416 . S
C98 H104 0.929 . S
C99 C97 1.366 . S
C99 C98 1.416 . S
C99 H101 0.930 . S
H100 C89 0.930 . S
H101 C99 0.930 . S
H102 C117 0.930 . S
H103 C124 0.930 . S
H104 C98 0.929 . S
H105 C97 0.930 . S
H106 C120 0.929 . S
H107 C87 0.931 . S
H108 C93 0.931 . S
H109 C94 0.931 1_455 S
H110 C115 0.931 . S
H111 C90 0.929 1_455 S
H112 C123 0.930 1_545 S
N113 Eu84 2.600 . S
N113 C114 1.365 . S
N113 C117 1.319 . S
C114 N113 1.365 . S
C114 C116 1.405 . S
C114 C122 1.448 . S
C115 H110 0.931 . S
C115 C117 1.397 . S
C115 C118 1.367 . S
C116 C114 1.405 . S
C116 C118 1.403 . S
C116 C149 1.439 . S
C117 H102 0.930 . S
C117 N113 1.319 . S
C117 C115 1.397 . S
C118 C115 1.367 . S
C118 C116 1.403 . S
C118 H125 0.929 . S
N119 Eu84 2.562 . S
N119 C120 1.325 . S
N119 C122 1.351 . S
C120 H106 0.929 . S
C120 N119 1.325 . S
C120 C124 1.416 1_565 S
C121 C122 1.430 . S
C121 C123 1.404 . S
C121 C150 1.387 . S
C122 C114 1.448 . S
C122 N119 1.351 . S
C122 C121 1.430 . S
C123 H112 0.930 1_565 S
C123 C121 1.404 . S
C123 C124 1.366 1_565 S
C124 H103 0.930 . S
C124 C120 1.416 1_545 S
C124 C123 1.366 1_545 S
H125 C118 0.929 . S
H126 C149 0.931 . S
H127 C150 0.931 . S
O128 Eu84 2.462 . S
O128 C148 1.252 . S
O129 Eu84 2.373 . S
O129 C140 1.249 . S
O130 Eu95 2.335 . S
O130 C140 1.264 . S
O131 Eu84 2.432 . S
O131 C148 1.268 . S
O132 Eu84 2.291 . S
O132 C147 1.255 . S
O133 Eu95 2.372 . S
O133 C147 1.257 . S
O134 Eu95 2.462 . S
O134 C159 1.252 . S
O135 Eu95 2.373 . S
O135 C151 1.249 . S
O136 Eu84 2.335 . S
O136 C151 1.264 . S
O137 Eu95 2.432 . S
O137 C159 1.268 . S
O138 Eu95 2.291 . S
O138 C158 1.255 . S
O139 Eu84 2.372 . S
O139 C158 1.257 . S
C140 O129 1.249 . S
C140 O130 1.264 . S
C141 C144 1.382 . S
C141 C146 1.390 . S
C141 C148 1.506 . S
C142 C143 1.398 . S
C142 C146 1.392 . S
C143 C142 1.398 . S
C143 C145 1.372 . S
C143 H160 0.931 . S
C144 C141 1.382 . S
C144 C145 1.390 . S
C144 H161 0.931 . S
C145 C143 1.372 . S
C145 C144 1.390 . S
C145 H162 0.929 . S
C146 C141 1.390 . S
C146 C142 1.392 . S
C146 H163 0.930 . S
C147 O132 1.255 . S
C147 O133 1.257 . S
C148 Eu84 2.787 . S
C148 O128 1.252 . S
C148 O131 1.268 . S
C148 C141 1.506 . S
C149 C116 1.439 . S
C149 H126 0.931 . S
C149 C150 1.374 . S
C150 C121 1.387 . S
C150 H127 0.931 . S
C150 C149 1.374 . S
C151 O135 1.249 . S
C151 O136 1.264 . S
C152 C155 1.382 . S
C152 C156 1.390 . S
C152 C159 1.506 . S
C153 C154 1.398 . S
C153 C156 1.392 . S
C154 C153 1.398 . S
C154 C157 1.372 . S
C154 H164 0.931 . S
C155 C152 1.382 . S
C155 C157 1.390 . S
C155 H165 0.931 . S
C156 C152 1.390 . S
C156 C153 1.392 . S
C156 H166 0.930 . S
C157 C154 1.372 . S
C157 C155 1.390 . S
C157 H167 0.929 . S
C158 O138 1.255 . S
C158 O139 1.257 . S
C159 Eu95 2.787 . S
C159 O134 1.252 . S
C159 O137 1.268 . S
C159 C152 1.506 . S
H160 C143 0.931 . S
H161 C144 0.931 . S
H162 C145 0.929 . S
H163 C146 0.930 . S
H164 C154 0.931 . S
H165 C155 0.931 . S
H166 C156 0.930 . S
H167 C157 0.929 . S
Eu168 N197 2.600 . S
Eu168 N203 2.562 . S
Eu168 O212 2.462 . S
Eu168 O213 2.373 . S
Eu168 O215 2.432 . S
Eu168 O216 2.291 . S
Eu168 O220 2.335 . S
Eu168 O223 2.372 . S
Eu168 C232 2.787 . S
C169 N170 1.365 . S
C169 C172 1.405 . S
C169 C176 1.448 . S
N170 C169 1.365 . S
N170 C173 1.319 1_455 S
N170 Eu179 2.600 . S
C171 C173 1.397 . S
C171 C174 1.367 . S
C171 H191 0.931 . S
C172 C169 1.405 . S
C172 C174 1.403 1_455 S
C172 C178 1.439 1_565 S
C173 N170 1.319 1_655 S
C173 C171 1.397 . S
C173 H184 0.930 . S
C174 C171 1.367 . S
C174 C172 1.403 1_655 S
C174 H195 0.929 . S
C175 C176 1.430 1_545 S
C175 C177 1.387 . S
C175 C181 1.404 . S
C176 C169 1.448 . S
C176 C175 1.430 1_565 S
C176 N180 1.351 . S
C177 C175 1.387 . S
C177 C178 1.374 . S
C177 H192 0.931 . S
C178 C172 1.439 1_545 S
C178 C177 1.374 . S
C178 H193 0.931 . S
Eu179 N170 2.600 . S
Eu179 N180 2.562 . S
Eu179 O214 2.335 . S
Eu179 O217 2.372 . S
Eu179 O218 2.462 . S
Eu179 O219 2.373 . S
Eu179 O221 2.432 . S
Eu179 O222 2.291 . S
Eu179 C243 2.787 . S
N180 C176 1.351 . S
N180 Eu179 2.562 . S
N180 C182 1.325 . S
C181 C175 1.404 . S
C181 C183 1.366 . S
C181 H189 0.930 . S
C182 N180 1.325 . S
C182 C183 1.416 1_565 S
C182 H188 0.929 . S
C183 C181 1.366 . S
C183 C182 1.416 1_545 S
C183 H185 0.930 . S
H184 C173 0.930 . S
H185 C183 0.930 . S
H186 C201 0.930 . S
H187 C208 0.930 . S
H188 C182 0.929 . S
H189 C181 0.930 . S
H190 C204 0.929 . S
H191 C171 0.931 . S
H192 C177 0.931 . S
H193 C178 0.931 . S
H194 C199 0.931 . S
H195 C174 0.929 . S
H196 C207 0.930 1_655 S
N197 Eu168 2.600 . S
N197 C198 1.365 . S
N197 C201 1.319 . S
C198 N197 1.365 . S
C198 C200 1.405 . S
C198 C206 1.448 . S
C199 H194 0.931 . S
C199 C201 1.397 . S
C199 C202 1.367 . S
C200 C198 1.405 . S
C200 C202 1.403 . S
C200 C233 1.439 . S
C201 H186 0.930 . S
C201 N197 1.319 . S
C201 C199 1.397 . S
C202 C199 1.367 . S
C202 C200 1.403 . S
C202 H209 0.929 . S
N203 Eu168 2.562 . S
N203 C204 1.325 . S
N203 C206 1.351 . S
C204 H190 0.929 . S
C204 N203 1.325 . S
C204 C208 1.416 1_455 S
C205 C206 1.430 . S
C205 C207 1.404 . S
C205 C234 1.387 . S
C206 C198 1.448 . S
C206 N203 1.351 . S
C206 C205 1.430 . S
C207 H196 0.930 1_455 S
C207 C205 1.404 . S
C207 C208 1.366 1_455 S
C208 H187 0.930 . S
C208 C204 1.416 1_655 S
C208 C207 1.366 1_655 S
H209 C202 0.929 . S
H210 C233 0.931 . S
H211 C234 0.931 . S
O212 Eu168 2.462 . S
O212 C232 1.252 . S
O213 Eu168 2.373 . S
O213 C224 1.249 . S
O214 Eu179 2.335 . S
O214 C224 1.264 . S
O215 Eu168 2.432 . S
O215 C232 1.268 . S
O216 Eu168 2.291 . S
O216 C231 1.255 . S
O217 Eu179 2.372 . S
O217 C231 1.257 . S
O218 Eu179 2.462 . S
O218 C243 1.252 . S
O219 Eu179 2.373 . S
O219 C235 1.249 . S
O220 Eu168 2.335 . S
O220 C235 1.264 . S
O221 Eu179 2.432 . S
O221 C243 1.268 . S
O222 Eu179 2.291 . S
O222 C242 1.255 . S
O223 Eu168 2.372 . S
O223 C242 1.257 . S
C224 O213 1.249 . S
C224 O214 1.264 . S
C225 C228 1.382 . S
C225 C230 1.390 . S
C225 C232 1.506 . S
C226 C227 1.398 . S
C226 C230 1.392 . S
C227 C226 1.398 . S
C227 C229 1.372 . S
C227 H244 0.931 . S
C228 C225 1.382 . S
C228 C229 1.390 . S
C228 H245 0.931 . S
C229 C227 1.372 . S
C229 C228 1.390 . S
C229 H246 0.929 . S
C230 C225 1.390 . S
C230 C226 1.392 . S
C230 H247 0.930 . S
C231 O216 1.255 . S
C231 O217 1.257 . S
C232 Eu168 2.787 . S
C232 O212 1.252 . S
C232 O215 1.268 . S
C232 C225 1.506 . S
C233 C200 1.439 . S
C233 H210 0.931 . S
C233 C234 1.374 . S
C234 C205 1.387 . S
C234 H211 0.931 . S
C234 C233 1.374 . S
C235 O219 1.249 . S
C235 O220 1.264 . S
C236 C239 1.382 . S
C236 C240 1.390 . S
C236 C243 1.506 . S
C237 C238 1.398 . S
C237 C240 1.392 . S
C238 C237 1.398 . S
C238 C241 1.372 . S
C238 H248 0.931 . S
C239 C236 1.382 . S
C239 C241 1.390 . S
C239 H249 0.931 . S
C240 C236 1.390 . S
C240 C237 1.392 . S
C240 H250 0.930 . S
C241 C238 1.372 . S
C241 C239 1.390 . S
C241 H251 0.929 . S
C242 O222 1.255 . S
C242 O223 1.257 . S
C243 Eu179 2.787 . S
C243 O218 1.252 . S
C243 O221 1.268 . S
C243 C236 1.506 . S
H244 C227 0.931 . S
H245 C228 0.931 . S
H246 C229 0.929 . S
H247 C230 0.930 . S
H248 C238 0.931 . S
H249 C239 0.931 . S
H250 C240 0.930 . S
H251 C241 0.929 . S
Eu252 N281 2.600 . S
Eu252 N287 2.562 . S
Eu252 O296 2.462 . S
Eu252 O297 2.373 . S
Eu252 O299 2.432 . S
Eu252 O300 2.291 . S
Eu252 O304 2.335 . S
Eu252 O307 2.372 . S
Eu252 C316 2.787 . S
C253 N254 1.365 . S
C253 C256 1.405 . S
C253 C260 1.448 . S
N254 C253 1.365 . S
N254 C257 1.319 . S
N254 Eu263 2.600 . S
C255 C257 1.397 . S
C255 C258 1.367 . S
C255 H275 0.931 . S
C256 C253 1.405 . S
C256 C258 1.403 . S
C256 C262 1.439 1_545 S
C257 N254 1.319 . S
C257 C255 1.397 . S
C257 H268 0.930 . S
C258 C255 1.367 . S
C258 C256 1.403 . S
C258 H279 0.929 1_455 S
C259 C260 1.430 1_565 S
C259 C261 1.387 . S
C259 C265 1.404 . S
C260 C253 1.448 . S
C260 C259 1.430 1_545 S
C260 N264 1.351 . S
C261 C259 1.387 . S
C261 C262 1.374 . S
C261 H276 0.931 . S
C262 C256 1.439 1_565 S
C262 C261 1.374 . S
C262 H277 0.931 . S
Eu263 N254 2.600 . S
Eu263 N264 2.562 . S
Eu263 O298 2.335 . S
Eu263 O301 2.372 . S
Eu263 O302 2.462 . S
Eu263 O303 2.373 . S
Eu263 O305 2.432 . S
Eu263 O306 2.291 . S
Eu263 C327 2.787 . S
N264 C260 1.351 . S
N264 Eu263 2.562 . S
N264 C266 1.325 . S
C265 C259 1.404 . S
C265 C267 1.366 . S
C265 H273 0.930 . S
C266 N264 1.325 . S
C266 C267 1.416 1_545 S
C266 H272 0.929 . S
C267 C265 1.366 . S
C267 C266 1.416 1_565 S
C267 H269 0.930 . S
H268 C257 0.930 . S
H269 C267 0.930 . S
H270 C285 0.930 . S
H271 C292 0.930 . S
H272 C266 0.929 . S
H273 C265 0.930 . S
H274 C288 0.929 . S
H275 C255 0.931 . S
H276 C261 0.931 . S
H277 C262 0.931 . S
H278 C283 0.931 . S
H279 C258 0.929 1_655 S
H280 C291 0.930 . S
N281 Eu252 2.600 . S
N281 C282 1.365 . S
N281 C285 1.319 . S
C282 N281 1.365 . S
C282 C284 1.405 . S
C282 C290 1.448 . S
C283 H278 0.931 . S
C283 C285 1.397 . S
C283 C286 1.367 . S
C284 C282 1.405 . S
C284 C286 1.403 . S
C284 C317 1.439 . S
C285 H270 0.930 . S
C285 N281 1.319 . S
C285 C283 1.397 . S
C286 C283 1.367 . S
C286 C284 1.403 . S
C286 H293 0.929 . S
N287 Eu252 2.562 . S
N287 C288 1.325 . S
N287 C290 1.351 . S
C288 H274 0.929 . S
C288 N287 1.325 . S
C288 C292 1.416 . S
C289 C290 1.430 . S
C289 C291 1.404 . S
C289 C318 1.387 . S
C290 C282 1.448 . S
C290 N287 1.351 . S
C290 C289 1.430 . S
C291 H280 0.930 . S
C291 C289 1.404 . S
C291 C292 1.366 . S
C292 H271 0.930 . S
C292 C288 1.416 . S
C292 C291 1.366 . S
H293 C286 0.929 . S
H294 C317 0.931 . S
H295 C318 0.931 . S
O296 Eu252 2.462 . S
O296 C316 1.252 . S
O297 Eu252 2.373 . S
O297 C308 1.249 . S
O298 Eu263 2.335 . S
O298 C308 1.264 . S
O299 Eu252 2.432 . S
O299 C316 1.268 . S
O300 Eu252 2.291 . S
O300 C315 1.255 . S
O301 Eu263 2.372 . S
O301 C315 1.257 . S
O302 Eu263 2.462 . S
O302 C327 1.252 . S
O303 Eu263 2.373 . S
O303 C319 1.249 . S
O304 Eu252 2.335 . S
O304 C319 1.264 . S
O305 Eu263 2.432 . S
O305 C327 1.268 . S
O306 Eu263 2.291 . S
O306 C326 1.255 . S
O307 Eu252 2.372 . S
O307 C326 1.257 . S
C308 O297 1.249 . S
C308 O298 1.264 . S
C309 C312 1.382 . S
C309 C314 1.390 . S
C309 C316 1.506 . S
C310 C311 1.398 . S
C310 C314 1.392 . S
C311 C310 1.398 . S
C311 C313 1.372 . S
C311 H328 0.931 . S
C312 C309 1.382 . S
C312 C313 1.390 . S
C312 H329 0.931 . S
C313 C311 1.372 . S
C313 C312 1.390 . S
C313 H330 0.929 . S
C314 C309 1.390 . S
C314 C310 1.392 . S
C314 H331 0.930 . S
C315 O300 1.255 . S
C315 O301 1.257 . S
C316 Eu252 2.787 . S
C316 O296 1.252 . S
C316 O299 1.268 . S
C316 C309 1.506 . S
C317 C284 1.439 . S
C317 H294 0.931 . S
C317 C318 1.374 . S
C318 C289 1.387 . S
C318 H295 0.931 . S
C318 C317 1.374 . S
C319 O303 1.249 . S
C319 O304 1.264 . S
C320 C323 1.382 . S
C320 C324 1.390 . S
C320 C327 1.506 . S
C321 C322 1.398 . S
C321 C324 1.392 . S
C322 C321 1.398 . S
C322 C325 1.372 . S
C322 H332 0.931 . S
C323 C320 1.382 . S
C323 C325 1.390 . S
C323 H333 0.931 . S
C324 C320 1.390 . S
C324 C321 1.392 . S
C324 H334 0.930 . S
C325 C322 1.372 . S
C325 C323 1.390 . S
C325 H335 0.929 . S
C326 O306 1.255 . S
C326 O307 1.257 . S
C327 Eu263 2.787 . S
C327 O302 1.252 . S
C327 O305 1.268 . S
C327 C320 1.506 . S
H328 C311 0.931 . S
H329 C312 0.931 . S
H330 C313 0.929 . S
H331 C314 0.930 . S
H332 C322 0.931 . S
H333 C323 0.931 . S
H334 C324 0.930 . S
H335 C325 0.929 . S
Eu336 N365 2.600 . S
Eu336 N371 2.562 . S
Eu336 O380 2.462 . S
Eu336 O381 2.373 . S
Eu336 O383 2.432 . S
Eu336 O384 2.291 . S
Eu336 O388 2.335 . S
Eu336 O391 2.372 . S
Eu336 C400 2.787 . S
C337 N338 1.365 . S
C337 C340 1.405 . S
C337 C344 1.448 . S
N338 C337 1.365 . S
N338 C341 1.319 1_545 S
N338 Eu347 2.600 . S
C339 C341 1.397 . S
C339 C342 1.367 . S
C339 H359 0.931 . S
C340 C337 1.405 . S
C340 C342 1.403 1_545 S
C340 C346 1.439 1_655 S
C341 N338 1.319 1_565 S
C341 C339 1.397 . S
C341 H352 0.930 . S
C342 C339 1.367 . S
C342 C340 1.403 1_565 S
C342 H363 0.929 . S
C343 C344 1.430 1_455 S
C343 C345 1.387 . S
C343 C349 1.404 . S
C344 C337 1.448 . S
C344 C343 1.430 1_655 S
C344 N348 1.351 . S
C345 C343 1.387 . S
C345 C346 1.374 . S
C345 H360 0.931 . S
C346 C340 1.439 1_455 S
C346 C345 1.374 . S
C346 H361 0.931 . S
Eu347 N338 2.600 . S
Eu347 N348 2.562 . S
Eu347 O382 2.335 . S
Eu347 O385 2.372 . S
Eu347 O386 2.462 . S
Eu347 O387 2.373 . S
Eu347 O389 2.432 . S
Eu347 O390 2.291 . S
Eu347 C411 2.787 . S
N348 C344 1.351 . S
N348 Eu347 2.562 . S
N348 C350 1.325 . S
C349 C343 1.404 . S
C349 C351 1.366 . S
C349 H357 0.930 . S
C350 N348 1.325 . S
C350 C351 1.416 1_655 S
C350 H356 0.929 . S
C351 C349 1.366 . S
C351 C350 1.416 1_455 S
C351 H353 0.930 . S
H352 C341 0.930 . S
H353 C351 0.930 . S
H354 C369 0.930 . S
H355 C376 0.930 . S
H356 C350 0.929 . S
H357 C349 0.930 . S
H358 C372 0.929 . S
H359 C339 0.931 . S
H360 C345 0.931 . S
H361 C346 0.931 . S
H362 C367 0.931 . S
H363 C342 0.929 . S
H364 C375 0.930 1_565 S
N365 Eu336 2.600 . S
N365 C366 1.365 . S
N365 C369 1.319 . S
C366 N365 1.365 . S
C366 C368 1.405 . S
C366 C374 1.448 . S
C367 H362 0.931 . S
C367 C369 1.397 . S
C367 C370 1.367 . S
C368 C366 1.405 . S
C368 C370 1.403 . S
C368 C401 1.439 . S
C369 H354 0.930 . S
C369 N365 1.319 . S
C369 C367 1.397 . S
C370 C367 1.367 . S
C370 C368 1.403 . S
C370 H377 0.929 . S
N371 Eu336 2.562 . S
N371 C372 1.325 . S
N371 C374 1.351 . S
C372 H358 0.929 . S
C372 N371 1.325 . S
C372 C376 1.416 1_545 S
C373 C374 1.430 . S
C373 C375 1.404 . S
C373 C402 1.387 . S
C374 C366 1.448 . S
C374 N371 1.351 . S
C374 C373 1.430 . S
C375 H364 0.930 1_545 S
C375 C373 1.404 . S
C375 C376 1.366 1_545 S
C376 H355 0.930 . S
C376 C372 1.416 1_565 S
C376 C375 1.366 1_565 S
H377 C370 0.929 . S
H378 C401 0.931 . S
H379 C402 0.931 . S
O380 Eu336 2.462 . S
O380 C400 1.252 . S
O381 Eu336 2.373 . S
O381 C392 1.249 . S
O382 Eu347 2.335 . S
O382 C392 1.264 . S
O383 Eu336 2.432 . S
O383 C400 1.268 . S
O384 Eu336 2.291 . S
O384 C399 1.255 . S
O385 Eu347 2.372 . S
O385 C399 1.257 . S
O386 Eu347 2.462 . S
O386 C411 1.252 . S
O387 Eu347 2.373 . S
O387 C403 1.249 . S
O388 Eu336 2.335 . S
O388 C403 1.264 . S
O389 Eu347 2.432 . S
O389 C411 1.268 . S
O390 Eu347 2.291 . S
O390 C410 1.255 . S
O391 Eu336 2.372 . S
O391 C410 1.257 . S
C392 O381 1.249 . S
C392 O382 1.264 . S
C393 C396 1.382 . S
C393 C398 1.390 . S
C393 C400 1.506 . S
C394 C395 1.398 . S
C394 C398 1.392 . S
C395 C394 1.398 . S
C395 C397 1.372 . S
C395 H412 0.931 . S
C396 C393 1.382 . S
C396 C397 1.390 . S
C396 H413 0.931 . S
C397 C395 1.372 . S
C397 C396 1.390 . S
C397 H414 0.929 . S
C398 C393 1.390 . S
C398 C394 1.392 . S
C398 H415 0.930 . S
C399 O384 1.255 . S
C399 O385 1.257 . S
C400 Eu336 2.787 . S
C400 O380 1.252 . S
C400 O383 1.268 . S
C400 C393 1.506 . S
C401 C368 1.439 . S
C401 H378 0.931 . S
C401 C402 1.374 . S
C402 C373 1.387 . S
C402 H379 0.931 . S
C402 C401 1.374 . S
C403 O387 1.249 . S
C403 O388 1.264 . S
C404 C407 1.382 . S
C404 C408 1.390 . S
C404 C411 1.506 . S
C405 C406 1.398 . S
C405 C408 1.392 . S
C406 C405 1.398 . S
C406 C409 1.372 . S
C406 H416 0.931 . S
C407 C404 1.382 . S
C407 C409 1.390 . S
C407 H417 0.931 . S
C408 C404 1.390 . S
C408 C405 1.392 . S
C408 H418 0.930 . S
C409 C406 1.372 . S
C409 C407 1.390 . S
C409 H419 0.929 . S
C410 O390 1.255 . S
C410 O391 1.257 . S
C411 Eu347 2.787 . S
C411 O386 1.252 . S
C411 O389 1.268 . S
C411 C404 1.506 . S
H412 C395 0.931 . S
H413 C396 0.931 . S
H414 C397 0.929 . S
H415 C398 0.930 . S
H416 C406 0.931 . S
H417 C407 0.931 . S
H418 C408 0.930 . S
H419 C409 0.929 . S
Eu420 N449 2.600 . S
Eu420 N455 2.562 . S
Eu420 O464 2.462 . S
Eu420 O465 2.373 . S
Eu420 O467 2.432 . S
Eu420 O468 2.291 . S
Eu420 O472 2.335 . S
Eu420 O475 2.372 . S
Eu420 C484 2.787 . S
C421 N422 1.365 . S
C421 C424 1.405 . S
C421 C428 1.448 . S
N422 C421 1.365 . S
N422 C425 1.319 1_655 S
N422 Eu431 2.600 . S
C423 C425 1.397 . S
C423 C426 1.367 . S
C423 H443 0.931 . S
C424 C421 1.405 . S
C424 C426 1.403 1_655 S
C424 C430 1.439 . S
C425 N422 1.319 1_455 S
C425 C423 1.397 . S
C425 H436 0.930 . S
C426 C423 1.367 . S
C426 C424 1.403 1_455 S
C426 H447 0.929 1_565 S
C427 C428 1.430 . S
C427 C429 1.387 . S
C427 C433 1.404 . S
C428 C421 1.448 . S
C428 C427 1.430 . S
C428 N432 1.351 . S
C429 C427 1.387 . S
C429 C430 1.374 . S
C429 H444 0.931 . S
C430 C424 1.439 . S
C430 C429 1.374 . S
C430 H445 0.931 . S
Eu431 N422 2.600 . S
Eu431 N432 2.562 . S
Eu431 O466 2.335 . S
Eu431 O469 2.372 . S
Eu431 O470 2.462 . S
Eu431 O471 2.373 . S
Eu431 O473 2.432 . S
Eu431 O474 2.291 . S
Eu431 C495 2.787 . S
N432 C428 1.351 . S
N432 Eu431 2.562 . S
N432 C434 1.325 . S
C433 C427 1.404 . S
C433 C435 1.366 . S
C433 H441 0.930 . S
C434 N432 1.325 . S
C434 C435 1.416 . S
C434 H440 0.929 . S
C435 C433 1.366 . S
C435 C434 1.416 . S
C435 H437 0.930 . S
H436 C425 0.930 . S
H437 C435 0.930 . S
H438 C453 0.930 . S
H439 C460 0.930 . S
H440 C434 0.929 . S
H441 C433 0.930 . S
H442 C456 0.929 . S
H443 C423 0.931 . S
H444 C429 0.931 . S
H445 C430 0.931 . S
H446 C451 0.931 . S
H447 C426 0.929 1_545 S
H448 C459 0.930 1_455 S
N449 Eu420 2.600 . S
N449 C450 1.365 . S
N449 C453 1.319 . S
C450 N449 1.365 . S
C450 C452 1.405 . S
C450 C458 1.448 . S
C451 H446 0.931 . S
C451 C453 1.397 . S
C451 C454 1.367 . S
C452 C450 1.405 . S
C452 C454 1.403 . S
C452 C485 1.439 . S
C453 H438 0.930 . S
C453 N449 1.319 . S
C453 C451 1.397 . S
C454 C451 1.367 . S
C454 C452 1.403 . S
C454 H461 0.929 . S
N455 Eu420 2.562 . S
N455 C456 1.325 . S
N455 C458 1.351 . S
C456 H442 0.929 . S
C456 N455 1.325 . S
C456 C460 1.416 1_655 S
C457 C458 1.430 . S
C457 C459 1.404 . S
C457 C486 1.387 . S
C458 C450 1.448 . S
C458 N455 1.351 . S
C458 C457 1.430 . S
C459 H448 0.930 1_655 S
C459 C457 1.404 . S
C459 C460 1.366 1_655 S
C460 H439 0.930 . S
C460 C456 1.416 1_455 S
C460 C459 1.366 1_455 S
H461 C454 0.929 . S
H462 C485 0.931 . S
H463 C486 0.931 . S
O464 Eu420 2.462 . S
O464 C484 1.252 . S
O465 Eu420 2.373 . S
O465 C476 1.249 . S
O466 Eu431 2.335 . S
O466 C476 1.264 . S
O467 Eu420 2.432 . S
O467 C484 1.268 . S
O468 Eu420 2.291 . S
O468 C483 1.255 . S
O469 Eu431 2.372 . S
O469 C483 1.257 . S
O470 Eu431 2.462 . S
O470 C495 1.252 . S
O471 Eu431 2.373 . S
O471 C487 1.249 . S
O472 Eu420 2.335 . S
O472 C487 1.264 . S
O473 Eu431 2.432 . S
O473 C495 1.268 . S
O474 Eu431 2.291 . S
O474 C494 1.255 . S
O475 Eu420 2.372 . S
O475 C494 1.257 . S
C476 O465 1.249 . S
C476 O466 1.264 . S
C477 C480 1.382 . S
C477 C482 1.390 . S
C477 C484 1.506 . S
C478 C479 1.398 . S
C478 C482 1.392 . S
C479 C478 1.398 . S
C479 C481 1.372 . S
C479 H496 0.931 . S
C480 C477 1.382 . S
C480 C481 1.390 . S
C480 H497 0.931 . S
C481 C479 1.372 . S
C481 C480 1.390 . S
C481 H498 0.929 . S
C482 C477 1.390 . S
C482 C478 1.392 . S
C482 H499 0.930 . S
C483 O468 1.255 . S
C483 O469 1.257 . S
C484 Eu420 2.787 . S
C484 O464 1.252 . S
C484 O467 1.268 . S
C484 C477 1.506 . S
C485 C452 1.439 . S
C485 H462 0.931 . S
C485 C486 1.374 . S
C486 C457 1.387 . S
C486 H463 0.931 . S
C486 C485 1.374 . S
C487 O471 1.249 . S
C487 O472 1.264 . S
C488 C491 1.382 . S
C488 C492 1.390 . S
C488 C495 1.506 . S
C489 C490 1.398 . S
C489 C492 1.392 . S
C490 C489 1.398 . S
C490 C493 1.372 . S
C490 H500 0.931 . S
C491 C488 1.382 . S
C491 C493 1.390 . S
C491 H501 0.931 . S
C492 C488 1.390 . S
C492 C489 1.392 . S
C492 H502 0.930 . S
C493 C490 1.372 . S
C493 C491 1.390 . S
C493 H503 0.929 . S
C494 O474 1.255 . S
C494 O475 1.257 . S
C495 Eu431 2.787 . S
C495 O470 1.252 . S
C495 O473 1.268 . S
C495 C488 1.506 . S
H496 C479 0.931 . S
H497 C480 0.931 . S
H498 C481 0.929 . S
H499 C482 0.930 . S
H500 C490 0.931 . S
H501 C491 0.931 . S
H502 C492 0.930 . S
H503 C493 0.929 . S
Eu504 N533 2.600 . S
Eu504 N539 2.562 . S
Eu504 O548 2.462 . S
Eu504 O549 2.373 . S
Eu504 O551 2.432 . S
Eu504 O552 2.291 . S
Eu504 O556 2.335 . S
Eu504 O559 2.372 . S
Eu504 C568 2.787 . S
C505 N506 1.365 . S
C505 C508 1.405 . S
C505 C512 1.448 . S
N506 C505 1.365 . S
N506 C509 1.319 . S
N506 Eu515 2.600 . S
C507 C509 1.397 . S
C507 C510 1.367 . S
C507 H527 0.931 . S
C508 C505 1.405 . S
C508 C510 1.403 . S
C508 C514 1.439 . S
C509 N506 1.319 . S
C509 C507 1.397 . S
C509 H520 0.930 . S
C510 C507 1.367 . S
C510 C508 1.403 . S
C510 H531 0.929 . S
C511 C512 1.430 . S
C511 C513 1.387 . S
C511 C517 1.404 . S
C512 C505 1.448 . S
C512 C511 1.430 . S
C512 N516 1.351 . S
C513 C511 1.387 . S
C513 C514 1.374 . S
C513 H528 0.931 . S
C514 C508 1.439 . S
C514 C513 1.374 . S
C514 H529 0.931 . S
Eu515 N506 2.600 . S
Eu515 N516 2.562 . S
Eu515 O550 2.335 . S
Eu515 O553 2.372 . S
Eu515 O554 2.462 . S
Eu515 O555 2.373 . S
Eu515 O557 2.432 . S
Eu515 O558 2.291 . S
Eu515 C579 2.787 . S
N516 C512 1.351 . S
N516 Eu515 2.562 . S
N516 C518 1.325 . S
C517 C511 1.404 . S
C517 C519 1.366 . S
C517 H525 0.930 . S
C518 N516 1.325 . S
C518 C519 1.416 . S
C518 H524 0.929 . S
C519 C517 1.366 . S
C519 C518 1.416 . S
C519 H521 0.930 . S
H520 C509 0.930 . S
H521 C519 0.930 . S
H522 C537 0.930 . S
H523 C544 0.930 . S
H524 C518 0.929 . S
H525 C517 0.930 . S
H526 C540 0.929 . S
H527 C507 0.931 . S
H528 C513 0.931 . S
H529 C514 0.931 . S
H530 C535 0.931 . S
H531 C510 0.929 . S
H532 C543 0.930 . S
N533 Eu504 2.600 . S
N533 C534 1.365 . S
N533 C537 1.319 . S
C534 N533 1.365 . S
C534 C536 1.405 . S
C534 C542 1.448 . S
C535 H530 0.931 . S
C535 C537 1.397 . S
C535 C538 1.367 . S
C536 C534 1.405 . S
C536 C538 1.403 . S
C536 C569 1.439 1_655 S
C537 H522 0.930 . S
C537 N533 1.319 . S
C537 C535 1.397 . S
C538 C535 1.367 . S
C538 C536 1.403 . S
C538 H545 0.929 1_565 S
N539 Eu504 2.562 . S
N539 C540 1.325 . S
N539 C542 1.351 . S
C540 H526 0.929 . S
C540 N539 1.325 . S
C540 C544 1.416 1_655 S
C541 C542 1.430 1_455 S
C541 C543 1.404 . S
C541 C570 1.387 . S
C542 C534 1.448 . S
C542 N539 1.351 . S
C542 C541 1.430 1_655 S
C543 H532 0.930 . S
C543 C541 1.404 . S
C543 C544 1.366 . S
C544 H523 0.930 . S
C544 C540 1.416 1_455 S
C544 C543 1.366 . S
H545 C538 0.929 1_545 S
H546 C569 0.931 1_545 S
H547 C570 0.931 . S
O548 Eu504 2.462 . S
O548 C568 1.252 . S
O549 Eu504 2.373 . S
O549 C560 1.249 . S
O550 Eu515 2.335 . S
O550 C560 1.264 . S
O551 Eu504 2.432 . S
O551 C568 1.268 . S
O552 Eu504 2.291 . S
O552 C567 1.255 . S
O553 Eu515 2.372 . S
O553 C567 1.257 . S
O554 Eu515 2.462 . S
O554 C579 1.252 . S
O555 Eu515 2.373 . S
O555 C571 1.249 . S
O556 Eu504 2.335 . S
O556 C571 1.264 . S
O557 Eu515 2.432 . S
O557 C579 1.268 . S
O558 Eu515 2.291 . S
O558 C578 1.255 . S
O559 Eu504 2.372 . S
O559 C578 1.257 . S
C560 O549 1.249 . S
C560 O550 1.264 . S
C561 C564 1.382 . S
C561 C566 1.390 . S
C561 C568 1.506 . S
C562 C563 1.398 . S
C562 C566 1.392 . S
C563 C562 1.398 . S
C563 C565 1.372 . S
C563 H580 0.931 . S
C564 C561 1.382 . S
C564 C565 1.390 . S
C564 H581 0.931 . S
C565 C563 1.372 . S
C565 C564 1.390 . S
C565 H582 0.929 . S
C566 C561 1.390 . S
C566 C562 1.392 . S
C566 H583 0.930 . S
C567 O552 1.255 . S
C567 O553 1.257 . S
C568 Eu504 2.787 . S
C568 O548 1.252 . S
C568 O551 1.268 . S
C568 C561 1.506 . S
C569 C536 1.439 1_455 S
C569 H546 0.931 1_565 S
C569 C570 1.374 . S
C570 C541 1.387 . S
C570 H547 0.931 . S
C570 C569 1.374 . S
C571 O555 1.249 . S
C571 O556 1.264 . S
C572 C575 1.382 . S
C572 C576 1.390 . S
C572 C579 1.506 . S
C573 C574 1.398 . S
C573 C576 1.392 . S
C574 C573 1.398 . S
C574 C577 1.372 . S
C574 H584 0.931 . S
C575 C572 1.382 . S
C575 C577 1.390 . S
C575 H585 0.931 . S
C576 C572 1.390 . S
C576 C573 1.392 . S
C576 H586 0.930 . S
C577 C574 1.372 . S
C577 C575 1.390 . S
C577 H587 0.929 . S
C578 O558 1.255 . S
C578 O559 1.257 . S
C579 Eu515 2.787 . S
C579 O554 1.252 . S
C579 O557 1.268 . S
C579 C572 1.506 . S
H580 C563 0.931 . S
H581 C564 0.931 . S
H582 C565 0.929 . S
H583 C566 0.930 . S
H584 C574 0.931 . S
H585 C575 0.931 . S
H586 C576 0.930 . S
H587 C577 0.929 . S
Eu588 N617 2.600 . S
Eu588 N623 2.562 . S
Eu588 O632 2.462 . S
Eu588 O633 2.373 . S
Eu588 O635 2.432 . S
Eu588 O636 2.291 . S
Eu588 O640 2.335 . S
Eu588 O643 2.372 . S
Eu588 C652 2.787 . S
C589 N590 1.365 . S
C589 C592 1.405 . S
C589 C596 1.448 . S
N590 C589 1.365 . S
N590 C593 1.319 . S
N590 Eu599 2.600 . S
C591 C593 1.397 . S
C591 C594 1.367 . S
C591 H611 0.931 . S
C592 C589 1.405 . S
C592 C594 1.403 . S
C592 C598 1.439 . S
C593 N590 1.319 . S
C593 C591 1.397 . S
C593 H604 0.930 . S
C594 C591 1.367 . S
C594 C592 1.403 . S
C594 H615 0.929 . S
C595 C596 1.430 . S
C595 C597 1.387 . S
C595 C601 1.404 . S
C596 C589 1.448 . S
C596 C595 1.430 . S
C596 N600 1.351 . S
C597 C595 1.387 . S
C597 C598 1.374 . S
C597 H612 0.931 . S
C598 C592 1.439 . S
C598 C597 1.374 . S
C598 H613 0.931 . S
Eu599 N590 2.600 . S
Eu599 N600 2.562 . S
Eu599 O634 2.335 . S
Eu599 O637 2.372 . S
Eu599 O638 2.462 . S
Eu599 O639 2.373 . S
Eu599 O641 2.432 . S
Eu599 O642 2.291 . S
Eu599 C663 2.787 . S
N600 C596 1.351 . S
N600 Eu599 2.562 . S
N600 C602 1.325 . S
C601 C595 1.404 . S
C601 C603 1.366 1_545 S
C601 H609 0.930 1_545 S
C602 N600 1.325 . S
C602 C603 1.416 1_545 S
C602 H608 0.929 . S
C603 C601 1.366 1_565 S
C603 C602 1.416 1_565 S
C603 H605 0.930 . S
H604 C593 0.930 . S
H605 C603 0.930 . S
H606 C621 0.930 . S
H607 C628 0.930 . S
H608 C602 0.929 . S
H609 C601 0.930 1_565 S
H610 C624 0.929 . S
H611 C591 0.931 . S
H612 C597 0.931 . S
H613 C598 0.931 . S
H614 C619 0.931 . S
H615 C594 0.929 . S
H616 C627 0.930 . S
N617 Eu588 2.600 . S
N617 C618 1.365 . S
N617 C621 1.319 1_545 S
C618 N617 1.365 . S
C618 C620 1.405 . S
C618 C626 1.448 . S
C619 H614 0.931 . S
C619 C621 1.397 . S
C619 C622 1.367 . S
C620 C618 1.405 . S
C620 C622 1.403 1_545 S
C620 C653 1.439 . S
C621 H606 0.930 . S
C621 N617 1.319 1_565 S
C621 C619 1.397 . S
C622 C619 1.367 . S
C622 C620 1.403 1_565 S
C622 H629 0.929 1_455 S
N623 Eu588 2.562 . S
N623 C624 1.325 . S
N623 C626 1.351 . S
C624 H610 0.929 . S
C624 N623 1.325 . S
C624 C628 1.416 . S
C625 C626 1.430 . S
C625 C627 1.404 . S
C625 C654 1.387 . S
C626 C618 1.448 . S
C626 N623 1.351 . S
C626 C625 1.430 . S
C627 H616 0.930 . S
C627 C625 1.404 . S
C627 C628 1.366 . S
C628 H607 0.930 . S
C628 C624 1.416 . S
C628 C627 1.366 . S
H629 C622 0.929 1_655 S
H630 C653 0.931 1_655 S
H631 C654 0.931 . S
O632 Eu588 2.462 . S
O632 C652 1.252 . S
O633 Eu588 2.373 . S
O633 C644 1.249 . S
O634 Eu599 2.335 . S
O634 C644 1.264 . S
O635 Eu588 2.432 . S
O635 C652 1.268 . S
O636 Eu588 2.291 . S
O636 C651 1.255 . S
O637 Eu599 2.372 . S
O637 C651 1.257 . S
O638 Eu599 2.462 . S
O638 C663 1.252 . S
O639 Eu599 2.373 . S
O639 C655 1.249 . S
O640 Eu588 2.335 . S
O640 C655 1.264 . S
O641 Eu599 2.432 . S
O641 C663 1.268 . S
O642 Eu599 2.291 . S
O642 C662 1.255 . S
O643 Eu588 2.372 . S
O643 C662 1.257 . S
C644 O633 1.249 . S
C644 O634 1.264 . S
C645 C648 1.382 . S
C645 C650 1.390 . S
C645 C652 1.506 . S
C646 C647 1.398 . S
C646 C650 1.392 . S
C647 C646 1.398 . S
C647 C649 1.372 . S
C647 H664 0.931 . S
C648 C645 1.382 . S
C648 C649 1.390 . S
C648 H665 0.931 . S
C649 C647 1.372 . S
C649 C648 1.390 . S
C649 H666 0.929 . S
C650 C645 1.390 . S
C650 C646 1.392 . S
C650 H667 0.930 . S
C651 O636 1.255 . S
C651 O637 1.257 . S
C652 Eu588 2.787 . S
C652 O632 1.252 . S
C652 O635 1.268 . S
C652 C645 1.506 . S
C653 C620 1.439 . S
C653 H630 0.931 1_455 S
C653 C654 1.374 . S
C654 C625 1.387 . S
C654 H631 0.931 . S
C654 C653 1.374 . S
C655 O639 1.249 . S
C655 O640 1.264 . S
C656 C659 1.382 . S
C656 C660 1.390 . S
C656 C663 1.506 . S
C657 C658 1.398 . S
C657 C660 1.392 . S
C658 C657 1.398 . S
C658 C661 1.372 . S
C658 H668 0.931 . S
C659 C656 1.382 . S
C659 C661 1.390 . S
C659 H669 0.931 . S
C660 C656 1.390 . S
C660 C657 1.392 . S
C660 H670 0.930 . S
C661 C658 1.372 . S
C661 C659 1.390 . S
C661 H671 0.929 . S
C662 O642 1.255 . S
C662 O643 1.257 . S
C663 Eu599 2.787 . S
C663 O638 1.252 . S
C663 O641 1.268 . S
C663 C656 1.506 . S
H664 C647 0.931 . S
H665 C648 0.931 . S
H666 C649 0.929 . S
H667 C650 0.930 . S
H668 C658 0.931 . S
H669 C659 0.931 . S
H670 C660 0.930 . S
H671 C661 0.929 . S
Eu672 N701 2.600 . S
Eu672 N707 2.562 . S
Eu672 O716 2.462 . S
Eu672 O717 2.373 . S
Eu672 O719 2.432 . S
Eu672 O720 2.291 . S
Eu672 O724 2.335 . S
Eu672 O727 2.372 . S
Eu672 C736 2.787 . S
C673 N674 1.365 . S
C673 C676 1.405 . S
C673 C680 1.448 . S
N674 C673 1.365 . S
N674 C677 1.319 . S
N674 Eu683 2.600 . S
C675 C677 1.397 . S
C675 C678 1.367 . S
C675 H695 0.931 . S
C676 C673 1.405 . S
C676 C678 1.403 . S
C676 C682 1.439 . S
C677 N674 1.319 . S
C677 C675 1.397 . S
C677 H688 0.930 . S
C678 C675 1.367 . S
C678 C676 1.403 . S
C678 H699 0.929 . S
C679 C680 1.430 . S
C679 C681 1.387 . S
C679 C685 1.404 . S
C680 C673 1.448 . S
C680 C679 1.430 . S
C680 N684 1.351 . S
C681 C679 1.387 . S
C681 C682 1.374 . S
C681 H696 0.931 . S
C682 C676 1.439 . S
C682 C681 1.374 . S
C682 H697 0.931 . S
Eu683 N674 2.600 . S
Eu683 N684 2.562 . S
Eu683 O718 2.335 . S
Eu683 O721 2.372 . S
Eu683 O722 2.462 . S
Eu683 O723 2.373 . S
Eu683 O725 2.432 . S
Eu683 O726 2.291 . S
Eu683 C747 2.787 . S
N684 C680 1.351 . S
N684 Eu683 2.562 . S
N684 C686 1.325 . S
C685 C679 1.404 . S
C685 C687 1.366 1_655 S
C685 H693 0.930 1_655 S
C686 N684 1.325 . S
C686 C687 1.416 1_655 S
C686 H692 0.929 . S
C687 C685 1.366 1_455 S
C687 C686 1.416 1_455 S
C687 H689 0.930 . S
H688 C677 0.930 . S
H689 C687 0.930 . S
H690 C705 0.930 . S
H691 C712 0.930 . S
H692 C686 0.929 . S
H693 C685 0.930 1_455 S
H694 C708 0.929 . S
H695 C675 0.931 . S
H696 C681 0.931 . S
H697 C682 0.931 . S
H698 C703 0.931 . S
H699 C678 0.929 . S
H700 C711 0.930 . S
N701 Eu672 2.600 . S
N701 C702 1.365 . S
N701 C705 1.319 1_655 S
C702 N701 1.365 . S
C702 C704 1.405 . S
C702 C710 1.448 . S
C703 H698 0.931 . S
C703 C705 1.397 . S
C703 C706 1.367 . S
C704 C702 1.405 . S
C704 C706 1.403 1_655 S
C704 C737 1.439 1_545 S
C705 H690 0.930 . S
C705 N701 1.319 1_455 S
C705 C703 1.397 . S
C706 C703 1.367 . S
C706 C704 1.403 1_455 S
C706 H713 0.929 . S
N707 Eu672 2.562 . S
N707 C708 1.325 . S
N707 C710 1.351 . S
C708 H694 0.929 . S
C708 N707 1.325 . S
C708 C712 1.416 1_545 S
C709 C710 1.430 1_565 S
C709 C711 1.404 . S
C709 C738 1.387 . S
C710 C702 1.448 . S
C710 N707 1.351 . S
C710 C709 1.430 1_545 S
C711 H700 0.930 . S
C711 C709 1.404 . S
C711 C712 1.366 . S
C712 H691 0.930 . S
C712 C708 1.416 1_565 S
C712 C711 1.366 . S
H713 C706 0.929 . S
H714 C737 0.931 . S
H715 C738 0.931 . S
O716 Eu672 2.462 . S
O716 C736 1.252 . S
O717 Eu672 2.373 . S
O717 C728 1.249 . S
O718 Eu683 2.335 . S
O718 C728 1.264 . S
O719 Eu672 2.432 . S
O719 C736 1.268 . S
O720 Eu672 2.291 . S
O720 C735 1.255 . S
O721 Eu683 2.372 . S
O721 C735 1.257 . S
O722 Eu683 2.462 . S
O722 C747 1.252 . S
O723 Eu683 2.373 . S
O723 C739 1.249 . S
O724 Eu672 2.335 . S
O724 C739 1.264 . S
O725 Eu683 2.432 . S
O725 C747 1.268 . S
O726 Eu683 2.291 . S
O726 C746 1.255 . S
O727 Eu672 2.372 . S
O727 C746 1.257 . S
C728 O717 1.249 . S
C728 O718 1.264 . S
C729 C732 1.382 . S
C729 C734 1.390 . S
C729 C736 1.506 . S
C730 C731 1.398 . S
C730 C734 1.392 . S
C731 C730 1.398 . S
C731 C733 1.372 . S
C731 H748 0.931 . S
C732 C729 1.382 . S
C732 C733 1.390 . S
C732 H749 0.931 . S
C733 C731 1.372 . S
C733 C732 1.390 . S
C733 H750 0.929 . S
C734 C729 1.390 . S
C734 C730 1.392 . S
C734 H751 0.930 . S
C735 O720 1.255 . S
C735 O721 1.257 . S
C736 Eu672 2.787 . S
C736 O716 1.252 . S
C736 O719 1.268 . S
C736 C729 1.506 . S
C737 C704 1.439 1_565 S
C737 H714 0.931 . S
C737 C738 1.374 . S
C738 C709 1.387 . S
C738 H715 0.931 . S
C738 C737 1.374 . S
C739 O723 1.249 . S
C739 O724 1.264 . S
C740 C743 1.382 . S
C740 C744 1.390 . S
C740 C747 1.506 . S
C741 C742 1.398 . S
C741 C744 1.392 . S
C742 C741 1.398 . S
C742 C745 1.372 . S
C742 H752 0.931 . S
C743 C740 1.382 . S
C743 C745 1.390 . S
C743 H753 0.931 . S
C744 C740 1.390 . S
C744 C741 1.392 . S
C744 H754 0.930 . S
C745 C742 1.372 . S
C745 C743 1.390 . S
C745 H755 0.929 . S
C746 O726 1.255 . S
C746 O727 1.257 . S
C747 Eu683 2.787 . S
C747 O722 1.252 . S
C747 O725 1.268 . S
C747 C740 1.506 . S
H748 C731 0.931 . S
H749 C732 0.931 . S
H750 C733 0.929 . S
H751 C734 0.930 . S
H752 C742 0.931 . S
H753 C743 0.931 . S
H754 C744 0.930 . S
H755 C745 0.929 . S
Eu756 N785 2.600 . S
Eu756 N791 2.562 . S
Eu756 O800 2.462 . S
Eu756 O801 2.373 . S
Eu756 O803 2.432 . S
Eu756 O804 2.291 . S
Eu756 O808 2.335 . S
Eu756 O811 2.372 . S
Eu756 C820 2.787 . S
C757 N758 1.365 . S
C757 C760 1.405 . S
C757 C764 1.448 . S
N758 C757 1.365 . S
N758 C761 1.319 . S
N758 Eu767 2.600 . S
C759 C761 1.397 . S
C759 C762 1.367 . S
C759 H779 0.931 . S
C760 C757 1.405 . S
C760 C762 1.403 . S
C760 C766 1.439 . S
C761 N758 1.319 . S
C761 C759 1.397 . S
C761 H772 0.930 . S
C762 C759 1.367 . S
C762 C760 1.403 . S
C762 H783 0.929 . S
C763 C764 1.430 . S
C763 C765 1.387 . S
C763 C769 1.404 . S
C764 C757 1.448 . S
C764 C763 1.430 . S
C764 N768 1.351 . S
C765 C763 1.387 . S
C765 C766 1.374 . S
C765 H780 0.931 . S
C766 C760 1.439 . S
C766 C765 1.374 . S
C766 H781 0.931 . S
Eu767 N758 2.600 . S
Eu767 N768 2.562 . S
Eu767 O802 2.335 . S
Eu767 O805 2.372 . S
Eu767 O806 2.462 . S
Eu767 O807 2.373 . S
Eu767 O809 2.432 . S
Eu767 O810 2.291 . S
Eu767 C831 2.787 . S
N768 C764 1.351 . S
N768 Eu767 2.562 . S
N768 C770 1.325 . S
C769 C763 1.404 . S
C769 C771 1.366 . S
C769 H777 0.930 . S
C770 N768 1.325 . S
C770 C771 1.416 . S
C770 H776 0.929 . S
C771 C769 1.366 . S
C771 C770 1.416 . S
C771 H773 0.930 . S
H772 C761 0.930 . S
H773 C771 0.930 . S
H774 C789 0.930 . S
H775 C796 0.930 . S
H776 C770 0.929 . S
H777 C769 0.930 . S
H778 C792 0.929 . S
H779 C759 0.931 . S
H780 C765 0.931 . S
H781 C766 0.931 . S
H782 C787 0.931 . S
H783 C762 0.929 . S
H784 C795 0.930 . S
N785 Eu756 2.600 . S
N785 C786 1.365 . S
N785 C789 1.319 . S
C786 N785 1.365 . S
C786 C788 1.405 . S
C786 C794 1.448 . S
C787 H782 0.931 . S
C787 C789 1.397 . S
C787 C790 1.367 . S
C788 C786 1.405 . S
C788 C790 1.403 . S
C788 C821 1.439 1_565 S
C789 H774 0.930 . S
C789 N785 1.319 . S
C789 C787 1.397 . S
C790 C787 1.367 . S
C790 C788 1.403 . S
C790 H797 0.929 1_655 S
N791 Eu756 2.562 . S
N791 C792 1.325 . S
N791 C794 1.351 . S
C792 H778 0.929 . S
C792 N791 1.325 . S
C792 C796 1.416 1_565 S
C793 C794 1.430 1_545 S
C793 C795 1.404 . S
C793 C822 1.387 . S
C794 C786 1.448 . S
C794 N791 1.351 . S
C794 C793 1.430 1_565 S
C795 H784 0.930 . S
C795 C793 1.404 . S
C795 C796 1.366 . S
C796 H775 0.930 . S
C796 C792 1.416 1_545 S
C796 C795 1.366 . S
H797 C790 0.929 1_455 S
H798 C821 0.931 . S
H799 C822 0.931 . S
O800 Eu756 2.462 . S
O800 C820 1.252 . S
O801 Eu756 2.373 . S
O801 C812 1.249 . S
O802 Eu767 2.335 . S
O802 C812 1.264 . S
O803 Eu756 2.432 . S
O803 C820 1.268 . S
O804 Eu756 2.291 . S
O804 C819 1.255 . S
O805 Eu767 2.372 . S
O805 C819 1.257 . S
O806 Eu767 2.462 . S
O806 C831 1.252 . S
O807 Eu767 2.373 . S
O807 C823 1.249 . S
O808 Eu756 2.335 . S
O808 C823 1.264 . S
O809 Eu767 2.432 . S
O809 C831 1.268 . S
O810 Eu767 2.291 . S
O810 C830 1.255 . S
O811 Eu756 2.372 . S
O811 C830 1.257 . S
C812 O801 1.249 . S
C812 O802 1.264 . S
C813 C816 1.382 . S
C813 C818 1.390 . S
C813 C820 1.506 . S
C814 C815 1.398 . S
C814 C818 1.392 . S
C815 C814 1.398 . S
C815 C817 1.372 . S
C815 H832 0.931 . S
C816 C813 1.382 . S
C816 C817 1.390 . S
C816 H833 0.931 . S
C817 C815 1.372 . S
C817 C816 1.390 . S
C817 H834 0.929 . S
C818 C813 1.390 . S
C818 C814 1.392 . S
C818 H835 0.930 . S
C819 O804 1.255 . S
C819 O805 1.257 . S
C820 Eu756 2.787 . S
C820 O800 1.252 . S
C820 O803 1.268 . S
C820 C813 1.506 . S
C821 C788 1.439 1_545 S
C821 H798 0.931 . S
C821 C822 1.374 . S
C822 C793 1.387 . S
C822 H799 0.931 . S
C822 C821 1.374 . S
C823 O807 1.249 . S
C823 O808 1.264 . S
C824 C827 1.382 . S
C824 C828 1.390 . S
C824 C831 1.506 . S
C825 C826 1.398 . S
C825 C828 1.392 . S
C826 C825 1.398 . S
C826 C829 1.372 . S
C826 H836 0.931 . S
C827 C824 1.382 . S
C827 C829 1.390 . S
C827 H837 0.931 . S
C828 C824 1.390 . S
C828 C825 1.392 . S
C828 H838 0.930 . S
C829 C826 1.372 . S
C829 C827 1.390 . S
C829 H839 0.929 . S
C830 O810 1.255 . S
C830 O811 1.257 . S
C831 Eu767 2.787 . S
C831 O806 1.252 . S
C831 O809 1.268 . S
C831 C824 1.506 . S
H832 C815 0.931 . S
H833 C816 0.931 . S
H834 C817 0.929 . S
H835 C818 0.930 . S
H836 C826 0.931 . S
H837 C827 0.931 . S
H838 C828 0.930 . S
H839 C829 0.929 . S
Eu840 N869 2.600 . S
Eu840 N875 2.562 . S
Eu840 O884 2.462 . S
Eu840 O885 2.373 . S
Eu840 O887 2.432 . S
Eu840 O888 2.291 . S
Eu840 O892 2.335 . S
Eu840 O895 2.372 . S
Eu840 C904 2.787 . S
C841 N842 1.365 . S
C841 C844 1.405 . S
C841 C848 1.448 . S
N842 C841 1.365 . S
N842 C845 1.319 . S
N842 Eu851 2.600 . S
C843 C845 1.397 . S
C843 C846 1.367 . S
C843 H863 0.931 . S
C844 C841 1.405 . S
C844 C846 1.403 . S
C844 C850 1.439 . S
C845 N842 1.319 . S
C845 C843 1.397 . S
C845 H856 0.930 . S
C846 C843 1.367 . S
C846 C844 1.403 . S
C846 H867 0.929 . S
C847 C848 1.430 . S
C847 C849 1.387 . S
C847 C853 1.404 . S
C848 C841 1.448 . S
C848 C847 1.430 . S
C848 N852 1.351 . S
C849 C847 1.387 . S
C849 C850 1.374 . S
C849 H864 0.931 . S
C850 C844 1.439 . S
C850 C849 1.374 . S
C850 H865 0.931 . S
Eu851 N842 2.600 . S
Eu851 N852 2.562 . S
Eu851 O886 2.335 . S
Eu851 O889 2.372 . S
Eu851 O890 2.462 . S
Eu851 O891 2.373 . S
Eu851 O893 2.432 . S
Eu851 O894 2.291 . S
Eu851 C915 2.787 . S
N852 C848 1.351 . S
N852 Eu851 2.562 . S
N852 C854 1.325 . S
C853 C847 1.404 . S
C853 C855 1.366 1_565 S
C853 H861 0.930 1_565 S
C854 N852 1.325 . S
C854 C855 1.416 1_565 S
C854 H860 0.929 . S
C855 C853 1.366 1_545 S
C855 C854 1.416 1_545 S
C855 H857 0.930 . S
H856 C845 0.930 . S
H857 C855 0.930 . S
H858 C873 0.930 . S
H859 C880 0.930 . S
H860 C854 0.929 . S
H861 C853 0.930 1_545 S
H862 C876 0.929 . S
H863 C843 0.931 . S
H864 C849 0.931 . S
H865 C850 0.931 . S
H866 C871 0.931 . S
H867 C846 0.929 . S
H868 C879 0.930 . S
N869 Eu840 2.600 . S
N869 C870 1.365 . S
N869 C873 1.319 1_565 S
C870 N869 1.365 . S
C870 C872 1.405 . S
C870 C878 1.448 . S
C871 H866 0.931 . S
C871 C873 1.397 . S
C871 C874 1.367 . S
C872 C870 1.405 . S
C872 C874 1.403 1_565 S
C872 C905 1.439 1_455 S
C873 H858 0.930 . S
C873 N869 1.319 1_545 S
C873 C871 1.397 . S
C874 C871 1.367 . S
C874 C872 1.403 1_545 S
C874 H881 0.929 . S
N875 Eu840 2.562 . S
N875 C876 1.325 . S
N875 C878 1.351 . S
C876 H862 0.929 . S
C876 N875 1.325 . S
C876 C880 1.416 1_455 S
C877 C878 1.430 1_655 S
C877 C879 1.404 . S
C877 C906 1.387 . S
C878 C870 1.448 . S
C878 N875 1.351 . S
C878 C877 1.430 1_455 S
C879 H868 0.930 . S
C879 C877 1.404 . S
C879 C880 1.366 . S
C880 H859 0.930 . S
C880 C876 1.416 1_655 S
C880 C879 1.366 . S
H881 C874 0.929 . S
H882 C905 0.931 . S
H883 C906 0.931 . S
O884 Eu840 2.462 . S
O884 C904 1.252 . S
O885 Eu840 2.373 . S
O885 C896 1.249 . S
O886 Eu851 2.335 . S
O886 C896 1.264 . S
O887 Eu840 2.432 . S
O887 C904 1.268 . S
O888 Eu840 2.291 . S
O888 C903 1.255 . S
O889 Eu851 2.372 . S
O889 C903 1.257 . S
O890 Eu851 2.462 . S
O890 C915 1.252 . S
O891 Eu851 2.373 . S
O891 C907 1.249 . S
O892 Eu840 2.335 . S
O892 C907 1.264 . S
O893 Eu851 2.432 . S
O893 C915 1.268 . S
O894 Eu851 2.291 . S
O894 C914 1.255 . S
O895 Eu840 2.372 . S
O895 C914 1.257 . S
C896 O885 1.249 . S
C896 O886 1.264 . S
C897 C900 1.382 . S
C897 C902 1.390 . S
C897 C904 1.506 . S
C898 C899 1.398 . S
C898 C902 1.392 . S
C899 C898 1.398 . S
C899 C901 1.372 . S
C899 H916 0.931 . S
C900 C897 1.382 . S
C900 C901 1.390 . S
C900 H917 0.931 . S
C901 C899 1.372 . S
C901 C900 1.390 . S
C901 H918 0.929 . S
C902 C897 1.390 . S
C902 C898 1.392 . S
C902 H919 0.930 . S
C903 O888 1.255 . S
C903 O889 1.257 . S
C904 Eu840 2.787 . S
C904 O884 1.252 . S
C904 O887 1.268 . S
C904 C897 1.506 . S
C905 C872 1.439 1_655 S
C905 H882 0.931 . S
C905 C906 1.374 . S
C906 C877 1.387 . S
C906 H883 0.931 . S
C906 C905 1.374 . S
C907 O891 1.249 . S
C907 O892 1.264 . S
C908 C911 1.382 . S
C908 C912 1.390 . S
C908 C915 1.506 . S
C909 C910 1.398 . S
C909 C912 1.392 . S
C910 C909 1.398 . S
C910 C913 1.372 . S
C910 H920 0.931 . S
C911 C908 1.382 . S
C911 C913 1.390 . S
C911 H921 0.931 . S
C912 C908 1.390 . S
C912 C909 1.392 . S
C912 H922 0.930 . S
C913 C910 1.372 . S
C913 C911 1.390 . S
C913 H923 0.929 . S
C914 O894 1.255 . S
C914 O895 1.257 . S
C915 Eu851 2.787 . S
C915 O890 1.252 . S
C915 O893 1.268 . S
C915 C908 1.506 . S
H916 C899 0.931 . S
H917 C900 0.931 . S
H918 C901 0.929 . S
H919 C902 0.930 . S
H920 C910 0.931 . S
H921 C911 0.931 . S
H922 C912 0.930 . S
H923 C913 0.929 . S
Eu924 N953 2.600 . S
Eu924 N959 2.562 . S
Eu924 O968 2.462 . S
Eu924 O969 2.373 . S
Eu924 O971 2.432 . S
Eu924 O972 2.291 . S
Eu924 O976 2.335 . S
Eu924 O979 2.372 . S
Eu924 C988 2.787 . S
C925 N926 1.365 . S
C925 C928 1.405 . S
C925 C932 1.448 . S
N926 C925 1.365 . S
N926 C929 1.319 . S
N926 Eu935 2.600 . S
C927 C929 1.397 . S
C927 C930 1.367 . S
C927 H947 0.931 . S
C928 C925 1.405 . S
C928 C930 1.403 . S
C928 C934 1.439 . S
C929 N926 1.319 . S
C929 C927 1.397 . S
C929 H940 0.930 . S
C930 C927 1.367 . S
C930 C928 1.403 . S
C930 H951 0.929 . S
C931 C932 1.430 . S
C931 C933 1.387 . S
C931 C937 1.404 . S
C932 C925 1.448 . S
C932 C931 1.430 . S
C932 N936 1.351 . S
C933 C931 1.387 . S
C933 C934 1.374 . S
C933 H948 0.931 . S
C934 C928 1.439 . S
C934 C933 1.374 . S
C934 H949 0.931 . S
Eu935 N926 2.600 . S
Eu935 N936 2.562 . S
Eu935 O970 2.335 . S
Eu935 O973 2.372 . S
Eu935 O974 2.462 . S
Eu935 O975 2.373 . S
Eu935 O977 2.432 . S
Eu935 O978 2.291 . S
Eu935 C999 2.787 . S
N936 C932 1.351 . S
N936 Eu935 2.562 . S
N936 C938 1.325 . S
C937 C931 1.404 . S
C937 C939 1.366 1_455 S
C937 H945 0.930 1_455 S
C938 N936 1.325 . S
C938 C939 1.416 1_455 S
C938 H944 0.929 . S
C939 C937 1.366 1_655 S
C939 C938 1.416 1_655 S
C939 H941 0.930 . S
H940 C929 0.930 . S
H941 C939 0.930 . S
H942 C957 0.930 . S
H943 C964 0.930 . S
H944 C938 0.929 . S
H945 C937 0.930 1_655 S
H946 C960 0.929 . S
H947 C927 0.931 . S
H948 C933 0.931 . S
H949 C934 0.931 . S
H950 C955 0.931 . S
H951 C930 0.929 . S
H952 C963 0.930 . S
N953 Eu924 2.600 . S
N953 C954 1.365 . S
N953 C957 1.319 1_455 S
C954 N953 1.365 . S
C954 C956 1.405 . S
C954 C962 1.448 . S
C955 H950 0.931 . S
C955 C957 1.397 . S
C955 C958 1.367 . S
C956 C954 1.405 . S
C956 C958 1.403 1_455 S
C956 C989 1.439 . S
C957 H942 0.930 . S
C957 N953 1.319 1_655 S
C957 C955 1.397 . S
C958 C955 1.367 . S
C958 C956 1.403 1_655 S
C958 H965 0.929 1_545 S
N959 Eu924 2.562 . S
N959 C960 1.325 . S
N959 C962 1.351 . S
C960 H946 0.929 . S
C960 N959 1.325 . S
C960 C964 1.416 . S
C961 C962 1.430 . S
C961 C963 1.404 . S
C961 C990 1.387 . S
C962 C954 1.448 . S
C962 N959 1.351 . S
C962 C961 1.430 . S
C963 H952 0.930 . S
C963 C961 1.404 . S
C963 C964 1.366 . S
C964 H943 0.930 . S
C964 C960 1.416 . S
C964 C963 1.366 . S
H965 C958 0.929 1_565 S
H966 C989 0.931 . S
H967 C990 0.931 . S
O968 Eu924 2.462 . S
O968 C988 1.252 . S
O969 Eu924 2.373 . S
O969 C980 1.249 . S
O970 Eu935 2.335 . S
O970 C980 1.264 . S
O971 Eu924 2.432 . S
O971 C988 1.268 . S
O972 Eu924 2.291 . S
O972 C987 1.255 . S
O973 Eu935 2.372 . S
O973 C987 1.257 . S
O974 Eu935 2.462 . S
O974 C999 1.252 . S
O975 Eu935 2.373 . S
O975 C991 1.249 . S
O976 Eu924 2.335 . S
O976 C991 1.264 . S
O977 Eu935 2.432 . S
O977 C999 1.268 . S
O978 Eu935 2.291 . S
O978 C998 1.255 . S
O979 Eu924 2.372 . S
O979 C998 1.257 . S
C980 O969 1.249 . S
C980 O970 1.264 . S
C981 C984 1.382 . S
C981 C986 1.390 . S
C981 C988 1.506 . S
C982 C983 1.398 . S
C982 C986 1.392 . S
C983 C982 1.398 . S
C983 C985 1.372 . S
C983 H1000 0.931 . S
C984 C981 1.382 . S
C984 C985 1.390 . S
C984 H1001 0.931 . S
C985 C983 1.372 . S
C985 C984 1.390 . S
C985 H1002 0.929 . S
C986 C981 1.390 . S
C986 C982 1.392 . S
C986 H1003 0.930 . S
C987 O972 1.255 . S
C987 O973 1.257 . S
C988 Eu924 2.787 . S
C988 O968 1.252 . S
C988 O971 1.268 . S
C988 C981 1.506 . S
C989 C956 1.439 . S
C989 H966 0.931 . S
C989 C990 1.374 . S
C990 C961 1.387 . S
C990 H967 0.931 . S
C990 C989 1.374 . S
C991 O975 1.249 . S
C991 O976 1.264 . S
C992 C995 1.382 . S
C992 C996 1.390 . S
C992 C999 1.506 . S
C993 C994 1.398 . S
C993 C996 1.392 . S
C994 C993 1.398 . S
C994 C997 1.372 . S
C994 H1004 0.931 . S
C995 C992 1.382 . S
C995 C997 1.390 . S
C995 H1005 0.931 . S
C996 C992 1.390 . S
C996 C993 1.392 . S
C996 H1006 0.930 . S
C997 C994 1.372 . S
C997 C995 1.390 . S
C997 H1007 0.929 . S
C998 O978 1.255 . S
C998 O979 1.257 . S
C999 Eu935 2.787 . S
C999 O974 1.252 . S
C999 O977 1.268 . S
C999 C992 1.506 . S
H1000 C983 0.931 . S
H1001 C984 0.931 . S
H1002 C985 0.929 . S
H1003 C986 0.930 . S
H1004 C994 0.931 . S
H1005 C995 0.931 . S
H1006 C996 0.930 . S
H1007 C997 0.929 . S
Eu1008 N1037 2.600 . S
Eu1008 N1043 2.562 . S
Eu1008 O1052 2.462 . S
Eu1008 O1053 2.373 . S
Eu1008 O1055 2.432 . S
Eu1008 O1056 2.291 . S
Eu1008 O1060 2.335 . S
Eu1008 O1063 2.372 . S
Eu1008 C1072 2.787 . S
C1009 N1010 1.365 . S
C1009 C1012 1.405 . S
C1009 C1016 1.448 . S
N1010 C1009 1.365 . S
N1010 C1013 1.319 . S
N1010 Eu1019 2.600 . S
C1011 C1013 1.397 . S
C1011 C1014 1.367 . S
C1011 H1031 0.931 . S
C1012 C1009 1.405 . S
C1012 C1014 1.403 . S
C1012 C1018 1.439 . S
C1013 N1010 1.319 . S
C1013 C1011 1.397 . S
C1013 H1024 0.930 . S
C1014 C1011 1.367 . S
C1014 C1012 1.403 . S
C1014 H1035 0.929 . S
C1015 C1016 1.430 . S
C1015 C1017 1.387 . S
C1015 C1021 1.404 . S
C1016 C1009 1.448 . S
C1016 C1015 1.430 . S
C1016 N1020 1.351 . S
C1017 C1015 1.387 . S
C1017 C1018 1.374 . S
C1017 H1032 0.931 . S
C1018 C1012 1.439 . S
C1018 C1017 1.374 . S
C1018 H1033 0.931 . S
Eu1019 N1010 2.600 . S
Eu1019 N1020 2.562 . S
Eu1019 O1054 2.335 . S
Eu1019 O1057 2.372 . S
Eu1019 O1058 2.462 . S
Eu1019 O1059 2.373 . S
Eu1019 O1061 2.432 . S
Eu1019 O1062 2.291 . S
Eu1019 C1083 2.787 . S
N1020 C1016 1.351 . S
N1020 Eu1019 2.562 . S
N1020 C1022 1.325 . S
C1021 C1015 1.404 . S
C1021 C1023 1.366 . S
C1021 H1029 0.930 . S
C1022 N1020 1.325 . S
C1022 C1023 1.416 . S
C1022 H1028 0.929 . S
C1023 C1021 1.366 . S
C1023 C1022 1.416 . S
C1023 H1025 0.930 . S
H1024 C1013 0.930 . S
H1025 C1023 0.930 . S
H1026 C1041 0.930 . S
H1027 C1048 0.930 . S
H1028 C1022 0.929 . S
H1029 C1021 0.930 . S
H1030 C1044 0.929 . S
H1031 C1011 0.931 . S
H1032 C1017 0.931 . S
H1033 C1018 0.931 . S
H1034 C1039 0.931 . S
H1035 C1014 0.929 . S
H1036 C1047 0.930 1_455 S
N1037 Eu1008 2.600 . S
N1037 C1038 1.365 . S
N1037 C1041 1.319 . S
C1038 N1037 1.365 . S
C1038 C1040 1.405 . S
C1038 C1046 1.448 . S
C1039 H1034 0.931 . S
C1039 C1041 1.397 . S
C1039 C1042 1.367 . S
C1040 C1038 1.405 . S
C1040 C1042 1.403 . S
C1040 C1073 1.439 . S
C1041 H1026 0.930 . S
C1041 N1037 1.319 . S
C1041 C1039 1.397 . S
C1042 C1039 1.367 . S
C1042 C1040 1.403 . S
C1042 H1049 0.929 . S
N1043 Eu1008 2.562 . S
N1043 C1044 1.325 . S
N1043 C1046 1.351 . S
C1044 H1030 0.929 . S
C1044 N1043 1.325 . S
C1044 C1048 1.416 . S
C1045 C1046 1.430 . S
C1045 C1047 1.404 . S
C1045 C1074 1.387 . S
C1046 C1038 1.448 . S
C1046 N1043 1.351 . S
C1046 C1045 1.430 . S
C1047 H1036 0.930 1_655 S
C1047 C1045 1.404 . S
C1047 C1048 1.366 . S
C1048 H1027 0.930 . S
C1048 C1044 1.416 . S
C1048 C1047 1.366 . S
H1049 C1042 0.929 . S
H1050 C1073 0.931 . S
H1051 C1074 0.931 1_455 S
O1052 Eu1008 2.462 . S
O1052 C1072 1.252 . S
O1053 Eu1008 2.373 . S
O1053 C1064 1.249 . S
O1054 Eu1019 2.335 . S
O1054 C1064 1.264 . S
O1055 Eu1008 2.432 . S
O1055 C1072 1.268 . S
O1056 Eu1008 2.291 . S
O1056 C1071 1.255 . S
O1057 Eu1019 2.372 . S
O1057 C1071 1.257 . S
O1058 Eu1019 2.462 . S
O1058 C1083 1.252 . S
O1059 Eu1019 2.373 . S
O1059 C1075 1.249 . S
O1060 Eu1008 2.335 . S
O1060 C1075 1.264 . S
O1061 Eu1019 2.432 . S
O1061 C1083 1.268 . S
O1062 Eu1019 2.291 . S
O1062 C1082 1.255 . S
O1063 Eu1008 2.372 . S
O1063 C1082 1.257 . S
C1064 O1053 1.249 . S
C1064 O1054 1.264 . S
C1065 C1068 1.382 . S
C1065 C1070 1.390 . S
C1065 C1072 1.506 . S
C1066 C1067 1.398 . S
C1066 C1070 1.392 . S
C1067 C1066 1.398 . S
C1067 C1069 1.372 . S
C1067 H1084 0.931 . S
C1068 C1065 1.382 . S
C1068 C1069 1.390 . S
C1068 H1085 0.931 . S
C1069 C1067 1.372 . S
C1069 C1068 1.390 . S
C1069 H1086 0.929 . S
C1070 C1065 1.390 . S
C1070 C1066 1.392 . S
C1070 H1087 0.930 . S
C1071 O1056 1.255 . S
C1071 O1057 1.257 . S
C1072 Eu1008 2.787 . S
C1072 O1052 1.252 . S
C1072 O1055 1.268 . S
C1072 C1065 1.506 . S
C1073 C1040 1.439 . S
C1073 H1050 0.931 . S
C1073 C1074 1.374 . S
C1074 C1045 1.387 . S
C1074 H1051 0.931 1_655 S
C1074 C1073 1.374 . S
C1075 O1059 1.249 . S
C1075 O1060 1.264 . S
C1076 C1079 1.382 . S
C1076 C1080 1.390 . S
C1076 C1083 1.506 . S
C1077 C1078 1.398 . S
C1077 C1080 1.392 . S
C1078 C1077 1.398 . S
C1078 C1081 1.372 . S
C1078 H1088 0.931 . S
C1079 C1076 1.382 . S
C1079 C1081 1.390 . S
C1079 H1089 0.931 . S
C1080 C1076 1.390 . S
C1080 C1077 1.392 . S
C1080 H1090 0.930 . S
C1081 C1078 1.372 . S
C1081 C1079 1.390 . S
C1081 H1091 0.929 . S
C1082 O1062 1.255 . S
C1082 O1063 1.257 . S
C1083 Eu1019 2.787 . S
C1083 O1058 1.252 . S
C1083 O1061 1.268 . S
C1083 C1076 1.506 . S
H1084 C1067 0.931 . S
H1085 C1068 0.931 . S
H1086 C1069 0.929 . S
H1087 C1070 0.930 . S
H1088 C1078 0.931 . S
H1089 C1079 0.931 . S
H1090 C1080 0.930 . S
H1091 C1081 0.929 . S
Eu1092 N1121 2.600 . S
Eu1092 N1127 2.562 . S
Eu1092 O1136 2.462 . S
Eu1092 O1137 2.373 . S
Eu1092 O1139 2.432 . S
Eu1092 O1140 2.291 . S
Eu1092 O1144 2.335 . S
Eu1092 O1147 2.372 . S
Eu1092 C1156 2.787 . S
C1093 N1094 1.365 . S
C1093 C1096 1.405 . S
C1093 C1100 1.448 . S
N1094 C1093 1.365 . S
N1094 C1097 1.319 . S
N1094 Eu1103 2.600 . S
C1095 C1097 1.397 . S
C1095 C1098 1.367 . S
C1095 H1115 0.931 . S
C1096 C1093 1.405 . S
C1096 C1098 1.403 . S
C1096 C1102 1.439 . S
C1097 N1094 1.319 . S
C1097 C1095 1.397 . S
C1097 H1108 0.930 . S
C1098 C1095 1.367 . S
C1098 C1096 1.403 . S
C1098 H1119 0.929 . S
C1099 C1100 1.430 . S
C1099 C1101 1.387 . S
C1099 C1105 1.404 . S
C1100 C1093 1.448 . S
C1100 C1099 1.430 . S
C1100 N1104 1.351 . S
C1101 C1099 1.387 . S
C1101 C1102 1.374 . S
C1101 H1116 0.931 . S
C1102 C1096 1.439 . S
C1102 C1101 1.374 . S
C1102 H1117 0.931 . S
Eu1103 N1094 2.600 . S
Eu1103 N1104 2.562 . S
Eu1103 O1138 2.335 . S
Eu1103 O1141 2.372 . S
Eu1103 O1142 2.462 . S
Eu1103 O1143 2.373 . S
Eu1103 O1145 2.432 . S
Eu1103 O1146 2.291 . S
Eu1103 C1167 2.787 . S
N1104 C1100 1.351 . S
N1104 Eu1103 2.562 . S
N1104 C1106 1.325 . S
C1105 C1099 1.404 . S
C1105 C1107 1.366 . S
C1105 H1113 0.930 . S
C1106 N1104 1.325 . S
C1106 C1107 1.416 . S
C1106 H1112 0.929 . S
C1107 C1105 1.366 . S
C1107 C1106 1.416 . S
C1107 H1109 0.930 . S
H1108 C1097 0.930 . S
H1109 C1107 0.930 . S
H1110 C1125 0.930 . S
H1111 C1132 0.930 . S
H1112 C1106 0.929 . S
H1113 C1105 0.930 . S
H1114 C1128 0.929 . S
H1115 C1095 0.931 . S
H1116 C1101 0.931 . S
H1117 C1102 0.931 . S
H1118 C1123 0.931 . S
H1119 C1098 0.929 . S
H1120 C1131 0.930 . S
N1121 Eu1092 2.600 . S
N1121 C1122 1.365 . S
N1121 C1125 1.319 . S
C1122 N1121 1.365 . S
C1122 C1124 1.405 . S
C1122 C1130 1.448 . S
C1123 H1118 0.931 . S
C1123 C1125 1.397 . S
C1123 C1126 1.367 . S
C1124 C1122 1.405 . S
C1124 C1126 1.403 . S
C1124 C1157 1.439 . S
C1125 H1110 0.930 . S
C1125 N1121 1.319 . S
C1125 C1123 1.397 . S
C1126 C1123 1.367 . S
C1126 C1124 1.403 . S
C1126 H1133 0.929 . S
N1127 Eu1092 2.562 . S
N1127 C1128 1.325 . S
N1127 C1130 1.351 . S
C1128 H1114 0.929 . S
C1128 N1127 1.325 . S
C1128 C1132 1.416 . S
C1129 C1130 1.430 . S
C1129 C1131 1.404 . S
C1129 C1158 1.387 . S
C1130 C1122 1.448 . S
C1130 N1127 1.351 . S
C1130 C1129 1.430 . S
C1131 H1120 0.930 . S
C1131 C1129 1.404 . S
C1131 C1132 1.366 . S
C1132 H1111 0.930 . S
C1132 C1128 1.416 . S
C1132 C1131 1.366 . S
H1133 C1126 0.929 . S
H1134 C1157 0.931 . S
H1135 C1158 0.931 . S
O1136 Eu1092 2.462 . S
O1136 C1156 1.252 . S
O1137 Eu1092 2.373 . S
O1137 C1148 1.249 . S
O1138 Eu1103 2.335 . S
O1138 C1148 1.264 . S
O1139 Eu1092 2.432 . S
O1139 C1156 1.268 . S
O1140 Eu1092 2.291 . S
O1140 C1155 1.255 . S
O1141 Eu1103 2.372 . S
O1141 C1155 1.257 . S
O1142 Eu1103 2.462 . S
O1142 C1167 1.252 . S
O1143 Eu1103 2.373 . S
O1143 C1159 1.249 . S
O1144 Eu1092 2.335 . S
O1144 C1159 1.264 . S
O1145 Eu1103 2.432 . S
O1145 C1167 1.268 . S
O1146 Eu1103 2.291 . S
O1146 C1166 1.255 . S
O1147 Eu1092 2.372 . S
O1147 C1166 1.257 . S
C1148 O1137 1.249 . S
C1148 O1138 1.264 . S
C1149 C1152 1.382 . S
C1149 C1154 1.390 . S
C1149 C1156 1.506 . S
C1150 C1151 1.398 . S
C1150 C1154 1.392 . S
C1151 C1150 1.398 . S
C1151 C1153 1.372 . S
C1151 H1168 0.931 . S
C1152 C1149 1.382 . S
C1152 C1153 1.390 . S
C1152 H1169 0.931 . S
C1153 C1151 1.372 . S
C1153 C1152 1.390 . S
C1153 H1170 0.929 . S
C1154 C1149 1.390 . S
C1154 C1150 1.392 . S
C1154 H1171 0.930 . S
C1155 O1140 1.255 . S
C1155 O1141 1.257 . S
C1156 Eu1092 2.787 . S
C1156 O1136 1.252 . S
C1156 O1139 1.268 . S
C1156 C1149 1.506 . S
C1157 C1124 1.439 . S
C1157 H1134 0.931 . S
C1157 C1158 1.374 . S
C1158 C1129 1.387 . S
C1158 H1135 0.931 . S
C1158 C1157 1.374 . S
C1159 O1143 1.249 . S
C1159 O1144 1.264 . S
C1160 C1163 1.382 . S
C1160 C1164 1.390 . S
C1160 C1167 1.506 . S
C1161 C1162 1.398 . S
C1161 C1164 1.392 . S
C1162 C1161 1.398 . S
C1162 C1165 1.372 . S
C1162 H1172 0.931 . S
C1163 C1160 1.382 . S
C1163 C1165 1.390 . S
C1163 H1173 0.931 . S
C1164 C1160 1.390 . S
C1164 C1161 1.392 . S
C1164 H1174 0.930 . S
C1165 C1162 1.372 . S
C1165 C1163 1.390 . S
C1165 H1175 0.929 . S
C1166 O1146 1.255 . S
C1166 O1147 1.257 . S
C1167 Eu1103 2.787 . S
C1167 O1142 1.252 . S
C1167 O1145 1.268 . S
C1167 C1160 1.506 . S
H1168 C1151 0.931 . S
H1169 C1152 0.931 . S
H1170 C1153 0.929 . S
H1171 C1154 0.930 . S
H1172 C1162 0.931 . S
H1173 C1163 0.931 . S
H1174 C1164 0.930 . S
H1175 C1165 0.929 . S
Eu1176 N1205 2.600 . S
Eu1176 N1211 2.562 . S
Eu1176 O1220 2.462 . S
Eu1176 O1221 2.373 . S
Eu1176 O1223 2.432 . S
Eu1176 O1224 2.291 . S
Eu1176 O1228 2.335 . S
Eu1176 O1231 2.372 . S
Eu1176 C1240 2.787 . S
C1177 N1178 1.365 . S
C1177 C1180 1.405 . S
C1177 C1184 1.448 . S
N1178 C1177 1.365 . S
N1178 C1181 1.319 . S
N1178 Eu1187 2.600 . S
C1179 C1181 1.397 . S
C1179 C1182 1.367 . S
C1179 H1199 0.931 . S
C1180 C1177 1.405 . S
C1180 C1182 1.403 . S
C1180 C1186 1.439 . S
C1181 N1178 1.319 . S
C1181 C1179 1.397 . S
C1181 H1192 0.930 . S
C1182 C1179 1.367 . S
C1182 C1180 1.403 . S
C1182 H1203 0.929 . S
C1183 C1184 1.430 . S
C1183 C1185 1.387 . S
C1183 C1189 1.404 . S
C1184 C1177 1.448 . S
C1184 C1183 1.430 . S
C1184 N1188 1.351 . S
C1185 C1183 1.387 . S
C1185 C1186 1.374 . S
C1185 H1200 0.931 . S
C1186 C1180 1.439 . S
C1186 C1185 1.374 . S
C1186 H1201 0.931 . S
Eu1187 N1178 2.600 . S
Eu1187 N1188 2.562 . S
Eu1187 O1222 2.335 . S
Eu1187 O1225 2.372 . S
Eu1187 O1226 2.462 . S
Eu1187 O1227 2.373 . S
Eu1187 O1229 2.432 . S
Eu1187 O1230 2.291 . S
Eu1187 C1251 2.787 . S
N1188 C1184 1.351 . S
N1188 Eu1187 2.562 . S
N1188 C1190 1.325 . S
C1189 C1183 1.404 . S
C1189 C1191 1.366 . S
C1189 H1197 0.930 . S
C1190 N1188 1.325 . S
C1190 C1191 1.416 . S
C1190 H1196 0.929 . S
C1191 C1189 1.366 . S
C1191 C1190 1.416 . S
C1191 H1193 0.930 . S
H1192 C1181 0.930 . S
H1193 C1191 0.930 . S
H1194 C1209 0.930 . S
H1195 C1216 0.930 . S
H1196 C1190 0.929 . S
H1197 C1189 0.930 . S
H1198 C1212 0.929 . S
H1199 C1179 0.931 . S
H1200 C1185 0.931 . S
H1201 C1186 0.931 . S
H1202 C1207 0.931 . S
H1203 C1182 0.929 . S
H1204 C1215 0.930 1_565 S
N1205 Eu1176 2.600 . S
N1205 C1206 1.365 . S
N1205 C1209 1.319 . S
C1206 N1205 1.365 . S
C1206 C1208 1.405 . S
C1206 C1214 1.448 . S
C1207 H1202 0.931 . S
C1207 C1209 1.397 . S
C1207 C1210 1.367 . S
C1208 C1206 1.405 . S
C1208 C1210 1.403 . S
C1208 C1241 1.439 . S
C1209 H1194 0.930 . S
C1209 N1205 1.319 . S
C1209 C1207 1.397 . S
C1210 C1207 1.367 . S
C1210 C1208 1.403 . S
C1210 H1217 0.929 . S
N1211 Eu1176 2.562 . S
N1211 C1212 1.325 . S
N1211 C1214 1.351 . S
C1212 H1198 0.929 . S
C1212 N1211 1.325 . S
C1212 C1216 1.416 . S
C1213 C1214 1.430 . S
C1213 C1215 1.404 . S
C1213 C1242 1.387 . S
C1214 C1206 1.448 . S
C1214 N1211 1.351 . S
C1214 C1213 1.430 . S
C1215 H1204 0.930 1_545 S
C1215 C1213 1.404 . S
C1215 C1216 1.366 . S
C1216 H1195 0.930 . S
C1216 C1212 1.416 . S
C1216 C1215 1.366 . S
H1217 C1210 0.929 . S
H1218 C1241 0.931 . S
H1219 C1242 0.931 1_565 S
O1220 Eu1176 2.462 . S
O1220 C1240 1.252 . S
O1221 Eu1176 2.373 . S
O1221 C1232 1.249 . S
O1222 Eu1187 2.335 . S
O1222 C1232 1.264 . S
O1223 Eu1176 2.432 . S
O1223 C1240 1.268 . S
O1224 Eu1176 2.291 . S
O1224 C1239 1.255 . S
O1225 Eu1187 2.372 . S
O1225 C1239 1.257 . S
O1226 Eu1187 2.462 . S
O1226 C1251 1.252 . S
O1227 Eu1187 2.373 . S
O1227 C1243 1.249 . S
O1228 Eu1176 2.335 . S
O1228 C1243 1.264 . S
O1229 Eu1187 2.432 . S
O1229 C1251 1.268 . S
O1230 Eu1187 2.291 . S
O1230 C1250 1.255 . S
O1231 Eu1176 2.372 . S
O1231 C1250 1.257 . S
C1232 O1221 1.249 . S
C1232 O1222 1.264 . S
C1233 C1236 1.382 . S
C1233 C1238 1.390 . S
C1233 C1240 1.506 . S
C1234 C1235 1.398 . S
C1234 C1238 1.392 . S
C1235 C1234 1.398 . S
C1235 C1237 1.372 . S
C1235 H1252 0.931 . S
C1236 C1233 1.382 . S
C1236 C1237 1.390 . S
C1236 H1253 0.931 . S
C1237 C1235 1.372 . S
C1237 C1236 1.390 . S
C1237 H1254 0.929 . S
C1238 C1233 1.390 . S
C1238 C1234 1.392 . S
C1238 H1255 0.930 . S
C1239 O1224 1.255 . S
C1239 O1225 1.257 . S
C1240 Eu1176 2.787 . S
C1240 O1220 1.252 . S
C1240 O1223 1.268 . S
C1240 C1233 1.506 . S
C1241 C1208 1.439 . S
C1241 H1218 0.931 . S
C1241 C1242 1.374 . S
C1242 C1213 1.387 . S
C1242 H1219 0.931 1_545 S
C1242 C1241 1.374 . S
C1243 O1227 1.249 . S
C1243 O1228 1.264 . S
C1244 C1247 1.382 . S
C1244 C1248 1.390 . S
C1244 C1251 1.506 . S
C1245 C1246 1.398 . S
C1245 C1248 1.392 . S
C1246 C1245 1.398 . S
C1246 C1249 1.372 . S
C1246 H1256 0.931 . S
C1247 C1244 1.382 . S
C1247 C1249 1.390 . S
C1247 H1257 0.931 . S
C1248 C1244 1.390 . S
C1248 C1245 1.392 . S
C1248 H1258 0.930 . S
C1249 C1246 1.372 . S
C1249 C1247 1.390 . S
C1249 H1259 0.929 . S
C1250 O1230 1.255 . S
C1250 O1231 1.257 . S
C1251 Eu1187 2.787 . S
C1251 O1226 1.252 . S
C1251 O1229 1.268 . S
C1251 C1244 1.506 . S
H1252 C1235 0.931 . S
H1253 C1236 0.931 . S
H1254 C1237 0.929 . S
H1255 C1238 0.930 . S
H1256 C1246 0.931 . S
H1257 C1247 0.931 . S
H1258 C1248 0.930 . S
H1259 C1249 0.929 . S
Eu1260 N1289 2.600 1_655 S
Eu1260 N1295 2.562 . S
Eu1260 O1304 2.462 . S
Eu1260 O1305 2.373 . S
Eu1260 O1307 2.432 . S
Eu1260 O1308 2.291 . S
Eu1260 O1312 2.335 . S
Eu1260 O1315 2.372 . S
Eu1260 C1324 2.787 . S
C1261 N1262 1.365 . S
C1261 C1264 1.405 . S
C1261 C1268 1.448 . S
N1262 C1261 1.365 . S
N1262 C1265 1.319 . S
N1262 Eu1271 2.600 . S
C1263 C1265 1.397 . S
C1263 C1266 1.367 . S
C1263 H1283 0.931 . S
C1264 C1261 1.405 . S
C1264 C1266 1.403 . S
C1264 C1270 1.439 . S
C1265 N1262 1.319 . S
C1265 C1263 1.397 . S
C1265 H1276 0.930 . S
C1266 C1263 1.367 . S
C1266 C1264 1.403 . S
C1266 H1287 0.929 . S
C1267 C1268 1.430 . S
C1267 C1269 1.387 . S
C1267 C1273 1.404 . S
C1268 C1261 1.448 . S
C1268 C1267 1.430 . S
C1268 N1272 1.351 . S
C1269 C1267 1.387 . S
C1269 C1270 1.374 . S
C1269 H1284 0.931 . S
C1270 C1264 1.439 . S
C1270 C1269 1.374 . S
C1270 H1285 0.931 . S
Eu1271 N1262 2.600 . S
Eu1271 N1272 2.562 . S
Eu1271 O1306 2.335 . S
Eu1271 O1309 2.372 . S
Eu1271 O1310 2.462 . S
Eu1271 O1311 2.373 . S
Eu1271 O1313 2.432 . S
Eu1271 O1314 2.291 . S
Eu1271 C1335 2.787 . S
N1272 C1268 1.351 . S
N1272 Eu1271 2.562 . S
N1272 C1274 1.325 . S
C1273 C1267 1.404 . S
C1273 C1275 1.366 . S
C1273 H1281 0.930 . S
C1274 N1272 1.325 . S
C1274 C1275 1.416 . S
C1274 H1280 0.929 . S
C1275 C1273 1.366 . S
C1275 C1274 1.416 . S
C1275 H1277 0.930 . S
H1276 C1265 0.930 . S
H1277 C1275 0.930 . S
H1278 C1293 0.930 . S
H1279 C1300 0.930 . S
H1280 C1274 0.929 . S
H1281 C1273 0.930 . S
H1282 C1296 0.929 . S
H1283 C1263 0.931 . S
H1284 C1269 0.931 . S
H1285 C1270 0.931 . S
H1286 C1291 0.931 . S
H1287 C1266 0.929 . S
H1288 C1299 0.930 1_455 S
N1289 Eu1260 2.600 1_455 S
N1289 C1290 1.365 . S
N1289 C1293 1.319 . S
C1290 N1289 1.365 . S
C1290 C1292 1.405 . S
C1290 C1298 1.448 . S
C1291 H1286 0.931 . S
C1291 C1293 1.397 . S
C1291 C1294 1.367 . S
C1292 C1290 1.405 . S
C1292 C1294 1.403 . S
C1292 C1325 1.439 . S
C1293 H1278 0.930 . S
C1293 N1289 1.319 . S
C1293 C1291 1.397 . S
C1294 C1291 1.367 . S
C1294 C1292 1.403 . S
C1294 H1301 0.929 . S
N1295 Eu1260 2.562 . S
N1295 C1296 1.325 . S
N1295 C1298 1.351 1_655 S
C1296 H1282 0.929 . S
C1296 N1295 1.325 . S
C1296 C1300 1.416 . S
C1297 C1298 1.430 . S
C1297 C1299 1.404 1_455 S
C1297 C1326 1.387 . S
C1298 C1290 1.448 . S
C1298 N1295 1.351 1_455 S
C1298 C1297 1.430 . S
C1299 H1288 0.930 1_655 S
C1299 C1297 1.404 1_655 S
C1299 C1300 1.366 . S
C1300 H1279 0.930 . S
C1300 C1296 1.416 . S
C1300 C1299 1.366 . S
H1301 C1294 0.929 . S
H1302 C1325 0.931 . S
H1303 C1326 0.931 . S
O1304 Eu1260 2.462 . S
O1304 C1324 1.252 . S
O1305 Eu1260 2.373 . S
O1305 C1316 1.249 . S
O1306 Eu1271 2.335 . S
O1306 C1316 1.264 . S
O1307 Eu1260 2.432 . S
O1307 C1324 1.268 . S
O1308 Eu1260 2.291 . S
O1308 C1323 1.255 . S
O1309 Eu1271 2.372 . S
O1309 C1323 1.257 . S
O1310 Eu1271 2.462 . S
O1310 C1335 1.252 . S
O1311 Eu1271 2.373 . S
O1311 C1327 1.249 . S
O1312 Eu1260 2.335 . S
O1312 C1327 1.264 . S
O1313 Eu1271 2.432 . S
O1313 C1335 1.268 . S
O1314 Eu1271 2.291 . S
O1314 C1334 1.255 . S
O1315 Eu1260 2.372 . S
O1315 C1334 1.257 . S
C1316 O1305 1.249 . S
C1316 O1306 1.264 . S
C1317 C1320 1.382 . S
C1317 C1322 1.390 . S
C1317 C1324 1.506 . S
C1318 C1319 1.398 . S
C1318 C1322 1.392 . S
C1319 C1318 1.398 . S
C1319 C1321 1.372 . S
C1319 H1336 0.931 . S
C1320 C1317 1.382 . S
C1320 C1321 1.390 . S
C1320 H1337 0.931 . S
C1321 C1319 1.372 . S
C1321 C1320 1.390 . S
C1321 H1338 0.929 . S
C1322 C1317 1.390 . S
C1322 C1318 1.392 . S
C1322 H1339 0.930 . S
C1323 O1308 1.255 . S
C1323 O1309 1.257 . S
C1324 Eu1260 2.787 . S
C1324 O1304 1.252 . S
C1324 O1307 1.268 . S
C1324 C1317 1.506 . S
C1325 C1292 1.439 . S
C1325 H1302 0.931 . S
C1325 C1326 1.374 . S
C1326 C1297 1.387 . S
C1326 H1303 0.931 . S
C1326 C1325 1.374 . S
C1327 O1311 1.249 . S
C1327 O1312 1.264 . S
C1328 C1331 1.382 . S
C1328 C1332 1.390 . S
C1328 C1335 1.506 . S
C1329 C1330 1.398 1_455 S
C1329 C1332 1.392 1_455 S
C1330 C1329 1.398 1_655 S
C1330 C1333 1.372 . S
C1330 H1340 0.931 . S
C1331 C1328 1.382 . S
C1331 C1333 1.390 . S
C1331 H1341 0.931 . S
C1332 C1328 1.390 . S
C1332 C1329 1.392 1_655 S
C1332 H1342 0.930 1_655 S
C1333 C1330 1.372 . S
C1333 C1331 1.390 . S
C1333 H1343 0.929 . S
C1334 O1314 1.255 . S
C1334 O1315 1.257 . S
C1335 Eu1271 2.787 . S
C1335 O1310 1.252 . S
C1335 O1313 1.268 . S
C1335 C1328 1.506 . S
H1336 C1319 0.931 . S
H1337 C1320 0.931 . S
H1338 C1321 0.929 . S
H1339 C1322 0.930 . S
H1340 C1330 0.931 . S
H1341 C1331 0.931 . S
H1342 C1332 0.930 1_455 S
H1343 C1333 0.929 . S
Eu1344 N1373 2.600 . S
Eu1344 N1379 2.562 . S
Eu1344 O1388 2.462 . S
Eu1344 O1389 2.373 . S
Eu1344 O1391 2.432 . S
Eu1344 O1392 2.291 . S
Eu1344 O1396 2.335 . S
Eu1344 O1399 2.372 . S
Eu1344 C1408 2.787 . S
C1345 N1346 1.365 . S
C1345 C1348 1.405 . S
C1345 C1352 1.448 . S
N1346 C1345 1.365 . S
N1346 C1349 1.319 . S
N1346 Eu1355 2.600 . S
C1347 C1349 1.397 . S
C1347 C1350 1.367 . S
C1347 H1367 0.931 . S
C1348 C1345 1.405 . S
C1348 C1350 1.403 . S
C1348 C1354 1.439 . S
C1349 N1346 1.319 . S
C1349 C1347 1.397 . S
C1349 H1360 0.930 . S
C1350 C1347 1.367 . S
C1350 C1348 1.403 . S
C1350 H1371 0.929 . S
C1351 C1352 1.430 . S
C1351 C1353 1.387 . S
C1351 C1357 1.404 . S
C1352 C1345 1.448 . S
C1352 C1351 1.430 . S
C1352 N1356 1.351 . S
C1353 C1351 1.387 . S
C1353 C1354 1.374 . S
C1353 H1368 0.931 . S
C1354 C1348 1.439 . S
C1354 C1353 1.374 . S
C1354 H1369 0.931 . S
Eu1355 N1346 2.600 . S
Eu1355 N1356 2.562 . S
Eu1355 O1390 2.335 . S
Eu1355 O1393 2.372 . S
Eu1355 O1394 2.462 . S
Eu1355 O1395 2.373 . S
Eu1355 O1397 2.432 . S
Eu1355 O1398 2.291 . S
Eu1355 C1419 2.787 . S
N1356 C1352 1.351 . S
N1356 Eu1355 2.562 . S
N1356 C1358 1.325 . S
C1357 C1351 1.404 . S
C1357 C1359 1.366 . S
C1357 H1365 0.930 . S
C1358 N1356 1.325 . S
C1358 C1359 1.416 . S
C1358 H1364 0.929 . S
C1359 C1357 1.366 . S
C1359 C1358 1.416 . S
C1359 H1361 0.930 . S
H1360 C1349 0.930 . S
H1361 C1359 0.930 . S
H1362 C1377 0.930 . S
H1363 C1384 0.930 . S
H1364 C1358 0.929 . S
H1365 C1357 0.930 . S
H1366 C1380 0.929 . S
H1367 C1347 0.931 . S
H1368 C1353 0.931 . S
H1369 C1354 0.931 . S
H1370 C1375 0.931 . S
H1371 C1350 0.929 . S
H1372 C1383 0.930 . S
N1373 Eu1344 2.600 . S
N1373 C1374 1.365 . S
N1373 C1377 1.319 . S
C1374 N1373 1.365 . S
C1374 C1376 1.405 . S
C1374 C1382 1.448 . S
C1375 H1370 0.931 . S
C1375 C1377 1.397 . S
C1375 C1378 1.367 . S
C1376 C1374 1.405 . S
C1376 C1378 1.403 . S
C1376 C1409 1.439 . S
C1377 H1362 0.930 . S
C1377 N1373 1.319 . S
C1377 C1375 1.397 . S
C1378 C1375 1.367 . S
C1378 C1376 1.403 . S
C1378 H1385 0.929 . S
N1379 Eu1344 2.562 . S
N1379 C1380 1.325 . S
N1379 C1382 1.351 . S
C1380 H1366 0.929 . S
C1380 N1379 1.325 . S
C1380 C1384 1.416 . S
C1381 C1382 1.430 . S
C1381 C1383 1.404 . S
C1381 C1410 1.387 . S
C1382 C1374 1.448 . S
C1382 N1379 1.351 . S
C1382 C1381 1.430 . S
C1383 H1372 0.930 . S
C1383 C1381 1.404 . S
C1383 C1384 1.366 . S
C1384 H1363 0.930 . S
C1384 C1380 1.416 . S
C1384 C1383 1.366 . S
H1385 C1378 0.929 . S
H1386 C1409 0.931 . S
H1387 C1410 0.931 . S
O1388 Eu1344 2.462 . S
O1388 C1408 1.252 . S
O1389 Eu1344 2.373 . S
O1389 C1400 1.249 . S
O1390 Eu1355 2.335 . S
O1390 C1400 1.264 . S
O1391 Eu1344 2.432 . S
O1391 C1408 1.268 . S
O1392 Eu1344 2.291 . S
O1392 C1407 1.255 . S
O1393 Eu1355 2.372 . S
O1393 C1407 1.257 . S
O1394 Eu1355 2.462 . S
O1394 C1419 1.252 . S
O1395 Eu1355 2.373 . S
O1395 C1411 1.249 . S
O1396 Eu1344 2.335 . S
O1396 C1411 1.264 . S
O1397 Eu1355 2.432 . S
O1397 C1419 1.268 . S
O1398 Eu1355 2.291 . S
O1398 C1418 1.255 . S
O1399 Eu1344 2.372 . S
O1399 C1418 1.257 . S
C1400 O1389 1.249 . S
C1400 O1390 1.264 . S
C1401 C1404 1.382 . S
C1401 C1406 1.390 . S
C1401 C1408 1.506 . S
C1402 C1403 1.398 . S
C1402 C1406 1.392 . S
C1403 C1402 1.398 . S
C1403 C1405 1.372 . S
C1403 H1420 0.931 . S
C1404 C1401 1.382 . S
C1404 C1405 1.390 . S
C1404 H1421 0.931 . S
C1405 C1403 1.372 . S
C1405 C1404 1.390 . S
C1405 H1422 0.929 . S
C1406 C1401 1.390 . S
C1406 C1402 1.392 . S
C1406 H1423 0.930 . S
C1407 O1392 1.255 . S
C1407 O1393 1.257 . S
C1408 Eu1344 2.787 . S
C1408 O1388 1.252 . S
C1408 O1391 1.268 . S
C1408 C1401 1.506 . S
C1409 C1376 1.439 . S
C1409 H1386 0.931 . S
C1409 C1410 1.374 . S
C1410 C1381 1.387 . S
C1410 H1387 0.931 . S
C1410 C1409 1.374 . S
C1411 O1395 1.249 . S
C1411 O1396 1.264 . S
C1412 C1415 1.382 . S
C1412 C1416 1.390 . S
C1412 C1419 1.506 . S
C1413 C1414 1.398 . S
C1413 C1416 1.392 . S
C1414 C1413 1.398 . S
C1414 C1417 1.372 . S
C1414 H1424 0.931 . S
C1415 C1412 1.382 . S
C1415 C1417 1.390 . S
C1415 H1425 0.931 . S
C1416 C1412 1.390 . S
C1416 C1413 1.392 . S
C1416 H1426 0.930 . S
C1417 C1414 1.372 . S
C1417 C1415 1.390 . S
C1417 H1427 0.929 . S
C1418 O1398 1.255 . S
C1418 O1399 1.257 . S
C1419 Eu1355 2.787 . S
C1419 O1394 1.252 . S
C1419 O1397 1.268 . S
C1419 C1412 1.506 . S
H1420 C1403 0.931 . S
H1421 C1404 0.931 . S
H1422 C1405 0.929 . S
H1423 C1406 0.930 . S
H1424 C1414 0.931 . S
H1425 C1415 0.931 . S
H1426 C1416 0.930 . S
H1427 C1417 0.929 . S
Eu1428 N1457 2.600 1_545 S
Eu1428 N1463 2.562 . S
Eu1428 O1472 2.462 . S
Eu1428 O1473 2.373 . S
Eu1428 O1475 2.432 . S
Eu1428 O1476 2.291 . S
Eu1428 O1480 2.335 . S
Eu1428 O1483 2.372 . S
Eu1428 C1492 2.787 . S
C1429 N1430 1.365 . S
C1429 C1432 1.405 . S
C1429 C1436 1.448 . S
N1430 C1429 1.365 . S
N1430 C1433 1.319 . S
N1430 Eu1439 2.600 . S
C1431 C1433 1.397 . S
C1431 C1434 1.367 . S
C1431 H1451 0.931 . S
C1432 C1429 1.405 . S
C1432 C1434 1.403 . S
C1432 C1438 1.439 . S
C1433 N1430 1.319 . S
C1433 C1431 1.397 . S
C1433 H1444 0.930 . S
C1434 C1431 1.367 . S
C1434 C1432 1.403 . S
C1434 H1455 0.929 . S
C1435 C1436 1.430 . S
C1435 C1437 1.387 . S
C1435 C1441 1.404 . S
C1436 C1429 1.448 . S
C1436 C1435 1.430 . S
C1436 N1440 1.351 . S
C1437 C1435 1.387 . S
C1437 C1438 1.374 . S
C1437 H1452 0.931 . S
C1438 C1432 1.439 . S
C1438 C1437 1.374 . S
C1438 H1453 0.931 . S
Eu1439 N1430 2.600 . S
Eu1439 N1440 2.562 . S
Eu1439 O1474 2.335 . S
Eu1439 O1477 2.372 . S
Eu1439 O1478 2.462 . S
Eu1439 O1479 2.373 . S
Eu1439 O1481 2.432 . S
Eu1439 O1482 2.291 . S
Eu1439 C1503 2.787 . S
N1440 C1436 1.351 . S
N1440 Eu1439 2.562 . S
N1440 C1442 1.325 . S
C1441 C1435 1.404 . S
C1441 C1443 1.366 . S
C1441 H1449 0.930 . S
C1442 N1440 1.325 . S
C1442 C1443 1.416 . S
C1442 H1448 0.929 . S
C1443 C1441 1.366 . S
C1443 C1442 1.416 . S
C1443 H1445 0.930 . S
H1444 C1433 0.930 . S
H1445 C1443 0.930 . S
H1446 C1461 0.930 . S
H1447 C1468 0.930 . S
H1448 C1442 0.929 . S
H1449 C1441 0.930 . S
H1450 C1464 0.929 . S
H1451 C1431 0.931 . S
H1452 C1437 0.931 . S
H1453 C1438 0.931 . S
H1454 C1459 0.931 . S
H1455 C1434 0.929 . S
H1456 C1467 0.930 1_565 S
N1457 Eu1428 2.600 1_565 S
N1457 C1458 1.365 . S
N1457 C1461 1.319 . S
C1458 N1457 1.365 . S
C1458 C1460 1.405 . S
C1458 C1466 1.448 . S
C1459 H1454 0.931 . S
C1459 C1461 1.397 . S
C1459 C1462 1.367 . S
C1460 C1458 1.405 . S
C1460 C1462 1.403 . S
C1460 C1493 1.439 . S
C1461 H1446 0.930 . S
C1461 N1457 1.319 . S
C1461 C1459 1.397 . S
C1462 C1459 1.367 . S
C1462 C1460 1.403 . S
C1462 H1469 0.929 . S
N1463 Eu1428 2.562 . S
N1463 C1464 1.325 . S
N1463 C1466 1.351 1_545 S
C1464 H1450 0.929 . S
C1464 N1463 1.325 . S
C1464 C1468 1.416 . S
C1465 C1466 1.430 . S
C1465 C1467 1.404 1_565 S
C1465 C1494 1.387 . S
C1466 C1458 1.448 . S
C1466 N1463 1.351 1_565 S
C1466 C1465 1.430 . S
C1467 H1456 0.930 1_545 S
C1467 C1465 1.404 1_545 S
C1467 C1468 1.366 . S
C1468 H1447 0.930 . S
C1468 C1464 1.416 . S
C1468 C1467 1.366 . S
H1469 C1462 0.929 . S
H1470 C1493 0.931 . S
H1471 C1494 0.931 . S
O1472 Eu1428 2.462 . S
O1472 C1492 1.252 . S
O1473 Eu1428 2.373 . S
O1473 C1484 1.249 . S
O1474 Eu1439 2.335 . S
O1474 C1484 1.264 . S
O1475 Eu1428 2.432 . S
O1475 C1492 1.268 . S
O1476 Eu1428 2.291 . S
O1476 C1491 1.255 . S
O1477 Eu1439 2.372 . S
O1477 C1491 1.257 . S
O1478 Eu1439 2.462 . S
O1478 C1503 1.252 . S
O1479 Eu1439 2.373 . S
O1479 C1495 1.249 . S
O1480 Eu1428 2.335 . S
O1480 C1495 1.264 . S
O1481 Eu1439 2.432 . S
O1481 C1503 1.268 . S
O1482 Eu1439 2.291 . S
O1482 C1502 1.255 . S
O1483 Eu1428 2.372 . S
O1483 C1502 1.257 . S
C1484 O1473 1.249 . S
C1484 O1474 1.264 . S
C1485 C1488 1.382 . S
C1485 C1490 1.390 . S
C1485 C1492 1.506 . S
C1486 C1487 1.398 . S
C1486 C1490 1.392 . S
C1487 C1486 1.398 . S
C1487 C1489 1.372 . S
C1487 H1504 0.931 . S
C1488 C1485 1.382 . S
C1488 C1489 1.390 . S
C1488 H1505 0.931 . S
C1489 C1487 1.372 . S
C1489 C1488 1.390 . S
C1489 H1506 0.929 . S
C1490 C1485 1.390 . S
C1490 C1486 1.392 . S
C1490 H1507 0.930 . S
C1491 O1476 1.255 . S
C1491 O1477 1.257 . S
C1492 Eu1428 2.787 . S
C1492 O1472 1.252 . S
C1492 O1475 1.268 . S
C1492 C1485 1.506 . S
C1493 C1460 1.439 . S
C1493 H1470 0.931 . S
C1493 C1494 1.374 . S
C1494 C1465 1.387 . S
C1494 H1471 0.931 . S
C1494 C1493 1.374 . S
C1495 O1479 1.249 . S
C1495 O1480 1.264 . S
C1496 C1499 1.382 . S
C1496 C1500 1.390 . S
C1496 C1503 1.506 . S
C1497 C1498 1.398 1_565 S
C1497 C1500 1.392 1_565 S
C1498 C1497 1.398 1_545 S
C1498 C1501 1.372 . S
C1498 H1508 0.931 . S
C1499 C1496 1.382 . S
C1499 C1501 1.390 . S
C1499 H1509 0.931 . S
C1500 C1496 1.390 . S
C1500 C1497 1.392 1_545 S
C1500 H1510 0.930 1_545 S
C1501 C1498 1.372 . S
C1501 C1499 1.390 . S
C1501 H1511 0.929 . S
C1502 O1482 1.255 . S
C1502 O1483 1.257 . S
C1503 Eu1439 2.787 . S
C1503 O1478 1.252 . S
C1503 O1481 1.268 . S
C1503 C1496 1.506 . S
H1504 C1487 0.931 . S
H1505 C1488 0.931 . S
H1506 C1489 0.929 . S
H1507 C1490 0.930 . S
H1508 C1498 0.931 . S
H1509 C1499 0.931 . S
H1510 C1500 0.930 1_565 S
H1511 C1501 0.929 . S
Eu1512 N1541 2.600 . S
Eu1512 N1547 2.562 . S
Eu1512 O1556 2.462 . S
Eu1512 O1557 2.373 . S
Eu1512 O1559 2.432 . S
Eu1512 O1560 2.291 . S
Eu1512 O1564 2.335 . S
Eu1512 O1567 2.372 . S
Eu1512 C1576 2.787 . S
C1513 N1514 1.365 . S
C1513 C1516 1.405 . S
C1513 C1520 1.448 . S
N1514 C1513 1.365 . S
N1514 C1517 1.319 . S
N1514 Eu1523 2.600 1_565 S
C1515 C1517 1.397 . S
C1515 C1518 1.367 . S
C1515 H1535 0.931 . S
C1516 C1513 1.405 . S
C1516 C1518 1.403 . S
C1516 C1522 1.439 . S
C1517 N1514 1.319 . S
C1517 C1515 1.397 . S
C1517 H1528 0.930 . S
C1518 C1515 1.367 . S
C1518 C1516 1.403 . S
C1518 H1539 0.929 . S
C1519 C1520 1.430 . S
C1519 C1521 1.387 . S
C1519 C1525 1.404 1_565 S
C1520 C1513 1.448 . S
C1520 C1519 1.430 . S
C1520 N1524 1.351 1_565 S
C1521 C1519 1.387 . S
C1521 C1522 1.374 . S
C1521 H1536 0.931 . S
C1522 C1516 1.439 . S
C1522 C1521 1.374 . S
C1522 H1537 0.931 . S
Eu1523 N1514 2.600 1_545 S
Eu1523 N1524 2.562 . S
Eu1523 O1558 2.335 . S
Eu1523 O1561 2.372 . S
Eu1523 O1562 2.462 . S
Eu1523 O1563 2.373 . S
Eu1523 O1565 2.432 . S
Eu1523 O1566 2.291 . S
Eu1523 C1587 2.787 . S
N1524 C1520 1.351 1_545 S
N1524 Eu1523 2.562 . S
N1524 C1526 1.325 . S
C1525 C1519 1.404 1_545 S
C1525 C1527 1.366 . S
C1525 H1533 0.930 1_545 S
C1526 N1524 1.325 . S
C1526 C1527 1.416 . S
C1526 H1532 0.929 . S
C1527 C1525 1.366 . S
C1527 C1526 1.416 . S
C1527 H1529 0.930 . S
H1528 C1517 0.930 . S
H1529 C1527 0.930 . S
H1530 C1545 0.930 . S
H1531 C1552 0.930 . S
H1532 C1526 0.929 . S
H1533 C1525 0.930 1_565 S
H1534 C1548 0.929 . S
H1535 C1515 0.931 . S
H1536 C1521 0.931 . S
H1537 C1522 0.931 . S
H1538 C1543 0.931 . S
H1539 C1518 0.929 . S
H1540 C1551 0.930 . S
N1541 Eu1512 2.600 . S
N1541 C1542 1.365 . S
N1541 C1545 1.319 . S
C1542 N1541 1.365 . S
C1542 C1544 1.405 . S
C1542 C1550 1.448 . S
C1543 H1538 0.931 . S
C1543 C1545 1.397 . S
C1543 C1546 1.367 . S
C1544 C1542 1.405 . S
C1544 C1546 1.403 . S
C1544 C1577 1.439 . S
C1545 H1530 0.930 . S
C1545 N1541 1.319 . S
C1545 C1543 1.397 . S
C1546 C1543 1.367 . S
C1546 C1544 1.403 . S
C1546 H1553 0.929 . S
N1547 Eu1512 2.562 . S
N1547 C1548 1.325 . S
N1547 C1550 1.351 . S
C1548 H1534 0.929 . S
C1548 N1547 1.325 . S
C1548 C1552 1.416 . S
C1549 C1550 1.430 . S
C1549 C1551 1.404 . S
C1549 C1578 1.387 . S
C1550 C1542 1.448 . S
C1550 N1547 1.351 . S
C1550 C1549 1.430 . S
C1551 H1540 0.930 . S
C1551 C1549 1.404 . S
C1551 C1552 1.366 . S
C1552 H1531 0.930 . S
C1552 C1548 1.416 . S
C1552 C1551 1.366 . S
H1553 C1546 0.929 . S
H1554 C1577 0.931 . S
H1555 C1578 0.931 . S
O1556 Eu1512 2.462 . S
O1556 C1576 1.252 . S
O1557 Eu1512 2.373 . S
O1557 C1568 1.249 . S
O1558 Eu1523 2.335 . S
O1558 C1568 1.264 . S
O1559 Eu1512 2.432 . S
O1559 C1576 1.268 . S
O1560 Eu1512 2.291 . S
O1560 C1575 1.255 . S
O1561 Eu1523 2.372 . S
O1561 C1575 1.257 . S
O1562 Eu1523 2.462 . S
O1562 C1587 1.252 . S
O1563 Eu1523 2.373 . S
O1563 C1579 1.249 . S
O1564 Eu1512 2.335 . S
O1564 C1579 1.264 . S
O1565 Eu1523 2.432 . S
O1565 C1587 1.268 . S
O1566 Eu1523 2.291 . S
O1566 C1586 1.255 . S
O1567 Eu1512 2.372 . S
O1567 C1586 1.257 . S
C1568 O1557 1.249 . S
C1568 O1558 1.264 . S
C1569 C1572 1.382 . S
C1569 C1574 1.390 . S
C1569 C1576 1.506 . S
C1570 C1571 1.398 . S
C1570 C1574 1.392 . S
C1571 C1570 1.398 . S
C1571 C1573 1.372 . S
C1571 H1588 0.931 . S
C1572 C1569 1.382 . S
C1572 C1573 1.390 . S
C1572 H1589 0.931 . S
C1573 C1571 1.372 . S
C1573 C1572 1.390 . S
C1573 H1590 0.929 . S
C1574 C1569 1.390 . S
C1574 C1570 1.392 . S
C1574 H1591 0.930 . S
C1575 O1560 1.255 . S
C1575 O1561 1.257 . S
C1576 Eu1512 2.787 . S
C1576 O1556 1.252 . S
C1576 O1559 1.268 . S
C1576 C1569 1.506 . S
C1577 C1544 1.439 . S
C1577 H1554 0.931 . S
C1577 C1578 1.374 . S
C1578 C1549 1.387 . S
C1578 H1555 0.931 . S
C1578 C1577 1.374 . S
C1579 O1563 1.249 . S
C1579 O1564 1.264 . S
C1580 C1583 1.382 . S
C1580 C1584 1.390 . S
C1580 C1587 1.506 . S
C1581 C1582 1.398 . S
C1581 C1584 1.392 . S
C1582 C1581 1.398 . S
C1582 C1585 1.372 . S
C1582 H1592 0.931 . S
C1583 C1580 1.382 . S
C1583 C1585 1.390 . S
C1583 H1593 0.931 . S
C1584 C1580 1.390 . S
C1584 C1581 1.392 . S
C1584 H1594 0.930 . S
C1585 C1582 1.372 . S
C1585 C1583 1.390 . S
C1585 H1595 0.929 . S
C1586 O1566 1.255 . S
C1586 O1567 1.257 . S
C1587 Eu1523 2.787 . S
C1587 O1562 1.252 . S
C1587 O1565 1.268 . S
C1587 C1580 1.506 . S
H1588 C1571 0.931 . S
H1589 C1572 0.931 . S
H1590 C1573 0.929 . S
H1591 C1574 0.930 . S
H1592 C1582 0.931 . S
H1593 C1583 0.931 . S
H1594 C1584 0.930 . S
H1595 C1585 0.929 . S
Eu1596 N1625 2.600 . S
Eu1596 N1631 2.562 . S
Eu1596 O1640 2.462 . S
Eu1596 O1641 2.373 . S
Eu1596 O1643 2.432 . S
Eu1596 O1644 2.291 . S
Eu1596 O1648 2.335 . S
Eu1596 O1651 2.372 . S
Eu1596 C1660 2.787 . S
C1597 N1598 1.365 . S
C1597 C1600 1.405 . S
C1597 C1604 1.448 . S
N1598 C1597 1.365 . S
N1598 C1601 1.319 . S
N1598 Eu1607 2.600 1_455 S
C1599 C1601 1.397 . S
C1599 C1602 1.367 . S
C1599 H1619 0.931 . S
C1600 C1597 1.405 . S
C1600 C1602 1.403 . S
C1600 C1606 1.439 . S
C1601 N1598 1.319 . S
C1601 C1599 1.397 . S
C1601 H1612 0.930 . S
C1602 C1599 1.367 . S
C1602 C1600 1.403 . S
C1602 H1623 0.929 . S
C1603 C1604 1.430 . S
C1603 C1605 1.387 . S
C1603 C1609 1.404 1_455 S
C1604 C1597 1.448 . S
C1604 C1603 1.430 . S
C1604 N1608 1.351 1_455 S
C1605 C1603 1.387 . S
C1605 C1606 1.374 . S
C1605 H1620 0.931 . S
C1606 C1600 1.439 . S
C1606 C1605 1.374 . S
C1606 H1621 0.931 . S
Eu1607 N1598 2.600 1_655 S
Eu1607 N1608 2.562 . S
Eu1607 O1642 2.335 . S
Eu1607 O1645 2.372 . S
Eu1607 O1646 2.462 . S
Eu1607 O1647 2.373 . S
Eu1607 O1649 2.432 . S
Eu1607 O1650 2.291 . S
Eu1607 C1671 2.787 . S
N1608 C1604 1.351 1_655 S
N1608 Eu1607 2.562 . S
N1608 C1610 1.325 . S
C1609 C1603 1.404 1_655 S
C1609 C1611 1.366 . S
C1609 H1617 0.930 1_655 S
C1610 N1608 1.325 . S
C1610 C1611 1.416 . S
C1610 H1616 0.929 . S
C1611 C1609 1.366 . S
C1611 C1610 1.416 . S
C1611 H1613 0.930 . S
H1612 C1601 0.930 . S
H1613 C1611 0.930 . S
H1614 C1629 0.930 . S
H1615 C1636 0.930 . S
H1616 C1610 0.929 . S
H1617 C1609 0.930 1_455 S
H1618 C1632 0.929 . S
H1619 C1599 0.931 . S
H1620 C1605 0.931 . S
H1621 C1606 0.931 . S
H1622 C1627 0.931 . S
H1623 C1602 0.929 . S
H1624 C1635 0.930 . S
N1625 Eu1596 2.600 . S
N1625 C1626 1.365 . S
N1625 C1629 1.319 . S
C1626 N1625 1.365 . S
C1626 C1628 1.405 . S
C1626 C1634 1.448 . S
C1627 H1622 0.931 . S
C1627 C1629 1.397 . S
C1627 C1630 1.367 . S
C1628 C1626 1.405 . S
C1628 C1630 1.403 . S
C1628 C1661 1.439 . S
C1629 H1614 0.930 . S
C1629 N1625 1.319 . S
C1629 C1627 1.397 . S
C1630 C1627 1.367 . S
C1630 C1628 1.403 . S
C1630 H1637 0.929 . S
N1631 Eu1596 2.562 . S
N1631 C1632 1.325 . S
N1631 C1634 1.351 . S
C1632 H1618 0.929 . S
C1632 N1631 1.325 . S
C1632 C1636 1.416 . S
C1633 C1634 1.430 . S
C1633 C1635 1.404 . S
C1633 C1662 1.387 . S
C1634 C1626 1.448 . S
C1634 N1631 1.351 . S
C1634 C1633 1.430 . S
C1635 H1624 0.930 . S
C1635 C1633 1.404 . S
C1635 C1636 1.366 . S
C1636 H1615 0.930 . S
C1636 C1632 1.416 . S
C1636 C1635 1.366 . S
H1637 C1630 0.929 . S
H1638 C1661 0.931 . S
H1639 C1662 0.931 . S
O1640 Eu1596 2.462 . S
O1640 C1660 1.252 . S
O1641 Eu1596 2.373 . S
O1641 C1652 1.249 . S
O1642 Eu1607 2.335 . S
O1642 C1652 1.264 . S
O1643 Eu1596 2.432 . S
O1643 C1660 1.268 . S
O1644 Eu1596 2.291 . S
O1644 C1659 1.255 . S
O1645 Eu1607 2.372 . S
O1645 C1659 1.257 . S
O1646 Eu1607 2.462 . S
O1646 C1671 1.252 . S
O1647 Eu1607 2.373 . S
O1647 C1663 1.249 . S
O1648 Eu1596 2.335 . S
O1648 C1663 1.264 . S
O1649 Eu1607 2.432 . S
O1649 C1671 1.268 . S
O1650 Eu1607 2.291 . S
O1650 C1670 1.255 . S
O1651 Eu1596 2.372 . S
O1651 C1670 1.257 . S
C1652 O1641 1.249 . S
C1652 O1642 1.264 . S
C1653 C1656 1.382 . S
C1653 C1658 1.390 . S
C1653 C1660 1.506 . S
C1654 C1655 1.398 . S
C1654 C1658 1.392 . S
C1655 C1654 1.398 . S
C1655 C1657 1.372 . S
C1655 H1672 0.931 . S
C1656 C1653 1.382 . S
C1656 C1657 1.390 . S
C1656 H1673 0.931 . S
C1657 C1655 1.372 . S
C1657 C1656 1.390 . S
C1657 H1674 0.929 . S
C1658 C1653 1.390 . S
C1658 C1654 1.392 . S
C1658 H1675 0.930 . S
C1659 O1644 1.255 . S
C1659 O1645 1.257 . S
C1660 Eu1596 2.787 . S
C1660 O1640 1.252 . S
C1660 O1643 1.268 . S
C1660 C1653 1.506 . S
C1661 C1628 1.439 . S
C1661 H1638 0.931 . S
C1661 C1662 1.374 . S
C1662 C1633 1.387 . S
C1662 H1639 0.931 . S
C1662 C1661 1.374 . S
C1663 O1647 1.249 . S
C1663 O1648 1.264 . S
C1664 C1667 1.382 . S
C1664 C1668 1.390 . S
C1664 C1671 1.506 . S
C1665 C1666 1.398 . S
C1665 C1668 1.392 . S
C1666 C1665 1.398 . S
C1666 C1669 1.372 . S
C1666 H1676 0.931 . S
C1667 C1664 1.382 . S
C1667 C1669 1.390 . S
C1667 H1677 0.931 . S
C1668 C1664 1.390 . S
C1668 C1665 1.392 . S
C1668 H1678 0.930 . S
C1669 C1666 1.372 . S
C1669 C1667 1.390 . S
C1669 H1679 0.929 . S
C1670 O1650 1.255 . S
C1670 O1651 1.257 . S
C1671 Eu1607 2.787 . S
C1671 O1646 1.252 . S
C1671 O1649 1.268 . S
C1671 C1664 1.506 . S
H1672 C1655 0.931 . S
H1673 C1656 0.931 . S
H1674 C1657 0.929 . S
H1675 C1658 0.930 . S
H1676 C1666 0.931 . S
H1677 C1667 0.931 . S
H1678 C1668 0.930 . S
H1679 C1669 0.929 . S
Eu1680 N1709 2.600 . S
Eu1680 N1715 2.562 . S
Eu1680 O1724 2.462 . S
Eu1680 O1725 2.373 . S
Eu1680 O1727 2.432 . S
Eu1680 O1728 2.291 . S
Eu1680 O1732 2.335 . S
Eu1680 O1735 2.372 . S
Eu1680 C1744 2.787 . S
C1681 N1682 1.365 . S
C1681 C1684 1.405 . S
C1681 C1688 1.448 . S
N1682 C1681 1.365 . S
N1682 C1685 1.319 . S
N1682 Eu1691 2.600 . S
C1683 C1685 1.397 . S
C1683 C1686 1.367 . S
C1683 H1703 0.931 . S
C1684 C1681 1.405 . S
C1684 C1686 1.403 . S
C1684 C1690 1.439 . S
C1685 N1682 1.319 . S
C1685 C1683 1.397 . S
C1685 H1696 0.930 . S
C1686 C1683 1.367 . S
C1686 C1684 1.403 . S
C1686 H1707 0.929 . S
C1687 C1688 1.430 . S
C1687 C1689 1.387 . S
C1687 C1693 1.404 . S
C1688 C1681 1.448 . S
C1688 C1687 1.430 . S
C1688 N1692 1.351 . S
C1689 C1687 1.387 . S
C1689 C1690 1.374 . S
C1689 H1704 0.931 . S
C1690 C1684 1.439 . S
C1690 C1689 1.374 . S
C1690 H1705 0.931 . S
Eu1691 N1682 2.600 . S
Eu1691 N1692 2.562 . S
Eu1691 O1726 2.335 . S
Eu1691 O1729 2.372 . S
Eu1691 O1730 2.462 . S
Eu1691 O1731 2.373 . S
Eu1691 O1733 2.432 . S
Eu1691 O1734 2.291 . S
Eu1691 C1755 2.787 . S
N1692 C1688 1.351 . S
N1692 Eu1691 2.562 . S
N1692 C1694 1.325 . S
C1693 C1687 1.404 . S
C1693 C1695 1.366 . S
C1693 H1701 0.930 . S
C1694 N1692 1.325 . S
C1694 C1695 1.416 . S
C1694 H1700 0.929 . S
C1695 C1693 1.366 . S
C1695 C1694 1.416 . S
C1695 H1697 0.930 . S
H1696 C1685 0.930 . S
H1697 C1695 0.930 . S
H1698 C1713 0.930 . S
H1699 C1720 0.930 . S
H1700 C1694 0.929 . S
H1701 C1693 0.930 . S
H1702 C1716 0.929 . S
H1703 C1683 0.931 . S
H1704 C1689 0.931 . S
H1705 C1690 0.931 . S
H1706 C1711 0.931 . S
H1707 C1686 0.929 . S
H1708 C1719 0.930 . S
N1709 Eu1680 2.600 . S
N1709 C1710 1.365 . S
N1709 C1713 1.319 . S
C1710 N1709 1.365 . S
C1710 C1712 1.405 . S
C1710 C1718 1.448 . S
C1711 H1706 0.931 . S
C1711 C1713 1.397 . S
C1711 C1714 1.367 . S
C1712 C1710 1.405 . S
C1712 C1714 1.403 . S
C1712 C1745 1.439 . S
C1713 H1698 0.930 . S
C1713 N1709 1.319 . S
C1713 C1711 1.397 . S
C1714 C1711 1.367 . S
C1714 C1712 1.403 . S
C1714 H1721 0.929 . S
N1715 Eu1680 2.562 . S
N1715 C1716 1.325 . S
N1715 C1718 1.351 . S
C1716 H1702 0.929 . S
C1716 N1715 1.325 . S
C1716 C1720 1.416 . S
C1717 C1718 1.430 . S
C1717 C1719 1.404 . S
C1717 C1746 1.387 . S
C1718 C1710 1.448 . S
C1718 N1715 1.351 . S
C1718 C1717 1.430 . S
C1719 H1708 0.930 . S
C1719 C1717 1.404 . S
C1719 C1720 1.366 . S
C1720 H1699 0.930 . S
C1720 C1716 1.416 . S
C1720 C1719 1.366 . S
H1721 C1714 0.929 . S
H1722 C1745 0.931 . S
H1723 C1746 0.931 . S
O1724 Eu1680 2.462 . S
O1724 C1744 1.252 . S
O1725 Eu1680 2.373 . S
O1725 C1736 1.249 . S
O1726 Eu1691 2.335 . S
O1726 C1736 1.264 . S
O1727 Eu1680 2.432 . S
O1727 C1744 1.268 . S
O1728 Eu1680 2.291 . S
O1728 C1743 1.255 . S
O1729 Eu1691 2.372 . S
O1729 C1743 1.257 . S
O1730 Eu1691 2.462 . S
O1730 C1755 1.252 . S
O1731 Eu1691 2.373 . S
O1731 C1747 1.249 . S
O1732 Eu1680 2.335 . S
O1732 C1747 1.264 . S
O1733 Eu1691 2.432 . S
O1733 C1755 1.268 . S
O1734 Eu1691 2.291 . S
O1734 C1754 1.255 . S
O1735 Eu1680 2.372 . S
O1735 C1754 1.257 . S
C1736 O1725 1.249 . S
C1736 O1726 1.264 . S
C1737 C1740 1.382 . S
C1737 C1742 1.390 . S
C1737 C1744 1.506 . S
C1738 C1739 1.398 . S
C1738 C1742 1.392 . S
C1739 C1738 1.398 . S
C1739 C1741 1.372 . S
C1739 H1756 0.931 . S
C1740 C1737 1.382 . S
C1740 C1741 1.390 . S
C1740 H1757 0.931 . S
C1741 C1739 1.372 . S
C1741 C1740 1.390 . S
C1741 H1758 0.929 . S
C1742 C1737 1.390 . S
C1742 C1738 1.392 . S
C1742 H1759 0.930 . S
C1743 O1728 1.255 . S
C1743 O1729 1.257 . S
C1744 Eu1680 2.787 . S
C1744 O1724 1.252 . S
C1744 O1727 1.268 . S
C1744 C1737 1.506 . S
C1745 C1712 1.439 . S
C1745 H1722 0.931 . S
C1745 C1746 1.374 . S
C1746 C1717 1.387 . S
C1746 H1723 0.931 . S
C1746 C1745 1.374 . S
C1747 O1731 1.249 . S
C1747 O1732 1.264 . S
C1748 C1751 1.382 . S
C1748 C1752 1.390 . S
C1748 C1755 1.506 . S
C1749 C1750 1.398 . S
C1749 C1752 1.392 . S
C1750 C1749 1.398 . S
C1750 C1753 1.372 . S
C1750 H1760 0.931 . S
C1751 C1748 1.382 . S
C1751 C1753 1.390 . S
C1751 H1761 0.931 . S
C1752 C1748 1.390 . S
C1752 C1749 1.392 . S
C1752 H1762 0.930 . S
C1753 C1750 1.372 . S
C1753 C1751 1.390 . S
C1753 H1763 0.929 . S
C1754 O1734 1.255 . S
C1754 O1735 1.257 . S
C1755 Eu1691 2.787 . S
C1755 O1730 1.252 . S
C1755 O1733 1.268 . S
C1755 C1748 1.506 . S
H1756 C1739 0.931 . S
H1757 C1740 0.931 . S
H1758 C1741 0.929 . S
H1759 C1742 0.930 . S
H1760 C1750 0.931 . S
H1761 C1751 0.931 . S
H1762 C1752 0.930 . S
H1763 C1753 0.929 . S
Eu1764 N1793 2.600 . S
Eu1764 N1799 2.562 . S
Eu1764 O1808 2.462 . S
Eu1764 O1809 2.373 . S
Eu1764 O1811 2.432 . S
Eu1764 O1812 2.291 . S
Eu1764 O1816 2.335 . S
Eu1764 O1819 2.372 . S
Eu1764 C1828 2.787 . S
C1765 N1766 1.365 . S
C1765 C1768 1.405 . S
C1765 C1772 1.448 . S
N1766 C1765 1.365 . S
N1766 C1769 1.319 . S
N1766 Eu1775 2.600 . S
C1767 C1769 1.397 . S
C1767 C1770 1.367 . S
C1767 H1787 0.931 . S
C1768 C1765 1.405 . S
C1768 C1770 1.403 . S
C1768 C1774 1.439 . S
C1769 N1766 1.319 . S
C1769 C1767 1.397 . S
C1769 H1780 0.930 . S
C1770 C1767 1.367 . S
C1770 C1768 1.403 . S
C1770 H1791 0.929 . S
C1771 C1772 1.430 . S
C1771 C1773 1.387 . S
C1771 C1777 1.404 . S
C1772 C1765 1.448 . S
C1772 C1771 1.430 . S
C1772 N1776 1.351 . S
C1773 C1771 1.387 . S
C1773 C1774 1.374 . S
C1773 H1788 0.931 1_545 S
C1774 C1768 1.439 . S
C1774 C1773 1.374 . S
C1774 H1789 0.931 . S
Eu1775 N1766 2.600 . S
Eu1775 N1776 2.562 . S
Eu1775 O1810 2.335 . S
Eu1775 O1813 2.372 . S
Eu1775 O1814 2.462 . S
Eu1775 O1815 2.373 . S
Eu1775 O1817 2.432 . S
Eu1775 O1818 2.291 . S
Eu1775 C1839 2.787 . S
N1776 C1772 1.351 . S
N1776 Eu1775 2.562 . S
N1776 C1778 1.325 . S
C1777 C1771 1.404 . S
C1777 C1779 1.366 . S
C1777 H1785 0.930 1_545 S
C1778 N1776 1.325 . S
C1778 C1779 1.416 . S
C1778 H1784 0.929 . S
C1779 C1777 1.366 . S
C1779 C1778 1.416 . S
C1779 H1781 0.930 . S
H1780 C1769 0.930 . S
H1781 C1779 0.930 . S
H1782 C1797 0.930 . S
H1783 C1804 0.930 . S
H1784 C1778 0.929 . S
H1785 C1777 0.930 1_565 S
H1786 C1800 0.929 . S
H1787 C1767 0.931 . S
H1788 C1773 0.931 1_565 S
H1789 C1774 0.931 . S
H1790 C1795 0.931 . S
H1791 C1770 0.929 . S
H1792 C1803 0.930 . S
N1793 Eu1764 2.600 . S
N1793 C1794 1.365 . S
N1793 C1797 1.319 . S
C1794 N1793 1.365 . S
C1794 C1796 1.405 . S
C1794 C1802 1.448 . S
C1795 H1790 0.931 . S
C1795 C1797 1.397 . S
C1795 C1798 1.367 . S
C1796 C1794 1.405 . S
C1796 C1798 1.403 . S
C1796 C1829 1.439 . S
C1797 H1782 0.930 . S
C1797 N1793 1.319 . S
C1797 C1795 1.397 . S
C1798 C1795 1.367 . S
C1798 C1796 1.403 . S
C1798 H1805 0.929 . S
N1799 Eu1764 2.562 . S
N1799 C1800 1.325 . S
N1799 C1802 1.351 . S
C1800 H1786 0.929 . S
C1800 N1799 1.325 . S
C1800 C1804 1.416 . S
C1801 C1802 1.430 . S
C1801 C1803 1.404 . S
C1801 C1830 1.387 . S
C1802 C1794 1.448 . S
C1802 N1799 1.351 . S
C1802 C1801 1.430 . S
C1803 H1792 0.930 . S
C1803 C1801 1.404 . S
C1803 C1804 1.366 . S
C1804 H1783 0.930 . S
C1804 C1800 1.416 . S
C1804 C1803 1.366 . S
H1805 C1798 0.929 . S
H1806 C1829 0.931 . S
H1807 C1830 0.931 . S
O1808 Eu1764 2.462 . S
O1808 C1828 1.252 . S
O1809 Eu1764 2.373 . S
O1809 C1820 1.249 1_556 S
O1810 Eu1775 2.335 . S
O1810 C1820 1.264 . S
O1811 Eu1764 2.432 . S
O1811 C1828 1.268 . S
O1812 Eu1764 2.291 . S
O1812 C1827 1.255 . S
O1813 Eu1775 2.372 . S
O1813 C1827 1.257 1_554 S
O1814 Eu1775 2.462 . S
O1814 C1839 1.252 . S
O1815 Eu1775 2.373 . S
O1815 C1831 1.249 1_554 S
O1816 Eu1764 2.335 . S
O1816 C1831 1.264 . S
O1817 Eu1775 2.432 . S
O1817 C1839 1.268 . S
O1818 Eu1775 2.291 . S
O1818 C1838 1.255 . S
O1819 Eu1764 2.372 . S
O1819 C1838 1.257 1_556 S
C1820 O1809 1.249 1_554 S
C1820 O1810 1.264 . S
C1821 C1824 1.382 . S
C1821 C1826 1.390 . S
C1821 C1828 1.506 . S
C1822 C1823 1.398 . S
C1822 C1826 1.392 . S
C1823 C1822 1.398 . S
C1823 C1825 1.372 . S
C1823 H1840 0.931 . S
C1824 C1821 1.382 . S
C1824 C1825 1.390 . S
C1824 H1841 0.931 . S
C1825 C1823 1.372 . S
C1825 C1824 1.390 . S
C1825 H1842 0.929 . S
C1826 C1821 1.390 . S
C1826 C1822 1.392 . S
C1826 H1843 0.930 . S
C1827 O1812 1.255 . S
C1827 O1813 1.257 1_556 S
C1828 Eu1764 2.787 . S
C1828 O1808 1.252 . S
C1828 O1811 1.268 . S
C1828 C1821 1.506 . S
C1829 C1796 1.439 . S
C1829 H1806 0.931 . S
C1829 C1830 1.374 . S
C1830 C1801 1.387 . S
C1830 H1807 0.931 . S
C1830 C1829 1.374 . S
C1831 O1815 1.249 1_556 S
C1831 O1816 1.264 . S
C1832 C1835 1.382 . S
C1832 C1836 1.390 . S
C1832 C1839 1.506 . S
C1833 C1834 1.398 . S
C1833 C1836 1.392 . S
C1834 C1833 1.398 . S
C1834 C1837 1.372 . S
C1834 H1844 0.931 . S
C1835 C1832 1.382 . S
C1835 C1837 1.390 . S
C1835 H1845 0.931 . S
C1836 C1832 1.390 . S
C1836 C1833 1.392 . S
C1836 H1846 0.930 . S
C1837 C1834 1.372 . S
C1837 C1835 1.390 . S
C1837 H1847 0.929 . S
C1838 O1818 1.255 . S
C1838 O1819 1.257 1_554 S
C1839 Eu1775 2.787 . S
C1839 O1814 1.252 . S
C1839 O1817 1.268 . S
C1839 C1832 1.506 . S
H1840 C1823 0.931 . S
H1841 C1824 0.931 . S
H1842 C1825 0.929 . S
H1843 C1826 0.930 . S
H1844 C1834 0.931 . S
H1845 C1835 0.931 . S
H1846 C1836 0.930 . S
H1847 C1837 0.929 . S
Eu1848 N1877 2.600 . S
Eu1848 N1883 2.562 . S
Eu1848 O1892 2.462 . S
Eu1848 O1893 2.373 . S
Eu1848 O1895 2.432 . S
Eu1848 O1896 2.291 . S
Eu1848 O1900 2.335 . S
Eu1848 O1903 2.372 . S
Eu1848 C1912 2.787 . S
C1849 N1850 1.365 . S
C1849 C1852 1.405 . S
C1849 C1856 1.448 . S
N1850 C1849 1.365 . S
N1850 C1853 1.319 . S
N1850 Eu1859 2.600 . S
C1851 C1853 1.397 . S
C1851 C1854 1.367 . S
C1851 H1871 0.931 . S
C1852 C1849 1.405 . S
C1852 C1854 1.403 . S
C1852 C1858 1.439 . S
C1853 N1850 1.319 . S
C1853 C1851 1.397 . S
C1853 H1864 0.930 . S
C1854 C1851 1.367 . S
C1854 C1852 1.403 . S
C1854 H1875 0.929 . S
C1855 C1856 1.430 . S
C1855 C1857 1.387 . S
C1855 C1861 1.404 . S
C1856 C1849 1.448 . S
C1856 C1855 1.430 . S
C1856 N1860 1.351 . S
C1857 C1855 1.387 . S
C1857 C1858 1.374 . S
C1857 H1872 0.931 1_655 S
C1858 C1852 1.439 . S
C1858 C1857 1.374 . S
C1858 H1873 0.931 . S
Eu1859 N1850 2.600 . S
Eu1859 N1860 2.562 . S
Eu1859 O1894 2.335 . S
Eu1859 O1897 2.372 . S
Eu1859 O1898 2.462 . S
Eu1859 O1899 2.373 . S
Eu1859 O1901 2.432 . S
Eu1859 O1902 2.291 . S
Eu1859 C1923 2.787 . S
N1860 C1856 1.351 . S
N1860 Eu1859 2.562 . S
N1860 C1862 1.325 . S
C1861 C1855 1.404 . S
C1861 C1863 1.366 . S
C1861 H1869 0.930 1_655 S
C1862 N1860 1.325 . S
C1862 C1863 1.416 . S
C1862 H1868 0.929 . S
C1863 C1861 1.366 . S
C1863 C1862 1.416 . S
C1863 H1865 0.930 . S
H1864 C1853 0.930 . S
H1865 C1863 0.930 . S
H1866 C1881 0.930 . S
H1867 C1888 0.930 . S
H1868 C1862 0.929 . S
H1869 C1861 0.930 1_455 S
H1870 C1884 0.929 . S
H1871 C1851 0.931 . S
H1872 C1857 0.931 1_455 S
H1873 C1858 0.931 . S
H1874 C1879 0.931 . S
H1875 C1854 0.929 . S
H1876 C1887 0.930 . S
N1877 Eu1848 2.600 . S
N1877 C1878 1.365 . S
N1877 C1881 1.319 . S
C1878 N1877 1.365 . S
C1878 C1880 1.405 . S
C1878 C1886 1.448 . S
C1879 H1874 0.931 . S
C1879 C1881 1.397 . S
C1879 C1882 1.367 . S
C1880 C1878 1.405 . S
C1880 C1882 1.403 . S
C1880 C1913 1.439 . S
C1881 H1866 0.930 . S
C1881 N1877 1.319 . S
C1881 C1879 1.397 . S
C1882 C1879 1.367 . S
C1882 C1880 1.403 . S
C1882 H1889 0.929 . S
N1883 Eu1848 2.562 . S
N1883 C1884 1.325 . S
N1883 C1886 1.351 . S
C1884 H1870 0.929 . S
C1884 N1883 1.325 . S
C1884 C1888 1.416 . S
C1885 C1886 1.430 . S
C1885 C1887 1.404 . S
C1885 C1914 1.387 . S
C1886 C1878 1.448 . S
C1886 N1883 1.351 . S
C1886 C1885 1.430 . S
C1887 H1876 0.930 . S
C1887 C1885 1.404 . S
C1887 C1888 1.366 . S
C1888 H1867 0.930 . S
C1888 C1884 1.416 . S
C1888 C1887 1.366 . S
H1889 C1882 0.929 . S
H1890 C1913 0.931 . S
H1891 C1914 0.931 . S
O1892 Eu1848 2.462 . S
O1892 C1912 1.252 . S
O1893 Eu1848 2.373 . S
O1893 C1904 1.249 1_556 S
O1894 Eu1859 2.335 . S
O1894 C1904 1.264 . S
O1895 Eu1848 2.432 . S
O1895 C1912 1.268 . S
O1896 Eu1848 2.291 . S
O1896 C1911 1.255 . S
O1897 Eu1859 2.372 . S
O1897 C1911 1.257 1_554 S
O1898 Eu1859 2.462 . S
O1898 C1923 1.252 . S
O1899 Eu1859 2.373 . S
O1899 C1915 1.249 1_554 S
O1900 Eu1848 2.335 . S
O1900 C1915 1.264 . S
O1901 Eu1859 2.432 . S
O1901 C1923 1.268 . S
O1902 Eu1859 2.291 . S
O1902 C1922 1.255 . S
O1903 Eu1848 2.372 . S
O1903 C1922 1.257 1_556 S
C1904 O1893 1.249 1_554 S
C1904 O1894 1.264 . S
C1905 C1908 1.382 . S
C1905 C1910 1.390 . S
C1905 C1912 1.506 . S
C1906 C1907 1.398 . S
C1906 C1910 1.392 . S
C1907 C1906 1.398 . S
C1907 C1909 1.372 . S
C1907 H1924 0.931 . S
C1908 C1905 1.382 . S
C1908 C1909 1.390 . S
C1908 H1925 0.931 . S
C1909 C1907 1.372 . S
C1909 C1908 1.390 . S
C1909 H1926 0.929 . S
C1910 C1905 1.390 . S
C1910 C1906 1.392 . S
C1910 H1927 0.930 . S
C1911 O1896 1.255 . S
C1911 O1897 1.257 1_556 S
C1912 Eu1848 2.787 . S
C1912 O1892 1.252 . S
C1912 O1895 1.268 . S
C1912 C1905 1.506 . S
C1913 C1880 1.439 . S
C1913 H1890 0.931 . S
C1913 C1914 1.374 . S
C1914 C1885 1.387 . S
C1914 H1891 0.931 . S
C1914 C1913 1.374 . S
C1915 O1899 1.249 1_556 S
C1915 O1900 1.264 . S
C1916 C1919 1.382 . S
C1916 C1920 1.390 . S
C1916 C1923 1.506 . S
C1917 C1918 1.398 . S
C1917 C1920 1.392 . S
C1918 C1917 1.398 . S
C1918 C1921 1.372 . S
C1918 H1928 0.931 . S
C1919 C1916 1.382 . S
C1919 C1921 1.390 . S
C1919 H1929 0.931 . S
C1920 C1916 1.390 . S
C1920 C1917 1.392 . S
C1920 H1930 0.930 . S
C1921 C1918 1.372 . S
C1921 C1919 1.390 . S
C1921 H1931 0.929 . S
C1922 O1902 1.255 . S
C1922 O1903 1.257 1_554 S
C1923 Eu1859 2.787 . S
C1923 O1898 1.252 . S
C1923 O1901 1.268 . S
C1923 C1916 1.506 . S
H1924 C1907 0.931 . S
H1925 C1908 0.931 . S
H1926 C1909 0.929 . S
H1927 C1910 0.930 . S
H1928 C1918 0.931 . S
H1929 C1919 0.931 . S
H1930 C1920 0.930 . S
H1931 C1921 0.929 . S
Eu1932 N1961 2.600 . S
Eu1932 N1967 2.562 . S
Eu1932 O1976 2.462 . S
Eu1932 O1977 2.373 . S
Eu1932 O1979 2.432 . S
Eu1932 O1980 2.291 . S
Eu1932 O1984 2.335 . S
Eu1932 O1987 2.372 . S
Eu1932 C1996 2.787 . S
C1933 N1934 1.365 . S
C1933 C1936 1.405 . S
C1933 C1940 1.448 . S
N1934 C1933 1.365 . S
N1934 C1937 1.319 . S
N1934 Eu1943 2.600 . S
C1935 C1937 1.397 . S
C1935 C1938 1.367 . S
C1935 H1955 0.931 . S
C1936 C1933 1.405 . S
C1936 C1938 1.403 . S
C1936 C1942 1.439 . S
C1937 N1934 1.319 . S
C1937 C1935 1.397 . S
C1937 H1948 0.930 . S
C1938 C1935 1.367 . S
C1938 C1936 1.403 . S
C1938 H1959 0.929 . S
C1939 C1940 1.430 . S
C1939 C1941 1.387 . S
C1939 C1945 1.404 . S
C1940 C1933 1.448 . S
C1940 C1939 1.430 . S
C1940 N1944 1.351 . S
C1941 C1939 1.387 . S
C1941 C1942 1.374 . S
C1941 H1956 0.931 . S
C1942 C1936 1.439 . S
C1942 C1941 1.374 . S
C1942 H1957 0.931 . S
Eu1943 N1934 2.600 . S
Eu1943 N1944 2.562 . S
Eu1943 O1978 2.335 . S
Eu1943 O1981 2.372 . S
Eu1943 O1982 2.462 . S
Eu1943 O1983 2.373 . S
Eu1943 O1985 2.432 . S
Eu1943 O1986 2.291 . S
Eu1943 C2007 2.787 . S
N1944 C1940 1.351 . S
N1944 Eu1943 2.562 . S
N1944 C1946 1.325 . S
C1945 C1939 1.404 . S
C1945 C1947 1.366 . S
C1945 H1953 0.930 . S
C1946 N1944 1.325 . S
C1946 C1947 1.416 . S
C1946 H1952 0.929 . S
C1947 C1945 1.366 . S
C1947 C1946 1.416 . S
C1947 H1949 0.930 . S
H1948 C1937 0.930 . S
H1949 C1947 0.930 . S
H1950 C1965 0.930 . S
H1951 C1972 0.930 . S
H1952 C1946 0.929 . S
H1953 C1945 0.930 . S
H1954 C1968 0.929 . S
H1955 C1935 0.931 . S
H1956 C1941 0.931 . S
H1957 C1942 0.931 . S
H1958 C1963 0.931 . S
H1959 C1938 0.929 . S
H1960 C1971 0.930 . S
N1961 Eu1932 2.600 . S
N1961 C1962 1.365 . S
N1961 C1965 1.319 . S
C1962 N1961 1.365 . S
C1962 C1964 1.405 . S
C1962 C1970 1.448 . S
C1963 H1958 0.931 . S
C1963 C1965 1.397 . S
C1963 C1966 1.367 . S
C1964 C1962 1.405 . S
C1964 C1966 1.403 . S
C1964 C1997 1.439 . S
C1965 H1950 0.930 . S
C1965 N1961 1.319 . S
C1965 C1963 1.397 . S
C1966 C1963 1.367 . S
C1966 C1964 1.403 . S
C1966 H1973 0.929 . S
N1967 Eu1932 2.562 . S
N1967 C1968 1.325 . S
N1967 C1970 1.351 . S
C1968 H1954 0.929 . S
C1968 N1967 1.325 . S
C1968 C1972 1.416 . S
C1969 C1970 1.430 . S
C1969 C1971 1.404 . S
C1969 C1998 1.387 . S
C1970 C1962 1.448 . S
C1970 N1967 1.351 . S
C1970 C1969 1.430 . S
C1971 H1960 0.930 . S
C1971 C1969 1.404 . S
C1971 C1972 1.366 . S
C1972 H1951 0.930 . S
C1972 C1968 1.416 . S
C1972 C1971 1.366 . S
H1973 C1966 0.929 . S
H1974 C1997 0.931 . S
H1975 C1998 0.931 . S
O1976 Eu1932 2.462 . S
O1976 C1996 1.252 . S
O1977 Eu1932 2.373 . S
O1977 C1988 1.249 1_556 S
O1978 Eu1943 2.335 . S
O1978 C1988 1.264 . S
O1979 Eu1932 2.432 . S
O1979 C1996 1.268 . S
O1980 Eu1932 2.291 . S
O1980 C1995 1.255 . S
O1981 Eu1943 2.372 . S
O1981 C1995 1.257 1_554 S
O1982 Eu1943 2.462 . S
O1982 C2007 1.252 . S
O1983 Eu1943 2.373 . S
O1983 C1999 1.249 1_554 S
O1984 Eu1932 2.335 . S
O1984 C1999 1.264 . S
O1985 Eu1943 2.432 . S
O1985 C2007 1.268 . S
O1986 Eu1943 2.291 . S
O1986 C2006 1.255 . S
O1987 Eu1932 2.372 . S
O1987 C2006 1.257 1_556 S
C1988 O1977 1.249 1_554 S
C1988 O1978 1.264 . S
C1989 C1992 1.382 . S
C1989 C1994 1.390 . S
C1989 C1996 1.506 . S
C1990 C1991 1.398 . S
C1990 C1994 1.392 . S
C1991 C1990 1.398 . S
C1991 C1993 1.372 . S
C1991 H2008 0.931 . S
C1992 C1989 1.382 . S
C1992 C1993 1.390 . S
C1992 H2009 0.931 . S
C1993 C1991 1.372 . S
C1993 C1992 1.390 . S
C1993 H2010 0.929 . S
C1994 C1989 1.390 . S
C1994 C1990 1.392 . S
C1994 H2011 0.930 . S
C1995 O1980 1.255 . S
C1995 O1981 1.257 1_556 S
C1996 Eu1932 2.787 . S
C1996 O1976 1.252 . S
C1996 O1979 1.268 . S
C1996 C1989 1.506 . S
C1997 C1964 1.439 . S
C1997 H1974 0.931 . S
C1997 C1998 1.374 . S
C1998 C1969 1.387 . S
C1998 H1975 0.931 . S
C1998 C1997 1.374 . S
C1999 O1983 1.249 1_556 S
C1999 O1984 1.264 . S
C2000 C2003 1.382 . S
C2000 C2004 1.390 . S
C2000 C2007 1.506 . S
C2001 C2002 1.398 . S
C2001 C2004 1.392 . S
C2002 C2001 1.398 . S
C2002 C2005 1.372 . S
C2002 H2012 0.931 . S
C2003 C2000 1.382 . S
C2003 C2005 1.390 . S
C2003 H2013 0.931 . S
C2004 C2000 1.390 . S
C2004 C2001 1.392 . S
C2004 H2014 0.930 . S
C2005 C2002 1.372 . S
C2005 C2003 1.390 . S
C2005 H2015 0.929 . S
C2006 O1986 1.255 . S
C2006 O1987 1.257 1_554 S
C2007 Eu1943 2.787 . S
C2007 O1982 1.252 . S
C2007 O1985 1.268 . S
C2007 C2000 1.506 . S
H2008 C1991 0.931 . S
H2009 C1992 0.931 . S
H2010 C1993 0.929 . S
H2011 C1994 0.930 . S
H2012 C2002 0.931 . S
H2013 C2003 0.931 . S
H2014 C2004 0.930 . S
H2015 C2005 0.929 . S
Eu2016 N2045 2.600 1_565 S
Eu2016 N2051 2.562 . S
Eu2016 O2060 2.462 . S
Eu2016 O2061 2.373 . S
Eu2016 O2063 2.432 . S
Eu2016 O2064 2.291 . S
Eu2016 O2068 2.335 . S
Eu2016 O2071 2.372 . S
Eu2016 C2080 2.787 . S
C2017 N2018 1.365 . S
C2017 C2020 1.405 . S
C2017 C2024 1.448 . S
N2018 C2017 1.365 . S
N2018 C2021 1.319 . S
N2018 Eu2027 2.600 . S
C2019 C2021 1.397 . S
C2019 C2022 1.367 . S
C2019 H2039 0.931 . S
C2020 C2017 1.405 . S
C2020 C2022 1.403 . S
C2020 C2026 1.439 . S
C2021 N2018 1.319 . S
C2021 C2019 1.397 . S
C2021 H2032 0.930 . S
C2022 C2019 1.367 . S
C2022 C2020 1.403 . S
C2022 H2043 0.929 . S
C2023 C2024 1.430 . S
C2023 C2025 1.387 . S
C2023 C2029 1.404 . S
C2024 C2017 1.448 . S
C2024 C2023 1.430 . S
C2024 N2028 1.351 . S
C2025 C2023 1.387 . S
C2025 C2026 1.374 . S
C2025 H2040 0.931 . S
C2026 C2020 1.439 . S
C2026 C2025 1.374 . S
C2026 H2041 0.931 . S
Eu2027 N2018 2.600 . S
Eu2027 N2028 2.562 . S
Eu2027 O2062 2.335 . S
Eu2027 O2065 2.372 . S
Eu2027 O2066 2.462 . S
Eu2027 O2067 2.373 . S
Eu2027 O2069 2.432 . S
Eu2027 O2070 2.291 . S
Eu2027 C2091 2.787 . S
N2028 C2024 1.351 . S
N2028 Eu2027 2.562 . S
N2028 C2030 1.325 . S
C2029 C2023 1.404 . S
C2029 C2031 1.366 . S
C2029 H2037 0.930 . S
C2030 N2028 1.325 . S
C2030 C2031 1.416 . S
C2030 H2036 0.929 . S
C2031 C2029 1.366 . S
C2031 C2030 1.416 . S
C2031 H2033 0.930 . S
H2032 C2021 0.930 . S
H2033 C2031 0.930 . S
H2034 C2049 0.930 . S
H2035 C2056 0.930 . S
H2036 C2030 0.929 . S
H2037 C2029 0.930 . S
H2038 C2052 0.929 . S
H2039 C2019 0.931 . S
H2040 C2025 0.931 . S
H2041 C2026 0.931 . S
H2042 C2047 0.931 . S
H2043 C2022 0.929 . S
H2044 C2055 0.930 1_545 S
N2045 Eu2016 2.600 1_545 S
N2045 C2046 1.365 . S
N2045 C2049 1.319 . S
C2046 N2045 1.365 . S
C2046 C2048 1.405 . S
C2046 C2054 1.448 . S
C2047 H2042 0.931 . S
C2047 C2049 1.397 . S
C2047 C2050 1.367 . S
C2048 C2046 1.405 . S
C2048 C2050 1.403 . S
C2048 C2081 1.439 . S
C2049 H2034 0.930 . S
C2049 N2045 1.319 . S
C2049 C2047 1.397 . S
C2050 C2047 1.367 . S
C2050 C2048 1.403 . S
C2050 H2057 0.929 . S
N2051 Eu2016 2.562 . S
N2051 C2052 1.325 . S
N2051 C2054 1.351 1_565 S
C2052 H2038 0.929 . S
C2052 N2051 1.325 . S
C2052 C2056 1.416 . S
C2053 C2054 1.430 . S
C2053 C2055 1.404 1_545 S
C2053 C2082 1.387 . S
C2054 C2046 1.448 . S
C2054 N2051 1.351 1_545 S
C2054 C2053 1.430 . S
C2055 H2044 0.930 1_565 S
C2055 C2053 1.404 1_565 S
C2055 C2056 1.366 . S
C2056 H2035 0.930 . S
C2056 C2052 1.416 . S
C2056 C2055 1.366 . S
H2057 C2050 0.929 . S
H2058 C2081 0.931 . S
H2059 C2082 0.931 . S
O2060 Eu2016 2.462 . S
O2060 C2080 1.252 . S
O2061 Eu2016 2.373 . S
O2061 C2072 1.249 . S
O2062 Eu2027 2.335 . S
O2062 C2072 1.264 . S
O2063 Eu2016 2.432 . S
O2063 C2080 1.268 . S
O2064 Eu2016 2.291 . S
O2064 C2079 1.255 . S
O2065 Eu2027 2.372 . S
O2065 C2079 1.257 . S
O2066 Eu2027 2.462 . S
O2066 C2091 1.252 . S
O2067 Eu2027 2.373 . S
O2067 C2083 1.249 . S
O2068 Eu2016 2.335 . S
O2068 C2083 1.264 . S
O2069 Eu2027 2.432 . S
O2069 C2091 1.268 . S
O2070 Eu2027 2.291 . S
O2070 C2090 1.255 . S
O2071 Eu2016 2.372 . S
O2071 C2090 1.257 . S
C2072 O2061 1.249 . S
C2072 O2062 1.264 . S
C2073 C2076 1.382 . S
C2073 C2078 1.390 . S
C2073 C2080 1.506 . S
C2074 C2075 1.398 . S
C2074 C2078 1.392 . S
C2075 C2074 1.398 . S
C2075 C2077 1.372 . S
C2075 H2092 0.931 . S
C2076 C2073 1.382 . S
C2076 C2077 1.390 . S
C2076 H2093 0.931 . S
C2077 C2075 1.372 . S
C2077 C2076 1.390 . S
C2077 H2094 0.929 . S
C2078 C2073 1.390 . S
C2078 C2074 1.392 . S
C2078 H2095 0.930 . S
C2079 O2064 1.255 . S
C2079 O2065 1.257 . S
C2080 Eu2016 2.787 . S
C2080 O2060 1.252 . S
C2080 O2063 1.268 . S
C2080 C2073 1.506 . S
C2081 C2048 1.439 . S
C2081 H2058 0.931 . S
C2081 C2082 1.374 . S
C2082 C2053 1.387 . S
C2082 H2059 0.931 . S
C2082 C2081 1.374 . S
C2083 O2067 1.249 . S
C2083 O2068 1.264 . S
C2084 C2087 1.382 . S
C2084 C2088 1.390 . S
C2084 C2091 1.506 . S
C2085 C2086 1.398 . S
C2085 C2088 1.392 . S
C2086 C2085 1.398 . S
C2086 C2089 1.372 . S
C2086 H2096 0.931 . S
C2087 C2084 1.382 . S
C2087 C2089 1.390 . S
C2087 H2097 0.931 . S
C2088 C2084 1.390 . S
C2088 C2085 1.392 . S
C2088 H2098 0.930 . S
C2089 C2086 1.372 . S
C2089 C2087 1.390 . S
C2089 H2099 0.929 . S
C2090 O2070 1.255 . S
C2090 O2071 1.257 . S
C2091 Eu2027 2.787 . S
C2091 O2066 1.252 . S
C2091 O2069 1.268 . S
C2091 C2084 1.506 . S
H2092 C2075 0.931 . S
H2093 C2076 0.931 . S
H2094 C2077 0.929 . S
H2095 C2078 0.930 . S
H2096 C2086 0.931 . S
H2097 C2087 0.931 . S
H2098 C2088 0.930 . S
H2099 C2089 0.929 . S
Eu2100 N2129 2.600 1_455 S
Eu2100 N2135 2.562 . S
Eu2100 O2144 2.462 . S
Eu2100 O2145 2.373 . S
Eu2100 O2147 2.432 . S
Eu2100 O2148 2.291 . S
Eu2100 O2152 2.335 . S
Eu2100 O2155 2.372 . S
Eu2100 C2164 2.787 . S
C2101 N2102 1.365 . S
C2101 C2104 1.405 . S
C2101 C2108 1.448 . S
N2102 C2101 1.365 . S
N2102 C2105 1.319 . S
N2102 Eu2111 2.600 . S
C2103 C2105 1.397 . S
C2103 C2106 1.367 . S
C2103 H2123 0.931 . S
C2104 C2101 1.405 . S
C2104 C2106 1.403 . S
C2104 C2110 1.439 . S
C2105 N2102 1.319 . S
C2105 C2103 1.397 . S
C2105 H2116 0.930 . S
C2106 C2103 1.367 . S
C2106 C2104 1.403 . S
C2106 H2127 0.929 . S
C2107 C2108 1.430 . S
C2107 C2109 1.387 . S
C2107 C2113 1.404 . S
C2108 C2101 1.448 . S
C2108 C2107 1.430 . S
C2108 N2112 1.351 . S
C2109 C2107 1.387 . S
C2109 C2110 1.374 . S
C2109 H2124 0.931 . S
C2110 C2104 1.439 . S
C2110 C2109 1.374 . S
C2110 H2125 0.931 . S
Eu2111 N2102 2.600 . S
Eu2111 N2112 2.562 . S
Eu2111 O2146 2.335 . S
Eu2111 O2149 2.372 . S
Eu2111 O2150 2.462 . S
Eu2111 O2151 2.373 . S
Eu2111 O2153 2.432 . S
Eu2111 O2154 2.291 . S
Eu2111 C2175 2.787 . S
N2112 C2108 1.351 . S
N2112 Eu2111 2.562 . S
N2112 C2114 1.325 . S
C2113 C2107 1.404 . S
C2113 C2115 1.366 . S
C2113 H2121 0.930 . S
C2114 N2112 1.325 . S
C2114 C2115 1.416 . S
C2114 H2120 0.929 . S
C2115 C2113 1.366 . S
C2115 C2114 1.416 . S
C2115 H2117 0.930 . S
H2116 C2105 0.930 . S
H2117 C2115 0.930 . S
H2118 C2133 0.930 . S
H2119 C2140 0.930 . S
H2120 C2114 0.929 . S
H2121 C2113 0.930 . S
H2122 C2136 0.929 . S
H2123 C2103 0.931 . S
H2124 C2109 0.931 . S
H2125 C2110 0.931 . S
H2126 C2131 0.931 . S
H2127 C2106 0.929 . S
H2128 C2139 0.930 1_655 S
N2129 Eu2100 2.600 1_655 S
N2129 C2130 1.365 . S
N2129 C2133 1.319 . S
C2130 N2129 1.365 . S
C2130 C2132 1.405 . S
C2130 C2138 1.448 . S
C2131 H2126 0.931 . S
C2131 C2133 1.397 . S
C2131 C2134 1.367 . S
C2132 C2130 1.405 . S
C2132 C2134 1.403 . S
C2132 C2165 1.439 . S
C2133 H2118 0.930 . S
C2133 N2129 1.319 . S
C2133 C2131 1.397 . S
C2134 C2131 1.367 . S
C2134 C2132 1.403 . S
C2134 H2141 0.929 . S
N2135 Eu2100 2.562 . S
N2135 C2136 1.325 . S
N2135 C2138 1.351 1_455 S
C2136 H2122 0.929 . S
C2136 N2135 1.325 . S
C2136 C2140 1.416 . S
C2137 C2138 1.430 . S
C2137 C2139 1.404 1_655 S
C2137 C2166 1.387 . S
C2138 C2130 1.448 . S
C2138 N2135 1.351 1_655 S
C2138 C2137 1.430 . S
C2139 H2128 0.930 1_455 S
C2139 C2137 1.404 1_455 S
C2139 C2140 1.366 . S
C2140 H2119 0.930 . S
C2140 C2136 1.416 . S
C2140 C2139 1.366 . S
H2141 C2134 0.929 . S
H2142 C2165 0.931 . S
H2143 C2166 0.931 . S
O2144 Eu2100 2.462 . S
O2144 C2164 1.252 . S
O2145 Eu2100 2.373 . S
O2145 C2156 1.249 . S
O2146 Eu2111 2.335 . S
O2146 C2156 1.264 . S
O2147 Eu2100 2.432 . S
O2147 C2164 1.268 . S
O2148 Eu2100 2.291 . S
O2148 C2163 1.255 . S
O2149 Eu2111 2.372 . S
O2149 C2163 1.257 . S
O2150 Eu2111 2.462 . S
O2150 C2175 1.252 . S
O2151 Eu2111 2.373 . S
O2151 C2167 1.249 . S
O2152 Eu2100 2.335 . S
O2152 C2167 1.264 . S
O2153 Eu2111 2.432 . S
O2153 C2175 1.268 . S
O2154 Eu2111 2.291 . S
O2154 C2174 1.255 . S
O2155 Eu2100 2.372 . S
O2155 C2174 1.257 . S
C2156 O2145 1.249 . S
C2156 O2146 1.264 . S
C2157 C2160 1.382 . S
C2157 C2162 1.390 . S
C2157 C2164 1.506 . S
C2158 C2159 1.398 . S
C2158 C2162 1.392 . S
C2159 C2158 1.398 . S
C2159 C2161 1.372 . S
C2159 H2176 0.931 . S
C2160 C2157 1.382 . S
C2160 C2161 1.390 . S
C2160 H2177 0.931 . S
C2161 C2159 1.372 . S
C2161 C2160 1.390 . S
C2161 H2178 0.929 . S
C2162 C2157 1.390 . S
C2162 C2158 1.392 . S
C2162 H2179 0.930 . S
C2163 O2148 1.255 . S
C2163 O2149 1.257 . S
C2164 Eu2100 2.787 . S
C2164 O2144 1.252 . S
C2164 O2147 1.268 . S
C2164 C2157 1.506 . S
C2165 C2132 1.439 . S
C2165 H2142 0.931 . S
C2165 C2166 1.374 . S
C2166 C2137 1.387 . S
C2166 H2143 0.931 . S
C2166 C2165 1.374 . S
C2167 O2151 1.249 . S
C2167 O2152 1.264 . S
C2168 C2171 1.382 . S
C2168 C2172 1.390 . S
C2168 C2175 1.506 . S
C2169 C2170 1.398 . S
C2169 C2172 1.392 . S
C2170 C2169 1.398 . S
C2170 C2173 1.372 . S
C2170 H2180 0.931 . S
C2171 C2168 1.382 . S
C2171 C2173 1.390 . S
C2171 H2181 0.931 . S
C2172 C2168 1.390 . S
C2172 C2169 1.392 . S
C2172 H2182 0.930 . S
C2173 C2170 1.372 . S
C2173 C2171 1.390 . S
C2173 H2183 0.929 . S
C2174 O2154 1.255 . S
C2174 O2155 1.257 . S
C2175 Eu2111 2.787 . S
C2175 O2150 1.252 . S
C2175 O2153 1.268 . S
C2175 C2168 1.506 . S
H2176 C2159 0.931 . S
H2177 C2160 0.931 . S
H2178 C2161 0.929 . S
H2179 C2162 0.930 . S
H2180 C2170 0.931 . S
H2181 C2171 0.931 . S
H2182 C2172 0.930 . S
H2183 C2173 0.929 . S
Eu2184 N2213 2.600 . S
Eu2184 N2219 2.562 . S
Eu2184 O2228 2.462 . S
Eu2184 O2229 2.373 . S
Eu2184 O2231 2.432 . S
Eu2184 O2232 2.291 . S
Eu2184 O2236 2.335 . S
Eu2184 O2239 2.372 . S
Eu2184 C2248 2.787 . S
C2185 N2186 1.365 . S
C2185 C2188 1.405 . S
C2185 C2192 1.448 . S
N2186 C2185 1.365 . S
N2186 C2189 1.319 . S
N2186 Eu2195 2.600 . S
C2187 C2189 1.397 . S
C2187 C2190 1.367 . S
C2187 H2207 0.931 . S
C2188 C2185 1.405 . S
C2188 C2190 1.403 . S
C2188 C2194 1.439 . S
C2189 N2186 1.319 . S
C2189 C2187 1.397 . S
C2189 H2200 0.930 . S
C2190 C2187 1.367 . S
C2190 C2188 1.403 . S
C2190 H2211 0.929 . S
C2191 C2192 1.430 . S
C2191 C2193 1.387 . S
C2191 C2197 1.404 . S
C2192 C2185 1.448 . S
C2192 C2191 1.430 . S
C2192 N2196 1.351 . S
C2193 C2191 1.387 . S
C2193 C2194 1.374 . S
C2193 H2208 0.931 . S
C2194 C2188 1.439 . S
C2194 C2193 1.374 . S
C2194 H2209 0.931 . S
Eu2195 N2186 2.600 . S
Eu2195 N2196 2.562 . S
Eu2195 O2230 2.335 . S
Eu2195 O2233 2.372 . S
Eu2195 O2234 2.462 . S
Eu2195 O2235 2.373 . S
Eu2195 O2237 2.432 . S
Eu2195 O2238 2.291 . S
Eu2195 C2259 2.787 . S
N2196 C2192 1.351 . S
N2196 Eu2195 2.562 . S
N2196 C2198 1.325 . S
C2197 C2191 1.404 . S
C2197 C2199 1.366 . S
C2197 H2205 0.930 . S
C2198 N2196 1.325 . S
C2198 C2199 1.416 . S
C2198 H2204 0.929 . S
C2199 C2197 1.366 . S
C2199 C2198 1.416 . S
C2199 H2201 0.930 . S
H2200 C2189 0.930 . S
H2201 C2199 0.930 . S
H2202 C2217 0.930 . S
H2203 C2224 0.930 . S
H2204 C2198 0.929 . S
H2205 C2197 0.930 . S
H2206 C2220 0.929 . S
H2207 C2187 0.931 . S
H2208 C2193 0.931 . S
H2209 C2194 0.931 . S
H2210 C2215 0.931 . S
H2211 C2190 0.929 . S
H2212 C2223 0.930 . S
N2213 Eu2184 2.600 . S
N2213 C2214 1.365 . S
N2213 C2217 1.319 . S
C2214 N2213 1.365 . S
C2214 C2216 1.405 . S
C2214 C2222 1.448 . S
C2215 H2210 0.931 . S
C2215 C2217 1.397 . S
C2215 C2218 1.367 . S
C2216 C2214 1.405 . S
C2216 C2218 1.403 . S
C2216 C2249 1.439 . S
C2217 H2202 0.930 . S
C2217 N2213 1.319 . S
C2217 C2215 1.397 . S
C2218 C2215 1.367 . S
C2218 C2216 1.403 . S
C2218 H2225 0.929 . S
N2219 Eu2184 2.562 . S
N2219 C2220 1.325 . S
N2219 C2222 1.351 . S
C2220 H2206 0.929 . S
C2220 N2219 1.325 . S
C2220 C2224 1.416 . S
C2221 C2222 1.430 . S
C2221 C2223 1.404 . S
C2221 C2250 1.387 . S
C2222 C2214 1.448 . S
C2222 N2219 1.351 . S
C2222 C2221 1.430 . S
C2223 H2212 0.930 . S
C2223 C2221 1.404 . S
C2223 C2224 1.366 . S
C2224 H2203 0.930 . S
C2224 C2220 1.416 . S
C2224 C2223 1.366 . S
H2225 C2218 0.929 . S
H2226 C2249 0.931 . S
H2227 C2250 0.931 . S
O2228 Eu2184 2.462 . S
O2228 C2248 1.252 . S
O2229 Eu2184 2.373 . S
O2229 C2240 1.249 . S
O2230 Eu2195 2.335 . S
O2230 C2240 1.264 . S
O2231 Eu2184 2.432 . S
O2231 C2248 1.268 . S
O2232 Eu2184 2.291 . S
O2232 C2247 1.255 . S
O2233 Eu2195 2.372 . S
O2233 C2247 1.257 . S
O2234 Eu2195 2.462 . S
O2234 C2259 1.252 . S
O2235 Eu2195 2.373 . S
O2235 C2251 1.249 . S
O2236 Eu2184 2.335 . S
O2236 C2251 1.264 . S
O2237 Eu2195 2.432 . S
O2237 C2259 1.268 . S
O2238 Eu2195 2.291 . S
O2238 C2258 1.255 . S
O2239 Eu2184 2.372 . S
O2239 C2258 1.257 . S
C2240 O2229 1.249 . S
C2240 O2230 1.264 . S
C2241 C2244 1.382 . S
C2241 C2246 1.390 . S
C2241 C2248 1.506 . S
C2242 C2243 1.398 . S
C2242 C2246 1.392 . S
C2243 C2242 1.398 . S
C2243 C2245 1.372 . S
C2243 H2260 0.931 . S
C2244 C2241 1.382 . S
C2244 C2245 1.390 . S
C2244 H2261 0.931 . S
C2245 C2243 1.372 . S
C2245 C2244 1.390 . S
C2245 H2262 0.929 . S
C2246 C2241 1.390 . S
C2246 C2242 1.392 . S
C2246 H2263 0.930 . S
C2247 O2232 1.255 . S
C2247 O2233 1.257 . S
C2248 Eu2184 2.787 . S
C2248 O2228 1.252 . S
C2248 O2231 1.268 . S
C2248 C2241 1.506 . S
C2249 C2216 1.439 . S
C2249 H2226 0.931 . S
C2249 C2250 1.374 . S
C2250 C2221 1.387 . S
C2250 H2227 0.931 . S
C2250 C2249 1.374 . S
C2251 O2235 1.249 . S
C2251 O2236 1.264 . S
C2252 C2255 1.382 . S
C2252 C2256 1.390 . S
C2252 C2259 1.506 . S
C2253 C2254 1.398 . S
C2253 C2256 1.392 . S
C2254 C2253 1.398 . S
C2254 C2257 1.372 . S
C2254 H2264 0.931 . S
C2255 C2252 1.382 . S
C2255 C2257 1.390 . S
C2255 H2265 0.931 . S
C2256 C2252 1.390 . S
C2256 C2253 1.392 . S
C2256 H2266 0.930 . S
C2257 C2254 1.372 . S
C2257 C2255 1.390 . S
C2257 H2267 0.929 . S
C2258 O2238 1.255 . S
C2258 O2239 1.257 . S
C2259 Eu2195 2.787 . S
C2259 O2234 1.252 . S
C2259 O2237 1.268 . S
C2259 C2252 1.506 . S
H2260 C2243 0.931 . S
H2261 C2244 0.931 . S
H2262 C2245 0.929 . S
H2263 C2246 0.930 . S
H2264 C2254 0.931 . S
H2265 C2255 0.931 . S
H2266 C2256 0.930 . S
H2267 C2257 0.929 . S
Eu2268 N2297 2.600 . S
Eu2268 N2303 2.562 . S
Eu2268 O2312 2.462 . S
Eu2268 O2313 2.373 . S
Eu2268 O2315 2.432 . S
Eu2268 O2316 2.291 . S
Eu2268 O2320 2.335 . S
Eu2268 O2323 2.372 . S
Eu2268 C2332 2.787 . S
C2269 N2270 1.365 . S
C2269 C2272 1.405 . S
C2269 C2276 1.448 . S
N2270 C2269 1.365 . S
N2270 C2273 1.319 . S
N2270 Eu2279 2.600 . S
C2271 C2273 1.397 . S
C2271 C2274 1.367 . S
C2271 H2291 0.931 . S
C2272 C2269 1.405 . S
C2272 C2274 1.403 . S
C2272 C2278 1.439 . S
C2273 N2270 1.319 . S
C2273 C2271 1.397 . S
C2273 H2284 0.930 . S
C2274 C2271 1.367 . S
C2274 C2272 1.403 . S
C2274 H2295 0.929 . S
C2275 C2276 1.430 . S
C2275 C2277 1.387 . S
C2275 C2281 1.404 . S
C2276 C2269 1.448 . S
C2276 C2275 1.430 . S
C2276 N2280 1.351 . S
C2277 C2275 1.387 . S
C2277 C2278 1.374 . S
C2277 H2292 0.931 . S
C2278 C2272 1.439 . S
C2278 C2277 1.374 . S
C2278 H2293 0.931 . S
Eu2279 N2270 2.600 . S
Eu2279 N2280 2.562 . S
Eu2279 O2314 2.335 . S
Eu2279 O2317 2.372 . S
Eu2279 O2318 2.462 . S
Eu2279 O2319 2.373 . S
Eu2279 O2321 2.432 . S
Eu2279 O2322 2.291 . S
Eu2279 C2343 2.787 . S
N2280 C2276 1.351 . S
N2280 Eu2279 2.562 . S
N2280 C2282 1.325 . S
C2281 C2275 1.404 . S
C2281 C2283 1.366 . S
C2281 H2289 0.930 . S
C2282 N2280 1.325 . S
C2282 C2283 1.416 . S
C2282 H2288 0.929 . S
C2283 C2281 1.366 . S
C2283 C2282 1.416 . S
C2283 H2285 0.930 . S
H2284 C2273 0.930 . S
H2285 C2283 0.930 . S
H2286 C2301 0.930 . S
H2287 C2308 0.930 . S
H2288 C2282 0.929 . S
H2289 C2281 0.930 . S
H2290 C2304 0.929 . S
H2291 C2271 0.931 . S
H2292 C2277 0.931 . S
H2293 C2278 0.931 . S
H2294 C2299 0.931 . S
H2295 C2274 0.929 . S
H2296 C2307 0.930 1_545 S
N2297 Eu2268 2.600 . S
N2297 C2298 1.365 . S
N2297 C2301 1.319 . S
C2298 N2297 1.365 . S
C2298 C2300 1.405 . S
C2298 C2306 1.448 . S
C2299 H2294 0.931 . S
C2299 C2301 1.397 . S
C2299 C2302 1.367 . S
C2300 C2298 1.405 . S
C2300 C2302 1.403 . S
C2300 C2333 1.439 . S
C2301 H2286 0.930 . S
C2301 N2297 1.319 . S
C2301 C2299 1.397 . S
C2302 C2299 1.367 . S
C2302 C2300 1.403 . S
C2302 H2309 0.929 . S
N2303 Eu2268 2.562 . S
N2303 C2304 1.325 . S
N2303 C2306 1.351 . S
C2304 H2290 0.929 . S
C2304 N2303 1.325 . S
C2304 C2308 1.416 . S
C2305 C2306 1.430 . S
C2305 C2307 1.404 . S
C2305 C2334 1.387 . S
C2306 C2298 1.448 . S
C2306 N2303 1.351 . S
C2306 C2305 1.430 . S
C2307 H2296 0.930 1_565 S
C2307 C2305 1.404 . S
C2307 C2308 1.366 . S
C2308 H2287 0.930 . S
C2308 C2304 1.416 . S
C2308 C2307 1.366 . S
H2309 C2302 0.929 . S
H2310 C2333 0.931 . S
H2311 C2334 0.931 1_545 S
O2312 Eu2268 2.462 . S
O2312 C2332 1.252 . S
O2313 Eu2268 2.373 . S
O2313 C2324 1.249 1_556 S
O2314 Eu2279 2.335 . S
O2314 C2324 1.264 . S
O2315 Eu2268 2.432 . S
O2315 C2332 1.268 . S
O2316 Eu2268 2.291 . S
O2316 C2331 1.255 . S
O2317 Eu2279 2.372 . S
O2317 C2331 1.257 1_554 S
O2318 Eu2279 2.462 . S
O2318 C2343 1.252 . S
O2319 Eu2279 2.373 . S
O2319 C2335 1.249 1_554 S
O2320 Eu2268 2.335 . S
O2320 C2335 1.264 . S
O2321 Eu2279 2.432 . S
O2321 C2343 1.268 . S
O2322 Eu2279 2.291 . S
O2322 C2342 1.255 . S
O2323 Eu2268 2.372 . S
O2323 C2342 1.257 1_556 S
C2324 O2313 1.249 1_554 S
C2324 O2314 1.264 . S
C2325 C2328 1.382 . S
C2325 C2330 1.390 . S
C2325 C2332 1.506 . S
C2326 C2327 1.398 . S
C2326 C2330 1.392 . S
C2327 C2326 1.398 . S
C2327 C2329 1.372 . S
C2327 H2344 0.931 . S
C2328 C2325 1.382 . S
C2328 C2329 1.390 . S
C2328 H2345 0.931 . S
C2329 C2327 1.372 . S
C2329 C2328 1.390 . S
C2329 H2346 0.929 . S
C2330 C2325 1.390 . S
C2330 C2326 1.392 . S
C2330 H2347 0.930 . S
C2331 O2316 1.255 . S
C2331 O2317 1.257 1_556 S
C2332 Eu2268 2.787 . S
C2332 O2312 1.252 . S
C2332 O2315 1.268 . S
C2332 C2325 1.506 . S
C2333 C2300 1.439 . S
C2333 H2310 0.931 . S
C2333 C2334 1.374 . S
C2334 C2305 1.387 . S
C2334 H2311 0.931 1_565 S
C2334 C2333 1.374 . S
C2335 O2319 1.249 1_556 S
C2335 O2320 1.264 . S
C2336 C2339 1.382 . S
C2336 C2340 1.390 . S
C2336 C2343 1.506 . S
C2337 C2338 1.398 . S
C2337 C2340 1.392 . S
C2338 C2337 1.398 . S
C2338 C2341 1.372 . S
C2338 H2348 0.931 . S
C2339 C2336 1.382 . S
C2339 C2341 1.390 . S
C2339 H2349 0.931 . S
C2340 C2336 1.390 . S
C2340 C2337 1.392 . S
C2340 H2350 0.930 . S
C2341 C2338 1.372 . S
C2341 C2339 1.390 . S
C2341 H2351 0.929 . S
C2342 O2322 1.255 . S
C2342 O2323 1.257 1_554 S
C2343 Eu2279 2.787 . S
C2343 O2318 1.252 . S
C2343 O2321 1.268 . S
C2343 C2336 1.506 . S
H2344 C2327 0.931 . S
H2345 C2328 0.931 . S
H2346 C2329 0.929 . S
H2347 C2330 0.930 . S
H2348 C2338 0.931 . S
H2349 C2339 0.931 . S
H2350 C2340 0.930 . S
H2351 C2341 0.929 . S
Eu2352 N2381 2.600 . S
Eu2352 N2387 2.562 . S
Eu2352 O2396 2.462 . S
Eu2352 O2397 2.373 . S
Eu2352 O2399 2.432 . S
Eu2352 O2400 2.291 . S
Eu2352 O2404 2.335 . S
Eu2352 O2407 2.372 . S
Eu2352 C2416 2.787 . S
C2353 N2354 1.365 . S
C2353 C2356 1.405 . S
C2353 C2360 1.448 . S
N2354 C2353 1.365 . S
N2354 C2357 1.319 . S
N2354 Eu2363 2.600 . S
C2355 C2357 1.397 . S
C2355 C2358 1.367 . S
C2355 H2375 0.931 . S
C2356 C2353 1.405 . S
C2356 C2358 1.403 . S
C2356 C2362 1.439 . S
C2357 N2354 1.319 . S
C2357 C2355 1.397 . S
C2357 H2368 0.930 . S
C2358 C2355 1.367 . S
C2358 C2356 1.403 . S
C2358 H2379 0.929 . S
C2359 C2360 1.430 . S
C2359 C2361 1.387 . S
C2359 C2365 1.404 . S
C2360 C2353 1.448 . S
C2360 C2359 1.430 . S
C2360 N2364 1.351 . S
C2361 C2359 1.387 . S
C2361 C2362 1.374 . S
C2361 H2376 0.931 . S
C2362 C2356 1.439 . S
C2362 C2361 1.374 . S
C2362 H2377 0.931 . S
Eu2363 N2354 2.600 . S
Eu2363 N2364 2.562 . S
Eu2363 O2398 2.335 . S
Eu2363 O2401 2.372 . S
Eu2363 O2402 2.462 . S
Eu2363 O2403 2.373 . S
Eu2363 O2405 2.432 . S
Eu2363 O2406 2.291 . S
Eu2363 C2427 2.787 . S
N2364 C2360 1.351 . S
N2364 Eu2363 2.562 . S
N2364 C2366 1.325 . S
C2365 C2359 1.404 . S
C2365 C2367 1.366 . S
C2365 H2373 0.930 . S
C2366 N2364 1.325 . S
C2366 C2367 1.416 . S
C2366 H2372 0.929 . S
C2367 C2365 1.366 . S
C2367 C2366 1.416 . S
C2367 H2369 0.930 . S
H2368 C2357 0.930 . S
H2369 C2367 0.930 . S
H2370 C2385 0.930 . S
H2371 C2392 0.930 . S
H2372 C2366 0.929 . S
H2373 C2365 0.930 . S
H2374 C2388 0.929 . S
H2375 C2355 0.931 . S
H2376 C2361 0.931 . S
H2377 C2362 0.931 . S
H2378 C2383 0.931 . S
H2379 C2358 0.929 . S
H2380 C2391 0.930 1_655 S
N2381 Eu2352 2.600 . S
N2381 C2382 1.365 . S
N2381 C2385 1.319 . S
C2382 N2381 1.365 . S
C2382 C2384 1.405 . S
C2382 C2390 1.448 . S
C2383 H2378 0.931 . S
C2383 C2385 1.397 . S
C2383 C2386 1.367 . S
C2384 C2382 1.405 . S
C2384 C2386 1.403 . S
C2384 C2417 1.439 . S
C2385 H2370 0.930 . S
C2385 N2381 1.319 . S
C2385 C2383 1.397 . S
C2386 C2383 1.367 . S
C2386 C2384 1.403 . S
C2386 H2393 0.929 . S
N2387 Eu2352 2.562 . S
N2387 C2388 1.325 . S
N2387 C2390 1.351 . S
C2388 H2374 0.929 . S
C2388 N2387 1.325 . S
C2388 C2392 1.416 . S
C2389 C2390 1.430 . S
C2389 C2391 1.404 . S
C2389 C2418 1.387 . S
C2390 C2382 1.448 . S
C2390 N2387 1.351 . S
C2390 C2389 1.430 . S
C2391 H2380 0.930 1_455 S
C2391 C2389 1.404 . S
C2391 C2392 1.366 . S
C2392 H2371 0.930 . S
C2392 C2388 1.416 . S
C2392 C2391 1.366 . S
H2393 C2386 0.929 . S
H2394 C2417 0.931 . S
H2395 C2418 0.931 1_655 S
O2396 Eu2352 2.462 . S
O2396 C2416 1.252 . S
O2397 Eu2352 2.373 . S
O2397 C2408 1.249 1_556 S
O2398 Eu2363 2.335 . S
O2398 C2408 1.264 . S
O2399 Eu2352 2.432 . S
O2399 C2416 1.268 . S
O2400 Eu2352 2.291 . S
O2400 C2415 1.255 . S
O2401 Eu2363 2.372 . S
O2401 C2415 1.257 1_554 S
O2402 Eu2363 2.462 . S
O2402 C2427 1.252 . S
O2403 Eu2363 2.373 . S
O2403 C2419 1.249 1_554 S
O2404 Eu2352 2.335 . S
O2404 C2419 1.264 . S
O2405 Eu2363 2.432 . S
O2405 C2427 1.268 . S
O2406 Eu2363 2.291 . S
O2406 C2426 1.255 . S
O2407 Eu2352 2.372 . S
O2407 C2426 1.257 1_556 S
C2408 O2397 1.249 1_554 S
C2408 O2398 1.264 . S
C2409 C2412 1.382 . S
C2409 C2414 1.390 . S
C2409 C2416 1.506 . S
C2410 C2411 1.398 . S
C2410 C2414 1.392 . S
C2411 C2410 1.398 . S
C2411 C2413 1.372 . S
C2411 H2428 0.931 . S
C2412 C2409 1.382 . S
C2412 C2413 1.390 . S
C2412 H2429 0.931 . S
C2413 C2411 1.372 . S
C2413 C2412 1.390 . S
C2413 H2430 0.929 . S
C2414 C2409 1.390 . S
C2414 C2410 1.392 . S
C2414 H2431 0.930 . S
C2415 O2400 1.255 . S
C2415 O2401 1.257 1_556 S
C2416 Eu2352 2.787 . S
C2416 O2396 1.252 . S
C2416 O2399 1.268 . S
C2416 C2409 1.506 . S
C2417 C2384 1.439 . S
C2417 H2394 0.931 . S
C2417 C2418 1.374 . S
C2418 C2389 1.387 . S
C2418 H2395 0.931 1_455 S
C2418 C2417 1.374 . S
C2419 O2403 1.249 1_556 S
C2419 O2404 1.264 . S
C2420 C2423 1.382 . S
C2420 C2424 1.390 . S
C2420 C2427 1.506 . S
C2421 C2422 1.398 . S
C2421 C2424 1.392 . S
C2422 C2421 1.398 . S
C2422 C2425 1.372 . S
C2422 H2432 0.931 . S
C2423 C2420 1.382 . S
C2423 C2425 1.390 . S
C2423 H2433 0.931 . S
C2424 C2420 1.390 . S
C2424 C2421 1.392 . S
C2424 H2434 0.930 . S
C2425 C2422 1.372 . S
C2425 C2423 1.390 . S
C2425 H2435 0.929 . S
C2426 O2406 1.255 . S
C2426 O2407 1.257 1_554 S
C2427 Eu2363 2.787 . S
C2427 O2402 1.252 . S
C2427 O2405 1.268 . S
C2427 C2420 1.506 . S
H2428 C2411 0.931 . S
H2429 C2412 0.931 . S
H2430 C2413 0.929 . S
H2431 C2414 0.930 . S
H2432 C2422 0.931 . S
H2433 C2423 0.931 . S
H2434 C2424 0.930 . S
H2435 C2425 0.929 . S
Eu2436 N2465 2.600 . S
Eu2436 N2471 2.562 . S
Eu2436 O2480 2.462 . S
Eu2436 O2481 2.373 . S
Eu2436 O2483 2.432 . S
Eu2436 O2484 2.291 . S
Eu2436 O2488 2.335 . S
Eu2436 O2491 2.372 . S
Eu2436 C2500 2.787 . S
C2437 N2438 1.365 . S
C2437 C2440 1.405 . S
C2437 C2444 1.448 . S
N2438 C2437 1.365 . S
N2438 C2441 1.319 . S
N2438 Eu2447 2.600 . S
C2439 C2441 1.397 . S
C2439 C2442 1.367 . S
C2439 H2459 0.931 . S
C2440 C2437 1.405 . S
C2440 C2442 1.403 . S
C2440 C2446 1.439 . S
C2441 N2438 1.319 . S
C2441 C2439 1.397 . S
C2441 H2452 0.930 . S
C2442 C2439 1.367 . S
C2442 C2440 1.403 . S
C2442 H2463 0.929 . S
C2443 C2444 1.430 . S
C2443 C2445 1.387 . S
C2443 C2449 1.404 . S
C2444 C2437 1.448 . S
C2444 C2443 1.430 . S
C2444 N2448 1.351 . S
C2445 C2443 1.387 . S
C2445 C2446 1.374 . S
C2445 H2460 0.931 . S
C2446 C2440 1.439 . S
C2446 C2445 1.374 . S
C2446 H2461 0.931 . S
Eu2447 N2438 2.600 . S
Eu2447 N2448 2.562 . S
Eu2447 O2482 2.335 . S
Eu2447 O2485 2.372 . S
Eu2447 O2486 2.462 . S
Eu2447 O2487 2.373 . S
Eu2447 O2489 2.432 . S
Eu2447 O2490 2.291 . S
Eu2447 C2511 2.787 . S
N2448 C2444 1.351 . S
N2448 Eu2447 2.562 . S
N2448 C2450 1.325 . S
C2449 C2443 1.404 . S
C2449 C2451 1.366 . S
C2449 H2457 0.930 . S
C2450 N2448 1.325 . S
C2450 C2451 1.416 . S
C2450 H2456 0.929 . S
C2451 C2449 1.366 . S
C2451 C2450 1.416 . S
C2451 H2453 0.930 . S
H2452 C2441 0.930 . S
H2453 C2451 0.930 . S
H2454 C2469 0.930 . S
H2455 C2476 0.930 . S
H2456 C2450 0.929 . S
H2457 C2449 0.930 . S
H2458 C2472 0.929 . S
H2459 C2439 0.931 . S
H2460 C2445 0.931 . S
H2461 C2446 0.931 . S
H2462 C2467 0.931 . S
H2463 C2442 0.929 . S
H2464 C2475 0.930 . S
N2465 Eu2436 2.600 . S
N2465 C2466 1.365 . S
N2465 C2469 1.319 . S
C2466 N2465 1.365 . S
C2466 C2468 1.405 . S
C2466 C2474 1.448 . S
C2467 H2462 0.931 . S
C2467 C2469 1.397 . S
C2467 C2470 1.367 . S
C2468 C2466 1.405 . S
C2468 C2470 1.403 . S
C2468 C2501 1.439 . S
C2469 H2454 0.930 . S
C2469 N2465 1.319 . S
C2469 C2467 1.397 . S
C2470 C2467 1.367 . S
C2470 C2468 1.403 . S
C2470 H2477 0.929 . S
N2471 Eu2436 2.562 . S
N2471 C2472 1.325 . S
N2471 C2474 1.351 . S
C2472 H2458 0.929 . S
C2472 N2471 1.325 . S
C2472 C2476 1.416 . S
C2473 C2474 1.430 . S
C2473 C2475 1.404 . S
C2473 C2502 1.387 . S
C2474 C2466 1.448 . S
C2474 N2471 1.351 . S
C2474 C2473 1.430 . S
C2475 H2464 0.930 . S
C2475 C2473 1.404 . S
C2475 C2476 1.366 . S
C2476 H2455 0.930 . S
C2476 C2472 1.416 . S
C2476 C2475 1.366 . S
H2477 C2470 0.929 . S
H2478 C2501 0.931 . S
H2479 C2502 0.931 . S
O2480 Eu2436 2.462 . S
O2480 C2500 1.252 . S
O2481 Eu2436 2.373 . S
O2481 C2492 1.249 1_556 S
O2482 Eu2447 2.335 . S
O2482 C2492 1.264 . S
O2483 Eu2436 2.432 . S
O2483 C2500 1.268 . S
O2484 Eu2436 2.291 . S
O2484 C2499 1.255 . S
O2485 Eu2447 2.372 . S
O2485 C2499 1.257 1_554 S
O2486 Eu2447 2.462 . S
O2486 C2511 1.252 . S
O2487 Eu2447 2.373 . S
O2487 C2503 1.249 1_554 S
O2488 Eu2436 2.335 . S
O2488 C2503 1.264 . S
O2489 Eu2447 2.432 . S
O2489 C2511 1.268 . S
O2490 Eu2447 2.291 . S
O2490 C2510 1.255 . S
O2491 Eu2436 2.372 . S
O2491 C2510 1.257 1_556 S
C2492 O2481 1.249 1_554 S
C2492 O2482 1.264 . S
C2493 C2496 1.382 . S
C2493 C2498 1.390 . S
C2493 C2500 1.506 . S
C2494 C2495 1.398 . S
C2494 C2498 1.392 . S
C2495 C2494 1.398 . S
C2495 C2497 1.372 . S
C2495 H2512 0.931 . S
C2496 C2493 1.382 . S
C2496 C2497 1.390 . S
C2496 H2513 0.931 . S
C2497 C2495 1.372 . S
C2497 C2496 1.390 . S
C2497 H2514 0.929 . S
C2498 C2493 1.390 . S
C2498 C2494 1.392 . S
C2498 H2515 0.930 . S
C2499 O2484 1.255 . S
C2499 O2485 1.257 1_556 S
C2500 Eu2436 2.787 . S
C2500 O2480 1.252 . S
C2500 O2483 1.268 . S
C2500 C2493 1.506 . S
C2501 C2468 1.439 . S
C2501 H2478 0.931 . S
C2501 C2502 1.374 . S
C2502 C2473 1.387 . S
C2502 H2479 0.931 . S
C2502 C2501 1.374 . S
C2503 O2487 1.249 1_556 S
C2503 O2488 1.264 . S
C2504 C2507 1.382 . S
C2504 C2508 1.390 . S
C2504 C2511 1.506 . S
C2505 C2506 1.398 . S
C2505 C2508 1.392 . S
C2506 C2505 1.398 . S
C2506 C2509 1.372 . S
C2506 H2516 0.931 . S
C2507 C2504 1.382 . S
C2507 C2509 1.390 . S
C2507 H2517 0.931 . S
C2508 C2504 1.390 . S
C2508 C2505 1.392 . S
C2508 H2518 0.930 . S
C2509 C2506 1.372 . S
C2509 C2507 1.390 . S
C2509 H2519 0.929 . S
C2510 O2490 1.255 . S
C2510 O2491 1.257 1_554 S
C2511 Eu2447 2.787 . S
C2511 O2486 1.252 . S
C2511 O2489 1.268 . S
C2511 C2504 1.506 . S
H2512 C2495 0.931 . S
H2513 C2496 0.931 . S
H2514 C2497 0.929 . S
H2515 C2498 0.930 . S
H2516 C2506 0.931 . S
H2517 C2507 0.931 . S
H2518 C2508 0.930 . S
H2519 C2509 0.929 . S
Eu2520 N2549 2.600 . S
Eu2520 N2555 2.562 . S
Eu2520 O2564 2.462 . S
Eu2520 O2565 2.373 . S
Eu2520 O2567 2.432 . S
Eu2520 O2568 2.291 . S
Eu2520 O2572 2.335 . S
Eu2520 O2575 2.372 . S
Eu2520 C2584 2.787 . S
C2521 N2522 1.365 . S
C2521 C2524 1.405 . S
C2521 C2528 1.448 . S
N2522 C2521 1.365 . S
N2522 C2525 1.319 . S
N2522 Eu2531 2.600 . S
C2523 C2525 1.397 . S
C2523 C2526 1.367 . S
C2523 H2543 0.931 . S
C2524 C2521 1.405 . S
C2524 C2526 1.403 . S
C2524 C2530 1.439 . S
C2525 N2522 1.319 . S
C2525 C2523 1.397 . S
C2525 H2536 0.930 . S
C2526 C2523 1.367 . S
C2526 C2524 1.403 . S
C2526 H2547 0.929 . S
C2527 C2528 1.430 . S
C2527 C2529 1.387 . S
C2527 C2533 1.404 . S
C2528 C2521 1.448 . S
C2528 C2527 1.430 . S
C2528 N2532 1.351 . S
C2529 C2527 1.387 . S
C2529 C2530 1.374 . S
C2529 H2544 0.931 1_455 S
C2530 C2524 1.439 . S
C2530 C2529 1.374 . S
C2530 H2545 0.931 . S
Eu2531 N2522 2.600 . S
Eu2531 N2532 2.562 . S
Eu2531 O2566 2.335 . S
Eu2531 O2569 2.372 . S
Eu2531 O2570 2.462 . S
Eu2531 O2571 2.373 . S
Eu2531 O2573 2.432 . S
Eu2531 O2574 2.291 . S
Eu2531 C2595 2.787 . S
N2532 C2528 1.351 . S
N2532 Eu2531 2.562 . S
N2532 C2534 1.325 . S
C2533 C2527 1.404 . S
C2533 C2535 1.366 . S
C2533 H2541 0.930 1_455 S
C2534 N2532 1.325 . S
C2534 C2535 1.416 . S
C2534 H2540 0.929 . S
C2535 C2533 1.366 . S
C2535 C2534 1.416 . S
C2535 H2537 0.930 . S
H2536 C2525 0.930 . S
H2537 C2535 0.930 . S
H2538 C2553 0.930 . S
H2539 C2560 0.930 . S
H2540 C2534 0.929 . S
H2541 C2533 0.930 1_655 S
H2542 C2556 0.929 . S
H2543 C2523 0.931 . S
H2544 C2529 0.931 1_655 S
H2545 C2530 0.931 . S
H2546 C2551 0.931 . S
H2547 C2526 0.929 . S
H2548 C2559 0.930 . S
N2549 Eu2520 2.600 . S
N2549 C2550 1.365 . S
N2549 C2553 1.319 . S
C2550 N2549 1.365 . S
C2550 C2552 1.405 . S
C2550 C2558 1.448 . S
C2551 H2546 0.931 . S
C2551 C2553 1.397 . S
C2551 C2554 1.367 . S
C2552 C2550 1.405 . S
C2552 C2554 1.403 . S
C2552 C2585 1.439 . S
C2553 H2538 0.930 . S
C2553 N2549 1.319 . S
C2553 C2551 1.397 . S
C2554 C2551 1.367 . S
C2554 C2552 1.403 . S
C2554 H2561 0.929 . S
N2555 Eu2520 2.562 . S
N2555 C2556 1.325 . S
N2555 C2558 1.351 . S
C2556 H2542 0.929 . S
C2556 N2555 1.325 . S
C2556 C2560 1.416 . S
C2557 C2558 1.430 . S
C2557 C2559 1.404 . S
C2557 C2586 1.387 . S
C2558 C2550 1.448 . S
C2558 N2555 1.351 . S
C2558 C2557 1.430 . S
C2559 H2548 0.930 . S
C2559 C2557 1.404 . S
C2559 C2560 1.366 . S
C2560 H2539 0.930 . S
C2560 C2556 1.416 . S
C2560 C2559 1.366 . S
H2561 C2554 0.929 . S
H2562 C2585 0.931 . S
H2563 C2586 0.931 . S
O2564 Eu2520 2.462 . S
O2564 C2584 1.252 . S
O2565 Eu2520 2.373 . S
O2565 C2576 1.249 . S
O2566 Eu2531 2.335 . S
O2566 C2576 1.264 . S
O2567 Eu2520 2.432 . S
O2567 C2584 1.268 . S
O2568 Eu2520 2.291 . S
O2568 C2583 1.255 . S
O2569 Eu2531 2.372 . S
O2569 C2583 1.257 . S
O2570 Eu2531 2.462 . S
O2570 C2595 1.252 . S
O2571 Eu2531 2.373 . S
O2571 C2587 1.249 . S
O2572 Eu2520 2.335 . S
O2572 C2587 1.264 . S
O2573 Eu2531 2.432 . S
O2573 C2595 1.268 . S
O2574 Eu2531 2.291 . S
O2574 C2594 1.255 . S
O2575 Eu2520 2.372 . S
O2575 C2594 1.257 . S
C2576 O2565 1.249 . S
C2576 O2566 1.264 . S
C2577 C2580 1.382 . S
C2577 C2582 1.390 . S
C2577 C2584 1.506 . S
C2578 C2579 1.398 . S
C2578 C2582 1.392 . S
C2579 C2578 1.398 . S
C2579 C2581 1.372 . S
C2579 H2596 0.931 . S
C2580 C2577 1.382 . S
C2580 C2581 1.390 . S
C2580 H2597 0.931 . S
C2581 C2579 1.372 . S
C2581 C2580 1.390 . S
C2581 H2598 0.929 . S
C2582 C2577 1.390 . S
C2582 C2578 1.392 . S
C2582 H2599 0.930 . S
C2583 O2568 1.255 . S
C2583 O2569 1.257 . S
C2584 Eu2520 2.787 . S
C2584 O2564 1.252 . S
C2584 O2567 1.268 . S
C2584 C2577 1.506 . S
C2585 C2552 1.439 . S
C2585 H2562 0.931 . S
C2585 C2586 1.374 . S
C2586 C2557 1.387 . S
C2586 H2563 0.931 . S
C2586 C2585 1.374 . S
C2587 O2571 1.249 . S
C2587 O2572 1.264 . S
C2588 C2591 1.382 . S
C2588 C2592 1.390 . S
C2588 C2595 1.506 . S
C2589 C2590 1.398 . S
C2589 C2592 1.392 . S
C2590 C2589 1.398 . S
C2590 C2593 1.372 . S
C2590 H2600 0.931 . S
C2591 C2588 1.382 . S
C2591 C2593 1.390 . S
C2591 H2601 0.931 . S
C2592 C2588 1.390 . S
C2592 C2589 1.392 . S
C2592 H2602 0.930 . S
C2593 C2590 1.372 . S
C2593 C2591 1.390 . S
C2593 H2603 0.929 . S
C2594 O2574 1.255 . S
C2594 O2575 1.257 . S
C2595 Eu2531 2.787 . S
C2595 O2570 1.252 . S
C2595 O2573 1.268 . S
C2595 C2588 1.506 . S
H2596 C2579 0.931 . S
H2597 C2580 0.931 . S
H2598 C2581 0.929 . S
H2599 C2582 0.930 . S
H2600 C2590 0.931 . S
H2601 C2591 0.931 . S
H2602 C2592 0.930 . S
H2603 C2593 0.929 . S
Eu2604 N2633 2.600 . S
Eu2604 N2639 2.562 . S
Eu2604 O2648 2.462 . S
Eu2604 O2649 2.373 . S
Eu2604 O2651 2.432 . S
Eu2604 O2652 2.291 . S
Eu2604 O2656 2.335 . S
Eu2604 O2659 2.372 . S
Eu2604 C2668 2.787 . S
C2605 N2606 1.365 . S
C2605 C2608 1.405 . S
C2605 C2612 1.448 . S
N2606 C2605 1.365 . S
N2606 C2609 1.319 . S
N2606 Eu2615 2.600 . S
C2607 C2609 1.397 . S
C2607 C2610 1.367 . S
C2607 H2627 0.931 . S
C2608 C2605 1.405 . S
C2608 C2610 1.403 . S
C2608 C2614 1.439 . S
C2609 N2606 1.319 . S
C2609 C2607 1.397 . S
C2609 H2620 0.930 . S
C2610 C2607 1.367 . S
C2610 C2608 1.403 . S
C2610 H2631 0.929 . S
C2611 C2612 1.430 . S
C2611 C2613 1.387 . S
C2611 C2617 1.404 . S
C2612 C2605 1.448 . S
C2612 C2611 1.430 . S
C2612 N2616 1.351 . S
C2613 C2611 1.387 . S
C2613 C2614 1.374 . S
C2613 H2628 0.931 . S
C2614 C2608 1.439 . S
C2614 C2613 1.374 . S
C2614 H2629 0.931 . S
Eu2615 N2606 2.600 . S
Eu2615 N2616 2.562 . S
Eu2615 O2650 2.335 . S
Eu2615 O2653 2.372 . S
Eu2615 O2654 2.462 . S
Eu2615 O2655 2.373 . S
Eu2615 O2657 2.432 . S
Eu2615 O2658 2.291 . S
Eu2615 C2679 2.787 . S
N2616 C2612 1.351 . S
N2616 Eu2615 2.562 . S
N2616 C2618 1.325 . S
C2617 C2611 1.404 . S
C2617 C2619 1.366 . S
C2617 H2625 0.930 . S
C2618 N2616 1.325 . S
C2618 C2619 1.416 . S
C2618 H2624 0.929 . S
C2619 C2617 1.366 . S
C2619 C2618 1.416 . S
C2619 H2621 0.930 . S
H2620 C2609 0.930 . S
H2621 C2619 0.930 . S
H2622 C2637 0.930 . S
H2623 C2644 0.930 . S
H2624 C2618 0.929 . S
H2625 C2617 0.930 . S
H2626 C2640 0.929 . S
H2627 C2607 0.931 . S
H2628 C2613 0.931 . S
H2629 C2614 0.931 . S
H2630 C2635 0.931 . S
H2631 C2610 0.929 . S
H2632 C2643 0.930 . S
N2633 Eu2604 2.600 . S
N2633 C2634 1.365 . S
N2633 C2637 1.319 . S
C2634 N2633 1.365 . S
C2634 C2636 1.405 . S
C2634 C2642 1.448 . S
C2635 H2630 0.931 . S
C2635 C2637 1.397 . S
C2635 C2638 1.367 . S
C2636 C2634 1.405 . S
C2636 C2638 1.403 . S
C2636 C2669 1.439 . S
C2637 H2622 0.930 . S
C2637 N2633 1.319 . S
C2637 C2635 1.397 . S
C2638 C2635 1.367 . S
C2638 C2636 1.403 . S
C2638 H2645 0.929 . S
N2639 Eu2604 2.562 . S
N2639 C2640 1.325 . S
N2639 C2642 1.351 . S
C2640 H2626 0.929 . S
C2640 N2639 1.325 . S
C2640 C2644 1.416 . S
C2641 C2642 1.430 . S
C2641 C2643 1.404 . S
C2641 C2670 1.387 . S
C2642 C2634 1.448 . S
C2642 N2639 1.351 . S
C2642 C2641 1.430 . S
C2643 H2632 0.930 . S
C2643 C2641 1.404 . S
C2643 C2644 1.366 . S
C2644 H2623 0.930 . S
C2644 C2640 1.416 . S
C2644 C2643 1.366 . S
H2645 C2638 0.929 . S
H2646 C2669 0.931 . S
H2647 C2670 0.931 . S
O2648 Eu2604 2.462 . S
O2648 C2668 1.252 . S
O2649 Eu2604 2.373 . S
O2649 C2660 1.249 . S
O2650 Eu2615 2.335 . S
O2650 C2660 1.264 . S
O2651 Eu2604 2.432 . S
O2651 C2668 1.268 . S
O2652 Eu2604 2.291 . S
O2652 C2667 1.255 . S
O2653 Eu2615 2.372 . S
O2653 C2667 1.257 . S
O2654 Eu2615 2.462 . S
O2654 C2679 1.252 . S
O2655 Eu2615 2.373 . S
O2655 C2671 1.249 . S
O2656 Eu2604 2.335 . S
O2656 C2671 1.264 . S
O2657 Eu2615 2.432 . S
O2657 C2679 1.268 . S
O2658 Eu2615 2.291 . S
O2658 C2678 1.255 . S
O2659 Eu2604 2.372 . S
O2659 C2678 1.257 . S
C2660 O2649 1.249 . S
C2660 O2650 1.264 . S
C2661 C2664 1.382 . S
C2661 C2666 1.390 . S
C2661 C2668 1.506 . S
C2662 C2663 1.398 . S
C2662 C2666 1.392 . S
C2663 C2662 1.398 . S
C2663 C2665 1.372 . S
C2663 H2680 0.931 . S
C2664 C2661 1.382 . S
C2664 C2665 1.390 . S
C2664 H2681 0.931 . S
C2665 C2663 1.372 . S
C2665 C2664 1.390 . S
C2665 H2682 0.929 . S
C2666 C2661 1.390 . S
C2666 C2662 1.392 . S
C2666 H2683 0.930 . S
C2667 O2652 1.255 . S
C2667 O2653 1.257 . S
C2668 Eu2604 2.787 . S
C2668 O2648 1.252 . S
C2668 O2651 1.268 . S
C2668 C2661 1.506 . S
C2669 C2636 1.439 . S
C2669 H2646 0.931 . S
C2669 C2670 1.374 . S
C2670 C2641 1.387 . S
C2670 H2647 0.931 . S
C2670 C2669 1.374 . S
C2671 O2655 1.249 . S
C2671 O2656 1.264 . S
C2672 C2675 1.382 . S
C2672 C2676 1.390 . S
C2672 C2679 1.506 . S
C2673 C2674 1.398 . S
C2673 C2676 1.392 . S
C2674 C2673 1.398 . S
C2674 C2677 1.372 . S
C2674 H2684 0.931 . S
C2675 C2672 1.382 . S
C2675 C2677 1.390 . S
C2675 H2685 0.931 . S
C2676 C2672 1.390 . S
C2676 C2673 1.392 . S
C2676 H2686 0.930 . S
C2677 C2674 1.372 . S
C2677 C2675 1.390 . S
C2677 H2687 0.929 . S
C2678 O2658 1.255 . S
C2678 O2659 1.257 . S
C2679 Eu2615 2.787 . S
C2679 O2654 1.252 . S
C2679 O2657 1.268 . S
C2679 C2672 1.506 . S
H2680 C2663 0.931 . S
H2681 C2664 0.931 . S
H2682 C2665 0.929 . S
H2683 C2666 0.930 . S
H2684 C2674 0.931 . S
H2685 C2675 0.931 . S
H2686 C2676 0.930 . S
H2687 C2677 0.929 . S
Eu2688 N2717 2.600 . S
Eu2688 N2723 2.562 . S
Eu2688 O2732 2.462 . S
Eu2688 O2733 2.373 . S
Eu2688 O2735 2.432 . S
Eu2688 O2736 2.291 . S
Eu2688 O2740 2.335 . S
Eu2688 O2743 2.372 . S
Eu2688 C2752 2.787 . S
C2689 N2690 1.365 . S
C2689 C2692 1.405 . S
C2689 C2696 1.448 . S
N2690 C2689 1.365 . S
N2690 C2693 1.319 . S
N2690 Eu2699 2.600 . S
C2691 C2693 1.397 . S
C2691 C2694 1.367 . S
C2691 H2711 0.931 . S
C2692 C2689 1.405 . S
C2692 C2694 1.403 . S
C2692 C2698 1.439 . S
C2693 N2690 1.319 . S
C2693 C2691 1.397 . S
C2693 H2704 0.930 . S
C2694 C2691 1.367 . S
C2694 C2692 1.403 . S
C2694 H2715 0.929 . S
C2695 C2696 1.430 . S
C2695 C2697 1.387 . S
C2695 C2701 1.404 . S
C2696 C2689 1.448 . S
C2696 C2695 1.430 . S
C2696 N2700 1.351 . S
C2697 C2695 1.387 . S
C2697 C2698 1.374 . S
C2697 H2712 0.931 1_565 S
C2698 C2692 1.439 . S
C2698 C2697 1.374 . S
C2698 H2713 0.931 . S
Eu2699 N2690 2.600 . S
Eu2699 N2700 2.562 . S
Eu2699 O2734 2.335 . S
Eu2699 O2737 2.372 . S
Eu2699 O2738 2.462 . S
Eu2699 O2739 2.373 . S
Eu2699 O2741 2.432 . S
Eu2699 O2742 2.291 . S
Eu2699 C2763 2.787 . S
N2700 C2696 1.351 . S
N2700 Eu2699 2.562 . S
N2700 C2702 1.325 . S
C2701 C2695 1.404 . S
C2701 C2703 1.366 . S
C2701 H2709 0.930 1_565 S
C2702 N2700 1.325 . S
C2702 C2703 1.416 . S
C2702 H2708 0.929 . S
C2703 C2701 1.366 . S
C2703 C2702 1.416 . S
C2703 H2705 0.930 . S
H2704 C2693 0.930 . S
H2705 C2703 0.930 . S
H2706 C2721 0.930 . S
H2707 C2728 0.930 . S
H2708 C2702 0.929 . S
H2709 C2701 0.930 1_545 S
H2710 C2724 0.929 . S
H2711 C2691 0.931 . S
H2712 C2697 0.931 1_545 S
H2713 C2698 0.931 . S
H2714 C2719 0.931 . S
H2715 C2694 0.929 . S
H2716 C2727 0.930 . S
N2717 Eu2688 2.600 . S
N2717 C2718 1.365 . S
N2717 C2721 1.319 . S
C2718 N2717 1.365 . S
C2718 C2720 1.405 . S
C2718 C2726 1.448 . S
C2719 H2714 0.931 . S
C2719 C2721 1.397 . S
C2719 C2722 1.367 . S
C2720 C2718 1.405 . S
C2720 C2722 1.403 . S
C2720 C2753 1.439 . S
C2721 H2706 0.930 . S
C2721 N2717 1.319 . S
C2721 C2719 1.397 . S
C2722 C2719 1.367 . S
C2722 C2720 1.403 . S
C2722 H2729 0.929 . S
N2723 Eu2688 2.562 . S
N2723 C2724 1.325 . S
N2723 C2726 1.351 . S
C2724 H2710 0.929 . S
C2724 N2723 1.325 . S
C2724 C2728 1.416 . S
C2725 C2726 1.430 . S
C2725 C2727 1.404 . S
C2725 C2754 1.387 . S
C2726 C2718 1.448 . S
C2726 N2723 1.351 . S
C2726 C2725 1.430 . S
C2727 H2716 0.930 . S
C2727 C2725 1.404 . S
C2727 C2728 1.366 . S
C2728 H2707 0.930 . S
C2728 C2724 1.416 . S
C2728 C2727 1.366 . S
H2729 C2722 0.929 . S
H2730 C2753 0.931 . S
H2731 C2754 0.931 . S
O2732 Eu2688 2.462 . S
O2732 C2752 1.252 . S
O2733 Eu2688 2.373 . S
O2733 C2744 1.249 . S
O2734 Eu2699 2.335 . S
O2734 C2744 1.264 . S
O2735 Eu2688 2.432 . S
O2735 C2752 1.268 . S
O2736 Eu2688 2.291 . S
O2736 C2751 1.255 . S
O2737 Eu2699 2.372 . S
O2737 C2751 1.257 . S
O2738 Eu2699 2.462 . S
O2738 C2763 1.252 . S
O2739 Eu2699 2.373 . S
O2739 C2755 1.249 . S
O2740 Eu2688 2.335 . S
O2740 C2755 1.264 . S
O2741 Eu2699 2.432 . S
O2741 C2763 1.268 . S
O2742 Eu2699 2.291 . S
O2742 C2762 1.255 . S
O2743 Eu2688 2.372 . S
O2743 C2762 1.257 . S
C2744 O2733 1.249 . S
C2744 O2734 1.264 . S
C2745 C2748 1.382 . S
C2745 C2750 1.390 . S
C2745 C2752 1.506 . S
C2746 C2747 1.398 . S
C2746 C2750 1.392 . S
C2747 C2746 1.398 . S
C2747 C2749 1.372 . S
C2747 H2764 0.931 . S
C2748 C2745 1.382 . S
C2748 C2749 1.390 . S
C2748 H2765 0.931 . S
C2749 C2747 1.372 . S
C2749 C2748 1.390 . S
C2749 H2766 0.929 . S
C2750 C2745 1.390 . S
C2750 C2746 1.392 . S
C2750 H2767 0.930 . S
C2751 O2736 1.255 . S
C2751 O2737 1.257 . S
C2752 Eu2688 2.787 . S
C2752 O2732 1.252 . S
C2752 O2735 1.268 . S
C2752 C2745 1.506 . S
C2753 C2720 1.439 . S
C2753 H2730 0.931 . S
C2753 C2754 1.374 . S
C2754 C2725 1.387 . S
C2754 H2731 0.931 . S
C2754 C2753 1.374 . S
C2755 O2739 1.249 . S
C2755 O2740 1.264 . S
C2756 C2759 1.382 . S
C2756 C2760 1.390 . S
C2756 C2763 1.506 . S
C2757 C2758 1.398 . S
C2757 C2760 1.392 . S
C2758 C2757 1.398 . S
C2758 C2761 1.372 . S
C2758 H2768 0.931 . S
C2759 C2756 1.382 . S
C2759 C2761 1.390 . S
C2759 H2769 0.931 . S
C2760 C2756 1.390 . S
C2760 C2757 1.392 . S
C2760 H2770 0.930 . S
C2761 C2758 1.372 . S
C2761 C2759 1.390 . S
C2761 H2771 0.929 . S
C2762 O2742 1.255 . S
C2762 O2743 1.257 . S
C2763 Eu2699 2.787 . S
C2763 O2738 1.252 . S
C2763 O2741 1.268 . S
C2763 C2756 1.506 . S
H2764 C2747 0.931 . S
H2765 C2748 0.931 . S
H2766 C2749 0.929 . S
H2767 C2750 0.930 . S
H2768 C2758 0.931 . S
H2769 C2759 0.931 . S
H2770 C2760 0.930 . S
H2771 C2761 0.929 . S
Eu2772 N2801 2.600 . S
Eu2772 N2807 2.562 . S
Eu2772 O2816 2.462 . S
Eu2772 O2817 2.373 . S
Eu2772 O2819 2.432 . S
Eu2772 O2820 2.291 . S
Eu2772 O2824 2.335 . S
Eu2772 O2827 2.372 . S
Eu2772 C2836 2.787 . S
C2773 N2774 1.365 . S
C2773 C2776 1.405 . S
C2773 C2780 1.448 . S
N2774 C2773 1.365 . S
N2774 C2777 1.319 . S
N2774 Eu2783 2.600 1_655 S
C2775 C2777 1.397 . S
C2775 C2778 1.367 . S
C2775 H2795 0.931 . S
C2776 C2773 1.405 . S
C2776 C2778 1.403 . S
C2776 C2782 1.439 . S
C2777 N2774 1.319 . S
C2777 C2775 1.397 . S
C2777 H2788 0.930 . S
C2778 C2775 1.367 . S
C2778 C2776 1.403 . S
C2778 H2799 0.929 . S
C2779 C2780 1.430 . S
C2779 C2781 1.387 . S
C2779 C2785 1.404 1_655 S
C2780 C2773 1.448 . S
C2780 C2779 1.430 . S
C2780 N2784 1.351 1_655 S
C2781 C2779 1.387 . S
C2781 C2782 1.374 . S
C2781 H2796 0.931 . S
C2782 C2776 1.439 . S
C2782 C2781 1.374 . S
C2782 H2797 0.931 . S
Eu2783 N2774 2.600 1_455 S
Eu2783 N2784 2.562 . S
Eu2783 O2818 2.335 . S
Eu2783 O2821 2.372 . S
Eu2783 O2822 2.462 . S
Eu2783 O2823 2.373 . S
Eu2783 O2825 2.432 . S
Eu2783 O2826 2.291 . S
Eu2783 C2847 2.787 . S
N2784 C2780 1.351 1_455 S
N2784 Eu2783 2.562 . S
N2784 C2786 1.325 . S
C2785 C2779 1.404 1_455 S
C2785 C2787 1.366 . S
C2785 H2793 0.930 1_455 S
C2786 N2784 1.325 . S
C2786 C2787 1.416 . S
C2786 H2792 0.929 . S
C2787 C2785 1.366 . S
C2787 C2786 1.416 . S
C2787 H2789 0.930 . S
H2788 C2777 0.930 . S
H2789 C2787 0.930 . S
H2790 C2805 0.930 . S
H2791 C2812 0.930 . S
H2792 C2786 0.929 . S
H2793 C2785 0.930 1_655 S
H2794 C2808 0.929 . S
H2795 C2775 0.931 . S
H2796 C2781 0.931 . S
H2797 C2782 0.931 . S
H2798 C2803 0.931 . S
H2799 C2778 0.929 . S
H2800 C2811 0.930 . S
N2801 Eu2772 2.600 . S
N2801 C2802 1.365 . S
N2801 C2805 1.319 . S
C2802 N2801 1.365 . S
C2802 C2804 1.405 . S
C2802 C2810 1.448 . S
C2803 H2798 0.931 . S
C2803 C2805 1.397 . S
C2803 C2806 1.367 . S
C2804 C2802 1.405 . S
C2804 C2806 1.403 . S
C2804 C2837 1.439 . S
C2805 H2790 0.930 . S
C2805 N2801 1.319 . S
C2805 C2803 1.397 . S
C2806 C2803 1.367 . S
C2806 C2804 1.403 . S
C2806 H2813 0.929 . S
N2807 Eu2772 2.562 . S
N2807 C2808 1.325 . S
N2807 C2810 1.351 . S
C2808 H2794 0.929 . S
C2808 N2807 1.325 . S
C2808 C2812 1.416 . S
C2809 C2810 1.430 . S
C2809 C2811 1.404 . S
C2809 C2838 1.387 . S
C2810 C2802 1.448 . S
C2810 N2807 1.351 . S
C2810 C2809 1.430 . S
C2811 H2800 0.930 . S
C2811 C2809 1.404 . S
C2811 C2812 1.366 . S
C2812 H2791 0.930 . S
C2812 C2808 1.416 . S
C2812 C2811 1.366 . S
H2813 C2806 0.929 . S
H2814 C2837 0.931 . S
H2815 C2838 0.931 . S
O2816 Eu2772 2.462 . S
O2816 C2836 1.252 . S
O2817 Eu2772 2.373 . S
O2817 C2828 1.249 . S
O2818 Eu2783 2.335 . S
O2818 C2828 1.264 . S
O2819 Eu2772 2.432 . S
O2819 C2836 1.268 . S
O2820 Eu2772 2.291 . S
O2820 C2835 1.255 . S
O2821 Eu2783 2.372 . S
O2821 C2835 1.257 . S
O2822 Eu2783 2.462 . S
O2822 C2847 1.252 . S
O2823 Eu2783 2.373 . S
O2823 C2839 1.249 . S
O2824 Eu2772 2.335 . S
O2824 C2839 1.264 . S
O2825 Eu2783 2.432 . S
O2825 C2847 1.268 . S
O2826 Eu2783 2.291 . S
O2826 C2846 1.255 . S
O2827 Eu2772 2.372 . S
O2827 C2846 1.257 . S
C2828 O2817 1.249 . S
C2828 O2818 1.264 . S
C2829 C2832 1.382 . S
C2829 C2834 1.390 . S
C2829 C2836 1.506 . S
C2830 C2831 1.398 1_655 S
C2830 C2834 1.392 1_655 S
C2831 C2830 1.398 1_455 S
C2831 C2833 1.372 . S
C2831 H2848 0.931 . S
C2832 C2829 1.382 . S
C2832 C2833 1.390 . S
C2832 H2849 0.931 . S
C2833 C2831 1.372 . S
C2833 C2832 1.390 . S
C2833 H2850 0.929 . S
C2834 C2829 1.390 . S
C2834 C2830 1.392 1_455 S
C2834 H2851 0.930 1_455 S
C2835 O2820 1.255 . S
C2835 O2821 1.257 . S
C2836 Eu2772 2.787 . S
C2836 O2816 1.252 . S
C2836 O2819 1.268 . S
C2836 C2829 1.506 . S
C2837 C2804 1.439 . S
C2837 H2814 0.931 . S
C2837 C2838 1.374 . S
C2838 C2809 1.387 . S
C2838 H2815 0.931 . S
C2838 C2837 1.374 . S
C2839 O2823 1.249 . S
C2839 O2824 1.264 . S
C2840 C2843 1.382 . S
C2840 C2844 1.390 . S
C2840 C2847 1.506 . S
C2841 C2842 1.398 . S
C2841 C2844 1.392 . S
C2842 C2841 1.398 . S
C2842 C2845 1.372 . S
C2842 H2852 0.931 . S
C2843 C2840 1.382 . S
C2843 C2845 1.390 . S
C2843 H2853 0.931 . S
C2844 C2840 1.390 . S
C2844 C2841 1.392 . S
C2844 H2854 0.930 . S
C2845 C2842 1.372 . S
C2845 C2843 1.390 . S
C2845 H2855 0.929 . S
C2846 O2826 1.255 . S
C2846 O2827 1.257 . S
C2847 Eu2783 2.787 . S
C2847 O2822 1.252 . S
C2847 O2825 1.268 . S
C2847 C2840 1.506 . S
H2848 C2831 0.931 . S
H2849 C2832 0.931 . S
H2850 C2833 0.929 . S
H2851 C2834 0.930 1_655 S
H2852 C2842 0.931 . S
H2853 C2843 0.931 . S
H2854 C2844 0.930 . S
H2855 C2845 0.929 . S
Eu2856 N2885 2.600 . S
Eu2856 N2891 2.562 . S
Eu2856 O2900 2.462 . S
Eu2856 O2901 2.373 . S
Eu2856 O2903 2.432 . S
Eu2856 O2904 2.291 . S
Eu2856 O2908 2.335 . S
Eu2856 O2911 2.372 . S
Eu2856 C2920 2.787 . S
C2857 N2858 1.365 . S
C2857 C2860 1.405 . S
C2857 C2864 1.448 . S
N2858 C2857 1.365 . S
N2858 C2861 1.319 . S
N2858 Eu2867 2.600 . S
C2859 C2861 1.397 . S
C2859 C2862 1.367 . S
C2859 H2879 0.931 . S
C2860 C2857 1.405 . S
C2860 C2862 1.403 . S
C2860 C2866 1.439 . S
C2861 N2858 1.319 . S
C2861 C2859 1.397 . S
C2861 H2872 0.930 . S
C2862 C2859 1.367 . S
C2862 C2860 1.403 . S
C2862 H2883 0.929 . S
C2863 C2864 1.430 . S
C2863 C2865 1.387 . S
C2863 C2869 1.404 . S
C2864 C2857 1.448 . S
C2864 C2863 1.430 . S
C2864 N2868 1.351 . S
C2865 C2863 1.387 . S
C2865 C2866 1.374 . S
C2865 H2880 0.931 . S
C2866 C2860 1.439 . S
C2866 C2865 1.374 . S
C2866 H2881 0.931 . S
Eu2867 N2858 2.600 . S
Eu2867 N2868 2.562 . S
Eu2867 O2902 2.335 . S
Eu2867 O2905 2.372 . S
Eu2867 O2906 2.462 . S
Eu2867 O2907 2.373 . S
Eu2867 O2909 2.432 . S
Eu2867 O2910 2.291 . S
Eu2867 C2931 2.787 . S
N2868 C2864 1.351 . S
N2868 Eu2867 2.562 . S
N2868 C2870 1.325 . S
C2869 C2863 1.404 . S
C2869 C2871 1.366 . S
C2869 H2877 0.930 . S
C2870 N2868 1.325 . S
C2870 C2871 1.416 . S
C2870 H2876 0.929 . S
C2871 C2869 1.366 . S
C2871 C2870 1.416 . S
C2871 H2873 0.930 . S
H2872 C2861 0.930 . S
H2873 C2871 0.930 . S
H2874 C2889 0.930 . S
H2875 C2896 0.930 . S
H2876 C2870 0.929 . S
H2877 C2869 0.930 . S
H2878 C2892 0.929 . S
H2879 C2859 0.931 . S
H2880 C2865 0.931 . S
H2881 C2866 0.931 . S
H2882 C2887 0.931 . S
H2883 C2862 0.929 . S
H2884 C2895 0.930 . S
N2885 Eu2856 2.600 . S
N2885 C2886 1.365 . S
N2885 C2889 1.319 . S
C2886 N2885 1.365 . S
C2886 C2888 1.405 . S
C2886 C2894 1.448 . S
C2887 H2882 0.931 . S
C2887 C2889 1.397 . S
C2887 C2890 1.367 . S
C2888 C2886 1.405 . S
C2888 C2890 1.403 . S
C2888 C2921 1.439 . S
C2889 H2874 0.930 . S
C2889 N2885 1.319 . S
C2889 C2887 1.397 . S
C2890 C2887 1.367 . S
C2890 C2888 1.403 . S
C2890 H2897 0.929 . S
N2891 Eu2856 2.562 . S
N2891 C2892 1.325 . S
N2891 C2894 1.351 . S
C2892 H2878 0.929 . S
C2892 N2891 1.325 . S
C2892 C2896 1.416 . S
C2893 C2894 1.430 . S
C2893 C2895 1.404 . S
C2893 C2922 1.387 . S
C2894 C2886 1.448 . S
C2894 N2891 1.351 . S
C2894 C2893 1.430 . S
C2895 H2884 0.930 . S
C2895 C2893 1.404 . S
C2895 C2896 1.366 . S
C2896 H2875 0.930 . S
C2896 C2892 1.416 . S
C2896 C2895 1.366 . S
H2897 C2890 0.929 . S
H2898 C2921 0.931 . S
H2899 C2922 0.931 . S
O2900 Eu2856 2.462 . S
O2900 C2920 1.252 . S
O2901 Eu2856 2.373 . S
O2901 C2912 1.249 . S
O2902 Eu2867 2.335 . S
O2902 C2912 1.264 . S
O2903 Eu2856 2.432 . S
O2903 C2920 1.268 . S
O2904 Eu2856 2.291 . S
O2904 C2919 1.255 . S
O2905 Eu2867 2.372 . S
O2905 C2919 1.257 . S
O2906 Eu2867 2.462 . S
O2906 C2931 1.252 . S
O2907 Eu2867 2.373 . S
O2907 C2923 1.249 . S
O2908 Eu2856 2.335 . S
O2908 C2923 1.264 . S
O2909 Eu2867 2.432 . S
O2909 C2931 1.268 . S
O2910 Eu2867 2.291 . S
O2910 C2930 1.255 . S
O2911 Eu2856 2.372 . S
O2911 C2930 1.257 . S
C2912 O2901 1.249 . S
C2912 O2902 1.264 . S
C2913 C2916 1.382 . S
C2913 C2918 1.390 . S
C2913 C2920 1.506 . S
C2914 C2915 1.398 . S
C2914 C2918 1.392 . S
C2915 C2914 1.398 . S
C2915 C2917 1.372 . S
C2915 H2932 0.931 . S
C2916 C2913 1.382 . S
C2916 C2917 1.390 . S
C2916 H2933 0.931 . S
C2917 C2915 1.372 . S
C2917 C2916 1.390 . S
C2917 H2934 0.929 . S
C2918 C2913 1.390 . S
C2918 C2914 1.392 . S
C2918 H2935 0.930 . S
C2919 O2904 1.255 . S
C2919 O2905 1.257 . S
C2920 Eu2856 2.787 . S
C2920 O2900 1.252 . S
C2920 O2903 1.268 . S
C2920 C2913 1.506 . S
C2921 C2888 1.439 . S
C2921 H2898 0.931 . S
C2921 C2922 1.374 . S
C2922 C2893 1.387 . S
C2922 H2899 0.931 . S
C2922 C2921 1.374 . S
C2923 O2907 1.249 . S
C2923 O2908 1.264 . S
C2924 C2927 1.382 . S
C2924 C2928 1.390 . S
C2924 C2931 1.506 . S
C2925 C2926 1.398 . S
C2925 C2928 1.392 . S
C2926 C2925 1.398 . S
C2926 C2929 1.372 . S
C2926 H2936 0.931 . S
C2927 C2924 1.382 . S
C2927 C2929 1.390 . S
C2927 H2937 0.931 . S
C2928 C2924 1.390 . S
C2928 C2925 1.392 . S
C2928 H2938 0.930 . S
C2929 C2926 1.372 . S
C2929 C2927 1.390 . S
C2929 H2939 0.929 . S
C2930 O2910 1.255 . S
C2930 O2911 1.257 . S
C2931 Eu2867 2.787 . S
C2931 O2906 1.252 . S
C2931 O2909 1.268 . S
C2931 C2924 1.506 . S
H2932 C2915 0.931 . S
H2933 C2916 0.931 . S
H2934 C2917 0.929 . S
H2935 C2918 0.930 . S
H2936 C2926 0.931 . S
H2937 C2927 0.931 . S
H2938 C2928 0.930 . S
H2939 C2929 0.929 . S
Eu2940 N2969 2.600 . S
Eu2940 N2975 2.562 . S
Eu2940 O2984 2.462 . S
Eu2940 O2985 2.373 . S
Eu2940 O2987 2.432 . S
Eu2940 O2988 2.291 . S
Eu2940 O2992 2.335 . S
Eu2940 O2995 2.372 . S
Eu2940 C3004 2.787 . S
C2941 N2942 1.365 . S
C2941 C2944 1.405 . S
C2941 C2948 1.448 . S
N2942 C2941 1.365 . S
N2942 C2945 1.319 . S
N2942 Eu2951 2.600 1_545 S
C2943 C2945 1.397 . S
C2943 C2946 1.367 . S
C2943 H2963 0.931 . S
C2944 C2941 1.405 . S
C2944 C2946 1.403 . S
C2944 C2950 1.439 . S
C2945 N2942 1.319 . S
C2945 C2943 1.397 . S
C2945 H2956 0.930 . S
C2946 C2943 1.367 . S
C2946 C2944 1.403 . S
C2946 H2967 0.929 . S
C2947 C2948 1.430 . S
C2947 C2949 1.387 . S
C2947 C2953 1.404 1_545 S
C2948 C2941 1.448 . S
C2948 C2947 1.430 . S
C2948 N2952 1.351 1_545 S
C2949 C2947 1.387 . S
C2949 C2950 1.374 . S
C2949 H2964 0.931 . S
C2950 C2944 1.439 . S
C2950 C2949 1.374 . S
C2950 H2965 0.931 . S
Eu2951 N2942 2.600 1_565 S
Eu2951 N2952 2.562 . S
Eu2951 O2986 2.335 . S
Eu2951 O2989 2.372 . S
Eu2951 O2990 2.462 . S
Eu2951 O2991 2.373 . S
Eu2951 O2993 2.432 . S
Eu2951 O2994 2.291 . S
Eu2951 C3015 2.787 . S
N2952 C2948 1.351 1_565 S
N2952 Eu2951 2.562 . S
N2952 C2954 1.325 . S
C2953 C2947 1.404 1_565 S
C2953 C2955 1.366 . S
C2953 H2961 0.930 1_565 S
C2954 N2952 1.325 . S
C2954 C2955 1.416 . S
C2954 H2960 0.929 . S
C2955 C2953 1.366 . S
C2955 C2954 1.416 . S
C2955 H2957 0.930 . S
H2956 C2945 0.930 . S
H2957 C2955 0.930 . S
H2958 C2973 0.930 . S
H2959 C2980 0.930 . S
H2960 C2954 0.929 . S
H2961 C2953 0.930 1_545 S
H2962 C2976 0.929 . S
H2963 C2943 0.931 . S
H2964 C2949 0.931 . S
H2965 C2950 0.931 . S
H2966 C2971 0.931 . S
H2967 C2946 0.929 . S
H2968 C2979 0.930 . S
N2969 Eu2940 2.600 . S
N2969 C2970 1.365 . S
N2969 C2973 1.319 . S
C2970 N2969 1.365 . S
C2970 C2972 1.405 . S
C2970 C2978 1.448 . S
C2971 H2966 0.931 . S
C2971 C2973 1.397 . S
C2971 C2974 1.367 . S
C2972 C2970 1.405 . S
C2972 C2974 1.403 . S
C2972 C3005 1.439 . S
C2973 H2958 0.930 . S
C2973 N2969 1.319 . S
C2973 C2971 1.397 . S
C2974 C2971 1.367 . S
C2974 C2972 1.403 . S
C2974 H2981 0.929 . S
N2975 Eu2940 2.562 . S
N2975 C2976 1.325 . S
N2975 C2978 1.351 . S
C2976 H2962 0.929 . S
C2976 N2975 1.325 . S
C2976 C2980 1.416 . S
C2977 C2978 1.430 . S
C2977 C2979 1.404 . S
C2977 C3006 1.387 . S
C2978 C2970 1.448 . S
C2978 N2975 1.351 . S
C2978 C2977 1.430 . S
C2979 H2968 0.930 . S
C2979 C2977 1.404 . S
C2979 C2980 1.366 . S
C2980 H2959 0.930 . S
C2980 C2976 1.416 . S
C2980 C2979 1.366 . S
H2981 C2974 0.929 . S
H2982 C3005 0.931 . S
H2983 C3006 0.931 . S
O2984 Eu2940 2.462 . S
O2984 C3004 1.252 . S
O2985 Eu2940 2.373 . S
O2985 C2996 1.249 . S
O2986 Eu2951 2.335 . S
O2986 C2996 1.264 . S
O2987 Eu2940 2.432 . S
O2987 C3004 1.268 . S
O2988 Eu2940 2.291 . S
O2988 C3003 1.255 . S
O2989 Eu2951 2.372 . S
O2989 C3003 1.257 . S
O2990 Eu2951 2.462 . S
O2990 C3015 1.252 . S
O2991 Eu2951 2.373 . S
O2991 C3007 1.249 . S
O2992 Eu2940 2.335 . S
O2992 C3007 1.264 . S
O2993 Eu2951 2.432 . S
O2993 C3015 1.268 . S
O2994 Eu2951 2.291 . S
O2994 C3014 1.255 . S
O2995 Eu2940 2.372 . S
O2995 C3014 1.257 . S
C2996 O2985 1.249 . S
C2996 O2986 1.264 . S
C2997 C3000 1.382 . S
C2997 C3002 1.390 . S
C2997 C3004 1.506 . S
C2998 C2999 1.398 1_545 S
C2998 C3002 1.392 1_545 S
C2999 C2998 1.398 1_565 S
C2999 C3001 1.372 . S
C2999 H3016 0.931 . S
C3000 C2997 1.382 . S
C3000 C3001 1.390 . S
C3000 H3017 0.931 . S
C3001 C2999 1.372 . S
C3001 C3000 1.390 . S
C3001 H3018 0.929 . S
C3002 C2997 1.390 . S
C3002 C2998 1.392 1_565 S
C3002 H3019 0.930 1_565 S
C3003 O2988 1.255 . S
C3003 O2989 1.257 . S
C3004 Eu2940 2.787 . S
C3004 O2984 1.252 . S
C3004 O2987 1.268 . S
C3004 C2997 1.506 . S
C3005 C2972 1.439 . S
C3005 H2982 0.931 . S
C3005 C3006 1.374 . S
C3006 C2977 1.387 . S
C3006 H2983 0.931 . S
C3006 C3005 1.374 . S
C3007 O2991 1.249 . S
C3007 O2992 1.264 . S
C3008 C3011 1.382 . S
C3008 C3012 1.390 . S
C3008 C3015 1.506 . S
C3009 C3010 1.398 . S
C3009 C3012 1.392 . S
C3010 C3009 1.398 . S
C3010 C3013 1.372 . S
C3010 H3020 0.931 . S
C3011 C3008 1.382 . S
C3011 C3013 1.390 . S
C3011 H3021 0.931 . S
C3012 C3008 1.390 . S
C3012 C3009 1.392 . S
C3012 H3022 0.930 . S
C3013 C3010 1.372 . S
C3013 C3011 1.390 . S
C3013 H3023 0.929 . S
C3014 O2994 1.255 . S
C3014 O2995 1.257 . S
C3015 Eu2951 2.787 . S
C3015 O2990 1.252 . S
C3015 O2993 1.268 . S
C3015 C3008 1.506 . S
H3016 C2999 0.931 . S
H3017 C3000 0.931 . S
H3018 C3001 0.929 . S
H3019 C3002 0.930 1_545 S
H3020 C3010 0.931 . S
H3021 C3011 0.931 . S
H3022 C3012 0.930 . S
H3023 C3013 0.929 . S
C3024 C3025 1.369 . S
C3024 C3026 1.419 . S
C3024 H3028 0.930 . S
C3025 C3024 1.369 . S
C3025 C3034 1.429 . S
C3026 C3024 1.419 . S
C3026 C3027 1.363 . S
C3026 H3029 0.929 . S
C3027 C3026 1.363 . S
C3027 C3033 1.428 . S
H3028 C3024 0.930 . S
H3029 C3026 0.929 . S
S3030 N3031 1.613 . S
S3030 N3032 1.610 . S
N3031 S3030 1.613 . S
N3031 C3034 1.350 . S
N3032 S3030 1.610 . S
N3032 C3033 1.351 . S
C3033 C3027 1.428 . S
C3033 N3032 1.351 . S
C3033 C3034 1.434 . S
C3034 C3025 1.429 . S
C3034 N3031 1.350 . S
C3034 C3033 1.434 . S
C3035 C3036 1.369 . S
C3035 C3037 1.419 . S
C3035 H3039 0.930 . S
C3036 C3035 1.369 . S
C3036 C3045 1.429 . S
C3037 C3035 1.419 . S
C3037 C3038 1.363 . S
C3037 H3040 0.929 . S
C3038 C3037 1.363 . S
C3038 C3044 1.428 . S
H3039 C3035 0.930 . S
H3040 C3037 0.929 . S
S3041 N3042 1.613 1_655 S
S3041 N3043 1.610 1_545 S
N3042 S3041 1.613 1_455 S
N3042 C3045 1.350 1_455 S
N3043 S3041 1.610 1_565 S
N3043 C3044 1.351 1_565 S
C3044 C3038 1.428 . S
C3044 N3043 1.351 1_545 S
C3044 C3045 1.434 . S
C3045 C3036 1.429 . S
C3045 N3042 1.350 1_655 S
C3045 C3044 1.434 . S
C3046 C3047 1.369 . S
C3046 C3048 1.419 . S
C3046 H3050 0.930 . S
C3047 C3046 1.369 . S
C3047 C3056 1.429 . S
C3048 C3046 1.419 . S
C3048 C3049 1.363 . S
C3048 H3051 0.929 . S
C3049 C3048 1.363 . S
C3049 C3055 1.428 . S
H3050 C3046 0.930 . S
H3051 C3048 0.929 . S
S3052 N3053 1.613 . S
S3052 N3054 1.610 . S
N3053 S3052 1.613 . S
N3053 C3056 1.350 . S
N3054 S3052 1.610 . S
N3054 C3055 1.351 . S
C3055 C3049 1.428 . S
C3055 N3054 1.351 . S
C3055 C3056 1.434 . S
C3056 C3047 1.429 . S
C3056 N3053 1.350 . S
C3056 C3055 1.434 . S
C3057 C3058 1.369 . S
C3057 C3059 1.419 . S
C3057 H3061 0.930 . S
C3058 C3057 1.369 . S
C3058 C3067 1.429 . S
C3059 C3057 1.419 . S
C3059 C3060 1.363 . S
C3059 H3062 0.929 . S
C3060 C3059 1.363 . S
C3060 C3066 1.428 . S
H3061 C3057 0.930 . S
H3062 C3059 0.929 . S
S3063 N3064 1.613 . S
S3063 N3065 1.610 . S
N3064 S3063 1.613 . S
N3064 C3067 1.350 . S
N3065 S3063 1.610 . S
N3065 C3066 1.351 . S
C3066 C3060 1.428 . S
C3066 N3065 1.351 . S
C3066 C3067 1.434 . S
C3067 C3058 1.429 . S
C3067 N3064 1.350 . S
C3067 C3066 1.434 . S
C3068 C3069 1.369 . S
C3068 C3070 1.419 . S
C3068 H3072 0.930 . S
C3069 C3068 1.369 . S
C3069 C3078 1.429 . S
C3070 C3068 1.419 . S
C3070 C3071 1.363 . S
C3070 H3073 0.929 . S
C3071 C3070 1.363 . S
C3071 C3077 1.428 . S
H3072 C3068 0.930 . S
H3073 C3070 0.929 . S
S3074 N3075 1.613 . S
S3074 N3076 1.610 . S
N3075 S3074 1.613 . S
N3075 C3078 1.350 . S
N3076 S3074 1.610 . S
N3076 C3077 1.351 . S
C3077 C3071 1.428 . S
C3077 N3076 1.351 . S
C3077 C3078 1.434 . S
C3078 C3069 1.429 . S
C3078 N3075 1.350 . S
C3078 C3077 1.434 . S
C3079 C3080 1.369 . S
C3079 C3081 1.419 . S
C3079 H3083 0.930 . S
C3080 C3079 1.369 . S
C3080 C3089 1.429 . S
C3081 C3079 1.419 . S
C3081 C3082 1.363 . S
C3081 H3084 0.929 . S
C3082 C3081 1.363 . S
C3082 C3088 1.428 . S
H3083 C3079 0.930 . S
H3084 C3081 0.929 . S
S3085 N3086 1.613 . S
S3085 N3087 1.610 . S
N3086 S3085 1.613 . S
N3086 C3089 1.350 . S
N3087 S3085 1.610 . S
N3087 C3088 1.351 . S
C3088 C3082 1.428 . S
C3088 N3087 1.351 . S
C3088 C3089 1.434 . S
C3089 C3080 1.429 . S
C3089 N3086 1.350 . S
C3089 C3088 1.434 . S
C3090 C3091 1.369 . S
C3090 C3092 1.419 . S
C3090 H3094 0.930 . S
C3091 C3090 1.369 . S
C3091 C3100 1.429 . S
C3092 C3090 1.419 . S
C3092 C3093 1.363 . S
C3092 H3095 0.929 . S
C3093 C3092 1.363 . S
C3093 C3099 1.428 . S
H3094 C3090 0.930 . S
H3095 C3092 0.929 . S
S3096 N3097 1.613 . S
S3096 N3098 1.610 . S
N3097 S3096 1.613 . S
N3097 C3100 1.350 . S
N3098 S3096 1.610 . S
N3098 C3099 1.351 . S
C3099 C3093 1.428 . S
C3099 N3098 1.351 . S
C3099 C3100 1.434 . S
C3100 C3091 1.429 . S
C3100 N3097 1.350 . S
C3100 C3099 1.434 . S
C3101 C3102 1.369 . S
C3101 C3103 1.419 . S
C3101 H3105 0.930 . S
C3102 C3101 1.369 . S
C3102 C3111 1.429 . S
C3103 C3101 1.419 . S
C3103 C3104 1.363 . S
C3103 H3106 0.929 . S
C3104 C3103 1.363 . S
C3104 C3110 1.428 . S
H3105 C3101 0.930 . S
H3106 C3103 0.929 . S
S3107 N3108 1.613 . S
S3107 N3109 1.610 . S
N3108 S3107 1.613 . S
N3108 C3111 1.350 . S
N3109 S3107 1.610 . S
N3109 C3110 1.351 . S
C3110 C3104 1.428 . S
C3110 N3109 1.351 . S
C3110 C3111 1.434 . S
C3111 C3102 1.429 . S
C3111 N3108 1.350 . S
C3111 C3110 1.434 . S
C3112 C3113 1.369 . S
C3112 C3114 1.419 . S
C3112 H3116 0.930 . S
C3113 C3112 1.369 . S
C3113 C3122 1.429 . S
C3114 C3112 1.419 . S
C3114 C3115 1.363 . S
C3114 H3117 0.929 . S
C3115 C3114 1.363 . S
C3115 C3121 1.428 . S
H3116 C3112 0.930 . S
H3117 C3114 0.929 . S
S3118 N3119 1.613 . S
S3118 N3120 1.610 . S
N3119 S3118 1.613 . S
N3119 C3122 1.350 . S
N3120 S3118 1.610 . S
N3120 C3121 1.351 . S
C3121 C3115 1.428 . S
C3121 N3120 1.351 . S
C3121 C3122 1.434 . S
C3122 C3113 1.429 . S
C3122 N3119 1.350 . S
C3122 C3121 1.434 . S
C3123 C3124 1.369 . S
C3123 C3125 1.419 . S
C3123 H3127 0.930 . S
C3124 C3123 1.369 . S
C3124 C3133 1.429 . S
C3125 C3123 1.419 . S
C3125 C3126 1.363 . S
C3125 H3128 0.929 . S
C3126 C3125 1.363 . S
C3126 C3132 1.428 . S
H3127 C3123 0.930 . S
H3128 C3125 0.929 . S
S3129 N3130 1.613 . S
S3129 N3131 1.610 . S
N3130 S3129 1.613 . S
N3130 C3133 1.350 . S
N3131 S3129 1.610 . S
N3131 C3132 1.351 . S
C3132 C3126 1.428 . S
C3132 N3131 1.351 . S
C3132 C3133 1.434 . S
C3133 C3124 1.429 . S
C3133 N3130 1.350 . S
C3133 C3132 1.434 . S
C3134 C3135 1.369 . S
C3134 C3136 1.419 . S
C3134 H3138 0.930 . S
C3135 C3134 1.369 . S
C3135 C3144 1.429 . S
C3136 C3134 1.419 . S
C3136 C3137 1.363 . S
C3136 H3139 0.929 . S
C3137 C3136 1.363 . S
C3137 C3143 1.428 . S
H3138 C3134 0.930 . S
H3139 C3136 0.929 . S
S3140 N3141 1.613 . S
S3140 N3142 1.610 . S
N3141 S3140 1.613 . S
N3141 C3144 1.350 . S
N3142 S3140 1.610 . S
N3142 C3143 1.351 . S
C3143 C3137 1.428 . S
C3143 N3142 1.351 . S
C3143 C3144 1.434 . S
C3144 C3135 1.429 . S
C3144 N3141 1.350 . S
C3144 C3143 1.434 . S
C3145 C3146 1.369 . S
C3145 C3147 1.419 . S
C3145 H3149 0.930 . S
C3146 C3145 1.369 . S
C3146 C3155 1.429 . S
C3147 C3145 1.419 . S
C3147 C3148 1.363 . S
C3147 H3150 0.929 . S
C3148 C3147 1.363 . S
C3148 C3154 1.428 . S
H3149 C3145 0.930 . S
H3150 C3147 0.929 . S
S3151 N3152 1.613 . S
S3151 N3153 1.610 . S
N3152 S3151 1.613 . S
N3152 C3155 1.350 . S
N3153 S3151 1.610 . S
N3153 C3154 1.351 . S
C3154 C3148 1.428 . S
C3154 N3153 1.351 . S
C3154 C3155 1.434 . S
C3155 C3146 1.429 . S
C3155 N3152 1.350 . S
C3155 C3154 1.434 . S
C3156 C3157 1.369 . S
C3156 C3158 1.419 . S
C3156 H3160 0.930 . S
C3157 C3156 1.369 . S
C3157 C3166 1.429 . S
C3158 C3156 1.419 . S
C3158 C3159 1.363 . S
C3158 H3161 0.929 . S
C3159 C3158 1.363 . S
C3159 C3165 1.428 . S
H3160 C3156 0.930 . S
H3161 C3158 0.929 . S
S3162 N3163 1.613 . S
S3162 N3164 1.610 . S
N3163 S3162 1.613 . S
N3163 C3166 1.350 . S
N3164 S3162 1.610 . S
N3164 C3165 1.351 . S
C3165 C3159 1.428 . S
C3165 N3164 1.351 . S
C3165 C3166 1.434 . S
C3166 C3157 1.429 . S
C3166 N3163 1.350 . S
C3166 C3165 1.434 . S
C3167 C3168 1.369 . S
C3167 C3169 1.419 . S
C3167 H3171 0.930 . S
C3168 C3167 1.369 . S
C3168 C3177 1.429 . S
C3169 C3167 1.419 . S
C3169 C3170 1.363 . S
C3169 H3172 0.929 . S
C3170 C3169 1.363 . S
C3170 C3176 1.428 . S
H3171 C3167 0.930 . S
H3172 C3169 0.929 . S
S3173 N3174 1.613 . S
S3173 N3175 1.610 . S
N3174 S3173 1.613 . S
N3174 C3177 1.350 . S
N3175 S3173 1.610 . S
N3175 C3176 1.351 . S
C3176 C3170 1.428 . S
C3176 N3175 1.351 . S
C3176 C3177 1.434 . S
C3177 C3168 1.429 . S
C3177 N3174 1.350 . S
C3177 C3176 1.434 . S
C3178 C3179 1.369 . S
C3178 C3180 1.419 . S
C3178 H3182 0.930 . S
C3179 C3178 1.369 . S
C3179 C3188 1.429 . S
C3180 C3178 1.419 . S
C3180 C3181 1.363 . S
C3180 H3183 0.929 . S
C3181 C3180 1.363 . S
C3181 C3187 1.428 . S
H3182 C3178 0.930 . S
H3183 C3180 0.929 . S
S3184 N3185 1.613 . S
S3184 N3186 1.610 . S
N3185 S3184 1.613 . S
N3185 C3188 1.350 . S
N3186 S3184 1.610 . S
N3186 C3187 1.351 . S
C3187 C3181 1.428 . S
C3187 N3186 1.351 . S
C3187 C3188 1.434 . S
C3188 C3179 1.429 . S
C3188 N3185 1.350 . S
C3188 C3187 1.434 . S
C3189 C3190 1.369 . S
C3189 C3191 1.419 . S
C3189 H3193 0.930 . S
C3190 C3189 1.369 . S
C3190 C3199 1.429 . S
C3191 C3189 1.419 . S
C3191 C3192 1.363 . S
C3191 H3194 0.929 . S
C3192 C3191 1.363 . S
C3192 C3198 1.428 . S
H3193 C3189 0.930 . S
H3194 C3191 0.929 . S
S3195 N3196 1.613 . S
S3195 N3197 1.610 . S
N3196 S3195 1.613 . S
N3196 C3199 1.350 . S
N3197 S3195 1.610 . S
N3197 C3198 1.351 . S
C3198 C3192 1.428 . S
C3198 N3197 1.351 . S
C3198 C3199 1.434 . S
C3199 C3190 1.429 . S
C3199 N3196 1.350 . S
C3199 C3198 1.434 . S
C3200 C3201 1.369 . S
C3200 C3202 1.419 . S
C3200 H3204 0.930 . S
C3201 C3200 1.369 . S
C3201 C3210 1.429 . S
C3202 C3200 1.419 . S
C3202 C3203 1.363 . S
C3202 H3205 0.929 . S
C3203 C3202 1.363 . S
C3203 C3209 1.428 . S
H3204 C3200 0.930 . S
H3205 C3202 0.929 . S
S3206 N3207 1.613 . S
S3206 N3208 1.610 . S
N3207 S3206 1.613 . S
N3207 C3210 1.350 . S
N3208 S3206 1.610 . S
N3208 C3209 1.351 . S
C3209 C3203 1.428 . S
C3209 N3208 1.351 . S
C3209 C3210 1.434 . S
C3210 C3201 1.429 . S
C3210 N3207 1.350 . S
C3210 C3209 1.434 . S
C3211 C3212 1.369 . S
C3211 C3213 1.419 . S
C3211 H3215 0.930 . S
C3212 C3211 1.369 . S
C3212 C3221 1.429 . S
C3213 C3211 1.419 . S
C3213 C3214 1.363 . S
C3213 H3216 0.929 . S
C3214 C3213 1.363 . S
C3214 C3220 1.428 . S
H3215 C3211 0.930 . S
H3216 C3213 0.929 . S
S3217 N3218 1.613 . S
S3217 N3219 1.610 . S
N3218 S3217 1.613 . S
N3218 C3221 1.350 . S
N3219 S3217 1.610 . S
N3219 C3220 1.351 . S
C3220 C3214 1.428 . S
C3220 N3219 1.351 . S
C3220 C3221 1.434 . S
C3221 C3212 1.429 . S
C3221 N3218 1.350 . S
C3221 C3220 1.434 . S
C3222 C3223 1.369 . S
C3222 C3224 1.419 . S
C3222 H3226 0.930 . S
C3223 C3222 1.369 . S
C3223 C3232 1.429 . S
C3224 C3222 1.419 . S
C3224 C3225 1.363 . S
C3224 H3227 0.929 . S
C3225 C3224 1.363 . S
C3225 C3231 1.428 . S
H3226 C3222 0.930 . S
H3227 C3224 0.929 . S
S3228 N3229 1.613 . S
S3228 N3230 1.610 . S
N3229 S3228 1.613 . S
N3229 C3232 1.350 . S
N3230 S3228 1.610 . S
N3230 C3231 1.351 . S
C3231 C3225 1.428 . S
C3231 N3230 1.351 . S
C3231 C3232 1.434 . S
C3232 C3223 1.429 . S
C3232 N3229 1.350 . S
C3232 C3231 1.434 . S
C3233 C3234 1.369 . S
C3233 C3235 1.419 . S
C3233 H3237 0.930 . S
C3234 C3233 1.369 . S
C3234 C3243 1.429 . S
C3235 C3233 1.419 . S
C3235 C3236 1.363 . S
C3235 H3238 0.929 . S
C3236 C3235 1.363 . S
C3236 C3242 1.428 . S
H3237 C3233 0.930 . S
H3238 C3235 0.929 . S
S3239 N3240 1.613 . S
S3239 N3241 1.610 . S
N3240 S3239 1.613 . S
N3240 C3243 1.350 . S
N3241 S3239 1.610 . S
N3241 C3242 1.351 . S
C3242 C3236 1.428 . S
C3242 N3241 1.351 . S
C3242 C3243 1.434 . S
C3243 C3234 1.429 . S
C3243 N3240 1.350 . S
C3243 C3242 1.434 . S
C3244 C3245 1.369 . S
C3244 C3246 1.419 . S
C3244 H3248 0.930 . S
C3245 C3244 1.369 . S
C3245 C3254 1.429 . S
C3246 C3244 1.419 . S
C3246 C3247 1.363 . S
C3246 H3249 0.929 . S
C3247 C3246 1.363 . S
C3247 C3253 1.428 . S
H3248 C3244 0.930 . S
H3249 C3246 0.929 . S
S3250 N3251 1.613 . S
S3250 N3252 1.610 . S
N3251 S3250 1.613 . S
N3251 C3254 1.350 . S
N3252 S3250 1.610 . S
N3252 C3253 1.351 . S
C3253 C3247 1.428 . S
C3253 N3252 1.351 . S
C3253 C3254 1.434 . S
C3254 C3245 1.429 . S
C3254 N3251 1.350 . S
C3254 C3253 1.434 . S
C3255 C3256 1.369 . S
C3255 C3257 1.419 . S
C3255 H3259 0.930 . S
C3256 C3255 1.369 . S
C3256 C3265 1.429 1_554 S
C3257 C3255 1.419 . S
C3257 C3258 1.363 . S
C3257 H3260 0.929 . S
C3258 C3257 1.363 . S
C3258 C3264 1.428 1_554 S
H3259 C3255 0.930 . S
H3260 C3257 0.929 . S
S3261 N3262 1.613 . S
S3261 N3263 1.610 . S
N3262 S3261 1.613 . S
N3262 C3265 1.350 . S
N3263 S3261 1.610 . S
N3263 C3264 1.351 . S
C3264 C3258 1.428 1_556 S
C3264 N3263 1.351 . S
C3264 C3265 1.434 . S
C3265 C3256 1.429 1_556 S
C3265 N3262 1.350 . S
C3265 C3264 1.434 . S
C3266 C3267 1.330 1_556 S
C3266 C3268 1.426 . S
C3266 H3270 0.970 . S
C3267 C3266 1.330 1_554 S
C3267 C3276 1.429 . S
C3268 C3266 1.426 . S
C3268 C3269 1.363 1_556 S
C3268 H3271 0.929 . S
C3269 C3268 1.363 1_554 S
C3269 C3275 1.428 . S
H3270 C3266 0.970 . S
H3271 C3268 0.929 . S
S3272 N3273 1.613 . S
S3272 N3274 1.610 . S
N3273 S3272 1.613 . S
N3273 C3276 1.350 . S
N3274 S3272 1.610 . S
N3274 C3275 1.351 . S
C3275 C3269 1.428 . S
C3275 N3274 1.351 . S
C3275 C3276 1.434 . S
C3276 C3267 1.429 . S
C3276 N3273 1.350 . S
C3276 C3275 1.434 . S
C3277 C3278 1.367 . S
C3277 C3279 1.416 . S
C3277 H3281 0.932 1_554 S
C3278 C3277 1.367 . S
C3278 C3287 1.429 . S
C3279 C3277 1.416 . S
C3279 C3280 1.398 . S
C3279 H3282 0.905 1_554 S
C3280 C3279 1.398 . S
C3280 C3286 1.428 . S
H3281 C3277 0.932 1_556 S
H3282 C3279 0.905 1_556 S
S3283 N3284 1.613 . S
S3283 N3285 1.610 . S
N3284 S3283 1.613 . S
N3284 C3287 1.350 . S
N3285 S3283 1.610 . S
N3285 C3286 1.351 . S
C3286 C3280 1.428 . S
C3286 N3285 1.351 . S
C3286 C3287 1.434 . S
C3287 C3278 1.429 . S
C3287 N3284 1.350 . S
C3287 C3286 1.434 . S
C3288 C3289 1.369 . S
C3288 C3290 1.419 . S
C3288 H3292 0.930 . S
C3289 C3288 1.369 . S
C3289 C3298 1.429 . S
C3290 C3288 1.419 . S
C3290 C3291 1.363 . S
C3290 H3293 0.929 . S
C3291 C3290 1.363 . S
C3291 C3297 1.428 . S
H3292 C3288 0.930 . S
H3293 C3290 0.929 . S
S3294 N3295 1.613 . S
S3294 N3296 1.610 . S
N3295 S3294 1.613 . S
N3295 C3298 1.350 . S
N3296 S3294 1.610 . S
N3296 C3297 1.351 . S
C3297 C3291 1.428 . S
C3297 N3296 1.351 . S
C3297 C3298 1.434 . S
C3298 C3289 1.429 . S
C3298 N3295 1.350 . S
C3298 C3297 1.434 . S
C3299 C3300 1.369 . S
C3299 C3301 1.419 . S
C3299 H3303 0.930 . S
C3300 C3299 1.369 . S
C3300 C3309 1.429 . S
C3301 C3299 1.419 . S
C3301 C3302 1.363 . S
C3301 H3304 0.929 . S
C3302 C3301 1.363 . S
C3302 C3308 1.428 . S
H3303 C3299 0.930 . S
H3304 C3301 0.929 . S
S3305 N3306 1.613 . S
S3305 N3307 1.610 . S
N3306 S3305 1.613 . S
N3306 C3309 1.350 . S
N3307 S3305 1.610 . S
N3307 C3308 1.351 . S
C3308 C3302 1.428 . S
C3308 N3307 1.351 . S
C3308 C3309 1.434 . S
C3309 C3300 1.429 . S
C3309 N3306 1.350 . S
C3309 C3308 1.434 . S
C3310 C3311 1.369 . S
C3310 C3312 1.419 . S
C3310 H3314 0.930 . S
C3311 C3310 1.369 . S
C3311 C3320 1.429 . S
C3312 C3310 1.419 . S
C3312 C3313 1.363 . S
C3312 H3315 0.929 . S
C3313 C3312 1.363 . S
C3313 C3319 1.428 . S
H3314 C3310 0.930 . S
H3315 C3312 0.929 . S
S3316 N3317 1.613 . S
S3316 N3318 1.610 . S
N3317 S3316 1.613 . S
N3317 C3320 1.350 . S
N3318 S3316 1.610 . S
N3318 C3319 1.351 . S
C3319 C3313 1.428 . S
C3319 N3318 1.351 . S
C3319 C3320 1.434 . S
C3320 C3311 1.429 . S
C3320 N3317 1.350 . S
C3320 C3319 1.434 . S
C3321 C3322 1.373 1_554 S
C3321 C3323 1.416 . S
C3321 H3325 0.927 . S
C3322 C3321 1.373 1_556 S
C3322 C3331 1.429 . S
C3323 C3321 1.416 . S
C3323 C3324 1.333 1_554 S
C3323 H3326 0.971 . S
C3324 C3323 1.333 1_556 S
C3324 C3330 1.428 . S
H3325 C3321 0.927 . S
H3326 C3323 0.971 . S
S3327 N3328 1.613 . S
S3327 N3329 1.610 . S
N3328 S3327 1.613 . S
N3328 C3331 1.350 . S
N3329 S3327 1.610 . S
N3329 C3330 1.351 . S
C3330 C3324 1.428 . S
C3330 N3329 1.351 . S
C3330 C3331 1.434 . S
C3331 C3322 1.429 . S
C3331 N3328 1.350 . S
C3331 C3330 1.434 . S
C3332 C3333 1.369 . S
C3332 C3334 1.419 . S
C3332 H3336 0.930 . S
C3333 C3332 1.369 . S
C3333 C3342 1.429 1_556 S
C3334 C3332 1.419 . S
C3334 C3335 1.363 . S
C3334 H3337 0.929 . S
C3335 C3334 1.363 . S
C3335 C3341 1.428 1_556 S
H3336 C3332 0.930 . S
H3337 C3334 0.929 . S
S3338 N3339 1.613 . S
S3338 N3340 1.610 . S
N3339 S3338 1.613 . S
N3339 C3342 1.350 . S
N3340 S3338 1.610 . S
N3340 C3341 1.351 . S
C3341 C3335 1.428 1_554 S
C3341 N3340 1.351 . S
C3341 C3342 1.434 . S
C3342 C3333 1.429 1_554 S
C3342 N3339 1.350 . S
C3342 C3341 1.434 . S
C3343 C3344 1.369 1_554 S
C3343 C3345 1.419 . S
C3343 H3347 0.930 . S
C3344 C3343 1.369 1_556 S
C3344 C3353 1.429 . S
C3345 C3343 1.419 . S
C3345 C3346 1.363 1_554 S
C3345 H3348 0.929 . S
C3346 C3345 1.363 1_556 S
C3346 C3352 1.428 . S
H3347 C3343 0.930 . S
H3348 C3345 0.929 . S
S3349 N3350 1.613 . S
S3349 N3351 1.610 . S
N3350 S3349 1.613 . S
N3350 C3353 1.350 . S
N3351 S3349 1.610 . S
N3351 C3352 1.351 . S
C3352 C3346 1.428 . S
C3352 N3351 1.351 . S
C3352 C3353 1.434 . S
C3353 C3344 1.429 . S
C3353 N3350 1.350 . S
C3353 C3352 1.434 . S
C3354 C3355 1.369 . S
C3354 C3356 1.419 . S
C3354 H3358 0.930 . S
C3355 C3354 1.369 . S
C3355 C3364 1.429 . S
C3356 C3354 1.419 . S
C3356 C3357 1.363 . S
C3356 H3359 0.929 . S
C3357 C3356 1.363 . S
C3357 C3363 1.428 . S
H3358 C3354 0.930 . S
H3359 C3356 0.929 . S
S3360 N3361 1.613 . S
S3360 N3362 1.610 . S
N3361 S3360 1.613 . S
N3361 C3364 1.350 . S
N3362 S3360 1.610 . S
N3362 C3363 1.351 . S
C3363 C3357 1.428 . S
C3363 N3362 1.351 . S
C3363 C3364 1.434 . S
C3364 C3355 1.429 . S
C3364 N3361 1.350 . S
C3364 C3363 1.434 . S
C3365 C3366 1.369 . S
C3365 C3367 1.419 . S
C3365 H3369 0.930 . S
C3366 C3365 1.369 . S
C3366 C3375 1.429 . S
C3367 C3365 1.419 . S
C3367 C3368 1.363 . S
C3367 H3370 0.929 . S
C3368 C3367 1.363 . S
C3368 C3374 1.428 . S
H3369 C3365 0.930 . S
H3370 C3367 0.929 . S
S3371 N3372 1.613 . S
S3371 N3373 1.610 . S
N3372 S3371 1.613 . S
N3372 C3375 1.350 . S
N3373 S3371 1.610 . S
N3373 C3374 1.351 . S
C3374 C3368 1.428 . S
C3374 N3373 1.351 . S
C3374 C3375 1.434 . S
C3375 C3366 1.429 . S
C3375 N3372 1.350 . S
C3375 C3374 1.434 . S
C3376 C3377 1.369 . S
C3376 C3378 1.419 . S
C3376 H3380 0.930 . S
C3377 C3376 1.369 . S
C3377 C3386 1.429 . S
C3378 C3376 1.419 . S
C3378 C3379 1.363 . S
C3378 H3381 0.929 . S
C3379 C3378 1.363 . S
C3379 C3385 1.428 . S
H3380 C3376 0.930 . S
H3381 C3378 0.929 . S
S3382 N3383 1.613 . S
S3382 N3384 1.610 . S
N3383 S3382 1.613 . S
N3383 C3386 1.350 . S
N3384 S3382 1.610 . S
N3384 C3385 1.351 . S
C3385 C3379 1.428 . S
C3385 N3384 1.351 . S
C3385 C3386 1.434 . S
C3386 C3377 1.429 . S
C3386 N3383 1.350 . S
C3386 C3385 1.434 . S
C3387 C3388 1.369 . S
C3387 C3389 1.419 . S
C3387 H3391 0.930 . S
C3388 C3387 1.369 . S
C3388 C3397 1.429 . S
C3389 C3387 1.419 . S
C3389 C3390 1.363 . S
C3389 H3392 0.929 . S
C3390 C3389 1.363 . S
C3390 C3396 1.428 . S
H3391 C3387 0.930 . S
H3392 C3389 0.929 . S
S3393 N3394 1.613 . S
S3393 N3395 1.610 . S
N3394 S3393 1.613 . S
N3394 C3397 1.350 . S
N3395 S3393 1.610 . S
N3395 C3396 1.351 . S
C3396 C3390 1.428 . S
C3396 N3395 1.351 . S
C3396 C3397 1.434 . S
C3397 C3388 1.429 . S
C3397 N3394 1.350 . S
C3397 C3396 1.434 . S
C3398 C3399 1.369 . S
C3398 C3400 1.419 . S
C3398 H3402 0.930 . S
C3399 C3398 1.369 . S
C3399 C3408 1.429 . S
C3400 C3398 1.419 . S
C3400 C3401 1.363 . S
C3400 H3403 0.929 . S
C3401 C3400 1.363 . S
C3401 C3407 1.428 . S
H3402 C3398 0.930 . S
H3403 C3400 0.929 . S
S3404 N3405 1.613 . S
S3404 N3406 1.610 . S
N3405 S3404 1.613 . S
N3405 C3408 1.350 . S
N3406 S3404 1.610 . S
N3406 C3407 1.351 . S
C3407 C3401 1.428 . S
C3407 N3406 1.351 . S
C3407 C3408 1.434 . S
C3408 C3399 1.429 . S
C3408 N3405 1.350 . S
C3408 C3407 1.434 . S
C3409 C3410 1.369 . S
C3409 C3411 1.419 . S
C3409 H3413 0.930 . S
C3410 C3409 1.369 . S
C3410 C3419 1.429 . S
C3411 C3409 1.419 . S
C3411 C3412 1.363 . S
C3411 H3414 0.929 . S
C3412 C3411 1.363 . S
C3412 C3418 1.428 . S
H3413 C3409 0.930 . S
H3414 C3411 0.929 . S
S3415 N3416 1.613 . S
S3415 N3417 1.610 . S
N3416 S3415 1.613 . S
N3416 C3419 1.350 . S
N3417 S3415 1.610 . S
N3417 C3418 1.351 . S
C3418 C3412 1.428 . S
C3418 N3417 1.351 . S
C3418 C3419 1.434 . S
C3419 C3410 1.429 . S
C3419 N3416 1.350 . S
C3419 C3418 1.434 . S
C3420 C3421 1.369 . S
C3420 C3422 1.419 . S
C3420 H3424 0.930 . S
C3421 C3420 1.369 . S
C3421 C3430 1.429 . S
C3422 C3420 1.419 . S
C3422 C3423 1.363 . S
C3422 H3425 0.929 . S
C3423 C3422 1.363 . S
C3423 C3429 1.428 . S
H3424 C3420 0.930 . S
H3425 C3422 0.929 . S
S3426 N3427 1.613 . S
S3426 N3428 1.610 . S
N3427 S3426 1.613 . S
N3427 C3430 1.350 . S
N3428 S3426 1.610 . S
N3428 C3429 1.351 . S
C3429 C3423 1.428 . S
C3429 N3428 1.351 . S
C3429 C3430 1.434 . S
C3430 C3421 1.429 . S
C3430 N3427 1.350 . S
C3430 C3429 1.434 . S
C3431 C3432 1.369 . S
C3431 C3433 1.419 . S
C3431 H3435 0.930 . S
C3432 C3431 1.369 . S
C3432 C3441 1.429 1_565 S
C3433 C3431 1.419 . S
C3433 C3434 1.363 . S
C3433 H3436 0.929 . S
C3434 C3433 1.363 . S
C3434 C3440 1.428 . S
H3435 C3431 0.930 . S
H3436 C3433 0.929 . S
S3437 N3438 1.613 . S
S3437 N3439 1.610 . S
N3438 S3437 1.613 . S
N3438 C3441 1.350 . S
N3439 S3437 1.610 . S
N3439 C3440 1.351 1_545 S
C3440 C3434 1.428 . S
C3440 N3439 1.351 1_565 S
C3440 C3441 1.434 1_565 S
C3441 C3432 1.429 1_545 S
C3441 N3438 1.350 . S
C3441 C3440 1.434 1_545 S
C3442 C3443 1.369 . S
C3442 C3444 1.419 . S
C3442 H3446 0.930 . S
C3443 C3442 1.369 . S
C3443 C3452 1.429 . S
C3444 C3442 1.419 . S
C3444 C3445 1.363 . S
C3444 H3447 0.929 . S
C3445 C3444 1.363 . S
C3445 C3451 1.428 1_455 S
H3446 C3442 0.930 . S
H3447 C3444 0.929 . S
S3448 N3449 1.613 . S
S3448 N3450 1.610 . S
N3449 S3448 1.613 . S
N3449 C3452 1.350 1_655 S
N3450 S3448 1.610 . S
N3450 C3451 1.351 . S
C3451 C3445 1.428 1_655 S
C3451 N3450 1.351 . S
C3451 C3452 1.434 1_655 S
C3452 C3443 1.429 . S
C3452 N3449 1.350 1_455 S
C3452 C3451 1.434 1_455 S
C3453 C3454 1.369 . S
C3453 C3455 1.419 . S
C3453 H3457 0.930 . S
C3454 C3453 1.369 . S
C3454 C3463 1.429 . S
C3455 C3453 1.419 . S
C3455 C3456 1.363 . S
C3455 H3458 0.929 . S
C3456 C3455 1.363 . S
C3456 C3462 1.428 . S
H3457 C3453 0.930 . S
H3458 C3455 0.929 . S
S3459 N3460 1.613 . S
S3459 N3461 1.610 . S
N3460 S3459 1.613 . S
N3460 C3463 1.350 . S
N3461 S3459 1.610 . S
N3461 C3462 1.351 . S
C3462 C3456 1.428 . S
C3462 N3461 1.351 . S
C3462 C3463 1.434 . S
C3463 C3454 1.429 . S
C3463 N3460 1.350 . S
C3463 C3462 1.434 . S
C3464 C3465 1.369 . S
C3464 C3466 1.419 . S
C3464 H3468 0.930 . S
C3465 C3464 1.369 . S
C3465 C3474 1.429 . S
C3466 C3464 1.419 . S
C3466 C3467 1.363 . S
C3466 H3469 0.929 . S
C3467 C3466 1.363 . S
C3467 C3473 1.428 . S
H3468 C3464 0.930 . S
H3469 C3466 0.929 . S
S3470 N3471 1.613 . S
S3470 N3472 1.610 . S
N3471 S3470 1.613 . S
N3471 C3474 1.350 . S
N3472 S3470 1.610 . S
N3472 C3473 1.351 . S
C3473 C3467 1.428 . S
C3473 N3472 1.351 . S
C3473 C3474 1.434 . S
C3474 C3465 1.429 . S
C3474 N3471 1.350 . S
C3474 C3473 1.434 . S
C3475 C3476 1.369 . S
C3475 C3477 1.419 . S
C3475 H3479 0.930 . S
C3476 C3475 1.369 . S
C3476 C3485 1.429 . S
C3477 C3475 1.419 . S
C3477 C3478 1.363 . S
C3477 H3480 0.929 . S
C3478 C3477 1.363 . S
C3478 C3484 1.428 . S
H3479 C3475 0.930 . S
H3480 C3477 0.929 . S
S3481 N3482 1.613 1_455 S
S3481 N3483 1.610 . S
N3482 S3481 1.613 1_655 S
N3482 C3485 1.350 . S
N3483 S3481 1.610 . S
N3483 C3484 1.351 1_455 S
C3484 C3478 1.428 . S
C3484 N3483 1.351 1_655 S
C3484 C3485 1.434 . S
C3485 C3476 1.429 . S
C3485 N3482 1.350 . S
C3485 C3484 1.434 . S
C3486 C3487 1.369 . S
C3486 C3488 1.419 . S
C3486 H3490 0.930 . S
C3487 C3486 1.369 . S
C3487 C3496 1.429 . S
C3488 C3486 1.419 . S
C3488 C3489 1.363 . S
C3488 H3491 0.929 . S
C3489 C3488 1.363 . S
C3489 C3495 1.428 . S
H3490 C3486 0.930 . S
H3491 C3488 0.929 . S
S3492 N3493 1.613 . S
S3492 N3494 1.610 . S
N3493 S3492 1.613 . S
N3493 C3496 1.350 . S
N3494 S3492 1.610 . S
N3494 C3495 1.351 . S
C3495 C3489 1.428 . S
C3495 N3494 1.351 . S
C3495 C3496 1.434 . S
C3496 C3487 1.429 . S
C3496 N3493 1.350 . S
C3496 C3495 1.434 . S
C3497 C3498 1.369 . S
C3497 C3499 1.419 . S
C3497 H3501 0.930 . S
C3498 C3497 1.369 . S
C3498 C3507 1.429 1_545 S
C3499 C3497 1.419 . S
C3499 C3500 1.363 . S
C3499 H3502 0.929 . S
C3500 C3499 1.363 . S
C3500 C3506 1.428 1_545 S
H3501 C3497 0.930 . S
H3502 C3499 0.929 . S
S3503 N3504 1.613 . S
S3503 N3505 1.610 . S
N3504 S3503 1.613 . S
N3504 C3507 1.350 . S
N3505 S3503 1.610 . S
N3505 C3506 1.351 . S
C3506 C3500 1.428 1_565 S
C3506 N3505 1.351 . S
C3506 C3507 1.434 . S
C3507 C3498 1.429 1_565 S
C3507 N3504 1.350 . S
C3507 C3506 1.434 . S
C3508 C3509 1.369 . S
C3508 C3510 1.419 . S
C3508 H3512 0.930 . S
C3509 C3508 1.369 . S
C3509 C3518 1.429 . S
C3510 C3508 1.419 . S
C3510 C3511 1.363 . S
C3510 H3513 0.929 . S
C3511 C3510 1.363 . S
C3511 C3517 1.428 1_655 S
H3512 C3508 0.930 . S
H3513 C3510 0.929 . S
S3514 N3515 1.613 . S
S3514 N3516 1.610 . S
N3515 S3514 1.613 . S
N3515 C3518 1.350 1_455 S
N3516 S3514 1.610 . S
N3516 C3517 1.351 . S
C3517 C3511 1.428 1_455 S
C3517 N3516 1.351 . S
C3517 C3518 1.434 1_455 S
C3518 C3509 1.429 . S
C3518 N3515 1.350 1_655 S
C3518 C3517 1.434 1_655 S
C3519 C3520 1.369 . S
C3519 C3521 1.419 . S
C3519 H3523 0.930 . S
C3520 C3519 1.369 . S
C3520 C3529 1.429 . S
C3521 C3519 1.419 . S
C3521 C3522 1.363 . S
C3521 H3524 0.929 . S
C3522 C3521 1.363 . S
C3522 C3528 1.428 . S
H3523 C3519 0.930 . S
H3524 C3521 0.929 . S
S3525 N3526 1.613 . S
S3525 N3527 1.610 . S
N3526 S3525 1.613 . S
N3526 C3529 1.350 . S
N3527 S3525 1.610 . S
N3527 C3528 1.351 . S
C3528 C3522 1.428 . S
C3528 N3527 1.351 . S
C3528 C3529 1.434 . S
C3529 C3520 1.429 . S
C3529 N3526 1.350 . S
C3529 C3528 1.434 . S
C3530 C3531 1.369 . S
C3530 C3532 1.419 . S
C3530 H3534 0.930 . S
C3531 C3530 1.369 . S
C3531 C3540 1.429 1_565 S
C3532 C3530 1.419 . S
C3532 C3533 1.363 . S
C3532 H3535 0.929 . S
C3533 C3532 1.363 . S
C3533 C3539 1.428 . S
H3534 C3530 0.930 . S
H3535 C3532 0.929 . S
S3536 N3537 1.613 . S
S3536 N3538 1.610 . S
N3537 S3536 1.613 . S
N3537 C3540 1.350 . S
N3538 S3536 1.610 . S
N3538 C3539 1.351 1_545 S
C3539 C3533 1.428 . S
C3539 N3538 1.351 1_565 S
C3539 C3540 1.434 1_565 S
C3540 C3531 1.429 1_545 S
C3540 N3537 1.350 . S
C3540 C3539 1.434 1_545 S
C3541 C3542 1.369 1_655 S
C3541 C3543 1.419 1_655 S
C3541 H3545 0.930 . S
C3542 C3541 1.369 1_455 S
C3542 C3551 1.429 . S
C3543 C3541 1.419 1_455 S
C3543 C3544 1.363 . S
C3543 H3546 0.929 1_455 S
C3544 C3543 1.363 . S
C3544 C3550 1.428 . S
H3545 C3541 0.930 . S
H3546 C3543 0.929 1_655 S
S3547 N3548 1.613 . S
S3547 N3549 1.610 . S
N3548 S3547 1.613 . S
N3548 C3551 1.350 . S
N3549 S3547 1.610 . S
N3549 C3550 1.351 . S
C3550 C3544 1.428 . S
C3550 N3549 1.351 . S
C3550 C3551 1.434 . S
C3551 C3542 1.429 . S
C3551 N3548 1.350 . S
C3551 C3550 1.434 . S
C3552 C3553 1.369 . S
C3552 C3554 1.419 1_655 S
C3552 H3556 0.930 . S
C3553 C3552 1.369 . S
C3553 C3562 1.429 . S
C3554 C3552 1.419 1_455 S
C3554 C3555 1.363 . S
C3554 H3557 0.929 . S
C3555 C3554 1.363 . S
C3555 C3561 1.428 . S
H3556 C3552 0.930 . S
H3557 C3554 0.929 . S
S3558 N3559 1.613 1_455 S
S3558 N3560 1.610 . S
N3559 S3558 1.613 1_655 S
N3559 C3562 1.350 . S
N3560 S3558 1.610 . S
N3560 C3561 1.351 . S
C3561 C3555 1.428 . S
C3561 N3560 1.351 . S
C3561 C3562 1.434 1_455 S
C3562 C3553 1.429 . S
C3562 N3559 1.350 . S
C3562 C3561 1.434 1_655 S
C3563 C3564 1.369 . S
C3563 C3565 1.419 . S
C3563 H3567 0.930 . S
C3564 C3563 1.369 . S
C3564 C3573 1.429 . S
C3565 C3563 1.419 . S
C3565 C3566 1.363 . S
C3565 H3568 0.929 . S
C3566 C3565 1.363 . S
C3566 C3572 1.428 . S
H3567 C3563 0.930 . S
H3568 C3565 0.929 . S
S3569 N3570 1.613 . S
S3569 N3571 1.610 . S
N3570 S3569 1.613 . S
N3570 C3573 1.350 . S
N3571 S3569 1.610 . S
N3571 C3572 1.351 . S
C3572 C3566 1.428 . S
C3572 N3571 1.351 . S
C3572 C3573 1.434 . S
C3573 C3564 1.429 . S
C3573 N3570 1.350 . S
C3573 C3572 1.434 . S
C3574 C3575 1.369 . S
C3574 C3576 1.419 1_565 S
C3574 H3578 0.930 . S
C3575 C3574 1.369 . S
C3575 C3584 1.429 . S
C3576 C3574 1.419 1_545 S
C3576 C3577 1.363 . S
C3576 H3579 0.929 . S
C3577 C3576 1.363 . S
C3577 C3583 1.428 . S
H3578 C3574 0.930 . S
H3579 C3576 0.929 . S
S3580 N3581 1.613 . S
S3580 N3582 1.610 1_565 S
N3581 S3580 1.613 . S
N3581 C3584 1.350 . S
N3582 S3580 1.610 1_545 S
N3582 C3583 1.351 . S
C3583 C3577 1.428 . S
C3583 N3582 1.351 . S
C3583 C3584 1.434 1_545 S
C3584 C3575 1.429 . S
C3584 N3581 1.350 . S
C3584 C3583 1.434 1_565 S
C3585 C3586 1.369 . S
C3585 C3587 1.418 1_455 S
C3585 H3589 0.930 . S
C3586 C3585 1.369 . S
C3586 C3595 1.429 . S
C3587 C3585 1.418 1_655 S
C3587 C3588 1.361 1_655 S
C3587 H3590 0.931 . S
C3588 C3587 1.361 1_455 S
C3588 C3594 1.428 . S
H3589 C3585 0.930 . S
H3590 C3587 0.931 . S
S3591 N3592 1.613 . S
S3591 N3593 1.610 . S
N3592 S3591 1.613 . S
N3592 C3595 1.350 . S
N3593 S3591 1.610 . S
N3593 C3594 1.351 . S
C3594 C3588 1.428 . S
C3594 N3593 1.351 . S
C3594 C3595 1.434 . S
C3595 C3586 1.429 . S
C3595 N3592 1.350 . S
C3595 C3594 1.434 . S
C3596 C3597 1.369 . S
C3596 C3598 1.419 . S
C3596 H3600 0.930 . S
C3597 C3596 1.369 . S
C3597 C3606 1.429 . S
C3598 C3596 1.419 . S
C3598 C3599 1.363 . S
C3598 H3601 0.929 . S
C3599 C3598 1.363 . S
C3599 C3605 1.428 . S
H3600 C3596 0.930 . S
H3601 C3598 0.929 . S
S3602 N3603 1.613 . S
S3602 N3604 1.610 . S
N3603 S3602 1.613 . S
N3603 C3606 1.350 . S
N3604 S3602 1.610 . S
N3604 C3605 1.351 . S
C3605 C3599 1.428 . S
C3605 N3604 1.351 . S
C3605 C3606 1.434 . S
C3606 C3597 1.429 . S
C3606 N3603 1.350 . S
C3606 C3605 1.434 . S
C3607 C3608 1.369 . S
C3607 C3609 1.419 . S
C3607 H3611 0.930 . S
C3608 C3607 1.369 . S
C3608 C3617 1.429 . S
C3609 C3607 1.419 . S
C3609 C3610 1.363 . S
C3609 H3612 0.929 . S
C3610 C3609 1.363 . S
C3610 C3616 1.428 . S
H3611 C3607 0.930 . S
H3612 C3609 0.929 . S
S3613 N3614 1.613 . S
S3613 N3615 1.610 . S
N3614 S3613 1.613 . S
N3614 C3617 1.350 . S
N3615 S3613 1.610 . S
N3615 C3616 1.351 . S
C3616 C3610 1.428 . S
C3616 N3615 1.351 . S
C3616 C3617 1.434 . S
C3617 C3608 1.429 . S
C3617 N3614 1.350 . S
C3617 C3616 1.434 . S
C3618 C3619 1.369 . S
C3618 C3620 1.419 1_565 S
C3618 H3622 0.930 . S
C3619 C3618 1.369 . S
C3619 C3628 1.429 . S
C3620 C3618 1.419 1_545 S
C3620 C3621 1.363 1_545 S
C3620 H3623 0.929 . S
C3621 C3620 1.363 1_565 S
C3621 C3627 1.428 . S
H3622 C3618 0.930 . S
H3623 C3620 0.929 . S
S3624 N3625 1.613 . S
S3624 N3626 1.610 . S
N3625 S3624 1.613 . S
N3625 C3628 1.350 . S
N3626 S3624 1.610 . S
N3626 C3627 1.351 . S
C3627 C3621 1.428 . S
C3627 N3626 1.351 . S
C3627 C3628 1.434 . S
C3628 C3619 1.429 . S
C3628 N3625 1.350 . S
C3628 C3627 1.434 . S
C3629 C3630 1.369 . S
C3629 C3631 1.419 . S
C3629 H3633 0.930 1_455 S
C3630 C3629 1.369 . S
C3630 C3639 1.429 . S
C3631 C3629 1.419 . S
C3631 C3632 1.363 . S
C3631 H3634 0.929 . S
C3632 C3631 1.363 . S
C3632 C3638 1.428 . S
H3633 C3629 0.930 1_655 S
H3634 C3631 0.929 . S
S3635 N3636 1.613 . S
S3635 N3637 1.610 . S
N3636 S3635 1.613 . S
N3636 C3639 1.350 . S
N3637 S3635 1.610 . S
N3637 C3638 1.351 . S
C3638 C3632 1.428 . S
C3638 N3637 1.351 . S
C3638 C3639 1.434 . S
C3639 C3630 1.429 . S
C3639 N3636 1.350 . S
C3639 C3638 1.434 . S
C3640 C3641 1.369 . S
C3640 C3642 1.419 . S
C3640 H3644 0.930 . S
C3641 C3640 1.369 . S
C3641 C3650 1.429 . S
C3642 C3640 1.419 . S
C3642 C3643 1.363 . S
C3642 H3645 0.929 . S
C3643 C3642 1.363 . S
C3643 C3649 1.428 . S
H3644 C3640 0.930 . S
H3645 C3642 0.929 . S
S3646 N3647 1.613 . S
S3646 N3648 1.610 . S
N3647 S3646 1.613 . S
N3647 C3650 1.350 . S
N3648 S3646 1.610 . S
N3648 C3649 1.351 . S
C3649 C3643 1.428 . S
C3649 N3648 1.351 . S
C3649 C3650 1.434 . S
C3650 C3641 1.429 . S
C3650 N3647 1.350 . S
C3650 C3649 1.434 . S
C3651 C3652 1.369 1_556 S
C3651 C3653 1.419 1_565 S
C3651 H3655 0.930 . S
C3652 C3651 1.369 1_554 S
C3652 C3661 1.429 . S
C3653 C3651 1.419 1_545 S
C3653 C3654 1.363 . S
C3653 H3656 0.929 . S
C3654 C3653 1.363 . S
C3654 C3660 1.428 1_556 S
H3655 C3651 0.930 . S
H3656 C3653 0.929 . S
S3657 N3658 1.613 1_545 S
S3657 N3659 1.610 . S
N3658 S3657 1.613 1_565 S
N3658 C3661 1.350 . S
N3659 S3657 1.610 . S
N3659 C3660 1.351 . S
C3660 C3654 1.428 1_554 S
C3660 N3659 1.351 . S
C3660 C3661 1.434 1_545 S
C3661 C3652 1.429 . S
C3661 N3658 1.350 . S
C3661 C3660 1.434 1_565 S
C3662 C3663 1.369 . S
C3662 C3664 1.419 1_455 S
C3662 H3666 0.930 . S
C3663 C3662 1.369 . S
C3663 C3672 1.429 1_554 S
C3664 C3662 1.419 1_655 S
C3664 C3665 1.363 1_554 S
C3664 H3667 0.929 . S
C3665 C3664 1.363 1_556 S
C3665 C3671 1.428 . S
H3666 C3662 0.930 . S
H3667 C3664 0.929 . S
S3668 N3669 1.613 . S
S3668 N3670 1.610 1_455 S
N3669 S3668 1.613 . S
N3669 C3672 1.350 . S
N3670 S3668 1.610 1_655 S
N3670 C3671 1.351 . S
C3671 C3665 1.428 . S
C3671 N3670 1.351 . S
C3671 C3672 1.434 1_655 S
C3672 C3663 1.429 1_556 S
C3672 N3669 1.350 . S
C3672 C3671 1.434 1_455 S
C3673 C3674 1.369 1_554 S
C3673 C3675 1.419 . S
C3673 H3677 0.930 . S
C3674 C3673 1.369 1_556 S
C3674 C3683 1.429 . S
C3675 C3673 1.419 . S
C3675 C3676 1.363 . S
C3675 H3678 0.929 . S
C3676 C3675 1.363 . S
C3676 C3682 1.431 1_554 S
H3677 C3673 0.930 . S
H3678 C3675 0.929 . S
S3679 N3680 1.613 . S
S3679 N3681 1.610 . S
N3680 S3679 1.613 . S
N3680 C3683 1.350 . S
N3681 S3679 1.610 . S
N3681 C3682 1.350 . S
C3682 C3676 1.431 1_556 S
C3682 N3681 1.350 . S
C3682 C3683 1.432 . S
C3683 C3674 1.429 . S
C3683 N3680 1.350 . S
C3683 C3682 1.432 . S
C3684 C3685 1.369 . S
C3684 C3686 1.419 . S
C3684 H3688 0.930 . S
C3685 C3684 1.369 . S
C3685 C3694 1.429 . S
C3686 C3684 1.419 . S
C3686 C3687 1.363 . S
C3686 H3689 0.929 . S
C3687 C3686 1.363 . S
C3687 C3693 1.428 1_545 S
H3688 C3684 0.930 . S
H3689 C3686 0.929 . S
S3690 N3691 1.613 . S
S3690 N3692 1.610 . S
N3691 S3690 1.613 . S
N3691 C3694 1.350 1_565 S
N3692 S3690 1.610 . S
N3692 C3693 1.351 . S
C3693 C3687 1.428 1_565 S
C3693 N3692 1.351 . S
C3693 C3694 1.434 1_565 S
C3694 C3685 1.429 . S
C3694 N3691 1.350 1_545 S
C3694 C3693 1.434 1_545 S
C3695 C3696 1.369 . S
C3695 C3697 1.419 . S
C3695 H3699 0.930 . S
C3696 C3695 1.369 . S
C3696 C3705 1.429 . S
C3697 C3695 1.419 . S
C3697 C3698 1.363 . S
C3697 H3700 0.929 . S
C3698 C3697 1.363 . S
C3698 C3704 1.428 . S
H3699 C3695 0.930 . S
H3700 C3697 0.929 . S
S3701 N3702 1.613 1_455 S
S3701 N3703 1.610 . S
N3702 S3701 1.613 1_655 S
N3702 C3705 1.350 . S
N3703 S3701 1.610 . S
N3703 C3704 1.351 1_455 S
C3704 C3698 1.428 . S
C3704 N3703 1.351 1_655 S
C3704 C3705 1.434 . S
C3705 C3696 1.429 . S
C3705 N3702 1.350 . S
C3705 C3704 1.434 . S
C3706 C3707 1.369 . S
C3706 C3708 1.419 . S
C3706 H3710 0.930 . S
C3707 C3706 1.369 . S
C3707 C3716 1.429 . S
C3708 C3706 1.419 . S
C3708 C3709 1.363 . S
C3708 H3711 0.929 . S
C3709 C3708 1.363 . S
C3709 C3715 1.428 . S
H3710 C3706 0.930 . S
H3711 C3708 0.929 . S
S3712 N3713 1.613 . S
S3712 N3714 1.610 . S
N3713 S3712 1.613 . S
N3713 C3716 1.350 . S
N3714 S3712 1.610 . S
N3714 C3715 1.351 . S
C3715 C3709 1.428 . S
C3715 N3714 1.351 . S
C3715 C3716 1.434 . S
C3716 C3707 1.429 . S
C3716 N3713 1.350 . S
C3716 C3715 1.434 . S
C3717 C3718 1.369 . S
C3717 C3719 1.419 1_565 S
C3717 H3721 0.930 . S
C3718 C3717 1.369 . S
C3718 C3727 1.429 1_554 S
C3719 C3717 1.419 1_545 S
C3719 C3720 1.363 1_554 S
C3719 H3722 0.929 . S
C3720 C3719 1.363 1_556 S
C3720 C3726 1.428 . S
H3721 C3717 0.930 . S
H3722 C3719 0.929 . S
S3723 N3724 1.613 . S
S3723 N3725 1.610 1_565 S
N3724 S3723 1.613 . S
N3724 C3727 1.350 . S
N3725 S3723 1.610 1_545 S
N3725 C3726 1.351 . S
C3726 C3720 1.428 . S
C3726 N3725 1.351 . S
C3726 C3727 1.434 1_545 S
C3727 C3718 1.429 1_556 S
C3727 N3724 1.350 . S
C3727 C3726 1.434 1_565 S
C3728 C3729 1.369 . S
C3728 C3730 1.419 1_655 S
C3728 H3732 0.930 . S
C3729 C3728 1.369 . S
C3729 C3738 1.429 1_556 S
C3730 C3728 1.419 1_455 S
C3730 C3731 1.363 1_556 S
C3730 H3733 0.929 . S
C3731 C3730 1.363 1_554 S
C3731 C3737 1.428 . S
H3732 C3728 0.930 . S
H3733 C3730 0.929 . S
S3734 N3735 1.613 . S
S3734 N3736 1.610 1_655 S
N3735 S3734 1.613 . S
N3735 C3738 1.350 . S
N3736 S3734 1.610 1_455 S
N3736 C3737 1.351 . S
C3737 C3731 1.428 . S
C3737 N3736 1.351 . S
C3737 C3738 1.434 1_455 S
C3738 C3729 1.429 1_554 S
C3738 N3735 1.350 . S
C3738 C3737 1.434 1_655 S
C3739 C3740 1.369 1_556 S
C3739 C3741 1.419 . S
C3739 H3743 0.930 . S
C3740 C3739 1.369 1_554 S
C3740 C3749 1.429 . S
C3741 C3739 1.419 . S
C3741 C3742 1.363 . S
C3741 H3744 0.929 . S
C3742 C3741 1.363 . S
C3742 C3748 1.428 1_556 S
H3743 C3739 0.930 . S
H3744 C3741 0.929 . S
S3745 N3746 1.613 . S
S3745 N3747 1.610 . S
N3746 S3745 1.613 . S
N3746 C3749 1.350 . S
N3747 S3745 1.610 . S
N3747 C3748 1.351 . S
C3748 C3742 1.428 1_554 S
C3748 N3747 1.351 . S
C3748 C3749 1.434 . S
C3749 C3740 1.429 . S
C3749 N3746 1.350 . S
C3749 C3748 1.434 . S
C3750 C3751 1.369 . S
C3750 C3752 1.419 1_455 S
C3750 H3754 0.930 . S
C3751 C3750 1.369 . S
C3751 C3760 1.429 . S
C3752 C3750 1.419 1_655 S
C3752 C3753 1.363 . S
C3752 H3755 0.929 . S
C3753 C3752 1.363 . S
C3753 C3759 1.428 . S
H3754 C3750 0.930 . S
H3755 C3752 0.929 . S
S3756 N3757 1.613 1_655 S
S3756 N3758 1.610 . S
N3757 S3756 1.613 1_455 S
N3757 C3760 1.350 . S
N3758 S3756 1.610 . S
N3758 C3759 1.351 . S
C3759 C3753 1.428 . S
C3759 N3758 1.351 . S
C3759 C3760 1.434 1_655 S
C3760 C3751 1.429 . S
C3760 N3757 1.350 . S
C3760 C3759 1.434 1_455 S
C3761 C3762 1.369 . S
C3761 C3763 1.419 . S
C3761 H3765 0.930 . S
C3762 C3761 1.369 . S
C3762 C3771 1.429 . S
C3763 C3761 1.419 . S
C3763 C3764 1.363 . S
C3763 H3766 0.929 . S
C3764 C3763 1.363 . S
C3764 C3770 1.428 . S
H3765 C3761 0.930 . S
H3766 C3763 0.929 . S
S3767 N3768 1.613 . S
S3767 N3769 1.610 . S
N3768 S3767 1.613 . S
N3768 C3771 1.350 . S
N3769 S3767 1.610 . S
N3769 C3770 1.351 . S
C3770 C3764 1.428 . S
C3770 N3769 1.351 . S
C3770 C3771 1.434 . S
C3771 C3762 1.429 . S
C3771 N3768 1.350 . S
C3771 C3770 1.434 . S
C3772 C3773 1.369 . S
C3772 C3774 1.419 1_565 S
C3772 H3776 0.930 . S
C3773 C3772 1.369 . S
C3773 C3782 1.429 . S
C3774 C3772 1.419 1_545 S
C3774 C3775 1.363 . S
C3774 H3777 0.929 . S
C3775 C3774 1.363 . S
C3775 C3781 1.428 . S
H3776 C3772 0.930 . S
H3777 C3774 0.929 . S
S3778 N3779 1.613 1_545 S
S3778 N3780 1.610 . S
N3779 S3778 1.613 1_565 S
N3779 C3782 1.350 . S
N3780 S3778 1.610 . S
N3780 C3781 1.351 . S
C3781 C3775 1.428 . S
C3781 N3780 1.351 . S
C3781 C3782 1.434 1_545 S
C3782 C3773 1.429 . S
C3782 N3779 1.350 . S
C3782 C3781 1.434 1_565 S
C3783 C3784 1.369 . S
C3783 C3785 1.419 . S
C3783 H3787 0.930 . S
C3784 C3783 1.369 . S
C3784 C3793 1.429 . S
C3785 C3783 1.419 . S
C3785 C3786 1.363 . S
C3785 H3788 0.929 . S
C3786 C3785 1.363 . S
C3786 C3792 1.428 . S
H3787 C3783 0.930 . S
H3788 C3785 0.929 . S
S3789 N3790 1.613 . S
S3789 N3791 1.610 . S
N3790 S3789 1.613 . S
N3790 C3793 1.350 . S
N3791 S3789 1.610 . S
N3791 C3792 1.351 . S
C3792 C3786 1.428 . S
C3792 N3791 1.351 . S
C3792 C3793 1.434 . S
C3793 C3784 1.429 . S
C3793 N3790 1.350 . S
C3793 C3792 1.434 . S
C3794 C3795 1.369 . S
C3794 C3796 1.419 . S
C3794 H3798 0.930 . S
C3795 C3794 1.369 . S
C3795 C3804 1.429 . S
C3796 C3794 1.419 . S
C3796 C3797 1.363 . S
C3796 H3799 0.929 . S
C3797 C3796 1.363 . S
C3797 C3803 1.428 . S
H3798 C3794 0.930 . S
H3799 C3796 0.929 . S
S3800 N3801 1.613 . S
S3800 N3802 1.610 . S
N3801 S3800 1.613 . S
N3801 C3804 1.350 . S
N3802 S3800 1.610 . S
N3802 C3803 1.351 . S
C3803 C3797 1.428 . S
C3803 N3802 1.351 . S
C3803 C3804 1.434 . S
C3804 C3795 1.429 . S
C3804 N3801 1.350 . S
C3804 C3803 1.434 . S
C3805 C3806 1.369 . S
C3805 C3807 1.428 . S
C3805 H3809 0.930 . S
C3806 C3805 1.369 . S
C3806 C3815 1.429 . S
C3807 C3805 1.428 . S
C3807 C3808 1.362 . S
C3807 H3810 0.921 1_545 S
C3808 C3807 1.362 . S
C3808 C3814 1.428 . S
H3809 C3805 0.930 . S
H3810 C3807 0.921 1_565 S
S3811 N3812 1.613 . S
S3811 N3813 1.610 . S
N3812 S3811 1.613 . S
N3812 C3815 1.350 . S
N3813 S3811 1.610 . S
N3813 C3814 1.351 . S
C3814 C3808 1.428 . S
C3814 N3813 1.351 . S
C3814 C3815 1.434 . S
C3815 C3806 1.429 . S
C3815 N3812 1.350 . S
C3815 C3814 1.434 . S
C3816 C3817 1.369 . S
C3816 C3818 1.419 . S
C3816 H3820 0.930 . S
C3817 C3816 1.369 . S
C3817 C3826 1.429 . S
C3818 C3816 1.419 . S
C3818 C3819 1.363 . S
C3818 H3821 0.929 . S
C3819 C3818 1.363 . S
C3819 C3825 1.428 . S
H3820 C3816 0.930 . S
H3821 C3818 0.929 . S
S3822 N3823 1.613 . S
S3822 N3824 1.610 . S
N3823 S3822 1.613 . S
N3823 C3826 1.350 . S
N3824 S3822 1.610 . S
N3824 C3825 1.351 . S
C3825 C3819 1.428 . S
C3825 N3824 1.351 . S
C3825 C3826 1.434 . S
C3826 C3817 1.429 . S
C3826 N3823 1.350 . S
C3826 C3825 1.434 . S
C3827 C3828 1.369 . S
C3827 C3829 1.419 . S
C3827 H3831 0.930 . S
C3828 C3827 1.369 . S
C3828 C3837 1.429 . S
C3829 C3827 1.419 . S
C3829 C3830 1.363 . S
C3829 H3832 0.929 . S
C3830 C3829 1.363 . S
C3830 C3836 1.428 . S
H3831 C3827 0.930 . S
H3832 C3829 0.929 . S
S3833 N3834 1.613 . S
S3833 N3835 1.610 . S
N3834 S3833 1.613 . S
N3834 C3837 1.350 . S
N3835 S3833 1.610 . S
N3835 C3836 1.351 . S
C3836 C3830 1.428 . S
C3836 N3835 1.351 . S
C3836 C3837 1.434 . S
C3837 C3828 1.429 . S
C3837 N3834 1.350 . S
C3837 C3836 1.434 . S
C3838 C3839 1.369 . S
C3838 C3840 1.419 . S
C3838 H3842 0.930 . S
C3839 C3838 1.369 . S
C3839 C3848 1.429 . S
C3840 C3838 1.419 . S
C3840 C3841 1.363 . S
C3840 H3843 0.929 . S
C3841 C3840 1.363 . S
C3841 C3847 1.428 . S
H3842 C3838 0.930 . S
H3843 C3840 0.929 . S
S3844 N3845 1.613 . S
S3844 N3846 1.610 . S
N3845 S3844 1.613 . S
N3845 C3848 1.350 . S
N3846 S3844 1.610 . S
N3846 C3847 1.351 . S
C3847 C3841 1.428 . S
C3847 N3846 1.351 . S
C3847 C3848 1.434 . S
C3848 C3839 1.429 . S
C3848 N3845 1.350 . S
C3848 C3847 1.434 . S
C3849 C3850 1.369 . S
C3849 C3851 1.419 . S
C3849 H3853 0.930 . S
C3850 C3849 1.369 . S
C3850 C3859 1.429 . S
C3851 C3849 1.419 . S
C3851 C3852 1.363 . S
C3851 H3854 0.929 . S
C3852 C3851 1.363 . S
C3852 C3858 1.428 . S
H3853 C3849 0.930 . S
H3854 C3851 0.929 . S
S3855 N3856 1.613 . S
S3855 N3857 1.610 . S
N3856 S3855 1.613 . S
N3856 C3859 1.350 . S
N3857 S3855 1.610 . S
N3857 C3858 1.351 . S
C3858 C3852 1.428 . S
C3858 N3857 1.351 . S
C3858 C3859 1.434 . S
C3859 C3850 1.429 . S
C3859 N3856 1.350 . S
C3859 C3858 1.434 . S
C3860 C3861 1.369 . S
C3860 C3862 1.419 . S
C3860 H3864 0.930 . S
C3861 C3860 1.369 . S
C3861 C3870 1.429 . S
C3862 C3860 1.419 . S
C3862 C3863 1.363 . S
C3862 H3865 0.929 . S
C3863 C3862 1.363 . S
C3863 C3869 1.428 . S
H3864 C3860 0.930 . S
H3865 C3862 0.929 . S
S3866 N3867 1.613 . S
S3866 N3868 1.610 . S
N3867 S3866 1.613 . S
N3867 C3870 1.350 . S
N3868 S3866 1.610 . S
N3868 C3869 1.351 . S
C3869 C3863 1.428 . S
C3869 N3868 1.351 . S
C3869 C3870 1.434 . S
C3870 C3861 1.429 . S
C3870 N3867 1.350 . S
C3870 C3869 1.434 . S
C3871 C3872 1.369 . S
C3871 C3873 1.419 . S
C3871 H3875 0.930 . S
C3872 C3871 1.369 . S
C3872 C3881 1.429 . S
C3873 C3871 1.419 . S
C3873 C3874 1.363 . S
C3873 H3876 0.929 . S
C3874 C3873 1.363 . S
C3874 C3880 1.428 . S
H3875 C3871 0.930 . S
H3876 C3873 0.929 . S
S3877 N3878 1.613 . S
S3877 N3879 1.610 . S
N3878 S3877 1.613 . S
N3878 C3881 1.350 . S
N3879 S3877 1.610 . S
N3879 C3880 1.351 . S
C3880 C3874 1.428 . S
C3880 N3879 1.351 . S
C3880 C3881 1.434 . S
C3881 C3872 1.429 . S
C3881 N3878 1.350 . S
C3881 C3880 1.434 . S
C3882 C3883 1.369 . S
C3882 C3884 1.419 . S
C3882 H3886 0.930 . S
C3883 C3882 1.369 . S
C3883 C3892 1.429 . S
C3884 C3882 1.419 . S
C3884 C3885 1.363 . S
C3884 H3887 0.929 . S
C3885 C3884 1.363 . S
C3885 C3891 1.428 . S
H3886 C3882 0.930 . S
H3887 C3884 0.929 . S
S3888 N3889 1.613 . S
S3888 N3890 1.610 . S
N3889 S3888 1.613 . S
N3889 C3892 1.350 . S
N3890 S3888 1.610 . S
N3890 C3891 1.351 . S
C3891 C3885 1.428 . S
C3891 N3890 1.351 . S
C3891 C3892 1.434 . S
C3892 C3883 1.429 . S
C3892 N3889 1.350 . S
C3892 C3891 1.434 . S
C3893 C3894 1.369 . S
C3893 C3895 1.419 . S
C3893 H3897 0.930 . S
C3894 C3893 1.369 . S
C3894 C3903 1.429 . S
C3895 C3893 1.419 . S
C3895 C3896 1.363 . S
C3895 H3898 0.929 . S
C3896 C3895 1.363 . S
C3896 C3902 1.428 . S
H3897 C3893 0.930 . S
H3898 C3895 0.929 . S
S3899 N3900 1.613 . S
S3899 N3901 1.610 . S
N3900 S3899 1.613 . S
N3900 C3903 1.350 . S
N3901 S3899 1.610 . S
N3901 C3902 1.351 . S
C3902 C3896 1.428 . S
C3902 N3901 1.351 . S
C3902 C3903 1.434 . S
C3903 C3894 1.429 . S
C3903 N3900 1.350 . S
C3903 C3902 1.434 . S
C3904 C3905 1.369 . S
C3904 C3906 1.419 . S
C3904 H3908 0.930 . S
C3905 C3904 1.369 . S
C3905 C3914 1.429 . S
C3906 C3904 1.419 . S
C3906 C3907 1.363 . S
C3906 H3909 0.929 . S
C3907 C3906 1.363 . S
C3907 C3913 1.428 . S
H3908 C3904 0.930 . S
H3909 C3906 0.929 . S
S3910 N3911 1.613 . S
S3910 N3912 1.610 . S
N3911 S3910 1.613 . S
N3911 C3914 1.350 . S
N3912 S3910 1.610 . S
N3912 C3913 1.351 . S
C3913 C3907 1.428 . S
C3913 N3912 1.351 . S
C3913 C3914 1.434 . S
C3914 C3905 1.429 . S
C3914 N3911 1.350 . S
C3914 C3913 1.434 . S
C3915 C3916 1.369 . S
C3915 C3917 1.419 . S
C3915 H3919 0.930 . S
C3916 C3915 1.369 . S
C3916 C3925 1.429 . S
C3917 C3915 1.419 . S
C3917 C3918 1.363 . S
C3917 H3920 0.929 . S
C3918 C3917 1.363 . S
C3918 C3924 1.428 . S
H3919 C3915 0.930 . S
H3920 C3917 0.929 . S
S3921 N3922 1.613 . S
S3921 N3923 1.610 . S
N3922 S3921 1.613 . S
N3922 C3925 1.350 . S
N3923 S3921 1.610 . S
N3923 C3924 1.351 . S
C3924 C3918 1.428 . S
C3924 N3923 1.351 . S
C3924 C3925 1.434 . S
C3925 C3916 1.429 . S
C3925 N3922 1.350 . S
C3925 C3924 1.434 . S
C3926 C3927 1.369 . S
C3926 C3928 1.419 . S
C3926 H3930 0.930 . S
C3927 C3926 1.369 . S
C3927 C3936 1.429 . S
C3928 C3926 1.419 . S
C3928 C3929 1.363 . S
C3928 H3931 0.929 . S
C3929 C3928 1.363 . S
C3929 C3935 1.428 . S
H3930 C3926 0.930 . S
H3931 C3928 0.929 . S
S3932 N3933 1.613 . S
S3932 N3934 1.610 . S
N3933 S3932 1.613 . S
N3933 C3936 1.350 . S
N3934 S3932 1.610 . S
N3934 C3935 1.351 . S
C3935 C3929 1.428 . S
C3935 N3934 1.351 . S
C3935 C3936 1.434 . S
C3936 C3927 1.429 . S
C3936 N3933 1.350 . S
C3936 C3935 1.434 . S
C3937 C3938 1.369 . S
C3937 C3939 1.419 . S
C3937 H3941 0.930 . S
C3938 C3937 1.369 . S
C3938 C3947 1.429 . S
C3939 C3937 1.419 . S
C3939 C3940 1.363 . S
C3939 H3942 0.929 . S
C3940 C3939 1.363 . S
C3940 C3946 1.428 . S
H3941 C3937 0.930 . S
H3942 C3939 0.929 . S
S3943 N3944 1.613 . S
S3943 N3945 1.610 . S
N3944 S3943 1.613 . S
N3944 C3947 1.350 . S
N3945 S3943 1.610 . S
N3945 C3946 1.351 . S
C3946 C3940 1.428 . S
C3946 N3945 1.351 . S
C3946 C3947 1.434 . S
C3947 C3938 1.429 . S
C3947 N3944 1.350 . S
C3947 C3946 1.434 . S
C3948 C3949 1.369 . S
C3948 C3950 1.419 . S
C3948 H3952 0.930 . S
C3949 C3948 1.369 . S
C3949 C3958 1.429 1_455 S
C3950 C3948 1.419 . S
C3950 C3951 1.363 1_455 S
C3950 H3953 0.929 . S
C3951 C3950 1.363 1_655 S
C3951 C3957 1.428 . S
H3952 C3948 0.930 . S
H3953 C3950 0.929 . S
S3954 N3955 1.613 . S
S3954 N3956 1.610 . S
N3955 S3954 1.613 . S
N3955 C3958 1.350 . S
N3956 S3954 1.610 . S
N3956 C3957 1.351 . S
C3957 C3951 1.428 . S
C3957 N3956 1.351 . S
C3957 C3958 1.434 . S
C3958 C3949 1.429 1_655 S
C3958 N3955 1.350 . S
C3958 C3957 1.434 . S
C3959 C3960 1.369 . S
C3959 C3961 1.419 . S
C3959 H3963 0.930 . S
C3960 C3959 1.369 . S
C3960 C3969 1.429 . S
C3961 C3959 1.419 . S
C3961 C3962 1.363 . S
C3961 H3964 0.929 . S
C3962 C3961 1.363 . S
C3962 C3968 1.428 . S
H3963 C3959 0.930 . S
H3964 C3961 0.929 . S
S3965 N3966 1.613 . S
S3965 N3967 1.610 . S
N3966 S3965 1.613 . S
N3966 C3969 1.350 . S
N3967 S3965 1.610 . S
N3967 C3968 1.351 . S
C3968 C3962 1.428 . S
C3968 N3967 1.351 . S
C3968 C3969 1.434 . S
C3969 C3960 1.429 . S
C3969 N3966 1.350 . S
C3969 C3968 1.434 . S
C3970 C3971 1.369 . S
C3970 C3972 1.419 . S
C3970 H3974 0.930 . S
C3971 C3970 1.369 . S
C3971 C3980 1.429 1_565 S
C3972 C3970 1.419 . S
C3972 C3973 1.363 1_565 S
C3972 H3975 0.929 . S
C3973 C3972 1.363 1_545 S
C3973 C3979 1.428 . S
H3974 C3970 0.930 . S
H3975 C3972 0.929 . S
S3976 N3977 1.613 . S
S3976 N3978 1.610 . S
N3977 S3976 1.613 . S
N3977 C3980 1.350 . S
N3978 S3976 1.610 . S
N3978 C3979 1.351 . S
C3979 C3973 1.428 . S
C3979 N3978 1.351 . S
C3979 C3980 1.434 . S
C3980 C3971 1.429 1_545 S
C3980 N3977 1.350 . S
C3980 C3979 1.434 . S
C3981 C3982 1.369 . S
C3981 C3983 1.419 . S
C3981 H3985 0.930 . S
C3982 C3981 1.369 . S
C3982 C3991 1.429 1_565 S
C3983 C3981 1.419 . S
C3983 C3984 1.363 1_565 S
C3983 H3986 0.929 . S
C3984 C3983 1.363 1_545 S
C3984 C3990 1.428 . S
H3985 C3981 0.930 . S
H3986 C3983 0.929 . S
S3987 N3988 1.613 . S
S3987 N3989 1.610 . S
N3988 S3987 1.613 . S
N3988 C3991 1.350 . S
N3989 S3987 1.610 . S
N3989 C3990 1.351 . S
C3990 C3984 1.428 . S
C3990 N3989 1.351 . S
C3990 C3991 1.434 . S
C3991 C3982 1.429 1_545 S
C3991 N3988 1.350 . S
C3991 C3990 1.434 . S
C3992 C3993 1.369 . S
C3992 C3994 1.419 . S
C3992 H3996 0.930 . S
C3993 C3992 1.369 . S
C3993 C4002 1.429 1_655 S
C3994 C3992 1.419 . S
C3994 C3995 1.363 1_655 S
C3994 H3997 0.929 . S
C3995 C3994 1.363 1_455 S
C3995 C4001 1.428 . S
H3996 C3992 0.930 . S
H3997 C3994 0.929 . S
S3998 N3999 1.613 . S
S3998 N4000 1.610 . S
N3999 S3998 1.613 . S
N3999 C4002 1.350 . S
N4000 S3998 1.610 . S
N4000 C4001 1.351 . S
C4001 C3995 1.428 . S
C4001 N4000 1.351 . S
C4001 C4002 1.434 . S
C4002 C3993 1.429 1_455 S
C4002 N3999 1.350 . S
C4002 C4001 1.434 . S
C4003 C4004 1.369 . S
C4003 C4005 1.419 . S
C4003 H4007 0.930 . S
C4004 C4003 1.369 . S
C4004 C4013 1.429 . S
C4005 C4003 1.419 . S
C4005 C4006 1.363 . S
C4005 H4008 0.929 . S
C4006 C4005 1.363 . S
C4006 C4012 1.428 . S
H4007 C4003 0.930 . S
H4008 C4005 0.929 . S
S4009 N4010 1.613 . S
S4009 N4011 1.610 . S
N4010 S4009 1.613 . S
N4010 C4013 1.350 . S
N4011 S4009 1.610 . S
N4011 C4012 1.351 . S
C4012 C4006 1.428 . S
C4012 N4011 1.351 . S
C4012 C4013 1.434 . S
C4013 C4004 1.429 . S
C4013 N4010 1.350 . S
C4013 C4012 1.434 . S
C4014 C4015 1.369 . S
C4014 C4016 1.419 . S
C4014 H4018 0.930 . S
C4015 C4014 1.369 . S
C4015 C4024 1.429 1_655 S
C4016 C4014 1.419 . S
C4016 C4017 1.363 1_655 S
C4016 H4019 0.929 . S
C4017 C4016 1.363 1_455 S
C4017 C4023 1.428 . S
H4018 C4014 0.930 . S
H4019 C4016 0.929 . S
S4020 N4021 1.613 . S
S4020 N4022 1.610 . S
N4021 S4020 1.613 . S
N4021 C4024 1.350 . S
N4022 S4020 1.610 . S
N4022 C4023 1.351 . S
C4023 C4017 1.428 . S
C4023 N4022 1.351 . S
C4023 C4024 1.434 . S
C4024 C4015 1.429 1_455 S
C4024 N4021 1.350 . S
C4024 C4023 1.434 . S
C4025 C4026 1.369 . S
C4025 C4027 1.419 . S
C4025 H4029 0.930 . S
C4026 C4025 1.369 . S
C4026 C4035 1.429 . S
C4027 C4025 1.419 . S
C4027 C4028 1.363 . S
C4027 H4030 0.929 . S
C4028 C4027 1.363 . S
C4028 C4034 1.428 . S
H4029 C4025 0.930 . S
H4030 C4027 0.929 . S
S4031 N4032 1.613 1_545 S
S4031 N4033 1.610 1_545 S
N4032 S4031 1.613 1_565 S
N4032 C4035 1.350 . S
N4033 S4031 1.610 1_565 S
N4033 C4034 1.351 . S
C4034 C4028 1.428 . S
C4034 N4033 1.351 . S
C4034 C4035 1.434 . S
C4035 C4026 1.429 . S
C4035 N4032 1.350 . S
C4035 C4034 1.434 . S
C4036 C4037 1.369 . S
C4036 C4038 1.419 . S
C4036 H4040 0.930 . S
C4037 C4036 1.369 . S
C4037 C4046 1.429 1_545 S
C4038 C4036 1.419 . S
C4038 C4039 1.363 1_545 S
C4038 H4041 0.929 . S
C4039 C4038 1.363 1_565 S
C4039 C4045 1.428 . S
H4040 C4036 0.930 . S
H4041 C4038 0.929 . S
S4042 N4043 1.613 1_655 S
S4042 N4044 1.610 1_655 S
N4043 S4042 1.613 1_455 S
N4043 C4046 1.350 . S
N4044 S4042 1.610 1_455 S
N4044 C4045 1.351 . S
C4045 C4039 1.428 . S
C4045 N4044 1.351 . S
C4045 C4046 1.434 . S
C4046 C4037 1.429 1_565 S
C4046 N4043 1.350 . S
C4046 C4045 1.434 . S
C4047 C4048 1.369 . S
C4047 C4049 1.419 1_655 S
C4047 H4051 0.930 . S
C4048 C4047 1.369 . S
C4048 C4057 1.429 . S
C4049 C4047 1.419 1_455 S
C4049 C4050 1.363 . S
C4049 H4052 0.929 . S
C4050 C4049 1.363 . S
C4050 C4056 1.428 . S
H4051 C4047 0.930 . S
H4052 C4049 0.929 . S
S4053 N4054 1.613 1_545 S
S4053 N4055 1.610 1_655 S
N4054 S4053 1.613 1_565 S
N4054 C4057 1.350 . S
N4055 S4053 1.610 1_455 S
N4055 C4056 1.351 1_545 S
C4056 C4050 1.428 . S
C4056 N4055 1.351 1_565 S
C4056 C4057 1.434 1_455 S
C4057 C4048 1.429 . S
C4057 N4054 1.350 . S
C4057 C4056 1.434 1_655 S
C4058 C4059 1.369 . S
C4058 C4060 1.419 . S
C4058 H4062 0.930 . S
C4059 C4058 1.369 . S
C4059 C4068 1.429 . S
C4060 C4058 1.419 . S
C4060 C4061 1.363 . S
C4060 H4063 0.929 . S
C4061 C4060 1.363 . S
C4061 C4067 1.428 . S
H4062 C4058 0.930 . S
H4063 C4060 0.929 . S
S4064 N4065 1.613 . S
S4064 N4066 1.610 . S
N4065 S4064 1.613 . S
N4065 C4068 1.350 . S
N4066 S4064 1.610 . S
N4066 C4067 1.351 . S
C4067 C4061 1.428 . S
C4067 N4066 1.351 . S
C4067 C4068 1.434 . S
C4068 C4059 1.429 . S
C4068 N4065 1.350 . S
C4068 C4067 1.434 . S
C4069 C4070 1.369 . S
C4069 C4071 1.419 . S
C4069 H4073 0.930 . S
C4070 C4069 1.369 . S
C4070 C4079 1.429 1_545 S
C4071 C4069 1.419 . S
C4071 C4072 1.363 1_545 S
C4071 H4074 0.929 . S
C4072 C4071 1.363 1_565 S
C4072 C4078 1.428 . S
H4073 C4069 0.930 . S
H4074 C4071 0.929 . S
S4075 N4076 1.613 . S
S4075 N4077 1.610 . S
N4076 S4075 1.613 . S
N4076 C4079 1.350 . S
N4077 S4075 1.610 . S
N4077 C4078 1.351 . S
C4078 C4072 1.428 . S
C4078 N4077 1.351 . S
C4078 C4079 1.434 . S
C4079 C4070 1.429 1_565 S
C4079 N4076 1.350 . S
C4079 C4078 1.434 . S
C4080 C4081 1.369 . S
C4080 C4082 1.419 . S
C4080 H4084 0.930 . S
C4081 C4080 1.369 . S
C4081 C4090 1.429 . S
C4082 C4080 1.419 . S
C4082 C4083 1.363 . S
C4082 H4085 0.929 . S
C4083 C4082 1.363 . S
C4083 C4089 1.428 . S
H4084 C4080 0.930 . S
H4085 C4082 0.929 . S
S4086 N4087 1.613 . S
S4086 N4088 1.610 . S
N4087 S4086 1.613 . S
N4087 C4090 1.350 . S
N4088 S4086 1.610 . S
N4088 C4089 1.351 . S
C4089 C4083 1.428 . S
C4089 N4088 1.351 . S
C4089 C4090 1.434 . S
C4090 C4081 1.429 . S
C4090 N4087 1.350 . S
C4090 C4089 1.434 . S
C4091 C4092 1.369 . S
C4091 C4093 1.419 . S
C4091 H4095 0.930 . S
C4092 C4091 1.369 . S
C4092 C4101 1.429 . S
C4093 C4091 1.419 . S
C4093 C4094 1.363 . S
C4093 H4096 0.929 . S
C4094 C4093 1.363 . S
C4094 C4100 1.428 . S
H4095 C4091 0.930 . S
H4096 C4093 0.929 . S
S4097 N4098 1.613 . S
S4097 N4099 1.610 . S
N4098 S4097 1.613 . S
N4098 C4101 1.350 . S
N4099 S4097 1.610 . S
N4099 C4100 1.351 . S
C4100 C4094 1.428 . S
C4100 N4099 1.351 . S
C4100 C4101 1.434 . S
C4101 C4092 1.429 . S
C4101 N4098 1.350 . S
C4101 C4100 1.434 . S
C4102 C4103 1.369 . S
C4102 C4104 1.419 . S
C4102 H4106 0.930 . S
C4103 C4102 1.369 . S
C4103 C4112 1.429 . S
C4104 C4102 1.419 . S
C4104 C4105 1.363 . S
C4104 H4107 0.929 . S
C4105 C4104 1.363 . S
C4105 C4111 1.428 . S
H4106 C4102 0.930 . S
H4107 C4104 0.929 . S
S4108 N4109 1.613 . S
S4108 N4110 1.610 . S
N4109 S4108 1.613 . S
N4109 C4112 1.350 . S
N4110 S4108 1.610 . S
N4110 C4111 1.351 . S
C4111 C4105 1.428 . S
C4111 N4110 1.351 . S
C4111 C4112 1.434 . S
C4112 C4103 1.429 . S
C4112 N4109 1.350 . S
C4112 C4111 1.434 . S
C4113 C4114 1.369 . S
C4113 C4115 1.419 . S
C4113 H4117 0.930 . S
C4114 C4113 1.369 . S
C4114 C4123 1.429 . S
C4115 C4113 1.419 . S
C4115 C4116 1.363 . S
C4115 H4118 0.929 . S
C4116 C4115 1.363 . S
C4116 C4122 1.428 . S
H4117 C4113 0.930 . S
H4118 C4115 0.929 . S
S4119 N4120 1.613 . S
S4119 N4121 1.610 . S
N4120 S4119 1.613 . S
N4120 C4123 1.350 . S
N4121 S4119 1.610 . S
N4121 C4122 1.351 . S
C4122 C4116 1.428 . S
C4122 N4121 1.351 . S
C4122 C4123 1.434 . S
C4123 C4114 1.429 . S
C4123 N4120 1.350 . S
C4123 C4122 1.434 . S
C4124 C4125 1.369 . S
C4124 C4126 1.419 . S
C4124 H4128 0.930 . S
C4125 C4124 1.369 . S
C4125 C4134 1.429 . S
C4126 C4124 1.419 . S
C4126 C4127 1.363 . S
C4126 H4129 0.929 . S
C4127 C4126 1.363 . S
C4127 C4133 1.428 . S
H4128 C4124 0.930 . S
H4129 C4126 0.929 . S
S4130 N4131 1.613 . S
S4130 N4132 1.610 . S
N4131 S4130 1.613 . S
N4131 C4134 1.350 . S
N4132 S4130 1.610 . S
N4132 C4133 1.351 . S
C4133 C4127 1.428 . S
C4133 N4132 1.351 . S
C4133 C4134 1.434 . S
C4134 C4125 1.429 . S
C4134 N4131 1.350 . S
C4134 C4133 1.434 . S
C4135 C4136 1.369 . S
C4135 C4137 1.419 . S
C4135 H4139 0.930 . S
C4136 C4135 1.369 . S
C4136 C4145 1.429 . S
C4137 C4135 1.419 . S
C4137 C4138 1.363 . S
C4137 H4140 0.929 . S
C4138 C4137 1.363 . S
C4138 C4144 1.428 . S
H4139 C4135 0.930 . S
H4140 C4137 0.929 . S
S4141 N4142 1.613 . S
S4141 N4143 1.610 . S
N4142 S4141 1.613 . S
N4142 C4145 1.350 . S
N4143 S4141 1.610 . S
N4143 C4144 1.351 . S
C4144 C4138 1.428 . S
C4144 N4143 1.351 . S
C4144 C4145 1.434 . S
C4145 C4136 1.429 . S
C4145 N4142 1.350 . S
C4145 C4144 1.434 . S
C4146 C4147 1.369 . S
C4146 C4148 1.419 . S
C4146 H4150 0.930 . S
C4147 C4146 1.369 . S
C4147 C4156 1.429 . S
C4148 C4146 1.419 . S
C4148 C4149 1.363 . S
C4148 H4151 0.929 . S
C4149 C4148 1.363 . S
C4149 C4155 1.428 . S
H4150 C4146 0.930 . S
H4151 C4148 0.929 . S
S4152 N4153 1.613 . S
S4152 N4154 1.610 . S
N4153 S4152 1.613 . S
N4153 C4156 1.350 . S
N4154 S4152 1.610 . S
N4154 C4155 1.351 . S
C4155 C4149 1.428 . S
C4155 N4154 1.351 . S
C4155 C4156 1.434 . S
C4156 C4147 1.429 . S
C4156 N4153 1.350 . S
C4156 C4155 1.434 . S
C4157 C4158 1.369 . S
C4157 C4159 1.419 . S
C4157 H4161 0.930 . S
C4158 C4157 1.369 . S
C4158 C4167 1.429 . S
C4159 C4157 1.419 . S
C4159 C4160 1.363 . S
C4159 H4162 0.929 . S
C4160 C4159 1.363 . S
C4160 C4166 1.428 . S
H4161 C4157 0.930 . S
H4162 C4159 0.929 . S
S4163 N4164 1.613 . S
S4163 N4165 1.610 . S
N4164 S4163 1.613 . S
N4164 C4167 1.350 . S
N4165 S4163 1.610 . S
N4165 C4166 1.351 . S
C4166 C4160 1.428 . S
C4166 N4165 1.351 . S
C4166 C4167 1.434 . S
C4167 C4158 1.429 . S
C4167 N4164 1.350 . S
C4167 C4166 1.434 . S
C4168 C4169 1.369 . S
C4168 C4170 1.419 . S
C4168 H4172 0.930 . S
C4169 C4168 1.369 . S
C4169 C4178 1.429 . S
C4170 C4168 1.419 . S
C4170 C4171 1.363 . S
C4170 H4173 0.929 . S
C4171 C4170 1.363 . S
C4171 C4177 1.428 . S
H4172 C4168 0.930 . S
H4173 C4170 0.929 . S
S4174 N4175 1.613 . S
S4174 N4176 1.610 . S
N4175 S4174 1.613 . S
N4175 C4178 1.350 . S
N4176 S4174 1.610 . S
N4176 C4177 1.351 . S
C4177 C4171 1.428 . S
C4177 N4176 1.351 . S
C4177 C4178 1.434 . S
C4178 C4169 1.429 . S
C4178 N4175 1.350 . S
C4178 C4177 1.434 . S
C4179 C4180 1.369 . S
C4179 C4181 1.419 . S
C4179 H4183 0.930 . S
C4180 C4179 1.369 . S
C4180 C4189 1.429 . S
C4181 C4179 1.419 . S
C4181 C4182 1.363 . S
C4181 H4184 0.929 . S
C4182 C4181 1.363 . S
C4182 C4188 1.428 . S
H4183 C4179 0.930 . S
H4184 C4181 0.929 . S
S4185 N4186 1.613 . S
S4185 N4187 1.610 . S
N4186 S4185 1.613 . S
N4186 C4189 1.350 . S
N4187 S4185 1.610 . S
N4187 C4188 1.351 . S
C4188 C4182 1.428 . S
C4188 N4187 1.351 . S
C4188 C4189 1.434 . S
C4189 C4180 1.429 . S
C4189 N4186 1.350 . S
C4189 C4188 1.434 . S
C4190 C4191 1.369 . S
C4190 C4192 1.419 . S
C4190 H4194 0.930 . S
C4191 C4190 1.369 . S
C4191 C4200 1.429 . S
C4192 C4190 1.419 . S
C4192 C4193 1.363 . S
C4192 H4195 0.929 . S
C4193 C4192 1.363 . S
C4193 C4199 1.428 . S
H4194 C4190 0.930 . S
H4195 C4192 0.929 . S
S4196 N4197 1.613 . S
S4196 N4198 1.610 . S
N4197 S4196 1.613 . S
N4197 C4200 1.350 . S
N4198 S4196 1.610 . S
N4198 C4199 1.351 . S
C4199 C4193 1.428 . S
C4199 N4198 1.351 . S
C4199 C4200 1.434 . S
C4200 C4191 1.429 . S
C4200 N4197 1.350 . S
C4200 C4199 1.434 . S
C4201 C4202 1.369 . S
C4201 C4203 1.419 . S
C4201 H4205 0.930 . S
C4202 C4201 1.369 . S
C4202 C4211 1.429 . S
C4203 C4201 1.419 . S
C4203 C4204 1.363 . S
C4203 H4206 0.929 . S
C4204 C4203 1.363 . S
C4204 C4210 1.428 . S
H4205 C4201 0.930 . S
H4206 C4203 0.929 . S
S4207 N4208 1.613 . S
S4207 N4209 1.610 . S
N4208 S4207 1.613 . S
N4208 C4211 1.350 . S
N4209 S4207 1.610 . S
N4209 C4210 1.351 . S
C4210 C4204 1.428 . S
C4210 N4209 1.351 . S
C4210 C4211 1.434 . S
C4211 C4202 1.429 . S
C4211 N4208 1.350 . S
C4211 C4210 1.434 . S
C3025 C63 1.537 . S
C3027 C235 1.580 1_545 S
C3036 C67 1.575 1_655 S
C3038 C147 1.534 1_545 S
C3047 C231 1.534 1_655 S
C3049 C151 1.580 . S
C3058 C315 1.617 . S
C3060 C403 1.653 1_455 S
C3069 C487 1.653 . S
C3071 C399 1.616 1_565 S
C3080 C483 1.609 1_455 S
C3082 C319 1.653 1_565 S
C3091 C578 1.540 . S
C3093 C728 1.579 1_565 S
C3102 C662 1.536 1_565 S
C3104 C560 1.577 1_455 S
C3113 C746 1.536 1_455 S
C3115 C644 1.577 . S
C3124 C830 1.608 . S
C3126 C896 1.651 1_655 S
C3135 C980 1.653 . S
C3137 C914 1.610 1_545 S
C3146 C812 1.650 1_545 S
C3148 C998 1.610 1_655 S
C3157 C1243 1.644 . S
C3159 C1071 1.598 . S
C3168 C1155 1.596 . S
C3170 C1075 1.642 . S
C3179 C1159 1.645 . S
C3181 C1239 1.604 . S
C3190 C1323 1.632 . S
C3192 C1411 1.672 . S
C3201 C1495 1.671 . S
C3203 C1407 1.634 . S
C3212 C1327 1.668 . S
C3214 C1491 1.628 . S
C3223 C1586 1.571 . S
C3225 C1736 1.617 . S
C3234 C1670 1.569 . S
C3236 C1568 1.615 . S
C3245 C1652 1.614 . S
C3247 C1754 1.575 . S
C3256 C1904 1.481 . S
C3258 C1838 1.457 . S
C3267 C1922 1.460 . S
C3269 C1988 1.480 . S
C3278 C1820 1.480 . S
C3280 C2006 1.462 . S
C3289 C2079 1.575 . S
C3291 C2251 1.618 . S
C3300 C2163 1.569 . S
C3302 C2083 1.615 . S
C3311 C2247 1.571 . S
C3313 C2167 1.617 . S
C3322 C2331 1.462 . S
C3324 C2419 1.485 . S
C3333 C2415 1.456 . S
C3335 C2503 1.482 . S
C3344 C2499 1.463 . S
C3346 C2335 1.481 . S
C3355 C2594 1.602 . S
C3357 C2744 1.645 . S
C3366 C2678 1.596 . S
C3368 C2576 1.641 . S
C3377 C2660 1.645 . S
C3379 C2762 1.601 . S
C3388 C2846 1.632 . S
C3390 C2912 1.672 . S
C3399 C2930 1.628 . S
C3401 C2996 1.670 . S
C3410 C2828 1.670 . S
C3412 C3014 1.634 . S
C3421 C56 1.872 . S
C3423 C1743 1.769 . S
C3432 C1575 1.766 1_565 S
C3434 C140 1.873 . S
C3443 C224 1.873 . S
C3445 C1659 1.771 1_455 S
C3454 C308 1.789 . S
C3456 C2919 1.674 . S
C3465 C3003 1.674 1_545 S
C3467 C392 1.790 . S
C3476 C476 1.789 . S
C3478 C2835 1.677 1_655 S
C3487 C2258 1.766 . S
C3489 C571 1.872 . S
C3498 C655 1.873 . S
C3500 C2090 1.767 1_545 S
C3509 C739 1.873 . S
C3511 C2174 1.767 1_655 S
C3520 C1418 1.675 . S
C3522 C823 1.789 . S
C3531 C1502 1.672 1_565 S
C3533 C907 1.790 . S
C3542 C1334 1.675 1_455 S
C3544 C991 1.790 . S
C3553 C1064 1.833 . S
C3555 C2751 1.726 . S
C3564 C1148 1.834 . S
C3566 C2583 1.721 . S
C3575 C2667 1.723 . S
C3577 C1232 1.834 . S
C3586 C903 1.718 . S
C3588 C1316 1.827 1_455 S
C3597 C987 1.709 . S
C3599 C1400 1.829 . S
C3608 C819 1.717 . S
C3610 C1484 1.828 1_565 S
C3619 C242 1.776 . S
C3621 C1579 1.872 1_565 S
C3630 C1663 1.873 1_455 S
C3632 C74 1.776 . S
C3641 C1747 1.873 . S
C3643 C158 1.776 . S
C3652 C2426 1.772 . S
C3654 C1831 1.910 . S
C3663 C2510 1.763 . S
C3665 C1915 1.913 . S
C3674 C1999 1.910 . S
C3676 C2342 1.762 . S
C3685 C735 1.768 . S
C3687 C2072 1.872 1_545 S
C3696 C567 1.771 . S
C3698 C2156 1.873 1_655 S
C3707 C651 1.778 . S
C3709 C2240 1.873 . S
C3718 C2324 1.909 . S
C3720 C1911 1.769 . S
C3729 C1995 1.763 . S
C3731 C2408 1.913 . S
C3740 C2492 1.910 . S
C3742 C1827 1.766 . S
C3751 C2587 1.833 . S
C3753 C1250 1.720 . S
C3762 C2671 1.833 . S
C3764 C1082 1.726 . S
C3773 C2755 1.833 . S
C3775 C1166 1.728 . S
C3784 C2839 1.828 1_655 S
C3786 C410 1.711 . S
C3795 C494 1.719 . S
C3797 C2923 1.828 . S
C3806 C326 1.717 . S
C3808 C3007 1.828 1_545 S
C3817 C2505 1.917 . S
C3819 C69 1.943 . S
C3828 C2337 1.909 . S
C3830 C153 1.953 . S
C3839 C237 1.957 . S
C3841 C2421 1.899 . S
C3850 C1161 2.121 . S
C3852 C321 2.124 . S
C3861 C405 2.124 . S
C3863 C1245 2.125 . S
C3872 C489 2.121 . S
C3874 C1077 2.121 . S
C3883 C562 1.967 . S
C3885 C1990 1.899 . S
C3894 C646 1.957 . S
C3896 C1822 1.899 . S
C3905 C730 1.962 . S
C3907 C1906 1.897 . S
C3916 C2662 2.120 . S
C3918 C814 2.120 . S
C3927 C2746 2.124 . S
C3929 C898 2.116 . S
C3938 C2578 2.119 . S
C3940 C982 2.123 . S
C3949 C1329 2.151 . S
C3951 C2169 2.168 1_655 S
C3960 C1413 2.160 . S
C3962 C2253 2.166 . S
C3971 C1497 2.151 . S
C3973 C2085 2.170 1_545 S
C3982 C1570 2.161 1_565 S
C3984 C2998 2.160 . S
C3993 C2830 2.159 . S
C3995 C1654 2.168 1_455 S
C4004 C1738 2.163 . S
C4006 C2914 2.153 . S
C4015 C394 1.190 . S
C4017 C58 1.203 . S
C4026 C478 1.193 . S
C4028 C142 1.205 . S
C4037 C310 1.193 . S
C4039 C226 1.205 . S
C4048 C573 1.211 . S
C4050 C909 1.201 . S
C4059 C993 1.185 . S
C4061 C657 1.196 . S
C4070 C741 1.207 . S
C4072 C825 1.202 . S
C4081 C1402 1.252 . S
C4083 C1066 1.251 . S
C4092 C1486 1.239 . S
C4094 C1150 1.249 . S
C4103 C1318 1.248 . S
C4105 C1234 1.249 . S
C4114 C1917 1.376 . S
C4116 C1581 1.484 . S
C4125 C1665 1.476 . S
C4127 C2001 1.384 . S
C4136 C1749 1.469 . S
C4138 C1833 1.380 . S
C4147 C2074 1.474 . S
C4149 C2410 1.384 . S
C4158 C2494 1.368 . S
C4160 C2158 1.475 . S
C4169 C2242 1.463 . S
C4171 C2326 1.370 . S
C4180 C2589 1.255 . S
C4182 C2925 1.254 . S
C4191 C3009 1.248 . S
C4193 C2673 1.258 . S
C4202 C2757 1.250 . S
C4204 C2841 1.251 . S
