# Generated by pormake.
# Topology snk, (6)-cn, num edge types: 1
# Building blocks:
#     Node 0, Type 0, BuildingBlock: PAMTOO_clean_sbu_0, # of connection points: 6
#     Node 1, Type 0, BuildingBlock: PAMTOO_clean_sbu_0, # of connection points: 6
#     Node 2, Type 0, BuildingBlock: PAMTOO_clean_sbu_0, # of connection points: 6
#     Node 3, Type 0, BuildingBlock: PAMTOO_clean_sbu_0, # of connection points: 6
#     Node 4, Type 0, BuildingBlock: PAMTOO_clean_sbu_0, # of connection points: 6
#     Node 5, Type 0, BuildingBlock: PAMTOO_clean_sbu_0, # of connection points: 6
#     Node 6, Type 0, BuildingBlock: PAMTOO_clean_sbu_0, # of connection points: 6
#     Node 7, Type 0, BuildingBlock: PAMTOO_clean_sbu_0, # of connection points: 6
#     Edge 8, Type (0, 0), BuildingBlock: CIFDUS_clean_linker_0, # of connection points: 2
#     Edge 9, Type (0, 0), BuildingBlock: CIFDUS_clean_linker_0, # of connection points: 2
#     Edge 10, Type (0, 0), BuildingBlock: CIFDUS_clean_linker_0, # of connection points: 2
#     Edge 11, Type (0, 0), BuildingBlock: CIFDUS_clean_linker_0, # of connection points: 2
#     Edge 12, Type (0, 0), BuildingBlock: CIFDUS_clean_linker_0, # of connection points: 2
#     Edge 13, Type (0, 0), BuildingBlock: CIFDUS_clean_linker_0, # of connection points: 2
#     Edge 14, Type (0, 0), BuildingBlock: CIFDUS_clean_linker_0, # of connection points: 2
#     Edge 15, Type (0, 0), BuildingBlock: CIFDUS_clean_linker_0, # of connection points: 2
#     Edge 16, Type (0, 0), BuildingBlock: CIFDUS_clean_linker_0, # of connection points: 2
#     Edge 17, Type (0, 0), BuildingBlock: CIFDUS_clean_linker_0, # of connection points: 2
#     Edge 18, Type (0, 0), BuildingBlock: CIFDUS_clean_linker_0, # of connection points: 2
#     Edge 19, Type (0, 0), BuildingBlock: CIFDUS_clean_linker_0, # of connection points: 2
#     Edge 20, Type (0, 0), BuildingBlock: CIFDUS_clean_linker_0, # of connection points: 2
#     Edge 21, Type (0, 0), BuildingBlock: CIFDUS_clean_linker_0, # of connection points: 2
#     Edge 22, Type (0, 0), BuildingBlock: CIFDUS_clean_linker_0, # of connection points: 2
#     Edge 23, Type (0, 0), BuildingBlock: CIFDUS_clean_linker_0, # of connection points: 2
#     Edge 24, Type (0, 0), BuildingBlock: CIFDUS_clean_linker_0, # of connection points: 2
#     Edge 25, Type (0, 0), BuildingBlock: CIFDUS_clean_linker_0, # of connection points: 2
#     Edge 26, Type (0, 0), BuildingBlock: CIFDUS_clean_linker_0, # of connection points: 2
#     Edge 27, Type (0, 0), BuildingBlock: CIFDUS_clean_linker_0, # of connection points: 2
#     Edge 28, Type (0, 0), BuildingBlock: CIFDUS_clean_linker_0, # of connection points: 2
#     Edge 29, Type (0, 0), BuildingBlock: CIFDUS_clean_linker_0, # of connection points: 2
#     Edge 30, Type (0, 0), BuildingBlock: CIFDUS_clean_linker_0, # of connection points: 2
#     Edge 31, Type (0, 0), BuildingBlock: CIFDUS_clean_linker_0, # of connection points: 2
# Relax obj value: 0.081
# Max RMSD: 0.161
# Mean RMSD: 0.124
data_MOF--net-snk--node1-PAMTOO_clean_sbu_0--edge1-CIFDUS_clean_linker_0
_symmetry_space_group_name_H-M    P1
_symmetry_Int_Tables_number       1
_symmetry_cell_setting            triclinic
loop_
_symmetry_equiv_pos_as_xyz
'x, y, z'
_cell_length_a     32.989659
_cell_length_b     33.238684
_cell_length_c     23.687508
_cell_angle_alpha  90.095623
_cell_angle_beta   93.8988
_cell_angle_gamma 89.922801
loop_
_atom_site_label
_atom_site_type_symbol
_atom_site_fract_x
_atom_site_fract_y
_atom_site_fract_z
_atom_type_partial_charge
Dy0 Dy 0.01552 -0.00478 0.54316 0.0
Dy1 Dy 0.99852 0.94642 0.41777 0.0
C2 C 0.05915 0.91508 0.5156 0.0
O3 O 0.0428 0.03473 0.47946 0.0
O4 O 0.05143 0.98756 0.40926 0.0
O5 O 0.05632 0.00902 0.61603 0.0
O6 O 0.99511 0.03249 0.61089 0.0
O7 O 0.97017 0.00673 0.40958 0.0
O8 O 0.95671 0.01696 0.50229 0.0
O9 O 0.94993 0.92669 0.47434 0.0
O10 O 0.98213 0.93935 0.56215 0.0
O11 O 0.95837 0.92895 0.34601 0.0
O12 O 0.02155 0.91025 0.35091 0.0
C13 C 0.05843 0.02323 0.43225 0.0
O14 O 0.06572 0.95316 0.52676 0.0
O15 O 0.03023 0.90408 0.47831 0.0
C16 C 0.02528 0.01895 0.70267 0.0
C17 C 0.02088 0.00297 0.81976 0.0
C18 C 0.0214 0.97121 0.78021 0.0
C19 C 0.02351 0.97913 0.72221 0.0
C20 C 0.02405 0.05058 0.74171 0.0
C21 C 0.0218 0.04275 0.79945 0.0
C22 C 0.02886 0.0285 0.64221 0.0
C23 C 0.94985 0.02456 0.44818 0.0
C24 C 0.9533 0.9219 0.52988 0.0
C25 C 0.98968 0.92054 0.25925 0.0
C26 C 0.99297 0.9361 0.14189 0.0
C27 C 0.99211 0.968 0.18116 0.0
C28 C 0.99048 0.96029 0.23928 0.0
C29 C 0.99107 0.88876 0.22046 0.0
C30 C 0.99272 0.89639 0.16255 0.0
C31 C 0.98724 0.91131 0.32001 0.0
H32 H 0.02103 0.94021 0.79414 0.0
H33 H 0.02409 0.95421 0.69277 0.0
H34 H 0.02504 0.08152 0.72752 0.0
H35 H 0.02061 0.06802 0.8282 0.0
H36 H 0.99195 -0.00106 0.16691 0.0
H37 H 0.98955 0.98531 0.26855 0.0
H38 H 0.99078 0.85788 0.23499 0.0
H39 H 0.9941 0.87105 0.13395 0.0
Dy40 Dy 0.23934 0.75207 0.76885 0.0
Dy41 Dy 0.19069 0.75274 0.8883 0.0
C42 C 0.15128 0.78436 0.77029 0.0
O43 O 0.24185 0.81397 0.80546 0.0
O44 O 0.23947 0.79865 0.89937 0.0
O45 O 0.25664 0.78471 0.69577 0.0
O46 O 0.27315 0.72193 0.70555 0.0
O47 O 0.24794 0.71709 0.90447 0.0
O48 O 0.28755 0.74387 0.83737 0.0
O49 O 0.16292 0.70575 0.83056 0.0
O50 O 0.22106 0.68949 0.78874 0.0
O51 O 0.16495 0.71975 0.95561 0.0
O52 O 0.15925 0.78472 0.95202 0.0
C53 C 0.25003 0.82272 0.85908 0.0
O54 O 0.17361 0.75772 0.74617 0.0
O55 O 0.15763 0.79286 0.82442 0.0
C56 C 0.26075 0.74668 0.61186 0.0
C57 C 0.24177 0.73882 0.49402 0.0
C58 C 0.21198 0.75139 0.53017 0.0
C59 C 0.22135 0.75518 0.58856 0.0
C60 C 0.29027 0.73356 0.57616 0.0
C61 C 0.28092 0.72961 0.51791 0.0
C62 C 0.27234 0.75329 0.67248 0.0
C63 C 0.28353 0.72311 0.88375 0.0
C64 C 0.18431 0.68049 0.80203 0.0
C65 C 0.16296 0.75456 0.0427 0.0
C66 C 0.17938 0.7583 0.16138 0.0
C67 C 0.20986 0.74658 0.12581 0.0
C68 C 0.20176 0.74483 0.06696 0.0
C69 C 0.13259 0.7663 0.0779 0.0
C70 C 0.14067 0.76819 0.13658 0.0
C71 C 0.15326 0.7522 0.98108 0.0
H72 H 0.18141 0.75825 0.51335 0.0
H73 H 0.198 0.76527 0.61535 0.0
H74 H 0.32088 0.72706 0.59323 0.0
H75 H 0.30473 0.72033 0.49138 0.0
H76 H 0.24012 0.73923 0.1434 0.0
H77 H 0.22571 0.73585 0.04045 0.0
H78 H 0.10244 0.77381 0.05997 0.0
H79 H 0.11634 0.77684 0.16262 0.0
Dy80 Dy 0.48627 0.03199 0.91146 0.0
Dy81 Dy 0.51272 0.98826 0.03722 0.0
C82 C 0.43273 0.96368 0.96271 0.0
O83 O 0.44515 0.05918 0.97281 0.0
O84 O 0.48279 0.04658 0.05662 0.0
O85 O 0.44316 0.04935 0.84259 0.0
O86 O 0.50657 0.06597 0.84109 0.0
O87 O 0.5649 0.01694 0.99872 0.0
O88 O 0.52917 0.07036 0.96445 0.0
O89 O 0.53321 0.94387 0.97391 0.0
O90 O 0.5304 0.98335 0.893 0.0
O91 O 0.55119 0.99332 0.11408 0.0
O92 O 0.50951 0.94308 0.10306 0.0
C93 C 0.45274 0.06487 0.02765 0.0
O94 O 0.4493 0.9766 0.91722 0.0
O95 O 0.4484 0.97146 1.01404 0.0
C96 C 0.47065 0.05454 0.75262 0.0
C97 C 0.4722 0.0365 0.63562 0.0
C98 C 0.48624 0.00835 0.67699 0.0
C99 C 0.48544 0.01728 0.7349 0.0
C100 C 0.45647 0.08254 0.7117 0.0
C101 C 0.45721 0.07368 0.65394 0.0
C102 C 0.47105 0.06544 0.81323 0.0
C103 C 0.56294 0.05525 0.98743 0.0
C104 C 0.54109 0.95027 0.92078 0.0
C105 C 0.52502 0.96722 0.19713 0.0
C106 C 0.51395 0.97894 0.31384 0.0
C107 C 0.50185 0.00869 0.27377 0.0
C108 C 0.50738 0.00291 0.21603 0.0
C109 C 0.53577 0.93701 0.23659 0.0
C110 C 0.53027 0.94273 0.29417 0.0
C111 C 0.53542 0.9621 0.13767 0.0
H112 H 0.49756 0.97926 0.66465 0.0
H113 H 0.49657 -0.00478 0.76583 0.0
H114 H 0.4452 0.11158 0.72444 0.0
H115 H 0.44673 0.09638 0.62361 0.0
H116 H 0.48945 0.03705 0.28719 0.0
H117 H 0.4989 0.02674 0.18638 0.0
H118 H 0.54938 0.90924 0.22302 0.0
H119 H 0.53923 0.91882 0.32343 0.0
Dy120 Dy 0.23893 0.24025 0.21802 0.0
Dy121 Dy 0.29205 0.24014 0.34484 0.0
C122 C 0.3212 0.18991 0.23914 0.0
O123 O 0.20033 0.20583 0.27561 0.0
O124 O 0.25042 0.18739 0.34345 0.0
O125 O 0.20917 0.20838 0.14692 0.0
O126 O 0.21353 0.27322 0.14528 0.0
O127 O 0.23197 0.26825 0.35776 0.0
O128 O 0.2147 0.29123 0.2679 0.0
O129 O 0.31208 0.2946 0.29865 0.0
O130 O 0.29644 0.27359 0.20734 0.0
O131 O 0.31563 0.27282 0.41883 0.0
O132 O 0.3245 0.20846 0.41402 0.0
C133 C 0.21334 0.18431 0.31986 0.0
O134 O 0.28337 0.18987 0.21802 0.0
O135 O 0.33293 0.2114 0.2841 0.0
C136 C 0.21817 0.23908 0.05839 0.0
C137 C 0.24479 0.23868 0.9469 0.0
C138 C 0.27288 0.23586 0.99437 0.0
C139 C 0.25972 0.23611 0.04947 0.0
C140 C 0.19003 0.24143 1.0114 0.0
C141 C 0.20313 0.24121 0.95628 0.0
C142 C 0.204 0.2408 0.1163 0.0
C143 C 0.21093 0.29219 0.32283 0.0
C144 C 0.31549 0.29795 0.24385 0.0
C145 C 0.31419 0.23636 0.50421 0.0
C146 C 0.28919 0.23076 0.61631 0.0
C147 C 0.26039 0.23438 0.56976 0.0
C148 C 0.27275 0.23712 0.51438 0.0
C149 C 0.343 0.23258 0.55023 0.0
C150 C 0.3307 0.2298 0.60564 0.0
C151 C 0.32762 0.24042 0.44613 0.0
H152 H 0.30512 0.23331 0.98901 0.0
H153 H 0.28199 0.23428 0.08517 0.0
H154 H 0.15784 0.24392 1.01733 0.0
H155 H 0.18062 0.24398 0.92106 0.0
H156 H 0.22822 0.23576 0.57611 0.0
H157 H 0.24995 0.2402 0.4795 0.0
H158 H 0.37513 0.23187 0.54333 0.0
H159 H 0.35376 0.22644 0.64007 0.0
Dy160 Dy 0.77065 0.24218 0.19724 0.0
Dy161 Dy 0.72287 0.2381 0.31723 0.0
C162 C 0.69506 0.29639 0.21575 0.0
O163 O 0.79342 0.29357 0.25098 0.0
O164 O 0.78153 0.26885 0.33901 0.0
O165 O 0.79029 0.27578 0.12617 0.0
O166 O 0.80308 0.21194 0.13321 0.0
O167 O 0.76696 0.18698 0.31813 0.0
O168 O 0.81348 0.21267 0.25978 0.0
O169 O 0.68125 0.21133 0.24929 0.0
O170 O 0.73121 0.18804 0.1955 0.0
O171 O 0.69395 0.20354 0.38058 0.0
O172 O 0.69649 0.26851 0.38641 0.0
C173 C 0.79983 0.29392 0.30636 0.0
O174 O 0.71075 0.27134 0.18055 0.0
O175 O 0.7032 0.29385 0.27063 0.0
C176 C 0.79076 0.23849 0.04156 0.0
C177 C 0.76622 0.22917 0.9258 0.0
C178 C 0.73718 0.23091 0.96669 0.0
C179 C 0.74936 0.23549 0.02412 0.0
C180 C 0.81979 0.23635 1.00123 0.0
C181 C 0.80768 0.23168 0.9439 0.0
C182 C 0.80411 0.24393 0.10152 0.0
C183 C 0.80323 0.18711 0.29831 0.0
C184 C 0.6933 0.18819 0.20874 0.0
C185 C 0.70044 0.23258 0.47179 0.0
C186 C 0.7251 0.23312 0.58825 0.0
C187 C 0.75409 0.23207 0.54728 0.0
C188 C 0.74186 0.23182 0.48955 0.0
C189 C 0.6714 0.23281 0.51228 0.0
C190 C 0.68358 0.23302 0.57003 0.0
C191 C 0.68728 0.23515 0.41137 0.0
H192 H 0.70501 0.22945 0.95426 0.0
H193 H 0.72653 0.237 0.05486 0.0
H194 H 0.85188 0.23833 1.01408 0.0
H195 H 0.83088 0.22973 0.91378 0.0
H196 H 0.78628 0.23159 0.55982 0.0
H197 H 0.76471 0.23164 0.45876 0.0
H198 H 0.63929 0.2336 0.49923 0.0
H199 H 0.66048 0.2343 0.60035 0.0
Dy200 Dy 0.73187 0.7433 0.70449 0.0
Dy201 Dy 0.78386 0.74407 0.83173 0.0
C202 C 0.80909 0.68623 0.73153 0.0
O203 O 0.70703 0.69271 0.75414 0.0
O204 O 0.72388 0.71593 0.84408 0.0
O205 O 0.70711 0.71025 0.63143 0.0
O206 O 0.70152 0.77506 0.63388 0.0
O207 O 0.74249 0.7971 0.82869 0.0
O208 O 0.69246 0.77702 0.76215 0.0
O209 O 0.82504 0.77271 0.77193 0.0
O210 O 0.7764 0.79361 0.70405 0.0
O211 O 0.81577 0.77626 0.90091 0.0
O212 O 0.80725 0.71189 0.90612 0.0
C213 C 0.70275 0.69216 0.80896 0.0
O214 O 0.78961 0.70978 0.69436 0.0
O215 O 0.80486 0.68973 0.78612 0.0
C216 C 0.7109 0.74489 0.54506 0.0
C217 C 0.73733 0.746 0.43363 0.0
C218 C 0.76543 0.74934 0.481 0.0
C219 C 0.75235 0.74877 0.53611 0.0
C220 C 0.68273 0.74206 0.49817 0.0
C221 C 0.69575 0.74264 0.44305 0.0
C222 C 0.69689 0.74267 0.60292 0.0
C223 C 0.70507 0.79908 0.80611 0.0
C224 C 0.8138 0.79416 0.72684 0.0
C225 C 0.80566 0.74881 0.99117 0.0
C226 C 0.78083 0.75474 0.10322 0.0
C227 C 0.75196 0.75093 0.05679 0.0
C228 C 0.76425 0.74804 1.0014 0.0
C229 C 0.83454 0.75286 0.03705 0.0
C230 C 0.8223 0.75582 0.09246 0.0
C231 C 0.81908 0.74447 0.93318 0.0
H232 H 0.79759 0.75251 0.47553 0.0
H233 H 0.77461 0.75104 0.57178 0.0
H234 H 0.65063 0.73888 0.50418 0.0
H235 H 0.67327 0.73948 0.40783 0.0
H236 H 0.71982 0.74946 0.06325 0.0
H237 H 0.74143 0.74481 0.96657 0.0
H238 H 0.86664 0.75361 0.03006 0.0
H239 H 0.8454 0.75935 0.12682 0.0
Dy240 Dy 0.50973 0.52769 0.0935 0.0
Dy241 Dy 0.48475 0.49018 0.96468 0.0
C242 C 0.55334 0.45302 0.04579 0.0
O243 O 0.53806 0.56906 0.03301 0.0
O244 O 0.53931 0.52842 0.95401 0.0
O245 O 0.54504 0.52196 0.17281 0.0
O246 O 0.50715 0.57464 0.157 0.0
O247 O 0.46012 0.55211 0.9711 0.0
O248 O 0.44826 0.55023 0.06493 0.0
O249 O 0.43963 0.46494 0.02143 0.0
O250 O 0.47298 0.473 0.10952 0.0
O251 O 0.43925 0.48056 0.89596 0.0
O252 O 0.50032 0.45709 0.89077 0.0
C253 C 0.55107 0.56069 0.98293 0.0
O254 O 0.55959 0.48959 0.06483 0.0
O255 O 0.5208 0.44412 1.01365 0.0
C256 C 0.51959 0.55339 0.2524 0.0
C257 C 0.50717 0.54664 0.36875 0.0
C258 C 0.49205 0.51709 0.33018 0.0
C259 C 0.49825 0.52042 0.27245 0.0
C260 C 0.53324 0.58363 0.29028 0.0
C261 C 0.52707 0.58035 0.34787 0.0
C262 C 0.53117 0.5552 0.19355 0.0
C263 C 0.44074 0.56502 1.01413 0.0
C264 C 0.44422 0.45658 0.07584 0.0
C265 C 0.46394 0.47435 0.805 0.0
C266 C 0.46364 0.49512 0.68947 0.0
C267 C 0.48143 0.52089 0.73147 0.0
C268 C 0.48155 0.51058 0.78883 0.0
C269 C 0.44601 0.44877 0.76347 0.0
C270 C 0.44585 0.459 0.70629 0.0
C271 C 0.46455 0.46213 0.86464 0.0
H272 H 0.47687 0.4906 0.34486 0.0
H273 H 0.48753 0.49668 0.24381 0.0
H274 H 0.54975 0.6093 0.27555 0.0
H275 H 0.53847 0.60396 0.37622 0.0
H276 H 0.49504 0.5491 0.72004 0.0
H277 H 0.4955 0.53072 0.82048 0.0
H278 H 0.43245 0.42059 0.77526 0.0
H279 H 0.43248 0.43816 0.67516 0.0
Dy280 Dy 0.00884 0.5087 0.47381 0.0
Dy281 Dy 0.01253 0.45959 0.59845 0.0
C282 C 0.95577 0.43063 0.49116 0.0
O283 O 0.95536 0.52935 0.51974 0.0
O284 O 0.97886 0.51677 0.61169 0.0
O285 O 0.9742 0.53126 0.39994 0.0
O286 O 0.03922 0.54122 0.40972 0.0
O287 O 0.0642 0.50259 0.59942 0.0
O288 O 0.03624 0.55045 0.53926 0.0
O289 O 0.04318 0.41943 0.53866 0.0
O290 O 0.06218 0.46709 0.47511 0.0
O291 O 0.04765 0.43034 0.66736 0.0
O292 O 0.98232 0.43518 0.66885 0.0
C293 C 0.95373 0.53501 0.57459 0.0
O294 O 0.97887 0.44987 0.45729 0.0
O295 O 0.95913 0.43552 0.54632 0.0
C296 C 0.00888 0.53578 0.31614 0.0
C297 C 0.00938 0.51946 0.19881 0.0
C298 C 0.01521 0.48825 0.23881 0.0
C299 C 0.01484 0.49633 0.297 0.0
C300 C 0.0039 0.56697 0.27658 0.0
C301 C 0.00416 0.55896 0.21861 0.0
C302 C 0.0061 0.54505 0.3767 0.0
C303 C 0.06122 0.53997 0.58216 0.0
C304 C 0.06505 0.43078 0.49706 0.0
C305 C 0.02035 0.43497 0.75723 0.0
C306 C 0.02647 0.45293 0.87446 0.0
C307 C 0.01873 0.48361 0.83409 0.0
C308 C 0.01577 0.47472 0.77599 0.0
C309 C 0.02824 0.40442 0.79717 0.0
C310 C 0.03128 0.41324 0.85509 0.0
C311 C 0.01608 0.42442 0.69656 0.0
H312 H 0.01899 0.45746 0.2251 0.0
H313 H 0.0186 0.47179 0.32696 0.0
H314 H -0.00067 0.59761 0.29052 0.0
H315 H 0.00025 0.58382 0.18924 0.0
H316 H 0.01531 0.51455 0.84736 0.0
H317 H 0.00972 0.49878 0.74576 0.0
H318 H 0.03169 0.37354 0.78355 0.0
H319 H 0.03667 0.38875 0.88477 0.0
H320 H 0.10931 0.08021 0.47905 0.0
H321 H 0.06505 0.02981 0.31876 0.0
H322 H 0.10697 0.07685 0.2689 0.0
H323 H 0.15767 0.13184 0.27099 0.0
H324 H 0.20615 0.17747 0.43212 0.0
H325 H 0.16126 0.13324 0.48137 0.0
C326 C 0.1088 0.07967 0.43322 0.0
C327 C 0.08413 0.05169 0.40265 0.0
C328 C 0.13382 0.10604 0.40492 0.0
C329 C 0.08405 0.05095 0.34327 0.0
C330 C 0.10791 0.07792 0.3147 0.0
C331 C 0.1581 0.13211 0.31681 0.0
C332 C 0.18498 0.15784 0.34794 0.0
C333 C 0.13309 0.10554 0.34506 0.0
C334 C 0.18577 0.15769 0.40734 0.0
C335 C 0.1601 0.13247 0.43554 0.0
H336 H 0.07416 0.92576 0.62714 0.0
H337 H 0.07942 0.83729 0.49444 0.0
H338 H 0.10394 0.78679 0.56411 0.0
H339 H 0.12592 0.76932 0.66165 0.0
H340 H 0.11982 0.85803 0.79432 0.0
H341 H 0.09124 0.90685 0.7256 0.0
C342 C 0.08106 0.89551 0.61346 0.0
C343 C 0.07617 0.88523 0.5559 0.0
C344 C 0.0938 0.86671 0.65368 0.0
C345 C 0.08378 0.84575 0.53863 0.0
C346 C 0.0974 0.81697 0.57837 0.0
C347 C 0.11789 0.7992 0.6757 0.0
C348 C 0.12549 0.81033 0.73275 0.0
C349 C 0.10263 0.82726 0.6359 0.0
C350 C 0.11425 0.8488 0.75061 0.0
C351 C 0.09841 0.87684 0.71127 0.0
H352 H 0.28897 0.83986 0.96092 0.0
H353 H 0.27209 0.88235 0.78862 0.0
H354 H 0.32585 0.93174 0.80712 0.0
H355 H 0.38184 0.95797 0.86891 0.0
H356 H 0.40009 0.91497 0.04067 0.0
H357 H 0.34128 0.87065 0.02561 0.0
C358 C 0.29651 0.86041 0.92769 0.0
C359 C 0.27695 0.8571 0.8733 0.0
C360 C 0.32801 0.8882 0.93823 0.0
C361 C 0.287 0.884 0.83074 0.0
C362 C 0.31783 0.91217 0.84117 0.0
C363 C 0.3729 0.939 0.90316 0.0
C364 C 0.39562 0.93917 0.95546 0.0
C365 C 0.33932 0.91362 0.89419 0.0
C366 C 0.3832 0.91511 0.99982 0.0
C367 C 0.34963 0.88977 0.99125 0.0
H368 H 0.46313 0.09057 0.13748 0.0
H369 H 0.38082 0.09867 0.98803 0.0
H370 H 0.33337 0.13771 0.04067 0.0
H371 H 0.31404 0.16744 0.12926 0.0
H372 H 0.39624 0.16164 0.27871 0.0
H373 H 0.4449 0.12339 0.22585 0.0
C374 C 0.43488 0.10094 0.11628 0.0
C375 C 0.42555 0.09136 0.05876 0.0
C376 C 0.40757 0.12344 0.1469 0.0
C377 C 0.38892 0.1055 0.03207 0.0
C378 C 0.36162 0.12771 0.06225 0.0
C379 C 0.34251 0.15769 0.15054 0.0
C380 C 0.35124 0.1669 0.20817 0.0
C381 C 0.37042 0.1364 0.11975 0.0
C382 C 0.38868 0.15475 0.23454 0.0
C383 C 0.41648 0.13292 0.20429 0.0
H384 H 0.95903 0.89458 0.63838 0.0
H385 H 0.88088 0.89188 0.48453 0.0
H386 H 0.83082 0.8527 0.53243 0.0
H387 H 0.80879 0.82033 0.61816 0.0
H388 H 0.88769 0.82121 0.7712 0.0
H389 H 0.93794 0.86034 0.7233 0.0
C390 C 0.93105 0.88548 0.61517 0.0
C391 C 0.92367 0.89645 0.55787 0.0
C392 C 0.90248 0.86287 0.64291 0.0
C393 C 0.88742 0.88391 0.52852 0.0
C394 C 0.8587 0.86161 0.55597 0.0
C395 C 0.83686 0.82928 0.64126 0.0
C396 C 0.84427 0.81824 0.69847 0.0
C397 C 0.86579 0.8512 0.61323 0.0
C398 C 0.88116 0.82943 0.72729 0.0
C399 C 0.90989 0.85178 0.69989 0.0
H400 H 0.94525 0.06455 0.34957 0.0
H401 H 0.88635 0.05231 0.50585 0.0
H402 H 0.83482 0.10155 0.47276 0.0
H403 H 0.80656 0.14755 0.39863 0.0
H404 H 0.86794 0.1606 0.24435 0.0
H405 H 0.91862 0.11125 0.2776 0.0
C406 C 0.92105 0.0725 0.37637 0.0
C407 C 0.91927 0.05472 0.42974 0.0
C408 C 0.89208 0.10088 0.35745 0.0
C409 C 0.88823 0.06575 0.46448 0.0
C410 C 0.85878 0.09375 0.44557 0.0
C411 C 0.83097 0.13939 0.37234 0.0
C412 C 0.83353 0.15742 0.31916 0.0
C413 C 0.86036 0.11138 0.392 0.0
C414 C 0.86551 0.14716 0.28562 0.0
C415 C 0.89442 0.11892 0.30447 0.0
H416 H 0.7089 0.13344 0.12861 0.0
H417 H 0.61048 0.19354 0.2059 0.0
H418 H 0.5614 0.16082 0.13896 0.0
H419 H 0.54662 0.1144 0.05938 0.0
H420 H 0.64469 0.05113 0.98685 0.0
H421 H 0.69426 0.08695 0.05013 0.0
C422 C 0.67671 0.13934 0.13103 0.0
C423 C 0.66333 0.16579 0.1722 0.0
C424 C 0.64883 0.12055 0.09258 0.0
C425 C 0.62152 0.173 0.17487 0.0
C426 C 0.59348 0.15461 0.13634 0.0
C427 C 0.57894 0.10932 0.05675 0.0
C428 C 0.59248 0.08119 1.01808 0.0
C429 C 0.60685 0.12852 0.09489 0.0
C430 C 0.63408 0.07339 1.01591 0.0
C431 C 0.6622 0.09348 0.05232 0.0
H432 H 0.63836 0.83926 0.75969 0.0
H433 H 0.70673 0.81575 0.918 0.0
H434 H 0.66018 0.85755 0.9681 0.0
H435 H 0.60148 0.90296 0.96703 0.0
H436 H 0.53606 0.93157 0.80845 0.0
H437 H 0.57954 0.88572 0.75858 0.0
C438 C 0.64287 0.84328 0.80512 0.0
C439 C 0.67605 0.82463 0.83497 0.0
C440 C 0.61644 0.8683 0.83373 0.0
C441 C 0.68172 0.83021 0.89387 0.0
C442 C 0.65499 0.85397 0.92269 0.0
C443 C 0.59646 0.89873 0.92167 0.0
C444 C 0.56547 0.92033 0.89152 0.0
C445 C 0.62244 0.87342 0.89307 0.0
C446 C 0.55977 0.91521 0.83257 0.0
C447 C 0.58465 0.88904 0.80403 0.0
H448 H 0.57436 0.56206 0.87453 0.0
H449 H 0.59287 0.62253 0.03578 0.0
H450 H 0.64111 0.66824 0.99604 0.0
H451 H 0.67838 0.69083 0.91622 0.0
H452 H 0.65949 0.63153 0.75423 0.0
H453 H 0.61097 0.58566 0.79373 0.0
C454 C 0.58899 0.58517 0.90108 0.0
C455 C 0.58003 0.58866 0.95821 0.0
C456 C 0.61661 0.61162 0.87786 0.0
C457 C 0.59906 0.61909 0.99171 0.0
C458 C 0.62674 0.64526 0.96904 0.0
C459 C 0.66376 0.66787 0.8894 0.0
C460 C 0.67278 0.6646 0.83231 0.0
C461 C 0.63579 0.64175 0.91226 0.0
C462 C 0.65318 0.6348 0.79828 0.0
C463 C 0.62544 0.60849 0.82087 0.0
H464 H 0.65505 0.29864 0.1126 0.0
H465 H 0.67675 0.3668 0.26707 0.0
H466 H 0.63633 0.42244 0.22612 0.0
H467 H 0.59533 0.45144 0.14673 0.0
H468 H 0.56997 0.38213 0.99428 0.0
H469 H 0.61208 0.32693 0.03404 0.0
C470 C 0.65093 0.3257 0.13726 0.0
C471 C 0.6689 0.32886 0.19254 0.0
C472 C 0.62746 0.35726 0.11372 0.0
C473 C 0.66298 0.36374 0.22443 0.0
C474 C 0.64013 0.39558 0.201 0.0
C475 C 0.59944 0.42443 0.12197 0.0
C476 C 0.58028 0.4208 0.06752 0.0
C477 C 0.62247 0.39268 0.14564 0.0
C478 C 0.58483 0.38541 0.03625 0.0
C479 C 0.60871 0.35396 0.05896 0.0
H480 H 0.93418 0.42079 0.37989 0.0
H481 H 0.90794 0.37813 0.54568 0.0
H482 H 0.85679 0.3323 0.50286 0.0
H483 H 0.82014 0.30426 0.41846 0.0
H484 H 0.84655 0.34766 0.253 0.0
H485 H 0.89717 0.39357 0.29605 0.0
C486 C 0.91741 0.40142 0.40683 0.0
C487 C 0.92497 0.40274 0.46587 0.0
C488 C 0.88808 0.3754 0.38206 0.0
C489 C 0.90271 0.37767 0.50008 0.0
C490 C 0.87348 0.35147 0.47564 0.0
C491 C 0.83691 0.32378 0.39172 0.0
C492 C 0.82964 0.32244 0.33258 0.0
C493 C 0.86599 0.35009 0.41669 0.0
C494 C 0.85154 0.34804 0.29863 0.0
C495 C 0.88054 0.37428 0.32318 0.0
H496 H 0.82208 0.66684 0.62238 0.0
H497 H 0.86023 0.63651 0.79516 0.0
H498 H 0.90784 0.58697 0.76186 0.0
H499 H 0.93926 0.55276 0.68391 0.0
H500 H 0.90068 0.58286 0.51117 0.0
H501 H 0.85264 0.63187 0.54451 0.0
C502 C 0.84074 0.64942 0.65287 0.0
C503 C 0.83752 0.65557 0.71126 0.0
C504 C 0.86805 0.62087 0.6335 0.0
C505 C 0.86195 0.6325 0.74997 0.0
C506 C 0.88927 0.60413 0.73099 0.0
C507 C 0.92033 0.56994 0.65345 0.0
C508 C 0.92375 0.56403 0.59505 0.0
C509 C 0.89265 0.59814 0.67286 0.0
C510 C 0.89879 0.58663 0.55638 0.0
C511 C 0.87128 0.61476 0.57537 0.0
H512 H 0.32055 0.32066 0.13451 0.0
H513 H 0.36965 0.34692 0.30416 0.0
H514 H 0.41343 0.39863 0.26739 0.0
H515 H 0.43837 0.43583 0.18675 0.0
H516 H 0.38784 0.4096 1.01762 0.0
H517 H 0.34403 0.35858 0.05479 0.0
C518 C 0.34084 0.33759 0.16361 0.0
C519 C 0.34188 0.32969 0.22206 0.0
C520 C 0.3657 0.3674 0.14228 0.0
C521 C 0.36817 0.35229 0.25898 0.0
C522 C 0.39327 0.38188 0.23798 0.0
C523 C 0.41773 0.41903 0.15798 0.0
C524 C 0.4166 0.42664 0.09937 0.0
C525 C 0.39237 0.38963 0.17965 0.0
C526 C 0.38945 0.4046 0.06289 0.0
C527 C 0.36436 0.37526 0.08408 0.0
H528 H 0.4421 0.6235 0.93677 0.0
H529 H 0.37258 0.57829 0.07068 0.0
H530 H 0.31862 0.62722 0.04588 0.0
H531 H 0.28875 0.67756 0.97934 0.0
H532 H 0.35963 0.72218 0.84584 0.0
H533 H 0.41599 0.67908 0.87811 0.0
C534 C 0.41522 0.62459 0.96073 0.0
C535 C 0.41063 0.59708 1.00454 0.0
C536 C 0.3847 0.65254 0.94632 0.0
C537 C 0.37637 0.59921 0.03641 0.0
C538 C 0.34559 0.62701 0.02216 0.0
C539 C 0.3167 0.67825 0.95777 0.0
C540 C 0.31961 0.70237 0.90953 0.0
C541 C 0.349 0.65307 0.97617 0.0
C542 C 0.35631 0.70349 0.88265 0.0
C543 C 0.38859 0.67877 0.90091 0.0
H544 H 0.1186 0.68849 0.73109 0.0
H545 H 0.20627 0.60185 0.79817 0.0
H546 H 0.17607 0.55006 0.73439 0.0
H547 H 0.12567 0.53056 0.65816 0.0
H548 H 0.04184 0.61947 0.58602 0.0
H549 H 0.07035 0.66987 0.65228 0.0
C550 C 0.13046 0.658 0.73228 0.0
C551 C 0.16362 0.64822 0.76984 0.0
C552 C 0.1143 0.62932 0.69385 0.0
C553 C 0.18008 0.60935 0.77007 0.0
C554 C 0.1631 0.58005 0.7334 0.0
C555 C 0.11385 0.56104 0.65674 0.0
C556 C 0.08177 0.57132 0.61734 0.0
C557 C 0.13047 0.58987 0.69473 0.0
C558 C 0.06684 0.61094 0.61562 0.0
C559 C 0.08281 0.63966 0.65383 0.0
H560 H 0.18248 0.29156 0.42796 0.0
H561 H 0.17503 0.35798 0.27109 0.0
H562 H 0.13 0.40708 0.3116 0.0
H563 H 0.09326 0.43154 0.39187 0.0
H564 H 0.09859 0.36357 0.54729 0.0
H565 H 0.14407 0.31476 0.50701 0.0
C566 C 0.17105 0.31677 0.40254 0.0
C567 C 0.18233 0.32114 0.34658 0.0
C568 C 0.1449 0.34471 0.42592 0.0
C569 C 0.16682 0.35379 0.31419 0.0
C570 C 0.14116 0.38198 0.3374 0.0
C571 C 0.10456 0.40617 0.41706 0.0
C572 C 0.09284 0.4014 0.47272 0.0
C573 C 0.13015 0.37785 0.3933 0.0
C574 C 0.10717 0.36797 0.5044 0.0
C575 C 0.1332 0.34006 0.4814 0.0
H576 H 0.97822 0.94503 0.87328 0.0
H577 H 0.06212 0.04307 0.90694 0.0
H578 H 0.06015 0.03196 1.0084 0.0
H579 H 0.03547 0.99392 0.08828 0.0
H580 H 0.95181 0.8957 0.05483 0.0
H581 H 0.95364 0.90685 0.95327 0.0
C582 C 0.9964 0.96376 0.90271 0.0
C583 C 0.02009 -0.00496 0.88197 0.0
C584 C 0.99537 0.95706 0.96142 0.0
C585 C 0.043 0.01922 0.92125 0.0
C586 C 0.04211 0.01274 0.9795 0.0
C587 C 0.01732 0.97516 0.05887 0.0
C588 C 0.99367 0.94388 0.07965 0.0
C589 C 0.01834 0.98182 1.00017 0.0
C590 C 0.97082 0.91961 0.04044 0.0
C591 C 0.97165 0.9261 0.98214 0.0
H592 H 0.1979 0.79134 0.42547 0.0
H593 H 0.26515 0.68004 0.42185 0.0
H594 H 0.25256 0.67658 0.31917 0.0
H595 H 0.22224 0.705 0.23008 0.0
H596 H 0.15509 0.81637 0.23385 0.0
H597 H 0.16724 0.8195 0.33657 0.0
C598 C 0.20942 0.76607 0.40234 0.0
C599 C 0.23252 0.73604 0.43157 0.0
C600 C 0.20205 0.76423 0.34315 0.0
C601 C 0.24772 0.70386 0.40055 0.0
C602 C 0.24039 0.70176 0.34176 0.0
C603 C 0.21057 0.73015 0.25329 0.0
C604 C 0.18771 0.76035 0.22406 0.0
C605 C 0.21776 0.73187 0.31254 0.0
C606 C 0.17234 0.79241 0.25514 0.0
C607 C 0.17943 0.79435 0.31395 0.0
H608 H 0.53178 -0.00232 0.58121 0.0
H609 H 0.41507 0.05521 0.54999 0.0
H610 H 0.41765 0.04304 0.44866 0.0
H611 H 0.45295 0.01594 0.36821 0.0
H612 H 0.56964 0.95845 0.39992 0.0
H613 H 0.56657 0.96989 0.50119 0.0
C614 C 0.50664 0.00716 0.55242 0.0
C615 C 0.47335 0.02753 0.57369 0.0
C616 C 0.50818 -9e-05 0.49392 0.0
C617 C 0.44142 0.04004 0.53516 0.0
C618 C 0.44274 0.03289 0.47703 0.0
C619 C 0.47783 0.0061 0.39719 0.0
C620 C 0.51137 0.9861 0.37599 0.0
C621 C 0.47605 0.01301 0.4558 0.0
C622 C 0.54307 0.97326 0.41466 0.0
C623 C 0.5415 0.98004 0.47278 0.0
H624 H 0.21031 0.20303 0.8506 0.0
H625 H 0.31113 0.27797 0.91016 0.0
H626 H 0.33397 0.28152 0.81448 0.0
H627 H 0.32459 0.26492 0.71308 0.0
H628 H 0.22383 0.18993 0.65344 0.0
H629 H 0.20135 0.18582 0.74929 0.0
C630 C 0.23713 0.22039 0.8427 0.0
C631 C 0.2589 0.24011 0.88805 0.0
C632 C 0.25004 0.22262 0.78721 0.0
C633 C 0.29398 0.26193 0.87665 0.0
C634 C 0.30697 0.26424 0.82168 0.0
C635 C 0.29794 0.2473 0.72099 0.0
C636 C 0.27597 0.2279 0.67553 0.0
C637 C 0.28522 0.24478 0.77656 0.0
C638 C 0.24111 0.20576 0.68702 0.0
C639 C 0.22832 0.20314 0.74208 0.0
H640 H 0.79814 0.26727 0.83733 0.0
H641 H 0.70542 0.18215 0.87623 0.0
H642 H 0.68449 0.17587 0.77566 0.0
H643 H 0.69306 0.19399 0.67636 0.0
H644 H 0.78619 0.27892 0.63818 0.0
H645 H 0.80713 0.28484 0.73858 0.0
C646 C 0.77365 0.24697 0.82387 0.0
C647 C 0.75347 0.2252 0.86447 0.0
C648 C 0.76201 0.24321 0.76596 0.0
C649 C 0.72122 0.19966 0.8461 0.0
C650 C 0.70938 0.19585 0.78851 0.0
C651 C 0.71779 0.21397 0.69003 0.0
C652 C 0.73808 0.23585 0.6496 0.0
C653 C 0.72954 0.2175 0.74804 0.0
C654 C 0.77041 0.26122 0.66814 0.0
C655 C 0.78224 0.26487 0.72565 0.0
H656 H 0.70234 0.78169 0.33796 0.0
H657 H 0.80397 0.70735 0.39652 0.0
H658 H 0.8266 0.70409 0.30066 0.0
H659 H 0.81671 0.72067 0.19948 0.0
H660 H 0.71528 0.79527 0.14082 0.0
H661 H 0.69301 0.79911 0.23684 0.0
C662 C 0.7293 0.76454 0.32978 0.0
C663 C 0.75136 0.74487 0.37483 0.0
C664 C 0.74209 0.76251 0.27424 0.0
C665 C 0.78661 0.72332 0.36317 0.0
C666 C 0.79947 0.72118 0.30814 0.0
C667 C 0.78998 0.73818 0.20765 0.0
C668 C 0.76774 0.75752 0.16246 0.0
C669 C 0.77742 0.74056 0.26327 0.0
C670 C 0.73276 0.77949 0.17423 0.0
C671 C 0.72009 0.78195 0.22936 0.0
H672 H 0.52605 0.52736 0.63481 0.0
H673 H 0.40269 0.48516 0.60625 0.0
H674 H 0.40498 0.49766 0.50498 0.0
H675 H 0.44245 0.51949 0.42402 0.0
H676 H 0.56586 0.56148 0.45305 0.0
H677 H 0.56268 0.5511 0.55452 0.0
C678 C 0.49944 0.52144 0.6066 0.0
C679 C 0.46434 0.50515 0.62826 0.0
C680 C 0.50091 0.52876 0.54834 0.0
C681 C 0.43036 0.49713 0.59075 0.0
C682 C 0.43156 0.50444 0.53279 0.0
C683 C 0.46868 0.52624 0.45254 0.0
C684 C 0.50428 0.54134 0.43078 0.0
C685 C 0.4668 0.5199 0.51101 0.0
C686 C 0.53783 0.55039 0.46854 0.0
C687 C 0.53616 0.54421 0.52664 0.0
H688 H 0.97902 0.50397 0.93238 0.0
H689 H 0.08015 0.42191 0.95656 0.0
H690 H 0.08338 0.43441 0.05835 0.0
H691 H 0.05773 0.46893 0.14105 0.0
H692 H 0.95671 0.55109 0.11643 0.0
H693 H 0.95379 0.53881 1.0147 0.0
C694 C 0.00208 0.48914 0.95977 0.0
C695 C 0.0292 0.46192 0.9365 0.0
C696 C 0.00389 0.49655 1.01847 0.0
C697 C 0.05847 0.44258 0.9731 0.0
C698 C 0.06049 0.44985 0.03144 0.0
C699 C 0.03488 0.48392 0.11349 0.0
C700 C 0.00762 0.51106 0.13666 0.0
C701 C 0.03325 0.47665 0.05471 0.0
C702 C 0.97852 0.53053 0.09995 0.0
C703 C 0.97666 0.52337 0.04165 0.0
loop_
_geom_bond_atom_site_label_1
_geom_bond_atom_site_label_2
_geom_bond_distance
_geom_bond_site_symmetry_2
_ccdc_geom_bond_type
Dy0 O3 2.307 . S
Dy0 O5 2.395 . S
Dy0 O6 2.379 1_455 S
Dy0 O8 2.339 1_455 S
Dy0 O10 2.298 1_445 S
Dy0 O14 2.275 1_545 S
Dy0 C22 2.738 1_455 S
Dy1 O4 2.298 1_665 S
Dy1 O7 2.275 1_565 S
Dy1 O9 2.307 . S
Dy1 O11 2.395 . S
Dy1 O12 2.379 1_655 S
Dy1 O15 2.339 1_655 S
Dy1 C31 2.738 1_655 S
C2 O14 1.254 . S
C2 O15 1.257 . S
O3 Dy0 2.307 . S
O3 C13 1.266 . S
O4 Dy1 2.298 1_445 S
O4 C13 1.236 . S
O5 Dy0 2.395 . S
O5 C22 1.255 1_455 S
O6 Dy0 2.379 1_655 S
O6 C22 1.249 . S
O7 Dy1 2.275 1_545 S
O7 C23 1.254 . S
O8 Dy0 2.339 1_655 S
O8 C23 1.257 . S
O9 Dy1 2.307 . S
O9 C24 1.266 . S
O10 Dy0 2.298 1_665 S
O10 C24 1.236 . S
O11 Dy1 2.395 . S
O11 C31 1.255 1_655 S
O12 Dy1 2.379 1_455 S
O12 C31 1.249 . S
C13 O3 1.266 . S
C13 O4 1.236 . S
O14 Dy0 2.275 1_565 S
O14 C2 1.254 . S
O15 Dy1 2.339 1_455 S
O15 C2 1.257 . S
C16 C19 1.344 1_545 S
C16 C20 1.328 . S
C16 C22 1.516 . S
C17 C18 1.304 1_545 S
C17 C21 1.323 . S
C18 C17 1.304 1_565 S
C18 C19 1.371 . S
C18 H32 0.930 1_655 S
C19 C16 1.344 1_565 S
C19 C18 1.371 . S
C19 H33 0.931 1_655 S
C20 C16 1.328 . S
C20 C21 1.433 . S
C20 H34 0.931 . S
C21 C17 1.323 . S
C21 C20 1.433 . S
C21 H35 0.933 . S
C22 Dy0 2.738 1_655 S
C22 O5 1.255 1_655 S
C22 O6 1.249 . S
C22 C16 1.516 . S
C23 O7 1.254 . S
C23 O8 1.257 . S
C24 O9 1.266 . S
C24 O10 1.236 . S
C25 C28 1.344 1_565 S
C25 C29 1.328 . S
C25 C31 1.516 . S
C26 C27 1.304 1_565 S
C26 C30 1.323 . S
C27 C26 1.304 1_545 S
C27 C28 1.371 . S
C27 H36 0.930 1_455 S
C28 C25 1.344 1_545 S
C28 C27 1.371 . S
C28 H37 0.931 1_455 S
C29 C25 1.328 . S
C29 C30 1.433 . S
C29 H38 0.931 . S
C30 C26 1.323 . S
C30 C29 1.433 . S
C30 H39 0.933 . S
C31 Dy1 2.738 1_455 S
C31 O11 1.255 1_455 S
C31 O12 1.249 . S
C31 C25 1.516 . S
H32 C18 0.930 1_455 S
H33 C19 0.931 1_455 S
H34 C20 0.931 . S
H35 C21 0.933 . S
H36 C27 0.930 1_655 S
H37 C28 0.931 1_655 S
H38 C29 0.931 . S
H39 C30 0.933 . S
Dy40 O43 2.307 . S
Dy40 O45 2.395 . S
Dy40 O46 2.379 . S
Dy40 O48 2.339 . S
Dy40 O50 2.298 . S
Dy40 O54 2.275 . S
Dy40 C62 2.738 . S
Dy41 O44 2.298 . S
Dy41 O47 2.275 . S
Dy41 O49 2.307 . S
Dy41 O51 2.395 . S
Dy41 O52 2.379 . S
Dy41 O55 2.339 . S
Dy41 C71 2.738 . S
C42 O54 1.254 . S
C42 O55 1.257 . S
O43 Dy40 2.307 . S
O43 C53 1.266 . S
O44 Dy41 2.298 . S
O44 C53 1.236 . S
O45 Dy40 2.395 . S
O45 C62 1.255 . S
O46 Dy40 2.379 . S
O46 C62 1.249 . S
O47 Dy41 2.275 . S
O47 C63 1.254 . S
O48 Dy40 2.339 . S
O48 C63 1.257 . S
O49 Dy41 2.307 . S
O49 C64 1.266 . S
O50 Dy40 2.298 . S
O50 C64 1.236 . S
O51 Dy41 2.395 . S
O51 C71 1.255 . S
O52 Dy41 2.379 . S
O52 C71 1.249 . S
C53 O43 1.266 . S
C53 O44 1.236 . S
O54 Dy40 2.275 . S
O54 C42 1.254 . S
O55 Dy41 2.339 . S
O55 C42 1.257 . S
C56 C59 1.344 . S
C56 C60 1.328 . S
C56 C62 1.516 . S
C57 C58 1.304 . S
C57 C61 1.323 . S
C58 C57 1.304 . S
C58 C59 1.371 . S
C58 H72 0.930 . S
C59 C56 1.344 . S
C59 C58 1.371 . S
C59 H73 0.931 . S
C60 C56 1.328 . S
C60 C61 1.433 . S
C60 H74 0.931 . S
C61 C57 1.323 . S
C61 C60 1.433 . S
C61 H75 0.933 . S
C62 Dy40 2.738 . S
C62 O45 1.255 . S
C62 O46 1.249 . S
C62 C56 1.516 . S
C63 O47 1.254 . S
C63 O48 1.257 . S
C64 O49 1.266 . S
C64 O50 1.236 . S
C65 C68 1.344 1_556 S
C65 C69 1.328 1_556 S
C65 C71 1.516 . S
C66 C67 1.304 . S
C66 C70 1.323 . S
C67 C66 1.304 . S
C67 C68 1.371 . S
C67 H76 0.930 . S
C68 C65 1.344 1_554 S
C68 C67 1.371 . S
C68 H77 0.931 . S
C69 C65 1.328 1_554 S
C69 C70 1.433 . S
C69 H78 0.931 1_554 S
C70 C66 1.323 . S
C70 C69 1.433 . S
C70 H79 0.933 . S
C71 Dy41 2.738 . S
C71 O51 1.255 . S
C71 O52 1.249 . S
C71 C65 1.516 . S
H72 C58 0.930 . S
H73 C59 0.931 . S
H74 C60 0.931 . S
H75 C61 0.933 . S
H76 C67 0.930 . S
H77 C68 0.931 . S
H78 C69 0.931 1_556 S
H79 C70 0.933 . S
Dy80 O83 2.292 1_556 S
Dy80 O85 2.395 . S
Dy80 O86 2.379 . S
Dy80 O88 2.339 . S
Dy80 O90 2.298 1_545 S
Dy80 O94 2.275 1_545 S
Dy80 C102 2.738 . S
Dy81 O84 2.298 1_565 S
Dy81 O87 2.275 1_565 S
Dy81 O89 2.295 1_554 S
Dy81 O91 2.395 . S
Dy81 O92 2.379 . S
Dy81 O95 2.339 . S
Dy81 C111 2.738 . S
C82 O94 1.254 . S
C82 O95 1.257 1_556 S
O83 Dy80 2.292 1_554 S
O83 C93 1.284 . S
O84 Dy81 2.298 1_545 S
O84 C93 1.236 . S
O85 Dy80 2.395 . S
O85 C102 1.255 . S
O86 Dy80 2.379 . S
O86 C102 1.249 . S
O87 Dy81 2.275 1_545 S
O87 C103 1.254 . S
O88 Dy80 2.339 . S
O88 C103 1.257 1_556 S
O89 Dy81 2.295 1_556 S
O89 C104 1.280 . S
O90 Dy80 2.298 1_565 S
O90 C104 1.236 . S
O91 Dy81 2.395 . S
O91 C111 1.255 . S
O92 Dy81 2.379 . S
O92 C111 1.249 . S
C93 O83 1.284 . S
C93 O84 1.236 . S
O94 Dy80 2.275 1_565 S
O94 C82 1.254 . S
O95 Dy81 2.339 . S
O95 C82 1.257 1_554 S
C96 C99 1.344 1_545 S
C96 C100 1.328 . S
C96 C102 1.516 . S
C97 C98 1.304 1_545 S
C97 C101 1.323 . S
C98 C97 1.304 1_565 S
C98 C99 1.371 . S
C98 H112 0.930 . S
C99 C96 1.344 1_565 S
C99 C98 1.371 . S
C99 H113 0.931 . S
C100 C96 1.328 . S
C100 C101 1.433 . S
C100 H114 0.931 . S
C101 C97 1.323 . S
C101 C100 1.433 . S
C101 H115 0.933 . S
C102 Dy80 2.738 . S
C102 O85 1.255 . S
C102 O86 1.249 . S
C102 C96 1.516 . S
C103 O87 1.254 . S
C103 O88 1.257 1_554 S
C104 O89 1.280 . S
C104 O90 1.236 . S
C105 C108 1.344 1_565 S
C105 C109 1.328 . S
C105 C111 1.516 . S
C106 C107 1.304 1_565 S
C106 C110 1.323 . S
C107 C106 1.304 1_545 S
C107 C108 1.371 . S
C107 H116 0.930 . S
C108 C105 1.344 1_545 S
C108 C107 1.371 . S
C108 H117 0.931 . S
C109 C105 1.328 . S
C109 C110 1.433 . S
C109 H118 0.931 . S
C110 C106 1.323 . S
C110 C109 1.433 . S
C110 H119 0.933 . S
C111 Dy81 2.738 . S
C111 O91 1.255 . S
C111 O92 1.249 . S
C111 C105 1.516 . S
H112 C98 0.930 . S
H113 C99 0.931 . S
H114 C100 0.931 . S
H115 C101 0.933 . S
H116 C107 0.930 . S
H117 C108 0.931 . S
H118 C109 0.931 . S
H119 C110 0.933 . S
Dy120 O123 2.307 . S
Dy120 O125 2.395 . S
Dy120 O126 2.379 . S
Dy120 O128 2.339 . S
Dy120 O130 2.298 . S
Dy120 O134 2.275 . S
Dy120 C142 2.738 . S
Dy121 O124 2.298 . S
Dy121 O127 2.275 . S
Dy121 O129 2.307 . S
Dy121 O131 2.395 . S
Dy121 O132 2.379 . S
Dy121 O135 2.339 . S
Dy121 C151 2.738 . S
C122 O134 1.254 . S
C122 O135 1.257 . S
O123 Dy120 2.307 . S
O123 C133 1.266 . S
O124 Dy121 2.298 . S
O124 C133 1.236 . S
O125 Dy120 2.395 . S
O125 C142 1.255 . S
O126 Dy120 2.379 . S
O126 C142 1.249 . S
O127 Dy121 2.275 . S
O127 C143 1.254 . S
O128 Dy120 2.339 . S
O128 C143 1.257 . S
O129 Dy121 2.307 . S
O129 C144 1.266 . S
O130 Dy120 2.298 . S
O130 C144 1.236 . S
O131 Dy121 2.395 . S
O131 C151 1.255 . S
O132 Dy121 2.379 . S
O132 C151 1.249 . S
C133 O123 1.266 . S
C133 O124 1.236 . S
O134 Dy120 2.275 . S
O134 C122 1.254 . S
O135 Dy121 2.339 . S
O135 C122 1.257 . S
C136 C139 1.344 1_554 S
C136 C140 1.328 1_554 S
C136 C142 1.516 . S
C137 C138 1.304 . S
C137 C141 1.323 . S
C138 C137 1.304 . S
C138 C139 1.371 . S
C138 H152 0.930 . S
C139 C136 1.344 1_556 S
C139 C138 1.371 . S
C139 H153 0.931 1_556 S
C140 C136 1.328 1_556 S
C140 C141 1.433 . S
C140 H154 0.931 1_556 S
C141 C137 1.323 . S
C141 C140 1.433 . S
C141 H155 0.933 . S
C142 Dy120 2.738 . S
C142 O125 1.255 . S
C142 O126 1.249 . S
C142 C136 1.516 . S
C143 O127 1.254 . S
C143 O128 1.257 . S
C144 O129 1.266 . S
C144 O130 1.236 . S
C145 C148 1.344 . S
C145 C149 1.328 . S
C145 C151 1.516 . S
C146 C147 1.304 . S
C146 C150 1.323 . S
C147 C146 1.304 . S
C147 C148 1.371 . S
C147 H156 0.930 . S
C148 C145 1.344 . S
C148 C147 1.371 . S
C148 H157 0.931 . S
C149 C145 1.328 . S
C149 C150 1.433 . S
C149 H158 0.931 . S
C150 C146 1.323 . S
C150 C149 1.433 . S
C150 H159 0.933 . S
C151 Dy121 2.738 . S
C151 O131 1.255 . S
C151 O132 1.249 . S
C151 C145 1.516 . S
H152 C138 0.930 . S
H153 C139 0.931 1_554 S
H154 C140 0.931 1_554 S
H155 C141 0.933 . S
H156 C147 0.930 . S
H157 C148 0.931 . S
H158 C149 0.931 . S
H159 C150 0.933 . S
Dy160 O163 2.307 . S
Dy160 O165 2.395 . S
Dy160 O166 2.379 . S
Dy160 O168 2.339 . S
Dy160 O170 2.298 . S
Dy160 O174 2.275 . S
Dy160 C182 2.738 . S
Dy161 O164 2.298 . S
Dy161 O167 2.275 . S
Dy161 O169 2.307 . S
Dy161 O171 2.395 . S
Dy161 O172 2.379 . S
Dy161 O175 2.339 . S
Dy161 C191 2.738 . S
C162 O174 1.254 . S
C162 O175 1.257 . S
O163 Dy160 2.307 . S
O163 C173 1.266 . S
O164 Dy161 2.298 . S
O164 C173 1.236 . S
O165 Dy160 2.395 . S
O165 C182 1.255 . S
O166 Dy160 2.379 . S
O166 C182 1.249 . S
O167 Dy161 2.275 . S
O167 C183 1.254 . S
O168 Dy160 2.339 . S
O168 C183 1.257 . S
O169 Dy161 2.307 . S
O169 C184 1.266 . S
O170 Dy160 2.298 . S
O170 C184 1.236 . S
O171 Dy161 2.395 . S
O171 C191 1.255 . S
O172 Dy161 2.379 . S
O172 C191 1.249 . S
C173 O163 1.266 . S
C173 O164 1.236 . S
O174 Dy160 2.275 . S
O174 C162 1.254 . S
O175 Dy161 2.339 . S
O175 C162 1.257 . S
C176 C179 1.344 1_554 S
C176 C180 1.328 1_554 S
C176 C182 1.516 . S
C177 C178 1.304 . S
C177 C181 1.323 . S
C178 C177 1.304 . S
C178 C179 1.371 . S
C178 H192 0.930 . S
C179 C176 1.344 1_556 S
C179 C178 1.371 . S
C179 H193 0.931 . S
C180 C176 1.328 1_556 S
C180 C181 1.433 . S
C180 H194 0.931 1_556 S
C181 C177 1.323 . S
C181 C180 1.433 . S
C181 H195 0.933 . S
C182 Dy160 2.738 . S
C182 O165 1.255 . S
C182 O166 1.249 . S
C182 C176 1.516 . S
C183 O167 1.254 . S
C183 O168 1.257 . S
C184 O169 1.266 . S
C184 O170 1.236 . S
C185 C188 1.344 . S
C185 C189 1.328 . S
C185 C191 1.516 . S
C186 C187 1.304 . S
C186 C190 1.323 . S
C187 C186 1.304 . S
C187 C188 1.371 . S
C187 H196 0.930 . S
C188 C185 1.344 . S
C188 C187 1.371 . S
C188 H197 0.931 . S
C189 C185 1.328 . S
C189 C190 1.433 . S
C189 H198 0.931 . S
C190 C186 1.323 . S
C190 C189 1.433 . S
C190 H199 0.933 . S
C191 Dy161 2.738 . S
C191 O171 1.255 . S
C191 O172 1.249 . S
C191 C185 1.516 . S
H192 C178 0.930 . S
H193 C179 0.931 . S
H194 C180 0.931 1_554 S
H195 C181 0.933 . S
H196 C187 0.930 . S
H197 C188 0.931 . S
H198 C189 0.931 . S
H199 C190 0.933 . S
Dy200 O203 2.307 . S
Dy200 O205 2.395 . S
Dy200 O206 2.379 . S
Dy200 O208 2.339 . S
Dy200 O210 2.298 . S
Dy200 O214 2.275 . S
Dy200 C222 2.738 . S
Dy201 O204 2.298 . S
Dy201 O207 2.275 . S
Dy201 O209 2.307 . S
Dy201 O211 2.395 . S
Dy201 O212 2.379 . S
Dy201 O215 2.339 . S
Dy201 C231 2.738 . S
C202 O214 1.254 . S
C202 O215 1.257 . S
O203 Dy200 2.307 . S
O203 C213 1.266 . S
O204 Dy201 2.298 . S
O204 C213 1.236 . S
O205 Dy200 2.395 . S
O205 C222 1.255 . S
O206 Dy200 2.379 . S
O206 C222 1.249 . S
O207 Dy201 2.275 . S
O207 C223 1.254 . S
O208 Dy200 2.339 . S
O208 C223 1.257 . S
O209 Dy201 2.307 . S
O209 C224 1.266 . S
O210 Dy200 2.298 . S
O210 C224 1.236 . S
O211 Dy201 2.395 . S
O211 C231 1.255 . S
O212 Dy201 2.379 . S
O212 C231 1.249 . S
C213 O203 1.266 . S
C213 O204 1.236 . S
O214 Dy200 2.275 . S
O214 C202 1.254 . S
O215 Dy201 2.339 . S
O215 C202 1.257 . S
C216 C219 1.344 . S
C216 C220 1.328 . S
C216 C222 1.516 . S
C217 C218 1.304 . S
C217 C221 1.323 . S
C218 C217 1.304 . S
C218 C219 1.371 . S
C218 H232 0.930 . S
C219 C216 1.344 . S
C219 C218 1.371 . S
C219 H233 0.931 . S
C220 C216 1.328 . S
C220 C221 1.433 . S
C220 H234 0.931 . S
C221 C217 1.323 . S
C221 C220 1.433 . S
C221 H235 0.933 . S
C222 Dy200 2.738 . S
C222 O205 1.255 . S
C222 O206 1.249 . S
C222 C216 1.516 . S
C223 O207 1.254 . S
C223 O208 1.257 . S
C224 O209 1.266 . S
C224 O210 1.236 . S
C225 C228 1.344 1_556 S
C225 C229 1.328 1_556 S
C225 C231 1.516 . S
C226 C227 1.304 . S
C226 C230 1.323 . S
C227 C226 1.304 . S
C227 C228 1.371 . S
C227 H236 0.930 . S
C228 C225 1.344 1_554 S
C228 C227 1.371 . S
C228 H237 0.931 1_554 S
C229 C225 1.328 1_554 S
C229 C230 1.433 . S
C229 H238 0.931 1_554 S
C230 C226 1.323 . S
C230 C229 1.433 . S
C230 H239 0.933 . S
C231 Dy201 2.738 . S
C231 O211 1.255 . S
C231 O212 1.249 . S
C231 C225 1.516 . S
H232 C218 0.930 . S
H233 C219 0.931 . S
H234 C220 0.931 . S
H235 C221 0.933 . S
H236 C227 0.930 . S
H237 C228 0.931 1_556 S
H238 C229 0.931 1_556 S
H239 C230 0.933 . S
Dy240 O243 2.301 1_554 S
Dy240 O245 2.395 . S
Dy240 O246 2.379 . S
Dy240 O248 2.339 . S
Dy240 O250 2.298 . S
Dy240 O254 2.275 . S
Dy240 C262 2.738 . S
Dy241 O244 2.298 . S
Dy241 O247 2.275 . S
Dy241 O249 2.297 1_556 S
Dy241 O251 2.395 . S
Dy241 O252 2.379 . S
Dy241 O255 2.339 . S
Dy241 C271 2.738 . S
C242 O254 1.254 . S
C242 O255 1.257 1_554 S
O243 Dy240 2.301 1_556 S
O243 C253 1.273 . S
O244 Dy241 2.298 . S
O244 C253 1.236 . S
O245 Dy240 2.395 . S
O245 C262 1.255 . S
O246 Dy240 2.379 . S
O246 C262 1.249 . S
O247 Dy241 2.275 . S
O247 C263 1.254 . S
O248 Dy240 2.339 . S
O248 C263 1.257 1_554 S
O249 Dy241 2.297 1_554 S
O249 C264 1.278 . S
O250 Dy240 2.298 . S
O250 C264 1.236 . S
O251 Dy241 2.395 . S
O251 C271 1.255 . S
O252 Dy241 2.379 . S
O252 C271 1.249 . S
C253 O243 1.273 . S
C253 O244 1.236 . S
O254 Dy240 2.275 . S
O254 C242 1.254 . S
O255 Dy241 2.339 . S
O255 C242 1.257 1_556 S
C256 C259 1.344 . S
C256 C260 1.328 . S
C256 C262 1.516 . S
C257 C258 1.304 . S
C257 C261 1.323 . S
C258 C257 1.304 . S
C258 C259 1.371 . S
C258 H272 0.930 . S
C259 C256 1.344 . S
C259 C258 1.371 . S
C259 H273 0.931 . S
C260 C256 1.328 . S
C260 C261 1.433 . S
C260 H274 0.931 . S
C261 C257 1.323 . S
C261 C260 1.433 . S
C261 H275 0.933 . S
C262 Dy240 2.738 . S
C262 O245 1.255 . S
C262 O246 1.249 . S
C262 C256 1.516 . S
C263 O247 1.254 . S
C263 O248 1.257 1_556 S
C264 O249 1.278 . S
C264 O250 1.236 . S
C265 C268 1.344 . S
C265 C269 1.328 . S
C265 C271 1.516 . S
C266 C267 1.304 . S
C266 C270 1.323 . S
C267 C266 1.304 . S
C267 C268 1.371 . S
C267 H276 0.930 . S
C268 C265 1.344 . S
C268 C267 1.371 . S
C268 H277 0.931 . S
C269 C265 1.328 . S
C269 C270 1.433 . S
C269 H278 0.931 . S
C270 C266 1.323 . S
C270 C269 1.433 . S
C270 H279 0.933 . S
C271 Dy241 2.738 . S
C271 O251 1.255 . S
C271 O252 1.249 . S
C271 C265 1.516 . S
H272 C258 0.930 . S
H273 C259 0.931 . S
H274 C260 0.931 . S
H275 C261 0.933 . S
H276 C267 0.930 . S
H277 C268 0.931 . S
H278 C269 0.931 . S
H279 C270 0.933 . S
Dy280 O283 2.307 . S
Dy280 O285 2.395 . S
Dy280 O286 2.379 1_655 S
Dy280 O288 2.339 1_655 S
Dy280 O290 2.298 1_655 S
Dy280 O294 2.275 . S
Dy280 C302 2.738 1_655 S
Dy281 O284 2.298 1_455 S
Dy281 O287 2.275 . S
Dy281 O289 2.307 . S
Dy281 O291 2.395 . S
Dy281 O292 2.379 1_455 S
Dy281 O295 2.339 1_455 S
Dy281 C311 2.738 1_455 S
C282 O294 1.254 . S
C282 O295 1.257 . S
O283 Dy280 2.307 . S
O283 C293 1.266 . S
O284 Dy281 2.298 1_655 S
O284 C293 1.236 . S
O285 Dy280 2.395 . S
O285 C302 1.255 1_655 S
O286 Dy280 2.379 1_455 S
O286 C302 1.249 . S
O287 Dy281 2.275 . S
O287 C303 1.254 . S
O288 Dy280 2.339 1_455 S
O288 C303 1.257 . S
O289 Dy281 2.307 . S
O289 C304 1.266 . S
O290 Dy280 2.298 1_455 S
O290 C304 1.236 . S
O291 Dy281 2.395 . S
O291 C311 1.255 1_455 S
O292 Dy281 2.379 1_655 S
O292 C311 1.249 . S
C293 O283 1.266 . S
C293 O284 1.236 . S
O294 Dy280 2.275 . S
O294 C282 1.254 . S
O295 Dy281 2.339 1_655 S
O295 C282 1.257 . S
C296 C299 1.347 . S
C296 C300 1.328 . S
C296 C302 1.516 . S
C297 C298 1.304 . S
C297 C301 1.323 . S
C298 C297 1.304 . S
C298 C299 1.373 . S
C298 H312 0.930 1_455 S
C299 C296 1.347 . S
C299 C298 1.373 . S
C299 H313 0.926 1_455 S
C300 C296 1.328 . S
C300 C301 1.433 . S
C300 H314 0.931 . S
C301 C297 1.323 . S
C301 C300 1.433 . S
C301 H315 0.933 . S
C302 Dy280 2.738 1_455 S
C302 O285 1.255 1_455 S
C302 O286 1.249 . S
C302 C296 1.516 . S
C303 O287 1.254 . S
C303 O288 1.257 . S
C304 O289 1.266 . S
C304 O290 1.236 . S
C305 C308 1.345 . S
C305 C309 1.328 . S
C305 C311 1.516 . S
C306 C307 1.304 . S
C306 C310 1.323 . S
C307 C306 1.304 . S
C307 C308 1.372 . S
C307 H316 0.930 1_655 S
C308 C305 1.345 . S
C308 C307 1.372 . S
C308 H317 0.929 1_655 S
C309 C305 1.328 . S
C309 C310 1.433 . S
C309 H318 0.931 . S
C310 C306 1.323 . S
C310 C309 1.433 . S
C310 H319 0.933 . S
C311 Dy281 2.738 1_655 S
C311 O291 1.255 1_655 S
C311 O292 1.249 . S
C311 C305 1.516 . S
H312 C298 0.930 1_655 S
H313 C299 0.926 1_655 S
H314 C300 0.931 . S
H315 C301 0.933 . S
H316 C307 0.930 1_455 S
H317 C308 0.929 1_455 S
H318 C309 0.931 . S
H319 C310 0.933 . S
H320 C326 0.930 . S
H321 C329 0.930 . S
H322 C330 0.930 . S
H323 C331 0.930 . S
H324 C334 0.930 . S
H325 C335 0.930 . S
C326 H320 0.930 . S
C326 C327 1.355 . S
C326 C328 1.415 . S
C327 C326 1.355 . S
C327 C329 1.419 . S
C328 C326 1.415 . S
C328 C333 1.425 . S
C328 C335 1.409 . S
C329 H321 0.930 . S
C329 C327 1.419 . S
C329 C330 1.362 . S
C330 H322 0.930 . S
C330 C329 1.362 . S
C330 C333 1.409 . S
C331 H323 0.930 . S
C331 C332 1.355 . S
C331 C333 1.415 . S
C332 C331 1.355 . S
C332 C334 1.419 . S
C333 C328 1.425 . S
C333 C330 1.409 . S
C333 C331 1.415 . S
C334 H324 0.930 . S
C334 C332 1.419 . S
C334 C335 1.362 . S
C335 H325 0.930 . S
C335 C328 1.409 . S
C335 C334 1.362 . S
H336 C342 0.930 . S
H337 C345 0.930 . S
H338 C346 0.930 . S
H339 C347 0.930 . S
H340 C350 0.930 . S
H341 C351 0.930 . S
C342 H336 0.930 . S
C342 C343 1.355 . S
C342 C344 1.415 . S
C343 C342 1.355 . S
C343 C345 1.419 . S
C344 C342 1.415 . S
C344 C349 1.425 . S
C344 C351 1.409 . S
C345 H337 0.930 . S
C345 C343 1.419 . S
C345 C346 1.362 . S
C346 H338 0.930 . S
C346 C345 1.362 . S
C346 C349 1.409 . S
C347 H339 0.930 . S
C347 C348 1.355 . S
C347 C349 1.415 . S
C348 C347 1.355 . S
C348 C350 1.419 . S
C349 C344 1.425 . S
C349 C346 1.409 . S
C349 C347 1.415 . S
C350 H340 0.930 . S
C350 C348 1.419 . S
C350 C351 1.362 . S
C351 H341 0.930 . S
C351 C344 1.409 . S
C351 C350 1.362 . S
H352 C358 0.930 . S
H353 C361 0.930 . S
H354 C362 0.930 . S
H355 C363 0.930 . S
H356 C366 0.930 1_554 S
H357 C367 0.930 . S
C358 H352 0.930 . S
C358 C359 1.355 . S
C358 C360 1.415 . S
C359 C358 1.355 . S
C359 C361 1.419 . S
C360 C358 1.415 . S
C360 C365 1.425 . S
C360 C367 1.409 . S
C361 H353 0.930 . S
C361 C359 1.419 . S
C361 C362 1.362 . S
C362 H354 0.930 . S
C362 C361 1.362 . S
C362 C365 1.409 . S
C363 H355 0.930 . S
C363 C364 1.355 . S
C363 C365 1.415 . S
C364 C363 1.355 . S
C364 C366 1.419 . S
C365 C360 1.425 . S
C365 C362 1.409 . S
C365 C363 1.415 . S
C366 H356 0.930 1_556 S
C366 C364 1.419 . S
C366 C367 1.362 . S
C367 H357 0.930 . S
C367 C360 1.409 . S
C367 C366 1.362 . S
H368 C374 0.930 . S
H369 C377 0.930 . S
H370 C378 0.930 . S
H371 C379 0.930 . S
H372 C382 0.930 . S
H373 C383 0.930 . S
C374 H368 0.930 . S
C374 C375 1.355 . S
C374 C376 1.415 . S
C375 C374 1.355 . S
C375 C377 1.419 . S
C376 C374 1.415 . S
C376 C381 1.425 . S
C376 C383 1.409 . S
C377 H369 0.930 . S
C377 C375 1.419 . S
C377 C378 1.362 . S
C378 H370 0.930 . S
C378 C377 1.362 . S
C378 C381 1.409 . S
C379 H371 0.930 . S
C379 C380 1.355 . S
C379 C381 1.415 . S
C380 C379 1.355 . S
C380 C382 1.419 . S
C381 C376 1.425 . S
C381 C378 1.409 . S
C381 C379 1.415 . S
C382 H372 0.930 . S
C382 C380 1.419 . S
C382 C383 1.362 . S
C383 H373 0.930 . S
C383 C376 1.409 . S
C383 C382 1.362 . S
H384 C390 0.930 . S
H385 C393 0.930 . S
H386 C394 0.930 . S
H387 C395 0.930 . S
H388 C398 0.930 . S
H389 C399 0.930 . S
C390 H384 0.930 . S
C390 C391 1.355 . S
C390 C392 1.415 . S
C391 C390 1.355 . S
C391 C393 1.419 . S
C392 C390 1.415 . S
C392 C397 1.425 . S
C392 C399 1.409 . S
C393 H385 0.930 . S
C393 C391 1.419 . S
C393 C394 1.362 . S
C394 H386 0.930 . S
C394 C393 1.362 . S
C394 C397 1.409 . S
C395 H387 0.930 . S
C395 C396 1.355 . S
C395 C397 1.415 . S
C396 C395 1.355 . S
C396 C398 1.419 . S
C397 C392 1.425 . S
C397 C394 1.409 . S
C397 C395 1.415 . S
C398 H388 0.930 . S
C398 C396 1.419 . S
C398 C399 1.362 . S
C399 H389 0.930 . S
C399 C392 1.409 . S
C399 C398 1.362 . S
H400 C406 0.930 . S
H401 C409 0.930 . S
H402 C410 0.930 . S
H403 C411 0.930 . S
H404 C414 0.930 . S
H405 C415 0.930 . S
C406 H400 0.930 . S
C406 C407 1.355 . S
C406 C408 1.415 . S
C407 C406 1.355 . S
C407 C409 1.419 . S
C408 C406 1.415 . S
C408 C413 1.425 . S
C408 C415 1.409 . S
C409 H401 0.930 . S
C409 C407 1.419 . S
C409 C410 1.362 . S
C410 H402 0.930 . S
C410 C409 1.362 . S
C410 C413 1.409 . S
C411 H403 0.930 . S
C411 C412 1.355 . S
C411 C413 1.415 . S
C412 C411 1.355 . S
C412 C414 1.419 . S
C413 C408 1.425 . S
C413 C410 1.409 . S
C413 C411 1.415 . S
C414 H404 0.930 . S
C414 C412 1.419 . S
C414 C415 1.362 . S
C415 H405 0.930 . S
C415 C408 1.409 . S
C415 C414 1.362 . S
H416 C422 0.930 . S
H417 C425 0.930 . S
H418 C426 0.930 . S
H419 C427 0.930 . S
H420 C430 0.930 . S
H421 C431 0.930 . S
C422 H416 0.930 . S
C422 C423 1.355 . S
C422 C424 1.415 . S
C423 C422 1.355 . S
C423 C425 1.419 . S
C424 C422 1.415 . S
C424 C429 1.425 . S
C424 C431 1.409 . S
C425 H417 0.930 . S
C425 C423 1.419 . S
C425 C426 1.362 . S
C426 H418 0.930 . S
C426 C425 1.362 . S
C426 C429 1.409 . S
C427 H419 0.930 . S
C427 C428 1.355 . S
C427 C429 1.415 . S
C428 C427 1.355 . S
C428 C430 1.419 . S
C429 C424 1.425 . S
C429 C426 1.409 . S
C429 C427 1.415 . S
C430 H420 0.930 . S
C430 C428 1.419 . S
C430 C431 1.362 . S
C431 H421 0.930 . S
C431 C424 1.409 . S
C431 C430 1.362 . S
H432 C438 0.930 . S
H433 C441 0.930 . S
H434 C442 0.930 . S
H435 C443 0.930 . S
H436 C446 0.930 . S
H437 C447 0.930 . S
C438 H432 0.930 . S
C438 C439 1.355 . S
C438 C440 1.415 . S
C439 C438 1.355 . S
C439 C441 1.419 . S
C440 C438 1.415 . S
C440 C445 1.425 . S
C440 C447 1.409 . S
C441 H433 0.930 . S
C441 C439 1.419 . S
C441 C442 1.362 . S
C442 H434 0.930 . S
C442 C441 1.362 . S
C442 C445 1.409 . S
C443 H435 0.930 . S
C443 C444 1.355 . S
C443 C445 1.415 . S
C444 C443 1.355 . S
C444 C446 1.419 . S
C445 C440 1.425 . S
C445 C442 1.409 . S
C445 C443 1.415 . S
C446 H436 0.930 . S
C446 C444 1.419 . S
C446 C447 1.362 . S
C447 H437 0.930 . S
C447 C440 1.409 . S
C447 C446 1.362 . S
H448 C454 0.930 . S
H449 C457 0.930 . S
H450 C458 0.930 . S
H451 C459 0.930 . S
H452 C462 0.930 . S
H453 C463 0.930 . S
C454 H448 0.930 . S
C454 C455 1.355 . S
C454 C456 1.415 . S
C455 C454 1.355 . S
C455 C457 1.419 . S
C456 C454 1.415 . S
C456 C461 1.425 . S
C456 C463 1.409 . S
C457 H449 0.930 . S
C457 C455 1.419 . S
C457 C458 1.362 . S
C458 H450 0.930 . S
C458 C457 1.362 . S
C458 C461 1.409 . S
C459 H451 0.930 . S
C459 C460 1.355 . S
C459 C461 1.415 . S
C460 C459 1.355 . S
C460 C462 1.419 . S
C461 C456 1.425 . S
C461 C458 1.409 . S
C461 C459 1.415 . S
C462 H452 0.930 . S
C462 C460 1.419 . S
C462 C463 1.362 . S
C463 H453 0.930 . S
C463 C456 1.409 . S
C463 C462 1.362 . S
H464 C470 0.930 . S
H465 C473 0.930 . S
H466 C474 0.930 . S
H467 C475 0.930 . S
H468 C478 0.930 . S
H469 C479 0.930 . S
C470 H464 0.930 . S
C470 C471 1.355 . S
C470 C472 1.415 . S
C471 C470 1.355 . S
C471 C473 1.419 . S
C472 C470 1.415 . S
C472 C477 1.425 . S
C472 C479 1.409 . S
C473 H465 0.930 . S
C473 C471 1.419 . S
C473 C474 1.362 . S
C474 H466 0.930 . S
C474 C473 1.362 . S
C474 C477 1.409 . S
C475 H467 0.930 . S
C475 C476 1.355 . S
C475 C477 1.415 . S
C476 C475 1.355 . S
C476 C478 1.419 . S
C477 C472 1.425 . S
C477 C474 1.409 . S
C477 C475 1.415 . S
C478 H468 0.930 . S
C478 C476 1.419 . S
C478 C479 1.362 . S
C479 H469 0.930 . S
C479 C472 1.409 . S
C479 C478 1.362 . S
H480 C486 0.930 . S
H481 C489 0.930 . S
H482 C490 0.930 . S
H483 C491 0.930 . S
H484 C494 0.930 . S
H485 C495 0.930 . S
C486 H480 0.930 . S
C486 C487 1.355 . S
C486 C488 1.415 . S
C487 C486 1.355 . S
C487 C489 1.419 . S
C488 C486 1.415 . S
C488 C493 1.425 . S
C488 C495 1.409 . S
C489 H481 0.930 . S
C489 C487 1.419 . S
C489 C490 1.362 . S
C490 H482 0.930 . S
C490 C489 1.362 . S
C490 C493 1.409 . S
C491 H483 0.930 . S
C491 C492 1.355 . S
C491 C493 1.415 . S
C492 C491 1.355 . S
C492 C494 1.419 . S
C493 C488 1.425 . S
C493 C490 1.409 . S
C493 C491 1.415 . S
C494 H484 0.930 . S
C494 C492 1.419 . S
C494 C495 1.362 . S
C495 H485 0.930 . S
C495 C488 1.409 . S
C495 C494 1.362 . S
H496 C502 0.930 . S
H497 C505 0.930 . S
H498 C506 0.930 . S
H499 C507 0.930 . S
H500 C510 0.930 . S
H501 C511 0.930 . S
C502 H496 0.930 . S
C502 C503 1.355 . S
C502 C504 1.415 . S
C503 C502 1.355 . S
C503 C505 1.419 . S
C504 C502 1.415 . S
C504 C509 1.425 . S
C504 C511 1.409 . S
C505 H497 0.930 . S
C505 C503 1.419 . S
C505 C506 1.362 . S
C506 H498 0.930 . S
C506 C505 1.362 . S
C506 C509 1.409 . S
C507 H499 0.930 . S
C507 C508 1.355 . S
C507 C509 1.415 . S
C508 C507 1.355 . S
C508 C510 1.419 . S
C509 C504 1.425 . S
C509 C506 1.409 . S
C509 C507 1.415 . S
C510 H500 0.930 . S
C510 C508 1.419 . S
C510 C511 1.362 . S
C511 H501 0.930 . S
C511 C504 1.409 . S
C511 C510 1.362 . S
H512 C518 0.930 . S
H513 C521 0.930 . S
H514 C522 0.930 . S
H515 C523 0.930 . S
H516 C526 0.930 . S
H517 C527 0.930 . S
C518 H512 0.930 . S
C518 C519 1.355 . S
C518 C520 1.415 . S
C519 C518 1.355 . S
C519 C521 1.419 . S
C520 C518 1.415 . S
C520 C525 1.425 . S
C520 C527 1.409 . S
C521 H513 0.930 . S
C521 C519 1.419 . S
C521 C522 1.362 . S
C522 H514 0.930 . S
C522 C521 1.362 . S
C522 C525 1.409 . S
C523 H515 0.930 . S
C523 C524 1.355 . S
C523 C525 1.415 . S
C524 C523 1.355 . S
C524 C526 1.419 . S
C525 C520 1.425 . S
C525 C522 1.409 . S
C525 C523 1.415 . S
C526 H516 0.930 . S
C526 C524 1.419 . S
C526 C527 1.362 . S
C527 H517 0.930 . S
C527 C520 1.409 . S
C527 C526 1.362 . S
H528 C534 0.930 . S
H529 C537 0.930 1_554 S
H530 C538 0.930 . S
H531 C539 0.930 . S
H532 C542 0.930 . S
H533 C543 0.930 . S
C534 H528 0.930 . S
C534 C535 1.355 . S
C534 C536 1.415 . S
C535 C534 1.355 . S
C535 C537 1.419 . S
C536 C534 1.415 . S
C536 C541 1.425 . S
C536 C543 1.409 . S
C537 H529 0.930 1_556 S
C537 C535 1.419 . S
C537 C538 1.362 . S
C538 H530 0.930 . S
C538 C537 1.362 . S
C538 C541 1.409 . S
C539 H531 0.930 . S
C539 C540 1.355 . S
C539 C541 1.415 . S
C540 C539 1.355 . S
C540 C542 1.419 . S
C541 C536 1.425 . S
C541 C538 1.409 . S
C541 C539 1.415 . S
C542 H532 0.930 . S
C542 C540 1.419 . S
C542 C543 1.362 . S
C543 H533 0.930 . S
C543 C536 1.409 . S
C543 C542 1.362 . S
H544 C550 0.930 . S
H545 C553 0.930 . S
H546 C554 0.930 . S
H547 C555 0.930 . S
H548 C558 0.930 . S
H549 C559 0.930 . S
C550 H544 0.930 . S
C550 C551 1.355 . S
C550 C552 1.415 . S
C551 C550 1.355 . S
C551 C553 1.419 . S
C552 C550 1.415 . S
C552 C557 1.425 . S
C552 C559 1.409 . S
C553 H545 0.930 . S
C553 C551 1.419 . S
C553 C554 1.362 . S
C554 H546 0.930 . S
C554 C553 1.362 . S
C554 C557 1.409 . S
C555 H547 0.930 . S
C555 C556 1.355 . S
C555 C557 1.415 . S
C556 C555 1.355 . S
C556 C558 1.419 . S
C557 C552 1.425 . S
C557 C554 1.409 . S
C557 C555 1.415 . S
C558 H548 0.930 . S
C558 C556 1.419 . S
C558 C559 1.362 . S
C559 H549 0.930 . S
C559 C552 1.409 . S
C559 C558 1.362 . S
H560 C566 0.930 . S
H561 C569 0.930 . S
H562 C570 0.930 . S
H563 C571 0.930 . S
H564 C574 0.930 . S
H565 C575 0.930 . S
C566 H560 0.930 . S
C566 C567 1.355 . S
C566 C568 1.415 . S
C567 C566 1.355 . S
C567 C569 1.419 . S
C568 C566 1.415 . S
C568 C573 1.425 . S
C568 C575 1.409 . S
C569 H561 0.930 . S
C569 C567 1.419 . S
C569 C570 1.362 . S
C570 H562 0.930 . S
C570 C569 1.362 . S
C570 C573 1.409 . S
C571 H563 0.930 . S
C571 C572 1.355 . S
C571 C573 1.415 . S
C572 C571 1.355 . S
C572 C574 1.419 . S
C573 C568 1.425 . S
C573 C570 1.409 . S
C573 C571 1.415 . S
C574 H564 0.930 . S
C574 C572 1.419 . S
C574 C575 1.362 . S
C575 H565 0.930 . S
C575 C568 1.409 . S
C575 C574 1.362 . S
H576 C582 0.930 . S
H577 C585 0.930 . S
H578 C586 0.930 1_554 S
H579 C587 0.930 . S
H580 C590 0.930 . S
H581 C591 0.930 1_556 S
C582 H576 0.930 . S
C582 C583 1.355 1_565 S
C582 C584 1.415 . S
C583 C582 1.355 1_545 S
C583 C585 1.419 . S
C584 C582 1.415 . S
C584 C589 1.425 1_666 S
C584 C591 1.409 1_656 S
C585 H577 0.930 . S
C585 C583 1.419 . S
C585 C586 1.362 . S
C586 H578 0.930 1_556 S
C586 C585 1.362 . S
C586 C589 1.409 1_656 S
C587 H579 0.930 . S
C587 C588 1.355 1_545 S
C587 C589 1.415 . S
C588 C587 1.355 1_565 S
C588 C590 1.419 . S
C589 C584 1.425 1_444 S
C589 C586 1.409 1_454 S
C589 C587 1.415 . S
C590 H580 0.930 . S
C590 C588 1.419 . S
C590 C591 1.362 . S
C591 H581 0.930 1_554 S
C591 C584 1.409 1_454 S
C591 C590 1.362 . S
H592 C598 0.930 . S
H593 C601 0.930 . S
H594 C602 0.930 . S
H595 C603 0.930 . S
H596 C606 0.930 . S
H597 C607 0.930 . S
C598 H592 0.930 . S
C598 C599 1.355 . S
C598 C600 1.415 . S
C599 C598 1.355 . S
C599 C601 1.419 . S
C600 C598 1.415 . S
C600 C605 1.425 . S
C600 C607 1.409 . S
C601 H593 0.930 . S
C601 C599 1.419 . S
C601 C602 1.362 . S
C602 H594 0.930 . S
C602 C601 1.362 . S
C602 C605 1.409 . S
C603 H595 0.930 . S
C603 C604 1.355 . S
C603 C605 1.415 . S
C604 C603 1.355 . S
C604 C606 1.419 . S
C605 C600 1.425 . S
C605 C602 1.409 . S
C605 C603 1.415 . S
C606 H596 0.930 . S
C606 C604 1.419 . S
C606 C607 1.362 . S
C607 H597 0.930 . S
C607 C600 1.409 . S
C607 C606 1.362 . S
H608 C614 0.930 . S
H609 C617 0.930 . S
H610 C618 0.930 . S
H611 C619 0.930 . S
H612 C622 0.930 . S
H613 C623 0.930 . S
C614 H608 0.930 . S
C614 C615 1.355 1_565 S
C614 C616 1.415 . S
C615 C614 1.355 1_545 S
C615 C617 1.419 . S
C616 C614 1.415 . S
C616 C621 1.425 1_565 S
C616 C623 1.409 . S
C617 H609 0.930 . S
C617 C615 1.419 . S
C617 C618 1.362 . S
C618 H610 0.930 . S
C618 C617 1.362 . S
C618 C621 1.409 . S
C619 H611 0.930 . S
C619 C620 1.355 1_545 S
C619 C621 1.415 . S
C620 C619 1.355 1_565 S
C620 C622 1.419 . S
C621 C616 1.425 1_545 S
C621 C618 1.409 . S
C621 C619 1.415 . S
C622 H612 0.930 . S
C622 C620 1.419 . S
C622 C623 1.362 . S
C623 H613 0.930 . S
C623 C616 1.409 . S
C623 C622 1.362 . S
H624 C630 0.930 . S
H625 C633 0.930 . S
H626 C634 0.930 . S
H627 C635 0.930 . S
H628 C638 0.930 . S
H629 C639 0.930 . S
C630 H624 0.930 . S
C630 C631 1.355 . S
C630 C632 1.415 . S
C631 C630 1.355 . S
C631 C633 1.419 . S
C632 C630 1.415 . S
C632 C637 1.425 . S
C632 C639 1.409 . S
C633 H625 0.930 . S
C633 C631 1.419 . S
C633 C634 1.362 . S
C634 H626 0.930 . S
C634 C633 1.362 . S
C634 C637 1.409 . S
C635 H627 0.930 . S
C635 C636 1.355 . S
C635 C637 1.415 . S
C636 C635 1.355 . S
C636 C638 1.419 . S
C637 C632 1.425 . S
C637 C634 1.409 . S
C637 C635 1.415 . S
C638 H628 0.930 . S
C638 C636 1.419 . S
C638 C639 1.362 . S
C639 H629 0.930 . S
C639 C632 1.409 . S
C639 C638 1.362 . S
H640 C646 0.930 . S
H641 C649 0.930 . S
H642 C650 0.930 . S
H643 C651 0.930 . S
H644 C654 0.930 . S
H645 C655 0.930 . S
C646 H640 0.930 . S
C646 C647 1.355 . S
C646 C648 1.415 . S
C647 C646 1.355 . S
C647 C649 1.419 . S
C648 C646 1.415 . S
C648 C653 1.425 . S
C648 C655 1.409 . S
C649 H641 0.930 . S
C649 C647 1.419 . S
C649 C650 1.362 . S
C650 H642 0.930 . S
C650 C649 1.362 . S
C650 C653 1.409 . S
C651 H643 0.930 . S
C651 C652 1.355 . S
C651 C653 1.415 . S
C652 C651 1.355 . S
C652 C654 1.419 . S
C653 C648 1.425 . S
C653 C650 1.409 . S
C653 C651 1.415 . S
C654 H644 0.930 . S
C654 C652 1.419 . S
C654 C655 1.362 . S
C655 H645 0.930 . S
C655 C648 1.409 . S
C655 C654 1.362 . S
H656 C662 0.930 . S
H657 C665 0.930 . S
H658 C666 0.930 . S
H659 C667 0.930 . S
H660 C670 0.930 . S
H661 C671 0.930 . S
C662 H656 0.930 . S
C662 C663 1.355 . S
C662 C664 1.415 . S
C663 C662 1.355 . S
C663 C665 1.419 . S
C664 C662 1.415 . S
C664 C669 1.425 . S
C664 C671 1.409 . S
C665 H657 0.930 . S
C665 C663 1.419 . S
C665 C666 1.362 . S
C666 H658 0.930 . S
C666 C665 1.362 . S
C666 C669 1.409 . S
C667 H659 0.930 . S
C667 C668 1.355 . S
C667 C669 1.415 . S
C668 C667 1.355 . S
C668 C670 1.419 . S
C669 C664 1.425 . S
C669 C666 1.409 . S
C669 C667 1.415 . S
C670 H660 0.930 . S
C670 C668 1.419 . S
C670 C671 1.362 . S
C671 H661 0.930 . S
C671 C664 1.409 . S
C671 C670 1.362 . S
H672 C678 0.930 . S
H673 C681 0.930 . S
H674 C682 0.930 . S
H675 C683 0.930 . S
H676 C686 0.930 . S
H677 C687 0.930 . S
C678 H672 0.930 . S
C678 C679 1.355 . S
C678 C680 1.415 . S
C679 C678 1.355 . S
C679 C681 1.419 . S
C680 C678 1.415 . S
C680 C685 1.425 . S
C680 C687 1.409 . S
C681 H673 0.930 . S
C681 C679 1.419 . S
C681 C682 1.362 . S
C682 H674 0.930 . S
C682 C681 1.362 . S
C682 C685 1.409 . S
C683 H675 0.930 . S
C683 C684 1.355 . S
C683 C685 1.415 . S
C684 C683 1.355 . S
C684 C686 1.419 . S
C685 C680 1.425 . S
C685 C682 1.409 . S
C685 C683 1.415 . S
C686 H676 0.930 . S
C686 C684 1.419 . S
C686 C687 1.362 . S
C687 H677 0.930 . S
C687 C680 1.409 . S
C687 C686 1.362 . S
H688 C694 0.930 1_455 S
H689 C697 0.930 . S
H690 C698 0.930 1_554 S
H691 C699 0.930 1_655 S
H692 C702 0.930 . S
H693 C703 0.930 1_556 S
C694 H688 0.930 1_655 S
C694 C695 1.355 . S
C694 C696 1.415 1_655 S
C695 C694 1.355 . S
C695 C697 1.419 . S
C696 C694 1.415 1_455 S
C696 C701 1.425 1_456 S
C696 C703 1.409 1_556 S
C697 H689 0.930 . S
C697 C695 1.419 . S
C697 C698 1.362 . S
C698 H690 0.930 1_556 S
C698 C697 1.362 . S
C698 C701 1.409 1_556 S
C699 H691 0.930 1_455 S
C699 C700 1.355 . S
C699 C701 1.415 1_455 S
C700 C699 1.355 . S
C700 C702 1.419 . S
C701 C696 1.425 1_654 S
C701 C698 1.409 1_554 S
C701 C699 1.415 1_655 S
C702 H692 0.930 . S
C702 C700 1.419 . S
C702 C703 1.362 . S
C703 H693 0.930 1_554 S
C703 C696 1.409 1_554 S
C703 C702 1.362 . S
C327 C13 1.668 . S
C332 C133 1.665 . S
C343 C2 1.375 . S
C348 C42 1.364 . S
C359 C53 1.323 . S
C364 C82 1.304 . S
C375 C93 1.720 . S
C380 C122 1.718 . S
C391 C24 1.673 . S
C396 C224 1.667 . S
C407 C23 1.370 . S
C412 C183 1.360 . S
C423 C184 1.339 . S
C428 C103 1.331 . S
C439 C223 1.721 . S
C444 C104 1.713 . S
C455 C253 1.662 . S
C460 C213 1.674 . S
C471 C162 1.382 . S
C476 C242 1.379 . S
C487 C282 1.302 . S
C492 C173 1.323 . S
C503 C202 1.704 . S
C508 C293 1.716 . S
C519 C144 1.663 . S
C524 C264 1.673 . S
C535 C263 1.358 . S
C540 C63 1.370 . S
C551 C64 1.329 . S
C556 C303 1.333 . S
C567 C143 1.704 . S
C572 C304 1.713 . S
C583 C17 1.481 . S
C588 C26 1.481 . S
C599 C57 1.524 . S
C604 C66 1.524 . S
C615 C97 1.469 . S
C620 C106 1.469 . S
C631 C137 1.652 . S
C636 C146 1.652 . S
C647 C177 1.475 . S
C652 C186 1.475 . S
C663 C217 1.685 . S
C668 C226 1.685 . S
C679 C266 1.469 . S
C684 C257 1.469 . S
C695 C306 1.462 . S
C700 C297 1.462 . S
