# Generated by pormake.
# Topology ukr, (4)-cn, num edge types: 1
# Building blocks:
#     Node 0, Type 0, BuildingBlock: NAHDIM_clean_sbu_0, # of connection points: 4
#     Node 1, Type 0, BuildingBlock: NAHDIM_clean_sbu_0, # of connection points: 4
#     Node 2, Type 0, BuildingBlock: NAHDIM_clean_sbu_0, # of connection points: 4
#     Node 3, Type 0, BuildingBlock: NAHDIM_clean_sbu_0, # of connection points: 4
#     Node 4, Type 0, BuildingBlock: NAHDIM_clean_sbu_0, # of connection points: 4
#     Node 5, Type 0, BuildingBlock: NAHDIM_clean_sbu_0, # of connection points: 4
#     Node 6, Type 0, BuildingBlock: NAHDIM_clean_sbu_0, # of connection points: 4
#     Node 7, Type 0, BuildingBlock: NAHDIM_clean_sbu_0, # of connection points: 4
#     Node 8, Type 0, BuildingBlock: NAHDIM_clean_sbu_0, # of connection points: 4
#     Node 9, Type 0, BuildingBlock: NAHDIM_clean_sbu_0, # of connection points: 4
#     Node 10, Type 0, BuildingBlock: NAHDIM_clean_sbu_0, # of connection points: 4
#     Node 11, Type 0, BuildingBlock: NAHDIM_clean_sbu_0, # of connection points: 4
#     Node 12, Type 0, BuildingBlock: NAHDIM_clean_sbu_0, # of connection points: 4
#     Node 13, Type 0, BuildingBlock: NAHDIM_clean_sbu_0, # of connection points: 4
#     Node 14, Type 0, BuildingBlock: NAHDIM_clean_sbu_0, # of connection points: 4
#     Node 15, Type 0, BuildingBlock: NAHDIM_clean_sbu_0, # of connection points: 4
#     Node 16, Type 0, BuildingBlock: NAHDIM_clean_sbu_0, # of connection points: 4
#     Node 17, Type 0, BuildingBlock: NAHDIM_clean_sbu_0, # of connection points: 4
#     Node 18, Type 0, BuildingBlock: NAHDIM_clean_sbu_0, # of connection points: 4
#     Node 19, Type 0, BuildingBlock: NAHDIM_clean_sbu_0, # of connection points: 4
#     Node 20, Type 0, BuildingBlock: NAHDIM_clean_sbu_0, # of connection points: 4
#     Node 21, Type 0, BuildingBlock: NAHDIM_clean_sbu_0, # of connection points: 4
#     Node 22, Type 0, BuildingBlock: NAHDIM_clean_sbu_0, # of connection points: 4
#     Node 23, Type 0, BuildingBlock: NAHDIM_clean_sbu_0, # of connection points: 4
#     Node 24, Type 0, BuildingBlock: NAHDIM_clean_sbu_0, # of connection points: 4
#     Node 25, Type 0, BuildingBlock: NAHDIM_clean_sbu_0, # of connection points: 4
#     Node 26, Type 0, BuildingBlock: NAHDIM_clean_sbu_0, # of connection points: 4
#     Node 27, Type 0, BuildingBlock: NAHDIM_clean_sbu_0, # of connection points: 4
#     Node 28, Type 0, BuildingBlock: NAHDIM_clean_sbu_0, # of connection points: 4
#     Node 29, Type 0, BuildingBlock: NAHDIM_clean_sbu_0, # of connection points: 4
#     Node 30, Type 0, BuildingBlock: NAHDIM_clean_sbu_0, # of connection points: 4
#     Node 31, Type 0, BuildingBlock: NAHDIM_clean_sbu_0, # of connection points: 4
#     Node 32, Type 0, BuildingBlock: NAHDIM_clean_sbu_0, # of connection points: 4
#     Node 33, Type 0, BuildingBlock: NAHDIM_clean_sbu_0, # of connection points: 4
#     Node 34, Type 0, BuildingBlock: NAHDIM_clean_sbu_0, # of connection points: 4
#     Node 35, Type 0, BuildingBlock: NAHDIM_clean_sbu_0, # of connection points: 4
#     Node 36, Type 0, BuildingBlock: NAHDIM_clean_sbu_0, # of connection points: 4
#     Node 37, Type 0, BuildingBlock: NAHDIM_clean_sbu_0, # of connection points: 4
#     Node 38, Type 0, BuildingBlock: NAHDIM_clean_sbu_0, # of connection points: 4
#     Node 39, Type 0, BuildingBlock: NAHDIM_clean_sbu_0, # of connection points: 4
#     Node 40, Type 0, BuildingBlock: NAHDIM_clean_sbu_0, # of connection points: 4
#     Node 41, Type 0, BuildingBlock: NAHDIM_clean_sbu_0, # of connection points: 4
#     Node 42, Type 0, BuildingBlock: NAHDIM_clean_sbu_0, # of connection points: 4
#     Node 43, Type 0, BuildingBlock: NAHDIM_clean_sbu_0, # of connection points: 4
#     Node 44, Type 0, BuildingBlock: NAHDIM_clean_sbu_0, # of connection points: 4
#     Node 45, Type 0, BuildingBlock: NAHDIM_clean_sbu_0, # of connection points: 4
#     Node 46, Type 0, BuildingBlock: NAHDIM_clean_sbu_0, # of connection points: 4
#     Node 47, Type 0, BuildingBlock: NAHDIM_clean_sbu_0, # of connection points: 4
#     Edge 48, Type (0, 0), BuildingBlock: XIVTED_clean_linker_0, # of connection points: 2
#     Edge 49, Type (0, 0), BuildingBlock: XIVTED_clean_linker_0, # of connection points: 2
#     Edge 50, Type (0, 0), BuildingBlock: XIVTED_clean_linker_0, # of connection points: 2
#     Edge 51, Type (0, 0), BuildingBlock: XIVTED_clean_linker_0, # of connection points: 2
#     Edge 52, Type (0, 0), BuildingBlock: XIVTED_clean_linker_0, # of connection points: 2
#     Edge 53, Type (0, 0), BuildingBlock: XIVTED_clean_linker_0, # of connection points: 2
#     Edge 54, Type (0, 0), BuildingBlock: XIVTED_clean_linker_0, # of connection points: 2
#     Edge 55, Type (0, 0), BuildingBlock: XIVTED_clean_linker_0, # of connection points: 2
#     Edge 56, Type (0, 0), BuildingBlock: XIVTED_clean_linker_0, # of connection points: 2
#     Edge 57, Type (0, 0), BuildingBlock: XIVTED_clean_linker_0, # of connection points: 2
#     Edge 58, Type (0, 0), BuildingBlock: XIVTED_clean_linker_0, # of connection points: 2
#     Edge 59, Type (0, 0), BuildingBlock: XIVTED_clean_linker_0, # of connection points: 2
#     Edge 60, Type (0, 0), BuildingBlock: XIVTED_clean_linker_0, # of connection points: 2
#     Edge 61, Type (0, 0), BuildingBlock: XIVTED_clean_linker_0, # of connection points: 2
#     Edge 62, Type (0, 0), BuildingBlock: XIVTED_clean_linker_0, # of connection points: 2
#     Edge 63, Type (0, 0), BuildingBlock: XIVTED_clean_linker_0, # of connection points: 2
#     Edge 64, Type (0, 0), BuildingBlock: XIVTED_clean_linker_0, # of connection points: 2
#     Edge 65, Type (0, 0), BuildingBlock: XIVTED_clean_linker_0, # of connection points: 2
#     Edge 66, Type (0, 0), BuildingBlock: XIVTED_clean_linker_0, # of connection points: 2
#     Edge 67, Type (0, 0), BuildingBlock: XIVTED_clean_linker_0, # of connection points: 2
#     Edge 68, Type (0, 0), BuildingBlock: XIVTED_clean_linker_0, # of connection points: 2
#     Edge 69, Type (0, 0), BuildingBlock: XIVTED_clean_linker_0, # of connection points: 2
#     Edge 70, Type (0, 0), BuildingBlock: XIVTED_clean_linker_0, # of connection points: 2
#     Edge 71, Type (0, 0), BuildingBlock: XIVTED_clean_linker_0, # of connection points: 2
#     Edge 72, Type (0, 0), BuildingBlock: XIVTED_clean_linker_0, # of connection points: 2
#     Edge 73, Type (0, 0), BuildingBlock: XIVTED_clean_linker_0, # of connection points: 2
#     Edge 74, Type (0, 0), BuildingBlock: XIVTED_clean_linker_0, # of connection points: 2
#     Edge 75, Type (0, 0), BuildingBlock: XIVTED_clean_linker_0, # of connection points: 2
#     Edge 76, Type (0, 0), BuildingBlock: XIVTED_clean_linker_0, # of connection points: 2
#     Edge 77, Type (0, 0), BuildingBlock: XIVTED_clean_linker_0, # of connection points: 2
#     Edge 78, Type (0, 0), BuildingBlock: XIVTED_clean_linker_0, # of connection points: 2
#     Edge 79, Type (0, 0), BuildingBlock: XIVTED_clean_linker_0, # of connection points: 2
#     Edge 80, Type (0, 0), BuildingBlock: XIVTED_clean_linker_0, # of connection points: 2
#     Edge 81, Type (0, 0), BuildingBlock: XIVTED_clean_linker_0, # of connection points: 2
#     Edge 82, Type (0, 0), BuildingBlock: XIVTED_clean_linker_0, # of connection points: 2
#     Edge 83, Type (0, 0), BuildingBlock: XIVTED_clean_linker_0, # of connection points: 2
#     Edge 84, Type (0, 0), BuildingBlock: XIVTED_clean_linker_0, # of connection points: 2
#     Edge 85, Type (0, 0), BuildingBlock: XIVTED_clean_linker_0, # of connection points: 2
#     Edge 86, Type (0, 0), BuildingBlock: XIVTED_clean_linker_0, # of connection points: 2
#     Edge 87, Type (0, 0), BuildingBlock: XIVTED_clean_linker_0, # of connection points: 2
#     Edge 88, Type (0, 0), BuildingBlock: XIVTED_clean_linker_0, # of connection points: 2
#     Edge 89, Type (0, 0), BuildingBlock: XIVTED_clean_linker_0, # of connection points: 2
#     Edge 90, Type (0, 0), BuildingBlock: XIVTED_clean_linker_0, # of connection points: 2
#     Edge 91, Type (0, 0), BuildingBlock: XIVTED_clean_linker_0, # of connection points: 2
#     Edge 92, Type (0, 0), BuildingBlock: XIVTED_clean_linker_0, # of connection points: 2
#     Edge 93, Type (0, 0), BuildingBlock: XIVTED_clean_linker_0, # of connection points: 2
#     Edge 94, Type (0, 0), BuildingBlock: XIVTED_clean_linker_0, # of connection points: 2
#     Edge 95, Type (0, 0), BuildingBlock: XIVTED_clean_linker_0, # of connection points: 2
#     Edge 96, Type (0, 0), BuildingBlock: XIVTED_clean_linker_0, # of connection points: 2
#     Edge 97, Type (0, 0), BuildingBlock: XIVTED_clean_linker_0, # of connection points: 2
#     Edge 98, Type (0, 0), BuildingBlock: XIVTED_clean_linker_0, # of connection points: 2
#     Edge 99, Type (0, 0), BuildingBlock: XIVTED_clean_linker_0, # of connection points: 2
#     Edge 100, Type (0, 0), BuildingBlock: XIVTED_clean_linker_0, # of connection points: 2
#     Edge 101, Type (0, 0), BuildingBlock: XIVTED_clean_linker_0, # of connection points: 2
#     Edge 102, Type (0, 0), BuildingBlock: XIVTED_clean_linker_0, # of connection points: 2
#     Edge 103, Type (0, 0), BuildingBlock: XIVTED_clean_linker_0, # of connection points: 2
#     Edge 104, Type (0, 0), BuildingBlock: XIVTED_clean_linker_0, # of connection points: 2
#     Edge 105, Type (0, 0), BuildingBlock: XIVTED_clean_linker_0, # of connection points: 2
#     Edge 106, Type (0, 0), BuildingBlock: XIVTED_clean_linker_0, # of connection points: 2
#     Edge 107, Type (0, 0), BuildingBlock: XIVTED_clean_linker_0, # of connection points: 2
#     Edge 108, Type (0, 0), BuildingBlock: XIVTED_clean_linker_0, # of connection points: 2
#     Edge 109, Type (0, 0), BuildingBlock: XIVTED_clean_linker_0, # of connection points: 2
#     Edge 110, Type (0, 0), BuildingBlock: XIVTED_clean_linker_0, # of connection points: 2
#     Edge 111, Type (0, 0), BuildingBlock: XIVTED_clean_linker_0, # of connection points: 2
#     Edge 112, Type (0, 0), BuildingBlock: XIVTED_clean_linker_0, # of connection points: 2
#     Edge 113, Type (0, 0), BuildingBlock: XIVTED_clean_linker_0, # of connection points: 2
#     Edge 114, Type (0, 0), BuildingBlock: XIVTED_clean_linker_0, # of connection points: 2
#     Edge 115, Type (0, 0), BuildingBlock: XIVTED_clean_linker_0, # of connection points: 2
#     Edge 116, Type (0, 0), BuildingBlock: XIVTED_clean_linker_0, # of connection points: 2
#     Edge 117, Type (0, 0), BuildingBlock: XIVTED_clean_linker_0, # of connection points: 2
#     Edge 118, Type (0, 0), BuildingBlock: XIVTED_clean_linker_0, # of connection points: 2
#     Edge 119, Type (0, 0), BuildingBlock: XIVTED_clean_linker_0, # of connection points: 2
#     Edge 120, Type (0, 0), BuildingBlock: XIVTED_clean_linker_0, # of connection points: 2
#     Edge 121, Type (0, 0), BuildingBlock: XIVTED_clean_linker_0, # of connection points: 2
#     Edge 122, Type (0, 0), BuildingBlock: XIVTED_clean_linker_0, # of connection points: 2
#     Edge 123, Type (0, 0), BuildingBlock: XIVTED_clean_linker_0, # of connection points: 2
#     Edge 124, Type (0, 0), BuildingBlock: XIVTED_clean_linker_0, # of connection points: 2
#     Edge 125, Type (0, 0), BuildingBlock: XIVTED_clean_linker_0, # of connection points: 2
#     Edge 126, Type (0, 0), BuildingBlock: XIVTED_clean_linker_0, # of connection points: 2
#     Edge 127, Type (0, 0), BuildingBlock: XIVTED_clean_linker_0, # of connection points: 2
#     Edge 128, Type (0, 0), BuildingBlock: XIVTED_clean_linker_0, # of connection points: 2
#     Edge 129, Type (0, 0), BuildingBlock: XIVTED_clean_linker_0, # of connection points: 2
#     Edge 130, Type (0, 0), BuildingBlock: XIVTED_clean_linker_0, # of connection points: 2
#     Edge 131, Type (0, 0), BuildingBlock: XIVTED_clean_linker_0, # of connection points: 2
#     Edge 132, Type (0, 0), BuildingBlock: XIVTED_clean_linker_0, # of connection points: 2
#     Edge 133, Type (0, 0), BuildingBlock: XIVTED_clean_linker_0, # of connection points: 2
#     Edge 134, Type (0, 0), BuildingBlock: XIVTED_clean_linker_0, # of connection points: 2
#     Edge 135, Type (0, 0), BuildingBlock: XIVTED_clean_linker_0, # of connection points: 2
#     Edge 136, Type (0, 0), BuildingBlock: XIVTED_clean_linker_0, # of connection points: 2
#     Edge 137, Type (0, 0), BuildingBlock: XIVTED_clean_linker_0, # of connection points: 2
#     Edge 138, Type (0, 0), BuildingBlock: XIVTED_clean_linker_0, # of connection points: 2
#     Edge 139, Type (0, 0), BuildingBlock: XIVTED_clean_linker_0, # of connection points: 2
#     Edge 140, Type (0, 0), BuildingBlock: XIVTED_clean_linker_0, # of connection points: 2
#     Edge 141, Type (0, 0), BuildingBlock: XIVTED_clean_linker_0, # of connection points: 2
#     Edge 142, Type (0, 0), BuildingBlock: XIVTED_clean_linker_0, # of connection points: 2
#     Edge 143, Type (0, 0), BuildingBlock: XIVTED_clean_linker_0, # of connection points: 2
# Relax obj value: 0.402
# Max RMSD: 0.185
# Mean RMSD: 0.185
data_MOF--net-ukr--node1-NAHDIM_clean_sbu_0--edge1-XIVTED_clean_linker_0
_symmetry_space_group_name_H-M    P1
_symmetry_Int_Tables_number       1
_symmetry_cell_setting            triclinic
loop_
_symmetry_equiv_pos_as_xyz
'x, y, z'
_cell_length_a     68.021835
_cell_length_b     68.020195
_cell_length_c     68.018975
_cell_angle_alpha  90.015166
_cell_angle_beta   89.999295
_cell_angle_gamma 90.021974
loop_
_atom_site_label
_atom_site_type_symbol
_atom_site_fract_x
_atom_site_fract_y
_atom_site_fract_z
_atom_type_partial_charge
C0 C 0.06926 0.30331 0.15824 0.0
O1 O 0.07803 0.31562 0.17026 0.0
O2 O 0.09209 0.25069 0.1833 0.0
Zn3 Zn 0.09998 0.27621 0.17042 0.0
O4 O 0.10874 0.29483 0.19166 0.0
C5 C 0.13553 0.25878 0.16156 0.0
O6 O 0.13295 0.25463 0.18024 0.0
O7 O 0.07664 0.28637 0.15551 0.0
C8 C 0.1213 0.30836 0.18885 0.0
O9 O 0.12851 0.31102 0.17113 0.0
C10 C 0.08808 0.24911 0.20148 0.0
O11 O 0.08749 0.265 0.21245 0.0
O12 O 0.12292 0.2695 0.15289 0.0
C13 C 0.19986 0.5676 0.66066 0.0
O14 O 0.18572 0.57836 0.66822 0.0
O15 O 0.25113 0.59628 0.68721 0.0
Zn16 Zn 0.22504 0.59954 0.67353 0.0
O17 O 0.2054 0.60773 0.69406 0.0
C18 C 0.24279 0.62063 0.64186 0.0
O19 O 0.25505 0.60573 0.64268 0.0
O20 O 0.21742 0.57396 0.66102 0.0
C21 C 0.19172 0.62008 0.69111 0.0
O22 O 0.18942 0.62764 0.67349 0.0
C23 C 0.25214 0.5913 0.7052 0.0
O24 O 0.23586 0.58744 0.71485 0.0
O25 O 0.22808 0.6209 0.65336 0.0
C26 C 0.92664 0.68985 0.17465 0.0
O27 O 0.91726 0.68253 0.18986 0.0
O28 O 0.89115 0.73752 0.18152 0.0
Zn29 Zn 0.89023 0.71045 0.16977 0.0
O30 O 0.87716 0.6931 0.18983 0.0
C31 C 0.87451 0.72816 0.13555 0.0
O32 O 0.88956 0.73986 0.13872 0.0
O33 O 0.9177 0.70169 0.1633 0.0
C34 C 0.86076 0.69929 0.19626 0.0
O35 O 0.85337 0.71551 0.18883 0.0
C36 C 0.89569 0.74147 0.1992 0.0
O37 O 0.90164 0.72728 0.21086 0.0
O38 O 0.87263 0.71287 0.14614 0.0
C39 C 0.80128 0.43332 0.6654 0.0
O40 O 0.81535 0.42328 0.674 0.0
O41 O 0.75186 0.40218 0.69136 0.0
Zn42 Zn 0.77736 0.39991 0.67642 0.0
O43 O 0.79766 0.39168 0.69628 0.0
C44 C 0.7602 0.37938 0.64375 0.0
O45 O 0.74816 0.39448 0.64405 0.0
O46 O 0.78412 0.42599 0.66435 0.0
C47 C 0.81149 0.37958 0.69304 0.0
O48 O 0.8137 0.37221 0.67532 0.0
C49 C 0.75208 0.40865 0.7089 0.0
O50 O 0.76876 0.41485 0.71641 0.0
O51 O 0.77433 0.37882 0.65595 0.0
C52 C 0.07086 0.69107 0.83361 0.0
O53 O 0.08142 0.67712 0.82544 0.0
O54 O 0.1027 0.74282 0.81202 0.0
Zn55 Zn 0.10418 0.71589 0.82396 0.0
O56 O 0.11302 0.69741 0.80269 0.0
C57 C 0.12246 0.73282 0.85685 0.0
O58 O 0.10633 0.74339 0.85571 0.0
O59 O 0.07784 0.70836 0.8348 0.0
C60 C 0.12475 0.68317 0.80551 0.0
O61 O 0.13115 0.67957 0.82337 0.0
C62 C 0.09849 0.74669 0.79423 0.0
O63 O 0.09328 0.73236 0.78237 0.0
O64 O 0.12455 0.71835 0.84521 0.0
C65 C 0.80165 0.57348 0.34033 0.0
O66 O 0.81433 0.58367 0.32991 0.0
O67 O 0.75139 0.60337 0.31889 0.0
Zn68 Zn 0.77613 0.60729 0.3347 0.0
O69 O 0.79561 0.61989 0.31636 0.0
C70 C 0.75473 0.62445 0.36684 0.0
O71 O 0.74284 0.6096 0.36342 0.0
O72 O 0.78508 0.581 0.3445 0.0
C73 C 0.78984 0.63605 0.30898 0.0
O74 O 0.77285 0.64329 0.31464 0.0
C75 C 0.75269 0.59679 0.30143 0.0
O76 O 0.77004 0.59189 0.29451 0.0
O77 O 0.77041 0.626 0.35682 0.0
C78 C 0.92845 0.303 0.83702 0.0
O79 O 0.91787 0.31764 0.83022 0.0
O80 O 0.89846 0.25298 0.80909 0.0
Zn81 Zn 0.89606 0.27885 0.82325 0.0
O82 O 0.88828 0.29899 0.80309 0.0
C83 C 0.87557 0.26058 0.85456 0.0
O84 O 0.89086 0.24885 0.85329 0.0
O85 O 0.92185 0.28556 0.83583 0.0
C86 C 0.8765 0.31311 0.80623 0.0
O87 O 0.86923 0.31563 0.82395 0.0
C88 C 0.90334 0.25196 0.79107 0.0
O89 O 0.90798 0.26815 0.78162 0.0
O90 O 0.87476 0.27557 0.84344 0.0
C91 C 0.19173 0.42632 0.33331 0.0
O92 O 0.17845 0.41694 0.32289 0.0
O93 O 0.24319 0.39737 0.31048 0.0
Zn94 Zn 0.21691 0.39317 0.32341 0.0
O95 O 0.19806 0.38428 0.30243 0.0
C96 C 0.23559 0.37296 0.35472 0.0
O97 O 0.24651 0.38889 0.35415 0.0
O98 O 0.20854 0.41858 0.33582 0.0
C99 C 0.18397 0.3724 0.30537 0.0
O100 O 0.18067 0.36585 0.32324 0.0
C101 C 0.24502 0.40161 0.29237 0.0
O102 O 0.22919 0.4041 0.28159 0.0
O103 O 0.22081 0.37174 0.34336 0.0
C104 C 0.16445 0.07312 0.30148 0.0
O105 O 0.1779 0.08312 0.31109 0.0
O106 O 0.17912 0.10147 0.24928 0.0
Zn107 Zn 0.16548 0.10644 0.2751 0.0
O108 O 0.18499 0.12011 0.29259 0.0
C109 C 0.13233 0.123 0.2549 0.0
O110 O 0.13544 0.10804 0.24308 0.0
O111 O 0.15669 0.08057 0.28621 0.0
C112 C 0.19232 0.13589 0.2858 0.0
O113 O 0.18623 0.14238 0.26865 0.0
C114 C 0.19697 0.09595 0.24884 0.0
O115 O 0.20624 0.09274 0.26548 0.0
O116 O 0.14286 0.12478 0.27023 0.0
C117 C 0.42783 0.66481 0.8086 0.0
O118 O 0.41809 0.67668 0.82031 0.0
O119 O 0.39164 0.67866 0.75979 0.0
Zn120 Zn 0.39183 0.66584 0.78634 0.0
O121 O 0.38091 0.68583 0.8051 0.0
C122 C 0.3758 0.63202 0.76873 0.0
O123 O 0.3914 0.63481 0.75767 0.0
O124 O 0.41933 0.65787 0.79348 0.0
C125 C 0.36379 0.69233 0.80152 0.0
O126 O 0.35384 0.68486 0.78674 0.0
C127 C 0.39692 0.69623 0.75628 0.0
O128 O 0.40458 0.70686 0.77047 0.0
O129 O 0.37343 0.64286 0.78377 0.0
C130 C 0.82971 0.92528 0.30443 0.0
O131 O 0.81684 0.91569 0.31518 0.0
O132 O 0.80923 0.90168 0.25072 0.0
Zn133 Zn 0.82203 0.89414 0.27642 0.0
O134 O 0.80097 0.88334 0.29414 0.0
C135 C 0.83414 0.85995 0.25812 0.0
O136 O 0.81567 0.86166 0.25277 0.0
O137 O 0.83479 0.91827 0.28787 0.0
C138 C 0.80411 0.87061 0.30742 0.0
O139 O 0.82212 0.8643 0.31042 0.0
C140 C 0.79077 0.90393 0.24885 0.0
O141 O 0.77956 0.90319 0.26455 0.0
O142 O 0.84137 0.87259 0.26985 0.0
C143 C 0.57257 0.34477 0.78482 0.0
O144 O 0.58117 0.36157 0.78072 0.0
O145 O 0.61721 0.31206 0.75599 0.0
Zn146 Zn 0.61158 0.32602 0.78128 0.0
O147 O 0.62164 0.3075 0.80183 0.0
C148 C 0.64387 0.35317 0.7859 0.0
O149 O 0.65108 0.33898 0.79683 0.0
O150 O 0.58266 0.32909 0.78539 0.0
C151 C 0.62382 0.3095 0.82025 0.0
O152 O 0.62002 0.32647 0.82865 0.0
C153 C 0.60587 0.30268 0.7445 0.0
O154 O 0.58695 0.30179 0.74827 0.0
O155 O 0.62647 0.35155 0.77928 0.0
C156 C 0.16284 0.93232 0.69293 0.0
O157 O 0.17578 0.92288 0.68215 0.0
O158 O 0.18348 0.91046 0.74738 0.0
Zn159 Zn 0.17131 0.90197 0.72169 0.0
O160 O 0.1929 0.89134 0.70455 0.0
C161 C 0.15937 0.86809 0.74085 0.0
O162 O 0.17747 0.87061 0.74711 0.0
O163 O 0.15812 0.92545 0.70965 0.0
C164 C 0.19005 0.87812 0.69167 0.0
O165 O 0.17216 0.87145 0.68875 0.0
C166 C 0.20171 0.91406 0.74931 0.0
O167 O 0.21302 0.91406 0.73365 0.0
O168 O 0.15239 0.88007 0.72832 0.0
C169 C 0.57255 0.66906 0.19861 0.0
O170 O 0.58058 0.6865 0.19652 0.0
O171 O 0.60418 0.67582 0.24495 0.0
Zn172 Zn 0.6085 0.66238 0.21904 0.0
O173 O 0.62422 0.68137 0.20269 0.0
C174 C 0.64099 0.63449 0.21761 0.0
O175 O 0.64623 0.64425 0.20179 0.0
O176 O 0.58219 0.65564 0.20732 0.0
C177 C 0.62511 0.68311 0.18412 0.0
O178 O 0.61491 0.67118 0.17287 0.0
C179 C 0.60174 0.69424 0.24692 0.0
O180 O 0.60042 0.70535 0.23118 0.0
O181 O 0.62482 0.6387 0.22596 0.0
C182 C 0.81689 0.06914 0.70438 0.0
O183 O 0.79939 0.07675 0.7014 0.0
O184 O 0.80676 0.10157 0.74956 0.0
Zn185 Zn 0.8214 0.10551 0.72412 0.0
O186 O 0.80296 0.11908 0.70534 0.0
C187 C 0.85144 0.13646 0.72026 0.0
O188 O 0.84451 0.13901 0.70243 0.0
O189 O 0.82963 0.07909 0.71374 0.0
C190 C 0.80471 0.12008 0.68677 0.0
O191 O 0.82019 0.11236 0.67819 0.0
C192 C 0.78811 0.10115 0.75067 0.0
O193 O 0.77764 0.1023 0.73448 0.0
O194 O 0.84442 0.12285 0.73096 0.0
C195 C 0.42415 0.33459 0.18848 0.0
O196 O 0.41478 0.32151 0.17778 0.0
O197 O 0.39513 0.31818 0.24064 0.0
Zn198 Zn 0.39045 0.33088 0.21431 0.0
O199 O 0.37842 0.3103 0.19676 0.0
C200 C 0.37195 0.36286 0.23405 0.0
O201 O 0.38715 0.36051 0.24574 0.0
O202 O 0.41618 0.34103 0.20409 0.0
C203 C 0.36282 0.30245 0.20339 0.0
O204 O 0.35568 0.30872 0.22022 0.0
C205 C 0.40069 0.30043 0.24235 0.0
O206 O 0.4044 0.29012 0.22645 0.0
O207 O 0.37075 0.35246 0.21857 0.0
C208 C 0.3058 0.16144 0.07324 0.0
O209 O 0.31755 0.1732 0.08308 0.0
O210 O 0.25615 0.17573 0.10822 0.0
Zn211 Zn 0.2826 0.1627 0.10894 0.0
O212 O 0.30111 0.18224 0.12122 0.0
C213 C 0.26359 0.12939 0.12482 0.0
O214 O 0.25267 0.13245 0.10918 0.0
O215 O 0.29046 0.15479 0.08158 0.0
C216 C 0.29576 0.18849 0.138 0.0
O217 O 0.27974 0.18117 0.14596 0.0
C218 C 0.25291 0.19346 0.10336 0.0
O219 O 0.26746 0.20431 0.09676 0.0
O220 O 0.27903 0.13966 0.12712 0.0
C221 C 0.29507 0.82434 0.92407 0.0
O222 O 0.29896 0.80731 0.91585 0.0
O223 O 0.24641 0.81697 0.89284 0.0
Zn224 Zn 0.27279 0.8298 0.88861 0.0
O225 O 0.2889 0.80995 0.8738 0.0
C226 C 0.25395 0.86436 0.8734 0.0
O227 O 0.24168 0.8608 0.88788 0.0
O228 O 0.28448 0.83669 0.91489 0.0
C229 C 0.30739 0.80919 0.87137 0.0
O230 O 0.31865 0.82288 0.87904 0.0
C231 C 0.24556 0.79867 0.89656 0.0
O232 O 0.26198 0.78873 0.89861 0.0
O233 O 0.26902 0.8535 0.87141 0.0
C234 C 0.66148 0.80623 0.42798 0.0
O235 O 0.67519 0.81669 0.41928 0.0
O236 O 0.68352 0.75207 0.40772 0.0
Zn237 Zn 0.67084 0.77711 0.39814 0.0
O238 O 0.69209 0.79447 0.38718 0.0
C239 C 0.65789 0.75507 0.36591 0.0
O240 O 0.67523 0.74732 0.36935 0.0
O241 O 0.65686 0.78955 0.42095 0.0
C242 C 0.68898 0.8074 0.37409 0.0
O243 O 0.67099 0.81024 0.36768 0.0
C244 C 0.70177 0.75056 0.4114 0.0
O245 O 0.71283 0.76639 0.41089 0.0
O246 O 0.65209 0.76941 0.37641 0.0
C247 C 0.69732 0.16209 0.93393 0.0
O248 O 0.68269 0.16992 0.92406 0.0
O249 O 0.74736 0.18861 0.9028 0.0
Zn250 Zn 0.72084 0.17549 0.90101 0.0
O251 O 0.70082 0.19615 0.89426 0.0
C252 C 0.73679 0.1433 0.87971 0.0
O253 O 0.74834 0.14293 0.89518 0.0
O254 O 0.71454 0.16252 0.9267 0.0
C255 C 0.68659 0.19302 0.88261 0.0
O256 O 0.68419 0.17535 0.87516 0.0
C257 C 0.74945 0.20714 0.90414 0.0
O258 O 0.73379 0.21835 0.90547 0.0
O259 O 0.72284 0.1557 0.87917 0.0
C260 C 0.32622 0.19463 0.41804 0.0
O261 O 0.3116 0.18651 0.40838 0.0
O262 O 0.31341 0.245 0.38821 0.0
Zn263 Zn 0.32758 0.21939 0.38383 0.0
O264 O 0.30883 0.20139 0.36975 0.0
C265 C 0.35983 0.24106 0.36784 0.0
O266 O 0.3558 0.25252 0.38286 0.0
O267 O 0.3358 0.20854 0.41005 0.0
C268 C 0.30206 0.2075 0.35346 0.0
O269 O 0.30826 0.22444 0.34654 0.0
C270 C 0.29508 0.24582 0.39174 0.0
O271 O 0.28504 0.2294 0.39347 0.0
O272 O 0.35041 0.22503 0.36592 0.0
C273 C 0.6958 0.82992 0.07155 0.0
O274 O 0.68267 0.82079 0.08238 0.0
O275 O 0.74822 0.8085 0.10088 0.0
Zn276 Zn 0.72189 0.82169 0.10418 0.0
O277 O 0.70294 0.80147 0.11441 0.0
C278 C 0.7398 0.85468 0.12297 0.0
O279 O 0.75191 0.85285 0.10803 0.0
O280 O 0.71311 0.83228 0.07815 0.0
C281 C 0.70615 0.79448 0.13142 0.0
O282 O 0.72107 0.80124 0.14165 0.0
C283 C 0.7497 0.79044 0.0963 0.0
O284 O 0.73367 0.78019 0.09294 0.0
O285 O 0.72504 0.84328 0.1241 0.0
C286 C 0.66792 0.19888 0.56328 0.0
O287 O 0.6758 0.18468 0.57371 0.0
O288 O 0.69753 0.24944 0.59004 0.0
Zn289 Zn 0.68277 0.22407 0.59442 0.0
O290 O 0.70183 0.20309 0.60313 0.0
C291 C 0.67297 0.23545 0.63208 0.0
O292 O 0.69229 0.23534 0.63216 0.0
O293 O 0.66875 0.21645 0.56959 0.0
C294 C 0.69694 0.19002 0.61554 0.0
O295 O 0.67872 0.18941 0.62192 0.0
C296 C 0.71604 0.25109 0.59208 0.0
O297 O 0.72659 0.2353 0.59554 0.0
O298 O 0.66405 0.23012 0.61654 0.0
C299 C 0.32938 0.80452 0.5745 0.0
O300 O 0.31571 0.81487 0.58337 0.0
O301 O 0.30945 0.75177 0.59898 0.0
Zn302 Zn 0.32215 0.77754 0.60643 0.0
O303 O 0.30101 0.79547 0.61671 0.0
C304 C 0.33272 0.76042 0.6414 0.0
O305 O 0.31382 0.75674 0.63975 0.0
O306 O 0.33525 0.7886 0.58233 0.0
C307 C 0.304 0.80903 0.62918 0.0
O308 O 0.32192 0.81219 0.63566 0.0
C309 C 0.29097 0.7496 0.59717 0.0
O310 O 0.27948 0.76506 0.5985 0.0
O311 O 0.34102 0.77089 0.62832 0.0
C312 C 0.92665 0.69025 0.83534 0.0
O313 O 0.91712 0.67742 0.82449 0.0
O314 O 0.89681 0.74205 0.81507 0.0
Zn315 Zn 0.89309 0.71547 0.82754 0.0
O316 O 0.88341 0.69699 0.80655 0.0
C317 C 0.87317 0.73365 0.8595 0.0
O318 O 0.88838 0.74549 0.85815 0.0
O319 O 0.91886 0.70685 0.83887 0.0
C320 C 0.86567 0.6989 0.80103 0.0
O321 O 0.85452 0.71202 0.80978 0.0
C322 C 0.90112 0.74425 0.79702 0.0
O323 O 0.9039 0.72865 0.78597 0.0
O324 O 0.87242 0.71862 0.84843 0.0
C325 C 0.80083 0.42919 0.33245 0.0
O326 O 0.8149 0.41966 0.32329 0.0
O327 O 0.75185 0.39836 0.30563 0.0
Zn328 Zn 0.7771 0.39573 0.32094 0.0
O329 O 0.79771 0.38739 0.30148 0.0
C330 C 0.75685 0.37461 0.35068 0.0
O331 O 0.74489 0.38964 0.34868 0.0
O332 O 0.78382 0.42153 0.3336 0.0
C333 C 0.81125 0.37496 0.30469 0.0
O334 O 0.81308 0.36727 0.32231 0.0
C335 C 0.75211 0.4024 0.28739 0.0
O336 O 0.76896 0.40641 0.27885 0.0
O337 O 0.77273 0.37435 0.34084 0.0
C338 C 0.07213 0.3048 0.84254 0.0
O339 O 0.08165 0.31863 0.833 0.0
O340 O 0.10144 0.25319 0.81933 0.0
Zn341 Zn 0.10506 0.28004 0.83115 0.0
O342 O 0.11211 0.29821 0.80894 0.0
C343 C 0.12708 0.26341 0.86221 0.0
O344 O 0.11147 0.25203 0.86263 0.0
O345 O 0.07976 0.28783 0.84409 0.0
C346 C 0.12316 0.31318 0.81042 0.0
O347 O 0.13025 0.31807 0.82771 0.0
C348 C 0.09557 0.25076 0.80175 0.0
O349 O 0.09096 0.2662 0.79111 0.0
O350 O 0.12741 0.27781 0.85032 0.0
C351 C 0.19459 0.57056 0.33789 0.0
O352 O 0.1816 0.5807 0.32783 0.0
O353 O 0.24545 0.60115 0.31636 0.0
Zn354 Zn 0.21971 0.60424 0.33064 0.0
O355 O 0.20023 0.61497 0.31116 0.0
C356 C 0.23948 0.62284 0.36256 0.0
O357 O 0.25116 0.60764 0.36018 0.0
O358 O 0.2114 0.578 0.34124 0.0
C359 C 0.20394 0.63186 0.30414 0.0
O360 O 0.21949 0.64141 0.31049 0.0
C361 C 0.24625 0.59583 0.29847 0.0
O362 O 0.2299 0.59138 0.28921 0.0
O363 O 0.22405 0.62408 0.35212 0.0
C364 C 0.92648 0.30247 0.15885 0.0
O365 O 0.91586 0.31643 0.1669 0.0
O366 O 0.89922 0.25136 0.18652 0.0
Zn367 Zn 0.89492 0.27676 0.17193 0.0
O368 O 0.88611 0.29654 0.19202 0.0
C369 C 0.87534 0.25639 0.14147 0.0
O370 O 0.89143 0.24581 0.14294 0.0
O371 O 0.92015 0.28488 0.15899 0.0
C372 C 0.87419 0.31055 0.18893 0.0
O373 O 0.86718 0.31331 0.17114 0.0
C374 C 0.90483 0.25108 0.20435 0.0
O375 O 0.90895 0.26775 0.21321 0.0
O376 O 0.87361 0.27166 0.1521 0.0
C377 C 0.19084 0.42387 0.65754 0.0
O378 O 0.17633 0.4147 0.66638 0.0
O379 O 0.2397 0.39323 0.68379 0.0
Zn380 Zn 0.21405 0.39002 0.66944 0.0
O381 O 0.19399 0.38263 0.68983 0.0
C382 C 0.23307 0.3692 0.63885 0.0
O383 O 0.24435 0.38486 0.63987 0.0
O384 O 0.20761 0.41571 0.65657 0.0
C385 C 0.18087 0.36949 0.68795 0.0
O386 O 0.17911 0.36017 0.67113 0.0
C387 C 0.24042 0.39902 0.70155 0.0
O388 O 0.22404 0.40372 0.71065 0.0
O389 O 0.21793 0.36828 0.64977 0.0
C390 C 0.07089 0.70302 0.18071 0.0
O391 O 0.07806 0.70212 0.19863 0.0
O392 O 0.10125 0.74948 0.18869 0.0
Zn393 Zn 0.10664 0.72395 0.17468 0.0
O394 O 0.12266 0.70731 0.19321 0.0
C395 C 0.13702 0.7205 0.14467 0.0
O396 O 0.14 0.70305 0.1524 0.0
O397 O 0.08091 0.71138 0.16735 0.0
C398 C 0.1229 0.6887 0.19485 0.0
O399 O 0.11195 0.67791 0.18316 0.0
C400 C 0.10025 0.75055 0.20732 0.0
O401 O 0.10164 0.73438 0.21778 0.0
O402 O 0.12304 0.73106 0.15113 0.0
C403 C 0.79929 0.57715 0.66372 0.0
O404 O 0.80488 0.58441 0.68071 0.0
O405 O 0.75026 0.60377 0.67848 0.0
Zn406 Zn 0.77459 0.61147 0.66361 0.0
O407 O 0.79133 0.62606 0.68324 0.0
C408 C 0.7748 0.64492 0.63662 0.0
O409 O 0.79236 0.64838 0.64384 0.0
O410 O 0.78704 0.58668 0.65332 0.0
C411 C 0.80971 0.62935 0.68367 0.0
O412 O 0.82095 0.62302 0.66929 0.0
C413 C 0.75119 0.59818 0.69629 0.0
O414 O 0.76848 0.59636 0.7047 0.0
O415 O 0.76546 0.62972 0.64217 0.0
C416 C 0.82237 0.92467 0.70157 0.0
O417 O 0.80503 0.91656 0.69902 0.0
O418 O 0.81655 0.89277 0.74856 0.0
Zn419 Zn 0.82862 0.88862 0.72185 0.0
O420 O 0.80814 0.87445 0.70593 0.0
C421 C 0.86204 0.87183 0.74092 0.0
O422 O 0.8588 0.88645 0.75313 0.0
O423 O 0.83565 0.91505 0.71052 0.0
C424 C 0.80673 0.87283 0.68738 0.0
O425 O 0.82004 0.88101 0.67602 0.0
C426 C 0.79828 0.89627 0.75041 0.0
O427 O 0.78739 0.89812 0.73457 0.0
O428 O 0.85176 0.87059 0.72537 0.0
C429 C 0.56841 0.33163 0.18767 0.0
O430 O 0.5781 0.3204 0.17531 0.0
O431 O 0.59775 0.3098 0.23837 0.0
Zn432 Zn 0.60194 0.32467 0.21314 0.0
O433 O 0.6132 0.30578 0.19322 0.0
C434 C 0.63946 0.34077 0.22109 0.0
O435 O 0.64422 0.32231 0.21799 0.0
O436 O 0.57605 0.33577 0.20422 0.0
C437 C 0.62461 0.31073 0.17929 0.0
O438 O 0.62886 0.32939 0.17667 0.0
C439 C 0.59594 0.29121 0.23904 0.0
O440 O 0.59585 0.28111 0.22258 0.0
O441 O 0.62159 0.34599 0.2195 0.0
C442 C 0.16363 0.07531 0.69437 0.0
O443 O 0.17573 0.08507 0.68292 0.0
O444 O 0.1832 0.1035 0.747 0.0
Zn445 Zn 0.16943 0.10808 0.72113 0.0
O446 O 0.18878 0.1205 0.70255 0.0
C447 C 0.13779 0.12558 0.74215 0.0
O448 O 0.14084 0.11023 0.75347 0.0
O449 O 0.1588 0.08255 0.7109 0.0
C450 C 0.19641 0.13656 0.70829 0.0
O451 O 0.1909 0.14396 0.72527 0.0
C452 C 0.20151 0.10007 0.7485 0.0
O453 O 0.21214 0.09831 0.73247 0.0
O454 O 0.14773 0.12735 0.72644 0.0
C455 C 0.42847 0.67333 0.20256 0.0
O456 O 0.42063 0.69067 0.19934 0.0
O457 O 0.40053 0.68506 0.25058 0.0
Zn458 Zn 0.39403 0.66933 0.22635 0.0
O459 O 0.37742 0.68709 0.2095 0.0
C460 C 0.36397 0.63891 0.22518 0.0
O461 O 0.36171 0.64465 0.20688 0.0
O462 O 0.4193 0.66107 0.21329 0.0
C463 C 0.37555 0.6876 0.19093 0.0
O464 O 0.38518 0.67496 0.17995 0.0
C465 C 0.40377 0.70345 0.2496 0.0
O466 O 0.40396 0.71207 0.23232 0.0
O467 O 0.37754 0.64655 0.23551 0.0
C468 C 0.83061 0.06838 0.30178 0.0
O469 O 0.81291 0.07534 0.30508 0.0
O470 O 0.81909 0.09591 0.25304 0.0
Zn471 Zn 0.83333 0.10307 0.27796 0.0
O472 O 0.81395 0.11875 0.29395 0.0
C473 C 0.86217 0.13478 0.27975 0.0
O474 O 0.85531 0.13756 0.29759 0.0
O475 O 0.84239 0.07819 0.2911 0.0
C476 C 0.81232 0.1211 0.31241 0.0
O477 O 0.82497 0.11268 0.32432 0.0
C478 C 0.80069 0.09263 0.25295 0.0
O479 O 0.79104 0.0926 0.26968 0.0
O480 O 0.8557 0.12049 0.26961 0.0
C481 C 0.42819 0.32354 0.78595 0.0
O482 O 0.42219 0.30521 0.78696 0.0
O483 O 0.3962 0.31406 0.74183 0.0
Zn484 Zn 0.39094 0.32749 0.76766 0.0
O485 O 0.37677 0.30799 0.78488 0.0
C486 C 0.3591 0.35586 0.77228 0.0
O487 O 0.35694 0.348 0.78979 0.0
O488 O 0.41673 0.33643 0.77883 0.0
C489 C 0.37751 0.30618 0.80346 0.0
O490 O 0.38842 0.31828 0.81382 0.0
C491 C 0.39844 0.29556 0.74037 0.0
O492 O 0.39813 0.28472 0.75634 0.0
O493 O 0.37305 0.35006 0.76131 0.0
C494 C 0.17181 0.92889 0.30596 0.0
O495 O 0.18334 0.91952 0.31829 0.0
O496 O 0.18973 0.89677 0.25466 0.0
Zn497 Zn 0.17732 0.89438 0.28145 0.0
O498 O 0.19766 0.88393 0.30019 0.0
C499 C 0.14394 0.8761 0.26413 0.0
O500 O 0.14564 0.8913 0.25233 0.0
O501 O 0.16714 0.92076 0.2898 0.0
C502 C 0.20339 0.86634 0.29764 0.0
O503 O 0.19545 0.85588 0.28347 0.0
C504 C 0.20804 0.89929 0.25198 0.0
O505 O 0.21966 0.90132 0.26727 0.0
O506 O 0.15543 0.87473 0.27879 0.0
C507 C 0.57148 0.67112 0.79465 0.0
O508 O 0.57844 0.689 0.79678 0.0
O509 O 0.59979 0.68146 0.74675 0.0
Zn510 Zn 0.60637 0.66695 0.77167 0.0
O511 O 0.62252 0.68539 0.78828 0.0
C512 C 0.63652 0.63652 0.77385 0.0
O513 O 0.63926 0.64299 0.79184 0.0
O514 O 0.58128 0.65864 0.7848 0.0
C515 C 0.62377 0.6861 0.80691 0.0
O516 O 0.61398 0.67338 0.81765 0.0
C517 C 0.59764 0.70002 0.74638 0.0
O518 O 0.59869 0.70997 0.7629 0.0
O519 O 0.62287 0.64392 0.76346 0.0
C520 C 0.69318 0.82864 0.9275 0.0
O521 O 0.68093 0.81685 0.91833 0.0
O522 O 0.7441 0.80842 0.89725 0.0
Zn523 Zn 0.7182 0.82224 0.89349 0.0
O524 O 0.69901 0.80268 0.88238 0.0
C525 C 0.7385 0.85396 0.87551 0.0
O526 O 0.74985 0.85127 0.89091 0.0
O527 O 0.70939 0.83312 0.91939 0.0
C528 C 0.70241 0.79646 0.86509 0.0
O529 O 0.71748 0.80365 0.85537 0.0
C530 C 0.74565 0.79 0.9 0.0
O531 O 0.72968 0.77923 0.9013 0.0
O532 O 0.72295 0.84375 0.87385 0.0
C533 C 0.69635 0.15581 0.07779 0.0
O534 O 0.68244 0.16435 0.08811 0.0
O535 O 0.74778 0.17923 0.10717 0.0
Zn536 Zn 0.72144 0.16615 0.11078 0.0
O537 O 0.70185 0.18652 0.11978 0.0
C538 C 0.73901 0.13324 0.12912 0.0
O539 O 0.74934 0.13387 0.11281 0.0
O540 O 0.71355 0.15449 0.08494 0.0
C541 C 0.70761 0.20015 0.13119 0.0
O542 O 0.72586 0.20009 0.13752 0.0
C543 C 0.75004 0.19602 0.09929 0.0
O544 O 0.73462 0.20545 0.09247 0.0
O545 O 0.725 0.14539 0.1314 0.0
C546 C 0.32292 0.19415 0.56293 0.0
O547 O 0.30732 0.1866 0.57147 0.0
O548 O 0.31087 0.24266 0.59575 0.0
Zn549 Zn 0.32497 0.21676 0.59868 0.0
O550 O 0.30666 0.19827 0.61274 0.0
C551 C 0.35789 0.23748 0.61469 0.0
O552 O 0.35374 0.2496 0.60024 0.0
O553 O 0.33304 0.20691 0.57207 0.0
C554 C 0.30143 0.20399 0.62975 0.0
O555 O 0.30871 0.22051 0.63665 0.0
C556 C 0.29231 0.24385 0.59388 0.0
O557 O 0.28187 0.22765 0.59267 0.0
O558 O 0.34824 0.22156 0.61619 0.0
C559 C 0.30272 0.82492 0.06862 0.0
O560 O 0.31268 0.81084 0.0773 0.0
O561 O 0.25459 0.80852 0.10149 0.0
Zn562 Zn 0.28017 0.82311 0.10429 0.0
O563 O 0.29964 0.80394 0.11545 0.0
C564 C 0.25975 0.85429 0.12364 0.0
O565 O 0.24706 0.85079 0.1095 0.0
O566 O 0.28853 0.83297 0.07771 0.0
C567 C 0.29585 0.79675 0.13226 0.0
O568 O 0.28016 0.80287 0.14173 0.0
C569 C 0.25406 0.7906 0.09622 0.0
O570 O 0.27054 0.78165 0.09159 0.0
O571 O 0.2759 0.84491 0.12381 0.0
C572 C 0.65587 0.81125 0.57056 0.0
O573 O 0.66551 0.82438 0.58093 0.0
O574 O 0.67989 0.76044 0.59967 0.0
Zn575 Zn 0.66461 0.78553 0.60339 0.0
O576 O 0.68367 0.80533 0.6142 0.0
C577 C 0.63363 0.76431 0.62188 0.0
O578 O 0.6362 0.75308 0.60637 0.0
O579 O 0.65336 0.7941 0.57752 0.0
C580 C 0.69049 0.8018 0.63121 0.0
O581 O 0.68389 0.78647 0.64093 0.0
C582 C 0.69779 0.76073 0.5943 0.0
O583 O 0.70607 0.77765 0.59 0.0
O584 O 0.64357 0.78006 0.62337 0.0
C585 C 0.30636 0.16761 0.92792 0.0
O586 O 0.31825 0.17978 0.91878 0.0
O587 O 0.25664 0.18701 0.8965 0.0
Zn588 Zn 0.28223 0.17251 0.89309 0.0
O589 O 0.30192 0.19144 0.88166 0.0
C590 C 0.26109 0.14137 0.87447 0.0
O591 O 0.24923 0.14459 0.88937 0.0
O592 O 0.29064 0.16209 0.91944 0.0
C593 C 0.29878 0.1972 0.86417 0.0
O594 O 0.28363 0.19003 0.85456 0.0
C595 C 0.2555 0.20555 0.8986 0.0
O596 O 0.27171 0.21603 0.89935 0.0
O597 O 0.27717 0.15086 0.87352 0.0
C598 C 0.32767 0.79744 0.43126 0.0
O599 O 0.31006 0.80032 0.42388 0.0
O600 O 0.31789 0.74891 0.40222 0.0
Zn601 Zn 0.33196 0.77428 0.39633 0.0
O602 O 0.31328 0.79081 0.38034 0.0
C603 C 0.36202 0.77728 0.36588 0.0
O604 O 0.35471 0.79491 0.36297 0.0
O605 O 0.33994 0.78705 0.42175 0.0
C606 C 0.31263 0.80941 0.37869 0.0
O607 O 0.32557 0.82031 0.38802 0.0
C608 C 0.29931 0.74804 0.40404 0.0
O609 O 0.289 0.76435 0.40328 0.0
O610 O 0.35525 0.76679 0.37977 0.0
C611 C 0.6601 0.19384 0.41966 0.0
O612 O 0.66915 0.17967 0.41015 0.0
O613 O 0.68256 0.24382 0.38724 0.0
Zn614 Zn 0.66951 0.21732 0.38522 0.0
O615 O 0.68994 0.19775 0.37659 0.0
C616 C 0.63679 0.23435 0.36586 0.0
O617 O 0.63766 0.24575 0.38143 0.0
O618 O 0.6582 0.21055 0.41156 0.0
C619 C 0.69656 0.19956 0.35922 0.0
O620 O 0.68921 0.2133 0.34781 0.0
C621 C 0.70082 0.24606 0.39052 0.0
O622 O 0.71191 0.23052 0.3934 0.0
O623 O 0.64854 0.21989 0.3646 0.0
H624 H 0.94838 0.33586 0.16451 0.0
H625 H 0.04695 0.2811 0.13321 0.0
H626 H 0.95085 0.27813 0.13822 0.0
H627 H 0.04554 0.33463 0.16732 0.0
H628 H 0.01174 0.28431 0.12736 0.0
H629 H 0.98359 0.33976 0.15828 0.0
C630 C 0.95624 0.32415 0.15712 0.0
C631 C 0.94677 0.30647 0.15224 0.0
C632 C 0.01918 0.29552 0.13588 0.0
C633 C 0.98698 0.31084 0.14512 0.0
C634 C 0.03931 0.29372 0.1392 0.0
C635 C 0.04912 0.30737 0.15117 0.0
C636 C 0.00875 0.311 0.14468 0.0
C637 C 0.03851 0.32359 0.15826 0.0
C638 C 0.97635 0.32638 0.15361 0.0
C639 C 0.95764 0.29186 0.14256 0.0
N640 N 0.0188 0.32478 0.1552 0.0
N641 N 0.97721 0.29428 0.13954 0.0
H642 H 0.22462 0.54298 0.64086 0.0
H643 H 0.15958 0.4486 0.6638 0.0
H644 H 0.16627 0.54585 0.66566 0.0
H645 H 0.21764 0.44671 0.6382 0.0
H646 H 0.15921 0.48426 0.65927 0.0
H647 H 0.21983 0.50805 0.63451 0.0
C648 C 0.2107 0.5363 0.64477 0.0
C649 C 0.19595 0.54726 0.65412 0.0
C650 C 0.1719 0.47599 0.65438 0.0
C651 C 0.19042 0.50718 0.64707 0.0
C652 C 0.17211 0.45562 0.65692 0.0
C653 C 0.18883 0.4447 0.65173 0.0
C654 C 0.18856 0.48547 0.64665 0.0
C655 C 0.20457 0.45457 0.64274 0.0
C656 C 0.20795 0.51633 0.64112 0.0
C657 C 0.17811 0.5379 0.65861 0.0
N658 N 0.20415 0.47441 0.64074 0.0
N659 N 0.17595 0.51831 0.65532 0.0
H660 H 0.04871 0.70891 0.14756 0.0
H661 H 0.9509 0.66825 0.19834 0.0
H662 H 0.04681 0.68202 0.20502 0.0
H663 H 0.95116 0.70427 0.14607 0.0
H664 H 0.98673 0.66716 0.1973 0.0
H665 H 0.0138 0.70138 0.14333 0.0
C666 C 0.04103 0.70119 0.15918 0.0
C667 C 0.0506 0.69634 0.1768 0.0
C668 C 0.97894 0.67513 0.18594 0.0
C669 C 0.01071 0.68773 0.17205 0.0
C670 C 0.95846 0.67573 0.18649 0.0
C671 C 0.94802 0.68665 0.17245 0.0
C672 C 0.98906 0.68552 0.17126 0.0
C673 C 0.95862 0.69587 0.15734 0.0
C674 C 0.02109 0.69694 0.15677 0.0
C675 C 0.03995 0.68627 0.1913 0.0
N676 N 0.97859 0.69528 0.15726 0.0
N677 N 0.02054 0.68244 0.18868 0.0
H678 H 0.77742 0.45664 0.643 0.0
H679 H 0.82786 0.55408 0.67998 0.0
H680 H 0.83253 0.457 0.67446 0.0
H681 H 0.78212 0.55353 0.63599 0.0
H682 H 0.83196 0.51869 0.67561 0.0
H683 H 0.78069 0.49197 0.63763 0.0
C684 C 0.79034 0.46412 0.64856 0.0
C685 C 0.80457 0.45393 0.65947 0.0
C686 C 0.82126 0.52635 0.66666 0.0
C687 C 0.8083 0.4944 0.65357 0.0
C688 C 0.81889 0.54656 0.66917 0.0
C689 C 0.8044 0.5567 0.65857 0.0
C690 C 0.80882 0.51617 0.65369 0.0
C691 C 0.79335 0.54626 0.64461 0.0
C692 C 0.79223 0.48429 0.64544 0.0
C693 C 0.82112 0.46431 0.66613 0.0
N694 N 0.79554 0.52649 0.64283 0.0
N695 N 0.82237 0.48405 0.66337 0.0
H696 H 0.9499 0.71303 0.85888 0.0
H697 H 0.0483 0.65855 0.82586 0.0
H698 H 0.95067 0.65978 0.82431 0.0
H699 H 0.04632 0.71542 0.85399 0.0
H700 H 0.01288 0.65513 0.83118 0.0
H701 H 0.98532 0.71023 0.86338 0.0
C702 C 0.95748 0.70059 0.85243 0.0
C703 C 0.94737 0.68682 0.84087 0.0
C704 C 0.02026 0.66823 0.83641 0.0
C705 C 0.988 0.68363 0.84584 0.0
C706 C 0.04048 0.67018 0.83341 0.0
C707 C 0.0502 0.68745 0.83919 0.0
C708 C 0.00976 0.68364 0.84528 0.0
C709 C 0.03937 0.70199 0.84902 0.0
C710 C 0.97773 0.69902 0.855 0.0
C711 C 0.95792 0.67087 0.83314 0.0
N712 N 0.01971 0.69984 0.85157 0.0
N713 N 0.97774 0.66986 0.83552 0.0
H714 H 0.833 0.55071 0.32908 0.0
H715 H 0.77621 0.45179 0.35473 0.0
H716 H 0.77827 0.54831 0.36116 0.0
H717 H 0.83236 0.45321 0.32518 0.0
H718 H 0.7793 0.48684 0.36154 0.0
H719 H 0.83569 0.51497 0.33184 0.0
C720 C 0.8217 0.54272 0.33696 0.0
C721 C 0.8052 0.55248 0.34459 0.0
C722 C 0.79108 0.47947 0.35377 0.0
C723 C 0.80811 0.51161 0.34767 0.0
C724 C 0.78931 0.45944 0.34986 0.0
C725 C 0.8039 0.44963 0.33908 0.0
C726 C 0.80746 0.48985 0.34667 0.0
C727 C 0.82066 0.46023 0.33337 0.0
C728 C 0.82323 0.5223 0.33851 0.0
C729 C 0.7911 0.54138 0.35479 0.0
N730 N 0.82185 0.47985 0.33697 0.0
N731 N 0.79275 0.52153 0.3558 0.0
H732 H 0.04876 0.27978 0.86355 0.0
H733 H 0.95066 0.33652 0.83382 0.0
H734 H 0.0482 0.33629 0.83466 0.0
H735 H 0.95267 0.27692 0.85554 0.0
H736 H 0.98581 0.33981 0.84078 0.0
H737 H 0.01324 0.28193 0.86771 0.0
C738 C 0.04121 0.29279 0.85832 0.0
C739 C 0.05141 0.3077 0.84837 0.0
C740 C 0.97848 0.32612 0.84427 0.0
C741 C 0.01068 0.31015 0.85292 0.0
C742 C 0.95841 0.32423 0.84033 0.0
C743 C 0.94882 0.30629 0.84378 0.0
C744 C 0.98895 0.30996 0.85173 0.0
C745 C 0.95955 0.29091 0.85234 0.0
C746 C 0.0209 0.29399 0.86069 0.0
C747 C 0.04089 0.32434 0.84219 0.0
N748 N 0.97907 0.29303 0.85583 0.0
N749 N 0.02102 0.32498 0.84429 0.0
H750 H 0.16031 0.45012 0.32477 0.0
H751 H 0.21746 0.54607 0.36006 0.0
H752 H 0.21569 0.44947 0.35579 0.0
H753 H 0.16333 0.54756 0.32694 0.0
H754 H 0.21372 0.51064 0.3639 0.0
H755 H 0.1579 0.48549 0.33068 0.0
C756 C 0.17181 0.45734 0.33309 0.0
C757 C 0.18841 0.44688 0.33948 0.0
C758 C 0.20252 0.51872 0.35598 0.0
C759 C 0.18579 0.48734 0.34619 0.0
C760 C 0.20465 0.53898 0.35378 0.0
C761 C 0.19087 0.54974 0.34286 0.0
C762 C 0.18657 0.5091 0.34706 0.0
C763 C 0.17443 0.5398 0.33529 0.0
C764 C 0.17044 0.47755 0.33642 0.0
C765 C 0.20278 0.45699 0.35031 0.0
N766 N 0.17289 0.51998 0.33729 0.0
N767 N 0.20125 0.47668 0.35311 0.0
H768 H 0.18473 0.95335 0.33531 0.0
H769 H 0.1382 0.04805 0.28414 0.0
H770 H 0.14635 0.9516 0.28477 0.0
H771 H 0.18202 0.05072 0.33 0.0
H772 H 0.13586 0.0126 0.28891 0.0
H773 H 0.17881 0.98871 0.33808 0.0
C774 C 0.17484 0.96033 0.32496 0.0
C775 C 0.16628 0.94957 0.30958 0.0
C776 C 0.14582 0.02096 0.2981 0.0
C777 C 0.1595 0.98997 0.31264 0.0
C778 C 0.14715 0.04123 0.2954 0.0
C779 C 0.1606 0.05232 0.30644 0.0
C780 C 0.15809 0.01169 0.31187 0.0
C781 C 0.17163 0.0427 0.32099 0.0
C782 C 0.1715 0.98052 0.32654 0.0
C783 C 0.1535 0.95937 0.29669 0.0
N784 N 0.17033 0.02288 0.3231 0.0
N785 N 0.15066 0.97904 0.29839 0.0
H786 H 0.54931 0.63866 0.78585 0.0
H787 H 0.4523 0.6835 0.8345 0.0
H788 H 0.54792 0.69288 0.81885 0.0
H789 H 0.45193 0.63928 0.78895 0.0
H790 H 0.48817 0.68176 0.83538 0.0
H791 H 0.51454 0.63359 0.79346 0.0
C792 C 0.54178 0.64935 0.79494 0.0
C793 C 0.55142 0.66639 0.80146 0.0
C794 C 0.4802 0.67227 0.82537 0.0
C795 C 0.51173 0.66067 0.81018 0.0
C796 C 0.45972 0.67321 0.8249 0.0
C797 C 0.44913 0.66175 0.81139 0.0
C798 C 0.49012 0.65972 0.81233 0.0
C799 C 0.45954 0.64859 0.79939 0.0
C800 C 0.52193 0.64647 0.79922 0.0
C801 C 0.54098 0.67968 0.81328 0.0
N802 N 0.47948 0.64806 0.80001 0.0
N803 N 0.52163 0.67663 0.81712 0.0
H804 H 0.86199 0.04598 0.29006 0.0
H805 H 0.8153 0.94795 0.33441 0.0
H806 H 0.81031 0.04445 0.32688 0.0
H807 H 0.85662 0.94909 0.28624 0.0
H808 H 0.81992 0.98331 0.33869 0.0
H809 H 0.86646 0.01074 0.29555 0.0
C810 C 0.85179 0.03833 0.29959 0.0
C811 C 0.83552 0.04808 0.30773 0.0
C812 C 0.8282 0.97575 0.32739 0.0
C813 C 0.84056 0.00782 0.31401 0.0
C814 C 0.82563 0.95554 0.32497 0.0
C815 C 0.83528 0.94562 0.30966 0.0
C816 C 0.84056 0.98606 0.31447 0.0
C817 C 0.84862 0.95621 0.29801 0.0
C818 C 0.85432 0.0182 0.30266 0.0
C819 C 0.82286 0.03744 0.32005 0.0
N820 N 0.85067 0.97592 0.30048 0.0
N821 N 0.82552 0.01782 0.32264 0.0
H822 H 0.5447 0.37368 0.77988 0.0
H823 H 0.45603 0.29976 0.80231 0.0
H824 H 0.55169 0.31322 0.79791 0.0
H825 H 0.44746 0.35844 0.77969 0.0
H826 H 0.49106 0.30647 0.80543 0.0
H827 H 0.50902 0.37023 0.78392 0.0
C828 C 0.53876 0.35975 0.78482 0.0
C829 C 0.55116 0.34365 0.78833 0.0
C830 C 0.48152 0.31797 0.79994 0.0
C831 C 0.51053 0.33963 0.79304 0.0
C832 C 0.46149 0.31415 0.79818 0.0
C833 C 0.44884 0.32847 0.79046 0.0
C834 C 0.48904 0.3362 0.79381 0.0
C835 C 0.45672 0.34692 0.78556 0.0
C836 C 0.51843 0.35779 0.78712 0.0
C837 C 0.5427 0.32597 0.7948 0.0
N838 N 0.47638 0.35019 0.7871 0.0
N839 N 0.52294 0.32443 0.79683 0.0
H840 H 0.13655 0.0523 0.71311 0.0
H841 H 0.17588 0.95491 0.66218 0.0
H842 H 0.17739 0.05195 0.66453 0.0
H843 H 0.1364 0.95595 0.71187 0.0
H844 H 0.17106 0.99026 0.65811 0.0
H845 H 0.13092 0.01726 0.7082 0.0
C846 C 0.14416 0.0449 0.70124 0.0
C847 C 0.15777 0.05498 0.68947 0.0
C848 C 0.16319 0.98269 0.6697 0.0
C849 C 0.15153 0.01477 0.68387 0.0
C850 C 0.1659 0.96248 0.672 0.0
C851 C 0.15688 0.95254 0.68768 0.0
C852 C 0.15145 0.99299 0.6832 0.0
C853 C 0.14395 0.96308 0.69981 0.0
C854 C 0.14092 0.02487 0.69843 0.0
C855 C 0.16696 0.0447 0.67411 0.0
N856 N 0.14187 0.98278 0.69751 0.0
N857 N 0.16392 0.02507 0.67196 0.0
H858 H 0.45164 0.69597 0.17885 0.0
H859 H 0.54907 0.63734 0.20703 0.0
H860 H 0.4518 0.64175 0.21183 0.0
H861 H 0.54834 0.69414 0.17873 0.0
H862 H 0.51339 0.63533 0.20304 0.0
H863 H 0.48673 0.69201 0.17278 0.0
C864 C 0.459 0.68309 0.18461 0.0
C865 C 0.44884 0.66936 0.19618 0.0
C866 C 0.52109 0.64811 0.19747 0.0
C867 C 0.4891 0.66481 0.18942 0.0
C868 C 0.54146 0.64925 0.1997 0.0
C869 C 0.55165 0.6661 0.19352 0.0
C870 C 0.51087 0.66392 0.18901 0.0
C871 C 0.54105 0.68101 0.184 0.0
C872 C 0.47907 0.68084 0.18115 0.0
C873 C 0.45911 0.65282 0.20303 0.0
N874 N 0.52122 0.67967 0.18224 0.0
N875 N 0.47875 0.65115 0.19979 0.0
H876 H 0.79404 0.04515 0.68177 0.0
H877 H 0.85339 0.9486 0.71136 0.0
H878 H 0.84851 0.04614 0.71434 0.0
H879 H 0.79776 0.94854 0.6808 0.0
H880 H 0.85497 0.98434 0.70759 0.0
H881 H 0.7983 0.01001 0.67633 0.0
C882 C 0.80701 0.038 0.68762 0.0
C883 C 0.82077 0.04852 0.69881 0.0
C884 C 0.84256 0.97646 0.70148 0.0
C885 C 0.82568 0.0082 0.69275 0.0
C886 C 0.84167 0.95605 0.70358 0.0
C887 C 0.82525 0.94562 0.69668 0.0
C888 C 0.82691 0.98645 0.69243 0.0
C889 C 0.81055 0.95602 0.68663 0.0
C890 C 0.80945 0.01792 0.68449 0.0
C891 C 0.83743 0.03855 0.70579 0.0
N892 N 0.81163 0.97586 0.68501 0.0
N893 N 0.83929 0.01886 0.70288 0.0
H894 H 0.54522 0.32005 0.15681 0.0
H895 H 0.44785 0.36064 0.20791 0.0
H896 H 0.5445 0.35553 0.20945 0.0
H897 H 0.44782 0.31955 0.15951 0.0
H898 H 0.48329 0.36447 0.20419 0.0
H899 H 0.50983 0.32523 0.1533 0.0
C900 C 0.53769 0.32917 0.16747 0.0
C901 C 0.54777 0.33708 0.18365 0.0
C902 C 0.47551 0.35479 0.19422 0.0
C903 C 0.50731 0.343 0.17975 0.0
C904 C 0.45525 0.35261 0.19632 0.0
C905 C 0.4449 0.33946 0.18424 0.0
C906 C 0.48554 0.34369 0.18001 0.0
C907 C 0.45524 0.32965 0.16932 0.0
C908 C 0.51748 0.33209 0.16547 0.0
C909 C 0.53728 0.3489 0.19691 0.0
N910 N 0.47505 0.33176 0.16779 0.0
N911 N 0.51759 0.35132 0.19479 0.0
H912 H 0.28416 0.13822 0.0485 0.0
H913 H 0.33622 0.18001 0.95199 0.0
H914 H 0.33459 0.17677 0.04956 0.0
H915 H 0.28418 0.14365 0.95145 0.0
H916 H 0.33897 0.17487 0.98744 0.0
H917 H 0.2871 0.13594 0.01283 0.0
C918 C 0.29599 0.14605 0.04126 0.0
C919 C 0.30898 0.15794 0.05202 0.0
C920 C 0.32707 0.16784 0.97952 0.0
C921 C 0.31235 0.15548 0.01112 0.0
C922 C 0.32551 0.17075 0.95926 0.0
C923 C 0.30978 0.16248 0.94877 0.0
C924 C 0.31278 0.15663 0.98935 0.0
C925 C 0.29642 0.1505 0.95897 0.0
C926 C 0.29765 0.14475 0.02087 0.0
C927 C 0.32413 0.16759 0.04185 0.0
N928 N 0.29811 0.1481 0.97871 0.0
N929 N 0.32526 0.16632 0.02194 0.0
H930 H 0.2847 0.85285 0.04585 0.0
H931 H 0.32037 0.80287 0.94666 0.0
H932 H 0.32814 0.80664 0.0434 0.0
H933 H 0.28296 0.85409 0.9484 0.0
H934 H 0.32634 0.80648 0.98184 0.0
H935 H 0.28678 0.85616 0.01016 0.0
C936 C 0.29487 0.84358 0.03784 0.0
C937 C 0.30603 0.82922 0.04759 0.0
C938 C 0.31702 0.81709 0.9745 0.0
C939 C 0.30834 0.83281 0.00673 0.0
C940 C 0.31358 0.81501 0.95441 0.0
C941 C 0.30091 0.82802 0.94465 0.0
C942 C 0.30753 0.83215 0.98497 0.0
C943 C 0.29269 0.84362 0.95537 0.0
C944 C 0.29606 0.84548 0.01746 0.0
C945 C 0.3191 0.81775 0.03648 0.0
N946 N 0.29592 0.84508 0.97503 0.0
N947 N 0.31968 0.81961 0.01662 0.0
H948 H 0.66666 0.84271 0.54778 0.0
H949 H 0.63307 0.78809 0.44989 0.0
H950 H 0.63317 0.78881 0.54617 0.0
H951 H 0.67342 0.8371 0.45102 0.0
H952 H 0.62611 0.79349 0.48463 0.0
H953 H 0.6625 0.84587 0.5122 0.0
C954 C 0.65814 0.83173 0.54001 0.0
C955 C 0.6506 0.81525 0.54988 0.0
C956 C 0.63627 0.80325 0.47722 0.0
C957 C 0.64584 0.81875 0.50924 0.0
C958 C 0.64024 0.8002 0.45736 0.0
C959 C 0.65421 0.81188 0.44765 0.0
C960 C 0.64643 0.818 0.48749 0.0
C961 C 0.66278 0.82754 0.458 0.0
C962 C 0.65581 0.83352 0.5197 0.0
C963 C 0.63955 0.80156 0.5391 0.0
N964 N 0.65901 0.82994 0.47748 0.0
N965 N 0.63772 0.80349 0.51933 0.0
H966 H 0.66387 0.16323 0.05503 0.0
H967 H 0.72306 0.14134 0.95667 0.0
H968 H 0.72148 0.13666 0.05303 0.0
H969 H 0.66507 0.16711 0.95759 0.0
H970 H 0.72011 0.13429 0.99165 0.0
H971 H 0.66139 0.15952 0.01935 0.0
C972 C 0.67585 0.15631 0.04715 0.0
C973 C 0.69307 0.1506 0.05697 0.0
C974 C 0.70791 0.14127 0.98419 0.0
C975 C 0.69039 0.14645 0.01619 0.0
C976 C 0.7096 0.14532 0.96419 0.0
C977 C 0.69443 0.15515 0.95428 0.0
C978 C 0.69102 0.14729 0.99444 0.0
C979 C 0.67721 0.15969 0.96471 0.0
C980 C 0.67444 0.15424 0.02677 0.0
C981 C 0.70806 0.1416 0.04603 0.0
N982 N 0.6761 0.15601 0.98432 0.0
N983 N 0.70648 0.14004 0.02622 0.0
H984 H 0.35296 0.20855 0.54033 0.0
H985 H 0.30624 0.16802 0.44069 0.0
H986 H 0.30263 0.16993 0.53794 0.0
H987 H 0.35358 0.21026 0.44315 0.0
H988 H 0.30861 0.16387 0.47626 0.0
H989 H 0.35717 0.20466 0.50492 0.0
C990 C 0.34292 0.19906 0.53241 0.0
C991 C 0.32722 0.1898 0.54208 0.0
C992 C 0.31863 0.17387 0.46899 0.0
C993 C 0.33191 0.18537 0.50149 0.0
C994 C 0.31732 0.17623 0.44865 0.0
C995 C 0.32952 0.18975 0.43896 0.0
C996 C 0.33221 0.18516 0.4797 0.0
C997 C 0.34371 0.19985 0.45004 0.0
C998 C 0.34533 0.19686 0.51217 0.0
C999 C 0.3148 0.17753 0.53107 0.0
N1000 N 0.3445 0.19752 0.46985 0.0
N1001 N 0.31727 0.17585 0.51132 0.0
H1002 H 0.66352 0.8197 0.04964 0.0
H1003 H 0.71463 0.8541 0.94996 0.0
H1004 H 0.71824 0.85173 0.0464 0.0
H1005 H 0.66377 0.81617 0.95213 0.0
H1006 H 0.71185 0.85931 0.98529 0.0
H1007 H 0.6593 0.82414 0.01419 0.0
C1008 C 0.67449 0.82793 0.04154 0.0
C1009 C 0.69144 0.83505 0.05091 0.0
C1010 C 0.70114 0.85002 0.97802 0.0
C1011 C 0.68672 0.84011 0.01044 0.0
C1012 C 0.70272 0.84705 0.95783 0.0
C1013 C 0.68964 0.83436 0.94814 0.0
C1014 C 0.68647 0.84015 0.98867 0.0
C1015 C 0.67432 0.82587 0.95905 0.0
C1016 C 0.67208 0.83042 0.02131 0.0
C1017 C 0.7051 0.84571 0.03972 0.0
N1018 N 0.67333 0.82868 0.97881 0.0
N1019 N 0.70254 0.84773 0.02005 0.0
H1020 H 0.67116 0.16497 0.5417 0.0
H1021 H 0.63972 0.21947 0.4429 0.0
H1022 H 0.64839 0.22414 0.53893 0.0
H1023 H 0.66872 0.16303 0.44424 0.0
H1024 H 0.63612 0.2181 0.47851 0.0
H1025 H 0.66381 0.16093 0.50672 0.0
C1026 C 0.66433 0.177 0.53383 0.0
C1027 C 0.66072 0.19505 0.54315 0.0
C1028 C 0.64306 0.20589 0.47102 0.0
C1029 C 0.65235 0.19054 0.50319 0.0
C1030 C 0.64511 0.20665 0.45066 0.0
C1031 C 0.65489 0.19152 0.44062 0.0
C1032 C 0.65096 0.18994 0.48146 0.0
C1033 C 0.6613 0.17514 0.45141 0.0
C1034 C 0.66018 0.17469 0.51385 0.0
C1035 C 0.65172 0.21008 0.53226 0.0
N1036 N 0.65949 0.17492 0.47131 0.0
N1037 N 0.64806 0.20755 0.51282 0.0
H1038 H 0.30687 0.82319 0.454 0.0
H1039 H 0.35745 0.78671 0.55174 0.0
H1040 H 0.35865 0.78652 0.45457 0.0
H1041 H 0.31335 0.83232 0.55027 0.0
H1042 H 0.36119 0.7897 0.51618 0.0
H1043 H 0.3117 0.82995 0.4889 0.0
C1044 C 0.3194 0.81676 0.46142 0.0
C1045 C 0.33217 0.804 0.45146 0.0
C1046 C 0.35094 0.79931 0.52367 0.0
C1047 C 0.3377 0.81151 0.49146 0.0
C1048 C 0.3488 0.7976 0.54399 0.0
C1049 C 0.33477 0.80899 0.55394 0.0
C1050 C 0.33878 0.81231 0.5132 0.0
C1051 C 0.32415 0.82303 0.54318 0.0
C1052 C 0.3222 0.82067 0.48134 0.0
C1053 C 0.34832 0.79628 0.46173 0.0
N1054 N 0.32611 0.82403 0.52334 0.0
N1055 N 0.35043 0.79989 0.48126 0.0
H1056 H 0.15337 0.34612 0.30576 0.0
H1057 H 0.14828 0.3383 0.18849 0.0
H1058 H 0.18842 0.38159 0.26647 0.0
H1059 H 0.11113 0.30486 0.22763 0.0
H1060 H 0.1618 0.35571 0.21686 0.0
H1061 H 0.13632 0.33222 0.27733 0.0
C1062 C 0.15739 0.35109 0.29118 0.0
C1063 C 0.17245 0.36494 0.2885 0.0
C1064 C 0.1506 0.34465 0.21923 0.0
C1065 C 0.15307 0.34902 0.25588 0.0
C1066 C 0.14287 0.3347 0.20303 0.0
C1067 C 0.12864 0.32001 0.20568 0.0
C1068 C 0.14412 0.33981 0.23825 0.0
C1069 C 0.12214 0.31601 0.22487 0.0
C1070 C 0.14766 0.34314 0.27494 0.0
C1071 C 0.17698 0.37088 0.26925 0.0
N1072 N 0.13002 0.32577 0.24042 0.0
N1073 N 0.16743 0.3628 0.25369 0.0
H1074 H 0.11552 0.68792 0.76664 0.0
H1075 H 0.19389 0.60852 0.72958 0.0
H1076 H 0.15094 0.65252 0.80564 0.0
H1077 H 0.16207 0.64738 0.69078 0.0
H1078 H 0.17566 0.62193 0.75741 0.0
H1079 H 0.12979 0.6707 0.7386 0.0
C1080 C 0.12621 0.67643 0.76934 0.0
C1081 C 0.13217 0.67177 0.78854 0.0
C1082 C 0.17257 0.62745 0.7428 0.0
C1083 C 0.1486 0.65202 0.75643 0.0
C1084 C 0.18296 0.61978 0.72688 0.0
C1085 C 0.17962 0.62696 0.70781 0.0
C1086 C 0.15872 0.64242 0.73968 0.0
C1087 C 0.16521 0.64149 0.70522 0.0
C1088 C 0.13436 0.66661 0.75329 0.0
C1089 C 0.14599 0.65668 0.7911 0.0
N1090 N 0.15538 0.64882 0.72099 0.0
N1091 N 0.15382 0.64742 0.77522 0.0
H1092 H 0.78095 0.67037 0.29033 0.0
H1093 H 0.87221 0.666 0.21609 0.0
H1094 H 0.8242 0.62394 0.29145 0.0
H1095 H 0.82639 0.70986 0.21399 0.0
H1096 H 0.85557 0.6506 0.24409 0.0
H1097 H 0.79839 0.68553 0.26302 0.0
C1098 C 0.79419 0.66339 0.28489 0.0
C1099 C 0.8011 0.64583 0.29318 0.0
C1100 C 0.84917 0.66358 0.23745 0.0
C1101 C 0.82115 0.66311 0.26172 0.0
C1102 C 0.85863 0.67235 0.22146 0.0
C1103 C 0.85067 0.68924 0.21267 0.0
C1104 C 0.83167 0.6718 0.24472 0.0
C1105 C 0.83307 0.69686 0.22026 0.0
C1106 C 0.80413 0.67205 0.26923 0.0
C1107 C 0.81835 0.63748 0.2855 0.0
N1108 N 0.82421 0.68811 0.23584 0.0
N1109 N 0.82778 0.64618 0.27015 0.0
H1110 H 0.88721 0.3103 0.76756 0.0
H1111 H 0.8094 0.39067 0.73164 0.0
H1112 H 0.85041 0.34385 0.80694 0.0
H1113 H 0.84135 0.35248 0.69225 0.0
H1114 H 0.8275 0.37677 0.75928 0.0
H1115 H 0.87377 0.32868 0.73987 0.0
C1116 C 0.87642 0.32165 0.77042 0.0
C1117 C 0.86978 0.32541 0.78961 0.0
C1118 C 0.83066 0.37152 0.74459 0.0
C1119 C 0.85429 0.34648 0.7579 0.0
C1120 C 0.82034 0.37947 0.72876 0.0
C1121 C 0.82372 0.37259 0.70959 0.0
C1122 C 0.84447 0.35656 0.74126 0.0
C1123 C 0.83816 0.35813 0.70678 0.0
C1124 C 0.86873 0.33212 0.75457 0.0
C1125 C 0.85585 0.34035 0.7924 0.0
N1126 N 0.84791 0.3505 0.72247 0.0
N1127 N 0.84847 0.35026 0.77669 0.0
H1128 H 0.2845 0.21677 0.31857 0.0
H1129 H 0.20985 0.12572 0.3207 0.0
H1130 H 0.28395 0.17326 0.36477 0.0
H1131 H 0.21115 0.16962 0.27488 0.0
H1132 H 0.23693 0.14274 0.33719 0.0
H1133 H 0.25778 0.19932 0.30228 0.0
C1134 C 0.27881 0.20349 0.32527 0.0
C1135 C 0.28648 0.19648 0.34307 0.0
C1136 C 0.23126 0.14865 0.32354 0.0
C1137 C 0.25574 0.17643 0.32452 0.0
C1138 C 0.21578 0.13896 0.31414 0.0
C1139 C 0.20821 0.14626 0.29639 0.0
C1140 C 0.23923 0.16574 0.31511 0.0
C1141 C 0.21649 0.16345 0.28854 0.0
C1142 C 0.26351 0.19354 0.31596 0.0
C1143 C 0.2785 0.17919 0.35105 0.0
N1144 N 0.23154 0.17258 0.29794 0.0
N1145 N 0.26353 0.16977 0.34173 0.0
H1146 H 0.28786 0.78138 0.85013 0.0
H1147 H 0.38274 0.71568 0.82842 0.0
H1148 H 0.34622 0.79819 0.86867 0.0
H1149 H 0.32657 0.70722 0.80009 0.0
H1150 H 0.36936 0.7444 0.84551 0.0
H1151 H 0.30162 0.75275 0.83371 0.0
C1152 C 0.30361 0.77908 0.85072 0.0
C1153 C 0.31592 0.79224 0.86079 0.0
C1154 C 0.35999 0.73623 0.83556 0.0
C1155 C 0.33178 0.75929 0.84204 0.0
C1156 C 0.36757 0.71978 0.82589 0.0
C1157 C 0.35574 0.70904 0.8128 0.0
C1158 C 0.34041 0.74186 0.83224 0.0
C1159 C 0.33623 0.71508 0.81001 0.0
C1160 C 0.31146 0.7627 0.8413 0.0
C1161 C 0.33621 0.78847 0.86101 0.0
N1162 N 0.32918 0.73105 0.81966 0.0
N1163 N 0.34352 0.77227 0.85183 0.0
H1164 H 0.688 0.83628 0.346 0.0
H1165 H 0.80515 0.84343 0.33718 0.0
H1166 H 0.72811 0.80334 0.38254 0.0
H1167 H 0.76503 0.8792 0.30342 0.0
H1168 H 0.77713 0.8292 0.35461 0.0
H1169 H 0.71606 0.85285 0.33086 0.0
C1170 C 0.70269 0.83259 0.35091 0.0
C1171 C 0.7057 0.81834 0.3655 0.0
C1172 C 0.77447 0.84023 0.34345 0.0
C1173 C 0.7379 0.83719 0.34818 0.0
C1174 C 0.79047 0.84836 0.33349 0.0
C1175 C 0.78744 0.86247 0.31876 0.0
C1176 C 0.75529 0.8462 0.3386 0.0
C1177 C 0.76808 0.86832 0.31463 0.0
C1178 C 0.71871 0.84207 0.34226 0.0
C1179 C 0.72507 0.8142 0.3713 0.0
N1180 N 0.75275 0.8601 0.32443 0.0
N1181 N 0.74043 0.8235 0.36256 0.0
H1182 H 0.65769 0.1926 0.85466 0.0
H1183 H 0.63968 0.30896 0.85751 0.0
H1184 H 0.68725 0.2312 0.89552 0.0
H1185 H 0.62322 0.27111 0.80927 0.0
H1186 H 0.65247 0.2801 0.8751 0.0
H1187 H 0.63984 0.22081 0.84156 0.0
C1188 C 0.66029 0.20697 0.86101 0.0
C1189 C 0.67416 0.20957 0.87604 0.0
C1190 C 0.64593 0.27818 0.86071 0.0
C1191 C 0.65383 0.24195 0.86105 0.0
C1192 C 0.63862 0.2946 0.85071 0.0
C1193 C 0.63059 0.29244 0.83183 0.0
C1194 C 0.64495 0.25954 0.85181 0.0
C1195 C 0.62953 0.2735 0.82369 0.0
C1196 C 0.65014 0.22309 0.85348 0.0
C1197 C 0.67683 0.22855 0.88378 0.0
N1198 N 0.63665 0.25783 0.8337 0.0
N1199 N 0.66685 0.24406 0.8761 0.0
H1200 H 0.26513 0.80515 0.61968 0.0
H1201 H 0.22903 0.88721 0.69583 0.0
H1202 H 0.30456 0.83907 0.65611 0.0
H1203 H 0.18963 0.84957 0.66324 0.0
H1204 H 0.25689 0.87167 0.67942 0.0
H1205 H 0.2374 0.82318 0.63351 0.0
C1206 C 0.26798 0.81645 0.63054 0.0
C1207 C 0.28722 0.82053 0.63682 0.0
C1208 C 0.24216 0.86686 0.6758 0.0
C1209 C 0.25546 0.84123 0.65274 0.0
C1210 C 0.22622 0.87575 0.68514 0.0
C1211 C 0.20695 0.86961 0.68098 0.0
C1212 C 0.23884 0.85172 0.66216 0.0
C1213 C 0.20422 0.85471 0.66696 0.0
C1214 C 0.25211 0.82673 0.63844 0.0
C1215 C 0.28999 0.83538 0.65088 0.0
N1216 N 0.22 0.84624 0.65811 0.0
N1217 N 0.27427 0.84515 0.65842 0.0
H1218 H 0.70725 0.77844 0.16818 0.0
H1219 H 0.62715 0.69517 0.14556 0.0
H1220 H 0.67737 0.77353 0.1124 0.0
H1221 H 0.65054 0.70745 0.2033 0.0
H1222 H 0.64674 0.72242 0.13237 0.0
H1223 H 0.68773 0.7511 0.18064 0.0
C1224 C 0.69655 0.77164 0.15855 0.0
C1225 C 0.69392 0.7783 0.13923 0.0
C1226 C 0.64755 0.71911 0.14792 0.0
C1227 C 0.67154 0.74685 0.15338 0.0
C1228 C 0.63644 0.70353 0.15544 0.0
C1229 C 0.63719 0.69903 0.17556 0.0
C1230 C 0.65957 0.73014 0.16062 0.0
C1231 C 0.64944 0.71039 0.1877 0.0
C1232 C 0.68538 0.75601 0.16568 0.0
C1233 C 0.67982 0.7689 0.12742 0.0
N1234 N 0.66013 0.72537 0.18003 0.0
N1235 N 0.66919 0.7536 0.13467 0.0
H1236 H 0.80567 0.13148 0.64805 0.0
H1237 H 0.69318 0.16572 0.64732 0.0
H1238 H 0.76755 0.12911 0.69875 0.0
H1239 H 0.73528 0.1853 0.60402 0.0
H1240 H 0.7192 0.1472 0.66367 0.0
H1241 H 0.77892 0.14673 0.62924 0.0
C1242 C 0.79169 0.13412 0.65519 0.0
C1243 C 0.78886 0.12915 0.67502 0.0
C1244 C 0.72271 0.15547 0.65053 0.0
C1245 C 0.75827 0.1463 0.6536 0.0
C1246 C 0.70785 0.16597 0.64112 0.0
C1247 C 0.71209 0.1772 0.62436 0.0
C1248 C 0.74194 0.15606 0.64305 0.0
C1249 C 0.73139 0.17694 0.61699 0.0
C1250 C 0.77647 0.14282 0.64448 0.0
C1251 C 0.77044 0.13286 0.68355 0.0
N1252 N 0.74564 0.16659 0.62642 0.0
N1253 N 0.75586 0.14116 0.67279 0.0
H1254 H 0.28744 0.20504 0.17354 0.0
H1255 H 0.37383 0.28492 0.16866 0.0
H1256 H 0.32825 0.20881 0.12506 0.0
H1257 H 0.33027 0.28198 0.21473 0.0
H1258 H 0.35813 0.25671 0.15263 0.0
H1259 H 0.30396 0.23263 0.1892 0.0
C1260 C 0.29995 0.21162 0.1662 0.0
C1261 C 0.30644 0.20461 0.14793 0.0
C1262 C 0.35202 0.26228 0.16623 0.0
C1263 C 0.32546 0.2364 0.16581 0.0
C1264 C 0.36095 0.27839 0.17537 0.0
C1265 C 0.35334 0.28584 0.19306 0.0
C1266 C 0.33541 0.25356 0.17488 0.0
C1267 C 0.33665 0.27678 0.20111 0.0
C1268 C 0.30937 0.22744 0.17515 0.0
C1269 C 0.32275 0.21375 0.13916 0.0
N1270 N 0.32829 0.26113 0.19199 0.0
N1271 N 0.33169 0.22922 0.14817 0.0
H1272 H 0.78995 0.6462 0.71419 0.0
H1273 H 0.88617 0.67609 0.77477 0.0
H1274 H 0.84871 0.63554 0.69264 0.0
H1275 H 0.82757 0.6959 0.78894 0.0
H1276 H 0.87293 0.65878 0.74606 0.0
H1277 H 0.80374 0.66224 0.74301 0.0
C1278 C 0.80579 0.64727 0.71548 0.0
C1279 C 0.8182 0.63954 0.70091 0.0
C1280 C 0.863 0.6669 0.75549 0.0
C1281 C 0.83412 0.65791 0.73408 0.0
C1282 C 0.87052 0.6767 0.77192 0.0
C1283 C 0.85795 0.68749 0.78424 0.0
C1284 C 0.84276 0.66779 0.75149 0.0
C1285 C 0.83782 0.68784 0.77981 0.0
C1286 C 0.81366 0.65646 0.73198 0.0
C1287 C 0.8386 0.64135 0.70347 0.0
N1288 N 0.83087 0.67813 0.76383 0.0
N1289 N 0.84595 0.65033 0.71978 0.0
H1290 H 0.84841 0.34157 0.18832 0.0
H1291 H 0.84094 0.34767 0.30543 0.0
H1292 H 0.88408 0.30687 0.22772 0.0
H1293 H 0.80907 0.38594 0.26608 0.0
H1294 H 0.85846 0.33396 0.2772 0.0
H1295 H 0.83528 0.35941 0.21662 0.0
C1296 C 0.85359 0.33779 0.20289 0.0
C1297 C 0.86724 0.32259 0.20565 0.0
C1298 C 0.84774 0.34548 0.27476 0.0
C1299 C 0.85221 0.34287 0.23812 0.0
C1300 C 0.83774 0.35331 0.29089 0.0
C1301 C 0.82339 0.36785 0.28811 0.0
C1302 C 0.84327 0.35214 0.25572 0.0
C1303 C 0.81992 0.37466 0.26893 0.0
C1304 C 0.84609 0.34799 0.21906 0.0
C1305 C 0.87349 0.3184 0.22488 0.0
N1306 N 0.82966 0.36663 0.25346 0.0
N1307 N 0.86581 0.32837 0.24038 0.0
H1308 H 0.14691 0.34566 0.80757 0.0
H1309 H 0.15259 0.3408 0.69029 0.0
H1310 H 0.11303 0.30513 0.77234 0.0
H1311 H 0.18289 0.38425 0.7253 0.0
H1312 H 0.13615 0.32897 0.71999 0.0
H1313 H 0.15856 0.36143 0.77746 0.0
C1314 C 0.1418 0.34017 0.79352 0.0
C1315 C 0.12911 0.32395 0.79249 0.0
C1316 C 0.14628 0.3412 0.72114 0.0
C1317 C 0.14246 0.34185 0.75795 0.0
C1318 C 0.15565 0.34797 0.70417 0.0
C1319 C 0.16928 0.36341 0.70532 0.0
C1320 C 0.15063 0.34987 0.73939 0.0
C1321 C 0.17261 0.37221 0.72372 0.0
C1322 C 0.14846 0.34918 0.77632 0.0
C1323 C 0.1229 0.31752 0.77386 0.0
N1324 N 0.16349 0.3652 0.74003 0.0
N1325 N 0.12976 0.32638 0.75734 0.0
H1326 H 0.2061 0.66872 0.28846 0.0
H1327 H 0.12368 0.65001 0.20655 0.0
H1328 H 0.17393 0.61419 0.28369 0.0
H1329 H 0.14952 0.70669 0.21886 0.0
H1330 H 0.1432 0.63584 0.23334 0.0
H1331 H 0.18655 0.68219 0.26164 0.0
C1332 C 0.19488 0.65958 0.2818 0.0
C1333 C 0.19164 0.6403 0.28835 0.0
C1334 C 0.14456 0.65137 0.23013 0.0
C1335 C 0.16922 0.65563 0.25749 0.0
C1336 C 0.1335 0.65945 0.21481 0.0
C1337 C 0.13495 0.67957 0.21046 0.0
C1338 C 0.15725 0.66349 0.24106 0.0
C1339 C 0.14787 0.69112 0.22169 0.0
C1340 C 0.18371 0.66729 0.26647 0.0
C1341 C 0.17688 0.62916 0.27914 0.0
N1342 N 0.1585 0.68291 0.23642 0.0
N1343 N 0.16625 0.63697 0.26412 0.0
H1344 H 0.77915 0.85137 0.70699 0.0
H1345 H 0.71286 0.82963 0.61241 0.0
H1346 H 0.79503 0.87091 0.6487 0.0
H1347 H 0.70542 0.8007 0.66841 0.0
H1348 H 0.74119 0.8474 0.62582 0.0
H1349 H 0.7504 0.83503 0.69336 0.0
C1350 C 0.77662 0.85221 0.69128 0.0
C1351 C 0.78957 0.8625 0.67895 0.0
C1352 C 0.73331 0.83719 0.63515 0.0
C1353 C 0.75649 0.84383 0.66324 0.0
C1354 C 0.71708 0.82713 0.62756 0.0
C1355 C 0.70679 0.81364 0.63932 0.0
C1356 C 0.73914 0.83383 0.65467 0.0
C1357 C 0.71296 0.81091 0.6588 0.0
C1358 C 0.76017 0.84284 0.68351 0.0
C1359 C 0.78548 0.86307 0.65873 0.0
N1360 N 0.72871 0.82091 0.66585 0.0
N1361 N 0.76924 0.85389 0.65149 0.0
H1362 H 0.65966 0.31413 0.15996 0.0
H1363 H 0.66733 0.20082 0.13043 0.0
H1364 H 0.61424 0.27222 0.17442 0.0
H1365 H 0.71793 0.23687 0.14339 0.0
H1366 H 0.64591 0.22844 0.13948 0.0
H1367 H 0.67936 0.28736 0.1461 0.0
C1368 C 0.65369 0.29936 0.1599 0.0
C1369 C 0.63537 0.29533 0.16845 0.0
C1370 C 0.66171 0.23024 0.14026 0.0
C1371 C 0.65776 0.26478 0.15266 0.0
C1372 C 0.67391 0.21455 0.1351 0.0
C1373 C 0.6944 0.21655 0.13636 0.0
C1374 C 0.67011 0.24811 0.14628 0.0
C1375 C 0.7022 0.23465 0.14244 0.0
C1376 C 0.66499 0.28411 0.15214 0.0
C1377 C 0.62838 0.27591 0.16809 0.0
N1378 N 0.69004 0.24977 0.14711 0.0
N1379 N 0.63961 0.26131 0.16035 0.0
H1380 H 0.28179 0.17018 0.61949 0.0
H1381 H 0.21631 0.1702 0.71735 0.0
H1382 H 0.28703 0.21303 0.66605 0.0
H1383 H 0.21177 0.12534 0.67265 0.0
H1384 H 0.24217 0.18606 0.69835 0.0
H1385 H 0.25622 0.15334 0.63847 0.0
C1386 C 0.27764 0.17599 0.63372 0.0
C1387 C 0.28655 0.19305 0.64119 0.0
C1388 C 0.23554 0.17275 0.69266 0.0
C1389 C 0.25729 0.17395 0.66288 0.0
C1390 C 0.22072 0.16368 0.7035 0.0
C1391 C 0.21184 0.14641 0.69657 0.0
C1392 C 0.24157 0.16453 0.6747 0.0
C1393 C 0.21821 0.13865 0.67853 0.0
C1394 C 0.26302 0.1664 0.64453 0.0
C1395 C 0.28057 0.19995 0.65968 0.0
N1396 N 0.2327 0.14778 0.6682 0.0
N1397 N 0.2663 0.19041 0.66985 0.0
H1398 H 0.32558 0.7763 0.11424 0.0
H1399 H 0.35006 0.71225 0.20956 0.0
H1400 H 0.29398 0.78097 0.1691 0.0
H1401 H 0.37319 0.69849 0.15206 0.0
H1402 H 0.3309 0.73881 0.19517 0.0
H1403 H 0.34485 0.74925 0.12811 0.0
C1404 C 0.32275 0.77171 0.12922 0.0
C1405 C 0.30816 0.78091 0.14055 0.0
C1406 C 0.34009 0.72996 0.18566 0.0
C1407 C 0.33009 0.75 0.15644 0.0
C1408 C 0.35108 0.71478 0.19387 0.0
C1409 C 0.36327 0.70312 0.18199 0.0
C1410 C 0.34138 0.73368 0.16541 0.0
C1411 C 0.36394 0.70708 0.16175 0.0
C1412 C 0.33369 0.75621 0.13708 0.0
C1413 C 0.30506 0.77429 0.15983 0.0
N1414 N 0.3532 0.72212 0.15409 0.0
N1415 N 0.31596 0.75928 0.16716 0.0
H1416 H 0.71169 0.19753 0.32214 0.0
H1417 H 0.80052 0.12588 0.35084 0.0
H1418 H 0.71936 0.17397 0.38058 0.0
H1419 H 0.78593 0.14271 0.2914 0.0
H1420 H 0.77202 0.14459 0.36262 0.0
H1421 H 0.73995 0.1785 0.31112 0.0
C1422 C 0.71929 0.1883 0.33266 0.0
C1423 C 0.71314 0.18734 0.35231 0.0
C1424 C 0.77511 0.14415 0.34701 0.0
C1425 C 0.74567 0.16554 0.33979 0.0
C1426 C 0.7914 0.13354 0.34029 0.0
C1427 C 0.79563 0.13272 0.32011 0.0
C1428 C 0.76309 0.15407 0.33344 0.0
C1429 C 0.78326 0.14289 0.30709 0.0
C1430 C 0.73544 0.17741 0.32635 0.0
C1431 C 0.72357 0.1751 0.36527 0.0
N1432 N 0.76761 0.15313 0.31398 0.0
N1433 N 0.73939 0.16472 0.3588 0.0
H1434 H 0.29758 0.21044 0.82634 0.0
H1435 H 0.37759 0.29529 0.84242 0.0
H1436 H 0.32801 0.21917 0.88137 0.0
H1437 H 0.35195 0.28049 0.78625 0.0
H1438 H 0.35902 0.2683 0.85746 0.0
H1439 H 0.31698 0.2368 0.81182 0.0
C1440 C 0.3084 0.21786 0.83537 0.0
C1441 C 0.31117 0.21259 0.85511 0.0
C1442 C 0.35751 0.27098 0.84184 0.0
C1443 C 0.33342 0.24295 0.83856 0.0
C1444 C 0.36805 0.28641 0.83326 0.0
C1445 C 0.36632 0.29018 0.81305 0.0
C1446 C 0.34509 0.25934 0.83013 0.0
C1447 C 0.35378 0.27816 0.80189 0.0
C1448 C 0.3195 0.23294 0.82706 0.0
C1449 C 0.32543 0.22273 0.86607 0.0
N1450 N 0.34365 0.26334 0.81058 0.0
N1451 N 0.33599 0.2375 0.85767 0.0
H1452 H 0.30342 0.84859 0.37491 0.0
H1453 H 0.21654 0.82844 0.29811 0.0
H1454 H 0.286 0.79081 0.35515 0.0
H1455 H 0.22653 0.88514 0.32486 0.0
H1456 H 0.24329 0.81488 0.3177 0.0
H1457 H 0.27671 0.8628 0.35534 0.0
C1458 C 0.29404 0.8389 0.36643 0.0
C1459 C 0.29695 0.81848 0.36668 0.0
C1460 C 0.23963 0.83028 0.31934 0.0
C1461 C 0.26644 0.83461 0.34431 0.0
C1462 C 0.22434 0.83805 0.30814 0.0
C1463 C 0.21927 0.85795 0.30986 0.0
C1464 C 0.25005 0.84252 0.33231 0.0
C1465 C 0.22991 0.86969 0.32311 0.0
C1466 C 0.27877 0.84702 0.35532 0.0
C1467 C 0.28431 0.80663 0.35544 0.0
N1468 N 0.24486 0.86181 0.3338 0.0
N1469 N 0.26966 0.81487 0.34472 0.0
H1470 H 0.62593 0.69609 0.84602 0.0
H1471 H 0.70373 0.78243 0.82753 0.0
H1472 H 0.64838 0.7121 0.78883 0.0
H1473 H 0.67394 0.77411 0.88296 0.0
H1474 H 0.68479 0.75534 0.81368 0.0
H1475 H 0.64485 0.72315 0.8605 0.0
C1476 C 0.63488 0.70522 0.83653 0.0
C1477 C 0.63556 0.70183 0.81618 0.0
C1478 C 0.68233 0.75945 0.82886 0.0
C1479 C 0.65716 0.73275 0.83262 0.0
C1480 C 0.69315 0.77494 0.83679 0.0
C1481 C 0.6904 0.78056 0.85643 0.0
C1482 C 0.66871 0.74939 0.84068 0.0
C1483 C 0.67648 0.7703 0.86772 0.0
C1484 C 0.64561 0.7207 0.84479 0.0
C1485 C 0.64736 0.71417 0.80458 0.0
N1486 N 0.66619 0.75514 0.8597 0.0
N1487 N 0.65769 0.72903 0.81296 0.0
H1488 H 0.08774 0.23996 0.24074 0.0
H1489 H 0.11231 0.12705 0.2202 0.0
H1490 H 0.08773 0.2133 0.18312 0.0
H1491 H 0.12284 0.15625 0.27558 0.0
H1492 H 0.09566 0.15654 0.20827 0.0
H1493 H 0.09292 0.20752 0.2553 0.0
C1494 C 0.08847 0.22726 0.23116 0.0
C1495 C 0.08764 0.2294 0.21065 0.0
C1496 C 0.10138 0.15639 0.22313 0.0
C1497 C 0.09366 0.19227 0.22722 0.0
C1498 C 0.11085 0.13953 0.22998 0.0
C1499 C 0.1193 0.1393 0.2488 0.0
C1500 C 0.10035 0.17313 0.23519 0.0
C1501 C 0.1168 0.15587 0.26086 0.0
C1502 C 0.0915 0.20875 0.23949 0.0
C1503 C 0.08857 0.21239 0.19899 0.0
N1504 N 0.10775 0.1722 0.25377 0.0
N1505 N 0.09176 0.19458 0.20742 0.0
H1506 H 0.37358 0.61208 0.73389 0.0
H1507 H 0.25869 0.59 0.74492 0.0
H1508 H 0.34041 0.62438 0.7866 0.0
H1509 H 0.28899 0.59419 0.6893 0.0
H1510 H 0.29002 0.59491 0.76191 0.0
H1511 H 0.34424 0.59745 0.71928 0.0
C1512 C 0.36024 0.6114 0.74255 0.0
C1513 C 0.35938 0.61977 0.7614 0.0
C1514 C 0.28981 0.59453 0.746 0.0
C1515 C 0.32573 0.60313 0.74467 0.0
C1516 C 0.27196 0.59168 0.73627 0.0
C1517 C 0.27119 0.59194 0.71565 0.0
C1518 C 0.30703 0.59748 0.73502 0.0
C1519 C 0.28886 0.59413 0.70522 0.0
C1520 C 0.34347 0.60312 0.73414 0.0
C1521 C 0.34169 0.61831 0.77195 0.0
N1522 N 0.30604 0.59693 0.71502 0.0
N1523 N 0.32549 0.61036 0.76335 0.0
H1524 H 0.86749 0.84252 0.27315 0.0
H1525 H 0.8799 0.77266 0.17957 0.0
H1526 H 0.82827 0.84166 0.2233 0.0
H1527 H 0.90083 0.75525 0.23694 0.0
H1528 H 0.86784 0.80326 0.19365 0.0
H1529 H 0.88605 0.8151 0.25835 0.0
C1530 C 0.86291 0.83667 0.25907 0.0
C1531 C 0.84626 0.84419 0.24949 0.0
C1532 C 0.87523 0.79282 0.20312 0.0
C1533 C 0.86743 0.81339 0.23247 0.0
C1534 C 0.88221 0.77535 0.1951 0.0
C1535 C 0.89113 0.7612 0.20716 0.0
C1536 C 0.87726 0.7963 0.22335 0.0
C1537 C 0.89384 0.76567 0.22715 0.0
C1538 C 0.87343 0.82107 0.25069 0.0
C1539 C 0.84089 0.83614 0.23129 0.0
N1540 N 0.88677 0.78281 0.2347 0.0
N1541 N 0.85146 0.82125 0.22337 0.0
H1542 H 0.63804 0.37617 0.75337 0.0
H1543 H 0.75016 0.41086 0.749 0.0
H1544 H 0.6805 0.36364 0.79884 0.0
H1545 H 0.71405 0.40152 0.69765 0.0
H1546 H 0.72197 0.40277 0.76983 0.0
H1547 H 0.66309 0.39495 0.73569 0.0
C1548 C 0.65248 0.37775 0.75989 0.0
C1549 C 0.65729 0.36806 0.77748 0.0
C1550 C 0.72018 0.40278 0.754 0.0
C1551 C 0.68594 0.38949 0.75728 0.0
C1552 C 0.73622 0.40745 0.74209 0.0
C1553 C 0.73451 0.4066 0.72154 0.0
C1554 C 0.70225 0.39747 0.7453 0.0
C1555 C 0.71608 0.40211 0.71342 0.0
C1556 C 0.66678 0.38837 0.74971 0.0
C1557 C 0.67624 0.37066 0.7852 0.0
N1558 N 0.70068 0.39758 0.72533 0.0
N1559 N 0.68995 0.38097 0.77496 0.0
H1560 H 0.09446 0.7603 0.75631 0.0
H1561 H 0.16386 0.85087 0.77639 0.0
H1562 H 0.1122 0.77845 0.81452 0.0
H1563 H 0.12789 0.84878 0.72419 0.0
H1564 H 0.14554 0.82326 0.78982 0.0
H1565 H 0.10636 0.79184 0.7434 0.0
C1566 C 0.10057 0.77099 0.76641 0.0
C1567 C 0.1026 0.76659 0.78649 0.0
C1568 C 0.14148 0.8289 0.7755 0.0
C1569 C 0.11637 0.80243 0.77181 0.0
C1570 C 0.15203 0.84459 0.76776 0.0
C1571 C 0.14743 0.85201 0.74911 0.0
C1572 C 0.12643 0.82023 0.76437 0.0
C1573 C 0.13185 0.84344 0.73864 0.0
C1574 C 0.10732 0.78897 0.75903 0.0
C1575 C 0.11053 0.78104 0.79891 0.0
N1576 N 0.12202 0.82775 0.74631 0.0
N1577 N 0.11737 0.79816 0.79132 0.0
H1578 H 0.63734 0.61753 0.25395 0.0
H1579 H 0.7517 0.59179 0.26151 0.0
H1580 H 0.67805 0.62395 0.20565 0.0
H1581 H 0.71407 0.60194 0.3116 0.0
H1582 H 0.72326 0.59567 0.23984 0.0
H1583 H 0.66369 0.60348 0.27382 0.0
C1584 C 0.65171 0.61565 0.24736 0.0
C1585 C 0.65556 0.62227 0.22818 0.0
C1586 C 0.72121 0.59682 0.25559 0.0
C1587 C 0.68581 0.60628 0.25096 0.0
C1588 C 0.73742 0.59456 0.26798 0.0
C1589 C 0.73529 0.59679 0.28839 0.0
C1590 C 0.70273 0.60116 0.26368 0.0
C1591 C 0.71643 0.60033 0.29595 0.0
C1592 C 0.66678 0.60771 0.25878 0.0
C1593 C 0.67447 0.61929 0.22044 0.0
N1594 N 0.7009 0.60253 0.28358 0.0
N1595 N 0.68896 0.61173 0.23194 0.0
H1596 H 0.89699 0.21532 0.80639 0.0
H1597 H 0.86693 0.16957 0.70314 0.0
H1598 H 0.90467 0.24582 0.75127 0.0
H1599 H 0.86609 0.13718 0.75772 0.0
H1600 H 0.88433 0.19628 0.71975 0.0
H1601 H 0.88916 0.18536 0.78831 0.0
C1602 C 0.89725 0.21567 0.79047 0.0
C1603 C 0.90123 0.23318 0.78033 0.0
C1604 C 0.88058 0.18321 0.72802 0.0
C1605 C 0.89209 0.19892 0.75949 0.0
C1606 C 0.87065 0.16793 0.71853 0.0
C1607 C 0.86475 0.15123 0.72912 0.0
C1608 C 0.88449 0.18183 0.74826 0.0
C1609 C 0.87012 0.14987 0.74901 0.0
C1610 C 0.89279 0.19853 0.78013 0.0
C1611 C 0.90154 0.23269 0.75969 0.0
N1612 N 0.87943 0.16508 0.75798 0.0
N1613 N 0.89674 0.21591 0.74995 0.0
H1614 H 0.33805 0.37086 0.21377 0.0
H1615 H 0.28081 0.40105 0.31069 0.0
H1616 H 0.36664 0.3811 0.26951 0.0
H1617 H 0.2541 0.40159 0.25312 0.0
H1618 H 0.31293 0.39665 0.29535 0.0
H1619 H 0.30789 0.38511 0.22707 0.0
C1620 C 0.33809 0.37638 0.22871 0.0
C1621 C 0.35482 0.37451 0.24064 0.0
C1622 C 0.30009 0.39798 0.28604 0.0
C1623 C 0.32028 0.39062 0.25603 0.0
C1624 C 0.28172 0.40045 0.2948 0.0
C1625 C 0.26471 0.40144 0.28318 0.0
C1626 C 0.30146 0.39622 0.26551 0.0
C1627 C 0.26681 0.40076 0.26266 0.0
C1628 C 0.32085 0.38452 0.2363 0.0
C1629 C 0.35405 0.38206 0.25983 0.0
N1630 N 0.28482 0.39791 0.25448 0.0
N1631 N 0.33697 0.3895 0.26702 0.0
H1632 H 0.22799 0.11083 0.12719 0.0
H1633 H 0.23671 0.0931 0.24302 0.0
H1634 H 0.28084 0.12199 0.16056 0.0
H1635 H 0.18173 0.0975 0.21163 0.0
H1636 H 0.25433 0.09596 0.21178 0.0
H1637 H 0.21248 0.09779 0.15681 0.0
C1638 C 0.23649 0.1102 0.14064 0.0
C1639 C 0.25565 0.11783 0.14145 0.0
C1640 C 0.2384 0.09607 0.21174 0.0
C1641 C 0.23789 0.10303 0.17544 0.0
C1642 C 0.22833 0.09439 0.22955 0.0
C1643 C 0.20771 0.09531 0.22995 0.0
C1644 C 0.22778 0.09852 0.19421 0.0
C1645 C 0.19763 0.09695 0.21203 0.0
C1646 C 0.22756 0.10284 0.15758 0.0
C1647 C 0.26595 0.11648 0.1593 0.0
N1648 N 0.20777 0.09863 0.1949 0.0
N1649 N 0.25686 0.10946 0.17565 0.0
H1650 H 0.32272 0.7276 0.66151 0.0
H1651 H 0.40461 0.73377 0.74315 0.0
H1652 H 0.36841 0.77145 0.65724 0.0
H1653 H 0.37629 0.67948 0.72627 0.0
H1654 H 0.391 0.74946 0.71358 0.0
H1655 H 0.34093 0.71155 0.68774 0.0
C1656 C 0.3366 0.7339 0.66615 0.0
C1657 C 0.34405 0.75092 0.65725 0.0
C1658 C 0.38806 0.73405 0.7163 0.0
C1659 C 0.36499 0.73258 0.68739 0.0
C1660 C 0.39578 0.72509 0.73314 0.0
C1661 C 0.3914 0.70534 0.73732 0.0
C1662 C 0.37567 0.72322 0.70384 0.0
C1663 C 0.37994 0.69478 0.72379 0.0
C1664 C 0.34706 0.72463 0.68103 0.0
C1665 C 0.3622 0.75831 0.66374 0.0
N1666 N 0.37226 0.70392 0.70785 0.0
N1667 N 0.37202 0.74919 0.67864 0.0
H1668 H 0.80946 0.90641 0.21328 0.0
H1669 H 0.71797 0.86239 0.15594 0.0
H1670 H 0.75189 0.8998 0.23918 0.0
H1671 H 0.77332 0.87635 0.1282 0.0
H1672 H 0.72878 0.8798 0.18542 0.0
H1673 H 0.79536 0.89948 0.18104 0.0
C1674 C 0.79379 0.90381 0.21216 0.0
C1675 C 0.78189 0.90339 0.22901 0.0
C1676 C 0.73846 0.87931 0.17279 0.0
C1677 C 0.76568 0.89516 0.19213 0.0
C1678 C 0.7323 0.86934 0.15594 0.0
C1679 C 0.74488 0.86764 0.13968 0.0
C1680 C 0.75743 0.88746 0.17346 0.0
C1681 C 0.76321 0.8771 0.14046 0.0
C1682 C 0.78574 0.89983 0.19372 0.0
C1683 C 0.76166 0.9001 0.22662 0.0
N1684 N 0.76904 0.88635 0.15718 0.0
N1685 N 0.75424 0.8958 0.20857 0.0
H1686 H 0.58695 0.28274 0.71461 0.0
H1687 H 0.68842 0.24706 0.66704 0.0
H1688 H 0.64469 0.29809 0.73614 0.0
H1689 H 0.63309 0.24149 0.6364 0.0
H1690 H 0.6714 0.26228 0.69445 0.0
H1691 H 0.60248 0.26469 0.68739 0.0
C1692 C 0.60283 0.28234 0.71362 0.0
C1693 C 0.61452 0.29198 0.72766 0.0
C1694 C 0.66291 0.25772 0.68178 0.0
C1695 C 0.63227 0.27131 0.69684 0.0
C1696 C 0.67263 0.24895 0.6661 0.0
C1697 C 0.66219 0.24314 0.6493 0.0
C1698 C 0.64252 0.26076 0.68077 0.0
C1699 C 0.64171 0.24584 0.64905 0.0
C1700 C 0.61166 0.27205 0.69812 0.0
C1701 C 0.63503 0.29097 0.72568 0.0
N1702 N 0.63251 0.25457 0.66455 0.0
N1703 N 0.64319 0.28081 0.71063 0.0
H1704 H 0.18269 0.91545 0.78475 0.0
H1705 H 0.2761 0.87579 0.84175 0.0
H1706 H 0.24073 0.91262 0.75923 0.0
H1707 H 0.21944 0.88461 0.86896 0.0
H1708 H 0.26476 0.89407 0.81304 0.0
H1709 H 0.19697 0.90922 0.81704 0.0
C1710 C 0.19849 0.91385 0.78597 0.0
C1711 C 0.21049 0.91421 0.76919 0.0
C1712 C 0.25489 0.89229 0.82541 0.0
C1713 C 0.22693 0.9068 0.80614 0.0
C1714 C 0.26137 0.88183 0.84183 0.0
C1715 C 0.24858 0.87835 0.85764 0.0
C1716 C 0.23542 0.89912 0.8247 0.0
C1717 C 0.22974 0.88673 0.85701 0.0
C1718 C 0.20664 0.91028 0.80444 0.0
C1719 C 0.23088 0.91225 0.77172 0.0
N1720 N 0.22362 0.89644 0.84066 0.0
N1721 N 0.23842 0.90828 0.78979 0.0
H1722 H 0.60823 0.67553 0.28183 0.0
H1723 H 0.62951 0.77326 0.34354 0.0
H1724 H 0.60066 0.73342 0.25688 0.0
H1725 H 0.65793 0.7174 0.35321 0.0
H1726 H 0.61102 0.75851 0.31605 0.0
H1727 H 0.61782 0.69058 0.31289 0.0
C1728 C 0.60828 0.69142 0.28294 0.0
C1729 C 0.604 0.70324 0.26659 0.0
C1730 C 0.62118 0.74952 0.32439 0.0
C1731 C 0.61503 0.72052 0.30215 0.0
C1732 C 0.63165 0.75788 0.34003 0.0
C1733 C 0.64538 0.74654 0.35044 0.0
C1734 C 0.62423 0.72967 0.31957 0.0
C1735 C 0.64768 0.72671 0.34537 0.0
C1736 C 0.61382 0.69998 0.30068 0.0
C1737 C 0.6041 0.72376 0.26904 0.0
N1738 N 0.63722 0.71891 0.33031 0.0
N1739 N 0.60978 0.73179 0.28646 0.0
H1740 H 0.74923 0.10798 0.75878 0.0
H1741 H 0.76841 0.11907 0.8742 0.0
H1742 H 0.80495 0.0965 0.78691 0.0
H1743 H 0.71685 0.14141 0.8447 0.0
H1744 H 0.77916 0.10421 0.84335 0.0
H1745 H 0.73457 0.11379 0.7911 0.0
C1746 C 0.75833 0.1064 0.77175 0.0
C1747 C 0.77843 0.10202 0.77012 0.0
C1748 C 0.76538 0.11218 0.84368 0.0
C1749 C 0.76174 0.10868 0.80711 0.0
C1750 C 0.75919 0.12062 0.86131 0.0
C1751 C 0.74184 0.13176 0.86198 0.0
C1752 C 0.75414 0.11485 0.82658 0.0
C1753 C 0.73044 0.13314 0.84482 0.0
C1754 C 0.74995 0.10978 0.79019 0.0
C1755 C 0.78946 0.10009 0.78745 0.0
N1756 N 0.73689 0.12497 0.82777 0.0
N1757 N 0.78101 0.10359 0.8052 0.0
H1758 H 0.40344 0.26114 0.25085 0.0
H1759 H 0.37713 0.27722 0.36425 0.0
H1760 H 0.39725 0.31801 0.27836 0.0
H1761 H 0.37024 0.22187 0.33393 0.0
H1762 H 0.39212 0.29109 0.33473 0.0
H1763 H 0.39866 0.24556 0.28292 0.0
C1764 C 0.40137 0.27036 0.26367 0.0
C1765 C 0.40048 0.2909 0.26189 0.0
C1766 C 0.38756 0.27583 0.33463 0.0
C1767 C 0.395 0.27317 0.29857 0.0
C1768 C 0.37906 0.26786 0.35151 0.0
C1769 C 0.37211 0.24843 0.35147 0.0
C1770 C 0.38916 0.26429 0.31759 0.0
C1771 C 0.37516 0.23699 0.33455 0.0
C1772 C 0.39859 0.26145 0.28195 0.0
C1773 C 0.3978 0.30211 0.27901 0.0
N1774 N 0.38325 0.24516 0.31821 0.0
N1775 N 0.39501 0.2931 0.2966 0.0
H1776 H 0.22195 0.17613 0.122 0.0
H1777 H 0.15296 0.27072 0.12697 0.0
H1778 H 0.24007 0.23117 0.096 0.0
H1779 H 0.15514 0.22563 0.17155 0.0
H1780 H 0.18051 0.25444 0.10991 0.0
H1781 H 0.19219 0.19197 0.13398 0.0
C1782 C 0.21958 0.1915 0.11857 0.0
C1783 C 0.23368 0.2024 0.10818 0.0
C1784 C 0.17484 0.24819 0.12341 0.0
C1785 C 0.19955 0.2206 0.12194 0.0
C1786 C 0.15918 0.2574 0.13309 0.0
C1787 C 0.1519 0.24955 0.15074 0.0
C1788 C 0.18281 0.23084 0.13125 0.0
C1789 C 0.16042 0.2323 0.1581 0.0
C1790 C 0.20262 0.20054 0.12552 0.0
C1791 C 0.22967 0.22226 0.10412 0.0
N1792 N 0.17533 0.22348 0.14827 0.0
N1793 N 0.21297 0.23081 0.11111 0.0
H1794 H 0.20857 0.81459 0.89599 0.0
H1795 H 0.15823 0.71507 0.86259 0.0
H1796 H 0.23912 0.75897 0.89578 0.0
H1797 H 0.12535 0.76736 0.8772 0.0
H1798 H 0.18761 0.73009 0.87687 0.0
H1799 H 0.17756 0.79712 0.89113 0.0
C1800 C 0.20873 0.79869 0.89514 0.0
C1801 C 0.22649 0.78825 0.89607 0.0
C1802 C 0.17389 0.73815 0.87723 0.0
C1803 C 0.19108 0.76815 0.89031 0.0
C1804 C 0.15711 0.72957 0.86909 0.0
C1805 C 0.13936 0.74007 0.86846 0.0
C1806 C 0.17297 0.75745 0.88455 0.0
C1807 C 0.13875 0.75877 0.8772 0.0
C1808 C 0.19102 0.78871 0.89241 0.0
C1809 C 0.2258 0.76764 0.89502 0.0
N1810 N 0.15538 0.76698 0.8846 0.0
N1811 N 0.20842 0.75828 0.89191 0.0
H1812 H 0.74099 0.74129 0.41168 0.0
H1813 H 0.71972 0.62873 0.38631 0.0
H1814 H 0.6833 0.71481 0.41246 0.0
H1815 H 0.77553 0.65747 0.37683 0.0
H1816 H 0.70791 0.65814 0.40321 0.0
H1817 H 0.75538 0.70879 0.40642 0.0
C1818 C 0.73136 0.72861 0.41112 0.0
C1819 C 0.71087 0.73083 0.41216 0.0
C1820 C 0.72283 0.6579 0.39766 0.0
C1821 C 0.72724 0.69363 0.40599 0.0
C1822 C 0.72961 0.6411 0.38804 0.0
C1823 C 0.74853 0.64076 0.37983 0.0
C1824 C 0.73506 0.67449 0.39909 0.0
C1825 C 0.76073 0.65717 0.38268 0.0
C1826 C 0.73959 0.71007 0.40804 0.0
C1827 C 0.69915 0.71384 0.41146 0.0
N1828 N 0.7537 0.67346 0.39186 0.0
N1829 N 0.70748 0.696 0.40816 0.0
H1830 H 0.78513 0.18854 0.90386 0.0
H1831 H 0.84158 0.28135 0.86078 0.0
H1832 H 0.75863 0.24597 0.89867 0.0
H1833 H 0.87022 0.22665 0.87545 0.0
H1834 H 0.81172 0.26958 0.87694 0.0
H1835 H 0.817 0.20294 0.89584 0.0
C1836 C 0.78604 0.20422 0.90124 0.0
C1837 C 0.76914 0.21603 0.90173 0.0
C1838 C 0.82462 0.26025 0.87684 0.0
C1839 C 0.80559 0.2326 0.89235 0.0
C1840 C 0.84168 0.26697 0.86761 0.0
C1841 C 0.85836 0.25487 0.86655 0.0
C1842 C 0.82417 0.24124 0.8849 0.0
C1843 C 0.85767 0.23642 0.87577 0.0
C1844 C 0.80427 0.21245 0.89668 0.0
C1845 C 0.77125 0.23628 0.89835 0.0
N1846 N 0.84078 0.23008 0.88433 0.0
N1847 N 0.78909 0.24389 0.89355 0.0
H1848 H 0.25545 0.25286 0.39005 0.0
H1849 H 0.26967 0.36866 0.37564 0.0
H1850 H 0.31152 0.2825 0.39271 0.0
H1851 H 0.21711 0.33731 0.35872 0.0
H1852 H 0.283 0.33823 0.3892 0.0
H1853 H 0.2393 0.28469 0.38561 0.0
C1854 C 0.26434 0.26607 0.38998 0.0
C1855 C 0.28489 0.26501 0.39151 0.0
C1856 C 0.26845 0.33807 0.38272 0.0
C1857 C 0.2665 0.30141 0.38647 0.0
C1858 C 0.26078 0.35546 0.37503 0.0
C1859 C 0.24235 0.35548 0.36576 0.0
C1860 C 0.2576 0.32058 0.38118 0.0
C1861 C 0.23148 0.33793 0.36553 0.0
C1862 C 0.25511 0.28422 0.38739 0.0
C1863 C 0.29566 0.28261 0.39136 0.0
N1864 N 0.23935 0.32113 0.37295 0.0
N1865 N 0.28635 0.30007 0.38874 0.0
H1866 H 0.78601 0.80767 0.09799 0.0
H1867 H 0.84013 0.70877 0.12709 0.0
H1868 H 0.7576 0.75095 0.09581 0.0
H1869 H 0.8706 0.7635 0.11678 0.0
H1870 H 0.81043 0.72308 0.11282 0.0
H1871 H 0.81762 0.79127 0.10236 0.0
C1872 C 0.78645 0.79175 0.09824 0.0
C1873 C 0.76911 0.78067 0.09675 0.0
C1874 C 0.8237 0.73185 0.11338 0.0
C1875 C 0.80526 0.76177 0.10192 0.0
C1876 C 0.84069 0.72367 0.1215 0.0
C1877 C 0.85781 0.73504 0.12342 0.0
C1878 C 0.82378 0.7516 0.10735 0.0
C1879 C 0.8577 0.75423 0.11581 0.0
C1880 C 0.80452 0.78238 0.10068 0.0
C1881 C 0.77059 0.76008 0.09701 0.0
N1882 N 0.84086 0.762 0.10841 0.0
N1883 N 0.78832 0.7513 0.09983 0.0
H1884 H 0.72886 0.37376 0.61907 0.0
H1885 H 0.75405 0.26035 0.60175 0.0
H1886 H 0.78178 0.34559 0.63991 0.0
H1887 H 0.69827 0.28691 0.58718 0.0
H1888 H 0.7669 0.29283 0.61009 0.0
H1889 H 0.72001 0.34351 0.60183 0.0
C1890 C 0.73875 0.3613 0.61983 0.0
C1891 C 0.75595 0.36213 0.63119 0.0
C1892 C 0.75192 0.29158 0.60484 0.0
C1893 C 0.74585 0.32742 0.61154 0.0
C1894 C 0.74458 0.27303 0.60001 0.0
C1895 C 0.72495 0.27085 0.59403 0.0
C1896 C 0.73955 0.30807 0.6037 0.0
C1897 C 0.71343 0.28785 0.59195 0.0
C1898 C 0.73366 0.34402 0.61 0.0
C1899 C 0.76825 0.34556 0.63152 0.0
N1900 N 0.72083 0.30571 0.59698 0.0
N1901 N 0.76287 0.32883 0.62201 0.0
H1902 H 0.2204 0.65362 0.63611 0.0
H1903 H 0.31027 0.7145 0.59326 0.0
H1904 H 0.27607 0.62756 0.62031 0.0
H1905 H 0.25238 0.73904 0.60187 0.0
H1906 H 0.29689 0.68177 0.59929 0.0
H1907 H 0.23055 0.68408 0.62005 0.0
C1908 C 0.23466 0.65421 0.62904 0.0
C1909 C 0.24752 0.6381 0.62981 0.0
C1910 C 0.28704 0.69427 0.59958 0.0
C1911 C 0.2593 0.673 0.61154 0.0
C1912 C 0.29468 0.71298 0.59612 0.0
C1913 C 0.28248 0.72958 0.59735 0.0
C1914 C 0.2671 0.69213 0.60452 0.0
C1915 C 0.26237 0.72669 0.60095 0.0
C1916 C 0.24045 0.67162 0.61986 0.0
C1917 C 0.26575 0.63966 0.62025 0.0
N1918 N 0.25536 0.70836 0.60471 0.0
N1919 N 0.2712 0.6569 0.61175 0.0
H1920 H 0.87145 0.83878 0.7198 0.0
H1921 H 0.90016 0.77967 0.81603 0.0
H1922 H 0.87999 0.8661 0.77647 0.0
H1923 H 0.90151 0.7541 0.75795 0.0
H1924 H 0.89599 0.81209 0.80128 0.0
H1925 H 0.8859 0.80853 0.73264 0.0
C1926 C 0.87667 0.83854 0.73485 0.0
C1927 C 0.8742 0.85491 0.74717 0.0
C1928 C 0.89744 0.79944 0.79173 0.0
C1929 C 0.89051 0.82023 0.76203 0.0
C1930 C 0.89977 0.7809 0.80015 0.0
C1931 C 0.90094 0.76412 0.78821 0.0
C1932 C 0.89599 0.80122 0.77121 0.0
C1933 C 0.90054 0.76662 0.76773 0.0
C1934 C 0.88491 0.82123 0.74218 0.0
C1935 C 0.88139 0.85379 0.76648 0.0
N1936 N 0.89782 0.7848 0.75988 0.0
N1937 N 0.88892 0.83664 0.77341 0.0
H1938 H 0.63524 0.37185 0.24632 0.0
H1939 H 0.75 0.39645 0.24775 0.0
H1940 H 0.67818 0.34089 0.21141 0.0
H1941 H 0.71378 0.40052 0.29971 0.0
H1942 H 0.72127 0.38556 0.22905 0.0
H1943 H 0.66189 0.39161 0.26078 0.0
C1944 C 0.65021 0.36952 0.24142 0.0
C1945 C 0.65464 0.35466 0.22782 0.0
C1946 C 0.7196 0.38916 0.24447 0.0
C1947 C 0.68485 0.37722 0.24396 0.0
C1948 C 0.73594 0.39546 0.25514 0.0
C1949 C 0.73431 0.39914 0.27538 0.0
C1950 C 0.70148 0.38685 0.25403 0.0
C1951 C 0.7157 0.39759 0.28418 0.0
C1952 C 0.66534 0.38069 0.24971 0.0
C1953 C 0.67424 0.3521 0.22201 0.0
N1954 N 0.69998 0.39144 0.27347 0.0
N1955 N 0.68865 0.36326 0.23013 0.0
H1956 H 0.12744 0.15907 0.72231 0.0
H1957 H 0.09977 0.21536 0.82031 0.0
H1958 H 0.12097 0.13009 0.7784 0.0
H1959 H 0.09315 0.24117 0.76272 0.0
H1960 H 0.10509 0.18337 0.80496 0.0
H1961 H 0.11231 0.18852 0.73623 0.0
C1962 C 0.12257 0.1588 0.73747 0.0
C1963 C 0.12573 0.14218 0.74929 0.0
C1964 C 0.10221 0.19597 0.79567 0.0
C1965 C 0.10864 0.17591 0.76537 0.0
C1966 C 0.09922 0.21426 0.80443 0.0
C1967 C 0.09626 0.231 0.79277 0.0
C1968 C 0.10253 0.19444 0.77508 0.0
C1969 C 0.09551 0.22867 0.77227 0.0
C1970 C 0.11392 0.17562 0.74541 0.0
C1971 C 0.11899 0.14261 0.76878 0.0
N1972 N 0.09893 0.21078 0.76406 0.0
N1973 N 0.11105 0.15931 0.7763 0.0
H1974 H 0.33061 0.62315 0.20883 0.0
H1975 H 0.28305 0.60181 0.31356 0.0
H1976 H 0.36245 0.62705 0.26361 0.0
H1977 H 0.25239 0.59247 0.25877 0.0
H1978 H 0.31336 0.60742 0.29523 0.0
H1979 H 0.30312 0.60804 0.22636 0.0
C1980 C 0.33197 0.62055 0.22448 0.0
C1981 C 0.34876 0.62667 0.23481 0.0
C1982 C 0.30007 0.60392 0.2872 0.0
C1983 C 0.31725 0.60958 0.25499 0.0
C1984 C 0.28273 0.60074 0.29767 0.0
C1985 C 0.2651 0.5969 0.28767 0.0
C1986 C 0.29977 0.60348 0.26655 0.0
C1987 C 0.26562 0.59552 0.26708 0.0
C1988 C 0.31623 0.61195 0.2345 0.0
C1989 C 0.34972 0.6228 0.25506 0.0
N1990 N 0.28262 0.59906 0.25718 0.0
N1991 N 0.33408 0.61476 0.26452 0.0
H1992 H 0.87599 0.16928 0.29551 0.0
H1993 H 0.89999 0.21373 0.19021 0.0
H1994 H 0.876 0.13515 0.24198 0.0
H1995 H 0.90791 0.24613 0.24422 0.0
H1996 H 0.8946 0.18388 0.20932 0.0
H1997 H 0.89122 0.19651 0.27766 0.0
C1998 C 0.87947 0.16738 0.28009 0.0
C1999 C 0.87442 0.15 0.27017 0.0
C2000 C 0.89776 0.19745 0.21702 0.0
C2001 C 0.89165 0.18118 0.2496 0.0
C2002 C 0.90082 0.21453 0.20609 0.0
C2003 C 0.90416 0.23251 0.21563 0.0
C2004 C 0.8978 0.19838 0.23766 0.0
C2005 C 0.90524 0.23261 0.23625 0.0
C2006 C 0.88815 0.18296 0.26989 0.0
C2007 C 0.87941 0.14835 0.2502 0.0
N2008 N 0.90179 0.21586 0.24658 0.0
N2009 N 0.88748 0.16383 0.24053 0.0
H2010 H 0.27744 0.39504 0.68648 0.0
H2011 H 0.32458 0.3678 0.7895 0.0
H2012 H 0.24618 0.40112 0.74137 0.0
H2013 H 0.35785 0.37226 0.73561 0.0
H2014 H 0.29664 0.38328 0.77302 0.0
H2015 H 0.30781 0.38976 0.70476 0.0
C2016 C 0.277 0.39546 0.70239 0.0
C2017 C 0.25921 0.39827 0.71242 0.0
C2018 C 0.31016 0.38115 0.7649 0.0
C2019 C 0.29393 0.39204 0.73349 0.0
C2020 C 0.32614 0.37233 0.77431 0.0
C2021 C 0.34348 0.3684 0.76383 0.0
C2022 C 0.3115 0.3859 0.74484 0.0
C2023 C 0.34469 0.37473 0.74421 0.0
C2024 C 0.29437 0.39249 0.71285 0.0
C2025 C 0.25956 0.39888 0.73305 0.0
N2026 N 0.32882 0.38288 0.73529 0.0
N2027 N 0.2766 0.39548 0.74292 0.0
H2028 H 0.13746 0.84202 0.28464 0.0
H2029 H 0.0962 0.78686 0.19041 0.0
H2030 H 0.12232 0.87148 0.23051 0.0
H2031 H 0.10511 0.75852 0.24649 0.0
H2032 H 0.10162 0.8187 0.20607 0.0
H2033 H 0.1216 0.81223 0.27241 0.0
C2034 C 0.13054 0.84233 0.27031 0.0
C2035 C 0.1315 0.85919 0.25845 0.0
C2036 C 0.10213 0.80554 0.21502 0.0
C2037 C 0.11351 0.82505 0.24427 0.0
C2038 C 0.09905 0.78734 0.20608 0.0
C2039 C 0.10051 0.76997 0.2171 0.0
C2040 C 0.10692 0.80638 0.2351 0.0
C2041 C 0.10404 0.77151 0.23737 0.0
C2042 C 0.12149 0.82529 0.26332 0.0
C2043 C 0.12212 0.85877 0.24007 0.0
N2044 N 0.10741 0.78938 0.24566 0.0
N2045 N 0.11378 0.84188 0.23343 0.0
H2046 H 0.71313 0.59841 0.68329 0.0
H2047 H 0.67107 0.62258 0.78935 0.0
H2048 H 0.74785 0.595 0.73631 0.0
H2049 H 0.63586 0.62154 0.73654 0.0
H2050 H 0.69796 0.60712 0.77122 0.0
H2051 H 0.68355 0.60155 0.70329 0.0
C2052 C 0.71451 0.59806 0.69915 0.0
C2053 C 0.73302 0.5968 0.70814 0.0
C2054 C 0.68423 0.60998 0.76368 0.0
C2055 C 0.6992 0.60061 0.73117 0.0
C2056 C 0.66885 0.61878 0.77405 0.0
C2057 C 0.65132 0.62374 0.76435 0.0
C2058 C 0.6821 0.60624 0.74347 0.0
C2059 C 0.64923 0.6183 0.74455 0.0
C2060 C 0.69759 0.59984 0.71059 0.0
C2061 C 0.73389 0.59616 0.72875 0.0
N2062 N 0.66454 0.61014 0.7347 0.0
N2063 N 0.71725 0.59841 0.73958 0.0
H2064 H 0.71873 0.86318 0.84164 0.0
H2065 H 0.8164 0.89473 0.78634 0.0
H2066 H 0.77427 0.87184 0.87112 0.0
H2067 H 0.75903 0.89622 0.75924 0.0
H2068 H 0.80079 0.88937 0.81821 0.0
H2069 H 0.73247 0.87834 0.81214 0.0
C2070 C 0.73373 0.86853 0.84201 0.0
C2071 C 0.74546 0.86598 0.85879 0.0
C2072 C 0.79159 0.89113 0.80534 0.0
C2073 C 0.76136 0.88313 0.82499 0.0
C2074 C 0.8005 0.89416 0.78712 0.0
C2075 C 0.78901 0.89567 0.77006 0.0
C2076 C 0.77104 0.88935 0.80648 0.0
C2077 C 0.76848 0.89498 0.77198 0.0
C2078 C 0.74157 0.87719 0.82515 0.0
C2079 C 0.76474 0.87333 0.85847 0.0
N2080 N 0.76016 0.8916 0.78982 0.0
N2081 N 0.77218 0.8813 0.84174 0.0
H2082 H 0.60005 0.25175 0.24608 0.0
H2083 H 0.614 0.26723 0.36173 0.0
H2084 H 0.59309 0.30743 0.27575 0.0
H2085 H 0.63284 0.21524 0.33055 0.0
H2086 H 0.59923 0.27957 0.33144 0.0
H2087 H 0.60517 0.23588 0.27795 0.0
C2088 C 0.59932 0.2606 0.2593 0.0
C2089 C 0.59642 0.281 0.25823 0.0
C2090 C 0.60639 0.26535 0.33129 0.0
C2091 C 0.60227 0.26294 0.29469 0.0
C2092 C 0.61478 0.25825 0.3486 0.0
C2093 C 0.62496 0.24031 0.34861 0.0
C2094 C 0.60816 0.25443 0.31386 0.0
C2095 C 0.62534 0.22926 0.33117 0.0
C2096 C 0.6023 0.25153 0.27747 0.0
C2097 C 0.59554 0.29171 0.27586 0.0
N2098 N 0.61726 0.2366 0.31444 0.0
N2099 N 0.59862 0.28257 0.29334 0.0
H2100 H 0.18378 0.10019 0.7846 0.0
H2101 H 0.28108 0.13293 0.84045 0.0
H2102 H 0.24089 0.1017 0.75696 0.0
H2103 H 0.22539 0.12352 0.86941 0.0
H2104 H 0.26755 0.1183 0.81055 0.0
H2105 H 0.19943 0.10556 0.81642 0.0
C2106 C 0.19964 0.10143 0.78525 0.0
C2107 C 0.21102 0.10072 0.76805 0.0
C2108 C 0.25837 0.11919 0.82353 0.0
C2109 C 0.22905 0.10707 0.80448 0.0
C2110 C 0.2661 0.12752 0.84063 0.0
C2111 C 0.25427 0.1297 0.85741 0.0
C2112 C 0.23862 0.11314 0.82314 0.0
C2113 C 0.23501 0.12232 0.85679 0.0
C2114 C 0.20859 0.10448 0.80345 0.0
C2115 C 0.23153 0.10226 0.76982 0.0
N2116 N 0.22771 0.11462 0.83986 0.0
N2117 N 0.23987 0.10563 0.78767 0.0
H2118 H 0.37899 0.74082 0.36695 0.0
H2119 H 0.40546 0.74356 0.25285 0.0
H2120 H 0.37451 0.79282 0.33083 0.0
H2121 H 0.40315 0.69061 0.28777 0.0
H2122 H 0.40114 0.76301 0.28274 0.0
H2123 H 0.39498 0.72376 0.33978 0.0
C2124 C 0.38165 0.74877 0.35341 0.0
C2125 C 0.37504 0.76818 0.35104 0.0
C2126 C 0.40184 0.74714 0.28389 0.0
C2127 C 0.39321 0.74863 0.31979 0.0
C2128 C 0.40434 0.73602 0.26683 0.0
C2129 C 0.40431 0.7154 0.26776 0.0
C2130 C 0.39929 0.73759 0.30201 0.0
C2131 C 0.40297 0.70645 0.2863 0.0
C2132 C 0.39075 0.73899 0.33787 0.0
C2133 C 0.37913 0.77779 0.33324 0.0
N2134 N 0.40028 0.71759 0.30266 0.0
N2135 N 0.38768 0.76781 0.31818 0.0
H2136 H 0.77215 0.11057 0.13143 0.0
H2137 H 0.76087 0.09417 0.24714 0.0
H2138 H 0.72124 0.12827 0.16496 0.0
H2139 H 0.8159 0.09012 0.21577 0.0
H2140 H 0.74382 0.09873 0.21584 0.0
H2141 H 0.78569 0.09512 0.16087 0.0
C2142 C 0.76365 0.11094 0.14489 0.0
C2143 C 0.74568 0.12103 0.14582 0.0
C2144 C 0.75959 0.09657 0.21581 0.0
C2145 C 0.76115 0.10342 0.17956 0.0
C2146 C 0.76935 0.0939 0.23366 0.0
C2147 C 0.7899 0.09209 0.23409 0.0
C2148 C 0.77046 0.09734 0.19828 0.0
C2149 C 0.80008 0.09175 0.21615 0.0
C2150 C 0.77144 0.10216 0.16171 0.0
C2151 C 0.73528 0.12089 0.16364 0.0
N2152 N 0.79028 0.09456 0.19898 0.0
N2153 N 0.74327 0.11242 0.17987 0.0
H2154 H 0.4005 0.31354 0.70441 0.0
H2155 H 0.36863 0.21668 0.64747 0.0
H2156 H 0.39699 0.25628 0.73157 0.0
H2157 H 0.37563 0.27329 0.61963 0.0
H2158 H 0.38401 0.22978 0.67712 0.0
H2159 H 0.39632 0.29815 0.67228 0.0
C2160 C 0.39908 0.2977 0.70361 0.0
C2161 C 0.39877 0.28621 0.72075 0.0
C2162 C 0.38246 0.23926 0.66443 0.0
C2163 C 0.39382 0.2685 0.68397 0.0
C2164 C 0.3737 0.23178 0.64746 0.0
C2165 C 0.37052 0.244 0.63115 0.0
C2166 C 0.38792 0.25917 0.66516 0.0
C2167 C 0.37756 0.26338 0.63193 0.0
C2168 C 0.39671 0.28891 0.68523 0.0
C2169 C 0.39711 0.26574 0.71877 0.0
N2170 N 0.38565 0.27045 0.64877 0.0
N2171 N 0.39442 0.25756 0.70074 0.0
H2172 H 0.18815 0.89819 0.21704 0.0
H2173 H 0.28177 0.86354 0.15614 0.0
H2174 H 0.2468 0.8966 0.24124 0.0
H2175 H 0.22432 0.87205 0.13055 0.0
H2176 H 0.2701 0.87881 0.18648 0.0
H2177 H 0.20177 0.89173 0.1845 0.0
C2178 C 0.20393 0.89667 0.21549 0.0
C2179 C 0.21633 0.89771 0.23194 0.0
C2180 C 0.26012 0.87758 0.17414 0.0
C2181 C 0.23204 0.89014 0.19468 0.0
C2182 C 0.26678 0.86887 0.15679 0.0
C2183 C 0.25393 0.86627 0.14085 0.0
C2184 C 0.24041 0.88358 0.17563 0.0
C2185 C 0.23471 0.87358 0.14251 0.0
C2186 C 0.21171 0.89301 0.19687 0.0
C2187 C 0.23667 0.89579 0.22899 0.0
N2188 N 0.22846 0.88166 0.15967 0.0
N2189 N 0.24387 0.89186 0.21076 0.0
H2190 H 0.62621 0.78315 0.65673 0.0
H2191 H 0.59388 0.68412 0.70957 0.0
H2192 H 0.61524 0.72874 0.62592 0.0
H2193 H 0.59971 0.73968 0.73971 0.0
H2194 H 0.59737 0.70118 0.67821 0.0
H2195 H 0.61222 0.7687 0.68646 0.0
C2196 C 0.62059 0.76826 0.65612 0.0
C2197 C 0.6222 0.75704 0.63888 0.0
C2198 C 0.59763 0.70969 0.69166 0.0
C2199 C 0.60635 0.74032 0.67294 0.0
C2200 C 0.59566 0.69995 0.70959 0.0
C2201 C 0.59681 0.71045 0.72732 0.0
C2202 C 0.60099 0.73007 0.69143 0.0
C2203 C 0.59892 0.73096 0.72642 0.0
C2204 C 0.61261 0.76 0.67313 0.0
C2205 C 0.61451 0.73788 0.63893 0.0
N2206 N 0.60122 0.74007 0.70879 0.0
N2207 N 0.60719 0.73003 0.65577 0.0
H2208 H 0.83887 0.71316 0.865 0.0
H2209 H 0.78159 0.80793 0.9017 0.0
H2210 H 0.86748 0.76784 0.8799 0.0
H2211 H 0.75438 0.75081 0.89662 0.0
H2212 H 0.81366 0.79273 0.89656 0.0
H2213 H 0.80842 0.72561 0.87942 0.0
C2214 C 0.83884 0.72767 0.87157 0.0
C2215 C 0.85569 0.73958 0.871 0.0
C2216 C 0.80072 0.78346 0.8968 0.0
C2217 C 0.82082 0.754 0.88731 0.0
C2218 C 0.78238 0.79215 0.8997 0.0
C2219 C 0.76525 0.78065 0.89936 0.0
C2220 C 0.80195 0.76315 0.89327 0.0
C2221 C 0.76719 0.76025 0.89688 0.0
C2222 C 0.82144 0.73478 0.87979 0.0
C2223 C 0.85482 0.7582 0.87984 0.0
N2224 N 0.78518 0.75218 0.89366 0.0
N2225 N 0.8376 0.76494 0.88738 0.0
H2226 H 0.87187 0.22097 0.12282 0.0
H2227 H 0.7582 0.23538 0.09652 0.0
H2228 H 0.84012 0.27473 0.13424 0.0
H2229 H 0.78589 0.17889 0.10472 0.0
H2230 H 0.78995 0.25136 0.10254 0.0
H2231 H 0.84223 0.207 0.10816 0.0
C2232 C 0.85876 0.22996 0.122 0.0
C2233 C 0.8584 0.24896 0.13003 0.0
C2234 C 0.78908 0.23547 0.10278 0.0
C2235 C 0.82444 0.23301 0.11326 0.0
C2236 C 0.77101 0.22633 0.09926 0.0
C2237 C 0.7694 0.20579 0.10032 0.0
C2238 C 0.80563 0.22394 0.10713 0.0
C2239 C 0.78645 0.19478 0.10398 0.0
C2240 C 0.84183 0.22193 0.11369 0.0
C2241 C 0.84099 0.25994 0.12843 0.0
N2242 N 0.80384 0.204 0.10733 0.0
N2243 N 0.82464 0.25175 0.12036 0.0
H2244 H 0.21382 0.33407 0.6339 0.0
H2245 H 0.30924 0.28034 0.59304 0.0
H2246 H 0.26723 0.36456 0.61818 0.0
H2247 H 0.25307 0.25138 0.59903 0.0
H2248 H 0.29338 0.31176 0.59996 0.0
H2249 H 0.22698 0.30415 0.61894 0.0
C2250 C 0.22821 0.33455 0.62709 0.0
C2251 C 0.23954 0.3518 0.62751 0.0
C2252 C 0.28446 0.29858 0.59954 0.0
C2253 C 0.25475 0.31756 0.61053 0.0
C2254 C 0.29352 0.28061 0.5956 0.0
C2255 C 0.2825 0.26317 0.59564 0.0
C2256 C 0.26425 0.29912 0.60378 0.0
C2257 C 0.26216 0.26445 0.59893 0.0
C2258 C 0.23571 0.31745 0.61854 0.0
C2259 C 0.25803 0.35158 0.61835 0.0
N2260 N 0.25373 0.28208 0.60312 0.0
N2261 N 0.26515 0.33467 0.61046 0.0
H2262 H 0.24879 0.75072 0.09379 0.0
H2263 H 0.13668 0.75721 0.1282 0.0
H2264 H 0.217 0.805 0.10217 0.0
H2265 H 0.17135 0.70412 0.13119 0.0
H2266 H 0.16384 0.77358 0.11147 0.0
H2267 H 0.21855 0.73242 0.10054 0.0
C2268 C 0.2354 0.7588 0.09677 0.0
C2269 C 0.23548 0.77942 0.09768 0.0
C2270 C 0.16543 0.75828 0.11557 0.0
C2271 C 0.20088 0.75858 0.10541 0.0
C2272 C 0.14989 0.74888 0.12508 0.0
C2273 C 0.15186 0.72934 0.13143 0.0
C2274 C 0.18309 0.7481 0.11238 0.0
C2275 C 0.16926 0.71927 0.12677 0.0
C2276 C 0.21817 0.74834 0.10067 0.0
C2277 C 0.21768 0.78911 0.10155 0.0
N2278 N 0.18431 0.72884 0.11774 0.0
N2279 N 0.20115 0.7786 0.10542 0.0
H2280 H 0.7372 0.64389 0.62228 0.0
H2281 H 0.73777 0.75714 0.59089 0.0
H2282 H 0.78888 0.68071 0.62439 0.0
H2283 H 0.68508 0.723 0.60025 0.0
H2284 H 0.75745 0.72762 0.59668 0.0
H2285 H 0.71892 0.671 0.60756 0.0
C2286 C 0.7448 0.65758 0.6194 0.0
C2287 C 0.76455 0.6601 0.62486 0.0
C2288 C 0.74158 0.72656 0.59726 0.0
C2289 C 0.74362 0.69127 0.60809 0.0
C2290 C 0.73032 0.7434 0.5939 0.0
C2291 C 0.70974 0.74259 0.59532 0.0
C2292 C 0.73219 0.70879 0.60197 0.0
C2293 C 0.7009 0.72436 0.59921 0.0
C2294 C 0.73432 0.67308 0.61105 0.0
C2295 C 0.77363 0.67815 0.62062 0.0
N2296 N 0.71218 0.70822 0.60254 0.0
N2297 N 0.76304 0.69312 0.61267 0.0
H2298 H 0.16231 0.28299 0.86422 0.0
H2299 H 0.21927 0.18847 0.902 0.0
H2300 H 0.13319 0.23012 0.88389 0.0
H2301 H 0.24748 0.24475 0.89387 0.0
H2302 H 0.18736 0.2042 0.89752 0.0
H2303 H 0.1933 0.27029 0.87724 0.0
C2304 C 0.16237 0.26884 0.87152 0.0
C2305 C 0.14517 0.25749 0.87273 0.0
C2306 C 0.2005 0.21318 0.89694 0.0
C2307 C 0.18063 0.24278 0.88745 0.0
C2308 C 0.21874 0.20419 0.89945 0.0
C2309 C 0.23608 0.21528 0.89811 0.0
C2310 C 0.19956 0.23338 0.89278 0.0
C2311 C 0.23449 0.23561 0.89493 0.0
C2312 C 0.18008 0.2616 0.87895 0.0
C2313 C 0.14611 0.23932 0.88246 0.0
N2314 N 0.21656 0.24397 0.89212 0.0
N2315 N 0.16358 0.23242 0.88919 0.0
H2316 H 0.31596 0.71154 0.40735 0.0
H2317 H 0.21961 0.65716 0.36979 0.0
H2318 H 0.25991 0.74046 0.4004 0.0
H2319 H 0.27419 0.62736 0.38242 0.0
H2320 H 0.23279 0.68691 0.38498 0.0
H2321 H 0.29984 0.67989 0.40232 0.0
C2322 C 0.30021 0.71123 0.40501 0.0
C2323 C 0.28932 0.72872 0.404 0.0
C2324 C 0.24179 0.67379 0.38468 0.0
C2325 C 0.27077 0.69249 0.39804 0.0
C2326 C 0.23426 0.65677 0.37601 0.0
C2327 C 0.24592 0.63981 0.37455 0.0
C2328 C 0.26119 0.67391 0.39178 0.0
C2329 C 0.26474 0.64014 0.38302 0.0
C2330 C 0.291 0.69312 0.40215 0.0
C2331 C 0.26893 0.72738 0.40112 0.0
N2332 N 0.27189 0.657 0.39101 0.0
N2333 N 0.26036 0.7096 0.39796 0.0
H2334 H 0.77753 0.34064 0.3574 0.0
H2335 H 0.68192 0.28151 0.38929 0.0
H2336 H 0.72138 0.36809 0.36846 0.0
H2337 H 0.7399 0.25573 0.38862 0.0
H2338 H 0.6966 0.31377 0.38379 0.0
H2339 H 0.76476 0.30996 0.37107 0.0
C2340 C 0.7626 0.3403 0.36294 0.0
C2341 C 0.75043 0.3569 0.36155 0.0
C2342 C 0.70615 0.3011 0.38505 0.0
C2343 C 0.73566 0.32177 0.37701 0.0
C2344 C 0.69777 0.28265 0.38815 0.0
C2345 C 0.70969 0.26586 0.38922 0.0
C2346 C 0.7266 0.30278 0.38276 0.0
C2347 C 0.73014 0.26826 0.3878 0.0
C2348 C 0.75532 0.32276 0.37074 0.0
C2349 C 0.73126 0.35563 0.36907 0.0
N2350 N 0.73794 0.28635 0.3844 0.0
N2351 N 0.72439 0.3383 0.37624 0.0
loop_
_geom_bond_atom_site_label_1
_geom_bond_atom_site_label_2
_geom_bond_distance
_geom_bond_site_symmetry_2
_ccdc_geom_bond_type
C0 O1 1.160 . S
C0 O7 1.185 . S
O1 C0 1.160 . S
O2 Zn3 1.899 . S
O2 C10 1.284 . S
Zn3 O2 1.899 . S
Zn3 O4 2.032 . S
Zn3 O7 2.086 . S
Zn3 O12 1.977 . S
O4 Zn3 2.032 . S
O4 C8 1.278 . S
C5 O6 1.203 . S
C5 O12 1.267 . S
O6 C5 1.203 . S
O7 C0 1.185 . S
O7 Zn3 2.086 . S
C8 O4 1.278 . S
C8 O9 1.211 . S
O9 C8 1.211 . S
C10 O2 1.284 . S
C10 O11 1.273 . S
O11 C10 1.273 . S
O12 Zn3 1.977 . S
O12 C5 1.267 . S
C13 O14 1.160 . S
C13 O20 1.185 . S
O14 C13 1.160 . S
O15 Zn16 1.899 . S
O15 C23 1.284 . S
Zn16 O15 1.899 . S
Zn16 O17 2.032 . S
Zn16 O20 2.086 . S
Zn16 O25 1.977 . S
O17 Zn16 2.032 . S
O17 C21 1.278 . S
C18 O19 1.203 . S
C18 O25 1.267 . S
O19 C18 1.203 . S
O20 C13 1.185 . S
O20 Zn16 2.086 . S
C21 O17 1.278 . S
C21 O22 1.211 . S
O22 C21 1.211 . S
C23 O15 1.284 . S
C23 O24 1.273 . S
O24 C23 1.273 . S
O25 Zn16 1.977 . S
O25 C18 1.267 . S
C26 O27 1.160 . S
C26 O33 1.185 . S
O27 C26 1.160 . S
O28 Zn29 1.899 . S
O28 C36 1.284 . S
Zn29 O28 1.899 . S
Zn29 O30 2.032 . S
Zn29 O33 2.086 . S
Zn29 O38 1.977 . S
O30 Zn29 2.032 . S
O30 C34 1.278 . S
C31 O32 1.203 . S
C31 O38 1.267 . S
O32 C31 1.203 . S
O33 C26 1.185 . S
O33 Zn29 2.086 . S
C34 O30 1.278 . S
C34 O35 1.211 . S
O35 C34 1.211 . S
C36 O28 1.284 . S
C36 O37 1.273 . S
O37 C36 1.273 . S
O38 Zn29 1.977 . S
O38 C31 1.267 . S
C39 O40 1.160 . S
C39 O46 1.185 . S
O40 C39 1.160 . S
O41 Zn42 1.899 . S
O41 C49 1.284 . S
Zn42 O41 1.899 . S
Zn42 O43 2.032 . S
Zn42 O46 2.086 . S
Zn42 O51 1.977 . S
O43 Zn42 2.032 . S
O43 C47 1.278 . S
C44 O45 1.203 . S
C44 O51 1.267 . S
O45 C44 1.203 . S
O46 C39 1.185 . S
O46 Zn42 2.086 . S
C47 O43 1.278 . S
C47 O48 1.211 . S
O48 C47 1.211 . S
C49 O41 1.284 . S
C49 O50 1.273 . S
O50 C49 1.273 . S
O51 Zn42 1.977 . S
O51 C44 1.267 . S
C52 O53 1.160 . S
C52 O59 1.185 . S
O53 C52 1.160 . S
O54 Zn55 1.899 . S
O54 C62 1.284 . S
Zn55 O54 1.899 . S
Zn55 O56 2.032 . S
Zn55 O59 2.086 . S
Zn55 O64 1.977 . S
O56 Zn55 2.032 . S
O56 C60 1.278 . S
C57 O58 1.203 . S
C57 O64 1.267 . S
O58 C57 1.203 . S
O59 C52 1.185 . S
O59 Zn55 2.086 . S
C60 O56 1.278 . S
C60 O61 1.211 . S
O61 C60 1.211 . S
C62 O54 1.284 . S
C62 O63 1.273 . S
O63 C62 1.273 . S
O64 Zn55 1.977 . S
O64 C57 1.267 . S
C65 O66 1.160 . S
C65 O72 1.185 . S
O66 C65 1.160 . S
O67 Zn68 1.899 . S
O67 C75 1.284 . S
Zn68 O67 1.899 . S
Zn68 O69 2.032 . S
Zn68 O72 2.086 . S
Zn68 O77 1.977 . S
O69 Zn68 2.032 . S
O69 C73 1.278 . S
C70 O71 1.203 . S
C70 O77 1.267 . S
O71 C70 1.203 . S
O72 C65 1.185 . S
O72 Zn68 2.086 . S
C73 O69 1.278 . S
C73 O74 1.211 . S
O74 C73 1.211 . S
C75 O67 1.284 . S
C75 O76 1.273 . S
O76 C75 1.273 . S
O77 Zn68 1.977 . S
O77 C70 1.267 . S
C78 O79 1.160 . S
C78 O85 1.185 . S
O79 C78 1.160 . S
O80 Zn81 1.899 . S
O80 C88 1.284 . S
Zn81 O80 1.899 . S
Zn81 O82 2.032 . S
Zn81 O85 2.086 . S
Zn81 O90 1.977 . S
O82 Zn81 2.032 . S
O82 C86 1.278 . S
C83 O84 1.203 . S
C83 O90 1.267 . S
O84 C83 1.203 . S
O85 C78 1.185 . S
O85 Zn81 2.086 . S
C86 O82 1.278 . S
C86 O87 1.211 . S
O87 C86 1.211 . S
C88 O80 1.284 . S
C88 O89 1.273 . S
O89 C88 1.273 . S
O90 Zn81 1.977 . S
O90 C83 1.267 . S
C91 O92 1.160 . S
C91 O98 1.185 . S
O92 C91 1.160 . S
O93 Zn94 1.899 . S
O93 C101 1.284 . S
Zn94 O93 1.899 . S
Zn94 O95 2.032 . S
Zn94 O98 2.086 . S
Zn94 O103 1.977 . S
O95 Zn94 2.032 . S
O95 C99 1.278 . S
C96 O97 1.203 . S
C96 O103 1.267 . S
O97 C96 1.203 . S
O98 C91 1.185 . S
O98 Zn94 2.086 . S
C99 O95 1.278 . S
C99 O100 1.211 . S
O100 C99 1.211 . S
C101 O93 1.284 . S
C101 O102 1.273 . S
O102 C101 1.273 . S
O103 Zn94 1.977 . S
O103 C96 1.267 . S
C104 O105 1.160 . S
C104 O111 1.185 . S
O105 C104 1.160 . S
O106 Zn107 1.899 . S
O106 C114 1.284 . S
Zn107 O106 1.899 . S
Zn107 O108 2.032 . S
Zn107 O111 2.086 . S
Zn107 O116 1.977 . S
O108 Zn107 2.032 . S
O108 C112 1.278 . S
C109 O110 1.203 . S
C109 O116 1.267 . S
O110 C109 1.203 . S
O111 C104 1.185 . S
O111 Zn107 2.086 . S
C112 O108 1.278 . S
C112 O113 1.211 . S
O113 C112 1.211 . S
C114 O106 1.284 . S
C114 O115 1.273 . S
O115 C114 1.273 . S
O116 Zn107 1.977 . S
O116 C109 1.267 . S
C117 O118 1.160 . S
C117 O124 1.185 . S
O118 C117 1.160 . S
O119 Zn120 1.899 . S
O119 C127 1.284 . S
Zn120 O119 1.899 . S
Zn120 O121 2.032 . S
Zn120 O124 2.086 . S
Zn120 O129 1.977 . S
O121 Zn120 2.032 . S
O121 C125 1.278 . S
C122 O123 1.203 . S
C122 O129 1.267 . S
O123 C122 1.203 . S
O124 C117 1.185 . S
O124 Zn120 2.086 . S
C125 O121 1.278 . S
C125 O126 1.211 . S
O126 C125 1.211 . S
C127 O119 1.284 . S
C127 O128 1.273 . S
O128 C127 1.273 . S
O129 Zn120 1.977 . S
O129 C122 1.267 . S
C130 O131 1.160 . S
C130 O137 1.185 . S
O131 C130 1.160 . S
O132 Zn133 1.899 . S
O132 C140 1.284 . S
Zn133 O132 1.899 . S
Zn133 O134 2.032 . S
Zn133 O137 2.086 . S
Zn133 O142 1.977 . S
O134 Zn133 2.032 . S
O134 C138 1.278 . S
C135 O136 1.203 . S
C135 O142 1.267 . S
O136 C135 1.203 . S
O137 C130 1.185 . S
O137 Zn133 2.086 . S
C138 O134 1.278 . S
C138 O139 1.211 . S
O139 C138 1.211 . S
C140 O132 1.284 . S
C140 O141 1.273 . S
O141 C140 1.273 . S
O142 Zn133 1.977 . S
O142 C135 1.267 . S
C143 O144 1.160 . S
C143 O150 1.185 . S
O144 C143 1.160 . S
O145 Zn146 1.899 . S
O145 C153 1.284 . S
Zn146 O145 1.899 . S
Zn146 O147 2.032 . S
Zn146 O150 2.086 . S
Zn146 O155 1.977 . S
O147 Zn146 2.032 . S
O147 C151 1.278 . S
C148 O149 1.203 . S
C148 O155 1.267 . S
O149 C148 1.203 . S
O150 C143 1.185 . S
O150 Zn146 2.086 . S
C151 O147 1.278 . S
C151 O152 1.211 . S
O152 C151 1.211 . S
C153 O145 1.284 . S
C153 O154 1.273 . S
O154 C153 1.273 . S
O155 Zn146 1.977 . S
O155 C148 1.267 . S
C156 O157 1.160 . S
C156 O163 1.185 . S
O157 C156 1.160 . S
O158 Zn159 1.899 . S
O158 C166 1.284 . S
Zn159 O158 1.899 . S
Zn159 O160 2.032 . S
Zn159 O163 2.086 . S
Zn159 O168 1.977 . S
O160 Zn159 2.032 . S
O160 C164 1.278 . S
C161 O162 1.203 . S
C161 O168 1.267 . S
O162 C161 1.203 . S
O163 C156 1.185 . S
O163 Zn159 2.086 . S
C164 O160 1.278 . S
C164 O165 1.211 . S
O165 C164 1.211 . S
C166 O158 1.284 . S
C166 O167 1.273 . S
O167 C166 1.273 . S
O168 Zn159 1.977 . S
O168 C161 1.267 . S
C169 O170 1.160 . S
C169 O176 1.185 . S
O170 C169 1.160 . S
O171 Zn172 1.899 . S
O171 C179 1.284 . S
Zn172 O171 1.899 . S
Zn172 O173 2.032 . S
Zn172 O176 2.086 . S
Zn172 O181 1.977 . S
O173 Zn172 2.032 . S
O173 C177 1.278 . S
C174 O175 1.203 . S
C174 O181 1.267 . S
O175 C174 1.203 . S
O176 C169 1.185 . S
O176 Zn172 2.086 . S
C177 O173 1.278 . S
C177 O178 1.211 . S
O178 C177 1.211 . S
C179 O171 1.284 . S
C179 O180 1.273 . S
O180 C179 1.273 . S
O181 Zn172 1.977 . S
O181 C174 1.267 . S
C182 O183 1.160 . S
C182 O189 1.185 . S
O183 C182 1.160 . S
O184 Zn185 1.899 . S
O184 C192 1.284 . S
Zn185 O184 1.899 . S
Zn185 O186 2.032 . S
Zn185 O189 2.086 . S
Zn185 O194 1.977 . S
O186 Zn185 2.032 . S
O186 C190 1.278 . S
C187 O188 1.203 . S
C187 O194 1.267 . S
O188 C187 1.203 . S
O189 C182 1.185 . S
O189 Zn185 2.086 . S
C190 O186 1.278 . S
C190 O191 1.211 . S
O191 C190 1.211 . S
C192 O184 1.284 . S
C192 O193 1.273 . S
O193 C192 1.273 . S
O194 Zn185 1.977 . S
O194 C187 1.267 . S
C195 O196 1.160 . S
C195 O202 1.185 . S
O196 C195 1.160 . S
O197 Zn198 1.899 . S
O197 C205 1.284 . S
Zn198 O197 1.899 . S
Zn198 O199 2.032 . S
Zn198 O202 2.086 . S
Zn198 O207 1.977 . S
O199 Zn198 2.032 . S
O199 C203 1.278 . S
C200 O201 1.203 . S
C200 O207 1.267 . S
O201 C200 1.203 . S
O202 C195 1.185 . S
O202 Zn198 2.086 . S
C203 O199 1.278 . S
C203 O204 1.211 . S
O204 C203 1.211 . S
C205 O197 1.284 . S
C205 O206 1.273 . S
O206 C205 1.273 . S
O207 Zn198 1.977 . S
O207 C200 1.267 . S
C208 O209 1.160 . S
C208 O215 1.185 . S
O209 C208 1.160 . S
O210 Zn211 1.899 . S
O210 C218 1.284 . S
Zn211 O210 1.899 . S
Zn211 O212 2.032 . S
Zn211 O215 2.086 . S
Zn211 O220 1.977 . S
O212 Zn211 2.032 . S
O212 C216 1.278 . S
C213 O214 1.203 . S
C213 O220 1.267 . S
O214 C213 1.203 . S
O215 C208 1.185 . S
O215 Zn211 2.086 . S
C216 O212 1.278 . S
C216 O217 1.211 . S
O217 C216 1.211 . S
C218 O210 1.284 . S
C218 O219 1.273 . S
O219 C218 1.273 . S
O220 Zn211 1.977 . S
O220 C213 1.267 . S
C221 O222 1.160 . S
C221 O228 1.185 . S
O222 C221 1.160 . S
O223 Zn224 1.899 . S
O223 C231 1.284 . S
Zn224 O223 1.899 . S
Zn224 O225 2.032 . S
Zn224 O228 2.086 . S
Zn224 O233 1.977 . S
O225 Zn224 2.032 . S
O225 C229 1.278 . S
C226 O227 1.203 . S
C226 O233 1.267 . S
O227 C226 1.203 . S
O228 C221 1.185 . S
O228 Zn224 2.086 . S
C229 O225 1.278 . S
C229 O230 1.211 . S
O230 C229 1.211 . S
C231 O223 1.284 . S
C231 O232 1.273 . S
O232 C231 1.273 . S
O233 Zn224 1.977 . S
O233 C226 1.267 . S
C234 O235 1.160 . S
C234 O241 1.185 . S
O235 C234 1.160 . S
O236 Zn237 1.899 . S
O236 C244 1.284 . S
Zn237 O236 1.899 . S
Zn237 O238 2.032 . S
Zn237 O241 2.086 . S
Zn237 O246 1.977 . S
O238 Zn237 2.032 . S
O238 C242 1.278 . S
C239 O240 1.203 . S
C239 O246 1.267 . S
O240 C239 1.203 . S
O241 C234 1.185 . S
O241 Zn237 2.086 . S
C242 O238 1.278 . S
C242 O243 1.211 . S
O243 C242 1.211 . S
C244 O236 1.284 . S
C244 O245 1.273 . S
O245 C244 1.273 . S
O246 Zn237 1.977 . S
O246 C239 1.267 . S
C247 O248 1.160 . S
C247 O254 1.185 . S
O248 C247 1.160 . S
O249 Zn250 1.899 . S
O249 C257 1.284 . S
Zn250 O249 1.899 . S
Zn250 O251 2.032 . S
Zn250 O254 2.086 . S
Zn250 O259 1.977 . S
O251 Zn250 2.032 . S
O251 C255 1.278 . S
C252 O253 1.203 . S
C252 O259 1.267 . S
O253 C252 1.203 . S
O254 C247 1.185 . S
O254 Zn250 2.086 . S
C255 O251 1.278 . S
C255 O256 1.211 . S
O256 C255 1.211 . S
C257 O249 1.284 . S
C257 O258 1.273 . S
O258 C257 1.273 . S
O259 Zn250 1.977 . S
O259 C252 1.267 . S
C260 O261 1.160 . S
C260 O267 1.185 . S
O261 C260 1.160 . S
O262 Zn263 1.899 . S
O262 C270 1.284 . S
Zn263 O262 1.899 . S
Zn263 O264 2.032 . S
Zn263 O267 2.086 . S
Zn263 O272 1.977 . S
O264 Zn263 2.032 . S
O264 C268 1.278 . S
C265 O266 1.203 . S
C265 O272 1.267 . S
O266 C265 1.203 . S
O267 C260 1.185 . S
O267 Zn263 2.086 . S
C268 O264 1.278 . S
C268 O269 1.211 . S
O269 C268 1.211 . S
C270 O262 1.284 . S
C270 O271 1.273 . S
O271 C270 1.273 . S
O272 Zn263 1.977 . S
O272 C265 1.267 . S
C273 O274 1.160 . S
C273 O280 1.185 . S
O274 C273 1.160 . S
O275 Zn276 1.899 . S
O275 C283 1.284 . S
Zn276 O275 1.899 . S
Zn276 O277 2.032 . S
Zn276 O280 2.086 . S
Zn276 O285 1.977 . S
O277 Zn276 2.032 . S
O277 C281 1.278 . S
C278 O279 1.203 . S
C278 O285 1.267 . S
O279 C278 1.203 . S
O280 C273 1.185 . S
O280 Zn276 2.086 . S
C281 O277 1.278 . S
C281 O282 1.211 . S
O282 C281 1.211 . S
C283 O275 1.284 . S
C283 O284 1.273 . S
O284 C283 1.273 . S
O285 Zn276 1.977 . S
O285 C278 1.267 . S
C286 O287 1.160 . S
C286 O293 1.185 . S
O287 C286 1.160 . S
O288 Zn289 1.899 . S
O288 C296 1.284 . S
Zn289 O288 1.899 . S
Zn289 O290 2.032 . S
Zn289 O293 2.086 . S
Zn289 O298 1.977 . S
O290 Zn289 2.032 . S
O290 C294 1.278 . S
C291 O292 1.203 . S
C291 O298 1.267 . S
O292 C291 1.203 . S
O293 C286 1.185 . S
O293 Zn289 2.086 . S
C294 O290 1.278 . S
C294 O295 1.211 . S
O295 C294 1.211 . S
C296 O288 1.284 . S
C296 O297 1.273 . S
O297 C296 1.273 . S
O298 Zn289 1.977 . S
O298 C291 1.267 . S
C299 O300 1.160 . S
C299 O306 1.185 . S
O300 C299 1.160 . S
O301 Zn302 1.899 . S
O301 C309 1.284 . S
Zn302 O301 1.899 . S
Zn302 O303 2.032 . S
Zn302 O306 2.086 . S
Zn302 O311 1.977 . S
O303 Zn302 2.032 . S
O303 C307 1.278 . S
C304 O305 1.203 . S
C304 O311 1.267 . S
O305 C304 1.203 . S
O306 C299 1.185 . S
O306 Zn302 2.086 . S
C307 O303 1.278 . S
C307 O308 1.211 . S
O308 C307 1.211 . S
C309 O301 1.284 . S
C309 O310 1.273 . S
O310 C309 1.273 . S
O311 Zn302 1.977 . S
O311 C304 1.267 . S
C312 O313 1.160 . S
C312 O319 1.185 . S
O313 C312 1.160 . S
O314 Zn315 1.899 . S
O314 C322 1.284 . S
Zn315 O314 1.899 . S
Zn315 O316 2.032 . S
Zn315 O319 2.086 . S
Zn315 O324 1.977 . S
O316 Zn315 2.032 . S
O316 C320 1.278 . S
C317 O318 1.203 . S
C317 O324 1.267 . S
O318 C317 1.203 . S
O319 C312 1.185 . S
O319 Zn315 2.086 . S
C320 O316 1.278 . S
C320 O321 1.211 . S
O321 C320 1.211 . S
C322 O314 1.284 . S
C322 O323 1.273 . S
O323 C322 1.273 . S
O324 Zn315 1.977 . S
O324 C317 1.267 . S
C325 O326 1.160 . S
C325 O332 1.185 . S
O326 C325 1.160 . S
O327 Zn328 1.899 . S
O327 C335 1.284 . S
Zn328 O327 1.899 . S
Zn328 O329 2.032 . S
Zn328 O332 2.086 . S
Zn328 O337 1.977 . S
O329 Zn328 2.032 . S
O329 C333 1.278 . S
C330 O331 1.203 . S
C330 O337 1.267 . S
O331 C330 1.203 . S
O332 C325 1.185 . S
O332 Zn328 2.086 . S
C333 O329 1.278 . S
C333 O334 1.211 . S
O334 C333 1.211 . S
C335 O327 1.284 . S
C335 O336 1.273 . S
O336 C335 1.273 . S
O337 Zn328 1.977 . S
O337 C330 1.267 . S
C338 O339 1.160 . S
C338 O345 1.185 . S
O339 C338 1.160 . S
O340 Zn341 1.899 . S
O340 C348 1.284 . S
Zn341 O340 1.899 . S
Zn341 O342 2.032 . S
Zn341 O345 2.086 . S
Zn341 O350 1.977 . S
O342 Zn341 2.032 . S
O342 C346 1.278 . S
C343 O344 1.203 . S
C343 O350 1.267 . S
O344 C343 1.203 . S
O345 C338 1.185 . S
O345 Zn341 2.086 . S
C346 O342 1.278 . S
C346 O347 1.211 . S
O347 C346 1.211 . S
C348 O340 1.284 . S
C348 O349 1.273 . S
O349 C348 1.273 . S
O350 Zn341 1.977 . S
O350 C343 1.267 . S
C351 O352 1.160 . S
C351 O358 1.185 . S
O352 C351 1.160 . S
O353 Zn354 1.899 . S
O353 C361 1.284 . S
Zn354 O353 1.899 . S
Zn354 O355 2.032 . S
Zn354 O358 2.086 . S
Zn354 O363 1.977 . S
O355 Zn354 2.032 . S
O355 C359 1.278 . S
C356 O357 1.203 . S
C356 O363 1.267 . S
O357 C356 1.203 . S
O358 C351 1.185 . S
O358 Zn354 2.086 . S
C359 O355 1.278 . S
C359 O360 1.211 . S
O360 C359 1.211 . S
C361 O353 1.284 . S
C361 O362 1.273 . S
O362 C361 1.273 . S
O363 Zn354 1.977 . S
O363 C356 1.267 . S
C364 O365 1.160 . S
C364 O371 1.185 . S
O365 C364 1.160 . S
O366 Zn367 1.899 . S
O366 C374 1.284 . S
Zn367 O366 1.899 . S
Zn367 O368 2.032 . S
Zn367 O371 2.086 . S
Zn367 O376 1.977 . S
O368 Zn367 2.032 . S
O368 C372 1.278 . S
C369 O370 1.203 . S
C369 O376 1.267 . S
O370 C369 1.203 . S
O371 C364 1.185 . S
O371 Zn367 2.086 . S
C372 O368 1.278 . S
C372 O373 1.211 . S
O373 C372 1.211 . S
C374 O366 1.284 . S
C374 O375 1.273 . S
O375 C374 1.273 . S
O376 Zn367 1.977 . S
O376 C369 1.267 . S
C377 O378 1.160 . S
C377 O384 1.185 . S
O378 C377 1.160 . S
O379 Zn380 1.899 . S
O379 C387 1.284 . S
Zn380 O379 1.899 . S
Zn380 O381 2.032 . S
Zn380 O384 2.086 . S
Zn380 O389 1.977 . S
O381 Zn380 2.032 . S
O381 C385 1.278 . S
C382 O383 1.203 . S
C382 O389 1.267 . S
O383 C382 1.203 . S
O384 C377 1.185 . S
O384 Zn380 2.086 . S
C385 O381 1.278 . S
C385 O386 1.211 . S
O386 C385 1.211 . S
C387 O379 1.284 . S
C387 O388 1.273 . S
O388 C387 1.273 . S
O389 Zn380 1.977 . S
O389 C382 1.267 . S
C390 O391 1.160 . S
C390 O397 1.185 . S
O391 C390 1.160 . S
O392 Zn393 1.899 . S
O392 C400 1.284 . S
Zn393 O392 1.899 . S
Zn393 O394 2.032 . S
Zn393 O397 2.086 . S
Zn393 O402 1.977 . S
O394 Zn393 2.032 . S
O394 C398 1.278 . S
C395 O396 1.203 . S
C395 O402 1.267 . S
O396 C395 1.203 . S
O397 C390 1.185 . S
O397 Zn393 2.086 . S
C398 O394 1.278 . S
C398 O399 1.211 . S
O399 C398 1.211 . S
C400 O392 1.284 . S
C400 O401 1.273 . S
O401 C400 1.273 . S
O402 Zn393 1.977 . S
O402 C395 1.267 . S
C403 O404 1.160 . S
C403 O410 1.185 . S
O404 C403 1.160 . S
O405 Zn406 1.899 . S
O405 C413 1.284 . S
Zn406 O405 1.899 . S
Zn406 O407 2.032 . S
Zn406 O410 2.086 . S
Zn406 O415 1.977 . S
O407 Zn406 2.032 . S
O407 C411 1.278 . S
C408 O409 1.203 . S
C408 O415 1.267 . S
O409 C408 1.203 . S
O410 C403 1.185 . S
O410 Zn406 2.086 . S
C411 O407 1.278 . S
C411 O412 1.211 . S
O412 C411 1.211 . S
C413 O405 1.284 . S
C413 O414 1.273 . S
O414 C413 1.273 . S
O415 Zn406 1.977 . S
O415 C408 1.267 . S
C416 O417 1.160 . S
C416 O423 1.185 . S
O417 C416 1.160 . S
O418 Zn419 1.899 . S
O418 C426 1.284 . S
Zn419 O418 1.899 . S
Zn419 O420 2.032 . S
Zn419 O423 2.086 . S
Zn419 O428 1.977 . S
O420 Zn419 2.032 . S
O420 C424 1.278 . S
C421 O422 1.203 . S
C421 O428 1.267 . S
O422 C421 1.203 . S
O423 C416 1.185 . S
O423 Zn419 2.086 . S
C424 O420 1.278 . S
C424 O425 1.211 . S
O425 C424 1.211 . S
C426 O418 1.284 . S
C426 O427 1.273 . S
O427 C426 1.273 . S
O428 Zn419 1.977 . S
O428 C421 1.267 . S
C429 O430 1.160 . S
C429 O436 1.185 . S
O430 C429 1.160 . S
O431 Zn432 1.899 . S
O431 C439 1.284 . S
Zn432 O431 1.899 . S
Zn432 O433 2.032 . S
Zn432 O436 2.086 . S
Zn432 O441 1.977 . S
O433 Zn432 2.032 . S
O433 C437 1.278 . S
C434 O435 1.203 . S
C434 O441 1.267 . S
O435 C434 1.203 . S
O436 C429 1.185 . S
O436 Zn432 2.086 . S
C437 O433 1.278 . S
C437 O438 1.211 . S
O438 C437 1.211 . S
C439 O431 1.284 . S
C439 O440 1.273 . S
O440 C439 1.273 . S
O441 Zn432 1.977 . S
O441 C434 1.267 . S
C442 O443 1.160 . S
C442 O449 1.185 . S
O443 C442 1.160 . S
O444 Zn445 1.899 . S
O444 C452 1.284 . S
Zn445 O444 1.899 . S
Zn445 O446 2.032 . S
Zn445 O449 2.086 . S
Zn445 O454 1.977 . S
O446 Zn445 2.032 . S
O446 C450 1.278 . S
C447 O448 1.203 . S
C447 O454 1.267 . S
O448 C447 1.203 . S
O449 C442 1.185 . S
O449 Zn445 2.086 . S
C450 O446 1.278 . S
C450 O451 1.211 . S
O451 C450 1.211 . S
C452 O444 1.284 . S
C452 O453 1.273 . S
O453 C452 1.273 . S
O454 Zn445 1.977 . S
O454 C447 1.267 . S
C455 O456 1.160 . S
C455 O462 1.185 . S
O456 C455 1.160 . S
O457 Zn458 1.899 . S
O457 C465 1.284 . S
Zn458 O457 1.899 . S
Zn458 O459 2.032 . S
Zn458 O462 2.086 . S
Zn458 O467 1.977 . S
O459 Zn458 2.032 . S
O459 C463 1.278 . S
C460 O461 1.203 . S
C460 O467 1.267 . S
O461 C460 1.203 . S
O462 C455 1.185 . S
O462 Zn458 2.086 . S
C463 O459 1.278 . S
C463 O464 1.211 . S
O464 C463 1.211 . S
C465 O457 1.284 . S
C465 O466 1.273 . S
O466 C465 1.273 . S
O467 Zn458 1.977 . S
O467 C460 1.267 . S
C468 O469 1.160 . S
C468 O475 1.185 . S
O469 C468 1.160 . S
O470 Zn471 1.899 . S
O470 C478 1.284 . S
Zn471 O470 1.899 . S
Zn471 O472 2.032 . S
Zn471 O475 2.086 . S
Zn471 O480 1.977 . S
O472 Zn471 2.032 . S
O472 C476 1.278 . S
C473 O474 1.203 . S
C473 O480 1.267 . S
O474 C473 1.203 . S
O475 C468 1.185 . S
O475 Zn471 2.086 . S
C476 O472 1.278 . S
C476 O477 1.211 . S
O477 C476 1.211 . S
C478 O470 1.284 . S
C478 O479 1.273 . S
O479 C478 1.273 . S
O480 Zn471 1.977 . S
O480 C473 1.267 . S
C481 O482 1.160 . S
C481 O488 1.185 . S
O482 C481 1.160 . S
O483 Zn484 1.899 . S
O483 C491 1.284 . S
Zn484 O483 1.899 . S
Zn484 O485 2.032 . S
Zn484 O488 2.086 . S
Zn484 O493 1.977 . S
O485 Zn484 2.032 . S
O485 C489 1.278 . S
C486 O487 1.203 . S
C486 O493 1.267 . S
O487 C486 1.203 . S
O488 C481 1.185 . S
O488 Zn484 2.086 . S
C489 O485 1.278 . S
C489 O490 1.211 . S
O490 C489 1.211 . S
C491 O483 1.284 . S
C491 O492 1.273 . S
O492 C491 1.273 . S
O493 Zn484 1.977 . S
O493 C486 1.267 . S
C494 O495 1.160 . S
C494 O501 1.185 . S
O495 C494 1.160 . S
O496 Zn497 1.899 . S
O496 C504 1.284 . S
Zn497 O496 1.899 . S
Zn497 O498 2.032 . S
Zn497 O501 2.086 . S
Zn497 O506 1.977 . S
O498 Zn497 2.032 . S
O498 C502 1.278 . S
C499 O500 1.203 . S
C499 O506 1.267 . S
O500 C499 1.203 . S
O501 C494 1.185 . S
O501 Zn497 2.086 . S
C502 O498 1.278 . S
C502 O503 1.211 . S
O503 C502 1.211 . S
C504 O496 1.284 . S
C504 O505 1.273 . S
O505 C504 1.273 . S
O506 Zn497 1.977 . S
O506 C499 1.267 . S
C507 O508 1.160 . S
C507 O514 1.185 . S
O508 C507 1.160 . S
O509 Zn510 1.899 . S
O509 C517 1.284 . S
Zn510 O509 1.899 . S
Zn510 O511 2.032 . S
Zn510 O514 2.086 . S
Zn510 O519 1.977 . S
O511 Zn510 2.032 . S
O511 C515 1.278 . S
C512 O513 1.203 . S
C512 O519 1.267 . S
O513 C512 1.203 . S
O514 C507 1.185 . S
O514 Zn510 2.086 . S
C515 O511 1.278 . S
C515 O516 1.211 . S
O516 C515 1.211 . S
C517 O509 1.284 . S
C517 O518 1.273 . S
O518 C517 1.273 . S
O519 Zn510 1.977 . S
O519 C512 1.267 . S
C520 O521 1.160 . S
C520 O527 1.185 . S
O521 C520 1.160 . S
O522 Zn523 1.899 . S
O522 C530 1.284 . S
Zn523 O522 1.899 . S
Zn523 O524 2.032 . S
Zn523 O527 2.086 . S
Zn523 O532 1.977 . S
O524 Zn523 2.032 . S
O524 C528 1.278 . S
C525 O526 1.203 . S
C525 O532 1.267 . S
O526 C525 1.203 . S
O527 C520 1.185 . S
O527 Zn523 2.086 . S
C528 O524 1.278 . S
C528 O529 1.211 . S
O529 C528 1.211 . S
C530 O522 1.284 . S
C530 O531 1.273 . S
O531 C530 1.273 . S
O532 Zn523 1.977 . S
O532 C525 1.267 . S
C533 O534 1.160 . S
C533 O540 1.185 . S
O534 C533 1.160 . S
O535 Zn536 1.899 . S
O535 C543 1.284 . S
Zn536 O535 1.899 . S
Zn536 O537 2.032 . S
Zn536 O540 2.086 . S
Zn536 O545 1.977 . S
O537 Zn536 2.032 . S
O537 C541 1.278 . S
C538 O539 1.203 . S
C538 O545 1.267 . S
O539 C538 1.203 . S
O540 C533 1.185 . S
O540 Zn536 2.086 . S
C541 O537 1.278 . S
C541 O542 1.211 . S
O542 C541 1.211 . S
C543 O535 1.284 . S
C543 O544 1.273 . S
O544 C543 1.273 . S
O545 Zn536 1.977 . S
O545 C538 1.267 . S
C546 O547 1.160 . S
C546 O553 1.185 . S
O547 C546 1.160 . S
O548 Zn549 1.899 . S
O548 C556 1.284 . S
Zn549 O548 1.899 . S
Zn549 O550 2.032 . S
Zn549 O553 2.086 . S
Zn549 O558 1.977 . S
O550 Zn549 2.032 . S
O550 C554 1.278 . S
C551 O552 1.203 . S
C551 O558 1.267 . S
O552 C551 1.203 . S
O553 C546 1.185 . S
O553 Zn549 2.086 . S
C554 O550 1.278 . S
C554 O555 1.211 . S
O555 C554 1.211 . S
C556 O548 1.284 . S
C556 O557 1.273 . S
O557 C556 1.273 . S
O558 Zn549 1.977 . S
O558 C551 1.267 . S
C559 O560 1.160 . S
C559 O566 1.185 . S
O560 C559 1.160 . S
O561 Zn562 1.899 . S
O561 C569 1.284 . S
Zn562 O561 1.899 . S
Zn562 O563 2.032 . S
Zn562 O566 2.086 . S
Zn562 O571 1.977 . S
O563 Zn562 2.032 . S
O563 C567 1.278 . S
C564 O565 1.203 . S
C564 O571 1.267 . S
O565 C564 1.203 . S
O566 C559 1.185 . S
O566 Zn562 2.086 . S
C567 O563 1.278 . S
C567 O568 1.211 . S
O568 C567 1.211 . S
C569 O561 1.284 . S
C569 O570 1.273 . S
O570 C569 1.273 . S
O571 Zn562 1.977 . S
O571 C564 1.267 . S
C572 O573 1.160 . S
C572 O579 1.185 . S
O573 C572 1.160 . S
O574 Zn575 1.899 . S
O574 C582 1.284 . S
Zn575 O574 1.899 . S
Zn575 O576 2.032 . S
Zn575 O579 2.086 . S
Zn575 O584 1.977 . S
O576 Zn575 2.032 . S
O576 C580 1.278 . S
C577 O578 1.203 . S
C577 O584 1.267 . S
O578 C577 1.203 . S
O579 C572 1.185 . S
O579 Zn575 2.086 . S
C580 O576 1.278 . S
C580 O581 1.211 . S
O581 C580 1.211 . S
C582 O574 1.284 . S
C582 O583 1.273 . S
O583 C582 1.273 . S
O584 Zn575 1.977 . S
O584 C577 1.267 . S
C585 O586 1.160 . S
C585 O592 1.185 . S
O586 C585 1.160 . S
O587 Zn588 1.899 . S
O587 C595 1.284 . S
Zn588 O587 1.899 . S
Zn588 O589 2.032 . S
Zn588 O592 2.086 . S
Zn588 O597 1.977 . S
O589 Zn588 2.032 . S
O589 C593 1.278 . S
C590 O591 1.203 . S
C590 O597 1.267 . S
O591 C590 1.203 . S
O592 C585 1.185 . S
O592 Zn588 2.086 . S
C593 O589 1.278 . S
C593 O594 1.211 . S
O594 C593 1.211 . S
C595 O587 1.284 . S
C595 O596 1.273 . S
O596 C595 1.273 . S
O597 Zn588 1.977 . S
O597 C590 1.267 . S
C598 O599 1.160 . S
C598 O605 1.185 . S
O599 C598 1.160 . S
O600 Zn601 1.899 . S
O600 C608 1.284 . S
Zn601 O600 1.899 . S
Zn601 O602 2.032 . S
Zn601 O605 2.086 . S
Zn601 O610 1.977 . S
O602 Zn601 2.032 . S
O602 C606 1.278 . S
C603 O604 1.203 . S
C603 O610 1.267 . S
O604 C603 1.203 . S
O605 C598 1.185 . S
O605 Zn601 2.086 . S
C606 O602 1.278 . S
C606 O607 1.211 . S
O607 C606 1.211 . S
C608 O600 1.284 . S
C608 O609 1.273 . S
O609 C608 1.273 . S
O610 Zn601 1.977 . S
O610 C603 1.267 . S
C611 O612 1.160 . S
C611 O618 1.185 . S
O612 C611 1.160 . S
O613 Zn614 1.899 . S
O613 C621 1.284 . S
Zn614 O613 1.899 . S
Zn614 O615 2.032 . S
Zn614 O618 2.086 . S
Zn614 O623 1.977 . S
O615 Zn614 2.032 . S
O615 C619 1.278 . S
C616 O617 1.203 . S
C616 O623 1.267 . S
O617 C616 1.203 . S
O618 C611 1.185 . S
O618 Zn614 2.086 . S
C619 O615 1.278 . S
C619 O620 1.211 . S
O620 C619 1.211 . S
C621 O613 1.284 . S
C621 O622 1.273 . S
O622 C621 1.273 . S
O623 Zn614 1.977 . S
O623 C616 1.267 . S
H624 C630 0.930 . S
H625 C634 0.930 . S
H626 C639 0.929 . S
H627 C637 0.929 . S
H628 C632 0.929 . S
H629 C638 0.929 . S
C630 H624 0.930 . S
C630 C631 1.367 . S
C630 C638 1.378 . S
C631 C630 1.367 . S
C631 C639 1.433 . S
C632 H628 0.929 . S
C632 C634 1.378 . S
C632 C636 1.350 . S
C633 C636 1.463 1_655 S
C633 C638 1.350 . S
C633 N641 1.427 . S
C634 H625 0.930 . S
C634 C632 1.378 . S
C634 C635 1.367 . S
C635 C634 1.367 . S
C635 C637 1.433 . S
C636 C632 1.350 . S
C636 C633 1.463 1_455 S
C636 N640 1.427 . S
C637 H627 0.929 . S
C637 C635 1.433 . S
C637 N640 1.384 . S
C638 H629 0.929 . S
C638 C630 1.378 . S
C638 C633 1.350 . S
C639 H626 0.929 . S
C639 C631 1.433 . S
C639 N641 1.384 . S
N640 C636 1.427 . S
N640 C637 1.384 . S
N641 C633 1.427 . S
N641 C639 1.384 . S
H642 C648 0.930 . S
H643 C652 0.930 . S
H644 C657 0.929 . S
H645 C655 0.929 . S
H646 C650 0.929 . S
H647 C656 0.929 . S
C648 H642 0.930 . S
C648 C649 1.367 . S
C648 C656 1.378 . S
C649 C648 1.367 . S
C649 C657 1.433 . S
C650 H646 0.929 . S
C650 C652 1.378 . S
C650 C654 1.350 . S
C651 C654 1.463 . S
C651 C656 1.350 . S
C651 N659 1.427 . S
C652 H643 0.930 . S
C652 C650 1.378 . S
C652 C653 1.367 . S
C653 C652 1.367 . S
C653 C655 1.433 . S
C654 C650 1.350 . S
C654 C651 1.463 . S
C654 N658 1.427 . S
C655 H645 0.929 . S
C655 C653 1.433 . S
C655 N658 1.384 . S
C656 H647 0.929 . S
C656 C648 1.378 . S
C656 C651 1.350 . S
C657 H644 0.929 . S
C657 C649 1.433 . S
C657 N659 1.384 . S
N658 C654 1.427 . S
N658 C655 1.384 . S
N659 C651 1.427 . S
N659 C657 1.384 . S
H660 C666 0.930 . S
H661 C670 0.930 . S
H662 C675 0.929 . S
H663 C673 0.929 . S
H664 C668 0.929 . S
H665 C674 0.929 . S
C666 H660 0.930 . S
C666 C667 1.367 . S
C666 C674 1.378 . S
C667 C666 1.367 . S
C667 C675 1.433 . S
C668 H664 0.929 . S
C668 C670 1.378 . S
C668 C672 1.350 . S
C669 C672 1.463 1_455 S
C669 C674 1.350 . S
C669 N677 1.427 . S
C670 H661 0.930 . S
C670 C668 1.378 . S
C670 C671 1.367 . S
C671 C670 1.367 . S
C671 C673 1.433 . S
C672 C668 1.350 . S
C672 C669 1.463 1_655 S
C672 N676 1.427 . S
C673 H663 0.929 . S
C673 C671 1.433 . S
C673 N676 1.384 . S
C674 H665 0.929 . S
C674 C666 1.378 . S
C674 C669 1.350 . S
C675 H662 0.929 . S
C675 C667 1.433 . S
C675 N677 1.384 . S
N676 C672 1.427 . S
N676 C673 1.384 . S
N677 C669 1.427 . S
N677 C675 1.384 . S
H678 C684 0.930 . S
H679 C688 0.930 . S
H680 C693 0.929 . S
H681 C691 0.929 . S
H682 C686 0.929 . S
H683 C692 0.929 . S
C684 H678 0.930 . S
C684 C685 1.367 . S
C684 C692 1.378 . S
C685 C684 1.367 . S
C685 C693 1.433 . S
C686 H682 0.929 . S
C686 C688 1.378 . S
C686 C690 1.350 . S
C687 C690 1.463 . S
C687 C692 1.350 . S
C687 N695 1.427 . S
C688 H679 0.930 . S
C688 C686 1.378 . S
C688 C689 1.367 . S
C689 C688 1.367 . S
C689 C691 1.433 . S
C690 C686 1.350 . S
C690 C687 1.463 . S
C690 N694 1.427 . S
C691 H681 0.929 . S
C691 C689 1.433 . S
C691 N694 1.384 . S
C692 H683 0.929 . S
C692 C684 1.378 . S
C692 C687 1.350 . S
C693 H680 0.929 . S
C693 C685 1.433 . S
C693 N695 1.384 . S
N694 C690 1.427 . S
N694 C691 1.384 . S
N695 C687 1.427 . S
N695 C693 1.384 . S
H696 C702 0.930 . S
H697 C706 0.930 . S
H698 C711 0.929 . S
H699 C709 0.929 . S
H700 C704 0.929 . S
H701 C710 0.929 . S
C702 H696 0.930 . S
C702 C703 1.367 . S
C702 C710 1.378 . S
C703 C702 1.367 . S
C703 C711 1.433 . S
C704 H700 0.929 . S
C704 C706 1.378 . S
C704 C708 1.350 . S
C705 C708 1.463 1_655 S
C705 C710 1.350 . S
C705 N713 1.427 . S
C706 H697 0.930 . S
C706 C704 1.378 . S
C706 C707 1.367 . S
C707 C706 1.367 . S
C707 C709 1.433 . S
C708 C704 1.350 . S
C708 C705 1.463 1_455 S
C708 N712 1.427 . S
C709 H699 0.929 . S
C709 C707 1.433 . S
C709 N712 1.384 . S
C710 H701 0.929 . S
C710 C702 1.378 . S
C710 C705 1.350 . S
C711 H698 0.929 . S
C711 C703 1.433 . S
C711 N713 1.384 . S
N712 C708 1.427 . S
N712 C709 1.384 . S
N713 C705 1.427 . S
N713 C711 1.384 . S
H714 C720 0.930 . S
H715 C724 0.930 . S
H716 C729 0.929 . S
H717 C727 0.929 . S
H718 C722 0.929 . S
H719 C728 0.929 . S
C720 H714 0.930 . S
C720 C721 1.367 . S
C720 C728 1.378 . S
C721 C720 1.367 . S
C721 C729 1.433 . S
C722 H718 0.929 . S
C722 C724 1.378 . S
C722 C726 1.350 . S
C723 C726 1.463 . S
C723 C728 1.350 . S
C723 N731 1.427 . S
C724 H715 0.930 . S
C724 C722 1.378 . S
C724 C725 1.367 . S
C725 C724 1.367 . S
C725 C727 1.433 . S
C726 C722 1.350 . S
C726 C723 1.463 . S
C726 N730 1.427 . S
C727 H717 0.929 . S
C727 C725 1.433 . S
C727 N730 1.384 . S
C728 H719 0.929 . S
C728 C720 1.378 . S
C728 C723 1.350 . S
C729 H716 0.929 . S
C729 C721 1.433 . S
C729 N731 1.384 . S
N730 C726 1.427 . S
N730 C727 1.384 . S
N731 C723 1.427 . S
N731 C729 1.384 . S
H732 C738 0.930 . S
H733 C742 0.930 . S
H734 C747 0.929 . S
H735 C745 0.929 . S
H736 C740 0.929 . S
H737 C746 0.929 . S
C738 H732 0.930 . S
C738 C739 1.367 . S
C738 C746 1.378 . S
C739 C738 1.367 . S
C739 C747 1.433 . S
C740 H736 0.929 . S
C740 C742 1.378 . S
C740 C744 1.350 . S
C741 C744 1.463 1_455 S
C741 C746 1.350 . S
C741 N749 1.427 . S
C742 H733 0.930 . S
C742 C740 1.378 . S
C742 C743 1.367 . S
C743 C742 1.367 . S
C743 C745 1.433 . S
C744 C740 1.350 . S
C744 C741 1.463 1_655 S
C744 N748 1.427 . S
C745 H735 0.929 . S
C745 C743 1.433 . S
C745 N748 1.384 . S
C746 H737 0.929 . S
C746 C738 1.378 . S
C746 C741 1.350 . S
C747 H734 0.929 . S
C747 C739 1.433 . S
C747 N749 1.384 . S
N748 C744 1.427 . S
N748 C745 1.384 . S
N749 C741 1.427 . S
N749 C747 1.384 . S
H750 C756 0.930 . S
H751 C760 0.930 . S
H752 C765 0.929 . S
H753 C763 0.929 . S
H754 C758 0.929 . S
H755 C764 0.929 . S
C756 H750 0.930 . S
C756 C757 1.367 . S
C756 C764 1.378 . S
C757 C756 1.367 . S
C757 C765 1.433 . S
C758 H754 0.929 . S
C758 C760 1.378 . S
C758 C762 1.350 . S
C759 C762 1.463 . S
C759 C764 1.350 . S
C759 N767 1.427 . S
C760 H751 0.930 . S
C760 C758 1.378 . S
C760 C761 1.367 . S
C761 C760 1.367 . S
C761 C763 1.433 . S
C762 C758 1.350 . S
C762 C759 1.463 . S
C762 N766 1.427 . S
C763 H753 0.929 . S
C763 C761 1.433 . S
C763 N766 1.384 . S
C764 H755 0.929 . S
C764 C756 1.378 . S
C764 C759 1.350 . S
C765 H752 0.929 . S
C765 C757 1.433 . S
C765 N767 1.384 . S
N766 C762 1.427 . S
N766 C763 1.384 . S
N767 C759 1.427 . S
N767 C765 1.384 . S
H768 C774 0.930 . S
H769 C778 0.930 . S
H770 C783 0.929 . S
H771 C781 0.929 . S
H772 C776 0.929 . S
H773 C782 0.929 . S
C774 H768 0.930 . S
C774 C775 1.367 . S
C774 C782 1.378 . S
C775 C774 1.367 . S
C775 C783 1.433 . S
C776 H772 0.929 . S
C776 C778 1.378 . S
C776 C780 1.350 . S
C777 C780 1.463 1_565 S
C777 C782 1.350 . S
C777 N785 1.427 . S
C778 H769 0.930 . S
C778 C776 1.378 . S
C778 C779 1.367 . S
C779 C778 1.367 . S
C779 C781 1.433 . S
C780 C776 1.350 . S
C780 C777 1.463 1_545 S
C780 N784 1.427 . S
C781 H771 0.929 . S
C781 C779 1.433 . S
C781 N784 1.384 . S
C782 H773 0.929 . S
C782 C774 1.378 . S
C782 C777 1.350 . S
C783 H770 0.929 . S
C783 C775 1.433 . S
C783 N785 1.384 . S
N784 C780 1.427 . S
N784 C781 1.384 . S
N785 C777 1.427 . S
N785 C783 1.384 . S
H786 C792 0.930 . S
H787 C796 0.930 . S
H788 C801 0.929 . S
H789 C799 0.929 . S
H790 C794 0.929 . S
H791 C800 0.929 . S
C792 H786 0.930 . S
C792 C793 1.367 . S
C792 C800 1.378 . S
C793 C792 1.367 . S
C793 C801 1.433 . S
C794 H790 0.929 . S
C794 C796 1.378 . S
C794 C798 1.350 . S
C795 C798 1.463 . S
C795 C800 1.350 . S
C795 N803 1.427 . S
C796 H787 0.930 . S
C796 C794 1.378 . S
C796 C797 1.367 . S
C797 C796 1.367 . S
C797 C799 1.433 . S
C798 C794 1.350 . S
C798 C795 1.463 . S
C798 N802 1.427 . S
C799 H789 0.929 . S
C799 C797 1.433 . S
C799 N802 1.384 . S
C800 H791 0.929 . S
C800 C792 1.378 . S
C800 C795 1.350 . S
C801 H788 0.929 . S
C801 C793 1.433 . S
C801 N803 1.384 . S
N802 C798 1.427 . S
N802 C799 1.384 . S
N803 C795 1.427 . S
N803 C801 1.384 . S
H804 C810 0.930 . S
H805 C814 0.930 . S
H806 C819 0.929 . S
H807 C817 0.929 . S
H808 C812 0.929 . S
H809 C818 0.929 . S
C810 H804 0.930 . S
C810 C811 1.367 . S
C810 C818 1.378 . S
C811 C810 1.367 . S
C811 C819 1.433 . S
C812 H808 0.929 . S
C812 C814 1.378 . S
C812 C816 1.350 . S
C813 C816 1.463 1_545 S
C813 C818 1.350 . S
C813 N821 1.427 . S
C814 H805 0.930 . S
C814 C812 1.378 . S
C814 C815 1.367 . S
C815 C814 1.367 . S
C815 C817 1.433 . S
C816 C812 1.350 . S
C816 C813 1.463 1_565 S
C816 N820 1.427 . S
C817 H807 0.929 . S
C817 C815 1.433 . S
C817 N820 1.384 . S
C818 H809 0.929 . S
C818 C810 1.378 . S
C818 C813 1.350 . S
C819 H806 0.929 . S
C819 C811 1.433 . S
C819 N821 1.384 . S
N820 C816 1.427 . S
N820 C817 1.384 . S
N821 C813 1.427 . S
N821 C819 1.384 . S
H822 C828 0.930 . S
H823 C832 0.930 . S
H824 C837 0.929 . S
H825 C835 0.929 . S
H826 C830 0.929 . S
H827 C836 0.929 . S
C828 H822 0.930 . S
C828 C829 1.367 . S
C828 C836 1.378 . S
C829 C828 1.367 . S
C829 C837 1.433 . S
C830 H826 0.929 . S
C830 C832 1.378 . S
C830 C834 1.350 . S
C831 C834 1.463 . S
C831 C836 1.350 . S
C831 N839 1.427 . S
C832 H823 0.930 . S
C832 C830 1.378 . S
C832 C833 1.367 . S
C833 C832 1.367 . S
C833 C835 1.433 . S
C834 C830 1.350 . S
C834 C831 1.463 . S
C834 N838 1.427 . S
C835 H825 0.929 . S
C835 C833 1.433 . S
C835 N838 1.384 . S
C836 H827 0.929 . S
C836 C828 1.378 . S
C836 C831 1.350 . S
C837 H824 0.929 . S
C837 C829 1.433 . S
C837 N839 1.384 . S
N838 C834 1.427 . S
N838 C835 1.384 . S
N839 C831 1.427 . S
N839 C837 1.384 . S
H840 C846 0.930 . S
H841 C850 0.930 . S
H842 C855 0.929 . S
H843 C853 0.929 . S
H844 C848 0.929 . S
H845 C854 0.929 . S
C846 H840 0.930 . S
C846 C847 1.367 . S
C846 C854 1.378 . S
C847 C846 1.367 . S
C847 C855 1.433 . S
C848 H844 0.929 . S
C848 C850 1.378 . S
C848 C852 1.350 . S
C849 C852 1.463 1_545 S
C849 C854 1.350 . S
C849 N857 1.427 . S
C850 H841 0.930 . S
C850 C848 1.378 . S
C850 C851 1.367 . S
C851 C850 1.367 . S
C851 C853 1.433 . S
C852 C848 1.350 . S
C852 C849 1.463 1_565 S
C852 N856 1.427 . S
C853 H843 0.929 . S
C853 C851 1.433 . S
C853 N856 1.384 . S
C854 H845 0.929 . S
C854 C846 1.378 . S
C854 C849 1.350 . S
C855 H842 0.929 . S
C855 C847 1.433 . S
C855 N857 1.384 . S
N856 C852 1.427 . S
N856 C853 1.384 . S
N857 C849 1.427 . S
N857 C855 1.384 . S
H858 C864 0.930 . S
H859 C868 0.930 . S
H860 C873 0.929 . S
H861 C871 0.929 . S
H862 C866 0.929 . S
H863 C872 0.929 . S
C864 H858 0.930 . S
C864 C865 1.367 . S
C864 C872 1.378 . S
C865 C864 1.367 . S
C865 C873 1.433 . S
C866 H862 0.929 . S
C866 C868 1.378 . S
C866 C870 1.350 . S
C867 C870 1.463 . S
C867 C872 1.350 . S
C867 N875 1.427 . S
C868 H859 0.930 . S
C868 C866 1.378 . S
C868 C869 1.367 . S
C869 C868 1.367 . S
C869 C871 1.433 . S
C870 C866 1.350 . S
C870 C867 1.463 . S
C870 N874 1.427 . S
C871 H861 0.929 . S
C871 C869 1.433 . S
C871 N874 1.384 . S
C872 H863 0.929 . S
C872 C864 1.378 . S
C872 C867 1.350 . S
C873 H860 0.929 . S
C873 C865 1.433 . S
C873 N875 1.384 . S
N874 C870 1.427 . S
N874 C871 1.384 . S
N875 C867 1.427 . S
N875 C873 1.384 . S
H876 C882 0.930 . S
H877 C886 0.930 . S
H878 C891 0.929 . S
H879 C889 0.929 . S
H880 C884 0.929 . S
H881 C890 0.929 . S
C882 H876 0.930 . S
C882 C883 1.367 . S
C882 C890 1.378 . S
C883 C882 1.367 . S
C883 C891 1.433 . S
C884 H880 0.929 . S
C884 C886 1.378 . S
C884 C888 1.350 . S
C885 C888 1.463 1_545 S
C885 C890 1.350 . S
C885 N893 1.427 . S
C886 H877 0.930 . S
C886 C884 1.378 . S
C886 C887 1.367 . S
C887 C886 1.367 . S
C887 C889 1.433 . S
C888 C884 1.350 . S
C888 C885 1.463 1_565 S
C888 N892 1.427 . S
C889 H879 0.929 . S
C889 C887 1.433 . S
C889 N892 1.384 . S
C890 H881 0.929 . S
C890 C882 1.378 . S
C890 C885 1.350 . S
C891 H878 0.929 . S
C891 C883 1.433 . S
C891 N893 1.384 . S
N892 C888 1.427 . S
N892 C889 1.384 . S
N893 C885 1.427 . S
N893 C891 1.384 . S
H894 C900 0.930 . S
H895 C904 0.930 . S
H896 C909 0.929 . S
H897 C907 0.929 . S
H898 C902 0.929 . S
H899 C908 0.929 . S
C900 H894 0.930 . S
C900 C901 1.367 . S
C900 C908 1.378 . S
C901 C900 1.367 . S
C901 C909 1.433 . S
C902 H898 0.929 . S
C902 C904 1.378 . S
C902 C906 1.350 . S
C903 C906 1.463 . S
C903 C908 1.350 . S
C903 N911 1.427 . S
C904 H895 0.930 . S
C904 C902 1.378 . S
C904 C905 1.367 . S
C905 C904 1.367 . S
C905 C907 1.433 . S
C906 C902 1.350 . S
C906 C903 1.463 . S
C906 N910 1.427 . S
C907 H897 0.929 . S
C907 C905 1.433 . S
C907 N910 1.384 . S
C908 H899 0.929 . S
C908 C900 1.378 . S
C908 C903 1.350 . S
C909 H896 0.929 . S
C909 C901 1.433 . S
C909 N911 1.384 . S
N910 C906 1.427 . S
N910 C907 1.384 . S
N911 C903 1.427 . S
N911 C909 1.384 . S
H912 C918 0.930 . S
H913 C922 0.930 . S
H914 C927 0.929 . S
H915 C925 0.929 . S
H916 C920 0.929 . S
H917 C926 0.929 . S
C918 H912 0.930 . S
C918 C919 1.367 . S
C918 C926 1.378 . S
C919 C918 1.367 . S
C919 C927 1.433 . S
C920 H916 0.929 . S
C920 C922 1.378 . S
C920 C924 1.350 . S
C921 C924 1.463 1_554 S
C921 C926 1.350 . S
C921 N929 1.427 . S
C922 H913 0.930 . S
C922 C920 1.378 . S
C922 C923 1.367 . S
C923 C922 1.367 . S
C923 C925 1.433 . S
C924 C920 1.350 . S
C924 C921 1.463 1_556 S
C924 N928 1.427 . S
C925 H915 0.929 . S
C925 C923 1.433 . S
C925 N928 1.384 . S
C926 H917 0.929 . S
C926 C918 1.378 . S
C926 C921 1.350 . S
C927 H914 0.929 . S
C927 C919 1.433 . S
C927 N929 1.384 . S
N928 C924 1.427 . S
N928 C925 1.384 . S
N929 C921 1.427 . S
N929 C927 1.384 . S
H930 C936 0.930 . S
H931 C940 0.930 . S
H932 C945 0.929 . S
H933 C943 0.929 . S
H934 C938 0.929 . S
H935 C944 0.929 . S
C936 H930 0.930 . S
C936 C937 1.367 . S
C936 C944 1.378 . S
C937 C936 1.367 . S
C937 C945 1.433 . S
C938 H934 0.929 . S
C938 C940 1.378 . S
C938 C942 1.350 . S
C939 C942 1.463 1_554 S
C939 C944 1.350 . S
C939 N947 1.427 . S
C940 H931 0.930 . S
C940 C938 1.378 . S
C940 C941 1.367 . S
C941 C940 1.367 . S
C941 C943 1.433 . S
C942 C938 1.350 . S
C942 C939 1.463 1_556 S
C942 N946 1.427 . S
C943 H933 0.929 . S
C943 C941 1.433 . S
C943 N946 1.384 . S
C944 H935 0.929 . S
C944 C936 1.378 . S
C944 C939 1.350 . S
C945 H932 0.929 . S
C945 C937 1.433 . S
C945 N947 1.384 . S
N946 C942 1.427 . S
N946 C943 1.384 . S
N947 C939 1.427 . S
N947 C945 1.384 . S
H948 C954 0.930 . S
H949 C958 0.930 . S
H950 C963 0.929 . S
H951 C961 0.929 . S
H952 C956 0.929 . S
H953 C962 0.929 . S
C954 H948 0.930 . S
C954 C955 1.367 . S
C954 C962 1.378 . S
C955 C954 1.367 . S
C955 C963 1.433 . S
C956 H952 0.929 . S
C956 C958 1.378 . S
C956 C960 1.350 . S
C957 C960 1.463 . S
C957 C962 1.350 . S
C957 N965 1.427 . S
C958 H949 0.930 . S
C958 C956 1.378 . S
C958 C959 1.367 . S
C959 C958 1.367 . S
C959 C961 1.433 . S
C960 C956 1.350 . S
C960 C957 1.463 . S
C960 N964 1.427 . S
C961 H951 0.929 . S
C961 C959 1.433 . S
C961 N964 1.384 . S
C962 H953 0.929 . S
C962 C954 1.378 . S
C962 C957 1.350 . S
C963 H950 0.929 . S
C963 C955 1.433 . S
C963 N965 1.384 . S
N964 C960 1.427 . S
N964 C961 1.384 . S
N965 C957 1.427 . S
N965 C963 1.384 . S
H966 C972 0.930 . S
H967 C976 0.930 . S
H968 C981 0.929 . S
H969 C979 0.929 . S
H970 C974 0.929 . S
H971 C980 0.929 . S
C972 H966 0.930 . S
C972 C973 1.367 . S
C972 C980 1.378 . S
C973 C972 1.367 . S
C973 C981 1.433 . S
C974 H970 0.929 . S
C974 C976 1.378 . S
C974 C978 1.350 . S
C975 C978 1.463 1_554 S
C975 C980 1.350 . S
C975 N983 1.427 . S
C976 H967 0.930 . S
C976 C974 1.378 . S
C976 C977 1.367 . S
C977 C976 1.367 . S
C977 C979 1.433 . S
C978 C974 1.350 . S
C978 C975 1.463 1_556 S
C978 N982 1.427 . S
C979 H969 0.929 . S
C979 C977 1.433 . S
C979 N982 1.384 . S
C980 H971 0.929 . S
C980 C972 1.378 . S
C980 C975 1.350 . S
C981 H968 0.929 . S
C981 C973 1.433 . S
C981 N983 1.384 . S
N982 C978 1.427 . S
N982 C979 1.384 . S
N983 C975 1.427 . S
N983 C981 1.384 . S
H984 C990 0.930 . S
H985 C994 0.930 . S
H986 C999 0.929 . S
H987 C997 0.929 . S
H988 C992 0.929 . S
H989 C998 0.929 . S
C990 H984 0.930 . S
C990 C991 1.367 . S
C990 C998 1.378 . S
C991 C990 1.367 . S
C991 C999 1.433 . S
C992 H988 0.929 . S
C992 C994 1.378 . S
C992 C996 1.350 . S
C993 C996 1.463 . S
C993 C998 1.350 . S
C993 N1001 1.427 . S
C994 H985 0.930 . S
C994 C992 1.378 . S
C994 C995 1.367 . S
C995 C994 1.367 . S
C995 C997 1.433 . S
C996 C992 1.350 . S
C996 C993 1.463 . S
C996 N1000 1.427 . S
C997 H987 0.929 . S
C997 C995 1.433 . S
C997 N1000 1.384 . S
C998 H989 0.929 . S
C998 C990 1.378 . S
C998 C993 1.350 . S
C999 H986 0.929 . S
C999 C991 1.433 . S
C999 N1001 1.384 . S
N1000 C996 1.427 . S
N1000 C997 1.384 . S
N1001 C993 1.427 . S
N1001 C999 1.384 . S
H1002 C1008 0.930 . S
H1003 C1012 0.930 . S
H1004 C1017 0.929 . S
H1005 C1015 0.929 . S
H1006 C1010 0.929 . S
H1007 C1016 0.929 . S
C1008 H1002 0.930 . S
C1008 C1009 1.367 . S
C1008 C1016 1.378 . S
C1009 C1008 1.367 . S
C1009 C1017 1.433 . S
C1010 H1006 0.929 . S
C1010 C1012 1.378 . S
C1010 C1014 1.350 . S
C1011 C1014 1.463 1_554 S
C1011 C1016 1.350 . S
C1011 N1019 1.427 . S
C1012 H1003 0.930 . S
C1012 C1010 1.378 . S
C1012 C1013 1.367 . S
C1013 C1012 1.367 . S
C1013 C1015 1.433 . S
C1014 C1010 1.350 . S
C1014 C1011 1.463 1_556 S
C1014 N1018 1.427 . S
C1015 H1005 0.929 . S
C1015 C1013 1.433 . S
C1015 N1018 1.384 . S
C1016 H1007 0.929 . S
C1016 C1008 1.378 . S
C1016 C1011 1.350 . S
C1017 H1004 0.929 . S
C1017 C1009 1.433 . S
C1017 N1019 1.384 . S
N1018 C1014 1.427 . S
N1018 C1015 1.384 . S
N1019 C1011 1.427 . S
N1019 C1017 1.384 . S
H1020 C1026 0.930 . S
H1021 C1030 0.930 . S
H1022 C1035 0.929 . S
H1023 C1033 0.929 . S
H1024 C1028 0.929 . S
H1025 C1034 0.929 . S
C1026 H1020 0.930 . S
C1026 C1027 1.367 . S
C1026 C1034 1.378 . S
C1027 C1026 1.367 . S
C1027 C1035 1.433 . S
C1028 H1024 0.929 . S
C1028 C1030 1.378 . S
C1028 C1032 1.350 . S
C1029 C1032 1.463 . S
C1029 C1034 1.350 . S
C1029 N1037 1.427 . S
C1030 H1021 0.930 . S
C1030 C1028 1.378 . S
C1030 C1031 1.367 . S
C1031 C1030 1.367 . S
C1031 C1033 1.433 . S
C1032 C1028 1.350 . S
C1032 C1029 1.463 . S
C1032 N1036 1.427 . S
C1033 H1023 0.929 . S
C1033 C1031 1.433 . S
C1033 N1036 1.384 . S
C1034 H1025 0.929 . S
C1034 C1026 1.378 . S
C1034 C1029 1.350 . S
C1035 H1022 0.929 . S
C1035 C1027 1.433 . S
C1035 N1037 1.384 . S
N1036 C1032 1.427 . S
N1036 C1033 1.384 . S
N1037 C1029 1.427 . S
N1037 C1035 1.384 . S
H1038 C1044 0.930 . S
H1039 C1048 0.930 . S
H1040 C1053 0.929 . S
H1041 C1051 0.929 . S
H1042 C1046 0.929 . S
H1043 C1052 0.929 . S
C1044 H1038 0.930 . S
C1044 C1045 1.367 . S
C1044 C1052 1.378 . S
C1045 C1044 1.367 . S
C1045 C1053 1.433 . S
C1046 H1042 0.929 . S
C1046 C1048 1.378 . S
C1046 C1050 1.350 . S
C1047 C1050 1.463 . S
C1047 C1052 1.350 . S
C1047 N1055 1.427 . S
C1048 H1039 0.930 . S
C1048 C1046 1.378 . S
C1048 C1049 1.367 . S
C1049 C1048 1.367 . S
C1049 C1051 1.433 . S
C1050 C1046 1.350 . S
C1050 C1047 1.463 . S
C1050 N1054 1.427 . S
C1051 H1041 0.929 . S
C1051 C1049 1.433 . S
C1051 N1054 1.384 . S
C1052 H1043 0.929 . S
C1052 C1044 1.378 . S
C1052 C1047 1.350 . S
C1053 H1040 0.929 . S
C1053 C1045 1.433 . S
C1053 N1055 1.384 . S
N1054 C1050 1.427 . S
N1054 C1051 1.384 . S
N1055 C1047 1.427 . S
N1055 C1053 1.384 . S
H1056 C1062 0.930 . S
H1057 C1066 0.930 . S
H1058 C1071 0.929 . S
H1059 C1069 0.929 . S
H1060 C1064 0.929 . S
H1061 C1070 0.929 . S
C1062 H1056 0.930 . S
C1062 C1063 1.367 . S
C1062 C1070 1.378 . S
C1063 C1062 1.367 . S
C1063 C1071 1.433 . S
C1064 H1060 0.929 . S
C1064 C1066 1.378 . S
C1064 C1068 1.350 . S
C1065 C1068 1.463 . S
C1065 C1070 1.350 . S
C1065 N1073 1.427 . S
C1066 H1057 0.930 . S
C1066 C1064 1.378 . S
C1066 C1067 1.367 . S
C1067 C1066 1.367 . S
C1067 C1069 1.433 . S
C1068 C1064 1.350 . S
C1068 C1065 1.463 . S
C1068 N1072 1.427 . S
C1069 H1059 0.929 . S
C1069 C1067 1.433 . S
C1069 N1072 1.384 . S
C1070 H1061 0.929 . S
C1070 C1062 1.378 . S
C1070 C1065 1.350 . S
C1071 H1058 0.929 . S
C1071 C1063 1.433 . S
C1071 N1073 1.384 . S
N1072 C1068 1.427 . S
N1072 C1069 1.384 . S
N1073 C1065 1.427 . S
N1073 C1071 1.384 . S
H1074 C1080 0.930 . S
H1075 C1084 0.930 . S
H1076 C1089 0.929 . S
H1077 C1087 0.929 . S
H1078 C1082 0.929 . S
H1079 C1088 0.929 . S
C1080 H1074 0.930 . S
C1080 C1081 1.367 . S
C1080 C1088 1.378 . S
C1081 C1080 1.367 . S
C1081 C1089 1.433 . S
C1082 H1078 0.929 . S
C1082 C1084 1.378 . S
C1082 C1086 1.350 . S
C1083 C1086 1.463 . S
C1083 C1088 1.350 . S
C1083 N1091 1.427 . S
C1084 H1075 0.930 . S
C1084 C1082 1.378 . S
C1084 C1085 1.367 . S
C1085 C1084 1.367 . S
C1085 C1087 1.433 . S
C1086 C1082 1.350 . S
C1086 C1083 1.463 . S
C1086 N1090 1.427 . S
C1087 H1077 0.929 . S
C1087 C1085 1.433 . S
C1087 N1090 1.384 . S
C1088 H1079 0.929 . S
C1088 C1080 1.378 . S
C1088 C1083 1.350 . S
C1089 H1076 0.929 . S
C1089 C1081 1.433 . S
C1089 N1091 1.384 . S
N1090 C1086 1.427 . S
N1090 C1087 1.384 . S
N1091 C1083 1.427 . S
N1091 C1089 1.384 . S
H1092 C1098 0.930 . S
H1093 C1102 0.930 . S
H1094 C1107 0.929 . S
H1095 C1105 0.929 . S
H1096 C1100 0.929 . S
H1097 C1106 0.929 . S
C1098 H1092 0.930 . S
C1098 C1099 1.367 . S
C1098 C1106 1.378 . S
C1099 C1098 1.367 . S
C1099 C1107 1.433 . S
C1100 H1096 0.929 . S
C1100 C1102 1.378 . S
C1100 C1104 1.350 . S
C1101 C1104 1.463 . S
C1101 C1106 1.350 . S
C1101 N1109 1.427 . S
C1102 H1093 0.930 . S
C1102 C1100 1.378 . S
C1102 C1103 1.367 . S
C1103 C1102 1.367 . S
C1103 C1105 1.433 . S
C1104 C1100 1.350 . S
C1104 C1101 1.463 . S
C1104 N1108 1.427 . S
C1105 H1095 0.929 . S
C1105 C1103 1.433 . S
C1105 N1108 1.384 . S
C1106 H1097 0.929 . S
C1106 C1098 1.378 . S
C1106 C1101 1.350 . S
C1107 H1094 0.929 . S
C1107 C1099 1.433 . S
C1107 N1109 1.384 . S
N1108 C1104 1.427 . S
N1108 C1105 1.384 . S
N1109 C1101 1.427 . S
N1109 C1107 1.384 . S
H1110 C1116 0.930 . S
H1111 C1120 0.930 . S
H1112 C1125 0.929 . S
H1113 C1123 0.929 . S
H1114 C1118 0.929 . S
H1115 C1124 0.929 . S
C1116 H1110 0.930 . S
C1116 C1117 1.367 . S
C1116 C1124 1.378 . S
C1117 C1116 1.367 . S
C1117 C1125 1.433 . S
C1118 H1114 0.929 . S
C1118 C1120 1.378 . S
C1118 C1122 1.350 . S
C1119 C1122 1.463 . S
C1119 C1124 1.350 . S
C1119 N1127 1.427 . S
C1120 H1111 0.930 . S
C1120 C1118 1.378 . S
C1120 C1121 1.367 . S
C1121 C1120 1.367 . S
C1121 C1123 1.433 . S
C1122 C1118 1.350 . S
C1122 C1119 1.463 . S
C1122 N1126 1.427 . S
C1123 H1113 0.929 . S
C1123 C1121 1.433 . S
C1123 N1126 1.384 . S
C1124 H1115 0.929 . S
C1124 C1116 1.378 . S
C1124 C1119 1.350 . S
C1125 H1112 0.929 . S
C1125 C1117 1.433 . S
C1125 N1127 1.384 . S
N1126 C1122 1.427 . S
N1126 C1123 1.384 . S
N1127 C1119 1.427 . S
N1127 C1125 1.384 . S
H1128 C1134 0.930 . S
H1129 C1138 0.930 . S
H1130 C1143 0.929 . S
H1131 C1141 0.929 . S
H1132 C1136 0.929 . S
H1133 C1142 0.929 . S
C1134 H1128 0.930 . S
C1134 C1135 1.367 . S
C1134 C1142 1.378 . S
C1135 C1134 1.367 . S
C1135 C1143 1.433 . S
C1136 H1132 0.929 . S
C1136 C1138 1.378 . S
C1136 C1140 1.350 . S
C1137 C1140 1.463 . S
C1137 C1142 1.350 . S
C1137 N1145 1.427 . S
C1138 H1129 0.930 . S
C1138 C1136 1.378 . S
C1138 C1139 1.367 . S
C1139 C1138 1.367 . S
C1139 C1141 1.433 . S
C1140 C1136 1.350 . S
C1140 C1137 1.463 . S
C1140 N1144 1.427 . S
C1141 H1131 0.929 . S
C1141 C1139 1.433 . S
C1141 N1144 1.384 . S
C1142 H1133 0.929 . S
C1142 C1134 1.378 . S
C1142 C1137 1.350 . S
C1143 H1130 0.929 . S
C1143 C1135 1.433 . S
C1143 N1145 1.384 . S
N1144 C1140 1.427 . S
N1144 C1141 1.384 . S
N1145 C1137 1.427 . S
N1145 C1143 1.384 . S
H1146 C1152 0.930 . S
H1147 C1156 0.930 . S
H1148 C1161 0.929 . S
H1149 C1159 0.929 . S
H1150 C1154 0.929 . S
H1151 C1160 0.929 . S
C1152 H1146 0.930 . S
C1152 C1153 1.367 . S
C1152 C1160 1.378 . S
C1153 C1152 1.367 . S
C1153 C1161 1.433 . S
C1154 H1150 0.929 . S
C1154 C1156 1.378 . S
C1154 C1158 1.350 . S
C1155 C1158 1.463 . S
C1155 C1160 1.350 . S
C1155 N1163 1.427 . S
C1156 H1147 0.930 . S
C1156 C1154 1.378 . S
C1156 C1157 1.367 . S
C1157 C1156 1.367 . S
C1157 C1159 1.433 . S
C1158 C1154 1.350 . S
C1158 C1155 1.463 . S
C1158 N1162 1.427 . S
C1159 H1149 0.929 . S
C1159 C1157 1.433 . S
C1159 N1162 1.384 . S
C1160 H1151 0.929 . S
C1160 C1152 1.378 . S
C1160 C1155 1.350 . S
C1161 H1148 0.929 . S
C1161 C1153 1.433 . S
C1161 N1163 1.384 . S
N1162 C1158 1.427 . S
N1162 C1159 1.384 . S
N1163 C1155 1.427 . S
N1163 C1161 1.384 . S
H1164 C1170 0.930 . S
H1165 C1174 0.930 . S
H1166 C1179 0.929 . S
H1167 C1177 0.929 . S
H1168 C1172 0.929 . S
H1169 C1178 0.929 . S
C1170 H1164 0.930 . S
C1170 C1171 1.367 . S
C1170 C1178 1.378 . S
C1171 C1170 1.367 . S
C1171 C1179 1.433 . S
C1172 H1168 0.929 . S
C1172 C1174 1.378 . S
C1172 C1176 1.350 . S
C1173 C1176 1.463 . S
C1173 C1178 1.350 . S
C1173 N1181 1.427 . S
C1174 H1165 0.930 . S
C1174 C1172 1.378 . S
C1174 C1175 1.367 . S
C1175 C1174 1.367 . S
C1175 C1177 1.433 . S
C1176 C1172 1.350 . S
C1176 C1173 1.463 . S
C1176 N1180 1.427 . S
C1177 H1167 0.929 . S
C1177 C1175 1.433 . S
C1177 N1180 1.384 . S
C1178 H1169 0.929 . S
C1178 C1170 1.378 . S
C1178 C1173 1.350 . S
C1179 H1166 0.929 . S
C1179 C1171 1.433 . S
C1179 N1181 1.384 . S
N1180 C1176 1.427 . S
N1180 C1177 1.384 . S
N1181 C1173 1.427 . S
N1181 C1179 1.384 . S
H1182 C1188 0.930 . S
H1183 C1192 0.930 . S
H1184 C1197 0.929 . S
H1185 C1195 0.929 . S
H1186 C1190 0.929 . S
H1187 C1196 0.929 . S
C1188 H1182 0.930 . S
C1188 C1189 1.367 . S
C1188 C1196 1.378 . S
C1189 C1188 1.367 . S
C1189 C1197 1.433 . S
C1190 H1186 0.929 . S
C1190 C1192 1.378 . S
C1190 C1194 1.350 . S
C1191 C1194 1.463 . S
C1191 C1196 1.350 . S
C1191 N1199 1.427 . S
C1192 H1183 0.930 . S
C1192 C1190 1.378 . S
C1192 C1193 1.367 . S
C1193 C1192 1.367 . S
C1193 C1195 1.433 . S
C1194 C1190 1.350 . S
C1194 C1191 1.463 . S
C1194 N1198 1.427 . S
C1195 H1185 0.929 . S
C1195 C1193 1.433 . S
C1195 N1198 1.384 . S
C1196 H1187 0.929 . S
C1196 C1188 1.378 . S
C1196 C1191 1.350 . S
C1197 H1184 0.929 . S
C1197 C1189 1.433 . S
C1197 N1199 1.384 . S
N1198 C1194 1.427 . S
N1198 C1195 1.384 . S
N1199 C1191 1.427 . S
N1199 C1197 1.384 . S
H1200 C1206 0.930 . S
H1201 C1210 0.930 . S
H1202 C1215 0.929 . S
H1203 C1213 0.929 . S
H1204 C1208 0.929 . S
H1205 C1214 0.929 . S
C1206 H1200 0.930 . S
C1206 C1207 1.367 . S
C1206 C1214 1.378 . S
C1207 C1206 1.367 . S
C1207 C1215 1.433 . S
C1208 H1204 0.929 . S
C1208 C1210 1.378 . S
C1208 C1212 1.350 . S
C1209 C1212 1.463 . S
C1209 C1214 1.350 . S
C1209 N1217 1.427 . S
C1210 H1201 0.930 . S
C1210 C1208 1.378 . S
C1210 C1211 1.367 . S
C1211 C1210 1.367 . S
C1211 C1213 1.433 . S
C1212 C1208 1.350 . S
C1212 C1209 1.463 . S
C1212 N1216 1.427 . S
C1213 H1203 0.929 . S
C1213 C1211 1.433 . S
C1213 N1216 1.384 . S
C1214 H1205 0.929 . S
C1214 C1206 1.378 . S
C1214 C1209 1.350 . S
C1215 H1202 0.929 . S
C1215 C1207 1.433 . S
C1215 N1217 1.384 . S
N1216 C1212 1.427 . S
N1216 C1213 1.384 . S
N1217 C1209 1.427 . S
N1217 C1215 1.384 . S
H1218 C1224 0.930 . S
H1219 C1228 0.930 . S
H1220 C1233 0.929 . S
H1221 C1231 0.929 . S
H1222 C1226 0.929 . S
H1223 C1232 0.929 . S
C1224 H1218 0.930 . S
C1224 C1225 1.367 . S
C1224 C1232 1.378 . S
C1225 C1224 1.367 . S
C1225 C1233 1.433 . S
C1226 H1222 0.929 . S
C1226 C1228 1.378 . S
C1226 C1230 1.350 . S
C1227 C1230 1.463 . S
C1227 C1232 1.350 . S
C1227 N1235 1.427 . S
C1228 H1219 0.930 . S
C1228 C1226 1.378 . S
C1228 C1229 1.367 . S
C1229 C1228 1.367 . S
C1229 C1231 1.433 . S
C1230 C1226 1.350 . S
C1230 C1227 1.463 . S
C1230 N1234 1.427 . S
C1231 H1221 0.929 . S
C1231 C1229 1.433 . S
C1231 N1234 1.384 . S
C1232 H1223 0.929 . S
C1232 C1224 1.378 . S
C1232 C1227 1.350 . S
C1233 H1220 0.929 . S
C1233 C1225 1.433 . S
C1233 N1235 1.384 . S
N1234 C1230 1.427 . S
N1234 C1231 1.384 . S
N1235 C1227 1.427 . S
N1235 C1233 1.384 . S
H1236 C1242 0.930 . S
H1237 C1246 0.930 . S
H1238 C1251 0.929 . S
H1239 C1249 0.929 . S
H1240 C1244 0.929 . S
H1241 C1250 0.929 . S
C1242 H1236 0.930 . S
C1242 C1243 1.367 . S
C1242 C1250 1.378 . S
C1243 C1242 1.367 . S
C1243 C1251 1.433 . S
C1244 H1240 0.929 . S
C1244 C1246 1.378 . S
C1244 C1248 1.350 . S
C1245 C1248 1.463 . S
C1245 C1250 1.350 . S
C1245 N1253 1.427 . S
C1246 H1237 0.930 . S
C1246 C1244 1.378 . S
C1246 C1247 1.367 . S
C1247 C1246 1.367 . S
C1247 C1249 1.433 . S
C1248 C1244 1.350 . S
C1248 C1245 1.463 . S
C1248 N1252 1.427 . S
C1249 H1239 0.929 . S
C1249 C1247 1.433 . S
C1249 N1252 1.384 . S
C1250 H1241 0.929 . S
C1250 C1242 1.378 . S
C1250 C1245 1.350 . S
C1251 H1238 0.929 . S
C1251 C1243 1.433 . S
C1251 N1253 1.384 . S
N1252 C1248 1.427 . S
N1252 C1249 1.384 . S
N1253 C1245 1.427 . S
N1253 C1251 1.384 . S
H1254 C1260 0.930 . S
H1255 C1264 0.930 . S
H1256 C1269 0.929 . S
H1257 C1267 0.929 . S
H1258 C1262 0.929 . S
H1259 C1268 0.929 . S
C1260 H1254 0.930 . S
C1260 C1261 1.367 . S
C1260 C1268 1.378 . S
C1261 C1260 1.367 . S
C1261 C1269 1.433 . S
C1262 H1258 0.929 . S
C1262 C1264 1.378 . S
C1262 C1266 1.350 . S
C1263 C1266 1.463 . S
C1263 C1268 1.350 . S
C1263 N1271 1.427 . S
C1264 H1255 0.930 . S
C1264 C1262 1.378 . S
C1264 C1265 1.367 . S
C1265 C1264 1.367 . S
C1265 C1267 1.433 . S
C1266 C1262 1.350 . S
C1266 C1263 1.463 . S
C1266 N1270 1.427 . S
C1267 H1257 0.929 . S
C1267 C1265 1.433 . S
C1267 N1270 1.384 . S
C1268 H1259 0.929 . S
C1268 C1260 1.378 . S
C1268 C1263 1.350 . S
C1269 H1256 0.929 . S
C1269 C1261 1.433 . S
C1269 N1271 1.384 . S
N1270 C1266 1.427 . S
N1270 C1267 1.384 . S
N1271 C1263 1.427 . S
N1271 C1269 1.384 . S
H1272 C1278 0.930 . S
H1273 C1282 0.930 . S
H1274 C1287 0.929 . S
H1275 C1285 0.929 . S
H1276 C1280 0.929 . S
H1277 C1286 0.929 . S
C1278 H1272 0.930 . S
C1278 C1279 1.367 . S
C1278 C1286 1.378 . S
C1279 C1278 1.367 . S
C1279 C1287 1.433 . S
C1280 H1276 0.929 . S
C1280 C1282 1.378 . S
C1280 C1284 1.350 . S
C1281 C1284 1.463 . S
C1281 C1286 1.350 . S
C1281 N1289 1.427 . S
C1282 H1273 0.930 . S
C1282 C1280 1.378 . S
C1282 C1283 1.367 . S
C1283 C1282 1.367 . S
C1283 C1285 1.433 . S
C1284 C1280 1.350 . S
C1284 C1281 1.463 . S
C1284 N1288 1.427 . S
C1285 H1275 0.929 . S
C1285 C1283 1.433 . S
C1285 N1288 1.384 . S
C1286 H1277 0.929 . S
C1286 C1278 1.378 . S
C1286 C1281 1.350 . S
C1287 H1274 0.929 . S
C1287 C1279 1.433 . S
C1287 N1289 1.384 . S
N1288 C1284 1.427 . S
N1288 C1285 1.384 . S
N1289 C1281 1.427 . S
N1289 C1287 1.384 . S
H1290 C1296 0.930 . S
H1291 C1300 0.930 . S
H1292 C1305 0.929 . S
H1293 C1303 0.929 . S
H1294 C1298 0.929 . S
H1295 C1304 0.929 . S
C1296 H1290 0.930 . S
C1296 C1297 1.367 . S
C1296 C1304 1.378 . S
C1297 C1296 1.367 . S
C1297 C1305 1.433 . S
C1298 H1294 0.929 . S
C1298 C1300 1.378 . S
C1298 C1302 1.350 . S
C1299 C1302 1.463 . S
C1299 C1304 1.350 . S
C1299 N1307 1.427 . S
C1300 H1291 0.930 . S
C1300 C1298 1.378 . S
C1300 C1301 1.367 . S
C1301 C1300 1.367 . S
C1301 C1303 1.433 . S
C1302 C1298 1.350 . S
C1302 C1299 1.463 . S
C1302 N1306 1.427 . S
C1303 H1293 0.929 . S
C1303 C1301 1.433 . S
C1303 N1306 1.384 . S
C1304 H1295 0.929 . S
C1304 C1296 1.378 . S
C1304 C1299 1.350 . S
C1305 H1292 0.929 . S
C1305 C1297 1.433 . S
C1305 N1307 1.384 . S
N1306 C1302 1.427 . S
N1306 C1303 1.384 . S
N1307 C1299 1.427 . S
N1307 C1305 1.384 . S
H1308 C1314 0.930 . S
H1309 C1318 0.930 . S
H1310 C1323 0.929 . S
H1311 C1321 0.929 . S
H1312 C1316 0.929 . S
H1313 C1322 0.929 . S
C1314 H1308 0.930 . S
C1314 C1315 1.367 . S
C1314 C1322 1.378 . S
C1315 C1314 1.367 . S
C1315 C1323 1.433 . S
C1316 H1312 0.929 . S
C1316 C1318 1.378 . S
C1316 C1320 1.350 . S
C1317 C1320 1.463 . S
C1317 C1322 1.350 . S
C1317 N1325 1.427 . S
C1318 H1309 0.930 . S
C1318 C1316 1.378 . S
C1318 C1319 1.367 . S
C1319 C1318 1.367 . S
C1319 C1321 1.433 . S
C1320 C1316 1.350 . S
C1320 C1317 1.463 . S
C1320 N1324 1.427 . S
C1321 H1311 0.929 . S
C1321 C1319 1.433 . S
C1321 N1324 1.384 . S
C1322 H1313 0.929 . S
C1322 C1314 1.378 . S
C1322 C1317 1.350 . S
C1323 H1310 0.929 . S
C1323 C1315 1.433 . S
C1323 N1325 1.384 . S
N1324 C1320 1.427 . S
N1324 C1321 1.384 . S
N1325 C1317 1.427 . S
N1325 C1323 1.384 . S
H1326 C1332 0.930 . S
H1327 C1336 0.930 . S
H1328 C1341 0.929 . S
H1329 C1339 0.929 . S
H1330 C1334 0.929 . S
H1331 C1340 0.929 . S
C1332 H1326 0.930 . S
C1332 C1333 1.367 . S
C1332 C1340 1.378 . S
C1333 C1332 1.367 . S
C1333 C1341 1.433 . S
C1334 H1330 0.929 . S
C1334 C1336 1.378 . S
C1334 C1338 1.350 . S
C1335 C1338 1.463 . S
C1335 C1340 1.350 . S
C1335 N1343 1.427 . S
C1336 H1327 0.930 . S
C1336 C1334 1.378 . S
C1336 C1337 1.367 . S
C1337 C1336 1.367 . S
C1337 C1339 1.433 . S
C1338 C1334 1.350 . S
C1338 C1335 1.463 . S
C1338 N1342 1.427 . S
C1339 H1329 0.929 . S
C1339 C1337 1.433 . S
C1339 N1342 1.384 . S
C1340 H1331 0.929 . S
C1340 C1332 1.378 . S
C1340 C1335 1.350 . S
C1341 H1328 0.929 . S
C1341 C1333 1.433 . S
C1341 N1343 1.384 . S
N1342 C1338 1.427 . S
N1342 C1339 1.384 . S
N1343 C1335 1.427 . S
N1343 C1341 1.384 . S
H1344 C1350 0.930 . S
H1345 C1354 0.930 . S
H1346 C1359 0.929 . S
H1347 C1357 0.929 . S
H1348 C1352 0.929 . S
H1349 C1358 0.929 . S
C1350 H1344 0.930 . S
C1350 C1351 1.367 . S
C1350 C1358 1.378 . S
C1351 C1350 1.367 . S
C1351 C1359 1.433 . S
C1352 H1348 0.929 . S
C1352 C1354 1.378 . S
C1352 C1356 1.350 . S
C1353 C1356 1.463 . S
C1353 C1358 1.350 . S
C1353 N1361 1.427 . S
C1354 H1345 0.930 . S
C1354 C1352 1.378 . S
C1354 C1355 1.367 . S
C1355 C1354 1.367 . S
C1355 C1357 1.433 . S
C1356 C1352 1.350 . S
C1356 C1353 1.463 . S
C1356 N1360 1.427 . S
C1357 H1347 0.929 . S
C1357 C1355 1.433 . S
C1357 N1360 1.384 . S
C1358 H1349 0.929 . S
C1358 C1350 1.378 . S
C1358 C1353 1.350 . S
C1359 H1346 0.929 . S
C1359 C1351 1.433 . S
C1359 N1361 1.384 . S
N1360 C1356 1.427 . S
N1360 C1357 1.384 . S
N1361 C1353 1.427 . S
N1361 C1359 1.384 . S
H1362 C1368 0.930 . S
H1363 C1372 0.930 . S
H1364 C1377 0.929 . S
H1365 C1375 0.929 . S
H1366 C1370 0.929 . S
H1367 C1376 0.929 . S
C1368 H1362 0.930 . S
C1368 C1369 1.367 . S
C1368 C1376 1.378 . S
C1369 C1368 1.367 . S
C1369 C1377 1.433 . S
C1370 H1366 0.929 . S
C1370 C1372 1.378 . S
C1370 C1374 1.350 . S
C1371 C1374 1.463 . S
C1371 C1376 1.350 . S
C1371 N1379 1.427 . S
C1372 H1363 0.930 . S
C1372 C1370 1.378 . S
C1372 C1373 1.367 . S
C1373 C1372 1.367 . S
C1373 C1375 1.433 . S
C1374 C1370 1.350 . S
C1374 C1371 1.463 . S
C1374 N1378 1.427 . S
C1375 H1365 0.929 . S
C1375 C1373 1.433 . S
C1375 N1378 1.384 . S
C1376 H1367 0.929 . S
C1376 C1368 1.378 . S
C1376 C1371 1.350 . S
C1377 H1364 0.929 . S
C1377 C1369 1.433 . S
C1377 N1379 1.384 . S
N1378 C1374 1.427 . S
N1378 C1375 1.384 . S
N1379 C1371 1.427 . S
N1379 C1377 1.384 . S
H1380 C1386 0.930 . S
H1381 C1390 0.930 . S
H1382 C1395 0.929 . S
H1383 C1393 0.929 . S
H1384 C1388 0.929 . S
H1385 C1394 0.929 . S
C1386 H1380 0.930 . S
C1386 C1387 1.367 . S
C1386 C1394 1.378 . S
C1387 C1386 1.367 . S
C1387 C1395 1.433 . S
C1388 H1384 0.929 . S
C1388 C1390 1.378 . S
C1388 C1392 1.350 . S
C1389 C1392 1.463 . S
C1389 C1394 1.350 . S
C1389 N1397 1.427 . S
C1390 H1381 0.930 . S
C1390 C1388 1.378 . S
C1390 C1391 1.367 . S
C1391 C1390 1.367 . S
C1391 C1393 1.433 . S
C1392 C1388 1.350 . S
C1392 C1389 1.463 . S
C1392 N1396 1.427 . S
C1393 H1383 0.929 . S
C1393 C1391 1.433 . S
C1393 N1396 1.384 . S
C1394 H1385 0.929 . S
C1394 C1386 1.378 . S
C1394 C1389 1.350 . S
C1395 H1382 0.929 . S
C1395 C1387 1.433 . S
C1395 N1397 1.384 . S
N1396 C1392 1.427 . S
N1396 C1393 1.384 . S
N1397 C1389 1.427 . S
N1397 C1395 1.384 . S
H1398 C1404 0.930 . S
H1399 C1408 0.930 . S
H1400 C1413 0.929 . S
H1401 C1411 0.929 . S
H1402 C1406 0.929 . S
H1403 C1412 0.929 . S
C1404 H1398 0.930 . S
C1404 C1405 1.367 . S
C1404 C1412 1.378 . S
C1405 C1404 1.367 . S
C1405 C1413 1.433 . S
C1406 H1402 0.929 . S
C1406 C1408 1.378 . S
C1406 C1410 1.350 . S
C1407 C1410 1.463 . S
C1407 C1412 1.350 . S
C1407 N1415 1.427 . S
C1408 H1399 0.930 . S
C1408 C1406 1.378 . S
C1408 C1409 1.367 . S
C1409 C1408 1.367 . S
C1409 C1411 1.433 . S
C1410 C1406 1.350 . S
C1410 C1407 1.463 . S
C1410 N1414 1.427 . S
C1411 H1401 0.929 . S
C1411 C1409 1.433 . S
C1411 N1414 1.384 . S
C1412 H1403 0.929 . S
C1412 C1404 1.378 . S
C1412 C1407 1.350 . S
C1413 H1400 0.929 . S
C1413 C1405 1.433 . S
C1413 N1415 1.384 . S
N1414 C1410 1.427 . S
N1414 C1411 1.384 . S
N1415 C1407 1.427 . S
N1415 C1413 1.384 . S
H1416 C1422 0.930 . S
H1417 C1426 0.930 . S
H1418 C1431 0.929 . S
H1419 C1429 0.929 . S
H1420 C1424 0.929 . S
H1421 C1430 0.929 . S
C1422 H1416 0.930 . S
C1422 C1423 1.367 . S
C1422 C1430 1.378 . S
C1423 C1422 1.367 . S
C1423 C1431 1.433 . S
C1424 H1420 0.929 . S
C1424 C1426 1.378 . S
C1424 C1428 1.350 . S
C1425 C1428 1.463 . S
C1425 C1430 1.350 . S
C1425 N1433 1.427 . S
C1426 H1417 0.930 . S
C1426 C1424 1.378 . S
C1426 C1427 1.367 . S
C1427 C1426 1.367 . S
C1427 C1429 1.433 . S
C1428 C1424 1.350 . S
C1428 C1425 1.463 . S
C1428 N1432 1.427 . S
C1429 H1419 0.929 . S
C1429 C1427 1.433 . S
C1429 N1432 1.384 . S
C1430 H1421 0.929 . S
C1430 C1422 1.378 . S
C1430 C1425 1.350 . S
C1431 H1418 0.929 . S
C1431 C1423 1.433 . S
C1431 N1433 1.384 . S
N1432 C1428 1.427 . S
N1432 C1429 1.384 . S
N1433 C1425 1.427 . S
N1433 C1431 1.384 . S
H1434 C1440 0.930 . S
H1435 C1444 0.930 . S
H1436 C1449 0.929 . S
H1437 C1447 0.929 . S
H1438 C1442 0.929 . S
H1439 C1448 0.929 . S
C1440 H1434 0.930 . S
C1440 C1441 1.367 . S
C1440 C1448 1.378 . S
C1441 C1440 1.367 . S
C1441 C1449 1.433 . S
C1442 H1438 0.929 . S
C1442 C1444 1.378 . S
C1442 C1446 1.350 . S
C1443 C1446 1.463 . S
C1443 C1448 1.350 . S
C1443 N1451 1.427 . S
C1444 H1435 0.930 . S
C1444 C1442 1.378 . S
C1444 C1445 1.367 . S
C1445 C1444 1.367 . S
C1445 C1447 1.433 . S
C1446 C1442 1.350 . S
C1446 C1443 1.463 . S
C1446 N1450 1.427 . S
C1447 H1437 0.929 . S
C1447 C1445 1.433 . S
C1447 N1450 1.384 . S
C1448 H1439 0.929 . S
C1448 C1440 1.378 . S
C1448 C1443 1.350 . S
C1449 H1436 0.929 . S
C1449 C1441 1.433 . S
C1449 N1451 1.384 . S
N1450 C1446 1.427 . S
N1450 C1447 1.384 . S
N1451 C1443 1.427 . S
N1451 C1449 1.384 . S
H1452 C1458 0.930 . S
H1453 C1462 0.930 . S
H1454 C1467 0.929 . S
H1455 C1465 0.929 . S
H1456 C1460 0.929 . S
H1457 C1466 0.929 . S
C1458 H1452 0.930 . S
C1458 C1459 1.367 . S
C1458 C1466 1.378 . S
C1459 C1458 1.367 . S
C1459 C1467 1.433 . S
C1460 H1456 0.929 . S
C1460 C1462 1.378 . S
C1460 C1464 1.350 . S
C1461 C1464 1.463 . S
C1461 C1466 1.350 . S
C1461 N1469 1.427 . S
C1462 H1453 0.930 . S
C1462 C1460 1.378 . S
C1462 C1463 1.367 . S
C1463 C1462 1.367 . S
C1463 C1465 1.433 . S
C1464 C1460 1.350 . S
C1464 C1461 1.463 . S
C1464 N1468 1.427 . S
C1465 H1455 0.929 . S
C1465 C1463 1.433 . S
C1465 N1468 1.384 . S
C1466 H1457 0.929 . S
C1466 C1458 1.378 . S
C1466 C1461 1.350 . S
C1467 H1454 0.929 . S
C1467 C1459 1.433 . S
C1467 N1469 1.384 . S
N1468 C1464 1.427 . S
N1468 C1465 1.384 . S
N1469 C1461 1.427 . S
N1469 C1467 1.384 . S
H1470 C1476 0.930 . S
H1471 C1480 0.930 . S
H1472 C1485 0.929 . S
H1473 C1483 0.929 . S
H1474 C1478 0.929 . S
H1475 C1484 0.929 . S
C1476 H1470 0.930 . S
C1476 C1477 1.367 . S
C1476 C1484 1.378 . S
C1477 C1476 1.367 . S
C1477 C1485 1.433 . S
C1478 H1474 0.929 . S
C1478 C1480 1.378 . S
C1478 C1482 1.350 . S
C1479 C1482 1.463 . S
C1479 C1484 1.350 . S
C1479 N1487 1.427 . S
C1480 H1471 0.930 . S
C1480 C1478 1.378 . S
C1480 C1481 1.367 . S
C1481 C1480 1.367 . S
C1481 C1483 1.433 . S
C1482 C1478 1.350 . S
C1482 C1479 1.463 . S
C1482 N1486 1.427 . S
C1483 H1473 0.929 . S
C1483 C1481 1.433 . S
C1483 N1486 1.384 . S
C1484 H1475 0.929 . S
C1484 C1476 1.378 . S
C1484 C1479 1.350 . S
C1485 H1472 0.929 . S
C1485 C1477 1.433 . S
C1485 N1487 1.384 . S
N1486 C1482 1.427 . S
N1486 C1483 1.384 . S
N1487 C1479 1.427 . S
N1487 C1485 1.384 . S
H1488 C1494 0.930 . S
H1489 C1498 0.930 . S
H1490 C1503 0.929 . S
H1491 C1501 0.929 . S
H1492 C1496 0.929 . S
H1493 C1502 0.929 . S
C1494 H1488 0.930 . S
C1494 C1495 1.367 . S
C1494 C1502 1.378 . S
C1495 C1494 1.367 . S
C1495 C1503 1.433 . S
C1496 H1492 0.929 . S
C1496 C1498 1.378 . S
C1496 C1500 1.350 . S
C1497 C1500 1.463 . S
C1497 C1502 1.350 . S
C1497 N1505 1.427 . S
C1498 H1489 0.930 . S
C1498 C1496 1.378 . S
C1498 C1499 1.367 . S
C1499 C1498 1.367 . S
C1499 C1501 1.433 . S
C1500 C1496 1.350 . S
C1500 C1497 1.463 . S
C1500 N1504 1.427 . S
C1501 H1491 0.929 . S
C1501 C1499 1.433 . S
C1501 N1504 1.384 . S
C1502 H1493 0.929 . S
C1502 C1494 1.378 . S
C1502 C1497 1.350 . S
C1503 H1490 0.929 . S
C1503 C1495 1.433 . S
C1503 N1505 1.384 . S
N1504 C1500 1.427 . S
N1504 C1501 1.384 . S
N1505 C1497 1.427 . S
N1505 C1503 1.384 . S
H1506 C1512 0.930 . S
H1507 C1516 0.930 . S
H1508 C1521 0.929 . S
H1509 C1519 0.929 . S
H1510 C1514 0.929 . S
H1511 C1520 0.929 . S
C1512 H1506 0.930 . S
C1512 C1513 1.367 . S
C1512 C1520 1.378 . S
C1513 C1512 1.367 . S
C1513 C1521 1.433 . S
C1514 H1510 0.929 . S
C1514 C1516 1.378 . S
C1514 C1518 1.350 . S
C1515 C1518 1.463 . S
C1515 C1520 1.350 . S
C1515 N1523 1.427 . S
C1516 H1507 0.930 . S
C1516 C1514 1.378 . S
C1516 C1517 1.367 . S
C1517 C1516 1.367 . S
C1517 C1519 1.433 . S
C1518 C1514 1.350 . S
C1518 C1515 1.463 . S
C1518 N1522 1.427 . S
C1519 H1509 0.929 . S
C1519 C1517 1.433 . S
C1519 N1522 1.384 . S
C1520 H1511 0.929 . S
C1520 C1512 1.378 . S
C1520 C1515 1.350 . S
C1521 H1508 0.929 . S
C1521 C1513 1.433 . S
C1521 N1523 1.384 . S
N1522 C1518 1.427 . S
N1522 C1519 1.384 . S
N1523 C1515 1.427 . S
N1523 C1521 1.384 . S
H1524 C1530 0.930 . S
H1525 C1534 0.930 . S
H1526 C1539 0.929 . S
H1527 C1537 0.929 . S
H1528 C1532 0.929 . S
H1529 C1538 0.929 . S
C1530 H1524 0.930 . S
C1530 C1531 1.367 . S
C1530 C1538 1.378 . S
C1531 C1530 1.367 . S
C1531 C1539 1.433 . S
C1532 H1528 0.929 . S
C1532 C1534 1.378 . S
C1532 C1536 1.350 . S
C1533 C1536 1.463 . S
C1533 C1538 1.350 . S
C1533 N1541 1.427 . S
C1534 H1525 0.930 . S
C1534 C1532 1.378 . S
C1534 C1535 1.367 . S
C1535 C1534 1.367 . S
C1535 C1537 1.433 . S
C1536 C1532 1.350 . S
C1536 C1533 1.463 . S
C1536 N1540 1.427 . S
C1537 H1527 0.929 . S
C1537 C1535 1.433 . S
C1537 N1540 1.384 . S
C1538 H1529 0.929 . S
C1538 C1530 1.378 . S
C1538 C1533 1.350 . S
C1539 H1526 0.929 . S
C1539 C1531 1.433 . S
C1539 N1541 1.384 . S
N1540 C1536 1.427 . S
N1540 C1537 1.384 . S
N1541 C1533 1.427 . S
N1541 C1539 1.384 . S
H1542 C1548 0.930 . S
H1543 C1552 0.930 . S
H1544 C1557 0.929 . S
H1545 C1555 0.929 . S
H1546 C1550 0.929 . S
H1547 C1556 0.929 . S
C1548 H1542 0.930 . S
C1548 C1549 1.367 . S
C1548 C1556 1.378 . S
C1549 C1548 1.367 . S
C1549 C1557 1.433 . S
C1550 H1546 0.929 . S
C1550 C1552 1.378 . S
C1550 C1554 1.350 . S
C1551 C1554 1.463 . S
C1551 C1556 1.350 . S
C1551 N1559 1.427 . S
C1552 H1543 0.930 . S
C1552 C1550 1.378 . S
C1552 C1553 1.367 . S
C1553 C1552 1.367 . S
C1553 C1555 1.433 . S
C1554 C1550 1.350 . S
C1554 C1551 1.463 . S
C1554 N1558 1.427 . S
C1555 H1545 0.929 . S
C1555 C1553 1.433 . S
C1555 N1558 1.384 . S
C1556 H1547 0.929 . S
C1556 C1548 1.378 . S
C1556 C1551 1.350 . S
C1557 H1544 0.929 . S
C1557 C1549 1.433 . S
C1557 N1559 1.384 . S
N1558 C1554 1.427 . S
N1558 C1555 1.384 . S
N1559 C1551 1.427 . S
N1559 C1557 1.384 . S
H1560 C1566 0.930 . S
H1561 C1570 0.930 . S
H1562 C1575 0.929 . S
H1563 C1573 0.929 . S
H1564 C1568 0.929 . S
H1565 C1574 0.929 . S
C1566 H1560 0.930 . S
C1566 C1567 1.367 . S
C1566 C1574 1.378 . S
C1567 C1566 1.367 . S
C1567 C1575 1.433 . S
C1568 H1564 0.929 . S
C1568 C1570 1.378 . S
C1568 C1572 1.350 . S
C1569 C1572 1.463 . S
C1569 C1574 1.350 . S
C1569 N1577 1.427 . S
C1570 H1561 0.930 . S
C1570 C1568 1.378 . S
C1570 C1571 1.367 . S
C1571 C1570 1.367 . S
C1571 C1573 1.433 . S
C1572 C1568 1.350 . S
C1572 C1569 1.463 . S
C1572 N1576 1.427 . S
C1573 H1563 0.929 . S
C1573 C1571 1.433 . S
C1573 N1576 1.384 . S
C1574 H1565 0.929 . S
C1574 C1566 1.378 . S
C1574 C1569 1.350 . S
C1575 H1562 0.929 . S
C1575 C1567 1.433 . S
C1575 N1577 1.384 . S
N1576 C1572 1.427 . S
N1576 C1573 1.384 . S
N1577 C1569 1.427 . S
N1577 C1575 1.384 . S
H1578 C1584 0.930 . S
H1579 C1588 0.930 . S
H1580 C1593 0.929 . S
H1581 C1591 0.929 . S
H1582 C1586 0.929 . S
H1583 C1592 0.929 . S
C1584 H1578 0.930 . S
C1584 C1585 1.367 . S
C1584 C1592 1.378 . S
C1585 C1584 1.367 . S
C1585 C1593 1.433 . S
C1586 H1582 0.929 . S
C1586 C1588 1.378 . S
C1586 C1590 1.350 . S
C1587 C1590 1.463 . S
C1587 C1592 1.350 . S
C1587 N1595 1.427 . S
C1588 H1579 0.930 . S
C1588 C1586 1.378 . S
C1588 C1589 1.367 . S
C1589 C1588 1.367 . S
C1589 C1591 1.433 . S
C1590 C1586 1.350 . S
C1590 C1587 1.463 . S
C1590 N1594 1.427 . S
C1591 H1581 0.929 . S
C1591 C1589 1.433 . S
C1591 N1594 1.384 . S
C1592 H1583 0.929 . S
C1592 C1584 1.378 . S
C1592 C1587 1.350 . S
C1593 H1580 0.929 . S
C1593 C1585 1.433 . S
C1593 N1595 1.384 . S
N1594 C1590 1.427 . S
N1594 C1591 1.384 . S
N1595 C1587 1.427 . S
N1595 C1593 1.384 . S
H1596 C1602 0.930 . S
H1597 C1606 0.930 . S
H1598 C1611 0.929 . S
H1599 C1609 0.929 . S
H1600 C1604 0.929 . S
H1601 C1610 0.929 . S
C1602 H1596 0.930 . S
C1602 C1603 1.367 . S
C1602 C1610 1.378 . S
C1603 C1602 1.367 . S
C1603 C1611 1.433 . S
C1604 H1600 0.929 . S
C1604 C1606 1.378 . S
C1604 C1608 1.350 . S
C1605 C1608 1.463 . S
C1605 C1610 1.350 . S
C1605 N1613 1.427 . S
C1606 H1597 0.930 . S
C1606 C1604 1.378 . S
C1606 C1607 1.367 . S
C1607 C1606 1.367 . S
C1607 C1609 1.433 . S
C1608 C1604 1.350 . S
C1608 C1605 1.463 . S
C1608 N1612 1.427 . S
C1609 H1599 0.929 . S
C1609 C1607 1.433 . S
C1609 N1612 1.384 . S
C1610 H1601 0.929 . S
C1610 C1602 1.378 . S
C1610 C1605 1.350 . S
C1611 H1598 0.929 . S
C1611 C1603 1.433 . S
C1611 N1613 1.384 . S
N1612 C1608 1.427 . S
N1612 C1609 1.384 . S
N1613 C1605 1.427 . S
N1613 C1611 1.384 . S
H1614 C1620 0.930 . S
H1615 C1624 0.930 . S
H1616 C1629 0.929 . S
H1617 C1627 0.929 . S
H1618 C1622 0.929 . S
H1619 C1628 0.929 . S
C1620 H1614 0.930 . S
C1620 C1621 1.367 . S
C1620 C1628 1.378 . S
C1621 C1620 1.367 . S
C1621 C1629 1.433 . S
C1622 H1618 0.929 . S
C1622 C1624 1.378 . S
C1622 C1626 1.350 . S
C1623 C1626 1.463 . S
C1623 C1628 1.350 . S
C1623 N1631 1.427 . S
C1624 H1615 0.930 . S
C1624 C1622 1.378 . S
C1624 C1625 1.367 . S
C1625 C1624 1.367 . S
C1625 C1627 1.433 . S
C1626 C1622 1.350 . S
C1626 C1623 1.463 . S
C1626 N1630 1.427 . S
C1627 H1617 0.929 . S
C1627 C1625 1.433 . S
C1627 N1630 1.384 . S
C1628 H1619 0.929 . S
C1628 C1620 1.378 . S
C1628 C1623 1.350 . S
C1629 H1616 0.929 . S
C1629 C1621 1.433 . S
C1629 N1631 1.384 . S
N1630 C1626 1.427 . S
N1630 C1627 1.384 . S
N1631 C1623 1.427 . S
N1631 C1629 1.384 . S
H1632 C1638 0.930 . S
H1633 C1642 0.930 . S
H1634 C1647 0.929 . S
H1635 C1645 0.929 . S
H1636 C1640 0.929 . S
H1637 C1646 0.929 . S
C1638 H1632 0.930 . S
C1638 C1639 1.367 . S
C1638 C1646 1.378 . S
C1639 C1638 1.367 . S
C1639 C1647 1.433 . S
C1640 H1636 0.929 . S
C1640 C1642 1.378 . S
C1640 C1644 1.350 . S
C1641 C1644 1.463 . S
C1641 C1646 1.350 . S
C1641 N1649 1.427 . S
C1642 H1633 0.930 . S
C1642 C1640 1.378 . S
C1642 C1643 1.367 . S
C1643 C1642 1.367 . S
C1643 C1645 1.433 . S
C1644 C1640 1.350 . S
C1644 C1641 1.463 . S
C1644 N1648 1.427 . S
C1645 H1635 0.929 . S
C1645 C1643 1.433 . S
C1645 N1648 1.384 . S
C1646 H1637 0.929 . S
C1646 C1638 1.378 . S
C1646 C1641 1.350 . S
C1647 H1634 0.929 . S
C1647 C1639 1.433 . S
C1647 N1649 1.384 . S
N1648 C1644 1.427 . S
N1648 C1645 1.384 . S
N1649 C1641 1.427 . S
N1649 C1647 1.384 . S
H1650 C1656 0.930 . S
H1651 C1660 0.930 . S
H1652 C1665 0.929 . S
H1653 C1663 0.929 . S
H1654 C1658 0.929 . S
H1655 C1664 0.929 . S
C1656 H1650 0.930 . S
C1656 C1657 1.367 . S
C1656 C1664 1.378 . S
C1657 C1656 1.367 . S
C1657 C1665 1.433 . S
C1658 H1654 0.929 . S
C1658 C1660 1.378 . S
C1658 C1662 1.350 . S
C1659 C1662 1.463 . S
C1659 C1664 1.350 . S
C1659 N1667 1.427 . S
C1660 H1651 0.930 . S
C1660 C1658 1.378 . S
C1660 C1661 1.367 . S
C1661 C1660 1.367 . S
C1661 C1663 1.433 . S
C1662 C1658 1.350 . S
C1662 C1659 1.463 . S
C1662 N1666 1.427 . S
C1663 H1653 0.929 . S
C1663 C1661 1.433 . S
C1663 N1666 1.384 . S
C1664 H1655 0.929 . S
C1664 C1656 1.378 . S
C1664 C1659 1.350 . S
C1665 H1652 0.929 . S
C1665 C1657 1.433 . S
C1665 N1667 1.384 . S
N1666 C1662 1.427 . S
N1666 C1663 1.384 . S
N1667 C1659 1.427 . S
N1667 C1665 1.384 . S
H1668 C1674 0.930 . S
H1669 C1678 0.930 . S
H1670 C1683 0.929 . S
H1671 C1681 0.929 . S
H1672 C1676 0.929 . S
H1673 C1682 0.929 . S
C1674 H1668 0.930 . S
C1674 C1675 1.367 . S
C1674 C1682 1.378 . S
C1675 C1674 1.367 . S
C1675 C1683 1.433 . S
C1676 H1672 0.929 . S
C1676 C1678 1.378 . S
C1676 C1680 1.350 . S
C1677 C1680 1.463 . S
C1677 C1682 1.350 . S
C1677 N1685 1.427 . S
C1678 H1669 0.930 . S
C1678 C1676 1.378 . S
C1678 C1679 1.367 . S
C1679 C1678 1.367 . S
C1679 C1681 1.433 . S
C1680 C1676 1.350 . S
C1680 C1677 1.463 . S
C1680 N1684 1.427 . S
C1681 H1671 0.929 . S
C1681 C1679 1.433 . S
C1681 N1684 1.384 . S
C1682 H1673 0.929 . S
C1682 C1674 1.378 . S
C1682 C1677 1.350 . S
C1683 H1670 0.929 . S
C1683 C1675 1.433 . S
C1683 N1685 1.384 . S
N1684 C1680 1.427 . S
N1684 C1681 1.384 . S
N1685 C1677 1.427 . S
N1685 C1683 1.384 . S
H1686 C1692 0.930 . S
H1687 C1696 0.930 . S
H1688 C1701 0.929 . S
H1689 C1699 0.929 . S
H1690 C1694 0.929 . S
H1691 C1700 0.929 . S
C1692 H1686 0.930 . S
C1692 C1693 1.367 . S
C1692 C1700 1.378 . S
C1693 C1692 1.367 . S
C1693 C1701 1.433 . S
C1694 H1690 0.929 . S
C1694 C1696 1.378 . S
C1694 C1698 1.350 . S
C1695 C1698 1.463 . S
C1695 C1700 1.350 . S
C1695 N1703 1.427 . S
C1696 H1687 0.930 . S
C1696 C1694 1.378 . S
C1696 C1697 1.367 . S
C1697 C1696 1.367 . S
C1697 C1699 1.433 . S
C1698 C1694 1.350 . S
C1698 C1695 1.463 . S
C1698 N1702 1.427 . S
C1699 H1689 0.929 . S
C1699 C1697 1.433 . S
C1699 N1702 1.384 . S
C1700 H1691 0.929 . S
C1700 C1692 1.378 . S
C1700 C1695 1.350 . S
C1701 H1688 0.929 . S
C1701 C1693 1.433 . S
C1701 N1703 1.384 . S
N1702 C1698 1.427 . S
N1702 C1699 1.384 . S
N1703 C1695 1.427 . S
N1703 C1701 1.384 . S
H1704 C1710 0.930 . S
H1705 C1714 0.930 . S
H1706 C1719 0.929 . S
H1707 C1717 0.929 . S
H1708 C1712 0.929 . S
H1709 C1718 0.929 . S
C1710 H1704 0.930 . S
C1710 C1711 1.367 . S
C1710 C1718 1.378 . S
C1711 C1710 1.367 . S
C1711 C1719 1.433 . S
C1712 H1708 0.929 . S
C1712 C1714 1.378 . S
C1712 C1716 1.350 . S
C1713 C1716 1.463 . S
C1713 C1718 1.350 . S
C1713 N1721 1.427 . S
C1714 H1705 0.930 . S
C1714 C1712 1.378 . S
C1714 C1715 1.367 . S
C1715 C1714 1.367 . S
C1715 C1717 1.433 . S
C1716 C1712 1.350 . S
C1716 C1713 1.463 . S
C1716 N1720 1.427 . S
C1717 H1707 0.929 . S
C1717 C1715 1.433 . S
C1717 N1720 1.384 . S
C1718 H1709 0.929 . S
C1718 C1710 1.378 . S
C1718 C1713 1.350 . S
C1719 H1706 0.929 . S
C1719 C1711 1.433 . S
C1719 N1721 1.384 . S
N1720 C1716 1.427 . S
N1720 C1717 1.384 . S
N1721 C1713 1.427 . S
N1721 C1719 1.384 . S
H1722 C1728 0.930 . S
H1723 C1732 0.930 . S
H1724 C1737 0.929 . S
H1725 C1735 0.929 . S
H1726 C1730 0.929 . S
H1727 C1736 0.929 . S
C1728 H1722 0.930 . S
C1728 C1729 1.367 . S
C1728 C1736 1.378 . S
C1729 C1728 1.367 . S
C1729 C1737 1.433 . S
C1730 H1726 0.929 . S
C1730 C1732 1.378 . S
C1730 C1734 1.350 . S
C1731 C1734 1.463 . S
C1731 C1736 1.350 . S
C1731 N1739 1.427 . S
C1732 H1723 0.930 . S
C1732 C1730 1.378 . S
C1732 C1733 1.367 . S
C1733 C1732 1.367 . S
C1733 C1735 1.433 . S
C1734 C1730 1.350 . S
C1734 C1731 1.463 . S
C1734 N1738 1.427 . S
C1735 H1725 0.929 . S
C1735 C1733 1.433 . S
C1735 N1738 1.384 . S
C1736 H1727 0.929 . S
C1736 C1728 1.378 . S
C1736 C1731 1.350 . S
C1737 H1724 0.929 . S
C1737 C1729 1.433 . S
C1737 N1739 1.384 . S
N1738 C1734 1.427 . S
N1738 C1735 1.384 . S
N1739 C1731 1.427 . S
N1739 C1737 1.384 . S
H1740 C1746 0.930 . S
H1741 C1750 0.930 . S
H1742 C1755 0.929 . S
H1743 C1753 0.929 . S
H1744 C1748 0.929 . S
H1745 C1754 0.929 . S
C1746 H1740 0.930 . S
C1746 C1747 1.367 . S
C1746 C1754 1.378 . S
C1747 C1746 1.367 . S
C1747 C1755 1.433 . S
C1748 H1744 0.929 . S
C1748 C1750 1.378 . S
C1748 C1752 1.350 . S
C1749 C1752 1.463 . S
C1749 C1754 1.350 . S
C1749 N1757 1.427 . S
C1750 H1741 0.930 . S
C1750 C1748 1.378 . S
C1750 C1751 1.367 . S
C1751 C1750 1.367 . S
C1751 C1753 1.433 . S
C1752 C1748 1.350 . S
C1752 C1749 1.463 . S
C1752 N1756 1.427 . S
C1753 H1743 0.929 . S
C1753 C1751 1.433 . S
C1753 N1756 1.384 . S
C1754 H1745 0.929 . S
C1754 C1746 1.378 . S
C1754 C1749 1.350 . S
C1755 H1742 0.929 . S
C1755 C1747 1.433 . S
C1755 N1757 1.384 . S
N1756 C1752 1.427 . S
N1756 C1753 1.384 . S
N1757 C1749 1.427 . S
N1757 C1755 1.384 . S
H1758 C1764 0.930 . S
H1759 C1768 0.930 . S
H1760 C1773 0.929 . S
H1761 C1771 0.929 . S
H1762 C1766 0.929 . S
H1763 C1772 0.929 . S
C1764 H1758 0.930 . S
C1764 C1765 1.367 . S
C1764 C1772 1.378 . S
C1765 C1764 1.367 . S
C1765 C1773 1.433 . S
C1766 H1762 0.929 . S
C1766 C1768 1.378 . S
C1766 C1770 1.350 . S
C1767 C1770 1.463 . S
C1767 C1772 1.350 . S
C1767 N1775 1.427 . S
C1768 H1759 0.930 . S
C1768 C1766 1.378 . S
C1768 C1769 1.367 . S
C1769 C1768 1.367 . S
C1769 C1771 1.433 . S
C1770 C1766 1.350 . S
C1770 C1767 1.463 . S
C1770 N1774 1.427 . S
C1771 H1761 0.929 . S
C1771 C1769 1.433 . S
C1771 N1774 1.384 . S
C1772 H1763 0.929 . S
C1772 C1764 1.378 . S
C1772 C1767 1.350 . S
C1773 H1760 0.929 . S
C1773 C1765 1.433 . S
C1773 N1775 1.384 . S
N1774 C1770 1.427 . S
N1774 C1771 1.384 . S
N1775 C1767 1.427 . S
N1775 C1773 1.384 . S
H1776 C1782 0.930 . S
H1777 C1786 0.930 . S
H1778 C1791 0.929 . S
H1779 C1789 0.929 . S
H1780 C1784 0.929 . S
H1781 C1790 0.929 . S
C1782 H1776 0.930 . S
C1782 C1783 1.367 . S
C1782 C1790 1.378 . S
C1783 C1782 1.367 . S
C1783 C1791 1.433 . S
C1784 H1780 0.929 . S
C1784 C1786 1.378 . S
C1784 C1788 1.350 . S
C1785 C1788 1.463 . S
C1785 C1790 1.350 . S
C1785 N1793 1.427 . S
C1786 H1777 0.930 . S
C1786 C1784 1.378 . S
C1786 C1787 1.367 . S
C1787 C1786 1.367 . S
C1787 C1789 1.433 . S
C1788 C1784 1.350 . S
C1788 C1785 1.463 . S
C1788 N1792 1.427 . S
C1789 H1779 0.929 . S
C1789 C1787 1.433 . S
C1789 N1792 1.384 . S
C1790 H1781 0.929 . S
C1790 C1782 1.378 . S
C1790 C1785 1.350 . S
C1791 H1778 0.929 . S
C1791 C1783 1.433 . S
C1791 N1793 1.384 . S
N1792 C1788 1.427 . S
N1792 C1789 1.384 . S
N1793 C1785 1.427 . S
N1793 C1791 1.384 . S
H1794 C1800 0.930 . S
H1795 C1804 0.930 . S
H1796 C1809 0.929 . S
H1797 C1807 0.929 . S
H1798 C1802 0.929 . S
H1799 C1808 0.929 . S
C1800 H1794 0.930 . S
C1800 C1801 1.367 . S
C1800 C1808 1.378 . S
C1801 C1800 1.367 . S
C1801 C1809 1.433 . S
C1802 H1798 0.929 . S
C1802 C1804 1.378 . S
C1802 C1806 1.350 . S
C1803 C1806 1.463 . S
C1803 C1808 1.350 . S
C1803 N1811 1.427 . S
C1804 H1795 0.930 . S
C1804 C1802 1.378 . S
C1804 C1805 1.367 . S
C1805 C1804 1.367 . S
C1805 C1807 1.433 . S
C1806 C1802 1.350 . S
C1806 C1803 1.463 . S
C1806 N1810 1.427 . S
C1807 H1797 0.929 . S
C1807 C1805 1.433 . S
C1807 N1810 1.384 . S
C1808 H1799 0.929 . S
C1808 C1800 1.378 . S
C1808 C1803 1.350 . S
C1809 H1796 0.929 . S
C1809 C1801 1.433 . S
C1809 N1811 1.384 . S
N1810 C1806 1.427 . S
N1810 C1807 1.384 . S
N1811 C1803 1.427 . S
N1811 C1809 1.384 . S
H1812 C1818 0.930 . S
H1813 C1822 0.930 . S
H1814 C1827 0.929 . S
H1815 C1825 0.929 . S
H1816 C1820 0.929 . S
H1817 C1826 0.929 . S
C1818 H1812 0.930 . S
C1818 C1819 1.367 . S
C1818 C1826 1.378 . S
C1819 C1818 1.367 . S
C1819 C1827 1.433 . S
C1820 H1816 0.929 . S
C1820 C1822 1.378 . S
C1820 C1824 1.350 . S
C1821 C1824 1.463 . S
C1821 C1826 1.350 . S
C1821 N1829 1.427 . S
C1822 H1813 0.930 . S
C1822 C1820 1.378 . S
C1822 C1823 1.367 . S
C1823 C1822 1.367 . S
C1823 C1825 1.433 . S
C1824 C1820 1.350 . S
C1824 C1821 1.463 . S
C1824 N1828 1.427 . S
C1825 H1815 0.929 . S
C1825 C1823 1.433 . S
C1825 N1828 1.384 . S
C1826 H1817 0.929 . S
C1826 C1818 1.378 . S
C1826 C1821 1.350 . S
C1827 H1814 0.929 . S
C1827 C1819 1.433 . S
C1827 N1829 1.384 . S
N1828 C1824 1.427 . S
N1828 C1825 1.384 . S
N1829 C1821 1.427 . S
N1829 C1827 1.384 . S
H1830 C1836 0.930 . S
H1831 C1840 0.930 . S
H1832 C1845 0.929 . S
H1833 C1843 0.929 . S
H1834 C1838 0.929 . S
H1835 C1844 0.929 . S
C1836 H1830 0.930 . S
C1836 C1837 1.367 . S
C1836 C1844 1.378 . S
C1837 C1836 1.367 . S
C1837 C1845 1.433 . S
C1838 H1834 0.929 . S
C1838 C1840 1.378 . S
C1838 C1842 1.350 . S
C1839 C1842 1.463 . S
C1839 C1844 1.350 . S
C1839 N1847 1.427 . S
C1840 H1831 0.930 . S
C1840 C1838 1.378 . S
C1840 C1841 1.367 . S
C1841 C1840 1.367 . S
C1841 C1843 1.433 . S
C1842 C1838 1.350 . S
C1842 C1839 1.463 . S
C1842 N1846 1.427 . S
C1843 H1833 0.929 . S
C1843 C1841 1.433 . S
C1843 N1846 1.384 . S
C1844 H1835 0.929 . S
C1844 C1836 1.378 . S
C1844 C1839 1.350 . S
C1845 H1832 0.929 . S
C1845 C1837 1.433 . S
C1845 N1847 1.384 . S
N1846 C1842 1.427 . S
N1846 C1843 1.384 . S
N1847 C1839 1.427 . S
N1847 C1845 1.384 . S
H1848 C1854 0.930 . S
H1849 C1858 0.930 . S
H1850 C1863 0.929 . S
H1851 C1861 0.929 . S
H1852 C1856 0.929 . S
H1853 C1862 0.929 . S
C1854 H1848 0.930 . S
C1854 C1855 1.367 . S
C1854 C1862 1.378 . S
C1855 C1854 1.367 . S
C1855 C1863 1.433 . S
C1856 H1852 0.929 . S
C1856 C1858 1.378 . S
C1856 C1860 1.350 . S
C1857 C1860 1.463 . S
C1857 C1862 1.350 . S
C1857 N1865 1.427 . S
C1858 H1849 0.930 . S
C1858 C1856 1.378 . S
C1858 C1859 1.367 . S
C1859 C1858 1.367 . S
C1859 C1861 1.433 . S
C1860 C1856 1.350 . S
C1860 C1857 1.463 . S
C1860 N1864 1.427 . S
C1861 H1851 0.929 . S
C1861 C1859 1.433 . S
C1861 N1864 1.384 . S
C1862 H1853 0.929 . S
C1862 C1854 1.378 . S
C1862 C1857 1.350 . S
C1863 H1850 0.929 . S
C1863 C1855 1.433 . S
C1863 N1865 1.384 . S
N1864 C1860 1.427 . S
N1864 C1861 1.384 . S
N1865 C1857 1.427 . S
N1865 C1863 1.384 . S
H1866 C1872 0.930 . S
H1867 C1876 0.930 . S
H1868 C1881 0.929 . S
H1869 C1879 0.929 . S
H1870 C1874 0.929 . S
H1871 C1880 0.929 . S
C1872 H1866 0.930 . S
C1872 C1873 1.367 . S
C1872 C1880 1.378 . S
C1873 C1872 1.367 . S
C1873 C1881 1.433 . S
C1874 H1870 0.929 . S
C1874 C1876 1.378 . S
C1874 C1878 1.350 . S
C1875 C1878 1.463 . S
C1875 C1880 1.350 . S
C1875 N1883 1.427 . S
C1876 H1867 0.930 . S
C1876 C1874 1.378 . S
C1876 C1877 1.367 . S
C1877 C1876 1.367 . S
C1877 C1879 1.433 . S
C1878 C1874 1.350 . S
C1878 C1875 1.463 . S
C1878 N1882 1.427 . S
C1879 H1869 0.929 . S
C1879 C1877 1.433 . S
C1879 N1882 1.384 . S
C1880 H1871 0.929 . S
C1880 C1872 1.378 . S
C1880 C1875 1.350 . S
C1881 H1868 0.929 . S
C1881 C1873 1.433 . S
C1881 N1883 1.384 . S
N1882 C1878 1.427 . S
N1882 C1879 1.384 . S
N1883 C1875 1.427 . S
N1883 C1881 1.384 . S
H1884 C1890 0.930 . S
H1885 C1894 0.930 . S
H1886 C1899 0.929 . S
H1887 C1897 0.929 . S
H1888 C1892 0.929 . S
H1889 C1898 0.929 . S
C1890 H1884 0.930 . S
C1890 C1891 1.367 . S
C1890 C1898 1.378 . S
C1891 C1890 1.367 . S
C1891 C1899 1.433 . S
C1892 H1888 0.929 . S
C1892 C1894 1.378 . S
C1892 C1896 1.350 . S
C1893 C1896 1.463 . S
C1893 C1898 1.350 . S
C1893 N1901 1.427 . S
C1894 H1885 0.930 . S
C1894 C1892 1.378 . S
C1894 C1895 1.367 . S
C1895 C1894 1.367 . S
C1895 C1897 1.433 . S
C1896 C1892 1.350 . S
C1896 C1893 1.463 . S
C1896 N1900 1.427 . S
C1897 H1887 0.929 . S
C1897 C1895 1.433 . S
C1897 N1900 1.384 . S
C1898 H1889 0.929 . S
C1898 C1890 1.378 . S
C1898 C1893 1.350 . S
C1899 H1886 0.929 . S
C1899 C1891 1.433 . S
C1899 N1901 1.384 . S
N1900 C1896 1.427 . S
N1900 C1897 1.384 . S
N1901 C1893 1.427 . S
N1901 C1899 1.384 . S
H1902 C1908 0.930 . S
H1903 C1912 0.930 . S
H1904 C1917 0.929 . S
H1905 C1915 0.929 . S
H1906 C1910 0.929 . S
H1907 C1916 0.929 . S
C1908 H1902 0.930 . S
C1908 C1909 1.367 . S
C1908 C1916 1.378 . S
C1909 C1908 1.367 . S
C1909 C1917 1.433 . S
C1910 H1906 0.929 . S
C1910 C1912 1.378 . S
C1910 C1914 1.350 . S
C1911 C1914 1.463 . S
C1911 C1916 1.350 . S
C1911 N1919 1.427 . S
C1912 H1903 0.930 . S
C1912 C1910 1.378 . S
C1912 C1913 1.367 . S
C1913 C1912 1.367 . S
C1913 C1915 1.433 . S
C1914 C1910 1.350 . S
C1914 C1911 1.463 . S
C1914 N1918 1.427 . S
C1915 H1905 0.929 . S
C1915 C1913 1.433 . S
C1915 N1918 1.384 . S
C1916 H1907 0.929 . S
C1916 C1908 1.378 . S
C1916 C1911 1.350 . S
C1917 H1904 0.929 . S
C1917 C1909 1.433 . S
C1917 N1919 1.384 . S
N1918 C1914 1.427 . S
N1918 C1915 1.384 . S
N1919 C1911 1.427 . S
N1919 C1917 1.384 . S
H1920 C1926 0.930 . S
H1921 C1930 0.930 . S
H1922 C1935 0.929 . S
H1923 C1933 0.929 . S
H1924 C1928 0.929 . S
H1925 C1934 0.929 . S
C1926 H1920 0.930 . S
C1926 C1927 1.367 . S
C1926 C1934 1.378 . S
C1927 C1926 1.367 . S
C1927 C1935 1.433 . S
C1928 H1924 0.929 . S
C1928 C1930 1.378 . S
C1928 C1932 1.350 . S
C1929 C1932 1.463 . S
C1929 C1934 1.350 . S
C1929 N1937 1.427 . S
C1930 H1921 0.930 . S
C1930 C1928 1.378 . S
C1930 C1931 1.367 . S
C1931 C1930 1.367 . S
C1931 C1933 1.433 . S
C1932 C1928 1.350 . S
C1932 C1929 1.463 . S
C1932 N1936 1.427 . S
C1933 H1923 0.929 . S
C1933 C1931 1.433 . S
C1933 N1936 1.384 . S
C1934 H1925 0.929 . S
C1934 C1926 1.378 . S
C1934 C1929 1.350 . S
C1935 H1922 0.929 . S
C1935 C1927 1.433 . S
C1935 N1937 1.384 . S
N1936 C1932 1.427 . S
N1936 C1933 1.384 . S
N1937 C1929 1.427 . S
N1937 C1935 1.384 . S
H1938 C1944 0.930 . S
H1939 C1948 0.930 . S
H1940 C1953 0.929 . S
H1941 C1951 0.929 . S
H1942 C1946 0.929 . S
H1943 C1952 0.929 . S
C1944 H1938 0.930 . S
C1944 C1945 1.367 . S
C1944 C1952 1.378 . S
C1945 C1944 1.367 . S
C1945 C1953 1.433 . S
C1946 H1942 0.929 . S
C1946 C1948 1.378 . S
C1946 C1950 1.350 . S
C1947 C1950 1.463 . S
C1947 C1952 1.350 . S
C1947 N1955 1.427 . S
C1948 H1939 0.930 . S
C1948 C1946 1.378 . S
C1948 C1949 1.367 . S
C1949 C1948 1.367 . S
C1949 C1951 1.433 . S
C1950 C1946 1.350 . S
C1950 C1947 1.463 . S
C1950 N1954 1.427 . S
C1951 H1941 0.929 . S
C1951 C1949 1.433 . S
C1951 N1954 1.384 . S
C1952 H1943 0.929 . S
C1952 C1944 1.378 . S
C1952 C1947 1.350 . S
C1953 H1940 0.929 . S
C1953 C1945 1.433 . S
C1953 N1955 1.384 . S
N1954 C1950 1.427 . S
N1954 C1951 1.384 . S
N1955 C1947 1.427 . S
N1955 C1953 1.384 . S
H1956 C1962 0.930 . S
H1957 C1966 0.930 . S
H1958 C1971 0.929 . S
H1959 C1969 0.929 . S
H1960 C1964 0.929 . S
H1961 C1970 0.929 . S
C1962 H1956 0.930 . S
C1962 C1963 1.367 . S
C1962 C1970 1.378 . S
C1963 C1962 1.367 . S
C1963 C1971 1.433 . S
C1964 H1960 0.929 . S
C1964 C1966 1.378 . S
C1964 C1968 1.350 . S
C1965 C1968 1.463 . S
C1965 C1970 1.350 . S
C1965 N1973 1.427 . S
C1966 H1957 0.930 . S
C1966 C1964 1.378 . S
C1966 C1967 1.367 . S
C1967 C1966 1.367 . S
C1967 C1969 1.433 . S
C1968 C1964 1.350 . S
C1968 C1965 1.463 . S
C1968 N1972 1.427 . S
C1969 H1959 0.929 . S
C1969 C1967 1.433 . S
C1969 N1972 1.384 . S
C1970 H1961 0.929 . S
C1970 C1962 1.378 . S
C1970 C1965 1.350 . S
C1971 H1958 0.929 . S
C1971 C1963 1.433 . S
C1971 N1973 1.384 . S
N1972 C1968 1.427 . S
N1972 C1969 1.384 . S
N1973 C1965 1.427 . S
N1973 C1971 1.384 . S
H1974 C1980 0.930 . S
H1975 C1984 0.930 . S
H1976 C1989 0.929 . S
H1977 C1987 0.929 . S
H1978 C1982 0.929 . S
H1979 C1988 0.929 . S
C1980 H1974 0.930 . S
C1980 C1981 1.367 . S
C1980 C1988 1.378 . S
C1981 C1980 1.367 . S
C1981 C1989 1.433 . S
C1982 H1978 0.929 . S
C1982 C1984 1.378 . S
C1982 C1986 1.350 . S
C1983 C1986 1.463 . S
C1983 C1988 1.350 . S
C1983 N1991 1.427 . S
C1984 H1975 0.930 . S
C1984 C1982 1.378 . S
C1984 C1985 1.367 . S
C1985 C1984 1.367 . S
C1985 C1987 1.433 . S
C1986 C1982 1.350 . S
C1986 C1983 1.463 . S
C1986 N1990 1.427 . S
C1987 H1977 0.929 . S
C1987 C1985 1.433 . S
C1987 N1990 1.384 . S
C1988 H1979 0.929 . S
C1988 C1980 1.378 . S
C1988 C1983 1.350 . S
C1989 H1976 0.929 . S
C1989 C1981 1.433 . S
C1989 N1991 1.384 . S
N1990 C1986 1.427 . S
N1990 C1987 1.384 . S
N1991 C1983 1.427 . S
N1991 C1989 1.384 . S
H1992 C1998 0.930 . S
H1993 C2002 0.930 . S
H1994 C2007 0.929 . S
H1995 C2005 0.929 . S
H1996 C2000 0.929 . S
H1997 C2006 0.929 . S
C1998 H1992 0.930 . S
C1998 C1999 1.367 . S
C1998 C2006 1.378 . S
C1999 C1998 1.367 . S
C1999 C2007 1.433 . S
C2000 H1996 0.929 . S
C2000 C2002 1.378 . S
C2000 C2004 1.350 . S
C2001 C2004 1.463 . S
C2001 C2006 1.350 . S
C2001 N2009 1.427 . S
C2002 H1993 0.930 . S
C2002 C2000 1.378 . S
C2002 C2003 1.367 . S
C2003 C2002 1.367 . S
C2003 C2005 1.433 . S
C2004 C2000 1.350 . S
C2004 C2001 1.463 . S
C2004 N2008 1.427 . S
C2005 H1995 0.929 . S
C2005 C2003 1.433 . S
C2005 N2008 1.384 . S
C2006 H1997 0.929 . S
C2006 C1998 1.378 . S
C2006 C2001 1.350 . S
C2007 H1994 0.929 . S
C2007 C1999 1.433 . S
C2007 N2009 1.384 . S
N2008 C2004 1.427 . S
N2008 C2005 1.384 . S
N2009 C2001 1.427 . S
N2009 C2007 1.384 . S
H2010 C2016 0.930 . S
H2011 C2020 0.930 . S
H2012 C2025 0.929 . S
H2013 C2023 0.929 . S
H2014 C2018 0.929 . S
H2015 C2024 0.929 . S
C2016 H2010 0.930 . S
C2016 C2017 1.367 . S
C2016 C2024 1.378 . S
C2017 C2016 1.367 . S
C2017 C2025 1.433 . S
C2018 H2014 0.929 . S
C2018 C2020 1.378 . S
C2018 C2022 1.350 . S
C2019 C2022 1.463 . S
C2019 C2024 1.350 . S
C2019 N2027 1.427 . S
C2020 H2011 0.930 . S
C2020 C2018 1.378 . S
C2020 C2021 1.367 . S
C2021 C2020 1.367 . S
C2021 C2023 1.433 . S
C2022 C2018 1.350 . S
C2022 C2019 1.463 . S
C2022 N2026 1.427 . S
C2023 H2013 0.929 . S
C2023 C2021 1.433 . S
C2023 N2026 1.384 . S
C2024 H2015 0.929 . S
C2024 C2016 1.378 . S
C2024 C2019 1.350 . S
C2025 H2012 0.929 . S
C2025 C2017 1.433 . S
C2025 N2027 1.384 . S
N2026 C2022 1.427 . S
N2026 C2023 1.384 . S
N2027 C2019 1.427 . S
N2027 C2025 1.384 . S
H2028 C2034 0.930 . S
H2029 C2038 0.930 . S
H2030 C2043 0.929 . S
H2031 C2041 0.929 . S
H2032 C2036 0.929 . S
H2033 C2042 0.929 . S
C2034 H2028 0.930 . S
C2034 C2035 1.367 . S
C2034 C2042 1.378 . S
C2035 C2034 1.367 . S
C2035 C2043 1.433 . S
C2036 H2032 0.929 . S
C2036 C2038 1.378 . S
C2036 C2040 1.350 . S
C2037 C2040 1.463 . S
C2037 C2042 1.350 . S
C2037 N2045 1.427 . S
C2038 H2029 0.930 . S
C2038 C2036 1.378 . S
C2038 C2039 1.367 . S
C2039 C2038 1.367 . S
C2039 C2041 1.433 . S
C2040 C2036 1.350 . S
C2040 C2037 1.463 . S
C2040 N2044 1.427 . S
C2041 H2031 0.929 . S
C2041 C2039 1.433 . S
C2041 N2044 1.384 . S
C2042 H2033 0.929 . S
C2042 C2034 1.378 . S
C2042 C2037 1.350 . S
C2043 H2030 0.929 . S
C2043 C2035 1.433 . S
C2043 N2045 1.384 . S
N2044 C2040 1.427 . S
N2044 C2041 1.384 . S
N2045 C2037 1.427 . S
N2045 C2043 1.384 . S
H2046 C2052 0.930 . S
H2047 C2056 0.930 . S
H2048 C2061 0.929 . S
H2049 C2059 0.929 . S
H2050 C2054 0.929 . S
H2051 C2060 0.929 . S
C2052 H2046 0.930 . S
C2052 C2053 1.367 . S
C2052 C2060 1.378 . S
C2053 C2052 1.367 . S
C2053 C2061 1.433 . S
C2054 H2050 0.929 . S
C2054 C2056 1.378 . S
C2054 C2058 1.350 . S
C2055 C2058 1.463 . S
C2055 C2060 1.350 . S
C2055 N2063 1.427 . S
C2056 H2047 0.930 . S
C2056 C2054 1.378 . S
C2056 C2057 1.367 . S
C2057 C2056 1.367 . S
C2057 C2059 1.433 . S
C2058 C2054 1.350 . S
C2058 C2055 1.463 . S
C2058 N2062 1.427 . S
C2059 H2049 0.929 . S
C2059 C2057 1.433 . S
C2059 N2062 1.384 . S
C2060 H2051 0.929 . S
C2060 C2052 1.378 . S
C2060 C2055 1.350 . S
C2061 H2048 0.929 . S
C2061 C2053 1.433 . S
C2061 N2063 1.384 . S
N2062 C2058 1.427 . S
N2062 C2059 1.384 . S
N2063 C2055 1.427 . S
N2063 C2061 1.384 . S
H2064 C2070 0.930 . S
H2065 C2074 0.930 . S
H2066 C2079 0.929 . S
H2067 C2077 0.929 . S
H2068 C2072 0.929 . S
H2069 C2078 0.929 . S
C2070 H2064 0.930 . S
C2070 C2071 1.367 . S
C2070 C2078 1.378 . S
C2071 C2070 1.367 . S
C2071 C2079 1.433 . S
C2072 H2068 0.929 . S
C2072 C2074 1.378 . S
C2072 C2076 1.350 . S
C2073 C2076 1.463 . S
C2073 C2078 1.350 . S
C2073 N2081 1.427 . S
C2074 H2065 0.930 . S
C2074 C2072 1.378 . S
C2074 C2075 1.367 . S
C2075 C2074 1.367 . S
C2075 C2077 1.433 . S
C2076 C2072 1.350 . S
C2076 C2073 1.463 . S
C2076 N2080 1.427 . S
C2077 H2067 0.929 . S
C2077 C2075 1.433 . S
C2077 N2080 1.384 . S
C2078 H2069 0.929 . S
C2078 C2070 1.378 . S
C2078 C2073 1.350 . S
C2079 H2066 0.929 . S
C2079 C2071 1.433 . S
C2079 N2081 1.384 . S
N2080 C2076 1.427 . S
N2080 C2077 1.384 . S
N2081 C2073 1.427 . S
N2081 C2079 1.384 . S
H2082 C2088 0.930 . S
H2083 C2092 0.930 . S
H2084 C2097 0.929 . S
H2085 C2095 0.929 . S
H2086 C2090 0.929 . S
H2087 C2096 0.929 . S
C2088 H2082 0.930 . S
C2088 C2089 1.367 . S
C2088 C2096 1.378 . S
C2089 C2088 1.367 . S
C2089 C2097 1.433 . S
C2090 H2086 0.929 . S
C2090 C2092 1.378 . S
C2090 C2094 1.350 . S
C2091 C2094 1.463 . S
C2091 C2096 1.350 . S
C2091 N2099 1.427 . S
C2092 H2083 0.930 . S
C2092 C2090 1.378 . S
C2092 C2093 1.367 . S
C2093 C2092 1.367 . S
C2093 C2095 1.433 . S
C2094 C2090 1.350 . S
C2094 C2091 1.463 . S
C2094 N2098 1.427 . S
C2095 H2085 0.929 . S
C2095 C2093 1.433 . S
C2095 N2098 1.384 . S
C2096 H2087 0.929 . S
C2096 C2088 1.378 . S
C2096 C2091 1.350 . S
C2097 H2084 0.929 . S
C2097 C2089 1.433 . S
C2097 N2099 1.384 . S
N2098 C2094 1.427 . S
N2098 C2095 1.384 . S
N2099 C2091 1.427 . S
N2099 C2097 1.384 . S
H2100 C2106 0.930 . S
H2101 C2110 0.930 . S
H2102 C2115 0.929 . S
H2103 C2113 0.929 . S
H2104 C2108 0.929 . S
H2105 C2114 0.929 . S
C2106 H2100 0.930 . S
C2106 C2107 1.367 . S
C2106 C2114 1.378 . S
C2107 C2106 1.367 . S
C2107 C2115 1.433 . S
C2108 H2104 0.929 . S
C2108 C2110 1.378 . S
C2108 C2112 1.350 . S
C2109 C2112 1.463 . S
C2109 C2114 1.350 . S
C2109 N2117 1.427 . S
C2110 H2101 0.930 . S
C2110 C2108 1.378 . S
C2110 C2111 1.367 . S
C2111 C2110 1.367 . S
C2111 C2113 1.433 . S
C2112 C2108 1.350 . S
C2112 C2109 1.463 . S
C2112 N2116 1.427 . S
C2113 H2103 0.929 . S
C2113 C2111 1.433 . S
C2113 N2116 1.384 . S
C2114 H2105 0.929 . S
C2114 C2106 1.378 . S
C2114 C2109 1.350 . S
C2115 H2102 0.929 . S
C2115 C2107 1.433 . S
C2115 N2117 1.384 . S
N2116 C2112 1.427 . S
N2116 C2113 1.384 . S
N2117 C2109 1.427 . S
N2117 C2115 1.384 . S
H2118 C2124 0.930 . S
H2119 C2128 0.930 . S
H2120 C2133 0.929 . S
H2121 C2131 0.929 . S
H2122 C2126 0.929 . S
H2123 C2132 0.929 . S
C2124 H2118 0.930 . S
C2124 C2125 1.367 . S
C2124 C2132 1.378 . S
C2125 C2124 1.367 . S
C2125 C2133 1.433 . S
C2126 H2122 0.929 . S
C2126 C2128 1.378 . S
C2126 C2130 1.350 . S
C2127 C2130 1.463 . S
C2127 C2132 1.350 . S
C2127 N2135 1.427 . S
C2128 H2119 0.930 . S
C2128 C2126 1.378 . S
C2128 C2129 1.367 . S
C2129 C2128 1.367 . S
C2129 C2131 1.433 . S
C2130 C2126 1.350 . S
C2130 C2127 1.463 . S
C2130 N2134 1.427 . S
C2131 H2121 0.929 . S
C2131 C2129 1.433 . S
C2131 N2134 1.384 . S
C2132 H2123 0.929 . S
C2132 C2124 1.378 . S
C2132 C2127 1.350 . S
C2133 H2120 0.929 . S
C2133 C2125 1.433 . S
C2133 N2135 1.384 . S
N2134 C2130 1.427 . S
N2134 C2131 1.384 . S
N2135 C2127 1.427 . S
N2135 C2133 1.384 . S
H2136 C2142 0.930 . S
H2137 C2146 0.930 . S
H2138 C2151 0.929 . S
H2139 C2149 0.929 . S
H2140 C2144 0.929 . S
H2141 C2150 0.929 . S
C2142 H2136 0.930 . S
C2142 C2143 1.367 . S
C2142 C2150 1.378 . S
C2143 C2142 1.367 . S
C2143 C2151 1.433 . S
C2144 H2140 0.929 . S
C2144 C2146 1.378 . S
C2144 C2148 1.350 . S
C2145 C2148 1.463 . S
C2145 C2150 1.350 . S
C2145 N2153 1.427 . S
C2146 H2137 0.930 . S
C2146 C2144 1.378 . S
C2146 C2147 1.367 . S
C2147 C2146 1.367 . S
C2147 C2149 1.433 . S
C2148 C2144 1.350 . S
C2148 C2145 1.463 . S
C2148 N2152 1.427 . S
C2149 H2139 0.929 . S
C2149 C2147 1.433 . S
C2149 N2152 1.384 . S
C2150 H2141 0.929 . S
C2150 C2142 1.378 . S
C2150 C2145 1.350 . S
C2151 H2138 0.929 . S
C2151 C2143 1.433 . S
C2151 N2153 1.384 . S
N2152 C2148 1.427 . S
N2152 C2149 1.384 . S
N2153 C2145 1.427 . S
N2153 C2151 1.384 . S
H2154 C2160 0.930 . S
H2155 C2164 0.930 . S
H2156 C2169 0.929 . S
H2157 C2167 0.929 . S
H2158 C2162 0.929 . S
H2159 C2168 0.929 . S
C2160 H2154 0.930 . S
C2160 C2161 1.367 . S
C2160 C2168 1.378 . S
C2161 C2160 1.367 . S
C2161 C2169 1.433 . S
C2162 H2158 0.929 . S
C2162 C2164 1.378 . S
C2162 C2166 1.350 . S
C2163 C2166 1.463 . S
C2163 C2168 1.350 . S
C2163 N2171 1.427 . S
C2164 H2155 0.930 . S
C2164 C2162 1.378 . S
C2164 C2165 1.367 . S
C2165 C2164 1.367 . S
C2165 C2167 1.433 . S
C2166 C2162 1.350 . S
C2166 C2163 1.463 . S
C2166 N2170 1.427 . S
C2167 H2157 0.929 . S
C2167 C2165 1.433 . S
C2167 N2170 1.384 . S
C2168 H2159 0.929 . S
C2168 C2160 1.378 . S
C2168 C2163 1.350 . S
C2169 H2156 0.929 . S
C2169 C2161 1.433 . S
C2169 N2171 1.384 . S
N2170 C2166 1.427 . S
N2170 C2167 1.384 . S
N2171 C2163 1.427 . S
N2171 C2169 1.384 . S
H2172 C2178 0.930 . S
H2173 C2182 0.930 . S
H2174 C2187 0.929 . S
H2175 C2185 0.929 . S
H2176 C2180 0.929 . S
H2177 C2186 0.929 . S
C2178 H2172 0.930 . S
C2178 C2179 1.367 . S
C2178 C2186 1.378 . S
C2179 C2178 1.367 . S
C2179 C2187 1.433 . S
C2180 H2176 0.929 . S
C2180 C2182 1.378 . S
C2180 C2184 1.350 . S
C2181 C2184 1.463 . S
C2181 C2186 1.350 . S
C2181 N2189 1.427 . S
C2182 H2173 0.930 . S
C2182 C2180 1.378 . S
C2182 C2183 1.367 . S
C2183 C2182 1.367 . S
C2183 C2185 1.433 . S
C2184 C2180 1.350 . S
C2184 C2181 1.463 . S
C2184 N2188 1.427 . S
C2185 H2175 0.929 . S
C2185 C2183 1.433 . S
C2185 N2188 1.384 . S
C2186 H2177 0.929 . S
C2186 C2178 1.378 . S
C2186 C2181 1.350 . S
C2187 H2174 0.929 . S
C2187 C2179 1.433 . S
C2187 N2189 1.384 . S
N2188 C2184 1.427 . S
N2188 C2185 1.384 . S
N2189 C2181 1.427 . S
N2189 C2187 1.384 . S
H2190 C2196 0.930 . S
H2191 C2200 0.930 . S
H2192 C2205 0.929 . S
H2193 C2203 0.929 . S
H2194 C2198 0.929 . S
H2195 C2204 0.929 . S
C2196 H2190 0.930 . S
C2196 C2197 1.367 . S
C2196 C2204 1.378 . S
C2197 C2196 1.367 . S
C2197 C2205 1.433 . S
C2198 H2194 0.929 . S
C2198 C2200 1.378 . S
C2198 C2202 1.350 . S
C2199 C2202 1.463 . S
C2199 C2204 1.350 . S
C2199 N2207 1.427 . S
C2200 H2191 0.930 . S
C2200 C2198 1.378 . S
C2200 C2201 1.367 . S
C2201 C2200 1.367 . S
C2201 C2203 1.433 . S
C2202 C2198 1.350 . S
C2202 C2199 1.463 . S
C2202 N2206 1.427 . S
C2203 H2193 0.929 . S
C2203 C2201 1.433 . S
C2203 N2206 1.384 . S
C2204 H2195 0.929 . S
C2204 C2196 1.378 . S
C2204 C2199 1.350 . S
C2205 H2192 0.929 . S
C2205 C2197 1.433 . S
C2205 N2207 1.384 . S
N2206 C2202 1.427 . S
N2206 C2203 1.384 . S
N2207 C2199 1.427 . S
N2207 C2205 1.384 . S
H2208 C2214 0.930 . S
H2209 C2218 0.930 . S
H2210 C2223 0.929 . S
H2211 C2221 0.929 . S
H2212 C2216 0.929 . S
H2213 C2222 0.929 . S
C2214 H2208 0.930 . S
C2214 C2215 1.367 . S
C2214 C2222 1.378 . S
C2215 C2214 1.367 . S
C2215 C2223 1.433 . S
C2216 H2212 0.929 . S
C2216 C2218 1.378 . S
C2216 C2220 1.350 . S
C2217 C2220 1.463 . S
C2217 C2222 1.350 . S
C2217 N2225 1.427 . S
C2218 H2209 0.930 . S
C2218 C2216 1.378 . S
C2218 C2219 1.367 . S
C2219 C2218 1.367 . S
C2219 C2221 1.433 . S
C2220 C2216 1.350 . S
C2220 C2217 1.463 . S
C2220 N2224 1.427 . S
C2221 H2211 0.929 . S
C2221 C2219 1.433 . S
C2221 N2224 1.384 . S
C2222 H2213 0.929 . S
C2222 C2214 1.378 . S
C2222 C2217 1.350 . S
C2223 H2210 0.929 . S
C2223 C2215 1.433 . S
C2223 N2225 1.384 . S
N2224 C2220 1.427 . S
N2224 C2221 1.384 . S
N2225 C2217 1.427 . S
N2225 C2223 1.384 . S
H2226 C2232 0.930 . S
H2227 C2236 0.930 . S
H2228 C2241 0.929 . S
H2229 C2239 0.929 . S
H2230 C2234 0.929 . S
H2231 C2240 0.929 . S
C2232 H2226 0.930 . S
C2232 C2233 1.367 . S
C2232 C2240 1.378 . S
C2233 C2232 1.367 . S
C2233 C2241 1.433 . S
C2234 H2230 0.929 . S
C2234 C2236 1.378 . S
C2234 C2238 1.350 . S
C2235 C2238 1.463 . S
C2235 C2240 1.350 . S
C2235 N2243 1.427 . S
C2236 H2227 0.930 . S
C2236 C2234 1.378 . S
C2236 C2237 1.367 . S
C2237 C2236 1.367 . S
C2237 C2239 1.433 . S
C2238 C2234 1.350 . S
C2238 C2235 1.463 . S
C2238 N2242 1.427 . S
C2239 H2229 0.929 . S
C2239 C2237 1.433 . S
C2239 N2242 1.384 . S
C2240 H2231 0.929 . S
C2240 C2232 1.378 . S
C2240 C2235 1.350 . S
C2241 H2228 0.929 . S
C2241 C2233 1.433 . S
C2241 N2243 1.384 . S
N2242 C2238 1.427 . S
N2242 C2239 1.384 . S
N2243 C2235 1.427 . S
N2243 C2241 1.384 . S
H2244 C2250 0.930 . S
H2245 C2254 0.930 . S
H2246 C2259 0.929 . S
H2247 C2257 0.929 . S
H2248 C2252 0.929 . S
H2249 C2258 0.929 . S
C2250 H2244 0.930 . S
C2250 C2251 1.367 . S
C2250 C2258 1.378 . S
C2251 C2250 1.367 . S
C2251 C2259 1.433 . S
C2252 H2248 0.929 . S
C2252 C2254 1.378 . S
C2252 C2256 1.350 . S
C2253 C2256 1.463 . S
C2253 C2258 1.350 . S
C2253 N2261 1.427 . S
C2254 H2245 0.930 . S
C2254 C2252 1.378 . S
C2254 C2255 1.367 . S
C2255 C2254 1.367 . S
C2255 C2257 1.433 . S
C2256 C2252 1.350 . S
C2256 C2253 1.463 . S
C2256 N2260 1.427 . S
C2257 H2247 0.929 . S
C2257 C2255 1.433 . S
C2257 N2260 1.384 . S
C2258 H2249 0.929 . S
C2258 C2250 1.378 . S
C2258 C2253 1.350 . S
C2259 H2246 0.929 . S
C2259 C2251 1.433 . S
C2259 N2261 1.384 . S
N2260 C2256 1.427 . S
N2260 C2257 1.384 . S
N2261 C2253 1.427 . S
N2261 C2259 1.384 . S
H2262 C2268 0.930 . S
H2263 C2272 0.930 . S
H2264 C2277 0.929 . S
H2265 C2275 0.929 . S
H2266 C2270 0.929 . S
H2267 C2276 0.929 . S
C2268 H2262 0.930 . S
C2268 C2269 1.367 . S
C2268 C2276 1.378 . S
C2269 C2268 1.367 . S
C2269 C2277 1.433 . S
C2270 H2266 0.929 . S
C2270 C2272 1.378 . S
C2270 C2274 1.350 . S
C2271 C2274 1.463 . S
C2271 C2276 1.350 . S
C2271 N2279 1.427 . S
C2272 H2263 0.930 . S
C2272 C2270 1.378 . S
C2272 C2273 1.367 . S
C2273 C2272 1.367 . S
C2273 C2275 1.433 . S
C2274 C2270 1.350 . S
C2274 C2271 1.463 . S
C2274 N2278 1.427 . S
C2275 H2265 0.929 . S
C2275 C2273 1.433 . S
C2275 N2278 1.384 . S
C2276 H2267 0.929 . S
C2276 C2268 1.378 . S
C2276 C2271 1.350 . S
C2277 H2264 0.929 . S
C2277 C2269 1.433 . S
C2277 N2279 1.384 . S
N2278 C2274 1.427 . S
N2278 C2275 1.384 . S
N2279 C2271 1.427 . S
N2279 C2277 1.384 . S
H2280 C2286 0.930 . S
H2281 C2290 0.930 . S
H2282 C2295 0.929 . S
H2283 C2293 0.929 . S
H2284 C2288 0.929 . S
H2285 C2294 0.929 . S
C2286 H2280 0.930 . S
C2286 C2287 1.367 . S
C2286 C2294 1.378 . S
C2287 C2286 1.367 . S
C2287 C2295 1.433 . S
C2288 H2284 0.929 . S
C2288 C2290 1.378 . S
C2288 C2292 1.350 . S
C2289 C2292 1.463 . S
C2289 C2294 1.350 . S
C2289 N2297 1.427 . S
C2290 H2281 0.930 . S
C2290 C2288 1.378 . S
C2290 C2291 1.367 . S
C2291 C2290 1.367 . S
C2291 C2293 1.433 . S
C2292 C2288 1.350 . S
C2292 C2289 1.463 . S
C2292 N2296 1.427 . S
C2293 H2283 0.929 . S
C2293 C2291 1.433 . S
C2293 N2296 1.384 . S
C2294 H2285 0.929 . S
C2294 C2286 1.378 . S
C2294 C2289 1.350 . S
C2295 H2282 0.929 . S
C2295 C2287 1.433 . S
C2295 N2297 1.384 . S
N2296 C2292 1.427 . S
N2296 C2293 1.384 . S
N2297 C2289 1.427 . S
N2297 C2295 1.384 . S
H2298 C2304 0.930 . S
H2299 C2308 0.930 . S
H2300 C2313 0.929 . S
H2301 C2311 0.929 . S
H2302 C2306 0.929 . S
H2303 C2312 0.929 . S
C2304 H2298 0.930 . S
C2304 C2305 1.367 . S
C2304 C2312 1.378 . S
C2305 C2304 1.367 . S
C2305 C2313 1.433 . S
C2306 H2302 0.929 . S
C2306 C2308 1.378 . S
C2306 C2310 1.350 . S
C2307 C2310 1.463 . S
C2307 C2312 1.350 . S
C2307 N2315 1.427 . S
C2308 H2299 0.930 . S
C2308 C2306 1.378 . S
C2308 C2309 1.367 . S
C2309 C2308 1.367 . S
C2309 C2311 1.433 . S
C2310 C2306 1.350 . S
C2310 C2307 1.463 . S
C2310 N2314 1.427 . S
C2311 H2301 0.929 . S
C2311 C2309 1.433 . S
C2311 N2314 1.384 . S
C2312 H2303 0.929 . S
C2312 C2304 1.378 . S
C2312 C2307 1.350 . S
C2313 H2300 0.929 . S
C2313 C2305 1.433 . S
C2313 N2315 1.384 . S
N2314 C2310 1.427 . S
N2314 C2311 1.384 . S
N2315 C2307 1.427 . S
N2315 C2313 1.384 . S
H2316 C2322 0.930 . S
H2317 C2326 0.930 . S
H2318 C2331 0.929 . S
H2319 C2329 0.929 . S
H2320 C2324 0.929 . S
H2321 C2330 0.929 . S
C2322 H2316 0.930 . S
C2322 C2323 1.367 . S
C2322 C2330 1.378 . S
C2323 C2322 1.367 . S
C2323 C2331 1.433 . S
C2324 H2320 0.929 . S
C2324 C2326 1.378 . S
C2324 C2328 1.350 . S
C2325 C2328 1.463 . S
C2325 C2330 1.350 . S
C2325 N2333 1.427 . S
C2326 H2317 0.930 . S
C2326 C2324 1.378 . S
C2326 C2327 1.367 . S
C2327 C2326 1.367 . S
C2327 C2329 1.433 . S
C2328 C2324 1.350 . S
C2328 C2325 1.463 . S
C2328 N2332 1.427 . S
C2329 H2319 0.929 . S
C2329 C2327 1.433 . S
C2329 N2332 1.384 . S
C2330 H2321 0.929 . S
C2330 C2322 1.378 . S
C2330 C2325 1.350 . S
C2331 H2318 0.929 . S
C2331 C2323 1.433 . S
C2331 N2333 1.384 . S
N2332 C2328 1.427 . S
N2332 C2329 1.384 . S
N2333 C2325 1.427 . S
N2333 C2331 1.384 . S
H2334 C2340 0.930 . S
H2335 C2344 0.930 . S
H2336 C2349 0.929 . S
H2337 C2347 0.929 . S
H2338 C2342 0.929 . S
H2339 C2348 0.929 . S
C2340 H2334 0.930 . S
C2340 C2341 1.367 . S
C2340 C2348 1.378 . S
C2341 C2340 1.367 . S
C2341 C2349 1.433 . S
C2342 H2338 0.929 . S
C2342 C2344 1.378 . S
C2342 C2346 1.350 . S
C2343 C2346 1.463 . S
C2343 C2348 1.350 . S
C2343 N2351 1.427 . S
C2344 H2335 0.930 . S
C2344 C2342 1.378 . S
C2344 C2345 1.367 . S
C2345 C2344 1.367 . S
C2345 C2347 1.433 . S
C2346 C2342 1.350 . S
C2346 C2343 1.463 . S
C2346 N2350 1.427 . S
C2347 H2337 0.929 . S
C2347 C2345 1.433 . S
C2347 N2350 1.384 . S
C2348 H2339 0.929 . S
C2348 C2340 1.378 . S
C2348 C2343 1.350 . S
C2349 H2336 0.929 . S
C2349 C2341 1.433 . S
C2349 N2351 1.384 . S
N2350 C2346 1.427 . S
N2350 C2347 1.384 . S
N2351 C2343 1.427 . S
N2351 C2349 1.384 . S
C631 C364 1.038 . S
C635 C0 1.061 . S
C649 C13 1.052 . S
C653 C377 1.046 . S
C667 C390 1.053 . S
C671 C26 1.045 . S
C685 C39 1.049 . S
C689 C403 1.050 . S
C703 C312 1.061 . S
C707 C52 1.037 . S
C721 C65 1.047 . S
C725 C325 1.052 . S
C739 C338 1.050 . S
C743 C78 1.048 . S
C757 C91 1.047 . S
C761 C351 1.051 . S
C775 C494 1.055 . S
C779 C104 1.044 . S
C793 C507 1.054 . S
C797 C117 1.044 . S
C811 C468 1.049 . S
C815 C130 1.050 . S
C829 C143 1.058 . S
C833 C481 1.040 . S
C847 C442 1.060 . S
C851 C156 1.038 . S
C865 C455 1.044 . S
C869 C169 1.055 . S
C883 C182 1.039 . S
C887 C416 1.059 . S
C901 C429 1.043 . S
C905 C195 1.055 . S
C919 C208 1.051 . S
C923 C585 1.047 . S
C937 C559 1.060 . S
C941 C221 1.038 . S
C955 C572 1.055 . S
C959 C234 1.043 . S
C973 C533 1.038 . S
C977 C247 1.060 . S
C991 C546 1.041 . S
C995 C260 1.057 . S
C1009 C273 1.048 . S
C1013 C520 1.051 . S
C1027 C286 1.037 . S
C1031 C611 1.061 . S
C1045 C598 1.050 . S
C1049 C299 1.049 . S
C1063 C99 1.351 . S
C1067 C8 1.353 . S
C1081 C60 1.349 . S
C1085 C21 1.363 . S
C1099 C73 1.346 . S
C1103 C34 1.362 . S
C1117 C86 1.352 . S
C1121 C47 1.362 . S
C1135 C268 1.346 . S
C1139 C112 1.363 . S
C1153 C229 1.347 . S
C1157 C125 1.363 . S
C1171 C242 1.359 . S
C1175 C138 1.347 . S
C1189 C255 1.349 . S
C1193 C151 1.356 . S
C1207 C307 1.358 . S
C1211 C164 1.357 . S
C1225 C281 1.348 . S
C1229 C177 1.358 . S
C1243 C190 1.354 . S
C1247 C294 1.350 . S
C1261 C216 1.347 . S
C1265 C203 1.363 . S
C1279 C411 1.358 . S
C1283 C320 1.356 . S
C1297 C372 1.355 . S
C1301 C333 1.350 . S
C1315 C346 1.358 . S
C1319 C385 1.348 . S
C1333 C359 1.347 . S
C1337 C398 1.359 . S
C1351 C424 1.350 . S
C1355 C580 1.363 . S
C1369 C437 1.346 . S
C1373 C541 1.362 . S
C1387 C554 1.363 . S
C1391 C450 1.347 . S
C1405 C567 1.359 . S
C1409 C463 1.355 . S
C1423 C619 1.350 . S
C1427 C476 1.355 . S
C1441 C593 1.349 . S
C1445 C489 1.356 . S
C1459 C606 1.360 . S
C1463 C502 1.346 . S
C1477 C515 1.359 . S
C1481 C528 1.347 . S
C1495 C10 1.043 . S
C1499 C109 0.951 . S
C1513 C122 0.940 . S
C1517 C23 1.044 . S
C1531 C135 0.959 . S
C1535 C36 1.048 . S
C1549 C148 0.947 . S
C1553 C49 1.043 . S
C1567 C62 1.048 . S
C1571 C161 0.928 . S
C1585 C174 0.943 . S
C1589 C75 1.044 . S
C1603 C88 1.054 . S
C1607 C187 0.943 . S
C1621 C200 0.961 . S
C1625 C101 1.045 . S
C1639 C213 0.961 . S
C1643 C114 1.044 . S
C1657 C304 0.924 . S
C1661 C127 1.051 . S
C1675 C140 1.049 . S
C1679 C278 0.959 . S
C1693 C153 1.053 . S
C1697 C291 0.922 . S
C1711 C166 1.047 . S
C1715 C226 0.961 . S
C1729 C179 1.047 . S
C1733 C239 0.961 . S
C1747 C192 1.043 . S
C1751 C252 0.957 . S
C1765 C205 1.047 . S
C1769 C265 0.930 . S
C1783 C218 1.048 . S
C1787 C5 0.960 . S
C1801 C231 1.051 . S
C1805 C57 0.955 . S
C1819 C244 1.043 . S
C1823 C70 0.954 . S
C1837 C257 1.055 . S
C1841 C83 0.924 . S
C1855 C270 1.043 . S
C1859 C96 0.956 . S
C1873 C283 1.056 . S
C1877 C31 0.928 . S
C1891 C44 0.923 . S
C1895 C296 1.051 . S
C1909 C18 0.960 . S
C1913 C309 1.048 . S
C1927 C421 0.960 . S
C1931 C322 1.048 . S
C1945 C434 0.935 . S
C1949 C335 1.045 . S
C1963 C447 0.940 . S
C1967 C348 1.055 . S
C1981 C460 0.943 . S
C1985 C361 1.055 . S
C1999 C473 0.949 . S
C2003 C374 1.053 . S
C2017 C387 1.052 . S
C2021 C486 0.952 . S
C2035 C499 0.958 . S
C2039 C400 1.049 . S
C2053 C413 1.052 . S
C2057 C512 0.953 . S
C2071 C525 0.939 . S
C2075 C426 1.055 . S
C2089 C439 1.043 . S
C2093 C616 0.950 . S
C2107 C452 1.054 . S
C2111 C590 0.947 . S
C2125 C603 0.928 . S
C2129 C465 1.048 . S
C2143 C538 0.935 . S
C2147 C478 1.045 . S
C2161 C491 1.045 . S
C2165 C551 0.961 . S
C2179 C504 1.046 . S
C2183 C564 0.961 . S
C2197 C577 0.956 . S
C2201 C517 1.051 . S
C2215 C317 0.923 . S
C2219 C530 1.054 . S
C2233 C369 0.961 . S
C2237 C543 1.045 . S
C2251 C382 0.923 . S
C2255 C556 1.054 . S
C2269 C569 1.043 . S
C2273 C395 0.949 . S
C2287 C408 0.947 . S
C2291 C582 1.043 . S
C2305 C343 0.927 . S
C2309 C595 1.056 . S
C2323 C608 1.055 . S
C2327 C356 0.943 . S
C2341 C330 0.927 . S
C2345 C621 1.056 . S
