# Generated by pormake.
# Topology wjd, (6)-cn, num edge types: 1
# Building blocks:
#     Node 0, Type 0, BuildingBlock: KUMBUR_clean_sbu_0, # of connection points: 6
#     Node 1, Type 0, BuildingBlock: KUMBUR_clean_sbu_0, # of connection points: 6
#     Node 2, Type 0, BuildingBlock: KUMBUR_clean_sbu_0, # of connection points: 6
#     Node 3, Type 0, BuildingBlock: KUMBUR_clean_sbu_0, # of connection points: 6
#     Node 4, Type 0, BuildingBlock: KUMBUR_clean_sbu_0, # of connection points: 6
#     Node 5, Type 0, BuildingBlock: KUMBUR_clean_sbu_0, # of connection points: 6
#     Node 6, Type 0, BuildingBlock: KUMBUR_clean_sbu_0, # of connection points: 6
#     Node 7, Type 0, BuildingBlock: KUMBUR_clean_sbu_0, # of connection points: 6
#     Node 8, Type 0, BuildingBlock: KUMBUR_clean_sbu_0, # of connection points: 6
#     Node 9, Type 0, BuildingBlock: KUMBUR_clean_sbu_0, # of connection points: 6
#     Node 10, Type 0, BuildingBlock: KUMBUR_clean_sbu_0, # of connection points: 6
#     Node 11, Type 0, BuildingBlock: KUMBUR_clean_sbu_0, # of connection points: 6
#     Edge 12, Type (0, 0), BuildingBlock: TEMPAE_clean_linker_10, # of connection points: 2
#     Edge 13, Type (0, 0), BuildingBlock: TEMPAE_clean_linker_10, # of connection points: 2
#     Edge 14, Type (0, 0), BuildingBlock: TEMPAE_clean_linker_10, # of connection points: 2
#     Edge 15, Type (0, 0), BuildingBlock: TEMPAE_clean_linker_10, # of connection points: 2
#     Edge 16, Type (0, 0), BuildingBlock: TEMPAE_clean_linker_10, # of connection points: 2
#     Edge 17, Type (0, 0), BuildingBlock: TEMPAE_clean_linker_10, # of connection points: 2
#     Edge 18, Type (0, 0), BuildingBlock: TEMPAE_clean_linker_10, # of connection points: 2
#     Edge 19, Type (0, 0), BuildingBlock: TEMPAE_clean_linker_10, # of connection points: 2
#     Edge 20, Type (0, 0), BuildingBlock: TEMPAE_clean_linker_10, # of connection points: 2
#     Edge 21, Type (0, 0), BuildingBlock: TEMPAE_clean_linker_10, # of connection points: 2
#     Edge 22, Type (0, 0), BuildingBlock: TEMPAE_clean_linker_10, # of connection points: 2
#     Edge 23, Type (0, 0), BuildingBlock: TEMPAE_clean_linker_10, # of connection points: 2
#     Edge 24, Type (0, 0), BuildingBlock: TEMPAE_clean_linker_10, # of connection points: 2
#     Edge 25, Type (0, 0), BuildingBlock: TEMPAE_clean_linker_10, # of connection points: 2
#     Edge 26, Type (0, 0), BuildingBlock: TEMPAE_clean_linker_10, # of connection points: 2
#     Edge 27, Type (0, 0), BuildingBlock: TEMPAE_clean_linker_10, # of connection points: 2
#     Edge 28, Type (0, 0), BuildingBlock: TEMPAE_clean_linker_10, # of connection points: 2
#     Edge 29, Type (0, 0), BuildingBlock: TEMPAE_clean_linker_10, # of connection points: 2
#     Edge 30, Type (0, 0), BuildingBlock: TEMPAE_clean_linker_10, # of connection points: 2
#     Edge 31, Type (0, 0), BuildingBlock: TEMPAE_clean_linker_10, # of connection points: 2
#     Edge 32, Type (0, 0), BuildingBlock: TEMPAE_clean_linker_10, # of connection points: 2
#     Edge 33, Type (0, 0), BuildingBlock: TEMPAE_clean_linker_10, # of connection points: 2
#     Edge 34, Type (0, 0), BuildingBlock: TEMPAE_clean_linker_10, # of connection points: 2
#     Edge 35, Type (0, 0), BuildingBlock: TEMPAE_clean_linker_10, # of connection points: 2
#     Edge 36, Type (0, 0), BuildingBlock: TEMPAE_clean_linker_10, # of connection points: 2
#     Edge 37, Type (0, 0), BuildingBlock: TEMPAE_clean_linker_10, # of connection points: 2
#     Edge 38, Type (0, 0), BuildingBlock: TEMPAE_clean_linker_10, # of connection points: 2
#     Edge 39, Type (0, 0), BuildingBlock: TEMPAE_clean_linker_10, # of connection points: 2
#     Edge 40, Type (0, 0), BuildingBlock: TEMPAE_clean_linker_10, # of connection points: 2
#     Edge 41, Type (0, 0), BuildingBlock: TEMPAE_clean_linker_10, # of connection points: 2
#     Edge 42, Type (0, 0), BuildingBlock: TEMPAE_clean_linker_10, # of connection points: 2
#     Edge 43, Type (0, 0), BuildingBlock: TEMPAE_clean_linker_10, # of connection points: 2
#     Edge 44, Type (0, 0), BuildingBlock: TEMPAE_clean_linker_10, # of connection points: 2
#     Edge 45, Type (0, 0), BuildingBlock: TEMPAE_clean_linker_10, # of connection points: 2
#     Edge 46, Type (0, 0), BuildingBlock: TEMPAE_clean_linker_10, # of connection points: 2
#     Edge 47, Type (0, 0), BuildingBlock: TEMPAE_clean_linker_10, # of connection points: 2
# Relax obj value: 0.097
# Max RMSD: 0.214
# Mean RMSD: 0.214
data_MOF--net-wjd--node1-KUMBUR_clean_sbu_0--edge1-TEMPAE_clean_linker_10
_symmetry_space_group_name_H-M    P1
_symmetry_Int_Tables_number       1
_symmetry_cell_setting            triclinic
loop_
_symmetry_equiv_pos_as_xyz
'x, y, z'
_cell_length_a     38.638275
_cell_length_b     38.638932
_cell_length_c     55.184191
_cell_angle_alpha  90.06452
_cell_angle_beta   89.998802
_cell_angle_gamma 120.00302
loop_
_atom_site_label
_atom_site_type_symbol
_atom_site_fract_x
_atom_site_fract_y
_atom_site_fract_z
_atom_type_partial_charge
Tb0 Tb 0.38223 0.19176 0.10867 0.0
C1 C 0.35461 0.06484 0.18538 0.0
C2 C 0.39928 0.04184 0.1722 0.0
C3 C 0.3823 0.03863 0.21485 0.0
C4 C 0.37529 0.05897 0.16714 0.0
C5 C 0.35644 0.05321 0.2093 0.0
C6 C 0.40392 0.03316 0.1963 0.0
C7 C 0.30344 0.06646 0.21964 0.0
N8 N 0.32963 0.07845 0.17914 0.0
C9 C 0.30292 0.0778 0.19567 0.0
C10 C 0.33061 0.05453 0.22652 0.0
Tb11 Tb 0.3305 0.09646 0.13947 0.0
N12 N 0.36858 0.06633 0.14413 0.0
C13 C 0.38179 0.05323 0.12512 0.0
C14 C 0.41598 0.03194 0.1528 0.0
C15 C 0.40645 0.03685 0.12914 0.0
H16 H 0.28106 0.086 0.19056 0.0
H17 H 0.41807 0.02804 0.11396 0.0
H18 H 0.42262 0.02047 0.20062 0.0
H19 H 0.28252 0.0664 0.2327 0.0
H20 H 0.37472 0.05659 0.10669 0.0
H21 H 0.34058 0.29815 0.13844 0.0
H22 H 0.4347 0.01886 0.15587 0.0
H23 H 0.40463 0.17499 0.05318 0.0
H24 H 0.35848 0.24625 0.14384 0.0
H25 H 0.39353 0.18781 0.01103 0.0
H26 H 0.38463 0.0301 0.23322 0.0
H27 H 0.32564 0.31332 0.09752 0.0
H28 H 0.31529 0.29657 0.05326 0.0
H29 H 0.33007 0.04464 0.24484 0.0
H30 H 0.32756 0.26438 0.01842 0.0
N31 N 0.35343 0.23097 0.10633 0.0
C32 C 0.35115 0.25151 0.12589 0.0
C33 C 0.33203 0.28927 0.0999 0.0
C34 C 0.33315 0.26748 0.08003 0.0
C35 C 0.34089 0.28112 0.12295 0.0
C36 C 0.34533 0.23907 0.08378 0.0
H37 H 0.35745 0.22424 1.00245 0.0
N38 N 0.37244 0.20119 0.06864 0.0
C39 C 0.38209 0.19762 0.02581 0.0
C40 C 0.35395 0.2225 0.06423 0.0
C41 C 0.38834 0.19045 0.0498 0.0
C42 C 0.36145 0.21791 0.02104 0.0
C43 C 0.34832 0.23185 0.04036 0.0
O44 O 0.44078 0.2285 0.09532 0.0
O45 O 0.38791 0.14494 0.12659 0.0
O46 O 0.36561 0.13814 0.16775 0.0
O47 O 0.38087 0.19903 0.14929 0.0
O48 O 0.41949 0.16845 0.0954 0.0
O49 O 0.42094 0.2457 0.12694 0.0
O50 O 0.26748 0.06351 0.14162 0.0
O51 O 0.32704 0.14566 0.12305 0.0
O52 O 0.33728 0.14473 0.0836 0.0
O53 O 0.33747 0.09041 0.10075 0.0
O54 O 0.29188 0.11942 0.15251 0.0
O55 O 0.29973 0.03834 0.12485 0.0
C56 C 0.41339 0.14382 0.11261 0.0
C57 C 0.46645 0.29827 0.10151 0.0
C58 C 0.5123 0.37093 0.1046 0.0
C59 C 0.49804 0.33165 0.11352 0.0
C60 C 0.49451 0.3761 0.08374 0.0
C61 C 0.45062 0.3048 0.08026 0.0
C62 C 0.46418 0.34331 0.07163 0.0
C63 C 0.37808 0.17682 0.16868 0.0
C64 C 0.44946 0.25687 0.11109 0.0
C65 C 0.33236 0.25704 0.0366 0.0
C66 C 0.32535 0.27533 0.05643 0.0
C67 C 0.30152 0.14707 0.13669 0.0
C68 C 0.23889 0.99381 0.14427 0.0
C69 C 0.19826 0.97032 0.13774 0.0
C70 C 0.17358 0.9336 0.14946 0.0
C71 C 0.18989 0.92144 0.16817 0.0
C72 C 0.25443 0.9807 0.16279 0.0
C73 C 0.22994 0.94487 0.17477 0.0
C74 C 0.32862 0.10664 0.08257 0.0
C75 C 0.26479 0.03184 0.13171 0.0
H76 H 0.51121 0.32714 0.12969 0.0
H77 H 0.50496 0.40566 0.07633 0.0
H78 H 0.42796 0.28012 0.07009 0.0
H79 H 0.45136 0.34773 0.0553 0.0
H80 H 0.18621 0.98008 0.12325 0.0
H81 H 0.17157 0.8936 0.17769 0.0
H82 H 0.28553 0.99797 0.1679 0.0
H83 H 0.24214 0.93505 0.18911 0.0
Tb84 Tb 0.79842 0.71199 0.37944 0.0
C85 C 0.91292 0.68803 0.44478 0.0
C86 C 0.97534 0.70815 0.42432 0.0
C87 C 0.97342 0.70854 0.46829 0.0
C88 C 0.93447 0.69648 0.42359 0.0
C89 C 0.93196 0.69328 0.46742 0.0
C90 C 0.995 0.71537 0.44673 0.0
C91 C 0.86691 0.66042 0.48625 0.0
N92 N 0.8726 0.67013 0.44303 0.0
C93 C 0.84938 0.65424 0.46332 0.0
C94 C 0.90845 0.6805 0.48835 0.0
Tb95 Tb 0.84647 0.66018 0.40451 0.0
N96 N 0.91452 0.68913 0.40224 0.0
C97 C 0.93391 0.69238 0.38089 0.0
C98 C 0.99456 0.70964 0.40261 0.0
C99 C 0.97391 0.70221 0.38077 0.0
H100 H 0.81721 0.6379 0.46191 0.0
H101 H 0.98858 0.70338 0.36384 0.0
H102 H 1.02656 0.72501 0.4476 0.0
H103 H 0.84835 0.64905 0.50223 0.0
H104 H 0.91841 0.68601 0.36382 0.0
H105 H 0.65207 0.63537 0.42186 0.0
H106 H 1.02513 0.71573 0.40256 0.0
H107 H 0.82433 0.74439 0.32312 0.0
H108 H 0.72487 0.67509 0.42128 0.0
H109 H 0.7914 0.7353 0.28346 0.0
H110 H 0.98865 0.71301 0.48548 0.0
H111 H 0.61391 0.61542 0.3835 0.0
H112 H 0.61421 0.61992 0.33806 0.0
H113 H 0.92196 0.68425 0.50607 0.0
H114 H 0.65211 0.64796 0.30034 0.0
N115 N 0.72966 0.67725 0.38259 0.0
C116 C 0.70943 0.66706 0.40418 0.0
C117 C 0.64624 0.63298 0.38304 0.0
C118 C 0.66675 0.64574 0.36107 0.0
C119 C 0.66767 0.64429 0.4047 0.0
C120 C 0.70888 0.66839 0.36152 0.0
H121 H 0.71801 0.69202 0.28004 0.0
N122 N 0.7702 0.70656 0.34202 0.0
C123 C 0.77376 0.7206 0.29936 0.0
C124 C 0.72993 0.68391 0.34046 0.0
C125 C 0.79227 0.72581 0.32193 0.0
C126 C 0.7324 0.69604 0.29744 0.0
C127 C 0.70989 0.67752 0.31815 0.0
O128 O 0.81701 0.77113 0.36811 0.0
O129 O 0.85368 0.71562 0.39133 0.0
O130 O 0.8492 0.7046 0.4315 0.0
O131 O 0.794 0.70883 0.41901 0.0
O132 O 0.85747 0.74987 0.36254 0.0
O133 O 0.78914 0.74935 0.40276 0.0
O134 O 0.82455 0.60113 0.41686 0.0
O135 O 0.79171 0.65537 0.39098 0.0
O136 O 0.79517 0.67032 0.3518 0.0
O137 O 0.84815 0.66134 0.36365 0.0
O138 O 0.78776 0.62313 0.42095 0.0
O139 O 0.86002 0.62155 0.38467 0.0
C140 C 0.87818 0.7408 0.37655 0.0
C141 C 0.78088 0.80025 0.38515 0.0
C142 C 0.78016 0.86349 0.38415 0.0
C143 C 0.80127 0.84231 0.3835 0.0
C144 C 0.73817 0.84123 0.38659 0.0
C145 C 0.73906 0.7791 0.38661 0.0
C146 C 0.71794 0.79956 0.3874 0.0
C147 C 0.82074 0.71381 0.43554 0.0
C148 C 0.80372 0.77925 0.38772 0.0
C149 C 0.66808 0.6536 0.31735 0.0
C150 C 0.64652 0.63762 0.33881 0.0
C151 C 0.76698 0.63025 0.40577 0.0
C152 C 0.86776 0.57512 0.40884 0.0
C153 C 0.86892 0.54392 0.39595 0.0
C154 C 0.8938 0.52895 0.404 0.0
C155 C 0.9173 0.54565 0.42483 0.0
C156 C 0.89052 0.58974 0.43009 0.0
C157 C 0.91542 0.57556 0.43781 0.0
C158 C 0.82255 0.6603 0.34691 0.0
C159 C 0.84325 0.59265 0.40032 0.0
H160 H 0.83351 0.85821 0.38186 0.0
H161 H 0.72059 0.85582 0.38824 0.0
H162 H 0.72276 0.74682 0.38784 0.0
H163 H 0.68571 0.78306 0.3891 0.0
H164 H 0.8508 0.53152 0.37984 0.0
H165 H 0.93629 0.53457 0.43158 0.0
H166 H 0.88879 0.61184 0.44101 0.0
H167 H 0.93298 0.58747 0.45415 0.0
Tb168 Tb 0.8503 0.20002 0.10651 0.0
C169 C 0.98515 0.31671 0.17262 0.0
C170 C 1.01022 0.37949 0.15154 0.0
C171 C 1.01355 0.37876 0.19547 0.0
C172 C 0.99174 0.33743 0.15132 0.0
C173 C 0.99699 0.33708 0.19492 0.0
C174 C 1.02007 0.39996 0.17377 0.0
C175 C 0.97832 0.274 0.21415 0.0
N176 N 0.96898 0.27653 0.17128 0.0
C177 C 0.96677 0.25511 0.19155 0.0
C178 C 0.9929 0.3151 0.21587 0.0
Tb179 Tb 0.94866 0.24774 0.13378 0.0
N180 N 0.9821 0.31644 0.13031 0.0
C181 C 0.9934 0.33644 0.10866 0.0
C182 C 1.01937 0.39973 0.12942 0.0
C183 C 1.01153 0.37813 0.1079 0.0
H184 H 0.95499 0.22326 0.19044 0.0
H185 H 1.01926 0.39354 0.09067 0.0
H186 H 0.03381 0.43221 0.17434 0.0
H187 H 0.9757 0.25683 0.23021 0.0
H188 H 0.98754 0.32077 0.09168 0.0
H189 H 0.74928 0.05744 0.14588 0.0
H190 H 0.03352 0.43201 0.12878 0.0
H191 H 0.85867 0.22985 0.0492 0.0
H192 H 0.80188 0.12761 0.14658 0.0
H193 H 0.84053 0.19926 0.00865 0.0
H194 H 1.02236 0.39494 0.21248 0.0
H195 H 0.72731 0.02114 0.10693 0.0
H196 H 0.73733 0.02022 0.06209 0.0
H197 H 1.00167 0.32986 0.23328 0.0
H198 H 0.76461 0.05866 0.02453 0.0
N199 N 0.81101 0.1319 0.10832 0.0
C200 C 0.79373 0.1123 0.12942 0.0
C201 C 0.75173 0.05173 0.10721 0.0
C202 C 0.77044 0.07122 0.08577 0.0
C203 C 0.76368 0.07225 0.12916 0.0
C204 C 0.79945 0.11214 0.08686 0.0
H205 H 0.80286 0.12569 1.00438 0.0
N206 N 0.83526 0.17426 0.06784 0.0
C207 C 0.83286 0.18049 0.02456 0.0
C208 C 0.81325 0.13396 0.06584 0.0
C209 C 0.84319 0.19771 0.04762 0.0
C210 C 0.81183 0.13898 0.02222 0.0
C211 C 0.80047 0.11519 0.04303 0.0
O212 O 0.81256 0.22069 0.09329 0.0
O213 O 0.8996 0.25459 0.1206 0.0
O214 O 0.90898 0.25041 0.16062 0.0
O215 O 0.84788 0.19757 0.14736 0.0
O216 O 0.87264 0.25882 0.0901 0.0
O217 O 0.79858 0.18761 0.12641 0.0
O218 O 0.9823 0.22106 0.1444 0.0
O219 O 0.89807 0.1927 0.12045 0.0
O220 O 0.89321 0.19797 0.08018 0.0
O221 O 0.95291 0.25133 0.09428 0.0
O222 O 0.92548 0.1888 0.15102 0.0
O223 O 1.003 0.26461 0.11587 0.0
C224 C 0.8999 0.2795 0.10567 0.0
C225 C 0.7436 0.17757 0.1023 0.0
C226 C 0.67141 0.15054 0.1081 0.0
C227 C 0.7115 0.17664 0.11533 0.0
C228 C 0.66414 0.1256 0.08791 0.0
C229 C 0.73497 0.15328 0.0817 0.0
C230 C 0.69566 0.12721 0.07478 0.0
C231 C 0.87136 0.22282 0.16462 0.0
C232 C 0.78585 0.20304 0.11022 0.0
C233 C 0.77459 0.07369 0.04185 0.0
C234 C 0.75907 0.05181 0.06322 0.0
C235 C 0.89737 0.16817 0.13583 0.0
C236 C 0.05182 0.25937 0.13893 0.0
C237 C 0.07545 0.24188 0.13366 0.0
C238 C 0.11453 0.25855 0.14309 0.0
C239 C 0.12901 0.29239 0.15822 0.0
C240 C 0.0672 0.29329 0.15379 0.0
C241 C 0.10553 0.30955 0.16346 0.0
C242 C 0.93161 0.22548 0.07724 0.0
C243 C 1.01099 0.24162 0.12916 0.0
H244 H 0.7176 0.19585 0.13096 0.0
H245 H 0.63386 0.10564 0.08179 0.0
H246 H 0.75857 0.15462 0.07073 0.0
H247 H 0.68961 0.10847 0.05894 0.0
H248 H 0.06371 0.21586 0.12197 0.0
H249 H 0.15859 0.30557 0.16613 0.0
H250 H 0.04961 0.30718 0.15795 0.0
H251 H 0.11713 0.33561 0.17506 0.0
Tb252 Tb 0.33457 0.09606 0.37823 0.0
C253 C 0.35593 0.22978 0.44719 0.0
C254 C 0.33589 0.27267 0.42746 0.0
C255 C 0.33376 0.26779 0.47134 0.0
C256 C 0.34812 0.24392 0.42623 0.0
C257 C 0.34964 0.24215 0.47005 0.0
C258 C 0.32746 0.28353 0.45005 0.0
C259 C 0.38304 0.21014 0.48839 0.0
N260 N 0.37437 0.20791 0.44511 0.0
C261 C 0.39018 0.2002 0.46529 0.0
C262 C 0.36213 0.23072 0.49082 0.0
Tb263 Tb 0.38568 0.19368 0.4064 0.0
N264 N 0.35669 0.23285 0.40471 0.0
C265 C 0.35454 0.25047 0.38371 0.0
C266 C 0.33514 0.29164 0.40612 0.0
C267 C 0.34418 0.28025 0.38413 0.0
H268 H 0.40733 0.18525 0.4636 0.0
H269 H 0.34389 0.29492 0.36749 0.0
H270 H 0.31737 0.30508 0.45128 0.0
H271 H 0.39433 0.20257 0.50427 0.0
H272 H 0.36204 0.24273 0.36653 0.0
H273 H 0.40875 0.02388 0.42076 0.0
H274 H 0.32877 0.31591 0.40654 0.0
H275 H 0.30406 0.09088 0.32161 0.0
H276 H 0.36807 0.056 0.42005 0.0
H277 H 0.31718 0.07115 0.28171 0.0
H278 H 0.32846 0.27743 0.48871 0.0
H279 H 0.43302 1.01015 0.38252 0.0
H280 H 0.43325 1.01077 0.33696 0.0
H281 H 0.35762 0.23941 0.5087 0.0
H282 H 0.40787 0.02321 0.29893 0.0
N283 N 0.3694 0.06215 0.38145 0.0
C284 C 0.37789 0.05037 0.403 0.0
C285 C 0.41504 0.02446 0.38201 0.0
C286 C 0.40418 0.03414 0.35998 0.0
C287 C 0.40124 0.032 0.4036 0.0
C288 C 0.38079 0.05282 0.36036 0.0
H289 H 0.36405 0.04483 0.27834 0.0
N290 N 0.34308 0.07631 0.34061 0.0
C291 C 0.33151 0.06794 0.2977 0.0
C292 C 0.3669 0.05995 0.33913 0.0
C293 C 0.32405 0.07902 0.32039 0.0
C294 C 0.35789 0.0532 0.29583 0.0
C295 C 0.3755 0.04849 0.31672 0.0
O296 O 0.27404 0.06382 0.36773 0.0
O297 O 0.33029 0.14656 0.39213 0.0
O298 O 0.34091 0.15043 0.43261 0.0
O299 O 0.33332 0.09066 0.41766 0.0
O300 O 0.30009 0.1205 0.36092 0.0
O301 O 0.29648 0.04069 0.395 0.0
O302 O 0.44407 0.23029 0.42001 0.0
O303 O 0.3907 0.14456 0.39174 0.0
O304 O 0.37723 0.13596 0.3516 0.0
O305 O 0.38686 0.19729 0.36551 0.0
O306 O 0.42172 0.17054 0.42246 0.0
O307 O 0.42514 0.24701 0.38785 0.0
C308 C 0.30722 0.14808 0.37645 0.0
C309 C 0.24144 0.99389 0.37147 0.0
C310 C 0.17709 0.93203 0.36641 0.0
C311 C 0.2003 0.97027 0.37694 0.0
C312 C 0.19569 0.91854 0.34995 0.0
C313 C 0.25911 0.97926 0.35535 0.0
C314 C 0.23627 0.94192 0.34456 0.0
C315 C 0.32941 0.11181 0.43507 0.0
C316 C 0.26545 0.03406 0.38215 0.0
C317 C 0.40044 0.03174 0.31602 0.0
C318 C 0.41487 0.02465 0.33765 0.0
C319 C 0.41515 0.14367 0.4066 0.0
C320 C 0.46946 0.2999 0.41363 0.0
C321 C 0.49974 0.33353 0.40115 0.0
C322 C 0.51344 0.37274 0.41008 0.0
C323 C 0.49633 0.3776 0.43136 0.0
C324 C 0.45447 0.30617 0.43534 0.0
C325 C 0.46733 0.34459 0.44391 0.0
C326 C 0.3881 0.1739 0.34798 0.0
C327 C 0.4531 0.25848 0.40412 0.0
H328 H 0.18667 0.98136 0.38961 0.0
H329 H 0.17877 0.88978 0.3411 0.0
H330 H 0.29052 0.99674 0.35102 0.0
H331 H 0.25009 0.93099 0.33196 0.0
H332 H 0.51242 0.32927 0.38467 0.0
H333 H 0.50645 0.4071 0.43881 0.0
H334 H 0.4331 0.28141 0.44598 0.0
H335 H 0.45513 0.34877 0.4606 0.0
Tb336 Tb 0.84416 0.6619 0.10709 0.0
C337 C 0.73421 0.68304 0.17778 0.0
C338 C 0.66919 0.64084 0.16006 0.0
C339 C 0.67571 0.65041 0.20372 0.0
C340 C 0.71093 0.66546 0.15773 0.0
C341 C 0.71688 0.67697 0.20095 0.0
C342 C 0.65186 0.63227 0.18326 0.0
C343 C 0.78111 0.72752 0.2162 0.0
N344 N 0.77362 0.70877 0.17419 0.0
C345 C 0.79676 0.73257 0.19278 0.0
C346 C 0.74113 0.69908 0.22038 0.0
Tb347 Tb 0.79768 0.71304 0.13565 0.0
N348 N 0.72892 0.67532 0.13575 0.0
C349 C 0.70603 0.66449 0.11517 0.0
C350 C 0.64605 0.62714 0.13902 0.0
C351 C 0.6645 0.63969 0.11648 0.0
H352 H 0.82754 0.75498 0.18969 0.0
H353 H 0.64679 0.63017 0.10006 0.0
H354 H 0.61992 0.61295 0.18548 0.0
H355 H 0.79982 0.74567 0.23098 0.0
H356 H 0.71949 0.67355 0.09751 0.0
H357 H 0.98895 0.70483 0.14397 0.0
H358 H 0.61389 0.6082 0.13999 0.0
H359 H 0.81224 0.63888 0.05033 0.0
H360 H 0.91852 0.68583 0.146 0.0
H361 H 0.84109 0.65178 0.00927 0.0
H362 H 0.66185 0.64485 0.22143 0.0
H363 H 1.02376 0.72052 0.10449 0.0
H364 H 1.02263 0.73193 0.05988 0.0
H365 H 0.72895 0.69546 0.23843 0.0
H366 H 0.98244 0.7201 0.023 0.0
N367 N 0.91246 0.69127 0.10791 0.0
C368 C 0.93308 0.69357 0.1286 0.0
C369 C 0.99302 0.71379 0.10537 0.0
C370 C 0.97245 0.71282 0.08437 0.0
C371 C 0.97334 0.70442 0.1276 0.0
C372 C 0.9314 0.7001 0.08617 0.0
H373 H 0.91444 0.68965 1.00389 0.0
N374 N 0.86843 0.67293 0.0681 0.0
C375 C 0.86049 0.66357 0.02491 0.0
C376 C 0.90867 0.69193 0.0655 0.0
C377 C 0.84425 0.65647 0.04823 0.0
C378 C 0.90187 0.68515 0.02194 0.0
C379 C 0.92654 0.69826 0.0424 0.0
O380 O 0.82225 0.60338 0.0936 0.0
O381 O 0.79023 0.65624 0.12295 0.0
O382 O 0.80142 0.67646 0.16421 0.0
O383 O 0.84912 0.66234 0.1478 0.0
O384 O 0.78469 0.62545 0.09182 0.0
O385 O 0.85857 0.62272 0.12549 0.0
O386 O 0.82683 0.7752 0.14196 0.0
O387 O 0.85178 0.71703 0.12107 0.0
O388 O 0.8439 0.70606 0.08098 0.0
O389 O 0.7903 0.71072 0.09627 0.0
O390 O 0.85769 0.75062 0.15101 0.0
O391 O 0.77487 0.74695 0.11941 0.0
C392 C 0.76474 0.63136 0.10823 0.0
C393 C 0.86652 0.57796 0.09974 0.0
C394 C 0.89441 0.53303 0.1027 0.0
C395 C 0.86912 0.5469 0.11179 0.0
C396 C 0.91684 0.55071 0.08166 0.0
C397 C 0.88831 0.59358 0.07828 0.0
C398 C 0.91358 0.58049 0.06952 0.0
C399 C 0.82792 0.66451 0.16635 0.0
C400 C 0.8417 0.5945 0.10939 0.0
C401 C 0.96809 0.71472 0.04056 0.0
C402 C 0.99096 0.72144 0.06154 0.0
C403 C 0.87726 0.74195 0.13571 0.0
C404 C 0.78666 0.80493 0.14102 0.0
C405 C 0.80428 0.84602 0.13549 0.0
C406 C 0.79048 0.86971 0.14676 0.0
C407 C 0.75962 0.85172 0.16402 0.0
C408 C 0.75558 0.78782 0.158 0.0
C409 C 0.74238 0.81119 0.16953 0.0
C410 C 0.81577 0.71628 0.07875 0.0
C411 C 0.80137 0.78032 0.12943 0.0
H412 H 0.85182 0.53378 0.12808 0.0
H413 H 0.93607 0.54051 0.07409 0.0
H414 H 0.88559 0.61565 0.06799 0.0
H415 H 0.93035 0.59317 0.05303 0.0
H416 H 0.82803 0.85924 0.12217 0.0
H417 H 0.74875 0.8691 0.17335 0.0
H418 H 0.74151 0.7564 0.16237 0.0
H419 H 0.71856 0.79781 0.18275 0.0
Tb420 Tb 0.95113 0.24566 0.37414 0.0
C421 C 0.82314 0.13534 0.44667 0.0
C422 C 0.78212 0.06973 0.42925 0.0
C423 C 0.7896 0.07727 0.47296 0.0
C424 C 0.80832 0.11118 0.42655 0.0
C425 C 0.81335 0.11884 0.47016 0.0
C426 C 0.77364 0.05277 0.45253 0.0
C427 C 0.84496 0.1859 0.48624 0.0
N428 N 0.8435 0.17541 0.44316 0.0
C429 C 0.85256 0.20078 0.46257 0.0
C430 C 0.82569 0.14473 0.49008 0.0
Tb431 Tb 0.85419 0.19711 0.40361 0.0
N432 N 0.81706 0.12872 0.40438 0.0
C433 C 0.79882 0.10643 0.38418 0.0
C434 C 0.76388 0.04689 0.4086 0.0
C435 C 0.77163 0.06556 0.38605 0.0
H436 H 0.8671 0.23268 0.45984 0.0
H437 H 0.75613 0.0487 0.37009 0.0
H438 H 0.75401 0.02093 0.45493 0.0
H439 H 0.85352 0.2062 0.50148 0.0
H440 H 0.8042 0.12001 0.36652 0.0
H441 H 1.0148 0.40029 0.40184 0.0
H442 H 0.74289 1.01514 0.40996 0.0
H443 H 0.96431 0.20972 0.32233 0.0
H444 H 0.98721 0.32836 0.4081 0.0
H445 H 0.98298 0.23232 0.28036 0.0
H446 H 0.78194 0.06397 0.49085 0.0
H447 H 1.02526 0.42768 0.3603 0.0
H448 H 1.02442 0.41581 0.31539 0.0
H449 H 0.81901 0.13323 0.50841 0.0
H450 H 1.01602 0.36975 0.28203 0.0
N451 N 0.97968 0.3139 0.37043 0.0
C452 C 0.99126 0.33943 0.38982 0.0
C453 C 1.01258 0.39583 0.36293 0.0
C454 C 1.00371 0.37008 0.34317 0.0
C455 C 1.00701 0.38051 0.38638 0.0
C456 C 0.98746 0.3289 0.34764 0.0
H457 H 1.00242 0.30145 0.26914 0.0
N458 N 0.97 0.26469 0.33472 0.0
C459 C 0.98246 0.25246 0.29382 0.0
C460 C 0.98264 0.30329 0.32902 0.0
C461 C 0.9716 0.2397 0.31772 0.0
C462 C 0.99319 0.29148 0.28748 0.0
C463 C 0.99402 0.31771 0.30523 0.0
O464 O 0.98555 0.21717 0.37198 0.0
O465 O 0.90274 0.19105 0.38967 0.0
O466 O 0.90136 0.20108 0.42916 0.0
O467 O 0.95513 0.25745 0.41298 0.0
O468 O 0.93108 0.18559 0.35997 0.0
O469 O 1.00882 0.27371 0.38963 0.0
O470 O 0.81589 0.2171 0.41692 0.0
O471 O 0.90045 0.25108 0.38669 0.0
O472 O 0.90959 0.23847 0.34555 0.0
O473 O 0.84878 0.19024 0.36297 0.0
O474 O 0.87447 0.25703 0.41744 0.0
O475 O 0.7998 0.18006 0.38533 0.0
C476 C 0.90327 0.16564 0.37539 0.0
C477 C 0.05507 0.25933 0.3703 0.0
C478 C 0.11526 0.25416 0.36446 0.0
C479 C 0.07841 0.24169 0.37621 0.0
C480 C 0.12765 0.28365 0.34634 0.0
C481 C 0.06847 0.28893 0.35236 0.0
C482 C 0.10443 0.30078 0.34038 0.0
C483 C 0.93854 0.23205 0.43099 0.0
C484 C 1.01645 0.24611 0.38249 0.0
C485 C 1.00767 0.35817 0.30027 0.0
C486 C 1.01243 0.38436 0.31925 0.0
C487 C 0.89965 0.27673 0.40067 0.0
C488 C 0.74639 0.17186 0.41061 0.0
C489 C 0.71286 0.17088 0.39929 0.0
C490 C 0.67365 0.14555 0.40835 0.0
C491 C 0.6688 0.12159 0.42865 0.0
C492 C 0.74008 0.14841 0.4313 0.0
C493 C 0.70171 0.12323 0.44005 0.0
C494 C 0.87128 0.21108 0.34403 0.0
C495 C 0.78782 0.19692 0.40107 0.0
H496 H 0.06831 0.21901 0.39018 0.0
H497 H 0.15548 0.29351 0.33672 0.0
H498 H 0.05119 0.30292 0.34761 0.0
H499 H 0.11444 0.3235 0.32646 0.0
H500 H 0.71718 0.18942 0.38359 0.0
H501 H 0.63939 0.10228 0.43621 0.0
H502 H 0.76483 0.14981 0.441 0.0
H503 H 0.69751 0.1052 0.45598 0.0
Tb504 Tb 0.10538 0.32273 0.63844 0.0
C505 C 0.23198 0.34526 0.564 0.0
C506 C 0.27703 0.32474 0.57999 0.0
C507 C 0.26624 0.32302 0.53656 0.0
C508 C 0.2486 0.33693 0.58363 0.0
C509 C 0.24105 0.33903 0.54018 0.0
C510 C 0.28475 0.31651 0.55644 0.0
C511 C 0.2065 0.37228 0.52535 0.0
N512 N 0.21081 0.36395 0.56826 0.0
C513 C 0.19992 0.37944 0.54928 0.0
C514 C 0.22675 0.35153 0.52076 0.0
Tb515 Tb 0.2014 0.37424 0.60824 0.0
N516 N 0.24051 0.34529 0.60612 0.0
C517 C 0.26099 0.34313 0.62574 0.0
C518 C 0.29892 0.32399 0.59989 0.0
C519 C 0.29068 0.33297 0.62289 0.0
H520 H 0.18461 0.39593 0.55256 0.0
H521 H 0.3077 0.33279 0.63841 0.0
H522 H 0.306 0.30641 0.55337 0.0
H523 H 0.19645 0.38328 0.51047 0.0
H524 H 0.2557 0.35059 0.64366 0.0
H525 H 0.03819 0.41163 0.61353 0.0
H526 H 0.32302 0.31763 0.59758 0.0
H527 H 0.09414 0.27251 0.68934 0.0
H528 H 0.06655 0.3682 0.60601 0.0
H529 H 0.07509 0.27413 0.7316 0.0
H530 H 0.2734 0.31779 0.51842 0.0
H531 H 0.02866 0.42765 0.65554 0.0
H532 H 0.03014 0.41516 0.70023 0.0
H533 H 0.23278 0.34697 0.5022 0.0
H534 H 0.0396 0.37682 0.73266 0.0
N535 N 0.07548 0.36101 0.64339 0.0
C536 C 0.06285 0.3748 0.62447 0.0
C537 C 0.04156 0.40879 0.65235 0.0
C538 C 0.05117 0.3917 0.67164 0.0
C539 C 0.04666 0.39959 0.62863 0.0
C540 C 0.068 0.36749 0.66643 0.0
H541 H 0.05422 0.32226 0.74412 0.0
N542 N 0.08688 0.32131 0.67811 0.0
C543 C 0.0751 0.29509 0.7186 0.0
C544 C 0.07358 0.34648 0.68453 0.0
C545 C 0.08612 0.29446 0.69455 0.0
C546 C 0.06358 0.32251 0.72568 0.0
C547 C 0.0622 0.34837 0.70852 0.0
O548 O 0.07176 0.25984 0.64084 0.0
O549 O 0.15464 0.31911 0.62218 0.0
O550 O 0.15438 0.32971 0.58316 0.0
O551 O 0.09983 0.3304 0.59973 0.0
O552 O 0.12752 0.28334 0.65127 0.0
O553 O 0.04809 0.29228 0.62254 0.0
O554 O 0.23863 0.43258 0.59476 0.0
O555 O 0.15449 0.38 0.62593 0.0
O556 O 0.14694 0.35741 0.66691 0.0
O557 O 0.20792 0.37206 0.6488 0.0
O558 O 0.17882 0.41219 0.59505 0.0
O559 O 0.25495 0.41298 0.62683 0.0
C560 C 0.15547 0.29314 0.63564 0.0
C561 C 1.00213 0.23205 0.6421 0.0
C562 C 0.94162 0.16697 0.64744 0.0
C563 C 0.97872 0.19121 0.63598 0.0
C564 C 0.929 0.184 0.6655 0.0
C565 C 0.98857 0.24827 0.65997 0.0
C566 C 0.95235 0.22426 0.67169 0.0
C567 C 0.11695 0.32274 0.58147 0.0
C568 C 0.04081 0.25735 0.63004 0.0
C569 C 0.04794 0.37446 0.71424 0.0
C570 C 0.04257 0.39627 0.69579 0.0
C571 C 0.15386 0.40587 0.61212 0.0
C572 C 0.30818 0.45797 0.60159 0.0
C573 C 0.34137 0.48976 0.61361 0.0
C574 C 0.38081 0.50372 0.60503 0.0
C575 C 0.3863 0.48543 0.5845 0.0
C576 C 0.31504 0.44163 0.58067 0.0
C577 C 0.35369 0.45489 0.57239 0.0
C578 C 0.1855 0.36934 0.66806 0.0
C579 C 0.26661 0.44132 0.61082 0.0
H580 H 0.98891 0.17863 0.62202 0.0
H581 H 0.90091 0.16607 0.67487 0.0
H582 H 1.00589 0.2795 0.66483 0.0
H583 H 0.94218 0.23697 0.68555 0.0
H584 H 0.33661 0.50332 0.62951 0.0
H585 H 0.41597 0.49564 0.57734 0.0
H586 H 0.29051 0.4188 0.57049 0.0
H587 H 0.35837 0.44168 0.55631 0.0
Tb588 Tb 0.20444 0.84296 0.90472 0.0
C589 C 0.32339 0.97558 0.83685 0.0
C590 C 0.38722 0.9974 0.85584 0.0
C591 C 0.38307 1.00015 0.81204 0.0
C592 C 0.34542 0.98084 0.85733 0.0
C593 C 0.3419 0.98615 0.81396 0.0
C594 C 0.40577 1.00583 0.83302 0.0
C595 C 0.27869 0.97265 0.79712 0.0
N596 N 0.28402 0.96262 0.83964 0.0
C597 C 0.26191 0.96286 0.82032 0.0
C598 C 0.31876 0.98373 0.7939 0.0
Tb599 Tb 0.25724 0.94228 0.87767 0.0
N600 N 0.32616 0.97254 0.87887 0.0
C601 C 0.34801 0.98371 0.89986 0.0
C602 C 0.40919 1.00648 0.87732 0.0
C603 C 0.38953 1.00016 0.89943 0.0
H604 H 0.23097 0.95449 0.82264 0.0
H605 H 0.40631 1.00795 0.9162 0.0
H606 H 0.43774 1.01796 0.83146 0.0
H607 H 0.26076 0.97167 0.78179 0.0
H608 H 0.33398 0.97941 0.91719 0.0
H609 H 0.05687 0.74834 0.86892 0.0
H610 H 0.44137 0.01972 0.877 0.0
H611 H 0.23784 0.85292 0.96133 0.0
H612 H 0.12841 0.79579 0.86644 0.0
H613 H 0.20979 0.83764 1.0026 0.0
H614 H 0.39781 1.00795 0.79457 0.0
H615 H 1.02189 0.73372 0.90837 0.0
H616 H 1.02617 0.74263 0.95353 0.0
H617 H 0.33193 0.99156 0.77607 0.0
H618 H 0.06799 0.7683 0.99009 0.0
N619 N 0.13597 0.80668 0.90454 0.0
C620 C 0.11426 0.78977 0.88395 0.0
C621 C 0.05377 0.75436 0.90751 0.0
C622 C 0.07598 0.77134 0.92856 0.0
C623 C 0.07324 0.76295 0.8852 0.0
C624 C 0.11762 0.79714 0.92648 0.0
H625 H 0.13661 0.80364 0.00859 0.0
N626 N 0.18128 0.8308 0.94398 0.0
C627 C 0.1901 0.83007 0.98712 0.0
C628 C 0.14107 0.81072 0.94695 0.0
C629 C 0.20587 0.83864 0.96366 0.0
C630 C 0.14881 0.81109 0.99043 0.0
C631 C 0.12367 0.8 0.97019 0.0
O632 O 0.22433 0.80408 0.91708 0.0
O633 O 0.2598 0.88988 0.88923 0.0
O634 O 0.25069 0.90049 0.84902 0.0
O635 O 0.1986 0.83996 0.86421 0.0
O636 O 0.26376 0.86151 0.91935 0.0
O637 O 0.18662 0.78879 0.8859 0.0
O638 O 0.23894 0.98368 0.86769 0.0
O639 O 0.2012 0.89316 0.89067 0.0
O640 O 0.20623 0.88822 0.93084 0.0
O641 O 0.2646 0.94294 0.91708 0.0
O642 O 0.19828 0.92567 0.86259 0.0
O643 O 0.27142 0.99097 0.90061 0.0
C644 C 0.28449 0.88789 0.90336 0.0
C645 C 0.17884 0.7348 0.9105 0.0
C646 C 0.15387 0.66224 0.90851 0.0
C647 C 0.17885 0.70154 0.89944 0.0
C648 C 0.12936 0.65709 0.92859 0.0
C649 C 0.15475 0.72814 0.93093 0.0
C650 C 0.13 0.68973 0.93971 0.0
C651 C 0.22171 0.86299 0.84616 0.0
C652 C 0.20376 0.77637 0.90113 0.0
C653 C 0.08196 0.77664 0.9724 0.0
C654 C 0.05817 0.76197 0.9516 0.0
C655 C 0.17691 0.89648 0.87685 0.0
C656 C 0.27691 0.04968 0.88348 0.0
C657 C 0.25574 0.07069 0.88197 0.0
C658 C 0.2762 0.11304 0.88168 0.0
C659 C 0.31835 0.13345 0.88313 0.0
C660 C 0.31877 0.07104 0.88396 0.0
C661 C 0.33925 0.11265 0.88387 0.0
C662 C 0.23768 0.9246 0.93423 0.0
C663 C 0.25491 1.00585 0.88672 0.0
H664 H 0.19787 0.70613 0.88393 0.0
H665 H 0.11034 0.62766 0.9362 0.0
H666 H 0.15535 0.75268 0.94041 0.0
H667 H 0.11151 0.68529 0.95546 0.0
H668 H 0.22342 0.05384 0.88114 0.0
H669 H 0.33557 0.16572 0.88405 0.0
H670 H 0.33563 0.05558 0.88504 0.0
H671 H 0.37157 0.12896 0.88481 0.0
Tb672 Tb 0.72235 0.79013 0.63573 0.0
C673 C 0.70051 0.90048 0.56546 0.0
C674 C 0.72105 0.96422 0.5843 0.0
C675 C 0.72277 0.95976 0.54048 0.0
C676 C 0.70868 0.92325 0.58611 0.0
C677 C 0.70657 0.91825 0.54235 0.0
C678 C 0.72943 0.98265 0.56146 0.0
C679 C 0.67201 0.85214 0.52493 0.0
N680 N 0.68168 0.86026 0.56809 0.0
C681 C 0.66516 0.83599 0.54826 0.0
C682 C 0.69341 0.89351 0.52191 0.0
Tb683 Tb 0.67093 0.83611 0.60708 0.0
N684 N 0.7001 0.9044 0.60787 0.0
C685 C 0.70234 0.92503 0.62856 0.0
C686 C 0.72186 0.98475 0.60529 0.0
C687 C 0.71281 0.96518 0.62755 0.0
H688 H 0.64772 0.80398 0.5504 0.0
H689 H 0.71317 0.98079 0.64392 0.0
H690 H 0.73966 1.01427 0.55979 0.0
H691 H 0.66017 0.83267 0.50932 0.0
H692 H 0.69482 0.91056 0.64598 0.0
H693 H 0.63921 0.63854 0.60121 0.0
H694 H 0.72828 1.01539 0.60441 0.0
H695 H 0.76513 0.82113 0.68946 0.0
H696 H 0.68243 0.71122 0.59815 0.0
H697 H 0.75681 0.79418 0.73086 0.0
H698 H 0.72795 0.97403 0.52292 0.0
H699 H 0.61795 0.60641 0.64138 0.0
H700 H 0.62353 0.61332 0.68682 0.0
H701 H 0.69772 0.906 0.50386 0.0
H702 H 0.65607 0.65597 0.72243 0.0
N703 N 0.6847 0.72137 0.63632 0.0
C704 C 0.67364 0.69809 0.6159 0.0
C705 C 0.63679 0.63856 0.64018 0.0
C706 C 0.65079 0.66211 0.66106 0.0
C707 C 0.64894 0.65658 0.6175 0.0
C708 C 0.67525 0.70381 0.65842 0.0
H709 H 0.707 0.72342 0.73885 0.0
N710 N 0.71874 0.76686 0.67441 0.0
C711 C 0.73837 0.77518 0.71627 0.0
C712 C 0.69316 0.72749 0.67828 0.0
C713 C 0.74285 0.79039 0.69277 0.0
C714 C 0.71014 0.73525 0.72075 0.0
C715 C 0.68763 0.71061 0.70155 0.0
O716 O 0.78458 0.81925 0.64177 0.0
O717 O 0.72629 0.8441 0.6209 0.0
O718 O 0.71483 0.83541 0.58084 0.0
O719 O 0.71971 0.78212 0.59639 0.0
O720 O 0.75988 0.85032 0.65087 0.0
O721 O 0.75595 0.767 0.61944 0.0
O722 O 0.6124 0.81427 0.59364 0.0
O723 O 0.66547 0.78241 0.62304 0.0
O724 O 0.68576 0.79382 0.6643 0.0
O725 O 0.67146 0.84129 0.64781 0.0
O726 O 0.63448 0.7765 0.59197 0.0
O727 O 0.63164 0.85019 0.62571 0.0
C728 C 0.75116 0.86972 0.63549 0.0
C729 C 0.81396 0.77876 0.64089 0.0
C730 C 0.87859 0.78223 0.64638 0.0
C731 C 0.85499 0.7962 0.63524 0.0
C732 C 0.86061 0.75136 0.66362 0.0
C733 C 0.79683 0.74768 0.65785 0.0
C734 C 0.82014 0.73429 0.66925 0.0
C735 C 0.72518 0.80733 0.57875 0.0
C736 C 0.78944 0.79353 0.62932 0.0
C737 C 0.66122 0.66948 0.70463 0.0
C738 C 0.64271 0.64523 0.68437 0.0
C739 C 0.64056 0.75674 0.60842 0.0
C740 C 0.58688 0.85839 0.60016 0.0
C741 C 0.55598 0.861 0.61245 0.0
C742 C 0.54212 0.88642 0.6036 0.0
C743 C 0.55966 0.90898 0.58258 0.0
C744 C 0.60234 0.8803 0.57873 0.0
C745 C 0.58927 0.9057 0.57022 0.0
C746 C 0.6737 0.82024 0.6664 0.0
C747 C 0.60346 0.83349 0.60958 0.0
H748 H 0.86821 0.81994 0.62192 0.0
H749 H 0.87795 0.74035 0.67283 0.0
H750 H 0.76545 0.73371 0.66228 0.0
H751 H 0.80674 0.71046 0.68245 0.0
H752 H 0.54298 0.84362 0.62872 0.0
H753 H 0.54946 0.92832 0.57521 0.0
H754 H 0.62429 0.87757 0.56827 0.0
H755 H 0.60184 0.92257 0.55375 0.0
Tb756 Tb 0.20339 0.37298 0.90556 0.0
C757 C 0.06888 0.35711 0.83956 0.0
C758 C 0.0442 0.39523 0.86065 0.0
C759 C 0.04045 0.3907 0.81673 0.0
C760 C 0.0626 0.37158 0.86086 0.0
C761 C 0.05692 0.3655 0.81727 0.0
C762 C 0.03416 0.40563 0.83843 0.0
C763 C 0.07525 0.32078 0.79804 0.0
N764 N 0.08484 0.33293 0.84088 0.0
C765 C 0.08677 0.31347 0.82062 0.0
C766 C 0.06078 0.34738 0.79632 0.0
Tb767 Tb 0.10488 0.32429 0.87838 0.0
N768 N 0.07241 0.36046 0.88187 0.0
C769 C 0.0616 0.36968 0.90354 0.0
C770 C 0.03529 0.4066 0.88277 0.0
C771 C 0.04352 0.39328 0.9043 0.0
H772 H 0.09828 0.29318 0.8217 0.0
H773 H 0.03607 0.40127 0.92154 0.0
H774 H 1.02048 0.42419 0.83787 0.0
H775 H 0.0778 0.30607 0.78201 0.0
H776 H 0.06771 0.36013 0.92053 0.0
H777 H 0.29661 0.32242 0.86438 0.0
H778 H 1.02102 0.42461 0.88342 0.0
H779 H 0.19752 0.39519 0.96303 0.0
H780 H 0.24866 0.34611 0.86464 0.0
H781 H 0.21617 0.38213 1.00328 0.0
H782 H 0.03153 0.39794 0.79973 0.0
H783 H 0.31516 0.30247 0.90268 0.0
H784 H 0.30998 0.29727 0.94798 0.0
H785 H 0.05193 0.35326 0.77891 0.0
H786 H 0.28661 0.31214 0.98597 0.0
N787 N 0.24081 0.34208 0.903 0.0
C788 C 0.25635 0.338 0.88161 0.0
C789 C 0.29415 0.31329 0.90296 0.0
C790 C 0.27872 0.31797 0.92482 0.0
C791 C 0.28349 0.32413 0.88133 0.0
C792 C 0.2523 0.3332 0.92424 0.0
H793 H 0.25166 0.34395 1.0068 0.0
N794 N 0.21862 0.36138 0.94392 0.0
C795 C 0.22273 0.37041 0.98719 0.0
C796 C 0.23977 0.34212 0.94549 0.0
C797 C 0.21207 0.37761 0.96433 0.0
C798 C 0.24259 0.3487 0.98911 0.0
C799 C 0.25253 0.33539 0.96807 0.0
O800 O 0.24119 0.43148 0.91871 0.0
O801 O 0.15483 0.37966 0.89157 0.0
O802 O 0.14487 0.36634 0.85152 0.0
O803 O 0.20577 0.37394 0.86469 0.0
O804 O 0.18236 0.41059 0.92209 0.0
O805 O 0.25703 0.41104 0.88682 0.0
O806 O 0.07117 0.26364 0.86835 0.0
O807 O 0.1546 0.31811 0.89164 0.0
O808 O 0.16001 0.32914 0.93216 0.0
O809 O 0.10079 0.32376 0.91788 0.0
O810 O 0.12699 0.28822 0.86066 0.0
O811 O 0.04949 0.28767 0.89557 0.0
C812 C 0.15525 0.40467 0.90654 0.0
C813 C 0.3106 0.45607 0.91205 0.0
C814 C 0.38335 0.50126 0.9088 0.0
C815 C 0.34405 0.48727 0.89991 0.0
C816 C 0.38844 0.48355 0.92972 0.0
C817 C 0.31713 0.44044 0.93338 0.0
C818 C 0.35562 0.45363 0.94193 0.0
C819 C 0.18245 0.37616 0.84751 0.0
C820 C 0.26906 0.43966 0.90271 0.0
C821 C 0.27671 0.3178 0.96881 0.0
C822 C 0.29011 0.30944 0.9472 0.0
C823 C 0.15459 0.29424 0.8759 0.0
C824 C 1.00147 0.23259 0.87253 0.0
C825 C 0.9778 0.19137 0.8777 0.0
C826 C 0.93943 0.16847 0.86729 0.0
C827 C 0.92585 0.18752 0.85125 0.0
C828 C 0.98678 0.25071 0.85683 0.0
C829 C 0.94928 0.2282 0.84617 0.0
C830 C 0.1217 0.31875 0.93497 0.0
C831 C 0.04188 0.25611 0.88294 0.0
H832 H 0.33958 0.50044 0.88375 0.0
H833 H 0.41797 0.49385 0.93716 0.0
H834 H 0.29253 0.41836 0.94377 0.0
H835 H 0.35998 0.44096 0.95834 0.0
H836 H 0.98898 0.17741 0.89003 0.0
H837 H 0.897 0.17085 0.84248 0.0
H838 H 1.00435 0.28219 0.8527 0.0
H839 H 0.93829 0.24235 0.83389 0.0
Tb840 Tb 0.25625 0.94074 0.63447 0.0
C841 C 0.14337 0.80442 0.56717 0.0
C842 C 0.08073 0.76169 0.58724 0.0
C843 C 0.08307 0.76533 0.54331 0.0
C844 C 0.12162 0.79079 0.58824 0.0
C845 C 0.12455 0.7913 0.54441 0.0
C846 C 0.06126 0.75002 0.56473 0.0
C847 C 0.18982 0.82341 0.52587 0.0
N848 N 0.18368 0.82652 0.56911 0.0
C849 C 0.20708 0.83406 0.5489 0.0
C850 C 0.1483 0.80238 0.52357 0.0
Tb851 Tb 0.20954 0.84212 0.60772 0.0
N852 N 0.14144 0.80264 0.60966 0.0
C853 C 0.12191 0.78561 0.63083 0.0
C854 C 0.06132 0.74322 0.60875 0.0
C855 C 0.08186 0.75555 0.63067 0.0
H856 H 0.23922 0.84947 0.55047 0.0
H857 H 0.06705 0.74143 0.64745 0.0
H858 H 0.02968 0.72821 0.56367 0.0
H859 H 0.20856 0.8308 0.50995 0.0
H860 H 0.13725 0.79401 0.64797 0.0
H861 H 0.40512 1.01112 0.59577 0.0
H862 H 0.03075 0.71875 0.60856 0.0
H863 H 0.22675 0.94675 0.69001 0.0
H864 H 0.33212 0.97867 0.59463 0.0
H865 H 0.25715 0.96995 0.73028 0.0
H866 H 0.068 0.75511 0.52602 0.0
H867 H 0.44064 0.02704 0.63504 0.0
H868 H 0.4373 0.02943 0.6805 0.0
H869 H 0.13497 0.79314 0.50576 0.0
H870 H 0.39696 0.01906 0.71721 0.0
N871 N 0.32504 0.97418 0.63311 0.0
C872 C 0.34664 0.98518 0.61204 0.0
C873 C 0.40832 1.01249 0.63472 0.0
C874 C 0.38636 1.00384 0.65619 0.0
C875 C 0.38838 1.00371 0.61253 0.0
C876 C 0.34432 0.98464 0.65471 0.0
H877 H 0.33 0.99867 0.7356 0.0
N878 N 0.28174 0.96148 0.67265 0.0
C879 C 0.27563 0.97217 0.71496 0.0
C880 C 0.32187 0.97846 0.67525 0.0
C881 C 0.25855 0.95916 0.69204 0.0
C882 C 0.31671 0.98817 0.71797 0.0
C883 C 0.34045 0.99169 0.69798 0.0
O884 O 0.22852 0.97435 0.64284 0.0
O885 O 0.20157 0.88979 0.621 0.0
O886 O 0.20802 0.8849 0.58105 0.0
O887 O 0.26168 0.94444 0.59501 0.0
O888 O 0.19689 0.91765 0.65109 0.0
O889 O 0.27522 0.99522 0.61624 0.0
O890 O 0.23072 0.80469 0.59467 0.0
O891 O 0.26381 0.89174 0.62182 0.0
O892 O 0.2593 0.90206 0.66172 0.0
O893 O 0.20709 0.8404 0.64865 0.0
O894 O 0.26848 0.86455 0.59151 0.0
O895 O 0.19717 0.79046 0.62765 0.0
C896 C 0.17671 0.88912 0.6361 0.0
C897 C 0.26811 0.0439 0.63823 0.0
C898 C 0.26655 0.10619 0.64252 0.0
C899 C 0.25042 0.06731 0.63288 0.0
C900 C 0.29996 0.12069 0.658 0.0
C901 C 0.30166 0.05935 0.6534 0.0
C902 C 0.31731 0.09744 0.66333 0.0
C903 C 0.2358 0.92318 0.57798 0.0
C904 C 0.25103 1.00328 0.62821 0.0
C905 C 0.38213 1.00914 0.69984 0.0
C906 C 0.40507 1.01504 0.67895 0.0
C907 C 0.28893 0.89197 0.60705 0.0
C908 C 0.18757 0.7357 0.60342 0.0
C909 C 0.18629 0.70351 0.6165 0.0
C910 C 0.16041 0.66349 0.60906 0.0
C911 C 0.136 0.65636 0.58864 0.0
C912 C 0.16387 0.72722 0.58257 0.0
C913 C 0.13797 0.68798 0.57545 0.0
C914 C 0.23206 0.86441 0.66587 0.0
C915 C 0.21287 0.77788 0.61151 0.0
H916 H 0.22472 0.05558 0.62093 0.0
H917 H 0.31269 0.15013 0.66607 0.0
H918 H 0.3158 0.04204 0.65757 0.0
H919 H 0.34307 0.10906 0.67517 0.0
H920 H 0.20509 0.70948 0.63231 0.0
H921 H 0.11622 0.62614 0.58235 0.0
H922 H 0.16557 0.75089 0.57152 0.0
H923 H 0.11968 0.68206 0.55942 0.0
Tb924 Tb 0.66902 0.83673 0.90461 0.0
C925 C 0.69265 0.72054 0.84024 0.0
C926 C 0.6552 0.65762 0.8612 0.0
C927 C 0.66189 0.65838 0.81741 0.0
C928 C 0.67773 0.69976 0.86144 0.0
C929 C 0.68576 0.70021 0.81799 0.0
C930 C 0.64652 0.63709 0.83901 0.0
C931 C 0.72834 0.76384 0.79882 0.0
N932 N 0.71526 0.76083 0.84159 0.0
C933 C 0.73407 0.78265 0.82133 0.0
C934 C 0.70375 0.72244 0.79712 0.0
Tb935 Tb 0.72134 0.78957 0.87892 0.0
N936 N 0.68709 0.72083 0.88242 0.0
C937 C 0.67751 0.70087 0.90411 0.0
C938 C 0.64309 0.63739 0.88328 0.0
C939 C 0.6549 0.65911 0.90483 0.0
H940 H 0.75262 0.81474 0.82238 0.0
H941 H 0.64648 0.64374 0.92207 0.0
H942 H 0.62888 0.60477 0.83843 0.0
H943 H 0.74264 0.78128 0.78278 0.0
H944 H 0.68589 0.7165 0.92115 0.0
H945 H 0.71094 0.97866 0.86411 0.0
H946 H 0.62566 0.60506 0.8839 0.0
H947 H 0.64723 0.80749 0.96201 0.0
H948 H 0.69406 0.90864 0.86397 0.0
H949 H 0.65862 0.83859 1.00238 0.0
H950 H 0.65585 0.64219 0.80045 0.0
H951 H 0.72328 1.01513 0.90287 0.0
H952 H 0.733 1.01665 0.94786 0.0
H953 H 0.69928 0.7078 0.77975 0.0
H954 H 0.72163 0.97882 0.9857 0.0
N955 N 0.69749 0.90475 0.90237 0.0
C956 C 0.70045 0.92411 0.88106 0.0
C957 C 0.71743 0.98464 0.90286 0.0
C958 C 0.71627 0.96549 0.92452 0.0
C959 C 0.71 0.96402 0.88101 0.0
C960 C 0.70489 0.92469 0.92373 0.0
H961 H 0.69351 0.91219 1.00625 0.0
N962 N 0.67929 0.86289 0.94315 0.0
C963 C 0.66982 0.85716 0.98639 0.0
C964 C 0.69685 0.90318 0.94491 0.0
C965 C 0.66357 0.83964 0.96345 0.0
C966 C 0.68971 0.89869 0.98851 0.0
C967 C 0.70216 0.9222 0.96757 0.0
O968 O 0.60996 0.81384 0.91724 0.0
O969 O 0.66454 0.78222 0.89073 0.0
O970 O 0.67942 0.78623 0.85145 0.0
O971 O 0.66952 0.83848 0.86375 0.0
O972 O 0.63267 0.77789 0.921 0.0
O973 O 0.6299 0.85048 0.88551 0.0
O974 O 0.78037 0.8089 0.86699 0.0
O975 O 0.72449 0.84447 0.89105 0.0
O976 O 0.71375 0.83982 0.9314 0.0
O977 O 0.7191 0.7854 0.91849 0.0
O978 O 0.75839 0.84869 0.86194 0.0
O979 O 0.75975 0.78101 0.90173 0.0
C980 C 0.63973 0.75733 0.90559 0.0
C981 C 0.5836 0.85709 0.91058 0.0
C982 C 0.53775 0.88367 0.90681 0.0
C983 C 0.55279 0.85929 0.89793 0.0
C984 C 0.55399 0.90567 0.9282 0.0
C985 C 0.59774 0.87831 0.93239 0.0
C986 C 0.58351 0.90277 0.94092 0.0
C987 C 0.66885 0.81327 0.84683 0.0
C988 C 0.60119 0.83306 0.90124 0.0
C989 C 0.71712 0.96361 0.96849 0.0
C990 C 0.72358 0.98513 0.94696 0.0
C991 C 0.7493 0.86917 0.87619 0.0
C992 C 0.81077 0.77359 0.8834 0.0
C993 C 0.85287 0.79436 0.88185 0.0
C994 C 0.87435 0.77352 0.88189 0.0
C995 C 0.85233 0.73143 0.88369 0.0
C996 C 0.7899 0.73173 0.88423 0.0
C997 C 0.81065 0.71089 0.88445 0.0
C998 C 0.72363 0.8118 0.93517 0.0
C999 C 0.7893 0.79595 0.88641 0.0
H1000 H 0.54074 0.84233 0.88138 0.0
H1001 H 0.54285 0.92426 0.93557 0.0
H1002 H 0.61946 0.87571 0.94315 0.0
H1003 H 0.59506 0.91914 0.95769 0.0
H1004 H 0.86859 0.82666 0.88073 0.0
H1005 H 0.86712 0.71399 0.88487 0.0
H1006 H 0.75761 0.71517 0.88538 0.0
H1007 H 0.79436 0.6786 0.88566 0.0
C1008 C 0.18127 0.268 0.13161 0.0
C1009 C 0.14104 0.24186 0.13711 0.0
C1010 C 0.20841 0.25423 0.12877 0.0
C1011 C 0.19531 0.21295 0.13094 0.0
C1012 C 0.15408 0.18597 0.13514 0.0
C1013 C 0.12743 0.2007 0.1382 0.0
C1014 C 0.25127 0.28429 0.12369 0.0
C1015 C 0.13841 0.14168 0.13745 0.0
C1016 C 0.26311 0.17126 0.11158 0.0
C1017 C 0.27897 0.16866 0.13392 0.0
C1018 C 0.23656 0.18642 0.1101 0.0
C1019 C 0.22513 0.19865 0.13151 0.0
C1020 C 0.24186 0.19665 0.15397 0.0
C1021 C 0.26808 0.18136 0.15489 0.0
C1022 C 0.22009 0.1885 0.08573 0.0
C1023 C 0.23156 0.21012 0.17721 0.0
H1024 H 0.19182 0.2997 0.12996 0.0
H1025 H 0.09632 0.18018 0.1424 0.0
H1026 H 0.27105 0.27975 0.13619 0.0
H1027 H 0.25786 0.27984 0.10481 0.0
H1028 H 0.25775 0.3156 0.12559 0.0
H1029 H 0.10526 0.12429 0.13831 0.0
H1030 H 0.14854 0.1308 0.12189 0.0
H1031 H 0.15058 0.13576 0.15416 0.0
H1032 H 0.27059 0.16043 0.0954 0.0
H1033 H 0.27983 0.17883 0.17224 0.0
H1034 H 0.22803 0.21974 0.08178 0.0
H1035 H 0.18698 0.17024 0.08593 0.0
H1036 H 0.23173 0.17775 0.07085 0.0
H1037 H 0.23887 0.24169 0.17552 0.0
H1038 H 0.24788 0.20764 0.19308 0.0
H1039 H 0.19899 0.19183 0.18072 0.0
C1040 C 0.11959 0.86434 0.37613 0.0
C1041 C 0.1339 0.90516 0.37255 0.0
C1042 C 0.07869 0.83706 0.37891 0.0
C1043 C 0.05064 0.8505 0.37881 0.0
C1044 C 0.0651 0.89217 0.37656 0.0
C1045 C 0.10649 0.91899 0.37341 0.0
C1046 C 0.06578 0.79371 0.38179 0.0
C1047 C 0.03667 0.90823 0.37661 0.0
C1048 C 0.94448 0.77885 0.35638 0.0
C1049 C 0.92257 0.76532 0.37795 0.0
C1050 C 0.98593 0.80589 0.35653 0.0
C1051 C 1.00634 0.8208 0.37883 0.0
C1052 C 0.98434 0.80694 0.40077 0.0
C1053 C 0.94272 0.77957 0.40007 0.0
C1054 C 1.00793 0.81864 0.33268 0.0
C1055 C 1.0046 0.82139 0.42499 0.0
H1056 H 0.14057 0.85344 0.37631 0.0
H1057 H 0.11717 0.95053 0.37072 0.0
H1058 H 0.0562 0.78529 0.40081 0.0
H1059 H 0.04043 0.77529 0.36953 0.0
H1060 H 0.09021 0.78723 0.37794 0.0
H1061 H 0.05262 0.94142 0.37693 0.0
H1062 H 1.01759 0.89769 0.36017 0.0
H1063 H 1.01657 0.89675 0.39257 0.0
H1064 H 0.92895 0.7683 0.33923 0.0
H1065 H 0.92579 0.77002 0.41679 0.0
H1066 H 0.03223 0.81124 0.3324 0.0
H1067 H 1.02201 0.85149 0.33056 0.0
H1068 H 0.98794 0.80394 0.31694 0.0
H1069 H 1.02693 0.81168 0.42757 0.0
H1070 H 0.98306 0.80968 0.44029 0.0
H1071 H 1.02089 0.85454 0.42562 0.0
C1072 C 0.87243 0.10362 0.11236 0.0
C1073 C 0.8779 0.12382 0.13443 0.0
C1074 C 0.85803 0.06198 0.11176 0.0
C1075 C 0.84976 0.04012 0.13375 0.0
C1076 C 0.85508 0.06061 0.156 0.0
C1077 C 0.86924 0.102 0.15604 0.0
C1078 C 0.85206 0.04149 0.0876 0.0
C1079 C 0.84586 0.03878 0.17989 0.0
C1080 C 0.78007 0.927 0.13711 0.0
C1081 C 0.80666 0.91275 0.14046 0.0
C1082 C 0.79364 0.96784 0.13414 0.0
C1083 C 0.83515 0.99586 0.13391 0.0
C1084 C 0.8624 0.98143 0.13602 0.0
C1085 C 0.84788 0.94008 0.13927 0.0
C1086 C 0.76311 0.98066 0.13125 0.0
C1087 C 0.9069 1.00986 0.13582 0.0
H1088 H 0.88007 0.12049 0.09562 0.0
H1089 H 0.87386 0.11755 0.17316 0.0
H1090 H 0.87035 0.02672 0.08668 0.0
H1091 H 0.82033 1.01785 0.08554 0.0
H1092 H 0.86021 0.06263 0.07219 0.0
H1093 H 0.85152 0.05894 0.19561 0.0
H1094 H 0.81406 1.01474 0.18028 0.0
H1095 H 0.86436 0.02438 0.18199 0.0
H1096 H 0.74818 0.906 0.13725 0.0
H1097 H 0.86874 0.92937 0.14182 0.0
H1098 H 0.76313 0.98857 0.11198 0.0
H1099 H 0.77076 1.00701 0.14275 0.0
H1100 H 0.73246 0.95661 0.13598 0.0
H1101 H 0.91538 0.02974 0.11978 0.0
H1102 H 0.92414 0.99391 0.13557 0.0
H1103 H 0.91558 0.02917 0.15217 0.0
C1104 C 0.26902 0.17604 0.35628 0.0
C1105 C 0.28202 0.16721 0.37791 0.0
C1106 C 0.24167 0.19002 0.35626 0.0
C1107 C 0.22632 0.19518 0.37847 0.0
C1108 C 0.23976 0.18677 0.40049 0.0
C1109 C 0.26699 0.17235 0.39994 0.0
C1110 C 0.2291 0.19925 0.33234 0.0
C1111 C 0.22518 0.19274 0.42461 0.0
C1112 C 0.18289 0.2648 0.37447 0.0
C1113 C 0.14206 0.23813 0.37115 0.0
C1114 C 0.21016 0.25128 0.37777 0.0
C1115 C 0.19666 0.20977 0.37823 0.0
C1116 C 0.15499 0.18248 0.37609 0.0
C1117 C 0.12816 0.19695 0.37262 0.0
C1118 C 0.25348 0.28187 0.38079 0.0
C1119 C 0.13894 0.13799 0.37641 0.0
H1120 H 0.28016 0.17167 0.33918 0.0
H1121 H 0.27608 0.16456 0.41669 0.0
H1122 H 0.19619 0.1809 0.33024 0.0
H1123 H 0.23705 0.2311 0.33191 0.0
H1124 H 0.24349 0.19342 0.31665 0.0
H1125 H 0.23844 0.18496 0.44007 0.0
H1126 H 0.2329 0.22437 0.42657 0.0
H1127 H 0.19215 0.17412 0.42557 0.0
H1128 H 0.19375 0.29667 0.37404 0.0
H1129 H 0.09658 0.17606 0.37007 0.0
H1130 H 0.27236 0.27407 0.36958 0.0
H1131 H 0.26112 0.28216 0.40013 0.0
H1132 H 0.26012 0.31244 0.37579 0.0
H1133 H 0.14962 0.12922 0.36013 0.0
H1134 H 0.10575 0.12073 0.37661 0.0
H1135 H 0.15031 0.12963 0.39253 0.0
C1136 C 0.1036 0.91989 0.14047 0.0
C1137 C 0.13132 0.90658 0.14197 0.0
C1138 C 0.06261 0.89267 0.1364 0.0
C1139 C 0.04909 0.85127 0.13365 0.0
C1140 C 0.07766 0.83847 0.13398 0.0
C1141 C 0.11812 0.86612 0.13797 0.0
C1142 C 0.03352 0.90793 0.13626 0.0
C1143 C 0.06575 0.79548 0.1303 0.0
C1144 C 0.94356 0.77815 0.15561 0.0
C1145 C 0.92152 0.76576 0.13403 0.0
C1146 C 0.98489 0.80528 0.15557 0.0
C1147 C 1.0051 0.82107 0.13336 0.0
C1148 C 0.98308 0.80807 0.11137 0.0
C1149 C 0.94142 0.781 0.11198 0.0
C1150 C 1.00689 0.81744 0.17946 0.0
C1151 C 1.00336 0.82325 0.08725 0.0
H1152 H 0.11367 0.95124 0.14353 0.0
H1153 H 0.13961 0.85586 0.13849 0.0
H1154 H 1.01387 0.89659 0.12009 0.0
H1155 H 1.01405 0.89666 0.1525 0.0
H1156 H 0.04892 0.94111 0.13631 0.0
H1157 H 0.09031 0.78938 0.13454 0.0
H1158 H 0.0397 0.77597 0.14177 0.0
H1159 H 0.05761 0.78815 0.111 0.0
H1160 H 0.92818 0.76691 0.17272 0.0
H1161 H 0.92429 0.77243 0.0953 0.0
H1162 H 1.02095 0.85024 0.18195 0.0
H1163 H 0.0312 0.81005 0.17951 0.0
H1164 H 0.98691 0.80235 0.19513 0.0
H1165 H 1.01645 0.85615 0.08632 0.0
H1166 H 0.98241 0.80932 0.0718 0.0
H1167 H 0.02824 0.81695 0.08526 0.0
C1168 C 0.84038 0.93277 0.39109 0.0
C1169 C 0.80119 0.90837 0.38247 0.0
C1170 C 0.85954 0.97483 0.38975 0.0
C1171 C 0.83844 0.99351 0.38073 0.0
C1172 C 0.79916 0.96887 0.37153 0.0
C1173 C 0.7816 0.92715 0.3722 0.0
C1174 C 0.90273 0.9983 0.39761 0.0
C1175 C 0.77417 0.98517 0.36101 0.0
C1176 C 0.87748 0.10235 0.40019 0.0
C1177 C 0.8855 0.12169 0.37772 0.0
C1178 C 0.86201 0.06063 0.40159 0.0
C1179 C 0.85735 0.03828 0.38012 0.0
C1180 C 0.86986 0.05885 0.35774 0.0
C1181 C 0.88237 0.09976 0.35674 0.0
C1182 C 0.85083 0.04068 0.42607 0.0
C1183 C 0.86978 0.03777 0.33465 0.0
H1184 H 0.85639 0.91927 0.39908 0.0
H1185 H 0.75211 0.90928 0.3644 0.0
H1186 H 0.9173 0.03062 0.39337 0.0
H1187 H 0.90467 0.99454 0.41741 0.0
H1188 H 0.91998 0.98595 0.38865 0.0
H1189 H 0.74918 0.9784 0.3736 0.0
H1190 H 0.79094 1.01761 0.35757 0.0
H1191 H 0.76052 0.96983 0.34363 0.0
H1192 H 0.883 0.11974 0.4166 0.0
H1193 H 0.89053 0.1149 0.33937 0.0
H1194 H 0.87214 0.03071 0.43126 0.0
H1195 H 0.8205 1.01389 0.42544 0.0
H1196 H 0.8517 0.06122 0.44046 0.0
H1197 H 0.87836 1.01478 0.33821 0.0
H1198 H 0.89063 0.05913 0.321 0.0
H1199 H 0.83937 0.02266 0.32666 0.0
C1200 C 0.27612 0.17277 0.63083 0.0
C1201 C 0.2499 0.1326 0.63635 0.0
C1202 C 0.26243 0.19993 0.6279 0.0
C1203 C 0.22115 0.18688 0.63 0.0
C1204 C 0.19408 0.14566 0.63418 0.0
C1205 C 0.20875 0.11899 0.63733 0.0
C1206 C 0.29255 0.24276 0.62286 0.0
C1207 C 0.1498 0.13007 0.6364 0.0
C1208 C 0.18966 0.25973 0.65393 0.0
C1209 C 0.17717 0.27072 0.63293 0.0
C1210 C 0.20487 0.23345 0.65302 0.0
C1211 C 0.20695 0.21676 0.63056 0.0
C1212 C 0.19495 0.2283 0.60913 0.0
C1213 C 0.1799 0.25493 0.61059 0.0
C1214 C 0.21813 0.22304 0.67629 0.0
C1215 C 0.19709 0.21181 0.58475 0.0
H1216 H 0.30784 0.18327 0.62929 0.0
H1217 H 0.18819 0.08789 0.64153 0.0
H1218 H 0.28805 0.24943 0.60401 0.0
H1219 H 0.28813 0.26252 0.63544 0.0
H1220 H 0.32385 0.24916 0.62467 0.0
H1221 H 0.13235 0.09691 0.63719 0.0
H1222 H 0.14379 0.14219 0.65311 0.0
H1223 H 0.13905 0.1403 0.62083 0.0
H1224 H 0.18699 0.27142 0.67128 0.0
H1225 H 0.16921 0.26249 0.5944 0.0
H1226 H 0.24967 0.23022 0.67465 0.0
H1227 H 0.19971 0.19048 0.67976 0.0
H1228 H 0.21564 0.23938 0.69215 0.0
H1229 H 0.22835 0.21978 0.58082 0.0
H1230 H 0.18636 0.22344 0.56987 0.0
H1231 H 0.17885 0.17871 0.58495 0.0
C1232 C 0.11218 0.86896 0.90027 0.0
C1233 C 0.13279 0.87842 0.87819 0.0
C1234 C 0.07047 0.85381 0.90099 0.0
C1235 C 0.04932 0.85074 0.87923 0.0
C1236 C 0.07115 0.86454 0.85731 0.0
C1237 C 0.1121 0.87693 0.85697 0.0
C1238 C 0.04926 0.84144 0.92507 0.0
C1239 C 0.05141 0.86612 0.83404 0.0
C1240 C 0.93831 0.77588 0.86947 0.0
C1241 C 0.91929 0.79484 0.88029 0.0
C1242 C 0.98005 0.79343 0.86907 0.0
C1243 C 1.00452 0.83212 0.87911 0.0
C1244 C 0.98562 0.85279 0.88856 0.0
C1245 C 0.94351 0.8336 0.88959 0.0
C1246 C 0.99654 0.769 0.85792 0.0
C1247 C 1.00894 0.89554 0.89726 0.0
H1248 H 0.12863 0.87327 0.91696 0.0
H1249 H 0.12825 0.88631 0.83995 0.0
H1250 H 0.03949 0.86279 0.93054 0.0
H1251 H 1.02223 0.81137 0.92366 0.0
H1252 H 0.06891 0.84113 0.93965 0.0
H1253 H 0.07356 0.88784 0.82104 0.0
H1254 H 0.03671 0.83628 0.82528 0.0
H1255 H 0.02827 0.87453 0.83755 0.0
H1256 H 0.9206 0.74682 0.86109 0.0
H1257 H 0.92984 0.8492 0.89794 0.0
H1258 H 0.02919 0.78567 0.85522 0.0
H1259 H 0.98218 0.75711 0.84006 0.0
H1260 H 0.98864 0.74279 0.86968 0.0
H1261 H 1.0044 0.89652 0.91705 0.0
H1262 H 0.99707 0.91335 0.88849 0.0
H1263 H 0.04141 0.91017 0.89345 0.0
C1264 C 0.78738 0.9363 0.65515 0.0
C1265 C 0.77495 0.91399 0.63366 0.0
C1266 C 0.81435 0.97769 0.65496 0.0
C1267 C 0.82999 0.99767 0.63267 0.0
C1268 C 0.817 0.97536 0.61076 0.0
C1269 C 0.79003 0.93367 0.61154 0.0
C1270 C 0.82644 0.99999 0.67875 0.0
C1271 C 0.83209 0.99535 0.58657 0.0
C1272 C 0.87424 0.11073 0.6364 0.0
C1273 C 0.91479 0.12438 0.64041 0.0
C1274 C 0.84682 0.07009 0.63278 0.0
C1275 C 0.85993 0.04177 0.63276 0.0
C1276 C 0.90142 0.0557 0.63552 0.0
C1277 C 0.9284 0.09685 0.63927 0.0
C1278 C 0.80373 0.05775 0.62912 0.0
C1279 C 0.91704 0.02689 0.63566 0.0
H1280 H 0.77625 0.9211 0.67232 0.0
H1281 H 0.78142 0.91636 0.59492 0.0
H1282 H 0.85925 1.01423 0.68123 0.0
H1283 H 0.81889 0.02419 0.67865 0.0
H1284 H 0.81143 0.98019 0.69449 0.0
H1285 H 0.81835 0.97416 0.5712 0.0
H1286 H 0.82547 0.01998 0.58438 0.0
H1287 H 0.86502 1.00874 0.58567 0.0
H1288 H 0.86371 0.13202 0.6366 0.0
H1289 H 0.9598 0.10722 0.64233 0.0
H1290 H 0.78447 0.03195 0.64084 0.0
H1291 H 0.7963 0.04907 0.60989 0.0
H1292 H 0.79739 0.08224 0.63309 0.0
H1293 H 0.90591 1.0077 0.65201 0.0
H1294 H 0.95022 0.04254 0.6357 0.0
H1295 H 0.9058 1.00694 0.61961 0.0
C1296 C 0.17983 0.25507 0.89973 0.0
C1297 C 0.17037 0.26608 0.87759 0.0
C1298 C 0.19485 0.22838 0.90059 0.0
C1299 C 0.19758 0.2098 0.87895 0.0
C1300 C 0.18347 0.21745 0.85701 0.0
C1301 C 0.17143 0.24631 0.85648 0.0
C1302 C 0.20788 0.22032 0.92467 0.0
C1303 C 0.18159 0.19574 0.83385 0.0
C1304 C 0.27292 0.17413 0.86902 0.0
C1305 C 0.25449 0.13636 0.88009 0.0
C1306 C 0.25506 0.19807 0.8686 0.0
C1307 C 0.21654 0.18383 0.8789 0.0
C1308 C 0.19641 0.14448 0.88867 0.0
C1309 C 0.21591 0.12181 0.88967 0.0
C1310 C 0.27892 0.23869 0.85702 0.0
C1311 C 0.15391 0.12502 0.89776 0.0
H1312 H 0.17609 0.26779 0.91634 0.0
H1313 H 0.1623 0.25309 0.83938 0.0
H1314 H 0.18654 0.18945 0.93056 0.0
H1315 H 0.23782 0.22311 0.92307 0.0
H1316 H 0.20885 0.24092 0.93905 0.0
H1317 H 0.15923 0.19543 0.82105 0.0
H1318 H 0.21113 0.21116 0.82476 0.0
H1319 H 0.17382 0.16442 0.8375 0.0
H1320 H 0.3018 0.18549 0.86042 0.0
H1321 H 0.20069 0.0927 0.89822 0.0
H1322 H 0.26237 0.2549 0.85504 0.0
H1323 H 0.28915 0.23555 0.83876 0.0
H1324 H 0.30618 0.25713 0.86798 0.0
H1325 H 0.15358 0.12029 0.91761 0.0
H1326 H 0.13607 0.09499 0.88939 0.0
H1327 H 0.1389 0.14247 0.89383 0.0
C1328 C 0.11257 0.86406 0.61227 0.0
C1329 C 0.1324 0.86936 0.63444 0.0
C1330 C 0.07094 0.84961 0.61145 0.0
C1331 C 0.04873 0.84099 0.63333 0.0
C1332 C 0.06884 0.84602 0.65568 0.0
C1333 C 0.11024 0.86036 0.65593 0.0
C1334 C 0.05088 0.84412 0.58719 0.0
C1335 C 0.04661 0.8364 0.67945 0.0
C1336 C 0.94896 0.83948 0.63895 0.0
C1337 C 0.92154 0.79829 0.63996 0.0
C1338 C 0.99027 0.8539 0.63564 0.0
C1339 C 1.00453 0.82655 0.63328 0.0
C1340 C 0.97641 0.78508 0.63325 0.0
C1341 C 0.9356 0.7716 0.63631 0.0
C1342 C 1.01883 0.89838 0.63569 0.0
C1343 C 0.98914 0.75452 0.63012 0.0
H1344 H 0.12973 0.87195 0.59562 0.0
H1345 H 0.12554 0.86486 0.67313 0.0
H1346 H 0.02718 0.81248 0.58488 0.0
H1347 H 0.03625 0.86255 0.58631 0.0
H1348 H 0.07227 0.85246 0.57189 0.0
H1349 H 0.06647 0.84159 0.69525 0.0
H1350 H 0.03237 0.85503 0.68165 0.0
H1351 H 1.02241 0.80465 0.67956 0.0
H1352 H 0.93836 0.8604 0.6417 0.0
H1353 H 0.9145 0.73975 0.63633 0.0
H1354 H 0.03895 0.907 0.61974 0.0
H1355 H 0.03787 0.90678 0.65214 0.0
H1356 H 1.00298 0.91572 0.63544 0.0
H1357 H 0.9984 0.75562 0.61103 0.0
H1358 H 0.96469 0.72366 0.63403 0.0
H1359 H 1.01467 0.76136 0.6422 0.0
C1360 C 0.87177 0.11059 0.87668 0.0
C1361 C 0.91264 0.12513 0.87308 0.0
C1362 C 0.84463 0.06961 0.87924 0.0
C1363 C 0.85826 0.04172 0.87893 0.0
C1364 C 0.89996 0.05638 0.87663 0.0
C1365 C 0.92664 0.09784 0.87368 0.0
C1366 C 0.80122 0.05648 0.88217 0.0
C1367 C 0.91622 0.02812 0.87644 0.0
C1368 C 0.78793 0.93354 0.89989 0.0
C1369 C 0.77368 0.91355 0.87773 0.0
C1370 C 0.81507 0.9752 0.90071 0.0
C1371 C 0.82874 0.99739 0.87883 0.0
C1372 C 0.81387 0.97713 0.85648 0.0
C1373 C 0.78702 0.93564 0.85622 0.0
C1374 C 0.82949 0.99531 0.92498 0.0
C1375 C 0.82645 0.99933 0.8327 0.0
H1376 H 0.86073 0.13145 0.87708 0.0
H1377 H 0.9582 0.10868 0.87097 0.0
H1378 H 0.78288 0.0311 0.86991 0.0
H1379 H 0.79286 0.04689 0.90119 0.0
H1380 H 0.79459 0.0808 0.87836 0.0
H1381 H 0.94942 0.0442 0.87671 0.0
H1382 H 0.90487 1.00786 0.89233 0.0
H1383 H 0.90571 1.00918 0.85994 0.0
H1384 H 0.77854 0.91647 0.91656 0.0
H1385 H 0.77646 0.92024 0.83903 0.0
H1386 H 0.82023 0.018 0.92754 0.0
H1387 H 0.86262 1.01117 0.92568 0.0
H1388 H 0.8174 0.97374 0.94024 0.0
H1389 H 0.81885 0.02349 0.83258 0.0
H1390 H 0.8118 0.97943 0.81691 0.0
H1391 H 0.85931 1.01362 0.83053 0.0
C1392 C 0.39235 0.21922 0.31336 0.0
C1393 C 0.39765 0.18815 0.3223 0.0
C1394 C 0.39414 0.22707 0.28818 0.0
C1395 C 0.40055 0.2028 0.27147 0.0
C1396 C 0.40843 0.17317 0.28061 0.0
C1397 C 0.40752 0.16674 0.30574 0.0
C1398 C 0.38724 0.2601 0.27946 0.0
C1399 C 0.41494 0.14606 0.2638 0.0
C1400 C 0.35076 0.17618 0.20939 0.0
C1401 C 0.38355 0.19336 0.19362 0.0
C1402 C 0.35566 0.18079 0.23466 0.0
C1403 C 0.3944 0.20456 0.24461 0.0
C1404 C 0.42728 0.2253 0.22856 0.0
C1405 C 0.42159 0.2189 0.20324 0.0
C1406 C 0.31965 0.15745 0.25071 0.0
C1407 C 0.46886 0.25224 0.23817 0.0
H1408 H 0.385 0.23622 0.32585 0.0
H1409 H 0.41272 0.14333 0.31236 0.0
H1410 H 0.40766 0.27665 0.26426 0.0
H1411 H 0.35616 0.24708 0.2727 0.0
H1412 H 0.39166 0.2815 0.29423 0.0
H1413 H 0.42418 0.12696 0.27366 0.0
H1414 H 0.3868 0.12643 0.25389 0.0
H1415 H 0.43809 0.16374 0.2501 0.0
H1416 H 0.32125 0.15696 0.20195 0.0
H1417 H 0.44714 0.23204 0.19118 0.0
H1418 H 0.31705 0.17756 0.264 0.0
H1419 H 0.32325 0.13488 0.26112 0.0
H1420 H 0.29139 0.14175 0.24018 0.0
H1421 H 0.46827 0.27039 0.2536 0.0
H1422 H 0.48904 0.2726 0.2239 0.0
H1423 H 0.48152 0.23384 0.24487 0.0
C1424 C 0.79367 0.64166 0.30511 0.0
C1425 C 0.82572 0.65098 0.32092 0.0
C1426 C 0.79754 0.64007 0.27987 0.0
C1427 C 0.83411 0.64672 0.26982 0.0
C1428 C 0.86562 0.65293 0.28575 0.0
C1429 C 0.86121 0.65534 0.31108 0.0
C1430 C 0.76323 0.6341 0.26389 0.0
C1431 C 0.90467 0.65883 0.27602 0.0
C1432 C 0.82521 0.62216 0.2019 0.0
C1433 C 0.83798 0.65983 0.19168 0.0
C1434 C 0.82672 0.61765 0.22728 0.0
C1435 C 0.84017 0.65142 0.24278 0.0
C1436 C 0.85504 0.68969 0.23221 0.0
C1437 C 0.85437 0.69338 0.20689 0.0
C1438 C 0.81176 0.57645 0.23757 0.0
C1439 C 0.86902 0.72658 0.2477 0.0
H1440 H 0.76571 0.63725 0.31241 0.0
H1441 H 0.88614 0.66228 0.323 0.0
H1442 H 0.77191 0.66217 0.25391 0.0
H1443 H 0.75626 0.61042 0.25025 0.0
H1444 H 0.73569 0.62594 0.27443 0.0
H1445 H 0.92296 0.65566 0.29044 0.0
H1446 H 0.89931 0.637 0.26137 0.0
H1447 H 0.92214 0.68919 0.26815 0.0
H1448 H 0.81228 0.59607 0.19024 0.0
H1449 H 0.86487 0.72259 0.19898 0.0
H1450 H 0.78173 0.56536 0.24561 0.0
H1451 H 0.83186 0.57728 0.25221 0.0
H1452 H 0.80944 0.5549 0.22343 0.0
H1453 H 0.8438 0.72363 0.25887 0.0
H1454 H 0.88072 0.75425 0.2367 0.0
H1455 H 0.89279 0.72982 0.26032 0.0
C1456 C 0.82754 0.18156 0.1996 0.0
C1457 C 0.85772 0.21819 0.1904 0.0
C1458 C 0.82041 0.1757 0.22483 0.0
C1459 C 0.84449 0.20691 0.24129 0.0
C1460 C 0.87318 0.24462 0.23189 0.0
C1461 C 0.87892 0.24989 0.20672 0.0
C1462 C 0.78846 0.13546 0.23388 0.0
C1463 C 0.90007 0.27878 0.24846 0.0
C1464 C 0.82884 0.21163 0.30953 0.0
C1465 C 0.85551 0.20047 0.31897 0.0
C1466 C 0.82215 0.21067 0.28426 0.0
C1467 C 0.84355 0.19947 0.26811 0.0
C1468 C 0.86856 0.18587 0.27789 0.0
C1469 C 0.87361 0.18594 0.30312 0.0
C1470 C 0.79407 0.22398 0.2748 0.0
C1471 C 0.89254 0.17417 0.26169 0.0
H1472 H 0.81075 0.15688 0.18728 0.0
H1473 H 0.90167 0.27865 0.19987 0.0
H1474 H 0.80255 0.11847 0.24077 0.0
H1475 H 0.77162 0.13892 0.24908 0.0
H1476 H 0.76713 0.11761 0.21928 0.0
H1477 H 0.91838 0.30713 0.23842 0.0
H1478 H 0.88226 0.28381 0.26231 0.0
H1479 H 0.9205 0.27117 0.2582 0.0
H1480 H 0.81493 0.22311 0.32171 0.0
H1481 H 0.89362 0.17658 0.31046 0.0
H1482 H 0.77568 0.20443 0.2597 0.0
H1483 H 0.81161 0.25484 0.26763 0.0
H1484 H 0.77393 0.22378 0.28924 0.0
H1485 H 0.87269 0.151 0.24854 0.0
H1486 H 0.90921 0.16259 0.27211 0.0
H1487 H 0.91434 0.20056 0.25112 0.0
C1488 C 0.18423 0.34116 0.70854 0.0
C1489 C 0.20163 0.37425 0.69303 0.0
C1490 C 0.18878 0.34556 0.73383 0.0
C1491 C 0.21267 0.38408 0.74404 0.0
C1492 C 0.23356 0.41726 0.72824 0.0
C1493 C 0.22725 0.41208 0.7029 0.0
C1494 C 0.16528 0.30926 0.74963 0.0
C1495 C 0.26055 0.45863 0.73814 0.0
C1496 C 0.17497 0.39605 0.80549 0.0
C1497 C 0.1964 0.38585 0.82179 0.0
C1498 C 0.18135 0.39743 0.78034 0.0
C1499 C 0.21095 0.3897 0.77094 0.0
C1500 C 0.23523 0.38295 0.78741 0.0
C1501 C 0.22745 0.38071 0.81261 0.0
C1502 C 0.15425 0.40431 0.76377 0.0
C1503 C 0.26821 0.37618 0.77839 0.0
H1504 H 0.16495 0.31182 0.70089 0.0
H1505 H 0.24057 0.43785 0.69102 0.0
H1506 H 0.18529 0.30635 0.76284 0.0
H1507 H 0.14271 0.31273 0.76015 0.0
H1508 H 0.14957 0.28121 0.73891 0.0
H1509 H 0.28092 0.4791 0.72398 0.0
H1510 H 0.24219 0.47118 0.7451 0.0
H1511 H 0.2787 0.4577 0.75345 0.0
H1512 H 0.15163 0.40121 0.81231 0.0
H1513 H 0.24454 0.37321 0.82491 0.0
H1514 H 0.13464 0.37639 0.75366 0.0
H1515 H 0.17194 0.42776 0.75024 0.0
H1516 H 0.13511 0.4133 0.77385 0.0
H1517 H 0.25511 0.34544 0.77102 0.0
H1518 H 0.28935 0.37972 0.79312 0.0
H1519 H 0.28508 0.39729 0.76354 0.0
C1520 C 0.19722 0.86712 0.80529 0.0
C1521 C 0.21219 0.84892 0.8207 0.0
C1522 C 0.19679 0.8625 0.77999 0.0
C1523 C 0.21058 0.83794 0.7697 0.0
C1524 C 0.2226 0.81674 0.78541 0.0
C1525 C 0.2238 0.82291 0.81075 0.0
C1526 C 0.1842 0.88621 0.76424 0.0
C1527 C 0.23637 0.78932 0.7754 0.0
C1528 C 0.19145 0.82104 0.70123 0.0
C1529 C 0.22776 0.85135 0.69175 0.0
C1530 C 0.18602 0.8144 0.72653 0.0
C1531 C 0.21735 0.83908 0.74276 0.0
C1532 C 0.25468 0.8681 0.7331 0.0
C1533 C 0.25952 0.87338 0.7079 0.0
C1534 C 0.14613 0.78222 0.73588 0.0
C1535 C 0.28887 0.89575 0.7494 0.0
H1536 H 0.18754 0.88665 0.81304 0.0
H1537 H 0.23555 0.80889 0.82261 0.0
H1538 H 0.20988 0.90767 0.75307 0.0
H1539 H 0.16017 0.86604 0.75163 0.0
H1540 H 0.17337 0.90319 0.77504 0.0
H1541 H 0.23779 0.76981 0.78968 0.0
H1542 H 0.21605 0.77027 0.76076 0.0
H1543 H 0.2666 0.80737 0.76743 0.0
H1544 H 0.1667 0.80371 0.68905 0.0
H1545 H 0.28803 0.89636 0.70087 0.0
H1546 H 0.1291 0.7961 0.74307 0.0
H1547 H 0.15016 0.76556 0.75094 0.0
H1548 H 0.12803 0.76077 0.72139 0.0
H1549 H 0.28064 0.91566 0.75922 0.0
H1550 H 0.31687 0.91463 0.73915 0.0
H1551 H 0.29481 0.8785 0.76317 0.0
C1552 C 0.63106 0.81722 0.70189 0.0
C1553 C 0.66883 0.83024 0.69172 0.0
C1554 C 0.62636 0.81848 0.72728 0.0
C1555 C 0.66003 0.8319 0.74284 0.0
C1556 C 0.6984 0.84705 0.73233 0.0
C1557 C 0.70228 0.84667 0.707 0.0
C1558 C 0.58507 0.80331 0.7375 0.0
C1559 C 0.7352 0.86101 0.74787 0.0
C1560 C 0.66361 0.85215 0.81125 0.0
C1561 C 0.65937 0.81661 0.8209 0.0
C1562 C 0.66123 0.85681 0.78595 0.0
C1563 C 0.65517 0.82551 0.76985 0.0
C1564 C 0.64858 0.78886 0.77972 0.0
C1565 C 0.65014 0.78474 0.80494 0.0
C1566 C 0.66703 0.89591 0.77642 0.0
C1567 C 0.6427 0.75474 0.76357 0.0
H1568 H 0.60503 0.80425 0.69018 0.0
H1569 H 0.73156 0.85738 0.69913 0.0
H1570 H 0.57391 0.77311 0.74529 0.0
H1571 H 0.58575 0.82311 0.7523 0.0
H1572 H 0.56364 0.80127 0.72336 0.0
H1573 H 0.76295 0.87287 0.73692 0.0
H1574 H 0.73829 0.88466 0.76056 0.0
H1575 H 0.73227 0.83574 0.75897 0.0
H1576 H 0.67048 0.87694 0.82328 0.0
H1577 H 0.64581 0.75673 0.81211 0.0
H1578 H 0.6454 0.89067 0.76168 0.0
H1579 H 0.69751 0.91367 0.76874 0.0
H1580 H 0.66348 0.91387 0.79093 0.0
H1581 H 0.61891 0.74777 0.75003 0.0
H1582 H 0.63474 0.72716 0.77398 0.0
H1583 H 0.67074 0.76366 0.75349 0.0
C1584 C 0.28549 0.97229 0.96479 0.0
C1585 C 0.2456 0.94687 0.95774 0.0
C1586 C 0.29575 0.999 0.98436 0.0
C1587 C 0.2654 1.00034 0.998 0.0
C1588 C 0.22478 0.97377 0.99159 0.0
C1589 C 0.21533 0.94739 0.97154 0.0
C1590 C 0.33941 0.02586 0.99044 0.0
C1591 C 0.19134 0.97354 1.00578 0.0
C1592 C 0.29945 0.03957 0.06214 0.0
C1593 C 0.30967 0.08008 0.06077 0.0
C1594 C 0.28294 1.01317 0.04244 0.0
C1595 C 0.27683 0.02713 0.02007 0.0
C1596 C 0.28607 0.06768 0.0185 0.0
C1597 C 0.30185 0.09348 0.0389 0.0
C1598 C 0.27353 0.97044 0.0454 0.0
C1599 C 0.28047 0.08414 0.99501 0.0
H1600 H 0.30915 0.97151 0.95481 0.0
H1601 H 0.18444 0.92816 0.96624 0.0
H1602 H 0.34677 0.05753 0.99081 0.0
H1603 H 0.34574 0.01852 0.00874 0.0
H1604 H 0.35948 0.02288 0.97723 0.0
H1605 H 0.16143 0.95125 0.99869 0.0
H1606 H 0.19329 0.96674 0.0251 0.0
H1607 H 0.19429 1.0036 1.00515 0.0
H1608 H 0.30482 0.02807 0.07871 0.0
H1609 H 0.30867 0.1242 0.03753 0.0
H1610 H 0.29476 0.96545 0.03448 0.0
H1611 H 0.24301 0.94942 0.03866 0.0
H1612 H 0.27565 0.96296 0.06458 0.0
H1613 H 0.30085 0.08355 0.98105 0.0
H1614 H 0.28662 0.11534 0.99695 0.0
H1615 H 0.24948 0.06512 0.98828 0.0
C1616 C 0.82989 0.77217 0.46013 0.0
C1617 C 0.81742 0.73128 0.45892 0.0
C1618 C 0.81802 0.78817 0.47936 0.0
C1619 C 0.7924 0.76265 0.49782 0.0
C1620 C 0.78058 0.72142 0.49694 0.0
C1621 C 0.79297 0.70627 0.47749 0.0
C1622 C 0.83152 0.83217 0.47931 0.0
C1623 C 0.75325 0.69283 0.51599 0.0
C1624 C 0.78158 0.80383 0.55899 0.0
C1625 C 0.74503 0.80314 0.55653 0.0
C1626 C 0.79789 0.7921 0.53993 0.0
C1627 C 0.77706 0.77868 0.51764 0.0
C1628 C 0.74064 0.77903 0.51478 0.0
C1629 C 0.72505 0.79105 0.53422 0.0
C1630 C 0.83679 0.79268 0.54402 0.0
C1631 C 0.71709 0.76489 0.49151 0.0
H1632 H 0.84756 0.79143 0.44538 0.0
H1633 H 0.78181 0.67442 0.47617 0.0
H1634 H 0.80534 0.83629 0.47665 0.0
H1635 H 0.84509 0.84575 0.49704 0.0
H1636 H 0.85359 0.84853 0.46474 0.0
H1637 H 0.74854 0.66222 0.51358 0.0
H1638 H 0.76576 0.70373 0.53433 0.0
H1639 H 0.7238 0.69126 0.51519 0.0
H1640 H 0.79699 0.81254 0.57626 0.0
H1641 H 0.69613 0.78875 0.53232 0.0
H1642 H 0.85835 0.80987 0.52943 0.0
H1643 H 0.8316 0.76174 0.5433 0.0
H1644 H 0.85051 0.80603 0.5618 0.0
H1645 H 0.7365 0.78069 0.47579 0.0
H1646 H 0.69107 0.76974 0.49137 0.0
H1647 H 0.70606 0.73252 0.48902 0.0
C1648 C 0.105 0.32176 0.97883 0.0
C1649 C 0.09902 0.2995 0.95758 0.0
C1650 C 0.07722 0.30664 0.99817 0.0
C1651 C 0.04235 0.26829 0.99631 0.0
C1652 C 0.03707 0.24523 0.97517 0.0
C1653 C 0.0651 0.26121 0.9561 0.0
C1654 C 0.0842 0.33265 0.02012 0.0
C1655 C 1.00091 0.20418 0.97224 0.0
C1656 C 0.98506 0.22004 0.0551 0.0
C1657 C 0.95377 0.22859 0.05446 0.0
C1658 C 1.01317 0.23153 0.03608 0.0
C1659 C 1.01074 0.25305 0.01595 0.0
C1660 C 0.97855 0.26097 0.015 0.0
C1661 C 0.95064 0.24879 0.03423 0.0
C1662 C 0.04645 0.22196 0.03801 0.0
C1663 C 0.97467 0.28406 0.99417 0.0
H1664 H 0.13011 0.35192 0.9798 0.0
H1665 H 0.05969 0.24423 0.93948 0.0
H1666 H 0.06054 0.3409 0.02116 0.0
H1667 H 0.08229 0.31604 0.03691 0.0
H1668 H 0.11377 0.36049 0.0196 0.0
H1669 H 1.0025 0.18887 0.95558 0.0
H1670 H 0.99783 0.18533 0.98816 0.0
H1671 H 0.97352 0.20663 0.97135 0.0
H1672 H 0.98844 0.20558 0.07103 0.0
H1673 H 0.92769 0.25708 0.03404 0.0
H1674 H 0.07554 0.25006 0.03973 0.0
H1675 H 0.04778 0.20663 0.02132 0.0
H1676 H 0.0427 0.2027 0.05387 0.0
H1677 H 1.00081 0.31481 0.99398 0.0
H1678 H 0.94699 0.28602 0.99537 0.0
H1679 H 0.97457 0.26982 0.97668 0.0
C1680 C 0.33319 0.09447 0.47864 0.0
C1681 C 0.31042 0.08921 0.45774 0.0
C1682 C 0.31796 0.06687 0.49804 0.0
C1683 C 0.27897 0.03285 0.49657 0.0
C1684 C 0.25548 0.02822 0.47575 0.0
C1685 C 0.27159 0.05608 0.45661 0.0
C1686 C 0.34443 0.07312 0.51963 0.0
C1687 C 0.21379 0.99292 0.47325 0.0
C1688 C 0.25786 0.94088 0.53464 0.0
C1689 C 0.23899 0.94524 0.55517 0.0
C1690 C 0.27002 0.96844 0.51523 0.0
C1691 C 0.26345 1.00149 0.51632 0.0
C1692 C 0.24323 1.00517 0.53676 0.0
C1693 C 0.23169 0.97737 0.55593 0.0
C1694 C 0.29172 0.96324 0.49406 0.0
C1695 C 0.23515 0.03943 0.53886 0.0
H1696 H 0.36377 0.11882 0.47929 0.0
H1697 H 0.2542 0.05118 0.44023 0.0
H1698 H 0.32865 0.07202 0.53665 0.0
H1699 H 0.35158 0.04868 0.52046 0.0
H1700 H 0.37287 0.10214 0.51882 0.0
H1701 H 0.19834 0.99495 0.45679 0.0
H1702 H 0.21511 0.96492 0.47226 0.0
H1703 H 0.19567 0.99068 0.4894 0.0
H1704 H 0.26517 0.91725 0.53432 0.0
H1705 H 0.2182 0.98161 0.57206 0.0
H1706 H 0.3229 0.98859 0.49351 0.0
H1707 H 0.27722 0.96357 0.47678 0.0
H1708 H 0.29247 0.93492 0.49515 0.0
H1709 H 0.26385 0.06804 0.54015 0.0
H1710 H 0.21676 0.03664 0.55501 0.0
H1711 H 0.2195 0.04104 0.52241 0.0
C1712 C 0.79826 0.71517 0.03448 0.0
C1713 C 0.81179 0.73596 0.05646 0.0
C1714 C 0.78645 0.73081 0.015 0.0
C1715 C 0.78781 0.76812 0.01749 0.0
C1716 C 0.80261 0.78969 0.03946 0.0
C1717 C 0.81404 0.77328 0.0586 0.0
C1718 C 0.7707 0.70642 0.99212 0.0
C1719 C 0.80502 0.82954 0.04312 0.0
C1720 C 0.78178 0.81955 0.95932 0.0
C1721 C 0.74124 0.80855 0.95849 0.0
C1722 C 0.79758 0.80774 0.97865 0.0
C1723 C 0.77217 0.78366 0.99762 0.0
C1724 C 0.73133 0.77336 0.99714 0.0
C1725 C 0.71638 0.78567 0.97757 0.0
C1726 C 0.84118 0.81962 0.97818 0.0
C1727 C 0.70286 0.74765 0.01675 0.0
H1728 H 0.7947 0.68568 0.03291 0.0
H1729 H 0.82372 0.78922 0.07567 0.0
H1730 H 0.73854 0.69663 0.98998 0.0
H1731 H 0.78651 0.72483 0.97607 0.0
H1732 H 0.77414 0.67954 0.99225 0.0
H1733 H 0.81936 0.84371 0.06062 0.0
H1734 H 0.82219 0.85018 0.02815 0.0
H1735 H 0.77453 0.82557 0.04274 0.0
H1736 H 0.80088 0.83604 0.94421 0.0
H1737 H 0.68472 0.77552 0.97657 0.0
H1738 H 0.844 0.7926 0.97591 0.0
H1739 H 0.85564 0.83374 0.99563 0.0
H1740 H 0.85763 0.84072 0.96321 0.0
H1741 H 0.69983 0.71754 0.01629 0.0
H1742 H 0.67272 0.74426 0.01464 0.0
H1743 H 0.71479 0.76069 0.03485 0.0
C1744 C 0.05826 0.31115 0.55603 0.0
C1745 C 0.09231 0.30707 0.55876 0.0
C1746 C 0.03261 0.2955 0.53592 0.0
C1747 C 0.04042 0.27452 0.51769 0.0
C1748 C 0.07463 0.26999 0.52024 0.0
C1749 C 0.1003 0.28651 0.54061 0.0
C1750 C 0.9975 0.30238 0.53396 0.0
C1751 C 0.08415 0.24773 0.50138 0.0
C1752 C 0.95325 0.21437 0.4731 0.0
C1753 C 0.96352 0.24112 0.45361 0.0
C1754 C 0.97853 0.22398 0.49371 0.0
C1755 C 1.01489 0.26128 0.49504 0.0
C1756 C 1.02527 0.28806 0.47535 0.0
C1757 C 0.99984 0.27771 0.45513 0.0
C1758 C 0.96621 0.19434 0.51418 0.0
C1759 C 0.06295 0.32848 0.47584 0.0
H1760 H 0.05154 0.3271 0.56966 0.0
H1761 H 0.12618 0.28279 0.54249 0.0
H1762 H 1.00101 0.32078 0.51772 0.0
H1763 H 0.96935 0.27351 0.53167 0.0
H1764 H 0.99449 0.31785 0.55013 0.0
H1765 H 0.1102 0.24454 0.50658 0.0
H1766 H 0.05785 0.21755 0.49852 0.0
H1767 H 0.09075 0.26372 0.48381 0.0
H1768 H 0.92568 0.18592 0.47221 0.0
H1769 H 1.00865 0.29902 0.44044 0.0
H1770 H 0.96107 0.20725 0.53083 0.0
H1771 H 0.99057 0.18791 0.51823 0.0
H1772 H 0.93851 0.16582 0.50994 0.0
H1773 H 0.06134 0.34669 0.49089 0.0
H1774 H 0.06779 0.34523 0.45864 0.0
H1775 H 0.08935 0.32501 0.47922 0.0
C1776 C 0.60328 0.11336 0.12695 0.0
C1777 C 0.63636 0.14995 0.11994 0.0
C1778 C 0.56593 0.11001 0.13181 0.0
C1779 C 0.56121 0.14387 0.12921 0.0
C1780 C 0.59542 0.18158 0.12432 0.0
C1781 C 0.63261 0.1842 0.11983 0.0
C1782 C 0.53073 0.06949 0.13769 0.0
C1783 C 0.59198 0.21858 0.12152 0.0
C1784 C 0.46601 0.12947 0.09978 0.0
C1785 C 0.44638 0.13631 0.11893 0.0
C1786 C 0.50241 0.13044 0.10322 0.0
C1787 C 0.52012 0.13854 0.12654 0.0
C1788 C 0.49931 0.14326 0.14637 0.0
C1789 C 0.46274 0.14245 0.1423 0.0
C1790 C 0.52283 0.12464 0.0815 0.0
C1791 C 0.51645 0.15115 0.17162 0.0
H1792 H 0.60605 0.08679 0.1272 0.0
H1793 H 0.65792 0.21247 0.11429 0.0
H1794 H 0.51315 0.07183 0.15285 0.0
H1795 H 0.51065 0.05782 0.12172 0.0
H1796 H 0.5402 0.0476 0.14265 0.0
H1797 H 0.62171 0.24623 0.12117 0.0
H1798 H 0.57623 0.21668 0.10431 0.0
H1799 H 0.5741 0.22082 0.13653 0.0
H1800 H 0.45345 0.12485 0.08168 0.0
H1801 H 0.44797 0.14833 0.15712 0.0
H1802 H 0.52937 0.10022 0.08499 0.0
H1803 H 0.55177 0.15232 0.07819 0.0
H1804 H 0.50443 0.11729 0.06479 0.0
H1805 H 0.53069 0.13296 0.17555 0.0
H1806 H 0.49316 0.14468 0.1855 0.0
H1807 H 0.53981 0.18308 0.17321 0.0
C1808 C 0.70124 0.57741 0.42053 0.0
C1809 C 0.72534 0.5983 0.40074 0.0
C1810 C 0.66494 0.54165 0.4174 0.0
C1811 C 0.65217 0.52592 0.39379 0.0
C1812 C 0.67527 0.54814 0.37354 0.0
C1813 C 0.71182 0.58397 0.37726 0.0
C1814 C 0.64124 0.51969 0.43959 0.0
C1815 C 0.66267 0.53315 0.34802 0.0
C1816 C 0.58509 0.41291 0.39687 0.0
C1817 C 0.54724 0.40923 0.39893 0.0
C1818 C 0.61946 0.45052 0.39301 0.0
C1819 C 0.61588 0.48525 0.39103 0.0
C1820 C 0.57728 0.48096 0.39069 0.0
C1821 C 0.54352 0.44313 0.39479 0.0
C1822 C 0.65992 0.45353 0.39324 0.0
C1823 C 0.57186 0.51683 0.38801 0.0
H1824 H 0.71171 0.58837 0.43871 0.0
H1825 H 0.73057 0.5996 0.36188 0.0
H1826 H 0.61 0.5134 0.43797 0.0
H1827 H 0.64019 0.49055 0.44112 0.0
H1828 H 0.65428 0.53688 0.45654 0.0
H1829 H 0.67837 0.5574 0.3345 0.0
H1830 H 0.66995 0.50932 0.34419 0.0
H1831 H 0.62995 0.52005 0.34566 0.0
H1832 H 0.58824 0.38697 0.40018 0.0
H1833 H 0.51428 0.44044 0.3962 0.0
H1834 H 0.6755 0.46765 0.41045 0.0
H1835 H 0.67864 0.47273 0.37816 0.0
H1836 H 0.6576 0.42377 0.39168 0.0
H1837 H 0.58147 0.53477 0.40493 0.0
H1838 H 0.54022 0.50804 0.38437 0.0
H1839 H 0.59076 0.53636 0.37309 0.0
C1840 C 0.91223 0.34527 0.09119 0.0
C1841 C 0.90857 0.32082 0.11088 0.0
C1842 C 0.91214 0.38127 0.09438 0.0
C1843 C 0.90819 0.39346 0.11797 0.0
C1844 C 0.90669 0.36995 0.13815 0.0
C1845 C 0.90644 0.33363 0.13436 0.0
C1846 C 0.91445 0.40535 0.07227 0.0
C1847 C 0.90332 0.38193 0.16367 0.0
C1848 C 0.93412 0.50223 0.11789 0.0
C1849 C 0.89666 0.49873 0.11347 0.0
C1850 C 0.93803 0.4683 0.1217 0.0
C1851 C 0.90372 0.42972 0.12078 0.0
C1852 C 0.86551 0.42628 0.11843 0.0
C1853 C 0.86242 0.46081 0.11488 0.0
C1854 C 0.97921 0.4736 0.12481 0.0
C1855 C 0.82806 0.38585 0.11758 0.0
H1856 H 0.91364 0.33533 0.07301 0.0
H1857 H 0.90284 0.31459 0.14965 0.0
H1858 H 0.88639 0.40642 0.07049 0.0
H1859 H 0.93934 0.43656 0.0742 0.0
H1860 H 0.91904 0.39262 0.05533 0.0
H1861 H 0.91147 0.366 0.17726 0.0
H1862 H 0.92274 0.41459 0.16635 0.0
H1863 H 0.87203 0.37443 0.16707 0.0
H1864 H 0.96072 0.5315 0.11697 0.0
H1865 H 0.83345 0.45781 0.11132 0.0
H1866 H 0.9878 0.46379 0.10807 0.0
H1867 H 0.97943 0.45474 0.13989 0.0
H1868 H 1.00209 0.50521 0.12847 0.0
H1869 H 0.82722 0.37069 0.10031 0.0
H1870 H 0.80058 0.38816 0.11879 0.0
H1871 H 0.82796 0.36674 0.13259 0.0
C1872 C 0.46827 0.13058 0.42093 0.0
C1873 C 0.44784 0.13499 0.40127 0.0
C1874 C 0.50432 0.13053 0.41779 0.0
C1875 C 0.52091 0.13519 0.39429 0.0
C1876 C 0.49934 0.1376 0.37412 0.0
C1877 C 0.46323 0.13786 0.37786 0.0
C1878 C 0.52552 0.12718 0.43989 0.0
C1879 C 0.5152 0.14185 0.34869 0.0
C1880 C 0.63405 0.1791 0.39763 0.0
C1881 C 0.63711 0.14445 0.39823 0.0
C1882 C 0.59668 0.17683 0.3944 0.0
C1883 C 0.56147 0.13904 0.39156 0.0
C1884 C 0.56509 0.10439 0.38998 0.0
C1885 C 0.60268 0.10748 0.39346 0.0
C1886 C 0.59446 0.21464 0.39597 0.0
C1887 C 0.52877 0.06362 0.38643 0.0
H1888 H 0.45662 0.12861 0.43908 0.0
H1889 H 0.4481 0.14205 0.36259 0.0
H1890 H 0.53154 0.10214 0.43765 0.0
H1891 H 0.55478 0.15498 0.44207 0.0
H1892 H 0.50792 0.12216 0.45676 0.0
H1893 H 0.49168 0.13518 0.33492 0.0
H1894 H 0.53983 0.17298 0.34593 0.0
H1895 H 0.52756 0.12175 0.34564 0.0
H1896 H 0.66034 0.20771 0.40147 0.0
H1897 H 0.6048 0.08054 0.39375 0.0
H1898 H 0.58009 0.21501 0.41332 0.0
H1899 H 0.57579 0.21576 0.38106 0.0
H1900 H 0.6245 0.24185 0.39513 0.0
H1901 H 0.51024 0.0548 0.4031 0.0
H1902 H 0.53697 0.04045 0.38243 0.0
H1903 H 0.51002 0.06426 0.3714 0.0
C1904 C 0.58486 0.41098 0.1163 0.0
C1905 C 0.54686 0.40723 0.11551 0.0
C1906 C 0.61943 0.44852 0.12015 0.0
C1907 C 0.61597 0.48314 0.12347 0.0
C1908 C 0.57734 0.47867 0.12497 0.0
C1909 C 0.54338 0.44095 0.1208 0.0
C1910 C 0.65988 0.45166 0.11857 0.0
C1911 C 0.57201 0.51433 0.12918 0.0
C1912 C 0.71217 0.58225 0.1372 0.0
C1913 C 0.72394 0.59795 0.11379 0.0
C1914 C 0.67625 0.5457 0.14098 0.0
C1915 C 0.6521 0.52408 0.12083 0.0
C1916 C 0.66333 0.54097 0.09737 0.0
C1917 C 0.69889 0.57744 0.09421 0.0
C1918 C 0.66532 0.52951 0.16637 0.0
C1919 C 0.63862 0.51967 0.07531 0.0
H1920 H 0.58784 0.38519 0.11206 0.0
H1921 H 0.51406 0.43823 0.12034 0.0
H1922 H 0.67457 0.46658 0.10135 0.0
H1923 H 0.67935 0.47021 0.13364 0.0
H1924 H 0.65768 0.42188 0.11914 0.0
H1925 H 0.54031 0.50542 0.13266 0.0
H1926 H 0.5904 0.53208 0.14481 0.0
H1927 H 0.58246 0.53407 0.11304 0.0
H1928 H 0.73172 0.59759 0.15238 0.0
H1929 H 0.70801 0.5894 0.07608 0.0
H1930 H 0.67342 0.50598 0.16901 0.0
H1931 H 0.6327 0.51569 0.16949 0.0
H1932 H 0.68143 0.55324 0.18016 0.0
H1933 H 0.63753 0.49061 0.07297 0.0
H1934 H 0.65082 0.5374 0.05846 0.0
H1935 H 0.60746 0.51326 0.07771 0.0
C1936 C 0.93139 0.4976 0.38634 0.0
C1937 C 0.89459 0.49447 0.39232 0.0
C1938 C 0.93458 0.46341 0.3819 0.0
C1939 C 0.90025 0.42497 0.38379 0.0
C1940 C 0.86245 0.4219 0.38758 0.0
C1941 C 0.86005 0.45669 0.39175 0.0
C1942 C 0.97522 0.46827 0.37712 0.0
C1943 C 0.82497 0.38166 0.3895 0.0
C1944 C 0.90225 0.32809 0.37108 0.0
C1945 C 0.90668 0.31715 0.39461 0.0
C1946 C 0.90167 0.36392 0.3669 0.0
C1947 C 0.90485 0.38882 0.38677 0.0
C1948 C 0.91098 0.37839 0.41034 0.0
C1949 C 0.91172 0.34285 0.41391 0.0
C1950 C 0.89572 0.37393 0.34141 0.0
C1951 C 0.9152 0.40398 0.43211 0.0
H1952 H 0.95818 0.52678 0.38662 0.0
H1953 H 0.83159 0.45402 0.3965 0.0
H1954 H 0.98461 0.45704 0.39285 0.0
H1955 H 0.97387 0.45025 0.36111 0.0
H1956 H 0.99829 0.49994 0.37388 0.0
H1957 H 0.79755 0.38415 0.38898 0.0
H1958 H 0.8236 0.36177 0.37457 0.0
H1959 H 0.82534 0.3673 0.40683 0.0
H1960 H 0.89768 0.30799 0.35614 0.0
H1961 H 0.91498 0.33434 0.43213 0.0
H1962 H 0.91395 0.4065 0.33794 0.0
H1963 H 0.86387 0.36511 0.33886 0.0
H1964 H 0.90354 0.35775 0.32779 0.0
H1965 H 0.94008 0.43495 0.42927 0.0
H1966 H 0.92104 0.3923 0.44908 0.0
H1967 H 0.88744 0.40543 0.43454 0.0
C1968 C 0.19392 0.62472 0.62096 0.0
C1969 C 0.15963 0.62839 0.62088 0.0
C1970 C 0.19126 0.58748 0.62528 0.0
C1971 C 0.15346 0.55316 0.62978 0.0
C1972 C 0.11951 0.55779 0.63225 0.0
C1973 C 0.12293 0.59519 0.62758 0.0
C1974 C 0.22834 0.58414 0.62266 0.0
C1975 C 0.07891 0.52245 0.63776 0.0
C1976 C 0.13986 0.4588 0.59957 0.0
C1977 C 0.14628 0.43874 0.61862 0.0
C1978 C 0.14069 0.49508 0.6033 0.0
C1979 C 0.14823 0.51219 0.62679 0.0
C1980 C 0.15252 0.49091 0.64648 0.0
C1981 C 0.15187 0.4545 0.64213 0.0
C1982 C 0.13535 0.51602 0.58172 0.0
C1983 C 0.15981 0.5074 0.67189 0.0
H1984 H 0.22229 0.65014 0.61567 0.0
H1985 H 0.09633 0.59793 0.62768 0.0
H1986 H 0.23024 0.56593 0.63758 0.0
H1987 H 0.22689 0.5688 0.60535 0.0
H1988 H 0.25599 0.61389 0.62265 0.0
H1989 H 0.05677 0.53174 0.64243 0.0
H1990 H 0.06776 0.50242 0.62174 0.0
H1991 H 0.08094 0.50487 0.65302 0.0
H1992 H 0.13567 0.44669 0.58137 0.0
H1993 H 0.15744 0.43938 0.65686 0.0
H1994 H 0.16307 0.54506 0.57874 0.0
H1995 H 0.11081 0.52241 0.58515 0.0
H1996 H 0.12841 0.49805 0.56483 0.0
H1997 H 0.19177 0.53047 0.67387 0.0
H1998 H 0.15271 0.48367 0.68557 0.0
H1999 H 0.14176 0.5218 0.6758 0.0
C2000 C 0.35039 0.90029 0.91747 0.0
C2001 C 0.32563 0.89647 0.89791 0.0
C2002 C 0.38642 0.90041 0.91407 0.0
C2003 C 0.3982 0.89626 0.89041 0.0
C2004 C 0.37425 0.89442 0.87035 0.0
C2005 C 0.33798 0.89417 0.87436 0.0
C2006 C 0.41104 0.90324 0.93604 0.0
C2007 C 0.38568 0.89063 0.84479 0.0
C2008 C 0.50699 0.92262 0.89053 0.0
C2009 C 0.50361 0.88538 0.89541 0.0
C2010 C 0.47298 0.92623 0.8864 0.0
C2011 C 0.43447 0.89186 0.88747 0.0
C2012 C 0.43119 0.85378 0.89017 0.0
C2013 C 0.46581 0.85097 0.89405 0.0
C2014 C 0.47811 0.96722 0.88282 0.0
C2015 C 0.39085 0.81624 0.89113 0.0
H2016 H 0.34076 0.90185 0.93571 0.0
H2017 H 0.31857 0.89045 0.8592 0.0
H2018 H 0.4123 0.8753 0.93791 0.0
H2019 H 0.44215 0.92821 0.93388 0.0
H2020 H 0.39862 0.90807 0.95305 0.0
H2021 H 0.37008 0.8994 0.83132 0.0
H2022 H 0.41839 0.90928 0.84198 0.0
H2023 H 0.3772 0.85907 0.84131 0.0
H2024 H 0.5362 0.94931 0.89143 0.0
H2025 H 0.46295 0.82216 0.89797 0.0
H2026 H 0.46701 0.97566 0.89905 0.0
H2027 H 0.46019 0.96706 0.86707 0.0
H2028 H 0.50985 0.99035 0.87983 0.0
H2029 H 0.37582 0.81551 0.90842 0.0
H2030 H 0.3933 0.78883 0.88997 0.0
H2031 H 0.37157 0.8159 0.87612 0.0
C2032 C 0.59149 0.70441 0.63751 0.0
C2033 C 0.60725 0.71595 0.6141 0.0
C2034 C 0.55499 0.66846 0.64134 0.0
C2035 C 0.53352 0.64404 0.62125 0.0
C2036 C 0.55049 0.65505 0.5978 0.0
C2037 C 0.58689 0.69066 0.59457 0.0
C2038 C 0.53868 0.6578 0.66673 0.0
C2039 C 0.52936 0.63004 0.57579 0.0
C2040 C 0.45071 0.53523 0.62147 0.0
C2041 C 0.41694 0.5385 0.61593 0.0
C2042 C 0.48832 0.56932 0.62565 0.0
C2043 C 0.49263 0.60786 0.62393 0.0
C2044 C 0.45795 0.61113 0.62039 0.0
C2045 C 0.42052 0.57643 0.61651 0.0
C2046 C 0.52404 0.56421 0.63009 0.0
C2047 C 0.46093 0.65148 0.6186 0.0
H2048 H 0.60673 0.72415 0.65264 0.0
H2049 H 0.5989 0.69961 0.57644 0.0
H2050 H 0.51513 0.66591 0.66923 0.0
H2051 H 0.52488 0.62522 0.66998 0.0
H2052 H 0.56235 0.67409 0.68052 0.0
H2053 H 0.54716 0.64207 0.55895 0.0
H2054 H 0.52304 0.59894 0.57837 0.0
H2055 H 0.50027 0.62882 0.57332 0.0
H2056 H 0.44811 0.50596 0.6212 0.0
H2057 H 0.3947 0.57925 0.6121 0.0
H2058 H 0.54166 0.58283 0.64569 0.0
H2059 H 0.54389 0.57452 0.61398 0.0
H2060 H 0.51523 0.53259 0.63373 0.0
H2061 H 0.47935 0.67115 0.63363 0.0
H2062 H 0.43109 0.64915 0.61904 0.0
H2063 H 0.4759 0.66602 0.60135 0.0
C2064 C 0.11683 0.59093 0.89415 0.0
C2065 C 0.15351 0.6259 0.89859 0.0
C2066 C 0.11447 0.55363 0.89088 0.0
C2067 C 0.14962 0.55085 0.89219 0.0
C2068 C 0.18709 0.58657 0.89465 0.0
C2069 C 0.1886 0.62363 0.89779 0.0
C2070 C 0.07399 0.51675 0.88779 0.0
C2071 C 0.22542 0.58527 0.89582 0.0
C2072 C 0.14345 0.45849 0.9214 0.0
C2073 C 0.14698 0.43774 0.90158 0.0
C2074 C 0.14307 0.49441 0.91839 0.0
C2075 C 0.14667 0.51065 0.89488 0.0
C2076 C 0.1485 0.48891 0.87459 0.0
C2077 C 0.14897 0.45288 0.87819 0.0
C2078 C 0.14023 0.51573 0.9406 0.0
C2079 C 0.15185 0.50448 0.84917 0.0
H2080 H 0.08955 0.59243 0.89454 0.0
H2081 H 0.21702 0.65034 0.90135 0.0
H2082 H 0.07444 0.49859 0.87234 0.0
H2083 H 0.06645 0.49796 0.9043 0.0
H2084 H 0.05005 0.52418 0.88464 0.0
H2085 H 0.25221 0.61556 0.89462 0.0
H2086 H 0.22665 0.57144 0.91318 0.0
H2087 H 0.2265 0.56652 0.88092 0.0
H2088 H 0.14218 0.44706 0.93952 0.0
H2089 H 0.15252 0.43754 0.86279 0.0
H2090 H 0.11484 0.52131 0.93876 0.0
H2091 H 0.16787 0.54521 0.94244 0.0
H2092 H 0.13605 0.49843 0.95749 0.0
H2093 H 0.13136 0.51645 0.8464 0.0
H2094 H 0.14508 0.48092 0.83539 0.0
H2095 H 0.18276 0.52936 0.84612 0.0
C2096 C 0.34298 0.89871 0.63586 0.0
C2097 C 0.33026 0.90082 0.61237 0.0
C2098 C 0.37924 0.89886 0.63967 0.0
C2099 C 0.40285 0.90041 0.6195 0.0
C2100 C 0.39081 0.90452 0.59592 0.0
C2101 C 0.35484 0.90461 0.5927 0.0
C2102 C 0.39105 0.89526 0.66517 0.0
C2103 C 0.41501 0.90694 0.57382 0.0
C2104 C 0.51153 0.92613 0.61923 0.0
C2105 C 0.50794 0.88867 0.61461 0.0
C2106 C 0.47766 0.93008 0.62323 0.0
C2107 C 0.43905 0.89583 0.62229 0.0
C2108 C 0.43552 0.8576 0.61975 0.0
C2109 C 0.47 0.85447 0.61602 0.0
C2110 C 0.48305 0.97128 0.62651 0.0
C2111 C 0.39505 0.8202 0.61886 0.0
H2112 H 0.32386 0.8951 0.65113 0.0
H2113 H 0.34498 0.90607 0.57452 0.0
H2114 H 0.38349 0.86393 0.66847 0.0
H2115 H 0.42371 0.91461 0.66792 0.0
H2116 H 0.37506 0.90332 0.67879 0.0
H2117 H 0.40241 0.9117 0.55688 0.0
H2118 H 0.44623 0.93177 0.57583 0.0
H2119 H 0.41601 0.87885 0.57194 0.0
H2120 H 0.54082 0.95271 0.6183 0.0
H2121 H 0.46692 0.8255 0.61231 0.0
H2122 H 0.46409 0.9714 0.64158 0.0
H2123 H 0.47342 0.98009 0.6098 0.0
H2124 H 0.51466 0.99405 0.63029 0.0
H2125 H 0.37592 0.82009 0.63388 0.0
H2126 H 0.3973 0.79268 0.62001 0.0
H2127 H 0.37996 0.81946 0.60159 0.0
C2128 C 0.59344 0.70222 0.87701 0.0
C2129 C 0.60777 0.71566 0.90051 0.0
C2130 C 0.55773 0.66555 0.87324 0.0
C2131 C 0.53561 0.64221 0.89345 0.0
C2132 C 0.55129 0.65498 0.91707 0.0
C2133 C 0.58692 0.6914 0.92025 0.0
C2134 C 0.54279 0.65301 0.8477 0.0
C2135 C 0.52945 0.63104 0.93922 0.0
C2136 C 0.4227 0.57341 0.89627 0.0
C2137 C 0.4197 0.53581 0.89799 0.0
C2138 C 0.46004 0.60827 0.89266 0.0
C2139 C 0.49522 0.60549 0.89061 0.0
C2140 C 0.49166 0.56721 0.89 0.0
C2141 C 0.45408 0.53294 0.89381 0.0
C2142 C 0.46226 0.64837 0.89313 0.0
C2143 C 0.52803 0.5626 0.88731 0.0
H2144 H 0.60899 0.72108 0.86166 0.0
H2145 H 0.59786 0.7018 0.93844 0.0
H2146 H 0.53025 0.6204 0.84521 0.0
H2147 H 0.51851 0.65972 0.84404 0.0
H2148 H 0.5669 0.66918 0.83416 0.0
H2149 H 0.54653 0.64416 0.95619 0.0
H2150 H 0.50011 0.62958 0.94076 0.0
H2151 H 0.52356 0.59995 0.93753 0.0
H2152 H 0.3964 0.57594 0.89961 0.0
H2153 H 0.45195 0.50392 0.89495 0.0
H2154 H 0.48138 0.6675 0.87816 0.0
H2155 H 0.47609 0.66383 0.91042 0.0
H2156 H 0.43226 0.64549 0.89159 0.0
H2157 H 0.54736 0.58171 0.87239 0.0
H2158 H 0.51985 0.53113 0.88367 0.0
H2159 H 0.54596 0.57253 0.90423 0.0
loop_
_geom_bond_atom_site_label_1
_geom_bond_atom_site_label_2
_geom_bond_distance
_geom_bond_site_symmetry_2
_ccdc_geom_bond_type
Tb0 N31 2.660 . S
Tb0 N38 2.600 . S
Tb0 O44 2.546 . S
Tb0 O45 2.610 . S
Tb0 O47 2.320 . S
Tb0 O48 2.552 . S
Tb0 O49 2.413 . S
Tb0 O51 2.362 . S
Tb0 O52 2.421 . S
Tb0 C64 2.833 . S
C1 C4 1.432 . S
C1 C5 1.414 . S
C1 N8 1.359 . S
C2 C4 1.417 . S
C2 C6 1.432 . S
C2 C14 1.410 . S
C3 C5 1.444 . S
C3 C6 1.317 . S
C3 H26 0.929 1_545 S
C4 C1 1.432 . S
C4 C2 1.417 . S
C4 N12 1.360 . S
C5 C1 1.414 . S
C5 C3 1.444 . S
C5 C10 1.385 . S
C6 C2 1.432 . S
C6 C3 1.317 . S
C6 H18 0.930 1_545 S
C7 C9 1.392 . S
C7 C10 1.370 . S
C7 H19 0.931 . S
N8 C1 1.359 . S
N8 C9 1.327 . S
N8 Tb11 2.600 . S
C9 C7 1.392 . S
C9 N8 1.327 . S
C9 H16 0.930 . S
C10 C5 1.385 . S
C10 C7 1.370 . S
C10 H29 0.930 . S
Tb11 N8 2.600 . S
Tb11 N12 2.660 . S
Tb11 O45 2.362 . S
Tb11 O46 2.421 . S
Tb11 O50 2.546 . S
Tb11 O51 2.610 . S
Tb11 O53 2.320 . S
Tb11 O54 2.552 . S
Tb11 O55 2.413 . S
Tb11 C75 2.833 . S
N12 C4 1.360 . S
N12 Tb11 2.660 . S
N12 C13 1.305 . S
C13 N12 1.305 . S
C13 C15 1.407 . S
C13 H20 0.930 . S
C14 C2 1.410 . S
C14 C15 1.345 . S
C14 H22 0.930 . S
C15 C13 1.407 . S
C15 C14 1.345 . S
C15 H17 0.930 . S
H16 C9 0.930 . S
H17 C15 0.930 . S
H18 C6 0.930 1_565 S
H19 C7 0.931 . S
H20 C13 0.930 . S
H21 C35 0.930 . S
H22 C14 0.930 . S
H23 C41 0.930 . S
H24 C32 0.930 . S
H25 C39 0.931 . S
H26 C3 0.929 1_565 S
H27 C33 0.930 . S
H28 C66 0.930 . S
H29 C10 0.930 . S
H30 C65 0.929 . S
N31 Tb0 2.660 . S
N31 C32 1.305 . S
N31 C36 1.360 . S
C32 H24 0.930 . S
C32 N31 1.305 . S
C32 C35 1.407 . S
C33 H27 0.930 . S
C33 C34 1.410 . S
C33 C35 1.345 . S
C34 C33 1.410 . S
C34 C36 1.417 . S
C34 C66 1.432 . S
C35 H21 0.930 . S
C35 C32 1.407 . S
C35 C33 1.345 . S
C36 N31 1.360 . S
C36 C34 1.417 . S
C36 C40 1.432 . S
H37 C42 0.930 . S
N38 Tb0 2.600 . S
N38 C40 1.359 . S
N38 C41 1.327 . S
C39 H25 0.931 . S
C39 C41 1.392 . S
C39 C42 1.370 . S
C40 C36 1.432 . S
C40 N38 1.359 . S
C40 C43 1.414 . S
C41 H23 0.930 . S
C41 N38 1.327 . S
C41 C39 1.392 . S
C42 H37 0.930 . S
C42 C39 1.370 . S
C42 C43 1.385 . S
C43 C40 1.414 . S
C43 C42 1.385 . S
C43 C65 1.444 . S
O44 Tb0 2.546 . S
O44 C64 1.251 . S
O45 Tb0 2.610 . S
O45 Tb11 2.362 . S
O45 C56 1.283 . S
O46 Tb11 2.421 . S
O46 C63 1.262 . S
O47 Tb0 2.320 . S
O47 C63 1.260 . S
O48 Tb0 2.552 . S
O48 C56 1.243 . S
O49 Tb0 2.413 . S
O49 C64 1.256 . S
O50 Tb11 2.546 . S
O50 C75 1.251 . S
O51 Tb0 2.362 . S
O51 Tb11 2.610 . S
O51 C67 1.283 . S
O52 Tb0 2.421 . S
O52 C74 1.262 . S
O53 Tb11 2.320 . S
O53 C74 1.260 . S
O54 Tb11 2.552 . S
O54 C67 1.243 . S
O55 Tb11 2.413 . S
O55 C75 1.256 . S
C56 O45 1.283 . S
C56 O48 1.243 . S
C57 C59 1.382 . S
C57 C61 1.393 . S
C57 C64 1.500 . S
C58 C59 1.400 . S
C58 C60 1.384 . S
C59 C57 1.382 . S
C59 C58 1.400 . S
C59 H76 0.930 . S
C60 C58 1.384 . S
C60 C62 1.392 . S
C60 H77 0.931 . S
C61 C57 1.393 . S
C61 C62 1.401 . S
C61 H78 0.930 . S
C62 C60 1.392 . S
C62 C61 1.401 . S
C62 H79 0.930 . S
C63 O46 1.262 . S
C63 O47 1.260 . S
C64 Tb0 2.833 . S
C64 O44 1.251 . S
C64 O49 1.256 . S
C64 C57 1.500 . S
C65 H30 0.929 . S
C65 C43 1.444 . S
C65 C66 1.317 . S
C66 H28 0.930 . S
C66 C34 1.432 . S
C66 C65 1.317 . S
C67 O51 1.283 . S
C67 O54 1.243 . S
C68 C69 1.382 . S
C68 C72 1.393 . S
C68 C75 1.500 1_565 S
C69 C68 1.382 . S
C69 C70 1.400 . S
C69 H80 0.930 . S
C70 C69 1.400 . S
C70 C71 1.384 . S
C71 C70 1.384 . S
C71 C73 1.392 . S
C71 H81 0.931 . S
C72 C68 1.393 . S
C72 C73 1.401 . S
C72 H82 0.930 . S
C73 C71 1.392 . S
C73 C72 1.401 . S
C73 H83 0.930 . S
C74 O52 1.262 . S
C74 O53 1.260 . S
C75 Tb11 2.833 . S
C75 O50 1.251 . S
C75 O55 1.256 . S
C75 C68 1.500 1_545 S
H76 C59 0.930 . S
H77 C60 0.931 . S
H78 C61 0.930 . S
H79 C62 0.930 . S
H80 C69 0.930 . S
H81 C71 0.931 . S
H82 C72 0.930 . S
H83 C73 0.930 . S
Tb84 N115 2.660 . S
Tb84 N122 2.600 . S
Tb84 O128 2.546 . S
Tb84 O129 2.610 . S
Tb84 O131 2.320 . S
Tb84 O132 2.552 . S
Tb84 O133 2.413 . S
Tb84 O135 2.362 . S
Tb84 O136 2.421 . S
Tb84 C148 2.833 . S
C85 C88 1.432 . S
C85 C89 1.414 . S
C85 N92 1.359 . S
C86 C88 1.417 . S
C86 C90 1.432 1_655 S
C86 C98 1.410 . S
C87 C89 1.444 1_455 S
C87 C90 1.317 . S
C87 H110 0.929 . S
C88 C85 1.432 . S
C88 C86 1.417 . S
C88 N96 1.360 . S
C89 C85 1.414 . S
C89 C87 1.444 1_655 S
C89 C94 1.385 . S
C90 C86 1.432 1_455 S
C90 C87 1.317 . S
C90 H102 0.930 . S
C91 C93 1.392 . S
C91 C94 1.370 . S
C91 H103 0.931 . S
N92 C85 1.359 . S
N92 C93 1.327 . S
N92 Tb95 2.600 . S
C93 C91 1.392 . S
C93 N92 1.327 . S
C93 H100 0.930 . S
C94 C89 1.385 . S
C94 C91 1.370 . S
C94 H113 0.930 . S
Tb95 N92 2.600 . S
Tb95 N96 2.660 . S
Tb95 O129 2.362 . S
Tb95 O130 2.421 . S
Tb95 O134 2.546 . S
Tb95 O135 2.610 . S
Tb95 O137 2.320 . S
Tb95 O138 2.552 . S
Tb95 O139 2.413 . S
Tb95 C159 2.833 . S
N96 C88 1.360 . S
N96 Tb95 2.660 . S
N96 C97 1.305 . S
C97 N96 1.305 . S
C97 C99 1.407 . S
C97 H104 0.930 . S
C98 C86 1.410 . S
C98 C99 1.345 . S
C98 H106 0.930 1_655 S
C99 C97 1.407 . S
C99 C98 1.345 . S
C99 H101 0.930 . S
H100 C93 0.930 . S
H101 C99 0.930 . S
H102 C90 0.930 . S
H103 C91 0.931 . S
H104 C97 0.930 . S
H105 C119 0.930 . S
H106 C98 0.930 1_455 S
H107 C125 0.930 . S
H108 C116 0.930 . S
H109 C123 0.931 . S
H110 C87 0.929 . S
H111 C117 0.930 . S
H112 C150 0.930 . S
H113 C94 0.930 . S
H114 C149 0.929 . S
N115 Tb84 2.660 . S
N115 C116 1.305 . S
N115 C120 1.360 . S
C116 H108 0.930 . S
C116 N115 1.305 . S
C116 C119 1.407 . S
C117 H111 0.930 . S
C117 C118 1.410 . S
C117 C119 1.345 . S
C118 C117 1.410 . S
C118 C120 1.417 . S
C118 C150 1.432 . S
C119 H105 0.930 . S
C119 C116 1.407 . S
C119 C117 1.345 . S
C120 N115 1.360 . S
C120 C118 1.417 . S
C120 C124 1.432 . S
H121 C126 0.930 . S
N122 Tb84 2.600 . S
N122 C124 1.359 . S
N122 C125 1.327 . S
C123 H109 0.931 . S
C123 C125 1.392 . S
C123 C126 1.370 . S
C124 C120 1.432 . S
C124 N122 1.359 . S
C124 C127 1.414 . S
C125 H107 0.930 . S
C125 N122 1.327 . S
C125 C123 1.392 . S
C126 H121 0.930 . S
C126 C123 1.370 . S
C126 C127 1.385 . S
C127 C124 1.414 . S
C127 C126 1.385 . S
C127 C149 1.444 . S
O128 Tb84 2.546 . S
O128 C148 1.251 . S
O129 Tb84 2.610 . S
O129 Tb95 2.362 . S
O129 C140 1.283 . S
O130 Tb95 2.421 . S
O130 C147 1.262 . S
O131 Tb84 2.320 . S
O131 C147 1.260 . S
O132 Tb84 2.552 . S
O132 C140 1.243 . S
O133 Tb84 2.413 . S
O133 C148 1.256 . S
O134 Tb95 2.546 . S
O134 C159 1.251 . S
O135 Tb84 2.362 . S
O135 Tb95 2.610 . S
O135 C151 1.283 . S
O136 Tb84 2.421 . S
O136 C158 1.262 . S
O137 Tb95 2.320 . S
O137 C158 1.260 . S
O138 Tb95 2.552 . S
O138 C151 1.243 . S
O139 Tb95 2.413 . S
O139 C159 1.256 . S
C140 O129 1.283 . S
C140 O132 1.243 . S
C141 C143 1.382 . S
C141 C145 1.393 . S
C141 C148 1.500 . S
C142 C143 1.400 . S
C142 C144 1.384 . S
C143 C141 1.382 . S
C143 C142 1.400 . S
C143 H160 0.930 . S
C144 C142 1.384 . S
C144 C146 1.392 . S
C144 H161 0.931 . S
C145 C141 1.393 . S
C145 C146 1.401 . S
C145 H162 0.930 . S
C146 C144 1.392 . S
C146 C145 1.401 . S
C146 H163 0.930 . S
C147 O130 1.262 . S
C147 O131 1.260 . S
C148 Tb84 2.833 . S
C148 O128 1.251 . S
C148 O133 1.256 . S
C148 C141 1.500 . S
C149 H114 0.929 . S
C149 C127 1.444 . S
C149 C150 1.317 . S
C150 H112 0.930 . S
C150 C118 1.432 . S
C150 C149 1.317 . S
C151 O135 1.283 . S
C151 O138 1.243 . S
C152 C153 1.382 . S
C152 C156 1.393 . S
C152 C159 1.500 . S
C153 C152 1.382 . S
C153 C154 1.400 . S
C153 H164 0.930 . S
C154 C153 1.400 . S
C154 C155 1.384 . S
C155 C154 1.384 . S
C155 C157 1.392 . S
C155 H165 0.931 . S
C156 C152 1.393 . S
C156 C157 1.401 . S
C156 H166 0.930 . S
C157 C155 1.392 . S
C157 C156 1.401 . S
C157 H167 0.930 . S
C158 O136 1.262 . S
C158 O137 1.260 . S
C159 Tb95 2.833 . S
C159 O134 1.251 . S
C159 O139 1.256 . S
C159 C152 1.500 . S
H160 C143 0.930 . S
H161 C144 0.931 . S
H162 C145 0.930 . S
H163 C146 0.930 . S
H164 C153 0.930 . S
H165 C155 0.931 . S
H166 C156 0.930 . S
H167 C157 0.930 . S
Tb168 N199 2.660 . S
Tb168 N206 2.600 . S
Tb168 O212 2.546 . S
Tb168 O213 2.610 . S
Tb168 O215 2.320 . S
Tb168 O216 2.552 . S
Tb168 O217 2.413 . S
Tb168 O219 2.362 . S
Tb168 O220 2.421 . S
Tb168 C232 2.833 . S
C169 C172 1.432 . S
C169 C173 1.414 . S
C169 N176 1.359 . S
C170 C172 1.417 . S
C170 C174 1.432 . S
C170 C182 1.410 . S
C171 C173 1.444 . S
C171 C174 1.317 . S
C171 H194 0.929 1_655 S
C172 C169 1.432 . S
C172 C170 1.417 . S
C172 N180 1.360 . S
C173 C169 1.414 . S
C173 C171 1.444 . S
C173 C178 1.385 . S
C174 C170 1.432 . S
C174 C171 1.317 . S
C174 H186 0.930 1_655 S
C175 C177 1.392 . S
C175 C178 1.370 . S
C175 H187 0.931 . S
N176 C169 1.359 . S
N176 C177 1.327 . S
N176 Tb179 2.600 . S
C177 C175 1.392 . S
C177 N176 1.327 . S
C177 H184 0.930 . S
C178 C173 1.385 . S
C178 C175 1.370 . S
C178 H197 0.930 . S
Tb179 N176 2.600 . S
Tb179 N180 2.660 . S
Tb179 O213 2.362 . S
Tb179 O214 2.421 . S
Tb179 O218 2.546 . S
Tb179 O219 2.610 . S
Tb179 O221 2.320 . S
Tb179 O222 2.552 . S
Tb179 O223 2.413 . S
Tb179 C243 2.833 . S
N180 C172 1.360 . S
N180 Tb179 2.660 . S
N180 C181 1.305 . S
C181 N180 1.305 . S
C181 C183 1.407 . S
C181 H188 0.930 . S
C182 C170 1.410 . S
C182 C183 1.345 . S
C182 H190 0.930 . S
C183 C181 1.407 . S
C183 C182 1.345 . S
C183 H185 0.930 . S
H184 C177 0.930 . S
H185 C183 0.930 . S
H186 C174 0.930 1_455 S
H187 C175 0.931 . S
H188 C181 0.930 . S
H189 C203 0.930 . S
H190 C182 0.930 . S
H191 C209 0.930 . S
H192 C200 0.930 . S
H193 C207 0.931 . S
H194 C171 0.929 1_455 S
H195 C201 0.930 1_565 S
H196 C234 0.930 . S
H197 C178 0.930 . S
H198 C233 0.929 . S
N199 Tb168 2.660 . S
N199 C200 1.305 . S
N199 C204 1.360 . S
C200 H192 0.930 . S
C200 N199 1.305 . S
C200 C203 1.407 . S
C201 H195 0.930 1_545 S
C201 C202 1.410 . S
C201 C203 1.345 . S
C202 C201 1.410 . S
C202 C204 1.417 . S
C202 C234 1.432 1_545 S
C203 H189 0.930 . S
C203 C200 1.407 . S
C203 C201 1.345 . S
C204 N199 1.360 . S
C204 C202 1.417 . S
C204 C208 1.432 . S
H205 C210 0.930 . S
N206 Tb168 2.600 . S
N206 C208 1.359 . S
N206 C209 1.327 . S
C207 H193 0.931 . S
C207 C209 1.392 . S
C207 C210 1.370 . S
C208 C204 1.432 . S
C208 N206 1.359 . S
C208 C211 1.414 . S
C209 H191 0.930 . S
C209 N206 1.327 . S
C209 C207 1.392 . S
C210 H205 0.930 . S
C210 C207 1.370 . S
C210 C211 1.385 . S
C211 C208 1.414 . S
C211 C210 1.385 . S
C211 C233 1.444 1_545 S
O212 Tb168 2.546 . S
O212 C232 1.251 . S
O213 Tb168 2.610 . S
O213 Tb179 2.362 . S
O213 C224 1.283 . S
O214 Tb179 2.421 . S
O214 C231 1.262 . S
O215 Tb168 2.320 . S
O215 C231 1.260 . S
O216 Tb168 2.552 . S
O216 C224 1.243 . S
O217 Tb168 2.413 . S
O217 C232 1.256 . S
O218 Tb179 2.546 . S
O218 C243 1.251 . S
O219 Tb168 2.362 . S
O219 Tb179 2.610 . S
O219 C235 1.283 . S
O220 Tb168 2.421 . S
O220 C242 1.262 . S
O221 Tb179 2.320 . S
O221 C242 1.260 . S
O222 Tb179 2.552 . S
O222 C235 1.243 . S
O223 Tb179 2.413 . S
O223 C243 1.256 . S
C224 O213 1.283 . S
C224 O216 1.243 . S
C225 C227 1.382 . S
C225 C229 1.393 . S
C225 C232 1.500 . S
C226 C227 1.400 . S
C226 C228 1.384 . S
C227 C225 1.382 . S
C227 C226 1.400 . S
C227 H244 0.930 . S
C228 C226 1.384 . S
C228 C230 1.392 . S
C228 H245 0.931 . S
C229 C225 1.393 . S
C229 C230 1.401 . S
C229 H246 0.930 . S
C230 C228 1.392 . S
C230 C229 1.401 . S
C230 H247 0.930 . S
C231 O214 1.262 . S
C231 O215 1.260 . S
C232 Tb168 2.833 . S
C232 O212 1.251 . S
C232 O217 1.256 . S
C232 C225 1.500 . S
C233 H198 0.929 . S
C233 C211 1.444 1_565 S
C233 C234 1.317 . S
C234 H196 0.930 . S
C234 C202 1.432 1_565 S
C234 C233 1.317 . S
C235 O219 1.283 . S
C235 O222 1.243 . S
C236 C237 1.382 . S
C236 C240 1.393 . S
C236 C243 1.500 1_455 S
C237 C236 1.382 . S
C237 C238 1.400 . S
C237 H248 0.930 . S
C238 C237 1.400 . S
C238 C239 1.384 . S
C239 C238 1.384 . S
C239 C241 1.392 . S
C239 H249 0.931 . S
C240 C236 1.393 . S
C240 C241 1.401 . S
C240 H250 0.930 . S
C241 C239 1.392 . S
C241 C240 1.401 . S
C241 H251 0.930 . S
C242 O220 1.262 . S
C242 O221 1.260 . S
C243 Tb179 2.833 . S
C243 O218 1.251 . S
C243 O223 1.256 . S
C243 C236 1.500 1_655 S
H244 C227 0.930 . S
H245 C228 0.931 . S
H246 C229 0.930 . S
H247 C230 0.930 . S
H248 C237 0.930 . S
H249 C239 0.931 . S
H250 C240 0.930 . S
H251 C241 0.930 . S
Tb252 N283 2.660 . S
Tb252 N290 2.600 . S
Tb252 O296 2.546 . S
Tb252 O297 2.610 . S
Tb252 O299 2.320 . S
Tb252 O300 2.552 . S
Tb252 O301 2.413 . S
Tb252 O303 2.362 . S
Tb252 O304 2.421 . S
Tb252 C316 2.833 . S
C253 C256 1.432 . S
C253 C257 1.414 . S
C253 N260 1.359 . S
C254 C256 1.417 . S
C254 C258 1.432 . S
C254 C266 1.410 . S
C255 C257 1.444 . S
C255 C258 1.317 . S
C255 H278 0.929 . S
C256 C253 1.432 . S
C256 C254 1.417 . S
C256 N264 1.360 . S
C257 C253 1.414 . S
C257 C255 1.444 . S
C257 C262 1.385 . S
C258 C254 1.432 . S
C258 C255 1.317 . S
C258 H270 0.930 . S
C259 C261 1.392 . S
C259 C262 1.370 . S
C259 H271 0.931 . S
N260 C253 1.359 . S
N260 C261 1.327 . S
N260 Tb263 2.600 . S
C261 C259 1.392 . S
C261 N260 1.327 . S
C261 H268 0.930 . S
C262 C257 1.385 . S
C262 C259 1.370 . S
C262 H281 0.930 . S
Tb263 N260 2.600 . S
Tb263 N264 2.660 . S
Tb263 O297 2.362 . S
Tb263 O298 2.421 . S
Tb263 O302 2.546 . S
Tb263 O303 2.610 . S
Tb263 O305 2.320 . S
Tb263 O306 2.552 . S
Tb263 O307 2.413 . S
Tb263 C327 2.833 . S
N264 C256 1.360 . S
N264 Tb263 2.660 . S
N264 C265 1.305 . S
C265 N264 1.305 . S
C265 C267 1.407 . S
C265 H272 0.930 . S
C266 C254 1.410 . S
C266 C267 1.345 . S
C266 H274 0.930 . S
C267 C265 1.407 . S
C267 C266 1.345 . S
C267 H269 0.930 . S
H268 C261 0.930 . S
H269 C267 0.930 . S
H270 C258 0.930 . S
H271 C259 0.931 . S
H272 C265 0.930 . S
H273 C287 0.930 . S
H274 C266 0.930 . S
H275 C293 0.930 . S
H276 C284 0.930 . S
H277 C291 0.931 . S
H278 C255 0.929 . S
H279 C285 0.930 . S
H280 C318 0.930 1_565 S
H281 C262 0.930 . S
H282 C317 0.929 1_565 S
N283 Tb252 2.660 . S
N283 C284 1.305 . S
N283 C288 1.360 . S
C284 H276 0.930 . S
C284 N283 1.305 . S
C284 C287 1.407 . S
C285 H279 0.930 . S
C285 C286 1.410 . S
C285 C287 1.345 . S
C286 C285 1.410 . S
C286 C288 1.417 . S
C286 C318 1.432 . S
C287 H273 0.930 . S
C287 C284 1.407 . S
C287 C285 1.345 . S
C288 N283 1.360 . S
C288 C286 1.417 . S
C288 C292 1.432 . S
H289 C294 0.930 . S
N290 Tb252 2.600 . S
N290 C292 1.359 . S
N290 C293 1.327 . S
C291 H277 0.931 . S
C291 C293 1.392 . S
C291 C294 1.370 . S
C292 C288 1.432 . S
C292 N290 1.359 . S
C292 C295 1.414 . S
C293 H275 0.930 . S
C293 N290 1.327 . S
C293 C291 1.392 . S
C294 H289 0.930 . S
C294 C291 1.370 . S
C294 C295 1.385 . S
C295 C292 1.414 . S
C295 C294 1.385 . S
C295 C317 1.444 . S
O296 Tb252 2.546 . S
O296 C316 1.251 . S
O297 Tb252 2.610 . S
O297 Tb263 2.362 . S
O297 C308 1.283 . S
O298 Tb263 2.421 . S
O298 C315 1.262 . S
O299 Tb252 2.320 . S
O299 C315 1.260 . S
O300 Tb252 2.552 . S
O300 C308 1.243 . S
O301 Tb252 2.413 . S
O301 C316 1.256 . S
O302 Tb263 2.546 . S
O302 C327 1.251 . S
O303 Tb252 2.362 . S
O303 Tb263 2.610 . S
O303 C319 1.283 . S
O304 Tb252 2.421 . S
O304 C326 1.262 . S
O305 Tb263 2.320 . S
O305 C326 1.260 . S
O306 Tb263 2.552 . S
O306 C319 1.243 . S
O307 Tb263 2.413 . S
O307 C327 1.256 . S
C308 O297 1.283 . S
C308 O300 1.243 . S
C309 C311 1.382 . S
C309 C313 1.393 . S
C309 C316 1.500 1_565 S
C310 C311 1.400 . S
C310 C312 1.384 . S
C311 C309 1.382 . S
C311 C310 1.400 . S
C311 H328 0.930 . S
C312 C310 1.384 . S
C312 C314 1.392 . S
C312 H329 0.931 . S
C313 C309 1.393 . S
C313 C314 1.401 . S
C313 H330 0.930 . S
C314 C312 1.392 . S
C314 C313 1.401 . S
C314 H331 0.930 . S
C315 O298 1.262 . S
C315 O299 1.260 . S
C316 Tb252 2.833 . S
C316 O296 1.251 . S
C316 O301 1.256 . S
C316 C309 1.500 1_545 S
C317 H282 0.929 1_545 S
C317 C295 1.444 . S
C317 C318 1.317 . S
C318 H280 0.930 1_545 S
C318 C286 1.432 . S
C318 C317 1.317 . S
C319 O303 1.283 . S
C319 O306 1.243 . S
C320 C321 1.382 . S
C320 C324 1.393 . S
C320 C327 1.500 . S
C321 C320 1.382 . S
C321 C322 1.400 . S
C321 H332 0.930 . S
C322 C321 1.400 . S
C322 C323 1.384 . S
C323 C322 1.384 . S
C323 C325 1.392 . S
C323 H333 0.931 . S
C324 C320 1.393 . S
C324 C325 1.401 . S
C324 H334 0.930 . S
C325 C323 1.392 . S
C325 C324 1.401 . S
C325 H335 0.930 . S
C326 O304 1.262 . S
C326 O305 1.260 . S
C327 Tb263 2.833 . S
C327 O302 1.251 . S
C327 O307 1.256 . S
C327 C320 1.500 . S
H328 C311 0.930 . S
H329 C312 0.931 . S
H330 C313 0.930 . S
H331 C314 0.930 . S
H332 C321 0.930 . S
H333 C323 0.931 . S
H334 C324 0.930 . S
H335 C325 0.930 . S
Tb336 N367 2.660 . S
Tb336 N374 2.600 . S
Tb336 O380 2.546 . S
Tb336 O381 2.610 . S
Tb336 O383 2.320 . S
Tb336 O384 2.552 . S
Tb336 O385 2.413 . S
Tb336 O387 2.362 . S
Tb336 O388 2.421 . S
Tb336 C400 2.833 . S
C337 C340 1.432 . S
C337 C341 1.414 . S
C337 N344 1.359 . S
C338 C340 1.417 . S
C338 C342 1.432 . S
C338 C350 1.410 . S
C339 C341 1.444 . S
C339 C342 1.317 . S
C339 H362 0.929 . S
C340 C337 1.432 . S
C340 C338 1.417 . S
C340 N348 1.360 . S
C341 C337 1.414 . S
C341 C339 1.444 . S
C341 C346 1.385 . S
C342 C338 1.432 . S
C342 C339 1.317 . S
C342 H354 0.930 . S
C343 C345 1.392 . S
C343 C346 1.370 . S
C343 H355 0.931 . S
N344 C337 1.359 . S
N344 C345 1.327 . S
N344 Tb347 2.600 . S
C345 C343 1.392 . S
C345 N344 1.327 . S
C345 H352 0.930 . S
C346 C341 1.385 . S
C346 C343 1.370 . S
C346 H365 0.930 . S
Tb347 N344 2.600 . S
Tb347 N348 2.660 . S
Tb347 O381 2.362 . S
Tb347 O382 2.421 . S
Tb347 O386 2.546 . S
Tb347 O387 2.610 . S
Tb347 O389 2.320 . S
Tb347 O390 2.552 . S
Tb347 O391 2.413 . S
Tb347 C411 2.833 . S
N348 C340 1.360 . S
N348 Tb347 2.660 . S
N348 C349 1.305 . S
C349 N348 1.305 . S
C349 C351 1.407 . S
C349 H356 0.930 . S
C350 C338 1.410 . S
C350 C351 1.345 . S
C350 H358 0.930 . S
C351 C349 1.407 . S
C351 C350 1.345 . S
C351 H353 0.930 . S
H352 C345 0.930 . S
H353 C351 0.930 . S
H354 C342 0.930 . S
H355 C343 0.931 . S
H356 C349 0.930 . S
H357 C371 0.930 . S
H358 C350 0.930 . S
H359 C377 0.930 . S
H360 C368 0.930 . S
H361 C375 0.931 . S
H362 C339 0.929 . S
H363 C369 0.930 1_455 S
H364 C402 0.930 . S
H365 C346 0.930 . S
H366 C401 0.929 . S
N367 Tb336 2.660 . S
N367 C368 1.305 . S
N367 C372 1.360 . S
C368 H360 0.930 . S
C368 N367 1.305 . S
C368 C371 1.407 . S
C369 H363 0.930 1_655 S
C369 C370 1.410 . S
C369 C371 1.345 . S
C370 C369 1.410 . S
C370 C372 1.417 . S
C370 C402 1.432 1_655 S
C371 H357 0.930 . S
C371 C368 1.407 . S
C371 C369 1.345 . S
C372 N367 1.360 . S
C372 C370 1.417 . S
C372 C376 1.432 . S
H373 C378 0.930 . S
N374 Tb336 2.600 . S
N374 C376 1.359 . S
N374 C377 1.327 . S
C375 H361 0.931 . S
C375 C377 1.392 . S
C375 C378 1.370 . S
C376 C372 1.432 . S
C376 N374 1.359 . S
C376 C379 1.414 . S
C377 H359 0.930 . S
C377 N374 1.327 . S
C377 C375 1.392 . S
C378 H373 0.930 . S
C378 C375 1.370 . S
C378 C379 1.385 . S
C379 C376 1.414 . S
C379 C378 1.385 . S
C379 C401 1.444 1_655 S
O380 Tb336 2.546 . S
O380 C400 1.251 . S
O381 Tb336 2.610 . S
O381 Tb347 2.362 . S
O381 C392 1.283 . S
O382 Tb347 2.421 . S
O382 C399 1.262 . S
O383 Tb336 2.320 . S
O383 C399 1.260 . S
O384 Tb336 2.552 . S
O384 C392 1.243 . S
O385 Tb336 2.413 . S
O385 C400 1.256 . S
O386 Tb347 2.546 . S
O386 C411 1.251 . S
O387 Tb336 2.362 . S
O387 Tb347 2.610 . S
O387 C403 1.283 . S
O388 Tb336 2.421 . S
O388 C410 1.262 . S
O389 Tb347 2.320 . S
O389 C410 1.260 . S
O390 Tb347 2.552 . S
O390 C403 1.243 . S
O391 Tb347 2.413 . S
O391 C411 1.256 . S
C392 O381 1.283 . S
C392 O384 1.243 . S
C393 C395 1.382 . S
C393 C397 1.393 . S
C393 C400 1.500 . S
C394 C395 1.400 . S
C394 C396 1.384 . S
C395 C393 1.382 . S
C395 C394 1.400 . S
C395 H412 0.930 . S
C396 C394 1.384 . S
C396 C398 1.392 . S
C396 H413 0.931 . S
C397 C393 1.393 . S
C397 C398 1.401 . S
C397 H414 0.930 . S
C398 C396 1.392 . S
C398 C397 1.401 . S
C398 H415 0.930 . S
C399 O382 1.262 . S
C399 O383 1.260 . S
C400 Tb336 2.833 . S
C400 O380 1.251 . S
C400 O385 1.256 . S
C400 C393 1.500 . S
C401 H366 0.929 . S
C401 C379 1.444 1_455 S
C401 C402 1.317 . S
C402 H364 0.930 . S
C402 C370 1.432 1_455 S
C402 C401 1.317 . S
C403 O387 1.283 . S
C403 O390 1.243 . S
C404 C405 1.382 . S
C404 C408 1.393 . S
C404 C411 1.500 . S
C405 C404 1.382 . S
C405 C406 1.400 . S
C405 H416 0.930 . S
C406 C405 1.400 . S
C406 C407 1.384 . S
C407 C406 1.384 . S
C407 C409 1.392 . S
C407 H417 0.931 . S
C408 C404 1.393 . S
C408 C409 1.401 . S
C408 H418 0.930 . S
C409 C407 1.392 . S
C409 C408 1.401 . S
C409 H419 0.930 . S
C410 O388 1.262 . S
C410 O389 1.260 . S
C411 Tb347 2.833 . S
C411 O386 1.251 . S
C411 O391 1.256 . S
C411 C404 1.500 . S
H412 C395 0.930 . S
H413 C396 0.931 . S
H414 C397 0.930 . S
H415 C398 0.930 . S
H416 C405 0.930 . S
H417 C407 0.931 . S
H418 C408 0.930 . S
H419 C409 0.930 . S
Tb420 N451 2.660 . S
Tb420 N458 2.600 . S
Tb420 O464 2.546 . S
Tb420 O465 2.610 . S
Tb420 O467 2.320 . S
Tb420 O468 2.552 . S
Tb420 O469 2.413 . S
Tb420 O471 2.362 . S
Tb420 O472 2.421 . S
Tb420 C484 2.833 . S
C421 C424 1.432 . S
C421 C425 1.414 . S
C421 N428 1.359 . S
C422 C424 1.417 . S
C422 C426 1.432 1_545 S
C422 C434 1.410 . S
C423 C425 1.444 1_565 S
C423 C426 1.317 . S
C423 H446 0.929 . S
C424 C421 1.432 . S
C424 C422 1.417 . S
C424 N432 1.360 . S
C425 C421 1.414 . S
C425 C423 1.444 1_545 S
C425 C430 1.385 . S
C426 C422 1.432 1_565 S
C426 C423 1.317 . S
C426 H438 0.930 . S
C427 C429 1.392 . S
C427 C430 1.370 . S
C427 H439 0.931 . S
N428 C421 1.359 . S
N428 C429 1.327 . S
N428 Tb431 2.600 . S
C429 C427 1.392 . S
C429 N428 1.327 . S
C429 H436 0.930 . S
C430 C425 1.385 . S
C430 C427 1.370 . S
C430 H449 0.930 . S
Tb431 N428 2.600 . S
Tb431 N432 2.660 . S
Tb431 O465 2.362 . S
Tb431 O466 2.421 . S
Tb431 O470 2.546 . S
Tb431 O471 2.610 . S
Tb431 O473 2.320 . S
Tb431 O474 2.552 . S
Tb431 O475 2.413 . S
Tb431 C495 2.833 . S
N432 C424 1.360 . S
N432 Tb431 2.660 . S
N432 C433 1.305 . S
C433 N432 1.305 . S
C433 C435 1.407 . S
C433 H440 0.930 . S
C434 C422 1.410 . S
C434 C435 1.345 . S
C434 H442 0.930 1_545 S
C435 C433 1.407 . S
C435 C434 1.345 . S
C435 H437 0.930 . S
H436 C429 0.930 . S
H437 C435 0.930 . S
H438 C426 0.930 . S
H439 C427 0.931 . S
H440 C433 0.930 . S
H441 C455 0.930 . S
H442 C434 0.930 1_565 S
H443 C461 0.930 . S
H444 C452 0.930 . S
H445 C459 0.931 . S
H446 C423 0.929 . S
H447 C453 0.930 . S
H448 C486 0.930 1_455 S
H449 C430 0.930 . S
H450 C485 0.929 1_455 S
N451 Tb420 2.660 . S
N451 C452 1.305 . S
N451 C456 1.360 . S
C452 H444 0.930 . S
C452 N451 1.305 . S
C452 C455 1.407 . S
C453 H447 0.930 . S
C453 C454 1.410 . S
C453 C455 1.345 . S
C454 C453 1.410 . S
C454 C456 1.417 . S
C454 C486 1.432 . S
C455 H441 0.930 . S
C455 C452 1.407 . S
C455 C453 1.345 . S
C456 N451 1.360 . S
C456 C454 1.417 . S
C456 C460 1.432 . S
H457 C462 0.930 . S
N458 Tb420 2.600 . S
N458 C460 1.359 . S
N458 C461 1.327 . S
C459 H445 0.931 . S
C459 C461 1.392 . S
C459 C462 1.370 . S
C460 C456 1.432 . S
C460 N458 1.359 . S
C460 C463 1.414 . S
C461 H443 0.930 . S
C461 N458 1.327 . S
C461 C459 1.392 . S
C462 H457 0.930 . S
C462 C459 1.370 . S
C462 C463 1.385 . S
C463 C460 1.414 . S
C463 C462 1.385 . S
C463 C485 1.444 . S
O464 Tb420 2.546 . S
O464 C484 1.251 . S
O465 Tb420 2.610 . S
O465 Tb431 2.362 . S
O465 C476 1.283 . S
O466 Tb431 2.421 . S
O466 C483 1.262 . S
O467 Tb420 2.320 . S
O467 C483 1.260 . S
O468 Tb420 2.552 . S
O468 C476 1.243 . S
O469 Tb420 2.413 . S
O469 C484 1.256 . S
O470 Tb431 2.546 . S
O470 C495 1.251 . S
O471 Tb420 2.362 . S
O471 Tb431 2.610 . S
O471 C487 1.283 . S
O472 Tb420 2.421 . S
O472 C494 1.262 . S
O473 Tb431 2.320 . S
O473 C494 1.260 . S
O474 Tb431 2.552 . S
O474 C487 1.243 . S
O475 Tb431 2.413 . S
O475 C495 1.256 . S
C476 O465 1.283 . S
C476 O468 1.243 . S
C477 C479 1.382 . S
C477 C481 1.393 . S
C477 C484 1.500 1_455 S
C478 C479 1.400 . S
C478 C480 1.384 . S
C479 C477 1.382 . S
C479 C478 1.400 . S
C479 H496 0.930 . S
C480 C478 1.384 . S
C480 C482 1.392 . S
C480 H497 0.931 . S
C481 C477 1.393 . S
C481 C482 1.401 . S
C481 H498 0.930 . S
C482 C480 1.392 . S
C482 C481 1.401 . S
C482 H499 0.930 . S
C483 O466 1.262 . S
C483 O467 1.260 . S
C484 Tb420 2.833 . S
C484 O464 1.251 . S
C484 O469 1.256 . S
C484 C477 1.500 1_655 S
C485 H450 0.929 1_655 S
C485 C463 1.444 . S
C485 C486 1.317 . S
C486 H448 0.930 1_655 S
C486 C454 1.432 . S
C486 C485 1.317 . S
C487 O471 1.283 . S
C487 O474 1.243 . S
C488 C489 1.382 . S
C488 C492 1.393 . S
C488 C495 1.500 . S
C489 C488 1.382 . S
C489 C490 1.400 . S
C489 H500 0.930 . S
C490 C489 1.400 . S
C490 C491 1.384 . S
C491 C490 1.384 . S
C491 C493 1.392 . S
C491 H501 0.931 . S
C492 C488 1.393 . S
C492 C493 1.401 . S
C492 H502 0.930 . S
C493 C491 1.392 . S
C493 C492 1.401 . S
C493 H503 0.930 . S
C494 O472 1.262 . S
C494 O473 1.260 . S
C495 Tb431 2.833 . S
C495 O470 1.251 . S
C495 O475 1.256 . S
C495 C488 1.500 . S
H496 C479 0.930 . S
H497 C480 0.931 . S
H498 C481 0.930 . S
H499 C482 0.930 . S
H500 C489 0.930 . S
H501 C491 0.931 . S
H502 C492 0.930 . S
H503 C493 0.930 . S
Tb504 N535 2.660 . S
Tb504 N542 2.600 . S
Tb504 O548 2.546 . S
Tb504 O549 2.610 . S
Tb504 O551 2.320 . S
Tb504 O552 2.552 . S
Tb504 O553 2.413 . S
Tb504 O555 2.362 . S
Tb504 O556 2.421 . S
Tb504 C568 2.833 . S
C505 C508 1.432 . S
C505 C509 1.414 . S
C505 N512 1.359 . S
C506 C508 1.417 . S
C506 C510 1.432 . S
C506 C518 1.410 . S
C507 C509 1.444 . S
C507 C510 1.317 . S
C507 H530 0.929 . S
C508 C505 1.432 . S
C508 C506 1.417 . S
C508 N516 1.360 . S
C509 C505 1.414 . S
C509 C507 1.444 . S
C509 C514 1.385 . S
C510 C506 1.432 . S
C510 C507 1.317 . S
C510 H522 0.930 . S
C511 C513 1.392 . S
C511 C514 1.370 . S
C511 H523 0.931 . S
N512 C505 1.359 . S
N512 C513 1.327 . S
N512 Tb515 2.600 . S
C513 C511 1.392 . S
C513 N512 1.327 . S
C513 H520 0.930 . S
C514 C509 1.385 . S
C514 C511 1.370 . S
C514 H533 0.930 . S
Tb515 N512 2.600 . S
Tb515 N516 2.660 . S
Tb515 O549 2.362 . S
Tb515 O550 2.421 . S
Tb515 O554 2.546 . S
Tb515 O555 2.610 . S
Tb515 O557 2.320 . S
Tb515 O558 2.552 . S
Tb515 O559 2.413 . S
Tb515 C579 2.833 . S
N516 C508 1.360 . S
N516 Tb515 2.660 . S
N516 C517 1.305 . S
C517 N516 1.305 . S
C517 C519 1.407 . S
C517 H524 0.930 . S
C518 C506 1.410 . S
C518 C519 1.345 . S
C518 H526 0.930 . S
C519 C517 1.407 . S
C519 C518 1.345 . S
C519 H521 0.930 . S
H520 C513 0.930 . S
H521 C519 0.930 . S
H522 C510 0.930 . S
H523 C511 0.931 . S
H524 C517 0.930 . S
H525 C539 0.930 . S
H526 C518 0.930 . S
H527 C545 0.930 . S
H528 C536 0.930 . S
H529 C543 0.931 . S
H530 C507 0.929 . S
H531 C537 0.930 . S
H532 C570 0.930 1_655 S
H533 C514 0.930 . S
H534 C569 0.929 1_655 S
N535 Tb504 2.660 . S
N535 C536 1.305 . S
N535 C540 1.360 . S
C536 H528 0.930 . S
C536 N535 1.305 . S
C536 C539 1.407 . S
C537 H531 0.930 . S
C537 C538 1.410 . S
C537 C539 1.345 . S
C538 C537 1.410 . S
C538 C540 1.417 . S
C538 C570 1.432 . S
C539 H525 0.930 . S
C539 C536 1.407 . S
C539 C537 1.345 . S
C540 N535 1.360 . S
C540 C538 1.417 . S
C540 C544 1.432 . S
H541 C546 0.930 . S
N542 Tb504 2.600 . S
N542 C544 1.359 . S
N542 C545 1.327 . S
C543 H529 0.931 . S
C543 C545 1.392 . S
C543 C546 1.370 . S
C544 C540 1.432 . S
C544 N542 1.359 . S
C544 C547 1.414 . S
C545 H527 0.930 . S
C545 N542 1.327 . S
C545 C543 1.392 . S
C546 H541 0.930 . S
C546 C543 1.370 . S
C546 C547 1.385 . S
C547 C544 1.414 . S
C547 C546 1.385 . S
C547 C569 1.444 . S
O548 Tb504 2.546 . S
O548 C568 1.251 . S
O549 Tb504 2.610 . S
O549 Tb515 2.362 . S
O549 C560 1.283 . S
O550 Tb515 2.421 . S
O550 C567 1.262 . S
O551 Tb504 2.320 . S
O551 C567 1.260 . S
O552 Tb504 2.552 . S
O552 C560 1.243 . S
O553 Tb504 2.413 . S
O553 C568 1.256 . S
O554 Tb515 2.546 . S
O554 C579 1.251 . S
O555 Tb504 2.362 . S
O555 Tb515 2.610 . S
O555 C571 1.283 . S
O556 Tb504 2.421 . S
O556 C578 1.262 . S
O557 Tb515 2.320 . S
O557 C578 1.260 . S
O558 Tb515 2.552 . S
O558 C571 1.243 . S
O559 Tb515 2.413 . S
O559 C579 1.256 . S
C560 O549 1.283 . S
C560 O552 1.243 . S
C561 C563 1.382 . S
C561 C565 1.393 . S
C561 C568 1.500 1_655 S
C562 C563 1.400 . S
C562 C564 1.384 . S
C563 C561 1.382 . S
C563 C562 1.400 . S
C563 H580 0.930 . S
C564 C562 1.384 . S
C564 C566 1.392 . S
C564 H581 0.931 . S
C565 C561 1.393 . S
C565 C566 1.401 . S
C565 H582 0.930 . S
C566 C564 1.392 . S
C566 C565 1.401 . S
C566 H583 0.930 . S
C567 O550 1.262 . S
C567 O551 1.260 . S
C568 Tb504 2.833 . S
C568 O548 1.251 . S
C568 O553 1.256 . S
C568 C561 1.500 1_455 S
C569 H534 0.929 1_455 S
C569 C547 1.444 . S
C569 C570 1.317 . S
C570 H532 0.930 1_455 S
C570 C538 1.432 . S
C570 C569 1.317 . S
C571 O555 1.283 . S
C571 O558 1.243 . S
C572 C573 1.382 . S
C572 C576 1.393 . S
C572 C579 1.500 . S
C573 C572 1.382 . S
C573 C574 1.400 . S
C573 H584 0.930 . S
C574 C573 1.400 . S
C574 C575 1.384 . S
C575 C574 1.384 . S
C575 C577 1.392 . S
C575 H585 0.931 . S
C576 C572 1.393 . S
C576 C577 1.401 . S
C576 H586 0.930 . S
C577 C575 1.392 . S
C577 C576 1.401 . S
C577 H587 0.930 . S
C578 O556 1.262 . S
C578 O557 1.260 . S
C579 Tb515 2.833 . S
C579 O554 1.251 . S
C579 O559 1.256 . S
C579 C572 1.500 . S
H580 C563 0.930 . S
H581 C564 0.931 . S
H582 C565 0.930 . S
H583 C566 0.930 . S
H584 C573 0.930 . S
H585 C575 0.931 . S
H586 C576 0.930 . S
H587 C577 0.930 . S
Tb588 N619 2.660 . S
Tb588 N626 2.600 . S
Tb588 O632 2.546 . S
Tb588 O633 2.610 . S
Tb588 O635 2.320 . S
Tb588 O636 2.552 . S
Tb588 O637 2.413 . S
Tb588 O639 2.362 . S
Tb588 O640 2.421 . S
Tb588 C652 2.833 . S
C589 C592 1.432 . S
C589 C593 1.414 . S
C589 N596 1.359 . S
C590 C592 1.417 . S
C590 C594 1.432 . S
C590 C602 1.410 . S
C591 C593 1.444 . S
C591 C594 1.317 . S
C591 H614 0.929 1_565 S
C592 C589 1.432 . S
C592 C590 1.417 . S
C592 N600 1.360 . S
C593 C589 1.414 . S
C593 C591 1.444 . S
C593 C598 1.385 . S
C594 C590 1.432 . S
C594 C591 1.317 . S
C594 H606 0.930 1_565 S
C595 C597 1.392 . S
C595 C598 1.370 . S
C595 H607 0.931 . S
N596 C589 1.359 . S
N596 C597 1.327 . S
N596 Tb599 2.600 . S
C597 C595 1.392 . S
C597 N596 1.327 . S
C597 H604 0.930 . S
C598 C593 1.385 . S
C598 C595 1.370 . S
C598 H617 0.930 . S
Tb599 N596 2.600 . S
Tb599 N600 2.660 . S
Tb599 O633 2.362 . S
Tb599 O634 2.421 . S
Tb599 O638 2.546 . S
Tb599 O639 2.610 . S
Tb599 O641 2.320 . S
Tb599 O642 2.552 . S
Tb599 O643 2.413 . S
Tb599 C663 2.833 . S
N600 C592 1.360 . S
N600 Tb599 2.660 . S
N600 C601 1.305 . S
C601 N600 1.305 . S
C601 C603 1.407 . S
C601 H608 0.930 . S
C602 C590 1.410 . S
C602 C603 1.345 . S
C602 H610 0.930 . S
C603 C601 1.407 . S
C603 C602 1.345 . S
C603 H605 0.930 . S
H604 C597 0.930 . S
H605 C603 0.930 . S
H606 C594 0.930 1_545 S
H607 C595 0.931 . S
H608 C601 0.930 . S
H609 C623 0.930 . S
H610 C602 0.930 . S
H611 C629 0.930 . S
H612 C620 0.930 . S
H613 C627 0.931 . S
H614 C591 0.929 1_545 S
H615 C621 0.930 1_655 S
H616 C654 0.930 . S
H617 C598 0.930 . S
H618 C653 0.929 . S
N619 Tb588 2.660 . S
N619 C620 1.305 . S
N619 C624 1.360 . S
C620 H612 0.930 . S
C620 N619 1.305 . S
C620 C623 1.407 . S
C621 H615 0.930 1_455 S
C621 C622 1.410 . S
C621 C623 1.345 . S
C622 C621 1.410 . S
C622 C624 1.417 . S
C622 C654 1.432 1_455 S
C623 H609 0.930 . S
C623 C620 1.407 . S
C623 C621 1.345 . S
C624 N619 1.360 . S
C624 C622 1.417 . S
C624 C628 1.432 . S
H625 C630 0.930 . S
N626 Tb588 2.600 . S
N626 C628 1.359 . S
N626 C629 1.327 . S
C627 H613 0.931 . S
C627 C629 1.392 . S
C627 C630 1.370 . S
C628 C624 1.432 . S
C628 N626 1.359 . S
C628 C631 1.414 . S
C629 H611 0.930 . S
C629 N626 1.327 . S
C629 C627 1.392 . S
C630 H625 0.930 . S
C630 C627 1.370 . S
C630 C631 1.385 . S
C631 C628 1.414 . S
C631 C630 1.385 . S
C631 C653 1.444 1_455 S
O632 Tb588 2.546 . S
O632 C652 1.251 . S
O633 Tb588 2.610 . S
O633 Tb599 2.362 . S
O633 C644 1.283 . S
O634 Tb599 2.421 . S
O634 C651 1.262 . S
O635 Tb588 2.320 . S
O635 C651 1.260 . S
O636 Tb588 2.552 . S
O636 C644 1.243 . S
O637 Tb588 2.413 . S
O637 C652 1.256 . S
O638 Tb599 2.546 . S
O638 C663 1.251 . S
O639 Tb588 2.362 . S
O639 Tb599 2.610 . S
O639 C655 1.283 . S
O640 Tb588 2.421 . S
O640 C662 1.262 . S
O641 Tb599 2.320 . S
O641 C662 1.260 . S
O642 Tb599 2.552 . S
O642 C655 1.243 . S
O643 Tb599 2.413 . S
O643 C663 1.256 . S
C644 O633 1.283 . S
C644 O636 1.243 . S
C645 C647 1.382 . S
C645 C649 1.393 . S
C645 C652 1.500 . S
C646 C647 1.400 . S
C646 C648 1.384 . S
C647 C645 1.382 . S
C647 C646 1.400 . S
C647 H664 0.930 . S
C648 C646 1.384 . S
C648 C650 1.392 . S
C648 H665 0.931 . S
C649 C645 1.393 . S
C649 C650 1.401 . S
C649 H666 0.930 . S
C650 C648 1.392 . S
C650 C649 1.401 . S
C650 H667 0.930 . S
C651 O634 1.262 . S
C651 O635 1.260 . S
C652 Tb588 2.833 . S
C652 O632 1.251 . S
C652 O637 1.256 . S
C652 C645 1.500 . S
C653 H618 0.929 . S
C653 C631 1.444 1_655 S
C653 C654 1.317 . S
C654 H616 0.930 . S
C654 C622 1.432 1_655 S
C654 C653 1.317 . S
C655 O639 1.283 . S
C655 O642 1.243 . S
C656 C657 1.382 . S
C656 C660 1.393 . S
C656 C663 1.500 1_545 S
C657 C656 1.382 . S
C657 C658 1.400 . S
C657 H668 0.930 . S
C658 C657 1.400 . S
C658 C659 1.384 . S
C659 C658 1.384 . S
C659 C661 1.392 . S
C659 H669 0.931 . S
C660 C656 1.393 . S
C660 C661 1.401 . S
C660 H670 0.930 . S
C661 C659 1.392 . S
C661 C660 1.401 . S
C661 H671 0.930 . S
C662 O640 1.262 . S
C662 O641 1.260 . S
C663 Tb599 2.833 . S
C663 O638 1.251 . S
C663 O643 1.256 . S
C663 C656 1.500 1_565 S
H664 C647 0.930 . S
H665 C648 0.931 . S
H666 C649 0.930 . S
H667 C650 0.930 . S
H668 C657 0.930 . S
H669 C659 0.931 . S
H670 C660 0.930 . S
H671 C661 0.930 . S
Tb672 N703 2.660 . S
Tb672 N710 2.600 . S
Tb672 O716 2.546 . S
Tb672 O717 2.610 . S
Tb672 O719 2.320 . S
Tb672 O720 2.552 . S
Tb672 O721 2.413 . S
Tb672 O723 2.362 . S
Tb672 O724 2.421 . S
Tb672 C736 2.833 . S
C673 C676 1.432 . S
C673 C677 1.414 . S
C673 N680 1.359 . S
C674 C676 1.417 . S
C674 C678 1.432 1_565 S
C674 C686 1.410 . S
C675 C677 1.444 1_545 S
C675 C678 1.317 . S
C675 H698 0.929 . S
C676 C673 1.432 . S
C676 C674 1.417 . S
C676 N684 1.360 . S
C677 C673 1.414 . S
C677 C675 1.444 1_565 S
C677 C682 1.385 . S
C678 C674 1.432 1_545 S
C678 C675 1.317 . S
C678 H690 0.930 . S
C679 C681 1.392 . S
C679 C682 1.370 . S
C679 H691 0.931 . S
N680 C673 1.359 . S
N680 C681 1.327 . S
N680 Tb683 2.600 . S
C681 C679 1.392 . S
C681 N680 1.327 . S
C681 H688 0.930 . S
C682 C677 1.385 . S
C682 C679 1.370 . S
C682 H701 0.930 . S
Tb683 N680 2.600 . S
Tb683 N684 2.660 . S
Tb683 O717 2.362 . S
Tb683 O718 2.421 . S
Tb683 O722 2.546 . S
Tb683 O723 2.610 . S
Tb683 O725 2.320 . S
Tb683 O726 2.552 . S
Tb683 O727 2.413 . S
Tb683 C747 2.833 . S
N684 C676 1.360 . S
N684 Tb683 2.660 . S
N684 C685 1.305 . S
C685 N684 1.305 . S
C685 C687 1.407 . S
C685 H692 0.930 . S
C686 C674 1.410 . S
C686 C687 1.345 . S
C686 H694 0.930 1_565 S
C687 C685 1.407 . S
C687 C686 1.345 . S
C687 H689 0.930 . S
H688 C681 0.930 . S
H689 C687 0.930 . S
H690 C678 0.930 . S
H691 C679 0.931 . S
H692 C685 0.930 . S
H693 C707 0.930 . S
H694 C686 0.930 1_545 S
H695 C713 0.930 . S
H696 C704 0.930 . S
H697 C711 0.931 . S
H698 C675 0.929 . S
H699 C705 0.930 . S
H700 C738 0.930 . S
H701 C682 0.930 . S
H702 C737 0.929 . S
N703 Tb672 2.660 . S
N703 C704 1.305 . S
N703 C708 1.360 . S
C704 H696 0.930 . S
C704 N703 1.305 . S
C704 C707 1.407 . S
C705 H699 0.930 . S
C705 C706 1.410 . S
C705 C707 1.345 . S
C706 C705 1.410 . S
C706 C708 1.417 . S
C706 C738 1.432 . S
C707 H693 0.930 . S
C707 C704 1.407 . S
C707 C705 1.345 . S
C708 N703 1.360 . S
C708 C706 1.417 . S
C708 C712 1.432 . S
H709 C714 0.930 . S
N710 Tb672 2.600 . S
N710 C712 1.359 . S
N710 C713 1.327 . S
C711 H697 0.931 . S
C711 C713 1.392 . S
C711 C714 1.370 . S
C712 C708 1.432 . S
C712 N710 1.359 . S
C712 C715 1.414 . S
C713 H695 0.930 . S
C713 N710 1.327 . S
C713 C711 1.392 . S
C714 H709 0.930 . S
C714 C711 1.370 . S
C714 C715 1.385 . S
C715 C712 1.414 . S
C715 C714 1.385 . S
C715 C737 1.444 . S
O716 Tb672 2.546 . S
O716 C736 1.251 . S
O717 Tb672 2.610 . S
O717 Tb683 2.362 . S
O717 C728 1.283 . S
O718 Tb683 2.421 . S
O718 C735 1.262 . S
O719 Tb672 2.320 . S
O719 C735 1.260 . S
O720 Tb672 2.552 . S
O720 C728 1.243 . S
O721 Tb672 2.413 . S
O721 C736 1.256 . S
O722 Tb683 2.546 . S
O722 C747 1.251 . S
O723 Tb672 2.362 . S
O723 Tb683 2.610 . S
O723 C739 1.283 . S
O724 Tb672 2.421 . S
O724 C746 1.262 . S
O725 Tb683 2.320 . S
O725 C746 1.260 . S
O726 Tb683 2.552 . S
O726 C739 1.243 . S
O727 Tb683 2.413 . S
O727 C747 1.256 . S
C728 O717 1.283 . S
C728 O720 1.243 . S
C729 C731 1.382 . S
C729 C733 1.393 . S
C729 C736 1.500 . S
C730 C731 1.400 . S
C730 C732 1.384 . S
C731 C729 1.382 . S
C731 C730 1.400 . S
C731 H748 0.930 . S
C732 C730 1.384 . S
C732 C734 1.392 . S
C732 H749 0.931 . S
C733 C729 1.393 . S
C733 C734 1.401 . S
C733 H750 0.930 . S
C734 C732 1.392 . S
C734 C733 1.401 . S
C734 H751 0.930 . S
C735 O718 1.262 . S
C735 O719 1.260 . S
C736 Tb672 2.833 . S
C736 O716 1.251 . S
C736 O721 1.256 . S
C736 C729 1.500 . S
C737 H702 0.929 . S
C737 C715 1.444 . S
C737 C738 1.317 . S
C738 H700 0.930 . S
C738 C706 1.432 . S
C738 C737 1.317 . S
C739 O723 1.283 . S
C739 O726 1.243 . S
C740 C741 1.382 . S
C740 C744 1.393 . S
C740 C747 1.500 . S
C741 C740 1.382 . S
C741 C742 1.400 . S
C741 H752 0.930 . S
C742 C741 1.400 . S
C742 C743 1.384 . S
C743 C742 1.384 . S
C743 C745 1.392 . S
C743 H753 0.931 . S
C744 C740 1.393 . S
C744 C745 1.401 . S
C744 H754 0.930 . S
C745 C743 1.392 . S
C745 C744 1.401 . S
C745 H755 0.930 . S
C746 O724 1.262 . S
C746 O725 1.260 . S
C747 Tb683 2.833 . S
C747 O722 1.251 . S
C747 O727 1.256 . S
C747 C740 1.500 . S
H748 C731 0.930 . S
H749 C732 0.931 . S
H750 C733 0.930 . S
H751 C734 0.930 . S
H752 C741 0.930 . S
H753 C743 0.931 . S
H754 C744 0.930 . S
H755 C745 0.930 . S
Tb756 N787 2.660 . S
Tb756 N794 2.600 . S
Tb756 O800 2.546 . S
Tb756 O801 2.610 . S
Tb756 O803 2.320 . S
Tb756 O804 2.552 . S
Tb756 O805 2.413 . S
Tb756 O807 2.362 . S
Tb756 O808 2.421 . S
Tb756 C820 2.833 . S
C757 C760 1.432 . S
C757 C761 1.414 . S
C757 N764 1.359 . S
C758 C760 1.417 . S
C758 C762 1.432 . S
C758 C770 1.410 . S
C759 C761 1.444 . S
C759 C762 1.317 . S
C759 H782 0.929 1_455 S
C760 C757 1.432 . S
C760 C758 1.417 . S
C760 N768 1.360 . S
C761 C757 1.414 . S
C761 C759 1.444 . S
C761 C766 1.385 . S
C762 C758 1.432 . S
C762 C759 1.317 . S
C762 H774 0.930 1_455 S
C763 C765 1.392 . S
C763 C766 1.370 . S
C763 H775 0.931 . S
N764 C757 1.359 . S
N764 C765 1.327 . S
N764 Tb767 2.600 . S
C765 C763 1.392 . S
C765 N764 1.327 . S
C765 H772 0.930 . S
C766 C761 1.385 . S
C766 C763 1.370 . S
C766 H785 0.930 . S
Tb767 N764 2.600 . S
Tb767 N768 2.660 . S
Tb767 O801 2.362 . S
Tb767 O802 2.421 . S
Tb767 O806 2.546 . S
Tb767 O807 2.610 . S
Tb767 O809 2.320 . S
Tb767 O810 2.552 . S
Tb767 O811 2.413 . S
Tb767 C831 2.833 . S
N768 C760 1.360 . S
N768 Tb767 2.660 . S
N768 C769 1.305 . S
C769 N768 1.305 . S
C769 C771 1.407 . S
C769 H776 0.930 . S
C770 C758 1.410 . S
C770 C771 1.345 . S
C770 H778 0.930 . S
C771 C769 1.407 . S
C771 C770 1.345 . S
C771 H773 0.930 . S
H772 C765 0.930 . S
H773 C771 0.930 . S
H774 C762 0.930 1_655 S
H775 C763 0.931 . S
H776 C769 0.930 . S
H777 C791 0.930 . S
H778 C770 0.930 . S
H779 C797 0.930 . S
H780 C788 0.930 . S
H781 C795 0.931 . S
H782 C759 0.929 1_655 S
H783 C789 0.930 . S
H784 C822 0.930 . S
H785 C766 0.930 . S
H786 C821 0.929 . S
N787 Tb756 2.660 . S
N787 C788 1.305 . S
N787 C792 1.360 . S
C788 H780 0.930 . S
C788 N787 1.305 . S
C788 C791 1.407 . S
C789 H783 0.930 . S
C789 C790 1.410 . S
C789 C791 1.345 . S
C790 C789 1.410 . S
C790 C792 1.417 . S
C790 C822 1.432 . S
C791 H777 0.930 . S
C791 C788 1.407 . S
C791 C789 1.345 . S
C792 N787 1.360 . S
C792 C790 1.417 . S
C792 C796 1.432 . S
H793 C798 0.930 . S
N794 Tb756 2.600 . S
N794 C796 1.359 . S
N794 C797 1.327 . S
C795 H781 0.931 . S
C795 C797 1.392 . S
C795 C798 1.370 . S
C796 C792 1.432 . S
C796 N794 1.359 . S
C796 C799 1.414 . S
C797 H779 0.930 . S
C797 N794 1.327 . S
C797 C795 1.392 . S
C798 H793 0.930 . S
C798 C795 1.370 . S
C798 C799 1.385 . S
C799 C796 1.414 . S
C799 C798 1.385 . S
C799 C821 1.444 . S
O800 Tb756 2.546 . S
O800 C820 1.251 . S
O801 Tb756 2.610 . S
O801 Tb767 2.362 . S
O801 C812 1.283 . S
O802 Tb767 2.421 . S
O802 C819 1.262 . S
O803 Tb756 2.320 . S
O803 C819 1.260 . S
O804 Tb756 2.552 . S
O804 C812 1.243 . S
O805 Tb756 2.413 . S
O805 C820 1.256 . S
O806 Tb767 2.546 . S
O806 C831 1.251 . S
O807 Tb756 2.362 . S
O807 Tb767 2.610 . S
O807 C823 1.283 . S
O808 Tb756 2.421 . S
O808 C830 1.262 . S
O809 Tb767 2.320 . S
O809 C830 1.260 . S
O810 Tb767 2.552 . S
O810 C823 1.243 . S
O811 Tb767 2.413 . S
O811 C831 1.256 . S
C812 O801 1.283 . S
C812 O804 1.243 . S
C813 C815 1.382 . S
C813 C817 1.393 . S
C813 C820 1.500 . S
C814 C815 1.400 . S
C814 C816 1.384 . S
C815 C813 1.382 . S
C815 C814 1.400 . S
C815 H832 0.930 . S
C816 C814 1.384 . S
C816 C818 1.392 . S
C816 H833 0.931 . S
C817 C813 1.393 . S
C817 C818 1.401 . S
C817 H834 0.930 . S
C818 C816 1.392 . S
C818 C817 1.401 . S
C818 H835 0.930 . S
C819 O802 1.262 . S
C819 O803 1.260 . S
C820 Tb756 2.833 . S
C820 O800 1.251 . S
C820 O805 1.256 . S
C820 C813 1.500 . S
C821 H786 0.929 . S
C821 C799 1.444 . S
C821 C822 1.317 . S
C822 H784 0.930 . S
C822 C790 1.432 . S
C822 C821 1.317 . S
C823 O807 1.283 . S
C823 O810 1.243 . S
C824 C825 1.382 . S
C824 C828 1.393 . S
C824 C831 1.500 1_655 S
C825 C824 1.382 . S
C825 C826 1.400 . S
C825 H836 0.930 . S
C826 C825 1.400 . S
C826 C827 1.384 . S
C827 C826 1.384 . S
C827 C829 1.392 . S
C827 H837 0.931 . S
C828 C824 1.393 . S
C828 C829 1.401 . S
C828 H838 0.930 . S
C829 C827 1.392 . S
C829 C828 1.401 . S
C829 H839 0.930 . S
C830 O808 1.262 . S
C830 O809 1.260 . S
C831 Tb767 2.833 . S
C831 O806 1.251 . S
C831 O811 1.256 . S
C831 C824 1.500 1_455 S
H832 C815 0.930 . S
H833 C816 0.931 . S
H834 C817 0.930 . S
H835 C818 0.930 . S
H836 C825 0.930 . S
H837 C827 0.931 . S
H838 C828 0.930 . S
H839 C829 0.930 . S
Tb840 N871 2.660 . S
Tb840 N878 2.600 . S
Tb840 O884 2.546 . S
Tb840 O885 2.610 . S
Tb840 O887 2.320 . S
Tb840 O888 2.552 . S
Tb840 O889 2.413 . S
Tb840 O891 2.362 . S
Tb840 O892 2.421 . S
Tb840 C904 2.833 . S
C841 C844 1.432 . S
C841 C845 1.414 . S
C841 N848 1.359 . S
C842 C844 1.417 . S
C842 C846 1.432 1_455 S
C842 C854 1.410 . S
C843 C845 1.444 1_655 S
C843 C846 1.317 . S
C843 H866 0.929 . S
C844 C841 1.432 . S
C844 C842 1.417 . S
C844 N852 1.360 . S
C845 C841 1.414 . S
C845 C843 1.444 1_455 S
C845 C850 1.385 . S
C846 C842 1.432 1_655 S
C846 C843 1.317 . S
C846 H858 0.930 . S
C847 C849 1.392 . S
C847 C850 1.370 . S
C847 H859 0.931 . S
N848 C841 1.359 . S
N848 C849 1.327 . S
N848 Tb851 2.600 . S
C849 C847 1.392 . S
C849 N848 1.327 . S
C849 H856 0.930 . S
C850 C845 1.385 . S
C850 C847 1.370 . S
C850 H869 0.930 . S
Tb851 N848 2.600 . S
Tb851 N852 2.660 . S
Tb851 O885 2.362 . S
Tb851 O886 2.421 . S
Tb851 O890 2.546 . S
Tb851 O891 2.610 . S
Tb851 O893 2.320 . S
Tb851 O894 2.552 . S
Tb851 O895 2.413 . S
Tb851 C915 2.833 . S
N852 C844 1.360 . S
N852 Tb851 2.660 . S
N852 C853 1.305 . S
C853 N852 1.305 . S
C853 C855 1.407 . S
C853 H860 0.930 . S
C854 C842 1.410 . S
C854 C855 1.345 . S
C854 H862 0.930 1_455 S
C855 C853 1.407 . S
C855 C854 1.345 . S
C855 H857 0.930 . S
H856 C849 0.930 . S
H857 C855 0.930 . S
H858 C846 0.930 . S
H859 C847 0.931 . S
H860 C853 0.930 . S
H861 C875 0.930 . S
H862 C854 0.930 1_655 S
H863 C881 0.930 . S
H864 C872 0.930 . S
H865 C879 0.931 . S
H866 C843 0.929 . S
H867 C873 0.930 . S
H868 C906 0.930 1_545 S
H869 C850 0.930 . S
H870 C905 0.929 1_545 S
N871 Tb840 2.660 . S
N871 C872 1.305 . S
N871 C876 1.360 . S
C872 H864 0.930 . S
C872 N871 1.305 . S
C872 C875 1.407 . S
C873 H867 0.930 . S
C873 C874 1.410 . S
C873 C875 1.345 . S
C874 C873 1.410 . S
C874 C876 1.417 . S
C874 C906 1.432 . S
C875 H861 0.930 . S
C875 C872 1.407 . S
C875 C873 1.345 . S
C876 N871 1.360 . S
C876 C874 1.417 . S
C876 C880 1.432 . S
H877 C882 0.930 . S
N878 Tb840 2.600 . S
N878 C880 1.359 . S
N878 C881 1.327 . S
C879 H865 0.931 . S
C879 C881 1.392 . S
C879 C882 1.370 . S
C880 C876 1.432 . S
C880 N878 1.359 . S
C880 C883 1.414 . S
C881 H863 0.930 . S
C881 N878 1.327 . S
C881 C879 1.392 . S
C882 H877 0.930 . S
C882 C879 1.370 . S
C882 C883 1.385 . S
C883 C880 1.414 . S
C883 C882 1.385 . S
C883 C905 1.444 . S
O884 Tb840 2.546 . S
O884 C904 1.251 . S
O885 Tb840 2.610 . S
O885 Tb851 2.362 . S
O885 C896 1.283 . S
O886 Tb851 2.421 . S
O886 C903 1.262 . S
O887 Tb840 2.320 . S
O887 C903 1.260 . S
O888 Tb840 2.552 . S
O888 C896 1.243 . S
O889 Tb840 2.413 . S
O889 C904 1.256 . S
O890 Tb851 2.546 . S
O890 C915 1.251 . S
O891 Tb840 2.362 . S
O891 Tb851 2.610 . S
O891 C907 1.283 . S
O892 Tb840 2.421 . S
O892 C914 1.262 . S
O893 Tb851 2.320 . S
O893 C914 1.260 . S
O894 Tb851 2.552 . S
O894 C907 1.243 . S
O895 Tb851 2.413 . S
O895 C915 1.256 . S
C896 O885 1.283 . S
C896 O888 1.243 . S
C897 C899 1.382 . S
C897 C901 1.393 . S
C897 C904 1.500 1_545 S
C898 C899 1.400 . S
C898 C900 1.384 . S
C899 C897 1.382 . S
C899 C898 1.400 . S
C899 H916 0.930 . S
C900 C898 1.384 . S
C900 C902 1.392 . S
C900 H917 0.931 . S
C901 C897 1.393 . S
C901 C902 1.401 . S
C901 H918 0.930 . S
C902 C900 1.392 . S
C902 C901 1.401 . S
C902 H919 0.930 . S
C903 O886 1.262 . S
C903 O887 1.260 . S
C904 Tb840 2.833 . S
C904 O884 1.251 . S
C904 O889 1.256 . S
C904 C897 1.500 1_565 S
C905 H870 0.929 1_565 S
C905 C883 1.444 . S
C905 C906 1.317 . S
C906 H868 0.930 1_565 S
C906 C874 1.432 . S
C906 C905 1.317 . S
C907 O891 1.283 . S
C907 O894 1.243 . S
C908 C909 1.382 . S
C908 C912 1.393 . S
C908 C915 1.500 . S
C909 C908 1.382 . S
C909 C910 1.400 . S
C909 H920 0.930 . S
C910 C909 1.400 . S
C910 C911 1.384 . S
C911 C910 1.384 . S
C911 C913 1.392 . S
C911 H921 0.931 . S
C912 C908 1.393 . S
C912 C913 1.401 . S
C912 H922 0.930 . S
C913 C911 1.392 . S
C913 C912 1.401 . S
C913 H923 0.930 . S
C914 O892 1.262 . S
C914 O893 1.260 . S
C915 Tb851 2.833 . S
C915 O890 1.251 . S
C915 O895 1.256 . S
C915 C908 1.500 . S
H916 C899 0.930 . S
H917 C900 0.931 . S
H918 C901 0.930 . S
H919 C902 0.930 . S
H920 C909 0.930 . S
H921 C911 0.931 . S
H922 C912 0.930 . S
H923 C913 0.930 . S
Tb924 N955 2.660 . S
Tb924 N962 2.600 . S
Tb924 O968 2.546 . S
Tb924 O969 2.610 . S
Tb924 O971 2.320 . S
Tb924 O972 2.552 . S
Tb924 O973 2.413 . S
Tb924 O975 2.362 . S
Tb924 O976 2.421 . S
Tb924 C988 2.833 . S
C925 C928 1.432 . S
C925 C929 1.414 . S
C925 N932 1.359 . S
C926 C928 1.417 . S
C926 C930 1.432 . S
C926 C938 1.410 . S
C927 C929 1.444 . S
C927 C930 1.317 . S
C927 H950 0.929 . S
C928 C925 1.432 . S
C928 C926 1.417 . S
C928 N936 1.360 . S
C929 C925 1.414 . S
C929 C927 1.444 . S
C929 C934 1.385 . S
C930 C926 1.432 . S
C930 C927 1.317 . S
C930 H942 0.930 . S
C931 C933 1.392 . S
C931 C934 1.370 . S
C931 H943 0.931 . S
N932 C925 1.359 . S
N932 C933 1.327 . S
N932 Tb935 2.600 . S
C933 C931 1.392 . S
C933 N932 1.327 . S
C933 H940 0.930 . S
C934 C929 1.385 . S
C934 C931 1.370 . S
C934 H953 0.930 . S
Tb935 N932 2.600 . S
Tb935 N936 2.660 . S
Tb935 O969 2.362 . S
Tb935 O970 2.421 . S
Tb935 O974 2.546 . S
Tb935 O975 2.610 . S
Tb935 O977 2.320 . S
Tb935 O978 2.552 . S
Tb935 O979 2.413 . S
Tb935 C999 2.833 . S
N936 C928 1.360 . S
N936 Tb935 2.660 . S
N936 C937 1.305 . S
C937 N936 1.305 . S
C937 C939 1.407 . S
C937 H944 0.930 . S
C938 C926 1.410 . S
C938 C939 1.345 . S
C938 H946 0.930 . S
C939 C937 1.407 . S
C939 C938 1.345 . S
C939 H941 0.930 . S
H940 C933 0.930 . S
H941 C939 0.930 . S
H942 C930 0.930 . S
H943 C931 0.931 . S
H944 C937 0.930 . S
H945 C959 0.930 . S
H946 C938 0.930 . S
H947 C965 0.930 . S
H948 C956 0.930 . S
H949 C963 0.931 . S
H950 C927 0.929 . S
H951 C957 0.930 1_545 S
H952 C990 0.930 . S
H953 C934 0.930 . S
H954 C989 0.929 . S
N955 Tb924 2.660 . S
N955 C956 1.305 . S
N955 C960 1.360 . S
C956 H948 0.930 . S
C956 N955 1.305 . S
C956 C959 1.407 . S
C957 H951 0.930 1_565 S
C957 C958 1.410 . S
C957 C959 1.345 . S
C958 C957 1.410 . S
C958 C960 1.417 . S
C958 C990 1.432 1_565 S
C959 H945 0.930 . S
C959 C956 1.407 . S
C959 C957 1.345 . S
C960 N955 1.360 . S
C960 C958 1.417 . S
C960 C964 1.432 . S
H961 C966 0.930 . S
N962 Tb924 2.600 . S
N962 C964 1.359 . S
N962 C965 1.327 . S
C963 H949 0.931 . S
C963 C965 1.392 . S
C963 C966 1.370 . S
C964 C960 1.432 . S
C964 N962 1.359 . S
C964 C967 1.414 . S
C965 H947 0.930 . S
C965 N962 1.327 . S
C965 C963 1.392 . S
C966 H961 0.930 . S
C966 C963 1.370 . S
C966 C967 1.385 . S
C967 C964 1.414 . S
C967 C966 1.385 . S
C967 C989 1.444 1_565 S
O968 Tb924 2.546 . S
O968 C988 1.251 . S
O969 Tb924 2.610 . S
O969 Tb935 2.362 . S
O969 C980 1.283 . S
O970 Tb935 2.421 . S
O970 C987 1.262 . S
O971 Tb924 2.320 . S
O971 C987 1.260 . S
O972 Tb924 2.552 . S
O972 C980 1.243 . S
O973 Tb924 2.413 . S
O973 C988 1.256 . S
O974 Tb935 2.546 . S
O974 C999 1.251 . S
O975 Tb924 2.362 . S
O975 Tb935 2.610 . S
O975 C991 1.283 . S
O976 Tb924 2.421 . S
O976 C998 1.262 . S
O977 Tb935 2.320 . S
O977 C998 1.260 . S
O978 Tb935 2.552 . S
O978 C991 1.243 . S
O979 Tb935 2.413 . S
O979 C999 1.256 . S
C980 O969 1.283 . S
C980 O972 1.243 . S
C981 C983 1.382 . S
C981 C985 1.393 . S
C981 C988 1.500 . S
C982 C983 1.400 . S
C982 C984 1.384 . S
C983 C981 1.382 . S
C983 C982 1.400 . S
C983 H1000 0.930 . S
C984 C982 1.384 . S
C984 C986 1.392 . S
C984 H1001 0.931 . S
C985 C981 1.393 . S
C985 C986 1.401 . S
C985 H1002 0.930 . S
C986 C984 1.392 . S
C986 C985 1.401 . S
C986 H1003 0.930 . S
C987 O970 1.262 . S
C987 O971 1.260 . S
C988 Tb924 2.833 . S
C988 O968 1.251 . S
C988 O973 1.256 . S
C988 C981 1.500 . S
C989 H954 0.929 . S
C989 C967 1.444 1_545 S
C989 C990 1.317 . S
C990 H952 0.930 . S
C990 C958 1.432 1_545 S
C990 C989 1.317 . S
C991 O975 1.283 . S
C991 O978 1.243 . S
C992 C993 1.382 . S
C992 C996 1.393 . S
C992 C999 1.500 . S
C993 C992 1.382 . S
C993 C994 1.400 . S
C993 H1004 0.930 . S
C994 C993 1.400 . S
C994 C995 1.384 . S
C995 C994 1.384 . S
C995 C997 1.392 . S
C995 H1005 0.931 . S
C996 C992 1.393 . S
C996 C997 1.401 . S
C996 H1006 0.930 . S
C997 C995 1.392 . S
C997 C996 1.401 . S
C997 H1007 0.930 . S
C998 O976 1.262 . S
C998 O977 1.260 . S
C999 Tb935 2.833 . S
C999 O974 1.251 . S
C999 O979 1.256 . S
C999 C992 1.500 . S
H1000 C983 0.930 . S
H1001 C984 0.931 . S
H1002 C985 0.930 . S
H1003 C986 0.930 . S
H1004 C993 0.930 . S
H1005 C995 0.931 . S
H1006 C996 0.930 . S
H1007 C997 0.930 . S
C1008 C1009 1.391 . S
C1008 C1010 1.394 . S
C1008 H1024 0.931 . S
C1009 C1008 1.391 . S
C1009 C1013 1.376 . S
C1010 C1008 1.394 . S
C1010 C1011 1.369 . S
C1010 C1014 1.531 . S
C1011 C1010 1.369 . S
C1011 C1012 1.410 . S
C1011 C1019 1.503 . S
C1012 C1011 1.410 . S
C1012 C1013 1.392 . S
C1012 C1015 1.511 . S
C1013 C1009 1.376 . S
C1013 C1012 1.392 . S
C1013 H1025 0.929 . S
C1014 C1010 1.531 . S
C1014 H1026 0.960 . S
C1014 H1027 0.962 . S
C1014 H1028 0.960 . S
C1015 C1012 1.511 . S
C1015 H1029 0.961 . S
C1015 H1030 0.961 . S
C1015 H1031 0.961 . S
C1016 C1017 1.370 . S
C1016 C1018 1.363 . S
C1016 H1032 0.931 . S
C1017 C1016 1.370 . S
C1017 C1021 1.408 . S
C1018 C1016 1.363 . S
C1018 C1019 1.370 . S
C1018 C1022 1.524 . S
C1019 C1011 1.503 . S
C1019 C1018 1.370 . S
C1019 C1020 1.403 . S
C1020 C1019 1.403 . S
C1020 C1021 1.404 . S
C1020 C1023 1.539 . S
C1021 C1017 1.408 . S
C1021 C1020 1.404 . S
C1021 H1033 0.930 . S
C1022 C1018 1.524 . S
C1022 H1034 0.956 . S
C1022 H1035 0.961 . S
C1022 H1036 0.961 . S
C1023 C1020 1.539 . S
C1023 H1037 0.958 . S
C1023 H1038 0.961 . S
C1023 H1039 0.960 . S
H1024 C1008 0.931 . S
H1025 C1013 0.929 . S
H1026 C1014 0.960 . S
H1027 C1014 0.962 . S
H1028 C1014 0.960 . S
H1029 C1015 0.961 . S
H1030 C1015 0.961 . S
H1031 C1015 0.961 . S
H1032 C1016 0.931 . S
H1033 C1021 0.930 . S
H1034 C1022 0.956 . S
H1035 C1022 0.961 . S
H1036 C1022 0.961 . S
H1037 C1023 0.958 . S
H1038 C1023 0.961 . S
H1039 C1023 0.960 . S
C1040 C1041 1.391 . S
C1040 C1042 1.394 . S
C1040 H1056 0.931 . S
C1041 C1040 1.391 . S
C1041 C1045 1.376 . S
C1042 C1040 1.394 . S
C1042 C1043 1.369 . S
C1042 C1046 1.531 . S
C1043 C1042 1.369 . S
C1043 C1044 1.410 . S
C1043 C1051 1.503 1_455 S
C1044 C1043 1.410 . S
C1044 C1045 1.392 . S
C1044 C1047 1.511 . S
C1045 C1041 1.376 . S
C1045 C1044 1.392 . S
C1045 H1057 0.929 . S
C1046 C1042 1.531 . S
C1046 H1058 0.960 . S
C1046 H1059 0.962 . S
C1046 H1060 0.960 . S
C1047 C1044 1.511 . S
C1047 H1061 0.961 . S
C1047 H1062 0.961 1_455 S
C1047 H1063 0.961 . S
C1048 C1049 1.370 . S
C1048 C1050 1.363 . S
C1048 H1064 0.931 . S
C1049 C1048 1.370 . S
C1049 C1053 1.408 . S
C1050 C1048 1.363 . S
C1050 C1051 1.370 . S
C1050 C1054 1.524 . S
C1051 C1043 1.503 1_655 S
C1051 C1050 1.370 . S
C1051 C1052 1.403 . S
C1052 C1051 1.403 . S
C1052 C1053 1.404 . S
C1052 C1055 1.539 . S
C1053 C1049 1.408 . S
C1053 C1052 1.404 . S
C1053 H1065 0.930 . S
C1054 C1050 1.524 . S
C1054 H1066 0.956 1_655 S
C1054 H1067 0.961 . S
C1054 H1068 0.961 . S
C1055 C1052 1.539 . S
C1055 H1069 0.958 1_655 S
C1055 H1070 0.961 . S
C1055 H1071 0.960 1_655 S
H1056 C1040 0.931 . S
H1057 C1045 0.929 . S
H1058 C1046 0.960 . S
H1059 C1046 0.962 . S
H1060 C1046 0.960 . S
H1061 C1047 0.961 . S
H1062 C1047 0.961 1_655 S
H1063 C1047 0.961 . S
H1064 C1048 0.931 . S
H1065 C1053 0.930 . S
H1066 C1054 0.956 1_455 S
H1067 C1054 0.961 . S
H1068 C1054 0.961 . S
H1069 C1055 0.958 1_455 S
H1070 C1055 0.961 . S
H1071 C1055 0.960 1_455 S
C1072 C1073 1.391 . S
C1072 C1074 1.394 . S
C1072 H1088 0.931 . S
C1073 C1072 1.391 . S
C1073 C1077 1.376 . S
C1074 C1072 1.394 . S
C1074 C1075 1.369 . S
C1074 C1078 1.531 1_545 S
C1075 C1074 1.369 . S
C1075 C1076 1.410 . S
C1075 C1083 1.503 1_545 S
C1076 C1075 1.410 . S
C1076 C1077 1.392 . S
C1076 C1079 1.511 . S
C1077 C1073 1.376 . S
C1077 C1076 1.392 . S
C1077 H1089 0.929 . S
C1078 C1074 1.531 1_565 S
C1078 H1090 0.960 . S
C1078 H1091 0.962 . S
C1078 H1092 0.960 . S
C1079 C1076 1.511 . S
C1079 H1093 0.961 . S
C1079 H1094 0.961 . S
C1079 H1095 0.961 . S
C1080 C1081 1.370 . S
C1080 C1082 1.363 . S
C1080 H1096 0.931 . S
C1081 C1080 1.370 . S
C1081 C1085 1.408 . S
C1082 C1080 1.363 . S
C1082 C1083 1.370 . S
C1082 C1086 1.524 . S
C1083 C1075 1.503 1_565 S
C1083 C1082 1.370 . S
C1083 C1084 1.403 . S
C1084 C1083 1.403 . S
C1084 C1085 1.404 . S
C1084 C1087 1.539 . S
C1085 C1081 1.408 . S
C1085 C1084 1.404 . S
C1085 H1097 0.930 . S
C1086 C1082 1.524 . S
C1086 H1098 0.956 . S
C1086 H1099 0.961 . S
C1086 H1100 0.961 . S
C1087 C1084 1.539 . S
C1087 H1101 0.958 . S
C1087 H1102 0.961 . S
C1087 H1103 0.960 1_565 S
H1088 C1072 0.931 . S
H1089 C1077 0.929 . S
H1090 C1078 0.960 . S
H1091 C1078 0.962 . S
H1092 C1078 0.960 . S
H1093 C1079 0.961 . S
H1094 C1079 0.961 . S
H1095 C1079 0.961 . S
H1096 C1080 0.931 . S
H1097 C1085 0.930 . S
H1098 C1086 0.956 . S
H1099 C1086 0.961 . S
H1100 C1086 0.961 . S
H1101 C1087 0.958 . S
H1102 C1087 0.961 . S
H1103 C1087 0.960 1_545 S
C1104 C1105 1.391 . S
C1104 C1106 1.394 . S
C1104 H1120 0.931 . S
C1105 C1104 1.391 . S
C1105 C1109 1.376 . S
C1106 C1104 1.394 . S
C1106 C1107 1.369 . S
C1106 C1110 1.531 . S
C1107 C1106 1.369 . S
C1107 C1108 1.410 . S
C1107 C1115 1.503 . S
C1108 C1107 1.410 . S
C1108 C1109 1.392 . S
C1108 C1111 1.511 . S
C1109 C1105 1.376 . S
C1109 C1108 1.392 . S
C1109 H1121 0.929 . S
C1110 C1106 1.531 . S
C1110 H1122 0.960 . S
C1110 H1123 0.962 . S
C1110 H1124 0.960 . S
C1111 C1108 1.511 . S
C1111 H1125 0.961 . S
C1111 H1126 0.961 . S
C1111 H1127 0.961 . S
C1112 C1113 1.370 . S
C1112 C1114 1.363 . S
C1112 H1128 0.931 . S
C1113 C1112 1.370 . S
C1113 C1117 1.408 . S
C1114 C1112 1.363 . S
C1114 C1115 1.370 . S
C1114 C1118 1.524 . S
C1115 C1107 1.503 . S
C1115 C1114 1.370 . S
C1115 C1116 1.403 . S
C1116 C1115 1.403 . S
C1116 C1117 1.404 . S
C1116 C1119 1.539 . S
C1117 C1113 1.408 . S
C1117 C1116 1.404 . S
C1117 H1129 0.930 . S
C1118 C1114 1.524 . S
C1118 H1130 0.956 . S
C1118 H1131 0.961 . S
C1118 H1132 0.961 . S
C1119 C1116 1.539 . S
C1119 H1133 0.958 . S
C1119 H1134 0.961 . S
C1119 H1135 0.960 . S
H1120 C1104 0.931 . S
H1121 C1109 0.929 . S
H1122 C1110 0.960 . S
H1123 C1110 0.962 . S
H1124 C1110 0.960 . S
H1125 C1111 0.961 . S
H1126 C1111 0.961 . S
H1127 C1111 0.961 . S
H1128 C1112 0.931 . S
H1129 C1117 0.930 . S
H1130 C1118 0.956 . S
H1131 C1118 0.961 . S
H1132 C1118 0.961 . S
H1133 C1119 0.958 . S
H1134 C1119 0.961 . S
H1135 C1119 0.960 . S
C1136 C1137 1.391 . S
C1136 C1138 1.394 . S
C1136 H1152 0.931 . S
C1137 C1136 1.391 . S
C1137 C1141 1.376 . S
C1138 C1136 1.394 . S
C1138 C1139 1.369 . S
C1138 C1142 1.531 . S
C1139 C1138 1.369 . S
C1139 C1140 1.410 . S
C1139 C1147 1.503 1_455 S
C1140 C1139 1.410 . S
C1140 C1141 1.392 . S
C1140 C1143 1.511 . S
C1141 C1137 1.376 . S
C1141 C1140 1.392 . S
C1141 H1153 0.929 . S
C1142 C1138 1.531 . S
C1142 H1154 0.960 1_455 S
C1142 H1155 0.962 1_455 S
C1142 H1156 0.960 . S
C1143 C1140 1.511 . S
C1143 H1157 0.961 . S
C1143 H1158 0.961 . S
C1143 H1159 0.961 . S
C1144 C1145 1.370 . S
C1144 C1146 1.363 . S
C1144 H1160 0.931 . S
C1145 C1144 1.370 . S
C1145 C1149 1.408 . S
C1146 C1144 1.363 . S
C1146 C1147 1.370 . S
C1146 C1150 1.524 . S
C1147 C1139 1.503 1_655 S
C1147 C1146 1.370 . S
C1147 C1148 1.403 . S
C1148 C1147 1.403 . S
C1148 C1149 1.404 . S
C1148 C1151 1.539 1_655 S
C1149 C1145 1.408 . S
C1149 C1148 1.404 . S
C1149 H1161 0.930 . S
C1150 C1146 1.524 . S
C1150 H1162 0.956 . S
C1150 H1163 0.943 1_655 S
C1150 H1164 0.961 . S
C1151 C1148 1.539 1_455 S
C1151 H1165 0.958 . S
C1151 H1166 0.961 . S
C1151 H1167 0.960 . S
H1152 C1136 0.931 . S
H1153 C1141 0.929 . S
H1154 C1142 0.960 1_655 S
H1155 C1142 0.962 1_655 S
H1156 C1142 0.960 . S
H1157 C1143 0.961 . S
H1158 C1143 0.961 . S
H1159 C1143 0.961 . S
H1160 C1144 0.931 . S
H1161 C1149 0.930 . S
H1162 C1150 0.956 . S
H1163 C1150 0.943 1_455 S
H1164 C1150 0.961 . S
H1165 C1151 0.958 . S
H1166 C1151 0.961 . S
H1167 C1151 0.960 . S
C1168 C1169 1.391 . S
C1168 C1170 1.394 . S
C1168 H1184 0.931 . S
C1169 C1168 1.391 . S
C1169 C1173 1.376 . S
C1170 C1168 1.394 . S
C1170 C1171 1.369 . S
C1170 C1174 1.531 . S
C1171 C1170 1.369 . S
C1171 C1172 1.410 . S
C1171 C1179 1.503 1_565 S
C1172 C1171 1.410 . S
C1172 C1173 1.392 . S
C1172 C1175 1.511 . S
C1173 C1169 1.376 . S
C1173 C1172 1.392 . S
C1173 H1185 0.929 . S
C1174 C1170 1.531 . S
C1174 H1186 0.960 1_565 S
C1174 H1187 0.962 . S
C1174 H1188 0.960 . S
C1175 C1172 1.511 . S
C1175 H1189 0.961 . S
C1175 H1190 0.961 . S
C1175 H1191 0.961 . S
C1176 C1177 1.370 . S
C1176 C1178 1.363 . S
C1176 H1192 0.931 . S
C1177 C1176 1.370 . S
C1177 C1181 1.408 . S
C1178 C1176 1.363 . S
C1178 C1179 1.370 . S
C1178 C1182 1.524 1_545 S
C1179 C1171 1.503 1_545 S
C1179 C1178 1.370 . S
C1179 C1180 1.403 . S
C1180 C1179 1.403 . S
C1180 C1181 1.404 . S
C1180 C1183 1.539 . S
C1181 C1177 1.408 . S
C1181 C1180 1.404 . S
C1181 H1193 0.930 . S
C1182 C1178 1.524 1_565 S
C1182 H1194 0.956 . S
C1182 H1195 0.961 . S
C1182 H1196 0.961 . S
C1183 C1180 1.539 . S
C1183 H1197 0.958 . S
C1183 H1198 0.961 . S
C1183 H1199 0.960 . S
H1184 C1168 0.931 . S
H1185 C1173 0.929 . S
H1186 C1174 0.960 1_545 S
H1187 C1174 0.962 . S
H1188 C1174 0.960 . S
H1189 C1175 0.961 . S
H1190 C1175 0.961 . S
H1191 C1175 0.961 . S
H1192 C1176 0.931 . S
H1193 C1181 0.930 . S
H1194 C1182 0.956 . S
H1195 C1182 0.961 . S
H1196 C1182 0.961 . S
H1197 C1183 0.958 . S
H1198 C1183 0.961 . S
H1199 C1183 0.960 . S
C1200 C1201 1.391 . S
C1200 C1202 1.394 . S
C1200 H1216 0.931 . S
C1201 C1200 1.391 . S
C1201 C1205 1.376 . S
C1202 C1200 1.394 . S
C1202 C1203 1.369 . S
C1202 C1206 1.531 . S
C1203 C1202 1.369 . S
C1203 C1204 1.410 . S
C1203 C1211 1.503 . S
C1204 C1203 1.410 . S
C1204 C1205 1.392 . S
C1204 C1207 1.511 . S
C1205 C1201 1.376 . S
C1205 C1204 1.392 . S
C1205 H1217 0.929 . S
C1206 C1202 1.531 . S
C1206 H1218 0.960 . S
C1206 H1219 0.962 . S
C1206 H1220 0.960 . S
C1207 C1204 1.511 . S
C1207 H1221 0.961 . S
C1207 H1222 0.961 . S
C1207 H1223 0.961 . S
C1208 C1209 1.370 . S
C1208 C1210 1.363 . S
C1208 H1224 0.931 . S
C1209 C1208 1.370 . S
C1209 C1213 1.408 . S
C1210 C1208 1.363 . S
C1210 C1211 1.370 . S
C1210 C1214 1.524 . S
C1211 C1203 1.503 . S
C1211 C1210 1.370 . S
C1211 C1212 1.403 . S
C1212 C1211 1.403 . S
C1212 C1213 1.404 . S
C1212 C1215 1.539 . S
C1213 C1209 1.408 . S
C1213 C1212 1.404 . S
C1213 H1225 0.930 . S
C1214 C1210 1.524 . S
C1214 H1226 0.956 . S
C1214 H1227 0.961 . S
C1214 H1228 0.961 . S
C1215 C1212 1.539 . S
C1215 H1229 0.958 . S
C1215 H1230 0.961 . S
C1215 H1231 0.960 . S
H1216 C1200 0.931 . S
H1217 C1205 0.929 . S
H1218 C1206 0.960 . S
H1219 C1206 0.962 . S
H1220 C1206 0.960 . S
H1221 C1207 0.961 . S
H1222 C1207 0.961 . S
H1223 C1207 0.961 . S
H1224 C1208 0.931 . S
H1225 C1213 0.930 . S
H1226 C1214 0.956 . S
H1227 C1214 0.961 . S
H1228 C1214 0.961 . S
H1229 C1215 0.958 . S
H1230 C1215 0.961 . S
H1231 C1215 0.960 . S
C1232 C1233 1.391 . S
C1232 C1234 1.394 . S
C1232 H1248 0.931 . S
C1233 C1232 1.391 . S
C1233 C1237 1.376 . S
C1234 C1232 1.394 . S
C1234 C1235 1.369 . S
C1234 C1238 1.531 1_455 S
C1235 C1234 1.369 . S
C1235 C1236 1.410 . S
C1235 C1243 1.503 1_455 S
C1236 C1235 1.410 . S
C1236 C1237 1.392 . S
C1236 C1239 1.511 . S
C1237 C1233 1.376 . S
C1237 C1236 1.392 . S
C1237 H1249 0.929 . S
C1238 C1234 1.531 1_655 S
C1238 H1250 0.960 . S
C1238 H1251 0.962 . S
C1238 H1252 0.960 . S
C1239 C1236 1.511 . S
C1239 H1253 0.961 . S
C1239 H1254 0.961 . S
C1239 H1255 0.961 . S
C1240 C1241 1.370 . S
C1240 C1242 1.363 . S
C1240 H1256 0.931 . S
C1241 C1240 1.370 . S
C1241 C1245 1.408 . S
C1242 C1240 1.363 . S
C1242 C1243 1.370 . S
C1242 C1246 1.524 . S
C1243 C1235 1.503 1_655 S
C1243 C1242 1.370 . S
C1243 C1244 1.403 . S
C1244 C1243 1.403 . S
C1244 C1245 1.404 . S
C1244 C1247 1.539 . S
C1245 C1241 1.408 . S
C1245 C1244 1.404 . S
C1245 H1257 0.930 . S
C1246 C1242 1.524 . S
C1246 H1258 0.956 . S
C1246 H1259 0.961 . S
C1246 H1260 0.961 . S
C1247 C1244 1.539 . S
C1247 H1261 0.958 . S
C1247 H1262 0.961 . S
C1247 H1263 0.960 . S
H1248 C1232 0.931 . S
H1249 C1237 0.929 . S
H1250 C1238 0.960 . S
H1251 C1238 0.962 . S
H1252 C1238 0.960 . S
H1253 C1239 0.961 . S
H1254 C1239 0.961 . S
H1255 C1239 0.961 . S
H1256 C1240 0.931 . S
H1257 C1245 0.930 . S
H1258 C1246 0.956 . S
H1259 C1246 0.961 . S
H1260 C1246 0.961 . S
H1261 C1247 0.958 . S
H1262 C1247 0.961 . S
H1263 C1247 0.960 . S
C1264 C1265 1.391 . S
C1264 C1266 1.394 . S
C1264 H1280 0.931 . S
C1265 C1264 1.391 . S
C1265 C1269 1.376 . S
C1266 C1264 1.394 . S
C1266 C1267 1.369 . S
C1266 C1270 1.531 1_565 S
C1267 C1266 1.369 . S
C1267 C1268 1.410 . S
C1267 C1275 1.503 1_565 S
C1268 C1267 1.410 . S
C1268 C1269 1.392 . S
C1268 C1271 1.511 . S
C1269 C1265 1.376 . S
C1269 C1268 1.392 . S
C1269 H1281 0.929 . S
C1270 C1266 1.531 1_545 S
C1270 H1282 0.960 . S
C1270 H1283 0.962 . S
C1270 H1284 0.960 . S
C1271 C1268 1.511 . S
C1271 H1285 0.961 . S
C1271 H1286 0.961 . S
C1271 H1287 0.961 . S
C1272 C1273 1.370 . S
C1272 C1274 1.363 . S
C1272 H1288 0.931 . S
C1273 C1272 1.370 . S
C1273 C1277 1.408 . S
C1274 C1272 1.363 . S
C1274 C1275 1.370 . S
C1274 C1278 1.524 . S
C1275 C1267 1.503 1_545 S
C1275 C1274 1.370 . S
C1275 C1276 1.403 . S
C1276 C1275 1.403 . S
C1276 C1277 1.404 . S
C1276 C1279 1.539 . S
C1277 C1273 1.408 . S
C1277 C1276 1.404 . S
C1277 H1289 0.930 . S
C1278 C1274 1.524 . S
C1278 H1290 0.956 . S
C1278 H1291 0.961 . S
C1278 H1292 0.961 . S
C1279 C1276 1.539 . S
C1279 H1293 0.958 . S
C1279 H1294 0.961 . S
C1279 H1295 0.967 . S
H1280 C1264 0.931 . S
H1281 C1269 0.929 . S
H1282 C1270 0.960 . S
H1283 C1270 0.962 . S
H1284 C1270 0.960 . S
H1285 C1271 0.961 . S
H1286 C1271 0.961 . S
H1287 C1271 0.961 . S
H1288 C1272 0.931 . S
H1289 C1277 0.930 . S
H1290 C1278 0.956 . S
H1291 C1278 0.961 . S
H1292 C1278 0.961 . S
H1293 C1279 0.958 . S
H1294 C1279 0.961 . S
H1295 C1279 0.967 . S
C1296 C1297 1.391 . S
C1296 C1298 1.394 . S
C1296 H1312 0.931 . S
C1297 C1296 1.391 . S
C1297 C1301 1.376 . S
C1298 C1296 1.394 . S
C1298 C1299 1.369 . S
C1298 C1302 1.531 . S
C1299 C1298 1.369 . S
C1299 C1300 1.410 . S
C1299 C1307 1.503 . S
C1300 C1299 1.410 . S
C1300 C1301 1.392 . S
C1300 C1303 1.511 . S
C1301 C1297 1.376 . S
C1301 C1300 1.392 . S
C1301 H1313 0.929 . S
C1302 C1298 1.531 . S
C1302 H1314 0.960 . S
C1302 H1315 0.962 . S
C1302 H1316 0.960 . S
C1303 C1300 1.511 . S
C1303 H1317 0.961 . S
C1303 H1318 0.961 . S
C1303 H1319 0.961 . S
C1304 C1305 1.370 . S
C1304 C1306 1.363 . S
C1304 H1320 0.931 . S
C1305 C1304 1.370 . S
C1305 C1309 1.408 . S
C1306 C1304 1.363 . S
C1306 C1307 1.370 . S
C1306 C1310 1.524 . S
C1307 C1299 1.503 . S
C1307 C1306 1.370 . S
C1307 C1308 1.403 . S
C1308 C1307 1.403 . S
C1308 C1309 1.404 . S
C1308 C1311 1.539 . S
C1309 C1305 1.408 . S
C1309 C1308 1.404 . S
C1309 H1321 0.930 . S
C1310 C1306 1.524 . S
C1310 H1322 0.956 . S
C1310 H1323 0.961 . S
C1310 H1324 0.961 . S
C1311 C1308 1.539 . S
C1311 H1325 0.958 . S
C1311 H1326 0.961 . S
C1311 H1327 0.960 . S
H1312 C1296 0.931 . S
H1313 C1301 0.929 . S
H1314 C1302 0.960 . S
H1315 C1302 0.962 . S
H1316 C1302 0.960 . S
H1317 C1303 0.961 . S
H1318 C1303 0.961 . S
H1319 C1303 0.961 . S
H1320 C1304 0.931 . S
H1321 C1309 0.930 . S
H1322 C1310 0.956 . S
H1323 C1310 0.961 . S
H1324 C1310 0.961 . S
H1325 C1311 0.958 . S
H1326 C1311 0.961 . S
H1327 C1311 0.960 . S
C1328 C1329 1.391 . S
C1328 C1330 1.394 . S
C1328 H1344 0.931 . S
C1329 C1328 1.391 . S
C1329 C1333 1.376 . S
C1330 C1328 1.394 . S
C1330 C1331 1.369 . S
C1330 C1334 1.531 . S
C1331 C1330 1.369 . S
C1331 C1332 1.410 . S
C1331 C1339 1.503 1_455 S
C1332 C1331 1.410 . S
C1332 C1333 1.392 . S
C1332 C1335 1.511 1_455 S
C1333 C1329 1.376 . S
C1333 C1332 1.392 . S
C1333 H1345 0.929 . S
C1334 C1330 1.531 . S
C1334 H1346 0.960 1_455 S
C1334 H1347 0.962 . S
C1334 H1348 0.960 . S
C1335 C1332 1.511 1_655 S
C1335 H1349 0.961 1_655 S
C1335 H1350 0.961 . S
C1335 H1351 0.961 . S
C1336 C1337 1.370 . S
C1336 C1338 1.363 . S
C1336 H1352 0.931 . S
C1337 C1336 1.370 . S
C1337 C1341 1.408 . S
C1338 C1336 1.363 . S
C1338 C1339 1.370 . S
C1338 C1342 1.524 . S
C1339 C1331 1.503 1_655 S
C1339 C1338 1.370 . S
C1339 C1340 1.403 . S
C1340 C1339 1.403 . S
C1340 C1341 1.404 . S
C1340 C1343 1.539 . S
C1341 C1337 1.408 . S
C1341 C1340 1.404 . S
C1341 H1353 0.930 . S
C1342 C1338 1.524 . S
C1342 H1354 0.956 1_655 S
C1342 H1355 0.961 1_655 S
C1342 H1356 0.961 . S
C1343 C1340 1.539 . S
C1343 H1357 0.958 . S
C1343 H1358 0.961 . S
C1343 H1359 0.960 . S
H1344 C1328 0.931 . S
H1345 C1333 0.929 . S
H1346 C1334 0.960 1_655 S
H1347 C1334 0.962 . S
H1348 C1334 0.960 . S
H1349 C1335 0.961 1_455 S
H1350 C1335 0.961 . S
H1351 C1335 0.961 . S
H1352 C1336 0.931 . S
H1353 C1341 0.930 . S
H1354 C1342 0.956 1_455 S
H1355 C1342 0.961 1_455 S
H1356 C1342 0.961 . S
H1357 C1343 0.958 . S
H1358 C1343 0.961 . S
H1359 C1343 0.960 . S
C1360 C1361 1.391 . S
C1360 C1362 1.394 . S
C1360 H1376 0.931 . S
C1361 C1360 1.391 . S
C1361 C1365 1.376 . S
C1362 C1360 1.394 . S
C1362 C1363 1.369 . S
C1362 C1366 1.531 . S
C1363 C1362 1.369 . S
C1363 C1364 1.410 . S
C1363 C1371 1.503 1_545 S
C1364 C1363 1.410 . S
C1364 C1365 1.392 . S
C1364 C1367 1.511 . S
C1365 C1361 1.376 . S
C1365 C1364 1.392 . S
C1365 H1377 0.929 . S
C1366 C1362 1.531 . S
C1366 H1378 0.960 . S
C1366 H1379 0.962 . S
C1366 H1380 0.960 . S
C1367 C1364 1.511 . S
C1367 H1381 0.961 . S
C1367 H1382 0.961 1_545 S
C1367 H1383 0.961 1_545 S
C1368 C1369 1.370 . S
C1368 C1370 1.363 . S
C1368 H1384 0.931 . S
C1369 C1368 1.370 . S
C1369 C1373 1.408 . S
C1370 C1368 1.363 . S
C1370 C1371 1.370 . S
C1370 C1374 1.524 1_565 S
C1371 C1363 1.503 1_565 S
C1371 C1370 1.370 . S
C1371 C1372 1.403 . S
C1372 C1371 1.403 . S
C1372 C1373 1.404 . S
C1372 C1375 1.539 . S
C1373 C1369 1.408 . S
C1373 C1372 1.404 . S
C1373 H1385 0.930 . S
C1374 C1370 1.524 1_545 S
C1374 H1386 0.956 . S
C1374 H1387 0.961 . S
C1374 H1388 0.961 1_545 S
C1375 C1372 1.539 . S
C1375 H1389 0.958 . S
C1375 H1390 0.961 . S
C1375 H1391 0.960 . S
H1376 C1360 0.931 . S
H1377 C1365 0.929 . S
H1378 C1366 0.960 . S
H1379 C1366 0.962 . S
H1380 C1366 0.960 . S
H1381 C1367 0.961 . S
H1382 C1367 0.961 1_565 S
H1383 C1367 0.961 1_565 S
H1384 C1368 0.931 . S
H1385 C1373 0.930 . S
H1386 C1374 0.956 . S
H1387 C1374 0.961 . S
H1388 C1374 0.961 1_565 S
H1389 C1375 0.958 . S
H1390 C1375 0.961 . S
H1391 C1375 0.960 . S
C1392 C1393 1.391 . S
C1392 C1394 1.394 . S
C1392 H1408 0.931 . S
C1393 C1392 1.391 . S
C1393 C1397 1.376 . S
C1394 C1392 1.394 . S
C1394 C1395 1.369 . S
C1394 C1398 1.531 . S
C1395 C1394 1.369 . S
C1395 C1396 1.410 . S
C1395 C1403 1.503 . S
C1396 C1395 1.410 . S
C1396 C1397 1.392 . S
C1396 C1399 1.511 . S
C1397 C1393 1.376 . S
C1397 C1396 1.392 . S
C1397 H1409 0.929 . S
C1398 C1394 1.531 . S
C1398 H1410 0.960 . S
C1398 H1411 0.962 . S
C1398 H1412 0.960 . S
C1399 C1396 1.511 . S
C1399 H1413 0.961 . S
C1399 H1414 0.961 . S
C1399 H1415 0.961 . S
C1400 C1401 1.370 . S
C1400 C1402 1.363 . S
C1400 H1416 0.931 . S
C1401 C1400 1.370 . S
C1401 C1405 1.408 . S
C1402 C1400 1.363 . S
C1402 C1403 1.370 . S
C1402 C1406 1.524 . S
C1403 C1395 1.503 . S
C1403 C1402 1.370 . S
C1403 C1404 1.403 . S
C1404 C1403 1.403 . S
C1404 C1405 1.404 . S
C1404 C1407 1.539 . S
C1405 C1401 1.408 . S
C1405 C1404 1.404 . S
C1405 H1417 0.930 . S
C1406 C1402 1.524 . S
C1406 H1418 0.956 . S
C1406 H1419 0.961 . S
C1406 H1420 0.961 . S
C1407 C1404 1.539 . S
C1407 H1421 0.958 . S
C1407 H1422 0.961 . S
C1407 H1423 0.960 . S
H1408 C1392 0.931 . S
H1409 C1397 0.929 . S
H1410 C1398 0.960 . S
H1411 C1398 0.962 . S
H1412 C1398 0.960 . S
H1413 C1399 0.961 . S
H1414 C1399 0.961 . S
H1415 C1399 0.961 . S
H1416 C1400 0.931 . S
H1417 C1405 0.930 . S
H1418 C1406 0.956 . S
H1419 C1406 0.961 . S
H1420 C1406 0.961 . S
H1421 C1407 0.958 . S
H1422 C1407 0.961 . S
H1423 C1407 0.960 . S
C1424 C1425 1.391 . S
C1424 C1426 1.394 . S
C1424 H1440 0.931 . S
C1425 C1424 1.391 . S
C1425 C1429 1.376 . S
C1426 C1424 1.394 . S
C1426 C1427 1.369 . S
C1426 C1430 1.531 . S
C1427 C1426 1.369 . S
C1427 C1428 1.410 . S
C1427 C1435 1.503 . S
C1428 C1427 1.410 . S
C1428 C1429 1.392 . S
C1428 C1431 1.511 . S
C1429 C1425 1.376 . S
C1429 C1428 1.392 . S
C1429 H1441 0.929 . S
C1430 C1426 1.531 . S
C1430 H1442 0.960 . S
C1430 H1443 0.962 . S
C1430 H1444 0.960 . S
C1431 C1428 1.511 . S
C1431 H1445 0.961 . S
C1431 H1446 0.961 . S
C1431 H1447 0.961 . S
C1432 C1433 1.370 . S
C1432 C1434 1.363 . S
C1432 H1448 0.931 . S
C1433 C1432 1.370 . S
C1433 C1437 1.408 . S
C1434 C1432 1.363 . S
C1434 C1435 1.370 . S
C1434 C1438 1.524 . S
C1435 C1427 1.503 . S
C1435 C1434 1.370 . S
C1435 C1436 1.403 . S
C1436 C1435 1.403 . S
C1436 C1437 1.404 . S
C1436 C1439 1.539 . S
C1437 C1433 1.408 . S
C1437 C1436 1.404 . S
C1437 H1449 0.930 . S
C1438 C1434 1.524 . S
C1438 H1450 0.956 . S
C1438 H1451 0.961 . S
C1438 H1452 0.961 . S
C1439 C1436 1.539 . S
C1439 H1453 0.958 . S
C1439 H1454 0.961 . S
C1439 H1455 0.960 . S
H1440 C1424 0.931 . S
H1441 C1429 0.929 . S
H1442 C1430 0.960 . S
H1443 C1430 0.962 . S
H1444 C1430 0.960 . S
H1445 C1431 0.961 . S
H1446 C1431 0.961 . S
H1447 C1431 0.961 . S
H1448 C1432 0.931 . S
H1449 C1437 0.930 . S
H1450 C1438 0.956 . S
H1451 C1438 0.961 . S
H1452 C1438 0.961 . S
H1453 C1439 0.958 . S
H1454 C1439 0.961 . S
H1455 C1439 0.960 . S
C1456 C1457 1.391 . S
C1456 C1458 1.394 . S
C1456 H1472 0.931 . S
C1457 C1456 1.391 . S
C1457 C1461 1.376 . S
C1458 C1456 1.394 . S
C1458 C1459 1.369 . S
C1458 C1462 1.531 . S
C1459 C1458 1.369 . S
C1459 C1460 1.410 . S
C1459 C1467 1.503 . S
C1460 C1459 1.410 . S
C1460 C1461 1.392 . S
C1460 C1463 1.511 . S
C1461 C1457 1.376 . S
C1461 C1460 1.392 . S
C1461 H1473 0.929 . S
C1462 C1458 1.531 . S
C1462 H1474 0.960 . S
C1462 H1475 0.962 . S
C1462 H1476 0.960 . S
C1463 C1460 1.511 . S
C1463 H1477 0.961 . S
C1463 H1478 0.961 . S
C1463 H1479 0.961 . S
C1464 C1465 1.370 . S
C1464 C1466 1.363 . S
C1464 H1480 0.931 . S
C1465 C1464 1.370 . S
C1465 C1469 1.408 . S
C1466 C1464 1.363 . S
C1466 C1467 1.370 . S
C1466 C1470 1.524 . S
C1467 C1459 1.503 . S
C1467 C1466 1.370 . S
C1467 C1468 1.403 . S
C1468 C1467 1.403 . S
C1468 C1469 1.404 . S
C1468 C1471 1.539 . S
C1469 C1465 1.408 . S
C1469 C1468 1.404 . S
C1469 H1481 0.930 . S
C1470 C1466 1.524 . S
C1470 H1482 0.956 . S
C1470 H1483 0.961 . S
C1470 H1484 0.961 . S
C1471 C1468 1.539 . S
C1471 H1485 0.958 . S
C1471 H1486 0.961 . S
C1471 H1487 0.960 . S
H1472 C1456 0.931 . S
H1473 C1461 0.929 . S
H1474 C1462 0.960 . S
H1475 C1462 0.962 . S
H1476 C1462 0.960 . S
H1477 C1463 0.961 . S
H1478 C1463 0.961 . S
H1479 C1463 0.961 . S
H1480 C1464 0.931 . S
H1481 C1469 0.930 . S
H1482 C1470 0.956 . S
H1483 C1470 0.961 . S
H1484 C1470 0.961 . S
H1485 C1471 0.958 . S
H1486 C1471 0.961 . S
H1487 C1471 0.960 . S
C1488 C1489 1.391 . S
C1488 C1490 1.394 . S
C1488 H1504 0.931 . S
C1489 C1488 1.391 . S
C1489 C1493 1.376 . S
C1490 C1488 1.394 . S
C1490 C1491 1.369 . S
C1490 C1494 1.531 . S
C1491 C1490 1.369 . S
C1491 C1492 1.410 . S
C1491 C1499 1.503 . S
C1492 C1491 1.410 . S
C1492 C1493 1.392 . S
C1492 C1495 1.511 . S
C1493 C1489 1.376 . S
C1493 C1492 1.392 . S
C1493 H1505 0.929 . S
C1494 C1490 1.531 . S
C1494 H1506 0.960 . S
C1494 H1507 0.962 . S
C1494 H1508 0.960 . S
C1495 C1492 1.511 . S
C1495 H1509 0.961 . S
C1495 H1510 0.961 . S
C1495 H1511 0.961 . S
C1496 C1497 1.370 . S
C1496 C1498 1.363 . S
C1496 H1512 0.931 . S
C1497 C1496 1.370 . S
C1497 C1501 1.408 . S
C1498 C1496 1.363 . S
C1498 C1499 1.370 . S
C1498 C1502 1.524 . S
C1499 C1491 1.503 . S
C1499 C1498 1.370 . S
C1499 C1500 1.403 . S
C1500 C1499 1.403 . S
C1500 C1501 1.404 . S
C1500 C1503 1.539 . S
C1501 C1497 1.408 . S
C1501 C1500 1.404 . S
C1501 H1513 0.930 . S
C1502 C1498 1.524 . S
C1502 H1514 0.956 . S
C1502 H1515 0.961 . S
C1502 H1516 0.961 . S
C1503 C1500 1.539 . S
C1503 H1517 0.958 . S
C1503 H1518 0.961 . S
C1503 H1519 0.960 . S
H1504 C1488 0.931 . S
H1505 C1493 0.929 . S
H1506 C1494 0.960 . S
H1507 C1494 0.962 . S
H1508 C1494 0.960 . S
H1509 C1495 0.961 . S
H1510 C1495 0.961 . S
H1511 C1495 0.961 . S
H1512 C1496 0.931 . S
H1513 C1501 0.930 . S
H1514 C1502 0.956 . S
H1515 C1502 0.961 . S
H1516 C1502 0.961 . S
H1517 C1503 0.958 . S
H1518 C1503 0.961 . S
H1519 C1503 0.960 . S
C1520 C1521 1.391 . S
C1520 C1522 1.394 . S
C1520 H1536 0.931 . S
C1521 C1520 1.391 . S
C1521 C1525 1.376 . S
C1522 C1520 1.394 . S
C1522 C1523 1.369 . S
C1522 C1526 1.531 . S
C1523 C1522 1.369 . S
C1523 C1524 1.410 . S
C1523 C1531 1.503 . S
C1524 C1523 1.410 . S
C1524 C1525 1.392 . S
C1524 C1527 1.511 . S
C1525 C1521 1.376 . S
C1525 C1524 1.392 . S
C1525 H1537 0.929 . S
C1526 C1522 1.531 . S
C1526 H1538 0.960 . S
C1526 H1539 0.962 . S
C1526 H1540 0.960 . S
C1527 C1524 1.511 . S
C1527 H1541 0.961 . S
C1527 H1542 0.961 . S
C1527 H1543 0.961 . S
C1528 C1529 1.370 . S
C1528 C1530 1.363 . S
C1528 H1544 0.931 . S
C1529 C1528 1.370 . S
C1529 C1533 1.408 . S
C1530 C1528 1.363 . S
C1530 C1531 1.370 . S
C1530 C1534 1.524 . S
C1531 C1523 1.503 . S
C1531 C1530 1.370 . S
C1531 C1532 1.403 . S
C1532 C1531 1.403 . S
C1532 C1533 1.404 . S
C1532 C1535 1.539 . S
C1533 C1529 1.408 . S
C1533 C1532 1.404 . S
C1533 H1545 0.930 . S
C1534 C1530 1.524 . S
C1534 H1546 0.956 . S
C1534 H1547 0.961 . S
C1534 H1548 0.961 . S
C1535 C1532 1.539 . S
C1535 H1549 0.958 . S
C1535 H1550 0.961 . S
C1535 H1551 0.960 . S
H1536 C1520 0.931 . S
H1537 C1525 0.929 . S
H1538 C1526 0.960 . S
H1539 C1526 0.962 . S
H1540 C1526 0.960 . S
H1541 C1527 0.961 . S
H1542 C1527 0.961 . S
H1543 C1527 0.961 . S
H1544 C1528 0.931 . S
H1545 C1533 0.930 . S
H1546 C1534 0.956 . S
H1547 C1534 0.961 . S
H1548 C1534 0.961 . S
H1549 C1535 0.958 . S
H1550 C1535 0.961 . S
H1551 C1535 0.960 . S
C1552 C1553 1.391 . S
C1552 C1554 1.394 . S
C1552 H1568 0.931 . S
C1553 C1552 1.391 . S
C1553 C1557 1.376 . S
C1554 C1552 1.394 . S
C1554 C1555 1.369 . S
C1554 C1558 1.531 . S
C1555 C1554 1.369 . S
C1555 C1556 1.410 . S
C1555 C1563 1.503 . S
C1556 C1555 1.410 . S
C1556 C1557 1.392 . S
C1556 C1559 1.511 . S
C1557 C1553 1.376 . S
C1557 C1556 1.392 . S
C1557 H1569 0.929 . S
C1558 C1554 1.531 . S
C1558 H1570 0.960 . S
C1558 H1571 0.962 . S
C1558 H1572 0.960 . S
C1559 C1556 1.511 . S
C1559 H1573 0.961 . S
C1559 H1574 0.961 . S
C1559 H1575 0.961 . S
C1560 C1561 1.370 . S
C1560 C1562 1.363 . S
C1560 H1576 0.931 . S
C1561 C1560 1.370 . S
C1561 C1565 1.408 . S
C1562 C1560 1.363 . S
C1562 C1563 1.370 . S
C1562 C1566 1.524 . S
C1563 C1555 1.503 . S
C1563 C1562 1.370 . S
C1563 C1564 1.403 . S
C1564 C1563 1.403 . S
C1564 C1565 1.404 . S
C1564 C1567 1.539 . S
C1565 C1561 1.408 . S
C1565 C1564 1.404 . S
C1565 H1577 0.930 . S
C1566 C1562 1.524 . S
C1566 H1578 0.956 . S
C1566 H1579 0.961 . S
C1566 H1580 0.961 . S
C1567 C1564 1.539 . S
C1567 H1581 0.958 . S
C1567 H1582 0.961 . S
C1567 H1583 0.960 . S
H1568 C1552 0.931 . S
H1569 C1557 0.929 . S
H1570 C1558 0.960 . S
H1571 C1558 0.962 . S
H1572 C1558 0.960 . S
H1573 C1559 0.961 . S
H1574 C1559 0.961 . S
H1575 C1559 0.961 . S
H1576 C1560 0.931 . S
H1577 C1565 0.930 . S
H1578 C1566 0.956 . S
H1579 C1566 0.961 . S
H1580 C1566 0.961 . S
H1581 C1567 0.958 . S
H1582 C1567 0.961 . S
H1583 C1567 0.960 . S
C1584 C1585 1.391 . S
C1584 C1586 1.394 . S
C1584 H1600 0.931 . S
C1585 C1584 1.391 . S
C1585 C1589 1.376 . S
C1586 C1584 1.394 . S
C1586 C1587 1.369 . S
C1586 C1590 1.531 1_565 S
C1587 C1586 1.369 . S
C1587 C1588 1.410 . S
C1587 C1595 1.503 1_566 S
C1588 C1587 1.410 . S
C1588 C1589 1.392 . S
C1588 C1591 1.511 1_556 S
C1589 C1585 1.376 . S
C1589 C1588 1.392 . S
C1589 H1601 0.929 . S
C1590 C1586 1.531 1_545 S
C1590 H1602 0.960 . S
C1590 H1603 0.962 . S
C1590 H1604 0.960 . S
C1591 C1588 1.511 1_554 S
C1591 H1605 0.961 . S
C1591 H1606 0.961 . S
C1591 H1607 0.961 1_554 S
C1592 C1593 1.370 . S
C1592 C1594 1.363 . S
C1592 H1608 0.931 . S
C1593 C1592 1.370 . S
C1593 C1597 1.408 . S
C1594 C1592 1.363 . S
C1594 C1595 1.370 . S
C1594 C1598 1.524 1_545 S
C1595 C1587 1.503 1_544 S
C1595 C1594 1.370 . S
C1595 C1596 1.403 1_554 S
C1596 C1595 1.403 1_556 S
C1596 C1597 1.404 1_556 S
C1596 C1599 1.539 . S
C1597 C1593 1.408 . S
C1597 C1596 1.404 1_554 S
C1597 H1609 0.930 . S
C1598 C1594 1.524 1_565 S
C1598 H1610 0.956 . S
C1598 H1611 0.961 . S
C1598 H1612 0.961 . S
C1599 C1596 1.539 . S
C1599 H1613 0.958 . S
C1599 H1614 0.961 . S
C1599 H1615 0.960 . S
H1600 C1584 0.931 . S
H1601 C1589 0.929 . S
H1602 C1590 0.960 . S
H1603 C1590 0.962 . S
H1604 C1590 0.960 . S
H1605 C1591 0.961 . S
H1606 C1591 0.961 . S
H1607 C1591 0.961 1_556 S
H1608 C1592 0.931 . S
H1609 C1597 0.930 . S
H1610 C1598 0.956 . S
H1611 C1598 0.961 . S
H1612 C1598 0.961 . S
H1613 C1599 0.958 . S
H1614 C1599 0.961 . S
H1615 C1599 0.960 . S
C1616 C1617 1.391 . S
C1616 C1618 1.394 . S
C1616 H1632 0.931 . S
C1617 C1616 1.391 . S
C1617 C1621 1.376 . S
C1618 C1616 1.394 . S
C1618 C1619 1.369 . S
C1618 C1622 1.531 . S
C1619 C1618 1.369 . S
C1619 C1620 1.410 . S
C1619 C1627 1.503 . S
C1620 C1619 1.410 . S
C1620 C1621 1.392 . S
C1620 C1623 1.511 . S
C1621 C1617 1.376 . S
C1621 C1620 1.392 . S
C1621 H1633 0.929 . S
C1622 C1618 1.531 . S
C1622 H1634 0.960 . S
C1622 H1635 0.962 . S
C1622 H1636 0.960 . S
C1623 C1620 1.511 . S
C1623 H1637 0.961 . S
C1623 H1638 0.961 . S
C1623 H1639 0.961 . S
C1624 C1625 1.370 . S
C1624 C1626 1.363 . S
C1624 H1640 0.931 . S
C1625 C1624 1.370 . S
C1625 C1629 1.408 . S
C1626 C1624 1.363 . S
C1626 C1627 1.370 . S
C1626 C1630 1.524 . S
C1627 C1619 1.503 . S
C1627 C1626 1.370 . S
C1627 C1628 1.403 . S
C1628 C1627 1.403 . S
C1628 C1629 1.404 . S
C1628 C1631 1.539 . S
C1629 C1625 1.408 . S
C1629 C1628 1.404 . S
C1629 H1641 0.930 . S
C1630 C1626 1.524 . S
C1630 H1642 0.956 . S
C1630 H1643 0.961 . S
C1630 H1644 0.961 . S
C1631 C1628 1.539 . S
C1631 H1645 0.958 . S
C1631 H1646 0.961 . S
C1631 H1647 0.960 . S
H1632 C1616 0.931 . S
H1633 C1621 0.929 . S
H1634 C1622 0.960 . S
H1635 C1622 0.962 . S
H1636 C1622 0.960 . S
H1637 C1623 0.961 . S
H1638 C1623 0.961 . S
H1639 C1623 0.961 . S
H1640 C1624 0.931 . S
H1641 C1629 0.930 . S
H1642 C1630 0.956 . S
H1643 C1630 0.961 . S
H1644 C1630 0.961 . S
H1645 C1631 0.958 . S
H1646 C1631 0.961 . S
H1647 C1631 0.960 . S
C1648 C1649 1.391 . S
C1648 C1650 1.392 . S
C1648 H1664 0.931 . S
C1649 C1648 1.391 . S
C1649 C1653 1.376 . S
C1650 C1648 1.392 . S
C1650 C1651 1.368 . S
C1650 C1654 1.533 1_556 S
C1651 C1650 1.368 . S
C1651 C1652 1.410 . S
C1651 C1659 1.503 1_456 S
C1652 C1651 1.410 . S
C1652 C1653 1.392 . S
C1652 C1655 1.511 1_455 S
C1653 C1649 1.376 . S
C1653 C1652 1.392 . S
C1653 H1665 0.929 . S
C1654 C1650 1.533 1_554 S
C1654 H1666 0.960 . S
C1654 H1667 0.962 . S
C1654 H1668 0.960 . S
C1655 C1652 1.511 1_655 S
C1655 H1669 0.961 . S
C1655 H1670 0.961 . S
C1655 H1671 0.961 . S
C1656 C1657 1.370 . S
C1656 C1658 1.363 . S
C1656 H1672 0.931 . S
C1657 C1656 1.370 . S
C1657 C1661 1.408 . S
C1658 C1656 1.363 . S
C1658 C1659 1.370 . S
C1658 C1662 1.524 . S
C1659 C1651 1.503 1_654 S
C1659 C1658 1.370 . S
C1659 C1660 1.403 . S
C1660 C1659 1.403 . S
C1660 C1661 1.404 . S
C1660 C1663 1.539 1_554 S
C1661 C1657 1.408 . S
C1661 C1660 1.404 . S
C1661 H1673 0.930 . S
C1662 C1658 1.524 . S
C1662 H1674 0.956 1_655 S
C1662 H1675 0.957 1_654 S
C1662 H1676 0.961 . S
C1663 C1660 1.539 1_556 S
C1663 H1677 0.958 1_556 S
C1663 H1678 0.961 . S
C1663 H1679 0.960 . S
H1664 C1648 0.931 . S
H1665 C1653 0.929 . S
H1666 C1654 0.960 . S
H1667 C1654 0.962 . S
H1668 C1654 0.960 . S
H1669 C1655 0.961 . S
H1670 C1655 0.961 . S
H1671 C1655 0.961 . S
H1672 C1656 0.931 . S
H1673 C1661 0.930 . S
H1674 C1662 0.956 1_455 S
H1675 C1662 0.957 1_456 S
H1676 C1662 0.961 . S
H1677 C1663 0.958 1_554 S
H1678 C1663 0.961 . S
H1679 C1663 0.960 . S
C1680 C1681 1.391 . S
C1680 C1682 1.394 . S
C1680 H1696 0.931 . S
C1681 C1680 1.391 . S
C1681 C1685 1.376 . S
C1682 C1680 1.394 . S
C1682 C1683 1.369 . S
C1682 C1686 1.531 . S
C1683 C1682 1.369 . S
C1683 C1684 1.410 . S
C1683 C1691 1.503 1_545 S
C1684 C1683 1.410 . S
C1684 C1685 1.392 . S
C1684 C1687 1.511 1_545 S
C1685 C1681 1.376 . S
C1685 C1684 1.392 . S
C1685 H1697 0.929 . S
C1686 C1682 1.531 . S
C1686 H1698 0.960 . S
C1686 H1699 0.962 . S
C1686 H1700 0.960 . S
C1687 C1684 1.511 1_565 S
C1687 H1701 0.961 . S
C1687 H1702 0.961 . S
C1687 H1703 0.961 1_565 S
C1688 C1689 1.370 . S
C1688 C1690 1.363 . S
C1688 H1704 0.931 . S
C1689 C1688 1.370 . S
C1689 C1693 1.408 . S
C1690 C1688 1.363 . S
C1690 C1691 1.370 . S
C1690 C1694 1.524 . S
C1691 C1683 1.503 1_565 S
C1691 C1690 1.370 . S
C1691 C1692 1.403 . S
C1692 C1691 1.403 . S
C1692 C1693 1.404 . S
C1692 C1695 1.539 1_565 S
C1693 C1689 1.408 . S
C1693 C1692 1.404 . S
C1693 H1705 0.930 . S
C1694 C1690 1.524 . S
C1694 H1706 0.956 . S
C1694 H1707 0.961 . S
C1694 H1708 0.961 . S
C1695 C1692 1.539 1_545 S
C1695 H1709 0.958 . S
C1695 H1710 0.961 . S
C1695 H1711 0.960 . S
H1696 C1680 0.931 . S
H1697 C1685 0.929 . S
H1698 C1686 0.960 . S
H1699 C1686 0.962 . S
H1700 C1686 0.960 . S
H1701 C1687 0.961 . S
H1702 C1687 0.961 . S
H1703 C1687 0.961 1_545 S
H1704 C1688 0.931 . S
H1705 C1693 0.930 . S
H1706 C1694 0.956 . S
H1707 C1694 0.961 . S
H1708 C1694 0.961 . S
H1709 C1695 0.958 . S
H1710 C1695 0.961 . S
H1711 C1695 0.960 . S
C1712 C1713 1.391 . S
C1712 C1714 1.394 . S
C1712 H1728 0.931 . S
C1713 C1712 1.391 . S
C1713 C1717 1.376 . S
C1714 C1712 1.394 . S
C1714 C1715 1.369 . S
C1714 C1718 1.531 . S
C1715 C1714 1.369 . S
C1715 C1716 1.410 . S
C1715 C1723 1.503 1_554 S
C1716 C1715 1.410 . S
C1716 C1717 1.392 . S
C1716 C1719 1.511 . S
C1717 C1713 1.376 . S
C1717 C1716 1.392 . S
C1717 H1729 0.929 . S
C1718 C1714 1.531 . S
C1718 H1730 0.960 . S
C1718 H1731 0.962 1_554 S
C1718 H1732 0.960 . S
C1719 C1716 1.511 . S
C1719 H1733 0.961 . S
C1719 H1734 0.947 1_554 S
C1719 H1735 0.961 . S
C1720 C1721 1.370 . S
C1720 C1722 1.363 . S
C1720 H1736 0.931 . S
C1721 C1720 1.370 . S
C1721 C1725 1.408 . S
C1722 C1720 1.363 . S
C1722 C1723 1.370 . S
C1722 C1726 1.524 . S
C1723 C1715 1.503 1_556 S
C1723 C1722 1.370 . S
C1723 C1724 1.403 1_556 S
C1724 C1723 1.403 1_554 S
C1724 C1725 1.404 1_554 S
C1724 C1727 1.539 . S
C1725 C1721 1.408 . S
C1725 C1724 1.404 1_556 S
C1725 H1737 0.930 . S
C1726 C1722 1.524 . S
C1726 H1738 0.956 . S
C1726 H1739 0.961 . S
C1726 H1740 0.961 . S
C1727 C1724 1.539 . S
C1727 H1741 0.958 . S
C1727 H1742 0.961 . S
C1727 H1743 0.960 . S
H1728 C1712 0.931 . S
H1729 C1717 0.929 . S
H1730 C1718 0.960 . S
H1731 C1718 0.962 1_556 S
H1732 C1718 0.960 . S
H1733 C1719 0.961 . S
H1734 C1719 0.947 1_556 S
H1735 C1719 0.961 . S
H1736 C1720 0.931 . S
H1737 C1725 0.930 . S
H1738 C1726 0.956 . S
H1739 C1726 0.961 . S
H1740 C1726 0.961 . S
H1741 C1727 0.958 . S
H1742 C1727 0.961 . S
H1743 C1727 0.960 . S
C1744 C1745 1.391 . S
C1744 C1746 1.394 . S
C1744 H1760 0.931 . S
C1745 C1744 1.391 . S
C1745 C1749 1.376 . S
C1746 C1744 1.394 . S
C1746 C1747 1.369 . S
C1746 C1750 1.531 1_455 S
C1747 C1746 1.369 . S
C1747 C1748 1.410 . S
C1747 C1755 1.503 1_455 S
C1748 C1747 1.410 . S
C1748 C1749 1.392 . S
C1748 C1751 1.511 . S
C1749 C1745 1.376 . S
C1749 C1748 1.392 . S
C1749 H1761 0.929 . S
C1750 C1746 1.531 1_655 S
C1750 H1762 0.960 . S
C1750 H1763 0.962 . S
C1750 H1764 0.960 1_655 S
C1751 C1748 1.511 . S
C1751 H1765 0.961 . S
C1751 H1766 0.961 . S
C1751 H1767 0.961 . S
C1752 C1753 1.370 . S
C1752 C1754 1.363 . S
C1752 H1768 0.931 . S
C1753 C1752 1.370 . S
C1753 C1757 1.408 . S
C1754 C1752 1.363 . S
C1754 C1755 1.370 . S
C1754 C1758 1.524 . S
C1755 C1747 1.503 1_655 S
C1755 C1754 1.370 . S
C1755 C1756 1.403 . S
C1756 C1755 1.403 . S
C1756 C1757 1.404 . S
C1756 C1759 1.539 1_655 S
C1757 C1753 1.408 . S
C1757 C1756 1.404 . S
C1757 H1769 0.930 . S
C1758 C1754 1.524 . S
C1758 H1770 0.956 . S
C1758 H1771 0.961 . S
C1758 H1772 0.961 . S
C1759 C1756 1.539 1_455 S
C1759 H1773 0.958 . S
C1759 H1774 0.961 . S
C1759 H1775 0.960 . S
H1760 C1744 0.931 . S
H1761 C1749 0.929 . S
H1762 C1750 0.960 . S
H1763 C1750 0.962 . S
H1764 C1750 0.960 1_455 S
H1765 C1751 0.961 . S
H1766 C1751 0.961 . S
H1767 C1751 0.961 . S
H1768 C1752 0.931 . S
H1769 C1757 0.930 . S
H1770 C1758 0.956 . S
H1771 C1758 0.961 . S
H1772 C1758 0.961 . S
H1773 C1759 0.958 . S
H1774 C1759 0.961 . S
H1775 C1759 0.960 . S
C1776 C1777 1.391 . S
C1776 C1778 1.394 . S
C1776 H1792 0.931 . S
C1777 C1776 1.391 . S
C1777 C1781 1.376 . S
C1778 C1776 1.394 . S
C1778 C1779 1.369 . S
C1778 C1782 1.531 . S
C1779 C1778 1.369 . S
C1779 C1780 1.410 . S
C1779 C1787 1.503 . S
C1780 C1779 1.410 . S
C1780 C1781 1.392 . S
C1780 C1783 1.511 . S
C1781 C1777 1.376 . S
C1781 C1780 1.392 . S
C1781 H1793 0.929 . S
C1782 C1778 1.531 . S
C1782 H1794 0.960 . S
C1782 H1795 0.962 . S
C1782 H1796 0.960 . S
C1783 C1780 1.511 . S
C1783 H1797 0.961 . S
C1783 H1798 0.961 . S
C1783 H1799 0.961 . S
C1784 C1785 1.370 . S
C1784 C1786 1.363 . S
C1784 H1800 0.931 . S
C1785 C1784 1.370 . S
C1785 C1789 1.408 . S
C1786 C1784 1.363 . S
C1786 C1787 1.370 . S
C1786 C1790 1.524 . S
C1787 C1779 1.503 . S
C1787 C1786 1.370 . S
C1787 C1788 1.403 . S
C1788 C1787 1.403 . S
C1788 C1789 1.404 . S
C1788 C1791 1.539 . S
C1789 C1785 1.408 . S
C1789 C1788 1.404 . S
C1789 H1801 0.930 . S
C1790 C1786 1.524 . S
C1790 H1802 0.956 . S
C1790 H1803 0.961 . S
C1790 H1804 0.961 . S
C1791 C1788 1.539 . S
C1791 H1805 0.958 . S
C1791 H1806 0.961 . S
C1791 H1807 0.960 . S
H1792 C1776 0.931 . S
H1793 C1781 0.929 . S
H1794 C1782 0.960 . S
H1795 C1782 0.962 . S
H1796 C1782 0.960 . S
H1797 C1783 0.961 . S
H1798 C1783 0.961 . S
H1799 C1783 0.961 . S
H1800 C1784 0.931 . S
H1801 C1789 0.930 . S
H1802 C1790 0.956 . S
H1803 C1790 0.961 . S
H1804 C1790 0.961 . S
H1805 C1791 0.958 . S
H1806 C1791 0.961 . S
H1807 C1791 0.960 . S
C1808 C1809 1.391 . S
C1808 C1810 1.394 . S
C1808 H1824 0.931 . S
C1809 C1808 1.391 . S
C1809 C1813 1.376 . S
C1810 C1808 1.394 . S
C1810 C1811 1.369 . S
C1810 C1814 1.531 . S
C1811 C1810 1.369 . S
C1811 C1812 1.410 . S
C1811 C1819 1.503 . S
C1812 C1811 1.410 . S
C1812 C1813 1.392 . S
C1812 C1815 1.511 . S
C1813 C1809 1.376 . S
C1813 C1812 1.392 . S
C1813 H1825 0.929 . S
C1814 C1810 1.531 . S
C1814 H1826 0.960 . S
C1814 H1827 0.962 . S
C1814 H1828 0.960 . S
C1815 C1812 1.511 . S
C1815 H1829 0.961 . S
C1815 H1830 0.961 . S
C1815 H1831 0.961 . S
C1816 C1817 1.370 . S
C1816 C1818 1.363 . S
C1816 H1832 0.931 . S
C1817 C1816 1.370 . S
C1817 C1821 1.408 . S
C1818 C1816 1.363 . S
C1818 C1819 1.370 . S
C1818 C1822 1.524 . S
C1819 C1811 1.503 . S
C1819 C1818 1.370 . S
C1819 C1820 1.403 . S
C1820 C1819 1.403 . S
C1820 C1821 1.404 . S
C1820 C1823 1.539 . S
C1821 C1817 1.408 . S
C1821 C1820 1.404 . S
C1821 H1833 0.930 . S
C1822 C1818 1.524 . S
C1822 H1834 0.956 . S
C1822 H1835 0.961 . S
C1822 H1836 0.961 . S
C1823 C1820 1.539 . S
C1823 H1837 0.958 . S
C1823 H1838 0.961 . S
C1823 H1839 0.960 . S
H1824 C1808 0.931 . S
H1825 C1813 0.929 . S
H1826 C1814 0.960 . S
H1827 C1814 0.962 . S
H1828 C1814 0.960 . S
H1829 C1815 0.961 . S
H1830 C1815 0.961 . S
H1831 C1815 0.961 . S
H1832 C1816 0.931 . S
H1833 C1821 0.930 . S
H1834 C1822 0.956 . S
H1835 C1822 0.961 . S
H1836 C1822 0.961 . S
H1837 C1823 0.958 . S
H1838 C1823 0.961 . S
H1839 C1823 0.960 . S
C1840 C1841 1.391 . S
C1840 C1842 1.394 . S
C1840 H1856 0.931 . S
C1841 C1840 1.391 . S
C1841 C1845 1.376 . S
C1842 C1840 1.394 . S
C1842 C1843 1.369 . S
C1842 C1846 1.531 . S
C1843 C1842 1.369 . S
C1843 C1844 1.410 . S
C1843 C1851 1.503 . S
C1844 C1843 1.410 . S
C1844 C1845 1.392 . S
C1844 C1847 1.511 . S
C1845 C1841 1.376 . S
C1845 C1844 1.392 . S
C1845 H1857 0.929 . S
C1846 C1842 1.531 . S
C1846 H1858 0.960 . S
C1846 H1859 0.962 . S
C1846 H1860 0.960 . S
C1847 C1844 1.511 . S
C1847 H1861 0.961 . S
C1847 H1862 0.961 . S
C1847 H1863 0.961 . S
C1848 C1849 1.370 . S
C1848 C1850 1.363 . S
C1848 H1864 0.931 . S
C1849 C1848 1.370 . S
C1849 C1853 1.408 . S
C1850 C1848 1.363 . S
C1850 C1851 1.370 . S
C1850 C1854 1.524 . S
C1851 C1843 1.503 . S
C1851 C1850 1.370 . S
C1851 C1852 1.403 . S
C1852 C1851 1.403 . S
C1852 C1853 1.404 . S
C1852 C1855 1.539 . S
C1853 C1849 1.408 . S
C1853 C1852 1.404 . S
C1853 H1865 0.930 . S
C1854 C1850 1.524 . S
C1854 H1866 0.956 . S
C1854 H1867 0.961 . S
C1854 H1868 0.961 . S
C1855 C1852 1.539 . S
C1855 H1869 0.958 . S
C1855 H1870 0.961 . S
C1855 H1871 0.960 . S
H1856 C1840 0.931 . S
H1857 C1845 0.929 . S
H1858 C1846 0.960 . S
H1859 C1846 0.962 . S
H1860 C1846 0.960 . S
H1861 C1847 0.961 . S
H1862 C1847 0.961 . S
H1863 C1847 0.961 . S
H1864 C1848 0.931 . S
H1865 C1853 0.930 . S
H1866 C1854 0.956 . S
H1867 C1854 0.961 . S
H1868 C1854 0.961 . S
H1869 C1855 0.958 . S
H1870 C1855 0.961 . S
H1871 C1855 0.960 . S
C1872 C1873 1.391 . S
C1872 C1874 1.394 . S
C1872 H1888 0.931 . S
C1873 C1872 1.391 . S
C1873 C1877 1.376 . S
C1874 C1872 1.394 . S
C1874 C1875 1.369 . S
C1874 C1878 1.531 . S
C1875 C1874 1.369 . S
C1875 C1876 1.410 . S
C1875 C1883 1.503 . S
C1876 C1875 1.410 . S
C1876 C1877 1.392 . S
C1876 C1879 1.511 . S
C1877 C1873 1.376 . S
C1877 C1876 1.392 . S
C1877 H1889 0.929 . S
C1878 C1874 1.531 . S
C1878 H1890 0.960 . S
C1878 H1891 0.962 . S
C1878 H1892 0.960 . S
C1879 C1876 1.511 . S
C1879 H1893 0.961 . S
C1879 H1894 0.961 . S
C1879 H1895 0.961 . S
C1880 C1881 1.370 . S
C1880 C1882 1.363 . S
C1880 H1896 0.931 . S
C1881 C1880 1.370 . S
C1881 C1885 1.408 . S
C1882 C1880 1.363 . S
C1882 C1883 1.370 . S
C1882 C1886 1.524 . S
C1883 C1875 1.503 . S
C1883 C1882 1.370 . S
C1883 C1884 1.403 . S
C1884 C1883 1.403 . S
C1884 C1885 1.404 . S
C1884 C1887 1.539 . S
C1885 C1881 1.408 . S
C1885 C1884 1.404 . S
C1885 H1897 0.930 . S
C1886 C1882 1.524 . S
C1886 H1898 0.956 . S
C1886 H1899 0.961 . S
C1886 H1900 0.961 . S
C1887 C1884 1.539 . S
C1887 H1901 0.958 . S
C1887 H1902 0.961 . S
C1887 H1903 0.960 . S
H1888 C1872 0.931 . S
H1889 C1877 0.929 . S
H1890 C1878 0.960 . S
H1891 C1878 0.962 . S
H1892 C1878 0.960 . S
H1893 C1879 0.961 . S
H1894 C1879 0.961 . S
H1895 C1879 0.961 . S
H1896 C1880 0.931 . S
H1897 C1885 0.930 . S
H1898 C1886 0.956 . S
H1899 C1886 0.961 . S
H1900 C1886 0.961 . S
H1901 C1887 0.958 . S
H1902 C1887 0.961 . S
H1903 C1887 0.960 . S
C1904 C1905 1.391 . S
C1904 C1906 1.394 . S
C1904 H1920 0.931 . S
C1905 C1904 1.391 . S
C1905 C1909 1.376 . S
C1906 C1904 1.394 . S
C1906 C1907 1.369 . S
C1906 C1910 1.531 . S
C1907 C1906 1.369 . S
C1907 C1908 1.410 . S
C1907 C1915 1.503 . S
C1908 C1907 1.410 . S
C1908 C1909 1.392 . S
C1908 C1911 1.511 . S
C1909 C1905 1.376 . S
C1909 C1908 1.392 . S
C1909 H1921 0.929 . S
C1910 C1906 1.531 . S
C1910 H1922 0.960 . S
C1910 H1923 0.962 . S
C1910 H1924 0.960 . S
C1911 C1908 1.511 . S
C1911 H1925 0.961 . S
C1911 H1926 0.961 . S
C1911 H1927 0.961 . S
C1912 C1913 1.370 . S
C1912 C1914 1.363 . S
C1912 H1928 0.931 . S
C1913 C1912 1.370 . S
C1913 C1917 1.408 . S
C1914 C1912 1.363 . S
C1914 C1915 1.370 . S
C1914 C1918 1.524 . S
C1915 C1907 1.503 . S
C1915 C1914 1.370 . S
C1915 C1916 1.403 . S
C1916 C1915 1.403 . S
C1916 C1917 1.404 . S
C1916 C1919 1.539 . S
C1917 C1913 1.408 . S
C1917 C1916 1.404 . S
C1917 H1929 0.930 . S
C1918 C1914 1.524 . S
C1918 H1930 0.956 . S
C1918 H1931 0.961 . S
C1918 H1932 0.961 . S
C1919 C1916 1.539 . S
C1919 H1933 0.958 . S
C1919 H1934 0.961 . S
C1919 H1935 0.960 . S
H1920 C1904 0.931 . S
H1921 C1909 0.929 . S
H1922 C1910 0.960 . S
H1923 C1910 0.962 . S
H1924 C1910 0.960 . S
H1925 C1911 0.961 . S
H1926 C1911 0.961 . S
H1927 C1911 0.961 . S
H1928 C1912 0.931 . S
H1929 C1917 0.930 . S
H1930 C1918 0.956 . S
H1931 C1918 0.961 . S
H1932 C1918 0.961 . S
H1933 C1919 0.958 . S
H1934 C1919 0.961 . S
H1935 C1919 0.960 . S
C1936 C1937 1.391 . S
C1936 C1938 1.394 . S
C1936 H1952 0.931 . S
C1937 C1936 1.391 . S
C1937 C1941 1.376 . S
C1938 C1936 1.394 . S
C1938 C1939 1.369 . S
C1938 C1942 1.531 . S
C1939 C1938 1.369 . S
C1939 C1940 1.410 . S
C1939 C1947 1.503 . S
C1940 C1939 1.410 . S
C1940 C1941 1.392 . S
C1940 C1943 1.511 . S
C1941 C1937 1.376 . S
C1941 C1940 1.392 . S
C1941 H1953 0.929 . S
C1942 C1938 1.531 . S
C1942 H1954 0.960 . S
C1942 H1955 0.962 . S
C1942 H1956 0.960 . S
C1943 C1940 1.511 . S
C1943 H1957 0.961 . S
C1943 H1958 0.961 . S
C1943 H1959 0.961 . S
C1944 C1945 1.370 . S
C1944 C1946 1.363 . S
C1944 H1960 0.931 . S
C1945 C1944 1.370 . S
C1945 C1949 1.408 . S
C1946 C1944 1.363 . S
C1946 C1947 1.370 . S
C1946 C1950 1.524 . S
C1947 C1939 1.503 . S
C1947 C1946 1.370 . S
C1947 C1948 1.403 . S
C1948 C1947 1.403 . S
C1948 C1949 1.404 . S
C1948 C1951 1.539 . S
C1949 C1945 1.408 . S
C1949 C1948 1.404 . S
C1949 H1961 0.930 . S
C1950 C1946 1.524 . S
C1950 H1962 0.956 . S
C1950 H1963 0.961 . S
C1950 H1964 0.961 . S
C1951 C1948 1.539 . S
C1951 H1965 0.958 . S
C1951 H1966 0.961 . S
C1951 H1967 0.960 . S
H1952 C1936 0.931 . S
H1953 C1941 0.929 . S
H1954 C1942 0.960 . S
H1955 C1942 0.962 . S
H1956 C1942 0.960 . S
H1957 C1943 0.961 . S
H1958 C1943 0.961 . S
H1959 C1943 0.961 . S
H1960 C1944 0.931 . S
H1961 C1949 0.930 . S
H1962 C1950 0.956 . S
H1963 C1950 0.961 . S
H1964 C1950 0.961 . S
H1965 C1951 0.958 . S
H1966 C1951 0.961 . S
H1967 C1951 0.960 . S
C1968 C1969 1.391 . S
C1968 C1970 1.394 . S
C1968 H1984 0.931 . S
C1969 C1968 1.391 . S
C1969 C1973 1.376 . S
C1970 C1968 1.394 . S
C1970 C1971 1.369 . S
C1970 C1974 1.531 . S
C1971 C1970 1.369 . S
C1971 C1972 1.410 . S
C1971 C1979 1.503 . S
C1972 C1971 1.410 . S
C1972 C1973 1.392 . S
C1972 C1975 1.511 . S
C1973 C1969 1.376 . S
C1973 C1972 1.392 . S
C1973 H1985 0.929 . S
C1974 C1970 1.531 . S
C1974 H1986 0.960 . S
C1974 H1987 0.962 . S
C1974 H1988 0.960 . S
C1975 C1972 1.511 . S
C1975 H1989 0.961 . S
C1975 H1990 0.961 . S
C1975 H1991 0.961 . S
C1976 C1977 1.370 . S
C1976 C1978 1.363 . S
C1976 H1992 0.931 . S
C1977 C1976 1.370 . S
C1977 C1981 1.408 . S
C1978 C1976 1.363 . S
C1978 C1979 1.370 . S
C1978 C1982 1.524 . S
C1979 C1971 1.503 . S
C1979 C1978 1.370 . S
C1979 C1980 1.403 . S
C1980 C1979 1.403 . S
C1980 C1981 1.404 . S
C1980 C1983 1.539 . S
C1981 C1977 1.408 . S
C1981 C1980 1.404 . S
C1981 H1993 0.930 . S
C1982 C1978 1.524 . S
C1982 H1994 0.956 . S
C1982 H1995 0.961 . S
C1982 H1996 0.961 . S
C1983 C1980 1.539 . S
C1983 H1997 0.958 . S
C1983 H1998 0.961 . S
C1983 H1999 0.960 . S
H1984 C1968 0.931 . S
H1985 C1973 0.929 . S
H1986 C1974 0.960 . S
H1987 C1974 0.962 . S
H1988 C1974 0.960 . S
H1989 C1975 0.961 . S
H1990 C1975 0.961 . S
H1991 C1975 0.961 . S
H1992 C1976 0.931 . S
H1993 C1981 0.930 . S
H1994 C1982 0.956 . S
H1995 C1982 0.961 . S
H1996 C1982 0.961 . S
H1997 C1983 0.958 . S
H1998 C1983 0.961 . S
H1999 C1983 0.960 . S
C2000 C2001 1.391 . S
C2000 C2002 1.394 . S
C2000 H2016 0.931 . S
C2001 C2000 1.391 . S
C2001 C2005 1.376 . S
C2002 C2000 1.394 . S
C2002 C2003 1.369 . S
C2002 C2006 1.531 . S
C2003 C2002 1.369 . S
C2003 C2004 1.410 . S
C2003 C2011 1.503 . S
C2004 C2003 1.410 . S
C2004 C2005 1.392 . S
C2004 C2007 1.511 . S
C2005 C2001 1.376 . S
C2005 C2004 1.392 . S
C2005 H2017 0.929 . S
C2006 C2002 1.531 . S
C2006 H2018 0.960 . S
C2006 H2019 0.962 . S
C2006 H2020 0.960 . S
C2007 C2004 1.511 . S
C2007 H2021 0.961 . S
C2007 H2022 0.961 . S
C2007 H2023 0.961 . S
C2008 C2009 1.370 . S
C2008 C2010 1.363 . S
C2008 H2024 0.931 . S
C2009 C2008 1.370 . S
C2009 C2013 1.408 . S
C2010 C2008 1.363 . S
C2010 C2011 1.370 . S
C2010 C2014 1.524 . S
C2011 C2003 1.503 . S
C2011 C2010 1.370 . S
C2011 C2012 1.403 . S
C2012 C2011 1.403 . S
C2012 C2013 1.404 . S
C2012 C2015 1.539 . S
C2013 C2009 1.408 . S
C2013 C2012 1.404 . S
C2013 H2025 0.930 . S
C2014 C2010 1.524 . S
C2014 H2026 0.956 . S
C2014 H2027 0.961 . S
C2014 H2028 0.961 . S
C2015 C2012 1.539 . S
C2015 H2029 0.958 . S
C2015 H2030 0.961 . S
C2015 H2031 0.960 . S
H2016 C2000 0.931 . S
H2017 C2005 0.929 . S
H2018 C2006 0.960 . S
H2019 C2006 0.962 . S
H2020 C2006 0.960 . S
H2021 C2007 0.961 . S
H2022 C2007 0.961 . S
H2023 C2007 0.961 . S
H2024 C2008 0.931 . S
H2025 C2013 0.930 . S
H2026 C2014 0.956 . S
H2027 C2014 0.961 . S
H2028 C2014 0.961 . S
H2029 C2015 0.958 . S
H2030 C2015 0.961 . S
H2031 C2015 0.960 . S
C2032 C2033 1.391 . S
C2032 C2034 1.394 . S
C2032 H2048 0.931 . S
C2033 C2032 1.391 . S
C2033 C2037 1.376 . S
C2034 C2032 1.394 . S
C2034 C2035 1.369 . S
C2034 C2038 1.531 . S
C2035 C2034 1.369 . S
C2035 C2036 1.410 . S
C2035 C2043 1.503 . S
C2036 C2035 1.410 . S
C2036 C2037 1.392 . S
C2036 C2039 1.511 . S
C2037 C2033 1.376 . S
C2037 C2036 1.392 . S
C2037 H2049 0.929 . S
C2038 C2034 1.531 . S
C2038 H2050 0.960 . S
C2038 H2051 0.962 . S
C2038 H2052 0.960 . S
C2039 C2036 1.511 . S
C2039 H2053 0.961 . S
C2039 H2054 0.961 . S
C2039 H2055 0.961 . S
C2040 C2041 1.370 . S
C2040 C2042 1.363 . S
C2040 H2056 0.931 . S
C2041 C2040 1.370 . S
C2041 C2045 1.408 . S
C2042 C2040 1.363 . S
C2042 C2043 1.370 . S
C2042 C2046 1.524 . S
C2043 C2035 1.503 . S
C2043 C2042 1.370 . S
C2043 C2044 1.403 . S
C2044 C2043 1.403 . S
C2044 C2045 1.404 . S
C2044 C2047 1.539 . S
C2045 C2041 1.408 . S
C2045 C2044 1.404 . S
C2045 H2057 0.930 . S
C2046 C2042 1.524 . S
C2046 H2058 0.956 . S
C2046 H2059 0.961 . S
C2046 H2060 0.961 . S
C2047 C2044 1.539 . S
C2047 H2061 0.958 . S
C2047 H2062 0.961 . S
C2047 H2063 0.960 . S
H2048 C2032 0.931 . S
H2049 C2037 0.929 . S
H2050 C2038 0.960 . S
H2051 C2038 0.962 . S
H2052 C2038 0.960 . S
H2053 C2039 0.961 . S
H2054 C2039 0.961 . S
H2055 C2039 0.961 . S
H2056 C2040 0.931 . S
H2057 C2045 0.930 . S
H2058 C2046 0.956 . S
H2059 C2046 0.961 . S
H2060 C2046 0.961 . S
H2061 C2047 0.958 . S
H2062 C2047 0.961 . S
H2063 C2047 0.960 . S
C2064 C2065 1.391 . S
C2064 C2066 1.394 . S
C2064 H2080 0.931 . S
C2065 C2064 1.391 . S
C2065 C2069 1.376 . S
C2066 C2064 1.394 . S
C2066 C2067 1.369 . S
C2066 C2070 1.531 . S
C2067 C2066 1.369 . S
C2067 C2068 1.410 . S
C2067 C2075 1.503 . S
C2068 C2067 1.410 . S
C2068 C2069 1.392 . S
C2068 C2071 1.511 . S
C2069 C2065 1.376 . S
C2069 C2068 1.392 . S
C2069 H2081 0.929 . S
C2070 C2066 1.531 . S
C2070 H2082 0.960 . S
C2070 H2083 0.962 . S
C2070 H2084 0.960 . S
C2071 C2068 1.511 . S
C2071 H2085 0.961 . S
C2071 H2086 0.961 . S
C2071 H2087 0.961 . S
C2072 C2073 1.370 . S
C2072 C2074 1.363 . S
C2072 H2088 0.931 . S
C2073 C2072 1.370 . S
C2073 C2077 1.408 . S
C2074 C2072 1.363 . S
C2074 C2075 1.370 . S
C2074 C2078 1.524 . S
C2075 C2067 1.503 . S
C2075 C2074 1.370 . S
C2075 C2076 1.403 . S
C2076 C2075 1.403 . S
C2076 C2077 1.404 . S
C2076 C2079 1.539 . S
C2077 C2073 1.408 . S
C2077 C2076 1.404 . S
C2077 H2089 0.930 . S
C2078 C2074 1.524 . S
C2078 H2090 0.956 . S
C2078 H2091 0.961 . S
C2078 H2092 0.961 . S
C2079 C2076 1.539 . S
C2079 H2093 0.958 . S
C2079 H2094 0.961 . S
C2079 H2095 0.960 . S
H2080 C2064 0.931 . S
H2081 C2069 0.929 . S
H2082 C2070 0.960 . S
H2083 C2070 0.962 . S
H2084 C2070 0.960 . S
H2085 C2071 0.961 . S
H2086 C2071 0.961 . S
H2087 C2071 0.961 . S
H2088 C2072 0.931 . S
H2089 C2077 0.930 . S
H2090 C2078 0.956 . S
H2091 C2078 0.961 . S
H2092 C2078 0.961 . S
H2093 C2079 0.958 . S
H2094 C2079 0.961 . S
H2095 C2079 0.960 . S
C2096 C2097 1.391 . S
C2096 C2098 1.394 . S
C2096 H2112 0.931 . S
C2097 C2096 1.391 . S
C2097 C2101 1.376 . S
C2098 C2096 1.394 . S
C2098 C2099 1.369 . S
C2098 C2102 1.531 . S
C2099 C2098 1.369 . S
C2099 C2100 1.410 . S
C2099 C2107 1.503 . S
C2100 C2099 1.410 . S
C2100 C2101 1.392 . S
C2100 C2103 1.511 . S
C2101 C2097 1.376 . S
C2101 C2100 1.392 . S
C2101 H2113 0.929 . S
C2102 C2098 1.531 . S
C2102 H2114 0.960 . S
C2102 H2115 0.962 . S
C2102 H2116 0.960 . S
C2103 C2100 1.511 . S
C2103 H2117 0.961 . S
C2103 H2118 0.961 . S
C2103 H2119 0.961 . S
C2104 C2105 1.370 . S
C2104 C2106 1.363 . S
C2104 H2120 0.931 . S
C2105 C2104 1.370 . S
C2105 C2109 1.408 . S
C2106 C2104 1.363 . S
C2106 C2107 1.370 . S
C2106 C2110 1.524 . S
C2107 C2099 1.503 . S
C2107 C2106 1.370 . S
C2107 C2108 1.403 . S
C2108 C2107 1.403 . S
C2108 C2109 1.404 . S
C2108 C2111 1.539 . S
C2109 C2105 1.408 . S
C2109 C2108 1.404 . S
C2109 H2121 0.930 . S
C2110 C2106 1.524 . S
C2110 H2122 0.956 . S
C2110 H2123 0.961 . S
C2110 H2124 0.961 . S
C2111 C2108 1.539 . S
C2111 H2125 0.958 . S
C2111 H2126 0.961 . S
C2111 H2127 0.960 . S
H2112 C2096 0.931 . S
H2113 C2101 0.929 . S
H2114 C2102 0.960 . S
H2115 C2102 0.962 . S
H2116 C2102 0.960 . S
H2117 C2103 0.961 . S
H2118 C2103 0.961 . S
H2119 C2103 0.961 . S
H2120 C2104 0.931 . S
H2121 C2109 0.930 . S
H2122 C2110 0.956 . S
H2123 C2110 0.961 . S
H2124 C2110 0.961 . S
H2125 C2111 0.958 . S
H2126 C2111 0.961 . S
H2127 C2111 0.960 . S
C2128 C2129 1.391 . S
C2128 C2130 1.394 . S
C2128 H2144 0.931 . S
C2129 C2128 1.391 . S
C2129 C2133 1.376 . S
C2130 C2128 1.394 . S
C2130 C2131 1.369 . S
C2130 C2134 1.531 . S
C2131 C2130 1.369 . S
C2131 C2132 1.410 . S
C2131 C2139 1.503 . S
C2132 C2131 1.410 . S
C2132 C2133 1.392 . S
C2132 C2135 1.511 . S
C2133 C2129 1.376 . S
C2133 C2132 1.392 . S
C2133 H2145 0.929 . S
C2134 C2130 1.531 . S
C2134 H2146 0.960 . S
C2134 H2147 0.962 . S
C2134 H2148 0.960 . S
C2135 C2132 1.511 . S
C2135 H2149 0.961 . S
C2135 H2150 0.961 . S
C2135 H2151 0.961 . S
C2136 C2137 1.370 . S
C2136 C2138 1.363 . S
C2136 H2152 0.931 . S
C2137 C2136 1.370 . S
C2137 C2141 1.408 . S
C2138 C2136 1.363 . S
C2138 C2139 1.370 . S
C2138 C2142 1.524 . S
C2139 C2131 1.503 . S
C2139 C2138 1.370 . S
C2139 C2140 1.403 . S
C2140 C2139 1.403 . S
C2140 C2141 1.404 . S
C2140 C2143 1.539 . S
C2141 C2137 1.408 . S
C2141 C2140 1.404 . S
C2141 H2153 0.930 . S
C2142 C2138 1.524 . S
C2142 H2154 0.956 . S
C2142 H2155 0.961 . S
C2142 H2156 0.961 . S
C2143 C2140 1.539 . S
C2143 H2157 0.958 . S
C2143 H2158 0.961 . S
C2143 H2159 0.960 . S
H2144 C2128 0.931 . S
H2145 C2133 0.929 . S
H2146 C2134 0.960 . S
H2147 C2134 0.962 . S
H2148 C2134 0.960 . S
H2149 C2135 0.961 . S
H2150 C2135 0.961 . S
H2151 C2135 0.961 . S
H2152 C2136 0.931 . S
H2153 C2141 0.930 . S
H2154 C2142 0.956 . S
H2155 C2142 0.961 . S
H2156 C2142 0.961 . S
H2157 C2143 0.958 . S
H2158 C2143 0.961 . S
H2159 C2143 0.960 . S
C1009 C238 1.196 . S
C1017 C67 1.296 . S
C1041 C310 1.263 . S
C1049 C140 1.322 . S
C1073 C235 1.326 . S
C1081 C406 1.239 . S
C1105 C308 1.269 . S
C1113 C478 1.201 . S
C1137 C70 1.242 . S
C1145 C403 1.324 . S
C1169 C142 1.214 . S
C1177 C476 1.295 . S
C1201 C898 1.261 . S
C1209 C560 1.307 . S
C1233 C655 1.333 . S
C1241 C994 1.239 . S
C1265 C728 1.274 . S
C1273 C562 1.194 . S
C1297 C823 1.327 . S
C1305 C658 1.239 . S
C1329 C896 1.338 . S
C1337 C730 1.214 . S
C1361 C826 1.158 . S
C1369 C991 1.295 . S
C1393 C326 1.953 . S
C1401 C63 1.944 . S
C1425 C158 1.904 . S
C1433 C399 1.924 . S
C1457 C231 1.899 . S
C1465 C494 1.920 . S
C1489 C578 1.921 . S
C1497 C819 1.931 . S
C1521 C651 1.914 . S
C1529 C914 1.928 . S
C1553 C746 1.932 . S
C1561 C987 1.932 . S
C1585 C662 2.136 . S
C1593 C74 2.155 . S
C1617 C147 2.113 . S
C1625 C735 2.143 . S
C1649 C830 2.114 . S
C1657 C242 2.139 . S
C1681 C315 2.165 . S
C1689 C903 2.145 . S
C1713 C410 2.121 . S
C1721 C998 2.152 . S
C1745 C567 2.141 . S
C1753 C483 2.134 . S
C1777 C226 1.366 . S
C1785 C56 1.409 . S
C1809 C151 1.428 . S
C1817 C322 1.336 . S
C1841 C224 1.363 . S
C1849 C394 1.308 . S
C1873 C319 1.434 . S
C1881 C490 1.335 . S
C1905 C58 1.260 . S
C1913 C392 1.397 . S
C1937 C154 1.255 . S
C1945 C487 1.395 . S
C1969 C910 1.345 . S
C1977 C571 1.425 . S
C2001 C644 1.376 . S
C2009 C982 1.293 . S
C2033 C739 1.411 . S
C2041 C574 1.335 . S
C2065 C646 1.366 . S
C2073 C812 1.411 . S
C2097 C907 1.363 . S
C2105 C742 1.303 . S
C2129 C980 1.445 . S
C2137 C814 1.319 . S
