# Generated by pormake.
# Topology upa, (4)-cn, num edge types: 1
# Building blocks:
#     Node 0, Type 0, BuildingBlock: CEKHIL_clean_sbu_0, # of connection points: 4
#     Node 1, Type 0, BuildingBlock: CEKHIL_clean_sbu_0, # of connection points: 4
#     Node 2, Type 0, BuildingBlock: CEKHIL_clean_sbu_0, # of connection points: 4
#     Node 3, Type 0, BuildingBlock: CEKHIL_clean_sbu_0, # of connection points: 4
#     Node 4, Type 0, BuildingBlock: CEKHIL_clean_sbu_0, # of connection points: 4
#     Node 5, Type 0, BuildingBlock: CEKHIL_clean_sbu_0, # of connection points: 4
#     Node 6, Type 0, BuildingBlock: CEKHIL_clean_sbu_0, # of connection points: 4
#     Node 7, Type 0, BuildingBlock: CEKHIL_clean_sbu_0, # of connection points: 4
#     Edge 8, Type (0, 0), BuildingBlock: FUNLAD_clean_linker_1, # of connection points: 2
#     Edge 9, Type (0, 0), BuildingBlock: FUNLAD_clean_linker_1, # of connection points: 2
#     Edge 10, Type (0, 0), BuildingBlock: FUNLAD_clean_linker_1, # of connection points: 2
#     Edge 11, Type (0, 0), BuildingBlock: FUNLAD_clean_linker_1, # of connection points: 2
#     Edge 12, Type (0, 0), BuildingBlock: FUNLAD_clean_linker_1, # of connection points: 2
#     Edge 13, Type (0, 0), BuildingBlock: FUNLAD_clean_linker_1, # of connection points: 2
#     Edge 14, Type (0, 0), BuildingBlock: FUNLAD_clean_linker_1, # of connection points: 2
#     Edge 15, Type (0, 0), BuildingBlock: FUNLAD_clean_linker_1, # of connection points: 2
#     Edge 16, Type (0, 0), BuildingBlock: FUNLAD_clean_linker_1, # of connection points: 2
#     Edge 17, Type (0, 0), BuildingBlock: FUNLAD_clean_linker_1, # of connection points: 2
#     Edge 18, Type (0, 0), BuildingBlock: FUNLAD_clean_linker_1, # of connection points: 2
#     Edge 19, Type (0, 0), BuildingBlock: FUNLAD_clean_linker_1, # of connection points: 2
#     Edge 20, Type (0, 0), BuildingBlock: FUNLAD_clean_linker_1, # of connection points: 2
#     Edge 21, Type (0, 0), BuildingBlock: FUNLAD_clean_linker_1, # of connection points: 2
#     Edge 22, Type (0, 0), BuildingBlock: FUNLAD_clean_linker_1, # of connection points: 2
#     Edge 23, Type (0, 0), BuildingBlock: FUNLAD_clean_linker_1, # of connection points: 2
# Relax obj value: 0.235
# Max RMSD: 0.138
# Mean RMSD: 0.138
data_MOF--net-upa--node1-CEKHIL_clean_sbu_0--edge1-FUNLAD_clean_linker_1
_symmetry_space_group_name_H-M    P1
_symmetry_Int_Tables_number       1
_symmetry_cell_setting            triclinic
loop_
_symmetry_equiv_pos_as_xyz
'x, y, z'
_cell_length_a     26.581788
_cell_length_b     26.772632
_cell_length_c     44.589275
_cell_angle_alpha  89.840528
_cell_angle_beta   90.345103
_cell_angle_gamma 89.718762
loop_
_atom_site_label
_atom_site_type_symbol
_atom_site_fract_x
_atom_site_fract_y
_atom_site_fract_z
_atom_type_partial_charge
Co0 Co 0.17241 0.22777 0.33198 0.0
O1 O 0.23028 0.26663 0.31933 0.0
O2 O 0.23107 0.1854 0.32861 0.0
C3 C 0.11454 0.25747 0.29879 0.0
O4 O 0.12206 0.1739 0.34311 0.0
Co5 Co 0.07774 0.27659 0.3601 0.0
O6 O 0.04781 0.2095 0.35465 0.0
C7 C 0.16685 0.25995 0.39836 0.0
C8 C 0.2555 0.22485 0.32031 0.0
C9 C 0.07491 0.17129 0.34931 0.0
O10 O 0.18914 0.23927 0.37598 0.0
O11 O 0.12308 0.27991 0.39633 0.0
O12 O 0.14794 0.22476 0.29065 0.0
O13 O 0.12142 0.27641 0.32524 0.0
Co14 Co 0.3024 0.71349 0.82936 0.0
O15 O 0.26311 0.77073 0.81566 0.0
O16 O 0.34519 0.77111 0.8238 0.0
C17 C 0.27213 0.65479 0.79752 0.0
O18 O 0.35613 0.66261 0.84147 0.0
Co19 Co 0.25029 0.62241 0.85934 0.0
O20 O 0.31755 0.5912 0.85461 0.0
C21 C 0.26987 0.71165 0.89579 0.0
C22 C 0.3052 0.79523 0.81503 0.0
C23 C 0.35704 0.61601 0.84866 0.0
O24 O 0.29195 0.73203 0.87318 0.0
O25 O 0.24758 0.66944 0.89426 0.0
O26 O 0.30506 0.68711 0.78863 0.0
O27 O 0.25278 0.66373 0.82359 0.0
Co28 Co 0.83425 0.76943 0.33442 0.0
O29 O 0.77352 0.73882 0.31858 0.0
O30 O 0.78384 0.81984 0.3258 0.0
C31 C 0.89225 0.72969 0.30604 0.0
O32 O 0.89042 0.81546 0.34811 0.0
Co33 Co 0.91591 0.70852 0.36892 0.0
O34 O 0.95703 0.76955 0.36334 0.0
C35 C 0.82435 0.73944 0.40096 0.0
C36 C 0.75518 0.78386 0.31653 0.0
C37 C 0.9368 0.81117 0.35626 0.0
O38 O 0.80896 0.76288 0.37727 0.0
O39 O 0.86454 0.71289 0.40166 0.0
O40 O 0.86619 0.76672 0.29507 0.0
O41 O 0.8774 0.71335 0.33185 0.0
Co42 Co 0.74807 0.29971 0.83799 0.0
O43 O 0.79863 0.25176 0.82552 0.0
O44 O 0.71813 0.2345 0.83172 0.0
C45 C 0.7684 0.36298 0.80633 0.0
O46 O 0.68425 0.33863 0.84861 0.0
Co47 Co 0.77696 0.40038 0.86787 0.0
O48 O 0.70674 0.41813 0.8573 0.0
C49 C 0.77516 0.30925 0.90509 0.0
C50 C 0.76269 0.21916 0.82404 0.0
C51 C 0.67344 0.38514 0.8523 0.0
O52 O 0.7617 0.28339 0.88203 0.0
O53 O 0.78452 0.35606 0.90396 0.0
O54 O 0.74201 0.32536 0.79704 0.0
O55 O 0.7871 0.35822 0.8331 0.0
Co56 Co 0.67091 0.25758 0.1882 0.0
O57 O 0.72452 0.21453 0.20264 0.0
O58 O 0.73128 0.29622 0.19717 0.0
C59 C 0.60782 0.22713 0.21701 0.0
O60 O 0.62249 0.31393 0.17615 0.0
Co61 Co 0.5781 0.21113 0.15486 0.0
O62 O 0.54967 0.27882 0.16072 0.0
C63 C 0.67175 0.22863 0.12126 0.0
C64 C 0.7518 0.25423 0.20567 0.0
C65 C 0.57578 0.31665 0.16811 0.0
O66 O 0.69276 0.24881 0.14449 0.0
O67 O 0.62813 0.20877 0.1217 0.0
O68 O 0.64027 0.25808 0.22827 0.0
O69 O 0.61893 0.21041 0.19075 0.0
Co70 Co 0.21525 0.21544 0.6957 0.0
O71 O 0.25775 0.27084 0.70803 0.0
O72 O 0.17515 0.2747 0.70217 0.0
C73 C 0.24616 0.15534 0.72685 0.0
O74 O 0.15806 0.16827 0.6855 0.0
Co75 Co 0.25779 0.12026 0.66504 0.0
O76 O 0.1892 0.09364 0.67161 0.0
C77 C 0.24001 0.21051 0.6283 0.0
C78 C 0.2165 0.29706 0.70968 0.0
C79 C 0.15251 0.12216 0.67837 0.0
O80 O 0.22288 0.23341 0.65156 0.0
O81 O 0.25852 0.16628 0.6294 0.0
O82 O 0.21508 0.18904 0.73655 0.0
O83 O 0.26309 0.16296 0.70003 0.0
Co84 Co 0.33264 0.73561 0.1943 0.0
O85 O 0.27857 0.7814 0.20392 0.0
O86 O 0.27104 0.69923 0.20266 0.0
C87 C 0.39353 0.76764 0.22441 0.0
O88 O 0.38036 0.67683 0.18674 0.0
Co89 Co 0.42755 0.77539 0.16162 0.0
O90 O 0.45555 0.71085 0.17612 0.0
C91 C 0.33582 0.75738 0.12622 0.0
C92 C 0.25031 0.74253 0.20759 0.0
C93 C 0.42836 0.6737 0.18309 0.0
O94 O 0.31462 0.73959 0.14989 0.0
O95 O 0.37983 0.77662 0.12651 0.0
O96 O 0.35882 0.73905 0.23526 0.0
O97 O 0.38597 0.78205 0.19696 0.0
Co98 Co 0.78513 0.8023 0.69609 0.0
O99 O 0.74911 0.74468 0.71148 0.0
O100 O 0.83128 0.74785 0.70433 0.0
C101 C 0.75036 0.86264 0.72502 0.0
O102 O 0.83628 0.85369 0.68279 0.0
Co103 Co 0.73077 0.88914 0.66254 0.0
O104 O 0.79625 0.92365 0.66761 0.0
C105 C 0.75414 0.79685 0.62943 0.0
C106 C 0.79269 0.72255 0.71339 0.0
C107 C 0.83622 0.89971 0.67457 0.0
O108 O 0.77629 0.77877 0.65295 0.0
O109 O 0.73076 0.83878 0.62932 0.0
O110 O 0.78559 0.83374 0.73568 0.0
O111 O 0.73248 0.84976 0.69913 0.0
H112 H 0.0111 0.12111 0.35746 0.0
C113 C 0.05043 0.1222 0.35088 0.0
H114 H 0.113 0.0794 0.33661 0.0
H115 H 0.95772 0.91954 0.40429 0.0
H116 H 0.98452 0.95988 0.45025 0.0
H117 H 0.04162 0.03224 0.44894 0.0
H118 H 0.07161 0.06508 0.40155 0.0
C119 C 0.07432 0.07936 0.34434 0.0
C120 C 0.04684 0.03125 0.34548 0.0
C121 C 0.03139 0.0113 0.37343 0.0
C122 C 1.00006 0.96847 0.37423 0.0
C123 C 0.98291 0.95096 0.40236 0.0
C124 C 0.9978 0.97394 0.42895 0.0
C125 C 0.02982 0.01476 0.42821 0.0
C126 C 0.04652 0.0334 0.40084 0.0
H127 H 1.0068 0.85226 0.36594 0.0
C128 C 0.96852 0.85606 0.35744 0.0
H129 H 0.91493 0.90474 0.33765 0.0
H130 H 0.07224 0.0587 0.28836 0.0
H131 H 0.04877 0.01607 0.24243 0.0
H132 H 0.99711 0.93977 0.24389 0.0
H133 H 0.96798 0.90608 0.29124 0.0
C134 C 0.9522 0.90067 0.34753 0.0
C135 C 0.9859 0.94468 0.3471 0.0
C136 C 1.00311 0.96344 0.31925 0.0
C137 C 0.03357 0.00688 0.31844 0.0
C138 C 0.04942 0.0255 0.29028 0.0
C139 C 0.03623 1.0014 0.26374 0.0
C140 C 0.00708 0.95849 0.26456 0.0
C141 C 0.99053 0.9396 0.2919 0.0
H142 H 0.43993 0.61153 0.84572 0.0
C143 C 0.40606 0.59003 0.84982 0.0
H144 H 0.37618 0.51823 0.85832 0.0
H145 H 0.56745 0.41268 0.80095 0.0
H146 H 0.50424 0.39683 0.76281 0.0
H147 H 0.41937 0.43402 0.76644 0.0
H148 H 0.39762 0.48802 0.808 0.0
C149 C 0.40967 0.54064 0.85516 0.0
C150 C 0.459 0.51443 0.85479 0.0
C151 C 0.47065 0.48182 0.8308 0.0
C152 C 0.51922 0.45944 0.8291 0.0
C153 C 0.53073 0.42936 0.80396 0.0
C154 C 0.49485 0.42021 0.78176 0.0
C155 C 0.4471 0.44121 0.78376 0.0
C156 C 0.43506 0.472 0.80781 0.0
H157 H 0.5909 0.37317 0.85296 0.0
C158 C 0.62021 0.40122 0.85154 0.0
H159 H 0.63725 0.47798 0.8482 0.0
H160 H 0.44581 0.56917 0.90597 0.0
H161 H 0.50755 0.58243 0.94537 0.0
H162 H 0.59182 0.54377 0.94258 0.0
H163 H 0.61473 0.49143 0.9005 0.0
C164 C 0.60789 0.44994 0.84934 0.0
C165 C 0.5554 0.46875 0.85192 0.0
C166 C 0.54279 0.4996 0.87662 0.0
C167 C 0.49443 0.52227 0.87812 0.0
C168 C 0.48242 0.55196 0.90336 0.0
C169 C 0.5174 0.55964 0.92624 0.0
C170 C 0.56483 0.53786 0.92468 0.0
C171 C 0.57754 0.50806 0.90029 0.0
H172 H 0.51313 0.36635 0.15584 0.0
C173 C 0.54932 0.365 0.16737 0.0
H174 H 0.60079 0.40566 0.19406 0.0
H175 H 0.50487 0.60616 0.138 0.0
H176 H 0.58574 0.60475 0.11339 0.0
H177 H 0.64406 0.53364 0.12037 0.0
H178 H 0.62126 0.46317 0.1517 0.0
C179 C 0.56493 0.40554 0.18224 0.0
C180 C 0.53312 0.45147 0.18216 0.0
C181 C 0.54801 0.49339 0.16504 0.0
C182 C 0.51525 0.53529 0.16208 0.0
C183 C 0.52938 0.57471 0.14262 0.0
C184 C 0.5755 0.57407 0.12796 0.0
C185 C 0.60825 0.53398 0.13181 0.0
C186 C 0.59471 0.49382 0.1499 0.0
H187 H 0.49362 0.62752 0.19508 0.0
C188 C 0.4549 0.62591 0.18709 0.0
H189 H 0.39835 0.58002 0.16874 0.0
H190 H 0.4937 0.3777 0.21765 0.0
H191 H 0.41186 0.37821 0.24125 0.0
H192 H 0.35636 0.45204 0.2377 0.0
H193 H 0.38144 0.52509 0.20931 0.0
C194 C 0.4366 0.58228 0.17735 0.0
C195 C 0.46882 0.53644 0.17782 0.0
C196 C 0.45385 0.49432 0.19483 0.0
C197 C 0.48604 0.45183 0.19707 0.0
C198 C 0.47033 0.41051 0.21453 0.0
C199 C 0.42369 0.41055 0.22858 0.0
C200 C 0.39236 0.45206 0.22648 0.0
C201 C 0.40721 0.49371 0.21003 0.0
H202 H 0.07045 0.12623 0.68509 0.0
C203 C 0.10109 0.10197 0.67805 0.0
H204 H 0.12078 0.03067 0.66128 0.0
H205 H 0.89979 0.98612 0.72365 0.0
H206 H 0.94338 0.9983 0.77101 0.0
H207 H 0.03168 0.02634 0.77222 0.0
H208 H 0.07656 0.04319 0.72612 0.0
C209 C 0.09107 0.05507 0.6694 0.0
C210 C 0.03872 0.03613 0.6689 0.0
C211 C 0.01369 0.02512 0.69611 0.0
C212 C 0.96353 0.00708 0.69541 0.0
C213 C 0.93854 0.99827 0.72288 0.0
C214 C 0.96301 0.00539 0.75023 0.0
C215 C 0.01265 0.02133 0.75091 0.0
C216 C 0.03791 0.0311 0.72425 0.0
H217 H 0.9183 0.90439 0.68046 0.0
C218 C 0.88491 0.92552 0.67395 0.0
H219 H 0.85691 0.99582 0.65941 0.0
H220 H 0.07554 0.05535 0.61282 0.0
H221 H 0.03205 0.04218 0.56547 0.0
H222 H 0.94577 0.00865 0.56428 0.0
H223 H 0.9023 0.98831 0.61045 0.0
C224 C 0.88934 0.97397 0.66665 0.0
C225 C 0.93937 0.99825 0.6675 0.0
C226 C 0.96403 0.01007 0.64035 0.0
C227 C 0.01387 0.02899 0.64104 0.0
C228 C 0.03777 0.04052 0.61358 0.0
C229 C 0.01323 0.0332 0.58625 0.0
C230 C 0.96464 0.01434 0.58558 0.0
C231 C 0.94014 1.00279 0.61223 0.0
H232 H 0.2286 0.23899 0.42968 0.0
C233 C 0.19162 0.25638 0.42832 0.0
H234 H 0.12973 0.28365 0.4529 0.0
H235 H 0.16718 0.15107 0.56736 0.0
H236 H 0.09793 0.10718 0.5439 0.0
H237 H 0.06915 0.12949 0.49289 0.0
H238 H 0.10928 0.19604 0.46507 0.0
C239 C 0.16776 0.26866 0.4539 0.0
C240 C 0.18772 0.254 0.48417 0.0
C241 C 0.16401 0.21484 0.5002 0.0
C242 C 0.18115 0.20142 0.52948 0.0
C243 C 0.15632 0.16239 0.54492 0.0
C244 C 0.11635 0.13693 0.53176 0.0
C245 C 0.10009 0.14956 0.50306 0.0
C246 C 0.12343 0.18799 0.48738 0.0
H247 H 0.21516 0.27109 0.59738 0.0
C248 C 0.23293 0.23447 0.59839 0.0
H249 H 0.2573 0.17196 0.57353 0.0
H250 H 0.24011 0.33217 0.46053 0.0
H251 H 0.31069 0.37498 0.48362 0.0
H252 H 0.34194 0.35009 0.53371 0.0
H253 H 0.30251 0.28252 0.56123 0.0
C254 C 0.24182 0.20958 0.57265 0.0
C255 C 0.22218 0.227 0.54285 0.0
C256 C 0.2459 0.26618 0.52688 0.0
C257 C 0.22848 0.27989 0.49761 0.0
C258 C 0.25233 0.31973 0.48251 0.0
C259 C 0.29279 0.34467 0.49554 0.0
C260 C 0.31035 0.33069 0.52378 0.0
C261 C 0.28735 0.29192 0.53936 0.0
H262 H 0.30217 0.7662 0.92776 0.0
C263 C 0.27611 0.73522 0.92576 0.0
H264 H 0.23064 0.68381 0.94887 0.0
H265 H 0.35304 0.67295 0.06888 0.0
H266 H 0.36403 0.58983 0.04874 0.0
H267 H 0.33436 0.56933 0.99777 0.0
H268 H 0.29362 0.63176 0.96665 0.0
C269 C 0.25575 0.71555 0.95081 0.0
C270 C 0.27337 0.72911 0.98175 0.0
C271 C 0.29689 0.69192 0.99994 0.0
C272 C 0.31407 0.70372 0.02943 0.0
C273 C 0.33854 0.66605 0.04658 0.0
C274 C 0.34535 0.61811 0.03524 0.0
C275 C 0.32864 0.60657 1.00656 0.0
C276 C 0.30496 0.64286 0.98898 0.0
H277 H 0.27418 0.73107 0.09656 0.0
C278 C 0.30947 0.7514 0.09693 0.0
H279 H 0.36478 0.78716 0.07066 0.0
H280 H 0.22503 0.80791 0.95473 0.0
H281 H 0.21486 0.89138 0.97487 0.0
H282 H 0.24734 0.91242 0.02518 0.0
H283 H 0.28974 0.84986 0.05588 0.0
C284 C 0.32987 0.76625 0.07074 0.0
C285 C 0.30774 0.75272 0.04091 0.0
C286 C 0.28398 0.78978 0.02288 0.0
C287 C 0.26619 0.77787 0.99349 0.0
C288 C 0.24071 0.81524 0.9767 0.0
C289 C 0.23428 0.86323 0.9881 0.0
C290 C 0.25252 0.87507 0.01645 0.0
C291 C 0.27692 0.83888 0.03379 0.0
H292 H 0.78656 0.739 0.59957 0.0
C293 C 0.76108 0.77085 0.60028 0.0
H294 H 0.71774 0.82219 0.57497 0.0
H295 H 0.84645 0.82001 0.45811 0.0
H296 H 0.86415 0.90203 0.47799 0.0
H297 H 0.83478 0.92632 0.52825 0.0
H298 H 0.78777 0.86861 0.55896 0.0
C299 C 0.74196 0.7894 0.57438 0.0
C300 C 0.76004 0.77325 0.54414 0.0
C301 C 0.78686 0.80778 0.52608 0.0
C302 C 0.8035 0.7939 0.49691 0.0
C303 C 0.83181 0.8287 0.48005 0.0
C304 C 0.84256 0.87596 0.49127 0.0
C305 C 0.82604 0.88964 0.51956 0.0
C306 C 0.79878 0.8561 0.5369 0.0
H307 H 0.76481 0.77306 0.42926 0.0
C308 C 0.79687 0.7477 0.42949 0.0
H309 H 0.84552 0.70372 0.45661 0.0
H310 H 0.70659 0.69915 0.57156 0.0
H311 H 0.68974 0.61653 0.55182 0.0
H312 H 0.71999 0.59198 0.50177 0.0
H313 H 0.76694 0.65014 0.47095 0.0
C314 C 0.81385 0.72951 0.45599 0.0
C315 C 0.79286 0.74557 0.48554 0.0
C316 C 0.76615 0.71106 0.50357 0.0
C317 C 0.74933 0.72499 0.53274 0.0
C318 C 0.72129 0.69019 0.54966 0.0
C319 C 0.71111 0.64271 0.53852 0.0
C320 C 0.72812 0.6289 0.51031 0.0
C321 C 0.75516 0.66257 0.49291 0.0
H322 H 0.79788 0.2486 0.93654 0.0
C323 C 0.7787 0.2844 0.93479 0.0
H324 H 0.73867 0.34151 0.95622 0.0
H325 H 0.74056 0.15881 0.06001 0.0
H326 H 0.71565 0.10004 0.02125 0.0
H327 H 0.70624 0.12752 0.96865 0.0
H328 H 0.7241 0.21259 0.95425 0.0
C329 C 0.75785 0.30582 0.95916 0.0
C330 C 0.76225 0.28661 0.99082 0.0
C331 C 0.74701 0.23759 0.99906 0.0
C332 C 0.7472 0.22296 0.02988 0.0
C333 C 0.73742 0.17248 0.03721 0.0
C334 C 0.7235 0.13839 0.01519 0.0
C335 C 0.71857 0.15378 0.98556 0.0
C336 C 0.72978 0.20278 0.9775 0.0
H337 H 0.66913 0.2248 0.07237 0.0
C338 C 0.69436 0.23272 0.09104 0.0
H339 H 0.76676 0.25717 0.1031 0.0
H340 H 0.80276 0.37973 0.98343 0.0
H341 H 0.82386 0.43866 0.02255 0.0
H342 H 0.8131 0.41672 0.07585 0.0
H343 H 0.78237 0.33546 0.09039 0.0
C344 C 0.74126 0.24821 0.08482 0.0
C345 C 0.75603 0.25877 0.0528 0.0
C346 C 0.77345 0.30689 0.04461 0.0
C347 C 0.77774 0.32028 1.01372 0.0
C348 C 0.79688 0.3681 1.00639 0.0
C349 C 0.80951 0.40227 0.02865 0.0
C350 C 0.80356 0.38987 0.05865 0.0
C351 C 0.78579 0.34289 0.06667 0.0
H352 H 0.52719 0.20943 0.21365 0.0
C353 C 0.5562 0.22242 0.22899 0.0
H354 H 0.57278 0.24982 0.27198 0.0
H355 H 0.36522 0.33746 0.31085 0.0
H356 H 0.42171 0.40754 0.31627 0.0
H357 H 0.50886 0.40268 0.29788 0.0
H358 H 0.54053 0.3274 0.27479 0.0
C359 C 0.54352 0.23634 0.25698 0.0
C360 C 0.4897 0.23916 0.26721 0.0
C361 C 0.47086 0.28449 0.27948 0.0
C362 C 0.41971 0.28816 0.28884 0.0
C363 C 0.4031 0.33297 0.30254 0.0
C364 C 0.43522 0.37352 0.30593 0.0
C365 C 0.48432 0.37074 0.29566 0.0
C366 C 0.50208 0.327 0.28252 0.0
H367 H 0.33053 0.18943 0.32123 0.0
C368 C 0.30945 0.22119 0.31245 0.0
H369 H 0.31081 0.28462 0.28452 0.0
H370 H 0.51469 0.14276 0.25234 0.0
H371 H 0.45679 0.07502 0.2427 0.0
H372 H 0.3654 0.08694 0.24903 0.0
H373 H 0.33179 0.16573 0.26651 0.0
C374 C 0.33199 0.25296 0.29336 0.0
C375 C 0.38627 0.24756 0.28449 0.0
C376 C 0.40474 0.20275 0.27132 0.0
C377 C 0.45691 0.19755 0.26453 0.0
C378 C 0.47505 0.1502 0.25535 0.0
C379 C 0.44226 0.11074 0.25009 0.0
C380 C 0.39088 0.11733 0.25387 0.0
C381 C 0.37213 0.16268 0.26431 0.0
H382 H 0.34587 0.86384 0.80219 0.0
C383 C 0.30875 0.84717 0.80342 0.0
H384 H 0.23167 0.85598 0.7934 0.0
H385 H 0.32359 0.08912 0.78477 0.0
H386 H 0.34631 0.0799 0.83721 0.0
H387 H 0.33364 0.99995 0.86363 0.0
H388 H 0.29942 0.92836 0.8376 0.0
C389 C 0.26859 0.87323 0.7932 0.0
C390 C 0.27343 0.9233 0.77814 0.0
C391 C 0.29128 0.96567 0.79404 0.0
C392 C 0.2957 0.01285 0.77924 0.0
C393 C 0.3169 0.05331 0.79523 0.0
C394 C 0.33054 0.04841 0.8253 0.0
C395 C 0.32363 0.00332 0.84014 0.0
C396 C 0.30427 0.96236 0.82483 0.0
H397 H 0.23121 0.10324 0.76406 0.0
C398 C 0.25248 0.10756 0.74348 0.0
H399 H 0.3003 0.07221 0.71254 0.0
H400 H 0.23923 0.85019 0.74049 0.0
H401 H 0.21232 0.86051 0.68886 0.0
H402 H 0.21508 0.94301 0.66423 0.0
H403 H 0.24543 0.01549 0.69091 0.0
C404 C 0.28031 0.06881 0.73362 0.0
C405 C 0.27943 0.01866 0.74897 0.0
C406 C 0.26129 0.97633 0.73317 0.0
C407 C 0.25862 0.92879 0.74764 0.0
C408 C 0.24114 0.88731 0.73094 0.0
C409 C 0.2257 0.89263 0.7012 0.0
C410 C 0.22733 0.93905 0.68731 0.0
C411 C 0.24491 0.98044 0.70295 0.0
H412 H 0.69504 0.8338 0.2995 0.0
C413 C 0.70519 0.79484 0.30302 0.0
H414 H 0.68366 0.71996 0.29687 0.0
H415 H 0.46942 0.85024 0.2759 0.0
H416 H 0.47965 0.87906 0.32709 0.0
H417 H 0.55527 0.85661 0.35658 0.0
H418 H 0.62159 0.80623 0.3349 0.0
C419 C 0.67305 0.75897 0.29417 0.0
C420 C 0.6253 0.77068 0.27734 0.0
C421 C 0.58567 0.7983 0.29084 0.0
C422 C 0.54054 0.80879 0.2744 0.0
C423 C 0.50316 0.83901 0.28786 0.0
C424 C 0.50876 0.85619 0.31713 0.0
C425 C 0.55145 0.84375 0.33368 0.0
C426 C 0.58949 0.81509 0.32085 0.0
H427 H 0.44465 0.75497 0.26264 0.0
C428 C 0.44207 0.77274 0.24072 0.0
H429 H 0.48209 0.81004 0.20682 0.0
H430 H 0.69374 0.71806 0.24419 0.0
H431 H 0.68265 0.68801 0.19344 0.0
H432 H 0.60431 0.7053 0.16531 0.0
H433 H 0.53699 0.75306 0.18772 0.0
C434 C 0.48363 0.79384 0.22917 0.0
C435 C 0.53368 0.78951 0.24499 0.0
C436 C 0.57392 0.76319 0.23123 0.0
C437 C 0.61933 0.75333 0.24747 0.0
C438 C 0.65829 0.72621 0.23315 0.0
C439 C 0.65254 0.70885 0.20393 0.0
C440 C 0.60845 0.71855 0.18811 0.0
C441 C 0.56974 0.74563 0.20139 0.0
H442 H 0.81133 0.15673 0.80923 0.0
C443 C 0.77251 0.16771 0.81313 0.0
H444 H 0.69633 0.14635 0.80923 0.0
H445 H 0.76078 0.99058 0.70657 0.0
H446 H 0.73854 0.06104 0.67507 0.0
H447 H 0.71812 0.14292 0.69724 0.0
H448 H 0.72115 0.15493 0.75113 0.0
C449 C 0.73542 0.13533 0.80655 0.0
C450 C 0.74613 0.08499 0.79336 0.0
C451 C 0.74194 0.07767 0.76196 0.0
C452 C 0.75148 0.02968 0.74925 0.0
C453 C 0.75108 0.02505 0.71762 0.0
C454 C 0.73895 0.0655 0.6992 0.0
C455 C 0.72762 0.11164 0.71167 0.0
C456 C 0.72935 0.11796 0.74264 0.0
H457 H 0.70285 0.92957 0.73262 0.0
C458 C 0.73847 0.91193 0.73848 0.0
H459 H 0.80813 0.91931 0.76071 0.0
H460 H 0.75873 0.08621 0.85415 0.0
H461 H 0.78098 0.01582 0.88601 0.0
H462 H 0.79406 0.93201 0.86453 0.0
H463 H 0.78514 0.91794 0.81115 0.0
C464 C 0.77225 0.93697 0.75538 0.0
C465 C 0.76257 0.98806 0.76815 0.0
C466 C 0.76734 0.99572 0.7996 0.0
C467 C 0.75939 0.04412 0.81212 0.0
C468 C 0.76445 0.05038 0.84351 0.0
C469 C 0.77712 0.01028 0.86206 0.0
C470 C 0.78451 0.9631 0.84997 0.0
C471 C 0.77949 0.95562 0.81919 0.0
H472 H 0.07221 0.25871 0.25616 0.0
C473 C 0.06902 0.26625 0.28001 0.0
H474 H 0.01981 0.28374 0.3153 0.0
H475 H 0.83352 0.37086 0.24602 0.0
H476 H 0.85898 0.44029 0.27704 0.0
H477 H 0.9388 0.43766 0.30543 0.0
H478 H 0.99329 0.36506 0.3034 0.0
C479 C 0.02329 0.27653 0.29145 0.0
C480 C 0.97625 0.27872 0.27239 0.0
C481 C 0.94535 0.32216 0.27281 0.0
C482 C 0.89995 0.32436 0.25549 0.0
C483 C 0.86901 0.36744 0.25781 0.0
C484 C 0.88306 0.40765 0.2757 0.0
C485 C 0.92794 0.40613 0.29173 0.0
C486 C 0.95882 0.36406 0.29041 0.0
H487 H 0.80928 0.21775 0.23405 0.0
C488 C 0.8018 0.25098 0.22067 0.0
H489 H 0.82964 0.31988 0.20564 0.0
H490 H 0.0181 0.18464 0.27137 0.0
H491 H 0.99722 0.11797 0.23704 0.0
H492 H 0.92897 0.12842 0.19978 0.0
H493 H 0.87949 0.20459 0.19785 0.0
C494 C 0.83742 0.28658 0.21889 0.0
C495 C 0.88604 0.28389 0.23659 0.0
C496 C 0.91823 0.24128 0.23519 0.0
C497 C 0.9613 0.23743 0.25442 0.0
C498 C 0.988 0.1915 0.25547 0.0
C499 C 0.97599 0.15256 0.23611 0.0
C500 C 0.93731 0.15829 0.21532 0.0
C501 C 0.90874 0.20203 0.21472 0.0
H502 H 0.17817 0.36614 0.72395 0.0
C503 C 0.21498 0.34894 0.72121 0.0
H504 H 0.29304 0.35698 0.72791 0.0
H505 H 0.19199 0.58752 0.7419 0.0
H506 H 0.16569 0.57937 0.69002 0.0
H507 H 0.18095 0.50127 0.66224 0.0
H508 H 0.22153 0.43046 0.68639 0.0
C509 C 0.2562 0.37446 0.72968 0.0
C510 C 0.25233 0.42424 0.74499 0.0
C511 C 0.23077 0.46631 0.73015 0.0
C512 C 0.22471 0.51252 0.74568 0.0
C513 C 0.19996 0.55254 0.7308 0.0
C514 C 0.18424 0.54822 0.70107 0.0
C515 C 0.1926 0.50417 0.68548 0.0
C516 C 0.21558 0.46362 0.69971 0.0
H517 H 0.28685 0.60341 0.76013 0.0
C518 C 0.2663 0.60706 0.78102 0.0
H519 H 0.22176 0.56974 0.81284 0.0
H520 H 0.29639 0.35201 0.78013 0.0
H521 H 0.32589 0.36123 0.83124 0.0
H522 H 0.31684 0.4414 0.85775 0.0
H523 H 0.27853 0.51285 0.83317 0.0
C524 C 0.24062 0.56738 0.79135 0.0
C525 C 0.2427 0.51774 0.77559 0.0
C526 C 0.2645 0.47568 0.79034 0.0
C527 C 0.26966 0.42923 0.77502 0.0
C528 C 0.29186 0.38825 0.79044 0.0
C529 C 0.30888 0.39292 0.81988 0.0
C530 C 0.3038 0.43805 0.8348 0.0
C531 C 0.28187 0.47895 0.82035 0.0
H532 H 0.17981 0.78479 0.21437 0.0
C533 C 0.19738 0.74838 0.2174 0.0
H534 H 0.18961 0.67575 0.23492 0.0
H535 H 1.0069 0.81304 0.29971 0.0
H536 H 0.0734 0.86631 0.31853 0.0
H537 H 0.16178 0.85098 0.30467 0.0
H538 H 0.18408 0.78313 0.2715 0.0
C539 C 0.17195 0.7121 0.23176 0.0
C540 C 0.11903 0.71925 0.24284 0.0
C541 C 0.10687 0.75784 0.26354 0.0
C542 C 0.05604 0.76535 0.27269 0.0
C543 C 0.04484 0.80529 0.29238 0.0
C544 C 0.08265 0.8361 0.30342 0.0
C545 C 0.13239 0.82755 0.29554 0.0
C546 C 0.14461 0.78876 0.27608 0.0
H547 H 0.96178 0.68389 0.30376 0.0
C548 C 0.94172 0.71504 0.29347 0.0
H549 H 0.94564 0.77483 0.26262 0.0
H550 H 0.12834 0.6405 0.20409 0.0
H551 H 0.06215 0.58487 0.18772 0.0
H552 H 0.97505 0.59612 0.20528 0.0
H553 H 0.95355 0.66331 0.23933 0.0
C554 C 0.9643 0.74196 0.27183 0.0
C555 C 0.01763 0.73267 0.26266 0.0
C556 C 0.02997 0.69287 0.24309 0.0
C557 C 0.08048 0.6863 0.23307 0.0
C558 C 0.09103 0.64695 0.21284 0.0
C559 C 0.05329 0.61479 0.20313 0.0
C560 C 1.00423 0.62113 0.21301 0.0
C561 C 0.99245 0.65976 0.23263 0.0
H562 H 0.74907 0.41082 0.76757 0.0
C563 C 0.76874 0.4104 0.78901 0.0
H564 H 0.80736 0.45356 0.8211 0.0
H565 H 0.80522 0.58968 0.69351 0.0
H566 H 0.85442 0.52266 0.67186 0.0
H567 H 0.87394 0.44648 0.70099 0.0
H568 H 0.84325 0.43637 0.7517 0.0
C569 C 0.78944 0.45303 0.79914 0.0
C570 C 0.78325 0.50164 0.7825 0.0
C571 C 0.80376 0.50828 0.7534 0.0
C572 C 0.79514 0.55368 0.73723 0.0
C573 C 0.8129 0.55739 0.70743 0.0
C574 C 0.84084 0.51894 0.6946 0.0
C575 C 0.85162 0.47596 0.71094 0.0
C576 C 0.83341 0.47048 0.73998 0.0
H577 H 0.83769 0.65878 0.73025 0.0
C578 C 0.79942 0.67196 0.72652 0.0
H579 H 0.72241 0.65622 0.73163 0.0
H580 H 0.73919 0.5025 0.83777 0.0
H581 H 0.69204 0.57028 0.86003 0.0
H582 H 0.68058 0.65016 0.83311 0.0
H583 H 0.71558 0.66236 0.78366 0.0
C584 C 0.76071 0.64267 0.73466 0.0
C585 C 0.76851 0.59383 0.75078 0.0
C586 C 0.74864 0.58741 0.78004 0.0
C587 C 0.75593 0.54147 0.79581 0.0
C588 C 0.73496 0.53633 0.82478 0.0
C589 C 0.70788 0.5751 0.8379 0.0
C590 C 0.70137 0.62001 0.82273 0.0
C591 C 0.72158 0.62641 0.79424 0.0
loop_
_geom_bond_atom_site_label_1
_geom_bond_atom_site_label_2
_geom_bond_distance
_geom_bond_site_symmetry_2
_ccdc_geom_bond_type
Co0 O1 2.216 . S
Co0 O2 2.091 . S
Co0 O4 2.004 . S
Co0 O10 2.021 . S
Co0 O12 2.137 . S
Co0 O13 2.244 . S
O1 Co0 2.216 . S
O1 C8 1.247 . S
O2 Co0 2.091 . S
O2 C8 1.261 . S
C3 O12 1.247 . S
C3 O13 1.272 . S
O4 Co0 2.004 . S
O4 C9 1.259 . S
Co5 O6 2.061 . S
Co5 O11 2.052 . S
Co5 O13 2.135 . S
O6 Co5 2.061 . S
O6 C9 1.235 . S
C7 O10 1.238 . S
C7 O11 1.241 . S
C8 O1 1.247 . S
C8 O2 1.261 . S
C9 O4 1.259 . S
C9 O6 1.235 . S
O10 Co0 2.021 . S
O10 C7 1.238 . S
O11 Co5 2.052 . S
O11 C7 1.241 . S
O12 Co0 2.137 . S
O12 C3 1.247 . S
O13 Co0 2.244 . S
O13 C3 1.272 . S
O13 Co5 2.135 . S
Co14 O15 2.216 . S
Co14 O16 2.091 . S
Co14 O18 2.004 . S
Co14 O24 2.021 . S
Co14 O26 2.137 . S
Co14 O27 2.244 . S
O15 Co14 2.216 . S
O15 C22 1.247 . S
O16 Co14 2.091 . S
O16 C22 1.261 . S
C17 O26 1.247 . S
C17 O27 1.272 . S
O18 Co14 2.004 . S
O18 C23 1.259 . S
Co19 O20 2.061 . S
Co19 O25 2.052 . S
Co19 O27 2.135 . S
O20 Co19 2.061 . S
O20 C23 1.235 . S
C21 O24 1.238 . S
C21 O25 1.241 . S
C22 O15 1.247 . S
C22 O16 1.261 . S
C23 O18 1.259 . S
C23 O20 1.235 . S
O24 Co14 2.021 . S
O24 C21 1.238 . S
O25 Co19 2.052 . S
O25 C21 1.241 . S
O26 Co14 2.137 . S
O26 C17 1.247 . S
O27 Co14 2.244 . S
O27 C17 1.272 . S
O27 Co19 2.135 . S
Co28 O29 2.216 . S
Co28 O30 2.091 . S
Co28 O32 2.004 . S
Co28 O38 2.021 . S
Co28 O40 2.137 . S
Co28 O41 2.244 . S
O29 Co28 2.216 . S
O29 C36 1.247 . S
O30 Co28 2.091 . S
O30 C36 1.261 . S
C31 O40 1.247 . S
C31 O41 1.272 . S
O32 Co28 2.004 . S
O32 C37 1.259 . S
Co33 O34 2.061 . S
Co33 O39 2.052 . S
Co33 O41 2.135 . S
O34 Co33 2.061 . S
O34 C37 1.235 . S
C35 O38 1.238 . S
C35 O39 1.241 . S
C36 O29 1.247 . S
C36 O30 1.261 . S
C37 O32 1.259 . S
C37 O34 1.235 . S
O38 Co28 2.021 . S
O38 C35 1.238 . S
O39 Co33 2.052 . S
O39 C35 1.241 . S
O40 Co28 2.137 . S
O40 C31 1.247 . S
O41 Co28 2.244 . S
O41 C31 1.272 . S
O41 Co33 2.135 . S
Co42 O43 2.216 . S
Co42 O44 2.091 . S
Co42 O46 2.004 . S
Co42 O52 2.021 . S
Co42 O54 2.137 . S
Co42 O55 2.244 . S
O43 Co42 2.216 . S
O43 C50 1.247 . S
O44 Co42 2.091 . S
O44 C50 1.261 . S
C45 O54 1.247 . S
C45 O55 1.272 . S
O46 Co42 2.004 . S
O46 C51 1.259 . S
Co47 O48 2.061 . S
Co47 O53 2.052 . S
Co47 O55 2.135 . S
O48 Co47 2.061 . S
O48 C51 1.235 . S
C49 O52 1.238 . S
C49 O53 1.241 . S
C50 O43 1.247 . S
C50 O44 1.261 . S
C51 O46 1.259 . S
C51 O48 1.235 . S
O52 Co42 2.021 . S
O52 C49 1.238 . S
O53 Co47 2.052 . S
O53 C49 1.241 . S
O54 Co42 2.137 . S
O54 C45 1.247 . S
O55 Co42 2.244 . S
O55 C45 1.272 . S
O55 Co47 2.135 . S
Co56 O57 2.216 . S
Co56 O58 2.091 . S
Co56 O60 2.004 . S
Co56 O66 2.021 . S
Co56 O68 2.137 . S
Co56 O69 2.244 . S
O57 Co56 2.216 . S
O57 C64 1.247 . S
O58 Co56 2.091 . S
O58 C64 1.261 . S
C59 O68 1.247 . S
C59 O69 1.272 . S
O60 Co56 2.004 . S
O60 C65 1.259 . S
Co61 O62 2.061 . S
Co61 O67 2.052 . S
Co61 O69 2.135 . S
O62 Co61 2.061 . S
O62 C65 1.235 . S
C63 O66 1.238 . S
C63 O67 1.241 . S
C64 O57 1.247 . S
C64 O58 1.261 . S
C65 O60 1.259 . S
C65 O62 1.235 . S
O66 Co56 2.021 . S
O66 C63 1.238 . S
O67 Co61 2.052 . S
O67 C63 1.241 . S
O68 Co56 2.137 . S
O68 C59 1.247 . S
O69 Co56 2.244 . S
O69 C59 1.272 . S
O69 Co61 2.135 . S
Co70 O71 2.216 . S
Co70 O72 2.091 . S
Co70 O74 2.004 . S
Co70 O80 2.021 . S
Co70 O82 2.137 . S
Co70 O83 2.244 . S
O71 Co70 2.216 . S
O71 C78 1.247 . S
O72 Co70 2.091 . S
O72 C78 1.261 . S
C73 O82 1.247 . S
C73 O83 1.272 . S
O74 Co70 2.004 . S
O74 C79 1.259 . S
Co75 O76 2.061 . S
Co75 O81 2.052 . S
Co75 O83 2.135 . S
O76 Co75 2.061 . S
O76 C79 1.235 . S
C77 O80 1.238 . S
C77 O81 1.241 . S
C78 O71 1.247 . S
C78 O72 1.261 . S
C79 O74 1.259 . S
C79 O76 1.235 . S
O80 Co70 2.021 . S
O80 C77 1.238 . S
O81 Co75 2.052 . S
O81 C77 1.241 . S
O82 Co70 2.137 . S
O82 C73 1.247 . S
O83 Co70 2.244 . S
O83 C73 1.272 . S
O83 Co75 2.135 . S
Co84 O85 2.216 . S
Co84 O86 2.091 . S
Co84 O88 2.004 . S
Co84 O94 2.021 . S
Co84 O96 2.137 . S
Co84 O97 2.244 . S
O85 Co84 2.216 . S
O85 C92 1.247 . S
O86 Co84 2.091 . S
O86 C92 1.261 . S
C87 O96 1.247 . S
C87 O97 1.272 . S
O88 Co84 2.004 . S
O88 C93 1.259 . S
Co89 O90 2.061 . S
Co89 O95 2.052 . S
Co89 O97 2.135 . S
O90 Co89 2.061 . S
O90 C93 1.235 . S
C91 O94 1.238 . S
C91 O95 1.241 . S
C92 O85 1.247 . S
C92 O86 1.261 . S
C93 O88 1.259 . S
C93 O90 1.235 . S
O94 Co84 2.021 . S
O94 C91 1.238 . S
O95 Co89 2.052 . S
O95 C91 1.241 . S
O96 Co84 2.137 . S
O96 C87 1.247 . S
O97 Co84 2.244 . S
O97 C87 1.272 . S
O97 Co89 2.135 . S
Co98 O99 2.216 . S
Co98 O100 2.091 . S
Co98 O102 2.004 . S
Co98 O108 2.021 . S
Co98 O110 2.137 . S
Co98 O111 2.244 . S
O99 Co98 2.216 . S
O99 C106 1.247 . S
O100 Co98 2.091 . S
O100 C106 1.261 . S
C101 O110 1.247 . S
C101 O111 1.272 . S
O102 Co98 2.004 . S
O102 C107 1.259 . S
Co103 O104 2.061 . S
Co103 O109 2.052 . S
Co103 O111 2.135 . S
O104 Co103 2.061 . S
O104 C107 1.235 . S
C105 O108 1.238 . S
C105 O109 1.241 . S
C106 O99 1.247 . S
C106 O100 1.261 . S
C107 O102 1.259 . S
C107 O104 1.235 . S
O108 Co98 2.021 . S
O108 C105 1.238 . S
O109 Co103 2.052 . S
O109 C105 1.241 . S
O110 Co98 2.137 . S
O110 C101 1.247 . S
O111 Co98 2.244 . S
O111 C101 1.272 . S
O111 Co103 2.135 . S
H112 C113 0.951 . S
C113 H112 0.951 . S
C113 C119 1.265 . S
H114 C119 0.950 . S
H115 C123 0.949 . S
H116 C124 0.950 . S
H117 C125 0.951 . S
H118 C126 0.951 . S
C119 C113 1.265 . S
C119 H114 0.950 . S
C119 C120 1.478 . S
C120 C119 1.478 . S
C120 C121 1.397 . S
C120 C137 1.394 . S
C121 C120 1.397 . S
C121 C122 1.438 1_445 S
C121 C126 1.429 . S
C122 C121 1.438 1_665 S
C122 C123 1.428 . S
C122 C135 1.394 . S
C123 H115 0.949 . S
C123 C122 1.428 . S
C123 C124 1.345 1_655 S
C124 H116 0.950 . S
C124 C123 1.345 1_455 S
C124 C125 1.424 . S
C125 H117 0.951 . S
C125 C124 1.424 . S
C125 C126 1.347 1_565 S
C126 H118 0.951 . S
C126 C121 1.429 . S
C126 C125 1.347 1_545 S
H127 C128 0.951 . S
C128 H127 0.951 . S
C128 C134 1.265 . S
H129 C134 0.950 . S
H130 C138 0.949 . S
H131 C139 0.950 . S
H132 C140 0.951 . S
H133 C141 0.951 . S
C134 C128 1.265 . S
C134 H129 0.950 . S
C134 C135 1.478 . S
C135 C122 1.394 . S
C135 C134 1.478 . S
C135 C136 1.397 . S
C136 C135 1.397 . S
C136 C137 1.438 1_665 S
C136 C141 1.429 . S
C137 C120 1.394 . S
C137 C136 1.438 1_445 S
C137 C138 1.428 . S
C138 H130 0.949 . S
C138 C137 1.428 . S
C138 C139 1.345 1_455 S
C139 H131 0.950 . S
C139 C138 1.345 1_655 S
C139 C140 1.424 . S
C140 H132 0.951 . S
C140 C139 1.424 . S
C140 C141 1.347 1_545 S
C141 H133 0.951 . S
C141 C136 1.429 . S
C141 C140 1.347 1_565 S
H142 C143 0.951 . S
C143 H142 0.951 . S
C143 C149 1.265 . S
H144 C149 0.950 . S
H145 C153 0.949 . S
H146 C154 0.950 . S
H147 C155 0.951 . S
H148 C156 0.951 . S
C149 C143 1.265 . S
C149 H144 0.950 . S
C149 C150 1.478 . S
C150 C149 1.478 . S
C150 C151 1.397 . S
C150 C167 1.394 . S
C151 C150 1.397 . S
C151 C152 1.438 . S
C151 C156 1.429 . S
C152 C151 1.438 . S
C152 C153 1.428 . S
C152 C165 1.394 . S
C153 H145 0.949 . S
C153 C152 1.428 . S
C153 C154 1.345 . S
C154 H146 0.950 . S
C154 C153 1.345 . S
C154 C155 1.424 . S
C155 H147 0.951 . S
C155 C154 1.424 . S
C155 C156 1.347 . S
C156 H148 0.951 . S
C156 C151 1.429 . S
C156 C155 1.347 . S
H157 C158 0.951 . S
C158 H157 0.951 . S
C158 C164 1.265 . S
H159 C164 0.950 . S
H160 C168 0.949 . S
H161 C169 0.950 . S
H162 C170 0.951 . S
H163 C171 0.951 . S
C164 C158 1.265 . S
C164 H159 0.950 . S
C164 C165 1.478 . S
C165 C152 1.394 . S
C165 C164 1.478 . S
C165 C166 1.397 . S
C166 C165 1.397 . S
C166 C167 1.438 . S
C166 C171 1.429 . S
C167 C150 1.394 . S
C167 C166 1.438 . S
C167 C168 1.428 . S
C168 H160 0.949 . S
C168 C167 1.428 . S
C168 C169 1.345 . S
C169 H161 0.950 . S
C169 C168 1.345 . S
C169 C170 1.424 . S
C170 H162 0.951 . S
C170 C169 1.424 . S
C170 C171 1.347 . S
C171 H163 0.951 . S
C171 C166 1.429 . S
C171 C170 1.347 . S
H172 C173 0.951 . S
C173 H172 0.951 . S
C173 C179 1.265 . S
H174 C179 0.950 . S
H175 C183 0.949 . S
H176 C184 0.950 . S
H177 C185 0.951 . S
H178 C186 0.951 . S
C179 C173 1.265 . S
C179 H174 0.950 . S
C179 C180 1.478 . S
C180 C179 1.478 . S
C180 C181 1.397 . S
C180 C197 1.394 . S
C181 C180 1.397 . S
C181 C182 1.438 . S
C181 C186 1.429 . S
C182 C181 1.438 . S
C182 C183 1.428 . S
C182 C195 1.394 . S
C183 H175 0.949 . S
C183 C182 1.428 . S
C183 C184 1.345 . S
C184 H176 0.950 . S
C184 C183 1.345 . S
C184 C185 1.424 . S
C185 H177 0.951 . S
C185 C184 1.424 . S
C185 C186 1.347 . S
C186 H178 0.951 . S
C186 C181 1.429 . S
C186 C185 1.347 . S
H187 C188 0.951 . S
C188 H187 0.951 . S
C188 C194 1.265 . S
H189 C194 0.950 . S
H190 C198 0.949 . S
H191 C199 0.950 . S
H192 C200 0.951 . S
H193 C201 0.951 . S
C194 C188 1.265 . S
C194 H189 0.950 . S
C194 C195 1.478 . S
C195 C182 1.394 . S
C195 C194 1.478 . S
C195 C196 1.397 . S
C196 C195 1.397 . S
C196 C197 1.438 . S
C196 C201 1.429 . S
C197 C180 1.394 . S
C197 C196 1.438 . S
C197 C198 1.428 . S
C198 H190 0.949 . S
C198 C197 1.428 . S
C198 C199 1.345 . S
C199 H191 0.950 . S
C199 C198 1.345 . S
C199 C200 1.424 . S
C200 H192 0.951 . S
C200 C199 1.424 . S
C200 C201 1.347 . S
C201 H193 0.951 . S
C201 C196 1.429 . S
C201 C200 1.347 . S
H202 C203 0.951 . S
C203 H202 0.951 . S
C203 C209 1.265 . S
H204 C209 0.950 . S
H205 C213 0.949 . S
H206 C214 0.950 . S
H207 C215 0.951 . S
H208 C216 0.951 1_545 S
C209 C203 1.265 . S
C209 H204 0.950 . S
C209 C210 1.478 . S
C210 C209 1.478 . S
C210 C211 1.397 1_545 S
C210 C227 1.394 . S
C211 C210 1.397 1_565 S
C211 C212 1.438 1_455 S
C211 C216 1.429 . S
C212 C211 1.438 1_655 S
C212 C213 1.428 . S
C212 C225 1.394 . S
C213 H205 0.949 . S
C213 C212 1.428 . S
C213 C214 1.345 . S
C214 H206 0.950 . S
C214 C213 1.345 . S
C214 C215 1.424 1_655 S
C215 H207 0.951 . S
C215 C214 1.424 1_455 S
C215 C216 1.347 . S
C216 H208 0.951 1_565 S
C216 C211 1.429 . S
C216 C215 1.347 . S
H217 C218 0.951 . S
C218 H217 0.951 . S
C218 C224 1.265 . S
H219 C224 0.950 . S
H220 C228 0.949 . S
H221 C229 0.950 . S
H222 C230 0.951 . S
H223 C231 0.951 1_565 S
C224 C218 1.265 . S
C224 H219 0.950 . S
C224 C225 1.478 . S
C225 C212 1.394 . S
C225 C224 1.478 . S
C225 C226 1.397 1_565 S
C226 C225 1.397 1_545 S
C226 C227 1.438 1_655 S
C226 C231 1.429 . S
C227 C210 1.394 . S
C227 C226 1.438 1_455 S
C227 C228 1.428 . S
C228 H220 0.949 . S
C228 C227 1.428 . S
C228 C229 1.345 . S
C229 H221 0.950 . S
C229 C228 1.345 . S
C229 C230 1.424 1_455 S
C230 H222 0.951 . S
C230 C229 1.424 1_655 S
C230 C231 1.347 . S
C231 H223 0.951 1_545 S
C231 C226 1.429 . S
C231 C230 1.347 . S
H232 C233 0.951 . S
C233 H232 0.951 . S
C233 C239 1.265 . S
H234 C239 0.950 . S
H235 C243 0.949 . S
H236 C244 0.950 . S
H237 C245 0.951 . S
H238 C246 0.951 . S
C239 C233 1.265 . S
C239 H234 0.950 . S
C239 C240 1.478 . S
C240 C239 1.478 . S
C240 C241 1.397 . S
C240 C257 1.394 . S
C241 C240 1.397 . S
C241 C242 1.438 . S
C241 C246 1.429 . S
C242 C241 1.438 . S
C242 C243 1.428 . S
C242 C255 1.394 . S
C243 H235 0.949 . S
C243 C242 1.428 . S
C243 C244 1.345 . S
C244 H236 0.950 . S
C244 C243 1.345 . S
C244 C245 1.424 . S
C245 H237 0.951 . S
C245 C244 1.424 . S
C245 C246 1.347 . S
C246 H238 0.951 . S
C246 C241 1.429 . S
C246 C245 1.347 . S
H247 C248 0.951 . S
C248 H247 0.951 . S
C248 C254 1.265 . S
H249 C254 0.950 . S
H250 C258 0.949 . S
H251 C259 0.950 . S
H252 C260 0.951 . S
H253 C261 0.951 . S
C254 C248 1.265 . S
C254 H249 0.950 . S
C254 C255 1.478 . S
C255 C242 1.394 . S
C255 C254 1.478 . S
C255 C256 1.397 . S
C256 C255 1.397 . S
C256 C257 1.438 . S
C256 C261 1.429 . S
C257 C240 1.394 . S
C257 C256 1.438 . S
C257 C258 1.428 . S
C258 H250 0.949 . S
C258 C257 1.428 . S
C258 C259 1.345 . S
C259 H251 0.950 . S
C259 C258 1.345 . S
C259 C260 1.424 . S
C260 H252 0.951 . S
C260 C259 1.424 . S
C260 C261 1.347 . S
C261 H253 0.951 . S
C261 C256 1.429 . S
C261 C260 1.347 . S
H262 C263 0.951 . S
C263 H262 0.951 . S
C263 C269 1.265 . S
H264 C269 0.950 . S
H265 C273 0.949 . S
H266 C274 0.950 . S
H267 C275 0.951 . S
H268 C276 0.951 . S
C269 C263 1.265 . S
C269 H264 0.950 . S
C269 C270 1.478 . S
C270 C269 1.478 . S
C270 C271 1.397 . S
C270 C287 1.394 . S
C271 C270 1.397 . S
C271 C272 1.438 1_556 S
C271 C276 1.429 . S
C272 C271 1.438 1_554 S
C272 C273 1.428 . S
C272 C285 1.394 . S
C273 H265 0.949 . S
C273 C272 1.428 . S
C273 C274 1.345 . S
C274 H266 0.950 . S
C274 C273 1.345 . S
C274 C275 1.424 . S
C275 H267 0.951 . S
C275 C274 1.424 . S
C275 C276 1.347 1_554 S
C276 H268 0.951 . S
C276 C271 1.429 . S
C276 C275 1.347 1_556 S
H277 C278 0.951 . S
C278 H277 0.951 . S
C278 C284 1.265 . S
H279 C284 0.950 . S
H280 C288 0.949 . S
H281 C289 0.950 . S
H282 C290 0.951 . S
H283 C291 0.951 . S
C284 C278 1.265 . S
C284 H279 0.950 . S
C284 C285 1.478 . S
C285 C272 1.394 . S
C285 C284 1.478 . S
C285 C286 1.397 . S
C286 C285 1.397 . S
C286 C287 1.438 1_554 S
C286 C291 1.429 . S
C287 C270 1.394 . S
C287 C286 1.438 1_556 S
C287 C288 1.428 . S
C288 H280 0.949 . S
C288 C287 1.428 . S
C288 C289 1.345 . S
C289 H281 0.950 . S
C289 C288 1.345 . S
C289 C290 1.424 . S
C290 H282 0.951 . S
C290 C289 1.424 . S
C290 C291 1.347 1_556 S
C291 H283 0.951 . S
C291 C286 1.429 . S
C291 C290 1.347 1_554 S
H292 C293 0.951 . S
C293 H292 0.951 . S
C293 C299 1.265 . S
H294 C299 0.950 . S
H295 C303 0.949 . S
H296 C304 0.950 . S
H297 C305 0.951 . S
H298 C306 0.951 . S
C299 C293 1.265 . S
C299 H294 0.950 . S
C299 C300 1.478 . S
C300 C299 1.478 . S
C300 C301 1.397 . S
C300 C317 1.394 . S
C301 C300 1.397 . S
C301 C302 1.438 . S
C301 C306 1.429 . S
C302 C301 1.438 . S
C302 C303 1.428 . S
C302 C315 1.394 . S
C303 H295 0.949 . S
C303 C302 1.428 . S
C303 C304 1.345 . S
C304 H296 0.950 . S
C304 C303 1.345 . S
C304 C305 1.424 . S
C305 H297 0.951 . S
C305 C304 1.424 . S
C305 C306 1.347 . S
C306 H298 0.951 . S
C306 C301 1.429 . S
C306 C305 1.347 . S
H307 C308 0.951 . S
C308 H307 0.951 . S
C308 C314 1.265 . S
H309 C314 0.950 . S
H310 C318 0.949 . S
H311 C319 0.950 . S
H312 C320 0.951 . S
H313 C321 0.951 . S
C314 C308 1.265 . S
C314 H309 0.950 . S
C314 C315 1.478 . S
C315 C302 1.394 . S
C315 C314 1.478 . S
C315 C316 1.397 . S
C316 C315 1.397 . S
C316 C317 1.438 . S
C316 C321 1.429 . S
C317 C300 1.394 . S
C317 C316 1.438 . S
C317 C318 1.428 . S
C318 H310 0.949 . S
C318 C317 1.428 . S
C318 C319 1.345 . S
C319 H311 0.950 . S
C319 C318 1.345 . S
C319 C320 1.424 . S
C320 H312 0.951 . S
C320 C319 1.424 . S
C320 C321 1.347 . S
C321 H313 0.951 . S
C321 C316 1.429 . S
C321 C320 1.347 . S
H322 C323 0.951 . S
C323 H322 0.951 . S
C323 C329 1.265 . S
H324 C329 0.950 . S
H325 C333 0.949 . S
H326 C334 0.950 . S
H327 C335 0.951 . S
H328 C336 0.951 . S
C329 C323 1.265 . S
C329 H324 0.950 . S
C329 C330 1.478 . S
C330 C329 1.478 . S
C330 C331 1.397 . S
C330 C347 1.394 . S
C331 C330 1.397 . S
C331 C332 1.438 1_556 S
C331 C336 1.429 . S
C332 C331 1.438 1_554 S
C332 C333 1.428 . S
C332 C345 1.394 . S
C333 H325 0.949 . S
C333 C332 1.428 . S
C333 C334 1.345 . S
C334 H326 0.950 . S
C334 C333 1.345 . S
C334 C335 1.424 1_554 S
C335 H327 0.951 . S
C335 C334 1.424 1_556 S
C335 C336 1.347 . S
C336 H328 0.951 . S
C336 C331 1.429 . S
C336 C335 1.347 . S
H337 C338 0.951 . S
C338 H337 0.951 . S
C338 C344 1.265 . S
H339 C344 0.950 . S
H340 C348 0.949 . S
H341 C349 0.950 . S
H342 C350 0.951 . S
H343 C351 0.951 . S
C344 C338 1.265 . S
C344 H339 0.950 . S
C344 C345 1.478 . S
C345 C332 1.394 . S
C345 C344 1.478 . S
C345 C346 1.397 . S
C346 C345 1.397 . S
C346 C347 1.438 1_554 S
C346 C351 1.429 . S
C347 C330 1.394 . S
C347 C346 1.438 1_556 S
C347 C348 1.428 . S
C348 H340 0.949 . S
C348 C347 1.428 . S
C348 C349 1.345 . S
C349 H341 0.950 . S
C349 C348 1.345 . S
C349 C350 1.424 1_556 S
C350 H342 0.951 . S
C350 C349 1.424 1_554 S
C350 C351 1.347 . S
C351 H343 0.951 . S
C351 C346 1.429 . S
C351 C350 1.347 . S
H352 C353 0.951 . S
C353 H352 0.951 . S
C353 C359 1.265 . S
H354 C359 0.950 . S
H355 C363 0.949 . S
H356 C364 0.950 . S
H357 C365 0.951 . S
H358 C366 0.951 . S
C359 C353 1.265 . S
C359 H354 0.950 . S
C359 C360 1.478 . S
C360 C359 1.478 . S
C360 C361 1.397 . S
C360 C377 1.394 . S
C361 C360 1.397 . S
C361 C362 1.438 . S
C361 C366 1.429 . S
C362 C361 1.438 . S
C362 C363 1.428 . S
C362 C375 1.394 . S
C363 H355 0.949 . S
C363 C362 1.428 . S
C363 C364 1.345 . S
C364 H356 0.950 . S
C364 C363 1.345 . S
C364 C365 1.424 . S
C365 H357 0.951 . S
C365 C364 1.424 . S
C365 C366 1.347 . S
C366 H358 0.951 . S
C366 C361 1.429 . S
C366 C365 1.347 . S
H367 C368 0.951 . S
C368 H367 0.951 . S
C368 C374 1.265 . S
H369 C374 0.950 . S
H370 C378 0.949 . S
H371 C379 0.950 . S
H372 C380 0.951 . S
H373 C381 0.951 . S
C374 C368 1.265 . S
C374 H369 0.950 . S
C374 C375 1.478 . S
C375 C362 1.394 . S
C375 C374 1.478 . S
C375 C376 1.397 . S
C376 C375 1.397 . S
C376 C377 1.438 . S
C376 C381 1.429 . S
C377 C360 1.394 . S
C377 C376 1.438 . S
C377 C378 1.428 . S
C378 H370 0.949 . S
C378 C377 1.428 . S
C378 C379 1.345 . S
C379 H371 0.950 . S
C379 C378 1.345 . S
C379 C380 1.424 . S
C380 H372 0.951 . S
C380 C379 1.424 . S
C380 C381 1.347 . S
C381 H373 0.951 . S
C381 C376 1.429 . S
C381 C380 1.347 . S
H382 C383 0.951 . S
C383 H382 0.951 . S
C383 C389 1.265 . S
H384 C389 0.950 . S
H385 C393 0.949 1_545 S
H386 C394 0.950 1_545 S
H387 C395 0.951 . S
H388 C396 0.951 . S
C389 C383 1.265 . S
C389 H384 0.950 . S
C389 C390 1.478 . S
C390 C389 1.478 . S
C390 C391 1.397 . S
C390 C407 1.394 . S
C391 C390 1.397 . S
C391 C392 1.438 . S
C391 C396 1.429 . S
C392 C391 1.438 . S
C392 C393 1.428 . S
C392 C405 1.394 . S
C393 H385 0.949 1_565 S
C393 C392 1.428 . S
C393 C394 1.345 . S
C394 H386 0.950 1_565 S
C394 C393 1.345 . S
C394 C395 1.424 . S
C395 H387 0.951 . S
C395 C394 1.424 . S
C395 C396 1.347 . S
C396 H388 0.951 . S
C396 C391 1.429 . S
C396 C395 1.347 . S
H397 C398 0.951 . S
C398 H397 0.951 . S
C398 C404 1.265 1_545 S
H399 C404 0.950 . S
H400 C408 0.949 . S
H401 C409 0.950 . S
H402 C410 0.951 . S
H403 C411 0.951 . S
C404 C398 1.265 1_565 S
C404 H399 0.950 . S
C404 C405 1.478 . S
C405 C392 1.394 . S
C405 C404 1.478 . S
C405 C406 1.397 . S
C406 C405 1.397 . S
C406 C407 1.438 . S
C406 C411 1.429 . S
C407 C390 1.394 . S
C407 C406 1.438 . S
C407 C408 1.428 . S
C408 H400 0.949 . S
C408 C407 1.428 . S
C408 C409 1.345 . S
C409 H401 0.950 . S
C409 C408 1.345 . S
C409 C410 1.424 . S
C410 H402 0.951 . S
C410 C409 1.424 . S
C410 C411 1.347 . S
C411 H403 0.951 . S
C411 C406 1.429 . S
C411 C410 1.347 . S
H412 C413 0.951 . S
C413 H412 0.951 . S
C413 C419 1.265 . S
H414 C419 0.950 . S
H415 C423 0.949 . S
H416 C424 0.950 . S
H417 C425 0.951 . S
H418 C426 0.951 . S
C419 C413 1.265 . S
C419 H414 0.950 . S
C419 C420 1.478 . S
C420 C419 1.478 . S
C420 C421 1.397 . S
C420 C437 1.394 . S
C421 C420 1.397 . S
C421 C422 1.438 . S
C421 C426 1.429 . S
C422 C421 1.438 . S
C422 C423 1.428 . S
C422 C435 1.394 . S
C423 H415 0.949 . S
C423 C422 1.428 . S
C423 C424 1.345 . S
C424 H416 0.950 . S
C424 C423 1.345 . S
C424 C425 1.424 . S
C425 H417 0.951 . S
C425 C424 1.424 . S
C425 C426 1.347 . S
C426 H418 0.951 . S
C426 C421 1.429 . S
C426 C425 1.347 . S
H427 C428 0.951 . S
C428 H427 0.951 . S
C428 C434 1.265 . S
H429 C434 0.950 . S
H430 C438 0.949 . S
H431 C439 0.950 . S
H432 C440 0.951 . S
H433 C441 0.951 . S
C434 C428 1.265 . S
C434 H429 0.950 . S
C434 C435 1.478 . S
C435 C422 1.394 . S
C435 C434 1.478 . S
C435 C436 1.397 . S
C436 C435 1.397 . S
C436 C437 1.438 . S
C436 C441 1.429 . S
C437 C420 1.394 . S
C437 C436 1.438 . S
C437 C438 1.428 . S
C438 H430 0.949 . S
C438 C437 1.428 . S
C438 C439 1.345 . S
C439 H431 0.950 . S
C439 C438 1.345 . S
C439 C440 1.424 . S
C440 H432 0.951 . S
C440 C439 1.424 . S
C440 C441 1.347 . S
C441 H433 0.951 . S
C441 C436 1.429 . S
C441 C440 1.347 . S
H442 C443 0.951 . S
C443 H442 0.951 . S
C443 C449 1.265 . S
H444 C449 0.950 . S
H445 C453 0.949 . S
H446 C454 0.950 . S
H447 C455 0.951 . S
H448 C456 0.951 . S
C449 C443 1.265 . S
C449 H444 0.950 . S
C449 C450 1.478 . S
C450 C449 1.478 . S
C450 C451 1.397 . S
C450 C467 1.394 . S
C451 C450 1.397 . S
C451 C452 1.438 . S
C451 C456 1.429 . S
C452 C451 1.438 . S
C452 C453 1.428 . S
C452 C465 1.394 . S
C453 H445 0.949 . S
C453 C452 1.428 . S
C453 C454 1.345 . S
C454 H446 0.950 . S
C454 C453 1.345 . S
C454 C455 1.424 . S
C455 H447 0.951 . S
C455 C454 1.424 . S
C455 C456 1.347 . S
C456 H448 0.951 . S
C456 C451 1.429 . S
C456 C455 1.347 . S
H457 C458 0.951 . S
C458 H457 0.951 . S
C458 C464 1.265 1_565 S
H459 C464 0.950 . S
H460 C468 0.949 . S
H461 C469 0.950 . S
H462 C470 0.951 . S
H463 C471 0.951 . S
C464 C458 1.265 1_545 S
C464 H459 0.950 . S
C464 C465 1.478 . S
C465 C452 1.394 . S
C465 C464 1.478 . S
C465 C466 1.397 . S
C466 C465 1.397 . S
C466 C467 1.438 . S
C466 C471 1.429 . S
C467 C450 1.394 . S
C467 C466 1.438 . S
C467 C468 1.428 . S
C468 H460 0.949 . S
C468 C467 1.428 . S
C468 C469 1.345 . S
C469 H461 0.950 . S
C469 C468 1.345 . S
C469 C470 1.424 . S
C470 H462 0.951 . S
C470 C469 1.424 . S
C470 C471 1.347 . S
C471 H463 0.951 . S
C471 C466 1.429 . S
C471 C470 1.347 . S
H472 C473 0.951 . S
C473 H472 0.951 . S
C473 C479 1.265 1_455 S
H474 C479 0.950 . S
H475 C483 0.949 . S
H476 C484 0.950 . S
H477 C485 0.951 . S
H478 C486 0.951 . S
C479 C473 1.265 1_655 S
C479 H474 0.950 . S
C479 C480 1.478 . S
C480 C479 1.478 . S
C480 C481 1.397 . S
C480 C497 1.394 . S
C481 C480 1.397 . S
C481 C482 1.438 . S
C481 C486 1.429 . S
C482 C481 1.438 . S
C482 C483 1.428 . S
C482 C495 1.394 . S
C483 H475 0.949 . S
C483 C482 1.428 . S
C483 C484 1.345 . S
C484 H476 0.950 . S
C484 C483 1.345 . S
C484 C485 1.424 . S
C485 H477 0.951 . S
C485 C484 1.424 . S
C485 C486 1.347 . S
C486 H478 0.951 . S
C486 C481 1.429 . S
C486 C485 1.347 . S
H487 C488 0.951 . S
C488 H487 0.951 . S
C488 C494 1.265 . S
H489 C494 0.950 . S
H490 C498 0.949 . S
H491 C499 0.950 . S
H492 C500 0.951 . S
H493 C501 0.951 . S
C494 C488 1.265 . S
C494 H489 0.950 . S
C494 C495 1.478 . S
C495 C482 1.394 . S
C495 C494 1.478 . S
C495 C496 1.397 . S
C496 C495 1.397 . S
C496 C497 1.438 . S
C496 C501 1.429 . S
C497 C480 1.394 . S
C497 C496 1.438 . S
C497 C498 1.428 . S
C498 H490 0.949 . S
C498 C497 1.428 . S
C498 C499 1.345 . S
C499 H491 0.950 . S
C499 C498 1.345 . S
C499 C500 1.424 . S
C500 H492 0.951 . S
C500 C499 1.424 . S
C500 C501 1.347 . S
C501 H493 0.951 . S
C501 C496 1.429 . S
C501 C500 1.347 . S
H502 C503 0.951 . S
C503 H502 0.951 . S
C503 C509 1.265 . S
H504 C509 0.950 . S
H505 C513 0.949 . S
H506 C514 0.950 . S
H507 C515 0.951 . S
H508 C516 0.951 . S
C509 C503 1.265 . S
C509 H504 0.950 . S
C509 C510 1.478 . S
C510 C509 1.478 . S
C510 C511 1.397 . S
C510 C527 1.394 . S
C511 C510 1.397 . S
C511 C512 1.438 . S
C511 C516 1.429 . S
C512 C511 1.438 . S
C512 C513 1.428 . S
C512 C525 1.394 . S
C513 H505 0.949 . S
C513 C512 1.428 . S
C513 C514 1.345 . S
C514 H506 0.950 . S
C514 C513 1.345 . S
C514 C515 1.424 . S
C515 H507 0.951 . S
C515 C514 1.424 . S
C515 C516 1.347 . S
C516 H508 0.951 . S
C516 C511 1.429 . S
C516 C515 1.347 . S
H517 C518 0.951 . S
C518 H517 0.951 . S
C518 C524 1.265 . S
H519 C524 0.950 . S
H520 C528 0.949 . S
H521 C529 0.950 . S
H522 C530 0.951 . S
H523 C531 0.951 . S
C524 C518 1.265 . S
C524 H519 0.950 . S
C524 C525 1.478 . S
C525 C512 1.394 . S
C525 C524 1.478 . S
C525 C526 1.397 . S
C526 C525 1.397 . S
C526 C527 1.438 . S
C526 C531 1.429 . S
C527 C510 1.394 . S
C527 C526 1.438 . S
C527 C528 1.428 . S
C528 H520 0.949 . S
C528 C527 1.428 . S
C528 C529 1.345 . S
C529 H521 0.950 . S
C529 C528 1.345 . S
C529 C530 1.424 . S
C530 H522 0.951 . S
C530 C529 1.424 . S
C530 C531 1.347 . S
C531 H523 0.951 . S
C531 C526 1.429 . S
C531 C530 1.347 . S
H532 C533 0.951 . S
C533 H532 0.951 . S
C533 C539 1.265 . S
H534 C539 0.950 . S
H535 C543 0.949 . S
H536 C544 0.950 . S
H537 C545 0.951 . S
H538 C546 0.951 . S
C539 C533 1.265 . S
C539 H534 0.950 . S
C539 C540 1.478 . S
C540 C539 1.478 . S
C540 C541 1.397 . S
C540 C557 1.394 . S
C541 C540 1.397 . S
C541 C542 1.438 . S
C541 C546 1.429 . S
C542 C541 1.438 . S
C542 C543 1.428 . S
C542 C555 1.394 . S
C543 H535 0.949 . S
C543 C542 1.428 . S
C543 C544 1.345 . S
C544 H536 0.950 . S
C544 C543 1.345 . S
C544 C545 1.424 . S
C545 H537 0.951 . S
C545 C544 1.424 . S
C545 C546 1.347 . S
C546 H538 0.951 . S
C546 C541 1.429 . S
C546 C545 1.347 . S
H547 C548 0.951 1_455 S
C548 H547 0.951 1_655 S
C548 C554 1.271 . S
H549 C554 0.962 . S
H550 C558 0.949 . S
H551 C559 0.950 . S
H552 C560 0.951 . S
H553 C561 0.951 . S
C554 C548 1.271 . S
C554 H549 0.962 . S
C554 C555 1.461 1_655 S
C555 C542 1.394 . S
C555 C554 1.461 1_455 S
C555 C556 1.397 . S
C556 C555 1.397 . S
C556 C557 1.438 . S
C556 C561 1.429 . S
C557 C540 1.394 . S
C557 C556 1.438 . S
C557 C558 1.428 . S
C558 H550 0.949 . S
C558 C557 1.428 . S
C558 C559 1.345 . S
C559 H551 0.950 . S
C559 C558 1.345 . S
C559 C560 1.424 . S
C560 H552 0.951 . S
C560 C559 1.424 . S
C560 C561 1.347 . S
C561 H553 0.951 . S
C561 C556 1.429 . S
C561 C560 1.347 . S
H562 C563 0.951 . S
C563 H562 0.951 . S
C563 C569 1.265 . S
H564 C569 0.950 . S
H565 C573 0.949 . S
H566 C574 0.950 . S
H567 C575 0.951 . S
H568 C576 0.951 . S
C569 C563 1.265 . S
C569 H564 0.950 . S
C569 C570 1.478 . S
C570 C569 1.478 . S
C570 C571 1.397 . S
C570 C587 1.394 . S
C571 C570 1.397 . S
C571 C572 1.438 . S
C571 C576 1.429 . S
C572 C571 1.438 . S
C572 C573 1.428 . S
C572 C585 1.394 . S
C573 H565 0.949 . S
C573 C572 1.428 . S
C573 C574 1.345 . S
C574 H566 0.950 . S
C574 C573 1.345 . S
C574 C575 1.424 . S
C575 H567 0.951 . S
C575 C574 1.424 . S
C575 C576 1.347 . S
C576 H568 0.951 . S
C576 C571 1.429 . S
C576 C575 1.347 . S
H577 C578 0.951 . S
C578 H577 0.951 . S
C578 C584 1.265 . S
H579 C584 0.950 . S
H580 C588 0.949 . S
H581 C589 0.950 . S
H582 C590 0.951 . S
H583 C591 0.951 . S
C584 C578 1.265 . S
C584 H579 0.950 . S
C584 C585 1.478 . S
C585 C572 1.394 . S
C585 C584 1.478 . S
C585 C586 1.397 . S
C586 C585 1.397 . S
C586 C587 1.438 . S
C586 C591 1.429 . S
C587 C570 1.394 . S
C587 C586 1.438 . S
C587 C588 1.428 . S
C588 H580 0.949 . S
C588 C587 1.428 . S
C588 C589 1.345 . S
C589 H581 0.950 . S
C589 C588 1.345 . S
C589 C590 1.424 . S
C590 H582 0.951 . S
C590 C589 1.424 . S
C590 C591 1.347 . S
C591 H583 0.951 . S
C591 C586 1.429 . S
C591 C590 1.347 . S
C113 C9 0.373 . S
C128 C37 0.376 . S
C143 C23 0.600 . S
C158 C51 0.602 . S
C173 C65 0.376 . S
C188 C93 0.387 . S
C203 C79 0.601 . S
C218 C107 0.601 . S
C233 C7 1.356 . S
C248 C77 1.317 . S
C263 C21 1.291 . S
C278 C91 1.376 . S
C293 C105 1.307 . S
C308 C35 1.365 . S
C323 C49 1.345 . S
C338 C63 1.296 . S
C353 C59 1.713 . S
C368 C8 1.759 . S
C383 C22 1.714 . S
C398 C73 1.660 . S
C413 C36 1.732 . S
C428 C87 1.699 . S
C443 C50 1.766 . S
C458 C101 1.742 . S
C473 C3 1.700 . S
C488 C64 1.733 . S
C503 C78 1.712 . S
C518 C17 1.660 . S
C533 C92 1.759 . S
C548 C31 1.713 . S
C563 C45 1.662 . S
C578 C106 1.712 . S
