# Generated by pormake.
# Topology uke, (4)-cn, num edge types: 1
# Building blocks:
#     Node 0, Type 0, BuildingBlock: ICAMEG_clean_sbu_1, # of connection points: 4
#     Node 1, Type 0, BuildingBlock: ICAMEG_clean_sbu_1, # of connection points: 4
#     Node 2, Type 0, BuildingBlock: ICAMEG_clean_sbu_1, # of connection points: 4
#     Node 3, Type 0, BuildingBlock: ICAMEG_clean_sbu_1, # of connection points: 4
#     Node 4, Type 0, BuildingBlock: ICAMEG_clean_sbu_1, # of connection points: 4
#     Node 5, Type 0, BuildingBlock: ICAMEG_clean_sbu_1, # of connection points: 4
#     Node 6, Type 0, BuildingBlock: ICAMEG_clean_sbu_1, # of connection points: 4
#     Node 7, Type 0, BuildingBlock: ICAMEG_clean_sbu_1, # of connection points: 4
#     Node 8, Type 0, BuildingBlock: ICAMEG_clean_sbu_1, # of connection points: 4
#     Node 9, Type 0, BuildingBlock: ICAMEG_clean_sbu_1, # of connection points: 4
#     Node 10, Type 0, BuildingBlock: ICAMEG_clean_sbu_1, # of connection points: 4
#     Node 11, Type 0, BuildingBlock: ICAMEG_clean_sbu_1, # of connection points: 4
#     Node 12, Type 0, BuildingBlock: ICAMEG_clean_sbu_1, # of connection points: 4
#     Node 13, Type 0, BuildingBlock: ICAMEG_clean_sbu_1, # of connection points: 4
#     Node 14, Type 0, BuildingBlock: ICAMEG_clean_sbu_1, # of connection points: 4
#     Node 15, Type 0, BuildingBlock: ICAMEG_clean_sbu_1, # of connection points: 4
#     Node 16, Type 0, BuildingBlock: ICAMEG_clean_sbu_1, # of connection points: 4
#     Node 17, Type 0, BuildingBlock: ICAMEG_clean_sbu_1, # of connection points: 4
#     Node 18, Type 0, BuildingBlock: ICAMEG_clean_sbu_1, # of connection points: 4
#     Node 19, Type 0, BuildingBlock: ICAMEG_clean_sbu_1, # of connection points: 4
#     Node 20, Type 0, BuildingBlock: ICAMEG_clean_sbu_1, # of connection points: 4
#     Node 21, Type 0, BuildingBlock: ICAMEG_clean_sbu_1, # of connection points: 4
#     Node 22, Type 0, BuildingBlock: ICAMEG_clean_sbu_1, # of connection points: 4
#     Node 23, Type 0, BuildingBlock: ICAMEG_clean_sbu_1, # of connection points: 4
#     Node 24, Type 0, BuildingBlock: ICAMEG_clean_sbu_1, # of connection points: 4
#     Node 25, Type 0, BuildingBlock: ICAMEG_clean_sbu_1, # of connection points: 4
#     Node 26, Type 0, BuildingBlock: ICAMEG_clean_sbu_1, # of connection points: 4
#     Node 27, Type 0, BuildingBlock: ICAMEG_clean_sbu_1, # of connection points: 4
#     Node 28, Type 0, BuildingBlock: ICAMEG_clean_sbu_1, # of connection points: 4
#     Node 29, Type 0, BuildingBlock: ICAMEG_clean_sbu_1, # of connection points: 4
#     Node 30, Type 0, BuildingBlock: ICAMEG_clean_sbu_1, # of connection points: 4
#     Node 31, Type 0, BuildingBlock: ICAMEG_clean_sbu_1, # of connection points: 4
#     Edge 32, Type (0, 0), BuildingBlock: UVAHIK_clean_linker_0, # of connection points: 2
#     Edge 33, Type (0, 0), BuildingBlock: UVAHIK_clean_linker_0, # of connection points: 2
#     Edge 34, Type (0, 0), BuildingBlock: UVAHIK_clean_linker_0, # of connection points: 2
#     Edge 35, Type (0, 0), BuildingBlock: UVAHIK_clean_linker_0, # of connection points: 2
#     Edge 36, Type (0, 0), BuildingBlock: UVAHIK_clean_linker_0, # of connection points: 2
#     Edge 37, Type (0, 0), BuildingBlock: UVAHIK_clean_linker_0, # of connection points: 2
#     Edge 38, Type (0, 0), BuildingBlock: UVAHIK_clean_linker_0, # of connection points: 2
#     Edge 39, Type (0, 0), BuildingBlock: UVAHIK_clean_linker_0, # of connection points: 2
#     Edge 40, Type (0, 0), BuildingBlock: UVAHIK_clean_linker_0, # of connection points: 2
#     Edge 41, Type (0, 0), BuildingBlock: UVAHIK_clean_linker_0, # of connection points: 2
#     Edge 42, Type (0, 0), BuildingBlock: UVAHIK_clean_linker_0, # of connection points: 2
#     Edge 43, Type (0, 0), BuildingBlock: UVAHIK_clean_linker_0, # of connection points: 2
#     Edge 44, Type (0, 0), BuildingBlock: UVAHIK_clean_linker_0, # of connection points: 2
#     Edge 45, Type (0, 0), BuildingBlock: UVAHIK_clean_linker_0, # of connection points: 2
#     Edge 46, Type (0, 0), BuildingBlock: UVAHIK_clean_linker_0, # of connection points: 2
#     Edge 47, Type (0, 0), BuildingBlock: UVAHIK_clean_linker_0, # of connection points: 2
#     Edge 48, Type (0, 0), BuildingBlock: UVAHIK_clean_linker_0, # of connection points: 2
#     Edge 49, Type (0, 0), BuildingBlock: UVAHIK_clean_linker_0, # of connection points: 2
#     Edge 50, Type (0, 0), BuildingBlock: UVAHIK_clean_linker_0, # of connection points: 2
#     Edge 51, Type (0, 0), BuildingBlock: UVAHIK_clean_linker_0, # of connection points: 2
#     Edge 52, Type (0, 0), BuildingBlock: UVAHIK_clean_linker_0, # of connection points: 2
#     Edge 53, Type (0, 0), BuildingBlock: UVAHIK_clean_linker_0, # of connection points: 2
#     Edge 54, Type (0, 0), BuildingBlock: UVAHIK_clean_linker_0, # of connection points: 2
#     Edge 55, Type (0, 0), BuildingBlock: UVAHIK_clean_linker_0, # of connection points: 2
#     Edge 56, Type (0, 0), BuildingBlock: UVAHIK_clean_linker_0, # of connection points: 2
#     Edge 57, Type (0, 0), BuildingBlock: UVAHIK_clean_linker_0, # of connection points: 2
#     Edge 58, Type (0, 0), BuildingBlock: UVAHIK_clean_linker_0, # of connection points: 2
#     Edge 59, Type (0, 0), BuildingBlock: UVAHIK_clean_linker_0, # of connection points: 2
#     Edge 60, Type (0, 0), BuildingBlock: UVAHIK_clean_linker_0, # of connection points: 2
#     Edge 61, Type (0, 0), BuildingBlock: UVAHIK_clean_linker_0, # of connection points: 2
#     Edge 62, Type (0, 0), BuildingBlock: UVAHIK_clean_linker_0, # of connection points: 2
#     Edge 63, Type (0, 0), BuildingBlock: UVAHIK_clean_linker_0, # of connection points: 2
#     Edge 64, Type (0, 0), BuildingBlock: UVAHIK_clean_linker_0, # of connection points: 2
#     Edge 65, Type (0, 0), BuildingBlock: UVAHIK_clean_linker_0, # of connection points: 2
#     Edge 66, Type (0, 0), BuildingBlock: UVAHIK_clean_linker_0, # of connection points: 2
#     Edge 67, Type (0, 0), BuildingBlock: UVAHIK_clean_linker_0, # of connection points: 2
#     Edge 68, Type (0, 0), BuildingBlock: UVAHIK_clean_linker_0, # of connection points: 2
#     Edge 69, Type (0, 0), BuildingBlock: UVAHIK_clean_linker_0, # of connection points: 2
#     Edge 70, Type (0, 0), BuildingBlock: UVAHIK_clean_linker_0, # of connection points: 2
#     Edge 71, Type (0, 0), BuildingBlock: UVAHIK_clean_linker_0, # of connection points: 2
#     Edge 72, Type (0, 0), BuildingBlock: UVAHIK_clean_linker_0, # of connection points: 2
#     Edge 73, Type (0, 0), BuildingBlock: UVAHIK_clean_linker_0, # of connection points: 2
#     Edge 74, Type (0, 0), BuildingBlock: UVAHIK_clean_linker_0, # of connection points: 2
#     Edge 75, Type (0, 0), BuildingBlock: UVAHIK_clean_linker_0, # of connection points: 2
#     Edge 76, Type (0, 0), BuildingBlock: UVAHIK_clean_linker_0, # of connection points: 2
#     Edge 77, Type (0, 0), BuildingBlock: UVAHIK_clean_linker_0, # of connection points: 2
#     Edge 78, Type (0, 0), BuildingBlock: UVAHIK_clean_linker_0, # of connection points: 2
#     Edge 79, Type (0, 0), BuildingBlock: UVAHIK_clean_linker_0, # of connection points: 2
#     Edge 80, Type (0, 0), BuildingBlock: UVAHIK_clean_linker_0, # of connection points: 2
#     Edge 81, Type (0, 0), BuildingBlock: UVAHIK_clean_linker_0, # of connection points: 2
#     Edge 82, Type (0, 0), BuildingBlock: UVAHIK_clean_linker_0, # of connection points: 2
#     Edge 83, Type (0, 0), BuildingBlock: UVAHIK_clean_linker_0, # of connection points: 2
#     Edge 84, Type (0, 0), BuildingBlock: UVAHIK_clean_linker_0, # of connection points: 2
#     Edge 85, Type (0, 0), BuildingBlock: UVAHIK_clean_linker_0, # of connection points: 2
#     Edge 86, Type (0, 0), BuildingBlock: UVAHIK_clean_linker_0, # of connection points: 2
#     Edge 87, Type (0, 0), BuildingBlock: UVAHIK_clean_linker_0, # of connection points: 2
#     Edge 88, Type (0, 0), BuildingBlock: UVAHIK_clean_linker_0, # of connection points: 2
#     Edge 89, Type (0, 0), BuildingBlock: UVAHIK_clean_linker_0, # of connection points: 2
#     Edge 90, Type (0, 0), BuildingBlock: UVAHIK_clean_linker_0, # of connection points: 2
#     Edge 91, Type (0, 0), BuildingBlock: UVAHIK_clean_linker_0, # of connection points: 2
#     Edge 92, Type (0, 0), BuildingBlock: UVAHIK_clean_linker_0, # of connection points: 2
#     Edge 93, Type (0, 0), BuildingBlock: UVAHIK_clean_linker_0, # of connection points: 2
#     Edge 94, Type (0, 0), BuildingBlock: UVAHIK_clean_linker_0, # of connection points: 2
#     Edge 95, Type (0, 0), BuildingBlock: UVAHIK_clean_linker_0, # of connection points: 2
# Relax obj value: 0.041
# Max RMSD: 0.116
# Mean RMSD: 0.115
data_MOF--net-uke--node1-ICAMEG_clean_sbu_1--edge1-UVAHIK_clean_linker_0
_symmetry_space_group_name_H-M    P1
_symmetry_Int_Tables_number       1
_symmetry_cell_setting            triclinic
loop_
_symmetry_equiv_pos_as_xyz
'x, y, z'
_cell_length_a     25.424907
_cell_length_b     153.80838
_cell_length_c     74.042871
_cell_angle_alpha  89.995391
_cell_angle_beta   90.003057
_cell_angle_gamma 90.005437
loop_
_atom_site_label
_atom_site_type_symbol
_atom_site_fract_x
_atom_site_fract_y
_atom_site_fract_z
_atom_type_partial_charge
Co0 Co 0.14399 0.05486 0.25708 0.0
Co1 Co 0.02176 0.04541 0.25114 0.0
O2 O 0.0692 0.05377 0.26248 0.0
C3 C 0.10049 0.07218 0.24967 0.0
O4 O 0.0608 0.06825 0.24181 0.0
C5 C 0.01614 0.04161 0.28996 0.0
O6 O 0.06775 0.04167 0.28973 0.0
O7 O 0.07287 0.03574 0.25449 0.0
O8 O 0.15236 0.04201 0.25687 0.0
H9 H 0.9725 0.02116 0.20893 0.0
H10 H 0.09853 0.0644 0.28812 0.0
O11 O 0.13725 0.06778 0.25692 0.0
H12 H 0.23384 0.04519 0.31427 0.0
H13 H 0.32361 0.06829 0.26341 0.0
H14 H 0.21814 0.04589 0.23242 0.0
H15 H 0.21844 0.04546 0.28138 0.0
H16 H 0.22918 0.06658 0.27021 0.0
O17 O 0.99047 0.04285 0.27541 0.0
H18 H 0.03244 0.0318 0.223 0.0
H19 H 0.90833 0.04116 0.25609 0.0
H20 H 0.31255 0.04732 0.22532 0.0
H21 H 0.11283 0.06438 0.32108 0.0
H22 H 0.36593 0.05858 0.24087 0.0
H23 H 0.18079 0.0547 0.33436 0.0
O24 O 0.12998 0.05473 0.23068 0.0
H25 H 0.91632 0.07143 0.27049 0.0
H26 H 0.95846 0.05176 0.21992 0.0
H27 H 0.89666 0.0639 0.21506 0.0
H28 H 0.8752 0.07383 0.24047 0.0
H29 H 0.97823 0.05926 0.27471 0.0
H30 H 0.84711 0.03057 0.24249 0.0
H31 H 0.8791 0.0205 0.21868 0.0
O32 O 0.05262 0.04786 0.22684 0.0
C33 C 0.1228 0.03534 0.25596 0.0
C34 C 0.95805 0.02553 0.21925 0.0
C35 C 0.88769 0.03081 0.2381 0.0
N36 N 0.97376 0.03714 0.24022 0.0
C37 C 0.99176 0.03159 0.22722 0.0
C38 C 0.92255 0.03678 0.24578 0.0
C39 C 0.90566 0.02516 0.22474 0.0
C40 C 0.12853 0.06024 0.29379 0.0
N41 N 0.15779 0.05497 0.28284 0.0
C42 C 0.13631 0.06023 0.31246 0.0
C43 C 0.17439 0.05478 0.31991 0.0
C44 C 0.20415 0.04944 0.30864 0.0
C45 C 0.1952 0.04961 0.29003 0.0
C46 C 0.30079 0.06334 0.25657 0.0
C47 C 0.24121 0.05077 0.23933 0.0
C48 C 0.2473 0.06235 0.26035 0.0
N49 N 0.21832 0.05609 0.25183 0.0
C50 C 0.2946 0.05156 0.23521 0.0
C51 C 0.32452 0.05789 0.24393 0.0
C52 C 0.09376 0.05159 0.22069 0.0
C53 C 0.92523 0.06713 0.25933 0.0
C54 C 0.94939 0.05607 0.23103 0.0
C55 C 0.91429 0.06292 0.22821 0.0
C56 C 0.90224 0.06848 0.24247 0.0
N57 N 0.97172 0.05478 0.24761 0.0
C58 C 0.96008 0.0602 0.26166 0.0
Co59 Co 0.10585 0.18266 0.25582 0.0
Co60 Co 0.22923 0.19176 0.25031 0.0
O61 O 0.18052 0.18356 0.26157 0.0
C62 C 0.14763 0.16517 0.24895 0.0
O63 O 0.18808 0.16894 0.2412 0.0
C64 C 0.23418 0.19565 0.28912 0.0
O65 O 0.18257 0.1957 0.28877 0.0
O66 O 0.17906 0.20159 0.25339 0.0
O67 O 0.09888 0.19553 0.25534 0.0
H68 H 0.28241 0.21575 0.20802 0.0
H69 H 0.14901 0.17313 0.28726 0.0
O70 O 0.11114 0.16973 0.25594 0.0
H71 H 0.01469 0.19284 0.31237 0.0
H72 H 0.92453 0.1698 0.26152 0.0
H73 H 0.03372 0.19174 0.23062 0.0
H74 H 0.03141 0.19238 0.27957 0.0
H75 H 0.01884 0.17126 0.26876 0.0
O76 O 0.26005 0.1943 0.27465 0.0
H77 H 0.22088 0.20533 0.222 0.0
H78 H 0.34295 0.19568 0.25563 0.0
H79 H 0.93947 0.19056 0.22307 0.0
H80 H 0.13335 0.17334 0.32014 0.0
H81 H 0.88422 0.17952 0.23858 0.0
H82 H 0.06589 0.18327 0.3329 0.0
O83 O 0.12093 0.18263 0.22948 0.0
H84 H 0.33119 0.16548 0.27035 0.0
H85 H 0.29282 0.18513 0.2194 0.0
H86 H 0.35342 0.1728 0.21492 0.0
H87 H 0.37298 0.16288 0.24052 0.0
H88 H 0.2705 0.17785 0.2742 0.0
H89 H 0.40575 0.20604 0.24212 0.0
H90 H 0.3756 0.21614 0.21808 0.0
O91 O 0.19892 0.18934 0.22593 0.0
C92 C 0.12911 0.20212 0.25457 0.0
C93 C 0.29607 0.21136 0.21843 0.0
C94 C 0.36528 0.20592 0.23759 0.0
N95 N 0.27845 0.19985 0.23949 0.0
C96 C 0.26145 0.20543 0.22636 0.0
C97 C 0.32953 0.20008 0.24521 0.0
C98 C 0.34833 0.21158 0.2241 0.0
C99 C 0.11922 0.1774 0.2927 0.0
N100 N 0.09098 0.1827 0.28151 0.0
C101 C 0.11068 0.17752 0.31133 0.0
C102 C 0.07288 0.18311 0.31848 0.0
C103 C 0.04416 0.18848 0.30697 0.0
C104 C 0.05385 0.1882 0.28842 0.0
C105 C 0.94816 0.17465 0.2547 0.0
C106 C 0.00983 0.18696 0.2375 0.0
C107 C 0.00159 0.17549 0.25872 0.0
N108 N 0.03161 0.18163 0.25023 0.0
C109 C 0.95654 0.18631 0.23314 0.0
C110 C 0.92557 0.18011 0.24183 0.0
C111 C 0.15779 0.18566 0.21963 0.0
C112 C 0.32311 0.16978 0.25911 0.0
C113 C 0.30107 0.18084 0.2306 0.0
C114 C 0.33549 0.17387 0.22799 0.0
C115 C 0.34648 0.16831 0.24236 0.0
N116 N 0.27835 0.18224 0.24708 0.0
C117 C 0.28896 0.17681 0.26123 0.0
Co118 Co 0.14269 0.18329 0.99002 0.0
Co119 Co 0.02092 0.19283 0.99629 0.0
O120 O 0.068 0.18453 0.98454 0.0
C121 C 0.09897 0.16583 0.99588 0.0
O122 O 0.05925 0.16959 0.00407 0.0
C123 C 0.0139 0.19694 0.95758 0.0
O124 O 0.06553 0.19687 0.95748 0.0
O125 O 0.07211 0.2025 0.99305 0.0
O126 O 0.15141 0.19612 0.99127 0.0
H127 H 0.97318 0.2168 0.03937 0.0
H128 H 0.0976 0.17438 0.9581 0.0
O129 O 0.13576 0.17038 0.98908 0.0
H130 H 0.23393 0.19399 0.93389 0.0
H131 H 0.32219 0.1699 0.98302 0.0
H132 H 0.21649 0.19173 0.0156 0.0
H133 H 0.2179 0.19309 0.96669 0.0
H134 H 0.22796 0.1718 0.97611 0.0
O135 O 0.98898 0.19558 0.97224 0.0
H136 H 0.03258 0.20624 0.02478 0.0
H137 H 0.90738 0.19714 0.99184 0.0
H138 H 0.31069 0.1901 0.02284 0.0
H139 H 0.11253 0.17504 0.92521 0.0
H140 H 0.36419 0.17912 0.00649 0.0
H141 H 0.181 0.18492 0.9129 0.0
O142 O 0.12816 0.18294 0.01639 0.0
H143 H 0.91441 0.16702 0.9764 0.0
H144 H 0.95826 0.18627 0.02749 0.0
H145 H 0.89627 0.17414 0.03212 0.0
H146 H 0.87394 0.16442 0.00645 0.0
H147 H 0.97656 0.17918 0.97241 0.0
H148 H 0.84669 0.20765 0.00597 0.0
H149 H 0.8795 0.21755 0.02997 0.0
O150 O 0.05224 0.19019 0.02041 0.0
C151 C 0.12215 0.20283 0.99204 0.0
C152 C 0.95838 0.2125 0.02897 0.0
C153 C 0.8874 0.20737 0.01021 0.0
N154 N 0.97333 0.20103 0.0076 0.0
C155 C 0.99178 0.20649 0.0207 0.0
C156 C 0.92195 0.20145 0.00224 0.0
C157 C 0.90583 0.21292 0.02368 0.0
C158 C 0.12783 0.17863 0.95286 0.0
N159 N 0.15701 0.18366 0.9643 0.0
C160 C 0.13596 0.179 0.93422 0.0
C161 C 0.17432 0.18455 0.92732 0.0
C162 C 0.20401 0.18965 0.93908 0.0
C163 C 0.1947 0.18912 0.95764 0.0
C164 C 0.29932 0.17472 0.99021 0.0
C165 C 0.23961 0.18698 0.00835 0.0
C166 C 0.24594 0.17581 0.98638 0.0
N167 N 0.2169 0.18192 0.99534 0.0
C168 C 0.29289 0.18607 0.01254 0.0
C169 C 0.32287 0.1799 0.00338 0.0
C170 C 0.09251 0.18618 0.02647 0.0
C171 C 0.92371 0.17122 0.98768 0.0
C172 C 0.94884 0.18206 0.01627 0.0
C173 C 0.91362 0.17521 0.01896 0.0
C174 C 0.90108 0.16976 0.00455 0.0
N175 N 0.97081 0.18346 -0.00033 0.0
C176 C 0.95869 0.17814 0.98548 0.0
Co177 Co 0.10663 0.05524 0.99153 0.0
Co178 Co 0.23024 0.04619 0.99665 0.0
O179 O 0.18099 0.05428 0.98535 0.0
C180 C 0.14856 0.07284 0.9971 0.0
O181 O 0.18943 0.0692 0.00486 0.0
C182 C 0.23383 0.04196 0.95797 0.0
O183 O 0.18224 0.04188 0.95852 0.0
O184 O 0.18009 0.03632 0.99411 0.0
O185 O 0.0998 0.04238 0.99273 0.0
H186 H 0.28542 0.02251 0.03939 0.0
H187 H 0.14796 0.06438 0.9593 0.0
O188 O 0.11174 0.06817 0.99065 0.0
H189 H 0.01238 0.04434 0.93616 0.0
H190 H 0.92487 0.06798 0.98636 0.0
H191 H 0.03604 0.04646 0.01769 0.0
H192 H 0.03094 0.04521 0.96881 0.0
H193 H 0.01875 0.06645 0.97855 0.0
O194 O 0.26016 0.04348 0.97227 0.0
H195 H 0.22318 0.0328 0.02539 0.0
H196 H 0.34383 0.04229 0.99096 0.0
H197 H 0.94226 0.04773 0.02582 0.0
H198 H 0.13044 0.06375 0.92655 0.0
H199 H 0.88601 0.05855 0.0101 0.0
H200 H 0.06234 0.05365 0.91479 0.0
O201 O 0.12316 0.05558 0.01776 0.0
H202 H 0.33122 0.07233 0.97529 0.0
H203 H 0.29488 0.05307 0.02706 0.0
H204 H 0.35556 0.06545 0.03086 0.0
H205 H 0.3741 0.07518 0.00485 0.0
H206 H 0.27047 0.05992 0.97213 0.0
H207 H 0.4073 0.03205 0.00448 0.0
H208 H 0.37822 0.02209 0.02894 0.0
O209 O 0.20083 0.04876 0.02109 0.0
C210 C 0.13006 0.03579 0.99342 0.0
C211 C 0.29861 0.02684 0.02879 0.0
C212 C 0.367 0.03218 0.00918 0.0
N213 N 0.28 0.03819 0.00749 0.0
C214 C 0.26359 0.0327 0.02085 0.0
C215 C 0.33087 0.03795 0.00155 0.0
C216 C 0.35066 0.0266 0.02291 0.0
C217 C 0.11789 0.06003 0.95429 0.0
N218 N 0.09033 0.05487 0.96595 0.0
C219 C 0.1083 0.05968 0.93573 0.0
C220 C 0.07014 0.054 0.92914 0.0
C221 C 0.04212 0.04877 0.94112 0.0
C222 C 0.05285 0.04928 0.95959 0.0
C223 C 0.94895 0.06323 0.99327 0.0
C224 C 0.01172 0.05115 0.01071 0.0
C225 C 0.00214 0.06234 0.98893 0.0
N226 N 0.0327 0.05632 0.99755 0.0
C227 C 0.95869 0.05185 0.01541 0.0
C228 C 0.92717 0.05793 0.0066 0.0
C229 C 0.16021 0.05254 0.02751 0.0
C230 C 0.32358 0.06812 0.98671 0.0
C231 C 0.30267 0.05728 0.01569 0.0
C232 C 0.33714 0.06427 0.01791 0.0
C233 C 0.34756 0.06972 0.00331 0.0
N234 N 0.27935 0.05575 -0.00064 0.0
C235 C 0.2894 0.06106 0.98498 0.0
Co236 Co 0.85812 0.93266 0.74042 0.0
Co237 Co 0.98145 0.94175 0.74604 0.0
O238 O 0.93264 0.93366 0.7345 0.0
C239 C 0.90008 0.91505 0.74589 0.0
O240 O 0.94072 0.91868 0.75381 0.0
C241 C 0.98596 0.94606 0.70742 0.0
O242 O 0.93436 0.94617 0.70787 0.0
O243 O 0.93122 0.9516 0.74347 0.0
O244 O 0.85109 0.94551 0.7418 0.0
H245 H 0.03515 0.9653 0.7893 0.0
H246 H 0.90051 0.92365 0.7082 0.0
O247 O 0.86341 0.91973 0.73938 0.0
H248 H 0.76544 0.94373 0.68489 0.0
H249 H 0.67665 0.91989 0.73441 0.0
H250 H 0.78669 0.94131 0.76648 0.0
H251 H 0.78295 0.94273 0.71759 0.0
H252 H 0.77076 0.92147 0.72697 0.0
O253 O 0.012 0.94452 0.72178 0.0
H254 H 0.97344 0.95503 0.77495 0.0
H255 H 0.09512 0.94572 0.74075 0.0
H256 H 0.69267 0.94 0.77425 0.0
H257 H 0.88406 0.9244 0.6754 0.0
H258 H 0.63699 0.92922 0.75815 0.0
H259 H 0.81623 0.93453 0.66355 0.0
O260 O 0.87396 0.93222 0.7667 0.0
H261 H 0.08336 0.91569 0.72473 0.0
H262 H 0.04536 0.93481 0.77659 0.0
H263 H 0.10608 0.92244 0.78045 0.0
H264 H 0.12545 0.91279 0.7544 0.0
H265 H 0.02254 0.92809 0.7215 0.0
H266 H 0.15809 0.95594 0.75463 0.0
H267 H 0.12822 0.96579 0.77914 0.0
O268 O 0.95141 0.93908 0.77036 0.0
C269 C 0.8812 0.95211 0.74266 0.0
C270 C 0.04868 0.96102 0.77868 0.0
C271 C 0.11766 0.95577 0.7592 0.0
N272 N 0.0308 0.94973 0.75714 0.0
C273 C 0.01396 0.95517 0.77054 0.0
C274 C 0.08182 0.95001 0.75137 0.0
C275 C 0.10088 0.9613 0.77296 0.0
C276 C 0.87055 0.928 0.70315 0.0
N277 N 0.84255 0.93311 0.71479 0.0
C278 C 0.86157 0.92843 0.68456 0.0
C279 C 0.82356 0.93412 0.67792 0.0
C280 C 0.79507 0.93929 0.68989 0.0
C281 C 0.80521 0.9387 0.70839 0.0
C282 C 0.70048 0.92462 0.74149 0.0
C283 C 0.76262 0.93665 0.75934 0.0
C284 C 0.7538 0.92553 0.73736 0.0
N285 N 0.78404 0.93153 0.74618 0.0
C286 C 0.70945 0.93592 0.76383 0.0
C287 C 0.67825 0.92986 0.75481 0.0
C288 C 0.91074 0.93525 0.7766 0.0
C289 C 0.07535 0.91987 0.73617 0.0
C290 C 0.05351 0.93063 0.76519 0.0
C291 C 0.08801 0.92365 0.76745 0.0
C292 C 0.09889 0.91824 0.75283 0.0
N293 N 0.03063 0.93219 0.74881 0.0
C294 C 0.04113 0.92692 0.7344 0.0
Co295 Co 0.89416 0.80461 0.74014 0.0
Co296 Co 0.77247 0.79506 0.74655 0.0
O297 O 0.81943 0.80335 0.73473 0.0
C298 C 0.8504 0.82208 0.74587 0.0
O299 O 0.81073 0.81833 0.75413 0.0
C300 C 0.76513 0.79094 0.70786 0.0
O301 O 0.81675 0.791 0.70772 0.0
O302 O 0.82365 0.7854 0.74329 0.0
O303 O 0.90293 0.79178 0.74148 0.0
H304 H 0.72517 0.77112 0.78977 0.0
H305 H 0.84884 0.81346 0.70819 0.0
O306 O 0.88718 0.81751 0.7391 0.0
H307 H 0.98507 0.79383 0.68402 0.0
H308 H 0.07356 0.81801 0.7329 0.0
H309 H 0.96814 0.79622 0.76574 0.0
H310 H 0.96924 0.79478 0.71683 0.0
H311 H 0.9793 0.81609 0.72607 0.0
O312 O 0.74032 0.7923 0.72254 0.0
H313 H 0.78442 0.78167 0.77508 0.0
H314 H 0.65891 0.79073 0.74224 0.0
H315 H 0.06238 0.79788 0.7729 0.0
H316 H 0.86356 0.81275 0.67529 0.0
H317 H 0.11574 0.80884 0.75642 0.0
H318 H 0.93197 0.80285 0.66301 0.0
O319 O 0.87978 0.80501 0.76652 0.0
H320 H 0.66572 0.82085 0.7267 0.0
H321 H 0.71008 0.80164 0.77781 0.0
H322 H 0.6481 0.81377 0.78246 0.0
H323 H 0.62551 0.82347 0.75679 0.0
H324 H 0.72787 0.80869 0.72268 0.0
H325 H 0.59837 0.78023 0.75647 0.0
H326 H 0.63141 0.77035 0.78047 0.0
O327 O 0.80401 0.79772 0.77065 0.0
C328 C 0.87369 0.78507 0.74228 0.0
C329 C 0.71027 0.77541 0.77938 0.0
C330 C 0.63912 0.78051 0.76066 0.0
N331 N 0.72501 0.78686 0.75794 0.0
C332 C 0.74358 0.78142 0.77105 0.0
C333 C 0.67359 0.78643 0.75263 0.0
C334 C 0.65768 0.77498 0.77414 0.0
C335 C 0.87905 0.8092 0.70295 0.0
N336 N 0.90831 0.8042 0.71441 0.0
C337 C 0.88705 0.8088 0.68431 0.0
C338 C 0.92539 0.80324 0.67743 0.0
C339 C 0.95517 0.79817 0.68921 0.0
C340 C 0.94598 0.79872 0.70777 0.0
C341 C 0.05076 0.8132 0.74014 0.0
C342 C 0.9912 0.80097 0.75843 0.0
C343 C 0.99736 0.81209 0.73636 0.0
N344 N 0.96839 0.806 0.7454 0.0
C345 C 0.0445 0.80189 0.76258 0.0
C346 C 0.0744 0.80805 0.75334 0.0
C347 C 0.84425 0.80176 0.77665 0.0
C348 C 0.67513 0.81665 0.73798 0.0
C349 C 0.70054 0.80584 0.76658 0.0
C350 C 0.66534 0.81269 0.76929 0.0
C351 C 0.65265 0.81813 0.75487 0.0
N352 N 0.72238 0.80443 0.74996 0.0
C353 C 0.71011 0.80973 0.73576 0.0
Co354 Co 0.85607 0.80502 0.00589 0.0
Co355 Co 0.97937 0.79589 0.00052 0.0
O356 O 0.93051 0.80402 0.01191 0.0
C357 C 0.8984 0.82257 0.00013 0.0
O358 O 0.93897 0.81888 0.99231 0.0
C359 C 0.98337 0.79169 0.03922 0.0
O360 O 0.93178 0.79161 0.0387 0.0
O361 O 0.92897 0.78606 0.00313 0.0
O362 O 0.84887 0.79217 0.00472 0.0
H363 H 0.03327 0.77221 0.95759 0.0
H364 H 0.89826 0.81414 0.03802 0.0
O365 O 0.86158 0.81796 0.00673 0.0
H366 H 0.76268 0.79419 0.06149 0.0
H367 H 0.67477 0.81789 0.01147 0.0
H368 H 0.78475 0.7963 0.9799 0.0
H369 H 0.78055 0.79506 0.0288 0.0
H370 H 0.76877 0.8163 0.01906 0.0
O371 O 0.00958 0.79316 0.02487 0.0
H372 H 0.97153 0.78254 0.97175 0.0
H373 H 0.09291 0.79189 0.00603 0.0
H374 H 0.69083 0.79762 0.97199 0.0
H375 H 0.88145 0.81352 0.07081 0.0
H376 H 0.63517 0.80848 0.98784 0.0
H377 H 0.81336 0.80346 0.08274 0.0
O378 O 0.87215 0.80536 0.97963 0.0
H379 H 0.0813 0.82196 0.02172 0.0
H380 H 0.04378 0.80273 0.97001 0.0
H381 H 0.1047 0.81507 0.96611 0.0
H382 H 0.12384 0.82478 0.9921 0.0
H383 H 0.02029 0.80959 0.02499 0.0
H384 H 0.1559 0.78162 0.99235 0.0
H385 H 0.12621 0.77171 0.9679 0.0
O386 O 0.94968 0.79851 0.97612 0.0
C387 C 0.87895 0.78556 0.00394 0.0
C388 C 0.04673 0.77652 0.96819 0.0
C389 C 0.11554 0.78179 0.98772 0.0
N390 N 0.02874 0.78786 0.98958 0.0
C391 C 0.01199 0.7824 0.97622 0.0
C392 C 0.07968 0.78758 0.99544 0.0
C393 C 0.09885 0.77623 0.974 0.0
C394 C 0.86819 0.80982 0.0431 0.0
N395 N 0.84025 0.80468 0.03151 0.0
C396 C 0.859 0.80946 0.06168 0.0
C397 C 0.82085 0.80381 0.06837 0.0
C398 C 0.79242 0.7986 0.05645 0.0
C399 C 0.80276 0.79911 0.03796 0.0
C400 C 0.69858 0.81312 0.0045 0.0
C401 C 0.76069 0.801 0.98693 0.0
C402 C 0.75183 0.8122 0.00872 0.0
N403 N 0.78207 0.80616 3e-05 0.0
C404 C 0.70758 0.80174 0.98236 0.0
C405 C 0.67639 0.80784 0.99124 0.0
C406 C 0.90905 0.80232 0.9698 0.0
C407 C 0.0734 0.81776 0.01031 0.0
C408 C 0.05183 0.80694 0.98137 0.0
C409 C 0.08644 0.8139 0.97909 0.0
C410 C 0.09719 0.81935 0.99368 0.0
N411 N 0.0287 0.80542 0.99774 0.0
C412 C 0.03907 0.81072 0.0121 0.0
Co413 Co 0.89538 0.93298 0.00618 0.0
Co414 Co 0.77376 0.94258 -3e-05 0.0
O415 O 0.82066 0.93423 0.01161 0.0
C416 C 0.85123 0.91559 -0.00013 0.0
O417 O 0.81159 0.91942 0.99178 0.0
C418 C 0.76696 0.94657 0.03873 0.0
O419 O 0.81857 0.94644 0.03882 0.0
O420 O 0.82515 0.95221 0.00332 0.0
O421 O 0.90437 0.94581 0.00526 0.0
H422 H 0.72656 0.96671 0.95719 0.0
H423 H 0.84987 0.92391 0.03783 0.0
O424 O 0.88815 0.92007 0.00679 0.0
H425 H 0.98643 0.94329 0.06266 0.0
H426 H 0.0745 0.91943 0.01301 0.0
H427 H 0.96958 0.94152 0.98089 0.0
H428 H 0.97059 0.9426 0.02982 0.0
H429 H 0.98027 0.92135 0.01989 0.0
O430 O 0.74194 0.94528 0.02406 0.0
H431 H 0.7857 0.95606 0.97163 0.0
H432 H 0.66034 0.94696 0.00449 0.0
H433 H 0.06379 0.93987 0.97369 0.0
H434 H 0.86461 0.92435 0.07076 0.0
H435 H 0.1169 0.92875 0.98981 0.0
H436 H 0.9332 0.93412 0.08336 0.0
O437 O 0.88106 0.93277 0.97979 0.0
H438 H 0.66667 0.91678 0.01957 0.0
H439 H 0.71086 0.93615 0.9687 0.0
H440 H 0.64855 0.92408 0.96394 0.0
H441 H 0.62604 0.9143 0.9895 0.0
H442 H 0.72913 0.92889 0.0237 0.0
H443 H 0.59991 0.95756 0.99052 0.0
H444 H 0.63293 0.96751 0.96664 0.0
O445 O 0.80498 0.93999 0.9758 0.0
C446 C 0.87516 0.95253 0.00448 0.0
C447 C 0.71166 0.96239 0.96754 0.0
C448 C 0.6406 0.95726 0.98626 0.0
N449 N 0.72635 0.95085 0.98876 0.0
C450 C 0.74491 0.95633 0.97572 0.0
C451 C 0.67501 0.95129 0.99415 0.0
C452 C 0.65914 0.96284 0.97286 0.0
C453 C 0.88015 0.92811 0.04321 0.0
N454 N 0.9095 0.93319 0.03192 0.0
C455 C 0.88817 0.92836 0.06187 0.0
C456 C 0.92661 0.93385 0.06893 0.0
C457 C 0.95646 0.939 0.05732 0.0
C458 C 0.94726 0.93859 0.03875 0.0
C459 C 0.05181 0.92431 0.00592 0.0
C460 C 0.99253 0.93671 0.98804 0.0
C461 C 0.99843 0.92541 0.00974 0.0
N462 N 0.9696 0.93159 0.0009 0.0
C463 C 0.04581 0.93579 0.98387 0.0
C464 C 0.07557 0.92954 0.99291 0.0
C465 C 0.84536 0.93601 0.96973 0.0
C466 C 0.67604 0.92102 0.00834 0.0
C467 C 0.70136 0.93191 0.97988 0.0
C468 C 0.66597 0.9251 0.97711 0.0
C469 C 0.65333 0.91962 0.99146 0.0
N470 N 0.72342 0.93325 0.99648 0.0
C471 C 0.7112 0.92791 0.01062 0.0
Co472 Co 0.14161 0.55465 0.75526 0.0
Co473 Co 0.01795 0.54566 0.74986 0.0
O474 O 0.06722 0.55368 0.76137 0.0
C475 C 0.09994 0.57229 0.75009 0.0
O476 O 0.0591 0.5687 0.74222 0.0
C477 C 0.01429 0.54123 0.78844 0.0
O478 O 0.06587 0.5411 0.78785 0.0
O479 O 0.068 0.53576 0.75215 0.0
O480 O 0.14832 0.5418 0.75368 0.0
H481 H 0.96266 0.52227 0.70646 0.0
H482 H 0.10026 0.56359 0.78774 0.0
O483 O 0.13661 0.56758 0.75649 0.0
H484 H 0.23545 0.54334 0.81035 0.0
H485 H 0.32347 0.56731 0.76089 0.0
H486 H 0.21218 0.54605 0.72886 0.0
H487 H 0.2171 0.54446 0.77772 0.0
H488 H 0.22955 0.56575 0.76861 0.0
O489 O 0.98795 0.54282 0.77417 0.0
H490 H 0.02495 0.53246 0.72076 0.0
H491 H 0.90433 0.54174 0.75543 0.0
H492 H 0.30601 0.54734 0.72081 0.0
H493 H 0.11756 0.56272 0.82048 0.0
H494 H 0.36232 0.55804 0.73687 0.0
H495 H 0.18546 0.55251 0.83197 0.0
O496 O 0.12513 0.55518 0.72904 0.0
H497 H 0.91712 0.5717 0.77184 0.0
H498 H 0.95344 0.55273 0.7196 0.0
H499 H 0.89285 0.56514 0.71609 0.0
H500 H 0.87432 0.57472 0.74235 0.0
H501 H 0.97778 0.55926 0.77471 0.0
H502 H 0.8408 0.5316 0.74161 0.0
H503 H 0.86984 0.52179 0.71689 0.0
O504 O 0.04745 0.54838 0.72548 0.0
C505 C 0.11803 0.53522 0.75281 0.0
C506 C 0.94949 0.52653 0.71717 0.0
C507 C 0.88111 0.53176 0.73692 0.0
N508 N 0.96815 0.53774 0.73879 0.0
C509 C 0.98453 0.53233 0.72528 0.0
C510 C 0.91727 0.53747 0.74472 0.0
C511 C 0.89743 0.52626 0.72305 0.0
C512 C 0.13024 0.5592 0.79263 0.0
N513 N 0.15781 0.55411 0.78083 0.0
C514 C 0.13971 0.55871 0.81118 0.0
C515 C 0.17776 0.55297 0.81763 0.0
C516 C 0.2058 0.54782 0.8055 0.0
C517 C 0.19519 0.54847 0.78704 0.0
C518 C 0.29937 0.56261 0.75382 0.0
C519 C 0.23653 0.55068 0.73599 0.0
C520 C 0.24616 0.56171 0.75811 0.0
N521 N 0.21556 0.55576 0.74929 0.0
C522 C 0.28958 0.5514 0.73134 0.0
C523 C 0.32114 0.55741 0.74035 0.0
C524 C 0.08809 0.55221 0.71919 0.0
C525 C 0.92476 0.56755 0.76032 0.0
C526 C 0.94565 0.55688 0.73108 0.0
C527 C 0.91123 0.56389 0.72902 0.0
C528 C 0.90082 0.56925 0.74376 0.0
N529 N 0.96892 0.55525 0.74737 0.0
C530 C 0.95889 0.56048 0.76188 0.0
Co531 Co 0.11201 0.68272 0.75549 0.0
Co532 Co 0.23467 0.6921 0.75023 0.0
O533 O 0.18639 0.68384 0.76152 0.0
C534 C 0.15517 0.66521 0.74973 0.0
O535 O 0.19572 0.66892 0.74193 0.0
C536 C 0.23853 0.69619 0.78896 0.0
O537 O 0.18693 0.6962 0.78845 0.0
O538 O 0.18369 0.70183 0.75301 0.0
O539 O 0.10401 0.69556 0.75438 0.0
H540 H 0.28687 0.71604 0.70766 0.0
H541 H 0.15472 0.67365 0.78759 0.0
O542 O 0.11822 0.6698 0.75629 0.0
H543 H 0.01782 0.69333 0.81112 0.0
H544 H 0.93144 0.66955 0.76097 0.0
H545 H 0.04027 0.69135 0.7295 0.0
H546 H 0.03583 0.69253 0.77843 0.0
H547 H 0.02531 0.6713 0.76861 0.0
O548 O 0.2648 0.69479 0.7746 0.0
H549 H 0.22586 0.70554 0.72167 0.0
H550 H 0.34798 0.69628 0.75574 0.0
H551 H 0.94647 0.68987 0.72154 0.0
H552 H 0.13779 0.6742 0.82038 0.0
H553 H 0.8914 0.67891 0.73733 0.0
H554 H 0.06903 0.68412 0.83234 0.0
O555 O 0.12819 0.68244 0.72924 0.0
H556 H 0.33848 0.66615 0.77098 0.0
H557 H 0.29935 0.68548 0.71957 0.0
H558 H 0.36112 0.67328 0.71546 0.0
H559 H 0.38108 0.66352 0.74129 0.0
H560 H 0.27662 0.67838 0.77446 0.0
H561 H 0.41024 0.70672 0.74221 0.0
H562 H 0.3798 0.71667 0.71794 0.0
O563 O 0.20502 0.68952 0.72581 0.0
C564 C 0.13363 0.70223 0.75375 0.0
C565 C 0.30065 0.71171 0.71818 0.0
C566 C 0.36987 0.70649 0.73759 0.0
N567 N 0.28348 0.70025 0.73938 0.0
C568 C 0.26633 0.70574 0.72612 0.0
C569 C 0.33443 0.70061 0.74523 0.0
C570 C 0.35277 0.71207 0.72397 0.0
C571 C 0.12437 0.67791 0.79268 0.0
N572 N 0.09613 0.68302 0.78111 0.0
C573 C 0.11511 0.67822 0.81126 0.0
C574 C 0.07658 0.6838 0.81797 0.0
C575 C 0.04785 0.68897 0.80607 0.0
C576 C 0.05828 0.6885 0.78757 0.0
C577 C 0.955 0.67437 0.75402 0.0
C578 C 0.01646 0.6866 0.73651 0.0
C579 C 0.00818 0.67537 0.75826 0.0
N580 N 0.03809 0.68147 0.74961 0.0
C581 C 0.96342 0.68578 0.73191 0.0
C582 C 0.93256 0.67962 0.74076 0.0
C583 C 0.16475 0.68561 0.71944 0.0
C584 C 0.33022 0.67037 0.75964 0.0
C585 C 0.30774 0.68125 0.73087 0.0
C586 C 0.34284 0.67436 0.72847 0.0
C587 C 0.35405 0.66889 0.74297 0.0
N588 N 0.28459 0.68267 0.74727 0.0
C589 C 0.29541 0.67733 0.76155 0.0
Co590 Co 0.15181 0.68266 0.48987 0.0
Co591 Co 0.02828 0.69167 0.49557 0.0
O592 O 0.07703 0.68351 0.48423 0.0
C593 C 0.11031 0.66516 0.49682 0.0
O594 O 0.06999 0.66893 0.50464 0.0
C595 C 0.02266 0.69559 0.45677 0.0
O596 O 0.07427 0.69565 0.45701 0.0
O597 O 0.07818 0.70153 0.49243 0.0
O598 O 0.15852 0.69553 0.49031 0.0
H599 H 0.97511 0.71563 0.53793 0.0
H600 H 0.10845 0.67308 0.45851 0.0
O601 O 0.14674 0.66971 0.48979 0.0
H602 H 0.24201 0.69287 0.43315 0.0
H603 H 0.33329 0.6699 0.48391 0.0
H604 H 0.22413 0.6918 0.51492 0.0
H605 H 0.2257 0.69242 0.46598 0.0
H606 H 0.23885 0.6713 0.47683 0.0
O607 O 0.99706 0.6942 0.47128 0.0
H608 H 0.03669 0.70525 0.52386 0.0
H609 H 0.91438 0.69551 0.49044 0.0
H610 H 0.3185 0.69067 0.52231 0.0
H611 H 0.12371 0.67328 0.42561 0.0
H612 H 0.37374 0.67966 0.50675 0.0
H613 H 0.19078 0.68325 0.41273 0.0
O614 O 0.13712 0.68264 0.51624 0.0
H615 H 0.92665 0.66533 0.47565 0.0
H616 H 0.96525 0.68499 0.52657 0.0
H617 H 0.90498 0.67262 0.53112 0.0
H618 H 0.88531 0.66269 0.50554 0.0
H619 H 0.98701 0.67775 0.47172 0.0
H620 H 0.85154 0.70583 0.50404 0.0
H621 H 0.88179 0.71596 0.52802 0.0
O622 O 0.05896 0.68927 0.5199 0.0
C623 C 0.12809 0.7021 0.49115 0.0
C624 C 0.96141 0.71123 0.52754 0.0
C625 C 0.89207 0.70574 0.5085 0.0
N626 N 0.97901 0.69973 0.50647 0.0
C627 C 0.99605 0.70532 0.51957 0.0
C628 C 0.92784 0.69992 0.50083 0.0
C629 C 0.90907 0.71142 0.52196 0.0
C630 C 0.13807 0.67737 0.45302 0.0
N631 N 0.16633 0.6827 0.46416 0.0
C632 C 0.14639 0.67748 0.43438 0.0
C633 C 0.18397 0.68309 0.42716 0.0
C634 C 0.21271 0.68849 0.43861 0.0
C635 C 0.20325 0.68822 0.45718 0.0
C636 C 0.30966 0.67474 0.49075 0.0
C637 C 0.24801 0.68703 0.50801 0.0
C638 C 0.25616 0.67555 0.48682 0.0
N639 N 0.22615 0.68167 0.49534 0.0
C640 C 0.30137 0.6864 0.51229 0.0
C641 C 0.33233 0.68022 0.50357 0.0
C642 C 0.10033 0.68565 0.52615 0.0
C643 C 0.93478 0.66963 0.48688 0.0
C644 C 0.95695 0.68069 0.51538 0.0
C645 C 0.92272 0.67371 0.51803 0.0
C646 C 0.91167 0.66814 0.50367 0.0
N647 N 0.97941 0.68212 0.49887 0.0
C648 C 0.96874 0.67669 0.48472 0.0
Co649 Co 0.10852 0.55483 0.48958 0.0
Co650 Co 0.22966 0.54511 0.49618 0.0
O651 O 0.18338 0.55353 0.48447 0.0
C652 C 0.15324 0.5721 0.49664 0.0
O653 O 0.19235 0.56814 0.50476 0.0
C654 C 0.23709 0.54119 0.45741 0.0
O655 O 0.18548 0.54137 0.45724 0.0
O656 O 0.17794 0.53555 0.49266 0.0
O657 O 0.09902 0.542 0.49013 0.0
H658 H 0.27495 0.52088 0.53895 0.0
H659 H 0.15568 0.56406 0.45842 0.0
O660 O 0.11634 0.56773 0.48939 0.0
H661 H 0.01953 0.54498 0.43237 0.0
H662 H 0.93027 0.56862 0.48224 0.0
H663 H 0.03288 0.5462 0.51424 0.0
H664 H 0.034 0.54543 0.4653 0.0
H665 H 0.02473 0.56665 0.4758 0.0
O666 O 0.26192 0.54241 0.47214 0.0
H667 H 0.21655 0.53161 0.52441 0.0
H668 H 0.34299 0.54061 0.49193 0.0
H669 H 0.93841 0.5479 0.52099 0.0
H670 H 0.14233 0.56385 0.42542 0.0
H671 H 0.88647 0.55918 0.50492 0.0
H672 H 0.07396 0.55423 0.41219 0.0
O673 O 0.12171 0.55484 0.51604 0.0
H674 H 0.33812 0.57084 0.47707 0.0
H675 H 0.29204 0.55142 0.52766 0.0
H676 H 0.35463 0.56343 0.53269 0.0
H677 H 0.37808 0.57324 0.50727 0.0
H678 H 0.27537 0.55879 0.47267 0.0
H679 H 0.40269 0.52993 0.506 0.0
H680 H 0.36876 0.51999 0.52975 0.0
O681 O 0.19794 0.5477 0.52027 0.0
C682 C 0.128 0.53526 0.49114 0.0
C683 C 0.29025 0.52519 0.52866 0.0
C684 C 0.36192 0.53027 0.51015 0.0
N685 N 0.27648 0.53677 0.50746 0.0
C686 C 0.25741 0.5313 0.52043 0.0
C687 C 0.32792 0.53629 0.50221 0.0
C688 C 0.34286 0.52469 0.52348 0.0
C689 C 0.12549 0.55993 0.45277 0.0
N690 N 0.09548 0.5548 0.46377 0.0
C691 C 0.11826 0.5598 0.43408 0.0
C692 C 0.07995 0.5544 0.42666 0.0
C693 C 0.04942 0.5492 0.43797 0.0
C694 C 0.05784 0.54948 0.45661 0.0
C695 C 0.95245 0.56367 0.48929 0.0
C696 C 0.01044 0.55108 0.50711 0.0
C697 C 0.00596 0.56253 0.48573 0.0
N698 N 0.03414 0.55626 0.49453 0.0
C699 C 0.95701 0.55203 0.51103 0.0
C700 C 0.9279 0.55837 0.50202 0.0
C701 C 0.15716 0.55161 0.52622 0.0
C702 C 0.32834 0.56659 0.48824 0.0
C703 C 0.30197 0.55567 0.51654 0.0
C704 C 0.33752 0.56245 0.51946 0.0
C705 C 0.35068 0.56794 0.50519 0.0
N706 N 0.28028 0.55438 0.49986 0.0
C707 C 0.29301 0.55974 0.48581 0.0
Co708 Co 0.85215 0.43275 0.24122 0.0
Co709 Co 0.97452 0.44215 0.24703 0.0
O710 O 0.92677 0.43389 0.2355 0.0
C711 C 0.89556 0.41529 0.24723 0.0
O712 O 0.93552 0.41906 0.25526 0.0
C713 C 0.98079 0.44618 0.20827 0.0
O714 O 0.92916 0.44613 0.20825 0.0
O715 O 0.92365 0.45187 0.24385 0.0
O716 O 0.84397 0.44559 0.24228 0.0
H717 H 0.02435 0.46617 0.28973 0.0
H718 H 0.89607 0.42367 0.20932 0.0
O719 O 0.85864 0.41983 0.24047 0.0
H720 H 0.75983 0.44331 0.18519 0.0
H721 H 0.67204 0.41949 0.23499 0.0
H722 H 0.77928 0.44136 0.26685 0.0
H723 H 0.77676 0.44254 0.21795 0.0
H724 H 0.76616 0.42127 0.22777 0.0
O725 O 0.00593 0.44483 0.22288 0.0
H726 H 0.96414 0.45565 0.27542 0.0
H727 H 0.08813 0.44632 0.24222 0.0
H728 H 0.68521 0.43985 0.27439 0.0
H729 H 0.88023 0.4242 0.17646 0.0
H730 H 0.63094 0.42885 0.2584 0.0
H731 H 0.8118 0.4341 0.1642 0.0
O732 O 0.8673 0.43247 0.26756 0.0
H733 H 0.07933 0.41618 0.22703 0.0
H734 H 0.03776 0.43558 0.27809 0.0
H735 H 0.09931 0.42338 0.28263 0.0
H736 H 0.12049 0.41359 0.25697 0.0
H737 H 0.01764 0.42841 0.22313 0.0
H738 H 0.14962 0.4568 0.25607 0.0
H739 H 0.11783 0.46679 0.28006 0.0
O740 O 0.94377 0.4396 0.27127 0.0
C741 C 0.87361 0.45227 0.24293 0.0
C742 C 0.03871 0.46183 0.27933 0.0
C743 C 0.109 0.45658 0.26043 0.0
N744 N 0.02274 0.45033 0.25812 0.0
C745 C 0.00485 0.45584 0.27122 0.0
C746 C 0.074 0.45067 0.25261 0.0
C747 C 0.09115 0.46218 0.27389 0.0
C748 C 0.86587 0.42793 0.20409 0.0
N749 N 0.83721 0.43303 0.21554 0.0
C750 C 0.85722 0.42822 0.18548 0.0
C751 C 0.81887 0.43379 0.1786 0.0
C752 C 0.78973 0.43897 0.19037 0.0
C753 C 0.79954 0.43851 0.20891 0.0
C754 C 0.69525 0.42432 0.24202 0.0
C755 C 0.75582 0.4366 0.25976 0.0
C756 C 0.74857 0.42535 0.23801 0.0
N757 N 0.77803 0.43147 0.24678 0.0
C758 C 0.70262 0.43576 0.26412 0.0
C759 C 0.67221 0.42957 0.25516 0.0
C760 C 0.90343 0.43567 0.27749 0.0
C761 C 0.07053 0.42042 0.2383 0.0
C762 C 0.04669 0.43134 0.26687 0.0
C763 C 0.08166 0.42445 0.26951 0.0
C764 C 0.09355 0.41896 0.25511 0.0
N765 N 0.02432 0.43273 0.25034 0.0
C766 C 0.03582 0.42738 0.23615 0.0
Co767 Co 0.89547 0.30477 0.24007 0.0
Co768 Co 0.77311 0.29537 0.24598 0.0
O769 O 0.82079 0.30365 0.23446 0.0
C770 C 0.85216 0.32221 0.24642 0.0
O771 O 0.81225 0.3184 0.2544 0.0
C772 C 0.76688 0.29137 0.20721 0.0
O773 O 0.8185 0.29143 0.20723 0.0
O774 O 0.824 0.28566 0.2428 0.0
O775 O 0.90364 0.29192 0.24094 0.0
H776 H 0.72341 0.27134 0.28866 0.0
H777 H 0.85108 0.31396 0.20838 0.0
O778 O 0.889 0.31769 0.23953 0.0
H779 H 0.98691 0.2944 0.18372 0.0
H780 H 0.07554 0.31803 0.23371 0.0
H781 H 0.96872 0.29606 0.26545 0.0
H782 H 0.97051 0.29506 0.21652 0.0
H783 H 0.98129 0.31629 0.22664 0.0
O784 O 0.74166 0.29271 0.22182 0.0
H785 H 0.78356 0.28188 0.27436 0.0
H786 H 0.65952 0.29119 0.24117 0.0
H787 H 0.06292 0.29753 0.27283 0.0
H788 H 0.8664 0.31355 0.17549 0.0
H789 H 0.11698 0.30859 0.2569 0.0
H790 H 0.93462 0.30369 0.16296 0.0
O791 O 0.88072 0.30495 0.26644 0.0
H792 H 0.66822 0.32135 0.22606 0.0
H793 H 0.70993 0.30192 0.27707 0.0
H794 H 0.64838 0.31411 0.28165 0.0
H795 H 0.62713 0.32393 0.25602 0.0
H796 H 0.7299 0.30913 0.22211 0.0
H797 H 0.59809 0.2807 0.255 0.0
H798 H 0.62993 0.27071 0.27899 0.0
O799 O 0.80394 0.29791 0.27022 0.0
C800 C 0.874 0.28526 0.24171 0.0
C801 C 0.70902 0.27568 0.27827 0.0
C802 C 0.6387 0.28093 0.25936 0.0
N803 N 0.72493 0.28719 0.25707 0.0
C804 C 0.74285 0.28168 0.27017 0.0
C805 C 0.67367 0.28684 0.25156 0.0
C806 C 0.65659 0.27532 0.27282 0.0
C807 C 0.8812 0.30972 0.20304 0.0
N808 N 0.91004 0.30458 0.21436 0.0
C809 C 0.88955 0.30949 0.1844 0.0
C810 C 0.92778 0.30394 0.17738 0.0
C811 C 0.95711 0.29873 0.18902 0.0
C812 C 0.94759 0.29912 0.20758 0.0
C813 C 0.05242 0.31318 0.24071 0.0
C814 C 0.99208 0.30084 0.25838 0.0
C815 C 0.99903 0.31217 0.23679 0.0
N816 N 0.96968 0.30603 0.24552 0.0
C817 C 0.04536 0.30167 0.26265 0.0
C818 C 0.07565 0.30788 0.25372 0.0
C819 C 0.84455 0.30178 0.2764 0.0
C820 C 0.67704 0.31711 0.23732 0.0
C821 C 0.70096 0.30617 0.26586 0.0
C822 C 0.666 0.31306 0.26852 0.0
C823 C 0.65406 0.31856 0.25414 0.0
N824 N 0.72329 0.30479 0.24931 0.0
C825 C 0.71175 0.31015 0.23514 0.0
Co826 Co 0.85894 0.30512 0.50597 0.0
Co827 Co 0.98069 0.29552 0.50002 0.0
O828 O 0.93366 0.30392 0.51145 0.0
C829 C 0.90304 0.32247 0.49908 0.0
O830 O 0.94271 0.31858 0.49114 0.0
C831 C 0.98736 0.29172 0.53888 0.0
O832 O 0.93574 0.29186 0.53897 0.0
O833 O 0.9293 0.2859 0.50352 0.0
O834 O 0.85003 0.29228 0.50544 0.0
H835 H 0.02827 0.27119 0.4578 0.0
H836 H 0.9044 0.31444 0.53731 0.0
O837 O 0.86613 0.31804 0.50615 0.0
H838 H 0.76792 0.29523 0.56277 0.0
H839 H 0.67978 0.31871 0.51237 0.0
H840 H 0.78474 0.29638 0.48097 0.0
H841 H 0.78382 0.29566 0.52992 0.0
H842 H 0.77403 0.31685 0.51929 0.0
O843 O 0.01238 0.29293 0.52419 0.0
H844 H 0.96899 0.2819 0.47197 0.0
H845 H 0.09411 0.29118 0.50472 0.0
H846 H 0.6905 0.29796 0.47374 0.0
H847 H 0.8896 0.31425 0.57024 0.0
H848 H 0.63737 0.30919 0.48949 0.0
H849 H 0.82106 0.30457 0.58317 0.0
O850 O 0.87322 0.30514 0.47957 0.0
H851 H 0.0874 0.32144 0.51915 0.0
H852 H 0.04374 0.3018 0.46867 0.0
H853 H 0.10595 0.31388 0.4637 0.0
H854 H 0.12818 0.32379 0.48906 0.0
H855 H 0.02506 0.30933 0.5235 0.0
H856 H 0.15468 0.28052 0.49101 0.0
H857 H 0.12186 0.27045 0.46732 0.0
O858 O 0.94962 0.29799 0.47579 0.0
C859 C 0.8793 0.28557 0.50474 0.0
C860 C 0.04309 0.27556 0.46806 0.0
C861 C 0.11402 0.28079 0.48672 0.0
N862 N 0.0282 0.2872 0.48903 0.0
C863 C 0.00975 0.28165 0.47609 0.0
C864 C 0.07953 0.2868 0.49446 0.0
C865 C 0.09558 0.27515 0.47343 0.0
C866 C 0.87414 0.31028 0.54283 0.0
N867 N 0.84484 0.3051 0.53171 0.0
C868 C 0.86609 0.31017 0.56149 0.0
C869 C 0.82768 0.30473 0.56874 0.0
C870 C 0.79788 0.29948 0.5573 0.0
C871 C 0.80711 0.29974 0.53871 0.0
C872 C 0.70248 0.31378 0.50544 0.0
C873 C 0.76178 0.30124 0.48796 0.0
C874 C 0.75587 0.3127 0.50928 0.0
N875 N 0.78471 0.30646 0.50064 0.0
C876 C 0.70848 0.30213 0.48378 0.0
C877 C 0.67871 0.30844 0.49261 0.0
C878 C 0.90909 0.30187 0.4696 0.0
C879 C 0.07815 0.31715 0.50801 0.0
C880 C 0.05314 0.3061 0.47977 0.0
C881 C 0.08847 0.31291 0.47688 0.0
C882 C 0.10095 0.31847 0.49112 0.0
N883 N 0.03099 0.30484 0.49639 0.0
C884 C 0.04306 0.31026 0.51041 0.0
Co885 Co 0.8941 0.43301 0.50699 0.0
Co886 Co 0.77035 0.44194 0.50127 0.0
O887 O 0.81938 0.43385 0.5127 0.0
C888 C 0.85312 0.41544 0.50044 0.0
O889 O 0.81254 0.41913 0.49262 0.0
C890 C 0.7651 0.44601 0.53999 0.0
O891 O 0.8167 0.44615 0.53965 0.0
O892 O 0.82008 0.45185 0.50417 0.0
O893 O 0.90049 0.44588 0.50625 0.0
H894 H 0.71621 0.46566 0.45849 0.0
H895 H 0.85127 0.42358 0.53861 0.0
O896 O 0.8894 0.42006 0.50737 0.0
H897 H 0.98462 0.44358 0.56335 0.0
H898 H 0.07601 0.42042 0.51302 0.0
H899 H 0.96587 0.44206 0.48162 0.0
H900 H 0.96807 0.44293 0.53056 0.0
H901 H 0.9816 0.42178 0.52019 0.0
O902 O 0.73935 0.44454 0.52555 0.0
H903 H 0.77817 0.45539 0.4727 0.0
H904 H 0.65643 0.44573 0.50647 0.0
H905 H 0.06019 0.44097 0.47415 0.0
H906 H 0.86677 0.42398 0.5715 0.0
H907 H 0.11593 0.43009 0.4899 0.0
H908 H 0.93374 0.43406 0.58406 0.0
O909 O 0.87906 0.43284 0.48064 0.0
H910 H 0.66949 0.41562 0.52178 0.0
H911 H 0.70717 0.43509 0.47046 0.0
H912 H 0.64716 0.42266 0.46619 0.0
H913 H 0.62795 0.41283 0.49197 0.0
H914 H 0.7296 0.42809 0.52542 0.0
H915 H 0.5932 0.45595 0.49272 0.0
H916 H 0.62297 0.46598 0.4685 0.0
O917 O 0.80083 0.43945 0.47696 0.0
C918 C 0.87001 0.45243 0.50534 0.0
C919 C 0.70272 0.4613 0.46899 0.0
C920 C 0.6337 0.45586 0.48822 0.0
N921 N 0.7208 0.44992 0.49028 0.0
C922 C 0.73758 0.45546 0.47704 0.0
C923 C 0.66969 0.4501 0.49597 0.0
C924 C 0.65042 0.46149 0.47462 0.0
C925 C 0.88085 0.42791 0.54397 0.0
N926 N 0.90891 0.43319 0.53268 0.0
C927 C 0.8893 0.42814 0.56261 0.0
C928 C 0.92683 0.43381 0.56965 0.0
C929 C 0.95537 0.43916 0.55804 0.0
C930 C 0.94577 0.43877 0.53948 0.0
C931 C 0.05216 0.4252 0.50609 0.0
C932 C 0.98996 0.43735 0.48861 0.0
C933 C 0.99868 0.42599 0.51007 0.0
N934 N 0.9684 0.43204 0.50143 0.0
C935 C 0.0433 0.43674 0.48429 0.0
C936 C 0.07454 0.43063 0.49312 0.0
C937 C 0.84209 0.43579 0.47073 0.0
C938 C 0.67743 0.41988 0.51046 0.0
C939 C 0.69908 0.43084 0.48174 0.0
C940 C 0.66499 0.42382 0.47925 0.0
C941 C 0.6542 0.41831 0.49372 0.0
N942 N 0.72166 0.43234 0.4982 0.0
C943 C 0.71125 0.42697 0.51246 0.0
Co944 Co 0.64358 0.0546 0.75764 0.0
Co945 Co 0.52209 0.045 0.75108 0.0
O946 O 0.56875 0.05334 0.76288 0.0
C947 C 0.59965 0.07201 0.75129 0.0
O948 O 0.56015 0.06819 0.74309 0.0
C949 C 0.51461 0.04092 0.78978 0.0
O950 O 0.56622 0.04105 0.78997 0.0
O951 O 0.57346 0.03537 0.75446 0.0
O952 O 0.6526 0.04177 0.75667 0.0
H953 H 0.47573 0.02096 0.70797 0.0
H954 H 0.59735 0.06362 0.78922 0.0
O955 O 0.63635 0.06751 0.7583 0.0
H956 H 0.73331 0.04421 0.81431 0.0
H957 H 0.82256 0.06813 0.76504 0.0
H958 H 0.71833 0.04609 0.73249 0.0
H959 H 0.71826 0.04495 0.78143 0.0
H960 H 0.72817 0.06621 0.77164 0.0
O961 O 0.48983 0.04224 0.77508 0.0
H962 H 0.53459 0.03158 0.72265 0.0
H963 H 0.4086 0.04059 0.75532 0.0
H964 H 0.81272 0.04775 0.72557 0.0
H965 H 0.61129 0.06313 0.82218 0.0
H966 H 0.86548 0.05884 0.74191 0.0
H967 H 0.67957 0.05334 0.83492 0.0
O968 O 0.62983 0.05483 0.73121 0.0
H969 H 0.4146 0.07075 0.77065 0.0
H970 H 0.45978 0.05148 0.71973 0.0
H971 H 0.39756 0.06356 0.71493 0.0
H972 H 0.37456 0.07329 0.74051 0.0
H973 H 0.47699 0.05863 0.77482 0.0
H974 H 0.34844 0.03003 0.74109 0.0
H975 H 0.38191 0.02014 0.71718 0.0
O976 O 0.55375 0.04764 0.72702 0.0
C977 C 0.62345 0.03505 0.75575 0.0
C978 C 0.46063 0.02526 0.71832 0.0
C979 C 0.38921 0.03034 0.73694 0.0
N980 N 0.47492 0.03674 0.7397 0.0
C981 C 0.49373 0.0313 0.72664 0.0
C982 C 0.42347 0.03629 0.74496 0.0
C983 C 0.40801 0.02479 0.72352 0.0
C984 C 0.6275 0.05942 0.79466 0.0
N985 N 0.65713 0.05436 0.78342 0.0
C986 C 0.63507 0.05914 0.81333 0.0
C987 C 0.67333 0.05364 0.82047 0.0
C988 C 0.70347 0.04851 0.80892 0.0
C989 C 0.69472 0.04894 0.79032 0.0
C990 C 0.80002 0.06327 0.75786 0.0
C991 C 0.74113 0.05089 0.73973 0.0
C992 C 0.74655 0.06216 0.76151 0.0
N993 N 0.71791 0.05599 0.75256 0.0
C994 C 0.79451 0.05182 0.73572 0.0
C995 C 0.82408 0.05805 0.74488 0.0
C996 C 0.59428 0.05161 0.72105 0.0
C997 C 0.42419 0.06654 0.75941 0.0
C998 C 0.45006 0.0557 0.73092 0.0
C999 C 0.41472 0.06252 0.72813 0.0
C1000 C 0.4018 0.06797 0.74249 0.0
N1001 N 0.4718 0.05433 0.74756 0.0
C1002 C 0.45931 0.05964 0.76171 0.0
Co1003 Co 0.60449 0.18256 0.75614 0.0
Co1004 Co 0.72786 0.19168 0.75081 0.0
O1005 O 0.679 0.18353 0.76211 0.0
C1006 C 0.64673 0.16503 0.75001 0.0
O1007 O 0.68731 0.16874 0.74225 0.0
C1008 C 0.73212 0.19581 0.78953 0.0
O1009 O 0.68051 0.19584 0.7891 0.0
O1010 O 0.67753 0.2015 0.75356 0.0
O1011 O 0.59735 0.19542 0.75525 0.0
H1012 H 0.78157 0.21551 0.7082 0.0
H1013 H 0.6469 0.17327 0.78802 0.0
O1014 O 0.60994 0.16962 0.75669 0.0
H1015 H 0.51155 0.1931 0.81206 0.0
H1016 H 0.42318 0.16967 0.76163 0.0
H1017 H 0.53296 0.19143 0.73043 0.0
H1018 H 0.52923 0.19241 0.77934 0.0
H1019 H 0.51726 0.17122 0.76914 0.0
O1020 O 0.75819 0.19435 0.77515 0.0
H1021 H 0.7199 0.20513 0.72223 0.0
H1022 H 0.84146 0.19565 0.75629 0.0
H1023 H 0.43895 0.19016 0.72261 0.0
H1024 H 0.63027 0.1737 0.82084 0.0
H1025 H 0.3834 0.17922 0.73826 0.0
H1026 H 0.5623 0.1837 0.83306 0.0
O1027 O 0.62031 0.18235 0.72985 0.0
H1028 H 0.8298 0.16554 0.77165 0.0
H1029 H 0.79212 0.18492 0.72018 0.0
H1030 H 0.853 0.17259 0.71611 0.0
H1031 H 0.87221 0.16281 0.74197 0.0
H1032 H 0.76884 0.17791 0.77509 0.0
H1033 H 0.90438 0.20598 0.74273 0.0
H1034 H 0.87456 0.21597 0.71845 0.0
O1035 O 0.69807 0.18914 0.72641 0.0
C1036 C 0.62753 0.20202 0.7545 0.0
C1037 C 0.79508 0.21116 0.71872 0.0
C1038 C 0.864 0.20582 0.73812 0.0
N1039 N 0.77721 0.19974 0.73994 0.0
C1040 C 0.76039 0.20525 0.72667 0.0
C1041 C 0.82818 0.2 0.74577 0.0
C1042 C 0.84724 0.21143 0.72449 0.0
C1043 C 0.61689 0.17757 0.79323 0.0
N1044 N 0.58889 0.18277 0.78178 0.0
C1045 C 0.6078 0.17781 0.81182 0.0
C1046 C 0.56971 0.18343 0.81867 0.0
C1047 C 0.54124 0.18871 0.8069 0.0
C1048 C 0.55148 0.1883 0.78839 0.0
C1049 C 0.44695 0.17448 0.75474 0.0
C1050 C 0.50894 0.18669 0.73738 0.0
C1051 C 0.50025 0.17537 0.75891 0.0
N1052 N 0.53042 0.18146 0.75033 0.0
C1053 C 0.45579 0.18598 0.73286 0.0
C1054 C 0.42465 0.17984 0.74163 0.0
C1055 C 0.65726 0.1854 0.72005 0.0
C1056 C 0.82187 0.16978 0.76029 0.0
C1057 C 0.80021 0.18069 0.73149 0.0
C1058 C 0.83479 0.17372 0.72911 0.0
C1059 C 0.84558 0.16824 0.74363 0.0
N1060 N 0.77716 0.18216 0.74788 0.0
C1061 C 0.78757 0.17681 0.76218 0.0
Co1062 Co 0.64511 0.18316 0.49042 0.0
Co1063 Co 0.52193 0.19225 0.49637 0.0
O1064 O 0.5703 0.18408 0.48486 0.0
C1065 C 0.60351 0.16562 0.4969 0.0
O1066 O 0.56335 0.16934 0.50492 0.0
C1067 C 0.51509 0.19615 0.45756 0.0
O1068 O 0.56671 0.19623 0.45757 0.0
O1069 O 0.57186 0.2021 0.49306 0.0
O1070 O 0.65204 0.19602 0.49121 0.0
H1071 H 0.47018 0.21622 0.53891 0.0
H1072 H 0.6014 0.17381 0.45881 0.0
O1073 O 0.63987 0.17022 0.48995 0.0
H1074 H 0.73519 0.19371 0.43395 0.0
H1075 H 0.82639 0.17037 0.48398 0.0
H1076 H 0.71765 0.19209 0.51569 0.0
H1077 H 0.71907 0.19303 0.46677 0.0
H1078 H 0.73194 0.17185 0.47698 0.0
O1079 O 0.49006 0.19478 0.4722 0.0
H1080 H 0.53126 0.20582 0.52463 0.0
H1081 H 0.40792 0.19612 0.49162 0.0
H1082 H 0.81203 0.19088 0.52301 0.0
H1083 H 0.61647 0.17424 0.4259 0.0
H1084 H 0.86707 0.17996 0.50709 0.0
H1085 H 0.68366 0.18426 0.41328 0.0
O1086 O 0.63052 0.18296 0.51679 0.0
H1087 H 0.41947 0.16595 0.47676 0.0
H1088 H 0.45965 0.18559 0.52757 0.0
H1089 H 0.39939 0.17323 0.53231 0.0
H1090 H 0.37892 0.16331 0.50678 0.0
H1091 H 0.47987 0.17834 0.47265 0.0
H1092 H 0.34556 0.20645 0.50543 0.0
H1093 H 0.37657 0.21657 0.52932 0.0
O1094 O 0.5532 0.18983 0.5206 0.0
C1095 C 0.62182 0.20262 0.49194 0.0
C1096 C 0.45614 0.21182 0.52857 0.0
C1097 C 0.38622 0.20635 0.50976 0.0
N1098 N 0.47305 0.20032 0.50743 0.0
C1099 C 0.49051 0.2059 0.52047 0.0
C1100 C 0.42172 0.20052 0.50196 0.0
C1101 C 0.40365 0.21202 0.52316 0.0
C1102 C 0.63108 0.17813 0.45342 0.0
N1103 N 0.65949 0.18336 0.4647 0.0
C1104 C 0.63928 0.17836 0.43478 0.0
C1105 C 0.67693 0.184 0.4277 0.0
C1106 C 0.70584 0.18931 0.43929 0.0
C1107 C 0.69648 0.18891 0.45786 0.0
C1108 C 0.80285 0.17517 0.49098 0.0
C1109 C 0.74143 0.18736 0.50863 0.0
C1110 C 0.74935 0.17603 0.4871 0.0
N1111 N 0.71945 0.1821 0.49582 0.0
C1112 C 0.79481 0.18669 0.51287 0.0
C1113 C 0.82565 0.18055 0.50395 0.0
C1114 C 0.59417 0.18606 0.52677 0.0
C1115 C 0.42796 0.17024 0.48797 0.0
C1116 C 0.45102 0.18129 0.5164 0.0
C1117 C 0.41678 0.17432 0.51916 0.0
C1118 C 0.40528 0.16876 0.50483 0.0
N1119 N 0.47306 0.18271 0.49982 0.0
C1120 C 0.46194 0.17729 0.4857 0.0
Co1121 Co 0.60848 0.05515 0.49174 0.0
Co1122 Co 0.73085 0.04573 0.49742 0.0
O1123 O 0.68303 0.05401 0.48597 0.0
C1124 C 0.65196 0.07261 0.49782 0.0
O1125 O 0.69204 0.06882 0.50575 0.0
C1126 C 0.73643 0.04173 0.45863 0.0
O1127 O 0.6848 0.04177 0.45877 0.0
O1128 O 0.67988 0.03602 0.49434 0.0
O1129 O 0.60025 0.0423 0.49275 0.0
H1130 H 0.78119 0.02172 0.54006 0.0
H1131 H 0.65224 0.06427 0.45986 0.0
O1132 O 0.61499 0.06807 0.49107 0.0
H1133 H 0.51578 0.04467 0.43572 0.0
H1134 H 0.42836 0.06842 0.48571 0.0
H1135 H 0.53575 0.04651 0.51739 0.0
H1136 H 0.53288 0.0454 0.46848 0.0
H1137 H 0.52242 0.06664 0.47841 0.0
O1138 O 0.76189 0.04307 0.47319 0.0
H1139 H 0.72083 0.03225 0.52585 0.0
H1140 H 0.84434 0.04154 0.49239 0.0
H1141 H 0.44172 0.04801 0.52501 0.0
H1142 H 0.63622 0.06378 0.42701 0.0
H1143 H 0.38738 0.05904 0.50911 0.0
H1144 H 0.56768 0.0539 0.41475 0.0
O1145 O 0.62381 0.05539 0.51806 0.0
H1146 H 0.83554 0.0717 0.47727 0.0
H1147 H 0.79455 0.05229 0.52838 0.0
H1148 H 0.85622 0.06448 0.53283 0.0
H1149 H 0.87711 0.07428 0.50715 0.0
H1150 H 0.77374 0.05948 0.47345 0.0
H1151 H 0.90597 0.03106 0.50614 0.0
H1152 H 0.8745 0.02108 0.53021 0.0
O1153 O 0.70043 0.04829 0.52172 0.0
C1154 C 0.62984 0.03563 0.49342 0.0
C1155 C 0.79541 0.02606 0.52964 0.0
C1156 C 0.86543 0.03129 0.51058 0.0
N1157 N 0.77918 0.03755 0.50843 0.0
C1158 C 0.76147 0.03205 0.52158 0.0
C1159 C 0.83035 0.0372 0.50282 0.0
C1160 C 0.84775 0.0257 0.52409 0.0
C1161 C 0.62198 0.06002 0.45463 0.0
N1162 N 0.59336 0.0549 0.46607 0.0
C1163 C 0.61324 0.05974 0.43602 0.0
C1164 C 0.57483 0.05419 0.42915 0.0
C1165 C 0.54572 0.049 0.44091 0.0
C1166 C 0.55564 0.04943 0.45944 0.0
C1167 C 0.4516 0.06358 0.4927 0.0
C1168 C 0.51225 0.05128 0.51034 0.0
C1169 C 0.50489 0.06256 0.48865 0.0
N1170 N 0.5344 0.05643 0.49737 0.0
C1171 C 0.45908 0.05212 0.51474 0.0
C1172 C 0.42863 0.05831 0.50583 0.0
C1173 C 0.66006 0.0522 0.52797 0.0
C1174 C 0.82687 0.06746 0.48854 0.0
C1175 C 0.80335 0.05654 0.51715 0.0
C1176 C 0.83839 0.06342 0.51974 0.0
C1177 C 0.85012 0.06891 0.50532 0.0
N1178 N 0.78076 0.05515 0.50065 0.0
C1179 C 0.79209 0.0605 0.48644 0.0
Co1180 Co 0.35525 0.93295 0.23961 0.0
Co1181 Co 0.47868 0.94199 0.24542 0.0
O1182 O 0.43 0.93385 0.23398 0.0
C1183 C 0.39672 0.91541 0.24619 0.0
O1184 O 0.43711 0.91913 0.25408 0.0
C1185 C 0.48418 0.94605 0.20669 0.0
O1186 O 0.43257 0.94613 0.20698 0.0
O1187 O 0.42869 0.95185 0.24243 0.0
O1188 O 0.34845 0.94581 0.24032 0.0
H1189 H 0.53167 0.96581 0.28815 0.0
H1190 H 0.39867 0.92354 0.20805 0.0
O1191 O 0.36035 0.92001 0.23925 0.0
H1192 H 0.26495 0.94342 0.18312 0.0
H1193 H 0.17379 0.9202 0.2334 0.0
H1194 H 0.28295 0.94195 0.26487 0.0
H1195 H 0.28122 0.9428 0.21593 0.0
H1196 H 0.26822 0.92164 0.22633 0.0
O1197 O 0.50985 0.9446 0.22117 0.0
H1198 H 0.47017 0.95546 0.27392 0.0
H1199 H 0.59253 0.94588 0.24034 0.0
H1200 H 0.18859 0.94078 0.27225 0.0
H1201 H 0.38345 0.92391 0.17515 0.0
H1202 H 0.13335 0.92984 0.25645 0.0
H1203 H 0.3163 0.93393 0.16248 0.0
O1204 O 0.37002 0.93281 0.26598 0.0
H1205 H 0.58059 0.91575 0.22514 0.0
H1206 H 0.54174 0.93523 0.27633 0.0
H1207 H 0.60213 0.92286 0.28072 0.0
H1208 H 0.62193 0.91302 0.255 0.0
H1209 H 0.5201 0.92815 0.22138 0.0
H1210 H 0.6553 0.95617 0.2541 0.0
H1211 H 0.62498 0.9662 0.27824 0.0
O1212 O 0.448 0.9395 0.26971 0.0
C1213 C 0.37875 0.95239 0.24123 0.0
C1214 C 0.5454 0.96145 0.27769 0.0
C1215 C 0.61477 0.95605 0.25856 0.0
N1216 N 0.52787 0.95003 0.25644 0.0
C1217 C 0.51079 0.95556 0.26963 0.0
C1218 C 0.57904 0.95025 0.2508 0.0
C1219 C 0.59773 0.96167 0.27211 0.0
C1220 C 0.369 0.92785 0.20265 0.0
N1221 N 0.34069 0.93311 0.2139 0.0
C1222 C 0.36072 0.92806 0.18401 0.0
C1223 C 0.32309 0.93369 0.17691 0.0
C1224 C 0.29428 0.93902 0.18847 0.0
C1225 C 0.30372 0.93865 0.20704 0.0
C1226 C 0.19743 0.925 0.24034 0.0
C1227 C 0.25908 0.93721 0.25786 0.0
C1228 C 0.25092 0.92584 0.23642 0.0
N1229 N 0.28093 0.93192 0.24508 0.0
C1230 C 0.20572 0.93656 0.26213 0.0
C1231 C 0.17476 0.93042 0.25328 0.0
C1232 C 0.40675 0.93582 0.27592 0.0
C1233 C 0.5724 0.92001 0.23643 0.0
C1234 C 0.55009 0.93097 0.26508 0.0
C1235 C 0.58439 0.92398 0.26764 0.0
C1236 C 0.59552 0.91847 0.2532 0.0
N1237 N 0.52762 0.93244 0.24859 0.0
C1238 C 0.53836 0.92706 0.23436 0.0
Co1239 Co 0.38981 0.80499 0.24109 0.0
Co1240 Co 0.26785 0.79546 0.24699 0.0
O1241 O 0.31513 0.80382 0.23553 0.0
C1242 C 0.34632 0.82243 0.24748 0.0
O1243 O 0.30636 0.81865 0.25549 0.0
C1244 C 0.26145 0.79159 0.20817 0.0
O1245 O 0.31307 0.79167 0.20819 0.0
O1246 O 0.31901 0.78579 0.24361 0.0
O1247 O 0.39837 0.79216 0.24191 0.0
H1248 H 0.21928 0.77125 0.28939 0.0
H1249 H 0.34498 0.81417 0.20946 0.0
O1250 O 0.38306 0.81791 0.24059 0.0
H1251 H 0.4813 0.79475 0.18465 0.0
H1252 H 0.56951 0.81839 0.23468 0.0
H1253 H 0.46336 0.79632 0.26643 0.0
H1254 H 0.46505 0.79537 0.21746 0.0
H1255 H 0.4753 0.81657 0.22763 0.0
O1256 O 0.23625 0.79285 0.22281 0.0
H1257 H 0.27898 0.78188 0.27518 0.0
H1258 H 0.15436 0.79119 0.24224 0.0
H1259 H 0.55753 0.79787 0.27379 0.0
H1260 H 0.36015 0.8138 0.17656 0.0
H1261 H 0.61126 0.80897 0.25786 0.0
H1262 H 0.42861 0.80401 0.16396 0.0
O1263 O 0.37512 0.80515 0.26746 0.0
H1264 H 0.16186 0.82141 0.22758 0.0
H1265 H 0.2048 0.80185 0.27825 0.0
H1266 H 0.14286 0.81396 0.28309 0.0
H1267 H 0.12099 0.82384 0.25763 0.0
H1268 H 0.22393 0.80926 0.22338 0.0
H1269 H 0.09338 0.78061 0.25599 0.0
H1270 H 0.12574 0.77057 0.2798 0.0
O1271 O 0.29887 0.79795 0.27125 0.0
C1272 C 0.36903 0.78545 0.24255 0.0
C1273 C 0.20467 0.77561 0.27908 0.0
C1274 C 0.13402 0.78085 0.26031 0.0
N1275 N 0.22004 0.7872 0.25802 0.0
C1276 C 0.23824 0.78166 0.27102 0.0
C1277 C 0.16874 0.78682 0.25255 0.0
C1278 C 0.1522 0.77522 0.27368 0.0
C1279 C 0.3752 0.80996 0.20409 0.0
N1280 N 0.40426 0.80483 0.21537 0.0
C1281 C 0.38346 0.80975 0.18544 0.0
C1282 C 0.42183 0.80425 0.17838 0.0
C1283 C 0.45138 0.79904 0.18998 0.0
C1284 C 0.44195 0.79941 0.20855 0.0
C1285 C 0.54654 0.81352 0.24168 0.0
C1286 C 0.48658 0.80113 0.25936 0.0
C1287 C 0.49317 0.81247 0.23777 0.0
N1288 N 0.464 0.8063 0.24651 0.0
C1289 C 0.53984 0.80199 0.26362 0.0
C1290 C 0.56994 0.80823 0.25469 0.0
C1291 C 0.33926 0.80188 0.27743 0.0
C1292 C 0.17096 0.81713 0.23876 0.0
C1293 C 0.19557 0.80613 0.26712 0.0
C1294 C 0.16039 0.81297 0.26993 0.0
C1295 C 0.1481 0.8185 0.25563 0.0
N1296 N 0.21777 0.80482 0.25052 0.0
C1297 C 0.2059 0.81022 0.23644 0.0
Co1298 Co 0.35333 0.80514 0.50686 0.0
Co1299 Co 0.4769 0.79613 0.50127 0.0
O1300 O 0.428 0.80425 0.51265 0.0
C1301 C 0.39493 0.82268 0.50041 0.0
O1302 O 0.4354 0.81896 0.49258 0.0
C1303 C 0.48189 0.79203 0.54001 0.0
O1304 O 0.43029 0.79197 0.53967 0.0
O1305 O 0.42691 0.78626 0.50414 0.0
O1306 O 0.34658 0.79227 0.50611 0.0
H1307 H 0.53065 0.77234 0.45859 0.0
H1308 H 0.39613 0.81454 0.53855 0.0
O1309 O 0.35841 0.81808 0.50727 0.0
H1310 H 0.26203 0.79462 0.56313 0.0
H1311 H 0.17176 0.81788 0.51272 0.0
H1312 H 0.2815 0.79615 0.48143 0.0
H1313 H 0.27893 0.79526 0.53035 0.0
H1314 H 0.26606 0.81643 0.51999 0.0
O1315 O 0.50772 0.7935 0.52557 0.0
H1316 H 0.46889 0.78267 0.47272 0.0
H1317 H 0.5907 0.79225 0.50655 0.0
H1318 H 0.18727 0.79732 0.47385 0.0
H1319 H 0.38028 0.81415 0.57141 0.0
H1320 H 0.13174 0.80825 0.48955 0.0
H1321 H 0.31293 0.80411 0.5839 0.0
O1322 O 0.36855 0.8053 0.48053 0.0
H1323 H 0.57838 0.82236 0.52185 0.0
H1324 H 0.54045 0.80292 0.47051 0.0
H1325 H 0.60087 0.81531 0.46629 0.0
H1326 H 0.62021 0.82512 0.49209 0.0
H1327 H 0.51786 0.80995 0.52544 0.0
H1328 H 0.65372 0.78198 0.49289 0.0
H1329 H 0.62381 0.77195 0.46867 0.0
O1330 O 0.44662 0.79863 0.47692 0.0
C1331 C 0.37696 0.7857 0.50524 0.0
C1332 C 0.5442 0.77669 0.46908 0.0
C1333 C 0.61326 0.7821 0.48835 0.0
N1334 N 0.52631 0.78811 0.49032 0.0
C1335 C 0.50946 0.78258 0.47709 0.0
C1336 C 0.57739 0.78789 0.49606 0.0
C1337 C 0.59645 0.77648 0.47476 0.0
C1338 C 0.36638 0.81022 0.54387 0.0
N1339 N 0.33831 0.80496 0.53254 0.0
C1340 C 0.35774 0.81 0.56249 0.0
C1341 C 0.32 0.80436 0.56949 0.0
C1342 C 0.29145 0.79903 0.55785 0.0
C1343 C 0.30124 0.79941 0.5393 0.0
C1344 C 0.19552 0.81308 0.50581 0.0
C1345 C 0.25749 0.80088 0.4884 0.0
C1346 C 0.24894 0.81224 0.50985 0.0
N1347 N 0.27911 0.80616 0.50124 0.0
C1348 C 0.20421 0.80153 0.48401 0.0
C1349 C 0.17309 0.80767 0.49281 0.0
C1350 C 0.40545 0.8023 0.47065 0.0
C1351 C 0.57039 0.81812 0.51053 0.0
C1352 C 0.5486 0.80718 0.48179 0.0
C1353 C 0.58292 0.81417 0.47933 0.0
C1354 C 0.59378 0.81967 0.49381 0.0
N1355 N 0.52586 0.80569 0.49823 0.0
C1356 C 0.53634 0.81105 0.5125 0.0
Co1357 Co 0.39172 0.93309 0.50535 0.0
Co1358 Co 0.26979 0.94267 0.49968 0.0
O1359 O 0.31715 0.93429 0.51104 0.0
C1360 C 0.3476 0.9157 0.49887 0.0
O1361 O 0.30773 0.91956 0.49096 0.0
C1362 C 0.26408 0.94652 0.53852 0.0
O1363 O 0.3157 0.9464 0.53843 0.0
O1364 O 0.32116 0.9523 0.50298 0.0
O1365 O 0.40051 0.94593 0.50462 0.0
H1366 H 0.22093 0.96692 0.45742 0.0
H1367 H 0.34719 0.92387 0.53698 0.0
O1368 O 0.38466 0.92017 0.50575 0.0
H1369 H 0.48424 0.94318 0.56171 0.0
H1370 H 0.57119 0.91957 0.51134 0.0
H1371 H 0.46512 0.94177 0.47998 0.0
H1372 H 0.46745 0.94264 0.52892 0.0
H1373 H 0.47713 0.92143 0.51856 0.0
O1374 O 0.23865 0.94528 0.52392 0.0
H1375 H 0.28068 0.95625 0.4715 0.0
H1376 H 0.15645 0.94698 0.50465 0.0
H1377 H 0.55915 0.94018 0.47245 0.0
H1378 H 0.36289 0.92417 0.56986 0.0
H1379 H 0.61283 0.92901 0.48818 0.0
H1380 H 0.43172 0.9339 0.58242 0.0
O1381 O 0.3767 0.93299 0.47901 0.0
H1382 H 0.16376 0.91675 0.51927 0.0
H1383 H 0.2061 0.93631 0.46853 0.0
H1384 H 0.1439 0.92422 0.46381 0.0
H1385 H 0.12233 0.91434 0.4893 0.0
H1386 H 0.22608 0.92888 0.52336 0.0
H1387 H 0.09543 0.95759 0.49104 0.0
H1388 H 0.12756 0.96763 0.46719 0.0
O1389 O 0.30035 0.94017 0.47536 0.0
C1390 C 0.3712 0.95264 0.50401 0.0
C1391 C 0.20641 0.96256 0.46775 0.0
C1392 C 0.13599 0.95733 0.48664 0.0
N1393 N 0.22193 0.95095 0.48876 0.0
C1394 C 0.24001 0.95649 0.47573 0.0
C1395 C 0.17074 0.95135 0.49432 0.0
C1396 C 0.15404 0.96296 0.47326 0.0
C1397 C 0.37757 0.92805 0.54234 0.0
N1398 N 0.40654 0.9332 0.53105 0.0
C1399 C 0.38613 0.92823 0.56097 0.0
C1400 C 0.42471 0.9337 0.56801 0.0
C1401 C 0.45417 0.93891 0.5564 0.0
C1402 C 0.44443 0.93858 0.53785 0.0
C1403 C 0.54824 0.92447 0.50442 0.0
C1404 C 0.48832 0.93693 0.48697 0.0
C1405 C 0.49496 0.92554 0.50843 0.0
N1406 N 0.46581 0.93175 0.49981 0.0
C1407 C 0.5415 0.93605 0.48261 0.0
C1408 C 0.57158 0.92977 0.49143 0.0
C1409 C 0.34068 0.93624 0.46911 0.0
C1410 C 0.17272 0.92102 0.50807 0.0
C1411 C 0.197 0.93203 0.47968 0.0
C1412 C 0.16167 0.9252 0.47694 0.0
C1413 C 0.14955 0.91967 0.49125 0.0
N1414 N 0.2195 0.93333 0.49623 0.0
C1415 C 0.2078 0.92793 0.51033 0.0
Co1416 Co 0.64387 0.5552 0.25514 0.0
Co1417 Co 0.52044 0.54607 0.25012 0.0
O1418 O 0.56951 0.55422 0.26132 0.0
C1419 C 0.60162 0.57276 0.24934 0.0
O1420 O 0.56083 0.56908 0.24162 0.0
C1421 C 0.51685 0.54198 0.28888 0.0
O1422 O 0.56844 0.54192 0.28832 0.0
O1423 O 0.57078 0.53624 0.25282 0.0
O1424 O 0.65097 0.54234 0.25409 0.0
H1425 H 0.46589 0.52222 0.2077 0.0
H1426 H 0.60234 0.5644 0.28726 0.0
O1427 O 0.6385 0.56813 0.25586 0.0
H1428 H 0.73829 0.5445 0.31065 0.0
H1429 H 0.82537 0.56806 0.26018 0.0
H1430 H 0.71464 0.5464 0.22909 0.0
H1431 H 0.71973 0.54528 0.27799 0.0
H1432 H 0.73152 0.56649 0.268 0.0
O1433 O 0.49052 0.54343 0.27454 0.0
H1434 H 0.52785 0.5326 0.22157 0.0
H1435 H 0.40693 0.54211 0.25585 0.0
H1436 H 0.80841 0.54769 0.22095 0.0
H1437 H 0.61985 0.56388 0.32002 0.0
H1438 H 0.86443 0.55859 0.23655 0.0
H1439 H 0.68813 0.55385 0.3319 0.0
O1440 O 0.62732 0.55548 0.22891 0.0
H1441 H 0.41892 0.57223 0.27106 0.0
H1442 H 0.4557 0.5528 0.21959 0.0
H1443 H 0.39478 0.56513 0.21559 0.0
H1444 H 0.37601 0.57494 0.24145 0.0
H1445 H 0.47991 0.55986 0.27443 0.0
H1446 H 0.34373 0.53178 0.24245 0.0
H1447 H 0.37308 0.52177 0.21815 0.0
O1448 O 0.54984 0.54859 0.22564 0.0
C1449 C 0.62081 0.53573 0.25352 0.0
C1450 C 0.45258 0.52657 0.21824 0.0
C1451 C 0.38403 0.53193 0.23776 0.0
N1452 N 0.47088 0.538 0.23938 0.0
C1453 C 0.48744 0.53248 0.2261 0.0
C1454 C 0.42 0.53775 0.24531 0.0
C1455 C 0.40052 0.52631 0.22412 0.0
C1456 C 0.63248 0.56009 0.29232 0.0
N1457 N 0.66015 0.55491 0.28073 0.0
C1458 C 0.64207 0.55979 0.31088 0.0
C1459 C 0.68034 0.55415 0.31755 0.0
C1460 C 0.70847 0.5489 0.30563 0.0
C1461 C 0.69774 0.54936 0.28715 0.0
C1462 C 0.80139 0.56327 0.25332 0.0
C1463 C 0.73887 0.55111 0.23602 0.0
C1464 C 0.74822 0.56237 0.25766 0.0
N1465 N 0.71778 0.55631 0.24911 0.0
C1466 C 0.79189 0.55183 0.23132 0.0
C1467 C 0.82329 0.55795 0.24006 0.0
C1468 C 0.59033 0.55239 0.21919 0.0
C1469 C 0.42666 0.56798 0.25971 0.0
C1470 C 0.44781 0.55705 0.2309 0.0
C1471 C 0.4132 0.56401 0.22856 0.0
C1472 C 0.40266 0.56951 0.24308 0.0
N1473 N 0.47114 0.55559 0.24726 0.0
C1474 C 0.46098 0.56095 0.26156 0.0
Co1475 Co 0.60905 0.68323 0.25663 0.0
Co1476 Co 0.73112 0.69266 0.25033 0.0
O1477 O 0.6838 0.6844 0.26208 0.0
C1478 C 0.65219 0.66574 0.25066 0.0
O1479 O 0.692 0.66948 0.24248 0.0
C1480 C 0.73834 0.69674 0.28906 0.0
O1481 O 0.68672 0.69672 0.28918 0.0
O1482 O 0.68023 0.70238 0.25358 0.0
O1483 O 0.60074 0.69606 0.25543 0.0
H1484 H 0.77958 0.71659 0.20722 0.0
H1485 H 0.65398 0.67425 0.2885 0.0
O1486 O 0.61558 0.67031 0.25752 0.0
H1487 H 0.5184 0.69395 0.31285 0.0
H1488 H 0.42915 0.66998 0.26369 0.0
H1489 H 0.53542 0.69175 0.23112 0.0
H1490 H 0.53426 0.69307 0.28004 0.0
H1491 H 0.52348 0.67179 0.27055 0.0
O1492 O 0.76318 0.69538 0.27438 0.0
H1493 H 0.71985 0.70608 0.22183 0.0
H1494 H 0.84479 0.69689 0.25477 0.0
H1495 H 0.44113 0.69021 0.22393 0.0
H1496 H 0.63922 0.67489 0.3214 0.0
H1497 H 0.38734 0.67926 0.24027 0.0
H1498 H 0.57113 0.68482 0.33377 0.0
O1499 O 0.62348 0.68288 0.23025 0.0
H1500 H 0.83677 0.66675 0.27019 0.0
H1501 H 0.79354 0.68606 0.21912 0.0
H1502 H 0.8551 0.67387 0.21447 0.0
H1503 H 0.87712 0.66412 0.24013 0.0
H1504 H 0.77506 0.67897 0.2742 0.0
H1505 H 0.9058 0.70734 0.24062 0.0
H1506 H 0.87329 0.71726 0.21661 0.0
O1507 O 0.69969 0.69006 0.22621 0.0
C1508 C 0.6302 0.70275 0.25462 0.0
C1509 C 0.79425 0.71228 0.21763 0.0
C1510 C 0.86508 0.7071 0.23639 0.0
N1511 N 0.77895 0.70083 0.23902 0.0
C1512 C 0.76067 0.7063 0.22591 0.0
C1513 C 0.83034 0.7012 0.24437 0.0
C1514 C 0.84682 0.71266 0.22291 0.0
C1515 C 0.62392 0.67852 0.29377 0.0
N1516 N 0.59485 0.68359 0.28236 0.0
C1517 C 0.61588 0.67888 0.31242 0.0
C1518 C 0.57773 0.68446 0.31935 0.0
C1519 C 0.54815 0.68959 0.30762 0.0
C1520 C 0.55736 0.68908 0.28906 0.0
C1521 C 0.45215 0.67479 0.2565 0.0
C1522 C 0.51217 0.68701 0.23836 0.0
C1523 C 0.50558 0.67583 0.2603 0.0
N1524 N 0.53478 0.68192 0.25134 0.0
C1525 C 0.45885 0.68615 0.2342 0.0
C1526 C 0.42871 0.68 0.24336 0.0
C1527 C 0.65926 0.68609 0.22017 0.0
C1528 C 0.82761 0.67097 0.25892 0.0
C1529 C 0.80284 0.68183 0.23034 0.0
C1530 C 0.83781 0.67495 0.22764 0.0
C1531 C 0.85017 0.66949 0.24204 0.0
N1532 N 0.78092 0.68325 0.24694 0.0
C1533 C 0.79287 0.67792 0.26113 0.0
Co1534 Co 0.64484 0.68281 0.99071 0.0
Co1535 Co 0.52264 0.69226 0.99663 0.0
O1536 O 0.57017 0.68397 0.9851 0.0
C1537 C 0.60146 0.66536 0.99694 0.0
O1538 O 0.56146 0.66914 0.00493 0.0
C1539 C 0.51644 0.69627 0.95787 0.0
O1540 O 0.56806 0.6962 0.9579 0.0
O1541 O 0.57367 0.70196 0.99343 0.0
O1542 O 0.65319 0.69565 0.99164 0.0
H1543 H 0.47341 0.7163 0.03936 0.0
H1544 H 0.60034 0.67368 0.95897 0.0
O1545 O 0.63825 0.66989 0.99009 0.0
H1546 H 0.73644 0.69323 0.93442 0.0
H1547 H 0.82475 0.6695 0.98428 0.0
H1548 H 0.71814 0.69146 0.01616 0.0
H1549 H 0.72003 0.69253 0.96722 0.0
H1550 H 0.73055 0.6713 0.9772 0.0
O1551 O 0.49119 0.69494 0.97247 0.0
H1552 H 0.53336 0.70574 0.02503 0.0
H1553 H 0.40911 0.6965 0.99184 0.0
H1554 H 0.8123 0.68994 0.02356 0.0
H1555 H 0.61566 0.67414 0.92608 0.0
H1556 H 0.86626 0.67889 0.00756 0.0
H1557 H 0.68401 0.68399 0.91361 0.0
O1558 O 0.63002 0.68259 0.01707 0.0
H1559 H 0.41722 0.66633 0.97673 0.0
H1560 H 0.45942 0.68574 0.02774 0.0
H1561 H 0.39762 0.67357 0.03232 0.0
H1562 H 0.37613 0.66377 0.0067 0.0
H1563 H 0.47915 0.67853 0.97277 0.0
H1564 H 0.34788 0.707 0.00571 0.0
H1565 H 0.37993 0.71697 0.0297 0.0
O1566 O 0.55347 0.6897 0.02087 0.0
C1567 C 0.62369 0.70233 0.99237 0.0
C1568 C 0.45893 0.71197 0.02896 0.0
C1569 C 0.3885 0.70676 0.01006 0.0
N1570 N 0.47462 0.70046 0.00774 0.0
C1571 C 0.49265 0.70596 0.02084 0.0
C1572 C 0.42336 0.70084 0.00223 0.0
C1573 C 0.4065 0.71235 0.02352 0.0
C1574 C 0.63052 0.67792 0.95365 0.0
N1575 N 0.65943 0.68304 0.965 0.0
C1576 C 0.63887 0.67818 0.93501 0.0
C1577 C 0.67717 0.68372 0.92803 0.0
C1578 C 0.70657 0.68891 0.9397 0.0
C1579 C 0.69706 0.68849 0.95825 0.0
C1580 C 0.80168 0.67435 0.99132 0.0
C1581 C 0.74146 0.68668 0.00906 0.0
C1582 C 0.74831 0.67539 0.98739 0.0
N1583 N 0.71902 0.68152 0.99616 0.0
C1584 C 0.79471 0.68583 0.01335 0.0
C1585 C 0.82495 0.67962 0.00438 0.0
C1586 C 0.59394 0.68578 0.02704 0.0
C1587 C 0.42615 0.67057 0.98799 0.0
C1588 C 0.45035 0.68149 0.01653 0.0
C1589 C 0.41525 0.67462 0.0192 0.0
C1590 C 0.40317 0.66913 0.00481 0.0
N1591 N 0.47267 0.68286 -2e-05 0.0
C1592 C 0.46101 0.67751 0.98581 0.0
Co1593 Co 0.60572 0.5549 0.98943 0.0
Co1594 Co 0.72809 0.54556 0.99579 0.0
O1595 O 0.68063 0.55383 0.98414 0.0
C1596 C 0.64844 0.57234 0.99622 0.0
O1597 O 0.68824 0.56853 0.00427 0.0
C1598 C 0.73527 0.54157 0.95704 0.0
O1599 O 0.68365 0.54165 0.95694 0.0
O1600 O 0.6774 0.53583 0.99245 0.0
O1601 O 0.59776 0.54205 0.99009 0.0
H1602 H 0.77695 0.52154 0.03862 0.0
H1603 H 0.65115 0.56422 0.95809 0.0
O1604 O 0.61196 0.56782 0.98911 0.0
H1605 H 0.51668 0.54467 0.93252 0.0
H1606 H 0.42567 0.56808 0.98241 0.0
H1607 H 0.53166 0.54606 0.01435 0.0
H1608 H 0.53179 0.54523 0.9654 0.0
H1609 H 0.52022 0.56641 0.97577 0.0
O1610 O 0.76019 0.54291 0.97171 0.0
H1611 H 0.71705 0.53206 0.02414 0.0
H1612 H 0.84184 0.54141 0.99133 0.0
H1613 H 0.43714 0.54746 0.0213 0.0
H1614 H 0.63712 0.56391 0.92512 0.0
H1615 H 0.38349 0.55853 0.00527 0.0
H1616 H 0.56959 0.55405 0.91214 0.0
O1617 O 0.61946 0.555 0.01587 0.0
H1618 H 0.8332 0.57158 0.97623 0.0
H1619 H 0.79032 0.55212 0.02709 0.0
H1620 H 0.8516 0.56434 0.03188 0.0
H1621 H 0.87343 0.57417 0.00633 0.0
H1622 H 0.77179 0.55933 0.97207 0.0
H1623 H 0.90302 0.53095 0.00535 0.0
H1624 H 0.87068 0.52094 0.02923 0.0
O1625 O 0.69654 0.54809 0.01993 0.0
C1626 C 0.62747 0.5354 0.99106 0.0
C1627 C 0.79155 0.52589 0.02827 0.0
C1628 C 0.8623 0.53116 0.00958 0.0
N1629 N 0.77606 0.53739 0.00703 0.0
C1630 C 0.75787 0.53187 0.02007 0.0
C1631 C 0.82746 0.53706 0.00167 0.0
C1632 C 0.84413 0.52555 0.02299 0.0
C1633 C 0.62132 0.55998 0.95254 0.0
N1634 N 0.59215 0.55478 0.96366 0.0
C1635 C 0.61371 0.55981 0.93387 0.0
C1636 C 0.57587 0.55426 0.92659 0.0
C1637 C 0.54619 0.54899 0.93801 0.0
C1638 C 0.55497 0.54933 0.95662 0.0
C1639 C 0.4486 0.56322 0.98946 0.0
C1640 C 0.50848 0.55086 0.00724 0.0
C1641 C 0.50216 0.56226 0.98578 0.0
N1642 N 0.53129 0.5561 0.99456 0.0
C1643 C 0.45503 0.55164 0.01127 0.0
C1644 C 0.42496 0.55786 0.00228 0.0
C1645 C 0.65547 0.55187 0.02597 0.0
C1646 C 0.82412 0.56733 0.98746 0.0
C1647 C 0.79955 0.55638 0.01591 0.0
C1648 C 0.83436 0.56328 0.0187 0.0
C1649 C 0.84662 0.56879 0.00435 0.0
N1650 N 0.77771 0.55499 -0.00071 0.0
C1651 C 0.78956 0.56036 0.98516 0.0
Co1652 Co 0.35731 0.43265 0.74177 0.0
Co1653 Co 0.47825 0.44258 0.74734 0.0
O1654 O 0.43192 0.43398 0.73623 0.0
C1655 C 0.40293 0.41547 0.74924 0.0
O1656 O 0.44231 0.41951 0.75703 0.0
C1657 C 0.48429 0.44609 0.70837 0.0
O1658 O 0.4327 0.44582 0.70835 0.0
O1659 O 0.42603 0.45205 0.74353 0.0
O1660 O 0.34731 0.44547 0.74181 0.0
H1661 H 0.52392 0.46737 0.78868 0.0
H1662 H 0.40351 0.42318 0.71075 0.0
O1663 O 0.36561 0.41976 0.74205 0.0
H1664 H 0.26529 0.44183 0.68464 0.0
H1665 H 0.17931 0.41859 0.73596 0.0
H1666 H 0.28246 0.44143 0.76647 0.0
H1667 H 0.28131 0.44172 0.71749 0.0
H1668 H 0.27337 0.42061 0.72892 0.0
O1669 O 0.50958 0.44505 0.72307 0.0
H1670 H 0.4655 0.4564 0.77493 0.0
H1671 H 0.59125 0.44716 0.74243 0.0
H1672 H 0.18839 0.43969 0.7738 0.0
H1673 H 0.38861 0.42305 0.67783 0.0
H1674 H 0.13618 0.4282 0.75849 0.0
H1675 H 0.31919 0.43245 0.66457 0.0
O1676 O 0.37167 0.43289 0.76815 0.0
H1677 H 0.58714 0.41678 0.72906 0.0
H1678 H 0.54199 0.4367 0.77887 0.0
H1679 H 0.60528 0.42483 0.78422 0.0
H1680 H 0.62826 0.41477 0.7592 0.0
H1681 H 0.52372 0.42869 0.72433 0.0
H1682 H 0.65095 0.45807 0.75572 0.0
H1683 H 0.61738 0.46825 0.77907 0.0
O1684 O 0.4475 0.44024 0.77169 0.0
C1685 C 0.37602 0.45225 0.74226 0.0
C1686 C 0.53906 0.46295 0.77857 0.0
C1687 C 0.61034 0.45774 0.76004 0.0
N1688 N 0.52509 0.4511 0.75802 0.0
C1689 C 0.50622 0.45671 0.77078 0.0
C1690 C 0.57634 0.45158 0.75254 0.0
C1691 C 0.59148 0.46344 0.77315 0.0
C1692 C 0.37288 0.42722 0.70509 0.0
N1693 N 0.34315 0.43242 0.71603 0.0
C1694 C 0.36477 0.42715 0.68644 0.0
C1695 C 0.32586 0.43243 0.679 0.0
C1696 C 0.29563 0.4377 0.69026 0.0
C1697 C 0.30493 0.43762 0.70885 0.0
C1698 C 0.20161 0.42363 0.74269 0.0
C1699 C 0.25989 0.43646 0.75966 0.0
C1700 C 0.25489 0.4248 0.73878 0.0
N1701 N 0.28322 0.43118 0.74717 0.0
C1702 C 0.20669 0.43548 0.76391 0.0
C1703 C 0.17744 0.42903 0.75533 0.0
C1704 C 0.40729 0.4363 0.778 0.0
C1705 C 0.57756 0.42113 0.74005 0.0
C1706 C 0.55171 0.43234 0.76792 0.0
C1707 C 0.58765 0.42564 0.77103 0.0
C1708 C 0.60056 0.42 0.75697 0.0
N1709 N 0.52938 0.43342 0.75128 0.0
C1710 C 0.54186 0.42792 0.73743 0.0
Co1711 Co 0.40095 0.30495 0.73956 0.0
Co1712 Co 0.27744 0.29594 0.74538 0.0
O1713 O 0.32612 0.3041 0.73399 0.0
C1714 C 0.35964 0.32244 0.74664 0.0
O1715 O 0.31935 0.31866 0.75446 0.0
C1716 C 0.27156 0.29201 0.7066 0.0
O1717 O 0.32317 0.29192 0.70682 0.0
O1718 O 0.32731 0.28608 0.74222 0.0
O1719 O 0.40762 0.29208 0.73999 0.0
H1720 H 0.22454 0.27201 0.78786 0.0
H1721 H 0.35734 0.31454 0.70825 0.0
O1722 O 0.39593 0.3179 0.7395 0.0
H1723 H 0.49054 0.29473 0.68274 0.0
H1724 H 0.58242 0.3177 0.73341 0.0
H1725 H 0.47344 0.29581 0.76454 0.0
H1726 H 0.47459 0.29519 0.71559 0.0
H1727 H 0.48791 0.31631 0.72642 0.0
O1728 O 0.24606 0.29341 0.72113 0.0
H1729 H 0.28603 0.28238 0.77371 0.0
H1730 H 0.1635 0.2921 0.74035 0.0
H1731 H 0.56788 0.29693 0.77183 0.0
H1732 H 0.37224 0.31433 0.67533 0.0
H1733 H 0.62303 0.30794 0.75621 0.0
H1734 H 0.43913 0.30435 0.66238 0.0
O1735 O 0.38647 0.30497 0.76594 0.0
H1736 H 0.17566 0.32227 0.72549 0.0
H1737 H 0.21462 0.30263 0.77642 0.0
H1738 H 0.15438 0.315 0.781 0.0
H1739 H 0.13452 0.32492 0.75542 0.0
H1740 H 0.23601 0.30986 0.72154 0.0
H1741 H 0.10074 0.28178 0.75404 0.0
H1742 H 0.13114 0.27167 0.77803 0.0
O1743 O 0.30828 0.29836 0.76968 0.0
C1744 C 0.37721 0.28551 0.74089 0.0
C1745 C 0.21077 0.27641 0.77747 0.0
C1746 C 0.14131 0.28188 0.75847 0.0
N1747 N 0.22824 0.28788 0.75634 0.0
C1748 C 0.24537 0.28231 0.76945 0.0
C1749 C 0.17703 0.28769 0.75074 0.0
C1750 C 0.15839 0.27621 0.77193 0.0
C1751 C 0.38689 0.31024 0.70273 0.0
N1752 N 0.41524 0.30492 0.71383 0.0
C1753 C 0.395 0.31013 0.68407 0.0
C1754 C 0.43248 0.30452 0.67681 0.0
C1755 C 0.46132 0.29912 0.68823 0.0
C1756 C 0.45206 0.29939 0.70681 0.0
C1757 C 0.55883 0.31286 0.74028 0.0
C1758 C 0.49728 0.30058 0.7576 0.0
C1759 C 0.50529 0.31206 0.7364 0.0
N1760 N 0.47533 0.30593 0.74496 0.0
C1761 C 0.55068 0.3012 0.76183 0.0
C1762 C 0.58159 0.30738 0.75307 0.0
C1763 C 0.3497 0.30198 0.77589 0.0
C1764 C 0.18388 0.31798 0.73673 0.0
C1765 C 0.20624 0.30692 0.76523 0.0
C1766 C 0.17203 0.31391 0.7679 0.0
C1767 C 0.16087 0.31947 0.75353 0.0
N1768 N 0.2286 0.3055 0.7487 0.0
C1769 C 0.21783 0.31092 0.73455 0.0
Co1770 Co 0.36078 0.30516 0.00523 0.0
Co1771 Co 0.48336 0.29577 -0.00012 0.0
O1772 O 0.43522 0.30404 0.01117 0.0
C1773 C 0.40392 0.32265 -0.00082 0.0
O1774 O 0.44441 0.31892 0.99139 0.0
C1775 C 0.4875 0.2917 0.03862 0.0
O1776 O 0.43589 0.29173 0.03818 0.0
O1777 O 0.43233 0.28604 0.00275 0.0
O1778 O 0.3527 0.29232 0.00427 0.0
H1779 H 0.53506 0.27178 0.95737 0.0
H1780 H 0.40388 0.31432 0.03715 0.0
O1781 O 0.36705 0.31808 0.00586 0.0
H1782 H 0.26716 0.29471 0.0611 0.0
H1783 H 0.18035 0.31836 0.01079 0.0
H1784 H 0.28868 0.29647 0.97943 0.0
H1785 H 0.28481 0.29542 0.02838 0.0
H1786 H 0.27429 0.31663 0.01832 0.0
O1787 O 0.51365 0.29309 0.02422 0.0
H1788 H 0.47423 0.2823 0.97138 0.0
H1789 H 0.59669 0.29157 0.00531 0.0
H1790 H 0.19479 0.29793 0.97159 0.0
H1791 H 0.38731 0.31386 0.06997 0.0
H1792 H 0.13997 0.30895 0.98732 0.0
H1793 H 0.31864 0.30397 0.08214 0.0
O1794 O 0.37665 0.30537 0.97894 0.0
H1795 H 0.58748 0.32172 0.02043 0.0
H1796 H 0.54789 0.30234 0.96915 0.0
H1797 H 0.60971 0.31453 0.96493 0.0
H1798 H 0.62989 0.32432 0.9907 0.0
H1799 H 0.52556 0.3095 0.02402 0.0
H1800 H 0.65877 0.28111 0.99176 0.0
H1801 H 0.62807 0.27114 0.96756 0.0
O1802 O 0.45358 0.29833 0.97549 0.0
C1803 C 0.38228 0.28564 0.0036 0.0
C1804 C 0.54895 0.27611 0.96786 0.0
C1805 C 0.61836 0.28134 0.98718 0.0
N1806 N 0.53203 0.28759 0.98903 0.0
C1807 C 0.51474 0.2821 0.9758 0.0
C1808 C 0.58302 0.28724 0.99482 0.0
C1809 C 0.60112 0.27575 0.9736 0.0
C1810 C 0.37357 0.31007 0.04234 0.0
N1811 N 0.34518 0.30493 0.03086 0.0
C1812 C 0.36451 0.30981 0.06094 0.0
C1813 C 0.32603 0.30425 0.06776 0.0
C1814 C 0.29716 0.29905 0.05596 0.0
C1815 C 0.30738 0.29946 0.03745 0.0
C1816 C 0.20379 0.31353 0.00387 0.0
C1817 C 0.26498 0.30124 0.98642 0.0
C1818 C 0.25702 0.31253 0.00805 0.0
N1819 N 0.28679 0.3064 -0.00058 0.0
C1820 C 0.21188 0.30205 0.98188 0.0
C1821 C 0.18116 0.30824 0.9907 0.0
C1822 C 0.41321 0.30221 0.96914 0.0
C1823 C 0.57912 0.31749 0.00912 0.0
C1824 C 0.55639 0.30658 0.98042 0.0
C1825 C 0.5915 0.31346 0.97796 0.0
C1826 C 0.60284 0.31895 0.99242 0.0
N1827 N 0.53334 0.30518 0.99684 0.0
C1828 C 0.54427 0.31053 0.01109 0.0
Co1829 Co 0.3933 0.4331 0.00756 0.0
Co1830 Co 0.27017 0.44224 0.00175 0.0
O1831 O 0.31852 0.43402 0.01313 0.0
C1832 C 0.35149 0.4156 0.00066 0.0
O1833 O 0.31121 0.41936 0.9928 0.0
C1834 C 0.26444 0.44618 0.04052 0.0
O1835 O 0.31605 0.44622 0.0403 0.0
O1836 O 0.32041 0.45205 0.00492 0.0
O1837 O 0.40046 0.44595 0.00706 0.0
H1838 H 0.21822 0.46624 0.95931 0.0
H1839 H 0.34934 0.4236 0.03892 0.0
O1840 O 0.38787 0.42016 0.00771 0.0
H1841 H 0.4834 0.44328 0.06431 0.0
H1842 H 0.57436 0.42019 0.01376 0.0
H1843 H 0.46606 0.44213 0.98251 0.0
H1844 H 0.46739 0.4428 0.03147 0.0
H1845 H 0.47991 0.42168 0.02075 0.0
O1846 O 0.23888 0.4448 0.026 0.0
H1847 H 0.27929 0.4558 0.97344 0.0
H1848 H 0.15638 0.4462 0.00678 0.0
H1849 H 0.56044 0.44092 0.97521 0.0
H1850 H 0.36429 0.42383 0.07184 0.0
H1851 H 0.61525 0.42989 0.99089 0.0
H1852 H 0.43161 0.43375 0.08474 0.0
O1853 O 0.37875 0.43306 0.98117 0.0
H1854 H 0.16732 0.41601 0.02158 0.0
H1855 H 0.20714 0.43563 0.97069 0.0
H1856 H 0.14641 0.42332 0.96608 0.0
H1857 H 0.12612 0.41342 0.99165 0.0
H1858 H 0.22817 0.42836 0.02556 0.0
H1859 H 0.09403 0.45658 0.99311 0.0
H1860 H 0.12484 0.46667 0.96914 0.0
O1861 O 0.30096 0.4398 0.97747 0.0
C1862 C 0.37035 0.45256 0.0062 0.0
C1863 C 0.20428 0.46186 0.96969 0.0
C1864 C 0.13459 0.45644 0.98868 0.0
N1865 N 0.22129 0.45035 0.9908 0.0
C1866 C 0.23864 0.45591 0.97771 0.0
C1867 C 0.17009 0.45059 0.9964 0.0
C1868 C 0.1519 0.4621 0.97523 0.0
C1869 C 0.37908 0.42787 0.04442 0.0
N1870 N 0.40764 0.43315 0.03329 0.0
C1871 C 0.38721 0.428 0.06308 0.0
C1872 C 0.42494 0.43358 0.0703 0.0
C1873 C 0.45399 0.43893 0.05885 0.0
C1874 C 0.4447 0.43864 0.04027 0.0
C1875 C 0.55092 0.42504 0.00686 0.0
C1876 C 0.48974 0.43735 0.98947 0.0
C1877 C 0.49741 0.4259 0.01074 0.0
N1878 N 0.46764 0.43204 0.00215 0.0
C1879 C 0.54312 0.43668 0.98524 0.0
C1880 C 0.57384 0.43048 0.99403 0.0
C1881 C 0.34216 0.43613 0.97124 0.0
C1882 C 0.17573 0.4203 0.01035 0.0
C1883 C 0.19858 0.43134 0.98188 0.0
C1884 C 0.16408 0.42439 0.97919 0.0
C1885 C 0.15269 0.41884 0.99355 0.0
N1886 N 0.22097 0.43273 -0.00159 0.0
C1887 C 0.20997 0.42732 0.01255 0.0
C1888 C 0.11498 0.05828 0.05515 0.0
C1889 C 0.15529 0.05326 0.04738 0.0
C1890 C 0.10909 0.05868 0.07389 0.0
C1891 C 0.1789 0.05417 0.11697 0.0
H1892 H 0.03756 0.05382 0.1366 0.0
C1893 C 0.06628 0.04772 0.18917 0.0
C1894 C 0.09991 0.0523 0.20085 0.0
C1895 C 0.07297 0.04821 0.17048 0.0
C1896 C 0.07732 0.05385 0.13136 0.0
H1897 H 0.22133 0.04478 0.05331 0.0
H1898 H 0.21022 0.04529 0.08588 0.0
H1899 H 0.05015 0.05383 0.10405 0.0
H1900 H 0.16634 0.06116 0.20197 0.0
H1901 H 0.17709 0.06219 0.1694 0.0
H1902 H 0.2061 0.05381 0.14427 0.0
C1903 C 0.18377 0.04908 0.07753 0.0
C1904 C 0.08455 0.05398 0.11266 0.0
C1905 C 0.18995 0.04874 0.05881 0.0
C1906 C 0.13994 0.05749 0.19338 0.0
C1907 C 0.14632 0.05804 0.17469 0.0
C1908 C 0.17168 0.05397 0.13566 0.0
C1909 C 0.14307 0.05401 0.08531 0.0
C1910 C 0.13544 0.05411 0.10523 0.0
C1911 C 0.11313 0.05337 0.163 0.0
C1912 C 0.12079 0.05377 0.1431 0.0
H1913 H 0.08778 0.0619 0.04676 0.0
H1914 H 0.0779 0.06266 0.07941 0.0
H1915 H 0.21865 0.05438 0.11173 0.0
H1916 H 0.03519 0.04362 0.19445 0.0
H1917 H 0.04719 0.04442 0.16191 0.0
C1918 C 0.06473 0.18993 0.05799 0.0
C1919 C 0.09834 0.18535 0.04629 0.0
C1920 C 0.07114 0.18937 0.07668 0.0
C1921 C 0.16933 0.18358 0.11155 0.0
H1922 H 0.0475 0.18393 0.14302 0.0
C1923 C 0.11204 0.17987 0.19214 0.0
C1924 C 0.15237 0.18493 0.19977 0.0
C1925 C 0.10618 0.17935 0.17341 0.0
C1926 C 0.08199 0.18372 0.13445 0.0
H1927 H 0.16444 0.17643 0.04515 0.0
H1928 H 0.17477 0.1753 0.07775 0.0
H1929 H 0.03522 0.18374 0.11046 0.0
H1930 H 0.21837 0.19339 0.19362 0.0
H1931 H 0.2073 0.19266 0.16105 0.0
H1932 H 0.21607 0.18333 0.13555 0.0
C1933 C 0.14418 0.17948 0.07246 0.0
C1934 C 0.07493 0.18373 0.11575 0.0
C1935 C 0.13804 0.18009 0.05375 0.0
C1936 C 0.18698 0.1894 0.18823 0.0
C1937 C 0.18084 0.18893 0.16951 0.0
C1938 C 0.17638 0.1835 0.13026 0.0
C1939 C 0.11102 0.18416 0.08416 0.0
C1940 C 0.11851 0.18375 0.10406 0.0
C1941 C 0.14024 0.18393 0.16186 0.0
C1942 C 0.1328 0.18365 0.14195 0.0
H1943 H 0.03386 0.19408 0.05275 0.0
H1944 H 0.04542 0.19317 0.08525 0.0
H1945 H 0.20382 0.18368 0.10297 0.0
H1946 H 0.0849 0.17629 0.20062 0.0
H1947 H 0.07505 0.17531 0.168 0.0
C1948 C 0.81788 0.93978 0.93817 0.0
C1949 C 0.8512 0.93516 0.94991 0.0
C1950 C 0.82424 0.93916 0.91948 0.0
C1951 C 0.82776 0.93343 0.88044 0.0
H1952 H 0.96894 0.93267 0.86072 0.0
C1953 C 0.86494 0.9294 0.80405 0.0
C1954 C 0.90555 0.93442 0.79645 0.0
C1955 C 0.85902 0.92887 0.82278 0.0
C1956 C 0.92924 0.93294 0.86599 0.0
H1957 H 0.9167 0.92613 0.95113 0.0
H1958 H 0.92694 0.9249 0.91855 0.0
H1959 H 0.95659 0.93315 0.89328 0.0
H1960 H 0.97206 0.94276 0.80267 0.0
H1961 H 0.96092 0.942 0.83521 0.0
H1962 H 0.80047 0.9336 0.85314 0.0
C1963 C 0.89664 0.92916 0.9238 0.0
C1964 C 0.92212 0.93309 0.88469 0.0
C1965 C 0.89056 0.92982 0.9425 0.0
C1966 C 0.94044 0.93881 0.80803 0.0
C1967 C 0.93426 0.93833 0.82674 0.0
C1968 C 0.83489 0.93334 0.86174 0.0
C1969 C 0.86378 0.93386 0.91205 0.0
C1970 C 0.87129 0.93339 0.89215 0.0
C1971 C 0.89332 0.93339 0.83436 0.0
C1972 C 0.88573 0.93315 0.85427 0.0
H1973 H 0.78728 0.94399 0.94339 0.0
H1974 H 0.79877 0.94299 0.91087 0.0
H1975 H 0.78803 0.93353 0.88571 0.0
H1976 H 0.83755 0.92589 0.79555 0.0
H1977 H 0.8276 0.92489 0.82818 0.0
C1978 C 0.86402 0.80828 0.94232 0.0
C1979 C 0.90413 0.80317 0.94995 0.0
C1980 C 0.85836 0.80885 0.92359 0.0
C1981 C 0.8341 0.80449 0.88462 0.0
H1982 H 0.95587 0.80444 0.85311 0.0
C1983 C 0.81659 0.79809 0.80823 0.0
C1984 C 0.85019 0.80263 0.79647 0.0
C1985 C 0.82307 0.7987 0.82691 0.0
C1986 C 0.9214 0.80456 0.86169 0.0
H1987 H 0.97006 0.7947 0.94378 0.0
H1988 H 0.95934 0.79553 0.91121 0.0
H1989 H 0.9682 0.80485 0.88569 0.0
H1990 H 0.91636 0.81154 0.7952 0.0
H1991 H 0.92682 0.81275 0.82778 0.0
H1992 H 0.78729 0.80443 0.86064 0.0
C1993 C 0.93288 0.79925 0.91967 0.0
C1994 C 0.92849 0.80468 0.88041 0.0
C1995 C 0.93882 0.79873 0.93839 0.0
C1996 C 0.88996 0.8079 0.80385 0.0
C1997 C 0.89617 0.80856 0.82255 0.0
C1998 C 0.82701 0.80444 0.86592 0.0
C1999 C 0.8924 0.80428 0.91203 0.0
C2000 C 0.88494 0.80456 0.89211 0.0
C2001 C 0.86301 0.80393 0.83432 0.0
C2002 C 0.87056 0.80439 0.85422 0.0
H2003 H 0.83682 0.81185 0.9508 0.0
H2004 H 0.82732 0.81291 0.91818 0.0
H2005 H 0.79963 0.8043 0.8932 0.0
H2006 H 0.78567 0.79394 0.80305 0.0
H2007 H 0.79735 0.79492 0.83554 0.0
C2008 C 0.05834 0.54866 0.68776 0.0
C2009 C 0.09303 0.55308 0.69935 0.0
C2010 C 0.06459 0.54913 0.66905 0.0
C2011 C 0.16433 0.55419 0.63421 0.0
H2012 H 0.04331 0.55416 0.60236 0.0
C2013 C 0.11062 0.55765 0.55332 0.0
C2014 C 0.15054 0.55239 0.54602 0.0
C2015 C 0.10387 0.55827 0.57201 0.0
C2016 C 0.07758 0.55427 0.61104 0.0
H2017 H 0.16057 0.56171 0.70027 0.0
H2018 H 0.1706 0.56271 0.66766 0.0
H2019 H 0.03023 0.55466 0.6349 0.0
H2020 H 0.21467 0.54364 0.55272 0.0
H2021 H 0.20204 0.54455 0.58519 0.0
H2022 H 0.21171 0.55403 0.61037 0.0
C2023 C 0.13934 0.55869 0.67304 0.0
C2024 C 0.07005 0.55444 0.62973 0.0
C2025 C 0.13337 0.55816 0.69176 0.0
C2026 C 0.18367 0.54779 0.55785 0.0
C2027 C 0.17664 0.54836 0.57651 0.0
C2028 C 0.17186 0.55408 0.61553 0.0
C2029 C 0.10539 0.55411 0.66145 0.0
C2030 C 0.11332 0.55432 0.64155 0.0
C2031 C 0.1366 0.55359 0.58383 0.0
C2032 C 0.12859 0.55404 0.60371 0.0
H2033 H 0.02692 0.54466 0.69312 0.0
H2034 H 0.03817 0.54542 0.66057 0.0
H2035 H 0.19859 0.55399 0.64289 0.0
H2036 H 0.08457 0.56133 0.54462 0.0
H2037 H 0.07318 0.56247 0.57717 0.0
C2038 C 0.19375 0.68949 0.68809 0.0
C2039 C 0.15979 0.68485 0.69957 0.0
C2040 C 0.18773 0.68904 0.66936 0.0
C2041 C 0.08974 0.6835 0.63421 0.0
H2042 H 0.21161 0.68406 0.60277 0.0
C2043 C 0.14683 0.67996 0.5536 0.0
C2044 C 0.10613 0.68496 0.546 0.0
C2045 C 0.15297 0.67947 0.57232 0.0
C2046 C 0.17713 0.68379 0.61133 0.0
H2047 H 0.09366 0.67592 0.7003 0.0
H2048 H 0.08407 0.67499 0.66766 0.0
H2049 H 0.22384 0.68373 0.63534 0.0
H2050 H 0.03989 0.69335 0.55222 0.0
H2051 H 0.05145 0.69267 0.58477 0.0
H2052 H 0.04305 0.68332 0.6102 0.0
C2053 C 0.11457 0.67914 0.67313 0.0
C2054 C 0.18414 0.68373 0.63004 0.0
C2055 C 0.12029 0.67963 0.69187 0.0
C2056 C 0.07154 0.68941 0.55758 0.0
C2057 C 0.07797 0.68897 0.57629 0.0
C2058 C 0.08273 0.6835 0.6155 0.0
C2059 C 0.14791 0.6839 0.66165 0.0
C2060 C 0.14054 0.68365 0.64172 0.0
C2061 C 0.11885 0.68402 0.5839 0.0
C2062 C 0.12632 0.68372 0.60382 0.0
H2063 H 0.22449 0.6936 0.69354 0.0
H2064 H 0.21363 0.6929 0.66096 0.0
H2065 H 0.05522 0.68354 0.64277 0.0
H2066 H 0.17399 0.6764 0.54509 0.0
H2067 H 0.18434 0.67547 0.5777 0.0
C2068 C 0.88782 0.42991 0.44332 0.0
C2069 C 0.84743 0.43498 0.45089 0.0
C2070 C 0.89344 0.42929 0.4246 0.0
C2071 C 0.91679 0.43346 0.38546 0.0
H2072 H 0.79426 0.43323 0.35429 0.0
C2073 C 0.93206 0.43948 0.30889 0.0
C2074 C 0.89816 0.43487 0.29733 0.0
C2075 C 0.92619 0.43894 0.32759 0.0
C2076 C 0.82894 0.43317 0.36278 0.0
H2077 H 0.78116 0.44336 0.44465 0.0
H2078 H 0.79182 0.44246 0.41209 0.0
H2079 H 0.78273 0.43298 0.3869 0.0
H2080 H 0.83219 0.42592 0.29645 0.0
H2081 H 0.82282 0.42482 0.32909 0.0
H2082 H 0.96302 0.43342 0.36134 0.0
C2083 C 0.81849 0.4388 0.42059 0.0
C2084 C 0.82231 0.43316 0.3815 0.0
C2085 C 0.81259 0.43936 0.4393 0.0
C2086 C 0.85876 0.4296 0.30495 0.0
C2087 C 0.85319 0.42901 0.32368 0.0
C2088 C 0.92343 0.4334 0.36673 0.0
C2089 C 0.85908 0.43378 0.413 0.0
C2090 C 0.86613 0.43339 0.39308 0.0
C2091 C 0.8866 0.43372 0.33523 0.0
C2092 C 0.87959 0.43335 0.35516 0.0
H2093 H 0.91515 0.42639 0.45184 0.0
H2094 H 0.9246 0.42525 0.41922 0.0
H2095 H 0.95145 0.43373 0.39394 0.0
H2096 H 0.9627 0.44363 0.30351 0.0
H2097 H 0.95208 0.44277 0.33605 0.0
C2098 C 0.81586 0.29804 0.30784 0.0
C2099 C 0.85014 0.30255 0.29624 0.0
C2100 C 0.82203 0.29855 0.32654 0.0
C2101 C 0.82599 0.30409 0.3657 0.0
H2102 H 0.96699 0.30403 0.38563 0.0
C2103 C 0.8635 0.30778 0.44217 0.0
C2104 C 0.9033 0.30259 0.44976 0.0
C2105 C 0.85752 0.30831 0.42344 0.0
C2106 C 0.92732 0.30399 0.3803 0.0
H2107 H 0.91717 0.31128 0.2953 0.0
H2108 H 0.92711 0.31232 0.32793 0.0
H2109 H 0.95498 0.30377 0.35305 0.0
H2110 H 0.96809 0.29389 0.44354 0.0
H2111 H 0.95682 0.29465 0.411 0.0
H2112 H 0.79832 0.30394 0.39295 0.0
C2113 C 0.89617 0.30824 0.32254 0.0
C2114 C 0.92043 0.30396 0.36159 0.0
C2115 C 0.89026 0.30768 0.30382 0.0
C2116 C 0.93714 0.29798 0.43818 0.0
C2117 C 0.9309 0.29847 0.41947 0.0
C2118 C 0.83288 0.30406 0.38441 0.0
C2119 C 0.86235 0.30363 0.33414 0.0
C2120 C 0.86967 0.30397 0.35405 0.0
C2121 C 0.89095 0.30362 0.41187 0.0
C2122 C 0.88364 0.30396 0.39195 0.0
H2123 H 0.78464 0.294 0.3025 0.0
H2124 H 0.79579 0.2948 0.33504 0.0
H2125 H 0.78634 0.30422 0.36037 0.0
H2126 H 0.83692 0.31146 0.45067 0.0
H2127 H 0.82687 0.31245 0.41805 0.0
C2128 C 0.64052 0.05767 0.69388 0.0
C2129 C 0.60044 0.05246 0.70124 0.0
C2130 C 0.6468 0.05833 0.67518 0.0
C2131 C 0.57743 0.05436 0.63181 0.0
H2132 H 0.71863 0.05452 0.61205 0.0
C2133 C 0.68897 0.04846 0.55939 0.0
C2134 C 0.6548 0.053 0.54782 0.0
C2135 C 0.68291 0.04897 0.5781 0.0
C2136 C 0.67892 0.05442 0.61733 0.0
H2137 H 0.53549 0.04386 0.69463 0.0
H2138 H 0.54729 0.04484 0.66215 0.0
H2139 H 0.70628 0.05411 0.64463 0.0
H2140 H 0.5882 0.06183 0.54692 0.0
H2141 H 0.57847 0.06287 0.57955 0.0
H2142 H 0.55005 0.05429 0.60452 0.0
C2143 C 0.57319 0.04858 0.67079 0.0
C2144 C 0.67182 0.05431 0.63604 0.0
C2145 C 0.56665 0.04797 0.68946 0.0
C2146 C 0.615 0.05819 0.55542 0.0
C2147 C 0.60922 0.05875 0.57415 0.0
C2148 C 0.58452 0.05442 0.61311 0.0
C2149 C 0.6134 0.05375 0.6634 0.0
C2150 C 0.62098 0.05422 0.64351 0.0
C2151 C 0.64282 0.05409 0.58572 0.0
C2152 C 0.63535 0.05439 0.60563 0.0
H2153 H 0.66707 0.06127 0.70255 0.0
H2154 H 0.67767 0.06248 0.66997 0.0
H2155 H 0.53771 0.05442 0.63709 0.0
H2156 H 0.71995 0.04437 0.55402 0.0
H2157 H 0.709 0.04519 0.58658 0.0
C2158 C 0.61207 0.17959 0.69245 0.0
C2159 C 0.65221 0.18466 0.70018 0.0
C2160 C 0.60642 0.17911 0.67371 0.0
C2161 C 0.67698 0.18346 0.63069 0.0
H2162 H 0.53606 0.18361 0.61069 0.0
C2163 C 0.56585 0.18982 0.55824 0.0
C2164 C 0.59991 0.18529 0.54661 0.0
C2165 C 0.57207 0.18928 0.57694 0.0
C2166 C 0.57571 0.18363 0.61603 0.0
H2167 H 0.71806 0.19318 0.69419 0.0
H2168 H 0.70733 0.19252 0.66162 0.0
H2169 H 0.54793 0.18372 0.64327 0.0
H2170 H 0.66662 0.17649 0.54558 0.0
H2171 H 0.6766 0.17539 0.57819 0.0
H2172 H 0.70476 0.18375 0.60346 0.0
C2173 C 0.68088 0.18875 0.67 0.0
C2174 C 0.58253 0.18356 0.63475 0.0
C2175 C 0.68683 0.18918 0.68872 0.0
C2176 C 0.63989 0.18012 0.55413 0.0
C2177 C 0.64582 0.17952 0.57285 0.0
C2178 C 0.67016 0.18359 0.61197 0.0
C2179 C 0.64047 0.18375 0.66225 0.0
C2180 C 0.63326 0.18352 0.64232 0.0
C2181 C 0.6122 0.18414 0.58449 0.0
C2182 C 0.61943 0.18372 0.60441 0.0
H2183 H 0.58491 0.17597 0.70087 0.0
H2184 H 0.57542 0.17507 0.66821 0.0
H2185 H 0.71661 0.18331 0.63603 0.0
H2186 H 0.53477 0.1939 0.55293 0.0
H2187 H 0.54599 0.19303 0.58547 0.0
C2188 C 0.38537 0.93018 0.44167 0.0
C2189 C 0.34616 0.93549 0.44926 0.0
C2190 C 0.39129 0.92963 0.42295 0.0
C2191 C 0.41675 0.9338 0.38398 0.0
H2192 H 0.29512 0.93449 0.35244 0.0
C2193 C 0.43574 0.93952 0.30735 0.0
C2194 C 0.40094 0.93512 0.29577 0.0
C2195 C 0.42921 0.93911 0.32606 0.0
C2196 C 0.32953 0.93419 0.36103 0.0
H2197 H 0.28229 0.94437 0.44304 0.0
H2198 H 0.29352 0.94358 0.41048 0.0
H2199 H 0.28267 0.93431 0.38501 0.0
H2200 H 0.3326 0.92666 0.29484 0.0
H2201 H 0.32206 0.92578 0.32746 0.0
H2202 H 0.46357 0.93343 0.36002 0.0
C2203 C 0.319 0.93969 0.41897 0.0
C2204 C 0.32239 0.93421 0.37974 0.0
C2205 C 0.31278 0.94019 0.43768 0.0
C2206 C 0.35995 0.93018 0.30335 0.0
C2207 C 0.35369 0.92972 0.32207 0.0
C2208 C 0.42387 0.93371 0.36528 0.0
C2209 C 0.35845 0.93443 0.41137 0.0
C2210 C 0.36592 0.93408 0.39145 0.0
C2211 C 0.38801 0.93423 0.33366 0.0
C2212 C 0.38037 0.93398 0.35357 0.0
H2213 H 0.41154 0.92642 0.45018 0.0
H2214 H 0.42149 0.92539 0.41757 0.0
H2215 H 0.45122 0.9338 0.39257 0.0
H2216 H 0.46761 0.94342 0.302 0.0
H2217 H 0.45589 0.94278 0.33454 0.0
C2218 C 0.43472 0.7986 0.43924 0.0
C2219 C 0.39992 0.80303 0.45079 0.0
C2220 C 0.42835 0.79902 0.42052 0.0
C2221 C 0.42323 0.80437 0.38124 0.0
H2222 H 0.28199 0.8039 0.36153 0.0
C2223 C 0.38453 0.8079 0.30482 0.0
C2224 C 0.34503 0.80263 0.29727 0.0
C2225 C 0.39066 0.80844 0.32354 0.0
C2226 C 0.32173 0.80397 0.36679 0.0
H2227 H 0.33182 0.81153 0.45164 0.0
H2228 H 0.32157 0.81243 0.41902 0.0
H2229 H 0.29445 0.80373 0.39409 0.0
H2230 H 0.28087 0.79382 0.30357 0.0
H2231 H 0.29243 0.7946 0.33611 0.0
H2232 H 0.45055 0.80424 0.35395 0.0
C2233 C 0.35306 0.80847 0.42443 0.0
C2234 C 0.32888 0.804 0.38549 0.0
C2235 C 0.35915 0.80799 0.44316 0.0
C2236 C 0.31159 0.79797 0.30889 0.0
C2237 C 0.318 0.79846 0.3276 0.0
C2238 C 0.41609 0.80428 0.36254 0.0
C2239 C 0.38732 0.80393 0.41288 0.0
C2240 C 0.37973 0.80416 0.39296 0.0
C2241 C 0.35771 0.80369 0.33516 0.0
C2242 C 0.36525 0.80404 0.35507 0.0
H2243 H 0.46644 0.79468 0.44462 0.0
H2244 H 0.455 0.79533 0.41207 0.0
H2245 H 0.46294 0.80462 0.38651 0.0
H2246 H 0.41078 0.81163 0.29628 0.0
H2247 H 0.42108 0.81265 0.32889 0.0
C2248 C 0.68319 0.54813 0.05751 0.0
C2249 C 0.64915 0.55262 0.04579 0.0
C2250 C 0.67646 0.54864 0.07619 0.0
C2251 C 0.57742 0.55412 0.11104 0.0
H2252 H 0.69926 0.55428 0.14252 0.0
C2253 C 0.63469 0.55832 0.19156 0.0
C2254 C 0.59503 0.55316 0.19932 0.0
C2255 C 0.64023 0.55881 0.17282 0.0
C2256 C 0.66475 0.55435 0.13395 0.0
H2257 H 0.58185 0.56129 0.04461 0.0
H2258 H 0.57097 0.56233 0.0772 0.0
H2259 H 0.71152 0.55439 0.10996 0.0
H2260 H 0.52981 0.5445 0.19337 0.0
H2261 H 0.54036 0.54518 0.16078 0.0
H2262 H 0.53065 0.55432 0.13504 0.0
C2263 C 0.60216 0.55826 0.07193 0.0
C2264 C 0.67181 0.55429 0.11525 0.0
C2265 C 0.60861 0.5577 0.05323 0.0
C2266 C 0.56068 0.54857 0.18788 0.0
C2267 C 0.56653 0.549 0.16914 0.0
C2268 C 0.57035 0.55425 0.12975 0.0
C2269 C 0.63583 0.5537 0.08365 0.0
C2270 C 0.62825 0.5541 0.10355 0.0
C2271 C 0.60656 0.55409 0.16138 0.0
C2272 C 0.61394 0.55429 0.14145 0.0
H2273 H 0.71468 0.54411 0.05228 0.0
H2274 H 0.7026 0.54492 0.08478 0.0
H2275 H 0.54295 0.55389 0.10247 0.0
H2276 H 0.6616 0.562 0.19995 0.0
H2277 H 0.67089 0.56291 0.16731 0.0
C2278 C 0.68744 0.68972 0.18862 0.0
C2279 C 0.65344 0.68523 0.20034 0.0
C2280 C 0.6811 0.68912 0.16993 0.0
C2281 C 0.58257 0.68348 0.13509 0.0
H2282 H 0.70442 0.68355 0.10361 0.0
C2283 C 0.63933 0.67978 0.05443 0.0
C2284 C 0.59947 0.68497 0.04688 0.0
C2285 C 0.64523 0.67919 0.07315 0.0
C2286 C 0.66993 0.68341 0.11218 0.0
H2287 H 0.58671 0.67644 0.20153 0.0
H2288 H 0.57646 0.67525 0.16893 0.0
H2289 H 0.71667 0.68334 0.13618 0.0
H2290 H 0.53438 0.6936 0.05319 0.0
H2291 H 0.54552 0.69273 0.08573 0.0
H2292 H 0.53582 0.68333 0.11108 0.0
C2293 C 0.60733 0.67938 0.1742 0.0
C2294 C 0.67697 0.68342 0.13089 0.0
C2295 C 0.61341 0.68003 0.19291 0.0
C2296 C 0.5654 0.6895 0.05851 0.0
C2297 C 0.57156 0.68896 0.07721 0.0
C2298 C 0.57552 0.68341 0.11638 0.0
C2299 C 0.64088 0.68397 0.16248 0.0
C2300 C 0.63339 0.68354 0.14258 0.0
C2301 C 0.61166 0.68382 0.08477 0.0
C2302 C 0.61911 0.68347 0.10469 0.0
H2303 H 0.71857 0.69381 0.19384 0.0
H2304 H 0.70713 0.69285 0.16134 0.0
H2305 H 0.54808 0.68366 0.14366 0.0
H2306 H 0.66607 0.67615 0.04589 0.0
H2307 H 0.67599 0.67506 0.0785 0.0
C2308 C 0.43472 0.44049 0.80933 0.0
C2309 C 0.4016 0.43569 0.79786 0.0
C2310 C 0.42855 0.44007 0.82805 0.0
C2311 C 0.42582 0.43467 0.86734 0.0
H2312 H 0.2849 0.43378 0.88725 0.0
C2313 C 0.38906 0.43057 0.94376 0.0
C2314 C 0.34801 0.43548 0.95139 0.0
C2315 C 0.39523 0.43014 0.92503 0.0
C2316 C 0.32452 0.43409 0.88193 0.0
H2317 H 0.33664 0.42653 0.79714 0.0
H2318 H 0.32676 0.42565 0.82977 0.0
H2319 H 0.29687 0.43412 0.85467 0.0
H2320 H 0.28117 0.44376 0.94525 0.0
H2321 H 0.29271 0.44316 0.9127 0.0
H2322 H 0.45339 0.435 0.8946 0.0
C2323 C 0.35673 0.4299 0.82429 0.0
C2324 C 0.33143 0.43417 0.86322 0.0
C2325 C 0.36262 0.43037 0.80556 0.0
C2326 C 0.31309 0.43988 0.93985 0.0
C2327 C 0.31952 0.4395 0.92115 0.0
C2328 C 0.4189 0.43466 0.88605 0.0
C2329 C 0.3894 0.43479 0.83577 0.0
C2330 C 0.38216 0.43449 0.85569 0.0
C2331 C 0.36074 0.43464 0.9135 0.0
C2332 C 0.36815 0.43441 0.89358 0.0
H2333 H 0.46503 0.44469 0.80388 0.0
H2334 H 0.45387 0.44403 0.83646 0.0
H2335 H 0.46548 0.43481 0.86201 0.0
H2336 H 0.4165 0.42705 0.95223 0.0
H2337 H 0.42689 0.42623 0.9196 0.0
C2338 C 0.32092 0.29827 0.80734 0.0
C2339 C 0.3555 0.3027 0.79573 0.0
C2340 C 0.32723 0.29876 0.82604 0.0
C2341 C 0.33164 0.30434 0.86516 0.0
H2342 H 0.47262 0.30416 0.88512 0.0
C2343 C 0.36874 0.30819 0.94157 0.0
C2344 C 0.40821 0.30297 0.94928 0.0
C2345 C 0.3631 0.3087 0.92284 0.0
C2346 C 0.43296 0.30415 0.87979 0.0
H2347 H 0.42322 0.31129 0.79475 0.0
H2348 H 0.43337 0.31231 0.82735 0.0
H2349 H 0.46062 0.3038 0.85254 0.0
H2350 H 0.47292 0.29423 0.94325 0.0
H2351 H 0.46221 0.29495 0.91067 0.0
H2352 H 0.30395 0.30432 0.89241 0.0
C2353 C 0.40211 0.30829 0.822 0.0
C2354 C 0.42607 0.30406 0.86107 0.0
C2355 C 0.39608 0.30774 0.80328 0.0
C2356 C 0.44221 0.29834 0.9378 0.0
C2357 C 0.43628 0.2988 0.91907 0.0
C2358 C 0.33853 0.30436 0.88388 0.0
C2359 C 0.36798 0.30376 0.83361 0.0
C2360 C 0.37531 0.30412 0.85352 0.0
C2361 C 0.39652 0.30396 0.91135 0.0
C2362 C 0.38927 0.30422 0.89143 0.0
H2363 H 0.28936 0.2943 0.802 0.0
H2364 H 0.30072 0.29507 0.83455 0.0
H2365 H 0.29199 0.30451 0.85983 0.0
H2366 H 0.34208 0.3119 0.95 0.0
H2367 H 0.33264 0.31286 0.91736 0.0
C2368 C 0.29917 0.9619 0.23943 0.0
C2369 C 0.35398 0.96109 0.24143 0.0
C2370 C 0.27498 0.97 0.24073 0.0
C2371 C 0.2936 0.99169 0.26019 0.0
H2372 H 0.17985 -0.00195 0.22787 0.0
C2373 C 0.20325 0.02604 0.25809 0.0
C2374 C 0.1484 0.02671 0.25599 0.0
C2375 C 0.2282 0.01799 0.25684 0.0
C2376 C 0.2111 -0.00369 0.23714 0.0
H2377 H 0.42643 0.96824 0.24605 0.0
H2378 H 0.38395 0.98243 0.24816 0.0
H2379 H 0.22517 0.98423 0.22371 0.0
H2380 H 0.07665 0.01938 0.25135 0.0
H2381 H 0.12038 0.0053 0.24933 0.0
H2382 H 0.27948 0.00378 0.27362 0.0
C2383 C 0.35981 0.97674 0.24578 0.0
C2384 C 0.23715 0.98842 0.23472 0.0
C2385 C 0.38414 0.96862 0.24443 0.0
C2386 C 0.11895 0.01911 0.25302 0.0
C2387 C 0.144 0.01105 0.25173 0.0
C2388 C 0.26754 -0.00041 0.26261 0.0
C2389 C 0.30494 0.97749 0.24408 0.0
C2390 C 0.27858 0.98602 0.24625 0.0
C2391 C 0.19894 0.01043 0.25343 0.0
C2392 C 0.22596 0.00198 0.25112 0.0
H2393 H 0.27459 0.95625 0.23715 0.0
H2394 H 0.23256 0.97036 0.23957 0.0
H2395 H 0.32482 0.98995 0.26946 0.0
H2396 H 0.22728 0.03175 0.26036 0.0
H2397 H 0.27063 0.01774 0.25802 0.0
C2398 C 0.95457 0.27595 0.24016 0.0
C2399 C 0.8996 0.27662 0.24187 0.0
C2400 C 0.97939 0.2679 0.24137 0.0
C2401 C 0.96127 0.246 0.25998 0.0
H2402 H 0.07612 0.23998 0.22785 0.0
C2403 C 0.04941 0.2116 0.25643 0.0
C2404 C 0.10428 0.21082 0.25459 0.0
C2405 C 0.02524 0.21971 0.25541 0.0
C2406 C 0.04458 0.24162 0.23707 0.0
H2407 H 0.82757 0.26928 0.24587 0.0
H2408 H 0.87111 0.25518 0.24781 0.0
H2409 H 0.0311 0.25387 0.22419 0.0
H2410 H 0.17684 0.21801 0.25056 0.0
H2411 H 0.13441 0.23222 0.24895 0.0
H2412 H 0.97471 0.23375 0.27286 0.0
C2413 C 0.89489 0.26094 0.24574 0.0
C2414 C 0.01871 0.24956 0.23494 0.0
C2415 C 0.86996 0.26901 0.2445 0.0
C2416 C 0.13451 0.21837 0.25203 0.0
C2417 C 0.11021 0.2265 0.25098 0.0
C2418 C 0.98715 0.23807 0.26211 0.0
C2419 C 0.9499 0.26031 0.24433 0.0
C2420 C 0.97674 0.25182 0.24636 0.0
C2421 C 0.05528 0.22724 0.25252 0.0
C2422 C 0.029 0.23579 0.25066 0.0
H2423 H 0.97876 0.28167 0.23818 0.0
H2424 H 0.02188 0.26764 0.24043 0.0
H2425 H 0.92967 0.24764 0.26919 0.0
H2426 H 0.02477 0.20593 0.25836 0.0
H2427 H 0.98279 0.22006 0.25643 0.0
C2428 C 0.11898 0.2191 0.99453 0.0
C2429 C 0.14825 0.21142 0.99223 0.0
C2430 C 0.14436 0.22714 0.99562 0.0
C2431 C 0.27298 0.23685 0.00645 0.0
H2432 H 0.2168 0.25711 0.98199 0.0
C2433 C 0.38609 0.26937 0.00114 0.0
C2434 C 0.35654 0.27702 0.00343 0.0
C2435 C 0.36099 0.26131 3e-05 0.0
C2436 C 0.23266 0.25153 0.98906 0.0
H2437 H 0.22722 0.20623 0.98891 0.0
H2438 H 0.27101 0.22023 0.99059 0.0
H2439 H 0.1717 0.24318 0.97923 0.0
H2440 H 0.27737 0.28213 0.00672 0.0
H2441 H 0.23409 0.2681 0.00501 0.0
H2442 H 0.33393 0.2452 0.01629 0.0
C2443 C 0.22858 0.22002 0.99184 0.0
C2444 C 0.20682 0.24356 0.98747 0.0
C2445 C 0.20332 0.21199 0.99075 0.0
C2446 C 0.30149 0.2764 0.00489 0.0
C2447 C 0.27652 0.26835 0.00378 0.0
C2448 C 0.29882 0.24482 0.00804 0.0
C2449 C 0.19946 0.22767 0.99445 0.0
C2450 C 0.22672 0.23614 0.99615 0.0
C2451 C 0.3059 0.26073 0.00116 0.0
C2452 C 0.27887 0.25224 -0.00062 0.0
H2453 H 0.07655 0.2189 0.99579 0.0
H2454 H 0.12092 0.23293 0.9978 0.0
H2455 H 0.28881 0.23127 0.01352 0.0
H2456 H 0.42852 0.26962 -0.0001 0.0
H2457 H 0.38463 0.25554 0.99786 0.0
C2458 C 0.13565 0.01954 0.99607 0.0
C2459 C 0.10522 0.0271 0.99383 0.0
C2460 C 0.11144 0.0114 0.99736 0.0
C2461 C 0.98442 0.00127 0.00879 0.0
H2462 H 0.04141 0.9812 0.98389 0.0
C2463 C 0.87188 0.96881 0.0025 0.0
C2464 C 0.90124 0.96112 0.00455 0.0
C2465 C 0.89714 0.97686 0.00169 0.0
C2466 C 0.02537 0.98672 0.99109 0.0
H2467 H 0.02542 0.03198 0.99083 0.0
H2468 H 0.98369 0.01783 0.99284 0.0
H2469 H 0.08554 -0.00478 0.98123 0.0
H2470 H 0.98025 0.95593 0.00771 0.0
H2471 H 0.02389 0.96996 0.0065 0.0
H2472 H 0.92417 0.99278 0.01861 0.0
C2473 C 0.02612 0.0182 0.99391 0.0
C2474 C 0.05065 -0.00526 0.98956 0.0
C2475 C 0.0502 0.02631 0.99262 0.0
C2476 C 0.9563 0.9617 0.00606 0.0
C2477 C 0.98146 0.96974 0.00525 0.0
C2478 C 0.95915 0.99325 0.01031 0.0
C2479 C 0.05639 0.01067 0.99646 0.0
C2480 C 0.0303 0.00211 0.99834 0.0
C2481 C 0.95223 0.9774 0.0029 0.0
C2482 C 0.97929 0.9859 0.00145 0.0
H2483 H 0.17809 0.0199 0.99713 0.0
H2484 H 0.13575 0.00571 -0.00053 0.0
H2485 H 0.9683 0.0068 0.01595 0.0
H2486 H 0.82945 0.9686 0.00123 0.0
H2487 H 0.87362 0.98265 -0.0003 0.0
C2488 C 0.62056 0.01879 0.75323 0.0
C2489 C 0.64965 0.02647 0.75572 0.0
C2490 C 0.64605 0.01075 0.75222 0.0
C2491 C 0.77502 0.00111 0.7418 0.0
H2492 H 0.71755 0.98072 0.7654 0.0
C2493 C 0.8862 0.96835 0.74587 0.0
C2494 C 0.85612 0.96078 0.74318 0.0
C2495 C 0.86167 0.97645 0.74736 0.0
C2496 C 0.73379 0.98634 0.75858 0.0
H2497 H 0.7284 0.03167 0.75952 0.0
H2498 H 0.7724 0.01769 0.75798 0.0
H2499 H 0.67283 -0.00534 0.76849 0.0
H2500 H 0.77662 0.95587 0.73955 0.0
H2501 H 0.73435 0.96995 0.74189 0.0
H2502 H 0.8359 0.99278 0.73185 0.0
C2503 C 0.73003 0.01789 0.75651 0.0
C2504 C 0.70818 -0.00568 0.76036 0.0
C2505 C 0.70465 0.02591 0.75752 0.0
C2506 C 0.80114 0.96153 0.74169 0.0
C2507 C 0.77674 0.96961 0.74317 0.0
C2508 C 0.80063 0.99313 0.74002 0.0
C2509 C 0.7011 0.01024 0.75368 0.0
C2510 C 0.72846 0.00178 0.75195 0.0
C2511 C 0.80663 0.97714 0.7462 0.0
C2512 C 0.78016 0.98566 0.74833 0.0
H2513 H 0.57819 0.01898 0.75172 0.0
H2514 H 0.62275 0.00497 0.74986 0.0
H2515 H 0.79118 0.00673 0.73495 0.0
H2516 H 0.9286 0.968 0.74716 0.0
H2517 H 0.8857 0.98214 0.74983 0.0
C2518 C 0.05284 0.71149 0.75482 0.0
C2519 C 0.10792 0.71086 0.75349 0.0
C2520 C 0.02793 0.71954 0.75368 0.0
C2521 C 0.05032 0.74306 0.75813 0.0
H2522 H 0.9235 0.74476 0.72918 0.0
C2523 C 0.95492 0.77592 0.74102 0.0
C2524 C 0.89983 0.77648 0.74245 0.0
C2525 C 0.98019 0.7679 0.74207 0.0
C2526 C 0.95854 0.74436 0.73746 0.0
H2527 H 0.18 0.71826 0.75015 0.0
H2528 H 0.13622 0.73234 0.74804 0.0
H2529 H 0.96857 0.73082 0.73188 0.0
H2530 H 0.82813 0.76899 0.7459 0.0
H2531 H 0.87253 0.75496 0.74782 0.0
H2532 H 0.04027 0.7566 0.76371 0.0
C2533 C 0.11251 0.72658 0.75014 0.0
C2534 C 0.98436 0.73639 0.73901 0.0
C2535 C 0.13755 0.71851 0.75129 0.0
C2536 C 0.87057 0.76879 0.74467 0.0
C2537 C 0.89597 0.76075 0.74572 0.0
C2538 C 0.02451 0.75103 0.75658 0.0
C2539 C 0.0574 0.72716 0.75116 0.0
C2540 C 0.03045 0.73565 0.74939 0.0
C2541 C 0.95108 0.76024 0.74458 0.0
C2542 C 0.97834 0.75176 0.74623 0.0
H2543 H 0.02866 0.70575 0.75659 0.0
H2544 H 0.98549 0.71979 0.75483 0.0
H2545 H 0.08533 0.74266 0.76642 0.0
H2546 H 0.97881 0.78168 0.73924 0.0
H2547 H 0.02263 0.76769 0.74085 0.0
C2548 C 0.61992 0.71861 0.99461 0.0
C2549 C 0.64947 0.71096 0.99239 0.0
C2550 C 0.64499 0.72668 0.99555 0.0
C2551 C 0.77323 0.73655 0.00619 0.0
H2552 H 0.7158 0.75672 0.98173 0.0
C2553 C 0.88401 0.76931 0.00119 0.0
C2554 C 0.85385 0.77689 0.00357 0.0
C2555 C 0.85954 0.76119 -7e-05 0.0
C2556 C 0.73201 0.75116 0.98879 0.0
H2557 H 0.7286 0.70584 0.98905 0.0
H2558 H 0.77186 0.71989 0.99047 0.0
H2559 H 0.67154 0.74271 0.97897 0.0
H2560 H 0.77426 0.78182 0.00682 0.0
H2561 H 0.73208 0.76771 0.00485 0.0
H2562 H 0.83364 0.74501 0.01603 0.0
C2563 C 0.72945 0.71963 0.99177 0.0
C2564 C 0.70666 0.74315 0.98721 0.0
C2565 C 0.7045 0.71158 0.99083 0.0
C2566 C 0.79884 0.77614 0.00493 0.0
C2567 C 0.7745 0.76805 0.00367 0.0
C2568 C 0.79858 0.74457 0.00777 0.0
C2569 C 0.70006 0.72726 0.9943 0.0
C2570 C 0.72697 0.73577 0.99591 0.0
C2571 C 0.80449 0.7605 0.00099 0.0
C2572 C 0.77814 0.75196 -0.00087 0.0
H2573 H 0.57751 0.71837 0.99593 0.0
H2574 H 0.62134 0.73245 0.99767 0.0
H2575 H 0.78939 0.731 0.01327 0.0
H2576 H 0.92643 0.76965 1e-05 0.0
H2577 H 0.88365 0.75549 0.99771 0.0
C2578 C 0.1124 0.51899 0.74971 0.0
C2579 C 0.14285 0.52653 0.75211 0.0
C2580 C 0.1366 0.51086 0.74818 0.0
C2581 C 0.26362 0.50077 0.7365 0.0
H2582 H 0.20739 0.48066 0.76144 0.0
C2583 C 0.37807 0.46855 0.74353 0.0
C2584 C 0.34933 0.46079 0.7417 0.0
C2585 C 0.3522 0.47656 0.74399 0.0
C2586 C 0.22319 0.48619 0.75421 0.0
H2587 H 0.22269 0.5314 0.75511 0.0
H2588 H 0.2644 0.51727 0.75268 0.0
H2589 H 0.16272 0.49463 0.76407 0.0
H2590 H 0.27078 0.45541 0.7385 0.0
H2591 H 0.22608 0.46936 0.73911 0.0
H2592 H 0.32424 0.49235 0.72672 0.0
C2593 C 0.22195 0.51764 0.75168 0.0
C2594 C 0.1976 0.49419 0.75572 0.0
C2595 C 0.19789 0.52575 0.75321 0.0
C2596 C 0.29427 0.46124 0.74 0.0
C2597 C 0.26849 0.46924 0.74047 0.0
C2598 C 0.2892 0.49278 0.73499 0.0
C2599 C 0.19166 0.51013 0.74899 0.0
C2600 C 0.21775 0.50157 0.74697 0.0
C2601 C 0.2971 0.47697 0.74264 0.0
C2602 C 0.26938 0.48542 0.7439 0.0
H2603 H 0.06995 0.51936 0.74873 0.0
H2604 H 0.11227 0.50518 0.74598 0.0
H2605 H 0.27958 0.50632 0.72935 0.0
H2606 H 0.42048 0.46845 0.74494 0.0
H2607 H 0.37525 0.48241 0.74586 0.0
C2608 C 0.38282 0.76947 0.50224 0.0
C2609 C 0.35236 0.77699 0.505 0.0
C2610 C 0.35878 0.76133 0.50091 0.0
C2611 C 0.23624 0.74956 0.51165 0.0
H2612 H 0.28124 0.73404 0.47338 0.0
C2613 C 0.1221 0.71833 0.49388 0.0
C2614 C 0.15261 0.71082 0.49118 0.0
C2615 C 0.14609 0.72648 0.49508 0.0
C2616 C 0.26855 0.73827 0.48422 0.0
H2617 H 0.27268 0.78178 0.50884 0.0
H2618 H 0.23112 0.76763 0.50644 0.0
H2619 H 0.32523 0.748 0.47731 0.0
H2620 H 0.23227 0.70604 0.48725 0.0
H2621 H 0.27373 0.72021 0.48943 0.0
H2622 H 0.17959 0.73983 0.51857 0.0
C2623 C 0.27356 0.76802 0.50547 0.0
C2624 C 0.29383 0.74625 0.48651 0.0
C2625 C 0.29749 0.77614 0.50676 0.0
C2626 C 0.20744 0.71167 0.4893 0.0
C2627 C 0.2313 0.71981 0.49046 0.0
C2628 C 0.21097 0.74158 0.50937 0.0
C2629 C 0.30386 0.76054 0.50237 0.0
C2630 C 0.27792 0.75198 0.50024 0.0
C2631 C 0.20098 0.72729 0.49354 0.0
C2632 C 0.22688 0.73586 0.49564 0.0
H2633 H 0.42516 0.76988 0.50083 0.0
H2634 H 0.38317 0.75566 0.49874 0.0
H2635 H 0.22355 0.7538 0.5225 0.0
H2636 H 0.07979 0.71792 0.49537 0.0
H2637 H 0.12166 0.73216 0.49724 0.0
C2638 C 0.86418 0.46867 0.5023 0.0
C2639 C 0.89453 0.46115 0.5052 0.0
C2640 C 0.88829 0.47682 0.50111 0.0
C2641 C 0.01071 0.48852 0.51248 0.0
H2642 H 0.96876 0.50401 0.47375 0.0
C2643 C 0.13053 0.51903 0.49421 0.0
C2644 C 0.10167 0.52669 0.4912 0.0
C2645 C 0.10485 0.51103 0.49557 0.0
C2646 C 0.98057 0.49979 0.48473 0.0
H2647 H 0.97406 0.45636 0.50941 0.0
H2648 H 0.01569 0.47051 0.50725 0.0
H2649 H 0.92313 0.49019 0.47774 0.0
H2650 H 0.02317 0.53189 0.48686 0.0
H2651 H 0.97872 0.51796 0.48931 0.0
H2652 H 0.06823 0.49809 0.51944 0.0
C2653 C 0.97328 0.47012 0.50608 0.0
C2654 C 0.95435 0.49189 0.48704 0.0
C2655 C 0.94932 0.462 0.50722 0.0
C2656 C 0.04675 0.52613 0.48915 0.0
C2657 C 0.02117 0.51814 0.49048 0.0
C2658 C 0.03692 0.49641 0.51016 0.0
C2659 C 0.94314 0.47761 0.50286 0.0
C2660 C 0.96932 0.48616 0.50089 0.0
C2661 C 0.04986 0.51052 0.49391 0.0
C2662 C 0.02226 0.50211 0.49622 0.0
H2663 H 0.82191 0.46826 0.50067 0.0
H2664 H 0.86402 0.4825 0.49881 0.0
H2665 H 0.02263 0.48429 0.52343 0.0
H2666 H 0.17285 0.51921 0.49584 0.0
H2667 H 0.12805 0.50523 0.49797 0.0
C2668 C 0.61543 0.51947 0.25126 0.0
C2669 C 0.64579 0.52705 0.25328 0.0
C2670 C 0.6397 0.51133 0.25017 0.0
C2671 C 0.76666 0.50115 0.23888 0.0
H2672 H 0.70949 0.48119 0.26413 0.0
C2673 C 0.87788 0.46854 0.24497 0.0
C2674 C 0.84803 0.4609 0.243 0.0
C2675 C 0.8531 0.47663 0.2459 0.0
C2676 C 0.72559 0.48669 0.25684 0.0
H2677 H 0.72555 0.53197 0.25609 0.0
H2678 H 0.76743 0.51782 0.25442 0.0
H2679 H 0.66575 0.49525 0.26668 0.0
H2680 H 0.76863 0.45583 0.24013 0.0
H2681 H 0.72584 0.46993 0.24152 0.0
H2682 H 0.82652 0.49259 0.22906 0.0
C2683 C 0.72498 0.51818 0.25338 0.0
C2684 C 0.70054 0.49473 0.2583 0.0
C2685 C 0.70083 0.52629 0.25447 0.0
C2686 C 0.79296 0.46156 0.24171 0.0
C2687 C 0.76829 0.46964 0.24263 0.0
C2688 C 0.79171 0.49311 0.23742 0.0
C2689 C 0.69477 0.51062 0.25106 0.0
C2690 C 0.72089 0.50205 0.24937 0.0
C2691 C 0.79802 0.47726 0.24488 0.0
C2692 C 0.77145 0.4858 0.24639 0.0
H2693 H 0.57298 0.51981 0.25023 0.0
H2694 H 0.61543 0.50562 0.24823 0.0
H2695 H 0.78279 0.50665 0.23161 0.0
H2696 H 0.92034 0.46827 0.24609 0.0
H2697 H 0.87701 0.48239 0.2478 0.0
C2698 C 0.88252 0.26931 0.50218 0.0
C2699 C 0.85327 0.27697 0.50475 0.0
C2700 C 0.85717 0.26128 0.50099 0.0
C2701 C 0.73274 0.25004 0.5117 0.0
H2702 H 0.77651 0.23421 0.47382 0.0
C2703 C 0.61652 0.21888 0.49454 0.0
C2704 C 0.6467 0.21131 0.49199 0.0
C2705 C 0.64087 0.227 0.49563 0.0
C2706 C 0.76413 0.23853 0.48455 0.0
H2707 H 0.77439 0.28213 0.50847 0.0
H2708 H 0.73054 0.26815 0.50631 0.0
H2709 H 0.82192 0.24805 0.47752 0.0
H2710 H 0.72621 0.20642 0.48829 0.0
H2711 H 0.76828 0.22054 0.49029 0.0
H2712 H 0.675 0.24051 0.51875 0.0
C2713 C 0.77304 0.26835 0.50536 0.0
C2714 C 0.79022 0.24644 0.4867 0.0
C2715 C 0.79828 0.27638 0.50651 0.0
C2716 C 0.7016 0.21209 0.49021 0.0
C2717 C 0.72582 0.2202 0.49126 0.0
C2718 C 0.70664 0.24213 0.50955 0.0
C2719 C 0.80213 0.26073 0.5024 0.0
C2720 C 0.77489 0.25227 0.50032 0.0
C2721 C 0.69582 0.22773 0.49413 0.0
C2722 C 0.72218 0.23628 0.49599 0.0
H2723 H 0.92491 0.26953 0.50078 0.0
H2724 H 0.88067 0.25549 0.49893 0.0
H2725 H 0.72042 0.25437 0.52244 0.0
H2726 H 0.57417 0.21852 0.49597 0.0
H2727 H 0.6167 0.23272 0.49765 0.0
C2728 C 0.37129 0.26927 0.74355 0.0
C2729 C 0.40175 0.27679 0.74088 0.0
C2730 C 0.39531 0.26112 0.74468 0.0
C2731 C 0.51792 0.24939 0.73369 0.0
H2732 H 0.47306 0.23375 0.77178 0.0
C2733 C 0.6329 0.21825 0.75158 0.0
C2734 C 0.60263 0.21071 0.75422 0.0
C2735 C 0.60862 0.22637 0.75027 0.0
C2736 C 0.4857 0.23802 0.76098 0.0
H2737 H 0.48139 0.2816 0.73698 0.0
H2738 H 0.52292 0.26743 0.73906 0.0
H2739 H 0.42886 0.2477 0.76799 0.0
H2740 H 0.52305 0.20583 0.75787 0.0
H2741 H 0.48108 0.21996 0.75553 0.0
H2742 H 0.57482 0.23971 0.72671 0.0
C2743 C 0.48049 0.26782 0.7401 0.0
C2744 C 0.4603 0.24599 0.75878 0.0
C2745 C 0.45659 0.27595 0.739 0.0
C2746 C 0.54771 0.21149 0.75588 0.0
C2747 C 0.52355 0.2196 0.75462 0.0
C2748 C 0.54334 0.24142 0.73591 0.0
C2749 C 0.45021 0.26033 0.74312 0.0
C2750 C 0.47617 0.25176 0.74512 0.0
C2751 C 0.55366 0.22712 0.75165 0.0
C2752 C 0.52749 0.23566 0.74958 0.0
H2753 H 0.32898 0.26968 0.74504 0.0
H2754 H 0.37092 0.25544 0.7468 0.0
H2755 H 0.53058 0.25366 0.7229 0.0
H2756 H 0.67527 0.21788 0.75024 0.0
H2757 H 0.63286 0.23208 0.74819 0.0
C2758 C 0.63383 0.01936 0.4958 0.0
C2759 C 0.60415 0.027 0.49359 0.0
C2760 C 0.60887 0.01128 0.49689 0.0
C2761 C 0.48082 0.00139 0.50787 0.0
H2762 H 0.53738 0.98124 0.48316 0.0
C2763 C 0.36781 0.96892 0.50194 0.0
C2764 C 0.3972 0.96124 0.50406 0.0
C2765 C 0.39305 0.97698 0.50103 0.0
C2766 C 0.52144 0.98679 0.4903 0.0
H2767 H 0.52489 0.03209 0.49043 0.0
H2768 H 0.48182 0.01803 0.4921 0.0
H2769 H 0.58209 -0.0048 0.48051 0.0
H2770 H 0.47624 0.95607 0.50725 0.0
H2771 H 0.51982 0.9701 0.50589 0.0
H2772 H 0.42013 0.99298 0.51764 0.0
C2773 C 0.52425 0.0183 0.49328 0.0
C2774 C 0.54705 -0.00522 0.48878 0.0
C2775 C 0.5491 0.02635 0.49219 0.0
C2776 C 0.45226 0.96183 0.50555 0.0
C2777 C 0.47739 0.96987 0.50464 0.0
C2778 C 0.45521 0.9934 0.50939 0.0
C2779 C 0.55378 0.01068 0.49581 0.0
C2780 C 0.52695 0.00217 0.49752 0.0
C2781 C 0.44814 0.97752 0.5022 0.0
C2782 C 0.47525 0.98602 0.50062 0.0
H2783 H 0.67627 0.01961 0.49699 0.0
H2784 H 0.63263 0.00552 0.49899 0.0
H2785 H 0.46485 0.00695 0.51499 0.0
H2786 H 0.32538 0.96871 0.50068 0.0
H2787 H 0.36951 0.98276 0.49898 0.0
C2788 C 0.54928 0.71197 0.25597 0.0
C2789 C 0.60431 0.71136 0.25437 0.0
C2790 C 0.52414 0.71999 0.25473 0.0
C2791 C 0.54622 0.74356 0.25837 0.0
H2792 H 0.41841 0.74501 0.22988 0.0
C2793 C 0.4501 0.77628 0.24086 0.0
C2794 C 0.39508 0.77685 0.24256 0.0
C2795 C 0.4754 0.76826 0.2419 0.0
C2796 C 0.45373 0.74469 0.23803 0.0
H2797 H 0.67607 0.71878 0.25046 0.0
H2798 H 0.6319 0.73282 0.2482 0.0
H2799 H 0.46371 0.73111 0.23284 0.0
H2800 H 0.3235 0.76938 0.2464 0.0
H2801 H 0.36795 0.75535 0.24832 0.0
H2802 H 0.53622 0.75713 0.26357 0.0
C2803 C 0.60841 0.72706 0.25058 0.0
C2804 C 0.47968 0.73673 0.23973 0.0
C2805 C 0.63367 0.71901 0.25182 0.0
C2806 C 0.36589 0.76918 0.24497 0.0
C2807 C 0.39132 0.76114 0.24602 0.0
C2808 C 0.52027 0.75151 0.25667 0.0
C2809 C 0.55333 0.72761 0.25184 0.0
C2810 C 0.52614 0.73608 0.24994 0.0
C2811 C 0.44639 0.76062 0.24468 0.0
C2812 C 0.47377 0.75216 0.24647 0.0
H2813 H 0.52531 0.70623 0.258 0.0
H2814 H 0.48174 0.72023 0.25607 0.0
H2815 H 0.58152 0.74323 0.26653 0.0
H2816 H 0.47394 0.78204 0.23892 0.0
H2817 H 0.51779 0.76805 0.24051 0.0
C2818 C 0.36547 0.46879 0.00308 0.0
C2819 C 0.39537 0.46124 0.00611 0.0
C2820 C 0.39007 0.47689 0.00176 0.0
C2821 C 0.51304 0.48849 0.01279 0.0
H2822 H 0.47122 0.5038 0.97371 0.0
C2823 C 0.63148 0.51917 0.99428 0.0
C2824 C 0.60197 0.52676 0.99119 0.0
C2825 C 0.60648 0.51111 0.99567 0.0
C2826 C 0.48302 0.49962 0.98478 0.0
H2827 H 0.47455 0.45634 0.01052 0.0
H2828 H 0.51705 0.47041 0.00814 0.0
H2829 H 0.42561 0.49 0.97797 0.0
H2830 H 0.52305 0.53176 0.98673 0.0
H2831 H 0.47982 0.51775 0.98924 0.0
H2832 H 0.57048 0.49812 0.01959 0.0
C2833 C 0.47463 0.47008 0.00694 0.0
C2834 C 0.4568 0.49174 0.98725 0.0
C2835 C 0.45017 0.462 0.00821 0.0
C2836 C 0.54713 0.52607 0.98909 0.0
C2837 C 0.52225 0.51802 0.99044 0.0
C2838 C 0.53925 0.49638 0.01032 0.0
C2839 C 0.44495 0.4776 0.00351 0.0
C2840 C 0.47159 0.48609 0.00127 0.0
C2841 C 0.55155 0.51047 0.99394 0.0
C2842 C 0.52454 0.50202 0.99628 0.0
H2843 H 0.3232 0.46844 0.0014 0.0
H2844 H 0.36614 0.4826 -0.00068 0.0
H2845 H 0.52487 0.48432 0.02385 0.0
H2846 H 0.67377 0.51946 0.99596 0.0
H2847 H 0.63013 0.50538 0.99815 0.0
C2848 C 0.18735 0.15036 0.2465 0.0
C2849 C 0.14296 0.15563 0.24901 0.0
C2850 C 0.18241 0.14131 0.24653 0.0
C2851 C 0.09027 0.12364 0.25995 0.0
H2852 H 0.17824 0.10975 0.22836 0.0
C2853 C 0.05905 0.08685 0.24665 0.0
C2854 C 0.10402 0.08173 0.24951 0.0
C2855 C 0.06295 0.09591 0.24646 0.0
C2856 C 0.15356 0.11357 0.23726 0.0
H2857 H 0.05849 0.15565 0.25314 0.0
H2858 H 0.04949 0.13994 0.25247 0.0
H2859 H 0.1867 0.12554 0.22809 0.0
H2860 H 0.1883 0.08202 0.25418 0.0
H2861 H 0.19507 0.09784 0.25346 0.0
H2862 H 0.05625 0.11159 0.26866 0.0
C2863 C 0.08844 0.14271 0.25111 0.0
C2864 C 0.1586 0.1226 0.23723 0.0
C2865 C 0.09353 0.15173 0.25138 0.0
C2866 C 0.15293 0.08581 0.25203 0.0
C2867 C 0.15693 0.09484 0.25151 0.0
C2868 C 0.08466 0.11461 0.25973 0.0
C2869 C 0.13282 0.13737 0.24877 0.0
C2870 C 0.12723 0.12775 0.24866 0.0
C2871 C 0.11199 0.09996 0.24877 0.0
C2872 C 0.1165 0.10952 0.24848 0.0
H2873 H 0.22598 0.15321 0.24476 0.0
H2874 H 0.2176 0.13741 0.24502 0.0
H2875 H 0.06614 0.12736 0.26918 0.0
H2876 H 0.02087 0.08386 0.24471 0.0
H2877 H 0.02782 0.09976 0.24428 0.0
C2878 C 0.15156 0.15229 0.99212 0.0
C2879 C 0.1027 0.15628 0.9952 0.0
C2880 C 0.15593 0.14326 0.99198 0.0
C2881 C 0.08594 0.12325 0.00639 0.0
H2882 H 0.1866 0.11213 0.97449 0.0
C2883 C 0.09429 0.08624 0.99391 0.0
C2884 C 0.14386 0.08238 0.99638 0.0
C2885 C 0.08918 0.09526 0.99364 0.0
C2886 C 0.1586 0.11518 0.98352 0.0
H2887 H 0.01986 0.15398 0.00013 0.0
H2888 H 0.02696 0.13817 -0.00083 0.0
H2889 H 0.17601 0.12788 0.97357 0.0
H2890 H 0.22706 0.08488 0.0002 0.0
H2891 H 0.21813 0.10075 -0.00072 0.0
H2892 H 0.06757 0.11043 0.01585 0.0
C2893 C 0.06229 0.14201 0.99743 0.0
C2894 C 0.1526 0.12419 0.98309 0.0
C2895 C 0.05808 0.15107 0.99787 0.0
C2896 C 0.18838 0.0877 0.99834 0.0
C2897 C 0.18335 0.09674 0.99773 0.0
C2898 C 0.09134 0.11422 0.00659 0.0
C2899 C 0.11138 0.13799 0.9946 0.0
C2900 C 0.11645 0.12836 0.99462 0.0
C2901 C 0.13364 0.10058 0.99552 0.0
C2902 C 0.12793 0.11013 0.99524 0.0
H2903 H 0.18678 0.15615 0.9902 0.0
H2904 H 0.19455 0.14042 0.99015 0.0
H2905 H 0.05847 0.12622 0.01571 0.0
H2906 H 0.05924 0.08229 0.99244 0.0
H2907 H 0.05053 0.09809 0.99181 0.0
C2908 C 0.93971 0.90018 0.74726 0.0
C2909 C 0.89531 0.90552 0.74514 0.0
C2910 C 0.93459 0.89114 0.74671 0.0
C2911 C 0.84227 0.87373 0.75557 0.0
H2912 H 0.92739 0.85993 0.72294 0.0
C2913 C 0.80935 0.83684 0.74755 0.0
C2914 C 0.85405 0.83163 0.74504 0.0
C2915 C 0.81347 0.84589 0.74693 0.0
C2916 C 0.90384 0.86366 0.73235 0.0
H2917 H 0.8108 0.90562 0.74093 0.0
H2918 H 0.80191 0.88982 0.74038 0.0
H2919 H 0.93801 0.87569 0.7236 0.0
H2920 H 0.93818 0.83176 0.74015 0.0
H2921 H 0.9458 0.84748 0.7398 0.0
H2922 H 0.80925 0.86177 0.76485 0.0
C2923 C 0.84055 0.89265 0.74231 0.0
C2924 C 0.90986 0.87268 0.73263 0.0
C2925 C 0.84576 0.90167 0.74253 0.0
C2926 C 0.9029 0.83562 0.74195 0.0
C2927 C 0.90719 0.84465 0.74163 0.0
C2928 C 0.83685 0.8647 0.75552 0.0
C2929 C 0.88489 0.88732 0.74438 0.0
C2930 C 0.87904 0.87778 0.74421 0.0
C2931 C 0.86255 0.84991 0.74407 0.0
C2932 C 0.86755 0.85954 0.7439 0.0
H2933 H 0.97837 0.90299 0.74924 0.0
H2934 H 0.96927 0.88713 0.7484 0.0
H2935 H 0.81837 0.87755 0.76472 0.0
H2936 H 0.77113 0.83392 0.74982 0.0
H2937 H 0.77808 0.84973 0.74854 0.0
C2938 C 0.80978 0.90087 0.99767 0.0
C2939 C 0.8547 0.90603 0.0003 0.0
C2940 C 0.81374 0.89181 0.99793 0.0
C2941 C 0.90474 0.87417 0.98926 0.0
H2942 H 0.81731 0.86043 0.02128 0.0
C2943 C 0.9384 0.83739 0.99833 0.0
C2944 C 0.89391 0.83211 0.00064 0.0
C2945 C 0.93359 0.84644 -0.00139 0.0
C2946 C 0.84147 0.86414 0.01203 0.0
H2947 H 0.93894 0.90581 0.0051 0.0
H2948 H 0.94582 0.88999 0.00515 0.0
H2949 H 0.80721 0.8762 0.02057 0.0
H2950 H 0.80947 0.83211 0.00483 0.0
H2951 H 0.80071 0.84782 0.00461 0.0
H2952 H 0.93804 0.86219 0.98024 0.0
C2953 C 0.90766 0.89296 0.00304 0.0
C2954 C 0.83574 0.87316 0.01171 0.0
C2955 C 0.90359 0.90199 0.00311 0.0
C2956 C 0.84457 0.83602 0.00319 0.0
C2957 C 0.83962 0.84505 0.00317 0.0
C2958 C 0.9099 0.86514 0.98934 0.0
C2959 C 0.86281 0.8878 0.00047 0.0
C2960 C 0.86756 0.87824 0.0004 0.0
C2961 C 0.88405 0.85038 0.00092 0.0
C2962 C 0.87852 0.86 0.0008 0.0
H2963 H 0.77161 0.90383 0.99553 0.0
H2964 H 0.77868 0.88793 0.99587 0.0
H2965 H 0.92938 0.87797 0.98031 0.0
H2966 H 0.97698 0.83454 0.99648 0.0
H2967 H 0.96883 0.85033 0.99717 0.0
C2968 C 0.15456 0.58564 0.75352 0.0
C2969 C 0.105 0.58183 0.75081 0.0
C2970 C 0.16012 0.59466 0.75363 0.0
C2971 C 0.09163 0.61489 0.73968 0.0
H2972 H 0.19477 0.62573 0.77105 0.0
C2973 C 0.10133 0.65176 0.7529 0.0
C2974 C 0.15074 0.65566 0.75027 0.0
C2975 C 0.09635 0.64274 0.75296 0.0
C2976 C 0.16612 0.62276 0.76215 0.0
H2977 H 0.02217 0.58442 0.74652 0.0
H2978 H 0.03139 0.60019 0.74741 0.0
H2979 H 0.18321 0.60999 0.77184 0.0
H2980 H 0.23379 0.65321 0.74597 0.0
H2981 H 0.22508 0.63733 0.74651 0.0
H2982 H 0.07355 0.62775 0.7305 0.0
C2983 C 0.06633 0.59623 0.74889 0.0
C2984 C 0.15955 0.61375 0.76252 0.0
C2985 C 0.06091 0.58719 0.74849 0.0
C2986 C 0.19524 0.65037 0.74796 0.0
C2987 C 0.19034 0.64131 0.74835 0.0
C2988 C 0.09764 0.6239 0.73954 0.0
C2989 C 0.1161 0.60008 0.75132 0.0
C2990 C 0.12234 0.60969 0.75123 0.0
C2991 C 0.14076 0.63745 0.7507 0.0
C2992 C 0.13502 0.6279 0.75073 0.0
H2993 H 0.18938 0.58166 0.75518 0.0
H2994 H 0.19919 0.59736 0.75517 0.0
H2995 H 0.0634 0.61199 0.73053 0.0
H2996 H 0.06629 0.65568 0.75466 0.0
H2997 H 0.0578 0.63989 0.75493 0.0
C2998 C 0.16409 0.65168 0.4943 0.0
C2999 C 0.11478 0.65562 0.49671 0.0
C3000 C 0.16893 0.64266 0.49456 0.0
C3001 C 0.09804 0.62261 0.50848 0.0
H3002 H 0.20014 0.61147 0.47716 0.0
C3003 C 0.10183 0.58582 0.49381 0.0
C3004 C 0.15039 0.58166 0.49656 0.0
C3005 C 0.0984 0.59486 0.49419 0.0
C3006 C 0.17179 0.61452 0.48606 0.0
H3007 H 0.03169 0.65325 0.50096 0.0
H3008 H 0.03963 0.63746 0.50066 0.0
H3009 H 0.19096 0.62725 0.4766 0.0
H3010 H 0.23355 0.58367 0.50157 0.0
H3011 H 0.22762 0.59958 0.50175 0.0
H3012 H 0.07773 0.60978 0.51735 0.0
C3013 C 0.07493 0.64132 0.49915 0.0
C3014 C 0.16659 0.62356 0.48582 0.0
C3015 C 0.07025 0.65037 0.4992 0.0
C3016 C 0.19563 0.58671 0.49947 0.0
C3017 C 0.19232 0.59578 0.49951 0.0
C3018 C 0.10265 0.61357 0.50846 0.0
C3019 C 0.12441 0.63735 0.49691 0.0
C3020 C 0.1297 0.62772 0.49706 0.0
C3021 C 0.14358 0.59991 0.497 0.0
C3022 C 0.13959 0.60947 0.49727 0.0
H3023 H 0.19922 0.65558 0.49254 0.0
H3024 H 0.2078 0.63986 0.49317 0.0
H3025 H 0.07001 0.62559 0.51759 0.0
H3026 H 0.06626 0.58208 0.49161 0.0
H3027 H 0.0605 0.59792 0.4921 0.0
C3028 C 0.81097 0.33694 0.24852 0.0
C3029 C 0.85586 0.33176 0.246 0.0
C3030 C 0.81506 0.346 0.24826 0.0
C3031 C 0.90586 0.36364 0.25714 0.0
H3032 H 0.81831 0.37736 0.22513 0.0
C3033 C 0.93685 0.40056 0.24895 0.0
C3034 C 0.89195 0.40573 0.2466 0.0
C3035 C 0.93287 0.3915 0.24846 0.0
C3036 C 0.84251 0.37365 0.23438 0.0
H3037 H 0.94018 0.33195 0.24139 0.0
H3038 H 0.94729 0.34778 0.24135 0.0
H3039 H 0.80893 0.36158 0.22562 0.0
H3040 H 0.80762 0.40555 0.24216 0.0
H3041 H 0.80028 0.38982 0.24205 0.0
H3042 H 0.93839 0.37563 0.26641 0.0
C3043 C 0.90906 0.34482 0.24337 0.0
C3044 C 0.83721 0.36462 0.23456 0.0
C3045 C 0.90486 0.33578 0.2433 0.0
C3046 C 0.84303 0.40171 0.24383 0.0
C3047 C 0.8389 0.39268 0.24365 0.0
C3048 C 0.91058 0.37268 0.2572 0.0
C3049 C 0.86422 0.34999 0.24582 0.0
C3050 C 0.86899 0.35955 0.24589 0.0
C3051 C 0.88376 0.38744 0.24591 0.0
C3052 C 0.87907 0.37781 0.24577 0.0
H3053 H 0.77271 0.334 0.25057 0.0
H3054 H 0.78 0.34989 0.25024 0.0
H3055 H 0.93048 0.35984 0.2661 0.0
H3056 H 0.97512 0.4035 0.25097 0.0
H3057 H 0.96842 0.38769 0.24992 0.0
C3058 C 0.85068 0.33609 0.50181 0.0
C3059 C 0.8996 0.33202 0.49923 0.0
C3060 C 0.8467 0.34512 0.50157 0.0
C3061 C 0.91852 0.36487 0.51044 0.0
H3062 H 0.81668 0.37591 0.47888 0.0
C3063 C 0.90788 0.40207 0.50305 0.0
C3064 C 0.85831 0.4059 0.50055 0.0
C3065 C 0.91347 0.39305 0.50266 0.0
C3066 C 0.84471 0.37294 0.488 0.0
H3067 H 0.98282 0.33419 0.49464 0.0
H3068 H 0.9759 0.35009 0.49469 0.0
H3069 H 0.82573 0.36012 0.47871 0.0
H3070 H 0.77552 0.40336 0.49603 0.0
H3071 H 0.78477 0.38758 0.49609 0.0
H3072 H 0.93635 0.37758 0.52031 0.0
C3073 C 0.94075 0.34623 0.4967 0.0
C3074 C 0.8501 0.36391 0.48778 0.0
C3075 C 0.94463 0.33716 0.49661 0.0
C3076 C 0.81427 0.40056 0.49787 0.0
C3077 C 0.81971 0.39153 0.49778 0.0
C3078 C 0.91255 0.37389 0.51091 0.0
C3079 C 0.89166 0.35026 0.49906 0.0
C3080 C 0.88705 0.35982 0.49898 0.0
C3081 C 0.86947 0.38766 0.50006 0.0
C3082 C 0.8756 0.37805 0.49967 0.0
H3083 H 0.81526 0.33229 0.50378 0.0
H3084 H 0.80852 0.34811 0.50354 0.0
H3085 H 0.94686 0.36182 0.51935 0.0
H3086 H 0.94265 0.40603 0.50496 0.0
H3087 H 0.95253 0.39034 0.5041 0.0
C3088 C 0.65206 0.08558 0.75475 0.0
C3089 C 0.60326 0.08156 0.75175 0.0
C3090 C 0.65632 0.09461 0.75472 0.0
C3091 C 0.58601 0.11456 0.74008 0.0
H3092 H 0.68616 0.12578 0.77204 0.0
C3093 C 0.59293 0.15156 0.7529 0.0
C3094 C 0.64235 0.15548 0.7505 0.0
C3095 C 0.58817 0.14253 0.753 0.0
C3096 C 0.65831 0.1227 0.76298 0.0
H3097 H 0.52041 0.0838 0.74672 0.0
H3098 H 0.5273 0.09962 0.74738 0.0
H3099 H 0.67603 0.11002 0.77298 0.0
H3100 H 0.72562 0.15309 0.74658 0.0
H3101 H 0.7173 0.13721 0.74721 0.0
H3102 H 0.56727 0.12735 0.7306 0.0
C3103 C 0.56268 0.0958 0.74921 0.0
C3104 C 0.65258 0.11368 0.76344 0.0
C3105 C 0.55859 0.08674 0.74894 0.0
C3106 C 0.68705 0.15022 0.7484 0.0
C3107 C 0.68237 0.14117 0.74883 0.0
C3108 C 0.59114 0.12359 0.73987 0.0
C3109 C 0.61169 0.09985 0.752 0.0
C3110 C 0.6166 0.10948 0.7519 0.0
C3111 C 0.63283 0.13727 0.75102 0.0
C3112 C 0.62752 0.12772 0.75124 0.0
H3113 H 0.68732 0.08174 0.75676 0.0
H3114 H 0.69489 0.09747 0.75651 0.0
H3115 H 0.55865 0.11156 0.73077 0.0
H3116 H 0.55775 0.15546 0.75448 0.0
H3117 H 0.54963 0.13965 0.75482 0.0
C3118 C 0.56368 0.1508 0.49913 0.0
C3119 C 0.60804 0.15607 0.49652 0.0
C3120 C 0.56849 0.14175 0.49892 0.0
C3121 C 0.66012 0.12403 0.48518 0.0
H3122 H 0.57348 0.11023 0.51736 0.0
C3123 C 0.69302 0.08736 0.49972 0.0
C3124 C 0.64815 0.08216 0.49733 0.0
C3125 C 0.6888 0.09642 0.49939 0.0
C3126 C 0.59775 0.11402 0.50828 0.0
H3127 H 0.6923 0.15608 0.49192 0.0
H3128 H 0.70111 0.14036 0.49227 0.0
H3129 H 0.56471 0.12601 0.51737 0.0
H3130 H 0.56374 0.08231 0.4929 0.0
H3131 H 0.55642 0.09812 0.49274 0.0
H3132 H 0.69417 0.11197 0.47658 0.0
C3133 C 0.66226 0.14314 0.49388 0.0
C3134 C 0.59253 0.12306 0.50816 0.0
C3135 C 0.65728 0.15216 0.49378 0.0
C3136 C 0.59905 0.08616 0.4947 0.0
C3137 C 0.59473 0.09519 0.4947 0.0
C3138 C 0.66593 0.11501 0.48553 0.0
C3139 C 0.61794 0.1378 0.4964 0.0
C3140 C 0.62348 0.12818 0.49654 0.0
C3141 C 0.63954 0.10039 0.49702 0.0
C3142 C 0.63458 0.10994 0.49701 0.0
H3143 H 0.52517 0.15366 0.50114 0.0
H3144 H 0.53332 0.13786 0.50056 0.0
H3145 H 0.68392 0.12773 0.4758 0.0
H3146 H 0.73135 0.08443 0.50171 0.0
H3147 H 0.72383 0.10033 0.50126 0.0
C3148 C 0.43628 0.90057 0.24853 0.0
C3149 C 0.39195 0.90587 0.24596 0.0
C3150 C 0.43121 0.89152 0.24839 0.0
C3151 C 0.3387 0.87413 0.2574 0.0
H3152 H 0.42514 0.86019 0.22546 0.0
C3153 C 0.30562 0.83721 0.24941 0.0
C3154 C 0.35028 0.83198 0.24702 0.0
C3155 C 0.30999 0.84627 0.24895 0.0
C3156 C 0.40124 0.86395 0.23469 0.0
H3157 H 0.30758 0.90592 0.24142 0.0
H3158 H 0.29876 0.89011 0.2416 0.0
H3159 H 0.43572 0.87594 0.22585 0.0
H3160 H 0.43465 0.83207 0.24265 0.0
H3161 H 0.44268 0.84779 0.24258 0.0
H3162 H 0.30528 0.86221 0.26675 0.0
C3163 C 0.33732 0.89296 0.24356 0.0
C3164 C 0.40723 0.87297 0.23482 0.0
C3165 C 0.34248 0.90199 0.24336 0.0
C3166 C 0.3994 0.83595 0.24432 0.0
C3167 C 0.40392 0.84497 0.24417 0.0
C3168 C 0.3333 0.8651 0.25752 0.0
C3169 C 0.38162 0.88767 0.24603 0.0
C3170 C 0.37592 0.87812 0.24613 0.0
C3171 C 0.35929 0.85026 0.24639 0.0
C3172 C 0.36446 0.85989 0.24614 0.0
H3173 H 0.47487 0.90341 0.2505 0.0
H3174 H 0.46587 0.88754 0.25039 0.0
H3175 H 0.31441 0.878 0.26635 0.0
H3176 H 0.26721 0.83431 0.2514 0.0
H3177 H 0.27462 0.85013 0.25041 0.0
C3178 C 0.30597 0.901 0.49674 0.0
C3179 C 0.35103 0.90615 0.4992 0.0
C3180 C 0.30983 0.89194 0.49699 0.0
C3181 C 0.40037 0.87423 0.48819 0.0
H3182 H 0.31373 0.86063 0.52072 0.0
C3183 C 0.43457 0.83751 0.49802 0.0
C3184 C 0.39025 0.83222 0.50064 0.0
C3185 C 0.42961 0.84655 0.49805 0.0
C3186 C 0.33765 0.8643 0.51132 0.0
H3187 H 0.43542 0.9059 0.50366 0.0
H3188 H 0.44212 0.89008 0.5037 0.0
H3189 H 0.30368 0.87639 0.51976 0.0
H3190 H 0.30592 0.8322 0.50508 0.0
H3191 H 0.29688 0.84792 0.50442 0.0
H3192 H 0.43341 0.8622 0.47928 0.0
C3193 C 0.40393 0.89306 0.50172 0.0
C3194 C 0.33195 0.87332 0.51086 0.0
C3195 C 0.39997 0.90209 0.5018 0.0
C3196 C 0.3409 0.83613 0.50321 0.0
C3197 C 0.33579 0.84515 0.50294 0.0
C3198 C 0.40549 0.86519 0.48841 0.0
C3199 C 0.35893 0.88791 0.49935 0.0
C3200 C 0.36351 0.87835 0.49938 0.0
C3201 C 0.38007 0.85049 0.50039 0.0
C3202 C 0.37442 0.86011 0.50007 0.0
H3203 H 0.26776 0.90397 0.49476 0.0
H3204 H 0.27465 0.88807 0.49509 0.0
H3205 H 0.42481 0.87799 0.4791 0.0
H3206 H 0.47316 0.83466 0.49613 0.0
H3207 H 0.46475 0.85045 0.49639 0.0
C3208 C 0.69254 0.65095 0.24849 0.0
C3209 C 0.64812 0.65619 0.25124 0.0
C3210 C 0.68802 0.64189 0.24881 0.0
C3211 C 0.59724 0.62412 0.26301 0.0
H3212 H 0.68201 0.61037 0.23016 0.0
C3213 C 0.56159 0.5876 0.24792 0.0
C3214 C 0.60619 0.5823 0.24993 0.0
C3215 C 0.56649 0.59665 0.24842 0.0
C3216 C 0.65829 0.61415 0.23944 0.0
H3217 H 0.56405 0.65612 0.25626 0.0
H3218 H 0.55573 0.64041 0.25611 0.0
H3219 H 0.69127 0.62615 0.23035 0.0
H3220 H 0.69082 0.58227 0.25384 0.0
H3221 H 0.69932 0.59807 0.25429 0.0
H3222 H 0.56317 0.61206 0.27159 0.0
C3223 C 0.59443 0.64321 0.2543 0.0
C3224 C 0.66379 0.62318 0.23967 0.0
C3225 C 0.59912 0.65224 0.25428 0.0
C3226 C 0.65572 0.58619 0.25233 0.0
C3227 C 0.66069 0.59522 0.25249 0.0
C3228 C 0.59114 0.61511 0.26255 0.0
C3229 C 0.6388 0.63791 0.25161 0.0
C3230 C 0.63342 0.62829 0.25149 0.0
C3231 C 0.61616 0.60051 0.25058 0.0
C3232 C 0.62175 0.61006 0.25081 0.0
H3233 H 0.73087 0.65384 0.24625 0.0
H3234 H 0.72321 0.63803 0.24701 0.0
H3235 H 0.57393 0.62781 0.27255 0.0
H3236 H 0.52295 0.58476 0.24611 0.0
H3237 H 0.53165 0.60064 0.24686 0.0
C3238 C 0.65451 0.65184 0.99382 0.0
C3239 C 0.60541 0.65581 0.99648 0.0
C3240 C 0.65901 0.64281 0.99377 0.0
C3241 C 0.58809 0.62274 0.00738 0.0
H3242 H 0.69033 0.61175 0.97588 0.0
C3243 C 0.59528 0.58587 0.99326 0.0
C3244 C 0.6444 0.58189 0.99598 0.0
C3245 C 0.59075 0.5949 0.99346 0.0
C3246 C 0.66191 0.61476 0.98481 0.0
H3247 H 0.52231 0.6535 0.00083 0.0
H3248 H 0.52965 0.63769 -1e-05 0.0
H3249 H 0.6803 0.62751 0.97534 0.0
H3250 H 0.7274 0.58419 0.00073 0.0
H3251 H 0.71953 0.60008 0.00059 0.0
H3252 H 0.56866 0.60988 0.0163 0.0
C3253 C 0.56505 0.64153 -0.00149 0.0
C3254 C 0.65622 0.62378 0.98459 0.0
C3255 C 0.56071 0.65059 -0.00112 0.0
C3256 C 0.68906 0.5871 -0.00134 0.0
C3257 C 0.68464 0.59616 -0.00149 0.0
C3258 C 0.59319 0.61371 0.00735 0.0
C3259 C 0.61434 0.63753 0.99604 0.0
C3260 C 0.61944 0.6279 0.99595 0.0
C3261 C 0.63537 0.60011 0.99604 0.0
C3262 C 0.63029 0.60966 0.99613 0.0
H3263 H 0.68978 0.65571 0.99213 0.0
H3264 H 0.69776 0.63999 0.99223 0.0
H3265 H 0.5601 0.62567 0.01656 0.0
H3266 H 0.56013 0.58201 0.99124 0.0
H3267 H 0.55244 0.59782 0.9914 0.0
C3268 C 0.44606 0.4009 0.75184 0.0
C3269 C 0.40045 0.40591 0.74931 0.0
C3270 C 0.44312 0.39183 0.75181 0.0
C3271 C 0.35452 0.37386 0.76086 0.0
H3272 H 0.44078 0.36054 0.72774 0.0
C3273 C 0.32028 0.33725 0.74979 0.0
C3274 C 0.36447 0.33198 0.74681 0.0
C3275 C 0.32537 0.34629 0.75016 0.0
C3276 C 0.41702 0.36413 0.7373 0.0
H3277 H 0.31602 0.4054 0.74504 0.0
H3278 H 0.31093 0.38956 0.74539 0.0
H3279 H 0.45017 0.3763 0.729 0.0
H3280 H 0.44871 0.33198 0.74216 0.0
H3281 H 0.45798 0.34768 0.74351 0.0
H3282 H 0.32219 0.36176 0.76959 0.0
C3283 C 0.34884 0.39266 0.74724 0.0
C3284 C 0.42235 0.37315 0.73795 0.0
C3285 C 0.35187 0.4017 0.74694 0.0
C3286 C 0.41382 0.33589 0.74429 0.0
C3287 C 0.41907 0.34491 0.74497 0.0
C3288 C 0.34977 0.36483 0.76045 0.0
C3289 C 0.3944 0.38765 0.74962 0.0
C3290 C 0.3908 0.37809 0.74961 0.0
C3291 C 0.37491 0.35023 0.74787 0.0
C3292 C 0.38063 0.35984 0.74855 0.0
H3293 H 0.484 0.40399 0.75365 0.0
H3294 H 0.47873 0.38807 0.7537 0.0
H3295 H 0.3301 0.37755 0.77008 0.0
H3296 H 0.28169 0.33439 0.75163 0.0
H3297 H 0.29031 0.35018 0.75207 0.0
C3298 C 0.31186 0.40077 0.99802 0.0
C3299 C 0.35618 0.40606 0.00075 0.0
C3300 C 0.31688 0.39172 0.99803 0.0
C3301 C 0.40967 0.37435 0.98908 0.0
H3302 H 0.32275 0.36033 0.02075 0.0
C3303 C 0.444 0.33748 0.99736 0.0
C3304 C 0.39951 0.3322 -0.00039 0.0
C3305 C 0.43919 0.34653 0.99775 0.0
C3306 C 0.34679 0.36412 0.0116 0.0
H3307 H 0.44049 0.40608 0.00543 0.0
H3308 H 0.44922 0.39028 0.00506 0.0
H3309 H 0.31182 0.37607 0.02035 0.0
H3310 H 0.315 0.33218 0.00366 0.0
H3311 H 0.30624 0.34789 0.00362 0.0
H3312 H 0.44366 0.36245 0.97984 0.0
C3313 C 0.41071 0.39314 0.00306 0.0
C3314 C 0.34059 0.37313 0.01146 0.0
C3315 C 0.40559 0.40216 0.00337 0.0
C3316 C 0.35013 0.3361 0.0021 0.0
C3317 C 0.34517 0.34512 0.00219 0.0
C3318 C 0.41531 0.36532 0.98898 0.0
C3319 C 0.36642 0.38785 0.00043 0.0
C3320 C 0.37211 0.37831 0.00026 0.0
C3321 C 0.38963 0.35046 0.0001 0.0
C3322 C 0.38402 0.36009 0.00028 0.0
H3323 H 0.27332 0.40362 0.99601 0.0
H3324 H 0.28224 0.38775 0.99593 0.0
H3325 H 0.43414 0.37823 0.98023 0.0
H3326 H 0.4826 0.33463 0.99553 0.0
H3327 H 0.47442 0.35043 0.99641 0.0
C3328 C 0.93253 0.04042 0.3077 0.0
C3329 C 0.9878 0.04058 0.30727 0.0
C3330 C 0.90578 0.03985 0.32414 0.0
C3331 C 0.92287 0.04436 0.37256 0.0
H3332 H 0.79829 0.03005 0.37801 0.0
C3333 C 0.82044 0.04023 0.44132 0.0
C3334 C 0.76522 0.04065 0.44143 0.0
C3335 C 0.84789 0.03964 0.42503 0.0
C3336 C 0.83275 0.03414 0.37665 0.0
H3337 H 0.05835 0.04012 0.32375 0.0
H3338 H 0.01162 0.03905 0.3524 0.0
H3339 H 0.84587 0.03005 0.34937 0.0
H3340 H 0.69545 0.04065 0.42455 0.0
H3341 H 0.74346 0.03971 0.39611 0.0
H3342 H 0.90958 0.04854 0.39971 0.0
C3343 C 0.98898 0.03947 0.34004 0.0
C3344 C 0.86 0.03413 0.36025 0.0
C3345 C 0.01574 0.04002 0.3236 0.0
C3346 C 0.738 0.04031 0.42493 0.0
C3347 C 0.7655 0.03973 0.40863 0.0
C3348 C 0.89562 0.04438 0.38892 0.0
C3349 C 0.93371 0.03945 0.3405 0.0
C3350 C 0.90531 0.03926 0.35802 0.0
C3351 C 0.82079 0.03947 0.40849 0.0
C3352 C 0.85019 0.03928 0.39116 0.0
H3353 H 0.90982 0.04086 0.29535 0.0
H3354 H 0.86318 0.03995 0.32405 0.0
H3355 H 0.95709 0.04851 0.37117 0.0
H3356 H 0.84261 0.04043 0.4538 0.0
H3357 H 0.89043 0.03931 0.42541 0.0
C3358 C 0.23423 0.19731 0.32276 0.0
C3359 C 0.26232 0.19671 0.30646 0.0
C3360 C 0.26087 0.19793 0.33921 0.0
C3361 C 0.38958 0.20345 0.35939 0.0
H3362 H 0.3408 0.18908 0.39903 0.0
C3363 C 0.51272 0.1975 0.42386 0.0
C3364 C 0.48586 0.19715 0.44043 0.0
C3365 C 0.48486 0.19803 0.40762 0.0
C3366 C 0.35452 0.19323 0.3882 0.0
H3367 H 0.3404 0.19643 0.29462 0.0
H3368 H 0.38679 0.19746 0.32335 0.0
H3369 H 0.29304 0.18901 0.37053 0.0
H3370 H 0.40871 0.19726 0.45298 0.0
H3371 H 0.36026 0.19829 0.42469 0.0
H3372 H 0.45129 0.20762 0.37706 0.0
C3373 C 0.34419 0.19753 0.32339 0.0
C3374 C 0.32713 0.19318 0.37185 0.0
C3375 C 0.31758 0.19689 0.30694 0.0
C3376 C 0.43061 0.19748 0.44044 0.0
C3377 C 0.4028 0.19802 0.42422 0.0
C3378 C 0.41695 0.2035 0.37577 0.0
C3379 C 0.31614 0.19798 0.33972 0.0
C3380 C 0.34446 0.19826 0.35724 0.0
C3381 C 0.42956 0.19821 0.40761 0.0
C3382 C 0.39984 0.19836 0.39033 0.0
H3383 H 0.19163 0.19719 0.32286 0.0
H3384 H 0.23814 0.19837 0.35155 0.0
H3385 H 0.40351 0.20752 0.34846 0.0
H3386 H 0.55527 0.19722 0.42338 0.0
H3387 H 0.50666 0.19806 0.39505 0.0
C3388 C 0.81532 0.19723 0.80738 0.0
C3389 C 0.76006 0.19704 0.80685 0.0
C3390 C 0.8418 0.19804 0.82382 0.0
C3391 C 0.82438 0.19415 0.87241 0.0
H3392 H 0.9492 0.20847 0.87707 0.0
C3393 C 0.92925 0.19855 0.94068 0.0
C3394 C 0.98445 0.19806 0.94053 0.0
C3395 C 0.90115 0.19914 0.92453 0.0
C3396 C 0.91465 0.20439 0.87593 0.0
H3397 H 0.68924 0.1977 0.82315 0.0
H3398 H 0.73553 0.19919 0.85183 0.0
H3399 H 0.90116 0.20823 0.84852 0.0
H3400 H 0.05351 0.19794 0.92331 0.0
H3401 H 0.00437 0.19887 0.8951 0.0
H3402 H 0.83812 0.1902 0.89969 0.0
C3403 C 0.75835 0.19861 0.83954 0.0
C3404 C 0.88713 0.20425 0.85959 0.0
C3405 C 0.73184 0.19782 0.82309 0.0
C3406 C 0.011 0.19834 0.92389 0.0
C3407 C 0.98285 0.19892 0.90773 0.0
C3408 C 0.85189 0.19427 0.88872 0.0
C3409 C 0.81362 0.19867 0.8401 0.0
C3410 C 0.84184 0.1991 0.85763 0.0
C3411 C 0.92757 0.19923 0.90785 0.0
C3412 C 0.89749 0.19936 0.89065 0.0
H3413 H 0.83825 0.19664 0.79511 0.0
H3414 H 0.8844 0.19796 0.82381 0.0
H3415 H 0.79013 0.19 0.87124 0.0
H3416 H 0.9076 0.1984 0.95328 0.0
H3417 H 0.85864 0.19951 0.92511 0.0
C3418 C 0.23295 0.03988 0.92442 0.0
C3419 C 0.26146 0.04069 0.9406 0.0
C3420 C 0.25916 0.03906 0.90793 0.0
C3421 C 0.38769 0.03344 0.88767 0.0
H3422 H 0.33816 0.04746 0.8476 0.0
C3423 C 0.51145 0.03949 0.82346 0.0
C3424 C 0.48502 0.03977 0.8068 0.0
C3425 C 0.4832 0.03887 0.8396 0.0
C3426 C 0.35207 0.0434 0.85856 0.0
H3427 H 0.33986 0.04115 0.95217 0.0
H3428 H 0.38548 0.03979 0.92338 0.0
H3429 H 0.29035 0.04764 0.87609 0.0
H3430 H 0.40827 0.0394 0.79398 0.0
H3431 H 0.35913 0.03821 0.82211 0.0
H3432 H 0.44973 0.02925 0.87015 0.0
C3433 C 0.34289 0.03969 0.92346 0.0
C3434 C 0.32465 0.04351 0.87489 0.0
C3435 C 0.31671 0.04053 0.93995 0.0
C3436 C 0.42983 0.03925 0.8066 0.0
C3437 C 0.40162 0.03861 0.82273 0.0
C3438 C 0.4151 0.03332 0.87131 0.0
C3439 C 0.31442 0.03902 0.90725 0.0
C3440 C 0.34235 0.03858 0.88967 0.0
C3441 C 0.42794 0.03852 0.83942 0.0
C3442 C 0.39779 0.03834 0.8566 0.0
H3443 H 0.19034 0.03998 0.92445 0.0
H3444 H 0.23613 0.03846 0.89568 0.0
H3445 H 0.40189 0.02948 0.89874 0.0
H3446 H 0.55394 0.03992 0.82408 0.0
H3447 H 0.50465 0.03892 0.85223 0.0
C3448 C 0.18007 0.94817 0.55579 0.0
C3449 C 0.23524 0.9476 0.55571 0.0
C3450 C 0.15256 0.94877 0.57207 0.0
C3451 C 0.16814 0.95396 0.62061 0.0
H3452 H 0.04226 0.93993 0.62573 0.0
C3453 C 0.06914 0.94725 0.68947 0.0
C3454 C 0.01387 0.94723 0.69007 0.0
C3455 C 0.0955 0.94795 0.67298 0.0
C3456 C 0.07692 0.94398 0.62445 0.0
H3457 H 0.30486 0.94731 0.57266 0.0
H3458 H 0.25676 0.94825 0.60107 0.0
H3459 H 0.08956 0.93998 0.59715 0.0
H3460 H 0.94294 0.94806 0.67385 0.0
H3461 H 0.98903 0.94935 0.6451 0.0
H3462 H 0.15572 0.95787 0.64805 0.0
C3463 C 0.23481 0.94836 0.58854 0.0
C3464 C 0.10404 0.94401 0.60806 0.0
C3465 C 0.26237 0.94778 0.57225 0.0
C3466 C 0.98555 0.94805 0.67386 0.0
C3467 C 0.01194 0.94873 0.65737 0.0
C3468 C 0.14102 0.95392 0.63704 0.0
C3469 C 0.17956 0.94879 0.58864 0.0
C3470 C 0.15008 0.94898 0.60596 0.0
C3471 C 0.0672 0.94861 0.65673 0.0
C3472 C 0.09521 0.94891 0.63915 0.0
H3473 H 0.15799 0.9481 0.54328 0.0
H3474 H 0.11007 0.94923 0.57166 0.0
H3475 H 0.20306 0.95795 0.61936 0.0
H3476 H 0.09214 0.94661 0.70171 0.0
H3477 H 0.13809 0.94774 0.67292 0.0
C3478 C 0.76204 0.78956 0.67416 0.0
C3479 C 0.73558 0.78983 0.69082 0.0
C3480 C 0.73381 0.789 0.65801 0.0
C3481 C 0.60271 0.79366 0.63908 0.0
H3482 H 0.65188 0.77974 0.5988 0.0
C3483 C 0.48209 0.79005 0.57358 0.0
C3484 C 0.5101 0.79083 0.55729 0.0
C3485 C 0.5088 0.78929 0.58999 0.0
C3486 C 0.63787 0.78371 0.60989 0.0
H3487 H 0.65878 0.7895 0.7036 0.0
H3488 H 0.60968 0.78842 0.67545 0.0
H3489 H 0.70008 0.7795 0.62732 0.0
H3490 H 0.58814 0.79127 0.54544 0.0
H3491 H 0.63465 0.78999 0.57409 0.0
H3492 H 0.54079 0.79792 0.62165 0.0
C3493 C 0.65219 0.78878 0.67485 0.0
C3494 C 0.66549 0.78357 0.62622 0.0
C3495 C 0.68037 0.78936 0.69099 0.0
C3496 C 0.56537 0.79068 0.55775 0.0
C3497 C 0.59206 0.78989 0.57416 0.0
C3498 C 0.57509 0.79378 0.62278 0.0
C3499 C 0.67852 0.7887 0.65816 0.0
C3500 C 0.64837 0.78858 0.64097 0.0
C3501 C 0.56408 0.78926 0.59048 0.0
C3502 C 0.5925 0.78885 0.60797 0.0
H3503 H 0.80454 0.78996 0.67356 0.0
H3504 H 0.75528 0.78906 0.64538 0.0
H3505 H 0.58896 0.79771 0.65006 0.0
H3506 H 0.43949 0.79014 0.5737 0.0
H3507 H 0.48613 0.78871 0.60232 0.0
C3508 C 0.1772 0.78999 0.19099 0.0
C3509 C 0.2324 0.7905 0.19102 0.0
C3510 C 0.14954 0.78936 0.17475 0.0
C3511 C 0.1647 0.78393 0.12629 0.0
H3512 H 0.03936 0.79806 0.1209 0.0
C3513 C 0.06635 0.79048 0.05728 0.0
C3514 C 0.01109 0.79056 0.05662 0.0
C3515 C 0.09256 0.78982 0.0738 0.0
C3516 C 0.07386 0.79398 0.12226 0.0
H3517 H 0.3019 0.79064 0.17401 0.0
H3518 H 0.25356 0.78964 0.14566 0.0
H3519 H 0.08664 0.79809 0.14949 0.0
H3520 H 0.94001 0.78987 0.07278 0.0
H3521 H 0.98582 0.78865 0.1016 0.0
H3522 H 0.15216 0.77992 0.09893 0.0
C3523 C 0.23169 0.7896 0.15821 0.0
C3524 C 0.10097 0.79399 0.13866 0.0
C3525 C 0.25938 0.79022 0.17446 0.0
C3526 C 0.98262 0.78983 0.07281 0.0
C3527 C 0.00885 0.78919 0.08934 0.0
C3528 C 0.13759 0.78393 0.10986 0.0
C3529 C 0.17641 0.78924 0.15816 0.0
C3530 C 0.14684 0.789 0.14085 0.0
C3531 C 0.06411 0.78925 0.09003 0.0
C3532 C 0.092 0.78898 0.10765 0.0
H3533 H 0.15521 0.79015 0.20352 0.0
H3534 H 0.10703 0.78896 0.17519 0.0
H3535 H 0.19946 0.77991 0.12762 0.0
H3536 H 0.08947 0.79105 0.04504 0.0
H3537 H 0.13515 0.78998 0.07389 0.0
C3538 C 0.76427 0.9479 0.07244 0.0
C3539 C 0.73763 0.94768 0.05582 0.0
C3540 C 0.73624 0.94849 0.08863 0.0
C3541 C 0.60506 0.94404 0.1077 0.0
H3542 H 0.65519 0.95794 0.14787 0.0
C3543 C 0.48465 0.94798 0.17312 0.0
C3544 C 0.51254 0.94719 0.18942 0.0
C3545 C 0.51146 0.94867 0.15672 0.0
C3546 C 0.64092 0.95398 0.13681 0.0
H3547 H 0.66073 0.94814 0.04312 0.0
H3548 H 0.61198 0.94928 0.07133 0.0
H3549 H 0.70332 0.95807 0.11933 0.0
H3550 H 0.5905 0.94665 0.20132 0.0
H3551 H 0.6372 0.94779 0.17268 0.0
H3552 H 0.54294 0.93991 0.12517 0.0
C3553 C 0.65446 0.94885 0.07188 0.0
C3554 C 0.66849 0.95405 0.12047 0.0
C3555 C 0.68245 0.94824 0.0557 0.0
C3556 C 0.56782 0.94725 0.189 0.0
C3557 C 0.59462 0.94796 0.1726 0.0
C3558 C 0.57749 0.94399 0.124 0.0
C3559 C 0.68097 0.94888 0.08854 0.0
C3560 C 0.65099 0.94905 0.10576 0.0
C3561 C 0.56674 0.9486 0.15626 0.0
C3562 C 0.59522 0.94892 0.13877 0.0
H3563 H 0.80676 0.94744 0.073 0.0
H3564 H 0.75782 0.9484 0.10124 0.0
H3565 H 0.59102 0.94 0.09674 0.0
H3566 H 0.44204 0.94796 0.17297 0.0
H3567 H 0.48888 0.94926 0.14437 0.0
C3568 C 0.01535 0.53927 0.82201 0.0
C3569 C 0.98673 0.54004 0.80585 0.0
C3570 C 0.98925 0.5386 0.83856 0.0
C3571 C 0.86058 0.53337 0.85917 0.0
H3572 H 0.91144 0.54763 0.89866 0.0
C3573 C 0.738 0.54002 0.92338 0.0
C3574 C 0.76466 0.54038 0.93999 0.0
C3575 C 0.766 0.5393 0.90721 0.0
C3576 C 0.89715 0.54351 0.88787 0.0
H3577 H 0.90826 0.54055 0.79435 0.0
H3578 H 0.86283 0.53943 0.82323 0.0
H3579 H 0.95893 0.5475 0.87011 0.0
H3580 H 0.84158 0.54004 0.95269 0.0
H3581 H 0.8903 0.53866 0.92451 0.0
H3582 H 0.79851 0.52943 0.87692 0.0
C3583 C 0.90541 0.53927 0.8231 0.0
C3584 C 0.92438 0.54343 0.8715 0.0
C3585 C 0.93148 0.53996 0.80656 0.0
C3586 C 0.81984 0.53984 0.94011 0.0
C3587 C 0.84781 0.53909 0.92395 0.0
C3588 C 0.83336 0.53343 0.87557 0.0
C3589 C 0.934 0.53866 0.8393 0.0
C3590 C 0.90622 0.53841 0.85693 0.0
C3591 C 0.82126 0.53889 0.9073 0.0
C3592 C 0.85115 0.53854 0.89008 0.0
H3593 H 0.05796 0.53931 0.82194 0.0
H3594 H 0.01236 0.53804 0.85079 0.0
H3595 H 0.84601 0.52934 0.84827 0.0
H3596 H 0.69551 0.54047 0.92282 0.0
H3597 H 0.74437 0.53928 0.89461 0.0
C3598 C 0.23768 0.69802 0.82256 0.0
C3599 C 0.26619 0.69734 0.80636 0.0
C3600 C 0.26388 0.69868 0.83909 0.0
C3601 C 0.39239 0.70408 0.85964 0.0
H3602 H 0.34202 0.6898 0.89918 0.0
C3603 C 0.51441 0.69775 0.92418 0.0
C3604 C 0.48741 0.69741 0.94073 0.0
C3605 C 0.48671 0.6984 0.90793 0.0
C3606 C 0.35618 0.69393 0.88837 0.0
H3607 H 0.34459 0.69697 0.79478 0.0
H3608 H 0.39021 0.69807 0.82364 0.0
H3609 H 0.29474 0.68982 0.87059 0.0
H3610 H 0.41022 0.6977 0.95323 0.0
H3611 H 0.36203 0.69893 0.92492 0.0
H3612 H 0.45412 0.70813 0.87742 0.0
C3613 C 0.34762 0.69817 0.82355 0.0
C3614 C 0.32907 0.69393 0.87197 0.0
C3615 C 0.32145 0.69749 0.80702 0.0
C3616 C 0.43221 0.6979 0.9407 0.0
C3617 C 0.40455 0.69856 0.92447 0.0
C3618 C 0.41951 0.70408 0.87606 0.0
C3619 C 0.31914 0.6987 0.83978 0.0
C3620 C 0.347 0.69897 0.85739 0.0
C3621 C 0.43143 0.69872 0.90788 0.0
C3622 C 0.40185 0.69897 0.89059 0.0
H3623 H 0.19507 0.69793 0.82253 0.0
H3624 H 0.24083 0.69918 0.85135 0.0
H3625 H 0.4068 0.70812 0.84872 0.0
H3626 H 0.55693 0.69735 0.92373 0.0
H3627 H 0.50858 0.6984 0.89538 0.0
C3628 C 0.02196 0.69744 0.42317 0.0
C3629 C 0.99419 0.69673 0.43951 0.0
C3630 C 0.99501 0.69817 0.40679 0.0
C3631 C 0.86581 0.70377 0.38706 0.0
H3632 H 0.91408 0.6897 0.34689 0.0
C3633 C 0.74137 0.69806 0.32277 0.0
C3634 C 0.76787 0.69779 0.30612 0.0
C3635 C 0.76958 0.69857 0.33894 0.0
C3636 C 0.9005 0.69377 0.35788 0.0
H3637 H 0.91632 0.69635 0.45151 0.0
H3638 H 0.86939 0.69755 0.42292 0.0
H3639 H 0.96242 0.68947 0.37527 0.0
H3640 H 0.84472 0.69806 0.29336 0.0
H3641 H 0.89378 0.69905 0.32153 0.0
H3642 H 0.80363 0.70803 0.36966 0.0
C3643 C 0.91199 0.69764 0.42278 0.0
C3644 C 0.92822 0.69364 0.37415 0.0
C3645 C 0.93891 0.6969 0.43916 0.0
C3646 C 0.8231 0.69821 0.30597 0.0
C3647 C 0.85126 0.69873 0.32212 0.0
C3648 C 0.83809 0.70392 0.37075 0.0
C3649 C 0.93973 0.69821 0.40641 0.0
C3650 C 0.91107 0.6986 0.38895 0.0
C3651 C 0.82488 0.69882 0.3388 0.0
C3652 C 0.85501 0.69889 0.356 0.0
H3653 H 0.06456 0.69734 0.42297 0.0
H3654 H 0.01751 0.6987 0.39442 0.0
H3655 H 0.85201 0.70776 0.39814 0.0
H3656 H 0.69885 0.69771 0.32336 0.0
H3657 H 0.74808 0.69852 0.35156 0.0
C3658 C 0.51777 0.54007 0.32247 0.0
C3659 C 0.48924 0.54081 0.30628 0.0
C3660 C 0.4916 0.53933 0.33899 0.0
C3661 C 0.36308 0.53379 0.35937 0.0
H3662 H 0.41304 0.54786 0.3993 0.0
C3663 C 0.23999 0.53985 0.42372 0.0
C3664 C 0.26658 0.5401 0.44035 0.0
C3665 C 0.26807 0.53926 0.40754 0.0
C3666 C 0.399 0.54378 0.38838 0.0
H3667 H 0.41081 0.54124 0.29473 0.0
H3668 H 0.36524 0.54001 0.32356 0.0
H3669 H 0.4606 0.548 0.37075 0.0
H3670 H 0.34346 0.53975 0.45307 0.0
H3671 H 0.39233 0.53862 0.42487 0.0
H3672 H 0.30119 0.52964 0.37697 0.0
C3673 C 0.40784 0.53991 0.32346 0.0
C3674 C 0.42628 0.54387 0.37201 0.0
C3675 C 0.43399 0.54066 0.30695 0.0
C3676 C 0.32178 0.5396 0.44048 0.0
C3677 C 0.34983 0.53901 0.42431 0.0
C3678 C 0.33582 0.53369 0.37576 0.0
C3679 C 0.43634 0.5393 0.33968 0.0
C3680 C 0.40845 0.53892 0.35728 0.0
C3681 C 0.32334 0.53892 0.40764 0.0
C3682 C 0.35329 0.53874 0.39042 0.0
H3683 H 0.56038 0.54015 0.32242 0.0
H3684 H 0.51466 0.53878 0.35123 0.0
H3685 H 0.34878 0.52981 0.34835 0.0
H3686 H 0.19749 0.54026 0.42314 0.0
H3687 H 0.24649 0.53932 0.39493 0.0
C3688 C 0.06521 0.44787 0.19129 0.0
C3689 C 0.01003 0.44733 0.19118 0.0
C3690 C 0.09317 0.44852 0.17512 0.0
C3691 C 0.07934 0.4539 0.12664 0.0
H3692 H 0.20464 0.43972 0.12178 0.0
C3693 C 0.18064 0.44737 0.05811 0.0
C3694 C 0.23592 0.44728 0.05776 0.0
C3695 C 0.15366 0.44803 0.07448 0.0
C3696 C 0.17017 0.44381 0.123 0.0
H3697 H 0.94085 0.44717 0.17402 0.0
H3698 H 0.98977 0.44821 0.14577 0.0
H3699 H 0.15632 0.4397 0.15016 0.0
H3700 H 0.30625 0.44794 0.07432 0.0
H3701 H 0.25909 0.44915 0.10288 0.0
H3702 H 0.09298 0.45792 0.09934 0.0
C3703 C 0.01137 0.44825 0.15838 0.0
C3704 C 0.14245 0.4438 0.13927 0.0
C3705 C 0.98334 0.44762 0.17457 0.0
C3706 C 0.26364 0.44799 0.07412 0.0
C3707 C 0.23664 0.44863 0.09049 0.0
C3708 C 0.10706 0.4539 0.11033 0.0
C3709 C 0.06663 0.44862 0.15847 0.0
C3710 C 0.09663 0.44883 0.14127 0.0
C3711 C 0.18136 0.44858 0.09087 0.0
C3712 C 0.15269 0.44883 0.10832 0.0
H3713 H 0.08697 0.44772 0.20386 0.0
H3714 H 0.13567 0.44893 0.17567 0.0
H3715 H 0.04459 0.45793 0.12783 0.0
H3716 H 0.15809 0.44682 0.04575 0.0
H3717 H 0.11107 0.44788 0.07434 0.0
C3718 C 0.76469 0.28992 0.17352 0.0
C3719 C 0.73778 0.29025 0.19008 0.0
C3720 C 0.73689 0.2893 0.15729 0.0
C3721 C 0.60633 0.29386 0.13786 0.0
H3722 H 0.65625 0.27967 0.09811 0.0
C3723 C 0.487 0.28986 0.07222 0.0
C3724 C 0.51534 0.29054 0.05598 0.0
C3725 C 0.51339 0.28918 0.0887 0.0
C3726 C 0.64204 0.28371 0.10905 0.0
H3727 H 0.66065 0.28996 0.20263 0.0
H3728 H 0.6123 0.28878 0.17435 0.0
H3729 H 0.70387 0.27961 0.12675 0.0
H3730 H 0.59361 0.29088 0.04429 0.0
H3731 H 0.63955 0.28975 0.07307 0.0
H3732 H 0.5448 0.29802 0.12017 0.0
C3733 C 0.65482 0.28914 0.17388 0.0
C3734 C 0.66933 0.28368 0.12544 0.0
C3735 C 0.68258 0.28978 0.1901 0.0
C3736 C 0.5706 0.29036 0.05656 0.0
C3737 C 0.59696 0.28966 0.07304 0.0
C3738 C 0.57905 0.29388 0.1215 0.0
C3739 C 0.68161 0.28899 0.15728 0.0
C3740 C 0.6519 0.28879 0.14001 0.0
C3741 C 0.56866 0.28914 0.08931 0.0
C3742 C 0.59673 0.28884 0.10688 0.0
H3743 H 0.80721 0.29031 0.17304 0.0
H3744 H 0.75868 0.28931 0.14472 0.0
H3745 H 0.59236 0.29798 0.1487 0.0
H3746 H 0.4444 0.28998 0.07224 0.0
H3747 H 0.49048 0.28868 0.10099 0.0
C3748 C 0.07189 0.29008 0.55584 0.0
C3749 C 0.01672 0.29065 0.55597 0.0
C3750 C 0.09993 0.28949 0.572 0.0
C3751 C 0.08611 0.28428 0.62057 0.0
H3752 H 0.21189 0.29837 0.62521 0.0
C3753 C 0.1877 0.29088 0.68902 0.0
C3754 C 0.24299 0.29092 0.68936 0.0
C3755 C 0.16069 0.29023 0.67265 0.0
C3756 C 0.17727 0.2943 0.62406 0.0
H3757 H 0.94765 0.29093 0.57317 0.0
H3758 H 0.9967 0.28999 0.6014 0.0
H3759 H 0.16352 0.29834 0.59684 0.0
H3760 H 0.31327 0.29018 0.6728 0.0
H3761 H 0.26606 0.28897 0.64426 0.0
H3762 H 0.09966 0.28033 0.64792 0.0
C3763 C 0.01823 0.28988 0.58879 0.0
C3764 C 0.14953 0.29428 0.60779 0.0
C3765 C 0.99013 0.29046 0.5726 0.0
C3766 C 0.27067 0.29017 0.67301 0.0
C3767 C 0.24364 0.28953 0.65664 0.0
C3768 C 0.11386 0.28431 0.63687 0.0
C3769 C 0.07348 0.28947 0.58867 0.0
C3770 C 0.10354 0.28929 0.60587 0.0
C3771 C 0.18836 0.28962 0.65626 0.0
C3772 C 0.15965 0.28935 0.63881 0.0
H3773 H 0.09358 0.29016 0.54324 0.0
H3774 H 0.14241 0.28904 0.57143 0.0
H3775 H 0.05123 0.28027 0.61945 0.0
H3776 H 0.16518 0.29147 0.70138 0.0
H3777 H 0.11811 0.29041 0.67279 0.0
C3778 C 0.48644 0.44722 0.67463 0.0
C3779 C 0.51333 0.44714 0.69122 0.0
C3780 C 0.5142 0.4478 0.65839 0.0
C3781 C 0.64543 0.44365 0.63912 0.0
H3782 H 0.59375 0.45745 0.59904 0.0
C3783 C 0.76485 0.4479 0.57357 0.0
C3784 C 0.73685 0.44708 0.5573 0.0
C3785 C 0.73814 0.44851 0.59001 0.0
C3786 C 0.60845 0.45352 0.61007 0.0
H3787 H 0.59036 0.44782 0.70378 0.0
H3788 H 0.63863 0.44894 0.67547 0.0
H3789 H 0.54591 0.45745 0.62763 0.0
H3790 H 0.65882 0.44638 0.54549 0.0
H3791 H 0.61232 0.44738 0.57418 0.0
H3792 H 0.7077 0.43966 0.62156 0.0
C3793 C 0.59617 0.44841 0.675 0.0
C3794 C 0.58105 0.45351 0.62643 0.0
C3795 C 0.56846 0.44781 0.69123 0.0
C3796 C 0.68157 0.44702 0.55778 0.0
C3797 C 0.65489 0.44765 0.57422 0.0
C3798 C 0.67283 0.44366 0.62278 0.0
C3799 C 0.56942 0.44833 0.65838 0.0
C3800 C 0.59913 0.44855 0.64112 0.0
C3801 C 0.68288 0.44832 0.59053 0.0
C3802 C 0.65454 0.44856 0.60805 0.0
H3803 H 0.44398 0.44667 0.67415 0.0
H3804 H 0.49246 0.44762 0.64582 0.0
H3805 H 0.65993 0.43964 0.65006 0.0
H3806 H 0.80745 0.44797 0.57367 0.0
H3807 H 0.76081 0.44914 0.60233 0.0
loop_
_geom_bond_atom_site_label_1
_geom_bond_atom_site_label_2
_geom_bond_distance
_geom_bond_site_symmetry_2
_ccdc_geom_bond_type
Co0 O2 2.143 . S
Co0 O8 2.074 . S
Co0 O11 2.093 . S
Co0 O24 2.097 . S
Co0 N41 2.151 . S
Co0 N49 2.214 . S
Co1 O2 2.160 . S
Co1 O7 2.058 . S
Co1 O17 2.057 1_455 S
Co1 O32 2.037 . S
Co1 N36 2.145 1_455 S
Co1 N57 2.257 1_455 S
O2 Co0 2.143 . S
O2 Co1 2.160 . S
C3 O4 1.278 . S
C3 O11 1.224 . S
O4 C3 1.278 . S
C5 O6 1.245 1_655 S
C5 O17 1.232 . S
O6 C5 1.245 1_455 S
O7 Co1 2.058 . S
O7 C33 1.269 . S
O8 Co0 2.074 . S
O8 C33 1.257 . S
H9 C34 0.930 . S
H10 C40 0.930 . S
O11 Co0 2.093 . S
O11 C3 1.224 . S
H12 C44 0.929 . S
H13 C46 0.930 . S
H14 C47 0.930 . S
H15 C45 0.929 . S
H16 C48 0.928 . S
O17 Co1 2.057 1_655 S
O17 C5 1.232 . S
H18 C37 0.931 . S
H19 C38 0.929 . S
H20 C50 0.931 . S
H21 C42 0.929 . S
H22 C51 0.930 . S
H23 C43 0.931 . S
O24 Co0 2.097 . S
O24 C52 1.214 . S
H25 C53 0.929 . S
H26 C54 0.929 . S
H27 C55 0.930 . S
H28 C56 0.929 . S
H29 C58 0.930 . S
H30 C35 0.930 . S
H31 C39 0.930 . S
O32 Co1 2.037 . S
O32 C52 1.234 . S
C33 O7 1.269 . S
C33 O8 1.257 . S
C34 H9 0.930 . S
C34 C37 1.388 . S
C34 C39 1.418 . S
C35 H30 0.930 . S
C35 C38 1.404 . S
C35 C39 1.353 . S
N36 Co1 2.145 1_655 S
N36 C37 1.397 . S
N36 C38 1.334 . S
C37 H18 0.931 . S
C37 C34 1.388 . S
C37 N36 1.397 . S
C38 H19 0.929 . S
C38 C35 1.404 . S
C38 N36 1.334 . S
C39 H31 0.930 . S
C39 C34 1.418 . S
C39 C35 1.353 . S
C40 H10 0.930 . S
C40 N41 1.330 . S
C40 C42 1.446 . S
N41 Co0 2.151 . S
N41 C40 1.330 . S
N41 C45 1.418 . S
C42 H21 0.929 . S
C42 C40 1.446 . S
C42 C43 1.332 . S
C43 H23 0.931 . S
C43 C42 1.332 . S
C43 C44 1.267 . S
C44 H12 0.929 . S
C44 C43 1.267 . S
C44 C45 1.251 . S
C45 H15 0.929 . S
C45 N41 1.418 . S
C45 C44 1.251 . S
C46 H13 0.930 . S
C46 C48 1.406 . S
C46 C51 1.261 . S
C47 H14 0.930 . S
C47 N49 1.325 . S
C47 C50 1.357 . S
C48 H16 0.928 . S
C48 C46 1.406 . S
C48 N49 1.261 . S
N49 Co0 2.214 . S
N49 C47 1.325 . S
N49 C48 1.261 . S
C50 H20 0.931 . S
C50 C47 1.357 . S
C50 C51 1.312 . S
C51 H22 0.930 . S
C51 C46 1.261 . S
C51 C50 1.312 . S
C52 O24 1.214 . S
C52 O32 1.234 . S
C53 H25 0.929 . S
C53 C56 1.391 . S
C53 C58 1.391 . S
C54 H26 0.929 . S
C54 C55 1.390 . S
C54 N57 1.391 . S
C55 H27 0.930 . S
C55 C54 1.390 . S
C55 C56 1.392 . S
C56 H28 0.929 . S
C56 C53 1.391 . S
C56 C55 1.392 . S
N57 Co1 2.257 1_655 S
N57 C54 1.391 . S
N57 C58 1.388 . S
C58 H29 0.930 . S
C58 C53 1.391 . S
C58 N57 1.388 . S
Co59 O61 2.143 . S
Co59 O67 2.074 . S
Co59 O70 2.093 . S
Co59 O83 2.097 . S
Co59 N100 2.151 . S
Co59 N108 2.214 . S
Co60 O61 2.160 . S
Co60 O66 2.058 . S
Co60 O76 2.057 . S
Co60 O91 2.037 . S
Co60 N95 2.145 . S
Co60 N116 2.257 . S
O61 Co59 2.143 . S
O61 Co60 2.160 . S
C62 O63 1.278 . S
C62 O70 1.224 . S
O63 C62 1.278 . S
C64 O65 1.245 . S
C64 O76 1.232 . S
O65 C64 1.245 . S
O66 Co60 2.058 . S
O66 C92 1.269 . S
O67 Co59 2.074 . S
O67 C92 1.257 . S
H68 C93 0.930 . S
H69 C99 0.930 . S
O70 Co59 2.093 . S
O70 C62 1.224 . S
H71 C103 0.929 . S
H72 C105 0.930 . S
H73 C106 0.930 . S
H74 C104 0.929 . S
H75 C107 0.927 1_455 S
O76 Co60 2.057 . S
O76 C64 1.232 . S
H77 C96 0.929 . S
H78 C97 0.929 . S
H79 C109 0.931 . S
H80 C101 0.929 . S
H81 C110 0.930 . S
H82 C102 0.944 . S
O83 Co59 2.097 . S
O83 C111 1.214 . S
H84 C112 0.929 . S
H85 C113 0.929 . S
H86 C114 0.930 . S
H87 C115 0.929 . S
H88 C117 0.930 . S
H89 C94 0.930 . S
H90 C98 0.930 . S
O91 Co60 2.037 . S
O91 C111 1.234 . S
C92 O66 1.269 . S
C92 O67 1.257 . S
C93 H68 0.930 . S
C93 C96 1.388 . S
C93 C98 1.418 . S
C94 H89 0.930 . S
C94 C97 1.404 . S
C94 C98 1.353 . S
N95 Co60 2.145 . S
N95 C96 1.397 . S
N95 C97 1.334 . S
C96 H77 0.929 . S
C96 C93 1.388 . S
C96 N95 1.397 . S
C97 H78 0.929 . S
C97 C94 1.404 . S
C97 N95 1.334 . S
C98 H90 0.930 . S
C98 C93 1.418 . S
C98 C94 1.353 . S
C99 H69 0.930 . S
C99 N100 1.330 . S
C99 C101 1.446 . S
N100 Co59 2.151 . S
N100 C99 1.330 . S
N100 C104 1.418 . S
C101 H80 0.929 . S
C101 C99 1.446 . S
C101 C102 1.315 1_455 S
C102 H82 0.944 . S
C102 C101 1.315 1_655 S
C102 C103 1.270 . S
C103 H71 0.929 . S
C103 C102 1.270 . S
C103 C104 1.251 1_655 S
C104 H74 0.929 . S
C104 N100 1.418 . S
C104 C103 1.251 1_455 S
C105 H72 0.930 . S
C105 C107 1.406 . S
C105 C110 1.261 . S
C106 H73 0.930 . S
C106 N108 1.325 . S
C106 C109 1.357 1_455 S
C107 H75 0.927 1_655 S
C107 C105 1.406 . S
C107 N108 1.261 1_655 S
N108 Co59 2.214 . S
N108 C106 1.325 . S
N108 C107 1.261 1_455 S
C109 H79 0.931 . S
C109 C106 1.357 1_655 S
C109 C110 1.312 . S
C110 H81 0.930 . S
C110 C105 1.261 . S
C110 C109 1.312 . S
C111 O83 1.214 . S
C111 O91 1.234 . S
C112 H84 0.929 . S
C112 C115 1.391 . S
C112 C117 1.391 . S
C113 H85 0.929 . S
C113 C114 1.390 . S
C113 N116 1.391 . S
C114 H86 0.930 . S
C114 C113 1.390 . S
C114 C115 1.392 . S
C115 H87 0.929 . S
C115 C112 1.391 . S
C115 C114 1.392 . S
N116 Co60 2.257 . S
N116 C113 1.391 . S
N116 C117 1.388 . S
C117 H88 0.930 . S
C117 C112 1.391 . S
C117 N116 1.388 . S
Co118 O120 2.143 1_554 S
Co118 O126 2.074 . S
Co118 O129 2.093 . S
Co118 O142 2.097 . S
Co118 N159 2.151 1_554 S
Co118 N167 2.214 . S
Co119 O120 2.158 . S
Co119 O125 2.057 . S
Co119 O135 2.052 1_455 S
Co119 O150 2.042 1_556 S
Co119 N154 2.146 1_456 S
Co119 N175 2.258 1_456 S
O120 Co118 2.143 1_556 S
O120 Co119 2.158 . S
C121 O122 1.280 . S
C121 O129 1.218 1_556 S
O122 C121 1.280 . S
C123 O124 1.245 1_655 S
C123 O135 1.232 . S
O124 C123 1.245 1_455 S
O125 Co119 2.057 . S
O125 C151 1.269 . S
O126 Co118 2.074 . S
O126 C151 1.257 1_554 S
H127 C152 0.930 . S
H128 C158 0.930 . S
O129 Co118 2.093 . S
O129 C121 1.218 1_554 S
H130 C162 0.929 . S
H131 C164 0.930 . S
H132 C165 0.930 . S
H133 C163 0.929 . S
H134 C166 0.928 . S
O135 Co119 2.052 1_655 S
O135 C123 1.232 . S
H136 C155 0.935 . S
H137 C156 0.929 . S
H138 C168 0.931 . S
H139 C160 0.929 . S
H140 C169 0.930 . S
H141 C161 0.931 . S
O142 Co118 2.097 . S
O142 C170 1.214 . S
H143 C171 0.929 1_556 S
H144 C172 0.929 . S
H145 C173 0.930 . S
H146 C174 0.929 . S
H147 C176 0.930 . S
H148 C153 0.930 1_556 S
H149 C157 0.930 . S
O150 Co119 2.042 1_554 S
O150 C170 1.234 . S
C151 O125 1.269 . S
C151 O126 1.257 1_556 S
C152 H127 0.930 . S
C152 C155 1.388 . S
C152 C157 1.418 . S
C153 H148 0.930 1_554 S
C153 C156 1.404 1_554 S
C153 C157 1.353 . S
N154 Co119 2.146 1_654 S
N154 C155 1.397 . S
N154 C156 1.334 1_554 S
C155 H136 0.935 . S
C155 C152 1.388 . S
C155 N154 1.397 . S
C156 H137 0.929 . S
C156 C153 1.404 1_556 S
C156 N154 1.334 1_556 S
C157 H149 0.930 . S
C157 C152 1.418 . S
C157 C153 1.353 . S
C158 H128 0.930 . S
C158 N159 1.330 . S
C158 C160 1.446 . S
N159 Co118 2.151 1_556 S
N159 C158 1.330 . S
N159 C163 1.418 . S
C160 H139 0.929 . S
C160 C158 1.446 . S
C160 C161 1.332 . S
C161 H141 0.931 . S
C161 C160 1.332 . S
C161 C162 1.267 . S
C162 H130 0.929 . S
C162 C161 1.267 . S
C162 C163 1.251 . S
C163 H133 0.929 . S
C163 N159 1.418 . S
C163 C162 1.251 . S
C164 H131 0.930 . S
C164 C166 1.406 . S
C164 C169 1.261 . S
C165 H132 0.930 . S
C165 N167 1.325 . S
C165 C168 1.357 . S
C166 H134 0.928 . S
C166 C164 1.406 . S
C166 N167 1.261 . S
N167 Co118 2.214 . S
N167 C165 1.325 . S
N167 C166 1.261 . S
C168 H138 0.931 . S
C168 C165 1.357 . S
C168 C169 1.312 . S
C169 H140 0.930 . S
C169 C164 1.261 . S
C169 C168 1.312 . S
C170 O142 1.214 . S
C170 O150 1.234 . S
C171 H143 0.929 1_554 S
C171 C174 1.391 . S
C171 C176 1.391 1_554 S
C172 H144 0.929 . S
C172 C173 1.390 . S
C172 N175 1.391 . S
C173 H145 0.930 . S
C173 C172 1.390 . S
C173 C174 1.392 . S
C174 H146 0.929 . S
C174 C171 1.391 . S
C174 C173 1.392 . S
N175 Co119 2.258 1_654 S
N175 C172 1.391 . S
N175 C176 1.388 1_554 S
C176 H147 0.930 . S
C176 C171 1.391 1_556 S
C176 N175 1.388 1_556 S
Co177 O179 2.143 1_554 S
Co177 O185 2.074 . S
Co177 O188 2.093 . S
Co177 O201 2.097 . S
Co177 N218 2.151 1_554 S
Co177 N226 2.214 . S
Co178 O179 2.158 . S
Co178 O184 2.057 . S
Co178 O194 2.053 . S
Co178 O209 2.041 1_556 S
Co178 N213 2.146 1_556 S
Co178 N234 2.258 1_556 S
O179 Co177 2.143 1_556 S
O179 Co178 2.158 . S
C180 O181 1.280 . S
C180 O188 1.218 1_556 S
O181 C180 1.280 . S
C182 O183 1.245 . S
C182 O194 1.232 . S
O183 C182 1.245 . S
O184 Co178 2.057 . S
O184 C210 1.269 . S
O185 Co177 2.074 . S
O185 C210 1.257 1_554 S
H186 C211 0.930 . S
H187 C217 0.930 . S
O188 Co177 2.093 . S
O188 C180 1.218 1_554 S
H189 C221 0.929 . S
H190 C223 0.930 . S
H191 C224 0.930 . S
H192 C222 0.929 . S
H193 C225 0.927 1_455 S
O194 Co178 2.053 . S
O194 C182 1.232 . S
H195 C214 0.929 . S
H196 C215 0.929 . S
H197 C227 0.931 . S
H198 C219 0.929 . S
H199 C228 0.930 . S
H200 C220 0.943 . S
O201 Co177 2.097 . S
O201 C229 1.214 . S
H202 C230 0.929 1_556 S
H203 C231 0.929 . S
H204 C232 0.930 . S
H205 C233 0.929 . S
H206 C235 0.930 . S
H207 C212 0.930 1_556 S
H208 C216 0.930 . S
O209 Co178 2.041 1_554 S
O209 C229 1.234 . S
C210 O184 1.269 . S
C210 O185 1.257 1_556 S
C211 H186 0.930 . S
C211 C214 1.388 . S
C211 C216 1.418 . S
C212 H207 0.930 1_554 S
C212 C215 1.404 1_554 S
C212 C216 1.353 . S
N213 Co178 2.146 1_554 S
N213 C214 1.397 . S
N213 C215 1.334 1_554 S
C214 H195 0.929 . S
C214 C211 1.388 . S
C214 N213 1.397 . S
C215 H196 0.929 . S
C215 C212 1.404 1_556 S
C215 N213 1.334 1_556 S
C216 H208 0.930 . S
C216 C211 1.418 . S
C216 C212 1.353 . S
C217 H187 0.930 . S
C217 N218 1.330 . S
C217 C219 1.446 . S
N218 Co177 2.151 1_556 S
N218 C217 1.330 . S
N218 C222 1.418 . S
C219 H198 0.929 . S
C219 C217 1.446 . S
C219 C220 1.317 1_455 S
C220 H200 0.943 . S
C220 C219 1.317 1_655 S
C220 C221 1.270 . S
C221 H189 0.929 . S
C221 C220 1.270 . S
C221 C222 1.251 1_655 S
C222 H192 0.929 . S
C222 N218 1.418 . S
C222 C221 1.251 1_455 S
C223 H190 0.930 . S
C223 C225 1.406 . S
C223 C228 1.261 . S
C224 H191 0.930 . S
C224 N226 1.325 . S
C224 C227 1.357 1_455 S
C225 H193 0.927 1_655 S
C225 C223 1.406 . S
C225 N226 1.261 1_655 S
N226 Co177 2.214 . S
N226 C224 1.325 . S
N226 C225 1.261 1_455 S
C227 H197 0.931 . S
C227 C224 1.357 1_655 S
C227 C228 1.312 . S
C228 H199 0.930 . S
C228 C223 1.261 . S
C228 C227 1.312 . S
C229 O201 1.214 . S
C229 O209 1.234 . S
C230 H202 0.929 1_554 S
C230 C233 1.391 . S
C230 C235 1.391 1_554 S
C231 H203 0.929 . S
C231 C232 1.390 . S
C231 N234 1.391 . S
C232 H204 0.930 . S
C232 C231 1.390 . S
C232 C233 1.392 . S
C233 H205 0.929 . S
C233 C230 1.391 . S
C233 C232 1.392 . S
N234 Co178 2.258 1_554 S
N234 C231 1.391 . S
N234 C235 1.388 1_554 S
C235 H206 0.930 . S
C235 C230 1.391 1_556 S
C235 N234 1.388 1_556 S
Co236 O238 2.143 . S
Co236 O244 2.074 . S
Co236 O247 2.093 . S
Co236 O260 2.097 . S
Co236 N277 2.151 . S
Co236 N285 2.214 . S
Co237 O238 2.160 . S
Co237 O243 2.058 . S
Co237 O253 2.057 1_655 S
Co237 O268 2.037 . S
Co237 N272 2.145 1_655 S
Co237 N293 2.257 1_655 S
O238 Co236 2.143 . S
O238 Co237 2.160 . S
C239 O240 1.278 . S
C239 O247 1.224 . S
O240 C239 1.278 . S
C241 O242 1.245 1_455 S
C241 O253 1.232 . S
O242 C241 1.245 1_655 S
O243 Co237 2.058 . S
O243 C269 1.269 . S
O244 Co236 2.074 . S
O244 C269 1.257 . S
H245 C270 0.930 . S
H246 C276 0.930 . S
O247 Co236 2.093 . S
O247 C239 1.224 . S
H248 C280 0.929 . S
H249 C282 0.930 . S
H250 C283 0.930 . S
H251 C281 0.929 . S
H252 C284 0.928 . S
O253 Co237 2.057 1_455 S
O253 C241 1.232 . S
H254 C273 0.931 . S
H255 C274 0.929 . S
H256 C286 0.931 . S
H257 C278 0.929 . S
H258 C287 0.930 . S
H259 C279 0.931 . S
O260 Co236 2.097 . S
O260 C288 1.214 . S
H261 C289 0.929 . S
H262 C290 0.929 . S
H263 C291 0.930 . S
H264 C292 0.929 . S
H265 C294 0.930 . S
H266 C271 0.930 . S
H267 C275 0.930 . S
O268 Co237 2.037 . S
O268 C288 1.234 . S
C269 O243 1.269 . S
C269 O244 1.257 . S
C270 H245 0.930 . S
C270 C273 1.388 . S
C270 C275 1.418 . S
C271 H266 0.930 . S
C271 C274 1.404 . S
C271 C275 1.353 . S
N272 Co237 2.145 1_455 S
N272 C273 1.397 . S
N272 C274 1.334 . S
C273 H254 0.931 . S
C273 C270 1.388 . S
C273 N272 1.397 . S
C274 H255 0.929 . S
C274 C271 1.404 . S
C274 N272 1.334 . S
C275 H267 0.930 . S
C275 C270 1.418 . S
C275 C271 1.353 . S
C276 H246 0.930 . S
C276 N277 1.330 . S
C276 C278 1.446 . S
N277 Co236 2.151 . S
N277 C276 1.330 . S
N277 C281 1.418 . S
C278 H257 0.929 . S
C278 C276 1.446 . S
C278 C279 1.332 . S
C279 H259 0.931 . S
C279 C278 1.332 . S
C279 C280 1.267 . S
C280 H248 0.929 . S
C280 C279 1.267 . S
C280 C281 1.251 . S
C281 H251 0.929 . S
C281 N277 1.418 . S
C281 C280 1.251 . S
C282 H249 0.930 . S
C282 C284 1.406 . S
C282 C287 1.261 . S
C283 H250 0.930 . S
C283 N285 1.325 . S
C283 C286 1.357 . S
C284 H252 0.928 . S
C284 C282 1.406 . S
C284 N285 1.261 . S
N285 Co236 2.214 . S
N285 C283 1.325 . S
N285 C284 1.261 . S
C286 H256 0.931 . S
C286 C283 1.357 . S
C286 C287 1.312 . S
C287 H258 0.930 . S
C287 C282 1.261 . S
C287 C286 1.312 . S
C288 O260 1.214 . S
C288 O268 1.234 . S
C289 H261 0.929 . S
C289 C292 1.391 . S
C289 C294 1.391 . S
C290 H262 0.929 . S
C290 C291 1.390 . S
C290 N293 1.391 . S
C291 H263 0.930 . S
C291 C290 1.390 . S
C291 C292 1.392 . S
C292 H264 0.929 . S
C292 C289 1.391 . S
C292 C291 1.392 . S
N293 Co237 2.257 1_455 S
N293 C290 1.391 . S
N293 C294 1.388 . S
C294 H265 0.930 . S
C294 C289 1.391 . S
C294 N293 1.388 . S
Co295 O297 2.143 . S
Co295 O303 2.074 . S
Co295 O306 2.093 . S
Co295 O319 2.097 . S
Co295 N336 2.151 . S
Co295 N344 2.214 . S
Co296 O297 2.160 . S
Co296 O302 2.058 . S
Co296 O312 2.057 . S
Co296 O327 2.037 . S
Co296 N331 2.145 . S
Co296 N352 2.257 . S
O297 Co295 2.143 . S
O297 Co296 2.160 . S
C298 O299 1.278 . S
C298 O306 1.224 . S
O299 C298 1.278 . S
C300 O301 1.245 . S
C300 O312 1.232 . S
O301 C300 1.245 . S
O302 Co296 2.058 . S
O302 C328 1.269 . S
O303 Co295 2.074 . S
O303 C328 1.257 . S
H304 C329 0.930 . S
H305 C335 0.930 . S
O306 Co295 2.093 . S
O306 C298 1.224 . S
H307 C339 0.929 . S
H308 C341 0.930 . S
H309 C342 0.930 . S
H310 C340 0.929 . S
H311 C343 0.927 1_655 S
O312 Co296 2.057 . S
O312 C300 1.232 . S
H313 C332 0.929 . S
H314 C333 0.929 . S
H315 C345 0.931 . S
H316 C337 0.929 . S
H317 C346 0.930 . S
H318 C338 0.944 . S
O319 Co295 2.097 . S
O319 C347 1.214 . S
H320 C348 0.929 . S
H321 C349 0.929 . S
H322 C350 0.930 . S
H323 C351 0.929 . S
H324 C353 0.930 . S
H325 C330 0.930 . S
H326 C334 0.930 . S
O327 Co296 2.037 . S
O327 C347 1.234 . S
C328 O302 1.269 . S
C328 O303 1.257 . S
C329 H304 0.930 . S
C329 C332 1.388 . S
C329 C334 1.418 . S
C330 H325 0.930 . S
C330 C333 1.404 . S
C330 C334 1.353 . S
N331 Co296 2.145 . S
N331 C332 1.397 . S
N331 C333 1.334 . S
C332 H313 0.929 . S
C332 C329 1.388 . S
C332 N331 1.397 . S
C333 H314 0.929 . S
C333 C330 1.404 . S
C333 N331 1.334 . S
C334 H326 0.930 . S
C334 C329 1.418 . S
C334 C330 1.353 . S
C335 H305 0.930 . S
C335 N336 1.330 . S
C335 C337 1.446 . S
N336 Co295 2.151 . S
N336 C335 1.330 . S
N336 C340 1.418 . S
C337 H316 0.929 . S
C337 C335 1.446 . S
C337 C338 1.315 1_655 S
C338 H318 0.944 . S
C338 C337 1.315 1_455 S
C338 C339 1.270 . S
C339 H307 0.929 . S
C339 C338 1.270 . S
C339 C340 1.251 1_455 S
C340 H310 0.929 . S
C340 N336 1.418 . S
C340 C339 1.251 1_655 S
C341 H308 0.930 . S
C341 C343 1.406 . S
C341 C346 1.261 . S
C342 H309 0.930 . S
C342 N344 1.325 . S
C342 C345 1.357 1_655 S
C343 H311 0.927 1_455 S
C343 C341 1.406 . S
C343 N344 1.261 1_455 S
N344 Co295 2.214 . S
N344 C342 1.325 . S
N344 C343 1.261 1_655 S
C345 H315 0.931 . S
C345 C342 1.357 1_455 S
C345 C346 1.312 . S
C346 H317 0.930 . S
C346 C341 1.261 . S
C346 C345 1.312 . S
C347 O319 1.214 . S
C347 O327 1.234 . S
C348 H320 0.929 . S
C348 C351 1.391 . S
C348 C353 1.391 . S
C349 H321 0.929 . S
C349 C350 1.390 . S
C349 N352 1.391 . S
C350 H322 0.930 . S
C350 C349 1.390 . S
C350 C351 1.392 . S
C351 H323 0.929 . S
C351 C348 1.391 . S
C351 C350 1.392 . S
N352 Co296 2.257 . S
N352 C349 1.391 . S
N352 C353 1.388 . S
C353 H324 0.930 . S
C353 C348 1.391 . S
C353 N352 1.388 . S
Co354 O356 2.143 1_556 S
Co354 O362 2.074 . S
Co354 O365 2.093 . S
Co354 O378 2.097 . S
Co354 N395 2.151 1_556 S
Co354 N403 2.214 . S
Co355 O356 2.158 . S
Co355 O361 2.057 . S
Co355 O371 2.052 1_655 S
Co355 O386 2.042 1_554 S
Co355 N390 2.146 1_654 S
Co355 N411 2.258 1_654 S
O356 Co354 2.143 1_554 S
O356 Co355 2.158 . S
C357 O358 1.280 . S
C357 O365 1.218 1_554 S
O358 C357 1.280 . S
C359 O360 1.245 1_455 S
C359 O371 1.232 . S
O360 C359 1.245 1_655 S
O361 Co355 2.057 . S
O361 C387 1.269 . S
O362 Co354 2.074 . S
O362 C387 1.257 1_556 S
H363 C388 0.930 . S
H364 C394 0.930 . S
O365 Co354 2.093 . S
O365 C357 1.218 1_556 S
H366 C398 0.929 . S
H367 C400 0.930 . S
H368 C401 0.930 . S
H369 C399 0.929 . S
H370 C402 0.928 . S
O371 Co355 2.052 1_455 S
O371 C359 1.232 . S
H372 C391 0.935 . S
H373 C392 0.929 . S
H374 C404 0.931 . S
H375 C396 0.929 . S
H376 C405 0.930 . S
H377 C397 0.931 . S
O378 Co354 2.097 . S
O378 C406 1.214 . S
H379 C407 0.929 1_554 S
H380 C408 0.929 . S
H381 C409 0.930 . S
H382 C410 0.929 . S
H383 C412 0.930 . S
H384 C389 0.930 1_554 S
H385 C393 0.930 . S
O386 Co355 2.042 1_556 S
O386 C406 1.234 . S
C387 O361 1.269 . S
C387 O362 1.257 1_554 S
C388 H363 0.930 . S
C388 C391 1.388 . S
C388 C393 1.418 . S
C389 H384 0.930 1_556 S
C389 C392 1.404 1_556 S
C389 C393 1.353 . S
N390 Co355 2.146 1_456 S
N390 C391 1.397 . S
N390 C392 1.334 1_556 S
C391 H372 0.935 . S
C391 C388 1.388 . S
C391 N390 1.397 . S
C392 H373 0.929 . S
C392 C389 1.404 1_554 S
C392 N390 1.334 1_554 S
C393 H385 0.930 . S
C393 C388 1.418 . S
C393 C389 1.353 . S
C394 H364 0.930 . S
C394 N395 1.330 . S
C394 C396 1.446 . S
N395 Co354 2.151 1_554 S
N395 C394 1.330 . S
N395 C399 1.418 . S
C396 H375 0.929 . S
C396 C394 1.446 . S
C396 C397 1.332 . S
C397 H377 0.931 . S
C397 C396 1.332 . S
C397 C398 1.267 . S
C398 H366 0.929 . S
C398 C397 1.267 . S
C398 C399 1.251 . S
C399 H369 0.929 . S
C399 N395 1.418 . S
C399 C398 1.251 . S
C400 H367 0.930 . S
C400 C402 1.406 . S
C400 C405 1.261 . S
C401 H368 0.930 . S
C401 N403 1.325 . S
C401 C404 1.357 . S
C402 H370 0.928 . S
C402 C400 1.406 . S
C402 N403 1.261 . S
N403 Co354 2.214 . S
N403 C401 1.325 . S
N403 C402 1.261 . S
C404 H374 0.931 . S
C404 C401 1.357 . S
C404 C405 1.312 . S
C405 H376 0.930 . S
C405 C400 1.261 . S
C405 C404 1.312 . S
C406 O378 1.214 . S
C406 O386 1.234 . S
C407 H379 0.929 1_556 S
C407 C410 1.391 . S
C407 C412 1.391 1_556 S
C408 H380 0.929 . S
C408 C409 1.390 . S
C408 N411 1.391 . S
C409 H381 0.930 . S
C409 C408 1.390 . S
C409 C410 1.392 . S
C410 H382 0.929 . S
C410 C407 1.391 . S
C410 C409 1.392 . S
N411 Co355 2.258 1_456 S
N411 C408 1.391 . S
N411 C412 1.388 1_556 S
C412 H383 0.930 . S
C412 C407 1.391 1_554 S
C412 N411 1.388 1_554 S
Co413 O415 2.143 1_556 S
Co413 O421 2.074 . S
Co413 O424 2.093 . S
Co413 O437 2.097 . S
Co413 N454 2.151 1_556 S
Co413 N462 2.214 . S
Co414 O415 2.158 . S
Co414 O420 2.057 . S
Co414 O430 2.053 . S
Co414 O445 2.041 1_554 S
Co414 N449 2.146 1_554 S
Co414 N470 2.258 1_554 S
O415 Co413 2.143 1_554 S
O415 Co414 2.158 . S
C416 O417 1.280 . S
C416 O424 1.218 1_554 S
O417 C416 1.280 . S
C418 O419 1.245 . S
C418 O430 1.232 . S
O419 C418 1.245 . S
O420 Co414 2.057 . S
O420 C446 1.269 . S
O421 Co413 2.074 . S
O421 C446 1.257 1_556 S
H422 C447 0.930 . S
H423 C453 0.930 . S
O424 Co413 2.093 . S
O424 C416 1.218 1_556 S
H425 C457 0.929 . S
H426 C459 0.930 . S
H427 C460 0.930 . S
H428 C458 0.929 . S
H429 C461 0.927 1_655 S
O430 Co414 2.053 . S
O430 C418 1.232 . S
H431 C450 0.929 . S
H432 C451 0.929 . S
H433 C463 0.931 . S
H434 C455 0.929 . S
H435 C464 0.930 . S
H436 C456 0.943 . S
O437 Co413 2.097 . S
O437 C465 1.214 . S
H438 C466 0.929 1_554 S
H439 C467 0.929 . S
H440 C468 0.930 . S
H441 C469 0.929 . S
H442 C471 0.930 . S
H443 C448 0.930 1_554 S
H444 C452 0.930 . S
O445 Co414 2.041 1_556 S
O445 C465 1.234 . S
C446 O420 1.269 . S
C446 O421 1.257 1_554 S
C447 H422 0.930 . S
C447 C450 1.388 . S
C447 C452 1.418 . S
C448 H443 0.930 1_556 S
C448 C451 1.404 1_556 S
C448 C452 1.353 . S
N449 Co414 2.146 1_556 S
N449 C450 1.397 . S
N449 C451 1.334 1_556 S
C450 H431 0.929 . S
C450 C447 1.388 . S
C450 N449 1.397 . S
C451 H432 0.929 . S
C451 C448 1.404 1_554 S
C451 N449 1.334 1_554 S
C452 H444 0.930 . S
C452 C447 1.418 . S
C452 C448 1.353 . S
C453 H423 0.930 . S
C453 N454 1.330 . S
C453 C455 1.446 . S
N454 Co413 2.151 1_554 S
N454 C453 1.330 . S
N454 C458 1.418 . S
C455 H434 0.929 . S
C455 C453 1.446 . S
C455 C456 1.317 1_655 S
C456 H436 0.943 . S
C456 C455 1.317 1_455 S
C456 C457 1.270 . S
C457 H425 0.929 . S
C457 C456 1.270 . S
C457 C458 1.251 1_455 S
C458 H428 0.929 . S
C458 N454 1.418 . S
C458 C457 1.251 1_655 S
C459 H426 0.930 . S
C459 C461 1.406 . S
C459 C464 1.261 . S
C460 H427 0.930 . S
C460 N462 1.325 . S
C460 C463 1.357 1_655 S
C461 H429 0.927 1_455 S
C461 C459 1.406 . S
C461 N462 1.261 1_455 S
N462 Co413 2.214 . S
N462 C460 1.325 . S
N462 C461 1.261 1_655 S
C463 H433 0.931 . S
C463 C460 1.357 1_455 S
C463 C464 1.312 . S
C464 H435 0.930 . S
C464 C459 1.261 . S
C464 C463 1.312 . S
C465 O437 1.214 . S
C465 O445 1.234 . S
C466 H438 0.929 1_556 S
C466 C469 1.391 . S
C466 C471 1.391 1_556 S
C467 H439 0.929 . S
C467 C468 1.390 . S
C467 N470 1.391 . S
C468 H440 0.930 . S
C468 C467 1.390 . S
C468 C469 1.392 . S
C469 H441 0.929 . S
C469 C466 1.391 . S
C469 C468 1.392 . S
N470 Co414 2.258 1_556 S
N470 C467 1.391 . S
N470 C471 1.388 1_556 S
C471 H442 0.930 . S
C471 C466 1.391 1_554 S
C471 N470 1.388 1_554 S
Co472 O474 2.143 . S
Co472 O480 2.074 . S
Co472 O483 2.093 . S
Co472 O496 2.097 . S
Co472 N513 2.151 . S
Co472 N521 2.214 . S
Co473 O474 2.160 . S
Co473 O479 2.058 . S
Co473 O489 2.057 1_455 S
Co473 O504 2.037 . S
Co473 N508 2.145 1_455 S
Co473 N529 2.257 1_455 S
O474 Co472 2.143 . S
O474 Co473 2.160 . S
C475 O476 1.278 . S
C475 O483 1.224 . S
O476 C475 1.278 . S
C477 O478 1.245 1_655 S
C477 O489 1.232 . S
O478 C477 1.245 1_455 S
O479 Co473 2.058 . S
O479 C505 1.269 . S
O480 Co472 2.074 . S
O480 C505 1.257 . S
H481 C506 0.930 . S
H482 C512 0.930 . S
O483 Co472 2.093 . S
O483 C475 1.224 . S
H484 C516 0.929 . S
H485 C518 0.930 . S
H486 C519 0.930 . S
H487 C517 0.929 . S
H488 C520 0.928 . S
O489 Co473 2.057 1_655 S
O489 C477 1.232 . S
H490 C509 0.929 . S
H491 C510 0.929 . S
H492 C522 0.931 . S
H493 C514 0.929 . S
H494 C523 0.930 . S
H495 C515 0.931 . S
O496 Co472 2.097 . S
O496 C524 1.214 . S
H497 C525 0.929 . S
H498 C526 0.929 . S
H499 C527 0.930 . S
H500 C528 0.929 . S
H501 C530 0.930 . S
H502 C507 0.930 . S
H503 C511 0.930 . S
O504 Co473 2.037 . S
O504 C524 1.234 . S
C505 O479 1.269 . S
C505 O480 1.257 . S
C506 H481 0.930 . S
C506 C509 1.388 . S
C506 C511 1.418 . S
C507 H502 0.930 . S
C507 C510 1.404 . S
C507 C511 1.353 . S
N508 Co473 2.145 1_655 S
N508 C509 1.397 . S
N508 C510 1.334 . S
C509 H490 0.929 . S
C509 C506 1.388 . S
C509 N508 1.397 . S
C510 H491 0.929 . S
C510 C507 1.404 . S
C510 N508 1.334 . S
C511 H503 0.930 . S
C511 C506 1.418 . S
C511 C507 1.353 . S
C512 H482 0.930 . S
C512 N513 1.330 . S
C512 C514 1.446 . S
N513 Co472 2.151 . S
N513 C512 1.330 . S
N513 C517 1.418 . S
C514 H493 0.929 . S
C514 C512 1.446 . S
C514 C515 1.332 . S
C515 H495 0.931 . S
C515 C514 1.332 . S
C515 C516 1.267 . S
C516 H484 0.929 . S
C516 C515 1.267 . S
C516 C517 1.251 . S
C517 H487 0.929 . S
C517 N513 1.418 . S
C517 C516 1.251 . S
C518 H485 0.930 . S
C518 C520 1.406 . S
C518 C523 1.261 . S
C519 H486 0.930 . S
C519 N521 1.325 . S
C519 C522 1.357 . S
C520 H488 0.928 . S
C520 C518 1.406 . S
C520 N521 1.261 . S
N521 Co472 2.214 . S
N521 C519 1.325 . S
N521 C520 1.261 . S
C522 H492 0.931 . S
C522 C519 1.357 . S
C522 C523 1.312 . S
C523 H494 0.930 . S
C523 C518 1.261 . S
C523 C522 1.312 . S
C524 O496 1.214 . S
C524 O504 1.234 . S
C525 H497 0.929 . S
C525 C528 1.391 . S
C525 C530 1.391 . S
C526 H498 0.929 . S
C526 C527 1.390 . S
C526 N529 1.391 . S
C527 H499 0.930 . S
C527 C526 1.390 . S
C527 C528 1.392 . S
C528 H500 0.929 . S
C528 C525 1.391 . S
C528 C527 1.392 . S
N529 Co473 2.257 1_655 S
N529 C526 1.391 . S
N529 C530 1.388 . S
C530 H501 0.930 . S
C530 C525 1.391 . S
C530 N529 1.388 . S
Co531 O533 2.143 . S
Co531 O539 2.074 . S
Co531 O542 2.093 . S
Co531 O555 2.097 . S
Co531 N572 2.151 . S
Co531 N580 2.214 . S
Co532 O533 2.160 . S
Co532 O538 2.058 . S
Co532 O548 2.057 . S
Co532 O563 2.037 . S
Co532 N567 2.145 . S
Co532 N588 2.257 . S
O533 Co531 2.143 . S
O533 Co532 2.160 . S
C534 O535 1.278 . S
C534 O542 1.224 . S
O535 C534 1.278 . S
C536 O537 1.245 . S
C536 O548 1.232 . S
O537 C536 1.245 . S
O538 Co532 2.058 . S
O538 C564 1.269 . S
O539 Co531 2.074 . S
O539 C564 1.257 . S
H540 C565 0.930 . S
H541 C571 0.930 . S
O542 Co531 2.093 . S
O542 C534 1.224 . S
H543 C575 0.929 . S
H544 C577 0.930 . S
H545 C578 0.930 . S
H546 C576 0.929 . S
H547 C579 0.928 1_455 S
O548 Co532 2.057 . S
O548 C536 1.232 . S
H549 C568 0.929 . S
H550 C569 0.929 . S
H551 C581 0.931 . S
H552 C573 0.929 . S
H553 C582 0.930 . S
H554 C574 0.936 . S
O555 Co531 2.097 . S
O555 C583 1.214 . S
H556 C584 0.929 . S
H557 C585 0.929 . S
H558 C586 0.930 . S
H559 C587 0.929 . S
H560 C589 0.930 . S
H561 C566 0.930 . S
H562 C570 0.930 . S
O563 Co532 2.037 . S
O563 C583 1.234 . S
C564 O538 1.269 . S
C564 O539 1.257 . S
C565 H540 0.930 . S
C565 C568 1.388 . S
C565 C570 1.418 . S
C566 H561 0.930 . S
C566 C569 1.404 . S
C566 C570 1.353 . S
N567 Co532 2.145 . S
N567 C568 1.397 . S
N567 C569 1.334 . S
C568 H549 0.929 . S
C568 C565 1.388 . S
C568 N567 1.397 . S
C569 H550 0.929 . S
C569 C566 1.404 . S
C569 N567 1.334 . S
C570 H562 0.930 . S
C570 C565 1.418 . S
C570 C566 1.353 . S
C571 H541 0.930 . S
C571 N572 1.330 . S
C571 C573 1.446 . S
N572 Co531 2.151 . S
N572 C571 1.330 . S
N572 C576 1.418 . S
C573 H552 0.929 . S
C573 C571 1.446 . S
C573 C574 1.326 1_455 S
C574 H554 0.936 . S
C574 C573 1.326 1_655 S
C574 C575 1.268 . S
C575 H543 0.929 . S
C575 C574 1.268 . S
C575 C576 1.251 1_655 S
C576 H546 0.929 . S
C576 N572 1.418 . S
C576 C575 1.251 1_455 S
C577 H544 0.930 . S
C577 C579 1.406 . S
C577 C582 1.261 . S
C578 H545 0.930 . S
C578 N580 1.325 . S
C578 C581 1.357 1_455 S
C579 H547 0.928 1_655 S
C579 C577 1.406 . S
C579 N580 1.261 1_655 S
N580 Co531 2.214 . S
N580 C578 1.325 . S
N580 C579 1.261 1_455 S
C581 H551 0.931 . S
C581 C578 1.357 1_655 S
C581 C582 1.312 . S
C582 H553 0.930 . S
C582 C577 1.261 . S
C582 C581 1.312 . S
C583 O555 1.214 . S
C583 O563 1.234 . S
C584 H556 0.929 . S
C584 C587 1.391 . S
C584 C589 1.391 . S
C585 H557 0.929 . S
C585 C586 1.390 . S
C585 N588 1.391 . S
C586 H558 0.930 . S
C586 C585 1.390 . S
C586 C587 1.392 . S
C587 H559 0.929 . S
C587 C584 1.391 . S
C587 C586 1.392 . S
N588 Co532 2.257 . S
N588 C585 1.391 . S
N588 C589 1.388 . S
C589 H560 0.930 . S
C589 C584 1.391 . S
C589 N588 1.388 . S
Co590 O592 2.143 . S
Co590 O598 2.074 . S
Co590 O601 2.093 . S
Co590 O614 2.097 . S
Co590 N631 2.151 . S
Co590 N639 2.214 . S
Co591 O592 2.160 . S
Co591 O597 2.058 . S
Co591 O607 2.057 1_455 S
Co591 O622 2.037 . S
Co591 N626 2.145 1_455 S
Co591 N647 2.257 1_455 S
O592 Co590 2.143 . S
O592 Co591 2.160 . S
C593 O594 1.278 . S
C593 O601 1.224 . S
O594 C593 1.278 . S
C595 O596 1.245 1_655 S
C595 O607 1.232 . S
O596 C595 1.245 1_455 S
O597 Co591 2.058 . S
O597 C623 1.269 . S
O598 Co590 2.074 . S
O598 C623 1.257 . S
H599 C624 0.930 . S
H600 C630 0.930 . S
O601 Co590 2.093 . S
O601 C593 1.224 . S
H602 C634 0.929 . S
H603 C636 0.930 . S
H604 C637 0.930 . S
H605 C635 0.929 . S
H606 C638 0.928 . S
O607 Co591 2.057 1_655 S
O607 C595 1.232 . S
H608 C627 0.926 1_455 S
H609 C628 0.929 . S
H610 C640 0.931 . S
H611 C632 0.929 . S
H612 C641 0.930 . S
H613 C633 0.931 . S
O614 Co590 2.097 . S
O614 C642 1.214 . S
H615 C643 0.929 . S
H616 C644 0.929 . S
H617 C645 0.930 . S
H618 C646 0.929 . S
H619 C648 0.930 . S
H620 C625 0.930 . S
H621 C629 0.930 . S
O622 Co591 2.037 . S
O622 C642 1.234 . S
C623 O597 1.269 . S
C623 O598 1.257 . S
C624 H599 0.930 . S
C624 C627 1.388 . S
C624 C629 1.418 . S
C625 H620 0.930 . S
C625 C628 1.404 . S
C625 C629 1.353 . S
N626 Co591 2.145 1_655 S
N626 C627 1.397 . S
N626 C628 1.334 . S
C627 H608 0.926 1_655 S
C627 C624 1.388 . S
C627 N626 1.397 . S
C628 H609 0.929 . S
C628 C625 1.404 . S
C628 N626 1.334 . S
C629 H621 0.930 . S
C629 C624 1.418 . S
C629 C625 1.353 . S
C630 H600 0.930 . S
C630 N631 1.330 . S
C630 C632 1.446 . S
N631 Co590 2.151 . S
N631 C630 1.330 . S
N631 C635 1.418 . S
C632 H611 0.929 . S
C632 C630 1.446 . S
C632 C633 1.332 . S
C633 H613 0.931 . S
C633 C632 1.332 . S
C633 C634 1.267 . S
C634 H602 0.929 . S
C634 C633 1.267 . S
C634 C635 1.251 . S
C635 H605 0.929 . S
C635 N631 1.418 . S
C635 C634 1.251 . S
C636 H603 0.930 . S
C636 C638 1.406 . S
C636 C641 1.261 . S
C637 H604 0.930 . S
C637 N639 1.325 . S
C637 C640 1.357 . S
C638 H606 0.928 . S
C638 C636 1.406 . S
C638 N639 1.261 . S
N639 Co590 2.214 . S
N639 C637 1.325 . S
N639 C638 1.261 . S
C640 H610 0.931 . S
C640 C637 1.357 . S
C640 C641 1.312 . S
C641 H612 0.930 . S
C641 C636 1.261 . S
C641 C640 1.312 . S
C642 O614 1.214 . S
C642 O622 1.234 . S
C643 H615 0.929 . S
C643 C646 1.391 . S
C643 C648 1.391 . S
C644 H616 0.929 . S
C644 C645 1.390 . S
C644 N647 1.391 . S
C645 H617 0.930 . S
C645 C644 1.390 . S
C645 C646 1.392 . S
C646 H618 0.929 . S
C646 C643 1.391 . S
C646 C645 1.392 . S
N647 Co591 2.257 1_655 S
N647 C644 1.391 . S
N647 C648 1.388 . S
C648 H619 0.930 . S
C648 C643 1.391 . S
C648 N647 1.388 . S
Co649 O651 2.143 . S
Co649 O657 2.074 . S
Co649 O660 2.093 . S
Co649 O673 2.097 . S
Co649 N690 2.151 . S
Co649 N698 2.214 . S
Co650 O651 2.160 . S
Co650 O656 2.058 . S
Co650 O666 2.057 . S
Co650 O681 2.037 . S
Co650 N685 2.145 . S
Co650 N706 2.257 . S
O651 Co649 2.143 . S
O651 Co650 2.160 . S
C652 O653 1.278 . S
C652 O660 1.224 . S
O653 C652 1.278 . S
C654 O655 1.245 . S
C654 O666 1.232 . S
O655 C654 1.245 . S
O656 Co650 2.058 . S
O656 C682 1.269 . S
O657 Co649 2.074 . S
O657 C682 1.257 . S
H658 C683 0.930 . S
H659 C689 0.930 . S
O660 Co649 2.093 . S
O660 C652 1.224 . S
H661 C693 0.929 . S
H662 C695 0.930 . S
H663 C696 0.930 . S
H664 C694 0.929 . S
H665 C697 0.928 1_455 S
O666 Co650 2.057 . S
O666 C654 1.232 . S
H667 C686 0.929 . S
H668 C687 0.929 . S
H669 C699 0.931 . S
H670 C691 0.929 . S
H671 C700 0.930 . S
H672 C692 0.939 . S
O673 Co649 2.097 . S
O673 C701 1.214 . S
H674 C702 0.929 . S
H675 C703 0.929 . S
H676 C704 0.930 . S
H677 C705 0.929 . S
H678 C707 0.930 . S
H679 C684 0.930 . S
H680 C688 0.930 . S
O681 Co650 2.037 . S
O681 C701 1.234 . S
C682 O656 1.269 . S
C682 O657 1.257 . S
C683 H658 0.930 . S
C683 C686 1.388 . S
C683 C688 1.418 . S
C684 H679 0.930 . S
C684 C687 1.404 . S
C684 C688 1.353 . S
N685 Co650 2.145 . S
N685 C686 1.397 . S
N685 C687 1.334 . S
C686 H667 0.929 . S
C686 C683 1.388 . S
C686 N685 1.397 . S
C687 H668 0.929 . S
C687 C684 1.404 . S
C687 N685 1.334 . S
C688 H680 0.930 . S
C688 C683 1.418 . S
C688 C684 1.353 . S
C689 H659 0.930 . S
C689 N690 1.330 . S
C689 C691 1.446 . S
N690 Co649 2.151 . S
N690 C689 1.330 . S
N690 C694 1.418 . S
C691 H670 0.929 . S
C691 C689 1.446 . S
C691 C692 1.321 1_455 S
C692 H672 0.939 . S
C692 C691 1.321 1_655 S
C692 C693 1.269 . S
C693 H661 0.929 . S
C693 C692 1.269 . S
C693 C694 1.251 1_655 S
C694 H664 0.929 . S
C694 N690 1.418 . S
C694 C693 1.251 1_455 S
C695 H662 0.930 . S
C695 C697 1.406 . S
C695 C700 1.261 . S
C696 H663 0.930 . S
C696 N698 1.325 . S
C696 C699 1.357 1_455 S
C697 H665 0.928 1_655 S
C697 C695 1.406 . S
C697 N698 1.261 1_655 S
N698 Co649 2.214 . S
N698 C696 1.325 . S
N698 C697 1.261 1_455 S
C699 H669 0.931 . S
C699 C696 1.357 1_655 S
C699 C700 1.312 . S
C700 H671 0.930 . S
C700 C695 1.261 . S
C700 C699 1.312 . S
C701 O673 1.214 . S
C701 O681 1.234 . S
C702 H674 0.929 . S
C702 C705 1.391 . S
C702 C707 1.391 . S
C703 H675 0.929 . S
C703 C704 1.390 . S
C703 N706 1.391 . S
C704 H676 0.930 . S
C704 C703 1.390 . S
C704 C705 1.392 . S
C705 H677 0.929 . S
C705 C702 1.391 . S
C705 C704 1.392 . S
N706 Co650 2.257 . S
N706 C703 1.391 . S
N706 C707 1.388 . S
C707 H678 0.930 . S
C707 C702 1.391 . S
C707 N706 1.388 . S
Co708 O710 2.143 . S
Co708 O716 2.074 . S
Co708 O719 2.093 . S
Co708 O732 2.097 . S
Co708 N749 2.151 . S
Co708 N757 2.214 . S
Co709 O710 2.160 . S
Co709 O715 2.058 . S
Co709 O725 2.057 1_655 S
Co709 O740 2.037 . S
Co709 N744 2.145 1_655 S
Co709 N765 2.257 1_655 S
O710 Co708 2.143 . S
O710 Co709 2.160 . S
C711 O712 1.278 . S
C711 O719 1.224 . S
O712 C711 1.278 . S
C713 O714 1.245 1_455 S
C713 O725 1.232 . S
O714 C713 1.245 1_655 S
O715 Co709 2.058 . S
O715 C741 1.269 . S
O716 Co708 2.074 . S
O716 C741 1.257 . S
H717 C742 0.930 . S
H718 C748 0.930 . S
O719 Co708 2.093 . S
O719 C711 1.224 . S
H720 C752 0.929 . S
H721 C754 0.930 . S
H722 C755 0.930 . S
H723 C753 0.929 . S
H724 C756 0.928 . S
O725 Co709 2.057 1_455 S
O725 C713 1.232 . S
H726 C745 0.929 . S
H727 C746 0.929 . S
H728 C758 0.931 . S
H729 C750 0.929 . S
H730 C759 0.930 . S
H731 C751 0.931 . S
O732 Co708 2.097 . S
O732 C760 1.214 . S
H733 C761 0.929 . S
H734 C762 0.929 . S
H735 C763 0.930 . S
H736 C764 0.929 . S
H737 C766 0.930 . S
H738 C743 0.930 . S
H739 C747 0.930 . S
O740 Co709 2.037 . S
O740 C760 1.234 . S
C741 O715 1.269 . S
C741 O716 1.257 . S
C742 H717 0.930 . S
C742 C745 1.388 . S
C742 C747 1.418 . S
C743 H738 0.930 . S
C743 C746 1.404 . S
C743 C747 1.353 . S
N744 Co709 2.145 1_455 S
N744 C745 1.397 . S
N744 C746 1.334 . S
C745 H726 0.929 . S
C745 C742 1.388 . S
C745 N744 1.397 . S
C746 H727 0.929 . S
C746 C743 1.404 . S
C746 N744 1.334 . S
C747 H739 0.930 . S
C747 C742 1.418 . S
C747 C743 1.353 . S
C748 H718 0.930 . S
C748 N749 1.330 . S
C748 C750 1.446 . S
N749 Co708 2.151 . S
N749 C748 1.330 . S
N749 C753 1.418 . S
C750 H729 0.929 . S
C750 C748 1.446 . S
C750 C751 1.332 . S
C751 H731 0.931 . S
C751 C750 1.332 . S
C751 C752 1.267 . S
C752 H720 0.929 . S
C752 C751 1.267 . S
C752 C753 1.251 . S
C753 H723 0.929 . S
C753 N749 1.418 . S
C753 C752 1.251 . S
C754 H721 0.930 . S
C754 C756 1.406 . S
C754 C759 1.261 . S
C755 H722 0.930 . S
C755 N757 1.325 . S
C755 C758 1.357 . S
C756 H724 0.928 . S
C756 C754 1.406 . S
C756 N757 1.261 . S
N757 Co708 2.214 . S
N757 C755 1.325 . S
N757 C756 1.261 . S
C758 H728 0.931 . S
C758 C755 1.357 . S
C758 C759 1.312 . S
C759 H730 0.930 . S
C759 C754 1.261 . S
C759 C758 1.312 . S
C760 O732 1.214 . S
C760 O740 1.234 . S
C761 H733 0.929 . S
C761 C764 1.391 . S
C761 C766 1.391 . S
C762 H734 0.929 . S
C762 C763 1.390 . S
C762 N765 1.391 . S
C763 H735 0.930 . S
C763 C762 1.390 . S
C763 C764 1.392 . S
C764 H736 0.929 . S
C764 C761 1.391 . S
C764 C763 1.392 . S
N765 Co709 2.257 1_455 S
N765 C762 1.391 . S
N765 C766 1.388 . S
C766 H737 0.930 . S
C766 C761 1.391 . S
C766 N765 1.388 . S
Co767 O769 2.143 . S
Co767 O775 2.074 . S
Co767 O778 2.093 . S
Co767 O791 2.097 . S
Co767 N808 2.151 . S
Co767 N816 2.214 . S
Co768 O769 2.160 . S
Co768 O774 2.058 . S
Co768 O784 2.057 . S
Co768 O799 2.037 . S
Co768 N803 2.145 . S
Co768 N824 2.257 . S
O769 Co767 2.143 . S
O769 Co768 2.160 . S
C770 O771 1.278 . S
C770 O778 1.224 . S
O771 C770 1.278 . S
C772 O773 1.245 . S
C772 O784 1.232 . S
O773 C772 1.245 . S
O774 Co768 2.058 . S
O774 C800 1.269 . S
O775 Co767 2.074 . S
O775 C800 1.257 . S
H776 C801 0.930 . S
H777 C807 0.930 . S
O778 Co767 2.093 . S
O778 C770 1.224 . S
H779 C811 0.929 . S
H780 C813 0.930 . S
H781 C814 0.930 . S
H782 C812 0.929 . S
H783 C815 0.928 1_655 S
O784 Co768 2.057 . S
O784 C772 1.232 . S
H785 C804 0.929 . S
H786 C805 0.929 . S
H787 C817 0.931 . S
H788 C809 0.929 . S
H789 C818 0.930 . S
H790 C810 0.936 . S
O791 Co767 2.097 . S
O791 C819 1.214 . S
H792 C820 0.929 . S
H793 C821 0.929 . S
H794 C822 0.930 . S
H795 C823 0.929 . S
H796 C825 0.930 . S
H797 C802 0.930 . S
H798 C806 0.930 . S
O799 Co768 2.037 . S
O799 C819 1.234 . S
C800 O774 1.269 . S
C800 O775 1.257 . S
C801 H776 0.930 . S
C801 C804 1.388 . S
C801 C806 1.418 . S
C802 H797 0.930 . S
C802 C805 1.404 . S
C802 C806 1.353 . S
N803 Co768 2.145 . S
N803 C804 1.397 . S
N803 C805 1.334 . S
C804 H785 0.929 . S
C804 C801 1.388 . S
C804 N803 1.397 . S
C805 H786 0.929 . S
C805 C802 1.404 . S
C805 N803 1.334 . S
C806 H798 0.930 . S
C806 C801 1.418 . S
C806 C802 1.353 . S
C807 H777 0.930 . S
C807 N808 1.330 . S
C807 C809 1.446 . S
N808 Co767 2.151 . S
N808 C807 1.330 . S
N808 C812 1.418 . S
C809 H788 0.929 . S
C809 C807 1.446 . S
C809 C810 1.326 1_655 S
C810 H790 0.936 . S
C810 C809 1.326 1_455 S
C810 C811 1.268 . S
C811 H779 0.929 . S
C811 C810 1.268 . S
C811 C812 1.251 1_455 S
C812 H782 0.929 . S
C812 N808 1.418 . S
C812 C811 1.251 1_655 S
C813 H780 0.930 . S
C813 C815 1.406 . S
C813 C818 1.261 . S
C814 H781 0.930 . S
C814 N816 1.325 . S
C814 C817 1.357 1_655 S
C815 H783 0.928 1_455 S
C815 C813 1.406 . S
C815 N816 1.261 1_455 S
N816 Co767 2.214 . S
N816 C814 1.325 . S
N816 C815 1.261 1_655 S
C817 H787 0.931 . S
C817 C814 1.357 1_455 S
C817 C818 1.312 . S
C818 H789 0.930 . S
C818 C813 1.261 . S
C818 C817 1.312 . S
C819 O791 1.214 . S
C819 O799 1.234 . S
C820 H792 0.929 . S
C820 C823 1.391 . S
C820 C825 1.391 . S
C821 H793 0.929 . S
C821 C822 1.390 . S
C821 N824 1.391 . S
C822 H794 0.930 . S
C822 C821 1.390 . S
C822 C823 1.392 . S
C823 H795 0.929 . S
C823 C820 1.391 . S
C823 C822 1.392 . S
N824 Co768 2.257 . S
N824 C821 1.391 . S
N824 C825 1.388 . S
C825 H796 0.930 . S
C825 C820 1.391 . S
C825 N824 1.388 . S
Co826 O828 2.143 . S
Co826 O834 2.074 . S
Co826 O837 2.093 . S
Co826 O850 2.097 . S
Co826 N867 2.151 . S
Co826 N875 2.214 . S
Co827 O828 2.160 . S
Co827 O833 2.058 . S
Co827 O843 2.057 1_655 S
Co827 O858 2.037 . S
Co827 N862 2.145 1_655 S
Co827 N883 2.257 1_655 S
O828 Co826 2.143 . S
O828 Co827 2.160 . S
C829 O830 1.278 . S
C829 O837 1.224 . S
O830 C829 1.278 . S
C831 O832 1.245 1_455 S
C831 O843 1.232 . S
O832 C831 1.245 1_655 S
O833 Co827 2.058 . S
O833 C859 1.269 . S
O834 Co826 2.074 . S
O834 C859 1.257 . S
H835 C860 0.930 . S
H836 C866 0.930 . S
O837 Co826 2.093 . S
O837 C829 1.224 . S
H838 C870 0.929 . S
H839 C872 0.930 . S
H840 C873 0.930 . S
H841 C871 0.929 . S
H842 C874 0.928 . S
O843 Co827 2.057 1_455 S
O843 C831 1.232 . S
H844 C863 0.926 1_655 S
H845 C864 0.929 . S
H846 C876 0.931 . S
H847 C868 0.929 . S
H848 C877 0.930 . S
H849 C869 0.931 . S
O850 Co826 2.097 . S
O850 C878 1.214 . S
H851 C879 0.929 . S
H852 C880 0.929 . S
H853 C881 0.930 . S
H854 C882 0.929 . S
H855 C884 0.930 . S
H856 C861 0.930 . S
H857 C865 0.930 . S
O858 Co827 2.037 . S
O858 C878 1.234 . S
C859 O833 1.269 . S
C859 O834 1.257 . S
C860 H835 0.930 . S
C860 C863 1.388 . S
C860 C865 1.418 . S
C861 H856 0.930 . S
C861 C864 1.404 . S
C861 C865 1.353 . S
N862 Co827 2.145 1_455 S
N862 C863 1.397 . S
N862 C864 1.334 . S
C863 H844 0.926 1_455 S
C863 C860 1.388 . S
C863 N862 1.397 . S
C864 H845 0.929 . S
C864 C861 1.404 . S
C864 N862 1.334 . S
C865 H857 0.930 . S
C865 C860 1.418 . S
C865 C861 1.353 . S
C866 H836 0.930 . S
C866 N867 1.330 . S
C866 C868 1.446 . S
N867 Co826 2.151 . S
N867 C866 1.330 . S
N867 C871 1.418 . S
C868 H847 0.929 . S
C868 C866 1.446 . S
C868 C869 1.332 . S
C869 H849 0.931 . S
C869 C868 1.332 . S
C869 C870 1.267 . S
C870 H838 0.929 . S
C870 C869 1.267 . S
C870 C871 1.251 . S
C871 H841 0.929 . S
C871 N867 1.418 . S
C871 C870 1.251 . S
C872 H839 0.930 . S
C872 C874 1.406 . S
C872 C877 1.261 . S
C873 H840 0.930 . S
C873 N875 1.325 . S
C873 C876 1.357 . S
C874 H842 0.928 . S
C874 C872 1.406 . S
C874 N875 1.261 . S
N875 Co826 2.214 . S
N875 C873 1.325 . S
N875 C874 1.261 . S
C876 H846 0.931 . S
C876 C873 1.357 . S
C876 C877 1.312 . S
C877 H848 0.930 . S
C877 C872 1.261 . S
C877 C876 1.312 . S
C878 O850 1.214 . S
C878 O858 1.234 . S
C879 H851 0.929 . S
C879 C882 1.391 . S
C879 C884 1.391 . S
C880 H852 0.929 . S
C880 C881 1.390 . S
C880 N883 1.391 . S
C881 H853 0.930 . S
C881 C880 1.390 . S
C881 C882 1.392 . S
C882 H854 0.929 . S
C882 C879 1.391 . S
C882 C881 1.392 . S
N883 Co827 2.257 1_455 S
N883 C880 1.391 . S
N883 C884 1.388 . S
C884 H855 0.930 . S
C884 C879 1.391 . S
C884 N883 1.388 . S
Co885 O887 2.143 . S
Co885 O893 2.074 . S
Co885 O896 2.093 . S
Co885 O909 2.097 . S
Co885 N926 2.151 . S
Co885 N934 2.214 . S
Co886 O887 2.160 . S
Co886 O892 2.058 . S
Co886 O902 2.057 . S
Co886 O917 2.037 . S
Co886 N921 2.145 . S
Co886 N942 2.257 . S
O887 Co885 2.143 . S
O887 Co886 2.160 . S
C888 O889 1.278 . S
C888 O896 1.224 . S
O889 C888 1.278 . S
C890 O891 1.245 . S
C890 O902 1.232 . S
O891 C890 1.245 . S
O892 Co886 2.058 . S
O892 C918 1.269 . S
O893 Co885 2.074 . S
O893 C918 1.257 . S
H894 C919 0.930 . S
H895 C925 0.930 . S
O896 Co885 2.093 . S
O896 C888 1.224 . S
H897 C929 0.929 . S
H898 C931 0.930 . S
H899 C932 0.930 . S
H900 C930 0.929 . S
H901 C933 0.928 1_655 S
O902 Co886 2.057 . S
O902 C890 1.232 . S
H903 C922 0.929 . S
H904 C923 0.929 . S
H905 C935 0.931 . S
H906 C927 0.929 . S
H907 C936 0.930 . S
H908 C928 0.939 . S
O909 Co885 2.097 . S
O909 C937 1.214 . S
H910 C938 0.929 . S
H911 C939 0.929 . S
H912 C940 0.930 . S
H913 C941 0.929 . S
H914 C943 0.930 . S
H915 C920 0.930 . S
H916 C924 0.930 . S
O917 Co886 2.037 . S
O917 C937 1.234 . S
C918 O892 1.269 . S
C918 O893 1.257 . S
C919 H894 0.930 . S
C919 C922 1.388 . S
C919 C924 1.418 . S
C920 H915 0.930 . S
C920 C923 1.404 . S
C920 C924 1.353 . S
N921 Co886 2.145 . S
N921 C922 1.397 . S
N921 C923 1.334 . S
C922 H903 0.929 . S
C922 C919 1.388 . S
C922 N921 1.397 . S
C923 H904 0.929 . S
C923 C920 1.404 . S
C923 N921 1.334 . S
C924 H916 0.930 . S
C924 C919 1.418 . S
C924 C920 1.353 . S
C925 H895 0.930 . S
C925 N926 1.330 . S
C925 C927 1.446 . S
N926 Co885 2.151 . S
N926 C925 1.330 . S
N926 C930 1.418 . S
C927 H906 0.929 . S
C927 C925 1.446 . S
C927 C928 1.321 1_655 S
C928 H908 0.939 . S
C928 C927 1.321 1_455 S
C928 C929 1.269 . S
C929 H897 0.929 . S
C929 C928 1.269 . S
C929 C930 1.251 1_455 S
C930 H900 0.929 . S
C930 N926 1.418 . S
C930 C929 1.251 1_655 S
C931 H898 0.930 . S
C931 C933 1.406 . S
C931 C936 1.261 . S
C932 H899 0.930 . S
C932 N934 1.325 . S
C932 C935 1.357 1_655 S
C933 H901 0.928 1_455 S
C933 C931 1.406 . S
C933 N934 1.261 1_455 S
N934 Co885 2.214 . S
N934 C932 1.325 . S
N934 C933 1.261 1_655 S
C935 H905 0.931 . S
C935 C932 1.357 1_455 S
C935 C936 1.312 . S
C936 H907 0.930 . S
C936 C931 1.261 . S
C936 C935 1.312 . S
C937 O909 1.214 . S
C937 O917 1.234 . S
C938 H910 0.929 . S
C938 C941 1.391 . S
C938 C943 1.391 . S
C939 H911 0.929 . S
C939 C940 1.390 . S
C939 N942 1.391 . S
C940 H912 0.930 . S
C940 C939 1.390 . S
C940 C941 1.392 . S
C941 H913 0.929 . S
C941 C938 1.391 . S
C941 C940 1.392 . S
N942 Co886 2.257 . S
N942 C939 1.391 . S
N942 C943 1.388 . S
C943 H914 0.930 . S
C943 C938 1.391 . S
C943 N942 1.388 . S
Co944 O946 2.143 . S
Co944 O952 2.074 . S
Co944 O955 2.093 . S
Co944 O968 2.097 . S
Co944 N985 2.151 . S
Co944 N993 2.214 . S
Co945 O946 2.160 . S
Co945 O951 2.058 . S
Co945 O961 2.057 . S
Co945 O976 2.037 . S
Co945 N980 2.145 . S
Co945 N1001 2.257 . S
O946 Co944 2.143 . S
O946 Co945 2.160 . S
C947 O948 1.278 . S
C947 O955 1.224 . S
O948 C947 1.278 . S
C949 O950 1.245 . S
C949 O961 1.232 . S
O950 C949 1.245 . S
O951 Co945 2.058 . S
O951 C977 1.269 . S
O952 Co944 2.074 . S
O952 C977 1.257 . S
H953 C978 0.930 . S
H954 C984 0.930 . S
O955 Co944 2.093 . S
O955 C947 1.224 . S
H956 C988 0.929 . S
H957 C990 0.930 . S
H958 C991 0.930 . S
H959 C989 0.929 . S
H960 C992 0.928 . S
O961 Co945 2.057 . S
O961 C949 1.232 . S
H962 C981 0.929 . S
H963 C982 0.929 . S
H964 C994 0.931 . S
H965 C986 0.929 . S
H966 C995 0.930 . S
H967 C987 0.931 . S
O968 Co944 2.097 . S
O968 C996 1.214 . S
H969 C997 0.929 . S
H970 C998 0.929 . S
H971 C999 0.930 . S
H972 C1000 0.929 . S
H973 C1002 0.930 . S
H974 C979 0.930 . S
H975 C983 0.930 . S
O976 Co945 2.037 . S
O976 C996 1.234 . S
C977 O951 1.269 . S
C977 O952 1.257 . S
C978 H953 0.930 . S
C978 C981 1.388 . S
C978 C983 1.418 . S
C979 H974 0.930 . S
C979 C982 1.404 . S
C979 C983 1.353 . S
N980 Co945 2.145 . S
N980 C981 1.397 . S
N980 C982 1.334 . S
C981 H962 0.929 . S
C981 C978 1.388 . S
C981 N980 1.397 . S
C982 H963 0.929 . S
C982 C979 1.404 . S
C982 N980 1.334 . S
C983 H975 0.930 . S
C983 C978 1.418 . S
C983 C979 1.353 . S
C984 H954 0.930 . S
C984 N985 1.330 . S
C984 C986 1.446 . S
N985 Co944 2.151 . S
N985 C984 1.330 . S
N985 C989 1.418 . S
C986 H965 0.929 . S
C986 C984 1.446 . S
C986 C987 1.332 . S
C987 H967 0.931 . S
C987 C986 1.332 . S
C987 C988 1.267 . S
C988 H956 0.929 . S
C988 C987 1.267 . S
C988 C989 1.251 . S
C989 H959 0.929 . S
C989 N985 1.418 . S
C989 C988 1.251 . S
C990 H957 0.930 . S
C990 C992 1.406 . S
C990 C995 1.261 . S
C991 H958 0.930 . S
C991 N993 1.325 . S
C991 C994 1.357 . S
C992 H960 0.928 . S
C992 C990 1.406 . S
C992 N993 1.261 . S
N993 Co944 2.214 . S
N993 C991 1.325 . S
N993 C992 1.261 . S
C994 H964 0.931 . S
C994 C991 1.357 . S
C994 C995 1.312 . S
C995 H966 0.930 . S
C995 C990 1.261 . S
C995 C994 1.312 . S
C996 O968 1.214 . S
C996 O976 1.234 . S
C997 H969 0.929 . S
C997 C1000 1.391 . S
C997 C1002 1.391 . S
C998 H970 0.929 . S
C998 C999 1.390 . S
C998 N1001 1.391 . S
C999 H971 0.930 . S
C999 C998 1.390 . S
C999 C1000 1.392 . S
C1000 H972 0.929 . S
C1000 C997 1.391 . S
C1000 C999 1.392 . S
N1001 Co945 2.257 . S
N1001 C998 1.391 . S
N1001 C1002 1.388 . S
C1002 H973 0.930 . S
C1002 C997 1.391 . S
C1002 N1001 1.388 . S
Co1003 O1005 2.143 . S
Co1003 O1011 2.074 . S
Co1003 O1014 2.093 . S
Co1003 O1027 2.097 . S
Co1003 N1044 2.151 . S
Co1003 N1052 2.214 . S
Co1004 O1005 2.160 . S
Co1004 O1010 2.058 . S
Co1004 O1020 2.057 . S
Co1004 O1035 2.037 . S
Co1004 N1039 2.145 . S
Co1004 N1060 2.257 . S
O1005 Co1003 2.143 . S
O1005 Co1004 2.160 . S
C1006 O1007 1.278 . S
C1006 O1014 1.224 . S
O1007 C1006 1.278 . S
C1008 O1009 1.245 . S
C1008 O1020 1.232 . S
O1009 C1008 1.245 . S
O1010 Co1004 2.058 . S
O1010 C1036 1.269 . S
O1011 Co1003 2.074 . S
O1011 C1036 1.257 . S
H1012 C1037 0.930 . S
H1013 C1043 0.930 . S
O1014 Co1003 2.093 . S
O1014 C1006 1.224 . S
H1015 C1047 0.929 . S
H1016 C1049 0.930 . S
H1017 C1050 0.930 . S
H1018 C1048 0.929 . S
H1019 C1051 0.928 . S
O1020 Co1004 2.057 . S
O1020 C1008 1.232 . S
H1021 C1040 0.929 . S
H1022 C1041 0.929 . S
H1023 C1053 0.931 . S
H1024 C1045 0.929 . S
H1025 C1054 0.930 . S
H1026 C1046 0.931 . S
O1027 Co1003 2.097 . S
O1027 C1055 1.214 . S
H1028 C1056 0.929 . S
H1029 C1057 0.929 . S
H1030 C1058 0.930 . S
H1031 C1059 0.929 . S
H1032 C1061 0.930 . S
H1033 C1038 0.930 . S
H1034 C1042 0.930 . S
O1035 Co1004 2.037 . S
O1035 C1055 1.234 . S
C1036 O1010 1.269 . S
C1036 O1011 1.257 . S
C1037 H1012 0.930 . S
C1037 C1040 1.388 . S
C1037 C1042 1.418 . S
C1038 H1033 0.930 . S
C1038 C1041 1.404 . S
C1038 C1042 1.353 . S
N1039 Co1004 2.145 . S
N1039 C1040 1.397 . S
N1039 C1041 1.334 . S
C1040 H1021 0.929 . S
C1040 C1037 1.388 . S
C1040 N1039 1.397 . S
C1041 H1022 0.929 . S
C1041 C1038 1.404 . S
C1041 N1039 1.334 . S
C1042 H1034 0.930 . S
C1042 C1037 1.418 . S
C1042 C1038 1.353 . S
C1043 H1013 0.930 . S
C1043 N1044 1.330 . S
C1043 C1045 1.446 . S
N1044 Co1003 2.151 . S
N1044 C1043 1.330 . S
N1044 C1048 1.418 . S
C1045 H1024 0.929 . S
C1045 C1043 1.446 . S
C1045 C1046 1.332 . S
C1046 H1026 0.931 . S
C1046 C1045 1.332 . S
C1046 C1047 1.267 . S
C1047 H1015 0.929 . S
C1047 C1046 1.267 . S
C1047 C1048 1.251 . S
C1048 H1018 0.929 . S
C1048 N1044 1.418 . S
C1048 C1047 1.251 . S
C1049 H1016 0.930 . S
C1049 C1051 1.406 . S
C1049 C1054 1.261 . S
C1050 H1017 0.930 . S
C1050 N1052 1.325 . S
C1050 C1053 1.357 . S
C1051 H1019 0.928 . S
C1051 C1049 1.406 . S
C1051 N1052 1.261 . S
N1052 Co1003 2.214 . S
N1052 C1050 1.325 . S
N1052 C1051 1.261 . S
C1053 H1023 0.931 . S
C1053 C1050 1.357 . S
C1053 C1054 1.312 . S
C1054 H1025 0.930 . S
C1054 C1049 1.261 . S
C1054 C1053 1.312 . S
C1055 O1027 1.214 . S
C1055 O1035 1.234 . S
C1056 H1028 0.929 . S
C1056 C1059 1.391 . S
C1056 C1061 1.391 . S
C1057 H1029 0.929 . S
C1057 C1058 1.390 . S
C1057 N1060 1.391 . S
C1058 H1030 0.930 . S
C1058 C1057 1.390 . S
C1058 C1059 1.392 . S
C1059 H1031 0.929 . S
C1059 C1056 1.391 . S
C1059 C1058 1.392 . S
N1060 Co1004 2.257 . S
N1060 C1057 1.391 . S
N1060 C1061 1.388 . S
C1061 H1032 0.930 . S
C1061 C1056 1.391 . S
C1061 N1060 1.388 . S
Co1062 O1064 2.143 . S
Co1062 O1070 2.074 . S
Co1062 O1073 2.093 . S
Co1062 O1086 2.097 . S
Co1062 N1103 2.151 . S
Co1062 N1111 2.214 . S
Co1063 O1064 2.160 . S
Co1063 O1069 2.058 . S
Co1063 O1079 2.057 . S
Co1063 O1094 2.037 . S
Co1063 N1098 2.145 . S
Co1063 N1119 2.257 . S
O1064 Co1062 2.143 . S
O1064 Co1063 2.160 . S
C1065 O1066 1.278 . S
C1065 O1073 1.224 . S
O1066 C1065 1.278 . S
C1067 O1068 1.245 . S
C1067 O1079 1.232 . S
O1068 C1067 1.245 . S
O1069 Co1063 2.058 . S
O1069 C1095 1.269 . S
O1070 Co1062 2.074 . S
O1070 C1095 1.257 . S
H1071 C1096 0.930 . S
H1072 C1102 0.930 . S
O1073 Co1062 2.093 . S
O1073 C1065 1.224 . S
H1074 C1106 0.929 . S
H1075 C1108 0.930 . S
H1076 C1109 0.930 . S
H1077 C1107 0.929 . S
H1078 C1110 0.928 . S
O1079 Co1063 2.057 . S
O1079 C1067 1.232 . S
H1080 C1099 0.929 . S
H1081 C1100 0.929 . S
H1082 C1112 0.931 . S
H1083 C1104 0.929 . S
H1084 C1113 0.930 . S
H1085 C1105 0.931 . S
O1086 Co1062 2.097 . S
O1086 C1114 1.214 . S
H1087 C1115 0.929 . S
H1088 C1116 0.929 . S
H1089 C1117 0.930 . S
H1090 C1118 0.929 . S
H1091 C1120 0.930 . S
H1092 C1097 0.930 . S
H1093 C1101 0.930 . S
O1094 Co1063 2.037 . S
O1094 C1114 1.234 . S
C1095 O1069 1.269 . S
C1095 O1070 1.257 . S
C1096 H1071 0.930 . S
C1096 C1099 1.388 . S
C1096 C1101 1.418 . S
C1097 H1092 0.930 . S
C1097 C1100 1.404 . S
C1097 C1101 1.353 . S
N1098 Co1063 2.145 . S
N1098 C1099 1.397 . S
N1098 C1100 1.334 . S
C1099 H1080 0.929 . S
C1099 C1096 1.388 . S
C1099 N1098 1.397 . S
C1100 H1081 0.929 . S
C1100 C1097 1.404 . S
C1100 N1098 1.334 . S
C1101 H1093 0.930 . S
C1101 C1096 1.418 . S
C1101 C1097 1.353 . S
C1102 H1072 0.930 . S
C1102 N1103 1.330 . S
C1102 C1104 1.446 . S
N1103 Co1062 2.151 . S
N1103 C1102 1.330 . S
N1103 C1107 1.418 . S
C1104 H1083 0.929 . S
C1104 C1102 1.446 . S
C1104 C1105 1.332 . S
C1105 H1085 0.931 . S
C1105 C1104 1.332 . S
C1105 C1106 1.267 . S
C1106 H1074 0.929 . S
C1106 C1105 1.267 . S
C1106 C1107 1.251 . S
C1107 H1077 0.929 . S
C1107 N1103 1.418 . S
C1107 C1106 1.251 . S
C1108 H1075 0.930 . S
C1108 C1110 1.406 . S
C1108 C1113 1.261 . S
C1109 H1076 0.930 . S
C1109 N1111 1.325 . S
C1109 C1112 1.357 . S
C1110 H1078 0.928 . S
C1110 C1108 1.406 . S
C1110 N1111 1.261 . S
N1111 Co1062 2.214 . S
N1111 C1109 1.325 . S
N1111 C1110 1.261 . S
C1112 H1082 0.931 . S
C1112 C1109 1.357 . S
C1112 C1113 1.312 . S
C1113 H1084 0.930 . S
C1113 C1108 1.261 . S
C1113 C1112 1.312 . S
C1114 O1086 1.214 . S
C1114 O1094 1.234 . S
C1115 H1087 0.929 . S
C1115 C1118 1.391 . S
C1115 C1120 1.391 . S
C1116 H1088 0.929 . S
C1116 C1117 1.390 . S
C1116 N1119 1.391 . S
C1117 H1089 0.930 . S
C1117 C1116 1.390 . S
C1117 C1118 1.392 . S
C1118 H1090 0.929 . S
C1118 C1115 1.391 . S
C1118 C1117 1.392 . S
N1119 Co1063 2.257 . S
N1119 C1116 1.391 . S
N1119 C1120 1.388 . S
C1120 H1091 0.930 . S
C1120 C1115 1.391 . S
C1120 N1119 1.388 . S
Co1121 O1123 2.143 . S
Co1121 O1129 2.074 . S
Co1121 O1132 2.093 . S
Co1121 O1145 2.097 . S
Co1121 N1162 2.151 . S
Co1121 N1170 2.214 . S
Co1122 O1123 2.160 . S
Co1122 O1128 2.058 . S
Co1122 O1138 2.057 . S
Co1122 O1153 2.037 . S
Co1122 N1157 2.145 . S
Co1122 N1178 2.257 . S
O1123 Co1121 2.143 . S
O1123 Co1122 2.160 . S
C1124 O1125 1.278 . S
C1124 O1132 1.224 . S
O1125 C1124 1.278 . S
C1126 O1127 1.245 . S
C1126 O1138 1.232 . S
O1127 C1126 1.245 . S
O1128 Co1122 2.058 . S
O1128 C1154 1.269 . S
O1129 Co1121 2.074 . S
O1129 C1154 1.257 . S
H1130 C1155 0.930 . S
H1131 C1161 0.930 . S
O1132 Co1121 2.093 . S
O1132 C1124 1.224 . S
H1133 C1165 0.929 . S
H1134 C1167 0.930 . S
H1135 C1168 0.930 . S
H1136 C1166 0.929 . S
H1137 C1169 0.928 . S
O1138 Co1122 2.057 . S
O1138 C1126 1.232 . S
H1139 C1158 0.929 . S
H1140 C1159 0.929 . S
H1141 C1171 0.931 . S
H1142 C1163 0.929 . S
H1143 C1172 0.930 . S
H1144 C1164 0.931 . S
O1145 Co1121 2.097 . S
O1145 C1173 1.214 . S
H1146 C1174 0.929 . S
H1147 C1175 0.929 . S
H1148 C1176 0.930 . S
H1149 C1177 0.929 . S
H1150 C1179 0.930 . S
H1151 C1156 0.930 . S
H1152 C1160 0.930 . S
O1153 Co1122 2.037 . S
O1153 C1173 1.234 . S
C1154 O1128 1.269 . S
C1154 O1129 1.257 . S
C1155 H1130 0.930 . S
C1155 C1158 1.388 . S
C1155 C1160 1.418 . S
C1156 H1151 0.930 . S
C1156 C1159 1.404 . S
C1156 C1160 1.353 . S
N1157 Co1122 2.145 . S
N1157 C1158 1.397 . S
N1157 C1159 1.334 . S
C1158 H1139 0.929 . S
C1158 C1155 1.388 . S
C1158 N1157 1.397 . S
C1159 H1140 0.929 . S
C1159 C1156 1.404 . S
C1159 N1157 1.334 . S
C1160 H1152 0.930 . S
C1160 C1155 1.418 . S
C1160 C1156 1.353 . S
C1161 H1131 0.930 . S
C1161 N1162 1.330 . S
C1161 C1163 1.446 . S
N1162 Co1121 2.151 . S
N1162 C1161 1.330 . S
N1162 C1166 1.418 . S
C1163 H1142 0.929 . S
C1163 C1161 1.446 . S
C1163 C1164 1.332 . S
C1164 H1144 0.931 . S
C1164 C1163 1.332 . S
C1164 C1165 1.267 . S
C1165 H1133 0.929 . S
C1165 C1164 1.267 . S
C1165 C1166 1.251 . S
C1166 H1136 0.929 . S
C1166 N1162 1.418 . S
C1166 C1165 1.251 . S
C1167 H1134 0.930 . S
C1167 C1169 1.406 . S
C1167 C1172 1.261 . S
C1168 H1135 0.930 . S
C1168 N1170 1.325 . S
C1168 C1171 1.357 . S
C1169 H1137 0.928 . S
C1169 C1167 1.406 . S
C1169 N1170 1.261 . S
N1170 Co1121 2.214 . S
N1170 C1168 1.325 . S
N1170 C1169 1.261 . S
C1171 H1141 0.931 . S
C1171 C1168 1.357 . S
C1171 C1172 1.312 . S
C1172 H1143 0.930 . S
C1172 C1167 1.261 . S
C1172 C1171 1.312 . S
C1173 O1145 1.214 . S
C1173 O1153 1.234 . S
C1174 H1146 0.929 . S
C1174 C1177 1.391 . S
C1174 C1179 1.391 . S
C1175 H1147 0.929 . S
C1175 C1176 1.390 . S
C1175 N1178 1.391 . S
C1176 H1148 0.930 . S
C1176 C1175 1.390 . S
C1176 C1177 1.392 . S
C1177 H1149 0.929 . S
C1177 C1174 1.391 . S
C1177 C1176 1.392 . S
N1178 Co1122 2.257 . S
N1178 C1175 1.391 . S
N1178 C1179 1.388 . S
C1179 H1150 0.930 . S
C1179 C1174 1.391 . S
C1179 N1178 1.388 . S
Co1180 O1182 2.143 . S
Co1180 O1188 2.074 . S
Co1180 O1191 2.093 . S
Co1180 O1204 2.097 . S
Co1180 N1221 2.151 . S
Co1180 N1229 2.214 . S
Co1181 O1182 2.160 . S
Co1181 O1187 2.058 . S
Co1181 O1197 2.057 . S
Co1181 O1212 2.037 . S
Co1181 N1216 2.145 . S
Co1181 N1237 2.257 . S
O1182 Co1180 2.143 . S
O1182 Co1181 2.160 . S
C1183 O1184 1.278 . S
C1183 O1191 1.224 . S
O1184 C1183 1.278 . S
C1185 O1186 1.245 . S
C1185 O1197 1.232 . S
O1186 C1185 1.245 . S
O1187 Co1181 2.058 . S
O1187 C1213 1.269 . S
O1188 Co1180 2.074 . S
O1188 C1213 1.257 . S
H1189 C1214 0.930 . S
H1190 C1220 0.930 . S
O1191 Co1180 2.093 . S
O1191 C1183 1.224 . S
H1192 C1224 0.929 . S
H1193 C1226 0.930 . S
H1194 C1227 0.930 . S
H1195 C1225 0.929 . S
H1196 C1228 0.928 . S
O1197 Co1181 2.057 . S
O1197 C1185 1.232 . S
H1198 C1217 0.929 . S
H1199 C1218 0.929 . S
H1200 C1230 0.931 . S
H1201 C1222 0.929 . S
H1202 C1231 0.930 . S
H1203 C1223 0.931 . S
O1204 Co1180 2.097 . S
O1204 C1232 1.214 . S
H1205 C1233 0.929 . S
H1206 C1234 0.929 . S
H1207 C1235 0.930 . S
H1208 C1236 0.929 . S
H1209 C1238 0.930 . S
H1210 C1215 0.930 . S
H1211 C1219 0.930 . S
O1212 Co1181 2.037 . S
O1212 C1232 1.234 . S
C1213 O1187 1.269 . S
C1213 O1188 1.257 . S
C1214 H1189 0.930 . S
C1214 C1217 1.388 . S
C1214 C1219 1.418 . S
C1215 H1210 0.930 . S
C1215 C1218 1.404 . S
C1215 C1219 1.353 . S
N1216 Co1181 2.145 . S
N1216 C1217 1.397 . S
N1216 C1218 1.334 . S
C1217 H1198 0.929 . S
C1217 C1214 1.388 . S
C1217 N1216 1.397 . S
C1218 H1199 0.929 . S
C1218 C1215 1.404 . S
C1218 N1216 1.334 . S
C1219 H1211 0.930 . S
C1219 C1214 1.418 . S
C1219 C1215 1.353 . S
C1220 H1190 0.930 . S
C1220 N1221 1.330 . S
C1220 C1222 1.446 . S
N1221 Co1180 2.151 . S
N1221 C1220 1.330 . S
N1221 C1225 1.418 . S
C1222 H1201 0.929 . S
C1222 C1220 1.446 . S
C1222 C1223 1.332 . S
C1223 H1203 0.931 . S
C1223 C1222 1.332 . S
C1223 C1224 1.267 . S
C1224 H1192 0.929 . S
C1224 C1223 1.267 . S
C1224 C1225 1.251 . S
C1225 H1195 0.929 . S
C1225 N1221 1.418 . S
C1225 C1224 1.251 . S
C1226 H1193 0.930 . S
C1226 C1228 1.406 . S
C1226 C1231 1.261 . S
C1227 H1194 0.930 . S
C1227 N1229 1.325 . S
C1227 C1230 1.357 . S
C1228 H1196 0.928 . S
C1228 C1226 1.406 . S
C1228 N1229 1.261 . S
N1229 Co1180 2.214 . S
N1229 C1227 1.325 . S
N1229 C1228 1.261 . S
C1230 H1200 0.931 . S
C1230 C1227 1.357 . S
C1230 C1231 1.312 . S
C1231 H1202 0.930 . S
C1231 C1226 1.261 . S
C1231 C1230 1.312 . S
C1232 O1204 1.214 . S
C1232 O1212 1.234 . S
C1233 H1205 0.929 . S
C1233 C1236 1.391 . S
C1233 C1238 1.391 . S
C1234 H1206 0.929 . S
C1234 C1235 1.390 . S
C1234 N1237 1.391 . S
C1235 H1207 0.930 . S
C1235 C1234 1.390 . S
C1235 C1236 1.392 . S
C1236 H1208 0.929 . S
C1236 C1233 1.391 . S
C1236 C1235 1.392 . S
N1237 Co1181 2.257 . S
N1237 C1234 1.391 . S
N1237 C1238 1.388 . S
C1238 H1209 0.930 . S
C1238 C1233 1.391 . S
C1238 N1237 1.388 . S
Co1239 O1241 2.143 . S
Co1239 O1247 2.074 . S
Co1239 O1250 2.093 . S
Co1239 O1263 2.097 . S
Co1239 N1280 2.151 . S
Co1239 N1288 2.214 . S
Co1240 O1241 2.160 . S
Co1240 O1246 2.058 . S
Co1240 O1256 2.057 . S
Co1240 O1271 2.037 . S
Co1240 N1275 2.145 . S
Co1240 N1296 2.257 . S
O1241 Co1239 2.143 . S
O1241 Co1240 2.160 . S
C1242 O1243 1.278 . S
C1242 O1250 1.224 . S
O1243 C1242 1.278 . S
C1244 O1245 1.245 . S
C1244 O1256 1.232 . S
O1245 C1244 1.245 . S
O1246 Co1240 2.058 . S
O1246 C1272 1.269 . S
O1247 Co1239 2.074 . S
O1247 C1272 1.257 . S
H1248 C1273 0.930 . S
H1249 C1279 0.930 . S
O1250 Co1239 2.093 . S
O1250 C1242 1.224 . S
H1251 C1283 0.929 . S
H1252 C1285 0.930 . S
H1253 C1286 0.930 . S
H1254 C1284 0.929 . S
H1255 C1287 0.928 . S
O1256 Co1240 2.057 . S
O1256 C1244 1.232 . S
H1257 C1276 0.929 . S
H1258 C1277 0.929 . S
H1259 C1289 0.931 . S
H1260 C1281 0.929 . S
H1261 C1290 0.930 . S
H1262 C1282 0.931 . S
O1263 Co1239 2.097 . S
O1263 C1291 1.214 . S
H1264 C1292 0.929 . S
H1265 C1293 0.929 . S
H1266 C1294 0.930 . S
H1267 C1295 0.929 . S
H1268 C1297 0.930 . S
H1269 C1274 0.930 . S
H1270 C1278 0.930 . S
O1271 Co1240 2.037 . S
O1271 C1291 1.234 . S
C1272 O1246 1.269 . S
C1272 O1247 1.257 . S
C1273 H1248 0.930 . S
C1273 C1276 1.388 . S
C1273 C1278 1.418 . S
C1274 H1269 0.930 . S
C1274 C1277 1.404 . S
C1274 C1278 1.353 . S
N1275 Co1240 2.145 . S
N1275 C1276 1.397 . S
N1275 C1277 1.334 . S
C1276 H1257 0.929 . S
C1276 C1273 1.388 . S
C1276 N1275 1.397 . S
C1277 H1258 0.929 . S
C1277 C1274 1.404 . S
C1277 N1275 1.334 . S
C1278 H1270 0.930 . S
C1278 C1273 1.418 . S
C1278 C1274 1.353 . S
C1279 H1249 0.930 . S
C1279 N1280 1.330 . S
C1279 C1281 1.446 . S
N1280 Co1239 2.151 . S
N1280 C1279 1.330 . S
N1280 C1284 1.418 . S
C1281 H1260 0.929 . S
C1281 C1279 1.446 . S
C1281 C1282 1.332 . S
C1282 H1262 0.931 . S
C1282 C1281 1.332 . S
C1282 C1283 1.267 . S
C1283 H1251 0.929 . S
C1283 C1282 1.267 . S
C1283 C1284 1.251 . S
C1284 H1254 0.929 . S
C1284 N1280 1.418 . S
C1284 C1283 1.251 . S
C1285 H1252 0.930 . S
C1285 C1287 1.406 . S
C1285 C1290 1.261 . S
C1286 H1253 0.930 . S
C1286 N1288 1.325 . S
C1286 C1289 1.357 . S
C1287 H1255 0.928 . S
C1287 C1285 1.406 . S
C1287 N1288 1.261 . S
N1288 Co1239 2.214 . S
N1288 C1286 1.325 . S
N1288 C1287 1.261 . S
C1289 H1259 0.931 . S
C1289 C1286 1.357 . S
C1289 C1290 1.312 . S
C1290 H1261 0.930 . S
C1290 C1285 1.261 . S
C1290 C1289 1.312 . S
C1291 O1263 1.214 . S
C1291 O1271 1.234 . S
C1292 H1264 0.929 . S
C1292 C1295 1.391 . S
C1292 C1297 1.391 . S
C1293 H1265 0.929 . S
C1293 C1294 1.390 . S
C1293 N1296 1.391 . S
C1294 H1266 0.930 . S
C1294 C1293 1.390 . S
C1294 C1295 1.392 . S
C1295 H1267 0.929 . S
C1295 C1292 1.391 . S
C1295 C1294 1.392 . S
N1296 Co1240 2.257 . S
N1296 C1293 1.391 . S
N1296 C1297 1.388 . S
C1297 H1268 0.930 . S
C1297 C1292 1.391 . S
C1297 N1296 1.388 . S
Co1298 O1300 2.143 . S
Co1298 O1306 2.074 . S
Co1298 O1309 2.093 . S
Co1298 O1322 2.097 . S
Co1298 N1339 2.151 . S
Co1298 N1347 2.214 . S
Co1299 O1300 2.160 . S
Co1299 O1305 2.058 . S
Co1299 O1315 2.057 . S
Co1299 O1330 2.037 . S
Co1299 N1334 2.145 . S
Co1299 N1355 2.257 . S
O1300 Co1298 2.143 . S
O1300 Co1299 2.160 . S
C1301 O1302 1.278 . S
C1301 O1309 1.224 . S
O1302 C1301 1.278 . S
C1303 O1304 1.245 . S
C1303 O1315 1.232 . S
O1304 C1303 1.245 . S
O1305 Co1299 2.058 . S
O1305 C1331 1.269 . S
O1306 Co1298 2.074 . S
O1306 C1331 1.257 . S
H1307 C1332 0.930 . S
H1308 C1338 0.930 . S
O1309 Co1298 2.093 . S
O1309 C1301 1.224 . S
H1310 C1342 0.929 . S
H1311 C1344 0.930 . S
H1312 C1345 0.930 . S
H1313 C1343 0.929 . S
H1314 C1346 0.928 . S
O1315 Co1299 2.057 . S
O1315 C1303 1.232 . S
H1316 C1335 0.929 . S
H1317 C1336 0.929 . S
H1318 C1348 0.931 . S
H1319 C1340 0.929 . S
H1320 C1349 0.930 . S
H1321 C1341 0.931 . S
O1322 Co1298 2.097 . S
O1322 C1350 1.214 . S
H1323 C1351 0.929 . S
H1324 C1352 0.929 . S
H1325 C1353 0.930 . S
H1326 C1354 0.929 . S
H1327 C1356 0.930 . S
H1328 C1333 0.930 . S
H1329 C1337 0.930 . S
O1330 Co1299 2.037 . S
O1330 C1350 1.234 . S
C1331 O1305 1.269 . S
C1331 O1306 1.257 . S
C1332 H1307 0.930 . S
C1332 C1335 1.388 . S
C1332 C1337 1.418 . S
C1333 H1328 0.930 . S
C1333 C1336 1.404 . S
C1333 C1337 1.353 . S
N1334 Co1299 2.145 . S
N1334 C1335 1.397 . S
N1334 C1336 1.334 . S
C1335 H1316 0.929 . S
C1335 C1332 1.388 . S
C1335 N1334 1.397 . S
C1336 H1317 0.929 . S
C1336 C1333 1.404 . S
C1336 N1334 1.334 . S
C1337 H1329 0.930 . S
C1337 C1332 1.418 . S
C1337 C1333 1.353 . S
C1338 H1308 0.930 . S
C1338 N1339 1.330 . S
C1338 C1340 1.446 . S
N1339 Co1298 2.151 . S
N1339 C1338 1.330 . S
N1339 C1343 1.418 . S
C1340 H1319 0.929 . S
C1340 C1338 1.446 . S
C1340 C1341 1.332 . S
C1341 H1321 0.931 . S
C1341 C1340 1.332 . S
C1341 C1342 1.267 . S
C1342 H1310 0.929 . S
C1342 C1341 1.267 . S
C1342 C1343 1.251 . S
C1343 H1313 0.929 . S
C1343 N1339 1.418 . S
C1343 C1342 1.251 . S
C1344 H1311 0.930 . S
C1344 C1346 1.406 . S
C1344 C1349 1.261 . S
C1345 H1312 0.930 . S
C1345 N1347 1.325 . S
C1345 C1348 1.357 . S
C1346 H1314 0.928 . S
C1346 C1344 1.406 . S
C1346 N1347 1.261 . S
N1347 Co1298 2.214 . S
N1347 C1345 1.325 . S
N1347 C1346 1.261 . S
C1348 H1318 0.931 . S
C1348 C1345 1.357 . S
C1348 C1349 1.312 . S
C1349 H1320 0.930 . S
C1349 C1344 1.261 . S
C1349 C1348 1.312 . S
C1350 O1322 1.214 . S
C1350 O1330 1.234 . S
C1351 H1323 0.929 . S
C1351 C1354 1.391 . S
C1351 C1356 1.391 . S
C1352 H1324 0.929 . S
C1352 C1353 1.390 . S
C1352 N1355 1.391 . S
C1353 H1325 0.930 . S
C1353 C1352 1.390 . S
C1353 C1354 1.392 . S
C1354 H1326 0.929 . S
C1354 C1351 1.391 . S
C1354 C1353 1.392 . S
N1355 Co1299 2.257 . S
N1355 C1352 1.391 . S
N1355 C1356 1.388 . S
C1356 H1327 0.930 . S
C1356 C1351 1.391 . S
C1356 N1355 1.388 . S
Co1357 O1359 2.143 . S
Co1357 O1365 2.074 . S
Co1357 O1368 2.093 . S
Co1357 O1381 2.097 . S
Co1357 N1398 2.151 . S
Co1357 N1406 2.214 . S
Co1358 O1359 2.160 . S
Co1358 O1364 2.058 . S
Co1358 O1374 2.057 . S
Co1358 O1389 2.037 . S
Co1358 N1393 2.145 . S
Co1358 N1414 2.257 . S
O1359 Co1357 2.143 . S
O1359 Co1358 2.160 . S
C1360 O1361 1.278 . S
C1360 O1368 1.224 . S
O1361 C1360 1.278 . S
C1362 O1363 1.245 . S
C1362 O1374 1.232 . S
O1363 C1362 1.245 . S
O1364 Co1358 2.058 . S
O1364 C1390 1.269 . S
O1365 Co1357 2.074 . S
O1365 C1390 1.257 . S
H1366 C1391 0.930 . S
H1367 C1397 0.930 . S
O1368 Co1357 2.093 . S
O1368 C1360 1.224 . S
H1369 C1401 0.929 . S
H1370 C1403 0.930 . S
H1371 C1404 0.930 . S
H1372 C1402 0.929 . S
H1373 C1405 0.928 . S
O1374 Co1358 2.057 . S
O1374 C1362 1.232 . S
H1375 C1394 0.929 . S
H1376 C1395 0.929 . S
H1377 C1407 0.931 . S
H1378 C1399 0.929 . S
H1379 C1408 0.930 . S
H1380 C1400 0.931 . S
O1381 Co1357 2.097 . S
O1381 C1409 1.214 . S
H1382 C1410 0.929 . S
H1383 C1411 0.929 . S
H1384 C1412 0.930 . S
H1385 C1413 0.929 . S
H1386 C1415 0.930 . S
H1387 C1392 0.930 . S
H1388 C1396 0.930 . S
O1389 Co1358 2.037 . S
O1389 C1409 1.234 . S
C1390 O1364 1.269 . S
C1390 O1365 1.257 . S
C1391 H1366 0.930 . S
C1391 C1394 1.388 . S
C1391 C1396 1.418 . S
C1392 H1387 0.930 . S
C1392 C1395 1.404 . S
C1392 C1396 1.353 . S
N1393 Co1358 2.145 . S
N1393 C1394 1.397 . S
N1393 C1395 1.334 . S
C1394 H1375 0.929 . S
C1394 C1391 1.388 . S
C1394 N1393 1.397 . S
C1395 H1376 0.929 . S
C1395 C1392 1.404 . S
C1395 N1393 1.334 . S
C1396 H1388 0.930 . S
C1396 C1391 1.418 . S
C1396 C1392 1.353 . S
C1397 H1367 0.930 . S
C1397 N1398 1.330 . S
C1397 C1399 1.446 . S
N1398 Co1357 2.151 . S
N1398 C1397 1.330 . S
N1398 C1402 1.418 . S
C1399 H1378 0.929 . S
C1399 C1397 1.446 . S
C1399 C1400 1.332 . S
C1400 H1380 0.931 . S
C1400 C1399 1.332 . S
C1400 C1401 1.267 . S
C1401 H1369 0.929 . S
C1401 C1400 1.267 . S
C1401 C1402 1.251 . S
C1402 H1372 0.929 . S
C1402 N1398 1.418 . S
C1402 C1401 1.251 . S
C1403 H1370 0.930 . S
C1403 C1405 1.406 . S
C1403 C1408 1.261 . S
C1404 H1371 0.930 . S
C1404 N1406 1.325 . S
C1404 C1407 1.357 . S
C1405 H1373 0.928 . S
C1405 C1403 1.406 . S
C1405 N1406 1.261 . S
N1406 Co1357 2.214 . S
N1406 C1404 1.325 . S
N1406 C1405 1.261 . S
C1407 H1377 0.931 . S
C1407 C1404 1.357 . S
C1407 C1408 1.312 . S
C1408 H1379 0.930 . S
C1408 C1403 1.261 . S
C1408 C1407 1.312 . S
C1409 O1381 1.214 . S
C1409 O1389 1.234 . S
C1410 H1382 0.929 . S
C1410 C1413 1.391 . S
C1410 C1415 1.391 . S
C1411 H1383 0.929 . S
C1411 C1412 1.390 . S
C1411 N1414 1.391 . S
C1412 H1384 0.930 . S
C1412 C1411 1.390 . S
C1412 C1413 1.392 . S
C1413 H1385 0.929 . S
C1413 C1410 1.391 . S
C1413 C1412 1.392 . S
N1414 Co1358 2.257 . S
N1414 C1411 1.391 . S
N1414 C1415 1.388 . S
C1415 H1386 0.930 . S
C1415 C1410 1.391 . S
C1415 N1414 1.388 . S
Co1416 O1418 2.143 . S
Co1416 O1424 2.074 . S
Co1416 O1427 2.093 . S
Co1416 O1440 2.097 . S
Co1416 N1457 2.151 . S
Co1416 N1465 2.214 . S
Co1417 O1418 2.160 . S
Co1417 O1423 2.058 . S
Co1417 O1433 2.057 . S
Co1417 O1448 2.037 . S
Co1417 N1452 2.145 . S
Co1417 N1473 2.257 . S
O1418 Co1416 2.143 . S
O1418 Co1417 2.160 . S
C1419 O1420 1.278 . S
C1419 O1427 1.224 . S
O1420 C1419 1.278 . S
C1421 O1422 1.245 . S
C1421 O1433 1.232 . S
O1422 C1421 1.245 . S
O1423 Co1417 2.058 . S
O1423 C1449 1.269 . S
O1424 Co1416 2.074 . S
O1424 C1449 1.257 . S
H1425 C1450 0.930 . S
H1426 C1456 0.930 . S
O1427 Co1416 2.093 . S
O1427 C1419 1.224 . S
H1428 C1460 0.929 . S
H1429 C1462 0.930 . S
H1430 C1463 0.930 . S
H1431 C1461 0.929 . S
H1432 C1464 0.928 . S
O1433 Co1417 2.057 . S
O1433 C1421 1.232 . S
H1434 C1453 0.929 . S
H1435 C1454 0.929 . S
H1436 C1466 0.931 . S
H1437 C1458 0.929 . S
H1438 C1467 0.930 . S
H1439 C1459 0.931 . S
O1440 Co1416 2.097 . S
O1440 C1468 1.214 . S
H1441 C1469 0.929 . S
H1442 C1470 0.929 . S
H1443 C1471 0.930 . S
H1444 C1472 0.929 . S
H1445 C1474 0.930 . S
H1446 C1451 0.930 . S
H1447 C1455 0.930 . S
O1448 Co1417 2.037 . S
O1448 C1468 1.234 . S
C1449 O1423 1.269 . S
C1449 O1424 1.257 . S
C1450 H1425 0.930 . S
C1450 C1453 1.388 . S
C1450 C1455 1.418 . S
C1451 H1446 0.930 . S
C1451 C1454 1.404 . S
C1451 C1455 1.353 . S
N1452 Co1417 2.145 . S
N1452 C1453 1.397 . S
N1452 C1454 1.334 . S
C1453 H1434 0.929 . S
C1453 C1450 1.388 . S
C1453 N1452 1.397 . S
C1454 H1435 0.929 . S
C1454 C1451 1.404 . S
C1454 N1452 1.334 . S
C1455 H1447 0.930 . S
C1455 C1450 1.418 . S
C1455 C1451 1.353 . S
C1456 H1426 0.930 . S
C1456 N1457 1.330 . S
C1456 C1458 1.446 . S
N1457 Co1416 2.151 . S
N1457 C1456 1.330 . S
N1457 C1461 1.418 . S
C1458 H1437 0.929 . S
C1458 C1456 1.446 . S
C1458 C1459 1.332 . S
C1459 H1439 0.931 . S
C1459 C1458 1.332 . S
C1459 C1460 1.267 . S
C1460 H1428 0.929 . S
C1460 C1459 1.267 . S
C1460 C1461 1.251 . S
C1461 H1431 0.929 . S
C1461 N1457 1.418 . S
C1461 C1460 1.251 . S
C1462 H1429 0.930 . S
C1462 C1464 1.406 . S
C1462 C1467 1.261 . S
C1463 H1430 0.930 . S
C1463 N1465 1.325 . S
C1463 C1466 1.357 . S
C1464 H1432 0.928 . S
C1464 C1462 1.406 . S
C1464 N1465 1.261 . S
N1465 Co1416 2.214 . S
N1465 C1463 1.325 . S
N1465 C1464 1.261 . S
C1466 H1436 0.931 . S
C1466 C1463 1.357 . S
C1466 C1467 1.312 . S
C1467 H1438 0.930 . S
C1467 C1462 1.261 . S
C1467 C1466 1.312 . S
C1468 O1440 1.214 . S
C1468 O1448 1.234 . S
C1469 H1441 0.929 . S
C1469 C1472 1.391 . S
C1469 C1474 1.391 . S
C1470 H1442 0.929 . S
C1470 C1471 1.390 . S
C1470 N1473 1.391 . S
C1471 H1443 0.930 . S
C1471 C1470 1.390 . S
C1471 C1472 1.392 . S
C1472 H1444 0.929 . S
C1472 C1469 1.391 . S
C1472 C1471 1.392 . S
N1473 Co1417 2.257 . S
N1473 C1470 1.391 . S
N1473 C1474 1.388 . S
C1474 H1445 0.930 . S
C1474 C1469 1.391 . S
C1474 N1473 1.388 . S
Co1475 O1477 2.143 . S
Co1475 O1483 2.074 . S
Co1475 O1486 2.093 . S
Co1475 O1499 2.097 . S
Co1475 N1516 2.151 . S
Co1475 N1524 2.214 . S
Co1476 O1477 2.160 . S
Co1476 O1482 2.058 . S
Co1476 O1492 2.057 . S
Co1476 O1507 2.037 . S
Co1476 N1511 2.145 . S
Co1476 N1532 2.257 . S
O1477 Co1475 2.143 . S
O1477 Co1476 2.160 . S
C1478 O1479 1.278 . S
C1478 O1486 1.224 . S
O1479 C1478 1.278 . S
C1480 O1481 1.245 . S
C1480 O1492 1.232 . S
O1481 C1480 1.245 . S
O1482 Co1476 2.058 . S
O1482 C1508 1.269 . S
O1483 Co1475 2.074 . S
O1483 C1508 1.257 . S
H1484 C1509 0.930 . S
H1485 C1515 0.930 . S
O1486 Co1475 2.093 . S
O1486 C1478 1.224 . S
H1487 C1519 0.929 . S
H1488 C1521 0.930 . S
H1489 C1522 0.930 . S
H1490 C1520 0.929 . S
H1491 C1523 0.928 . S
O1492 Co1476 2.057 . S
O1492 C1480 1.232 . S
H1493 C1512 0.929 . S
H1494 C1513 0.929 . S
H1495 C1525 0.931 . S
H1496 C1517 0.929 . S
H1497 C1526 0.930 . S
H1498 C1518 0.931 . S
O1499 Co1475 2.097 . S
O1499 C1527 1.214 . S
H1500 C1528 0.929 . S
H1501 C1529 0.929 . S
H1502 C1530 0.930 . S
H1503 C1531 0.929 . S
H1504 C1533 0.930 . S
H1505 C1510 0.930 . S
H1506 C1514 0.930 . S
O1507 Co1476 2.037 . S
O1507 C1527 1.234 . S
C1508 O1482 1.269 . S
C1508 O1483 1.257 . S
C1509 H1484 0.930 . S
C1509 C1512 1.388 . S
C1509 C1514 1.418 . S
C1510 H1505 0.930 . S
C1510 C1513 1.404 . S
C1510 C1514 1.353 . S
N1511 Co1476 2.145 . S
N1511 C1512 1.397 . S
N1511 C1513 1.334 . S
C1512 H1493 0.929 . S
C1512 C1509 1.388 . S
C1512 N1511 1.397 . S
C1513 H1494 0.929 . S
C1513 C1510 1.404 . S
C1513 N1511 1.334 . S
C1514 H1506 0.930 . S
C1514 C1509 1.418 . S
C1514 C1510 1.353 . S
C1515 H1485 0.930 . S
C1515 N1516 1.330 . S
C1515 C1517 1.446 . S
N1516 Co1475 2.151 . S
N1516 C1515 1.330 . S
N1516 C1520 1.418 . S
C1517 H1496 0.929 . S
C1517 C1515 1.446 . S
C1517 C1518 1.332 . S
C1518 H1498 0.931 . S
C1518 C1517 1.332 . S
C1518 C1519 1.267 . S
C1519 H1487 0.929 . S
C1519 C1518 1.267 . S
C1519 C1520 1.251 . S
C1520 H1490 0.929 . S
C1520 N1516 1.418 . S
C1520 C1519 1.251 . S
C1521 H1488 0.930 . S
C1521 C1523 1.406 . S
C1521 C1526 1.261 . S
C1522 H1489 0.930 . S
C1522 N1524 1.325 . S
C1522 C1525 1.357 . S
C1523 H1491 0.928 . S
C1523 C1521 1.406 . S
C1523 N1524 1.261 . S
N1524 Co1475 2.214 . S
N1524 C1522 1.325 . S
N1524 C1523 1.261 . S
C1525 H1495 0.931 . S
C1525 C1522 1.357 . S
C1525 C1526 1.312 . S
C1526 H1497 0.930 . S
C1526 C1521 1.261 . S
C1526 C1525 1.312 . S
C1527 O1499 1.214 . S
C1527 O1507 1.234 . S
C1528 H1500 0.929 . S
C1528 C1531 1.391 . S
C1528 C1533 1.391 . S
C1529 H1501 0.929 . S
C1529 C1530 1.390 . S
C1529 N1532 1.391 . S
C1530 H1502 0.930 . S
C1530 C1529 1.390 . S
C1530 C1531 1.392 . S
C1531 H1503 0.929 . S
C1531 C1528 1.391 . S
C1531 C1530 1.392 . S
N1532 Co1476 2.257 . S
N1532 C1529 1.391 . S
N1532 C1533 1.388 . S
C1533 H1504 0.930 . S
C1533 C1528 1.391 . S
C1533 N1532 1.388 . S
Co1534 O1536 2.143 1_554 S
Co1534 O1542 2.074 . S
Co1534 O1545 2.093 . S
Co1534 O1558 2.097 . S
Co1534 N1575 2.151 1_554 S
Co1534 N1583 2.214 . S
Co1535 O1536 2.162 1_554 S
Co1535 O1541 2.060 1_554 S
Co1535 O1551 2.064 1_554 S
Co1535 O1566 2.030 . S
Co1535 N1570 2.143 . S
Co1535 N1591 2.255 . S
O1536 Co1534 2.143 1_556 S
O1536 Co1535 2.162 1_556 S
C1537 O1538 1.280 . S
C1537 O1545 1.219 1_556 S
O1538 C1537 1.280 . S
C1539 O1540 1.245 . S
C1539 O1551 1.232 . S
O1540 C1539 1.245 . S
O1541 Co1535 2.060 1_556 S
O1541 C1567 1.269 . S
O1542 Co1534 2.074 . S
O1542 C1567 1.257 1_554 S
H1543 C1568 0.930 . S
H1544 C1574 0.930 . S
O1545 Co1534 2.093 . S
O1545 C1537 1.219 1_554 S
H1546 C1578 0.929 . S
H1547 C1580 0.930 . S
H1548 C1581 0.930 . S
H1549 C1579 0.929 . S
H1550 C1582 0.928 . S
O1551 Co1535 2.064 1_556 S
O1551 C1539 1.232 . S
H1552 C1571 0.929 . S
H1553 C1572 0.929 . S
H1554 C1584 0.931 . S
H1555 C1576 0.929 . S
H1556 C1585 0.930 . S
H1557 C1577 0.931 . S
O1558 Co1534 2.097 . S
O1558 C1586 1.214 . S
H1559 C1587 0.929 1_556 S
H1560 C1588 0.929 . S
H1561 C1589 0.930 . S
H1562 C1590 0.929 . S
H1563 C1592 0.930 . S
H1564 C1569 0.930 1_556 S
H1565 C1573 0.930 . S
O1566 Co1535 2.030 . S
O1566 C1586 1.234 . S
C1567 O1541 1.269 . S
C1567 O1542 1.257 1_556 S
C1568 H1543 0.930 . S
C1568 C1571 1.388 . S
C1568 C1573 1.418 . S
C1569 H1564 0.930 1_554 S
C1569 C1572 1.404 1_554 S
C1569 C1573 1.353 . S
N1570 Co1535 2.143 . S
N1570 C1571 1.397 . S
N1570 C1572 1.334 1_554 S
C1571 H1552 0.929 . S
C1571 C1568 1.388 . S
C1571 N1570 1.397 . S
C1572 H1553 0.929 . S
C1572 C1569 1.404 1_556 S
C1572 N1570 1.334 1_556 S
C1573 H1565 0.930 . S
C1573 C1568 1.418 . S
C1573 C1569 1.353 . S
C1574 H1544 0.930 . S
C1574 N1575 1.330 . S
C1574 C1576 1.446 . S
N1575 Co1534 2.151 1_556 S
N1575 C1574 1.330 . S
N1575 C1579 1.418 . S
C1576 H1555 0.929 . S
C1576 C1574 1.446 . S
C1576 C1577 1.332 . S
C1577 H1557 0.931 . S
C1577 C1576 1.332 . S
C1577 C1578 1.267 . S
C1578 H1546 0.929 . S
C1578 C1577 1.267 . S
C1578 C1579 1.251 . S
C1579 H1549 0.929 . S
C1579 N1575 1.418 . S
C1579 C1578 1.251 . S
C1580 H1547 0.930 . S
C1580 C1582 1.406 . S
C1580 C1585 1.261 . S
C1581 H1548 0.930 . S
C1581 N1583 1.325 . S
C1581 C1584 1.357 . S
C1582 H1550 0.928 . S
C1582 C1580 1.406 . S
C1582 N1583 1.261 . S
N1583 Co1534 2.214 . S
N1583 C1581 1.325 . S
N1583 C1582 1.261 . S
C1584 H1554 0.931 . S
C1584 C1581 1.357 . S
C1584 C1585 1.312 . S
C1585 H1556 0.930 . S
C1585 C1580 1.261 . S
C1585 C1584 1.312 . S
C1586 O1558 1.214 . S
C1586 O1566 1.234 . S
C1587 H1559 0.929 1_554 S
C1587 C1590 1.391 . S
C1587 C1592 1.391 1_554 S
C1588 H1560 0.929 . S
C1588 C1589 1.390 . S
C1588 N1591 1.391 . S
C1589 H1561 0.930 . S
C1589 C1588 1.390 . S
C1589 C1590 1.392 . S
C1590 H1562 0.929 . S
C1590 C1587 1.391 . S
C1590 C1589 1.392 . S
N1591 Co1535 2.255 . S
N1591 C1588 1.391 . S
N1591 C1592 1.388 1_554 S
C1592 H1563 0.930 . S
C1592 C1587 1.391 1_556 S
C1592 N1591 1.388 1_556 S
Co1593 O1595 2.143 1_554 S
Co1593 O1601 2.074 . S
Co1593 O1604 2.093 . S
Co1593 O1617 2.097 . S
Co1593 N1634 2.151 1_554 S
Co1593 N1642 2.214 . S
Co1594 O1595 2.158 . S
Co1594 O1600 2.057 . S
Co1594 O1610 2.052 . S
Co1594 O1625 2.043 1_556 S
Co1594 N1629 2.146 1_556 S
Co1594 N1650 2.259 1_556 S
O1595 Co1593 2.143 1_556 S
O1595 Co1594 2.158 . S
C1596 O1597 1.280 . S
C1596 O1604 1.219 1_556 S
O1597 C1596 1.280 . S
C1598 O1599 1.245 . S
C1598 O1610 1.232 . S
O1599 C1598 1.245 . S
O1600 Co1594 2.057 . S
O1600 C1626 1.269 . S
O1601 Co1593 2.074 . S
O1601 C1626 1.257 1_554 S
H1602 C1627 0.930 . S
H1603 C1633 0.930 . S
O1604 Co1593 2.093 . S
O1604 C1596 1.219 1_554 S
H1605 C1637 0.929 . S
H1606 C1639 0.930 . S
H1607 C1640 0.930 . S
H1608 C1638 0.929 . S
H1609 C1641 0.928 . S
O1610 Co1594 2.052 . S
O1610 C1598 1.232 . S
H1611 C1630 0.929 . S
H1612 C1631 0.929 . S
H1613 C1643 0.931 . S
H1614 C1635 0.929 . S
H1615 C1644 0.930 . S
H1616 C1636 0.931 . S
O1617 Co1593 2.097 . S
O1617 C1645 1.214 . S
H1618 C1646 0.929 1_556 S
H1619 C1647 0.929 . S
H1620 C1648 0.930 . S
H1621 C1649 0.929 . S
H1622 C1651 0.930 . S
H1623 C1628 0.930 1_556 S
H1624 C1632 0.930 . S
O1625 Co1594 2.043 1_554 S
O1625 C1645 1.234 . S
C1626 O1600 1.269 . S
C1626 O1601 1.257 1_556 S
C1627 H1602 0.930 . S
C1627 C1630 1.388 . S
C1627 C1632 1.418 . S
C1628 H1623 0.930 1_554 S
C1628 C1631 1.404 1_554 S
C1628 C1632 1.353 . S
N1629 Co1594 2.146 1_554 S
N1629 C1630 1.397 . S
N1629 C1631 1.334 1_554 S
C1630 H1611 0.929 . S
C1630 C1627 1.388 . S
C1630 N1629 1.397 . S
C1631 H1612 0.929 . S
C1631 C1628 1.404 1_556 S
C1631 N1629 1.334 1_556 S
C1632 H1624 0.930 . S
C1632 C1627 1.418 . S
C1632 C1628 1.353 . S
C1633 H1603 0.930 . S
C1633 N1634 1.330 . S
C1633 C1635 1.446 . S
N1634 Co1593 2.151 1_556 S
N1634 C1633 1.330 . S
N1634 C1638 1.418 . S
C1635 H1614 0.929 . S
C1635 C1633 1.446 . S
C1635 C1636 1.332 . S
C1636 H1616 0.931 . S
C1636 C1635 1.332 . S
C1636 C1637 1.267 . S
C1637 H1605 0.929 . S
C1637 C1636 1.267 . S
C1637 C1638 1.251 . S
C1638 H1608 0.929 . S
C1638 N1634 1.418 . S
C1638 C1637 1.251 . S
C1639 H1606 0.930 . S
C1639 C1641 1.406 . S
C1639 C1644 1.261 . S
C1640 H1607 0.930 . S
C1640 N1642 1.325 . S
C1640 C1643 1.357 . S
C1641 H1609 0.928 . S
C1641 C1639 1.406 . S
C1641 N1642 1.261 . S
N1642 Co1593 2.214 . S
N1642 C1640 1.325 . S
N1642 C1641 1.261 . S
C1643 H1613 0.931 . S
C1643 C1640 1.357 . S
C1643 C1644 1.312 . S
C1644 H1615 0.930 . S
C1644 C1639 1.261 . S
C1644 C1643 1.312 . S
C1645 O1617 1.214 . S
C1645 O1625 1.234 . S
C1646 H1618 0.929 1_554 S
C1646 C1649 1.391 . S
C1646 C1651 1.391 1_554 S
C1647 H1619 0.929 . S
C1647 C1648 1.390 . S
C1647 N1650 1.391 . S
C1648 H1620 0.930 . S
C1648 C1647 1.390 . S
C1648 C1649 1.392 . S
C1649 H1621 0.929 . S
C1649 C1646 1.391 . S
C1649 C1648 1.392 . S
N1650 Co1594 2.259 1_554 S
N1650 C1647 1.391 . S
N1650 C1651 1.388 1_554 S
C1651 H1622 0.930 . S
C1651 C1646 1.391 1_556 S
C1651 N1650 1.388 1_556 S
Co1652 O1654 2.143 . S
Co1652 O1660 2.074 . S
Co1652 O1663 2.093 . S
Co1652 O1676 2.097 . S
Co1652 N1693 2.151 . S
Co1652 N1701 2.214 . S
Co1653 O1654 2.160 . S
Co1653 O1659 2.058 . S
Co1653 O1669 2.057 . S
Co1653 O1684 2.037 . S
Co1653 N1688 2.145 . S
Co1653 N1709 2.257 . S
O1654 Co1652 2.143 . S
O1654 Co1653 2.160 . S
C1655 O1656 1.278 . S
C1655 O1663 1.224 . S
O1656 C1655 1.278 . S
C1657 O1658 1.245 . S
C1657 O1669 1.232 . S
O1658 C1657 1.245 . S
O1659 Co1653 2.058 . S
O1659 C1685 1.269 . S
O1660 Co1652 2.074 . S
O1660 C1685 1.257 . S
H1661 C1686 0.930 . S
H1662 C1692 0.930 . S
O1663 Co1652 2.093 . S
O1663 C1655 1.224 . S
H1664 C1696 0.929 . S
H1665 C1698 0.930 . S
H1666 C1699 0.930 . S
H1667 C1697 0.929 . S
H1668 C1700 0.928 . S
O1669 Co1653 2.057 . S
O1669 C1657 1.232 . S
H1670 C1689 0.929 . S
H1671 C1690 0.929 . S
H1672 C1702 0.931 . S
H1673 C1694 0.929 . S
H1674 C1703 0.930 . S
H1675 C1695 0.931 . S
O1676 Co1652 2.097 . S
O1676 C1704 1.214 . S
H1677 C1705 0.929 . S
H1678 C1706 0.929 . S
H1679 C1707 0.930 . S
H1680 C1708 0.929 . S
H1681 C1710 0.930 . S
H1682 C1687 0.930 . S
H1683 C1691 0.930 . S
O1684 Co1653 2.037 . S
O1684 C1704 1.234 . S
C1685 O1659 1.269 . S
C1685 O1660 1.257 . S
C1686 H1661 0.930 . S
C1686 C1689 1.388 . S
C1686 C1691 1.418 . S
C1687 H1682 0.930 . S
C1687 C1690 1.404 . S
C1687 C1691 1.353 . S
N1688 Co1653 2.145 . S
N1688 C1689 1.397 . S
N1688 C1690 1.334 . S
C1689 H1670 0.929 . S
C1689 C1686 1.388 . S
C1689 N1688 1.397 . S
C1690 H1671 0.929 . S
C1690 C1687 1.404 . S
C1690 N1688 1.334 . S
C1691 H1683 0.930 . S
C1691 C1686 1.418 . S
C1691 C1687 1.353 . S
C1692 H1662 0.930 . S
C1692 N1693 1.330 . S
C1692 C1694 1.446 . S
N1693 Co1652 2.151 . S
N1693 C1692 1.330 . S
N1693 C1697 1.418 . S
C1694 H1673 0.929 . S
C1694 C1692 1.446 . S
C1694 C1695 1.332 . S
C1695 H1675 0.931 . S
C1695 C1694 1.332 . S
C1695 C1696 1.267 . S
C1696 H1664 0.929 . S
C1696 C1695 1.267 . S
C1696 C1697 1.251 . S
C1697 H1667 0.929 . S
C1697 N1693 1.418 . S
C1697 C1696 1.251 . S
C1698 H1665 0.930 . S
C1698 C1700 1.406 . S
C1698 C1703 1.261 . S
C1699 H1666 0.930 . S
C1699 N1701 1.325 . S
C1699 C1702 1.357 . S
C1700 H1668 0.928 . S
C1700 C1698 1.406 . S
C1700 N1701 1.261 . S
N1701 Co1652 2.214 . S
N1701 C1699 1.325 . S
N1701 C1700 1.261 . S
C1702 H1672 0.931 . S
C1702 C1699 1.357 . S
C1702 C1703 1.312 . S
C1703 H1674 0.930 . S
C1703 C1698 1.261 . S
C1703 C1702 1.312 . S
C1704 O1676 1.214 . S
C1704 O1684 1.234 . S
C1705 H1677 0.929 . S
C1705 C1708 1.391 . S
C1705 C1710 1.391 . S
C1706 H1678 0.929 . S
C1706 C1707 1.390 . S
C1706 N1709 1.391 . S
C1707 H1679 0.930 . S
C1707 C1706 1.390 . S
C1707 C1708 1.392 . S
C1708 H1680 0.929 . S
C1708 C1705 1.391 . S
C1708 C1707 1.392 . S
N1709 Co1653 2.257 . S
N1709 C1706 1.391 . S
N1709 C1710 1.388 . S
C1710 H1681 0.930 . S
C1710 C1705 1.391 . S
C1710 N1709 1.388 . S
Co1711 O1713 2.143 . S
Co1711 O1719 2.074 . S
Co1711 O1722 2.093 . S
Co1711 O1735 2.097 . S
Co1711 N1752 2.151 . S
Co1711 N1760 2.214 . S
Co1712 O1713 2.160 . S
Co1712 O1718 2.058 . S
Co1712 O1728 2.057 . S
Co1712 O1743 2.037 . S
Co1712 N1747 2.145 . S
Co1712 N1768 2.257 . S
O1713 Co1711 2.143 . S
O1713 Co1712 2.160 . S
C1714 O1715 1.278 . S
C1714 O1722 1.224 . S
O1715 C1714 1.278 . S
C1716 O1717 1.245 . S
C1716 O1728 1.232 . S
O1717 C1716 1.245 . S
O1718 Co1712 2.058 . S
O1718 C1744 1.269 . S
O1719 Co1711 2.074 . S
O1719 C1744 1.257 . S
H1720 C1745 0.930 . S
H1721 C1751 0.930 . S
O1722 Co1711 2.093 . S
O1722 C1714 1.224 . S
H1723 C1755 0.929 . S
H1724 C1757 0.930 . S
H1725 C1758 0.930 . S
H1726 C1756 0.929 . S
H1727 C1759 0.928 . S
O1728 Co1712 2.057 . S
O1728 C1716 1.232 . S
H1729 C1748 0.929 . S
H1730 C1749 0.929 . S
H1731 C1761 0.931 . S
H1732 C1753 0.929 . S
H1733 C1762 0.930 . S
H1734 C1754 0.931 . S
O1735 Co1711 2.097 . S
O1735 C1763 1.214 . S
H1736 C1764 0.929 . S
H1737 C1765 0.929 . S
H1738 C1766 0.930 . S
H1739 C1767 0.929 . S
H1740 C1769 0.930 . S
H1741 C1746 0.930 . S
H1742 C1750 0.930 . S
O1743 Co1712 2.037 . S
O1743 C1763 1.234 . S
C1744 O1718 1.269 . S
C1744 O1719 1.257 . S
C1745 H1720 0.930 . S
C1745 C1748 1.388 . S
C1745 C1750 1.418 . S
C1746 H1741 0.930 . S
C1746 C1749 1.404 . S
C1746 C1750 1.353 . S
N1747 Co1712 2.145 . S
N1747 C1748 1.397 . S
N1747 C1749 1.334 . S
C1748 H1729 0.929 . S
C1748 C1745 1.388 . S
C1748 N1747 1.397 . S
C1749 H1730 0.929 . S
C1749 C1746 1.404 . S
C1749 N1747 1.334 . S
C1750 H1742 0.930 . S
C1750 C1745 1.418 . S
C1750 C1746 1.353 . S
C1751 H1721 0.930 . S
C1751 N1752 1.330 . S
C1751 C1753 1.446 . S
N1752 Co1711 2.151 . S
N1752 C1751 1.330 . S
N1752 C1756 1.418 . S
C1753 H1732 0.929 . S
C1753 C1751 1.446 . S
C1753 C1754 1.332 . S
C1754 H1734 0.931 . S
C1754 C1753 1.332 . S
C1754 C1755 1.267 . S
C1755 H1723 0.929 . S
C1755 C1754 1.267 . S
C1755 C1756 1.251 . S
C1756 H1726 0.929 . S
C1756 N1752 1.418 . S
C1756 C1755 1.251 . S
C1757 H1724 0.930 . S
C1757 C1759 1.406 . S
C1757 C1762 1.261 . S
C1758 H1725 0.930 . S
C1758 N1760 1.325 . S
C1758 C1761 1.357 . S
C1759 H1727 0.928 . S
C1759 C1757 1.406 . S
C1759 N1760 1.261 . S
N1760 Co1711 2.214 . S
N1760 C1758 1.325 . S
N1760 C1759 1.261 . S
C1761 H1731 0.931 . S
C1761 C1758 1.357 . S
C1761 C1762 1.312 . S
C1762 H1733 0.930 . S
C1762 C1757 1.261 . S
C1762 C1761 1.312 . S
C1763 O1735 1.214 . S
C1763 O1743 1.234 . S
C1764 H1736 0.929 . S
C1764 C1767 1.391 . S
C1764 C1769 1.391 . S
C1765 H1737 0.929 . S
C1765 C1766 1.390 . S
C1765 N1768 1.391 . S
C1766 H1738 0.930 . S
C1766 C1765 1.390 . S
C1766 C1767 1.392 . S
C1767 H1739 0.929 . S
C1767 C1764 1.391 . S
C1767 C1766 1.392 . S
N1768 Co1712 2.257 . S
N1768 C1765 1.391 . S
N1768 C1769 1.388 . S
C1769 H1740 0.930 . S
C1769 C1764 1.391 . S
C1769 N1768 1.388 . S
Co1770 O1772 2.143 1_556 S
Co1770 O1778 2.074 . S
Co1770 O1781 2.093 . S
Co1770 O1794 2.097 . S
Co1770 N1811 2.151 1_556 S
Co1770 N1819 2.214 . S
Co1771 O1772 2.162 1_556 S
Co1771 O1777 2.060 1_556 S
Co1771 O1787 2.064 1_556 S
Co1771 O1802 2.030 . S
Co1771 N1806 2.143 . S
Co1771 N1827 2.255 . S
O1772 Co1770 2.143 1_554 S
O1772 Co1771 2.162 1_554 S
C1773 O1774 1.280 . S
C1773 O1781 1.219 1_554 S
O1774 C1773 1.280 . S
C1775 O1776 1.245 . S
C1775 O1787 1.232 . S
O1776 C1775 1.245 . S
O1777 Co1771 2.060 1_554 S
O1777 C1803 1.269 . S
O1778 Co1770 2.074 . S
O1778 C1803 1.257 1_556 S
H1779 C1804 0.930 . S
H1780 C1810 0.930 . S
O1781 Co1770 2.093 . S
O1781 C1773 1.219 1_556 S
H1782 C1814 0.929 . S
H1783 C1816 0.930 . S
H1784 C1817 0.930 . S
H1785 C1815 0.929 . S
H1786 C1818 0.928 . S
O1787 Co1771 2.064 1_554 S
O1787 C1775 1.232 . S
H1788 C1807 0.929 . S
H1789 C1808 0.929 . S
H1790 C1820 0.931 . S
H1791 C1812 0.929 . S
H1792 C1821 0.930 . S
H1793 C1813 0.931 . S
O1794 Co1770 2.097 . S
O1794 C1822 1.214 . S
H1795 C1823 0.929 1_554 S
H1796 C1824 0.929 . S
H1797 C1825 0.930 . S
H1798 C1826 0.929 . S
H1799 C1828 0.930 . S
H1800 C1805 0.930 1_554 S
H1801 C1809 0.930 . S
O1802 Co1771 2.030 . S
O1802 C1822 1.234 . S
C1803 O1777 1.269 . S
C1803 O1778 1.257 1_554 S
C1804 H1779 0.930 . S
C1804 C1807 1.388 . S
C1804 C1809 1.418 . S
C1805 H1800 0.930 1_556 S
C1805 C1808 1.404 1_556 S
C1805 C1809 1.353 . S
N1806 Co1771 2.143 . S
N1806 C1807 1.397 . S
N1806 C1808 1.334 1_556 S
C1807 H1788 0.929 . S
C1807 C1804 1.388 . S
C1807 N1806 1.397 . S
C1808 H1789 0.929 . S
C1808 C1805 1.404 1_554 S
C1808 N1806 1.334 1_554 S
C1809 H1801 0.930 . S
C1809 C1804 1.418 . S
C1809 C1805 1.353 . S
C1810 H1780 0.930 . S
C1810 N1811 1.330 . S
C1810 C1812 1.446 . S
N1811 Co1770 2.151 1_554 S
N1811 C1810 1.330 . S
N1811 C1815 1.418 . S
C1812 H1791 0.929 . S
C1812 C1810 1.446 . S
C1812 C1813 1.332 . S
C1813 H1793 0.931 . S
C1813 C1812 1.332 . S
C1813 C1814 1.267 . S
C1814 H1782 0.929 . S
C1814 C1813 1.267 . S
C1814 C1815 1.251 . S
C1815 H1785 0.929 . S
C1815 N1811 1.418 . S
C1815 C1814 1.251 . S
C1816 H1783 0.930 . S
C1816 C1818 1.406 . S
C1816 C1821 1.261 . S
C1817 H1784 0.930 . S
C1817 N1819 1.325 . S
C1817 C1820 1.357 . S
C1818 H1786 0.928 . S
C1818 C1816 1.406 . S
C1818 N1819 1.261 . S
N1819 Co1770 2.214 . S
N1819 C1817 1.325 . S
N1819 C1818 1.261 . S
C1820 H1790 0.931 . S
C1820 C1817 1.357 . S
C1820 C1821 1.312 . S
C1821 H1792 0.930 . S
C1821 C1816 1.261 . S
C1821 C1820 1.312 . S
C1822 O1794 1.214 . S
C1822 O1802 1.234 . S
C1823 H1795 0.929 1_556 S
C1823 C1826 1.391 . S
C1823 C1828 1.391 1_556 S
C1824 H1796 0.929 . S
C1824 C1825 1.390 . S
C1824 N1827 1.391 . S
C1825 H1797 0.930 . S
C1825 C1824 1.390 . S
C1825 C1826 1.392 . S
C1826 H1798 0.929 . S
C1826 C1823 1.391 . S
C1826 C1825 1.392 . S
N1827 Co1771 2.255 . S
N1827 C1824 1.391 . S
N1827 C1828 1.388 1_556 S
C1828 H1799 0.930 . S
C1828 C1823 1.391 1_554 S
C1828 N1827 1.388 1_554 S
Co1829 O1831 2.143 1_556 S
Co1829 O1837 2.074 . S
Co1829 O1840 2.093 . S
Co1829 O1853 2.097 . S
Co1829 N1870 2.151 1_556 S
Co1829 N1878 2.214 . S
Co1830 O1831 2.158 . S
Co1830 O1836 2.057 . S
Co1830 O1846 2.052 . S
Co1830 O1861 2.043 1_554 S
Co1830 N1865 2.146 1_554 S
Co1830 N1886 2.259 1_554 S
O1831 Co1829 2.143 1_554 S
O1831 Co1830 2.158 . S
C1832 O1833 1.280 . S
C1832 O1840 1.219 1_554 S
O1833 C1832 1.280 . S
C1834 O1835 1.245 . S
C1834 O1846 1.232 . S
O1835 C1834 1.245 . S
O1836 Co1830 2.057 . S
O1836 C1862 1.269 . S
O1837 Co1829 2.074 . S
O1837 C1862 1.257 1_556 S
H1838 C1863 0.930 . S
H1839 C1869 0.930 . S
O1840 Co1829 2.093 . S
O1840 C1832 1.219 1_556 S
H1841 C1873 0.929 . S
H1842 C1875 0.930 . S
H1843 C1876 0.930 . S
H1844 C1874 0.929 . S
H1845 C1877 0.928 . S
O1846 Co1830 2.052 . S
O1846 C1834 1.232 . S
H1847 C1866 0.929 . S
H1848 C1867 0.929 . S
H1849 C1879 0.931 . S
H1850 C1871 0.929 . S
H1851 C1880 0.930 . S
H1852 C1872 0.931 . S
O1853 Co1829 2.097 . S
O1853 C1881 1.214 . S
H1854 C1882 0.929 1_554 S
H1855 C1883 0.929 . S
H1856 C1884 0.930 . S
H1857 C1885 0.929 . S
H1858 C1887 0.930 . S
H1859 C1864 0.930 1_554 S
H1860 C1868 0.930 . S
O1861 Co1830 2.043 1_556 S
O1861 C1881 1.234 . S
C1862 O1836 1.269 . S
C1862 O1837 1.257 1_554 S
C1863 H1838 0.930 . S
C1863 C1866 1.388 . S
C1863 C1868 1.418 . S
C1864 H1859 0.930 1_556 S
C1864 C1867 1.404 1_556 S
C1864 C1868 1.353 . S
N1865 Co1830 2.146 1_556 S
N1865 C1866 1.397 . S
N1865 C1867 1.334 1_556 S
C1866 H1847 0.929 . S
C1866 C1863 1.388 . S
C1866 N1865 1.397 . S
C1867 H1848 0.929 . S
C1867 C1864 1.404 1_554 S
C1867 N1865 1.334 1_554 S
C1868 H1860 0.930 . S
C1868 C1863 1.418 . S
C1868 C1864 1.353 . S
C1869 H1839 0.930 . S
C1869 N1870 1.330 . S
C1869 C1871 1.446 . S
N1870 Co1829 2.151 1_554 S
N1870 C1869 1.330 . S
N1870 C1874 1.418 . S
C1871 H1850 0.929 . S
C1871 C1869 1.446 . S
C1871 C1872 1.332 . S
C1872 H1852 0.931 . S
C1872 C1871 1.332 . S
C1872 C1873 1.267 . S
C1873 H1841 0.929 . S
C1873 C1872 1.267 . S
C1873 C1874 1.251 . S
C1874 H1844 0.929 . S
C1874 N1870 1.418 . S
C1874 C1873 1.251 . S
C1875 H1842 0.930 . S
C1875 C1877 1.406 . S
C1875 C1880 1.261 . S
C1876 H1843 0.930 . S
C1876 N1878 1.325 . S
C1876 C1879 1.357 . S
C1877 H1845 0.928 . S
C1877 C1875 1.406 . S
C1877 N1878 1.261 . S
N1878 Co1829 2.214 . S
N1878 C1876 1.325 . S
N1878 C1877 1.261 . S
C1879 H1849 0.931 . S
C1879 C1876 1.357 . S
C1879 C1880 1.312 . S
C1880 H1851 0.930 . S
C1880 C1875 1.261 . S
C1880 C1879 1.312 . S
C1881 O1853 1.214 . S
C1881 O1861 1.234 . S
C1882 H1854 0.929 1_556 S
C1882 C1885 1.391 . S
C1882 C1887 1.391 1_556 S
C1883 H1855 0.929 . S
C1883 C1884 1.390 . S
C1883 N1886 1.391 . S
C1884 H1856 0.930 . S
C1884 C1883 1.390 . S
C1884 C1885 1.392 . S
C1885 H1857 0.929 . S
C1885 C1882 1.391 . S
C1885 C1884 1.392 . S
N1886 Co1830 2.259 1_556 S
N1886 C1883 1.391 . S
N1886 C1887 1.388 1_556 S
C1887 H1858 0.930 . S
C1887 C1882 1.391 1_554 S
C1887 N1886 1.388 1_554 S
C1888 C1889 1.349 . S
C1888 C1890 1.327 . S
C1888 H1913 0.950 . S
C1889 C1888 1.349 . S
C1889 C1905 1.349 . S
C1890 C1888 1.327 . S
C1890 C1909 1.429 . S
C1890 H1914 0.950 . S
C1891 C1908 1.574 . S
C1891 C1910 1.368 . S
C1891 H1915 0.949 . S
H1892 C1896 0.949 . S
C1893 C1894 1.349 . S
C1893 C1895 1.327 . S
C1893 H1916 0.950 . S
C1894 C1893 1.349 . S
C1894 C1906 1.349 . S
C1895 C1893 1.327 . S
C1895 C1911 1.429 . S
C1895 H1917 0.950 . S
C1896 H1892 0.949 . S
C1896 C1904 1.574 . S
C1896 C1912 1.368 . S
H1897 C1905 0.950 . S
H1898 C1903 0.950 . S
H1899 C1904 0.949 . S
H1900 C1906 0.950 . S
H1901 C1907 0.950 . S
H1902 C1908 0.949 . S
C1903 H1898 0.950 . S
C1903 C1905 1.327 . S
C1903 C1909 1.429 . S
C1904 C1896 1.574 . S
C1904 H1899 0.949 . S
C1904 C1910 1.368 . S
C1905 C1889 1.349 . S
C1905 H1897 0.950 . S
C1905 C1903 1.327 . S
C1906 C1894 1.349 . S
C1906 H1900 0.950 . S
C1906 C1907 1.327 . S
C1907 H1901 0.950 . S
C1907 C1906 1.327 . S
C1907 C1911 1.429 . S
C1908 C1891 1.574 . S
C1908 H1902 0.949 . S
C1908 C1912 1.368 . S
C1909 C1890 1.429 . S
C1909 C1903 1.429 . S
C1909 C1910 1.523 . S
C1910 C1891 1.368 . S
C1910 C1904 1.368 . S
C1910 C1909 1.523 . S
C1911 C1895 1.429 . S
C1911 C1907 1.429 . S
C1911 C1912 1.523 . S
C1912 C1896 1.368 . S
C1912 C1908 1.368 . S
C1912 C1911 1.523 . S
H1913 C1888 0.950 . S
H1914 C1890 0.950 . S
H1915 C1891 0.949 . S
H1916 C1893 0.950 . S
H1917 C1895 0.950 . S
C1918 C1919 1.349 . S
C1918 C1920 1.327 . S
C1918 H1943 0.950 . S
C1919 C1918 1.349 . S
C1919 C1935 1.349 . S
C1920 C1918 1.327 . S
C1920 C1939 1.429 . S
C1920 H1944 0.950 . S
C1921 C1938 1.574 . S
C1921 C1940 1.368 . S
C1921 H1945 0.949 . S
H1922 C1926 0.949 . S
C1923 C1924 1.349 . S
C1923 C1925 1.327 . S
C1923 H1946 0.950 . S
C1924 C1923 1.349 . S
C1924 C1936 1.349 . S
C1925 C1923 1.327 . S
C1925 C1941 1.429 . S
C1925 H1947 0.950 . S
C1926 H1922 0.949 . S
C1926 C1934 1.574 . S
C1926 C1942 1.368 . S
H1927 C1935 0.950 . S
H1928 C1933 0.950 . S
H1929 C1934 0.949 . S
H1930 C1936 0.950 . S
H1931 C1937 0.950 . S
H1932 C1938 0.949 . S
C1933 H1928 0.950 . S
C1933 C1935 1.327 . S
C1933 C1939 1.429 . S
C1934 C1926 1.574 . S
C1934 H1929 0.949 . S
C1934 C1940 1.368 . S
C1935 C1919 1.349 . S
C1935 H1927 0.950 . S
C1935 C1933 1.327 . S
C1936 C1924 1.349 . S
C1936 H1930 0.950 . S
C1936 C1937 1.327 . S
C1937 H1931 0.950 . S
C1937 C1936 1.327 . S
C1937 C1941 1.429 . S
C1938 C1921 1.574 . S
C1938 H1932 0.949 . S
C1938 C1942 1.368 . S
C1939 C1920 1.429 . S
C1939 C1933 1.429 . S
C1939 C1940 1.523 . S
C1940 C1921 1.368 . S
C1940 C1934 1.368 . S
C1940 C1939 1.523 . S
C1941 C1925 1.429 . S
C1941 C1937 1.429 . S
C1941 C1942 1.523 . S
C1942 C1926 1.368 . S
C1942 C1938 1.368 . S
C1942 C1941 1.523 . S
H1943 C1918 0.950 . S
H1944 C1920 0.950 . S
H1945 C1921 0.949 . S
H1946 C1923 0.950 . S
H1947 C1925 0.950 . S
C1948 C1949 1.349 . S
C1948 C1950 1.327 . S
C1948 H1973 0.950 . S
C1949 C1948 1.349 . S
C1949 C1965 1.349 . S
C1950 C1948 1.327 . S
C1950 C1969 1.429 . S
C1950 H1974 0.950 . S
C1951 C1968 1.574 . S
C1951 C1970 1.368 . S
C1951 H1975 0.949 . S
H1952 C1956 0.949 . S
C1953 C1954 1.349 . S
C1953 C1955 1.327 . S
C1953 H1976 0.950 . S
C1954 C1953 1.349 . S
C1954 C1966 1.349 . S
C1955 C1953 1.327 . S
C1955 C1971 1.429 . S
C1955 H1977 0.950 . S
C1956 H1952 0.949 . S
C1956 C1964 1.574 . S
C1956 C1972 1.368 . S
H1957 C1965 0.950 . S
H1958 C1963 0.950 . S
H1959 C1964 0.949 . S
H1960 C1966 0.950 . S
H1961 C1967 0.950 . S
H1962 C1968 0.949 . S
C1963 H1958 0.950 . S
C1963 C1965 1.327 . S
C1963 C1969 1.429 . S
C1964 C1956 1.574 . S
C1964 H1959 0.949 . S
C1964 C1970 1.368 . S
C1965 C1949 1.349 . S
C1965 H1957 0.950 . S
C1965 C1963 1.327 . S
C1966 C1954 1.349 . S
C1966 H1960 0.950 . S
C1966 C1967 1.327 . S
C1967 H1961 0.950 . S
C1967 C1966 1.327 . S
C1967 C1971 1.429 . S
C1968 C1951 1.574 . S
C1968 H1962 0.949 . S
C1968 C1972 1.368 . S
C1969 C1950 1.429 . S
C1969 C1963 1.429 . S
C1969 C1970 1.523 . S
C1970 C1951 1.368 . S
C1970 C1964 1.368 . S
C1970 C1969 1.523 . S
C1971 C1955 1.429 . S
C1971 C1967 1.429 . S
C1971 C1972 1.523 . S
C1972 C1956 1.368 . S
C1972 C1968 1.368 . S
C1972 C1971 1.523 . S
H1973 C1948 0.950 . S
H1974 C1950 0.950 . S
H1975 C1951 0.949 . S
H1976 C1953 0.950 . S
H1977 C1955 0.950 . S
C1978 C1979 1.349 . S
C1978 C1980 1.327 . S
C1978 H2003 0.950 . S
C1979 C1978 1.349 . S
C1979 C1995 1.349 . S
C1980 C1978 1.327 . S
C1980 C1999 1.429 . S
C1980 H2004 0.950 . S
C1981 C1998 1.574 . S
C1981 C2000 1.368 . S
C1981 H2005 0.949 . S
H1982 C1986 0.949 . S
C1983 C1984 1.349 . S
C1983 C1985 1.327 . S
C1983 H2006 0.950 . S
C1984 C1983 1.349 . S
C1984 C1996 1.349 . S
C1985 C1983 1.327 . S
C1985 C2001 1.429 . S
C1985 H2007 0.950 . S
C1986 H1982 0.949 . S
C1986 C1994 1.574 . S
C1986 C2002 1.368 . S
H1987 C1995 0.950 . S
H1988 C1993 0.950 . S
H1989 C1994 0.949 . S
H1990 C1996 0.950 . S
H1991 C1997 0.950 . S
H1992 C1998 0.949 . S
C1993 H1988 0.950 . S
C1993 C1995 1.327 . S
C1993 C1999 1.429 . S
C1994 C1986 1.574 . S
C1994 H1989 0.949 . S
C1994 C2000 1.368 . S
C1995 C1979 1.349 . S
C1995 H1987 0.950 . S
C1995 C1993 1.327 . S
C1996 C1984 1.349 . S
C1996 H1990 0.950 . S
C1996 C1997 1.327 . S
C1997 H1991 0.950 . S
C1997 C1996 1.327 . S
C1997 C2001 1.429 . S
C1998 C1981 1.574 . S
C1998 H1992 0.949 . S
C1998 C2002 1.368 . S
C1999 C1980 1.429 . S
C1999 C1993 1.429 . S
C1999 C2000 1.523 . S
C2000 C1981 1.368 . S
C2000 C1994 1.368 . S
C2000 C1999 1.523 . S
C2001 C1985 1.429 . S
C2001 C1997 1.429 . S
C2001 C2002 1.523 . S
C2002 C1986 1.368 . S
C2002 C1998 1.368 . S
C2002 C2001 1.523 . S
H2003 C1978 0.950 . S
H2004 C1980 0.950 . S
H2005 C1981 0.949 . S
H2006 C1983 0.950 . S
H2007 C1985 0.950 . S
C2008 C2009 1.349 . S
C2008 C2010 1.327 . S
C2008 H2033 0.950 . S
C2009 C2008 1.349 . S
C2009 C2025 1.349 . S
C2010 C2008 1.327 . S
C2010 C2029 1.429 . S
C2010 H2034 0.950 . S
C2011 C2028 1.574 . S
C2011 C2030 1.368 . S
C2011 H2035 0.949 . S
H2012 C2016 0.949 . S
C2013 C2014 1.349 . S
C2013 C2015 1.327 . S
C2013 H2036 0.950 . S
C2014 C2013 1.349 . S
C2014 C2026 1.349 . S
C2015 C2013 1.327 . S
C2015 C2031 1.429 . S
C2015 H2037 0.950 . S
C2016 H2012 0.949 . S
C2016 C2024 1.574 . S
C2016 C2032 1.368 . S
H2017 C2025 0.950 . S
H2018 C2023 0.950 . S
H2019 C2024 0.949 . S
H2020 C2026 0.950 . S
H2021 C2027 0.950 . S
H2022 C2028 0.949 . S
C2023 H2018 0.950 . S
C2023 C2025 1.327 . S
C2023 C2029 1.429 . S
C2024 C2016 1.574 . S
C2024 H2019 0.949 . S
C2024 C2030 1.368 . S
C2025 C2009 1.349 . S
C2025 H2017 0.950 . S
C2025 C2023 1.327 . S
C2026 C2014 1.349 . S
C2026 H2020 0.950 . S
C2026 C2027 1.327 . S
C2027 H2021 0.950 . S
C2027 C2026 1.327 . S
C2027 C2031 1.429 . S
C2028 C2011 1.574 . S
C2028 H2022 0.949 . S
C2028 C2032 1.368 . S
C2029 C2010 1.429 . S
C2029 C2023 1.429 . S
C2029 C2030 1.523 . S
C2030 C2011 1.368 . S
C2030 C2024 1.368 . S
C2030 C2029 1.523 . S
C2031 C2015 1.429 . S
C2031 C2027 1.429 . S
C2031 C2032 1.523 . S
C2032 C2016 1.368 . S
C2032 C2028 1.368 . S
C2032 C2031 1.523 . S
H2033 C2008 0.950 . S
H2034 C2010 0.950 . S
H2035 C2011 0.949 . S
H2036 C2013 0.950 . S
H2037 C2015 0.950 . S
C2038 C2039 1.349 . S
C2038 C2040 1.327 . S
C2038 H2063 0.950 . S
C2039 C2038 1.349 . S
C2039 C2055 1.349 . S
C2040 C2038 1.327 . S
C2040 C2059 1.429 . S
C2040 H2064 0.950 . S
C2041 C2058 1.574 . S
C2041 C2060 1.368 . S
C2041 H2065 0.949 . S
H2042 C2046 0.949 . S
C2043 C2044 1.349 . S
C2043 C2045 1.327 . S
C2043 H2066 0.950 . S
C2044 C2043 1.349 . S
C2044 C2056 1.349 . S
C2045 C2043 1.327 . S
C2045 C2061 1.429 . S
C2045 H2067 0.950 . S
C2046 H2042 0.949 . S
C2046 C2054 1.574 . S
C2046 C2062 1.368 . S
H2047 C2055 0.950 . S
H2048 C2053 0.950 . S
H2049 C2054 0.949 . S
H2050 C2056 0.950 . S
H2051 C2057 0.950 . S
H2052 C2058 0.949 . S
C2053 H2048 0.950 . S
C2053 C2055 1.327 . S
C2053 C2059 1.429 . S
C2054 C2046 1.574 . S
C2054 H2049 0.949 . S
C2054 C2060 1.368 . S
C2055 C2039 1.349 . S
C2055 H2047 0.950 . S
C2055 C2053 1.327 . S
C2056 C2044 1.349 . S
C2056 H2050 0.950 . S
C2056 C2057 1.327 . S
C2057 H2051 0.950 . S
C2057 C2056 1.327 . S
C2057 C2061 1.429 . S
C2058 C2041 1.574 . S
C2058 H2052 0.949 . S
C2058 C2062 1.368 . S
C2059 C2040 1.429 . S
C2059 C2053 1.429 . S
C2059 C2060 1.523 . S
C2060 C2041 1.368 . S
C2060 C2054 1.368 . S
C2060 C2059 1.523 . S
C2061 C2045 1.429 . S
C2061 C2057 1.429 . S
C2061 C2062 1.523 . S
C2062 C2046 1.368 . S
C2062 C2058 1.368 . S
C2062 C2061 1.523 . S
H2063 C2038 0.950 . S
H2064 C2040 0.950 . S
H2065 C2041 0.949 . S
H2066 C2043 0.950 . S
H2067 C2045 0.950 . S
C2068 C2069 1.349 . S
C2068 C2070 1.327 . S
C2068 H2093 0.950 . S
C2069 C2068 1.349 . S
C2069 C2085 1.349 . S
C2070 C2068 1.327 . S
C2070 C2089 1.429 . S
C2070 H2094 0.950 . S
C2071 C2088 1.574 . S
C2071 C2090 1.368 . S
C2071 H2095 0.949 . S
H2072 C2076 0.949 . S
C2073 C2074 1.349 . S
C2073 C2075 1.327 . S
C2073 H2096 0.950 . S
C2074 C2073 1.349 . S
C2074 C2086 1.349 . S
C2075 C2073 1.327 . S
C2075 C2091 1.429 . S
C2075 H2097 0.950 . S
C2076 H2072 0.949 . S
C2076 C2084 1.574 . S
C2076 C2092 1.368 . S
H2077 C2085 0.950 . S
H2078 C2083 0.950 . S
H2079 C2084 0.949 . S
H2080 C2086 0.950 . S
H2081 C2087 0.950 . S
H2082 C2088 0.949 . S
C2083 H2078 0.950 . S
C2083 C2085 1.327 . S
C2083 C2089 1.429 . S
C2084 C2076 1.574 . S
C2084 H2079 0.949 . S
C2084 C2090 1.368 . S
C2085 C2069 1.349 . S
C2085 H2077 0.950 . S
C2085 C2083 1.327 . S
C2086 C2074 1.349 . S
C2086 H2080 0.950 . S
C2086 C2087 1.327 . S
C2087 H2081 0.950 . S
C2087 C2086 1.327 . S
C2087 C2091 1.429 . S
C2088 C2071 1.574 . S
C2088 H2082 0.949 . S
C2088 C2092 1.368 . S
C2089 C2070 1.429 . S
C2089 C2083 1.429 . S
C2089 C2090 1.523 . S
C2090 C2071 1.368 . S
C2090 C2084 1.368 . S
C2090 C2089 1.523 . S
C2091 C2075 1.429 . S
C2091 C2087 1.429 . S
C2091 C2092 1.523 . S
C2092 C2076 1.368 . S
C2092 C2088 1.368 . S
C2092 C2091 1.523 . S
H2093 C2068 0.950 . S
H2094 C2070 0.950 . S
H2095 C2071 0.949 . S
H2096 C2073 0.950 . S
H2097 C2075 0.950 . S
C2098 C2099 1.349 . S
C2098 C2100 1.327 . S
C2098 H2123 0.950 . S
C2099 C2098 1.349 . S
C2099 C2115 1.349 . S
C2100 C2098 1.327 . S
C2100 C2119 1.429 . S
C2100 H2124 0.950 . S
C2101 C2118 1.574 . S
C2101 C2120 1.368 . S
C2101 H2125 0.949 . S
H2102 C2106 0.949 . S
C2103 C2104 1.349 . S
C2103 C2105 1.327 . S
C2103 H2126 0.950 . S
C2104 C2103 1.349 . S
C2104 C2116 1.349 . S
C2105 C2103 1.327 . S
C2105 C2121 1.429 . S
C2105 H2127 0.950 . S
C2106 H2102 0.949 . S
C2106 C2114 1.574 . S
C2106 C2122 1.368 . S
H2107 C2115 0.950 . S
H2108 C2113 0.950 . S
H2109 C2114 0.949 . S
H2110 C2116 0.950 . S
H2111 C2117 0.950 . S
H2112 C2118 0.949 . S
C2113 H2108 0.950 . S
C2113 C2115 1.327 . S
C2113 C2119 1.429 . S
C2114 C2106 1.574 . S
C2114 H2109 0.949 . S
C2114 C2120 1.368 . S
C2115 C2099 1.349 . S
C2115 H2107 0.950 . S
C2115 C2113 1.327 . S
C2116 C2104 1.349 . S
C2116 H2110 0.950 . S
C2116 C2117 1.327 . S
C2117 H2111 0.950 . S
C2117 C2116 1.327 . S
C2117 C2121 1.429 . S
C2118 C2101 1.574 . S
C2118 H2112 0.949 . S
C2118 C2122 1.368 . S
C2119 C2100 1.429 . S
C2119 C2113 1.429 . S
C2119 C2120 1.523 . S
C2120 C2101 1.368 . S
C2120 C2114 1.368 . S
C2120 C2119 1.523 . S
C2121 C2105 1.429 . S
C2121 C2117 1.429 . S
C2121 C2122 1.523 . S
C2122 C2106 1.368 . S
C2122 C2118 1.368 . S
C2122 C2121 1.523 . S
H2123 C2098 0.950 . S
H2124 C2100 0.950 . S
H2125 C2101 0.949 . S
H2126 C2103 0.950 . S
H2127 C2105 0.950 . S
C2128 C2129 1.349 . S
C2128 C2130 1.327 . S
C2128 H2153 0.950 . S
C2129 C2128 1.349 . S
C2129 C2145 1.349 . S
C2130 C2128 1.327 . S
C2130 C2149 1.429 . S
C2130 H2154 0.950 . S
C2131 C2148 1.574 . S
C2131 C2150 1.368 . S
C2131 H2155 0.949 . S
H2132 C2136 0.949 . S
C2133 C2134 1.349 . S
C2133 C2135 1.327 . S
C2133 H2156 0.950 . S
C2134 C2133 1.349 . S
C2134 C2146 1.349 . S
C2135 C2133 1.327 . S
C2135 C2151 1.429 . S
C2135 H2157 0.950 . S
C2136 H2132 0.949 . S
C2136 C2144 1.574 . S
C2136 C2152 1.368 . S
H2137 C2145 0.950 . S
H2138 C2143 0.950 . S
H2139 C2144 0.949 . S
H2140 C2146 0.950 . S
H2141 C2147 0.950 . S
H2142 C2148 0.949 . S
C2143 H2138 0.950 . S
C2143 C2145 1.327 . S
C2143 C2149 1.429 . S
C2144 C2136 1.574 . S
C2144 H2139 0.949 . S
C2144 C2150 1.368 . S
C2145 C2129 1.349 . S
C2145 H2137 0.950 . S
C2145 C2143 1.327 . S
C2146 C2134 1.349 . S
C2146 H2140 0.950 . S
C2146 C2147 1.327 . S
C2147 H2141 0.950 . S
C2147 C2146 1.327 . S
C2147 C2151 1.429 . S
C2148 C2131 1.574 . S
C2148 H2142 0.949 . S
C2148 C2152 1.368 . S
C2149 C2130 1.429 . S
C2149 C2143 1.429 . S
C2149 C2150 1.523 . S
C2150 C2131 1.368 . S
C2150 C2144 1.368 . S
C2150 C2149 1.523 . S
C2151 C2135 1.429 . S
C2151 C2147 1.429 . S
C2151 C2152 1.523 . S
C2152 C2136 1.368 . S
C2152 C2148 1.368 . S
C2152 C2151 1.523 . S
H2153 C2128 0.950 . S
H2154 C2130 0.950 . S
H2155 C2131 0.949 . S
H2156 C2133 0.950 . S
H2157 C2135 0.950 . S
C2158 C2159 1.349 . S
C2158 C2160 1.327 . S
C2158 H2183 0.950 . S
C2159 C2158 1.349 . S
C2159 C2175 1.349 . S
C2160 C2158 1.327 . S
C2160 C2179 1.429 . S
C2160 H2184 0.950 . S
C2161 C2178 1.574 . S
C2161 C2180 1.368 . S
C2161 H2185 0.949 . S
H2162 C2166 0.949 . S
C2163 C2164 1.349 . S
C2163 C2165 1.327 . S
C2163 H2186 0.950 . S
C2164 C2163 1.349 . S
C2164 C2176 1.349 . S
C2165 C2163 1.327 . S
C2165 C2181 1.429 . S
C2165 H2187 0.950 . S
C2166 H2162 0.949 . S
C2166 C2174 1.574 . S
C2166 C2182 1.368 . S
H2167 C2175 0.950 . S
H2168 C2173 0.950 . S
H2169 C2174 0.949 . S
H2170 C2176 0.950 . S
H2171 C2177 0.950 . S
H2172 C2178 0.949 . S
C2173 H2168 0.950 . S
C2173 C2175 1.327 . S
C2173 C2179 1.429 . S
C2174 C2166 1.574 . S
C2174 H2169 0.949 . S
C2174 C2180 1.368 . S
C2175 C2159 1.349 . S
C2175 H2167 0.950 . S
C2175 C2173 1.327 . S
C2176 C2164 1.349 . S
C2176 H2170 0.950 . S
C2176 C2177 1.327 . S
C2177 H2171 0.950 . S
C2177 C2176 1.327 . S
C2177 C2181 1.429 . S
C2178 C2161 1.574 . S
C2178 H2172 0.949 . S
C2178 C2182 1.368 . S
C2179 C2160 1.429 . S
C2179 C2173 1.429 . S
C2179 C2180 1.523 . S
C2180 C2161 1.368 . S
C2180 C2174 1.368 . S
C2180 C2179 1.523 . S
C2181 C2165 1.429 . S
C2181 C2177 1.429 . S
C2181 C2182 1.523 . S
C2182 C2166 1.368 . S
C2182 C2178 1.368 . S
C2182 C2181 1.523 . S
H2183 C2158 0.950 . S
H2184 C2160 0.950 . S
H2185 C2161 0.949 . S
H2186 C2163 0.950 . S
H2187 C2165 0.950 . S
C2188 C2189 1.349 . S
C2188 C2190 1.327 . S
C2188 H2213 0.950 . S
C2189 C2188 1.349 . S
C2189 C2205 1.349 . S
C2190 C2188 1.327 . S
C2190 C2209 1.429 . S
C2190 H2214 0.950 . S
C2191 C2208 1.574 . S
C2191 C2210 1.368 . S
C2191 H2215 0.949 . S
H2192 C2196 0.949 . S
C2193 C2194 1.349 . S
C2193 C2195 1.327 . S
C2193 H2216 0.950 . S
C2194 C2193 1.349 . S
C2194 C2206 1.349 . S
C2195 C2193 1.327 . S
C2195 C2211 1.429 . S
C2195 H2217 0.950 . S
C2196 H2192 0.949 . S
C2196 C2204 1.574 . S
C2196 C2212 1.368 . S
H2197 C2205 0.950 . S
H2198 C2203 0.950 . S
H2199 C2204 0.949 . S
H2200 C2206 0.950 . S
H2201 C2207 0.950 . S
H2202 C2208 0.949 . S
C2203 H2198 0.950 . S
C2203 C2205 1.327 . S
C2203 C2209 1.429 . S
C2204 C2196 1.574 . S
C2204 H2199 0.949 . S
C2204 C2210 1.368 . S
C2205 C2189 1.349 . S
C2205 H2197 0.950 . S
C2205 C2203 1.327 . S
C2206 C2194 1.349 . S
C2206 H2200 0.950 . S
C2206 C2207 1.327 . S
C2207 H2201 0.950 . S
C2207 C2206 1.327 . S
C2207 C2211 1.429 . S
C2208 C2191 1.574 . S
C2208 H2202 0.949 . S
C2208 C2212 1.368 . S
C2209 C2190 1.429 . S
C2209 C2203 1.429 . S
C2209 C2210 1.523 . S
C2210 C2191 1.368 . S
C2210 C2204 1.368 . S
C2210 C2209 1.523 . S
C2211 C2195 1.429 . S
C2211 C2207 1.429 . S
C2211 C2212 1.523 . S
C2212 C2196 1.368 . S
C2212 C2208 1.368 . S
C2212 C2211 1.523 . S
H2213 C2188 0.950 . S
H2214 C2190 0.950 . S
H2215 C2191 0.949 . S
H2216 C2193 0.950 . S
H2217 C2195 0.950 . S
C2218 C2219 1.349 . S
C2218 C2220 1.327 . S
C2218 H2243 0.950 . S
C2219 C2218 1.349 . S
C2219 C2235 1.349 . S
C2220 C2218 1.327 . S
C2220 C2239 1.429 . S
C2220 H2244 0.950 . S
C2221 C2238 1.574 . S
C2221 C2240 1.368 . S
C2221 H2245 0.949 . S
H2222 C2226 0.949 . S
C2223 C2224 1.349 . S
C2223 C2225 1.327 . S
C2223 H2246 0.950 . S
C2224 C2223 1.349 . S
C2224 C2236 1.349 . S
C2225 C2223 1.327 . S
C2225 C2241 1.429 . S
C2225 H2247 0.950 . S
C2226 H2222 0.949 . S
C2226 C2234 1.574 . S
C2226 C2242 1.368 . S
H2227 C2235 0.950 . S
H2228 C2233 0.950 . S
H2229 C2234 0.949 . S
H2230 C2236 0.950 . S
H2231 C2237 0.950 . S
H2232 C2238 0.949 . S
C2233 H2228 0.950 . S
C2233 C2235 1.327 . S
C2233 C2239 1.429 . S
C2234 C2226 1.574 . S
C2234 H2229 0.949 . S
C2234 C2240 1.368 . S
C2235 C2219 1.349 . S
C2235 H2227 0.950 . S
C2235 C2233 1.327 . S
C2236 C2224 1.349 . S
C2236 H2230 0.950 . S
C2236 C2237 1.327 . S
C2237 H2231 0.950 . S
C2237 C2236 1.327 . S
C2237 C2241 1.429 . S
C2238 C2221 1.574 . S
C2238 H2232 0.949 . S
C2238 C2242 1.368 . S
C2239 C2220 1.429 . S
C2239 C2233 1.429 . S
C2239 C2240 1.523 . S
C2240 C2221 1.368 . S
C2240 C2234 1.368 . S
C2240 C2239 1.523 . S
C2241 C2225 1.429 . S
C2241 C2237 1.429 . S
C2241 C2242 1.523 . S
C2242 C2226 1.368 . S
C2242 C2238 1.368 . S
C2242 C2241 1.523 . S
H2243 C2218 0.950 . S
H2244 C2220 0.950 . S
H2245 C2221 0.949 . S
H2246 C2223 0.950 . S
H2247 C2225 0.950 . S
C2248 C2249 1.349 . S
C2248 C2250 1.327 . S
C2248 H2273 0.950 . S
C2249 C2248 1.349 . S
C2249 C2265 1.349 . S
C2250 C2248 1.327 . S
C2250 C2269 1.429 . S
C2250 H2274 0.950 . S
C2251 C2268 1.574 . S
C2251 C2270 1.368 . S
C2251 H2275 0.949 . S
H2252 C2256 0.949 . S
C2253 C2254 1.349 . S
C2253 C2255 1.327 . S
C2253 H2276 0.950 . S
C2254 C2253 1.349 . S
C2254 C2266 1.349 . S
C2255 C2253 1.327 . S
C2255 C2271 1.429 . S
C2255 H2277 0.950 . S
C2256 H2252 0.949 . S
C2256 C2264 1.574 . S
C2256 C2272 1.368 . S
H2257 C2265 0.950 . S
H2258 C2263 0.950 . S
H2259 C2264 0.949 . S
H2260 C2266 0.950 . S
H2261 C2267 0.950 . S
H2262 C2268 0.949 . S
C2263 H2258 0.950 . S
C2263 C2265 1.327 . S
C2263 C2269 1.429 . S
C2264 C2256 1.574 . S
C2264 H2259 0.949 . S
C2264 C2270 1.368 . S
C2265 C2249 1.349 . S
C2265 H2257 0.950 . S
C2265 C2263 1.327 . S
C2266 C2254 1.349 . S
C2266 H2260 0.950 . S
C2266 C2267 1.327 . S
C2267 H2261 0.950 . S
C2267 C2266 1.327 . S
C2267 C2271 1.429 . S
C2268 C2251 1.574 . S
C2268 H2262 0.949 . S
C2268 C2272 1.368 . S
C2269 C2250 1.429 . S
C2269 C2263 1.429 . S
C2269 C2270 1.523 . S
C2270 C2251 1.368 . S
C2270 C2264 1.368 . S
C2270 C2269 1.523 . S
C2271 C2255 1.429 . S
C2271 C2267 1.429 . S
C2271 C2272 1.523 . S
C2272 C2256 1.368 . S
C2272 C2268 1.368 . S
C2272 C2271 1.523 . S
H2273 C2248 0.950 . S
H2274 C2250 0.950 . S
H2275 C2251 0.949 . S
H2276 C2253 0.950 . S
H2277 C2255 0.950 . S
C2278 C2279 1.349 . S
C2278 C2280 1.327 . S
C2278 H2303 0.950 . S
C2279 C2278 1.349 . S
C2279 C2295 1.349 . S
C2280 C2278 1.327 . S
C2280 C2299 1.429 . S
C2280 H2304 0.950 . S
C2281 C2298 1.574 . S
C2281 C2300 1.368 . S
C2281 H2305 0.949 . S
H2282 C2286 0.949 . S
C2283 C2284 1.349 . S
C2283 C2285 1.327 . S
C2283 H2306 0.950 . S
C2284 C2283 1.349 . S
C2284 C2296 1.349 . S
C2285 C2283 1.327 . S
C2285 C2301 1.429 . S
C2285 H2307 0.950 . S
C2286 H2282 0.949 . S
C2286 C2294 1.574 . S
C2286 C2302 1.368 . S
H2287 C2295 0.950 . S
H2288 C2293 0.950 . S
H2289 C2294 0.949 . S
H2290 C2296 0.950 . S
H2291 C2297 0.950 . S
H2292 C2298 0.949 . S
C2293 H2288 0.950 . S
C2293 C2295 1.327 . S
C2293 C2299 1.429 . S
C2294 C2286 1.574 . S
C2294 H2289 0.949 . S
C2294 C2300 1.368 . S
C2295 C2279 1.349 . S
C2295 H2287 0.950 . S
C2295 C2293 1.327 . S
C2296 C2284 1.349 . S
C2296 H2290 0.950 . S
C2296 C2297 1.327 . S
C2297 H2291 0.950 . S
C2297 C2296 1.327 . S
C2297 C2301 1.429 . S
C2298 C2281 1.574 . S
C2298 H2292 0.949 . S
C2298 C2302 1.368 . S
C2299 C2280 1.429 . S
C2299 C2293 1.429 . S
C2299 C2300 1.523 . S
C2300 C2281 1.368 . S
C2300 C2294 1.368 . S
C2300 C2299 1.523 . S
C2301 C2285 1.429 . S
C2301 C2297 1.429 . S
C2301 C2302 1.523 . S
C2302 C2286 1.368 . S
C2302 C2298 1.368 . S
C2302 C2301 1.523 . S
H2303 C2278 0.950 . S
H2304 C2280 0.950 . S
H2305 C2281 0.949 . S
H2306 C2283 0.950 . S
H2307 C2285 0.950 . S
C2308 C2309 1.349 . S
C2308 C2310 1.327 . S
C2308 H2333 0.950 . S
C2309 C2308 1.349 . S
C2309 C2325 1.349 . S
C2310 C2308 1.327 . S
C2310 C2329 1.429 . S
C2310 H2334 0.950 . S
C2311 C2328 1.574 . S
C2311 C2330 1.368 . S
C2311 H2335 0.949 . S
H2312 C2316 0.949 . S
C2313 C2314 1.349 . S
C2313 C2315 1.327 . S
C2313 H2336 0.950 . S
C2314 C2313 1.349 . S
C2314 C2326 1.349 . S
C2315 C2313 1.327 . S
C2315 C2331 1.429 . S
C2315 H2337 0.950 . S
C2316 H2312 0.949 . S
C2316 C2324 1.574 . S
C2316 C2332 1.368 . S
H2317 C2325 0.950 . S
H2318 C2323 0.950 . S
H2319 C2324 0.949 . S
H2320 C2326 0.950 . S
H2321 C2327 0.950 . S
H2322 C2328 0.949 . S
C2323 H2318 0.950 . S
C2323 C2325 1.327 . S
C2323 C2329 1.429 . S
C2324 C2316 1.574 . S
C2324 H2319 0.949 . S
C2324 C2330 1.368 . S
C2325 C2309 1.349 . S
C2325 H2317 0.950 . S
C2325 C2323 1.327 . S
C2326 C2314 1.349 . S
C2326 H2320 0.950 . S
C2326 C2327 1.327 . S
C2327 H2321 0.950 . S
C2327 C2326 1.327 . S
C2327 C2331 1.429 . S
C2328 C2311 1.574 . S
C2328 H2322 0.949 . S
C2328 C2332 1.368 . S
C2329 C2310 1.429 . S
C2329 C2323 1.429 . S
C2329 C2330 1.523 . S
C2330 C2311 1.368 . S
C2330 C2324 1.368 . S
C2330 C2329 1.523 . S
C2331 C2315 1.429 . S
C2331 C2327 1.429 . S
C2331 C2332 1.523 . S
C2332 C2316 1.368 . S
C2332 C2328 1.368 . S
C2332 C2331 1.523 . S
H2333 C2308 0.950 . S
H2334 C2310 0.950 . S
H2335 C2311 0.949 . S
H2336 C2313 0.950 . S
H2337 C2315 0.950 . S
C2338 C2339 1.349 . S
C2338 C2340 1.327 . S
C2338 H2363 0.950 . S
C2339 C2338 1.349 . S
C2339 C2355 1.349 . S
C2340 C2338 1.327 . S
C2340 C2359 1.429 . S
C2340 H2364 0.950 . S
C2341 C2358 1.574 . S
C2341 C2360 1.368 . S
C2341 H2365 0.949 . S
H2342 C2346 0.949 . S
C2343 C2344 1.349 . S
C2343 C2345 1.327 . S
C2343 H2366 0.950 . S
C2344 C2343 1.349 . S
C2344 C2356 1.349 . S
C2345 C2343 1.327 . S
C2345 C2361 1.429 . S
C2345 H2367 0.950 . S
C2346 H2342 0.949 . S
C2346 C2354 1.574 . S
C2346 C2362 1.368 . S
H2347 C2355 0.950 . S
H2348 C2353 0.950 . S
H2349 C2354 0.949 . S
H2350 C2356 0.950 . S
H2351 C2357 0.950 . S
H2352 C2358 0.949 . S
C2353 H2348 0.950 . S
C2353 C2355 1.327 . S
C2353 C2359 1.429 . S
C2354 C2346 1.574 . S
C2354 H2349 0.949 . S
C2354 C2360 1.368 . S
C2355 C2339 1.349 . S
C2355 H2347 0.950 . S
C2355 C2353 1.327 . S
C2356 C2344 1.349 . S
C2356 H2350 0.950 . S
C2356 C2357 1.327 . S
C2357 H2351 0.950 . S
C2357 C2356 1.327 . S
C2357 C2361 1.429 . S
C2358 C2341 1.574 . S
C2358 H2352 0.949 . S
C2358 C2362 1.368 . S
C2359 C2340 1.429 . S
C2359 C2353 1.429 . S
C2359 C2360 1.523 . S
C2360 C2341 1.368 . S
C2360 C2354 1.368 . S
C2360 C2359 1.523 . S
C2361 C2345 1.429 . S
C2361 C2357 1.429 . S
C2361 C2362 1.523 . S
C2362 C2346 1.368 . S
C2362 C2358 1.368 . S
C2362 C2361 1.523 . S
H2363 C2338 0.950 . S
H2364 C2340 0.950 . S
H2365 C2341 0.949 . S
H2366 C2343 0.950 . S
H2367 C2345 0.950 . S
C2368 C2369 1.349 . S
C2368 C2370 1.327 . S
C2368 H2393 0.950 . S
C2369 C2368 1.349 . S
C2369 C2385 1.349 . S
C2370 C2368 1.327 . S
C2370 C2389 1.429 . S
C2370 H2394 0.950 . S
C2371 C2388 1.574 1_565 S
C2371 C2390 1.368 . S
C2371 H2395 0.949 . S
H2372 C2376 0.949 . S
C2373 C2374 1.349 . S
C2373 C2375 1.327 . S
C2373 H2396 0.950 . S
C2374 C2373 1.349 . S
C2374 C2386 1.349 . S
C2375 C2373 1.327 . S
C2375 C2391 1.429 . S
C2375 H2397 0.950 . S
C2376 H2372 0.949 . S
C2376 C2384 1.574 1_545 S
C2376 C2392 1.368 . S
H2377 C2385 0.950 . S
H2378 C2383 0.950 . S
H2379 C2384 0.949 . S
H2380 C2386 0.950 . S
H2381 C2387 0.950 . S
H2382 C2388 0.949 . S
C2383 H2378 0.950 . S
C2383 C2385 1.327 . S
C2383 C2389 1.429 . S
C2384 C2376 1.574 1_565 S
C2384 H2379 0.949 . S
C2384 C2390 1.368 . S
C2385 C2369 1.349 . S
C2385 H2377 0.950 . S
C2385 C2383 1.327 . S
C2386 C2374 1.349 . S
C2386 H2380 0.950 . S
C2386 C2387 1.327 . S
C2387 H2381 0.950 . S
C2387 C2386 1.327 . S
C2387 C2391 1.429 . S
C2388 C2371 1.574 1_545 S
C2388 H2382 0.949 . S
C2388 C2392 1.368 . S
C2389 C2370 1.429 . S
C2389 C2383 1.429 . S
C2389 C2390 1.523 . S
C2390 C2371 1.368 . S
C2390 C2384 1.368 . S
C2390 C2389 1.523 . S
C2391 C2375 1.429 . S
C2391 C2387 1.429 . S
C2391 C2392 1.523 . S
C2392 C2376 1.368 . S
C2392 C2388 1.368 . S
C2392 C2391 1.523 . S
H2393 C2368 0.950 . S
H2394 C2370 0.950 . S
H2395 C2371 0.949 . S
H2396 C2373 0.950 . S
H2397 C2375 0.950 . S
C2398 C2399 1.349 . S
C2398 C2400 1.327 . S
C2398 H2423 0.950 . S
C2399 C2398 1.349 . S
C2399 C2415 1.349 . S
C2400 C2398 1.327 . S
C2400 C2419 1.429 . S
C2400 H2424 0.950 . S
C2401 C2418 1.574 . S
C2401 C2420 1.368 . S
C2401 H2425 0.949 . S
H2402 C2406 0.949 . S
C2403 C2404 1.349 . S
C2403 C2405 1.327 . S
C2403 H2426 0.950 . S
C2404 C2403 1.349 . S
C2404 C2416 1.349 . S
C2405 C2403 1.327 . S
C2405 C2421 1.429 . S
C2405 H2427 0.950 . S
C2406 H2402 0.949 . S
C2406 C2414 1.574 . S
C2406 C2422 1.368 . S
H2407 C2415 0.950 . S
H2408 C2413 0.950 . S
H2409 C2414 0.949 . S
H2410 C2416 0.950 . S
H2411 C2417 0.950 . S
H2412 C2418 0.949 . S
C2413 H2408 0.950 . S
C2413 C2415 1.327 . S
C2413 C2419 1.429 . S
C2414 C2406 1.574 . S
C2414 H2409 0.949 . S
C2414 C2420 1.368 1_455 S
C2415 C2399 1.349 . S
C2415 H2407 0.950 . S
C2415 C2413 1.327 . S
C2416 C2404 1.349 . S
C2416 H2410 0.950 . S
C2416 C2417 1.327 . S
C2417 H2411 0.950 . S
C2417 C2416 1.327 . S
C2417 C2421 1.429 . S
C2418 C2401 1.574 . S
C2418 H2412 0.949 . S
C2418 C2422 1.368 1_655 S
C2419 C2400 1.429 . S
C2419 C2413 1.429 . S
C2419 C2420 1.523 . S
C2420 C2401 1.368 . S
C2420 C2414 1.368 1_655 S
C2420 C2419 1.523 . S
C2421 C2405 1.429 . S
C2421 C2417 1.429 . S
C2421 C2422 1.523 . S
C2422 C2406 1.368 . S
C2422 C2418 1.368 1_455 S
C2422 C2421 1.523 . S
H2423 C2398 0.950 . S
H2424 C2400 0.950 . S
H2425 C2401 0.949 . S
H2426 C2403 0.950 . S
H2427 C2405 0.950 . S
C2428 C2429 1.349 . S
C2428 C2430 1.327 . S
C2428 H2453 0.950 . S
C2429 C2428 1.349 . S
C2429 C2445 1.349 1_556 S
C2430 C2428 1.327 . S
C2430 C2449 1.429 . S
C2430 H2454 0.950 . S
C2431 C2448 1.574 . S
C2431 C2450 1.342 1_554 S
C2431 H2455 0.949 . S
H2432 C2436 0.949 . S
C2433 C2434 1.349 . S
C2433 C2435 1.327 . S
C2433 H2456 0.950 . S
C2434 C2433 1.349 . S
C2434 C2446 1.349 1_554 S
C2435 C2433 1.327 . S
C2435 C2451 1.429 . S
C2435 H2457 0.950 . S
C2436 H2432 0.949 . S
C2436 C2444 1.574 . S
C2436 C2452 1.344 1_556 S
H2437 C2445 0.950 . S
H2438 C2443 0.950 . S
H2439 C2444 0.949 . S
H2440 C2446 0.950 . S
H2441 C2447 0.950 . S
H2442 C2448 0.949 . S
C2443 H2438 0.950 . S
C2443 C2445 1.327 . S
C2443 C2449 1.429 1_554 S
C2444 C2436 1.574 . S
C2444 H2439 0.949 . S
C2444 C2450 1.394 . S
C2445 C2429 1.349 1_554 S
C2445 H2437 0.950 . S
C2445 C2443 1.327 . S
C2446 C2434 1.349 1_556 S
C2446 H2440 0.950 . S
C2446 C2447 1.327 . S
C2447 H2441 0.950 . S
C2447 C2446 1.327 . S
C2447 C2451 1.429 1_556 S
C2448 C2431 1.574 . S
C2448 H2442 0.949 . S
C2448 C2452 1.392 . S
C2449 C2430 1.429 . S
C2449 C2443 1.429 1_556 S
C2449 C2450 1.524 . S
C2450 C2431 1.342 1_556 S
C2450 C2444 1.394 . S
C2450 C2449 1.524 . S
C2451 C2435 1.429 . S
C2451 C2447 1.429 1_554 S
C2451 C2452 1.524 . S
C2452 C2436 1.344 1_554 S
C2452 C2448 1.392 . S
C2452 C2451 1.524 . S
H2453 C2428 0.950 . S
H2454 C2430 0.950 . S
H2455 C2431 0.949 . S
H2456 C2433 0.950 . S
H2457 C2435 0.950 . S
C2458 C2459 1.349 . S
C2458 C2460 1.327 . S
C2458 H2483 0.950 . S
C2459 C2458 1.349 . S
C2459 C2475 1.349 1_556 S
C2460 C2458 1.327 . S
C2460 C2479 1.429 . S
C2460 H2484 0.950 . S
C2461 C2478 1.574 1_545 S
C2461 C2480 1.343 1_654 S
C2461 H2485 0.949 . S
H2462 C2466 0.949 . S
C2463 C2464 1.349 . S
C2463 C2465 1.327 . S
C2463 H2486 0.950 . S
C2464 C2463 1.349 . S
C2464 C2476 1.349 1_554 S
C2465 C2463 1.327 . S
C2465 C2481 1.429 . S
C2465 H2487 0.950 . S
C2466 H2462 0.949 . S
C2466 C2474 1.574 1_565 S
C2466 C2482 1.343 1_456 S
H2467 C2475 0.950 . S
H2468 C2473 0.950 . S
H2469 C2474 0.949 . S
H2470 C2476 0.950 . S
H2471 C2477 0.950 . S
H2472 C2478 0.949 . S
C2473 H2468 0.950 . S
C2473 C2475 1.327 . S
C2473 C2479 1.429 1_554 S
C2474 C2466 1.574 1_545 S
C2474 H2469 0.949 . S
C2474 C2480 1.393 . S
C2475 C2459 1.349 1_554 S
C2475 H2467 0.950 . S
C2475 C2473 1.327 . S
C2476 C2464 1.349 1_556 S
C2476 H2470 0.950 . S
C2476 C2477 1.327 . S
C2477 H2471 0.950 . S
C2477 C2476 1.327 . S
C2477 C2481 1.429 1_556 S
C2478 C2461 1.574 1_565 S
C2478 H2472 0.949 . S
C2478 C2482 1.393 . S
C2479 C2460 1.429 . S
C2479 C2473 1.429 1_556 S
C2479 C2480 1.524 . S
C2480 C2461 1.343 1_456 S
C2480 C2474 1.393 . S
C2480 C2479 1.524 . S
C2481 C2465 1.429 . S
C2481 C2477 1.429 1_554 S
C2481 C2482 1.524 . S
C2482 C2466 1.343 1_654 S
C2482 C2478 1.393 . S
C2482 C2481 1.524 . S
H2483 C2458 0.950 . S
H2484 C2460 0.950 . S
H2485 C2461 0.949 . S
H2486 C2463 0.950 . S
H2487 C2465 0.950 . S
C2488 C2489 1.349 . S
C2488 C2490 1.327 . S
C2488 H2513 0.950 . S
C2489 C2488 1.349 . S
C2489 C2505 1.349 . S
C2490 C2488 1.327 . S
C2490 C2509 1.429 . S
C2490 H2514 0.950 . S
C2491 C2508 1.574 1_545 S
C2491 C2510 1.368 . S
C2491 H2515 0.949 . S
H2492 C2496 0.949 . S
C2493 C2494 1.349 . S
C2493 C2495 1.327 . S
C2493 H2516 0.950 . S
C2494 C2493 1.349 . S
C2494 C2506 1.349 . S
C2495 C2493 1.327 . S
C2495 C2511 1.429 . S
C2495 H2517 0.950 . S
C2496 H2492 0.949 . S
C2496 C2504 1.574 1_565 S
C2496 C2512 1.368 . S
H2497 C2505 0.950 . S
H2498 C2503 0.950 . S
H2499 C2504 0.949 . S
H2500 C2506 0.950 . S
H2501 C2507 0.950 . S
H2502 C2508 0.949 . S
C2503 H2498 0.950 . S
C2503 C2505 1.327 . S
C2503 C2509 1.429 . S
C2504 C2496 1.574 1_545 S
C2504 H2499 0.949 . S
C2504 C2510 1.368 . S
C2505 C2489 1.349 . S
C2505 H2497 0.950 . S
C2505 C2503 1.327 . S
C2506 C2494 1.349 . S
C2506 H2500 0.950 . S
C2506 C2507 1.327 . S
C2507 H2501 0.950 . S
C2507 C2506 1.327 . S
C2507 C2511 1.429 . S
C2508 C2491 1.574 1_565 S
C2508 H2502 0.949 . S
C2508 C2512 1.368 . S
C2509 C2490 1.429 . S
C2509 C2503 1.429 . S
C2509 C2510 1.523 . S
C2510 C2491 1.368 . S
C2510 C2504 1.368 . S
C2510 C2509 1.523 . S
C2511 C2495 1.429 . S
C2511 C2507 1.429 . S
C2511 C2512 1.523 . S
C2512 C2496 1.368 . S
C2512 C2508 1.368 . S
C2512 C2511 1.523 . S
H2513 C2488 0.950 . S
H2514 C2490 0.950 . S
H2515 C2491 0.949 . S
H2516 C2493 0.950 . S
H2517 C2495 0.950 . S
C2518 C2519 1.349 . S
C2518 C2520 1.327 . S
C2518 H2543 0.950 . S
C2519 C2518 1.349 . S
C2519 C2535 1.349 . S
C2520 C2518 1.327 . S
C2520 C2539 1.429 . S
C2520 H2544 0.950 . S
C2521 C2538 1.574 . S
C2521 C2540 1.368 . S
C2521 H2545 0.949 . S
H2522 C2526 0.949 . S
C2523 C2524 1.349 . S
C2523 C2525 1.327 . S
C2523 H2546 0.950 . S
C2524 C2523 1.349 . S
C2524 C2536 1.349 . S
C2525 C2523 1.327 . S
C2525 C2541 1.429 . S
C2525 H2547 0.950 . S
C2526 H2522 0.949 . S
C2526 C2534 1.574 . S
C2526 C2542 1.368 . S
H2527 C2535 0.950 . S
H2528 C2533 0.950 . S
H2529 C2534 0.949 . S
H2530 C2536 0.950 . S
H2531 C2537 0.950 . S
H2532 C2538 0.949 . S
C2533 H2528 0.950 . S
C2533 C2535 1.327 . S
C2533 C2539 1.429 . S
C2534 C2526 1.574 . S
C2534 H2529 0.949 . S
C2534 C2540 1.368 1_655 S
C2535 C2519 1.349 . S
C2535 H2527 0.950 . S
C2535 C2533 1.327 . S
C2536 C2524 1.349 . S
C2536 H2530 0.950 . S
C2536 C2537 1.327 . S
C2537 H2531 0.950 . S
C2537 C2536 1.327 . S
C2537 C2541 1.429 . S
C2538 C2521 1.574 . S
C2538 H2532 0.949 . S
C2538 C2542 1.368 1_455 S
C2539 C2520 1.429 . S
C2539 C2533 1.429 . S
C2539 C2540 1.523 . S
C2540 C2521 1.368 . S
C2540 C2534 1.368 1_455 S
C2540 C2539 1.523 . S
C2541 C2525 1.429 . S
C2541 C2537 1.429 . S
C2541 C2542 1.523 . S
C2542 C2526 1.368 . S
C2542 C2538 1.368 1_655 S
C2542 C2541 1.523 . S
H2543 C2518 0.950 . S
H2544 C2520 0.950 . S
H2545 C2521 0.949 . S
H2546 C2523 0.950 . S
H2547 C2525 0.950 . S
C2548 C2549 1.349 . S
C2548 C2550 1.327 . S
C2548 H2573 0.950 . S
C2549 C2548 1.349 . S
C2549 C2565 1.349 1_556 S
C2550 C2548 1.327 . S
C2550 C2569 1.429 . S
C2550 H2574 0.950 . S
C2551 C2568 1.574 . S
C2551 C2570 1.343 1_554 S
C2551 H2575 0.949 . S
H2552 C2556 0.949 . S
C2553 C2554 1.349 . S
C2553 C2555 1.327 . S
C2553 H2576 0.950 . S
C2554 C2553 1.349 . S
C2554 C2566 1.349 1_554 S
C2555 C2553 1.327 . S
C2555 C2571 1.429 . S
C2555 H2577 0.950 . S
C2556 H2552 0.949 . S
C2556 C2564 1.574 . S
C2556 C2572 1.341 1_556 S
H2557 C2565 0.950 . S
H2558 C2563 0.950 . S
H2559 C2564 0.949 . S
H2560 C2566 0.950 . S
H2561 C2567 0.950 . S
H2562 C2568 0.949 . S
C2563 H2558 0.950 . S
C2563 C2565 1.327 . S
C2563 C2569 1.429 1_554 S
C2564 C2556 1.574 . S
C2564 H2559 0.949 . S
C2564 C2570 1.393 . S
C2565 C2549 1.349 1_554 S
C2565 H2557 0.950 . S
C2565 C2563 1.327 . S
C2566 C2554 1.349 1_556 S
C2566 H2560 0.950 . S
C2566 C2567 1.327 . S
C2567 H2561 0.950 . S
C2567 C2566 1.327 . S
C2567 C2571 1.429 1_556 S
C2568 C2551 1.574 . S
C2568 H2562 0.949 . S
C2568 C2572 1.395 . S
C2569 C2550 1.429 . S
C2569 C2563 1.429 1_556 S
C2569 C2570 1.524 . S
C2570 C2551 1.343 1_556 S
C2570 C2564 1.393 . S
C2570 C2569 1.524 . S
C2571 C2555 1.429 . S
C2571 C2567 1.429 1_554 S
C2571 C2572 1.524 . S
C2572 C2556 1.341 1_554 S
C2572 C2568 1.395 . S
C2572 C2571 1.524 . S
H2573 C2548 0.950 . S
H2574 C2550 0.950 . S
H2575 C2551 0.949 . S
H2576 C2553 0.950 . S
H2577 C2555 0.950 . S
C2578 C2579 1.349 . S
C2578 C2580 1.327 . S
C2578 H2603 0.950 . S
C2579 C2578 1.349 . S
C2579 C2595 1.349 . S
C2580 C2578 1.327 . S
C2580 C2599 1.429 . S
C2580 H2604 0.950 . S
C2581 C2598 1.574 . S
C2581 C2600 1.368 . S
C2581 H2605 0.949 . S
H2582 C2586 0.949 . S
C2583 C2584 1.349 . S
C2583 C2585 1.327 . S
C2583 H2606 0.950 . S
C2584 C2583 1.349 . S
C2584 C2596 1.349 . S
C2585 C2583 1.327 . S
C2585 C2601 1.429 . S
C2585 H2607 0.950 . S
C2586 H2582 0.949 . S
C2586 C2594 1.574 . S
C2586 C2602 1.368 . S
H2587 C2595 0.950 . S
H2588 C2593 0.950 . S
H2589 C2594 0.949 . S
H2590 C2596 0.950 . S
H2591 C2597 0.950 . S
H2592 C2598 0.949 . S
C2593 H2588 0.950 . S
C2593 C2595 1.327 . S
C2593 C2599 1.429 . S
C2594 C2586 1.574 . S
C2594 H2589 0.949 . S
C2594 C2600 1.368 . S
C2595 C2579 1.349 . S
C2595 H2587 0.950 . S
C2595 C2593 1.327 . S
C2596 C2584 1.349 . S
C2596 H2590 0.950 . S
C2596 C2597 1.327 . S
C2597 H2591 0.950 . S
C2597 C2596 1.327 . S
C2597 C2601 1.429 . S
C2598 C2581 1.574 . S
C2598 H2592 0.949 . S
C2598 C2602 1.368 . S
C2599 C2580 1.429 . S
C2599 C2593 1.429 . S
C2599 C2600 1.523 . S
C2600 C2581 1.368 . S
C2600 C2594 1.368 . S
C2600 C2599 1.523 . S
C2601 C2585 1.429 . S
C2601 C2597 1.429 . S
C2601 C2602 1.523 . S
C2602 C2586 1.368 . S
C2602 C2598 1.368 . S
C2602 C2601 1.523 . S
H2603 C2578 0.950 . S
H2604 C2580 0.950 . S
H2605 C2581 0.949 . S
H2606 C2583 0.950 . S
H2607 C2585 0.950 . S
C2608 C2609 1.349 . S
C2608 C2610 1.327 . S
C2608 H2633 0.950 . S
C2609 C2608 1.349 . S
C2609 C2625 1.349 . S
C2610 C2608 1.327 . S
C2610 C2629 1.429 . S
C2610 H2634 0.950 . S
C2611 C2628 1.574 . S
C2611 C2630 1.368 . S
C2611 H2635 0.949 . S
H2612 C2616 0.949 . S
C2613 C2614 1.349 . S
C2613 C2615 1.327 . S
C2613 H2636 0.950 . S
C2614 C2613 1.349 . S
C2614 C2626 1.349 . S
C2615 C2613 1.327 . S
C2615 C2631 1.429 . S
C2615 H2637 0.950 . S
C2616 H2612 0.949 . S
C2616 C2624 1.574 . S
C2616 C2632 1.368 . S
H2617 C2625 0.950 . S
H2618 C2623 0.950 . S
H2619 C2624 0.949 . S
H2620 C2626 0.950 . S
H2621 C2627 0.950 . S
H2622 C2628 0.949 . S
C2623 H2618 0.950 . S
C2623 C2625 1.327 . S
C2623 C2629 1.429 . S
C2624 C2616 1.574 . S
C2624 H2619 0.949 . S
C2624 C2630 1.368 . S
C2625 C2609 1.349 . S
C2625 H2617 0.950 . S
C2625 C2623 1.327 . S
C2626 C2614 1.349 . S
C2626 H2620 0.950 . S
C2626 C2627 1.327 . S
C2627 H2621 0.950 . S
C2627 C2626 1.327 . S
C2627 C2631 1.429 . S
C2628 C2611 1.574 . S
C2628 H2622 0.949 . S
C2628 C2632 1.368 . S
C2629 C2610 1.429 . S
C2629 C2623 1.429 . S
C2629 C2630 1.523 . S
C2630 C2611 1.368 . S
C2630 C2624 1.368 . S
C2630 C2629 1.523 . S
C2631 C2615 1.429 . S
C2631 C2627 1.429 . S
C2631 C2632 1.523 . S
C2632 C2616 1.368 . S
C2632 C2628 1.368 . S
C2632 C2631 1.523 . S
H2633 C2608 0.950 . S
H2634 C2610 0.950 . S
H2635 C2611 0.949 . S
H2636 C2613 0.950 . S
H2637 C2615 0.950 . S
C2638 C2639 1.349 . S
C2638 C2640 1.327 . S
C2638 H2663 0.950 . S
C2639 C2638 1.349 . S
C2639 C2655 1.349 . S
C2640 C2638 1.327 . S
C2640 C2659 1.429 . S
C2640 H2664 0.950 . S
C2641 C2658 1.574 . S
C2641 C2660 1.368 1_455 S
C2641 H2665 0.949 . S
H2642 C2646 0.949 . S
C2643 C2644 1.349 . S
C2643 C2645 1.327 . S
C2643 H2666 0.950 . S
C2644 C2643 1.349 . S
C2644 C2656 1.349 . S
C2645 C2643 1.327 . S
C2645 C2661 1.429 . S
C2645 H2667 0.950 . S
C2646 H2642 0.949 . S
C2646 C2654 1.574 . S
C2646 C2662 1.368 1_655 S
H2647 C2655 0.950 . S
H2648 C2653 0.950 . S
H2649 C2654 0.949 . S
H2650 C2656 0.950 . S
H2651 C2657 0.950 . S
H2652 C2658 0.949 . S
C2653 H2648 0.950 . S
C2653 C2655 1.327 . S
C2653 C2659 1.429 . S
C2654 C2646 1.574 . S
C2654 H2649 0.949 . S
C2654 C2660 1.368 . S
C2655 C2639 1.349 . S
C2655 H2647 0.950 . S
C2655 C2653 1.327 . S
C2656 C2644 1.349 . S
C2656 H2650 0.950 . S
C2656 C2657 1.327 . S
C2657 H2651 0.950 . S
C2657 C2656 1.327 . S
C2657 C2661 1.429 . S
C2658 C2641 1.574 . S
C2658 H2652 0.949 . S
C2658 C2662 1.368 . S
C2659 C2640 1.429 . S
C2659 C2653 1.429 . S
C2659 C2660 1.523 . S
C2660 C2641 1.368 1_655 S
C2660 C2654 1.368 . S
C2660 C2659 1.523 . S
C2661 C2645 1.429 . S
C2661 C2657 1.429 . S
C2661 C2662 1.523 . S
C2662 C2646 1.368 1_455 S
C2662 C2658 1.368 . S
C2662 C2661 1.523 . S
H2663 C2638 0.950 . S
H2664 C2640 0.950 . S
H2665 C2641 0.949 . S
H2666 C2643 0.950 . S
H2667 C2645 0.950 . S
C2668 C2669 1.349 . S
C2668 C2670 1.327 . S
C2668 H2693 0.950 . S
C2669 C2668 1.349 . S
C2669 C2685 1.349 . S
C2670 C2668 1.327 . S
C2670 C2689 1.429 . S
C2670 H2694 0.950 . S
C2671 C2688 1.574 . S
C2671 C2690 1.368 . S
C2671 H2695 0.949 . S
H2672 C2676 0.949 . S
C2673 C2674 1.349 . S
C2673 C2675 1.327 . S
C2673 H2696 0.950 . S
C2674 C2673 1.349 . S
C2674 C2686 1.349 . S
C2675 C2673 1.327 . S
C2675 C2691 1.429 . S
C2675 H2697 0.950 . S
C2676 H2672 0.949 . S
C2676 C2684 1.574 . S
C2676 C2692 1.368 . S
H2677 C2685 0.950 . S
H2678 C2683 0.950 . S
H2679 C2684 0.949 . S
H2680 C2686 0.950 . S
H2681 C2687 0.950 . S
H2682 C2688 0.949 . S
C2683 H2678 0.950 . S
C2683 C2685 1.327 . S
C2683 C2689 1.429 . S
C2684 C2676 1.574 . S
C2684 H2679 0.949 . S
C2684 C2690 1.368 . S
C2685 C2669 1.349 . S
C2685 H2677 0.950 . S
C2685 C2683 1.327 . S
C2686 C2674 1.349 . S
C2686 H2680 0.950 . S
C2686 C2687 1.327 . S
C2687 H2681 0.950 . S
C2687 C2686 1.327 . S
C2687 C2691 1.429 . S
C2688 C2671 1.574 . S
C2688 H2682 0.949 . S
C2688 C2692 1.368 . S
C2689 C2670 1.429 . S
C2689 C2683 1.429 . S
C2689 C2690 1.523 . S
C2690 C2671 1.368 . S
C2690 C2684 1.368 . S
C2690 C2689 1.523 . S
C2691 C2675 1.429 . S
C2691 C2687 1.429 . S
C2691 C2692 1.523 . S
C2692 C2676 1.368 . S
C2692 C2688 1.368 . S
C2692 C2691 1.523 . S
H2693 C2668 0.950 . S
H2694 C2670 0.950 . S
H2695 C2671 0.949 . S
H2696 C2673 0.950 . S
H2697 C2675 0.950 . S
C2698 C2699 1.349 . S
C2698 C2700 1.327 . S
C2698 H2723 0.950 . S
C2699 C2698 1.349 . S
C2699 C2715 1.349 . S
C2700 C2698 1.327 . S
C2700 C2719 1.429 . S
C2700 H2724 0.950 . S
C2701 C2718 1.574 . S
C2701 C2720 1.368 . S
C2701 H2725 0.949 . S
H2702 C2706 0.949 . S
C2703 C2704 1.349 . S
C2703 C2705 1.327 . S
C2703 H2726 0.950 . S
C2704 C2703 1.349 . S
C2704 C2716 1.349 . S
C2705 C2703 1.327 . S
C2705 C2721 1.429 . S
C2705 H2727 0.950 . S
C2706 H2702 0.949 . S
C2706 C2714 1.574 . S
C2706 C2722 1.368 . S
H2707 C2715 0.950 . S
H2708 C2713 0.950 . S
H2709 C2714 0.949 . S
H2710 C2716 0.950 . S
H2711 C2717 0.950 . S
H2712 C2718 0.949 . S
C2713 H2708 0.950 . S
C2713 C2715 1.327 . S
C2713 C2719 1.429 . S
C2714 C2706 1.574 . S
C2714 H2709 0.949 . S
C2714 C2720 1.368 . S
C2715 C2699 1.349 . S
C2715 H2707 0.950 . S
C2715 C2713 1.327 . S
C2716 C2704 1.349 . S
C2716 H2710 0.950 . S
C2716 C2717 1.327 . S
C2717 H2711 0.950 . S
C2717 C2716 1.327 . S
C2717 C2721 1.429 . S
C2718 C2701 1.574 . S
C2718 H2712 0.949 . S
C2718 C2722 1.368 . S
C2719 C2700 1.429 . S
C2719 C2713 1.429 . S
C2719 C2720 1.523 . S
C2720 C2701 1.368 . S
C2720 C2714 1.368 . S
C2720 C2719 1.523 . S
C2721 C2705 1.429 . S
C2721 C2717 1.429 . S
C2721 C2722 1.523 . S
C2722 C2706 1.368 . S
C2722 C2718 1.368 . S
C2722 C2721 1.523 . S
H2723 C2698 0.950 . S
H2724 C2700 0.950 . S
H2725 C2701 0.949 . S
H2726 C2703 0.950 . S
H2727 C2705 0.950 . S
C2728 C2729 1.349 . S
C2728 C2730 1.327 . S
C2728 H2753 0.950 . S
C2729 C2728 1.349 . S
C2729 C2745 1.349 . S
C2730 C2728 1.327 . S
C2730 C2749 1.429 . S
C2730 H2754 0.950 . S
C2731 C2748 1.574 . S
C2731 C2750 1.368 . S
C2731 H2755 0.949 . S
H2732 C2736 0.949 . S
C2733 C2734 1.349 . S
C2733 C2735 1.327 . S
C2733 H2756 0.950 . S
C2734 C2733 1.349 . S
C2734 C2746 1.349 . S
C2735 C2733 1.327 . S
C2735 C2751 1.429 . S
C2735 H2757 0.950 . S
C2736 H2732 0.949 . S
C2736 C2744 1.574 . S
C2736 C2752 1.368 . S
H2737 C2745 0.950 . S
H2738 C2743 0.950 . S
H2739 C2744 0.949 . S
H2740 C2746 0.950 . S
H2741 C2747 0.950 . S
H2742 C2748 0.949 . S
C2743 H2738 0.950 . S
C2743 C2745 1.327 . S
C2743 C2749 1.429 . S
C2744 C2736 1.574 . S
C2744 H2739 0.949 . S
C2744 C2750 1.368 . S
C2745 C2729 1.349 . S
C2745 H2737 0.950 . S
C2745 C2743 1.327 . S
C2746 C2734 1.349 . S
C2746 H2740 0.950 . S
C2746 C2747 1.327 . S
C2747 H2741 0.950 . S
C2747 C2746 1.327 . S
C2747 C2751 1.429 . S
C2748 C2731 1.574 . S
C2748 H2742 0.949 . S
C2748 C2752 1.368 . S
C2749 C2730 1.429 . S
C2749 C2743 1.429 . S
C2749 C2750 1.523 . S
C2750 C2731 1.368 . S
C2750 C2744 1.368 . S
C2750 C2749 1.523 . S
C2751 C2735 1.429 . S
C2751 C2747 1.429 . S
C2751 C2752 1.523 . S
C2752 C2736 1.368 . S
C2752 C2748 1.368 . S
C2752 C2751 1.523 . S
H2753 C2728 0.950 . S
H2754 C2730 0.950 . S
H2755 C2731 0.949 . S
H2756 C2733 0.950 . S
H2757 C2735 0.950 . S
C2758 C2759 1.349 . S
C2758 C2760 1.327 . S
C2758 H2783 0.950 . S
C2759 C2758 1.349 . S
C2759 C2775 1.349 . S
C2760 C2758 1.327 . S
C2760 C2779 1.429 . S
C2760 H2784 0.950 . S
C2761 C2778 1.574 1_545 S
C2761 C2780 1.368 . S
C2761 H2785 0.949 . S
H2762 C2766 0.949 . S
C2763 C2764 1.349 . S
C2763 C2765 1.327 . S
C2763 H2786 0.950 . S
C2764 C2763 1.349 . S
C2764 C2776 1.349 . S
C2765 C2763 1.327 . S
C2765 C2781 1.429 . S
C2765 H2787 0.950 . S
C2766 H2762 0.949 . S
C2766 C2774 1.574 1_565 S
C2766 C2782 1.368 . S
H2767 C2775 0.950 . S
H2768 C2773 0.950 . S
H2769 C2774 0.949 . S
H2770 C2776 0.950 . S
H2771 C2777 0.950 . S
H2772 C2778 0.949 . S
C2773 H2768 0.950 . S
C2773 C2775 1.327 . S
C2773 C2779 1.429 . S
C2774 C2766 1.574 1_545 S
C2774 H2769 0.949 . S
C2774 C2780 1.368 . S
C2775 C2759 1.349 . S
C2775 H2767 0.950 . S
C2775 C2773 1.327 . S
C2776 C2764 1.349 . S
C2776 H2770 0.950 . S
C2776 C2777 1.327 . S
C2777 H2771 0.950 . S
C2777 C2776 1.327 . S
C2777 C2781 1.429 . S
C2778 C2761 1.574 1_565 S
C2778 H2772 0.949 . S
C2778 C2782 1.368 . S
C2779 C2760 1.429 . S
C2779 C2773 1.429 . S
C2779 C2780 1.523 . S
C2780 C2761 1.368 . S
C2780 C2774 1.368 . S
C2780 C2779 1.523 . S
C2781 C2765 1.429 . S
C2781 C2777 1.429 . S
C2781 C2782 1.523 . S
C2782 C2766 1.368 . S
C2782 C2778 1.368 . S
C2782 C2781 1.523 . S
H2783 C2758 0.950 . S
H2784 C2760 0.950 . S
H2785 C2761 0.949 . S
H2786 C2763 0.950 . S
H2787 C2765 0.950 . S
C2788 C2789 1.349 . S
C2788 C2790 1.327 . S
C2788 H2813 0.950 . S
C2789 C2788 1.349 . S
C2789 C2805 1.349 . S
C2790 C2788 1.327 . S
C2790 C2809 1.429 . S
C2790 H2814 0.950 . S
C2791 C2808 1.574 . S
C2791 C2810 1.368 . S
C2791 H2815 0.949 . S
H2792 C2796 0.949 . S
C2793 C2794 1.349 . S
C2793 C2795 1.327 . S
C2793 H2816 0.950 . S
C2794 C2793 1.349 . S
C2794 C2806 1.349 . S
C2795 C2793 1.327 . S
C2795 C2811 1.429 . S
C2795 H2817 0.950 . S
C2796 H2792 0.949 . S
C2796 C2804 1.574 . S
C2796 C2812 1.368 . S
H2797 C2805 0.950 . S
H2798 C2803 0.950 . S
H2799 C2804 0.949 . S
H2800 C2806 0.950 . S
H2801 C2807 0.950 . S
H2802 C2808 0.949 . S
C2803 H2798 0.950 . S
C2803 C2805 1.327 . S
C2803 C2809 1.429 . S
C2804 C2796 1.574 . S
C2804 H2799 0.949 . S
C2804 C2810 1.368 . S
C2805 C2789 1.349 . S
C2805 H2797 0.950 . S
C2805 C2803 1.327 . S
C2806 C2794 1.349 . S
C2806 H2800 0.950 . S
C2806 C2807 1.327 . S
C2807 H2801 0.950 . S
C2807 C2806 1.327 . S
C2807 C2811 1.429 . S
C2808 C2791 1.574 . S
C2808 H2802 0.949 . S
C2808 C2812 1.368 . S
C2809 C2790 1.429 . S
C2809 C2803 1.429 . S
C2809 C2810 1.523 . S
C2810 C2791 1.368 . S
C2810 C2804 1.368 . S
C2810 C2809 1.523 . S
C2811 C2795 1.429 . S
C2811 C2807 1.429 . S
C2811 C2812 1.523 . S
C2812 C2796 1.368 . S
C2812 C2808 1.368 . S
C2812 C2811 1.523 . S
H2813 C2788 0.950 . S
H2814 C2790 0.950 . S
H2815 C2791 0.949 . S
H2816 C2793 0.950 . S
H2817 C2795 0.950 . S
C2818 C2819 1.349 1_556 S
C2818 C2820 1.327 . S
C2818 H2843 0.950 . S
C2819 C2818 1.349 1_554 S
C2819 C2835 1.349 . S
C2820 C2818 1.327 . S
C2820 C2839 1.429 1_556 S
C2820 H2844 0.950 . S
C2821 C2838 1.574 . S
C2821 C2840 1.394 . S
C2821 H2845 0.949 . S
H2822 C2826 0.949 . S
C2823 C2824 1.349 1_554 S
C2823 C2825 1.327 . S
C2823 H2846 0.950 . S
C2824 C2823 1.349 1_556 S
C2824 C2836 1.349 . S
C2825 C2823 1.327 . S
C2825 C2841 1.429 1_554 S
C2825 H2847 0.950 . S
C2826 H2822 0.949 . S
C2826 C2834 1.574 . S
C2826 C2842 1.394 . S
H2827 C2835 0.950 . S
H2828 C2833 0.950 . S
H2829 C2834 0.949 . S
H2830 C2836 0.950 . S
H2831 C2837 0.950 . S
H2832 C2838 0.949 . S
C2833 H2828 0.950 . S
C2833 C2835 1.327 . S
C2833 C2839 1.429 . S
C2834 C2826 1.574 . S
C2834 H2829 0.949 . S
C2834 C2840 1.342 1_556 S
C2835 C2819 1.349 . S
C2835 H2827 0.950 . S
C2835 C2833 1.327 . S
C2836 C2824 1.349 . S
C2836 H2830 0.950 . S
C2836 C2837 1.327 . S
C2837 H2831 0.950 . S
C2837 C2836 1.327 . S
C2837 C2841 1.429 . S
C2838 C2821 1.574 . S
C2838 H2832 0.949 . S
C2838 C2842 1.342 1_554 S
C2839 C2820 1.429 1_554 S
C2839 C2833 1.429 . S
C2839 C2840 1.524 . S
C2840 C2821 1.394 . S
C2840 C2834 1.342 1_554 S
C2840 C2839 1.524 . S
C2841 C2825 1.429 1_556 S
C2841 C2837 1.429 . S
C2841 C2842 1.524 . S
C2842 C2826 1.394 . S
C2842 C2838 1.342 1_556 S
C2842 C2841 1.524 . S
H2843 C2818 0.950 . S
H2844 C2820 0.950 . S
H2845 C2821 0.949 . S
H2846 C2823 0.950 . S
H2847 C2825 0.950 . S
C2848 C2849 1.349 . S
C2848 C2850 1.327 . S
C2848 H2873 0.950 . S
C2849 C2848 1.349 . S
C2849 C2865 1.349 . S
C2850 C2848 1.327 . S
C2850 C2869 1.429 . S
C2850 H2874 0.950 . S
C2851 C2868 1.574 . S
C2851 C2870 1.368 . S
C2851 H2875 0.949 . S
H2852 C2856 0.949 . S
C2853 C2854 1.349 . S
C2853 C2855 1.327 . S
C2853 H2876 0.950 . S
C2854 C2853 1.349 . S
C2854 C2866 1.349 . S
C2855 C2853 1.327 . S
C2855 C2871 1.429 . S
C2855 H2877 0.950 . S
C2856 H2852 0.949 . S
C2856 C2864 1.574 . S
C2856 C2872 1.368 . S
H2857 C2865 0.950 . S
H2858 C2863 0.950 . S
H2859 C2864 0.949 . S
H2860 C2866 0.950 . S
H2861 C2867 0.950 . S
H2862 C2868 0.949 . S
C2863 H2858 0.950 . S
C2863 C2865 1.327 . S
C2863 C2869 1.429 . S
C2864 C2856 1.574 . S
C2864 H2859 0.949 . S
C2864 C2870 1.368 . S
C2865 C2849 1.349 . S
C2865 H2857 0.950 . S
C2865 C2863 1.327 . S
C2866 C2854 1.349 . S
C2866 H2860 0.950 . S
C2866 C2867 1.327 . S
C2867 H2861 0.950 . S
C2867 C2866 1.327 . S
C2867 C2871 1.429 . S
C2868 C2851 1.574 . S
C2868 H2862 0.949 . S
C2868 C2872 1.368 . S
C2869 C2850 1.429 . S
C2869 C2863 1.429 . S
C2869 C2870 1.523 . S
C2870 C2851 1.368 . S
C2870 C2864 1.368 . S
C2870 C2869 1.523 . S
C2871 C2855 1.429 . S
C2871 C2867 1.429 . S
C2871 C2872 1.523 . S
C2872 C2856 1.368 . S
C2872 C2868 1.368 . S
C2872 C2871 1.523 . S
H2873 C2848 0.950 . S
H2874 C2850 0.950 . S
H2875 C2851 0.949 . S
H2876 C2853 0.950 . S
H2877 C2855 0.950 . S
C2878 C2879 1.349 . S
C2878 C2880 1.327 . S
C2878 H2903 0.950 . S
C2879 C2878 1.349 . S
C2879 C2895 1.349 1_556 S
C2880 C2878 1.327 . S
C2880 C2899 1.429 . S
C2880 H2904 0.950 . S
C2881 C2898 1.574 . S
C2881 C2900 1.368 1_554 S
C2881 H2905 0.949 . S
H2882 C2886 0.949 . S
C2883 C2884 1.349 1_554 S
C2883 C2885 1.327 . S
C2883 H2906 0.950 . S
C2884 C2883 1.349 1_556 S
C2884 C2896 1.349 . S
C2885 C2883 1.327 . S
C2885 C2901 1.429 1_554 S
C2885 H2907 0.950 . S
C2886 H2882 0.949 . S
C2886 C2894 1.574 . S
C2886 C2902 1.368 . S
H2887 C2895 0.950 . S
H2888 C2893 0.950 . S
H2889 C2894 0.949 . S
H2890 C2896 0.950 . S
H2891 C2897 0.950 . S
H2892 C2898 0.949 . S
C2893 H2888 0.950 . S
C2893 C2895 1.327 . S
C2893 C2899 1.429 1_554 S
C2894 C2886 1.574 . S
C2894 H2889 0.949 . S
C2894 C2900 1.368 . S
C2895 C2879 1.349 1_554 S
C2895 H2887 0.950 . S
C2895 C2893 1.327 . S
C2896 C2884 1.349 . S
C2896 H2890 0.950 . S
C2896 C2897 1.327 . S
C2897 H2891 0.950 . S
C2897 C2896 1.327 . S
C2897 C2901 1.429 . S
C2898 C2881 1.574 . S
C2898 H2892 0.949 . S
C2898 C2902 1.368 1_554 S
C2899 C2880 1.429 . S
C2899 C2893 1.429 1_556 S
C2899 C2900 1.523 . S
C2900 C2881 1.368 1_556 S
C2900 C2894 1.368 . S
C2900 C2899 1.523 . S
C2901 C2885 1.429 1_556 S
C2901 C2897 1.429 . S
C2901 C2902 1.523 . S
C2902 C2886 1.368 . S
C2902 C2898 1.368 1_556 S
C2902 C2901 1.523 . S
H2903 C2878 0.950 . S
H2904 C2880 0.950 . S
H2905 C2881 0.949 . S
H2906 C2883 0.950 . S
H2907 C2885 0.950 . S
C2908 C2909 1.349 . S
C2908 C2910 1.327 . S
C2908 H2933 0.950 . S
C2909 C2908 1.349 . S
C2909 C2925 1.349 . S
C2910 C2908 1.327 . S
C2910 C2929 1.429 . S
C2910 H2934 0.950 . S
C2911 C2928 1.574 . S
C2911 C2930 1.368 . S
C2911 H2935 0.949 . S
H2912 C2916 0.949 . S
C2913 C2914 1.349 . S
C2913 C2915 1.327 . S
C2913 H2936 0.950 . S
C2914 C2913 1.349 . S
C2914 C2926 1.349 . S
C2915 C2913 1.327 . S
C2915 C2931 1.429 . S
C2915 H2937 0.950 . S
C2916 H2912 0.949 . S
C2916 C2924 1.574 . S
C2916 C2932 1.368 . S
H2917 C2925 0.950 . S
H2918 C2923 0.950 . S
H2919 C2924 0.949 . S
H2920 C2926 0.950 . S
H2921 C2927 0.950 . S
H2922 C2928 0.949 . S
C2923 H2918 0.950 . S
C2923 C2925 1.327 . S
C2923 C2929 1.429 . S
C2924 C2916 1.574 . S
C2924 H2919 0.949 . S
C2924 C2930 1.368 . S
C2925 C2909 1.349 . S
C2925 H2917 0.950 . S
C2925 C2923 1.327 . S
C2926 C2914 1.349 . S
C2926 H2920 0.950 . S
C2926 C2927 1.327 . S
C2927 H2921 0.950 . S
C2927 C2926 1.327 . S
C2927 C2931 1.429 . S
C2928 C2911 1.574 . S
C2928 H2922 0.949 . S
C2928 C2932 1.368 . S
C2929 C2910 1.429 . S
C2929 C2923 1.429 . S
C2929 C2930 1.523 . S
C2930 C2911 1.368 . S
C2930 C2924 1.368 . S
C2930 C2929 1.523 . S
C2931 C2915 1.429 . S
C2931 C2927 1.429 . S
C2931 C2932 1.523 . S
C2932 C2916 1.368 . S
C2932 C2928 1.368 . S
C2932 C2931 1.523 . S
H2933 C2908 0.950 . S
H2934 C2910 0.950 . S
H2935 C2911 0.949 . S
H2936 C2913 0.950 . S
H2937 C2915 0.950 . S
C2938 C2939 1.349 . S
C2938 C2940 1.327 . S
C2938 H2963 0.950 . S
C2939 C2938 1.349 . S
C2939 C2955 1.349 1_554 S
C2940 C2938 1.327 . S
C2940 C2959 1.429 . S
C2940 H2964 0.950 . S
C2941 C2958 1.574 . S
C2941 C2960 1.368 1_556 S
C2941 H2965 0.949 . S
H2942 C2946 0.949 . S
C2943 C2944 1.349 1_556 S
C2943 C2945 1.327 . S
C2943 H2966 0.950 . S
C2944 C2943 1.349 1_554 S
C2944 C2956 1.349 . S
C2945 C2943 1.327 . S
C2945 C2961 1.429 1_556 S
C2945 H2967 0.950 . S
C2946 H2942 0.949 . S
C2946 C2954 1.574 . S
C2946 C2962 1.368 . S
H2947 C2955 0.950 . S
H2948 C2953 0.950 . S
H2949 C2954 0.949 . S
H2950 C2956 0.950 . S
H2951 C2957 0.950 . S
H2952 C2958 0.949 . S
C2953 H2948 0.950 . S
C2953 C2955 1.327 . S
C2953 C2959 1.429 1_556 S
C2954 C2946 1.574 . S
C2954 H2949 0.949 . S
C2954 C2960 1.368 . S
C2955 C2939 1.349 1_556 S
C2955 H2947 0.950 . S
C2955 C2953 1.327 . S
C2956 C2944 1.349 . S
C2956 H2950 0.950 . S
C2956 C2957 1.327 . S
C2957 H2951 0.950 . S
C2957 C2956 1.327 . S
C2957 C2961 1.429 . S
C2958 C2941 1.574 . S
C2958 H2952 0.949 . S
C2958 C2962 1.368 1_556 S
C2959 C2940 1.429 . S
C2959 C2953 1.429 1_554 S
C2959 C2960 1.523 . S
C2960 C2941 1.368 1_554 S
C2960 C2954 1.368 . S
C2960 C2959 1.523 . S
C2961 C2945 1.429 1_554 S
C2961 C2957 1.429 . S
C2961 C2962 1.523 . S
C2962 C2946 1.368 . S
C2962 C2958 1.368 1_554 S
C2962 C2961 1.523 . S
H2963 C2938 0.950 . S
H2964 C2940 0.950 . S
H2965 C2941 0.949 . S
H2966 C2943 0.950 . S
H2967 C2945 0.950 . S
C2968 C2969 1.349 . S
C2968 C2970 1.327 . S
C2968 H2993 0.950 . S
C2969 C2968 1.349 . S
C2969 C2985 1.349 . S
C2970 C2968 1.327 . S
C2970 C2989 1.429 . S
C2970 H2994 0.950 . S
C2971 C2988 1.574 . S
C2971 C2990 1.368 . S
C2971 H2995 0.949 . S
H2972 C2976 0.949 . S
C2973 C2974 1.349 . S
C2973 C2975 1.327 . S
C2973 H2996 0.950 . S
C2974 C2973 1.349 . S
C2974 C2986 1.349 . S
C2975 C2973 1.327 . S
C2975 C2991 1.429 . S
C2975 H2997 0.950 . S
C2976 H2972 0.949 . S
C2976 C2984 1.574 . S
C2976 C2992 1.368 . S
H2977 C2985 0.950 . S
H2978 C2983 0.950 . S
H2979 C2984 0.949 . S
H2980 C2986 0.950 . S
H2981 C2987 0.950 . S
H2982 C2988 0.949 . S
C2983 H2978 0.950 . S
C2983 C2985 1.327 . S
C2983 C2989 1.429 . S
C2984 C2976 1.574 . S
C2984 H2979 0.949 . S
C2984 C2990 1.368 . S
C2985 C2969 1.349 . S
C2985 H2977 0.950 . S
C2985 C2983 1.327 . S
C2986 C2974 1.349 . S
C2986 H2980 0.950 . S
C2986 C2987 1.327 . S
C2987 H2981 0.950 . S
C2987 C2986 1.327 . S
C2987 C2991 1.429 . S
C2988 C2971 1.574 . S
C2988 H2982 0.949 . S
C2988 C2992 1.368 . S
C2989 C2970 1.429 . S
C2989 C2983 1.429 . S
C2989 C2990 1.523 . S
C2990 C2971 1.368 . S
C2990 C2984 1.368 . S
C2990 C2989 1.523 . S
C2991 C2975 1.429 . S
C2991 C2987 1.429 . S
C2991 C2992 1.523 . S
C2992 C2976 1.368 . S
C2992 C2988 1.368 . S
C2992 C2991 1.523 . S
H2993 C2968 0.950 . S
H2994 C2970 0.950 . S
H2995 C2971 0.949 . S
H2996 C2973 0.950 . S
H2997 C2975 0.950 . S
C2998 C2999 1.349 . S
C2998 C3000 1.327 . S
C2998 H3023 0.950 . S
C2999 C2998 1.349 . S
C2999 C3015 1.349 . S
C3000 C2998 1.327 . S
C3000 C3019 1.429 . S
C3000 H3024 0.950 . S
C3001 C3018 1.574 . S
C3001 C3020 1.368 . S
C3001 H3025 0.949 . S
H3002 C3006 0.949 . S
C3003 C3004 1.349 . S
C3003 C3005 1.327 . S
C3003 H3026 0.950 . S
C3004 C3003 1.349 . S
C3004 C3016 1.349 . S
C3005 C3003 1.327 . S
C3005 C3021 1.429 . S
C3005 H3027 0.950 . S
C3006 H3002 0.949 . S
C3006 C3014 1.574 . S
C3006 C3022 1.368 . S
H3007 C3015 0.950 . S
H3008 C3013 0.950 . S
H3009 C3014 0.949 . S
H3010 C3016 0.950 . S
H3011 C3017 0.950 . S
H3012 C3018 0.949 . S
C3013 H3008 0.950 . S
C3013 C3015 1.327 . S
C3013 C3019 1.429 . S
C3014 C3006 1.574 . S
C3014 H3009 0.949 . S
C3014 C3020 1.368 . S
C3015 C2999 1.349 . S
C3015 H3007 0.950 . S
C3015 C3013 1.327 . S
C3016 C3004 1.349 . S
C3016 H3010 0.950 . S
C3016 C3017 1.327 . S
C3017 H3011 0.950 . S
C3017 C3016 1.327 . S
C3017 C3021 1.429 . S
C3018 C3001 1.574 . S
C3018 H3012 0.949 . S
C3018 C3022 1.368 . S
C3019 C3000 1.429 . S
C3019 C3013 1.429 . S
C3019 C3020 1.523 . S
C3020 C3001 1.368 . S
C3020 C3014 1.368 . S
C3020 C3019 1.523 . S
C3021 C3005 1.429 . S
C3021 C3017 1.429 . S
C3021 C3022 1.523 . S
C3022 C3006 1.368 . S
C3022 C3018 1.368 . S
C3022 C3021 1.523 . S
H3023 C2998 0.950 . S
H3024 C3000 0.950 . S
H3025 C3001 0.949 . S
H3026 C3003 0.950 . S
H3027 C3005 0.950 . S
C3028 C3029 1.349 . S
C3028 C3030 1.327 . S
C3028 H3053 0.950 . S
C3029 C3028 1.349 . S
C3029 C3045 1.349 . S
C3030 C3028 1.327 . S
C3030 C3049 1.429 . S
C3030 H3054 0.950 . S
C3031 C3048 1.574 . S
C3031 C3050 1.368 . S
C3031 H3055 0.949 . S
H3032 C3036 0.949 . S
C3033 C3034 1.349 . S
C3033 C3035 1.327 . S
C3033 H3056 0.950 . S
C3034 C3033 1.349 . S
C3034 C3046 1.349 . S
C3035 C3033 1.327 . S
C3035 C3051 1.429 . S
C3035 H3057 0.950 . S
C3036 H3032 0.949 . S
C3036 C3044 1.574 . S
C3036 C3052 1.368 . S
H3037 C3045 0.950 . S
H3038 C3043 0.950 . S
H3039 C3044 0.949 . S
H3040 C3046 0.950 . S
H3041 C3047 0.950 . S
H3042 C3048 0.949 . S
C3043 H3038 0.950 . S
C3043 C3045 1.327 . S
C3043 C3049 1.429 . S
C3044 C3036 1.574 . S
C3044 H3039 0.949 . S
C3044 C3050 1.368 . S
C3045 C3029 1.349 . S
C3045 H3037 0.950 . S
C3045 C3043 1.327 . S
C3046 C3034 1.349 . S
C3046 H3040 0.950 . S
C3046 C3047 1.327 . S
C3047 H3041 0.950 . S
C3047 C3046 1.327 . S
C3047 C3051 1.429 . S
C3048 C3031 1.574 . S
C3048 H3042 0.949 . S
C3048 C3052 1.368 . S
C3049 C3030 1.429 . S
C3049 C3043 1.429 . S
C3049 C3050 1.523 . S
C3050 C3031 1.368 . S
C3050 C3044 1.368 . S
C3050 C3049 1.523 . S
C3051 C3035 1.429 . S
C3051 C3047 1.429 . S
C3051 C3052 1.523 . S
C3052 C3036 1.368 . S
C3052 C3048 1.368 . S
C3052 C3051 1.523 . S
H3053 C3028 0.950 . S
H3054 C3030 0.950 . S
H3055 C3031 0.949 . S
H3056 C3033 0.950 . S
H3057 C3035 0.950 . S
C3058 C3059 1.349 . S
C3058 C3060 1.327 . S
C3058 H3083 0.950 . S
C3059 C3058 1.349 . S
C3059 C3075 1.349 . S
C3060 C3058 1.327 . S
C3060 C3079 1.429 . S
C3060 H3084 0.950 . S
C3061 C3078 1.574 . S
C3061 C3080 1.368 . S
C3061 H3085 0.949 . S
H3062 C3066 0.949 . S
C3063 C3064 1.349 . S
C3063 C3065 1.327 . S
C3063 H3086 0.950 . S
C3064 C3063 1.349 . S
C3064 C3076 1.349 . S
C3065 C3063 1.327 . S
C3065 C3081 1.429 . S
C3065 H3087 0.950 . S
C3066 H3062 0.949 . S
C3066 C3074 1.574 . S
C3066 C3082 1.368 . S
H3067 C3075 0.950 . S
H3068 C3073 0.950 . S
H3069 C3074 0.949 . S
H3070 C3076 0.950 . S
H3071 C3077 0.950 . S
H3072 C3078 0.949 . S
C3073 H3068 0.950 . S
C3073 C3075 1.327 . S
C3073 C3079 1.429 . S
C3074 C3066 1.574 . S
C3074 H3069 0.949 . S
C3074 C3080 1.368 . S
C3075 C3059 1.349 . S
C3075 H3067 0.950 . S
C3075 C3073 1.327 . S
C3076 C3064 1.349 . S
C3076 H3070 0.950 . S
C3076 C3077 1.327 . S
C3077 H3071 0.950 . S
C3077 C3076 1.327 . S
C3077 C3081 1.429 . S
C3078 C3061 1.574 . S
C3078 H3072 0.949 . S
C3078 C3082 1.368 . S
C3079 C3060 1.429 . S
C3079 C3073 1.429 . S
C3079 C3080 1.523 . S
C3080 C3061 1.368 . S
C3080 C3074 1.368 . S
C3080 C3079 1.523 . S
C3081 C3065 1.429 . S
C3081 C3077 1.429 . S
C3081 C3082 1.523 . S
C3082 C3066 1.368 . S
C3082 C3078 1.368 . S
C3082 C3081 1.523 . S
H3083 C3058 0.950 . S
H3084 C3060 0.950 . S
H3085 C3061 0.949 . S
H3086 C3063 0.950 . S
H3087 C3065 0.950 . S
C3088 C3089 1.349 . S
C3088 C3090 1.327 . S
C3088 H3113 0.950 . S
C3089 C3088 1.349 . S
C3089 C3105 1.349 . S
C3090 C3088 1.327 . S
C3090 C3109 1.429 . S
C3090 H3114 0.950 . S
C3091 C3108 1.574 . S
C3091 C3110 1.368 . S
C3091 H3115 0.949 . S
H3092 C3096 0.949 . S
C3093 C3094 1.349 . S
C3093 C3095 1.327 . S
C3093 H3116 0.950 . S
C3094 C3093 1.349 . S
C3094 C3106 1.349 . S
C3095 C3093 1.327 . S
C3095 C3111 1.429 . S
C3095 H3117 0.950 . S
C3096 H3092 0.949 . S
C3096 C3104 1.574 . S
C3096 C3112 1.368 . S
H3097 C3105 0.950 . S
H3098 C3103 0.950 . S
H3099 C3104 0.949 . S
H3100 C3106 0.950 . S
H3101 C3107 0.950 . S
H3102 C3108 0.949 . S
C3103 H3098 0.950 . S
C3103 C3105 1.327 . S
C3103 C3109 1.429 . S
C3104 C3096 1.574 . S
C3104 H3099 0.949 . S
C3104 C3110 1.368 . S
C3105 C3089 1.349 . S
C3105 H3097 0.950 . S
C3105 C3103 1.327 . S
C3106 C3094 1.349 . S
C3106 H3100 0.950 . S
C3106 C3107 1.327 . S
C3107 H3101 0.950 . S
C3107 C3106 1.327 . S
C3107 C3111 1.429 . S
C3108 C3091 1.574 . S
C3108 H3102 0.949 . S
C3108 C3112 1.368 . S
C3109 C3090 1.429 . S
C3109 C3103 1.429 . S
C3109 C3110 1.523 . S
C3110 C3091 1.368 . S
C3110 C3104 1.368 . S
C3110 C3109 1.523 . S
C3111 C3095 1.429 . S
C3111 C3107 1.429 . S
C3111 C3112 1.523 . S
C3112 C3096 1.368 . S
C3112 C3108 1.368 . S
C3112 C3111 1.523 . S
H3113 C3088 0.950 . S
H3114 C3090 0.950 . S
H3115 C3091 0.949 . S
H3116 C3093 0.950 . S
H3117 C3095 0.950 . S
C3118 C3119 1.349 . S
C3118 C3120 1.327 . S
C3118 H3143 0.950 . S
C3119 C3118 1.349 . S
C3119 C3135 1.349 . S
C3120 C3118 1.327 . S
C3120 C3139 1.429 . S
C3120 H3144 0.950 . S
C3121 C3138 1.574 . S
C3121 C3140 1.368 . S
C3121 H3145 0.949 . S
H3122 C3126 0.949 . S
C3123 C3124 1.349 . S
C3123 C3125 1.327 . S
C3123 H3146 0.950 . S
C3124 C3123 1.349 . S
C3124 C3136 1.349 . S
C3125 C3123 1.327 . S
C3125 C3141 1.429 . S
C3125 H3147 0.950 . S
C3126 H3122 0.949 . S
C3126 C3134 1.574 . S
C3126 C3142 1.368 . S
H3127 C3135 0.950 . S
H3128 C3133 0.950 . S
H3129 C3134 0.949 . S
H3130 C3136 0.950 . S
H3131 C3137 0.950 . S
H3132 C3138 0.949 . S
C3133 H3128 0.950 . S
C3133 C3135 1.327 . S
C3133 C3139 1.429 . S
C3134 C3126 1.574 . S
C3134 H3129 0.949 . S
C3134 C3140 1.368 . S
C3135 C3119 1.349 . S
C3135 H3127 0.950 . S
C3135 C3133 1.327 . S
C3136 C3124 1.349 . S
C3136 H3130 0.950 . S
C3136 C3137 1.327 . S
C3137 H3131 0.950 . S
C3137 C3136 1.327 . S
C3137 C3141 1.429 . S
C3138 C3121 1.574 . S
C3138 H3132 0.949 . S
C3138 C3142 1.368 . S
C3139 C3120 1.429 . S
C3139 C3133 1.429 . S
C3139 C3140 1.523 . S
C3140 C3121 1.368 . S
C3140 C3134 1.368 . S
C3140 C3139 1.523 . S
C3141 C3125 1.429 . S
C3141 C3137 1.429 . S
C3141 C3142 1.523 . S
C3142 C3126 1.368 . S
C3142 C3138 1.368 . S
C3142 C3141 1.523 . S
H3143 C3118 0.950 . S
H3144 C3120 0.950 . S
H3145 C3121 0.949 . S
H3146 C3123 0.950 . S
H3147 C3125 0.950 . S
C3148 C3149 1.349 . S
C3148 C3150 1.327 . S
C3148 H3173 0.950 . S
C3149 C3148 1.349 . S
C3149 C3165 1.349 . S
C3150 C3148 1.327 . S
C3150 C3169 1.429 . S
C3150 H3174 0.950 . S
C3151 C3168 1.574 . S
C3151 C3170 1.368 . S
C3151 H3175 0.949 . S
H3152 C3156 0.949 . S
C3153 C3154 1.349 . S
C3153 C3155 1.327 . S
C3153 H3176 0.950 . S
C3154 C3153 1.349 . S
C3154 C3166 1.349 . S
C3155 C3153 1.327 . S
C3155 C3171 1.429 . S
C3155 H3177 0.950 . S
C3156 H3152 0.949 . S
C3156 C3164 1.574 . S
C3156 C3172 1.368 . S
H3157 C3165 0.950 . S
H3158 C3163 0.950 . S
H3159 C3164 0.949 . S
H3160 C3166 0.950 . S
H3161 C3167 0.950 . S
H3162 C3168 0.949 . S
C3163 H3158 0.950 . S
C3163 C3165 1.327 . S
C3163 C3169 1.429 . S
C3164 C3156 1.574 . S
C3164 H3159 0.949 . S
C3164 C3170 1.368 . S
C3165 C3149 1.349 . S
C3165 H3157 0.950 . S
C3165 C3163 1.327 . S
C3166 C3154 1.349 . S
C3166 H3160 0.950 . S
C3166 C3167 1.327 . S
C3167 H3161 0.950 . S
C3167 C3166 1.327 . S
C3167 C3171 1.429 . S
C3168 C3151 1.574 . S
C3168 H3162 0.949 . S
C3168 C3172 1.368 . S
C3169 C3150 1.429 . S
C3169 C3163 1.429 . S
C3169 C3170 1.523 . S
C3170 C3151 1.368 . S
C3170 C3164 1.368 . S
C3170 C3169 1.523 . S
C3171 C3155 1.429 . S
C3171 C3167 1.429 . S
C3171 C3172 1.523 . S
C3172 C3156 1.368 . S
C3172 C3168 1.368 . S
C3172 C3171 1.523 . S
H3173 C3148 0.950 . S
H3174 C3150 0.950 . S
H3175 C3151 0.949 . S
H3176 C3153 0.950 . S
H3177 C3155 0.950 . S
C3178 C3179 1.349 . S
C3178 C3180 1.327 . S
C3178 H3203 0.950 . S
C3179 C3178 1.349 . S
C3179 C3195 1.349 . S
C3180 C3178 1.327 . S
C3180 C3199 1.429 . S
C3180 H3204 0.950 . S
C3181 C3198 1.574 . S
C3181 C3200 1.368 . S
C3181 H3205 0.949 . S
H3182 C3186 0.949 . S
C3183 C3184 1.349 . S
C3183 C3185 1.327 . S
C3183 H3206 0.950 . S
C3184 C3183 1.349 . S
C3184 C3196 1.349 . S
C3185 C3183 1.327 . S
C3185 C3201 1.429 . S
C3185 H3207 0.950 . S
C3186 H3182 0.949 . S
C3186 C3194 1.574 . S
C3186 C3202 1.368 . S
H3187 C3195 0.950 . S
H3188 C3193 0.950 . S
H3189 C3194 0.949 . S
H3190 C3196 0.950 . S
H3191 C3197 0.950 . S
H3192 C3198 0.949 . S
C3193 H3188 0.950 . S
C3193 C3195 1.327 . S
C3193 C3199 1.429 . S
C3194 C3186 1.574 . S
C3194 H3189 0.949 . S
C3194 C3200 1.368 . S
C3195 C3179 1.349 . S
C3195 H3187 0.950 . S
C3195 C3193 1.327 . S
C3196 C3184 1.349 . S
C3196 H3190 0.950 . S
C3196 C3197 1.327 . S
C3197 H3191 0.950 . S
C3197 C3196 1.327 . S
C3197 C3201 1.429 . S
C3198 C3181 1.574 . S
C3198 H3192 0.949 . S
C3198 C3202 1.368 . S
C3199 C3180 1.429 . S
C3199 C3193 1.429 . S
C3199 C3200 1.523 . S
C3200 C3181 1.368 . S
C3200 C3194 1.368 . S
C3200 C3199 1.523 . S
C3201 C3185 1.429 . S
C3201 C3197 1.429 . S
C3201 C3202 1.523 . S
C3202 C3186 1.368 . S
C3202 C3198 1.368 . S
C3202 C3201 1.523 . S
H3203 C3178 0.950 . S
H3204 C3180 0.950 . S
H3205 C3181 0.949 . S
H3206 C3183 0.950 . S
H3207 C3185 0.950 . S
C3208 C3209 1.349 . S
C3208 C3210 1.327 . S
C3208 H3233 0.950 . S
C3209 C3208 1.349 . S
C3209 C3225 1.349 . S
C3210 C3208 1.327 . S
C3210 C3229 1.429 . S
C3210 H3234 0.950 . S
C3211 C3228 1.574 . S
C3211 C3230 1.368 . S
C3211 H3235 0.949 . S
H3212 C3216 0.949 . S
C3213 C3214 1.349 . S
C3213 C3215 1.327 . S
C3213 H3236 0.950 . S
C3214 C3213 1.349 . S
C3214 C3226 1.349 . S
C3215 C3213 1.327 . S
C3215 C3231 1.429 . S
C3215 H3237 0.950 . S
C3216 H3212 0.949 . S
C3216 C3224 1.574 . S
C3216 C3232 1.368 . S
H3217 C3225 0.950 . S
H3218 C3223 0.950 . S
H3219 C3224 0.949 . S
H3220 C3226 0.950 . S
H3221 C3227 0.950 . S
H3222 C3228 0.949 . S
C3223 H3218 0.950 . S
C3223 C3225 1.327 . S
C3223 C3229 1.429 . S
C3224 C3216 1.574 . S
C3224 H3219 0.949 . S
C3224 C3230 1.368 . S
C3225 C3209 1.349 . S
C3225 H3217 0.950 . S
C3225 C3223 1.327 . S
C3226 C3214 1.349 . S
C3226 H3220 0.950 . S
C3226 C3227 1.327 . S
C3227 H3221 0.950 . S
C3227 C3226 1.327 . S
C3227 C3231 1.429 . S
C3228 C3211 1.574 . S
C3228 H3222 0.949 . S
C3228 C3232 1.368 . S
C3229 C3210 1.429 . S
C3229 C3223 1.429 . S
C3229 C3230 1.523 . S
C3230 C3211 1.368 . S
C3230 C3224 1.368 . S
C3230 C3229 1.523 . S
C3231 C3215 1.429 . S
C3231 C3227 1.429 . S
C3231 C3232 1.523 . S
C3232 C3216 1.368 . S
C3232 C3228 1.368 . S
C3232 C3231 1.523 . S
H3233 C3208 0.950 . S
H3234 C3210 0.950 . S
H3235 C3211 0.949 . S
H3236 C3213 0.950 . S
H3237 C3215 0.950 . S
C3238 C3239 1.349 . S
C3238 C3240 1.327 . S
C3238 H3263 0.950 . S
C3239 C3238 1.349 . S
C3239 C3255 1.349 1_556 S
C3240 C3238 1.327 . S
C3240 C3259 1.429 . S
C3240 H3264 0.950 . S
C3241 C3258 1.574 . S
C3241 C3260 1.368 1_554 S
C3241 H3265 0.949 . S
H3242 C3246 0.949 . S
C3243 C3244 1.349 1_554 S
C3243 C3245 1.327 . S
C3243 H3266 0.950 . S
C3244 C3243 1.349 1_556 S
C3244 C3256 1.349 . S
C3245 C3243 1.327 . S
C3245 C3261 1.429 1_554 S
C3245 H3267 0.950 . S
C3246 H3242 0.949 . S
C3246 C3254 1.574 . S
C3246 C3262 1.368 . S
H3247 C3255 0.950 . S
H3248 C3253 0.950 . S
H3249 C3254 0.949 . S
H3250 C3256 0.950 . S
H3251 C3257 0.950 . S
H3252 C3258 0.949 . S
C3253 H3248 0.950 . S
C3253 C3255 1.327 . S
C3253 C3259 1.429 1_554 S
C3254 C3246 1.574 . S
C3254 H3249 0.949 . S
C3254 C3260 1.368 . S
C3255 C3239 1.349 1_554 S
C3255 H3247 0.950 . S
C3255 C3253 1.327 . S
C3256 C3244 1.349 . S
C3256 H3250 0.950 . S
C3256 C3257 1.327 . S
C3257 H3251 0.950 . S
C3257 C3256 1.327 . S
C3257 C3261 1.429 . S
C3258 C3241 1.574 . S
C3258 H3252 0.949 . S
C3258 C3262 1.368 1_554 S
C3259 C3240 1.429 . S
C3259 C3253 1.429 1_556 S
C3259 C3260 1.523 . S
C3260 C3241 1.368 1_556 S
C3260 C3254 1.368 . S
C3260 C3259 1.523 . S
C3261 C3245 1.429 1_556 S
C3261 C3257 1.429 . S
C3261 C3262 1.523 . S
C3262 C3246 1.368 . S
C3262 C3258 1.368 1_556 S
C3262 C3261 1.523 . S
H3263 C3238 0.950 . S
H3264 C3240 0.950 . S
H3265 C3241 0.949 . S
H3266 C3243 0.950 . S
H3267 C3245 0.950 . S
C3268 C3269 1.349 . S
C3268 C3270 1.327 . S
C3268 H3293 0.950 . S
C3269 C3268 1.349 . S
C3269 C3285 1.349 . S
C3270 C3268 1.327 . S
C3270 C3289 1.429 . S
C3270 H3294 0.950 . S
C3271 C3288 1.574 . S
C3271 C3290 1.368 . S
C3271 H3295 0.949 . S
H3272 C3276 0.949 . S
C3273 C3274 1.349 . S
C3273 C3275 1.327 . S
C3273 H3296 0.950 . S
C3274 C3273 1.349 . S
C3274 C3286 1.349 . S
C3275 C3273 1.327 . S
C3275 C3291 1.429 . S
C3275 H3297 0.950 . S
C3276 H3272 0.949 . S
C3276 C3284 1.574 . S
C3276 C3292 1.368 . S
H3277 C3285 0.950 . S
H3278 C3283 0.950 . S
H3279 C3284 0.949 . S
H3280 C3286 0.950 . S
H3281 C3287 0.950 . S
H3282 C3288 0.949 . S
C3283 H3278 0.950 . S
C3283 C3285 1.327 . S
C3283 C3289 1.429 . S
C3284 C3276 1.574 . S
C3284 H3279 0.949 . S
C3284 C3290 1.368 . S
C3285 C3269 1.349 . S
C3285 H3277 0.950 . S
C3285 C3283 1.327 . S
C3286 C3274 1.349 . S
C3286 H3280 0.950 . S
C3286 C3287 1.327 . S
C3287 H3281 0.950 . S
C3287 C3286 1.327 . S
C3287 C3291 1.429 . S
C3288 C3271 1.574 . S
C3288 H3282 0.949 . S
C3288 C3292 1.368 . S
C3289 C3270 1.429 . S
C3289 C3283 1.429 . S
C3289 C3290 1.523 . S
C3290 C3271 1.368 . S
C3290 C3284 1.368 . S
C3290 C3289 1.523 . S
C3291 C3275 1.429 . S
C3291 C3287 1.429 . S
C3291 C3292 1.523 . S
C3292 C3276 1.368 . S
C3292 C3288 1.368 . S
C3292 C3291 1.523 . S
H3293 C3268 0.950 . S
H3294 C3270 0.950 . S
H3295 C3271 0.949 . S
H3296 C3273 0.950 . S
H3297 C3275 0.950 . S
C3298 C3299 1.349 . S
C3298 C3300 1.327 . S
C3298 H3323 0.950 . S
C3299 C3298 1.349 . S
C3299 C3315 1.349 1_554 S
C3300 C3298 1.327 . S
C3300 C3319 1.429 . S
C3300 H3324 0.950 . S
C3301 C3318 1.574 . S
C3301 C3320 1.368 1_556 S
C3301 H3325 0.949 . S
H3302 C3306 0.949 . S
C3303 C3304 1.349 1_556 S
C3303 C3305 1.327 . S
C3303 H3326 0.950 . S
C3304 C3303 1.349 1_554 S
C3304 C3316 1.349 . S
C3305 C3303 1.327 . S
C3305 C3321 1.429 1_556 S
C3305 H3327 0.950 . S
C3306 H3302 0.949 . S
C3306 C3314 1.574 . S
C3306 C3322 1.368 . S
H3307 C3315 0.950 . S
H3308 C3313 0.950 . S
H3309 C3314 0.949 . S
H3310 C3316 0.950 . S
H3311 C3317 0.950 . S
H3312 C3318 0.949 . S
C3313 H3308 0.950 . S
C3313 C3315 1.327 . S
C3313 C3319 1.429 1_556 S
C3314 C3306 1.574 . S
C3314 H3309 0.949 . S
C3314 C3320 1.368 . S
C3315 C3299 1.349 1_556 S
C3315 H3307 0.950 . S
C3315 C3313 1.327 . S
C3316 C3304 1.349 . S
C3316 H3310 0.950 . S
C3316 C3317 1.327 . S
C3317 H3311 0.950 . S
C3317 C3316 1.327 . S
C3317 C3321 1.429 . S
C3318 C3301 1.574 . S
C3318 H3312 0.949 . S
C3318 C3322 1.368 1_556 S
C3319 C3300 1.429 . S
C3319 C3313 1.429 1_554 S
C3319 C3320 1.523 . S
C3320 C3301 1.368 1_554 S
C3320 C3314 1.368 . S
C3320 C3319 1.523 . S
C3321 C3305 1.429 1_554 S
C3321 C3317 1.429 . S
C3321 C3322 1.523 . S
C3322 C3306 1.368 . S
C3322 C3318 1.368 1_554 S
C3322 C3321 1.523 . S
H3323 C3298 0.950 . S
H3324 C3300 0.950 . S
H3325 C3301 0.949 . S
H3326 C3303 0.950 . S
H3327 C3305 0.950 . S
C3328 C3329 1.349 . S
C3328 C3330 1.327 . S
C3328 H3353 0.950 . S
C3329 C3328 1.349 . S
C3329 C3345 1.349 . S
C3330 C3328 1.327 . S
C3330 C3349 1.429 . S
C3330 H3354 0.950 . S
C3331 C3348 1.574 . S
C3331 C3350 1.368 . S
C3331 H3355 0.949 . S
H3332 C3336 0.949 . S
C3333 C3334 1.349 . S
C3333 C3335 1.327 . S
C3333 H3356 0.950 . S
C3334 C3333 1.349 . S
C3334 C3346 1.349 . S
C3335 C3333 1.327 . S
C3335 C3351 1.429 . S
C3335 H3357 0.950 . S
C3336 H3332 0.949 . S
C3336 C3344 1.574 . S
C3336 C3352 1.368 . S
H3337 C3345 0.950 1_455 S
H3338 C3343 0.950 . S
H3339 C3344 0.949 . S
H3340 C3346 0.950 . S
H3341 C3347 0.950 . S
H3342 C3348 0.949 . S
C3343 H3338 0.950 . S
C3343 C3345 1.327 . S
C3343 C3349 1.429 . S
C3344 C3336 1.574 . S
C3344 H3339 0.949 . S
C3344 C3350 1.368 . S
C3345 C3329 1.349 . S
C3345 H3337 0.950 1_655 S
C3345 C3343 1.327 . S
C3346 C3334 1.349 . S
C3346 H3340 0.950 . S
C3346 C3347 1.327 . S
C3347 H3341 0.950 . S
C3347 C3346 1.327 . S
C3347 C3351 1.429 . S
C3348 C3331 1.574 . S
C3348 H3342 0.949 . S
C3348 C3352 1.368 . S
C3349 C3330 1.429 . S
C3349 C3343 1.429 . S
C3349 C3350 1.523 . S
C3350 C3331 1.368 . S
C3350 C3344 1.368 . S
C3350 C3349 1.523 . S
C3351 C3335 1.429 . S
C3351 C3347 1.429 . S
C3351 C3352 1.523 . S
C3352 C3336 1.368 . S
C3352 C3348 1.368 . S
C3352 C3351 1.523 . S
H3353 C3328 0.950 . S
H3354 C3330 0.950 . S
H3355 C3331 0.949 . S
H3356 C3333 0.950 . S
H3357 C3335 0.950 . S
C3358 C3359 1.349 . S
C3358 C3360 1.327 . S
C3358 H3383 0.950 . S
C3359 C3358 1.349 . S
C3359 C3375 1.349 . S
C3360 C3358 1.327 . S
C3360 C3379 1.429 . S
C3360 H3384 0.950 . S
C3361 C3378 1.574 . S
C3361 C3380 1.368 . S
C3361 H3385 0.949 . S
H3362 C3366 0.949 . S
C3363 C3364 1.349 . S
C3363 C3365 1.327 . S
C3363 H3386 0.950 . S
C3364 C3363 1.349 . S
C3364 C3376 1.349 . S
C3365 C3363 1.327 . S
C3365 C3381 1.429 . S
C3365 H3387 0.950 . S
C3366 H3362 0.949 . S
C3366 C3374 1.574 . S
C3366 C3382 1.368 . S
H3367 C3375 0.950 . S
H3368 C3373 0.950 . S
H3369 C3374 0.949 . S
H3370 C3376 0.950 . S
H3371 C3377 0.950 . S
H3372 C3378 0.949 . S
C3373 H3368 0.950 . S
C3373 C3375 1.327 . S
C3373 C3379 1.429 . S
C3374 C3366 1.574 . S
C3374 H3369 0.949 . S
C3374 C3380 1.368 . S
C3375 C3359 1.349 . S
C3375 H3367 0.950 . S
C3375 C3373 1.327 . S
C3376 C3364 1.349 . S
C3376 H3370 0.950 . S
C3376 C3377 1.327 . S
C3377 H3371 0.950 . S
C3377 C3376 1.327 . S
C3377 C3381 1.429 . S
C3378 C3361 1.574 . S
C3378 H3372 0.949 . S
C3378 C3382 1.368 . S
C3379 C3360 1.429 . S
C3379 C3373 1.429 . S
C3379 C3380 1.523 . S
C3380 C3361 1.368 . S
C3380 C3374 1.368 . S
C3380 C3379 1.523 . S
C3381 C3365 1.429 . S
C3381 C3377 1.429 . S
C3381 C3382 1.523 . S
C3382 C3366 1.368 . S
C3382 C3378 1.368 . S
C3382 C3381 1.523 . S
H3383 C3358 0.950 . S
H3384 C3360 0.950 . S
H3385 C3361 0.949 . S
H3386 C3363 0.950 . S
H3387 C3365 0.950 . S
C3388 C3389 1.349 . S
C3388 C3390 1.327 . S
C3388 H3413 0.950 . S
C3389 C3388 1.349 . S
C3389 C3405 1.349 . S
C3390 C3388 1.327 . S
C3390 C3409 1.429 . S
C3390 H3414 0.950 . S
C3391 C3408 1.574 . S
C3391 C3410 1.368 . S
C3391 H3415 0.949 . S
H3392 C3396 0.949 . S
C3393 C3394 1.349 . S
C3393 C3395 1.327 . S
C3393 H3416 0.950 . S
C3394 C3393 1.349 . S
C3394 C3406 1.349 . S
C3395 C3393 1.327 . S
C3395 C3411 1.429 . S
C3395 H3417 0.950 . S
C3396 H3392 0.949 . S
C3396 C3404 1.574 . S
C3396 C3412 1.368 . S
H3397 C3405 0.950 . S
H3398 C3403 0.950 . S
H3399 C3404 0.949 . S
H3400 C3406 0.950 1_455 S
H3401 C3407 0.950 . S
H3402 C3408 0.949 . S
C3403 H3398 0.950 . S
C3403 C3405 1.327 . S
C3403 C3409 1.429 . S
C3404 C3396 1.574 . S
C3404 H3399 0.949 . S
C3404 C3410 1.368 . S
C3405 C3389 1.349 . S
C3405 H3397 0.950 . S
C3405 C3403 1.327 . S
C3406 C3394 1.349 . S
C3406 H3400 0.950 1_655 S
C3406 C3407 1.327 . S
C3407 H3401 0.950 . S
C3407 C3406 1.327 . S
C3407 C3411 1.429 . S
C3408 C3391 1.574 . S
C3408 H3402 0.949 . S
C3408 C3412 1.368 . S
C3409 C3390 1.429 . S
C3409 C3403 1.429 . S
C3409 C3410 1.523 . S
C3410 C3391 1.368 . S
C3410 C3404 1.368 . S
C3410 C3409 1.523 . S
C3411 C3395 1.429 . S
C3411 C3407 1.429 . S
C3411 C3412 1.523 . S
C3412 C3396 1.368 . S
C3412 C3408 1.368 . S
C3412 C3411 1.523 . S
H3413 C3388 0.950 . S
H3414 C3390 0.950 . S
H3415 C3391 0.949 . S
H3416 C3393 0.950 . S
H3417 C3395 0.950 . S
C3418 C3419 1.349 . S
C3418 C3420 1.327 . S
C3418 H3443 0.950 . S
C3419 C3418 1.349 . S
C3419 C3435 1.349 . S
C3420 C3418 1.327 . S
C3420 C3439 1.429 . S
C3420 H3444 0.950 . S
C3421 C3438 1.574 . S
C3421 C3440 1.368 . S
C3421 H3445 0.949 . S
H3422 C3426 0.949 . S
C3423 C3424 1.349 . S
C3423 C3425 1.327 . S
C3423 H3446 0.950 . S
C3424 C3423 1.349 . S
C3424 C3436 1.349 . S
C3425 C3423 1.327 . S
C3425 C3441 1.429 . S
C3425 H3447 0.950 . S
C3426 H3422 0.949 . S
C3426 C3434 1.574 . S
C3426 C3442 1.368 . S
H3427 C3435 0.950 . S
H3428 C3433 0.950 . S
H3429 C3434 0.949 . S
H3430 C3436 0.950 . S
H3431 C3437 0.950 . S
H3432 C3438 0.949 . S
C3433 H3428 0.950 . S
C3433 C3435 1.327 . S
C3433 C3439 1.429 . S
C3434 C3426 1.574 . S
C3434 H3429 0.949 . S
C3434 C3440 1.368 . S
C3435 C3419 1.349 . S
C3435 H3427 0.950 . S
C3435 C3433 1.327 . S
C3436 C3424 1.349 . S
C3436 H3430 0.950 . S
C3436 C3437 1.327 . S
C3437 H3431 0.950 . S
C3437 C3436 1.327 . S
C3437 C3441 1.429 . S
C3438 C3421 1.574 . S
C3438 H3432 0.949 . S
C3438 C3442 1.368 . S
C3439 C3420 1.429 . S
C3439 C3433 1.429 . S
C3439 C3440 1.523 . S
C3440 C3421 1.368 . S
C3440 C3434 1.368 . S
C3440 C3439 1.523 . S
C3441 C3425 1.429 . S
C3441 C3437 1.429 . S
C3441 C3442 1.523 . S
C3442 C3426 1.368 . S
C3442 C3438 1.368 . S
C3442 C3441 1.523 . S
H3443 C3418 0.950 . S
H3444 C3420 0.950 . S
H3445 C3421 0.949 . S
H3446 C3423 0.950 . S
H3447 C3425 0.950 . S
C3448 C3449 1.349 . S
C3448 C3450 1.327 . S
C3448 H3473 0.950 . S
C3449 C3448 1.349 . S
C3449 C3465 1.349 . S
C3450 C3448 1.327 . S
C3450 C3469 1.429 . S
C3450 H3474 0.950 . S
C3451 C3468 1.574 . S
C3451 C3470 1.368 . S
C3451 H3475 0.949 . S
H3452 C3456 0.949 . S
C3453 C3454 1.349 . S
C3453 C3455 1.327 . S
C3453 H3476 0.950 . S
C3454 C3453 1.349 . S
C3454 C3466 1.349 . S
C3455 C3453 1.327 . S
C3455 C3471 1.429 . S
C3455 H3477 0.950 . S
C3456 H3452 0.949 . S
C3456 C3464 1.574 . S
C3456 C3472 1.368 . S
H3457 C3465 0.950 . S
H3458 C3463 0.950 . S
H3459 C3464 0.949 . S
H3460 C3466 0.950 1_655 S
H3461 C3467 0.950 . S
H3462 C3468 0.949 . S
C3463 H3458 0.950 . S
C3463 C3465 1.327 . S
C3463 C3469 1.429 . S
C3464 C3456 1.574 . S
C3464 H3459 0.949 . S
C3464 C3470 1.368 . S
C3465 C3449 1.349 . S
C3465 H3457 0.950 . S
C3465 C3463 1.327 . S
C3466 C3454 1.349 . S
C3466 H3460 0.950 1_455 S
C3466 C3467 1.327 . S
C3467 H3461 0.950 . S
C3467 C3466 1.327 . S
C3467 C3471 1.429 . S
C3468 C3451 1.574 . S
C3468 H3462 0.949 . S
C3468 C3472 1.368 . S
C3469 C3450 1.429 . S
C3469 C3463 1.429 . S
C3469 C3470 1.523 . S
C3470 C3451 1.368 . S
C3470 C3464 1.368 . S
C3470 C3469 1.523 . S
C3471 C3455 1.429 . S
C3471 C3467 1.429 . S
C3471 C3472 1.523 . S
C3472 C3456 1.368 . S
C3472 C3468 1.368 . S
C3472 C3471 1.523 . S
H3473 C3448 0.950 . S
H3474 C3450 0.950 . S
H3475 C3451 0.949 . S
H3476 C3453 0.950 . S
H3477 C3455 0.950 . S
C3478 C3479 1.349 . S
C3478 C3480 1.327 . S
C3478 H3503 0.950 . S
C3479 C3478 1.349 . S
C3479 C3495 1.349 . S
C3480 C3478 1.327 . S
C3480 C3499 1.429 . S
C3480 H3504 0.950 . S
C3481 C3498 1.574 . S
C3481 C3500 1.368 . S
C3481 H3505 0.949 . S
H3482 C3486 0.949 . S
C3483 C3484 1.349 . S
C3483 C3485 1.327 . S
C3483 H3506 0.950 . S
C3484 C3483 1.349 . S
C3484 C3496 1.349 . S
C3485 C3483 1.327 . S
C3485 C3501 1.429 . S
C3485 H3507 0.950 . S
C3486 H3482 0.949 . S
C3486 C3494 1.574 . S
C3486 C3502 1.368 . S
H3487 C3495 0.950 . S
H3488 C3493 0.950 . S
H3489 C3494 0.949 . S
H3490 C3496 0.950 . S
H3491 C3497 0.950 . S
H3492 C3498 0.949 . S
C3493 H3488 0.950 . S
C3493 C3495 1.327 . S
C3493 C3499 1.429 . S
C3494 C3486 1.574 . S
C3494 H3489 0.949 . S
C3494 C3500 1.368 . S
C3495 C3479 1.349 . S
C3495 H3487 0.950 . S
C3495 C3493 1.327 . S
C3496 C3484 1.349 . S
C3496 H3490 0.950 . S
C3496 C3497 1.327 . S
C3497 H3491 0.950 . S
C3497 C3496 1.327 . S
C3497 C3501 1.429 . S
C3498 C3481 1.574 . S
C3498 H3492 0.949 . S
C3498 C3502 1.368 . S
C3499 C3480 1.429 . S
C3499 C3493 1.429 . S
C3499 C3500 1.523 . S
C3500 C3481 1.368 . S
C3500 C3494 1.368 . S
C3500 C3499 1.523 . S
C3501 C3485 1.429 . S
C3501 C3497 1.429 . S
C3501 C3502 1.523 . S
C3502 C3486 1.368 . S
C3502 C3498 1.368 . S
C3502 C3501 1.523 . S
H3503 C3478 0.950 . S
H3504 C3480 0.950 . S
H3505 C3481 0.949 . S
H3506 C3483 0.950 . S
H3507 C3485 0.950 . S
C3508 C3509 1.349 . S
C3508 C3510 1.327 . S
C3508 H3533 0.950 . S
C3509 C3508 1.349 . S
C3509 C3525 1.349 . S
C3510 C3508 1.327 . S
C3510 C3529 1.429 . S
C3510 H3534 0.950 . S
C3511 C3528 1.574 . S
C3511 C3530 1.368 . S
C3511 H3535 0.949 . S
H3512 C3516 0.949 . S
C3513 C3514 1.349 . S
C3513 C3515 1.327 . S
C3513 H3536 0.950 . S
C3514 C3513 1.349 . S
C3514 C3526 1.349 . S
C3515 C3513 1.327 . S
C3515 C3531 1.429 . S
C3515 H3537 0.950 . S
C3516 H3512 0.949 . S
C3516 C3524 1.574 . S
C3516 C3532 1.368 . S
H3517 C3525 0.950 . S
H3518 C3523 0.950 . S
H3519 C3524 0.949 . S
H3520 C3526 0.950 1_655 S
H3521 C3527 0.950 . S
H3522 C3528 0.949 . S
C3523 H3518 0.950 . S
C3523 C3525 1.327 . S
C3523 C3529 1.429 . S
C3524 C3516 1.574 . S
C3524 H3519 0.949 . S
C3524 C3530 1.368 . S
C3525 C3509 1.349 . S
C3525 H3517 0.950 . S
C3525 C3523 1.327 . S
C3526 C3514 1.349 . S
C3526 H3520 0.950 1_455 S
C3526 C3527 1.327 . S
C3527 H3521 0.950 . S
C3527 C3526 1.327 . S
C3527 C3531 1.429 . S
C3528 C3511 1.574 . S
C3528 H3522 0.949 . S
C3528 C3532 1.368 . S
C3529 C3510 1.429 . S
C3529 C3523 1.429 . S
C3529 C3530 1.523 . S
C3530 C3511 1.368 . S
C3530 C3524 1.368 . S
C3530 C3529 1.523 . S
C3531 C3515 1.429 . S
C3531 C3527 1.429 . S
C3531 C3532 1.523 . S
C3532 C3516 1.368 . S
C3532 C3528 1.368 . S
C3532 C3531 1.523 . S
H3533 C3508 0.950 . S
H3534 C3510 0.950 . S
H3535 C3511 0.949 . S
H3536 C3513 0.950 . S
H3537 C3515 0.950 . S
C3538 C3539 1.349 . S
C3538 C3540 1.327 . S
C3538 H3563 0.950 . S
C3539 C3538 1.349 . S
C3539 C3555 1.349 . S
C3540 C3538 1.327 . S
C3540 C3559 1.429 . S
C3540 H3564 0.950 . S
C3541 C3558 1.574 . S
C3541 C3560 1.368 . S
C3541 H3565 0.949 . S
H3542 C3546 0.949 . S
C3543 C3544 1.349 . S
C3543 C3545 1.327 . S
C3543 H3566 0.950 . S
C3544 C3543 1.349 . S
C3544 C3556 1.349 . S
C3545 C3543 1.327 . S
C3545 C3561 1.429 . S
C3545 H3567 0.950 . S
C3546 H3542 0.949 . S
C3546 C3554 1.574 . S
C3546 C3562 1.368 . S
H3547 C3555 0.950 . S
H3548 C3553 0.950 . S
H3549 C3554 0.949 . S
H3550 C3556 0.950 . S
H3551 C3557 0.950 . S
H3552 C3558 0.949 . S
C3553 H3548 0.950 . S
C3553 C3555 1.327 . S
C3553 C3559 1.429 . S
C3554 C3546 1.574 . S
C3554 H3549 0.949 . S
C3554 C3560 1.368 . S
C3555 C3539 1.349 . S
C3555 H3547 0.950 . S
C3555 C3553 1.327 . S
C3556 C3544 1.349 . S
C3556 H3550 0.950 . S
C3556 C3557 1.327 . S
C3557 H3551 0.950 . S
C3557 C3556 1.327 . S
C3557 C3561 1.429 . S
C3558 C3541 1.574 . S
C3558 H3552 0.949 . S
C3558 C3562 1.368 . S
C3559 C3540 1.429 . S
C3559 C3553 1.429 . S
C3559 C3560 1.523 . S
C3560 C3541 1.368 . S
C3560 C3554 1.368 . S
C3560 C3559 1.523 . S
C3561 C3545 1.429 . S
C3561 C3557 1.429 . S
C3561 C3562 1.523 . S
C3562 C3546 1.368 . S
C3562 C3558 1.368 . S
C3562 C3561 1.523 . S
H3563 C3538 0.950 . S
H3564 C3540 0.950 . S
H3565 C3541 0.949 . S
H3566 C3543 0.950 . S
H3567 C3545 0.950 . S
C3568 C3569 1.349 . S
C3568 C3570 1.327 . S
C3568 H3593 0.950 1_655 S
C3569 C3568 1.349 . S
C3569 C3585 1.349 . S
C3570 C3568 1.327 . S
C3570 C3589 1.429 . S
C3570 H3594 0.950 . S
C3571 C3588 1.574 . S
C3571 C3590 1.368 . S
C3571 H3595 0.949 . S
H3572 C3576 0.949 . S
C3573 C3574 1.349 . S
C3573 C3575 1.327 . S
C3573 H3596 0.950 . S
C3574 C3573 1.349 . S
C3574 C3586 1.349 . S
C3575 C3573 1.327 . S
C3575 C3591 1.429 . S
C3575 H3597 0.950 . S
C3576 H3572 0.949 . S
C3576 C3584 1.574 . S
C3576 C3592 1.368 . S
H3577 C3585 0.950 . S
H3578 C3583 0.950 . S
H3579 C3584 0.949 . S
H3580 C3586 0.950 . S
H3581 C3587 0.950 . S
H3582 C3588 0.949 . S
C3583 H3578 0.950 . S
C3583 C3585 1.327 . S
C3583 C3589 1.429 . S
C3584 C3576 1.574 . S
C3584 H3579 0.949 . S
C3584 C3590 1.368 . S
C3585 C3569 1.349 . S
C3585 H3577 0.950 . S
C3585 C3583 1.327 . S
C3586 C3574 1.349 . S
C3586 H3580 0.950 . S
C3586 C3587 1.327 . S
C3587 H3581 0.950 . S
C3587 C3586 1.327 . S
C3587 C3591 1.429 . S
C3588 C3571 1.574 . S
C3588 H3582 0.949 . S
C3588 C3592 1.368 . S
C3589 C3570 1.429 . S
C3589 C3583 1.429 . S
C3589 C3590 1.523 . S
C3590 C3571 1.368 . S
C3590 C3584 1.368 . S
C3590 C3589 1.523 . S
C3591 C3575 1.429 . S
C3591 C3587 1.429 . S
C3591 C3592 1.523 . S
C3592 C3576 1.368 . S
C3592 C3588 1.368 . S
C3592 C3591 1.523 . S
H3593 C3568 0.950 1_455 S
H3594 C3570 0.950 . S
H3595 C3571 0.949 . S
H3596 C3573 0.950 . S
H3597 C3575 0.950 . S
C3598 C3599 1.349 . S
C3598 C3600 1.327 . S
C3598 H3623 0.950 . S
C3599 C3598 1.349 . S
C3599 C3615 1.349 . S
C3600 C3598 1.327 . S
C3600 C3619 1.429 . S
C3600 H3624 0.950 . S
C3601 C3618 1.574 . S
C3601 C3620 1.368 . S
C3601 H3625 0.949 . S
H3602 C3606 0.949 . S
C3603 C3604 1.349 . S
C3603 C3605 1.327 . S
C3603 H3626 0.950 . S
C3604 C3603 1.349 . S
C3604 C3616 1.349 . S
C3605 C3603 1.327 . S
C3605 C3621 1.429 . S
C3605 H3627 0.950 . S
C3606 H3602 0.949 . S
C3606 C3614 1.574 . S
C3606 C3622 1.368 . S
H3607 C3615 0.950 . S
H3608 C3613 0.950 . S
H3609 C3614 0.949 . S
H3610 C3616 0.950 . S
H3611 C3617 0.950 . S
H3612 C3618 0.949 . S
C3613 H3608 0.950 . S
C3613 C3615 1.327 . S
C3613 C3619 1.429 . S
C3614 C3606 1.574 . S
C3614 H3609 0.949 . S
C3614 C3620 1.368 . S
C3615 C3599 1.349 . S
C3615 H3607 0.950 . S
C3615 C3613 1.327 . S
C3616 C3604 1.349 . S
C3616 H3610 0.950 . S
C3616 C3617 1.327 . S
C3617 H3611 0.950 . S
C3617 C3616 1.327 . S
C3617 C3621 1.429 . S
C3618 C3601 1.574 . S
C3618 H3612 0.949 . S
C3618 C3622 1.368 . S
C3619 C3600 1.429 . S
C3619 C3613 1.429 . S
C3619 C3620 1.523 . S
C3620 C3601 1.368 . S
C3620 C3614 1.368 . S
C3620 C3619 1.523 . S
C3621 C3605 1.429 . S
C3621 C3617 1.429 . S
C3621 C3622 1.523 . S
C3622 C3606 1.368 . S
C3622 C3618 1.368 . S
C3622 C3621 1.523 . S
H3623 C3598 0.950 . S
H3624 C3600 0.950 . S
H3625 C3601 0.949 . S
H3626 C3603 0.950 . S
H3627 C3605 0.950 . S
C3628 C3629 1.349 . S
C3628 C3630 1.327 . S
C3628 H3653 0.950 1_655 S
C3629 C3628 1.349 . S
C3629 C3645 1.349 . S
C3630 C3628 1.327 . S
C3630 C3649 1.429 . S
C3630 H3654 0.950 . S
C3631 C3648 1.574 . S
C3631 C3650 1.368 . S
C3631 H3655 0.949 . S
H3632 C3636 0.949 . S
C3633 C3634 1.349 . S
C3633 C3635 1.327 . S
C3633 H3656 0.950 . S
C3634 C3633 1.349 . S
C3634 C3646 1.349 . S
C3635 C3633 1.327 . S
C3635 C3651 1.429 . S
C3635 H3657 0.950 . S
C3636 H3632 0.949 . S
C3636 C3644 1.574 . S
C3636 C3652 1.368 . S
H3637 C3645 0.950 . S
H3638 C3643 0.950 . S
H3639 C3644 0.949 . S
H3640 C3646 0.950 . S
H3641 C3647 0.950 . S
H3642 C3648 0.949 . S
C3643 H3638 0.950 . S
C3643 C3645 1.327 . S
C3643 C3649 1.429 . S
C3644 C3636 1.574 . S
C3644 H3639 0.949 . S
C3644 C3650 1.368 . S
C3645 C3629 1.349 . S
C3645 H3637 0.950 . S
C3645 C3643 1.327 . S
C3646 C3634 1.349 . S
C3646 H3640 0.950 . S
C3646 C3647 1.327 . S
C3647 H3641 0.950 . S
C3647 C3646 1.327 . S
C3647 C3651 1.429 . S
C3648 C3631 1.574 . S
C3648 H3642 0.949 . S
C3648 C3652 1.368 . S
C3649 C3630 1.429 . S
C3649 C3643 1.429 . S
C3649 C3650 1.523 . S
C3650 C3631 1.368 . S
C3650 C3644 1.368 . S
C3650 C3649 1.523 . S
C3651 C3635 1.429 . S
C3651 C3647 1.429 . S
C3651 C3652 1.523 . S
C3652 C3636 1.368 . S
C3652 C3648 1.368 . S
C3652 C3651 1.523 . S
H3653 C3628 0.950 1_455 S
H3654 C3630 0.950 . S
H3655 C3631 0.949 . S
H3656 C3633 0.950 . S
H3657 C3635 0.950 . S
C3658 C3659 1.349 . S
C3658 C3660 1.327 . S
C3658 H3683 0.950 . S
C3659 C3658 1.349 . S
C3659 C3675 1.349 . S
C3660 C3658 1.327 . S
C3660 C3679 1.429 . S
C3660 H3684 0.950 . S
C3661 C3678 1.574 . S
C3661 C3680 1.368 . S
C3661 H3685 0.949 . S
H3662 C3666 0.949 . S
C3663 C3664 1.349 . S
C3663 C3665 1.327 . S
C3663 H3686 0.950 . S
C3664 C3663 1.349 . S
C3664 C3676 1.349 . S
C3665 C3663 1.327 . S
C3665 C3681 1.429 . S
C3665 H3687 0.950 . S
C3666 H3662 0.949 . S
C3666 C3674 1.574 . S
C3666 C3682 1.368 . S
H3667 C3675 0.950 . S
H3668 C3673 0.950 . S
H3669 C3674 0.949 . S
H3670 C3676 0.950 . S
H3671 C3677 0.950 . S
H3672 C3678 0.949 . S
C3673 H3668 0.950 . S
C3673 C3675 1.327 . S
C3673 C3679 1.429 . S
C3674 C3666 1.574 . S
C3674 H3669 0.949 . S
C3674 C3680 1.368 . S
C3675 C3659 1.349 . S
C3675 H3667 0.950 . S
C3675 C3673 1.327 . S
C3676 C3664 1.349 . S
C3676 H3670 0.950 . S
C3676 C3677 1.327 . S
C3677 H3671 0.950 . S
C3677 C3676 1.327 . S
C3677 C3681 1.429 . S
C3678 C3661 1.574 . S
C3678 H3672 0.949 . S
C3678 C3682 1.368 . S
C3679 C3660 1.429 . S
C3679 C3673 1.429 . S
C3679 C3680 1.523 . S
C3680 C3661 1.368 . S
C3680 C3674 1.368 . S
C3680 C3679 1.523 . S
C3681 C3665 1.429 . S
C3681 C3677 1.429 . S
C3681 C3682 1.523 . S
C3682 C3666 1.368 . S
C3682 C3678 1.368 . S
C3682 C3681 1.523 . S
H3683 C3658 0.950 . S
H3684 C3660 0.950 . S
H3685 C3661 0.949 . S
H3686 C3663 0.950 . S
H3687 C3665 0.950 . S
C3688 C3689 1.349 . S
C3688 C3690 1.327 . S
C3688 H3713 0.950 . S
C3689 C3688 1.349 . S
C3689 C3705 1.349 . S
C3690 C3688 1.327 . S
C3690 C3709 1.429 . S
C3690 H3714 0.950 . S
C3691 C3708 1.574 . S
C3691 C3710 1.368 . S
C3691 H3715 0.949 . S
H3692 C3696 0.949 . S
C3693 C3694 1.349 . S
C3693 C3695 1.327 . S
C3693 H3716 0.950 . S
C3694 C3693 1.349 . S
C3694 C3706 1.349 . S
C3695 C3693 1.327 . S
C3695 C3711 1.429 . S
C3695 H3717 0.950 . S
C3696 H3692 0.949 . S
C3696 C3704 1.574 . S
C3696 C3712 1.368 . S
H3697 C3705 0.950 1_655 S
H3698 C3703 0.950 . S
H3699 C3704 0.949 . S
H3700 C3706 0.950 . S
H3701 C3707 0.950 . S
H3702 C3708 0.949 . S
C3703 H3698 0.950 . S
C3703 C3705 1.327 . S
C3703 C3709 1.429 . S
C3704 C3696 1.574 . S
C3704 H3699 0.949 . S
C3704 C3710 1.368 . S
C3705 C3689 1.349 . S
C3705 H3697 0.950 1_455 S
C3705 C3703 1.327 . S
C3706 C3694 1.349 . S
C3706 H3700 0.950 . S
C3706 C3707 1.327 . S
C3707 H3701 0.950 . S
C3707 C3706 1.327 . S
C3707 C3711 1.429 . S
C3708 C3691 1.574 . S
C3708 H3702 0.949 . S
C3708 C3712 1.368 . S
C3709 C3690 1.429 . S
C3709 C3703 1.429 . S
C3709 C3710 1.523 . S
C3710 C3691 1.368 . S
C3710 C3704 1.368 . S
C3710 C3709 1.523 . S
C3711 C3695 1.429 . S
C3711 C3707 1.429 . S
C3711 C3712 1.523 . S
C3712 C3696 1.368 . S
C3712 C3708 1.368 . S
C3712 C3711 1.523 . S
H3713 C3688 0.950 . S
H3714 C3690 0.950 . S
H3715 C3691 0.949 . S
H3716 C3693 0.950 . S
H3717 C3695 0.950 . S
C3718 C3719 1.349 . S
C3718 C3720 1.327 . S
C3718 H3743 0.950 . S
C3719 C3718 1.349 . S
C3719 C3735 1.349 . S
C3720 C3718 1.327 . S
C3720 C3739 1.429 . S
C3720 H3744 0.950 . S
C3721 C3738 1.574 . S
C3721 C3740 1.368 . S
C3721 H3745 0.949 . S
H3722 C3726 0.949 . S
C3723 C3724 1.349 . S
C3723 C3725 1.327 . S
C3723 H3746 0.950 . S
C3724 C3723 1.349 . S
C3724 C3736 1.349 . S
C3725 C3723 1.327 . S
C3725 C3741 1.429 . S
C3725 H3747 0.950 . S
C3726 H3722 0.949 . S
C3726 C3734 1.574 . S
C3726 C3742 1.368 . S
H3727 C3735 0.950 . S
H3728 C3733 0.950 . S
H3729 C3734 0.949 . S
H3730 C3736 0.950 . S
H3731 C3737 0.950 . S
H3732 C3738 0.949 . S
C3733 H3728 0.950 . S
C3733 C3735 1.327 . S
C3733 C3739 1.429 . S
C3734 C3726 1.574 . S
C3734 H3729 0.949 . S
C3734 C3740 1.368 . S
C3735 C3719 1.349 . S
C3735 H3727 0.950 . S
C3735 C3733 1.327 . S
C3736 C3724 1.349 . S
C3736 H3730 0.950 . S
C3736 C3737 1.327 . S
C3737 H3731 0.950 . S
C3737 C3736 1.327 . S
C3737 C3741 1.429 . S
C3738 C3721 1.574 . S
C3738 H3732 0.949 . S
C3738 C3742 1.368 . S
C3739 C3720 1.429 . S
C3739 C3733 1.429 . S
C3739 C3740 1.523 . S
C3740 C3721 1.368 . S
C3740 C3734 1.368 . S
C3740 C3739 1.523 . S
C3741 C3725 1.429 . S
C3741 C3737 1.429 . S
C3741 C3742 1.523 . S
C3742 C3726 1.368 . S
C3742 C3738 1.368 . S
C3742 C3741 1.523 . S
H3743 C3718 0.950 . S
H3744 C3720 0.950 . S
H3745 C3721 0.949 . S
H3746 C3723 0.950 . S
H3747 C3725 0.950 . S
C3748 C3749 1.349 . S
C3748 C3750 1.327 . S
C3748 H3773 0.950 . S
C3749 C3748 1.349 . S
C3749 C3765 1.349 . S
C3750 C3748 1.327 . S
C3750 C3769 1.429 . S
C3750 H3774 0.950 . S
C3751 C3768 1.574 . S
C3751 C3770 1.368 . S
C3751 H3775 0.949 . S
H3752 C3756 0.949 . S
C3753 C3754 1.349 . S
C3753 C3755 1.327 . S
C3753 H3776 0.950 . S
C3754 C3753 1.349 . S
C3754 C3766 1.349 . S
C3755 C3753 1.327 . S
C3755 C3771 1.429 . S
C3755 H3777 0.950 . S
C3756 H3752 0.949 . S
C3756 C3764 1.574 . S
C3756 C3772 1.368 . S
H3757 C3765 0.950 1_655 S
H3758 C3763 0.950 . S
H3759 C3764 0.949 . S
H3760 C3766 0.950 . S
H3761 C3767 0.950 . S
H3762 C3768 0.949 . S
C3763 H3758 0.950 . S
C3763 C3765 1.327 . S
C3763 C3769 1.429 . S
C3764 C3756 1.574 . S
C3764 H3759 0.949 . S
C3764 C3770 1.368 . S
C3765 C3749 1.349 . S
C3765 H3757 0.950 1_455 S
C3765 C3763 1.327 . S
C3766 C3754 1.349 . S
C3766 H3760 0.950 . S
C3766 C3767 1.327 . S
C3767 H3761 0.950 . S
C3767 C3766 1.327 . S
C3767 C3771 1.429 . S
C3768 C3751 1.574 . S
C3768 H3762 0.949 . S
C3768 C3772 1.368 . S
C3769 C3750 1.429 . S
C3769 C3763 1.429 . S
C3769 C3770 1.523 . S
C3770 C3751 1.368 . S
C3770 C3764 1.368 . S
C3770 C3769 1.523 . S
C3771 C3755 1.429 . S
C3771 C3767 1.429 . S
C3771 C3772 1.523 . S
C3772 C3756 1.368 . S
C3772 C3768 1.368 . S
C3772 C3771 1.523 . S
H3773 C3748 0.950 . S
H3774 C3750 0.950 . S
H3775 C3751 0.949 . S
H3776 C3753 0.950 . S
H3777 C3755 0.950 . S
C3778 C3779 1.349 . S
C3778 C3780 1.327 . S
C3778 H3803 0.950 . S
C3779 C3778 1.349 . S
C3779 C3795 1.349 . S
C3780 C3778 1.327 . S
C3780 C3799 1.429 . S
C3780 H3804 0.950 . S
C3781 C3798 1.574 . S
C3781 C3800 1.368 . S
C3781 H3805 0.949 . S
H3782 C3786 0.949 . S
C3783 C3784 1.349 . S
C3783 C3785 1.327 . S
C3783 H3806 0.950 . S
C3784 C3783 1.349 . S
C3784 C3796 1.349 . S
C3785 C3783 1.327 . S
C3785 C3801 1.429 . S
C3785 H3807 0.950 . S
C3786 H3782 0.949 . S
C3786 C3794 1.574 . S
C3786 C3802 1.368 . S
H3787 C3795 0.950 . S
H3788 C3793 0.950 . S
H3789 C3794 0.949 . S
H3790 C3796 0.950 . S
H3791 C3797 0.950 . S
H3792 C3798 0.949 . S
C3793 H3788 0.950 . S
C3793 C3795 1.327 . S
C3793 C3799 1.429 . S
C3794 C3786 1.574 . S
C3794 H3789 0.949 . S
C3794 C3800 1.368 . S
C3795 C3779 1.349 . S
C3795 H3787 0.950 . S
C3795 C3793 1.327 . S
C3796 C3784 1.349 . S
C3796 H3790 0.950 . S
C3796 C3797 1.327 . S
C3797 H3791 0.950 . S
C3797 C3796 1.327 . S
C3797 C3801 1.429 . S
C3798 C3781 1.574 . S
C3798 H3792 0.949 . S
C3798 C3802 1.368 . S
C3799 C3780 1.429 . S
C3799 C3793 1.429 . S
C3799 C3800 1.523 . S
C3800 C3781 1.368 . S
C3800 C3794 1.368 . S
C3800 C3799 1.523 . S
C3801 C3785 1.429 . S
C3801 C3797 1.429 . S
C3801 C3802 1.523 . S
C3802 C3786 1.368 . S
C3802 C3798 1.368 . S
C3802 C3801 1.523 . S
H3803 C3778 0.950 . S
H3804 C3780 0.950 . S
H3805 C3781 0.949 . S
H3806 C3783 0.950 . S
H3807 C3785 0.950 . S
C1889 C229 1.183 . S
C1894 C52 1.183 . S
C1919 C170 1.183 . S
C1924 C111 1.183 . S
C1949 C465 1.183 . S
C1954 C288 1.183 . S
C1979 C406 1.183 . S
C1984 C347 1.183 . S
C2009 C524 1.183 . S
C2014 C701 1.183 . S
C2039 C583 1.183 . S
C2044 C642 1.183 . S
C2069 C937 1.183 . S
C2074 C760 1.183 . S
C2099 C819 1.183 . S
C2104 C878 1.183 . S
C2129 C996 1.183 . S
C2134 C1173 1.183 . S
C2159 C1055 1.183 . S
C2164 C1114 1.183 . S
C2189 C1409 1.183 . S
C2194 C1232 1.183 . S
C2219 C1350 1.183 . S
C2224 C1291 1.183 . S
C2249 C1645 1.183 . S
C2254 C1468 1.183 . S
C2279 C1527 1.183 . S
C2284 C1586 1.183 . S
C2309 C1704 1.183 . S
C2314 C1881 1.183 . S
C2339 C1763 1.183 . S
C2344 C1822 1.183 . S
C2369 C1213 1.404 . S
C2374 C33 1.404 . S
C2399 C800 1.404 . S
C2404 C92 1.404 . S
C2429 C151 1.404 . S
C2434 C1803 1.404 . S
C2459 C210 1.403 . S
C2464 C446 1.403 . S
C2489 C977 1.404 . S
C2494 C269 1.404 . S
C2519 C564 1.404 . S
C2524 C328 1.404 . S
C2549 C1567 1.404 . S
C2554 C387 1.404 . S
C2579 C505 1.403 . S
C2584 C1685 1.403 . S
C2609 C1331 1.404 . S
C2614 C623 1.404 . S
C2639 C918 1.404 . S
C2644 C682 1.404 . S
C2669 C1449 1.403 . S
C2674 C741 1.403 . S
C2699 C859 1.404 . S
C2704 C1095 1.404 . S
C2729 C1744 1.404 . S
C2734 C1036 1.404 . S
C2759 C1154 1.402 . S
C2764 C1390 1.402 . S
C2789 C1508 1.404 . S
C2794 C1272 1.404 . S
C2819 C1862 1.404 . S
C2824 C1626 1.404 . S
C2849 C62 1.440 . S
C2854 C3 1.440 . S
C2879 C121 1.443 . S
C2884 C180 1.443 . S
C2909 C239 1.440 . S
C2914 C298 1.440 . S
C2939 C416 1.443 . S
C2944 C357 1.442 . S
C2969 C475 1.440 . S
C2974 C534 1.440 . S
C2999 C593 1.440 . S
C3004 C652 1.440 . S
C3029 C770 1.440 . S
C3034 C711 1.440 . S
C3059 C829 1.440 . S
C3064 C888 1.440 . S
C3089 C947 1.440 . S
C3094 C1006 1.440 . S
C3119 C1065 1.440 . S
C3124 C1124 1.440 . S
C3149 C1183 1.440 . S
C3154 C1242 1.440 . S
C3179 C1360 1.440 . S
C3184 C1301 1.440 . S
C3209 C1478 1.440 . S
C3214 C1419 1.440 . S
C3239 C1537 1.442 . S
C3244 C1596 1.442 . S
C3269 C1655 1.440 . S
C3274 C1714 1.440 . S
C3299 C1832 1.442 . S
C3304 C1773 1.442 . S
C3329 C5 1.387 . S
C3334 C1126 1.387 . S
C3359 C64 1.387 . S
C3364 C1067 1.387 . S
C3389 C1008 1.387 . S
C3394 C123 1.388 . S
C3419 C182 1.387 . S
C3424 C949 1.387 . S
C3449 C1362 1.387 . S
C3454 C241 1.387 . S
C3479 C300 1.387 . S
C3484 C1303 1.387 . S
C3509 C1244 1.387 . S
C3514 C359 1.388 . S
C3539 C418 1.387 . S
C3544 C1185 1.387 . S
C3569 C477 1.387 . S
C3574 C1598 1.387 . S
C3599 C536 1.387 . S
C3604 C1539 1.387 . S
C3629 C595 1.388 . S
C3634 C1480 1.388 . S
C3659 C1421 1.387 . S
C3664 C654 1.387 . S
C3689 C713 1.387 . S
C3694 C1834 1.387 . S
C3719 C772 1.387 . S
C3724 C1775 1.387 . S
C3749 C831 1.388 . S
C3754 C1716 1.388 . S
C3779 C1657 1.387 . S
C3784 C890 1.387 . S
