# Generated by pormake.
# Topology dia-f, (3)-cn, num edge types: 1
# Building blocks:
#     Node 0, Type 0, BuildingBlock: OLANEW_clean_sbu_2, # of connection points: 3
#     Node 1, Type 0, BuildingBlock: OLANEW_clean_sbu_2, # of connection points: 3
#     Node 2, Type 0, BuildingBlock: OLANEW_clean_sbu_2, # of connection points: 3
#     Node 3, Type 0, BuildingBlock: OLANEW_clean_sbu_2, # of connection points: 3
#     Node 4, Type 0, BuildingBlock: OLANEW_clean_sbu_2, # of connection points: 3
#     Node 5, Type 0, BuildingBlock: OLANEW_clean_sbu_2, # of connection points: 3
#     Node 6, Type 0, BuildingBlock: OLANEW_clean_sbu_2, # of connection points: 3
#     Node 7, Type 0, BuildingBlock: OLANEW_clean_sbu_2, # of connection points: 3
#     Node 8, Type 0, BuildingBlock: OLANEW_clean_sbu_2, # of connection points: 3
#     Node 9, Type 0, BuildingBlock: OLANEW_clean_sbu_2, # of connection points: 3
#     Node 10, Type 0, BuildingBlock: OLANEW_clean_sbu_2, # of connection points: 3
#     Node 11, Type 0, BuildingBlock: OLANEW_clean_sbu_2, # of connection points: 3
#     Node 12, Type 0, BuildingBlock: OLANEW_clean_sbu_2, # of connection points: 3
#     Node 13, Type 0, BuildingBlock: OLANEW_clean_sbu_2, # of connection points: 3
#     Node 14, Type 0, BuildingBlock: OLANEW_clean_sbu_2, # of connection points: 3
#     Node 15, Type 0, BuildingBlock: OLANEW_clean_sbu_2, # of connection points: 3
#     Edge 16, Type (0, 0), BuildingBlock: ZUJKAS_clean_linker_0, # of connection points: 2
#     Edge 17, Type (0, 0), BuildingBlock: ZUJKAS_clean_linker_0, # of connection points: 2
#     Edge 18, Type (0, 0), BuildingBlock: ZUJKAS_clean_linker_0, # of connection points: 2
#     Edge 19, Type (0, 0), BuildingBlock: ZUJKAS_clean_linker_0, # of connection points: 2
#     Edge 20, Type (0, 0), BuildingBlock: ZUJKAS_clean_linker_0, # of connection points: 2
#     Edge 21, Type (0, 0), BuildingBlock: ZUJKAS_clean_linker_0, # of connection points: 2
#     Edge 22, Type (0, 0), BuildingBlock: ZUJKAS_clean_linker_0, # of connection points: 2
#     Edge 23, Type (0, 0), BuildingBlock: ZUJKAS_clean_linker_0, # of connection points: 2
#     Edge 24, Type (0, 0), BuildingBlock: ZUJKAS_clean_linker_0, # of connection points: 2
#     Edge 25, Type (0, 0), BuildingBlock: ZUJKAS_clean_linker_0, # of connection points: 2
#     Edge 26, Type (0, 0), BuildingBlock: ZUJKAS_clean_linker_0, # of connection points: 2
#     Edge 27, Type (0, 0), BuildingBlock: ZUJKAS_clean_linker_0, # of connection points: 2
#     Edge 28, Type (0, 0), BuildingBlock: ZUJKAS_clean_linker_0, # of connection points: 2
#     Edge 29, Type (0, 0), BuildingBlock: ZUJKAS_clean_linker_0, # of connection points: 2
#     Edge 30, Type (0, 0), BuildingBlock: ZUJKAS_clean_linker_0, # of connection points: 2
#     Edge 31, Type (0, 0), BuildingBlock: ZUJKAS_clean_linker_0, # of connection points: 2
#     Edge 32, Type (0, 0), BuildingBlock: ZUJKAS_clean_linker_0, # of connection points: 2
#     Edge 33, Type (0, 0), BuildingBlock: ZUJKAS_clean_linker_0, # of connection points: 2
#     Edge 34, Type (0, 0), BuildingBlock: ZUJKAS_clean_linker_0, # of connection points: 2
#     Edge 35, Type (0, 0), BuildingBlock: ZUJKAS_clean_linker_0, # of connection points: 2
#     Edge 36, Type (0, 0), BuildingBlock: ZUJKAS_clean_linker_0, # of connection points: 2
#     Edge 37, Type (0, 0), BuildingBlock: ZUJKAS_clean_linker_0, # of connection points: 2
#     Edge 38, Type (0, 0), BuildingBlock: ZUJKAS_clean_linker_0, # of connection points: 2
#     Edge 39, Type (0, 0), BuildingBlock: ZUJKAS_clean_linker_0, # of connection points: 2
# Relax obj value: 0.008
# Max RMSD: 0.058
# Mean RMSD: 0.047
data_MOF--net-dia-f--node1-OLANEW_clean_sbu_2--edge1-ZUJKAS_clean_linker_0
_symmetry_space_group_name_H-M    P1
_symmetry_Int_Tables_number       1
_symmetry_cell_setting            triclinic
loop_
_symmetry_equiv_pos_as_xyz
'x, y, z'
_cell_length_a     94.957222
_cell_length_b     94.933308
_cell_length_c     23.833264
_cell_angle_alpha  90.03242
_cell_angle_beta   89.990443
_cell_angle_gamma 96.738619
loop_
_atom_site_label
_atom_site_type_symbol
_atom_site_fract_x
_atom_site_fract_y
_atom_site_fract_z
_atom_type_partial_charge
O0 O 0.07004 0.60287 0.1275 0.0
Cd1 Cd 0.04995 0.58798 0.16897 0.0
O2 O 0.08143 0.60587 0.20772 0.0
Cd3 Cd 0.06253 0.59786 0.25505 0.0
O4 O 0.04343 0.60454 0.29249 0.0
C5 C 0.04508 0.6127 0.33483 0.0
O6 O 0.05784 0.61561 0.35624 0.0
C7 C 0.08107 0.60767 0.15488 0.0
C8 C 0.04661 0.56135 0.11821 0.0
O9 O 0.03959 0.57126 0.10107 0.0
O10 O 0.05509 0.56401 0.15973 0.0
O11 O 0.66414 0.72147 0.61123 0.0
Cd12 Cd 0.6769 0.7392 0.67275 0.0
O13 O 0.66015 0.73905 0.55663 0.0
Cd14 Cd 0.65073 0.75024 0.48866 0.0
O15 O 0.64214 0.76701 0.44159 0.0
C16 C 0.63669 0.77629 0.47019 0.0
O17 O 0.63634 0.77508 0.52511 0.0
C18 C 0.65865 0.72581 0.5668 0.0
C19 C 0.70613 0.74172 0.65559 0.0
O20 O 0.70016 0.73318 0.69248 0.0
O21 O 0.69824 0.74905 0.62666 0.0
O22 O 0.58333 0.41377 0.74878 0.0
Cd23 Cd 0.57178 0.43297 0.79006 0.0
O24 O 0.56342 0.40023 0.76365 0.0
Cd25 Cd 0.54914 0.38039 0.76824 0.0
O26 O 0.53308 0.36268 0.78816 0.0
C27 C 0.52017 0.36496 0.79017 0.0
O28 O 0.51695 0.37774 0.7786 0.0
C29 C 0.57603 0.40172 0.74462 0.0
C30 C 0.5711 0.45502 0.71352 0.0
O31 O 0.58089 0.45541 0.75071 0.0
O32 O 0.56157 0.44428 0.71294 0.0
O33 O 0.89869 0.28102 0.36606 0.0
Cd34 Cd 0.88119 0.26446 0.31747 0.0
O35 O 0.90929 0.26276 0.39138 0.0
Cd36 Cd 0.92514 0.2517 0.43457 0.0
O37 O 0.94082 0.23893 0.46875 0.0
C38 C 0.94124 0.23606 0.52077 0.0
O39 O 0.93215 0.24106 0.55485 0.0
C40 C 0.90886 0.27611 0.3911 0.0
C41 C 0.8536 0.26601 0.35462 0.0
O42 O 0.8614 0.25749 0.37758 0.0
O43 O 0.85891 0.27386 0.31436 0.0
O44 O 0.05454 0.38748 0.80945 0.0
Cd45 Cd 0.03666 0.40158 0.77273 0.0
O46 O 0.06174 0.38213 0.72521 0.0
Cd47 Cd 0.04356 0.3895 0.68337 0.0
O48 O 0.02396 0.38099 0.64162 0.0
C49 C 0.02476 0.36916 0.61761 0.0
O50 O 0.03696 0.3639 0.61819 0.0
C51 C 0.06308 0.38168 0.77823 0.0
C52 C 0.0376 0.42743 0.82903 0.0
O53 O 0.02903 0.41669 0.84451 0.0
O54 O 0.04564 0.42596 0.78676 0.0
O55 O 0.90191 0.76248 0.54691 0.0
Cd56 Cd 0.88576 0.74405 0.59272 0.0
O57 O 0.9119 0.74448 0.51546 0.0
Cd58 Cd 0.92811 0.73301 0.47717 0.0
O59 O 0.94228 0.71783 0.45 0.0
C60 C 0.94467 0.70806 0.48394 0.0
O61 O 0.93867 0.70764 0.5337 0.0
C62 C 0.91172 0.75784 0.5186 0.0
C63 C 0.85717 0.7481 0.59218 0.0
O64 O 0.86533 0.75279 0.63258 0.0
O65 O 0.86263 0.74183 0.55133 0.0
O66 O 0.5921 0.60342 0.23155 0.0
Cd67 Cd 0.57914 0.58146 0.19649 0.0
O68 O 0.57176 0.61205 0.22978 0.0
Cd69 Cd 0.55698 0.62801 0.23481 0.0
O70 O 0.53947 0.64028 0.21631 0.0
C71 C 0.52976 0.63462 0.18397 0.0
O72 O 0.53066 0.6218 0.16454 0.0
C73 C 0.58495 0.61368 0.2409 0.0
C74 C 0.57679 0.56089 0.28032 0.0
O75 O 0.58664 0.56131 0.24338 0.0
O76 O 0.56796 0.57009 0.27722 0.0
O77 O 0.6679 0.23434 0.51553 0.0
Cd78 Cd 0.6765 0.25942 0.50317 0.0
O79 O 0.64676 0.23659 0.48147 0.0
Cd80 Cd 0.65032 0.25968 0.47631 0.0
O81 O 0.64531 0.28091 0.49735 0.0
C82 C 0.63256 0.28329 0.48967 0.0
O83 O 0.62359 0.27329 0.4671 0.0
C84 C 0.65559 0.2288 0.50117 0.0
C85 C 0.70561 0.26266 0.48319 0.0
O86 O 0.70072 0.26316 0.53319 0.0
O87 O 0.69671 0.26082 0.44265 0.0
O88 O 0.40925 0.26982 0.09276 0.0
Cd89 Cd 0.3951 0.2531 0.15401 0.0
O90 O 0.4178 0.25107 0.06021 0.0
Cd91 Cd 0.4303 0.23829 0.00781 0.0
O92 O 0.44055 0.22109 0.97086 0.0
C93 C 0.44001 0.20954 0.9982 0.0
O94 O 0.43343 0.20858 0.04679 0.0
C95 C 0.41775 0.26446 0.06003 0.0
C96 C 0.36594 0.25312 0.14195 0.0
O97 O 0.37289 0.26098 0.17869 0.0
O98 O 0.37283 0.24541 0.11031 0.0
O99 O 0.16927 0.73913 0.03151 0.0
Cd100 Cd 0.17901 0.76413 0.03116 0.0
O101 O 0.16227 0.73883 0.94353 0.0
Cd102 Cd 0.16525 0.76195 0.94132 0.0
O103 O 0.1576 0.78152 0.97011 0.0
C104 C 0.14867 0.77981 0.01 0.0
O105 O 0.14526 0.76697 0.03008 0.0
C106 C 0.164 0.73228 0.98909 0.0
C107 C 0.20851 0.76609 0.02715 0.0
O108 O 0.20192 0.76578 0.07415 0.0
O109 O 0.20114 0.76573 0.982 0.0
O110 O 0.17209 0.21734 0.11131 0.0
Cd111 Cd 0.18439 0.23547 0.17223 0.0
O112 O 0.16429 0.23505 0.06756 0.0
Cd113 Cd 0.15344 0.24712 0.00638 0.0
O114 O 0.14349 0.26436 0.96832 0.0
C115 C 0.14045 0.27412 0.00113 0.0
O116 O 0.14333 0.27317 0.05483 0.0
C117 C 0.16458 0.22174 0.0724 0.0
C118 C 0.21372 0.23812 0.15877 0.0
O119 O 0.20756 0.22996 0.19646 0.0
O120 O 0.20598 0.24497 0.12716 0.0
O121 O 0.40084 0.77938 0.01509 0.0
Cd122 Cd 0.3877 0.75567 0.01757 0.0
O123 O 0.42049 0.77117 0.9882 0.0
Cd124 Cd 0.4131 0.74862 0.99614 0.0
O125 O 0.41998 0.72831 0.01999 0.0
C126 C 0.42769 0.72241 0.98564 0.0
O127 O 0.43007 0.7281 0.93578 0.0
C128 C 0.41376 0.78159 0.00017 0.0
C129 C 0.35855 0.75717 0.01727 0.0
O130 O 0.36546 0.75706 0.06343 0.0
O131 O 0.36542 0.75647 0.97125 0.0
O132 O 0.5807 0.09075 0.70527 0.0
Cd133 Cd 0.56301 0.07296 0.74643 0.0
O134 O 0.57074 0.10804 0.74481 0.0
Cd135 Cd 0.55225 0.09575 0.78201 0.0
O136 O 0.5318 0.10068 0.81322 0.0
C137 C 0.52579 0.10902 0.78193 0.0
O138 O 0.53165 0.11277 0.73342 0.0
C139 C 0.58054 0.1039 0.71484 0.0
C140 C 0.55735 0.04943 0.67663 0.0
O141 O 0.56753 0.05023 0.71225 0.0
O142 O 0.54981 0.05976 0.67415 0.0
O143 O 0.08546 0.90619 0.2374 0.0
Cd144 Cd 0.07398 0.9257 0.27658 0.0
O145 O 0.06684 0.89157 0.26055 0.0
Cd146 Cd 0.05254 0.87173 0.26583 0.0
O147 O 0.03526 0.85508 0.28483 0.0
C148 C 0.02695 0.85744 0.32468 0.0
O149 O 0.02924 0.86952 0.352 0.0
C150 C 0.07912 0.89364 0.23855 0.0
C151 C 0.07346 0.94744 0.19833 0.0
O152 O 0.08381 0.94733 0.23276 0.0
O153 O 0.06329 0.93731 0.20124 0.0
O154 O 0.55705 0.89128 0.25995 0.0
Cd155 Cd 0.53977 0.90692 0.22991 0.0
O156 O 0.56686 0.89016 0.1767 0.0
Cd157 Cd 0.54975 0.90018 0.13811 0.0
O158 O 0.52753 0.89572 0.11373 0.0
C159 C 0.52099 0.88547 0.14102 0.0
O160 O 0.52786 0.87946 0.18057 0.0
C161 C 0.56655 0.88703 0.22861 0.0
C162 C 0.54035 0.93043 0.30023 0.0
O163 O 0.53172 0.91924 0.30928 0.0
O164 O 0.54863 0.93051 0.25771 0.0
O165 O 0.09685 0.0996 0.74073 0.0
Cd166 Cd 0.08557 0.07782 0.69738 0.0
O167 O 0.07691 0.10887 0.73185 0.0
Cd168 Cd 0.06321 0.12586 0.73441 0.0
O169 O 0.04833 0.1415 0.72257 0.0
C170 C 0.03855 0.13878 0.68643 0.0
O171 O 0.03778 0.12675 0.65865 0.0
C172 C 0.08974 0.10997 0.74824 0.0
C173 C 0.08189 0.05584 0.77546 0.0
O174 O 0.09317 0.05792 0.74559 0.0
O175 O 0.0723 0.0641 0.76809 0.0
H176 H 0.15152 0.71441 0.90824 0.0
H177 H 0.14043 0.69001 0.92094 0.0
H178 H 0.15349 0.69128 0.09431 0.0
H179 H 0.16479 0.71553 0.08196 0.0
H180 H 0.15592 0.66491 0.03983 0.0
H181 H 0.10297 0.68351 0.00912 0.0
H182 H 0.11545 0.68725 0.95288 0.0
H183 H 0.11884 0.69563 0.01991 0.0
C184 C 0.15222 0.70943 0.94887 0.0
C185 C 0.15887 0.71699 0.99431 0.0
C186 C 0.14584 0.69551 0.95605 0.0
C187 C 0.14594 0.68896 0.0088 0.0
C188 C 0.15326 0.69618 0.05331 0.0
H189 H 0.10501 0.62151 0.20243 0.0
H190 H 0.12214 0.63929 0.15869 0.0
C191 C 0.15967 0.71006 0.04618 0.0
C192 C 0.13749 0.6751 0.0193 0.0
H193 H 0.10337 0.65955 0.03117 0.0
C194 C 0.14444 0.66365 0.03736 0.0
C195 C 0.12251 0.67353 0.01604 0.0
C196 C 0.11444 0.68563 0.99887 0.0
C197 C 0.13676 0.65072 0.05328 0.0
C198 C 0.12177 0.64933 0.05193 0.0
C199 C 0.11487 0.66061 0.03191 0.0
C200 C 0.1129 0.63687 0.07572 0.0
C201 C 0.14477 0.63872 0.07179 0.0
C202 C 0.10202 0.62953 0.04361 0.0
C203 C 0.09208 0.61943 0.06868 0.0
C204 C 0.0928 0.61657 0.12645 0.0
C205 C 0.10415 0.62343 0.15784 0.0
C206 C 0.11405 0.63354 0.13276 0.0
H207 H 0.15553 0.63963 0.05287 0.0
H208 H 0.14605 0.63912 0.11806 0.0
H209 H 0.139 0.62825 0.06034 0.0
H210 H 0.1009 0.632 0.99958 0.0
H211 H 0.08351 0.61433 0.04324 0.0
H212 H 0.63734 0.78309 0.35834 0.0
H213 H 0.628 0.80327 0.31352 0.0
H214 H 0.61358 0.81676 0.47429 0.0
H215 H 0.62308 0.79684 0.51949 0.0
H216 H 0.60062 0.80954 0.31075 0.0
H217 H 0.63487 0.85318 0.4144 0.0
H218 H 0.63871 0.835 0.41623 0.0
H219 H 0.62586 0.84096 0.46355 0.0
C220 C 0.63225 0.7904 0.38419 0.0
C221 C 0.63101 0.78839 0.44254 0.0
C222 C 0.62694 0.80193 0.35852 0.0
C223 C 0.62036 0.81167 0.39073 0.0
C224 C 0.61897 0.8096 0.44883 0.0
H225 H 0.56929 0.87894 0.3378 0.0
H226 H 0.58366 0.86122 0.37398 0.0
C227 C 0.62431 0.79812 0.47454 0.0
C228 C 0.61428 0.82362 0.36342 0.0
H229 H 0.6142 0.85958 0.36765 0.0
C230 C 0.60372 0.8205 0.32259 0.0
C231 C 0.61836 0.83791 0.37895 0.0
C232 C 0.63017 0.842 0.42028 0.0
C233 C 0.59674 0.83123 0.29847 0.0
C234 C 0.60054 0.84546 0.31519 0.0
C235 C 0.61131 0.84864 0.35507 0.0
C236 C 0.59294 0.85708 0.29366 0.0
C237 C 0.58497 0.82723 0.25682 0.0
C238 C 0.59375 0.86089 0.2368 0.0
C239 C 0.58558 0.87104 0.21593 0.0
C240 C 0.57645 0.87754 0.25165 0.0
C241 C 0.57615 0.8741 0.30908 0.0
C242 C 0.58436 0.86399 0.32989 0.0
H243 H 0.58161 0.81562 0.2562 0.0
H244 H 0.57561 0.83279 0.26666 0.0
H245 H 0.5887 0.83051 0.21414 0.0
H246 H 0.60048 0.8558 0.20838 0.0
H247 H 0.58611 0.87348 0.17154 0.0
H248 H 0.44446 0.26041 0.02502 0.0
H249 H 0.46105 0.27682 0.97117 0.0
H250 H 0.42987 0.30631 0.96185 0.0
H251 H 0.4132 0.28991 0.01559 0.0
H252 H 0.45937 0.28935 0.86459 0.0
H253 H 0.46393 0.32965 0.0346 0.0
H254 H 0.4558 0.31171 0.04531 0.0
H255 H 0.44609 0.32447 0.0114 0.0
C256 C 0.44098 0.2702 0.01022 0.0
C257 C 0.42745 0.27379 0.02387 0.0
C258 C 0.45053 0.27964 0.97992 0.0
C259 C 0.44675 0.29285 0.96317 0.0
C260 C 0.43309 0.29627 0.97528 0.0
H261 H 0.49194 0.36699 0.8048 0.0
H262 H 0.47386 0.34897 0.84205 0.0
C263 C 0.42357 0.28688 0.00577 0.0
C264 C 0.45725 0.30325 0.93475 0.0
H265 H 0.47527 0.33636 0.94867 0.0
C266 C 0.46288 0.29962 0.88294 0.0
C267 C 0.46184 0.31661 0.95898 0.0
C268 C 0.45672 0.32083 0.01587 0.0
C269 C 0.47282 0.30913 0.85422 0.0
C270 C 0.47734 0.32251 0.87839 0.0
C271 C 0.47171 0.32612 0.93014 0.0
C272 C 0.48808 0.33291 0.85138 0.0
C273 C 0.47824 0.30491 0.7979 0.0
C274 C 0.50206 0.32983 0.84413 0.0
C275 C 0.51244 0.34012 0.82295 0.0
C276 C 0.50903 0.35371 0.80889 0.0
C277 C 0.49494 0.35665 0.8152 0.0
C278 C 0.48458 0.34636 0.83648 0.0
H279 H 0.47126 0.29592 0.77911 0.0
H280 H 0.4791 0.31399 0.76825 0.0
H281 H 0.48896 0.30154 0.80318 0.0
H282 H 0.50503 0.31959 0.85634 0.0
H283 H 0.5232 0.33752 0.81873 0.0
H284 H 0.96135 0.22402 0.46126 0.0
H285 H 0.9778 0.20808 0.49596 0.0
H286 H 0.96117 0.21131 0.66323 0.0
H287 H 0.94453 0.22717 0.62883 0.0
H288 H 0.99881 0.21263 0.57916 0.0
H289 H 0.95762 0.16827 0.63446 0.0
H290 H 0.95392 0.18292 0.59075 0.0
H291 H 0.9553 0.1851 0.6655 0.0
C292 C 0.96117 0.22136 0.50546 0.0
C293 C 0.95155 0.2268 0.54221 0.0
C294 C 0.9706 0.21227 0.5252 0.0
C295 C 0.97056 0.20838 0.58197 0.0
C296 C 0.96119 0.21399 0.61906 0.0
H297 H 0.03699 0.16457 0.73643 0.0
H298 H 0.02046 0.18176 0.71466 0.0
C299 C 0.95174 0.2231 0.59935 0.0
C300 C 0.98036 0.19841 0.60197 0.0
H301 H 0.98133 0.16532 0.6568 0.0
C302 C 0.99501 0.2023 0.59637 0.0
C303 C 0.97534 0.1849 0.62385 0.0
C304 C 0.95969 0.17994 0.62867 0.0
C305 C 0.0048 0.19301 0.61183 0.0
C306 C -0.00022 0.17956 0.6342 0.0
C307 C 0.98513 0.17569 0.64005 0.0
C308 C 0.00953 0.16904 0.64906 0.0
C309 C 0.0204 0.1975 0.60248 0.0
C310 C 0.0086 0.15605 0.62046 0.0
C311 C 0.01795 0.14619 0.63298 0.0
C312 C 0.0284 0.14911 0.67455 0.0
C313 C 0.02913 0.16204 0.70392 0.0
C314 C 0.01975 0.1719 0.69137 0.0
H315 H 0.02225 0.20672 0.57358 0.0
H316 H 0.0255 0.20062 0.64322 0.0
H317 H 0.02567 0.18863 0.58493 0.0
H318 H 0.00075 0.15363 0.58779 0.0
H319 H 0.01706 0.13633 0.60968 0.0
H320 H 0.06919 0.37856 0.88959 0.0
H321 H 0.08471 0.36249 0.93064 0.0
H322 H 0.09602 0.34941 0.7649 0.0
H323 H 0.08083 0.36561 0.72355 0.0
H324 H 0.08101 0.33398 0.91836 0.0
H325 H 0.13432 0.35483 0.84025 0.0
H326 H 0.11944 0.36504 0.83761 0.0
H327 H 0.12152 0.35185 0.78489 0.0
C328 C 0.0752 0.37247 0.86185 0.0
C329 C 0.07374 0.37336 0.80327 0.0
C330 C 0.08406 0.36329 0.88539 0.0
C331 C 0.09165 0.35487 0.85085 0.0
C332 C 0.09054 0.35604 0.79239 0.0
H333 H 0.13448 0.28025 0.89196 0.0
H334 H 0.12299 0.30035 0.85731 0.0
C335 C 0.08175 0.36526 0.76881 0.0
C336 C 0.0996 0.34387 0.87571 0.0
H337 H 0.13174 0.33104 0.87598 0.0
C338 C 0.09215 0.33345 0.9097 0.0
C339 C 0.11411 0.34315 0.86408 0.0
C340 C 0.12285 0.3544 0.83016 0.0
C341 C 0.09871 0.32211 0.93111 0.0
C342 C 0.11313 0.32125 0.91858 0.0
C343 C 0.12065 0.33173 0.88521 0.0
C344 C 0.1205 0.30942 0.93949 0.0
C345 C 0.09009 0.3109 0.96568 0.0
C346 C 0.12303 0.30801 0.99703 0.0
C347 C 0.12959 0.29658 0.01696 0.0
C348 C 0.13373 0.28634 0.97962 0.0
C349 C 0.13135 0.28791 0.92182 0.0
C350 C 0.12484 0.2994 0.90193 0.0
H351 H 0.07852 0.31163 0.96232 0.0
H352 H 0.09218 0.30013 0.95238 0.0
H353 H 0.09317 0.31225 0.01044 0.0
H354 H 0.11989 0.31574 0.02655 0.0
H355 H 0.13131 0.29572 0.06168 0.0
H356 H 0.01876 0.83158 0.27591 0.0
H357 H 0.99855 0.81434 0.30176 0.0
H358 H 0.98774 0.84203 0.43449 0.0
H359 H 0.00772 0.85935 0.40865 0.0
H360 H 0.99302 0.80054 0.40422 0.0
H361 H 0.95022 0.8332 0.35075 0.0
H362 H 0.96825 0.83753 0.32686 0.0
H363 H 0.96335 0.84199 0.39701 0.0
C364 C 0.01204 0.83403 0.31044 0.0
C365 C 0.01482 0.84688 0.34003 0.0
C366 C 0.00051 0.82416 0.32513 0.0
C367 C 0.9915 0.82702 0.36938 0.0
C368 C 0.99435 0.83976 0.39936 0.0
H369 H 0.92125 0.7845 0.55397 0.0
H370 H 0.94055 0.80084 0.51433 0.0
C371 C 0.00585 0.84961 0.38472 0.0
C372 C 0.97939 0.81652 0.38566 0.0
H373 H 0.94354 0.8125 0.40584 0.0
C374 C 0.98217 0.80307 0.40401 0.0
C375 C 0.96526 0.81987 0.38528 0.0
C376 C 0.96154 0.83388 0.36341 0.0
C377 C 0.97126 0.79307 0.42401 0.0
C378 C 0.95717 0.79655 0.42481 0.0
C379 C 0.95436 0.80989 0.40538 0.0
C380 C 0.94528 0.78669 0.44749 0.0
C381 C 0.97496 0.77906 0.44599 0.0
C382 C 0.94133 0.77346 0.42227 0.0
C383 C 0.93031 0.7641 0.44486 0.0
C384 C 0.92305 0.76783 0.49304 0.0
C385 C 0.92672 0.78129 0.51705 0.0
C386 C 0.93775 0.79062 0.49451 0.0
H387 H 0.98651 0.77929 0.45402 0.0
H388 H 0.96913 0.77612 0.48547 0.0
H389 H 0.97185 0.77065 0.41451 0.0
H390 H 0.94674 0.77039 0.38497 0.0
H391 H 0.92733 0.75408 0.42397 0.0
H392 H 0.44499 0.7076 0.92274 0.0
H393 H 0.46045 0.69054 0.95597 0.0
H394 H 0.44421 0.694 0.12379 0.0
H395 H 0.42852 0.71089 0.0908 0.0
H396 H 0.48139 0.69685 0.03332 0.0
H397 H 0.44404 0.65131 0.1067 0.0
H398 H 0.43863 0.66497 0.06156 0.0
H399 H 0.44058 0.66801 0.13578 0.0
C400 C 0.44449 0.70453 0.96653 0.0
C401 C 0.43555 0.71066 0.00416 0.0
C402 C 0.45335 0.69479 0.98545 0.0
C403 C 0.45342 0.69092 0.04226 0.0
C404 C 0.44414 0.69662 0.07957 0.0
H405 H 0.52446 0.66112 0.21715 0.0
H406 H 0.50557 0.6745 0.18414 0.0
C407 C 0.43523 0.70634 0.06066 0.0
C408 C 0.46412 0.68203 0.06324 0.0
H409 H 0.46822 0.65157 0.13448 0.0
C410 C 0.47851 0.68691 0.05515 0.0
C411 C 0.46033 0.66902 0.09137 0.0
C412 C 0.44505 0.66292 0.09897 0.0
C413 C 0.48923 0.67925 0.07507 0.0
C414 C 0.48546 0.66649 0.10491 0.0
C415 C 0.47107 0.66146 0.1122 0.0
C416 C 0.49635 0.65808 0.12765 0.0
C417 C 0.5045 0.68478 0.06319 0.0
C418 C 0.49713 0.64425 0.10827 0.0
C419 C 0.50785 0.63654 0.12732 0.0
C420 C 0.51798 0.64253 0.16624 0.0
C421 C 0.51691 0.65625 0.18681 0.0
C422 C 0.50616 0.66393 0.16783 0.0
H423 H 0.50544 0.69253 0.02809 0.0
H424 H 0.50922 0.69024 0.10111 0.0
H425 H 0.51077 0.67598 0.05264 0.0
H426 H 0.48962 0.63952 0.07745 0.0
H427 H 0.50832 0.62598 0.11079 0.0
H428 H 0.58276 0.13254 0.72831 0.0
H429 H 0.59971 0.15046 0.685 0.0
H430 H 0.62009 0.11779 0.60282 0.0
H431 H 0.60288 0.09959 0.64561 0.0
H432 H 0.62916 0.15449 0.69289 0.0
H433 H 0.61097 0.14393 0.47302 0.0
H434 H 0.60072 0.13694 0.53266 0.0
H435 H 0.61631 0.12924 0.51207 0.0
C436 C 0.59083 0.12908 0.70114 0.0
C437 C 0.5914 0.1146 0.69019 0.0
C438 C 0.60055 0.13937 0.6765 0.0
C439 C 0.61106 0.13547 0.6403 0.0
C440 C 0.61191 0.12103 0.63 0.0
H441 H 0.67177 0.20859 0.53872 0.0
H442 H 0.66348 0.18416 0.56612 0.0
C443 C 0.60212 0.11065 0.65469 0.0
C444 C 0.62083 0.14676 0.61329 0.0
H445 H 0.62779 0.1637 0.48828 0.0
C446 C 0.62909 0.1564 0.64803 0.0
C447 C 0.6206 0.14921 0.55479 0.0
C448 C 0.61163 0.13937 0.51574 0.0
C449 C 0.63651 0.16886 0.62637 0.0
C450 C 0.63591 0.17156 0.56805 0.0
C451 C 0.62826 0.16155 0.53288 0.0
C452 C 0.64157 0.1855 0.54417 0.0
C453 C 0.64411 0.17944 0.66666 0.0
C454 C 0.63214 0.19409 0.52007 0.0
C455 C 0.63685 0.20796 0.50378 0.0
C456 C 0.6511 0.21355 0.51148 0.0
C457 C 0.6607 0.20467 0.53284 0.0
C458 C 0.65597 0.19072 0.54874 0.0
H459 H 0.64125 0.17693 0.71105 0.0
H460 H 0.65572 0.17934 0.66214 0.0
H461 H 0.6416 0.19033 0.65737 0.0
H462 H 0.62098 0.19026 0.516 0.0
H463 H 0.62918 0.21446 0.48721 0.0
H464 H 0.02356 0.34381 0.56319 0.0
H465 H 0.00261 0.32926 0.52738 0.0
H466 H 0.97629 0.36079 0.58117 0.0
H467 H 0.9973 0.37557 0.61685 0.0
H468 H 0.97877 0.31844 0.59174 0.0
H469 H 0.96411 0.35269 0.41682 0.0
H470 H 0.9814 0.35503 0.44935 0.0
H471 H 0.96647 0.36106 0.48442 0.0
C472 C 0.01335 0.34775 0.56702 0.0
C473 C 0.0121 0.36087 0.59287 0.0
C474 C 0.00139 0.3394 0.54659 0.0
C475 C 0.98794 0.34399 0.55129 0.0
C476 C 0.98662 0.35715 0.5764 0.0
H477 H 0.90589 0.30145 0.44052 0.0
H478 H 0.92445 0.31812 0.48374 0.0
C479 C 0.99862 0.36556 0.59691 0.0
C480 C 0.97532 0.33464 0.53177 0.0
H481 H 0.949 0.33155 0.43345 0.0
C482 C 0.97223 0.32131 0.55724 0.0
C483 C 0.96677 0.33849 0.48705 0.0
C484 C 0.96985 0.35255 0.45738 0.0
C485 C 0.96088 0.31163 0.53879 0.0
C486 C 0.95257 0.3153 0.49302 0.0
C487 C 0.95542 0.32878 0.46848 0.0
C488 C 0.94127 0.30508 0.46846 0.0
C489 C 0.95785 0.29758 0.56862 0.0
C490 C 0.94463 0.29234 0.4449 0.0
C491 C 0.93408 0.28283 0.42028 0.0
C492 C 0.91997 0.28589 0.41882 0.0
C493 C 0.91666 0.29876 0.44164 0.0
C494 C 0.92723 0.30827 0.4663 0.0
H495 H 0.96237 0.29805 0.61168 0.0
H496 H 0.94627 0.29423 0.57137 0.0
H497 H 0.96276 0.28937 0.54486 0.0
H498 H 0.95549 0.28988 0.44451 0.0
H499 H 0.93709 0.27336 0.40064 0.0
H500 H 0.51223 0.10543 0.8835 0.0
H501 H 0.49434 0.11944 0.92147 0.0
H502 H 0.4946 0.14284 0.76631 0.0
H503 H 0.51215 0.12876 0.72774 0.0
H504 H 0.49872 0.14772 0.93818 0.0
H505 H 0.45268 0.13562 0.79702 0.0
H506 H 0.4671 0.12481 0.79945 0.0
H507 H 0.46868 0.14089 0.75869 0.0
C508 C 0.50824 0.11335 0.85704 0.0
C509 C 0.51365 0.11601 0.80265 0.0
C510 C 0.49803 0.12135 0.87882 0.0
C511 C 0.49301 0.13208 0.84652 0.0
C512 C 0.49805 0.1344 0.79157 0.0
H513 H 0.45322 0.20744 0.89691 0.0
H514 H 0.46516 0.18763 0.86242 0.0
C515 C 0.50819 0.12639 0.76972 0.0
C516 C 0.48373 0.14188 0.87192 0.0
H517 H 0.45345 0.1573 0.85032 0.0
C518 C 0.48869 0.14963 0.91957 0.0
C519 C 0.47068 0.1444 0.84743 0.0
C520 C 0.4644 0.13588 0.79816 0.0
C521 C 0.48126 0.16026 0.94198 0.0
C522 C 0.46849 0.1631 0.91632 0.0
C523 C 0.46331 0.15512 0.86961 0.0
C524 C 0.46065 0.17469 0.93638 0.0
C525 C 0.4874 0.16876 0.99162 0.0
C526 C 0.45402 0.17384 0.98902 0.0
C527 C 0.44719 0.18512 0.00885 0.0
C528 C 0.44688 0.19744 0.97633 0.0
C529 C 0.45332 0.19813 0.9231 0.0
C530 C 0.4601 0.18682 0.90324 0.0
H531 H 0.49852 0.16689 0.0004 0.0
H532 H 0.48709 0.18027 0.98437 0.0
H533 H 0.48093 0.16571 0.02943 0.0
H534 H 0.45422 0.16449 0.01491 0.0
H535 H 0.44228 0.18422 0.04992 0.0
H536 H 0.57365 0.63197 0.31212 0.0
H537 H 0.58605 0.65272 0.35899 0.0
H538 H 0.6247 0.64593 0.27331 0.0
H539 H 0.61236 0.62504 0.22679 0.0
H540 H 0.62892 0.6491 0.38295 0.0
H541 H 0.59958 0.69247 0.30747 0.0
H542 H 0.58812 0.67811 0.33775 0.0
H543 H 0.59787 0.67519 0.27486 0.0
C544 C 0.58466 0.63516 0.30185 0.0
C545 C 0.59197 0.62704 0.26498 0.0
C546 C 0.59176 0.64703 0.32881 0.0
C547 C 0.60626 0.65106 0.31892 0.0
C548 C 0.6135 0.64308 0.28131 0.0
H549 H 0.65532 0.72751 0.45269 0.0
H550 H 0.64259 0.70975 0.39076 0.0
C551 C 0.60644 0.63116 0.25477 0.0
C552 C 0.61416 0.66278 0.35145 0.0
H553 H 0.61445 0.69762 0.38795 0.0
C554 C 0.62582 0.65974 0.38358 0.0
C555 C 0.61023 0.67671 0.35183 0.0
C556 C 0.59835 0.68087 0.31567 0.0
C557 C 0.63343 0.67012 0.41714 0.0
C558 C 0.62905 0.68385 0.41979 0.0
C559 C 0.61766 0.68704 0.38645 0.0
C560 C 0.63611 0.69495 0.45748 0.0
C561 C 0.64617 0.6663 0.44909 0.0
C562 C 0.63643 0.69264 0.51558 0.0
C563 C 0.64364 0.70277 0.55097 0.0
C564 C 0.65047 0.71552 0.52907 0.0
C565 C 0.64986 0.71798 0.47101 0.0
C566 C 0.64269 0.70778 0.43552 0.0
H567 H 0.65052 0.65702 0.43012 0.0
H568 H 0.65471 0.67535 0.45044 0.0
H569 H 0.64299 0.66347 0.49282 0.0
H570 H 0.63118 0.68294 0.53357 0.0
H571 H 0.64388 0.70061 0.59557 0.0
H572 H 0.076 0.8655 0.2684 0.0
H573 H 0.08788 0.84646 0.22702 0.0
H574 H 0.11031 0.87642 0.11301 0.0
H575 H 0.09832 0.89547 0.15359 0.0
H576 H 0.08799 0.83718 0.11343 0.0
H577 H 0.14207 0.85723 0.18816 0.0
H578 H 0.12628 0.8635 0.2163 0.0
H579 H 0.13323 0.8699 0.14974 0.0
C580 C 0.08319 0.86799 0.2337 0.0
C581 C 0.08601 0.88194 0.21354 0.0
C582 C 0.09011 0.85713 0.21056 0.0
C583 C 0.10007 0.86007 0.16738 0.0
C584 C 0.10284 0.87397 0.14695 0.0
H585 H 0.15285 0.80774 0.9777 0.0
H586 H 0.14088 0.82737 0.0142 0.0
C587 C 0.09594 0.88482 0.17005 0.0
C588 C 0.10748 0.84858 0.14332 0.0
H589 H 0.14022 0.83767 0.12572 0.0
C590 C 0.0994 0.83725 0.11623 0.0
C591 C 0.12237 0.84876 0.14686 0.0
C592 C 0.13152 0.86043 0.17723 0.0
C593 C 0.10584 0.82614 0.09204 0.0
C594 C 0.12072 0.82626 0.09599 0.0
C595 C 0.12881 0.83764 0.1227 0.0
C596 C 0.12803 0.81445 0.07409 0.0
C597 C 0.09669 0.81448 0.06171 0.0
C598 C 0.12494 0.80078 0.09643 0.0
C599 C 0.13174 0.78958 0.07579 0.0
C600 C 0.14183 0.79186 0.03256 0.0
C601 C 0.1451 0.80563 0.01088 0.0
C602 C 0.13828 0.81685 0.03166 0.0
H603 H 0.0863 0.81784 0.04939 0.0
H604 H 0.10208 0.8111 0.02349 0.0
H605 H 0.0946 0.80516 0.08987 0.0
H606 H 0.11728 0.79877 0.13002 0.0
H607 H 0.12903 0.77914 0.0937 0.0
H608 H 0.01847 0.61235 0.28989 0.0
H609 H 0.00035 0.62751 0.31581 0.0
H610 H 0.02691 0.64552 0.45062 0.0
H611 H 0.04516 0.63059 0.42463 0.0
H612 H 0.98542 0.63123 0.41558 0.0
H613 H 0.02004 0.6801 0.35563 0.0
H614 H 0.02401 0.66259 0.3367 0.0
H615 H 0.02785 0.66936 0.40621 0.0
C616 C 0.0204 0.61942 0.32544 0.0
C617 C 0.03334 0.62039 0.35477 0.0
C618 C 0.01004 0.62808 0.34016 0.0
C619 C 0.01244 0.63784 0.38433 0.0
C620 C 0.025 0.63828 0.41557 0.0
H621 H 0.95316 0.68694 0.54912 0.0
H622 H 0.96897 0.66949 0.52314 0.0
C623 C 0.03538 0.62968 0.40082 0.0
C624 C 0.00207 0.64793 0.39647 0.0
H625 H 0.99858 0.68328 0.40246 0.0
C626 C 0.98825 0.64261 0.41258 0.0
C627 C 0.00574 0.66276 0.39143 0.0
C628 C 0.02017 0.66907 0.37103 0.0
C629 C 0.97809 0.65177 0.42518 0.0
C630 C 0.98196 0.66661 0.42243 0.0
C631 C 0.99568 0.6719 0.40505 0.0
C632 C 0.972 0.6769 0.43764 0.0
C633 C 0.96327 0.64546 0.44055 0.0
C634 C 0.96871 0.68709 0.39861 0.0
C635 C 0.9598 0.6972 0.41351 0.0
C636 C 0.95403 0.69732 0.46783 0.0
C637 C 0.95735 0.68709 0.50683 0.0
C638 C 0.96631 0.67703 0.49194 0.0
H639 H 0.96096 0.63436 0.4253 0.0
H640 H 0.96217 0.64532 0.4869 0.0
H641 H 0.95523 0.65183 0.42295 0.0
H642 H 0.97307 0.68723 0.35657 0.0
H643 H 0.95746 0.70492 0.38247 0.0
H644 H 0.07742 0.12774 0.81852 0.0
H645 H 0.089 0.14859 0.86783 0.0
H646 H 0.129 0.14184 0.79285 0.0
H647 H 0.11741 0.12114 0.74251 0.0
H648 H 0.1119 0.14783 0.94451 0.0
H649 H 0.12624 0.18474 0.7674 0.0
H650 H 0.11278 0.16968 0.76166 0.0
H651 H 0.13123 0.1672 0.75822 0.0
C652 C 0.08858 0.13096 0.81111 0.0
C653 C 0.09645 0.12302 0.77563 0.0
C654 C 0.09521 0.14278 0.83979 0.0
C655 C 0.10979 0.14688 0.8332 0.0
C656 C 0.11767 0.13901 0.79758 0.0
H657 H 0.17023 0.19501 0.04793 0.0
H658 H 0.1564 0.17732 0.98923 0.0
C659 C 0.11106 0.12715 0.76918 0.0
C660 C 0.117 0.15875 0.86665 0.0
H661 H 0.13687 0.19104 0.85592 0.0
C662 C 0.11726 0.15733 0.92521 0.0
C663 C 0.12389 0.17115 0.84129 0.0
C664 C 0.12346 0.1734 0.77871 0.0
C665 C 0.12461 0.16783 0.95907 0.0
C666 C 0.13194 0.17999 0.93358 0.0
C667 C 0.13133 0.18163 0.87517 0.0
C668 C 0.14054 0.19094 0.9671 0.0
C669 C 0.12453 0.16584 0.02188 0.0
C670 C 0.1363 0.20451 0.97328 0.0
C671 C 0.14414 0.21464 0.00702 0.0
C672 C 0.15648 0.21141 0.03442 0.0
C673 C 0.16078 0.19784 0.02738 0.0
C674 C 0.1529 0.18772 0.99392 0.0
H675 H 0.11599 0.15754 0.03557 0.0
H676 H 0.13485 0.16256 0.03526 0.0
H677 H 0.12312 0.17593 0.04362 0.0
H678 H 0.12671 0.20713 0.95316 0.0
H679 H 0.14023 0.22476 0.01312 0.0
H680 H 0.64776 0.30532 0.54561 0.0
H681 H 0.63868 0.32606 0.58734 0.0
H682 H 0.597 0.31193 0.5227 0.0
H683 H 0.6059 0.29115 0.48129 0.0
H684 H 0.62415 0.3479 0.53743 0.0
H685 H 0.59098 0.31574 0.69367 0.0
H686 H 0.60496 0.30883 0.65472 0.0
H687 H 0.5881 0.31017 0.62213 0.0
C688 C 0.63668 0.30668 0.53993 0.0
C689 C 0.62752 0.29651 0.5106 0.0
C690 C 0.63152 0.31852 0.56379 0.0
C691 C 0.61713 0.32035 0.55892 0.0
C692 C 0.60809 0.31054 0.52783 0.0
H693 H 0.56243 0.37988 0.6833 0.0
H694 H 0.57286 0.36036 0.63865 0.0
C695 C 0.61322 0.29871 0.50398 0.0
C696 C 0.61145 0.33235 0.58733 0.0
H697 H 0.5879 0.3401 0.68772 0.0
C698 C 0.61628 0.34624 0.5705 0.0
C699 C 0.6012 0.3301 0.63047 0.0
C700 C 0.59607 0.31542 0.65179 0.0
C701 C 0.61084 0.35796 0.59475 0.0
C702 C 0.60051 0.35569 0.63764 0.0
C703 C 0.59579 0.3418 0.65474 0.0
C704 C 0.59431 0.36755 0.66501 0.0
C705 C 0.6159 0.37262 0.57321 0.0
C706 C 0.60288 0.37796 0.69522 0.0
C707 C 0.59691 0.38905 0.72128 0.0
C708 C 0.58223 0.38977 0.71832 0.0
C709 C 0.57367 0.37932 0.68814 0.0
C710 C 0.57965 0.36826 0.66197 0.0
H711 H 0.62097 0.37228 0.53128 0.0
H712 H 0.60699 0.37919 0.57027 0.0
H713 H 0.62388 0.37791 0.60271 0.0
H714 H 0.61418 0.37746 0.69897 0.0
H715 H 0.60376 0.39698 0.74419 0.0
H716 H 0.40338 0.80663 0.02667 0.0
H717 H 0.41701 0.83004 0.03782 0.0
H718 H 0.45511 0.81251 0.98909 0.0
H719 H 0.44163 0.7894 0.97631 0.0
H720 H 0.4371 0.83689 0.11141 0.0
H721 H 0.46048 0.8487 0.90345 0.0
H722 H 0.44585 0.83498 0.91372 0.0
H723 H 0.4639 0.83126 0.92353 0.0
C724 C 0.41461 0.80786 0.01709 0.0
C725 C 0.42142 0.79612 0.0007 0.0
C726 C 0.42238 0.82124 0.02348 0.0
C727 C 0.43705 0.82313 0.01335 0.0
C728 C 0.44374 0.81149 0.99547 0.0
H729 H 0.50568 0.86216 0.18562 0.0
H730 H 0.48298 0.85042 0.15403 0.0
C731 C 0.43601 0.79819 0.98876 0.0
C732 C 0.44583 0.83662 0.02789 0.0
H733 H 0.47508 0.858 0.98369 0.0
C734 C 0.44516 0.84176 0.08296 0.0
C735 C 0.4561 0.84332 0.99058 0.0
C736 C 0.45649 0.83935 0.92936 0.0
C737 C 0.45536 0.85244 0.10318 0.0
C738 C 0.46674 0.85779 0.06792 0.0
C739 C 0.46656 0.85368 0.01129 0.0
C740 C 0.47977 0.86602 0.09046 0.0
C741 C 0.45408 0.85751 0.16276 0.0
C742 C 0.48576 0.87862 0.06458 0.0
C743 C 0.49898 0.88528 0.08203 0.0
C744 C 0.50644 0.87941 0.12551 0.0
C745 C 0.50021 0.86703 0.15223 0.0
C746 C 0.48711 0.86035 0.13457 0.0
H747 H 0.44276 0.85718 0.17513 0.0
H748 H 0.45906 0.85035 0.19151 0.0
H749 H 0.45934 0.86849 0.16848 0.0
H750 H 0.48035 0.88311 0.03008 0.0
H751 H 0.5035 0.89481 0.06058 0.0
H752 H 0.06345 0.54016 0.13129 0.0
H753 H 0.06172 0.51744 0.08191 0.0
H754 H 0.02463 0.52795 0.99406 0.0
H755 H 0.02657 0.55089 0.04188 0.0
H756 H 0.04156 0.49538 0.07991 0.0
H757 H 0.04876 0.51756 0.86543 0.0
H758 H 0.05182 0.52836 0.92749 0.0
H759 H 0.03407 0.52367 0.90164 0.0
C760 C 0.05493 0.53764 0.10138 0.0
C761 C 0.04521 0.54736 0.09011 0.0
C762 C 0.05396 0.52465 0.07321 0.0
C763 C 0.04322 0.5211 0.03345 0.0
C764 C 0.03325 0.53062 0.02336 0.0
H765 H 0.01904 0.43544 0.90735 0.0
H766 H 0.02024 0.45808 0.95717 0.0
C767 C 0.03431 0.54369 0.05102 0.0
C768 C 0.04241 0.50738 0.00307 0.0
H769 H 0.04168 0.49275 0.87206 0.0
C770 C 0.04164 0.4948 0.03445 0.0
C771 C 0.04274 0.50664 0.94376 0.0
C772 C 0.04454 0.51978 0.9076 0.0
C773 C 0.04104 0.4815 0.0082 0.0
C774 C 0.04079 0.48074 0.94888 0.0
C775 C 0.04171 0.49333 0.91752 0.0
C776 C 0.0399 0.46703 0.91835 0.0
C777 C 0.04105 0.46846 0.04439 0.0
C778 C 0.05026 0.4647 0.87846 0.0
C779 C 0.04945 0.45188 0.84916 0.0
C780 C 0.03829 0.4411 0.85937 0.0
C781 C 0.02785 0.44348 0.89896 0.0
C782 C 0.02858 0.45638 0.92778 0.0
H783 H 0.04551 0.47113 0.08669 0.0
H784 H 0.02998 0.46345 0.05002 0.0
H785 H 0.04728 0.46058 0.0247 0.0
H786 H 0.05905 0.47278 0.87028 0.0
H787 H 0.05766 0.45037 0.81893 0.0
H788 H 0.72575 0.72925 0.71593 0.0
H789 H 0.75142 0.73166 0.70199 0.0
H790 H 0.74731 0.75933 0.56094 0.0
H791 H 0.72164 0.75722 0.57529 0.0
H792 H 0.76645 0.72449 0.61093 0.0
H793 H 0.77782 0.78217 0.65398 0.0
H794 H 0.76103 0.77212 0.67088 0.0
H795 H 0.76485 0.77782 0.59999 0.0
C796 C 0.7303 0.73591 0.68208 0.0
C797 C 0.72166 0.7431 0.64688 0.0
C798 C 0.74497 0.73726 0.67416 0.0
C799 C 0.7513 0.74584 0.63097 0.0
C800 C 0.74269 0.75291 0.59532 0.0
H801 H 0.83736 0.74027 0.51123 0.0
H802 H 0.81166 0.74039 0.51771 0.0
C803 C 0.72801 0.75162 0.60338 0.0
C804 C 0.76686 0.74703 0.62253 0.0
H805 H 0.79693 0.77061 0.61965 0.0
C806 C 0.77312 0.73457 0.61283 0.0
C807 C 0.77555 0.76018 0.62563 0.0
C808 C 0.76952 0.77383 0.63871 0.0
C809 C 0.78783 0.73489 0.60604 0.0
C810 C 0.79648 0.74808 0.60779 0.0
C811 C 0.79024 0.76054 0.61769 0.0
C812 C 0.8121 0.74905 0.60179 0.0
C813 C 0.79399 0.72106 0.59862 0.0
C814 C 0.82091 0.75445 0.64596 0.0
C815 C 0.8356 0.75453 0.64217 0.0
C816 C 0.84176 0.74922 0.59408 0.0
C817 C 0.83294 0.74432 0.54905 0.0
C818 C 0.81825 0.7443 0.55278 0.0
H819 H 0.78648 0.71184 0.61233 0.0
H820 H 0.79639 0.71958 0.55357 0.0
H821 H 0.80401 0.72106 0.62269 0.0
H822 H 0.81637 0.75824 0.68403 0.0
H823 H 0.84209 0.75842 0.67754 0.0
H824 H 0.58517 0.48179 0.71846 0.0
H825 H 0.58517 0.50063 0.64848 0.0
H826 H 0.55742 0.47273 0.5431 0.0
H827 H 0.55687 0.4541 0.61397 0.0
H828 H 0.59452 0.50194 0.54591 0.0
H829 H 0.53716 0.50706 0.53888 0.0
H830 H 0.54484 0.49689 0.5923 0.0
H831 H 0.54051 0.48924 0.52434 0.0
C832 C 0.57895 0.47973 0.6806 0.0
C833 C 0.57094 0.46651 0.67183 0.0
C834 C 0.57897 0.4905 0.64063 0.0
C835 C 0.57108 0.48821 0.5909 0.0
C836 C 0.56322 0.47493 0.58183 0.0
H837 H 0.58895 0.53624 0.28427 0.0
H838 H 0.58744 0.51879 0.36005 0.0
C839 C 0.563 0.46425 0.62222 0.0
C840 C 0.57167 0.49946 0.54739 0.0
H841 H 0.55109 0.51759 0.46266 0.0
C842 C 0.58501 0.50545 0.52809 0.0
C843 C 0.55929 0.50424 0.52473 0.0
C844 C 0.54466 0.49913 0.5466 0.0
C845 C 0.58633 0.51586 0.48605 0.0
C846 C 0.57394 0.52001 0.46102 0.0
C847 C 0.56059 0.51425 0.48118 0.0
C848 C 0.57456 0.53039 0.41423 0.0
C849 C 0.601 0.52248 0.46985 0.0
C850 C 0.56729 0.54241 0.41827 0.0
C851 C 0.56784 0.55222 0.37438 0.0
C852 C 0.57578 0.55025 0.32582 0.0
C853 C 0.58289 0.53813 0.32149 0.0
C854 C 0.58214 0.5282 0.36499 0.0
H855 H 0.60871 0.52167 0.50443 0.0
H856 H 0.60471 0.51676 0.43308 0.0
H857 H 0.60107 0.53383 0.45864 0.0
H858 H 0.5613 0.5443 0.45568 0.0
H859 H 0.56225 0.56146 0.37892 0.0
H860 H 0.8346 0.28309 0.31482 0.0
H861 H 0.80983 0.28318 0.34267 0.0
H862 H 0.8143 0.25029 0.46385 0.0
H863 H 0.83907 0.25001 0.43596 0.0
H864 H 0.79057 0.24472 0.39418 0.0
H865 H 0.79351 0.2986 0.48711 0.0
H866 H 0.80088 0.29818 0.41778 0.0
H867 H 0.80904 0.28973 0.47468 0.0
C868 C 0.83036 0.27595 0.34773 0.0
C869 C 0.83881 0.26654 0.3732 0.0
C870 C 0.81623 0.27608 0.36381 0.0
C871 C 0.8103 0.26688 0.40582 0.0
C872 C 0.81871 0.25753 0.43156 0.0
H873 H 0.72711 0.26725 0.55986 0.0
H874 H 0.75262 0.2682 0.54246 0.0
C875 C 0.83286 0.2574 0.41558 0.0
C876 C 0.79513 0.26646 0.4207 0.0
H877 H 0.77037 0.28669 0.4702 0.0
C878 C 0.78616 0.25386 0.41112 0.0
C879 C 0.78945 0.27837 0.44332 0.0
C880 C 0.79872 0.29195 0.45687 0.0
C881 C 0.77158 0.25295 0.42226 0.0
C882 C 0.76582 0.26502 0.44282 0.0
C883 C 0.77483 0.27751 0.45383 0.0
C884 C 0.75043 0.26486 0.45296 0.0
C885 C 0.76247 0.23905 0.41228 0.0
C886 C 0.74081 0.26292 0.4082 0.0
C887 C 0.72625 0.26239 0.41792 0.0
C888 C 0.72106 0.26383 0.47264 0.0
C889 C 0.73076 0.26606 0.51726 0.0
C890 C 0.74533 0.26662 0.50744 0.0
H891 H 0.76891 0.23003 0.4098 0.0
H892 H 0.75448 0.23688 0.44615 0.0
H893 H 0.75673 0.23961 0.37193 0.0
H894 H 0.74457 0.26178 0.36571 0.0
H895 H 0.71907 0.26073 0.3826 0.0
H896 H 0.34804 0.26504 0.21268 0.0
H897 H 0.32215 0.26269 0.20929 0.0
H898 H 0.32265 0.23796 0.05757 0.0
H899 H 0.34855 0.23992 0.06149 0.0
H900 H 0.30361 0.27052 0.13195 0.0
H901 H 0.29671 0.21199 0.15721 0.0
H902 H 0.31355 0.22259 0.16755 0.0
H903 H 0.30733 0.21808 0.09779 0.0
C904 C 0.34266 0.25913 0.17849 0.0
C905 C 0.35034 0.25254 0.13766 0.0
C906 C 0.32786 0.25781 0.17659 0.0
C907 C 0.32046 0.24992 0.13379 0.0
C908 C 0.32813 0.24379 0.09177 0.0
H909 H 0.22964 0.25159 0.07466 0.0
H910 H 0.25548 0.25446 0.06545 0.0
C911 C 0.34293 0.24499 0.0939 0.0
C912 C 0.30474 0.24801 0.13386 0.0
H913 H 0.27596 0.22287 0.14002 0.0
C914 C 0.29755 0.26011 0.13365 0.0
C915 C 0.29687 0.23441 0.13682 0.0
C916 C 0.30399 0.22103 0.14041 0.0
C917 C 0.28269 0.259 0.1365 0.0
C918 C 0.27482 0.24539 0.13823 0.0
C919 C 0.28201 0.23329 0.13821 0.0
C920 C 0.25913 0.24343 0.14263 0.0
C921 C 0.27563 0.27242 0.13944 0.0
C922 C 0.25257 0.23586 0.18801 0.0
C923 C 0.23782 0.23401 0.19292 0.0
C924 C 0.22932 0.23974 0.15258 0.0
C925 C 0.2359 0.24717 0.10672 0.0
C926 C 0.25067 0.24889 0.10157 0.0
H927 H 0.28316 0.28165 0.15279 0.0
H928 H 0.27157 0.27479 0.09725 0.0
H929 H 0.26655 0.27123 0.1691 0.0
H930 H 0.2589 0.2315 0.22006 0.0
H931 H 0.23308 0.22823 0.22872 0.0
H932 H 0.34112 0.75881 0.1078 0.0
H933 H 0.31564 0.76068 0.10733 0.0
H934 H 0.31563 0.76002 0.92641 0.0
H935 H 0.34107 0.75799 0.9264 0.0
H936 H 0.30138 0.7819 0.05812 0.0
H937 H 0.28363 0.72886 0.96739 0.0
H938 H 0.30119 0.73344 0.99583 0.0
H939 H 0.29691 0.73945 0.9271 0.0
C940 C 0.3357 0.75899 0.06788 0.0
C941 C 0.34311 0.75818 0.01712 0.0
C942 C 0.32115 0.76008 0.06772 0.0
C943 C 0.31373 0.7603 0.01688 0.0
C944 C 0.32111 0.7596 0.96613 0.0
H945 H 0.2254 0.76591 0.93419 0.0
H946 H 0.25109 0.76535 0.93124 0.0
C947 C 0.33566 0.75851 0.96622 0.0
C948 C 0.29834 0.76156 0.01703 0.0
H949 H 0.26615 0.74452 0.97827 0.0
C950 C 0.29365 0.77372 0.04082 0.0
C951 C 0.28832 0.75088 0.99426 0.0
C952 C 0.2927 0.73736 0.97011 0.0
C953 C 0.2792 0.77556 0.0419 0.0
C954 C 0.26918 0.76484 0.01941 0.0
C955 C 0.27387 0.75273 0.99534 0.0
C956 C 0.25374 0.76584 0.0214 0.0
C957 C 0.27481 0.78905 0.06625 0.0
C958 C 0.24673 0.76624 0.07309 0.0
C959 C 0.23206 0.76657 0.07496 0.0
C960 C 0.22413 0.76641 0.0251 0.0
C961 C 0.2312 0.76608 0.97335 0.0
C962 C 0.24587 0.76574 0.97155 0.0
H963 H 0.28382 0.79764 0.06785 0.0
H964 H 0.26609 0.79281 0.0414 0.0
H965 H 0.27094 0.78699 0.10975 0.0
H966 H 0.25257 0.76604 0.11206 0.0
H967 H 0.22693 0.76674 0.1155 0.0
H968 H 0.52237 0.93468 0.38668 0.0
H969 H 0.5235 0.95511 0.44987 0.0
H970 H 0.56091 0.97433 0.36411 0.0
H971 H 0.55964 0.95416 0.29992 0.0
H972 H 0.54393 0.96493 0.52267 0.0
H973 H 0.53689 0.00664 0.36638 0.0
H974 H 0.53353 0.98797 0.35018 0.0
H975 H 0.55136 0.99687 0.34902 0.0
C976 C 0.53077 0.94331 0.38099 0.0
C977 C 0.54087 0.94284 0.33808 0.0
C978 C 0.53141 0.95497 0.41716 0.0
C979 C 0.54214 0.96636 0.41111 0.0
C980 C 0.55231 0.96585 0.36864 0.0
H981 H 0.57346 0.02768 0.66236 0.0
H982 H 0.56898 0.00739 0.59914 0.0
C983 C 0.55163 0.95425 0.3322 0.0
C984 C 0.54307 0.9785 0.45066 0.0
H985 H 0.54546 0.01463 0.4567 0.0
C986 C 0.54414 0.97579 0.5083 0.0
C987 C 0.5431 0.99266 0.43198 0.0
C988 C 0.54101 0.99621 0.37107 0.0
C989 C 0.54566 0.98687 0.54764 0.0
C990 C 0.5465 0.00107 0.52864 0.0
C991 C 0.545 0.00376 0.47117 0.0
C992 C 0.54912 0.0133 0.56751 0.0
C993 C 0.5462 0.98323 0.60918 0.0
C994 C 0.53967 0.0236 0.56955 0.0
C995 C 0.54232 0.03534 0.60508 0.0
C996 C 0.55447 0.03697 0.63925 0.0
C997 C 0.56394 0.02666 0.63697 0.0
C998 C 0.56134 0.015 0.60112 0.0
H999 H 0.54105 0.97231 0.61757 0.0
H1000 H 0.55744 0.98373 0.62258 0.0
H1001 H 0.54094 0.99079 0.63517 0.0
H1002 H 0.53022 0.02255 0.54371 0.0
H1003 H 0.53483 0.04311 0.60582 0.0
H1004 H 0.10015 0.03646 0.79973 0.0
H1005 H 0.09737 0.01784 0.87103 0.0
H1006 H 0.05685 0.03052 0.91809 0.0
H1007 H 0.05958 0.04928 0.84718 0.0
H1008 H 0.07475 0.02694 0.00941 0.0
H1009 H 0.0707 0.98047 0.86653 0.0
H1010 H 0.08596 0.99315 0.85421 0.0
H1011 H 0.0685 0.99812 0.84259 0.0
C1012 C 0.09061 0.03525 0.825 0.0
C1013 C 0.08007 0.04433 0.81767 0.0
C1014 C 0.08901 0.02455 0.86552 0.0
C1015 C 0.07682 0.02269 0.89925 0.0
C1016 C 0.0663 0.03175 0.89222 0.0
H1017 H 0.05338 0.95022 0.11808 0.0
H1018 H 0.0535 0.9688 0.04691 0.0
C1019 C 0.06788 0.04245 0.85165 0.0
C1020 C 0.07529 0.01158 0.94316 0.0
H1021 H 0.07393 0.97586 0.9636 0.0
C1022 C 0.07448 0.01576 0.99944 0.0
C1023 C 0.07477 0.99701 0.92991 0.0
C1024 C 0.07489 0.99186 0.87001 0.0
C1025 C 0.07354 0.00576 0.04303 0.0
C1026 C 0.0736 0.99124 0.0299 0.0
C1027 C 0.07402 0.98703 0.97353 0.0
C1028 C 0.07337 0.98025 0.07405 0.0
C1029 C 0.07239 0.01081 0.10272 0.0
C1030 C 0.08456 0.98049 0.11258 0.0
C1031 C 0.08454 0.9699 0.15329 0.0
C1032 C 0.07333 0.95883 0.15599 0.0
C1033 C 0.06214 0.95861 0.11724 0.0
C1034 C 0.06219 0.96921 0.0765 0.0
H1035 H 0.06873 0.0215 0.10461 0.0
H1036 H 0.06495 0.0033 0.12734 0.0
H1037 H 0.08298 0.01149 0.12292 0.0
H1038 H 0.09343 0.98877 0.1107 0.0
H1039 H 0.09335 0.97034 0.18232 0.0
loop_
_geom_bond_atom_site_label_1
_geom_bond_atom_site_label_2
_geom_bond_distance
_geom_bond_site_symmetry_2
_ccdc_geom_bond_type
O0 Cd1 2.300 . S
O0 C7 1.275 . S
Cd1 O0 2.300 . S
Cd1 O9 2.381 . S
Cd1 O10 2.378 . S
O2 Cd3 2.385 . S
O2 C7 1.255 . S
Cd3 O2 2.385 . S
Cd3 O4 2.317 . S
O4 Cd3 2.317 . S
O4 C5 1.232 . S
C5 O4 1.232 . S
C5 O6 1.218 . S
O6 C5 1.218 . S
C7 O0 1.275 . S
C7 O2 1.255 . S
C8 O9 1.258 . S
C8 O10 1.256 . S
O9 Cd1 2.381 . S
O9 C8 1.258 . S
O10 Cd1 2.378 . S
O10 C8 1.256 . S
O11 Cd12 2.300 . S
O11 C18 1.275 . S
Cd12 O11 2.300 . S
Cd12 O20 2.381 . S
Cd12 O21 2.378 . S
O13 Cd14 2.385 . S
O13 C18 1.255 . S
Cd14 O13 2.385 . S
Cd14 O15 2.317 . S
O15 Cd14 2.317 . S
O15 C16 1.232 . S
C16 O15 1.232 . S
C16 O17 1.218 . S
O17 C16 1.218 . S
C18 O11 1.275 . S
C18 O13 1.255 . S
C19 O20 1.258 . S
C19 O21 1.256 . S
O20 Cd12 2.381 . S
O20 C19 1.258 . S
O21 Cd12 2.378 . S
O21 C19 1.256 . S
O22 Cd23 2.300 . S
O22 C29 1.275 . S
Cd23 O22 2.300 . S
Cd23 O31 2.381 . S
Cd23 O32 2.378 . S
O24 Cd25 2.385 . S
O24 C29 1.255 . S
Cd25 O24 2.385 . S
Cd25 O26 2.317 . S
O26 Cd25 2.317 . S
O26 C27 1.232 . S
C27 O26 1.232 . S
C27 O28 1.218 . S
O28 C27 1.218 . S
C29 O22 1.275 . S
C29 O24 1.255 . S
C30 O31 1.258 . S
C30 O32 1.256 . S
O31 Cd23 2.381 . S
O31 C30 1.258 . S
O32 Cd23 2.378 . S
O32 C30 1.256 . S
O33 Cd34 2.300 . S
O33 C40 1.275 . S
Cd34 O33 2.300 . S
Cd34 O42 2.381 . S
Cd34 O43 2.378 . S
O35 Cd36 2.385 . S
O35 C40 1.255 . S
Cd36 O35 2.385 . S
Cd36 O37 2.317 . S
O37 Cd36 2.317 . S
O37 C38 1.232 . S
C38 O37 1.232 . S
C38 O39 1.218 . S
O39 C38 1.218 . S
C40 O33 1.275 . S
C40 O35 1.255 . S
C41 O42 1.258 . S
C41 O43 1.256 . S
O42 Cd34 2.381 . S
O42 C41 1.258 . S
O43 Cd34 2.378 . S
O43 C41 1.256 . S
O44 Cd45 2.300 . S
O44 C51 1.275 . S
Cd45 O44 2.300 . S
Cd45 O53 2.381 . S
Cd45 O54 2.378 . S
O46 Cd47 2.385 . S
O46 C51 1.255 . S
Cd47 O46 2.385 . S
Cd47 O48 2.317 . S
O48 Cd47 2.317 . S
O48 C49 1.232 . S
C49 O48 1.232 . S
C49 O50 1.218 . S
O50 C49 1.218 . S
C51 O44 1.275 . S
C51 O46 1.255 . S
C52 O53 1.258 . S
C52 O54 1.256 . S
O53 Cd45 2.381 . S
O53 C52 1.258 . S
O54 Cd45 2.378 . S
O54 C52 1.256 . S
O55 Cd56 2.300 . S
O55 C62 1.275 . S
Cd56 O55 2.300 . S
Cd56 O64 2.381 . S
Cd56 O65 2.378 . S
O57 Cd58 2.385 . S
O57 C62 1.255 . S
Cd58 O57 2.385 . S
Cd58 O59 2.317 . S
O59 Cd58 2.317 . S
O59 C60 1.232 . S
C60 O59 1.232 . S
C60 O61 1.218 . S
O61 C60 1.218 . S
C62 O55 1.275 . S
C62 O57 1.255 . S
C63 O64 1.258 . S
C63 O65 1.256 . S
O64 Cd56 2.381 . S
O64 C63 1.258 . S
O65 Cd56 2.378 . S
O65 C63 1.256 . S
O66 Cd67 2.300 . S
O66 C73 1.275 . S
Cd67 O66 2.300 . S
Cd67 O75 2.381 . S
Cd67 O76 2.378 . S
O68 Cd69 2.385 . S
O68 C73 1.255 . S
Cd69 O68 2.385 . S
Cd69 O70 2.317 . S
O70 Cd69 2.317 . S
O70 C71 1.232 . S
C71 O70 1.232 . S
C71 O72 1.218 . S
O72 C71 1.218 . S
C73 O66 1.275 . S
C73 O68 1.255 . S
C74 O75 1.258 . S
C74 O76 1.256 . S
O75 Cd67 2.381 . S
O75 C74 1.258 . S
O76 Cd67 2.378 . S
O76 C74 1.256 . S
O77 Cd78 2.300 . S
O77 C84 1.275 . S
Cd78 O77 2.300 . S
Cd78 O86 2.381 . S
Cd78 O87 2.378 . S
O79 Cd80 2.385 . S
O79 C84 1.255 . S
Cd80 O79 2.385 . S
Cd80 O81 2.317 . S
O81 Cd80 2.317 . S
O81 C82 1.232 . S
C82 O81 1.232 . S
C82 O83 1.218 . S
O83 C82 1.218 . S
C84 O77 1.275 . S
C84 O79 1.255 . S
C85 O86 1.258 . S
C85 O87 1.256 . S
O86 Cd78 2.381 . S
O86 C85 1.258 . S
O87 Cd78 2.378 . S
O87 C85 1.256 . S
O88 Cd89 2.300 . S
O88 C95 1.275 . S
Cd89 O88 2.300 . S
Cd89 O97 2.381 1_556 S
Cd89 O98 2.378 . S
O90 Cd91 2.385 . S
O90 C95 1.255 . S
Cd91 O90 2.385 . S
Cd91 O92 2.317 . S
O92 Cd91 2.317 . S
O92 C93 1.232 . S
C93 O92 1.232 . S
C93 O94 1.218 . S
O94 C93 1.218 . S
C95 O88 1.275 . S
C95 O90 1.255 . S
C96 O97 1.258 . S
C96 O98 1.256 1_554 S
O97 Cd89 2.381 1_554 S
O97 C96 1.258 . S
O98 Cd89 2.378 . S
O98 C96 1.256 1_556 S
O99 Cd100 2.300 1_554 S
O99 C106 1.275 . S
Cd100 O99 2.300 1_556 S
Cd100 O108 2.381 1_556 S
Cd100 O109 2.378 . S
O101 Cd102 2.385 . S
O101 C106 1.255 1_556 S
Cd102 O101 2.385 . S
Cd102 O103 2.317 . S
O103 Cd102 2.317 . S
O103 C104 1.232 . S
C104 O103 1.232 . S
C104 O105 1.218 . S
O105 C104 1.218 . S
C106 O99 1.275 . S
C106 O101 1.255 1_554 S
C107 O108 1.258 1_556 S
C107 O109 1.256 . S
O108 Cd100 2.381 1_554 S
O108 C107 1.258 1_554 S
O109 Cd100 2.378 . S
O109 C107 1.256 . S
O110 Cd111 2.300 1_554 S
O110 C117 1.275 1_554 S
Cd111 O110 2.300 1_556 S
Cd111 O119 2.381 1_556 S
Cd111 O120 2.378 . S
O112 Cd113 2.385 . S
O112 C117 1.255 . S
Cd113 O112 2.385 . S
Cd113 O114 2.317 . S
O114 Cd113 2.317 . S
O114 C115 1.232 . S
C115 O114 1.232 . S
C115 O116 1.218 . S
O116 C115 1.218 . S
C117 O110 1.275 1_556 S
C117 O112 1.255 . S
C118 O119 1.258 . S
C118 O120 1.256 1_554 S
O119 Cd111 2.381 1_554 S
O119 C118 1.258 . S
O120 Cd111 2.378 . S
O120 C118 1.256 1_556 S
O121 Cd122 2.300 1_554 S
O121 C128 1.275 . S
Cd122 O121 2.300 1_556 S
Cd122 O130 2.381 1_556 S
Cd122 O131 2.378 . S
O123 Cd124 2.385 . S
O123 C128 1.255 1_556 S
Cd124 O123 2.385 . S
Cd124 O125 2.317 . S
O125 Cd124 2.317 . S
O125 C126 1.232 1_556 S
C126 O125 1.232 1_554 S
C126 O127 1.218 1_554 S
O127 C126 1.218 1_556 S
C128 O121 1.275 . S
C128 O123 1.255 1_554 S
C129 O130 1.258 1_556 S
C129 O131 1.256 . S
O130 Cd122 2.381 1_554 S
O130 C129 1.258 1_554 S
O131 Cd122 2.378 . S
O131 C129 1.256 . S
O132 Cd133 2.300 . S
O132 C139 1.275 . S
Cd133 O132 2.300 . S
Cd133 O141 2.381 . S
Cd133 O142 2.378 . S
O134 Cd135 2.385 . S
O134 C139 1.255 . S
Cd135 O134 2.385 . S
Cd135 O136 2.317 . S
O136 Cd135 2.317 . S
O136 C137 1.232 . S
C137 O136 1.232 . S
C137 O138 1.218 . S
O138 C137 1.218 . S
C139 O132 1.275 . S
C139 O134 1.255 . S
C140 O141 1.258 . S
C140 O142 1.256 . S
O141 Cd133 2.381 . S
O141 C140 1.258 . S
O142 Cd133 2.378 . S
O142 C140 1.256 . S
O143 Cd144 2.300 . S
O143 C150 1.275 . S
Cd144 O143 2.300 . S
Cd144 O152 2.381 . S
Cd144 O153 2.378 . S
O145 Cd146 2.385 . S
O145 C150 1.255 . S
Cd146 O145 2.385 . S
Cd146 O147 2.317 . S
O147 Cd146 2.317 . S
O147 C148 1.232 . S
C148 O147 1.232 . S
C148 O149 1.218 . S
O149 C148 1.218 . S
C150 O143 1.275 . S
C150 O145 1.255 . S
C151 O152 1.258 . S
C151 O153 1.256 . S
O152 Cd144 2.381 . S
O152 C151 1.258 . S
O153 Cd144 2.378 . S
O153 C151 1.256 . S
O154 Cd155 2.300 . S
O154 C161 1.275 . S
Cd155 O154 2.300 . S
Cd155 O163 2.381 . S
Cd155 O164 2.378 . S
O156 Cd157 2.385 . S
O156 C161 1.255 . S
Cd157 O156 2.385 . S
Cd157 O158 2.317 . S
O158 Cd157 2.317 . S
O158 C159 1.232 . S
C159 O158 1.232 . S
C159 O160 1.218 . S
O160 C159 1.218 . S
C161 O154 1.275 . S
C161 O156 1.255 . S
C162 O163 1.258 . S
C162 O164 1.256 . S
O163 Cd155 2.381 . S
O163 C162 1.258 . S
O164 Cd155 2.378 . S
O164 C162 1.256 . S
O165 Cd166 2.300 . S
O165 C172 1.275 . S
Cd166 O165 2.300 . S
Cd166 O174 2.381 . S
Cd166 O175 2.378 . S
O167 Cd168 2.385 . S
O167 C172 1.255 . S
Cd168 O167 2.385 . S
Cd168 O169 2.317 . S
O169 Cd168 2.317 . S
O169 C170 1.232 . S
C170 O169 1.232 . S
C170 O171 1.218 . S
O171 C170 1.218 . S
C172 O165 1.275 . S
C172 O167 1.255 . S
C173 O174 1.258 . S
C173 O175 1.256 . S
O174 Cd166 2.381 . S
O174 C173 1.258 . S
O175 Cd166 2.378 . S
O175 C173 1.256 . S
H176 C184 0.927 1_556 S
H177 C186 0.930 . S
H178 C188 0.930 . S
H179 C191 0.929 . S
H180 C194 0.930 . S
H181 C196 0.960 . S
H182 C196 0.960 . S
H183 C196 0.960 . S
C184 H176 0.927 1_554 S
C184 C185 1.379 . S
C184 C186 1.385 . S
C185 C184 1.379 . S
C185 C191 1.390 . S
C186 H177 0.930 . S
C186 C184 1.385 . S
C186 C187 1.372 . S
C187 C186 1.372 . S
C187 C188 1.400 . S
C187 C192 1.490 . S
C188 H178 0.930 . S
C188 C187 1.400 . S
C188 C191 1.386 . S
H189 C205 0.930 . S
H190 C206 0.931 . S
C191 H179 0.929 . S
C191 C185 1.390 . S
C191 C188 1.386 . S
C192 C187 1.490 . S
C192 C194 1.395 . S
C192 C195 1.403 . S
H193 C199 0.930 . S
C194 H180 0.930 . S
C194 C192 1.395 . S
C194 C197 1.403 . S
C195 C192 1.403 . S
C195 C196 1.524 . S
C195 C199 1.400 . S
C196 H181 0.960 . S
C196 H182 0.960 . S
C196 H183 0.960 . S
C196 C195 1.524 . S
C197 C194 1.403 . S
C197 C198 1.392 . S
C197 C201 1.495 . S
C198 C197 1.392 . S
C198 C199 1.385 . S
C198 C200 1.478 . S
C199 H193 0.930 . S
C199 C195 1.400 . S
C199 C198 1.385 . S
C200 C198 1.478 . S
C200 C202 1.381 . S
C200 C206 1.383 . S
C201 C197 1.495 . S
C201 H207 0.959 . S
C201 H208 0.961 . S
C201 H209 0.960 . S
C202 C200 1.381 . S
C202 C203 1.394 . S
C202 H210 0.930 . S
C203 C202 1.394 . S
C203 C204 1.383 . S
C203 H211 0.929 . S
C204 C203 1.383 . S
C204 C205 1.377 . S
C205 H189 0.930 . S
C205 C204 1.377 . S
C205 C206 1.379 . S
C206 H190 0.931 . S
C206 C200 1.383 . S
C206 C205 1.379 . S
H207 C201 0.959 . S
H208 C201 0.961 . S
H209 C201 0.960 . S
H210 C202 0.930 . S
H211 C203 0.929 . S
H212 C220 0.929 . S
H213 C222 0.930 . S
H214 C224 0.930 . S
H215 C227 0.929 . S
H216 C230 0.930 . S
H217 C232 0.960 . S
H218 C232 0.960 . S
H219 C232 0.960 . S
C220 H212 0.929 . S
C220 C221 1.377 . S
C220 C222 1.384 . S
C221 C220 1.377 . S
C221 C227 1.390 . S
C222 H213 0.930 . S
C222 C220 1.384 . S
C222 C223 1.372 . S
C223 C222 1.372 . S
C223 C224 1.400 . S
C223 C228 1.490 . S
C224 H214 0.930 . S
C224 C223 1.400 . S
C224 C227 1.386 . S
H225 C241 0.930 . S
H226 C242 0.931 . S
C227 H215 0.929 . S
C227 C221 1.390 . S
C227 C224 1.386 . S
C228 C223 1.490 . S
C228 C230 1.395 . S
C228 C231 1.403 . S
H229 C235 0.930 . S
C230 H216 0.930 . S
C230 C228 1.395 . S
C230 C233 1.403 . S
C231 C228 1.403 . S
C231 C232 1.524 . S
C231 C235 1.400 . S
C232 H217 0.960 . S
C232 H218 0.960 . S
C232 H219 0.960 . S
C232 C231 1.524 . S
C233 C230 1.403 . S
C233 C234 1.392 . S
C233 C237 1.495 . S
C234 C233 1.392 . S
C234 C235 1.385 . S
C234 C236 1.478 . S
C235 H229 0.930 . S
C235 C231 1.400 . S
C235 C234 1.385 . S
C236 C234 1.478 . S
C236 C238 1.381 . S
C236 C242 1.383 . S
C237 C233 1.495 . S
C237 H243 0.959 . S
C237 H244 0.961 . S
C237 H245 0.960 . S
C238 C236 1.381 . S
C238 C239 1.394 . S
C238 H246 0.930 . S
C239 C238 1.394 . S
C239 C240 1.383 . S
C239 H247 0.929 . S
C240 C239 1.383 . S
C240 C241 1.377 . S
C241 H225 0.930 . S
C241 C240 1.377 . S
C241 C242 1.379 . S
C242 H226 0.931 . S
C242 C236 1.383 . S
C242 C241 1.379 . S
H243 C237 0.959 . S
H244 C237 0.961 . S
H245 C237 0.960 . S
H246 C238 0.930 . S
H247 C239 0.929 . S
H248 C256 0.929 . S
H249 C258 0.930 . S
H250 C260 0.930 . S
H251 C263 0.929 1_554 S
H252 C266 0.930 . S
H253 C268 0.967 . S
H254 C268 0.963 . S
H255 C268 0.967 . S
C256 H248 0.929 . S
C256 C257 1.377 . S
C256 C258 1.384 . S
C257 C256 1.377 . S
C257 C263 1.390 . S
C258 H249 0.930 . S
C258 C256 1.384 . S
C258 C259 1.372 . S
C259 C258 1.372 . S
C259 C260 1.400 . S
C259 C264 1.490 . S
C260 H250 0.930 . S
C260 C259 1.400 . S
C260 C263 1.386 . S
H261 C277 0.930 . S
H262 C278 0.931 . S
C263 H251 0.929 1_556 S
C263 C257 1.390 . S
C263 C260 1.386 . S
C264 C259 1.490 . S
C264 C266 1.395 . S
C264 C267 1.403 . S
H265 C271 0.930 . S
C266 H252 0.930 . S
C266 C264 1.395 . S
C266 C269 1.403 . S
C267 C264 1.403 . S
C267 C268 1.507 1_556 S
C267 C271 1.400 . S
C268 H253 0.967 . S
C268 H254 0.963 . S
C268 H255 0.967 . S
C268 C267 1.507 1_554 S
C269 C266 1.403 . S
C269 C270 1.392 . S
C269 C273 1.495 . S
C270 C269 1.392 . S
C270 C271 1.385 . S
C270 C272 1.478 . S
C271 H265 0.930 . S
C271 C267 1.400 . S
C271 C270 1.385 . S
C272 C270 1.478 . S
C272 C274 1.381 . S
C272 C278 1.383 . S
C273 C269 1.495 . S
C273 H279 0.959 . S
C273 H280 0.961 . S
C273 H281 0.960 . S
C274 C272 1.381 . S
C274 C275 1.394 . S
C274 H282 0.930 . S
C275 C274 1.394 . S
C275 C276 1.383 . S
C275 H283 0.929 . S
C276 C275 1.383 . S
C276 C277 1.377 . S
C277 H261 0.930 . S
C277 C276 1.377 . S
C277 C278 1.379 . S
C278 H262 0.931 . S
C278 C272 1.383 . S
C278 C277 1.379 . S
H279 C273 0.959 . S
H280 C273 0.961 . S
H281 C273 0.960 . S
H282 C274 0.930 . S
H283 C275 0.929 . S
H284 C292 0.929 . S
H285 C294 0.930 . S
H286 C296 0.930 . S
H287 C299 0.929 . S
H288 C302 0.930 . S
H289 C304 0.960 . S
H290 C304 0.960 . S
H291 C304 0.960 . S
C292 H284 0.929 . S
C292 C293 1.377 . S
C292 C294 1.384 . S
C293 C292 1.377 . S
C293 C299 1.390 . S
C294 H285 0.930 . S
C294 C292 1.384 . S
C294 C295 1.372 . S
C295 C294 1.372 . S
C295 C296 1.400 . S
C295 C300 1.490 . S
C296 H286 0.930 . S
C296 C295 1.400 . S
C296 C299 1.386 . S
H297 C313 0.930 . S
H298 C314 0.960 . S
C299 H287 0.929 . S
C299 C293 1.390 . S
C299 C296 1.386 . S
C300 C295 1.490 . S
C300 C302 1.395 . S
C300 C303 1.403 . S
H301 C307 0.930 . S
C302 H288 0.930 . S
C302 C300 1.395 . S
C302 C305 1.403 . S
C303 C300 1.403 . S
C303 C304 1.524 . S
C303 C307 1.400 . S
C304 H289 0.960 . S
C304 H290 0.960 . S
C304 H291 0.960 . S
C304 C303 1.524 . S
C305 C302 1.403 . S
C305 C306 1.392 . S
C305 C309 1.495 1_655 S
C306 C305 1.392 . S
C306 C307 1.385 . S
C306 C308 1.478 1_655 S
C307 H301 0.930 . S
C307 C303 1.400 . S
C307 C306 1.385 . S
C308 C306 1.478 1_455 S
C308 C310 1.381 . S
C308 C314 1.383 . S
C309 C305 1.495 1_455 S
C309 H315 0.959 . S
C309 H316 0.961 . S
C309 H317 0.960 . S
C310 C308 1.381 . S
C310 C311 1.394 . S
C310 H318 0.930 . S
C311 C310 1.394 . S
C311 C312 1.383 . S
C311 H319 0.929 . S
C312 C311 1.383 . S
C312 C313 1.377 . S
C313 H297 0.930 . S
C313 C312 1.377 . S
C313 C314 1.379 . S
C314 H298 0.960 . S
C314 C308 1.383 . S
C314 C313 1.379 . S
H315 C309 0.959 . S
H316 C309 0.961 . S
H317 C309 0.960 . S
H318 C310 0.930 . S
H319 C311 0.929 . S
H320 C328 0.929 . S
H321 C330 0.930 . S
H322 C332 0.930 . S
H323 C335 0.929 . S
H324 C338 0.930 . S
H325 C340 0.960 . S
H326 C340 0.960 . S
H327 C340 0.960 . S
C328 H320 0.929 . S
C328 C329 1.377 . S
C328 C330 1.384 . S
C329 C328 1.377 . S
C329 C335 1.390 . S
C330 H321 0.930 . S
C330 C328 1.384 . S
C330 C331 1.372 . S
C331 C330 1.372 . S
C331 C332 1.400 . S
C331 C336 1.490 . S
C332 H322 0.930 . S
C332 C331 1.400 . S
C332 C335 1.386 . S
H333 C349 0.930 . S
H334 C350 0.931 . S
C335 H323 0.929 . S
C335 C329 1.390 . S
C335 C332 1.386 . S
C336 C331 1.490 . S
C336 C338 1.395 . S
C336 C339 1.403 . S
H337 C343 0.930 . S
C338 H324 0.930 . S
C338 C336 1.395 . S
C338 C341 1.403 . S
C339 C336 1.403 . S
C339 C340 1.524 . S
C339 C343 1.400 . S
C340 H325 0.960 . S
C340 H326 0.960 . S
C340 H327 0.960 . S
C340 C339 1.524 . S
C341 C338 1.403 . S
C341 C342 1.392 . S
C341 C345 1.495 . S
C342 C341 1.392 . S
C342 C343 1.385 . S
C342 C344 1.478 . S
C343 H337 0.930 . S
C343 C339 1.400 . S
C343 C342 1.385 . S
C344 C342 1.478 . S
C344 C346 1.381 . S
C344 C350 1.383 . S
C345 C341 1.495 . S
C345 H351 0.959 . S
C345 H352 0.961 . S
C345 H353 0.960 . S
C346 C344 1.381 . S
C346 C347 1.394 1_556 S
C346 H354 0.930 1_556 S
C347 C346 1.394 1_554 S
C347 C348 1.383 1_554 S
C347 H355 0.929 . S
C348 C347 1.383 1_556 S
C348 C349 1.377 . S
C349 H333 0.930 . S
C349 C348 1.377 . S
C349 C350 1.379 . S
C350 H334 0.931 . S
C350 C344 1.383 . S
C350 C349 1.379 . S
H351 C345 0.959 . S
H352 C345 0.961 . S
H353 C345 0.960 . S
H354 C346 0.930 1_554 S
H355 C347 0.929 . S
H356 C364 0.910 1_655 S
H357 C366 0.930 . S
H358 C368 0.930 . S
H359 C371 0.929 . S
H360 C374 0.930 . S
H361 C376 0.960 . S
H362 C376 0.960 . S
H363 C376 0.960 . S
C364 H356 0.910 1_455 S
C364 C365 1.439 . S
C364 C366 1.346 1_455 S
C365 C364 1.439 . S
C365 C371 1.390 . S
C366 H357 0.930 . S
C366 C364 1.346 1_655 S
C366 C367 1.372 . S
C367 C366 1.372 . S
C367 C368 1.400 1_655 S
C367 C372 1.490 . S
C368 H358 0.930 . S
C368 C367 1.400 1_455 S
C368 C371 1.386 . S
H369 C385 0.930 . S
H370 C386 0.931 . S
C371 H359 0.929 . S
C371 C365 1.390 . S
C371 C368 1.386 . S
C372 C367 1.490 . S
C372 C374 1.395 . S
C372 C375 1.403 . S
H373 C379 0.930 . S
C374 H360 0.930 . S
C374 C372 1.395 . S
C374 C377 1.403 . S
C375 C372 1.403 . S
C375 C376 1.524 . S
C375 C379 1.400 . S
C376 H361 0.960 . S
C376 H362 0.960 . S
C376 H363 0.960 . S
C376 C375 1.524 . S
C377 C374 1.403 . S
C377 C378 1.392 . S
C377 C381 1.495 . S
C378 C377 1.392 . S
C378 C379 1.385 . S
C378 C380 1.478 . S
C379 H373 0.930 . S
C379 C375 1.400 . S
C379 C378 1.385 . S
C380 C378 1.478 . S
C380 C382 1.381 . S
C380 C386 1.383 . S
C381 C377 1.495 . S
C381 H387 0.959 . S
C381 H388 0.961 . S
C381 H389 0.960 . S
C382 C380 1.381 . S
C382 C383 1.394 . S
C382 H390 0.930 . S
C383 C382 1.394 . S
C383 C384 1.383 . S
C383 H391 0.929 . S
C384 C383 1.383 . S
C384 C385 1.377 . S
C385 H369 0.930 . S
C385 C384 1.377 . S
C385 C386 1.379 . S
C386 H370 0.931 . S
C386 C380 1.383 . S
C386 C385 1.379 . S
H387 C381 0.959 . S
H388 C381 0.961 . S
H389 C381 0.960 . S
H390 C382 0.930 . S
H391 C383 0.929 . S
H392 C400 0.929 1_556 S
H393 C402 0.930 . S
H394 C404 0.930 . S
H395 C407 0.929 . S
H396 C410 0.930 . S
H397 C412 0.960 . S
H398 C412 0.960 . S
H399 C412 0.960 . S
C400 H392 0.929 1_554 S
C400 C401 1.377 . S
C400 C402 1.384 . S
C401 C400 1.377 . S
C401 C407 1.390 . S
C402 H393 0.930 . S
C402 C400 1.384 . S
C402 C403 1.372 . S
C403 C402 1.372 . S
C403 C404 1.400 . S
C403 C408 1.490 . S
C404 H394 0.930 . S
C404 C403 1.400 . S
C404 C407 1.386 . S
H405 C421 0.930 . S
H406 C422 0.931 . S
C407 H395 0.929 . S
C407 C401 1.390 . S
C407 C404 1.386 . S
C408 C403 1.490 . S
C408 C410 1.395 . S
C408 C411 1.403 . S
H409 C415 0.930 . S
C410 H396 0.930 . S
C410 C408 1.395 . S
C410 C413 1.403 . S
C411 C408 1.403 . S
C411 C412 1.524 . S
C411 C415 1.400 . S
C412 H397 0.960 . S
C412 H398 0.960 . S
C412 H399 0.960 . S
C412 C411 1.524 . S
C413 C410 1.403 . S
C413 C414 1.392 . S
C413 C417 1.495 . S
C414 C413 1.392 . S
C414 C415 1.385 . S
C414 C416 1.478 . S
C415 H409 0.930 . S
C415 C411 1.400 . S
C415 C414 1.385 . S
C416 C414 1.478 . S
C416 C418 1.381 . S
C416 C422 1.383 . S
C417 C413 1.495 . S
C417 H423 0.959 . S
C417 H424 0.961 . S
C417 H425 0.960 . S
C418 C416 1.381 . S
C418 C419 1.394 . S
C418 H426 0.930 . S
C419 C418 1.394 . S
C419 C420 1.383 . S
C419 H427 0.929 . S
C420 C419 1.383 . S
C420 C421 1.377 . S
C421 H405 0.930 . S
C421 C420 1.377 . S
C421 C422 1.379 . S
C422 H406 0.931 . S
C422 C416 1.383 . S
C422 C421 1.379 . S
H423 C417 0.959 . S
H424 C417 0.961 . S
H425 C417 0.960 . S
H426 C418 0.930 . S
H427 C419 0.929 . S
H428 C436 0.929 . S
H429 C438 0.930 . S
H430 C440 0.930 . S
H431 C443 0.929 . S
H432 C446 0.930 . S
H433 C448 0.960 . S
H434 C448 0.960 . S
H435 C448 0.960 . S
C436 H428 0.929 . S
C436 C437 1.377 . S
C436 C438 1.384 . S
C437 C436 1.377 . S
C437 C443 1.390 . S
C438 H429 0.930 . S
C438 C436 1.384 . S
C438 C439 1.372 . S
C439 C438 1.372 . S
C439 C440 1.400 . S
C439 C444 1.490 . S
C440 H430 0.930 . S
C440 C439 1.400 . S
C440 C443 1.386 . S
H441 C457 0.930 . S
H442 C458 0.931 . S
C443 H431 0.929 . S
C443 C437 1.390 . S
C443 C440 1.386 . S
C444 C439 1.490 . S
C444 C446 1.395 . S
C444 C447 1.403 . S
H445 C451 0.930 . S
C446 H432 0.930 . S
C446 C444 1.395 . S
C446 C449 1.403 . S
C447 C444 1.403 . S
C447 C448 1.524 . S
C447 C451 1.400 . S
C448 H433 0.960 . S
C448 H434 0.960 . S
C448 H435 0.960 . S
C448 C447 1.524 . S
C449 C446 1.403 . S
C449 C450 1.392 . S
C449 C453 1.495 . S
C450 C449 1.392 . S
C450 C451 1.385 . S
C450 C452 1.478 . S
C451 H445 0.930 . S
C451 C447 1.400 . S
C451 C450 1.385 . S
C452 C450 1.478 . S
C452 C454 1.381 . S
C452 C458 1.383 . S
C453 C449 1.495 . S
C453 H459 0.959 . S
C453 H460 0.961 . S
C453 H461 0.960 . S
C454 C452 1.381 . S
C454 C455 1.394 . S
C454 H462 0.930 . S
C455 C454 1.394 . S
C455 C456 1.383 . S
C455 H463 0.929 . S
C456 C455 1.383 . S
C456 C457 1.377 . S
C457 H441 0.930 . S
C457 C456 1.377 . S
C457 C458 1.379 . S
C458 H442 0.931 . S
C458 C452 1.383 . S
C458 C457 1.379 . S
H459 C453 0.959 . S
H460 C453 0.961 . S
H461 C453 0.960 . S
H462 C454 0.930 . S
H463 C455 0.929 . S
H464 C472 0.929 . S
H465 C474 0.930 . S
H466 C476 0.930 . S
H467 C479 0.906 1_655 S
H468 C482 0.930 . S
H469 C484 0.960 . S
H470 C484 0.960 . S
H471 C484 0.960 . S
C472 H464 0.929 . S
C472 C473 1.377 . S
C472 C474 1.384 . S
C473 C472 1.377 . S
C473 C479 1.463 . S
C474 H465 0.930 . S
C474 C472 1.384 . S
C474 C475 1.372 1_455 S
C475 C474 1.372 1_655 S
C475 C476 1.400 . S
C475 C480 1.490 . S
C476 H466 0.930 . S
C476 C475 1.400 . S
C476 C479 1.342 1_655 S
H477 C493 0.930 . S
H478 C494 0.931 . S
C479 H467 0.906 1_455 S
C479 C473 1.463 . S
C479 C476 1.342 1_455 S
C480 C475 1.490 . S
C480 C482 1.395 . S
C480 C483 1.403 . S
H481 C487 0.930 . S
C482 H468 0.930 . S
C482 C480 1.395 . S
C482 C485 1.403 . S
C483 C480 1.403 . S
C483 C484 1.524 . S
C483 C487 1.400 . S
C484 H469 0.960 . S
C484 H470 0.960 . S
C484 H471 0.960 . S
C484 C483 1.524 . S
C485 C482 1.403 . S
C485 C486 1.392 . S
C485 C489 1.495 . S
C486 C485 1.392 . S
C486 C487 1.385 . S
C486 C488 1.478 . S
C487 H481 0.930 . S
C487 C483 1.400 . S
C487 C486 1.385 . S
C488 C486 1.478 . S
C488 C490 1.381 . S
C488 C494 1.383 . S
C489 C485 1.495 . S
C489 H495 0.959 . S
C489 H496 0.961 . S
C489 H497 0.960 . S
C490 C488 1.381 . S
C490 C491 1.394 . S
C490 H498 0.930 . S
C491 C490 1.394 . S
C491 C492 1.383 . S
C491 H499 0.929 . S
C492 C491 1.383 . S
C492 C493 1.377 . S
C493 H477 0.930 . S
C493 C492 1.377 . S
C493 C494 1.379 . S
C494 H478 0.931 . S
C494 C488 1.383 . S
C494 C493 1.379 . S
H495 C489 0.959 . S
H496 C489 0.961 . S
H497 C489 0.960 . S
H498 C490 0.930 . S
H499 C491 0.929 . S
H500 C508 0.929 . S
H501 C510 0.930 . S
H502 C512 0.930 . S
H503 C515 0.929 . S
H504 C518 0.930 . S
H505 C520 0.960 . S
H506 C520 0.960 . S
H507 C520 0.960 . S
C508 H500 0.929 . S
C508 C509 1.377 . S
C508 C510 1.384 . S
C509 C508 1.377 . S
C509 C515 1.390 . S
C510 H501 0.930 . S
C510 C508 1.384 . S
C510 C511 1.372 . S
C511 C510 1.372 . S
C511 C512 1.400 . S
C511 C516 1.490 . S
C512 H502 0.930 . S
C512 C511 1.400 . S
C512 C515 1.386 . S
H513 C529 0.930 . S
H514 C530 0.931 . S
C515 H503 0.929 . S
C515 C509 1.390 . S
C515 C512 1.386 . S
C516 C511 1.490 . S
C516 C518 1.395 . S
C516 C519 1.403 . S
H517 C523 0.930 . S
C518 H504 0.930 . S
C518 C516 1.395 . S
C518 C521 1.403 . S
C519 C516 1.403 . S
C519 C520 1.524 . S
C519 C523 1.400 . S
C520 H505 0.960 . S
C520 H506 0.960 . S
C520 H507 0.960 . S
C520 C519 1.524 . S
C521 C518 1.403 . S
C521 C522 1.392 . S
C521 C525 1.495 . S
C522 C521 1.392 . S
C522 C523 1.385 . S
C522 C524 1.478 . S
C523 H517 0.930 . S
C523 C519 1.400 . S
C523 C522 1.385 . S
C524 C522 1.478 . S
C524 C526 1.381 . S
C524 C530 1.383 . S
C525 C521 1.495 . S
C525 H531 0.959 . S
C525 H532 0.961 . S
C525 H533 0.960 1_556 S
C526 C524 1.381 . S
C526 C527 1.394 . S
C526 H534 0.930 1_556 S
C527 C526 1.394 . S
C527 C528 1.383 . S
C527 H535 0.929 1_556 S
C528 C527 1.383 . S
C528 C529 1.377 . S
C529 H513 0.930 . S
C529 C528 1.377 . S
C529 C530 1.379 . S
C530 H514 0.931 . S
C530 C524 1.383 . S
C530 C529 1.379 . S
H531 C525 0.959 . S
H532 C525 0.961 . S
H533 C525 0.960 1_554 S
H534 C526 0.930 1_554 S
H535 C527 0.929 1_554 S
H536 C544 0.929 . S
H537 C546 0.930 . S
H538 C548 0.930 . S
H539 C551 0.929 . S
H540 C554 0.930 . S
H541 C556 0.960 . S
H542 C556 0.960 . S
H543 C556 0.960 . S
C544 H536 0.929 . S
C544 C545 1.377 . S
C544 C546 1.384 . S
C545 C544 1.377 . S
C545 C551 1.390 . S
C546 H537 0.930 . S
C546 C544 1.384 . S
C546 C547 1.372 . S
C547 C546 1.372 . S
C547 C548 1.400 . S
C547 C552 1.490 . S
C548 H538 0.930 . S
C548 C547 1.400 . S
C548 C551 1.386 . S
H549 C565 0.930 . S
H550 C566 0.931 . S
C551 H539 0.929 . S
C551 C545 1.390 . S
C551 C548 1.386 . S
C552 C547 1.490 . S
C552 C554 1.395 . S
C552 C555 1.403 . S
H553 C559 0.930 . S
C554 H540 0.930 . S
C554 C552 1.395 . S
C554 C557 1.403 . S
C555 C552 1.403 . S
C555 C556 1.524 . S
C555 C559 1.400 . S
C556 H541 0.960 . S
C556 H542 0.960 . S
C556 H543 0.960 . S
C556 C555 1.524 . S
C557 C554 1.403 . S
C557 C558 1.392 . S
C557 C561 1.495 . S
C558 C557 1.392 . S
C558 C559 1.385 . S
C558 C560 1.478 . S
C559 H553 0.930 . S
C559 C555 1.400 . S
C559 C558 1.385 . S
C560 C558 1.478 . S
C560 C562 1.381 . S
C560 C566 1.383 . S
C561 C557 1.495 . S
C561 H567 0.959 . S
C561 H568 0.961 . S
C561 H569 0.960 . S
C562 C560 1.381 . S
C562 C563 1.394 . S
C562 H570 0.930 . S
C563 C562 1.394 . S
C563 C564 1.383 . S
C563 H571 0.929 . S
C564 C563 1.383 . S
C564 C565 1.377 . S
C565 H549 0.930 . S
C565 C564 1.377 . S
C565 C566 1.379 . S
C566 H550 0.931 . S
C566 C560 1.383 . S
C566 C565 1.379 . S
H567 C561 0.959 . S
H568 C561 0.961 . S
H569 C561 0.960 . S
H570 C562 0.930 . S
H571 C563 0.929 . S
H572 C580 0.929 . S
H573 C582 0.930 . S
H574 C584 0.930 . S
H575 C587 0.929 . S
H576 C590 0.930 . S
H577 C592 0.960 . S
H578 C592 0.960 . S
H579 C592 0.960 . S
C580 H572 0.929 . S
C580 C581 1.377 . S
C580 C582 1.384 . S
C581 C580 1.377 . S
C581 C587 1.390 . S
C582 H573 0.930 . S
C582 C580 1.384 . S
C582 C583 1.372 . S
C583 C582 1.372 . S
C583 C584 1.400 . S
C583 C588 1.490 . S
C584 H574 0.930 . S
C584 C583 1.400 . S
C584 C587 1.386 . S
H585 C601 0.930 1_556 S
H586 C602 0.931 . S
C587 H575 0.929 . S
C587 C581 1.390 . S
C587 C584 1.386 . S
C588 C583 1.490 . S
C588 C590 1.395 . S
C588 C591 1.403 . S
H589 C595 0.930 . S
C590 H576 0.930 . S
C590 C588 1.395 . S
C590 C593 1.403 . S
C591 C588 1.403 . S
C591 C592 1.524 . S
C591 C595 1.400 . S
C592 H577 0.960 . S
C592 H578 0.960 . S
C592 H579 0.960 . S
C592 C591 1.524 . S
C593 C590 1.403 . S
C593 C594 1.392 . S
C593 C597 1.495 . S
C594 C593 1.392 . S
C594 C595 1.385 . S
C594 C596 1.478 . S
C595 H589 0.930 . S
C595 C591 1.400 . S
C595 C594 1.385 . S
C596 C594 1.478 . S
C596 C598 1.381 . S
C596 C602 1.383 . S
C597 C593 1.495 . S
C597 H603 0.959 . S
C597 H604 0.961 . S
C597 H605 0.960 . S
C598 C596 1.381 . S
C598 C599 1.394 . S
C598 H606 0.930 . S
C599 C598 1.394 . S
C599 C600 1.383 . S
C599 H607 0.929 . S
C600 C599 1.383 . S
C600 C601 1.377 . S
C601 H585 0.930 1_554 S
C601 C600 1.377 . S
C601 C602 1.379 . S
C602 H586 0.931 . S
C602 C596 1.383 . S
C602 C601 1.379 . S
H603 C597 0.959 . S
H604 C597 0.961 . S
H605 C597 0.960 . S
H606 C598 0.930 . S
H607 C599 0.929 . S
H608 C616 0.929 . S
H609 C618 0.930 . S
H610 C620 0.930 . S
H611 C623 0.929 . S
H612 C626 0.930 . S
H613 C628 0.960 . S
H614 C628 0.960 . S
H615 C628 0.960 . S
C616 H608 0.929 . S
C616 C617 1.377 . S
C616 C618 1.384 1_455 S
C617 C616 1.377 . S
C617 C623 1.390 . S
C618 H609 0.930 . S
C618 C616 1.384 1_655 S
C618 C619 1.372 . S
C619 C618 1.372 . S
C619 C620 1.400 1_655 S
C619 C624 1.490 . S
C620 H610 0.930 . S
C620 C619 1.400 1_455 S
C620 C623 1.386 . S
H621 C637 0.930 . S
H622 C638 0.931 . S
C623 H611 0.929 . S
C623 C617 1.390 . S
C623 C620 1.386 . S
C624 C619 1.490 . S
C624 C626 1.395 . S
C624 C627 1.403 . S
H625 C631 0.930 . S
C626 H612 0.930 . S
C626 C624 1.395 . S
C626 C629 1.403 . S
C627 C624 1.403 . S
C627 C628 1.524 1_655 S
C627 C631 1.400 . S
C628 H613 0.960 . S
C628 H614 0.960 . S
C628 H615 0.960 . S
C628 C627 1.524 1_455 S
C629 C626 1.403 . S
C629 C630 1.392 . S
C629 C633 1.495 . S
C630 C629 1.392 . S
C630 C631 1.385 . S
C630 C632 1.478 . S
C631 H625 0.930 . S
C631 C627 1.400 . S
C631 C630 1.385 . S
C632 C630 1.478 . S
C632 C634 1.381 . S
C632 C638 1.383 . S
C633 C629 1.495 . S
C633 H639 0.959 . S
C633 H640 0.961 . S
C633 H641 0.960 . S
C634 C632 1.381 . S
C634 C635 1.394 . S
C634 H642 0.930 . S
C635 C634 1.394 . S
C635 C636 1.383 . S
C635 H643 0.929 . S
C636 C635 1.383 . S
C636 C637 1.377 . S
C637 H621 0.930 . S
C637 C636 1.377 . S
C637 C638 1.379 . S
C638 H622 0.931 . S
C638 C632 1.383 . S
C638 C637 1.379 . S
H639 C633 0.959 . S
H640 C633 0.961 . S
H641 C633 0.960 . S
H642 C634 0.930 . S
H643 C635 0.929 . S
H644 C652 0.929 . S
H645 C654 0.930 . S
H646 C656 0.930 . S
H647 C659 0.929 . S
H648 C662 0.930 . S
H649 C664 0.960 . S
H650 C664 0.960 . S
H651 C664 0.960 . S
C652 H644 0.929 . S
C652 C653 1.377 . S
C652 C654 1.384 . S
C653 C652 1.377 . S
C653 C659 1.390 . S
C654 H645 0.930 . S
C654 C652 1.384 . S
C654 C655 1.372 . S
C655 C654 1.372 . S
C655 C656 1.400 . S
C655 C660 1.490 . S
C656 H646 0.930 . S
C656 C655 1.400 . S
C656 C659 1.386 . S
H657 C673 0.930 . S
H658 C674 0.931 . S
C659 H647 0.929 . S
C659 C653 1.390 . S
C659 C656 1.386 . S
C660 C655 1.490 . S
C660 C662 1.395 . S
C660 C663 1.403 . S
H661 C667 0.930 . S
C662 H648 0.930 . S
C662 C660 1.395 . S
C662 C665 1.403 . S
C663 C660 1.403 . S
C663 C664 1.524 . S
C663 C667 1.400 . S
C664 H649 0.960 . S
C664 H650 0.960 . S
C664 H651 0.960 . S
C664 C663 1.524 . S
C665 C662 1.403 . S
C665 C666 1.392 . S
C665 C669 1.495 1_556 S
C666 C665 1.392 . S
C666 C667 1.385 . S
C666 C668 1.478 . S
C667 H661 0.930 . S
C667 C663 1.400 . S
C667 C666 1.385 . S
C668 C666 1.478 . S
C668 C670 1.381 . S
C668 C674 1.383 . S
C669 C665 1.495 1_554 S
C669 H675 0.959 . S
C669 H676 0.961 . S
C669 H677 0.960 . S
C670 C668 1.381 . S
C670 C671 1.394 . S
C670 H678 0.930 . S
C671 C670 1.394 . S
C671 C672 1.383 . S
C671 H679 0.929 1_556 S
C672 C671 1.383 . S
C672 C673 1.377 . S
C673 H657 0.930 . S
C673 C672 1.377 . S
C673 C674 1.379 . S
C674 H658 0.931 . S
C674 C668 1.383 . S
C674 C673 1.379 . S
H675 C669 0.959 . S
H676 C669 0.961 . S
H677 C669 0.960 . S
H678 C670 0.930 . S
H679 C671 0.929 1_554 S
H680 C688 0.929 . S
H681 C690 0.930 . S
H682 C692 0.930 . S
H683 C695 0.929 . S
H684 C698 0.930 . S
H685 C700 0.960 . S
H686 C700 0.960 . S
H687 C700 0.960 . S
C688 H680 0.929 . S
C688 C689 1.377 . S
C688 C690 1.384 . S
C689 C688 1.377 . S
C689 C695 1.390 . S
C690 H681 0.930 . S
C690 C688 1.384 . S
C690 C691 1.372 . S
C691 C690 1.372 . S
C691 C692 1.400 . S
C691 C696 1.490 . S
C692 H682 0.930 . S
C692 C691 1.400 . S
C692 C695 1.386 . S
H693 C709 0.930 . S
H694 C710 0.931 . S
C695 H683 0.929 . S
C695 C689 1.390 . S
C695 C692 1.386 . S
C696 C691 1.490 . S
C696 C698 1.395 . S
C696 C699 1.403 . S
H697 C703 0.930 . S
C698 H684 0.930 . S
C698 C696 1.395 . S
C698 C701 1.403 . S
C699 C696 1.403 . S
C699 C700 1.524 . S
C699 C703 1.400 . S
C700 H685 0.960 . S
C700 H686 0.960 . S
C700 H687 0.960 . S
C700 C699 1.524 . S
C701 C698 1.403 . S
C701 C702 1.392 . S
C701 C705 1.495 . S
C702 C701 1.392 . S
C702 C703 1.385 . S
C702 C704 1.478 . S
C703 H697 0.930 . S
C703 C699 1.400 . S
C703 C702 1.385 . S
C704 C702 1.478 . S
C704 C706 1.381 . S
C704 C710 1.383 . S
C705 C701 1.495 . S
C705 H711 0.959 . S
C705 H712 0.961 . S
C705 H713 0.960 . S
C706 C704 1.381 . S
C706 C707 1.394 . S
C706 H714 0.930 . S
C707 C706 1.394 . S
C707 C708 1.383 . S
C707 H715 0.929 . S
C708 C707 1.383 . S
C708 C709 1.377 . S
C709 H693 0.930 . S
C709 C708 1.377 . S
C709 C710 1.379 . S
C710 H694 0.931 . S
C710 C704 1.383 . S
C710 C709 1.379 . S
H711 C705 0.959 . S
H712 C705 0.961 . S
H713 C705 0.960 . S
H714 C706 0.930 . S
H715 C707 0.929 . S
H716 C724 0.929 . S
H717 C726 0.930 . S
H718 C728 0.930 . S
H719 C731 0.929 . S
H720 C734 0.930 . S
H721 C736 0.960 1_556 S
H722 C736 0.960 1_556 S
H723 C736 0.960 . S
C724 H716 0.929 . S
C724 C725 1.377 . S
C724 C726 1.384 . S
C725 C724 1.377 . S
C725 C731 1.390 . S
C726 H717 0.930 . S
C726 C724 1.384 . S
C726 C727 1.372 . S
C727 C726 1.372 . S
C727 C728 1.400 . S
C727 C732 1.490 . S
C728 H718 0.930 . S
C728 C727 1.400 . S
C728 C731 1.386 . S
H729 C745 0.930 . S
H730 C746 0.931 . S
C731 H719 0.929 . S
C731 C725 1.390 . S
C731 C728 1.386 . S
C732 C727 1.490 . S
C732 C734 1.395 . S
C732 C735 1.403 . S
H733 C739 0.930 . S
C734 H720 0.930 . S
C734 C732 1.395 . S
C734 C737 1.403 . S
C735 C732 1.403 . S
C735 C736 1.524 . S
C735 C739 1.400 . S
C736 H721 0.960 1_554 S
C736 H722 0.960 1_554 S
C736 H723 0.960 . S
C736 C735 1.524 . S
C737 C734 1.403 . S
C737 C738 1.392 . S
C737 C741 1.495 . S
C738 C737 1.392 . S
C738 C739 1.385 . S
C738 C740 1.478 . S
C739 H733 0.930 . S
C739 C735 1.400 . S
C739 C738 1.385 . S
C740 C738 1.478 . S
C740 C742 1.381 . S
C740 C746 1.383 . S
C741 C737 1.495 . S
C741 H747 0.959 . S
C741 H748 0.961 . S
C741 H749 0.960 . S
C742 C740 1.381 . S
C742 C743 1.394 . S
C742 H750 0.930 . S
C743 C742 1.394 . S
C743 C744 1.383 . S
C743 H751 0.929 . S
C744 C743 1.383 . S
C744 C745 1.377 . S
C745 H729 0.930 . S
C745 C744 1.377 . S
C745 C746 1.379 . S
C746 H730 0.931 . S
C746 C740 1.383 . S
C746 C745 1.379 . S
H747 C741 0.959 . S
H748 C741 0.961 . S
H749 C741 0.960 . S
H750 C742 0.930 . S
H751 C743 0.929 . S
H752 C760 0.929 . S
H753 C762 0.930 . S
H754 C764 0.930 . S
H755 C767 0.929 . S
H756 C770 0.930 . S
H757 C772 0.960 . S
H758 C772 0.960 . S
H759 C772 0.960 . S
C760 H752 0.929 . S
C760 C761 1.377 . S
C760 C762 1.384 . S
C761 C760 1.377 . S
C761 C767 1.390 . S
C762 H753 0.930 . S
C762 C760 1.384 . S
C762 C763 1.372 . S
C763 C762 1.372 . S
C763 C764 1.400 . S
C763 C768 1.490 . S
C764 H754 0.930 . S
C764 C763 1.400 . S
C764 C767 1.386 . S
H765 C781 0.930 . S
H766 C782 0.931 . S
C767 H755 0.929 . S
C767 C761 1.390 . S
C767 C764 1.386 . S
C768 C763 1.490 . S
C768 C770 1.395 . S
C768 C771 1.403 1_554 S
H769 C775 0.930 . S
C770 H756 0.930 . S
C770 C768 1.395 . S
C770 C773 1.403 . S
C771 C768 1.403 1_556 S
C771 C772 1.524 . S
C771 C775 1.400 . S
C772 H757 0.960 . S
C772 H758 0.960 . S
C772 H759 0.960 . S
C772 C771 1.524 . S
C773 C770 1.403 . S
C773 C774 1.392 1_554 S
C773 C777 1.495 . S
C774 C773 1.392 1_556 S
C774 C775 1.385 . S
C774 C776 1.478 . S
C775 H769 0.930 . S
C775 C771 1.400 . S
C775 C774 1.385 . S
C776 C774 1.478 . S
C776 C778 1.381 . S
C776 C782 1.383 . S
C777 C773 1.495 . S
C777 H783 0.959 . S
C777 H784 0.961 . S
C777 H785 0.960 1_554 S
C778 C776 1.381 . S
C778 C779 1.394 . S
C778 H786 0.930 . S
C779 C778 1.394 . S
C779 C780 1.383 . S
C779 H787 0.929 . S
C780 C779 1.383 . S
C780 C781 1.377 . S
C781 H765 0.930 . S
C781 C780 1.377 . S
C781 C782 1.379 . S
C782 H766 0.931 . S
C782 C776 1.383 . S
C782 C781 1.379 . S
H783 C777 0.959 . S
H784 C777 0.961 . S
H785 C777 0.960 1_556 S
H786 C778 0.930 . S
H787 C779 0.929 . S
H788 C796 0.929 . S
H789 C798 0.930 . S
H790 C800 0.930 . S
H791 C803 0.929 . S
H792 C806 0.930 . S
H793 C808 0.960 . S
H794 C808 0.960 . S
H795 C808 0.960 . S
C796 H788 0.929 . S
C796 C797 1.377 . S
C796 C798 1.384 . S
C797 C796 1.377 . S
C797 C803 1.390 . S
C798 H789 0.930 . S
C798 C796 1.384 . S
C798 C799 1.372 . S
C799 C798 1.372 . S
C799 C800 1.400 . S
C799 C804 1.490 . S
C800 H790 0.930 . S
C800 C799 1.400 . S
C800 C803 1.386 . S
H801 C817 0.930 . S
H802 C818 0.931 . S
C803 H791 0.929 . S
C803 C797 1.390 . S
C803 C800 1.386 . S
C804 C799 1.490 . S
C804 C806 1.395 . S
C804 C807 1.403 . S
H805 C811 0.930 . S
C806 H792 0.930 . S
C806 C804 1.395 . S
C806 C809 1.403 . S
C807 C804 1.403 . S
C807 C808 1.524 . S
C807 C811 1.400 . S
C808 H793 0.960 . S
C808 H794 0.960 . S
C808 H795 0.960 . S
C808 C807 1.524 . S
C809 C806 1.403 . S
C809 C810 1.392 . S
C809 C813 1.495 . S
C810 C809 1.392 . S
C810 C811 1.385 . S
C810 C812 1.478 . S
C811 H805 0.930 . S
C811 C807 1.400 . S
C811 C810 1.385 . S
C812 C810 1.478 . S
C812 C814 1.381 . S
C812 C818 1.383 . S
C813 C809 1.495 . S
C813 H819 0.959 . S
C813 H820 0.961 . S
C813 H821 0.960 . S
C814 C812 1.381 . S
C814 C815 1.394 . S
C814 H822 0.930 . S
C815 C814 1.394 . S
C815 C816 1.383 . S
C815 H823 0.929 . S
C816 C815 1.383 . S
C816 C817 1.377 . S
C817 H801 0.930 . S
C817 C816 1.377 . S
C817 C818 1.379 . S
C818 H802 0.931 . S
C818 C812 1.383 . S
C818 C817 1.379 . S
H819 C813 0.959 . S
H820 C813 0.961 . S
H821 C813 0.960 . S
H822 C814 0.930 . S
H823 C815 0.929 . S
H824 C832 0.929 . S
H825 C834 0.930 . S
H826 C836 0.930 . S
H827 C839 0.929 . S
H828 C842 0.930 . S
H829 C844 0.960 . S
H830 C844 0.960 . S
H831 C844 0.960 . S
C832 H824 0.929 . S
C832 C833 1.377 . S
C832 C834 1.384 . S
C833 C832 1.377 . S
C833 C839 1.390 . S
C834 H825 0.930 . S
C834 C832 1.384 . S
C834 C835 1.372 . S
C835 C834 1.372 . S
C835 C836 1.400 . S
C835 C840 1.490 . S
C836 H826 0.930 . S
C836 C835 1.400 . S
C836 C839 1.386 . S
H837 C853 0.930 . S
H838 C854 0.931 . S
C839 H827 0.929 . S
C839 C833 1.390 . S
C839 C836 1.386 . S
C840 C835 1.490 . S
C840 C842 1.395 . S
C840 C843 1.403 . S
H841 C847 0.930 . S
C842 H828 0.930 . S
C842 C840 1.395 . S
C842 C845 1.403 . S
C843 C840 1.403 . S
C843 C844 1.524 . S
C843 C847 1.400 . S
C844 H829 0.960 . S
C844 H830 0.960 . S
C844 H831 0.960 . S
C844 C843 1.524 . S
C845 C842 1.403 . S
C845 C846 1.392 . S
C845 C849 1.495 . S
C846 C845 1.392 . S
C846 C847 1.385 . S
C846 C848 1.478 . S
C847 H841 0.930 . S
C847 C843 1.400 . S
C847 C846 1.385 . S
C848 C846 1.478 . S
C848 C850 1.381 . S
C848 C854 1.383 . S
C849 C845 1.495 . S
C849 H855 0.959 . S
C849 H856 0.961 . S
C849 H857 0.960 . S
C850 C848 1.381 . S
C850 C851 1.394 . S
C850 H858 0.930 . S
C851 C850 1.394 . S
C851 C852 1.383 . S
C851 H859 0.929 . S
C852 C851 1.383 . S
C852 C853 1.377 . S
C853 H837 0.930 . S
C853 C852 1.377 . S
C853 C854 1.379 . S
C854 H838 0.931 . S
C854 C848 1.383 . S
C854 C853 1.379 . S
H855 C849 0.959 . S
H856 C849 0.961 . S
H857 C849 0.960 . S
H858 C850 0.930 . S
H859 C851 0.929 . S
H860 C868 0.929 . S
H861 C870 0.930 . S
H862 C872 0.930 . S
H863 C875 0.929 . S
H864 C878 0.930 . S
H865 C880 0.960 . S
H866 C880 0.960 . S
H867 C880 0.960 . S
C868 H860 0.929 . S
C868 C869 1.377 . S
C868 C870 1.384 . S
C869 C868 1.377 . S
C869 C875 1.390 . S
C870 H861 0.930 . S
C870 C868 1.384 . S
C870 C871 1.372 . S
C871 C870 1.372 . S
C871 C872 1.400 . S
C871 C876 1.490 . S
C872 H862 0.930 . S
C872 C871 1.400 . S
C872 C875 1.386 . S
H873 C889 0.930 . S
H874 C890 0.931 . S
C875 H863 0.929 . S
C875 C869 1.390 . S
C875 C872 1.386 . S
C876 C871 1.490 . S
C876 C878 1.395 . S
C876 C879 1.403 . S
H877 C883 0.930 . S
C878 H864 0.930 . S
C878 C876 1.395 . S
C878 C881 1.403 . S
C879 C876 1.403 . S
C879 C880 1.524 . S
C879 C883 1.400 . S
C880 H865 0.960 . S
C880 H866 0.960 . S
C880 H867 0.960 . S
C880 C879 1.524 . S
C881 C878 1.403 . S
C881 C882 1.392 . S
C881 C885 1.495 . S
C882 C881 1.392 . S
C882 C883 1.385 . S
C882 C884 1.478 . S
C883 H877 0.930 . S
C883 C879 1.400 . S
C883 C882 1.385 . S
C884 C882 1.478 . S
C884 C886 1.381 . S
C884 C890 1.383 . S
C885 C881 1.495 . S
C885 H891 0.959 . S
C885 H892 0.961 . S
C885 H893 0.960 . S
C886 C884 1.381 . S
C886 C887 1.394 . S
C886 H894 0.930 . S
C887 C886 1.394 . S
C887 C888 1.383 . S
C887 H895 0.929 . S
C888 C887 1.383 . S
C888 C889 1.377 . S
C889 H873 0.930 . S
C889 C888 1.377 . S
C889 C890 1.379 . S
C890 H874 0.931 . S
C890 C884 1.383 . S
C890 C889 1.379 . S
H891 C885 0.959 . S
H892 C885 0.961 . S
H893 C885 0.960 . S
H894 C886 0.930 . S
H895 C887 0.929 . S
H896 C904 0.929 . S
H897 C906 0.930 . S
H898 C908 0.930 1_556 S
H899 C911 0.929 1_556 S
H900 C914 0.930 . S
H901 C916 0.960 . S
H902 C916 0.960 . S
H903 C916 0.960 . S
C904 H896 0.929 . S
C904 C905 1.377 . S
C904 C906 1.384 . S
C905 C904 1.377 . S
C905 C911 1.390 . S
C906 H897 0.930 . S
C906 C904 1.384 . S
C906 C907 1.372 . S
C907 C906 1.372 . S
C907 C908 1.400 . S
C907 C912 1.490 . S
C908 H898 0.930 1_554 S
C908 C907 1.400 . S
C908 C911 1.386 . S
H909 C925 0.930 . S
H910 C926 0.931 . S
C911 H899 0.929 1_554 S
C911 C905 1.390 . S
C911 C908 1.386 . S
C912 C907 1.490 . S
C912 C914 1.395 1_554 S
C912 C915 1.403 . S
H913 C919 0.930 . S
C914 H900 0.930 . S
C914 C912 1.395 1_556 S
C914 C917 1.403 . S
C915 C912 1.403 . S
C915 C916 1.524 . S
C915 C919 1.400 . S
C916 H901 0.960 . S
C916 H902 0.960 . S
C916 H903 0.960 . S
C916 C915 1.524 . S
C917 C914 1.403 . S
C917 C918 1.392 1_556 S
C917 C921 1.495 . S
C918 C917 1.392 1_554 S
C918 C919 1.385 . S
C918 C920 1.478 . S
C919 H913 0.930 . S
C919 C915 1.400 . S
C919 C918 1.385 . S
C920 C918 1.478 . S
C920 C922 1.381 . S
C920 C926 1.383 1_554 S
C921 C917 1.495 . S
C921 H927 0.959 . S
C921 H928 0.961 . S
C921 H929 0.960 . S
C922 C920 1.381 . S
C922 C923 1.394 . S
C922 H930 0.930 . S
C923 C922 1.394 . S
C923 C924 1.383 . S
C923 H931 0.929 . S
C924 C923 1.383 . S
C924 C925 1.377 1_554 S
C925 H909 0.930 . S
C925 C924 1.377 1_556 S
C925 C926 1.379 . S
C926 H910 0.931 . S
C926 C920 1.383 1_556 S
C926 C925 1.379 . S
H927 C921 0.959 . S
H928 C921 0.961 . S
H929 C921 0.960 . S
H930 C922 0.930 . S
H931 C923 0.929 . S
H932 C940 0.929 . S
H933 C942 0.930 . S
H934 C944 0.930 . S
H935 C947 0.929 . S
H936 C950 0.930 . S
H937 C952 0.960 . S
H938 C952 0.960 . S
H939 C952 0.960 . S
C940 H932 0.929 . S
C940 C941 1.377 1_554 S
C940 C942 1.384 . S
C941 C940 1.377 1_556 S
C941 C947 1.390 . S
C942 H933 0.930 . S
C942 C940 1.384 . S
C942 C943 1.372 1_554 S
C943 C942 1.372 1_556 S
C943 C944 1.400 . S
C943 C948 1.490 . S
C944 H934 0.930 . S
C944 C943 1.400 . S
C944 C947 1.386 . S
H945 C961 0.930 . S
H946 C962 0.931 . S
C947 H935 0.929 . S
C947 C941 1.390 . S
C947 C944 1.386 . S
C948 C943 1.490 . S
C948 C950 1.395 1_556 S
C948 C951 1.403 . S
H949 C955 0.930 . S
C950 H936 0.930 . S
C950 C948 1.395 1_554 S
C950 C953 1.403 . S
C951 C948 1.403 . S
C951 C952 1.524 . S
C951 C955 1.400 . S
C952 H937 0.960 . S
C952 H938 0.960 . S
C952 H939 0.960 . S
C952 C951 1.524 . S
C953 C950 1.403 . S
C953 C954 1.392 1_554 S
C953 C957 1.495 . S
C954 C953 1.392 1_556 S
C954 C955 1.385 . S
C954 C956 1.478 . S
C955 H949 0.930 . S
C955 C951 1.400 . S
C955 C954 1.385 . S
C956 C954 1.478 . S
C956 C958 1.381 1_556 S
C956 C962 1.383 . S
C957 C953 1.495 . S
C957 H963 0.959 . S
C957 H964 0.961 . S
C957 H965 0.960 . S
C958 C956 1.381 1_554 S
C958 C959 1.394 . S
C958 H966 0.930 . S
C959 C958 1.394 . S
C959 C960 1.383 1_554 S
C959 H967 0.929 . S
C960 C959 1.383 1_556 S
C960 C961 1.377 . S
C961 H945 0.930 . S
C961 C960 1.377 . S
C961 C962 1.379 . S
C962 H946 0.931 . S
C962 C956 1.383 . S
C962 C961 1.379 . S
H963 C957 0.959 . S
H964 C957 0.961 . S
H965 C957 0.960 . S
H966 C958 0.930 . S
H967 C959 0.929 . S
H968 C976 0.929 . S
H969 C978 0.930 . S
H970 C980 0.930 . S
H971 C983 0.929 . S
H972 C986 0.930 . S
H973 C988 0.960 . S
H974 C988 0.959 . S
H975 C988 0.974 . S
C976 H968 0.929 . S
C976 C977 1.377 . S
C976 C978 1.384 . S
C977 C976 1.377 . S
C977 C983 1.390 . S
C978 H969 0.930 . S
C978 C976 1.384 . S
C978 C979 1.372 . S
C979 C978 1.372 . S
C979 C980 1.400 . S
C979 C984 1.490 . S
C980 H970 0.930 . S
C980 C979 1.400 . S
C980 C983 1.386 . S
H981 C997 0.930 . S
H982 C998 0.931 . S
C983 H971 0.929 . S
C983 C977 1.390 . S
C983 C980 1.386 . S
C984 C979 1.490 . S
C984 C986 1.395 . S
C984 C987 1.403 1_565 S
H985 C991 0.930 . S
C986 H972 0.930 . S
C986 C984 1.395 . S
C986 C989 1.403 . S
C987 C984 1.403 1_545 S
C987 C988 1.524 . S
C987 C991 1.400 . S
C988 H973 0.960 . S
C988 H974 0.959 . S
C988 H975 0.974 . S
C988 C987 1.524 . S
C989 C986 1.403 . S
C989 C990 1.392 1_565 S
C989 C993 1.495 . S
C990 C989 1.392 1_545 S
C990 C991 1.385 . S
C990 C992 1.478 . S
C991 H985 0.930 . S
C991 C987 1.400 . S
C991 C990 1.385 . S
C992 C990 1.478 . S
C992 C994 1.381 . S
C992 C998 1.383 . S
C993 C989 1.495 . S
C993 H999 0.959 . S
C993 H1000 0.982 . S
C993 H1001 0.960 . S
C994 C992 1.381 . S
C994 C995 1.394 . S
C994 H1002 0.930 . S
C995 C994 1.394 . S
C995 C996 1.383 . S
C995 H1003 0.929 . S
C996 C995 1.383 . S
C996 C997 1.377 . S
C997 H981 0.930 . S
C997 C996 1.377 . S
C997 C998 1.379 . S
C998 H982 0.931 . S
C998 C992 1.383 . S
C998 C997 1.379 . S
H999 C993 0.959 . S
H1000 C993 0.982 . S
H1001 C993 0.960 . S
H1002 C994 0.930 . S
H1003 C995 0.929 . S
H1004 C1012 0.929 . S
H1005 C1014 0.930 . S
H1006 C1016 0.930 . S
H1007 C1019 0.929 . S
H1008 C1022 0.929 1_556 S
H1009 C1024 0.960 1_565 S
H1010 C1024 0.960 . S
H1011 C1024 0.960 . S
C1012 H1004 0.929 . S
C1012 C1013 1.377 . S
C1012 C1014 1.384 . S
C1013 C1012 1.377 . S
C1013 C1019 1.390 . S
C1014 H1005 0.930 . S
C1014 C1012 1.384 . S
C1014 C1015 1.372 . S
C1015 C1014 1.372 . S
C1015 C1016 1.400 . S
C1015 C1020 1.490 . S
C1016 H1006 0.930 . S
C1016 C1015 1.400 . S
C1016 C1019 1.386 . S
H1017 C1033 0.930 . S
H1018 C1034 0.931 . S
C1019 H1007 0.929 . S
C1019 C1013 1.390 . S
C1019 C1016 1.386 . S
C1020 C1015 1.490 . S
C1020 C1022 1.388 1_556 S
C1020 C1023 1.403 . S
H1021 C1027 0.930 . S
C1022 H1008 0.929 1_554 S
C1022 C1020 1.388 1_554 S
C1022 C1025 1.353 1_545 S
C1023 C1020 1.403 . S
C1023 C1024 1.524 . S
C1023 C1027 1.400 1_546 S
C1024 H1009 0.960 1_545 S
C1024 H1010 0.960 . S
C1024 H1011 0.960 . S
C1024 C1023 1.524 . S
C1025 C1022 1.353 1_565 S
C1025 C1026 1.439 . S
C1025 C1029 1.508 . S
C1026 C1025 1.439 . S
C1026 C1027 1.385 . S
C1026 C1028 1.478 . S
C1027 H1021 0.930 . S
C1027 C1023 1.400 1_564 S
C1027 C1026 1.385 . S
C1028 C1026 1.478 . S
C1028 C1030 1.381 . S
C1028 C1034 1.383 . S
C1029 C1025 1.508 . S
C1029 H1035 0.959 1_565 S
C1029 H1036 0.961 . S
C1029 H1037 0.960 . S
C1030 C1028 1.381 . S
C1030 C1031 1.394 . S
C1030 H1038 0.930 . S
C1031 C1030 1.394 . S
C1031 C1032 1.383 . S
C1031 H1039 0.929 . S
C1032 C1031 1.383 . S
C1032 C1033 1.377 . S
C1033 H1017 0.930 . S
C1033 C1032 1.377 . S
C1033 C1034 1.379 . S
C1034 H1018 0.931 . S
C1034 C1028 1.383 . S
C1034 C1033 1.379 . S
H1035 C1029 0.959 1_545 S
H1036 C1029 0.961 . S
H1037 C1029 0.960 . S
H1038 C1030 0.930 . S
H1039 C1031 0.929 . S
C185 C106 1.643 . S
C204 C7 1.634 . S
C221 C16 1.339 . S
C240 C161 1.658 . S
C257 C95 1.455 . S
C276 C27 1.176 . S
C293 C38 1.378 . S
C312 C170 1.264 . S
C329 C51 1.647 . S
C348 C115 1.344 . S
C365 C148 1.235 . S
C384 C62 1.430 . S
C401 C126 1.372 . S
C420 C71 1.214 . S
C437 C139 1.651 . S
C456 C84 1.647 . S
C473 C49 1.356 . S
C492 C40 1.508 . S
C509 C137 1.376 . S
C528 C93 1.259 . S
C545 C73 1.574 . S
C564 C18 1.577 . S
C581 C150 1.587 . S
C600 C104 1.494 1_554 S
C617 C5 1.384 . S
C636 C60 1.277 . S
C653 C172 1.577 . S
C672 C117 1.591 . S
C689 C82 1.536 . S
C708 C29 1.574 . S
C725 C128 1.495 . S
C744 C159 1.403 . S
C761 C8 1.622 . S
C780 C52 1.614 . S
C797 C19 1.574 . S
C816 C63 1.561 . S
C833 C30 1.585 . S
C852 C74 1.578 . S
C869 C41 1.595 . S
C888 C85 1.588 . S
C905 C96 1.568 . S
C924 C118 1.559 . S
C941 C129 1.596 . S
C960 C107 1.596 . S
C977 C162 1.625 . S
C996 C140 1.624 . S
C1013 C173 1.584 . S
C1032 C151 1.591 . S
