# Generated by pormake.
# Topology mon, (4)-cn, num edge types: 1
# Building blocks:
#     Node 0, Type 0, BuildingBlock: KUFVIS_clean_sbu_0, # of connection points: 4
#     Node 1, Type 0, BuildingBlock: KUFVIS_clean_sbu_0, # of connection points: 4
#     Node 2, Type 0, BuildingBlock: KUFVIS_clean_sbu_0, # of connection points: 4
#     Node 3, Type 0, BuildingBlock: KUFVIS_clean_sbu_0, # of connection points: 4
#     Node 4, Type 0, BuildingBlock: KUFVIS_clean_sbu_0, # of connection points: 4
#     Node 5, Type 0, BuildingBlock: KUFVIS_clean_sbu_0, # of connection points: 4
#     Node 6, Type 0, BuildingBlock: KUFVIS_clean_sbu_0, # of connection points: 4
#     Node 7, Type 0, BuildingBlock: KUFVIS_clean_sbu_0, # of connection points: 4
#     Node 8, Type 0, BuildingBlock: KUFVIS_clean_sbu_0, # of connection points: 4
#     Node 9, Type 0, BuildingBlock: KUFVIS_clean_sbu_0, # of connection points: 4
#     Node 10, Type 0, BuildingBlock: KUFVIS_clean_sbu_0, # of connection points: 4
#     Node 11, Type 0, BuildingBlock: KUFVIS_clean_sbu_0, # of connection points: 4
#     Node 12, Type 0, BuildingBlock: KUFVIS_clean_sbu_0, # of connection points: 4
#     Node 13, Type 0, BuildingBlock: KUFVIS_clean_sbu_0, # of connection points: 4
#     Node 14, Type 0, BuildingBlock: KUFVIS_clean_sbu_0, # of connection points: 4
#     Node 15, Type 0, BuildingBlock: KUFVIS_clean_sbu_0, # of connection points: 4
#     Edge 16, Type (0, 0), BuildingBlock: KIFKEQ_clean_linker_1, # of connection points: 2
#     Edge 17, Type (0, 0), BuildingBlock: KIFKEQ_clean_linker_1, # of connection points: 2
#     Edge 18, Type (0, 0), BuildingBlock: KIFKEQ_clean_linker_1, # of connection points: 2
#     Edge 19, Type (0, 0), BuildingBlock: KIFKEQ_clean_linker_1, # of connection points: 2
#     Edge 20, Type (0, 0), BuildingBlock: KIFKEQ_clean_linker_1, # of connection points: 2
#     Edge 21, Type (0, 0), BuildingBlock: KIFKEQ_clean_linker_1, # of connection points: 2
#     Edge 22, Type (0, 0), BuildingBlock: KIFKEQ_clean_linker_1, # of connection points: 2
#     Edge 23, Type (0, 0), BuildingBlock: KIFKEQ_clean_linker_1, # of connection points: 2
#     Edge 24, Type (0, 0), BuildingBlock: KIFKEQ_clean_linker_1, # of connection points: 2
#     Edge 25, Type (0, 0), BuildingBlock: KIFKEQ_clean_linker_1, # of connection points: 2
#     Edge 26, Type (0, 0), BuildingBlock: KIFKEQ_clean_linker_1, # of connection points: 2
#     Edge 27, Type (0, 0), BuildingBlock: KIFKEQ_clean_linker_1, # of connection points: 2
#     Edge 28, Type (0, 0), BuildingBlock: KIFKEQ_clean_linker_1, # of connection points: 2
#     Edge 29, Type (0, 0), BuildingBlock: KIFKEQ_clean_linker_1, # of connection points: 2
#     Edge 30, Type (0, 0), BuildingBlock: KIFKEQ_clean_linker_1, # of connection points: 2
#     Edge 31, Type (0, 0), BuildingBlock: KIFKEQ_clean_linker_1, # of connection points: 2
#     Edge 32, Type (0, 0), BuildingBlock: KIFKEQ_clean_linker_1, # of connection points: 2
#     Edge 33, Type (0, 0), BuildingBlock: KIFKEQ_clean_linker_1, # of connection points: 2
#     Edge 34, Type (0, 0), BuildingBlock: KIFKEQ_clean_linker_1, # of connection points: 2
#     Edge 35, Type (0, 0), BuildingBlock: KIFKEQ_clean_linker_1, # of connection points: 2
#     Edge 36, Type (0, 0), BuildingBlock: KIFKEQ_clean_linker_1, # of connection points: 2
#     Edge 37, Type (0, 0), BuildingBlock: KIFKEQ_clean_linker_1, # of connection points: 2
#     Edge 38, Type (0, 0), BuildingBlock: KIFKEQ_clean_linker_1, # of connection points: 2
#     Edge 39, Type (0, 0), BuildingBlock: KIFKEQ_clean_linker_1, # of connection points: 2
#     Edge 40, Type (0, 0), BuildingBlock: KIFKEQ_clean_linker_1, # of connection points: 2
#     Edge 41, Type (0, 0), BuildingBlock: KIFKEQ_clean_linker_1, # of connection points: 2
#     Edge 42, Type (0, 0), BuildingBlock: KIFKEQ_clean_linker_1, # of connection points: 2
#     Edge 43, Type (0, 0), BuildingBlock: KIFKEQ_clean_linker_1, # of connection points: 2
#     Edge 44, Type (0, 0), BuildingBlock: KIFKEQ_clean_linker_1, # of connection points: 2
#     Edge 45, Type (0, 0), BuildingBlock: KIFKEQ_clean_linker_1, # of connection points: 2
#     Edge 46, Type (0, 0), BuildingBlock: KIFKEQ_clean_linker_1, # of connection points: 2
#     Edge 47, Type (0, 0), BuildingBlock: KIFKEQ_clean_linker_1, # of connection points: 2
# Relax obj value: 0.170
# Max RMSD: 0.160
# Mean RMSD: 0.160
data_MOF--net-mon--node1-KUFVIS_clean_sbu_0--edge1-KIFKEQ_clean_linker_1
_symmetry_space_group_name_H-M    P1
_symmetry_Int_Tables_number       1
_symmetry_cell_setting            triclinic
loop_
_symmetry_equiv_pos_as_xyz
'x, y, z'
_cell_length_a     33.966299
_cell_length_b     33.967191
_cell_length_c     85.189435
_cell_angle_alpha  89.999295
_cell_angle_beta   89.991707
_cell_angle_gamma 89.994607
loop_
_atom_site_label
_atom_site_type_symbol
_atom_site_fract_x
_atom_site_fract_y
_atom_site_fract_z
_atom_type_partial_charge
Mn0 Mn 0.02032 0.02711 0.59541 0.0
Mn1 Mn 0.93754 0.05364 0.57621 0.0
C2 C 0.95913 0.01815 0.60682 0.0
C3 C 0.06881 0.98243 0.603 0.0
C4 C 0.99336 0.11259 0.59077 0.0
O5 O 0.03857 0.02867 0.57258 0.0
O6 O 0.98129 0.04639 0.56092 0.0
C7 C 0.92295 0.9805 0.55822 0.0
N8 N 0.91066 0.00772 0.56889 0.0
C9 C 0.84937 0.97347 0.57272 0.0
C10 C 0.86129 0.9452 0.56171 0.0
C11 C 0.89824 0.94874 0.55443 0.0
C12 C 0.875 1.00479 0.57586 0.0
H13 H 0.95144 0.98291 0.55268 0.0
C14 C 0.01791 0.03698 0.56046 0.0
O15 O 0.07465 0.02013 0.60347 0.0
O16 O 0.03535 0.97048 0.59736 0.0
N17 N 0.89344 0.06053 0.58994 0.0
C18 C 0.88784 0.08836 0.60124 0.0
C19 C 0.85309 0.08787 0.61017 0.0
C20 C 0.82451 0.05881 0.6074 0.0
C21 C 0.83091 0.03051 0.59569 0.0
C22 C 0.86593 0.0327 0.58705 0.0
H23 H 0.90992 0.11049 0.60354 0.0
O24 O 0.99017 0.02241 0.61556 0.0
O25 O 0.96477 0.0211 0.5918 0.0
O26 O 0.01745 0.08716 0.59605 0.0
O27 O 0.96213 0.10331 0.58333 0.0
C28 C 0.80439 0.99961 0.59254 0.0
C29 C 0.81358 0.97116 0.58104 0.0
H30 H 0.84252 0.92041 0.55889 0.0
H31 H 0.90774 0.92692 0.54598 0.0
H32 H 0.84847 0.10967 0.61925 0.0
H33 H 0.79796 0.05824 0.61444 0.0
H34 H 0.77715 0.99708 0.59907 0.0
H35 H 0.79325 0.94718 0.57891 0.0
Mn36 Mn 0.25823 0.74675 0.84551 0.0
Mn37 Mn 0.22968 0.66398 0.82681 0.0
C38 C 0.26515 0.6858 0.85737 0.0
C39 C 0.30484 0.79354 0.85286 0.0
C40 C 0.17204 0.72196 0.84088 0.0
O41 O 0.25784 0.764 0.82258 0.0
O42 O 0.23806 0.707 0.81126 0.0
C43 C 0.30258 0.64701 0.80898 0.0
N44 N 0.27504 0.63578 0.81971 0.0
C45 C 0.30802 0.574 0.82403 0.0
C46 C 0.33662 0.58484 0.81298 0.0
C47 C 0.33386 0.6215 0.80542 0.0
C48 C 0.27719 0.6004 0.82694 0.0
H49 H 0.30079 0.67528 0.80323 0.0
C50 C 0.24877 0.74323 0.81058 0.0
O51 O 0.26746 0.80138 0.8531 0.0
O52 O 0.31528 0.75922 0.84762 0.0
N53 N 0.22169 0.62058 0.8408 0.0
C54 C 0.19368 0.61607 0.8521 0.0
C55 C 0.19341 0.58174 0.86129 0.0
C56 C 0.22194 0.55248 0.85877 0.0
C57 C 0.25045 0.55777 0.84705 0.0
C58 C 0.24901 0.59241 0.83815 0.0
H59 H 0.17197 0.63869 0.85421 0.0
O60 O 0.26148 0.71729 0.86589 0.0
O61 O 0.26252 0.69095 0.84232 0.0
O62 O 0.19796 0.74592 0.84592 0.0
O63 O 0.18069 0.69004 0.83378 0.0
C64 C 0.28086 0.53051 0.84415 0.0
C65 C 0.30958 0.53858 0.83263 0.0
H66 H 0.36106 0.56546 0.81033 0.0
H67 H 0.35594 0.63016 0.79693 0.0
H68 H 0.17145 0.57798 0.87037 0.0
H69 H 0.22193 0.52626 0.86601 0.0
H70 H 0.28282 0.50354 0.85089 0.0
H71 H 0.33318 0.51769 0.83068 0.0
Mn72 Mn 0.5406 0.98301 0.09626 0.0
Mn73 Mn 0.62329 0.95934 0.07636 0.0
C74 C 0.60198 0.99329 0.10736 0.0
C75 C 0.49131 0.02701 0.10386 0.0
C76 C 0.56903 0.89851 0.09079 0.0
O77 O 0.52165 0.98093 0.07348 0.0
O78 O 0.57939 0.9674 0.06128 0.0
C79 C 0.63731 0.03393 0.05928 0.0
N80 N 0.64984 0.00595 0.06959 0.0
C81 C 0.71118 0.03995 0.07361 0.0
C82 C 0.699 0.06902 0.06299 0.0
C83 C 0.6619 0.06598 0.05579 0.0
C84 C 0.68564 0.00838 0.07647 0.0
H85 H 0.6087 0.03185 0.05381 0.0
C86 C 0.54234 0.97488 0.06115 0.0
O87 O 0.48622 0.9892 0.10458 0.0
O88 O 0.5245 0.03933 0.0981 0.0
N89 N 0.66751 0.95162 0.08994 0.0
C90 C 0.67328 0.92305 0.10093 0.0
C91 C 0.70816 0.92296 0.10978 0.0
C92 C 0.73668 0.95222 0.10725 0.0
C93 C 0.73009 0.98131 0.09587 0.0
C94 C 0.69493 0.97969 0.0873 0.0
H95 H 0.65125 0.90074 0.10302 0.0
O96 O 0.57128 0.98859 0.11626 0.0
O97 O 0.59585 0.99034 0.09238 0.0
O98 O 0.54522 0.9229 0.09701 0.0
O99 O 0.59896 0.90902 0.08277 0.0
C100 C 0.75653 0.01244 0.09299 0.0
C101 C 0.74713 0.04169 0.08185 0.0
H102 H 0.71768 0.09404 0.0604 0.0
H103 H 0.65221 0.08842 0.04764 0.0
H104 H 0.71293 0.90054 0.1186 0.0
H105 H 0.76334 0.95232 0.11423 0.0
H106 H 0.78388 0.01454 0.09948 0.0
H107 H 0.7674 0.06584 0.07994 0.0
Mn108 Mn 0.30026 0.26292 0.34382 0.0
Mn109 Mn 0.32912 0.34567 0.32517 0.0
C110 C 0.29312 0.32389 0.35564 0.0
C111 C 0.25363 0.21606 0.35108 0.0
C112 C 0.38652 0.28784 0.33948 0.0
O113 O 0.30113 0.2456 0.32089 0.0
O114 O 0.32119 0.30256 0.30963 0.0
C115 C 0.25658 0.36239 0.30709 0.0
N116 N 0.28387 0.37374 0.31789 0.0
C117 C 0.25066 0.43548 0.32205 0.0
C118 C 0.22233 0.42452 0.31091 0.0
C119 C 0.22532 0.38782 0.30339 0.0
C120 C 0.28149 0.40916 0.32508 0.0
H121 H 0.25855 0.33409 0.30137 0.0
C122 C 0.31051 0.26632 0.30892 0.0
O123 O 0.29101 0.2083 0.35141 0.0
O124 O 0.24318 0.25034 0.34579 0.0
N125 N 0.33672 0.38918 0.33914 0.0
C126 C 0.36451 0.39384 0.35052 0.0
C127 C 0.36453 0.42824 0.35967 0.0
C128 C 0.33599 0.45743 0.35703 0.0
C129 C 0.30773 0.452 0.34523 0.0
C130 C 0.30941 0.41729 0.33638 0.0
H131 H 0.38623 0.37128 0.35272 0.0
O132 O 0.29663 0.29239 0.36418 0.0
O133 O 0.29596 0.31873 0.3406 0.0
O134 O 0.36051 0.26384 0.34441 0.0
O135 O 0.37801 0.31975 0.33234 0.0
C136 C 0.27732 0.47917 0.3422 0.0
C137 C 0.24886 0.47096 0.3306 0.0
H138 H 0.19791 0.44384 0.30816 0.0
H139 H 0.20345 0.37907 0.29484 0.0
H140 H 0.38631 0.43212 0.36881 0.0
H141 H 0.33581 0.4837 0.36424 0.0
H142 H 0.27518 0.50618 0.34891 0.0
H143 H 0.22526 0.49179 0.32855 0.0
Mn144 Mn 0.02165 0.98396 0.41448 0.0
Mn145 Mn 0.93893 0.95536 0.43322 0.0
C146 C 0.96067 0.99092 0.40266 0.0
C147 C 0.06844 0.03058 0.40712 0.0
C148 C 0.99677 0.89775 0.41903 0.0
O149 O 0.03899 0.98348 0.43741 0.0
O150 O 0.98205 0.96357 0.44874 0.0
C151 C 0.92221 0.02818 0.45113 0.0
N152 N 0.91086 1.00072 0.4404 0.0
C153 C 0.84911 0.03384 0.43617 0.0
C154 C 0.86007 0.06235 0.44724 0.0
C155 C 0.89677 0.05948 0.45476 0.0
C156 C 0.87543 1.00298 0.43321 0.0
H157 H 0.95051 0.0263 0.45685 0.0
C158 C 0.01828 0.9743 0.44941 0.0
O159 O 0.07626 0.9932 0.40686 0.0
O160 O 0.03415 0.04102 0.4124 0.0
N161 N 0.89542 0.94754 0.41927 0.0
C162 C 0.89077 0.91959 0.40795 0.0
C163 C 0.85637 0.91943 0.39881 0.0
C164 C 0.82717 0.948 0.40139 0.0
C165 C 0.8326 0.97644 0.41312 0.0
C166 C 0.86731 0.97489 0.42198 0.0
H167 H 0.91334 0.89785 0.4058 0.0
O168 O 0.99214 0.98729 0.39412 0.0
O169 O 0.96585 0.98827 0.41771 0.0
O170 O 0.02077 0.92369 0.41404 0.0
O171 O 0.96487 0.90638 0.42616 0.0
C172 C 0.80542 0.00688 0.41608 0.0
C173 C 0.81363 0.03551 0.42762 0.0
H174 H 0.84075 0.08681 0.44993 0.0
H175 H 0.90553 0.08149 0.46325 0.0
H176 H 0.8525 0.89753 0.38972 0.0
H177 H 0.8009 0.94808 0.39418 0.0
H178 H 0.7784 0.00892 0.40938 0.0
H179 H 0.79279 0.05913 0.42961 0.0
Mn180 Mn 0.30067 0.74663 0.6645 0.0
Mn181 Mn 0.32722 0.66348 0.68344 0.0
C182 C 0.29154 0.68565 0.65293 0.0
C183 C 0.25596 0.79528 0.6571 0.0
C184 C 0.38615 0.71945 0.66894 0.0
O185 O 0.30244 0.76448 0.68737 0.0
O186 O 0.32019 0.707 0.69885 0.0
C187 C 0.2542 0.64876 0.7015 0.0
N188 N 0.2813 0.63659 0.69076 0.0
C189 C 0.24686 0.57546 0.6868 0.0
C190 C 0.21871 0.58726 0.69788 0.0
C191 C 0.22241 0.62406 0.70526 0.0
C192 C 0.27823 0.60106 0.68369 0.0
H193 H 0.25673 0.67714 0.70711 0.0
C194 C 0.31084 0.74362 0.69942 0.0
O195 O 0.29366 0.8011 0.65659 0.0
O196 O 0.24403 0.76173 0.66267 0.0
N197 N 0.33391 0.61959 0.66959 0.0
C198 C 0.36165 0.61411 0.65824 0.0
C199 C 0.36101 0.57951 0.64923 0.0
C200 C 0.33188 0.55097 0.65196 0.0
C201 C 0.30369 0.55724 0.66372 0.0
C202 C 0.30603 0.59211 0.67244 0.0
H203 H 0.38383 0.63617 0.65598 0.0
O204 O 0.29577 0.71684 0.64428 0.0
O205 O 0.2946 0.69102 0.66796 0.0
O206 O 0.36071 0.74368 0.66376 0.0
O207 O 0.37688 0.6881 0.67631 0.0
C208 C 0.27274 0.53075 0.66683 0.0
C209 C 0.24439 0.53982 0.67839 0.0
H210 H 0.19388 0.56851 0.70068 0.0
H211 H 0.20067 0.63347 0.71376 0.0
H212 H 0.38273 0.57499 0.64011 0.0
H213 H 0.33119 0.52454 0.64484 0.0
H214 H 0.27008 0.50363 0.66023 0.0
H215 H 0.22037 0.51952 0.68049 0.0
Mn216 Mn 0.53794 0.02602 0.91527 0.0
Mn217 Mn 0.62104 0.05477 0.93368 0.0
C218 C 0.59867 0.01883 0.90327 0.0
C219 C 0.49094 0.97937 0.90819 0.0
C220 C 0.563 0.11224 0.91955 0.0
O221 O 0.52102 0.02694 0.93824 0.0
O222 O 0.57822 0.04681 0.94936 0.0
C223 C 0.63807 0.98216 0.95168 0.0
N224 N 0.64923 0.00948 0.94086 0.0
C225 C 0.71085 0.97624 0.93648 0.0
C226 C 0.70009 0.94788 0.94765 0.0
C227 C 0.66355 0.95087 0.95528 0.0
C228 C 0.6845 0.00709 0.93355 0.0
H229 H 0.60988 0.98413 0.95749 0.0
C230 C 0.54196 0.03622 0.95017 0.0
O231 O 0.48318 0.01675 0.90784 0.0
O232 O 0.52532 0.96895 0.91338 0.0
N233 N 0.66428 0.06239 0.91958 0.0
C234 C 0.66873 0.09021 0.90819 0.0
C235 C 0.70295 0.09022 0.89894 0.0
C236 C 0.73217 0.06166 0.90147 0.0
C237 C 0.72695 0.03336 0.91327 0.0
C238 C 0.69242 0.03504 0.92224 0.0
H239 H 0.64615 0.11194 0.90608 0.0
O240 O 0.56703 0.02233 0.89482 0.0
O241 O 0.5938 0.02168 0.91832 0.0
O242 O 0.5389 0.08626 0.91466 0.0
O243 O 0.595 0.10368 0.92661 0.0
C244 C 0.75416 1.00292 0.9162 0.0
C245 C 0.74616 0.97443 0.92782 0.0
H246 H 0.71945 0.92343 0.95031 0.0
H247 H 0.65494 0.92897 0.96384 0.0
H248 H 0.70666 0.11202 0.88979 0.0
H249 H 0.75829 0.06147 0.89417 0.0
H250 H 0.78103 1.00077 0.9094 0.0
H251 H 0.76701 0.95081 0.92978 0.0
Mn252 Mn 0.25759 0.26602 0.16288 0.0
Mn253 Mn 0.23404 0.34867 0.18282 0.0
C254 C 0.26792 0.32741 0.15179 0.0
C255 C 0.30156 0.21671 0.15527 0.0
C256 C 0.17313 0.29457 0.16836 0.0
O257 O 0.25548 0.24699 0.18565 0.0
O258 O 0.24199 0.3047 0.19788 0.0
C259 C 0.30865 0.36245 0.19991 0.0
N260 N 0.28071 0.3751 0.18962 0.0
C261 C 0.31484 0.43638 0.18563 0.0
C262 C 0.34388 0.42409 0.19625 0.0
C263 C 0.34076 0.38696 0.20342 0.0
C264 C 0.28322 0.41092 0.18276 0.0
H265 H 0.30651 0.33382 0.20536 0.0
C266 C 0.24941 0.26764 0.19799 0.0
O267 O 0.26375 0.21166 0.15455 0.0
O268 O 0.3139 0.24987 0.16104 0.0
N269 N 0.22643 0.39297 0.16927 0.0
C270 C 0.19787 0.39886 0.15829 0.0
C271 C 0.19785 0.43379 0.14947 0.0
C272 C 0.22717 0.46224 0.15202 0.0
C273 C 0.25625 0.45553 0.16339 0.0
C274 C 0.25455 0.42033 0.17193 0.0
H275 H 0.17551 0.3769 0.15618 0.0
O276 O 0.2632 0.29673 0.14289 0.0
O277 O 0.26499 0.32126 0.16678 0.0
O278 O 0.19749 0.27072 0.16214 0.0
O279 O 0.18368 0.32447 0.17638 0.0
C280 C 0.28743 0.48189 0.16629 0.0
C281 C 0.31666 0.47236 0.17742 0.0
H282 H 0.36894 0.4427 0.19885 0.0
H283 H 0.36317 0.37718 0.21156 0.0
H284 H 0.17545 0.43866 0.14065 0.0
H285 H 0.22733 0.48893 0.14506 0.0
H286 H 0.28959 0.50927 0.15983 0.0
H287 H 0.34085 0.49257 0.17935 0.0
Mn288 Mn 0.8006 0.24537 0.1642 0.0
Mn289 Mn 0.82749 0.16264 0.18338 0.0
C290 C 0.7929 0.18426 0.15255 0.0
C291 C 0.75452 0.29274 0.1568 0.0
C292 C 0.88621 0.21982 0.16941 0.0
O293 O 0.80137 0.2631 0.18714 0.0
O294 O 0.81829 0.20559 0.19881 0.0
C295 C 0.75363 0.14556 0.20052 0.0
N296 N 0.78179 0.13438 0.19005 0.0
C297 C 0.74933 0.07243 0.1855 0.0
C298 C 0.7201 0.08321 0.1963 0.0
C299 C 0.72228 0.11993 0.20384 0.0
C300 C 0.7802 0.09894 0.18283 0.0
H301 H 0.75501 0.17387 0.20626 0.0
C302 C 0.80889 0.24219 0.19928 0.0
O303 O 0.792 0.30002 0.15644 0.0
O304 O 0.7437 0.25865 0.16216 0.0
N305 N 0.83632 0.11932 0.16944 0.0
C306 C 0.86488 0.11495 0.15834 0.0
C307 C 0.86575 0.08062 0.14916 0.0
C308 C 0.83725 0.05121 0.15147 0.0
C309 C 0.80815 0.05638 0.16296 0.0
C310 C 0.80899 0.09104 0.17186 0.0
H311 H 0.88658 0.13767 0.15641 0.0
O312 O 0.79676 0.21555 0.14392 0.0
O313 O 0.79554 0.18973 0.16759 0.0
O314 O 0.86089 0.24341 0.16364 0.0
O315 O 0.87689 0.18882 0.17699 0.0
C316 C 0.77772 0.029 0.16563 0.0
C317 C 0.74839 0.03697 0.17692 0.0
H318 H 0.6956 0.06374 0.19875 0.0
H319 H 0.69971 0.12855 0.21212 0.0
H320 H 0.88816 0.07696 0.14025 0.0
H321 H 0.83774 0.02499 0.14423 0.0
H322 H 0.77623 1.00201 0.15888 0.0
H323 H 0.72479 0.01598 0.17868 0.0
Mn324 Mn 0.75988 0.76605 0.66399 0.0
Mn325 Mn 0.73324 0.84913 0.68296 0.0
C326 C 0.76859 0.82708 0.65239 0.0
C327 C 0.80464 0.71761 0.65639 0.0
C328 C 0.67434 0.79289 0.66863 0.0
O329 O 0.75859 0.74822 0.68688 0.0
O330 O 0.74063 0.80566 0.69837 0.0
C331 C 0.80645 0.86419 0.70085 0.0
N332 N 0.77914 0.87623 0.69017 0.0
C333 C 0.81323 0.93754 0.68614 0.0
C334 C 0.84159 0.92586 0.69716 0.0
C335 C 0.83817 0.88903 0.70454 0.0
C336 C 0.78195 0.91178 0.6831 0.0
H337 H 0.80413 0.83578 0.70646 0.0
C338 C 0.75018 0.76909 0.69894 0.0
O339 O 0.76695 0.71163 0.65603 0.0
O340 O 0.81655 0.75117 0.66196 0.0
N341 N 0.72619 0.89297 0.66912 0.0
C342 C 0.6983 0.8983 0.65782 0.0
C343 C 0.69866 0.9329 0.6488 0.0
C344 C 0.72767 0.9616 0.65147 0.0
C345 C 0.75603 0.95547 0.66318 0.0
C346 C 0.75397 0.92059 0.67191 0.0
H347 H 0.67621 0.87613 0.6556 0.0
O348 O 0.76431 0.79588 0.64374 0.0
O349 O 0.76577 0.82169 0.66742 0.0
O350 O 0.6998 0.76873 0.66342 0.0
O351 O 0.6836 0.82432 0.67595 0.0
C352 C 0.78688 0.98212 0.66623 0.0
C353 C 0.81541 0.97319 0.67773 0.0
H354 H 0.86636 0.94473 0.6999 0.0
H355 H 0.86007 0.87972 0.71298 0.0
H356 H 0.67681 0.93731 0.63972 0.0
H357 H 0.72814 0.98803 0.64436 0.0
H358 H 0.78932 0.00926 0.65963 0.0
H359 H 0.83936 0.99361 0.67978 0.0
Mn360 Mn 0.76004 0.24242 0.34546 0.0
Mn361 Mn 0.73401 0.15916 0.32646 0.0
C362 C 0.76966 0.18141 0.35697 0.0
C363 C 0.80463 0.29133 0.35282 0.0
C364 C 0.67472 0.21468 0.34104 0.0
O365 O 0.75786 0.2604 0.3226 0.0
O366 O 0.7408 0.20276 0.31107 0.0
C367 C 0.80714 0.1448 0.30843 0.0
N368 N 0.78005 0.13248 0.31915 0.0
C369 C 0.81464 0.0714 0.32304 0.0
C370 C 0.84278 0.08336 0.31198 0.0
C371 C 0.839 0.12022 0.30465 0.0
C372 C 0.78322 0.09691 0.32617 0.0
H373 H 0.80453 0.17322 0.30285 0.0
C374 C 0.74968 0.2395 0.31053 0.0
O375 O 0.76689 0.29694 0.35342 0.0
O376 O 0.81662 0.25786 0.3472 0.0
N377 N 0.72749 0.11521 0.34029 0.0
C378 C 0.69976 0.10958 0.35163 0.0
C379 C 0.70047 0.07491 0.36061 0.0
C380 C 0.72966 0.04645 0.35784 0.0
C381 C 0.75785 0.05287 0.34609 0.0
C382 C 0.75543 0.08781 0.33741 0.0
H383 H 0.67751 0.13156 0.35391 0.0
O384 O 0.76538 0.21253 0.36566 0.0
O385 O 0.76644 0.18686 0.34195 0.0
O386 O 0.69997 0.23902 0.34629 0.0
O387 O 0.68425 0.18353 0.33359 0.0
C388 C 0.78886 0.02647 0.34294 0.0
C389 C 0.81719 0.03569 0.3314 0.0
H390 H 0.86766 0.06469 0.30916 0.0
H391 H 0.86072 0.12974 0.29616 0.0
H392 H 0.67875 0.07027 0.36971 0.0
H393 H 0.73041 0.01997 0.36492 0.0
H394 H 0.79157 0.9993 0.34951 0.0
H395 H 0.84126 0.01546 0.32928 0.0
Mn396 Mn 0.79843 0.76756 0.84531 0.0
Mn397 Mn 0.82462 0.85106 0.8265 0.0
C398 C 0.78891 0.8284 0.85696 0.0
C399 C 0.75386 0.71856 0.85257 0.0
C400 C 0.8838 0.79529 0.84099 0.0
O401 O 0.80055 0.74993 0.8224 0.0
O402 O 0.81781 0.80768 0.81101 0.0
C403 C 0.75154 0.86572 0.80848 0.0
N404 N 0.77861 0.87787 0.81923 0.0
C405 C 0.74404 0.93891 0.82325 0.0
C406 C 0.71592 0.92713 0.81216 0.0
C407 C 0.7197 0.89038 0.80474 0.0
C408 C 0.77545 0.91334 0.82634 0.0
H409 H 0.75415 0.83738 0.80283 0.0
C410 C 0.80879 0.77099 0.81037 0.0
O411 O 0.7916 0.71294 0.85313 0.0
O412 O 0.74185 0.75211 0.84704 0.0
N413 N 0.83114 0.89482 0.84043 0.0
C414 C 0.85886 0.90028 0.85178 0.0
C415 C 0.85814 0.93482 0.86083 0.0
C416 C 0.82896 0.96334 0.85813 0.0
C417 C 0.80079 0.95709 0.84636 0.0
C418 C 0.80321 0.92228 0.8376 0.0
H419 H 0.88109 0.87826 0.85402 0.0
O420 O 0.79315 0.79714 0.86557 0.0
O421 O 0.7921 0.82319 0.84193 0.0
O422 O 0.85848 0.77089 0.84614 0.0
O423 O 0.87435 0.82656 0.8336 0.0
C424 C 0.76981 0.98354 0.84327 0.0
C425 C 0.74149 0.9745 0.8317 0.0
H426 H 0.69106 0.94585 0.80938 0.0
H427 H 0.698 0.88099 0.79623 0.0
H428 H 0.87985 0.93933 0.86996 0.0
H429 H 0.82821 0.98971 0.86527 0.0
H430 H 0.76709 0.01062 0.8499 0.0
H431 H 0.71744 0.99478 0.82961 0.0
Mn432 Mn 0.52011 0.52601 0.09498 0.0
Mn433 Mn 0.43755 0.55275 0.07567 0.0
C434 C 0.4589 0.51821 0.10653 0.0
C435 C 0.56748 0.47997 0.10244 0.0
C436 C 0.49442 0.61157 0.08976 0.0
O437 O 0.53812 0.52687 0.07208 0.0
O438 O 0.48073 0.54375 0.06031 0.0
C439 C 0.42094 0.4789 0.05845 0.0
N440 N 0.40952 0.50698 0.06891 0.0
C441 C 0.3476 0.47433 0.07331 0.0
C442 C 0.35863 0.44517 0.06252 0.0
C443 C 0.39545 0.44748 0.05506 0.0
C444 C 0.37398 0.50526 0.07604 0.0
H445 H 0.44933 0.48039 0.05278 0.0
C446 C 0.51735 0.53443 0.0599 0.0
O447 O 0.5747 0.51747 0.10283 0.0
O448 O 0.53346 0.46912 0.09702 0.0
N449 N 0.394 0.5614 0.08951 0.0
C450 C 0.38937 0.58992 0.10061 0.0
C451 C 0.3549 0.59066 0.10971 0.0
C452 C 0.32562 0.56208 0.10732 0.0
C453 C 0.33104 0.53302 0.09583 0.0
C454 C 0.36583 0.53399 0.08701 0.0
H455 H 0.412 0.61168 0.1026 0.0
O456 O 0.4901 0.5221 0.11521 0.0
O457 O 0.4645 0.52084 0.09151 0.0
O458 O 0.51803 0.5863 0.09555 0.0
O459 O 0.46349 0.6022 0.08213 0.0
C460 C 0.30379 0.50253 0.09309 0.0
C461 C 0.31202 0.47325 0.08181 0.0
H462 H 0.33927 0.42062 0.06001 0.0
H463 H 0.40426 0.42496 0.04678 0.0
H464 H 0.35103 0.61303 0.11862 0.0
H465 H 0.29929 0.56247 0.1145 0.0
H466 H 0.2767 0.50093 0.09977 0.0
H467 H 0.29113 0.44959 0.07999 0.0
Mn468 Mn 0.04056 0.48618 0.5948 0.0
Mn469 Mn 0.12443 0.45915 0.57647 0.0
C470 C 0.10108 0.49519 0.60677 0.0
C471 C 0.99176 0.53107 0.60189 0.0
C472 C 0.06751 0.40057 0.59061 0.0
O473 O 0.02373 0.48432 0.5718 0.0
O474 O 0.08169 0.46641 0.56072 0.0
C475 C 0.14056 0.53203 0.55851 0.0
N476 N 0.152 0.50487 0.56936 0.0
C477 C 0.21319 0.53886 0.57377 0.0
C478 C 0.20213 0.56707 0.56259 0.0
C479 C 0.16567 0.56362 0.55493 0.0
C480 C 0.1872 0.5077 0.57669 0.0
H481 H 0.11244 0.52968 0.55268 0.0
C482 C 0.04512 0.47585 0.55989 0.0
O483 O 0.9858 0.49338 0.60235 0.0
O484 O 0.02555 0.54289 0.59651 0.0
N485 N 0.16757 0.45222 0.59067 0.0
C486 C 0.17227 0.42451 0.60208 0.0
C487 C 0.20641 0.42494 0.61138 0.0
C488 C 0.23531 0.45384 0.60885 0.0
C489 C 0.22984 0.48201 0.59702 0.0
C490 C 0.19539 0.47988 0.58802 0.0
H491 H 0.14994 0.40251 0.60419 0.0
O492 O 0.06951 0.49112 0.61522 0.0
O493 O 0.09633 0.492 0.59172 0.0
O494 O 0.04323 0.42614 0.59562 0.0
O495 O 0.09918 0.40966 0.58342 0.0
C496 C 0.25671 0.51274 0.59409 0.0
C497 C 0.24843 0.5411 0.58246 0.0
H498 H 0.2212 0.59175 0.55993 0.0
H499 H 0.15684 0.5854 0.54635 0.0
H500 H 0.21031 0.40324 0.62054 0.0
H501 H 0.26137 0.45437 0.61618 0.0
H502 H 0.28351 0.51523 0.60091 0.0
H503 H 0.26901 0.56496 0.5805 0.0
Mn504 Mn 0.51806 0.48583 0.91388 0.0
Mn505 Mn 0.43538 0.45989 0.93331 0.0
C506 C 0.45671 0.49538 0.90266 0.0
C507 C 0.56675 0.53034 0.90623 0.0
C508 C 0.49032 0.40053 0.91845 0.0
O509 O 0.53677 0.48378 0.93665 0.0
O510 O 0.47953 0.4665 0.94845 0.0
C511 C 0.42194 0.53304 0.95143 0.0
N512 N 0.40912 0.506 0.94079 0.0
C513 C 0.34801 0.5408 0.93728 0.0
C514 C 0.36049 0.56888 0.94827 0.0
C515 C 0.39761 0.56498 0.95537 0.0
C516 C 0.3733 0.50929 0.93399 0.0
H517 H 0.45057 0.53034 0.95684 0.0
C518 C 0.51626 0.47546 0.94882 0.0
O519 O 0.57233 0.4926 0.90564 0.0
O520 O 0.53346 0.54238 0.91201 0.0
N521 N 0.39089 0.45354 0.91974 0.0
C522 C 0.38473 0.42583 0.90844 0.0
C523 C 0.34972 0.42666 0.89969 0.0
C524 C 0.32145 0.45593 0.90263 0.0
C525 C 0.32842 0.48408 0.91434 0.0
C526 C 0.36368 0.48155 0.9228 0.0
H527 H 0.40656 0.40352 0.90602 0.0
O528 O 0.48757 0.49104 0.89383 0.0
O529 O 0.4626 0.49228 0.91766 0.0
O530 O 0.51461 0.42575 0.91313 0.0
O531 O 0.45934 0.4101 0.92601 0.0
C532 C 0.30224 0.51516 0.91766 0.0
C533 C 0.31199 0.54346 0.92914 0.0
H534 H 0.34201 0.59381 0.9512 0.0
H535 H 0.40753 0.58666 0.9638 0.0
H536 H 0.34465 0.40496 0.89061 0.0
H537 H 0.2947 0.45676 0.89571 0.0
H538 H 0.27482 0.51796 0.91126 0.0
H539 H 0.29192 0.56759 0.9314 0.0
Mn540 Mn 0.04184 0.52397 0.41327 0.0
Mn541 Mn 0.12534 0.54996 0.43211 0.0
C542 C 0.10269 0.51463 0.40159 0.0
C543 C 0.99293 0.47937 0.40593 0.0
C544 C 0.06948 0.60931 0.4178 0.0
O545 O 0.02425 0.5257 0.43619 0.0
O546 O 0.08202 0.54288 0.4476 0.0
C547 C 0.14012 0.47663 0.44995 0.0
N548 N 0.15223 0.50387 0.43926 0.0
C549 C 0.2133 0.46943 0.43514 0.0
C550 C 0.20156 0.44113 0.44617 0.0
C551 C 0.16481 0.44476 0.4536 0.0
C552 C 0.18768 0.50085 0.43213 0.0
H553 H 0.11178 0.47912 0.45561 0.0
C554 C 0.04534 0.5338 0.44822 0.0
O555 O 0.98721 0.51709 0.40544 0.0
O556 O 0.02652 0.46738 0.41143 0.0
N557 N 0.16906 0.55672 0.41817 0.0
C558 C 0.17446 0.58459 0.40688 0.0
C559 C 0.20897 0.58404 0.3978 0.0
C560 C 0.23753 0.55487 0.40043 0.0
C561 C 0.23135 0.52653 0.41215 0.0
C562 C 0.19656 0.52879 0.42093 0.0
H563 H 0.1524 0.60683 0.40469 0.0
O564 O 0.07143 0.519 0.39299 0.0
O565 O 0.09746 0.51766 0.41663 0.0
O566 O 0.04507 0.58408 0.41258 0.0
O567 O 0.10078 0.59975 0.42514 0.0
C568 C 0.25785 0.49553 0.41516 0.0
C569 C 0.24887 0.46704 0.42667 0.0
H570 H 0.22031 0.41625 0.44888 0.0
H571 H 0.15546 0.42291 0.46206 0.0
H572 H 0.21343 0.60588 0.38873 0.0
H573 H 0.2639 0.55425 0.39328 0.0
H574 H 0.28492 0.49294 0.40852 0.0
H575 H 0.26917 0.44298 0.42869 0.0
H576 H 0.06125 0.14471 0.60255 0.0
H577 H 0.94792 0.17673 0.58327 0.0
H578 H 0.07923 0.21404 0.60402 0.0
H579 H 0.96626 0.24603 0.58459 0.0
H580 H 0.99875 0.36879 0.60171 0.0
H581 H 0.98063 0.29952 0.60327 0.0
H582 H 0.09493 0.26696 0.58526 0.0
H583 H 0.11339 0.33623 0.58386 0.0
C584 C 0.04002 0.16647 0.59871 0.0
C585 C 1.00314 0.15497 0.59272 0.0
C586 C 0.05049 0.20624 0.59947 0.0
C587 C 0.02429 0.23556 0.59434 0.0
C588 C 0.98701 0.2242 0.58876 0.0
C589 C 0.97659 0.1844 0.58792 0.0
C590 C 0.02023 0.34693 0.5982 0.0
C591 C 0.05754 0.35825 0.59259 0.0
C592 C 0.00968 0.30718 0.59901 0.0
C593 C 0.03623 0.27772 0.59431 0.0
C594 C 0.07389 0.28891 0.5891 0.0
C595 C 0.0844 0.32869 0.58821 0.0
H596 H 0.91644 0.72797 0.85308 0.0
H597 H 0.94762 0.84113 0.83342 0.0
H598 H 0.98589 0.71059 0.85464 0.0
H599 H 0.01706 0.82337 0.83482 0.0
H600 H 0.14054 0.79138 0.85158 0.0
H601 H 0.07121 0.8096 0.85323 0.0
H602 H 0.03841 0.69469 0.83593 0.0
H603 H 0.10756 0.67618 0.83446 0.0
C604 C 0.93803 0.7493 0.84918 0.0
C605 C 0.92626 0.78593 0.84303 0.0
C606 C 0.97789 0.73917 0.84999 0.0
C607 C 0.00703 0.76546 0.84476 0.0
C608 C 0.99539 0.80254 0.83907 0.0
C609 C 0.9555 0.81263 0.83818 0.0
C610 C 0.11858 0.76983 0.84825 0.0
C611 C 0.12979 0.73231 0.84282 0.0
C612 C 0.07881 0.78041 0.8491 0.0
C613 C 0.04926 0.75368 0.84466 0.0
C614 C 0.06039 0.71587 0.8396 0.0
C615 C 0.10013 0.70534 0.83866 0.0
H616 H 0.47259 0.67125 0.07024 0.0
H617 H 0.53889 0.64759 0.1125 0.0
H618 H 0.49218 0.74044 0.07155 0.0
H619 H 0.55748 0.7174 0.11395 0.0
H620 H 0.52666 0.86046 0.11366 0.0
H621 H 0.50892 0.79038 0.11456 0.0
H622 H 0.57239 0.77072 0.07144 0.0
H623 H 0.59115 0.84019 0.07067 0.0
C624 C 0.49089 0.68089 0.07992 0.0
C625 C 0.50425 0.65391 0.09126 0.0
C626 C 0.50217 0.72041 0.08061 0.0
C627 C 0.52628 0.73396 0.09283 0.0
C628 C 0.53878 0.70747 0.10445 0.0
C629 C 0.52824 0.66763 0.10357 0.0
C630 C 0.53718 0.84108 0.10447 0.0
C631 C 0.56033 0.85586 0.0921 0.0
C632 C 0.52711 0.8011 0.10503 0.0
C633 C 0.53926 0.77549 0.09304 0.0
C634 C 0.56269 0.79006 0.08079 0.0
C635 C 0.57351 0.82973 0.08041 0.0
H636 H 0.6111 0.1687 0.3334 0.0
H637 H 0.64181 0.28213 0.35291 0.0
H638 H 0.54165 0.18649 0.33446 0.0
H639 H 0.5723 0.29956 0.35414 0.0
H640 H 0.41775 0.21865 0.35052 0.0
H641 H 0.48702 0.20054 0.35258 0.0
H642 H 0.5203 0.31517 0.33512 0.0
H643 H 0.45117 0.33359 0.33324 0.0
C644 C 0.6031 0.19726 0.33806 0.0
C645 C 0.63223 0.22403 0.34297 0.0
C646 C 0.5632 0.20737 0.33875 0.0
C647 C 0.55142 0.24455 0.3443 0.0
C648 C 0.58042 0.27091 0.3496 0.0
C649 C 0.6203 0.26075 0.34898 0.0
C650 C 0.43979 0.24017 0.34723 0.0
C651 C 0.42873 0.27757 0.34164 0.0
C652 C 0.47952 0.22965 0.34833 0.0
C653 C 0.5092 0.25633 0.34396 0.0
C654 C 0.49821 0.29404 0.33874 0.0
C655 C 0.45849 0.30451 0.33756 0.0
H656 H 0.06593 0.86624 0.40807 0.0
H657 H 0.95093 0.83326 0.42541 0.0
H658 H 0.08389 0.7969 0.40614 0.0
H659 H 0.9692 0.76408 0.42367 0.0
H660 H 1.00191 0.64229 0.40604 0.0
H661 H 0.9846 0.71182 0.40477 0.0
H662 H 0.09788 0.74239 0.42428 0.0
H663 H 0.11555 0.67291 0.42538 0.0
C664 C 0.04437 0.84429 0.41139 0.0
C665 C 0.00699 0.85549 0.41696 0.0
C666 C 0.0548 0.80451 0.41037 0.0
C667 C 0.02806 0.77493 0.4148 0.0
C668 C 0.99039 0.78608 0.42001 0.0
C669 C 0.98 0.82583 0.42111 0.0
C670 C 0.02335 0.66378 0.40993 0.0
C671 C 0.06011 0.65182 0.4159 0.0
C672 C 0.01327 0.70368 0.40929 0.0
C673 C 0.03973 0.73267 0.41452 0.0
C674 C 0.07692 0.72085 0.42004 0.0
C675 C 0.08696 0.68093 0.42075 0.0
H676 H 0.45027 0.67366 0.67612 0.0
H677 H 0.41829 0.78755 0.65735 0.0
H678 H 0.51962 0.69184 0.67469 0.0
H679 H 0.48764 0.80536 0.65578 0.0
H680 H 0.61022 0.83873 0.67574 0.0
H681 H 0.54089 0.82045 0.67446 0.0
H682 H 0.57287 0.70653 0.65592 0.0
H683 H 0.64222 0.72447 0.65735 0.0
C684 C 0.45796 0.70242 0.67156 0.0
C685 C 0.42853 0.72917 0.66694 0.0
C686 C 0.49778 0.71275 0.67066 0.0
C687 C 0.50916 0.75013 0.66519 0.0
C688 C 0.47983 0.77654 0.66024 0.0
C689 C 0.44004 0.76616 0.66106 0.0
C690 C 0.60254 0.80986 0.6713 0.0
C691 C 0.63196 0.78305 0.66673 0.0
C692 C 0.56273 0.79946 0.67048 0.0
C693 C 0.55135 0.76196 0.66515 0.0
C694 C 0.58068 0.73546 0.66027 0.0
C695 C 0.62046 0.7459 0.661 0.0
H696 H 0.55738 0.36755 0.90626 0.0
H697 H 0.44442 0.33697 0.92625 0.0
H698 H 0.57464 0.29803 0.9049 0.0
H699 H 0.46206 0.26748 0.92506 0.0
H700 H 0.49359 0.14359 0.9088 0.0
H701 H 0.47554 0.2129 0.90684 0.0
H702 H 0.59066 0.24595 0.92383 0.0
H703 H 0.60901 0.17679 0.92561 0.0
C704 C 0.53607 0.34607 0.91027 0.0
C705 C 0.49954 0.35803 0.91645 0.0
C706 C 0.54612 0.30618 0.90958 0.0
C707 C 0.51986 0.2772 0.91496 0.0
C708 C 0.48286 0.28902 0.92069 0.0
C709 C 0.47284 0.32894 0.92145 0.0
C710 C 0.51523 0.16559 0.912 0.0
C711 C 0.55275 0.15446 0.91743 0.0
C712 C 0.50474 0.20535 0.91096 0.0
C713 C 0.53158 0.23497 0.91523 0.0
C714 C 0.5694 0.2239 0.9203 0.0
C715 C 0.57983 0.18417 0.92141 0.0
H716 H 0.11489 0.31657 0.18854 0.0
H717 H 0.13498 0.25243 0.14546 0.0
H718 H 0.04541 0.29786 0.18779 0.0
H719 H 0.06489 0.23473 0.14458 0.0
H720 H 0.92223 0.26417 0.14663 0.0
H721 H 0.99202 0.28285 0.14518 0.0
H722 H 0.01499 0.21805 0.18772 0.0
H723 H 0.94582 0.19836 0.18901 0.0
C724 C 0.10439 0.29903 0.17878 0.0
C725 C 0.13047 0.28592 0.16707 0.0
C726 C 0.06471 0.28823 0.17841 0.0
C727 C 0.05008 0.2649 0.16615 0.0
C728 C 0.07564 0.25285 0.15413 0.0
C729 C 0.11564 0.26289 0.15467 0.0
C730 C 0.94226 0.25365 0.15559 0.0
C731 C 0.92853 0.22977 0.16793 0.0
C732 C 0.98208 0.26425 0.15472 0.0
C733 C 0.00855 0.25191 0.16637 0.0
C734 C 0.99498 0.22792 0.17863 0.0
C735 C 0.95548 0.21658 0.17931 0.0
H736 H 0.00719 0.92782 0.47494 0.0
H737 H 0.06533 0.03409 0.45965 0.0
H738 H 0.02205 0.94421 0.50222 0.0
H739 H 0.07931 0.0511 0.4871 0.0
H740 H 0.06507 0.97728 0.55027 0.0
H741 H 0.07905 0.96035 0.52282 0.0
H742 H 0.02261 0.06775 0.50777 0.0
H743 H 0.00772 0.08404 0.53506 0.0
C744 C 0.02412 0.95413 0.47742 0.0
C745 C 0.03507 0.97973 0.46524 0.0
C746 C 0.03279 0.96342 0.49301 0.0
C747 C 0.05177 0.99893 0.49673 0.0
C748 C 0.06476 0.02348 0.48449 0.0
C749 C 0.05692 0.01368 0.46883 0.0
C750 C 0.05691 0.99785 0.54111 0.0
C751 C 0.03526 0.0319 0.54472 0.0
C752 C 0.06473 0.98808 0.52544 0.0
C753 C 0.0519 0.01276 0.51322 0.0
C754 C 0.03322 0.04843 0.51697 0.0
C755 C 0.02457 0.05768 0.53256 0.0
H756 H 0.20221 0.73231 0.78507 0.0
H757 H 0.3087 0.79009 0.80033 0.0
H758 H 0.21852 0.74728 0.75779 0.0
H759 H 0.32564 0.80415 0.77288 0.0
H760 H 0.35795 0.73275 0.72476 0.0
H761 H 0.3419 0.74737 0.75209 0.0
H762 H 0.23476 0.80466 0.73728 0.0
H763 H 0.25146 0.79096 0.70977 0.0
C764 C 0.22856 0.74918 0.78258 0.0
C765 C 0.25423 0.76001 0.79475 0.0
C766 C 0.2378 0.75791 0.767 0.0
C767 C 0.27335 0.77683 0.76326 0.0
C768 C 0.29799 0.78967 0.77549 0.0
C769 C 0.28823 0.78177 0.79115 0.0
C770 C 0.3317 0.74971 0.72732 0.0
C771 C 0.30592 0.76073 0.71521 0.0
C772 C 0.32259 0.75821 0.74294 0.0
C773 C 0.28707 0.77707 0.74676 0.0
C774 C 0.26239 0.79021 0.7346 0.0
C775 C 0.27202 0.78254 0.7189 0.0
H776 H 0.55004 0.92694 0.03596 0.0
H777 H 0.49639 0.03559 0.05113 0.0
H778 H 0.53503 0.94325 0.00868 0.0
H779 H 0.48231 0.05259 0.02367 0.0
H780 H 0.49341 0.97775 0.96057 0.0
H781 H 0.47901 0.96144 0.98804 0.0
H782 H 0.53941 0.06675 1.00297 0.0
H783 H 0.55465 0.08245 0.97566 0.0
C784 C 0.53386 0.95371 0.03345 0.0
C785 C 0.52425 0.97999 0.04557 0.0
C786 C 0.52517 0.963 0.01787 0.0
C787 C 0.50759 0.99921 0.0141 0.0
C788 C 0.49576 0.02443 0.02631 0.0
C789 C 0.5036 0.01464 0.04197 0.0
C790 C 0.50248 0.99798 0.96971 0.0
C791 C 0.5253 0.03124 0.96605 0.0
C792 C 0.49436 0.98859 0.98539 0.0
C793 C 0.50807 0.01287 0.99758 0.0
C794 C 0.5281 0.04777 0.99379 0.0
C795 C 0.53701 0.05664 0.97819 0.0
H796 H 0.20165 0.27584 0.22322 0.0
H797 H 0.30958 0.22088 0.20797 0.0
H798 H 0.21775 0.2604 0.25047 0.0
H799 H 0.32639 0.20634 0.23541 0.0
H800 H 0.25148 0.21845 0.29854 0.0
H801 H 0.23509 0.20419 0.27106 0.0
H802 H 0.34141 0.26289 0.25618 0.0
H803 H 0.3572 0.27799 0.28348 0.0
C804 C 0.22821 0.2593 0.2257 0.0
C805 C 0.25436 0.24945 0.21356 0.0
C806 C 0.23738 0.25035 0.24127 0.0
C807 C 0.27334 0.23226 0.24502 0.0
C808 C 0.29842 0.22019 0.23279 0.0
C809 C 0.28874 0.2283 0.21713 0.0
C810 C 0.27192 0.22713 0.28941 0.0
C811 C 0.3055 0.24946 0.29307 0.0
C812 C 0.26247 0.21911 0.27372 0.0
C813 C 0.28701 0.23243 0.26154 0.0
C814 C 0.32221 0.25189 0.26534 0.0
C815 C 0.33115 0.26071 0.28095 0.0
H816 H 0.85692 0.2338 0.22443 0.0
H817 H 0.74765 0.28702 0.20971 0.0
H818 H 0.84092 0.24812 0.25179 0.0
H819 H 0.731 0.30041 0.23726 0.0
H820 H 0.70258 0.22752 0.28527 0.0
H821 H 0.71747 0.2433 0.25795 0.0
H822 H 0.82303 0.30372 0.27259 0.0
H823 H 0.80748 0.28877 0.3001 0.0
C824 C 0.83003 0.24966 0.22706 0.0
C825 C 0.80351 0.25936 0.21502 0.0
C826 C 0.82093 0.25799 0.24269 0.0
C827 C 0.78471 0.27532 0.24661 0.0
C828 C 0.75918 0.28716 0.23451 0.0
C829 C 0.76876 0.27968 0.21879 0.0
C830 C 0.72822 0.24535 0.28269 0.0
C831 C 0.75392 0.2569 0.29475 0.0
C832 C 0.73665 0.25454 0.26707 0.0
C833 C 0.77142 0.27467 0.26318 0.0
C834 C 0.79597 0.28828 0.27531 0.0
C835 C 0.78701 0.27988 0.29102 0.0
H836 H 0.70209 0.77857 0.72406 0.0
H837 H 0.81058 0.72341 0.70954 0.0
H838 H 0.71771 0.7643 0.75146 0.0
H839 H 0.82685 0.71009 0.73712 0.0
H840 H 0.85598 0.7829 0.78513 0.0
H841 H 0.84095 0.76757 0.75777 0.0
H842 H 0.73479 0.70804 0.77231 0.0
H843 H 0.75048 0.72249 0.79985 0.0
C844 C 0.72871 0.76232 0.72673 0.0
C845 C 0.75513 0.75204 0.71474 0.0
C846 C 0.73759 0.75403 0.74239 0.0
C847 C 0.7735 0.73615 0.74638 0.0
C848 C 0.79891 0.72377 0.73431 0.0
C849 C 0.78953 0.73121 0.71857 0.0
C850 C 0.83016 0.76535 0.78251 0.0
C851 C 0.80437 0.75387 0.79455 0.0
C852 C 0.82165 0.75643 0.76687 0.0
C853 C 0.78669 0.73667 0.76295 0.0
C854 C 0.76199 0.72319 0.77506 0.0
C855 C 0.77104 0.73129 0.79078 0.0
H856 H 0.50599 0.42764 0.97396 0.0
H857 H 0.56454 0.53411 0.95919 0.0
H858 H 0.5216 0.4427 1.00129 0.0
H859 H 0.57931 0.54981 0.98669 0.0
H860 H 0.50831 0.58215 0.03469 0.0
H861 H 0.5234 0.5664 0.00738 0.0
H862 H 0.5778 0.45765 0.02209 0.0
H863 H 0.56357 0.47405 0.04959 0.0
C864 C 0.52326 0.45366 0.97656 0.0
C865 C 0.53404 0.47975 0.96452 0.0
C866 C 0.53234 0.4622 0.99218 0.0
C867 C 0.55158 0.49746 0.99608 0.0
C868 C 0.56456 0.52238 0.98396 0.0
C869 C 0.55627 0.51333 0.96825 0.0
C870 C 0.52475 0.55557 0.03212 0.0
C871 C 0.53479 0.52929 0.04419 0.0
C872 C 0.53354 0.54664 0.01651 0.0
C873 C 0.55171 0.51079 0.01265 0.0
C874 C 0.56389 0.48553 0.02479 0.0
C875 C 0.55592 0.49497 0.04049 0.0
H876 H 0.99753 0.5346 0.54909 0.0
H877 H 0.05742 0.42851 0.53472 0.0
H878 H 0.98393 0.55027 0.52148 0.0
H879 H 0.0429 0.44352 0.50728 0.0
H880 H 0.99904 0.47397 0.45889 0.0
H881 H 0.98548 0.45802 0.48649 0.0
H882 H 0.04102 0.56654 0.50074 0.0
H883 H 0.05555 0.58182 0.47332 0.0
C884 C 0.00641 0.51392 0.54008 0.0
C885 C 0.02859 0.48041 0.54398 0.0
C886 C 0.99879 0.52296 0.52432 0.0
C887 C 0.01233 0.49806 0.5123 0.0
C888 C 0.03173 0.46298 0.51632 0.0
C889 C 0.04018 0.45447 0.532 0.0
C890 C 0.0071 0.49496 0.46791 0.0
C891 C 0.02835 0.52908 0.46404 0.0
C892 C 0.99953 0.48576 0.48366 0.0
C893 C 0.01219 0.51109 0.4957 0.0
C894 C 0.03055 0.54674 0.49169 0.0
C895 C 0.03898 0.55542 0.47602 0.0
H896 H 0.27412 0.86335 0.64184 0.0
H897 H 0.17535 0.79199 0.65637 0.0
H898 H 0.22968 0.90764 0.62815 0.0
H899 H 0.13049 0.83723 0.64307 0.0
H900 H 0.06559 0.90183 0.60377 0.0
H901 H 0.11076 0.85704 0.61714 0.0
H902 H 0.18085 0.95633 0.63217 0.0
H903 H 0.13663 1.0007 0.61841 0.0
C904 C 0.2428 0.85745 0.64233 0.0
C905 C 0.22827 0.82415 0.65021 0.0
C906 C 0.21725 0.88296 0.63449 0.0
C907 C 0.17643 0.87602 0.63443 0.0
C908 C 0.1618 0.84312 0.64263 0.0
C909 C 0.18746 0.81741 0.6504 0.0
C910 C 0.09092 0.91397 0.60978 0.0
C911 C 0.0976 0.95479 0.60997 0.0
C912 C 0.11659 0.88836 0.6176 0.0
C913 C 0.14939 0.90303 0.62584 0.0
C914 C 0.15625 0.94386 0.6258 0.0
C915 C 0.13078 0.96937 0.61792 0.0
H916 H 0.29954 0.87342 0.85537 0.0
H917 H 0.37459 0.7749 0.86654 0.0
H918 H 0.34495 0.91773 0.86868 0.0
H919 H 0.41853 0.81823 0.88092 0.0
H920 H 0.50934 0.90936 0.89466 0.0
H921 H 0.46585 0.86539 0.88037 0.0
H922 H 0.36658 0.93936 0.89254 0.0
H923 H 0.41105 0.98478 0.90576 0.0
C924 C 0.32581 0.86131 0.86073 0.0
C925 C 0.33374 0.82086 0.85983 0.0
C926 C 0.35168 0.88659 0.86858 0.0
C927 C 0.38555 0.87183 0.87613 0.0
C928 C 0.3934 0.83116 0.87506 0.0
C929 C 0.36809 0.80612 0.86684 0.0
C930 C 0.47813 0.91593 0.89437 0.0
C931 C 0.46351 0.9504 0.90133 0.0
C932 C 0.453 0.89061 0.8862 0.0
C933 C 0.41236 0.89857 0.88513 0.0
C934 C 0.3977 0.93254 0.89265 0.0
C935 C 0.42307 0.95842 0.90045 0.0
H936 H 0.42277 0.00887 0.11896 0.0
H937 H 0.49375 0.10754 0.10406 0.0
H938 H 0.37731 0.05375 0.13193 0.0
H939 H 0.44764 0.15264 0.11668 0.0
H940 H 0.38209 0.21907 0.15511 0.0
H941 H 0.42719 0.17299 0.14249 0.0
H942 H 0.3283 0.10283 0.12713 0.0
H943 H 0.2834 0.14827 0.14011 0.0
C944 C 0.42839 0.04021 0.11827 0.0
C945 C 0.46191 0.05462 0.11048 0.0
C946 C 0.40223 0.06599 0.12568 0.0
C947 C 0.40885 0.10687 0.12545 0.0
C948 C 0.44198 0.12131 0.11735 0.0
C949 C 0.46823 0.09548 0.10998 0.0
C950 C 0.37003 0.1936 0.14917 0.0
C951 C 0.32917 0.18731 0.14864 0.0
C952 C 0.39586 0.16736 0.14179 0.0
C953 C 0.38143 0.13428 0.13367 0.0
C954 C 0.34054 0.1277 0.1334 0.0
C955 C 0.31475 0.15385 0.14082 0.0
H956 H 0.04967 0.10032 0.39345 0.0
H957 H 0.1483 0.02529 0.40448 0.0
H958 H 0.09283 0.14415 0.37893 0.0
H959 H 0.19245 0.0706 0.39103 0.0
H960 H 0.25899 0.13621 0.35366 0.0
H961 H 0.21375 0.09196 0.36709 0.0
H962 H 0.14004 0.19144 0.37923 0.0
H963 H 0.18381 0.2347 0.36473 0.0
C964 C 0.08089 0.0938 0.39309 0.0
C965 C 0.09569 0.05948 0.4001 0.0
C966 C 0.10583 0.11906 0.38479 0.0
C967 C 0.14648 0.11117 0.38363 0.0
C968 C 0.16132 0.07735 0.3912 0.0
C969 C 0.13613 0.05154 0.39913 0.0
C970 C 0.23272 0.14832 0.35901 0.0
C971 C 0.22471 0.18876 0.35806 0.0
C972 C 0.20694 0.12308 0.36693 0.0
C973 C 0.1731 0.13786 0.37451 0.0
C974 C 0.16515 0.17849 0.37336 0.0
C975 C 0.19036 0.20349 0.36507 0.0
H976 H 0.92565 0.05462 0.41522 0.0
H977 H 0.92117 0.97739 0.37508 0.0
H978 H 0.87224 0.09395 0.40438 0.0
H979 H 0.86838 0.01825 0.36373 0.0
H980 H 0.83408 0.14755 0.34444 0.0
H981 H 0.8737 0.0941 0.35515 0.0
H982 H 0.7969 0.08797 0.39543 0.0
H983 H 0.75591 0.14083 0.38424 0.0
C984 C 0.91235 0.04542 0.40427 0.0
C985 C 0.92635 0.01209 0.39627 0.0
C986 C 0.88191 0.06803 0.39805 0.0
C987 C 0.86579 0.0587 0.38338 0.0
C988 C 0.88003 0.02562 0.3752 0.0
C989 C 0.91015 1.00242 0.38162 0.0
C990 C 0.82478 0.13377 0.35529 0.0
C991 C 0.79113 0.14714 0.36324 0.0
C992 C 0.84752 0.10329 0.36143 0.0
C993 C 0.83793 0.08651 0.37596 0.0
C994 C 0.80449 0.10013 0.38407 0.0
C995 C 0.78122 0.1303 0.37774 0.0
H996 H 0.64412 0.97863 0.13416 0.0
H997 H 0.63456 0.05858 0.09502 0.0
H998 H 0.69714 0.01966 0.14523 0.0
H999 H 0.68829 0.09814 0.10556 0.0
H1000 H 0.80688 0.14396 0.1252 0.0
H1001 H 0.76592 0.09115 0.1139 0.0
H1002 H 0.68931 0.09651 0.15424 0.0
H1003 H 0.72864 0.15006 0.165 0.0
C1004 C 0.65409 1.00432 0.12776 0.0
C1005 C 0.6364 0.01474 0.11347 0.0
C1006 C 0.68436 0.02759 0.13402 0.0
C1007 C 0.69726 0.06147 0.12602 0.0
C1008 C 0.67964 0.07159 0.11171 0.0
C1009 C 0.64903 0.04888 0.10567 0.0
C1010 C 0.78163 0.13326 0.13169 0.0
C1011 C 0.77169 0.1499 0.14623 0.0
C1012 C 0.75839 0.10312 0.1253 0.0
C1013 C 0.72507 0.0893 0.13342 0.0
C1014 C 0.71544 0.10587 0.14797 0.0
C1015 C 0.73806 0.13637 0.15415 0.0
H1016 H 0.80286 0.86855 0.88431 0.0
H1017 H 0.72451 0.8626 0.84455 0.0
H1018 H 0.76205 0.92135 0.89565 0.0
H1019 H 0.68504 0.91595 0.85542 0.0
H1020 H 0.63763 0.03226 0.87556 0.0
H1021 H 0.69021 0.99139 0.86407 0.0
H1022 H 0.68717 0.91584 0.90478 0.0
H1023 H 0.634 0.95523 0.91578 0.0
C1024 C 0.77754 0.87922 0.87786 0.0
C1025 C 0.76753 0.86262 0.86332 0.0
C1026 C 0.75436 0.90936 0.88428 0.0
C1027 C 0.72092 0.92317 0.87622 0.0
C1028 C 0.71122 0.90662 0.86166 0.0
C1029 C 0.73388 0.87619 0.85543 0.0
C1030 C 0.64879 0.00726 0.88208 0.0
C1031 C 0.63289 0.99765 0.89679 0.0
C1032 C 0.67879 0.98404 0.87557 0.0
C1033 C 0.69318 0.95098 0.88372 0.0
C1034 C 0.67738 0.94173 0.89846 0.0
C1035 C 0.64706 0.96437 0.90477 0.0
H1036 H 0.83285 0.86133 0.66485 0.0
H1037 H 0.75476 0.86721 0.625 0.0
H1038 H 0.87223 0.91482 0.65406 0.0
H1039 H 0.79562 0.92006 0.61371 0.0
H1040 H 0.91863 0.03182 0.63412 0.0
H1041 H 0.86587 0.99073 0.64533 0.0
H1042 H 0.87162 0.91431 0.60493 0.0
H1043 H 0.92506 0.95393 0.59422 0.0
C1044 C 0.8235 0.87494 0.65397 0.0
C1045 C 0.78992 0.86134 0.64604 0.0
C1046 C 0.84612 0.90542 0.64778 0.0
C1047 C 0.83651 0.92197 0.63321 0.0
C1048 C 0.8032 0.90809 0.6251 0.0
C1049 C 0.78001 0.87792 0.63149 0.0
C1050 C 0.90804 0.00658 0.6276 0.0
C1051 C 0.92478 0.99677 0.61306 0.0
C1052 C 0.87792 0.98325 0.63394 0.0
C1053 C 0.86424 0.9499 0.6258 0.0
C1054 C 0.88087 0.94043 0.61123 0.0
C1055 C 0.91133 0.9632 0.60509 0.0
H1056 H 0.68448 0.27487 0.14322 0.0
H1057 H 0.76045 0.37265 0.15436 0.0
H1058 H 0.64045 0.31872 0.12916 0.0
H1059 H 0.71492 0.41754 0.14141 0.0
H1060 H 0.64736 0.48603 0.10501 0.0
H1061 H 0.69219 0.44046 0.11798 0.0
H1062 H 0.59336 0.36575 0.12999 0.0
H1063 H 0.54957 0.40982 0.11592 0.0
C1064 C 0.69118 0.30605 0.14298 0.0
C1065 C 0.72579 0.32041 0.1499 0.0
C1066 C 0.6658 0.33141 0.13495 0.0
C1067 C 0.67378 0.37208 0.134 0.0
C1068 C 0.70801 0.38645 0.14143 0.0
C1069 C 0.73397 0.36082 0.14908 0.0
C1070 C 0.63552 0.45949 0.11026 0.0
C1071 C 0.59512 0.45126 0.10936 0.0
C1072 C 0.66111 0.4335 0.1179 0.0
C1073 C 0.64671 0.39919 0.12527 0.0
C1074 C 0.60607 0.39116 0.12425 0.0
C1075 C 0.58074 0.41658 0.11622 0.0
H1076 H 0.88524 0.28837 0.35329 0.0
H1077 H 0.78656 0.35948 0.36809 0.0
H1078 H 0.93024 0.33385 0.36636 0.0
H1079 H 0.83119 0.40408 0.38155 0.0
H1080 H 0.92455 0.49749 0.39083 0.0
H1081 H 0.87989 0.45295 0.37736 0.0
H1082 H 0.95056 0.35385 0.39216 0.0
H1083 H 0.99609 0.39877 0.40525 0.0
C1084 C 0.87317 0.31379 0.35927 0.0
C1085 C 0.83234 0.32037 0.3596 0.0
C1086 C 0.89893 0.33965 0.36692 0.0
C1087 C 0.8844 0.37258 0.37512 0.0
C1088 C 0.84355 0.37938 0.3752 0.0
C1089 C 0.81789 0.35369 0.3675 0.0
C1090 C 0.93042 0.46617 0.39133 0.0
C1091 C 0.96388 0.45168 0.39913 0.0
C1092 C 0.9047 0.44056 0.38362 0.0
C1093 C 0.9116 0.39972 0.38359 0.0
C1094 C 0.94468 0.38516 0.39169 0.0
C1095 C 0.97057 0.41086 0.39934 0.0
H1096 H 0.92329 0.51295 0.61686 0.0
H1097 H 0.99528 0.61168 0.60281 0.0
H1098 H 0.87903 0.55726 0.6306 0.0
H1099 H 0.95003 0.65647 0.61615 0.0
H1100 H 0.88526 0.72083 0.65558 0.0
H1101 H 0.92999 0.67591 0.64203 0.0
H1102 H 0.83059 0.60621 0.62682 0.0
H1103 H 0.78631 0.65013 0.64077 0.0
C1104 C 0.92932 0.54425 0.61648 0.0
C1105 C 0.96281 0.55879 0.60872 0.0
C1106 C 0.90382 0.56975 0.62434 0.0
C1107 C 0.91093 0.61053 0.62456 0.0
C1108 C 0.94399 0.62518 0.61647 0.0
C1109 C 0.96971 0.59957 0.60867 0.0
C1110 C 0.87309 0.69563 0.64949 0.0
C1111 C 0.83227 0.68895 0.64932 0.0
C1112 C 0.89867 0.67011 0.64157 0.0
C1113 C 0.88395 0.63748 0.63323 0.0
C1114 C 0.84311 0.63065 0.63327 0.0
C1115 C 0.81764 0.65595 0.64126 0.0
H1116 H 0.77209 0.64999 0.86749 0.0
H1117 H 0.67326 0.72175 0.85337 0.0
H1118 H 0.72769 0.60529 0.88101 0.0
H1119 H 0.62846 0.67617 0.86651 0.0
H1120 H 0.56381 0.61095 0.9057 0.0
H1121 H 0.60897 0.65586 0.8924 0.0
H1122 H 0.67864 0.55669 0.87693 0.0
H1123 H 0.63437 0.51215 0.89061 0.0
C1124 C 0.74077 0.6559 0.86706 0.0
C1125 C 0.72621 0.68944 0.85934 0.0
C1126 C 0.71524 0.63015 0.8748 0.0
C1127 C 0.67442 0.63711 0.87494 0.0
C1128 C 0.65977 0.67024 0.8669 0.0
C1129 C 0.6854 0.69616 0.85921 0.0
C1130 C 0.58904 0.59884 0.8996 0.0
C1131 C 0.59558 0.558 0.89927 0.0
C1132 C 0.61471 0.62454 0.89183 0.0
C1133 C 0.64739 0.60996 0.88348 0.0
C1134 C 0.65413 0.56909 0.88338 0.0
C1135 C 0.62863 0.54348 0.89121 0.0
H1136 H 0.41546 0.48133 0.87559 0.0
H1137 H 0.423 0.55981 0.91527 0.0
H1138 H 0.36227 0.52216 0.86455 0.0
H1139 H 0.3692 0.59925 0.90472 0.0
H1140 H 0.25188 0.64631 0.88498 0.0
H1141 H 0.29296 0.59363 0.8963 0.0
H1142 H 0.36838 0.59765 0.85557 0.0
H1143 H 0.32889 0.65096 0.84477 0.0
C1144 C 0.40504 0.50667 0.8821 0.0
C1145 C 0.42222 0.51672 0.89653 0.0
C1146 C 0.37467 0.52984 0.87586 0.0
C1147 C 0.36119 0.5633 0.88399 0.0
C1148 C 0.37829 0.57303 0.89844 0.0
C1149 C 0.40896 0.55039 0.90449 0.0
C1150 C 0.2769 0.63535 0.87842 0.0
C1151 C 0.28645 0.65156 0.86376 0.0
C1152 C 0.30022 0.60529 0.88483 0.0
C1153 C 0.33328 0.59112 0.87661 0.0
C1154 C 0.34248 0.60726 0.86193 0.0
C1155 C 0.31977 0.63765 0.85574 0.0
H1156 H 0.13575 0.55927 0.59435 0.0
H1157 H 0.14023 0.48178 0.63441 0.0
H1158 H 0.18887 0.59879 0.60533 0.0
H1159 H 0.19278 0.52272 0.64588 0.0
H1160 H 0.22726 0.65149 0.66546 0.0
H1161 H 0.18758 0.59826 0.65463 0.0
H1162 H 0.26413 0.59287 0.61426 0.0
H1163 H 0.3052 0.64549 0.62557 0.0
C1164 C 0.14896 0.5501 0.60533 0.0
C1165 C 0.13508 0.51664 0.61326 0.0
C1166 C 0.17925 0.5728 0.61163 0.0
C1167 C 0.19533 0.56337 0.6263 0.0
C1168 C 0.18116 0.53018 0.63442 0.0
C1169 C 0.15117 0.50693 0.62793 0.0
C1170 C 0.23651 0.6379 0.65457 0.0
C1171 C 0.27011 0.65142 0.64662 0.0
C1172 C 0.21372 0.60756 0.64836 0.0
C1173 C 0.22321 0.59108 0.63376 0.0
C1174 C 0.25661 0.60482 0.62566 0.0
C1175 C 0.27993 0.63485 0.63206 0.0
H1176 H 0.14303 0.52856 0.37426 0.0
H1177 H 0.13657 0.45005 0.41396 0.0
H1178 H 0.19585 0.48767 0.36296 0.0
H1179 H 0.18994 0.41053 0.40314 0.0
H1180 H 0.30651 0.36323 0.38325 0.0
H1181 H 0.26562 0.41597 0.39461 0.0
H1182 H 0.19024 0.4125 0.35386 0.0
H1183 H 0.22962 0.35913 0.343 0.0
C1184 C 0.15358 0.50318 0.38071 0.0
C1185 C 0.13684 0.49316 0.39522 0.0
C1186 C 0.18373 0.47997 0.37432 0.0
C1187 C 0.19742 0.44648 0.38238 0.0
C1188 C 0.1807 0.43675 0.39691 0.0
C1189 C 0.15026 0.45944 0.40311 0.0
C1190 C 0.28155 0.37433 0.3767 0.0
C1191 C 0.27197 0.35823 0.36202 0.0
C1192 C 0.25833 0.40443 0.38312 0.0
C1193 C 0.22531 0.41874 0.37493 0.0
C1194 C 0.2161 0.40277 0.36022 0.0
C1195 C 0.23874 0.37234 0.35399 0.0
H1196 H 0.42465 0.45397 0.09408 0.0
H1197 H 0.4185 0.5323 0.13385 0.0
H1198 H 0.37106 0.41468 0.10485 0.0
H1199 H 0.36568 0.49138 0.14516 0.0
H1200 H 0.33322 0.36005 0.1641 0.0
H1201 H 0.37275 0.41377 0.15352 0.0
H1202 H 0.29418 0.4225 0.11388 0.0
H1203 H 0.25319 0.36951 0.12499 0.0
C1204 C 0.41094 0.46342 0.10493 0.0
C1205 C 0.42447 0.49706 0.11283 0.0
C1206 C 0.38042 0.44083 0.1111 0.0
C1207 C 0.36383 0.45049 0.12566 0.0
C1208 C 0.37765 0.48383 0.13376 0.0
C1209 C 0.4078 0.50704 0.12737 0.0
C1210 C 0.32349 0.3745 0.15345 0.0
C1211 C 0.28933 0.36185 0.14567 0.0
C1212 C 0.34619 0.4051 0.14739 0.0
C1213 C 0.33603 0.42268 0.13307 0.0
C1214 C 0.30214 0.40976 0.1251 0.0
C1215 C 0.27888 0.3795 0.13138 0.0
loop_
_geom_bond_atom_site_label_1
_geom_bond_atom_site_label_2
_geom_bond_distance
_geom_bond_site_symmetry_2
_ccdc_geom_bond_type
Mn0 O5 2.095 . S
Mn0 O15 2.162 . S
Mn0 O16 2.297 1_545 S
Mn0 O24 2.385 1_455 S
Mn0 O25 2.209 1_455 S
Mn0 O26 2.094 . S
Mn1 O6 2.121 . S
Mn1 N8 2.257 . S
Mn1 N17 2.282 . S
Mn1 O25 2.215 . S
Mn1 O27 2.117 . S
C2 O24 1.234 . S
C2 O25 1.283 . S
C3 O15 1.281 1_565 S
C3 O16 1.236 . S
C4 O26 1.242 1_655 S
C4 O27 1.262 . S
O5 Mn0 2.095 . S
O5 C14 1.250 . S
O6 Mn1 2.121 . S
O6 C14 1.258 1_655 S
C7 N8 1.326 1_565 S
C7 C11 1.460 . S
C7 H13 0.929 . S
N8 Mn1 2.257 . S
N8 C7 1.326 1_545 S
N8 C12 1.362 . S
C9 C10 1.258 . S
C9 C12 1.431 1_565 S
C9 C29 1.446 1_565 S
C10 C9 1.258 . S
C10 C11 1.477 . S
C10 H30 0.931 . S
C11 C7 1.460 . S
C11 C10 1.477 . S
C11 H31 0.930 . S
C12 N8 1.362 . S
C12 C9 1.431 1_545 S
C12 C22 1.476 . S
H13 C7 0.929 . S
C14 O5 1.250 . S
C14 O6 1.258 1_455 S
O15 Mn0 2.162 . S
O15 C3 1.281 1_545 S
O16 Mn0 2.297 1_565 S
O16 C3 1.236 . S
N17 Mn1 2.282 . S
N17 C18 1.328 . S
N17 C22 1.318 . S
C18 N17 1.328 . S
C18 C19 1.457 . S
C18 H23 0.929 . S
C19 C18 1.457 . S
C19 C20 1.291 . S
C19 H32 0.931 . S
C20 C19 1.291 . S
C20 C21 1.373 . S
C20 H33 0.929 . S
C21 C20 1.373 . S
C21 C22 1.396 . S
C21 C28 1.403 . S
C22 C12 1.476 . S
C22 N17 1.318 . S
C22 C21 1.396 . S
H23 C18 0.929 . S
O24 Mn0 2.385 1_655 S
O24 C2 1.234 . S
O25 Mn0 2.209 1_655 S
O25 Mn1 2.215 . S
O25 C2 1.283 . S
O26 Mn0 2.094 . S
O26 C4 1.242 1_455 S
O27 Mn1 2.117 . S
O27 C4 1.262 . S
C28 C21 1.403 . S
C28 C29 1.413 . S
C28 H34 0.929 . S
C29 C9 1.446 1_545 S
C29 C28 1.413 . S
C29 H35 0.919 1_545 S
H30 C10 0.931 . S
H31 C11 0.930 . S
H32 C19 0.931 . S
H33 C20 0.929 . S
H34 C28 0.929 . S
H35 C29 0.919 1_565 S
Mn36 O41 2.095 . S
Mn36 O51 2.162 . S
Mn36 O52 2.297 . S
Mn36 O60 2.385 . S
Mn36 O61 2.209 . S
Mn36 O62 2.094 . S
Mn37 O42 2.121 . S
Mn37 N44 2.257 . S
Mn37 N53 2.282 . S
Mn37 O61 2.215 . S
Mn37 O63 2.117 . S
C38 O60 1.234 . S
C38 O61 1.283 . S
C39 O51 1.281 . S
C39 O52 1.236 . S
C40 O62 1.240 . S
C40 O63 1.264 . S
O41 Mn36 2.095 . S
O41 C50 1.250 . S
O42 Mn37 2.121 . S
O42 C50 1.258 . S
C43 N44 1.326 . S
C43 C47 1.460 . S
C43 H49 0.929 . S
N44 Mn37 2.257 . S
N44 C43 1.326 . S
N44 C48 1.362 . S
C45 C46 1.258 . S
C45 C48 1.431 . S
C45 C65 1.449 . S
C46 C45 1.258 . S
C46 C47 1.477 . S
C46 H66 0.931 . S
C47 C43 1.460 . S
C47 C46 1.477 . S
C47 H67 0.930 . S
C48 N44 1.362 . S
C48 C45 1.431 . S
C48 C58 1.476 . S
H49 C43 0.929 . S
C50 O41 1.250 . S
C50 O42 1.258 . S
O51 Mn36 2.162 . S
O51 C39 1.281 . S
O52 Mn36 2.297 . S
O52 C39 1.236 . S
N53 Mn37 2.282 . S
N53 C54 1.328 . S
N53 C58 1.318 . S
C54 N53 1.328 . S
C54 C55 1.457 . S
C54 H59 0.929 . S
C55 C54 1.457 . S
C55 C56 1.291 . S
C55 H68 0.931 . S
C56 C55 1.291 . S
C56 C57 1.373 . S
C56 H69 0.929 . S
C57 C56 1.373 . S
C57 C58 1.396 . S
C57 C64 1.403 . S
C58 C48 1.476 . S
C58 N53 1.318 . S
C58 C57 1.396 . S
H59 C54 0.929 . S
O60 Mn36 2.385 . S
O60 C38 1.234 . S
O61 Mn36 2.209 . S
O61 Mn37 2.215 . S
O61 C38 1.283 . S
O62 Mn36 2.094 . S
O62 C40 1.240 . S
O63 Mn37 2.117 . S
O63 C40 1.264 . S
C64 C57 1.403 . S
C64 C65 1.399 . S
C64 H70 0.929 . S
C65 C45 1.449 . S
C65 C64 1.399 . S
C65 H71 0.930 . S
H66 C46 0.931 . S
H67 C47 0.930 . S
H68 C55 0.931 . S
H69 C56 0.929 . S
H70 C64 0.929 . S
H71 C65 0.930 . S
Mn72 O77 2.095 . S
Mn72 O87 2.162 . S
Mn72 O88 2.297 1_565 S
Mn72 O96 2.385 . S
Mn72 O97 2.209 . S
Mn72 O98 2.094 . S
Mn73 O78 2.121 . S
Mn73 N80 2.257 . S
Mn73 N89 2.282 . S
Mn73 O97 2.215 . S
Mn73 O99 2.117 . S
C74 O96 1.234 . S
C74 O97 1.283 . S
C75 O87 1.281 1_545 S
C75 O88 1.236 . S
C76 O98 1.240 . S
C76 O99 1.264 . S
O77 Mn72 2.095 . S
O77 C86 1.250 . S
O78 Mn73 2.121 . S
O78 C86 1.258 . S
C79 N80 1.326 1_545 S
C79 C83 1.460 . S
C79 H85 0.929 . S
N80 Mn73 2.257 . S
N80 C79 1.326 1_565 S
N80 C84 1.362 . S
C81 C82 1.258 . S
C81 C84 1.431 1_545 S
C81 C101 1.446 1_545 S
C82 C81 1.258 . S
C82 C83 1.477 . S
C82 H102 0.931 . S
C83 C79 1.460 . S
C83 C82 1.477 . S
C83 H103 0.930 . S
C84 N80 1.362 . S
C84 C81 1.431 1_565 S
C84 C94 1.476 . S
H85 C79 0.929 . S
C86 O77 1.250 . S
C86 O78 1.258 . S
O87 Mn72 2.162 . S
O87 C75 1.281 1_565 S
O88 Mn72 2.297 1_545 S
O88 C75 1.236 . S
N89 Mn73 2.282 . S
N89 C90 1.328 . S
N89 C94 1.318 . S
C90 N89 1.328 . S
C90 C91 1.457 . S
C90 H95 0.929 . S
C91 C90 1.457 . S
C91 C92 1.291 . S
C91 H104 0.931 . S
C92 C91 1.291 . S
C92 C93 1.373 . S
C92 H105 0.929 . S
C93 C92 1.373 . S
C93 C94 1.396 . S
C93 C100 1.403 . S
C94 C84 1.476 . S
C94 N89 1.318 . S
C94 C93 1.396 . S
H95 C90 0.929 . S
O96 Mn72 2.385 . S
O96 C74 1.234 . S
O97 Mn72 2.209 . S
O97 Mn73 2.215 . S
O97 C74 1.283 . S
O98 Mn72 2.094 . S
O98 C76 1.240 . S
O99 Mn73 2.117 . S
O99 C76 1.264 . S
C100 C93 1.403 . S
C100 C101 1.413 . S
C100 H106 0.929 . S
C101 C81 1.446 1_565 S
C101 C100 1.413 . S
C101 H107 0.919 1_565 S
H102 C82 0.931 . S
H103 C83 0.930 . S
H104 C91 0.931 . S
H105 C92 0.929 . S
H106 C100 0.929 . S
H107 C101 0.919 1_545 S
Mn108 O113 2.095 . S
Mn108 O123 2.162 . S
Mn108 O124 2.297 . S
Mn108 O132 2.385 . S
Mn108 O133 2.209 . S
Mn108 O134 2.094 . S
Mn109 O114 2.121 . S
Mn109 N116 2.257 . S
Mn109 N125 2.282 . S
Mn109 O133 2.215 . S
Mn109 O135 2.117 . S
C110 O132 1.234 . S
C110 O133 1.283 . S
C111 O123 1.281 . S
C111 O124 1.236 . S
C112 O134 1.240 . S
C112 O135 1.264 . S
O113 Mn108 2.095 . S
O113 C122 1.250 . S
O114 Mn109 2.121 . S
O114 C122 1.258 . S
C115 N116 1.326 . S
C115 C119 1.460 . S
C115 H121 0.929 . S
N116 Mn109 2.257 . S
N116 C115 1.326 . S
N116 C120 1.362 . S
C117 C118 1.258 . S
C117 C120 1.431 . S
C117 C137 1.449 . S
C118 C117 1.258 . S
C118 C119 1.477 . S
C118 H138 0.931 . S
C119 C115 1.460 . S
C119 C118 1.477 . S
C119 H139 0.930 . S
C120 N116 1.362 . S
C120 C117 1.431 . S
C120 C130 1.476 . S
H121 C115 0.929 . S
C122 O113 1.250 . S
C122 O114 1.258 . S
O123 Mn108 2.162 . S
O123 C111 1.281 . S
O124 Mn108 2.297 . S
O124 C111 1.236 . S
N125 Mn109 2.282 . S
N125 C126 1.328 . S
N125 C130 1.318 . S
C126 N125 1.328 . S
C126 C127 1.457 . S
C126 H131 0.929 . S
C127 C126 1.457 . S
C127 C128 1.291 . S
C127 H140 0.931 . S
C128 C127 1.291 . S
C128 C129 1.373 . S
C128 H141 0.929 . S
C129 C128 1.373 . S
C129 C130 1.396 . S
C129 C136 1.403 . S
C130 C120 1.476 . S
C130 N125 1.318 . S
C130 C129 1.396 . S
H131 C126 0.929 . S
O132 Mn108 2.385 . S
O132 C110 1.234 . S
O133 Mn108 2.209 . S
O133 Mn109 2.215 . S
O133 C110 1.283 . S
O134 Mn108 2.094 . S
O134 C112 1.240 . S
O135 Mn109 2.117 . S
O135 C112 1.264 . S
C136 C129 1.403 . S
C136 C137 1.399 . S
C136 H142 0.929 . S
C137 C117 1.449 . S
C137 C136 1.399 . S
C137 H143 0.930 . S
H138 C118 0.931 . S
H139 C119 0.930 . S
H140 C127 0.931 . S
H141 C128 0.929 . S
H142 C136 0.929 . S
H143 C137 0.930 . S
Mn144 O149 2.095 . S
Mn144 O159 2.162 . S
Mn144 O160 2.297 1_565 S
Mn144 O168 2.385 1_455 S
Mn144 O169 2.209 1_455 S
Mn144 O170 2.094 . S
Mn145 O150 2.121 . S
Mn145 N152 2.257 . S
Mn145 N161 2.282 . S
Mn145 O169 2.215 . S
Mn145 O171 2.117 . S
C146 O168 1.234 . S
C146 O169 1.283 . S
C147 O159 1.281 1_545 S
C147 O160 1.236 . S
C148 O170 1.242 1_655 S
C148 O171 1.262 . S
O149 Mn144 2.095 . S
O149 C158 1.250 . S
O150 Mn145 2.121 . S
O150 C158 1.258 1_655 S
C151 N152 1.326 1_545 S
C151 C155 1.460 . S
C151 H157 0.929 . S
N152 Mn145 2.257 . S
N152 C151 1.326 1_565 S
N152 C156 1.362 . S
C153 C154 1.258 . S
C153 C156 1.431 1_545 S
C153 C173 1.446 1_545 S
C154 C153 1.258 . S
C154 C155 1.477 . S
C154 H174 0.931 . S
C155 C151 1.460 . S
C155 C154 1.477 . S
C155 H175 0.930 . S
C156 N152 1.362 . S
C156 C153 1.431 1_565 S
C156 C166 1.476 . S
H157 C151 0.929 . S
C158 O149 1.250 . S
C158 O150 1.258 1_455 S
O159 Mn144 2.162 . S
O159 C147 1.281 1_565 S
O160 Mn144 2.297 1_545 S
O160 C147 1.236 . S
N161 Mn145 2.282 . S
N161 C162 1.328 . S
N161 C166 1.318 . S
C162 N161 1.328 . S
C162 C163 1.457 . S
C162 H167 0.929 . S
C163 C162 1.457 . S
C163 C164 1.291 . S
C163 H176 0.931 . S
C164 C163 1.291 . S
C164 C165 1.373 . S
C164 H177 0.929 . S
C165 C164 1.373 . S
C165 C166 1.396 . S
C165 C172 1.403 . S
C166 C156 1.476 . S
C166 N161 1.318 . S
C166 C165 1.396 . S
H167 C162 0.929 . S
O168 Mn144 2.385 1_655 S
O168 C146 1.234 . S
O169 Mn144 2.209 1_655 S
O169 Mn145 2.215 . S
O169 C146 1.283 . S
O170 Mn144 2.094 . S
O170 C148 1.242 1_455 S
O171 Mn145 2.117 . S
O171 C148 1.262 . S
C172 C165 1.403 . S
C172 C173 1.413 . S
C172 H178 0.929 . S
C173 C153 1.446 1_565 S
C173 C172 1.413 . S
C173 H179 0.919 1_565 S
H174 C154 0.931 . S
H175 C155 0.930 . S
H176 C163 0.931 . S
H177 C164 0.929 . S
H178 C172 0.929 . S
H179 C173 0.919 1_545 S
Mn180 O185 2.095 . S
Mn180 O195 2.162 . S
Mn180 O196 2.297 . S
Mn180 O204 2.385 . S
Mn180 O205 2.209 . S
Mn180 O206 2.094 . S
Mn181 O186 2.121 . S
Mn181 N188 2.257 . S
Mn181 N197 2.282 . S
Mn181 O205 2.215 . S
Mn181 O207 2.117 . S
C182 O204 1.234 . S
C182 O205 1.283 . S
C183 O195 1.281 . S
C183 O196 1.236 . S
C184 O206 1.240 . S
C184 O207 1.264 . S
O185 Mn180 2.095 . S
O185 C194 1.250 . S
O186 Mn181 2.121 . S
O186 C194 1.258 . S
C187 N188 1.326 . S
C187 C191 1.460 . S
C187 H193 0.929 . S
N188 Mn181 2.257 . S
N188 C187 1.326 . S
N188 C192 1.362 . S
C189 C190 1.258 . S
C189 C192 1.431 . S
C189 C209 1.449 . S
C190 C189 1.258 . S
C190 C191 1.477 . S
C190 H210 0.931 . S
C191 C187 1.460 . S
C191 C190 1.477 . S
C191 H211 0.930 . S
C192 N188 1.362 . S
C192 C189 1.431 . S
C192 C202 1.476 . S
H193 C187 0.929 . S
C194 O185 1.250 . S
C194 O186 1.258 . S
O195 Mn180 2.162 . S
O195 C183 1.281 . S
O196 Mn180 2.297 . S
O196 C183 1.236 . S
N197 Mn181 2.282 . S
N197 C198 1.328 . S
N197 C202 1.318 . S
C198 N197 1.328 . S
C198 C199 1.457 . S
C198 H203 0.929 . S
C199 C198 1.457 . S
C199 C200 1.291 . S
C199 H212 0.931 . S
C200 C199 1.291 . S
C200 C201 1.373 . S
C200 H213 0.929 . S
C201 C200 1.373 . S
C201 C202 1.396 . S
C201 C208 1.403 . S
C202 C192 1.476 . S
C202 N197 1.318 . S
C202 C201 1.396 . S
H203 C198 0.929 . S
O204 Mn180 2.385 . S
O204 C182 1.234 . S
O205 Mn180 2.209 . S
O205 Mn181 2.215 . S
O205 C182 1.283 . S
O206 Mn180 2.094 . S
O206 C184 1.240 . S
O207 Mn181 2.117 . S
O207 C184 1.264 . S
C208 C201 1.403 . S
C208 C209 1.399 . S
C208 H214 0.929 . S
C209 C189 1.449 . S
C209 C208 1.399 . S
C209 H215 0.930 . S
H210 C190 0.931 . S
H211 C191 0.930 . S
H212 C199 0.931 . S
H213 C200 0.929 . S
H214 C208 0.929 . S
H215 C209 0.930 . S
Mn216 O221 2.095 . S
Mn216 O231 2.162 . S
Mn216 O232 2.297 1_545 S
Mn216 O240 2.385 . S
Mn216 O241 2.209 . S
Mn216 O242 2.094 . S
Mn217 O222 2.121 . S
Mn217 N224 2.257 . S
Mn217 N233 2.282 . S
Mn217 O241 2.215 . S
Mn217 O243 2.117 . S
C218 O240 1.234 . S
C218 O241 1.283 . S
C219 O231 1.281 1_565 S
C219 O232 1.236 . S
C220 O242 1.240 . S
C220 O243 1.264 . S
O221 Mn216 2.095 . S
O221 C230 1.250 . S
O222 Mn217 2.121 . S
O222 C230 1.258 . S
C223 N224 1.326 1_565 S
C223 C227 1.460 . S
C223 H229 0.929 . S
N224 Mn217 2.257 . S
N224 C223 1.326 1_545 S
N224 C228 1.362 . S
C225 C226 1.258 . S
C225 C228 1.431 1_565 S
C225 C245 1.446 1_565 S
C226 C225 1.258 . S
C226 C227 1.477 . S
C226 H246 0.931 . S
C227 C223 1.460 . S
C227 C226 1.477 . S
C227 H247 0.930 . S
C228 N224 1.362 . S
C228 C225 1.431 1_545 S
C228 C238 1.476 . S
H229 C223 0.929 . S
C230 O221 1.250 . S
C230 O222 1.258 . S
O231 Mn216 2.162 . S
O231 C219 1.281 1_545 S
O232 Mn216 2.297 1_565 S
O232 C219 1.236 . S
N233 Mn217 2.282 . S
N233 C234 1.328 . S
N233 C238 1.318 . S
C234 N233 1.328 . S
C234 C235 1.457 . S
C234 H239 0.929 . S
C235 C234 1.457 . S
C235 C236 1.291 . S
C235 H248 0.931 . S
C236 C235 1.291 . S
C236 C237 1.373 . S
C236 H249 0.929 . S
C237 C236 1.373 . S
C237 C238 1.396 . S
C237 C244 1.403 . S
C238 C228 1.476 . S
C238 N233 1.318 . S
C238 C237 1.396 . S
H239 C234 0.929 . S
O240 Mn216 2.385 . S
O240 C218 1.234 . S
O241 Mn216 2.209 . S
O241 Mn217 2.215 . S
O241 C218 1.283 . S
O242 Mn216 2.094 . S
O242 C220 1.240 . S
O243 Mn217 2.117 . S
O243 C220 1.264 . S
C244 C237 1.403 . S
C244 C245 1.413 . S
C244 H250 0.929 . S
C245 C225 1.446 1_545 S
C245 C244 1.413 . S
C245 H251 0.919 1_545 S
H246 C226 0.931 . S
H247 C227 0.930 . S
H248 C235 0.931 . S
H249 C236 0.929 . S
H250 C244 0.929 . S
H251 C245 0.919 1_565 S
Mn252 O257 2.095 . S
Mn252 O267 2.162 . S
Mn252 O268 2.297 . S
Mn252 O276 2.385 . S
Mn252 O277 2.209 . S
Mn252 O278 2.094 . S
Mn253 O258 2.121 . S
Mn253 N260 2.257 . S
Mn253 N269 2.282 . S
Mn253 O277 2.215 . S
Mn253 O279 2.117 . S
C254 O276 1.234 . S
C254 O277 1.283 . S
C255 O267 1.281 . S
C255 O268 1.236 . S
C256 O278 1.240 . S
C256 O279 1.264 . S
O257 Mn252 2.095 . S
O257 C266 1.250 . S
O258 Mn253 2.121 . S
O258 C266 1.258 . S
C259 N260 1.326 . S
C259 C263 1.460 . S
C259 H265 0.929 . S
N260 Mn253 2.257 . S
N260 C259 1.326 . S
N260 C264 1.362 . S
C261 C262 1.258 . S
C261 C264 1.431 . S
C261 C281 1.449 . S
C262 C261 1.258 . S
C262 C263 1.477 . S
C262 H282 0.931 . S
C263 C259 1.460 . S
C263 C262 1.477 . S
C263 H283 0.930 . S
C264 N260 1.362 . S
C264 C261 1.431 . S
C264 C274 1.476 . S
H265 C259 0.929 . S
C266 O257 1.250 . S
C266 O258 1.258 . S
O267 Mn252 2.162 . S
O267 C255 1.281 . S
O268 Mn252 2.297 . S
O268 C255 1.236 . S
N269 Mn253 2.282 . S
N269 C270 1.328 . S
N269 C274 1.318 . S
C270 N269 1.328 . S
C270 C271 1.457 . S
C270 H275 0.929 . S
C271 C270 1.457 . S
C271 C272 1.291 . S
C271 H284 0.931 . S
C272 C271 1.291 . S
C272 C273 1.373 . S
C272 H285 0.929 . S
C273 C272 1.373 . S
C273 C274 1.396 . S
C273 C280 1.403 . S
C274 C264 1.476 . S
C274 N269 1.318 . S
C274 C273 1.396 . S
H275 C270 0.929 . S
O276 Mn252 2.385 . S
O276 C254 1.234 . S
O277 Mn252 2.209 . S
O277 Mn253 2.215 . S
O277 C254 1.283 . S
O278 Mn252 2.094 . S
O278 C256 1.240 . S
O279 Mn253 2.117 . S
O279 C256 1.264 . S
C280 C273 1.403 . S
C280 C281 1.399 . S
C280 H286 0.929 . S
C281 C261 1.449 . S
C281 C280 1.399 . S
C281 H287 0.930 . S
H282 C262 0.931 . S
H283 C263 0.930 . S
H284 C271 0.931 . S
H285 C272 0.929 . S
H286 C280 0.929 . S
H287 C281 0.930 . S
Mn288 O293 2.095 . S
Mn288 O303 2.162 . S
Mn288 O304 2.297 . S
Mn288 O312 2.385 . S
Mn288 O313 2.209 . S
Mn288 O314 2.094 . S
Mn289 O294 2.121 . S
Mn289 N296 2.257 . S
Mn289 N305 2.282 . S
Mn289 O313 2.215 . S
Mn289 O315 2.117 . S
C290 O312 1.234 . S
C290 O313 1.283 . S
C291 O303 1.281 . S
C291 O304 1.236 . S
C292 O314 1.240 . S
C292 O315 1.264 . S
O293 Mn288 2.095 . S
O293 C302 1.250 . S
O294 Mn289 2.121 . S
O294 C302 1.258 . S
C295 N296 1.326 . S
C295 C299 1.460 . S
C295 H301 0.929 . S
N296 Mn289 2.257 . S
N296 C295 1.326 . S
N296 C300 1.362 . S
C297 C298 1.258 . S
C297 C300 1.431 . S
C297 C317 1.449 . S
C298 C297 1.258 . S
C298 C299 1.477 . S
C298 H318 0.931 . S
C299 C295 1.460 . S
C299 C298 1.477 . S
C299 H319 0.930 . S
C300 N296 1.362 . S
C300 C297 1.431 . S
C300 C310 1.476 . S
H301 C295 0.929 . S
C302 O293 1.250 . S
C302 O294 1.258 . S
O303 Mn288 2.162 . S
O303 C291 1.281 . S
O304 Mn288 2.297 . S
O304 C291 1.236 . S
N305 Mn289 2.282 . S
N305 C306 1.328 . S
N305 C310 1.318 . S
C306 N305 1.328 . S
C306 C307 1.457 . S
C306 H311 0.929 . S
C307 C306 1.457 . S
C307 C308 1.291 . S
C307 H320 0.931 . S
C308 C307 1.291 . S
C308 C309 1.373 . S
C308 H321 0.929 . S
C309 C308 1.373 . S
C309 C310 1.396 . S
C309 C316 1.403 . S
C310 C300 1.476 . S
C310 N305 1.318 . S
C310 C309 1.396 . S
H311 C306 0.929 . S
O312 Mn288 2.385 . S
O312 C290 1.234 . S
O313 Mn288 2.209 . S
O313 Mn289 2.215 . S
O313 C290 1.283 . S
O314 Mn288 2.094 . S
O314 C292 1.240 . S
O315 Mn289 2.117 . S
O315 C292 1.264 . S
C316 C309 1.403 . S
C316 C317 1.399 . S
C316 H322 0.929 1_545 S
C317 C297 1.449 . S
C317 C316 1.399 . S
C317 H323 0.930 1_545 S
H318 C298 0.931 . S
H319 C299 0.930 . S
H320 C307 0.931 . S
H321 C308 0.929 . S
H322 C316 0.929 1_565 S
H323 C317 0.930 1_565 S
Mn324 O329 2.095 . S
Mn324 O339 2.162 . S
Mn324 O340 2.297 . S
Mn324 O348 2.385 . S
Mn324 O349 2.209 . S
Mn324 O350 2.094 . S
Mn325 O330 2.121 . S
Mn325 N332 2.257 . S
Mn325 N341 2.282 . S
Mn325 O349 2.215 . S
Mn325 O351 2.117 . S
C326 O348 1.234 . S
C326 O349 1.283 . S
C327 O339 1.281 . S
C327 O340 1.236 . S
C328 O350 1.240 . S
C328 O351 1.264 . S
O329 Mn324 2.095 . S
O329 C338 1.250 . S
O330 Mn325 2.121 . S
O330 C338 1.258 . S
C331 N332 1.326 . S
C331 C335 1.460 . S
C331 H337 0.929 . S
N332 Mn325 2.257 . S
N332 C331 1.326 . S
N332 C336 1.362 . S
C333 C334 1.258 . S
C333 C336 1.431 . S
C333 C353 1.449 . S
C334 C333 1.258 . S
C334 C335 1.477 . S
C334 H354 0.931 . S
C335 C331 1.460 . S
C335 C334 1.477 . S
C335 H355 0.930 . S
C336 N332 1.362 . S
C336 C333 1.431 . S
C336 C346 1.476 . S
H337 C331 0.929 . S
C338 O329 1.250 . S
C338 O330 1.258 . S
O339 Mn324 2.162 . S
O339 C327 1.281 . S
O340 Mn324 2.297 . S
O340 C327 1.236 . S
N341 Mn325 2.282 . S
N341 C342 1.328 . S
N341 C346 1.318 . S
C342 N341 1.328 . S
C342 C343 1.457 . S
C342 H347 0.929 . S
C343 C342 1.457 . S
C343 C344 1.291 . S
C343 H356 0.931 . S
C344 C343 1.291 . S
C344 C345 1.373 . S
C344 H357 0.929 . S
C345 C344 1.373 . S
C345 C346 1.396 . S
C345 C352 1.403 . S
C346 C336 1.476 . S
C346 N341 1.318 . S
C346 C345 1.396 . S
H347 C342 0.929 . S
O348 Mn324 2.385 . S
O348 C326 1.234 . S
O349 Mn324 2.209 . S
O349 Mn325 2.215 . S
O349 C326 1.283 . S
O350 Mn324 2.094 . S
O350 C328 1.240 . S
O351 Mn325 2.117 . S
O351 C328 1.264 . S
C352 C345 1.403 . S
C352 C353 1.399 . S
C352 H358 0.929 1_565 S
C353 C333 1.449 . S
C353 C352 1.399 . S
C353 H359 0.930 1_565 S
H354 C334 0.931 . S
H355 C335 0.930 . S
H356 C343 0.931 . S
H357 C344 0.929 . S
H358 C352 0.929 1_545 S
H359 C353 0.930 1_545 S
Mn360 O365 2.095 . S
Mn360 O375 2.162 . S
Mn360 O376 2.297 . S
Mn360 O384 2.385 . S
Mn360 O385 2.209 . S
Mn360 O386 2.094 . S
Mn361 O366 2.121 . S
Mn361 N368 2.257 . S
Mn361 N377 2.282 . S
Mn361 O385 2.215 . S
Mn361 O387 2.117 . S
C362 O384 1.234 . S
C362 O385 1.283 . S
C363 O375 1.281 . S
C363 O376 1.236 . S
C364 O386 1.240 . S
C364 O387 1.264 . S
O365 Mn360 2.095 . S
O365 C374 1.250 . S
O366 Mn361 2.121 . S
O366 C374 1.258 . S
C367 N368 1.326 . S
C367 C371 1.460 . S
C367 H373 0.929 . S
N368 Mn361 2.257 . S
N368 C367 1.326 . S
N368 C372 1.362 . S
C369 C370 1.258 . S
C369 C372 1.431 . S
C369 C389 1.449 . S
C370 C369 1.258 . S
C370 C371 1.477 . S
C370 H390 0.931 . S
C371 C367 1.460 . S
C371 C370 1.477 . S
C371 H391 0.930 . S
C372 N368 1.362 . S
C372 C369 1.431 . S
C372 C382 1.476 . S
H373 C367 0.929 . S
C374 O365 1.250 . S
C374 O366 1.258 . S
O375 Mn360 2.162 . S
O375 C363 1.281 . S
O376 Mn360 2.297 . S
O376 C363 1.236 . S
N377 Mn361 2.282 . S
N377 C378 1.328 . S
N377 C382 1.318 . S
C378 N377 1.328 . S
C378 C379 1.457 . S
C378 H383 0.929 . S
C379 C378 1.457 . S
C379 C380 1.291 . S
C379 H392 0.931 . S
C380 C379 1.291 . S
C380 C381 1.373 . S
C380 H393 0.929 . S
C381 C380 1.373 . S
C381 C382 1.396 . S
C381 C388 1.403 . S
C382 C372 1.476 . S
C382 N377 1.318 . S
C382 C381 1.396 . S
H383 C378 0.929 . S
O384 Mn360 2.385 . S
O384 C362 1.234 . S
O385 Mn360 2.209 . S
O385 Mn361 2.215 . S
O385 C362 1.283 . S
O386 Mn360 2.094 . S
O386 C364 1.240 . S
O387 Mn361 2.117 . S
O387 C364 1.264 . S
C388 C381 1.403 . S
C388 C389 1.399 . S
C388 H394 0.929 1_545 S
C389 C369 1.449 . S
C389 C388 1.399 . S
C389 H395 0.930 1_545 S
H390 C370 0.931 . S
H391 C371 0.930 . S
H392 C379 0.931 . S
H393 C380 0.929 . S
H394 C388 0.929 1_565 S
H395 C389 0.930 1_565 S
Mn396 O401 2.095 . S
Mn396 O411 2.162 . S
Mn396 O412 2.297 . S
Mn396 O420 2.385 . S
Mn396 O421 2.209 . S
Mn396 O422 2.094 . S
Mn397 O402 2.121 . S
Mn397 N404 2.257 . S
Mn397 N413 2.282 . S
Mn397 O421 2.215 . S
Mn397 O423 2.117 . S
C398 O420 1.234 . S
C398 O421 1.283 . S
C399 O411 1.281 . S
C399 O412 1.236 . S
C400 O422 1.240 . S
C400 O423 1.264 . S
O401 Mn396 2.095 . S
O401 C410 1.250 . S
O402 Mn397 2.121 . S
O402 C410 1.258 . S
C403 N404 1.326 . S
C403 C407 1.460 . S
C403 H409 0.929 . S
N404 Mn397 2.257 . S
N404 C403 1.326 . S
N404 C408 1.362 . S
C405 C406 1.258 . S
C405 C408 1.431 . S
C405 C425 1.449 . S
C406 C405 1.258 . S
C406 C407 1.477 . S
C406 H426 0.931 . S
C407 C403 1.460 . S
C407 C406 1.477 . S
C407 H427 0.930 . S
C408 N404 1.362 . S
C408 C405 1.431 . S
C408 C418 1.476 . S
H409 C403 0.929 . S
C410 O401 1.250 . S
C410 O402 1.258 . S
O411 Mn396 2.162 . S
O411 C399 1.281 . S
O412 Mn396 2.297 . S
O412 C399 1.236 . S
N413 Mn397 2.282 . S
N413 C414 1.328 . S
N413 C418 1.318 . S
C414 N413 1.328 . S
C414 C415 1.457 . S
C414 H419 0.929 . S
C415 C414 1.457 . S
C415 C416 1.291 . S
C415 H428 0.931 . S
C416 C415 1.291 . S
C416 C417 1.373 . S
C416 H429 0.929 . S
C417 C416 1.373 . S
C417 C418 1.396 . S
C417 C424 1.403 . S
C418 C408 1.476 . S
C418 N413 1.318 . S
C418 C417 1.396 . S
H419 C414 0.929 . S
O420 Mn396 2.385 . S
O420 C398 1.234 . S
O421 Mn396 2.209 . S
O421 Mn397 2.215 . S
O421 C398 1.283 . S
O422 Mn396 2.094 . S
O422 C400 1.240 . S
O423 Mn397 2.117 . S
O423 C400 1.264 . S
C424 C417 1.403 . S
C424 C425 1.399 . S
C424 H430 0.929 1_565 S
C425 C405 1.449 . S
C425 C424 1.399 . S
C425 H431 0.930 1_565 S
H426 C406 0.931 . S
H427 C407 0.930 . S
H428 C415 0.931 . S
H429 C416 0.929 . S
H430 C424 0.929 1_545 S
H431 C425 0.930 1_545 S
Mn432 O437 2.095 . S
Mn432 O447 2.162 . S
Mn432 O448 2.297 . S
Mn432 O456 2.385 . S
Mn432 O457 2.209 . S
Mn432 O458 2.094 . S
Mn433 O438 2.121 . S
Mn433 N440 2.257 . S
Mn433 N449 2.282 . S
Mn433 O457 2.215 . S
Mn433 O459 2.117 . S
C434 O456 1.234 . S
C434 O457 1.283 . S
C435 O447 1.281 . S
C435 O448 1.236 . S
C436 O458 1.240 . S
C436 O459 1.264 . S
O437 Mn432 2.095 . S
O437 C446 1.250 . S
O438 Mn433 2.121 . S
O438 C446 1.258 . S
C439 N440 1.326 . S
C439 C443 1.460 . S
C439 H445 0.929 . S
N440 Mn433 2.257 . S
N440 C439 1.326 . S
N440 C444 1.362 . S
C441 C442 1.258 . S
C441 C444 1.431 . S
C441 C461 1.449 . S
C442 C441 1.258 . S
C442 C443 1.477 . S
C442 H462 0.931 . S
C443 C439 1.460 . S
C443 C442 1.477 . S
C443 H463 0.930 . S
C444 N440 1.362 . S
C444 C441 1.431 . S
C444 C454 1.476 . S
H445 C439 0.929 . S
C446 O437 1.250 . S
C446 O438 1.258 . S
O447 Mn432 2.162 . S
O447 C435 1.281 . S
O448 Mn432 2.297 . S
O448 C435 1.236 . S
N449 Mn433 2.282 . S
N449 C450 1.328 . S
N449 C454 1.318 . S
C450 N449 1.328 . S
C450 C451 1.457 . S
C450 H455 0.929 . S
C451 C450 1.457 . S
C451 C452 1.291 . S
C451 H464 0.931 . S
C452 C451 1.291 . S
C452 C453 1.373 . S
C452 H465 0.929 . S
C453 C452 1.373 . S
C453 C454 1.396 . S
C453 C460 1.403 . S
C454 C444 1.476 . S
C454 N449 1.318 . S
C454 C453 1.396 . S
H455 C450 0.929 . S
O456 Mn432 2.385 . S
O456 C434 1.234 . S
O457 Mn432 2.209 . S
O457 Mn433 2.215 . S
O457 C434 1.283 . S
O458 Mn432 2.094 . S
O458 C436 1.240 . S
O459 Mn433 2.117 . S
O459 C436 1.264 . S
C460 C453 1.403 . S
C460 C461 1.399 . S
C460 H466 0.929 . S
C461 C441 1.449 . S
C461 C460 1.399 . S
C461 H467 0.930 . S
H462 C442 0.931 . S
H463 C443 0.930 . S
H464 C451 0.931 . S
H465 C452 0.929 . S
H466 C460 0.929 . S
H467 C461 0.930 . S
Mn468 O473 2.095 . S
Mn468 O483 2.162 1_455 S
Mn468 O484 2.297 . S
Mn468 O492 2.385 . S
Mn468 O493 2.209 . S
Mn468 O494 2.094 . S
Mn469 O474 2.121 . S
Mn469 N476 2.257 . S
Mn469 N485 2.282 . S
Mn469 O493 2.215 . S
Mn469 O495 2.117 . S
C470 O492 1.234 . S
C470 O493 1.283 . S
C471 O483 1.281 . S
C471 O484 1.236 1_655 S
C472 O494 1.240 . S
C472 O495 1.264 . S
O473 Mn468 2.095 . S
O473 C482 1.250 . S
O474 Mn469 2.121 . S
O474 C482 1.258 . S
C475 N476 1.326 . S
C475 C479 1.460 . S
C475 H481 0.929 . S
N476 Mn469 2.257 . S
N476 C475 1.326 . S
N476 C480 1.362 . S
C477 C478 1.258 . S
C477 C480 1.431 . S
C477 C497 1.449 . S
C478 C477 1.258 . S
C478 C479 1.477 . S
C478 H498 0.931 . S
C479 C475 1.460 . S
C479 C478 1.477 . S
C479 H499 0.930 . S
C480 N476 1.362 . S
C480 C477 1.431 . S
C480 C490 1.476 . S
H481 C475 0.929 . S
C482 O473 1.250 . S
C482 O474 1.258 . S
O483 Mn468 2.162 1_655 S
O483 C471 1.281 . S
O484 Mn468 2.297 . S
O484 C471 1.236 1_455 S
N485 Mn469 2.282 . S
N485 C486 1.328 . S
N485 C490 1.318 . S
C486 N485 1.328 . S
C486 C487 1.457 . S
C486 H491 0.929 . S
C487 C486 1.457 . S
C487 C488 1.291 . S
C487 H500 0.931 . S
C488 C487 1.291 . S
C488 C489 1.373 . S
C488 H501 0.929 . S
C489 C488 1.373 . S
C489 C490 1.396 . S
C489 C496 1.403 . S
C490 C480 1.476 . S
C490 N485 1.318 . S
C490 C489 1.396 . S
H491 C486 0.929 . S
O492 Mn468 2.385 . S
O492 C470 1.234 . S
O493 Mn468 2.209 . S
O493 Mn469 2.215 . S
O493 C470 1.283 . S
O494 Mn468 2.094 . S
O494 C472 1.240 . S
O495 Mn469 2.117 . S
O495 C472 1.264 . S
C496 C489 1.403 . S
C496 C497 1.399 . S
C496 H502 0.929 . S
C497 C477 1.449 . S
C497 C496 1.399 . S
C497 H503 0.930 . S
H498 C478 0.931 . S
H499 C479 0.930 . S
H500 C487 0.931 . S
H501 C488 0.929 . S
H502 C496 0.929 . S
H503 C497 0.930 . S
Mn504 O509 2.095 . S
Mn504 O519 2.162 . S
Mn504 O520 2.297 . S
Mn504 O528 2.385 . S
Mn504 O529 2.209 . S
Mn504 O530 2.094 . S
Mn505 O510 2.121 . S
Mn505 N512 2.257 . S
Mn505 N521 2.282 . S
Mn505 O529 2.215 . S
Mn505 O531 2.117 . S
C506 O528 1.234 . S
C506 O529 1.283 . S
C507 O519 1.281 . S
C507 O520 1.236 . S
C508 O530 1.240 . S
C508 O531 1.264 . S
O509 Mn504 2.095 . S
O509 C518 1.250 . S
O510 Mn505 2.121 . S
O510 C518 1.258 . S
C511 N512 1.326 . S
C511 C515 1.460 . S
C511 H517 0.929 . S
N512 Mn505 2.257 . S
N512 C511 1.326 . S
N512 C516 1.362 . S
C513 C514 1.258 . S
C513 C516 1.431 . S
C513 C533 1.449 . S
C514 C513 1.258 . S
C514 C515 1.477 . S
C514 H534 0.931 . S
C515 C511 1.460 . S
C515 C514 1.477 . S
C515 H535 0.930 . S
C516 N512 1.362 . S
C516 C513 1.431 . S
C516 C526 1.476 . S
H517 C511 0.929 . S
C518 O509 1.250 . S
C518 O510 1.258 . S
O519 Mn504 2.162 . S
O519 C507 1.281 . S
O520 Mn504 2.297 . S
O520 C507 1.236 . S
N521 Mn505 2.282 . S
N521 C522 1.328 . S
N521 C526 1.318 . S
C522 N521 1.328 . S
C522 C523 1.457 . S
C522 H527 0.929 . S
C523 C522 1.457 . S
C523 C524 1.291 . S
C523 H536 0.931 . S
C524 C523 1.291 . S
C524 C525 1.373 . S
C524 H537 0.929 . S
C525 C524 1.373 . S
C525 C526 1.396 . S
C525 C532 1.403 . S
C526 C516 1.476 . S
C526 N521 1.318 . S
C526 C525 1.396 . S
H527 C522 0.929 . S
O528 Mn504 2.385 . S
O528 C506 1.234 . S
O529 Mn504 2.209 . S
O529 Mn505 2.215 . S
O529 C506 1.283 . S
O530 Mn504 2.094 . S
O530 C508 1.240 . S
O531 Mn505 2.117 . S
O531 C508 1.264 . S
C532 C525 1.403 . S
C532 C533 1.399 . S
C532 H538 0.929 . S
C533 C513 1.449 . S
C533 C532 1.399 . S
C533 H539 0.930 . S
H534 C514 0.931 . S
H535 C515 0.930 . S
H536 C523 0.931 . S
H537 C524 0.929 . S
H538 C532 0.929 . S
H539 C533 0.930 . S
Mn540 O545 2.095 . S
Mn540 O555 2.162 1_455 S
Mn540 O556 2.297 . S
Mn540 O564 2.385 . S
Mn540 O565 2.209 . S
Mn540 O566 2.094 . S
Mn541 O546 2.121 . S
Mn541 N548 2.257 . S
Mn541 N557 2.282 . S
Mn541 O565 2.215 . S
Mn541 O567 2.117 . S
C542 O564 1.234 . S
C542 O565 1.283 . S
C543 O555 1.281 . S
C543 O556 1.236 1_655 S
C544 O566 1.240 . S
C544 O567 1.264 . S
O545 Mn540 2.095 . S
O545 C554 1.250 . S
O546 Mn541 2.121 . S
O546 C554 1.258 . S
C547 N548 1.326 . S
C547 C551 1.460 . S
C547 H553 0.929 . S
N548 Mn541 2.257 . S
N548 C547 1.326 . S
N548 C552 1.362 . S
C549 C550 1.258 . S
C549 C552 1.431 . S
C549 C569 1.449 . S
C550 C549 1.258 . S
C550 C551 1.477 . S
C550 H570 0.931 . S
C551 C547 1.460 . S
C551 C550 1.477 . S
C551 H571 0.930 . S
C552 N548 1.362 . S
C552 C549 1.431 . S
C552 C562 1.476 . S
H553 C547 0.929 . S
C554 O545 1.250 . S
C554 O546 1.258 . S
O555 Mn540 2.162 1_655 S
O555 C543 1.281 . S
O556 Mn540 2.297 . S
O556 C543 1.236 1_455 S
N557 Mn541 2.282 . S
N557 C558 1.328 . S
N557 C562 1.318 . S
C558 N557 1.328 . S
C558 C559 1.457 . S
C558 H563 0.929 . S
C559 C558 1.457 . S
C559 C560 1.291 . S
C559 H572 0.931 . S
C560 C559 1.291 . S
C560 C561 1.373 . S
C560 H573 0.929 . S
C561 C560 1.373 . S
C561 C562 1.396 . S
C561 C568 1.403 . S
C562 C552 1.476 . S
C562 N557 1.318 . S
C562 C561 1.396 . S
H563 C558 0.929 . S
O564 Mn540 2.385 . S
O564 C542 1.234 . S
O565 Mn540 2.209 . S
O565 Mn541 2.215 . S
O565 C542 1.283 . S
O566 Mn540 2.094 . S
O566 C544 1.240 . S
O567 Mn541 2.117 . S
O567 C544 1.264 . S
C568 C561 1.403 . S
C568 C569 1.399 . S
C568 H574 0.929 . S
C569 C549 1.449 . S
C569 C568 1.399 . S
C569 H575 0.930 . S
H570 C550 0.931 . S
H571 C551 0.930 . S
H572 C559 0.931 . S
H573 C560 0.929 . S
H574 C568 0.929 . S
H575 C569 0.930 . S
H576 C584 0.950 . S
H577 C589 0.950 . S
H578 C586 0.950 . S
H579 C588 0.950 . S
H580 C590 0.950 . S
H581 C592 0.950 1_655 S
H582 C594 0.950 . S
H583 C595 0.950 . S
C584 H576 0.950 . S
C584 C585 1.386 . S
C584 C586 1.391 . S
C585 C584 1.386 . S
C585 C589 1.393 1_455 S
C586 H578 0.950 . S
C586 C584 1.391 . S
C586 C587 1.400 . S
C587 C586 1.400 . S
C587 C588 1.398 1_455 S
C587 C593 1.491 . S
C588 H579 0.950 . S
C588 C587 1.398 1_655 S
C588 C589 1.391 . S
C589 H577 0.950 . S
C589 C585 1.393 1_655 S
C589 C588 1.391 . S
C590 H580 0.950 . S
C590 C591 1.386 . S
C590 C592 1.391 . S
C591 C590 1.386 . S
C591 C595 1.393 . S
C592 H581 0.950 1_455 S
C592 C590 1.391 . S
C592 C593 1.400 . S
C593 C587 1.491 . S
C593 C592 1.400 . S
C593 C594 1.398 . S
C594 H582 0.950 . S
C594 C593 1.398 . S
C594 C595 1.391 . S
C595 H583 0.950 . S
C595 C591 1.393 . S
C595 C594 1.391 . S
H596 C604 0.950 . S
H597 C609 0.950 . S
H598 C606 0.950 . S
H599 C608 0.950 1_455 S
H600 C610 0.950 . S
H601 C612 0.950 . S
H602 C614 0.950 . S
H603 C615 0.950 . S
C604 H596 0.950 . S
C604 C605 1.386 . S
C604 C606 1.391 . S
C605 C604 1.386 . S
C605 C609 1.393 . S
C606 H598 0.950 . S
C606 C604 1.391 . S
C606 C607 1.400 1_655 S
C607 C606 1.400 1_455 S
C607 C608 1.398 1_455 S
C607 C613 1.491 . S
C608 H599 0.950 1_655 S
C608 C607 1.398 1_655 S
C608 C609 1.391 . S
C609 H597 0.950 . S
C609 C605 1.393 . S
C609 C608 1.391 . S
C610 H600 0.950 . S
C610 C611 1.386 . S
C610 C612 1.391 . S
C611 C610 1.386 . S
C611 C615 1.393 . S
C612 H601 0.950 . S
C612 C610 1.391 . S
C612 C613 1.400 . S
C613 C607 1.491 . S
C613 C612 1.400 . S
C613 C614 1.398 . S
C614 H602 0.950 . S
C614 C613 1.398 . S
C614 C615 1.391 . S
C615 H603 0.950 . S
C615 C611 1.393 . S
C615 C614 1.391 . S
H616 C624 0.950 . S
H617 C629 0.950 . S
H618 C626 0.950 . S
H619 C628 0.950 . S
H620 C630 0.950 . S
H621 C632 0.950 . S
H622 C634 0.950 . S
H623 C635 0.950 . S
C624 H616 0.950 . S
C624 C625 1.386 . S
C624 C626 1.391 . S
C625 C624 1.386 . S
C625 C629 1.393 . S
C626 H618 0.950 . S
C626 C624 1.391 . S
C626 C627 1.400 . S
C627 C626 1.400 . S
C627 C628 1.398 . S
C627 C633 1.491 . S
C628 H619 0.950 . S
C628 C627 1.398 . S
C628 C629 1.391 . S
C629 H617 0.950 . S
C629 C625 1.393 . S
C629 C628 1.391 . S
C630 H620 0.950 . S
C630 C631 1.386 . S
C630 C632 1.391 . S
C631 C630 1.386 . S
C631 C635 1.393 . S
C632 H621 0.950 . S
C632 C630 1.391 . S
C632 C633 1.400 . S
C633 C627 1.491 . S
C633 C632 1.400 . S
C633 C634 1.398 . S
C634 H622 0.950 . S
C634 C633 1.398 . S
C634 C635 1.391 . S
C635 H623 0.950 . S
C635 C631 1.393 . S
C635 C634 1.391 . S
H636 C644 0.950 . S
H637 C649 0.950 . S
H638 C646 0.950 . S
H639 C648 0.950 . S
H640 C650 0.950 . S
H641 C652 0.950 . S
H642 C654 0.950 . S
H643 C655 0.950 . S
C644 H636 0.950 . S
C644 C645 1.386 . S
C644 C646 1.391 . S
C645 C644 1.386 . S
C645 C649 1.393 . S
C646 H638 0.950 . S
C646 C644 1.391 . S
C646 C647 1.400 . S
C647 C646 1.400 . S
C647 C648 1.398 . S
C647 C653 1.491 . S
C648 H639 0.950 . S
C648 C647 1.398 . S
C648 C649 1.391 . S
C649 H637 0.950 . S
C649 C645 1.393 . S
C649 C648 1.391 . S
C650 H640 0.950 . S
C650 C651 1.386 . S
C650 C652 1.391 . S
C651 C650 1.386 . S
C651 C655 1.393 . S
C652 H641 0.950 . S
C652 C650 1.391 . S
C652 C653 1.400 . S
C653 C647 1.491 . S
C653 C652 1.400 . S
C653 C654 1.398 . S
C654 H642 0.950 . S
C654 C653 1.398 . S
C654 C655 1.391 . S
C655 H643 0.950 . S
C655 C651 1.393 . S
C655 C654 1.391 . S
H656 C664 0.950 . S
H657 C669 0.950 . S
H658 C666 0.950 . S
H659 C668 0.950 . S
H660 C670 0.950 1_655 S
H661 C672 0.950 1_655 S
H662 C674 0.950 . S
H663 C675 0.950 . S
C664 H656 0.950 . S
C664 C665 1.386 . S
C664 C666 1.391 . S
C665 C664 1.386 . S
C665 C669 1.393 1_455 S
C666 H658 0.950 . S
C666 C664 1.391 . S
C666 C667 1.400 . S
C667 C666 1.400 . S
C667 C668 1.398 1_455 S
C667 C673 1.491 . S
C668 H659 0.950 . S
C668 C667 1.398 1_655 S
C668 C669 1.391 . S
C669 H657 0.950 . S
C669 C665 1.393 1_655 S
C669 C668 1.391 . S
C670 H660 0.950 1_455 S
C670 C671 1.386 . S
C670 C672 1.391 . S
C671 C670 1.386 . S
C671 C675 1.393 . S
C672 H661 0.950 1_455 S
C672 C670 1.391 . S
C672 C673 1.400 . S
C673 C667 1.491 . S
C673 C672 1.400 . S
C673 C674 1.398 . S
C674 H662 0.950 . S
C674 C673 1.398 . S
C674 C675 1.391 . S
C675 H663 0.950 . S
C675 C671 1.393 . S
C675 C674 1.391 . S
H676 C684 0.950 . S
H677 C689 0.950 . S
H678 C686 0.950 . S
H679 C688 0.950 . S
H680 C690 0.950 . S
H681 C692 0.950 . S
H682 C694 0.950 . S
H683 C695 0.950 . S
C684 H676 0.950 . S
C684 C685 1.386 . S
C684 C686 1.391 . S
C685 C684 1.386 . S
C685 C689 1.393 . S
C686 H678 0.950 . S
C686 C684 1.391 . S
C686 C687 1.400 . S
C687 C686 1.400 . S
C687 C688 1.398 . S
C687 C693 1.491 . S
C688 H679 0.950 . S
C688 C687 1.398 . S
C688 C689 1.391 . S
C689 H677 0.950 . S
C689 C685 1.393 . S
C689 C688 1.391 . S
C690 H680 0.950 . S
C690 C691 1.386 . S
C690 C692 1.391 . S
C691 C690 1.386 . S
C691 C695 1.393 . S
C692 H681 0.950 . S
C692 C690 1.391 . S
C692 C693 1.400 . S
C693 C687 1.491 . S
C693 C692 1.400 . S
C693 C694 1.398 . S
C694 H682 0.950 . S
C694 C693 1.398 . S
C694 C695 1.391 . S
C695 H683 0.950 . S
C695 C691 1.393 . S
C695 C694 1.391 . S
H696 C704 0.950 . S
H697 C709 0.950 . S
H698 C706 0.950 . S
H699 C708 0.950 . S
H700 C710 0.950 . S
H701 C712 0.950 . S
H702 C714 0.950 . S
H703 C715 0.950 . S
C704 H696 0.950 . S
C704 C705 1.386 . S
C704 C706 1.391 . S
C705 C704 1.386 . S
C705 C709 1.393 . S
C706 H698 0.950 . S
C706 C704 1.391 . S
C706 C707 1.400 . S
C707 C706 1.400 . S
C707 C708 1.398 . S
C707 C713 1.491 . S
C708 H699 0.950 . S
C708 C707 1.398 . S
C708 C709 1.391 . S
C709 H697 0.950 . S
C709 C705 1.393 . S
C709 C708 1.391 . S
C710 H700 0.950 . S
C710 C711 1.386 . S
C710 C712 1.391 . S
C711 C710 1.386 . S
C711 C715 1.393 . S
C712 H701 0.950 . S
C712 C710 1.391 . S
C712 C713 1.400 . S
C713 C707 1.491 . S
C713 C712 1.400 . S
C713 C714 1.398 . S
C714 H702 0.950 . S
C714 C713 1.398 . S
C714 C715 1.391 . S
C715 H703 0.950 . S
C715 C711 1.393 . S
C715 C714 1.391 . S
H716 C724 0.950 . S
H717 C729 0.950 . S
H718 C726 0.950 . S
H719 C728 0.950 . S
H720 C730 0.950 . S
H721 C732 0.950 . S
H722 C734 0.950 1_455 S
H723 C735 0.950 . S
C724 H716 0.950 . S
C724 C725 1.386 . S
C724 C726 1.391 . S
C725 C724 1.386 . S
C725 C729 1.393 . S
C726 H718 0.950 . S
C726 C724 1.391 . S
C726 C727 1.400 . S
C727 C726 1.400 . S
C727 C728 1.398 . S
C727 C733 1.491 . S
C728 H719 0.950 . S
C728 C727 1.398 . S
C728 C729 1.391 . S
C729 H717 0.950 . S
C729 C725 1.393 . S
C729 C728 1.391 . S
C730 H720 0.950 . S
C730 C731 1.386 . S
C730 C732 1.391 . S
C731 C730 1.386 . S
C731 C735 1.393 . S
C732 H721 0.950 . S
C732 C730 1.391 . S
C732 C733 1.400 1_655 S
C733 C727 1.491 . S
C733 C732 1.400 1_455 S
C733 C734 1.398 1_455 S
C734 H722 0.950 1_655 S
C734 C733 1.398 1_655 S
C734 C735 1.391 . S
C735 H723 0.950 . S
C735 C731 1.393 . S
C735 C734 1.391 . S
H736 C744 0.950 . S
H737 C749 0.950 . S
H738 C746 0.950 . S
H739 C748 0.950 . S
H740 C750 0.950 . S
H741 C752 0.950 . S
H742 C754 0.950 . S
H743 C755 0.950 . S
C744 H736 0.950 . S
C744 C745 1.386 1_655 S
C744 C746 1.391 1_565 S
C745 C744 1.386 1_455 S
C745 C749 1.393 . S
C746 H738 0.950 . S
C746 C744 1.391 1_545 S
C746 C747 1.400 1_645 S
C747 C746 1.400 1_465 S
C747 C748 1.398 . S
C747 C753 1.491 1_565 S
C748 H739 0.950 . S
C748 C747 1.398 . S
C748 C749 1.391 . S
C749 H737 0.950 . S
C749 C745 1.393 . S
C749 C748 1.391 . S
C750 H740 0.950 . S
C750 C751 1.386 . S
C750 C752 1.391 1_545 S
C751 C750 1.386 . S
C751 C755 1.393 1_455 S
C752 H741 0.950 . S
C752 C750 1.391 1_565 S
C752 C753 1.400 1_565 S
C753 C747 1.491 1_545 S
C753 C752 1.400 1_545 S
C753 C754 1.398 1_455 S
C754 H742 0.950 . S
C754 C753 1.398 1_655 S
C754 C755 1.391 . S
C755 H743 0.950 . S
C755 C751 1.393 1_655 S
C755 C754 1.391 . S
H756 C764 0.950 . S
H757 C769 0.950 . S
H758 C766 0.950 . S
H759 C768 0.950 . S
H760 C770 0.950 . S
H761 C772 0.950 . S
H762 C774 0.950 . S
H763 C775 0.950 . S
C764 H756 0.950 . S
C764 C765 1.386 . S
C764 C766 1.391 . S
C765 C764 1.386 . S
C765 C769 1.393 . S
C766 H758 0.950 . S
C766 C764 1.391 . S
C766 C767 1.400 . S
C767 C766 1.400 . S
C767 C768 1.398 . S
C767 C773 1.491 . S
C768 H759 0.950 . S
C768 C767 1.398 . S
C768 C769 1.391 . S
C769 H757 0.950 . S
C769 C765 1.393 . S
C769 C768 1.391 . S
C770 H760 0.950 . S
C770 C771 1.386 . S
C770 C772 1.391 . S
C771 C770 1.386 . S
C771 C775 1.393 . S
C772 H761 0.950 . S
C772 C770 1.391 . S
C772 C773 1.400 . S
C773 C767 1.491 . S
C773 C772 1.400 . S
C773 C774 1.398 . S
C774 H762 0.950 . S
C774 C773 1.398 . S
C774 C775 1.391 . S
C775 H763 0.950 . S
C775 C771 1.393 . S
C775 C774 1.391 . S
H776 C784 0.950 1_545 S
H777 C789 0.950 . S
H778 C786 0.950 . S
H779 C788 0.950 . S
H780 C790 0.950 1_565 S
H781 C792 0.950 . S
H782 C794 0.950 . S
H783 C795 0.950 . S
C784 H776 0.950 1_565 S
C784 C785 1.386 . S
C784 C786 1.391 1_565 S
C785 C784 1.386 . S
C785 C789 1.393 . S
C786 H778 0.950 . S
C786 C784 1.391 1_545 S
C786 C787 1.400 1_545 S
C787 C786 1.400 1_565 S
C787 C788 1.398 . S
C787 C793 1.491 1_564 S
C788 H779 0.950 . S
C788 C787 1.398 . S
C788 C789 1.391 . S
C789 H777 0.950 . S
C789 C785 1.393 . S
C789 C788 1.391 . S
C790 H780 0.950 1_545 S
C790 C791 1.386 . S
C790 C792 1.391 1_545 S
C791 C790 1.386 . S
C791 C795 1.393 . S
C792 H781 0.950 . S
C792 C790 1.391 1_565 S
C792 C793 1.400 1_565 S
C793 C787 1.491 1_546 S
C793 C792 1.400 1_545 S
C793 C794 1.398 . S
C794 H782 0.950 . S
C794 C793 1.398 . S
C794 C795 1.391 . S
C795 H783 0.950 . S
C795 C791 1.393 . S
C795 C794 1.391 . S
H796 C804 0.950 . S
H797 C809 0.950 . S
H798 C806 0.950 . S
H799 C808 0.950 . S
H800 C810 0.950 . S
H801 C812 0.950 . S
H802 C814 0.950 . S
H803 C815 0.950 . S
C804 H796 0.950 . S
C804 C805 1.386 . S
C804 C806 1.391 . S
C805 C804 1.386 . S
C805 C809 1.393 . S
C806 H798 0.950 . S
C806 C804 1.391 . S
C806 C807 1.400 . S
C807 C806 1.400 . S
C807 C808 1.398 . S
C807 C813 1.491 . S
C808 H799 0.950 . S
C808 C807 1.398 . S
C808 C809 1.391 . S
C809 H797 0.950 . S
C809 C805 1.393 . S
C809 C808 1.391 . S
C810 H800 0.950 . S
C810 C811 1.386 . S
C810 C812 1.391 . S
C811 C810 1.386 . S
C811 C815 1.393 . S
C812 H801 0.950 . S
C812 C810 1.391 . S
C812 C813 1.400 . S
C813 C807 1.491 . S
C813 C812 1.400 . S
C813 C814 1.398 . S
C814 H802 0.950 . S
C814 C813 1.398 . S
C814 C815 1.391 . S
C815 H803 0.950 . S
C815 C811 1.393 . S
C815 C814 1.391 . S
H816 C824 0.950 . S
H817 C829 0.950 . S
H818 C826 0.950 . S
H819 C828 0.950 . S
H820 C830 0.950 . S
H821 C832 0.950 . S
H822 C834 0.950 . S
H823 C835 0.950 . S
C824 H816 0.950 . S
C824 C825 1.386 . S
C824 C826 1.391 . S
C825 C824 1.386 . S
C825 C829 1.393 . S
C826 H818 0.950 . S
C826 C824 1.391 . S
C826 C827 1.400 . S
C827 C826 1.400 . S
C827 C828 1.398 . S
C827 C833 1.491 . S
C828 H819 0.950 . S
C828 C827 1.398 . S
C828 C829 1.391 . S
C829 H817 0.950 . S
C829 C825 1.393 . S
C829 C828 1.391 . S
C830 H820 0.950 . S
C830 C831 1.386 . S
C830 C832 1.391 . S
C831 C830 1.386 . S
C831 C835 1.393 . S
C832 H821 0.950 . S
C832 C830 1.391 . S
C832 C833 1.400 . S
C833 C827 1.491 . S
C833 C832 1.400 . S
C833 C834 1.398 . S
C834 H822 0.950 . S
C834 C833 1.398 . S
C834 C835 1.391 . S
C835 H823 0.950 . S
C835 C831 1.393 . S
C835 C834 1.391 . S
H836 C844 0.950 . S
H837 C849 0.950 . S
H838 C846 0.950 . S
H839 C848 0.950 . S
H840 C850 0.950 . S
H841 C852 0.950 . S
H842 C854 0.950 . S
H843 C855 0.950 . S
C844 H836 0.950 . S
C844 C845 1.386 . S
C844 C846 1.391 . S
C845 C844 1.386 . S
C845 C849 1.393 . S
C846 H838 0.950 . S
C846 C844 1.391 . S
C846 C847 1.400 . S
C847 C846 1.400 . S
C847 C848 1.398 . S
C847 C853 1.491 . S
C848 H839 0.950 . S
C848 C847 1.398 . S
C848 C849 1.391 . S
C849 H837 0.950 . S
C849 C845 1.393 . S
C849 C848 1.391 . S
C850 H840 0.950 . S
C850 C851 1.386 . S
C850 C852 1.391 . S
C851 C850 1.386 . S
C851 C855 1.393 . S
C852 H841 0.950 . S
C852 C850 1.391 . S
C852 C853 1.400 . S
C853 C847 1.491 . S
C853 C852 1.400 . S
C853 C854 1.398 . S
C854 H842 0.950 . S
C854 C853 1.398 . S
C854 C855 1.391 . S
C855 H843 0.950 . S
C855 C851 1.393 . S
C855 C854 1.391 . S
H856 C864 0.950 . S
H857 C869 0.950 . S
H858 C866 0.950 . S
H859 C868 0.950 . S
H860 C870 0.950 . S
H861 C872 0.950 . S
H862 C874 0.950 . S
H863 C875 0.950 . S
C864 H856 0.950 . S
C864 C865 1.386 . S
C864 C866 1.391 . S
C865 C864 1.386 . S
C865 C869 1.393 . S
C866 H858 0.950 . S
C866 C864 1.391 . S
C866 C867 1.400 . S
C867 C866 1.400 . S
C867 C868 1.398 . S
C867 C873 1.491 1_556 S
C868 H859 0.950 . S
C868 C867 1.398 . S
C868 C869 1.391 . S
C869 H857 0.950 . S
C869 C865 1.393 . S
C869 C868 1.391 . S
C870 H860 0.950 . S
C870 C871 1.386 . S
C870 C872 1.391 . S
C871 C870 1.386 . S
C871 C875 1.393 . S
C872 H861 0.950 . S
C872 C870 1.391 . S
C872 C873 1.400 . S
C873 C867 1.491 1_554 S
C873 C872 1.400 . S
C873 C874 1.398 . S
C874 H862 0.950 . S
C874 C873 1.398 . S
C874 C875 1.391 . S
C875 H863 0.950 . S
C875 C871 1.393 . S
C875 C874 1.391 . S
H876 C884 0.950 . S
H877 C889 0.950 . S
H878 C886 0.950 . S
H879 C888 0.950 . S
H880 C890 0.950 . S
H881 C892 0.950 . S
H882 C894 0.950 . S
H883 C895 0.950 . S
C884 H876 0.950 . S
C884 C885 1.386 1_655 S
C884 C886 1.391 . S
C885 C884 1.386 1_455 S
C885 C889 1.393 . S
C886 H878 0.950 . S
C886 C884 1.391 . S
C886 C887 1.400 1_655 S
C887 C886 1.400 1_455 S
C887 C888 1.398 . S
C887 C893 1.491 . S
C888 H879 0.950 . S
C888 C887 1.398 . S
C888 C889 1.391 . S
C889 H877 0.950 . S
C889 C885 1.393 . S
C889 C888 1.391 . S
C890 H880 0.950 . S
C890 C891 1.386 . S
C890 C892 1.391 . S
C891 C890 1.386 . S
C891 C895 1.393 1_455 S
C892 H881 0.950 . S
C892 C890 1.391 . S
C892 C893 1.400 . S
C893 C887 1.491 . S
C893 C892 1.400 . S
C893 C894 1.398 1_455 S
C894 H882 0.950 . S
C894 C893 1.398 1_655 S
C894 C895 1.391 . S
C895 H883 0.950 . S
C895 C891 1.393 1_655 S
C895 C894 1.391 . S
H896 C904 0.950 . S
H897 C909 0.950 . S
H898 C906 0.950 . S
H899 C908 0.950 . S
H900 C910 0.950 . S
H901 C912 0.950 . S
H902 C914 0.950 . S
H903 C915 0.950 . S
C904 H896 0.950 . S
C904 C905 1.386 . S
C904 C906 1.391 . S
C905 C904 1.386 . S
C905 C909 1.393 . S
C906 H898 0.950 . S
C906 C904 1.391 . S
C906 C907 1.400 . S
C907 C906 1.400 . S
C907 C908 1.398 . S
C907 C913 1.491 . S
C908 H899 0.950 . S
C908 C907 1.398 . S
C908 C909 1.391 . S
C909 H897 0.950 . S
C909 C905 1.393 . S
C909 C908 1.391 . S
C910 H900 0.950 . S
C910 C911 1.386 . S
C910 C912 1.391 . S
C911 C910 1.386 . S
C911 C915 1.393 . S
C912 H901 0.950 . S
C912 C910 1.391 . S
C912 C913 1.400 . S
C913 C907 1.491 . S
C913 C912 1.400 . S
C913 C914 1.398 . S
C914 H902 0.950 . S
C914 C913 1.398 . S
C914 C915 1.391 . S
C915 H903 0.950 . S
C915 C911 1.393 . S
C915 C914 1.391 . S
H916 C924 0.950 . S
H917 C929 0.950 . S
H918 C926 0.950 . S
H919 C928 0.950 . S
H920 C930 0.950 . S
H921 C932 0.950 . S
H922 C934 0.950 . S
H923 C935 0.950 . S
C924 H916 0.950 . S
C924 C925 1.386 . S
C924 C926 1.391 . S
C925 C924 1.386 . S
C925 C929 1.393 . S
C926 H918 0.950 . S
C926 C924 1.391 . S
C926 C927 1.400 . S
C927 C926 1.400 . S
C927 C928 1.398 . S
C927 C933 1.491 . S
C928 H919 0.950 . S
C928 C927 1.398 . S
C928 C929 1.391 . S
C929 H917 0.950 . S
C929 C925 1.393 . S
C929 C928 1.391 . S
C930 H920 0.950 . S
C930 C931 1.386 . S
C930 C932 1.391 . S
C931 C930 1.386 . S
C931 C935 1.393 . S
C932 H921 0.950 . S
C932 C930 1.391 . S
C932 C933 1.400 . S
C933 C927 1.491 . S
C933 C932 1.400 . S
C933 C934 1.398 . S
C934 H922 0.950 . S
C934 C933 1.398 . S
C934 C935 1.391 . S
C935 H923 0.950 . S
C935 C931 1.393 . S
C935 C934 1.391 . S
H936 C944 0.950 . S
H937 C949 0.950 . S
H938 C946 0.950 . S
H939 C948 0.950 . S
H940 C950 0.950 . S
H941 C952 0.950 . S
H942 C954 0.950 . S
H943 C955 0.950 . S
C944 H936 0.950 . S
C944 C945 1.386 . S
C944 C946 1.391 . S
C945 C944 1.386 . S
C945 C949 1.393 . S
C946 H938 0.950 . S
C946 C944 1.391 . S
C946 C947 1.400 . S
C947 C946 1.400 . S
C947 C948 1.398 . S
C947 C953 1.491 . S
C948 H939 0.950 . S
C948 C947 1.398 . S
C948 C949 1.391 . S
C949 H937 0.950 . S
C949 C945 1.393 . S
C949 C948 1.391 . S
C950 H940 0.950 . S
C950 C951 1.386 . S
C950 C952 1.391 . S
C951 C950 1.386 . S
C951 C955 1.393 . S
C952 H941 0.950 . S
C952 C950 1.391 . S
C952 C953 1.400 . S
C953 C947 1.491 . S
C953 C952 1.400 . S
C953 C954 1.398 . S
C954 H942 0.950 . S
C954 C953 1.398 . S
C954 C955 1.391 . S
C955 H943 0.950 . S
C955 C951 1.393 . S
C955 C954 1.391 . S
H956 C964 0.950 . S
H957 C969 0.950 . S
H958 C966 0.950 . S
H959 C968 0.950 . S
H960 C970 0.950 . S
H961 C972 0.950 . S
H962 C974 0.950 . S
H963 C975 0.950 . S
C964 H956 0.950 . S
C964 C965 1.386 . S
C964 C966 1.391 . S
C965 C964 1.386 . S
C965 C969 1.393 . S
C966 H958 0.950 . S
C966 C964 1.391 . S
C966 C967 1.400 . S
C967 C966 1.400 . S
C967 C968 1.398 . S
C967 C973 1.491 . S
C968 H959 0.950 . S
C968 C967 1.398 . S
C968 C969 1.391 . S
C969 H957 0.950 . S
C969 C965 1.393 . S
C969 C968 1.391 . S
C970 H960 0.950 . S
C970 C971 1.386 . S
C970 C972 1.391 . S
C971 C970 1.386 . S
C971 C975 1.393 . S
C972 H961 0.950 . S
C972 C970 1.391 . S
C972 C973 1.400 . S
C973 C967 1.491 . S
C973 C972 1.400 . S
C973 C974 1.398 . S
C974 H962 0.950 . S
C974 C973 1.398 . S
C974 C975 1.391 . S
C975 H963 0.950 . S
C975 C971 1.393 . S
C975 C974 1.391 . S
H976 C984 0.950 . S
H977 C989 0.950 . S
H978 C986 0.950 . S
H979 C988 0.950 . S
H980 C990 0.950 . S
H981 C992 0.950 . S
H982 C994 0.950 . S
H983 C995 0.950 . S
C984 H976 0.950 . S
C984 C985 1.386 . S
C984 C986 1.391 . S
C985 C984 1.386 . S
C985 C989 1.393 . S
C986 H978 0.950 . S
C986 C984 1.391 . S
C986 C987 1.400 . S
C987 C986 1.400 . S
C987 C988 1.398 . S
C987 C993 1.491 . S
C988 H979 0.950 . S
C988 C987 1.398 . S
C988 C989 1.391 . S
C989 H977 0.950 . S
C989 C985 1.393 . S
C989 C988 1.391 . S
C990 H980 0.950 . S
C990 C991 1.386 . S
C990 C992 1.391 . S
C991 C990 1.386 . S
C991 C995 1.393 . S
C992 H981 0.950 . S
C992 C990 1.391 . S
C992 C993 1.400 . S
C993 C987 1.491 . S
C993 C992 1.400 . S
C993 C994 1.398 . S
C994 H982 0.950 . S
C994 C993 1.398 . S
C994 C995 1.391 . S
C995 H983 0.950 . S
C995 C991 1.393 . S
C995 C994 1.391 . S
H996 C1004 0.950 . S
H997 C1009 0.950 1_565 S
H998 C1006 0.950 . S
H999 C1008 0.950 . S
H1000 C1010 0.950 . S
H1001 C1012 0.950 . S
H1002 C1014 0.950 . S
H1003 C1015 0.950 . S
C1004 H996 0.950 . S
C1004 C1005 1.386 . S
C1004 C1006 1.391 . S
C1005 C1004 1.386 . S
C1005 C1009 1.393 . S
C1006 H998 0.950 . S
C1006 C1004 1.391 . S
C1006 C1007 1.400 . S
C1007 C1006 1.400 . S
C1007 C1008 1.398 . S
C1007 C1013 1.491 . S
C1008 H999 0.950 . S
C1008 C1007 1.398 . S
C1008 C1009 1.391 . S
C1009 H997 0.950 1_545 S
C1009 C1005 1.393 . S
C1009 C1008 1.391 . S
C1010 H1000 0.950 . S
C1010 C1011 1.386 . S
C1010 C1012 1.391 . S
C1011 C1010 1.386 . S
C1011 C1015 1.393 . S
C1012 H1001 0.950 . S
C1012 C1010 1.391 . S
C1012 C1013 1.400 . S
C1013 C1007 1.491 . S
C1013 C1012 1.400 . S
C1013 C1014 1.398 . S
C1014 H1002 0.950 . S
C1014 C1013 1.398 . S
C1014 C1015 1.391 . S
C1015 H1003 0.950 . S
C1015 C1011 1.393 . S
C1015 C1014 1.391 . S
H1016 C1024 0.950 . S
H1017 C1029 0.950 . S
H1018 C1026 0.950 . S
H1019 C1028 0.950 . S
H1020 C1030 0.950 . S
H1021 C1032 0.950 . S
H1022 C1034 0.950 . S
H1023 C1035 0.958 . S
C1024 H1016 0.950 . S
C1024 C1025 1.386 . S
C1024 C1026 1.391 . S
C1025 C1024 1.386 . S
C1025 C1029 1.393 . S
C1026 H1018 0.950 . S
C1026 C1024 1.391 . S
C1026 C1027 1.400 . S
C1027 C1026 1.400 . S
C1027 C1028 1.398 . S
C1027 C1033 1.491 . S
C1028 H1019 0.950 . S
C1028 C1027 1.398 . S
C1028 C1029 1.391 . S
C1029 H1017 0.950 . S
C1029 C1025 1.393 . S
C1029 C1028 1.391 . S
C1030 H1020 0.950 . S
C1030 C1031 1.386 . S
C1030 C1032 1.391 . S
C1031 C1030 1.386 . S
C1031 C1035 1.393 . S
C1032 H1021 0.950 . S
C1032 C1030 1.391 . S
C1032 C1033 1.400 . S
C1033 C1027 1.491 . S
C1033 C1032 1.400 . S
C1033 C1034 1.398 . S
C1034 H1022 0.950 . S
C1034 C1033 1.398 . S
C1034 C1035 1.391 . S
C1035 H1023 0.958 . S
C1035 C1031 1.393 . S
C1035 C1034 1.391 . S
H1036 C1044 0.950 . S
H1037 C1049 0.950 . S
H1038 C1046 0.950 . S
H1039 C1048 0.950 . S
H1040 C1050 0.950 1_545 S
H1041 C1052 0.950 . S
H1042 C1054 0.950 . S
H1043 C1055 0.950 . S
C1044 H1036 0.950 . S
C1044 C1045 1.386 . S
C1044 C1046 1.391 . S
C1045 C1044 1.386 . S
C1045 C1049 1.393 . S
C1046 H1038 0.950 . S
C1046 C1044 1.391 . S
C1046 C1047 1.400 . S
C1047 C1046 1.400 . S
C1047 C1048 1.398 . S
C1047 C1053 1.491 . S
C1048 H1039 0.950 . S
C1048 C1047 1.398 . S
C1048 C1049 1.391 . S
C1049 H1037 0.950 . S
C1049 C1045 1.393 . S
C1049 C1048 1.391 . S
C1050 H1040 0.950 1_565 S
C1050 C1051 1.386 . S
C1050 C1052 1.391 . S
C1051 C1050 1.386 . S
C1051 C1055 1.393 . S
C1052 H1041 0.950 . S
C1052 C1050 1.391 . S
C1052 C1053 1.400 . S
C1053 C1047 1.491 . S
C1053 C1052 1.400 . S
C1053 C1054 1.398 . S
C1054 H1042 0.950 . S
C1054 C1053 1.398 . S
C1054 C1055 1.391 . S
C1055 H1043 0.950 . S
C1055 C1051 1.393 . S
C1055 C1054 1.391 . S
H1056 C1064 0.950 . S
H1057 C1069 0.950 . S
H1058 C1066 0.950 . S
H1059 C1068 0.950 . S
H1060 C1070 0.950 . S
H1061 C1072 0.950 . S
H1062 C1074 0.950 . S
H1063 C1075 0.950 . S
C1064 H1056 0.950 . S
C1064 C1065 1.386 . S
C1064 C1066 1.391 . S
C1065 C1064 1.386 . S
C1065 C1069 1.393 . S
C1066 H1058 0.950 . S
C1066 C1064 1.391 . S
C1066 C1067 1.400 . S
C1067 C1066 1.400 . S
C1067 C1068 1.398 . S
C1067 C1073 1.491 . S
C1068 H1059 0.950 . S
C1068 C1067 1.398 . S
C1068 C1069 1.391 . S
C1069 H1057 0.950 . S
C1069 C1065 1.393 . S
C1069 C1068 1.391 . S
C1070 H1060 0.950 . S
C1070 C1071 1.386 . S
C1070 C1072 1.391 . S
C1071 C1070 1.386 . S
C1071 C1075 1.393 . S
C1072 H1061 0.950 . S
C1072 C1070 1.391 . S
C1072 C1073 1.400 . S
C1073 C1067 1.491 . S
C1073 C1072 1.400 . S
C1073 C1074 1.398 . S
C1074 H1062 0.950 . S
C1074 C1073 1.398 . S
C1074 C1075 1.391 . S
C1075 H1063 0.950 . S
C1075 C1071 1.393 . S
C1075 C1074 1.391 . S
H1076 C1084 0.950 . S
H1077 C1089 0.950 . S
H1078 C1086 0.950 . S
H1079 C1088 0.950 . S
H1080 C1090 0.950 . S
H1081 C1092 0.950 . S
H1082 C1094 0.950 . S
H1083 C1095 0.950 . S
C1084 H1076 0.950 . S
C1084 C1085 1.386 . S
C1084 C1086 1.391 . S
C1085 C1084 1.386 . S
C1085 C1089 1.393 . S
C1086 H1078 0.950 . S
C1086 C1084 1.391 . S
C1086 C1087 1.400 . S
C1087 C1086 1.400 . S
C1087 C1088 1.398 . S
C1087 C1093 1.491 . S
C1088 H1079 0.950 . S
C1088 C1087 1.398 . S
C1088 C1089 1.391 . S
C1089 H1077 0.950 . S
C1089 C1085 1.393 . S
C1089 C1088 1.391 . S
C1090 H1080 0.950 . S
C1090 C1091 1.386 . S
C1090 C1092 1.391 . S
C1091 C1090 1.386 . S
C1091 C1095 1.393 . S
C1092 H1081 0.950 . S
C1092 C1090 1.391 . S
C1092 C1093 1.400 . S
C1093 C1087 1.491 . S
C1093 C1092 1.400 . S
C1093 C1094 1.398 . S
C1094 H1082 0.950 . S
C1094 C1093 1.398 . S
C1094 C1095 1.391 . S
C1095 H1083 0.950 . S
C1095 C1091 1.393 . S
C1095 C1094 1.391 . S
H1096 C1104 0.950 . S
H1097 C1109 0.950 . S
H1098 C1106 0.950 . S
H1099 C1108 0.950 . S
H1100 C1110 0.950 . S
H1101 C1112 0.950 . S
H1102 C1114 0.950 . S
H1103 C1115 0.950 . S
C1104 H1096 0.950 . S
C1104 C1105 1.386 . S
C1104 C1106 1.391 . S
C1105 C1104 1.386 . S
C1105 C1109 1.393 . S
C1106 H1098 0.950 . S
C1106 C1104 1.391 . S
C1106 C1107 1.400 . S
C1107 C1106 1.400 . S
C1107 C1108 1.398 . S
C1107 C1113 1.491 . S
C1108 H1099 0.950 . S
C1108 C1107 1.398 . S
C1108 C1109 1.391 . S
C1109 H1097 0.950 . S
C1109 C1105 1.393 . S
C1109 C1108 1.391 . S
C1110 H1100 0.950 . S
C1110 C1111 1.386 . S
C1110 C1112 1.391 . S
C1111 C1110 1.386 . S
C1111 C1115 1.393 . S
C1112 H1101 0.950 . S
C1112 C1110 1.391 . S
C1112 C1113 1.400 . S
C1113 C1107 1.491 . S
C1113 C1112 1.400 . S
C1113 C1114 1.398 . S
C1114 H1102 0.950 . S
C1114 C1113 1.398 . S
C1114 C1115 1.391 . S
C1115 H1103 0.950 . S
C1115 C1111 1.393 . S
C1115 C1114 1.391 . S
H1116 C1124 0.950 . S
H1117 C1129 0.950 . S
H1118 C1126 0.950 . S
H1119 C1128 0.950 . S
H1120 C1130 0.950 . S
H1121 C1132 0.950 . S
H1122 C1134 0.950 . S
H1123 C1135 0.950 . S
C1124 H1116 0.950 . S
C1124 C1125 1.386 . S
C1124 C1126 1.391 . S
C1125 C1124 1.386 . S
C1125 C1129 1.393 . S
C1126 H1118 0.950 . S
C1126 C1124 1.391 . S
C1126 C1127 1.400 . S
C1127 C1126 1.400 . S
C1127 C1128 1.398 . S
C1127 C1133 1.491 . S
C1128 H1119 0.950 . S
C1128 C1127 1.398 . S
C1128 C1129 1.391 . S
C1129 H1117 0.950 . S
C1129 C1125 1.393 . S
C1129 C1128 1.391 . S
C1130 H1120 0.950 . S
C1130 C1131 1.386 . S
C1130 C1132 1.391 . S
C1131 C1130 1.386 . S
C1131 C1135 1.393 . S
C1132 H1121 0.950 . S
C1132 C1130 1.391 . S
C1132 C1133 1.400 . S
C1133 C1127 1.491 . S
C1133 C1132 1.400 . S
C1133 C1134 1.398 . S
C1134 H1122 0.950 . S
C1134 C1133 1.398 . S
C1134 C1135 1.391 . S
C1135 H1123 0.950 . S
C1135 C1131 1.393 . S
C1135 C1134 1.391 . S
H1136 C1144 0.950 . S
H1137 C1149 0.950 . S
H1138 C1146 0.950 . S
H1139 C1148 0.950 . S
H1140 C1150 0.950 . S
H1141 C1152 0.950 . S
H1142 C1154 0.950 . S
H1143 C1155 0.950 . S
C1144 H1136 0.950 . S
C1144 C1145 1.386 . S
C1144 C1146 1.391 . S
C1145 C1144 1.386 . S
C1145 C1149 1.393 . S
C1146 H1138 0.950 . S
C1146 C1144 1.391 . S
C1146 C1147 1.400 . S
C1147 C1146 1.400 . S
C1147 C1148 1.398 . S
C1147 C1153 1.491 . S
C1148 H1139 0.950 . S
C1148 C1147 1.398 . S
C1148 C1149 1.391 . S
C1149 H1137 0.950 . S
C1149 C1145 1.393 . S
C1149 C1148 1.391 . S
C1150 H1140 0.950 . S
C1150 C1151 1.386 . S
C1150 C1152 1.391 . S
C1151 C1150 1.386 . S
C1151 C1155 1.393 . S
C1152 H1141 0.950 . S
C1152 C1150 1.391 . S
C1152 C1153 1.400 . S
C1153 C1147 1.491 . S
C1153 C1152 1.400 . S
C1153 C1154 1.398 . S
C1154 H1142 0.950 . S
C1154 C1153 1.398 . S
C1154 C1155 1.391 . S
C1155 H1143 0.950 . S
C1155 C1151 1.393 . S
C1155 C1154 1.391 . S
H1156 C1164 0.950 . S
H1157 C1169 0.950 . S
H1158 C1166 0.950 . S
H1159 C1168 0.950 . S
H1160 C1170 0.950 . S
H1161 C1172 0.950 . S
H1162 C1174 0.950 . S
H1163 C1175 0.950 . S
C1164 H1156 0.950 . S
C1164 C1165 1.386 . S
C1164 C1166 1.391 . S
C1165 C1164 1.386 . S
C1165 C1169 1.393 . S
C1166 H1158 0.950 . S
C1166 C1164 1.391 . S
C1166 C1167 1.400 . S
C1167 C1166 1.400 . S
C1167 C1168 1.398 . S
C1167 C1173 1.491 . S
C1168 H1159 0.950 . S
C1168 C1167 1.398 . S
C1168 C1169 1.391 . S
C1169 H1157 0.950 . S
C1169 C1165 1.393 . S
C1169 C1168 1.391 . S
C1170 H1160 0.950 . S
C1170 C1171 1.386 . S
C1170 C1172 1.391 . S
C1171 C1170 1.386 . S
C1171 C1175 1.393 . S
C1172 H1161 0.950 . S
C1172 C1170 1.391 . S
C1172 C1173 1.400 . S
C1173 C1167 1.491 . S
C1173 C1172 1.400 . S
C1173 C1174 1.398 . S
C1174 H1162 0.950 . S
C1174 C1173 1.398 . S
C1174 C1175 1.391 . S
C1175 H1163 0.950 . S
C1175 C1171 1.393 . S
C1175 C1174 1.391 . S
H1176 C1184 0.950 . S
H1177 C1189 0.950 . S
H1178 C1186 0.950 . S
H1179 C1188 0.950 . S
H1180 C1190 0.950 . S
H1181 C1192 0.950 . S
H1182 C1194 0.950 . S
H1183 C1195 0.950 . S
C1184 H1176 0.950 . S
C1184 C1185 1.386 . S
C1184 C1186 1.391 . S
C1185 C1184 1.386 . S
C1185 C1189 1.393 . S
C1186 H1178 0.950 . S
C1186 C1184 1.391 . S
C1186 C1187 1.400 . S
C1187 C1186 1.400 . S
C1187 C1188 1.398 . S
C1187 C1193 1.491 . S
C1188 H1179 0.950 . S
C1188 C1187 1.398 . S
C1188 C1189 1.391 . S
C1189 H1177 0.950 . S
C1189 C1185 1.393 . S
C1189 C1188 1.391 . S
C1190 H1180 0.950 . S
C1190 C1191 1.386 . S
C1190 C1192 1.391 . S
C1191 C1190 1.386 . S
C1191 C1195 1.393 . S
C1192 H1181 0.950 . S
C1192 C1190 1.391 . S
C1192 C1193 1.400 . S
C1193 C1187 1.491 . S
C1193 C1192 1.400 . S
C1193 C1194 1.398 . S
C1194 H1182 0.950 . S
C1194 C1193 1.398 . S
C1194 C1195 1.391 . S
C1195 H1183 0.950 . S
C1195 C1191 1.393 . S
C1195 C1194 1.391 . S
H1196 C1204 0.950 . S
H1197 C1209 0.950 . S
H1198 C1206 0.950 . S
H1199 C1208 0.950 . S
H1200 C1210 0.950 . S
H1201 C1212 0.950 . S
H1202 C1214 0.950 . S
H1203 C1215 0.950 . S
C1204 H1196 0.950 . S
C1204 C1205 1.386 . S
C1204 C1206 1.391 . S
C1205 C1204 1.386 . S
C1205 C1209 1.393 . S
C1206 H1198 0.950 . S
C1206 C1204 1.391 . S
C1206 C1207 1.400 . S
C1207 C1206 1.400 . S
C1207 C1208 1.398 . S
C1207 C1213 1.491 . S
C1208 H1199 0.950 . S
C1208 C1207 1.398 . S
C1208 C1209 1.391 . S
C1209 H1197 0.950 . S
C1209 C1205 1.393 . S
C1209 C1208 1.391 . S
C1210 H1200 0.950 . S
C1210 C1211 1.386 . S
C1210 C1212 1.391 . S
C1211 C1210 1.386 . S
C1211 C1215 1.393 . S
C1212 H1201 0.950 . S
C1212 C1210 1.391 . S
C1212 C1213 1.400 . S
C1213 C1207 1.491 . S
C1213 C1212 1.400 . S
C1213 C1214 1.398 . S
C1214 H1202 0.950 . S
C1214 C1213 1.398 . S
C1214 C1215 1.391 . S
C1215 H1203 0.950 . S
C1215 C1211 1.393 . S
C1215 C1214 1.391 . S
C585 C4 1.261 1_455 S
C591 C472 1.267 . S
C605 C400 1.262 . S
C611 C40 1.270 . S
C625 C436 1.270 . S
C631 C76 1.270 . S
C645 C364 1.272 . S
C651 C112 1.268 . S
C665 C148 1.265 1_455 S
C671 C544 1.272 . S
C685 C184 1.265 . S
C691 C328 1.262 . S
C705 C508 1.266 . S
C711 C220 1.272 . S
C725 C256 1.268 . S
C731 C292 1.271 . S
C745 C158 1.557 . S
C751 C14 1.560 . S
C765 C50 1.572 . S
C771 C194 1.565 . S
C785 C86 1.557 . S
C791 C230 1.561 . S
C805 C266 1.564 . S
C811 C122 1.554 . S
C825 C302 1.568 . S
C831 C374 1.569 . S
C845 C338 1.567 . S
C851 C410 1.570 . S
C865 C518 1.572 . S
C871 C446 1.552 . S
C885 C482 1.568 . S
C891 C554 1.570 . S
C905 C183 1.215 . S
C911 C3 1.215 . S
C925 C39 1.216 . S
C931 C219 1.218 . S
C945 C75 1.215 . S
C951 C255 1.217 . S
C965 C147 1.219 . S
C971 C111 1.217 . S
C985 C146 1.379 1_545 S
C991 C362 1.391 . S
C1005 C74 1.391 1_545 S
C1011 C290 1.380 . S
C1025 C398 1.389 . S
C1031 C218 1.381 1_565 S
C1045 C326 1.390 . S
C1051 C2 1.381 1_565 S
C1065 C291 1.218 . S
C1071 C435 1.220 . S
C1085 C363 1.220 . S
C1091 C543 1.221 . S
C1105 C471 1.216 . S
C1111 C327 1.217 . S
C1125 C399 1.216 . S
C1131 C507 1.215 . S
C1145 C506 1.393 . S
C1151 C38 1.378 . S
C1165 C470 1.378 . S
C1171 C182 1.393 . S
C1185 C542 1.393 . S
C1191 C110 1.378 . S
C1205 C434 1.378 . S
C1211 C254 1.392 . S
