# Generated by pormake.
# Topology rob, (6)-cn, num edge types: 1
# Building blocks:
#     Node 0, Type 0, BuildingBlock: BETGAK_clean_sbu_0, # of connection points: 6
#     Node 1, Type 0, BuildingBlock: BETGAK_clean_sbu_0, # of connection points: 6
#     Node 2, Type 0, BuildingBlock: BETGAK_clean_sbu_0, # of connection points: 6
#     Node 3, Type 0, BuildingBlock: BETGAK_clean_sbu_0, # of connection points: 6
#     Edge 4, Type (0, 0), BuildingBlock: ZUJKAS_clean_linker_0, # of connection points: 2
#     Edge 5, Type (0, 0), BuildingBlock: ZUJKAS_clean_linker_0, # of connection points: 2
#     Edge 6, Type (0, 0), BuildingBlock: ZUJKAS_clean_linker_0, # of connection points: 2
#     Edge 7, Type (0, 0), BuildingBlock: ZUJKAS_clean_linker_0, # of connection points: 2
#     Edge 8, Type (0, 0), BuildingBlock: ZUJKAS_clean_linker_0, # of connection points: 2
#     Edge 9, Type (0, 0), BuildingBlock: ZUJKAS_clean_linker_0, # of connection points: 2
#     Edge 10, Type (0, 0), BuildingBlock: ZUJKAS_clean_linker_0, # of connection points: 2
#     Edge 11, Type (0, 0), BuildingBlock: ZUJKAS_clean_linker_0, # of connection points: 2
#     Edge 12, Type (0, 0), BuildingBlock: ZUJKAS_clean_linker_0, # of connection points: 2
#     Edge 13, Type (0, 0), BuildingBlock: ZUJKAS_clean_linker_0, # of connection points: 2
#     Edge 14, Type (0, 0), BuildingBlock: ZUJKAS_clean_linker_0, # of connection points: 2
#     Edge 15, Type (0, 0), BuildingBlock: ZUJKAS_clean_linker_0, # of connection points: 2
# Relax obj value: 0.112
# Max RMSD: 0.175
# Mean RMSD: 0.175
data_MOF--net-rob--node1-BETGAK_clean_sbu_0--edge1-ZUJKAS_clean_linker_0
_symmetry_space_group_name_H-M    P1
_symmetry_Int_Tables_number       1
_symmetry_cell_setting            triclinic
loop_
_symmetry_equiv_pos_as_xyz
'x, y, z'
_cell_length_a     19.628574
_cell_length_b     32.263386
_cell_length_c     45.602448
_cell_angle_alpha  90.00008
_cell_angle_beta   120.60383
_cell_angle_gamma 90.078753
loop_
_atom_site_label
_atom_site_type_symbol
_atom_site_fract_x
_atom_site_fract_y
_atom_site_fract_z
_atom_type_partial_charge
La0 La 0.19349 0.28188 0.00422 0.0
La1 La 0.3375 0.25344 1.00299 0.0
C2 C 0.08382 0.29001 0.01756 0.0
C3 C 0.07601 0.28711 0.04815 0.0
C4 C 0.02863 0.31594 0.05263 0.0
C5 C 0.02142 0.31459 0.08163 0.0
C6 C 0.06184 0.28443 0.10701 0.0
C7 C 0.10947 0.25554 0.10247 0.0
C8 C 0.11612 0.25674 0.07326 0.0
C9 C 0.28205 0.34194 1.00175 0.0
C10 C 0.35286 0.25694 0.07299 0.0
C11 C 0.44566 0.24597 0.98874 0.0
C12 C 0.45091 0.2481 0.95732 0.0
C13 C 0.45602 0.2114 0.94192 0.0
C14 C 0.46234 0.21275 0.9127 0.0
C15 C 0.46459 0.25088 0.89826 0.0
C16 C 0.45978 0.28767 0.91371 0.0
C17 C 0.45291 0.28632 0.94285 0.0
C18 C 0.2484 0.19344 0.00526 0.0
C19 C 0.17849 0.27795 0.93402 0.0
O20 O 0.12677 0.32074 0.01717 0.0
O21 O 0.09773 0.25566 0.00622 0.0
O22 O 0.20552 0.34308 0.98675 0.0
O23 O 0.3068 0.30894 0.01891 0.0
O24 O 0.2748 0.26018 0.05608 0.0
O25 O 0.39446 0.2596 0.05768 0.0
O26 O 0.40607 0.21474 0.99103 0.0
O27 O 0.4311 0.28043 0.99973 0.0
O28 O 0.32495 0.19209 0.02025 0.0
O29 O 0.22418 0.22652 0.98821 0.0
O30 O 0.25637 0.27418 0.951 0.0
O31 O 0.13685 0.27625 0.94939 0.0
H32 H 0.99737 0.33975 0.03369 0.0
H33 H 0.98509 0.33767 0.08441 0.0
H34 H 0.14077 0.23162 0.12126 0.0
H35 H 0.15243 0.2339 0.07026 0.0
H36 H 0.45563 0.18148 0.95261 0.0
H37 H 0.46707 0.18384 0.9018 0.0
H38 H 0.46067 0.31756 0.9031 0.0
H39 H 0.44941 0.31526 0.95404 0.0
La40 La 0.69223 0.78378 1.00308 0.0
La41 La 0.83759 0.75193 0.00434 0.0
C42 C 0.58284 0.79315 0.01627 0.0
C43 C 0.57616 0.79052 0.04732 0.0
C44 C 0.59479 0.82482 0.06919 0.0
C45 C 0.58648 0.82267 0.09788 0.0
C46 C 0.55895 0.78624 0.10545 0.0
C47 C 0.54068 0.75186 0.08366 0.0
C48 C 0.54892 0.75403 0.05491 0.0
C49 C 0.78077 0.84145 0.99772 0.0
C50 C 0.85078 0.76363 0.07389 0.0
C51 C 0.94841 0.7425 0.99197 0.0
C52 C 0.95605 0.74395 0.96131 0.0
C53 C 1.01129 0.71826 0.95946 0.0
C54 C 0.01977 0.71902 0.93077 0.0
C55 C 0.9731 0.74556 0.90316 0.0
C56 C 0.91718 0.77109 0.90503 0.0
C57 C 0.90878 0.7703 0.93378 0.0
C58 C 0.74935 0.69433 0.00999 0.0
C59 C 0.67816 0.77218 0.93355 0.0
O60 O 0.62505 0.82367 0.01485 0.0
O61 O 0.59546 0.75848 0.00482 0.0
O62 O 0.70421 0.843 0.98282 0.0
O63 O 0.80537 0.80971 0.01653 0.0
O64 O 0.77304 0.7681 0.05642 0.0
O65 O 0.89298 0.76109 0.05881 0.0
O66 O 0.90656 0.7119 0.99347 0.0
O67 O 0.93302 0.77755 1.00189 0.0
O68 O 0.82598 0.69295 0.02499 0.0
O69 O 0.72468 0.72593 0.99099 0.0
O70 O 0.75553 0.76605 0.95068 0.0
O71 O 0.63629 0.77618 0.94863 0.0
H72 H 0.61559 0.85353 0.06413 0.0
H73 H 0.60214 0.84958 0.11427 0.0
H74 H 0.51834 0.72348 0.08839 0.0
H75 H 0.53325 0.72715 0.03846 0.0
H76 H 0.04796 0.69748 0.98027 0.0
H77 H 0.06237 0.69836 0.93009 0.0
H78 H 0.88067 0.79222 0.88451 0.0
H79 H 0.86564 0.79047 0.93453 0.0
La80 La 0.34135 0.78222 0.50458 0.0
La81 La 0.19724 0.75069 0.50451 0.0
C82 C 0.45007 0.79339 0.4912 0.0
C83 C 0.45803 0.78912 0.46074 0.0
C84 C 0.49187 0.82167 0.45204 0.0
C85 C 0.49764 0.81935 0.42274 0.0
C86 C 0.46983 0.7843 0.40141 0.0
C87 C 0.43652 0.75146 0.41033 0.0
C88 C 0.43052 0.75387 0.43966 0.0
C89 C 0.25103 0.84007 0.5084 0.0
C90 C 0.1847 0.7571 0.43496 0.0
C91 C 0.08692 0.74426 0.51747 0.0
C92 C 0.08096 0.74471 0.54861 0.0
C93 C 0.13226 0.72132 0.5776 0.0
C94 C 0.12465 0.72199 0.60656 0.0
C95 C 0.06591 0.74627 0.60734 0.0
C96 C 0.01569 0.77017 0.5784 0.0
C97 C 0.02303 0.76927 0.54942 0.0
C98 C 0.28627 0.69234 0.5005 0.0
C99 C 0.3577 0.77196 0.57477 0.0
O100 O 0.40232 0.82261 0.48968 0.0
O101 O 0.442 0.75937 0.50485 0.0
O102 O 0.32755 0.84192 0.52367 0.0
O103 O 0.22746 0.80768 0.49032 0.0
O104 O 0.26258 0.76096 0.45246 0.0
O105 O 0.14203 0.75813 0.44987 0.0
O106 O 0.12231 0.7125 0.51311 0.0
O107 O 0.10745 0.77925 0.5096 0.0
O108 O 0.20972 0.6903 0.48601 0.0
O109 O 0.31061 0.72493 0.51839 0.0
O110 O 0.28077 0.76428 0.5582 0.0
O111 O 0.39844 0.77681 0.55925 0.0
H112 H 0.51354 0.84913 0.46788 0.0
H113 H 0.52463 0.84494 0.41695 0.0
H114 H 0.41376 0.7242 0.39433 0.0
H115 H 0.40372 0.72835 0.44563 0.0
H116 H 0.17801 0.7023 0.57787 0.0
H117 H 0.16403 0.70284 0.62809 0.0
H118 H 0.97092 0.78999 0.57814 0.0
H119 H 0.98331 0.78791 0.52754 0.0
La120 La 0.84059 0.28087 0.5053 0.0
La121 La 0.69184 0.25066 0.50179 0.0
C122 C 0.95366 0.28774 0.49409 0.0
C123 C 0.96136 0.28721 0.46334 0.0
C124 C 0.91361 0.31221 0.43486 0.0
C125 C 0.9217 0.31104 0.40604 0.0
C126 C 0.97779 0.28487 0.40495 0.0
C127 C 0.02524 0.25979 0.43351 0.0
C128 C 0.01711 0.261 0.46231 0.0
C129 C 0.75261 0.33985 0.50929 0.0
C130 C 0.68249 0.26281 0.4332 0.0
C131 C 0.5803 0.24059 0.51355 0.0
C132 C 0.57198 0.24383 0.54405 0.0
C133 C 0.54422 0.20955 0.5539 0.0
C134 C 0.53697 0.21136 0.58287 0.0
C135 C 0.55679 0.2477 0.60271 0.0
C136 C 0.58471 0.28208 0.59277 0.0
C137 C 0.59235 0.28016 0.56384 0.0
C138 C 0.7811 0.19219 0.49787 0.0
C139 C 0.84697 0.27124 0.57348 0.0
O140 O 0.91689 0.31932 0.49779 0.0
O141 O 0.93317 0.25272 0.50195 0.0
O142 O 0.82938 0.3407 0.52494 0.0
O143 O 0.72764 0.30806 0.49046 0.0
O144 O 0.76029 0.26748 0.45126 0.0
O145 O 0.63893 0.25971 0.44759 0.0
O146 O 0.62515 0.21047 0.51384 0.0
O147 O 0.59199 0.27494 0.50139 0.0
O148 O 0.70435 0.19144 0.48155 0.0
O149 O 0.80501 0.22375 0.51691 0.0
O150 O 0.76905 0.26856 0.55488 0.0
O151 O 0.89177 0.27139 0.55955 0.0
H152 H 0.86986 0.33272 0.43477 0.0
H153 H 0.88467 0.33116 0.38481 0.0
H154 H 0.06817 0.23875 0.43352 0.0
H155 H 0.05437 0.24126 0.48383 0.0
H156 H 0.52855 0.1811 0.53924 0.0
H157 H 0.51676 0.18395 0.58992 0.0
H158 H 0.59977 0.31077 0.60707 0.0
H159 H 0.61434 0.30713 0.55706 0.0
H160 H 0.79921 0.6247 0.0489 0.0
H161 H 0.72034 0.56523 0.04763 0.0
H162 H 0.50863 0.62479 0.96963 0.0
H163 H 0.58766 0.68472 0.97088 0.0
H164 H 0.49072 0.5883 0.02155 0.0
H165 H 0.62517 0.47668 0.97315 0.0
H166 H 0.69578 0.5038 0.01096 0.0
H167 H 0.63701 0.53205 0.972 0.0
C168 C 0.73582 0.62519 0.03145 0.0
C169 C 0.69975 0.65939 0.00988 0.0
C170 C 0.69081 0.591 0.03061 0.0
C171 C 0.60861 0.59001 0.00806 0.0
C172 C 0.57202 0.62463 0.98708 0.0
H173 H 0.23202 0.41286 0.96457 0.0
H174 H 0.31111 0.47242 0.96626 0.0
C175 C 0.61718 0.65892 0.98786 0.0
C176 C 0.56116 0.55299 0.00669 0.0
H177 H 0.54135 0.44845 0.9915 0.0
C178 C 0.50149 0.55778 0.01478 0.0
C179 C 0.57535 0.513 0.99805 0.0
C180 C 0.63629 0.50597 0.98774 0.0
C181 C 0.45682 0.52373 0.0151 0.0
C182 C 0.47086 0.48374 0.00637 0.0
C183 C 0.53059 0.47896 0.9983 0.0
C184 C 0.42314 0.44672 0.00481 0.0
C185 C 0.39625 0.53079 0.02561 0.0
C186 C 0.45973 0.41151 0.02498 0.0
C187 C 0.41442 0.37711 0.02387 0.0
C188 C 0.33168 0.37716 1.00237 0.0
C189 C 0.29554 0.41198 0.98165 0.0
C190 C 0.3407 0.44624 0.98275 0.0
H191 H 0.40847 0.55972 0.04073 0.0
H192 H 0.3368 0.5338 1.00247 0.0
H193 H 0.39468 0.50442 0.0409 0.0
H194 H 0.52328 0.41091 0.04202 0.0
H195 H 0.44399 0.35076 0.04015 0.0
H196 H 0.44822 0.68388 0.53932 0.0
H197 H 0.52833 0.62471 0.5403 0.0
H198 H 0.31699 0.56317 0.46361 0.0
H199 H 0.2373 0.62212 0.46226 0.0
H200 H 0.51809 0.5414 0.55589 0.0
H201 H 0.46209 0.5543 0.42419 0.0
H202 H 0.44085 0.5959 0.4448 0.0
H203 H 0.37357 0.55294 0.42655 0.0
C204 C 0.41909 0.65791 0.52242 0.0
C205 C 0.33645 0.65777 0.5006 0.0
C206 C 0.46485 0.62403 0.52307 0.0
C207 C 0.429 0.58956 0.50169 0.0
C208 C 0.34647 0.58959 0.47986 0.0
H209 H 0.59133 0.35006 0.46943 0.0
H210 H 0.51241 0.40967 0.4686 0.0
C211 C 0.30084 0.62329 0.47927 0.0
C212 C 0.47699 0.55287 0.50297 0.0
H213 H 0.5235 0.49219 0.45403 0.0
C214 C 0.51972 0.53084 0.53367 0.0
C215 C 0.47885 0.53875 0.47395 0.0
C216 C 0.43702 0.56187 0.44058 0.0
C217 C 0.56274 0.49481 0.53598 0.0
C218 C 0.56461 0.48068 0.50696 0.0
C219 C 0.52195 0.50275 0.47627 0.0
C220 C 0.61203 0.44375 0.50813 0.0
C221 C 0.60417 0.4716 0.56933 0.0
C222 C 0.69439 0.44294 0.53041 0.0
C223 C 0.73934 0.40891 0.53099 0.0
C224 C 0.70324 0.3749 0.50913 0.0
C225 C 0.62082 0.37561 0.48678 0.0
C226 C 0.57573 0.40977 0.4862 0.0
H227 H 0.57859 0.47903 0.58554 0.0
H228 H 0.60058 0.43758 0.56507 0.0
H229 H 0.66756 0.48065 0.58357 0.0
H230 H 0.72429 0.469 0.54706 0.0
H231 H 0.80275 0.40946 0.54839 0.0
H232 H 0.29714 0.12242 0.04241 0.0
H233 H 0.21688 0.06315 0.04039 0.0
H234 H 1.00589 0.12605 0.96518 0.0
H235 H 0.08645 0.18532 0.96672 0.0
H236 H 0.0955 0.0576 0.05417 0.0
H237 H 0.98689 1.0143 0.91966 0.0
H238 H 0.06762 0.05018 0.94283 0.0
H239 H 0.96705 0.067 0.9256 0.0
C240 C 0.23362 0.12363 0.02538 0.0
C241 C 0.19819 0.1585 0.0046 0.0
C242 C 0.18774 0.08971 0.0243 0.0
C243 C 0.1053 0.08965 1.00224 0.0
C244 C 0.06949 0.12486 0.9819 0.0
H245 H 0.73172 0.91138 0.95907 0.0
H246 H 0.81137 0.97077 0.96078 0.0
C247 C 0.1155 0.15891 0.983 0.0
C248 C 0.05741 0.05284 1.00092 0.0
H249 H 0.9324 0.97751 0.94789 0.0
C250 C 0.06002 0.04003 0.03094 0.0
C251 C 1.01105 0.02975 0.97065 0.0
C252 C 1.00829 0.04067 0.93789 0.0
C253 C 0.01667 1.00543 0.03141 0.0
C254 C 0.97047 0.98225 1.00115 0.0
C255 C 0.9678 0.9951 0.97112 0.0
C256 C 0.92293 0.94527 0.99989 0.0
C257 C 0.01919 0.99471 0.06415 0.0
C258 C 0.95892 0.91052 0.02083 0.0
C259 C 0.91325 0.87645 0.01996 0.0
C260 C 0.8307 0.87628 0.99792 0.0
C261 C 0.79513 0.9106 0.97644 0.0
C262 C 0.84068 0.9446 0.97735 0.0
H263 H 0.03934 0.02139 0.08207 0.0
H264 H 0.96011 0.98464 0.05917 0.0
H265 H 0.06145 0.96888 0.07686 0.0
H266 H 0.02242 0.90973 0.0379 0.0
H267 H 0.94243 0.8505 0.03681 0.0
H268 H 0.73311 0.1228 0.45839 0.0
H269 H 0.81276 0.06319 0.46076 0.0
H270 H 0.02203 0.12251 0.54095 0.0
H271 H 0.94196 0.18194 0.53918 0.0
H272 H 0.93727 0.05652 0.45022 0.0
H273 H 0.03285 1.00997 0.58273 0.0
H274 H 0.95507 0.04723 0.55952 0.0
H275 H 0.05714 0.06257 0.57885 0.0
C276 C 0.79611 0.12315 0.47659 0.0
C277 C 0.83114 0.15708 0.49868 0.0
C278 C 0.84168 0.08902 0.47788 0.0
C279 C 0.92341 0.0878 0.50142 0.0
C280 C 0.95889 0.12212 0.52307 0.0
H281 H 0.29809 0.91015 0.54696 0.0
H282 H 0.21727 0.96921 0.54456 0.0
C283 C 0.91319 0.15632 0.52182 0.0
C284 C 0.971 0.05075 0.50294 0.0
H285 H 0.09225 0.97442 0.55591 0.0
C286 C 0.97087 0.0385 0.47331 0.0
C287 C 1.01489 0.02698 0.53301 0.0
C288 C 1.01462 0.03702 0.56527 0.0
C289 C 1.01442 1.0039 0.4731 0.0
C290 C 0.05849 0.98022 0.5032 0.0
C291 C 0.05854 0.99243 0.53281 0.0
C292 C 0.10667 0.94344 0.50479 0.0
C293 C 1.01449 0.99368 0.44083 0.0
C294 C 0.07158 0.90866 0.48367 0.0
C295 C 0.11792 0.87472 0.48499 0.0
C296 C 0.20025 0.87477 0.5076 0.0
C297 C 0.23489 0.90919 0.52916 0.0
C298 C 0.18867 0.943 0.52785 0.0
H299 H 0.99488 0.02042 0.42302 0.0
H300 H 0.07435 0.98412 0.44655 0.0
H301 H 0.97308 0.96759 0.42768 0.0
H302 H 1.00828 0.90773 0.46614 0.0
H303 H 0.08945 0.84869 0.46806 0.0
H304 H 0.74862 0.28467 0.3957 0.0
H305 H 0.69041 0.28011 0.33434 0.0
H306 H 0.47489 0.23135 0.32451 0.0
H307 H 0.53249 0.23676 0.38635 0.0
H308 H 0.63798 0.21105 0.29434 0.0
H309 H 0.3944 0.32493 0.25531 0.0
H310 H 0.47487 0.32035 0.29875 0.0
H311 H 0.39478 0.28359 0.28173 0.0
C312 C 0.68865 0.2732 0.38058 0.0
C313 C 0.64499 0.26117 0.39585 0.0
C314 C 0.65555 0.27058 0.34548 0.0
C315 C 0.57823 0.25578 0.32494 0.0
C316 C 0.53422 0.24363 0.33997 0.0
H317 H 0.28977 0.22238 0.1079 0.0
H318 H 0.34807 0.21865 0.16941 0.0
C319 C 0.56719 0.24661 0.37523 0.0
C320 C 0.54513 0.2524 0.28786 0.0
H321 H 0.39792 0.28814 0.21129 0.0
C322 C 0.58547 0.22788 0.27612 0.0
C323 C 0.47682 0.27452 0.26432 0.0
C324 C 0.43298 0.30263 0.27559 0.0
C325 C 0.55895 0.22468 0.24129 0.0
C326 C 0.49095 0.24695 0.21783 0.0
C327 C 0.45019 0.27116 0.22952 0.0
C328 C 0.46002 0.24551 0.18087 0.0
C329 C 0.60316 0.19715 0.22986 0.0
C330 C 0.50438 0.26131 0.16704 0.0
C331 C 0.47099 0.26355 0.13171 0.0
C332 C 0.39263 0.25054 0.11 0.0
C333 C 0.34969 0.23343 0.12404 0.0
C334 C 0.38301 0.23103 0.15915 0.0
H335 H 0.64181 0.17468 0.24996 0.0
H336 H 0.56145 0.17972 0.20648 0.0
H337 H 0.64121 0.21662 0.22391 0.0
H338 H 0.5636 0.27323 0.18352 0.0
H339 H 0.50513 0.277 0.12147 0.0
H340 H 0.59308 0.72186 0.15036 0.0
H341 H 0.57368 0.71899 0.19931 0.0
H342 H 0.48398 0.84399 0.17864 0.0
H343 H 0.50064 0.84666 0.12911 0.0
H344 H 0.63922 0.76773 0.25714 0.0
H345 H 0.31251 0.7832 0.18652 0.0
H346 H 0.36733 0.77147 0.1656 0.0
H347 H 0.36156 0.82393 0.17752 0.0
C348 C 0.5682 0.74856 0.15593 0.0
C349 C 0.54811 0.78443 0.13559 0.0
C350 C 0.55762 0.74696 0.18408 0.0
C351 C 0.52612 0.78101 0.19239 0.0
C352 C 0.50683 0.81699 0.17239 0.0
H353 H 0.43933 0.84592 0.35492 0.0
H354 H 0.4537 0.84348 0.3047 0.0
C355 C 0.51741 0.81864 0.14428 0.0
C356 C 0.51545 0.77938 0.22249 0.0
H357 H 0.37795 0.79032 0.24687 0.0
C358 C 0.58197 0.77232 0.25486 0.0
C359 C 0.44073 0.78538 0.21955 0.0
C360 C 0.3663 0.79102 0.18541 0.0
C361 C 0.57622 0.77221 0.28438 0.0
C362 C 0.50171 0.77872 0.28147 0.0
C363 C 0.43506 0.78542 0.2491 0.0
C364 C 0.492 0.77958 0.31179 0.0
C365 C 0.65037 0.76631 0.31859 0.0
C366 C 0.50749 0.74425 0.33224 0.0
C367 C 0.49941 0.74555 0.36106 0.0
C368 C 0.47574 0.78226 0.37006 0.0
C369 C 0.45893 0.81735 0.34911 0.0
C370 C 0.46664 0.81595 0.32024 0.0
H371 H 0.70477 0.77104 0.31722 0.0
H372 H 0.65159 0.78809 0.33771 0.0
H373 H 0.65147 0.73426 0.32764 0.0
H374 H 0.52591 0.71563 0.32593 0.0
H375 H 0.51316 0.71802 0.37665 0.0
H376 H 0.7157 0.72929 0.89296 0.0
H377 H 0.65993 0.73736 0.83182 0.0
H378 H 0.50221 0.83212 0.82965 0.0
H379 H 0.55496 0.82209 0.89088 0.0
H380 H 0.42685 0.78629 0.77715 0.0
H381 H 0.70965 0.82504 0.78557 0.0
H382 H 0.71809 0.77565 0.80495 0.0
H383 H 0.70069 0.82144 0.82293 0.0
C384 C 0.6687 0.75163 0.87933 0.0
C385 C 0.63949 0.77517 0.8964 0.0
C386 C 0.63768 0.75666 0.84452 0.0
C387 C 0.57902 0.78648 0.82637 0.0
C388 C 0.54822 0.80931 0.84326 0.0
H389 H 0.46496 0.82988 0.6159 0.0
H390 H 0.51626 0.8395 0.67709 0.0
C391 C 0.57791 0.80346 0.87808 0.0
C392 C 0.54805 0.79231 0.7895 0.0
H393 H 0.60646 0.79866 0.73088 0.0
C394 C 0.46606 0.78979 0.76706 0.0
C395 C 0.59881 0.79814 0.77625 0.0
C396 C 0.68655 0.80575 0.7988 0.0
C397 C 0.43386 0.79038 0.73171 0.0
C398 C 0.48544 0.79156 0.71853 0.0
C399 C 0.56698 0.79671 0.74093 0.0
C400 C 0.45642 0.7856 0.68183 0.0
C401 C 0.34492 0.78953 0.70907 0.0
C402 C 0.40824 0.75143 0.66452 0.0
C403 C 0.37766 0.74661 0.6297 0.0
C404 C 0.39753 0.77485 0.61189 0.0
C405 C 0.44953 0.80763 0.62938 0.0
C406 C 0.47834 0.81319 0.66416 0.0
H407 H 0.31566 0.80437 0.72178 0.0
H408 H 0.32515 0.80556 0.68448 0.0
H409 H 0.32464 0.75684 0.70384 0.0
H410 H 0.39344 0.72865 0.67783 0.0
H411 H 0.33811 0.72087 0.61661 0.0
H412 H 0.44089 0.21234 0.61162 0.0
H413 H 0.42826 0.21413 0.66222 0.0
H414 H 0.63777 0.28995 0.71401 0.0
H415 H 0.65285 0.28723 0.66394 0.0
H416 H 0.5535 0.18878 0.73312 0.0
H417 H 0.45696 0.35309 0.72142 0.0
H418 H 0.44632 0.3238 0.68554 0.0
H419 H 0.54188 0.34252 0.71739 0.0
C420 C 0.48501 0.22906 0.63382 0.0
C421 C 0.54805 0.2496 0.63348 0.0
C422 C 0.47726 0.23027 0.66269 0.0
C423 C 0.53163 0.25245 0.69177 0.0
C424 C 0.5945 0.27309 0.69166 0.0
H425 H 0.55907 0.30208 0.88589 0.0
H426 H 0.57645 0.30212 0.83637 0.0
C427 C 0.60275 0.27165 0.66288 0.0
C428 C 0.52321 0.25323 0.7224 0.0
H429 H 0.47554 0.3162 0.76957 0.0
C430 C 0.5364 0.2166 0.74112 0.0
C431 C 0.50146 0.28962 0.7329 0.0
C432 C 0.48526 0.32956 0.71327 0.0
C433 C 0.52919 0.21544 0.77028 0.0
C434 C 0.50577 0.25165 0.78047 0.0
C435 C 0.49319 0.2884 0.7618 0.0
C436 C 0.49386 0.25202 0.81031 0.0
C437 C 0.54872 0.17561 0.79032 0.0
C438 C 0.44042 0.22448 0.812 0.0
C439 C 0.43061 0.22429 0.84035 0.0
C440 C 0.47316 0.25207 0.86753 0.0
C441 C 0.52498 0.28043 0.86536 0.0
C442 C 0.5352 0.28039 0.83708 0.0
H443 H 0.58809 0.15553 0.78559 0.0
H444 H 0.57801 0.18179 0.8181 0.0
H445 H 0.49324 0.15815 0.78236 0.0
H446 H 0.40592 0.20314 0.79128 0.0
H447 H 0.38908 0.20258 0.84086 0.0
H448 H 0.7831 0.7787 0.11203 0.0
H449 H 0.84354 0.77374 0.17344 0.0
H450 H 0.06492 0.73761 0.18241 0.0
H451 H 1.00493 0.74316 0.12039 0.0
H452 H 0.91073 0.70488 0.21434 0.0
H453 H 0.128 0.83357 0.2502 0.0
H454 H 0.04687 0.82625 0.20719 0.0
H455 H 0.13337 0.79411 0.22366 0.0
C456 C 0.84482 0.76982 0.12691 0.0
C457 C 0.88942 0.76139 0.11131 0.0
C458 C 0.87913 0.76695 0.16206 0.0
C459 C 0.95866 0.75564 0.18239 0.0
C460 C 1.00365 0.74706 0.16708 0.0
H461 H 0.25552 0.73272 0.40006 0.0
H462 H 0.19802 0.729 0.33868 0.0
C463 C 0.96934 0.75012 0.13172 0.0
C464 C 0.99329 0.75252 0.21959 0.0
H465 H 0.13159 0.7954 0.2951 0.0
C466 C 0.95915 0.72458 0.23207 0.0
C467 C 0.05613 0.77842 0.24247 0.0
C468 C 0.09297 0.81006 0.23031 0.0
C469 C 0.98658 0.72168 0.26701 0.0
C470 C 0.04893 0.74784 0.28983 0.0
C471 C 0.08357 0.77547 0.27739 0.0
C472 C 0.08054 0.74678 0.32691 0.0
C473 C 0.94945 0.69033 0.27924 0.0
C474 C 0.03305 0.75758 0.34061 0.0
C475 C 0.06585 0.75967 0.37594 0.0
C476 C 0.14668 0.75152 0.39783 0.0
C477 C 0.19326 0.73973 0.38389 0.0
C478 C 0.16053 0.73744 0.34879 0.0
H479 H 0.91654 0.66602 0.25978 0.0
H480 H 0.99505 0.67517 0.30309 0.0
H481 H 0.907 0.70632 0.28464 0.0
H482 H 0.97138 0.76557 0.32402 0.0
H483 H 0.02876 0.76901 0.38602 0.0
H484 H 0.8618 0.28978 0.3372 0.0
H485 H 0.87795 0.28903 0.2874 0.0
H486 H 0.13034 0.27662 0.35304 0.0
H487 H 0.11516 0.27813 0.40301 0.0
H488 H 0.96916 0.34383 0.27168 0.0
H489 H 0.07263 0.18119 0.28402 0.0
H490 H 0.02432 0.20042 0.30602 0.0
H491 H 0.12663 0.21233 0.32171 0.0
C492 C 0.92091 0.28719 0.34117 0.0
C493 C 0.98714 0.2839 0.37433 0.0
C494 C 0.92995 0.28653 0.31258 0.0
C495 C 1.00523 0.28217 0.31639 0.0
C496 C 0.07147 0.27911 0.34937 0.0
H497 H 0.17806 0.27086 0.17365 0.0
H498 H 0.16491 0.27092 0.2243 0.0
C499 C 0.06258 0.27991 0.37798 0.0
C500 C 1.01464 0.28189 0.28594 0.0
H501 H 0.07711 0.22237 0.24204 0.0
C502 C 0.99244 0.31722 0.26511 0.0
C503 C 0.04556 0.24727 0.27748 0.0
C504 C 0.06812 0.20797 0.29826 0.0
C505 C 1.00133 0.31912 0.23639 0.0
C506 C 0.03147 0.28432 0.22767 0.0
C507 C 0.054 0.24904 0.24863 0.0
C508 C 0.0392 0.28375 0.19674 0.0
C509 C 0.98014 0.35886 0.21617 0.0
C510 C 0.97279 0.29012 0.16421 0.0
C511 C 0.98015 0.29015 0.13523 0.0
C512 C 0.05402 0.28332 0.13796 0.0
C513 C 0.12018 0.27595 0.17051 0.0
C514 C 0.1128 0.27614 0.19954 0.0
H515 H 0.9809 0.38578 0.23153 0.0
H516 H 0.02156 0.36523 0.20688 0.0
H517 H 0.91945 0.35611 0.19377 0.0
H518 H 0.91493 0.29486 0.16116 0.0
H519 H 0.92763 0.29507 0.11057 0.0
H520 H 1.00383 0.28133 0.62263 0.0
H521 H 0.05933 0.28552 0.68454 0.0
H522 H 0.8252 0.27252 0.66981 0.0
H523 H 0.76958 0.26798 0.6087 0.0
H524 H 1.01403 0.34443 0.72132 0.0
H525 H 0.95872 0.1796 0.73837 0.0
H526 H 0.96072 0.19773 0.70135 0.0
H527 H 0.87507 0.20664 0.70505 0.0
C528 C 0.96438 0.27926 0.63264 0.0
C529 C 0.88246 0.27413 0.61074 0.0
C530 C 0.99604 0.28174 0.66789 0.0
C531 C 0.94619 0.27877 0.6815 0.0
C532 C 0.86458 0.27421 0.65971 0.0
H533 H 0.01977 0.27275 0.88656 0.0
H534 H 0.95841 0.27719 0.82437 0.0
C535 C 0.83301 0.2718 0.62472 0.0
C536 C 0.97854 0.2807 0.71852 0.0
H537 H 0.99812 0.22427 0.78559 0.0
C538 C 1.0111 0.31817 0.73551 0.0
C539 C 0.97345 0.24643 0.73661 0.0
C540 C 0.9407 0.20518 0.71955 0.0
C541 C 0.03831 0.32239 0.77035 0.0
C542 C 0.03372 0.28801 0.78849 0.0
C543 C 1.00072 0.25063 0.77142 0.0
C544 C 0.06857 0.28901 0.82573 0.0
C545 C 0.07085 0.36366 0.78737 0.0
C546 C 0.15038 0.29416 0.84673 0.0
C547 C 0.18531 0.29155 0.88192 0.0
C548 C 0.13908 0.28347 0.89683 0.0
C549 C 0.05674 0.27912 0.87578 0.0
C550 C 0.02174 0.28161 0.84037 0.0
H551 H 0.04934 0.38941 0.76859 0.0
H552 H 0.05426 0.37022 0.80683 0.0
H553 H 0.13641 0.36303 0.8003 0.0
H554 H 0.18763 0.29903 0.83586 0.0
H555 H 0.24895 0.29518 0.89736 0.0
H556 H 0.18193 0.74213 0.67514 0.0
H557 H 0.1658 0.74128 0.72488 0.0
H558 H 0.91305 0.75214 0.65917 0.0
H559 H 0.9282 0.75098 0.60932 0.0
H560 H 0.10436 0.79886 0.7484 0.0
H561 H 0.92631 0.65488 0.71715 0.0
H562 H 0.97711 0.66983 0.69512 0.0
H563 H 0.88342 0.69286 0.68386 0.0
C564 C 0.12276 0.7437 0.67115 0.0
C565 C 0.05648 0.74642 0.63797 0.0
C566 C 0.11366 0.74353 0.69972 0.0
C567 C 0.03806 0.74589 0.69588 0.0
C568 C 0.9719 0.74929 0.66289 0.0
H569 H 0.85798 0.75304 0.83561 0.0
H570 H 0.87473 0.75502 0.78599 0.0
C571 C 0.98088 0.74927 0.63432 0.0
C572 C 0.02857 0.74571 0.72635 0.0
H573 H 0.93611 0.69549 0.76264 0.0
C574 C 0.06791 0.7761 0.75159 0.0
C575 C 0.98091 0.71607 0.7306 0.0
C576 C 0.94014 0.68132 0.70542 0.0
C577 C 0.05971 0.77819 0.78048 0.0
C578 C 1.01182 0.74865 0.78464 0.0
C579 C 0.97255 0.71824 0.75944 0.0
C580 C 1.00215 0.74846 0.81505 0.0
C581 C 0.10102 0.81266 0.80588 0.0
C582 C 0.06796 0.74378 0.84799 0.0
C583 C 0.05862 0.74309 0.87647 0.0
C584 C 0.98304 0.74665 0.87272 0.0
C585 C 0.91714 0.75096 0.83961 0.0
C586 C 0.92658 0.75175 0.81114 0.0
H587 H 0.11626 0.83891 0.79448 0.0
H588 H 0.06372 0.82451 0.8159 0.0
H589 H 0.15695 0.80064 0.82761 0.0
H590 H 0.12672 0.7403 0.85171 0.0
H591 H 0.11091 0.74009 0.90148 0.0
loop_
_geom_bond_atom_site_label_1
_geom_bond_atom_site_label_2
_geom_bond_distance
_geom_bond_site_symmetry_2
_ccdc_geom_bond_type
La0 C2 2.928 . S
La0 O20 2.521 . S
La0 O21 2.628 . S
La0 O22 2.554 . S
La0 O23 2.757 1_554 S
La0 O24 2.470 . S
La0 O29 2.482 . S
La0 O31 2.503 1_554 S
La1 C11 2.928 . S
La1 O23 2.482 . S
La1 O25 2.503 1_556 S
La1 O26 2.521 . S
La1 O27 2.628 . S
La1 O28 2.554 . S
La1 O29 2.757 1_556 S
La1 O30 2.470 . S
C2 La0 2.928 . S
C2 C3 1.503 . S
C2 O20 1.261 . S
C2 O21 1.243 . S
C3 C2 1.503 . S
C3 C4 1.394 . S
C3 C8 1.373 . S
C4 C3 1.394 . S
C4 C5 1.380 . S
C4 H32 0.930 . S
C5 C4 1.380 . S
C5 C6 1.376 . S
C5 H33 0.930 . S
C6 C5 1.376 . S
C6 C7 1.370 . S
C7 C6 1.370 . S
C7 C8 1.396 . S
C7 H34 0.929 . S
C8 C3 1.373 . S
C8 C7 1.396 . S
C8 H35 0.929 . S
C9 O22 1.240 . S
C9 O23 1.289 1_554 S
C10 O24 1.258 . S
C10 O25 1.256 . S
C11 La1 2.928 . S
C11 C12 1.503 . S
C11 O26 1.261 . S
C11 O27 1.243 . S
C12 C11 1.503 . S
C12 C13 1.394 . S
C12 C17 1.373 . S
C13 C12 1.394 . S
C13 C14 1.380 . S
C13 H36 0.930 . S
C14 C13 1.380 . S
C14 C15 1.376 . S
C14 H37 0.930 . S
C15 C14 1.376 . S
C15 C16 1.370 . S
C16 C15 1.370 . S
C16 C17 1.396 . S
C16 H38 0.929 . S
C17 C12 1.373 . S
C17 C16 1.396 . S
C17 H39 0.929 . S
C18 O28 1.240 . S
C18 O29 1.289 1_556 S
C19 O30 1.258 . S
C19 O31 1.256 . S
O20 La0 2.521 . S
O20 C2 1.261 . S
O21 La0 2.628 . S
O21 C2 1.243 . S
O22 La0 2.554 . S
O22 C9 1.240 . S
O23 La0 2.757 1_556 S
O23 La1 2.482 . S
O23 C9 1.289 1_556 S
O24 La0 2.470 . S
O24 C10 1.258 . S
O25 La1 2.503 1_554 S
O25 C10 1.256 . S
O26 La1 2.521 . S
O26 C11 1.261 . S
O27 La1 2.628 . S
O27 C11 1.243 . S
O28 La1 2.554 . S
O28 C18 1.240 . S
O29 La0 2.482 . S
O29 La1 2.757 1_554 S
O29 C18 1.289 1_554 S
O30 La1 2.470 . S
O30 C19 1.258 . S
O31 La0 2.503 1_556 S
O31 C19 1.256 . S
H32 C4 0.930 . S
H33 C5 0.930 . S
H34 C7 0.929 . S
H35 C8 0.929 . S
H36 C13 0.930 . S
H37 C14 0.930 . S
H38 C16 0.929 . S
H39 C17 0.929 . S
La40 C42 2.928 . S
La40 O60 2.521 . S
La40 O61 2.628 . S
La40 O62 2.554 . S
La40 O63 2.757 1_554 S
La40 O64 2.470 . S
La40 O69 2.482 . S
La40 O71 2.503 1_554 S
La41 C51 2.928 . S
La41 O63 2.482 . S
La41 O65 2.503 1_556 S
La41 O66 2.521 . S
La41 O67 2.628 . S
La41 O68 2.554 . S
La41 O69 2.757 1_556 S
La41 O70 2.470 . S
C42 La40 2.928 . S
C42 C43 1.503 . S
C42 O60 1.261 . S
C42 O61 1.243 . S
C43 C42 1.503 . S
C43 C44 1.394 . S
C43 C48 1.373 . S
C44 C43 1.394 . S
C44 C45 1.380 . S
C44 H72 0.930 . S
C45 C44 1.380 . S
C45 C46 1.376 . S
C45 H73 0.930 . S
C46 C45 1.376 . S
C46 C47 1.370 . S
C47 C46 1.370 . S
C47 C48 1.396 . S
C47 H74 0.929 . S
C48 C43 1.373 . S
C48 C47 1.396 . S
C48 H75 0.929 . S
C49 O62 1.240 . S
C49 O63 1.289 1_554 S
C50 O64 1.258 . S
C50 O65 1.256 . S
C51 La41 2.928 . S
C51 C52 1.503 . S
C51 O66 1.261 . S
C51 O67 1.243 . S
C52 C51 1.503 . S
C52 C53 1.394 . S
C52 C57 1.373 . S
C53 C52 1.394 . S
C53 C54 1.380 . S
C53 H76 0.930 . S
C54 C53 1.380 . S
C54 C55 1.376 . S
C54 H77 0.930 . S
C55 C54 1.376 . S
C55 C56 1.370 . S
C56 C55 1.370 . S
C56 C57 1.396 . S
C56 H78 0.929 . S
C57 C52 1.373 . S
C57 C56 1.396 . S
C57 H79 0.929 . S
C58 O68 1.240 . S
C58 O69 1.289 1_556 S
C59 O70 1.258 . S
C59 O71 1.256 . S
O60 La40 2.521 . S
O60 C42 1.261 . S
O61 La40 2.628 . S
O61 C42 1.243 . S
O62 La40 2.554 . S
O62 C49 1.240 . S
O63 La40 2.757 1_556 S
O63 La41 2.482 . S
O63 C49 1.289 1_556 S
O64 La40 2.470 . S
O64 C50 1.258 . S
O65 La41 2.503 1_554 S
O65 C50 1.256 . S
O66 La41 2.521 . S
O66 C51 1.261 . S
O67 La41 2.628 . S
O67 C51 1.243 . S
O68 La41 2.554 . S
O68 C58 1.240 . S
O69 La40 2.482 . S
O69 La41 2.757 1_554 S
O69 C58 1.289 1_554 S
O70 La41 2.470 . S
O70 C59 1.258 . S
O71 La40 2.503 1_556 S
O71 C59 1.256 . S
H72 C44 0.930 . S
H73 C45 0.930 . S
H74 C47 0.929 . S
H75 C48 0.929 . S
H76 C53 0.930 . S
H77 C54 0.930 . S
H78 C56 0.929 . S
H79 C57 0.929 . S
La80 C82 2.928 . S
La80 O100 2.521 . S
La80 O101 2.628 . S
La80 O102 2.554 . S
La80 O103 2.757 . S
La80 O104 2.470 . S
La80 O109 2.482 . S
La80 O111 2.503 . S
La81 C91 2.928 . S
La81 O103 2.482 . S
La81 O105 2.503 . S
La81 O106 2.521 . S
La81 O107 2.628 . S
La81 O108 2.554 . S
La81 O109 2.757 . S
La81 O110 2.470 . S
C82 La80 2.928 . S
C82 C83 1.503 . S
C82 O100 1.261 . S
C82 O101 1.243 . S
C83 C82 1.503 . S
C83 C84 1.394 . S
C83 C88 1.373 . S
C84 C83 1.394 . S
C84 C85 1.380 . S
C84 H112 0.930 . S
C85 C84 1.380 . S
C85 C86 1.376 . S
C85 H113 0.930 . S
C86 C85 1.376 . S
C86 C87 1.370 . S
C87 C86 1.370 . S
C87 C88 1.396 . S
C87 H114 0.929 . S
C88 C83 1.373 . S
C88 C87 1.396 . S
C88 H115 0.929 . S
C89 O102 1.240 . S
C89 O103 1.289 . S
C90 O104 1.258 . S
C90 O105 1.256 . S
C91 La81 2.928 . S
C91 C92 1.503 . S
C91 O106 1.261 . S
C91 O107 1.243 . S
C92 C91 1.503 . S
C92 C93 1.394 . S
C92 C97 1.373 . S
C93 C92 1.394 . S
C93 C94 1.380 . S
C93 H116 0.930 . S
C94 C93 1.380 . S
C94 C95 1.376 . S
C94 H117 0.930 . S
C95 C94 1.376 . S
C95 C96 1.370 . S
C96 C95 1.370 . S
C96 C97 1.396 . S
C96 H118 0.929 . S
C97 C92 1.373 . S
C97 C96 1.396 . S
C97 H119 0.929 . S
C98 O108 1.240 . S
C98 O109 1.289 . S
C99 O110 1.258 . S
C99 O111 1.256 . S
O100 La80 2.521 . S
O100 C82 1.261 . S
O101 La80 2.628 . S
O101 C82 1.243 . S
O102 La80 2.554 . S
O102 C89 1.240 . S
O103 La80 2.757 . S
O103 La81 2.482 . S
O103 C89 1.289 . S
O104 La80 2.470 . S
O104 C90 1.258 . S
O105 La81 2.503 . S
O105 C90 1.256 . S
O106 La81 2.521 . S
O106 C91 1.261 . S
O107 La81 2.628 . S
O107 C91 1.243 . S
O108 La81 2.554 . S
O108 C98 1.240 . S
O109 La80 2.482 . S
O109 La81 2.757 . S
O109 C98 1.289 . S
O110 La81 2.470 . S
O110 C99 1.258 . S
O111 La80 2.503 . S
O111 C99 1.256 . S
H112 C84 0.930 . S
H113 C85 0.930 . S
H114 C87 0.929 . S
H115 C88 0.929 . S
H116 C93 0.930 . S
H117 C94 0.930 . S
H118 C96 0.929 . S
H119 C97 0.929 . S
La120 C122 2.928 . S
La120 O140 2.521 . S
La120 O141 2.628 . S
La120 O142 2.554 . S
La120 O143 2.757 . S
La120 O144 2.470 . S
La120 O149 2.482 . S
La120 O151 2.503 . S
La121 C131 2.928 . S
La121 O143 2.482 . S
La121 O145 2.503 . S
La121 O146 2.521 . S
La121 O147 2.628 . S
La121 O148 2.554 . S
La121 O149 2.757 . S
La121 O150 2.470 . S
C122 La120 2.928 . S
C122 C123 1.503 . S
C122 O140 1.261 . S
C122 O141 1.243 . S
C123 C122 1.503 . S
C123 C124 1.394 . S
C123 C128 1.373 . S
C124 C123 1.394 . S
C124 C125 1.380 . S
C124 H152 0.930 . S
C125 C124 1.380 . S
C125 C126 1.376 . S
C125 H153 0.930 . S
C126 C125 1.376 . S
C126 C127 1.370 . S
C127 C126 1.370 . S
C127 C128 1.396 . S
C127 H154 0.929 . S
C128 C123 1.373 . S
C128 C127 1.396 . S
C128 H155 0.929 . S
C129 O142 1.240 . S
C129 O143 1.289 . S
C130 O144 1.258 . S
C130 O145 1.256 . S
C131 La121 2.928 . S
C131 C132 1.503 . S
C131 O146 1.261 . S
C131 O147 1.243 . S
C132 C131 1.503 . S
C132 C133 1.394 . S
C132 C137 1.373 . S
C133 C132 1.394 . S
C133 C134 1.380 . S
C133 H156 0.930 . S
C134 C133 1.380 . S
C134 C135 1.376 . S
C134 H157 0.930 . S
C135 C134 1.376 . S
C135 C136 1.370 . S
C136 C135 1.370 . S
C136 C137 1.396 . S
C136 H158 0.929 . S
C137 C132 1.373 . S
C137 C136 1.396 . S
C137 H159 0.929 . S
C138 O148 1.240 . S
C138 O149 1.289 . S
C139 O150 1.258 . S
C139 O151 1.256 . S
O140 La120 2.521 . S
O140 C122 1.261 . S
O141 La120 2.628 . S
O141 C122 1.243 . S
O142 La120 2.554 . S
O142 C129 1.240 . S
O143 La120 2.757 . S
O143 La121 2.482 . S
O143 C129 1.289 . S
O144 La120 2.470 . S
O144 C130 1.258 . S
O145 La121 2.503 . S
O145 C130 1.256 . S
O146 La121 2.521 . S
O146 C131 1.261 . S
O147 La121 2.628 . S
O147 C131 1.243 . S
O148 La121 2.554 . S
O148 C138 1.240 . S
O149 La120 2.482 . S
O149 La121 2.757 . S
O149 C138 1.289 . S
O150 La121 2.470 . S
O150 C139 1.258 . S
O151 La120 2.503 . S
O151 C139 1.256 . S
H152 C124 0.930 . S
H153 C125 0.930 . S
H154 C127 0.929 . S
H155 C128 0.929 . S
H156 C133 0.930 . S
H157 C134 0.930 . S
H158 C136 0.929 . S
H159 C137 0.929 . S
H160 C168 0.929 . S
H161 C170 0.930 . S
H162 C172 0.930 . S
H163 C175 0.929 . S
H164 C178 0.930 . S
H165 C180 0.960 . S
H166 C180 0.960 1_554 S
H167 C180 0.960 . S
C168 H160 0.929 . S
C168 C169 1.377 1_554 S
C168 C170 1.384 . S
C169 C168 1.377 1_556 S
C169 C175 1.390 . S
C170 H161 0.930 . S
C170 C168 1.384 . S
C170 C171 1.387 . S
C171 C170 1.387 . S
C171 C172 1.376 1_554 S
C171 C176 1.499 . S
C172 H162 0.930 . S
C172 C171 1.376 1_556 S
C172 C175 1.386 . S
H173 C189 0.930 . S
H174 C190 0.931 . S
C175 H163 0.929 . S
C175 C169 1.390 . S
C175 C172 1.386 . S
C176 C171 1.499 . S
C176 C178 1.395 . S
C176 C179 1.403 1_554 S
H177 C183 0.930 . S
C178 H164 0.930 . S
C178 C176 1.395 . S
C178 C181 1.403 . S
C179 C176 1.403 1_556 S
C179 C180 1.524 . S
C179 C183 1.400 . S
C180 H165 0.960 . S
C180 H166 0.960 1_556 S
C180 H167 0.960 . S
C180 C179 1.524 . S
C181 C178 1.403 . S
C181 C182 1.392 . S
C181 C185 1.495 . S
C182 C181 1.392 . S
C182 C183 1.385 1_554 S
C182 C184 1.478 . S
C183 H177 0.930 . S
C183 C179 1.400 . S
C183 C182 1.385 1_556 S
C184 C182 1.478 . S
C184 C186 1.381 . S
C184 C190 1.383 1_554 S
C185 C181 1.495 . S
C185 H191 0.959 . S
C185 H192 0.961 . S
C185 H193 0.960 . S
C186 C184 1.381 . S
C186 C187 1.394 . S
C186 H194 0.930 . S
C187 C186 1.394 . S
C187 C188 1.383 . S
C187 H195 0.929 . S
C188 C187 1.383 . S
C188 C189 1.377 1_554 S
C189 H173 0.930 . S
C189 C188 1.377 1_556 S
C189 C190 1.379 . S
C190 H174 0.931 . S
C190 C184 1.383 1_556 S
C190 C189 1.379 . S
H191 C185 0.959 . S
H192 C185 0.961 . S
H193 C185 0.960 . S
H194 C186 0.930 . S
H195 C187 0.929 . S
H196 C204 0.929 . S
H197 C206 0.930 . S
H198 C208 0.930 . S
H199 C211 0.929 . S
H200 C214 0.930 . S
H201 C216 0.960 . S
H202 C216 0.960 . S
H203 C216 0.960 . S
C204 H196 0.929 . S
C204 C205 1.377 . S
C204 C206 1.384 . S
C205 C204 1.377 . S
C205 C211 1.390 . S
C206 H197 0.930 . S
C206 C204 1.384 . S
C206 C207 1.372 . S
C207 C206 1.372 . S
C207 C208 1.400 . S
C207 C212 1.490 . S
C208 H198 0.930 . S
C208 C207 1.400 . S
C208 C211 1.386 . S
H209 C225 0.930 . S
H210 C226 0.931 . S
C211 H199 0.929 . S
C211 C205 1.390 . S
C211 C208 1.386 . S
C212 C207 1.490 . S
C212 C214 1.395 . S
C212 C215 1.403 . S
H213 C219 0.930 . S
C214 H200 0.930 . S
C214 C212 1.395 . S
C214 C217 1.403 . S
C215 C212 1.403 . S
C215 C216 1.524 . S
C215 C219 1.400 . S
C216 H201 0.960 . S
C216 H202 0.960 . S
C216 H203 0.960 . S
C216 C215 1.524 . S
C217 C214 1.403 . S
C217 C218 1.392 . S
C217 C221 1.495 . S
C218 C217 1.392 . S
C218 C219 1.385 . S
C218 C220 1.478 . S
C219 H213 0.930 . S
C219 C215 1.400 . S
C219 C218 1.385 . S
C220 C218 1.478 . S
C220 C222 1.381 . S
C220 C226 1.383 . S
C221 C217 1.495 . S
C221 H227 0.959 . S
C221 H228 0.961 . S
C221 H229 0.960 . S
C222 C220 1.381 . S
C222 C223 1.394 . S
C222 H230 0.930 . S
C223 C222 1.394 . S
C223 C224 1.383 . S
C223 H231 0.929 . S
C224 C223 1.383 . S
C224 C225 1.377 . S
C225 H209 0.930 . S
C225 C224 1.377 . S
C225 C226 1.379 . S
C226 H210 0.931 . S
C226 C220 1.383 . S
C226 C225 1.379 . S
H227 C221 0.959 . S
H228 C221 0.961 . S
H229 C221 0.960 . S
H230 C222 0.930 . S
H231 C223 0.929 . S
H232 C240 0.929 . S
H233 C242 0.930 . S
H234 C244 0.930 . S
H235 C247 0.929 . S
H236 C250 0.930 . S
H237 C252 0.960 . S
H238 C252 0.960 . S
H239 C252 0.960 . S
C240 H232 0.929 . S
C240 C241 1.377 . S
C240 C242 1.384 . S
C241 C240 1.377 . S
C241 C247 1.390 1_556 S
C242 H233 0.930 . S
C242 C240 1.384 . S
C242 C243 1.372 . S
C243 C242 1.372 . S
C243 C244 1.400 1_556 S
C243 C248 1.490 . S
C244 H234 0.930 . S
C244 C243 1.400 1_554 S
C244 C247 1.386 . S
H245 C261 0.930 . S
H246 C262 0.931 . S
C247 H235 0.929 . S
C247 C241 1.390 1_554 S
C247 C244 1.386 . S
C248 C243 1.490 . S
C248 C250 1.395 1_546 S
C248 C251 1.403 1_455 S
H249 C255 0.930 . S
C250 H236 0.930 . S
C250 C248 1.395 1_564 S
C250 C253 1.403 . S
C251 C248 1.403 1_655 S
C251 C252 1.524 . S
C251 C255 1.400 1_545 S
C252 H237 0.960 . S
C252 H238 0.960 . S
C252 H239 0.960 . S
C252 C251 1.524 . S
C253 C250 1.403 . S
C253 C254 1.392 1_455 S
C253 C257 1.495 . S
C254 C253 1.392 1_655 S
C254 C255 1.385 1_554 S
C254 C256 1.478 . S
C255 H249 0.930 . S
C255 C251 1.400 1_565 S
C255 C254 1.385 1_556 S
C256 C254 1.478 . S
C256 C258 1.381 1_554 S
C256 C262 1.383 . S
C257 C253 1.495 . S
C257 H263 0.959 . S
C257 H264 0.961 . S
C257 H265 0.984 . S
C258 C256 1.381 1_556 S
C258 C259 1.394 . S
C258 H266 0.930 . S
C259 C258 1.394 . S
C259 C260 1.383 1_556 S
C259 H267 0.929 . S
C260 C259 1.383 1_554 S
C260 C261 1.377 . S
C261 H245 0.930 . S
C261 C260 1.377 . S
C261 C262 1.379 . S
C262 H246 0.931 . S
C262 C256 1.383 . S
C262 C261 1.379 . S
H263 C257 0.959 . S
H264 C257 0.961 . S
H265 C257 0.984 . S
H266 C258 0.930 . S
H267 C259 0.929 . S
H268 C276 0.929 . S
H269 C278 0.930 . S
H270 C280 0.930 . S
H271 C283 0.929 . S
H272 C286 0.930 . S
H273 C288 0.960 . S
H274 C288 0.960 . S
H275 C288 0.960 1_545 S
C276 H268 0.929 . S
C276 C277 1.377 . S
C276 C278 1.384 . S
C277 C276 1.377 . S
C277 C283 1.390 . S
C278 H269 0.930 . S
C278 C276 1.384 . S
C278 C279 1.372 . S
C279 C278 1.372 . S
C279 C280 1.400 . S
C279 C284 1.490 . S
C280 H270 0.930 . S
C280 C279 1.400 . S
C280 C283 1.386 . S
H281 C297 0.930 . S
H282 C298 0.931 . S
C283 H271 0.929 . S
C283 C277 1.390 . S
C283 C280 1.386 . S
C284 C279 1.490 . S
C284 C286 1.395 . S
C284 C287 1.403 . S
H285 C291 0.930 . S
C286 H272 0.930 . S
C286 C284 1.395 . S
C286 C289 1.408 1_655 S
C287 C284 1.403 . S
C287 C288 1.524 1_545 S
C287 C291 1.400 1_645 S
C288 H273 0.960 . S
C288 H274 0.960 . S
C288 H275 0.960 1_565 S
C288 C287 1.524 1_565 S
C289 C286 1.408 1_455 S
C289 C290 1.388 1_545 S
C289 C293 1.495 . S
C290 C289 1.388 1_565 S
C290 C291 1.385 . S
C290 C292 1.478 . S
C291 H285 0.930 . S
C291 C287 1.400 1_465 S
C291 C290 1.385 . S
C292 C290 1.478 . S
C292 C294 1.381 . S
C292 C298 1.383 . S
C293 C289 1.495 . S
C293 H299 0.959 . S
C293 H300 0.961 1_545 S
C293 H301 0.960 1_545 S
C294 C292 1.381 . S
C294 C295 1.394 . S
C294 H302 0.930 1_455 S
C295 C294 1.394 . S
C295 C296 1.383 . S
C295 H303 0.929 . S
C296 C295 1.383 . S
C296 C297 1.377 . S
C297 H281 0.930 . S
C297 C296 1.377 . S
C297 C298 1.379 . S
C298 H282 0.931 . S
C298 C292 1.383 . S
C298 C297 1.379 . S
H299 C293 0.959 . S
H300 C293 0.961 1_565 S
H301 C293 0.960 1_565 S
H302 C294 0.930 1_655 S
H303 C295 0.929 . S
H304 C312 0.929 . S
H305 C314 0.930 . S
H306 C316 0.930 . S
H307 C319 0.929 . S
H308 C322 0.930 . S
H309 C324 0.960 . S
H310 C324 0.960 . S
H311 C324 0.960 . S
C312 H304 0.929 . S
C312 C313 1.377 . S
C312 C314 1.384 . S
C313 C312 1.377 . S
C313 C319 1.390 . S
C314 H305 0.930 . S
C314 C312 1.384 . S
C314 C315 1.372 . S
C315 C314 1.372 . S
C315 C316 1.400 . S
C315 C320 1.490 . S
C316 H306 0.930 . S
C316 C315 1.400 . S
C316 C319 1.386 . S
H317 C333 0.930 . S
H318 C334 0.931 . S
C319 H307 0.929 . S
C319 C313 1.390 . S
C319 C316 1.386 . S
C320 C315 1.490 . S
C320 C322 1.395 . S
C320 C323 1.403 . S
H321 C327 0.930 . S
C322 H308 0.930 . S
C322 C320 1.395 . S
C322 C325 1.403 . S
C323 C320 1.403 . S
C323 C324 1.524 . S
C323 C327 1.400 . S
C324 H309 0.960 . S
C324 H310 0.960 . S
C324 H311 0.960 . S
C324 C323 1.524 . S
C325 C322 1.403 . S
C325 C326 1.392 . S
C325 C329 1.495 . S
C326 C325 1.392 . S
C326 C327 1.385 . S
C326 C328 1.478 . S
C327 H321 0.930 . S
C327 C323 1.400 . S
C327 C326 1.385 . S
C328 C326 1.478 . S
C328 C330 1.381 . S
C328 C334 1.383 . S
C329 C325 1.495 . S
C329 H335 0.959 . S
C329 H336 0.961 . S
C329 H337 0.960 . S
C330 C328 1.381 . S
C330 C331 1.394 . S
C330 H338 0.930 . S
C331 C330 1.394 . S
C331 C332 1.383 . S
C331 H339 0.929 . S
C332 C331 1.383 . S
C332 C333 1.377 . S
C333 H317 0.930 . S
C333 C332 1.377 . S
C333 C334 1.379 . S
C334 H318 0.931 . S
C334 C328 1.383 . S
C334 C333 1.379 . S
H335 C329 0.959 . S
H336 C329 0.961 . S
H337 C329 0.960 . S
H338 C330 0.930 . S
H339 C331 0.929 . S
H340 C348 0.929 . S
H341 C350 0.930 . S
H342 C352 0.930 . S
H343 C355 0.929 . S
H344 C358 0.930 . S
H345 C360 0.960 . S
H346 C360 0.960 . S
H347 C360 0.960 . S
C348 H340 0.929 . S
C348 C349 1.377 . S
C348 C350 1.384 . S
C349 C348 1.377 . S
C349 C355 1.390 . S
C350 H341 0.930 . S
C350 C348 1.384 . S
C350 C351 1.372 . S
C351 C350 1.372 . S
C351 C352 1.400 . S
C351 C356 1.490 . S
C352 H342 0.930 . S
C352 C351 1.400 . S
C352 C355 1.386 . S
H353 C369 0.930 . S
H354 C370 0.931 . S
C355 H343 0.929 . S
C355 C349 1.390 . S
C355 C352 1.386 . S
C356 C351 1.490 . S
C356 C358 1.395 . S
C356 C359 1.403 . S
H357 C363 0.930 . S
C358 H344 0.930 . S
C358 C356 1.395 . S
C358 C361 1.403 . S
C359 C356 1.403 . S
C359 C360 1.524 . S
C359 C363 1.400 . S
C360 H345 0.960 . S
C360 H346 0.960 . S
C360 H347 0.960 . S
C360 C359 1.524 . S
C361 C358 1.403 . S
C361 C362 1.392 . S
C361 C365 1.495 . S
C362 C361 1.392 . S
C362 C363 1.385 . S
C362 C364 1.478 . S
C363 H357 0.930 . S
C363 C359 1.400 . S
C363 C362 1.385 . S
C364 C362 1.478 . S
C364 C366 1.381 . S
C364 C370 1.383 . S
C365 C361 1.495 . S
C365 H371 0.959 . S
C365 H372 0.961 . S
C365 H373 0.960 . S
C366 C364 1.381 . S
C366 C367 1.394 . S
C366 H374 0.930 . S
C367 C366 1.394 . S
C367 C368 1.383 . S
C367 H375 0.929 . S
C368 C367 1.383 . S
C368 C369 1.377 . S
C369 H353 0.930 . S
C369 C368 1.377 . S
C369 C370 1.379 . S
C370 H354 0.931 . S
C370 C364 1.383 . S
C370 C369 1.379 . S
H371 C365 0.959 . S
H372 C365 0.961 . S
H373 C365 0.960 . S
H374 C366 0.930 . S
H375 C367 0.929 . S
H376 C384 0.929 . S
H377 C386 0.930 . S
H378 C388 0.930 . S
H379 C391 0.929 . S
H380 C394 0.930 . S
H381 C396 0.960 . S
H382 C396 0.960 . S
H383 C396 0.960 . S
C384 H376 0.929 . S
C384 C385 1.377 . S
C384 C386 1.384 . S
C385 C384 1.377 . S
C385 C391 1.390 . S
C386 H377 0.930 . S
C386 C384 1.384 . S
C386 C387 1.372 . S
C387 C386 1.372 . S
C387 C388 1.400 . S
C387 C392 1.490 . S
C388 H378 0.930 . S
C388 C387 1.400 . S
C388 C391 1.386 . S
H389 C405 0.930 . S
H390 C406 0.931 . S
C391 H379 0.929 . S
C391 C385 1.390 . S
C391 C388 1.386 . S
C392 C387 1.490 . S
C392 C394 1.395 . S
C392 C395 1.403 . S
H393 C399 0.930 . S
C394 H380 0.930 . S
C394 C392 1.395 . S
C394 C397 1.403 . S
C395 C392 1.403 . S
C395 C396 1.524 . S
C395 C399 1.400 . S
C396 H381 0.960 . S
C396 H382 0.960 . S
C396 H383 0.960 . S
C396 C395 1.524 . S
C397 C394 1.403 . S
C397 C398 1.392 . S
C397 C401 1.495 . S
C398 C397 1.392 . S
C398 C399 1.385 . S
C398 C400 1.478 . S
C399 H393 0.930 . S
C399 C395 1.400 . S
C399 C398 1.385 . S
C400 C398 1.478 . S
C400 C402 1.381 . S
C400 C406 1.383 . S
C401 C397 1.495 . S
C401 H407 0.959 . S
C401 H408 0.961 . S
C401 H409 0.960 . S
C402 C400 1.381 . S
C402 C403 1.394 . S
C402 H410 0.930 . S
C403 C402 1.394 . S
C403 C404 1.383 . S
C403 H411 0.929 . S
C404 C403 1.383 . S
C404 C405 1.377 . S
C405 H389 0.930 . S
C405 C404 1.377 . S
C405 C406 1.379 . S
C406 H390 0.931 . S
C406 C400 1.383 . S
C406 C405 1.379 . S
H407 C401 0.959 . S
H408 C401 0.961 . S
H409 C401 0.960 . S
H410 C402 0.930 . S
H411 C403 0.929 . S
H412 C420 0.929 . S
H413 C422 0.930 . S
H414 C424 0.930 . S
H415 C427 0.929 . S
H416 C430 0.930 . S
H417 C432 0.960 . S
H418 C432 0.960 . S
H419 C432 0.960 . S
C420 H412 0.929 . S
C420 C421 1.377 . S
C420 C422 1.384 . S
C421 C420 1.377 . S
C421 C427 1.390 . S
C422 H413 0.930 . S
C422 C420 1.384 . S
C422 C423 1.372 . S
C423 C422 1.372 . S
C423 C424 1.400 . S
C423 C428 1.490 . S
C424 H414 0.930 . S
C424 C423 1.400 . S
C424 C427 1.386 . S
H425 C441 0.930 . S
H426 C442 0.931 . S
C427 H415 0.929 . S
C427 C421 1.390 . S
C427 C424 1.386 . S
C428 C423 1.490 . S
C428 C430 1.395 . S
C428 C431 1.403 . S
H429 C435 0.930 . S
C430 H416 0.930 . S
C430 C428 1.395 . S
C430 C433 1.403 . S
C431 C428 1.403 . S
C431 C432 1.524 . S
C431 C435 1.400 . S
C432 H417 0.960 . S
C432 H418 0.960 . S
C432 H419 0.960 . S
C432 C431 1.524 . S
C433 C430 1.403 . S
C433 C434 1.392 . S
C433 C437 1.495 . S
C434 C433 1.392 . S
C434 C435 1.385 . S
C434 C436 1.478 . S
C435 H429 0.930 . S
C435 C431 1.400 . S
C435 C434 1.385 . S
C436 C434 1.478 . S
C436 C438 1.381 . S
C436 C442 1.383 . S
C437 C433 1.495 . S
C437 H443 0.959 . S
C437 H444 0.961 . S
C437 H445 0.960 . S
C438 C436 1.381 . S
C438 C439 1.394 . S
C438 H446 0.930 . S
C439 C438 1.394 . S
C439 C440 1.383 . S
C439 H447 0.929 . S
C440 C439 1.383 . S
C440 C441 1.377 . S
C441 H425 0.930 . S
C441 C440 1.377 . S
C441 C442 1.379 . S
C442 H426 0.931 . S
C442 C436 1.383 . S
C442 C441 1.379 . S
H443 C437 0.959 . S
H444 C437 0.961 . S
H445 C437 0.960 . S
H446 C438 0.930 . S
H447 C439 0.929 . S
H448 C456 0.929 . S
H449 C458 0.930 . S
H450 C460 0.930 1_455 S
H451 C463 0.929 . S
H452 C466 0.930 . S
H453 C468 0.960 . S
H454 C468 0.960 . S
H455 C468 0.960 . S
C456 H448 0.929 . S
C456 C457 1.377 . S
C456 C458 1.384 . S
C457 C456 1.377 . S
C457 C463 1.390 . S
C458 H449 0.930 . S
C458 C456 1.384 . S
C458 C459 1.372 . S
C459 C458 1.372 . S
C459 C460 1.400 . S
C459 C464 1.490 . S
C460 H450 0.930 1_655 S
C460 C459 1.400 . S
C460 C463 1.386 . S
H461 C477 0.930 . S
H462 C478 0.931 . S
C463 H451 0.929 . S
C463 C457 1.390 . S
C463 C460 1.386 . S
C464 C459 1.490 . S
C464 C466 1.395 . S
C464 C467 1.403 1_655 S
H465 C471 0.930 . S
C466 H452 0.930 . S
C466 C464 1.395 . S
C466 C469 1.403 . S
C467 C464 1.403 1_455 S
C467 C468 1.524 . S
C467 C471 1.400 . S
C468 H453 0.960 . S
C468 H454 0.960 . S
C468 H455 0.960 . S
C468 C467 1.524 . S
C469 C466 1.403 . S
C469 C470 1.392 1_655 S
C469 C473 1.495 . S
C470 C469 1.392 1_455 S
C470 C471 1.385 . S
C470 C472 1.478 . S
C471 H465 0.930 . S
C471 C467 1.400 . S
C471 C470 1.385 . S
C472 C470 1.478 . S
C472 C474 1.381 . S
C472 C478 1.383 . S
C473 C469 1.495 . S
C473 H479 0.959 . S
C473 H480 0.961 . S
C473 H481 0.960 . S
C474 C472 1.381 . S
C474 C475 1.394 . S
C474 H482 0.930 1_455 S
C475 C474 1.394 . S
C475 C476 1.383 . S
C475 H483 0.929 . S
C476 C475 1.383 . S
C476 C477 1.377 . S
C477 H461 0.930 . S
C477 C476 1.377 . S
C477 C478 1.379 . S
C478 H462 0.931 . S
C478 C472 1.383 . S
C478 C477 1.379 . S
H479 C473 0.959 . S
H480 C473 0.961 . S
H481 C473 0.960 . S
H482 C474 0.930 1_655 S
H483 C475 0.929 . S
H484 C492 0.929 . S
H485 C494 0.930 . S
H486 C496 0.930 . S
H487 C499 0.929 . S
H488 C502 0.930 . S
H489 C504 0.960 . S
H490 C504 0.960 1_655 S
H491 C504 0.960 . S
C492 H484 0.929 . S
C492 C493 1.377 . S
C492 C494 1.384 . S
C493 C492 1.377 . S
C493 C499 1.390 1_655 S
C494 H485 0.930 . S
C494 C492 1.384 . S
C494 C495 1.372 . S
C495 C494 1.372 . S
C495 C496 1.400 1_655 S
C495 C500 1.490 . S
C496 H486 0.930 . S
C496 C495 1.400 1_455 S
C496 C499 1.386 . S
H497 C513 0.930 . S
H498 C514 0.931 . S
C499 H487 0.929 . S
C499 C493 1.390 1_455 S
C499 C496 1.386 . S
C500 C495 1.490 . S
C500 C502 1.395 . S
C500 C503 1.403 1_655 S
H501 C507 0.930 . S
C502 H488 0.930 . S
C502 C500 1.395 . S
C502 C505 1.403 . S
C503 C500 1.403 1_455 S
C503 C504 1.524 . S
C503 C507 1.400 . S
C504 H489 0.960 . S
C504 H490 0.960 1_455 S
C504 H491 0.960 . S
C504 C503 1.524 . S
C505 C502 1.403 . S
C505 C506 1.392 1_655 S
C505 C509 1.495 . S
C506 C505 1.392 1_455 S
C506 C507 1.385 . S
C506 C508 1.478 . S
C507 H501 0.930 . S
C507 C503 1.400 . S
C507 C506 1.385 . S
C508 C506 1.478 . S
C508 C510 1.381 1_455 S
C508 C514 1.383 . S
C509 C505 1.495 . S
C509 H515 0.959 . S
C509 H516 0.961 1_655 S
C509 H517 0.960 . S
C510 C508 1.381 1_655 S
C510 C511 1.394 . S
C510 H518 0.930 . S
C511 C510 1.394 . S
C511 C512 1.383 1_655 S
C511 H519 0.929 . S
C512 C511 1.383 1_455 S
C512 C513 1.377 . S
C513 H497 0.930 . S
C513 C512 1.377 . S
C513 C514 1.379 . S
C514 H498 0.931 . S
C514 C508 1.383 . S
C514 C513 1.379 . S
H515 C509 0.959 . S
H516 C509 0.961 1_455 S
H517 C509 0.960 . S
H518 C510 0.930 . S
H519 C511 0.929 . S
H520 C528 0.929 . S
H521 C530 0.930 1_455 S
H522 C532 0.930 . S
H523 C535 0.929 . S
H524 C538 0.930 . S
H525 C540 0.960 . S
H526 C540 0.960 . S
H527 C540 0.960 1_655 S
C528 H520 0.929 . S
C528 C529 1.377 . S
C528 C530 1.384 . S
C529 C528 1.377 . S
C529 C535 1.390 . S
C530 H521 0.930 1_655 S
C530 C528 1.384 . S
C530 C531 1.372 . S
C531 C530 1.372 . S
C531 C532 1.400 . S
C531 C536 1.490 . S
C532 H522 0.930 . S
C532 C531 1.400 . S
C532 C535 1.386 . S
H533 C549 0.930 . S
H534 C550 0.931 1_655 S
C535 H523 0.929 . S
C535 C529 1.390 . S
C535 C532 1.386 . S
C536 C531 1.490 . S
C536 C538 1.395 . S
C536 C539 1.403 1_655 S
H537 C543 0.930 . S
C538 H524 0.930 . S
C538 C536 1.395 . S
C538 C541 1.403 . S
C539 C536 1.403 1_455 S
C539 C540 1.524 . S
C539 C543 1.400 . S
C540 H525 0.960 . S
C540 H526 0.960 . S
C540 H527 0.960 1_455 S
C540 C539 1.524 . S
C541 C538 1.403 . S
C541 C542 1.392 1_655 S
C541 C545 1.495 . S
C542 C541 1.392 1_455 S
C542 C543 1.385 . S
C542 C544 1.478 . S
C543 H537 0.930 . S
C543 C539 1.400 . S
C543 C542 1.385 . S
C544 C542 1.478 . S
C544 C546 1.381 . S
C544 C550 1.383 . S
C545 C541 1.495 . S
C545 H551 0.959 . S
C545 H552 0.961 . S
C545 H553 0.960 1_655 S
C546 C544 1.381 . S
C546 C547 1.394 . S
C546 H554 0.930 . S
C547 C546 1.394 . S
C547 C548 1.383 . S
C547 H555 0.929 . S
C548 C547 1.383 . S
C548 C549 1.377 . S
C549 H533 0.930 . S
C549 C548 1.377 . S
C549 C550 1.379 . S
C550 H534 0.931 1_455 S
C550 C544 1.383 . S
C550 C549 1.379 . S
H551 C545 0.959 . S
H552 C545 0.961 . S
H553 C545 0.960 1_455 S
H554 C546 0.930 . S
H555 C547 0.929 . S
H556 C564 0.929 . S
H557 C566 0.930 . S
H558 C568 0.930 . S
H559 C571 0.929 . S
H560 C574 0.930 . S
H561 C576 0.960 . S
H562 C576 0.960 . S
H563 C576 0.960 . S
C564 H556 0.929 . S
C564 C565 1.377 . S
C564 C566 1.384 . S
C565 C564 1.377 . S
C565 C571 1.390 1_455 S
C566 H557 0.930 . S
C566 C564 1.384 . S
C566 C567 1.372 . S
C567 C566 1.372 . S
C567 C568 1.400 1_455 S
C567 C572 1.490 . S
C568 H558 0.930 . S
C568 C567 1.400 1_655 S
C568 C571 1.386 . S
H569 C585 0.930 . S
H570 C586 0.931 . S
C571 H559 0.929 . S
C571 C565 1.390 1_655 S
C571 C568 1.386 . S
C572 C567 1.490 . S
C572 C574 1.395 . S
C572 C575 1.403 1_455 S
H573 C579 0.930 . S
C574 H560 0.930 . S
C574 C572 1.395 . S
C574 C577 1.403 . S
C575 C572 1.403 1_655 S
C575 C576 1.524 . S
C575 C579 1.400 . S
C576 H561 0.960 . S
C576 H562 0.960 . S
C576 H563 0.960 . S
C576 C575 1.524 . S
C577 C574 1.403 . S
C577 C578 1.392 . S
C577 C581 1.495 . S
C578 C577 1.392 . S
C578 C579 1.385 1_455 S
C578 C580 1.478 1_455 S
C579 H573 0.930 . S
C579 C575 1.400 . S
C579 C578 1.385 1_655 S
C580 C578 1.478 1_655 S
C580 C582 1.381 1_655 S
C580 C586 1.383 . S
C581 C577 1.495 . S
C581 H587 0.959 . S
C581 H588 0.961 . S
C581 H589 0.960 . S
C582 C580 1.381 1_455 S
C582 C583 1.394 . S
C582 H590 0.930 . S
C583 C582 1.394 . S
C583 C584 1.383 1_455 S
C583 H591 0.929 . S
C584 C583 1.383 1_655 S
C584 C585 1.377 . S
C585 H569 0.930 . S
C585 C584 1.377 . S
C585 C586 1.379 . S
C586 H570 0.931 . S
C586 C580 1.383 . S
C586 C585 1.379 . S
H587 C581 0.959 . S
H588 C581 0.961 . S
H589 C581 0.960 . S
H590 C582 0.930 . S
H591 C583 0.929 . S
C169 C58 1.534 . S
C188 C9 1.519 . S
C205 C98 1.536 . S
C224 C129 1.519 . S
C241 C18 1.537 . S
C260 C49 1.547 . S
C277 C138 1.533 . S
C296 C89 1.524 . S
C313 C130 1.545 . S
C332 C10 1.547 . S
C349 C46 0.875 . S
C368 C86 0.886 . S
C385 C59 1.547 . S
C404 C99 1.540 . S
C421 C135 0.878 . S
C440 C15 0.894 . S
C457 C50 1.546 . S
C476 C90 1.556 . S
C493 C126 0.871 . S
C512 C6 0.892 . S
C529 C139 1.547 . S
C548 C19 1.558 . S
C565 C95 0.878 . S
C584 C55 0.880 . S
