# Generated by pormake.
# Topology ure, (4)-cn, num edge types: 1
# Building blocks:
#     Node 0, Type 0, BuildingBlock: KUFVIS_clean_sbu_0, # of connection points: 4
#     Node 1, Type 0, BuildingBlock: KUFVIS_clean_sbu_0, # of connection points: 4
#     Node 2, Type 0, BuildingBlock: KUFVIS_clean_sbu_0, # of connection points: 4
#     Node 3, Type 0, BuildingBlock: KUFVIS_clean_sbu_0, # of connection points: 4
#     Node 4, Type 0, BuildingBlock: KUFVIS_clean_sbu_0, # of connection points: 4
#     Node 5, Type 0, BuildingBlock: KUFVIS_clean_sbu_0, # of connection points: 4
#     Node 6, Type 0, BuildingBlock: KUFVIS_clean_sbu_0, # of connection points: 4
#     Node 7, Type 0, BuildingBlock: KUFVIS_clean_sbu_0, # of connection points: 4
#     Node 8, Type 0, BuildingBlock: KUFVIS_clean_sbu_0, # of connection points: 4
#     Node 9, Type 0, BuildingBlock: KUFVIS_clean_sbu_0, # of connection points: 4
#     Node 10, Type 0, BuildingBlock: KUFVIS_clean_sbu_0, # of connection points: 4
#     Node 11, Type 0, BuildingBlock: KUFVIS_clean_sbu_0, # of connection points: 4
#     Node 12, Type 0, BuildingBlock: KUFVIS_clean_sbu_0, # of connection points: 4
#     Node 13, Type 0, BuildingBlock: KUFVIS_clean_sbu_0, # of connection points: 4
#     Node 14, Type 0, BuildingBlock: KUFVIS_clean_sbu_0, # of connection points: 4
#     Node 15, Type 0, BuildingBlock: KUFVIS_clean_sbu_0, # of connection points: 4
#     Edge 16, Type (0, 0), BuildingBlock: ZUJKAS_clean_linker_0, # of connection points: 2
#     Edge 17, Type (0, 0), BuildingBlock: ZUJKAS_clean_linker_0, # of connection points: 2
#     Edge 18, Type (0, 0), BuildingBlock: ZUJKAS_clean_linker_0, # of connection points: 2
#     Edge 19, Type (0, 0), BuildingBlock: ZUJKAS_clean_linker_0, # of connection points: 2
#     Edge 20, Type (0, 0), BuildingBlock: ZUJKAS_clean_linker_0, # of connection points: 2
#     Edge 21, Type (0, 0), BuildingBlock: ZUJKAS_clean_linker_0, # of connection points: 2
#     Edge 22, Type (0, 0), BuildingBlock: ZUJKAS_clean_linker_0, # of connection points: 2
#     Edge 23, Type (0, 0), BuildingBlock: ZUJKAS_clean_linker_0, # of connection points: 2
#     Edge 24, Type (0, 0), BuildingBlock: ZUJKAS_clean_linker_0, # of connection points: 2
#     Edge 25, Type (0, 0), BuildingBlock: ZUJKAS_clean_linker_0, # of connection points: 2
#     Edge 26, Type (0, 0), BuildingBlock: ZUJKAS_clean_linker_0, # of connection points: 2
#     Edge 27, Type (0, 0), BuildingBlock: ZUJKAS_clean_linker_0, # of connection points: 2
#     Edge 28, Type (0, 0), BuildingBlock: ZUJKAS_clean_linker_0, # of connection points: 2
#     Edge 29, Type (0, 0), BuildingBlock: ZUJKAS_clean_linker_0, # of connection points: 2
#     Edge 30, Type (0, 0), BuildingBlock: ZUJKAS_clean_linker_0, # of connection points: 2
#     Edge 31, Type (0, 0), BuildingBlock: ZUJKAS_clean_linker_0, # of connection points: 2
#     Edge 32, Type (0, 0), BuildingBlock: ZUJKAS_clean_linker_0, # of connection points: 2
#     Edge 33, Type (0, 0), BuildingBlock: ZUJKAS_clean_linker_0, # of connection points: 2
#     Edge 34, Type (0, 0), BuildingBlock: ZUJKAS_clean_linker_0, # of connection points: 2
#     Edge 35, Type (0, 0), BuildingBlock: ZUJKAS_clean_linker_0, # of connection points: 2
#     Edge 36, Type (0, 0), BuildingBlock: ZUJKAS_clean_linker_0, # of connection points: 2
#     Edge 37, Type (0, 0), BuildingBlock: ZUJKAS_clean_linker_0, # of connection points: 2
#     Edge 38, Type (0, 0), BuildingBlock: ZUJKAS_clean_linker_0, # of connection points: 2
#     Edge 39, Type (0, 0), BuildingBlock: ZUJKAS_clean_linker_0, # of connection points: 2
#     Edge 40, Type (0, 0), BuildingBlock: ZUJKAS_clean_linker_0, # of connection points: 2
#     Edge 41, Type (0, 0), BuildingBlock: ZUJKAS_clean_linker_0, # of connection points: 2
#     Edge 42, Type (0, 0), BuildingBlock: ZUJKAS_clean_linker_0, # of connection points: 2
#     Edge 43, Type (0, 0), BuildingBlock: ZUJKAS_clean_linker_0, # of connection points: 2
#     Edge 44, Type (0, 0), BuildingBlock: ZUJKAS_clean_linker_0, # of connection points: 2
#     Edge 45, Type (0, 0), BuildingBlock: ZUJKAS_clean_linker_0, # of connection points: 2
#     Edge 46, Type (0, 0), BuildingBlock: ZUJKAS_clean_linker_0, # of connection points: 2
#     Edge 47, Type (0, 0), BuildingBlock: ZUJKAS_clean_linker_0, # of connection points: 2
# Relax obj value: 0.175
# Max RMSD: 0.110
# Mean RMSD: 0.107
data_MOF--net-ure--node1-KUFVIS_clean_sbu_0--edge1-ZUJKAS_clean_linker_0
_symmetry_space_group_name_H-M    P1
_symmetry_Int_Tables_number       1
_symmetry_cell_setting            triclinic
loop_
_symmetry_equiv_pos_as_xyz
'x, y, z'
_cell_length_a     35.609003
_cell_length_b     42.183696
_cell_length_c     42.16753
_cell_angle_alpha  90.022008
_cell_angle_beta   89.970358
_cell_angle_gamma 89.994063
loop_
_atom_site_label
_atom_site_type_symbol
_atom_site_fract_x
_atom_site_fract_y
_atom_site_fract_z
_atom_type_partial_charge
Mn0 Mn 0.24697 0.2925 0.27551 0.0
Mn1 Mn 0.26778 0.32313 0.20358 0.0
C2 C 0.30382 0.2809 0.25155 0.0
C3 C 0.24708 0.29658 0.33098 0.0
C4 C 0.21467 0.26754 0.21279 0.0
O5 O 0.21009 0.32917 0.2715 0.0
O6 O 0.22785 0.34901 0.22407 0.0
C7 C 0.30044 0.3845 0.22373 0.0
N8 N 0.30366 0.35657 0.20774 0.0
C9 C 0.36523 0.37061 0.18885 0.0
C10 C 0.3626 0.39948 0.20517 0.0
C11 C 0.33007 0.40644 0.22271 0.0
C12 C 0.33489 0.3496 0.19088 0.0
H13 H 0.27549 0.38997 0.23723 0.0
C14 C 0.20772 0.34957 0.24924 0.0
O15 O 0.2235 0.27827 0.31624 0.0
O16 O 0.27002 0.31282 0.31349 0.0
N17 N 0.30659 0.30076 0.1815 0.0
C18 C 0.30609 0.27076 0.16952 0.0
C19 C 0.33724 0.25958 0.15241 0.0
C20 C 0.36835 0.27947 0.14749 0.0
C21 C 0.36814 0.31029 0.15993 0.0
C22 C 0.3364 0.32007 0.17692 0.0
H23 H 0.28216 0.25544 0.17307 0.0
O24 O 0.29006 0.26234 0.2732 0.0
O25 O 0.28379 0.30568 0.24451 0.0
O26 O 0.21761 0.2657 0.24293 0.0
O27 O 0.2315 0.28858 0.19631 0.0
C28 C 0.39835 0.33158 0.15645 0.0
C29 C 0.39701 0.36165 0.17106 0.0
H30 H 0.38554 0.41632 0.2047 0.0
H31 H 0.32787 0.42866 0.23541 0.0
H32 H 0.33723 0.23573 0.14295 0.0
H33 H 0.39234 0.27075 0.1343 0.0
H34 H 0.423 0.32488 0.14298 0.0
H35 H 0.42072 0.37757 0.16872 0.0
Mn36 Mn -8e-05 0.03291 0.53698 0.0
Mn37 Mn 0.96356 0.96212 0.55838 0.0
C38 C 0.9412 0.01774 0.51923 0.0
C39 C 0.00701 0.08735 0.54632 0.0
C40 C 0.02394 0.96927 0.50793 0.0
O41 O 0.03159 0.02085 0.57546 0.0
O42 O 0.00356 0.97474 0.58879 0.0
C43 C 0.92794 0.98061 0.61913 0.0
N44 N 0.92504 0.96817 0.58942 0.0
C45 C 0.8589 0.95863 0.59635 0.0
C46 C 0.86124 0.97117 0.62709 0.0
C47 C 0.8959 0.98223 0.6385 0.0
C48 C 0.89184 0.95738 0.57822 0.0
H49 H 0.95449 0.98924 0.62799 0.0
C50 C 0.02773 0.99677 0.59359 0.0
O51 O 0.03062 0.0719 0.52858 0.0
O52 O 0.98053 0.07094 0.55948 0.0
N53 N 0.92407 0.94758 0.5312 0.0
C54 C 0.92615 0.93778 0.50045 0.0
C55 C 0.89361 0.92683 0.48515 0.0
C56 C 0.85935 0.92593 0.50165 0.0
C57 C 0.85794 0.93596 0.53333 0.0
C58 C 0.89134 0.94639 0.54742 0.0
H59 H 0.95236 0.93849 0.4876 0.0
O60 O 0.96035 0.03888 0.50382 0.0
O61 O 0.95717 1.00594 0.54425 0.0
O62 O 0.02668 0.99948 0.50916 0.0
O63 O 0.00194 0.95341 0.52584 0.0
C64 C 0.82457 0.93657 0.55129 0.0
C65 C 0.82505 0.9479 0.58277 0.0
H66 H 0.83655 0.97265 0.64203 0.0
H67 H 0.89789 0.99206 0.66215 0.0
H68 H 0.89491 0.9192 0.46067 0.0
H69 H 0.83428 0.91767 0.48969 0.0
H70 H 0.79828 0.92878 0.54097 0.0
H71 H 0.79912 0.94863 0.59619 0.0
Mn72 Mn 0.25838 0.72713 0.78095 0.0
Mn73 Mn 0.22793 0.70113 0.70967 0.0
C74 C 0.19956 0.74152 0.76257 0.0
C75 C 0.26391 0.72033 0.8359 0.0
C76 C 0.28507 0.75411 0.71732 0.0
O77 O 0.29318 0.68971 0.77171 0.0
O78 O 0.26789 0.67254 0.72576 0.0
C79 C 0.19356 0.64007 0.72867 0.0
N80 N 0.19038 0.66917 0.71493 0.0
C81 C 0.12605 0.65915 0.70064 0.0
C82 C 0.12869 0.62901 0.71449 0.0
C83 C 0.16256 0.61948 0.72865 0.0
C84 C 0.1579 0.6786 0.7013 0.0
H85 H 0.21956 0.63258 0.73951 0.0
C86 C 0.29111 0.66985 0.74884 0.0
O87 O 0.28658 0.73876 0.82031 0.0
O88 O 0.23891 0.70524 0.81944 0.0
N89 N 0.18855 0.72644 0.69197 0.0
C90 C 0.18991 0.75695 0.68144 0.0
C91 C 0.15778 0.77059 0.6678 0.0
C92 C 0.12475 0.75263 0.66481 0.0
C93 C 0.12411 0.72121 0.67562 0.0
C94 C 0.15694 0.70892 0.68911 0.0
H95 H 0.21525 0.77084 0.68358 0.0
O96 O 0.21637 0.75848 0.78396 0.0
O97 O 0.21772 0.71678 0.75254 0.0
O98 O 0.285 0.7549 0.74761 0.0
O99 O 0.26573 0.7343 0.70128 0.0
C100 C 0.09204 0.70173 0.67389 0.0
C101 C 0.09294 0.67078 0.68653 0.0
H102 H 0.10483 0.61309 0.71457 0.0
H103 H 0.16479 0.5963 0.73947 0.0
H104 H 0.15847 0.79488 0.65957 0.0
H105 H 0.09998 0.76327 0.65436 0.0
H106 H 0.0664 0.71044 0.66319 0.0
H107 H 0.06791 0.65622 0.68551 0.0
Mn108 Mn 0.48549 0.97981 0.03483 0.0
Mn109 Mn 0.51578 0.05068 0.06221 0.0
C110 C 0.54446 0.99835 0.02115 0.0
C111 C 0.4798 0.92474 0.04072 0.0
C112 C 0.46029 0.04402 0.00792 0.0
O113 O 0.44991 0.98856 0.07186 0.0
O114 O 0.4744 0.03464 0.08935 0.0
C115 C 0.54735 0.03009 0.12382 0.0
N116 N 0.55184 0.04457 0.0952 0.0
C117 C 0.61564 0.05862 0.10767 0.0
C118 C 0.61163 0.04402 0.13735 0.0
C119 C 0.57737 0.02959 0.1454 0.0
C120 C 0.58474 0.05837 0.08714 0.0
H121 H 0.52103 0.01906 0.13018 0.0
C122 C 0.4511 0.01159 0.09155 0.0
O123 O 0.45745 0.94061 0.02226 0.0
O124 O 0.50449 0.94098 0.05641 0.0
N125 N 0.55637 0.06872 0.03852 0.0
C126 C 0.55632 0.0802 0.00831 0.0
C127 C 0.58899 0.09433 0.99613 0.0
C128 C 0.62115 0.09692 0.01524 0.0
C129 C 0.62039 0.08525 0.04637 0.0
C130 C 0.5871 0.07127 0.05717 0.0
H131 H 0.53162 0.07844 0.99358 0.0
O132 O 0.52785 0.97713 1.00386 0.0
O133 O 0.52619 0.00802 0.04602 0.0
O134 O 0.45954 0.01372 1.00718 0.0
O135 O 0.47962 0.05973 0.02801 0.0
C136 C 0.65147 0.08663 0.06699 0.0
C137 C 0.64918 0.07316 0.09754 0.0
H138 H 0.63472 0.04358 0.15405 0.0
H139 H 0.57409 0.01818 0.16822 0.0
H140 H 0.58937 0.10326 0.97208 0.0
H141 H 0.64633 0.10776 1.00573 0.0
H142 H 0.6774 0.09776 0.05951 0.0
H143 H 0.67346 0.07394 0.11298 0.0
Mn144 Mn 0.24272 0.73102 0.23255 0.0
Mn145 Mn 0.26905 0.70282 0.30423 0.0
C146 C 0.30042 0.74472 0.25365 0.0
C147 C 0.23986 0.72515 0.17734 0.0
C148 C 0.2128 0.75648 0.29576 0.0
O149 O 0.20728 0.69372 0.23941 0.0
O150 O 0.23025 0.67449 0.2855 0.0
C151 C 0.30473 0.64208 0.28573 0.0
N152 N 0.30703 0.67102 0.29994 0.0
C153 C 0.37031 0.66064 0.31712 0.0
C154 C 0.36853 0.63068 0.30278 0.0
C155 C 0.33562 0.62141 0.28694 0.0
C156 C 0.33857 0.68016 0.31526 0.0
H157 H 0.27945 0.63473 0.27371 0.0
C158 C 0.20811 0.67314 0.26159 0.0
O159 O 0.2167 0.74361 0.1924 0.0
O160 O 0.26404 0.70977 0.19439 0.0
N161 N 0.30722 0.72774 0.32432 0.0
C162 C 0.30514 0.75802 0.33547 0.0
C163 C 0.33636 0.7714 0.35078 0.0
C164 C 0.36923 0.75342 0.35477 0.0
C165 C 0.37062 0.72225 0.34332 0.0
C166 C 0.33868 0.71021 0.32814 0.0
H167 H 0.27996 0.77196 0.33254 0.0
O168 O 0.28494 0.76219 0.23196 0.0
O169 O 0.28175 0.71972 0.26228 0.0
O170 O 0.21451 0.75812 0.26554 0.0
O171 O 0.23083 0.73585 0.31185 0.0
C172 C 0.4026 0.70277 0.34603 0.0
C173 C 0.40247 0.672 0.33291 0.0
H174 H 0.39231 0.61468 0.30366 0.0
H175 H 0.33404 0.59835 0.27577 0.0
H176 H 0.33509 0.7955 0.35951 0.0
H177 H 0.39329 0.76386 0.36651 0.0
H178 H 0.42757 0.71131 0.35794 0.0
H179 H 0.42738 0.65739 0.33485 0.0
Mn180 Mn 0.48491 0.03058 0.46875 0.0
Mn181 Mn 0.50944 0.9585 0.44031 0.0
C182 C 0.54327 0.00926 0.4804 0.0
C183 C 0.48208 0.08598 0.46392 0.0
C184 C 0.45741 0.96731 0.4966 0.0
O185 O 0.44748 0.02398 0.43264 0.0
O186 O 0.46719 0.97619 0.41534 0.0
C187 C 0.53773 0.97788 0.37713 0.0
N188 N 0.54332 0.96307 0.40544 0.0
C189 C 0.6044 0.94491 0.38911 0.0
C190 C 0.59935 0.96006 0.35983 0.0
C191 C 0.5659 0.97667 0.35385 0.0
C192 C 0.5755 0.94722 0.41152 0.0
H193 H 0.51195 0.99047 0.37233 0.0
C194 C 0.44569 1.00046 0.41359 0.0
O195 O 0.45965 0.07061 0.48273 0.0
O196 O 0.50528 0.0691 0.44726 0.0
N197 N 0.55049 0.93868 0.4618 0.0
C198 C 0.55199 0.92727 0.492 0.0
C199 C 0.58412 0.91085 0.50213 0.0
C200 C 0.61404 0.90587 0.48098 0.0
C201 C 0.61177 0.91772 0.44997 0.0
C202 C 0.57922 0.93416 0.44132 0.0
H203 H 0.52884 0.93067 0.5082 0.0
O204 O 0.52852 0.03089 0.49841 0.0
O205 O 0.52349 1.00068 0.45595 0.0
O206 O 0.45791 0.9976 0.4969 0.0
O207 O 0.47532 0.9508 0.47624 0.0
C208 C 0.64058 0.91398 0.42735 0.0
C209 C 0.63705 0.92779 0.39703 0.0
H210 H 0.62105 0.95923 0.34183 0.0
H211 H 0.56178 0.98839 0.33129 0.0
H212 H 0.5857 0.90183 0.52612 0.0
H213 H 0.63868 0.89303 0.48885 0.0
H214 H 0.6658 0.90086 0.43316 0.0
H215 H 0.65968 0.92522 0.38004 0.0
Mn216 Mn 0.25937 0.28756 0.72756 0.0
Mn217 Mn 0.22558 0.31025 0.79899 0.0
C218 C 0.20098 0.27041 0.74442 0.0
C219 C 0.26575 0.29603 0.67287 0.0
C220 C 0.28553 0.25965 0.79105 0.0
O221 O 0.29177 0.32604 0.73846 0.0
O222 O 0.26492 0.34048 0.78479 0.0
C223 C 0.18895 0.37047 0.78039 0.0
N224 N 0.18671 0.34103 0.79351 0.0
C225 C 0.12103 0.34802 0.8051 0.0
C226 C 0.1227 0.37848 0.79187 0.0
C227 C 0.15679 0.38972 0.77942 0.0
C228 C 0.15405 0.32999 0.80558 0.0
H229 H 0.21507 0.37919 0.77072 0.0
C230 C 0.28855 0.3447 0.76223 0.0
O231 O 0.28929 0.27833 0.68838 0.0
O232 O 0.23948 0.30955 0.68931 0.0
N233 N 0.18683 0.28322 0.81512 0.0
C234 C 0.18947 0.2527 0.82547 0.0
C235 C 0.15753 0.23759 0.83784 0.0
C236 C 0.1233 0.25404 0.83961 0.0
C237 C 0.12131 0.28549 0.829 0.0
C238 C 0.15414 0.29941 0.81713 0.0
H239 H 0.2157 0.23992 0.82418 0.0
O240 O 0.21919 0.25466 0.7229 0.0
O241 O 0.21758 0.29547 0.75549 0.0
O242 O 0.28666 0.26 0.76075 0.0
O243 O 0.26454 0.27808 0.80728 0.0
C244 C 0.0879 0.30338 0.82922 0.0
C245 C 0.08775 0.33461 0.81725 0.0
H246 H 0.09791 0.39334 0.79092 0.0
H247 H 0.15826 0.41316 0.76906 0.0
H248 H 0.15927 0.21329 0.84593 0.0
H249 H 0.09868 0.24223 0.84899 0.0
H250 H 0.06204 0.2932 0.83814 0.0
H251 H 0.06178 0.34798 0.81715 0.0
Mn252 Mn 0.00131 0.9876 0.97616 0.0
Mn253 Mn 0.97549 0.05923 0.94771 0.0
C254 C 0.94318 0.00873 0.98896 0.0
C255 C 0.00422 0.93227 0.97139 0.0
C256 C 0.03131 0.05076 1.00156 0.0
O257 O 0.03721 0.99427 0.93888 0.0
O258 O 0.01461 0.04052 0.91988 0.0
C259 C 0.94051 0.04047 0.88678 0.0
N260 N 0.93792 0.0549 0.91561 0.0
C261 C 0.87462 0.07178 0.90487 0.0
C262 C 0.87663 0.05712 0.87508 0.0
C263 C 0.90971 0.04138 0.86601 0.0
C264 C 0.90625 0.07018 0.92453 0.0
H265 H 0.9659 0.02839 0.87966 0.0
C266 C 0.03655 0.01646 0.91819 0.0
O267 O 0.02724 0.94776 0.98956 0.0
O268 O 0.98032 0.94899 0.95531 0.0
N269 N 0.93707 0.07928 0.97233 0.0
C270 C 0.93892 0.09057 1.00258 0.0
C271 C 0.90776 0.10627 0.01559 0.0
C272 C 0.87515 0.11039 0.99734 0.0
C273 C 0.87382 0.09844 0.96632 0.0
C274 C 0.90581 0.08311 0.95457 0.0
H275 H 0.96397 0.08762 0.01668 0.0
O276 O 0.95846 0.98732 1.0069 0.0
O277 O 0.9625 0.01725 0.96429 0.0
O278 O 0.02923 0.02061 1.00333 0.0
O279 O 0.01346 0.06695 0.98092 0.0
C280 C 0.84192 0.10086 0.94671 0.0
C281 C 0.8423 0.08751 0.91602 0.0
H282 H 0.85287 0.05764 0.85905 0.0
H283 H 0.91145 0.03 0.84305 0.0
H284 H 0.90891 0.11529 0.0396 0.0
H285 H 0.85124 0.12264 1.00745 0.0
H286 H 0.81679 0.11266 0.95511 0.0
H287 H 0.81746 0.08923 0.9013 0.0
Mn288 Mn 0.74713 0.21998 0.73864 0.0
Mn289 Mn 0.76881 0.19105 0.81111 0.0
C290 C 0.80397 0.2325 0.76203 0.0
C291 C 0.74706 0.21552 0.68317 0.0
C292 C 0.71525 0.24611 0.80119 0.0
O293 O 0.71087 0.18293 0.74346 0.0
O294 O 0.72838 0.16492 0.79168 0.0
C295 C 0.80053 0.1288 0.79254 0.0
N296 N 0.80438 0.15729 0.80742 0.0
C297 C 0.86576 0.1431 0.82661 0.0
C298 C 0.86242 0.1136 0.81156 0.0
C299 C 0.8297 0.10646 0.79438 0.0
C300 C 0.83581 0.16444 0.8239 0.0
H301 H 0.77536 0.12312 0.77945 0.0
C302 C 0.70838 0.16339 0.76647 0.0
O303 O 0.72316 0.23354 0.69791 0.0
O304 O 0.77026 0.19957 0.70068 0.0
N305 N 0.80806 0.2137 0.83226 0.0
C306 C 0.80794 0.24399 0.84351 0.0
C307 C 0.83937 0.25538 0.86007 0.0
C308 C 0.87033 0.2354 0.86527 0.0
C309 C 0.86971 0.20427 0.85362 0.0
C310 C 0.83775 0.19432 0.83707 0.0
H311 H 0.78411 0.25936 0.83976 0.0
O312 O 0.78969 0.25063 0.74027 0.0
O313 O 0.78441 0.2076 0.76963 0.0
O314 O 0.7175 0.24699 0.77096 0.0
O315 O 0.73282 0.22585 0.81805 0.0
C316 C 0.89967 0.18281 0.85755 0.0
C317 C 0.89778 0.15229 0.84395 0.0
H318 H 0.88488 0.09633 0.81287 0.0
H319 H 0.82693 0.08375 0.78267 0.0
H320 H 0.83968 0.27946 0.86893 0.0
H321 H 0.89451 0.24427 0.87809 0.0
H322 H 0.9245 0.18967 0.87068 0.0
H323 H 0.92123 0.13617 0.84673 0.0
Mn324 Mn 0.99333 0.53538 0.98168 0.0
Mn325 Mn 0.027 0.46511 0.95568 0.0
C326 C 0.05217 0.51818 0.99732 0.0
C327 C 0.98642 0.59024 0.97501 0.0
C328 C 0.96763 0.47092 1.00723 0.0
O329 O 0.96014 0.52565 0.94335 0.0
O330 O 0.98799 0.48083 0.92594 0.0
C331 C 0.06391 0.48591 0.89626 0.0
N332 N 0.066 0.47168 0.9252 0.0
C333 C 0.13163 0.46013 0.91785 0.0
C334 C 0.13011 0.47451 0.8879 0.0
C335 C 0.09612 0.4875 0.8771 0.0
C336 C 0.09856 0.45905 0.93581 0.0
H337 H 0.03788 0.49601 0.88787 0.0
C338 C 0.96399 0.50332 0.92305 0.0
O339 O 0.96363 0.57413 0.99289 0.0
O340 O 0.01234 0.57436 0.9604 0.0
N341 N 0.0656 0.44784 0.98215 0.0
C342 C 0.06289 0.43648 0.01232 0.0
C343 C 0.09478 0.42358 0.02704 0.0
C344 C 0.12905 0.42233 0.01057 0.0
C345 C 0.13111 0.43398 0.97949 0.0
C346 C 0.09833 0.44637 0.96595 0.0
H347 H 0.03666 0.43738 0.02513 0.0
O348 O 0.03427 0.53912 0.01404 0.0
O349 O 0.03507 0.50796 0.97215 0.0
O350 O 0.96695 0.50118 0.00858 0.0
O351 O 0.98788 0.45557 0.98748 0.0
C352 C 0.16456 0.43433 0.96163 0.0
C353 C 0.16483 0.4474 0.93084 0.0
H354 H 0.15495 0.47596 0.87312 0.0
H355 H 0.09477 0.49876 0.85407 0.0
H356 H 0.09299 0.41469 0.05107 0.0
H357 H 0.15364 0.41258 0.02211 0.0
H358 H 0.19037 0.42501 0.97152 0.0
H359 H 0.19084 0.44794 0.91752 0.0
Mn360 Mn 0.75749 0.79102 0.2418 0.0
Mn361 Mn 0.73057 0.81752 0.31403 0.0
C362 C 0.699 0.77773 0.26203 0.0
C363 C 0.76154 0.79709 0.18662 0.0
C364 C 0.78573 0.76339 0.30474 0.0
O365 O 0.79338 0.82797 0.2498 0.0
O366 O 0.77081 0.84517 0.29682 0.0
C367 C 0.69704 0.87918 0.2958 0.0
N368 N 0.69377 0.85028 0.30994 0.0
C369 C 0.63041 0.86161 0.3263 0.0
C370 C 0.63307 0.89145 0.31187 0.0
C371 C 0.66653 0.90027 0.29656 0.0
C372 C 0.6617 0.84158 0.32475 0.0
H373 H 0.72272 0.88605 0.28402 0.0
C374 C 0.79303 0.84751 0.27301 0.0
O375 O 0.78419 0.77851 0.202 0.0
O376 O 0.73728 0.81278 0.20338 0.0
N377 N 0.69131 0.79312 0.3331 0.0
C378 C 0.69252 0.76278 0.34416 0.0
C379 C 0.66117 0.7502 0.35991 0.0
C380 C 0.629 0.76895 0.36426 0.0
C381 C 0.62823 0.79998 0.35237 0.0
C382 C 0.66048 0.81136 0.33717 0.0
H383 H 0.71727 0.74832 0.34112 0.0
O384 O 0.71459 0.76038 0.24027 0.0
O385 O 0.71815 0.80219 0.2714 0.0
O386 O 0.78482 0.76298 0.27448 0.0
O387 O 0.76748 0.78347 0.32133 0.0
C388 C 0.59667 0.81999 0.35481 0.0
C389 C 0.59771 0.85075 0.34169 0.0
H390 H 0.60948 0.90764 0.31213 0.0
H391 H 0.66877 0.92327 0.28535 0.0
H392 H 0.66187 0.72616 0.36885 0.0
H393 H 0.60502 0.75921 0.3767 0.0
H394 H 0.57129 0.81183 0.36639 0.0
H395 H 0.57312 0.86578 0.34337 0.0
Mn396 Mn 0.00067 0.48342 0.53959 0.0
Mn397 Mn 0.03668 0.55409 0.56195 0.0
C398 C 0.0593 0.49906 0.52198 0.0
C399 C 0.99335 0.42888 0.54815 0.0
C400 C 0.97624 0.54734 0.51156 0.0
O401 O 0.969 0.49488 0.5783 0.0
O402 O 0.99691 0.54086 0.59231 0.0
C403 C 0.07268 0.53513 0.62235 0.0
N404 N 0.07537 0.54787 0.59276 0.0
C405 C 0.14141 0.55792 0.59964 0.0
C406 C 0.13928 0.54507 0.63025 0.0
C407 C 0.10478 0.5336 0.64163 0.0
C408 C 0.10842 0.55905 0.5816 0.0
H409 H 0.04624 0.52622 0.63119 0.0
C410 C 0.97285 0.51867 0.59681 0.0
O411 O 0.9699 0.44467 0.5306 0.0
O412 O 0.01998 0.44498 0.5615 0.0
N413 N 0.07594 0.56919 0.53481 0.0
C414 C 0.07365 0.5794 0.50421 0.0
C415 C 0.10601 0.5908 0.48897 0.0
C416 C 0.14031 0.59177 0.50537 0.0
C417 C 0.14194 0.58133 0.53691 0.0
C418 C 0.1087 0.57043 0.55095 0.0
H419 H 0.04739 0.57867 0.49144 0.0
O420 O 0.04027 0.47801 0.50632 0.0
O421 O 0.04331 0.51045 0.5472 0.0
O422 O 0.97381 0.51711 0.5123 0.0
O423 O 0.99809 0.56307 0.52969 0.0
C424 C 0.17536 0.5808 0.55477 0.0
C425 C 0.17509 0.56911 0.58611 0.0
H426 H 0.16401 0.54368 0.64514 0.0
H427 H 0.10294 0.52355 0.66519 0.0
H428 H 0.10455 0.59875 0.46461 0.0
H429 H 0.16525 0.60039 0.49346 0.0
H430 H 0.20152 0.58896 0.54449 0.0
H431 H 0.20105 0.56847 0.59947 0.0
Mn432 Mn 0.50671 0.52742 0.03893 0.0
Mn433 Mn 0.48616 0.45612 0.07113 0.0
C434 C 0.44965 0.50328 0.02833 0.0
C435 C 0.50657 0.58297 0.04179 0.0
C436 C 0.53914 0.46441 0.01514 0.0
O437 O 0.54424 0.5239 0.07533 0.0
O438 O 0.52533 0.47757 0.09697 0.0
C439 C 0.4524 0.47679 0.13196 0.0
N440 N 0.44976 0.46044 0.1042 0.0
C441 C 0.38839 0.44097 0.11809 0.0
C442 C 0.3904 0.45772 0.14675 0.0
C443 C 0.42254 0.47572 0.1537 0.0
C444 C 0.41891 0.4431 0.09725 0.0
H445 H 0.47706 0.49058 0.13746 0.0
C446 C 0.54595 0.50245 0.09665 0.0
O447 O 0.52975 0.56783 0.02343 0.0
O448 O 0.48416 0.56584 0.05893 0.0
N449 N 0.44794 0.43335 0.04875 0.0
C450 C 0.44895 0.42099 0.0189 0.0
C451 C 0.41822 0.40336 0.00775 0.0
C452 C 0.38701 0.39831 0.02749 0.0
C453 C 0.38667 0.41117 0.05815 0.0
C454 C 0.41798 0.42871 0.0679 0.0
H455 H 0.47295 0.42461 1.00369 0.0
O456 O 0.46309 0.52465 0.00931 0.0
O457 O 0.47002 0.49667 0.05301 0.0
O458 O 0.53553 0.49441 0.01232 0.0
O459 O 0.52302 0.44847 0.03699 0.0
C460 C 0.35633 0.40757 0.0793 0.0
C461 C 0.35706 0.42263 0.10917 0.0
H462 H 0.36729 0.45718 0.16344 0.0
H463 H 0.42429 0.48873 0.17578 0.0
H464 H 0.41865 0.39358 0.98402 0.0
H465 H 0.36336 0.3847 0.0188 0.0
H466 H 0.33204 0.39364 0.07264 0.0
H467 H 0.33325 0.42019 0.12498 0.0
Mn468 Mn 0.74198 0.78337 0.78961 0.0
Mn469 Mn 0.76662 0.81226 0.71788 0.0
C470 C 0.79977 0.77046 0.76785 0.0
C471 C 0.73957 0.78934 0.84487 0.0
C472 C 0.71026 0.75878 0.72691 0.0
O473 O 0.70588 0.82046 0.78309 0.0
O474 O 0.7294 0.84118 0.73781 0.0
C475 C 0.80502 0.87176 0.73636 0.0
N476 N 0.80574 0.8431 0.7215 0.0
C477 C 0.8691 0.85176 0.70356 0.0
C478 C 0.86897 0.88142 0.71858 0.0
C479 C 0.83681 0.89142 0.73511 0.0
C480 C 0.83653 0.83325 0.7055 0.0
H481 H 0.78038 0.87958 0.74905 0.0
C482 C 0.70718 0.84189 0.7617 0.0
O483 O 0.71661 0.77058 0.83002 0.0
O484 O 0.7634 0.80489 0.8276 0.0
N485 N 0.80326 0.78657 0.69676 0.0
C486 C 0.7997 0.7565 0.68533 0.0
C487 C 0.82976 0.74261 0.66885 0.0
C488 C 0.86306 0.7598 0.66419 0.0
C489 C 0.8662 0.79062 0.67637 0.0
C490 C 0.8352 0.80333 0.69238 0.0
H491 H 0.77413 0.74319 0.68868 0.0
O492 O 0.78497 0.75275 0.78971 0.0
O493 O 0.78025 0.79504 0.75945 0.0
O494 O 0.71387 0.75594 0.75691 0.0
O495 O 0.72699 0.78022 0.71087 0.0
C496 C 0.89901 0.80909 0.67358 0.0
C497 C 0.90049 0.8396 0.68724 0.0
H498 H 0.89349 0.8966 0.71779 0.0
H499 H 0.83653 0.91424 0.74685 0.0
H500 H 0.82721 0.71875 0.65968 0.0
H501 H 0.88612 0.749 0.65137 0.0
H502 H 0.92344 0.79991 0.66132 0.0
H503 H 0.92606 0.85338 0.68533 0.0
Mn504 Mn 0.75944 0.22996 0.28662 0.0
Mn505 Mn 0.72607 0.20576 0.2156 0.0
C506 C 0.70095 0.24656 0.26941 0.0
C507 C 0.76591 0.22188 0.34139 0.0
C508 C 0.78613 0.25651 0.2228 0.0
O509 O 0.79225 0.1916 0.27618 0.0
O510 O 0.76464 0.17534 0.23086 0.0
C511 C 0.68828 0.14628 0.23491 0.0
N512 N 0.68665 0.17553 0.22131 0.0
C513 C 0.62109 0.16897 0.20909 0.0
C514 C 0.62213 0.13871 0.22281 0.0
C515 C 0.65585 0.12735 0.23582 0.0
C516 C 0.65435 0.18667 0.20867 0.0
H517 H 0.71411 0.13745 0.245 0.0
C518 C 0.78849 0.17185 0.25337 0.0
O519 O 0.78918 0.23974 0.32575 0.0
O520 O 0.73971 0.20817 0.32507 0.0
N521 N 0.68794 0.23294 0.19868 0.0
C522 C 0.69111 0.26331 0.18799 0.0
C523 C 0.65952 0.27858 0.17519 0.0
C524 C 0.6251 0.26244 0.17333 0.0
C525 C 0.62256 0.23114 0.1843 0.0
C526 C 0.65505 0.21706 0.19663 0.0
H527 H 0.71747 0.27586 0.18936 0.0
O528 O 0.71889 0.26265 0.29083 0.0
O529 O 0.71783 0.22146 0.25875 0.0
O530 O 0.78655 0.25722 0.25311 0.0
O531 O 0.76568 0.23735 0.20692 0.0
C532 C 0.58892 0.21356 0.184 0.0
C533 C 0.58818 0.1825 0.19639 0.0
H534 H 0.59713 0.1241 0.22373 0.0
H535 H 0.65684 0.10407 0.24657 0.0
H536 H 0.66168 0.30276 0.16684 0.0
H537 H 0.60074 0.27438 0.16365 0.0
H538 H 0.56333 0.22386 0.1747 0.0
H539 H 0.56202 0.16939 0.19643 0.0
Mn540 Mn 0.51417 0.48308 0.47526 0.0
Mn541 Mn 0.49395 0.55548 0.44538 0.0
C542 C 0.45687 0.50664 0.48596 0.0
C543 C 0.51433 0.42761 0.47047 0.0
C544 C 0.54511 0.54553 0.50215 0.0
O545 O 0.55224 0.48786 0.43946 0.0
O546 O 0.5347 0.53551 0.42006 0.0
C547 C 0.46377 0.53727 0.38247 0.0
N548 N 0.45928 0.5521 0.41093 0.0
C549 C 0.39882 0.5723 0.39537 0.0
C550 C 0.4029 0.5574 0.36584 0.0
C551 C 0.43544 0.53969 0.35943 0.0
C552 C 0.42796 0.56902 0.41742 0.0
H553 H 0.48886 0.52385 0.37731 0.0
C554 C 0.55497 0.51044 0.41942 0.0
O555 O 0.5371 0.44216 0.48964 0.0
O556 O 0.49217 0.44529 0.45369 0.0
N557 N 0.45438 0.57708 0.46725 0.0
C558 C 0.45384 0.58843 0.49751 0.0
C559 C 0.42242 0.60549 0.5082 0.0
C560 C 0.39219 0.6111 0.48757 0.0
C561 C 0.39349 0.59934 0.45648 0.0
C562 C 0.42536 0.58224 0.44725 0.0
H563 H 0.47713 0.58442 0.51339 0.0
O564 O 0.47012 0.4847 0.50441 0.0
O565 O 0.47753 0.51417 0.46168 0.0
O566 O 0.54235 0.51535 0.50345 0.0
O567 O 0.52898 0.56218 0.48089 0.0
C568 C 0.36433 0.60375 0.43435 0.0
C569 C 0.3669 0.59013 0.40387 0.0
H570 H 0.38116 0.55929 0.34797 0.0
H571 H 0.43877 0.52806 0.33672 0.0
H572 H 0.4216 0.61445 0.53225 0.0
H573 H 0.36805 0.62435 0.49588 0.0
H574 H 0.3396 0.61733 0.44064 0.0
H575 H 0.34406 0.59334 0.38721 0.0
H576 H 0.18928 0.20945 0.23401 0.0
H577 H 0.16017 0.16724 0.20224 0.0
H578 H 0.16168 0.22815 0.1202 0.0
H579 H 0.191 0.26998 0.1513 0.0
H580 H 0.09395 0.16395 0.16631 0.0
H581 H 0.21833 0.1504 0.08883 0.0
H582 H 0.21985 0.17217 0.12567 0.0
H583 H 0.20198 0.19059 0.09024 0.0
C584 C 0.18307 0.21395 0.20928 0.0
C585 C 0.19291 0.24307 0.19519 0.0
C586 C 0.16655 0.18975 0.19113 0.0
C587 C 0.15966 0.19423 0.15862 0.0
C588 C 0.16772 0.22378 0.14499 0.0
H589 H 0.05381 0.11258 0.99871 0.0
H590 H 0.08643 0.14337 0.03917 0.0
C591 C 0.18431 0.2478 0.16295 0.0
C592 C 0.1444 0.16824 0.1385 0.0
H593 H 0.16067 0.12821 0.06931 0.0
C594 C 0.10878 0.1557 0.14541 0.0
C595 C 0.16391 0.15722 0.11135 0.0
C596 C 0.2033 0.16804 0.10374 0.0
C597 C 0.09131 0.13387 0.12488 0.0
C598 C 0.11005 0.12427 0.09689 0.0
C599 C 0.14627 0.13576 0.0907 0.0
C600 C 0.09132 0.10456 0.07236 0.0
C601 C 0.05223 0.12231 0.13237 0.0
C602 C 0.08386 0.07225 0.07735 0.0
C603 C 0.06539 0.05434 0.05402 0.0
C604 C 0.05384 0.06854 0.0254 0.0
C605 C 0.0621 0.10081 0.02043 0.0
C606 C 0.08077 0.11851 0.04355 0.0
H607 H 0.04004 0.13442 0.15339 0.0
H608 H 0.03344 0.12618 0.11172 0.0
H609 H 0.05304 0.09645 0.13715 0.0
H610 H 0.09213 0.06097 0.09933 0.0
H611 H 0.05938 0.02961 0.05872 0.0
H612 H 0.07402 0.99182 0.46309 0.0
H613 H 0.10603 0.96127 0.42142 0.0
H614 H 0.05442 0.87554 0.45587 0.0
H615 H 0.02252 0.9054 0.49715 0.0
H616 H 0.15603 0.90846 0.4273 0.0
H617 H 0.0277 0.87579 0.36078 0.0
H618 H 0.02861 0.90759 0.38948 0.0
H619 H 0.02447 0.8671 0.40236 0.0
C620 C 0.06956 0.96646 0.46185 0.0
C621 C 0.04547 0.95122 0.48354 0.0
C622 C 0.08781 0.94905 0.43797 0.0
C623 C 0.08197 0.91622 0.43513 0.0
C624 C 0.05867 0.90094 0.45712 0.0
H625 H 0.20486 0.76129 0.36008 0.0
H626 H 0.1739 0.80289 0.39028 0.0
C627 C 0.04064 0.91815 0.48095 0.0
C628 C 0.10077 0.89734 0.4099 0.0
H629 H 0.08271 0.84451 0.3503 0.0
C630 C 0.14006 0.89487 0.41014 0.0
C631 C 0.07997 0.8799 0.38719 0.0
C632 C 0.03787 0.88292 0.38464 0.0
C633 C 0.15891 0.87406 0.38948 0.0
C634 C 0.13788 0.855 0.36829 0.0
C635 C 0.09879 0.85883 0.36679 0.0
C636 C 0.15576 0.82945 0.34922 0.0
C637 C 0.20118 0.87227 0.39089 0.0
C638 C 0.15472 0.82986 0.31591 0.0
C639 C 0.17242 0.80584 0.29831 0.0
C640 C 0.19115 0.78081 0.31377 0.0
C641 C 0.19095 0.78013 0.34719 0.0
C642 C 0.17347 0.8041 0.36462 0.0
H643 H 0.21347 0.89423 0.4011 0.0
H644 H 0.20951 0.85211 0.40626 0.0
H645 H 0.21335 0.86834 0.36696 0.0
H646 H 0.14084 0.84906 0.30354 0.0
H647 H 0.17194 0.80719 0.27267 0.0
H648 H 0.43659 0.90514 0.49603 0.0
H649 H 0.40857 0.87437 0.53871 0.0
H650 H 0.40493 0.95778 0.59778 0.0
H651 H 0.4325 0.98918 0.55462 0.0
H652 H 0.43873 0.86356 0.59683 0.0
H653 H 0.29971 0.92234 0.60965 0.0
H654 H 0.32969 0.92887 0.57574 0.0
H655 H 0.33979 0.94801 0.61284 0.0
C656 C 0.42947 0.91718 0.51792 0.0
C657 C 0.43684 0.94974 0.5218 0.0
C658 C 0.41347 0.89946 0.54238 0.0
C659 C 0.40442 0.91369 0.57147 0.0
C660 C 0.41102 0.94633 0.57537 0.0
H661 H 0.31263 0.81156 0.73806 0.0
H662 H 0.34427 0.85244 0.70618 0.0
C663 C 0.42686 0.96426 0.55068 0.0
C664 C 0.3898 0.89359 0.59779 0.0
H665 H 0.31283 0.87998 0.64446 0.0
C666 C 0.41131 0.86735 0.60739 0.0
C667 C 0.3541 0.89859 0.61178 0.0
C668 C 0.32925 0.92581 0.60189 0.0
C669 C 0.3977 0.84552 0.62974 0.0
C670 C 0.36155 0.84988 0.64284 0.0
C671 C 0.34061 0.87678 0.63438 0.0
C672 C 0.3437 0.8251 0.66279 0.0
C673 C 0.42176 0.81751 0.63876 0.0
C674 C 0.33301 0.79626 0.64896 0.0
C675 C 0.31485 0.77306 0.66692 0.0
C676 C 0.30709 0.77805 0.69929 0.0
C677 C 0.31845 0.80681 0.7133 0.0
C678 C 0.33633 0.83026 0.6951 0.0
H679 H 0.45173 0.82135 0.63253 0.0
H680 H 0.41963 0.81262 0.66458 0.0
H681 H 0.41174 0.79619 0.62586 0.0
H682 H 0.33818 0.7919 0.62401 0.0
H683 H 0.30655 0.75127 0.65529 0.0
H684 H 0.43122 0.02323 0.95092 0.0
H685 H 0.40403 0.05586 0.90847 0.0
H686 H 0.4157 0.13903 0.96707 0.0
H687 H 0.44323 0.10705 0.00907 0.0
H688 H 0.34164 0.09555 0.9057 0.0
H689 H 0.47144 0.16519 0.88731 0.0
H690 H 0.47072 0.12902 0.91017 0.0
H691 H 0.45637 0.16595 0.92789 0.0
C692 C 0.4277 0.04843 0.95484 0.0
C693 C 0.43983 0.06251 0.98334 0.0
C694 C 0.41228 0.06706 0.93051 0.0
C695 C 0.40879 0.10005 0.93424 0.0
C696 C 0.41918 0.11381 0.96322 0.0
H697 H 0.30255 0.25984 0.85414 0.0
H698 H 0.33419 0.2187 0.88475 0.0
C699 C 0.43471 0.09536 0.98736 0.0
C700 C 0.39434 0.12045 0.90815 0.0
H701 H 0.4146 0.1877 0.8662 0.0
C702 C 0.35783 0.11533 0.89661 0.0
C703 C 0.4156 0.14616 0.89604 0.0
C704 C 0.45585 0.15173 0.90574 0.0
C705 C 0.34135 0.1363 0.8747 0.0
C706 C 0.36189 0.16293 0.86409 0.0
C707 C 0.39889 0.1673 0.87452 0.0
C708 C 0.3442 0.18804 0.84457 0.0
C709 C 0.30148 0.13082 0.864 0.0
C710 C 0.34 0.18465 0.81164 0.0
C711 C 0.3221 0.20838 0.79385 0.0
C712 C 0.30787 0.23573 0.80881 0.0
C713 C 0.31296 0.23912 0.84177 0.0
C714 C 0.33105 0.21562 0.85937 0.0
H715 H 0.28909 0.10912 0.87464 0.0
H716 H 0.28385 0.15153 0.87057 0.0
H717 H 0.30069 0.12858 0.83778 0.0
H718 H 0.35014 0.16352 0.79982 0.0
H719 H 0.31848 0.20488 0.76859 0.0
H720 H 0.69018 0.24372 0.86225 0.0
H721 H 0.65819 0.28498 0.89237 0.0
H722 H 0.65809 0.3456 0.81013 0.0
H723 H 0.69031 0.30409 0.77942 0.0
H724 H 0.68586 0.37388 0.87036 0.0
H725 H 0.54714 0.31553 0.88292 0.0
H726 H 0.5864 0.29033 0.89191 0.0
H727 H 0.58025 0.30491 0.85221 0.0
C728 C 0.6831 0.26566 0.85032 0.0
C729 C 0.69278 0.27048 0.8183 0.0
C730 C 0.66468 0.28922 0.86762 0.0
C731 C 0.65551 0.31827 0.85346 0.0
C732 C 0.66478 0.32326 0.82146 0.0
H733 H 0.56361 0.48441 0.95635 0.0
H734 H 0.59213 0.45192 0.9145 0.0
C735 C 0.68298 0.29946 0.80392 0.0
C736 C 0.63745 0.34348 0.87283 0.0
H737 H 0.56031 0.35787 0.91874 0.0
C738 C 0.65815 0.37074 0.88057 0.0
C739 C 0.60134 0.33927 0.88612 0.0
C740 C 0.57727 0.31108 0.8777 0.0
C741 C 0.64451 0.39305 0.90263 0.0
C742 C 0.60896 0.38816 0.91689 0.0
C743 C 0.58766 0.36155 0.90803 0.0
C744 C 0.59412 0.40899 0.94256 0.0
C745 C 0.66903 0.42077 0.91169 0.0
C746 C 0.58569 0.39578 0.97225 0.0
C747 C 0.56923 0.41415 0.99606 0.0
C748 C 0.56068 0.44632 0.99084 0.0
C749 C 0.57011 0.45983 0.96135 0.0
C750 C 0.5865 0.44128 0.93737 0.0
H751 H 0.69854 0.41746 0.90378 0.0
H752 H 0.658 0.44259 0.90036 0.0
H753 H 0.66882 0.42443 0.93777 0.0
H754 H 0.59136 0.37097 0.97688 0.0
H755 H 0.56252 0.40285 0.01841 0.0
H756 H 0.93519 0.4911 0.06314 0.0
H757 H 0.90631 0.45807 0.10442 0.0
H758 H 0.92237 0.3752 0.04612 0.0
H759 H 0.95164 0.40763 1.00525 0.0
H760 H 0.8446 0.41808 0.10505 0.0
H761 H 0.97404 0.34912 0.12765 0.0
H762 H 0.97408 0.38522 0.10468 0.0
H763 H 0.96066 0.34821 0.08667 0.0
C764 C 0.93229 0.46588 0.059 0.0
C765 C 0.94614 0.45205 0.03093 0.0
C766 C 0.91589 0.44701 0.08268 0.0
C767 C 0.91309 0.414 0.07876 0.0
C768 C 0.92524 0.40044 0.05015 0.0
H769 H 0.80308 0.25517 0.15963 0.0
H770 H 0.83527 0.29551 0.12832 0.0
C771 C 0.94176 0.41915 0.02665 0.0
C772 C 0.89757 0.39345 0.10431 0.0
H773 H 0.91665 0.32684 0.1477 0.0
C774 C 0.86056 0.39847 0.11476 0.0
C775 C 0.91849 0.36795 0.11726 0.0
C776 C 0.95914 0.36247 0.10874 0.0
C777 C 0.84339 0.37771 0.13651 0.0
C778 C 0.86373 0.35139 0.1481 0.0
C779 C 0.9011 0.34701 0.13864 0.0
C780 C 0.84562 0.32675 0.16797 0.0
C781 C 0.80314 0.38318 0.14617 0.0
C782 C 0.84139 0.33074 0.20084 0.0
C783 C 0.82316 0.30749 0.21903 0.0
C784 C 0.80865 0.28 0.20456 0.0
C785 C 0.81373 0.27601 0.17166 0.0
C786 C 0.83212 0.29905 0.15364 0.0
H787 H 0.79102 0.40471 0.13497 0.0
H788 H 0.78586 0.36233 0.13941 0.0
H789 H 0.80139 0.38572 0.17233 0.0
H790 H 0.85179 0.35197 0.2123 0.0
H791 H 0.81959 0.31146 0.24423 0.0
H792 H 0.92692 0.52497 0.4661 0.0
H793 H 0.89452 0.55586 0.42498 0.0
H794 H 0.94403 0.64165 0.46148 0.0
H795 H 0.97636 0.61144 0.50221 0.0
H796 H 0.84335 0.60736 0.43153 0.0
H797 H 0.97134 0.64409 0.36669 0.0
H798 H 0.97109 0.61173 0.39474 0.0
H799 H 0.97405 0.65205 0.40845 0.0
C800 C 0.93084 0.55041 0.46542 0.0
C801 C 0.95447 0.56557 0.48752 0.0
C802 C 0.91237 0.56802 0.44185 0.0
C803 C 0.91752 0.60098 0.43975 0.0
C804 C 0.94034 0.61617 0.46215 0.0
H805 H 0.79147 0.7556 0.36892 0.0
H806 H 0.82252 0.71319 0.39784 0.0
C807 C 0.95861 0.59875 0.48566 0.0
C808 C 0.89847 0.62007 0.41487 0.0
H809 H 0.9157 0.67489 0.35696 0.0
C810 C 0.85912 0.62174 0.41488 0.0
C811 C 0.91901 0.63849 0.39278 0.0
C812 C 0.9612 0.63631 0.39037 0.0
C813 C 0.83992 0.64274 0.3947 0.0
C814 C 0.86064 0.66284 0.37427 0.0
C815 C 0.89984 0.65978 0.37289 0.0
C816 C 0.84234 0.68872 0.356 0.0
C817 C 0.79759 0.64361 0.39581 0.0
C818 C 0.84425 0.68976 0.32273 0.0
C819 C 0.82653 0.71426 0.30588 0.0
C820 C 0.80693 0.73835 0.32207 0.0
C821 C 0.80609 0.73752 0.35548 0.0
C822 C 0.82361 0.71307 0.37216 0.0
H823 H 0.78585 0.62098 0.40496 0.0
H824 H 0.78849 0.6629 0.41199 0.0
H825 H 0.78558 0.6483 0.37197 0.0
H826 H 0.85894 0.67135 0.30979 0.0
H827 H 0.82782 0.71409 0.28022 0.0
H828 H 0.56778 0.52402 0.56101 0.0
H829 H 0.59355 0.55588 0.60475 0.0
H830 H 0.59391 0.63839 0.54451 0.0
H831 H 0.56809 0.6072 0.50115 0.0
H832 H 0.65924 0.59414 0.61065 0.0
H833 H 0.53034 0.66683 0.62035 0.0
H834 H 0.53175 0.62998 0.59857 0.0
H835 H 0.54889 0.66597 0.58079 0.0
C836 C 0.57379 0.54885 0.55698 0.0
C837 C 0.56543 0.56304 0.52758 0.0
C838 C 0.58838 0.56706 0.58204 0.0
C839 C 0.59474 0.59972 0.57815 0.0
C840 C 0.58828 0.61345 0.54837 0.0
H841 H 0.68469 0.76332 0.66604 0.0
H842 H 0.65483 0.72233 0.63402 0.0
C843 C 0.57368 0.59544 0.52348 0.0
C844 C 0.60757 0.61996 0.60499 0.0
H845 H 0.5855 0.68781 0.64528 0.0
C846 C 0.64289 0.6143 0.61866 0.0
C847 C 0.58609 0.64617 0.6156 0.0
C848 C 0.54699 0.65246 0.60331 0.0
C849 C 0.65818 0.63523 0.64129 0.0
C850 C 0.63741 0.66227 0.65068 0.0
C851 C 0.60147 0.66715 0.63798 0.0
C852 C 0.65375 0.68727 0.67139 0.0
C853 C 0.69718 0.62918 0.65384 0.0
C854 C 0.66224 0.6815 0.70342 0.0
C855 C 0.67918 0.70511 0.72204 0.0
C856 C 0.6881 0.73487 0.70888 0.0
C857 C 0.67842 0.74072 0.67703 0.0
C858 C 0.66132 0.71728 0.65861 0.0
H859 H 0.71158 0.6097 0.64091 0.0
H860 H 0.71453 0.65098 0.65203 0.0
H861 H 0.69545 0.62259 0.67928 0.0
H862 H 0.65616 0.65863 0.71389 0.0
H863 H 0.68634 0.69971 0.7464 0.0
H864 H 0.2002 0.26829 0.37413 0.0
H865 H 0.20409 0.27052 0.43211 0.0
H866 H 0.30226 0.33 0.42522 0.0
H867 H 0.29803 0.32849 0.36741 0.0
H868 H 0.25904 0.25051 0.47124 0.0
H869 H 0.23885 0.37967 0.48709 0.0
H870 H 0.23066 0.36008 0.44972 0.0
H871 H 0.27764 0.37055 0.4615 0.0
C872 C 0.22242 0.28207 0.38497 0.0
C873 C 0.24864 0.29837 0.36612 0.0
C874 C 0.22466 0.28328 0.41813 0.0
C875 C 0.25313 0.30084 0.43312 0.0
C876 C 0.2795 0.31694 0.41431 0.0
H877 H 0.31882 0.27286 0.63164 0.0
H878 H 0.31765 0.27486 0.57355 0.0
C879 C 0.27714 0.31589 0.38119 0.0
C880 C 0.25599 0.30139 0.46837 0.0
H881 H 0.25936 0.35088 0.53254 0.0
C882 C 0.25899 0.27246 0.48465 0.0
C883 C 0.25552 0.33001 0.48596 0.0
C884 C 0.25011 0.36181 0.47022 0.0
C885 C 0.26179 0.27132 0.51789 0.0
C886 C 0.2626 0.29998 0.53541 0.0
C887 C 0.25928 0.32892 0.51914 0.0
C888 C 0.265 0.3004 0.57069 0.0
C889 C 0.26279 0.23934 0.53391 0.0
C890 C 0.23677 0.31532 0.58853 0.0
C891 C 0.23771 0.31466 0.62168 0.0
C892 C 0.26689 0.299 0.6378 0.0
C893 C 0.2958 0.28491 0.61996 0.0
C894 C 0.295 0.28581 0.58673 0.0
H895 H 0.25166 0.22035 0.51826 0.0
H896 H 0.29229 0.23328 0.53982 0.0
H897 H 0.24621 0.23952 0.55622 0.0
H898 H 0.21345 0.32689 0.57678 0.0
H899 H 0.21499 0.32579 0.63465 0.0
H900 H 0.05386 0.06198 0.87458 0.0
H901 H 0.07159 0.05332 0.8194 0.0
H902 H 0.08387 0.95331 0.83754 0.0
H903 H 0.06559 0.96163 0.89294 0.0
H904 H 0.13163 0.02234 0.78364 0.0
H905 H 0.99298 0.96162 0.77595 0.0
H906 H 0.00625 0.98529 0.80975 0.0
H907 H 0.02556 0.94629 0.80465 0.0
C908 C 0.06132 0.03821 0.86715 0.0
C909 C 0.05762 0.0124 0.88809 0.0
C910 C 0.0716 0.03335 0.83556 0.0
C911 C 0.07832 1.00262 0.82427 0.0
C912 C 0.07832 0.97718 0.84576 0.0
H913 H 0.04519 0.9445 0.62864 0.0
H914 H 0.06689 0.94334 0.68353 0.0
C915 C 0.06808 0.98202 0.87749 0.0
C916 C 0.0796 0.99704 0.78957 0.0
H917 H 0.02605 0.96881 0.72876 0.0
C918 C 0.10888 0.01024 0.77157 0.0
C919 C 0.04968 0.98151 0.77391 0.0
C920 C 0.01663 0.96802 0.79189 0.0
C921 C 0.10883 0.00852 0.73823 0.0
C922 C 0.07829 0.9938 0.72255 0.0
C923 C 0.04961 0.9799 0.74071 0.0
C924 C 0.07361 0.99417 0.68749 0.0
C925 C 0.14142 0.02251 0.72018 0.0
C926 C 0.07149 0.02305 0.67094 0.0
C927 C 0.05954 0.02374 0.63931 0.0
C928 C 0.04876 0.99562 0.62388 0.0
C929 C 0.05311 0.9666 0.63989 0.0
C930 C 0.06552 0.9659 0.6713 0.0
H931 H 0.16737 0.02265 0.7348 0.0
H932 H 0.147 0.00919 0.69795 0.0
H933 H 0.1348 0.04744 0.71393 0.0
H934 H 0.07668 0.04527 0.68303 0.0
H935 H 0.0561 0.0465 0.62777 0.0
H936 H 0.30202 0.75799 0.87793 0.0
H937 H 0.29843 0.75687 0.93589 0.0
H938 H 0.2242 0.67618 0.93117 0.0
H939 H 0.22674 0.67784 0.87328 0.0
H940 H 0.19732 0.71834 0.97102 0.0
H941 H 0.34714 0.69925 0.99908 0.0
H942 H 0.34059 0.73457 0.97609 0.0
H943 H 0.32928 0.6965 0.95921 0.0
C944 C 0.28532 0.73976 0.88926 0.0
C945 C 0.26474 0.71796 0.87099 0.0
C946 C 0.28341 0.73905 0.92245 0.0
C947 C 0.26143 0.71617 0.93806 0.0
C948 C 0.24139 0.69405 0.91978 0.0
H949 H 0.27474 0.68032 0.14118 0.0
H950 H 0.27773 0.67718 0.08337 0.0
C951 C 0.24296 0.69497 0.88664 0.0
C952 C 0.25771 0.71618 0.97329 0.0
H953 H 0.30796 0.7156 0.04228 0.0
C954 C 0.22153 0.71751 0.98659 0.0
C955 C 0.28919 0.71464 0.99374 0.0
C956 C 0.32868 0.71082 0.98129 0.0
C957 C 0.21597 0.71777 0.0196 0.0
C958 C 0.24753 0.71775 0.04005 0.0
C959 C 0.2837 0.71598 0.02674 0.0
C960 C 0.24387 0.71904 0.07528 0.0
C961 C 0.17623 0.7173 0.03209 0.0
C962 C 0.22377 0.74357 0.09022 0.0
C963 C 0.22148 0.74509 0.12337 0.0
C964 C 0.23996 0.72252 0.14227 0.0
C965 C 0.26016 0.69808 0.12731 0.0
C966 C 0.26197 0.6963 0.09421 0.0
H967 H 0.15642 0.70721 0.01441 0.0
H968 H 0.17411 0.70325 0.05428 0.0
H969 H 0.16711 0.74193 0.03717 0.0
H970 H 0.21044 0.76195 0.0763 0.0
H971 H 0.2061 0.76443 0.13419 0.0
H972 H 0.40972 0.95241 0.3832 0.0
H973 H 0.38908 0.95265 0.32791 0.0
H974 H 0.41114 0.05299 0.32239 0.0
H975 H 0.4308 0.05308 0.37808 0.0
H976 H 0.34989 0.0321 0.28287 0.0
H977 H 0.47925 0.95973 0.26747 0.0
H978 H 0.44515 0.94322 0.29412 0.0
H979 H 0.4683 0.97976 0.30409 0.0
C980 C 0.40876 0.97476 0.37056 0.0
C981 C 0.4222 1.00267 0.38481 0.0
C982 C 0.39719 0.97482 0.33892 0.0
C983 C 0.3996 1.00265 0.32084 0.0
C984 C 0.40926 0.03122 0.3359 0.0
H985 H 0.43322 0.06036 0.13127 0.0
H986 H 0.41078 0.05619 0.18565 0.0
C987 C 0.42033 0.03127 0.36778 0.0
C988 C 0.39776 1.00106 0.28572 0.0
H989 H 0.44482 0.97142 0.22168 0.0
C990 C 0.37038 0.01861 0.26943 0.0
C991 C 0.42475 0.98361 0.26823 0.0
C992 C 0.45625 0.96573 0.28426 0.0
C993 C 0.36943 0.0193 0.23606 0.0
C994 C 0.39681 1.00226 0.21867 0.0
C995 C 0.42352 0.98411 0.23502 0.0
C996 C 0.40146 1.00554 0.18382 0.0
C997 C 0.33937 0.03843 0.21973 0.0
C998 C 0.40293 0.97854 0.16431 0.0
C999 C 0.41595 0.98082 0.13303 0.0
C1000 C 0.42826 0.0101 0.12095 0.0
C1001 C 0.4241 0.03741 0.13984 0.0
C1002 C 0.41093 0.03512 0.17096 0.0
H1003 H 0.31416 0.04116 0.23502 0.0
H1004 H 0.35042 0.06247 0.21455 0.0
H1005 H 0.33084 0.02728 0.19698 0.0
H1006 H 0.39602 0.95542 0.17385 0.0
H1007 H 0.41898 0.95931 0.11923 0.0
H1008 H 0.35496 0.32836 0.25229 0.0
H1009 H 0.42328 0.32353 0.24805 0.0
H1010 H 0.4121 0.22274 0.23402 0.0
H1011 H 0.34336 0.22776 0.23684 0.0
H1012 H 0.45735 0.25219 0.29189 0.0
H1013 H 0.49806 0.2903 0.17035 0.0
H1014 H 0.46544 0.31492 0.19181 0.0
H1015 H 0.45153 0.27584 0.17967 0.0
C1016 C 0.36699 0.30545 0.2467 0.0
C1017 C 0.34398 0.27859 0.24369 0.0
C1018 C 0.40598 0.30268 0.24462 0.0
C1019 C 0.42255 0.27285 0.2404 0.0
C1020 C 0.39966 0.24601 0.23684 0.0
H1021 H 0.64664 0.20279 0.27662 0.0
H1022 H 0.57904 0.2096 0.26942 0.0
C1023 C 0.36057 0.24887 0.23847 0.0
C1024 C 0.46354 0.26924 0.2441 0.0
H1025 H 0.54741 0.28109 0.20688 0.0
C1026 C 0.47713 0.25827 0.27328 0.0
C1027 C 0.48901 0.27781 0.21996 0.0
C1028 C 0.47545 0.29023 0.18852 0.0
C1029 C 0.51578 0.25584 0.2791 0.0
C1030 C 0.54143 0.2637 0.25466 0.0
C1031 C 0.52774 0.2749 0.22551 0.0
C1032 C 0.58249 0.25972 0.25869 0.0
C1033 C 0.52866 0.24569 0.31166 0.0
C1034 C 0.60704 0.28545 0.2543 0.0
C1035 C 0.64583 0.28139 0.25785 0.0
C1036 C 0.66046 0.2514 0.26508 0.0
C1037 C 0.6359 0.22593 0.27013 0.0
C1038 C 0.5973 0.22991 0.26649 0.0
H1039 H 0.50691 0.25055 0.32994 0.0
H1040 H 0.534 0.21978 0.31158 0.0
H1041 H 0.55496 0.25799 0.31863 0.0
H1042 H 0.59615 0.30867 0.24831 0.0
H1043 H 0.6644 0.30145 0.25446 0.0
H1044 H 0.94279 0.38771 0.52128 0.0
H1045 H 0.9437 0.3296 0.52349 0.0
H1046 H 0.04228 0.33289 0.58277 0.0
H1047 H 0.04115 0.39069 0.58118 0.0
H1048 H 0.99762 0.28939 0.5026 0.0
H1049 H 0.97581 0.27198 0.63104 0.0
H1050 H 0.9702 0.31009 0.61236 0.0
H1051 H 0.01621 0.29627 0.62352 0.0
C1052 C 0.96432 0.37604 0.53516 0.0
C1053 C 0.99177 0.39386 0.55119 0.0
C1054 C 0.96491 0.34283 0.5363 0.0
C1055 C 0.99281 0.32682 0.5536 0.0
C1056 C 0.02001 0.34462 0.56982 0.0
H1057 H 0.05936 0.1292 0.52292 0.0
H1058 H 0.05722 0.18729 0.52522 0.0
C1059 C 0.01939 0.37774 0.56876 0.0
C1060 C 0.99465 0.29156 0.55355 0.0
H1061 H 0.99854 0.22686 0.60217 0.0
C1062 C 0.99759 0.27569 0.52436 0.0
C1063 C 0.99417 0.27361 0.58191 0.0
C1064 C 0.98855 0.28887 0.61393 0.0
C1065 C 0.00064 0.2425 0.52276 0.0
C1066 C 0.00182 0.22465 0.5512 0.0
C1067 C 0.99828 0.2405 0.58037 0.0
C1068 C 0.0048 0.18941 0.55121 0.0
C1069 C 0.00165 0.22688 0.49056 0.0
C1070 C 0.97706 0.1712 0.56628 0.0
C1071 C 0.97859 0.13811 0.56548 0.0
C1072 C 0.00788 0.12238 0.54952 0.0
C1073 C 0.03631 0.14058 0.53524 0.0
C1074 C 0.03492 0.1738 0.53628 0.0
H1075 H 0.9901 0.24264 0.47185 0.0
H1076 H 0.0312 0.2214 0.48425 0.0
H1077 H 0.98544 0.20439 0.49055 0.0
H1078 H 0.95365 0.18261 0.5781 0.0
H1079 H 0.9562 0.12487 0.57675 0.0
H1080 H 0.85105 0.81738 0.77083 0.0
H1081 H 0.91886 0.81346 0.76333 0.0
H1082 H 0.90809 0.71269 0.7479 0.0
H1083 H 0.83961 0.71721 0.75314 0.0
H1084 H 0.96635 0.78377 0.79839 0.0
H1085 H 0.97807 0.73338 0.67753 0.0
H1086 H 0.93422 0.74763 0.69338 0.0
H1087 H 0.95078 0.70858 0.70328 0.0
C1088 C 0.86309 0.79465 0.76452 0.0
C1089 C 0.84015 0.76786 0.76101 0.0
C1090 C 0.90188 0.79231 0.76071 0.0
C1091 C 0.9187 0.76289 0.75434 0.0
C1092 C 0.89578 0.73585 0.75163 0.0
H1093 H 0.1466 0.69598 0.76725 0.0
H1094 H 0.0784 0.70222 0.76298 0.0
C1095 C 0.85675 0.73835 0.75489 0.0
C1096 C 0.96031 0.7604 0.75317 0.0
H1097 H 0.03383 0.73267 0.70917 0.0
C1098 C 0.98105 0.77291 0.77864 0.0
C1099 C 0.97965 0.74606 0.72753 0.0
C1100 C 0.95954 0.73341 0.69875 0.0
C1101 C 0.02037 0.77109 0.77937 0.0
C1102 C 0.03946 0.75644 0.75395 0.0
C1103 C 0.01897 0.74395 0.72851 0.0
C1104 C 0.08068 0.75268 0.75416 0.0
C1105 C 0.04127 0.78415 0.80762 0.0
C1106 C 0.10438 0.77898 0.75018 0.0
C1107 C 0.14337 0.77535 0.75216 0.0
C1108 C 0.15898 0.74531 0.75762 0.0
C1109 C 0.13516 0.71913 0.76176 0.0
C1110 C 0.09631 0.7227 0.7596 0.0
H1111 H 0.02207 0.79075 0.82732 0.0
H1112 H 0.06187 0.76648 0.8165 0.0
H1113 H 0.05714 0.80559 0.80035 0.0
H1114 H 0.09268 0.8023 0.74598 0.0
H1115 H 0.16131 0.79592 0.74955 0.0
H1116 H 0.4695 0.62052 0.08436 0.0
H1117 H 0.46409 0.67828 0.08424 0.0
H1118 H 0.53221 0.68275 0.99973 0.0
H1119 H 0.53888 0.62497 1.00043 0.0
H1120 H 0.55265 0.72744 0.03948 0.0
H1121 H 0.39774 0.73153 0.02966 0.0
H1122 H 0.41288 0.70953 0.06368 0.0
H1123 H 0.424 0.69532 0.02449 0.0
C1124 C 0.48338 0.6338 0.06575 0.0
C1125 C 0.5045 0.61812 0.04231 0.0
C1126 C 0.47994 0.66686 0.06553 0.0
C1127 C 0.49689 0.68498 0.0415 0.0
C1128 C 0.5186 0.66937 0.01841 0.0
H1129 H 0.44302 0.88325 1.00148 0.0
H1130 H 0.44738 0.82527 1.00132 0.0
C1131 C 0.52244 0.63631 0.01884 0.0
C1132 C 0.49281 0.72019 0.04086 0.0
H1133 H 0.42821 0.7802 0.04219 0.0
C1134 C 0.52541 0.73893 0.0399 0.0
C1135 C 0.45727 0.73536 0.04082 0.0
C1136 C 0.421 0.7169 0.03937 0.0
C1137 C 0.52354 0.77223 0.03949 0.0
C1138 C 0.48806 0.78739 0.04112 0.0
C1139 C 0.45543 0.76868 0.04144 0.0
C1140 C 0.4842 0.82259 0.04208 0.0
C1141 C 0.55968 0.79072 0.03658 0.0
C1142 C 0.50249 0.84047 0.06557 0.0
C1143 C 0.50033 0.87359 0.06551 0.0
C1144 C 0.4792 0.8896 0.04232 0.0
C1145 C 0.45952 0.87165 0.01967 0.0
C1146 C 0.46205 0.83849 0.01952 0.0
H1147 H 0.58235 0.77619 0.02573 0.0
H1148 H 0.55579 0.81239 0.02201 0.0
H1149 H 0.56924 0.79795 0.06055 0.0
H1150 H 0.51875 0.82882 0.08386 0.0
H1151 H 0.51553 0.88668 0.08349 0.0
H1152 H 0.64751 0.82464 0.26015 0.0
H1153 H 0.57948 0.82012 0.26604 0.0
H1154 H 0.59057 0.71891 0.27786 0.0
H1155 H 0.65914 0.72388 0.27404 0.0
H1156 H 0.53391 0.79028 0.22786 0.0
H1157 H 0.51743 0.73751 0.34742 0.0
H1158 H 0.56095 0.75456 0.33382 0.0
H1159 H 0.54815 0.71496 0.3223 0.0
C1160 C 0.63546 0.80163 0.26531 0.0
C1161 C 0.65847 0.77479 0.26808 0.0
C1162 C 0.59658 0.79899 0.26824 0.0
C1163 C 0.57982 0.76926 0.27308 0.0
C1164 C 0.60283 0.74224 0.27528 0.0
H1165 H 0.35428 0.69974 0.25074 0.0
H1166 H 0.42204 0.70671 0.25808 0.0
C1167 C 0.64191 0.74501 0.27281 0.0
C1168 C 0.53825 0.76642 0.27293 0.0
H1169 H 0.46329 0.7372 0.31418 0.0
C1170 C 0.5185 0.77897 0.24695 0.0
C1171 C 0.51804 0.75155 0.29775 0.0
C1172 C 0.53717 0.7391 0.32706 0.0
C1173 C 0.47931 0.77657 0.24487 0.0
C1174 C 0.45935 0.76132 0.26944 0.0
C1175 C 0.47885 0.74887 0.29545 0.0
C1176 C 0.41829 0.75696 0.26775 0.0
C1177 C 0.45948 0.78965 0.21609 0.0
C1178 C 0.39392 0.78288 0.27126 0.0
C1179 C 0.3552 0.77882 0.26752 0.0
C1180 C 0.34049 0.74873 0.26075 0.0
C1181 C 0.36496 0.7229 0.2572 0.0
C1182 C 0.40357 0.72689 0.26111 0.0
H1183 H 0.47946 0.79681 0.19716 0.0
H1184 H 0.43973 0.77179 0.20629 0.0
H1185 H 0.44279 0.81076 0.22308 0.0
H1186 H 0.40494 0.80627 0.27635 0.0
H1187 H 0.33677 0.79914 0.2697 0.0
H1188 H 0.51857 0.12384 0.42123 0.0
H1189 H 0.5233 0.18168 0.42143 0.0
H1190 H 0.45363 0.18563 0.50504 0.0
H1191 H 0.44772 0.1278 0.5043 0.0
H1192 H 0.43446 0.23122 0.46506 0.0
H1193 H 0.58906 0.23313 0.47863 0.0
H1194 H 0.57451 0.21209 0.44379 0.0
H1195 H 0.562 0.1972 0.48241 0.0
C1196 C 0.5041 0.13703 0.43959 0.0
C1197 C 0.48294 0.12117 0.46287 0.0
C1198 C 0.50712 0.17014 0.43985 0.0
C1199 C 0.48967 0.18812 0.46375 0.0
C1200 C 0.46763 0.17236 0.48649 0.0
H1201 H 0.54692 0.38409 0.51011 0.0
H1202 H 0.54015 0.3263 0.50878 0.0
C1203 C 0.46423 0.13925 0.48602 0.0
C1204 C 0.49419 0.22328 0.465 0.0
H1205 H 0.55978 0.28249 0.46693 0.0
C1206 C 0.46189 0.2424 0.46559 0.0
C1207 C 0.52995 0.23802 0.46629 0.0
C1208 C 0.56583 0.21905 0.46809 0.0
C1209 C 0.46429 0.27567 0.46693 0.0
C1210 C 0.50006 0.29044 0.46674 0.0
C1211 C 0.53235 0.27131 0.46666 0.0
C1212 C 0.50463 0.32562 0.46711 0.0
C1213 C 0.42837 0.29455 0.46932 0.0
C1214 C 0.48767 0.3446 0.44378 0.0
C1215 C 0.4912 0.37765 0.44471 0.0
C1216 C 0.51238 0.39248 0.46864 0.0
C1217 C 0.53041 0.37343 0.49137 0.0
C1218 C 0.52652 0.34037 0.49063 0.0
H1219 H 0.40503 0.28001 0.47904 0.0
H1220 H 0.43203 0.31574 0.48464 0.0
H1221 H 0.41997 0.30259 0.4453 0.0
H1222 H 0.47163 0.33387 0.4248 0.0
H1223 H 0.47724 0.39159 0.42665 0.0
H1224 H 0.16477 0.21511 0.75834 0.0
H1225 H 0.09656 0.20742 0.76419 0.0
H1226 H 0.07875 0.3067 0.74449 0.0
H1227 H 0.14635 0.31401 0.73768 0.0
H1228 H 0.04751 0.23423 0.80599 0.0
H1229 H 0.00729 0.26563 0.68332 0.0
H1230 H 0.05543 0.25905 0.69468 0.0
H1231 H 0.03342 0.29682 0.70193 0.0
C1232 C 0.14606 0.23512 0.7552 0.0
C1233 C 0.1605 0.2653 0.74851 0.0
C1234 C 0.10729 0.23079 0.75858 0.0
C1235 C 0.08256 0.25645 0.75452 0.0
C1236 C 0.09716 0.28645 0.7472 0.0
H1237 H 0.84282 0.28647 0.77479 0.0
H1238 H 0.91147 0.29228 0.77725 0.0
C1239 C 0.13576 0.29071 0.74377 0.0
C1240 C 0.04153 0.25218 0.75844 0.0
H1241 H 0.95747 0.26367 0.72123 0.0
C1242 C 0.02784 0.24054 0.78742 0.0
C1243 C 0.01589 0.26021 0.73408 0.0
C1244 C 0.02879 0.27081 0.70166 0.0
C1245 C 0.98913 0.23731 0.79288 0.0
C1246 C 0.96364 0.24603 0.76881 0.0
C1247 C 0.97724 0.25747 0.7398 0.0
C1248 C 0.92266 0.24211 0.77244 0.0
C1249 C 0.97561 0.22456 0.82421 0.0
C1250 C 0.90652 0.21199 0.76921 0.0
C1251 C 0.86756 0.20874 0.76735 0.0
C1252 C 0.84416 0.23544 0.76958 0.0
C1253 C 0.86034 0.26549 0.77376 0.0
C1254 C 0.89937 0.26881 0.77517 0.0
H1255 H 0.99818 0.22445 0.84239 0.0
H1256 H 0.95158 0.23876 0.83316 0.0
H1257 H 0.96578 0.19984 0.82073 0.0
H1258 H 0.92412 0.19122 0.76642 0.0
H1259 H 0.85585 0.18554 0.76256 0.0
H1260 H 0.96732 0.89413 0.92922 0.0
H1261 H 0.96357 0.83623 0.9293 0.0
H1262 H 0.03454 0.83299 0.01212 0.0
H1263 H 0.03953 0.89085 0.01142 0.0
H1264 H 0.05462 0.78854 0.97225 0.0
H1265 H 0.90024 0.78233 0.9859 0.0
H1266 H 0.91364 0.80407 0.95118 0.0
H1267 H 0.9259 0.81896 0.98985 0.0
C1268 C 0.98223 0.88107 0.94739 0.0
C1269 C 0.0036 0.89711 0.9704 0.0
C1270 C 0.97975 0.84794 0.9476 0.0
C1271 C 0.99793 0.83014 0.97122 0.0
C1272 C 0.01999 0.84612 0.99378 0.0
H1273 H 0.94883 0.63158 0.01384 0.0
H1274 H 0.95181 0.68962 0.01319 0.0
C1275 C 0.02288 0.87923 0.99333 0.0
C1276 C 0.99461 0.79488 0.9721 0.0
H1277 H 0.93128 0.73394 0.97275 0.0
C1278 C 0.02762 0.77665 0.97252 0.0
C1279 C 0.95941 0.7792 0.97311 0.0
C1280 C 0.92282 0.79715 0.97534 0.0
C1281 C 0.02648 0.74334 0.97336 0.0
C1282 C 0.9913 0.72763 0.97261 0.0
C1283 C 0.95827 0.74586 0.9728 0.0
C1284 C 0.98817 0.69236 0.9721 0.0
C1285 C 0.06311 0.72546 0.97588 0.0
C1286 C 0.00665 0.67447 0.94871 0.0
C1287 C 0.00537 0.64132 0.9493 0.0
C1288 C 0.98485 0.62531 0.97286 0.0
C1289 C 0.96487 0.64321 0.99537 0.0
C1290 C 0.96661 0.67641 0.99504 0.0
H1291 H 0.08561 0.74044 0.98633 0.0
H1292 H 0.06002 0.70383 0.99064 0.0
H1293 H 0.07242 0.71828 0.95182 0.0
H1294 H 0.02242 0.68612 0.93011 0.0
H1295 H 0.02074 0.62823 0.9314 0.0
H1296 H 0.14723 0.37325 0.21692 0.0
H1297 H 0.1231 0.42773 0.22023 0.0
H1298 H 0.20255 0.44769 0.29503 0.0
H1299 H 0.2235 0.39275 0.29382 0.0
H1300 H 0.14662 0.48168 0.30505 0.0
H1301 H 0.17732 0.49459 0.17641 0.0
H1302 H 0.13995 0.46752 0.18493 0.0
H1303 H 0.1872 0.45855 0.19749 0.0
C1304 C 0.15833 0.38914 0.23479 0.0
C1305 C 0.18692 0.37901 0.25529 0.0
C1306 C 0.14512 0.42042 0.2363 0.0
C1307 C 0.162 0.44244 0.25698 0.0
C1308 C 0.18899 0.43148 0.27873 0.0
H1309 H 0.23534 0.62639 0.2259 0.0
H1310 H 0.21453 0.57151 0.22426 0.0
C1311 C 0.20099 0.4 0.27812 0.0
C1312 C 0.15462 0.47722 0.25465 0.0
H1313 H 0.16026 0.54015 0.20387 0.0
C1314 C 0.1495 0.49447 0.28287 0.0
C1315 C 0.15814 0.49408 0.22567 0.0
C1316 C 0.16628 0.47782 0.19447 0.0
C1317 C 0.15125 0.52777 0.28345 0.0
C1318 C 0.15567 0.54456 0.25455 0.0
C1319 C 0.15712 0.52736 0.22603 0.0
C1320 C 0.1651 0.57904 0.25346 0.0
C1321 C 0.15137 0.54417 0.31529 0.0
C1322 C 0.14391 0.60217 0.26967 0.0
C1323 C 0.15674 0.6336 0.27148 0.0
C1324 C 0.18991 0.64247 0.25589 0.0
C1325 C 0.20948 0.62001 0.23787 0.0
C1326 C 0.19748 0.58862 0.23693 0.0
H1327 H 0.15648 0.52732 0.33508 0.0
H1328 H 0.17332 0.56282 0.31624 0.0
H1329 H 0.12362 0.5554 0.31939 0.0
H1330 H 0.11815 0.59581 0.28168 0.0
H1331 H 0.14137 0.65069 0.2856 0.0
H1332 H 0.71751 0.12033 0.72014 0.0
H1333 H 0.69543 0.0658 0.72039 0.0
H1334 H 0.62756 0.0857 0.80303 0.0
H1335 H 0.653 0.13969 0.80442 0.0
H1336 H 0.65993 0.03722 0.81525 0.0
H1337 H 0.6111 0.01477 0.6945 0.0
H1338 H 0.65751 0.03035 0.69057 0.0
H1339 H 0.62082 0.05453 0.70786 0.0
C1340 C 0.69686 0.11329 0.73766 0.0
C1341 C 0.68649 0.13417 0.76199 0.0
C1342 C 0.6839 0.08204 0.73771 0.0
C1343 C 0.659 0.07133 0.76133 0.0
C1344 C 0.64667 0.09309 0.78446 0.0
H1345 H 0.64016 0.86429 0.73866 0.0
H1346 H 0.61677 0.91909 0.74305 0.0
C1347 C 0.66087 0.12405 0.78514 0.0
C1348 C 0.65081 0.0367 0.76456 0.0
H1349 H 0.64223 0.96906 0.72073 0.0
C1350 C 0.65493 0.02254 0.79457 0.0
C1351 C 0.64288 0.01697 0.73817 0.0
C1352 C 0.63236 0.03015 0.70613 0.0
C1353 C 0.65476 0.98949 0.79832 0.0
C1354 C 0.65279 0.96982 0.77114 0.0
C1355 C 0.64507 0.98387 0.74161 0.0
C1356 C 0.66302 0.93552 0.77222 0.0
C1357 C 0.65725 0.97624 0.8315 0.0
C1358 C 0.69637 0.92618 0.78741 0.0
C1359 C 0.70878 0.8949 0.78582 0.0
C1360 C 0.68888 0.87239 0.76813 0.0
C1361 C 0.65543 0.88125 0.753 0.0
C1362 C 0.64235 0.91257 0.75531 0.0
H1363 H 0.64137 0.9914 0.84838 0.0
H1364 H 0.64602 0.95173 0.83295 0.0
H1365 H 0.687 0.97628 0.83934 0.0
H1366 H 0.71396 0.94337 0.79933 0.0
H1367 H 0.73521 0.88867 0.79694 0.0
H1368 H 0.39896 0.50489 0.07611 0.0
H1369 H 0.33063 0.50007 0.07187 0.0
H1370 H 0.34104 0.48357 0.97136 0.0
H1371 H 0.4098 0.48702 0.9758 0.0
H1372 H 0.29536 0.5428 1.00231 0.0
H1373 H 0.25681 0.41981 0.03698 0.0
H1374 H 0.28871 0.44107 0.0624 0.0
H1375 H 0.3033 0.43016 0.0231 0.0
C1376 C 0.38677 0.49867 0.05343 0.0
C1377 C 0.40955 0.49515 0.02647 0.0
C1378 C 0.34778 0.49626 0.05098 0.0
C1379 C 0.33101 0.49115 0.02138 0.0
C1380 C 0.35367 0.48706 0.99447 0.0
H1381 H 0.10594 0.5267 0.95325 0.0
H1382 H 0.17369 0.51993 0.95944 0.0
C1383 C 0.39276 0.48907 0.997 0.0
C1384 C 0.28998 0.4945 0.01799 0.0
H1385 H 0.20678 0.45605 0.02904 0.0
C1386 C 0.27589 0.52382 0.00792 0.0
C1387 C 0.26495 0.46984 0.02592 0.0
C1388 C 0.27905 0.43828 0.03754 0.0
C1389 C 0.23715 0.52926 1.00573 0.0
C1390 C 0.21194 0.50434 0.01298 0.0
C1391 C 0.22613 0.47503 0.02328 0.0
C1392 C 0.17082 0.50806 0.00934 0.0
C1393 C 0.22368 0.56192 0.9965 0.0
C1394 C 0.14658 0.50288 0.03516 0.0
C1395 C 0.10772 0.5062 0.03145 0.0
C1396 C 0.09273 0.51397 1.00172 0.0
C1397 C 0.11697 0.51977 0.97617 0.0
C1398 C 0.15565 0.51638 0.97981 0.0
H1399 H 0.24521 0.58029 1.00164 0.0
H1400 H 0.21804 0.56243 0.97063 0.0
H1401 H 0.19741 0.5683 0.00919 0.0
H1402 H 0.15776 0.49648 0.05816 0.0
H1403 H 0.08939 0.50223 0.05156 0.0
H1404 H 0.79554 0.12769 0.20627 0.0
H1405 H 0.81604 0.07285 0.2119 0.0
H1406 H 0.84807 0.09099 0.30878 0.0
H1407 H 0.82712 0.14605 0.3036 0.0
H1408 H 0.88341 0.03949 0.23281 0.0
H1409 H 0.7607 0.02574 0.31366 0.0
H1410 H 0.76681 0.06016 0.28884 0.0
H1411 H 0.79433 0.0557 0.32423 0.0
C1412 C 0.80769 0.12033 0.22863 0.0
C1413 C 0.80904 0.14123 0.25467 0.0
C1414 C 0.81956 0.08893 0.23173 0.0
C1415 C 0.83296 0.07774 0.26089 0.0
C1416 C 0.83737 0.09912 0.28616 0.0
H1417 H 0.82252 0.8817 0.32171 0.0
H1418 H 0.84304 0.93689 0.31977 0.0
C1419 C 0.82552 0.13064 0.2831 0.0
C1420 C 0.83736 0.04313 0.26573 0.0
H1421 H 0.79471 0.98011 0.30131 0.0
C1422 C 0.86441 0.02645 0.24811 0.0
C1423 C 0.81233 0.0262 0.28551 0.0
C1424 C 0.78168 0.04269 0.30401 0.0
C1425 C 0.86685 0.99317 0.24958 0.0
C1426 C 0.84106 0.97619 0.26867 0.0
C1427 C 0.81471 0.99306 0.28686 0.0
C1428 C 0.8385 0.94099 0.26876 0.0
C1429 C 0.89694 0.97657 0.23066 0.0
C1430 C 0.83087 0.92435 0.24058 0.0
C1431 C 0.81972 0.89251 0.24161 0.0
C1432 C 0.81526 0.87705 0.27089 0.0
C1433 C 0.82563 0.89303 0.29881 0.0
C1434 C 0.83729 0.92461 0.29773 0.0
H1435 H 0.9215 0.99232 0.22666 0.0
H1436 H 0.90665 0.95466 0.24272 0.0
H1437 H 0.88546 0.96999 0.20711 0.0
H1438 H 0.83073 0.93654 0.21799 0.0
H1439 H 0.81142 0.88096 0.21976 0.0
H1440 H 0.89244 1.00501 0.94163 0.0
H1441 H 0.82424 0.00992 0.94543 0.0
H1442 H 0.83379 0.02561 0.04626 0.0
H1443 H 0.9025 0.02244 0.04202 0.0
H1444 H 0.77944 0.97138 0.97751 0.0
H1445 H 0.75941 0.09358 0.02297 0.0
H1446 H 0.80347 0.07987 1.00695 0.0
H1447 H 0.79052 0.0703 0.04703 0.0
C1448 C 0.88 0.01077 0.96436 0.0
C1449 C 0.9026 0.0147 0.99132 0.0
C1450 C 0.84104 0.01315 0.9666 0.0
C1451 C 0.82385 0.01872 0.99602 0.0
C1452 C 0.84643 0.02231 0.02314 0.0
H1453 H 0.5988 0.99436 0.06567 0.0
H1454 H 0.66662 1.00125 0.05825 0.0
C1455 C 0.88558 0.02027 0.02079 0.0
C1456 C 0.7823 0.01791 0.99856 0.0
H1457 H 0.70599 0.05953 0.02441 0.0
C1458 C 0.7634 0.9908 0.98755 0.0
C1459 C 0.76132 0.04322 0.01169 0.0
C1460 C 0.77965 0.07353 0.02259 0.0
C1461 C 0.72425 0.98809 0.98992 0.0
C1462 C 0.70353 0.01315 1.00353 0.0
C1463 C 0.72218 0.04036 0.01421 0.0
C1464 C 0.66254 0.01086 0.008 0.0
C1465 C 0.70521 0.95825 0.97851 0.0
C1466 C 0.63803 0.01422 0.98217 0.0
C1467 C 0.5993 0.01073 0.98648 0.0
C1468 C 0.58475 1.00435 0.01674 0.0
C1469 C 0.6094 1.00056 0.0424 0.0
C1470 C 0.64801 1.00421 0.03815 0.0
H1471 H 0.72569 0.93969 0.97138 0.0
H1472 H 0.68677 0.94856 0.99742 0.0
H1473 H 0.68719 0.96389 0.95779 0.0
H1474 H 0.64892 0.01922 0.95871 0.0
H1475 H 0.58072 0.01304 0.96628 0.0
H1476 H 0.30455 0.62736 0.70128 0.0
H1477 H 0.3235 0.57216 0.70733 0.0
H1478 H 0.3439 0.58776 0.80686 0.0
H1479 H 0.32445 0.64318 0.8012 0.0
H1480 H 0.38673 0.53646 0.73371 0.0
H1481 H 0.25352 0.52514 0.80213 0.0
H1482 H 0.26421 0.5597 0.77864 0.0
H1483 H 0.28669 0.55396 0.81632 0.0
C1484 C 0.31399 0.61938 0.72435 0.0
C1485 C 0.31231 0.63961 0.75089 0.0
C1486 C 0.32497 0.58778 0.72771 0.0
C1487 C 0.33442 0.57576 0.75763 0.0
C1488 C 0.33625 0.59655 0.78361 0.0
H1489 H 0.31033 0.37897 0.81376 0.0
H1490 H 0.33124 0.43407 0.81441 0.0
C1491 C 0.32532 0.62828 0.78028 0.0
C1492 C 0.33678 0.54096 0.76214 0.0
H1493 H 0.28705 0.4787 0.79208 0.0
C1494 C 0.36529 0.52376 0.74683 0.0
C1495 C 0.30854 0.52448 0.77901 0.0
C1496 C 0.27629 0.5416 0.79481 0.0
C1497 C 0.36614 0.4904 0.74782 0.0
C1498 C 0.33727 0.47391 0.76399 0.0
C1499 C 0.30935 0.49127 0.77988 0.0
C1500 C 0.3335 0.43879 0.76334 0.0
C1501 C 0.39789 0.47321 0.73156 0.0
C1502 C 0.32929 0.42257 0.73442 0.0
C1503 C 0.31784 0.39079 0.734 0.0
C1504 C 0.30967 0.37493 0.76249 0.0
C1505 C 0.31626 0.39059 0.7914 0.0
C1506 C 0.32819 0.42212 0.79181 0.0
H1507 H 0.42338 0.48832 0.73004 0.0
H1508 H 0.40518 0.45093 0.74415 0.0
H1509 H 0.38929 0.46715 0.707 0.0
H1510 H 0.33233 0.43501 0.71211 0.0
H1511 H 0.31258 0.37949 0.71135 0.0
H1512 H 0.0957 0.51136 0.46637 0.0
H1513 H 0.16406 0.51499 0.4583 0.0
H1514 H 0.18164 0.49594 0.55776 0.0
H1515 H 0.11385 0.49128 0.56546 0.0
H1516 H 0.21472 0.55578 0.48487 0.0
H1517 H 0.25088 0.43228 0.51751 0.0
H1518 H 0.20332 0.44457 0.50934 0.0
H1519 H 0.22399 0.45193 0.5476 0.0
C1520 C 0.11439 0.50789 0.48633 0.0
C1521 C 0.09987 0.50201 0.51667 0.0
C1522 C 0.15324 0.50997 0.48178 0.0
C1523 C 0.17793 0.50541 0.50738 0.0
C1524 C 0.16322 0.49894 0.53755 0.0
H1525 H 0.41715 0.52065 0.53912 0.0
H1526 H 0.34849 0.52449 0.54381 0.0
C1527 C 0.12454 0.49679 0.54204 0.0
C1528 C 0.21903 0.50815 0.50292 0.0
H1529 H 0.30172 0.46888 0.51458 0.0
C1530 C 0.23373 0.53673 0.4912 0.0
C1531 C 0.24378 0.48315 0.51098 0.0
C1532 C 0.22969 0.45115 0.52174 0.0
C1533 C 0.27261 0.54121 0.48804 0.0
C1534 C 0.29722 0.51655 0.49687 0.0
C1535 C 0.28261 0.48789 0.50827 0.0
C1536 C 0.33834 0.51934 0.4935 0.0
C1537 C 0.28724 0.57216 0.47528 0.0
C1538 C 0.35506 0.5155 0.46366 0.0
C1539 C 0.39403 0.51289 0.46105 0.0
C1540 C 0.41684 0.51494 0.48812 0.0
C1541 C 0.4001 0.51973 0.51787 0.0
C1542 C 0.36106 0.52193 0.52054 0.0
H1543 H 0.2652 0.59079 0.47474 0.0
H1544 H 0.31121 0.58068 0.48979 0.0
H1545 H 0.29749 0.5683 0.45073 0.0
H1546 H 0.33786 0.51285 0.44263 0.0
H1547 H 0.40618 0.50771 0.43808 0.0
H1548 H 0.70456 0.75116 0.88836 0.0
H1549 H 0.70825 0.75438 0.94624 0.0
H1550 H 0.77794 0.83768 0.93855 0.0
H1551 H 0.77549 0.83385 0.88075 0.0
H1552 H 0.80658 0.79883 0.98042 0.0
H1553 H 0.65506 0.81141 1.00693 0.0
H1554 H 0.6649 0.77622 0.98461 0.0
H1555 H 0.67343 0.81453 0.96718 0.0
C1556 C 0.72037 0.77033 0.89902 0.0
C1557 C 0.73964 0.79229 0.87994 0.0
C1558 C 0.72227 0.77228 0.93217 0.0
C1559 C 0.74284 0.79662 0.94694 0.0
C1560 C 0.7618 0.81872 0.92783 0.0
H1561 H 0.72498 0.83984 0.14891 0.0
H1562 H 0.72265 0.84118 0.09094 0.0
C1563 C 0.76031 0.81655 0.89474 0.0
C1564 C 0.7461 0.79831 0.98219 0.0
H1565 H 0.69503 0.79986 0.05082 0.0
C1566 C 0.78214 0.79928 0.99578 0.0
C1567 C 0.7143 0.79937 1.00238 0.0
C1568 C 0.67477 0.80067 0.98953 0.0
C1569 C 0.78728 0.8008 0.02881 0.0
C1570 C 0.7555 0.80035 0.04904 0.0
C1571 C 0.71946 0.79988 0.03544 0.0
C1572 C 0.75881 0.80044 0.08433 0.0
C1573 C 0.82677 0.80356 0.04151 0.0
C1574 C 0.77997 0.77716 0.10014 0.0
C1575 C 0.7818 0.77666 0.13333 0.0
C1576 C 0.76189 0.79903 0.15147 0.0
C1577 C 0.74071 0.82229 0.13565 0.0
C1578 C 0.73927 0.82303 0.10247 0.0
H1579 H 0.84607 0.81397 0.0236 0.0
H1580 H 0.82773 0.81842 0.06323 0.0
H1581 H 0.83744 0.77957 0.04744 0.0
H1582 H 0.79445 0.7589 0.08687 0.0
H1583 H 0.798 0.75818 0.14477 0.0
H1584 H 0.61437 0.5441 0.39558 0.0
H1585 H 0.63719 0.5423 0.34062 0.0
H1586 H 0.55975 0.46598 0.32082 0.0
H1587 H 0.54034 0.46565 0.37616 0.0
H1588 H 0.61408 0.45817 0.28508 0.0
H1589 H 0.57991 0.58639 0.27606 0.0
H1590 H 0.61842 0.5781 0.30201 0.0
H1591 H 0.57186 0.56433 0.31183 0.0
C1592 C 0.60356 0.52616 0.37962 0.0
C1593 C 0.57593 0.50482 0.38994 0.0
C1594 C 0.61595 0.52555 0.34805 0.0
C1595 C 0.59909 0.50496 0.32595 0.0
C1596 C 0.57326 0.48228 0.33707 0.0
H1597 H 0.52081 0.53948 0.14331 0.0
H1598 H 0.54316 0.5411 0.19778 0.0
C1599 C 0.56218 0.48197 0.36881 0.0
C1600 C 0.60519 0.50829 0.29102 0.0
H1601 H 0.59687 0.56054 0.2295 0.0
C1602 C 0.61035 0.4806 0.27293 0.0
C1603 C 0.60051 0.5376 0.27495 0.0
C1604 C 0.59204 0.56822 0.29214 0.0
C1605 C 0.6076 0.48083 0.23967 0.0
C1606 C 0.60232 0.51008 0.22365 0.0
C1607 C 0.60071 0.53811 0.24164 0.0
C1608 C 0.59237 0.51192 0.18927 0.0
C1609 C 0.60739 0.44936 0.22257 0.0
C1610 C 0.61306 0.496 0.16562 0.0
C1611 C 0.59932 0.49414 0.13447 0.0
C1612 C 0.56582 0.50959 0.12628 0.0
C1613 C 0.547 0.52772 0.14911 0.0
C1614 C 0.55984 0.5286 0.1803 0.0
H1615 H 0.60258 0.42921 0.23904 0.0
H1616 H 0.58517 0.4487 0.20413 0.0
H1617 H 0.63501 0.44557 0.211 0.0
H1618 H 0.639 0.48399 0.17142 0.0
H1619 H 0.61408 0.47985 0.11714 0.0
H1620 H 0.81717 0.24772 0.38259 0.0
H1621 H 0.81725 0.24431 0.44065 0.0
H1622 H 0.71769 0.1862 0.43742 0.0
H1623 H 0.71786 0.18897 0.37961 0.0
H1624 H 0.76518 0.26491 0.48205 0.0
H1625 H 0.7835 0.13578 0.49677 0.0
H1626 H 0.78923 0.15511 0.45896 0.0
H1627 H 0.74308 0.14458 0.47298 0.0
C1628 C 0.79559 0.23389 0.39424 0.0
C1629 C 0.76763 0.2185 0.37642 0.0
C1630 C 0.7956 0.23202 0.42744 0.0
C1631 C 0.76777 0.21462 0.44349 0.0
C1632 C 0.73997 0.19914 0.42567 0.0
H1633 H 0.69889 0.24217 0.64001 0.0
H1634 H 0.70412 0.24163 0.5821 0.0
C1635 C 0.74 0.20091 0.39254 0.0
C1636 C 0.76659 0.21398 0.47882 0.0
H1637 H 0.76184 0.16419 0.54265 0.0
C1638 C 0.76474 0.24288 0.4953 0.0
C1639 C 0.76654 0.18528 0.49625 0.0
C1640 C 0.77109 0.15347 0.48032 0.0
C1641 C 0.76197 0.24387 0.52856 0.0
C1642 C 0.75996 0.21514 0.54588 0.0
C1643 C 0.76275 0.18625 0.52944 0.0
C1644 C 0.75577 0.21454 0.58107 0.0
C1645 C 0.76192 0.27577 0.54479 0.0
C1646 C 0.78213 0.1984 0.59985 0.0
C1647 C 0.77884 0.19824 0.63293 0.0
C1648 C 0.74912 0.21426 0.64801 0.0
C1649 C 0.72228 0.22983 0.62917 0.0
C1650 C 0.72542 0.22975 0.59604 0.0
H1651 H 0.77477 0.29436 0.52959 0.0
H1652 H 0.73252 0.28294 0.54974 0.0
H1653 H 0.77743 0.2749 0.56761 0.0
H1654 H 0.80567 0.18632 0.58892 0.0
H1655 H 0.80001 0.18599 0.64671 0.0
H1656 H 0.94666 0.46823 0.63108 0.0
H1657 H 0.92668 0.46887 0.68652 0.0
H1658 H 0.93249 0.57103 0.68705 0.0
H1659 H 0.95373 0.57044 0.63199 0.0
H1660 H 0.97437 0.54715 0.732 0.0
H1661 H 0.83583 0.4885 0.73898 0.0
H1662 H 0.86942 0.46465 0.71812 0.0
H1663 H 0.85535 0.50235 0.70196 0.0
C1664 C 0.94246 0.49087 0.64268 0.0
C1665 C 0.95199 0.51928 0.62721 0.0
C1666 C 0.93085 0.49123 0.67443 0.0
C1667 C 0.92779 0.52002 0.69104 0.0
C1668 C 0.93462 0.54851 0.6748 0.0
H1669 H 0.93112 0.55564 0.89602 0.0
H1670 H 0.9136 0.56172 0.84017 0.0
C1671 C 0.94674 0.54815 0.6433 0.0
C1672 C 0.92338 0.52029 0.72614 0.0
H1673 H 0.87178 0.4903 0.78765 0.0
C1674 C 0.95144 0.5353 0.7441 0.0
C1675 C 0.89368 0.50459 0.74204 0.0
C1676 C 0.86168 0.48939 0.72424 0.0
C1677 C 0.95152 0.534 0.77731 0.0
C1678 C 0.92249 0.51752 0.79317 0.0
C1679 C 0.89388 0.50308 0.7754 0.0
C1680 C 0.92394 0.51268 0.82797 0.0
C1681 C 0.98374 0.54898 0.79516 0.0
C1682 C 0.93344 0.48274 0.83989 0.0
C1683 C 0.94343 0.47916 0.87171 0.0
C1684 C 0.94398 0.50548 0.89227 0.0
C1685 C 0.93102 0.53487 0.8809 0.0
C1686 C 0.92117 0.53844 0.84894 0.0
H1687 H 0.00687 0.55646 0.77912 0.0
H1688 H 0.97347 0.57024 0.80801 0.0
H1689 H 0.99527 0.5322 0.81295 0.0
H1690 H 0.93567 0.46255 0.8241 0.0
H1691 H 0.95293 0.45611 0.87971 0.0
H1692 H 0.90448 1.00671 0.46357 0.0
H1693 H 0.83608 1.00383 0.45566 0.0
H1694 H 0.81903 0.02121 0.55552 0.0
H1695 H 0.88689 0.02525 0.56306 0.0
H1696 H 0.78584 0.96296 0.48098 0.0
H1697 H 0.74922 0.08526 0.51749 0.0
H1698 H 0.79692 0.07324 0.50944 0.0
H1699 H 0.77564 0.06471 0.54723 0.0
C1700 C 0.8859 0.01 0.48366 0.0
C1701 C 0.90058 0.0152 0.51405 0.0
C1702 C 0.84702 0.00836 0.47919 0.0
C1703 C 0.82245 0.01264 0.50496 0.0
C1704 C 0.83733 0.01847 0.53519 0.0
H1705 H 0.58222 0.99762 0.5345 0.0
H1706 H 0.65082 0.99481 0.54031 0.0
C1707 C 0.87605 0.02023 0.53959 0.0
C1708 C 0.78132 0.00998 0.50057 0.0
H1709 H 0.69843 0.04867 0.51331 0.0
C1710 C 0.76675 0.98177 0.48788 0.0
C1711 C 0.75644 0.03463 0.50946 0.0
C1712 C 0.77036 0.06627 0.52135 0.0
C1713 C 0.72793 0.97733 0.48443 0.0
C1714 C 0.70315 1.00166 0.49393 0.0
C1715 C 0.71762 0.02991 0.50644 0.0
C1716 C 0.66205 0.99893 0.49006 0.0
C1717 C 0.71358 0.94673 0.47069 0.0
C1718 C 0.64591 1.00195 0.4599 0.0
C1719 C 0.60695 1.00396 0.45665 0.0
C1720 C 0.58356 1.00212 0.4834 0.0
C1721 C 0.59973 0.99836 0.5135 0.0
C1722 C 0.63875 0.99677 0.51681 0.0
H1723 H 0.73557 0.92805 0.47014 0.0
H1724 H 0.68923 0.93794 0.48456 0.0
H1725 H 0.70409 0.95115 0.44603 0.0
H1726 H 0.66351 1.00429 0.43907 0.0
H1727 H 0.59521 0.00839 0.43338 0.0
loop_
_geom_bond_atom_site_label_1
_geom_bond_atom_site_label_2
_geom_bond_distance
_geom_bond_site_symmetry_2
_ccdc_geom_bond_type
Mn0 O5 2.095 . S
Mn0 O15 2.162 . S
Mn0 O16 2.297 . S
Mn0 O24 2.385 . S
Mn0 O25 2.209 . S
Mn0 O26 2.094 . S
Mn1 O6 2.121 . S
Mn1 N8 2.257 . S
Mn1 N17 2.282 . S
Mn1 O25 2.215 . S
Mn1 O27 2.117 . S
C2 O24 1.234 . S
C2 O25 1.283 . S
C3 O15 1.281 . S
C3 O16 1.236 . S
C4 O26 1.240 . S
C4 O27 1.264 . S
O5 Mn0 2.095 . S
O5 C14 1.250 . S
O6 Mn1 2.121 . S
O6 C14 1.258 . S
C7 N8 1.326 . S
C7 C11 1.460 . S
C7 H13 0.929 . S
N8 Mn1 2.257 . S
N8 C7 1.326 . S
N8 C12 1.362 . S
C9 C10 1.258 . S
C9 C12 1.431 . S
C9 C29 1.449 . S
C10 C9 1.258 . S
C10 C11 1.477 . S
C10 H30 0.931 . S
C11 C7 1.460 . S
C11 C10 1.477 . S
C11 H31 0.930 . S
C12 N8 1.362 . S
C12 C9 1.431 . S
C12 C22 1.476 . S
H13 C7 0.929 . S
C14 O5 1.250 . S
C14 O6 1.258 . S
O15 Mn0 2.162 . S
O15 C3 1.281 . S
O16 Mn0 2.297 . S
O16 C3 1.236 . S
N17 Mn1 2.282 . S
N17 C18 1.328 . S
N17 C22 1.318 . S
C18 N17 1.328 . S
C18 C19 1.457 . S
C18 H23 0.929 . S
C19 C18 1.457 . S
C19 C20 1.291 . S
C19 H32 0.931 . S
C20 C19 1.291 . S
C20 C21 1.373 . S
C20 H33 0.929 . S
C21 C20 1.373 . S
C21 C22 1.396 . S
C21 C28 1.403 . S
C22 C12 1.476 . S
C22 N17 1.318 . S
C22 C21 1.396 . S
H23 C18 0.929 . S
O24 Mn0 2.385 . S
O24 C2 1.234 . S
O25 Mn0 2.209 . S
O25 Mn1 2.215 . S
O25 C2 1.283 . S
O26 Mn0 2.094 . S
O26 C4 1.240 . S
O27 Mn1 2.117 . S
O27 C4 1.264 . S
C28 C21 1.403 . S
C28 C29 1.399 . S
C28 H34 0.929 . S
C29 C9 1.449 . S
C29 C28 1.399 . S
C29 H35 0.930 . S
H30 C10 0.931 . S
H31 C11 0.930 . S
H32 C19 0.931 . S
H33 C20 0.929 . S
H34 C28 0.929 . S
H35 C29 0.930 . S
Mn36 O41 2.095 . S
Mn36 O51 2.162 . S
Mn36 O52 2.297 1_455 S
Mn36 O60 2.385 1_455 S
Mn36 O61 2.209 1_455 S
Mn36 O62 2.094 . S
Mn37 O42 2.121 . S
Mn37 N44 2.257 . S
Mn37 N53 2.282 . S
Mn37 O61 2.215 1_565 S
Mn37 O63 2.117 1_655 S
C38 O60 1.234 . S
C38 O61 1.283 . S
C39 O51 1.281 . S
C39 O52 1.236 1_455 S
C40 O62 1.240 1_565 S
C40 O63 1.264 . S
O41 Mn36 2.095 . S
O41 C50 1.236 1_545 S
O42 Mn37 2.121 . S
O42 C50 1.279 1_655 S
C43 N44 1.326 . S
C43 C47 1.460 . S
C43 H49 0.929 . S
N44 Mn37 2.257 . S
N44 C43 1.326 . S
N44 C48 1.362 . S
C45 C46 1.258 . S
C45 C48 1.431 . S
C45 C65 1.449 . S
C46 C45 1.258 . S
C46 C47 1.477 . S
C46 H66 0.931 . S
C47 C43 1.460 . S
C47 C46 1.477 . S
C47 H67 0.930 . S
C48 N44 1.362 . S
C48 C45 1.431 . S
C48 C58 1.476 . S
H49 C43 0.929 . S
C50 O41 1.236 1_565 S
C50 O42 1.279 1_455 S
O51 Mn36 2.162 . S
O51 C39 1.281 . S
O52 Mn36 2.297 1_655 S
O52 C39 1.236 1_655 S
N53 Mn37 2.282 . S
N53 C54 1.328 . S
N53 C58 1.318 . S
C54 N53 1.328 . S
C54 C55 1.457 . S
C54 H59 0.929 . S
C55 C54 1.457 . S
C55 C56 1.291 . S
C55 H68 0.931 . S
C56 C55 1.291 . S
C56 C57 1.373 . S
C56 H69 0.929 . S
C57 C56 1.373 . S
C57 C58 1.396 . S
C57 C64 1.403 . S
C58 C48 1.476 . S
C58 N53 1.318 . S
C58 C57 1.396 . S
H59 C54 0.929 . S
O60 Mn36 2.385 1_655 S
O60 C38 1.234 . S
O61 Mn36 2.209 1_655 S
O61 Mn37 2.215 1_545 S
O61 C38 1.283 . S
O62 Mn36 2.094 . S
O62 C40 1.240 1_545 S
O63 Mn37 2.117 1_455 S
O63 C40 1.264 . S
C64 C57 1.403 . S
C64 C65 1.399 . S
C64 H70 0.929 . S
C65 C45 1.449 . S
C65 C64 1.399 . S
C65 H71 0.930 . S
H66 C46 0.931 . S
H67 C47 0.930 . S
H68 C55 0.931 . S
H69 C56 0.929 . S
H70 C64 0.929 . S
H71 C65 0.930 . S
Mn72 O77 2.095 . S
Mn72 O87 2.162 . S
Mn72 O88 2.297 . S
Mn72 O96 2.385 . S
Mn72 O97 2.209 . S
Mn72 O98 2.094 . S
Mn73 O78 2.121 . S
Mn73 N80 2.257 . S
Mn73 N89 2.282 . S
Mn73 O97 2.215 . S
Mn73 O99 2.117 . S
C74 O96 1.234 . S
C74 O97 1.283 . S
C75 O87 1.281 . S
C75 O88 1.236 . S
C76 O98 1.240 . S
C76 O99 1.264 . S
O77 Mn72 2.095 . S
O77 C86 1.250 . S
O78 Mn73 2.121 . S
O78 C86 1.258 . S
C79 N80 1.326 . S
C79 C83 1.460 . S
C79 H85 0.929 . S
N80 Mn73 2.257 . S
N80 C79 1.326 . S
N80 C84 1.362 . S
C81 C82 1.258 . S
C81 C84 1.431 . S
C81 C101 1.449 . S
C82 C81 1.258 . S
C82 C83 1.477 . S
C82 H102 0.931 . S
C83 C79 1.460 . S
C83 C82 1.477 . S
C83 H103 0.930 . S
C84 N80 1.362 . S
C84 C81 1.431 . S
C84 C94 1.476 . S
H85 C79 0.929 . S
C86 O77 1.250 . S
C86 O78 1.258 . S
O87 Mn72 2.162 . S
O87 C75 1.281 . S
O88 Mn72 2.297 . S
O88 C75 1.236 . S
N89 Mn73 2.282 . S
N89 C90 1.328 . S
N89 C94 1.318 . S
C90 N89 1.328 . S
C90 C91 1.457 . S
C90 H95 0.929 . S
C91 C90 1.457 . S
C91 C92 1.291 . S
C91 H104 0.931 . S
C92 C91 1.291 . S
C92 C93 1.373 . S
C92 H105 0.929 . S
C93 C92 1.373 . S
C93 C94 1.396 . S
C93 C100 1.403 . S
C94 C84 1.476 . S
C94 N89 1.318 . S
C94 C93 1.396 . S
H95 C90 0.929 . S
O96 Mn72 2.385 . S
O96 C74 1.234 . S
O97 Mn72 2.209 . S
O97 Mn73 2.215 . S
O97 C74 1.283 . S
O98 Mn72 2.094 . S
O98 C76 1.240 . S
O99 Mn73 2.117 . S
O99 C76 1.264 . S
C100 C93 1.403 . S
C100 C101 1.399 . S
C100 H106 0.929 . S
C101 C81 1.449 . S
C101 C100 1.399 . S
C101 H107 0.930 . S
H102 C82 0.931 . S
H103 C83 0.930 . S
H104 C91 0.931 . S
H105 C92 0.929 . S
H106 C100 0.929 . S
H107 C101 0.930 . S
Mn108 O113 2.095 . S
Mn108 O123 2.162 . S
Mn108 O124 2.297 . S
Mn108 O132 2.385 . S
Mn108 O133 2.209 . S
Mn108 O134 2.094 . S
Mn109 O114 2.121 . S
Mn109 N116 2.257 . S
Mn109 N125 2.282 . S
Mn109 O133 2.215 1_545 S
Mn109 O135 2.117 . S
C110 O132 1.234 . S
C110 O133 1.283 . S
C111 O123 1.281 . S
C111 O124 1.236 . S
C112 O134 1.240 1_545 S
C112 O135 1.264 . S
O113 Mn108 2.095 . S
O113 C122 1.262 . S
O114 Mn109 2.121 . S
O114 C122 1.241 1_545 S
C115 N116 1.326 . S
C115 C119 1.460 . S
C115 H121 0.929 . S
N116 Mn109 2.257 . S
N116 C115 1.326 . S
N116 C120 1.362 . S
C117 C118 1.258 . S
C117 C120 1.431 . S
C117 C137 1.449 . S
C118 C117 1.258 . S
C118 C119 1.477 . S
C118 H138 0.931 . S
C119 C115 1.460 . S
C119 C118 1.477 . S
C119 H139 0.930 . S
C120 N116 1.362 . S
C120 C117 1.431 . S
C120 C130 1.476 . S
H121 C115 0.929 . S
C122 O113 1.262 . S
C122 O114 1.241 1_565 S
O123 Mn108 2.162 . S
O123 C111 1.281 . S
O124 Mn108 2.297 . S
O124 C111 1.236 . S
N125 Mn109 2.282 . S
N125 C126 1.328 1_554 S
N125 C130 1.318 . S
C126 N125 1.328 1_556 S
C126 C127 1.457 . S
C126 H131 0.929 . S
C127 C126 1.457 . S
C127 C128 1.291 . S
C127 H140 0.931 . S
C128 C127 1.291 . S
C128 C129 1.373 1_556 S
C128 H141 0.929 . S
C129 C128 1.373 1_554 S
C129 C130 1.396 . S
C129 C136 1.403 . S
C130 C120 1.476 . S
C130 N125 1.318 . S
C130 C129 1.396 . S
H131 C126 0.929 . S
O132 Mn108 2.385 . S
O132 C110 1.234 . S
O133 Mn108 2.209 . S
O133 Mn109 2.215 1_565 S
O133 C110 1.283 . S
O134 Mn108 2.094 . S
O134 C112 1.240 1_565 S
O135 Mn109 2.117 . S
O135 C112 1.264 . S
C136 C129 1.403 . S
C136 C137 1.399 . S
C136 H142 0.929 . S
C137 C117 1.449 . S
C137 C136 1.399 . S
C137 H143 0.930 . S
H138 C118 0.931 . S
H139 C119 0.930 . S
H140 C127 0.931 . S
H141 C128 0.929 . S
H142 C136 0.929 . S
H143 C137 0.930 . S
Mn144 O149 2.095 . S
Mn144 O159 2.162 . S
Mn144 O160 2.297 . S
Mn144 O168 2.385 . S
Mn144 O169 2.209 . S
Mn144 O170 2.094 . S
Mn145 O150 2.121 . S
Mn145 N152 2.257 . S
Mn145 N161 2.282 . S
Mn145 O169 2.215 . S
Mn145 O171 2.117 . S
C146 O168 1.234 . S
C146 O169 1.283 . S
C147 O159 1.281 . S
C147 O160 1.236 . S
C148 O170 1.240 . S
C148 O171 1.264 . S
O149 Mn144 2.095 . S
O149 C158 1.250 . S
O150 Mn145 2.121 . S
O150 C158 1.258 . S
C151 N152 1.326 . S
C151 C155 1.460 . S
C151 H157 0.929 . S
N152 Mn145 2.257 . S
N152 C151 1.326 . S
N152 C156 1.362 . S
C153 C154 1.258 . S
C153 C156 1.431 . S
C153 C173 1.449 . S
C154 C153 1.258 . S
C154 C155 1.477 . S
C154 H174 0.931 . S
C155 C151 1.460 . S
C155 C154 1.477 . S
C155 H175 0.930 . S
C156 N152 1.362 . S
C156 C153 1.431 . S
C156 C166 1.476 . S
H157 C151 0.929 . S
C158 O149 1.250 . S
C158 O150 1.258 . S
O159 Mn144 2.162 . S
O159 C147 1.281 . S
O160 Mn144 2.297 . S
O160 C147 1.236 . S
N161 Mn145 2.282 . S
N161 C162 1.328 . S
N161 C166 1.318 . S
C162 N161 1.328 . S
C162 C163 1.457 . S
C162 H167 0.929 . S
C163 C162 1.457 . S
C163 C164 1.291 . S
C163 H176 0.931 . S
C164 C163 1.291 . S
C164 C165 1.373 . S
C164 H177 0.929 . S
C165 C164 1.373 . S
C165 C166 1.396 . S
C165 C172 1.403 . S
C166 C156 1.476 . S
C166 N161 1.318 . S
C166 C165 1.396 . S
H167 C162 0.929 . S
O168 Mn144 2.385 . S
O168 C146 1.234 . S
O169 Mn144 2.209 . S
O169 Mn145 2.215 . S
O169 C146 1.283 . S
O170 Mn144 2.094 . S
O170 C148 1.240 . S
O171 Mn145 2.117 . S
O171 C148 1.264 . S
C172 C165 1.403 . S
C172 C173 1.399 . S
C172 H178 0.929 . S
C173 C153 1.449 . S
C173 C172 1.399 . S
C173 H179 0.930 . S
H174 C154 0.931 . S
H175 C155 0.930 . S
H176 C163 0.931 . S
H177 C164 0.929 . S
H178 C172 0.929 . S
H179 C173 0.930 . S
Mn180 O185 2.095 . S
Mn180 O195 2.162 . S
Mn180 O196 2.297 . S
Mn180 O204 2.385 . S
Mn180 O205 2.209 . S
Mn180 O206 2.094 . S
Mn181 O186 2.121 . S
Mn181 N188 2.257 . S
Mn181 N197 2.282 . S
Mn181 O205 2.215 1_565 S
Mn181 O207 2.117 . S
C182 O204 1.234 . S
C182 O205 1.283 . S
C183 O195 1.281 . S
C183 O196 1.236 . S
C184 O206 1.240 1_565 S
C184 O207 1.264 . S
O185 Mn180 2.095 . S
O185 C194 1.262 . S
O186 Mn181 2.121 . S
O186 C194 1.241 1_565 S
C187 N188 1.326 . S
C187 C191 1.460 . S
C187 H193 0.929 . S
N188 Mn181 2.257 . S
N188 C187 1.326 . S
N188 C192 1.362 . S
C189 C190 1.258 . S
C189 C192 1.431 . S
C189 C209 1.449 . S
C190 C189 1.258 . S
C190 C191 1.477 . S
C190 H210 0.931 . S
C191 C187 1.460 . S
C191 C190 1.477 . S
C191 H211 0.930 . S
C192 N188 1.362 . S
C192 C189 1.431 . S
C192 C202 1.476 . S
H193 C187 0.929 . S
C194 O185 1.262 . S
C194 O186 1.241 1_545 S
O195 Mn180 2.162 . S
O195 C183 1.281 . S
O196 Mn180 2.297 . S
O196 C183 1.236 . S
N197 Mn181 2.282 . S
N197 C198 1.328 . S
N197 C202 1.318 . S
C198 N197 1.328 . S
C198 C199 1.457 . S
C198 H203 0.929 . S
C199 C198 1.457 . S
C199 C200 1.291 . S
C199 H212 0.931 . S
C200 C199 1.291 . S
C200 C201 1.373 . S
C200 H213 0.929 . S
C201 C200 1.373 . S
C201 C202 1.396 . S
C201 C208 1.403 . S
C202 C192 1.476 . S
C202 N197 1.318 . S
C202 C201 1.396 . S
H203 C198 0.929 . S
O204 Mn180 2.385 . S
O204 C182 1.234 . S
O205 Mn180 2.209 . S
O205 Mn181 2.215 1_545 S
O205 C182 1.283 . S
O206 Mn180 2.094 . S
O206 C184 1.240 1_545 S
O207 Mn181 2.117 . S
O207 C184 1.264 . S
C208 C201 1.403 . S
C208 C209 1.399 . S
C208 H214 0.929 . S
C209 C189 1.449 . S
C209 C208 1.399 . S
C209 H215 0.930 . S
H210 C190 0.931 . S
H211 C191 0.930 . S
H212 C199 0.931 . S
H213 C200 0.929 . S
H214 C208 0.929 . S
H215 C209 0.930 . S
Mn216 O221 2.095 . S
Mn216 O231 2.162 . S
Mn216 O232 2.297 . S
Mn216 O240 2.385 . S
Mn216 O241 2.209 . S
Mn216 O242 2.094 . S
Mn217 O222 2.121 . S
Mn217 N224 2.257 . S
Mn217 N233 2.282 . S
Mn217 O241 2.215 . S
Mn217 O243 2.117 . S
C218 O240 1.234 . S
C218 O241 1.283 . S
C219 O231 1.281 . S
C219 O232 1.236 . S
C220 O242 1.240 . S
C220 O243 1.264 . S
O221 Mn216 2.095 . S
O221 C230 1.250 . S
O222 Mn217 2.121 . S
O222 C230 1.258 . S
C223 N224 1.326 . S
C223 C227 1.460 . S
C223 H229 0.929 . S
N224 Mn217 2.257 . S
N224 C223 1.326 . S
N224 C228 1.362 . S
C225 C226 1.258 . S
C225 C228 1.431 . S
C225 C245 1.449 . S
C226 C225 1.258 . S
C226 C227 1.477 . S
C226 H246 0.931 . S
C227 C223 1.460 . S
C227 C226 1.477 . S
C227 H247 0.930 . S
C228 N224 1.362 . S
C228 C225 1.431 . S
C228 C238 1.476 . S
H229 C223 0.929 . S
C230 O221 1.250 . S
C230 O222 1.258 . S
O231 Mn216 2.162 . S
O231 C219 1.281 . S
O232 Mn216 2.297 . S
O232 C219 1.236 . S
N233 Mn217 2.282 . S
N233 C234 1.328 . S
N233 C238 1.318 . S
C234 N233 1.328 . S
C234 C235 1.457 . S
C234 H239 0.929 . S
C235 C234 1.457 . S
C235 C236 1.291 . S
C235 H248 0.931 . S
C236 C235 1.291 . S
C236 C237 1.373 . S
C236 H249 0.929 . S
C237 C236 1.373 . S
C237 C238 1.396 . S
C237 C244 1.403 . S
C238 C228 1.476 . S
C238 N233 1.318 . S
C238 C237 1.396 . S
H239 C234 0.929 . S
O240 Mn216 2.385 . S
O240 C218 1.234 . S
O241 Mn216 2.209 . S
O241 Mn217 2.215 . S
O241 C218 1.283 . S
O242 Mn216 2.094 . S
O242 C220 1.240 . S
O243 Mn217 2.117 . S
O243 C220 1.264 . S
C244 C237 1.403 . S
C244 C245 1.399 . S
C244 H250 0.929 . S
C245 C225 1.449 . S
C245 C244 1.399 . S
C245 H251 0.930 . S
H246 C226 0.931 . S
H247 C227 0.930 . S
H248 C235 0.931 . S
H249 C236 0.929 . S
H250 C244 0.929 . S
H251 C245 0.930 . S
Mn252 O257 2.095 . S
Mn252 O267 2.162 . S
Mn252 O268 2.297 1_455 S
Mn252 O276 2.392 1_455 S
Mn252 O277 2.209 1_455 S
Mn252 O278 2.094 . S
Mn253 O258 2.121 . S
Mn253 N260 2.257 . S
Mn253 N269 2.282 . S
Mn253 O277 2.215 1_545 S
Mn253 O279 2.117 1_655 S
C254 O276 1.241 . S
C254 O277 1.283 . S
C255 O267 1.281 . S
C255 O268 1.236 1_455 S
C256 O278 1.240 1_545 S
C256 O279 1.264 . S
O257 Mn252 2.095 . S
O257 C266 1.236 1_565 S
O258 Mn253 2.121 . S
O258 C266 1.279 1_655 S
C259 N260 1.326 . S
C259 C263 1.460 . S
C259 H265 0.929 . S
N260 Mn253 2.257 . S
N260 C259 1.326 . S
N260 C264 1.362 . S
C261 C262 1.258 . S
C261 C264 1.431 . S
C261 C281 1.449 . S
C262 C261 1.258 . S
C262 C263 1.477 . S
C262 H282 0.931 . S
C263 C259 1.460 . S
C263 C262 1.477 . S
C263 H283 0.930 . S
C264 N260 1.362 . S
C264 C261 1.431 . S
C264 C274 1.476 . S
H265 C259 0.929 . S
C266 O257 1.236 1_545 S
C266 O258 1.279 1_455 S
O267 Mn252 2.162 . S
O267 C255 1.281 . S
O268 Mn252 2.297 1_655 S
O268 C255 1.236 1_655 S
N269 Mn253 2.282 . S
N269 C270 1.328 1_556 S
N269 C274 1.318 . S
C270 N269 1.328 1_554 S
C270 C271 1.457 . S
C270 H275 0.929 . S
C271 C270 1.457 . S
C271 C272 1.291 . S
C271 H284 0.931 . S
C272 C271 1.291 . S
C272 C273 1.373 1_554 S
C272 H285 0.929 . S
C273 C272 1.373 1_556 S
C273 C274 1.396 . S
C273 C280 1.403 . S
C274 C264 1.476 . S
C274 N269 1.318 . S
C274 C273 1.396 . S
H275 C270 0.929 . S
O276 Mn252 2.392 1_655 S
O276 C254 1.241 . S
O277 Mn252 2.209 1_655 S
O277 Mn253 2.215 1_565 S
O277 C254 1.283 . S
O278 Mn252 2.094 . S
O278 C256 1.240 1_565 S
O279 Mn253 2.117 1_455 S
O279 C256 1.264 . S
C280 C273 1.403 . S
C280 C281 1.399 . S
C280 H286 0.929 . S
C281 C261 1.449 . S
C281 C280 1.399 . S
C281 H287 0.930 . S
H282 C262 0.931 . S
H283 C263 0.930 . S
H284 C271 0.931 . S
H285 C272 0.929 . S
H286 C280 0.929 . S
H287 C281 0.930 . S
Mn288 O293 2.095 . S
Mn288 O303 2.162 . S
Mn288 O304 2.297 . S
Mn288 O312 2.385 . S
Mn288 O313 2.209 . S
Mn288 O314 2.094 . S
Mn289 O294 2.121 . S
Mn289 N296 2.257 . S
Mn289 N305 2.282 . S
Mn289 O313 2.215 . S
Mn289 O315 2.117 . S
C290 O312 1.234 . S
C290 O313 1.283 . S
C291 O303 1.281 . S
C291 O304 1.236 . S
C292 O314 1.240 . S
C292 O315 1.264 . S
O293 Mn288 2.095 . S
O293 C302 1.250 . S
O294 Mn289 2.121 . S
O294 C302 1.258 . S
C295 N296 1.326 . S
C295 C299 1.460 . S
C295 H301 0.929 . S
N296 Mn289 2.257 . S
N296 C295 1.326 . S
N296 C300 1.362 . S
C297 C298 1.258 . S
C297 C300 1.431 . S
C297 C317 1.449 . S
C298 C297 1.258 . S
C298 C299 1.477 . S
C298 H318 0.931 . S
C299 C295 1.460 . S
C299 C298 1.477 . S
C299 H319 0.930 . S
C300 N296 1.362 . S
C300 C297 1.431 . S
C300 C310 1.476 . S
H301 C295 0.929 . S
C302 O293 1.250 . S
C302 O294 1.258 . S
O303 Mn288 2.162 . S
O303 C291 1.281 . S
O304 Mn288 2.297 . S
O304 C291 1.236 . S
N305 Mn289 2.282 . S
N305 C306 1.328 . S
N305 C310 1.318 . S
C306 N305 1.328 . S
C306 C307 1.457 . S
C306 H311 0.929 . S
C307 C306 1.457 . S
C307 C308 1.291 . S
C307 H320 0.931 . S
C308 C307 1.291 . S
C308 C309 1.373 . S
C308 H321 0.929 . S
C309 C308 1.373 . S
C309 C310 1.396 . S
C309 C316 1.403 . S
C310 C300 1.476 . S
C310 N305 1.318 . S
C310 C309 1.396 . S
H311 C306 0.929 . S
O312 Mn288 2.385 . S
O312 C290 1.234 . S
O313 Mn288 2.209 . S
O313 Mn289 2.215 . S
O313 C290 1.283 . S
O314 Mn288 2.094 . S
O314 C292 1.240 . S
O315 Mn289 2.117 . S
O315 C292 1.264 . S
C316 C309 1.403 . S
C316 C317 1.399 . S
C316 H322 0.929 . S
C317 C297 1.449 . S
C317 C316 1.399 . S
C317 H323 0.930 . S
H318 C298 0.931 . S
H319 C299 0.930 . S
H320 C307 0.931 . S
H321 C308 0.929 . S
H322 C316 0.929 . S
H323 C317 0.930 . S
Mn324 O329 2.095 . S
Mn324 O339 2.162 . S
Mn324 O340 2.297 1_655 S
Mn324 O348 2.392 1_655 S
Mn324 O349 2.209 1_655 S
Mn324 O350 2.094 . S
Mn325 O330 2.121 . S
Mn325 N332 2.257 . S
Mn325 N341 2.282 . S
Mn325 O349 2.215 . S
Mn325 O351 2.117 1_455 S
C326 O348 1.241 . S
C326 O349 1.283 . S
C327 O339 1.281 . S
C327 O340 1.236 1_655 S
C328 O350 1.240 . S
C328 O351 1.264 . S
O329 Mn324 2.095 . S
O329 C338 1.250 . S
O330 Mn325 2.121 . S
O330 C338 1.258 1_455 S
C331 N332 1.326 . S
C331 C335 1.460 . S
C331 H337 0.929 . S
N332 Mn325 2.257 . S
N332 C331 1.326 . S
N332 C336 1.362 . S
C333 C334 1.258 . S
C333 C336 1.431 . S
C333 C353 1.449 . S
C334 C333 1.258 . S
C334 C335 1.477 . S
C334 H354 0.931 . S
C335 C331 1.460 . S
C335 C334 1.477 . S
C335 H355 0.930 . S
C336 N332 1.362 . S
C336 C333 1.431 . S
C336 C346 1.476 . S
H337 C331 0.929 . S
C338 O329 1.250 . S
C338 O330 1.258 1_655 S
O339 Mn324 2.162 . S
O339 C327 1.281 . S
O340 Mn324 2.297 1_455 S
O340 C327 1.236 1_455 S
N341 Mn325 2.282 . S
N341 C342 1.328 1_556 S
N341 C346 1.318 . S
C342 N341 1.328 1_554 S
C342 C343 1.457 . S
C342 H347 0.929 . S
C343 C342 1.457 . S
C343 C344 1.291 . S
C343 H356 0.931 . S
C344 C343 1.291 . S
C344 C345 1.373 1_554 S
C344 H357 0.929 . S
C345 C344 1.373 1_556 S
C345 C346 1.396 . S
C345 C352 1.403 . S
C346 C336 1.476 . S
C346 N341 1.318 . S
C346 C345 1.396 . S
H347 C342 0.929 . S
O348 Mn324 2.392 1_455 S
O348 C326 1.241 . S
O349 Mn324 2.209 1_455 S
O349 Mn325 2.215 . S
O349 C326 1.283 . S
O350 Mn324 2.094 . S
O350 C328 1.240 . S
O351 Mn325 2.117 1_655 S
O351 C328 1.264 . S
C352 C345 1.403 . S
C352 C353 1.399 . S
C352 H358 0.929 . S
C353 C333 1.449 . S
C353 C352 1.399 . S
C353 H359 0.930 . S
H354 C334 0.931 . S
H355 C335 0.930 . S
H356 C343 0.931 . S
H357 C344 0.929 . S
H358 C352 0.929 . S
H359 C353 0.930 . S
Mn360 O365 2.095 . S
Mn360 O375 2.162 . S
Mn360 O376 2.297 . S
Mn360 O384 2.385 . S
Mn360 O385 2.209 . S
Mn360 O386 2.094 . S
Mn361 O366 2.121 . S
Mn361 N368 2.257 . S
Mn361 N377 2.282 . S
Mn361 O385 2.215 . S
Mn361 O387 2.117 . S
C362 O384 1.234 . S
C362 O385 1.283 . S
C363 O375 1.281 . S
C363 O376 1.236 . S
C364 O386 1.240 . S
C364 O387 1.264 . S
O365 Mn360 2.095 . S
O365 C374 1.250 . S
O366 Mn361 2.121 . S
O366 C374 1.258 . S
C367 N368 1.326 . S
C367 C371 1.460 . S
C367 H373 0.929 . S
N368 Mn361 2.257 . S
N368 C367 1.326 . S
N368 C372 1.362 . S
C369 C370 1.258 . S
C369 C372 1.431 . S
C369 C389 1.449 . S
C370 C369 1.258 . S
C370 C371 1.477 . S
C370 H390 0.931 . S
C371 C367 1.460 . S
C371 C370 1.477 . S
C371 H391 0.930 . S
C372 N368 1.362 . S
C372 C369 1.431 . S
C372 C382 1.476 . S
H373 C367 0.929 . S
C374 O365 1.250 . S
C374 O366 1.258 . S
O375 Mn360 2.162 . S
O375 C363 1.281 . S
O376 Mn360 2.297 . S
O376 C363 1.236 . S
N377 Mn361 2.282 . S
N377 C378 1.328 . S
N377 C382 1.318 . S
C378 N377 1.328 . S
C378 C379 1.457 . S
C378 H383 0.929 . S
C379 C378 1.457 . S
C379 C380 1.291 . S
C379 H392 0.931 . S
C380 C379 1.291 . S
C380 C381 1.373 . S
C380 H393 0.929 . S
C381 C380 1.373 . S
C381 C382 1.396 . S
C381 C388 1.403 . S
C382 C372 1.476 . S
C382 N377 1.318 . S
C382 C381 1.396 . S
H383 C378 0.929 . S
O384 Mn360 2.385 . S
O384 C362 1.234 . S
O385 Mn360 2.209 . S
O385 Mn361 2.215 . S
O385 C362 1.283 . S
O386 Mn360 2.094 . S
O386 C364 1.240 . S
O387 Mn361 2.117 . S
O387 C364 1.264 . S
C388 C381 1.403 . S
C388 C389 1.399 . S
C388 H394 0.929 . S
C389 C369 1.449 . S
C389 C388 1.399 . S
C389 H395 0.930 . S
H390 C370 0.931 . S
H391 C371 0.930 . S
H392 C379 0.931 . S
H393 C380 0.929 . S
H394 C388 0.929 . S
H395 C389 0.930 . S
Mn396 O401 2.095 . S
Mn396 O411 2.162 . S
Mn396 O412 2.297 1_655 S
Mn396 O420 2.385 1_655 S
Mn396 O421 2.209 1_655 S
Mn396 O422 2.094 . S
Mn397 O402 2.121 . S
Mn397 N404 2.257 . S
Mn397 N413 2.282 . S
Mn397 O421 2.215 . S
Mn397 O423 2.117 1_455 S
C398 O420 1.234 . S
C398 O421 1.283 . S
C399 O411 1.281 . S
C399 O412 1.236 1_655 S
C400 O422 1.240 . S
C400 O423 1.264 . S
O401 Mn396 2.095 . S
O401 C410 1.250 . S
O402 Mn397 2.121 . S
O402 C410 1.258 1_455 S
C403 N404 1.326 . S
C403 C407 1.460 . S
C403 H409 0.929 . S
N404 Mn397 2.257 . S
N404 C403 1.326 . S
N404 C408 1.362 . S
C405 C406 1.258 . S
C405 C408 1.431 . S
C405 C425 1.449 . S
C406 C405 1.258 . S
C406 C407 1.477 . S
C406 H426 0.931 . S
C407 C403 1.460 . S
C407 C406 1.477 . S
C407 H427 0.930 . S
C408 N404 1.362 . S
C408 C405 1.431 . S
C408 C418 1.476 . S
H409 C403 0.929 . S
C410 O401 1.250 . S
C410 O402 1.258 1_655 S
O411 Mn396 2.162 . S
O411 C399 1.281 . S
O412 Mn396 2.297 1_455 S
O412 C399 1.236 1_455 S
N413 Mn397 2.282 . S
N413 C414 1.328 . S
N413 C418 1.318 . S
C414 N413 1.328 . S
C414 C415 1.457 . S
C414 H419 0.929 . S
C415 C414 1.457 . S
C415 C416 1.291 . S
C415 H428 0.931 . S
C416 C415 1.291 . S
C416 C417 1.373 . S
C416 H429 0.929 . S
C417 C416 1.373 . S
C417 C418 1.396 . S
C417 C424 1.403 . S
C418 C408 1.476 . S
C418 N413 1.318 . S
C418 C417 1.396 . S
H419 C414 0.929 . S
O420 Mn396 2.385 1_455 S
O420 C398 1.234 . S
O421 Mn396 2.209 1_455 S
O421 Mn397 2.215 . S
O421 C398 1.283 . S
O422 Mn396 2.094 . S
O422 C400 1.240 . S
O423 Mn397 2.117 1_655 S
O423 C400 1.264 . S
C424 C417 1.403 . S
C424 C425 1.399 . S
C424 H430 0.929 . S
C425 C405 1.449 . S
C425 C424 1.399 . S
C425 H431 0.930 . S
H426 C406 0.931 . S
H427 C407 0.930 . S
H428 C415 0.931 . S
H429 C416 0.929 . S
H430 C424 0.929 . S
H431 C425 0.930 . S
Mn432 O437 2.095 . S
Mn432 O447 2.162 . S
Mn432 O448 2.297 . S
Mn432 O456 2.385 . S
Mn432 O457 2.209 . S
Mn432 O458 2.094 . S
Mn433 O438 2.121 . S
Mn433 N440 2.257 . S
Mn433 N449 2.282 . S
Mn433 O457 2.215 . S
Mn433 O459 2.117 . S
C434 O456 1.234 . S
C434 O457 1.283 . S
C435 O447 1.281 . S
C435 O448 1.236 . S
C436 O458 1.240 . S
C436 O459 1.264 . S
O437 Mn432 2.095 . S
O437 C446 1.250 . S
O438 Mn433 2.121 . S
O438 C446 1.258 . S
C439 N440 1.326 . S
C439 C443 1.460 . S
C439 H445 0.929 . S
N440 Mn433 2.257 . S
N440 C439 1.326 . S
N440 C444 1.362 . S
C441 C442 1.258 . S
C441 C444 1.431 . S
C441 C461 1.449 . S
C442 C441 1.258 . S
C442 C443 1.477 . S
C442 H462 0.931 . S
C443 C439 1.460 . S
C443 C442 1.477 . S
C443 H463 0.930 . S
C444 N440 1.362 . S
C444 C441 1.431 . S
C444 C454 1.476 . S
H445 C439 0.929 . S
C446 O437 1.250 . S
C446 O438 1.258 . S
O447 Mn432 2.162 . S
O447 C435 1.281 . S
O448 Mn432 2.297 . S
O448 C435 1.236 . S
N449 Mn433 2.282 . S
N449 C450 1.328 1_554 S
N449 C454 1.318 . S
C450 N449 1.328 1_556 S
C450 C451 1.457 . S
C450 H455 0.929 . S
C451 C450 1.457 . S
C451 C452 1.291 . S
C451 H464 0.931 . S
C452 C451 1.291 . S
C452 C453 1.373 1_556 S
C452 H465 0.929 . S
C453 C452 1.373 1_554 S
C453 C454 1.396 . S
C453 C460 1.403 . S
C454 C444 1.476 . S
C454 N449 1.318 . S
C454 C453 1.396 . S
H455 C450 0.929 . S
O456 Mn432 2.385 . S
O456 C434 1.234 . S
O457 Mn432 2.209 . S
O457 Mn433 2.215 . S
O457 C434 1.283 . S
O458 Mn432 2.094 . S
O458 C436 1.240 . S
O459 Mn433 2.117 . S
O459 C436 1.264 . S
C460 C453 1.403 . S
C460 C461 1.399 . S
C460 H466 0.929 . S
C461 C441 1.449 . S
C461 C460 1.399 . S
C461 H467 0.930 . S
H462 C442 0.931 . S
H463 C443 0.930 . S
H464 C451 0.931 . S
H465 C452 0.929 . S
H466 C460 0.929 . S
H467 C461 0.930 . S
Mn468 O473 2.095 . S
Mn468 O483 2.162 . S
Mn468 O484 2.297 . S
Mn468 O492 2.385 . S
Mn468 O493 2.209 . S
Mn468 O494 2.094 . S
Mn469 O474 2.121 . S
Mn469 N476 2.257 . S
Mn469 N485 2.282 . S
Mn469 O493 2.215 . S
Mn469 O495 2.117 . S
C470 O492 1.234 . S
C470 O493 1.283 . S
C471 O483 1.281 . S
C471 O484 1.236 . S
C472 O494 1.240 . S
C472 O495 1.264 . S
O473 Mn468 2.095 . S
O473 C482 1.250 . S
O474 Mn469 2.121 . S
O474 C482 1.258 . S
C475 N476 1.326 . S
C475 C479 1.460 . S
C475 H481 0.929 . S
N476 Mn469 2.257 . S
N476 C475 1.326 . S
N476 C480 1.362 . S
C477 C478 1.258 . S
C477 C480 1.431 . S
C477 C497 1.449 . S
C478 C477 1.258 . S
C478 C479 1.477 . S
C478 H498 0.931 . S
C479 C475 1.460 . S
C479 C478 1.477 . S
C479 H499 0.930 . S
C480 N476 1.362 . S
C480 C477 1.431 . S
C480 C490 1.476 . S
H481 C475 0.929 . S
C482 O473 1.250 . S
C482 O474 1.258 . S
O483 Mn468 2.162 . S
O483 C471 1.281 . S
O484 Mn468 2.297 . S
O484 C471 1.236 . S
N485 Mn469 2.282 . S
N485 C486 1.328 . S
N485 C490 1.318 . S
C486 N485 1.328 . S
C486 C487 1.457 . S
C486 H491 0.929 . S
C487 C486 1.457 . S
C487 C488 1.291 . S
C487 H500 0.931 . S
C488 C487 1.291 . S
C488 C489 1.373 . S
C488 H501 0.929 . S
C489 C488 1.373 . S
C489 C490 1.396 . S
C489 C496 1.403 . S
C490 C480 1.476 . S
C490 N485 1.318 . S
C490 C489 1.396 . S
H491 C486 0.929 . S
O492 Mn468 2.385 . S
O492 C470 1.234 . S
O493 Mn468 2.209 . S
O493 Mn469 2.215 . S
O493 C470 1.283 . S
O494 Mn468 2.094 . S
O494 C472 1.240 . S
O495 Mn469 2.117 . S
O495 C472 1.264 . S
C496 C489 1.403 . S
C496 C497 1.399 . S
C496 H502 0.929 . S
C497 C477 1.449 . S
C497 C496 1.399 . S
C497 H503 0.930 . S
H498 C478 0.931 . S
H499 C479 0.930 . S
H500 C487 0.931 . S
H501 C488 0.929 . S
H502 C496 0.929 . S
H503 C497 0.930 . S
Mn504 O509 2.095 . S
Mn504 O519 2.162 . S
Mn504 O520 2.297 . S
Mn504 O528 2.385 . S
Mn504 O529 2.209 . S
Mn504 O530 2.094 . S
Mn505 O510 2.121 . S
Mn505 N512 2.257 . S
Mn505 N521 2.282 . S
Mn505 O529 2.215 . S
Mn505 O531 2.117 . S
C506 O528 1.234 . S
C506 O529 1.283 . S
C507 O519 1.281 . S
C507 O520 1.236 . S
C508 O530 1.240 . S
C508 O531 1.264 . S
O509 Mn504 2.095 . S
O509 C518 1.250 . S
O510 Mn505 2.121 . S
O510 C518 1.258 . S
C511 N512 1.326 . S
C511 C515 1.460 . S
C511 H517 0.929 . S
N512 Mn505 2.257 . S
N512 C511 1.326 . S
N512 C516 1.362 . S
C513 C514 1.258 . S
C513 C516 1.431 . S
C513 C533 1.449 . S
C514 C513 1.258 . S
C514 C515 1.477 . S
C514 H534 0.931 . S
C515 C511 1.460 . S
C515 C514 1.477 . S
C515 H535 0.930 . S
C516 N512 1.362 . S
C516 C513 1.431 . S
C516 C526 1.476 . S
H517 C511 0.929 . S
C518 O509 1.250 . S
C518 O510 1.258 . S
O519 Mn504 2.162 . S
O519 C507 1.281 . S
O520 Mn504 2.297 . S
O520 C507 1.236 . S
N521 Mn505 2.282 . S
N521 C522 1.328 . S
N521 C526 1.318 . S
C522 N521 1.328 . S
C522 C523 1.457 . S
C522 H527 0.929 . S
C523 C522 1.457 . S
C523 C524 1.291 . S
C523 H536 0.931 . S
C524 C523 1.291 . S
C524 C525 1.373 . S
C524 H537 0.929 . S
C525 C524 1.373 . S
C525 C526 1.396 . S
C525 C532 1.403 . S
C526 C516 1.476 . S
C526 N521 1.318 . S
C526 C525 1.396 . S
H527 C522 0.929 . S
O528 Mn504 2.385 . S
O528 C506 1.234 . S
O529 Mn504 2.209 . S
O529 Mn505 2.215 . S
O529 C506 1.283 . S
O530 Mn504 2.094 . S
O530 C508 1.240 . S
O531 Mn505 2.117 . S
O531 C508 1.264 . S
C532 C525 1.403 . S
C532 C533 1.399 . S
C532 H538 0.929 . S
C533 C513 1.449 . S
C533 C532 1.399 . S
C533 H539 0.930 . S
H534 C514 0.931 . S
H535 C515 0.930 . S
H536 C523 0.931 . S
H537 C524 0.929 . S
H538 C532 0.929 . S
H539 C533 0.930 . S
Mn540 O545 2.095 . S
Mn540 O555 2.162 . S
Mn540 O556 2.297 . S
Mn540 O564 2.385 . S
Mn540 O565 2.209 . S
Mn540 O566 2.094 . S
Mn541 O546 2.121 . S
Mn541 N548 2.257 . S
Mn541 N557 2.282 . S
Mn541 O565 2.215 . S
Mn541 O567 2.117 . S
C542 O564 1.234 . S
C542 O565 1.283 . S
C543 O555 1.281 . S
C543 O556 1.236 . S
C544 O566 1.240 . S
C544 O567 1.264 . S
O545 Mn540 2.095 . S
O545 C554 1.250 . S
O546 Mn541 2.121 . S
O546 C554 1.258 . S
C547 N548 1.326 . S
C547 C551 1.460 . S
C547 H553 0.929 . S
N548 Mn541 2.257 . S
N548 C547 1.326 . S
N548 C552 1.362 . S
C549 C550 1.258 . S
C549 C552 1.431 . S
C549 C569 1.449 . S
C550 C549 1.258 . S
C550 C551 1.477 . S
C550 H570 0.931 . S
C551 C547 1.460 . S
C551 C550 1.477 . S
C551 H571 0.930 . S
C552 N548 1.362 . S
C552 C549 1.431 . S
C552 C562 1.476 . S
H553 C547 0.929 . S
C554 O545 1.250 . S
C554 O546 1.258 . S
O555 Mn540 2.162 . S
O555 C543 1.281 . S
O556 Mn540 2.297 . S
O556 C543 1.236 . S
N557 Mn541 2.282 . S
N557 C558 1.328 . S
N557 C562 1.318 . S
C558 N557 1.328 . S
C558 C559 1.457 . S
C558 H563 0.929 . S
C559 C558 1.457 . S
C559 C560 1.291 . S
C559 H572 0.931 . S
C560 C559 1.291 . S
C560 C561 1.373 . S
C560 H573 0.929 . S
C561 C560 1.373 . S
C561 C562 1.396 . S
C561 C568 1.403 . S
C562 C552 1.476 . S
C562 N557 1.318 . S
C562 C561 1.396 . S
H563 C558 0.929 . S
O564 Mn540 2.385 . S
O564 C542 1.234 . S
O565 Mn540 2.209 . S
O565 Mn541 2.215 . S
O565 C542 1.283 . S
O566 Mn540 2.094 . S
O566 C544 1.240 . S
O567 Mn541 2.117 . S
O567 C544 1.264 . S
C568 C561 1.403 . S
C568 C569 1.399 . S
C568 H574 0.929 . S
C569 C549 1.449 . S
C569 C568 1.399 . S
C569 H575 0.930 . S
H570 C550 0.931 . S
H571 C551 0.930 . S
H572 C559 0.931 . S
H573 C560 0.929 . S
H574 C568 0.929 . S
H575 C569 0.930 . S
H576 C584 0.929 . S
H577 C586 0.930 . S
H578 C588 0.930 . S
H579 C591 0.929 . S
H580 C594 0.930 . S
H581 C596 0.960 . S
H582 C596 0.960 . S
H583 C596 0.960 . S
C584 H576 0.929 . S
C584 C585 1.377 . S
C584 C586 1.384 . S
C585 C584 1.377 . S
C585 C591 1.390 . S
C586 H577 0.930 . S
C586 C584 1.384 . S
C586 C587 1.372 . S
C587 C586 1.372 . S
C587 C588 1.400 . S
C587 C592 1.490 . S
C588 H578 0.930 . S
C588 C587 1.400 . S
C588 C591 1.386 . S
H589 C605 0.930 . S
H590 C606 0.931 . S
C591 H579 0.929 . S
C591 C585 1.390 . S
C591 C588 1.386 . S
C592 C587 1.490 . S
C592 C594 1.395 . S
C592 C595 1.403 . S
H593 C599 0.930 . S
C594 H580 0.930 . S
C594 C592 1.395 . S
C594 C597 1.403 . S
C595 C592 1.403 . S
C595 C596 1.524 . S
C595 C599 1.400 . S
C596 H581 0.960 . S
C596 H582 0.960 . S
C596 H583 0.960 . S
C596 C595 1.524 . S
C597 C594 1.403 . S
C597 C598 1.392 . S
C597 C601 1.495 . S
C598 C597 1.392 . S
C598 C599 1.385 . S
C598 C600 1.478 . S
C599 H593 0.930 . S
C599 C595 1.400 . S
C599 C598 1.385 . S
C600 C598 1.478 . S
C600 C602 1.381 . S
C600 C606 1.383 . S
C601 C597 1.495 . S
C601 H607 0.959 . S
C601 H608 0.961 . S
C601 H609 0.960 . S
C602 C600 1.381 . S
C602 C603 1.394 . S
C602 H610 0.930 . S
C603 C602 1.394 . S
C603 C604 1.383 . S
C603 H611 0.929 . S
C604 C603 1.383 . S
C604 C605 1.377 . S
C605 H589 0.930 . S
C605 C604 1.377 . S
C605 C606 1.379 . S
C606 H590 0.931 . S
C606 C600 1.383 . S
C606 C605 1.379 . S
H607 C601 0.959 . S
H608 C601 0.961 . S
H609 C601 0.960 . S
H610 C602 0.930 . S
H611 C603 0.929 . S
H612 C620 0.929 . S
H613 C622 0.930 . S
H614 C624 0.930 . S
H615 C627 0.929 . S
H616 C630 0.930 . S
H617 C632 0.960 . S
H618 C632 0.960 . S
H619 C632 0.960 . S
C620 H612 0.929 . S
C620 C621 1.377 . S
C620 C622 1.384 . S
C621 C620 1.377 . S
C621 C627 1.390 . S
C622 H613 0.930 . S
C622 C620 1.384 . S
C622 C623 1.372 . S
C623 C622 1.372 . S
C623 C624 1.400 . S
C623 C628 1.490 . S
C624 H614 0.930 . S
C624 C623 1.400 . S
C624 C627 1.386 . S
H625 C641 0.930 . S
H626 C642 0.931 . S
C627 H615 0.929 . S
C627 C621 1.390 . S
C627 C624 1.386 . S
C628 C623 1.490 . S
C628 C630 1.395 . S
C628 C631 1.403 . S
H629 C635 0.930 . S
C630 H616 0.930 . S
C630 C628 1.395 . S
C630 C633 1.403 . S
C631 C628 1.403 . S
C631 C632 1.524 . S
C631 C635 1.400 . S
C632 H617 0.960 . S
C632 H618 0.960 . S
C632 H619 0.960 . S
C632 C631 1.524 . S
C633 C630 1.403 . S
C633 C634 1.392 . S
C633 C637 1.495 . S
C634 C633 1.392 . S
C634 C635 1.385 . S
C634 C636 1.478 . S
C635 H629 0.930 . S
C635 C631 1.400 . S
C635 C634 1.385 . S
C636 C634 1.478 . S
C636 C638 1.381 . S
C636 C642 1.383 . S
C637 C633 1.495 . S
C637 H643 0.959 . S
C637 H644 0.961 . S
C637 H645 0.960 . S
C638 C636 1.381 . S
C638 C639 1.394 . S
C638 H646 0.930 . S
C639 C638 1.394 . S
C639 C640 1.383 . S
C639 H647 0.929 . S
C640 C639 1.383 . S
C640 C641 1.377 . S
C641 H625 0.930 . S
C641 C640 1.377 . S
C641 C642 1.379 . S
C642 H626 0.931 . S
C642 C636 1.383 . S
C642 C641 1.379 . S
H643 C637 0.959 . S
H644 C637 0.961 . S
H645 C637 0.960 . S
H646 C638 0.930 . S
H647 C639 0.929 . S
H648 C656 0.929 . S
H649 C658 0.930 . S
H650 C660 0.930 . S
H651 C663 0.929 . S
H652 C666 0.930 . S
H653 C668 0.960 . S
H654 C668 0.960 . S
H655 C668 0.960 . S
C656 H648 0.929 . S
C656 C657 1.377 . S
C656 C658 1.384 . S
C657 C656 1.377 . S
C657 C663 1.390 . S
C658 H649 0.930 . S
C658 C656 1.384 . S
C658 C659 1.372 . S
C659 C658 1.372 . S
C659 C660 1.400 . S
C659 C664 1.490 . S
C660 H650 0.930 . S
C660 C659 1.400 . S
C660 C663 1.386 . S
H661 C677 0.930 . S
H662 C678 0.931 . S
C663 H651 0.929 . S
C663 C657 1.390 . S
C663 C660 1.386 . S
C664 C659 1.490 . S
C664 C666 1.395 . S
C664 C667 1.403 . S
H665 C671 0.930 . S
C666 H652 0.930 . S
C666 C664 1.395 . S
C666 C669 1.403 . S
C667 C664 1.403 . S
C667 C668 1.524 . S
C667 C671 1.400 . S
C668 H653 0.960 . S
C668 H654 0.960 . S
C668 H655 0.960 . S
C668 C667 1.524 . S
C669 C666 1.403 . S
C669 C670 1.392 . S
C669 C673 1.495 . S
C670 C669 1.392 . S
C670 C671 1.385 . S
C670 C672 1.478 . S
C671 H665 0.930 . S
C671 C667 1.400 . S
C671 C670 1.385 . S
C672 C670 1.478 . S
C672 C674 1.381 . S
C672 C678 1.383 . S
C673 C669 1.495 . S
C673 H679 0.959 . S
C673 H680 0.961 . S
C673 H681 0.960 . S
C674 C672 1.381 . S
C674 C675 1.394 . S
C674 H682 0.930 . S
C675 C674 1.394 . S
C675 C676 1.383 . S
C675 H683 0.929 . S
C676 C675 1.383 . S
C676 C677 1.377 . S
C677 H661 0.930 . S
C677 C676 1.377 . S
C677 C678 1.379 . S
C678 H662 0.931 . S
C678 C672 1.383 . S
C678 C677 1.379 . S
H679 C673 0.959 . S
H680 C673 0.961 . S
H681 C673 0.960 . S
H682 C674 0.930 . S
H683 C675 0.929 . S
H684 C692 0.929 . S
H685 C694 0.930 . S
H686 C696 0.930 . S
H687 C699 0.929 1_554 S
H688 C702 0.930 . S
H689 C704 0.960 . S
H690 C704 0.960 . S
H691 C704 0.960 . S
C692 H684 0.929 . S
C692 C693 1.377 . S
C692 C694 1.384 . S
C693 C692 1.377 . S
C693 C699 1.390 . S
C694 H685 0.930 . S
C694 C692 1.384 . S
C694 C695 1.372 . S
C695 C694 1.372 . S
C695 C696 1.400 . S
C695 C700 1.490 . S
C696 H686 0.930 . S
C696 C695 1.400 . S
C696 C699 1.386 . S
H697 C713 0.930 . S
H698 C714 0.931 . S
C699 H687 0.929 1_556 S
C699 C693 1.390 . S
C699 C696 1.386 . S
C700 C695 1.490 . S
C700 C702 1.395 . S
C700 C703 1.403 . S
H701 C707 0.930 . S
C702 H688 0.930 . S
C702 C700 1.395 . S
C702 C705 1.403 . S
C703 C700 1.403 . S
C703 C704 1.524 . S
C703 C707 1.400 . S
C704 H689 0.960 . S
C704 H690 0.960 . S
C704 H691 0.960 . S
C704 C703 1.524 . S
C705 C702 1.403 . S
C705 C706 1.392 . S
C705 C709 1.495 . S
C706 C705 1.392 . S
C706 C707 1.385 . S
C706 C708 1.478 . S
C707 H701 0.930 . S
C707 C703 1.400 . S
C707 C706 1.385 . S
C708 C706 1.478 . S
C708 C710 1.381 . S
C708 C714 1.383 . S
C709 C705 1.495 . S
C709 H715 0.959 . S
C709 H716 0.961 . S
C709 H717 0.960 . S
C710 C708 1.381 . S
C710 C711 1.394 . S
C710 H718 0.930 . S
C711 C710 1.394 . S
C711 C712 1.383 . S
C711 H719 0.929 . S
C712 C711 1.383 . S
C712 C713 1.377 . S
C713 H697 0.930 . S
C713 C712 1.377 . S
C713 C714 1.379 . S
C714 H698 0.931 . S
C714 C708 1.383 . S
C714 C713 1.379 . S
H715 C709 0.959 . S
H716 C709 0.961 . S
H717 C709 0.960 . S
H718 C710 0.930 . S
H719 C711 0.929 . S
H720 C728 0.929 . S
H721 C730 0.930 . S
H722 C732 0.930 . S
H723 C735 0.929 . S
H724 C738 0.930 . S
H725 C740 0.960 . S
H726 C740 0.960 . S
H727 C740 0.960 . S
C728 H720 0.929 . S
C728 C729 1.377 . S
C728 C730 1.384 . S
C729 C728 1.377 . S
C729 C735 1.390 . S
C730 H721 0.930 . S
C730 C728 1.384 . S
C730 C731 1.372 . S
C731 C730 1.372 . S
C731 C732 1.400 . S
C731 C736 1.490 . S
C732 H722 0.930 . S
C732 C731 1.400 . S
C732 C735 1.386 . S
H733 C749 0.930 . S
H734 C750 0.931 . S
C735 H723 0.929 . S
C735 C729 1.390 . S
C735 C732 1.386 . S
C736 C731 1.490 . S
C736 C738 1.395 . S
C736 C739 1.403 . S
H737 C743 0.930 . S
C738 H724 0.930 . S
C738 C736 1.395 . S
C738 C741 1.403 . S
C739 C736 1.403 . S
C739 C740 1.524 . S
C739 C743 1.400 . S
C740 H725 0.960 . S
C740 H726 0.960 . S
C740 H727 0.960 . S
C740 C739 1.524 . S
C741 C738 1.403 . S
C741 C742 1.392 . S
C741 C745 1.495 . S
C742 C741 1.392 . S
C742 C743 1.385 . S
C742 C744 1.478 . S
C743 H737 0.930 . S
C743 C739 1.400 . S
C743 C742 1.385 . S
C744 C742 1.478 . S
C744 C746 1.381 . S
C744 C750 1.383 . S
C745 C741 1.495 . S
C745 H751 0.959 . S
C745 H752 0.961 . S
C745 H753 0.960 . S
C746 C744 1.381 . S
C746 C747 1.394 . S
C746 H754 0.930 . S
C747 C746 1.394 . S
C747 C748 1.383 . S
C747 H755 0.929 . S
C748 C747 1.383 . S
C748 C749 1.377 . S
C749 H733 0.930 . S
C749 C748 1.377 . S
C749 C750 1.379 . S
C750 H734 0.931 . S
C750 C744 1.383 . S
C750 C749 1.379 . S
H751 C745 0.959 . S
H752 C745 0.961 . S
H753 C745 0.960 . S
H754 C746 0.930 . S
H755 C747 0.929 . S
H756 C764 0.929 . S
H757 C766 0.930 . S
H758 C768 0.930 . S
H759 C771 0.929 1_556 S
H760 C774 0.930 . S
H761 C776 0.960 . S
H762 C776 0.960 . S
H763 C776 0.960 . S
C764 H756 0.929 . S
C764 C765 1.377 . S
C764 C766 1.384 . S
C765 C764 1.377 . S
C765 C771 1.390 . S
C766 H757 0.930 . S
C766 C764 1.384 . S
C766 C767 1.372 . S
C767 C766 1.372 . S
C767 C768 1.400 . S
C767 C772 1.490 . S
C768 H758 0.930 . S
C768 C767 1.400 . S
C768 C771 1.386 . S
H769 C785 0.930 . S
H770 C786 0.931 . S
C771 H759 0.929 1_554 S
C771 C765 1.390 . S
C771 C768 1.386 . S
C772 C767 1.490 . S
C772 C774 1.395 . S
C772 C775 1.403 . S
H773 C779 0.930 . S
C774 H760 0.930 . S
C774 C772 1.395 . S
C774 C777 1.403 . S
C775 C772 1.403 . S
C775 C776 1.524 . S
C775 C779 1.400 . S
C776 H761 0.960 . S
C776 H762 0.960 . S
C776 H763 0.960 . S
C776 C775 1.524 . S
C777 C774 1.403 . S
C777 C778 1.392 . S
C777 C781 1.495 . S
C778 C777 1.392 . S
C778 C779 1.385 . S
C778 C780 1.478 . S
C779 H773 0.930 . S
C779 C775 1.400 . S
C779 C778 1.385 . S
C780 C778 1.478 . S
C780 C782 1.381 . S
C780 C786 1.383 . S
C781 C777 1.495 . S
C781 H787 0.959 . S
C781 H788 0.961 . S
C781 H789 0.960 . S
C782 C780 1.381 . S
C782 C783 1.394 . S
C782 H790 0.930 . S
C783 C782 1.394 . S
C783 C784 1.383 . S
C783 H791 0.929 . S
C784 C783 1.383 . S
C784 C785 1.377 . S
C785 H769 0.930 . S
C785 C784 1.377 . S
C785 C786 1.379 . S
C786 H770 0.931 . S
C786 C780 1.383 . S
C786 C785 1.379 . S
H787 C781 0.959 . S
H788 C781 0.961 . S
H789 C781 0.960 . S
H790 C782 0.930 . S
H791 C783 0.929 . S
H792 C800 0.929 . S
H793 C802 0.930 . S
H794 C804 0.930 . S
H795 C807 0.929 . S
H796 C810 0.930 . S
H797 C812 0.960 . S
H798 C812 0.960 . S
H799 C812 0.960 . S
C800 H792 0.929 . S
C800 C801 1.377 . S
C800 C802 1.384 . S
C801 C800 1.377 . S
C801 C807 1.390 . S
C802 H793 0.930 . S
C802 C800 1.384 . S
C802 C803 1.372 . S
C803 C802 1.372 . S
C803 C804 1.400 . S
C803 C808 1.490 . S
C804 H794 0.930 . S
C804 C803 1.400 . S
C804 C807 1.386 . S
H805 C821 0.930 . S
H806 C822 0.931 . S
C807 H795 0.929 . S
C807 C801 1.390 . S
C807 C804 1.386 . S
C808 C803 1.490 . S
C808 C810 1.395 . S
C808 C811 1.403 . S
H809 C815 0.930 . S
C810 H796 0.930 . S
C810 C808 1.395 . S
C810 C813 1.403 . S
C811 C808 1.403 . S
C811 C812 1.524 . S
C811 C815 1.400 . S
C812 H797 0.960 . S
C812 H798 0.960 . S
C812 H799 0.960 . S
C812 C811 1.524 . S
C813 C810 1.403 . S
C813 C814 1.392 . S
C813 C817 1.495 . S
C814 C813 1.392 . S
C814 C815 1.385 . S
C814 C816 1.478 . S
C815 H809 0.930 . S
C815 C811 1.400 . S
C815 C814 1.385 . S
C816 C814 1.478 . S
C816 C818 1.381 . S
C816 C822 1.383 . S
C817 C813 1.495 . S
C817 H823 0.959 . S
C817 H824 0.961 . S
C817 H825 0.960 . S
C818 C816 1.381 . S
C818 C819 1.394 . S
C818 H826 0.930 . S
C819 C818 1.394 . S
C819 C820 1.383 . S
C819 H827 0.929 . S
C820 C819 1.383 . S
C820 C821 1.377 . S
C821 H805 0.930 . S
C821 C820 1.377 . S
C821 C822 1.379 . S
C822 H806 0.931 . S
C822 C816 1.383 . S
C822 C821 1.379 . S
H823 C817 0.959 . S
H824 C817 0.961 . S
H825 C817 0.960 . S
H826 C818 0.930 . S
H827 C819 0.929 . S
H828 C836 0.929 . S
H829 C838 0.930 . S
H830 C840 0.930 . S
H831 C843 0.929 . S
H832 C846 0.930 . S
H833 C848 0.960 . S
H834 C848 0.960 . S
H835 C848 0.960 . S
C836 H828 0.929 . S
C836 C837 1.377 . S
C836 C838 1.384 . S
C837 C836 1.377 . S
C837 C843 1.390 . S
C838 H829 0.930 . S
C838 C836 1.384 . S
C838 C839 1.372 . S
C839 C838 1.372 . S
C839 C840 1.400 . S
C839 C844 1.490 . S
C840 H830 0.930 . S
C840 C839 1.400 . S
C840 C843 1.386 . S
H841 C857 0.930 . S
H842 C858 0.931 . S
C843 H831 0.929 . S
C843 C837 1.390 . S
C843 C840 1.386 . S
C844 C839 1.490 . S
C844 C846 1.395 . S
C844 C847 1.403 . S
H845 C851 0.930 . S
C846 H832 0.930 . S
C846 C844 1.395 . S
C846 C849 1.403 . S
C847 C844 1.403 . S
C847 C848 1.524 . S
C847 C851 1.400 . S
C848 H833 0.960 . S
C848 H834 0.960 . S
C848 H835 0.960 . S
C848 C847 1.524 . S
C849 C846 1.403 . S
C849 C850 1.392 . S
C849 C853 1.495 . S
C850 C849 1.392 . S
C850 C851 1.385 . S
C850 C852 1.478 . S
C851 H845 0.930 . S
C851 C847 1.400 . S
C851 C850 1.385 . S
C852 C850 1.478 . S
C852 C854 1.381 . S
C852 C858 1.383 . S
C853 C849 1.495 . S
C853 H859 0.959 . S
C853 H860 0.961 . S
C853 H861 0.960 . S
C854 C852 1.381 . S
C854 C855 1.394 . S
C854 H862 0.930 . S
C855 C854 1.394 . S
C855 C856 1.383 . S
C855 H863 0.929 . S
C856 C855 1.383 . S
C856 C857 1.377 . S
C857 H841 0.930 . S
C857 C856 1.377 . S
C857 C858 1.379 . S
C858 H842 0.931 . S
C858 C852 1.383 . S
C858 C857 1.379 . S
H859 C853 0.959 . S
H860 C853 0.961 . S
H861 C853 0.960 . S
H862 C854 0.930 . S
H863 C855 0.929 . S
H864 C872 0.929 . S
H865 C874 0.930 . S
H866 C876 0.930 . S
H867 C879 0.929 . S
H868 C882 0.930 . S
H869 C884 0.960 . S
H870 C884 0.960 . S
H871 C884 0.960 . S
C872 H864 0.929 . S
C872 C873 1.377 . S
C872 C874 1.384 . S
C873 C872 1.377 . S
C873 C879 1.390 . S
C874 H865 0.930 . S
C874 C872 1.384 . S
C874 C875 1.372 . S
C875 C874 1.372 . S
C875 C876 1.400 . S
C875 C880 1.490 . S
C876 H866 0.930 . S
C876 C875 1.400 . S
C876 C879 1.386 . S
H877 C893 0.930 . S
H878 C894 0.931 . S
C879 H867 0.929 . S
C879 C873 1.390 . S
C879 C876 1.386 . S
C880 C875 1.490 . S
C880 C882 1.395 . S
C880 C883 1.403 . S
H881 C887 0.930 . S
C882 H868 0.930 . S
C882 C880 1.395 . S
C882 C885 1.403 . S
C883 C880 1.403 . S
C883 C884 1.524 . S
C883 C887 1.400 . S
C884 H869 0.960 . S
C884 H870 0.960 . S
C884 H871 0.960 . S
C884 C883 1.524 . S
C885 C882 1.403 . S
C885 C886 1.392 . S
C885 C889 1.495 . S
C886 C885 1.392 . S
C886 C887 1.385 . S
C886 C888 1.478 . S
C887 H881 0.930 . S
C887 C883 1.400 . S
C887 C886 1.385 . S
C888 C886 1.478 . S
C888 C890 1.381 . S
C888 C894 1.383 . S
C889 C885 1.495 . S
C889 H895 0.959 . S
C889 H896 0.961 . S
C889 H897 0.960 . S
C890 C888 1.381 . S
C890 C891 1.394 . S
C890 H898 0.930 . S
C891 C890 1.394 . S
C891 C892 1.383 . S
C891 H899 0.929 . S
C892 C891 1.383 . S
C892 C893 1.377 . S
C893 H877 0.930 . S
C893 C892 1.377 . S
C893 C894 1.379 . S
C894 H878 0.931 . S
C894 C888 1.383 . S
C894 C893 1.379 . S
H895 C889 0.959 . S
H896 C889 0.961 . S
H897 C889 0.960 . S
H898 C890 0.930 . S
H899 C891 0.929 . S
H900 C908 0.929 . S
H901 C910 0.930 . S
H902 C912 0.930 . S
H903 C915 0.929 . S
H904 C918 0.930 . S
H905 C920 0.960 . S
H906 C920 0.960 1_545 S
H907 C920 0.960 . S
C908 H900 0.929 . S
C908 C909 1.377 1_545 S
C908 C910 1.384 . S
C909 C908 1.377 1_565 S
C909 C915 1.390 . S
C910 H901 0.930 . S
C910 C908 1.384 . S
C910 C911 1.375 1_545 S
C911 C910 1.375 1_565 S
C911 C912 1.396 . S
C911 C916 1.490 1_565 S
C912 H902 0.930 . S
C912 C911 1.396 . S
C912 C915 1.386 . S
H913 C929 0.930 . S
H914 C930 0.931 . S
C915 H903 0.929 . S
C915 C909 1.390 . S
C915 C912 1.386 . S
C916 C911 1.490 1_545 S
C916 C918 1.395 . S
C916 C919 1.403 1_445 S
H917 C923 0.930 . S
C918 H904 0.930 . S
C918 C916 1.395 . S
C918 C921 1.403 . S
C919 C916 1.403 1_665 S
C919 C920 1.524 . S
C919 C923 1.400 . S
C920 H905 0.960 . S
C920 H906 0.960 1_565 S
C920 H907 0.960 . S
C920 C919 1.524 . S
C921 C918 1.403 . S
C921 C922 1.392 . S
C921 C925 1.495 . S
C922 C921 1.392 . S
C922 C923 1.385 1_445 S
C922 C924 1.478 . S
C923 H917 0.930 . S
C923 C919 1.400 . S
C923 C922 1.385 1_665 S
C924 C922 1.478 . S
C924 C926 1.381 . S
C924 C930 1.383 1_545 S
C925 C921 1.495 . S
C925 H931 0.959 . S
C925 H932 0.961 1_545 S
C925 H933 0.960 . S
C926 C924 1.381 . S
C926 C927 1.394 . S
C926 H934 0.930 . S
C927 C926 1.394 . S
C927 C928 1.383 . S
C927 H935 0.929 . S
C928 C927 1.383 . S
C928 C929 1.377 1_545 S
C929 H913 0.930 . S
C929 C928 1.377 1_565 S
C929 C930 1.379 . S
C930 H914 0.931 . S
C930 C924 1.383 1_565 S
C930 C929 1.379 . S
H931 C925 0.959 . S
H932 C925 0.961 1_565 S
H933 C925 0.960 . S
H934 C926 0.930 . S
H935 C927 0.929 . S
H936 C944 0.929 . S
H937 C946 0.930 . S
H938 C948 0.930 . S
H939 C951 0.929 . S
H940 C954 0.930 . S
H941 C956 0.960 . S
H942 C956 0.960 . S
H943 C956 0.960 . S
C944 H936 0.929 . S
C944 C945 1.377 . S
C944 C946 1.384 . S
C945 C944 1.377 . S
C945 C951 1.390 . S
C946 H937 0.930 . S
C946 C944 1.384 . S
C946 C947 1.372 . S
C947 C946 1.372 . S
C947 C948 1.400 . S
C947 C952 1.490 . S
C948 H938 0.930 . S
C948 C947 1.400 . S
C948 C951 1.386 . S
H949 C965 0.930 . S
H950 C966 0.931 . S
C951 H939 0.929 . S
C951 C945 1.390 . S
C951 C948 1.386 . S
C952 C947 1.490 . S
C952 C954 1.395 . S
C952 C955 1.403 . S
H953 C959 0.930 . S
C954 H940 0.930 . S
C954 C952 1.395 . S
C954 C957 1.403 1_556 S
C955 C952 1.403 . S
C955 C956 1.524 . S
C955 C959 1.400 1_556 S
C956 H941 0.960 . S
C956 H942 0.960 . S
C956 H943 0.960 . S
C956 C955 1.524 . S
C957 C954 1.403 1_554 S
C957 C958 1.392 . S
C957 C961 1.495 . S
C958 C957 1.392 . S
C958 C959 1.385 . S
C958 C960 1.478 . S
C959 H953 0.930 . S
C959 C955 1.400 1_554 S
C959 C958 1.385 . S
C960 C958 1.478 . S
C960 C962 1.381 . S
C960 C966 1.383 . S
C961 C957 1.495 . S
C961 H967 0.959 . S
C961 H968 0.961 . S
C961 H969 0.960 . S
C962 C960 1.381 . S
C962 C963 1.394 . S
C962 H970 0.930 . S
C963 C962 1.394 . S
C963 C964 1.383 . S
C963 H971 0.929 . S
C964 C963 1.383 . S
C964 C965 1.377 . S
C965 H949 0.930 . S
C965 C964 1.377 . S
C965 C966 1.379 . S
C966 H950 0.931 . S
C966 C960 1.383 . S
C966 C965 1.379 . S
H967 C961 0.959 . S
H968 C961 0.961 . S
H969 C961 0.960 . S
H970 C962 0.930 . S
H971 C963 0.929 . S
H972 C980 0.929 . S
H973 C982 0.930 . S
H974 C984 0.930 . S
H975 C987 0.929 . S
H976 C990 0.930 . S
H977 C992 0.960 . S
H978 C992 0.960 . S
H979 C992 0.960 . S
C980 H972 0.929 . S
C980 C981 1.377 1_565 S
C980 C982 1.384 . S
C981 C980 1.377 1_545 S
C981 C987 1.390 . S
C982 H973 0.930 . S
C982 C980 1.384 . S
C982 C983 1.372 1_565 S
C983 C982 1.372 1_545 S
C983 C984 1.400 . S
C983 C988 1.491 . S
C984 H974 0.930 . S
C984 C983 1.400 . S
C984 C987 1.386 . S
H985 C1001 0.930 . S
H986 C1002 0.931 . S
C987 H975 0.929 . S
C987 C981 1.390 . S
C987 C984 1.386 . S
C988 C983 1.491 . S
C988 C990 1.412 . S
C988 C991 1.386 1_545 S
H989 C995 0.930 . S
C990 H976 0.930 . S
C990 C988 1.412 . S
C990 C993 1.403 . S
C991 C988 1.386 1_565 S
C991 C992 1.524 . S
C991 C995 1.400 . S
C992 H977 0.960 . S
C992 H978 0.960 . S
C992 H979 0.960 . S
C992 C991 1.524 . S
C993 C990 1.403 . S
C993 C994 1.392 . S
C993 C997 1.495 . S
C994 C993 1.392 . S
C994 C995 1.385 1_545 S
C994 C996 1.478 . S
C995 H989 0.930 . S
C995 C991 1.400 . S
C995 C994 1.385 1_565 S
C996 C994 1.478 . S
C996 C998 1.381 1_545 S
C996 C1002 1.383 . S
C997 C993 1.495 . S
C997 H1003 0.959 . S
C997 H1004 0.961 . S
C997 H1005 0.960 . S
C998 C996 1.381 1_565 S
C998 C999 1.394 . S
C998 H1006 0.930 . S
C999 C998 1.394 . S
C999 C1000 1.383 . S
C999 H1007 0.929 . S
C1000 C999 1.383 . S
C1000 C1001 1.377 1_565 S
C1001 H985 0.930 . S
C1001 C1000 1.377 1_545 S
C1001 C1002 1.379 . S
C1002 H986 0.931 . S
C1002 C996 1.383 . S
C1002 C1001 1.379 . S
H1003 C997 0.959 . S
H1004 C997 0.961 . S
H1005 C997 0.960 . S
H1006 C998 0.930 . S
H1007 C999 0.929 . S
H1008 C1016 0.929 . S
H1009 C1018 0.930 . S
H1010 C1020 0.930 . S
H1011 C1023 0.929 . S
H1012 C1026 0.930 . S
H1013 C1028 0.960 . S
H1014 C1028 0.960 . S
H1015 C1028 0.960 . S
C1016 H1008 0.929 . S
C1016 C1017 1.377 . S
C1016 C1018 1.384 . S
C1017 C1016 1.377 . S
C1017 C1023 1.390 . S
C1018 H1009 0.930 . S
C1018 C1016 1.384 . S
C1018 C1019 1.372 . S
C1019 C1018 1.372 . S
C1019 C1020 1.400 . S
C1019 C1024 1.490 . S
C1020 H1010 0.930 . S
C1020 C1019 1.400 . S
C1020 C1023 1.386 . S
H1021 C1037 0.930 . S
H1022 C1038 0.931 . S
C1023 H1011 0.929 . S
C1023 C1017 1.390 . S
C1023 C1020 1.386 . S
C1024 C1019 1.490 . S
C1024 C1026 1.395 . S
C1024 C1027 1.403 . S
H1025 C1031 0.930 . S
C1026 H1012 0.930 . S
C1026 C1024 1.395 . S
C1026 C1029 1.403 . S
C1027 C1024 1.403 . S
C1027 C1028 1.524 . S
C1027 C1031 1.400 . S
C1028 H1013 0.960 . S
C1028 H1014 0.960 . S
C1028 H1015 0.960 . S
C1028 C1027 1.524 . S
C1029 C1026 1.403 . S
C1029 C1030 1.392 . S
C1029 C1033 1.495 . S
C1030 C1029 1.392 . S
C1030 C1031 1.385 . S
C1030 C1032 1.478 . S
C1031 H1025 0.930 . S
C1031 C1027 1.400 . S
C1031 C1030 1.385 . S
C1032 C1030 1.478 . S
C1032 C1034 1.381 . S
C1032 C1038 1.383 . S
C1033 C1029 1.495 . S
C1033 H1039 0.959 . S
C1033 H1040 0.961 . S
C1033 H1041 0.960 . S
C1034 C1032 1.381 . S
C1034 C1035 1.394 . S
C1034 H1042 0.930 . S
C1035 C1034 1.394 . S
C1035 C1036 1.383 . S
C1035 H1043 0.929 . S
C1036 C1035 1.383 . S
C1036 C1037 1.377 . S
C1037 H1021 0.930 . S
C1037 C1036 1.377 . S
C1037 C1038 1.379 . S
C1038 H1022 0.931 . S
C1038 C1032 1.383 . S
C1038 C1037 1.379 . S
H1039 C1033 0.959 . S
H1040 C1033 0.961 . S
H1041 C1033 0.960 . S
H1042 C1034 0.930 . S
H1043 C1035 0.929 . S
H1044 C1052 0.929 . S
H1045 C1054 0.930 . S
H1046 C1056 0.930 . S
H1047 C1059 0.929 . S
H1048 C1062 0.930 . S
H1049 C1064 0.960 . S
H1050 C1064 0.960 . S
H1051 C1064 0.960 . S
C1052 H1044 0.929 . S
C1052 C1053 1.377 . S
C1052 C1054 1.384 . S
C1053 C1052 1.377 . S
C1053 C1059 1.390 1_655 S
C1054 H1045 0.930 . S
C1054 C1052 1.384 . S
C1054 C1055 1.372 . S
C1055 C1054 1.372 . S
C1055 C1056 1.400 1_655 S
C1055 C1060 1.490 . S
C1056 H1046 0.930 . S
C1056 C1055 1.400 1_455 S
C1056 C1059 1.386 . S
H1057 C1073 0.930 . S
H1058 C1074 0.931 . S
C1059 H1047 0.929 . S
C1059 C1053 1.390 1_455 S
C1059 C1056 1.386 . S
C1060 C1055 1.490 . S
C1060 C1062 1.395 . S
C1060 C1063 1.403 1_655 S
H1061 C1067 0.930 . S
C1062 H1048 0.930 . S
C1062 C1060 1.395 . S
C1062 C1065 1.403 . S
C1063 C1060 1.403 1_455 S
C1063 C1064 1.524 . S
C1063 C1067 1.400 . S
C1064 H1049 0.960 . S
C1064 H1050 0.960 . S
C1064 H1051 0.960 . S
C1064 C1063 1.524 . S
C1065 C1062 1.403 . S
C1065 C1066 1.392 . S
C1065 C1069 1.495 . S
C1066 C1065 1.392 . S
C1066 C1067 1.385 1_655 S
C1066 C1068 1.478 . S
C1067 H1061 0.930 . S
C1067 C1063 1.400 . S
C1067 C1066 1.385 1_455 S
C1068 C1066 1.478 . S
C1068 C1070 1.381 . S
C1068 C1074 1.383 1_655 S
C1069 C1065 1.495 . S
C1069 H1075 0.959 . S
C1069 H1076 0.961 . S
C1069 H1077 0.960 . S
C1070 C1068 1.381 . S
C1070 C1071 1.394 . S
C1070 H1078 0.930 . S
C1071 C1070 1.394 . S
C1071 C1072 1.383 1_655 S
C1071 H1079 0.929 . S
C1072 C1071 1.383 1_455 S
C1072 C1073 1.377 . S
C1073 H1057 0.930 . S
C1073 C1072 1.377 . S
C1073 C1074 1.379 . S
C1074 H1058 0.931 . S
C1074 C1068 1.383 1_455 S
C1074 C1073 1.379 . S
H1075 C1069 0.959 . S
H1076 C1069 0.961 . S
H1077 C1069 0.960 . S
H1078 C1070 0.930 . S
H1079 C1071 0.929 . S
H1080 C1088 0.929 . S
H1081 C1090 0.930 . S
H1082 C1092 0.930 . S
H1083 C1095 0.929 . S
H1084 C1098 0.930 . S
H1085 C1100 0.960 . S
H1086 C1100 0.960 . S
H1087 C1100 0.960 . S
C1088 H1080 0.929 . S
C1088 C1089 1.377 . S
C1088 C1090 1.384 . S
C1089 C1088 1.377 . S
C1089 C1095 1.390 . S
C1090 H1081 0.930 . S
C1090 C1088 1.384 . S
C1090 C1091 1.372 . S
C1091 C1090 1.372 . S
C1091 C1092 1.400 . S
C1091 C1096 1.490 . S
C1092 H1082 0.930 . S
C1092 C1091 1.400 . S
C1092 C1095 1.386 . S
H1093 C1109 0.930 . S
H1094 C1110 0.931 . S
C1095 H1083 0.929 . S
C1095 C1089 1.390 . S
C1095 C1092 1.386 . S
C1096 C1091 1.490 . S
C1096 C1098 1.395 . S
C1096 C1099 1.403 . S
H1097 C1103 0.930 . S
C1098 H1084 0.930 . S
C1098 C1096 1.395 . S
C1098 C1101 1.403 1_655 S
C1099 C1096 1.403 . S
C1099 C1100 1.524 . S
C1099 C1103 1.400 1_655 S
C1100 H1085 0.960 . S
C1100 H1086 0.960 . S
C1100 H1087 0.960 . S
C1100 C1099 1.524 . S
C1101 C1098 1.403 1_455 S
C1101 C1102 1.392 . S
C1101 C1105 1.495 . S
C1102 C1101 1.392 . S
C1102 C1103 1.385 . S
C1102 C1104 1.478 . S
C1103 H1097 0.930 . S
C1103 C1099 1.400 1_455 S
C1103 C1102 1.385 . S
C1104 C1102 1.478 . S
C1104 C1106 1.381 . S
C1104 C1110 1.383 . S
C1105 C1101 1.495 . S
C1105 H1111 0.959 . S
C1105 H1112 0.961 . S
C1105 H1113 0.960 . S
C1106 C1104 1.381 . S
C1106 C1107 1.394 . S
C1106 H1114 0.930 . S
C1107 C1106 1.394 . S
C1107 C1108 1.383 . S
C1107 H1115 0.929 . S
C1108 C1107 1.383 . S
C1108 C1109 1.377 . S
C1109 H1093 0.930 . S
C1109 C1108 1.377 . S
C1109 C1110 1.379 . S
C1110 H1094 0.931 . S
C1110 C1104 1.383 . S
C1110 C1109 1.379 . S
H1111 C1105 0.959 . S
H1112 C1105 0.961 . S
H1113 C1105 0.960 . S
H1114 C1106 0.930 . S
H1115 C1107 0.929 . S
H1116 C1124 0.929 . S
H1117 C1126 0.930 . S
H1118 C1128 0.900 1_556 S
H1119 C1131 0.929 1_556 S
H1120 C1134 0.930 . S
H1121 C1136 0.960 . S
H1122 C1136 0.960 . S
H1123 C1136 0.960 . S
C1124 H1116 0.929 . S
C1124 C1125 1.377 . S
C1124 C1126 1.384 . S
C1125 C1124 1.377 . S
C1125 C1131 1.390 . S
C1126 H1117 0.930 . S
C1126 C1124 1.384 . S
C1126 C1127 1.372 . S
C1127 C1126 1.372 . S
C1127 C1128 1.400 . S
C1127 C1132 1.490 . S
C1128 H1118 0.900 1_554 S
C1128 C1127 1.400 . S
C1128 C1131 1.386 . S
H1129 C1145 0.930 1_556 S
H1130 C1146 0.931 1_556 S
C1131 H1119 0.929 1_554 S
C1131 C1125 1.390 . S
C1131 C1128 1.386 . S
C1132 C1127 1.490 . S
C1132 C1134 1.395 . S
C1132 C1135 1.403 . S
H1133 C1139 0.930 . S
C1134 H1120 0.930 . S
C1134 C1132 1.395 . S
C1134 C1137 1.403 . S
C1135 C1132 1.403 . S
C1135 C1136 1.524 . S
C1135 C1139 1.400 . S
C1136 H1121 0.960 . S
C1136 H1122 0.960 . S
C1136 H1123 0.960 . S
C1136 C1135 1.524 . S
C1137 C1134 1.403 . S
C1137 C1138 1.392 . S
C1137 C1141 1.495 . S
C1138 C1137 1.392 . S
C1138 C1139 1.385 . S
C1138 C1140 1.478 . S
C1139 H1133 0.930 . S
C1139 C1135 1.400 . S
C1139 C1138 1.385 . S
C1140 C1138 1.478 . S
C1140 C1142 1.381 . S
C1140 C1146 1.383 . S
C1141 C1137 1.495 . S
C1141 H1147 0.959 . S
C1141 H1148 0.961 . S
C1141 H1149 0.960 . S
C1142 C1140 1.381 . S
C1142 C1143 1.394 . S
C1142 H1150 0.930 . S
C1143 C1142 1.394 . S
C1143 C1144 1.383 . S
C1143 H1151 0.929 . S
C1144 C1143 1.383 . S
C1144 C1145 1.377 . S
C1145 H1129 0.930 1_554 S
C1145 C1144 1.377 . S
C1145 C1146 1.379 . S
C1146 H1130 0.931 1_554 S
C1146 C1140 1.383 . S
C1146 C1145 1.379 . S
H1147 C1141 0.959 . S
H1148 C1141 0.961 . S
H1149 C1141 0.960 . S
H1150 C1142 0.930 . S
H1151 C1143 0.929 . S
H1152 C1160 0.929 . S
H1153 C1162 0.930 . S
H1154 C1164 0.930 . S
H1155 C1167 0.929 . S
H1156 C1170 0.930 . S
H1157 C1172 0.960 . S
H1158 C1172 0.960 . S
H1159 C1172 0.960 . S
C1160 H1152 0.929 . S
C1160 C1161 1.377 . S
C1160 C1162 1.384 . S
C1161 C1160 1.377 . S
C1161 C1167 1.390 . S
C1162 H1153 0.930 . S
C1162 C1160 1.384 . S
C1162 C1163 1.372 . S
C1163 C1162 1.372 . S
C1163 C1164 1.400 . S
C1163 C1168 1.490 . S
C1164 H1154 0.930 . S
C1164 C1163 1.400 . S
C1164 C1167 1.386 . S
H1165 C1181 0.930 . S
H1166 C1182 0.931 . S
C1167 H1155 0.929 . S
C1167 C1161 1.390 . S
C1167 C1164 1.386 . S
C1168 C1163 1.490 . S
C1168 C1170 1.395 . S
C1168 C1171 1.403 . S
H1169 C1175 0.930 . S
C1170 H1156 0.930 . S
C1170 C1168 1.395 . S
C1170 C1173 1.403 . S
C1171 C1168 1.403 . S
C1171 C1172 1.524 . S
C1171 C1175 1.400 . S
C1172 H1157 0.960 . S
C1172 H1158 0.960 . S
C1172 H1159 0.960 . S
C1172 C1171 1.524 . S
C1173 C1170 1.403 . S
C1173 C1174 1.392 . S
C1173 C1177 1.495 . S
C1174 C1173 1.392 . S
C1174 C1175 1.385 . S
C1174 C1176 1.478 . S
C1175 H1169 0.930 . S
C1175 C1171 1.400 . S
C1175 C1174 1.385 . S
C1176 C1174 1.478 . S
C1176 C1178 1.381 . S
C1176 C1182 1.383 . S
C1177 C1173 1.495 . S
C1177 H1183 0.959 . S
C1177 H1184 0.961 . S
C1177 H1185 0.960 . S
C1178 C1176 1.381 . S
C1178 C1179 1.394 . S
C1178 H1186 0.930 . S
C1179 C1178 1.394 . S
C1179 C1180 1.383 . S
C1179 H1187 0.929 . S
C1180 C1179 1.383 . S
C1180 C1181 1.377 . S
C1181 H1165 0.930 . S
C1181 C1180 1.377 . S
C1181 C1182 1.379 . S
C1182 H1166 0.931 . S
C1182 C1176 1.383 . S
C1182 C1181 1.379 . S
H1183 C1177 0.959 . S
H1184 C1177 0.961 . S
H1185 C1177 0.960 . S
H1186 C1178 0.930 . S
H1187 C1179 0.929 . S
H1188 C1196 0.929 . S
H1189 C1198 0.930 . S
H1190 C1200 0.930 . S
H1191 C1203 0.929 . S
H1192 C1206 0.930 . S
H1193 C1208 0.960 . S
H1194 C1208 0.960 . S
H1195 C1208 0.960 . S
C1196 H1188 0.929 . S
C1196 C1197 1.377 . S
C1196 C1198 1.384 . S
C1197 C1196 1.377 . S
C1197 C1203 1.390 . S
C1198 H1189 0.930 . S
C1198 C1196 1.384 . S
C1198 C1199 1.372 . S
C1199 C1198 1.372 . S
C1199 C1200 1.400 . S
C1199 C1204 1.490 . S
C1200 H1190 0.930 . S
C1200 C1199 1.400 . S
C1200 C1203 1.386 . S
H1201 C1217 0.930 . S
H1202 C1218 0.931 . S
C1203 H1191 0.929 . S
C1203 C1197 1.390 . S
C1203 C1200 1.386 . S
C1204 C1199 1.490 . S
C1204 C1206 1.395 . S
C1204 C1207 1.403 . S
H1205 C1211 0.930 . S
C1206 H1192 0.930 . S
C1206 C1204 1.395 . S
C1206 C1209 1.403 . S
C1207 C1204 1.403 . S
C1207 C1208 1.524 . S
C1207 C1211 1.400 . S
C1208 H1193 0.960 . S
C1208 H1194 0.960 . S
C1208 H1195 0.960 . S
C1208 C1207 1.524 . S
C1209 C1206 1.403 . S
C1209 C1210 1.392 . S
C1209 C1213 1.495 . S
C1210 C1209 1.392 . S
C1210 C1211 1.385 . S
C1210 C1212 1.478 . S
C1211 H1205 0.930 . S
C1211 C1207 1.400 . S
C1211 C1210 1.385 . S
C1212 C1210 1.478 . S
C1212 C1214 1.381 . S
C1212 C1218 1.383 . S
C1213 C1209 1.495 . S
C1213 H1219 0.959 . S
C1213 H1220 0.961 . S
C1213 H1221 0.960 . S
C1214 C1212 1.381 . S
C1214 C1215 1.394 . S
C1214 H1222 0.930 . S
C1215 C1214 1.394 . S
C1215 C1216 1.383 . S
C1215 H1223 0.929 . S
C1216 C1215 1.383 . S
C1216 C1217 1.377 . S
C1217 H1201 0.930 . S
C1217 C1216 1.377 . S
C1217 C1218 1.379 . S
C1218 H1202 0.931 . S
C1218 C1212 1.383 . S
C1218 C1217 1.379 . S
H1219 C1213 0.959 . S
H1220 C1213 0.961 . S
H1221 C1213 0.960 . S
H1222 C1214 0.930 . S
H1223 C1215 0.929 . S
H1224 C1232 0.929 . S
H1225 C1234 0.930 . S
H1226 C1236 0.930 . S
H1227 C1239 0.929 . S
H1228 C1242 0.930 . S
H1229 C1244 0.960 . S
H1230 C1244 0.960 . S
H1231 C1244 0.960 . S
C1232 H1224 0.929 . S
C1232 C1233 1.377 . S
C1232 C1234 1.384 . S
C1233 C1232 1.377 . S
C1233 C1239 1.390 . S
C1234 H1225 0.930 . S
C1234 C1232 1.384 . S
C1234 C1235 1.372 . S
C1235 C1234 1.372 . S
C1235 C1236 1.400 . S
C1235 C1240 1.490 . S
C1236 H1226 0.930 . S
C1236 C1235 1.400 . S
C1236 C1239 1.386 . S
H1237 C1253 0.930 . S
H1238 C1254 0.931 . S
C1239 H1227 0.929 . S
C1239 C1233 1.390 . S
C1239 C1236 1.386 . S
C1240 C1235 1.490 . S
C1240 C1242 1.395 . S
C1240 C1243 1.403 . S
H1241 C1247 0.930 . S
C1242 H1228 0.930 . S
C1242 C1240 1.395 . S
C1242 C1245 1.403 1_455 S
C1243 C1240 1.403 . S
C1243 C1244 1.524 . S
C1243 C1247 1.400 1_455 S
C1244 H1229 0.960 . S
C1244 H1230 0.960 . S
C1244 H1231 0.960 . S
C1244 C1243 1.524 . S
C1245 C1242 1.403 1_655 S
C1245 C1246 1.392 . S
C1245 C1249 1.495 . S
C1246 C1245 1.392 . S
C1246 C1247 1.385 . S
C1246 C1248 1.478 . S
C1247 H1241 0.930 . S
C1247 C1243 1.400 1_655 S
C1247 C1246 1.385 . S
C1248 C1246 1.478 . S
C1248 C1250 1.381 . S
C1248 C1254 1.383 . S
C1249 C1245 1.495 . S
C1249 H1255 0.959 . S
C1249 H1256 0.961 . S
C1249 H1257 0.960 . S
C1250 C1248 1.381 . S
C1250 C1251 1.394 . S
C1250 H1258 0.930 . S
C1251 C1250 1.394 . S
C1251 C1252 1.383 . S
C1251 H1259 0.929 . S
C1252 C1251 1.383 . S
C1252 C1253 1.377 . S
C1253 H1237 0.930 . S
C1253 C1252 1.377 . S
C1253 C1254 1.379 . S
C1254 H1238 0.931 . S
C1254 C1248 1.383 . S
C1254 C1253 1.379 . S
H1255 C1249 0.959 . S
H1256 C1249 0.961 . S
H1257 C1249 0.960 . S
H1258 C1250 0.930 . S
H1259 C1251 0.929 . S
H1260 C1268 0.929 . S
H1261 C1270 0.930 . S
H1262 C1272 0.931 1_554 S
H1263 C1275 0.927 1_654 S
H1264 C1278 0.930 . S
H1265 C1280 0.960 . S
H1266 C1280 0.960 . S
H1267 C1280 0.960 . S
C1268 H1260 0.929 . S
C1268 C1269 1.377 . S
C1268 C1270 1.384 . S
C1269 C1268 1.377 . S
C1269 C1275 1.390 . S
C1270 H1261 0.930 . S
C1270 C1268 1.384 . S
C1270 C1271 1.372 . S
C1271 C1270 1.372 . S
C1271 C1272 1.399 1_455 S
C1271 C1276 1.490 . S
C1272 H1262 0.931 1_556 S
C1272 C1271 1.399 1_655 S
C1272 C1275 1.385 1_655 S
H1273 C1289 0.930 1_554 S
H1274 C1290 0.931 1_554 S
C1275 H1263 0.927 1_456 S
C1275 C1269 1.390 . S
C1275 C1272 1.385 1_455 S
C1276 C1271 1.490 . S
C1276 C1278 1.395 . S
C1276 C1279 1.403 1_455 S
H1277 C1283 0.930 . S
C1278 H1264 0.930 . S
C1278 C1276 1.395 . S
C1278 C1281 1.403 . S
C1279 C1276 1.403 1_655 S
C1279 C1280 1.524 . S
C1279 C1283 1.400 . S
C1280 H1265 0.960 . S
C1280 H1266 0.960 . S
C1280 H1267 0.960 . S
C1280 C1279 1.524 . S
C1281 C1278 1.403 . S
C1281 C1282 1.392 . S
C1281 C1285 1.495 . S
C1282 C1281 1.392 . S
C1282 C1283 1.385 1_455 S
C1282 C1284 1.478 . S
C1283 H1277 0.930 . S
C1283 C1279 1.400 . S
C1283 C1282 1.385 1_655 S
C1284 C1282 1.478 . S
C1284 C1286 1.381 . S
C1284 C1290 1.383 1_455 S
C1285 C1281 1.495 . S
C1285 H1291 0.959 . S
C1285 H1292 0.961 . S
C1285 H1293 0.960 . S
C1286 C1284 1.381 . S
C1286 C1287 1.394 1_455 S
C1286 H1294 0.930 . S
C1287 C1286 1.394 1_655 S
C1287 C1288 1.383 . S
C1287 H1295 0.929 . S
C1288 C1287 1.383 . S
C1288 C1289 1.377 . S
C1289 H1273 0.930 1_556 S
C1289 C1288 1.377 . S
C1289 C1290 1.379 . S
C1290 H1274 0.931 1_556 S
C1290 C1284 1.383 1_655 S
C1290 C1289 1.379 . S
H1291 C1285 0.959 . S
H1292 C1285 0.961 . S
H1293 C1285 0.960 . S
H1294 C1286 0.930 . S
H1295 C1287 0.929 . S
H1296 C1304 0.929 . S
H1297 C1306 0.930 . S
H1298 C1308 0.930 . S
H1299 C1311 0.929 . S
H1300 C1314 0.930 . S
H1301 C1316 0.960 . S
H1302 C1316 0.960 . S
H1303 C1316 0.960 . S
C1304 H1296 0.929 . S
C1304 C1305 1.377 . S
C1304 C1306 1.384 . S
C1305 C1304 1.377 . S
C1305 C1311 1.390 . S
C1306 H1297 0.930 . S
C1306 C1304 1.384 . S
C1306 C1307 1.372 . S
C1307 C1306 1.372 . S
C1307 C1308 1.400 . S
C1307 C1312 1.490 . S
C1308 H1298 0.930 . S
C1308 C1307 1.400 . S
C1308 C1311 1.386 . S
H1309 C1325 0.930 . S
H1310 C1326 0.931 . S
C1311 H1299 0.929 . S
C1311 C1305 1.390 . S
C1311 C1308 1.386 . S
C1312 C1307 1.490 . S
C1312 C1314 1.395 . S
C1312 C1315 1.403 . S
H1313 C1319 0.930 . S
C1314 H1300 0.930 . S
C1314 C1312 1.395 . S
C1314 C1317 1.403 . S
C1315 C1312 1.403 . S
C1315 C1316 1.524 . S
C1315 C1319 1.400 . S
C1316 H1301 0.960 . S
C1316 H1302 0.960 . S
C1316 H1303 0.960 . S
C1316 C1315 1.524 . S
C1317 C1314 1.403 . S
C1317 C1318 1.392 . S
C1317 C1321 1.495 . S
C1318 C1317 1.392 . S
C1318 C1319 1.385 . S
C1318 C1320 1.478 . S
C1319 H1313 0.930 . S
C1319 C1315 1.400 . S
C1319 C1318 1.385 . S
C1320 C1318 1.478 . S
C1320 C1322 1.381 . S
C1320 C1326 1.383 . S
C1321 C1317 1.495 . S
C1321 H1327 0.959 . S
C1321 H1328 0.961 . S
C1321 H1329 0.960 . S
C1322 C1320 1.381 . S
C1322 C1323 1.394 . S
C1322 H1330 0.930 . S
C1323 C1322 1.394 . S
C1323 C1324 1.383 . S
C1323 H1331 0.929 . S
C1324 C1323 1.383 . S
C1324 C1325 1.377 . S
C1325 H1309 0.930 . S
C1325 C1324 1.377 . S
C1325 C1326 1.379 . S
C1326 H1310 0.931 . S
C1326 C1320 1.383 . S
C1326 C1325 1.379 . S
H1327 C1321 0.959 . S
H1328 C1321 0.961 . S
H1329 C1321 0.960 . S
H1330 C1322 0.930 . S
H1331 C1323 0.929 . S
H1332 C1340 0.929 . S
H1333 C1342 0.930 . S
H1334 C1344 0.930 . S
H1335 C1347 0.929 . S
H1336 C1350 0.930 . S
H1337 C1352 0.960 . S
H1338 C1352 0.960 . S
H1339 C1352 0.960 . S
C1340 H1332 0.929 . S
C1340 C1341 1.377 . S
C1340 C1342 1.384 . S
C1341 C1340 1.377 . S
C1341 C1347 1.390 . S
C1342 H1333 0.930 . S
C1342 C1340 1.384 . S
C1342 C1343 1.372 . S
C1343 C1342 1.372 . S
C1343 C1344 1.400 . S
C1343 C1348 1.490 . S
C1344 H1334 0.930 . S
C1344 C1343 1.400 . S
C1344 C1347 1.386 . S
H1345 C1361 0.930 . S
H1346 C1362 0.931 . S
C1347 H1335 0.929 . S
C1347 C1341 1.390 . S
C1347 C1344 1.386 . S
C1348 C1343 1.490 . S
C1348 C1350 1.395 . S
C1348 C1351 1.403 . S
H1349 C1355 0.930 . S
C1350 H1336 0.930 . S
C1350 C1348 1.395 . S
C1350 C1353 1.403 1_545 S
C1351 C1348 1.403 . S
C1351 C1352 1.524 . S
C1351 C1355 1.400 1_545 S
C1352 H1337 0.960 . S
C1352 H1338 0.960 . S
C1352 H1339 0.960 . S
C1352 C1351 1.524 . S
C1353 C1350 1.403 1_565 S
C1353 C1354 1.392 . S
C1353 C1357 1.495 . S
C1354 C1353 1.392 . S
C1354 C1355 1.385 . S
C1354 C1356 1.478 . S
C1355 H1349 0.930 . S
C1355 C1351 1.400 1_565 S
C1355 C1354 1.385 . S
C1356 C1354 1.478 . S
C1356 C1358 1.381 . S
C1356 C1362 1.383 . S
C1357 C1353 1.495 . S
C1357 H1363 0.959 . S
C1357 H1364 0.961 . S
C1357 H1365 0.960 . S
C1358 C1356 1.381 . S
C1358 C1359 1.394 . S
C1358 H1366 0.930 . S
C1359 C1358 1.394 . S
C1359 C1360 1.383 . S
C1359 H1367 0.929 . S
C1360 C1359 1.383 . S
C1360 C1361 1.377 . S
C1361 H1345 0.930 . S
C1361 C1360 1.377 . S
C1361 C1362 1.379 . S
C1362 H1346 0.931 . S
C1362 C1356 1.383 . S
C1362 C1361 1.379 . S
H1363 C1357 0.959 . S
H1364 C1357 0.961 . S
H1365 C1357 0.960 . S
H1366 C1358 0.930 . S
H1367 C1359 0.929 . S
H1368 C1376 0.929 . S
H1369 C1378 0.930 . S
H1370 C1380 0.930 . S
H1371 C1383 0.929 . S
H1372 C1386 0.930 . S
H1373 C1388 0.960 . S
H1374 C1388 0.960 . S
H1375 C1388 0.960 . S
C1376 H1368 0.929 . S
C1376 C1377 1.377 . S
C1376 C1378 1.384 . S
C1377 C1376 1.377 . S
C1377 C1383 1.390 1_554 S
C1378 H1369 0.930 . S
C1378 C1376 1.384 . S
C1378 C1379 1.372 . S
C1379 C1378 1.372 . S
C1379 C1380 1.400 1_554 S
C1379 C1384 1.490 . S
C1380 H1370 0.930 . S
C1380 C1379 1.400 1_556 S
C1380 C1383 1.386 . S
H1381 C1397 0.930 . S
H1382 C1398 0.931 . S
C1383 H1371 0.929 . S
C1383 C1377 1.390 1_556 S
C1383 C1380 1.386 . S
C1384 C1379 1.490 . S
C1384 C1386 1.395 1_554 S
C1384 C1387 1.403 . S
H1385 C1391 0.930 . S
C1386 H1372 0.930 . S
C1386 C1384 1.395 1_556 S
C1386 C1389 1.403 . S
C1387 C1384 1.403 . S
C1387 C1388 1.524 . S
C1387 C1391 1.400 . S
C1388 H1373 0.960 . S
C1388 H1374 0.960 . S
C1388 H1375 0.960 . S
C1388 C1387 1.524 . S
C1389 C1386 1.403 . S
C1389 C1390 1.392 . S
C1389 C1393 1.495 . S
C1390 C1389 1.392 . S
C1390 C1391 1.385 1_556 S
C1390 C1392 1.478 . S
C1391 H1385 0.930 . S
C1391 C1387 1.400 . S
C1391 C1390 1.385 1_554 S
C1392 C1390 1.478 . S
C1392 C1394 1.381 1_556 S
C1392 C1398 1.383 . S
C1393 C1389 1.495 . S
C1393 H1399 0.959 . S
C1393 H1400 0.961 . S
C1393 H1401 0.960 . S
C1394 C1392 1.381 1_554 S
C1394 C1395 1.394 . S
C1394 H1402 0.930 . S
C1395 C1394 1.394 . S
C1395 C1396 1.383 1_554 S
C1395 H1403 0.929 . S
C1396 C1395 1.383 1_556 S
C1396 C1397 1.377 . S
C1397 H1381 0.930 . S
C1397 C1396 1.377 . S
C1397 C1398 1.379 . S
C1398 H1382 0.931 . S
C1398 C1392 1.383 . S
C1398 C1397 1.379 . S
H1399 C1393 0.959 . S
H1400 C1393 0.961 . S
H1401 C1393 0.960 . S
H1402 C1394 0.930 . S
H1403 C1395 0.929 . S
H1404 C1412 0.929 . S
H1405 C1414 0.930 . S
H1406 C1416 0.930 . S
H1407 C1419 0.929 . S
H1408 C1422 0.930 . S
H1409 C1424 0.960 . S
H1410 C1424 0.960 . S
H1411 C1424 0.960 . S
C1412 H1404 0.929 . S
C1412 C1413 1.377 . S
C1412 C1414 1.384 . S
C1413 C1412 1.377 . S
C1413 C1419 1.390 . S
C1414 H1405 0.930 . S
C1414 C1412 1.384 . S
C1414 C1415 1.372 . S
C1415 C1414 1.372 . S
C1415 C1416 1.400 . S
C1415 C1420 1.490 . S
C1416 H1406 0.930 . S
C1416 C1415 1.400 . S
C1416 C1419 1.386 . S
H1417 C1433 0.930 . S
H1418 C1434 0.931 . S
C1419 H1407 0.929 . S
C1419 C1413 1.390 . S
C1419 C1416 1.386 . S
C1420 C1415 1.490 . S
C1420 C1422 1.395 . S
C1420 C1423 1.403 . S
H1421 C1427 0.930 . S
C1422 H1408 0.930 . S
C1422 C1420 1.395 . S
C1422 C1425 1.403 1_545 S
C1423 C1420 1.403 . S
C1423 C1424 1.524 . S
C1423 C1427 1.400 1_545 S
C1424 H1409 0.960 . S
C1424 H1410 0.960 . S
C1424 H1411 0.960 . S
C1424 C1423 1.524 . S
C1425 C1422 1.403 1_565 S
C1425 C1426 1.392 . S
C1425 C1429 1.495 . S
C1426 C1425 1.392 . S
C1426 C1427 1.385 . S
C1426 C1428 1.478 . S
C1427 H1421 0.930 . S
C1427 C1423 1.400 1_565 S
C1427 C1426 1.385 . S
C1428 C1426 1.478 . S
C1428 C1430 1.381 . S
C1428 C1434 1.383 . S
C1429 C1425 1.495 . S
C1429 H1435 0.959 . S
C1429 H1436 0.961 . S
C1429 H1437 0.960 . S
C1430 C1428 1.381 . S
C1430 C1431 1.394 . S
C1430 H1438 0.930 . S
C1431 C1430 1.394 . S
C1431 C1432 1.383 . S
C1431 H1439 0.929 . S
C1432 C1431 1.383 . S
C1432 C1433 1.377 . S
C1433 H1417 0.930 . S
C1433 C1432 1.377 . S
C1433 C1434 1.379 . S
C1434 H1418 0.931 . S
C1434 C1428 1.383 . S
C1434 C1433 1.379 . S
H1435 C1429 0.959 . S
H1436 C1429 0.961 . S
H1437 C1429 0.960 . S
H1438 C1430 0.930 . S
H1439 C1431 0.929 . S
H1440 C1448 0.929 1_545 S
H1441 C1450 0.930 1_545 S
H1442 C1452 0.930 . S
H1443 C1455 0.929 . S
H1444 C1458 0.930 . S
H1445 C1460 0.960 . S
H1446 C1460 0.960 . S
H1447 C1460 0.946 1_565 S
C1448 H1440 0.929 1_565 S
C1448 C1449 1.377 . S
C1448 C1450 1.384 . S
C1449 C1448 1.377 . S
C1449 C1455 1.390 1_556 S
C1450 H1441 0.930 1_565 S
C1450 C1448 1.384 . S
C1450 C1451 1.372 . S
C1451 C1450 1.372 . S
C1451 C1452 1.400 1_556 S
C1451 C1456 1.490 . S
C1452 H1442 0.930 . S
C1452 C1451 1.400 1_554 S
C1452 C1455 1.386 . S
H1453 C1469 0.930 . S
H1454 C1470 0.931 . S
C1455 H1443 0.929 . S
C1455 C1449 1.390 1_554 S
C1455 C1452 1.386 . S
C1456 C1451 1.490 . S
C1456 C1458 1.395 . S
C1456 C1459 1.403 1_556 S
H1457 C1463 0.930 1_545 S
C1458 H1444 0.930 . S
C1458 C1456 1.395 . S
C1458 C1461 1.403 . S
C1459 C1456 1.403 1_554 S
C1459 C1460 1.524 1_565 S
C1459 C1463 1.400 . S
C1460 H1445 0.960 . S
C1460 H1446 0.960 . S
C1460 H1447 0.946 1_545 S
C1460 C1459 1.524 1_545 S
C1461 C1458 1.403 . S
C1461 C1462 1.392 . S
C1461 C1465 1.495 . S
C1462 C1461 1.392 . S
C1462 C1463 1.385 1_556 S
C1462 C1464 1.478 1_556 S
C1463 H1457 0.930 1_565 S
C1463 C1459 1.400 . S
C1463 C1462 1.385 1_554 S
C1464 C1462 1.478 1_554 S
C1464 C1466 1.381 1_554 S
C1464 C1470 1.383 . S
C1465 C1461 1.495 . S
C1465 H1471 0.959 . S
C1465 H1472 0.961 . S
C1465 H1473 0.960 . S
C1466 C1464 1.381 1_556 S
C1466 C1467 1.394 . S
C1466 H1474 0.930 1_565 S
C1467 C1466 1.394 . S
C1467 C1468 1.383 1_556 S
C1467 H1475 0.929 1_565 S
C1468 C1467 1.383 1_554 S
C1468 C1469 1.377 . S
C1469 H1453 0.930 . S
C1469 C1468 1.377 . S
C1469 C1470 1.379 . S
C1470 H1454 0.931 . S
C1470 C1464 1.383 . S
C1470 C1469 1.379 . S
H1471 C1465 0.959 . S
H1472 C1465 0.961 . S
H1473 C1465 0.960 . S
H1474 C1466 0.930 1_545 S
H1475 C1467 0.929 1_545 S
H1476 C1484 0.929 . S
H1477 C1486 0.930 . S
H1478 C1488 0.930 . S
H1479 C1491 0.929 . S
H1480 C1494 0.930 . S
H1481 C1496 0.960 . S
H1482 C1496 0.960 . S
H1483 C1496 0.960 . S
C1484 H1476 0.929 . S
C1484 C1485 1.377 . S
C1484 C1486 1.384 . S
C1485 C1484 1.377 . S
C1485 C1491 1.390 . S
C1486 H1477 0.930 . S
C1486 C1484 1.384 . S
C1486 C1487 1.372 . S
C1487 C1486 1.372 . S
C1487 C1488 1.400 . S
C1487 C1492 1.490 . S
C1488 H1478 0.930 . S
C1488 C1487 1.400 . S
C1488 C1491 1.386 . S
H1489 C1505 0.930 . S
H1490 C1506 0.931 . S
C1491 H1479 0.929 . S
C1491 C1485 1.390 . S
C1491 C1488 1.386 . S
C1492 C1487 1.490 . S
C1492 C1494 1.395 . S
C1492 C1495 1.403 . S
H1493 C1499 0.930 . S
C1494 H1480 0.930 . S
C1494 C1492 1.395 . S
C1494 C1497 1.403 . S
C1495 C1492 1.403 . S
C1495 C1496 1.524 . S
C1495 C1499 1.400 . S
C1496 H1481 0.960 . S
C1496 H1482 0.960 . S
C1496 H1483 0.960 . S
C1496 C1495 1.524 . S
C1497 C1494 1.403 . S
C1497 C1498 1.392 . S
C1497 C1501 1.495 . S
C1498 C1497 1.392 . S
C1498 C1499 1.385 . S
C1498 C1500 1.478 . S
C1499 H1493 0.930 . S
C1499 C1495 1.400 . S
C1499 C1498 1.385 . S
C1500 C1498 1.478 . S
C1500 C1502 1.381 . S
C1500 C1506 1.383 . S
C1501 C1497 1.495 . S
C1501 H1507 0.959 . S
C1501 H1508 0.961 . S
C1501 H1509 0.960 . S
C1502 C1500 1.381 . S
C1502 C1503 1.394 . S
C1502 H1510 0.930 . S
C1503 C1502 1.394 . S
C1503 C1504 1.383 . S
C1503 H1511 0.929 . S
C1504 C1503 1.383 . S
C1504 C1505 1.377 . S
C1505 H1489 0.930 . S
C1505 C1504 1.377 . S
C1505 C1506 1.379 . S
C1506 H1490 0.931 . S
C1506 C1500 1.383 . S
C1506 C1505 1.379 . S
H1507 C1501 0.959 . S
H1508 C1501 0.961 . S
H1509 C1501 0.960 . S
H1510 C1502 0.930 . S
H1511 C1503 0.929 . S
H1512 C1520 0.929 . S
H1513 C1522 0.930 . S
H1514 C1524 0.930 . S
H1515 C1527 0.929 . S
H1516 C1530 0.930 . S
H1517 C1532 0.960 . S
H1518 C1532 0.960 . S
H1519 C1532 0.960 . S
C1520 H1512 0.929 . S
C1520 C1521 1.377 . S
C1520 C1522 1.384 . S
C1521 C1520 1.377 . S
C1521 C1527 1.390 . S
C1522 H1513 0.930 . S
C1522 C1520 1.384 . S
C1522 C1523 1.372 . S
C1523 C1522 1.372 . S
C1523 C1524 1.400 . S
C1523 C1528 1.490 . S
C1524 H1514 0.930 . S
C1524 C1523 1.400 . S
C1524 C1527 1.386 . S
H1525 C1541 0.930 . S
H1526 C1542 0.931 . S
C1527 H1515 0.929 . S
C1527 C1521 1.390 . S
C1527 C1524 1.386 . S
C1528 C1523 1.490 . S
C1528 C1530 1.395 . S
C1528 C1531 1.403 . S
H1529 C1535 0.930 . S
C1530 H1516 0.930 . S
C1530 C1528 1.395 . S
C1530 C1533 1.403 . S
C1531 C1528 1.403 . S
C1531 C1532 1.524 . S
C1531 C1535 1.400 . S
C1532 H1517 0.960 . S
C1532 H1518 0.960 . S
C1532 H1519 0.960 . S
C1532 C1531 1.524 . S
C1533 C1530 1.403 . S
C1533 C1534 1.392 . S
C1533 C1537 1.495 . S
C1534 C1533 1.392 . S
C1534 C1535 1.385 . S
C1534 C1536 1.478 . S
C1535 H1529 0.930 . S
C1535 C1531 1.400 . S
C1535 C1534 1.385 . S
C1536 C1534 1.478 . S
C1536 C1538 1.381 . S
C1536 C1542 1.383 . S
C1537 C1533 1.495 . S
C1537 H1543 0.959 . S
C1537 H1544 0.961 . S
C1537 H1545 0.960 . S
C1538 C1536 1.381 . S
C1538 C1539 1.394 . S
C1538 H1546 0.930 . S
C1539 C1538 1.394 . S
C1539 C1540 1.383 . S
C1539 H1547 0.929 . S
C1540 C1539 1.383 . S
C1540 C1541 1.377 . S
C1541 H1525 0.930 . S
C1541 C1540 1.377 . S
C1541 C1542 1.379 . S
C1542 H1526 0.931 . S
C1542 C1536 1.383 . S
C1542 C1541 1.379 . S
H1543 C1537 0.959 . S
H1544 C1537 0.961 . S
H1545 C1537 0.960 . S
H1546 C1538 0.930 . S
H1547 C1539 0.929 . S
H1548 C1556 0.929 . S
H1549 C1558 0.930 . S
H1550 C1560 0.930 . S
H1551 C1563 0.929 . S
H1552 C1566 0.930 . S
H1553 C1568 0.960 . S
H1554 C1568 0.960 . S
H1555 C1568 0.960 . S
C1556 H1548 0.929 . S
C1556 C1557 1.377 . S
C1556 C1558 1.384 . S
C1557 C1556 1.377 . S
C1557 C1563 1.390 . S
C1558 H1549 0.930 . S
C1558 C1556 1.384 . S
C1558 C1559 1.372 . S
C1559 C1558 1.372 . S
C1559 C1560 1.400 . S
C1559 C1564 1.490 . S
C1560 H1550 0.930 . S
C1560 C1559 1.400 . S
C1560 C1563 1.386 . S
H1561 C1577 0.930 . S
H1562 C1578 0.931 . S
C1563 H1551 0.929 . S
C1563 C1557 1.390 . S
C1563 C1560 1.386 . S
C1564 C1559 1.490 . S
C1564 C1566 1.395 . S
C1564 C1567 1.403 . S
H1565 C1571 0.930 . S
C1566 H1552 0.930 . S
C1566 C1564 1.395 . S
C1566 C1569 1.403 1_556 S
C1567 C1564 1.403 . S
C1567 C1568 1.524 . S
C1567 C1571 1.400 1_556 S
C1568 H1553 0.960 . S
C1568 H1554 0.960 . S
C1568 H1555 0.960 . S
C1568 C1567 1.524 . S
C1569 C1566 1.403 1_554 S
C1569 C1570 1.392 . S
C1569 C1573 1.495 . S
C1570 C1569 1.392 . S
C1570 C1571 1.385 . S
C1570 C1572 1.478 . S
C1571 H1565 0.930 . S
C1571 C1567 1.400 1_554 S
C1571 C1570 1.385 . S
C1572 C1570 1.478 . S
C1572 C1574 1.381 . S
C1572 C1578 1.383 . S
C1573 C1569 1.495 . S
C1573 H1579 0.959 . S
C1573 H1580 0.961 . S
C1573 H1581 0.960 . S
C1574 C1572 1.381 . S
C1574 C1575 1.394 . S
C1574 H1582 0.930 . S
C1575 C1574 1.394 . S
C1575 C1576 1.383 . S
C1575 H1583 0.929 . S
C1576 C1575 1.383 . S
C1576 C1577 1.377 . S
C1577 H1561 0.930 . S
C1577 C1576 1.377 . S
C1577 C1578 1.379 . S
C1578 H1562 0.931 . S
C1578 C1572 1.383 . S
C1578 C1577 1.379 . S
H1579 C1573 0.959 . S
H1580 C1573 0.961 . S
H1581 C1573 0.960 . S
H1582 C1574 0.930 . S
H1583 C1575 0.929 . S
H1584 C1592 0.929 . S
H1585 C1594 0.930 . S
H1586 C1596 0.930 . S
H1587 C1599 0.929 . S
H1588 C1602 0.930 . S
H1589 C1604 0.960 . S
H1590 C1604 0.960 . S
H1591 C1604 0.960 . S
C1592 H1584 0.929 . S
C1592 C1593 1.377 . S
C1592 C1594 1.384 . S
C1593 C1592 1.377 . S
C1593 C1599 1.390 . S
C1594 H1585 0.930 . S
C1594 C1592 1.384 . S
C1594 C1595 1.372 . S
C1595 C1594 1.372 . S
C1595 C1596 1.400 . S
C1595 C1600 1.490 . S
C1596 H1586 0.930 . S
C1596 C1595 1.400 . S
C1596 C1599 1.386 . S
H1597 C1613 0.930 . S
H1598 C1614 0.931 . S
C1599 H1587 0.929 . S
C1599 C1593 1.390 . S
C1599 C1596 1.386 . S
C1600 C1595 1.490 . S
C1600 C1602 1.395 . S
C1600 C1603 1.403 . S
H1601 C1607 0.930 . S
C1602 H1588 0.930 . S
C1602 C1600 1.395 . S
C1602 C1605 1.403 . S
C1603 C1600 1.403 . S
C1603 C1604 1.524 . S
C1603 C1607 1.400 . S
C1604 H1589 0.960 . S
C1604 H1590 0.960 . S
C1604 H1591 0.960 . S
C1604 C1603 1.524 . S
C1605 C1602 1.403 . S
C1605 C1606 1.392 . S
C1605 C1609 1.495 . S
C1606 C1605 1.392 . S
C1606 C1607 1.385 . S
C1606 C1608 1.478 . S
C1607 H1601 0.930 . S
C1607 C1603 1.400 . S
C1607 C1606 1.385 . S
C1608 C1606 1.478 . S
C1608 C1610 1.381 . S
C1608 C1614 1.383 . S
C1609 C1605 1.495 . S
C1609 H1615 0.959 . S
C1609 H1616 0.961 . S
C1609 H1617 0.960 . S
C1610 C1608 1.381 . S
C1610 C1611 1.394 . S
C1610 H1618 0.930 . S
C1611 C1610 1.394 . S
C1611 C1612 1.383 . S
C1611 H1619 0.929 . S
C1612 C1611 1.383 . S
C1612 C1613 1.377 . S
C1613 H1597 0.930 . S
C1613 C1612 1.377 . S
C1613 C1614 1.379 . S
C1614 H1598 0.931 . S
C1614 C1608 1.383 . S
C1614 C1613 1.379 . S
H1615 C1609 0.959 . S
H1616 C1609 0.961 . S
H1617 C1609 0.960 . S
H1618 C1610 0.930 . S
H1619 C1611 0.929 . S
H1620 C1628 0.929 . S
H1621 C1630 0.930 . S
H1622 C1632 0.930 . S
H1623 C1635 0.929 . S
H1624 C1638 0.930 . S
H1625 C1640 0.960 . S
H1626 C1640 0.960 . S
H1627 C1640 0.960 . S
C1628 H1620 0.929 . S
C1628 C1629 1.377 . S
C1628 C1630 1.384 . S
C1629 C1628 1.377 . S
C1629 C1635 1.390 . S
C1630 H1621 0.930 . S
C1630 C1628 1.384 . S
C1630 C1631 1.372 . S
C1631 C1630 1.372 . S
C1631 C1632 1.400 . S
C1631 C1636 1.490 . S
C1632 H1622 0.930 . S
C1632 C1631 1.400 . S
C1632 C1635 1.386 . S
H1633 C1649 0.930 . S
H1634 C1650 0.931 . S
C1635 H1623 0.929 . S
C1635 C1629 1.390 . S
C1635 C1632 1.386 . S
C1636 C1631 1.490 . S
C1636 C1638 1.395 . S
C1636 C1639 1.403 . S
H1637 C1643 0.930 . S
C1638 H1624 0.930 . S
C1638 C1636 1.395 . S
C1638 C1641 1.403 . S
C1639 C1636 1.403 . S
C1639 C1640 1.524 . S
C1639 C1643 1.400 . S
C1640 H1625 0.960 . S
C1640 H1626 0.960 . S
C1640 H1627 0.960 . S
C1640 C1639 1.524 . S
C1641 C1638 1.403 . S
C1641 C1642 1.392 . S
C1641 C1645 1.495 . S
C1642 C1641 1.392 . S
C1642 C1643 1.385 . S
C1642 C1644 1.478 . S
C1643 H1637 0.930 . S
C1643 C1639 1.400 . S
C1643 C1642 1.385 . S
C1644 C1642 1.478 . S
C1644 C1646 1.381 . S
C1644 C1650 1.383 . S
C1645 C1641 1.495 . S
C1645 H1651 0.959 . S
C1645 H1652 0.961 . S
C1645 H1653 0.960 . S
C1646 C1644 1.381 . S
C1646 C1647 1.394 . S
C1646 H1654 0.930 . S
C1647 C1646 1.394 . S
C1647 C1648 1.383 . S
C1647 H1655 0.929 . S
C1648 C1647 1.383 . S
C1648 C1649 1.377 . S
C1649 H1633 0.930 . S
C1649 C1648 1.377 . S
C1649 C1650 1.379 . S
C1650 H1634 0.931 . S
C1650 C1644 1.383 . S
C1650 C1649 1.379 . S
H1651 C1645 0.959 . S
H1652 C1645 0.961 . S
H1653 C1645 0.960 . S
H1654 C1646 0.930 . S
H1655 C1647 0.929 . S
H1656 C1664 0.929 1_455 S
H1657 C1666 0.930 1_455 S
H1658 C1668 0.930 . S
H1659 C1671 0.929 . S
H1660 C1674 0.930 . S
H1661 C1676 0.960 . S
H1662 C1676 0.960 . S
H1663 C1676 0.960 . S
C1664 H1656 0.929 1_655 S
C1664 C1665 1.377 . S
C1664 C1666 1.384 . S
C1665 C1664 1.377 . S
C1665 C1671 1.390 . S
C1666 H1657 0.930 1_655 S
C1666 C1664 1.384 . S
C1666 C1667 1.372 . S
C1667 C1666 1.372 . S
C1667 C1668 1.400 . S
C1667 C1672 1.490 . S
C1668 H1658 0.930 . S
C1668 C1667 1.400 . S
C1668 C1671 1.386 . S
H1669 C1685 0.930 . S
H1670 C1686 0.931 . S
C1671 H1659 0.929 . S
C1671 C1665 1.390 . S
C1671 C1668 1.386 . S
C1672 C1667 1.490 . S
C1672 C1674 1.395 1_655 S
C1672 C1675 1.403 . S
H1673 C1679 0.930 . S
C1674 H1660 0.930 . S
C1674 C1672 1.395 1_455 S
C1674 C1677 1.403 . S
C1675 C1672 1.403 . S
C1675 C1676 1.524 . S
C1675 C1679 1.400 . S
C1676 H1661 0.960 . S
C1676 H1662 0.960 . S
C1676 H1663 0.960 . S
C1676 C1675 1.524 . S
C1677 C1674 1.403 . S
C1677 C1678 1.392 1_455 S
C1677 C1681 1.495 . S
C1678 C1677 1.392 1_655 S
C1678 C1679 1.385 . S
C1678 C1680 1.478 . S
C1679 H1673 0.930 . S
C1679 C1675 1.400 . S
C1679 C1678 1.385 . S
C1680 C1678 1.478 . S
C1680 C1682 1.381 . S
C1680 C1686 1.383 . S
C1681 C1677 1.495 . S
C1681 H1687 0.959 . S
C1681 H1688 0.961 . S
C1681 H1689 0.960 . S
C1682 C1680 1.381 . S
C1682 C1683 1.394 . S
C1682 H1690 0.930 1_655 S
C1683 C1682 1.394 . S
C1683 C1684 1.383 . S
C1683 H1691 0.929 1_655 S
C1684 C1683 1.383 . S
C1684 C1685 1.377 . S
C1685 H1669 0.930 . S
C1685 C1684 1.377 . S
C1685 C1686 1.379 . S
C1686 H1670 0.931 . S
C1686 C1680 1.383 . S
C1686 C1685 1.379 . S
H1687 C1681 0.959 . S
H1688 C1681 0.961 . S
H1689 C1681 0.960 . S
H1690 C1682 0.930 1_455 S
H1691 C1683 0.929 1_455 S
H1692 C1700 0.929 . S
H1693 C1702 0.930 . S
H1694 C1704 0.930 . S
H1695 C1707 0.929 . S
H1696 C1710 0.930 . S
H1697 C1712 0.960 . S
H1698 C1712 0.960 . S
H1699 C1712 0.960 1_565 S
C1700 H1692 0.929 . S
C1700 C1701 1.377 . S
C1700 C1702 1.384 . S
C1701 C1700 1.377 . S
C1701 C1707 1.390 1_545 S
C1702 H1693 0.930 . S
C1702 C1700 1.384 . S
C1702 C1703 1.372 . S
C1703 C1702 1.372 . S
C1703 C1704 1.400 1_545 S
C1703 C1708 1.490 . S
C1704 H1694 0.930 . S
C1704 C1703 1.400 1_565 S
C1704 C1707 1.386 . S
H1705 C1721 0.930 . S
H1706 C1722 0.931 . S
C1707 H1695 0.929 . S
C1707 C1701 1.390 1_565 S
C1707 C1704 1.386 . S
C1708 C1703 1.490 . S
C1708 C1710 1.395 . S
C1708 C1711 1.403 . S
H1709 C1715 0.930 . S
C1710 H1696 0.930 . S
C1710 C1708 1.395 . S
C1710 C1713 1.403 . S
C1711 C1708 1.403 . S
C1711 C1712 1.524 . S
C1711 C1715 1.400 . S
C1712 H1697 0.960 . S
C1712 H1698 0.960 . S
C1712 H1699 0.960 1_545 S
C1712 C1711 1.524 . S
C1713 C1710 1.403 . S
C1713 C1714 1.392 . S
C1713 C1717 1.495 . S
C1714 C1713 1.392 . S
C1714 C1715 1.385 . S
C1714 C1716 1.478 . S
C1715 H1709 0.930 . S
C1715 C1711 1.400 . S
C1715 C1714 1.385 . S
C1716 C1714 1.478 . S
C1716 C1718 1.381 . S
C1716 C1722 1.383 1_545 S
C1717 C1713 1.495 . S
C1717 H1723 0.959 . S
C1717 H1724 0.961 . S
C1717 H1725 0.960 . S
C1718 C1716 1.381 . S
C1718 C1719 1.394 . S
C1718 H1726 0.930 . S
C1719 C1718 1.394 . S
C1719 C1720 1.383 . S
C1719 H1727 0.929 . S
C1720 C1719 1.383 . S
C1720 C1721 1.377 1_545 S
C1721 H1705 0.930 . S
C1721 C1720 1.377 1_565 S
C1721 C1722 1.379 . S
C1722 H1706 0.931 . S
C1722 C1716 1.383 1_565 S
C1722 C1721 1.379 . S
H1723 C1717 0.959 . S
H1724 C1717 0.961 . S
H1725 C1717 0.960 . S
H1726 C1718 0.930 . S
H1727 C1719 0.929 . S
C585 C4 1.949 . S
C604 C256 1.944 1_554 S
C621 C40 1.951 . S
C640 C148 1.938 . S
C657 C184 1.927 . S
C676 C76 1.931 . S
C693 C112 1.923 1_556 S
C712 C220 1.911 . S
C729 C292 1.924 . S
C748 C436 1.926 1_556 S
C765 C328 1.950 1_554 S
C784 C508 1.940 . S
C801 C400 1.951 . S
C820 C364 1.938 . S
C837 C544 1.923 . S
C856 C472 1.910 . S
C873 C3 1.176 . S
C892 C219 1.168 . S
C909 C266 0.821 1_565 S
C928 C50 0.861 1_545 S
C945 C75 1.176 . S
C964 C147 1.182 . S
C981 C194 0.822 . S
C1000 C122 0.832 . S
C1017 C2 1.356 . S
C1036 C506 1.345 . S
C1053 C399 1.191 . S
C1072 C39 1.183 . S
C1089 C470 1.299 . S
C1108 C74 1.296 . S
C1125 C435 1.159 . S
C1144 C111 1.147 . S
C1161 C362 1.357 . S
C1180 C146 1.353 . S
C1197 C183 1.159 . S
C1216 C543 1.147 . S
C1233 C218 1.297 . S
C1252 C290 1.296 . S
C1269 C255 1.191 . S
C1288 C327 1.182 . S
C1305 C14 0.822 . S
C1324 C158 0.795 . S
C1341 C302 0.842 . S
C1360 C482 0.861 . S
C1377 C434 1.265 . S
C1396 C326 1.252 . S
C1413 C518 0.811 . S
C1432 C374 0.857 . S
C1449 C254 1.267 . S
C1468 C110 1.254 . S
C1485 C86 0.835 . S
C1504 C230 0.883 . S
C1521 C398 1.265 . S
C1540 C542 1.267 . S
C1557 C471 1.177 . S
C1576 C363 1.180 . S
C1593 C554 0.819 . S
C1612 C446 0.815 . S
C1629 C507 1.175 . S
C1648 C291 1.166 . S
C1665 C410 0.841 . S
C1684 C338 0.806 . S
C1701 C38 1.264 . S
C1720 C182 1.258 . S
