# Generated by pormake.
# Topology umn, (4)-cn, num edge types: 1
# Building blocks:
#     Node 0, Type 0, BuildingBlock: ESEHIV_clean_sbu_0, # of connection points: 4
#     Node 1, Type 0, BuildingBlock: ESEHIV_clean_sbu_0, # of connection points: 4
#     Node 2, Type 0, BuildingBlock: ESEHIV_clean_sbu_0, # of connection points: 4
#     Node 3, Type 0, BuildingBlock: ESEHIV_clean_sbu_0, # of connection points: 4
#     Node 4, Type 0, BuildingBlock: ESEHIV_clean_sbu_0, # of connection points: 4
#     Node 5, Type 0, BuildingBlock: ESEHIV_clean_sbu_0, # of connection points: 4
#     Node 6, Type 0, BuildingBlock: ESEHIV_clean_sbu_0, # of connection points: 4
#     Node 7, Type 0, BuildingBlock: ESEHIV_clean_sbu_0, # of connection points: 4
#     Node 8, Type 0, BuildingBlock: ESEHIV_clean_sbu_0, # of connection points: 4
#     Node 9, Type 0, BuildingBlock: ESEHIV_clean_sbu_0, # of connection points: 4
#     Node 10, Type 0, BuildingBlock: ESEHIV_clean_sbu_0, # of connection points: 4
#     Node 11, Type 0, BuildingBlock: ESEHIV_clean_sbu_0, # of connection points: 4
#     Node 12, Type 0, BuildingBlock: ESEHIV_clean_sbu_0, # of connection points: 4
#     Node 13, Type 0, BuildingBlock: ESEHIV_clean_sbu_0, # of connection points: 4
#     Node 14, Type 0, BuildingBlock: ESEHIV_clean_sbu_0, # of connection points: 4
#     Node 15, Type 0, BuildingBlock: ESEHIV_clean_sbu_0, # of connection points: 4
#     Node 16, Type 0, BuildingBlock: ESEHIV_clean_sbu_0, # of connection points: 4
#     Node 17, Type 0, BuildingBlock: ESEHIV_clean_sbu_0, # of connection points: 4
#     Node 18, Type 0, BuildingBlock: ESEHIV_clean_sbu_0, # of connection points: 4
#     Node 19, Type 0, BuildingBlock: ESEHIV_clean_sbu_0, # of connection points: 4
#     Node 20, Type 0, BuildingBlock: ESEHIV_clean_sbu_0, # of connection points: 4
#     Node 21, Type 0, BuildingBlock: ESEHIV_clean_sbu_0, # of connection points: 4
#     Node 22, Type 0, BuildingBlock: ESEHIV_clean_sbu_0, # of connection points: 4
#     Node 23, Type 0, BuildingBlock: ESEHIV_clean_sbu_0, # of connection points: 4
#     Node 24, Type 0, BuildingBlock: ESEHIV_clean_sbu_0, # of connection points: 4
#     Node 25, Type 0, BuildingBlock: ESEHIV_clean_sbu_0, # of connection points: 4
#     Node 26, Type 0, BuildingBlock: ESEHIV_clean_sbu_0, # of connection points: 4
#     Node 27, Type 0, BuildingBlock: ESEHIV_clean_sbu_0, # of connection points: 4
#     Node 28, Type 0, BuildingBlock: ESEHIV_clean_sbu_0, # of connection points: 4
#     Node 29, Type 0, BuildingBlock: ESEHIV_clean_sbu_0, # of connection points: 4
#     Node 30, Type 0, BuildingBlock: ESEHIV_clean_sbu_0, # of connection points: 4
#     Node 31, Type 0, BuildingBlock: ESEHIV_clean_sbu_0, # of connection points: 4
#     Node 32, Type 0, BuildingBlock: ESEHIV_clean_sbu_0, # of connection points: 4
#     Node 33, Type 0, BuildingBlock: ESEHIV_clean_sbu_0, # of connection points: 4
#     Node 34, Type 0, BuildingBlock: ESEHIV_clean_sbu_0, # of connection points: 4
#     Node 35, Type 0, BuildingBlock: ESEHIV_clean_sbu_0, # of connection points: 4
#     Edge 36, Type (0, 0), BuildingBlock: AJUNOK_clean_linker_0, # of connection points: 2
#     Edge 37, Type (0, 0), BuildingBlock: AJUNOK_clean_linker_0, # of connection points: 2
#     Edge 38, Type (0, 0), BuildingBlock: AJUNOK_clean_linker_0, # of connection points: 2
#     Edge 39, Type (0, 0), BuildingBlock: AJUNOK_clean_linker_0, # of connection points: 2
#     Edge 40, Type (0, 0), BuildingBlock: AJUNOK_clean_linker_0, # of connection points: 2
#     Edge 41, Type (0, 0), BuildingBlock: AJUNOK_clean_linker_0, # of connection points: 2
#     Edge 42, Type (0, 0), BuildingBlock: AJUNOK_clean_linker_0, # of connection points: 2
#     Edge 43, Type (0, 0), BuildingBlock: AJUNOK_clean_linker_0, # of connection points: 2
#     Edge 44, Type (0, 0), BuildingBlock: AJUNOK_clean_linker_0, # of connection points: 2
#     Edge 45, Type (0, 0), BuildingBlock: AJUNOK_clean_linker_0, # of connection points: 2
#     Edge 46, Type (0, 0), BuildingBlock: AJUNOK_clean_linker_0, # of connection points: 2
#     Edge 47, Type (0, 0), BuildingBlock: AJUNOK_clean_linker_0, # of connection points: 2
#     Edge 48, Type (0, 0), BuildingBlock: AJUNOK_clean_linker_0, # of connection points: 2
#     Edge 49, Type (0, 0), BuildingBlock: AJUNOK_clean_linker_0, # of connection points: 2
#     Edge 50, Type (0, 0), BuildingBlock: AJUNOK_clean_linker_0, # of connection points: 2
#     Edge 51, Type (0, 0), BuildingBlock: AJUNOK_clean_linker_0, # of connection points: 2
#     Edge 52, Type (0, 0), BuildingBlock: AJUNOK_clean_linker_0, # of connection points: 2
#     Edge 53, Type (0, 0), BuildingBlock: AJUNOK_clean_linker_0, # of connection points: 2
#     Edge 54, Type (0, 0), BuildingBlock: AJUNOK_clean_linker_0, # of connection points: 2
#     Edge 55, Type (0, 0), BuildingBlock: AJUNOK_clean_linker_0, # of connection points: 2
#     Edge 56, Type (0, 0), BuildingBlock: AJUNOK_clean_linker_0, # of connection points: 2
#     Edge 57, Type (0, 0), BuildingBlock: AJUNOK_clean_linker_0, # of connection points: 2
#     Edge 58, Type (0, 0), BuildingBlock: AJUNOK_clean_linker_0, # of connection points: 2
#     Edge 59, Type (0, 0), BuildingBlock: AJUNOK_clean_linker_0, # of connection points: 2
#     Edge 60, Type (0, 0), BuildingBlock: AJUNOK_clean_linker_0, # of connection points: 2
#     Edge 61, Type (0, 0), BuildingBlock: AJUNOK_clean_linker_0, # of connection points: 2
#     Edge 62, Type (0, 0), BuildingBlock: AJUNOK_clean_linker_0, # of connection points: 2
#     Edge 63, Type (0, 0), BuildingBlock: AJUNOK_clean_linker_0, # of connection points: 2
#     Edge 64, Type (0, 0), BuildingBlock: AJUNOK_clean_linker_0, # of connection points: 2
#     Edge 65, Type (0, 0), BuildingBlock: AJUNOK_clean_linker_0, # of connection points: 2
#     Edge 66, Type (0, 0), BuildingBlock: AJUNOK_clean_linker_0, # of connection points: 2
#     Edge 67, Type (0, 0), BuildingBlock: AJUNOK_clean_linker_0, # of connection points: 2
#     Edge 68, Type (0, 0), BuildingBlock: AJUNOK_clean_linker_0, # of connection points: 2
#     Edge 69, Type (0, 0), BuildingBlock: AJUNOK_clean_linker_0, # of connection points: 2
#     Edge 70, Type (0, 0), BuildingBlock: AJUNOK_clean_linker_0, # of connection points: 2
#     Edge 71, Type (0, 0), BuildingBlock: AJUNOK_clean_linker_0, # of connection points: 2
#     Edge 72, Type (0, 0), BuildingBlock: AJUNOK_clean_linker_0, # of connection points: 2
#     Edge 73, Type (0, 0), BuildingBlock: AJUNOK_clean_linker_0, # of connection points: 2
#     Edge 74, Type (0, 0), BuildingBlock: AJUNOK_clean_linker_0, # of connection points: 2
#     Edge 75, Type (0, 0), BuildingBlock: AJUNOK_clean_linker_0, # of connection points: 2
#     Edge 76, Type (0, 0), BuildingBlock: AJUNOK_clean_linker_0, # of connection points: 2
#     Edge 77, Type (0, 0), BuildingBlock: AJUNOK_clean_linker_0, # of connection points: 2
#     Edge 78, Type (0, 0), BuildingBlock: AJUNOK_clean_linker_0, # of connection points: 2
#     Edge 79, Type (0, 0), BuildingBlock: AJUNOK_clean_linker_0, # of connection points: 2
#     Edge 80, Type (0, 0), BuildingBlock: AJUNOK_clean_linker_0, # of connection points: 2
#     Edge 81, Type (0, 0), BuildingBlock: AJUNOK_clean_linker_0, # of connection points: 2
#     Edge 82, Type (0, 0), BuildingBlock: AJUNOK_clean_linker_0, # of connection points: 2
#     Edge 83, Type (0, 0), BuildingBlock: AJUNOK_clean_linker_0, # of connection points: 2
#     Edge 84, Type (0, 0), BuildingBlock: AJUNOK_clean_linker_0, # of connection points: 2
#     Edge 85, Type (0, 0), BuildingBlock: AJUNOK_clean_linker_0, # of connection points: 2
#     Edge 86, Type (0, 0), BuildingBlock: AJUNOK_clean_linker_0, # of connection points: 2
#     Edge 87, Type (0, 0), BuildingBlock: AJUNOK_clean_linker_0, # of connection points: 2
#     Edge 88, Type (0, 0), BuildingBlock: AJUNOK_clean_linker_0, # of connection points: 2
#     Edge 89, Type (0, 0), BuildingBlock: AJUNOK_clean_linker_0, # of connection points: 2
#     Edge 90, Type (0, 0), BuildingBlock: AJUNOK_clean_linker_0, # of connection points: 2
#     Edge 91, Type (0, 0), BuildingBlock: AJUNOK_clean_linker_0, # of connection points: 2
#     Edge 92, Type (0, 0), BuildingBlock: AJUNOK_clean_linker_0, # of connection points: 2
#     Edge 93, Type (0, 0), BuildingBlock: AJUNOK_clean_linker_0, # of connection points: 2
#     Edge 94, Type (0, 0), BuildingBlock: AJUNOK_clean_linker_0, # of connection points: 2
#     Edge 95, Type (0, 0), BuildingBlock: AJUNOK_clean_linker_0, # of connection points: 2
#     Edge 96, Type (0, 0), BuildingBlock: AJUNOK_clean_linker_0, # of connection points: 2
#     Edge 97, Type (0, 0), BuildingBlock: AJUNOK_clean_linker_0, # of connection points: 2
#     Edge 98, Type (0, 0), BuildingBlock: AJUNOK_clean_linker_0, # of connection points: 2
#     Edge 99, Type (0, 0), BuildingBlock: AJUNOK_clean_linker_0, # of connection points: 2
#     Edge 100, Type (0, 0), BuildingBlock: AJUNOK_clean_linker_0, # of connection points: 2
#     Edge 101, Type (0, 0), BuildingBlock: AJUNOK_clean_linker_0, # of connection points: 2
#     Edge 102, Type (0, 0), BuildingBlock: AJUNOK_clean_linker_0, # of connection points: 2
#     Edge 103, Type (0, 0), BuildingBlock: AJUNOK_clean_linker_0, # of connection points: 2
#     Edge 104, Type (0, 0), BuildingBlock: AJUNOK_clean_linker_0, # of connection points: 2
#     Edge 105, Type (0, 0), BuildingBlock: AJUNOK_clean_linker_0, # of connection points: 2
#     Edge 106, Type (0, 0), BuildingBlock: AJUNOK_clean_linker_0, # of connection points: 2
#     Edge 107, Type (0, 0), BuildingBlock: AJUNOK_clean_linker_0, # of connection points: 2
# Relax obj value: 0.207
# Max RMSD: 0.205
# Mean RMSD: 0.205
data_MOF--net-umn--node1-ESEHIV_clean_sbu_0--edge1-AJUNOK_clean_linker_0
_symmetry_space_group_name_H-M    P1
_symmetry_Int_Tables_number       1
_symmetry_cell_setting            triclinic
loop_
_symmetry_equiv_pos_as_xyz
'x, y, z'
_cell_length_a     75.645014
_cell_length_b     75.772593
_cell_length_c     25.69234
_cell_angle_alpha  89.835509
_cell_angle_beta   90.089994
_cell_angle_gamma 119.94128
loop_
_atom_site_label
_atom_site_type_symbol
_atom_site_fract_x
_atom_site_fract_y
_atom_site_fract_z
_atom_type_partial_charge
Cu0 Cu 0.35623 0.09203 0.22723 0.0
N1 N 0.32904 0.0754 0.20931 0.0
N2 N 0.29937 0.04656 0.21573 0.0
C3 C 0.31979 0.05516 0.21529 0.0
C4 C 0.29546 0.06194 0.20957 0.0
C5 C 0.31391 0.07982 0.20476 0.0
O6 O 0.37122 0.08122 0.18735 0.0
C7 C 0.34374 0.09022 0.33217 0.0
O8 O 0.33131 0.0954 0.31037 0.0
H9 H 0.32789 0.04722 0.22557 0.0
H10 H 0.31607 0.09503 0.20367 0.0
N11 N 0.36411 0.11906 0.20854 0.0
N12 N 0.36325 0.14809 0.19906 0.0
C13 C 0.35565 0.13015 0.22463 0.0
C14 C 0.37748 0.13043 0.17122 0.0
C15 C 0.37698 0.14829 0.16527 0.0
C16 C 0.39047 0.08928 0.18105 0.0
O17 O 0.40261 0.10656 0.20458 0.0
H18 H 0.34327 0.12472 0.25216 0.0
H19 H 0.38637 0.12571 0.14832 0.0
O20 O 0.35664 0.08844 0.30361 0.0
H21 H 0.28054 0.06054 0.21259 0.0
H22 H 0.38568 0.16027 0.13739 0.0
Cu23 Cu 0.9256 0.27057 0.2261 0.0
N24 N 0.94493 0.26279 0.21357 0.0
N25 N 0.97203 0.25959 0.23133 0.0
C26 C 0.96143 0.26889 0.24375 0.0
C27 C 0.96213 0.24749 0.19047 0.0
C28 C 0.94518 0.24934 0.17986 0.0
O29 O 0.93221 0.29471 0.18318 0.0
C30 C 0.92549 0.26125 0.33124 0.0
O31 O 0.92079 0.2437 0.31004 0.0
H32 H 0.96556 0.28004 0.27439 0.0
H33 H 0.93367 0.24118 0.15056 0.0
N34 N 0.89954 0.249 0.2095 0.0
N35 N 0.87281 0.21755 0.19951 0.0
C36 C 0.89273 0.22883 0.21279 0.0
C37 C 0.88347 0.25054 0.19309 0.0
C38 C 0.867 0.2312 0.18669 0.0
C39 C 0.95028 0.30996 0.18026 0.0
O40 O 0.96456 0.31001 0.20952 0.0
H41 H 0.90225 0.22256 0.2241 0.0
H42 H 0.88368 0.26476 0.18668 0.0
O43 O 0.92751 0.27568 0.30142 0.0
H44 H 0.96662 0.23778 0.17048 0.0
H45 H 0.85182 0.22745 0.17451 0.0
Cu46 Cu 0.7561 0.66639 0.22746 0.0
N47 N 0.76753 0.6944 0.22009 0.0
N48 N 0.76868 0.72416 0.23003 0.0
C49 C 0.75698 0.70432 0.2177 0.0
C50 C 0.78742 0.72693 0.23962 0.0
C51 C 0.7867 0.70854 0.23304 0.0
O52 O 0.72919 0.65314 0.1924 0.0
C53 C 0.74821 0.67048 0.3341 0.0
O54 O 0.73984 0.68059 0.31446 0.0
H55 H 0.74051 0.69659 0.21447 0.0
H56 H 0.79868 0.70526 0.24283 0.0
N57 N 0.77473 0.65983 0.19776 0.0
N58 N 0.8044 0.66068 0.18391 0.0
C59 C 0.79294 0.66423 0.21806 0.0
C60 C 0.77477 0.6535 0.14889 0.0
C61 C 0.79296 0.65389 0.14036 0.0
C62 C 0.72033 0.6357 0.17037 0.0
O63 O 0.72884 0.62428 0.17281 0.0
H64 H 0.79803 0.67073 0.25637 0.0
H65 H 0.76295 0.65004 0.12038 0.0
O66 O 0.75461 0.66173 0.30305 0.0
H67 H 0.80007 0.74067 0.25544 0.0
H68 H 0.7979 0.6507 0.10382 0.0
Cu69 Cu 0.09565 0.34769 0.32652 0.0
N70 N 0.07929 0.31953 0.33125 0.0
N71 N 0.05059 0.29008 0.31837 0.0
C72 C 0.05883 0.30958 0.33406 0.0
C73 C 0.06649 0.28753 0.30618 0.0
C74 C 0.08422 0.30572 0.31452 0.0
O75 O 0.08155 0.35974 0.36444 0.0
C76 C 0.08295 0.34484 0.22159 0.0
O77 O 0.06471 0.3357 0.24269 0.0
H78 H 0.05012 0.31722 0.34 0.0
H79 H 0.09938 0.3092 0.30325 0.0
N80 N 0.12109 0.3544 0.35475 0.0
N81 N 0.1501 0.35369 0.36648 0.0
C82 C 0.13446 0.34955 0.33386 0.0
C83 C 0.12849 0.36186 0.40227 0.0
C84 C 0.14636 0.36144 0.40962 0.0
C85 C 0.08875 0.37792 0.38115 0.0
O86 O 0.10791 0.39137 0.37159 0.0
H87 H 0.13208 0.34202 0.29668 0.0
H88 H 0.12095 0.36645 0.43045 0.0
O89 O 0.0985 0.35315 0.25147 0.0
H90 H 0.0653 0.27419 0.28753 0.0
H91 H 0.15563 0.366 0.4445 0.0
Cu92 Cu 0.66448 0.74395 0.32803 0.0
N93 N 0.69135 0.75106 0.34114 0.0
N94 N 0.72147 0.75429 0.32174 0.0
C95 C 0.70131 0.74416 0.31214 0.0
C96 C 0.72433 0.76769 0.35976 0.0
C97 C 0.7056 0.76582 0.37133 0.0
O98 O 0.64677 0.71913 0.3687 0.0
C99 C 0.67553 0.75515 0.22396 0.0
O100 O 0.68961 0.77139 0.24788 0.0
H101 H 0.69392 0.73236 0.28313 0.0
H102 H 0.70276 0.77516 0.39793 0.0
N103 N 0.66039 0.76524 0.35025 0.0
N104 N 0.66514 0.79633 0.36654 0.0
C105 C 0.67229 0.78545 0.34182 0.0
C106 C 0.64521 0.76336 0.38123 0.0
C107 C 0.64807 0.78249 0.3913 0.0
C108 C 0.64614 0.70212 0.36228 0.0
O109 O 0.65676 0.70047 0.32412 0.0
H110 H 0.68623 0.79219 0.31937 0.0
H111 H 0.63299 0.74904 0.39585 0.0
O112 O 0.66175 0.74079 0.25162 0.0
H113 H 0.73894 0.77855 0.3763 0.0
H114 H 0.63826 0.78594 0.41452 0.0
Cu115 Cu 0.27251 0.92313 0.33762 0.0
N116 N 0.26698 0.94412 0.34827 0.0
N117 N 0.26636 0.97185 0.32229 0.0
C118 C 0.27671 0.96167 0.32171 0.0
C119 C 0.24985 0.96073 0.35242 0.0
C120 C 0.25016 0.94341 0.36812 0.0
O121 O 0.29727 0.92989 0.37864 0.0
C122 C 0.26166 0.92372 0.23282 0.0
O123 O 0.24706 0.9253 0.25598 0.0
H124 H 0.29029 0.96601 0.29887 0.0
H125 H 0.23812 0.93045 0.38837 0.0
N126 N 0.2505 0.89885 0.36305 0.0
N127 N 0.21933 0.87166 0.37367 0.0
C128 C 0.23169 0.88749 0.34245 0.0
C129 C 0.25006 0.88983 0.40858 0.0
C130 C 0.23094 0.87306 0.41513 0.0
C131 C 0.31562 0.94272 0.36582 0.0
O132 O 0.31907 0.95138 0.31974 0.0
H133 H 0.2272 0.8907 0.30526 0.0
H134 H 0.26269 0.89532 0.43558 0.0
O135 O 0.27458 0.92174 0.26103 0.0
H136 H 0.23769 0.96407 0.35904 0.0
H137 H 0.22582 0.86295 0.44849 0.0
Cu138 Cu 0.66509 0.9238 0.82475 0.0
N139 N 0.69229 0.94232 0.83859 0.0
N140 N 0.72328 0.96893 0.82534 0.0
C141 C 0.70376 0.95881 0.80925 0.0
C142 C 0.7242 0.95847 0.86686 0.0
C143 C 0.70495 0.94189 0.87482 0.0
O144 O 0.64806 0.93192 0.86509 0.0
C145 C 0.67472 0.92383 0.71882 0.0
O146 O 0.68807 0.91959 0.73936 0.0
H147 H 0.69786 0.96331 0.77651 0.0
H148 H 0.70058 0.93019 0.90421 0.0
N149 N 0.66002 0.89782 0.84514 0.0
N150 N 0.66439 0.871 0.86017 0.0
C151 C 0.67192 0.88946 0.83698 0.0
C152 C 0.64442 0.88422 0.87447 0.0
C153 C 0.64701 0.8677 0.88361 0.0
C154 C 0.65133 0.95018 0.8637 0.0
O155 O 0.66552 0.96318 0.83213 0.0
H156 H 0.68577 0.8968 0.81435 0.0
H157 H 0.6322 0.88635 0.88897 0.0
O158 O 0.66213 0.92537 0.74897 0.0
H159 H 0.73781 0.96228 0.88908 0.0
H160 H 0.63703 0.85444 0.90668 0.0
Cu161 Cu 0.09464 0.74839 0.82764 0.0
N162 N 0.07734 0.75905 0.83364 0.0
N163 N 0.05167 0.76384 0.81031 0.0
C164 C 0.0613 0.75324 0.80198 0.0
C165 C 0.06173 0.77655 0.85007 0.0
C166 C 0.07781 0.7737 0.86415 0.0
O167 O 0.0829 0.72388 0.87211 0.0
C168 C 0.09863 0.7583 0.72248 0.0
O169 O 0.10596 0.77636 0.74366 0.0
H170 H 0.05658 0.74111 0.7738 0.0
H171 H 0.08902 0.78175 0.89413 0.0
N172 N 0.12106 0.7681 0.84867 0.0
N173 N 0.14918 0.79841 0.86105 0.0
C174 C 0.1296 0.7885 0.84454 0.0
C175 C 0.13567 0.76502 0.86931 0.0
C176 C 0.15299 0.78368 0.87719 0.0
C177 C 0.08846 0.71056 0.87629 0.0
O178 O 0.10366 0.71244 0.84757 0.0
H179 H 0.12156 0.79597 0.83007 0.0
H180 H 0.13395 0.75024 0.87754 0.0
O181 O 0.0937 0.74303 0.75246 0.0
H182 H 0.05776 0.7871 0.8675 0.0
H183 H 0.16742 0.7862 0.89247 0.0
Cu184 Cu 0.27715 0.35994 0.82042 0.0
N185 N 0.2684 0.33278 0.83536 0.0
N186 N 0.26351 0.3016 0.82228 0.0
C187 C 0.27132 0.32057 0.80315 0.0
C188 C 0.25571 0.3019 0.86925 0.0
C189 C 0.25855 0.32122 0.877 0.0
O190 O 0.3023 0.3775 0.86048 0.0
C191 C 0.26631 0.35033 0.71566 0.0
O192 O 0.24862 0.33853 0.73796 0.0
H193 H 0.27988 0.32579 0.76722 0.0
H194 H 0.25407 0.32654 0.91078 0.0
N195 N 0.25625 0.36537 0.838 0.0
N196 N 0.22505 0.36122 0.85025 0.0
C197 C 0.23598 0.3521 0.83807 0.0
C198 C 0.25823 0.38343 0.8512 0.0
C199 C 0.23904 0.38091 0.85899 0.0
C200 C 0.31546 0.3721 0.87103 0.0
O201 O 0.31258 0.35474 0.85237 0.0
H202 H 0.22942 0.33606 0.82968 0.0
H203 H 0.27262 0.39751 0.85428 0.0
O204 O 0.28133 0.36228 0.74457 0.0
H205 H 0.24884 0.28922 0.89622 0.0
H206 H 0.23562 0.39275 0.86911 0.0
Cu207 Cu 0.92952 0.67101 0.72384 0.0
N208 N 0.94484 0.69929 0.71782 0.0
N209 N 0.97276 0.72982 0.72563 0.0
C210 C 0.96525 0.71004 0.71347 0.0
C211 C 0.9564 0.7317 0.7371 0.0
C212 C 0.93917 0.71286 0.73193 0.0
O213 O 0.94407 0.65977 0.6842 0.0
C214 C 0.94175 0.67531 0.8307 0.0
O215 O 0.95992 0.68795 0.812 0.0
H216 H 0.97457 0.70299 0.7086 0.0
H217 H 0.92393 0.70906 0.74312 0.0
N218 N 0.90353 0.66284 0.69659 0.0
N219 N 0.87421 0.66268 0.68188 0.0
C220 C 0.89057 0.66896 0.71348 0.0
C221 C 0.89489 0.65193 0.65335 0.0
C222 C 0.87677 0.65171 0.64432 0.0
C223 C 0.93825 0.64119 0.67361 0.0
O224 O 0.92066 0.62686 0.69188 0.0
H225 H 0.89345 0.6785 0.74726 0.0
H226 H 0.90157 0.64512 0.6292 0.0
O227 O 0.92709 0.66525 0.79893 0.0
H228 H 0.95703 0.74522 0.753 0.0
H229 H 0.86642 0.64416 0.6123 0.0
Cu230 Cu 0.35213 0.26326 0.72339 0.0
N231 N 0.32526 0.25686 0.71398 0.0
N232 N 0.2966 0.25736 0.73008 0.0
C233 C 0.31599 0.26404 0.74474 0.0
C234 C 0.29348 0.24557 0.68791 0.0
C235 C 0.31128 0.24518 0.6782 0.0
O236 O 0.36871 0.28941 0.68669 0.0
C237 C 0.34241 0.25135 0.8282 0.0
O238 O 0.32777 0.23497 0.80592 0.0
H239 H 0.32353 0.27443 0.7767 0.0
H240 H 0.31391 0.23715 0.64716 0.0
N241 N 0.35545 0.2423 0.69422 0.0
N242 N 0.35204 0.21165 0.67819 0.0
C243 C 0.34954 0.22351 0.71329 0.0
C244 C 0.36202 0.24227 0.64558 0.0
C245 C 0.3601 0.22353 0.63574 0.0
C246 C 0.38686 0.29661 0.66953 0.0
O247 O 0.39656 0.2866 0.67888 0.0
H248 H 0.34282 0.21829 0.75129 0.0
H249 H 0.36728 0.25484 0.61849 0.0
O250 O 0.35579 0.26551 0.79944 0.0
H251 H 0.27946 0.23791 0.66576 0.0
H252 H 0.36424 0.219 0.59994 0.0
Cu253 Cu 0.76007 0.09131 0.72582 0.0
N254 N 0.77147 0.07464 0.71991 0.0
N255 N 0.77243 0.04615 0.73442 0.0
C256 C 0.76076 0.05421 0.72058 0.0
C257 C 0.79135 0.06209 0.74156 0.0
C258 C 0.79073 0.0797 0.73227 0.0
O259 O 0.73294 0.07715 0.69243 0.0
C260 C 0.75186 0.08 0.83251 0.0
O261 O 0.74214 0.06147 0.81348 0.0
H262 H 0.74426 0.04557 0.71845 0.0
H263 H 0.80288 0.09503 0.74 0.0
N264 N 0.77834 0.11617 0.6942 0.0
N265 N 0.80799 0.14454 0.67727 0.0
C266 C 0.79698 0.12979 0.71248 0.0
C267 C 0.77748 0.12259 0.64589 0.0
C268 C 0.79563 0.14017 0.63554 0.0
C269 C 0.72311 0.085 0.6716 0.0
O270 O 0.73091 0.10484 0.67305 0.0
H271 H 0.80275 0.12829 0.74982 0.0
H272 H 0.7649 0.1146 0.61915 0.0
O273 O 0.75908 0.09508 0.801 0.0
H274 H 0.80408 0.06112 0.7576 0.0
H275 H 0.79947 0.14885 0.59971 0.0
Cu276 Cu 0.02819 0.4299 0.5537 0.0
N277 N 1.0006 0.41116 0.54402 0.0
N278 N 0.96956 0.38538 0.56275 0.0
C279 C 0.9892 0.39616 0.57761 0.0
C280 C 0.96852 0.39374 0.51722 0.0
C281 C 0.98774 0.40988 0.50602 0.0
O282 O 0.04551 0.42094 0.51738 0.0
C283 C 0.03058 0.41972 0.66212 0.0
O284 O 0.03005 0.40309 0.64542 0.0
H285 H 0.99535 0.39263 0.6113 0.0
H286 H 0.99204 0.41988 0.47257 0.0
N287 N 0.03277 0.45513 0.52883 0.0
N288 N 0.02903 0.48253 0.51893 0.0
C289 C 0.021 0.46347 0.53872 0.0
C290 C 0.04876 0.46927 0.50155 0.0
C291 C 0.04645 0.48612 0.49516 0.0
C292 C 0.03905 0.40223 0.50628 0.0
O293 O 0.02078 0.38855 0.52219 0.0
H294 H 1.00676 0.45556 0.55985 0.0
H295 H 0.06139 0.4676 0.48815 0.0
O296 O 0.03185 0.43293 0.6292 0.0
H297 H 0.95495 0.38846 0.4936 0.0
H298 H 0.05706 0.50014 0.47561 0.0
Cu299 Cu 0.59363 0.59526 0.55792 0.0
N300 N 0.61138 0.58521 0.55015 0.0
N301 N 0.63806 0.5815 0.56946 0.0
C302 C 0.62598 0.58878 0.585 0.0
C303 C 0.63102 0.57325 0.52214 0.0
C304 C 0.61429 0.57537 0.5105 0.0
O305 O 0.60288 0.61837 0.50909 0.0
C306 C 0.58973 0.58687 0.66419 0.0
O307 O 0.58047 0.56834 0.64515 0.0
H308 H 0.62868 0.59797 0.61945 0.0
H309 H 0.60552 0.57093 0.47484 0.0
N310 N 0.56716 0.5746 0.54116 0.0
N311 N 0.53999 0.54363 0.52846 0.0
C312 C 0.56008 0.55435 0.54033 0.0
C313 C 0.55105 0.5768 0.52931 0.0
C314 C 0.53428 0.55775 0.52162 0.0
C315 C 0.60814 0.63684 0.51913 0.0
O316 O 0.60677 0.64187 0.56723 0.0
H317 H 0.56936 0.54764 0.55016 0.0
H318 H 0.55144 0.59125 0.52705 0.0
O319 O 0.59578 0.60185 0.63254 0.0
H320 H 0.63803 0.56706 0.49694 0.0
H321 H 0.51904 0.55455 0.51181 0.0
Cu322 Cu 0.42455 0.998 0.55338 0.0
N323 N 0.43225 0.02474 0.53598 0.0
N324 N 0.43069 0.0532 0.54117 0.0
C325 C 0.42029 0.03279 0.54507 0.0
C326 C 0.44998 0.05839 0.52899 0.0
C327 C 0.45086 0.04066 0.525 0.0
O328 O 0.40026 0.98062 0.51031 0.0
C329 C 0.43091 0.01066 0.65941 0.0
O330 O 0.44447 0.02801 0.63851 0.0
H331 H 0.40477 0.02404 0.5592 0.0
H332 H 0.46444 0.03965 0.51867 0.0
N333 N 0.44563 0.99287 0.53584 0.0
N334 N 0.47654 0.99599 0.52671 0.0
C335 C 0.4656 1.00378 0.5484 0.0
C336 C 0.44384 0.97762 0.50556 0.0
C337 C 0.46282 0.97952 0.49976 0.0
C338 C 0.38176 0.97532 0.52087 0.0
O339 O 0.37751 0.97995 0.56666 0.0
H340 H 0.47203 0.01752 0.57148 0.0
H341 H 0.42973 0.9661 0.48826 0.0
O342 O 0.42037 0.99534 0.62971 0.0
H343 H 0.46264 0.07382 0.52617 0.0
H344 H 0.46627 0.96957 0.47719 0.0
Cu345 Cu 0.7594 0.68363 0.66549 0.0
N346 N 0.74111 0.65624 0.6777 0.0
N347 N 0.71457 0.62529 0.66429 0.0
C348 C 0.72477 0.64474 0.64789 0.0
C349 C 0.72463 0.62444 0.70674 0.0
C350 C 0.7412 0.64367 0.71475 0.0
O351 O 0.74849 0.69881 0.70379 0.0
C352 C 0.76104 0.67391 0.56001 0.0
O353 O 0.76251 0.65908 0.58224 0.0
H354 H 0.72036 0.65058 0.61482 0.0
H355 H 0.75254 0.64816 0.74517 0.0
N356 N 0.78509 0.68914 0.69043 0.0
N357 N 0.81323 0.68674 0.70212 0.0
C358 C 0.79636 0.68108 0.67294 0.0
C359 C 0.79511 0.7001 0.7326 0.0
C360 C 0.81244 0.69866 0.73989 0.0
C361 C 0.75778 0.71782 0.71416 0.0
O362 O 0.77644 0.72932 0.69663 0.0
H363 H 0.79186 0.67051 0.64098 0.0
H364 H 0.78989 0.70811 0.75729 0.0
O365 O 0.75987 0.687 0.58906 0.0
H366 H 0.72039 0.61095 0.72987 0.0
H367 H 0.82349 0.70567 0.77086 0.0
Cu368 Cu 0.33051 0.07638 0.66016 0.0
N369 N 0.35806 0.08429 0.66368 0.0
N370 N 0.38711 0.08641 0.63736 0.0
C371 C 0.36664 0.07496 0.63852 0.0
C372 C 0.3918 0.1034 0.6644 0.0
C373 C 0.37374 0.10213 0.68027 0.0
O374 O 0.31476 0.04996 0.69706 0.0
C375 C 0.32655 0.06529 0.55092 0.0
O376 O 0.32702 0.04898 0.56612 0.0
H377 H 0.35806 0.06035 0.61969 0.0
H378 H 0.37213 0.1139 0.69965 0.0
N379 N 0.32761 0.09706 0.69189 0.0
N380 N 0.33075 0.12774 0.70515 0.0
C381 C 0.33276 0.11534 0.67082 0.0
C382 C 0.32236 0.09797 0.7414 0.0
C383 C 0.32423 0.11682 0.74964 0.0
C384 C 0.29713 0.04353 0.7171 0.0
O385 O 0.28792 0.05408 0.7089 0.0
H386 H 0.33883 0.11973 0.63184 0.0
H387 H 0.31804 0.08599 0.76995 0.0
O388 O 0.32537 0.07682 0.58521 0.0
H389 H 0.40703 0.11622 0.66956 0.0
H390 H 0.32127 0.12216 0.78582 0.0
Cu391 Cu 0.93854 0.26366 0.66008 0.0
N392 N 0.92613 0.27952 0.6647 0.0
N393 N 0.92375 0.30736 0.65191 0.0
C394 C 0.93597 0.29997 0.66612 0.0
C395 C 0.90543 0.29095 0.64183 0.0
C396 C 0.90689 0.27376 0.65021 0.0
O397 O 0.96468 0.27749 0.69806 0.0
C398 C 0.94647 0.27488 0.55292 0.0
O399 O 0.95425 0.29352 0.57076 0.0
H400 H 0.95237 0.30923 0.67024 0.0
H401 H 0.89541 0.25834 0.64066 0.0
N402 N 0.9204 0.23825 0.68899 0.0
N403 N 0.89131 0.20883 0.70154 0.0
C404 C 0.9023 0.22444 0.66847 0.0
C405 C 0.92095 0.23115 0.73665 0.0
C406 C 0.90301 0.21302 0.74454 0.0
C407 C 0.97605 0.26995 0.70882 0.0
O408 O 0.97062 0.25156 0.69217 0.0
H409 H 0.89685 0.22645 0.63119 0.0
H410 H 0.93315 0.23901 0.76448 0.0
O411 O 0.94084 0.26023 0.58532 0.0
H412 H 0.89259 0.29144 0.62465 0.0
H413 H 0.8987 0.20388 0.77965 0.0
Cu414 Cu 0.33369 0.25549 0.15748 0.0
N415 N 0.3613 0.27475 0.16359 0.0
N416 N 0.39155 0.30101 0.14167 0.0
C417 C 0.37129 0.29132 0.13339 0.0
C418 C 0.39451 0.29051 0.17984 0.0
C419 C 0.37574 0.27411 0.19295 0.0
O420 O 0.31658 0.26564 0.18949 0.0
C421 C 0.33016 0.26223 0.04792 0.0
O422 O 0.33065 0.27909 0.06227 0.0
H423 H 0.3639 0.29636 0.10606 0.0
H424 H 0.37289 0.26232 0.22105 0.0
N425 N 0.32973 0.23163 0.18989 0.0
N426 N 0.33406 0.2052 0.20957 0.0
C427 C 0.34 0.22178 0.17904 0.0
C428 C 0.31669 0.22086 0.2283 0.0
C429 C 0.31927 0.20451 0.24042 0.0
C430 C 0.32359 0.27911 0.22545 0.0
O431 O 0.3424 0.28598 0.24142 0.0
H432 H 0.35183 0.22688 0.14974 0.0
H433 H 0.30601 0.2246 0.24603 0.0
O434 O 0.32932 0.24979 0.08269 0.0
H435 H 0.40915 0.29422 0.1962 0.0
H436 H 0.31058 0.19281 0.26893 0.0
Cu437 Cu 0.76886 0.07842 0.15986 0.0
N438 N 0.74983 0.08667 0.17179 0.0
N439 N 0.72362 0.09121 0.15269 0.0
C440 C 0.73383 0.0815 0.14031 0.0
C441 C 0.73326 0.10262 0.19479 0.0
C442 C 0.74964 0.09993 0.20624 0.0
O443 O 0.76102 0.05337 0.20042 0.0
C444 C 0.77089 0.08965 0.05563 0.0
O445 O 0.77579 0.10695 0.07861 0.0
H446 H 0.72979 0.07071 0.1088 0.0
H447 H 0.76084 0.10743 0.23662 0.0
N448 N 0.79486 0.0993 0.17975 0.0
N449 N 0.82173 0.13024 0.19508 0.0
C450 C 0.80204 0.11958 0.17953 0.0
C451 C 0.81057 0.09707 0.19579 0.0
C452 C 0.82715 0.11609 0.20518 0.0
C453 C 0.74281 0.03829 0.19988 0.0
O454 O 0.72947 0.03925 0.16897 0.0
H455 H 0.79302 0.12643 0.16819 0.0
H456 H 0.81008 0.08261 0.19954 0.0
O457 O 0.768 0.07456 0.08407 0.0
H458 H 0.72898 0.11242 0.21511 0.0
H459 H 0.8422 0.11924 0.21691 0.0
Cu460 Cu 0.94077 0.68343 0.16195 0.0
N461 N 0.93338 0.65622 0.16922 0.0
N462 N 0.93215 0.62706 0.14927 0.0
C463 C 0.94115 0.64717 0.13972 0.0
C464 C 0.91826 0.62323 0.18691 0.0
C465 C 0.91897 0.64136 0.199 0.0
O466 O 0.96672 0.69884 0.20025 0.0
C467 C 0.92969 0.67494 0.05643 0.0
O468 O 0.9138 0.65937 0.07792 0.0
H469 H 0.95307 0.65521 0.11118 0.0
H470 H 0.90939 0.64349 0.22653 0.0
N471 N 0.91991 0.687 0.19064 0.0
N472 N 0.88895 0.68321 0.20512 0.0
C473 C 0.90105 0.68048 0.17121 0.0
C474 C 0.91975 0.69422 0.23832 0.0
C475 C 0.90078 0.69205 0.24719 0.0
C476 C 0.97514 0.71732 0.21532 0.0
O477 O 0.96663 0.7282 0.20281 0.0
H478 H 0.89623 0.67371 0.13319 0.0
H479 H 0.93233 0.69998 0.26554 0.0
O480 O 0.9434 0.6883 0.0862 0.0
H481 H 0.90804 0.6084 0.20341 0.0
H482 H 0.89583 0.69596 0.28267 0.0
Cu483 Cu 0.59984 1.00754 0.05167 0.0
N484 N 0.61688 0.03564 0.04827 0.0
N485 N 0.64616 0.06445 0.06214 0.0
C486 C 0.63733 0.04499 0.04568 0.0
C487 C 0.63064 0.0676 0.07447 0.0
C488 C 0.61257 0.04982 0.06556 0.0
O489 O 0.61287 0.99525 1.01032 0.0
C490 C 0.61186 0.00934 0.15772 0.0
O491 O 0.63039 0.01948 0.13856 0.0
H492 H 0.64554 0.03687 0.03943 0.0
H493 H 0.59755 0.04681 0.07679 0.0
N494 N 0.57449 1.00151 1.0241 0.0
N495 N 0.54542 1.00212 1.01256 0.0
C496 C 0.56143 1.0069 0.04444 0.0
C497 C 0.56648 0.993 0.97781 0.0
C498 C 0.54859 0.9934 0.97053 0.0
C499 C 0.60722 0.97645 1.00406 0.0
O500 O 0.59098 0.96265 0.02888 0.0
H501 H 0.56414 0.015 0.08084 0.0
H502 H 0.57349 0.98746 0.95062 0.0
O503 O 0.59677 1.00114 0.1263 0.0
H504 H 0.63229 0.08104 0.09369 0.0
H505 H 0.53882 0.98796 0.9366 0.0
Cu506 Cu 0.02966 0.60197 0.06481 0.0
N507 N 1.00265 0.59336 0.0473 0.0
N508 N 0.97128 0.58893 0.05467 0.0
C509 C 0.98853 0.59291 0.07972 0.0
C510 C 0.9746 0.58649 1.00425 0.0
C511 C 0.99394 0.58905 0.9999 0.0
O512 O 0.04788 0.628 0.02931 0.0
C513 C 0.02755 0.61316 0.17217 0.0
O514 O 0.02434 0.62744 0.15321 0.0
H515 H 0.99145 0.59717 0.12016 0.0
H516 H 1.0016 0.5891 0.96433 0.0
N517 N 0.03544 0.58201 0.0419 0.0
N518 N 0.03224 0.55145 0.02715 0.0
C519 C 0.02324 0.56167 0.04607 0.0
C520 C 0.05276 0.58479 1.0198 0.0
C521 C 0.05086 0.56597 1.01083 0.0
C522 C 0.0425 0.64107 1.01785 0.0
O523 O 0.0247 0.6379 0.03418 0.0
H524 H 1.00829 0.55458 0.0639 0.0
H525 H 0.0659 0.59949 1.01128 0.0
O526 O 0.03146 0.60247 0.14101 0.0
H527 H 0.96435 0.58439 0.97239 0.0
H528 H 0.06225 0.56316 0.99344 0.0
Cu529 Cu 0.42449 0.4238 0.0553 0.0
N530 N 0.43649 0.40775 0.0464 0.0
N531 N 0.43804 0.37926 0.05431 0.0
C532 C 0.42617 0.38736 0.04295 0.0
C533 C 0.45669 0.3952 0.06441 0.0
C534 C 0.45573 0.4128 0.05912 0.0
O535 O 0.39833 0.41076 1.01712 0.0
C536 C 0.41587 0.41001 0.16097 0.0
O537 O 0.40729 0.39174 0.14037 0.0
H538 H 0.40971 0.37854 0.03958 0.0
H539 H 0.4676 0.42793 0.0696 0.0
N540 N 0.44295 0.44976 0.02964 0.0
N541 N 0.47262 0.47882 1.01886 0.0
C542 C 0.46149 0.46252 0.0499 0.0
C543 C 0.44224 0.45828 0.98427 0.0
C544 C 0.4605 0.47619 0.97751 0.0
C545 C 0.38741 0.41869 1.00511 0.0
O546 O 0.3932 0.43728 1.0208 0.0
H547 H 0.46713 0.45921 0.08518 0.0
H548 H 0.42971 0.4515 0.95692 0.0
O549 O 0.42219 0.42545 0.13091 0.0
H550 H 0.46944 0.39408 0.07964 0.0
H551 H 0.46475 0.48618 0.94401 0.0
Cu552 Cu 0.68953 0.76044 0.89299 0.0
N553 N 0.6617 0.74357 0.88175 0.0
N554 N 0.63236 0.71417 0.88664 0.0
C555 C 0.65258 0.72324 0.87763 0.0
C556 C 0.62849 0.72944 0.89544 0.0
C557 C 0.64662 0.7476 0.8921 0.0
O558 O 0.70356 0.74809 0.8555 0.0
C559 C 0.68323 0.7465 0.99923 0.0
O560 O 0.67239 0.72835 0.97861 0.0
H561 H 0.66102 0.71516 0.87565 0.0
H562 H 0.64883 0.76239 0.90218 0.0
N563 N 0.69655 0.78645 0.86776 0.0
N564 N 0.6951 0.81499 0.85525 0.0
C565 C 0.6886 0.79794 0.88416 0.0
C566 C 0.70855 0.79665 0.82705 0.0
C567 C 0.70774 0.8143 0.81936 0.0
C568 C 0.7226 0.75638 0.84563 0.0
O569 O 0.73491 0.7748 0.86327 0.0
H570 H 0.67794 0.79373 0.91612 0.0
H571 H 0.71665 0.79127 0.80324 0.0
O572 O 0.69306 0.76184 0.96911 0.0
H573 H 0.61403 0.72751 0.9085 0.0
H574 H 0.71503 0.82522 0.7882 0.0
Cu575 Cu 0.25891 0.93503 0.90083 0.0
N576 N 0.27708 0.92589 0.88697 0.0
N577 N 0.30479 0.92306 0.89673 0.0
C578 C 0.29374 0.931 0.91575 0.0
C579 C 0.29496 0.91276 0.85352 0.0
C580 C 0.27763 0.91439 0.84778 0.0
O581 O 0.26916 0.96057 0.86018 0.0
C582 C 0.25892 0.92378 1.00533 0.0
O583 O 0.2567 0.90734 0.98237 0.0
H584 H 0.29812 0.94103 0.94911 0.0
H585 H 0.26652 0.9081 0.81673 0.0
N586 N 0.23277 0.91519 0.8789 0.0
N587 N 0.2051 0.8849 0.86288 0.0
C588 C 0.22427 0.89476 0.88237 0.0
C589 C 0.21845 0.91834 0.85675 0.0
C590 C 0.20137 0.89974 0.84702 0.0
C591 C 0.26212 0.97276 0.85974 0.0
O592 O 0.24692 0.96905 0.891 0.0
H593 H 0.23205 0.88727 0.89842 0.0
H594 H 0.2202 0.93313 0.84855 0.0
O595 O 0.25927 0.93798 0.97732 0.0
H596 H 0.30014 0.90503 0.82761 0.0
H597 H 0.18716 0.89738 0.8307 0.0
Cu598 Cu 0.08629 0.32842 0.89315 0.0
N599 N 0.09565 0.35582 0.87973 0.0
N600 N 0.10092 0.38707 0.89418 0.0
C601 C 0.09238 0.36782 0.91185 0.0
C602 C 0.10958 0.38718 0.84821 0.0
C603 C 0.1065 0.36781 0.83964 0.0
O604 O 0.06158 0.31149 0.85121 0.0
C605 C 0.09512 0.33642 0.99955 0.0
O606 O 0.11344 0.34828 0.9804 0.0
H607 H 0.0831 0.36227 0.9466 0.0
H608 H 0.11153 0.36277 0.80637 0.0
N609 N 0.10696 0.32252 0.87682 0.0
N610 N 0.13774 0.32594 0.86222 0.0
C611 C 0.1273 0.33547 0.87542 0.0
C612 C 0.10446 0.30418 0.86444 0.0
C613 C 0.12337 0.30621 0.85555 0.0
C614 C 0.04799 0.31649 0.84276 0.0
O615 O 0.05024 0.33318 0.86438 0.0
H616 H 0.13432 0.35159 0.88367 0.0
H617 H 0.08988 0.29026 0.86253 0.0
O618 O 0.08076 0.32517 0.9682 0.0
H619 H 0.11723 0.40018 0.82246 0.0
H620 H 0.12631 0.294 0.8462 0.0
Cu621 Cu 0.42951 0.02061 0.99148 0.0
N622 N 0.41023 0.99336 1.00148 0.0
N623 N 0.38307 0.96333 0.98354 0.0
C624 C 0.3938 0.98319 0.97099 0.0
C625 C 0.39271 0.96091 1.02478 0.0
C626 C 0.40975 0.97956 0.03544 0.0
O627 O 0.41819 0.03593 0.02768 0.0
C628 C 0.4317 0.00988 0.88743 0.0
O629 O 0.43228 0.99489 0.91161 0.0
H630 H 0.38979 0.9903 0.9401 0.0
H631 H 0.42103 0.98279 0.06537 0.0
N632 N 0.45422 0.02517 1.02112 0.0
N633 N 0.482 0.02258 0.03742 0.0
C634 C 0.46686 0.01875 1.00332 0.0
C635 C 0.46173 0.03341 0.06799 0.0
C636 C 0.4789 0.03201 0.07794 0.0
C637 C 0.42788 0.05418 0.04477 0.0
O638 O 0.4475 0.06524 0.03507 0.0
H639 H 0.46462 0.01075 0.967 0.0
H640 H 0.45487 0.03953 0.09388 0.0
O641 O 0.43166 0.02398 0.91484 0.0
H642 H 0.38787 0.94672 0.04528 0.0
H643 H 0.48832 0.0375 0.11244 0.0
Cu644 Cu 1.00752 0.41598 0.98652 0.0
N645 N 0.03537 0.42672 0.99602 0.0
N646 N 0.06592 0.43001 0.98189 0.0
C647 C 0.04667 0.42218 0.96464 0.0
C648 C 0.06687 0.43994 1.02629 0.0
C649 C 0.0479 0.43797 0.03479 0.0
O650 O 0.99421 0.39137 0.03033 0.0
C651 C 1.0138 0.42627 0.88158 0.0
O652 O 0.02428 0.44431 0.90308 0.0
H653 H 0.0405 0.41214 0.93141 0.0
H654 H 0.04334 0.44359 0.06785 0.0
N655 N 1.00014 0.43518 1.00707 0.0
N656 N 1.00131 0.46492 1.02129 0.0
C657 C 1.01164 0.45567 1.00483 0.0
C658 C 0.98206 0.43134 0.02649 0.0
C659 C 0.98274 0.44961 0.03542 0.0
C660 C 0.97552 0.37734 0.03058 0.0
O661 O 0.96284 0.37844 0.99751 0.0
H662 H 0.02718 0.46366 0.9907 0.0
H663 H 0.96927 0.41629 0.03372 0.0
O664 O 1.00372 0.41087 0.91124 0.0
H665 H 0.08004 0.44741 0.05156 0.0
H666 H 0.97058 0.45142 0.05186 0.0
Cu667 Cu 0.60932 0.58822 0.99018 0.0
N668 N 0.60233 0.60838 0.99776 0.0
N669 N 0.60047 0.63578 0.97515 0.0
C670 C 0.61143 0.62627 0.97251 0.0
C671 C 0.58412 0.62383 1.00491 0.0
C672 C 0.58521 0.60674 1.01846 0.0
O673 O 0.63639 0.59704 1.02155 0.0
C674 C 0.61828 0.59551 0.8798 0.0
O675 O 0.63515 0.61204 0.89328 0.0
H676 H 0.62557 0.632 0.95135 0.0
H677 H 0.57377 0.59357 0.03937 0.0
N678 N 0.58891 0.56467 1.02242 0.0
N679 N 0.55792 0.53827 0.04004 0.0
C680 C 0.56931 0.55369 1.00682 0.0
C681 C 0.59005 0.55582 0.06677 0.0
C682 C 0.57098 0.53949 0.07766 0.0
C683 C 0.6423 0.60846 0.06187 0.0
O684 O 0.63006 0.61432 0.08167 0.0
H685 H 0.56341 0.55729 0.97245 0.0
H686 H 0.60375 0.561 0.08976 0.0
O687 O 0.60719 0.58299 0.91508 0.0
H688 H 0.57183 0.62674 1.01381 0.0
H689 H 0.56713 0.5292 0.11041 0.0
Cu690 Cu 0.99984 0.59155 0.49631 0.0
N691 N 0.02675 0.60968 0.5145 0.0
N692 N 0.05785 0.63675 0.50716 0.0
C693 C 0.03955 0.62543 0.48453 0.0
C694 C 0.0566 0.62786 0.55364 0.0
C695 C 0.0373 0.61096 0.55793 0.0
O696 O 0.98194 0.59934 0.53428 0.0
C697 C 1.01118 0.5909 0.39286 0.0
O698 O 0.02284 0.58523 0.41697 0.0
H699 H 0.03517 0.62912 0.44772 0.0
H700 H 0.03125 0.60065 0.59072 0.0
N701 N 0.99388 0.56505 0.51453 0.0
N702 N 0.99703 0.53745 0.52727 0.0
C703 C 1.00638 0.55713 0.51175 0.0
C704 C 0.97605 0.54984 0.53264 0.0
C705 C 0.97793 0.53281 0.5405 0.0
C706 C 0.98683 0.61802 0.53989 0.0
O707 O 1.00348 0.632 0.51689 0.0
H708 H 0.0221 0.56561 0.49902 0.0
H709 H 0.96254 0.55101 0.53909 0.0
O710 O 0.99886 0.59402 0.42005 0.0
H711 H 0.06856 0.63337 0.58266 0.0
H712 H 0.96602 0.51802 0.55356 0.0
Cu713 Cu 0.43204 0.40702 0.48826 0.0
N714 N 0.41496 0.41781 0.49688 0.0
N715 N 0.38995 0.42382 0.47501 0.0
C716 C 0.39894 0.41268 0.46561 0.0
C717 C 0.40032 0.43608 0.51523 0.0
C718 C 0.41597 0.43245 0.52844 0.0
O719 O 0.42035 0.38202 0.53099 0.0
C720 C 0.43555 0.4179 0.38372 0.0
O721 O 0.44205 0.43561 0.40625 0.0
H722 H 0.39394 0.40084 0.43652 0.0
H723 H 0.4274 0.44012 0.55822 0.0
N724 N 0.45862 0.42646 0.50884 0.0
N725 N 0.48685 0.45663 0.52164 0.0
C726 C 0.46701 0.44691 0.5075 0.0
C727 C 0.47366 0.42316 0.525 0.0
C728 C 0.49108 0.44173 0.53301 0.0
C729 C 0.426 0.36874 0.5329 0.0
O730 O 0.44122 0.37118 0.50335 0.0
H731 H 0.45889 0.45457 0.4951 0.0
H732 H 0.47216 0.40832 0.53016 0.0
O733 O 0.43112 0.40247 0.41265 0.0
H734 H 0.39697 0.44698 0.53321 0.0
H735 H 0.50564 0.44404 0.54652 0.0
Cu736 Cu 0.61372 0.02469 0.48689 0.0
N737 N 0.60475 0.99729 0.49877 0.0
N738 N 0.60073 0.96662 0.48313 0.0
C739 C 0.61093 0.98652 0.47053 0.0
C740 C 0.58766 0.96474 0.52129 0.0
C741 C 0.59012 0.98379 0.53073 0.0
O742 O 0.64004 0.04153 0.52321 0.0
C743 C 0.60172 0.01516 0.38226 0.0
O744 O 0.58471 1.0018 0.40508 0.0
H745 H 0.62254 0.99317 0.44068 0.0
H746 H 0.58154 0.98745 0.55795 0.0
N747 N 0.59381 0.03065 0.51054 0.0
N748 N 0.56344 0.02772 0.52807 0.0
C749 C 0.57337 0.01901 0.50577 0.0
C750 C 0.5969 0.04732 0.53666 0.0
C751 C 0.57822 0.04559 0.54744 0.0
C752 C 0.64492 0.03507 0.56377 0.0
O753 O 0.63178 0.01707 0.58244 0.0
H754 H 0.56585 1.00427 0.48705 0.0
H755 H 0.61174 0.0599 0.54695 0.0
O756 O 0.61657 0.02767 0.41076 0.0
H757 H 0.57675 0.95061 0.53985 0.0
H758 H 0.57576 0.05682 0.56697 0.0
Cu759 Cu 0.26654 0.33765 0.386 0.0
N760 N 0.28326 0.36566 0.37861 0.0
N761 N 0.31223 0.39521 0.38702 0.0
C762 C 0.30368 0.37531 0.37495 0.0
C763 C 0.29654 0.3983 0.39778 0.0
C764 C 0.27864 0.38003 0.39217 0.0
O765 O 0.28057 0.32468 0.35176 0.0
C766 C 0.27802 0.34214 0.49301 0.0
O767 O 0.29656 0.35263 0.47405 0.0
H768 H 0.31218 0.36736 0.37096 0.0
H769 H 0.26358 0.37703 0.40293 0.0
N770 N 0.2414 0.33108 0.35583 0.0
N771 N 0.21304 0.33266 0.34032 0.0
C772 C 0.22816 0.33654 0.37451 0.0
C773 C 0.23433 0.3233 0.30833 0.0
C774 C 0.21676 0.32408 0.29885 0.0
C775 C 0.2729 0.30693 0.33178 0.0
O776 O 0.25312 0.29452 0.33488 0.0
H777 H 0.23019 0.34423 0.41134 0.0
H778 H 0.24186 0.31822 0.28152 0.0
O779 O 0.26308 0.333 0.46146 0.0
H780 H 0.29802 0.41219 0.41365 0.0
H781 H 0.20766 0.31901 0.26375 0.0
Cu782 Cu 0.68682 0.93025 0.39104 0.0
N783 N 0.65866 0.91817 0.38272 0.0
N784 N 0.62903 0.91737 0.39348 0.0
C785 C 0.64889 0.92887 0.38093 0.0
C786 C 0.62593 0.89846 0.40157 0.0
C787 C 0.64425 0.89897 0.39474 0.0
O788 O 0.69904 0.95536 0.34885 0.0
C789 C 0.68286 0.94141 0.49493 0.0
O790 O 0.67357 0.9501 0.47235 0.0
H791 H 0.65678 0.94533 0.37801 0.0
H792 H 0.64714 0.88673 0.40376 0.0
N793 N 0.69485 0.91189 0.36774 0.0
N794 N 0.69492 0.88254 0.35746 0.0
C795 C 0.68773 0.89273 0.38533 0.0
C796 C 0.70716 0.91404 0.3276 0.0
C797 C 0.70721 0.89598 0.32109 0.0
C798 C 0.71771 0.9692 0.34437 0.0
O799 O 0.73157 0.96788 0.37225 0.0
H800 H 0.67676 0.88617 0.41652 0.0
H801 H 0.71503 0.92758 0.30374 0.0
O802 O 0.69137 0.93397 0.46645 0.0
H803 H 0.61201 0.88576 0.41664 0.0
H804 H 0.71533 0.89286 0.29117 0.0
Cu805 Cu 0.08513 0.75823 0.39586 0.0
N806 N 0.09445 0.73971 0.3917 0.0
N807 N 0.09908 0.71388 0.41463 0.0
C808 C 0.09058 0.72521 0.42721 0.0
C809 C 0.10851 0.72132 0.36863 0.0
C810 C 0.10584 0.73751 0.35486 0.0
O811 O 0.05838 0.74601 0.36065 0.0
C812 C 0.07326 0.75077 0.50431 0.0
O813 O 0.05702 0.73402 0.48865 0.0
H814 H 0.0808 0.72223 0.46041 0.0
H815 H 0.11139 0.74671 0.31998 0.0
N816 N 0.10475 0.78229 0.36362 0.0
N817 N 0.13487 0.8103 0.34826 0.0
C818 C 0.12363 0.79503 0.38202 0.0
C819 C 0.10406 0.7896 0.31633 0.0
C820 C 0.12259 0.8069 0.3068 0.0
C821 C 0.04946 0.75554 0.34467 0.0
O822 O 0.05784 0.77509 0.35467 0.0
H823 H 0.12912 0.79293 0.41917 0.0
H824 H 0.09124 0.78249 0.28993 0.0
O825 O 0.08513 0.76349 0.47042 0.0
H826 H 0.11623 0.71515 0.34605 0.0
H827 H 0.12694 0.81574 0.27121 0.0
C828 C 0.26958 1.00571 0.31247 0.0
C829 C 0.27075 0.9893 0.29093 0.0
C830 C 0.27726 0.0242 0.28528 0.0
C831 C 0.28614 0.02661 0.23584 0.0
H832 H 0.264 1.00468 0.35178 0.0
H833 H 0.27772 0.03712 0.3045 0.0
S834 S 0.2895 0.98727 0.15889 0.0
N835 N 0.27872 0.9758 0.21418 0.0
N836 N 0.29355 0.01072 0.16411 0.0
C837 C 0.28583 0.00985 0.21237 0.0
C838 C 0.27802 0.99111 0.23968 0.0
C839 C 0.02646 0.27273 0.24675 0.0
C840 C 0.03008 0.27817 0.29964 0.0
C841 C 1.00701 0.26532 0.22504 0.0
C842 C 0.99066 0.26316 0.25562 0.0
H843 H 0.03903 0.27557 0.22134 0.0
H844 H 1.00508 0.26259 0.18353 0.0
S845 S 0.99172 0.27213 0.39784 0.0
N846 N 0.01553 0.27889 0.38299 0.0
N847 N 0.97875 0.26428 0.34288 0.0
C848 C 0.9938 0.267 0.3094 0.0
C849 C 1.0136 0.27473 0.33122 0.0
C850 C 0.76344 0.74254 0.30153 0.0
C851 C 0.76058 0.73643 0.24906 0.0
C852 C 0.75152 0.74981 0.32455 0.0
C853 C 0.73644 0.75112 0.2957 0.0
H854 H 0.77382 0.74022 0.32579 0.0
H855 H 0.75309 0.75303 0.36586 0.0
S856 S 0.72592 0.74071 0.15467 0.0
N857 N 0.7436 0.73457 0.16754 0.0
N858 N 0.72159 0.74886 0.21015 0.0
C859 C 0.73479 0.74681 0.24211 0.0
C860 C 0.74676 0.73927 0.21895 0.0
C861 C 0.73939 0.9901 0.74813 0.0
C862 C 0.7391 0.9874 0.80243 0.0
C863 C 0.75165 0.00922 0.72541 0.0
C864 C 0.76426 0.02617 0.75612 0.0
H865 H 0.72925 0.97754 0.72335 0.0
H866 H 0.7505 0.01107 0.68395 0.0
S867 S 0.76976 0.02713 0.89955 0.0
N868 N 0.75307 1.00315 0.88601 0.0
N869 N 0.77638 0.03912 0.843 0.0
C870 C 0.76509 0.02348 0.81001 0.0
C871 C 0.75247 1.00403 0.83328 0.0
C872 C 0.01694 0.75881 0.81488 0.0
C873 C 0.03315 0.76013 0.78519 0.0
C874 C 0.9973 0.7504 0.79367 0.0
C875 C 0.99334 0.74308 0.74222 0.0
H876 H 0.01912 0.76281 0.85573 0.0
H877 H 0.98486 0.74813 0.81883 0.0
S878 S 0.03129 0.74684 0.64565 0.0
N879 N 0.04461 0.75655 0.69946 0.0
N880 N 1.00749 0.74017 0.66031 0.0
C881 C 1.00972 0.74596 0.711 0.0
C882 C 0.0297 0.75467 0.73229 0.0
C883 C 0.2831 0.26552 0.80746 0.0
C884 C 0.28345 0.26378 0.75298 0.0
C885 C 0.27471 0.27638 0.83069 0.0
C886 C 0.26663 0.28602 0.80002 0.0
H887 H 0.2905 0.25948 0.832 0.0
H888 H 0.27607 0.27865 0.87241 0.0
S889 S 0.26131 0.28369 0.65638 0.0
N890 N 0.27305 0.27074 0.66949 0.0
N891 N 0.25711 0.29105 0.71322 0.0
C892 C 0.26529 0.28289 0.7459 0.0
C893 C 0.27373 0.27176 0.72228 0.0
C894 C 0.94115 0.35002 0.55646 0.0
C895 C 0.95428 0.36689 0.58713 0.0
C896 C 0.92972 0.33061 0.57875 0.0
C897 C 0.93116 0.32755 0.63224 0.0
H898 H 0.94087 0.35152 0.5146 0.0
H899 H 0.92094 0.3177 0.55351 0.0
S900 S 0.96025 0.36712 0.73063 0.0
N901 N 0.96542 0.37969 0.67496 0.0
N902 N 0.9446 0.34297 0.71605 0.0
C903 C 0.9429 0.34444 0.66378 0.0
C904 C 0.95426 0.36421 0.64142 0.0
C905 C 0.67519 0.5965 0.56325 0.0
C906 C 0.6573 0.58693 0.5932 0.0
C907 C 0.69427 0.60779 0.58718 0.0
C908 C 0.69603 0.60959 0.64169 0.0
H909 H 0.6743 0.59685 0.52123 0.0
H910 H 0.70763 0.61628 0.56296 0.0
S911 S 0.65397 0.58479 0.73719 0.0
N912 N 0.64265 0.57782 0.67989 0.0
N913 N 0.6786 0.59911 0.72488 0.0
C914 C 0.67848 0.59846 0.67204 0.0
C915 C 0.65906 0.58709 0.64771 0.0
C916 C 0.41803 0.0834 0.63246 0.0
C917 C 0.40061 0.0819 0.60858 0.0
C918 C 0.42917 0.07546 0.60805 0.0
C919 C 0.42319 0.06605 0.55911 0.0
H920 H 0.42221 0.08947 0.67146 0.0
H921 H 0.44157 0.07537 0.62888 0.0
S922 S 0.38108 0.06152 0.47693 0.0
N923 N 0.37971 0.07284 0.53041 0.0
N924 N 0.4005 0.05763 0.48545 0.0
C925 C 0.40684 0.06588 0.53343 0.0
C926 C 0.39557 0.07393 0.55793 0.0
C927 C 0.43334 0.35485 0.12359 0.0
C928 C 0.43017 0.35872 0.07181 0.0
C929 C 0.4216 0.33542 0.14553 0.0
C930 C 0.40637 0.31939 0.11627 0.0
H931 H 0.44383 0.36724 0.14831 0.0
H932 H 0.42341 0.3333 0.18648 0.0
S933 S 0.39505 0.32103 0.97638 0.0
N934 N 0.41279 0.34462 0.99024 0.0
N935 N 0.39101 0.3079 0.03082 0.0
C936 C 0.40441 0.32271 0.0632 0.0
C937 C 0.41624 0.34246 0.04114 0.0
C938 C 0.6701 0.08073 0.13474 0.0
C939 C 0.66663 0.07555 0.08169 0.0
C940 C 0.68924 0.08716 0.15733 0.0
C941 C 0.70546 0.08858 0.1275 0.0
H942 H 0.65757 0.07842 0.15963 0.0
H943 H 0.69096 0.08971 0.19892 0.0
S944 S 0.70497 0.08023 0.98506 0.0
N945 N 0.68135 0.07448 0.9989 0.0
N946 N 0.7176 0.08726 0.04065 0.0
C947 C 0.70258 0.08508 0.07354 0.0
C948 C 0.68307 0.07835 0.05082 0.0
C949 C 0.94146 0.61556 0.07008 0.0
C950 C 0.93711 0.61327 0.12369 0.0
C951 C 0.95087 0.60583 0.04616 0.0
C952 C 0.95638 0.59357 0.07519 0.0
H953 H 0.93864 0.62593 0.04718 0.0
H954 H 0.95538 0.60933 1.0058 0.0
S955 S 0.94532 0.58009 0.21484 0.0
N956 N 0.93678 0.59601 0.20374 0.0
N957 N 0.95419 0.57734 0.15856 0.0
C958 C 0.95032 0.58962 0.12769 0.0
C959 C 0.94074 0.59955 0.15205 0.0
C960 C 0.60335 0.66959 0.97501 0.0
C961 C 0.60498 0.65426 0.94867 0.0
C962 C 0.61092 0.68894 0.95268 0.0
C963 C 0.62023 0.69342 0.9033 0.0
H964 H 0.59738 0.66698 1.01429 0.0
H965 H 0.61078 0.70084 0.97563 0.0
S966 S 0.62466 0.6574 0.8148 0.0
N967 N 0.61379 0.6439 0.86775 0.0
N968 N 0.62832 0.68042 0.82634 0.0
C969 C 0.62045 0.67775 0.87511 0.0
C970 C 0.61274 0.65811 0.89765 0.0
C971 C 0.34699 0.9371 0.99138 0.0
C972 C 0.36416 0.94873 0.96006 0.0
C973 C 0.32743 0.92701 0.96947 0.0
C974 C 0.32454 0.928 0.91567 0.0
H975 H 0.34854 0.93724 0.03331 0.0
H976 H 0.31435 0.91954 0.99499 0.0
S977 S 0.36492 0.95386 0.81647 0.0
N978 N 0.37736 0.95864 0.87225 0.0
N979 N 0.34051 0.93957 0.83115 0.0
C980 C 0.34172 0.93793 0.88353 0.0
C981 C 0.36159 0.94837 0.9058 0.0
C982 C 0.09097 0.41323 0.88483 0.0
C983 C 0.09776 0.40265 0.91639 0.0
C984 C 0.08224 0.42396 0.907 0.0
C985 C 0.08023 0.42462 0.96132 0.0
H986 H 0.09074 0.41171 0.84291 0.0
H987 H 0.07563 0.43055 0.88153 0.0
S988 S 0.09893 0.40228 0.06061 0.0
N989 N 0.10463 0.39585 1.00436 0.0
N990 N 0.08796 0.41583 0.04605 0.0
C991 C 0.08885 0.41584 0.99325 0.0
C992 C 0.09767 0.40487 0.9707 0.0
C993 C 0.08813 0.67745 0.41032 0.0
C994 C 0.09452 0.69514 0.44001 0.0
C995 C 0.07772 0.65818 0.43367 0.0
C996 C 0.07351 0.656 0.4874 0.0
H997 H 0.08951 0.6784 0.36834 0.0
H998 H 0.07158 0.64482 0.40906 0.0
S999 S 0.09037 0.69781 0.58323 0.0
N1000 N 0.09876 0.70947 0.52671 0.0
N1001 N 0.07879 0.67318 0.57044 0.0
C1002 C 0.0817 0.6736 0.51819 0.0
C1003 C 0.09231 0.69321 0.49445 0.0
C1004 C 0.33681 0.4141 0.45652 0.0
C1005 C 0.33287 0.40733 0.40462 0.0
C1006 C 0.35613 0.42106 0.47862 0.0
C1007 C 0.37199 0.42143 0.44938 0.0
H1008 H 0.32451 0.41246 0.48127 0.0
H1009 H 0.35821 0.42467 0.51971 0.0
S1010 S 0.37027 0.40908 0.30915 0.0
N1011 N 0.34683 0.4039 0.32294 0.0
N1012 N 0.38338 0.41764 0.36372 0.0
C1013 C 0.36869 0.41656 0.39612 0.0
C1014 C 0.34903 0.4093 0.37393 0.0
C1015 C 0.61479 0.93991 0.38343 0.0
C1016 C 0.61715 0.92578 0.41359 0.0
C1017 C 0.60804 0.9523 0.40588 0.0
C1018 C 0.60366 0.95112 0.45942 0.0
H1019 H 0.61927 0.94212 0.34286 0.0
H1020 H 0.60714 0.96355 0.38168 0.0
S1021 S 0.60678 0.91603 0.55484 0.0
N1022 N 0.61386 0.91065 0.4991 0.0
N1023 N 0.60128 0.93409 0.5415 0.0
C1024 C 0.60487 0.93625 0.48944 0.0
C1025 C 0.61165 0.92355 0.46646 0.0
C1026 C 0.33514 0.06066 0.45882 0.0
C1027 C 0.33047 0.07177 0.49494 0.0
C1028 C 0.34052 0.06722 0.4069 0.0
C1029 C 0.34099 0.08493 0.38855 0.0
H1030 H 0.33481 0.04678 0.47076 0.0
H1031 H 0.34368 0.05799 0.38058 0.0
S1032 S 0.32996 0.11962 0.46597 0.0
N1033 N 0.32693 0.10169 0.50766 0.0
N1034 N 0.33631 0.11351 0.41019 0.0
C1035 C 0.3362 0.09611 0.42385 0.0
C1036 C 0.33109 0.08966 0.47687 0.0
C1037 C 0.94686 0.28735 0.46171 0.0
C1038 C 0.94178 0.27095 0.49616 0.0
C1039 C 0.94126 0.28416 0.40885 0.0
C1040 C 0.93038 0.2644 0.38797 0.0
H1041 H 0.95509 0.3029 0.47567 0.0
H1042 H 0.94569 0.29731 0.38412 0.0
S1043 S 0.91306 0.21609 0.46127 0.0
N1044 N 0.92505 0.23411 0.50507 0.0
N1045 N 0.91457 0.22809 0.40631 0.0
C1046 C 0.92526 0.24784 0.4219 0.0
C1047 C 0.93095 0.2511 0.4757 0.0
C1048 C 0.74947 0.68369 0.47822 0.0
C1049 C 0.75892 0.67384 0.50219 0.0
C1050 C 0.74587 0.68226 0.42419 0.0
C1051 C 0.75167 0.67101 0.39161 0.0
H1052 H 0.74441 0.69225 0.50144 0.0
H1053 H 0.73846 0.6901 0.40795 0.0
S1054 S 0.77815 0.64337 0.43468 0.0
N1055 N 0.77483 0.6531 0.48867 0.0
N1056 N 0.76812 0.65048 0.38771 0.0
C1057 C 0.76148 0.66139 0.41504 0.0
C1058 C 0.76509 0.6628 0.47004 0.0
C1059 C 0.10477 0.35367 0.14128 0.0
C1060 C 0.08535 0.34305 0.16442 0.0
C1061 C 0.10766 0.35125 0.08836 0.0
C1062 C 0.09131 0.33799 0.05598 0.0
H1063 H 0.11795 0.3639 0.16426 0.0
H1064 H 0.12298 0.3599 0.07284 0.0
S1065 S 0.03726 0.30642 0.09715 0.0
N1066 N 0.04934 0.31862 0.15043 0.0
N1067 N 0.05486 0.31411 0.0513 0.0
C1068 C 0.07176 0.3273 0.07849 0.0
C1069 C 0.06877 0.32983 0.13246 0.0
C1070 C 0.66614 0.73437 0.14135 0.0
C1071 C 0.67723 0.7533 0.16644 0.0
C1072 C 0.66852 0.7323 0.08774 0.0
C1073 C 0.68204 0.74908 0.05666 0.0
H1074 H 0.65567 0.72096 0.16333 0.0
H1075 H 0.65949 0.71737 0.07053 0.0
S1076 S 0.71463 0.80211 0.10315 0.0
N1077 N 0.70227 0.78928 0.15556 0.0
N1078 N 0.70665 0.78531 0.05552 0.0
C1079 C 0.69321 0.76809 0.08129 0.0
C1080 C 0.69083 0.7702 0.13583 0.0
C1081 C 0.25239 0.9333 0.14757 0.0
C1082 C 0.26275 0.9249 0.17474 0.0
C1083 C 0.25201 0.93385 0.09286 0.0
C1084 C 0.26147 0.92546 0.06291 0.0
H1085 H 0.24433 0.93947 0.16874 0.0
H1086 H 0.24358 0.94017 0.07398 0.0
S1087 S 0.29148 0.90251 0.11394 0.0
N1088 N 0.28365 0.90901 0.16673 0.0
N1089 N 0.28229 0.90926 0.06418 0.0
C1090 C 0.27221 0.91735 0.08935 0.0
C1091 C 0.27302 0.91726 0.1451 0.0
C1092 C 0.68668 0.92196 0.62919 0.0
C1093 C 0.67587 0.92821 0.66186 0.0
C1094 C 0.68917 0.92662 0.57584 0.0
C1095 C 0.6811 0.93791 0.5525 0.0
H1096 H 0.69328 0.91326 0.64488 0.0
H1097 H 0.6974 0.92115 0.5527 0.0
S1098 S 0.65231 0.95886 0.6212 0.0
N1099 N 0.65751 0.94685 0.66716 0.0
N1100 N 0.66218 0.95574 0.56711 0.0
C1101 C 0.6704 0.94448 0.58485 0.0
C1102 C 0.66776 0.93959 0.63931 0.0
C1103 C 0.0704 0.73634 0.5946 0.0
C1104 C 0.07975 0.75308 0.56006 0.0
C1105 C 0.07709 0.73774 0.64643 0.0
C1106 C 0.09334 0.75598 0.66602 0.0
H1107 H 0.05783 0.72194 0.58152 0.0
H1108 H 0.0691 0.72461 0.67165 0.0
S1109 S 0.1236 0.80407 0.59164 0.0
N1110 N 0.10657 0.78835 0.54948 0.0
N1111 N 0.11906 0.79096 0.6462 0.0
C1112 C 0.10299 0.77272 0.63176 0.0
C1113 C 0.09624 0.77129 0.5791 0.0
C1114 C 0.29098 0.35678 0.58199 0.0
C1115 C 0.27465 0.34317 0.55 0.0
C1116 C 0.28817 0.35916 0.63508 0.0
C1117 C 0.2689 0.34803 0.65878 0.0
H1118 H 0.30613 0.36595 0.56583 0.0
H1119 H 0.30127 0.36984 0.65765 0.0
S1120 S 0.22112 0.30984 0.59295 0.0
N1121 N 0.23853 0.31806 0.5466 0.0
N1122 N 0.23317 0.32242 0.64585 0.0
C1123 C 0.25245 0.33418 0.62737 0.0
C1124 C 0.25533 0.33178 0.57327 0.0
C1125 C 0.95137 0.68804 0.97558 0.0
C1126 C 0.93224 0.67541 0.99865 0.0
C1127 C 0.9543 0.6876 0.92162 0.0
C1128 C 0.93822 0.67458 0.88815 0.0
H1129 H 0.96431 0.69817 0.99942 0.0
H1130 H 0.96937 0.69769 0.90611 0.0
S1131 S 0.88485 0.63889 0.92863 0.0
N1132 N 0.89674 0.64976 0.9833 0.0
N1133 N 0.90228 0.64899 0.88247 0.0
C1134 C 0.91895 0.662 0.91068 0.0
C1135 C 0.91597 0.66241 0.96563 0.0
C1136 C 0.34205 0.27573 0.95737 0.0
C1137 C 0.33328 0.25905 0.99209 0.0
C1138 C 0.34599 0.27339 0.90504 0.0
C1139 C 0.34097 0.25419 0.88502 0.0
H1140 H 0.34604 0.29082 0.97071 0.0
H1141 H 0.35237 0.28661 0.87972 0.0
S1142 S 0.3182 0.20565 0.95933 0.0
N1143 N 0.32027 0.22271 1.00245 0.0
N1144 N 0.32716 0.21825 0.9042 0.0
C1145 C 0.33236 0.23742 0.9193 0.0
C1146 C 0.32866 0.23985 0.97271 0.0
C1147 C 0.75105 0.06596 0.92198 0.0
C1148 C 0.75636 0.08296 0.88951 0.0
C1149 C 0.75614 0.0682 0.97517 0.0
C1150 C 0.76668 0.08754 0.99845 0.0
H1151 H 0.743 0.05069 0.90618 0.0
H1152 H 0.75156 0.05461 0.99827 0.0
S1153 S 0.78423 0.13708 0.931 0.0
N1154 N 0.77285 0.11987 0.88502 0.0
N1155 N 0.78237 0.12414 0.98446 0.0
C1156 C 0.77206 0.10469 0.96648 0.0
C1157 C 0.76692 0.1024 0.91229 0.0
C1158 C 0.01985 0.40499 0.75248 0.0
C1159 C 0.0265 0.42171 0.71813 0.0
C1160 C 0.01489 0.40618 0.80472 0.0
C1161 C 0.01651 0.42418 0.8249 0.0
H1162 H 0.01834 0.39078 0.73894 0.0
H1163 H 1.01027 0.39307 0.82975 0.0
S1164 S 0.03214 0.472 0.75116 0.0
N1165 N 0.03368 0.45664 0.70834 0.0
N1166 N 0.02445 0.45882 0.80583 0.0
C1167 C 0.0228 0.44086 0.79084 0.0
C1168 C 0.02777 0.43965 0.73776 0.0
C1169 C 0.62161 0.60828 0.78742 0.0
C1170 C 0.61081 0.59287 0.82479 0.0
C1171 C 0.61429 0.60679 0.73622 0.0
C1172 C 0.59596 0.58972 0.72001 0.0
H1173 H 0.63586 0.6217 0.7977 0.0
H1174 H 0.62339 0.61883 0.70879 0.0
S1175 S 0.56149 0.54534 0.8023 0.0
N1176 N 0.58044 0.56012 0.84149 0.0
N1177 N 0.56693 0.55729 0.74573 0.0
C1178 C 0.58495 0.57429 0.75694 0.0
C1179 C 0.5923 0.57585 0.80906 0.0
C1180 C 0.43446 0.02709 0.80106 0.0
C1181 C 0.43024 0.00948 0.82927 0.0
C1182 C 0.43408 0.0271 0.74626 0.0
C1183 C 0.42903 0.00939 0.71724 0.0
H1184 H 0.43858 0.04114 0.82134 0.0
H1185 H 0.43798 0.04121 0.7264 0.0
S1186 S 0.41585 0.95897 0.7718 0.0
N1187 N 0.42038 0.97358 0.82335 0.0
N1188 N 0.41916 0.97366 0.72093 0.0
C1189 C 0.42411 0.99152 0.74483 0.0
C1190 C 0.42488 0.99157 0.80059 0.0
C1191 C 0.62569 0.02098 0.24804 0.0
C1192 C 0.60873 0.00993 0.21503 0.0
C1193 C 0.62334 0.02301 0.30162 0.0
C1194 C 0.60391 0.014 0.32477 0.0
H1195 H 0.64104 0.02832 0.23242 0.0
H1196 H 0.63691 0.0315 0.32513 0.0
S1197 S 0.55439 0.98396 0.25586 0.0
N1198 N 0.57171 0.9902 0.20983 0.0
N1199 N 0.56727 0.99392 0.31003 0.0
C1200 C 0.58679 1.00297 0.29225 0.0
C1201 C 0.58919 1.00095 0.23766 0.0
C1202 C 1.00912 0.60922 0.31273 0.0
C1203 C 0.01436 0.59561 0.33601 0.0
C1204 C 1.01379 0.61512 0.26019 0.0
C1205 C 0.02375 0.60754 0.22856 0.0
H1206 H 1.00173 0.6157 0.33549 0.0
H1207 H 1.00939 0.62561 0.24421 0.0
S1208 S 0.04002 0.5708 0.27023 0.0
N1209 N 0.02957 0.57425 0.3227 0.0
N1210 N 0.03828 0.58527 0.22473 0.0
C1211 C 0.0288 0.59369 0.2513 0.0
C1212 C 0.02413 0.58777 0.30469 0.0
C1213 C 0.41304 0.39524 0.25072 0.0
C1214 C 0.42048 0.41251 0.218 0.0
C1215 C 0.41828 0.39696 0.30382 0.0
C1216 C 0.43123 0.41603 0.3266 0.0
H1217 H 0.40309 0.38016 0.23523 0.0
H1218 H 0.41192 0.38324 0.32728 0.0
S1219 S 0.45548 0.46601 0.25798 0.0
N1220 N 0.44185 0.44933 0.21263 0.0
N1221 N 0.45175 0.45259 0.31166 0.0
C1222 C 0.43885 0.43342 0.29428 0.0
C1223 C 0.43347 0.43167 0.24033 0.0
C1224 C 0.3477 0.1865 0.16051 0.0
C1225 C 0.34164 0.19104 0.20808 0.0
C1226 C 0.35494 0.17268 0.15794 0.0
C1227 C 0.35641 0.16279 0.20284 0.0
H1228 H 0.34648 0.1934 0.12474 0.0
H1229 H 0.359 0.16938 0.12029 0.0
S1230 S 0.34454 0.17086 0.33776 0.0
N1231 N 0.33901 0.18555 0.30173 0.0
N1232 N 0.3525 0.15956 0.29679 0.0
C1233 C 0.35081 0.16748 0.25081 0.0
C1234 C 0.34346 0.18159 0.25346 0.0
C1235 C 0.83256 0.1646 0.15975 0.0
C1236 C 0.83455 0.15215 0.19733 0.0
C1237 C 0.84512 0.18589 0.16065 0.0
C1238 C 0.86019 0.1956 0.19916 0.0
H1239 H 0.82143 0.15781 0.12885 0.0
H1240 H 0.84321 0.19481 0.1305 0.0
S1241 S 0.87014 0.17013 0.30973 0.0
N1242 N 0.85184 0.15125 0.27626 0.0
N1243 N 0.87536 0.19117 0.27801 0.0
C1244 C 0.86208 0.18336 0.23756 0.0
C1245 C 0.8493 0.16169 0.23663 0.0
C1246 C 0.83938 0.68352 0.21677 0.0
C1247 C 0.82544 0.66578 0.18992 0.0
C1248 C 0.86005 0.68911 0.22135 0.0
C1249 C 0.86764 0.6772 0.19933 0.0
H1250 H 0.83437 0.69338 0.23347 0.0
H1251 H 0.87025 0.70305 0.24168 0.0
S1252 S 0.83695 0.6282 0.12979 0.0
N1253 N 0.82041 0.63567 0.14393 0.0
N1254 N 0.8591 0.64601 0.1529 0.0
C1255 C 0.85375 0.6592 0.17331 0.0
C1256 C 0.83272 0.65354 0.16854 0.0
C1257 C 0.17303 0.34188 0.40135 0.0
C1258 C 0.16613 0.34877 0.35919 0.0
C1259 C 0.18828 0.33662 0.39485 0.0
C1260 C 0.19724 0.33799 0.34593 0.0
H1261 H 0.16635 0.3402 0.43955 0.0
H1262 H 0.19291 0.33117 0.42827 0.0
S1263 S 0.18615 0.35722 0.22423 0.0
N1264 N 0.17046 0.35799 0.2676 0.0
N1265 N 0.19907 0.34819 0.25537 0.0
C1266 C 0.19076 0.34523 0.30365 0.0
C1267 C 0.17523 0.35059 0.31029 0.0
C1268 C 0.68758 0.84999 0.31623 0.0
C1269 C 0.68869 0.86112 0.36124 0.0
C1270 C 0.68031 0.82893 0.31842 0.0
C1271 C 0.67364 0.81812 0.36554 0.0
H1272 H 0.6918 0.85746 0.27868 0.0
H1273 H 0.6793 0.82091 0.28273 0.0
S1274 S 0.67582 0.8402 0.49552 0.0
N1275 N 0.68441 0.85981 0.45532 0.0
N1276 N 0.6702 0.82021 0.45883 0.0
C1277 C 0.67523 0.82906 0.41102 0.0
C1278 C 0.68288 0.85054 0.40902 0.0
C1279 C 0.17 0.82149 0.37829 0.0
C1280 C 0.15602 0.82594 0.35383 0.0
C1281 C 0.19061 0.83641 0.38404 0.0
C1282 C 0.19814 0.85645 0.36571 0.0
H1283 H 0.16502 0.80626 0.39251 0.0
H1284 H 0.2008 0.83217 0.40265 0.0
S1285 S 0.16742 0.87639 0.30273 0.0
N1286 N 0.15093 0.85209 0.31345 0.0
N1287 N 0.18957 0.88016 0.32461 0.0
C1288 C 0.18426 0.86116 0.34164 0.0
C1289 C 0.16325 0.84592 0.33564 0.0
C1290 C 0.65945 0.83609 0.86392 0.0
C1291 C 0.67263 0.85731 0.85961 0.0
C1292 C 0.66692 0.82243 0.8633 0.0
C1293 C 0.68785 0.82935 0.85766 0.0
H1294 H 0.64314 0.82988 0.86697 0.0
H1295 H 0.65617 0.80626 0.86606 0.0
S1296 S 0.72917 0.88318 0.84961 0.0
N1297 N 0.70807 0.8845 0.85355 0.0
N1298 N 0.72181 0.85868 0.85042 0.0
C1299 C 0.70127 0.85043 0.85388 0.0
C1300 C 0.69374 0.86443 0.85531 0.0
C1301 C 0.17725 0.82941 0.90152 0.0
C1302 C 0.16326 0.82011 0.86054 0.0
C1303 C 0.19097 0.85051 0.90185 0.0
C1304 C 0.19126 0.86315 0.86115 0.0
H1305 H 0.17736 0.82033 0.93401 0.0
H1306 H 0.20118 0.85705 0.93469 0.0
S1307 S 0.15946 0.84594 0.74164 0.0
N1308 N 0.1517 0.82494 0.7762 0.0
N1309 N 0.17742 0.86446 0.7767 0.0
C1310 C 0.1777 0.85394 0.81929 0.0
C1311 C 0.16372 0.83248 0.81902 0.0
C1312 C 0.17273 0.35018 0.89271 0.0
C1313 C 0.15963 0.33479 0.8581 0.0
C1314 C 0.19402 0.35867 0.89 0.0
C1315 C 0.20309 0.35214 0.85256 0.0
H1316 H 0.16645 0.35546 0.92271 0.0
H1317 H 0.20346 0.37027 0.91792 0.0
S1318 S 0.17573 0.31392 0.74913 0.0
N1319 N 0.15742 0.31445 0.78278 0.0
N1320 N 0.1973 0.3304 0.77763 0.0
C1321 C 0.19018 0.33707 0.81703 0.0
C1322 C 0.16852 0.32841 0.8198 0.0
C1323 C 0.85183 0.67069 0.73513 0.0
C1324 C 0.85839 0.66809 0.68592 0.0
C1325 C 0.83711 0.67674 0.74012 0.0
C1326 C 0.82829 0.68042 0.69612 0.0
H1327 H 0.85804 0.6679 0.77015 0.0
H1328 H 0.83243 0.67834 0.7788 0.0
S1329 S 0.84129 0.67748 0.55841 0.0
N1330 N 0.85563 0.67083 0.59223 0.0
N1331 N 0.82797 0.68202 0.60171 0.0
C1332 C 0.8348 0.67803 0.64668 0.0
C1333 C 0.84982 0.67191 0.64156 0.0
C1334 C 0.34916 0.18322 0.73228 0.0
C1335 C 0.34647 0.19049 0.68418 0.0
C1336 C 0.344 0.16277 0.73881 0.0
C1337 C 0.33587 0.14871 0.69755 0.0
H1338 H 0.35561 0.19351 0.76492 0.0
H1339 H 0.34672 0.15802 0.77631 0.0
S1340 S 0.32379 0.15951 0.56528 0.0
N1341 N 0.33379 0.18162 0.59557 0.0
N1342 N 0.32408 0.1433 0.60788 0.0
C1343 C 0.33272 0.1557 0.64952 0.0
C1344 C 0.33801 0.17653 0.64285 0.0
C1345 C 0.85687 0.18556 0.73702 0.0
C1346 C 0.87056 0.19243 0.69477 0.0
C1347 C 0.83652 0.16999 0.73095 0.0
C1348 C 0.82899 0.16064 0.6824 0.0
H1349 H 0.86183 0.19254 0.77491 0.0
H1350 H 0.82649 0.16542 0.7644 0.0
S1351 S 0.85922 0.17158 0.56075 0.0
N1352 N 0.87551 0.18774 0.60358 0.0
N1353 N 0.83739 0.15845 0.59214 0.0
C1354 C 0.84265 0.16709 0.64006 0.0
C1355 C 0.86337 0.18297 0.64626 0.0
C1356 C 0.02459 0.51035 0.48178 0.0
C1357 C 0.02099 0.49633 0.52224 0.0
C1358 C 0.01698 0.52389 0.48398 0.0
C1359 C 1.00528 0.52386 0.52651 0.0
H1360 H 0.03313 0.51068 0.44767 0.0
H1361 H 0.0199 0.53419 0.45164 0.0
S1362 S 0.99321 0.49192 0.64514 0.0
N1363 N 1.00625 0.48461 0.60828 0.0
N1364 N 0.99156 0.50964 0.61151 0.0
C1365 C 1.00182 0.51023 0.5676 0.0
C1366 C 1.00975 0.49657 0.5657 0.0
C1367 C 0.50643 0.5126 0.54231 0.0
C1368 C 0.52697 0.52173 0.52646 0.0
C1369 C 0.49348 0.49139 0.5407 0.0
C1370 C 0.50054 0.4784 0.52343 0.0
H1371 H 0.50036 0.52192 0.55673 0.0
H1372 H 0.47786 0.48507 0.55371 0.0
S1373 S 0.55238 0.49457 0.47312 0.0
N1374 N 0.55332 0.51606 0.48973 0.0
N1375 N 0.52905 0.47626 0.48723 0.0
C1376 C 0.52094 0.48729 0.5069 0.0
C1377 C 0.53413 0.50891 0.50829 0.0
C1378 C 0.52971 0.00964 0.4852 0.0
C1379 C 0.54166 0.01986 0.52885 0.0
C1380 C 0.50856 1.002 0.48482 0.0
C1381 C 0.4984 1.00413 0.52823 0.0
H1382 H 0.53684 1.00784 0.45067 0.0
H1383 H 0.50014 0.9946 0.44987 0.0
S1384 S 0.52249 0.02801 0.65412 0.0
N1385 N 0.54167 0.03074 0.6177 0.0
N1386 N 0.50191 0.01617 0.61732 0.0
C1387 C 0.51015 0.01404 0.57249 0.0
C1388 C 0.53174 0.02194 0.57273 0.0
C1389 C 0.50632 0.01785 0.98291 0.0
C1390 C 0.49776 0.01716 0.03203 0.0
C1391 C 0.52175 0.01282 0.97682 0.0
C1392 C 0.52927 1.00689 1.01959 0.0
H1393 H 0.50127 0.02264 0.94901 0.0
H1394 H 0.52809 0.01395 0.93841 0.0
S1395 S 0.51052 1.00041 0.15552 0.0
N1396 N 0.49698 1.00855 0.1236 0.0
N1397 N 0.52596 0.99923 0.11209 0.0
C1398 C 0.52058 1.00572 0.06872 0.0
C1399 C 0.50485 0.01081 0.07495 0.0
C1400 C 0.03688 0.52146 0.03559 0.0
C1401 C 0.0241 0.52967 1.02592 0.0
C1402 C 0.02933 0.50036 0.03422 0.0
C1403 C 1.0087 0.48659 1.023 0.0
H1404 H 0.05281 0.53144 0.04493 0.0
H1405 H 0.03969 0.49476 0.04262 0.0
S1406 S 0.96937 0.50046 0.98975 0.0
N1407 N 0.9901 0.52248 1.00167 0.0
N1408 N 0.97593 0.4829 0.99864 0.0
C1409 C 0.99582 0.49464 1.01245 0.0
C1410 C 1.00351 0.51613 1.01402 0.0
C1411 C 0.50674 0.50189 0.98128 0.0
C1412 C 0.49385 0.49423 1.02502 0.0
C1413 C 0.52756 0.51631 0.98649 0.0
C1414 C 0.53639 0.52363 0.03566 0.0
H1415 H 0.50081 0.49638 0.94272 0.0
H1416 H 0.53692 0.52147 0.9518 0.0
S1417 S 0.50889 0.51014 0.16197 0.0
N1418 N 0.49119 0.49623 0.11881 0.0
N1419 N 0.53025 0.52321 0.12862 0.0
C1420 C 0.5236 0.51645 0.07963 0.0
C1421 C 0.50238 0.5018 0.07431 0.0
C1422 C 0.42918 0.08205 0.1012 0.0
C1423 C 0.41755 0.06267 0.07826 0.0
C1424 C 0.42031 0.09032 0.13418 0.0
C1425 C 0.39929 0.07973 0.14594 0.0
H1426 H 0.44543 0.091 0.09403 0.0
H1427 H 0.43014 0.10527 0.1505 0.0
S1428 S 0.36174 0.02839 0.09606 0.0
N1429 N 0.3836 0.03307 0.06994 0.0
N1430 N 0.367 0.0486 0.13141 0.0
C1431 C 0.38739 0.06035 0.12309 0.0
C1432 C 0.39647 0.05186 0.08954 0.0
C1433 C 0.9761 0.34329 0.13995 0.0
C1434 C 0.95578 0.32709 0.14255 0.0
C1435 C 0.98219 0.3593 0.10397 0.0
C1436 C 0.9683 0.36001 0.06858 0.0
H1437 H 0.9876 0.34363 0.16578 0.0
H1438 H 0.99805 0.37122 0.10393 0.0
S1439 S 0.91311 0.32157 0.0593 0.0
N1440 N 0.92163 0.31295 0.10651 0.0
N1441 N 0.93301 0.34296 0.03906 0.0
C1442 C 0.94785 0.344 0.07092 0.0
C1443 C 0.94163 0.32762 0.10773 0.0
C1444 C 0.67036 0.63152 0.12316 0.0
C1445 C 0.66254 0.61524 0.08736 0.0
C1446 C 0.68898 0.63807 0.14925 0.0
C1447 C 0.70063 0.62849 0.14151 0.0
H1448 H 0.66204 0.63941 0.13119 0.0
H1449 H 0.69415 0.65065 0.17625 0.0
S1450 S 0.68729 0.58527 0.0514 0.0
N1451 N 0.66825 0.58989 0.04503 0.0
N1452 N 0.703 0.60192 0.09432 0.0
C1453 C 0.69306 0.61221 0.10564 0.0
C1454 C 0.67416 0.60569 0.07853 0.0
C1455 C 0.08353 0.40403 0.42978 0.0
C1456 C 0.07571 0.38378 0.41254 0.0
C1457 C 0.07172 0.40988 0.45988 0.0
C1458 C 0.05152 0.39576 0.47447 0.0
H1459 H 0.09898 0.41555 0.41999 0.0
H1460 H 0.07855 0.42564 0.47189 0.0
S1461 S 0.02353 0.34077 0.43919 0.0
N1462 N 0.04621 0.34961 0.41236 0.0
N1463 N 0.02419 0.36043 0.46854 0.0
C1464 C 0.04349 0.37545 0.45741 0.0
C1465 C 0.05549 0.36952 0.42664 0.0
C1466 C 0.62067 0.67283 0.48747 0.0
C1467 C 0.61666 0.65286 0.47723 0.0
C1468 C 0.62955 0.68843 0.44977 0.0
C1469 C 0.63508 0.6849 0.40013 0.0
H1470 H 0.61712 0.67657 0.52523 0.0
H1471 H 0.63259 0.70353 0.46023 0.0
S1472 S 0.62699 0.63517 0.35208 0.0
N1473 N 0.61826 0.63038 0.41232 0.0
N1474 N 0.63501 0.65954 0.34215 0.0
C1475 C 0.63077 0.66492 0.38894 0.0
C1476 C 0.62157 0.64899 0.42717 0.0
C1477 C 0.34452 0.95546 0.49546 0.0
C1478 C 0.36524 0.9655 0.48055 0.0
C1479 C 0.32865 0.94745 0.45837 0.0
C1480 C 0.33271 0.94945 0.40447 0.0
H1481 H 0.34047 0.95394 0.5363 0.0
H1482 H 0.31305 0.94024 0.47218 0.0
S1483 S 0.38423 0.97365 0.34434 0.0
N1484 N 0.38881 0.97618 0.40753 0.0
N1485 N 0.35916 0.9616 0.33824 0.0
C1486 C 0.35334 0.95907 0.38899 0.0
C1487 C 0.36951 0.96694 0.42679 0.0
C1488 C 0.62446 0.94328 0.93202 0.0
C1489 C 0.64004 0.9571 0.89863 0.0
C1490 C 0.61399 0.94962 0.96573 0.0
C1491 C 0.61868 0.97013 0.968 0.0
H1492 H 0.62026 0.92736 0.93227 0.0
H1493 H 0.60216 0.93829 0.99045 0.0
S1494 S 0.65815 0.01258 0.88853 0.0
N1495 N 0.65949 0.99245 0.87004 0.0
N1496 N 0.64006 1.00424 0.93311 0.0
C1497 C 0.63424 0.98412 0.9348 0.0
C1498 C 0.64481 0.97766 0.9003 0.0
C1499 C 0.04926 0.67367 0.97424 0.0
C1500 C 0.0553 0.65908 0.98353 0.0
C1501 C 0.06012 0.69019 0.94013 0.0
C1502 C 0.07756 0.69296 0.91325 0.0
H1503 H 0.03585 0.67231 0.99318 0.0
H1504 H 0.05458 0.70076 0.93448 0.0
S1505 S 0.10028 0.65945 0.9244 0.0
N1506 N 0.08029 0.64883 0.96345 0.0
N1507 N 0.10063 0.67972 0.89944 0.0
C1508 C 0.08397 0.67863 0.92259 0.0
C1509 C 0.07291 0.6618 0.95762 0.0
C1510 C 0.3468 0.37713 0.91859 0.0
C1511 C 0.33361 0.38459 0.90526 0.0
C1512 C 0.36386 0.38811 0.95098 0.0
C1513 C 0.36874 0.40721 0.97172 0.0
H1514 H 0.34396 0.36255 0.90399 0.0
H1515 H 0.37338 0.38152 0.95953 0.0
S1516 S 0.3392 0.43375 0.94948 0.0
N1517 N 0.32667 0.41242 0.91602 0.0
N1518 N 0.35867 0.43308 0.97652 0.0
C1519 C 0.35568 0.4149 0.95886 0.0
C1520 C 0.3382 0.40364 0.92586 0.0
C1521 C 0.94484 0.61509 0.62968 0.0
C1522 C 0.95097 0.6357 0.63962 0.0
C1523 C 0.95635 0.6095 0.59751 0.0
C1524 C 0.97454 0.62422 0.57342 0.0
H1525 H 0.93098 0.60307 0.64698 0.0
H1526 H 0.95089 0.59344 0.59154 0.0
S1527 S 0.99755 0.68041 0.5865 0.0
N1528 N 0.9767 0.67091 0.62236 0.0
N1529 N 0.99813 0.66056 0.56227 0.0
C1530 C 0.98085 0.64491 0.58298 0.0
C1531 C 0.96917 0.65059 0.61587 0.0
C1532 C 0.41509 0.32107 0.6102 0.0
C1533 C 0.39662 0.31545 0.63627 0.0
C1534 C 0.42433 0.33818 0.57712 0.0
C1535 C 0.41568 0.35068 0.56868 0.0
H1536 H 0.42246 0.31205 0.6148 0.0
H1537 H 0.43846 0.34161 0.55807 0.0
S1538 S 0.36753 0.343 0.62798 0.0
N1539 N 0.37008 0.32407 0.65141 0.0
N1540 N 0.38746 0.35618 0.58984 0.0
C1541 C 0.3973 0.34538 0.59488 0.0
C1542 C 0.38779 0.32784 0.62838 0.0
C1543 C 0.67634 0.06882 0.58432 0.0
C1544 C 0.66507 0.04752 0.59043 0.0
C1545 C 0.6949 0.08075 0.61094 0.0
C1546 C 0.70322 0.07191 0.64429 0.0
H1547 H 0.67063 0.07642 0.5594 0.0
H1548 H 0.70284 0.09709 0.60498 0.0
S1549 S 0.68017 0.0166 0.67224 0.0
N1550 N 0.66395 0.01802 0.63174 0.0
N1551 N 0.6987 0.04028 0.68089 0.0
C1552 C 0.69223 0.05057 0.65009 0.0
C1553 C 0.67325 0.03845 0.62348 0.0
C1554 C 0.75971 0.74742 0.76385 0.0
C1555 C 0.74809 0.72699 0.74747 0.0
C1556 C 0.75138 0.75656 0.79562 0.0
C1557 C 0.73092 0.74583 0.81256 0.0
H1558 H 0.77553 0.75655 0.75226 0.0
H1559 H 0.76116 0.77231 0.80669 0.0
S1560 S 0.69367 0.69186 0.78104 0.0
N1561 N 0.7148 0.69623 0.75115 0.0
N1562 N 0.69918 0.71338 0.81032 0.0
C1563 C 0.71904 0.72536 0.79648 0.0
C1564 C 0.72759 0.71599 0.76423 0.0
C1565 C 0.29708 0.01332 0.76047 0.0
C1566 C 0.28766 0.02516 0.75239 0.0
C1567 C 0.28876 0.99648 0.79483 0.0
C1568 C 0.2707 0.99073 0.82321 0.0
H1569 H 0.31108 0.0171 0.74021 0.0
H1570 H 0.29671 0.988 0.79943 0.0
S1571 S 0.23973 0.01635 0.81592 0.0
N1572 N 0.25889 0.02952 0.77566 0.0
N1573 N 0.24352 0.99827 0.83982 0.0
C1574 C 0.26108 1.00238 0.81529 0.0
C1575 C 0.26946 0.01942 0.78011 0.0
C1576 C 0.99875 0.29985 0.76599 0.0
C1577 C 0.99477 0.28155 0.74188 0.0
C1578 C 0.01584 0.31082 0.79834 0.0
C1579 C 0.02993 0.30414 0.80818 0.0
H1580 H 0.98848 0.30577 0.76027 0.0
H1581 H 0.01795 0.32474 0.81578 0.0
S1582 S 0.02702 0.25741 0.75366 0.0
N1583 N 1.00675 0.25739 0.72971 0.0
N1584 N 0.03877 0.27801 0.79012 0.0
C1585 C 0.02627 0.28594 0.78401 0.0
C1586 C 1.00877 0.27469 0.7511 0.0
C1587 C 0.28939 0.27512 0.25047 0.0
C1588 C 0.31084 0.28679 0.25062 0.0
C1589 C 0.27734 0.28169 0.27682 0.0
C1590 C 0.28615 0.30036 0.30405 0.0
H1591 H 0.28181 0.26056 0.23073 0.0
H1592 H 0.26092 0.27196 0.27577 0.0
S1593 S 0.34171 0.33736 0.31359 0.0
N1594 N 0.34037 0.31845 0.27878 0.0
N1595 N 0.3179 0.33077 0.32745 0.0
C1596 C 0.30761 0.31238 0.30347 0.0
C1597 C 0.31986 0.30562 0.27706 0.0
C1598 C 0.75001 0.0197 0.27164 0.0
C1599 C 0.73629 0.02029 0.23541 0.0
C1600 C 0.74393 1.00322 0.30645 0.0
C1601 C 0.72381 0.98656 0.30691 0.0
H1602 H 0.76561 0.03215 0.27349 0.0
H1603 H 0.75514 1.00367 0.33351 0.0
S1604 S 0.68192 0.98015 0.21899 0.0
N1605 N 0.70157 1.00223 0.20167 0.0
N1606 N 0.69026 0.97161 0.26673 0.0
C1607 C 0.70996 0.98688 0.27061 0.0
C1608 C 0.71616 1.00359 0.23506 0.0
C1609 C 0.02107 0.75614 0.29445 0.0
C1610 C 0.0303 0.74507 0.31263 0.0
C1611 C 1.00345 0.74708 0.26315 0.0
C1612 C 0.99411 0.72645 0.24822 0.0
H1613 H 0.02754 0.77208 0.30426 0.0
H1614 H 0.99714 0.75644 0.25052 0.0
S1615 S 1.0119 0.69043 0.28555 0.0
N1616 N 0.02847 0.71209 0.31337 0.0
N1617 N 0.99551 0.69512 0.25475 0.0
C1618 C 1.00311 0.71513 0.26621 0.0
C1619 C 0.02109 0.72438 0.29826 0.0
loop_
_geom_bond_atom_site_label_1
_geom_bond_atom_site_label_2
_geom_bond_distance
_geom_bond_site_symmetry_2
_ccdc_geom_bond_type
Cu0 N1 1.999 . S
Cu0 O6 1.974 . S
Cu0 N11 1.985 . S
Cu0 O20 1.959 . S
N1 Cu0 1.999 . S
N1 C3 1.263 . S
N1 C5 1.389 . S
N2 C3 1.358 . S
N2 C4 1.400 . S
C3 N1 1.263 . S
C3 N2 1.358 . S
C3 H9 0.930 . S
C4 N2 1.400 . S
C4 C5 1.351 . S
C4 H21 0.930 . S
C5 N1 1.389 . S
C5 C4 1.351 . S
C5 H10 0.930 . S
O6 Cu0 1.974 . S
O6 C16 1.282 . S
C7 O8 1.261 . S
C7 O20 1.251 . S
O8 C7 1.261 . S
H9 C3 0.930 . S
H10 C5 0.930 . S
N11 Cu0 1.985 . S
N11 C13 1.335 . S
N11 C14 1.390 . S
N12 C13 1.345 . S
N12 C15 1.336 . S
C13 N11 1.335 . S
C13 N12 1.345 . S
C13 H18 0.930 . S
C14 N11 1.390 . S
C14 C15 1.346 . S
C14 H19 0.930 . S
C15 N12 1.336 . S
C15 C14 1.346 . S
C15 H22 0.929 . S
C16 O6 1.282 . S
C16 O17 1.216 . S
O17 C16 1.216 . S
H18 C13 0.930 . S
H19 C14 0.930 . S
O20 Cu0 1.959 . S
O20 C7 1.251 . S
H21 C4 0.930 . S
H22 C15 0.929 . S
Cu23 N24 1.999 . S
Cu23 O29 1.974 . S
Cu23 N34 1.985 . S
Cu23 O43 1.959 . S
N24 Cu23 1.999 . S
N24 C26 1.263 . S
N24 C28 1.389 . S
N25 C26 1.358 . S
N25 C27 1.400 . S
C26 N24 1.263 . S
C26 N25 1.358 . S
C26 H32 0.930 . S
C27 N25 1.400 . S
C27 C28 1.351 . S
C27 H44 0.930 . S
C28 N24 1.389 . S
C28 C27 1.351 . S
C28 H33 0.930 . S
O29 Cu23 1.974 . S
O29 C39 1.282 . S
C30 O31 1.261 . S
C30 O43 1.251 . S
O31 C30 1.261 . S
H32 C26 0.930 . S
H33 C28 0.930 . S
N34 Cu23 1.985 . S
N34 C36 1.335 . S
N34 C37 1.390 . S
N35 C36 1.345 . S
N35 C38 1.336 . S
C36 N34 1.335 . S
C36 N35 1.345 . S
C36 H41 0.930 . S
C37 N34 1.390 . S
C37 C38 1.346 . S
C37 H42 0.930 . S
C38 N35 1.336 . S
C38 C37 1.346 . S
C38 H45 0.929 . S
C39 O29 1.282 . S
C39 O40 1.216 . S
O40 C39 1.216 . S
H41 C36 0.930 . S
H42 C37 0.930 . S
O43 Cu23 1.959 . S
O43 C30 1.251 . S
H44 C27 0.930 . S
H45 C38 0.929 . S
Cu46 N47 1.999 . S
Cu46 O52 1.974 . S
Cu46 N57 1.985 . S
Cu46 O66 1.959 . S
N47 Cu46 1.999 . S
N47 C49 1.263 . S
N47 C51 1.389 . S
N48 C49 1.358 . S
N48 C50 1.400 . S
C49 N47 1.263 . S
C49 N48 1.358 . S
C49 H55 0.930 . S
C50 N48 1.400 . S
C50 C51 1.351 . S
C50 H67 0.930 . S
C51 N47 1.389 . S
C51 C50 1.351 . S
C51 H56 0.930 . S
O52 Cu46 1.974 . S
O52 C62 1.282 . S
C53 O54 1.261 . S
C53 O66 1.251 . S
O54 C53 1.261 . S
H55 C49 0.930 . S
H56 C51 0.930 . S
N57 Cu46 1.985 . S
N57 C59 1.335 . S
N57 C60 1.390 . S
N58 C59 1.345 . S
N58 C61 1.336 . S
C59 N57 1.335 . S
C59 N58 1.345 . S
C59 H64 0.930 . S
C60 N57 1.390 . S
C60 C61 1.346 . S
C60 H65 0.930 . S
C61 N58 1.336 . S
C61 C60 1.346 . S
C61 H68 0.929 . S
C62 O52 1.282 . S
C62 O63 1.216 . S
O63 C62 1.216 . S
H64 C59 0.930 . S
H65 C60 0.930 . S
O66 Cu46 1.959 . S
O66 C53 1.251 . S
H67 C50 0.930 . S
H68 C61 0.929 . S
Cu69 N70 1.999 . S
Cu69 O75 1.974 . S
Cu69 N80 1.985 . S
Cu69 O89 1.959 . S
N70 Cu69 1.999 . S
N70 C72 1.263 . S
N70 C74 1.389 . S
N71 C72 1.358 . S
N71 C73 1.400 . S
C72 N70 1.263 . S
C72 N71 1.358 . S
C72 H78 0.930 . S
C73 N71 1.400 . S
C73 C74 1.351 . S
C73 H90 0.930 . S
C74 N70 1.389 . S
C74 C73 1.351 . S
C74 H79 0.930 . S
O75 Cu69 1.974 . S
O75 C85 1.282 . S
C76 O77 1.261 . S
C76 O89 1.251 . S
O77 C76 1.261 . S
H78 C72 0.930 . S
H79 C74 0.930 . S
N80 Cu69 1.985 . S
N80 C82 1.335 . S
N80 C83 1.390 . S
N81 C82 1.345 . S
N81 C84 1.336 . S
C82 N80 1.335 . S
C82 N81 1.345 . S
C82 H87 0.930 . S
C83 N80 1.390 . S
C83 C84 1.346 . S
C83 H88 0.930 . S
C84 N81 1.336 . S
C84 C83 1.346 . S
C84 H91 0.929 . S
C85 O75 1.282 . S
C85 O86 1.216 . S
O86 C85 1.216 . S
H87 C82 0.930 . S
H88 C83 0.930 . S
O89 Cu69 1.959 . S
O89 C76 1.251 . S
H90 C73 0.930 . S
H91 C84 0.929 . S
Cu92 N93 1.999 . S
Cu92 O98 1.974 . S
Cu92 N103 1.985 . S
Cu92 O112 1.959 . S
N93 Cu92 1.999 . S
N93 C95 1.263 . S
N93 C97 1.389 . S
N94 C95 1.358 . S
N94 C96 1.400 . S
C95 N93 1.263 . S
C95 N94 1.358 . S
C95 H101 0.930 . S
C96 N94 1.400 . S
C96 C97 1.351 . S
C96 H113 0.930 . S
C97 N93 1.389 . S
C97 C96 1.351 . S
C97 H102 0.930 . S
O98 Cu92 1.974 . S
O98 C108 1.282 . S
C99 O100 1.261 . S
C99 O112 1.251 . S
O100 C99 1.261 . S
H101 C95 0.930 . S
H102 C97 0.930 . S
N103 Cu92 1.985 . S
N103 C105 1.335 . S
N103 C106 1.390 . S
N104 C105 1.345 . S
N104 C107 1.336 . S
C105 N103 1.335 . S
C105 N104 1.345 . S
C105 H110 0.930 . S
C106 N103 1.390 . S
C106 C107 1.346 . S
C106 H111 0.930 . S
C107 N104 1.336 . S
C107 C106 1.346 . S
C107 H114 0.929 . S
C108 O98 1.282 . S
C108 O109 1.216 . S
O109 C108 1.216 . S
H110 C105 0.930 . S
H111 C106 0.930 . S
O112 Cu92 1.959 . S
O112 C99 1.251 . S
H113 C96 0.930 . S
H114 C107 0.929 . S
Cu115 N116 1.999 . S
Cu115 O121 1.974 . S
Cu115 N126 1.985 . S
Cu115 O135 1.959 . S
N116 Cu115 1.999 . S
N116 C118 1.263 . S
N116 C120 1.389 . S
N117 C118 1.358 . S
N117 C119 1.400 . S
C118 N116 1.263 . S
C118 N117 1.358 . S
C118 H124 0.930 . S
C119 N117 1.400 . S
C119 C120 1.351 . S
C119 H136 0.930 . S
C120 N116 1.389 . S
C120 C119 1.351 . S
C120 H125 0.930 . S
O121 Cu115 1.974 . S
O121 C131 1.282 . S
C122 O123 1.261 . S
C122 O135 1.251 . S
O123 C122 1.261 . S
H124 C118 0.930 . S
H125 C120 0.930 . S
N126 Cu115 1.985 . S
N126 C128 1.335 . S
N126 C129 1.390 . S
N127 C128 1.345 . S
N127 C130 1.336 . S
C128 N126 1.335 . S
C128 N127 1.345 . S
C128 H133 0.930 . S
C129 N126 1.390 . S
C129 C130 1.346 . S
C129 H134 0.930 . S
C130 N127 1.336 . S
C130 C129 1.346 . S
C130 H137 0.929 . S
C131 O121 1.282 . S
C131 O132 1.216 . S
O132 C131 1.216 . S
H133 C128 0.930 . S
H134 C129 0.930 . S
O135 Cu115 1.959 . S
O135 C122 1.251 . S
H136 C119 0.930 . S
H137 C130 0.929 . S
Cu138 N139 1.999 . S
Cu138 O144 1.974 . S
Cu138 N149 1.985 . S
Cu138 O158 1.959 . S
N139 Cu138 1.999 . S
N139 C141 1.263 . S
N139 C143 1.389 . S
N140 C141 1.358 . S
N140 C142 1.400 . S
C141 N139 1.263 . S
C141 N140 1.358 . S
C141 H147 0.930 . S
C142 N140 1.400 . S
C142 C143 1.351 . S
C142 H159 0.930 . S
C143 N139 1.389 . S
C143 C142 1.351 . S
C143 H148 0.930 . S
O144 Cu138 1.974 . S
O144 C154 1.282 . S
C145 O146 1.261 . S
C145 O158 1.251 . S
O146 C145 1.261 . S
H147 C141 0.930 . S
H148 C143 0.930 . S
N149 Cu138 1.985 . S
N149 C151 1.335 . S
N149 C152 1.390 . S
N150 C151 1.345 . S
N150 C153 1.336 . S
C151 N149 1.335 . S
C151 N150 1.345 . S
C151 H156 0.930 . S
C152 N149 1.390 . S
C152 C153 1.346 . S
C152 H157 0.930 . S
C153 N150 1.336 . S
C153 C152 1.346 . S
C153 H160 0.929 . S
C154 O144 1.282 . S
C154 O155 1.216 . S
O155 C154 1.216 . S
H156 C151 0.930 . S
H157 C152 0.930 . S
O158 Cu138 1.959 . S
O158 C145 1.251 . S
H159 C142 0.930 . S
H160 C153 0.929 . S
Cu161 N162 1.999 . S
Cu161 O167 1.974 . S
Cu161 N172 1.985 . S
Cu161 O181 1.959 . S
N162 Cu161 1.999 . S
N162 C164 1.263 . S
N162 C166 1.389 . S
N163 C164 1.358 . S
N163 C165 1.400 . S
C164 N162 1.263 . S
C164 N163 1.358 . S
C164 H170 0.930 . S
C165 N163 1.400 . S
C165 C166 1.351 . S
C165 H182 0.930 . S
C166 N162 1.389 . S
C166 C165 1.351 . S
C166 H171 0.930 . S
O167 Cu161 1.974 . S
O167 C177 1.282 . S
C168 O169 1.261 . S
C168 O181 1.251 . S
O169 C168 1.261 . S
H170 C164 0.930 . S
H171 C166 0.930 . S
N172 Cu161 1.985 . S
N172 C174 1.335 . S
N172 C175 1.390 . S
N173 C174 1.345 . S
N173 C176 1.336 . S
C174 N172 1.335 . S
C174 N173 1.345 . S
C174 H179 0.930 . S
C175 N172 1.390 . S
C175 C176 1.346 . S
C175 H180 0.930 . S
C176 N173 1.336 . S
C176 C175 1.346 . S
C176 H183 0.929 . S
C177 O167 1.282 . S
C177 O178 1.216 . S
O178 C177 1.216 . S
H179 C174 0.930 . S
H180 C175 0.930 . S
O181 Cu161 1.959 . S
O181 C168 1.251 . S
H182 C165 0.930 . S
H183 C176 0.929 . S
Cu184 N185 1.999 . S
Cu184 O190 1.974 . S
Cu184 N195 1.985 . S
Cu184 O204 1.959 . S
N185 Cu184 1.999 . S
N185 C187 1.263 . S
N185 C189 1.389 . S
N186 C187 1.358 . S
N186 C188 1.400 . S
C187 N185 1.263 . S
C187 N186 1.358 . S
C187 H193 0.930 . S
C188 N186 1.400 . S
C188 C189 1.351 . S
C188 H205 0.930 . S
C189 N185 1.389 . S
C189 C188 1.351 . S
C189 H194 0.930 . S
O190 Cu184 1.974 . S
O190 C200 1.282 . S
C191 O192 1.261 . S
C191 O204 1.251 . S
O192 C191 1.261 . S
H193 C187 0.930 . S
H194 C189 0.930 . S
N195 Cu184 1.985 . S
N195 C197 1.335 . S
N195 C198 1.390 . S
N196 C197 1.345 . S
N196 C199 1.336 . S
C197 N195 1.335 . S
C197 N196 1.345 . S
C197 H202 0.930 . S
C198 N195 1.390 . S
C198 C199 1.346 . S
C198 H203 0.930 . S
C199 N196 1.336 . S
C199 C198 1.346 . S
C199 H206 0.929 . S
C200 O190 1.282 . S
C200 O201 1.216 . S
O201 C200 1.216 . S
H202 C197 0.930 . S
H203 C198 0.930 . S
O204 Cu184 1.959 . S
O204 C191 1.251 . S
H205 C188 0.930 . S
H206 C199 0.929 . S
Cu207 N208 1.999 . S
Cu207 O213 1.974 . S
Cu207 N218 1.985 . S
Cu207 O227 1.959 . S
N208 Cu207 1.999 . S
N208 C210 1.263 . S
N208 C212 1.389 . S
N209 C210 1.358 . S
N209 C211 1.400 . S
C210 N208 1.263 . S
C210 N209 1.358 . S
C210 H216 0.930 . S
C211 N209 1.400 . S
C211 C212 1.351 . S
C211 H228 0.930 . S
C212 N208 1.389 . S
C212 C211 1.351 . S
C212 H217 0.930 . S
O213 Cu207 1.974 . S
O213 C223 1.282 . S
C214 O215 1.261 . S
C214 O227 1.251 . S
O215 C214 1.261 . S
H216 C210 0.930 . S
H217 C212 0.930 . S
N218 Cu207 1.985 . S
N218 C220 1.335 . S
N218 C221 1.390 . S
N219 C220 1.345 . S
N219 C222 1.336 . S
C220 N218 1.335 . S
C220 N219 1.345 . S
C220 H225 0.930 . S
C221 N218 1.390 . S
C221 C222 1.346 . S
C221 H226 0.930 . S
C222 N219 1.336 . S
C222 C221 1.346 . S
C222 H229 0.929 . S
C223 O213 1.282 . S
C223 O224 1.216 . S
O224 C223 1.216 . S
H225 C220 0.930 . S
H226 C221 0.930 . S
O227 Cu207 1.959 . S
O227 C214 1.251 . S
H228 C211 0.930 . S
H229 C222 0.929 . S
Cu230 N231 1.999 . S
Cu230 O236 1.974 . S
Cu230 N241 1.985 . S
Cu230 O250 1.959 . S
N231 Cu230 1.999 . S
N231 C233 1.263 . S
N231 C235 1.389 . S
N232 C233 1.358 . S
N232 C234 1.400 . S
C233 N231 1.263 . S
C233 N232 1.358 . S
C233 H239 0.930 . S
C234 N232 1.400 . S
C234 C235 1.351 . S
C234 H251 0.930 . S
C235 N231 1.389 . S
C235 C234 1.351 . S
C235 H240 0.930 . S
O236 Cu230 1.974 . S
O236 C246 1.282 . S
C237 O238 1.261 . S
C237 O250 1.251 . S
O238 C237 1.261 . S
H239 C233 0.930 . S
H240 C235 0.930 . S
N241 Cu230 1.985 . S
N241 C243 1.335 . S
N241 C244 1.390 . S
N242 C243 1.345 . S
N242 C245 1.336 . S
C243 N241 1.335 . S
C243 N242 1.345 . S
C243 H248 0.930 . S
C244 N241 1.390 . S
C244 C245 1.346 . S
C244 H249 0.930 . S
C245 N242 1.336 . S
C245 C244 1.346 . S
C245 H252 0.929 . S
C246 O236 1.282 . S
C246 O247 1.216 . S
O247 C246 1.216 . S
H248 C243 0.930 . S
H249 C244 0.930 . S
O250 Cu230 1.959 . S
O250 C237 1.251 . S
H251 C234 0.930 . S
H252 C245 0.929 . S
Cu253 N254 1.999 . S
Cu253 O259 1.974 . S
Cu253 N264 1.985 . S
Cu253 O273 1.959 . S
N254 Cu253 1.999 . S
N254 C256 1.263 . S
N254 C258 1.389 . S
N255 C256 1.358 . S
N255 C257 1.400 . S
C256 N254 1.263 . S
C256 N255 1.358 . S
C256 H262 0.930 . S
C257 N255 1.400 . S
C257 C258 1.351 . S
C257 H274 0.930 . S
C258 N254 1.389 . S
C258 C257 1.351 . S
C258 H263 0.930 . S
O259 Cu253 1.974 . S
O259 C269 1.282 . S
C260 O261 1.261 . S
C260 O273 1.251 . S
O261 C260 1.261 . S
H262 C256 0.930 . S
H263 C258 0.930 . S
N264 Cu253 1.985 . S
N264 C266 1.335 . S
N264 C267 1.390 . S
N265 C266 1.345 . S
N265 C268 1.336 . S
C266 N264 1.335 . S
C266 N265 1.345 . S
C266 H271 0.930 . S
C267 N264 1.390 . S
C267 C268 1.346 . S
C267 H272 0.930 . S
C268 N265 1.336 . S
C268 C267 1.346 . S
C268 H275 0.929 . S
C269 O259 1.282 . S
C269 O270 1.216 . S
O270 C269 1.216 . S
H271 C266 0.930 . S
H272 C267 0.930 . S
O273 Cu253 1.959 . S
O273 C260 1.251 . S
H274 C257 0.930 . S
H275 C268 0.929 . S
Cu276 N277 1.999 . S
Cu276 O282 1.974 . S
Cu276 N287 1.985 . S
Cu276 O296 1.959 . S
N277 Cu276 1.999 . S
N277 C279 1.263 . S
N277 C281 1.389 . S
N278 C279 1.358 . S
N278 C280 1.400 . S
C279 N277 1.263 . S
C279 N278 1.358 . S
C279 H285 0.930 . S
C280 N278 1.400 . S
C280 C281 1.351 . S
C280 H297 0.930 1_455 S
C281 N277 1.389 . S
C281 C280 1.351 . S
C281 H286 0.930 1_455 S
O282 Cu276 1.974 . S
O282 C292 1.282 . S
C283 O284 1.261 . S
C283 O296 1.251 . S
O284 C283 1.261 . S
H285 C279 0.930 . S
H286 C281 0.930 1_655 S
N287 Cu276 1.985 . S
N287 C289 1.335 . S
N287 C290 1.390 . S
N288 C289 1.345 . S
N288 C291 1.336 . S
C289 N287 1.335 . S
C289 N288 1.345 . S
C289 H294 0.930 . S
C290 N287 1.390 . S
C290 C291 1.346 . S
C290 H295 0.930 . S
C291 N288 1.336 . S
C291 C290 1.346 . S
C291 H298 0.929 . S
C292 O282 1.282 . S
C292 O293 1.216 . S
O293 C292 1.216 . S
H294 C289 0.930 . S
H295 C290 0.930 . S
O296 Cu276 1.959 . S
O296 C283 1.251 . S
H297 C280 0.930 1_655 S
H298 C291 0.929 . S
Cu299 N300 1.999 . S
Cu299 O305 1.974 . S
Cu299 N310 1.985 . S
Cu299 O319 1.959 . S
N300 Cu299 1.999 . S
N300 C302 1.263 . S
N300 C304 1.389 . S
N301 C302 1.358 . S
N301 C303 1.400 . S
C302 N300 1.263 . S
C302 N301 1.358 . S
C302 H308 0.930 . S
C303 N301 1.400 . S
C303 C304 1.351 . S
C303 H320 0.930 . S
C304 N300 1.389 . S
C304 C303 1.351 . S
C304 H309 0.930 . S
O305 Cu299 1.974 . S
O305 C315 1.282 . S
C306 O307 1.261 . S
C306 O319 1.251 . S
O307 C306 1.261 . S
H308 C302 0.930 . S
H309 C304 0.930 . S
N310 Cu299 1.985 . S
N310 C312 1.335 . S
N310 C313 1.390 . S
N311 C312 1.345 . S
N311 C314 1.336 . S
C312 N310 1.335 . S
C312 N311 1.345 . S
C312 H317 0.930 . S
C313 N310 1.390 . S
C313 C314 1.346 . S
C313 H318 0.930 . S
C314 N311 1.336 . S
C314 C313 1.346 . S
C314 H321 0.929 . S
C315 O305 1.282 . S
C315 O316 1.216 . S
O316 C315 1.216 . S
H317 C312 0.930 . S
H318 C313 0.930 . S
O319 Cu299 1.959 . S
O319 C306 1.251 . S
H320 C303 0.930 . S
H321 C314 0.929 . S
Cu322 N323 1.999 . S
Cu322 O328 1.974 . S
Cu322 N333 1.985 . S
Cu322 O342 1.959 . S
N323 Cu322 1.999 . S
N323 C325 1.263 . S
N323 C327 1.389 . S
N324 C325 1.358 . S
N324 C326 1.400 . S
C325 N323 1.263 . S
C325 N324 1.358 . S
C325 H331 0.930 . S
C326 N324 1.400 . S
C326 C327 1.351 . S
C326 H343 0.930 1_565 S
C327 N323 1.389 . S
C327 C326 1.351 . S
C327 H332 0.930 1_565 S
O328 Cu322 1.974 . S
O328 C338 1.282 . S
C329 O330 1.261 . S
C329 O342 1.251 . S
O330 C329 1.261 . S
H331 C325 0.930 . S
H332 C327 0.930 1_545 S
N333 Cu322 1.985 . S
N333 C335 1.335 . S
N333 C336 1.390 . S
N334 C335 1.345 . S
N334 C337 1.336 . S
C335 N333 1.335 . S
C335 N334 1.345 . S
C335 H340 0.930 . S
C336 N333 1.390 . S
C336 C337 1.346 . S
C336 H341 0.930 . S
C337 N334 1.336 . S
C337 C336 1.346 . S
C337 H344 0.929 . S
C338 O328 1.282 . S
C338 O339 1.216 . S
O339 C338 1.216 . S
H340 C335 0.930 . S
H341 C336 0.930 . S
O342 Cu322 1.959 . S
O342 C329 1.251 . S
H343 C326 0.930 1_545 S
H344 C337 0.929 . S
Cu345 N346 1.999 . S
Cu345 O351 1.974 . S
Cu345 N356 1.985 . S
Cu345 O365 1.959 . S
N346 Cu345 1.999 . S
N346 C348 1.263 . S
N346 C350 1.389 . S
N347 C348 1.358 . S
N347 C349 1.400 . S
C348 N346 1.263 . S
C348 N347 1.358 . S
C348 H354 0.930 . S
C349 N347 1.400 . S
C349 C350 1.351 . S
C349 H366 0.930 . S
C350 N346 1.389 . S
C350 C349 1.351 . S
C350 H355 0.930 . S
O351 Cu345 1.974 . S
O351 C361 1.282 . S
C352 O353 1.261 . S
C352 O365 1.251 . S
O353 C352 1.261 . S
H354 C348 0.930 . S
H355 C350 0.930 . S
N356 Cu345 1.985 . S
N356 C358 1.335 . S
N356 C359 1.390 . S
N357 C358 1.345 . S
N357 C360 1.336 . S
C358 N356 1.335 . S
C358 N357 1.345 . S
C358 H363 0.930 . S
C359 N356 1.390 . S
C359 C360 1.346 . S
C359 H364 0.930 . S
C360 N357 1.336 . S
C360 C359 1.346 . S
C360 H367 0.929 . S
C361 O351 1.282 . S
C361 O362 1.216 . S
O362 C361 1.216 . S
H363 C358 0.930 . S
H364 C359 0.930 . S
O365 Cu345 1.959 . S
O365 C352 1.251 . S
H366 C349 0.930 . S
H367 C360 0.929 . S
Cu368 N369 1.999 . S
Cu368 O374 1.974 . S
Cu368 N379 1.985 . S
Cu368 O388 1.959 . S
N369 Cu368 1.999 . S
N369 C371 1.263 . S
N369 C373 1.389 . S
N370 C371 1.358 . S
N370 C372 1.400 . S
C371 N369 1.263 . S
C371 N370 1.358 . S
C371 H377 0.930 . S
C372 N370 1.400 . S
C372 C373 1.351 . S
C372 H389 0.930 . S
C373 N369 1.389 . S
C373 C372 1.351 . S
C373 H378 0.930 . S
O374 Cu368 1.974 . S
O374 C384 1.282 . S
C375 O376 1.261 . S
C375 O388 1.251 . S
O376 C375 1.261 . S
H377 C371 0.930 . S
H378 C373 0.930 . S
N379 Cu368 1.985 . S
N379 C381 1.335 . S
N379 C382 1.390 . S
N380 C381 1.345 . S
N380 C383 1.336 . S
C381 N379 1.335 . S
C381 N380 1.345 . S
C381 H386 0.930 . S
C382 N379 1.390 . S
C382 C383 1.346 . S
C382 H387 0.930 . S
C383 N380 1.336 . S
C383 C382 1.346 . S
C383 H390 0.929 . S
C384 O374 1.282 . S
C384 O385 1.216 . S
O385 C384 1.216 . S
H386 C381 0.930 . S
H387 C382 0.930 . S
O388 Cu368 1.959 . S
O388 C375 1.251 . S
H389 C372 0.930 . S
H390 C383 0.929 . S
Cu391 N392 1.999 . S
Cu391 O397 1.974 . S
Cu391 N402 1.985 . S
Cu391 O411 1.959 . S
N392 Cu391 1.999 . S
N392 C394 1.263 . S
N392 C396 1.389 . S
N393 C394 1.358 . S
N393 C395 1.400 . S
C394 N392 1.263 . S
C394 N393 1.358 . S
C394 H400 0.930 . S
C395 N393 1.400 . S
C395 C396 1.351 . S
C395 H412 0.930 . S
C396 N392 1.389 . S
C396 C395 1.351 . S
C396 H401 0.930 . S
O397 Cu391 1.974 . S
O397 C407 1.282 . S
C398 O399 1.261 . S
C398 O411 1.251 . S
O399 C398 1.261 . S
H400 C394 0.930 . S
H401 C396 0.930 . S
N402 Cu391 1.985 . S
N402 C404 1.335 . S
N402 C405 1.390 . S
N403 C404 1.345 . S
N403 C406 1.336 . S
C404 N402 1.335 . S
C404 N403 1.345 . S
C404 H409 0.930 . S
C405 N402 1.390 . S
C405 C406 1.346 . S
C405 H410 0.930 . S
C406 N403 1.336 . S
C406 C405 1.346 . S
C406 H413 0.929 . S
C407 O397 1.282 . S
C407 O408 1.216 . S
O408 C407 1.216 . S
H409 C404 0.930 . S
H410 C405 0.930 . S
O411 Cu391 1.959 . S
O411 C398 1.251 . S
H412 C395 0.930 . S
H413 C406 0.929 . S
Cu414 N415 1.999 . S
Cu414 O420 1.974 . S
Cu414 N425 1.985 . S
Cu414 O434 1.959 . S
N415 Cu414 1.999 . S
N415 C417 1.263 . S
N415 C419 1.389 . S
N416 C417 1.358 . S
N416 C418 1.400 . S
C417 N415 1.263 . S
C417 N416 1.358 . S
C417 H423 0.930 . S
C418 N416 1.400 . S
C418 C419 1.351 . S
C418 H435 0.930 . S
C419 N415 1.389 . S
C419 C418 1.351 . S
C419 H424 0.930 . S
O420 Cu414 1.974 . S
O420 C430 1.282 . S
C421 O422 1.261 . S
C421 O434 1.251 . S
O422 C421 1.261 . S
H423 C417 0.930 . S
H424 C419 0.930 . S
N425 Cu414 1.985 . S
N425 C427 1.335 . S
N425 C428 1.390 . S
N426 C427 1.345 . S
N426 C429 1.336 . S
C427 N425 1.335 . S
C427 N426 1.345 . S
C427 H432 0.930 . S
C428 N425 1.390 . S
C428 C429 1.346 . S
C428 H433 0.930 . S
C429 N426 1.336 . S
C429 C428 1.346 . S
C429 H436 0.929 . S
C430 O420 1.282 . S
C430 O431 1.216 . S
O431 C430 1.216 . S
H432 C427 0.930 . S
H433 C428 0.930 . S
O434 Cu414 1.959 . S
O434 C421 1.251 . S
H435 C418 0.930 . S
H436 C429 0.929 . S
Cu437 N438 1.999 . S
Cu437 O443 1.974 . S
Cu437 N448 1.985 . S
Cu437 O457 1.959 . S
N438 Cu437 1.999 . S
N438 C440 1.263 . S
N438 C442 1.389 . S
N439 C440 1.358 . S
N439 C441 1.400 . S
C440 N438 1.263 . S
C440 N439 1.358 . S
C440 H446 0.930 . S
C441 N439 1.400 . S
C441 C442 1.351 . S
C441 H458 0.930 . S
C442 N438 1.389 . S
C442 C441 1.351 . S
C442 H447 0.930 . S
O443 Cu437 1.974 . S
O443 C453 1.282 . S
C444 O445 1.261 . S
C444 O457 1.251 . S
O445 C444 1.261 . S
H446 C440 0.930 . S
H447 C442 0.930 . S
N448 Cu437 1.985 . S
N448 C450 1.335 . S
N448 C451 1.390 . S
N449 C450 1.345 . S
N449 C452 1.336 . S
C450 N448 1.335 . S
C450 N449 1.345 . S
C450 H455 0.930 . S
C451 N448 1.390 . S
C451 C452 1.346 . S
C451 H456 0.930 . S
C452 N449 1.336 . S
C452 C451 1.346 . S
C452 H459 0.929 . S
C453 O443 1.282 . S
C453 O454 1.216 . S
O454 C453 1.216 . S
H455 C450 0.930 . S
H456 C451 0.930 . S
O457 Cu437 1.959 . S
O457 C444 1.251 . S
H458 C441 0.930 . S
H459 C452 0.929 . S
Cu460 N461 1.999 . S
Cu460 O466 1.974 . S
Cu460 N471 1.985 . S
Cu460 O480 1.959 . S
N461 Cu460 1.999 . S
N461 C463 1.263 . S
N461 C465 1.389 . S
N462 C463 1.358 . S
N462 C464 1.400 . S
C463 N461 1.263 . S
C463 N462 1.358 . S
C463 H469 0.930 . S
C464 N462 1.400 . S
C464 C465 1.351 . S
C464 H481 0.930 . S
C465 N461 1.389 . S
C465 C464 1.351 . S
C465 H470 0.930 . S
O466 Cu460 1.974 . S
O466 C476 1.282 . S
C467 O468 1.261 . S
C467 O480 1.251 . S
O468 C467 1.261 . S
H469 C463 0.930 . S
H470 C465 0.930 . S
N471 Cu460 1.985 . S
N471 C473 1.335 . S
N471 C474 1.390 . S
N472 C473 1.345 . S
N472 C475 1.336 . S
C473 N471 1.335 . S
C473 N472 1.345 . S
C473 H478 0.930 . S
C474 N471 1.390 . S
C474 C475 1.346 . S
C474 H479 0.930 . S
C475 N472 1.336 . S
C475 C474 1.346 . S
C475 H482 0.929 . S
C476 O466 1.282 . S
C476 O477 1.216 . S
O477 C476 1.216 . S
H478 C473 0.930 . S
H479 C474 0.930 . S
O480 Cu460 1.959 . S
O480 C467 1.251 . S
H481 C464 0.930 . S
H482 C475 0.929 . S
Cu483 N484 1.999 . S
Cu483 O489 1.974 . S
Cu483 N494 1.985 . S
Cu483 O503 1.959 . S
N484 Cu483 1.999 . S
N484 C486 1.263 . S
N484 C488 1.389 . S
N485 C486 1.358 . S
N485 C487 1.400 . S
C486 N484 1.263 . S
C486 N485 1.358 . S
C486 H492 0.930 . S
C487 N485 1.400 . S
C487 C488 1.351 . S
C487 H504 0.930 1_565 S
C488 N484 1.389 . S
C488 C487 1.351 . S
C488 H493 0.930 1_565 S
O489 Cu483 1.974 . S
O489 C499 1.282 . S
C490 O491 1.261 . S
C490 O503 1.251 . S
O491 C490 1.261 . S
H492 C486 0.930 . S
H493 C488 0.930 1_545 S
N494 Cu483 1.985 . S
N494 C496 1.335 . S
N494 C497 1.390 . S
N495 C496 1.345 . S
N495 C498 1.336 . S
C496 N494 1.335 . S
C496 N495 1.345 . S
C496 H501 0.930 . S
C497 N494 1.390 . S
C497 C498 1.346 . S
C497 H502 0.918 1_554 S
C498 N495 1.336 . S
C498 C497 1.346 . S
C498 H505 0.929 . S
C499 O489 1.282 . S
C499 O500 1.216 . S
O500 C499 1.216 . S
H501 C496 0.930 . S
H502 C497 0.918 1_556 S
O503 Cu483 1.959 . S
O503 C490 1.251 . S
H504 C487 0.930 1_545 S
H505 C498 0.929 . S
Cu506 N507 1.999 . S
Cu506 O512 1.974 . S
Cu506 N517 1.985 . S
Cu506 O526 1.959 . S
N507 Cu506 1.999 . S
N507 C509 1.263 . S
N507 C511 1.389 . S
N508 C509 1.358 . S
N508 C510 1.400 . S
C509 N507 1.263 . S
C509 N508 1.358 . S
C509 H515 0.930 . S
C510 N508 1.400 . S
C510 C511 1.351 . S
C510 H527 0.930 1_455 S
C511 N507 1.389 . S
C511 C510 1.351 . S
C511 H516 0.930 1_455 S
O512 Cu506 1.974 . S
O512 C522 1.282 . S
C513 O514 1.261 . S
C513 O526 1.251 . S
O514 C513 1.261 . S
H515 C509 0.930 . S
H516 C511 0.930 1_655 S
N517 Cu506 1.985 . S
N517 C519 1.335 . S
N517 C520 1.390 . S
N518 C519 1.345 . S
N518 C521 1.336 . S
C519 N517 1.335 . S
C519 N518 1.345 . S
C519 H524 0.930 . S
C520 N517 1.390 . S
C520 C521 1.346 . S
C520 H525 0.918 1_554 S
C521 N518 1.336 . S
C521 C520 1.346 . S
C521 H528 0.929 . S
C522 O512 1.282 . S
C522 O523 1.216 . S
O523 C522 1.216 . S
H524 C519 0.930 . S
H525 C520 0.918 1_556 S
O526 Cu506 1.959 . S
O526 C513 1.251 . S
H527 C510 0.930 1_655 S
H528 C521 0.929 . S
Cu529 N530 1.999 . S
Cu529 O535 1.974 . S
Cu529 N540 1.985 . S
Cu529 O549 1.959 . S
N530 Cu529 1.999 . S
N530 C532 1.263 . S
N530 C534 1.389 . S
N531 C532 1.358 . S
N531 C533 1.400 . S
C532 N530 1.263 . S
C532 N531 1.358 . S
C532 H538 0.930 . S
C533 N531 1.400 . S
C533 C534 1.351 . S
C533 H550 0.930 . S
C534 N530 1.389 . S
C534 C533 1.351 . S
C534 H539 0.930 . S
O535 Cu529 1.974 . S
O535 C545 1.282 . S
C536 O537 1.261 . S
C536 O549 1.251 . S
O537 C536 1.261 . S
H538 C532 0.930 . S
H539 C534 0.930 . S
N540 Cu529 1.985 . S
N540 C542 1.335 . S
N540 C543 1.390 . S
N541 C542 1.345 . S
N541 C544 1.336 . S
C542 N540 1.335 . S
C542 N541 1.345 . S
C542 H547 0.930 . S
C543 N540 1.390 . S
C543 C544 1.346 . S
C543 H548 0.919 1_554 S
C544 N541 1.336 . S
C544 C543 1.346 . S
C544 H551 0.929 . S
C545 O535 1.282 . S
C545 O546 1.216 . S
O546 C545 1.216 . S
H547 C542 0.930 . S
H548 C543 0.919 1_556 S
O549 Cu529 1.959 . S
O549 C536 1.251 . S
H550 C533 0.930 . S
H551 C544 0.929 . S
Cu552 N553 1.999 . S
Cu552 O558 1.974 . S
Cu552 N563 1.985 . S
Cu552 O572 1.959 . S
N553 Cu552 1.999 . S
N553 C555 1.263 . S
N553 C557 1.389 . S
N554 C555 1.358 . S
N554 C556 1.400 . S
C555 N553 1.263 . S
C555 N554 1.358 . S
C555 H561 0.930 . S
C556 N554 1.400 . S
C556 C557 1.351 . S
C556 H573 0.930 . S
C557 N553 1.389 . S
C557 C556 1.351 . S
C557 H562 0.930 . S
O558 Cu552 1.974 . S
O558 C568 1.282 . S
C559 O560 1.261 . S
C559 O572 1.251 . S
O560 C559 1.261 . S
H561 C555 0.930 . S
H562 C557 0.930 . S
N563 Cu552 1.985 . S
N563 C565 1.335 . S
N563 C566 1.390 . S
N564 C565 1.345 . S
N564 C567 1.336 . S
C565 N563 1.335 . S
C565 N564 1.345 . S
C565 H570 0.930 . S
C566 N563 1.390 . S
C566 C567 1.346 . S
C566 H571 0.930 . S
C567 N564 1.336 . S
C567 C566 1.346 . S
C567 H574 0.929 . S
C568 O558 1.282 . S
C568 O569 1.216 . S
O569 C568 1.216 . S
H570 C565 0.930 . S
H571 C566 0.930 . S
O572 Cu552 1.959 . S
O572 C559 1.251 . S
H573 C556 0.930 . S
H574 C567 0.929 . S
Cu575 N576 1.999 . S
Cu575 O581 1.974 . S
Cu575 N586 1.985 . S
Cu575 O595 1.959 . S
N576 Cu575 1.999 . S
N576 C578 1.263 . S
N576 C580 1.389 . S
N577 C578 1.358 . S
N577 C579 1.400 . S
C578 N576 1.263 . S
C578 N577 1.358 . S
C578 H584 0.930 . S
C579 N577 1.400 . S
C579 C580 1.351 . S
C579 H596 0.930 . S
C580 N576 1.389 . S
C580 C579 1.351 . S
C580 H585 0.930 . S
O581 Cu575 1.974 . S
O581 C591 1.282 . S
C582 O583 1.261 . S
C582 O595 1.251 . S
O583 C582 1.261 . S
H584 C578 0.930 . S
H585 C580 0.930 . S
N586 Cu575 1.985 . S
N586 C588 1.335 . S
N586 C589 1.390 . S
N587 C588 1.345 . S
N587 C590 1.336 . S
C588 N586 1.335 . S
C588 N587 1.345 . S
C588 H593 0.930 . S
C589 N586 1.390 . S
C589 C590 1.346 . S
C589 H594 0.930 . S
C590 N587 1.336 . S
C590 C589 1.346 . S
C590 H597 0.929 . S
C591 O581 1.282 . S
C591 O592 1.216 . S
O592 C591 1.216 . S
H593 C588 0.930 . S
H594 C589 0.930 . S
O595 Cu575 1.959 . S
O595 C582 1.251 . S
H596 C579 0.930 . S
H597 C590 0.929 . S
Cu598 N599 1.999 . S
Cu598 O604 1.974 . S
Cu598 N609 1.985 . S
Cu598 O618 1.959 . S
N599 Cu598 1.999 . S
N599 C601 1.263 . S
N599 C603 1.389 . S
N600 C601 1.358 . S
N600 C602 1.400 . S
C601 N599 1.263 . S
C601 N600 1.358 . S
C601 H607 0.930 . S
C602 N600 1.400 . S
C602 C603 1.351 . S
C602 H619 0.930 . S
C603 N599 1.389 . S
C603 C602 1.351 . S
C603 H608 0.930 . S
O604 Cu598 1.974 . S
O604 C614 1.282 . S
C605 O606 1.261 . S
C605 O618 1.251 . S
O606 C605 1.261 . S
H607 C601 0.930 . S
H608 C603 0.930 . S
N609 Cu598 1.985 . S
N609 C611 1.335 . S
N609 C612 1.390 . S
N610 C611 1.345 . S
N610 C613 1.336 . S
C611 N609 1.335 . S
C611 N610 1.345 . S
C611 H616 0.930 . S
C612 N609 1.390 . S
C612 C613 1.346 . S
C612 H617 0.930 . S
C613 N610 1.336 . S
C613 C612 1.346 . S
C613 H620 0.929 . S
C614 O604 1.282 . S
C614 O615 1.216 . S
O615 C614 1.216 . S
H616 C611 0.930 . S
H617 C612 0.930 . S
O618 Cu598 1.959 . S
O618 C605 1.251 . S
H619 C602 0.930 . S
H620 C613 0.929 . S
Cu621 N622 1.999 . S
Cu621 O627 1.974 . S
Cu621 N632 1.985 . S
Cu621 O641 1.959 . S
N622 Cu621 1.999 . S
N622 C624 1.263 . S
N622 C626 1.389 . S
N623 C624 1.358 . S
N623 C625 1.400 . S
C624 N622 1.263 . S
C624 N623 1.358 . S
C624 H630 0.930 . S
C625 N623 1.400 . S
C625 C626 1.351 . S
C625 H642 0.930 1_545 S
C626 N622 1.389 . S
C626 C625 1.351 . S
C626 H631 0.930 1_545 S
O627 Cu621 1.974 . S
O627 C637 1.282 . S
C628 O629 1.261 . S
C628 O641 1.251 . S
O629 C628 1.261 . S
H630 C624 0.930 . S
H631 C626 0.930 1_565 S
N632 Cu621 1.985 . S
N632 C634 1.335 . S
N632 C635 1.390 . S
N633 C634 1.345 . S
N633 C636 1.336 . S
C634 N632 1.335 . S
C634 N633 1.345 . S
C634 H639 0.930 . S
C635 N632 1.390 . S
C635 C636 1.346 . S
C635 H640 0.918 1_556 S
C636 N633 1.336 . S
C636 C635 1.346 . S
C636 H643 0.929 . S
C637 O627 1.282 . S
C637 O638 1.216 . S
O638 C637 1.216 . S
H639 C634 0.930 . S
H640 C635 0.918 1_554 S
O641 Cu621 1.959 . S
O641 C628 1.251 . S
H642 C625 0.930 1_565 S
H643 C636 0.929 . S
Cu644 N645 1.999 . S
Cu644 O650 1.974 . S
Cu644 N655 1.985 . S
Cu644 O664 1.959 . S
N645 Cu644 1.999 . S
N645 C647 1.263 . S
N645 C649 1.389 . S
N646 C647 1.358 . S
N646 C648 1.400 . S
C647 N645 1.263 . S
C647 N646 1.358 . S
C647 H653 0.930 . S
C648 N646 1.400 . S
C648 C649 1.351 . S
C648 H665 0.930 1_655 S
C649 N645 1.389 . S
C649 C648 1.351 . S
C649 H654 0.930 1_655 S
O650 Cu644 1.974 . S
O650 C660 1.282 . S
C651 O652 1.261 . S
C651 O664 1.251 . S
O652 C651 1.261 . S
H653 C647 0.930 . S
H654 C649 0.930 1_455 S
N655 Cu644 1.985 . S
N655 C657 1.335 . S
N655 C658 1.390 . S
N656 C657 1.345 . S
N656 C659 1.336 . S
C657 N655 1.335 . S
C657 N656 1.345 . S
C657 H662 0.930 . S
C658 N655 1.390 . S
C658 C659 1.346 . S
C658 H663 0.918 1_556 S
C659 N656 1.336 . S
C659 C658 1.346 . S
C659 H666 0.929 . S
C660 O650 1.282 . S
C660 O661 1.216 . S
O661 C660 1.216 . S
H662 C657 0.930 . S
H663 C658 0.918 1_554 S
O664 Cu644 1.959 . S
O664 C651 1.251 . S
H665 C648 0.930 1_455 S
H666 C659 0.929 . S
Cu667 N668 1.999 . S
Cu667 O673 1.974 . S
Cu667 N678 1.985 . S
Cu667 O687 1.959 . S
N668 Cu667 1.999 . S
N668 C670 1.263 . S
N668 C672 1.389 . S
N669 C670 1.358 . S
N669 C671 1.400 . S
C670 N668 1.263 . S
C670 N669 1.358 . S
C670 H676 0.930 . S
C671 N669 1.400 . S
C671 C672 1.351 . S
C671 H688 0.930 . S
C672 N668 1.389 . S
C672 C671 1.351 . S
C672 H677 0.930 . S
O673 Cu667 1.974 . S
O673 C683 1.282 . S
C674 O675 1.261 . S
C674 O687 1.251 . S
O675 C674 1.261 . S
H676 C670 0.930 . S
H677 C672 0.930 . S
N678 Cu667 1.985 . S
N678 C680 1.335 . S
N678 C681 1.390 . S
N679 C680 1.345 . S
N679 C682 1.336 . S
C680 N678 1.335 . S
C680 N679 1.345 . S
C680 H685 0.930 . S
C681 N678 1.390 . S
C681 C682 1.346 . S
C681 H686 0.919 1_556 S
C682 N679 1.336 . S
C682 C681 1.346 . S
C682 H689 0.929 . S
C683 O673 1.282 . S
C683 O684 1.216 . S
O684 C683 1.216 . S
H685 C680 0.930 . S
H686 C681 0.919 1_554 S
O687 Cu667 1.959 . S
O687 C674 1.251 . S
H688 C671 0.930 . S
H689 C682 0.929 . S
Cu690 N691 1.999 . S
Cu690 O696 1.974 . S
Cu690 N701 1.985 . S
Cu690 O710 1.959 . S
N691 Cu690 1.999 . S
N691 C693 1.263 . S
N691 C695 1.389 . S
N692 C693 1.358 . S
N692 C694 1.400 . S
C693 N691 1.263 . S
C693 N692 1.358 . S
C693 H699 0.930 . S
C694 N692 1.400 . S
C694 C695 1.351 . S
C694 H711 0.930 1_655 S
C695 N691 1.389 . S
C695 C694 1.351 . S
C695 H700 0.930 1_655 S
O696 Cu690 1.974 . S
O696 C706 1.282 . S
C697 O698 1.261 . S
C697 O710 1.251 . S
O698 C697 1.261 . S
H699 C693 0.930 . S
H700 C695 0.930 1_455 S
N701 Cu690 1.985 . S
N701 C703 1.335 . S
N701 C704 1.390 . S
N702 C703 1.345 . S
N702 C705 1.336 . S
C703 N701 1.335 . S
C703 N702 1.345 . S
C703 H708 0.930 . S
C704 N701 1.390 . S
C704 C705 1.346 . S
C704 H709 0.930 . S
C705 N702 1.336 . S
C705 C704 1.346 . S
C705 H712 0.929 . S
C706 O696 1.282 . S
C706 O707 1.216 . S
O707 C706 1.216 . S
H708 C703 0.930 . S
H709 C704 0.930 . S
O710 Cu690 1.959 . S
O710 C697 1.251 . S
H711 C694 0.930 1_455 S
H712 C705 0.929 . S
Cu713 N714 1.999 . S
Cu713 O719 1.974 . S
Cu713 N724 1.985 . S
Cu713 O733 1.959 . S
N714 Cu713 1.999 . S
N714 C716 1.263 . S
N714 C718 1.389 . S
N715 C716 1.358 . S
N715 C717 1.400 . S
C716 N714 1.263 . S
C716 N715 1.358 . S
C716 H722 0.930 . S
C717 N715 1.400 . S
C717 C718 1.351 . S
C717 H734 0.930 . S
C718 N714 1.389 . S
C718 C717 1.351 . S
C718 H723 0.930 . S
O719 Cu713 1.974 . S
O719 C729 1.282 . S
C720 O721 1.261 . S
C720 O733 1.251 . S
O721 C720 1.261 . S
H722 C716 0.930 . S
H723 C718 0.930 . S
N724 Cu713 1.985 . S
N724 C726 1.335 . S
N724 C727 1.390 . S
N725 C726 1.345 . S
N725 C728 1.336 . S
C726 N724 1.335 . S
C726 N725 1.345 . S
C726 H731 0.930 . S
C727 N724 1.390 . S
C727 C728 1.346 . S
C727 H732 0.930 . S
C728 N725 1.336 . S
C728 C727 1.346 . S
C728 H735 0.929 . S
C729 O719 1.282 . S
C729 O730 1.216 . S
O730 C729 1.216 . S
H731 C726 0.930 . S
H732 C727 0.930 . S
O733 Cu713 1.959 . S
O733 C720 1.251 . S
H734 C717 0.930 . S
H735 C728 0.929 . S
Cu736 N737 1.999 . S
Cu736 O742 1.974 . S
Cu736 N747 1.985 . S
Cu736 O756 1.959 . S
N737 Cu736 1.999 . S
N737 C739 1.263 . S
N737 C741 1.389 . S
N738 C739 1.358 . S
N738 C740 1.400 . S
C739 N737 1.263 . S
C739 N738 1.358 . S
C739 H745 0.930 . S
C740 N738 1.400 . S
C740 C741 1.351 . S
C740 H757 0.930 1_545 S
C741 N737 1.389 . S
C741 C740 1.351 . S
C741 H746 0.930 1_545 S
O742 Cu736 1.974 . S
O742 C752 1.282 . S
C743 O744 1.261 . S
C743 O756 1.251 . S
O744 C743 1.261 . S
H745 C739 0.930 . S
H746 C741 0.930 1_565 S
N747 Cu736 1.985 . S
N747 C749 1.335 . S
N747 C750 1.390 . S
N748 C749 1.345 . S
N748 C751 1.336 . S
C749 N747 1.335 . S
C749 N748 1.345 . S
C749 H754 0.930 . S
C750 N747 1.390 . S
C750 C751 1.346 . S
C750 H755 0.930 . S
C751 N748 1.336 . S
C751 C750 1.346 . S
C751 H758 0.929 . S
C752 O742 1.282 . S
C752 O753 1.216 . S
O753 C752 1.216 . S
H754 C749 0.930 . S
H755 C750 0.930 . S
O756 Cu736 1.959 . S
O756 C743 1.251 . S
H757 C740 0.930 1_565 S
H758 C751 0.929 . S
Cu759 N760 1.999 . S
Cu759 O765 1.974 . S
Cu759 N770 1.985 . S
Cu759 O779 1.959 . S
N760 Cu759 1.999 . S
N760 C762 1.263 . S
N760 C764 1.389 . S
N761 C762 1.358 . S
N761 C763 1.400 . S
C762 N760 1.263 . S
C762 N761 1.358 . S
C762 H768 0.930 . S
C763 N761 1.400 . S
C763 C764 1.351 . S
C763 H780 0.930 . S
C764 N760 1.389 . S
C764 C763 1.351 . S
C764 H769 0.930 . S
O765 Cu759 1.974 . S
O765 C775 1.282 . S
C766 O767 1.261 . S
C766 O779 1.251 . S
O767 C766 1.261 . S
H768 C762 0.930 . S
H769 C764 0.930 . S
N770 Cu759 1.985 . S
N770 C772 1.335 . S
N770 C773 1.390 . S
N771 C772 1.345 . S
N771 C774 1.336 . S
C772 N770 1.335 . S
C772 N771 1.345 . S
C772 H777 0.930 . S
C773 N770 1.390 . S
C773 C774 1.346 . S
C773 H778 0.930 . S
C774 N771 1.336 . S
C774 C773 1.346 . S
C774 H781 0.929 . S
C775 O765 1.282 . S
C775 O776 1.216 . S
O776 C775 1.216 . S
H777 C772 0.930 . S
H778 C773 0.930 . S
O779 Cu759 1.959 . S
O779 C766 1.251 . S
H780 C763 0.930 . S
H781 C774 0.929 . S
Cu782 N783 1.999 . S
Cu782 O788 1.974 . S
Cu782 N793 1.985 . S
Cu782 O802 1.959 . S
N783 Cu782 1.999 . S
N783 C785 1.263 . S
N783 C787 1.389 . S
N784 C785 1.358 . S
N784 C786 1.400 . S
C785 N783 1.263 . S
C785 N784 1.358 . S
C785 H791 0.930 . S
C786 N784 1.400 . S
C786 C787 1.351 . S
C786 H803 0.930 . S
C787 N783 1.389 . S
C787 C786 1.351 . S
C787 H792 0.930 . S
O788 Cu782 1.974 . S
O788 C798 1.282 . S
C789 O790 1.261 . S
C789 O802 1.251 . S
O790 C789 1.261 . S
H791 C785 0.930 . S
H792 C787 0.930 . S
N793 Cu782 1.985 . S
N793 C795 1.335 . S
N793 C796 1.390 . S
N794 C795 1.345 . S
N794 C797 1.336 . S
C795 N793 1.335 . S
C795 N794 1.345 . S
C795 H800 0.930 . S
C796 N793 1.390 . S
C796 C797 1.346 . S
C796 H801 0.930 . S
C797 N794 1.336 . S
C797 C796 1.346 . S
C797 H804 0.929 . S
C798 O788 1.282 . S
C798 O799 1.216 . S
O799 C798 1.216 . S
H800 C795 0.930 . S
H801 C796 0.930 . S
O802 Cu782 1.959 . S
O802 C789 1.251 . S
H803 C786 0.930 . S
H804 C797 0.929 . S
Cu805 N806 1.999 . S
Cu805 O811 1.974 . S
Cu805 N816 1.985 . S
Cu805 O825 1.959 . S
N806 Cu805 1.999 . S
N806 C808 1.263 . S
N806 C810 1.389 . S
N807 C808 1.358 . S
N807 C809 1.400 . S
C808 N806 1.263 . S
C808 N807 1.358 . S
C808 H814 0.930 . S
C809 N807 1.400 . S
C809 C810 1.351 . S
C809 H826 0.930 . S
C810 N806 1.389 . S
C810 C809 1.351 . S
C810 H815 0.930 . S
O811 Cu805 1.974 . S
O811 C821 1.282 . S
C812 O813 1.261 . S
C812 O825 1.251 . S
O813 C812 1.261 . S
H814 C808 0.930 . S
H815 C810 0.930 . S
N816 Cu805 1.985 . S
N816 C818 1.335 . S
N816 C819 1.390 . S
N817 C818 1.345 . S
N817 C820 1.336 . S
C818 N816 1.335 . S
C818 N817 1.345 . S
C818 H823 0.930 . S
C819 N816 1.390 . S
C819 C820 1.346 . S
C819 H824 0.930 . S
C820 N817 1.336 . S
C820 C819 1.346 . S
C820 H827 0.929 . S
C821 O811 1.282 . S
C821 O822 1.216 . S
O822 C821 1.216 . S
H823 C818 0.930 . S
H824 C819 0.930 . S
O825 Cu805 1.959 . S
O825 C812 1.251 . S
H826 C809 0.930 . S
H827 C820 0.929 . S
C828 C829 1.369 . S
C828 C830 1.419 1_565 S
C828 H832 0.930 . S
C829 C828 1.369 . S
C829 C838 1.429 . S
C830 C828 1.419 1_545 S
C830 C831 1.363 . S
C830 H833 0.929 . S
C831 C830 1.363 . S
C831 C837 1.428 . S
H832 C828 0.930 . S
H833 C830 0.929 . S
S834 N835 1.613 1_545 S
S834 N836 1.610 . S
N835 S834 1.613 1_565 S
N835 C838 1.350 . S
N836 S834 1.610 . S
N836 C837 1.351 . S
C837 C831 1.428 . S
C837 N836 1.351 . S
C837 C838 1.434 1_545 S
C838 C829 1.429 . S
C838 N835 1.350 . S
C838 C837 1.434 1_565 S
C839 C840 1.369 . S
C839 C841 1.419 1_455 S
C839 H843 0.930 . S
C840 C839 1.369 . S
C840 C849 1.429 . S
C841 C839 1.419 1_655 S
C841 C842 1.363 . S
C841 H844 0.929 . S
C842 C841 1.363 . S
C842 C848 1.428 . S
H843 C839 0.930 . S
H844 C841 0.929 . S
S845 N846 1.641 . S
S845 N847 1.601 1_455 S
N846 S845 1.641 . S
N846 C849 1.350 . S
N847 S845 1.601 1_655 S
N847 C848 1.351 . S
C848 C842 1.428 . S
C848 N847 1.351 . S
C848 C849 1.434 1_655 S
C849 C840 1.429 . S
C849 N846 1.350 . S
C849 C848 1.434 1_455 S
C850 C851 1.369 . S
C850 C852 1.419 . S
C850 H854 0.930 . S
C851 C850 1.369 . S
C851 C860 1.429 . S
C852 C850 1.419 . S
C852 C853 1.363 . S
C852 H855 0.929 . S
C853 C852 1.363 . S
C853 C859 1.428 . S
H854 C850 0.930 . S
H855 C852 0.929 . S
S856 N857 1.613 . S
S856 N858 1.610 . S
N857 S856 1.613 . S
N857 C860 1.350 . S
N858 S856 1.610 . S
N858 C859 1.351 . S
C859 C853 1.428 . S
C859 N858 1.351 . S
C859 C860 1.434 . S
C860 C851 1.429 . S
C860 N857 1.350 . S
C860 C859 1.434 . S
C861 C862 1.369 . S
C861 C863 1.419 1_565 S
C861 H865 0.930 . S
C862 C861 1.369 . S
C862 C871 1.429 . S
C863 C861 1.419 1_545 S
C863 C864 1.363 . S
C863 H866 0.929 . S
C864 C863 1.363 . S
C864 C870 1.428 . S
H865 C861 0.930 . S
H866 C863 0.929 . S
S867 N868 1.613 . S
S867 N869 1.610 1_565 S
N868 S867 1.613 . S
N868 C871 1.350 . S
N869 S867 1.610 1_545 S
N869 C870 1.351 . S
C870 C864 1.428 . S
C870 N869 1.351 . S
C870 C871 1.434 1_545 S
C871 C862 1.429 . S
C871 N868 1.350 . S
C871 C870 1.434 1_565 S
C872 C873 1.369 . S
C872 C874 1.419 1_455 S
C872 H876 0.930 . S
C873 C872 1.369 . S
C873 C882 1.429 . S
C874 C872 1.419 1_655 S
C874 C875 1.363 . S
C874 H877 0.929 . S
C875 C874 1.363 . S
C875 C881 1.428 . S
H876 C872 0.930 . S
H877 C874 0.929 . S
S878 N879 1.613 1_655 S
S878 N880 1.610 . S
N879 S878 1.613 1_455 S
N879 C882 1.350 . S
N880 S878 1.610 . S
N880 C881 1.351 . S
C881 C875 1.428 . S
C881 N880 1.351 . S
C881 C882 1.434 1_655 S
C882 C873 1.429 . S
C882 N879 1.350 . S
C882 C881 1.434 1_455 S
C883 C884 1.369 . S
C883 C885 1.419 . S
C883 H887 0.930 . S
C884 C883 1.369 . S
C884 C893 1.429 . S
C885 C883 1.419 . S
C885 C886 1.363 . S
C885 H888 0.929 . S
C886 C885 1.363 . S
C886 C892 1.428 . S
H887 C883 0.930 . S
H888 C885 0.929 . S
S889 N890 1.613 . S
S889 N891 1.610 . S
N890 S889 1.613 . S
N890 C893 1.350 . S
N891 S889 1.610 . S
N891 C892 1.351 . S
C892 C886 1.428 . S
C892 N891 1.351 . S
C892 C893 1.434 . S
C893 C884 1.429 . S
C893 N890 1.350 . S
C893 C892 1.434 . S
C894 C895 1.369 . S
C894 C896 1.419 . S
C894 H898 0.930 . S
C895 C894 1.369 . S
C895 C904 1.429 . S
C896 C894 1.419 . S
C896 C897 1.363 . S
C896 H899 0.929 . S
C897 C896 1.363 . S
C897 C903 1.428 . S
H898 C894 0.930 . S
H899 C896 0.929 . S
S900 N901 1.613 . S
S900 N902 1.610 1_455 S
N901 S900 1.613 . S
N901 C904 1.350 . S
N902 S900 1.610 1_655 S
N902 C903 1.351 1_655 S
C903 C897 1.428 . S
C903 N902 1.351 1_455 S
C903 C904 1.434 . S
C904 C895 1.429 . S
C904 N901 1.350 . S
C904 C903 1.434 . S
C905 C906 1.369 . S
C905 C907 1.419 . S
C905 H909 0.930 . S
C906 C905 1.369 . S
C906 C915 1.429 . S
C907 C905 1.419 . S
C907 C908 1.363 . S
C907 H910 0.929 . S
C908 C907 1.363 . S
C908 C914 1.428 . S
H909 C905 0.930 . S
H910 C907 0.929 . S
S911 N912 1.613 . S
S911 N913 1.610 . S
N912 S911 1.613 . S
N912 C915 1.350 . S
N913 S911 1.610 . S
N913 C914 1.351 . S
C914 C908 1.428 . S
C914 N913 1.351 . S
C914 C915 1.434 . S
C915 C906 1.429 . S
C915 N912 1.350 . S
C915 C914 1.434 . S
C916 C917 1.369 1_545 S
C916 C918 1.419 1_545 S
C916 H920 0.930 . S
C917 C916 1.369 1_565 S
C917 C926 1.429 . S
C918 C916 1.419 1_565 S
C918 C919 1.363 . S
C918 H921 0.929 1_565 S
C919 C918 1.363 . S
C919 C925 1.428 . S
H920 C916 0.930 . S
H921 C918 0.929 1_545 S
S922 N923 1.613 . S
S922 N924 1.610 . S
N923 S922 1.613 . S
N923 C926 1.350 . S
N924 S922 1.610 . S
N924 C925 1.351 . S
C925 C919 1.428 . S
C925 N924 1.351 . S
C925 C926 1.434 . S
C926 C917 1.429 . S
C926 N923 1.350 . S
C926 C925 1.434 . S
C927 C928 1.369 . S
C927 C929 1.419 . S
C927 H931 0.930 . S
C928 C927 1.369 . S
C928 C937 1.429 . S
C929 C927 1.419 . S
C929 C930 1.363 . S
C929 H932 0.929 . S
C930 C929 1.363 . S
C930 C936 1.428 . S
H931 C927 0.930 . S
H932 C929 0.929 . S
S933 N934 1.613 1_556 S
S933 N935 1.610 1_556 S
N934 S933 1.613 1_554 S
N934 C937 1.350 . S
N935 S933 1.610 1_554 S
N935 C936 1.351 . S
C936 C930 1.428 . S
C936 N935 1.351 . S
C936 C937 1.434 . S
C937 C928 1.429 . S
C937 N934 1.350 . S
C937 C936 1.434 . S
C938 C939 1.369 . S
C938 C940 1.419 1_565 S
C938 H942 0.930 . S
C939 C938 1.369 . S
C939 C948 1.429 . S
C940 C938 1.419 1_545 S
C940 C941 1.363 1_545 S
C940 H943 0.929 . S
C941 C940 1.363 1_565 S
C941 C947 1.428 . S
H942 C938 0.930 . S
H943 C940 0.929 . S
S944 N945 1.613 . S
S944 N946 1.610 . S
N945 S944 1.613 . S
N945 C948 1.350 . S
N946 S944 1.610 . S
N946 C947 1.351 . S
C947 C941 1.428 . S
C947 N946 1.351 . S
C947 C948 1.434 . S
C948 C939 1.429 . S
C948 N945 1.350 . S
C948 C947 1.434 . S
C949 C950 1.369 . S
C949 C951 1.419 . S
C949 H953 0.930 . S
C950 C949 1.369 . S
C950 C959 1.429 1_455 S
C951 C949 1.419 . S
C951 C952 1.363 . S
C951 H954 0.929 . S
C952 C951 1.363 . S
C952 C958 1.428 . S
H953 C949 0.930 . S
H954 C951 0.929 . S
S955 N956 1.613 . S
S955 N957 1.610 . S
N956 S955 1.613 . S
N956 C959 1.350 . S
N957 S955 1.610 . S
N957 C958 1.351 1_655 S
C958 C952 1.428 . S
C958 N957 1.351 1_455 S
C958 C959 1.434 1_455 S
C959 C950 1.429 1_655 S
C959 N956 1.350 . S
C959 C958 1.434 1_655 S
C960 C961 1.369 . S
C960 C962 1.419 . S
C960 H964 0.930 . S
C961 C960 1.369 . S
C961 C970 1.429 . S
C962 C960 1.419 . S
C962 C963 1.363 . S
C962 H965 0.929 . S
C963 C962 1.363 . S
C963 C969 1.428 . S
H964 C960 0.930 . S
H965 C962 0.929 . S
S966 N967 1.613 . S
S966 N968 1.610 . S
N967 S966 1.613 . S
N967 C970 1.350 . S
N968 S966 1.610 . S
N968 C969 1.351 . S
C969 C963 1.428 . S
C969 N968 1.351 . S
C969 C970 1.434 . S
C970 C961 1.429 . S
C970 N967 1.350 . S
C970 C969 1.434 . S
C971 C972 1.369 . S
C971 C973 1.419 . S
C971 H975 0.930 . S
C972 C971 1.369 . S
C972 C981 1.429 . S
C973 C971 1.419 . S
C973 C974 1.363 . S
C973 H976 0.929 . S
C974 C973 1.363 . S
C974 C980 1.428 . S
H975 C971 0.930 . S
H976 C973 0.929 . S
S977 N978 1.613 . S
S977 N979 1.610 . S
N978 S977 1.613 . S
N978 C981 1.350 . S
N979 S977 1.610 . S
N979 C980 1.351 . S
C980 C974 1.428 . S
C980 N979 1.351 . S
C980 C981 1.434 . S
C981 C972 1.429 . S
C981 N978 1.350 . S
C981 C980 1.434 . S
C982 C983 1.369 . S
C982 C984 1.419 . S
C982 H986 0.930 . S
C983 C982 1.369 . S
C983 C992 1.429 . S
C984 C982 1.419 . S
C984 C985 1.363 . S
C984 H987 0.929 . S
C985 C984 1.363 . S
C985 C991 1.428 . S
H986 C982 0.930 . S
H987 C984 0.929 . S
S988 N989 1.658 . S
S988 N990 1.610 . S
N989 S988 1.658 . S
N989 C992 1.372 1_554 S
N990 S988 1.610 . S
N990 C991 1.351 1_554 S
C991 C985 1.428 . S
C991 N990 1.351 1_556 S
C991 C992 1.434 . S
C992 C983 1.429 . S
C992 N989 1.372 1_556 S
C992 C991 1.434 . S
C993 C994 1.369 1_455 S
C993 C995 1.419 1_455 S
C993 H997 0.930 . S
C994 C993 1.369 1_655 S
C994 C1003 1.429 . S
C995 C993 1.419 1_655 S
C995 C996 1.363 . S
C995 H998 0.929 1_655 S
C996 C995 1.363 . S
C996 C1002 1.428 . S
H997 C993 0.930 . S
H998 C995 0.929 1_455 S
S999 N1000 1.613 . S
S999 N1001 1.610 . S
N1000 S999 1.613 . S
N1000 C1003 1.350 . S
N1001 S999 1.610 . S
N1001 C1002 1.351 . S
C1002 C996 1.428 . S
C1002 N1001 1.351 . S
C1002 C1003 1.434 . S
C1003 C994 1.429 . S
C1003 N1000 1.350 . S
C1003 C1002 1.434 . S
C1004 C1005 1.369 . S
C1004 C1006 1.419 . S
C1004 H1008 0.930 . S
C1005 C1004 1.369 . S
C1005 C1014 1.429 . S
C1006 C1004 1.419 . S
C1006 C1007 1.363 . S
C1006 H1009 0.929 . S
C1007 C1006 1.363 . S
C1007 C1013 1.428 . S
H1008 C1004 0.930 . S
H1009 C1006 0.929 . S
S1010 N1011 1.613 . S
S1010 N1012 1.610 . S
N1011 S1010 1.613 . S
N1011 C1014 1.350 . S
N1012 S1010 1.610 . S
N1012 C1013 1.351 . S
C1013 C1007 1.428 . S
C1013 N1012 1.351 . S
C1013 C1014 1.434 . S
C1014 C1005 1.429 . S
C1014 N1011 1.350 . S
C1014 C1013 1.434 . S
C1015 C1016 1.369 . S
C1015 C1017 1.419 . S
C1015 H1019 0.930 . S
C1016 C1015 1.369 . S
C1016 C1025 1.429 1_545 S
C1017 C1015 1.419 . S
C1017 C1018 1.363 . S
C1017 H1020 0.929 . S
C1018 C1017 1.363 . S
C1018 C1024 1.428 . S
H1019 C1015 0.930 . S
H1020 C1017 0.929 . S
S1021 N1022 1.613 . S
S1021 N1023 1.610 . S
N1022 S1021 1.613 . S
N1022 C1025 1.350 . S
N1023 S1021 1.610 . S
N1023 C1024 1.351 1_565 S
C1024 C1018 1.428 . S
C1024 N1023 1.351 1_545 S
C1024 C1025 1.434 1_545 S
C1025 C1016 1.429 1_565 S
C1025 N1022 1.350 . S
C1025 C1024 1.434 1_565 S
C1026 C1027 1.369 . S
C1026 C1028 1.419 . S
C1026 H1030 0.930 . S
C1027 C1026 1.369 . S
C1027 C1036 1.429 . S
C1028 C1026 1.419 . S
C1028 C1029 1.363 . S
C1028 H1031 0.929 . S
C1029 C1028 1.363 . S
C1029 C1035 1.428 . S
H1030 C1026 0.930 . S
H1031 C1028 0.929 . S
S1032 N1033 1.613 . S
S1032 N1034 1.610 . S
N1033 S1032 1.613 . S
N1033 C1036 1.350 . S
N1034 S1032 1.610 . S
N1034 C1035 1.351 . S
C1035 C1029 1.428 . S
C1035 N1034 1.351 . S
C1035 C1036 1.434 . S
C1036 C1027 1.429 . S
C1036 N1033 1.350 . S
C1036 C1035 1.434 . S
C1037 C1038 1.369 . S
C1037 C1039 1.419 . S
C1037 H1041 0.930 . S
C1038 C1037 1.369 . S
C1038 C1047 1.429 . S
C1039 C1037 1.419 . S
C1039 C1040 1.363 . S
C1039 H1042 0.929 . S
C1040 C1039 1.363 . S
C1040 C1046 1.428 . S
H1041 C1037 0.930 . S
H1042 C1039 0.929 . S
S1043 N1044 1.613 . S
S1043 N1045 1.610 . S
N1044 S1043 1.613 . S
N1044 C1047 1.350 . S
N1045 S1043 1.610 . S
N1045 C1046 1.351 . S
C1046 C1040 1.428 . S
C1046 N1045 1.351 . S
C1046 C1047 1.434 . S
C1047 C1038 1.429 . S
C1047 N1044 1.350 . S
C1047 C1046 1.434 . S
C1048 C1049 1.369 . S
C1048 C1050 1.419 . S
C1048 H1052 0.930 . S
C1049 C1048 1.369 . S
C1049 C1058 1.429 . S
C1050 C1048 1.419 . S
C1050 C1051 1.363 . S
C1050 H1053 0.929 . S
C1051 C1050 1.363 . S
C1051 C1057 1.428 . S
H1052 C1048 0.930 . S
H1053 C1050 0.929 . S
S1054 N1055 1.613 . S
S1054 N1056 1.610 . S
N1055 S1054 1.613 . S
N1055 C1058 1.350 . S
N1056 S1054 1.610 . S
N1056 C1057 1.351 . S
C1057 C1051 1.428 . S
C1057 N1056 1.351 . S
C1057 C1058 1.434 . S
C1058 C1049 1.429 . S
C1058 N1055 1.350 . S
C1058 C1057 1.434 . S
C1059 C1060 1.369 . S
C1059 C1061 1.419 . S
C1059 H1063 0.930 . S
C1060 C1059 1.369 . S
C1060 C1069 1.429 . S
C1061 C1059 1.419 . S
C1061 C1062 1.363 . S
C1061 H1064 0.929 . S
C1062 C1061 1.363 . S
C1062 C1068 1.428 . S
H1063 C1059 0.930 . S
H1064 C1061 0.929 . S
S1065 N1066 1.613 . S
S1065 N1067 1.610 . S
N1066 S1065 1.613 . S
N1066 C1069 1.350 . S
N1067 S1065 1.610 . S
N1067 C1068 1.351 . S
C1068 C1062 1.428 . S
C1068 N1067 1.351 . S
C1068 C1069 1.434 . S
C1069 C1060 1.429 . S
C1069 N1066 1.350 . S
C1069 C1068 1.434 . S
C1070 C1071 1.369 . S
C1070 C1072 1.419 . S
C1070 H1074 0.930 . S
C1071 C1070 1.369 . S
C1071 C1080 1.429 . S
C1072 C1070 1.419 . S
C1072 C1073 1.363 . S
C1072 H1075 0.929 . S
C1073 C1072 1.363 . S
C1073 C1079 1.428 . S
H1074 C1070 0.930 . S
H1075 C1072 0.929 . S
S1076 N1077 1.613 1_556 S
S1076 N1078 1.610 . S
N1077 S1076 1.613 1_554 S
N1077 C1080 1.350 . S
N1078 S1076 1.610 . S
N1078 C1079 1.351 1_556 S
C1079 C1073 1.428 . S
C1079 N1078 1.351 1_554 S
C1079 C1080 1.434 . S
C1080 C1071 1.429 . S
C1080 N1077 1.350 . S
C1080 C1079 1.434 . S
C1081 C1082 1.369 . S
C1081 C1083 1.419 . S
C1081 H1085 0.930 . S
C1082 C1081 1.369 . S
C1082 C1091 1.429 . S
C1083 C1081 1.419 . S
C1083 C1084 1.363 . S
C1083 H1086 0.929 . S
C1084 C1083 1.363 . S
C1084 C1090 1.428 . S
H1085 C1081 0.930 . S
H1086 C1083 0.929 . S
S1087 N1088 1.613 . S
S1087 N1089 1.610 . S
N1088 S1087 1.613 . S
N1088 C1091 1.350 . S
N1089 S1087 1.610 . S
N1089 C1090 1.351 . S
C1090 C1084 1.428 . S
C1090 N1089 1.351 . S
C1090 C1091 1.434 . S
C1091 C1082 1.429 . S
C1091 N1088 1.350 . S
C1091 C1090 1.434 . S
C1092 C1093 1.369 . S
C1092 C1094 1.419 . S
C1092 H1096 0.930 . S
C1093 C1092 1.369 . S
C1093 C1102 1.429 . S
C1094 C1092 1.419 . S
C1094 C1095 1.363 . S
C1094 H1097 0.929 . S
C1095 C1094 1.363 . S
C1095 C1101 1.428 . S
H1096 C1092 0.930 . S
H1097 C1094 0.929 . S
S1098 N1099 1.613 . S
S1098 N1100 1.610 . S
N1099 S1098 1.613 . S
N1099 C1102 1.350 . S
N1100 S1098 1.610 . S
N1100 C1101 1.351 . S
C1101 C1095 1.428 . S
C1101 N1100 1.351 . S
C1101 C1102 1.434 . S
C1102 C1093 1.429 . S
C1102 N1099 1.350 . S
C1102 C1101 1.434 . S
C1103 C1104 1.369 . S
C1103 C1105 1.419 . S
C1103 H1107 0.930 . S
C1104 C1103 1.369 . S
C1104 C1113 1.429 . S
C1105 C1103 1.419 . S
C1105 C1106 1.363 . S
C1105 H1108 0.929 . S
C1106 C1105 1.363 . S
C1106 C1112 1.428 . S
H1107 C1103 0.930 . S
H1108 C1105 0.929 . S
S1109 N1110 1.613 . S
S1109 N1111 1.610 . S
N1110 S1109 1.613 . S
N1110 C1113 1.350 . S
N1111 S1109 1.610 . S
N1111 C1112 1.351 . S
C1112 C1106 1.428 . S
C1112 N1111 1.351 . S
C1112 C1113 1.434 . S
C1113 C1104 1.429 . S
C1113 N1110 1.350 . S
C1113 C1112 1.434 . S
C1114 C1115 1.369 . S
C1114 C1116 1.419 . S
C1114 H1118 0.930 . S
C1115 C1114 1.369 . S
C1115 C1124 1.429 . S
C1116 C1114 1.419 . S
C1116 C1117 1.363 . S
C1116 H1119 0.929 . S
C1117 C1116 1.363 . S
C1117 C1123 1.428 . S
H1118 C1114 0.930 . S
H1119 C1116 0.929 . S
S1120 N1121 1.613 . S
S1120 N1122 1.610 . S
N1121 S1120 1.613 . S
N1121 C1124 1.350 . S
N1122 S1120 1.610 . S
N1122 C1123 1.351 . S
C1123 C1117 1.428 . S
C1123 N1122 1.351 . S
C1123 C1124 1.434 . S
C1124 C1115 1.429 . S
C1124 N1121 1.350 . S
C1124 C1123 1.434 . S
C1125 C1126 1.369 . S
C1125 C1127 1.419 . S
C1125 H1129 0.930 . S
C1126 C1125 1.369 . S
C1126 C1135 1.429 . S
C1127 C1125 1.419 . S
C1127 C1128 1.363 . S
C1127 H1130 0.929 . S
C1128 C1127 1.363 . S
C1128 C1134 1.428 . S
H1129 C1125 0.930 . S
H1130 C1127 0.929 . S
S1131 N1132 1.613 . S
S1131 N1133 1.610 . S
N1132 S1131 1.613 . S
N1132 C1135 1.350 . S
N1133 S1131 1.610 . S
N1133 C1134 1.351 . S
C1134 C1128 1.428 . S
C1134 N1133 1.351 . S
C1134 C1135 1.434 . S
C1135 C1126 1.429 . S
C1135 N1132 1.350 . S
C1135 C1134 1.434 . S
C1136 C1137 1.369 . S
C1136 C1138 1.419 . S
C1136 H1140 0.930 . S
C1137 C1136 1.369 . S
C1137 C1146 1.429 . S
C1138 C1136 1.419 . S
C1138 C1139 1.363 . S
C1138 H1141 0.929 . S
C1139 C1138 1.363 . S
C1139 C1145 1.428 . S
H1140 C1136 0.930 . S
H1141 C1138 0.929 . S
S1142 N1143 1.613 . S
S1142 N1144 1.610 . S
N1143 S1142 1.613 . S
N1143 C1146 1.350 . S
N1144 S1142 1.610 . S
N1144 C1145 1.351 . S
C1145 C1139 1.428 . S
C1145 N1144 1.351 . S
C1145 C1146 1.434 . S
C1146 C1137 1.429 . S
C1146 N1143 1.350 . S
C1146 C1145 1.434 . S
C1147 C1148 1.369 . S
C1147 C1149 1.419 . S
C1147 H1151 0.930 . S
C1148 C1147 1.369 . S
C1148 C1157 1.429 . S
C1149 C1147 1.419 . S
C1149 C1150 1.363 . S
C1149 H1152 0.929 . S
C1150 C1149 1.363 . S
C1150 C1156 1.428 . S
H1151 C1147 0.930 . S
H1152 C1149 0.929 . S
S1153 N1154 1.613 . S
S1153 N1155 1.610 . S
N1154 S1153 1.613 . S
N1154 C1157 1.350 . S
N1155 S1153 1.610 . S
N1155 C1156 1.351 . S
C1156 C1150 1.428 . S
C1156 N1155 1.351 . S
C1156 C1157 1.434 . S
C1157 C1148 1.429 . S
C1157 N1154 1.350 . S
C1157 C1156 1.434 . S
C1158 C1159 1.369 1_655 S
C1158 C1160 1.419 . S
C1158 H1162 0.930 . S
C1159 C1158 1.369 1_455 S
C1159 C1168 1.429 . S
C1160 C1158 1.419 . S
C1160 C1161 1.363 . S
C1160 H1163 0.929 . S
C1161 C1160 1.363 . S
C1161 C1167 1.428 1_655 S
H1162 C1158 0.930 . S
H1163 C1160 0.929 . S
S1164 N1165 1.613 . S
S1164 N1166 1.610 . S
N1165 S1164 1.613 . S
N1165 C1168 1.350 . S
N1166 S1164 1.610 . S
N1166 C1167 1.351 . S
C1167 C1161 1.428 1_455 S
C1167 N1166 1.351 . S
C1167 C1168 1.434 . S
C1168 C1159 1.429 . S
C1168 N1165 1.350 . S
C1168 C1167 1.434 . S
C1169 C1170 1.369 . S
C1169 C1171 1.419 . S
C1169 H1173 0.930 . S
C1170 C1169 1.369 . S
C1170 C1179 1.429 . S
C1171 C1169 1.419 . S
C1171 C1172 1.363 . S
C1171 H1174 0.929 . S
C1172 C1171 1.363 . S
C1172 C1178 1.428 . S
H1173 C1169 0.930 . S
H1174 C1171 0.929 . S
S1175 N1176 1.613 . S
S1175 N1177 1.610 . S
N1176 S1175 1.613 . S
N1176 C1179 1.350 . S
N1177 S1175 1.610 . S
N1177 C1178 1.351 . S
C1178 C1172 1.428 . S
C1178 N1177 1.351 . S
C1178 C1179 1.434 . S
C1179 C1170 1.429 . S
C1179 N1176 1.350 . S
C1179 C1178 1.434 . S
C1180 C1181 1.369 . S
C1180 C1182 1.419 . S
C1180 H1184 0.930 . S
C1181 C1180 1.369 . S
C1181 C1190 1.429 1_545 S
C1182 C1180 1.419 . S
C1182 C1183 1.363 1_545 S
C1182 H1185 0.929 . S
C1183 C1182 1.363 1_565 S
C1183 C1189 1.428 . S
H1184 C1180 0.930 . S
H1185 C1182 0.929 . S
S1186 N1187 1.613 . S
S1186 N1188 1.610 . S
N1187 S1186 1.613 . S
N1187 C1190 1.350 . S
N1188 S1186 1.610 . S
N1188 C1189 1.351 . S
C1189 C1183 1.428 . S
C1189 N1188 1.351 . S
C1189 C1190 1.434 . S
C1190 C1181 1.429 1_565 S
C1190 N1187 1.350 . S
C1190 C1189 1.434 . S
C1191 C1192 1.369 . S
C1191 C1193 1.419 . S
C1191 H1195 0.930 . S
C1192 C1191 1.369 . S
C1192 C1201 1.429 1_565 S
C1193 C1191 1.419 . S
C1193 C1194 1.363 1_565 S
C1193 H1196 0.929 . S
C1194 C1193 1.363 1_545 S
C1194 C1200 1.428 . S
H1195 C1191 0.930 . S
H1196 C1193 0.929 . S
S1197 N1198 1.613 . S
S1197 N1199 1.610 . S
N1198 S1197 1.613 . S
N1198 C1201 1.350 . S
N1199 S1197 1.610 . S
N1199 C1200 1.351 . S
C1200 C1194 1.428 . S
C1200 N1199 1.351 . S
C1200 C1201 1.434 . S
C1201 C1192 1.429 1_545 S
C1201 N1198 1.350 . S
C1201 C1200 1.434 . S
C1202 C1203 1.369 1_455 S
C1202 C1204 1.419 . S
C1202 H1206 0.930 . S
C1203 C1202 1.369 1_655 S
C1203 C1212 1.429 . S
C1204 C1202 1.419 . S
C1204 C1205 1.363 . S
C1204 H1207 0.929 . S
C1205 C1204 1.363 . S
C1205 C1211 1.428 1_455 S
H1206 C1202 0.930 . S
H1207 C1204 0.929 . S
S1208 N1209 1.613 . S
S1208 N1210 1.610 . S
N1209 S1208 1.613 . S
N1209 C1212 1.350 . S
N1210 S1208 1.610 . S
N1210 C1211 1.351 . S
C1211 C1205 1.428 1_655 S
C1211 N1210 1.351 . S
C1211 C1212 1.434 . S
C1212 C1203 1.429 . S
C1212 N1209 1.350 . S
C1212 C1211 1.434 . S
C1213 C1214 1.369 . S
C1213 C1215 1.419 . S
C1213 H1217 0.930 . S
C1214 C1213 1.369 . S
C1214 C1223 1.429 . S
C1215 C1213 1.419 . S
C1215 C1216 1.363 . S
C1215 H1218 0.929 . S
C1216 C1215 1.363 . S
C1216 C1222 1.428 . S
H1217 C1213 0.930 . S
H1218 C1215 0.929 . S
S1219 N1220 1.613 . S
S1219 N1221 1.610 . S
N1220 S1219 1.613 . S
N1220 C1223 1.350 . S
N1221 S1219 1.610 . S
N1221 C1222 1.351 . S
C1222 C1216 1.428 . S
C1222 N1221 1.351 . S
C1222 C1223 1.434 . S
C1223 C1214 1.429 . S
C1223 N1220 1.350 . S
C1223 C1222 1.434 . S
C1224 C1225 1.369 . S
C1224 C1226 1.419 . S
C1224 H1228 0.930 . S
C1225 C1224 1.369 . S
C1225 C1234 1.429 . S
C1226 C1224 1.419 . S
C1226 C1227 1.363 . S
C1226 H1229 0.929 . S
C1227 C1226 1.363 . S
C1227 C1233 1.428 . S
H1228 C1224 0.930 . S
H1229 C1226 0.929 . S
S1230 N1231 1.613 . S
S1230 N1232 1.610 . S
N1231 S1230 1.613 . S
N1231 C1234 1.350 . S
N1232 S1230 1.610 . S
N1232 C1233 1.351 . S
C1233 C1227 1.428 . S
C1233 N1232 1.351 . S
C1233 C1234 1.434 . S
C1234 C1225 1.429 . S
C1234 N1231 1.350 . S
C1234 C1233 1.434 . S
C1235 C1236 1.369 . S
C1235 C1237 1.419 . S
C1235 H1239 0.930 . S
C1236 C1235 1.369 . S
C1236 C1245 1.429 . S
C1237 C1235 1.419 . S
C1237 C1238 1.363 . S
C1237 H1240 0.929 . S
C1238 C1237 1.363 . S
C1238 C1244 1.428 . S
H1239 C1235 0.930 . S
H1240 C1237 0.929 . S
S1241 N1242 1.613 . S
S1241 N1243 1.610 . S
N1242 S1241 1.613 . S
N1242 C1245 1.350 . S
N1243 S1241 1.610 . S
N1243 C1244 1.351 . S
C1244 C1238 1.428 . S
C1244 N1243 1.351 . S
C1244 C1245 1.434 . S
C1245 C1236 1.429 . S
C1245 N1242 1.350 . S
C1245 C1244 1.434 . S
C1246 C1247 1.369 . S
C1246 C1248 1.419 . S
C1246 H1250 0.930 . S
C1247 C1246 1.369 . S
C1247 C1256 1.429 . S
C1248 C1246 1.419 . S
C1248 C1249 1.363 . S
C1248 H1251 0.929 . S
C1249 C1248 1.363 . S
C1249 C1255 1.428 . S
H1250 C1246 0.930 . S
H1251 C1248 0.929 . S
S1252 N1253 1.613 . S
S1252 N1254 1.610 . S
N1253 S1252 1.613 . S
N1253 C1256 1.350 . S
N1254 S1252 1.610 . S
N1254 C1255 1.351 . S
C1255 C1249 1.428 . S
C1255 N1254 1.351 . S
C1255 C1256 1.434 . S
C1256 C1247 1.429 . S
C1256 N1253 1.350 . S
C1256 C1255 1.434 . S
C1257 C1258 1.369 . S
C1257 C1259 1.419 . S
C1257 H1261 0.930 . S
C1258 C1257 1.369 . S
C1258 C1267 1.429 . S
C1259 C1257 1.419 . S
C1259 C1260 1.363 . S
C1259 H1262 0.929 . S
C1260 C1259 1.363 . S
C1260 C1266 1.428 . S
H1261 C1257 0.930 . S
H1262 C1259 0.929 . S
S1263 N1264 1.613 . S
S1263 N1265 1.610 . S
N1264 S1263 1.613 . S
N1264 C1267 1.350 . S
N1265 S1263 1.610 . S
N1265 C1266 1.351 . S
C1266 C1260 1.428 . S
C1266 N1265 1.351 . S
C1266 C1267 1.434 . S
C1267 C1258 1.429 . S
C1267 N1264 1.350 . S
C1267 C1266 1.434 . S
C1268 C1269 1.369 . S
C1268 C1270 1.419 . S
C1268 H1272 0.930 . S
C1269 C1268 1.369 . S
C1269 C1278 1.429 . S
C1270 C1268 1.419 . S
C1270 C1271 1.363 . S
C1270 H1273 0.929 . S
C1271 C1270 1.363 . S
C1271 C1277 1.428 . S
H1272 C1268 0.930 . S
H1273 C1270 0.929 . S
S1274 N1275 1.613 . S
S1274 N1276 1.610 . S
N1275 S1274 1.613 . S
N1275 C1278 1.350 . S
N1276 S1274 1.610 . S
N1276 C1277 1.351 . S
C1277 C1271 1.428 . S
C1277 N1276 1.351 . S
C1277 C1278 1.434 . S
C1278 C1269 1.429 . S
C1278 N1275 1.350 . S
C1278 C1277 1.434 . S
C1279 C1280 1.369 . S
C1279 C1281 1.419 . S
C1279 H1283 0.930 . S
C1280 C1279 1.369 . S
C1280 C1289 1.429 . S
C1281 C1279 1.419 . S
C1281 C1282 1.363 . S
C1281 H1284 0.929 . S
C1282 C1281 1.363 . S
C1282 C1288 1.428 . S
H1283 C1279 0.930 . S
H1284 C1281 0.929 . S
S1285 N1286 1.613 . S
S1285 N1287 1.610 . S
N1286 S1285 1.613 . S
N1286 C1289 1.350 . S
N1287 S1285 1.610 . S
N1287 C1288 1.351 . S
C1288 C1282 1.428 . S
C1288 N1287 1.351 . S
C1288 C1289 1.434 . S
C1289 C1280 1.429 . S
C1289 N1286 1.350 . S
C1289 C1288 1.434 . S
C1290 C1291 1.369 . S
C1290 C1292 1.419 . S
C1290 H1294 0.930 . S
C1291 C1290 1.369 . S
C1291 C1300 1.429 . S
C1292 C1290 1.419 . S
C1292 C1293 1.363 . S
C1292 H1295 0.929 . S
C1293 C1292 1.363 . S
C1293 C1299 1.428 . S
H1294 C1290 0.930 . S
H1295 C1292 0.929 . S
S1296 N1297 1.613 . S
S1296 N1298 1.610 . S
N1297 S1296 1.613 . S
N1297 C1300 1.350 . S
N1298 S1296 1.610 . S
N1298 C1299 1.351 . S
C1299 C1293 1.428 . S
C1299 N1298 1.351 . S
C1299 C1300 1.434 . S
C1300 C1291 1.429 . S
C1300 N1297 1.350 . S
C1300 C1299 1.434 . S
C1301 C1302 1.369 . S
C1301 C1303 1.419 . S
C1301 H1305 0.930 . S
C1302 C1301 1.369 . S
C1302 C1311 1.429 . S
C1303 C1301 1.419 . S
C1303 C1304 1.363 . S
C1303 H1306 0.929 . S
C1304 C1303 1.363 . S
C1304 C1310 1.428 . S
H1305 C1301 0.930 . S
H1306 C1303 0.929 . S
S1307 N1308 1.613 . S
S1307 N1309 1.610 . S
N1308 S1307 1.613 . S
N1308 C1311 1.350 . S
N1309 S1307 1.610 . S
N1309 C1310 1.351 . S
C1310 C1304 1.428 . S
C1310 N1309 1.351 . S
C1310 C1311 1.434 . S
C1311 C1302 1.429 . S
C1311 N1308 1.350 . S
C1311 C1310 1.434 . S
C1312 C1313 1.369 . S
C1312 C1314 1.419 . S
C1312 H1316 0.930 . S
C1313 C1312 1.369 . S
C1313 C1322 1.429 . S
C1314 C1312 1.419 . S
C1314 C1315 1.363 . S
C1314 H1317 0.929 . S
C1315 C1314 1.363 . S
C1315 C1321 1.428 . S
H1316 C1312 0.930 . S
H1317 C1314 0.929 . S
S1318 N1319 1.613 . S
S1318 N1320 1.610 . S
N1319 S1318 1.613 . S
N1319 C1322 1.350 . S
N1320 S1318 1.610 . S
N1320 C1321 1.351 . S
C1321 C1315 1.428 . S
C1321 N1320 1.351 . S
C1321 C1322 1.434 . S
C1322 C1313 1.429 . S
C1322 N1319 1.350 . S
C1322 C1321 1.434 . S
C1323 C1324 1.369 . S
C1323 C1325 1.419 . S
C1323 H1327 0.930 . S
C1324 C1323 1.369 . S
C1324 C1333 1.429 . S
C1325 C1323 1.419 . S
C1325 C1326 1.363 . S
C1325 H1328 0.929 . S
C1326 C1325 1.363 . S
C1326 C1332 1.428 . S
H1327 C1323 0.930 . S
H1328 C1325 0.929 . S
S1329 N1330 1.613 . S
S1329 N1331 1.610 . S
N1330 S1329 1.613 . S
N1330 C1333 1.350 . S
N1331 S1329 1.610 . S
N1331 C1332 1.351 . S
C1332 C1326 1.428 . S
C1332 N1331 1.351 . S
C1332 C1333 1.434 . S
C1333 C1324 1.429 . S
C1333 N1330 1.350 . S
C1333 C1332 1.434 . S
C1334 C1335 1.369 . S
C1334 C1336 1.419 . S
C1334 H1338 0.930 . S
C1335 C1334 1.369 . S
C1335 C1344 1.429 . S
C1336 C1334 1.419 . S
C1336 C1337 1.363 . S
C1336 H1339 0.929 . S
C1337 C1336 1.363 . S
C1337 C1343 1.428 . S
H1338 C1334 0.930 . S
H1339 C1336 0.929 . S
S1340 N1341 1.613 . S
S1340 N1342 1.610 . S
N1341 S1340 1.613 . S
N1341 C1344 1.350 . S
N1342 S1340 1.610 . S
N1342 C1343 1.351 . S
C1343 C1337 1.428 . S
C1343 N1342 1.351 . S
C1343 C1344 1.434 . S
C1344 C1335 1.429 . S
C1344 N1341 1.350 . S
C1344 C1343 1.434 . S
C1345 C1346 1.369 . S
C1345 C1347 1.419 . S
C1345 H1349 0.930 . S
C1346 C1345 1.369 . S
C1346 C1355 1.429 . S
C1347 C1345 1.419 . S
C1347 C1348 1.363 . S
C1347 H1350 0.929 . S
C1348 C1347 1.363 . S
C1348 C1354 1.428 . S
H1349 C1345 0.930 . S
H1350 C1347 0.929 . S
S1351 N1352 1.613 . S
S1351 N1353 1.610 . S
N1352 S1351 1.613 . S
N1352 C1355 1.350 . S
N1353 S1351 1.610 . S
N1353 C1354 1.351 . S
C1354 C1348 1.428 . S
C1354 N1353 1.351 . S
C1354 C1355 1.434 . S
C1355 C1346 1.429 . S
C1355 N1352 1.350 . S
C1355 C1354 1.434 . S
C1356 C1357 1.369 . S
C1356 C1358 1.419 . S
C1356 H1360 0.930 . S
C1357 C1356 1.369 . S
C1357 C1366 1.429 1_455 S
C1358 C1356 1.419 . S
C1358 C1359 1.363 1_455 S
C1358 H1361 0.929 . S
C1359 C1358 1.363 1_655 S
C1359 C1365 1.428 . S
H1360 C1356 0.930 . S
H1361 C1358 0.929 . S
S1362 N1363 1.613 . S
S1362 N1364 1.610 . S
N1363 S1362 1.613 . S
N1363 C1366 1.350 . S
N1364 S1362 1.610 . S
N1364 C1365 1.351 . S
C1365 C1359 1.428 . S
C1365 N1364 1.351 . S
C1365 C1366 1.434 . S
C1366 C1357 1.429 1_655 S
C1366 N1363 1.350 . S
C1366 C1365 1.434 . S
C1367 C1368 1.369 . S
C1367 C1369 1.419 . S
C1367 H1371 0.930 . S
C1368 C1367 1.369 . S
C1368 C1377 1.429 . S
C1369 C1367 1.419 . S
C1369 C1370 1.363 . S
C1369 H1372 0.929 . S
C1370 C1369 1.363 . S
C1370 C1376 1.428 . S
H1371 C1367 0.930 . S
H1372 C1369 0.929 . S
S1373 N1374 1.613 . S
S1373 N1375 1.610 . S
N1374 S1373 1.613 . S
N1374 C1377 1.350 . S
N1375 S1373 1.610 . S
N1375 C1376 1.351 . S
C1376 C1370 1.428 . S
C1376 N1375 1.351 . S
C1376 C1377 1.434 . S
C1377 C1368 1.429 . S
C1377 N1374 1.350 . S
C1377 C1376 1.434 . S
C1378 C1379 1.369 . S
C1378 C1380 1.419 1_545 S
C1378 H1382 0.930 . S
C1379 C1378 1.369 . S
C1379 C1388 1.429 . S
C1380 C1378 1.419 1_565 S
C1380 C1381 1.363 . S
C1380 H1383 0.929 . S
C1381 C1380 1.363 . S
C1381 C1387 1.428 . S
H1382 C1378 0.930 . S
H1383 C1380 0.929 . S
S1384 N1385 1.613 . S
S1384 N1386 1.610 1_545 S
N1385 S1384 1.613 . S
N1385 C1388 1.350 . S
N1386 S1384 1.610 1_565 S
N1386 C1387 1.351 . S
C1387 C1381 1.428 . S
C1387 N1386 1.351 . S
C1387 C1388 1.434 1_565 S
C1388 C1379 1.429 . S
C1388 N1385 1.350 . S
C1388 C1387 1.434 1_545 S
C1389 C1390 1.369 1_565 S
C1389 C1391 1.419 . S
C1389 H1393 0.930 . S
C1390 C1389 1.369 1_545 S
C1390 C1399 1.429 1_556 S
C1391 C1389 1.419 . S
C1391 C1392 1.363 1_556 S
C1391 H1394 0.929 . S
C1392 C1391 1.363 1_554 S
C1392 C1398 1.428 1_565 S
H1393 C1389 0.930 . S
H1394 C1391 0.929 . S
S1395 N1396 1.613 . S
S1395 N1397 1.610 . S
N1396 S1395 1.613 . S
N1396 C1399 1.350 . S
N1397 S1395 1.610 . S
N1397 C1398 1.351 . S
C1398 C1392 1.428 1_545 S
C1398 N1397 1.351 . S
C1398 C1399 1.434 . S
C1399 C1390 1.429 1_554 S
C1399 N1396 1.350 . S
C1399 C1398 1.434 . S
C1400 C1401 1.369 . S
C1400 C1402 1.419 1_455 S
C1400 H1404 0.930 . S
C1401 C1400 1.369 . S
C1401 C1410 1.429 1_554 S
C1402 C1400 1.419 1_655 S
C1402 C1403 1.363 1_554 S
C1402 H1405 0.929 . S
C1403 C1402 1.363 1_556 S
C1403 C1409 1.428 . S
H1404 C1400 0.930 . S
H1405 C1402 0.929 . S
S1406 N1407 1.613 1_655 S
S1406 N1408 1.610 . S
N1407 S1406 1.613 1_455 S
N1407 C1410 1.350 . S
N1408 S1406 1.610 . S
N1408 C1409 1.351 . S
C1409 C1403 1.428 . S
C1409 N1408 1.351 . S
C1409 C1410 1.434 1_655 S
C1410 C1401 1.429 1_556 S
C1410 N1407 1.350 . S
C1410 C1409 1.434 1_455 S
C1411 C1412 1.369 1_556 S
C1411 C1413 1.419 . S
C1411 H1415 0.930 . S
C1412 C1411 1.369 1_554 S
C1412 C1421 1.429 . S
C1413 C1411 1.419 . S
C1413 C1414 1.363 . S
C1413 H1416 0.929 . S
C1414 C1413 1.363 . S
C1414 C1420 1.428 1_556 S
H1415 C1411 0.930 . S
H1416 C1413 0.929 . S
S1417 N1418 1.613 . S
S1417 N1419 1.610 . S
N1418 S1417 1.613 . S
N1418 C1421 1.350 . S
N1419 S1417 1.610 . S
N1419 C1420 1.351 . S
C1420 C1414 1.428 1_554 S
C1420 N1419 1.351 . S
C1420 C1421 1.434 . S
C1421 C1412 1.429 . S
C1421 N1418 1.350 . S
C1421 C1420 1.434 . S
C1422 C1423 1.369 . S
C1422 C1424 1.419 . S
C1422 H1426 0.930 . S
C1423 C1422 1.369 . S
C1423 C1432 1.429 . S
C1424 C1422 1.419 . S
C1424 C1425 1.363 . S
C1424 H1427 0.929 . S
C1425 C1424 1.363 . S
C1425 C1431 1.428 . S
H1426 C1422 0.930 . S
H1427 C1424 0.929 . S
S1428 N1429 1.613 . S
S1428 N1430 1.610 . S
N1429 S1428 1.613 . S
N1429 C1432 1.350 . S
N1430 S1428 1.610 . S
N1430 C1431 1.351 . S
C1431 C1425 1.428 . S
C1431 N1430 1.351 . S
C1431 C1432 1.434 . S
C1432 C1423 1.429 . S
C1432 N1429 1.350 . S
C1432 C1431 1.434 . S
C1433 C1434 1.369 . S
C1433 C1435 1.419 . S
C1433 H1437 0.930 . S
C1434 C1433 1.369 . S
C1434 C1443 1.429 . S
C1435 C1433 1.419 . S
C1435 C1436 1.363 . S
C1435 H1438 0.929 . S
C1436 C1435 1.363 . S
C1436 C1442 1.428 . S
H1437 C1433 0.930 . S
H1438 C1435 0.929 . S
S1439 N1440 1.613 1_556 S
S1439 N1441 1.610 . S
N1440 S1439 1.613 1_554 S
N1440 C1443 1.350 . S
N1441 S1439 1.610 . S
N1441 C1442 1.351 1_556 S
C1442 C1436 1.428 . S
C1442 N1441 1.351 1_554 S
C1442 C1443 1.434 . S
C1443 C1434 1.429 . S
C1443 N1440 1.350 . S
C1443 C1442 1.434 . S
C1444 C1445 1.369 . S
C1444 C1446 1.419 . S
C1444 H1448 0.930 . S
C1445 C1444 1.369 . S
C1445 C1454 1.429 . S
C1446 C1444 1.419 . S
C1446 C1447 1.363 . S
C1446 H1449 0.929 . S
C1447 C1446 1.363 . S
C1447 C1453 1.428 . S
H1448 C1444 0.930 . S
H1449 C1446 0.929 . S
S1450 N1451 1.613 . S
S1450 N1452 1.610 . S
N1451 S1450 1.613 . S
N1451 C1454 1.350 . S
N1452 S1450 1.610 . S
N1452 C1453 1.351 . S
C1453 C1447 1.428 . S
C1453 N1452 1.351 . S
C1453 C1454 1.434 . S
C1454 C1445 1.429 . S
C1454 N1451 1.350 . S
C1454 C1453 1.434 . S
C1455 C1456 1.369 . S
C1455 C1457 1.419 . S
C1455 H1459 0.930 . S
C1456 C1455 1.369 . S
C1456 C1465 1.429 . S
C1457 C1455 1.419 . S
C1457 C1458 1.363 . S
C1457 H1460 0.929 . S
C1458 C1457 1.363 . S
C1458 C1464 1.428 . S
H1459 C1455 0.930 . S
H1460 C1457 0.929 . S
S1461 N1462 1.613 . S
S1461 N1463 1.610 . S
N1462 S1461 1.613 . S
N1462 C1465 1.350 . S
N1463 S1461 1.610 . S
N1463 C1464 1.351 . S
C1464 C1458 1.428 . S
C1464 N1463 1.351 . S
C1464 C1465 1.434 . S
C1465 C1456 1.429 . S
C1465 N1462 1.350 . S
C1465 C1464 1.434 . S
C1466 C1467 1.369 . S
C1466 C1468 1.419 . S
C1466 H1470 0.930 . S
C1467 C1466 1.369 . S
C1467 C1476 1.429 . S
C1468 C1466 1.419 . S
C1468 C1469 1.363 . S
C1468 H1471 0.929 . S
C1469 C1468 1.363 . S
C1469 C1475 1.428 . S
H1470 C1466 0.930 . S
H1471 C1468 0.929 . S
S1472 N1473 1.613 . S
S1472 N1474 1.610 . S
N1473 S1472 1.613 . S
N1473 C1476 1.350 . S
N1474 S1472 1.610 . S
N1474 C1475 1.351 . S
C1475 C1469 1.428 . S
C1475 N1474 1.351 . S
C1475 C1476 1.434 . S
C1476 C1467 1.429 . S
C1476 N1473 1.350 . S
C1476 C1475 1.434 . S
C1477 C1478 1.369 . S
C1477 C1479 1.419 . S
C1477 H1481 0.930 . S
C1478 C1477 1.369 . S
C1478 C1487 1.429 . S
C1479 C1477 1.419 . S
C1479 C1480 1.363 . S
C1479 H1482 0.929 . S
C1480 C1479 1.363 . S
C1480 C1486 1.428 . S
H1481 C1477 0.930 . S
H1482 C1479 0.929 . S
S1483 N1484 1.613 . S
S1483 N1485 1.610 . S
N1484 S1483 1.613 . S
N1484 C1487 1.350 . S
N1485 S1483 1.610 . S
N1485 C1486 1.351 . S
C1486 C1480 1.428 . S
C1486 N1485 1.351 . S
C1486 C1487 1.434 . S
C1487 C1478 1.429 . S
C1487 N1484 1.350 . S
C1487 C1486 1.434 . S
C1488 C1489 1.369 . S
C1488 C1490 1.419 . S
C1488 H1492 0.930 . S
C1489 C1488 1.369 . S
C1489 C1498 1.429 . S
C1490 C1488 1.419 . S
C1490 C1491 1.363 . S
C1490 H1493 0.946 . S
C1491 C1490 1.363 . S
C1491 C1497 1.428 . S
H1492 C1488 0.930 . S
H1493 C1490 0.946 . S
S1494 N1495 1.613 . S
S1494 N1496 1.610 . S
N1495 S1494 1.613 . S
N1495 C1498 1.350 . S
N1496 S1494 1.610 . S
N1496 C1497 1.351 . S
C1497 C1491 1.428 . S
C1497 N1496 1.351 . S
C1497 C1498 1.434 . S
C1498 C1489 1.429 . S
C1498 N1495 1.350 . S
C1498 C1497 1.434 . S
C1499 C1500 1.369 . S
C1499 C1501 1.419 . S
C1499 H1503 0.930 . S
C1500 C1499 1.369 . S
C1500 C1509 1.429 . S
C1501 C1499 1.419 . S
C1501 C1502 1.363 . S
C1501 H1504 0.929 . S
C1502 C1501 1.363 . S
C1502 C1508 1.428 . S
H1503 C1499 0.930 . S
H1504 C1501 0.929 . S
S1505 N1506 1.613 . S
S1505 N1507 1.610 . S
N1506 S1505 1.613 . S
N1506 C1509 1.350 . S
N1507 S1505 1.610 . S
N1507 C1508 1.351 . S
C1508 C1502 1.428 . S
C1508 N1507 1.351 . S
C1508 C1509 1.434 . S
C1509 C1500 1.429 . S
C1509 N1506 1.350 . S
C1509 C1508 1.434 . S
C1510 C1511 1.369 . S
C1510 C1512 1.419 . S
C1510 H1514 0.930 . S
C1511 C1510 1.369 . S
C1511 C1520 1.429 . S
C1512 C1510 1.419 . S
C1512 C1513 1.363 . S
C1512 H1515 0.929 . S
C1513 C1512 1.363 . S
C1513 C1519 1.428 . S
H1514 C1510 0.930 . S
H1515 C1512 0.929 . S
S1516 N1517 1.613 1_554 S
S1516 N1518 1.610 . S
N1517 S1516 1.613 1_556 S
N1517 C1520 1.350 . S
N1518 S1516 1.610 . S
N1518 C1519 1.351 1_554 S
C1519 C1513 1.428 . S
C1519 N1518 1.351 1_556 S
C1519 C1520 1.434 . S
C1520 C1511 1.429 . S
C1520 N1517 1.350 . S
C1520 C1519 1.434 . S
C1521 C1522 1.369 . S
C1521 C1523 1.419 . S
C1521 H1525 0.930 . S
C1522 C1521 1.369 . S
C1522 C1531 1.429 . S
C1523 C1521 1.419 . S
C1523 C1524 1.363 . S
C1523 H1526 0.929 . S
C1524 C1523 1.363 . S
C1524 C1530 1.428 . S
H1525 C1521 0.930 . S
H1526 C1523 0.929 . S
S1527 N1528 1.613 . S
S1527 N1529 1.610 . S
N1528 S1527 1.613 . S
N1528 C1531 1.350 . S
N1529 S1527 1.610 . S
N1529 C1530 1.351 . S
C1530 C1524 1.428 . S
C1530 N1529 1.351 . S
C1530 C1531 1.434 . S
C1531 C1522 1.429 . S
C1531 N1528 1.350 . S
C1531 C1530 1.434 . S
C1532 C1533 1.369 . S
C1532 C1534 1.419 . S
C1532 H1536 0.930 . S
C1533 C1532 1.369 . S
C1533 C1542 1.429 . S
C1534 C1532 1.419 . S
C1534 C1535 1.363 . S
C1534 H1537 0.929 . S
C1535 C1534 1.363 . S
C1535 C1541 1.428 . S
H1536 C1532 0.930 . S
H1537 C1534 0.929 . S
S1538 N1539 1.613 . S
S1538 N1540 1.610 . S
N1539 S1538 1.613 . S
N1539 C1542 1.350 . S
N1540 S1538 1.610 . S
N1540 C1541 1.351 . S
C1541 C1535 1.428 . S
C1541 N1540 1.351 . S
C1541 C1542 1.434 . S
C1542 C1533 1.429 . S
C1542 N1539 1.350 . S
C1542 C1541 1.434 . S
C1543 C1544 1.369 . S
C1543 C1545 1.419 . S
C1543 H1547 0.930 . S
C1544 C1543 1.369 . S
C1544 C1553 1.429 . S
C1545 C1543 1.419 . S
C1545 C1546 1.363 . S
C1545 H1548 0.929 . S
C1546 C1545 1.363 . S
C1546 C1552 1.428 . S
H1547 C1543 0.930 . S
H1548 C1545 0.929 . S
S1549 N1550 1.613 . S
S1549 N1551 1.610 . S
N1550 S1549 1.613 . S
N1550 C1553 1.350 . S
N1551 S1549 1.610 . S
N1551 C1552 1.351 . S
C1552 C1546 1.428 . S
C1552 N1551 1.351 . S
C1552 C1553 1.434 . S
C1553 C1544 1.429 . S
C1553 N1550 1.350 . S
C1553 C1552 1.434 . S
C1554 C1555 1.369 . S
C1554 C1556 1.419 . S
C1554 H1558 0.930 . S
C1555 C1554 1.369 . S
C1555 C1564 1.429 . S
C1556 C1554 1.419 . S
C1556 C1557 1.363 . S
C1556 H1559 0.929 . S
C1557 C1556 1.363 . S
C1557 C1563 1.428 . S
H1558 C1554 0.930 . S
H1559 C1556 0.929 . S
S1560 N1561 1.613 . S
S1560 N1562 1.610 . S
N1561 S1560 1.613 . S
N1561 C1564 1.350 . S
N1562 S1560 1.610 . S
N1562 C1563 1.351 . S
C1563 C1557 1.428 . S
C1563 N1562 1.351 . S
C1563 C1564 1.434 . S
C1564 C1555 1.429 . S
C1564 N1561 1.350 . S
C1564 C1563 1.434 . S
C1565 C1566 1.369 . S
C1565 C1567 1.419 1_545 S
C1565 H1569 0.930 . S
C1566 C1565 1.369 . S
C1566 C1575 1.429 . S
C1567 C1565 1.419 1_565 S
C1567 C1568 1.363 . S
C1567 H1570 0.929 . S
C1568 C1567 1.363 . S
C1568 C1574 1.428 . S
H1569 C1565 0.930 . S
H1570 C1567 0.929 . S
S1571 N1572 1.613 1_565 S
S1571 N1573 1.610 . S
N1572 S1571 1.613 1_545 S
N1572 C1575 1.350 . S
N1573 S1571 1.610 . S
N1573 C1574 1.351 . S
C1574 C1568 1.428 . S
C1574 N1573 1.351 . S
C1574 C1575 1.434 1_565 S
C1575 C1566 1.429 . S
C1575 N1572 1.350 . S
C1575 C1574 1.434 1_545 S
C1576 C1577 1.369 . S
C1576 C1578 1.419 . S
C1576 H1580 0.930 . S
C1577 C1576 1.369 . S
C1577 C1586 1.429 1_655 S
C1578 C1576 1.419 . S
C1578 C1579 1.363 1_655 S
C1578 H1581 0.929 . S
C1579 C1578 1.363 1_455 S
C1579 C1585 1.428 . S
H1580 C1576 0.930 . S
H1581 C1578 0.929 . S
S1582 N1583 1.613 . S
S1582 N1584 1.610 . S
N1583 S1582 1.613 . S
N1583 C1586 1.350 . S
N1584 S1582 1.610 . S
N1584 C1585 1.351 . S
C1585 C1579 1.428 . S
C1585 N1584 1.351 . S
C1585 C1586 1.434 . S
C1586 C1577 1.429 1_455 S
C1586 N1583 1.350 . S
C1586 C1585 1.434 . S
C1587 C1588 1.369 . S
C1587 C1589 1.419 . S
C1587 H1591 0.930 . S
C1588 C1587 1.369 . S
C1588 C1597 1.429 . S
C1589 C1587 1.419 . S
C1589 C1590 1.363 . S
C1589 H1592 0.929 . S
C1590 C1589 1.363 . S
C1590 C1596 1.428 . S
H1591 C1587 0.930 . S
H1592 C1589 0.929 . S
S1593 N1594 1.613 . S
S1593 N1595 1.610 . S
N1594 S1593 1.613 . S
N1594 C1597 1.350 . S
N1595 S1593 1.610 . S
N1595 C1596 1.351 . S
C1596 C1590 1.428 . S
C1596 N1595 1.351 . S
C1596 C1597 1.434 . S
C1597 C1588 1.429 . S
C1597 N1594 1.350 . S
C1597 C1596 1.434 . S
C1598 C1599 1.369 . S
C1598 C1600 1.419 1_545 S
C1598 H1602 0.930 . S
C1599 C1598 1.369 . S
C1599 C1608 1.434 . S
C1600 C1598 1.419 1_565 S
C1600 C1601 1.363 . S
C1600 H1603 0.929 . S
C1601 C1600 1.363 . S
C1601 C1607 1.428 . S
H1602 C1598 0.930 . S
H1603 C1600 0.929 . S
S1604 N1605 1.613 . S
S1604 N1606 1.610 . S
N1605 S1604 1.613 . S
N1605 C1608 1.348 1_565 S
N1606 S1604 1.610 . S
N1606 C1607 1.351 . S
C1607 C1601 1.428 . S
C1607 N1606 1.351 . S
C1607 C1608 1.430 1_565 S
C1608 C1599 1.434 . S
C1608 N1605 1.348 1_545 S
C1608 C1607 1.430 1_545 S
C1609 C1610 1.369 . S
C1609 C1611 1.419 1_455 S
C1609 H1613 0.930 . S
C1610 C1609 1.369 . S
C1610 C1619 1.429 . S
C1611 C1609 1.419 1_655 S
C1611 C1612 1.363 . S
C1611 H1614 0.929 . S
C1612 C1611 1.363 . S
C1612 C1618 1.428 . S
H1613 C1609 0.930 . S
H1614 C1611 0.929 . S
S1615 N1616 1.613 1_655 S
S1615 N1617 1.610 . S
N1616 S1615 1.613 1_455 S
N1616 C1619 1.350 . S
N1617 S1615 1.610 . S
N1617 C1618 1.351 . S
C1618 C1612 1.428 . S
C1618 N1617 1.351 . S
C1618 C1619 1.434 1_655 S
C1619 C1610 1.429 . S
C1619 N1616 1.350 . S
C1619 C1618 1.434 1_455 S
C829 N117 1.458 . S
C831 N2 1.458 . S
C840 N71 1.467 . S
C842 N25 1.466 . S
C851 N48 1.460 . S
C853 N94 1.461 . S
C862 N140 1.459 . S
C864 N255 1.459 . S
C873 N163 1.465 . S
C875 N209 1.464 . S
C884 N232 1.460 . S
C886 N186 1.460 . S
C895 N278 1.463 . S
C897 N393 1.461 1_455 S
C906 N301 1.457 . S
C908 N347 1.457 . S
C917 N370 1.467 1_565 S
C919 N324 1.466 . S
C928 N531 1.466 . S
C930 N416 1.465 . S
C939 N485 1.467 . S
C941 N439 1.466 1_565 S
C950 N462 1.458 1_455 S
C952 N508 1.459 . S
C961 N669 1.465 . S
C963 N554 1.464 . S
C972 N623 1.465 . S
C974 N577 1.463 1_545 S
C983 N600 1.463 1_655 S
C985 N646 1.461 . S
C994 N807 1.465 1_655 S
C996 N692 1.464 . S
C1005 N761 1.468 . S
C1007 N715 1.466 . S
C1016 N784 1.454 1_545 S
C1018 N738 1.456 . S
C1027 C375 1.633 . S
C1029 C7 1.633 . S
C1038 C398 1.633 . S
C1040 C30 1.633 . S
C1049 C352 1.634 . S
C1051 C53 1.631 . S
C1060 C76 1.626 . S
C1062 C605 1.627 1_554 S
C1071 C99 1.631 . S
C1073 C559 1.628 1_554 S
C1082 C122 1.626 . S
C1084 C582 1.628 1_554 S
C1093 C145 1.626 . S
C1095 C789 1.629 . S
C1104 C812 1.633 . S
C1106 C168 1.629 . S
C1115 C766 1.629 . S
C1117 C191 1.633 . S
C1126 C467 1.633 1_556 S
C1128 C214 1.633 . S
C1137 C421 1.631 1_556 S
C1139 C237 1.628 . S
C1148 C260 1.627 . S
C1150 C444 1.631 1_556 S
C1159 C283 1.629 . S
C1161 C651 1.627 . S
C1170 C674 1.629 . S
C1172 C306 1.632 . S
C1181 C628 1.627 . S
C1183 C329 1.631 . S
C1192 C490 1.628 . S
C1194 C743 1.632 . S
C1203 C697 1.634 . S
C1205 C513 1.629 . S
C1214 C536 1.628 . S
C1216 C720 1.632 . S
C1225 N426 2.624 . S
C1227 N12 2.632 . S
C1236 N449 2.625 . S
C1238 N35 2.630 . S
C1247 N58 2.632 . S
C1249 N472 2.625 . S
C1258 N81 2.631 . S
C1260 N771 2.626 . S
C1269 N794 2.628 . S
C1271 N104 2.628 . S
C1280 N817 2.629 . S
C1282 N127 2.627 . S
C1291 N150 2.629 . S
C1293 N564 2.629 . S
C1302 N173 2.629 . S
C1304 N587 2.628 . S
C1313 N610 2.628 . S
C1315 N196 2.628 . S
C1324 N219 2.625 . S
C1326 N357 2.632 . S
C1335 N242 2.625 . S
C1337 N380 2.630 . S
C1346 N403 2.631 . S
C1348 N265 2.626 . S
C1357 N288 2.627 . S
C1359 N702 2.629 . S
C1368 N311 2.624 . S
C1370 N725 2.631 . S
C1379 N748 2.624 . S
C1381 N334 2.631 . S
C1390 N633 2.630 . S
C1392 N495 2.627 . S
C1401 N518 2.624 . S
C1403 N656 2.631 . S
C1412 N541 2.632 . S
C1414 N679 2.625 . S
C1423 C637 1.904 1_554 S
C1425 C16 1.904 . S
C1434 C39 1.906 . S
C1436 C660 1.902 1_554 S
C1445 C683 1.906 1_554 S
C1447 C62 1.902 . S
C1456 C85 1.906 . S
C1458 C292 1.903 . S
C1467 C315 1.906 . S
C1469 C108 1.902 . S
C1478 C338 1.905 . S
C1480 C131 1.903 . S
C1489 C154 1.902 . S
C1491 C499 1.906 1_556 S
C1500 C522 1.906 1_556 S
C1502 C177 1.902 . S
C1511 C200 1.905 . S
C1513 C545 1.902 1_556 S
C1522 C223 1.905 . S
C1524 C706 1.903 . S
C1533 C246 1.905 . S
C1535 C729 1.903 . S
C1544 C752 1.903 . S
C1546 C269 1.905 . S
C1555 C361 1.902 . S
C1557 C568 1.905 . S
C1566 C384 1.903 . S
C1568 C591 1.904 . S
C1577 C407 1.902 . S
C1579 C614 1.905 . S
C1588 C430 1.902 . S
C1590 C775 1.906 . S
C1599 C453 1.901 . S
C1601 C798 1.905 . S
C1610 C821 1.904 . S
C1612 C476 1.904 . S
