# Generated by pormake.
# Topology sml, (6)-cn, num edge types: 1
# Building blocks:
#     Node 0, Type 0, BuildingBlock: PAMTOO_clean_sbu_0, # of connection points: 6
#     Node 1, Type 0, BuildingBlock: PAMTOO_clean_sbu_0, # of connection points: 6
#     Node 2, Type 0, BuildingBlock: PAMTOO_clean_sbu_0, # of connection points: 6
#     Node 3, Type 0, BuildingBlock: PAMTOO_clean_sbu_0, # of connection points: 6
#     Node 4, Type 0, BuildingBlock: PAMTOO_clean_sbu_0, # of connection points: 6
#     Node 5, Type 0, BuildingBlock: PAMTOO_clean_sbu_0, # of connection points: 6
#     Edge 6, Type (0, 0), BuildingBlock: ZUJKAS_clean_linker_0, # of connection points: 2
#     Edge 7, Type (0, 0), BuildingBlock: ZUJKAS_clean_linker_0, # of connection points: 2
#     Edge 8, Type (0, 0), BuildingBlock: ZUJKAS_clean_linker_0, # of connection points: 2
#     Edge 9, Type (0, 0), BuildingBlock: ZUJKAS_clean_linker_0, # of connection points: 2
#     Edge 10, Type (0, 0), BuildingBlock: ZUJKAS_clean_linker_0, # of connection points: 2
#     Edge 11, Type (0, 0), BuildingBlock: ZUJKAS_clean_linker_0, # of connection points: 2
#     Edge 12, Type (0, 0), BuildingBlock: ZUJKAS_clean_linker_0, # of connection points: 2
#     Edge 13, Type (0, 0), BuildingBlock: ZUJKAS_clean_linker_0, # of connection points: 2
#     Edge 14, Type (0, 0), BuildingBlock: ZUJKAS_clean_linker_0, # of connection points: 2
#     Edge 15, Type (0, 0), BuildingBlock: ZUJKAS_clean_linker_0, # of connection points: 2
#     Edge 16, Type (0, 0), BuildingBlock: ZUJKAS_clean_linker_0, # of connection points: 2
#     Edge 17, Type (0, 0), BuildingBlock: ZUJKAS_clean_linker_0, # of connection points: 2
#     Edge 18, Type (0, 0), BuildingBlock: ZUJKAS_clean_linker_0, # of connection points: 2
#     Edge 19, Type (0, 0), BuildingBlock: ZUJKAS_clean_linker_0, # of connection points: 2
#     Edge 20, Type (0, 0), BuildingBlock: ZUJKAS_clean_linker_0, # of connection points: 2
#     Edge 21, Type (0, 0), BuildingBlock: ZUJKAS_clean_linker_0, # of connection points: 2
#     Edge 22, Type (0, 0), BuildingBlock: ZUJKAS_clean_linker_0, # of connection points: 2
#     Edge 23, Type (0, 0), BuildingBlock: ZUJKAS_clean_linker_0, # of connection points: 2
# Relax obj value: 0.154
# Max RMSD: 0.211
# Mean RMSD: 0.211
data_MOF--net-sml--node1-PAMTOO_clean_sbu_0--edge1-ZUJKAS_clean_linker_0
_symmetry_space_group_name_H-M    P1
_symmetry_Int_Tables_number       1
_symmetry_cell_setting            triclinic
loop_
_symmetry_equiv_pos_as_xyz
'x, y, z'
_cell_length_a     45.737506
_cell_length_b     45.582785
_cell_length_c     29.623119
_cell_angle_alpha  90.175578
_cell_angle_beta   89.855852
_cell_angle_gamma 119.86724
loop_
_atom_site_label
_atom_site_type_symbol
_atom_site_fract_x
_atom_site_fract_y
_atom_site_fract_z
_atom_type_partial_charge
Dy0 Dy 0.16174 0.39929 0.96578 0.0
Dy1 Dy 0.20718 0.40587 0.05681 0.0
C2 C 0.20128 0.35823 0.97499 0.0
O3 O 0.12431 0.37113 0.01981 0.0
O4 O 0.15766 0.35844 0.06433 0.0
O5 O 0.12331 0.3698 0.91641 0.0
O6 O 0.15133 0.42442 0.91177 0.0
O7 O 0.17243 0.42461 0.07597 0.0
O8 O 0.16794 0.4436 1.00645 0.0
O9 O 0.23937 0.44985 0.01172 0.0
O10 O 0.21527 0.42529 0.94421 0.0
O11 O 0.24047 0.43736 0.1097 0.0
O12 O 0.22491 0.38405 0.10709 0.0
C13 C 0.12791 0.35338 0.05199 0.0
O14 O 0.17305 0.35699 0.96297 0.0
O15 O 0.22177 0.38019 1.00482 0.0
C16 C 0.13627 0.39395 0.84359 0.0
C17 C 0.14925 0.39251 0.75051 0.0
C18 C 0.17136 0.39202 0.78314 0.0
C19 C 0.16492 0.39274 0.82925 0.0
C20 C 0.11404 0.39418 0.81136 0.0
C21 C 0.12042 0.39343 0.76526 0.0
C22 C 0.13006 0.39618 0.89192 0.0
C23 C 0.16584 0.44405 0.05063 0.0
C24 C 0.24055 0.44857 0.96743 0.0
C25 C 0.23192 0.40906 0.17902 0.0
C26 C 0.21736 0.40488 0.27237 0.0
C27 C 0.19459 0.40483 0.24039 0.0
C28 C 0.20179 0.40685 0.19416 0.0
C29 C 0.25456 0.40885 0.21058 0.0
C30 C 0.24738 0.40675 0.2568 0.0
C31 C 0.24009 0.41199 0.13054 0.0
H32 H 0.19356 0.3909 0.77306 0.0
H33 H 0.18241 0.39258 0.85373 0.0
H34 H 0.09192 0.39533 0.82185 0.0
H35 H 0.10311 0.39431 0.74116 0.0
H36 H 0.17145 0.40383 0.25107 0.0
H37 H 0.18397 0.40698 0.17023 0.0
H38 H 0.27787 0.41038 0.19947 0.0
H39 H 0.26523 0.4063 0.28031 0.0
Dy40 Dy 0.74795 0.17523 0.29742 0.0
Dy41 Dy 0.79169 0.2191 0.38819 0.0
C42 C 0.82746 0.20753 0.30287 0.0
O43 O 0.7553 0.13942 0.34067 0.0
O44 O 0.76048 0.16536 0.40898 0.0
O45 O 0.73996 0.13974 0.24389 0.0
O46 O 0.7086 0.16287 0.24818 0.0
O47 O 0.7409 0.21451 0.39111 0.0
O48 O 0.70977 0.16535 0.35112 0.0
O49 O 0.80603 0.2579 0.33397 0.0
O50 O 0.75916 0.22833 0.28895 0.0
O51 O 0.80445 0.25832 0.43831 0.0
O52 O 0.82616 0.22571 0.44209 0.0
C53 C 0.75456 0.13874 0.38498 0.0
O54 O 0.80191 0.20259 0.27764 0.0
O55 O 0.82607 0.20792 0.34714 0.0
C56 C 0.72307 0.1529 0.17544 0.0
C57 C 0.73459 0.1678 0.08226 0.0
C58 C 0.75754 0.18988 0.1147 0.0
C59 C 0.75182 0.1825 0.16083 0.0
C60 C 0.7 0.13094 0.1434 0.0
C61 C 0.70567 0.1383 0.09727 0.0
C62 C 0.71731 0.14453 0.22385 0.0
C63 C 0.71194 0.18772 0.38099 0.0
C64 C 0.78649 0.25646 0.30054 0.0
C65 C 0.81371 0.24311 0.51088 0.0
C66 C 0.79933 0.23125 0.60417 0.0
C67 C 0.77657 0.20897 0.57171 0.0
C68 C 0.7837 0.21485 0.52552 0.0
C69 C 0.83628 0.26557 0.54293 0.0
C70 C 0.82919 0.25974 0.58911 0.0
C71 C 0.82209 0.24883 0.46245 0.0
H72 H 0.77983 0.21301 0.10448 0.0
H73 H 0.7699 0.19983 0.18513 0.0
H74 H 0.67773 0.10793 0.15405 0.0
H75 H 0.68768 0.12052 0.07331 0.0
H76 H 0.75354 0.18659 0.58198 0.0
H77 H 0.76599 0.19713 0.50122 0.0
H78 H 0.85954 0.28755 0.53226 0.0
H79 H 0.84705 0.27771 0.61301 0.0
Dy80 Dy 0.55548 0.75577 0.63754 0.0
Dy81 Dy 0.55483 0.7987 0.72901 0.0
C82 C 0.60031 0.83644 0.64382 0.0
O83 O 0.58165 0.74356 0.69114 0.0
O84 O 0.59942 0.79129 0.73468 0.0
O85 O 0.58231 0.74299 0.58822 0.0
O86 O 0.52815 0.72089 0.58354 0.0
O87 O 0.53076 0.7447 0.7488 0.0
O88 O 0.51121 0.72007 0.67967 0.0
O89 O 0.51124 0.79106 0.68603 0.0
O90 O 0.53062 0.78476 0.61713 0.0
O91 O 0.52694 0.80549 0.78291 0.0
O92 O 0.5811 0.83809 0.7788 0.0
C93 C 0.60113 0.7644 0.72267 0.0
O94 O 0.59938 0.80819 0.63193 0.0
O95 O 0.58057 0.83727 0.67546 0.0
C96 C 0.55842 0.73355 0.51535 0.0
C97 C 0.56173 0.74849 0.42227 0.0
C98 C 0.56646 0.77296 0.455 0.0
C99 C 0.5648 0.76554 0.5011 0.0
C100 C 0.55387 0.70914 0.48302 0.0
C101 C 0.55553 0.71651 0.43692 0.0
C102 C 0.55546 0.72512 0.56371 0.0
C103 C 0.51018 0.71874 0.72401 0.0
C104 C 0.51011 0.79052 0.64164 0.0
C105 C 0.55681 0.8229 0.85146 0.0
C106 C 0.56013 0.81155 0.94466 0.0
C107 C 0.55585 0.78686 0.91253 0.0
C108 C 0.55427 0.79252 0.86639 0.0
C109 C 0.56146 0.84773 0.88314 0.0
C110 C 0.56315 0.84216 0.92928 0.0
C111 C 0.55403 0.8286 0.80312 0.0
H112 H 0.57169 0.79795 0.44502 0.0
H113 H 0.56834 0.78472 0.52565 0.0
H114 H 0.54869 0.68424 0.49342 0.0
H115 H 0.55128 0.6969 0.41277 0.0
H116 H 0.55303 0.76285 0.92303 0.0
H117 H 0.55069 0.77302 0.84238 0.0
H118 H 0.56364 0.8714 0.87222 0.0
H119 H 0.56705 0.86197 0.95287 0.0
Dy120 Dy 0.78843 0.56552 0.96894 0.0
Dy121 Dy 0.74461 0.56542 0.05955 0.0
C122 C 0.75103 0.60831 0.97222 0.0
O123 O 0.82324 0.61029 0.01086 0.0
O124 O 0.79838 0.5915 0.0801 0.0
O125 O 0.82273 0.59376 0.91504 0.0
O126 O 0.80143 0.53948 0.91836 0.0
O127 O 0.75588 0.52351 0.06812 0.0
O128 O 0.80256 0.54059 0.02265 0.0
O129 O 0.7065 0.53645 1.00599 0.0
O130 O 0.73819 0.51868 0.96679 0.0
O131 O 0.70509 0.53855 0.10869 0.0
O132 O 0.73641 0.593 0.11285 0.0
C133 C 0.82438 0.61174 0.05518 0.0
O134 O 0.75632 0.58712 0.94839 0.0
O135 O 0.75269 0.60895 0.01646 0.0
C136 C 0.8105 0.56422 0.84593 0.0
C137 C 0.79635 0.56158 0.75254 0.0
C138 C 0.77625 0.56631 0.78462 0.0
C139 C 0.78324 0.56756 0.83084 0.0
C140 C 0.83035 0.5591 0.81428 0.0
C141 C 0.82335 0.55775 0.76807 0.0
C142 C 0.81885 0.56675 0.89437 0.0
C143 C 0.78294 0.52229 0.05598 0.0
C144 C 0.709 0.51605 0.97674 0.0
C145 C 0.71936 0.56308 0.18138 0.0
C146 C 0.7311 0.56021 0.27459 0.0
C147 C 0.75103 0.55578 0.24192 0.0
C148 C 0.74523 0.55723 0.19578 0.0
C149 C 0.69934 0.56736 0.21364 0.0
C150 C 0.70511 0.56593 0.25978 0.0
C151 C 0.71371 0.56561 0.13292 0.0
H152 H 0.75551 0.56974 0.77403 0.0
H153 H 0.76758 0.57154 0.85478 0.0
H154 H 0.85141 0.55632 0.82529 0.0
H155 H 0.83903 0.5535 0.74454 0.0
H156 H 0.77097 0.55091 0.25197 0.0
H157 H 0.76101 0.55391 0.17131 0.0
H158 H 0.6794 0.57211 0.20315 0.0
H159 H 0.68958 0.56994 0.28386 0.0
Dy160 Dy 0.21557 0.79959 0.28944 0.0
Dy161 Dy 0.17078 0.75633 0.37986 0.0
C162 C 0.13548 0.76616 0.29238 0.0
O163 O 0.20674 0.83545 0.33087 0.0
O164 O 0.20093 0.81039 0.39979 0.0
O165 O 0.22515 0.83545 0.2361 0.0
O166 O 0.25502 0.81076 0.24054 0.0
O167 O 0.22159 0.76091 0.38313 0.0
O168 O 0.25277 0.81072 0.3449 0.0
O169 O 0.15707 0.71731 0.32613 0.0
O170 O 0.20465 0.74633 0.28223 0.0
O171 O 0.15768 0.71728 0.43004 0.0
O172 O 0.1365 0.75038 0.43395 0.0
C173 C 0.20668 0.83658 0.37516 0.0
O174 O 0.16201 0.77259 0.26808 0.0
O175 O 0.13553 0.7647 0.33671 0.0
C176 C 0.24151 0.82139 0.16768 0.0
C177 C 0.22968 0.80705 0.07432 0.0
C178 C 0.206 0.78568 0.10659 0.0
C179 C 0.21189 0.79275 0.1528 0.0
C180 C 0.26531 0.84258 0.13581 0.0
C181 C 0.25951 0.83549 0.08959 0.0
C182 C 0.24727 0.82971 0.21616 0.0
C183 C 0.25044 0.78826 0.37452 0.0
C184 C 0.17718 0.71827 0.29369 0.0
C185 C 0.14851 0.73278 0.50271 0.0
C186 C 0.16292 0.74436 0.59606 0.0
C187 C 0.18658 0.76554 0.56362 0.0
C188 C 0.17942 0.75981 0.5174 0.0
C189 C 0.12499 0.71146 0.53476 0.0
C190 C 0.13209 0.71715 0.58095 0.0
C191 C 0.14024 0.72711 0.45424 0.0
H192 H 0.18298 0.76334 0.09615 0.0
H193 H 0.19322 0.77599 0.17694 0.0
H194 H 0.28827 0.86486 0.14664 0.0
H195 H 0.27811 0.85271 0.06577 0.0
H196 H 0.21038 0.78694 0.57392 0.0
H197 H 0.19787 0.77666 0.4931 0.0
H198 H 0.10102 0.69044 0.52406 0.0
H199 H 0.11348 0.70003 0.60483 0.0
Dy200 Dy 0.40295 0.22151 0.62553 0.0
Dy201 Dy 0.39847 0.17688 0.71669 0.0
C202 C 0.3541 0.14097 0.62976 0.0
O203 O 0.37564 0.23405 0.67736 0.0
O204 O 0.35427 0.18513 0.71877 0.0
O205 O 0.37993 0.23836 0.57601 0.0
O206 O 0.43337 0.2554 0.57239 0.0
O207 O 0.42192 0.23055 0.73792 0.0
O208 O 0.44636 0.25513 0.67067 0.0
O209 O 0.44283 0.18387 0.67562 0.0
O210 O 0.42389 0.18867 0.60614 0.0
O211 O 0.42465 0.16824 0.77089 0.0
O212 O 0.37027 0.13804 0.76633 0.0
C213 C 0.35412 0.2128 0.70688 0.0
O214 O 0.35778 0.17015 0.61651 0.0
O215 O 0.37184 0.13865 0.66296 0.0
C216 C 0.40436 0.2461 0.50368 0.0
C217 C 0.4 0.23134 0.41039 0.0
C218 C 0.3929 0.206 0.44265 0.0
C219 C 0.39507 0.21332 0.48887 0.0
C220 C 0.41136 0.2714 0.47181 0.0
C221 C 0.4092 0.26412 0.42561 0.0
C222 C 0.40751 0.25426 0.55215 0.0
C223 C 0.44456 0.25639 0.71488 0.0
C224 C 0.44338 0.18214 0.63135 0.0
C225 C 0.39431 0.15196 0.83921 0.0
C226 C 0.39176 0.16346 0.93261 0.0
C227 C 0.39887 0.18924 0.90105 0.0
C228 C 0.40008 0.18352 0.8548 0.0
C229 C 0.38675 0.12606 0.87032 0.0
C230 C 0.38544 0.13171 0.91656 0.0
C231 C 0.3969 0.1461 0.79081 0.0
H232 H 0.38536 0.18041 0.43222 0.0
H233 H 0.38958 0.19344 0.51308 0.0
H234 H 0.41877 0.29689 0.48266 0.0
H235 H 0.41532 0.28436 0.40179 0.0
H236 H 0.40425 0.2141 0.91211 0.0
H237 H 0.40595 0.20386 0.83125 0.0
H238 H 0.38207 0.1015 0.85887 0.0
H239 H 0.37932 0.1111 0.93973 0.0
H240 H 0.35672 0.27384 0.70733 0.0
H241 H 0.32316 0.2906 0.75323 0.0
H242 H 0.2659 0.18905 0.8053 0.0
H243 H 0.30011 0.17221 0.7604 0.0
H244 H 0.25643 0.26941 0.75778 0.0
H245 H 0.30137 0.24454 0.91969 0.0
H246 H 0.32001 0.24442 0.86604 0.0
H247 H 0.28062 0.20857 0.88288 0.0
C248 C 0.33681 0.25495 0.72822 0.0
C249 C 0.3313 0.22179 0.73064 0.0
C250 C 0.31765 0.26458 0.75443 0.0
C251 C 0.29253 0.24122 0.78329 0.0
C252 C 0.28576 0.20765 0.78407 0.0
H253 H 0.16227 0.30334 0.92181 0.0
H254 H 0.1807 0.2703 0.87714 0.0
C255 C 0.30519 0.19805 0.75822 0.0
C256 C 0.27448 0.25269 0.81355 0.0
H257 H 0.26269 0.26431 0.92451 0.0
C258 C 0.25752 0.26809 0.79425 0.0
C259 C 0.27641 0.25123 0.86109 0.0
C260 C 0.29581 0.23659 0.88378 0.0
C261 C 0.24313 0.2829 0.82119 0.0
C262 C 0.24494 0.28131 0.86873 0.0
C263 C 0.26114 0.26516 0.88805 0.0
C264 C 0.23269 0.29874 0.89893 0.0
C265 C 0.22762 0.30151 0.79847 0.0
C266 C 0.25548 0.32453 0.9276 0.0
C267 C 0.24495 0.34308 0.9537 0.0
C268 C 0.21146 0.33623 0.95133 0.0
C269 C 0.18835 0.30947 0.92394 0.0
C270 C 0.19884 0.29068 0.89822 0.0
H271 H 0.23542 0.30716 0.76254 0.0
H272 H 0.19975 0.2856 0.79942 0.0
H273 H 0.23478 0.32568 0.81614 0.0
H274 H 0.28171 0.33102 0.92873 0.0
H275 H 0.26336 0.36352 0.97445 0.0
H276 H 0.12645 0.32286 0.13188 0.0
H277 H 0.07705 0.2874 0.1784 0.0
H278 H 0.01261 0.29379 0.0776 0.0
H279 H 0.06173 0.32922 0.03076 0.0
H280 H 0.03334 0.31161 0.209 0.0
H281 H 0.96438 0.1919 0.11227 0.0
H282 H 0.00886 0.2212 0.10452 0.0
H283 H -0.02195 0.22937 0.07891 0.0
C284 C 0.10172 0.31618 0.11914 0.0
C285 C 0.09797 0.32893 0.07767 0.0
C286 C 0.07358 0.29594 0.1458 0.0
C287 C 0.0413 0.28773 0.13109 0.0
C288 C 0.03734 0.29939 0.08906 0.0
H289 H 0.84276 0.21984 0.21358 0.0
H290 H 0.89612 0.23533 0.17677 0.0
C291 C 0.06545 0.31984 0.06253 0.0
C292 C 0.01209 0.27033 0.16156 0.0
H293 H 0.93253 0.20267 0.16765 0.0
C294 C 0.01148 0.28745 0.20063 0.0
C295 C -0.0162 0.23892 0.15021 0.0
C296 C -0.01621 0.21907 0.10939 0.0
C297 C -0.01766 0.27505 0.22721 0.0
C298 C 0.95345 0.24426 0.21482 0.0
C299 C 0.95473 0.22627 0.17701 0.0
C300 C 0.92066 0.2323 0.23752 0.0
C301 C -0.01792 0.29611 0.26651 0.0
C302 C 0.91661 0.22488 0.28383 0.0
C303 C 0.88614 0.2164 0.30524 0.0
C304 C 0.85919 0.21476 0.28044 0.0
C305 C 0.86301 0.22094 0.23374 0.0
C306 C 0.89348 0.2297 0.21256 0.0
H307 H 0.00401 0.32222 0.26575 0.0
H308 H 0.95861 0.29765 0.26666 0.0
H309 H -0.01685 0.28413 0.29854 0.0
H310 H 0.93712 0.22609 0.30347 0.0
H311 H 0.88382 0.21139 0.34117 0.0
H312 H 0.73091 0.07571 0.34804 0.0
H313 H 0.7101 0.02217 0.38853 0.0
H314 H 0.73471 0.07564 0.5155 0.0
H315 H 0.75565 0.1292 0.47566 0.0
H316 H 0.75253 0.02175 0.50607 0.0
H317 H 0.61963 0.98305 0.46248 0.0
H318 H 0.64932 -0.00436 0.41663 0.0
H319 H 0.65343 0.0263 0.45799 0.0
C320 C 0.73223 0.07613 0.38456 0.0
C321 C 0.74459 0.10666 0.40867 0.0
C322 C 0.7203 0.04555 0.40755 0.0
C323 C 0.72068 0.04512 0.45486 0.0
C324 C 0.73425 0.0756 0.47892 0.0
H325 H 0.60603 0.8986 0.6545 0.0
H326 H 0.63803 0.94861 0.60759 0.0
C327 C 0.74604 0.10613 0.45606 0.0
C328 C 0.70497 0.01287 0.47972 0.0
H329 H 0.62839 0.9461 0.50821 0.0
C330 C 0.72544 0.00494 0.50627 0.0
C331 C 0.66961 -0.00859 0.48006 0.0
C332 C 0.64654 -0.00055 0.45306 0.0
C333 C 0.71129 0.97606 0.53373 0.0
C334 C 0.67593 0.95487 0.53441 0.0
C335 C 0.65554 0.96253 0.50735 0.0
C336 C 0.65924 0.92545 0.56469 0.0
C337 C 0.73396 0.96889 0.56293 0.0
C338 C 0.66098 0.89612 0.55614 0.0
C339 C 0.64264 0.86739 0.5828 0.0
C340 C 0.62228 0.86765 0.61835 0.0
C341 C 0.62144 0.89751 0.62746 0.0
C342 C 0.63966 0.9261 0.6007 0.0
H343 H 0.76042 -0.00989 0.56276 0.0
H344 H 0.72455 0.96404 0.59826 0.0
H345 H 0.7337 0.94579 0.55041 0.0
H346 H 0.67574 0.89516 0.5281 0.0
H347 H 0.64377 0.84478 0.57479 0.0
H348 H 0.63368 0.79167 0.80226 0.0
H349 H 0.66708 0.77389 0.84691 0.0
H350 H 0.65305 0.70035 0.74488 0.0
H351 H 0.61964 0.71783 0.69997 0.0
H352 H 0.63984 0.70437 0.87692 0.0
H353 H 0.75615 0.75013 0.77415 0.0
H354 H 0.72849 0.76768 0.76947 0.0
H355 H 0.71739 0.72796 0.74303 0.0
C356 C 0.63818 0.77212 0.78891 0.0
C357 C 0.62399 0.75611 0.74757 0.0
C358 C 0.65721 0.762 0.81451 0.0
C359 C 0.66275 0.73613 0.79886 0.0
C360 C 0.64946 0.72076 0.7571 0.0
H361 H 0.73501 0.60631 0.88327 0.0
H362 H 0.71607 0.64098 0.84466 0.0
C363 C 0.6302 0.73064 0.73165 0.0
C364 C 0.67979 0.72294 0.82777 0.0
H365 H 0.74656 0.70928 0.83091 0.0
C366 C 0.66345 0.70583 0.86739 0.0
C367 C 0.71044 0.7249 0.81488 0.0
C368 C 0.72937 0.7439 0.77325 0.0
C369 C 0.67611 0.68903 0.89344 0.0
C370 C 0.7064 0.69023 0.87996 0.0
C371 C 0.72336 0.70843 0.84114 0.0
C372 C 0.71952 0.67067 0.90365 0.0
C373 C 0.65602 0.66871 0.93372 0.0
C374 C 0.72826 0.67625 0.94951 0.0
C375 C 0.73878 0.65617 0.97192 0.0
C376 C 0.74116 0.63052 0.94859 0.0
C377 C 0.7334 0.62579 0.9023 0.0
C378 C 0.72264 0.64563 0.88011 0.0
H379 H 0.62976 0.66407 0.93319 0.0
H380 H 0.65511 0.64393 0.93504 0.0
H381 H 0.66821 0.68283 0.9651 0.0
H382 H 0.72674 0.69597 0.96803 0.0
H383 H 0.74493 0.66068 1.00747 0.0
H384 H 0.12813 0.77395 0.2027 0.0
H385 H 0.07585 0.75589 0.16145 0.0
H386 H 0.01939 0.72137 0.28556 0.0
H387 H 0.07176 0.73984 0.32749 0.0
H388 H 0.02466 0.68968 0.15823 0.0
H389 H 0.97758 0.77242 0.22505 0.0
H390 H 0.02068 0.78204 0.23218 0.0
H391 H -0.01204 0.75128 0.26783 0.0
C392 C 0.10468 0.76295 0.22145 0.0
C393 C 0.10408 0.75815 0.26841 0.0
C394 C 0.07484 0.75273 0.19776 0.0
C395 C 0.04386 0.73763 0.2205 0.0
C396 C 0.04316 0.73364 0.26753 0.0
H397 H 0.83619 0.62049 0.14585 0.0
H398 H 0.89021 0.65434 0.18364 0.0
C399 C 0.07308 0.744 0.29138 0.0
C400 C 0.0122 0.72307 0.19435 0.0
H401 H 0.93889 0.72467 0.18136 0.0
C402 C 0.00605 0.69758 0.16287 0.0
C403 C -0.01199 0.73339 0.20077 0.0
C404 C -0.00607 0.7615 0.233 0.0
C405 C 0.9759 0.6814 0.13842 0.0
C406 C 0.95154 0.69147 0.14511 0.0
C407 C 0.95778 0.71721 0.17623 0.0
C408 C 0.91864 0.67405 0.12191 0.0
C409 C 0.96985 0.65285 0.10684 0.0
C410 C 0.91671 0.67473 0.0747 0.0
C411 C 0.88586 0.65524 0.05284 0.0
C412 C 0.85648 0.63493 0.07796 0.0
C413 C 0.85835 0.63564 0.1254 0.0
C414 C 0.88917 0.65506 0.14714 0.0
H415 H -0.01218 0.64356 0.11287 0.0
H416 H 0.94377 0.63131 0.1106 0.0
H417 H 0.9731 0.66191 0.07147 0.0
H418 H 0.9392 0.68971 0.05475 0.0
H419 H 0.88524 0.65548 0.0163 0.0
H420 H 0.32489 0.13664 0.54759 0.0
H421 H 0.29377 0.08598 0.50095 0.0
H422 H 0.3017 0.02524 0.60633 0.0
H423 H 0.33312 0.07562 0.65295 0.0
H424 H 0.32556 0.01861 0.52199 0.0
H425 H 0.19751 0.0038 0.50907 0.0
H426 H 0.23219 0.04506 0.49596 0.0
H427 H 0.22715 0.02912 0.55248 0.0
C428 C 0.31943 0.11241 0.56122 0.0
C429 C 0.3316 0.11014 0.6039 0.0
C430 C 0.30154 0.08349 0.53457 0.0
C431 C 0.29529 0.05193 0.55041 0.0
C432 C 0.30628 0.04944 0.59362 0.0
H433 H 0.20612 0.84715 0.46569 0.0
H434 H 0.22575 0.90098 0.50461 0.0
C435 C 0.32425 0.07826 0.62017 0.0
C436 C 0.28021 0.02194 0.52065 0.0
H437 H 0.20797 0.96618 0.4657 0.0
C438 C 0.29989 0.00722 0.50957 0.0
C439 C 0.24679 0.00736 0.50439 0.0
C440 C 0.22448 0.02191 0.51625 0.0
C441 C 0.28686 0.9779 0.48316 0.0
C442 C 0.25333 0.963 0.46762 0.0
C443 C 0.23376 0.97798 0.47773 0.0
C444 C 0.23787 0.9305 0.44343 0.0
C445 C 0.30868 0.96254 0.47261 0.0
C446 C 0.23782 0.92955 0.39617 0.0
C447 C 0.22672 0.89881 0.37364 0.0
C448 C 0.21567 0.86873 0.39825 0.0
C449 C 0.21468 0.86984 0.44567 0.0
C450 C 0.22572 0.9005 0.46803 0.0
H451 H 0.33524 0.97909 0.48336 0.0
H452 H 0.29848 0.93788 0.4902 0.0
H453 H 0.30822 0.95761 0.43581 0.0
H454 H 0.24735 0.95268 0.37685 0.0
H455 H 0.22773 0.89878 0.33711 0.0
H456 H 0.10455 0.35813 0.68225 0.0
H457 H 0.11629 0.35951 0.60141 0.0
H458 H 0.22171 0.4285 0.62638 0.0
H459 H 0.2102 0.42745 0.7072 0.0
H460 H 0.14391 0.41467 0.5434 0.0
H461 H 0.22424 0.35524 0.54973 0.0
H462 H 0.19826 0.35378 0.59661 0.0
H463 H 0.23806 0.39128 0.58619 0.0
C464 C 0.13024 0.37369 0.67058 0.0
C465 C 0.15644 0.39259 0.70135 0.0
C466 C 0.13692 0.37432 0.62435 0.0
C467 C 0.16994 0.39371 0.60787 0.0
C468 C 0.19615 0.41272 0.6384 0.0
H469 H 0.26145 0.43902 0.34135 0.0
H470 H 0.24937 0.43608 0.42219 0.0
C471 C 0.18951 0.41208 0.68464 0.0
C472 C 0.17677 0.39485 0.5586 0.0
H473 H 0.22188 0.37914 0.47962 0.0
C474 C 0.1608 0.40672 0.52941 0.0
C475 C 0.19888 0.38454 0.54039 0.0
C476 C 0.21564 0.37019 0.56974 0.0
C477 C 0.16683 0.40914 0.48264 0.0
C478 C 0.189 0.39891 0.46446 0.0
C479 C 0.20494 0.38702 0.49362 0.0
C480 C 0.19609 0.40046 0.41526 0.0
C481 C 0.15002 0.42339 0.4532 0.0
C482 C 0.17022 0.38107 0.3845 0.0
C483 C 0.17706 0.38249 0.33822 0.0
C484 C 0.21 0.40324 0.32171 0.0
C485 C 0.23589 0.42244 0.35279 0.0
C486 C 0.22901 0.42094 0.39905 0.0
H487 H 0.14067 0.43769 0.47323 0.0
H488 H 0.16768 0.4404 0.42699 0.0
H489 H 0.12813 0.4023 0.43587 0.0
H490 H 0.14475 0.36453 0.39633 0.0
H491 H 0.15662 0.36691 0.31545 0.0
H492 H 0.79464 0.19311 0.03666 0.0
H493 H 0.80491 0.20467 0.95581 0.0
H494 H 0.69933 0.16971 0.93506 0.0
H495 H 0.68896 0.15898 0.01602 0.0
H496 H 0.77695 0.15908 0.88396 0.0
H497 H 0.74501 0.26136 0.871 0.0
H498 H 0.75272 0.24745 0.9244 0.0
H499 H 0.7128 0.22311 0.89651 0.0
C500 C 0.77365 0.18835 0.01505 0.0
C501 C 0.74097 0.17524 0.03301 0.0
C502 C 0.77955 0.19476 0.96876 0.0
C503 C 0.75299 0.18849 0.9394 0.0
C504 C 0.72033 0.17532 0.95712 0.0
H505 H 0.73882 0.20763 0.64845 0.0
H506 H 0.7274 0.19619 0.72921 0.0
C507 C 0.71439 0.16883 1.0034 0.0
C508 C 0.75933 0.19477 0.8901 0.0
H509 H 0.75422 0.24043 0.80219 0.0
C510 C 0.77212 0.17697 0.86611 0.0
C511 C 0.75289 0.21802 0.86677 0.0
C512 C 0.74038 0.23884 0.89096 0.0
C513 C 0.77818 0.18141 0.81938 0.0
C514 C 0.77191 0.20479 0.79607 0.0
C515 C 0.75899 0.2225 0.82003 0.0
C516 C 0.77891 0.2115 0.74694 0.0
C517 C 0.79057 0.16046 0.79524 0.0
C518 C 0.81173 0.22426 0.73002 0.0
C519 C 0.81831 0.23063 0.68384 0.0
C520 C 0.79224 0.22459 0.65347 0.0
C521 C 0.75943 0.21211 0.67066 0.0
C522 C 0.75288 0.20577 0.7169 0.0
H523 H 0.78524 0.1376 0.81488 0.0
H524 H 0.77872 0.15238 0.76144 0.0
H525 H 0.81827 0.17586 0.79053 0.0
H526 H 0.83236 0.22948 0.75259 0.0
H527 H 0.84382 0.23992 0.67188 0.0
H528 H 0.59001 0.73024 0.35366 0.0
H529 H 0.59074 0.74176 0.27293 0.0
H530 H 0.53671 0.79518 0.29853 0.0
H531 H 0.53563 0.7836 0.37924 0.0
H532 H 0.53673 0.72313 0.21466 0.0
H533 H 0.61635 0.86287 0.22252 0.0
H534 H 0.61282 0.83583 0.26909 0.0
H535 H 0.58012 0.84597 0.25888 0.0
C536 C 0.57816 0.74435 0.34216 0.0
C537 C 0.56286 0.75609 0.37311 0.0
C538 C 0.57874 0.75104 0.29598 0.0
C539 C 0.56424 0.76978 0.27969 0.0
C540 C 0.54878 0.78138 0.31038 0.0
H541 H 0.53215 0.8291 0.01439 0.0
H542 H 0.53353 0.81867 0.09506 0.0
C543 C 0.5482 0.77472 0.35658 0.0
C544 C 0.5644 0.77629 0.23048 0.0
H545 H 0.59005 0.83937 0.15222 0.0
C546 C 0.54856 0.74854 0.20096 0.0
C547 C 0.57981 0.80946 0.21263 0.0
C548 C 0.59852 0.84027 0.24231 0.0
C549 C 0.54712 0.75306 0.15425 0.0
C550 C 0.56239 0.78622 0.13645 0.0
C551 C 0.5783 0.81397 0.16593 0.0
C552 C 0.56195 0.79267 0.08736 0.0
C553 C 0.52854 0.72229 0.12446 0.0
C554 C 0.57788 0.78194 0.0562 0.0
C555 C 0.57738 0.7881 0.01 0.0
C556 C 0.56103 0.80525 0.99395 0.0
C557 C 0.54536 0.81623 0.02544 0.0
C558 C 0.54595 0.81012 0.07161 0.0
H559 H 0.51146 0.69937 0.14427 0.0
H560 H 0.51346 0.72642 0.09855 0.0
H561 H 0.54709 0.71737 0.10675 0.0
H562 H 0.59099 0.76905 0.06766 0.0
H563 H 0.59023 0.77981 0.98694 0.0
H564 H 0.84216 0.58913 0.68331 0.0
H565 H 0.83093 0.58809 0.60258 0.0
H566 H 0.72401 0.53303 0.62871 0.0
H567 H 0.73497 0.53278 0.70949 0.0
H568 H 0.74246 0.50647 0.55717 0.0
H569 H 0.79888 0.6452 0.53717 0.0
H570 H 0.82696 0.63284 0.56166 0.0
H571 H 0.78956 0.62502 0.59176 0.0
C572 C 0.81622 0.57651 0.67198 0.0
C573 C 0.78948 0.56109 0.70315 0.0
C574 C 0.80985 0.57634 0.62575 0.0
C575 C 0.77662 0.56103 0.60956 0.0
C576 C 0.74986 0.54526 0.64042 0.0
H577 H 0.6848 0.53175 0.34315 0.0
H578 H 0.69557 0.5316 0.42394 0.0
C579 C 0.7562 0.54537 0.68669 0.0
C580 C 0.76979 0.56087 0.5604 0.0
H581 H 0.78382 0.61256 0.4698 0.0
C582 C 0.75135 0.52966 0.53811 0.0
C583 C 0.78143 0.59115 0.53547 0.0
C584 C 0.80003 0.62546 0.55775 0.0
C585 C 0.74481 0.52789 0.4915 0.0
C586 C 0.75653 0.55816 0.46657 0.0
C587 C 0.77492 0.58937 0.48886 0.0
C588 C 0.7499 0.55808 0.41736 0.0
C589 C 0.72609 0.4936 0.46919 0.0
C590 C 0.77683 0.57372 0.38674 0.0
C591 C 0.77077 0.57421 0.3405 0.0
C592 C 0.73758 0.55924 0.32383 0.0
C593 C 0.71066 0.54375 0.35471 0.0
C594 C 0.71677 0.54328 0.40093 0.0
H595 H 0.72686 0.47372 0.48992 0.0
H596 H 0.69927 0.4865 0.46482 0.0
H597 H 0.73678 0.49397 0.43535 0.0
H598 H 0.80262 0.58555 0.39865 0.0
H599 H 0.79213 0.58683 0.31792 0.0
H600 H 0.22271 0.76416 0.64036 0.0
H601 H 0.23415 0.77427 0.72132 0.0
H602 H 0.13123 0.74928 0.74456 0.0
H603 H 0.11961 0.73938 0.66378 0.0
H604 H 0.22829 0.82007 0.77834 0.0
H605 H 0.14313 0.68814 0.8343 0.0
H606 H 0.15549 0.6989 0.77608 0.0
H607 H 0.12298 0.70536 0.80008 0.0
C608 C 0.20252 0.76098 0.66262 0.0
C609 C 0.17014 0.75071 0.64541 0.0
C610 C 0.20908 0.76662 0.70896 0.0
C611 C 0.18341 0.76196 0.73919 0.0
C612 C 0.15123 0.75221 0.72211 0.0
H613 H 0.17014 0.7852 0.02876 0.0
H614 H 0.15971 0.77467 0.94774 0.0
C615 C 0.14463 0.74655 0.67582 0.0
C616 C 0.19045 0.76798 0.78844 0.0
H617 H 0.16666 0.72997 0.89177 0.0
C618 C 0.21497 0.80032 0.80314 0.0
C619 C 0.173 0.74223 0.82083 0.0
C620 C 0.14739 0.70661 0.80713 0.0
C621 C 0.22198 0.80782 0.8493 0.0
C622 C 0.20448 0.78208 0.88172 0.0
C623 C 0.18004 0.74971 0.86699 0.0
C624 C 0.211 0.78824 0.93107 0.0
C625 C 0.24742 0.84351 0.86297 0.0
C626 C 0.24318 0.79884 0.94892 0.0
C627 C 0.24922 0.80483 0.99529 0.0
C628 C 0.22312 0.80004 0.02498 0.0
C629 C 0.19076 0.78884 1.00705 0.0
C630 C 0.18478 0.78295 0.96065 0.0
H631 H 0.25165 0.86191 0.83573 0.0
H632 H 0.23919 0.8512 0.89392 0.0
H633 H 0.27189 0.84492 0.87017 0.0
H634 H 0.26363 0.80226 0.92701 0.0
H635 H 0.27427 0.81281 1.00796 0.0
H636 H 0.42085 0.19192 0.36619 0.0
H637 H 0.41856 0.18036 0.28515 0.0
H638 H 0.37288 0.24196 0.26192 0.0
H639 H 0.37481 0.25346 0.34286 0.0
H640 H 0.36304 0.15031 0.22708 0.0
H641 H 0.45276 0.28204 0.17439 0.0
H642 H 0.44846 0.26834 0.23235 0.0
H643 H 0.4181 0.27774 0.20797 0.0
C644 C 0.41007 0.20283 0.34392 0.0
C645 C 0.39817 0.22379 0.36112 0.0
C646 C 0.40894 0.19632 0.29756 0.0
C647 C 0.39608 0.21075 0.26737 0.0
C648 C 0.38367 0.23121 0.28443 0.0
H649 H 0.36722 0.20017 0.976 0.0
H650 H 0.36767 0.21104 0.05705 0.0
C651 C 0.3848 0.23775 0.33077 0.0
C652 C 0.39518 0.20397 0.21813 0.0
H653 H 0.42387 0.24241 0.11591 0.0
C654 C 0.37644 0.17042 0.20278 0.0
C655 C 0.41264 0.23025 0.18644 0.0
C656 C 0.43439 0.26659 0.20102 0.0
C657 C 0.37428 0.1625 0.15657 0.0
C658 C 0.39175 0.18878 0.12491 0.0
C659 C 0.41041 0.22232 0.14022 0.0
C660 C 0.39134 0.18194 0.07577 0.0
C661 C 0.35278 0.12614 0.14193 0.0
C662 C 0.40492 0.16235 0.05931 0.0
C663 C 0.40493 0.15628 0.01299 0.0
C664 C 0.39147 0.16979 0.98203 0.0
C665 C 0.3781 0.18964 0.99871 0.0
C666 C 0.37817 0.19575 0.04507 0.0
H667 H 0.33448 0.11055 0.16854 0.0
H668 H 0.33866 0.12432 0.11061 0.0
H669 H 0.36926 0.11524 0.13485 0.0
H670 H 0.41591 0.15208 0.08228 0.0
H671 H 0.41608 0.14149 1.0014 0.0
H672 H 0.17547 0.50449 0.01884 0.0
H673 H 0.16882 0.54708 0.06127 0.0
H674 H 0.12955 0.47913 0.17477 0.0
H675 H 0.13744 0.43716 0.13336 0.0
H676 H 0.11711 0.55019 0.10188 0.0
H677 H 0.20925 0.55933 0.23085 0.0
H678 H 0.20244 0.53615 0.17889 0.0
H679 H 0.17356 0.51762 0.22536 0.0
C680 C 0.1651 0.49857 0.05266 0.0
C681 C 0.15751 0.46784 0.07315 0.0
C682 C 0.16131 0.52287 0.07685 0.0
C683 C 0.14955 0.51658 0.12161 0.0
C684 C 0.13969 0.48492 0.14083 0.0
H685 H 0.13514 0.65254 0.31929 0.0
H686 H 0.12361 0.60117 0.27767 0.0
C687 C 0.14405 0.46092 0.11705 0.0
C688 C 0.14935 0.54376 0.1489 0.0
H689 H 0.18249 0.59144 0.24407 0.0
C690 C 0.1313 0.55912 0.13304 0.0
C691 C 0.16806 0.55551 0.18949 0.0
C692 C 0.18969 0.54155 0.20698 0.0
C693 C 0.13165 0.58606 0.1566 0.0
C694 C 0.1504 0.59772 0.19692 0.0
C695 C 0.16784 0.582 0.21333 0.0
C696 C 0.15488 0.6282 0.2205 0.0
C697 C 0.11236 0.60224 0.13816 0.0
C698 C 0.17637 0.66012 0.20202 0.0
C699 C 0.18336 0.68932 0.22582 0.0
C700 C 0.16882 0.68709 0.26847 0.0
C701 C 0.14667 0.65501 0.28651 0.0
C702 C 0.14002 0.62572 0.26283 0.0
H703 H 0.09434 0.58658 0.11133 0.0
H704 H 0.09828 0.60648 0.16562 0.0
H705 H 0.13039 0.62727 0.1236 0.0
H706 H 0.18831 0.66241 0.16958 0.0
H707 H 0.20027 0.71366 0.21079 0.0
H708 H 0.6485 0.13185 0.3796 0.0
H709 H 0.59875 0.12364 0.4219 0.0
H710 H 0.65698 0.22322 0.47987 0.0
H711 H 0.70655 0.23178 0.43808 0.0
H712 H 0.59341 0.13067 0.52244 0.0
H713 H 0.57228 0.21956 0.41823 0.0
H714 H 0.59667 0.20078 0.39852 0.0
H715 H 0.61488 0.23574 0.43733 0.0
C716 C 0.65065 0.15206 0.40117 0.0
C717 C 0.68144 0.18256 0.4052 0.0
C718 C 0.6223 0.14723 0.42545 0.0
C719 C 0.62431 0.17293 0.45365 0.0
C720 C 0.65496 0.20324 0.45792 0.0
H721 H 0.50134 0.18639 0.6646 0.0
H722 H 0.54321 0.1789 0.62192 0.0
C723 C 0.68325 0.20803 0.43396 0.0
C724 C 0.59443 0.16868 0.47844 0.0
H725 H 0.54241 0.20185 0.48749 0.0
C726 C 0.58191 0.14589 0.51465 0.0
C727 C 0.57951 0.18844 0.4678 0.0
C728 C 0.59126 0.21233 0.42812 0.0
C729 C 0.55528 0.14312 0.54151 0.0
C730 C 0.54131 0.16399 0.532 0.0
C731 C 0.5533 0.18601 0.49491 0.0
C732 C 0.51437 0.1639 0.55988 0.0
C733 C 0.54231 0.11791 0.57964 0.0
C734 C 0.48433 0.15784 0.53922 0.0
C735 C 0.46078 0.16259 0.56319 0.0
C736 C 0.46674 0.17343 0.60842 0.0
C737 C 0.49606 0.17791 0.62985 0.0
C738 C 0.51988 0.17344 0.60559 0.0
H739 H 0.54895 0.09775 0.5747 0.0
H740 H 0.55389 0.13117 0.61176 0.0
H741 H 0.51451 0.10594 0.58297 0.0
H742 H 0.4796 0.15046 0.50401 0.0
H743 H 0.43823 0.15854 0.54586 0.0
H744 H 0.29624 0.50494 1.00082 0.0
H745 H 0.34416 0.54807 0.95758 0.0
H746 H 0.30091 0.49205 0.83489 0.0
H747 H 0.253 0.44922 0.87731 0.0
H748 H 0.39088 0.54172 0.89803 0.0
H749 H 0.31351 0.58657 0.80925 0.0
H750 H 0.29892 0.56052 0.85916 0.0
H751 H 0.29797 0.54188 0.80526 0.0
C752 C 0.29701 0.50176 0.96467 0.0
C753 C 0.27061 0.47385 0.94249 0.0
C754 C 0.32438 0.52636 0.94007 0.0
C755 C 0.32569 0.52343 0.89302 0.0
C756 C 0.3 0.49506 0.87107 0.0
H757 H 0.46039 0.65989 0.68624 0.0
H758 H 0.41706 0.60996 0.72603 0.0
C759 C 0.27267 0.47057 0.89549 0.0
C760 C 0.35346 0.55036 0.86655 0.0
H761 H 0.3701 0.60977 0.7856 0.0
C762 C 0.38643 0.55667 0.87348 0.0
C763 C 0.34742 0.56959 0.8344 0.0
C764 C 0.3126 0.5646 0.8267 0.0
C765 C 0.41361 0.5817 0.84878 0.0
C766 C 0.40759 0.60121 0.817 0.0
C767 C 0.37457 0.5946 0.80978 0.0
C768 C 0.43534 0.63 0.79282 0.0
C769 C 0.44842 0.58678 0.85655 0.0
C770 C 0.45982 0.65772 0.81723 0.0
C771 C 0.4845 0.68615 0.79473 0.0
C772 C 0.48504 0.68759 0.74725 0.0
C773 C 0.46072 0.65958 0.72279 0.0
C774 C 0.43597 0.63105 0.74544 0.0
H775 H 0.44733 0.56379 0.871 0.0
H776 H 0.46316 0.59339 0.82467 0.0
H777 H 0.46204 0.60783 0.8809 0.0
H778 H 0.45932 0.65776 0.85379 0.0
H779 H 0.50276 0.70727 0.81473 0.0
H780 H 0.7735 0.25853 0.21207 0.0
H781 H 0.78289 0.30747 0.16793 0.0
H782 H 0.82741 0.37187 0.28413 0.0
H783 H 0.81922 0.32277 0.3282 0.0
H784 H 0.75284 0.34233 0.18544 0.0
H785 H 0.89095 0.42991 0.18575 0.0
H786 H 0.87228 0.38614 0.20244 0.0
H787 H 0.87358 0.41716 0.24135 0.0
C788 C 0.78574 0.28321 0.22807 0.0
C789 C 0.79532 0.2869 0.27366 0.0
C790 C 0.79122 0.31117 0.20275 0.0
C791 C 0.806 0.3434 0.22258 0.0
C792 C 0.81664 0.3474 0.2678 0.0
H793 H 0.76026 0.49587 0.13924 0.0
H794 H 0.76955 0.45468 0.17938 0.0
C795 C 0.81171 0.31934 0.29306 0.0
C796 C 0.80639 0.37158 0.19723 0.0
H797 H 0.85655 0.45289 0.1612 0.0
C798 C 0.77563 0.36637 0.17986 0.0
C799 C 0.83614 0.40286 0.18961 0.0
C800 C 0.87017 0.40931 0.20537 0.0
C801 C 0.77364 0.39161 0.15569 0.0
C802 C 0.80304 0.42339 0.14981 0.0
C803 C 0.83401 0.42856 0.16625 0.0
C804 C 0.80139 0.45156 0.12771 0.0
C805 C 0.74 0.38391 0.13642 0.0
C806 C 0.81749 0.46454 0.0862 0.0
C807 C 0.81241 0.4884 0.06311 0.0
C808 C 0.79101 0.49935 0.08125 0.0
C809 C 0.77631 0.48741 0.12386 0.0
C810 C 0.78164 0.46394 0.14696 0.0
H811 H 0.72257 0.35624 0.13299 0.0
H812 H 0.72802 0.39414 0.1594 0.0
H813 H 0.74309 0.39582 0.10278 0.0
H814 H 0.83296 0.45532 0.07097 0.0
H815 H 0.82425 0.49735 0.03049 0.0
H816 H 0.30721 0.84869 0.39312 0.0
H817 H 0.35394 0.85808 0.44279 0.0
H818 H 0.30749 0.75044 0.4644 0.0
H819 H 0.2604 0.74109 0.41644 0.0
H820 H 0.32752 0.78404 0.54213 0.0
H821 H 0.43173 0.84304 0.41696 0.0
H822 H 0.4083 0.86466 0.4247 0.0
H823 H 0.38799 0.82284 0.40069 0.0
C824 C 0.30727 0.82706 0.40806 0.0
C825 C 0.28027 0.79415 0.40077 0.0
C826 C 0.33398 0.83244 0.43637 0.0
C827 C 0.3344 0.80493 0.45698 0.0
C828 C 0.30767 0.77207 0.44902 0.0
H829 H 0.48877 0.77318 0.55527 0.0
H830 H 0.44728 0.78146 0.51487 0.0
C831 C 0.28082 0.76674 0.42143 0.0
C832 C 0.36209 0.8098 0.48761 0.0
H833 H 0.44633 0.83693 0.49098 0.0
C834 C 0.35358 0.79579 0.5311 0.0
C835 C 0.39603 0.8252 0.47311 0.0
C836 C 0.40664 0.83956 0.42622 0.0
C837 C 0.37769 0.79518 0.55967 0.0
C838 C 0.41155 0.81007 0.54488 0.0
C839 C 0.42037 0.82561 0.50228 0.0
C840 C 0.43735 0.80628 0.5704 0.0
C841 C 0.36622 0.77688 0.60422 0.0
C842 C 0.44577 0.81758 0.61521 0.0
C843 C 0.46922 0.81227 0.6389 0.0
C844 C 0.4851 0.79627 0.61772 0.0
C845 C 0.4771 0.7857 0.57259 0.0
C846 C 0.45341 0.79051 0.54933 0.0
H847 H 0.33837 0.7605 0.60581 0.0
H848 H 0.37788 0.76093 0.61026 0.0
H849 H 0.37395 0.7957 0.63195 0.0
H850 H 0.43428 0.83052 0.63184 0.0
H851 H 0.47519 0.82102 0.67348 0.0
H852 H 0.64542 0.5083 0.97536 0.0
H853 H 0.59643 0.46618 0.93246 0.0
H854 H 0.65561 0.42381 0.88058 0.0
H855 H 0.70433 0.46531 0.92303 0.0
H856 H 0.59296 0.4539 0.83402 0.0
H857 H 0.56973 0.3426 0.93664 0.0
H858 H 0.5942 0.38552 0.9571 0.0
H859 H 0.61273 0.36869 0.91885 0.0
C860 C 0.64788 0.48982 0.95511 0.0
C861 C 0.67873 0.49006 0.95282 0.0
C862 C 0.61997 0.46595 0.9305 0.0
C863 C 0.62246 0.44182 0.90375 0.0
C864 C 0.65314 0.44201 0.90147 0.0
H865 H 0.50454 0.3098 0.68566 0.0
H866 H 0.54603 0.35733 0.73123 0.0
C867 C 0.68098 0.46585 0.92574 0.0
C868 C 0.59327 0.41637 0.87767 0.0
H869 H 0.54222 0.33124 0.86548 0.0
C870 C 0.58152 0.42707 0.84107 0.0
C871 C 0.57838 0.38151 0.88728 0.0
C872 C 0.58914 0.3688 0.92734 0.0
C873 C 0.55579 0.40356 0.81285 0.0
C874 C 0.54193 0.36859 0.82132 0.0
C875 C 0.55308 0.35806 0.85878 0.0
C876 C 0.51576 0.34218 0.79212 0.0
C877 C 0.54362 0.41633 0.77443 0.0
C878 C 0.48513 0.31791 0.81125 0.0
C879 C 0.46173 0.29065 0.7856 0.0
C880 C 0.46843 0.28705 0.74017 0.0
C881 C 0.49862 0.31199 0.72049 0.0
C882 C 0.52224 0.33925 0.74642 0.0
H883 H 0.5499 0.44297 0.77995 0.0
H884 H 0.55607 0.41534 0.74273 0.0
H885 H 0.51593 0.4004 0.76991 0.0
H886 H 0.47964 0.31968 0.84644 0.0
H887 H 0.43858 0.27207 0.80174 0.0
loop_
_geom_bond_atom_site_label_1
_geom_bond_atom_site_label_2
_geom_bond_distance
_geom_bond_site_symmetry_2
_ccdc_geom_bond_type
Dy0 O3 2.307 1_556 S
Dy0 O5 2.395 . S
Dy0 O6 2.379 . S
Dy0 O8 2.339 . S
Dy0 O10 2.298 . S
Dy0 O14 2.275 . S
Dy0 C22 2.738 . S
Dy1 O4 2.298 . S
Dy1 O7 2.275 . S
Dy1 O9 2.307 1_554 S
Dy1 O11 2.395 . S
Dy1 O12 2.379 . S
Dy1 O15 2.339 . S
Dy1 C31 2.738 . S
C2 O14 1.254 . S
C2 O15 1.257 1_556 S
O3 Dy0 2.307 1_554 S
O3 C13 1.266 . S
O4 Dy1 2.298 . S
O4 C13 1.236 . S
O5 Dy0 2.395 . S
O5 C22 1.255 . S
O6 Dy0 2.379 . S
O6 C22 1.249 . S
O7 Dy1 2.275 . S
O7 C23 1.254 . S
O8 Dy0 2.339 . S
O8 C23 1.257 1_556 S
O9 Dy1 2.307 1_556 S
O9 C24 1.266 . S
O10 Dy0 2.298 . S
O10 C24 1.236 . S
O11 Dy1 2.395 . S
O11 C31 1.255 . S
O12 Dy1 2.379 . S
O12 C31 1.249 . S
C13 O3 1.266 . S
C13 O4 1.236 . S
O14 Dy0 2.275 . S
O14 C2 1.254 . S
O15 Dy1 2.339 . S
O15 C2 1.257 1_554 S
C16 C19 1.344 . S
C16 C20 1.328 . S
C16 C22 1.516 . S
C17 C18 1.304 . S
C17 C21 1.323 . S
C18 C17 1.304 . S
C18 C19 1.371 . S
C18 H32 0.930 . S
C19 C16 1.344 . S
C19 C18 1.371 . S
C19 H33 0.931 . S
C20 C16 1.328 . S
C20 C21 1.433 . S
C20 H34 0.931 . S
C21 C17 1.323 . S
C21 C20 1.433 . S
C21 H35 0.933 . S
C22 Dy0 2.738 . S
C22 O5 1.255 . S
C22 O6 1.249 . S
C22 C16 1.516 . S
C23 O7 1.254 . S
C23 O8 1.257 1_554 S
C24 O9 1.266 . S
C24 O10 1.236 . S
C25 C28 1.344 . S
C25 C29 1.328 . S
C25 C31 1.516 . S
C26 C27 1.304 . S
C26 C30 1.323 . S
C27 C26 1.304 . S
C27 C28 1.371 . S
C27 H36 0.930 . S
C28 C25 1.344 . S
C28 C27 1.371 . S
C28 H37 0.931 . S
C29 C25 1.328 . S
C29 C30 1.433 . S
C29 H38 0.931 . S
C30 C26 1.323 . S
C30 C29 1.433 . S
C30 H39 0.933 . S
C31 Dy1 2.738 . S
C31 O11 1.255 . S
C31 O12 1.249 . S
C31 C25 1.516 . S
H32 C18 0.930 . S
H33 C19 0.931 . S
H34 C20 0.931 . S
H35 C21 0.933 . S
H36 C27 0.930 . S
H37 C28 0.931 . S
H38 C29 0.931 . S
H39 C30 0.933 . S
Dy40 O43 2.307 . S
Dy40 O45 2.395 . S
Dy40 O46 2.379 . S
Dy40 O48 2.339 . S
Dy40 O50 2.298 . S
Dy40 O54 2.275 . S
Dy40 C62 2.738 . S
Dy41 O44 2.298 . S
Dy41 O47 2.275 . S
Dy41 O49 2.307 . S
Dy41 O51 2.395 . S
Dy41 O52 2.379 . S
Dy41 O55 2.339 . S
Dy41 C71 2.738 . S
C42 O54 1.254 . S
C42 O55 1.257 . S
O43 Dy40 2.307 . S
O43 C53 1.266 . S
O44 Dy41 2.298 . S
O44 C53 1.236 . S
O45 Dy40 2.395 . S
O45 C62 1.255 . S
O46 Dy40 2.379 . S
O46 C62 1.249 . S
O47 Dy41 2.275 . S
O47 C63 1.254 . S
O48 Dy40 2.339 . S
O48 C63 1.257 . S
O49 Dy41 2.307 . S
O49 C64 1.266 . S
O50 Dy40 2.298 . S
O50 C64 1.236 . S
O51 Dy41 2.395 . S
O51 C71 1.255 . S
O52 Dy41 2.379 . S
O52 C71 1.249 . S
C53 O43 1.266 . S
C53 O44 1.236 . S
O54 Dy40 2.275 . S
O54 C42 1.254 . S
O55 Dy41 2.339 . S
O55 C42 1.257 . S
C56 C59 1.344 . S
C56 C60 1.328 . S
C56 C62 1.516 . S
C57 C58 1.304 . S
C57 C61 1.323 . S
C58 C57 1.304 . S
C58 C59 1.371 . S
C58 H72 0.930 . S
C59 C56 1.344 . S
C59 C58 1.371 . S
C59 H73 0.931 . S
C60 C56 1.328 . S
C60 C61 1.433 . S
C60 H74 0.931 . S
C61 C57 1.323 . S
C61 C60 1.433 . S
C61 H75 0.933 . S
C62 Dy40 2.738 . S
C62 O45 1.255 . S
C62 O46 1.249 . S
C62 C56 1.516 . S
C63 O47 1.254 . S
C63 O48 1.257 . S
C64 O49 1.266 . S
C64 O50 1.236 . S
C65 C68 1.344 . S
C65 C69 1.328 . S
C65 C71 1.516 . S
C66 C67 1.304 . S
C66 C70 1.323 . S
C67 C66 1.304 . S
C67 C68 1.371 . S
C67 H76 0.930 . S
C68 C65 1.344 . S
C68 C67 1.371 . S
C68 H77 0.931 . S
C69 C65 1.328 . S
C69 C70 1.433 . S
C69 H78 0.931 . S
C70 C66 1.323 . S
C70 C69 1.433 . S
C70 H79 0.933 . S
C71 Dy41 2.738 . S
C71 O51 1.255 . S
C71 O52 1.249 . S
C71 C65 1.516 . S
H72 C58 0.930 . S
H73 C59 0.931 . S
H74 C60 0.931 . S
H75 C61 0.933 . S
H76 C67 0.930 . S
H77 C68 0.931 . S
H78 C69 0.931 . S
H79 C70 0.933 . S
Dy80 O83 2.307 . S
Dy80 O85 2.395 . S
Dy80 O86 2.379 . S
Dy80 O88 2.339 . S
Dy80 O90 2.298 . S
Dy80 O94 2.275 . S
Dy80 C102 2.738 . S
Dy81 O84 2.298 . S
Dy81 O87 2.275 . S
Dy81 O89 2.307 . S
Dy81 O91 2.395 . S
Dy81 O92 2.379 . S
Dy81 O95 2.339 . S
Dy81 C111 2.738 . S
C82 O94 1.254 . S
C82 O95 1.257 . S
O83 Dy80 2.307 . S
O83 C93 1.266 . S
O84 Dy81 2.298 . S
O84 C93 1.236 . S
O85 Dy80 2.395 . S
O85 C102 1.255 . S
O86 Dy80 2.379 . S
O86 C102 1.249 . S
O87 Dy81 2.275 . S
O87 C103 1.254 . S
O88 Dy80 2.339 . S
O88 C103 1.257 . S
O89 Dy81 2.307 . S
O89 C104 1.266 . S
O90 Dy80 2.298 . S
O90 C104 1.236 . S
O91 Dy81 2.395 . S
O91 C111 1.255 . S
O92 Dy81 2.379 . S
O92 C111 1.249 . S
C93 O83 1.266 . S
C93 O84 1.236 . S
O94 Dy80 2.275 . S
O94 C82 1.254 . S
O95 Dy81 2.339 . S
O95 C82 1.257 . S
C96 C99 1.344 . S
C96 C100 1.328 . S
C96 C102 1.516 . S
C97 C98 1.304 . S
C97 C101 1.323 . S
C98 C97 1.304 . S
C98 C99 1.371 . S
C98 H112 0.930 . S
C99 C96 1.344 . S
C99 C98 1.371 . S
C99 H113 0.931 . S
C100 C96 1.328 . S
C100 C101 1.433 . S
C100 H114 0.931 . S
C101 C97 1.323 . S
C101 C100 1.433 . S
C101 H115 0.933 . S
C102 Dy80 2.738 . S
C102 O85 1.255 . S
C102 O86 1.249 . S
C102 C96 1.516 . S
C103 O87 1.254 . S
C103 O88 1.257 . S
C104 O89 1.266 . S
C104 O90 1.236 . S
C105 C108 1.344 . S
C105 C109 1.328 . S
C105 C111 1.516 . S
C106 C107 1.304 . S
C106 C110 1.323 . S
C107 C106 1.304 . S
C107 C108 1.371 . S
C107 H116 0.930 . S
C108 C105 1.344 . S
C108 C107 1.371 . S
C108 H117 0.931 . S
C109 C105 1.328 . S
C109 C110 1.433 . S
C109 H118 0.931 . S
C110 C106 1.323 . S
C110 C109 1.433 . S
C110 H119 0.933 . S
C111 Dy81 2.738 . S
C111 O91 1.255 . S
C111 O92 1.249 . S
C111 C105 1.516 . S
H112 C98 0.930 . S
H113 C99 0.931 . S
H114 C100 0.931 . S
H115 C101 0.933 . S
H116 C107 0.930 . S
H117 C108 0.931 . S
H118 C109 0.931 . S
H119 C110 0.933 . S
Dy120 O123 2.307 1_556 S
Dy120 O125 2.395 . S
Dy120 O126 2.379 . S
Dy120 O128 2.339 . S
Dy120 O130 2.298 . S
Dy120 O134 2.275 . S
Dy120 C142 2.738 . S
Dy121 O124 2.298 . S
Dy121 O127 2.275 . S
Dy121 O129 2.307 1_554 S
Dy121 O131 2.395 . S
Dy121 O132 2.379 . S
Dy121 O135 2.339 . S
Dy121 C151 2.738 . S
C122 O134 1.254 . S
C122 O135 1.257 1_556 S
O123 Dy120 2.307 1_554 S
O123 C133 1.266 . S
O124 Dy121 2.298 . S
O124 C133 1.236 . S
O125 Dy120 2.395 . S
O125 C142 1.255 . S
O126 Dy120 2.379 . S
O126 C142 1.249 . S
O127 Dy121 2.275 . S
O127 C143 1.254 . S
O128 Dy120 2.339 . S
O128 C143 1.257 1_556 S
O129 Dy121 2.307 1_556 S
O129 C144 1.266 . S
O130 Dy120 2.298 . S
O130 C144 1.236 . S
O131 Dy121 2.395 . S
O131 C151 1.255 . S
O132 Dy121 2.379 . S
O132 C151 1.249 . S
C133 O123 1.266 . S
C133 O124 1.236 . S
O134 Dy120 2.275 . S
O134 C122 1.254 . S
O135 Dy121 2.339 . S
O135 C122 1.257 1_554 S
C136 C139 1.344 . S
C136 C140 1.328 . S
C136 C142 1.516 . S
C137 C138 1.304 . S
C137 C141 1.323 . S
C138 C137 1.304 . S
C138 C139 1.371 . S
C138 H152 0.930 . S
C139 C136 1.344 . S
C139 C138 1.371 . S
C139 H153 0.931 . S
C140 C136 1.328 . S
C140 C141 1.433 . S
C140 H154 0.931 . S
C141 C137 1.323 . S
C141 C140 1.433 . S
C141 H155 0.933 . S
C142 Dy120 2.738 . S
C142 O125 1.255 . S
C142 O126 1.249 . S
C142 C136 1.516 . S
C143 O127 1.254 . S
C143 O128 1.257 1_554 S
C144 O129 1.266 . S
C144 O130 1.236 . S
C145 C148 1.344 . S
C145 C149 1.328 . S
C145 C151 1.516 . S
C146 C147 1.304 . S
C146 C150 1.323 . S
C147 C146 1.304 . S
C147 C148 1.371 . S
C147 H156 0.930 . S
C148 C145 1.344 . S
C148 C147 1.371 . S
C148 H157 0.931 . S
C149 C145 1.328 . S
C149 C150 1.433 . S
C149 H158 0.931 . S
C150 C146 1.323 . S
C150 C149 1.433 . S
C150 H159 0.933 . S
C151 Dy121 2.738 . S
C151 O131 1.255 . S
C151 O132 1.249 . S
C151 C145 1.516 . S
H152 C138 0.930 . S
H153 C139 0.931 . S
H154 C140 0.931 . S
H155 C141 0.933 . S
H156 C147 0.930 . S
H157 C148 0.931 . S
H158 C149 0.931 . S
H159 C150 0.933 . S
Dy160 O163 2.307 . S
Dy160 O165 2.395 . S
Dy160 O166 2.379 . S
Dy160 O168 2.339 . S
Dy160 O170 2.298 . S
Dy160 O174 2.275 . S
Dy160 C182 2.738 . S
Dy161 O164 2.298 . S
Dy161 O167 2.275 . S
Dy161 O169 2.307 . S
Dy161 O171 2.395 . S
Dy161 O172 2.379 . S
Dy161 O175 2.339 . S
Dy161 C191 2.738 . S
C162 O174 1.254 . S
C162 O175 1.257 . S
O163 Dy160 2.307 . S
O163 C173 1.266 . S
O164 Dy161 2.298 . S
O164 C173 1.236 . S
O165 Dy160 2.395 . S
O165 C182 1.255 . S
O166 Dy160 2.379 . S
O166 C182 1.249 . S
O167 Dy161 2.275 . S
O167 C183 1.254 . S
O168 Dy160 2.339 . S
O168 C183 1.257 . S
O169 Dy161 2.307 . S
O169 C184 1.266 . S
O170 Dy160 2.298 . S
O170 C184 1.236 . S
O171 Dy161 2.395 . S
O171 C191 1.255 . S
O172 Dy161 2.379 . S
O172 C191 1.249 . S
C173 O163 1.266 . S
C173 O164 1.236 . S
O174 Dy160 2.275 . S
O174 C162 1.254 . S
O175 Dy161 2.339 . S
O175 C162 1.257 . S
C176 C179 1.344 . S
C176 C180 1.328 . S
C176 C182 1.516 . S
C177 C178 1.304 . S
C177 C181 1.323 . S
C178 C177 1.304 . S
C178 C179 1.371 . S
C178 H192 0.930 . S
C179 C176 1.344 . S
C179 C178 1.371 . S
C179 H193 0.931 . S
C180 C176 1.328 . S
C180 C181 1.433 . S
C180 H194 0.931 . S
C181 C177 1.323 . S
C181 C180 1.433 . S
C181 H195 0.933 . S
C182 Dy160 2.738 . S
C182 O165 1.255 . S
C182 O166 1.249 . S
C182 C176 1.516 . S
C183 O167 1.254 . S
C183 O168 1.257 . S
C184 O169 1.266 . S
C184 O170 1.236 . S
C185 C188 1.344 . S
C185 C189 1.328 . S
C185 C191 1.516 . S
C186 C187 1.304 . S
C186 C190 1.323 . S
C187 C186 1.304 . S
C187 C188 1.371 . S
C187 H196 0.930 . S
C188 C185 1.344 . S
C188 C187 1.371 . S
C188 H197 0.931 . S
C189 C185 1.328 . S
C189 C190 1.433 . S
C189 H198 0.931 . S
C190 C186 1.323 . S
C190 C189 1.433 . S
C190 H199 0.933 . S
C191 Dy161 2.738 . S
C191 O171 1.255 . S
C191 O172 1.249 . S
C191 C185 1.516 . S
H192 C178 0.930 . S
H193 C179 0.931 . S
H194 C180 0.931 . S
H195 C181 0.933 . S
H196 C187 0.930 . S
H197 C188 0.931 . S
H198 C189 0.931 . S
H199 C190 0.933 . S
Dy200 O203 2.307 . S
Dy200 O205 2.395 . S
Dy200 O206 2.379 . S
Dy200 O208 2.339 . S
Dy200 O210 2.298 . S
Dy200 O214 2.275 . S
Dy200 C222 2.738 . S
Dy201 O204 2.298 . S
Dy201 O207 2.275 . S
Dy201 O209 2.307 . S
Dy201 O211 2.395 . S
Dy201 O212 2.379 . S
Dy201 O215 2.339 . S
Dy201 C231 2.738 . S
C202 O214 1.254 . S
C202 O215 1.257 . S
O203 Dy200 2.307 . S
O203 C213 1.266 . S
O204 Dy201 2.298 . S
O204 C213 1.236 . S
O205 Dy200 2.395 . S
O205 C222 1.255 . S
O206 Dy200 2.379 . S
O206 C222 1.249 . S
O207 Dy201 2.275 . S
O207 C223 1.254 . S
O208 Dy200 2.339 . S
O208 C223 1.257 . S
O209 Dy201 2.307 . S
O209 C224 1.266 . S
O210 Dy200 2.298 . S
O210 C224 1.236 . S
O211 Dy201 2.395 . S
O211 C231 1.255 . S
O212 Dy201 2.379 . S
O212 C231 1.249 . S
C213 O203 1.266 . S
C213 O204 1.236 . S
O214 Dy200 2.275 . S
O214 C202 1.254 . S
O215 Dy201 2.339 . S
O215 C202 1.257 . S
C216 C219 1.344 . S
C216 C220 1.328 . S
C216 C222 1.516 . S
C217 C218 1.304 . S
C217 C221 1.323 . S
C218 C217 1.304 . S
C218 C219 1.371 . S
C218 H232 0.930 . S
C219 C216 1.344 . S
C219 C218 1.371 . S
C219 H233 0.931 . S
C220 C216 1.328 . S
C220 C221 1.433 . S
C220 H234 0.931 . S
C221 C217 1.323 . S
C221 C220 1.433 . S
C221 H235 0.933 . S
C222 Dy200 2.738 . S
C222 O205 1.255 . S
C222 O206 1.249 . S
C222 C216 1.516 . S
C223 O207 1.254 . S
C223 O208 1.257 . S
C224 O209 1.266 . S
C224 O210 1.236 . S
C225 C228 1.344 . S
C225 C229 1.328 . S
C225 C231 1.516 . S
C226 C227 1.304 . S
C226 C230 1.323 . S
C227 C226 1.304 . S
C227 C228 1.371 . S
C227 H236 0.930 . S
C228 C225 1.344 . S
C228 C227 1.371 . S
C228 H237 0.931 . S
C229 C225 1.328 . S
C229 C230 1.433 . S
C229 H238 0.931 . S
C230 C226 1.323 . S
C230 C229 1.433 . S
C230 H239 0.933 . S
C231 Dy201 2.738 . S
C231 O211 1.255 . S
C231 O212 1.249 . S
C231 C225 1.516 . S
H232 C218 0.930 . S
H233 C219 0.931 . S
H234 C220 0.931 . S
H235 C221 0.933 . S
H236 C227 0.930 . S
H237 C228 0.931 . S
H238 C229 0.931 . S
H239 C230 0.933 . S
H240 C248 0.929 . S
H241 C250 0.930 . S
H242 C252 0.930 . S
H243 C255 0.929 . S
H244 C258 0.930 . S
H245 C260 0.960 . S
H246 C260 0.960 . S
H247 C260 0.960 . S
C248 H240 0.929 . S
C248 C249 1.377 . S
C248 C250 1.384 . S
C249 C248 1.377 . S
C249 C255 1.390 . S
C250 H241 0.930 . S
C250 C248 1.384 . S
C250 C251 1.372 . S
C251 C250 1.372 . S
C251 C252 1.400 . S
C251 C256 1.490 . S
C252 H242 0.930 . S
C252 C251 1.400 . S
C252 C255 1.386 . S
H253 C269 0.930 . S
H254 C270 0.931 . S
C255 H243 0.929 . S
C255 C249 1.390 . S
C255 C252 1.386 . S
C256 C251 1.490 . S
C256 C258 1.395 . S
C256 C259 1.403 . S
H257 C263 0.930 . S
C258 H244 0.930 . S
C258 C256 1.395 . S
C258 C261 1.403 . S
C259 C256 1.403 . S
C259 C260 1.524 . S
C259 C263 1.400 . S
C260 H245 0.960 . S
C260 H246 0.960 . S
C260 H247 0.960 . S
C260 C259 1.524 . S
C261 C258 1.403 . S
C261 C262 1.392 . S
C261 C265 1.495 . S
C262 C261 1.392 . S
C262 C263 1.385 . S
C262 C264 1.478 . S
C263 H257 0.930 . S
C263 C259 1.400 . S
C263 C262 1.385 . S
C264 C262 1.478 . S
C264 C266 1.381 . S
C264 C270 1.383 . S
C265 C261 1.495 . S
C265 H271 0.959 . S
C265 H272 0.961 . S
C265 H273 0.960 . S
C266 C264 1.381 . S
C266 C267 1.394 . S
C266 H274 0.930 . S
C267 C266 1.394 . S
C267 C268 1.383 . S
C267 H275 0.929 . S
C268 C267 1.383 . S
C268 C269 1.377 . S
C269 H253 0.930 . S
C269 C268 1.377 . S
C269 C270 1.379 . S
C270 H254 0.931 . S
C270 C264 1.383 . S
C270 C269 1.379 . S
H271 C265 0.959 . S
H272 C265 0.961 . S
H273 C265 0.960 . S
H274 C266 0.930 . S
H275 C267 0.929 . S
H276 C284 0.929 . S
H277 C286 0.930 . S
H278 C288 0.930 . S
H279 C291 0.929 . S
H280 C294 0.930 . S
H281 C296 0.960 . S
H282 C296 0.960 . S
H283 C296 0.960 1_455 S
C284 H276 0.929 . S
C284 C285 1.377 . S
C284 C286 1.384 . S
C285 C284 1.377 . S
C285 C291 1.390 . S
C286 H277 0.930 . S
C286 C284 1.384 . S
C286 C287 1.372 . S
C287 C286 1.372 . S
C287 C288 1.400 . S
C287 C292 1.490 . S
C288 H278 0.930 . S
C288 C287 1.400 . S
C288 C291 1.386 . S
H289 C305 0.930 . S
H290 C306 0.931 . S
C291 H279 0.929 . S
C291 C285 1.390 . S
C291 C288 1.386 . S
C292 C287 1.490 . S
C292 C294 1.395 . S
C292 C295 1.403 1_455 S
H293 C299 0.930 . S
C294 H280 0.930 . S
C294 C292 1.395 . S
C294 C297 1.403 . S
C295 C292 1.403 1_655 S
C295 C296 1.524 . S
C295 C299 1.400 . S
C296 H281 0.960 . S
C296 H282 0.960 . S
C296 H283 0.960 1_655 S
C296 C295 1.524 . S
C297 C294 1.403 . S
C297 C298 1.392 1_455 S
C297 C301 1.495 . S
C298 C297 1.392 1_655 S
C298 C299 1.385 . S
C298 C300 1.478 . S
C299 H293 0.930 . S
C299 C295 1.400 . S
C299 C298 1.385 . S
C300 C298 1.478 . S
C300 C302 1.381 . S
C300 C306 1.383 . S
C301 C297 1.495 . S
C301 H307 0.959 . S
C301 H308 0.961 . S
C301 H309 0.960 . S
C302 C300 1.381 . S
C302 C303 1.394 . S
C302 H310 0.930 . S
C303 C302 1.394 . S
C303 C304 1.383 . S
C303 H311 0.929 . S
C304 C303 1.383 . S
C304 C305 1.377 . S
C305 H289 0.930 . S
C305 C304 1.377 . S
C305 C306 1.379 . S
C306 H290 0.931 . S
C306 C300 1.383 . S
C306 C305 1.379 . S
H307 C301 0.959 . S
H308 C301 0.961 . S
H309 C301 0.960 . S
H310 C302 0.930 . S
H311 C303 0.929 . S
H312 C320 0.929 . S
H313 C322 0.930 . S
H314 C324 0.930 . S
H315 C327 0.929 . S
H316 C330 0.930 . S
H317 C332 0.960 1_565 S
H318 C332 0.960 . S
H319 C332 0.960 . S
C320 H312 0.929 . S
C320 C321 1.377 . S
C320 C322 1.384 . S
C321 C320 1.377 . S
C321 C327 1.390 . S
C322 H313 0.930 . S
C322 C320 1.384 . S
C322 C323 1.372 . S
C323 C322 1.372 . S
C323 C324 1.400 . S
C323 C328 1.490 . S
C324 H314 0.930 . S
C324 C323 1.400 . S
C324 C327 1.386 . S
H325 C341 0.930 . S
H326 C342 0.931 . S
C327 H315 0.929 . S
C327 C321 1.390 . S
C327 C324 1.386 . S
C328 C323 1.490 . S
C328 C330 1.395 . S
C328 C331 1.403 . S
H329 C335 0.930 . S
C330 H316 0.930 . S
C330 C328 1.395 . S
C330 C333 1.403 1_545 S
C331 C328 1.403 . S
C331 C332 1.524 . S
C331 C335 1.400 1_545 S
C332 H317 0.960 1_545 S
C332 H318 0.960 . S
C332 H319 0.960 . S
C332 C331 1.524 . S
C333 C330 1.403 1_565 S
C333 C334 1.392 . S
C333 C337 1.495 . S
C334 C333 1.392 . S
C334 C335 1.385 . S
C334 C336 1.478 . S
C335 H329 0.930 . S
C335 C331 1.400 1_565 S
C335 C334 1.385 . S
C336 C334 1.478 . S
C336 C338 1.381 . S
C336 C342 1.383 . S
C337 C333 1.495 . S
C337 H343 0.959 1_565 S
C337 H344 0.961 . S
C337 H345 0.960 . S
C338 C336 1.381 . S
C338 C339 1.394 . S
C338 H346 0.930 . S
C339 C338 1.394 . S
C339 C340 1.383 . S
C339 H347 0.929 . S
C340 C339 1.383 . S
C340 C341 1.377 . S
C341 H325 0.930 . S
C341 C340 1.377 . S
C341 C342 1.379 . S
C342 H326 0.931 . S
C342 C336 1.383 . S
C342 C341 1.379 . S
H343 C337 0.959 1_545 S
H344 C337 0.961 . S
H345 C337 0.960 . S
H346 C338 0.930 . S
H347 C339 0.929 . S
H348 C356 0.929 . S
H349 C358 0.930 . S
H350 C360 0.930 . S
H351 C363 0.929 . S
H352 C366 0.930 . S
H353 C368 0.960 . S
H354 C368 0.960 . S
H355 C368 0.960 . S
C356 H348 0.929 . S
C356 C357 1.377 . S
C356 C358 1.384 . S
C357 C356 1.377 . S
C357 C363 1.390 . S
C358 H349 0.930 . S
C358 C356 1.384 . S
C358 C359 1.372 . S
C359 C358 1.372 . S
C359 C360 1.400 . S
C359 C364 1.490 . S
C360 H350 0.930 . S
C360 C359 1.400 . S
C360 C363 1.386 . S
H361 C377 0.930 . S
H362 C378 0.931 . S
C363 H351 0.929 . S
C363 C357 1.390 . S
C363 C360 1.386 . S
C364 C359 1.490 . S
C364 C366 1.395 . S
C364 C367 1.403 . S
H365 C371 0.930 . S
C366 H352 0.930 . S
C366 C364 1.395 . S
C366 C369 1.403 . S
C367 C364 1.403 . S
C367 C368 1.524 . S
C367 C371 1.400 . S
C368 H353 0.960 . S
C368 H354 0.960 . S
C368 H355 0.960 . S
C368 C367 1.524 . S
C369 C366 1.403 . S
C369 C370 1.392 . S
C369 C373 1.495 . S
C370 C369 1.392 . S
C370 C371 1.385 . S
C370 C372 1.478 . S
C371 H365 0.930 . S
C371 C367 1.400 . S
C371 C370 1.385 . S
C372 C370 1.478 . S
C372 C374 1.381 . S
C372 C378 1.383 . S
C373 C369 1.495 . S
C373 H379 0.959 . S
C373 H380 0.961 . S
C373 H381 0.960 . S
C374 C372 1.381 . S
C374 C375 1.394 . S
C374 H382 0.930 . S
C375 C374 1.394 . S
C375 C376 1.383 . S
C375 H383 0.929 . S
C376 C375 1.383 . S
C376 C377 1.377 . S
C377 H361 0.930 . S
C377 C376 1.377 . S
C377 C378 1.379 . S
C378 H362 0.931 . S
C378 C372 1.383 . S
C378 C377 1.379 . S
H379 C373 0.959 . S
H380 C373 0.961 . S
H381 C373 0.960 . S
H382 C374 0.930 . S
H383 C375 0.929 . S
H384 C392 0.929 . S
H385 C394 0.930 . S
H386 C396 0.930 . S
H387 C399 0.929 . S
H388 C402 0.930 . S
H389 C404 0.960 . S
H390 C404 0.960 1_455 S
H391 C404 0.960 1_455 S
C392 H384 0.929 . S
C392 C393 1.377 . S
C392 C394 1.384 . S
C393 C392 1.377 . S
C393 C399 1.390 . S
C394 H385 0.930 . S
C394 C392 1.384 . S
C394 C395 1.372 . S
C395 C394 1.372 . S
C395 C396 1.400 . S
C395 C400 1.490 . S
C396 H386 0.930 . S
C396 C395 1.400 . S
C396 C399 1.386 . S
H397 C413 0.930 . S
H398 C414 0.931 . S
C399 H387 0.929 . S
C399 C393 1.390 . S
C399 C396 1.386 . S
C400 C395 1.490 . S
C400 C402 1.395 . S
C400 C403 1.411 . S
H401 C407 0.930 . S
C402 H388 0.930 . S
C402 C400 1.395 . S
C402 C405 1.403 . S
C403 C400 1.411 . S
C403 C404 1.521 1_455 S
C403 C407 1.395 1_455 S
C404 H389 0.960 . S
C404 H390 0.960 1_655 S
C404 H391 0.960 1_655 S
C404 C403 1.521 1_655 S
C405 C402 1.403 . S
C405 C406 1.392 1_455 S
C405 C409 1.495 . S
C406 C405 1.392 1_655 S
C406 C407 1.385 . S
C406 C408 1.478 . S
C407 H401 0.930 . S
C407 C403 1.395 1_655 S
C407 C406 1.385 . S
C408 C406 1.478 . S
C408 C410 1.381 . S
C408 C414 1.383 . S
C409 C405 1.495 . S
C409 H415 0.959 . S
C409 H416 0.961 1_455 S
C409 H417 0.956 1_455 S
C410 C408 1.381 . S
C410 C411 1.394 . S
C410 H418 0.930 . S
C411 C410 1.394 . S
C411 C412 1.383 . S
C411 H419 0.929 . S
C412 C411 1.383 . S
C412 C413 1.377 . S
C413 H397 0.930 . S
C413 C412 1.377 . S
C413 C414 1.379 . S
C414 H398 0.931 . S
C414 C408 1.383 . S
C414 C413 1.379 . S
H415 C409 0.959 . S
H416 C409 0.961 1_655 S
H417 C409 0.956 1_655 S
H418 C410 0.930 . S
H419 C411 0.929 . S
H420 C428 0.929 . S
H421 C430 0.930 . S
H422 C432 0.930 . S
H423 C435 0.929 . S
H424 C438 0.930 . S
H425 C440 0.960 . S
H426 C440 0.960 . S
H427 C440 0.960 . S
C428 H420 0.929 . S
C428 C429 1.377 . S
C428 C430 1.384 . S
C429 C428 1.377 . S
C429 C435 1.390 . S
C430 H421 0.930 . S
C430 C428 1.384 . S
C430 C431 1.372 . S
C431 C430 1.372 . S
C431 C432 1.400 . S
C431 C436 1.490 . S
C432 H422 0.930 . S
C432 C431 1.400 . S
C432 C435 1.386 . S
H433 C449 0.930 . S
H434 C450 0.931 . S
C435 H423 0.929 . S
C435 C429 1.390 . S
C435 C432 1.386 . S
C436 C431 1.490 . S
C436 C438 1.395 . S
C436 C439 1.403 . S
H437 C443 0.930 . S
C438 H424 0.930 . S
C438 C436 1.395 . S
C438 C441 1.403 1_545 S
C439 C436 1.403 . S
C439 C440 1.524 . S
C439 C443 1.400 1_545 S
C440 H425 0.960 . S
C440 H426 0.960 . S
C440 H427 0.960 . S
C440 C439 1.524 . S
C441 C438 1.403 1_565 S
C441 C442 1.392 . S
C441 C445 1.495 . S
C442 C441 1.392 . S
C442 C443 1.385 . S
C442 C444 1.478 . S
C443 H437 0.930 . S
C443 C439 1.400 1_565 S
C443 C442 1.385 . S
C444 C442 1.478 . S
C444 C446 1.381 . S
C444 C450 1.383 . S
C445 C441 1.495 . S
C445 H451 0.959 . S
C445 H452 0.961 . S
C445 H453 0.960 . S
C446 C444 1.381 . S
C446 C447 1.394 . S
C446 H454 0.930 . S
C447 C446 1.394 . S
C447 C448 1.383 . S
C447 H455 0.929 . S
C448 C447 1.383 . S
C448 C449 1.377 . S
C449 H433 0.930 . S
C449 C448 1.377 . S
C449 C450 1.379 . S
C450 H434 0.931 . S
C450 C444 1.383 . S
C450 C449 1.379 . S
H451 C445 0.959 . S
H452 C445 0.961 . S
H453 C445 0.960 . S
H454 C446 0.930 . S
H455 C447 0.929 . S
H456 C464 0.929 . S
H457 C466 0.930 . S
H458 C468 0.930 . S
H459 C471 0.929 . S
H460 C474 0.930 . S
H461 C476 0.960 . S
H462 C476 0.960 . S
H463 C476 0.960 . S
C464 H456 0.929 . S
C464 C465 1.377 . S
C464 C466 1.384 . S
C465 C464 1.377 . S
C465 C471 1.390 . S
C466 H457 0.930 . S
C466 C464 1.384 . S
C466 C467 1.372 . S
C467 C466 1.372 . S
C467 C468 1.400 . S
C467 C472 1.490 . S
C468 H458 0.930 . S
C468 C467 1.400 . S
C468 C471 1.386 . S
H469 C485 0.930 . S
H470 C486 0.931 . S
C471 H459 0.929 . S
C471 C465 1.390 . S
C471 C468 1.386 . S
C472 C467 1.490 . S
C472 C474 1.395 . S
C472 C475 1.403 . S
H473 C479 0.930 . S
C474 H460 0.930 . S
C474 C472 1.395 . S
C474 C477 1.403 . S
C475 C472 1.403 . S
C475 C476 1.524 . S
C475 C479 1.400 . S
C476 H461 0.960 . S
C476 H462 0.960 . S
C476 H463 0.960 . S
C476 C475 1.524 . S
C477 C474 1.403 . S
C477 C478 1.392 . S
C477 C481 1.495 . S
C478 C477 1.392 . S
C478 C479 1.385 . S
C478 C480 1.478 . S
C479 H473 0.930 . S
C479 C475 1.400 . S
C479 C478 1.385 . S
C480 C478 1.478 . S
C480 C482 1.381 . S
C480 C486 1.383 . S
C481 C477 1.495 . S
C481 H487 0.959 . S
C481 H488 0.961 . S
C481 H489 0.960 . S
C482 C480 1.381 . S
C482 C483 1.394 . S
C482 H490 0.930 . S
C483 C482 1.394 . S
C483 C484 1.383 . S
C483 H491 0.929 . S
C484 C483 1.383 . S
C484 C485 1.377 . S
C485 H469 0.930 . S
C485 C484 1.377 . S
C485 C486 1.379 . S
C486 H470 0.931 . S
C486 C480 1.383 . S
C486 C485 1.379 . S
H487 C481 0.959 . S
H488 C481 0.961 . S
H489 C481 0.960 . S
H490 C482 0.930 . S
H491 C483 0.929 . S
H492 C500 0.929 . S
H493 C502 0.930 . S
H494 C504 0.930 . S
H495 C507 0.929 . S
H496 C510 0.930 . S
H497 C512 0.960 . S
H498 C512 0.960 . S
H499 C512 0.960 . S
C500 H492 0.929 . S
C500 C501 1.377 . S
C500 C502 1.384 1_554 S
C501 C500 1.377 . S
C501 C507 1.390 1_554 S
C502 H493 0.930 . S
C502 C500 1.384 1_556 S
C502 C503 1.372 . S
C503 C502 1.372 . S
C503 C504 1.400 . S
C503 C508 1.490 . S
C504 H494 0.930 . S
C504 C503 1.400 . S
C504 C507 1.386 . S
H505 C521 0.930 . S
H506 C522 0.931 . S
C507 H495 0.929 . S
C507 C501 1.390 1_556 S
C507 C504 1.386 . S
C508 C503 1.490 . S
C508 C510 1.395 . S
C508 C511 1.403 . S
H509 C515 0.930 . S
C510 H496 0.930 . S
C510 C508 1.395 . S
C510 C513 1.403 . S
C511 C508 1.403 . S
C511 C512 1.524 . S
C511 C515 1.400 . S
C512 H497 0.960 . S
C512 H498 0.960 . S
C512 H499 0.960 . S
C512 C511 1.524 . S
C513 C510 1.403 . S
C513 C514 1.392 . S
C513 C517 1.495 . S
C514 C513 1.392 . S
C514 C515 1.385 . S
C514 C516 1.478 . S
C515 H509 0.930 . S
C515 C511 1.400 . S
C515 C514 1.385 . S
C516 C514 1.478 . S
C516 C518 1.381 . S
C516 C522 1.383 . S
C517 C513 1.495 . S
C517 H523 0.959 . S
C517 H524 0.961 . S
C517 H525 0.960 . S
C518 C516 1.381 . S
C518 C519 1.394 . S
C518 H526 0.930 . S
C519 C518 1.394 . S
C519 C520 1.383 . S
C519 H527 0.929 . S
C520 C519 1.383 . S
C520 C521 1.377 . S
C521 H505 0.930 . S
C521 C520 1.377 . S
C521 C522 1.379 . S
C522 H506 0.931 . S
C522 C516 1.383 . S
C522 C521 1.379 . S
H523 C517 0.959 . S
H524 C517 0.961 . S
H525 C517 0.960 . S
H526 C518 0.930 . S
H527 C519 0.929 . S
H528 C536 0.929 . S
H529 C538 0.930 . S
H530 C540 0.930 . S
H531 C543 0.929 . S
H532 C546 0.930 . S
H533 C548 0.960 . S
H534 C548 0.960 . S
H535 C548 0.960 . S
C536 H528 0.929 . S
C536 C537 1.377 . S
C536 C538 1.384 . S
C537 C536 1.377 . S
C537 C543 1.390 . S
C538 H529 0.930 . S
C538 C536 1.384 . S
C538 C539 1.372 . S
C539 C538 1.372 . S
C539 C540 1.400 . S
C539 C544 1.490 . S
C540 H530 0.930 . S
C540 C539 1.400 . S
C540 C543 1.386 . S
H541 C557 0.930 . S
H542 C558 0.931 . S
C543 H531 0.929 . S
C543 C537 1.390 . S
C543 C540 1.386 . S
C544 C539 1.490 . S
C544 C546 1.395 . S
C544 C547 1.403 . S
H545 C551 0.930 . S
C546 H532 0.930 . S
C546 C544 1.395 . S
C546 C549 1.403 . S
C547 C544 1.403 . S
C547 C548 1.524 . S
C547 C551 1.400 . S
C548 H533 0.960 . S
C548 H534 0.960 . S
C548 H535 0.960 . S
C548 C547 1.524 . S
C549 C546 1.403 . S
C549 C550 1.392 . S
C549 C553 1.495 . S
C550 C549 1.392 . S
C550 C551 1.385 . S
C550 C552 1.478 . S
C551 H545 0.930 . S
C551 C547 1.400 . S
C551 C550 1.385 . S
C552 C550 1.478 . S
C552 C554 1.381 . S
C552 C558 1.383 . S
C553 C549 1.495 . S
C553 H559 0.959 . S
C553 H560 0.961 . S
C553 H561 0.960 . S
C554 C552 1.381 . S
C554 C555 1.397 . S
C554 H562 0.930 . S
C555 C554 1.397 . S
C555 C556 1.382 1_554 S
C555 H563 0.927 1_554 S
C556 C555 1.382 1_556 S
C556 C557 1.377 1_556 S
C557 H541 0.930 . S
C557 C556 1.377 1_554 S
C557 C558 1.379 . S
C558 H542 0.931 . S
C558 C552 1.383 . S
C558 C557 1.379 . S
H559 C553 0.959 . S
H560 C553 0.961 . S
H561 C553 0.960 . S
H562 C554 0.930 . S
H563 C555 0.927 1_556 S
H564 C572 0.929 . S
H565 C574 0.930 . S
H566 C576 0.930 . S
H567 C579 0.929 . S
H568 C582 0.930 . S
H569 C584 0.960 . S
H570 C584 0.960 . S
H571 C584 0.960 . S
C572 H564 0.929 . S
C572 C573 1.377 . S
C572 C574 1.384 . S
C573 C572 1.377 . S
C573 C579 1.390 . S
C574 H565 0.930 . S
C574 C572 1.384 . S
C574 C575 1.372 . S
C575 C574 1.372 . S
C575 C576 1.400 . S
C575 C580 1.490 . S
C576 H566 0.930 . S
C576 C575 1.400 . S
C576 C579 1.386 . S
H577 C593 0.930 . S
H578 C594 0.931 . S
C579 H567 0.929 . S
C579 C573 1.390 . S
C579 C576 1.386 . S
C580 C575 1.490 . S
C580 C582 1.395 . S
C580 C583 1.403 . S
H581 C587 0.930 . S
C582 H568 0.930 . S
C582 C580 1.395 . S
C582 C585 1.403 . S
C583 C580 1.403 . S
C583 C584 1.524 . S
C583 C587 1.400 . S
C584 H569 0.960 . S
C584 H570 0.960 . S
C584 H571 0.960 . S
C584 C583 1.524 . S
C585 C582 1.403 . S
C585 C586 1.392 . S
C585 C589 1.495 . S
C586 C585 1.392 . S
C586 C587 1.385 . S
C586 C588 1.478 . S
C587 H581 0.930 . S
C587 C583 1.400 . S
C587 C586 1.385 . S
C588 C586 1.478 . S
C588 C590 1.381 . S
C588 C594 1.383 . S
C589 C585 1.495 . S
C589 H595 0.959 . S
C589 H596 0.961 . S
C589 H597 0.960 . S
C590 C588 1.381 . S
C590 C591 1.394 . S
C590 H598 0.930 . S
C591 C590 1.394 . S
C591 C592 1.383 . S
C591 H599 0.929 . S
C592 C591 1.383 . S
C592 C593 1.377 . S
C593 H577 0.930 . S
C593 C592 1.377 . S
C593 C594 1.379 . S
C594 H578 0.931 . S
C594 C588 1.383 . S
C594 C593 1.379 . S
H595 C589 0.959 . S
H596 C589 0.961 . S
H597 C589 0.960 . S
H598 C590 0.930 . S
H599 C591 0.929 . S
H600 C608 0.929 . S
H601 C610 0.930 . S
H602 C612 0.930 . S
H603 C615 0.929 . S
H604 C618 0.930 . S
H605 C620 0.960 . S
H606 C620 0.960 . S
H607 C620 0.960 . S
C608 H600 0.929 . S
C608 C609 1.377 . S
C608 C610 1.384 . S
C609 C608 1.377 . S
C609 C615 1.390 . S
C610 H601 0.930 . S
C610 C608 1.384 . S
C610 C611 1.372 . S
C611 C610 1.372 . S
C611 C612 1.400 . S
C611 C616 1.490 . S
C612 H602 0.930 . S
C612 C611 1.400 . S
C612 C615 1.386 . S
H613 C629 0.932 1_554 S
H614 C630 0.931 . S
C615 H603 0.929 . S
C615 C609 1.390 . S
C615 C612 1.386 . S
C616 C611 1.490 . S
C616 C618 1.395 . S
C616 C619 1.403 . S
H617 C623 0.930 . S
C618 H604 0.930 . S
C618 C616 1.395 . S
C618 C621 1.403 . S
C619 C616 1.403 . S
C619 C620 1.524 . S
C619 C623 1.400 . S
C620 H605 0.960 . S
C620 H606 0.960 . S
C620 H607 0.960 . S
C620 C619 1.524 . S
C621 C618 1.403 . S
C621 C622 1.392 . S
C621 C625 1.495 . S
C622 C621 1.392 . S
C622 C623 1.385 . S
C622 C624 1.478 . S
C623 H617 0.930 . S
C623 C619 1.400 . S
C623 C622 1.385 . S
C624 C622 1.478 . S
C624 C626 1.381 . S
C624 C630 1.383 . S
C625 C621 1.495 . S
C625 H631 0.959 . S
C625 H632 0.961 . S
C625 H633 0.960 . S
C626 C624 1.381 . S
C626 C627 1.394 . S
C626 H634 0.930 . S
C627 C626 1.394 . S
C627 C628 1.383 1_556 S
C627 H635 0.929 . S
C628 C627 1.383 1_554 S
C628 C629 1.378 1_554 S
C629 H613 0.932 1_556 S
C629 C628 1.378 1_556 S
C629 C630 1.377 . S
C630 H614 0.931 . S
C630 C624 1.383 . S
C630 C629 1.377 . S
H631 C625 0.959 . S
H632 C625 0.961 . S
H633 C625 0.960 . S
H634 C626 0.930 . S
H635 C627 0.929 . S
H636 C644 0.929 . S
H637 C646 0.930 . S
H638 C648 0.930 . S
H639 C651 0.929 . S
H640 C654 0.930 . S
H641 C656 0.960 . S
H642 C656 0.960 . S
H643 C656 0.960 . S
C644 H636 0.929 . S
C644 C645 1.377 . S
C644 C646 1.384 . S
C645 C644 1.377 . S
C645 C651 1.390 . S
C646 H637 0.930 . S
C646 C644 1.384 . S
C646 C647 1.372 . S
C647 C646 1.372 . S
C647 C648 1.400 . S
C647 C652 1.490 . S
C648 H638 0.930 . S
C648 C647 1.400 . S
C648 C651 1.386 . S
H649 C665 0.930 1_556 S
H650 C666 0.931 . S
C651 H639 0.929 . S
C651 C645 1.390 . S
C651 C648 1.386 . S
C652 C647 1.490 . S
C652 C654 1.395 . S
C652 C655 1.403 . S
H653 C659 0.930 . S
C654 H640 0.930 . S
C654 C652 1.395 . S
C654 C657 1.403 . S
C655 C652 1.403 . S
C655 C656 1.524 . S
C655 C659 1.400 . S
C656 H641 0.960 . S
C656 H642 0.960 . S
C656 H643 0.960 . S
C656 C655 1.524 . S
C657 C654 1.403 . S
C657 C658 1.392 . S
C657 C661 1.495 . S
C658 C657 1.392 . S
C658 C659 1.385 . S
C658 C660 1.478 . S
C659 H653 0.930 . S
C659 C655 1.400 . S
C659 C658 1.385 . S
C660 C658 1.478 . S
C660 C662 1.381 . S
C660 C666 1.383 . S
C661 C657 1.495 . S
C661 H667 0.959 . S
C661 H668 0.961 . S
C661 H669 0.960 . S
C662 C660 1.381 . S
C662 C663 1.394 . S
C662 H670 0.930 . S
C663 C662 1.394 . S
C663 C664 1.383 1_554 S
C663 H671 0.929 . S
C664 C663 1.383 1_556 S
C664 C665 1.377 1_556 S
C665 H649 0.930 1_554 S
C665 C664 1.377 1_554 S
C665 C666 1.379 . S
C666 H650 0.931 . S
C666 C660 1.383 . S
C666 C665 1.379 . S
H667 C661 0.959 . S
H668 C661 0.961 . S
H669 C661 0.960 . S
H670 C662 0.930 . S
H671 C663 0.929 . S
H672 C680 0.929 . S
H673 C682 0.930 . S
H674 C684 0.930 . S
H675 C687 0.929 . S
H676 C690 0.930 . S
H677 C692 0.960 . S
H678 C692 0.960 . S
H679 C692 0.960 . S
C680 H672 0.929 . S
C680 C681 1.377 . S
C680 C682 1.384 . S
C681 C680 1.377 . S
C681 C687 1.390 . S
C682 H673 0.930 . S
C682 C680 1.384 . S
C682 C683 1.372 . S
C683 C682 1.372 . S
C683 C684 1.400 . S
C683 C688 1.490 . S
C684 H674 0.930 . S
C684 C683 1.400 . S
C684 C687 1.386 . S
H685 C701 0.930 . S
H686 C702 0.931 . S
C687 H675 0.929 . S
C687 C681 1.390 . S
C687 C684 1.386 . S
C688 C683 1.490 . S
C688 C690 1.395 . S
C688 C691 1.403 . S
H689 C695 0.930 . S
C690 H676 0.930 . S
C690 C688 1.395 . S
C690 C693 1.403 . S
C691 C688 1.403 . S
C691 C692 1.524 . S
C691 C695 1.400 . S
C692 H677 0.960 . S
C692 H678 0.960 . S
C692 H679 0.960 . S
C692 C691 1.524 . S
C693 C690 1.403 . S
C693 C694 1.392 . S
C693 C697 1.495 . S
C694 C693 1.392 . S
C694 C695 1.385 . S
C694 C696 1.478 . S
C695 H689 0.930 . S
C695 C691 1.400 . S
C695 C694 1.385 . S
C696 C694 1.478 . S
C696 C698 1.381 . S
C696 C702 1.383 . S
C697 C693 1.495 . S
C697 H703 0.959 . S
C697 H704 0.961 . S
C697 H705 0.960 . S
C698 C696 1.381 . S
C698 C699 1.394 . S
C698 H706 0.930 . S
C699 C698 1.394 . S
C699 C700 1.383 . S
C699 H707 0.929 . S
C700 C699 1.383 . S
C700 C701 1.377 . S
C701 H685 0.930 . S
C701 C700 1.377 . S
C701 C702 1.379 . S
C702 H686 0.931 . S
C702 C696 1.383 . S
C702 C701 1.379 . S
H703 C697 0.959 . S
H704 C697 0.961 . S
H705 C697 0.960 . S
H706 C698 0.930 . S
H707 C699 0.929 . S
H708 C716 0.929 . S
H709 C718 0.930 . S
H710 C720 0.930 . S
H711 C723 0.929 . S
H712 C726 0.930 . S
H713 C728 0.960 . S
H714 C728 0.960 . S
H715 C728 0.960 . S
C716 H708 0.929 . S
C716 C717 1.377 . S
C716 C718 1.384 . S
C717 C716 1.377 . S
C717 C723 1.390 . S
C718 H709 0.930 . S
C718 C716 1.384 . S
C718 C719 1.372 . S
C719 C718 1.372 . S
C719 C720 1.400 . S
C719 C724 1.490 . S
C720 H710 0.930 . S
C720 C719 1.400 . S
C720 C723 1.386 . S
H721 C737 0.930 . S
H722 C738 0.931 . S
C723 H711 0.929 . S
C723 C717 1.390 . S
C723 C720 1.386 . S
C724 C719 1.490 . S
C724 C726 1.395 . S
C724 C727 1.403 . S
H725 C731 0.930 . S
C726 H712 0.930 . S
C726 C724 1.395 . S
C726 C729 1.403 . S
C727 C724 1.403 . S
C727 C728 1.524 . S
C727 C731 1.400 . S
C728 H713 0.960 . S
C728 H714 0.960 . S
C728 H715 0.960 . S
C728 C727 1.524 . S
C729 C726 1.403 . S
C729 C730 1.392 . S
C729 C733 1.495 . S
C730 C729 1.392 . S
C730 C731 1.385 . S
C730 C732 1.478 . S
C731 H725 0.930 . S
C731 C727 1.400 . S
C731 C730 1.385 . S
C732 C730 1.478 . S
C732 C734 1.381 . S
C732 C738 1.383 . S
C733 C729 1.495 . S
C733 H739 0.959 . S
C733 H740 0.961 . S
C733 H741 0.960 . S
C734 C732 1.381 . S
C734 C735 1.394 . S
C734 H742 0.930 . S
C735 C734 1.394 . S
C735 C736 1.383 . S
C735 H743 0.929 . S
C736 C735 1.383 . S
C736 C737 1.377 . S
C737 H721 0.930 . S
C737 C736 1.377 . S
C737 C738 1.379 . S
C738 H722 0.931 . S
C738 C732 1.383 . S
C738 C737 1.379 . S
H739 C733 0.959 . S
H740 C733 0.961 . S
H741 C733 0.960 . S
H742 C734 0.930 . S
H743 C735 0.929 . S
H744 C752 0.929 . S
H745 C754 0.930 . S
H746 C756 0.930 . S
H747 C759 0.929 . S
H748 C762 0.930 . S
H749 C764 0.960 . S
H750 C764 0.960 . S
H751 C764 0.960 . S
C752 H744 0.929 . S
C752 C753 1.377 . S
C752 C754 1.384 . S
C753 C752 1.377 . S
C753 C759 1.390 . S
C754 H745 0.930 . S
C754 C752 1.384 . S
C754 C755 1.372 . S
C755 C754 1.372 . S
C755 C756 1.400 . S
C755 C760 1.490 . S
C756 H746 0.930 . S
C756 C755 1.400 . S
C756 C759 1.386 . S
H757 C773 0.930 . S
H758 C774 0.931 . S
C759 H747 0.929 . S
C759 C753 1.390 . S
C759 C756 1.386 . S
C760 C755 1.490 . S
C760 C762 1.395 . S
C760 C763 1.403 . S
H761 C767 0.930 . S
C762 H748 0.930 . S
C762 C760 1.395 . S
C762 C765 1.403 . S
C763 C760 1.403 . S
C763 C764 1.524 . S
C763 C767 1.400 . S
C764 H749 0.960 . S
C764 H750 0.960 . S
C764 H751 0.960 . S
C764 C763 1.524 . S
C765 C762 1.403 . S
C765 C766 1.392 . S
C765 C769 1.495 . S
C766 C765 1.392 . S
C766 C767 1.385 . S
C766 C768 1.478 . S
C767 H761 0.930 . S
C767 C763 1.400 . S
C767 C766 1.385 . S
C768 C766 1.478 . S
C768 C770 1.381 . S
C768 C774 1.383 . S
C769 C765 1.495 . S
C769 H775 0.959 . S
C769 H776 0.961 . S
C769 H777 0.960 . S
C770 C768 1.381 . S
C770 C771 1.394 . S
C770 H778 0.930 . S
C771 C770 1.394 . S
C771 C772 1.383 . S
C771 H779 0.929 . S
C772 C771 1.383 . S
C772 C773 1.377 . S
C773 H757 0.930 . S
C773 C772 1.377 . S
C773 C774 1.379 . S
C774 H758 0.931 . S
C774 C768 1.383 . S
C774 C773 1.379 . S
H775 C769 0.959 . S
H776 C769 0.961 . S
H777 C769 0.960 . S
H778 C770 0.930 . S
H779 C771 0.929 . S
H780 C788 0.929 . S
H781 C790 0.930 . S
H782 C792 0.930 . S
H783 C795 0.929 . S
H784 C798 0.930 . S
H785 C800 0.960 . S
H786 C800 0.960 . S
H787 C800 0.960 . S
C788 H780 0.929 . S
C788 C789 1.377 . S
C788 C790 1.384 . S
C789 C788 1.377 . S
C789 C795 1.390 . S
C790 H781 0.930 . S
C790 C788 1.384 . S
C790 C791 1.372 . S
C791 C790 1.372 . S
C791 C792 1.400 . S
C791 C796 1.490 . S
C792 H782 0.930 . S
C792 C791 1.400 . S
C792 C795 1.386 . S
H793 C809 0.930 . S
H794 C810 0.931 . S
C795 H783 0.929 . S
C795 C789 1.390 . S
C795 C792 1.386 . S
C796 C791 1.490 . S
C796 C798 1.395 . S
C796 C799 1.403 . S
H797 C803 0.930 . S
C798 H784 0.930 . S
C798 C796 1.395 . S
C798 C801 1.403 . S
C799 C796 1.403 . S
C799 C800 1.524 . S
C799 C803 1.400 . S
C800 H785 0.960 . S
C800 H786 0.960 . S
C800 H787 0.960 . S
C800 C799 1.524 . S
C801 C798 1.403 . S
C801 C802 1.392 . S
C801 C805 1.495 . S
C802 C801 1.392 . S
C802 C803 1.385 . S
C802 C804 1.478 . S
C803 H797 0.930 . S
C803 C799 1.400 . S
C803 C802 1.385 . S
C804 C802 1.478 . S
C804 C806 1.381 . S
C804 C810 1.383 . S
C805 C801 1.495 . S
C805 H811 0.959 . S
C805 H812 0.961 . S
C805 H813 0.960 . S
C806 C804 1.381 . S
C806 C807 1.394 . S
C806 H814 0.930 . S
C807 C806 1.394 . S
C807 C808 1.383 . S
C807 H815 0.929 . S
C808 C807 1.383 . S
C808 C809 1.377 . S
C809 H793 0.930 . S
C809 C808 1.377 . S
C809 C810 1.379 . S
C810 H794 0.931 . S
C810 C804 1.383 . S
C810 C809 1.379 . S
H811 C805 0.959 . S
H812 C805 0.961 . S
H813 C805 0.960 . S
H814 C806 0.930 . S
H815 C807 0.929 . S
H816 C824 0.929 . S
H817 C826 0.930 . S
H818 C828 0.930 . S
H819 C831 0.929 . S
H820 C834 0.930 . S
H821 C836 0.960 . S
H822 C836 0.960 . S
H823 C836 0.960 . S
C824 H816 0.929 . S
C824 C825 1.377 . S
C824 C826 1.384 . S
C825 C824 1.377 . S
C825 C831 1.390 . S
C826 H817 0.930 . S
C826 C824 1.384 . S
C826 C827 1.372 . S
C827 C826 1.372 . S
C827 C828 1.400 . S
C827 C832 1.490 . S
C828 H818 0.930 . S
C828 C827 1.400 . S
C828 C831 1.386 . S
H829 C845 0.930 . S
H830 C846 0.931 . S
C831 H819 0.929 . S
C831 C825 1.390 . S
C831 C828 1.386 . S
C832 C827 1.490 . S
C832 C834 1.395 . S
C832 C835 1.403 . S
H833 C839 0.930 . S
C834 H820 0.930 . S
C834 C832 1.395 . S
C834 C837 1.403 . S
C835 C832 1.403 . S
C835 C836 1.524 . S
C835 C839 1.400 . S
C836 H821 0.960 . S
C836 H822 0.960 . S
C836 H823 0.960 . S
C836 C835 1.524 . S
C837 C834 1.403 . S
C837 C838 1.392 . S
C837 C841 1.495 . S
C838 C837 1.392 . S
C838 C839 1.385 . S
C838 C840 1.478 . S
C839 H833 0.930 . S
C839 C835 1.400 . S
C839 C838 1.385 . S
C840 C838 1.478 . S
C840 C842 1.381 . S
C840 C846 1.383 . S
C841 C837 1.495 . S
C841 H847 0.959 . S
C841 H848 0.961 . S
C841 H849 0.960 . S
C842 C840 1.381 . S
C842 C843 1.394 . S
C842 H850 0.930 . S
C843 C842 1.394 . S
C843 C844 1.383 . S
C843 H851 0.929 . S
C844 C843 1.383 . S
C844 C845 1.377 . S
C845 H829 0.930 . S
C845 C844 1.377 . S
C845 C846 1.379 . S
C846 H830 0.931 . S
C846 C840 1.383 . S
C846 C845 1.379 . S
H847 C841 0.959 . S
H848 C841 0.961 . S
H849 C841 0.960 . S
H850 C842 0.930 . S
H851 C843 0.929 . S
H852 C860 0.929 . S
H853 C862 0.930 . S
H854 C864 0.930 . S
H855 C867 0.929 . S
H856 C870 0.930 . S
H857 C872 0.960 . S
H858 C872 0.960 . S
H859 C872 0.960 . S
C860 H852 0.929 . S
C860 C861 1.377 . S
C860 C862 1.384 . S
C861 C860 1.377 . S
C861 C867 1.390 . S
C862 H853 0.930 . S
C862 C860 1.384 . S
C862 C863 1.372 . S
C863 C862 1.372 . S
C863 C864 1.400 . S
C863 C868 1.490 . S
C864 H854 0.930 . S
C864 C863 1.400 . S
C864 C867 1.386 . S
H865 C881 0.930 . S
H866 C882 0.931 . S
C867 H855 0.929 . S
C867 C861 1.390 . S
C867 C864 1.386 . S
C868 C863 1.490 . S
C868 C870 1.395 . S
C868 C871 1.403 . S
H869 C875 0.930 . S
C870 H856 0.930 . S
C870 C868 1.395 . S
C870 C873 1.403 . S
C871 C868 1.403 . S
C871 C872 1.524 . S
C871 C875 1.400 . S
C872 H857 0.960 . S
C872 H858 0.960 . S
C872 H859 0.960 . S
C872 C871 1.524 . S
C873 C870 1.403 . S
C873 C874 1.392 . S
C873 C877 1.495 . S
C874 C873 1.392 . S
C874 C875 1.385 . S
C874 C876 1.478 . S
C875 H869 0.930 . S
C875 C871 1.400 . S
C875 C874 1.385 . S
C876 C874 1.478 . S
C876 C878 1.381 . S
C876 C882 1.383 . S
C877 C873 1.495 . S
C877 H883 0.959 . S
C877 H884 0.961 . S
C877 H885 0.960 . S
C878 C876 1.381 . S
C878 C879 1.394 . S
C878 H886 0.930 . S
C879 C878 1.394 . S
C879 C880 1.383 . S
C879 H887 0.929 . S
C880 C879 1.383 . S
C880 C881 1.377 . S
C881 H865 0.930 . S
C881 C880 1.377 . S
C881 C882 1.379 . S
C882 H866 0.931 . S
C882 C876 1.383 . S
C882 C881 1.379 . S
H883 C877 0.959 . S
H884 C877 0.961 . S
H885 C877 0.960 . S
H886 C878 0.930 . S
H887 C879 0.929 . S
C249 C213 1.343 . S
C268 C2 1.326 . S
C285 C13 1.346 . S
C304 C42 1.313 . S
C321 C53 1.345 . S
C340 C82 1.330 . S
C357 C93 1.346 . S
C376 C122 1.302 . S
C393 C162 1.329 . S
C412 C133 1.337 . S
C429 C202 1.327 . S
C448 C173 1.335 . S
C465 C17 1.169 . S
C484 C26 1.134 . S
C501 C57 1.168 . S
C520 C66 1.181 . S
C537 C97 1.172 . S
C556 C106 1.137 . S
C573 C137 1.177 . S
C592 C146 1.151 . S
C609 C186 1.170 . S
C628 C177 1.194 . S
C645 C217 1.174 . S
C664 C226 1.205 . S
C681 C23 1.569 . S
C700 C184 1.568 . S
C717 C63 1.569 . S
C736 C224 1.566 . S
C753 C24 1.558 . S
C772 C103 1.576 . S
C789 C64 1.562 . S
C808 C143 1.562 . S
C825 C183 1.570 . S
C844 C104 1.560 . S
C861 C144 1.562 . S
C880 C223 1.562 . S
