# Generated by pormake.
# Topology uol, (4)-cn, num edge types: 1
# Building blocks:
#     Node 0, Type 0, BuildingBlock: ESEHIV_clean_sbu_0, # of connection points: 4
#     Node 1, Type 0, BuildingBlock: ESEHIV_clean_sbu_0, # of connection points: 4
#     Node 2, Type 0, BuildingBlock: ESEHIV_clean_sbu_0, # of connection points: 4
#     Node 3, Type 0, BuildingBlock: ESEHIV_clean_sbu_0, # of connection points: 4
#     Node 4, Type 0, BuildingBlock: ESEHIV_clean_sbu_0, # of connection points: 4
#     Node 5, Type 0, BuildingBlock: ESEHIV_clean_sbu_0, # of connection points: 4
#     Node 6, Type 0, BuildingBlock: ESEHIV_clean_sbu_0, # of connection points: 4
#     Node 7, Type 0, BuildingBlock: ESEHIV_clean_sbu_0, # of connection points: 4
#     Node 8, Type 0, BuildingBlock: ESEHIV_clean_sbu_0, # of connection points: 4
#     Node 9, Type 0, BuildingBlock: ESEHIV_clean_sbu_0, # of connection points: 4
#     Node 10, Type 0, BuildingBlock: ESEHIV_clean_sbu_0, # of connection points: 4
#     Node 11, Type 0, BuildingBlock: ESEHIV_clean_sbu_0, # of connection points: 4
#     Edge 12, Type (0, 0), BuildingBlock: KIFKEQ_clean_linker_1, # of connection points: 2
#     Edge 13, Type (0, 0), BuildingBlock: KIFKEQ_clean_linker_1, # of connection points: 2
#     Edge 14, Type (0, 0), BuildingBlock: KIFKEQ_clean_linker_1, # of connection points: 2
#     Edge 15, Type (0, 0), BuildingBlock: KIFKEQ_clean_linker_1, # of connection points: 2
#     Edge 16, Type (0, 0), BuildingBlock: KIFKEQ_clean_linker_1, # of connection points: 2
#     Edge 17, Type (0, 0), BuildingBlock: KIFKEQ_clean_linker_1, # of connection points: 2
#     Edge 18, Type (0, 0), BuildingBlock: KIFKEQ_clean_linker_1, # of connection points: 2
#     Edge 19, Type (0, 0), BuildingBlock: KIFKEQ_clean_linker_1, # of connection points: 2
#     Edge 20, Type (0, 0), BuildingBlock: KIFKEQ_clean_linker_1, # of connection points: 2
#     Edge 21, Type (0, 0), BuildingBlock: KIFKEQ_clean_linker_1, # of connection points: 2
#     Edge 22, Type (0, 0), BuildingBlock: KIFKEQ_clean_linker_1, # of connection points: 2
#     Edge 23, Type (0, 0), BuildingBlock: KIFKEQ_clean_linker_1, # of connection points: 2
#     Edge 24, Type (0, 0), BuildingBlock: KIFKEQ_clean_linker_1, # of connection points: 2
#     Edge 25, Type (0, 0), BuildingBlock: KIFKEQ_clean_linker_1, # of connection points: 2
#     Edge 26, Type (0, 0), BuildingBlock: KIFKEQ_clean_linker_1, # of connection points: 2
#     Edge 27, Type (0, 0), BuildingBlock: KIFKEQ_clean_linker_1, # of connection points: 2
#     Edge 28, Type (0, 0), BuildingBlock: KIFKEQ_clean_linker_1, # of connection points: 2
#     Edge 29, Type (0, 0), BuildingBlock: KIFKEQ_clean_linker_1, # of connection points: 2
#     Edge 30, Type (0, 0), BuildingBlock: KIFKEQ_clean_linker_1, # of connection points: 2
#     Edge 31, Type (0, 0), BuildingBlock: KIFKEQ_clean_linker_1, # of connection points: 2
#     Edge 32, Type (0, 0), BuildingBlock: KIFKEQ_clean_linker_1, # of connection points: 2
#     Edge 33, Type (0, 0), BuildingBlock: KIFKEQ_clean_linker_1, # of connection points: 2
#     Edge 34, Type (0, 0), BuildingBlock: KIFKEQ_clean_linker_1, # of connection points: 2
#     Edge 35, Type (0, 0), BuildingBlock: KIFKEQ_clean_linker_1, # of connection points: 2
# Relax obj value: 0.152
# Max RMSD: 0.225
# Mean RMSD: 0.225
data_MOF--net-uol--node1-ESEHIV_clean_sbu_0--edge1-KIFKEQ_clean_linker_1
_symmetry_space_group_name_H-M    P1
_symmetry_Int_Tables_number       1
_symmetry_cell_setting            triclinic
loop_
_symmetry_equiv_pos_as_xyz
'x, y, z'
_cell_length_a     39.343615
_cell_length_b     39.505946
_cell_length_c     57.417384
_cell_angle_alpha  90.113863
_cell_angle_beta   90.208312
_cell_angle_gamma 119.88262
loop_
_atom_site_label
_atom_site_type_symbol
_atom_site_fract_x
_atom_site_fract_y
_atom_site_fract_z
_atom_type_partial_charge
Cu0 Cu 0.1656 0.35411 0.10255 0.0
N1 N 0.20595 0.37025 0.1244 0.0
N2 N 0.24974 0.36659 0.14757 0.0
C3 C 0.22226 0.3488 0.13082 0.0
C4 C 0.25068 0.40066 0.15189 0.0
C5 C 0.22366 0.40289 0.1375 0.0
O6 O 0.17816 0.32881 0.07745 0.0
C7 C 0.08386 0.31332 0.11504 0.0
O8 O 0.07931 0.33425 0.09888 0.0
H9 H 0.21332 0.32016 0.1237 0.0
H10 H 0.2172 0.42645 0.13682 0.0
N11 N 0.16258 0.39675 0.09068 0.0
N12 N 0.15915 0.45153 0.0874 0.0
C13 C 0.15999 0.42523 0.10217 0.0
C14 C 0.1632 0.40518 0.06796 0.0
C15 C 0.16115 0.43881 0.06587 0.0
C16 C 0.2121 0.34756 0.06837 0.0
O17 O 0.23598 0.38345 0.07547 0.0
H18 H 0.15845 0.42641 0.12094 0.0
H19 H 0.1654 0.38818 0.05387 0.0
O20 O 0.11761 0.3172 0.11843 0.0
H21 H 0.26958 0.42245 0.16447 0.0
H22 H 0.16199 0.4532 0.04969 0.0
Cu23 Cu 0.83669 0.16508 0.27644 0.0
N24 N 0.86552 0.20301 0.29883 0.0
N25 N 0.91681 0.24498 0.3205 0.0
C26 C 0.90252 0.21444 0.3055 0.0
C27 C 0.88728 0.25277 0.32336 0.0
C28 C 0.85578 0.22693 0.30993 0.0
O29 O 0.87372 0.17441 0.25146 0.0
C30 C 0.80044 0.10655 0.31009 0.0
O31 O 0.79587 0.13388 0.32021 0.0
H32 H 0.9186 0.20071 0.29917 0.0
H33 H 0.8281 0.22626 0.30791 0.0
N34 N 0.79628 0.17307 0.26552 0.0
N35 N 0.73943 0.17276 0.26141 0.0
C36 C 0.75882 0.15738 0.27278 0.0
C37 C 0.80075 0.19935 0.24923 0.0
C38 C 0.7659 0.19914 0.24658 0.0
C39 C 0.86516 0.16633 0.23001 0.0
O40 O 0.82817 0.14708 0.22356 0.0
H41 H 0.74624 0.1355 0.28626 0.0
H42 H 0.82789 0.21809 0.24028 0.0
O43 O 0.81688 0.11353 0.29024 0.0
H44 H 0.8886 0.27624 0.33379 0.0
H45 H 0.76098 0.21811 0.2352 0.0
Cu46 Cu 0.68705 0.82534 0.44931 0.0
N47 N 0.67402 0.85128 0.47147 0.0
N48 N 0.68038 0.90079 0.49353 0.0
C49 C 0.69634 0.8894 0.47664 0.0
C50 C 0.6466 0.8683 0.49925 0.0
C51 C 0.6427 0.83776 0.48553 0.0
O52 O 0.71586 0.86529 0.426 0.0
C53 C 0.72595 0.78103 0.45963 0.0
O54 O 0.7086 0.75998 0.44101 0.0
H55 H 0.72425 0.90818 0.46844 0.0
H56 H 0.61889 0.80787 0.48582 0.0
N57 N 0.64089 0.78361 0.43694 0.0
N58 N 0.58594 0.7259 0.43225 0.0
C59 C 0.61867 0.74709 0.4453 0.0
C60 C 0.62128 0.78568 0.41827 0.0
C61 C 0.58767 0.75023 0.41524 0.0
C62 C 0.71872 0.8617 0.40417 0.0
O63 O 0.70331 0.82672 0.39482 0.0
H64 H 0.62621 0.73648 0.46073 0.0
H65 H 0.63028 0.8116 0.40793 0.0
O66 O 0.72041 0.80911 0.46516 0.0
H67 H 0.62605 0.86672 0.51228 0.0
H68 H 0.56551 0.74341 0.402 0.0
Cu69 Cu 0.8776 0.6737 0.61733 0.0
N70 N 0.8397 0.66214 0.63997 0.0
N71 N 0.79925 0.67023 0.66358 0.0
C72 C 0.82446 0.6849 0.6456 0.0
C73 C 0.79866 0.63685 0.66947 0.0
C74 C 0.82364 0.6319 0.65481 0.0
O75 O 0.86535 0.69999 0.59275 0.0
C76 C 0.96161 0.71574 0.62577 0.0
O77 O 0.9654 0.70014 0.60643 0.0
H78 H 0.8328 0.71237 0.63712 0.0
H79 H 0.83014 0.60833 0.65518 0.0
N80 N 0.87334 0.62702 0.6063 0.0
N81 N 0.87776 0.57282 0.60235 0.0
C82 C 0.89064 0.60696 0.61407 0.0
C83 C 0.84856 0.60476 0.58937 0.0
C84 C 0.85127 0.57158 0.58683 0.0
C85 C 0.87317 0.70099 0.57118 0.0
O86 O 0.89415 0.68559 0.56396 0.0
H87 H 0.91181 0.61705 0.62816 0.0
H88 H 0.82905 0.61177 0.57991 0.0
O89 O 0.92766 0.70803 0.63235 0.0
H90 H 0.78154 0.61745 0.68338 0.0
H91 H 0.83383 0.54772 0.575 0.0
Cu92 Cu 0.22926 0.87119 0.77888 0.0
N93 N 0.20684 0.83401 0.80224 0.0
N94 N 0.16144 0.7912 0.82639 0.0
C95 C 0.16864 0.81491 0.80794 0.0
C96 C 0.19662 0.79561 0.83252 0.0
C97 C 0.22458 0.82202 0.81753 0.0
O98 O 0.18821 0.85643 0.75547 0.0
C99 C 0.27355 0.95428 0.78796 0.0
O100 O 0.2961 0.95635 0.77057 0.0
H101 H 0.14681 0.81939 0.79915 0.0
H102 H 0.2557 0.83222 0.81795 0.0
N103 N 0.27195 0.8687 0.76646 0.0
N104 N 0.32977 0.87113 0.7627 0.0
C105 C 0.30795 0.8817 0.77575 0.0
C106 C 0.27102 0.84927 0.74699 0.0
C107 C 0.30654 0.85083 0.74457 0.0
C108 C 0.19264 0.86745 0.73434 0.0
O109 O 0.22765 0.89325 0.7269 0.0
H110 H 0.31733 0.89722 0.79218 0.0
H111 H 0.2458 0.83403 0.73565 0.0
O112 O 0.24415 0.92146 0.79324 0.0
H113 H 0.20182 0.78097 0.84684 0.0
H114 H 0.31447 0.83767 0.73061 0.0
Cu115 Cu 0.38749 0.21767 0.94273 0.0
N116 N 0.39649 0.19139 0.96674 0.0
N117 N 0.38894 0.14256 0.9898 0.0
C118 C 0.37476 0.15304 0.97139 0.0
C119 C 0.42102 0.17584 0.99688 0.0
C120 C 0.42561 0.20587 0.98259 0.0
O121 O 0.35964 0.17863 0.91856 0.0
C122 C 0.32599 0.21955 0.96679 0.0
O123 O 0.31377 0.18222 0.96954 0.0
H124 H 0.34864 0.13347 0.96163 0.0
H125 H 0.4486 0.2361 0.98361 0.0
N126 N 0.43607 0.25689 0.93183 0.0
N127 N 0.49211 0.3138 0.92802 0.0
C128 C 0.45669 0.29464 0.93856 0.0
C129 C 0.45918 0.25187 0.91669 0.0
C130 C 0.49357 0.28678 0.91424 0.0
C131 C 0.3606 0.1851 0.89679 0.0
O132 O 0.37933 0.22124 0.88925 0.0
H133 H 0.446 0.30752 0.95112 0.0
H134 H 0.45185 0.2244 0.90845 0.0
O135 O 0.35681 0.24016 0.9549 0.0
H136 H 0.44013 0.1784 1.01119 0.0
H137 H 0.51827 0.29139 0.90372 0.0
Cu138 Cu 0.69438 0.89971 0.78638 0.0
N139 N 0.67869 0.85877 0.76502 0.0
N140 N 0.68161 0.81401 0.74253 0.0
C141 C 0.70112 0.84411 0.75749 0.0
C142 C 0.64544 0.80965 0.74051 0.0
C143 C 0.64368 0.83719 0.75449 0.0
O144 O 0.71614 0.88658 0.8131 0.0
C145 C 0.72397 0.95657 0.7517 0.0
O146 O 0.68992 0.93208 0.74225 0.0
H147 H 0.73131 0.85555 0.76277 0.0
H148 H 0.61849 0.84086 0.75695 0.0
N149 N 0.6512 0.90318 0.79697 0.0
N150 N 0.59518 0.90494 0.79916 0.0
C151 C 0.62211 0.90402 0.7849 0.0
C152 C 0.64252 0.90378 0.81953 0.0
C153 C 0.60816 0.90483 0.82096 0.0
C154 C 0.75009 0.8901 0.81379 0.0
O155 O 0.77404 0.90654 0.79623 0.0
H156 H 0.62067 0.90375 0.76609 0.0
H157 H 0.6597 0.90276 0.83398 0.0
O158 O 0.73245 0.94847 0.77159 0.0
H159 H 0.6217 0.78763 0.73009 0.0
H160 H 0.59335 0.90427 0.83691 0.0
Cu161 Cu 0.82662 0.67817 0.94553 0.0
N162 N 0.8531 0.65959 0.92733 0.0
N163 N 0.90222 0.66153 0.90682 0.0
C164 C 0.88962 0.68219 0.91918 0.0
C165 C 0.87229 0.62434 0.90709 0.0
C166 C 0.84205 0.62318 0.91989 0.0
O167 O 0.86017 0.70344 0.97247 0.0
C168 C 0.80375 0.73454 0.93343 0.0
O169 O 0.7926 0.73173 0.95522 0.0
H170 H 0.90649 0.71337 0.92206 0.0
H171 H 0.81426 0.59755 0.92367 0.0
N172 N 0.7786 0.63747 0.95617 0.0
N173 N 0.72125 0.58178 0.9594 0.0
C174 C 0.75087 0.60532 0.945 0.0
C175 C 0.76581 0.63439 0.97816 0.0
C176 C 0.73063 0.60023 0.98023 0.0
C177 C 0.89027 0.73739 0.97188 0.0
O178 O 0.89751 0.75835 0.95289 0.0
H179 H 0.75287 0.59886 0.92691 0.0
H180 H 0.78136 0.65544 0.99185 0.0
O181 O 0.81878 0.71435 0.92642 0.0
H182 H 0.87253 0.59967 0.89901 0.0
H183 H 0.71331 0.58985 0.99591 0.0
Cu184 Cu 0.1696 0.80658 0.10936 0.0
N185 N 0.20729 0.82996 0.08614 0.0
N186 N 0.25092 0.87748 0.06331 0.0
C187 C 0.22472 0.86805 0.08068 0.0
C188 C 0.24981 0.84374 0.0576 0.0
C189 C 0.22291 0.81448 0.07176 0.0
O190 O 0.18513 0.84557 0.13417 0.0
C191 C 0.11075 0.81781 0.08822 0.0
O192 O 0.13634 0.85493 0.09149 0.0
H193 H 0.21777 0.88829 0.08919 0.0
H194 H 0.21541 0.78418 0.07159 0.0
N195 N 0.16876 0.76189 0.12116 0.0
N196 N 0.16508 0.70359 0.12442 0.0
C197 C 0.16468 0.73018 0.1097 0.0
C198 C 0.1716 0.75504 0.14381 0.0
C199 C 0.16948 0.71935 0.14588 0.0
C200 C 0.2195 0.85848 0.14253 0.0
O201 O 0.24062 0.84355 0.13477 0.0
H202 H 0.16089 0.72647 0.09102 0.0
H203 H 0.17505 0.77474 0.15789 0.0
O204 O 0.11878 0.79223 0.09565 0.0
H205 H 0.26742 0.84044 0.04433 0.0
H206 H 0.17165 0.70638 0.162 0.0
Cu207 Cu 0.38282 0.16223 0.27354 0.0
N208 N 0.39279 0.19974 0.25089 0.0
N209 N 0.38469 0.24045 0.2276 0.0
C210 C 0.36834 0.21242 0.24401 0.0
C211 C 0.42084 0.24549 0.22408 0.0
C212 C 0.42581 0.22046 0.23855 0.0
O213 O 0.35414 0.17146 0.29808 0.0
C214 C 0.36359 0.10372 0.24006 0.0
O215 O 0.39633 0.13121 0.23095 0.0
H216 H 0.33904 0.20104 0.25082 0.0
H217 H 0.45172 0.21767 0.24009 0.0
N218 N 0.43109 0.17075 0.28518 0.0
N219 N 0.48789 0.17113 0.28992 0.0
C220 C 0.45299 0.15483 0.27853 0.0
C221 C 0.45291 0.19806 0.30113 0.0
C222 C 0.4877 0.19828 0.30416 0.0
C223 C 0.35507 0.16406 0.31958 0.0
O224 O 0.37366 0.14573 0.32609 0.0
H225 H 0.44378 0.13222 0.26542 0.0
H226 H 0.44447 0.21731 0.30949 0.0
O227 O 0.35212 0.11055 0.25933 0.0
H228 H 0.44245 0.26627 0.21222 0.0
H229 H 0.51167 0.21813 0.31531 0.0
Cu230 Cu 0.24981 0.36156 0.4435 0.0
N231 N 0.23063 0.37659 0.41819 0.0
N232 N 0.1852 0.37291 0.39309 0.0
C233 C 0.19217 0.36237 0.41415 0.0
C234 C 0.221 0.39481 0.38351 0.0
C235 C 0.24894 0.39682 0.39898 0.0
O236 O 0.20781 0.34338 0.46638 0.0
C237 C 0.29123 0.32131 0.43119 0.0
O238 O 0.32195 0.35136 0.44059 0.0
H239 H 0.16964 0.34247 0.42589 0.0
H240 H 0.28006 0.41027 0.39586 0.0
N241 N 0.29595 0.40371 0.45589 0.0
N242 N 0.35305 0.45964 0.46017 0.0
C243 C 0.32319 0.43684 0.4455 0.0
C244 C 0.30901 0.4059 0.47784 0.0
C245 C 0.34405 0.44014 0.48052 0.0
C246 C 0.20364 0.32561 0.48555 0.0
O247 O 0.22995 0.31631 0.4921 0.0
H248 H 0.3216 0.44379 0.42749 0.0
H249 H 0.2942 0.38397 0.49103 0.0
O250 O 0.25804 0.31959 0.43197 0.0
H251 H 0.22668 0.40744 0.36628 0.0
H252 H 0.3613 0.45006 0.49637 0.0
Cu253 Cu 0.90524 0.23745 0.61349 0.0
N254 N 0.86893 0.21406 0.58944 0.0
N255 N 0.82503 0.16666 0.56637 0.0
C256 C 0.85198 0.17614 0.58347 0.0
C257 C 0.82526 0.20018 0.56135 0.0
C258 C 0.85228 0.22936 0.57571 0.0
O259 O 0.89095 0.19546 0.63587 0.0
C260 C 0.96874 0.27627 0.58264 0.0
O261 O 0.94542 0.28732 0.57317 0.0
H262 H 0.85936 0.15595 0.59162 0.0
H263 H 0.85882 0.25938 0.57639 0.0
N264 N 0.89878 0.27751 0.6266 0.0
N265 N 0.89729 0.3331 0.6319 0.0
C266 C 0.91224 0.31452 0.61928 0.0
C267 C 0.87441 0.27252 0.64427 0.0
C268 C 0.87356 0.30655 0.64765 0.0
C269 C 0.89737 0.19818 0.65773 0.0
O270 O 0.91834 0.23278 0.66738 0.0
H271 H 0.93178 0.32718 0.60468 0.0
H272 H 0.85708 0.24536 0.65345 0.0
O273 O 0.95761 0.25546 0.60097 0.0
H274 H 0.80658 0.20323 0.54865 0.0
H275 H 0.8552 0.31057 0.66004 0.0
H276 H 0.14074 0.6407 0.15272 0.0
H277 H 0.18248 0.6816 0.08323 0.0
H278 H 0.13822 0.57926 0.14392 0.0
H279 H 0.17973 0.61985 0.07438 0.0
H280 H 0.13326 0.48999 0.05985 0.0
H281 H 0.13364 0.55045 0.0686 0.0
H282 H 0.18217 0.55363 0.13668 0.0
H283 H 0.18199 0.49314 0.12788 0.0
C284 C 0.14966 0.6368 0.1356 0.0
C285 C 0.16208 0.66645 0.11875 0.0
C286 C 0.14819 0.60144 0.13055 0.0
C287 C 0.15896 0.59458 0.10849 0.0
C288 C 0.1708 0.62393 0.09149 0.0
C289 C 0.17235 0.6594 0.09656 0.0
C290 C 0.1443 0.50362 0.07664 0.0
C291 C 0.1578 0.48657 0.09309 0.0
C292 C 0.14452 0.5384 0.08165 0.0
C293 C 0.1581 0.5571 0.10331 0.0
C294 C 0.17106 0.53981 0.11992 0.0
C295 C 0.17092 0.50502 0.11488 0.0
H296 H 0.69312 0.18322 0.23057 0.0
H297 H 0.6956 0.14533 0.30074 0.0
H298 H 0.62978 0.1776 0.23788 0.0
H299 H 0.63111 0.13795 0.30777 0.0
H300 H 0.54588 0.18468 0.32068 0.0
H301 H 0.60413 0.17984 0.31359 0.0
H302 H 0.56142 0.1349 0.2445 0.0
H303 H 0.50383 0.14149 0.25126 0.0
C304 C 0.68006 0.1734 0.24754 0.0
C305 C 0.69992 0.16529 0.26515 0.0
C306 C 0.64332 0.16962 0.25164 0.0
C307 C 0.62521 0.15747 0.27347 0.0
C308 C 0.64438 0.14793 0.29085 0.0
C309 C 0.68125 0.15176 0.28674 0.0
C310 C 0.54885 0.17384 0.30394 0.0
C311 C 0.52025 0.16404 0.28644 0.0
C312 C 0.58213 0.17053 0.29997 0.0
C313 C 0.58777 0.15718 0.2784 0.0
C314 C 0.55842 0.14588 0.2612 0.0
C315 C 0.52508 0.14925 0.26517 0.0
H316 H 0.53762 0.6747 0.39964 0.0
H317 H 0.56224 0.68738 0.47344 0.0
H318 H 0.48209 0.60966 0.40594 0.0
H319 H 0.50629 0.62235 0.47988 0.0
H320 H 0.42439 0.49047 0.48104 0.0
H321 H 0.48176 0.55402 0.47408 0.0
H322 H 0.41736 0.57766 0.42165 0.0
H323 H 0.36006 0.51375 0.4285 0.0
C324 C 0.53105 0.6637 0.41726 0.0
C325 C 0.55436 0.68646 0.43604 0.0
C326 C 0.49907 0.62634 0.42089 0.0
C327 C 0.48933 0.61066 0.44345 0.0
C328 C 0.51309 0.63317 0.46222 0.0
C329 C 0.54525 0.67054 0.45855 0.0
C330 C 0.42234 0.50927 0.46811 0.0
C331 C 0.38742 0.49694 0.45541 0.0
C332 C 0.45533 0.54584 0.46413 0.0
C333 C 0.45434 0.57125 0.44736 0.0
C334 C 0.41951 0.55875 0.43448 0.0
C335 C 0.38654 0.52204 0.4384 0.0
H336 H 0.90859 0.55966 0.64168 0.0
H337 H 0.8696 0.51659 0.57183 0.0
H338 H 0.92045 0.5056 0.64882 0.0
H339 H 0.87924 0.46166 0.57936 0.0
H340 H 0.92126 0.37694 0.59232 0.0
H341 H 0.92366 0.43883 0.58534 0.0
H342 H 0.88412 0.43764 0.65559 0.0
H343 H 0.88398 0.37718 0.66297 0.0
C344 C 0.90274 0.53891 0.62778 0.0
C345 C 0.88761 0.54247 0.60625 0.0
C346 C 0.90913 0.50753 0.63197 0.0
C347 C 0.90049 0.47881 0.61477 0.0
C348 C 0.88665 0.4832 0.59301 0.0
C349 C 0.88049 0.51459 0.58879 0.0
C350 C 0.91382 0.39016 0.60645 0.0
C351 C 0.90191 0.37146 0.62815 0.0
C352 C 0.91473 0.42558 0.60234 0.0
C353 C 0.90362 0.44326 0.61978 0.0
C354 C 0.89319 0.4253 0.64174 0.0
C355 C 0.89252 0.39008 0.64588 0.0
H356 H 0.5525 0.92715 0.82574 0.0
H357 H 0.55493 0.88017 0.75814 0.0
H358 H 0.489 0.92005 0.8166 0.0
H359 H 0.49229 0.87509 0.7485 0.0
H360 H 0.35973 0.82514 0.75025 0.0
H361 H 0.42506 0.83593 0.75822 0.0
H362 H 0.45429 0.94349 0.79401 0.0
H363 H 0.38826 0.93211 0.78629 0.0
C364 C 0.53969 0.91545 0.80887 0.0
C365 C 0.55893 0.90378 0.79284 0.0
C366 C 0.50333 0.91188 0.80348 0.0
C367 C 0.48518 0.89676 0.78184 0.0
C368 C 0.50496 0.88622 0.76551 0.0
C369 C 0.54127 0.88961 0.77095 0.0
C370 C 0.38016 0.8513 0.75962 0.0
C371 C 0.36872 0.87783 0.76756 0.0
C372 C 0.4178 0.85759 0.76415 0.0
C373 C 0.44527 0.89074 0.77665 0.0
C374 C 0.43385 0.91736 0.78459 0.0
C375 C 0.39599 0.9109 0.78017 0.0
H376 H 0.50258 0.36086 0.96533 0.0
H377 H 0.55252 0.35819 0.89893 0.0
H378 H 0.55638 0.42686 0.97205 0.0
H379 H 0.60725 0.42335 0.90618 0.0
H380 H 0.68481 0.55497 0.91755 0.0
H381 H 0.6275 0.49129 0.90928 0.0
H382 H 0.62453 0.45897 0.9814 0.0
H383 H 0.68117 0.52241 0.9896 0.0
C384 C 0.52482 0.37427 0.95208 0.0
C385 C 0.52309 0.35376 0.93163 0.0
C386 C 0.55607 0.41209 0.95608 0.0
C387 C 0.58653 0.4305 0.93977 0.0
C388 C 0.5843 0.41037 0.91908 0.0
C389 C 0.55302 0.37262 0.91506 0.0
C390 C 0.67198 0.53419 0.93159 0.0
C391 C 0.68756 0.54403 0.95427 0.0
C392 C 0.63909 0.49762 0.92686 0.0
C393 C 0.62108 0.46988 0.94469 0.0
C394 C 0.63691 0.47976 0.96731 0.0
C395 C 0.66958 0.51627 0.97203 0.0
H396 H 0.40058 0.27223 0.18445 0.0
H397 H 0.32919 0.25487 0.2451 0.0
H398 H 0.3705 0.30582 0.16515 0.0
H399 H 0.29835 0.28751 0.22557 0.0
H400 H 0.27813 0.38086 0.1918 0.0
H401 H 0.3133 0.3525 0.21139 0.0
H402 H 0.30602 0.28848 0.14874 0.0
H403 H 0.27185 0.31754 0.12905 0.0
C404 C 0.37863 0.27574 0.19371 0.0
C405 C 0.36723 0.26073 0.2163 0.0
C406 C 0.36113 0.29468 0.18257 0.0
C407 C 0.33198 0.29927 0.1938 0.0
C408 C 0.32096 0.28476 0.21651 0.0
C409 C 0.3383 0.26562 0.2276 0.0
C410 C 0.2845 0.36113 0.18214 0.0
C411 C 0.27203 0.35132 0.1589 0.0
C412 C 0.30429 0.34458 0.19343 0.0
C413 C 0.31232 0.31811 0.18165 0.0
C414 C 0.30057 0.30898 0.15826 0.0
C415 C 0.2806 0.32532 0.14704 0.0
H416 H 0.94048 0.29252 0.35864 0.0
H417 H 0.98249 0.24533 0.30525 0.0
H418 H 1.00603 0.32777 0.3753 0.0
H419 H 0.04732 0.2787 0.32271 0.0
H420 H 0.16833 0.3685 0.34672 0.0
H421 H 0.10381 0.34097 0.32877 0.0
H422 H 0.05076 0.31636 0.39694 0.0
H423 H 0.11526 0.34586 0.41485 0.0
C424 C 0.96354 0.28958 0.35039 0.0
C425 C 0.95579 0.26579 0.33055 0.0
C426 C 1.00119 0.30953 0.36014 0.0
C427 C 1.03211 0.3061 0.35043 0.0
C428 C 1.02444 0.28254 0.33052 0.0
C429 C 0.98689 0.26279 0.32068 0.0
C430 C 0.14306 0.35793 0.35793 0.0
C431 C 0.14724 0.35918 0.38231 0.0
C432 C 0.10588 0.3416 0.3476 0.0
C433 C 0.07189 0.32597 0.36136 0.0
C434 C 0.07617 0.32831 0.38573 0.0
C435 C 0.1133 0.34483 0.39604 0.0
H436 H 0.79189 0.15008 0.52326 0.0
H437 H 0.8027 0.09639 0.5862 0.0
H438 H 0.75251 0.08567 0.50562 0.0
H439 H 0.76481 0.03231 0.5683 0.0
H440 H 0.66845 0.91978 0.53705 0.0
H441 H 0.6998 0.9847 0.55472 0.0
H442 H 0.76271 0.03402 0.49085 0.0
H443 H 0.7303 0.96957 0.47297 0.0
C444 C 0.78575 0.1246 0.53339 0.0
C445 C 0.80078 0.12855 0.55611 0.0
C446 C 0.76348 0.08766 0.5232 0.0
C447 C 0.75561 0.05377 0.5355 0.0
C448 C 0.76996 0.05771 0.55838 0.0
C449 C 0.79222 0.09459 0.56855 0.0
C450 C 0.68848 0.94454 0.52668 0.0
C451 C 0.69707 0.93933 0.50365 0.0
C452 C 0.70678 0.98173 0.53688 0.0
C453 C 0.734 1.01458 0.52426 0.0
C454 C 0.7417 1.00947 0.50103 0.0
C455 C 0.72346 0.97236 0.49086 0.0
H456 H 0.77679 0.66307 0.70877 0.0
H457 H 0.77614 0.71775 0.64386 0.0
H458 H 0.74555 0.69556 0.72805 0.0
H459 H 0.74587 0.751 0.66324 0.0
H460 H 0.65865 0.77624 0.70099 0.0
H461 H 0.68438 0.7384 0.68192 0.0
H462 H 0.76434 0.76279 0.73952 0.0
H463 H 0.73795 0.79967 0.75881 0.0
C464 C 0.76971 0.68175 0.69857 0.0
C465 C 0.77913 0.68793 0.67479 0.0
C466 C 0.75217 0.70069 0.70967 0.0
C467 C 0.74338 0.72602 0.69721 0.0
C468 C 0.75198 0.73148 0.67331 0.0
C469 C 0.76972 0.71274 0.66225 0.0
C470 C 0.68142 0.77317 0.70968 0.0
C471 C 0.69633 0.79113 0.73138 0.0
C472 C 0.69641 0.75179 0.69867 0.0
C473 C 0.72645 0.74762 0.70919 0.0
C474 C 0.74095 0.76512 0.73104 0.0
C475 C 0.72615 0.78668 0.74197 0.0
H476 H 0.91896 0.63469 0.86749 0.0
H477 H 0.97101 0.72251 0.92137 0.0
H478 H 0.98253 0.6625 0.84804 0.0
H479 H 1.0341 0.75067 0.90182 0.0
H480 H 0.14953 0.77163 0.87208 0.0
H481 H 0.08665 0.73617 0.89196 0.0
H482 H 1.02624 0.72393 0.82683 0.0
H483 H 0.08909 0.75862 0.80688 0.0
C484 C 0.94402 0.65969 0.87526 0.0
C485 C 0.93992 0.67656 0.89587 0.0
C486 C 0.98031 0.6758 0.86405 0.0
C487 C 1.01332 0.70882 0.87338 0.0
C488 C 1.00935 0.72503 0.89429 0.0
C489 C 0.97309 0.70917 0.90535 0.0
C490 C 0.12285 0.76086 0.86194 0.0
C491 C 0.12435 0.76818 0.83791 0.0
C492 C 0.08683 0.74084 0.87337 0.0
C493 C 0.05148 0.72742 0.86099 0.0
C494 C 0.05293 0.73365 0.83684 0.0
C495 C 0.08895 0.75391 0.82545 0.0
H496 H 0.28239 0.89389 1.01989 0.0
H497 H 0.27289 0.94788 0.08317 0.0
H498 H 0.3196 0.95807 1.00204 0.0
H499 H 0.30823 1.01158 0.06503 0.0
H500 H 0.40048 0.12461 0.03377 0.0
H501 H 0.37097 0.06024 0.05134 0.0
H502 H 0.30882 1.00867 0.98713 0.0
H503 H 0.33985 0.07273 0.96918 0.0
C504 C 0.28833 0.91936 0.03005 0.0
C505 C 0.27429 0.91552 0.05295 0.0
C506 C 0.30931 0.95619 1.01972 0.0
C507 C 0.31679 0.99009 0.03203 0.0
C508 C 0.30342 0.98625 0.05507 0.0
C509 C 0.28258 0.94952 0.06539 0.0
C510 C 0.38104 0.09959 1.02324 0.0
C511 C 0.37247 0.10417 1.00004 0.0
C512 C 0.36371 0.06259 0.03343 0.0
C513 C 0.33724 0.02918 1.02074 0.0
C514 C 0.32931 0.03364 0.9974 0.0
C515 C 0.34674 0.0706 0.98718 0.0
H516 H 0.28515 0.37833 0.04974 0.0
H517 H 0.17086 0.2746 0.04831 0.0
H518 H 0.31002 0.34731 1.02376 0.0
H519 H 0.19549 0.24376 1.02149 0.0
H520 H 0.26667 0.18566 0.99844 0.0
H521 H 0.2373 0.21639 1.02114 0.0
H522 H 0.30951 0.32525 0.9854 0.0
H523 H 0.33993 0.29471 0.96325 0.0
C524 C 0.2651 0.34901 0.04363 0.0
C525 C 0.22598 0.32894 0.05122 0.0
C526 C 0.27936 0.33125 0.02852 0.0
C527 C 0.25487 0.29293 1.02039 0.0
C528 C 0.21543 0.27309 0.02761 0.0
C529 C 0.20119 0.29084 0.04289 0.0
C530 C 0.27613 0.2161 0.99527 0.0
C531 C 0.30589 0.23776 0.97909 0.0
C532 C 0.25903 0.23372 1.00823 0.0
C533 C 0.27103 0.27346 1.00527 0.0
C534 C 0.29997 0.29479 0.98852 0.0
C535 C 0.31729 0.27722 0.97567 0.0
H536 H 0.9444 0.20756 0.23755 0.0
H537 H 0.85777 0.16266 0.18239 0.0
H538 H 0.99609 0.2397 0.20886 0.0
H539 H 0.90973 0.1944 0.15359 0.0
H540 H 1.00838 0.29974 0.11386 0.0
H541 H 0.95531 0.26071 0.14078 0.0
H542 H 1.03081 0.22856 0.1777 0.0
H543 H 0.08405 0.26807 0.15106 0.0
C544 C 0.93637 0.20408 0.21928 0.0
C545 C 0.89682 0.18258 0.21232 0.0
C546 C 0.96611 0.2224 0.20278 0.0
C547 C 0.95714 0.2198 0.17887 0.0
C548 C 0.91766 0.19746 0.17187 0.0
C549 C 0.88788 0.17901 0.18839 0.0
C550 C 1.01361 0.28413 0.12761 0.0
C551 C 0.05062 0.28729 0.13034 0.0
C552 C 0.98306 0.26154 0.14299 0.0
C553 C 0.98877 0.24157 0.16151 0.0
C554 C 1.02552 0.24398 0.16386 0.0
C555 C 0.05602 0.2665 0.14848 0.0
H556 H 0.81076 0.04524 0.29665 0.0
H557 H 0.76287 0.08336 0.35171 0.0
H558 H 0.79379 0.98581 0.3186 0.0
H559 H 0.74542 0.02415 0.37325 0.0
H560 H 0.75657 0.93784 0.41837 0.0
H561 H 0.77756 0.99584 0.39479 0.0
H562 H 0.73827 0.92441 0.33265 0.0
H563 H 0.71786 0.86603 0.35634 0.0
C564 C 0.79638 0.04086 0.31332 0.0
C565 C 0.78841 0.06925 0.32246 0.0
C566 C 0.78655 1.00674 0.32587 0.0
C567 C 0.76864 1.00034 0.34785 0.0
C568 C 0.75999 0.02843 0.35665 0.0
C569 C 0.76976 0.06236 0.34417 0.0
C570 C 0.7527 0.93438 0.39966 0.0
C571 C 0.73523 0.89713 0.3893 0.0
C572 C 0.7645 0.96772 0.38612 0.0
C573 C 0.75904 0.96484 0.36182 0.0
C574 C 0.74304 0.92775 0.3513 0.0
C575 C 0.73125 0.89426 0.3649 0.0
H576 H 0.82759 0.73367 0.58048 0.0
H577 H 0.8777 0.70204 0.52342 0.0
H578 H 0.79425 0.754 0.55291 0.0
H579 H 0.84477 0.72319 0.49572 0.0
H580 H 0.74105 0.72048 0.45516 0.0
H581 H 0.77899 0.70328 0.48146 0.0
H582 H 0.80539 0.80321 0.5246 0.0
H583 H 0.76696 0.81992 0.49868 0.0
C584 C 0.83189 0.73145 0.56204 0.0
C585 C 0.85538 0.71616 0.55421 0.0
C586 C 0.81286 0.74332 0.54618 0.0
C587 C 0.81674 0.74026 0.52203 0.0
C588 C 0.84072 0.72552 0.51418 0.0
C589 C 0.85986 0.71368 0.53008 0.0
C590 C 0.75509 0.73888 0.4702 0.0
C591 C 0.75069 0.77146 0.47483 0.0
C592 C 0.77707 0.72914 0.48523 0.0
C593 C 0.79515 0.75173 0.50526 0.0
C594 C 0.79137 0.78475 0.50958 0.0
C595 C 0.76944 0.79446 0.4946 0.0
H596 H 0.19242 0.87629 0.68688 0.0
H597 H 0.11632 0.81508 0.74456 0.0
H598 H 0.13725 0.84201 0.65991 0.0
H599 H 0.06163 0.7806 0.71769 0.0
H600 H 0.96303 0.75191 0.66668 0.0
H601 H 1.01888 0.79113 0.69198 0.0
H602 H 0.09478 0.77587 0.64421 0.0
H603 H 0.03877 0.73694 0.61857 0.0
C604 C 0.16394 0.85571 0.69384 0.0
C605 C 0.15887 0.84852 0.71792 0.0
C606 C 0.13238 0.83584 0.67835 0.0
C607 C 0.09496 0.8085 0.6866 0.0
C608 C 0.08986 0.80181 0.71072 0.0
C609 C 0.12136 0.8215 0.72615 0.0
C610 C 0.99161 0.75699 0.66145 0.0
C611 C 0.99629 0.74103 0.64059 0.0
C612 C 1.02367 0.77937 0.67606 0.0
C613 C 0.06134 0.78648 0.67025 0.0
C614 C 0.06625 0.77127 0.64914 0.0
C615 C 1.03408 0.74875 0.63449 0.0
H616 H 0.36205 0.18761 0.84901 0.0
H617 H 0.32189 0.10702 0.90669 0.0
H618 H 0.33865 0.13282 0.82179 0.0
H619 H 0.29928 0.05251 0.87959 0.0
H620 H 0.23281 0.95989 0.82492 0.0
H621 H 0.25086 1.01605 0.85011 0.0
H622 H 0.35545 0.0841 0.80954 0.0
H623 H 0.33698 0.02807 0.784 0.0
C624 C 0.34805 0.15824 0.8559 0.0
C625 C 0.34391 0.15181 0.88008 0.0
C626 C 0.33489 0.12681 0.84029 0.0
C627 C 0.31716 0.08816 0.84845 0.0
C628 C 0.3123 0.08177 0.87261 0.0
C629 C 0.32548 0.11314 0.8882 0.0
C630 C 0.25954 0.98689 0.82123 0.0
C631 C 0.28351 0.98933 0.80244 0.0
C632 C 0.27002 1.01909 0.83579 0.0
C633 C 0.30477 0.05463 0.832 0.0
C634 C 0.32827 0.05736 0.81287 0.0
C635 C 0.31778 0.02512 0.79827 0.0
H636 H 0.81813 0.88783 0.81951 0.0
H637 H 0.70592 0.85078 0.85164 0.0
H638 H 0.83323 0.85342 0.84938 0.0
H639 H 0.72066 0.81572 0.88117 0.0
H640 H 0.77168 0.78113 0.942 0.0
H641 H 0.76138 0.82222 0.91446 0.0
H642 H 0.81221 0.78672 0.85974 0.0
H643 H 0.82322 0.74639 0.88729 0.0
C644 C 0.79676 0.87256 0.83301 0.0
C645 C 0.76074 0.87201 0.83307 0.0
C646 C 0.8053 0.85256 0.85006 0.0
C647 C 0.77806 0.83148 0.86763 0.0
C648 C 0.74253 0.83192 0.86808 0.0
C649 C 0.73399 0.85191 0.85103 0.0
C650 C 0.78083 0.78223 0.92412 0.0
C651 C 0.79821 0.76034 0.91689 0.0
C652 C 0.77474 0.80567 0.90828 0.0
C653 C 0.78593 0.80785 0.88483 0.0
C654 C 0.80373 0.78627 0.87771 0.0
C655 C 0.80979 0.76286 0.89352 0.0
H656 H 0.88599 0.70038 1.01306 0.0
H657 H 0.96073 0.80531 0.97452 0.0
H658 H 0.93634 0.72035 0.0432 0.0
H659 H 1.01129 0.82479 1.00432 0.0
H660 H 0.08524 0.86509 0.06972 0.0
H661 H 1.02946 0.84679 0.04383 0.0
H662 H 0.99989 0.72597 0.04797 0.0
H663 H 0.05515 0.74417 0.07428 0.0
C664 C 0.91304 0.72784 1.01107 0.0
C665 C 0.91929 0.75117 0.99129 0.0
C666 C 0.94206 0.73916 0.02829 0.0
C667 C 0.97808 0.7741 1.02619 0.0
C668 C 0.98381 0.79794 1.00673 0.0
C669 C 0.9548 0.78665 0.98953 0.0
C670 C 0.06662 0.83455 0.06531 0.0
C671 C 0.07485 0.80614 0.07404 0.0
C672 C 1.03473 0.82408 0.05031 0.0
C673 C 1.01022 0.78491 0.04361 0.0
C674 C 1.0178 0.75636 0.05291 0.0
C675 C 0.04967 0.76683 0.06795 0.0
H676 H 0.18807 0.90188 0.16044 0.0
H677 H 0.29148 0.89008 0.16286 0.0
H678 H 0.22104 0.95977 0.18571 0.0
H679 H 0.32385 0.94716 0.1879 0.0
H680 H 0.38665 0.07787 0.20273 0.0
H681 H 0.34943 1.01748 0.18095 0.0
H682 H 0.25064 0.98325 0.22653 0.0
H683 H 0.28819 0.0444 0.24857 0.0
C684 C 0.21756 0.91131 0.16653 0.0
C685 C 0.23721 0.8915 0.15941 0.0
C686 C 0.23637 0.94435 0.18106 0.0
C687 C 0.27523 0.95831 0.18859 0.0
C688 C 0.29418 0.93761 0.18209 0.0
C689 C 0.27547 0.90471 0.16776 0.0
C690 C 0.35705 0.05755 0.20825 0.0
C691 C 0.3405 0.066 0.22749 0.0
C692 C 0.33573 0.02276 0.19578 0.0
C693 C 0.29713 0.99541 0.20207 0.0
C694 C 0.28027 1.00383 0.2212 0.0
C695 C 0.30186 0.0387 0.2339 0.0
H696 H 0.36476 0.16656 0.36695 0.0
H697 H 0.31117 0.19944 0.31233 0.0
H698 H 0.34564 0.19972 0.39556 0.0
H699 H 0.2922 0.23265 0.34094 0.0
H700 H 0.23876 0.26542 0.40112 0.0
H701 H 0.24999 0.22256 0.37544 0.0
H702 H 0.3666 0.26909 0.40398 0.0
H703 H 0.35543 0.3118 0.42965 0.0
C704 C 0.34848 0.18041 0.36105 0.0
C705 C 0.33968 0.18045 0.33729 0.0
C706 C 0.33773 0.19963 0.37746 0.0
C707 C 0.31758 0.21903 0.37054 0.0
C708 C 0.30741 0.21773 0.34691 0.0
C709 C 0.31846 0.19882 0.33047 0.0
C710 C 0.26661 0.26614 0.40216 0.0
C711 C 0.29625 0.2922 0.41742 0.0
C712 C 0.27312 0.24174 0.38732 0.0
C713 C 0.30925 0.2425 0.38758 0.0
C714 C 0.33831 0.26749 0.40347 0.0
C715 C 0.33195 0.29214 0.41812 0.0
H716 H 0.13739 0.32716 0.47339 0.0
H717 H 0.19256 0.30429 0.53169 0.0
H718 H 0.08235 0.31528 0.4978 0.0
H719 H 0.13788 0.29383 0.55659 0.0
H720 H 1.01355 0.24118 0.58833 0.0
H721 H 0.07047 0.25213 0.5655 0.0
H722 H 0.06516 0.34397 0.52776 0.0
H723 H 1.00765 0.33186 0.54982 0.0
C724 C 0.1379 0.31981 0.49151 0.0
C725 C 0.16954 0.31685 0.50058 0.0
C726 C 0.10636 0.31329 0.50563 0.0
C727 C 0.10567 0.30411 0.52938 0.0
C728 C 0.1371 0.30053 0.53839 0.0
C729 C 0.16858 0.30667 0.52413 0.0
C730 C 1.02481 0.2639 0.57527 0.0
C731 C 1.00583 0.28541 0.57076 0.0
C732 C 0.05756 0.27029 0.56219 0.0
C733 C 0.07231 0.2986 0.54445 0.0
C734 C 0.05414 0.32114 0.54074 0.0
C735 C 1.02125 0.31443 0.55357 0.0
H736 H 0.79844 1.01363 0.76464 0.0
H737 H 0.71237 0.98087 0.70961 0.0
H738 H 0.84381 0.0717 0.74251 0.0
H739 H 0.75699 0.03868 0.68793 0.0
H740 H 0.85557 0.12239 0.64299 0.0
H741 H 0.81685 0.0644 0.66629 0.0
H742 H 0.85332 0.13477 0.72889 0.0
H743 H 0.89297 0.19302 0.70551 0.0
C744 C 0.78914 1.01883 0.7479 0.0
C745 C 0.75178 0.99244 0.73889 0.0
C746 C 0.81508 0.05218 0.73526 0.0
C747 C 0.80425 0.05975 0.7133 0.0
C748 C 0.76674 0.03346 0.70451 0.0
C749 C 0.74095 1.00033 0.71708 0.0
C750 C 0.85573 0.12557 0.66174 0.0
C751 C 0.8772 0.16252 0.67233 0.0
C752 C 0.83326 0.09226 0.67512 0.0
C753 C 0.83141 0.0949 0.69948 0.0
C754 C 0.85417 0.1316 0.7102 0.0
C755 C 0.87682 0.16504 0.69677 0.0
loop_
_geom_bond_atom_site_label_1
_geom_bond_atom_site_label_2
_geom_bond_distance
_geom_bond_site_symmetry_2
_ccdc_geom_bond_type
Cu0 N1 1.999 . S
Cu0 O6 1.974 . S
Cu0 N11 1.985 . S
Cu0 O20 1.959 . S
N1 Cu0 1.999 . S
N1 C3 1.263 . S
N1 C5 1.389 . S
N2 C3 1.358 . S
N2 C4 1.400 . S
C3 N1 1.263 . S
C3 N2 1.358 . S
C3 H9 0.930 . S
C4 N2 1.400 . S
C4 C5 1.351 . S
C4 H21 0.930 . S
C5 N1 1.389 . S
C5 C4 1.351 . S
C5 H10 0.930 . S
O6 Cu0 1.974 . S
O6 C16 1.282 . S
C7 O8 1.261 . S
C7 O20 1.251 . S
O8 C7 1.261 . S
H9 C3 0.930 . S
H10 C5 0.930 . S
N11 Cu0 1.985 . S
N11 C13 1.335 . S
N11 C14 1.390 . S
N12 C13 1.345 . S
N12 C15 1.336 . S
C13 N11 1.335 . S
C13 N12 1.345 . S
C13 H18 0.930 . S
C14 N11 1.390 . S
C14 C15 1.346 . S
C14 H19 0.930 . S
C15 N12 1.336 . S
C15 C14 1.346 . S
C15 H22 0.929 . S
C16 O6 1.282 . S
C16 O17 1.216 . S
O17 C16 1.216 . S
H18 C13 0.930 . S
H19 C14 0.930 . S
O20 Cu0 1.959 . S
O20 C7 1.251 . S
H21 C4 0.930 . S
H22 C15 0.929 . S
Cu23 N24 1.999 . S
Cu23 O29 1.974 . S
Cu23 N34 1.985 . S
Cu23 O43 1.959 . S
N24 Cu23 1.999 . S
N24 C26 1.263 . S
N24 C28 1.389 . S
N25 C26 1.358 . S
N25 C27 1.400 . S
C26 N24 1.263 . S
C26 N25 1.358 . S
C26 H32 0.930 . S
C27 N25 1.400 . S
C27 C28 1.351 . S
C27 H44 0.930 . S
C28 N24 1.389 . S
C28 C27 1.351 . S
C28 H33 0.930 . S
O29 Cu23 1.974 . S
O29 C39 1.282 . S
C30 O31 1.261 . S
C30 O43 1.251 . S
O31 C30 1.261 . S
H32 C26 0.930 . S
H33 C28 0.930 . S
N34 Cu23 1.985 . S
N34 C36 1.335 . S
N34 C37 1.390 . S
N35 C36 1.345 . S
N35 C38 1.336 . S
C36 N34 1.335 . S
C36 N35 1.345 . S
C36 H41 0.930 . S
C37 N34 1.390 . S
C37 C38 1.346 . S
C37 H42 0.930 . S
C38 N35 1.336 . S
C38 C37 1.346 . S
C38 H45 0.929 . S
C39 O29 1.282 . S
C39 O40 1.216 . S
O40 C39 1.216 . S
H41 C36 0.930 . S
H42 C37 0.930 . S
O43 Cu23 1.959 . S
O43 C30 1.251 . S
H44 C27 0.930 . S
H45 C38 0.929 . S
Cu46 N47 1.999 . S
Cu46 O52 1.974 . S
Cu46 N57 1.985 . S
Cu46 O66 1.959 . S
N47 Cu46 1.999 . S
N47 C49 1.263 . S
N47 C51 1.389 . S
N48 C49 1.358 . S
N48 C50 1.400 . S
C49 N47 1.263 . S
C49 N48 1.358 . S
C49 H55 0.930 . S
C50 N48 1.400 . S
C50 C51 1.351 . S
C50 H67 0.930 . S
C51 N47 1.389 . S
C51 C50 1.351 . S
C51 H56 0.930 . S
O52 Cu46 1.974 . S
O52 C62 1.282 . S
C53 O54 1.261 . S
C53 O66 1.251 . S
O54 C53 1.261 . S
H55 C49 0.930 . S
H56 C51 0.930 . S
N57 Cu46 1.985 . S
N57 C59 1.335 . S
N57 C60 1.390 . S
N58 C59 1.345 . S
N58 C61 1.336 . S
C59 N57 1.335 . S
C59 N58 1.345 . S
C59 H64 0.930 . S
C60 N57 1.390 . S
C60 C61 1.346 . S
C60 H65 0.930 . S
C61 N58 1.336 . S
C61 C60 1.346 . S
C61 H68 0.929 . S
C62 O52 1.282 . S
C62 O63 1.216 . S
O63 C62 1.216 . S
H64 C59 0.930 . S
H65 C60 0.930 . S
O66 Cu46 1.959 . S
O66 C53 1.251 . S
H67 C50 0.930 . S
H68 C61 0.929 . S
Cu69 N70 1.999 . S
Cu69 O75 1.974 . S
Cu69 N80 1.985 . S
Cu69 O89 1.959 . S
N70 Cu69 1.999 . S
N70 C72 1.263 . S
N70 C74 1.389 . S
N71 C72 1.358 . S
N71 C73 1.400 . S
C72 N70 1.263 . S
C72 N71 1.358 . S
C72 H78 0.930 . S
C73 N71 1.400 . S
C73 C74 1.351 . S
C73 H90 0.930 . S
C74 N70 1.389 . S
C74 C73 1.351 . S
C74 H79 0.930 . S
O75 Cu69 1.974 . S
O75 C85 1.282 . S
C76 O77 1.261 . S
C76 O89 1.251 . S
O77 C76 1.261 . S
H78 C72 0.930 . S
H79 C74 0.930 . S
N80 Cu69 1.985 . S
N80 C82 1.335 . S
N80 C83 1.390 . S
N81 C82 1.345 . S
N81 C84 1.336 . S
C82 N80 1.335 . S
C82 N81 1.345 . S
C82 H87 0.930 . S
C83 N80 1.390 . S
C83 C84 1.346 . S
C83 H88 0.930 . S
C84 N81 1.336 . S
C84 C83 1.346 . S
C84 H91 0.929 . S
C85 O75 1.282 . S
C85 O86 1.216 . S
O86 C85 1.216 . S
H87 C82 0.930 . S
H88 C83 0.930 . S
O89 Cu69 1.959 . S
O89 C76 1.251 . S
H90 C73 0.930 . S
H91 C84 0.929 . S
Cu92 N93 1.999 . S
Cu92 O98 1.974 . S
Cu92 N103 1.985 . S
Cu92 O112 1.959 . S
N93 Cu92 1.999 . S
N93 C95 1.263 . S
N93 C97 1.389 . S
N94 C95 1.358 . S
N94 C96 1.400 . S
C95 N93 1.263 . S
C95 N94 1.358 . S
C95 H101 0.930 . S
C96 N94 1.400 . S
C96 C97 1.351 . S
C96 H113 0.930 . S
C97 N93 1.389 . S
C97 C96 1.351 . S
C97 H102 0.930 . S
O98 Cu92 1.974 . S
O98 C108 1.282 . S
C99 O100 1.261 . S
C99 O112 1.251 . S
O100 C99 1.261 . S
H101 C95 0.930 . S
H102 C97 0.930 . S
N103 Cu92 1.985 . S
N103 C105 1.335 . S
N103 C106 1.390 . S
N104 C105 1.345 . S
N104 C107 1.336 . S
C105 N103 1.335 . S
C105 N104 1.345 . S
C105 H110 0.930 . S
C106 N103 1.390 . S
C106 C107 1.346 . S
C106 H111 0.930 . S
C107 N104 1.336 . S
C107 C106 1.346 . S
C107 H114 0.929 . S
C108 O98 1.282 . S
C108 O109 1.216 . S
O109 C108 1.216 . S
H110 C105 0.930 . S
H111 C106 0.930 . S
O112 Cu92 1.959 . S
O112 C99 1.251 . S
H113 C96 0.930 . S
H114 C107 0.929 . S
Cu115 N116 1.999 . S
Cu115 O121 1.974 . S
Cu115 N126 1.985 . S
Cu115 O135 1.959 . S
N116 Cu115 1.999 . S
N116 C118 1.263 . S
N116 C120 1.389 . S
N117 C118 1.358 . S
N117 C119 1.400 . S
C118 N116 1.263 . S
C118 N117 1.358 . S
C118 H124 0.930 . S
C119 N117 1.400 . S
C119 C120 1.351 . S
C119 H136 0.930 . S
C120 N116 1.389 . S
C120 C119 1.351 . S
C120 H125 0.930 . S
O121 Cu115 1.974 . S
O121 C131 1.282 . S
C122 O123 1.261 . S
C122 O135 1.251 . S
O123 C122 1.261 . S
H124 C118 0.930 . S
H125 C120 0.930 . S
N126 Cu115 1.985 . S
N126 C128 1.335 . S
N126 C129 1.390 . S
N127 C128 1.345 . S
N127 C130 1.336 . S
C128 N126 1.335 . S
C128 N127 1.345 . S
C128 H133 0.930 . S
C129 N126 1.390 . S
C129 C130 1.346 . S
C129 H134 0.930 . S
C130 N127 1.336 . S
C130 C129 1.346 . S
C130 H137 0.929 . S
C131 O121 1.282 . S
C131 O132 1.216 . S
O132 C131 1.216 . S
H133 C128 0.930 . S
H134 C129 0.930 . S
O135 Cu115 1.959 . S
O135 C122 1.251 . S
H136 C119 0.930 . S
H137 C130 0.929 . S
Cu138 N139 1.999 . S
Cu138 O144 1.974 . S
Cu138 N149 1.985 . S
Cu138 O158 1.959 . S
N139 Cu138 1.999 . S
N139 C141 1.263 . S
N139 C143 1.389 . S
N140 C141 1.358 . S
N140 C142 1.400 . S
C141 N139 1.263 . S
C141 N140 1.358 . S
C141 H147 0.930 . S
C142 N140 1.400 . S
C142 C143 1.351 . S
C142 H159 0.930 . S
C143 N139 1.389 . S
C143 C142 1.351 . S
C143 H148 0.930 . S
O144 Cu138 1.974 . S
O144 C154 1.282 . S
C145 O146 1.261 . S
C145 O158 1.251 . S
O146 C145 1.261 . S
H147 C141 0.930 . S
H148 C143 0.930 . S
N149 Cu138 1.985 . S
N149 C151 1.335 . S
N149 C152 1.390 . S
N150 C151 1.345 . S
N150 C153 1.336 . S
C151 N149 1.335 . S
C151 N150 1.345 . S
C151 H156 0.930 . S
C152 N149 1.390 . S
C152 C153 1.346 . S
C152 H157 0.930 . S
C153 N150 1.336 . S
C153 C152 1.346 . S
C153 H160 0.929 . S
C154 O144 1.282 . S
C154 O155 1.216 . S
O155 C154 1.216 . S
H156 C151 0.930 . S
H157 C152 0.930 . S
O158 Cu138 1.959 . S
O158 C145 1.251 . S
H159 C142 0.930 . S
H160 C153 0.929 . S
Cu161 N162 1.999 . S
Cu161 O167 1.974 . S
Cu161 N172 1.985 . S
Cu161 O181 1.959 . S
N162 Cu161 1.999 . S
N162 C164 1.263 . S
N162 C166 1.389 . S
N163 C164 1.358 . S
N163 C165 1.400 . S
C164 N162 1.263 . S
C164 N163 1.358 . S
C164 H170 0.930 . S
C165 N163 1.400 . S
C165 C166 1.351 . S
C165 H182 0.930 . S
C166 N162 1.389 . S
C166 C165 1.351 . S
C166 H171 0.930 . S
O167 Cu161 1.974 . S
O167 C177 1.282 . S
C168 O169 1.261 . S
C168 O181 1.251 . S
O169 C168 1.261 . S
H170 C164 0.930 . S
H171 C166 0.930 . S
N172 Cu161 1.985 . S
N172 C174 1.335 . S
N172 C175 1.390 . S
N173 C174 1.345 . S
N173 C176 1.336 . S
C174 N172 1.335 . S
C174 N173 1.345 . S
C174 H179 0.930 . S
C175 N172 1.390 . S
C175 C176 1.346 . S
C175 H180 0.930 . S
C176 N173 1.336 . S
C176 C175 1.346 . S
C176 H183 0.929 . S
C177 O167 1.282 . S
C177 O178 1.216 . S
O178 C177 1.216 . S
H179 C174 0.930 . S
H180 C175 0.930 . S
O181 Cu161 1.959 . S
O181 C168 1.251 . S
H182 C165 0.930 . S
H183 C176 0.929 . S
Cu184 N185 1.999 . S
Cu184 O190 1.974 . S
Cu184 N195 1.985 . S
Cu184 O204 1.959 . S
N185 Cu184 1.999 . S
N185 C187 1.263 . S
N185 C189 1.389 . S
N186 C187 1.358 . S
N186 C188 1.400 . S
C187 N185 1.263 . S
C187 N186 1.358 . S
C187 H193 0.930 . S
C188 N186 1.400 . S
C188 C189 1.351 . S
C188 H205 0.930 . S
C189 N185 1.389 . S
C189 C188 1.351 . S
C189 H194 0.930 . S
O190 Cu184 1.974 . S
O190 C200 1.282 . S
C191 O192 1.261 . S
C191 O204 1.251 . S
O192 C191 1.261 . S
H193 C187 0.930 . S
H194 C189 0.930 . S
N195 Cu184 1.985 . S
N195 C197 1.335 . S
N195 C198 1.390 . S
N196 C197 1.345 . S
N196 C199 1.336 . S
C197 N195 1.335 . S
C197 N196 1.345 . S
C197 H202 0.930 . S
C198 N195 1.390 . S
C198 C199 1.346 . S
C198 H203 0.930 . S
C199 N196 1.336 . S
C199 C198 1.346 . S
C199 H206 0.929 . S
C200 O190 1.282 . S
C200 O201 1.216 . S
O201 C200 1.216 . S
H202 C197 0.930 . S
H203 C198 0.930 . S
O204 Cu184 1.959 . S
O204 C191 1.251 . S
H205 C188 0.930 . S
H206 C199 0.929 . S
Cu207 N208 1.999 . S
Cu207 O213 1.974 . S
Cu207 N218 1.985 . S
Cu207 O227 1.959 . S
N208 Cu207 1.999 . S
N208 C210 1.263 . S
N208 C212 1.389 . S
N209 C210 1.358 . S
N209 C211 1.400 . S
C210 N208 1.263 . S
C210 N209 1.358 . S
C210 H216 0.930 . S
C211 N209 1.400 . S
C211 C212 1.351 . S
C211 H228 0.930 . S
C212 N208 1.389 . S
C212 C211 1.351 . S
C212 H217 0.930 . S
O213 Cu207 1.974 . S
O213 C223 1.282 . S
C214 O215 1.261 . S
C214 O227 1.251 . S
O215 C214 1.261 . S
H216 C210 0.930 . S
H217 C212 0.930 . S
N218 Cu207 1.985 . S
N218 C220 1.335 . S
N218 C221 1.390 . S
N219 C220 1.345 . S
N219 C222 1.336 . S
C220 N218 1.335 . S
C220 N219 1.345 . S
C220 H225 0.930 . S
C221 N218 1.390 . S
C221 C222 1.346 . S
C221 H226 0.930 . S
C222 N219 1.336 . S
C222 C221 1.346 . S
C222 H229 0.929 . S
C223 O213 1.282 . S
C223 O224 1.216 . S
O224 C223 1.216 . S
H225 C220 0.930 . S
H226 C221 0.930 . S
O227 Cu207 1.959 . S
O227 C214 1.251 . S
H228 C211 0.930 . S
H229 C222 0.929 . S
Cu230 N231 1.999 . S
Cu230 O236 1.974 . S
Cu230 N241 1.985 . S
Cu230 O250 1.959 . S
N231 Cu230 1.999 . S
N231 C233 1.263 . S
N231 C235 1.389 . S
N232 C233 1.358 . S
N232 C234 1.400 . S
C233 N231 1.263 . S
C233 N232 1.358 . S
C233 H239 0.930 . S
C234 N232 1.400 . S
C234 C235 1.351 . S
C234 H251 0.930 . S
C235 N231 1.389 . S
C235 C234 1.351 . S
C235 H240 0.930 . S
O236 Cu230 1.974 . S
O236 C246 1.282 . S
C237 O238 1.261 . S
C237 O250 1.251 . S
O238 C237 1.261 . S
H239 C233 0.930 . S
H240 C235 0.930 . S
N241 Cu230 1.985 . S
N241 C243 1.335 . S
N241 C244 1.390 . S
N242 C243 1.345 . S
N242 C245 1.336 . S
C243 N241 1.335 . S
C243 N242 1.345 . S
C243 H248 0.930 . S
C244 N241 1.390 . S
C244 C245 1.346 . S
C244 H249 0.930 . S
C245 N242 1.336 . S
C245 C244 1.346 . S
C245 H252 0.929 . S
C246 O236 1.282 . S
C246 O247 1.216 . S
O247 C246 1.216 . S
H248 C243 0.930 . S
H249 C244 0.930 . S
O250 Cu230 1.959 . S
O250 C237 1.251 . S
H251 C234 0.930 . S
H252 C245 0.929 . S
Cu253 N254 1.999 . S
Cu253 O259 1.974 . S
Cu253 N264 1.985 . S
Cu253 O273 1.959 . S
N254 Cu253 1.999 . S
N254 C256 1.263 . S
N254 C258 1.389 . S
N255 C256 1.358 . S
N255 C257 1.400 . S
C256 N254 1.263 . S
C256 N255 1.358 . S
C256 H262 0.930 . S
C257 N255 1.400 . S
C257 C258 1.351 . S
C257 H274 0.930 . S
C258 N254 1.389 . S
C258 C257 1.351 . S
C258 H263 0.930 . S
O259 Cu253 1.974 . S
O259 C269 1.282 . S
C260 O261 1.261 . S
C260 O273 1.251 . S
O261 C260 1.261 . S
H262 C256 0.930 . S
H263 C258 0.930 . S
N264 Cu253 1.985 . S
N264 C266 1.335 . S
N264 C267 1.390 . S
N265 C266 1.345 . S
N265 C268 1.336 . S
C266 N264 1.335 . S
C266 N265 1.345 . S
C266 H271 0.930 . S
C267 N264 1.390 . S
C267 C268 1.346 . S
C267 H272 0.930 . S
C268 N265 1.336 . S
C268 C267 1.346 . S
C268 H275 0.929 . S
C269 O259 1.282 . S
C269 O270 1.216 . S
O270 C269 1.216 . S
H271 C266 0.930 . S
H272 C267 0.930 . S
O273 Cu253 1.959 . S
O273 C260 1.251 . S
H274 C257 0.930 . S
H275 C268 0.929 . S
H276 C284 0.950 . S
H277 C289 0.950 . S
H278 C286 0.950 . S
H279 C288 0.950 . S
H280 C290 0.950 . S
H281 C292 0.950 . S
H282 C294 0.950 . S
H283 C295 0.950 . S
C284 H276 0.950 . S
C284 C285 1.386 . S
C284 C286 1.391 . S
C285 C284 1.386 . S
C285 C289 1.393 . S
C286 H278 0.950 . S
C286 C284 1.391 . S
C286 C287 1.400 . S
C287 C286 1.400 . S
C287 C288 1.398 . S
C287 C293 1.491 . S
C288 H279 0.950 . S
C288 C287 1.398 . S
C288 C289 1.391 . S
C289 H277 0.950 . S
C289 C285 1.393 . S
C289 C288 1.391 . S
C290 H280 0.950 . S
C290 C291 1.386 . S
C290 C292 1.391 . S
C291 C290 1.386 . S
C291 C295 1.393 . S
C292 H281 0.950 . S
C292 C290 1.391 . S
C292 C293 1.400 . S
C293 C287 1.491 . S
C293 C292 1.400 . S
C293 C294 1.398 . S
C294 H282 0.950 . S
C294 C293 1.398 . S
C294 C295 1.391 . S
C295 H283 0.950 . S
C295 C291 1.393 . S
C295 C294 1.391 . S
H296 C304 0.950 . S
H297 C309 0.950 . S
H298 C306 0.950 . S
H299 C308 0.950 . S
H300 C310 0.950 . S
H301 C312 0.950 . S
H302 C314 0.950 . S
H303 C315 0.950 . S
C304 H296 0.950 . S
C304 C305 1.386 . S
C304 C306 1.391 . S
C305 C304 1.386 . S
C305 C309 1.393 . S
C306 H298 0.950 . S
C306 C304 1.391 . S
C306 C307 1.400 . S
C307 C306 1.400 . S
C307 C308 1.398 . S
C307 C313 1.491 . S
C308 H299 0.950 . S
C308 C307 1.398 . S
C308 C309 1.391 . S
C309 H297 0.950 . S
C309 C305 1.393 . S
C309 C308 1.391 . S
C310 H300 0.950 . S
C310 C311 1.386 . S
C310 C312 1.391 . S
C311 C310 1.386 . S
C311 C315 1.393 . S
C312 H301 0.950 . S
C312 C310 1.391 . S
C312 C313 1.400 . S
C313 C307 1.491 . S
C313 C312 1.400 . S
C313 C314 1.398 . S
C314 H302 0.950 . S
C314 C313 1.398 . S
C314 C315 1.391 . S
C315 H303 0.950 . S
C315 C311 1.393 . S
C315 C314 1.391 . S
H316 C324 0.950 . S
H317 C329 0.950 . S
H318 C326 0.950 . S
H319 C328 0.950 . S
H320 C330 0.950 . S
H321 C332 0.950 . S
H322 C334 0.950 . S
H323 C335 0.950 . S
C324 H316 0.950 . S
C324 C325 1.386 . S
C324 C326 1.391 . S
C325 C324 1.386 . S
C325 C329 1.393 . S
C326 H318 0.950 . S
C326 C324 1.391 . S
C326 C327 1.400 . S
C327 C326 1.400 . S
C327 C328 1.398 . S
C327 C333 1.491 . S
C328 H319 0.950 . S
C328 C327 1.398 . S
C328 C329 1.391 . S
C329 H317 0.950 . S
C329 C325 1.393 . S
C329 C328 1.391 . S
C330 H320 0.950 . S
C330 C331 1.386 . S
C330 C332 1.391 . S
C331 C330 1.386 . S
C331 C335 1.393 . S
C332 H321 0.950 . S
C332 C330 1.391 . S
C332 C333 1.400 . S
C333 C327 1.491 . S
C333 C332 1.400 . S
C333 C334 1.398 . S
C334 H322 0.950 . S
C334 C333 1.398 . S
C334 C335 1.391 . S
C335 H323 0.950 . S
C335 C331 1.393 . S
C335 C334 1.391 . S
H336 C344 0.950 . S
H337 C349 0.950 . S
H338 C346 0.950 . S
H339 C348 0.950 . S
H340 C350 0.950 . S
H341 C352 0.950 . S
H342 C354 0.950 . S
H343 C355 0.950 . S
C344 H336 0.950 . S
C344 C345 1.386 . S
C344 C346 1.391 . S
C345 C344 1.386 . S
C345 C349 1.393 . S
C346 H338 0.950 . S
C346 C344 1.391 . S
C346 C347 1.400 . S
C347 C346 1.400 . S
C347 C348 1.398 . S
C347 C353 1.491 . S
C348 H339 0.950 . S
C348 C347 1.398 . S
C348 C349 1.391 . S
C349 H337 0.950 . S
C349 C345 1.393 . S
C349 C348 1.391 . S
C350 H340 0.950 . S
C350 C351 1.386 . S
C350 C352 1.391 . S
C351 C350 1.386 . S
C351 C355 1.393 . S
C352 H341 0.950 . S
C352 C350 1.391 . S
C352 C353 1.400 . S
C353 C347 1.491 . S
C353 C352 1.400 . S
C353 C354 1.398 . S
C354 H342 0.950 . S
C354 C353 1.398 . S
C354 C355 1.391 . S
C355 H343 0.950 . S
C355 C351 1.393 . S
C355 C354 1.391 . S
H356 C364 0.950 . S
H357 C369 0.950 . S
H358 C366 0.950 . S
H359 C368 0.950 . S
H360 C370 0.950 . S
H361 C372 0.950 . S
H362 C374 0.950 . S
H363 C375 0.950 . S
C364 H356 0.950 . S
C364 C365 1.386 . S
C364 C366 1.391 . S
C365 C364 1.386 . S
C365 C369 1.393 . S
C366 H358 0.950 . S
C366 C364 1.391 . S
C366 C367 1.400 . S
C367 C366 1.400 . S
C367 C368 1.398 . S
C367 C373 1.491 . S
C368 H359 0.950 . S
C368 C367 1.398 . S
C368 C369 1.391 . S
C369 H357 0.950 . S
C369 C365 1.393 . S
C369 C368 1.391 . S
C370 H360 0.950 . S
C370 C371 1.386 . S
C370 C372 1.391 . S
C371 C370 1.386 . S
C371 C375 1.393 . S
C372 H361 0.950 . S
C372 C370 1.391 . S
C372 C373 1.400 . S
C373 C367 1.491 . S
C373 C372 1.400 . S
C373 C374 1.398 . S
C374 H362 0.950 . S
C374 C373 1.398 . S
C374 C375 1.391 . S
C375 H363 0.950 . S
C375 C371 1.393 . S
C375 C374 1.391 . S
H376 C384 0.950 . S
H377 C389 0.950 . S
H378 C386 0.950 . S
H379 C388 0.950 . S
H380 C390 0.950 . S
H381 C392 0.950 . S
H382 C394 0.950 . S
H383 C395 0.950 . S
C384 H376 0.950 . S
C384 C385 1.386 . S
C384 C386 1.391 . S
C385 C384 1.386 . S
C385 C389 1.393 . S
C386 H378 0.950 . S
C386 C384 1.391 . S
C386 C387 1.400 . S
C387 C386 1.400 . S
C387 C388 1.398 . S
C387 C393 1.491 . S
C388 H379 0.950 . S
C388 C387 1.398 . S
C388 C389 1.391 . S
C389 H377 0.950 . S
C389 C385 1.393 . S
C389 C388 1.391 . S
C390 H380 0.950 . S
C390 C391 1.386 . S
C390 C392 1.391 . S
C391 C390 1.386 . S
C391 C395 1.393 . S
C392 H381 0.950 . S
C392 C390 1.391 . S
C392 C393 1.400 . S
C393 C387 1.491 . S
C393 C392 1.400 . S
C393 C394 1.398 . S
C394 H382 0.950 . S
C394 C393 1.398 . S
C394 C395 1.391 . S
C395 H383 0.950 . S
C395 C391 1.393 . S
C395 C394 1.391 . S
H396 C404 0.950 . S
H397 C409 0.950 . S
H398 C406 0.950 . S
H399 C408 0.950 . S
H400 C410 0.950 . S
H401 C412 0.950 . S
H402 C414 0.950 . S
H403 C415 0.950 . S
C404 H396 0.950 . S
C404 C405 1.386 . S
C404 C406 1.391 . S
C405 C404 1.386 . S
C405 C409 1.393 . S
C406 H398 0.950 . S
C406 C404 1.391 . S
C406 C407 1.400 . S
C407 C406 1.400 . S
C407 C408 1.398 . S
C407 C413 1.491 . S
C408 H399 0.950 . S
C408 C407 1.398 . S
C408 C409 1.391 . S
C409 H397 0.950 . S
C409 C405 1.393 . S
C409 C408 1.391 . S
C410 H400 0.950 . S
C410 C411 1.386 . S
C410 C412 1.391 . S
C411 C410 1.386 . S
C411 C415 1.393 . S
C412 H401 0.950 . S
C412 C410 1.391 . S
C412 C413 1.400 . S
C413 C407 1.491 . S
C413 C412 1.400 . S
C413 C414 1.398 . S
C414 H402 0.950 . S
C414 C413 1.398 . S
C414 C415 1.391 . S
C415 H403 0.950 . S
C415 C411 1.393 . S
C415 C414 1.391 . S
H416 C424 0.950 . S
H417 C429 0.950 . S
H418 C426 0.950 . S
H419 C428 0.950 1_455 S
H420 C430 0.950 . S
H421 C432 0.950 . S
H422 C434 0.950 1_655 S
H423 C435 0.950 . S
C424 H416 0.950 . S
C424 C425 1.386 . S
C424 C426 1.391 . S
C425 C424 1.386 . S
C425 C429 1.393 . S
C426 H418 0.950 . S
C426 C424 1.391 . S
C426 C427 1.400 . S
C427 C426 1.400 . S
C427 C428 1.398 . S
C427 C433 1.491 1_655 S
C428 H419 0.950 1_655 S
C428 C427 1.398 . S
C428 C429 1.391 . S
C429 H417 0.950 . S
C429 C425 1.393 . S
C429 C428 1.391 . S
C430 H420 0.950 . S
C430 C431 1.386 . S
C430 C432 1.391 . S
C431 C430 1.386 . S
C431 C435 1.393 . S
C432 H421 0.950 . S
C432 C430 1.391 . S
C432 C433 1.400 . S
C433 C427 1.491 1_455 S
C433 C432 1.400 . S
C433 C434 1.398 . S
C434 H422 0.950 1_455 S
C434 C433 1.398 . S
C434 C435 1.391 . S
C435 H423 0.950 . S
C435 C431 1.393 . S
C435 C434 1.391 . S
H436 C444 0.950 . S
H437 C449 0.950 . S
H438 C446 0.950 . S
H439 C448 0.950 1_565 S
H440 C450 0.950 . S
H441 C452 0.950 . S
H442 C454 0.950 1_545 S
H443 C455 0.950 . S
C444 H436 0.950 . S
C444 C445 1.386 . S
C444 C446 1.391 . S
C445 C444 1.386 . S
C445 C449 1.393 . S
C446 H438 0.950 . S
C446 C444 1.391 . S
C446 C447 1.400 . S
C447 C446 1.400 . S
C447 C448 1.398 . S
C447 C453 1.491 1_545 S
C448 H439 0.950 1_545 S
C448 C447 1.398 . S
C448 C449 1.391 . S
C449 H437 0.950 . S
C449 C445 1.393 . S
C449 C448 1.391 . S
C450 H440 0.950 . S
C450 C451 1.386 . S
C450 C452 1.391 . S
C451 C450 1.386 . S
C451 C455 1.393 . S
C452 H441 0.950 . S
C452 C450 1.391 . S
C452 C453 1.400 . S
C453 C447 1.491 1_565 S
C453 C452 1.400 . S
C453 C454 1.398 . S
C454 H442 0.950 1_565 S
C454 C453 1.398 . S
C454 C455 1.391 . S
C455 H443 0.950 . S
C455 C451 1.393 . S
C455 C454 1.391 . S
H456 C464 0.950 . S
H457 C469 0.950 . S
H458 C466 0.950 . S
H459 C468 0.950 . S
H460 C470 0.950 . S
H461 C472 0.950 . S
H462 C474 0.950 . S
H463 C475 0.950 . S
C464 H456 0.950 . S
C464 C465 1.386 . S
C464 C466 1.391 . S
C465 C464 1.386 . S
C465 C469 1.393 . S
C466 H458 0.950 . S
C466 C464 1.391 . S
C466 C467 1.400 . S
C467 C466 1.400 . S
C467 C468 1.398 . S
C467 C473 1.491 . S
C468 H459 0.950 . S
C468 C467 1.398 . S
C468 C469 1.391 . S
C469 H457 0.950 . S
C469 C465 1.393 . S
C469 C468 1.391 . S
C470 H460 0.950 . S
C470 C471 1.386 . S
C470 C472 1.391 . S
C471 C470 1.386 . S
C471 C475 1.393 . S
C472 H461 0.950 . S
C472 C470 1.391 . S
C472 C473 1.400 . S
C473 C467 1.491 . S
C473 C472 1.400 . S
C473 C474 1.398 . S
C474 H462 0.950 . S
C474 C473 1.398 . S
C474 C475 1.391 . S
C475 H463 0.950 . S
C475 C471 1.393 . S
C475 C474 1.391 . S
H476 C484 0.950 . S
H477 C489 0.950 . S
H478 C486 0.950 . S
H479 C488 0.950 . S
H480 C490 0.950 . S
H481 C492 0.950 . S
H482 C494 0.950 . S
H483 C495 0.950 . S
C484 H476 0.950 . S
C484 C485 1.386 . S
C484 C486 1.391 . S
C485 C484 1.386 . S
C485 C489 1.393 . S
C486 H478 0.950 . S
C486 C484 1.391 . S
C486 C487 1.400 . S
C487 C486 1.400 . S
C487 C488 1.398 . S
C487 C493 1.491 1_655 S
C488 H479 0.950 . S
C488 C487 1.398 . S
C488 C489 1.391 . S
C489 H477 0.950 . S
C489 C485 1.393 . S
C489 C488 1.391 . S
C490 H480 0.950 . S
C490 C491 1.386 . S
C490 C492 1.391 . S
C491 C490 1.386 . S
C491 C495 1.393 . S
C492 H481 0.950 . S
C492 C490 1.391 . S
C492 C493 1.400 . S
C493 C487 1.491 1_455 S
C493 C492 1.400 . S
C493 C494 1.398 . S
C494 H482 0.950 . S
C494 C493 1.398 . S
C494 C495 1.391 . S
C495 H483 0.950 . S
C495 C491 1.393 . S
C495 C494 1.391 . S
H496 C504 0.950 . S
H497 C509 0.950 . S
H498 C506 0.950 . S
H499 C508 0.950 . S
H500 C510 0.950 . S
H501 C512 0.950 . S
H502 C514 0.950 . S
H503 C515 0.950 . S
C504 H496 0.950 . S
C504 C505 1.386 . S
C504 C506 1.391 . S
C505 C504 1.386 . S
C505 C509 1.393 . S
C506 H498 0.950 . S
C506 C504 1.391 . S
C506 C507 1.400 . S
C507 C506 1.400 . S
C507 C508 1.398 . S
C507 C513 1.491 1_564 S
C508 H499 0.950 . S
C508 C507 1.398 . S
C508 C509 1.391 . S
C509 H497 0.950 . S
C509 C505 1.393 . S
C509 C508 1.391 . S
C510 H500 0.950 . S
C510 C511 1.386 . S
C510 C512 1.391 . S
C511 C510 1.386 . S
C511 C515 1.393 . S
C512 H501 0.950 . S
C512 C510 1.391 . S
C512 C513 1.400 . S
C513 C507 1.491 1_546 S
C513 C512 1.400 . S
C513 C514 1.398 . S
C514 H502 0.950 . S
C514 C513 1.398 . S
C514 C515 1.391 . S
C515 H503 0.950 . S
C515 C511 1.393 . S
C515 C514 1.391 . S
H516 C524 0.950 . S
H517 C529 0.950 . S
H518 C526 0.950 . S
H519 C528 0.950 . S
H520 C530 0.950 . S
H521 C532 0.950 . S
H522 C534 0.950 . S
H523 C535 0.950 . S
C524 H516 0.950 . S
C524 C525 1.386 . S
C524 C526 1.391 . S
C525 C524 1.386 . S
C525 C529 1.393 . S
C526 H518 0.950 . S
C526 C524 1.391 . S
C526 C527 1.400 . S
C527 C526 1.400 . S
C527 C528 1.398 . S
C527 C533 1.491 . S
C528 H519 0.950 . S
C528 C527 1.398 . S
C528 C529 1.391 . S
C529 H517 0.950 . S
C529 C525 1.393 . S
C529 C528 1.391 . S
C530 H520 0.950 . S
C530 C531 1.386 . S
C530 C532 1.391 1_556 S
C531 C530 1.386 . S
C531 C535 1.393 . S
C532 H521 0.950 . S
C532 C530 1.391 1_554 S
C532 C533 1.400 . S
C533 C527 1.491 . S
C533 C532 1.400 . S
C533 C534 1.398 1_554 S
C534 H522 0.950 . S
C534 C533 1.398 1_556 S
C534 C535 1.391 . S
C535 H523 0.950 . S
C535 C531 1.393 . S
C535 C534 1.391 . S
H536 C544 0.950 . S
H537 C549 0.950 . S
H538 C546 0.950 . S
H539 C548 0.950 . S
H540 C550 0.950 . S
H541 C552 0.950 . S
H542 C554 0.950 1_455 S
H543 C555 0.950 . S
C544 H536 0.950 . S
C544 C545 1.386 . S
C544 C546 1.391 . S
C545 C544 1.386 . S
C545 C549 1.393 . S
C546 H538 0.950 . S
C546 C544 1.391 . S
C546 C547 1.400 . S
C547 C546 1.400 . S
C547 C548 1.398 . S
C547 C553 1.491 . S
C548 H539 0.950 . S
C548 C547 1.398 . S
C548 C549 1.391 . S
C549 H537 0.950 . S
C549 C545 1.393 . S
C549 C548 1.391 . S
C550 H540 0.950 . S
C550 C551 1.386 1_655 S
C550 C552 1.391 . S
C551 C550 1.386 1_455 S
C551 C555 1.393 . S
C552 H541 0.950 . S
C552 C550 1.391 . S
C552 C553 1.400 . S
C553 C547 1.491 . S
C553 C552 1.400 . S
C553 C554 1.397 . S
C554 H542 0.950 1_655 S
C554 C553 1.397 . S
C554 C555 1.391 1_655 S
C555 H543 0.950 . S
C555 C551 1.393 . S
C555 C554 1.391 1_455 S
H556 C564 0.950 . S
H557 C569 0.950 . S
H558 C566 0.950 . S
H559 C568 0.950 . S
H560 C570 0.950 . S
H561 C572 0.950 . S
H562 C574 0.950 . S
H563 C575 0.950 . S
C564 H556 0.950 . S
C564 C565 1.386 . S
C564 C566 1.391 1_545 S
C565 C564 1.386 . S
C565 C569 1.393 . S
C566 H558 0.950 . S
C566 C564 1.391 1_565 S
C566 C567 1.400 . S
C567 C566 1.400 . S
C567 C568 1.398 . S
C567 C573 1.491 . S
C568 H559 0.950 . S
C568 C567 1.398 . S
C568 C569 1.391 1_565 S
C569 H557 0.950 . S
C569 C565 1.393 . S
C569 C568 1.391 1_545 S
C570 H560 0.950 . S
C570 C571 1.386 . S
C570 C572 1.391 . S
C571 C570 1.386 . S
C571 C575 1.393 . S
C572 H561 0.950 . S
C572 C570 1.391 . S
C572 C573 1.400 . S
C573 C567 1.491 . S
C573 C572 1.400 . S
C573 C574 1.398 . S
C574 H562 0.950 . S
C574 C573 1.398 . S
C574 C575 1.391 . S
C575 H563 0.950 . S
C575 C571 1.393 . S
C575 C574 1.391 . S
H576 C584 0.950 . S
H577 C589 0.950 . S
H578 C586 0.950 . S
H579 C588 0.950 . S
H580 C590 0.950 . S
H581 C592 0.950 . S
H582 C594 0.950 . S
H583 C595 0.950 . S
C584 H576 0.950 . S
C584 C585 1.386 . S
C584 C586 1.391 . S
C585 C584 1.386 . S
C585 C589 1.393 . S
C586 H578 0.950 . S
C586 C584 1.391 . S
C586 C587 1.400 . S
C587 C586 1.400 . S
C587 C588 1.398 . S
C587 C593 1.491 . S
C588 H579 0.950 . S
C588 C587 1.398 . S
C588 C589 1.391 . S
C589 H577 0.950 . S
C589 C585 1.393 . S
C589 C588 1.391 . S
C590 H580 0.950 . S
C590 C591 1.386 . S
C590 C592 1.391 . S
C591 C590 1.386 . S
C591 C595 1.393 . S
C592 H581 0.950 . S
C592 C590 1.391 . S
C592 C593 1.400 . S
C593 C587 1.491 . S
C593 C592 1.400 . S
C593 C594 1.398 . S
C594 H582 0.950 . S
C594 C593 1.398 . S
C594 C595 1.391 . S
C595 H583 0.950 . S
C595 C591 1.393 . S
C595 C594 1.391 . S
H596 C604 0.950 . S
H597 C609 0.950 . S
H598 C606 0.950 . S
H599 C608 0.950 . S
H600 C610 0.950 . S
H601 C612 0.950 . S
H602 C614 0.950 . S
H603 C615 0.950 . S
C604 H596 0.950 . S
C604 C605 1.386 . S
C604 C606 1.391 . S
C605 C604 1.386 . S
C605 C609 1.393 . S
C606 H598 0.950 . S
C606 C604 1.391 . S
C606 C607 1.400 . S
C607 C606 1.400 . S
C607 C608 1.398 . S
C607 C613 1.491 . S
C608 H599 0.950 . S
C608 C607 1.398 . S
C608 C609 1.391 . S
C609 H597 0.950 . S
C609 C605 1.393 . S
C609 C608 1.391 . S
C610 H600 0.950 . S
C610 C611 1.386 . S
C610 C612 1.391 1_655 S
C611 C610 1.386 . S
C611 C615 1.393 1_655 S
C612 H601 0.950 . S
C612 C610 1.391 1_455 S
C612 C613 1.400 . S
C613 C607 1.491 . S
C613 C612 1.400 . S
C613 C614 1.398 . S
C614 H602 0.950 . S
C614 C613 1.398 . S
C614 C615 1.391 . S
C615 H603 0.950 . S
C615 C611 1.393 1_455 S
C615 C614 1.391 . S
H616 C624 0.950 . S
H617 C629 0.950 . S
H618 C626 0.950 . S
H619 C628 0.950 . S
H620 C630 0.950 . S
H621 C632 0.949 1_565 S
H622 C634 0.950 . S
H623 C635 0.950 . S
C624 H616 0.950 . S
C624 C625 1.386 . S
C624 C626 1.391 . S
C625 C624 1.386 . S
C625 C629 1.393 . S
C626 H618 0.950 . S
C626 C624 1.391 . S
C626 C627 1.400 . S
C627 C626 1.400 . S
C627 C628 1.398 . S
C627 C633 1.491 . S
C628 H619 0.950 . S
C628 C627 1.398 . S
C628 C629 1.391 . S
C629 H617 0.950 . S
C629 C625 1.393 . S
C629 C628 1.391 . S
C630 H620 0.950 . S
C630 C631 1.386 . S
C630 C632 1.383 1_565 S
C631 C630 1.386 . S
C631 C635 1.393 1_565 S
C632 H621 0.949 1_545 S
C632 C630 1.383 1_545 S
C632 C633 1.409 . S
C633 C627 1.491 . S
C633 C632 1.409 . S
C633 C634 1.398 . S
C634 H622 0.950 . S
C634 C633 1.398 . S
C634 C635 1.391 . S
C635 H623 0.950 . S
C635 C631 1.393 1_545 S
C635 C634 1.391 . S
H636 C644 0.950 . S
H637 C649 0.950 . S
H638 C646 0.950 . S
H639 C648 0.950 . S
H640 C650 0.950 . S
H641 C652 0.950 . S
H642 C654 0.950 . S
H643 C655 0.950 . S
C644 H636 0.950 . S
C644 C645 1.386 . S
C644 C646 1.391 . S
C645 C644 1.386 . S
C645 C649 1.393 . S
C646 H638 0.950 . S
C646 C644 1.391 . S
C646 C647 1.400 . S
C647 C646 1.400 . S
C647 C648 1.398 . S
C647 C653 1.491 . S
C648 H639 0.950 . S
C648 C647 1.398 . S
C648 C649 1.391 . S
C649 H637 0.950 . S
C649 C645 1.393 . S
C649 C648 1.391 . S
C650 H640 0.950 . S
C650 C651 1.386 . S
C650 C652 1.391 . S
C651 C650 1.386 . S
C651 C655 1.393 . S
C652 H641 0.950 . S
C652 C650 1.391 . S
C652 C653 1.400 . S
C653 C647 1.491 . S
C653 C652 1.400 . S
C653 C654 1.398 . S
C654 H642 0.950 . S
C654 C653 1.398 . S
C654 C655 1.391 . S
C655 H643 0.950 . S
C655 C651 1.393 . S
C655 C654 1.391 . S
H656 C664 0.950 . S
H657 C669 0.950 . S
H658 C666 0.950 . S
H659 C668 0.950 1_554 S
H660 C670 0.950 . S
H661 C672 0.950 . S
H662 C674 0.949 1_455 S
H663 C675 0.950 . S
C664 H656 0.950 . S
C664 C665 1.386 . S
C664 C666 1.391 . S
C665 C664 1.386 . S
C665 C669 1.393 . S
C666 H658 0.950 . S
C666 C664 1.391 . S
C666 C667 1.400 . S
C667 C666 1.400 . S
C667 C668 1.398 . S
C667 C673 1.491 . S
C668 H659 0.950 1_556 S
C668 C667 1.398 . S
C668 C669 1.391 . S
C669 H657 0.950 . S
C669 C665 1.393 . S
C669 C668 1.391 . S
C670 H660 0.950 . S
C670 C671 1.386 1_655 S
C670 C672 1.391 . S
C671 C670 1.386 1_455 S
C671 C675 1.393 1_554 S
C672 H661 0.950 . S
C672 C670 1.391 . S
C672 C673 1.400 1_554 S
C673 C667 1.491 . S
C673 C672 1.400 1_556 S
C673 C674 1.417 . S
C674 H662 0.949 1_655 S
C674 C673 1.417 . S
C674 C675 1.373 1_655 S
C675 H663 0.950 . S
C675 C671 1.393 1_556 S
C675 C674 1.373 1_455 S
H676 C684 0.950 . S
H677 C689 0.950 . S
H678 C686 0.950 . S
H679 C688 0.950 . S
H680 C690 0.950 . S
H681 C692 0.950 . S
H682 C694 0.950 . S
H683 C695 0.950 . S
C684 H676 0.950 . S
C684 C685 1.386 . S
C684 C686 1.391 . S
C685 C684 1.386 . S
C685 C689 1.393 . S
C686 H678 0.950 . S
C686 C684 1.391 . S
C686 C687 1.400 . S
C687 C686 1.400 . S
C687 C688 1.398 . S
C687 C693 1.491 . S
C688 H679 0.950 . S
C688 C687 1.398 . S
C688 C689 1.391 . S
C689 H677 0.950 . S
C689 C685 1.393 . S
C689 C688 1.391 . S
C690 H680 0.950 . S
C690 C691 1.386 1_565 S
C690 C692 1.391 . S
C691 C690 1.386 1_545 S
C691 C695 1.393 . S
C692 H681 0.950 . S
C692 C690 1.391 . S
C692 C693 1.400 . S
C693 C687 1.491 . S
C693 C692 1.400 . S
C693 C694 1.398 . S
C694 H682 0.950 . S
C694 C693 1.398 . S
C694 C695 1.391 1_565 S
C695 H683 0.950 . S
C695 C691 1.393 . S
C695 C694 1.391 1_545 S
H696 C704 0.950 . S
H697 C709 0.950 . S
H698 C706 0.950 . S
H699 C708 0.950 . S
H700 C710 0.950 . S
H701 C712 0.950 . S
H702 C714 0.950 . S
H703 C715 0.950 . S
C704 H696 0.950 . S
C704 C705 1.386 . S
C704 C706 1.391 . S
C705 C704 1.386 . S
C705 C709 1.393 . S
C706 H698 0.950 . S
C706 C704 1.391 . S
C706 C707 1.400 . S
C707 C706 1.400 . S
C707 C708 1.398 . S
C707 C713 1.491 . S
C708 H699 0.950 . S
C708 C707 1.398 . S
C708 C709 1.391 . S
C709 H697 0.950 . S
C709 C705 1.393 . S
C709 C708 1.391 . S
C710 H700 0.950 . S
C710 C711 1.386 . S
C710 C712 1.391 . S
C711 C710 1.386 . S
C711 C715 1.393 . S
C712 H701 0.950 . S
C712 C710 1.391 . S
C712 C713 1.400 . S
C713 C707 1.491 . S
C713 C712 1.400 . S
C713 C714 1.398 . S
C714 H702 0.950 . S
C714 C713 1.398 . S
C714 C715 1.391 . S
C715 H703 0.950 . S
C715 C711 1.393 . S
C715 C714 1.391 . S
H716 C724 0.950 . S
H717 C729 0.950 . S
H718 C726 0.950 . S
H719 C728 0.950 . S
H720 C730 0.950 . S
H721 C732 0.950 . S
H722 C734 0.950 . S
H723 C735 0.950 . S
C724 H716 0.950 . S
C724 C725 1.386 . S
C724 C726 1.391 . S
C725 C724 1.386 . S
C725 C729 1.393 . S
C726 H718 0.950 . S
C726 C724 1.391 . S
C726 C727 1.400 . S
C727 C726 1.400 . S
C727 C728 1.398 . S
C727 C733 1.491 . S
C728 H719 0.950 . S
C728 C727 1.398 . S
C728 C729 1.391 . S
C729 H717 0.950 . S
C729 C725 1.393 . S
C729 C728 1.391 . S
C730 H720 0.950 . S
C730 C731 1.386 . S
C730 C732 1.391 1_655 S
C731 C730 1.386 . S
C731 C735 1.393 . S
C732 H721 0.950 . S
C732 C730 1.391 1_455 S
C732 C733 1.400 . S
C733 C727 1.491 . S
C733 C732 1.400 . S
C733 C734 1.398 . S
C734 H722 0.950 . S
C734 C733 1.398 . S
C734 C735 1.391 1_455 S
C735 H723 0.950 . S
C735 C731 1.393 . S
C735 C734 1.391 1_655 S
H736 C744 0.950 . S
H737 C749 0.950 . S
H738 C746 0.950 . S
H739 C748 0.950 . S
H740 C750 0.950 . S
H741 C752 0.950 . S
H742 C754 0.950 . S
H743 C755 0.950 . S
C744 H736 0.950 . S
C744 C745 1.386 . S
C744 C746 1.391 1_565 S
C745 C744 1.386 . S
C745 C749 1.393 . S
C746 H738 0.950 . S
C746 C744 1.391 1_545 S
C746 C747 1.400 . S
C747 C746 1.400 . S
C747 C748 1.398 . S
C747 C753 1.491 . S
C748 H739 0.950 . S
C748 C747 1.398 . S
C748 C749 1.391 1_545 S
C749 H737 0.950 . S
C749 C745 1.393 . S
C749 C748 1.391 1_565 S
C750 H740 0.950 . S
C750 C751 1.386 . S
C750 C752 1.391 . S
C751 C750 1.386 . S
C751 C755 1.393 . S
C752 H741 0.950 . S
C752 C750 1.391 . S
C752 C753 1.400 . S
C753 C747 1.491 . S
C753 C752 1.400 . S
C753 C754 1.398 . S
C754 H742 0.950 . S
C754 C753 1.398 . S
C754 C755 1.391 . S
C755 H743 0.950 . S
C755 C751 1.393 . S
C755 C754 1.391 . S
C285 N196 1.691 . S
C291 N12 1.674 . S
C305 N35 1.686 . S
C311 N219 1.677 . S
C325 N58 1.691 . S
C331 N242 1.675 . S
C345 N81 1.674 . S
C351 N265 1.691 . S
C365 N150 1.687 . S
C371 N104 1.680 . S
C385 N127 1.680 . S
C391 N173 1.687 . S
C405 N209 1.213 . S
C411 N2 1.206 . S
C425 N25 1.248 . S
C431 N232 1.236 . S
C445 N255 1.249 . S
C451 N48 1.238 . S
C465 N71 1.247 . S
C471 N140 1.248 . S
C485 N163 1.249 . S
C491 N94 1.244 . S
C505 N186 1.211 . S
C511 N117 1.207 . S
C525 C16 1.962 . S
C531 C122 1.928 . S
C545 C39 1.949 . S
C551 C7 1.942 . S
C565 C30 1.929 . S
C571 C62 1.960 . S
C585 C85 1.948 . S
C591 C53 1.942 . S
C605 C108 1.963 . S
C611 C76 1.924 . S
C625 C131 1.964 . S
C631 C99 1.923 . S
C645 C154 1.957 . S
C651 C168 1.934 . S
C665 C177 1.949 . S
C671 C191 1.942 . S
C685 C200 1.952 . S
C691 C214 1.940 . S
C705 C223 1.963 . S
C711 C237 1.923 . S
C725 C246 1.951 . S
C731 C260 1.936 . S
C745 C145 1.928 . S
C751 C269 1.961 . S
