# Generated by pormake.
# Topology wfu, (7)-cn, num edge types: 1
# Building blocks:
#     Node 0, Type 0, BuildingBlock: NUHQUE_clean_sbu_2, # of connection points: 7
#     Node 1, Type 0, BuildingBlock: NUHQUE_clean_sbu_2, # of connection points: 7
#     Node 2, Type 0, BuildingBlock: NUHQUE_clean_sbu_2, # of connection points: 7
#     Node 3, Type 0, BuildingBlock: NUHQUE_clean_sbu_2, # of connection points: 7
#     Node 4, Type 0, BuildingBlock: NUHQUE_clean_sbu_2, # of connection points: 7
#     Node 5, Type 0, BuildingBlock: NUHQUE_clean_sbu_2, # of connection points: 7
#     Node 6, Type 0, BuildingBlock: NUHQUE_clean_sbu_2, # of connection points: 7
#     Node 7, Type 0, BuildingBlock: NUHQUE_clean_sbu_2, # of connection points: 7
#     Edge 8, Type (0, 0), BuildingBlock: CIFDUS_clean_linker_0, # of connection points: 2
#     Edge 9, Type (0, 0), BuildingBlock: CIFDUS_clean_linker_0, # of connection points: 2
#     Edge 10, Type (0, 0), BuildingBlock: CIFDUS_clean_linker_0, # of connection points: 2
#     Edge 11, Type (0, 0), BuildingBlock: CIFDUS_clean_linker_0, # of connection points: 2
#     Edge 12, Type (0, 0), BuildingBlock: CIFDUS_clean_linker_0, # of connection points: 2
#     Edge 13, Type (0, 0), BuildingBlock: CIFDUS_clean_linker_0, # of connection points: 2
#     Edge 14, Type (0, 0), BuildingBlock: CIFDUS_clean_linker_0, # of connection points: 2
#     Edge 15, Type (0, 0), BuildingBlock: CIFDUS_clean_linker_0, # of connection points: 2
#     Edge 16, Type (0, 0), BuildingBlock: CIFDUS_clean_linker_0, # of connection points: 2
#     Edge 17, Type (0, 0), BuildingBlock: CIFDUS_clean_linker_0, # of connection points: 2
#     Edge 18, Type (0, 0), BuildingBlock: CIFDUS_clean_linker_0, # of connection points: 2
#     Edge 19, Type (0, 0), BuildingBlock: CIFDUS_clean_linker_0, # of connection points: 2
#     Edge 20, Type (0, 0), BuildingBlock: CIFDUS_clean_linker_0, # of connection points: 2
#     Edge 21, Type (0, 0), BuildingBlock: CIFDUS_clean_linker_0, # of connection points: 2
#     Edge 22, Type (0, 0), BuildingBlock: CIFDUS_clean_linker_0, # of connection points: 2
#     Edge 23, Type (0, 0), BuildingBlock: CIFDUS_clean_linker_0, # of connection points: 2
#     Edge 24, Type (0, 0), BuildingBlock: CIFDUS_clean_linker_0, # of connection points: 2
#     Edge 25, Type (0, 0), BuildingBlock: CIFDUS_clean_linker_0, # of connection points: 2
#     Edge 26, Type (0, 0), BuildingBlock: CIFDUS_clean_linker_0, # of connection points: 2
#     Edge 27, Type (0, 0), BuildingBlock: CIFDUS_clean_linker_0, # of connection points: 2
#     Edge 28, Type (0, 0), BuildingBlock: CIFDUS_clean_linker_0, # of connection points: 2
#     Edge 29, Type (0, 0), BuildingBlock: CIFDUS_clean_linker_0, # of connection points: 2
#     Edge 30, Type (0, 0), BuildingBlock: CIFDUS_clean_linker_0, # of connection points: 2
#     Edge 31, Type (0, 0), BuildingBlock: CIFDUS_clean_linker_0, # of connection points: 2
#     Edge 32, Type (0, 0), BuildingBlock: CIFDUS_clean_linker_0, # of connection points: 2
#     Edge 33, Type (0, 0), BuildingBlock: CIFDUS_clean_linker_0, # of connection points: 2
#     Edge 34, Type (0, 0), BuildingBlock: CIFDUS_clean_linker_0, # of connection points: 2
#     Edge 35, Type (0, 0), BuildingBlock: CIFDUS_clean_linker_0, # of connection points: 2
# Relax obj value: 0.212
# Max RMSD: 0.202
# Mean RMSD: 0.202
data_MOF--net-wfu--node1-NUHQUE_clean_sbu_2--edge1-CIFDUS_clean_linker_0
_symmetry_space_group_name_H-M    P1
_symmetry_Int_Tables_number       1
_symmetry_cell_setting            triclinic
loop_
_symmetry_equiv_pos_as_xyz
'x, y, z'
_cell_length_a     32.388977
_cell_length_b     32.856924
_cell_length_c     27.706741
_cell_angle_alpha  90.047757
_cell_angle_beta   90.045625
_cell_angle_gamma 90.87392
loop_
_atom_site_label
_atom_site_type_symbol
_atom_site_fract_x
_atom_site_fract_y
_atom_site_fract_z
_atom_type_partial_charge
O0 O 0.30753 0.50949 0.21579 0.0
Tb1 Tb 0.3419 0.46214 0.17979 0.0
Eu2 Eu 0.38521 0.37456 0.24528 0.0
C3 C 0.32189 0.5298 0.25327 0.0
O4 O 0.35591 0.51787 0.2744 0.0
C5 C 0.42799 0.46585 0.23937 0.0
O6 O 0.44319 0.34767 0.21509 0.0
C7 C 0.35566 0.34086 0.32284 0.0
C8 C 0.46198 0.37027 0.18251 0.0
O9 O 0.445 0.40443 0.16917 0.0
C10 C 0.3127 0.37416 0.16865 0.0
C11 C 0.32463 0.31071 0.33949 0.0
C12 C 0.30653 0.31564 0.38541 0.0
C13 C 0.27629 0.28788 0.40172 0.0
C14 C 0.26427 0.25542 0.37207 0.0
C15 C 0.28228 0.24979 0.32668 0.0
C16 C 0.31269 0.27735 0.31034 0.0
O17 O 0.40442 0.47864 0.20373 0.0
O18 O 0.42018 0.43257 0.26464 0.0
O19 O 0.32012 0.4967 0.11774 0.0
O20 O 0.36362 0.44992 0.10653 0.0
C21 C 0.34186 0.47783 0.08557 0.0
O22 O 0.3476 0.35697 0.17986 0.0
O23 O 0.30294 0.40844 0.18981 0.0
O24 O 0.38801 0.32696 0.29956 0.0
O25 O 0.34128 0.37489 0.30465 0.0
H26 H 0.31566 0.34112 0.40811 0.0
H27 H 0.2411 0.2338 0.3849 0.0
H28 H 0.32669 0.27302 0.27522 0.0
O29 O 0.47987 0.74235 0.78291 0.0
Tb30 Tb 0.48801 0.70766 0.84916 0.0
Eu31 Eu 0.40244 0.67823 0.78238 0.0
C32 C 0.50925 0.76422 0.76197 0.0
O33 O 0.50204 0.78046 0.71957 0.0
C34 C 0.48551 0.62234 0.79763 0.0
O35 O 0.36309 0.63369 0.82507 0.0
C36 C 0.37117 0.69898 0.6998 0.0
C37 C 0.38187 0.61268 0.85872 0.0
O38 O 0.42125 0.61944 0.86641 0.0
C39 C 0.39966 0.72505 0.88198 0.0
C40 C 0.34223 0.72775 0.67738 0.0
C41 C 0.34971 0.74101 0.62971 0.0
C42 C 0.32172 0.76675 0.60667 0.0
C43 C 0.28687 0.77973 0.63156 0.0
C44 C 0.27881 0.76702 0.67891 0.0
C45 C 0.30648 0.74065 0.7018 0.0
O46 O 0.4989 0.64399 0.83459 0.0
O47 O 0.45451 0.63354 0.76981 0.0
O48 O 0.50902 0.74345 0.91124 0.0
O49 O 0.55242 0.70807 0.87312 0.0
C50 C 0.54712 0.73176 0.91016 0.0
O51 O 0.38945 0.72816 0.83627 0.0
O52 O 0.43329 0.70587 0.89429 0.0
O53 O 0.35514 0.67026 0.72746 0.0
O54 O 0.40623 0.7143 0.71642 0.0
H55 H 0.37664 0.73064 0.6103 0.0
H56 H 0.26498 0.79895 0.61303 0.0
H57 H 0.3001 0.73011 0.73813 0.0
O58 O 0.74238 0.53353 0.19731 0.0
Tb59 Tb 0.72164 0.59202 0.16991 0.0
Eu60 Eu 0.68928 0.68561 0.2591 0.0
C61 C 0.72385 0.51327 0.23225 0.0
O62 O 0.69357 0.53008 0.25604 0.0
C63 C 0.63629 0.60025 0.23126 0.0
O64 O 0.64933 0.71829 0.20557 0.0
C65 C 0.7009 0.71976 0.34233 0.0
C66 C 0.65339 0.70485 0.16118 0.0
O67 O 0.67674 0.67319 0.15406 0.0
C68 C 0.76236 0.67701 0.18744 0.0
C69 C 0.7274 0.75151 0.36516 0.0
C70 C 0.74673 0.74268 0.40933 0.0
C71 C 0.77123 0.77218 0.43288 0.0
C72 C 0.77583 0.81097 0.41259 0.0
C73 C 0.75619 0.82059 0.36908 0.0
C74 C 0.73252 0.79064 0.34491 0.0
O75 O 0.65699 0.58771 0.19284 0.0
O76 O 0.64962 0.62744 0.26354 0.0
O77 O 0.74976 0.56757 0.10472 0.0
O78 O 0.69962 0.60782 0.09757 0.0
C79 C 0.72562 0.5854 0.07414 0.0
O80 O 0.74337 0.7041 0.21317 0.0
O81 O 0.75921 0.63925 0.20271 0.0
O82 O 0.67227 0.73158 0.3117 0.0
O83 O 0.71961 0.68618 0.3291 0.0
H84 H 0.74217 0.71304 0.42585 0.0
H85 H 0.7933 0.83431 0.43177 0.0
H86 H 0.71709 0.79827 0.31146 0.0
O87 O 0.54283 0.32023 0.82099 0.0
Tb88 Tb 0.6002 0.33084 0.86035 0.0
Eu89 Eu 0.69398 0.37004 0.78348 0.0
C90 C 0.51296 0.34604 0.8294 0.0
O91 O 0.52061 0.37686 0.85845 0.0
C92 C 0.60761 0.41345 0.80278 0.0
O93 O 0.72327 0.42537 0.81807 0.0
C94 C 0.72867 0.34602 0.70428 0.0
C95 C 0.70794 0.4358 0.86007 0.0
O96 O 0.67872 0.41303 0.8793 0.0
C97 C 0.68803 0.29881 0.86032 0.0
C98 C 0.76259 0.32022 0.68718 0.0
C99 C 0.75621 0.29559 0.6462 0.0
C100 C 0.78765 0.27033 0.62958 0.0
C101 C 0.82563 0.27 0.65361 0.0
C102 C 0.83282 0.29476 0.69408 0.0
C103 C 0.80107 0.31985 0.7109 0.0
O104 O 0.6019 0.39609 0.84516 0.0
O105 O 0.6315 0.39781 0.7693 0.0
O106 O 0.56714 0.29674 0.91594 0.0
O107 O 0.60709 0.34558 0.93697 0.0
C108 C 0.58185 0.31721 0.95237 0.0
O109 O 0.7111 0.32938 0.84541 0.0
O110 O 0.6516 0.29275 0.84031 0.0
O111 O 0.73894 0.38018 0.72646 0.0
O112 O 0.69677 0.32696 0.72385 0.0
H113 H 0.72673 0.29573 0.62764 0.0
H114 H 0.85006 0.25095 0.63986 0.0
H115 H 0.80623 0.33877 0.74246 0.0
O116 O 0.80515 0.07116 0.2828 0.0
Tb117 Tb 0.83599 0.06366 0.35203 0.0
Eu118 Eu 0.86656 0.15364 0.28856 0.0
C119 C 0.79126 0.04108 0.25548 0.0
O120 O 0.77723 0.04943 0.21219 0.0
C121 C 0.92421 0.07454 0.30888 0.0
O122 O 0.90347 0.19493 0.33882 0.0
C123 C 0.84798 0.1877 0.20661 0.0
C124 C 0.91398 0.18023 0.38119 0.0
O125 O 0.90662 0.14168 0.3903 0.0
C126 C 0.81204 0.15037 0.38453 0.0
C127 C 0.82182 0.21973 0.18517 0.0
C128 C 0.80701 0.21497 0.13747 0.0
C129 C 0.78358 0.24567 0.11557 0.0
C130 C 0.77499 0.28102 0.14168 0.0
C131 C 0.79083 0.28697 0.18827 0.0
C132 C 0.81403 0.25622 0.21015 0.0
O133 O 0.90257 0.06478 0.34735 0.0
O134 O 0.91074 0.1009 0.27666 0.0
O135 O 0.80012 0.03646 0.41092 0.0
O136 O 0.84241 0.99978 0.37275 0.0
C137 C 0.81665 1.00071 0.40879 0.0
O138 O 0.81216 0.16183 0.33901 0.0
O139 O 0.8282 0.11584 0.39793 0.0
O140 O 0.87905 0.19981 0.23407 0.0
O141 O 0.82905 0.15472 0.22295 0.0
H142 H 0.81468 0.18801 0.11696 0.0
H143 H 0.75853 0.30548 0.12419 0.0
H144 H 0.82684 0.26119 0.24587 0.0
O145 O 0.09221 0.24249 0.74995 0.0
Tb146 Tb 0.07973 0.21322 0.68074 0.0
Eu147 Eu 0.16115 0.17872 0.74911 0.0
C148 C 0.06448 0.26027 0.77719 0.0
O149 O 0.07681 0.28023 0.8158 0.0
C150 C 0.08178 0.12386 0.7181 0.0
O151 O 0.20164 0.13293 0.71216 0.0
C152 C 0.18931 0.20119 0.83336 0.0
C153 C 0.18937 0.11986 0.66961 0.0
O154 O 0.1553 0.13402 0.65101 0.0
C155 C 0.17029 0.22995 0.64858 0.0
C156 C 0.22158 0.22841 0.85432 0.0
C157 C 0.21786 0.24224 0.90245 0.0
C158 C 0.24843 0.26798 0.92281 0.0
C159 C 0.28252 0.2796 0.89482 0.0
C160 C 0.28756 0.26491 0.84768 0.0
C161 C 0.25694 0.2394 0.82739 0.0
O162 O 0.07596 0.14761 0.68076 0.0
O163 O 0.10498 0.13565 0.75492 0.0
O164 O 0.05317 0.25237 0.62489 0.0
O165 O 1.01459 0.20958 0.66044 0.0
C166 C 1.01594 0.237 0.62671 0.0
O167 O 0.18326 0.2252 0.6934 0.0
O168 O 0.13299 0.21905 0.63468 0.0
O169 O 0.20226 0.16892 0.80997 0.0
O170 O 0.158 0.21886 0.81194 0.0
H171 H 0.19164 0.23261 0.92413 0.0
H172 H 0.30679 0.29819 0.91108 0.0
H173 H 0.26086 0.22783 0.79105 0.0
O174 O 0.24387 0.99132 0.32059 0.0
Tb175 Tb 0.2219 0.94424 0.36966 0.0
Eu176 Eu 0.18046 0.87533 0.2786 0.0
C177 C 0.22214 0.02432 0.31398 0.0
O178 O 0.18519 0.02621 0.33324 0.0
C179 C 0.13596 0.95093 0.32059 0.0
O180 O 0.12853 0.83455 0.30471 0.0
C181 C 0.21299 0.85354 0.19727 0.0
C182 C 0.09063 0.84775 0.30979 0.0
O183 O 0.07992 0.88129 0.28767 0.0
C184 C 0.24859 0.85587 0.36072 0.0
C185 C 0.23499 0.81746 0.1796 0.0
C186 C 0.25987 0.81973 0.13775 0.0
C187 C 0.28151 0.78529 0.12205 0.0
C188 C 0.27775 0.74894 0.14802 0.0
C189 C 0.25294 0.74636 0.1892 0.0
C190 C 0.23171 0.78057 0.20518 0.0
O191 O 0.15507 0.94251 0.36107 0.0
O192 O 0.15017 0.937 0.27949 0.0
O193 O 0.21386 0.93496 0.4473 0.0
O194 O 0.24542 0.988 0.42303 0.0
C195 C 0.23231 0.96843 0.46092 0.0
O196 O 0.21359 0.84459 0.3403 0.0
O197 O 0.26229 0.89344 0.35672 0.0
O198 O 0.17361 0.84774 0.20776 0.0
O199 O 0.23293 0.876 0.22948 0.0
H200 H 0.26281 0.8481 0.11804 0.0
H201 H 0.29427 0.72228 0.13599 0.0
H202 H 0.21278 0.77851 0.23738 0.0
O203 O 1.02846 0.82705 0.68836 0.0
Tb204 Tb 0.9679 0.83335 0.65572 0.0
Eu205 Eu 0.87978 0.85402 0.75421 0.0
C206 C 0.05705 0.85526 0.68162 0.0
O207 O 0.04763 0.88792 0.6569 0.0
C208 C 0.96046 0.90873 0.72424 0.0
O209 O 0.84574 0.89349 0.70053 0.0
C210 C 0.84462 0.84195 0.83729 0.0
C211 C 0.85502 0.88741 0.65481 0.0
O212 O 0.88386 0.86127 0.64492 0.0
C213 C 0.89059 0.78102 0.6817 0.0
C214 C 0.81087 0.81661 0.85826 0.0
C215 C 0.81492 0.80144 0.90558 0.0
C216 C 0.78301 0.77799 0.92664 0.0
C217 C 0.74662 0.77052 0.90058 0.0
C218 C 0.74187 0.78576 0.85364 0.0
C219 C 0.77438 0.80813 0.8322 0.0
O220 O 0.9582 0.89581 0.6792 0.0
O221 O 0.9411 0.88949 0.75995 0.0
O222 O 0.99939 0.81065 0.59154 0.0
O223 O 0.94838 0.84971 0.58241 0.0
C224 C 0.97674 0.82937 0.56003 0.0
O225 O 0.86364 0.79883 0.70942 0.0
O226 O 0.92976 0.7878 0.6913 0.0
O227 O 0.83411 0.87147 0.80768 0.0
O228 O 0.87768 0.82236 0.82322 0.0
H229 H 0.84256 0.80841 0.92628 0.0
H230 H 0.7214 0.75369 0.91741 0.0
H231 H 0.77068 0.81998 0.79597 0.0
H232 H 0.30293 0.29601 0.13748 0.0
H233 H 0.27103 0.41939 0.1024 0.0
H234 H 0.24385 0.3969 0.02423 0.0
H235 H 0.23668 0.34294 0.96195 0.0
H236 H 0.26483 0.21917 0.99886 0.0
H237 H 0.28502 0.24061 0.08037 0.0
C238 C 0.28931 0.31782 0.11305 0.0
C239 C 0.28958 0.35941 0.12548 0.0
C240 C 0.27296 0.30449 0.06845 0.0
C241 C 0.27139 0.38726 0.09371 0.0
C242 C 0.25593 0.3744 0.04887 0.0
C243 C 0.24588 0.32058 0.9885 0.0
C244 C 0.24889 0.27946 0.9747 0.0
C245 C 0.2575 0.33324 0.03532 0.0
C246 C 0.26157 0.25081 1.009 0.0
C247 C 0.27359 0.26318 0.0554 0.0
H248 H 0.42128 0.74705 0.97329 0.0
H249 H 0.31731 0.74172 0.87603 0.0
H250 H 0.27178 0.76517 0.94048 0.0
H251 H 0.26051 0.7814 0.02697 0.0
H252 H 0.36479 0.78653 0.12338 0.0
H253 H 0.41128 0.76988 0.05689 0.0
C254 C 0.38869 0.75127 0.9661 0.0
C255 C 0.37266 0.74218 0.92004 0.0
C256 C 0.36277 0.7651 1.00323 0.0
C257 C 0.33047 0.74839 0.91117 0.0
C258 C 0.30437 0.76178 0.94806 0.0
C259 C 0.29358 0.78014 0.03284 0.0
C260 C 0.30943 0.7858 0.0797 0.0
C261 C 0.32004 0.76964 0.99449 0.0
C262 C 0.35215 0.783 0.08736 0.0
C263 C 0.37862 0.77303 0.04949 0.0
H264 H 0.79863 0.7026 0.96399 0.0
H265 H 0.76938 0.8257 1.00354 0.0
H266 H 0.76201 0.80535 0.08798 0.0
H267 H 0.75957 0.75246 0.14896 0.0
H268 H 0.79482 0.63009 0.11398 0.0
H269 H 0.80419 0.64995 0.02901 0.0
C270 C 0.79138 0.7249 0.99145 0.0
C271 C 0.78473 0.76566 0.97796 0.0
C272 C 0.78763 0.71296 0.04023 0.0
C273 C 0.77503 0.79437 1.01342 0.0
C274 C 0.77061 0.78267 0.06154 0.0
C275 C 0.76948 0.72989 0.12304 0.0
C276 C 0.77424 0.68903 0.13738 0.0
C277 C 0.77619 0.742 0.07516 0.0
C278 C 0.78863 0.66101 0.10332 0.0
C279 C 0.79451 0.6726 0.05492 0.0
H280 H 0.70862 0.23182 0.07262 0.0
H281 H 0.83592 0.26154 0.04222 0.0
H282 H 0.81813 0.27807 0.95872 0.0
H283 H 0.76518 0.29181 0.89749 0.0
H284 H 0.63853 0.25703 0.92459 0.0
H285 H 0.65698 0.23456 1.00595 0.0
C286 C 0.73251 0.24069 0.04715 0.0
C287 C 0.7736 0.24518 0.06327 0.0
C288 C 0.72199 0.25 0.99896 0.0
C289 C 0.80427 0.25729 0.03031 0.0
C290 C 0.79401 0.26713 0.98273 0.0
C291 C 0.74167 0.27875 0.92091 0.0
C292 C 0.70017 0.27756 0.90555 0.0
C293 C 0.7528 0.26478 0.96709 0.0
C294 C 0.6704 0.2595 0.93594 0.0
C295 C 0.68102 0.24647 0.98248 0.0
H296 H 0.79272 0.13078 0.47638 0.0
H297 H 0.80151 0.23307 0.37918 0.0
H298 H 0.78983 0.2798 0.44661 0.0
H299 H 0.78465 0.29159 0.53496 0.0
H300 H 0.77983 0.18866 0.63108 0.0
H301 H 0.7822 0.142 0.56235 0.0
C302 C 0.79154 0.16328 0.46972 0.0
C303 C 0.79822 0.17843 0.42287 0.0
C304 C 0.7857 0.18981 0.50862 0.0
C305 C 0.79627 0.22059 0.41487 0.0
C306 C 0.78989 0.24733 0.45348 0.0
C307 C 0.7831 0.25892 0.54044 0.0
C308 C 0.78166 0.24328 0.58761 0.0
C309 C 0.78556 0.23233 0.50072 0.0
C310 C 0.78052 0.20106 0.59485 0.0
C311 C 0.78211 0.1745 0.55567 0.0
H312 H 0.14947 0.27413 0.57036 0.0
H313 H 0.25439 0.22301 0.64295 0.0
H314 H 0.29883 0.242 0.57467 0.0
H315 H 0.30553 0.26563 0.48972 0.0
H316 H 0.19971 0.31553 0.41805 0.0
H317 H 0.15801 0.30532 0.49072 0.0
C318 C 0.18221 0.26766 0.57154 0.0
C319 C 0.19857 0.24681 0.61136 0.0
C320 C 0.20738 0.27858 0.53225 0.0
C321 C 0.2411 0.23909 0.61271 0.0
C322 C 0.26645 0.24977 0.57355 0.0
C323 C 0.27374 0.2755 0.49085 0.0
C324 C 0.25567 0.29179 0.44905 0.0
C325 C 0.2497 0.2686 0.53256 0.0
C326 C 0.21423 0.30357 0.45019 0.0
C327 C 0.19035 0.29732 0.49151 0.0
H328 H 0.31325 0.8728 0.42158 0.0
H329 H 0.2269 0.77715 0.38147 0.0
H330 H 0.24837 0.73698 0.45073 0.0
H331 H 0.28303 0.73413 0.52969 0.0
H332 H 0.36695 0.83051 0.57192 0.0
H333 H 0.35586 0.86492 0.49457 0.0
C334 C 0.29973 0.8428 0.42731 0.0
C335 C 0.26787 0.82847 0.3967 0.0
C336 C 0.31177 0.82 0.46783 0.0
C337 C 0.25104 0.78932 0.40467 0.0
C338 C 0.26326 0.76626 0.44439 0.0
C339 C 0.3001 0.76181 0.52093 0.0
C340 C 0.32617 0.77962 0.55584 0.0
C341 C 0.29241 0.78197 0.47719 0.0
C342 C 0.3474 0.81599 0.54501 0.0
C343 C 0.34058 0.83587 0.5011 0.0
H344 H 0.81135 0.7691 0.65359 0.0
H345 H 0.93608 0.76215 0.60094 0.0
H346 H 0.91035 0.75818 0.51762 0.0
H347 H 0.85164 0.7639 0.45979 0.0
H348 H 0.72729 0.76533 0.51488 0.0
H349 H 0.75346 0.76388 0.59768 0.0
C350 C 0.83306 0.76624 0.62403 0.0
C351 C 0.87582 0.76834 0.6331 0.0
C352 C 0.81791 0.76307 0.57679 0.0
C353 C 0.90321 0.76281 0.59453 0.0
C354 C 0.88842 0.76025 0.54701 0.0
C355 C 0.83048 0.76307 0.4901 0.0
C356 C 0.78768 0.76477 0.48172 0.0
C357 C 0.8458 0.76173 0.53764 0.0
C358 C 0.7603 0.76377 0.52085 0.0
C359 C 0.77526 0.76313 0.56804 0.0
H360 H 0.59822 0.36724 0.02763 0.0
H361 H 0.53086 0.25811 0.9879 0.0
H362 H 0.49335 0.25954 0.06436 0.0
H363 H 0.47024 0.2996 0.13422 0.0
H364 H 0.53272 0.41257 0.16859 0.0
H365 H 0.58237 0.40152 0.10378 0.0
C366 C 0.57609 0.34325 0.03637 0.0
C367 C 0.56663 0.31309 1.00212 0.0
C368 C 0.55363 0.34515 0.07953 0.0
C369 C 0.53814 0.28197 1.01368 0.0
C370 C 0.51664 0.28282 0.05731 0.0
C371 C 0.49583 0.32076 0.1286 0.0
C372 C 0.49824 0.35666 0.15585 0.0
C373 C 0.52272 0.31534 0.08945 0.0
C374 C 0.53072 0.38459 0.14793 0.0
C375 C 0.55878 0.37849 0.11061 0.0
H376 H 0.29681 0.53404 0.03796 0.0
H377 H 0.39782 0.45125 0.02034 0.0
H378 H 0.41502 0.48234 0.94272 0.0
H379 H 0.40817 0.53983 0.88713 0.0
H380 H 0.30801 0.62338 0.90412 0.0
H381 H 0.28289 0.5848 0.97434 0.0
C382 C 0.32202 0.52233 0.01656 0.0
C383 C 0.34657 0.491 0.03505 0.0
C384 C 0.33193 0.54063 0.97215 0.0
C385 C 0.3788 0.47563 1.00694 0.0
C386 C 0.38872 0.49347 0.96268 0.0
C387 C 0.38015 0.54882 0.9055 0.0
C388 C 0.35999 0.58433 0.89109 0.0
C389 C 0.36652 0.52697 0.94597 0.0
C390 C 0.3237 0.59587 0.91462 0.0
C391 C 0.3097 0.5741 0.95501 0.0
H392 H 0.53158 0.76099 0.99954 0.0
H393 H 0.62848 0.71278 0.91042 0.0
H394 H 0.67277 0.70572 0.98137 0.0
H395 H 0.67921 0.70299 0.06922 0.0
H396 H 0.58145 0.74783 0.15951 0.0
H397 H 0.54211 0.76696 0.08748 0.0
C398 C 0.56277 0.74988 0.99559 0.0
C399 C 0.57668 0.73679 0.95016 0.0
C400 C 0.58745 0.74468 0.03674 0.0
C401 C 0.61709 0.72258 0.94524 0.0
C402 C 0.64227 0.71836 0.98577 0.0
C403 C 0.64948 0.71744 0.07314 0.0
C404 C 0.63267 0.72326 0.11939 0.0
C405 C 0.62701 0.72758 0.03182 0.0
C406 C 0.59473 0.74284 0.12417 0.0
C407 C 0.57224 0.75356 0.08303 0.0
H408 H 0.66195 0.49777 0.89053 0.0
H409 H 0.78599 0.45242 0.89116 0.0
H410 H 0.80526 0.50137 0.95455 0.0
H411 H 0.78244 0.5477 0.01919 0.0
H412 H 0.6586 0.59401 0.01636 0.0
H413 H 0.64378 0.55512 0.94297 0.0
C414 C 0.69358 0.49977 0.90332 0.0
C415 C 0.7226 0.47176 0.88672 0.0
C416 C 0.70421 0.52785 0.93948 0.0
C417 C 0.76339 0.47407 0.90348 0.0
C418 C 0.77422 0.50176 0.93991 0.0
C419 C 0.75266 0.55017 1.00156 0.0
C420 C 0.72131 0.57278 0.02345 0.0
C421 C 0.74432 0.52747 0.95963 0.0
C422 C 0.68304 0.57644 1.00022 0.0
C423 C 0.67446 0.55396 0.95853 0.0
H424 H 0.88732 0.18277 0.47262 0.0
H425 H 0.97903 0.23435 0.37724 0.0
H426 H 1.01592 0.26408 0.44668 0.0
H427 H 1.02778 0.26468 0.53505 0.0
H428 H 0.93606 0.21124 0.62942 0.0
H429 H 0.8925 0.19429 0.55998 0.0
C430 C 0.91489 0.20136 0.46707 0.0
C431 C 0.93097 0.206 0.42025 0.0
C432 C 0.93586 0.21789 0.50703 0.0
C433 C 0.96628 0.23045 0.4131 0.0
C434 C 0.98743 0.24716 0.45281 0.0
C435 C 0.99767 0.25052 0.54043 0.0
C436 C 0.98535 0.23863 0.58716 0.0
C437 C 0.97339 0.23964 0.50008 0.0
C438 C 0.94632 0.22029 0.59373 0.0
C439 C 0.92158 0.2103 0.55401 0.0
H440 H 0.17314 0.04029 0.65729 0.0
H441 H 0.2561 0.13729 0.61459 0.0
H442 H 0.28161 0.09574 0.54774 0.0
H443 H 0.27136 0.03644 0.49425 0.0
H444 H 0.18776 0.93963 0.53699 0.0
H445 H 0.17198 0.97586 0.61162 0.0
C446 C 0.19801 0.05148 0.63441 0.0
C447 C 0.21331 0.09128 0.64081 0.0
C448 C 0.2118 0.02771 0.59569 0.0
C449 C 0.24468 0.10628 0.61058 0.0
C450 C 0.25883 0.08274 0.57211 0.0
C451 C 0.25047 0.02291 0.5205 0.0
C452 C 0.2302 0.98584 0.50992 0.0
C453 C 0.24133 0.0441 0.56316 0.0
C454 C 0.20349 0.96832 0.54427 0.0
C455 C 0.19431 0.9891 0.58684 0.0
H456 H 1.02015 0.87966 0.34737 0.0
H457 H 0.10491 0.78047 0.36457 0.0
H458 H 0.07377 0.76337 0.44209 0.0
H459 H 1.0292 0.78235 0.5098 0.0
H460 H 0.94461 0.88146 0.49369 0.0
H461 H 0.9687 0.89265 0.41088 0.0
C462 C 0.03117 0.85366 0.36746 0.0
C463 C 0.06527 0.83175 0.35033 0.0
C464 C 1.01355 0.84436 0.41262 0.0
C465 C 0.07899 0.79812 0.37695 0.0
C466 C 0.06133 0.7884 0.4215 0.0
C467 C 1.01556 0.80593 0.48781 0.0
C468 C 0.98573 0.83147 0.50788 0.0
C469 C 1.02969 0.81224 0.44046 0.0
C470 C 0.96788 0.8616 0.479 0.0
C471 C 0.98173 0.86807 0.43174 0.0
H472 H 0.79 1.01184 0.50055 0.0
H473 H 0.84163 0.92223 0.4051 0.0
H474 H 0.85352 0.87697 0.47362 0.0
H475 H 0.8572 0.86685 0.56072 0.0
H476 H 0.81009 0.95788 0.6577 0.0
H477 H 0.78781 0.99856 0.58837 0.0
C478 C 0.8029 0.98197 0.4947 0.0
C479 C 0.8152 0.97036 0.44799 0.0
C480 C 0.81091 0.95674 0.53453 0.0
C481 C 0.83216 0.9318 0.4408 0.0
C482 C 0.8391 0.90605 0.47996 0.0
C483 C 0.84176 0.89548 0.56687 0.0
C484 C 0.83595 0.90976 0.61433 0.0
C485 C 0.82997 0.91887 0.52705 0.0
C486 C 0.81513 0.9464 0.62156 0.0
C487 C 0.80256 0.96968 0.58191 0.0
H488 H 0.4473 0.54745 0.23352 0.0
H489 H 0.50087 0.43014 0.25973 0.0
H490 H 0.56991 0.46092 0.25987 0.0
H491 H 0.61565 0.52054 0.2474 0.0
H492 H 0.56299 0.63912 0.22953 0.0
H493 H 0.49325 0.60882 0.23146 0.0
C494 C 0.47409 0.52881 0.23999 0.0
C495 C 0.46883 0.48647 0.24643 0.0
C496 C 0.51395 0.54697 0.24128 0.0
C497 C 0.50388 0.46278 0.25506 0.0
C498 C 0.5435 0.48034 0.25483 0.0
C499 C 0.58896 0.53983 0.24474 0.0
C500 C 0.59448 0.58204 0.23834 0.0
C501 C 0.549 0.52229 0.24727 0.0
C502 C 0.55947 0.60658 0.23483 0.0
C503 C 0.51961 0.58922 0.23572 0.0
H504 H 0.56614 0.60041 0.80038 0.0
H505 H 0.44282 0.5519 0.78148 0.0
H506 H 0.46948 0.48254 0.78035 0.0
H507 H 0.52789 0.43538 0.78914 0.0
H508 H 0.65167 0.48404 0.80047 0.0
H509 H 0.62523 0.55351 0.79985 0.0
C510 C 0.54528 0.5746 0.79538 0.0
C511 C 0.50262 0.58115 0.79103 0.0
C512 C 0.56097 0.53486 0.79365 0.0
C513 C 0.47583 0.54758 0.78437 0.0
C514 C 0.49103 0.50792 0.78404 0.0
C515 C 0.54894 0.46129 0.79105 0.0
C516 C 0.59155 0.45484 0.7957 0.0
C517 C 0.5335 0.50114 0.78925 0.0
C518 C 0.61872 0.48847 0.79731 0.0
C519 C 0.60359 0.52814 0.79698 0.0
H520 H 0.96289 0.02453 0.37173 0.0
H521 H 0.97704 0.0787 0.23073 0.0
H522 H 0.04308 0.04413 0.2206 0.0
H523 H 0.09758 0.99857 0.25272 0.0
H524 H 0.08216 0.9472 0.39504 0.0
H525 H 1.01582 0.98015 0.40329 0.0
C526 C 0.98021 0.02892 0.33862 0.0
C527 C 0.96475 0.05433 0.30207 0.0
C528 C 1.01811 1.00923 0.33319 0.0
C529 C 0.98808 0.05947 0.25962 0.0
C530 C 1.02586 0.03961 0.25374 0.0
C531 C 0.07951 0.99456 0.28536 0.0
C532 C 0.095 0.97057 0.32328 0.0
C533 C 0.04129 1.01438 0.29036 0.0
C534 C 0.07134 0.96584 0.3655 0.0
C535 C 0.03327 0.98463 0.37026 0.0
H536 H 0.04949 0.07451 0.79067 0.0
H537 H 0.0743 0.07871 0.63765 0.0
H538 H 0.04014 1.01305 0.62669 0.0
H539 H 1.00014 0.95638 0.65857 0.0
H540 H 0.97338 0.9493 0.81088 0.0
H541 H 1.01076 1.01401 0.82389 0.0
C542 C 0.04776 0.0607 0.75513 0.0
C543 C 0.06422 0.08181 0.71497 0.0
C544 C 1.02722 1.02262 0.74874 0.0
C545 C 0.0615 0.06354 0.66912 0.0
C546 C 0.04195 0.02589 0.66274 0.0
C547 C 1.00259 0.96854 0.69486 0.0
C548 C 0.98378 0.94763 0.73361 0.0
C549 C 1.0241 1.00549 0.70203 0.0
C550 C 0.98739 0.96455 0.78017 0.0
C551 C 1.00886 1.00161 0.78767 0.0
H552 H 0.18495 0.09248 0.28214 0.0
H553 H 0.30486 0.04141 0.30792 0.0
H554 H 0.33677 0.10904 0.30236 0.0
H555 H 0.32792 0.18339 0.30867 0.0
H556 H 0.20744 0.23393 0.28709 0.0
H557 H 0.17854 0.16611 0.27112 0.0
C558 C 0.21821 0.09604 0.28519 0.0
C559 C 0.24235 0.0622 0.29661 0.0
C560 C 0.23621 0.13511 0.28302 0.0
C561 C 0.28548 0.06706 0.29959 0.0
C562 C 0.30377 0.10581 0.29674 0.0
C563 C 0.2958 0.17955 0.29822 0.0
C564 C 0.26969 0.21325 0.2991 0.0
C565 C 0.27913 0.14024 0.29107 0.0
C566 C 0.22797 0.2082 0.28631 0.0
C567 C 0.2114 0.16942 0.27781 0.0
H568 H 0.24951 0.84317 0.68701 0.0
H569 H 0.21872 0.71783 0.71764 0.0
H570 H 0.14616 0.73568 0.72882 0.0
H571 H 0.09042 0.78462 0.71446 0.0
H572 H 0.12181 0.90902 0.6778 0.0
H573 H 0.19503 0.89395 0.68436 0.0
C574 C 0.22701 0.82002 0.69752 0.0
C575 C 0.23919 0.77922 0.70098 0.0
C576 C 0.1853 0.83023 0.70163 0.0
C577 C 0.21004 0.74946 0.71497 0.0
C578 C 0.16848 0.75961 0.72066 0.0
C579 C 0.11326 0.80864 0.70891 0.0
C580 C 0.10063 0.8477 0.6947 0.0
C581 C 0.1555 0.79952 0.71167 0.0
C582 C 0.13064 0.87854 0.68802 0.0
C583 C 0.17258 0.86996 0.69178 0.0
H584 H 0.79729 0.85151 0.29149 0.0
H585 H 0.71894 0.88473 0.41022 0.0
H586 H 0.72296 0.95633 0.38597 0.0
H587 H 0.74924 1.00969 0.33105 0.0
H588 H 0.82966 0.97733 0.21404 0.0
H589 H 0.82466 0.90536 0.23718 0.0
C590 C 0.78094 0.87455 0.3116 0.0
C591 C 0.75745 0.86318 0.35209 0.0
C592 C 0.78416 0.91576 0.29801 0.0
C593 C 0.73682 0.89306 0.3786 0.0
C594 C 0.73919 0.93389 0.36483 0.0
C595 C 0.7661 0.9868 0.31124 0.0
C596 C 0.79072 0.99854 0.27193 0.0
C597 C 0.76295 0.94564 0.32478 0.0
C598 C 0.8113 0.96877 0.2452 0.0
C599 C 0.80829 0.92772 0.25828 0.0
H600 H 1.01558 0.32505 0.76575 0.0
H601 H 1.01493 0.194 0.76396 0.0
H602 H 0.94149 0.19292 0.74196 0.0
H603 H 0.87906 0.2296 0.71824 0.0
H604 H 0.8797 0.36088 0.72022 0.0
H605 H 0.95149 0.36173 0.7478 0.0
C606 C 0.99917 0.29636 0.76042 0.0
C607 C 1.02046 0.25965 0.76464 0.0
C608 C 0.95716 0.29611 0.74791 0.0
C609 C 0.99906 0.22255 0.7594 0.0
C610 C 0.95718 0.22197 0.7471 0.0
C611 C 0.89489 0.25837 0.72501 0.0
C612 C 0.87427 0.29514 0.7169 0.0
C613 C 0.93618 0.2586 0.74033 0.0
C614 C 0.89486 0.3322 0.72652 0.0
C615 C 0.93597 0.3327 0.74187 0.0
H616 H 0.72331 0.32205 0.2275 0.0
H617 H 0.85133 0.34412 0.19321 0.0
H618 H 0.84305 0.41706 0.20778 0.0
H619 H 0.79689 0.47521 0.21967 0.0
H620 H 0.6694 0.45307 0.25742 0.0
H621 H 0.67989 0.37961 0.25286 0.0
C622 C 0.74957 0.34281 0.22485 0.0
C623 C 0.7879 0.32803 0.20965 0.0
C624 C 0.74449 0.38469 0.23322 0.0
C625 C 0.82173 0.35499 0.20556 0.0
C626 C 0.81687 0.39668 0.21338 0.0
C627 C 0.77168 0.45422 0.2278 0.0
C628 C 0.73237 0.46946 0.23831 0.0
C629 C 0.77805 0.41202 0.2256 0.0
C630 C 0.69999 0.44205 0.2493 0.0
C631 C 0.7059 0.40003 0.24643 0.0
H632 H 0.47629 0.27284 0.8065 0.0
H633 H 0.45228 0.40113 0.82054 0.0
H634 H 0.37822 0.38751 0.81768 0.0
H635 H 0.32104 0.33851 0.82703 0.0
H636 H 0.34389 0.2101 0.81654 0.0
H637 H 0.41722 0.22419 0.80093 0.0
C638 C 0.45482 0.29783 0.80739 0.0
C639 C 0.46971 0.33784 0.81464 0.0
C640 C 0.41195 0.28968 0.8069 0.0
C641 C 0.44156 0.36998 0.81575 0.0
C642 C 0.39915 0.36224 0.81422 0.0
C643 C 0.34193 0.31376 0.81964 0.0
C644 C 0.32738 0.27341 0.82318 0.0
C645 C 0.38405 0.32211 0.81219 0.0
C646 C 0.3545 0.24143 0.81367 0.0
C647 C 0.39649 0.24951 0.80535 0.0
H648 H 0.30394 0.71787 0.25765 0.0
H649 H 0.19658 0.68657 0.17298 0.0
H650 H 0.20414 0.61468 0.19389 0.0
H651 H 0.24925 0.56062 0.22262 0.0
H652 H 0.35891 0.59174 0.30409 0.0
H653 H 0.34196 0.66375 0.29949 0.0
C654 C 0.28139 0.69533 0.24553 0.0
C655 C 0.24972 0.70699 0.21413 0.0
C656 C 0.28678 0.65405 0.25652 0.0
C657 C 0.22088 0.67792 0.19767 0.0
C658 C 0.22548 0.63689 0.20922 0.0
C659 C 0.26889 0.58307 0.24044 0.0
C660 C 0.30579 0.57094 0.26261 0.0
C661 C 0.25953 0.62447 0.23656 0.0
C662 C 0.33053 0.60027 0.28633 0.0
C663 C 0.32102 0.64154 0.28342 0.0
H664 H 0.5838 0.74059 0.72927 0.0
H665 H 0.52486 0.80688 0.84349 0.0
H666 H 0.59206 0.82038 0.88162 0.0
H667 H 0.66726 0.81067 0.88405 0.0
H668 H 0.72718 0.74826 0.7673 0.0
H669 H 0.66004 0.7353 0.72855 0.0
C670 C 0.58589 0.75766 0.76274 0.0
C671 C 0.54966 0.77135 0.78492 0.0
C672 C 0.62466 0.76567 0.78394 0.0
C673 C 0.55245 0.7949 0.82699 0.0
C674 C 0.59081 0.80284 0.84849 0.0
C675 C 0.66548 0.79438 0.85001 0.0
C676 C 0.70181 0.78009 0.82858 0.0
C677 C 0.62701 0.78777 0.82772 0.0
C678 C 0.69945 0.75946 0.78427 0.0
C679 C 0.66114 0.75199 0.7623 0.0
loop_
_geom_bond_atom_site_label_1
_geom_bond_atom_site_label_2
_geom_bond_distance
_geom_bond_site_symmetry_2
_ccdc_geom_bond_type
O0 Tb1 2.292 . S
O0 C3 1.255 . S
Tb1 O0 2.292 . S
Tb1 O17 2.326 . S
Tb1 O19 2.500 . S
Tb1 O20 2.473 . S
Tb1 O23 2.324 . S
Eu2 O6 2.292 . S
Eu2 C7 2.852 . S
Eu2 O18 2.324 . S
Eu2 O22 2.326 . S
Eu2 O24 2.500 . S
Eu2 O25 2.473 . S
C3 O0 1.255 . S
C3 O4 1.247 . S
O4 C3 1.247 . S
C5 O17 1.242 . S
C5 O18 1.258 . S
O6 Eu2 2.292 . S
O6 C8 1.255 . S
C7 Eu2 2.852 . S
C7 C11 1.503 . S
C7 O24 1.273 . S
C7 O25 1.257 . S
C8 O6 1.255 . S
C8 O9 1.247 . S
O9 C8 1.247 . S
C10 O22 1.242 . S
C10 O23 1.258 . S
C11 C7 1.503 . S
C11 C12 1.379 . S
C11 C16 1.392 . S
C12 C11 1.379 . S
C12 C13 1.404 . S
C12 H26 0.929 . S
C13 C12 1.404 . S
C13 C14 1.389 . S
C14 C13 1.389 . S
C14 C15 1.399 . S
C14 H27 0.931 . S
C15 C14 1.399 . S
C15 C16 1.390 . S
C16 C11 1.392 . S
C16 C15 1.390 . S
C16 H28 0.929 . S
O17 Tb1 2.326 . S
O17 C5 1.242 . S
O18 Eu2 2.324 . S
O18 C5 1.258 . S
O19 Tb1 2.500 . S
O19 C21 1.273 . S
O20 Tb1 2.473 . S
O20 C21 1.257 . S
C21 O19 1.273 . S
C21 O20 1.257 . S
O22 Eu2 2.326 . S
O22 C10 1.242 . S
O23 Tb1 2.324 . S
O23 C10 1.258 . S
O24 Eu2 2.500 . S
O24 C7 1.273 . S
O25 Eu2 2.473 . S
O25 C7 1.257 . S
H26 C12 0.929 . S
H27 C14 0.931 . S
H28 C16 0.929 . S
O29 Tb30 2.292 . S
O29 C32 1.255 . S
Tb30 O29 2.292 . S
Tb30 O46 2.326 . S
Tb30 O48 2.500 . S
Tb30 O49 2.473 . S
Tb30 O52 2.324 . S
Eu31 O35 2.292 . S
Eu31 C36 2.852 . S
Eu31 O47 2.324 . S
Eu31 O51 2.326 . S
Eu31 O53 2.500 . S
Eu31 O54 2.473 . S
C32 O29 1.255 . S
C32 O33 1.247 . S
O33 C32 1.247 . S
C34 O46 1.242 . S
C34 O47 1.258 . S
O35 Eu31 2.292 . S
O35 C37 1.255 . S
C36 Eu31 2.852 . S
C36 C40 1.503 . S
C36 O53 1.273 . S
C36 O54 1.257 . S
C37 O35 1.255 . S
C37 O38 1.247 . S
O38 C37 1.247 . S
C39 O51 1.242 . S
C39 O52 1.258 . S
C40 C36 1.503 . S
C40 C41 1.379 . S
C40 C45 1.392 . S
C41 C40 1.379 . S
C41 C42 1.404 . S
C41 H55 0.929 . S
C42 C41 1.404 . S
C42 C43 1.389 . S
C43 C42 1.389 . S
C43 C44 1.399 . S
C43 H56 0.931 . S
C44 C43 1.399 . S
C44 C45 1.390 . S
C45 C40 1.392 . S
C45 C44 1.390 . S
C45 H57 0.929 . S
O46 Tb30 2.326 . S
O46 C34 1.242 . S
O47 Eu31 2.324 . S
O47 C34 1.258 . S
O48 Tb30 2.500 . S
O48 C50 1.273 . S
O49 Tb30 2.473 . S
O49 C50 1.257 . S
C50 O48 1.273 . S
C50 O49 1.257 . S
O51 Eu31 2.326 . S
O51 C39 1.242 . S
O52 Tb30 2.324 . S
O52 C39 1.258 . S
O53 Eu31 2.500 . S
O53 C36 1.273 . S
O54 Eu31 2.473 . S
O54 C36 1.257 . S
H55 C41 0.929 . S
H56 C43 0.931 . S
H57 C45 0.929 . S
O58 Tb59 2.292 . S
O58 C61 1.255 . S
Tb59 O58 2.292 . S
Tb59 O75 2.326 . S
Tb59 O77 2.500 . S
Tb59 O78 2.473 . S
Tb59 O81 2.324 . S
Eu60 O64 2.292 . S
Eu60 C65 2.852 . S
Eu60 O76 2.324 . S
Eu60 O80 2.326 . S
Eu60 O82 2.500 . S
Eu60 O83 2.473 . S
C61 O58 1.255 . S
C61 O62 1.247 . S
O62 C61 1.247 . S
C63 O75 1.242 . S
C63 O76 1.258 . S
O64 Eu60 2.292 . S
O64 C66 1.255 . S
C65 Eu60 2.852 . S
C65 C69 1.503 . S
C65 O82 1.273 . S
C65 O83 1.257 . S
C66 O64 1.255 . S
C66 O67 1.247 . S
O67 C66 1.247 . S
C68 O80 1.242 . S
C68 O81 1.258 . S
C69 C65 1.503 . S
C69 C70 1.379 . S
C69 C74 1.392 . S
C70 C69 1.379 . S
C70 C71 1.404 . S
C70 H84 0.929 . S
C71 C70 1.404 . S
C71 C72 1.389 . S
C72 C71 1.389 . S
C72 C73 1.399 . S
C72 H85 0.931 . S
C73 C72 1.399 . S
C73 C74 1.390 . S
C74 C69 1.392 . S
C74 C73 1.390 . S
C74 H86 0.929 . S
O75 Tb59 2.326 . S
O75 C63 1.242 . S
O76 Eu60 2.324 . S
O76 C63 1.258 . S
O77 Tb59 2.500 . S
O77 C79 1.273 . S
O78 Tb59 2.473 . S
O78 C79 1.257 . S
C79 O77 1.273 . S
C79 O78 1.257 . S
O80 Eu60 2.326 . S
O80 C68 1.242 . S
O81 Tb59 2.324 . S
O81 C68 1.258 . S
O82 Eu60 2.500 . S
O82 C65 1.273 . S
O83 Eu60 2.473 . S
O83 C65 1.257 . S
H84 C70 0.929 . S
H85 C72 0.931 . S
H86 C74 0.929 . S
O87 Tb88 2.292 . S
O87 C90 1.255 . S
Tb88 O87 2.292 . S
Tb88 O104 2.326 . S
Tb88 O106 2.500 . S
Tb88 O107 2.473 . S
Tb88 O110 2.324 . S
Eu89 O93 2.292 . S
Eu89 C94 2.852 . S
Eu89 O105 2.324 . S
Eu89 O109 2.326 . S
Eu89 O111 2.500 . S
Eu89 O112 2.473 . S
C90 O87 1.255 . S
C90 O91 1.247 . S
O91 C90 1.247 . S
C92 O104 1.242 . S
C92 O105 1.258 . S
O93 Eu89 2.292 . S
O93 C95 1.255 . S
C94 Eu89 2.852 . S
C94 C98 1.503 . S
C94 O111 1.273 . S
C94 O112 1.257 . S
C95 O93 1.255 . S
C95 O96 1.247 . S
O96 C95 1.247 . S
C97 O109 1.242 . S
C97 O110 1.258 . S
C98 C94 1.503 . S
C98 C99 1.379 . S
C98 C103 1.392 . S
C99 C98 1.379 . S
C99 C100 1.404 . S
C99 H113 0.929 . S
C100 C99 1.404 . S
C100 C101 1.389 . S
C101 C100 1.389 . S
C101 C102 1.399 . S
C101 H114 0.931 . S
C102 C101 1.399 . S
C102 C103 1.390 . S
C103 C98 1.392 . S
C103 C102 1.390 . S
C103 H115 0.929 . S
O104 Tb88 2.326 . S
O104 C92 1.242 . S
O105 Eu89 2.324 . S
O105 C92 1.258 . S
O106 Tb88 2.500 . S
O106 C108 1.273 . S
O107 Tb88 2.473 . S
O107 C108 1.257 . S
C108 O106 1.273 . S
C108 O107 1.257 . S
O109 Eu89 2.326 . S
O109 C97 1.242 . S
O110 Tb88 2.324 . S
O110 C97 1.258 . S
O111 Eu89 2.500 . S
O111 C94 1.273 . S
O112 Eu89 2.473 . S
O112 C94 1.257 . S
H113 C99 0.929 . S
H114 C101 0.931 . S
H115 C103 0.929 . S
O116 Tb117 2.292 1_565 S
O116 C119 1.255 . S
Tb117 O116 2.292 1_545 S
Tb117 O133 2.326 . S
Tb117 O135 2.500 1_545 S
Tb117 O136 2.473 . S
Tb117 O139 2.324 . S
Eu118 O122 2.292 . S
Eu118 C123 2.852 . S
Eu118 O134 2.324 . S
Eu118 O138 2.326 . S
Eu118 O140 2.500 . S
Eu118 O141 2.473 . S
C119 O116 1.255 . S
C119 O120 1.247 1_565 S
O120 C119 1.247 1_545 S
C121 O133 1.242 . S
C121 O134 1.258 . S
O122 Eu118 2.292 . S
O122 C124 1.255 . S
C123 Eu118 2.852 . S
C123 C127 1.503 . S
C123 O140 1.273 . S
C123 O141 1.257 . S
C124 O122 1.255 . S
C124 O125 1.247 . S
O125 C124 1.247 . S
C126 O138 1.242 . S
C126 O139 1.258 . S
C127 C123 1.503 . S
C127 C128 1.379 . S
C127 C132 1.392 . S
C128 C127 1.379 . S
C128 C129 1.404 . S
C128 H142 0.929 . S
C129 C128 1.404 . S
C129 C130 1.389 . S
C130 C129 1.389 . S
C130 C131 1.399 . S
C130 H143 0.931 . S
C131 C130 1.399 . S
C131 C132 1.390 . S
C132 C127 1.392 . S
C132 C131 1.390 . S
C132 H144 0.929 . S
O133 Tb117 2.326 . S
O133 C121 1.242 . S
O134 Eu118 2.324 . S
O134 C121 1.258 . S
O135 Tb117 2.500 1_565 S
O135 C137 1.273 . S
O136 Tb117 2.473 . S
O136 C137 1.257 1_545 S
C137 O135 1.273 . S
C137 O136 1.257 1_565 S
O138 Eu118 2.326 . S
O138 C126 1.242 . S
O139 Tb117 2.324 . S
O139 C126 1.258 . S
O140 Eu118 2.500 . S
O140 C123 1.273 . S
O141 Eu118 2.473 . S
O141 C123 1.257 . S
H142 C128 0.929 . S
H143 C130 0.931 . S
H144 C132 0.929 . S
O145 Tb146 2.292 1_655 S
O145 C148 1.255 . S
Tb146 O145 2.292 1_455 S
Tb146 O162 2.326 . S
Tb146 O164 2.500 1_455 S
Tb146 O165 2.473 . S
Tb146 O168 2.324 . S
Eu147 O151 2.292 . S
Eu147 C152 2.852 . S
Eu147 O163 2.324 . S
Eu147 O167 2.326 . S
Eu147 O169 2.500 . S
Eu147 O170 2.473 . S
C148 O145 1.255 . S
C148 O149 1.247 1_655 S
O149 C148 1.247 1_455 S
C150 O162 1.242 . S
C150 O163 1.258 . S
O151 Eu147 2.292 . S
O151 C153 1.255 . S
C152 Eu147 2.852 . S
C152 C156 1.503 . S
C152 O169 1.273 . S
C152 O170 1.257 . S
C153 O151 1.255 . S
C153 O154 1.247 . S
O154 C153 1.247 . S
C155 O167 1.242 . S
C155 O168 1.258 . S
C156 C152 1.503 . S
C156 C157 1.379 . S
C156 C161 1.392 . S
C157 C156 1.379 . S
C157 C158 1.404 . S
C157 H171 0.929 . S
C158 C157 1.404 . S
C158 C159 1.389 . S
C159 C158 1.389 . S
C159 C160 1.399 . S
C159 H172 0.931 . S
C160 C159 1.399 . S
C160 C161 1.390 . S
C161 C156 1.392 . S
C161 C160 1.390 . S
C161 H173 0.929 . S
O162 Tb146 2.326 . S
O162 C150 1.242 . S
O163 Eu147 2.324 . S
O163 C150 1.258 . S
O164 Tb146 2.500 1_655 S
O164 C166 1.273 . S
O165 Tb146 2.473 . S
O165 C166 1.257 1_455 S
C166 O164 1.273 . S
C166 O165 1.257 1_655 S
O167 Eu147 2.326 . S
O167 C155 1.242 . S
O168 Tb146 2.324 . S
O168 C155 1.258 . S
O169 Eu147 2.500 . S
O169 C152 1.273 . S
O170 Eu147 2.473 . S
O170 C152 1.257 . S
H171 C157 0.929 . S
H172 C159 0.931 . S
H173 C161 0.929 . S
O174 Tb175 2.292 1_545 S
O174 C177 1.255 . S
Tb175 O174 2.292 1_565 S
Tb175 O191 2.326 . S
Tb175 O193 2.500 1_565 S
Tb175 O194 2.473 . S
Tb175 O197 2.324 . S
Eu176 O180 2.292 . S
Eu176 C181 2.852 . S
Eu176 O192 2.324 . S
Eu176 O196 2.326 . S
Eu176 O198 2.500 . S
Eu176 O199 2.473 . S
C177 O174 1.255 . S
C177 O178 1.247 1_545 S
O178 C177 1.247 1_565 S
C179 O191 1.242 . S
C179 O192 1.258 . S
O180 Eu176 2.292 . S
O180 C182 1.255 . S
C181 Eu176 2.852 . S
C181 C185 1.503 . S
C181 O198 1.273 . S
C181 O199 1.257 . S
C182 O180 1.255 . S
C182 O183 1.247 . S
O183 C182 1.247 . S
C184 O196 1.242 . S
C184 O197 1.258 . S
C185 C181 1.503 . S
C185 C186 1.379 . S
C185 C190 1.392 . S
C186 C185 1.379 . S
C186 C187 1.404 . S
C186 H200 0.929 . S
C187 C186 1.404 . S
C187 C188 1.389 . S
C188 C187 1.389 . S
C188 C189 1.399 . S
C188 H201 0.931 . S
C189 C188 1.399 . S
C189 C190 1.390 . S
C190 C185 1.392 . S
C190 C189 1.390 . S
C190 H202 0.929 . S
O191 Tb175 2.326 . S
O191 C179 1.242 . S
O192 Eu176 2.324 . S
O192 C179 1.258 . S
O193 Tb175 2.500 1_545 S
O193 C195 1.273 . S
O194 Tb175 2.473 . S
O194 C195 1.257 1_565 S
C195 O193 1.273 . S
C195 O194 1.257 1_545 S
O196 Eu176 2.326 . S
O196 C184 1.242 . S
O197 Tb175 2.324 . S
O197 C184 1.258 . S
O198 Eu176 2.500 . S
O198 C181 1.273 . S
O199 Eu176 2.473 . S
O199 C181 1.257 . S
H200 C186 0.929 . S
H201 C188 0.931 . S
H202 C190 0.929 . S
O203 Tb204 2.292 1_455 S
O203 C206 1.255 . S
Tb204 O203 2.292 1_655 S
Tb204 O220 2.326 . S
Tb204 O222 2.500 1_655 S
Tb204 O223 2.473 . S
Tb204 O226 2.324 . S
Eu205 O209 2.292 . S
Eu205 C210 2.852 . S
Eu205 O221 2.324 . S
Eu205 O225 2.326 . S
Eu205 O227 2.500 . S
Eu205 O228 2.473 . S
C206 O203 1.255 . S
C206 O207 1.247 1_455 S
O207 C206 1.247 1_655 S
C208 O220 1.242 . S
C208 O221 1.258 . S
O209 Eu205 2.292 . S
O209 C211 1.255 . S
C210 Eu205 2.852 . S
C210 C214 1.503 . S
C210 O227 1.273 . S
C210 O228 1.257 . S
C211 O209 1.255 . S
C211 O212 1.247 . S
O212 C211 1.247 . S
C213 O225 1.242 . S
C213 O226 1.258 . S
C214 C210 1.503 . S
C214 C215 1.379 . S
C214 C219 1.392 . S
C215 C214 1.379 . S
C215 C216 1.404 . S
C215 H229 0.929 . S
C216 C215 1.404 . S
C216 C217 1.389 . S
C217 C216 1.389 . S
C217 C218 1.399 . S
C217 H230 0.931 . S
C218 C217 1.399 . S
C218 C219 1.390 . S
C219 C214 1.392 . S
C219 C218 1.390 . S
C219 H231 0.929 . S
O220 Tb204 2.326 . S
O220 C208 1.242 . S
O221 Eu205 2.324 . S
O221 C208 1.258 . S
O222 Tb204 2.500 1_455 S
O222 C224 1.273 . S
O223 Tb204 2.473 . S
O223 C224 1.257 1_655 S
C224 O222 1.273 . S
C224 O223 1.257 1_455 S
O225 Eu205 2.326 . S
O225 C213 1.242 . S
O226 Tb204 2.324 . S
O226 C213 1.258 . S
O227 Eu205 2.500 . S
O227 C210 1.273 . S
O228 Eu205 2.473 . S
O228 C210 1.257 . S
H229 C215 0.929 . S
H230 C217 0.931 . S
H231 C219 0.929 . S
H232 C238 0.930 . S
H233 C241 0.930 . S
H234 C242 0.930 . S
H235 C243 0.930 . S
H236 C246 0.930 . S
H237 C247 0.930 . S
C238 H232 0.930 . S
C238 C239 1.355 1_556 S
C238 C240 1.415 . S
C239 C238 1.355 1_554 S
C239 C241 1.419 . S
C240 C238 1.415 . S
C240 C245 1.425 . S
C240 C247 1.409 . S
C241 H233 0.930 . S
C241 C239 1.419 . S
C241 C242 1.362 1_554 S
C242 H234 0.930 . S
C242 C241 1.362 1_556 S
C242 C245 1.409 . S
C243 H235 0.930 . S
C243 C244 1.355 . S
C243 C245 1.415 . S
C244 C243 1.355 . S
C244 C246 1.419 . S
C245 C240 1.425 . S
C245 C242 1.409 . S
C245 C243 1.415 . S
C246 H236 0.930 . S
C246 C244 1.419 . S
C246 C247 1.362 . S
C247 H237 0.930 . S
C247 C240 1.409 . S
C247 C246 1.362 . S
H248 C254 0.930 . S
H249 C257 0.930 . S
H250 C258 0.930 . S
H251 C259 0.930 . S
H252 C262 0.930 . S
H253 C263 0.930 . S
C254 H248 0.930 . S
C254 C255 1.355 1_554 S
C254 C256 1.415 . S
C255 C254 1.355 1_556 S
C255 C257 1.419 . S
C256 C254 1.415 . S
C256 C261 1.425 . S
C256 C263 1.409 . S
C257 H249 0.930 . S
C257 C255 1.419 . S
C257 C258 1.362 1_556 S
C258 H250 0.930 . S
C258 C257 1.362 1_554 S
C258 C261 1.409 . S
C259 H251 0.930 . S
C259 C260 1.355 . S
C259 C261 1.415 . S
C260 C259 1.355 . S
C260 C262 1.419 . S
C261 C256 1.425 . S
C261 C258 1.409 . S
C261 C259 1.415 . S
C262 H252 0.930 . S
C262 C260 1.419 . S
C262 C263 1.362 . S
C263 H253 0.930 . S
C263 C256 1.409 . S
C263 C262 1.362 . S
H264 C270 0.930 . S
H265 C273 0.930 . S
H266 C274 0.930 . S
H267 C275 0.930 . S
H268 C278 0.930 . S
H269 C279 0.930 . S
C270 H264 0.930 . S
C270 C271 1.355 . S
C270 C272 1.415 . S
C271 C270 1.355 . S
C271 C273 1.419 . S
C272 C270 1.415 . S
C272 C277 1.425 . S
C272 C279 1.409 . S
C273 H265 0.930 . S
C273 C271 1.419 . S
C273 C274 1.362 . S
C274 H266 0.930 . S
C274 C273 1.362 . S
C274 C277 1.409 . S
C275 H267 0.930 . S
C275 C276 1.355 1_556 S
C275 C277 1.415 . S
C276 C275 1.355 1_554 S
C276 C278 1.419 . S
C277 C272 1.425 . S
C277 C274 1.409 . S
C277 C275 1.415 . S
C278 H268 0.930 . S
C278 C276 1.419 . S
C278 C279 1.362 1_554 S
C279 H269 0.930 . S
C279 C272 1.409 . S
C279 C278 1.362 1_556 S
H280 C286 0.930 . S
H281 C289 0.930 . S
H282 C290 0.930 . S
H283 C291 0.930 1_556 S
H284 C294 0.930 . S
H285 C295 0.930 . S
C286 H280 0.930 . S
C286 C287 1.355 . S
C286 C288 1.415 . S
C287 C286 1.355 . S
C287 C289 1.419 . S
C288 C286 1.415 . S
C288 C293 1.425 . S
C288 C295 1.409 . S
C289 H281 0.930 . S
C289 C287 1.419 . S
C289 C290 1.362 . S
C290 H282 0.930 . S
C290 C289 1.362 . S
C290 C293 1.409 . S
C291 H283 0.930 1_554 S
C291 C292 1.355 1_554 S
C291 C293 1.415 . S
C292 C291 1.355 1_556 S
C292 C294 1.419 . S
C293 C288 1.425 . S
C293 C290 1.409 . S
C293 C291 1.415 . S
C294 H284 0.930 . S
C294 C292 1.419 . S
C294 C295 1.362 1_556 S
C295 H285 0.930 . S
C295 C288 1.409 . S
C295 C294 1.362 1_554 S
H296 C302 0.930 . S
H297 C305 0.930 . S
H298 C306 0.930 . S
H299 C307 0.930 . S
H300 C310 0.930 . S
H301 C311 0.930 . S
C302 H296 0.930 . S
C302 C303 1.355 . S
C302 C304 1.415 . S
C303 C302 1.355 . S
C303 C305 1.419 . S
C304 C302 1.415 . S
C304 C309 1.425 . S
C304 C311 1.409 . S
C305 H297 0.930 . S
C305 C303 1.419 . S
C305 C306 1.362 . S
C306 H298 0.930 . S
C306 C305 1.362 . S
C306 C309 1.409 . S
C307 H299 0.930 . S
C307 C308 1.355 . S
C307 C309 1.415 . S
C308 C307 1.355 . S
C308 C310 1.419 . S
C309 C304 1.425 . S
C309 C306 1.409 . S
C309 C307 1.415 . S
C310 H300 0.930 . S
C310 C308 1.419 . S
C310 C311 1.362 . S
C311 H301 0.930 . S
C311 C304 1.409 . S
C311 C310 1.362 . S
H312 C318 0.930 . S
H313 C321 0.930 . S
H314 C322 0.930 . S
H315 C323 0.930 . S
H316 C326 0.930 . S
H317 C327 0.930 . S
C318 H312 0.930 . S
C318 C319 1.355 . S
C318 C320 1.415 . S
C319 C318 1.355 . S
C319 C321 1.419 . S
C320 C318 1.415 . S
C320 C325 1.425 . S
C320 C327 1.409 . S
C321 H313 0.930 . S
C321 C319 1.419 . S
C321 C322 1.362 . S
C322 H314 0.930 . S
C322 C321 1.362 . S
C322 C325 1.409 . S
C323 H315 0.930 . S
C323 C324 1.355 . S
C323 C325 1.415 . S
C324 C323 1.355 . S
C324 C326 1.419 . S
C325 C320 1.425 . S
C325 C322 1.409 . S
C325 C323 1.415 . S
C326 H316 0.930 . S
C326 C324 1.419 . S
C326 C327 1.362 . S
C327 H317 0.930 . S
C327 C320 1.409 . S
C327 C326 1.362 . S
H328 C334 0.930 . S
H329 C337 0.930 . S
H330 C338 0.930 . S
H331 C339 0.930 . S
H332 C342 0.930 . S
H333 C343 0.930 . S
C334 H328 0.930 . S
C334 C335 1.355 . S
C334 C336 1.415 . S
C335 C334 1.355 . S
C335 C337 1.419 . S
C336 C334 1.415 . S
C336 C341 1.425 . S
C336 C343 1.409 . S
C337 H329 0.930 . S
C337 C335 1.419 . S
C337 C338 1.362 . S
C338 H330 0.930 . S
C338 C337 1.362 . S
C338 C341 1.409 . S
C339 H331 0.930 . S
C339 C340 1.355 . S
C339 C341 1.415 . S
C340 C339 1.355 . S
C340 C342 1.419 . S
C341 C336 1.425 . S
C341 C338 1.409 . S
C341 C339 1.415 . S
C342 H332 0.930 . S
C342 C340 1.419 . S
C342 C343 1.362 . S
C343 H333 0.930 . S
C343 C336 1.409 . S
C343 C342 1.362 . S
H344 C350 0.930 . S
H345 C353 0.930 . S
H346 C354 0.930 . S
H347 C355 0.930 . S
H348 C358 0.930 . S
H349 C359 0.930 . S
C350 H344 0.930 . S
C350 C351 1.355 . S
C350 C352 1.415 . S
C351 C350 1.355 . S
C351 C353 1.419 . S
C352 C350 1.415 . S
C352 C357 1.425 . S
C352 C359 1.409 . S
C353 H345 0.930 . S
C353 C351 1.419 . S
C353 C354 1.362 . S
C354 H346 0.930 . S
C354 C353 1.362 . S
C354 C357 1.409 . S
C355 H347 0.930 . S
C355 C356 1.355 . S
C355 C357 1.415 . S
C356 C355 1.355 . S
C356 C358 1.419 . S
C357 C352 1.425 . S
C357 C354 1.409 . S
C357 C355 1.415 . S
C358 H348 0.930 . S
C358 C356 1.419 . S
C358 C359 1.362 . S
C359 H349 0.930 . S
C359 C352 1.409 . S
C359 C358 1.362 . S
H360 C366 0.930 1_554 S
H361 C369 0.930 . S
H362 C370 0.930 . S
H363 C371 0.930 . S
H364 C374 0.930 . S
H365 C375 0.930 . S
C366 H360 0.930 1_556 S
C366 C367 1.355 . S
C366 C368 1.415 1_556 S
C367 C366 1.355 . S
C367 C369 1.419 . S
C368 C366 1.415 1_554 S
C368 C373 1.425 1_554 S
C368 C375 1.409 . S
C369 H361 0.930 . S
C369 C367 1.419 . S
C369 C370 1.362 . S
C370 H362 0.930 . S
C370 C369 1.362 . S
C370 C373 1.409 . S
C371 H363 0.930 . S
C371 C372 1.355 1_556 S
C371 C373 1.415 . S
C372 C371 1.355 1_554 S
C372 C374 1.419 . S
C373 C368 1.425 1_556 S
C373 C370 1.409 . S
C373 C371 1.415 . S
C374 H364 0.930 . S
C374 C372 1.419 . S
C374 C375 1.362 . S
C375 H365 0.930 . S
C375 C368 1.409 . S
C375 C374 1.362 . S
H376 C382 0.930 . S
H377 C385 0.930 . S
H378 C386 0.930 . S
H379 C387 0.930 . S
H380 C390 0.930 . S
H381 C391 0.930 . S
C382 H376 0.930 . S
C382 C383 1.355 . S
C382 C384 1.415 . S
C383 C382 1.355 . S
C383 C385 1.419 . S
C384 C382 1.415 . S
C384 C389 1.425 1_554 S
C384 C391 1.409 . S
C385 H377 0.930 . S
C385 C383 1.419 . S
C385 C386 1.362 1_554 S
C386 H378 0.930 . S
C386 C385 1.362 1_556 S
C386 C389 1.409 . S
C387 H379 0.930 . S
C387 C388 1.355 . S
C387 C389 1.415 . S
C388 C387 1.355 . S
C388 C390 1.419 1_556 S
C389 C384 1.425 1_556 S
C389 C386 1.409 . S
C389 C387 1.415 . S
C390 H380 0.930 . S
C390 C388 1.419 1_554 S
C390 C391 1.362 . S
C391 H381 0.930 . S
C391 C384 1.409 . S
C391 C390 1.362 . S
H392 C398 0.930 1_554 S
H393 C401 0.930 . S
H394 C402 0.930 . S
H395 C403 0.930 . S
H396 C406 0.930 . S
H397 C407 0.930 . S
C398 H392 0.930 1_556 S
C398 C399 1.355 . S
C398 C400 1.415 1_556 S
C399 C398 1.355 . S
C399 C401 1.419 . S
C400 C398 1.415 1_554 S
C400 C405 1.425 1_554 S
C400 C407 1.409 . S
C401 H393 0.930 . S
C401 C399 1.419 . S
C401 C402 1.362 . S
C402 H394 0.930 . S
C402 C401 1.362 . S
C402 C405 1.409 . S
C403 H395 0.930 . S
C403 C404 1.355 1_556 S
C403 C405 1.415 . S
C404 C403 1.355 1_554 S
C404 C406 1.419 . S
C405 C400 1.425 1_556 S
C405 C402 1.409 . S
C405 C403 1.415 . S
C406 H396 0.930 . S
C406 C404 1.419 . S
C406 C407 1.362 . S
C407 H397 0.930 . S
C407 C400 1.409 . S
C407 C406 1.362 . S
H408 C414 0.930 . S
H409 C417 0.930 . S
H410 C418 0.930 . S
H411 C419 0.930 . S
H412 C422 0.930 . S
H413 C423 0.930 1_556 S
C414 H408 0.930 . S
C414 C415 1.355 . S
C414 C416 1.415 1_556 S
C415 C414 1.355 . S
C415 C417 1.419 . S
C416 C414 1.415 1_554 S
C416 C421 1.425 . S
C416 C423 1.409 . S
C417 H409 0.930 . S
C417 C415 1.419 . S
C417 C418 1.362 1_556 S
C418 H410 0.930 . S
C418 C417 1.362 1_554 S
C418 C421 1.409 . S
C419 H411 0.930 . S
C419 C420 1.355 . S
C419 C421 1.415 . S
C420 C419 1.355 . S
C420 C422 1.419 . S
C421 C416 1.425 . S
C421 C418 1.409 . S
C421 C419 1.415 . S
C422 H412 0.930 . S
C422 C420 1.419 . S
C422 C423 1.362 . S
C423 H413 0.930 1_554 S
C423 C416 1.409 . S
C423 C422 1.362 . S
H424 C430 0.930 . S
H425 C433 0.930 . S
H426 C434 0.930 . S
H427 C435 0.930 . S
H428 C438 0.930 . S
H429 C439 0.930 . S
C430 H424 0.930 . S
C430 C431 1.355 . S
C430 C432 1.415 . S
C431 C430 1.355 . S
C431 C433 1.419 . S
C432 C430 1.415 . S
C432 C437 1.425 . S
C432 C439 1.409 . S
C433 H425 0.930 . S
C433 C431 1.419 . S
C433 C434 1.362 . S
C434 H426 0.930 . S
C434 C433 1.362 . S
C434 C437 1.409 . S
C435 H427 0.930 . S
C435 C436 1.355 . S
C435 C437 1.415 . S
C436 C435 1.355 . S
C436 C438 1.419 . S
C437 C432 1.425 . S
C437 C434 1.409 . S
C437 C435 1.415 . S
C438 H428 0.930 . S
C438 C436 1.419 . S
C438 C439 1.362 . S
C439 H429 0.930 . S
C439 C432 1.409 . S
C439 C438 1.362 . S
H440 C446 0.930 . S
H441 C449 0.930 . S
H442 C450 0.930 . S
H443 C451 0.930 . S
H444 C454 0.930 1_565 S
H445 C455 0.930 . S
C446 H440 0.930 . S
C446 C447 1.355 . S
C446 C448 1.415 . S
C447 C446 1.355 . S
C447 C449 1.419 . S
C448 C446 1.415 . S
C448 C453 1.425 . S
C448 C455 1.409 . S
C449 H441 0.930 . S
C449 C447 1.419 . S
C449 C450 1.362 . S
C450 H442 0.930 . S
C450 C449 1.362 . S
C450 C453 1.409 . S
C451 H443 0.930 . S
C451 C452 1.355 . S
C451 C453 1.415 . S
C452 C451 1.355 . S
C452 C454 1.419 . S
C453 C448 1.425 . S
C453 C450 1.409 . S
C453 C451 1.415 . S
C454 H444 0.930 1_545 S
C454 C452 1.419 . S
C454 C455 1.362 . S
C455 H445 0.930 . S
C455 C448 1.409 . S
C455 C454 1.362 . S
H456 C462 0.930 . S
H457 C465 0.930 . S
H458 C466 0.930 . S
H459 C467 0.930 . S
H460 C470 0.930 1_655 S
H461 C471 0.930 . S
C462 H456 0.930 . S
C462 C463 1.355 . S
C462 C464 1.415 . S
C463 C462 1.355 . S
C463 C465 1.419 . S
C464 C462 1.415 . S
C464 C469 1.425 . S
C464 C471 1.409 . S
C465 H457 0.930 . S
C465 C463 1.419 . S
C465 C466 1.362 . S
C466 H458 0.930 . S
C466 C465 1.362 . S
C466 C469 1.409 . S
C467 H459 0.930 . S
C467 C468 1.355 . S
C467 C469 1.415 . S
C468 C467 1.355 . S
C468 C470 1.419 . S
C469 C464 1.425 . S
C469 C466 1.409 . S
C469 C467 1.415 . S
C470 H460 0.930 1_455 S
C470 C468 1.419 . S
C470 C471 1.362 . S
C471 H461 0.930 . S
C471 C464 1.409 . S
C471 C470 1.362 . S
H472 C478 0.930 . S
H473 C481 0.930 . S
H474 C482 0.930 . S
H475 C483 0.930 . S
H476 C486 0.930 . S
H477 C487 0.930 . S
C478 H472 0.930 . S
C478 C479 1.355 . S
C478 C480 1.415 . S
C479 C478 1.355 . S
C479 C481 1.419 . S
C480 C478 1.415 . S
C480 C485 1.425 . S
C480 C487 1.409 . S
C481 H473 0.930 . S
C481 C479 1.419 . S
C481 C482 1.362 . S
C482 H474 0.930 . S
C482 C481 1.362 . S
C482 C485 1.409 . S
C483 H475 0.930 . S
C483 C484 1.355 . S
C483 C485 1.415 . S
C484 C483 1.355 . S
C484 C486 1.419 . S
C485 C480 1.425 . S
C485 C482 1.409 . S
C485 C483 1.415 . S
C486 H476 0.930 . S
C486 C484 1.419 . S
C486 C487 1.362 . S
C487 H477 0.930 . S
C487 C480 1.409 . S
C487 C486 1.362 . S
H488 C494 0.930 . S
H489 C497 0.930 . S
H490 C498 0.930 . S
H491 C499 0.930 . S
H492 C502 0.930 . S
H493 C503 0.930 . S
C494 H488 0.930 . S
C494 C495 1.355 . S
C494 C496 1.415 . S
C495 C494 1.355 . S
C495 C497 1.419 . S
C496 C494 1.415 . S
C496 C501 1.425 . S
C496 C503 1.409 . S
C497 H489 0.930 . S
C497 C495 1.419 . S
C497 C498 1.362 . S
C498 H490 0.930 . S
C498 C497 1.362 . S
C498 C501 1.409 . S
C499 H491 0.930 . S
C499 C500 1.355 . S
C499 C501 1.415 . S
C500 C499 1.355 . S
C500 C502 1.419 . S
C501 C496 1.425 . S
C501 C498 1.409 . S
C501 C499 1.415 . S
C502 H492 0.930 . S
C502 C500 1.419 . S
C502 C503 1.362 . S
C503 H493 0.930 . S
C503 C496 1.409 . S
C503 C502 1.362 . S
H504 C510 0.930 . S
H505 C513 0.930 . S
H506 C514 0.930 . S
H507 C515 0.930 . S
H508 C518 0.930 . S
H509 C519 0.930 . S
C510 H504 0.930 . S
C510 C511 1.355 . S
C510 C512 1.415 . S
C511 C510 1.355 . S
C511 C513 1.419 . S
C512 C510 1.415 . S
C512 C517 1.425 . S
C512 C519 1.409 . S
C513 H505 0.930 . S
C513 C511 1.419 . S
C513 C514 1.362 . S
C514 H506 0.930 . S
C514 C513 1.362 . S
C514 C517 1.409 . S
C515 H507 0.930 . S
C515 C516 1.355 . S
C515 C517 1.415 . S
C516 C515 1.355 . S
C516 C518 1.419 . S
C517 C512 1.425 . S
C517 C514 1.409 . S
C517 C515 1.415 . S
C518 H508 0.930 . S
C518 C516 1.419 . S
C518 C519 1.362 . S
C519 H509 0.930 . S
C519 C512 1.409 . S
C519 C518 1.362 . S
H520 C526 0.930 . S
H521 C529 0.930 . S
H522 C530 0.930 . S
H523 C531 0.930 . S
H524 C534 0.930 . S
H525 C535 0.930 . S
C526 H520 0.930 . S
C526 C527 1.355 . S
C526 C528 1.415 . S
C527 C526 1.355 . S
C527 C529 1.419 1_545 S
C528 C526 1.415 . S
C528 C533 1.425 1_645 S
C528 C535 1.409 1_655 S
C529 H521 0.930 . S
C529 C527 1.419 1_565 S
C529 C530 1.362 . S
C530 H522 0.930 . S
C530 C529 1.362 . S
C530 C533 1.409 1_655 S
C531 H523 0.930 . S
C531 C532 1.355 . S
C531 C533 1.415 . S
C532 C531 1.355 . S
C532 C534 1.419 1_565 S
C533 C528 1.425 1_465 S
C533 C530 1.409 1_455 S
C533 C531 1.415 . S
C534 H524 0.930 . S
C534 C532 1.419 1_545 S
C534 C535 1.362 . S
C535 H525 0.930 . S
C535 C528 1.409 1_455 S
C535 C534 1.362 . S
H536 C542 0.930 . S
H537 C545 0.930 . S
H538 C546 0.930 . S
H539 C547 0.930 . S
H540 C550 0.930 . S
H541 C551 0.930 . S
C542 H536 0.930 . S
C542 C543 1.355 . S
C542 C544 1.415 . S
C543 C542 1.355 . S
C543 C545 1.419 1_455 S
C544 C542 1.415 . S
C544 C549 1.425 1_445 S
C544 C551 1.409 1_545 S
C545 H537 0.930 . S
C545 C543 1.419 1_655 S
C545 C546 1.362 . S
C546 H538 0.930 . S
C546 C545 1.362 . S
C546 C549 1.409 1_545 S
C547 H539 0.930 . S
C547 C548 1.355 . S
C547 C549 1.415 . S
C548 C547 1.355 . S
C548 C550 1.419 1_655 S
C549 C544 1.425 1_665 S
C549 C546 1.409 1_565 S
C549 C547 1.415 . S
C550 H540 0.930 . S
C550 C548 1.419 1_455 S
C550 C551 1.362 . S
C551 H541 0.930 . S
C551 C544 1.409 1_565 S
C551 C550 1.362 . S
H552 C558 0.930 . S
H553 C561 0.930 . S
H554 C562 0.930 . S
H555 C563 0.930 . S
H556 C566 0.930 . S
H557 C567 0.930 . S
C558 H552 0.930 . S
C558 C559 1.355 . S
C558 C560 1.415 . S
C559 C558 1.355 . S
C559 C561 1.419 . S
C560 C558 1.415 . S
C560 C565 1.425 . S
C560 C567 1.409 . S
C561 H553 0.930 . S
C561 C559 1.419 . S
C561 C562 1.362 . S
C562 H554 0.930 . S
C562 C561 1.362 . S
C562 C565 1.409 . S
C563 H555 0.930 . S
C563 C564 1.355 . S
C563 C565 1.415 . S
C564 C563 1.355 . S
C564 C566 1.419 . S
C565 C560 1.425 . S
C565 C562 1.409 . S
C565 C563 1.415 . S
C566 H556 0.930 . S
C566 C564 1.419 . S
C566 C567 1.362 . S
C567 H557 0.930 . S
C567 C560 1.409 . S
C567 C566 1.362 . S
H568 C574 0.930 . S
H569 C577 0.930 . S
H570 C578 0.930 . S
H571 C579 0.930 . S
H572 C582 0.930 . S
H573 C583 0.930 . S
C574 H568 0.930 . S
C574 C575 1.355 . S
C574 C576 1.415 . S
C575 C574 1.355 . S
C575 C577 1.419 . S
C576 C574 1.415 . S
C576 C581 1.425 . S
C576 C583 1.409 . S
C577 H569 0.930 . S
C577 C575 1.419 . S
C577 C578 1.362 . S
C578 H570 0.930 . S
C578 C577 1.362 . S
C578 C581 1.409 . S
C579 H571 0.930 . S
C579 C580 1.355 . S
C579 C581 1.415 . S
C580 C579 1.355 . S
C580 C582 1.419 . S
C581 C576 1.425 . S
C581 C578 1.409 . S
C581 C579 1.415 . S
C582 H572 0.930 . S
C582 C580 1.419 . S
C582 C583 1.362 . S
C583 H573 0.930 . S
C583 C576 1.409 . S
C583 C582 1.362 . S
H584 C590 0.930 . S
H585 C593 0.930 . S
H586 C594 0.930 . S
H587 C595 0.930 . S
H588 C598 0.930 . S
H589 C599 0.930 . S
C590 H584 0.930 . S
C590 C591 1.355 . S
C590 C592 1.415 . S
C591 C590 1.355 . S
C591 C593 1.419 . S
C592 C590 1.415 . S
C592 C597 1.425 . S
C592 C599 1.409 . S
C593 H585 0.930 . S
C593 C591 1.419 . S
C593 C594 1.362 . S
C594 H586 0.930 . S
C594 C593 1.362 . S
C594 C597 1.409 . S
C595 H587 0.930 . S
C595 C596 1.355 . S
C595 C597 1.415 . S
C596 C595 1.355 . S
C596 C598 1.419 . S
C597 C592 1.425 . S
C597 C594 1.409 . S
C597 C595 1.415 . S
C598 H588 0.930 . S
C598 C596 1.419 . S
C598 C599 1.362 . S
C599 H589 0.930 . S
C599 C592 1.409 . S
C599 C598 1.362 . S
H600 C606 0.930 . S
H601 C609 0.930 . S
H602 C610 0.930 . S
H603 C611 0.930 . S
H604 C614 0.930 . S
H605 C615 0.930 . S
C606 H600 0.930 . S
C606 C607 1.355 . S
C606 C608 1.415 . S
C607 C606 1.355 . S
C607 C609 1.419 . S
C608 C606 1.415 . S
C608 C613 1.425 . S
C608 C615 1.409 . S
C609 H601 0.930 . S
C609 C607 1.419 . S
C609 C610 1.362 . S
C610 H602 0.930 . S
C610 C609 1.362 . S
C610 C613 1.409 . S
C611 H603 0.930 . S
C611 C612 1.355 . S
C611 C613 1.415 . S
C612 C611 1.355 . S
C612 C614 1.419 . S
C613 C608 1.425 . S
C613 C610 1.409 . S
C613 C611 1.415 . S
C614 H604 0.930 . S
C614 C612 1.419 . S
C614 C615 1.362 . S
C615 H605 0.930 . S
C615 C608 1.409 . S
C615 C614 1.362 . S
H616 C622 0.930 . S
H617 C625 0.930 . S
H618 C626 0.930 . S
H619 C627 0.930 . S
H620 C630 0.930 . S
H621 C631 0.930 . S
C622 H616 0.930 . S
C622 C623 1.355 . S
C622 C624 1.415 . S
C623 C622 1.355 . S
C623 C625 1.419 . S
C624 C622 1.415 . S
C624 C629 1.425 . S
C624 C631 1.409 . S
C625 H617 0.930 . S
C625 C623 1.419 . S
C625 C626 1.362 . S
C626 H618 0.930 . S
C626 C625 1.362 . S
C626 C629 1.409 . S
C627 H619 0.930 . S
C627 C628 1.355 . S
C627 C629 1.415 . S
C628 C627 1.355 . S
C628 C630 1.419 . S
C629 C624 1.425 . S
C629 C626 1.409 . S
C629 C627 1.415 . S
C630 H620 0.930 . S
C630 C628 1.419 . S
C630 C631 1.362 . S
C631 H621 0.930 . S
C631 C624 1.409 . S
C631 C630 1.362 . S
H632 C638 0.930 . S
H633 C641 0.930 . S
H634 C642 0.930 . S
H635 C643 0.930 . S
H636 C646 0.930 . S
H637 C647 0.930 . S
C638 H632 0.930 . S
C638 C639 1.355 . S
C638 C640 1.415 . S
C639 C638 1.355 . S
C639 C641 1.419 . S
C640 C638 1.415 . S
C640 C645 1.425 . S
C640 C647 1.409 . S
C641 H633 0.930 . S
C641 C639 1.419 . S
C641 C642 1.362 . S
C642 H634 0.930 . S
C642 C641 1.362 . S
C642 C645 1.409 . S
C643 H635 0.930 . S
C643 C644 1.355 . S
C643 C645 1.415 . S
C644 C643 1.355 . S
C644 C646 1.419 . S
C645 C640 1.425 . S
C645 C642 1.409 . S
C645 C643 1.415 . S
C646 H636 0.930 . S
C646 C644 1.419 . S
C646 C647 1.362 . S
C647 H637 0.930 . S
C647 C640 1.409 . S
C647 C646 1.362 . S
H648 C654 0.930 . S
H649 C657 0.930 . S
H650 C658 0.930 . S
H651 C659 0.930 . S
H652 C662 0.930 . S
H653 C663 0.930 . S
C654 H648 0.930 . S
C654 C655 1.355 . S
C654 C656 1.415 . S
C655 C654 1.355 . S
C655 C657 1.419 . S
C656 C654 1.415 . S
C656 C661 1.425 . S
C656 C663 1.409 . S
C657 H649 0.930 . S
C657 C655 1.419 . S
C657 C658 1.362 . S
C658 H650 0.930 . S
C658 C657 1.362 . S
C658 C661 1.409 . S
C659 H651 0.930 . S
C659 C660 1.355 . S
C659 C661 1.415 . S
C660 C659 1.355 . S
C660 C662 1.419 . S
C661 C656 1.425 . S
C661 C658 1.409 . S
C661 C659 1.415 . S
C662 H652 0.930 . S
C662 C660 1.419 . S
C662 C663 1.362 . S
C663 H653 0.930 . S
C663 C656 1.409 . S
C663 C662 1.362 . S
H664 C670 0.930 . S
H665 C673 0.930 . S
H666 C674 0.930 . S
H667 C675 0.930 . S
H668 C678 0.930 . S
H669 C679 0.930 . S
C670 H664 0.930 . S
C670 C671 1.355 . S
C670 C672 1.415 . S
C671 C670 1.355 . S
C671 C673 1.419 . S
C672 C670 1.415 . S
C672 C677 1.425 . S
C672 C679 1.409 . S
C673 H665 0.930 . S
C673 C671 1.419 . S
C673 C674 1.362 . S
C674 H666 0.930 . S
C674 C673 1.362 . S
C674 C677 1.409 . S
C675 H667 0.930 . S
C675 C676 1.355 . S
C675 C677 1.415 . S
C676 C675 1.355 . S
C676 C678 1.419 . S
C677 C672 1.425 . S
C677 C674 1.409 . S
C677 C675 1.415 . S
C678 H668 0.930 . S
C678 C676 1.419 . S
C678 C679 1.362 . S
C679 H669 0.930 . S
C679 C672 1.409 . S
C679 C678 1.362 . S
C239 C10 2.317 . S
C244 C158 2.151 . S
C255 C39 2.335 . S
C260 C187 2.206 . S
C271 C216 2.159 . S
C276 C68 2.327 . S
C287 C129 2.160 . S
C292 C97 2.294 . S
C303 C126 2.333 . S
C308 C100 2.170 . S
C319 C155 2.305 . S
C324 C13 2.222 . S
C335 C184 2.319 . S
C340 C42 2.224 . S
C351 C213 2.295 . S
C356 C71 2.159 . S
C367 C108 0.620 . S
C372 C8 0.720 . S
C383 C21 0.572 . S
C388 C37 0.642 . S
C399 C50 0.650 . S
C404 C66 0.753 . S
C415 C95 0.874 . S
C420 C79 0.774 . S
C431 C124 0.797 . S
C436 C166 0.693 . S
C447 C153 0.704 . S
C452 C195 0.636 . S
C463 C182 0.643 . S
C468 C224 0.573 . S
C479 C137 0.785 . S
C484 C211 0.883 . S
C495 C5 2.866 . S
C500 C63 2.881 . S
C511 C34 2.881 . S
C516 C92 2.866 . S
C527 C121 2.916 . S
C532 C179 2.918 . S
C543 C150 2.881 . S
C548 C208 2.917 . S
C559 C177 1.445 . S
C564 C15 1.496 . S
C575 C44 1.471 . S
C580 C206 1.491 . S
C591 C73 1.471 . S
C596 C119 1.492 . S
C607 C148 1.449 . S
C612 C102 1.469 . S
C623 C131 1.464 . S
C628 C61 1.462 . S
C639 C90 1.486 . S
C644 C160 1.466 . S
C655 C189 1.471 . S
C660 C3 1.492 . S
C671 C32 1.448 . S
C676 C218 1.499 . S
