# Generated by pormake.
# Topology wkd, (5)-cn, num edge types: 1
# Building blocks:
#     Node 0, Type 0, BuildingBlock: XOMCOT_clean_sbu_1, # of connection points: 5
#     Node 1, Type 0, BuildingBlock: XOMCOT_clean_sbu_1, # of connection points: 5
#     Node 2, Type 0, BuildingBlock: XOMCOT_clean_sbu_1, # of connection points: 5
#     Node 3, Type 0, BuildingBlock: XOMCOT_clean_sbu_1, # of connection points: 5
#     Node 4, Type 0, BuildingBlock: XOMCOT_clean_sbu_1, # of connection points: 5
#     Node 5, Type 0, BuildingBlock: XOMCOT_clean_sbu_1, # of connection points: 5
#     Node 6, Type 0, BuildingBlock: XOMCOT_clean_sbu_1, # of connection points: 5
#     Node 7, Type 0, BuildingBlock: XOMCOT_clean_sbu_1, # of connection points: 5
#     Node 8, Type 0, BuildingBlock: XOMCOT_clean_sbu_1, # of connection points: 5
#     Node 9, Type 0, BuildingBlock: XOMCOT_clean_sbu_1, # of connection points: 5
#     Node 10, Type 0, BuildingBlock: XOMCOT_clean_sbu_1, # of connection points: 5
#     Node 11, Type 0, BuildingBlock: XOMCOT_clean_sbu_1, # of connection points: 5
#     Edge 12, Type (0, 0), BuildingBlock: XIVTED_clean_linker_0, # of connection points: 2
#     Edge 13, Type (0, 0), BuildingBlock: XIVTED_clean_linker_0, # of connection points: 2
#     Edge 14, Type (0, 0), BuildingBlock: XIVTED_clean_linker_0, # of connection points: 2
#     Edge 15, Type (0, 0), BuildingBlock: XIVTED_clean_linker_0, # of connection points: 2
#     Edge 16, Type (0, 0), BuildingBlock: XIVTED_clean_linker_0, # of connection points: 2
#     Edge 17, Type (0, 0), BuildingBlock: XIVTED_clean_linker_0, # of connection points: 2
#     Edge 18, Type (0, 0), BuildingBlock: XIVTED_clean_linker_0, # of connection points: 2
#     Edge 19, Type (0, 0), BuildingBlock: XIVTED_clean_linker_0, # of connection points: 2
#     Edge 20, Type (0, 0), BuildingBlock: XIVTED_clean_linker_0, # of connection points: 2
#     Edge 21, Type (0, 0), BuildingBlock: XIVTED_clean_linker_0, # of connection points: 2
#     Edge 22, Type (0, 0), BuildingBlock: XIVTED_clean_linker_0, # of connection points: 2
#     Edge 23, Type (0, 0), BuildingBlock: XIVTED_clean_linker_0, # of connection points: 2
#     Edge 24, Type (0, 0), BuildingBlock: XIVTED_clean_linker_0, # of connection points: 2
#     Edge 25, Type (0, 0), BuildingBlock: XIVTED_clean_linker_0, # of connection points: 2
#     Edge 26, Type (0, 0), BuildingBlock: XIVTED_clean_linker_0, # of connection points: 2
#     Edge 27, Type (0, 0), BuildingBlock: XIVTED_clean_linker_0, # of connection points: 2
#     Edge 28, Type (0, 0), BuildingBlock: XIVTED_clean_linker_0, # of connection points: 2
#     Edge 29, Type (0, 0), BuildingBlock: XIVTED_clean_linker_0, # of connection points: 2
#     Edge 30, Type (0, 0), BuildingBlock: XIVTED_clean_linker_0, # of connection points: 2
#     Edge 31, Type (0, 0), BuildingBlock: XIVTED_clean_linker_0, # of connection points: 2
#     Edge 32, Type (0, 0), BuildingBlock: XIVTED_clean_linker_0, # of connection points: 2
#     Edge 33, Type (0, 0), BuildingBlock: XIVTED_clean_linker_0, # of connection points: 2
#     Edge 34, Type (0, 0), BuildingBlock: XIVTED_clean_linker_0, # of connection points: 2
#     Edge 35, Type (0, 0), BuildingBlock: XIVTED_clean_linker_0, # of connection points: 2
#     Edge 36, Type (0, 0), BuildingBlock: XIVTED_clean_linker_0, # of connection points: 2
#     Edge 37, Type (0, 0), BuildingBlock: XIVTED_clean_linker_0, # of connection points: 2
#     Edge 38, Type (0, 0), BuildingBlock: XIVTED_clean_linker_0, # of connection points: 2
#     Edge 39, Type (0, 0), BuildingBlock: XIVTED_clean_linker_0, # of connection points: 2
#     Edge 40, Type (0, 0), BuildingBlock: XIVTED_clean_linker_0, # of connection points: 2
#     Edge 41, Type (0, 0), BuildingBlock: XIVTED_clean_linker_0, # of connection points: 2
# Relax obj value: 0.113
# Max RMSD: 0.171
# Mean RMSD: 0.171
data_MOF--net-wkd--node1-XOMCOT_clean_sbu_1--edge1-XIVTED_clean_linker_0
_symmetry_space_group_name_H-M    P1
_symmetry_Int_Tables_number       1
_symmetry_cell_setting            triclinic
loop_
_symmetry_equiv_pos_as_xyz
'x, y, z'
_cell_length_a     25.508342
_cell_length_b     25.548855
_cell_length_c     107.66879
_cell_angle_alpha  90.115094
_cell_angle_beta   89.816005
_cell_angle_gamma 120.0953
loop_
_atom_site_label
_atom_site_type_symbol
_atom_site_fract_x
_atom_site_fract_y
_atom_site_fract_z
_atom_type_partial_charge
C0 C 0.01664 0.27547 0.09082 0.0
C1 C 1.01537 0.23291 0.09879 0.0
N2 N 1.00392 0.18349 0.09215 0.0
N3 N 1.00561 0.25314 0.07918 0.0
C4 C 0.99852 0.19717 0.08025 0.0
H5 H 0.02604 0.32033 0.09334 0.0
Co6 Co 1.00495 0.29601 0.06524 0.0
C7 C 0.89556 0.19965 0.05184 0.0
O8 O 0.8691 0.23228 0.05114 0.0
N9 N 1.00546 0.34181 0.05108 0.0
C10 C 0.03754 0.40552 0.03496 0.0
C11 C 0.0511 0.37171 0.0428 0.0
C12 C 0.96518 0.35974 0.04806 0.0
N13 N 0.98367 0.39838 0.03835 0.0
O14 O 0.94291 0.30705 0.07311 0.0
H15 H 0.09372 0.37241 0.04274 0.0
H16 H 0.92382 0.34672 0.05314 0.0
O17 O 0.94623 0.22036 0.0574 0.0
C18 C 0.96509 0.3611 0.07715 0.0
O19 O 0.02248 0.40008 0.07496 0.0
N20 N 0.06892 0.28913 0.05845 0.0
C21 C 0.1765 0.312 0.04704 0.0
C22 C 0.12026 0.26806 0.04221 0.0
C23 C 0.06665 0.25701 0.0481 0.0
C24 C 0.12293 0.32768 0.06389 0.0
C25 C 0.17734 0.33971 0.05836 0.0
H26 H 0.02401 0.22674 0.04368 0.0
H27 H 0.1238 0.35284 0.07206 0.0
H28 H 0.9899 0.16726 0.07244 0.0
H29 H 0.02393 0.23873 0.10867 0.0
H30 H 0.06685 0.43598 0.02781 0.0
H31 H 0.11763 0.24522 0.03355 0.0
H32 H 0.21948 0.37431 0.06238 0.0
C33 C 0.80457 0.06528 0.24948 0.0
C34 C 0.85797 0.0741 0.25441 0.0
N35 N 0.86096 0.02353 0.25258 0.0
N36 N 0.774 1.00956 0.2444 0.0
C37 C 0.80927 0.98479 0.24657 0.0
H38 H 0.78938 0.09791 0.24942 0.0
Co39 Co 0.70132 0.97998 0.23553 0.0
C40 C 0.71897 0.92196 0.21342 0.0
O41 O 0.69526 0.94789 0.20675 0.0
N42 N 0.62715 0.94863 0.22679 0.0
C43 C 0.53728 0.87651 0.21985 0.0
C44 C 0.59111 0.88835 0.22503 0.0
C45 C 0.59372 0.9725 0.22243 0.0
N46 N 0.53912 0.92943 0.21821 0.0
O47 O 0.65873 0.91578 0.24748 0.0
H48 H 0.60263 0.85456 0.2277 0.0
H49 H 0.6072 0.0198 0.22271 0.0
O50 O 0.72399 0.93018 0.22521 0.0
C51 C 0.64813 0.93441 0.25769 0.0
O52 O 0.67888 0.9926 0.26011 0.0
N53 N 0.74065 0.04736 0.2249 0.0
C54 C 0.80004 0.16239 0.21413 0.0
C55 C 0.81906 0.12054 0.21157 0.0
C56 C 0.78965 0.06355 0.21733 0.0
C57 C 0.72318 0.08833 0.22771 0.0
C58 C 0.75114 0.1453 0.22226 0.0
H59 H 0.80821 0.03406 0.21616 0.0
H60 H 0.68882 0.07753 0.23472 0.0
H61 H 0.79833 0.94012 0.24347 0.0
H62 H 0.89216 0.11471 0.25898 0.0
H63 H 0.49938 0.83244 0.21755 0.0
H64 H 0.8581 0.13285 0.2057 0.0
H65 H 0.73543 0.17633 0.22467 0.0
C66 C 0.73689 0.77749 0.42065 0.0
C67 C 0.77828 0.81987 0.42866 0.0
N68 N 0.83436 0.83489 0.42476 0.0
N69 N 0.76638 0.76542 0.41171 0.0
C70 C 0.82582 0.80113 0.41445 0.0
H71 H 0.68822 0.75746 0.42118 0.0
Co72 Co 0.72725 0.71149 0.39867 0.0
C73 C 0.82588 0.70727 0.38547 0.0
O74 O 0.79473 0.64791 0.38601 0.0
N75 N 0.6865 0.65753 0.38556 0.0
C76 C 0.65529 0.62043 0.36658 0.0
C77 C 0.69672 0.66959 0.37329 0.0
C78 C 0.63844 0.60066 0.38604 0.0
N79 N 0.61872 0.57711 0.37463 0.0
O80 O 0.73276 0.64938 0.40769 0.0
H81 H 0.73214 0.71153 0.36941 0.0
H82 H 0.61717 0.57717 0.39454 0.0
O83 O 0.80458 0.73815 0.39042 0.0
C84 C 0.68767 0.62357 0.41508 0.0
O85 O 0.64739 0.64123 0.41516 0.0
N86 N 0.71659 0.76998 0.39067 0.0
C87 C 0.67752 0.84206 0.37933 0.0
C88 C 0.73518 0.85053 0.37666 0.0
C89 C 0.75448 0.81436 0.38263 0.0
C90 C 0.66096 0.76189 0.39343 0.0
C91 C 0.64067 0.79767 0.38794 0.0
H92 H 0.79882 0.82102 0.3805 0.0
H93 H 0.63165 0.72633 0.39978 0.0
H94 H 0.86216 0.8024 0.40901 0.0
H95 H 0.76775 0.83942 0.43653 0.0
H96 H 0.65289 0.61646 0.35656 0.0
H97 H 0.76478 0.88457 0.37006 0.0
H98 H 0.59564 0.78936 0.39014 0.0
C99 C 0.97973 0.72845 0.58705 0.0
C100 C 0.97281 0.76886 0.59432 0.0
N101 N 1.0125 0.82519 0.59041 0.0
N102 N 0.02394 0.75901 0.57863 0.0
C103 C 0.0429 0.81806 0.58085 0.0
H104 H 0.95438 0.67972 0.58789 0.0
Co105 Co 0.05078 0.72146 0.56746 0.0
C106 C 0.10033 0.80461 0.54607 0.0
O107 O 0.07105 0.75701 0.53886 0.0
N108 N 0.07945 0.68305 0.55656 0.0
C109 C 0.14979 0.66898 0.54733 0.0
C110 C 0.13848 0.70998 0.55316 0.0
C111 C 0.056 0.62492 0.55273 0.0
N112 N 0.09791 0.61569 0.54705 0.0
O113 O 0.11912 0.74069 0.57791 0.0
H114 H 0.17234 0.75596 0.55546 0.0
H115 H 1.0109 0.58869 0.55483 0.0
O116 O 0.09664 0.7979 0.55791 0.0
C117 C 0.10176 0.69644 0.58544 0.0
O118 O 0.04451 0.65382 0.58533 0.0
N119 N 0.97952 0.69582 0.55819 0.0
C120 C 0.86533 0.64107 0.54703 0.0
C121 C 0.90459 0.70391 0.54616 0.0
C122 C 0.96118 0.73071 0.55207 0.0
C123 C 0.93971 0.63596 0.56002 0.0
C124 C 0.88319 0.6074 0.55432 0.0
H125 H 0.98947 0.77934 0.55185 0.0
H126 H 0.95144 0.61033 0.56624 0.0
H127 H 0.07913 0.85518 0.57578 0.0
H128 H 0.94064 0.7577 0.60184 0.0
H129 H 0.19334 0.67682 0.54406 0.0
H130 H 0.89179 0.73209 0.541 0.0
H131 H 0.85309 0.55952 0.55591 0.0
C132 C 0.22244 0.93978 0.74895 0.0
C133 C 0.17024 0.92721 0.75515 0.0
N134 N 0.16724 0.97831 0.75577 0.0
N135 N 0.25204 0.99841 0.74549 0.0
C136 C 0.21759 0.02096 0.7499 0.0
H137 H 0.23808 0.9082 0.74715 0.0
Co138 Co 0.32622 0.0378 0.73701 0.0
C139 C 0.30681 0.10028 0.7162 0.0
O140 O 0.33666 0.08132 0.70932 0.0
N141 N 0.40259 0.07983 0.72889 0.0
C142 C 0.48875 0.1626 0.72358 0.0
C143 C 0.43227 0.14101 0.72853 0.0
C144 C 0.44316 0.06546 0.72409 0.0
N145 N 0.49589 0.11526 0.72084 0.0
O146 O 0.36106 0.09579 0.75026 0.0
H147 H 0.41427 0.16871 0.73193 0.0
H148 H 0.43598 0.02019 0.72343 0.0
O149 O 0.29891 0.087 0.72781 0.0
C150 C 0.37417 0.07152 0.75916 0.0
O151 O 0.35535 0.01339 0.75856 0.0
N152 N 0.29346 0.97609 0.72494 0.0
C153 C 0.23626 0.86514 0.71249 0.0
C154 C 0.21352 0.90488 0.71167 0.0
C155 C 0.242 0.95963 0.71822 0.0
C156 C 0.31561 0.93763 0.72586 0.0
C157 C 0.28859 0.88266 0.71954 0.0
H158 H 0.22008 0.98641 0.71854 0.0
H159 H 0.35179 0.94753 0.73231 0.0
H160 H 0.22899 0.06758 0.74874 0.0
H161 H 0.13751 0.884 0.7591 0.0
H162 H 0.52236 0.20976 0.72221 0.0
H163 H 0.172 0.89212 0.70669 0.0
H164 H 0.30724 0.85305 0.72058 0.0
C165 C 0.29358 0.24643 0.92168 0.0
C166 C 0.25286 0.19991 0.92909 0.0
N167 N 0.19662 0.18736 0.92601 0.0
N168 N 0.26334 0.26359 0.914 0.0
C169 C 0.20412 0.22646 0.9168 0.0
H170 H 0.34237 0.26712 0.92198 0.0
Co171 Co 0.30137 0.32905 0.9031 0.0
C172 C 0.21945 0.29596 0.88153 0.0
O173 O 0.26762 0.31532 0.87441 0.0
N174 N 0.34006 0.39709 0.89246 0.0
C175 C 0.35366 0.48159 0.88347 0.0
C176 C 0.31287 0.429 0.88927 0.0
C177 C 0.39812 0.43213 0.88851 0.0
N178 N 0.40707 0.48336 0.88299 0.0
O179 O 0.28059 0.37665 0.91369 0.0
H180 H 0.26676 0.41635 0.89162 0.0
H181 H 0.43448 0.42327 0.89035 0.0
O182 O 0.22541 0.29821 0.89338 0.0
C183 C 0.32111 0.40029 0.92208 0.0
O184 O 0.36207 0.38367 0.92276 0.0
N185 N 0.32832 0.28482 0.89367 0.0
C186 C 0.38414 0.2263 0.88253 0.0
C187 C 0.32122 0.20228 0.88156 0.0
C188 C 0.29389 0.23161 0.88745 0.0
C189 C 0.38831 0.30548 0.89555 0.0
C190 C 0.41739 0.27798 0.88986 0.0
H191 H 0.24517 0.21082 0.88719 0.0
H192 H 0.41355 0.3428 0.90184 0.0
H193 H 0.16732 0.22904 0.91243 0.0
H194 H 0.26372 0.17677 0.93616 0.0
H195 H 0.3455 0.51709 0.88031 0.0
H196 H 0.29335 0.16121 0.87636 0.0
H197 H 0.46531 0.29613 0.89151 0.0
C198 C 0.74405 1.00962 0.79705 0.0
C199 C 0.78349 1.00603 0.78887 0.0
N200 N 0.83326 0.01615 0.79516 0.0
N201 N 0.76861 0.02213 0.8085 0.0
C202 C 0.82327 0.02604 0.80706 0.0
H203 H 0.69919 1.00121 0.79485 0.0
Co204 Co 0.72626 0.02216 0.82267 0.0
C205 C 0.82322 0.13072 0.83619 0.0
O206 O 0.79059 0.15709 0.83722 0.0
N207 N 0.68046 0.02049 0.83697 0.0
C208 C 0.61111 0.98456 0.85212 0.0
C209 C 0.64711 0.97261 0.84451 0.0
C210 C 0.66295 0.06078 0.84028 0.0
N211 N 0.62053 0.0399 0.84936 0.0
O212 O 0.71443 0.08445 0.8153 0.0
H213 H 0.64527 0.92954 0.84408 0.0
H214 H 0.67716 0.10282 0.83545 0.0
O215 O 0.80229 0.08051 0.83044 0.0
C216 C 0.66031 0.06104 0.81124 0.0
O217 O 0.62357 1.00262 0.81266 0.0
N218 N 0.73367 0.95814 0.82916 0.0
C219 C 0.70942 0.85073 0.84067 0.0
C220 C 0.75285 0.90688 0.84561 0.0
C221 C 0.76446 0.96037 0.8397 0.0
C222 C 0.69613 0.90424 0.82356 0.0
C223 C 0.68341 0.84987 0.82915 0.0
H224 H 0.79377 1.00285 0.84426 0.0
H225 H 0.6718 0.90331 0.81528 0.0
H226 H 0.85354 0.03255 0.81468 0.0
H227 H 0.77558 0.99543 0.77907 0.0
H228 H 0.57859 0.95358 0.85879 0.0
H229 H 0.77447 0.90953 0.85441 0.0
H230 H 0.64929 0.8078 0.82502 0.0
C231 C 0.77974 0.73165 0.96606 0.0
C232 C 0.82585 0.7732 0.95868 0.0
N233 N 0.83927 0.82895 0.96234 0.0
N234 N 0.76366 0.76086 0.97432 0.0
C235 C 0.8011 0.82035 0.97188 0.0
H236 H 0.75857 0.683 0.96534 0.0
Co237 Co 0.69885 0.72109 0.98538 0.0
C238 C 0.73155 0.80118 1.00736 0.0
O239 O 0.71259 0.7528 1.01434 0.0
N240 N 0.63158 0.68048 0.99615 0.0
C241 C 0.54667 0.6635 1.00563 0.0
C242 C 0.59864 0.70591 0.99986 0.0
C243 C 0.59783 0.62184 0.99974 0.0
N244 N 0.54641 0.61088 1.00558 0.0
O245 O 0.64987 0.74214 0.97536 0.0
H246 H 0.61007 0.75192 0.99786 0.0
H247 H 0.60782 0.58666 0.99741 0.0
O248 O 0.72938 0.79585 0.99549 0.0
C249 C 0.62555 0.70221 0.96686 0.0
O250 O 0.64238 0.66158 0.96573 0.0
N251 N 0.74426 0.69379 0.99419 0.0
C252 C 0.80469 0.63699 1.00375 0.0
C253 C 0.82588 0.69838 1.00619 0.0
C254 C 0.79607 0.7266 1.00095 0.0
C255 C 0.72539 0.63512 0.99125 0.0
C256 C 0.7543 0.60563 0.99603 0.0
H257 H 0.81568 0.7748 1.0021 0.0
H258 H 0.68828 0.61136 0.98483 0.0
H259 H 0.79937 0.85658 0.97674 0.0
H260 H 0.84808 0.76323 0.95122 0.0
H261 H 0.51045 0.66997 1.00912 0.0
H262 H 0.86626 0.7247 1.0117 0.0
H263 H 0.73739 0.55862 0.99366 0.0
C264 C 0.04966 0.76352 0.13044 0.0
C265 C 0.05248 0.80596 0.1222 0.0
N266 N 0.01825 0.82835 0.12665 0.0
N267 N 1.01358 0.75868 0.14005 0.0
C268 C 0.99518 0.79883 0.1375 0.0
H269 H 0.07368 0.73883 0.12962 0.0
Co270 Co 0.99939 0.70901 0.15384 0.0
C271 C 0.89478 0.70515 0.16638 0.0
O272 O 0.86835 0.6459 0.16694 0.0
N273 N 0.98626 0.65919 0.16789 0.0
C274 C 0.97826 0.62996 0.18759 0.0
C275 C 0.99108 0.67734 0.17983 0.0
C276 C 0.97045 0.60011 0.16872 0.0
N277 N 0.96483 0.58097 0.18062 0.0
O278 O 0.93324 0.64322 0.14509 0.0
H279 H 1.00201 0.72204 0.18281 0.0
H280 H 0.96185 0.57108 0.1608 0.0
O281 O 0.94633 0.73545 0.16108 0.0
C282 C 0.95391 0.61432 0.13908 0.0
O283 O 1.01137 0.63078 0.1403 0.0
N284 N 0.06767 0.77155 0.16148 0.0
C285 C 0.17685 0.84893 0.17317 0.0
C286 C 0.12662 0.85694 0.1747 0.0
C287 C 0.07233 0.81826 0.16852 0.0
C288 C 0.11665 0.7648 0.15953 0.0
C289 C 0.17182 0.80321 0.16522 0.0
H290 H 0.03375 0.82436 0.16987 0.0
H291 H 0.11209 0.7279 0.15381 0.0
H292 H 0.96577 0.80664 0.1435 0.0
H293 H 0.07942 0.82056 0.11379 0.0
H294 H 0.97882 0.63192 0.19762 0.0
H295 H 0.12906 0.89195 0.18077 0.0
H296 H 0.20936 0.79523 0.16389 0.0
C297 C 0.29647 0.0779 0.30156 0.0
C298 C 0.26363 0.08329 0.2921 0.0
N299 N 0.21658 0.02802 0.28949 0.0
N300 N 0.27005 0.0196 0.30518 0.0
C301 C 0.22273 0.9899 0.29729 0.0
H302 H 0.33649 0.11474 0.30574 0.0
Co303 Co 0.29951 0.99276 0.31831 0.0
C304 C 0.16342 0.93179 0.32493 0.0
O305 O 0.1493 0.96346 0.31752 0.0
N306 N 0.33025 0.96734 0.33119 0.0
C307 C 0.34723 0.94482 0.3501 0.0
C308 C 0.30804 0.95336 0.34286 0.0
C309 C 0.38306 0.96698 0.33155 0.0
N310 N 0.39458 0.95373 0.34301 0.0
O311 O 0.2925 0.92705 0.30824 0.0
H312 H 0.26741 0.95224 0.34611 0.0
H313 H 0.41397 0.97953 0.32376 0.0
O314 O 0.21775 0.94164 0.3255 0.0
C315 C 0.33411 0.94631 0.29999 0.0
O316 O 0.36978 1.00495 0.2987 0.0
N317 N 0.31387 0.05999 0.32798 0.0
C318 C 0.35687 0.16531 0.34202 0.0
C319 C 0.29449 0.12782 0.34003 0.0
C320 C 0.27368 0.0747 0.33301 0.0
C321 C 0.37463 0.09744 0.32948 0.0
C322 C 0.39704 0.14968 0.33661 0.0
H323 H 0.22577 0.04638 0.3316 0.0
H324 H 0.40605 0.08636 0.3251 0.0
H325 H 0.19207 0.9415 0.29758 0.0
H326 H 0.27212 0.12535 0.28792 0.0
H327 H 0.34183 0.934 0.3599 0.0
H328 H 0.2623 0.13915 0.34396 0.0
H329 H 0.44558 0.17828 0.33771 0.0
C330 C 0.28721 0.27291 0.46168 0.0
C331 C 0.24577 0.22946 0.45384 0.0
N332 N 0.20694 0.18126 0.46069 0.0
N333 N 0.27517 0.25233 0.47345 0.0
C334 C 0.22566 0.19652 0.47258 0.0
H335 H 0.32324 0.31724 0.45897 0.0
Co336 Co 0.31861 0.29699 0.48726 0.0
C337 C 0.33244 0.20241 0.5013 0.0
O338 O 0.39144 0.2357 0.50243 0.0
N339 N 0.36384 0.34489 0.50121 0.0
C340 C 0.39749 0.41531 0.51609 0.0
C341 C 0.34931 0.37862 0.50863 0.0
C342 C 0.42194 0.36297 0.5044 0.0
N343 N 0.44358 0.40596 0.51333 0.0
O344 O 0.39215 0.30873 0.4795 0.0
H345 H 0.30777 0.37999 0.50825 0.0
H346 H 0.44977 0.34853 0.4996 0.0
O347 O 0.30292 0.22247 0.49538 0.0
C348 C 0.42339 0.36256 0.47532 0.0
O349 O 0.40377 0.40068 0.47719 0.0
N350 N 0.24726 0.28914 0.49403 0.0
C351 C 0.16347 0.31247 0.50567 0.0
C352 C 0.17773 0.27052 0.51074 0.0
C353 C 0.21995 0.25939 0.50477 0.0
C354 C 0.22935 0.32507 0.48832 0.0
C355 C 0.18739 0.33734 0.49397 0.0
H356 H 0.23433 0.23132 0.50941 0.0
H357 H 0.25174 0.34852 0.47986 0.0
H358 H 0.20357 0.16797 0.48052 0.0
H359 H 0.24344 0.23391 0.4439 0.0
H360 H 0.39899 0.44804 0.52268 0.0
H361 H 0.15971 0.24974 0.51967 0.0
H362 H 0.17823 0.37032 0.48973 0.0
C363 C 0.96983 0.23925 0.63168 0.0
C364 C 0.96257 0.19184 0.62437 0.0
N365 N 1.00587 0.17869 0.62739 0.0
N366 N 0.01772 0.25623 0.63924 0.0
C367 C 0.03868 0.21832 0.63645 0.0
H368 H 0.94239 0.26057 0.63143 0.0
Co369 Co 0.04813 0.32204 0.65008 0.0
C370 C 0.09514 0.28729 0.67154 0.0
O371 O 0.06747 0.30845 0.67849 0.0
N372 N 0.0816 0.3908 0.6607 0.0
C373 C 0.15612 0.46801 0.67101 0.0
C374 C 0.1411 0.41857 0.66375 0.0
C375 C 0.06225 0.42679 0.66585 0.0
N376 N 0.10663 0.47312 0.6723 0.0
O377 O 0.11558 0.368 0.63914 0.0
H378 H 0.17222 0.40391 0.66077 0.0
H379 H 0.01734 0.4204 0.66489 0.0
O380 O 0.09201 0.28927 0.65965 0.0
C381 C 0.09829 0.39333 0.63124 0.0
O382 O 0.04106 0.37872 0.63124 0.0
N383 N 0.97789 0.27905 0.65994 0.0
C384 C 0.87058 0.22473 0.67363 0.0
C385 C 0.90527 0.19638 0.6725 0.0
C386 C 0.95856 0.22392 0.66538 0.0
C387 C 0.94059 0.30277 0.65972 0.0
C388 C 0.88777 0.27757 0.66682 0.0
H389 H 0.98432 0.20112 0.66433 0.0
H390 H 0.95185 0.34149 0.65393 0.0
H391 H 0.07815 0.22065 0.64072 0.0
H392 H 0.92783 0.16851 0.61742 0.0
H393 H 0.20033 0.49882 0.67484 0.0
H394 H 0.89212 0.15428 0.67727 0.0
H395 H 0.86041 0.29908 0.66696 0.0
H396 H 0.78159 0.8318 0.03036 0.0
H397 H 0.81196 0.15704 0.03296 0.0
H398 H 0.74113 0.90692 0.99842 0.0
H399 H 0.92079 0.10846 0.05544 0.0
H400 H 0.77362 0.06139 1.02155 0.0
H401 H 0.82135 0.92877 0.04099 0.0
C402 C 0.78104 0.86877 1.02557 0.0
C403 C 0.75788 0.86118 1.01348 0.0
C404 C 0.80589 0.07183 0.02899 0.0
C405 C 0.80283 0.97247 1.02573 0.0
C406 C 0.82744 0.12613 0.03557 0.0
C407 C 0.86953 0.14077 0.04523 0.0
C408 C 0.82567 0.03136 0.03223 0.0
C409 C 0.88842 0.09918 0.0481 0.0
C410 C 0.80398 0.92421 0.03165 0.0
C411 C 0.75877 0.91091 1.00772 0.0
N412 N 0.86607 0.04631 0.0417 0.0
N413 N 0.78033 0.96439 1.01395 0.0
H414 H 0.91631 0.82036 0.16261 0.0
H415 H 0.74009 0.83357 0.22262 0.0
H416 H 0.81418 0.66333 0.18577 0.0
H417 H 0.75836 0.93619 0.18949 0.0
H418 H 0.78271 0.77967 0.2112 0.0
H419 H 0.87405 0.8731 0.17433 0.0
C420 C 0.88492 0.79693 0.17013 0.0
C421 C 0.86827 0.73712 0.17312 0.0
C422 C 0.77721 0.814 0.20648 0.0
C423 C 0.82098 0.79772 0.18676 0.0
C424 C 0.75319 0.84484 0.21298 0.0
C425 C 0.74527 0.88908 0.20697 0.0
C426 C 0.79482 0.82873 0.19399 0.0
C427 C 0.76306 0.902 0.19447 0.0
C428 C 0.86083 0.82703 0.17681 0.0
C429 C 0.82767 0.70915 0.18304 0.0
N430 N 0.78737 0.87235 0.18843 0.0
N431 N 0.80576 0.73982 0.18957 0.0
H432 H 0.91973 0.82425 0.38703 0.0
H433 H 0.05381 0.83174 0.3207 0.0
H434 H 0.85605 0.66035 0.36569 0.0
H435 H 0.16929 0.94551 0.35005 0.0
H436 H 0.97447 0.77325 0.33616 0.0
H437 H 1.00634 0.87566 0.37277 0.0
C438 C 0.92423 0.79901 0.37941 0.0
C439 C 0.88081 0.73788 0.37757 0.0
C440 C 0.01753 0.81048 0.33922 0.0
C441 C 0.97866 0.79667 0.36112 0.0
C442 C 0.06261 0.84367 0.33044 0.0
C443 C 0.11824 0.89248 0.3342 0.0
C444 C 0.02757 0.82774 0.35178 0.0
C445 C 0.12735 0.90717 0.34687 0.0
C446 C 0.97364 0.82828 0.37132 0.0
C447 C 0.88872 0.70736 0.36751 0.0
N448 N 0.08212 0.87543 0.35521 0.0
N449 N 0.93619 0.73728 0.35956 0.0
H450 H 0.21726 0.11011 0.49682 0.0
H451 H 0.19429 0.91028 0.55577 0.0
H452 H 0.37034 0.16071 0.52087 0.0
H453 H 0.08454 0.83679 0.52295 0.0
H454 H 0.25234 1.00827 0.54501 0.0
H455 H 0.16078 0.01495 0.50816 0.0
C456 C 0.23911 0.1012 0.50447 0.0
C457 C 0.29885 0.14338 0.50782 0.0
C458 C 0.21548 0.97051 0.54022 0.0
C459 C 0.23386 0.03462 0.52103 0.0
C460 C 0.1822 0.91483 0.54636 0.0
C461 C 0.13473 0.86521 0.54023 0.0
C462 C 0.2002 0.97673 0.52798 0.0
C463 C 0.12106 0.87357 0.52802 0.0
C464 C 0.20681 0.04679 0.51094 0.0
C465 C 0.32462 0.12923 0.51788 0.0
N466 N 0.15334 0.92814 0.52234 0.0
N467 N 0.29186 0.07622 0.52418 0.0
H468 H 0.23481 0.14118 0.72653 0.0
H469 H 0.16195 0.24067 0.66098 0.0
H470 H 0.31203 0.12895 0.69165 0.0
H471 H 0.10283 0.27242 0.69639 0.0
H472 H 0.21504 0.19672 0.67195 0.0
H473 H 0.18405 0.18741 0.71557 0.0
C474 C 0.24138 0.14848 0.7166 0.0
C475 C 0.27779 0.13113 0.71003 0.0
C476 C 0.19049 0.21346 0.67729 0.0
C477 C 0.21947 0.18351 0.69739 0.0
C478 C 0.16015 0.23848 0.67103 0.0
C479 C 0.12795 0.2604 0.67775 0.0
C480 C 0.18833 0.21012 0.69036 0.0
C481 C 0.12711 0.25626 0.69078 0.0
C482 C 0.21231 0.17477 0.71033 0.0
C483 C 0.28442 0.14151 0.69714 0.0
N484 N 0.15667 0.23161 0.69663 0.0
N485 N 0.25545 0.16676 0.69126 0.0
H486 H 0.91483 0.10667 0.83184 0.0
H487 H 0.11318 0.28374 0.89103 0.0
H488 H 0.86533 0.21106 0.85567 0.0
H489 H 0.18844 0.248 0.85834 0.0
H490 H 1.01569 0.24377 0.8801 0.0
H491 H 1.00983 0.14515 0.8433 0.0
C492 C 0.92399 0.13782 0.83946 0.0
C493 C 0.88219 0.15601 0.84272 0.0
C494 C 0.0537 0.24475 0.87537 0.0
C495 C 0.99052 0.19937 0.85605 0.0
C496 C 0.1091 0.26718 0.88161 0.0
C497 C 0.15908 0.26951 0.87557 0.0
C498 C 0.04809 0.22339 0.86311 0.0
C499 C 0.15134 0.24758 0.86334 0.0
C500 C 0.97824 0.15978 0.846 0.0
C501 C 0.89652 0.19634 0.85274 0.0
N502 N 0.097 0.22523 0.85756 0.0
N503 N 0.94929 0.21636 0.85911 0.0
H504 H 0.97452 0.13866 0.11559 0.0
H505 H 0.03188 0.86273 0.10239 0.0
H506 H 0.02504 0.10284 0.07964 0.0
H507 H 0.98825 0.90417 0.13852 0.0
H508 H 0.02472 0.94703 0.09364 0.0
H509 H 0.97429 0.04979 0.12383 0.0
C510 C 0.98577 0.11228 0.10941 0.0
C511 C 1.00041 0.12889 0.0969 0.0
C512 C 0.01651 0.93755 0.10348 0.0
C513 C 0.99963 0.02607 0.10631 0.0
C514 C 0.0209 0.88949 0.10851 0.0
C515 C 1.01105 0.87622 0.12126 0.0
C516 C 1.0022 0.97292 0.11123 0.0
C517 C 0.99577 0.91207 0.12864 0.0
C518 C 0.9853 0.06119 0.11413 0.0
C519 C 1.01319 0.09181 0.08931 0.0
N520 N 0.9921 0.9588 0.12353 0.0
N521 N 1.01281 0.0424 0.09415 0.0
H522 H 0.85658 0.923 0.26221 0.0
H523 H 0.21796 0.09058 0.26909 0.0
H524 H 0.97972 0.10586 0.25056 0.0
H525 H 0.09841 0.93858 0.29205 0.0
H526 H 0.13013 0.08243 0.25836 0.0
H527 H 0.94383 0.91494 0.2696 0.0
C528 C 0.902 0.96101 0.26106 0.0
C529 C 0.91113 0.01536 0.25589 0.0
C530 C 0.12303 0.05044 0.26567 0.0
C531 C 1.01054 1.00645 0.26414 0.0
C532 C 0.17324 0.05508 0.27181 0.0
C533 C 0.16572 0.01598 0.28166 0.0
C534 C 0.06443 1.0062 0.26933 0.0
C535 C 0.10649 0.96982 0.28454 0.0
C536 C 0.95159 0.95655 0.26532 0.0
C537 C 0.97075 0.0635 0.25465 0.0
N538 N 0.05801 0.9666 0.2785 0.0
N539 N 0.01802 0.05792 0.25874 0.0
H540 H 0.10366 0.10448 0.47329 0.0
H541 H 0.94377 0.90022 0.41325 0.0
H542 H 0.19132 0.1325 0.43761 0.0
H543 H 0.8548 0.87351 0.44874 0.0
H544 H 0.03711 0.98093 0.4224 0.0
H545 H 1.01443 0.01545 0.46489 0.0
C546 C 0.10448 0.09171 0.46373 0.0
C547 C 0.1551 0.12657 0.45613 0.0
C548 C 0.9972 0.95724 0.4282 0.0
C549 C 0.05265 0.02477 0.4464 0.0
C550 C 0.94389 0.9108 0.42299 0.0
C551 C 0.89097 0.88012 0.43019 0.0
C552 C 0.99782 0.97323 0.44073 0.0
C553 C 0.894 0.89651 0.44275 0.0
C554 C 0.05331 0.04099 0.45891 0.0
C555 C 0.15308 0.10787 0.44376 0.0
N556 N 0.94631 0.94197 0.4476 0.0
N557 N 0.10275 0.05853 0.43929 0.0
H558 H 0.04205 0.10842 0.63913 0.0
H559 H 0.03517 0.92656 0.5779 0.0
H560 H 0.98937 0.14211 0.60338 0.0
H561 H 1.00637 0.85004 0.61462 0.0
H562 H 0.03982 0.01758 0.58683 0.0
H563 H 0.05049 0.02472 0.62997 0.0
C564 C 0.03294 0.09856 0.62933 0.0
C565 C 1.01461 0.13187 0.62201 0.0
C566 C 0.03285 0.98094 0.59292 0.0
C567 C 0.02459 0.03684 0.61146 0.0
C568 C 0.0306 0.92933 0.58784 0.0
C569 C 0.02 0.88072 0.59553 0.0
C570 C 0.02569 0.98433 0.6058 0.0
C571 C 1.01389 0.88628 0.60836 0.0
C572 C 0.0374 0.0507 0.62413 0.0
C573 C 1.00288 0.117 0.60937 0.0
N574 N 0.01697 0.93714 0.6131 0.0
N575 N 1.00822 0.07072 0.60448 0.0
H576 H 0.04819 0.89459 0.75659 0.0
H577 H 0.95262 0.08321 0.80125 0.0
H578 H 0.17722 0.07623 0.76805 0.0
H579 H 0.82749 0.93735 0.77773 0.0
H580 H 0.03682 0.07583 0.79171 0.0
H581 H 0.96763 0.9039 0.76679 0.0
C582 C 0.05956 0.93642 0.7613 0.0
C583 C 0.11948 0.98469 0.76147 0.0
C584 C 0.99085 0.04558 0.78866 0.0
C585 C 0.02731 0.99571 0.77325 0.0
C586 C 0.94295 0.04951 0.79415 0.0
C587 C 0.88316 0.01114 0.7902 0.0
C588 C 0.97849 1.00215 0.77937 0.0
C589 C 0.87294 0.96837 0.78092 0.0
C590 C 1.01352 0.94185 0.76708 0.0
C591 C 0.1315 0.03818 0.76761 0.0
N592 N 0.91994 0.96488 0.77588 0.0
N593 N 0.08585 0.04218 0.77334 0.0
H594 H 0.86769 0.85244 0.93803 0.0
H595 H 0.17671 0.15521 0.95023 0.0
H596 H 0.91552 0.93317 0.9744 0.0
H597 H 0.08983 0.11445 0.91445 0.0
H598 H 0.0845 0.07152 0.9593 0.0
H599 H 0.95134 0.94503 0.92911 0.0
C600 C 0.89575 0.88993 0.94411 0.0
C601 C 0.88496 0.8852 0.95697 0.0
C602 C 0.08534 0.08122 0.94949 0.0
C603 C 0.98114 0.99096 0.94686 0.0
C604 C 0.138 0.12869 0.9443 0.0
C605 C 0.14087 0.14148 0.93156 0.0
C606 C 0.0355 0.04533 0.94184 0.0
C607 C 0.08928 0.10618 0.92431 0.0
C608 C 0.94322 0.9428 0.93902 0.0
C609 C 0.92224 0.93523 0.96444 0.0
N610 N 0.03896 0.05913 0.92951 0.0
N611 N 0.96927 0.98577 0.95931 0.0
H612 H 0.43411 0.55765 0.99626 0.0
H613 H 0.29244 0.34602 0.05465 0.0
H614 H 0.5449 0.53623 1.02349 0.0
H615 H 0.18921 0.33664 1.02219 0.0
H616 H 0.38603 0.40725 0.04284 0.0
H617 H 0.34453 0.4692 1.00478 0.0
C618 C 0.4393 0.53326 1.00393 0.0
C619 C 0.49628 0.55368 1.00924 0.0
C620 C 0.34286 0.39064 0.03824 0.0
C621 C 0.39438 0.45366 1.0193 0.0
C622 C 0.28942 0.35579 0.04497 0.0
C623 C 0.23279 0.33662 0.03945 0.0
C624 C 0.33961 0.40714 1.02594 0.0
C625 C 0.23164 0.35006 1.02685 0.0
C626 C 0.3884 0.48289 1.00881 0.0
C627 C 0.50137 0.52123 1.01917 0.0
N628 N 0.28416 0.38529 1.02061 0.0
N629 N 0.45077 0.47326 1.02406 0.0
H630 H 0.96219 0.48658 0.16789 0.0
H631 H 0.83496 0.26688 0.22686 0.0
H632 H 0.92236 0.5356 0.20367 0.0
H633 H 0.84002 0.2009 0.19022 0.0
H634 H 0.8792 0.3688 0.21857 0.0
H635 H 0.92749 0.38452 0.17584 0.0
C636 C 0.94626 0.47628 0.17738 0.0
C637 C 0.94559 0.52054 0.18509 0.0
C638 C 0.87081 0.33225 0.21229 0.0
C639 C 0.90664 0.4038 0.19427 0.0
C640 C 0.84537 0.2739 0.21703 0.0
C641 C 0.83271 0.2251 0.20917 0.0
C642 C 0.88397 0.34243 0.19956 0.0
C643 C 0.84885 0.23726 0.19658 0.0
C644 C 0.92671 0.41794 0.18192 0.0
C645 C 0.92496 0.50409 0.19736 0.0
N646 N 0.87323 0.29478 0.19212 0.0
N647 N 0.90646 0.44737 0.20152 0.0
H648 H 0.44706 0.98783 0.36554 0.0
H649 H 0.66777 0.85465 0.35431 0.0
H650 H 0.46332 0.91803 0.33015 0.0
H651 H 0.63046 0.90611 0.38995 0.0
H652 H 0.60892 0.8951 0.3443 0.0
H653 H 0.52927 0.97545 0.37357 0.0
C654 C 0.46811 0.9699 0.35945 0.0
C655 C 0.44754 0.95271 0.34725 0.0
C656 C 0.61454 0.89846 0.35428 0.0
C657 C 0.54212 0.93836 0.35638 0.0
C658 C 0.64845 0.87587 0.35997 0.0
C659 C 0.65343 0.87679 0.37295 0.0
C660 C 0.58588 0.92226 0.36167 0.0
C661 C 0.62716 0.90412 0.37991 0.0
C662 C 0.51532 0.96311 0.36401 0.0
C663 C 0.47769 0.93145 0.33964 0.0
N664 N 0.59415 0.92526 0.3742 0.0
N665 N 0.52302 0.92402 0.34438 0.0
H666 H 0.78237 0.67963 0.54506 0.0
H667 H 0.52824 0.37099 0.51376 0.0
H668 H 0.81049 0.53182 0.53507 0.0
H669 H 0.50063 0.51996 0.52298 0.0
H670 H 0.63276 0.43053 0.52098 0.0
H671 H 0.68035 0.62374 0.53625 0.0
C672 C 0.76741 0.63577 0.54089 0.0
C673 C 0.80499 0.61025 0.54089 0.0
C674 C 0.6038 0.45019 0.52142 0.0
C675 C 0.6879 0.54559 0.53094 0.0
C676 C 0.54407 0.41621 0.51726 0.0
C677 C 0.50517 0.44017 0.51779 0.0
C678 C 0.62505 0.50871 0.52617 0.0
C679 C 0.52832 0.49898 0.52257 0.0
C680 C 0.70895 0.60364 0.53595 0.0
C681 C 0.78277 0.55286 0.53548 0.0
N682 N 0.5866 0.53112 0.52656 0.0
N683 N 0.72574 0.52246 0.53078 0.0
H684 H 0.13031 0.49755 0.69642 0.0
H685 H 0.18444 0.83139 0.68929 0.0
H686 H 0.08234 0.55743 0.6633 0.0
H687 H 0.21189 0.7586 0.72318 0.0
H688 H 0.13686 0.72974 0.68007 0.0
H689 H 0.14887 0.58986 0.70704 0.0
C690 C 0.12237 0.52992 0.69153 0.0
C691 C 0.10459 0.52032 0.67908 0.0
C692 C 0.15287 0.73605 0.68955 0.0
C693 C 0.12778 0.62712 0.69089 0.0
C694 C 0.17998 0.79398 0.69481 0.0
C695 C 0.20337 0.80369 0.70692 0.0
C696 C 0.14907 0.68767 0.69649 0.0
C697 C 0.19615 0.75361 0.71369 0.0
C698 C 0.13327 0.58274 0.69752 0.0
C699 C 0.09544 0.56344 0.67297 0.0
N700 N 0.17017 0.69808 0.70836 0.0
N701 N 0.10812 0.61569 0.67889 0.0
H702 H 0.34569 0.10481 0.88064 0.0
H703 H 0.65537 0.15949 0.84955 0.0
H704 H 0.49422 0.2809 0.87075 0.0
H705 H 0.50668 0.98306 0.85922 0.0
H706 H 0.59565 0.20444 0.85666 0.0
H707 H 0.40202 0.0588 0.872 0.0
C708 C 0.38981 0.13377 0.87653 0.0
C709 C 0.41537 0.19688 0.8765 0.0
C710 C 0.57611 0.15586 0.85723 0.0
C711 C 0.48054 0.14457 0.86674 0.0
C712 C 0.6102 0.13012 0.85313 0.0
C713 C 0.58637 0.06732 0.85382 0.0
C714 C 0.5176 0.11862 0.86206 0.0
C715 C 0.52759 0.03171 0.85869 0.0
C716 C 0.42218 0.1075 0.87168 0.0
C717 C 0.47311 0.23213 0.87117 0.0
N718 N 0.49534 0.05783 0.86261 0.0
N719 N 0.50375 0.20556 0.86656 0.0
H720 H 0.67456 0.73402 0.83344 0.0
H721 H 0.45493 0.59783 0.89088 0.0
H722 H 0.68159 0.83976 0.86536 0.0
H723 H 0.48536 0.48411 0.86588 0.0
H724 H 0.54287 0.68683 0.8821 0.0
H725 H 0.61128 0.6415 0.84537 0.0
C726 C 0.66385 0.73782 0.84302 0.0
C727 C 0.68309 0.79485 0.84836 0.0
C728 C 0.53117 0.6425 0.87861 0.0
C729 C 0.61027 0.68936 0.86199 0.0
C730 C 0.48098 0.59192 0.88361 0.0
C731 C 0.46325 0.53417 0.87901 0.0
C732 C 0.56305 0.63541 0.8687 0.0
C733 C 0.49814 0.52824 0.86963 0.0
C734 C 0.62786 0.68501 0.84983 0.0
C735 C 0.66829 0.79701 0.86085 0.0
N736 N 0.54595 0.57848 0.86459 0.0
N737 N 0.63201 0.74515 0.86715 0.0
H738 H 0.91927 0.43928 0.05113 0.0
H739 H 0.84324 0.57029 0.99097 0.0
H740 H 0.98608 0.43377 1.01461 0.0
H741 H 0.83521 0.63133 0.02791 0.0
H742 H 0.88688 0.51185 0.99947 0.0
H743 H 0.87787 0.50044 0.04282 0.0
C744 C 0.92468 0.45045 0.04135 0.0
C745 C 0.95607 0.43139 0.03353 0.0
C746 C 0.87592 0.53826 1.00572 0.0
C747 C 0.90914 0.50136 1.02399 0.0
C748 C 0.85094 0.57148 1.00088 0.0
C749 C 0.8356 0.60555 1.00877 0.0
C750 C 0.88479 0.53823 1.01859 0.0
C751 C 0.8468 0.60589 1.02153 0.0
C752 C 0.9016 0.4858 0.03664 0.0
C753 C 0.96254 0.44788 1.02095 0.0
N754 N 0.87021 0.57221 1.02607 0.0
N755 N 0.93905 0.48162 1.01657 0.0
H756 H 0.54532 1.00106 0.19918 0.0
H757 H 0.18547 0.86096 0.19834 0.0
H758 H 0.42337 0.87266 0.22599 0.0
H759 H 0.29434 0.91161 0.16505 0.0
H760 H 0.27779 0.89703 0.21076 0.0
H761 H 0.45811 0.99891 0.1888 0.0
C762 C 0.50027 0.9737 0.20302 0.0
C763 C 0.49088 0.93667 0.21333 0.0
C764 C 0.28149 0.90146 0.20075 0.0
C765 C 0.39198 0.9343 0.20175 0.0
C766 C 0.22902 0.8814 0.19368 0.0
C767 C 0.23249 0.88305 0.18067 0.0
C768 C 0.33772 0.92392 0.19476 0.0
C769 C 0.28991 0.90923 0.17507 0.0
C770 C 0.45075 0.9722 0.19711 0.0
C771 C 0.43192 0.90139 0.21798 0.0
N772 N 0.34035 0.92825 0.18214 0.0
N773 N 0.38457 0.90088 0.21213 0.0
H774 H 0.54284 0.54505 0.35498 0.0
H775 H 0.43048 0.19719 0.36219 0.0
H776 H 0.58482 0.47302 0.38717 0.0
H777 H 0.34133 0.26228 0.338 0.0
H778 H 0.48543 0.29721 0.37189 0.0
H779 H 0.46753 0.44209 0.34875 0.0
C780 C 0.53585 0.50747 0.36076 0.0
C781 C 0.5704 0.51739 0.37154 0.0
C782 C 0.45309 0.28946 0.36462 0.0
C783 C 0.48464 0.39957 0.36447 0.0
C784 C 0.42179 0.23247 0.3591 0.0
C785 C 0.38157 0.22184 0.3493 0.0
C786 C 0.44511 0.33654 0.36011 0.0
C787 C 0.37182 0.26881 0.34558 0.0
C788 C 0.49262 0.4488 0.35726 0.0
C789 C 0.559 0.46727 0.37882 0.0
N790 N 0.40421 0.32455 0.35085 0.0
N791 N 0.51771 0.41041 0.37506 0.0
H792 H 0.16388 0.56796 0.55529 0.0
H793 H 0.0798 0.34494 0.4985 0.0
H794 H 0.02045 0.53673 0.5301 0.0
H795 H 0.18139 0.34236 0.53025 0.0
H796 H 0.05018 0.40829 0.51029 0.0
H797 H 0.16478 0.47954 0.54684 0.0
C798 C 0.13203 0.54162 0.54805 0.0
C799 C 0.0923 0.55927 0.54329 0.0
C800 C 0.07782 0.39266 0.51475 0.0
C801 C 0.09356 0.45892 0.53336 0.0
C802 C 0.09487 0.35664 0.50802 0.0
C803 C 0.13363 0.33867 0.51333 0.0
C804 C 0.10044 0.41152 0.5268 0.0
C805 C 0.15122 0.35465 0.52575 0.0
C806 C 0.13233 0.49116 0.54324 0.0
C807 C 0.05159 0.52402 0.53396 0.0
N808 N 0.13535 0.39091 0.53196 0.0
N809 N 0.05394 0.47594 0.52911 0.0
H810 H 0.50618 0.04116 0.70398 0.0
H811 H 0.8522 0.28623 0.69194 0.0
H812 H 0.61031 0.19968 0.72653 0.0
H813 H 0.76943 0.11081 0.6745 0.0
H814 H 0.76277 0.25197 0.70499 0.0
H815 H 0.60052 0.06068 0.69353 0.0
C816 C 0.54897 0.07932 0.70687 0.0
C817 C 0.55052 0.11956 0.71595 0.0
C818 C 0.76398 0.22051 0.69841 0.0
C819 C 0.65775 0.14245 0.70406 0.0
C820 C 0.81502 0.24024 0.69093 0.0
C821 C 0.81782 0.2014 0.68211 0.0
C822 C 0.71458 0.1616 0.69696 0.0
C823 C 0.76876 0.14203 0.68122 0.0
C824 C 0.60263 0.09062 0.70089 0.0
C825 C 0.60696 0.16843 0.71936 0.0
N826 N 0.71859 0.12404 0.68846 0.0
N827 N 0.65802 0.17879 0.71335 0.0
H828 H 0.9134 0.61971 0.1161 0.0
H829 H 0.89642 0.30817 0.09791 0.0
H830 H 0.91787 0.49604 0.14259 0.0
H831 H 0.9584 0.46235 0.07376 0.0
H832 H 0.86505 0.35907 0.11321 0.0
H833 H 0.8892 0.54415 0.09967 0.0
C834 C 0.90627 0.57547 0.11854 0.0
C835 C 0.91693 0.56361 0.13068 0.0
C836 C 0.88377 0.38085 0.10439 0.0
C837 C 0.89135 0.47797 0.11198 0.0
C838 C 0.90111 0.35161 0.09564 0.0
C839 C 0.92999 0.38132 0.08462 0.0
C840 C 0.89494 0.43972 0.10197 0.0
C841 C 0.93629 0.43809 0.08218 0.0
C842 C 0.89331 0.53269 0.10916 0.0
C843 C 0.90927 0.50645 0.13333 0.0
N844 N 0.9195 0.4657 0.09082 0.0
N845 N 0.89775 0.46599 0.12403 0.0
H846 H 0.53509 0.8565 0.24834 0.0
H847 H 0.33385 0.9257 0.27528 0.0
H848 H 0.62942 0.93482 0.28254 0.0
H849 H 0.38366 0.88456 0.31054 0.0
H850 H 0.39831 0.89363 0.2648 0.0
H851 H 0.4393 0.83132 0.25858 0.0
C852 C 0.53547 0.86624 0.25812 0.0
C853 C 0.59047 0.89845 0.26456 0.0
C854 C 0.3932 0.8889 0.27479 0.0
C855 C 0.48132 0.87099 0.27627 0.0
C856 C 0.35615 0.90706 0.28076 0.0
C857 C 0.35264 0.90669 0.29375 0.0
C858 C 0.42874 0.87235 0.28191 0.0
C859 C 0.38433 0.88443 0.30049 0.0
C860 C 0.48081 0.85266 0.26392 0.0
C861 C 0.58807 0.9103 0.27723 0.0
N862 N 0.4225 0.86987 0.29452 0.0
N863 N 0.53458 0.89729 0.28262 0.0
H864 H 0.44167 0.31299 0.45435 0.0
H865 H 0.73028 0.63212 0.43842 0.0
H866 H 0.53135 0.46252 0.47976 0.0
H867 H 0.61542 0.50336 0.41093 0.0
H868 H 0.68046 0.55471 0.45451 0.0
H869 H 0.52592 0.36666 0.43957 0.0
C870 C 0.48029 0.35599 0.457 0.0
C871 C 0.47985 0.38369 0.46821 0.0
C872 C 0.66749 0.54263 0.44491 0.0
C873 C 0.57539 0.44544 0.45142 0.0
C874 C 0.69656 0.58658 0.43572 0.0
C875 C 0.67727 0.57366 0.42337 0.0
C876 C 0.61814 0.48578 0.44171 0.0
C877 C 0.63199 0.51466 0.42036 0.0
C878 C 0.52802 0.38685 0.44854 0.0
C879 C 0.53017 0.43993 0.47115 0.0
N880 N 0.60315 0.4731 0.42949 0.0
N881 N 0.57555 0.46926 0.46275 0.0
H882 H 0.13026 0.71007 0.60995 0.0
H883 H 0.12288 0.40608 0.60653 0.0
H884 H 0.16085 0.64303 0.57561 0.0
H885 H 0.16208 0.5064 0.64069 0.0
H886 H 0.15576 0.49971 0.59489 0.0
H887 H 0.16109 0.6473 0.62142 0.0
C888 C 0.14656 0.68445 0.60484 0.0
C889 C 0.14408 0.68244 0.59184 0.0
C890 C 0.15952 0.50194 0.60492 0.0
C891 C 0.17573 0.6075 0.60484 0.0
C892 C 0.14138 0.44847 0.61154 0.0
C893 C 0.14083 0.44885 0.62455 0.0
C894 C 0.17489 0.55567 0.61138 0.0
C895 C 0.16302 0.50457 0.63064 0.0
C896 C 0.16348 0.64796 0.61137 0.0
C897 C 0.16334 0.64668 0.58564 0.0
N898 N 0.17765 0.5555 0.62403 0.0
N899 N 0.17684 0.60943 0.59218 0.0
H900 H 0.49274 0.15312 0.75461 0.0
H901 H 0.56927 0.07286 0.82089 0.0
H902 H 0.36429 0.06427 0.78419 0.0
H903 H 0.69075 0.12618 0.78959 0.0
H904 H 0.50628 0.10394 0.80966 0.0
H905 H 0.57572 0.17702 0.7692 0.0
C906 C 0.48223 0.14149 0.76433 0.0
C907 C 0.42176 0.10721 0.76828 0.0
C908 C 0.54749 0.11043 0.80532 0.0
C909 C 0.5159 0.13261 0.78487 0.0
C910 C 0.58366 0.09311 0.81178 0.0
C911 C 0.63511 0.09717 0.80613 0.0
C912 C 0.56205 0.13058 0.79298 0.0
C913 C 0.65159 0.12295 0.79427 0.0
C914 C 0.52951 0.15429 0.7726 0.0
C915 C 0.41038 0.09132 0.78084 0.0
N916 N 0.61443 0.1376 0.78796 0.0
N917 N 0.45689 0.10344 0.78864 0.0
H918 H 0.6094 0.71446 0.94239 0.0
H919 H 0.31098 0.41405 0.94679 0.0
H920 H 0.51345 0.65204 0.97705 0.0
H921 H 0.36942 0.51301 0.91244 0.0
H922 H 0.37291 0.50814 0.95823 0.0
H923 H 0.51436 0.65278 0.93123 0.0
C924 C 0.56763 0.69008 0.94763 0.0
C925 C 0.56897 0.68898 0.96063 0.0
C926 C 0.3705 0.50998 0.94821 0.0
C927 C 0.46059 0.61521 0.94798 0.0
C928 C 0.33452 0.45625 0.9417 0.0
C929 C 0.33444 0.45606 0.92869 0.0
C930 C 0.40852 0.56342 0.94162 0.0
C931 C 0.36744 0.51156 0.92249 0.0
C932 C 0.51336 0.65425 0.94127 0.0
C933 C 0.51401 0.65494 0.96702 0.0
N934 N 0.40449 0.56276 0.92899 0.0
N935 N 0.46232 0.61809 0.96064 0.0
loop_
_geom_bond_atom_site_label_1
_geom_bond_atom_site_label_2
_geom_bond_distance
_geom_bond_site_symmetry_2
_ccdc_geom_bond_type
C0 C1 1.351 . S
C0 N3 1.368 . S
C0 H5 0.931 . S
C1 C0 1.351 . S
C1 N2 1.373 . S
C1 H29 0.930 . S
N2 C1 1.373 . S
N2 C4 1.340 . S
N3 C0 1.368 . S
N3 C4 1.321 . S
N3 Co6 2.135 1_455 S
C4 N2 1.340 . S
C4 N3 1.321 . S
C4 H28 0.930 1_455 S
H5 C0 0.931 . S
Co6 N3 2.135 1_655 S
Co6 N9 2.121 . S
Co6 O14 2.055 . S
Co6 O17 2.039 . S
Co6 N20 2.140 1_655 S
C7 O8 1.227 . S
C7 O17 1.265 . S
O8 C7 1.227 . S
N9 Co6 2.121 . S
N9 C11 1.375 . S
N9 C12 1.313 . S
C10 C11 1.338 . S
C10 N13 1.377 . S
C10 H30 0.930 1_554 S
C11 N9 1.375 . S
C11 C10 1.338 . S
C11 H15 0.931 . S
C12 N9 1.313 . S
C12 N13 1.344 . S
C12 H16 0.930 . S
N13 C10 1.377 . S
N13 C12 1.344 . S
O14 Co6 2.055 . S
O14 C18 1.253 . S
H15 C11 0.931 . S
H16 C12 0.930 . S
O17 Co6 2.039 . S
O17 C7 1.265 . S
C18 O14 1.253 . S
C18 O19 1.227 1_655 S
O19 C18 1.227 1_455 S
N20 Co6 2.140 1_455 S
N20 C23 1.346 . S
N20 C24 1.345 . S
C21 C22 1.387 . S
C21 C25 1.391 . S
C22 C21 1.387 . S
C22 C23 1.369 . S
C22 H31 0.929 . S
C23 N20 1.346 . S
C23 C22 1.369 . S
C23 H26 0.928 . S
C24 N20 1.345 . S
C24 C25 1.371 . S
C24 H27 0.931 . S
C25 C21 1.391 . S
C25 C24 1.371 . S
C25 H32 0.930 . S
H26 C23 0.928 . S
H27 C24 0.931 . S
H28 C4 0.930 1_655 S
H29 C1 0.930 . S
H30 C10 0.930 1_556 S
H31 C22 0.929 . S
H32 C25 0.930 . S
C33 C34 1.351 . S
C33 N36 1.368 . S
C33 H38 0.931 . S
C34 C33 1.351 . S
C34 N35 1.373 . S
C34 H62 0.930 . S
N35 C34 1.373 . S
N35 C37 1.340 . S
N36 C33 1.368 . S
N36 C37 1.321 . S
N36 Co39 2.135 1_545 S
C37 N35 1.340 . S
C37 N36 1.321 . S
C37 H61 0.930 1_545 S
H38 C33 0.931 . S
Co39 N36 2.135 1_565 S
Co39 N42 2.121 . S
Co39 O47 2.055 . S
Co39 O50 2.039 . S
Co39 N53 2.140 1_565 S
C40 O41 1.227 . S
C40 O50 1.265 . S
O41 C40 1.227 . S
N42 Co39 2.121 . S
N42 C44 1.375 . S
N42 C45 1.313 . S
C43 C44 1.338 . S
C43 N46 1.377 . S
C43 H63 0.930 . S
C44 N42 1.375 . S
C44 C43 1.338 . S
C44 H48 0.931 . S
C45 N42 1.313 . S
C45 N46 1.344 . S
C45 H49 0.930 . S
N46 C43 1.377 . S
N46 C45 1.344 . S
O47 Co39 2.055 . S
O47 C51 1.253 . S
H48 C44 0.931 . S
H49 C45 0.930 . S
O50 Co39 2.039 . S
O50 C40 1.265 . S
C51 O47 1.253 . S
C51 O52 1.227 1_565 S
O52 C51 1.227 1_545 S
N53 Co39 2.140 1_545 S
N53 C56 1.346 . S
N53 C57 1.345 . S
C54 C55 1.387 . S
C54 C58 1.391 . S
C55 C54 1.387 . S
C55 C56 1.369 . S
C55 H64 0.929 . S
C56 N53 1.346 . S
C56 C55 1.369 . S
C56 H59 0.928 . S
C57 N53 1.345 . S
C57 C58 1.371 . S
C57 H60 0.931 . S
C58 C54 1.391 . S
C58 C57 1.371 . S
C58 H65 0.930 . S
H59 C56 0.928 . S
H60 C57 0.931 . S
H61 C37 0.930 1_565 S
H62 C34 0.930 . S
H63 C43 0.930 . S
H64 C55 0.929 . S
H65 C58 0.930 . S
C66 C67 1.351 . S
C66 N69 1.368 . S
C66 H71 0.931 . S
C67 C66 1.351 . S
C67 N68 1.373 . S
C67 H95 0.930 . S
N68 C67 1.373 . S
N68 C70 1.340 . S
N69 C66 1.368 . S
N69 C70 1.321 . S
N69 Co72 2.135 . S
C70 N68 1.340 . S
C70 N69 1.321 . S
C70 H94 0.930 . S
H71 C66 0.931 . S
Co72 N69 2.135 . S
Co72 N75 2.121 . S
Co72 O80 2.055 . S
Co72 O83 2.039 . S
Co72 N86 2.140 . S
C73 O74 1.227 . S
C73 O83 1.265 . S
O74 C73 1.227 . S
N75 Co72 2.121 . S
N75 C77 1.375 . S
N75 C78 1.313 . S
C76 C77 1.338 . S
C76 N79 1.377 . S
C76 H96 0.930 . S
C77 N75 1.375 . S
C77 C76 1.338 . S
C77 H81 0.931 . S
C78 N75 1.313 . S
C78 N79 1.344 . S
C78 H82 0.930 . S
N79 C76 1.377 . S
N79 C78 1.344 . S
O80 Co72 2.055 . S
O80 C84 1.253 . S
H81 C77 0.931 . S
H82 C78 0.930 . S
O83 Co72 2.039 . S
O83 C73 1.265 . S
C84 O80 1.253 . S
C84 O85 1.227 . S
O85 C84 1.227 . S
N86 Co72 2.140 . S
N86 C89 1.346 . S
N86 C90 1.345 . S
C87 C88 1.387 . S
C87 C91 1.391 . S
C88 C87 1.387 . S
C88 C89 1.369 . S
C88 H97 0.929 . S
C89 N86 1.346 . S
C89 C88 1.369 . S
C89 H92 0.928 . S
C90 N86 1.345 . S
C90 C91 1.371 . S
C90 H93 0.931 . S
C91 C87 1.391 . S
C91 C90 1.371 . S
C91 H98 0.930 . S
H92 C89 0.928 . S
H93 C90 0.931 . S
H94 C70 0.930 . S
H95 C67 0.930 . S
H96 C76 0.930 . S
H97 C88 0.929 . S
H98 C91 0.930 . S
C99 C100 1.351 . S
C99 N102 1.368 . S
C99 H104 0.931 . S
C100 C99 1.351 . S
C100 N101 1.373 . S
C100 H128 0.930 . S
N101 C100 1.373 . S
N101 C103 1.340 . S
N102 C99 1.368 . S
N102 C103 1.321 . S
N102 Co105 2.135 1_655 S
C103 N101 1.340 . S
C103 N102 1.321 . S
C103 H127 0.930 1_655 S
H104 C99 0.931 . S
Co105 N102 2.135 1_455 S
Co105 N108 2.121 . S
Co105 O113 2.055 . S
Co105 O116 2.039 . S
Co105 N119 2.140 1_455 S
C106 O107 1.227 . S
C106 O116 1.265 . S
O107 C106 1.227 . S
N108 Co105 2.121 . S
N108 C110 1.375 . S
N108 C111 1.313 . S
C109 C110 1.338 . S
C109 N112 1.377 . S
C109 H129 0.930 . S
C110 N108 1.375 . S
C110 C109 1.338 . S
C110 H114 0.931 . S
C111 N108 1.313 . S
C111 N112 1.344 . S
C111 H115 0.930 . S
N112 C109 1.377 . S
N112 C111 1.344 . S
O113 Co105 2.055 . S
O113 C117 1.253 . S
H114 C110 0.931 . S
H115 C111 0.930 . S
O116 Co105 2.039 . S
O116 C106 1.265 . S
C117 O113 1.253 . S
C117 O118 1.227 1_455 S
O118 C117 1.227 1_655 S
N119 Co105 2.140 1_655 S
N119 C122 1.346 . S
N119 C123 1.345 . S
C120 C121 1.387 . S
C120 C124 1.391 . S
C121 C120 1.387 . S
C121 C122 1.369 . S
C121 H130 0.929 . S
C122 N119 1.346 . S
C122 C121 1.369 . S
C122 H125 0.928 . S
C123 N119 1.345 . S
C123 C124 1.371 . S
C123 H126 0.931 . S
C124 C120 1.391 . S
C124 C123 1.371 . S
C124 H131 0.930 . S
H125 C122 0.928 . S
H126 C123 0.931 . S
H127 C103 0.930 1_455 S
H128 C100 0.930 . S
H129 C109 0.930 . S
H130 C121 0.929 . S
H131 C124 0.930 . S
C132 C133 1.351 . S
C132 N135 1.368 . S
C132 H137 0.931 . S
C133 C132 1.351 . S
C133 N134 1.373 . S
C133 H161 0.930 . S
N134 C133 1.373 . S
N134 C136 1.340 . S
N135 C132 1.368 . S
N135 C136 1.321 . S
N135 Co138 2.135 1_565 S
C136 N134 1.340 . S
C136 N135 1.321 . S
C136 H160 0.930 1_565 S
H137 C132 0.931 . S
Co138 N135 2.135 1_545 S
Co138 N141 2.121 . S
Co138 O146 2.055 . S
Co138 O149 2.039 . S
Co138 N152 2.140 1_545 S
C139 O140 1.227 . S
C139 O149 1.265 . S
O140 C139 1.227 . S
N141 Co138 2.121 . S
N141 C143 1.375 . S
N141 C144 1.313 . S
C142 C143 1.338 . S
C142 N145 1.377 . S
C142 H162 0.930 . S
C143 N141 1.375 . S
C143 C142 1.338 . S
C143 H147 0.931 . S
C144 N141 1.313 . S
C144 N145 1.344 . S
C144 H148 0.930 . S
N145 C142 1.377 . S
N145 C144 1.344 . S
O146 Co138 2.055 . S
O146 C150 1.253 . S
H147 C143 0.931 . S
H148 C144 0.930 . S
O149 Co138 2.039 . S
O149 C139 1.265 . S
C150 O146 1.253 . S
C150 O151 1.227 1_545 S
O151 C150 1.227 1_565 S
N152 Co138 2.140 1_565 S
N152 C155 1.346 . S
N152 C156 1.345 . S
C153 C154 1.387 . S
C153 C157 1.391 . S
C154 C153 1.387 . S
C154 C155 1.369 . S
C154 H163 0.929 . S
C155 N152 1.346 . S
C155 C154 1.369 . S
C155 H158 0.928 . S
C156 N152 1.345 . S
C156 C157 1.371 . S
C156 H159 0.931 . S
C157 C153 1.391 . S
C157 C156 1.371 . S
C157 H164 0.930 . S
H158 C155 0.928 . S
H159 C156 0.931 . S
H160 C136 0.930 1_545 S
H161 C133 0.930 . S
H162 C142 0.930 . S
H163 C154 0.929 . S
H164 C157 0.930 . S
C165 C166 1.351 . S
C165 N168 1.368 . S
C165 H170 0.931 . S
C166 C165 1.351 . S
C166 N167 1.373 . S
C166 H194 0.930 . S
N167 C166 1.373 . S
N167 C169 1.340 . S
N168 C165 1.368 . S
N168 C169 1.321 . S
N168 Co171 2.135 . S
C169 N167 1.340 . S
C169 N168 1.321 . S
C169 H193 0.930 . S
H170 C165 0.931 . S
Co171 N168 2.135 . S
Co171 N174 2.121 . S
Co171 O179 2.055 . S
Co171 O182 2.039 . S
Co171 N185 2.140 . S
C172 O173 1.227 . S
C172 O182 1.265 . S
O173 C172 1.227 . S
N174 Co171 2.121 . S
N174 C176 1.375 . S
N174 C177 1.313 . S
C175 C176 1.338 . S
C175 N178 1.377 . S
C175 H195 0.930 . S
C176 N174 1.375 . S
C176 C175 1.338 . S
C176 H180 0.931 . S
C177 N174 1.313 . S
C177 N178 1.344 . S
C177 H181 0.930 . S
N178 C175 1.377 . S
N178 C177 1.344 . S
O179 Co171 2.055 . S
O179 C183 1.253 . S
H180 C176 0.931 . S
H181 C177 0.930 . S
O182 Co171 2.039 . S
O182 C172 1.265 . S
C183 O179 1.253 . S
C183 O184 1.227 . S
O184 C183 1.227 . S
N185 Co171 2.140 . S
N185 C188 1.346 . S
N185 C189 1.345 . S
C186 C187 1.387 . S
C186 C190 1.391 . S
C187 C186 1.387 . S
C187 C188 1.369 . S
C187 H196 0.929 . S
C188 N185 1.346 . S
C188 C187 1.369 . S
C188 H191 0.928 . S
C189 N185 1.345 . S
C189 C190 1.371 . S
C189 H192 0.931 . S
C190 C186 1.391 . S
C190 C189 1.371 . S
C190 H197 0.930 . S
H191 C188 0.928 . S
H192 C189 0.931 . S
H193 C169 0.930 . S
H194 C166 0.930 . S
H195 C175 0.930 . S
H196 C187 0.929 . S
H197 C190 0.930 . S
C198 C199 1.351 . S
C198 N201 1.368 . S
C198 H203 0.931 . S
C199 C198 1.351 . S
C199 N200 1.373 . S
C199 H227 0.930 . S
N200 C199 1.373 . S
N200 C202 1.340 . S
N201 C198 1.368 . S
N201 C202 1.321 . S
N201 Co204 2.135 1_565 S
C202 N200 1.340 . S
C202 N201 1.321 . S
C202 H226 0.930 1_565 S
H203 C198 0.931 . S
Co204 N201 2.135 1_545 S
Co204 N207 2.121 . S
Co204 O212 2.055 . S
Co204 O215 2.039 . S
Co204 N218 2.140 1_545 S
C205 O206 1.227 . S
C205 O215 1.265 . S
O206 C205 1.227 . S
N207 Co204 2.121 . S
N207 C209 1.375 . S
N207 C210 1.313 . S
C208 C209 1.338 . S
C208 N211 1.377 . S
C208 H228 0.930 . S
C209 N207 1.375 . S
C209 C208 1.338 . S
C209 H213 0.931 . S
C210 N207 1.313 . S
C210 N211 1.344 . S
C210 H214 0.930 . S
N211 C208 1.377 . S
N211 C210 1.344 . S
O212 Co204 2.055 . S
O212 C216 1.253 . S
H213 C209 0.931 . S
H214 C210 0.930 . S
O215 Co204 2.039 . S
O215 C205 1.265 . S
C216 O212 1.253 . S
C216 O217 1.227 1_545 S
O217 C216 1.227 1_565 S
N218 Co204 2.140 1_565 S
N218 C221 1.346 . S
N218 C222 1.345 . S
C219 C220 1.387 . S
C219 C223 1.391 . S
C220 C219 1.387 . S
C220 C221 1.369 . S
C220 H229 0.929 . S
C221 N218 1.346 . S
C221 C220 1.369 . S
C221 H224 0.928 . S
C222 N218 1.345 . S
C222 C223 1.371 . S
C222 H225 0.931 . S
C223 C219 1.391 . S
C223 C222 1.371 . S
C223 H230 0.930 . S
H224 C221 0.928 . S
H225 C222 0.931 . S
H226 C202 0.930 1_545 S
H227 C199 0.930 . S
H228 C208 0.930 . S
H229 C220 0.929 . S
H230 C223 0.930 . S
C231 C232 1.351 . S
C231 N234 1.368 . S
C231 H236 0.931 . S
C232 C231 1.351 . S
C232 N233 1.373 . S
C232 H260 0.930 . S
N233 C232 1.373 . S
N233 C235 1.340 . S
N234 C231 1.368 . S
N234 C235 1.321 . S
N234 Co237 2.135 . S
C235 N233 1.340 . S
C235 N234 1.321 . S
C235 H259 0.930 . S
H236 C231 0.931 . S
Co237 N234 2.135 . S
Co237 N240 2.121 . S
Co237 O245 2.055 . S
Co237 O248 2.039 . S
Co237 N251 2.140 . S
C238 O239 1.227 . S
C238 O248 1.265 . S
O239 C238 1.227 . S
N240 Co237 2.121 . S
N240 C242 1.375 . S
N240 C243 1.313 . S
C241 C242 1.338 . S
C241 N244 1.377 . S
C241 H261 0.930 1_556 S
C242 N240 1.375 . S
C242 C241 1.338 . S
C242 H246 0.931 . S
C243 N240 1.313 . S
C243 N244 1.344 . S
C243 H247 0.930 . S
N244 C241 1.377 . S
N244 C243 1.344 . S
O245 Co237 2.055 . S
O245 C249 1.253 . S
H246 C242 0.931 . S
H247 C243 0.930 . S
O248 Co237 2.039 . S
O248 C238 1.265 . S
C249 O245 1.253 . S
C249 O250 1.227 . S
O250 C249 1.227 . S
N251 Co237 2.140 . S
N251 C254 1.346 . S
N251 C255 1.345 . S
C252 C253 1.387 . S
C252 C256 1.391 . S
C253 C252 1.387 . S
C253 C254 1.369 . S
C253 H262 0.929 . S
C254 N251 1.346 . S
C254 C253 1.369 . S
C254 H257 0.928 . S
C255 N251 1.345 . S
C255 C256 1.371 . S
C255 H258 0.931 . S
C256 C252 1.391 . S
C256 C255 1.371 . S
C256 H263 0.930 . S
H257 C254 0.928 . S
H258 C255 0.931 . S
H259 C235 0.930 . S
H260 C232 0.930 . S
H261 C241 0.930 1_554 S
H262 C253 0.929 . S
H263 C256 0.930 . S
C264 C265 1.351 . S
C264 N267 1.368 . S
C264 H269 0.931 . S
C265 C264 1.351 . S
C265 N266 1.373 . S
C265 H293 0.930 . S
N266 C265 1.373 . S
N266 C268 1.340 . S
N267 C264 1.368 . S
N267 C268 1.321 . S
N267 Co270 2.135 1_455 S
C268 N266 1.340 . S
C268 N267 1.321 . S
C268 H292 0.930 1_455 S
H269 C264 0.931 . S
Co270 N267 2.135 1_655 S
Co270 N273 2.121 . S
Co270 O278 2.055 . S
Co270 O281 2.039 . S
Co270 N284 2.140 1_655 S
C271 O272 1.227 . S
C271 O281 1.265 . S
O272 C271 1.227 . S
N273 Co270 2.121 . S
N273 C275 1.375 . S
N273 C276 1.313 . S
C274 C275 1.338 . S
C274 N277 1.377 . S
C274 H294 0.930 . S
C275 N273 1.375 . S
C275 C274 1.338 . S
C275 H279 0.931 . S
C276 N273 1.313 . S
C276 N277 1.344 . S
C276 H280 0.930 . S
N277 C274 1.377 . S
N277 C276 1.344 . S
O278 Co270 2.055 . S
O278 C282 1.253 . S
H279 C275 0.931 . S
H280 C276 0.930 . S
O281 Co270 2.039 . S
O281 C271 1.265 . S
C282 O278 1.253 . S
C282 O283 1.227 1_655 S
O283 C282 1.227 1_455 S
N284 Co270 2.140 1_455 S
N284 C287 1.346 . S
N284 C288 1.345 . S
C285 C286 1.387 . S
C285 C289 1.391 . S
C286 C285 1.387 . S
C286 C287 1.369 . S
C286 H295 0.929 . S
C287 N284 1.346 . S
C287 C286 1.369 . S
C287 H290 0.928 . S
C288 N284 1.345 . S
C288 C289 1.371 . S
C288 H291 0.931 . S
C289 C285 1.391 . S
C289 C288 1.371 . S
C289 H296 0.930 . S
H290 C287 0.928 . S
H291 C288 0.931 . S
H292 C268 0.930 1_655 S
H293 C265 0.930 . S
H294 C274 0.930 . S
H295 C286 0.929 . S
H296 C289 0.930 . S
C297 C298 1.351 . S
C297 N300 1.368 . S
C297 H302 0.931 . S
C298 C297 1.351 . S
C298 N299 1.373 . S
C298 H326 0.930 . S
N299 C298 1.373 . S
N299 C301 1.340 . S
N300 C297 1.368 . S
N300 C301 1.321 . S
N300 Co303 2.135 1_545 S
C301 N299 1.340 . S
C301 N300 1.321 . S
C301 H325 0.930 1_545 S
H302 C297 0.931 . S
Co303 N300 2.135 1_565 S
Co303 N306 2.121 . S
Co303 O311 2.055 . S
Co303 O314 2.039 . S
Co303 N317 2.140 1_565 S
C304 O305 1.227 . S
C304 O314 1.265 . S
O305 C304 1.227 . S
N306 Co303 2.121 . S
N306 C308 1.375 . S
N306 C309 1.313 . S
C307 C308 1.338 . S
C307 N310 1.377 . S
C307 H327 0.930 . S
C308 N306 1.375 . S
C308 C307 1.338 . S
C308 H312 0.931 . S
C309 N306 1.313 . S
C309 N310 1.344 . S
C309 H313 0.930 . S
N310 C307 1.377 . S
N310 C309 1.344 . S
O311 Co303 2.055 . S
O311 C315 1.253 . S
H312 C308 0.931 . S
H313 C309 0.930 . S
O314 Co303 2.039 . S
O314 C304 1.265 . S
C315 O311 1.253 . S
C315 O316 1.227 1_565 S
O316 C315 1.227 1_545 S
N317 Co303 2.140 1_545 S
N317 C320 1.346 . S
N317 C321 1.345 . S
C318 C319 1.387 . S
C318 C322 1.391 . S
C319 C318 1.387 . S
C319 C320 1.369 . S
C319 H328 0.929 . S
C320 N317 1.346 . S
C320 C319 1.369 . S
C320 H323 0.928 . S
C321 N317 1.345 . S
C321 C322 1.371 . S
C321 H324 0.931 . S
C322 C318 1.391 . S
C322 C321 1.371 . S
C322 H329 0.930 . S
H323 C320 0.928 . S
H324 C321 0.931 . S
H325 C301 0.930 1_565 S
H326 C298 0.930 . S
H327 C307 0.930 . S
H328 C319 0.929 . S
H329 C322 0.930 . S
C330 C331 1.351 . S
C330 N333 1.368 . S
C330 H335 0.931 . S
C331 C330 1.351 . S
C331 N332 1.373 . S
C331 H359 0.930 . S
N332 C331 1.373 . S
N332 C334 1.340 . S
N333 C330 1.368 . S
N333 C334 1.321 . S
N333 Co336 2.135 . S
C334 N332 1.340 . S
C334 N333 1.321 . S
C334 H358 0.930 . S
H335 C330 0.931 . S
Co336 N333 2.135 . S
Co336 N339 2.121 . S
Co336 O344 2.055 . S
Co336 O347 2.039 . S
Co336 N350 2.140 . S
C337 O338 1.227 . S
C337 O347 1.265 . S
O338 C337 1.227 . S
N339 Co336 2.121 . S
N339 C341 1.375 . S
N339 C342 1.313 . S
C340 C341 1.338 . S
C340 N343 1.377 . S
C340 H360 0.930 . S
C341 N339 1.375 . S
C341 C340 1.338 . S
C341 H345 0.931 . S
C342 N339 1.313 . S
C342 N343 1.344 . S
C342 H346 0.930 . S
N343 C340 1.377 . S
N343 C342 1.344 . S
O344 Co336 2.055 . S
O344 C348 1.253 . S
H345 C341 0.931 . S
H346 C342 0.930 . S
O347 Co336 2.039 . S
O347 C337 1.265 . S
C348 O344 1.253 . S
C348 O349 1.227 . S
O349 C348 1.227 . S
N350 Co336 2.140 . S
N350 C353 1.346 . S
N350 C354 1.345 . S
C351 C352 1.387 . S
C351 C355 1.391 . S
C352 C351 1.387 . S
C352 C353 1.369 . S
C352 H361 0.929 . S
C353 N350 1.346 . S
C353 C352 1.369 . S
C353 H356 0.928 . S
C354 N350 1.345 . S
C354 C355 1.371 . S
C354 H357 0.931 . S
C355 C351 1.391 . S
C355 C354 1.371 . S
C355 H362 0.930 . S
H356 C353 0.928 . S
H357 C354 0.931 . S
H358 C334 0.930 . S
H359 C331 0.930 . S
H360 C340 0.930 . S
H361 C352 0.929 . S
H362 C355 0.930 . S
C363 C364 1.351 . S
C363 N366 1.368 . S
C363 H368 0.931 . S
C364 C363 1.351 . S
C364 N365 1.373 . S
C364 H392 0.930 . S
N365 C364 1.373 . S
N365 C367 1.340 . S
N366 C363 1.368 . S
N366 C367 1.321 . S
N366 Co369 2.135 1_655 S
C367 N365 1.340 . S
C367 N366 1.321 . S
C367 H391 0.930 1_655 S
H368 C363 0.931 . S
Co369 N366 2.135 1_455 S
Co369 N372 2.121 . S
Co369 O377 2.055 . S
Co369 O380 2.039 . S
Co369 N383 2.140 1_455 S
C370 O371 1.227 . S
C370 O380 1.265 . S
O371 C370 1.227 . S
N372 Co369 2.121 . S
N372 C374 1.375 . S
N372 C375 1.313 . S
C373 C374 1.338 . S
C373 N376 1.377 . S
C373 H393 0.930 . S
C374 N372 1.375 . S
C374 C373 1.338 . S
C374 H378 0.931 . S
C375 N372 1.313 . S
C375 N376 1.344 . S
C375 H379 0.930 . S
N376 C373 1.377 . S
N376 C375 1.344 . S
O377 Co369 2.055 . S
O377 C381 1.253 . S
H378 C374 0.931 . S
H379 C375 0.930 . S
O380 Co369 2.039 . S
O380 C370 1.265 . S
C381 O377 1.253 . S
C381 O382 1.227 1_455 S
O382 C381 1.227 1_655 S
N383 Co369 2.140 1_655 S
N383 C386 1.346 . S
N383 C387 1.345 . S
C384 C385 1.387 . S
C384 C388 1.391 . S
C385 C384 1.387 . S
C385 C386 1.369 . S
C385 H394 0.929 . S
C386 N383 1.346 . S
C386 C385 1.369 . S
C386 H389 0.928 . S
C387 N383 1.345 . S
C387 C388 1.371 . S
C387 H390 0.931 . S
C388 C384 1.391 . S
C388 C387 1.371 . S
C388 H395 0.930 . S
H389 C386 0.928 . S
H390 C387 0.931 . S
H391 C367 0.930 1_455 S
H392 C364 0.930 . S
H393 C373 0.930 . S
H394 C385 0.929 . S
H395 C388 0.930 . S
H396 C402 0.930 . S
H397 C406 0.930 . S
H398 C411 0.929 . S
H399 C409 0.929 . S
H400 C404 0.929 . S
H401 C410 0.929 . S
C402 H396 0.930 . S
C402 C403 1.367 . S
C402 C410 1.378 1_556 S
C403 C402 1.367 . S
C403 C411 1.433 . S
C404 H400 0.929 . S
C404 C406 1.378 1_556 S
C404 C408 1.350 1_556 S
C405 C408 1.463 1_566 S
C405 C410 1.350 1_556 S
C405 N413 1.427 . S
C406 H397 0.930 . S
C406 C404 1.378 1_554 S
C406 C407 1.367 . S
C407 C406 1.367 . S
C407 C409 1.433 . S
C408 C404 1.350 1_554 S
C408 C405 1.463 1_544 S
C408 N412 1.427 . S
C409 H399 0.929 . S
C409 C407 1.433 . S
C409 N412 1.384 . S
C410 H401 0.929 . S
C410 C402 1.378 1_554 S
C410 C405 1.350 1_554 S
C411 H398 0.929 . S
C411 C403 1.433 . S
C411 N413 1.384 . S
N412 C408 1.427 . S
N412 C409 1.384 . S
N413 C405 1.427 . S
N413 C411 1.384 . S
H414 C420 0.930 . S
H415 C424 0.930 . S
H416 C429 0.929 . S
H417 C427 0.929 . S
H418 C422 0.929 . S
H419 C428 0.929 . S
C420 H414 0.930 . S
C420 C421 1.367 . S
C420 C428 1.378 . S
C421 C420 1.367 . S
C421 C429 1.433 . S
C422 H418 0.929 . S
C422 C424 1.378 . S
C422 C426 1.350 . S
C423 C426 1.463 . S
C423 C428 1.350 . S
C423 N431 1.427 . S
C424 H415 0.930 . S
C424 C422 1.378 . S
C424 C425 1.367 . S
C425 C424 1.367 . S
C425 C427 1.433 . S
C426 C422 1.350 . S
C426 C423 1.463 . S
C426 N430 1.427 . S
C427 H417 0.929 . S
C427 C425 1.433 . S
C427 N430 1.384 . S
C428 H419 0.929 . S
C428 C420 1.378 . S
C428 C423 1.350 . S
C429 H416 0.929 . S
C429 C421 1.433 . S
C429 N431 1.384 . S
N430 C426 1.427 . S
N430 C427 1.384 . S
N431 C423 1.427 . S
N431 C429 1.384 . S
H432 C438 0.930 . S
H433 C442 0.930 . S
H434 C447 0.929 . S
H435 C445 0.929 . S
H436 C440 0.929 1_655 S
H437 C446 0.929 1_455 S
C438 H432 0.930 . S
C438 C439 1.367 . S
C438 C446 1.378 . S
C439 C438 1.367 . S
C439 C447 1.433 . S
C440 H436 0.929 1_455 S
C440 C442 1.378 . S
C440 C444 1.350 . S
C441 C444 1.463 1_655 S
C441 C446 1.350 . S
C441 N449 1.427 . S
C442 H433 0.930 . S
C442 C440 1.378 . S
C442 C443 1.367 . S
C443 C442 1.367 . S
C443 C445 1.433 . S
C444 C440 1.350 . S
C444 C441 1.463 1_455 S
C444 N448 1.427 . S
C445 H435 0.929 . S
C445 C443 1.433 . S
C445 N448 1.384 . S
C446 H437 0.929 1_655 S
C446 C438 1.378 . S
C446 C441 1.350 . S
C447 H434 0.929 . S
C447 C439 1.433 . S
C447 N449 1.384 . S
N448 C444 1.427 . S
N448 C445 1.384 . S
N449 C441 1.427 . S
N449 C447 1.384 . S
H450 C456 0.930 . S
H451 C460 0.930 . S
H452 C465 0.929 . S
H453 C463 0.929 . S
H454 C458 0.929 1_545 S
H455 C464 0.929 1_565 S
C456 H450 0.930 . S
C456 C457 1.367 . S
C456 C464 1.378 . S
C457 C456 1.367 . S
C457 C465 1.433 . S
C458 H454 0.929 1_565 S
C458 C460 1.378 . S
C458 C462 1.350 . S
C459 C462 1.463 1_545 S
C459 C464 1.350 . S
C459 N467 1.427 . S
C460 H451 0.930 . S
C460 C458 1.378 . S
C460 C461 1.367 . S
C461 C460 1.367 . S
C461 C463 1.433 . S
C462 C458 1.350 . S
C462 C459 1.463 1_565 S
C462 N466 1.427 . S
C463 H453 0.929 . S
C463 C461 1.433 . S
C463 N466 1.384 . S
C464 H455 0.929 1_545 S
C464 C456 1.378 . S
C464 C459 1.350 . S
C465 H452 0.929 . S
C465 C457 1.433 . S
C465 N467 1.384 . S
N466 C462 1.427 . S
N466 C463 1.384 . S
N467 C459 1.427 . S
N467 C465 1.384 . S
H468 C474 0.930 . S
H469 C478 0.930 . S
H470 C483 0.929 . S
H471 C481 0.929 . S
H472 C476 0.929 . S
H473 C482 0.929 . S
C474 H468 0.930 . S
C474 C475 1.367 . S
C474 C482 1.378 . S
C475 C474 1.367 . S
C475 C483 1.433 . S
C476 H472 0.929 . S
C476 C478 1.378 . S
C476 C480 1.350 . S
C477 C480 1.463 . S
C477 C482 1.350 . S
C477 N485 1.427 . S
C478 H469 0.930 . S
C478 C476 1.378 . S
C478 C479 1.367 . S
C479 C478 1.367 . S
C479 C481 1.433 . S
C480 C476 1.350 . S
C480 C477 1.463 . S
C480 N484 1.427 . S
C481 H471 0.929 . S
C481 C479 1.433 . S
C481 N484 1.384 . S
C482 H473 0.929 . S
C482 C474 1.378 . S
C482 C477 1.350 . S
C483 H470 0.929 . S
C483 C475 1.433 . S
C483 N485 1.384 . S
N484 C480 1.427 . S
N484 C481 1.384 . S
N485 C477 1.427 . S
N485 C483 1.384 . S
H486 C492 0.930 . S
H487 C496 0.930 . S
H488 C501 0.929 . S
H489 C499 0.929 . S
H490 C494 0.929 . S
H491 C500 0.929 . S
C492 H486 0.930 . S
C492 C493 1.367 . S
C492 C500 1.378 . S
C493 C492 1.367 . S
C493 C501 1.433 . S
C494 H490 0.929 . S
C494 C496 1.378 . S
C494 C498 1.350 . S
C495 C498 1.463 1_655 S
C495 C500 1.350 . S
C495 N503 1.427 . S
C496 H487 0.930 . S
C496 C494 1.378 . S
C496 C497 1.367 . S
C497 C496 1.367 . S
C497 C499 1.433 . S
C498 C494 1.350 . S
C498 C495 1.463 1_455 S
C498 N502 1.427 . S
C499 H489 0.929 . S
C499 C497 1.433 . S
C499 N502 1.384 . S
C500 H491 0.929 . S
C500 C492 1.378 . S
C500 C495 1.350 . S
C501 H488 0.929 . S
C501 C493 1.433 . S
C501 N503 1.384 . S
N502 C498 1.427 . S
N502 C499 1.384 . S
N503 C495 1.427 . S
N503 C501 1.384 . S
H504 C510 0.930 . S
H505 C514 0.930 . S
H506 C519 0.929 . S
H507 C517 0.929 . S
H508 C512 0.929 . S
H509 C518 0.929 . S
C510 H504 0.930 . S
C510 C511 1.367 . S
C510 C518 1.378 . S
C511 C510 1.367 . S
C511 C519 1.433 . S
C512 H508 0.929 . S
C512 C514 1.378 . S
C512 C516 1.358 . S
C513 C516 1.455 1_545 S
C513 C518 1.350 . S
C513 N521 1.427 . S
C514 H505 0.930 . S
C514 C512 1.378 . S
C514 C515 1.367 . S
C515 C514 1.367 . S
C515 C517 1.433 . S
C516 C512 1.358 . S
C516 C513 1.455 1_565 S
C516 N520 1.426 1_565 S
C517 H507 0.929 . S
C517 C515 1.433 . S
C517 N520 1.384 1_565 S
C518 H509 0.929 . S
C518 C510 1.378 . S
C518 C513 1.350 . S
C519 H506 0.929 . S
C519 C511 1.433 . S
C519 N521 1.384 . S
N520 C516 1.426 1_545 S
N520 C517 1.384 1_545 S
N521 C513 1.427 . S
N521 C519 1.384 . S
H522 C528 0.922 1_565 S
H523 C532 0.930 . S
H524 C537 0.929 . S
H525 C535 0.932 . S
H526 C530 0.929 . S
H527 C536 0.915 1_565 S
C528 H522 0.922 1_545 S
C528 C529 1.380 . S
C528 C536 1.378 . S
C529 C528 1.380 . S
C529 C537 1.433 . S
C530 H526 0.929 . S
C530 C532 1.378 . S
C530 C534 1.350 . S
C531 C534 1.473 . S
C531 C536 1.356 1_455 S
C531 N539 1.418 1_455 S
C532 H523 0.930 . S
C532 C530 1.378 . S
C532 C533 1.367 . S
C533 C532 1.367 . S
C533 C535 1.431 1_545 S
C534 C530 1.350 . S
C534 C531 1.473 . S
C534 N538 1.436 . S
C535 H525 0.932 . S
C535 C533 1.431 1_565 S
C535 N538 1.379 1_565 S
C536 H527 0.915 1_545 S
C536 C528 1.378 . S
C536 C531 1.356 1_655 S
C537 H524 0.929 . S
C537 C529 1.433 . S
C537 N539 1.384 . S
N538 C534 1.436 . S
N538 C535 1.379 1_545 S
N539 C531 1.418 1_655 S
N539 C537 1.384 . S
H540 C546 0.930 . S
H541 C550 0.930 . S
H542 C555 0.929 . S
H543 C553 0.929 . S
H544 C548 0.929 1_455 S
H545 C554 0.929 . S
C546 H540 0.930 . S
C546 C547 1.367 . S
C546 C554 1.378 1_455 S
C547 C546 1.367 . S
C547 C555 1.433 . S
C548 H544 0.929 1_655 S
C548 C550 1.378 1_545 S
C548 C552 1.350 . S
C549 C552 1.463 . S
C549 C554 1.350 . S
C549 N557 1.427 1_655 S
C550 H541 0.930 . S
C550 C548 1.378 1_565 S
C550 C551 1.367 . S
C551 C550 1.367 . S
C551 C553 1.433 . S
C552 C548 1.350 . S
C552 C549 1.463 . S
C552 N556 1.427 1_545 S
C553 H543 0.929 . S
C553 C551 1.433 . S
C553 N556 1.384 . S
C554 H545 0.929 . S
C554 C546 1.378 1_655 S
C554 C549 1.350 . S
C555 H542 0.929 . S
C555 C547 1.433 . S
C555 N557 1.384 . S
N556 C552 1.427 1_565 S
N556 C553 1.384 . S
N557 C549 1.427 1_455 S
N557 C555 1.384 . S
H558 C564 0.930 . S
H559 C568 0.930 . S
H560 C573 0.929 . S
H561 C571 0.929 . S
H562 C566 0.929 . S
H563 C572 0.929 1_565 S
C564 H558 0.930 . S
C564 C565 1.367 . S
C564 C572 1.378 . S
C565 C564 1.367 . S
C565 C573 1.433 . S
C566 H562 0.929 . S
C566 C568 1.378 . S
C566 C570 1.350 . S
C567 C570 1.463 . S
C567 C572 1.350 1_565 S
C567 N575 1.427 1_565 S
C568 H559 0.930 . S
C568 C566 1.378 . S
C568 C569 1.367 . S
C569 C568 1.367 . S
C569 C571 1.433 . S
C570 C566 1.350 . S
C570 C567 1.463 . S
C570 N574 1.427 . S
C571 H561 0.929 . S
C571 C569 1.433 . S
C571 N574 1.384 . S
C572 H563 0.929 1_545 S
C572 C564 1.378 . S
C572 C567 1.350 1_545 S
C573 H560 0.929 . S
C573 C565 1.433 . S
C573 N575 1.384 . S
N574 C570 1.427 . S
N574 C571 1.384 . S
N575 C567 1.427 1_545 S
N575 C573 1.384 . S
H576 C582 0.930 . S
H577 C586 0.930 . S
H578 C591 0.929 . S
H579 C589 0.929 . S
H580 C584 0.929 . S
H581 C590 0.929 1_655 S
C582 H576 0.930 . S
C582 C583 1.367 . S
C582 C590 1.378 . S
C583 C582 1.367 . S
C583 C591 1.433 1_565 S
C584 H580 0.929 . S
C584 C586 1.378 . S
C584 C588 1.350 1_545 S
C585 C588 1.463 . S
C585 C590 1.350 1_655 S
C585 N593 1.427 1_665 S
C586 H577 0.930 . S
C586 C584 1.378 . S
C586 C587 1.367 1_545 S
C587 C586 1.367 1_565 S
C587 C589 1.433 . S
C588 C584 1.350 1_565 S
C588 C585 1.463 . S
C588 N592 1.427 . S
C589 H579 0.929 . S
C589 C587 1.433 . S
C589 N592 1.384 . S
C590 H581 0.929 1_455 S
C590 C582 1.378 . S
C590 C585 1.350 1_455 S
C591 H578 0.929 . S
C591 C583 1.433 1_545 S
C591 N593 1.384 . S
N592 C588 1.427 . S
N592 C589 1.384 . S
N593 C585 1.427 1_445 S
N593 C591 1.384 . S
H594 C600 0.930 . S
H595 C604 0.930 . S
H596 C609 0.929 . S
H597 C607 0.929 . S
H598 C602 0.929 . S
H599 C608 0.929 . S
C600 H594 0.930 . S
C600 C601 1.367 . S
C600 C608 1.378 . S
C601 C600 1.367 . S
C601 C609 1.433 . S
C602 H598 0.929 . S
C602 C604 1.378 . S
C602 C606 1.349 . S
C603 C606 1.464 1_565 S
C603 C608 1.349 1_455 S
C603 N611 1.427 . S
C604 H595 0.930 . S
C604 C602 1.378 . S
C604 C605 1.367 . S
C605 C604 1.367 . S
C605 C607 1.433 . S
C606 C602 1.349 . S
C606 C603 1.464 1_545 S
C606 N610 1.428 1_545 S
C607 H597 0.929 . S
C607 C605 1.433 . S
C607 N610 1.384 1_545 S
C608 H599 0.929 . S
C608 C600 1.378 . S
C608 C603 1.349 1_655 S
C609 H596 0.929 . S
C609 C601 1.433 . S
C609 N611 1.384 1_655 S
N610 C606 1.428 1_565 S
N610 C607 1.384 1_565 S
N611 C603 1.427 . S
N611 C609 1.384 1_455 S
H612 C618 0.930 . S
H613 C622 0.930 . S
H614 C627 0.960 . S
H615 C625 0.929 1_556 S
H616 C620 0.929 . S
H617 C626 0.929 . S
C618 H612 0.930 . S
C618 C619 1.367 . S
C618 C626 1.378 . S
C619 C618 1.367 . S
C619 C627 1.378 1_556 S
C620 H616 0.929 . S
C620 C622 1.378 . S
C620 C624 1.350 . S
C621 C624 1.463 1_556 S
C621 C626 1.350 . S
C621 N629 1.427 1_556 S
C622 H613 0.930 . S
C622 C620 1.378 . S
C622 C623 1.367 . S
C623 C622 1.367 . S
C623 C625 1.433 . S
C624 C620 1.350 . S
C624 C621 1.463 1_554 S
C624 N628 1.427 1_554 S
C625 H615 0.929 1_554 S
C625 C623 1.433 . S
C625 N628 1.384 1_554 S
C626 H617 0.929 . S
C626 C618 1.378 . S
C626 C621 1.350 . S
C627 H614 0.960 . S
C627 C619 1.378 1_554 S
C627 N629 1.408 . S
N628 C624 1.427 1_556 S
N628 C625 1.384 1_556 S
N629 C621 1.427 1_554 S
N629 C627 1.408 . S
H630 C636 0.930 . S
H631 C640 0.930 . S
H632 C645 0.929 . S
H633 C643 0.929 . S
H634 C638 0.929 . S
H635 C644 0.929 . S
C636 H630 0.930 . S
C636 C637 1.367 . S
C636 C644 1.378 . S
C637 C636 1.367 . S
C637 C645 1.433 . S
C638 H634 0.929 . S
C638 C640 1.378 . S
C638 C642 1.350 . S
C639 C642 1.463 . S
C639 C644 1.350 . S
C639 N647 1.427 . S
C640 H631 0.930 . S
C640 C638 1.378 . S
C640 C641 1.367 . S
C641 C640 1.367 . S
C641 C643 1.433 . S
C642 C638 1.350 . S
C642 C639 1.463 . S
C642 N646 1.427 . S
C643 H633 0.929 . S
C643 C641 1.433 . S
C643 N646 1.384 . S
C644 H635 0.929 . S
C644 C636 1.378 . S
C644 C639 1.350 . S
C645 H632 0.929 . S
C645 C637 1.433 . S
C645 N647 1.384 . S
N646 C642 1.427 . S
N646 C643 1.384 . S
N647 C639 1.427 . S
N647 C645 1.384 . S
H648 C654 0.930 . S
H649 C658 0.930 . S
H650 C663 0.929 . S
H651 C661 0.929 . S
H652 C656 0.929 . S
H653 C662 0.929 . S
C654 H648 0.930 . S
C654 C655 1.367 . S
C654 C662 1.378 . S
C655 C654 1.367 . S
C655 C663 1.433 . S
C656 H652 0.929 . S
C656 C658 1.378 . S
C656 C660 1.350 . S
C657 C660 1.463 . S
C657 C662 1.350 . S
C657 N665 1.427 . S
C658 H649 0.930 . S
C658 C656 1.378 . S
C658 C659 1.367 . S
C659 C658 1.367 . S
C659 C661 1.433 . S
C660 C656 1.350 . S
C660 C657 1.463 . S
C660 N664 1.427 . S
C661 H651 0.929 . S
C661 C659 1.433 . S
C661 N664 1.384 . S
C662 H653 0.929 . S
C662 C654 1.378 . S
C662 C657 1.350 . S
C663 H650 0.929 . S
C663 C655 1.433 . S
C663 N665 1.384 . S
N664 C660 1.427 . S
N664 C661 1.384 . S
N665 C657 1.427 . S
N665 C663 1.384 . S
H666 C672 0.930 . S
H667 C676 0.930 . S
H668 C681 0.929 . S
H669 C679 0.929 . S
H670 C674 0.929 . S
H671 C680 0.929 . S
C672 H666 0.930 . S
C672 C673 1.367 . S
C672 C680 1.378 . S
C673 C672 1.367 . S
C673 C681 1.433 . S
C674 H670 0.929 . S
C674 C676 1.378 . S
C674 C678 1.350 . S
C675 C678 1.463 . S
C675 C680 1.350 . S
C675 N683 1.427 . S
C676 H667 0.930 . S
C676 C674 1.378 . S
C676 C677 1.367 . S
C677 C676 1.367 . S
C677 C679 1.433 . S
C678 C674 1.350 . S
C678 C675 1.463 . S
C678 N682 1.427 . S
C679 H669 0.929 . S
C679 C677 1.433 . S
C679 N682 1.384 . S
C680 H671 0.929 . S
C680 C672 1.378 . S
C680 C675 1.350 . S
C681 H668 0.929 . S
C681 C673 1.433 . S
C681 N683 1.384 . S
N682 C678 1.427 . S
N682 C679 1.384 . S
N683 C675 1.427 . S
N683 C681 1.384 . S
H684 C690 0.930 . S
H685 C694 0.930 . S
H686 C699 0.929 . S
H687 C697 0.929 . S
H688 C692 0.929 . S
H689 C698 0.929 . S
C690 H684 0.930 . S
C690 C691 1.367 . S
C690 C698 1.378 . S
C691 C690 1.367 . S
C691 C699 1.433 . S
C692 H688 0.929 . S
C692 C694 1.378 . S
C692 C696 1.350 . S
C693 C696 1.463 . S
C693 C698 1.350 . S
C693 N701 1.427 . S
C694 H685 0.930 . S
C694 C692 1.378 . S
C694 C695 1.367 . S
C695 C694 1.367 . S
C695 C697 1.433 . S
C696 C692 1.350 . S
C696 C693 1.463 . S
C696 N700 1.427 . S
C697 H687 0.929 . S
C697 C695 1.433 . S
C697 N700 1.384 . S
C698 H689 0.929 . S
C698 C690 1.378 . S
C698 C693 1.350 . S
C699 H686 0.929 . S
C699 C691 1.433 . S
C699 N701 1.384 . S
N700 C696 1.427 . S
N700 C697 1.384 . S
N701 C693 1.427 . S
N701 C699 1.384 . S
H702 C708 0.930 . S
H703 C712 0.930 . S
H704 C717 0.929 . S
H705 C715 0.929 . S
H706 C710 0.929 . S
H707 C716 0.929 . S
C708 H702 0.930 . S
C708 C709 1.367 . S
C708 C716 1.378 . S
C709 C708 1.367 . S
C709 C717 1.433 . S
C710 H706 0.929 . S
C710 C712 1.378 . S
C710 C714 1.350 . S
C711 C714 1.463 . S
C711 C716 1.350 . S
C711 N719 1.427 . S
C712 H703 0.930 . S
C712 C710 1.378 . S
C712 C713 1.367 . S
C713 C712 1.367 . S
C713 C715 1.433 . S
C714 C710 1.350 . S
C714 C711 1.463 . S
C714 N718 1.427 . S
C715 H705 0.929 . S
C715 C713 1.433 . S
C715 N718 1.384 . S
C716 H707 0.929 . S
C716 C708 1.378 . S
C716 C711 1.350 . S
C717 H704 0.929 . S
C717 C709 1.433 . S
C717 N719 1.384 . S
N718 C714 1.427 . S
N718 C715 1.384 . S
N719 C711 1.427 . S
N719 C717 1.384 . S
H720 C726 0.930 . S
H721 C730 0.930 . S
H722 C735 0.929 . S
H723 C733 0.929 . S
H724 C728 0.929 . S
H725 C734 0.929 . S
C726 H720 0.930 . S
C726 C727 1.367 . S
C726 C734 1.378 . S
C727 C726 1.367 . S
C727 C735 1.433 . S
C728 H724 0.929 . S
C728 C730 1.378 . S
C728 C732 1.350 . S
C729 C732 1.463 . S
C729 C734 1.350 . S
C729 N737 1.427 . S
C730 H721 0.930 . S
C730 C728 1.378 . S
C730 C731 1.367 . S
C731 C730 1.367 . S
C731 C733 1.433 . S
C732 C728 1.350 . S
C732 C729 1.463 . S
C732 N736 1.427 . S
C733 H723 0.929 . S
C733 C731 1.433 . S
C733 N736 1.384 . S
C734 H725 0.929 . S
C734 C726 1.378 . S
C734 C729 1.350 . S
C735 H722 0.929 . S
C735 C727 1.433 . S
C735 N737 1.384 . S
N736 C732 1.427 . S
N736 C733 1.384 . S
N737 C729 1.427 . S
N737 C735 1.384 . S
H738 C744 0.930 1_455 S
H739 C748 0.930 . S
H740 C753 0.929 . S
H741 C751 0.929 . S
H742 C746 0.929 . S
H743 C752 0.929 . S
C744 H738 0.930 1_655 S
C744 C745 1.367 . S
C744 C752 1.378 . S
C745 C744 1.367 . S
C745 C753 1.433 . S
C746 H742 0.929 . S
C746 C748 1.378 . S
C746 C750 1.350 . S
C747 C750 1.463 1_554 S
C747 C752 1.350 . S
C747 N755 1.427 . S
C748 H739 0.930 . S
C748 C746 1.378 . S
C748 C749 1.367 . S
C749 C748 1.367 . S
C749 C751 1.433 . S
C750 C746 1.350 . S
C750 C747 1.463 1_556 S
C750 N754 1.427 . S
C751 H741 0.929 . S
C751 C749 1.433 . S
C751 N754 1.384 . S
C752 H743 0.929 . S
C752 C744 1.378 . S
C752 C747 1.350 . S
C753 H740 0.929 . S
C753 C745 1.433 . S
C753 N755 1.384 . S
N754 C750 1.427 . S
N754 C751 1.384 . S
N755 C747 1.427 . S
N755 C753 1.384 . S
H756 C762 0.930 . S
H757 C766 0.930 . S
H758 C771 0.929 . S
H759 C769 0.929 . S
H760 C764 0.929 . S
H761 C770 0.929 . S
C762 H756 0.930 . S
C762 C763 1.367 . S
C762 C770 1.378 . S
C763 C762 1.367 . S
C763 C771 1.433 . S
C764 H760 0.929 . S
C764 C766 1.378 . S
C764 C768 1.350 . S
C765 C768 1.463 . S
C765 C770 1.350 . S
C765 N773 1.427 . S
C766 H757 0.930 . S
C766 C764 1.378 . S
C766 C767 1.367 . S
C767 C766 1.367 . S
C767 C769 1.433 . S
C768 C764 1.350 . S
C768 C765 1.463 . S
C768 N772 1.427 . S
C769 H759 0.929 . S
C769 C767 1.433 . S
C769 N772 1.384 . S
C770 H761 0.929 . S
C770 C762 1.378 . S
C770 C765 1.350 . S
C771 H758 0.929 . S
C771 C763 1.433 . S
C771 N773 1.384 . S
N772 C768 1.427 . S
N772 C769 1.384 . S
N773 C765 1.427 . S
N773 C771 1.384 . S
H774 C780 0.930 . S
H775 C784 0.930 . S
H776 C789 0.929 . S
H777 C787 0.929 . S
H778 C782 0.929 . S
H779 C788 0.929 . S
C780 H774 0.930 . S
C780 C781 1.367 . S
C780 C788 1.378 . S
C781 C780 1.367 . S
C781 C789 1.433 . S
C782 H778 0.929 . S
C782 C784 1.378 . S
C782 C786 1.350 . S
C783 C786 1.463 . S
C783 C788 1.350 . S
C783 N791 1.427 . S
C784 H775 0.930 . S
C784 C782 1.378 . S
C784 C785 1.367 . S
C785 C784 1.367 . S
C785 C787 1.433 . S
C786 C782 1.350 . S
C786 C783 1.463 . S
C786 N790 1.427 . S
C787 H777 0.929 . S
C787 C785 1.433 . S
C787 N790 1.384 . S
C788 H779 0.929 . S
C788 C780 1.378 . S
C788 C783 1.350 . S
C789 H776 0.929 . S
C789 C781 1.433 . S
C789 N791 1.384 . S
N790 C786 1.427 . S
N790 C787 1.384 . S
N791 C783 1.427 . S
N791 C789 1.384 . S
H792 C798 0.930 . S
H793 C802 0.930 . S
H794 C807 0.929 . S
H795 C805 0.929 . S
H796 C800 0.929 . S
H797 C806 0.929 . S
C798 H792 0.930 . S
C798 C799 1.367 . S
C798 C806 1.378 . S
C799 C798 1.367 . S
C799 C807 1.433 . S
C800 H796 0.929 . S
C800 C802 1.378 . S
C800 C804 1.350 . S
C801 C804 1.463 . S
C801 C806 1.350 . S
C801 N809 1.427 . S
C802 H793 0.930 . S
C802 C800 1.378 . S
C802 C803 1.367 . S
C803 C802 1.367 . S
C803 C805 1.433 . S
C804 C800 1.350 . S
C804 C801 1.463 . S
C804 N808 1.427 . S
C805 H795 0.929 . S
C805 C803 1.433 . S
C805 N808 1.384 . S
C806 H797 0.929 . S
C806 C798 1.378 . S
C806 C801 1.350 . S
C807 H794 0.929 . S
C807 C799 1.433 . S
C807 N809 1.384 . S
N808 C804 1.427 . S
N808 C805 1.384 . S
N809 C801 1.427 . S
N809 C807 1.384 . S
H810 C816 0.930 . S
H811 C820 0.930 . S
H812 C825 0.929 . S
H813 C823 0.929 . S
H814 C818 0.929 . S
H815 C824 0.929 . S
C816 H810 0.930 . S
C816 C817 1.367 . S
C816 C824 1.378 . S
C817 C816 1.367 . S
C817 C825 1.433 . S
C818 H814 0.929 . S
C818 C820 1.378 . S
C818 C822 1.350 . S
C819 C822 1.463 . S
C819 C824 1.350 . S
C819 N827 1.427 . S
C820 H811 0.930 . S
C820 C818 1.378 . S
C820 C821 1.367 . S
C821 C820 1.367 . S
C821 C823 1.433 . S
C822 C818 1.350 . S
C822 C819 1.463 . S
C822 N826 1.427 . S
C823 H813 0.929 . S
C823 C821 1.433 . S
C823 N826 1.384 . S
C824 H815 0.929 . S
C824 C816 1.378 . S
C824 C819 1.350 . S
C825 H812 0.929 . S
C825 C817 1.433 . S
C825 N827 1.384 . S
N826 C822 1.427 . S
N826 C823 1.384 . S
N827 C819 1.427 . S
N827 C825 1.384 . S
H828 C834 0.930 . S
H829 C838 0.930 . S
H830 C843 0.929 . S
H831 C841 0.929 . S
H832 C836 0.929 . S
H833 C842 0.929 . S
C834 H828 0.930 . S
C834 C835 1.367 1_455 S
C834 C842 1.378 . S
C835 C834 1.367 1_655 S
C835 C843 1.433 . S
C836 H832 0.929 . S
C836 C838 1.378 . S
C836 C840 1.350 . S
C837 C840 1.463 . S
C837 C842 1.350 1_655 S
C837 N845 1.427 . S
C838 H829 0.930 . S
C838 C836 1.378 . S
C838 C839 1.367 . S
C839 C838 1.367 . S
C839 C841 1.433 1_655 S
C840 C836 1.350 . S
C840 C837 1.463 . S
C840 N844 1.427 1_655 S
C841 H831 0.929 . S
C841 C839 1.433 1_455 S
C841 N844 1.384 . S
C842 H833 0.929 . S
C842 C834 1.378 . S
C842 C837 1.350 1_455 S
C843 H830 0.929 . S
C843 C835 1.433 . S
C843 N845 1.384 . S
N844 C840 1.427 1_455 S
N844 C841 1.384 . S
N845 C837 1.427 . S
N845 C843 1.384 . S
H846 C852 0.930 . S
H847 C856 0.930 . S
H848 C861 0.929 . S
H849 C859 0.929 . S
H850 C854 0.929 . S
H851 C860 0.929 . S
C852 H846 0.930 . S
C852 C853 1.367 . S
C852 C860 1.378 . S
C853 C852 1.367 . S
C853 C861 1.433 1_565 S
C854 H850 0.929 . S
C854 C856 1.378 . S
C854 C858 1.350 1_545 S
C855 C858 1.463 . S
C855 C860 1.350 . S
C855 N863 1.427 1_565 S
C856 H847 0.930 . S
C856 C854 1.378 . S
C856 C857 1.367 1_545 S
C857 C856 1.367 1_565 S
C857 C859 1.433 . S
C858 C854 1.350 1_565 S
C858 C855 1.463 . S
C858 N862 1.427 . S
C859 H849 0.929 . S
C859 C857 1.433 . S
C859 N862 1.384 . S
C860 H851 0.929 . S
C860 C852 1.378 . S
C860 C855 1.350 . S
C861 H848 0.929 . S
C861 C853 1.433 1_545 S
C861 N863 1.384 . S
N862 C858 1.427 . S
N862 C859 1.384 . S
N863 C855 1.427 1_545 S
N863 C861 1.384 . S
H864 C870 0.930 . S
H865 C874 0.930 . S
H866 C879 0.929 . S
H867 C877 0.929 . S
H868 C872 0.929 . S
H869 C878 0.929 . S
C870 H864 0.930 . S
C870 C871 1.367 . S
C870 C878 1.378 . S
C871 C870 1.367 . S
C871 C879 1.433 . S
C872 H868 0.929 . S
C872 C874 1.378 . S
C872 C876 1.350 . S
C873 C876 1.463 . S
C873 C878 1.350 . S
C873 N881 1.427 . S
C874 H865 0.930 . S
C874 C872 1.378 . S
C874 C875 1.367 . S
C875 C874 1.367 . S
C875 C877 1.433 . S
C876 C872 1.350 . S
C876 C873 1.463 . S
C876 N880 1.427 . S
C877 H867 0.929 . S
C877 C875 1.433 . S
C877 N880 1.384 . S
C878 H869 0.929 . S
C878 C870 1.378 . S
C878 C873 1.350 . S
C879 H866 0.929 . S
C879 C871 1.433 . S
C879 N881 1.384 . S
N880 C876 1.427 . S
N880 C877 1.384 . S
N881 C873 1.427 . S
N881 C879 1.384 . S
H882 C888 0.930 . S
H883 C892 0.930 . S
H884 C897 0.929 . S
H885 C895 0.929 . S
H886 C890 0.929 . S
H887 C896 0.929 . S
C888 H882 0.930 . S
C888 C889 1.367 . S
C888 C896 1.378 . S
C889 C888 1.367 . S
C889 C897 1.433 . S
C890 H886 0.929 . S
C890 C892 1.378 . S
C890 C894 1.350 . S
C891 C894 1.463 . S
C891 C896 1.350 . S
C891 N899 1.427 . S
C892 H883 0.930 . S
C892 C890 1.378 . S
C892 C893 1.367 . S
C893 C892 1.367 . S
C893 C895 1.433 . S
C894 C890 1.350 . S
C894 C891 1.463 . S
C894 N898 1.427 . S
C895 H885 0.929 . S
C895 C893 1.433 . S
C895 N898 1.384 . S
C896 H887 0.929 . S
C896 C888 1.378 . S
C896 C891 1.350 . S
C897 H884 0.929 . S
C897 C889 1.433 . S
C897 N899 1.384 . S
N898 C894 1.427 . S
N898 C895 1.384 . S
N899 C891 1.427 . S
N899 C897 1.384 . S
H900 C906 0.930 . S
H901 C910 0.930 . S
H902 C915 0.929 . S
H903 C913 0.929 . S
H904 C908 0.929 . S
H905 C914 0.929 . S
C906 H900 0.930 . S
C906 C907 1.367 1_565 S
C906 C914 1.378 . S
C907 C906 1.367 1_545 S
C907 C915 1.433 . S
C908 H904 0.929 . S
C908 C910 1.378 . S
C908 C912 1.350 . S
C909 C912 1.463 . S
C909 C914 1.350 1_545 S
C909 N917 1.427 . S
C910 H901 0.930 . S
C910 C908 1.378 . S
C910 C911 1.367 . S
C911 C910 1.367 . S
C911 C913 1.433 1_545 S
C912 C908 1.350 . S
C912 C909 1.463 . S
C912 N916 1.427 1_545 S
C913 H903 0.929 . S
C913 C911 1.433 1_565 S
C913 N916 1.384 . S
C914 H905 0.929 . S
C914 C906 1.378 . S
C914 C909 1.350 1_565 S
C915 H902 0.929 . S
C915 C907 1.433 . S
C915 N917 1.384 . S
N916 C912 1.427 1_565 S
N916 C913 1.384 . S
N917 C909 1.427 . S
N917 C915 1.384 . S
H918 C924 0.930 . S
H919 C928 0.930 . S
H920 C933 0.929 . S
H921 C931 0.929 . S
H922 C926 0.929 . S
H923 C932 0.929 . S
C924 H918 0.930 . S
C924 C925 1.367 . S
C924 C932 1.378 . S
C925 C924 1.367 . S
C925 C933 1.433 . S
C926 H922 0.929 . S
C926 C928 1.378 . S
C926 C930 1.350 . S
C927 C930 1.463 . S
C927 C932 1.350 . S
C927 N935 1.427 . S
C928 H919 0.930 . S
C928 C926 1.378 . S
C928 C929 1.367 . S
C929 C928 1.367 . S
C929 C931 1.433 . S
C930 C926 1.350 . S
C930 C927 1.463 . S
C930 N934 1.427 . S
C931 H921 0.929 . S
C931 C929 1.433 . S
C931 N934 1.384 . S
C932 H923 0.929 . S
C932 C924 1.378 . S
C932 C927 1.350 . S
C933 H920 0.929 . S
C933 C925 1.433 . S
C933 N935 1.384 . S
N934 C930 1.427 . S
N934 C931 1.384 . S
N935 C927 1.427 . S
N935 C933 1.384 . S
C403 C238 1.448 . S
C407 C7 1.450 . S
C421 C271 1.454 . S
C425 C40 1.449 . S
C439 C73 1.448 . S
C443 C304 1.455 . S
C457 C337 1.454 . S
C461 C106 1.449 . S
C475 C139 1.445 . S
C479 C370 1.456 . S
C493 C205 1.446 . S
C497 C172 1.456 . S
C511 N2 1.738 . S
C515 N266 1.737 . S
C529 N35 1.744 . S
C533 N299 1.747 . S
C547 N332 1.749 . S
C551 N68 1.748 . S
C565 N365 1.747 . S
C569 N101 1.749 . S
C583 N134 1.743 . S
C587 N200 1.739 . S
C601 N233 1.737 . S
C605 N167 1.737 . S
C619 N244 1.160 . S
C623 C21 1.169 . S
C637 N277 1.161 . S
C641 C54 1.168 . S
C655 N310 1.149 . S
C659 C87 1.170 . S
C673 C120 1.168 . S
C677 N343 1.162 . S
C691 N376 1.149 . S
C695 C153 1.168 . S
C709 C186 1.170 . S
C713 N211 1.157 . S
C727 C219 1.170 . S
C731 N178 1.159 . S
C745 N13 1.159 . S
C749 C252 1.166 . S
C763 N46 1.152 . S
C767 C285 1.167 . S
C781 N79 1.152 . S
C785 C318 1.168 . S
C799 N112 1.158 . S
C803 C351 1.170 . S
C817 N145 1.154 . S
C821 C384 1.166 . S
C835 C282 1.455 . S
C839 C18 1.461 . S
C853 C51 1.461 . S
C857 C315 1.454 . S
C871 C348 1.461 . S
C875 C84 1.458 . S
C889 C117 1.460 . S
C893 C381 1.460 . S
C907 C150 1.453 . S
C911 C216 1.459 . S
C925 C249 1.460 . S
C929 C183 1.459 . S
