# Generated by pormake.
# Topology dia, (4)-cn, num edge types: 1
# Building blocks:
#     Node 0, Type 0, BuildingBlock: QUQFOY_clean_sbu_3, # of connection points: 4
#     Node 1, Type 0, BuildingBlock: QUQFOY_clean_sbu_3, # of connection points: 4
#     Node 2, Type 0, BuildingBlock: QUQFOY_clean_sbu_3, # of connection points: 4
#     Node 3, Type 0, BuildingBlock: QUQFOY_clean_sbu_3, # of connection points: 4
#     Node 4, Type 0, BuildingBlock: QUQFOY_clean_sbu_3, # of connection points: 4
#     Node 5, Type 0, BuildingBlock: QUQFOY_clean_sbu_3, # of connection points: 4
#     Node 6, Type 0, BuildingBlock: QUQFOY_clean_sbu_3, # of connection points: 4
#     Node 7, Type 0, BuildingBlock: QUQFOY_clean_sbu_3, # of connection points: 4
#     Edge 8, Type (0, 0), BuildingBlock: OJICUG_clean_linker_0, # of connection points: 2
#     Edge 9, Type (0, 0), BuildingBlock: OJICUG_clean_linker_0, # of connection points: 2
#     Edge 10, Type (0, 0), BuildingBlock: OJICUG_clean_linker_0, # of connection points: 2
#     Edge 11, Type (0, 0), BuildingBlock: OJICUG_clean_linker_0, # of connection points: 2
#     Edge 12, Type (0, 0), BuildingBlock: OJICUG_clean_linker_0, # of connection points: 2
#     Edge 13, Type (0, 0), BuildingBlock: OJICUG_clean_linker_0, # of connection points: 2
#     Edge 14, Type (0, 0), BuildingBlock: OJICUG_clean_linker_0, # of connection points: 2
#     Edge 15, Type (0, 0), BuildingBlock: OJICUG_clean_linker_0, # of connection points: 2
#     Edge 16, Type (0, 0), BuildingBlock: OJICUG_clean_linker_0, # of connection points: 2
#     Edge 17, Type (0, 0), BuildingBlock: OJICUG_clean_linker_0, # of connection points: 2
#     Edge 18, Type (0, 0), BuildingBlock: OJICUG_clean_linker_0, # of connection points: 2
#     Edge 19, Type (0, 0), BuildingBlock: OJICUG_clean_linker_0, # of connection points: 2
#     Edge 20, Type (0, 0), BuildingBlock: OJICUG_clean_linker_0, # of connection points: 2
#     Edge 21, Type (0, 0), BuildingBlock: OJICUG_clean_linker_0, # of connection points: 2
#     Edge 22, Type (0, 0), BuildingBlock: OJICUG_clean_linker_0, # of connection points: 2
#     Edge 23, Type (0, 0), BuildingBlock: OJICUG_clean_linker_0, # of connection points: 2
# Relax obj value: 0.120
# Max RMSD: 0.163
# Mean RMSD: 0.163
data_MOF--net-dia--node1-QUQFOY_clean_sbu_3--edge1-OJICUG_clean_linker_0
_symmetry_space_group_name_H-M    P1
_symmetry_Int_Tables_number       1
_symmetry_cell_setting            triclinic
loop_
_symmetry_equiv_pos_as_xyz
'x, y, z'
_cell_length_a     25.884433
_cell_length_b     25.5154
_cell_length_c     29.785119
_cell_angle_alpha  89.304036
_cell_angle_beta   89.474637
_cell_angle_gamma 92.148608
loop_
_atom_site_label
_atom_site_type_symbol
_atom_site_fract_x
_atom_site_fract_y
_atom_site_fract_z
_atom_type_partial_charge
C0 C 0.00809 0.18074 0.64095 0.0
O1 O -0.01175 0.18683 0.60245 0.0
Cd2 Cd 0.01074 0.14189 0.53545 0.0
O3 O 0.0451 0.14976 0.64693 0.0
Cd4 Cd 0.101 0.0916 0.60218 0.0
C5 C 0.13702 0.18583 0.52271 0.0
O6 O 0.02842 0.05642 0.5628 0.0
O7 O 0.10042 0.02225 0.54439 0.0
O8 O 0.11414 0.0256 0.66117 0.0
C9 C 0.05203 0.02448 0.53861 0.0
O10 O 0.09016 0.18746 0.51036 0.0
C11 C 0.16013 0.04122 0.66954 0.0
O12 O 0.15056 0.15533 0.55435 0.0
O13 O 0.17872 0.07968 0.64641 0.0
C14 C 0.78834 0.44911 0.82468 0.0
O15 O 0.78721 0.46856 0.86369 0.0
Cd16 Cd 0.84105 0.43844 0.92338 0.0
O17 O 0.81676 0.41065 0.81632 0.0
Cd18 Cd 0.87566 0.35328 0.85801 0.0
C19 C 0.78724 0.31594 0.93685 0.0
O20 O 0.92563 0.42432 0.89255 0.0
O21 O 0.93717 0.34737 0.92037 0.0
O22 O 0.9162 0.34488 0.78451 0.0
C23 C 0.95106 0.39549 0.91844 0.0
O24 O 0.79863 0.35925 0.9558 0.0
C25 C 0.92354 0.29614 0.7881 0.0
O26 O 0.8054 0.30582 0.89819 0.0
O27 O 0.90903 0.27364 0.82458 0.0
C28 C 0.5112 0.17987 0.14082 0.0
O29 O 0.49228 0.18531 0.10186 0.0
Cd30 Cd 0.51278 0.1336 0.03737 0.0
O31 O 0.54628 0.14711 0.14821 0.0
Cd32 Cd 0.59871 0.08449 0.10576 0.0
C33 C 0.6393 0.17456 0.02541 0.0
O34 O 0.52349 0.04861 0.0688 0.0
O35 O 0.5939 0.01155 0.05117 0.0
O36 O 0.60681 0.0443 0.18009 0.0
C37 C 0.5456 0.01447 0.04589 0.0
O38 O 0.59457 0.17049 0.00807 0.0
C39 C 0.65377 0.03274 0.17486 0.0
O40 O 0.6494 0.15132 0.06225 0.0
O41 O 0.67509 0.04524 0.13747 0.0
C42 C 0.77201 0.94102 0.31695 0.0
O43 O 0.76948 0.96155 0.35558 0.0
Cd44 Cd 0.82381 0.94215 0.41816 0.0
O45 O 0.80305 0.90446 0.30902 0.0
Cd46 Cd 0.86647 0.85112 0.34999 0.0
C47 C 0.78187 0.81475 0.43524 0.0
O48 O 0.90439 0.92903 0.382 0.0
O49 O 0.9422 0.85882 0.40093 0.0
O50 O 0.90041 0.83844 0.27411 0.0
C51 C 0.93975 0.90811 0.40406 0.0
O52 O 0.7876 0.86076 0.45096 0.0
C53 C 0.91353 0.7916 0.28113 0.0
O54 O 0.80259 0.80261 0.39796 0.0
O55 O 0.90434 0.77229 0.32001 0.0
C56 C 0.00939 0.67081 0.14262 0.0
O57 O -0.01072 0.66959 0.10392 0.0
Cd58 Cd 0.01957 0.61551 0.04466 0.0
O59 O 0.04911 0.64449 0.15119 0.0
Cd60 Cd 0.10797 0.58641 0.10991 0.0
C61 C 0.13807 0.67543 0.02835 0.0
O62 O 0.03875 0.53237 0.07785 0.0
O63 O 0.1138 0.52339 0.04801 0.0
O64 O 0.12164 0.5482 0.18431 0.0
C65 C 0.06696 0.5075 0.05129 0.0
O66 O 0.09524 0.66128 0.0107 0.0
C67 C 0.16941 0.54077 0.1785 0.0
O68 O 0.15028 0.65873 0.06715 0.0
O69 O 0.18892 0.55453 0.14073 0.0
C70 C 0.293 0.4544 0.31969 0.0
O71 O 0.29422 0.47753 0.35716 0.0
Cd72 Cd 0.34325 0.4478 0.41925 0.0
O73 O 0.31887 0.41349 0.31339 0.0
Cd74 Cd 0.37885 0.35653 0.35573 0.0
C75 C 0.28608 0.32476 0.43309 0.0
O76 O 0.42766 0.428 0.39072 0.0
O77 O 0.44062 0.35084 0.4176 0.0
O78 O 0.42049 0.34772 0.28244 0.0
C79 C 0.45286 0.39936 0.41699 0.0
O80 O 0.29232 0.37145 0.44719 0.0
C81 C 0.42674 0.29878 0.28602 0.0
O82 O 0.31107 0.30911 0.39909 0.0
O83 O 0.41115 0.2765 0.32228 0.0
C84 C 0.27551 0.94982 0.81311 0.0
O85 O 0.27755 0.97383 0.85025 0.0
Cd86 Cd 0.324 0.9478 0.91561 0.0
O87 O 0.30042 0.90824 0.80681 0.0
Cd88 Cd 0.36254 0.85293 0.84809 0.0
C89 C 0.27418 0.82119 0.93071 0.0
O90 O 0.40381 0.92797 0.88203 0.0
O91 O 0.43547 0.85514 0.90255 0.0
O92 O 0.39997 0.8407 0.77339 0.0
C93 C 0.43603 0.90459 0.90582 0.0
O94 O 0.28094 0.86746 0.94578 0.0
C95 C 0.41008 0.79289 0.77988 0.0
O96 O 0.29608 0.80723 0.89451 0.0
O97 O 0.39743 0.77282 0.81782 0.0
C98 C 0.50959 0.67169 0.64371 0.0
O99 O 0.49113 0.67122 0.60436 0.0
Cd100 Cd 0.52157 0.61598 0.54587 0.0
O101 O 0.54815 0.6442 0.65349 0.0
Cd102 Cd 0.60715 0.58485 0.61387 0.0
C103 C 0.64233 0.67152 0.53175 0.0
O104 O 0.53775 0.53265 0.57997 0.0
O105 O 0.61355 0.52093 0.55274 0.0
O106 O 0.61875 0.54603 0.68863 0.0
C107 C 0.56617 0.50673 0.55439 0.0
O108 O 0.59967 0.65853 0.51323 0.0
C109 C 0.6667 0.53886 0.68362 0.0
O110 O 0.65262 0.65529 0.57115 0.0
O111 O 0.68699 0.55298 0.64624 0.0
C112 C 0.20056 0.30732 0.47018 0.0
C113 C 0.24838 0.28887 0.45609 0.0
H114 H 0.12724 0.28837 0.50146 0.0
C115 C 0.2598 0.23628 0.46446 0.0
H116 H 0.19092 0.34771 0.46396 0.0
C117 C 0.22408 0.20282 0.48726 0.0
C118 C 0.17583 0.2211 0.50044 0.0
H119 H 0.29662 0.22137 0.45403 0.0
H120 H 0.23365 0.16247 0.49371 0.0
C121 C 0.16422 0.27346 0.49146 0.0
C122 C 0.74331 0.49017 0.70934 0.0
C123 C 0.69749 0.51546 0.71966 0.0
H124 H 0.80745 0.44839 0.73452 0.0
C125 C 0.68151 0.51846 0.76472 0.0
H126 H 0.7564 0.48716 0.67485 0.0
C127 C 0.71129 0.4973 0.79893 0.0
C128 C 0.75686 0.47156 0.78859 0.0
H129 H 0.64642 0.5379 0.7736 0.0
H130 H 0.69833 0.50058 0.83343 0.0
C131 C 0.77237 0.46782 0.74344 0.0
C132 C 0.47332 0.00616 -0.00826 0.0
C133 C 0.51797 -0.01444 0.01034 0.0
H134 H 0.41329 -0.00275 0.94343 0.0
C135 C 0.53614 0.93813 -0.00597 0.0
H136 H 0.45868 0.04286 0.00344 0.0
C137 C 0.50944 0.91133 0.96008 0.0
C138 C 0.46508 0.93239 0.94121 0.0
H139 H 0.57054 0.92151 0.00787 0.0
H140 H 0.52371 0.87452 0.9483 0.0
C141 C 0.44753 0.9802 0.95717 0.0
C142 C 0.96826 0.71799 0.25714 0.0
C143 C 0.93851 0.76105 0.24576 0.0
H144 H 0.01492 0.65627 0.23338 0.0
C145 C 0.93289 0.77471 0.2003 0.0
H146 H 0.97342 0.70676 0.29196 0.0
C147 C 0.95583 0.74527 0.16678 0.0
C148 C -0.01416 0.70237 0.17814 0.0
H149 H 0.9101 0.80768 0.19058 0.0
H150 H 0.95038 0.75636 0.13197 0.0
C151 C -0.00779 0.68929 0.22366 0.0
C152 C 0.24987 0.0267 0.76756 0.0
C153 C 0.24612 0.97244 0.77601 0.0
H154 H 0.22653 0.09069 0.72616 0.0
C155 C 0.21435 0.94056 0.74885 0.0
H156 H 0.2744 0.05198 0.78796 0.0
C157 C 0.18569 0.96295 0.71439 0.0
C158 C 0.19005 0.01717 0.70564 0.0
H159 H 0.2109 0.89861 0.75487 0.0
H160 H 0.16071 0.93787 0.69423 0.0
C161 C 0.22277 0.04875 0.73217 0.0
C162 C -0.01964 0.40498 -0.00262 0.0
C163 C -0.01408 0.41906 0.95184 0.0
H164 H 0.00142 0.42333 0.06512 0.0
C165 C 0.02163 0.4593 0.93902 0.0
H166 H 0.95254 0.3744 0.00796 0.0
C167 C 0.05077 0.48586 0.97145 0.0
C168 C 0.04312 0.47371 0.01716 0.0
H169 H 0.02622 0.47084 0.90404 0.0
H170 H 0.07714 0.51778 0.96102 0.0
C171 C 0.00809 0.43287 0.02995 0.0
C172 C 0.47216 0.22062 0.2578 0.0
C173 C 0.44991 0.26905 0.24922 0.0
H174 H 0.51005 0.15487 0.2302 0.0
C175 C 0.44909 0.28854 0.20493 0.0
H176 H 0.47343 0.2048 0.29167 0.0
C177 C 0.46905 0.25955 0.1697 0.0
C178 C 0.49135 0.21112 0.17823 0.0
H179 H 0.43202 0.32571 0.19735 0.0
H180 H 0.46721 0.27516 0.13579 0.0
C181 C 0.49328 0.19221 0.22268 0.0
C182 C 0.71805 0.73877 0.43678 0.0
C183 C 0.74872 0.77579 0.46002 0.0
H184 H 0.65935 0.67735 0.44142 0.0
C185 C 0.74545 0.77709 0.50711 0.0
H186 H 0.71964 0.73719 0.40047 0.0
C187 C 0.71192 0.74212 0.53057 0.0
C188 C 0.67994 0.70633 0.50724 0.0
H189 H 0.7688 0.80522 0.5258 0.0
H190 H 0.70991 0.74411 0.56685 0.0
C191 C 0.6834 0.70484 0.46016 0.0
C192 C 0.24574 0.49106 0.20385 0.0
C193 C 0.20083 0.51786 0.21433 0.0
H194 H 0.30965 0.44873 0.22914 0.0
C195 C 0.18613 0.52289 0.25951 0.0
H196 H 0.25777 0.48646 0.16924 0.0
C197 C 0.21633 0.50246 0.29367 0.0
C198 C 0.26106 0.47533 0.28328 0.0
H199 H 0.15175 0.54348 0.26852 0.0
H200 H 0.20439 0.50747 0.32827 0.0
C201 C 0.27523 0.4693 0.23804 0.0
C202 C 0.75007 0.27339 0.00658 0.0
C203 C 0.75135 0.27774 0.95951 0.0
H204 H 0.71428 0.23593 0.0644 0.0
C205 C 0.71703 0.24633 0.93426 0.0
H206 H 0.77634 0.29705 0.02676 0.0
C207 C 0.6808 0.21247 0.95578 0.0
C208 C 0.67934 0.20826 0.00284 0.0
H209 H 0.71714 0.24911 0.89794 0.0
H210 H 0.65386 0.18958 0.93561 0.0
C211 C 0.71486 0.23831 0.02806 0.0
C212 C 0.75602 0.95749 0.23535 0.0
C213 C 0.74008 0.96161 0.28035 0.0
H214 H 0.74154 0.97759 0.16666 0.0
C215 C 0.69458 -0.01226 0.29021 0.0
H216 H 0.79106 0.93779 0.22678 0.0
C217 C 0.6658 0.0097 0.25577 0.0
C218 C 0.68262 0.00698 0.21092 0.0
H219 H 0.68127 -0.00864 0.32458 0.0
H220 H 0.6311 0.02995 0.26438 0.0
C221 C 0.72785 0.98048 0.20099 0.0
C222 C 0.01646 0.9195 0.45431 0.0
C223 C 0.97018 0.93829 0.43714 0.0
H224 H 0.07953 0.93285 0.49964 0.0
C225 C 0.95193 -0.0141 0.45285 0.0
H226 H 0.03135 0.88291 0.44264 0.0
C227 C -0.02132 0.01363 0.48588 0.0
C228 C 0.02486 -0.00503 0.50317 0.0
H229 H 0.91627 0.00126 0.44036 0.0
H230 H 0.96323 0.04989 0.49775 0.0
C231 C 0.04399 0.94803 0.48674 0.0
C232 C 0.94459 0.28675 0.70686 0.0
C233 C 0.94653 0.26691 0.75095 0.0
H234 H 0.96193 0.27458 0.6375 0.0
C235 C 0.9698 0.21883 0.75891 0.0
H236 H 0.92673 0.32363 0.69975 0.0
C237 C -0.00907 0.19118 0.72329 0.0
C238 C -0.01208 0.21055 0.67906 0.0
H239 H 0.97191 0.20277 0.79265 0.0
H240 H 0.00862 0.15416 0.73023 0.0
C241 C 0.96454 0.25856 0.67123 0.0
C242 C 0.45736 0.74765 0.66667 0.0
C243 C 0.48519 0.70343 0.67864 0.0
H244 H 0.41245 0.81118 0.6895 0.0
C245 C 0.48837 0.68904 0.72419 0.0
H246 H 0.45438 0.75972 0.63182 0.0
C247 C 0.4634 0.71778 0.75705 0.0
C248 C 0.43586 0.76218 0.74508 0.0
H249 H 0.50932 0.65496 0.73436 0.0
H250 H 0.4661 0.70555 0.79188 0.0
C251 C 0.43347 0.77714 0.69964 0.0
C252 C 0.17654 0.71066 0.9564 0.0
C253 C 0.17371 0.71198 0.00349 0.0
H254 H 0.21168 0.74357 0.89644 0.0
C255 C 0.20464 0.74896 0.02653 0.0
H256 H 0.15321 0.68234 0.93788 0.0
C257 C 0.23699 0.78482 0.00278 0.0
C258 C 0.24012 0.78323 0.95571 0.0
H259 H 0.20299 0.75088 0.06283 0.0
H260 H 0.25998 0.81344 0.02127 0.0
C261 C 0.21007 0.74546 0.93274 0.0
C262 C 0.51919 0.46644 0.44046 0.0
C263 C 0.4866 0.42288 0.45132 0.0
H264 H 0.57178 0.52618 0.46507 0.0
C265 C 0.48353 0.4045 0.49595 0.0
H266 H 0.52195 0.48127 0.40624 0.0
C267 C 0.51069 0.43106 0.52964 0.0
C268 C 0.54273 0.47496 0.51878 0.0
H269 H 0.45817 0.37125 0.5051 0.0
H270 H 0.506 0.41795 0.56423 0.0
C271 C 0.54775 0.49183 0.4739 0.0
loop_
_geom_bond_atom_site_label_1
_geom_bond_atom_site_label_2
_geom_bond_distance
_geom_bond_site_symmetry_2
_ccdc_geom_bond_type
C0 O1 1.306 . S
C0 O3 1.160 . S
O1 C0 1.306 . S
O1 Cd2 2.228 . S
Cd2 O1 2.228 . S
Cd2 O6 2.273 . S
Cd2 O10 2.277 . S
O3 C0 1.160 . S
O3 Cd4 2.203 . S
Cd4 O3 2.203 . S
Cd4 O6 2.411 . S
Cd4 O7 2.333 . S
Cd4 O8 2.352 . S
Cd4 O12 2.277 . S
Cd4 O13 2.356 . S
C5 O10 1.209 . S
C5 O12 1.226 . S
O6 Cd2 2.273 . S
O6 Cd4 2.411 . S
O6 C9 1.320 . S
O7 Cd4 2.333 . S
O7 C9 1.214 . S
O8 Cd4 2.352 . S
O8 C11 1.258 . S
C9 O6 1.320 . S
C9 O7 1.214 . S
O10 Cd2 2.277 . S
O10 C5 1.209 . S
C11 O8 1.258 . S
C11 O13 1.282 . S
O12 Cd4 2.277 . S
O12 C5 1.226 . S
O13 Cd4 2.356 . S
O13 C11 1.282 . S
C14 O15 1.306 . S
C14 O17 1.160 . S
O15 C14 1.306 . S
O15 Cd16 2.228 . S
Cd16 O15 2.228 . S
Cd16 O20 2.273 . S
Cd16 O24 2.277 . S
O17 C14 1.160 . S
O17 Cd18 2.203 . S
Cd18 O17 2.203 . S
Cd18 O20 2.411 . S
Cd18 O21 2.333 . S
Cd18 O22 2.352 . S
Cd18 O26 2.277 . S
Cd18 O27 2.356 . S
C19 O24 1.209 . S
C19 O26 1.226 . S
O20 Cd16 2.273 . S
O20 Cd18 2.411 . S
O20 C23 1.320 . S
O21 Cd18 2.333 . S
O21 C23 1.214 . S
O22 Cd18 2.352 . S
O22 C25 1.258 . S
C23 O20 1.320 . S
C23 O21 1.214 . S
O24 Cd16 2.277 . S
O24 C19 1.209 . S
C25 O22 1.258 . S
C25 O27 1.282 . S
O26 Cd18 2.277 . S
O26 C19 1.226 . S
O27 Cd18 2.356 . S
O27 C25 1.282 . S
C28 O29 1.306 . S
C28 O31 1.160 . S
O29 C28 1.306 . S
O29 Cd30 2.228 . S
Cd30 O29 2.228 . S
Cd30 O34 2.273 . S
Cd30 O38 2.277 . S
O31 C28 1.160 . S
O31 Cd32 2.203 . S
Cd32 O31 2.203 . S
Cd32 O34 2.411 . S
Cd32 O35 2.333 . S
Cd32 O36 2.352 . S
Cd32 O40 2.277 . S
Cd32 O41 2.356 . S
C33 O38 1.209 . S
C33 O40 1.226 . S
O34 Cd30 2.273 . S
O34 Cd32 2.411 . S
O34 C37 1.320 . S
O35 Cd32 2.333 . S
O35 C37 1.214 . S
O36 Cd32 2.352 . S
O36 C39 1.258 . S
C37 O34 1.320 . S
C37 O35 1.214 . S
O38 Cd30 2.277 . S
O38 C33 1.209 . S
C39 O36 1.258 . S
C39 O41 1.282 . S
O40 Cd32 2.277 . S
O40 C33 1.226 . S
O41 Cd32 2.356 . S
O41 C39 1.282 . S
C42 O43 1.306 . S
C42 O45 1.160 . S
O43 C42 1.306 . S
O43 Cd44 2.228 . S
Cd44 O43 2.228 . S
Cd44 O48 2.273 . S
Cd44 O52 2.277 . S
O45 C42 1.160 . S
O45 Cd46 2.203 . S
Cd46 O45 2.203 . S
Cd46 O48 2.411 . S
Cd46 O49 2.333 . S
Cd46 O50 2.352 . S
Cd46 O54 2.277 . S
Cd46 O55 2.356 . S
C47 O52 1.209 . S
C47 O54 1.226 . S
O48 Cd44 2.273 . S
O48 Cd46 2.411 . S
O48 C51 1.320 . S
O49 Cd46 2.333 . S
O49 C51 1.214 . S
O50 Cd46 2.352 . S
O50 C53 1.258 . S
C51 O48 1.320 . S
C51 O49 1.214 . S
O52 Cd44 2.277 . S
O52 C47 1.209 . S
C53 O50 1.258 . S
C53 O55 1.282 . S
O54 Cd46 2.277 . S
O54 C47 1.226 . S
O55 Cd46 2.356 . S
O55 C53 1.282 . S
C56 O57 1.306 . S
C56 O59 1.160 . S
O57 C56 1.306 . S
O57 Cd58 2.228 . S
Cd58 O57 2.228 . S
Cd58 O62 2.273 . S
Cd58 O66 2.277 . S
O59 C56 1.160 . S
O59 Cd60 2.203 . S
Cd60 O59 2.203 . S
Cd60 O62 2.411 . S
Cd60 O63 2.333 . S
Cd60 O64 2.352 . S
Cd60 O68 2.277 . S
Cd60 O69 2.356 . S
C61 O66 1.209 . S
C61 O68 1.226 . S
O62 Cd58 2.273 . S
O62 Cd60 2.411 . S
O62 C65 1.320 . S
O63 Cd60 2.333 . S
O63 C65 1.214 . S
O64 Cd60 2.352 . S
O64 C67 1.258 . S
C65 O62 1.320 . S
C65 O63 1.214 . S
O66 Cd58 2.277 . S
O66 C61 1.209 . S
C67 O64 1.258 . S
C67 O69 1.282 . S
O68 Cd60 2.277 . S
O68 C61 1.226 . S
O69 Cd60 2.356 . S
O69 C67 1.282 . S
C70 O71 1.306 . S
C70 O73 1.160 . S
O71 C70 1.306 . S
O71 Cd72 2.228 . S
Cd72 O71 2.228 . S
Cd72 O76 2.273 . S
Cd72 O80 2.277 . S
O73 C70 1.160 . S
O73 Cd74 2.203 . S
Cd74 O73 2.203 . S
Cd74 O76 2.411 . S
Cd74 O77 2.333 . S
Cd74 O78 2.352 . S
Cd74 O82 2.277 . S
Cd74 O83 2.356 . S
C75 O80 1.209 . S
C75 O82 1.226 . S
O76 Cd72 2.273 . S
O76 Cd74 2.411 . S
O76 C79 1.320 . S
O77 Cd74 2.333 . S
O77 C79 1.214 . S
O78 Cd74 2.352 . S
O78 C81 1.258 . S
C79 O76 1.320 . S
C79 O77 1.214 . S
O80 Cd72 2.277 . S
O80 C75 1.209 . S
C81 O78 1.258 . S
C81 O83 1.282 . S
O82 Cd74 2.277 . S
O82 C75 1.226 . S
O83 Cd74 2.356 . S
O83 C81 1.282 . S
C84 O85 1.306 . S
C84 O87 1.160 . S
O85 C84 1.306 . S
O85 Cd86 2.228 . S
Cd86 O85 2.228 . S
Cd86 O90 2.273 . S
Cd86 O94 2.277 . S
O87 C84 1.160 . S
O87 Cd88 2.203 . S
Cd88 O87 2.203 . S
Cd88 O90 2.411 . S
Cd88 O91 2.333 . S
Cd88 O92 2.352 . S
Cd88 O96 2.277 . S
Cd88 O97 2.356 . S
C89 O94 1.209 . S
C89 O96 1.226 . S
O90 Cd86 2.273 . S
O90 Cd88 2.411 . S
O90 C93 1.320 . S
O91 Cd88 2.333 . S
O91 C93 1.214 . S
O92 Cd88 2.352 . S
O92 C95 1.258 . S
C93 O90 1.320 . S
C93 O91 1.214 . S
O94 Cd86 2.277 . S
O94 C89 1.209 . S
C95 O92 1.258 . S
C95 O97 1.282 . S
O96 Cd88 2.277 . S
O96 C89 1.226 . S
O97 Cd88 2.356 . S
O97 C95 1.282 . S
C98 O99 1.306 . S
C98 O101 1.160 . S
O99 C98 1.306 . S
O99 Cd100 2.228 . S
Cd100 O99 2.228 . S
Cd100 O104 2.273 . S
Cd100 O108 2.277 . S
O101 C98 1.160 . S
O101 Cd102 2.203 . S
Cd102 O101 2.203 . S
Cd102 O104 2.411 . S
Cd102 O105 2.333 . S
Cd102 O106 2.352 . S
Cd102 O110 2.277 . S
Cd102 O111 2.356 . S
C103 O108 1.209 . S
C103 O110 1.226 . S
O104 Cd100 2.273 . S
O104 Cd102 2.411 . S
O104 C107 1.320 . S
O105 Cd102 2.333 . S
O105 C107 1.214 . S
O106 Cd102 2.352 . S
O106 C109 1.258 . S
C107 O104 1.320 . S
C107 O105 1.214 . S
O108 Cd100 2.277 . S
O108 C103 1.209 . S
C109 O106 1.258 . S
C109 O111 1.282 . S
O110 Cd102 2.277 . S
O110 C103 1.226 . S
O111 Cd102 2.356 . S
O111 C109 1.282 . S
C112 C113 1.387 . S
C112 H116 0.950 . S
C112 C121 1.390 . S
C113 C112 1.387 . S
C113 C115 1.387 . S
H114 C121 0.950 . S
C115 C113 1.387 . S
C115 C117 1.390 . S
C115 H119 0.950 . S
H116 C112 0.950 . S
C117 C115 1.390 . S
C117 C118 1.387 . S
C117 H120 0.950 . S
C118 C117 1.387 . S
C118 C121 1.387 . S
H119 C115 0.950 . S
H120 C117 0.950 . S
C121 C112 1.390 . S
C121 H114 0.950 . S
C121 C118 1.387 . S
C122 C123 1.387 . S
C122 H126 0.950 . S
C122 C131 1.390 . S
C123 C122 1.387 . S
C123 C125 1.387 . S
H124 C131 0.950 . S
C125 C123 1.387 . S
C125 C127 1.390 . S
C125 H129 0.950 . S
H126 C122 0.950 . S
C127 C125 1.390 . S
C127 C128 1.387 . S
C127 H130 0.950 . S
C128 C127 1.387 . S
C128 C131 1.387 . S
H129 C125 0.950 . S
H130 C127 0.950 . S
C131 C122 1.390 . S
C131 H124 0.950 . S
C131 C128 1.387 . S
C132 C133 1.387 . S
C132 H136 0.950 . S
C132 C141 1.390 1_554 S
C133 C132 1.387 . S
C133 C135 1.387 1_545 S
H134 C141 0.950 . S
C135 C133 1.387 1_565 S
C135 C137 1.390 1_554 S
C135 H139 0.950 . S
H136 C132 0.950 . S
C137 C135 1.390 1_556 S
C137 C138 1.387 . S
C137 H140 0.950 . S
C138 C137 1.387 . S
C138 C141 1.387 1_565 S
H139 C135 0.950 . S
H140 C137 0.950 . S
C141 C132 1.390 1_556 S
C141 H134 0.950 . S
C141 C138 1.387 1_545 S
C142 C143 1.387 . S
C142 H146 0.950 . S
C142 C151 1.390 1_655 S
C143 C142 1.387 . S
C143 C145 1.387 1_655 S
H144 C151 0.950 . S
C145 C143 1.387 1_455 S
C145 C147 1.390 . S
C145 H149 0.950 . S
H146 C142 0.950 . S
C147 C145 1.390 . S
C147 C148 1.387 . S
C147 H150 0.950 . S
C148 C147 1.387 . S
C148 C151 1.387 . S
H149 C145 0.950 . S
H150 C147 0.950 . S
C151 C142 1.390 1_455 S
C151 H144 0.950 . S
C151 C148 1.387 . S
C152 C153 1.387 1_545 S
C152 H156 0.950 . S
C152 C161 1.390 . S
C153 C152 1.387 1_565 S
C153 C155 1.387 . S
H154 C161 0.950 . S
C155 C153 1.387 . S
C155 C157 1.390 . S
C155 H159 0.950 . S
H156 C152 0.950 . S
C157 C155 1.390 . S
C157 C158 1.387 1_565 S
C157 H160 0.950 . S
C158 C157 1.387 1_545 S
C158 C161 1.387 . S
H159 C155 0.950 . S
H160 C157 0.950 . S
C161 C152 1.390 . S
C161 H154 0.950 . S
C161 C158 1.387 . S
C162 C163 1.387 1_554 S
C162 H166 0.950 . S
C162 C171 1.390 1_655 S
C163 C162 1.387 1_556 S
C163 C165 1.387 1_655 S
H164 C171 0.950 . S
C165 C163 1.387 1_455 S
C165 C167 1.390 . S
C165 H169 0.950 . S
H166 C162 0.950 . S
C167 C165 1.390 . S
C167 C168 1.387 1_556 S
C167 H170 0.950 . S
C168 C167 1.387 1_554 S
C168 C171 1.387 . S
H169 C165 0.950 . S
H170 C167 0.950 . S
C171 C162 1.390 1_455 S
C171 H164 0.950 . S
C171 C168 1.387 . S
C172 C173 1.387 . S
C172 H176 0.950 . S
C172 C181 1.390 . S
C173 C172 1.387 . S
C173 C175 1.387 . S
H174 C181 0.950 . S
C175 C173 1.387 . S
C175 C177 1.390 . S
C175 H179 0.950 . S
H176 C172 0.950 . S
C177 C175 1.390 . S
C177 C178 1.387 . S
C177 H180 0.950 . S
C178 C177 1.387 . S
C178 C181 1.387 . S
H179 C175 0.950 . S
H180 C177 0.950 . S
C181 C172 1.390 . S
C181 H174 0.950 . S
C181 C178 1.387 . S
C182 C183 1.387 . S
C182 H186 0.950 . S
C182 C191 1.390 . S
C183 C182 1.387 . S
C183 C185 1.387 . S
H184 C191 0.950 . S
C185 C183 1.387 . S
C185 C187 1.390 . S
C185 H189 0.950 . S
H186 C182 0.950 . S
C187 C185 1.390 . S
C187 C188 1.387 . S
C187 H190 0.950 . S
C188 C187 1.387 . S
C188 C191 1.387 . S
H189 C185 0.950 . S
H190 C187 0.950 . S
C191 C182 1.390 . S
C191 H184 0.950 . S
C191 C188 1.387 . S
C192 C193 1.387 . S
C192 H196 0.950 . S
C192 C201 1.390 . S
C193 C192 1.387 . S
C193 C195 1.387 . S
H194 C201 0.950 . S
C195 C193 1.387 . S
C195 C197 1.390 . S
C195 H199 0.950 . S
H196 C192 0.950 . S
C197 C195 1.390 . S
C197 C198 1.387 . S
C197 H200 0.950 . S
C198 C197 1.387 . S
C198 C201 1.387 . S
H199 C195 0.950 . S
H200 C197 0.950 . S
C201 C192 1.390 . S
C201 H194 0.950 . S
C201 C198 1.387 . S
C202 C203 1.387 1_554 S
C202 H206 0.950 . S
C202 C211 1.390 . S
C203 C202 1.387 1_556 S
C203 C205 1.387 . S
H204 C211 0.950 . S
C205 C203 1.387 . S
C205 C207 1.390 . S
C205 H209 0.950 . S
H206 C202 0.950 . S
C207 C205 1.390 . S
C207 C208 1.387 1_556 S
C207 H210 0.950 . S
C208 C207 1.387 1_554 S
C208 C211 1.387 . S
H209 C205 0.950 . S
H210 C207 0.950 . S
C211 C202 1.390 . S
C211 H204 0.950 . S
C211 C208 1.387 . S
C212 C213 1.387 . S
C212 H216 0.950 . S
C212 C221 1.390 . S
C213 C212 1.387 . S
C213 C215 1.387 . S
H214 C221 0.950 . S
C215 C213 1.387 . S
C215 C217 1.390 1_565 S
C215 H219 0.950 1_565 S
H216 C212 0.950 . S
C217 C215 1.390 1_545 S
C217 C218 1.387 . S
C217 H220 0.950 . S
C218 C217 1.387 . S
C218 C221 1.387 1_545 S
H219 C215 0.950 1_545 S
H220 C217 0.950 . S
C221 C212 1.390 . S
C221 H214 0.950 . S
C221 C218 1.387 1_565 S
C222 C223 1.387 1_455 S
C222 H226 0.950 . S
C222 C231 1.390 . S
C223 C222 1.387 1_655 S
C223 C225 1.387 1_565 S
H224 C231 0.950 . S
C225 C223 1.387 1_545 S
C225 C227 1.390 1_655 S
C225 H229 0.950 . S
H226 C222 0.950 . S
C227 C225 1.390 1_455 S
C227 C228 1.387 . S
C227 H230 0.950 . S
C228 C227 1.387 . S
C228 C231 1.387 1_545 S
H229 C225 0.950 . S
H230 C227 0.950 . S
C231 C222 1.390 . S
C231 H224 0.950 . S
C231 C228 1.387 1_565 S
C232 C233 1.387 . S
C232 H236 0.950 . S
C232 C241 1.390 . S
C233 C232 1.387 . S
C233 C235 1.387 1_655 S
H234 C241 0.950 . S
C235 C233 1.387 1_455 S
C235 C237 1.390 . S
C235 H239 0.950 . S
H236 C232 0.950 . S
C237 C235 1.390 . S
C237 C238 1.387 . S
C237 H240 0.950 . S
C238 C237 1.387 . S
C238 C241 1.387 1_455 S
H239 C235 0.950 . S
H240 C237 0.950 . S
C241 C232 1.390 . S
C241 H234 0.950 . S
C241 C238 1.387 1_655 S
C242 C243 1.387 . S
C242 H246 0.950 . S
C242 C251 1.390 . S
C243 C242 1.387 . S
C243 C245 1.387 . S
H244 C251 0.950 . S
C245 C243 1.387 . S
C245 C247 1.390 . S
C245 H249 0.950 . S
H246 C242 0.950 . S
C247 C245 1.390 . S
C247 C248 1.387 . S
C247 H250 0.950 . S
C248 C247 1.387 . S
C248 C251 1.387 . S
H249 C245 0.950 . S
H250 C247 0.950 . S
C251 C242 1.390 . S
C251 H244 0.950 . S
C251 C248 1.387 . S
C252 C253 1.387 1_556 S
C252 H256 0.950 . S
C252 C261 1.390 . S
C253 C252 1.387 1_554 S
C253 C255 1.387 . S
H254 C261 0.950 . S
C255 C253 1.387 . S
C255 C257 1.390 . S
C255 H259 0.950 . S
H256 C252 0.950 . S
C257 C255 1.390 . S
C257 C258 1.387 1_554 S
C257 H260 0.950 . S
C258 C257 1.387 1_556 S
C258 C261 1.387 . S
H259 C255 0.950 . S
H260 C257 0.950 . S
C261 C252 1.390 . S
C261 H254 0.950 . S
C261 C258 1.387 . S
C262 C263 1.387 . S
C262 H266 0.950 . S
C262 C271 1.390 . S
C263 C262 1.387 . S
C263 C265 1.387 . S
H264 C271 0.950 . S
C265 C263 1.387 . S
C265 C267 1.390 . S
C265 H269 0.950 . S
H266 C262 0.950 . S
C267 C265 1.390 . S
C267 C268 1.387 . S
C267 H270 0.950 . S
C268 C267 1.387 . S
C268 C271 1.387 . S
H269 C265 0.950 . S
H270 C267 0.950 . S
C271 C262 1.390 . S
C271 H264 0.950 . S
C271 C268 1.387 . S
C113 C75 1.556 . S
C118 C5 1.557 . S
C123 C109 1.533 . S
C128 C14 1.535 . S
C133 C37 1.533 . S
C138 C93 1.533 . S
C143 C53 1.533 . S
C148 C56 1.534 . S
C153 C84 1.535 . S
C158 C11 1.532 . S
C163 C23 1.533 . S
C168 C65 1.533 . S
C173 C81 1.533 . S
C178 C28 1.534 . S
C183 C47 1.557 . S
C188 C103 1.556 . S
C193 C67 1.533 . S
C198 C70 1.535 . S
C203 C19 1.556 . S
C208 C33 1.557 . S
C213 C42 1.535 . S
C218 C39 1.533 . S
C223 C51 1.533 . S
C228 C9 1.533 . S
C233 C25 1.532 . S
C238 C0 1.535 . S
C243 C98 1.535 . S
C248 C95 1.532 . S
C253 C61 1.556 . S
C258 C89 1.557 . S
C263 C79 1.533 . S
C268 C107 1.533 . S
