# Generated by pormake.
# Topology bcu-h, (3)-cn, num edge types: 1
# Building blocks:
#     Node 0, Type 0, BuildingBlock: WUSLED_clean_sbu_0, # of connection points: 3
#     Node 1, Type 0, BuildingBlock: WUSLED_clean_sbu_0, # of connection points: 3
#     Node 2, Type 0, BuildingBlock: WUSLED_clean_sbu_0, # of connection points: 3
#     Node 3, Type 0, BuildingBlock: WUSLED_clean_sbu_0, # of connection points: 3
#     Node 4, Type 0, BuildingBlock: WUSLED_clean_sbu_0, # of connection points: 3
#     Node 5, Type 0, BuildingBlock: WUSLED_clean_sbu_0, # of connection points: 3
#     Node 6, Type 0, BuildingBlock: WUSLED_clean_sbu_0, # of connection points: 3
#     Node 7, Type 0, BuildingBlock: WUSLED_clean_sbu_0, # of connection points: 3
#     Node 8, Type 0, BuildingBlock: WUSLED_clean_sbu_0, # of connection points: 3
#     Node 9, Type 0, BuildingBlock: WUSLED_clean_sbu_0, # of connection points: 3
#     Node 10, Type 0, BuildingBlock: WUSLED_clean_sbu_0, # of connection points: 3
#     Node 11, Type 0, BuildingBlock: WUSLED_clean_sbu_0, # of connection points: 3
#     Node 12, Type 0, BuildingBlock: WUSLED_clean_sbu_0, # of connection points: 3
#     Node 13, Type 0, BuildingBlock: WUSLED_clean_sbu_0, # of connection points: 3
#     Node 14, Type 0, BuildingBlock: WUSLED_clean_sbu_0, # of connection points: 3
#     Node 15, Type 0, BuildingBlock: WUSLED_clean_sbu_0, # of connection points: 3
#     Edge 16, Type (0, 0), BuildingBlock: XIVTED_clean_linker_0, # of connection points: 2
#     Edge 17, Type (0, 0), BuildingBlock: XIVTED_clean_linker_0, # of connection points: 2
#     Edge 18, Type (0, 0), BuildingBlock: XIVTED_clean_linker_0, # of connection points: 2
#     Edge 19, Type (0, 0), BuildingBlock: XIVTED_clean_linker_0, # of connection points: 2
#     Edge 20, Type (0, 0), BuildingBlock: XIVTED_clean_linker_0, # of connection points: 2
#     Edge 21, Type (0, 0), BuildingBlock: XIVTED_clean_linker_0, # of connection points: 2
#     Edge 22, Type (0, 0), BuildingBlock: XIVTED_clean_linker_0, # of connection points: 2
#     Edge 23, Type (0, 0), BuildingBlock: XIVTED_clean_linker_0, # of connection points: 2
#     Edge 24, Type (0, 0), BuildingBlock: XIVTED_clean_linker_0, # of connection points: 2
#     Edge 25, Type (0, 0), BuildingBlock: XIVTED_clean_linker_0, # of connection points: 2
#     Edge 26, Type (0, 0), BuildingBlock: XIVTED_clean_linker_0, # of connection points: 2
#     Edge 27, Type (0, 0), BuildingBlock: XIVTED_clean_linker_0, # of connection points: 2
#     Edge 28, Type (0, 0), BuildingBlock: XIVTED_clean_linker_0, # of connection points: 2
#     Edge 29, Type (0, 0), BuildingBlock: XIVTED_clean_linker_0, # of connection points: 2
#     Edge 30, Type (0, 0), BuildingBlock: XIVTED_clean_linker_0, # of connection points: 2
#     Edge 31, Type (0, 0), BuildingBlock: XIVTED_clean_linker_0, # of connection points: 2
#     Edge 32, Type (0, 0), BuildingBlock: XIVTED_clean_linker_0, # of connection points: 2
#     Edge 33, Type (0, 0), BuildingBlock: XIVTED_clean_linker_0, # of connection points: 2
#     Edge 34, Type (0, 0), BuildingBlock: XIVTED_clean_linker_0, # of connection points: 2
#     Edge 35, Type (0, 0), BuildingBlock: XIVTED_clean_linker_0, # of connection points: 2
#     Edge 36, Type (0, 0), BuildingBlock: XIVTED_clean_linker_0, # of connection points: 2
#     Edge 37, Type (0, 0), BuildingBlock: XIVTED_clean_linker_0, # of connection points: 2
#     Edge 38, Type (0, 0), BuildingBlock: XIVTED_clean_linker_0, # of connection points: 2
#     Edge 39, Type (0, 0), BuildingBlock: XIVTED_clean_linker_0, # of connection points: 2
# Relax obj value: 0.010
# Max RMSD: 0.022
# Mean RMSD: 0.021
data_MOF--net-bcu-h--node1-WUSLED_clean_sbu_0--edge1-XIVTED_clean_linker_0
_symmetry_space_group_name_H-M    P1
_symmetry_Int_Tables_number       1
_symmetry_cell_setting            triclinic
loop_
_symmetry_equiv_pos_as_xyz
'x, y, z'
_cell_length_a     73.166975
_cell_length_b     72.916442
_cell_length_c     78.918695
_cell_angle_alpha  87.444445
_cell_angle_beta   87.564756
_cell_angle_gamma 89.272478
loop_
_atom_site_label
_atom_site_type_symbol
_atom_site_fract_x
_atom_site_fract_y
_atom_site_fract_z
_atom_type_partial_charge
C0 C 0.6498 1.01279 0.12334 0.0
C1 C 0.65637 0.0154 0.13955 0.0
C2 C 0.68788 1.00968 0.12901 0.0
C3 C 0.67527 1.01392 0.14235 0.0
C4 C 0.68108 1.00741 0.11281 0.0
C5 C 0.66236 1.00891 0.11005 0.0
U6 U 0.59754 0.01913 0.13447 0.0
O7 O 0.57691 0.03414 0.11949 0.0
O8 O 0.57446 1.0044 0.12442 0.0
C9 C 0.56759 0.01928 0.11699 0.0
C10 C 0.63009 1.01394 0.11964 0.0
C11 C 0.56005 0.01759 0.09999 0.0
C12 C 0.56256 1.01121 0.06985 0.0
C13 C 0.57066 1.0125 0.08565 0.0
C14 C 0.53332 0.02005 0.08262 0.0
C15 C 0.5437 0.01494 0.06812 0.0
C16 C 0.54137 0.0213 0.09827 0.0
C17 C 0.5823 0.02853 0.18174 0.0
C18 C 0.55191 0.03436 0.19464 0.0
C19 C 0.57874 0.03616 0.21138 0.0
C20 C 0.58985 0.03154 0.19737 0.0
C21 C 0.55967 0.03791 0.21021 0.0
C22 C 0.56318 0.02979 0.18044 0.0
C23 C 0.59509 0.02464 0.16727 0.0
O24 O 0.6197 1.00048 0.12588 0.0
O25 O 0.62212 0.03013 0.1206 0.0
O26 O 0.59763 0.03788 0.1556 0.0
O27 O 0.59454 1.00827 0.16099 0.0
H28 H 0.64693 0.01846 0.15001 0.0
H29 H 0.67994 0.01571 0.155 0.0
H30 H 0.69029 1.00455 0.10212 0.0
H31 H 0.65765 1.00699 0.09742 0.0
H32 H 0.57103 1.0071 0.05906 0.0
H33 H 0.58513 1.00954 0.08668 0.0
H34 H 0.51893 0.02346 0.08188 0.0
H35 H 0.53291 0.0253 0.10913 0.0
H36 H 0.53728 0.03566 0.19332 0.0
H37 H 0.58515 0.03855 0.2232 0.0
H38 H 0.60452 0.03057 0.1987 0.0
H39 H 0.55705 0.02752 0.16847 0.0
C40 C 0.55361 0.65151 0.62144 0.0
C41 C 0.55358 0.65787 0.63803 0.0
C42 C 0.56029 0.68925 0.62693 0.0
C43 C 0.55687 0.67655 0.64074 0.0
C44 C 0.5602 0.68262 0.61042 0.0
C45 C 0.55697 0.6641 0.60776 0.0
U46 U 0.54095 0.59973 0.63172 0.0
O47 O 0.52252 0.58277 0.61775 0.0
O48 O 0.55158 0.57517 0.61878 0.0
C49 C 0.53553 0.57123 0.61308 0.0
C50 C 0.54982 0.63214 0.61762 0.0
C51 C 0.53478 0.56367 0.59592 0.0
C52 C 0.52745 0.566 0.56592 0.0
C53 C 0.53061 0.57441 0.58129 0.0
C54 C 0.53318 0.53622 0.57947 0.0
C55 C 0.52813 0.54669 0.56497 0.0
C56 C 0.53646 0.54459 0.59467 0.0
C57 C 0.53186 0.58341 0.67977 0.0
C58 C 0.52429 0.55336 0.69303 0.0
C59 C 0.52523 0.57993 0.71024 0.0
C60 C 0.52991 0.59092 0.69579 0.0
C61 C 0.52242 0.56095 0.7092 0.0
C62 C 0.52901 0.5645 0.67843 0.0
C63 C 0.53675 0.59606 0.66508 0.0
O64 O 0.56195 0.61954 0.62201 0.0
O65 O 0.53288 0.62657 0.62017 0.0
O66 O 0.52354 0.60132 0.65513 0.0
O67 O 0.55242 0.59327 0.65677 0.0
H68 H 0.551 0.64843 0.64883 0.0
H69 H 0.55692 0.68099 0.65365 0.0
H70 H 0.56229 0.69182 0.59939 0.0
H71 H 0.55695 0.65962 0.59486 0.0
H72 H 0.52369 0.57455 0.55502 0.0
H73 H 0.52924 0.58917 0.58188 0.0
H74 H 0.5343 0.52141 0.5792 0.0
H75 H 0.53969 0.53598 0.60571 0.0
H76 H 0.5223 0.53882 0.69166 0.0
H77 H 0.5235 0.58649 0.72225 0.0
H78 H 0.53192 0.60547 0.69714 0.0
H79 H 0.53042 0.55838 0.66618 0.0
C80 C 0.86051 0.55847 0.12196 0.0
C81 C 0.85235 0.5541 0.13808 0.0
C82 C 0.82221 0.56434 0.12836 0.0
C83 C 0.8334 0.55701 0.14125 0.0
C84 C 0.8307 0.56893 0.11239 0.0
C85 C 0.8495 0.5661 0.1093 0.0
U86 U 0.91215 0.54634 0.13011 0.0
O87 O 0.93042 0.52753 0.11603 0.0
O88 O 0.93667 0.55698 0.11566 0.0
C89 C 0.94177 0.54061 0.11079 0.0
C90 C 0.88008 0.55447 0.11735 0.0
C91 C 0.95193 0.53881 0.09427 0.0
C92 C 0.95463 0.53868 0.06328 0.0
C93 C 0.94424 0.54209 0.07835 0.0
C94 C 0.9804 0.52936 0.07997 0.0
C95 C 0.97273 0.53179 0.06399 0.0
C96 C 0.97015 0.53277 0.09483 0.0
C97 C 0.92675 0.53916 0.17776 0.0
C98 C 0.95112 0.52179 0.19175 0.0
C99 C 0.93014 0.54053 0.20822 0.0
C100 C 0.92128 0.54605 0.19349 0.0
C101 C 0.94478 0.52784 0.20774 0.0
C102 C 0.94209 0.52732 0.17687 0.0
C103 C 0.91473 0.54325 0.16334 0.0
O104 O 0.89216 0.56691 0.12055 0.0
O105 O 0.88603 0.53758 0.12027 0.0
O106 O 0.9105 0.52957 0.15401 0.0
O107 O 0.91703 0.55884 0.15454 0.0
H108 H 0.86054 0.54824 0.14812 0.0
H109 H 0.82755 0.5535 0.15379 0.0
H110 H 0.82275 0.57424 0.10197 0.0
H111 H 0.85539 0.56951 0.09674 0.0
H112 H 0.94831 0.54078 0.05118 0.0
H113 H 0.93021 0.54687 0.07758 0.0
H114 H 0.99438 0.52453 0.08105 0.0
H115 H 0.97643 0.5303 0.10692 0.0
H116 H 0.96244 0.51212 0.19084 0.0
H117 H 0.92515 0.54591 0.22014 0.0
H118 H 0.90955 0.55523 0.19452 0.0
H119 H 0.94668 0.52188 0.16485 0.0
C120 C 1.00864 0.86451 0.62219 0.0
C121 C 0.01765 0.8563 0.63604 0.0
C122 C 1.00636 0.82613 0.62939 0.0
C123 C 0.01664 0.83724 0.63952 0.0
C124 C 0.99716 0.8345 0.61575 0.0
C125 C 0.99837 0.85343 0.61215 0.0
U126 U 0.01605 0.91515 0.63269 0.0
O127 O 0.03086 0.93699 0.61787 0.0
O128 O 1.00141 0.94016 0.62372 0.0
C129 C 0.0161 0.94721 0.61593 0.0
C130 C 1.00996 0.88441 0.61765 0.0
C131 C 0.01382 0.95645 0.59907 0.0
C132 C 0.01512 0.95713 0.5681 0.0
C133 C 0.01584 0.94725 0.58381 0.0
C134 C 1.00987 0.98526 0.58281 0.0
C135 C 0.01254 0.97636 0.56744 0.0
C136 C 1.01051 0.97543 0.59838 0.0
C137 C 0.02606 0.92433 0.68 0.0
C138 C 0.03343 0.9529 0.69309 0.0
C139 C 0.03281 0.92425 0.70985 0.0
C140 C 0.02793 0.91495 0.69569 0.0
C141 C 0.03593 0.94324 0.70871 0.0
C142 C 0.02861 0.94345 0.67875 0.0
C143 C 0.02202 0.91333 0.66538 0.0
O144 O 0.99681 0.8949 0.62388 0.0
O145 O 0.02624 0.89174 0.61818 0.0
O146 O 0.03506 0.91185 0.65353 0.0
O147 O 1.00561 0.91514 0.65931 0.0
H148 H 0.02557 0.86457 0.64405 0.0
H149 H 0.02377 0.83119 0.65018 0.0
H150 H 0.98933 0.8263 0.6076 0.0
H151 H 0.99139 0.85943 0.60138 0.0
H152 H 0.0172 0.94982 0.55651 0.0
H153 H 0.01836 0.93257 0.58405 0.0
H154 H 1.00744 0.99994 0.58282 0.0
H155 H 1.0088 0.9828 0.60998 0.0
H156 H 0.03583 0.96753 0.69185 0.0
H157 H 0.03443 0.91648 0.72172 0.0
H158 H 0.02595 0.90024 0.69696 0.0
H159 H 0.02721 0.95095 0.66671 0.0
C160 C 0.16096 0.01851 0.90351 0.0
C161 C 0.16944 1.01123 0.88891 0.0
C162 C 0.19953 0.02024 0.89797 0.0
C163 C 0.18858 1.01214 0.88613 0.0
C164 C 0.19077 0.02803 0.91222 0.0
C165 C 0.17178 0.02714 0.91494 0.0
U166 U 0.11037 1.01036 0.89282 0.0
O167 O 0.08899 0.99525 0.90795 0.0
O168 O 0.08537 0.02472 0.90198 0.0
C169 C 0.07865 1.00994 0.90996 0.0
C170 C 0.14107 0.01688 0.90766 0.0
C171 C 0.06982 1.01226 0.92698 0.0
C172 C 0.07017 1.0121 0.95789 0.0
C173 C 0.07951 1.01092 0.94199 0.0
C174 C 0.04155 0.0163 0.94387 0.0
C175 C 0.05099 0.01464 0.95905 0.0
C176 C 0.05085 0.01514 0.9281 0.0
C177 C 0.101 1.00025 0.84551 0.0
C178 C 0.0725 0.99336 0.8322 0.0
C179 C 0.1012 0.99321 0.81574 0.0
C180 C 0.11045 0.998 0.82994 0.0
C181 C 0.08219 0.99053 0.81669 0.0
C182 C 0.08189 0.99811 0.84659 0.0
C183 C 0.11192 1.00441 0.86014 0.0
O184 O 0.13046 0.02992 0.90136 0.0
O185 O 0.13404 1.00042 0.90709 0.0
O186 O 0.11362 0.99132 0.87198 0.0
O187 O 0.10994 0.02084 0.86621 0.0
H188 H 0.16133 1.00455 0.87985 0.0
H189 H 0.19483 1.00599 0.87504 0.0
H190 H 0.19864 0.03472 0.92143 0.0
H191 H 0.16556 0.03297 0.92621 0.0
H192 H 0.07798 1.01098 0.96925 0.0
H193 H 0.09419 1.00874 0.94143 0.0
H194 H 0.02681 0.01791 0.94413 0.0
H195 H 0.04308 0.01612 0.9167 0.0
H196 H 0.05786 0.99133 0.83331 0.0
H197 H 0.10902 0.99139 0.80395 0.0
H198 H 0.12515 0.99968 0.82881 0.0
H199 H 0.07434 0.99983 0.85853 0.0
C200 C 0.46821 0.16396 0.4058 0.0
C201 C 0.47111 0.17199 0.38937 0.0
C202 C 0.46239 0.20244 0.39949 0.0
C203 C 0.46823 0.19101 0.38625 0.0
C204 C 0.45937 0.19412 0.41584 0.0
C205 C 0.46219 0.17523 0.41889 0.0
U206 U 0.48012 0.11283 0.39586 0.0
O207 O 0.4995 0.09406 0.40875 0.0
O208 O 0.47031 0.08733 0.40936 0.0
C209 C 0.48677 0.0823 0.41394 0.0
C210 C 0.47213 0.14424 0.41009 0.0
C211 C 0.48873 0.07252 0.43071 0.0
C212 C 0.49041 0.0711 0.46162 0.0
C213 C 0.4873 0.08118 0.44628 0.0
C214 C 0.49616 0.04374 0.44594 0.0
C215 C 0.49505 0.05219 0.46166 0.0
C216 C 0.49301 0.05373 0.43079 0.0
C217 C 0.48681 0.10106 0.34758 0.0
C218 C 0.49851 0.07341 0.33418 0.0
C219 C 0.49208 0.10084 0.31696 0.0
C220 C 0.48619 0.10985 0.33148 0.0
C221 C 0.49874 0.08269 0.31811 0.0
C222 C 0.49268 0.08259 0.34888 0.0
C223 C 0.48243 0.11229 0.36245 0.0
O224 O 0.45971 0.13226 0.40656 0.0
O225 O 0.48892 0.13837 0.40687 0.0
O226 O 0.49614 0.11647 0.37172 0.0
O227 O 0.46724 0.10886 0.37146 0.0
H228 H 0.47576 0.1636 0.37901 0.0
H229 H 0.47053 0.19672 0.37345 0.0
H230 H 0.45527 0.20227 0.42651 0.0
H231 H 0.45997 0.16945 0.43169 0.0
H232 H 0.48918 0.07813 0.47342 0.0
H233 H 0.48399 0.09569 0.44658 0.0
H234 H 0.50004 0.02942 0.44518 0.0
H235 H 0.49429 0.04675 0.41895 0.0
H236 H 0.50363 0.05944 0.33545 0.0
H237 H 0.49196 0.10831 0.30479 0.0
H238 H 0.48169 0.12404 0.33014 0.0
H239 H 0.49327 0.07551 0.36121 0.0
C240 C 0.37677 0.47092 0.90445 0.0
C241 C 0.36974 0.47457 0.8883 0.0
C242 C 0.33917 0.46516 0.89899 0.0
C243 C 0.35109 0.47162 0.88557 0.0
C244 C 0.34659 0.46086 0.91487 0.0
C245 C 0.36508 0.46373 0.91754 0.0
U246 U 0.42775 0.48469 0.8942 0.0
O247 O 0.44436 0.50398 0.90758 0.0
O248 O 0.4524 0.47487 0.90734 0.0
C249 C 0.45612 0.49126 0.91249 0.0
C250 C 0.39579 0.47532 0.90855 0.0
C251 C 0.46384 0.49276 0.92947 0.0
C252 C 0.46143 0.49476 0.96035 0.0
C253 C 0.45334 0.49145 0.94484 0.0
C254 C 0.49044 0.50029 0.94525 0.0
C255 C 0.48002 0.49972 0.96064 0.0
C256 C 0.48247 0.49683 0.92995 0.0
C257 C 0.4439 0.49297 0.84623 0.0
C258 C 0.47308 0.50387 0.83364 0.0
C259 C 0.44843 0.497 0.81555 0.0
C260 C 0.43738 0.49203 0.82986 0.0
C261 C 0.46647 0.50302 0.81712 0.0
C262 C 0.46189 0.49888 0.84808 0.0
C263 C 0.43115 0.48814 0.8608 0.0
O264 O 0.40867 0.46334 0.90457 0.0
O265 O 0.40092 0.49242 0.90564 0.0
O266 O 0.42567 0.50153 0.87046 0.0
O267 O 0.43418 0.47265 0.86943 0.0
H268 H 0.37852 0.48008 0.87796 0.0
H269 H 0.34587 0.47508 0.87318 0.0
H270 H 0.33798 0.45551 0.92541 0.0
H271 H 0.37018 0.4607 0.93006 0.0
H272 H 0.45302 0.49411 0.97198 0.0
H273 H 0.43893 0.48827 0.94481 0.0
H274 H 0.50483 0.50364 0.94499 0.0
H275 H 0.49087 0.49781 0.91831 0.0
H276 H 0.48691 0.5083 0.83544 0.0
H277 H 0.44256 0.49654 0.80322 0.0
H278 H 0.42352 0.48764 0.82812 0.0
H279 H 0.46722 0.49974 0.86061 0.0
C280 C 0.01271 0.3768 0.40315 0.0
C281 C 1.01199 0.37047 0.38661 0.0
C282 C 0.01623 0.33872 0.39741 0.0
C283 C 0.01367 0.35156 0.38377 0.0
C284 C 0.01654 0.34527 0.41391 0.0
C285 C 0.01484 0.36402 0.41671 0.0
U286 U 1.00632 0.429 0.3917 0.0
O287 O 0.99201 0.44999 0.40671 0.0
O288 O 0.02153 0.4522 0.40105 0.0
C289 C 1.007 0.45919 0.40885 0.0
C290 C 1.01167 0.39654 0.40683 0.0
C291 C 1.00937 0.46632 0.42588 0.0
C292 C 0.01269 0.46252 0.45648 0.0
C293 C 1.01126 0.45487 0.44051 0.0
C294 C 1.01054 0.493 0.44326 0.0
C295 C 1.01225 0.48175 0.45809 0.0
C296 C 1.00915 0.48539 0.42743 0.0
C297 C 0.9969 0.44481 0.34483 0.0
C298 C 0.98536 0.47416 0.33335 0.0
C299 C 0.99705 0.45126 0.3143 0.0
C300 C 1.0008 0.43947 0.32821 0.0
C301 C 0.98919 0.4687 0.31662 0.0
C302 C 0.98928 0.46234 0.34736 0.0
C303 C 1.00032 0.43135 0.35899 0.0
O304 O 0.025 0.4069 0.40034 0.0
O305 O 0.99551 0.40453 0.40603 0.0
O306 O 0.98725 0.42917 0.37083 0.0
O307 O 0.01677 0.43116 0.36505 0.0
H308 H 1.01034 0.38012 0.37594 0.0
H309 H 0.01342 0.34705 0.3709 0.0
H310 H 0.01807 0.33586 0.42478 0.0
H311 H 0.01532 0.36857 0.42957 0.0
H312 H 0.01418 0.45337 0.46754 0.0
H313 H 1.01149 0.44008 0.4396 0.0
H314 H 1.00975 0.50779 0.44388 0.0
H315 H 1.00761 0.49449 0.41633 0.0
H316 H 0.97935 0.48753 0.33557 0.0
H317 H 0.99985 0.44646 0.30165 0.0
H318 H 1.00651 0.42597 0.32596 0.0
H319 H 0.98618 0.46677 0.36009 0.0
C320 C 0.37618 0.02578 0.89879 0.0
C321 C 0.36918 0.01971 0.8837 0.0
C322 C 0.33783 0.02581 0.89435 0.0
C323 C 0.35015 0.01981 0.88146 0.0
C324 C 0.3451 0.0326 0.90905 0.0
C325 C 0.36397 0.03254 0.91123 0.0
U326 U 0.42834 0.01768 0.88832 0.0
O327 O 0.4519 0.0307 0.89934 0.0
O328 O 0.44779 1.00103 0.90331 0.0
C329 C 0.45778 0.01522 0.9065 0.0
C330 C 0.39581 0.02412 0.90267 0.0
C331 C 0.46498 0.0158 0.92375 0.0
C332 C 0.463 0.02358 0.95357 0.0
C333 C 0.45505 0.02303 0.93762 0.0
C334 C 0.49065 1.00963 0.94189 0.0
C335 C 0.48103 0.01704 0.95586 0.0
C336 C 0.48274 1.00905 0.92611 0.0
C337 C 0.44427 1.00762 0.84143 0.0
C338 C 0.47491 1.00432 0.82822 0.0
C339 C 0.44842 0.99516 0.81345 0.0
C340 C 0.437 1.00051 0.827 0.0
C341 C 0.46752 0.99677 0.81389 0.0
C342 C 0.46336 1.00962 0.84197 0.0
C343 C 0.43127 1.01249 0.85547 0.0
O344 O 0.40323 1.00766 0.90181 0.0
O345 O 0.40675 0.03722 0.8966 0.0
O346 O 0.43284 0.02866 0.86196 0.0
O347 O 0.42729 0.99937 0.86693 0.0
H348 H 0.37836 0.01446 0.87388 0.0
H349 H 0.34508 0.01451 0.86998 0.0
H350 H 0.33614 0.03772 0.91909 0.0
H351 H 0.36902 0.03736 0.92293 0.0
H352 H 0.45517 0.02943 0.96401 0.0
H353 H 0.4413 0.02833 0.9361 0.0
H354 H 0.50435 1.00408 0.94315 0.0
H355 H 0.49063 1.00333 0.91564 0.0
H356 H 0.48958 1.00565 0.82897 0.0
H357 H 0.44226 0.98963 0.80255 0.0
H358 H 0.42235 0.99894 0.82624 0.0
H359 H 0.46928 0.01507 0.85301 0.0
C360 C 0.4642 0.37947 0.40251 0.0
C361 C 0.46559 0.37297 0.38598 0.0
C362 C 0.45948 0.34142 0.39694 0.0
C363 C 0.46325 0.35415 0.38322 0.0
C364 C 0.45782 0.34824 0.41338 0.0
C365 C 0.46011 0.36692 0.41608 0.0
U366 U 0.4761 0.43154 0.39257 0.0
O367 O 0.46603 0.45575 0.40635 0.0
O368 O 0.49517 0.44819 0.40613 0.0
C369 C 0.48237 0.45963 0.41144 0.0
C370 C 0.46788 0.39883 0.40644 0.0
C371 C 0.48395 0.46696 0.42859 0.0
C372 C 0.49079 0.46387 0.45867 0.0
C373 C 0.48702 0.45584 0.44325 0.0
C374 C 0.48789 0.49405 0.44504 0.0
C375 C 0.49182 0.48314 0.45962 0.0
C376 C 0.48403 0.48608 0.42981 0.0
C377 C 0.48381 0.449 0.34469 0.0
C378 C 0.49551 0.47806 0.33212 0.0
C379 C 0.48924 0.4531 0.31412 0.0
C380 C 0.48334 0.44233 0.32834 0.0
C381 C 0.49586 0.47093 0.31577 0.0
C382 C 0.48962 0.46712 0.34652 0.0
C383 C 0.47915 0.43601 0.35921 0.0
O384 O 0.48469 0.4046 0.40349 0.0
O385 O 0.4555 0.41138 0.40254 0.0
O386 O 0.46376 0.4387 0.368 0.0
O387 O 0.49263 0.43035 0.36866 0.0
H388 H 0.46871 0.38238 0.37526 0.0
H389 H 0.46443 0.34958 0.37035 0.0
H390 H 0.45529 0.33906 0.42436 0.0
H391 H 0.45907 0.37152 0.42896 0.0
H392 H 0.49364 0.45498 0.46962 0.0
H393 H 0.48701 0.44102 0.44266 0.0
H394 H 0.48805 0.50889 0.44529 0.0
H395 H 0.48166 0.49498 0.41873 0.0
H396 H 0.50049 0.49175 0.33385 0.0
H397 H 0.48898 0.44724 0.30176 0.0
H398 H 0.47883 0.42847 0.32657 0.0
H399 H 0.49004 0.4726 0.35902 0.0
C400 C 0.16269 0.46029 0.89866 0.0
C401 C 0.17188 0.46447 0.88296 0.0
C402 C 0.20136 0.45742 0.89556 0.0
C403 C 0.19112 0.46289 0.88139 0.0
C404 C 0.19184 0.45236 0.91087 0.0
C405 C 0.17282 0.4538 0.91237 0.0
U406 U 0.10938 0.47338 0.89485 0.0
O407 O 0.0884 0.46271 0.91368 0.0
O408 O 0.096 0.49221 0.9129 0.0
C409 C 0.08625 0.47889 0.92028 0.0
C410 C 0.1431 0.46436 0.90228 0.0
C411 C 0.07318 0.48201 0.93462 0.0
C412 C 0.06596 0.48169 0.96503 0.0
C413 C 0.07755 0.47678 0.9513 0.0
C414 C 0.04522 0.49648 0.94545 0.0
C415 C 0.04972 0.49185 0.96231 0.0
C416 C 0.0569 0.49172 0.93179 0.0
C417 C 0.09082 0.48332 0.8475 0.0
C418 C 0.06399 0.49296 0.83181 0.0
C419 C 0.0936 0.49052 0.81716 0.0
C420 C 0.10139 0.48476 0.83232 0.0
C421 C 0.07492 0.49519 0.81669 0.0
C422 C 0.07192 0.48714 0.84719 0.0
C423 C 0.10071 0.47867 0.8631 0.0
O424 O 0.13735 0.48141 0.90021 0.0
O425 O 0.13067 0.45207 0.89962 0.0
O426 O 0.09832 0.46283 0.8715 0.0
O427 O 0.1069 0.4918 0.8721 0.0
H428 H 0.16431 0.46953 0.87218 0.0
H429 H 0.198 0.46683 0.86939 0.0
H430 H 0.19916 0.44776 0.92196 0.0
H431 H 0.16604 0.45055 0.9246 0.0
H432 H 0.07005 0.47803 0.97777 0.0
H433 H 0.09019 0.46943 0.95376 0.0
H434 H 0.03271 0.50392 0.94276 0.0
H435 H 0.05333 0.49588 0.91899 0.0
H436 H 0.04955 0.49642 0.83188 0.0
H437 H 0.10239 0.49167 0.80578 0.0
H438 H 0.11595 0.48181 0.83225 0.0
H439 H 0.06345 0.48606 0.85878 0.0
C440 C 0.02228 0.16199 0.40179 0.0
C441 C 0.02186 0.16972 0.38515 0.0
C442 C 0.02323 0.20068 0.39587 0.0
C443 C 0.02228 0.18891 0.38222 0.0
C444 C 0.02354 0.19272 0.41245 0.0
C445 C 0.02309 0.17367 0.41534 0.0
U446 U 0.01625 0.11127 0.39021 0.0
O447 O 0.03058 0.08634 0.39987 0.0
O448 O 1.00093 0.08945 0.40452 0.0
C449 C 0.01559 0.07929 0.40712 0.0
C450 C 0.02157 0.14195 0.40562 0.0
C451 C 0.01698 0.0703 0.42419 0.0
C452 C 0.01606 0.07062 0.45513 0.0
C453 C 0.01624 0.08008 0.43916 0.0
C454 C 0.01778 0.04169 0.44123 0.0
C455 C 0.01643 0.05125 0.45634 0.0
C456 C 0.01803 0.05109 0.42541 0.0
C457 C 1.00652 0.10168 0.34303 0.0
C458 C 0.99887 0.07282 0.3306 0.0
C459 C 0.99895 0.10117 0.31341 0.0
C460 C 1.00418 0.11076 0.32728 0.0
C461 C 0.99585 0.08216 0.31492 0.0
C462 C 1.00408 0.08256 0.34463 0.0
C463 C 1.01069 0.11295 0.35744 0.0
O464 O 1.00546 0.13436 0.40482 0.0
O465 O 0.03496 0.13192 0.39914 0.0
O466 O 0.02701 0.111 0.36367 0.0
O467 O 0.99758 0.11477 0.36915 0.0
H468 H 0.02119 0.16093 0.37449 0.0
H469 H 0.02212 0.19452 0.36929 0.0
H470 H 0.02388 0.20124 0.42332 0.0
H471 H 0.02329 0.16803 0.42827 0.0
H472 H 0.01504 0.07844 0.46648 0.0
H473 H 0.01544 0.09494 0.43851 0.0
H474 H 0.01854 0.02684 0.44161 0.0
H475 H 0.01869 0.04327 0.41404 0.0
H476 H 0.99657 0.05819 0.33217 0.0
H477 H 0.99706 0.10874 0.30148 0.0
H478 H 1.00606 0.12547 0.32575 0.0
H479 H 1.00585 0.07528 0.35673 0.0
C480 C 0.8643 1.00367 0.12419 0.0
C481 C 0.85661 1.00617 0.14058 0.0
C482 C 0.82574 1.0029 0.13024 0.0
C483 C 0.83749 1.00582 0.14357 0.0
C484 C 0.83367 1.00039 0.11392 0.0
C485 C 0.85265 1.00075 0.11097 0.0
U486 U 0.91494 1.0104 0.13536 0.0
O487 O 0.93995 0.9965 0.12557 0.0
O488 O 0.93625 0.02616 0.12078 0.0
C489 C 0.94664 1.01163 0.1182 0.0
C490 C 0.88425 1.00465 0.12021 0.0
C491 C 0.95551 1.01023 0.10109 0.0
C492 C 0.95494 1.00993 0.0702 0.0
C493 C 0.94564 1.0104 0.08618 0.0
C494 C 0.9839 1.00891 0.08394 0.0
C495 C 0.97424 1.00922 0.06888 0.0
C496 C 0.97465 1.0094 0.09978 0.0
C497 C 0.92459 0.02035 0.18257 0.0
C498 C 0.95352 0.02554 0.19585 0.0
C499 C 0.92479 0.03084 0.21133 0.0
C500 C 0.91525 0.02546 0.19749 0.0
C501 C 0.94401 0.03126 0.21064 0.0
C502 C 0.94384 0.0202 0.18183 0.0
C503 C 0.91348 0.01586 0.16814 0.0
O504 O 0.89162 0.02091 0.12095 0.0
O505 O 0.89449 0.99133 0.12661 0.0
O506 O 0.9158 0.99955 0.16187 0.0
O507 O 0.91126 0.02902 0.15646 0.0
H508 H 0.86537 1.00847 0.15099 0.0
H509 H 0.83193 1.00767 0.15633 0.0
H510 H 0.82518 0.99848 0.10325 0.0
H511 H 0.85825 0.99895 0.09821 0.0
H512 H 0.94703 1.01006 0.0589 0.0
H513 H 0.93083 1.01104 0.0869 0.0
H514 H 0.99871 1.00873 0.0835 0.0
H515 H 0.98255 1.00941 0.11109 0.0
H516 H 0.96833 0.02578 0.19494 0.0
H517 H 0.91706 0.03491 0.22259 0.0
H518 H 0.90042 0.02558 0.19838 0.0
H519 H 0.95133 0.01628 0.17039 0.0
C520 C 0.56212 0.86635 0.62131 0.0
C521 C 0.56324 0.85878 0.63796 0.0
C522 C 0.56663 0.82769 0.62727 0.0
C523 C 0.56547 0.83964 0.64091 0.0
C524 C 0.5657 0.83556 0.61068 0.0
C525 C 0.56352 0.85453 0.60779 0.0
U526 U 0.55091 0.91755 0.63177 0.0
O527 O 0.56036 0.94301 0.61794 0.0
O528 O 0.53117 0.93622 0.61929 0.0
C529 C 0.54375 0.94795 0.61371 0.0
C530 C 0.55861 0.8862 0.61736 0.0
C531 C 0.54126 0.95749 0.59692 0.0
C532 C 0.53987 0.95874 0.56598 0.0
C533 C 0.54341 0.94889 0.58135 0.0
C534 C 0.5322 0.98572 0.58165 0.0
C535 C 0.53414 0.97736 0.56593 0.0
C536 C 0.53574 0.97596 0.59683 0.0
C537 C 0.54422 0.92971 0.67982 0.0
C538 C 0.5323 0.95764 0.69258 0.0
C539 C 0.53858 0.9306 0.71037 0.0
C540 C 0.54465 0.92126 0.69609 0.0
C541 C 0.53186 0.94873 0.70883 0.0
C542 C 0.53834 0.94814 0.67813 0.0
C543 C 0.54878 0.91819 0.66519 0.0
O544 O 0.54188 0.89221 0.6206 0.0
O545 O 0.57117 0.89794 0.62111 0.0
O546 O 0.5639 0.92172 0.65609 0.0
O547 O 0.53511 0.91372 0.656 0.0
H548 H 0.5622 0.86761 0.64865 0.0
H549 H 0.5663 0.83424 0.65386 0.0
H550 H 0.56613 0.827 0.59981 0.0
H551 H 0.56258 0.85997 0.59484 0.0
H552 H 0.54169 0.95181 0.55417 0.0
H553 H 0.54765 0.93462 0.58108 0.0
H554 H 0.52745 0.99979 0.58237 0.0
H555 H 0.53385 0.98287 0.60867 0.0
H556 H 0.52723 0.97159 0.69095 0.0
H557 H 0.53874 0.92341 0.72267 0.0
H558 H 0.54918 0.90711 0.69773 0.0
H559 H 0.53793 0.95496 0.66567 0.0
C560 C 0.64585 0.56296 0.1233 0.0
C561 C 0.65241 0.56019 0.13973 0.0
C562 C 0.68373 0.56731 0.12916 0.0
C563 C 0.67114 0.56235 0.14263 0.0
C564 C 0.67685 0.57046 0.11286 0.0
C565 C 0.65823 0.56834 0.11001 0.0
U566 U 0.59427 0.55088 0.13342 0.0
O567 O 0.57002 0.56014 0.11938 0.0
O568 O 0.57772 0.53093 0.12076 0.0
C569 C 0.56619 0.54346 0.11505 0.0
C570 C 0.62664 0.55916 0.11919 0.0
C571 C 0.55872 0.54093 0.09811 0.0
C572 C 0.56092 0.54037 0.06712 0.0
C573 C 0.56868 0.54424 0.08265 0.0
C574 C 0.53325 0.53027 0.08241 0.0
C575 C 0.54318 0.53294 0.06686 0.0
C576 C 0.5409 0.53419 0.09774 0.0
C577 C 0.57727 0.54319 0.18124 0.0
C578 C 0.54686 0.53636 0.19391 0.0
C579 C 0.57353 0.5327 0.2109 0.0
C580 C 0.5847 0.53862 0.19698 0.0
C581 C 0.55453 0.53129 0.20955 0.0
C582 C 0.55818 0.54219 0.17979 0.0
C583 C 0.59018 0.54831 0.16684 0.0
O584 O 0.621 0.54228 0.12239 0.0
O585 O 0.61407 0.57156 0.1229 0.0
O586 O 0.58693 0.5635 0.1578 0.0
O587 O 0.59639 0.53485 0.1576 0.0
H588 H 0.64313 0.55606 0.15023 0.0
H589 H 0.67576 0.56005 0.1554 0.0
H590 H 0.68595 0.57399 0.10206 0.0
H591 H 0.65357 0.57045 0.09721 0.0
H592 H 0.56896 0.54269 0.0554 0.0
H593 H 0.58246 0.54951 0.0826 0.0
H594 H 0.51944 0.52504 0.08277 0.0
H595 H 0.53289 0.53166 0.10945 0.0
H596 H 0.53227 0.53523 0.19247 0.0
H597 H 0.57981 0.5289 0.22276 0.0
H598 H 0.59933 0.53932 0.19845 0.0
H599 H 0.55211 0.54559 0.16775 0.0
C600 C 1.00175 0.65054 0.62526 0.0
C601 C 1.00215 0.65644 0.64197 0.0
C602 C 1.00197 0.68846 0.63146 0.0
C603 C 1.00219 0.67531 0.64505 0.0
C604 C 1.00133 0.68248 0.61485 0.0
C605 C 1.00116 0.66373 0.61179 0.0
U606 U 1.00872 0.5985 0.6363 0.0
O607 O 0.99516 0.5747 0.62617 0.0
O608 O 0.02472 0.57835 0.62168 0.0
C609 C 1.01036 0.56846 0.6189 0.0
C610 C 1.00271 0.63089 0.62126 0.0
C611 C 1.00923 0.56131 0.60173 0.0
C612 C 1.00598 0.56499 0.5711 0.0
C613 C 1.00647 0.57265 0.58717 0.0
C614 C 1.01094 0.53475 0.5841 0.0
C615 C 1.00817 0.54588 0.56938 0.0
C616 C 1.01144 0.54237 0.60001 0.0
C617 C 0.01895 0.58322 0.68312 0.0
C618 C 0.02288 0.55231 0.69577 0.0
C619 C 0.03034 0.57877 0.7115 0.0
C620 C 0.02512 0.59039 0.69798 0.0
C621 C 0.02952 0.55959 0.71055 0.0
C622 C 0.01771 0.56406 0.68208 0.0
C623 C 0.0143 0.59633 0.66908 0.0
O624 O 0.01896 0.6231 0.62193 0.0
O625 O 0.98955 0.62028 0.62773 0.0
O626 O 0.99803 0.59505 0.66279 0.0
O627 O 0.02731 0.59975 0.65743 0.0
H628 H 1.00268 0.64649 0.65256 0.0
H629 H 1.00274 0.67963 0.65797 0.0
H630 H 1.00115 0.69237 0.60419 0.0
H631 H 1.00086 0.65951 0.59881 0.0
H632 H 1.00372 0.57399 0.56009 0.0
H633 H 1.00476 0.58734 0.58821 0.0
H634 H 0.0131 0.52009 0.58334 0.0
H635 H 0.01373 0.53338 0.61104 0.0
H636 H 0.02214 0.53759 0.69463 0.0
H637 H 0.03508 0.58486 0.72277 0.0
H638 H 0.02608 0.6051 0.6991 0.0
H639 H 0.01297 0.55823 0.67069 0.0
H640 H 0.51668 0.02556 0.96153 0.0
H641 H 0.50886 1.00347 0.06203 0.0
H642 H 0.46619 1.01025 0.98839 0.0
H643 H 0.55782 0.02415 0.03575 0.0
H644 H 0.49344 1.00471 0.03519 0.0
H645 H 0.53206 0.02429 0.9884 0.0
C646 C 0.50878 0.02187 0.97307 0.0
C647 C 0.49007 0.01777 0.97254 0.0
C648 C 0.50756 1.00898 0.03527 0.0
C649 C 0.50777 0.01643 1.00364 0.0
C650 C 0.51642 1.00836 0.05066 0.0
C651 C 0.53471 1.014 0.05139 0.0
C652 C 0.51698 0.01516 0.02027 0.0
C653 C 0.54379 0.01961 0.03598 0.0
C654 C 0.51761 0.02123 0.98847 0.0
C655 C 0.48058 1.01356 0.98808 0.0
N656 N 0.53484 0.02011 0.02113 0.0
N657 N 0.48954 1.01288 1.00293 0.0
H658 H 0.5076 0.5156 0.56327 0.0
H659 H 0.51457 0.51256 0.46163 0.0
H660 H 0.53609 0.55615 0.53101 0.0
H661 H 0.48284 0.47416 0.49353 0.0
H662 H 0.52328 0.52797 0.48684 0.0
H663 H 0.49921 0.49983 0.53811 0.0
C664 C 0.51224 0.52116 0.5509 0.0
C665 C 0.52275 0.53724 0.5494 0.0
C666 C 0.51437 0.51621 0.48838 0.0
C667 C 0.51293 0.51913 0.52025 0.0
C668 C 0.50928 0.5074 0.47393 0.0
C669 C 0.4977 0.49208 0.47529 0.0
C670 C 0.50794 0.50976 0.50454 0.0
C671 C 0.49181 0.48584 0.49174 0.0
C672 C 0.50732 0.51215 0.53648 0.0
C673 C 0.52792 0.5439 0.5329 0.0
N674 N 0.49692 0.49472 0.50565 0.0
N675 N 0.52304 0.5348 0.51904 0.0
H676 H 0.03039 0.5244 0.96511 0.0
H677 H 0.99398 0.50099 0.06067 0.0
H678 H 0.0418 0.47358 0.99307 0.0
H679 H 0.97615 0.54919 0.03194 0.0
H680 H 0.01252 0.49176 0.03616 0.0
H681 H 1.01124 0.53434 0.98923 0.0
C682 C 0.02879 0.51522 0.97623 0.0
C683 C 0.0378 0.49804 0.97692 0.0
C684 C 1.00456 0.50434 0.03512 0.0
C685 C 0.01602 0.5096 1.00483 0.0
C686 C 0.994 0.50973 0.0492 0.0
C687 C 0.98349 0.526 0.04851 0.0
C688 C 1.00474 0.51522 0.02 0.0
C689 C 0.98389 0.53648 0.03308 0.0
C690 C 0.01791 0.52101 0.99006 0.0
C691 C 0.03542 0.48702 0.99191 0.0
N692 N 0.9944 0.53095 0.01947 0.0
N693 N 0.02483 0.49299 1.00519 0.0
H694 H 0.02947 1.00926 0.56024 0.0
H695 H 0.99665 0.02021 0.46466 0.0
H696 H 0.99744 0.96873 0.53702 0.0
H697 H 0.03267 0.05835 0.48637 0.0
H698 H 0.99569 1.002 0.49138 0.0
H699 H 0.02984 0.0279 0.53376 0.0
C700 C 0.02241 1.0043 0.5496 0.0
C701 C 0.01327 0.9874 0.55099 0.0
C702 C 1.00383 0.01432 0.49033 0.0
C703 C 0.01377 1.00879 0.52038 0.0
C704 C 1.00446 0.02473 0.47502 0.0
C705 C 0.01498 0.04077 0.47309 0.0
C706 C 0.01376 0.01991 0.504 0.0
C707 C 0.02435 0.04615 0.48721 0.0
C708 C 0.02271 0.01495 0.53442 0.0
C709 C 1.00473 0.98158 0.53657 0.0
N710 N 0.02359 0.03571 0.502 0.0
N711 N 1.00512 0.99227 0.52193 0.0
H712 H 0.05734 0.99396 0.98842 0.0
H713 H 0.96697 0.02913 0.03928 0.0
H714 H 0.02064 0.03544 0.96819 0.0
H715 H 1.00521 0.98952 0.06002 0.0
H716 H 0.98578 0.03093 1.01281 0.0
H717 H 0.03854 0.99242 0.01478 0.0
C718 C 0.04546 1.00289 0.98952 0.0
C719 C 0.04057 0.01472 0.97585 0.0
C720 C 0.99005 0.02184 0.02316 0.0
C721 C 0.01862 1.01272 1.0061 0.0
C722 C 0.9792 0.02068 0.03825 0.0
C723 C 0.98455 1.0093 0.05206 0.0
C724 C 1.00638 1.01149 0.02176 0.0
C725 C 1.00068 0.99878 0.04991 0.0
C726 C 0.03459 1.00187 1.00457 0.0
C727 C 0.02481 0.02579 0.97815 0.0
N728 N 1.01099 1.00017 0.03515 0.0
N729 N 0.01441 0.02446 0.99288 0.0
H730 H 0.54036 1.01397 0.55762 0.0
H731 H 0.48802 0.01564 0.4702 0.0
H732 H 0.5176 0.96564 0.53735 0.0
H733 H 0.51224 0.06348 0.49001 0.0
H734 H 0.49824 0.99733 0.49472 0.0
H735 H 0.53008 0.03213 0.53306 0.0
C736 C 0.53316 1.0071 0.54805 0.0
C737 C 0.52963 0.98815 0.54989 0.0
C738 C 0.5013 1.01184 0.49374 0.0
C739 C 0.51793 1.00913 0.52128 0.0
C740 C 0.49553 0.02238 0.47963 0.0
C741 C 0.49948 0.04126 0.47767 0.0
C742 C 0.51107 0.0201 0.50625 0.0
C743 C 0.50877 0.04909 0.4908 0.0
C744 C 0.52734 0.01755 0.53393 0.0
C745 C 0.5207 0.98013 0.53663 0.0
N746 N 0.51429 0.0385 0.5044 0.0
N747 N 0.51509 0.99065 0.52301 0.0
H748 H 0.52353 0.50206 0.06169 0.0
H749 H 0.50202 0.52909 0.96482 0.0
H750 H 0.54381 0.55116 0.03519 0.0
H751 H 0.47793 0.48269 0.99279 0.0
H752 H 0.51791 0.53694 0.9901 0.0
H753 H 0.50787 0.49418 0.03634 0.0
C754 C 0.52466 0.51127 0.05055 0.0
C755 C 0.53487 0.52748 0.05077 0.0
C756 C 0.50917 0.52504 0.99077 0.0
C757 C 0.51688 0.51836 0.02139 0.0
C758 C 0.5001 0.52049 0.97629 0.0
C759 C 0.48869 0.50508 0.97656 0.0
C760 C 0.50701 0.51407 1.00578 0.0
C761 C 0.4865 0.49471 0.99195 0.0
C762 C 0.5157 0.5067 0.03602 0.0
C763 C 0.53616 0.53853 0.0357 0.0
N764 N 0.49565 0.49932 1.00587 0.0
N765 N 0.52721 0.53382 0.0217 0.0
H766 H 0.02293 0.55889 0.53837 0.0
H767 H 0.99688 0.46931 0.48902 0.0
H768 H 0.99291 0.51316 0.56168 0.0
H769 H 0.02894 0.51382 0.46603 0.0
H770 H 0.99571 0.48498 0.51581 0.0
H771 H 0.0245 0.54312 0.51154 0.0
C772 C 0.01654 0.54563 0.53786 0.0
C773 C 1.00797 0.53731 0.55247 0.0
C774 C 1.003 0.49133 0.50489 0.0
C775 C 1.00996 0.51898 0.52173 0.0
C776 C 1.00383 0.48227 0.48958 0.0
C777 C 0.01283 0.49028 0.47503 0.0
C778 C 1.0112 0.5086 0.50579 0.0
C779 C 0.02143 0.50725 0.47669 0.0
C780 C 0.01759 0.53653 0.52254 0.0
C781 C 1.00003 0.52 0.55093 0.0
N782 N 0.02032 0.51584 0.49169 0.0
N783 N 1.00128 0.51144 0.53593 0.0
H784 H 0.52759 0.02369 0.22548 0.0
H785 H 0.52583 0.09771 0.29797 0.0
H786 H 0.56652 0.06707 0.22906 0.0
H787 H 0.49179 0.04982 0.30294 0.0
H788 H 0.53907 0.08693 0.27145 0.0
H789 H 0.51205 0.03355 0.25207 0.0
C790 C 0.53276 0.03535 0.23176 0.0
C791 C 0.54855 0.04443 0.22515 0.0
C792 C 0.52874 0.07864 0.27824 0.0
C793 C 0.53097 0.05568 0.25547 0.0
C794 C 0.52116 0.08484 0.29344 0.0
C795 C 0.50761 0.07474 0.30266 0.0
C796 C 0.52278 0.06214 0.2719 0.0
C797 C 0.50225 0.05801 0.29623 0.0
C798 C 0.52399 0.04086 0.24698 0.0
C799 C 0.55463 0.05945 0.23379 0.0
N800 N 0.50977 0.05226 0.28115 0.0
N801 N 0.54591 0.06451 0.2484 0.0
H802 H 0.46735 0.48831 0.78545 0.0
H803 H 0.53459 0.56402 0.74151 0.0
H804 H 0.49164 0.53113 0.81281 0.0
H805 H 0.49839 0.53177 0.71329 0.0
H806 H 0.52315 0.54838 0.76775 0.0
H807 H 0.48271 0.5004 0.7593 0.0
C808 C 0.47588 0.50027 0.78603 0.0
C809 C 0.47777 0.50889 0.80148 0.0
C810 C 0.51775 0.54466 0.75582 0.0
C811 C 0.49585 0.52262 0.77133 0.0
C812 C 0.52421 0.55367 0.74076 0.0
C813 C 0.51719 0.54962 0.72502 0.0
C814 C 0.50423 0.53125 0.75532 0.0
C815 C 0.50424 0.53549 0.72501 0.0
C816 C 0.48474 0.5071 0.77103 0.0
C817 C 0.48965 0.52394 0.80133 0.0
N818 N 0.4981 0.52695 0.73989 0.0
N819 N 0.4981 0.53036 0.78653 0.0
H820 H 1.00999 0.4764 0.28743 0.0
H821 H 0.92561 0.51818 0.23721 0.0
H822 H 0.95709 0.48764 0.31111 0.0
H823 H 0.9808 0.51962 0.21566 0.0
H824 H 0.9372 0.50648 0.26406 0.0
H825 H 1.00016 0.49213 0.26119 0.0
C826 C 0.99634 0.4823 0.28715 0.0
C827 C 0.98428 0.48049 0.30147 0.0
C828 C 0.94685 0.50949 0.25355 0.0
C829 C 0.97284 0.49836 0.27133 0.0
C830 C 0.94024 0.51627 0.23814 0.0
C831 C 0.95221 0.52021 0.22407 0.0
C832 C 0.96567 0.50631 0.25509 0.0
C833 C 0.97099 0.51676 0.22607 0.0
C834 C 0.99075 0.4913 0.27215 0.0
C835 C 0.96686 0.48867 0.30043 0.0
N836 N 0.97713 0.51 0.24126 0.0
N837 N 0.96161 0.49701 0.28559 0.0
H838 H 0.06502 0.93227 0.72669 0.0
H839 H 0.05104 1.00361 0.80096 0.0
H840 H 0.02305 0.97424 0.72489 0.0
H841 H 0.09312 0.96182 0.79801 0.0
H842 H 0.03934 0.99343 0.77401 0.0
H843 H 0.075 0.94385 0.75307 0.0
C844 C 0.05793 0.94404 0.73188 0.0
C845 C 0.04305 0.95214 0.72368 0.0
C846 C 0.05111 0.98652 0.77933 0.0
C847 C 0.05439 0.96561 0.75427 0.0
C848 C 0.05768 0.99222 0.79475 0.0
C849 C 0.07324 0.9837 0.80161 0.0
C850 C 0.06012 0.97214 0.7709 0.0
C851 C 0.08132 0.96902 0.79306 0.0
C852 C 0.06362 0.95067 0.74701 0.0
C853 C 0.03457 0.96757 0.73086 0.0
N854 N 0.07474 0.96382 0.77823 0.0
N855 N 0.04026 0.97375 0.74586 0.0
H856 H 0.46536 0.96358 0.79995 0.0
H857 H 0.53611 0.98377 0.72081 0.0
H858 H 0.49618 1.01366 0.79515 0.0
H859 H 0.50734 0.93308 0.73169 0.0
H860 H 0.52206 0.99593 0.74715 0.0
H861 H 0.48145 0.9528 0.7747 0.0
C862 C 0.47562 0.97231 0.79357 0.0
C863 C 0.47922 0.98965 0.79959 0.0
C864 C 0.51892 0.98214 0.74374 0.0
C865 C 0.49791 0.97735 0.77025 0.0
C866 C 0.52682 0.97524 0.72866 0.0
C867 C 0.52308 0.95726 0.7241 0.0
C868 C 0.50704 0.97102 0.75416 0.0
C869 C 0.51095 0.94685 0.73478 0.0
C870 C 0.48486 0.96614 0.77908 0.0
C871 C 0.49293 1.00021 0.79091 0.0
N872 N 0.50346 0.95385 0.74916 0.0
N873 N 0.50168 0.99398 0.77655 0.0
H874 H 0.52608 0.54657 0.22884 0.0
H875 H 0.51998 0.45728 0.29233 0.0
H876 H 0.55839 0.49718 0.22389 0.0
H877 H 0.49134 0.50743 0.30422 0.0
H878 H 0.53249 0.47208 0.26634 0.0
H879 H 0.51122 0.53291 0.25514 0.0
C880 C 0.52983 0.53278 0.23316 0.0
C881 C 0.5435 0.52296 0.2242 0.0
C882 C 0.52348 0.47999 0.27453 0.0
C883 C 0.52677 0.50736 0.25419 0.0
C884 C 0.51624 0.47146 0.28943 0.0
C885 C 0.50434 0.48097 0.30046 0.0
C886 C 0.51894 0.49835 0.27032 0.0
C887 C 0.50043 0.49953 0.2961 0.0
C888 C 0.52148 0.52506 0.24822 0.0
C889 C 0.54799 0.50525 0.23041 0.0
N890 N 0.50761 0.5076 0.28131 0.0
N891 N 0.53971 0.4981 0.24492 0.0
H892 H 0.09127 0.52113 0.79557 0.0
H893 H 0.01358 0.52881 0.7267 0.0
H894 H 0.04219 0.48887 0.8012 0.0
H895 H 0.06109 0.56317 0.72703 0.0
H896 H 0.02428 0.51176 0.75221 0.0
H897 H 0.08079 0.53452 0.76903 0.0
C898 C 0.07828 0.51674 0.79117 0.0
C899 C 0.06771 0.50369 0.80067 0.0
C900 C 0.03233 0.52301 0.74663 0.0
C901 C 0.05529 0.51942 0.76999 0.0
C902 C 0.02632 0.53265 0.73202 0.0
C903 C 0.03632 0.54764 0.72486 0.0
C904 C 0.04854 0.52832 0.75397 0.0
C905 C 0.05272 0.55199 0.73227 0.0
C906 C 0.07222 0.52451 0.77596 0.0
C907 C 0.05076 0.49894 0.79437 0.0
N908 N 0.05822 0.54247 0.74636 0.0
N909 N 0.04507 0.50678 0.77939 0.0
H910 H 0.93606 0.06295 0.22615 0.0
H911 H 1.00661 0.04911 0.30106 0.0
H912 H 0.9735 0.01685 0.22813 0.0
H913 H 0.96802 0.09392 0.29539 0.0
H914 H 0.99524 0.03614 0.27513 0.0
H915 H 0.94875 0.07414 0.25158 0.0
C916 C 0.94703 0.05517 0.23198 0.0
C917 C 0.95352 0.0388 0.22512 0.0
C918 C 0.98932 0.04881 0.27961 0.0
C919 C 0.96832 0.05161 0.2546 0.0
C920 C 0.9957 0.05614 0.29445 0.0
C921 C 0.98846 0.07281 0.30026 0.0
C922 C 0.97553 0.05819 0.27067 0.0
C923 C 0.97432 0.08129 0.29122 0.0
C924 C 0.95432 0.06157 0.24657 0.0
C925 C 0.96805 0.02951 0.23305 0.0
N926 N 0.96844 0.07396 0.27697 0.0
N927 N 0.9749 0.03597 0.24749 0.0
H928 H 0.80329 0.02477 0.1504 0.0
H929 H 0.71128 0.98395 0.11565 0.0
H930 H 0.80133 0.9802 0.11638 0.0
H931 H 0.71057 0.02965 0.14857 0.0
H932 H 0.74425 0.98138 0.11786 0.0
H933 H 0.76963 0.02549 0.15225 0.0
C934 C 0.79585 0.01502 0.14344 0.0
C935 C 0.8053 1.00259 0.13298 0.0
C936 C 0.73697 0.99197 0.12468 0.0
C937 C 0.76669 1.00347 0.13495 0.0
C938 C 0.71804 0.99352 0.12334 0.0
C939 C 0.70799 1.00725 0.13168 0.0
C940 C 0.74623 1.00421 0.13447 0.0
C941 C 0.71766 0.01886 0.14187 0.0
C942 C 0.77661 0.01553 0.14443 0.0
C943 C 0.79479 0.99035 0.12427 0.0
N944 N 0.73623 0.01718 0.14286 0.0
N945 N 0.77621 0.99118 0.12538 0.0
H946 H 0.551 0.80491 0.653 0.0
H947 H 0.58357 0.71248 0.60818 0.0
H948 H 0.58612 0.80313 0.60776 0.0
H949 H 0.54519 0.71223 0.65126 0.0
H950 H 0.58677 0.74547 0.61002 0.0
H951 H 0.55133 0.77117 0.65498 0.0
C952 C 0.55892 0.79753 0.64356 0.0
C953 C 0.56824 0.80712 0.62997 0.0
C954 C 0.57769 0.73826 0.61916 0.0
C955 C 0.56847 0.76826 0.63209 0.0
C956 C 0.57573 0.71929 0.61805 0.0
C957 C 0.56374 0.70933 0.62933 0.0
C958 C 0.5677 0.74768 0.63171 0.0
C959 C 0.55455 0.71916 0.6422 0.0
C960 C 0.55898 0.7782 0.64464 0.0
C961 C 0.57825 0.79656 0.6182 0.0
N962 N 0.55659 0.73774 0.64294 0.0
N963 N 0.57797 0.77787 0.61947 0.0
H964 H 0.79963 0.5914 0.11482 0.0
H965 H 0.70533 0.54593 0.15051 0.0
H966 H 0.79765 0.54281 0.14812 0.0
H967 H 0.70878 0.5914 0.11363 0.0
H968 H 0.73869 0.54648 0.15238 0.0
H969 H 0.76635 0.59314 0.11658 0.0
C970 C 0.79229 0.58102 0.12251 0.0
C971 C 0.80176 0.56669 0.13105 0.0
C972 C 0.73213 0.55636 0.14392 0.0
C973 C 0.76309 0.56889 0.13339 0.0
C974 C 0.71299 0.55617 0.14292 0.0
C975 C 0.704 0.56849 0.13171 0.0
C976 C 0.74253 0.569 0.13368 0.0
C977 C 0.71493 0.58131 0.12217 0.0
C978 C 0.77315 0.58212 0.12359 0.0
C979 C 0.79117 0.55412 0.14127 0.0
N980 N 0.73347 0.58116 0.12331 0.0
N981 N 0.77249 0.55543 0.14204 0.0
H982 H 0.03201 0.71004 0.62741 0.0
H983 H 0.97599 0.80442 0.6322 0.0
H984 H 0.97445 0.71216 0.64104 0.0
H985 H 0.03478 0.8016 0.63354 0.0
H986 H 0.97495 0.7708 0.63498 0.0
H987 H 0.03333 0.74355 0.62906 0.0
C988 C 0.01971 0.71761 0.63099 0.0
C989 C 1.00314 0.70841 0.63424 0.0
C990 C 0.98808 0.77752 0.6348 0.0
C991 C 1.0044 0.74676 0.63582 0.0
C992 C 0.98868 0.7967 0.63316 0.0
C993 C 1.0055 0.80583 0.63258 0.0
C994 C 1.00446 0.76727 0.63554 0.0
C995 C 0.02151 0.79514 0.63402 0.0
C996 C 0.02044 0.73671 0.63191 0.0
C997 C 0.98751 0.71879 0.63859 0.0
N998 N 0.02062 0.77646 0.63522 0.0
N999 N 0.98848 0.73743 0.63911 0.0
H1000 H 0.22353 1.01272 0.92292 0.0
H1001 H 0.31584 0.0329 0.86678 0.0
H1002 H 0.22244 0.02663 0.86927 0.0
H1003 H 0.31326 0.01435 0.91949 0.0
H1004 H 0.28222 0.03073 0.86647 0.0
H1005 H 0.25669 1.01353 0.92107 0.0
C1006 C 0.23027 0.01605 0.9107 0.0
C1007 C 0.22003 0.01987 0.89629 0.0
C1008 C 0.28908 0.02712 0.87807 0.0
C1009 C 0.25856 0.02062 0.89398 0.0
C1010 C 0.30828 0.0283 0.87825 0.0
C1011 C 0.3175 0.02406 0.89327 0.0
C1012 C 0.27904 0.02157 0.89299 0.0
C1013 C 0.30688 0.01821 0.90771 0.0
C1014 C 0.24933 0.01641 0.90962 0.0
C1015 C 0.22973 0.02361 0.88073 0.0
N1016 N 0.28839 0.01721 0.9072 0.0
N1017 N 0.24845 0.02402 0.88 0.0
H1018 H 0.47853 0.31961 0.37404 0.0
H1019 H 0.43685 0.22529 0.41479 0.0
H1020 H 0.43671 0.3164 0.41427 0.0
H1021 H 0.48194 0.22681 0.37768 0.0
H1022 H 0.43483 0.25866 0.41245 0.0
H1023 H 0.47774 0.28607 0.37259 0.0
C1024 C 0.46905 0.31198 0.38247 0.0
C1025 C 0.4579 0.32108 0.39452 0.0
C1026 C 0.44513 0.25174 0.40473 0.0
C1027 C 0.45712 0.28237 0.39302 0.0
C1028 C 0.44641 0.23256 0.40614 0.0
C1029 C 0.45986 0.22293 0.39669 0.0
C1030 C 0.45731 0.26172 0.39369 0.0
C1031 C 0.47134 0.23341 0.38528 0.0
C1032 C 0.46872 0.29273 0.38171 0.0
C1033 C 0.44596 0.31017 0.40507 0.0
N1034 N 0.4699 0.25215 0.38421 0.0
N1035 N 0.44599 0.29155 0.40414 0.0
H1036 H 0.22258 0.47075 0.91963 0.0
H1037 H 0.32002 0.45201 0.87239 0.0
H1038 H 0.22687 0.4467 0.87064 0.0
H1039 H 0.31196 0.4758 0.92126 0.0
H1040 H 0.28653 0.44974 0.8707 0.0
H1041 H 0.25564 0.47216 0.91981 0.0
C1042 C 0.23049 0.46561 0.90891 0.0
C1043 C 0.2218 0.45843 0.89516 0.0
C1044 C 0.29216 0.45544 0.88177 0.0
C1045 C 0.26022 0.46032 0.89515 0.0
C1046 C 0.31127 0.45682 0.88271 0.0
C1047 C 0.31893 0.46394 0.89709 0.0
C1048 C 0.28064 0.46139 0.89522 0.0
C1049 C 0.30684 0.46987 0.91008 0.0
C1050 C 0.24949 0.46653 0.90897 0.0
C1051 C 0.23295 0.45243 0.88147 0.0
N1052 N 0.28846 0.46845 0.90883 0.0
N1053 N 0.25159 0.45345 0.88182 0.0
H1054 H 1.00411 0.22336 0.37349 0.0
H1055 H 0.04025 0.3151 0.41297 0.0
H1056 H 0.04399 0.22488 0.41212 0.0
H1057 H 0.99877 0.31634 0.37567 0.0
H1058 H 0.04319 0.28207 0.41065 0.0
H1059 H 1.00364 0.25715 0.3717 0.0
C1060 C 0.01289 0.23074 0.38148 0.0
C1061 C 0.02388 0.22115 0.3932 0.0
C1062 C 0.03346 0.28948 0.40289 0.0
C1063 C 0.02329 0.25986 0.39129 0.0
C1064 C 0.03169 0.30843 0.40429 0.0
C1065 C 0.019 0.31862 0.39474 0.0
C1066 C 0.02248 0.28035 0.39184 0.0
C1067 C 1.00871 0.30911 0.38333 0.0
C1068 C 0.01252 0.25005 0.38051 0.0
C1069 C 0.03494 0.23155 0.4032 0.0
N1070 N 1.01055 0.2905 0.38231 0.0
N1071 N 0.03426 0.2502 0.40208 0.0
loop_
_geom_bond_atom_site_label_1
_geom_bond_atom_site_label_2
_geom_bond_distance
_geom_bond_site_symmetry_2
_ccdc_geom_bond_type
C0 C1 1.264 . S
C0 C5 1.479 1_545 S
C0 C10 1.465 . S
C1 C0 1.264 . S
C1 C3 1.338 1_545 S
C1 H28 0.931 . S
C2 C3 1.396 . S
C2 C4 1.320 . S
C3 C1 1.338 1_565 S
C3 C2 1.396 . S
C3 H29 0.928 1_565 S
C4 C2 1.320 . S
C4 C5 1.405 . S
C4 H30 0.930 . S
C5 C0 1.479 1_565 S
C5 C4 1.405 . S
C5 H31 0.931 . S
U6 O7 2.440 1_545 S
U6 O8 2.458 . S
U6 C9 2.984 . S
U6 C10 2.847 . S
U6 C23 2.882 . S
U6 O24 2.441 . S
U6 O25 2.420 . S
U6 O26 2.455 . S
U6 O27 2.449 . S
O7 U6 2.440 1_565 S
O7 C9 1.351 1_565 S
O8 U6 2.458 . S
O8 C9 1.286 . S
C9 U6 2.984 . S
C9 O7 1.351 1_545 S
C9 O8 1.286 . S
C9 C11 1.363 1_545 S
C10 C0 1.465 . S
C10 U6 2.847 . S
C10 O24 1.249 . S
C10 O25 1.202 . S
C11 C9 1.363 1_565 S
C11 C13 1.408 . S
C11 C16 1.342 . S
C12 C13 1.310 . S
C12 C15 1.461 . S
C12 H32 0.932 . S
C13 C11 1.408 . S
C13 C12 1.310 . S
C13 H33 0.930 . S
C14 C15 1.474 . S
C14 C16 1.285 . S
C14 H34 0.929 . S
C15 C12 1.461 . S
C15 C14 1.474 . S
C16 C11 1.342 . S
C16 C14 1.285 . S
C16 H35 0.933 . S
C17 C20 1.424 . S
C17 C22 1.245 . S
C17 C23 1.428 . S
C18 C21 1.260 . S
C18 C22 1.477 . S
C18 H36 0.932 . S
C19 C20 1.384 . S
C19 C21 1.479 . S
C19 H37 0.929 . S
C20 C17 1.424 . S
C20 C19 1.384 . S
C20 H38 0.928 . S
C21 C18 1.260 . S
C21 C19 1.479 . S
C22 C17 1.245 . S
C22 C18 1.477 . S
C22 H39 0.932 . S
C23 U6 2.882 . S
C23 C17 1.428 . S
C23 O26 1.301 . S
C23 O27 1.282 . S
O24 U6 2.441 . S
O24 C10 1.249 . S
O25 U6 2.420 . S
O25 C10 1.202 . S
O26 U6 2.455 . S
O26 C23 1.301 . S
O27 U6 2.449 . S
O27 C23 1.282 . S
H28 C1 0.931 . S
H29 C3 0.928 1_545 S
H30 C4 0.930 . S
H31 C5 0.931 . S
H32 C12 0.932 . S
H33 C13 0.930 . S
H34 C14 0.929 . S
H35 C16 0.933 . S
H36 C18 0.932 . S
H37 C19 0.929 . S
H38 C20 0.928 . S
H39 C22 0.932 . S
C40 C41 1.264 . S
C40 C45 1.479 . S
C40 C50 1.465 . S
C41 C40 1.264 . S
C41 C43 1.339 . S
C41 H68 0.931 . S
C42 C43 1.395 . S
C42 C44 1.320 . S
C43 C41 1.339 . S
C43 C42 1.395 . S
C43 H69 0.929 . S
C44 C42 1.320 . S
C44 C45 1.405 . S
C44 H70 0.930 . S
C45 C40 1.479 . S
C45 C44 1.405 . S
C45 H71 0.931 . S
U46 O47 2.454 . S
U46 O48 2.458 . S
U46 C49 2.984 . S
U46 C50 2.847 . S
U46 C63 2.882 . S
U46 O64 2.441 . S
U46 O65 2.420 . S
U46 O66 2.455 . S
U46 O67 2.449 . S
O47 U46 2.454 . S
O47 C49 1.353 . S
O48 U46 2.458 . S
O48 C49 1.286 . S
C49 U46 2.984 . S
C49 O47 1.353 . S
C49 O48 1.286 . S
C49 C51 1.363 . S
C50 C40 1.465 . S
C50 U46 2.847 . S
C50 O64 1.249 . S
C50 O65 1.202 . S
C51 C49 1.363 . S
C51 C53 1.408 . S
C51 C56 1.342 . S
C52 C53 1.310 . S
C52 C55 1.461 . S
C52 H72 0.932 . S
C53 C51 1.408 . S
C53 C52 1.310 . S
C53 H73 0.930 . S
C54 C55 1.474 . S
C54 C56 1.285 . S
C54 H74 0.929 . S
C55 C52 1.461 . S
C55 C54 1.474 . S
C56 C51 1.342 . S
C56 C54 1.285 . S
C56 H75 0.930 . S
C57 C60 1.424 . S
C57 C62 1.245 . S
C57 C63 1.428 . S
C58 C61 1.260 . S
C58 C62 1.477 . S
C58 H76 0.932 . S
C59 C60 1.384 . S
C59 C61 1.479 . S
C59 H77 0.929 . S
C60 C57 1.424 . S
C60 C59 1.384 . S
C60 H78 0.928 . S
C61 C58 1.260 . S
C61 C59 1.479 . S
C62 C57 1.245 . S
C62 C58 1.477 . S
C62 H79 0.932 . S
C63 U46 2.882 . S
C63 C57 1.428 . S
C63 O66 1.301 . S
C63 O67 1.282 . S
O64 U46 2.441 . S
O64 C50 1.249 . S
O65 U46 2.420 . S
O65 C50 1.202 . S
O66 U46 2.455 . S
O66 C63 1.301 . S
O67 U46 2.449 . S
O67 C63 1.282 . S
H68 C41 0.931 . S
H69 C43 0.929 . S
H70 C44 0.930 . S
H71 C45 0.931 . S
H72 C52 0.932 . S
H73 C53 0.930 . S
H74 C54 0.929 . S
H75 C56 0.930 . S
H76 C58 0.932 . S
H77 C59 0.929 . S
H78 C60 0.928 . S
H79 C62 0.932 . S
C80 C81 1.264 . S
C80 C85 1.479 . S
C80 C90 1.465 . S
C81 C80 1.264 . S
C81 C83 1.339 . S
C81 H108 0.931 . S
C82 C83 1.395 . S
C82 C84 1.320 . S
C83 C81 1.339 . S
C83 C82 1.395 . S
C83 H109 0.929 . S
C84 C82 1.320 . S
C84 C85 1.405 . S
C84 H110 0.930 . S
C85 C80 1.479 . S
C85 C84 1.405 . S
C85 H111 0.931 . S
U86 O87 2.454 . S
U86 O88 2.458 . S
U86 C89 2.984 . S
U86 C90 2.847 . S
U86 C103 2.882 . S
U86 O104 2.441 . S
U86 O105 2.420 . S
U86 O106 2.455 . S
U86 O107 2.449 . S
O87 U86 2.454 . S
O87 C89 1.353 . S
O88 U86 2.458 . S
O88 C89 1.286 . S
C89 U86 2.984 . S
C89 O87 1.353 . S
C89 O88 1.286 . S
C89 C91 1.363 . S
C90 C80 1.465 . S
C90 U86 2.847 . S
C90 O104 1.249 . S
C90 O105 1.202 . S
C91 C89 1.363 . S
C91 C93 1.408 . S
C91 C96 1.342 . S
C92 C93 1.310 . S
C92 C95 1.461 . S
C92 H112 0.932 . S
C93 C91 1.408 . S
C93 C92 1.310 . S
C93 H113 0.930 . S
C94 C95 1.474 . S
C94 C96 1.285 . S
C94 H114 0.929 . S
C95 C92 1.461 . S
C95 C94 1.474 . S
C96 C91 1.342 . S
C96 C94 1.285 . S
C96 H115 0.930 . S
C97 C100 1.424 . S
C97 C102 1.245 . S
C97 C103 1.428 . S
C98 C101 1.260 . S
C98 C102 1.477 . S
C98 H116 0.932 . S
C99 C100 1.384 . S
C99 C101 1.479 . S
C99 H117 0.929 . S
C100 C97 1.424 . S
C100 C99 1.384 . S
C100 H118 0.928 . S
C101 C98 1.260 . S
C101 C99 1.479 . S
C102 C97 1.245 . S
C102 C98 1.477 . S
C102 H119 0.932 . S
C103 U86 2.882 . S
C103 C97 1.428 . S
C103 O106 1.301 . S
C103 O107 1.282 . S
O104 U86 2.441 . S
O104 C90 1.249 . S
O105 U86 2.420 . S
O105 C90 1.202 . S
O106 U86 2.455 . S
O106 C103 1.301 . S
O107 U86 2.449 . S
O107 C103 1.282 . S
H108 C81 0.931 . S
H109 C83 0.929 . S
H110 C84 0.930 . S
H111 C85 0.931 . S
H112 C92 0.932 . S
H113 C93 0.930 . S
H114 C94 0.929 . S
H115 C96 0.930 . S
H116 C98 0.932 . S
H117 C99 0.929 . S
H118 C100 0.928 . S
H119 C102 0.932 . S
C120 C121 1.264 . S
C120 C125 1.479 1_455 S
C120 C130 1.465 . S
C121 C120 1.264 . S
C121 C123 1.333 1_455 S
C121 H148 0.931 . S
C122 C123 1.404 . S
C122 C124 1.320 . S
C123 C121 1.333 1_655 S
C123 C122 1.404 . S
C123 H149 0.925 1_655 S
C124 C122 1.320 . S
C124 C125 1.405 . S
C124 H150 0.930 . S
C125 C120 1.479 1_655 S
C125 C124 1.405 . S
C125 H151 0.931 . S
U126 O127 2.435 1_455 S
U126 O128 2.458 . S
U126 C129 2.999 . S
U126 C130 2.847 . S
U126 C143 2.882 . S
U126 O144 2.441 . S
U126 O145 2.420 . S
U126 O146 2.455 . S
U126 O147 2.449 . S
O127 U126 2.435 1_655 S
O127 C129 1.346 1_655 S
O128 U126 2.458 . S
O128 C129 1.304 . S
C129 U126 2.999 . S
C129 O127 1.346 1_455 S
C129 O128 1.304 . S
C129 C131 1.352 1_455 S
C130 C120 1.465 . S
C130 U126 2.847 . S
C130 O144 1.249 . S
C130 O145 1.202 . S
C131 C129 1.352 1_655 S
C131 C133 1.408 . S
C131 C136 1.342 . S
C132 C133 1.310 . S
C132 C135 1.461 . S
C132 H152 0.932 . S
C133 C131 1.408 . S
C133 C132 1.310 . S
C133 H153 0.930 . S
C134 C135 1.474 . S
C134 C136 1.285 . S
C134 H154 0.929 . S
C135 C132 1.461 . S
C135 C134 1.474 . S
C136 C131 1.342 . S
C136 C134 1.285 . S
C136 H155 0.934 . S
C137 C140 1.424 . S
C137 C142 1.245 . S
C137 C143 1.428 . S
C138 C141 1.260 . S
C138 C142 1.477 . S
C138 H156 0.932 . S
C139 C140 1.384 . S
C139 C141 1.479 . S
C139 H157 0.929 . S
C140 C137 1.424 . S
C140 C139 1.384 . S
C140 H158 0.928 . S
C141 C138 1.260 . S
C141 C139 1.479 . S
C142 C137 1.245 . S
C142 C138 1.477 . S
C142 H159 0.932 . S
C143 U126 2.882 . S
C143 C137 1.428 . S
C143 O146 1.301 . S
C143 O147 1.282 . S
O144 U126 2.441 . S
O144 C130 1.249 . S
O145 U126 2.420 . S
O145 C130 1.202 . S
O146 U126 2.455 . S
O146 C143 1.301 . S
O147 U126 2.449 . S
O147 C143 1.282 . S
H148 C121 0.931 . S
H149 C123 0.925 1_455 S
H150 C124 0.930 . S
H151 C125 0.931 . S
H152 C132 0.932 . S
H153 C133 0.930 . S
H154 C134 0.929 . S
H155 C136 0.934 . S
H156 C138 0.932 . S
H157 C139 0.929 . S
H158 C140 0.928 . S
H159 C142 0.932 . S
C160 C161 1.264 . S
C160 C165 1.479 1_565 S
C160 C170 1.465 . S
C161 C160 1.264 . S
C161 C163 1.333 1_565 S
C161 H188 0.931 . S
C162 C163 1.404 . S
C162 C164 1.320 . S
C163 C161 1.333 1_545 S
C163 C162 1.404 . S
C163 H189 0.925 1_545 S
C164 C162 1.320 . S
C164 C165 1.405 . S
C164 H190 0.930 . S
C165 C160 1.479 1_545 S
C165 C164 1.405 . S
C165 H191 0.931 . S
U166 O167 2.435 1_565 S
U166 O168 2.458 . S
U166 C169 2.999 . S
U166 C170 2.847 . S
U166 C183 2.882 . S
U166 O184 2.441 . S
U166 O185 2.420 . S
U166 O186 2.455 . S
U166 O187 2.449 . S
O167 U166 2.435 1_545 S
O167 C169 1.346 1_545 S
O168 U166 2.458 . S
O168 C169 1.304 . S
C169 U166 2.999 . S
C169 O167 1.346 1_565 S
C169 O168 1.304 . S
C169 C171 1.352 1_565 S
C170 C160 1.465 . S
C170 U166 2.847 . S
C170 O184 1.249 . S
C170 O185 1.202 . S
C171 C169 1.352 1_545 S
C171 C173 1.408 . S
C171 C176 1.342 . S
C172 C173 1.310 . S
C172 C175 1.461 . S
C172 H192 0.932 . S
C173 C171 1.408 . S
C173 C172 1.310 . S
C173 H193 0.930 . S
C174 C175 1.474 . S
C174 C176 1.285 . S
C174 H194 0.929 . S
C175 C172 1.461 . S
C175 C174 1.474 . S
C176 C171 1.342 . S
C176 C174 1.285 . S
C176 H195 0.934 . S
C177 C180 1.424 . S
C177 C182 1.245 . S
C177 C183 1.428 . S
C178 C181 1.260 . S
C178 C182 1.477 . S
C178 H196 0.932 . S
C179 C180 1.384 . S
C179 C181 1.479 . S
C179 H197 0.929 . S
C180 C177 1.424 . S
C180 C179 1.384 . S
C180 H198 0.928 . S
C181 C178 1.260 . S
C181 C179 1.479 . S
C182 C177 1.245 . S
C182 C178 1.477 . S
C182 H199 0.932 . S
C183 U166 2.882 . S
C183 C177 1.428 . S
C183 O186 1.301 . S
C183 O187 1.282 . S
O184 U166 2.441 . S
O184 C170 1.249 . S
O185 U166 2.420 . S
O185 C170 1.202 . S
O186 U166 2.455 . S
O186 C183 1.301 . S
O187 U166 2.449 . S
O187 C183 1.282 . S
H188 C161 0.931 . S
H189 C163 0.925 1_565 S
H190 C164 0.930 . S
H191 C165 0.931 . S
H192 C172 0.932 . S
H193 C173 0.930 . S
H194 C174 0.929 . S
H195 C176 0.934 . S
H196 C178 0.932 . S
H197 C179 0.929 . S
H198 C180 0.928 . S
H199 C182 0.932 . S
C200 C201 1.264 . S
C200 C205 1.479 . S
C200 C210 1.465 . S
C201 C200 1.264 . S
C201 C203 1.339 . S
C201 H228 0.931 . S
C202 C203 1.395 . S
C202 C204 1.320 . S
C203 C201 1.339 . S
C203 C202 1.395 . S
C203 H229 0.929 . S
C204 C202 1.320 . S
C204 C205 1.405 . S
C204 H230 0.930 . S
C205 C200 1.479 . S
C205 C204 1.405 . S
C205 H231 0.931 . S
U206 O207 2.454 . S
U206 O208 2.458 . S
U206 C209 2.984 . S
U206 C210 2.847 . S
U206 C223 2.882 . S
U206 O224 2.441 . S
U206 O225 2.420 . S
U206 O226 2.455 . S
U206 O227 2.449 . S
O207 U206 2.454 . S
O207 C209 1.353 . S
O208 U206 2.458 . S
O208 C209 1.286 . S
C209 U206 2.984 . S
C209 O207 1.353 . S
C209 O208 1.286 . S
C209 C211 1.363 . S
C210 C200 1.465 . S
C210 U206 2.847 . S
C210 O224 1.249 . S
C210 O225 1.202 . S
C211 C209 1.363 . S
C211 C213 1.408 . S
C211 C216 1.342 . S
C212 C213 1.310 . S
C212 C215 1.461 . S
C212 H232 0.932 . S
C213 C211 1.408 . S
C213 C212 1.310 . S
C213 H233 0.930 . S
C214 C215 1.474 . S
C214 C216 1.285 . S
C214 H234 0.929 . S
C215 C212 1.461 . S
C215 C214 1.474 . S
C216 C211 1.342 . S
C216 C214 1.285 . S
C216 H235 0.930 . S
C217 C220 1.424 . S
C217 C222 1.245 . S
C217 C223 1.428 . S
C218 C221 1.260 . S
C218 C222 1.477 . S
C218 H236 0.932 . S
C219 C220 1.384 . S
C219 C221 1.479 . S
C219 H237 0.929 . S
C220 C217 1.424 . S
C220 C219 1.384 . S
C220 H238 0.928 . S
C221 C218 1.260 . S
C221 C219 1.479 . S
C222 C217 1.245 . S
C222 C218 1.477 . S
C222 H239 0.932 . S
C223 U206 2.882 . S
C223 C217 1.428 . S
C223 O226 1.301 . S
C223 O227 1.282 . S
O224 U206 2.441 . S
O224 C210 1.249 . S
O225 U206 2.420 . S
O225 C210 1.202 . S
O226 U206 2.455 . S
O226 C223 1.301 . S
O227 U206 2.449 . S
O227 C223 1.282 . S
H228 C201 0.931 . S
H229 C203 0.929 . S
H230 C204 0.930 . S
H231 C205 0.931 . S
H232 C212 0.932 . S
H233 C213 0.930 . S
H234 C214 0.929 . S
H235 C216 0.930 . S
H236 C218 0.932 . S
H237 C219 0.929 . S
H238 C220 0.928 . S
H239 C222 0.932 . S
C240 C241 1.264 . S
C240 C245 1.479 . S
C240 C250 1.465 . S
C241 C240 1.264 . S
C241 C243 1.339 . S
C241 H268 0.931 . S
C242 C243 1.395 . S
C242 C244 1.320 . S
C243 C241 1.339 . S
C243 C242 1.395 . S
C243 H269 0.929 . S
C244 C242 1.320 . S
C244 C245 1.405 . S
C244 H270 0.930 . S
C245 C240 1.479 . S
C245 C244 1.405 . S
C245 H271 0.931 . S
U246 O247 2.454 . S
U246 O248 2.458 . S
U246 C249 2.984 . S
U246 C250 2.847 . S
U246 C263 2.882 . S
U246 O264 2.441 . S
U246 O265 2.420 . S
U246 O266 2.455 . S
U246 O267 2.449 . S
O247 U246 2.454 . S
O247 C249 1.353 . S
O248 U246 2.458 . S
O248 C249 1.286 . S
C249 U246 2.984 . S
C249 O247 1.353 . S
C249 O248 1.286 . S
C249 C251 1.363 . S
C250 C240 1.465 . S
C250 U246 2.847 . S
C250 O264 1.249 . S
C250 O265 1.202 . S
C251 C249 1.363 . S
C251 C253 1.408 . S
C251 C256 1.342 . S
C252 C253 1.310 . S
C252 C255 1.461 . S
C252 H272 0.932 . S
C253 C251 1.408 . S
C253 C252 1.310 . S
C253 H273 0.930 . S
C254 C255 1.474 . S
C254 C256 1.285 . S
C254 H274 0.929 . S
C255 C252 1.461 . S
C255 C254 1.474 . S
C256 C251 1.342 . S
C256 C254 1.285 . S
C256 H275 0.930 . S
C257 C260 1.424 . S
C257 C262 1.245 . S
C257 C263 1.428 . S
C258 C261 1.260 . S
C258 C262 1.477 . S
C258 H276 0.932 . S
C259 C260 1.384 . S
C259 C261 1.479 . S
C259 H277 0.929 . S
C260 C257 1.424 . S
C260 C259 1.384 . S
C260 H278 0.928 . S
C261 C258 1.260 . S
C261 C259 1.479 . S
C262 C257 1.245 . S
C262 C258 1.477 . S
C262 H279 0.932 . S
C263 U246 2.882 . S
C263 C257 1.428 . S
C263 O266 1.301 . S
C263 O267 1.282 . S
O264 U246 2.441 . S
O264 C250 1.249 . S
O265 U246 2.420 . S
O265 C250 1.202 . S
O266 U246 2.455 . S
O266 C263 1.301 . S
O267 U246 2.449 . S
O267 C263 1.282 . S
H268 C241 0.931 . S
H269 C243 0.929 . S
H270 C244 0.930 . S
H271 C245 0.931 . S
H272 C252 0.932 . S
H273 C253 0.930 . S
H274 C254 0.929 . S
H275 C256 0.930 . S
H276 C258 0.932 . S
H277 C259 0.929 . S
H278 C260 0.928 . S
H279 C262 0.932 . S
C280 C281 1.264 . S
C280 C285 1.479 1_655 S
C280 C290 1.465 . S
C281 C280 1.264 . S
C281 C283 1.338 1_655 S
C281 H308 0.931 . S
C282 C283 1.396 . S
C282 C284 1.320 . S
C283 C281 1.338 1_455 S
C283 C282 1.396 . S
C283 H309 0.928 1_455 S
C284 C282 1.320 . S
C284 C285 1.405 . S
C284 H310 0.930 . S
C285 C280 1.479 1_455 S
C285 C284 1.405 . S
C285 H311 0.931 . S
U286 O287 2.440 1_655 S
U286 O288 2.458 . S
U286 C289 2.984 . S
U286 C290 2.847 . S
U286 C303 2.882 . S
U286 O304 2.441 . S
U286 O305 2.420 . S
U286 O306 2.455 . S
U286 O307 2.449 . S
O287 U286 2.440 1_455 S
O287 C289 1.351 1_455 S
O288 U286 2.458 . S
O288 C289 1.286 . S
C289 U286 2.984 . S
C289 O287 1.351 1_655 S
C289 O288 1.286 . S
C289 C291 1.363 1_655 S
C290 C280 1.465 . S
C290 U286 2.847 . S
C290 O304 1.249 . S
C290 O305 1.202 . S
C291 C289 1.363 1_455 S
C291 C293 1.408 . S
C291 C296 1.342 . S
C292 C293 1.310 . S
C292 C295 1.461 . S
C292 H312 0.932 . S
C293 C291 1.408 . S
C293 C292 1.310 . S
C293 H313 0.930 . S
C294 C295 1.474 . S
C294 C296 1.285 . S
C294 H314 0.929 . S
C295 C292 1.461 . S
C295 C294 1.474 . S
C296 C291 1.342 . S
C296 C294 1.285 . S
C296 H315 0.933 . S
C297 C300 1.424 . S
C297 C302 1.245 . S
C297 C303 1.428 . S
C298 C301 1.260 . S
C298 C302 1.477 . S
C298 H316 0.932 . S
C299 C300 1.384 . S
C299 C301 1.479 . S
C299 H317 0.929 . S
C300 C297 1.424 . S
C300 C299 1.384 . S
C300 H318 0.928 . S
C301 C298 1.260 . S
C301 C299 1.479 . S
C302 C297 1.245 . S
C302 C298 1.477 . S
C302 H319 0.932 . S
C303 U286 2.882 . S
C303 C297 1.428 . S
C303 O306 1.301 . S
C303 O307 1.282 . S
O304 U286 2.441 . S
O304 C290 1.249 . S
O305 U286 2.420 . S
O305 C290 1.202 . S
O306 U286 2.455 . S
O306 C303 1.301 . S
O307 U286 2.449 . S
O307 C303 1.282 . S
H308 C281 0.931 . S
H309 C283 0.928 1_655 S
H310 C284 0.930 . S
H311 C285 0.931 . S
H312 C292 0.932 . S
H313 C293 0.930 . S
H314 C294 0.929 . S
H315 C296 0.933 . S
H316 C298 0.932 . S
H317 C299 0.929 . S
H318 C300 0.928 . S
H319 C302 0.932 . S
C320 C321 1.264 . S
C320 C325 1.479 . S
C320 C330 1.465 . S
C321 C320 1.264 . S
C321 C323 1.339 . S
C321 H348 0.931 . S
C322 C323 1.395 . S
C322 C324 1.320 . S
C323 C321 1.339 . S
C323 C322 1.395 . S
C323 H349 0.929 . S
C324 C322 1.320 . S
C324 C325 1.405 . S
C324 H350 0.930 . S
C325 C320 1.479 . S
C325 C324 1.405 . S
C325 H351 0.931 . S
U326 O327 2.454 . S
U326 O328 2.458 . S
U326 C329 2.984 . S
U326 C330 2.847 . S
U326 C343 2.882 . S
U326 O344 2.441 . S
U326 O345 2.420 . S
U326 O346 2.455 . S
U326 O347 2.449 . S
O327 U326 2.454 . S
O327 C329 1.353 . S
O328 U326 2.458 . S
O328 C329 1.286 . S
C329 U326 2.984 . S
C329 O327 1.353 . S
C329 O328 1.286 . S
C329 C331 1.363 . S
C330 C320 1.465 . S
C330 U326 2.847 . S
C330 O344 1.249 . S
C330 O345 1.202 . S
C331 C329 1.363 . S
C331 C333 1.408 . S
C331 C336 1.342 . S
C332 C333 1.310 . S
C332 C335 1.461 . S
C332 H352 0.932 . S
C333 C331 1.408 . S
C333 C332 1.310 . S
C333 H353 0.930 . S
C334 C335 1.474 . S
C334 C336 1.285 . S
C334 H354 0.929 . S
C335 C332 1.461 . S
C335 C334 1.474 . S
C336 C331 1.342 . S
C336 C334 1.285 . S
C336 H355 0.930 . S
C337 C340 1.424 . S
C337 C342 1.245 . S
C337 C343 1.428 1_565 S
C338 C341 1.260 . S
C338 C342 1.477 . S
C338 H356 0.932 . S
C339 C340 1.384 . S
C339 C341 1.479 . S
C339 H357 0.929 . S
C340 C337 1.424 . S
C340 C339 1.384 . S
C340 H358 0.928 . S
C341 C338 1.260 . S
C341 C339 1.479 . S
C342 C337 1.245 . S
C342 C338 1.477 . S
C342 H359 0.932 . S
C343 U326 2.882 . S
C343 C337 1.428 1_545 S
C343 O346 1.301 . S
C343 O347 1.282 . S
O344 U326 2.441 . S
O344 C330 1.249 . S
O345 U326 2.420 . S
O345 C330 1.202 . S
O346 U326 2.455 . S
O346 C343 1.301 . S
O347 U326 2.449 . S
O347 C343 1.282 . S
H348 C321 0.931 . S
H349 C323 0.929 . S
H350 C324 0.930 . S
H351 C325 0.931 . S
H352 C332 0.932 . S
H353 C333 0.930 . S
H354 C334 0.929 . S
H355 C336 0.930 . S
H356 C338 0.932 . S
H357 C339 0.929 . S
H358 C340 0.928 . S
H359 C342 0.932 . S
C360 C361 1.264 . S
C360 C365 1.479 . S
C360 C370 1.465 . S
C361 C360 1.264 . S
C361 C363 1.339 . S
C361 H388 0.931 . S
C362 C363 1.395 . S
C362 C364 1.320 . S
C363 C361 1.339 . S
C363 C362 1.395 . S
C363 H389 0.929 . S
C364 C362 1.320 . S
C364 C365 1.405 . S
C364 H390 0.930 . S
C365 C360 1.479 . S
C365 C364 1.405 . S
C365 H391 0.931 . S
U366 O367 2.454 . S
U366 O368 2.458 . S
U366 C369 2.984 . S
U366 C370 2.847 . S
U366 C383 2.882 . S
U366 O384 2.441 . S
U366 O385 2.420 . S
U366 O386 2.455 . S
U366 O387 2.449 . S
O367 U366 2.454 . S
O367 C369 1.353 . S
O368 U366 2.458 . S
O368 C369 1.286 . S
C369 U366 2.984 . S
C369 O367 1.353 . S
C369 O368 1.286 . S
C369 C371 1.363 . S
C370 C360 1.465 . S
C370 U366 2.847 . S
C370 O384 1.249 . S
C370 O385 1.202 . S
C371 C369 1.363 . S
C371 C373 1.408 . S
C371 C376 1.342 . S
C372 C373 1.310 . S
C372 C375 1.461 . S
C372 H392 0.932 . S
C373 C371 1.408 . S
C373 C372 1.310 . S
C373 H393 0.930 . S
C374 C375 1.474 . S
C374 C376 1.285 . S
C374 H394 0.929 . S
C375 C372 1.461 . S
C375 C374 1.474 . S
C376 C371 1.342 . S
C376 C374 1.285 . S
C376 H395 0.930 . S
C377 C380 1.424 . S
C377 C382 1.245 . S
C377 C383 1.428 . S
C378 C381 1.260 . S
C378 C382 1.477 . S
C378 H396 0.932 . S
C379 C380 1.384 . S
C379 C381 1.479 . S
C379 H397 0.929 . S
C380 C377 1.424 . S
C380 C379 1.384 . S
C380 H398 0.928 . S
C381 C378 1.260 . S
C381 C379 1.479 . S
C382 C377 1.245 . S
C382 C378 1.477 . S
C382 H399 0.932 . S
C383 U366 2.882 . S
C383 C377 1.428 . S
C383 O386 1.301 . S
C383 O387 1.282 . S
O384 U366 2.441 . S
O384 C370 1.249 . S
O385 U366 2.420 . S
O385 C370 1.202 . S
O386 U366 2.455 . S
O386 C383 1.301 . S
O387 U366 2.449 . S
O387 C383 1.282 . S
H388 C361 0.931 . S
H389 C363 0.929 . S
H390 C364 0.930 . S
H391 C365 0.931 . S
H392 C372 0.932 . S
H393 C373 0.930 . S
H394 C374 0.929 . S
H395 C376 0.930 . S
H396 C378 0.932 . S
H397 C379 0.929 . S
H398 C380 0.928 . S
H399 C382 0.932 . S
C400 C401 1.264 . S
C400 C405 1.479 . S
C400 C410 1.465 . S
C401 C400 1.264 . S
C401 C403 1.339 . S
C401 H428 0.931 . S
C402 C403 1.395 . S
C402 C404 1.320 . S
C403 C401 1.339 . S
C403 C402 1.395 . S
C403 H429 0.929 . S
C404 C402 1.320 . S
C404 C405 1.405 . S
C404 H430 0.930 . S
C405 C400 1.479 . S
C405 C404 1.405 . S
C405 H431 0.931 . S
U406 O407 2.454 . S
U406 O408 2.458 . S
U406 C409 2.984 . S
U406 C410 2.847 . S
U406 C423 2.882 . S
U406 O424 2.441 . S
U406 O425 2.420 . S
U406 O426 2.455 . S
U406 O427 2.449 . S
O407 U406 2.454 . S
O407 C409 1.353 . S
O408 U406 2.458 . S
O408 C409 1.286 . S
C409 U406 2.984 . S
C409 O407 1.353 . S
C409 O408 1.286 . S
C409 C411 1.363 . S
C410 C400 1.465 . S
C410 U406 2.847 . S
C410 O424 1.249 . S
C410 O425 1.202 . S
C411 C409 1.363 . S
C411 C413 1.408 . S
C411 C416 1.342 . S
C412 C413 1.310 . S
C412 C415 1.461 . S
C412 H432 0.932 . S
C413 C411 1.408 . S
C413 C412 1.310 . S
C413 H433 0.930 . S
C414 C415 1.474 . S
C414 C416 1.285 . S
C414 H434 0.929 . S
C415 C412 1.461 . S
C415 C414 1.474 . S
C416 C411 1.342 . S
C416 C414 1.285 . S
C416 H435 0.930 . S
C417 C420 1.424 . S
C417 C422 1.245 . S
C417 C423 1.428 . S
C418 C421 1.260 . S
C418 C422 1.477 . S
C418 H436 0.932 . S
C419 C420 1.384 . S
C419 C421 1.479 . S
C419 H437 0.929 . S
C420 C417 1.424 . S
C420 C419 1.384 . S
C420 H438 0.928 . S
C421 C418 1.260 . S
C421 C419 1.479 . S
C422 C417 1.245 . S
C422 C418 1.477 . S
C422 H439 0.932 . S
C423 U406 2.882 . S
C423 C417 1.428 . S
C423 O426 1.301 . S
C423 O427 1.282 . S
O424 U406 2.441 . S
O424 C410 1.249 . S
O425 U406 2.420 . S
O425 C410 1.202 . S
O426 U406 2.455 . S
O426 C423 1.301 . S
O427 U406 2.449 . S
O427 C423 1.282 . S
H428 C401 0.931 . S
H429 C403 0.929 . S
H430 C404 0.930 . S
H431 C405 0.931 . S
H432 C412 0.932 . S
H433 C413 0.930 . S
H434 C414 0.929 . S
H435 C416 0.930 . S
H436 C418 0.932 . S
H437 C419 0.929 . S
H438 C420 0.928 . S
H439 C422 0.932 . S
C440 C441 1.264 . S
C440 C445 1.479 . S
C440 C450 1.465 . S
C441 C440 1.264 . S
C441 C443 1.339 . S
C441 H468 0.931 . S
C442 C443 1.395 . S
C442 C444 1.320 . S
C443 C441 1.339 . S
C443 C442 1.395 . S
C443 H469 0.929 . S
C444 C442 1.320 . S
C444 C445 1.405 . S
C444 H470 0.930 . S
C445 C440 1.479 . S
C445 C444 1.405 . S
C445 H471 0.931 . S
U446 O447 2.454 . S
U446 O448 2.458 . S
U446 C449 2.984 . S
U446 C450 2.847 . S
U446 C463 2.882 . S
U446 O464 2.441 . S
U446 O465 2.420 . S
U446 O466 2.455 . S
U446 O467 2.449 . S
O447 U446 2.454 . S
O447 C449 1.353 . S
O448 U446 2.458 . S
O448 C449 1.286 . S
C449 U446 2.984 . S
C449 O447 1.353 . S
C449 O448 1.286 . S
C449 C451 1.363 . S
C450 C440 1.465 . S
C450 U446 2.847 . S
C450 O464 1.249 . S
C450 O465 1.202 . S
C451 C449 1.363 . S
C451 C453 1.408 . S
C451 C456 1.342 . S
C452 C453 1.310 . S
C452 C455 1.461 . S
C452 H472 0.932 . S
C453 C451 1.408 . S
C453 C452 1.310 . S
C453 H473 0.930 . S
C454 C455 1.474 . S
C454 C456 1.285 . S
C454 H474 0.929 . S
C455 C452 1.461 . S
C455 C454 1.474 . S
C456 C451 1.342 . S
C456 C454 1.285 . S
C456 H475 0.930 . S
C457 C460 1.424 . S
C457 C462 1.245 . S
C457 C463 1.428 1_655 S
C458 C461 1.260 . S
C458 C462 1.477 . S
C458 H476 0.932 . S
C459 C460 1.384 . S
C459 C461 1.479 . S
C459 H477 0.929 . S
C460 C457 1.424 . S
C460 C459 1.384 . S
C460 H478 0.928 . S
C461 C458 1.260 . S
C461 C459 1.479 . S
C462 C457 1.245 . S
C462 C458 1.477 . S
C462 H479 0.932 . S
C463 U446 2.882 . S
C463 C457 1.428 1_455 S
C463 O466 1.301 . S
C463 O467 1.282 . S
O464 U446 2.441 . S
O464 C450 1.249 . S
O465 U446 2.420 . S
O465 C450 1.202 . S
O466 U446 2.455 . S
O466 C463 1.301 . S
O467 U446 2.449 . S
O467 C463 1.282 . S
H468 C441 0.931 . S
H469 C443 0.929 . S
H470 C444 0.930 . S
H471 C445 0.931 . S
H472 C452 0.932 . S
H473 C453 0.930 . S
H474 C454 0.929 . S
H475 C456 0.930 . S
H476 C458 0.932 . S
H477 C459 0.929 . S
H478 C460 0.928 . S
H479 C462 0.932 . S
C480 C481 1.264 . S
C480 C485 1.479 . S
C480 C490 1.465 . S
C481 C480 1.264 . S
C481 C483 1.339 . S
C481 H508 0.931 . S
C482 C483 1.395 . S
C482 C484 1.320 . S
C483 C481 1.339 . S
C483 C482 1.395 . S
C483 H509 0.929 . S
C484 C482 1.320 . S
C484 C485 1.405 . S
C484 H510 0.930 . S
C485 C480 1.479 . S
C485 C484 1.405 . S
C485 H511 0.931 . S
U486 O487 2.454 . S
U486 O488 2.458 . S
U486 C489 2.984 . S
U486 C490 2.847 . S
U486 C503 2.882 . S
U486 O504 2.441 . S
U486 O505 2.420 . S
U486 O506 2.455 . S
U486 O507 2.449 . S
O487 U486 2.454 . S
O487 C489 1.353 . S
O488 U486 2.458 . S
O488 C489 1.286 . S
C489 U486 2.984 . S
C489 O487 1.353 . S
C489 O488 1.286 . S
C489 C491 1.363 . S
C490 C480 1.465 . S
C490 U486 2.847 . S
C490 O504 1.249 . S
C490 O505 1.202 . S
C491 C489 1.363 . S
C491 C493 1.408 . S
C491 C496 1.342 . S
C492 C493 1.310 . S
C492 C495 1.461 . S
C492 H512 0.932 . S
C493 C491 1.408 . S
C493 C492 1.310 . S
C493 H513 0.930 . S
C494 C495 1.474 . S
C494 C496 1.285 . S
C494 H514 0.929 . S
C495 C492 1.461 . S
C495 C494 1.474 . S
C496 C491 1.342 . S
C496 C494 1.285 . S
C496 H515 0.930 . S
C497 C500 1.424 . S
C497 C502 1.245 . S
C497 C503 1.428 1_545 S
C498 C501 1.260 . S
C498 C502 1.477 . S
C498 H516 0.932 . S
C499 C500 1.384 . S
C499 C501 1.479 . S
C499 H517 0.929 . S
C500 C497 1.424 . S
C500 C499 1.384 . S
C500 H518 0.928 . S
C501 C498 1.260 . S
C501 C499 1.479 . S
C502 C497 1.245 . S
C502 C498 1.477 . S
C502 H519 0.932 . S
C503 U486 2.882 . S
C503 C497 1.428 1_565 S
C503 O506 1.301 . S
C503 O507 1.282 . S
O504 U486 2.441 . S
O504 C490 1.249 . S
O505 U486 2.420 . S
O505 C490 1.202 . S
O506 U486 2.455 . S
O506 C503 1.301 . S
O507 U486 2.449 . S
O507 C503 1.282 . S
H508 C481 0.931 . S
H509 C483 0.929 . S
H510 C484 0.930 . S
H511 C485 0.931 . S
H512 C492 0.932 . S
H513 C493 0.930 . S
H514 C494 0.929 . S
H515 C496 0.930 . S
H516 C498 0.932 . S
H517 C499 0.929 . S
H518 C500 0.928 . S
H519 C502 0.932 . S
C520 C521 1.264 . S
C520 C525 1.479 . S
C520 C530 1.465 . S
C521 C520 1.264 . S
C521 C523 1.339 . S
C521 H548 0.931 . S
C522 C523 1.395 . S
C522 C524 1.320 . S
C523 C521 1.339 . S
C523 C522 1.395 . S
C523 H549 0.929 . S
C524 C522 1.320 . S
C524 C525 1.405 . S
C524 H550 0.930 . S
C525 C520 1.479 . S
C525 C524 1.405 . S
C525 H551 0.931 . S
U526 O527 2.454 . S
U526 O528 2.458 . S
U526 C529 2.984 . S
U526 C530 2.847 . S
U526 C543 2.882 . S
U526 O544 2.441 . S
U526 O545 2.420 . S
U526 O546 2.455 . S
U526 O547 2.449 . S
O527 U526 2.454 . S
O527 C529 1.353 . S
O528 U526 2.458 . S
O528 C529 1.286 . S
C529 U526 2.984 . S
C529 O527 1.353 . S
C529 O528 1.286 . S
C529 C531 1.363 . S
C530 C520 1.465 . S
C530 U526 2.847 . S
C530 O544 1.249 . S
C530 O545 1.202 . S
C531 C529 1.363 . S
C531 C533 1.408 . S
C531 C536 1.342 . S
C532 C533 1.310 . S
C532 C535 1.461 . S
C532 H552 0.932 . S
C533 C531 1.408 . S
C533 C532 1.310 . S
C533 H553 0.930 . S
C534 C535 1.474 . S
C534 C536 1.285 . S
C534 H554 0.929 . S
C535 C532 1.461 . S
C535 C534 1.474 . S
C536 C531 1.342 . S
C536 C534 1.285 . S
C536 H555 0.930 . S
C537 C540 1.424 . S
C537 C542 1.245 . S
C537 C543 1.428 . S
C538 C541 1.260 . S
C538 C542 1.477 . S
C538 H556 0.932 . S
C539 C540 1.384 . S
C539 C541 1.479 . S
C539 H557 0.929 . S
C540 C537 1.424 . S
C540 C539 1.384 . S
C540 H558 0.928 . S
C541 C538 1.260 . S
C541 C539 1.479 . S
C542 C537 1.245 . S
C542 C538 1.477 . S
C542 H559 0.932 . S
C543 U526 2.882 . S
C543 C537 1.428 . S
C543 O546 1.301 . S
C543 O547 1.282 . S
O544 U526 2.441 . S
O544 C530 1.249 . S
O545 U526 2.420 . S
O545 C530 1.202 . S
O546 U526 2.455 . S
O546 C543 1.301 . S
O547 U526 2.449 . S
O547 C543 1.282 . S
H548 C521 0.931 . S
H549 C523 0.929 . S
H550 C524 0.930 . S
H551 C525 0.931 . S
H552 C532 0.932 . S
H553 C533 0.930 . S
H554 C534 0.929 . S
H555 C536 0.930 . S
H556 C538 0.932 . S
H557 C539 0.929 . S
H558 C540 0.928 . S
H559 C542 0.932 . S
C560 C561 1.264 . S
C560 C565 1.479 . S
C560 C570 1.465 . S
C561 C560 1.264 . S
C561 C563 1.339 . S
C561 H588 0.931 . S
C562 C563 1.395 . S
C562 C564 1.320 . S
C563 C561 1.339 . S
C563 C562 1.395 . S
C563 H589 0.929 . S
C564 C562 1.320 . S
C564 C565 1.405 . S
C564 H590 0.930 . S
C565 C560 1.479 . S
C565 C564 1.405 . S
C565 H591 0.931 . S
U566 O567 2.454 . S
U566 O568 2.458 . S
U566 C569 2.984 . S
U566 C570 2.847 . S
U566 C583 2.882 . S
U566 O584 2.441 . S
U566 O585 2.420 . S
U566 O586 2.455 . S
U566 O587 2.449 . S
O567 U566 2.454 . S
O567 C569 1.353 . S
O568 U566 2.458 . S
O568 C569 1.286 . S
C569 U566 2.984 . S
C569 O567 1.353 . S
C569 O568 1.286 . S
C569 C571 1.363 . S
C570 C560 1.465 . S
C570 U566 2.847 . S
C570 O584 1.249 . S
C570 O585 1.202 . S
C571 C569 1.363 . S
C571 C573 1.408 . S
C571 C576 1.342 . S
C572 C573 1.310 . S
C572 C575 1.461 . S
C572 H592 0.932 . S
C573 C571 1.408 . S
C573 C572 1.310 . S
C573 H593 0.930 . S
C574 C575 1.474 . S
C574 C576 1.285 . S
C574 H594 0.929 . S
C575 C572 1.461 . S
C575 C574 1.474 . S
C576 C571 1.342 . S
C576 C574 1.285 . S
C576 H595 0.930 . S
C577 C580 1.424 . S
C577 C582 1.245 . S
C577 C583 1.428 . S
C578 C581 1.260 . S
C578 C582 1.477 . S
C578 H596 0.932 . S
C579 C580 1.384 . S
C579 C581 1.479 . S
C579 H597 0.929 . S
C580 C577 1.424 . S
C580 C579 1.384 . S
C580 H598 0.928 . S
C581 C578 1.260 . S
C581 C579 1.479 . S
C582 C577 1.245 . S
C582 C578 1.477 . S
C582 H599 0.932 . S
C583 U566 2.882 . S
C583 C577 1.428 . S
C583 O586 1.301 . S
C583 O587 1.282 . S
O584 U566 2.441 . S
O584 C570 1.249 . S
O585 U566 2.420 . S
O585 C570 1.202 . S
O586 U566 2.455 . S
O586 C583 1.301 . S
O587 U566 2.449 . S
O587 C583 1.282 . S
H588 C561 0.931 . S
H589 C563 0.929 . S
H590 C564 0.930 . S
H591 C565 0.931 . S
H592 C572 0.932 . S
H593 C573 0.930 . S
H594 C574 0.929 . S
H595 C576 0.930 . S
H596 C578 0.932 . S
H597 C579 0.929 . S
H598 C580 0.928 . S
H599 C582 0.932 . S
C600 C601 1.264 . S
C600 C605 1.479 . S
C600 C610 1.465 . S
C601 C600 1.264 . S
C601 C603 1.339 . S
C601 H628 0.931 . S
C602 C603 1.395 . S
C602 C604 1.320 . S
C603 C601 1.339 . S
C603 C602 1.395 . S
C603 H629 0.929 . S
C604 C602 1.320 . S
C604 C605 1.405 . S
C604 H630 0.930 . S
C605 C600 1.479 . S
C605 C604 1.405 . S
C605 H631 0.931 . S
U606 O607 2.454 . S
U606 O608 2.458 . S
U606 C609 2.984 . S
U606 C610 2.847 . S
U606 C623 2.882 . S
U606 O624 2.441 . S
U606 O625 2.420 . S
U606 O626 2.455 . S
U606 O627 2.449 . S
O607 U606 2.454 . S
O607 C609 1.353 . S
O608 U606 2.458 . S
O608 C609 1.286 . S
C609 U606 2.984 . S
C609 O607 1.353 . S
C609 O608 1.286 . S
C609 C611 1.363 . S
C610 C600 1.465 . S
C610 U606 2.847 . S
C610 O624 1.249 . S
C610 O625 1.202 . S
C611 C609 1.363 . S
C611 C613 1.408 . S
C611 C616 1.342 . S
C612 C613 1.310 . S
C612 C615 1.461 . S
C612 H632 0.932 . S
C613 C611 1.408 . S
C613 C612 1.310 . S
C613 H633 0.930 . S
C614 C615 1.474 . S
C614 C616 1.285 . S
C614 H634 0.929 . S
C615 C612 1.461 . S
C615 C614 1.474 . S
C616 C611 1.342 . S
C616 C614 1.285 . S
C616 H635 0.930 . S
C617 C620 1.424 . S
C617 C622 1.245 . S
C617 C623 1.428 1_455 S
C618 C621 1.260 . S
C618 C622 1.477 . S
C618 H636 0.932 . S
C619 C620 1.384 . S
C619 C621 1.479 . S
C619 H637 0.929 . S
C620 C617 1.424 . S
C620 C619 1.384 . S
C620 H638 0.928 . S
C621 C618 1.260 . S
C621 C619 1.479 . S
C622 C617 1.245 . S
C622 C618 1.477 . S
C622 H639 0.932 . S
C623 U606 2.882 . S
C623 C617 1.428 1_655 S
C623 O626 1.301 . S
C623 O627 1.282 . S
O624 U606 2.441 . S
O624 C610 1.249 . S
O625 U606 2.420 . S
O625 C610 1.202 . S
O626 U606 2.455 . S
O626 C623 1.301 . S
O627 U606 2.449 . S
O627 C623 1.282 . S
H628 C601 0.931 . S
H629 C603 0.929 . S
H630 C604 0.930 . S
H631 C605 0.931 . S
H632 C612 0.932 . S
H633 C613 0.930 . S
H634 C614 0.929 . S
H635 C616 0.930 . S
H636 C618 0.932 . S
H637 C619 0.929 . S
H638 C620 0.928 . S
H639 C622 0.932 . S
H640 C646 0.930 . S
H641 C650 0.930 . S
H642 C655 0.929 . S
H643 C653 0.929 . S
H644 C648 0.935 . S
H645 C654 0.932 . S
C646 H640 0.930 . S
C646 C647 1.367 . S
C646 C654 1.378 . S
C647 C646 1.367 . S
C647 C655 1.433 . S
C648 H644 0.935 . S
C648 C650 1.378 . S
C648 C652 1.350 . S
C649 C652 1.463 1_546 S
C649 C654 1.350 . S
C649 N657 1.427 . S
C650 H641 0.930 . S
C650 C648 1.378 . S
C650 C651 1.367 . S
C651 C650 1.367 . S
C651 C653 1.433 . S
C652 C648 1.350 . S
C652 C649 1.463 1_564 S
C652 N656 1.427 . S
C653 H643 0.929 . S
C653 C651 1.433 . S
C653 N656 1.384 . S
C654 H645 0.932 . S
C654 C646 1.378 . S
C654 C649 1.350 . S
C655 H642 0.929 . S
C655 C647 1.433 . S
C655 N657 1.384 . S
N656 C652 1.427 . S
N656 C653 1.384 . S
N657 C649 1.427 . S
N657 C655 1.384 . S
H658 C664 0.930 . S
H659 C668 0.930 . S
H660 C673 0.929 . S
H661 C671 0.929 . S
H662 C666 0.929 . S
H663 C672 0.929 . S
C664 H658 0.930 . S
C664 C665 1.367 . S
C664 C672 1.378 . S
C665 C664 1.367 . S
C665 C673 1.433 . S
C666 H662 0.929 . S
C666 C668 1.378 . S
C666 C670 1.350 . S
C667 C670 1.463 . S
C667 C672 1.350 . S
C667 N675 1.427 . S
C668 H659 0.930 . S
C668 C666 1.378 . S
C668 C669 1.367 . S
C669 C668 1.367 . S
C669 C671 1.433 . S
C670 C666 1.350 . S
C670 C667 1.463 . S
C670 N674 1.427 . S
C671 H661 0.929 . S
C671 C669 1.433 . S
C671 N674 1.384 . S
C672 H663 0.929 . S
C672 C664 1.378 . S
C672 C667 1.350 . S
C673 H660 0.929 . S
C673 C665 1.433 . S
C673 N675 1.384 . S
N674 C670 1.427 . S
N674 C671 1.384 . S
N675 C667 1.427 . S
N675 C673 1.384 . S
H676 C682 0.930 . S
H677 C686 0.930 . S
H678 C691 0.929 . S
H679 C689 0.929 . S
H680 C684 0.929 . S
H681 C690 0.929 . S
C682 H676 0.930 . S
C682 C683 1.367 . S
C682 C690 1.378 . S
C683 C682 1.367 . S
C683 C691 1.433 . S
C684 H680 0.929 . S
C684 C686 1.378 . S
C684 C688 1.350 . S
C685 C688 1.463 1_456 S
C685 C690 1.350 . S
C685 N693 1.427 . S
C686 H677 0.930 . S
C686 C684 1.378 . S
C686 C687 1.367 . S
C687 C686 1.367 . S
C687 C689 1.433 . S
C688 C684 1.350 . S
C688 C685 1.463 1_654 S
C688 N692 1.427 . S
C689 H679 0.929 . S
C689 C687 1.433 . S
C689 N692 1.384 . S
C690 H681 0.929 . S
C690 C682 1.378 . S
C690 C685 1.350 . S
C691 H678 0.929 . S
C691 C683 1.433 . S
C691 N693 1.384 . S
N692 C688 1.427 . S
N692 C689 1.384 . S
N693 C685 1.427 . S
N693 C691 1.384 . S
H694 C700 0.930 . S
H695 C704 0.953 . S
H696 C709 0.929 . S
H697 C707 0.929 . S
H698 C702 0.927 . S
H699 C708 0.927 . S
C700 H694 0.930 . S
C700 C701 1.367 1_455 S
C700 C708 1.379 1_565 S
C701 C700 1.367 1_655 S
C701 C709 1.433 . S
C702 H698 0.927 . S
C702 C704 1.389 1_565 S
C702 C706 1.351 1_665 S
C703 C706 1.463 1_665 S
C703 C708 1.351 1_665 S
C703 N711 1.427 . S
C704 H695 0.953 . S
C704 C702 1.389 1_545 S
C704 C705 1.337 1_655 S
C705 C704 1.337 1_455 S
C705 C707 1.433 . S
C706 C702 1.351 1_445 S
C706 C703 1.463 1_445 S
C706 N710 1.427 . S
C707 H697 0.929 . S
C707 C705 1.433 . S
C707 N710 1.384 . S
C708 H699 0.927 . S
C708 C700 1.379 1_545 S
C708 C703 1.351 1_445 S
C709 H696 0.929 . S
C709 C701 1.433 . S
C709 N711 1.384 . S
N710 C706 1.427 . S
N710 C707 1.384 . S
N711 C703 1.427 . S
N711 C709 1.384 . S
H712 C718 0.930 . S
H713 C722 0.930 . S
H714 C727 0.929 . S
H715 C725 0.929 . S
H716 C720 0.929 . S
H717 C726 0.929 . S
C718 H712 0.930 . S
C718 C719 1.367 1_565 S
C718 C726 1.378 . S
C719 C718 1.367 1_545 S
C719 C727 1.433 . S
C720 H716 0.929 . S
C720 C722 1.378 . S
C720 C724 1.350 1_545 S
C721 C724 1.463 1_446 S
C721 C726 1.350 1_545 S
C721 N729 1.427 . S
C722 H713 0.930 . S
C722 C720 1.378 . S
C722 C723 1.367 1_545 S
C723 C722 1.367 1_565 S
C723 C725 1.433 . S
C724 C720 1.350 1_565 S
C724 C721 1.463 1_664 S
C724 N728 1.427 . S
C725 H715 0.929 . S
C725 C723 1.433 . S
C725 N728 1.384 . S
C726 H717 0.929 . S
C726 C718 1.378 . S
C726 C721 1.350 1_565 S
C727 H714 0.929 . S
C727 C719 1.433 . S
C727 N729 1.384 . S
N728 C724 1.427 . S
N728 C725 1.384 . S
N729 C721 1.427 . S
N729 C727 1.384 . S
H730 C736 0.930 1_545 S
H731 C740 0.930 1_565 S
H732 C745 0.929 . S
H733 C743 0.929 . S
H734 C738 0.929 . S
H735 C744 0.929 . S
C736 H730 0.930 1_565 S
C736 C737 1.367 . S
C736 C744 1.378 1_565 S
C737 C736 1.367 . S
C737 C745 1.433 . S
C738 H734 0.929 . S
C738 C740 1.378 1_565 S
C738 C742 1.350 1_565 S
C739 C742 1.463 1_565 S
C739 C744 1.350 1_565 S
C739 N747 1.427 . S
C740 H731 0.930 1_545 S
C740 C738 1.378 1_545 S
C740 C741 1.367 . S
C741 C740 1.367 . S
C741 C743 1.433 . S
C742 C738 1.350 1_545 S
C742 C739 1.463 1_545 S
C742 N746 1.427 . S
C743 H733 0.929 . S
C743 C741 1.433 . S
C743 N746 1.384 . S
C744 H735 0.929 . S
C744 C736 1.378 1_545 S
C744 C739 1.350 1_545 S
C745 H732 0.929 . S
C745 C737 1.433 . S
C745 N747 1.384 . S
N746 C742 1.427 . S
N746 C743 1.384 . S
N747 C739 1.427 . S
N747 C745 1.384 . S
H748 C754 0.930 . S
H749 C758 0.930 . S
H750 C763 0.929 . S
H751 C761 0.929 . S
H752 C756 0.929 . S
H753 C762 0.929 . S
C754 H748 0.930 . S
C754 C755 1.367 . S
C754 C762 1.378 . S
C755 C754 1.367 . S
C755 C763 1.433 . S
C756 H752 0.929 . S
C756 C758 1.378 . S
C756 C760 1.350 . S
C757 C760 1.463 1_554 S
C757 C762 1.350 . S
C757 N765 1.427 . S
C758 H749 0.930 . S
C758 C756 1.378 . S
C758 C759 1.367 . S
C759 C758 1.367 . S
C759 C761 1.433 . S
C760 C756 1.350 . S
C760 C757 1.463 1_556 S
C760 N764 1.427 . S
C761 H751 0.929 . S
C761 C759 1.433 . S
C761 N764 1.384 . S
C762 H753 0.929 . S
C762 C754 1.378 . S
C762 C757 1.350 . S
C763 H750 0.929 . S
C763 C755 1.433 . S
C763 N765 1.384 . S
N764 C760 1.427 . S
N764 C761 1.384 . S
N765 C757 1.427 . S
N765 C763 1.384 . S
H766 C772 0.930 . S
H767 C776 0.953 . S
H768 C781 0.929 . S
H769 C779 0.929 . S
H770 C774 0.929 . S
H771 C780 0.929 . S
C772 H766 0.930 . S
C772 C773 1.367 1_455 S
C772 C780 1.378 . S
C773 C772 1.367 1_655 S
C773 C781 1.433 . S
C774 H770 0.929 . S
C774 C776 1.387 . S
C774 C778 1.350 1_655 S
C775 C778 1.463 1_655 S
C775 C780 1.350 1_655 S
C775 N783 1.427 . S
C776 H767 0.953 . S
C776 C774 1.387 . S
C776 C777 1.339 1_655 S
C777 C776 1.339 1_455 S
C777 C779 1.433 . S
C778 C774 1.350 1_455 S
C778 C775 1.463 1_455 S
C778 N782 1.427 . S
C779 H769 0.929 . S
C779 C777 1.433 . S
C779 N782 1.384 . S
C780 H771 0.929 . S
C780 C772 1.378 . S
C780 C775 1.350 1_455 S
C781 H768 0.929 . S
C781 C773 1.433 . S
C781 N783 1.384 . S
N782 C778 1.427 . S
N782 C779 1.384 . S
N783 C775 1.427 . S
N783 C781 1.384 . S
H784 C790 0.930 . S
H785 C794 0.930 . S
H786 C799 0.929 . S
H787 C797 0.929 . S
H788 C792 0.929 . S
H789 C798 0.929 . S
C790 H784 0.930 . S
C790 C791 1.367 . S
C790 C798 1.378 . S
C791 C790 1.367 . S
C791 C799 1.433 . S
C792 H788 0.929 . S
C792 C794 1.378 . S
C792 C796 1.350 . S
C793 C796 1.463 . S
C793 C798 1.350 . S
C793 N801 1.427 . S
C794 H785 0.930 . S
C794 C792 1.378 . S
C794 C795 1.367 . S
C795 C794 1.367 . S
C795 C797 1.433 . S
C796 C792 1.350 . S
C796 C793 1.463 . S
C796 N800 1.427 . S
C797 H787 0.929 . S
C797 C795 1.433 . S
C797 N800 1.384 . S
C798 H789 0.929 . S
C798 C790 1.378 . S
C798 C793 1.350 . S
C799 H786 0.929 . S
C799 C791 1.433 . S
C799 N801 1.384 . S
N800 C796 1.427 . S
N800 C797 1.384 . S
N801 C793 1.427 . S
N801 C799 1.384 . S
H802 C808 0.930 . S
H803 C812 0.930 . S
H804 C817 0.929 . S
H805 C815 0.929 . S
H806 C810 0.929 . S
H807 C816 0.929 . S
C808 H802 0.930 . S
C808 C809 1.367 . S
C808 C816 1.378 . S
C809 C808 1.367 . S
C809 C817 1.433 . S
C810 H806 0.929 . S
C810 C812 1.378 . S
C810 C814 1.350 . S
C811 C814 1.463 . S
C811 C816 1.350 . S
C811 N819 1.427 . S
C812 H803 0.930 . S
C812 C810 1.378 . S
C812 C813 1.367 . S
C813 C812 1.367 . S
C813 C815 1.433 . S
C814 C810 1.350 . S
C814 C811 1.463 . S
C814 N818 1.427 . S
C815 H805 0.929 . S
C815 C813 1.433 . S
C815 N818 1.384 . S
C816 H807 0.929 . S
C816 C808 1.378 . S
C816 C811 1.350 . S
C817 H804 0.929 . S
C817 C809 1.433 . S
C817 N819 1.384 . S
N818 C814 1.427 . S
N818 C815 1.384 . S
N819 C811 1.427 . S
N819 C817 1.384 . S
H820 C826 0.959 . S
H821 C830 0.930 . S
H822 C835 0.929 . S
H823 C833 0.929 . S
H824 C828 0.929 . S
H825 C834 0.929 . S
C826 H820 0.959 . S
C826 C827 1.367 . S
C826 C834 1.378 . S
C827 C826 1.367 . S
C827 C835 1.433 . S
C828 H824 0.929 . S
C828 C830 1.378 . S
C828 C832 1.350 . S
C829 C832 1.463 . S
C829 C834 1.350 . S
C829 N837 1.427 . S
C830 H821 0.930 . S
C830 C828 1.378 . S
C830 C831 1.367 . S
C831 C830 1.367 . S
C831 C833 1.433 . S
C832 C828 1.350 . S
C832 C829 1.463 . S
C832 N836 1.427 . S
C833 H823 0.929 . S
C833 C831 1.433 . S
C833 N836 1.384 . S
C834 H825 0.929 . S
C834 C826 1.378 . S
C834 C829 1.350 . S
C835 H822 0.929 . S
C835 C827 1.433 . S
C835 N837 1.384 . S
N836 C832 1.427 . S
N836 C833 1.384 . S
N837 C829 1.427 . S
N837 C835 1.384 . S
H838 C844 0.930 . S
H839 C848 0.930 . S
H840 C853 0.929 . S
H841 C851 0.929 . S
H842 C846 0.929 . S
H843 C852 0.929 . S
C844 H838 0.930 . S
C844 C845 1.367 . S
C844 C852 1.378 . S
C845 C844 1.367 . S
C845 C853 1.433 . S
C846 H842 0.929 . S
C846 C848 1.378 . S
C846 C850 1.350 . S
C847 C850 1.463 . S
C847 C852 1.350 . S
C847 N855 1.427 . S
C848 H839 0.930 . S
C848 C846 1.378 . S
C848 C849 1.367 . S
C849 C848 1.367 . S
C849 C851 1.433 . S
C850 C846 1.350 . S
C850 C847 1.463 . S
C850 N854 1.427 . S
C851 H841 0.929 . S
C851 C849 1.433 . S
C851 N854 1.384 . S
C852 H843 0.929 . S
C852 C844 1.378 . S
C852 C847 1.350 . S
C853 H840 0.929 . S
C853 C845 1.433 . S
C853 N855 1.384 . S
N854 C850 1.427 . S
N854 C851 1.384 . S
N855 C847 1.427 . S
N855 C853 1.384 . S
H856 C862 0.930 . S
H857 C866 0.930 . S
H858 C871 0.929 . S
H859 C869 0.929 . S
H860 C864 0.929 . S
H861 C870 0.929 . S
C862 H856 0.930 . S
C862 C863 1.367 . S
C862 C870 1.378 . S
C863 C862 1.367 . S
C863 C871 1.433 . S
C864 H860 0.929 . S
C864 C866 1.378 . S
C864 C868 1.350 . S
C865 C868 1.463 . S
C865 C870 1.350 . S
C865 N873 1.427 . S
C866 H857 0.930 . S
C866 C864 1.378 . S
C866 C867 1.367 . S
C867 C866 1.367 . S
C867 C869 1.433 . S
C868 C864 1.350 . S
C868 C865 1.463 . S
C868 N872 1.427 . S
C869 H859 0.929 . S
C869 C867 1.433 . S
C869 N872 1.384 . S
C870 H861 0.929 . S
C870 C862 1.378 . S
C870 C865 1.350 . S
C871 H858 0.929 . S
C871 C863 1.433 . S
C871 N873 1.384 . S
N872 C868 1.427 . S
N872 C869 1.384 . S
N873 C865 1.427 . S
N873 C871 1.384 . S
H874 C880 0.930 . S
H875 C884 0.930 . S
H876 C889 0.929 . S
H877 C887 0.929 . S
H878 C882 0.929 . S
H879 C888 0.929 . S
C880 H874 0.930 . S
C880 C881 1.367 . S
C880 C888 1.378 . S
C881 C880 1.367 . S
C881 C889 1.433 . S
C882 H878 0.929 . S
C882 C884 1.378 . S
C882 C886 1.350 . S
C883 C886 1.463 . S
C883 C888 1.350 . S
C883 N891 1.427 . S
C884 H875 0.930 . S
C884 C882 1.378 . S
C884 C885 1.367 . S
C885 C884 1.367 . S
C885 C887 1.433 . S
C886 C882 1.350 . S
C886 C883 1.463 . S
C886 N890 1.427 . S
C887 H877 0.929 . S
C887 C885 1.433 . S
C887 N890 1.384 . S
C888 H879 0.929 . S
C888 C880 1.378 . S
C888 C883 1.350 . S
C889 H876 0.929 . S
C889 C881 1.433 . S
C889 N891 1.384 . S
N890 C886 1.427 . S
N890 C887 1.384 . S
N891 C883 1.427 . S
N891 C889 1.384 . S
H892 C898 0.930 . S
H893 C902 0.930 . S
H894 C907 0.929 . S
H895 C905 0.929 . S
H896 C900 0.929 . S
H897 C906 0.929 . S
C898 H892 0.930 . S
C898 C899 1.367 . S
C898 C906 1.378 . S
C899 C898 1.367 . S
C899 C907 1.433 . S
C900 H896 0.929 . S
C900 C902 1.378 . S
C900 C904 1.350 . S
C901 C904 1.463 . S
C901 C906 1.350 . S
C901 N909 1.427 . S
C902 H893 0.930 . S
C902 C900 1.378 . S
C902 C903 1.367 . S
C903 C902 1.367 . S
C903 C905 1.433 . S
C904 C900 1.350 . S
C904 C901 1.463 . S
C904 N908 1.427 . S
C905 H895 0.929 . S
C905 C903 1.433 . S
C905 N908 1.384 . S
C906 H897 0.929 . S
C906 C898 1.378 . S
C906 C901 1.350 . S
C907 H894 0.929 . S
C907 C899 1.433 . S
C907 N909 1.384 . S
N908 C904 1.427 . S
N908 C905 1.384 . S
N909 C901 1.427 . S
N909 C907 1.384 . S
H910 C916 0.930 . S
H911 C920 0.930 . S
H912 C925 0.929 . S
H913 C923 0.929 . S
H914 C918 0.929 . S
H915 C924 0.929 . S
C916 H910 0.930 . S
C916 C917 1.367 . S
C916 C924 1.378 . S
C917 C916 1.367 . S
C917 C925 1.433 . S
C918 H914 0.929 . S
C918 C920 1.378 . S
C918 C922 1.350 . S
C919 C922 1.463 . S
C919 C924 1.350 . S
C919 N927 1.427 . S
C920 H911 0.930 . S
C920 C918 1.378 . S
C920 C921 1.367 . S
C921 C920 1.367 . S
C921 C923 1.433 . S
C922 C918 1.350 . S
C922 C919 1.463 . S
C922 N926 1.427 . S
C923 H913 0.929 . S
C923 C921 1.433 . S
C923 N926 1.384 . S
C924 H915 0.929 . S
C924 C916 1.378 . S
C924 C919 1.350 . S
C925 H912 0.929 . S
C925 C917 1.433 . S
C925 N927 1.384 . S
N926 C922 1.427 . S
N926 C923 1.384 . S
N927 C919 1.427 . S
N927 C925 1.384 . S
H928 C934 0.933 1_545 S
H929 C938 0.930 . S
H930 C943 0.929 . S
H931 C941 0.943 . S
H932 C936 0.929 . S
H933 C942 0.925 . S
C934 H928 0.933 1_565 S
C934 C935 1.365 . S
C934 C942 1.378 1_565 S
C935 C934 1.365 . S
C935 C943 1.433 . S
C936 H932 0.929 . S
C936 C938 1.378 . S
C936 C940 1.350 . S
C937 C940 1.463 . S
C937 C942 1.354 1_565 S
C937 N945 1.427 . S
C938 H929 0.930 . S
C938 C936 1.378 . S
C938 C939 1.367 . S
C939 C938 1.367 . S
C939 C941 1.419 1_565 S
C940 C936 1.350 . S
C940 C937 1.463 . S
C940 N944 1.424 1_565 S
C941 H931 0.943 . S
C941 C939 1.419 1_545 S
C941 N944 1.384 . S
C942 H933 0.925 . S
C942 C934 1.378 1_545 S
C942 C937 1.354 1_545 S
C943 H930 0.929 . S
C943 C935 1.433 . S
C943 N945 1.384 . S
N944 C940 1.424 1_545 S
N944 C941 1.384 . S
N945 C937 1.427 . S
N945 C943 1.384 . S
H946 C952 0.930 . S
H947 C956 0.930 . S
H948 C961 0.929 . S
H949 C959 0.929 . S
H950 C954 0.929 . S
H951 C960 0.929 . S
C952 H946 0.930 . S
C952 C953 1.367 . S
C952 C960 1.378 . S
C953 C952 1.367 . S
C953 C961 1.433 . S
C954 H950 0.929 . S
C954 C956 1.378 . S
C954 C958 1.350 . S
C955 C958 1.463 . S
C955 C960 1.350 . S
C955 N963 1.427 . S
C956 H947 0.930 . S
C956 C954 1.378 . S
C956 C957 1.367 . S
C957 C956 1.367 . S
C957 C959 1.433 . S
C958 C954 1.350 . S
C958 C955 1.463 . S
C958 N962 1.427 . S
C959 H949 0.929 . S
C959 C957 1.433 . S
C959 N962 1.384 . S
C960 H951 0.929 . S
C960 C952 1.378 . S
C960 C955 1.350 . S
C961 H948 0.929 . S
C961 C953 1.433 . S
C961 N963 1.384 . S
N962 C958 1.427 . S
N962 C959 1.384 . S
N963 C955 1.427 . S
N963 C961 1.384 . S
H964 C970 0.930 . S
H965 C974 0.930 . S
H966 C979 0.929 . S
H967 C977 0.929 . S
H968 C972 0.929 . S
H969 C978 0.929 . S
C970 H964 0.930 . S
C970 C971 1.367 . S
C970 C978 1.378 . S
C971 C970 1.367 . S
C971 C979 1.433 . S
C972 H968 0.929 . S
C972 C974 1.378 . S
C972 C976 1.350 . S
C973 C976 1.463 . S
C973 C978 1.350 . S
C973 N981 1.427 . S
C974 H965 0.930 . S
C974 C972 1.378 . S
C974 C975 1.367 . S
C975 C974 1.367 . S
C975 C977 1.433 . S
C976 C972 1.350 . S
C976 C973 1.463 . S
C976 N980 1.427 . S
C977 H967 0.929 . S
C977 C975 1.433 . S
C977 N980 1.384 . S
C978 H969 0.929 . S
C978 C970 1.378 . S
C978 C973 1.350 . S
C979 H966 0.929 . S
C979 C971 1.433 . S
C979 N981 1.384 . S
N980 C976 1.427 . S
N980 C977 1.384 . S
N981 C973 1.427 . S
N981 C979 1.384 . S
H982 C988 0.930 . S
H983 C992 0.930 . S
H984 C997 0.929 . S
H985 C995 0.929 . S
H986 C990 0.929 . S
H987 C996 0.929 . S
C988 H982 0.930 . S
C988 C989 1.367 1_455 S
C988 C996 1.378 . S
C989 C988 1.367 1_655 S
C989 C997 1.433 . S
C990 H986 0.929 . S
C990 C992 1.378 . S
C990 C994 1.350 . S
C991 C994 1.463 . S
C991 C996 1.350 1_655 S
C991 N999 1.427 . S
C992 H983 0.930 . S
C992 C990 1.378 . S
C992 C993 1.367 . S
C993 C992 1.367 . S
C993 C995 1.433 1_655 S
C994 C990 1.350 . S
C994 C991 1.463 . S
C994 N998 1.427 1_655 S
C995 H985 0.929 . S
C995 C993 1.433 1_455 S
C995 N998 1.384 . S
C996 H987 0.929 . S
C996 C988 1.378 . S
C996 C991 1.350 1_455 S
C997 H984 0.929 . S
C997 C989 1.433 . S
C997 N999 1.384 . S
N998 C994 1.427 1_455 S
N998 C995 1.384 . S
N999 C991 1.427 . S
N999 C997 1.384 . S
H1000 C1006 0.930 . S
H1001 C1010 0.930 . S
H1002 C1015 0.929 . S
H1003 C1013 0.929 . S
H1004 C1008 0.929 . S
H1005 C1014 0.929 . S
C1006 H1000 0.930 . S
C1006 C1007 1.367 . S
C1006 C1014 1.378 . S
C1007 C1006 1.367 . S
C1007 C1015 1.433 . S
C1008 H1004 0.929 . S
C1008 C1010 1.378 . S
C1008 C1012 1.350 . S
C1009 C1012 1.463 . S
C1009 C1014 1.350 . S
C1009 N1017 1.427 . S
C1010 H1001 0.930 . S
C1010 C1008 1.378 . S
C1010 C1011 1.367 . S
C1011 C1010 1.367 . S
C1011 C1013 1.433 . S
C1012 C1008 1.350 . S
C1012 C1009 1.463 . S
C1012 N1016 1.427 . S
C1013 H1003 0.929 . S
C1013 C1011 1.433 . S
C1013 N1016 1.384 . S
C1014 H1005 0.929 . S
C1014 C1006 1.378 . S
C1014 C1009 1.350 . S
C1015 H1002 0.929 . S
C1015 C1007 1.433 . S
C1015 N1017 1.384 . S
N1016 C1012 1.427 . S
N1016 C1013 1.384 . S
N1017 C1009 1.427 . S
N1017 C1015 1.384 . S
H1018 C1024 0.930 . S
H1019 C1028 0.930 . S
H1020 C1033 0.929 . S
H1021 C1031 0.929 . S
H1022 C1026 0.929 . S
H1023 C1032 0.929 . S
C1024 H1018 0.930 . S
C1024 C1025 1.367 . S
C1024 C1032 1.378 . S
C1025 C1024 1.367 . S
C1025 C1033 1.433 . S
C1026 H1022 0.929 . S
C1026 C1028 1.378 . S
C1026 C1030 1.350 . S
C1027 C1030 1.463 . S
C1027 C1032 1.350 . S
C1027 N1035 1.427 . S
C1028 H1019 0.930 . S
C1028 C1026 1.378 . S
C1028 C1029 1.367 . S
C1029 C1028 1.367 . S
C1029 C1031 1.433 . S
C1030 C1026 1.350 . S
C1030 C1027 1.463 . S
C1030 N1034 1.427 . S
C1031 H1021 0.929 . S
C1031 C1029 1.433 . S
C1031 N1034 1.384 . S
C1032 H1023 0.929 . S
C1032 C1024 1.378 . S
C1032 C1027 1.350 . S
C1033 H1020 0.929 . S
C1033 C1025 1.433 . S
C1033 N1035 1.384 . S
N1034 C1030 1.427 . S
N1034 C1031 1.384 . S
N1035 C1027 1.427 . S
N1035 C1033 1.384 . S
H1036 C1042 0.930 . S
H1037 C1046 0.930 . S
H1038 C1051 0.929 . S
H1039 C1049 0.929 . S
H1040 C1044 0.929 . S
H1041 C1050 0.929 . S
C1042 H1036 0.930 . S
C1042 C1043 1.367 . S
C1042 C1050 1.378 . S
C1043 C1042 1.367 . S
C1043 C1051 1.433 . S
C1044 H1040 0.929 . S
C1044 C1046 1.378 . S
C1044 C1048 1.350 . S
C1045 C1048 1.463 . S
C1045 C1050 1.350 . S
C1045 N1053 1.427 . S
C1046 H1037 0.930 . S
C1046 C1044 1.378 . S
C1046 C1047 1.367 . S
C1047 C1046 1.367 . S
C1047 C1049 1.433 . S
C1048 C1044 1.350 . S
C1048 C1045 1.463 . S
C1048 N1052 1.427 . S
C1049 H1039 0.929 . S
C1049 C1047 1.433 . S
C1049 N1052 1.384 . S
C1050 H1041 0.929 . S
C1050 C1042 1.378 . S
C1050 C1045 1.350 . S
C1051 H1038 0.929 . S
C1051 C1043 1.433 . S
C1051 N1053 1.384 . S
N1052 C1048 1.427 . S
N1052 C1049 1.384 . S
N1053 C1045 1.427 . S
N1053 C1051 1.384 . S
H1054 C1060 0.930 1_655 S
H1055 C1064 0.930 . S
H1056 C1069 0.929 . S
H1057 C1067 0.929 1_655 S
H1058 C1062 0.929 . S
H1059 C1068 0.929 1_655 S
C1060 H1054 0.930 1_455 S
C1060 C1061 1.367 . S
C1060 C1068 1.378 . S
C1061 C1060 1.367 . S
C1061 C1069 1.433 . S
C1062 H1058 0.929 . S
C1062 C1064 1.378 . S
C1062 C1066 1.350 . S
C1063 C1066 1.463 . S
C1063 C1068 1.350 . S
C1063 N1071 1.427 . S
C1064 H1055 0.930 . S
C1064 C1062 1.378 . S
C1064 C1065 1.367 . S
C1065 C1064 1.367 . S
C1065 C1067 1.433 . S
C1066 C1062 1.350 . S
C1066 C1063 1.463 . S
C1066 N1070 1.427 . S
C1067 H1057 0.929 1_455 S
C1067 C1065 1.433 . S
C1067 N1070 1.384 . S
C1068 H1059 0.929 1_455 S
C1068 C1060 1.378 . S
C1068 C1063 1.350 . S
C1069 H1056 0.929 . S
C1069 C1061 1.433 . S
C1069 N1071 1.384 . S
N1070 C1066 1.427 . S
N1070 C1067 1.384 . S
N1071 C1063 1.427 . S
N1071 C1069 1.384 . S
C647 C335 1.502 . S
C651 C15 1.498 . S
C665 C55 1.960 . S
C669 C375 1.970 . S
C683 C415 2.138 . S
C687 C95 2.126 . S
C701 C135 1.579 . S
C705 C455 1.583 . S
C719 C175 1.577 . S
C723 C495 1.581 . S
C737 C535 2.144 . S
C741 C215 2.132 . S
C755 C575 1.968 . S
C759 C255 1.957 . S
C773 C615 1.499 . S
C777 C295 1.495 . S
C791 C21 1.689 . S
C795 C221 1.630 . S
C809 C261 1.745 . S
C813 C61 1.743 . S
C827 C301 1.691 . S
C831 C101 1.635 . S
C845 C141 1.534 . S
C849 C181 1.538 . S
C863 C341 1.709 . S
C867 C541 1.708 . S
C881 C581 1.799 . S
C885 C381 1.800 . S
C899 C421 1.709 . S
C903 C621 1.703 . S
C917 C501 1.564 . S
C921 C461 1.556 . S
C935 C482 1.485 . S
C939 C2 1.469 . S
C953 C522 1.892 . S
C957 C42 1.853 . S
C971 C82 1.846 . S
C975 C562 1.891 . S
C989 C602 1.485 . S
C993 C122 1.470 . S
C1007 C162 1.463 . S
C1011 C322 1.483 . S
C1025 C362 1.891 . S
C1029 C202 1.845 . S
C1043 C402 1.890 . S
C1047 C242 1.856 . S
C1061 C442 1.485 . S
C1065 C282 1.468 . S
