# Generated by pormake.
# Topology zfh, (5)-cn, num edge types: 1
# Building blocks:
#     Node 0, Type 0, BuildingBlock: BEQFEK_clean_sbu_0, # of connection points: 5
#     Node 1, Type 0, BuildingBlock: BEQFEK_clean_sbu_0, # of connection points: 5
#     Node 2, Type 0, BuildingBlock: BEQFEK_clean_sbu_0, # of connection points: 5
#     Node 3, Type 0, BuildingBlock: BEQFEK_clean_sbu_0, # of connection points: 5
#     Node 4, Type 0, BuildingBlock: BEQFEK_clean_sbu_0, # of connection points: 5
#     Node 5, Type 0, BuildingBlock: BEQFEK_clean_sbu_0, # of connection points: 5
#     Node 6, Type 0, BuildingBlock: BEQFEK_clean_sbu_0, # of connection points: 5
#     Node 7, Type 0, BuildingBlock: BEQFEK_clean_sbu_0, # of connection points: 5
#     Node 8, Type 0, BuildingBlock: BEQFEK_clean_sbu_0, # of connection points: 5
#     Node 9, Type 0, BuildingBlock: BEQFEK_clean_sbu_0, # of connection points: 5
#     Node 10, Type 0, BuildingBlock: BEQFEK_clean_sbu_0, # of connection points: 5
#     Node 11, Type 0, BuildingBlock: BEQFEK_clean_sbu_0, # of connection points: 5
#     Node 12, Type 0, BuildingBlock: BEQFEK_clean_sbu_0, # of connection points: 5
#     Node 13, Type 0, BuildingBlock: BEQFEK_clean_sbu_0, # of connection points: 5
#     Node 14, Type 0, BuildingBlock: BEQFEK_clean_sbu_0, # of connection points: 5
#     Node 15, Type 0, BuildingBlock: BEQFEK_clean_sbu_0, # of connection points: 5
#     Edge 16, Type (0, 0), BuildingBlock: UVAHIK_clean_linker_0, # of connection points: 2
#     Edge 17, Type (0, 0), BuildingBlock: UVAHIK_clean_linker_0, # of connection points: 2
#     Edge 18, Type (0, 0), BuildingBlock: UVAHIK_clean_linker_0, # of connection points: 2
#     Edge 19, Type (0, 0), BuildingBlock: UVAHIK_clean_linker_0, # of connection points: 2
#     Edge 20, Type (0, 0), BuildingBlock: UVAHIK_clean_linker_0, # of connection points: 2
#     Edge 21, Type (0, 0), BuildingBlock: UVAHIK_clean_linker_0, # of connection points: 2
#     Edge 22, Type (0, 0), BuildingBlock: UVAHIK_clean_linker_0, # of connection points: 2
#     Edge 23, Type (0, 0), BuildingBlock: UVAHIK_clean_linker_0, # of connection points: 2
#     Edge 24, Type (0, 0), BuildingBlock: UVAHIK_clean_linker_0, # of connection points: 2
#     Edge 25, Type (0, 0), BuildingBlock: UVAHIK_clean_linker_0, # of connection points: 2
#     Edge 26, Type (0, 0), BuildingBlock: UVAHIK_clean_linker_0, # of connection points: 2
#     Edge 27, Type (0, 0), BuildingBlock: UVAHIK_clean_linker_0, # of connection points: 2
#     Edge 28, Type (0, 0), BuildingBlock: UVAHIK_clean_linker_0, # of connection points: 2
#     Edge 29, Type (0, 0), BuildingBlock: UVAHIK_clean_linker_0, # of connection points: 2
#     Edge 30, Type (0, 0), BuildingBlock: UVAHIK_clean_linker_0, # of connection points: 2
#     Edge 31, Type (0, 0), BuildingBlock: UVAHIK_clean_linker_0, # of connection points: 2
#     Edge 32, Type (0, 0), BuildingBlock: UVAHIK_clean_linker_0, # of connection points: 2
#     Edge 33, Type (0, 0), BuildingBlock: UVAHIK_clean_linker_0, # of connection points: 2
#     Edge 34, Type (0, 0), BuildingBlock: UVAHIK_clean_linker_0, # of connection points: 2
#     Edge 35, Type (0, 0), BuildingBlock: UVAHIK_clean_linker_0, # of connection points: 2
#     Edge 36, Type (0, 0), BuildingBlock: UVAHIK_clean_linker_0, # of connection points: 2
#     Edge 37, Type (0, 0), BuildingBlock: UVAHIK_clean_linker_0, # of connection points: 2
#     Edge 38, Type (0, 0), BuildingBlock: UVAHIK_clean_linker_0, # of connection points: 2
#     Edge 39, Type (0, 0), BuildingBlock: UVAHIK_clean_linker_0, # of connection points: 2
#     Edge 40, Type (0, 0), BuildingBlock: UVAHIK_clean_linker_0, # of connection points: 2
#     Edge 41, Type (0, 0), BuildingBlock: UVAHIK_clean_linker_0, # of connection points: 2
#     Edge 42, Type (0, 0), BuildingBlock: UVAHIK_clean_linker_0, # of connection points: 2
#     Edge 43, Type (0, 0), BuildingBlock: UVAHIK_clean_linker_0, # of connection points: 2
#     Edge 44, Type (0, 0), BuildingBlock: UVAHIK_clean_linker_0, # of connection points: 2
#     Edge 45, Type (0, 0), BuildingBlock: UVAHIK_clean_linker_0, # of connection points: 2
#     Edge 46, Type (0, 0), BuildingBlock: UVAHIK_clean_linker_0, # of connection points: 2
#     Edge 47, Type (0, 0), BuildingBlock: UVAHIK_clean_linker_0, # of connection points: 2
#     Edge 48, Type (0, 0), BuildingBlock: UVAHIK_clean_linker_0, # of connection points: 2
#     Edge 49, Type (0, 0), BuildingBlock: UVAHIK_clean_linker_0, # of connection points: 2
#     Edge 50, Type (0, 0), BuildingBlock: UVAHIK_clean_linker_0, # of connection points: 2
#     Edge 51, Type (0, 0), BuildingBlock: UVAHIK_clean_linker_0, # of connection points: 2
#     Edge 52, Type (0, 0), BuildingBlock: UVAHIK_clean_linker_0, # of connection points: 2
#     Edge 53, Type (0, 0), BuildingBlock: UVAHIK_clean_linker_0, # of connection points: 2
#     Edge 54, Type (0, 0), BuildingBlock: UVAHIK_clean_linker_0, # of connection points: 2
#     Edge 55, Type (0, 0), BuildingBlock: UVAHIK_clean_linker_0, # of connection points: 2
# Relax obj value: 0.205
# Max RMSD: 0.163
# Mean RMSD: 0.163
data_MOF--net-zfh--node1-BEQFEK_clean_sbu_0--edge1-UVAHIK_clean_linker_0
_symmetry_space_group_name_H-M    P1
_symmetry_Int_Tables_number       1
_symmetry_cell_setting            triclinic
loop_
_symmetry_equiv_pos_as_xyz
'x, y, z'
_cell_length_a     54.276206
_cell_length_b     54.274307
_cell_length_c     54.585356
_cell_angle_alpha  89.981292
_cell_angle_beta   89.980559
_cell_angle_gamma 90.001456
loop_
_atom_site_label
_atom_site_type_symbol
_atom_site_fract_x
_atom_site_fract_y
_atom_site_fract_z
_atom_type_partial_charge
Co0 Co 0.54281 0.19008 0.38815 0.0
Co1 Co 0.51944 0.22877 0.35229 0.0
C2 C 0.49122 0.18444 0.37086 0.0
O3 O 0.50918 0.1768 0.38381 0.0
O4 O 0.49289 0.20408 0.35817 0.0
C5 C 0.55328 0.1608 0.43197 0.0
O6 O 0.53059 0.16551 0.43896 0.0
C7 C 0.48446 0.26819 0.34298 0.0
C8 C 0.50157 0.28857 0.31236 0.0
C9 C 0.48192 0.28909 0.32859 0.0
N10 N 0.50472 0.25599 0.33571 0.0
N11 N 0.51462 0.26798 0.31707 0.0
C12 C 0.46986 0.26151 0.36528 0.0
H13 H 0.48054 0.24893 0.37729 0.0
H14 H 0.46462 0.2783 0.37566 0.0
H15 H 0.45273 0.25197 0.35953 0.0
C16 C 0.55336 0.23539 0.41659 0.0
N17 N 0.54277 0.22364 0.39757 0.0
N18 N 0.53371 0.24005 0.38226 0.0
C19 C 0.53845 0.26282 0.39104 0.0
C20 C 0.55091 0.26059 0.41311 0.0
C21 C 0.56603 0.22265 0.43739 0.0
H22 H 0.55279 0.2101 0.4465 0.0
H23 H 0.57307 0.23585 0.45121 0.0
H24 H 0.5815 0.21143 0.4302 0.0
O25 O 0.56103 0.18659 0.35715 0.0
O26 O 0.54535 0.21376 0.33103 0.0
H27 H 0.54513 0.30167 0.38465 0.0
H28 H 0.51425 0.29129 0.37871 0.0
C29 C 0.53398 0.28625 0.37725 0.0
H30 H 0.53871 0.28369 0.35769 0.0
H31 H 0.53095 0.2628 0.3084 0.0
O32 O 0.56123 0.16959 0.4119 0.0
C33 C 0.56067 0.19669 0.33611 0.0
Co34 Co 0.30876 0.5451 0.38707 0.0
Co35 Co 0.27111 0.51658 0.35371 0.0
C36 C 0.31787 0.49292 0.37158 0.0
O37 O 0.3245 0.51226 0.38301 0.0
O38 O 0.2976 0.49212 0.35988 0.0
C39 C 0.33503 0.55752 0.43162 0.0
O40 O 0.32762 0.53593 0.43967 0.0
C41 C 0.23441 0.47823 0.34351 0.0
C42 C 0.21 0.49661 0.31682 0.0
C43 C 0.21231 0.47551 0.33096 0.0
N44 N 0.24416 0.50028 0.3378 0.0
N45 N 0.22976 0.51093 0.32138 0.0
C46 C 0.24621 0.46038 0.36081 0.0
H47 H 0.26601 0.45885 0.35646 0.0
H48 H 0.24453 0.4673 0.37986 0.0
H49 H 0.23794 0.44175 0.35938 0.0
C50 C 0.26326 0.55466 0.41568 0.0
N51 N 0.27549 0.54321 0.39743 0.0
N52 N 0.25963 0.53116 0.38365 0.0
C53 C 0.23682 0.53419 0.3931 0.0
C54 C 0.23837 0.54922 0.41363 0.0
C55 C 0.27466 0.57309 0.43266 0.0
H56 H 0.28832 0.58443 0.42263 0.0
H57 H 0.28421 0.5632 0.44768 0.0
H58 H 0.26062 0.58548 0.44079 0.0
O59 O 0.30977 0.56304 0.35591 0.0
O60 O 0.28432 0.54265 0.33117 0.0
H61 H 0.21079 0.5302 0.36393 0.0
H62 H 0.19745 0.52684 0.3941 0.0
C63 C 0.21388 0.52301 0.38269 0.0
H64 H 0.21609 0.5028 0.38176 0.0
H65 H 0.23278 0.52849 0.31421 0.0
O66 O 0.32892 0.56449 0.41025 0.0
C67 C 0.29947 0.56017 0.33519 0.0
Co68 Co 0.95603 0.30738 0.38989 0.0
Co69 Co 0.97916 0.26954 0.35316 0.0
C70 C 0.00697 0.31409 0.37275 0.0
O71 O 0.98938 0.32129 0.38639 0.0
O72 O 0.00491 0.29491 0.3595 0.0
C73 C 0.94482 0.33583 0.43382 0.0
O74 O 0.96751 0.33122 0.44085 0.0
C75 C 0.01392 0.22959 0.34768 0.0
C76 C 0.00681 0.21523 0.31051 0.0
C77 C 0.02111 0.21155 0.33124 0.0
N78 N 0.99591 0.24304 0.33741 0.0
N79 N 0.99179 0.2345 0.3151 0.0
C80 C 0.02478 0.23482 0.37237 0.0
H81 H 0.02037 0.25383 0.37832 0.0
H82 H 0.01703 0.22191 0.38608 0.0
H83 H 0.04505 0.23214 0.37193 0.0
C84 C 0.94541 0.2614 0.41728 0.0
N85 N 0.95623 0.27363 0.39868 0.0
N86 N 0.96447 0.25761 0.38254 0.0
C87 C 0.95854 0.23467 0.39008 0.0
C88 C 0.94656 0.23633 0.41245 0.0
C89 C 0.93354 0.27363 0.43883 0.0
H90 H 0.94691 0.28639 0.44741 0.0
H91 H 0.9275 0.26011 0.45282 0.0
H92 H 0.91745 0.28455 0.43254 0.0
O93 O 0.9383 0.3111 0.35851 0.0
O94 O 0.9533 0.28412 0.33175 0.0
H95 H 0.94546 0.19885 0.37882 0.0
H96 H 0.97824 0.20266 0.37819 0.0
C97 C 0.96048 0.21203 0.3745 0.0
H98 H 0.95949 0.21691 0.35481 0.0
H99 H 0.97866 0.24169 0.30312 0.0
O100 O 0.93701 0.32722 0.41363 0.0
C101 C 0.93827 0.30133 0.3373 0.0
Co102 Co 0.19341 0.95832 0.38857 0.0
Co103 Co 0.23162 0.98007 0.3513 0.0
C104 C 0.1878 0.00923 0.36975 0.0
O105 O 0.18065 0.99224 0.3842 0.0
O106 O 0.20668 0.0064 0.35619 0.0
C107 C 0.16615 0.94838 0.43396 0.0
O108 O 0.17252 0.97053 0.44133 0.0
C109 C 0.26889 0.01638 0.33872 0.0
C110 C 0.29166 0.99699 0.31129 0.0
C111 C 0.29018 0.01856 0.32483 0.0
N112 N 0.25841 0.99452 0.33376 0.0
N113 N 0.27178 0.98322 0.31694 0.0
C114 C 0.26057 0.033 0.359 0.0
H115 H 0.24955 0.02256 0.37262 0.0
H116 H 0.27656 0.04166 0.36828 0.0
H117 H 0.24887 0.04781 0.3512 0.0
C118 C 0.23925 0.94769 0.41632 0.0
N119 N 0.22718 0.95794 0.39729 0.0
N120 N 0.24332 0.9671 0.38174 0.0
C121 C 0.26623 0.9631 0.39055 0.0
C122 C 0.26438 0.95071 0.41274 0.0
C123 C 0.22708 0.93286 0.43604 0.0
H124 H 0.2131 0.92046 0.42785 0.0
H125 H 0.21766 0.94551 0.44895 0.0
H126 H 0.24053 0.92154 0.44638 0.0
O127 O 0.1889 0.93954 0.35798 0.0
O128 O 0.21657 0.95327 0.33129 0.0
H129 H 0.29016 0.96278 0.35937 0.0
H130 H 0.30617 0.96558 0.38828 0.0
C131 C 0.28945 0.97096 0.37796 0.0
H132 H 0.28959 0.99126 0.37621 0.0
H133 H 0.26809 0.96557 0.31032 0.0
O134 O 0.17317 0.94073 0.4131 0.0
C135 C 0.19901 0.93872 0.33695 0.0
Co136 Co 0.04322 0.8078 0.1099 0.0
Co137 Co 0.01942 0.76961 0.146 0.0
C138 C 0.99203 0.81464 0.12856 0.0
O139 O 0.00997 0.82179 0.11531 0.0
O140 O 0.99333 0.79489 0.1411 0.0
C141 C 0.0528 0.83548 0.06494 0.0
O142 O 0.03054 0.82912 0.05792 0.0
C143 C 0.98292 0.7322 0.15822 0.0
C144 C 0.0025 0.70917 0.1853 0.0
C145 C 0.98088 0.71073 0.17186 0.0
N146 N 0.00478 0.74269 0.1632 0.0
N147 N 0.01618 0.72916 0.17983 0.0
C148 C 0.96616 0.74069 0.13813 0.0
H149 H 0.97633 0.7524 0.12488 0.0
H150 H 0.95797 0.72474 0.12836 0.0
H151 H 0.95098 0.7517 0.14621 0.0
C152 C 0.05282 0.76235 0.08138 0.0
N153 N 0.04238 0.77429 0.10038 0.0
N154 N 0.03249 0.7581 0.11543 0.0
C155 C 0.03612 0.73528 0.10623 0.0
C156 C 0.0491 0.73723 0.08437 0.0
C157 C 0.0687 0.77452 0.06248 0.0
H158 H 0.08095 0.7882 0.07137 0.0
H159 H 0.05679 0.78429 0.04914 0.0
H160 H 0.08026 0.76101 0.05248 0.0
O161 O 0.06248 0.81065 0.14015 0.0
O162 O 0.04637 0.78404 0.16662 0.0
H163 H 0.03551 0.7106 0.13683 0.0
H164 H 0.03247 0.69539 0.10751 0.0
C165 C 0.0275 0.712 0.11821 0.0
H166 H 0.0072 0.71241 0.1198 0.0
H167 H 0.03385 0.73282 0.1864 0.0
O168 O 0.06085 0.82825 0.08558 0.0
C169 C 0.06224 0.80051 0.16116 0.0
Co170 Co 0.6949 0.04147 0.10753 0.0
Co171 Co 0.73321 0.02042 0.14507 0.0
C172 C 0.68989 0.99055 0.12645 0.0
O173 O 0.68258 0.00739 0.1119 0.0
O174 O 0.70867 0.9937 0.14008 0.0
C175 C 0.66643 0.05123 0.06267 0.0
O176 O 0.67154 0.02868 0.05557 0.0
C177 C 0.77083 0.98461 0.15814 0.0
C178 C 0.79329 0.00455 0.18542 0.0
C179 C 0.79204 0.98278 0.17217 0.0
N180 N 0.76014 0.00646 0.16275 0.0
N181 N 0.77335 0.0181 0.17947 0.0
C182 C 0.76273 0.96765 0.13806 0.0
H183 H 0.75183 0.97786 0.12417 0.0
H184 H 0.77881 0.95885 0.12906 0.0
H185 H 0.75095 0.95296 0.14599 0.0
C186 C 0.74056 0.05275 0.07994 0.0
N187 N 0.72865 0.04235 0.09898 0.0
N188 N 0.74489 0.03352 0.11459 0.0
C189 C 0.76774 0.03781 0.10575 0.0
C190 C 0.76575 0.05014 0.08351 0.0
C191 C 0.72805 0.06733 0.06024 0.0
H192 H 0.71423 0.07983 0.06855 0.0
H193 H 0.71833 0.05453 0.0477 0.0
H194 H 0.74128 0.07855 0.04952 0.0
O195 O 0.69005 0.06017 0.13802 0.0
O196 O 0.71754 0.04694 0.1651 0.0
H197 H 0.79189 0.03863 0.13674 0.0
H198 H 0.80769 0.03523 0.10774 0.0
C199 C 0.79103 0.03011 0.1183 0.0
H200 H 0.7911 0.00985 0.12045 0.0
H201 H 0.76947 0.03579 0.18584 0.0
O202 O 0.67458 0.05901 0.08306 0.0
C203 C 0.69985 0.06122 0.15916 0.0
Co204 Co 0.45752 0.69261 0.11165 0.0
Co205 Co 0.47994 0.73154 0.14774 0.0
C206 C 0.50804 0.68631 0.13021 0.0
O207 O 0.4909 0.67879 0.11616 0.0
O208 O 0.50551 0.70578 0.14295 0.0
C209 C 0.44707 0.662 0.06887 0.0
O210 O 0.4703 0.66497 0.06278 0.0
C211 C 0.51487 0.77145 0.15231 0.0
C212 C 0.50736 0.78718 0.18884 0.0
C213 C 0.522 0.78999 0.1682 0.0
N214 N 0.4966 0.75851 0.16279 0.0
N215 N 0.49223 0.76789 0.18471 0.0
C216 C 0.5261 0.76522 0.128 0.0
H217 H 0.52129 0.74617 0.12247 0.0
H218 H 0.51904 0.77796 0.11378 0.0
H219 H 0.54642 0.76736 0.12881 0.0
C220 C 0.44868 0.73744 0.08207 0.0
N221 N 0.45835 0.72591 0.10168 0.0
N222 N 0.46601 0.74248 0.11755 0.0
C223 C 0.46074 0.76514 0.10879 0.0
C224 C 0.44988 0.76268 0.08593 0.0
C225 C 0.43812 0.72441 0.06032 0.0
H226 H 0.45159 0.71065 0.0536 0.0
H227 H 0.43383 0.73731 0.04516 0.0
H228 H 0.42111 0.71452 0.06584 0.0
O229 O 0.43868 0.6904 0.14269 0.0
O230 O 0.4538 0.71769 0.16919 0.0
H231 H 0.44743 0.80137 0.11823 0.0
H232 H 0.48018 0.79766 0.11969 0.0
C233 C 0.46237 0.78842 0.12344 0.0
H234 H 0.46098 0.7844 0.1433 0.0
H235 H 0.47887 0.76124 0.19676 0.0
O236 O 0.43876 0.67225 0.0881 0.0
C237 C 0.4385 0.70076 0.16364 0.0
Co238 Co 0.80797 0.458 0.10963 0.0
Co239 Co 0.77042 0.48196 0.14611 0.0
C240 C 0.81513 0.50923 0.12691 0.0
O241 O 0.82222 0.49128 0.11368 0.0
O242 O 0.79572 0.50774 0.13993 0.0
C243 C 0.83644 0.4475 0.06551 0.0
O244 O 0.83245 0.47052 0.05919 0.0
C245 C 0.73252 0.51837 0.15448 0.0
C246 C 0.71418 0.50594 0.18841 0.0
C247 C 0.71324 0.52371 0.17019 0.0
N248 N 0.74417 0.49821 0.16275 0.0
N249 N 0.73336 0.491 0.18324 0.0
C250 C 0.74016 0.53234 0.13205 0.0
H251 H 0.75171 0.52064 0.11997 0.0
H252 H 0.72395 0.53912 0.12172 0.0
H253 H 0.75113 0.54861 0.13774 0.0
C254 C 0.76215 0.44806 0.08192 0.0
N255 N 0.77432 0.45861 0.1007 0.0
N256 N 0.7583 0.46789 0.11628 0.0
C257 C 0.73532 0.46342 0.10789 0.0
C258 C 0.73703 0.45084 0.08577 0.0
C259 C 0.77433 0.4331 0.06231 0.0
H260 H 0.78718 0.41971 0.07079 0.0
H261 H 0.78514 0.44551 0.05026 0.0
H262 H 0.76078 0.42284 0.05105 0.0
O263 O 0.81124 0.43959 0.14043 0.0
O264 O 0.78491 0.45557 0.16727 0.0
H265 H 0.71362 0.46636 0.14062 0.0
H266 H 0.69557 0.46209 0.11312 0.0
C267 C 0.7122 0.47092 0.12088 0.0
H268 H 0.7098 0.49106 0.11894 0.0
H269 H 0.73863 0.47553 0.1933 0.0
O270 O 0.82765 0.43938 0.08551 0.0
C271 C 0.80147 0.43986 0.16163 0.0
Co272 Co 0.45728 0.81045 0.61105 0.0
Co273 Co 0.48042 0.77137 0.64656 0.0
C274 C 0.50914 0.81518 0.62822 0.0
O275 O 0.49125 0.82295 0.61527 0.0
O276 O 0.50723 0.79568 0.64104 0.0
C277 C 0.44735 0.83722 0.56578 0.0
O278 O 0.46838 0.82841 0.55772 0.0
C279 C 0.51626 0.73322 0.65833 0.0
C280 C 0.49645 0.71035 0.68539 0.0
C281 C 0.51804 0.71168 0.67188 0.0
N282 N 0.49457 0.744 0.66345 0.0
N283 N 0.48303 0.73055 0.68006 0.0
C284 C 0.53307 0.74153 0.63818 0.0
H285 H 0.52295 0.75317 0.62485 0.0
H286 H 0.54121 0.72549 0.62851 0.0
H287 H 0.54828 0.75253 0.64621 0.0
C288 C 0.44524 0.7652 0.58284 0.0
N289 N 0.4564 0.77685 0.60162 0.0
N290 N 0.46633 0.76037 0.61632 0.0
C291 C 0.46211 0.73767 0.60707 0.0
C292 C 0.44861 0.74001 0.58558 0.0
C293 C 0.42913 0.77768 0.56435 0.0
H294 H 0.41821 0.7924 0.57329 0.0
H295 H 0.44086 0.78609 0.54997 0.0
H296 H 0.41628 0.7645 0.55553 0.0
O297 O 0.43915 0.81437 0.6419 0.0
O298 O 0.45441 0.78668 0.66771 0.0
H299 H 0.46308 0.71243 0.63719 0.0
H300 H 0.46583 0.69777 0.60758 0.0
C301 C 0.47089 0.71419 0.61851 0.0
H302 H 0.49121 0.7146 0.61988 0.0
H303 H 0.46545 0.73445 0.68675 0.0
O304 O 0.43998 0.83165 0.58717 0.0
C305 C 0.43935 0.80406 0.66283 0.0
Co306 Co 0.68983 0.45858 0.60899 0.0
Co307 Co 0.72787 0.48313 0.64469 0.0
C308 C 0.68319 0.51024 0.62503 0.0
O309 O 0.67591 0.49209 0.61217 0.0
O310 O 0.70264 0.50885 0.63799 0.0
C311 C 0.66148 0.44681 0.56505 0.0
O312 O 0.66575 0.46954 0.55794 0.0
C313 C 0.76587 0.51975 0.65197 0.0
C314 C 0.78501 0.50755 0.68555 0.0
C315 C 0.78559 0.52516 0.66715 0.0
N316 N 0.75441 0.49965 0.66069 0.0
N317 N 0.76569 0.49259 0.68096 0.0
C318 C 0.75744 0.53358 0.62975 0.0
H319 H 0.74148 0.54523 0.63491 0.0
H320 H 0.75106 0.5205 0.61547 0.0
H321 H 0.77199 0.54575 0.62226 0.0
C322 C 0.73554 0.44756 0.58138 0.0
N323 N 0.72351 0.45863 0.59996 0.0
N324 N 0.73967 0.46823 0.6152 0.0
C325 C 0.76258 0.46342 0.60681 0.0
C326 C 0.76069 0.4503 0.58503 0.0
C327 C 0.72323 0.43225 0.56213 0.0
H328 H 0.71024 0.41919 0.57093 0.0
H329 H 0.71257 0.44447 0.54978 0.0
H330 H 0.73668 0.42158 0.55113 0.0
O331 O 0.68634 0.44122 0.64043 0.0
O332 O 0.71331 0.45732 0.66653 0.0
H333 H 0.78455 0.46672 0.63931 0.0
H334 H 0.80238 0.46215 0.61171 0.0
C335 C 0.78581 0.47108 0.61951 0.0
H336 H 0.78823 0.4912 0.61736 0.0
H337 H 0.76065 0.4772 0.69127 0.0
O338 O 0.67 0.43935 0.58542 0.0
C339 C 0.69631 0.44185 0.66152 0.0
Co340 Co 0.04242 0.69186 0.60751 0.0
Co341 Co 0.02167 0.73011 0.64518 0.0
C342 C 0.99191 0.68644 0.62596 0.0
O343 O 0.0085 0.67915 0.61116 0.0
O344 O 0.99538 0.70511 0.63966 0.0
C345 C 0.05267 0.66267 0.56359 0.0
O346 O 0.02967 0.66661 0.55719 0.0
C347 C 0.98816 0.771 0.65115 0.0
C348 C 0.99608 0.78515 0.68824 0.0
C349 C 0.9817 0.78926 0.66764 0.0
N350 N 0.00584 0.75699 0.66124 0.0
N351 N 0.01044 0.7654 0.6835 0.0
C352 C 0.97692 0.76613 0.62656 0.0
H353 H 0.98072 0.74701 0.62054 0.0
H354 H 0.98489 0.77886 0.6128 0.0
H355 H 0.95673 0.76939 0.6272 0.0
C356 C 0.05364 0.73769 0.58008 0.0
N357 N 0.04312 0.72565 0.59897 0.0
N358 N 0.0359 0.74178 0.61548 0.0
C359 C 0.04228 0.76458 0.60791 0.0
C360 C 0.05342 0.76276 0.58512 0.0
C361 C 0.06424 0.72527 0.55801 0.0
H362 H 0.05047 0.71231 0.55038 0.0
H363 H 0.06937 0.7387 0.54357 0.0
H364 H 0.08075 0.71453 0.56346 0.0
O365 O 0.06056 0.6873 0.63875 0.0
O366 O 0.0477 0.71506 0.66582 0.0
H367 H 0.05708 0.7997 0.61922 0.0
H368 H 0.02419 0.79727 0.6205 0.0
C369 C 0.0416 0.78713 0.62374 0.0
H370 H 0.0428 0.78201 0.64336 0.0
H371 H 0.02348 0.75783 0.69535 0.0
O372 O 0.06086 0.67185 0.58338 0.0
C373 C 0.06172 0.69715 0.65992 0.0
Co374 Co 0.80717 0.04285 0.61118 0.0
Co375 Co 0.76924 0.01864 0.64719 0.0
C376 C 0.8144 0.99163 0.62979 0.0
O377 O 0.82133 0.00943 0.61619 0.0
O378 O 0.79483 0.99309 0.64254 0.0
C379 C 0.83455 0.05269 0.56614 0.0
O380 O 0.82856 0.03028 0.55925 0.0
C381 C 0.73255 0.98166 0.65982 0.0
C382 C 0.70905 0.00125 0.68651 0.0
C383 C 0.71108 0.97945 0.67343 0.0
N384 N 0.74259 0.00379 0.66449 0.0
N385 N 0.72879 0.0152 0.6809 0.0
C386 C 0.74145 0.96477 0.64001 0.0
H387 H 0.75268 0.97506 0.62645 0.0
H388 H 0.72574 0.9558 0.63055 0.0
H389 H 0.75309 0.95018 0.64832 0.0
C390 C 0.76161 0.0521 0.58266 0.0
N391 N 0.77367 0.04179 0.60166 0.0
N392 N 0.75761 0.03155 0.61661 0.0
C393 C 0.73476 0.03474 0.6073 0.0
C394 C 0.73656 0.04786 0.58551 0.0
C395 C 0.77357 0.06829 0.56388 0.0
H396 H 0.7872 0.08054 0.57283 0.0
H397 H 0.78335 0.0566 0.55035 0.0
H398 H 0.75992 0.07986 0.55409 0.0
O399 O 0.80982 0.06234 0.64151 0.0
O400 O 0.78341 0.04542 0.66777 0.0
H401 H 0.70965 0.03359 0.63753 0.0
H402 H 0.69502 0.0296 0.60803 0.0
C403 C 0.71163 0.0254 0.61904 0.0
H404 H 0.71278 0.00515 0.62092 0.0
H405 H 0.7321 0.03304 0.6872 0.0
O406 O 0.82731 0.06069 0.58679 0.0
C407 C 0.79958 0.0616 0.66247 0.0
Co408 Co 0.95682 0.19523 0.88526 0.0
Co409 Co 0.98025 0.2339 0.84935 0.0
C410 C 0.0081 0.1891 0.86709 0.0
O411 O 0.99045 0.18167 0.88059 0.0
O412 O 0.00619 0.20868 0.85437 0.0
C413 C 0.9467 0.1661 0.92922 0.0
O414 O 0.96934 0.17115 0.93608 0.0
C415 C 0.0164 0.27206 0.83982 0.0
C416 C 0.99954 0.29364 0.8099 0.0
C417 C 0.01962 0.29296 0.82559 0.0
N418 N 0.99542 0.26094 0.83293 0.0
N419 N 0.98562 0.27365 0.81472 0.0
C420 C 0.03123 0.26439 0.86165 0.0
H421 H 0.0201 0.25258 0.87401 0.0
H422 H 0.03794 0.28077 0.87183 0.0
H423 H 0.04746 0.2537 0.85535 0.0
C424 C 0.94697 0.24043 0.91404 0.0
N425 N 0.95741 0.22866 0.89495 0.0
N426 N 0.9666 0.24505 0.87967 0.0
C427 C 0.9622 0.26782 0.88862 0.0
C428 C 0.94972 0.26561 0.91069 0.0
C429 C 0.93393 0.22775 0.93465 0.0
H430 H 0.94701 0.21528 0.94407 0.0
H431 H 0.92661 0.24098 0.9483 0.0
H432 H 0.91861 0.21646 0.92724 0.0
O433 O 0.93782 0.19262 0.85449 0.0
O434 O 0.95411 0.2195 0.82827 0.0
H435 H 0.95675 0.30699 0.88293 0.0
H436 H 0.98697 0.29549 0.87566 0.0
C437 C 0.96701 0.29125 0.87494 0.0
H438 H 0.96148 0.28907 0.85554 0.0
H439 H 0.96886 0.26934 0.80639 0.0
O440 O 0.93857 0.17466 0.90912 0.0
C441 C 0.93835 0.20292 0.83354 0.0
Co442 Co 0.30633 0.95954 0.89159 0.0
Co443 Co 0.27004 0.98275 0.85338 0.0
C444 C 0.3147 0.01 0.87361 0.0
O445 O 0.32127 0.99238 0.88752 0.0
O446 O 0.29566 0.00829 0.86006 0.0
C447 C 0.34612 0.94342 0.92333 0.0
O448 O 0.35953 0.96025 0.9123 0.0
C449 C 0.23026 0.01737 0.84661 0.0
C450 C 0.21647 0.0097 0.80934 0.0
C451 C 0.21234 0.02415 0.82989 0.0
N452 N 0.24408 0.99943 0.8367 0.0
N453 N 0.2359 0.995 0.81432 0.0
C454 C 0.2349 0.0284 0.87134 0.0
H455 H 0.25402 0.02467 0.87743 0.0
H456 H 0.22217 0.02019 0.88495 0.0
H457 H 0.23152 0.04857 0.87089 0.0
C458 C 0.25995 0.951 0.91811 0.0
N459 N 0.27256 0.96114 0.89943 0.0
N460 N 0.25699 0.96888 0.88268 0.0
C461 C 0.23387 0.96313 0.88985 0.0
C462 C 0.235 0.95185 0.91265 0.0
C463 C 0.27173 0.93968 0.94019 0.0
H464 H 0.28741 0.95124 0.94632 0.0
H465 H 0.25835 0.93772 0.95544 0.0
H466 H 0.27893 0.92119 0.93528 0.0
O467 O 0.31041 0.94062 0.86092 0.0
O468 O 0.28494 0.95616 0.83296 0.0
H469 H 0.1987 0.94912 0.87775 0.0
H470 H 0.20175 0.98196 0.87694 0.0
C471 C 0.21163 0.96442 0.87364 0.0
H472 H 0.21707 0.96339 0.8541 0.0
H473 H 0.24333 0.98176 0.80261 0.0
O474 O 0.32368 0.94075 0.91731 0.0
C475 C 0.30135 0.94058 0.83938 0.0
Co476 Co 0.54309 0.30742 0.88983 0.0
Co477 Co 0.52026 0.26967 0.8527 0.0
C478 C 0.49198 0.31383 0.87175 0.0
O479 O 0.50965 0.32104 0.8853 0.0
O480 O 0.49389 0.29454 0.85859 0.0
C481 C 0.55352 0.33575 0.93431 0.0
O482 O 0.53098 0.33061 0.94146 0.0
C483 C 0.4843 0.23155 0.84252 0.0
C484 C 0.50106 0.21067 0.81206 0.0
C485 C 0.4811 0.21092 0.82792 0.0
N486 N 0.50516 0.24295 0.83568 0.0
N487 N 0.5149 0.23066 0.81715 0.0
C488 C 0.46961 0.2386 0.86464 0.0
H489 H 0.48071 0.25031 0.87712 0.0
H490 H 0.46321 0.22194 0.87458 0.0
H491 H 0.45317 0.24918 0.85872 0.0
C492 C 0.55323 0.26146 0.91734 0.0
N493 N 0.54275 0.27369 0.89856 0.0
N494 N 0.5339 0.25769 0.88272 0.0
C495 C 0.5386 0.2347 0.89095 0.0
C496 C 0.5509 0.23635 0.91317 0.0
C497 C 0.56593 0.27367 0.93842 0.0
H498 H 0.55274 0.28605 0.9478 0.0
H499 H 0.57291 0.26013 0.95195 0.0
H500 H 0.58145 0.28501 0.93149 0.0
O501 O 0.5618 0.3112 0.85922 0.0
O502 O 0.5467 0.28478 0.83203 0.0
H503 H 0.54488 0.19588 0.88388 0.0
H504 H 0.51441 0.20698 0.87704 0.0
C505 C 0.53428 0.21168 0.87647 0.0
H506 H 0.53976 0.21468 0.85715 0.0
H507 H 0.53157 0.23523 0.80878 0.0
O508 O 0.56138 0.32747 0.914 0.0
C509 C 0.56199 0.30161 0.83796 0.0
Co510 Co 0.19409 0.54476 0.8876 0.0
Co511 Co 0.23241 0.51963 0.85248 0.0
C512 C 0.18716 0.49304 0.87022 0.0
O513 O 0.18 0.51142 0.88285 0.0
O514 O 0.20702 0.49382 0.85784 0.0
C515 C 0.16707 0.55573 0.93254 0.0
O516 O 0.17488 0.53433 0.94068 0.0
C517 C 0.2695 0.48252 0.8406 0.0
C518 C 0.29314 0.50202 0.81396 0.0
C519 C 0.2911 0.4803 0.82719 0.0
N520 N 0.25939 0.5046 0.83568 0.0
N521 N 0.2733 0.51594 0.81931 0.0
C522 C 0.2605 0.46568 0.86041 0.0
H523 H 0.24892 0.47591 0.87371 0.0
H524 H 0.2762 0.45702 0.87019 0.0
H525 H 0.24924 0.45084 0.85205 0.0
C526 C 0.23947 0.55481 0.91618 0.0
N527 N 0.22754 0.54402 0.89737 0.0
N528 N 0.24372 0.53329 0.88288 0.0
C529 C 0.26647 0.53652 0.89239 0.0
C530 C 0.26451 0.55028 0.91377 0.0
C531 C 0.22749 0.57174 0.93427 0.0
H532 H 0.21332 0.58309 0.92501 0.0
H533 H 0.21846 0.56061 0.94876 0.0
H534 H 0.24109 0.5842 0.94301 0.0
O535 O 0.1916 0.56328 0.85694 0.0
O536 O 0.2182 0.54618 0.83109 0.0
H537 H 0.29222 0.53432 0.86276 0.0
H538 H 0.3061 0.53051 0.89264 0.0
C539 C 0.28964 0.52649 0.88134 0.0
H540 H 0.2881 0.50624 0.87979 0.0
H541 H 0.26997 0.53371 0.81282 0.0
O542 O 0.1733 0.56291 0.91127 0.0
C543 C 0.20186 0.56235 0.83602 0.0
C544 C 0.33438 0.02917 0.33111 0.0
C545 C 0.30997 0.03699 0.32778 0.0
C546 C 0.35292 0.04624 0.33628 0.0
C547 C 0.37143 0.11012 0.32958 0.0
H548 H 0.41119 0.09836 0.38742 0.0
C549 C 0.44673 0.1791 0.3595 0.0
C550 C 0.46867 0.1692 0.36899 0.0
C551 C 0.42608 0.16411 0.3559 0.0
C552 C 0.40055 0.10181 0.371 0.0
H553 H 0.28585 0.06872 0.32603 0.0
H554 H 0.31855 0.09882 0.33446 0.0
H555 H 0.37831 0.06971 0.37686 0.0
H556 H 0.48603 0.13583 0.38238 0.0
H557 H 0.45057 0.10959 0.37531 0.0
H558 H 0.39418 0.14157 0.32297 0.0
C559 C 0.32319 0.07943 0.33345 0.0
C560 C 0.38163 0.08543 0.36506 0.0
C561 C 0.30454 0.06228 0.32873 0.0
C562 C 0.46935 0.14411 0.37524 0.0
C563 C 0.44887 0.12904 0.37128 0.0
C564 C 0.39067 0.1263 0.33525 0.0
C565 C 0.34746 0.0715 0.33771 0.0
C566 C 0.367 0.08935 0.34423 0.0
C567 C 0.42699 0.13876 0.36135 0.0
C568 C 0.40563 0.12228 0.35597 0.0
H569 H 0.339 0.00976 0.33056 0.0
H570 H 0.37154 0.03971 0.33928 0.0
H571 H 0.36046 0.11344 0.31333 0.0
H572 H 0.44557 0.19843 0.35466 0.0
H573 H 0.40944 0.17242 0.34873 0.0
C574 C 0.32569 0.44799 0.36429 0.0
C575 C 0.33471 0.47147 0.37045 0.0
C576 C 0.34178 0.42812 0.36132 0.0
C577 C 0.40425 0.4139 0.3429 0.0
H578 H 0.3931 0.35045 0.37359 0.0
C579 C 0.47381 0.33411 0.33272 0.0
C580 C 0.4648 0.3099 0.33239 0.0
C581 C 0.45807 0.35383 0.33783 0.0
C582 C 0.3963 0.36789 0.36451 0.0
H583 H 0.36773 0.49239 0.37869 0.0
H584 H 0.39594 0.45767 0.37296 0.0
H585 H 0.36541 0.3847 0.38243 0.0
H586 H 0.43219 0.28725 0.33595 0.0
H587 H 0.40439 0.32166 0.3439 0.0
H588 H 0.43446 0.39713 0.32418 0.0
C589 C 0.37634 0.45473 0.37062 0.0
C590 C 0.38052 0.38755 0.36977 0.0
C591 C 0.36018 0.47452 0.37404 0.0
C592 C 0.43964 0.30575 0.33652 0.0
C593 C 0.42378 0.3255 0.34122 0.0
C594 C 0.4198 0.39416 0.3373 0.0
C595 C 0.36728 0.43141 0.36404 0.0
C596 C 0.38439 0.41074 0.35906 0.0
C597 C 0.43282 0.34982 0.34224 0.0
C598 C 0.41609 0.37086 0.34805 0.0
H599 H 0.30621 0.44495 0.3615 0.0
H600 H 0.33435 0.41035 0.35614 0.0
H601 H 0.4074 0.43153 0.33412 0.0
H602 H 0.49322 0.33774 0.32978 0.0
H603 H 0.4659 0.37214 0.33885 0.0
C604 C 0.02916 0.35426 0.37729 0.0
C605 C 0.02955 0.32921 0.37074 0.0
C606 C 0.04968 0.3692 0.373 0.0
C607 C 0.11623 0.36887 0.36445 0.0
H608 H 0.10575 0.42979 0.32866 0.0
C609 C 0.18785 0.44736 0.35813 0.0
C610 C 0.19276 0.45682 0.33464 0.0
C611 C 0.16874 0.43056 0.36178 0.0
C612 C 0.10893 0.41276 0.33853 0.0
H613 H 0.05209 0.29997 0.3555 0.0
H614 H 0.0882 0.32605 0.34861 0.0
H615 H 0.07073 0.40279 0.33761 0.0
H616 H 0.18064 0.4571 0.29684 0.0
H617 H 0.14664 0.42805 0.30339 0.0
H618 H 0.15437 0.37913 0.36581 0.0
C619 C 0.07188 0.33409 0.35678 0.0
C620 C 0.08892 0.39746 0.34383 0.0
C621 C 0.05121 0.31922 0.36067 0.0
C622 C 0.17755 0.44976 0.31504 0.0
C623 C 0.15812 0.43323 0.31878 0.0
C624 C 0.13619 0.38439 0.35952 0.0
C625 C 0.07112 0.3593 0.36248 0.0
C626 C 0.09239 0.37541 0.35687 0.0
C627 C 0.15363 0.42341 0.34219 0.0
C628 C 0.1327 0.40648 0.34653 0.0
H629 H 0.01273 0.36253 0.38499 0.0
H630 H 0.04876 0.38855 0.37777 0.0
H631 H 0.11935 0.35199 0.37457 0.0
H632 H 0.19822 0.45346 0.37392 0.0
H633 H 0.16526 0.42374 0.38012 0.0
C634 C 0.17767 0.04867 0.34813 0.0
C635 C 0.17308 0.03211 0.36744 0.0
C636 C 0.16255 0.06919 0.34459 0.0
C637 C 0.11861 0.11037 0.37508 0.0
H638 H 0.09238 0.12047 0.30976 0.0
C639 C 0.0391 0.17808 0.35701 0.0
C640 C 0.03924 0.19166 0.33514 0.0
C641 C 0.05625 0.15932 0.36087 0.0
C642 C 0.09983 0.11823 0.32802 0.0
H643 H 0.14953 0.0247 0.39871 0.0
H644 H 0.12333 0.0608 0.39267 0.0
H645 H 0.1215 0.08712 0.31715 0.0
H646 H 0.05696 0.19609 0.29991 0.0
H647 H 0.08753 0.16371 0.3068 0.0
H648 H 0.09731 0.14161 0.38599 0.0
C649 C 0.13859 0.05775 0.38024 0.0
C650 C 0.11646 0.09904 0.33225 0.0
C651 C 0.15353 0.03703 0.38363 0.0
C652 C 0.05657 0.18589 0.31697 0.0
C653 C 0.07397 0.16727 0.32092 0.0
C654 C 0.1022 0.12973 0.37081 0.0
C655 C 0.14271 0.0738 0.36045 0.0
C656 C 0.12585 0.09479 0.35586 0.0
C657 C 0.07407 0.15378 0.34297 0.0
C658 C 0.09237 0.13378 0.34727 0.0
H659 H 0.19259 0.0455 0.33533 0.0
H660 H 0.1663 0.08142 0.32935 0.0
H661 H 0.12581 0.10768 0.3934 0.0
H662 H 0.02537 0.18157 0.37097 0.0
H663 H 0.05524 0.1489 0.37775 0.0
C664 C 0.80652 0.93904 0.16906 0.0
C665 C 0.8119 0.96434 0.16975 0.0
C666 C 0.82526 0.92185 0.16486 0.0
C667 C 0.88422 0.91558 0.1342 0.0
H668 H 0.89567 0.85947 0.17664 0.0
C669 C 0.97113 0.85554 0.12467 0.0
C670 C 0.9699 0.83043 0.13077 0.0
C671 C 0.95097 0.87101 0.1287 0.0
C672 C 0.89248 0.87474 0.16428 0.0
H673 H 0.84095 0.99157 0.16711 0.0
H674 H 0.87366 0.96154 0.1593 0.0
H675 H 0.86205 0.88792 0.18573 0.0
H676 H 0.94618 0.80164 0.145 0.0
H677 H 0.91061 0.82837 0.15103 0.0
H678 H 0.91397 0.90231 0.11228 0.0
C679 C 0.855 0.95503 0.16208 0.0
C680 C 0.8733 0.8911 0.16963 0.0
C681 C 0.83636 0.97215 0.16673 0.0
C682 C 0.94777 0.82096 0.14027 0.0
C683 C 0.92743 0.83637 0.14392 0.0
C684 C 0.90309 0.89902 0.12858 0.0
C685 C 0.84959 0.92975 0.16088 0.0
C686 C 0.86923 0.91184 0.15482 0.0
C687 C 0.92886 0.8617 0.13853 0.0
C688 C 0.90774 0.87853 0.14372 0.0
H689 H 0.7878 0.9326 0.17155 0.0
H690 H 0.82065 0.90245 0.16401 0.0
H691 H 0.88119 0.93125 0.12228 0.0
H692 H 0.98799 0.86348 0.11755 0.0
H693 H 0.95306 0.89044 0.12473 0.0
C694 C 0.55769 0.81557 0.182 0.0
C695 C 0.54042 0.80952 0.16388 0.0
C696 C 0.57536 0.83385 0.17767 0.0
C697 C 0.60427 0.86995 0.12703 0.0
H698 H 0.62374 0.91352 0.17985 0.0
C699 C 0.65592 0.96233 0.11271 0.0
C700 C 0.67539 0.96754 0.12889 0.0
C701 C 0.64102 0.94161 0.11634 0.0
C702 C 0.61866 0.90132 0.16499 0.0
H703 H 0.52697 0.81877 0.12768 0.0
H704 H 0.55728 0.8509 0.12024 0.0
H705 H 0.59431 0.88058 0.18784 0.0
H706 H 0.69488 0.9546 0.16118 0.0
H707 H 0.66867 0.91868 0.16758 0.0
H708 H 0.62813 0.89137 0.10406 0.0
C709 C 0.55804 0.84093 0.1374 0.0
C710 C 0.60185 0.88236 0.16956 0.0
C711 C 0.54063 0.82248 0.14164 0.0
C712 C 0.68001 0.95121 0.14838 0.0
C713 C 0.66494 0.93069 0.15216 0.0
C714 C 0.62086 0.8891 0.12241 0.0
C715 C 0.57578 0.84676 0.15527 0.0
C716 C 0.59432 0.86648 0.15061 0.0
C717 C 0.64512 0.92585 0.13636 0.0
C718 C 0.62816 0.90502 0.14133 0.0
H719 H 0.55782 0.80584 0.19933 0.0
H720 H 0.58885 0.83762 0.19178 0.0
H721 H 0.59934 0.85781 0.11208 0.0
H722 H 0.65189 0.97447 0.09748 0.0
H723 H 0.62578 0.93837 0.10394 0.0
C724 C 0.53557 0.65138 0.11747 0.0
C725 C 0.53084 0.67157 0.13291 0.0
C726 C 0.55644 0.63671 0.12109 0.0
C727 C 0.59935 0.61717 0.16892 0.0
H728 H 0.64075 0.59656 0.11481 0.0
C729 C 0.68792 0.55961 0.18386 0.0
C730 C 0.69319 0.54155 0.16629 0.0
C731 C 0.66887 0.57654 0.17984 0.0
C732 C 0.62921 0.60188 0.13011 0.0
H733 H 0.54463 0.69238 0.16401 0.0
H734 H 0.58083 0.66662 0.17037 0.0
H735 H 0.60606 0.62406 0.1072 0.0
H736 H 0.68207 0.52583 0.13159 0.0
H737 H 0.64861 0.55487 0.1247 0.0
H738 H 0.62196 0.59453 0.19178 0.0
C739 C 0.56834 0.66215 0.15554 0.0
C740 C 0.6094 0.6177 0.12572 0.0
C741 C 0.54766 0.67697 0.15178 0.0
C742 C 0.67877 0.54012 0.14504 0.0
C743 C 0.65964 0.55681 0.14111 0.0
C744 C 0.61901 0.60114 0.17329 0.0
C745 C 0.57284 0.64176 0.14037 0.0
C746 C 0.59422 0.62544 0.14506 0.0
C747 C 0.65454 0.57539 0.15834 0.0
C748 C 0.63413 0.59317 0.15391 0.0
H749 H 0.52302 0.64674 0.10276 0.0
H750 H 0.55939 0.621 0.10921 0.0
H751 H 0.58776 0.62263 0.18414 0.0
H752 H 0.69876 0.56086 0.20047 0.0
H753 H 0.66561 0.5907 0.19343 0.0
C754 C 0.93726 0.69609 0.16779 0.0
C755 C 0.96258 0.69084 0.16873 0.0
C756 C 0.92024 0.67731 0.1631 0.0
C757 C 0.91457 0.61854 0.13188 0.0
H758 H 0.85855 0.60619 0.17418 0.0
C759 C 0.85566 0.53076 0.12234 0.0
C760 C 0.83058 0.53164 0.12862 0.0
C761 C 0.87085 0.55118 0.12617 0.0
C762 C 0.87379 0.60963 0.16185 0.0
H763 H 0.99002 0.662 0.16591 0.0
H764 H 0.96031 0.62925 0.15726 0.0
H765 H 0.88656 0.64008 0.18346 0.0
H766 H 0.80151 0.55501 0.14282 0.0
H767 H 0.82771 0.591 0.1485 0.0
H768 H 0.90172 0.5887 0.10983 0.0
C769 C 0.95364 0.64782 0.16023 0.0
C770 C 0.8899 0.62898 0.16731 0.0
C771 C 0.97058 0.66649 0.16537 0.0
C772 C 0.82082 0.55369 0.13799 0.0
C773 C 0.83593 0.57427 0.14144 0.0
C774 C 0.89826 0.59948 0.12615 0.0
C775 C 0.92835 0.65309 0.15887 0.0
C776 C 0.91061 0.63337 0.15256 0.0
C777 C 0.86126 0.57318 0.13599 0.0
C778 C 0.87781 0.59451 0.14124 0.0
H779 H 0.93067 0.71472 0.17054 0.0
H780 H 0.90082 0.6818 0.16214 0.0
H781 H 0.93025 0.6218 0.12002 0.0
H782 H 0.8638 0.51397 0.11529 0.0
H783 H 0.89029 0.54937 0.12212 0.0
C784 C 0.55368 0.8198 0.63955 0.0
C785 C 0.53199 0.82997 0.62978 0.0
C786 C 0.57466 0.83438 0.64281 0.0
C787 C 0.60171 0.89558 0.62631 0.0
H788 H 0.64051 0.88502 0.68506 0.0
C789 C 0.66713 0.96865 0.66622 0.0
C790 C 0.69146 0.96091 0.67027 0.0
C791 C 0.64877 0.95147 0.66087 0.0
C792 C 0.62992 0.88801 0.6685 0.0
H793 H 0.51544 0.86336 0.61545 0.0
H794 H 0.55152 0.88893 0.62192 0.0
H795 H 0.60653 0.85714 0.67558 0.0
H796 H 0.7156 0.92927 0.67305 0.0
H797 H 0.68313 0.89898 0.66432 0.0
H798 H 0.62454 0.92716 0.61999 0.0
C799 C 0.55273 0.86956 0.62646 0.0
C800 C 0.61054 0.87198 0.66293 0.0
C801 C 0.53191 0.85489 0.62285 0.0
C802 C 0.69697 0.93564 0.66982 0.0
C803 C 0.67846 0.91838 0.66491 0.0
C804 C 0.62078 0.91181 0.63213 0.0
C805 C 0.57434 0.85958 0.63671 0.0
C806 C 0.596 0.87568 0.64186 0.0
C807 C 0.65431 0.92622 0.65996 0.0
C808 C 0.6349 0.90829 0.65337 0.0
H809 H 0.55439 0.80059 0.6449 0.0
H810 H 0.59108 0.82589 0.65027 0.0
H811 H 0.59139 0.89873 0.60963 0.0
H812 H 0.66247 0.98806 0.66636 0.0
H813 H 0.63021 0.95793 0.65733 0.0
C814 C 0.64279 0.53195 0.62004 0.0
C815 C 0.66781 0.53272 0.62655 0.0
C816 C 0.62759 0.55235 0.62398 0.0
C817 C 0.6245 0.61012 0.66068 0.0
H818 H 0.56819 0.62317 0.61896 0.0
C819 C 0.56152 0.69673 0.66789 0.0
C820 C 0.53617 0.69167 0.66865 0.0
C821 C 0.57841 0.6779 0.66297 0.0
C822 C 0.58382 0.61965 0.63079 0.0
H823 H 0.69676 0.55594 0.64124 0.0
H824 H 0.67059 0.59187 0.64706 0.0
H825 H 0.5967 0.59019 0.60823 0.0
H826 H 0.5085 0.66311 0.6653 0.0
H827 H 0.53801 0.63024 0.65624 0.0
H828 H 0.61174 0.64019 0.68282 0.0
C829 C 0.66241 0.57523 0.63974 0.0
C830 C 0.60012 0.60068 0.62475 0.0
C831 C 0.67752 0.55469 0.63618 0.0
C832 C 0.52798 0.66743 0.6649 0.0
C833 C 0.5448 0.64872 0.65953 0.0
C834 C 0.60841 0.62938 0.66647 0.0
C835 C 0.63711 0.5742 0.63417 0.0
C836 C 0.62054 0.59541 0.63977 0.0
C837 C 0.57014 0.65382 0.65832 0.0
C838 C 0.58777 0.63409 0.65175 0.0
H839 H 0.63468 0.51524 0.61277 0.0
H840 H 0.60817 0.5506 0.6198 0.0
H841 H 0.63969 0.60643 0.67299 0.0
H842 H 0.56824 0.71527 0.67091 0.0
H843 H 0.59787 0.68226 0.66213 0.0
C844 C 0.8186 0.54271 0.64066 0.0
C845 C 0.80558 0.54305 0.66285 0.0
C846 C 0.83786 0.55924 0.63653 0.0
C847 C 0.8814 0.60072 0.66895 0.0
H848 H 0.89146 0.62723 0.60369 0.0
C849 C 0.95282 0.67674 0.6484 0.0
C850 C 0.96878 0.67215 0.62859 0.0
C851 C 0.93204 0.66204 0.6522 0.0
C852 C 0.88893 0.61987 0.62196 0.0
H853 H 0.80269 0.56029 0.69843 0.0
H854 H 0.83597 0.58986 0.69109 0.0
H855 H 0.85666 0.5999 0.6115 0.0
H856 H 0.97487 0.64898 0.59678 0.0
H857 H 0.93829 0.62352 0.60327 0.0
H858 H 0.91353 0.62108 0.67939 0.0
C859 C 0.83154 0.57667 0.67689 0.0
C860 C 0.86905 0.60412 0.62646 0.0
C861 C 0.8124 0.55989 0.68109 0.0
C862 C 0.96301 0.65299 0.61223 0.0
C863 C 0.94202 0.63847 0.61588 0.0
C864 C 0.9011 0.61669 0.66449 0.0
C865 C 0.84452 0.57657 0.65451 0.0
C866 C 0.86513 0.59415 0.64997 0.0
C867 C 0.92655 0.64262 0.63613 0.0
C868 C 0.90517 0.62628 0.64092 0.0
H869 H 0.81415 0.52935 0.6266 0.0
H870 H 0.84781 0.5581 0.61937 0.0
H871 H 0.87928 0.59311 0.68716 0.0
H872 H 0.95667 0.69134 0.66137 0.0
H873 H 0.92028 0.66583 0.66779 0.0
C874 C 0.85019 0.96557 0.61627 0.0
C875 C 0.83008 0.9694 0.63208 0.0
C876 C 0.8658 0.94532 0.61957 0.0
C877 C 0.88822 0.90347 0.66695 0.0
H878 H 0.90807 0.8617 0.61285 0.0
C879 C 0.94693 0.81582 0.68196 0.0
C880 C 0.96421 0.80973 0.66385 0.0
C881 C 0.93004 0.8349 0.67804 0.0
C882 C 0.90303 0.87337 0.62813 0.0
H883 H 0.81039 0.95464 0.66348 0.0
H884 H 0.83783 0.91958 0.66932 0.0
H885 H 0.87966 0.89573 0.60558 0.0
H886 H 0.97857 0.81971 0.62818 0.0
H887 H 0.94964 0.85325 0.62148 0.0
H888 H 0.91202 0.88173 0.68944 0.0
C889 C 0.84149 0.93227 0.65444 0.0
C890 C 0.88666 0.8928 0.62393 0.0
C891 C 0.82571 0.95229 0.65097 0.0
C892 C 0.96487 0.82349 0.6421 0.0
C893 C 0.94824 0.84273 0.63829 0.0
C894 C 0.90484 0.88425 0.67111 0.0
C895 C 0.86179 0.9287 0.63891 0.0
C896 C 0.87907 0.90801 0.6433 0.0
C897 C 0.93042 0.84858 0.65609 0.0
C898 C 0.91249 0.86892 0.65176 0.0
H899 H 0.85405 0.97836 0.60153 0.0
H900 H 0.8814 0.94303 0.6074 0.0
H901 H 0.8829 0.91512 0.68217 0.0
H902 H 0.94615 0.80547 0.69892 0.0
H903 H 0.91644 0.83863 0.69207 0.0
C904 C 0.18601 0.05907 0.81547 0.0
C905 C 0.19191 0.04172 0.83357 0.0
C906 C 0.16692 0.07598 0.81929 0.0
C907 C 0.12803 0.1028 0.86897 0.0
H908 H 0.08632 0.12262 0.81479 0.0
C909 C 0.03498 0.15397 0.88064 0.0
C910 C 0.03073 0.174 0.86485 0.0
C911 C 0.05559 0.13884 0.87738 0.0
C912 C 0.09797 0.1174 0.83004 0.0
H913 H 0.18158 0.02724 0.8691 0.0
H914 H 0.14806 0.0562 0.87562 0.0
H915 H 0.12007 0.09387 0.8076 0.0
H916 H 0.04511 0.19409 0.83352 0.0
H917 H 0.08082 0.16748 0.82774 0.0
H918 H 0.10532 0.12587 0.89148 0.0
C919 C 0.15873 0.05765 0.85891 0.0
C920 C 0.11739 0.10099 0.82593 0.0
C921 C 0.17797 0.04101 0.8552 0.0
C922 C 0.04778 0.17881 0.84602 0.0
C923 C 0.06817 0.16351 0.84259 0.0
C924 C 0.10842 0.11896 0.87311 0.0
C925 C 0.15306 0.07553 0.84113 0.0
C926 C 0.13266 0.09342 0.84535 0.0
C927 C 0.07217 0.14326 0.85809 0.0
C928 C 0.0932 0.12641 0.8537 0.0
H929 H 0.19649 0.05988 0.79859 0.0
H930 H 0.16329 0.08962 0.80527 0.0
H931 H 0.13967 0.09783 0.88429 0.0
H932 H 0.02225 0.14979 0.89535 0.0
H933 H 0.05819 0.12327 0.88953 0.0
C934 C 0.35556 0.03089 0.87757 0.0
C935 C 0.3304 0.03219 0.87172 0.0
C936 C 0.37099 0.05111 0.87358 0.0
C937 C 0.37395 0.11015 0.83863 0.0
H938 H 0.43179 0.12061 0.879 0.0
C939 C 0.43779 0.19641 0.83421 0.0
C940 C 0.46291 0.191 0.8313 0.0
C941 C 0.42086 0.17755 0.83889 0.0
C942 C 0.41572 0.11781 0.86756 0.0
H943 H 0.30143 0.05603 0.85814 0.0
H944 H 0.32803 0.09172 0.85234 0.0
H945 H 0.4031 0.08766 0.88933 0.0
H946 H 0.49014 0.16184 0.83071 0.0
H947 H 0.46058 0.12886 0.83953 0.0
H948 H 0.38644 0.14104 0.81743 0.0
C949 C 0.33615 0.07483 0.8591 0.0
C950 C 0.39931 0.09884 0.87335 0.0
C951 C 0.32081 0.05442 0.86263 0.0
C952 C 0.47083 0.16643 0.83279 0.0
C953 C 0.454 0.14764 0.83799 0.0
C954 C 0.39013 0.12945 0.83317 0.0
C955 C 0.36157 0.07334 0.86411 0.0
C956 C 0.37833 0.0945 0.85878 0.0
C957 C 0.42891 0.15307 0.8412 0.0
C958 C 0.4113 0.13323 0.84741 0.0
H959 H 0.36356 0.01393 0.88436 0.0
H960 H 0.39046 0.04894 0.87726 0.0
H961 H 0.35834 0.10722 0.82665 0.0
H962 H 0.43126 0.21523 0.83293 0.0
H963 H 0.40159 0.18214 0.8413 0.0
C964 C 0.44761 0.31926 0.86004 0.0
C965 C 0.46942 0.32906 0.86991 0.0
C966 C 0.42689 0.33423 0.85666 0.0
C967 C 0.40093 0.39597 0.87313 0.0
H968 H 0.3611 0.3855 0.81506 0.0
C969 C 0.33512 0.46936 0.83408 0.0
C970 C 0.3107 0.4617 0.83038 0.0
C971 C 0.35352 0.45214 0.83921 0.0
C972 C 0.37198 0.38848 0.83142 0.0
H973 H 0.48655 0.36219 0.88412 0.0
H974 H 0.45099 0.38841 0.8774 0.0
H975 H 0.39493 0.35733 0.82417 0.0
H976 H 0.28646 0.43011 0.828 0.0
H977 H 0.31896 0.39975 0.83637 0.0
H978 H 0.37852 0.42781 0.87963 0.0
C979 C 0.44942 0.36905 0.87293 0.0
C980 C 0.39129 0.37228 0.83679 0.0
C981 C 0.46995 0.35401 0.87669 0.0
C982 C 0.30514 0.43644 0.831 0.0
C983 C 0.32368 0.41913 0.83568 0.0
C984 C 0.38194 0.41238 0.8675 0.0
C985 C 0.42763 0.35944 0.86269 0.0
C986 C 0.40618 0.3759 0.85763 0.0
C987 C 0.34794 0.4269 0.84024 0.0
C988 C 0.36741 0.40889 0.84653 0.0
H989 H 0.44657 0.30004 0.85479 0.0
H990 H 0.41035 0.32599 0.84922 0.0
H991 H 0.4115 0.39909 0.88965 0.0
H992 H 0.33984 0.48875 0.83379 0.0
H993 H 0.37214 0.45855 0.84244 0.0
C994 C 0.14597 0.47267 0.87363 0.0
C995 C 0.17126 0.47096 0.86851 0.0
C996 C 0.13046 0.45247 0.86989 0.0
C997 C 0.12771 0.39262 0.83655 0.0
H998 H 0.06909 0.38357 0.87618 0.0
C999 C 0.06303 0.3071 0.83206 0.0
C1000 C 0.03796 0.31271 0.82912 0.0
C1001 C 0.08009 0.32582 0.83677 0.0
C1002 C 0.08538 0.38597 0.86495 0.0
H1003 H 0.20035 0.44643 0.85645 0.0
H1004 H 0.17356 0.41084 0.851 0.0
H1005 H 0.0979 0.41649 0.88624 0.0
H1006 H 0.01096 0.34209 0.82845 0.0
H1007 H 0.04075 0.37483 0.83725 0.0
H1008 H 0.11528 0.36144 0.81578 0.0
C1009 C 0.16544 0.42802 0.85705 0.0
C1010 C 0.10186 0.40491 0.87058 0.0
C1011 C 0.18088 0.44837 0.86037 0.0
C1012 C 0.03023 0.33734 0.83058 0.0
C1013 C 0.04719 0.35599 0.83578 0.0
C1014 C 0.11144 0.37338 0.83122 0.0
C1015 C 0.13992 0.42989 0.86136 0.0
C1016 C 0.12311 0.40874 0.85626 0.0
C1017 C 0.07223 0.35037 0.83904 0.0
C1018 C 0.08999 0.3701 0.84518 0.0
H1019 H 0.13794 0.48989 0.87971 0.0
H1020 H 0.11091 0.4549 0.87301 0.0
H1021 H 0.14357 0.39516 0.82478 0.0
H1022 H 0.06942 0.28824 0.83077 0.0
H1023 H 0.09932 0.32108 0.83922 0.0
C1024 C 0.57548 0.19404 0.29248 0.0
C1025 C 0.57809 0.18756 0.31728 0.0
C1026 C 0.59094 0.18364 0.27473 0.0
C1027 C 0.64975 0.14963 0.2664 0.0
H1028 H 0.61748 0.12328 0.20877 0.0
C1029 C 0.69481 0.07726 0.20217 0.0
C1030 C 0.68964 0.07906 0.177 0.0
C1031 C 0.68314 0.09298 0.21891 0.0
C1032 C 0.62691 0.13085 0.22455 0.0
H1033 H 0.59969 0.16587 0.34294 0.0
H1034 H 0.62634 0.1478 0.3121 0.0
H1035 H 0.59376 0.14716 0.23816 0.0
H1036 H 0.66926 0.09972 0.14959 0.0
H1037 H 0.64944 0.12718 0.17858 0.0
H1038 H 0.68286 0.13296 0.25288 0.0
C1039 C 0.6125 0.16095 0.30632 0.0
C1040 C 0.61328 0.14459 0.24139 0.0
C1041 C 0.59703 0.1712 0.324 0.0
C1042 C 0.67341 0.09755 0.16888 0.0
C1043 C 0.66192 0.11326 0.18552 0.0
C1044 C 0.66342 0.13591 0.2495 0.0
C1045 C 0.60941 0.16673 0.28145 0.0
C1046 C 0.62447 0.15394 0.26263 0.0
C1047 C 0.6662 0.11085 0.21077 0.0
C1048 C 0.65211 0.1262 0.22846 0.0
H1049 H 0.56114 0.20664 0.28671 0.0
H1050 H 0.58828 0.18864 0.2557 0.0
H1051 H 0.65896 0.15682 0.28248 0.0
H1052 H 0.70721 0.06322 0.209 0.0
H1053 H 0.68673 0.09054 0.23827 0.0
C1054 C 0.30912 0.60243 0.32068 0.0
C1055 C 0.30637 0.57729 0.31545 0.0
C1056 C 0.31926 0.61839 0.30335 0.0
C1057 C 0.34087 0.62209 0.2381 0.0
H1058 H 0.3823 0.67364 0.26486 0.0
C1059 C 0.39686 0.68474 0.17406 0.0
C1060 C 0.42041 0.69202 0.1818 0.0
C1061 C 0.38044 0.67379 0.19045 0.0
C1062 C 0.37108 0.65919 0.25699 0.0
H1063 H 0.31136 0.54904 0.28798 0.0
H1064 H 0.33037 0.57647 0.25806 0.0
H1065 H 0.35854 0.64795 0.29224 0.0
H1066 H 0.44523 0.69408 0.21272 0.0
H1067 H 0.41722 0.67373 0.24117 0.0
H1068 H 0.35502 0.63197 0.20302 0.0
C1069 C 0.32392 0.58429 0.27513 0.0
C1070 C 0.35693 0.64467 0.27276 0.0
C1071 C 0.31308 0.56845 0.29228 0.0
C1072 C 0.42705 0.68881 0.2064 0.0
C1073 C 0.41087 0.67721 0.2227 0.0
C1074 C 0.35548 0.63623 0.22238 0.0
C1075 C 0.32769 0.60942 0.28065 0.0
C1076 C 0.34168 0.62579 0.26358 0.0
C1077 C 0.38744 0.66915 0.21485 0.0
C1078 C 0.37092 0.65493 0.23158 0.0
H1079 H 0.30386 0.60967 0.33843 0.0
H1080 H 0.32099 0.63768 0.30808 0.0
H1081 H 0.32912 0.6081 0.23017 0.0
H1082 H 0.39123 0.68728 0.15518 0.0
H1083 H 0.36238 0.66866 0.18379 0.0
C1084 C 0.8069 0.42516 0.20507 0.0
C1085 C 0.81037 0.42168 0.1798 0.0
C1086 C 0.81782 0.40903 0.22193 0.0
C1087 C 0.87051 0.36642 0.22613 0.0
H1088 H 0.84031 0.34617 0.28724 0.0
C1089 C 0.92152 0.30328 0.29432 0.0
C1090 C 0.92066 0.31095 0.31889 0.0
C1091 C 0.90578 0.31387 0.27693 0.0
C1092 C 0.84901 0.35175 0.27026 0.0
H1093 H 0.82657 0.39761 0.15238 0.0
H1094 H 0.84508 0.36949 0.1816 0.0
H1095 H 0.81656 0.37055 0.25791 0.0
H1096 H 0.90189 0.33514 0.34457 0.0
H1097 H 0.8749 0.35362 0.31436 0.0
H1098 H 0.90306 0.34814 0.23856 0.0
C1099 C 0.83459 0.38499 0.18849 0.0
C1100 C 0.83542 0.36575 0.25351 0.0
C1101 C 0.82388 0.4011 0.17174 0.0
C1102 C 0.90319 0.32882 0.32579 0.0
C1103 C 0.8875 0.33931 0.30849 0.0
C1104 C 0.88406 0.35247 0.24283 0.0
C1105 C 0.83227 0.38909 0.21377 0.0
C1106 C 0.8461 0.3734 0.23133 0.0
C1107 C 0.88881 0.33224 0.2838 0.0
C1108 C 0.87357 0.34517 0.26521 0.0
H1109 H 0.79658 0.44083 0.21182 0.0
H1110 H 0.81577 0.41274 0.24131 0.0
H1111 H 0.87946 0.37238 0.20941 0.0
H1112 H 0.93467 0.28949 0.28841 0.0
H1113 H 0.90704 0.30783 0.25806 0.0
C1114 C 0.19773 0.92081 0.29443 0.0
C1115 C 0.18941 0.9208 0.31882 0.0
C1116 C 0.18727 0.90482 0.2772 0.0
C1117 C 0.14856 0.84859 0.27095 0.0
H1118 H 0.13024 0.87782 0.2088 0.0
C1119 C 0.07647 0.80592 0.20472 0.0
C1120 C 0.08042 0.80907 0.17947 0.0
C1121 C 0.09243 0.81686 0.22173 0.0
C1122 C 0.13557 0.86918 0.22588 0.0
H1123 H 0.16416 0.90328 0.34436 0.0
H1124 H 0.14591 0.8758 0.3144 0.0
H1125 H 0.15393 0.90178 0.23807 0.0
H1126 H 0.10518 0.82458 0.15228 0.0
H1127 H 0.13307 0.84304 0.18176 0.0
H1128 H 0.12972 0.81609 0.25882 0.0
C1129 C 0.16063 0.88795 0.30857 0.0
C1130 C 0.1492 0.88295 0.24267 0.0
C1131 C 0.17099 0.90391 0.32573 0.0
C1132 C 0.10134 0.82215 0.17161 0.0
C1133 C 0.11731 0.83285 0.18852 0.0
C1134 C 0.13491 0.83477 0.25411 0.0
C1135 C 0.16837 0.88843 0.28404 0.0
C1136 C 0.15566 0.87293 0.2655 0.0
C1137 C 0.11269 0.83096 0.21376 0.0
C1138 C 0.12811 0.84499 0.23144 0.0
H1139 H 0.21196 0.93348 0.28852 0.0
H1140 H 0.19384 0.90542 0.25848 0.0
H1141 H 0.1535 0.84025 0.2883 0.0
H1142 H 0.06051 0.79594 0.21132 0.0
H1143 H 0.08829 0.81513 0.24106 0.0
C1144 C 0.32549 0.90258 0.82994 0.0
C1145 C 0.31103 0.92238 0.82159 0.0
C1146 C 0.3366 0.88646 0.81342 0.0
C1147 C 0.33669 0.86578 0.74872 0.0
H1148 H 0.40504 0.85008 0.76251 0.0
C1149 C 0.40398 0.83074 0.67523 0.0
C1150 C 0.42196 0.81322 0.68168 0.0
C1151 C 0.38842 0.84081 0.69291 0.0
C1152 C 0.38585 0.85388 0.75858 0.0
H1153 H 0.29614 0.94019 0.78926 0.0
H1154 H 0.31597 0.91217 0.76024 0.0
H1155 H 0.38135 0.87402 0.7919 0.0
H1156 H 0.43711 0.792 0.71178 0.0
H1157 H 0.40975 0.80967 0.74282 0.0
H1158 H 0.34147 0.84605 0.71508 0.0
C1159 C 0.31845 0.909 0.77967 0.0
C1160 C 0.37224 0.86765 0.77542 0.0
C1161 C 0.30717 0.92512 0.79628 0.0
C1162 C 0.42353 0.8055 0.70622 0.0
C1163 C 0.40795 0.81571 0.72399 0.0
C1164 C 0.35033 0.852 0.73185 0.0
C1165 C 0.33369 0.88977 0.78807 0.0
C1166 C 0.34758 0.874 0.77059 0.0
C1167 C 0.39041 0.83369 0.71754 0.0
C1168 C 0.37516 0.84617 0.73645 0.0
H1169 H 0.32858 0.89968 0.84934 0.0
H1170 H 0.34775 0.87153 0.82053 0.0
H1171 H 0.31764 0.87003 0.74462 0.0
H1172 H 0.40212 0.83709 0.65651 0.0
H1173 H 0.37538 0.85485 0.68734 0.0
C1174 C 0.57706 0.30745 0.79469 0.0
C1175 C 0.58008 0.31115 0.81999 0.0
C1176 C 0.59298 0.3189 0.77797 0.0
C1177 C 0.63379 0.37305 0.77385 0.0
H1178 H 0.65535 0.34318 0.71304 0.0
C1179 C 0.69495 0.42586 0.70488 0.0
C1180 C 0.68728 0.42434 0.68034 0.0
C1181 C 0.68498 0.41 0.72255 0.0
C1182 C 0.6494 0.3518 0.72993 0.0
H1183 H 0.60315 0.32841 0.8476 0.0
H1184 H 0.63092 0.34785 0.81862 0.0
H1185 H 0.63176 0.31878 0.74245 0.0
H1186 H 0.66367 0.40433 0.65505 0.0
H1187 H 0.64628 0.37716 0.6857 0.0
H1188 H 0.65092 0.40618 0.7612 0.0
C1189 C 0.61592 0.33675 0.8116 0.0
C1190 C 0.63585 0.33782 0.74673 0.0
C1191 C 0.60002 0.32549 0.82822 0.0
C1192 C 0.66999 0.40616 0.67378 0.0
C1193 C 0.66013 0.39035 0.69135 0.0
C1194 C 0.64731 0.387 0.75708 0.0
C1195 C 0.61226 0.33412 0.78628 0.0
C1196 C 0.62768 0.34837 0.76879 0.0
C1197 C 0.66725 0.39224 0.71599 0.0
C1198 C 0.65501 0.37665 0.73478 0.0
H1199 H 0.56188 0.2965 0.7878 0.0
H1200 H 0.58958 0.3166 0.75856 0.0
H1201 H 0.62744 0.3819 0.79047 0.0
H1202 H 0.70829 0.43957 0.71052 0.0
H1203 H 0.69101 0.41174 0.74138 0.0
C1204 C 0.08055 0.69582 0.70203 0.0
C1205 C 0.07957 0.68702 0.67784 0.0
C1206 C 0.09672 0.68522 0.719 0.0
C1207 C 0.15207 0.64521 0.72434 0.0
H1208 H 0.12491 0.62988 0.78821 0.0
C1209 C 0.19573 0.57496 0.79207 0.0
C1210 C 0.19351 0.58009 0.8172 0.0
C1211 C 0.1846 0.59044 0.77473 0.0
C1212 C 0.13298 0.63436 0.77061 0.0
H1213 H 0.09537 0.66057 0.65239 0.0
H1214 H 0.12314 0.64205 0.68195 0.0
H1215 H 0.10031 0.65294 0.75896 0.0
H1216 H 0.17964 0.60642 0.84376 0.0
H1217 H 0.16087 0.63349 0.8137 0.0
H1218 H 0.18464 0.62617 0.73598 0.0
C1219 C 0.11167 0.65729 0.68779 0.0
C1220 C 0.11884 0.64762 0.75384 0.0
C1221 C 0.09554 0.66782 0.67088 0.0
C1222 C 0.18131 0.6017 0.82455 0.0
C1223 C 0.17043 0.61719 0.80732 0.0
C1224 C 0.16626 0.63192 0.74117 0.0
C1225 C 0.11227 0.66565 0.71211 0.0
C1226 C 0.12812 0.65305 0.73044 0.0
C1227 C 0.17125 0.61137 0.78227 0.0
C1228 C 0.15682 0.62624 0.76447 0.0
H1229 H 0.06861 0.71065 0.70797 0.0
H1230 H 0.09695 0.69227 0.73756 0.0
H1231 H 0.15984 0.64934 0.70653 0.0
H1232 H 0.20502 0.55843 0.78588 0.0
H1233 H 0.1855 0.5854 0.75556 0.0
C1234 C 0.92825 0.19002 0.79084 0.0
C1235 C 0.92062 0.19453 0.81494 0.0
C1236 C 0.91222 0.17879 0.77419 0.0
C1237 C 0.85435 0.14136 0.77326 0.0
H1238 H 0.8628 0.14869 0.70323 0.0
C1239 C 0.8122 0.07199 0.70518 0.0
C1240 C 0.8076 0.0795 0.68106 0.0
C1241 C 0.82315 0.08823 0.72182 0.0
C1242 C 0.85967 0.14668 0.72271 0.0
H1243 H 0.89001 0.19256 0.84027 0.0
H1244 H 0.86143 0.17474 0.8109 0.0
H1245 H 0.88612 0.17462 0.73069 0.0
H1246 H 0.80912 0.1101 0.65568 0.0
H1247 H 0.82644 0.13902 0.68503 0.0
H1248 H 0.82683 0.11447 0.76528 0.0
C1249 C 0.88008 0.17848 0.80497 0.0
C1250 C 0.87356 0.16131 0.73858 0.0
C1251 C 0.89635 0.18898 0.82179 0.0
C1252 C 0.81277 0.10385 0.67418 0.0
C1253 C 0.82299 0.12032 0.69098 0.0
C1254 C 0.83996 0.12722 0.75738 0.0
C1255 C 0.88798 0.17247 0.78113 0.0
C1256 C 0.87153 0.15851 0.76412 0.0
C1257 C 0.82909 0.11256 0.71485 0.0
C1258 C 0.84276 0.12925 0.73185 0.0
H1259 H 0.947 0.19396 0.78525 0.0
H1260 H 0.91929 0.17418 0.75623 0.0
H1261 H 0.85235 0.13822 0.79274 0.0
H1262 H 0.80857 0.05318 0.71079 0.0
H1263 H 0.82784 0.08126 0.7398 0.0
C1264 C 0.59171 0.13635 0.43793 0.0
C1265 C 0.57027 0.1468 0.44789 0.0
C1266 C 0.60864 0.12425 0.45292 0.0
C1267 C 0.61684 0.09711 0.51509 0.0
H1268 H 0.68607 0.10539 0.49942 0.0
C1269 C 0.69693 0.07097 0.58053 0.0
C1270 C 0.71636 0.05752 0.57005 0.0
C1271 C 0.67828 0.08072 0.5658 0.0
C1272 C 0.6668 0.10275 0.50389 0.0
H1273 H 0.54957 0.15256 0.48134 0.0
H1274 H 0.57956 0.13213 0.50778 0.0
H1275 H 0.65504 0.12484 0.47375 0.0
H1276 H 0.73171 0.04374 0.53612 0.0
H1277 H 0.69934 0.06133 0.51017 0.0
H1278 H 0.62897 0.07561 0.5458 0.0
C1279 C 0.58305 0.13273 0.48826 0.0
C1280 C 0.64895 0.11379 0.48912 0.0
C1281 C 0.56588 0.14455 0.47314 0.0
C1282 C 0.71691 0.05409 0.54458 0.0
C1283 C 0.69846 0.06414 0.5298 0.0
C1284 C 0.63477 0.08633 0.53007 0.0
C1285 C 0.60479 0.12264 0.47835 0.0
C1286 C 0.62371 0.111 0.4944 0.0
C1287 C 0.67899 0.07758 0.54027 0.0
C1288 C 0.6599 0.08894 0.52451 0.0
H1289 H 0.59547 0.13754 0.41847 0.0
H1290 H 0.62479 0.11617 0.44449 0.0
H1291 H 0.59762 0.09425 0.51956 0.0
H1292 H 0.69641 0.07432 0.60009 0.0
H1293 H 0.66365 0.09129 0.57428 0.0
C1294 C 0.36056 0.59527 0.43768 0.0
C1295 C 0.34875 0.57456 0.44771 0.0
C1296 C 0.37243 0.61224 0.45279 0.0
C1297 C 0.39702 0.62121 0.5157 0.0
H1298 H 0.39107 0.69031 0.4985 0.0
C1299 C 0.42432 0.70115 0.58059 0.0
C1300 C 0.43824 0.72023 0.5701 0.0
C1301 C 0.41417 0.68271 0.56585 0.0
C1302 C 0.39307 0.67107 0.5034 0.0
H1303 H 0.34037 0.55523 0.48145 0.0
H1304 H 0.36056 0.58525 0.50799 0.0
H1305 H 0.37181 0.65925 0.47269 0.0
H1306 H 0.45236 0.7353 0.53618 0.0
H1307 H 0.43424 0.70326 0.51024 0.0
H1308 H 0.41783 0.63333 0.54683 0.0
C1309 C 0.36109 0.58813 0.48837 0.0
C1310 C 0.38211 0.65323 0.48858 0.0
C1311 C 0.34942 0.57096 0.47318 0.0
C1312 C 0.44165 0.72074 0.54463 0.0
C1313 C 0.43128 0.70248 0.52986 0.0
C1314 C 0.40778 0.63912 0.53068 0.0
C1315 C 0.37254 0.60913 0.47836 0.0
C1316 C 0.38406 0.62804 0.49443 0.0
C1317 C 0.41744 0.68328 0.54033 0.0
C1318 C 0.406 0.66421 0.52459 0.0
H1319 H 0.36058 0.59844 0.41808 0.0
H1320 H 0.38154 0.62785 0.44436 0.0
H1321 H 0.39918 0.602 0.52061 0.0
H1322 H 0.42099 0.70068 0.60015 0.0
H1323 H 0.40328 0.66833 0.57436 0.0
C1324 C 0.93135 0.35072 0.47517 0.0
C1325 C 0.92772 0.34963 0.44974 0.0
C1326 C 0.91402 0.36238 0.49022 0.0
C1327 C 0.84871 0.38349 0.48963 0.0
H1328 H 0.86784 0.41827 0.54868 0.0
C1329 C 0.78181 0.44468 0.54482 0.0
C1330 C 0.78076 0.43979 0.57003 0.0
C1331 C 0.80027 0.43415 0.53039 0.0
C1332 C 0.8623 0.40851 0.53227 0.0
H1333 H 0.9038 0.36076 0.41994 0.0
H1334 H 0.87427 0.38197 0.44585 0.0
H1335 H 0.8995 0.39962 0.5228 0.0
H1336 H 0.79762 0.41971 0.59993 0.0
H1337 H 0.83055 0.40194 0.57481 0.0
H1338 H 0.81156 0.39302 0.49887 0.0
C1339 C 0.88987 0.37306 0.45446 0.0
C1340 C 0.88038 0.39771 0.5175 0.0
C1341 C 0.90692 0.36106 0.43954 0.0
C1342 C 0.79847 0.42424 0.58062 0.0
C1343 C 0.81719 0.41403 0.56628 0.0
C1344 C 0.83073 0.39461 0.50418 0.0
C1345 C 0.89291 0.3735 0.48005 0.0
C1346 C 0.87382 0.38506 0.49595 0.0
C1347 C 0.81815 0.41877 0.54101 0.0
C1348 C 0.83735 0.40719 0.52562 0.0
H1349 H 0.94716 0.34191 0.48353 0.0
H1350 H 0.91687 0.36206 0.50984 0.0
H1351 H 0.84281 0.37339 0.47357 0.0
H1352 H 0.76827 0.45659 0.53629 0.0
H1353 H 0.80069 0.43815 0.51095 0.0
C1354 C 0.143 0.90929 0.4409 0.0
C1355 C 0.15261 0.93138 0.45032 0.0
C1356 C 0.13168 0.89223 0.45632 0.0
C1357 C 0.1037 0.88403 0.51765 0.0
H1358 H 0.11807 0.81525 0.50477 0.0
C1359 C 0.05155 0.80412 0.56518 0.0
C1360 C 0.06502 0.78286 0.57099 0.0
C1361 C 0.06241 0.82307 0.55158 0.0
C1362 C 0.11405 0.83436 0.50885 0.0
H1363 H 0.15734 0.95316 0.48327 0.0
H1364 H 0.13787 0.92304 0.51041 0.0
H1365 H 0.1366 0.84688 0.47932 0.0
H1366 H 0.1006 0.76507 0.56844 0.0
H1367 H 0.11978 0.79818 0.54494 0.0
H1368 H 0.0816 0.87139 0.54765 0.0
C1369 C 0.13884 0.9191 0.49099 0.0
C1370 C 0.12441 0.85252 0.49399 0.0
C1371 C 0.15007 0.93633 0.47546 0.0
C1372 C 0.0897 0.78107 0.56363 0.0
C1373 C 0.10063 0.80004 0.55019 0.0
C1374 C 0.09338 0.86581 0.53263 0.0
C1375 C 0.12985 0.89667 0.48161 0.0
C1376 C 0.11921 0.87757 0.49804 0.0
C1377 C 0.08704 0.82116 0.54375 0.0
C1378 C 0.09836 0.84073 0.52832 0.0
H1379 H 0.1444 0.90502 0.42157 0.0
H1380 H 0.12444 0.87544 0.44837 0.0
H1381 H 0.0992 0.90314 0.5212 0.0
H1382 H 0.03248 0.80586 0.57078 0.0
H1383 H 0.05133 0.83893 0.54674 0.0
C1384 C 0.21654 0.91519 0.93322 0.0
C1385 C 0.21466 0.93996 0.92618 0.0
C1386 C 0.19773 0.90407 0.94669 0.0
C1387 C 0.13233 0.91089 0.96572 0.0
H1388 H 0.1529 0.86729 0.01813 0.0
C1389 C 0.06379 0.85248 0.02352 0.0
C1390 C 0.06933 0.84948 0.04849 0.0
C1391 C 0.08051 0.86427 0.00786 0.0
C1392 C 0.14679 0.87959 0.00374 0.0
H1393 H 0.19155 0.97241 0.9268 0.0
H1394 H 0.15871 0.95319 0.95095 0.0
H1395 H 0.18373 0.88641 0.9922 0.0
H1396 H 0.09621 0.85745 0.07683 0.0
H1397 H 0.1249 0.8784 0.04981 0.0
H1398 H 0.09533 0.90458 0.97794 0.0
C1399 C 0.17456 0.94221 0.94585 0.0
C1400 C 0.1645 0.89029 0.98859 0.0
C1401 C 0.19336 0.95328 0.93217 0.0
C1402 C 0.09149 0.85919 0.05763 0.0
C1403 C 0.10804 0.87109 0.04208 0.0
C1404 C 0.11456 0.90024 0.98101 0.0
C1405 C 0.17668 0.91754 0.95354 0.0
C1406 C 0.15754 0.90606 0.96938 0.0
C1407 C 0.103 0.87339 0.01693 0.0
C1408 C 0.12161 0.88456 0.00028 0.0
H1409 H 0.23257 0.9044 0.92826 0.0
H1410 H 0.19972 0.88488 0.95174 0.0
H1411 H 0.12631 0.92277 0.95095 0.0
H1412 H 0.04688 0.84514 0.01594 0.0
H1413 H 0.07612 0.86558 0.98856 0.0
C1414 C 0.64723 0.06231 0.02219 0.0
C1415 C 0.65262 0.06835 0.04665 0.0
C1416 C 0.63548 0.07941 0.0069 0.0
C1417 C 0.62502 0.14646 0.00136 0.0
H1418 H 0.57487 0.12792 0.95429 0.0
C1419 C 0.58782 0.21603 0.9313 0.0
C1420 C 0.56235 0.21606 0.92712 0.0
C1421 C 0.59875 0.19703 0.94466 0.0
C1422 C 0.58874 0.1334 0.96747 0.0
H1423 H 0.64901 0.09669 0.07449 0.0
H1424 H 0.62828 0.12609 0.04813 0.0
H1425 H 0.59336 0.09642 0.98051 0.0
H1426 H 0.52828 0.19623 0.93284 0.0
H1427 H 0.54725 0.16304 0.95675 0.0
H1428 H 0.62004 0.18343 0.98897 0.0
C1429 C 0.63362 0.10846 0.04049 0.0
C1430 C 0.59953 0.11531 0.98228 0.0
C1431 C 0.6454 0.0915 0.05567 0.0
C1432 C 0.54798 0.19654 0.93601 0.0
C1433 C 0.55888 0.17753 0.94951 0.0
C1434 C 0.61424 0.16448 0.98665 0.0
C1435 C 0.62887 0.10282 0.01583 0.0
C1436 C 0.61768 0.12169 -0.00048 0.0
C1437 C 0.58439 0.17768 0.95419 0.0
C1438 C 0.59595 0.15822 0.96954 0.0
H1439 H 0.65258 0.04463 0.01469 0.0
H1440 H 0.63221 0.07455 0.98794 0.0
H1441 H 0.63922 0.15197 0.01418 0.0
H1442 H 0.5993 0.2307 0.92414 0.0
H1443 H 0.6185 0.19747 0.94746 0.0
C1444 C 0.28327 0.55742 0.95494 0.0
C1445 C 0.28456 0.55996 0.92939 0.0
C1446 C 0.30161 0.56747 0.96985 0.0
C1447 C 0.36587 0.58738 0.97076 0.0
H1448 H 0.34531 0.62915 0.02461 0.0
C1449 C 0.43527 0.64467 0.02794 0.0
C1450 C 0.43 0.64822 0.05287 0.0
C1451 C 0.41813 0.63307 0.01264 0.0
C1452 C 0.35145 0.6172 0.00995 0.0
H1453 H 0.30571 0.57522 0.89933 0.0
H1454 H 0.33831 0.59211 0.9254 0.0
H1455 H 0.31439 0.60991 0.99865 0.0
H1456 H 0.40324 0.64152 0.0816 0.0
H1457 H 0.37393 0.62048 0.05532 0.0
H1458 H 0.40292 0.59412 0.98232 0.0
C1459 C 0.32316 0.58225 0.93384 0.0
C1460 C 0.33368 0.60628 0.99502 0.0
C1461 C 0.30461 0.57253 0.91896 0.0
C1462 C 0.40768 0.6393 0.06238 0.0
C1463 C 0.39078 0.62739 0.04723 0.0
C1464 C 0.3837 0.59801 0.98594 0.0
C1465 C 0.32171 0.57999 0.95943 0.0
C1466 C 0.3407 0.5913 0.97529 0.0
C1467 C 0.39554 0.62449 0.02206 0.0
C1468 C 0.37672 0.61306 0.00576 0.0
H1469 H 0.268 0.54776 0.96337 0.0
H1470 H 0.30015 0.56536 0.98953 0.0
H1471 H 0.37173 0.57575 0.95572 0.0
H1472 H 0.45229 0.6515 0.0201 0.0
H1473 H 0.42236 0.63144 0.99332 0.0
C1474 C 0.85602 0.40673 0.05731 0.0
C1475 C 0.84984 0.43048 0.04908 0.0
C1476 C 0.86757 0.39001 0.04171 0.0
C1477 C 0.90285 0.38468 0.98399 0.0
H1478 H 0.88049 0.3169 0.98743 0.0
C1479 C 0.95319 0.30433 0.93515 0.0
C1480 C 0.93851 0.28557 0.92522 0.0
C1481 C 0.94251 0.32298 0.94928 0.0
C1482 C 0.8868 0.33578 0.98602 0.0
H1483 H 0.8514 0.45547 0.01812 0.0
H1484 H 0.87132 0.426 0.99062 0.0
H1485 H 0.86159 0.34774 0.01358 0.0
H1486 H 0.9013 0.27196 0.92104 0.0
H1487 H 0.88247 0.30463 0.94543 0.0
H1488 H 0.9277 0.37267 0.95593 0.0
C1489 C 0.86745 0.42047 0.00929 0.0
C1490 C 0.87619 0.35342 0.00128 0.0
C1491 C 0.85595 0.43731 0.025 0.0
C1492 C 0.91298 0.28604 0.92899 0.0
C1493 C 0.90227 0.3047 0.94297 0.0
C1494 C 0.91345 0.36698 0.96862 0.0
C1495 C 0.87311 0.39652 0.01741 0.0
C1496 C 0.88418 0.37805 0.0006 0.0
C1497 C 0.91693 0.32325 0.95354 0.0
C1498 C 0.90557 0.3423 0.96951 0.0
H1499 H 0.8518 0.40093 0.07583 0.0
H1500 H 0.87216 0.37192 0.04873 0.0
H1501 H 0.90953 0.40346 0.98313 0.0
H1502 H 0.97295 0.30429 0.93231 0.0
H1503 H 0.95435 0.33685 0.95732 0.0
C1504 C 0.28522 0.94587 0.45322 0.0
C1505 C 0.28453 0.9408 0.42804 0.0
C1506 C 0.30382 0.9359 0.46788 0.0
C1507 C 0.36626 0.90984 0.46601 0.0
H1508 H 0.34719 0.87848 0.52694 0.0
C1509 C 0.43371 0.85098 0.52405 0.0
C1510 C 0.43103 0.85172 0.54963 0.0
C1511 C 0.41675 0.86304 0.50891 0.0
C1512 C 0.35295 0.88752 0.5102 0.0
H1513 H 0.30229 0.92114 0.39838 0.0
H1514 H 0.33518 0.90405 0.42393 0.0
H1515 H 0.31589 0.89756 0.5013 0.0
H1516 H 0.40926 0.86666 0.57946 0.0
H1517 H 0.3803 0.8883 0.55323 0.0
H1518 H 0.40339 0.90006 0.47502 0.0
C1519 C 0.32151 0.91592 0.43229 0.0
C1520 C 0.33496 0.89837 0.49548 0.0
C1521 C 0.30276 0.92569 0.4177 0.0
C1522 C 0.41165 0.8655 0.55978 0.0
C1523 C 0.39493 0.87777 0.54472 0.0
C1524 C 0.38434 0.89917 0.48087 0.0
C1525 C 0.32213 0.9208 0.45756 0.0
C1526 C 0.34141 0.90963 0.47324 0.0
C1527 C 0.39693 0.87629 0.51908 0.0
C1528 C 0.3779 0.88787 0.50318 0.0
H1529 H 0.27134 0.95751 0.46155 0.0
H1530 H 0.30396 0.94011 0.48728 0.0
H1531 H 0.37176 0.91858 0.44902 0.0
H1532 H 0.44841 0.84039 0.51571 0.0
H1533 H 0.41875 0.86131 0.48924 0.0
C1534 C 0.58732 0.28091 0.43228 0.0
C1535 C 0.5619 0.2806 0.42777 0.0
C1536 C 0.59781 0.29984 0.44608 0.0
C1537 C 0.58638 0.36304 0.46941 0.0
H1538 H 0.63722 0.34523 0.51604 0.0
C1539 C 0.64268 0.43524 0.52458 0.0
C1540 C 0.64833 0.42924 0.54899 0.0
C1541 C 0.63152 0.41786 0.50922 0.0
C1542 C 0.6229 0.35053 0.50326 0.0
H1543 H 0.52747 0.2998 0.43349 0.0
H1544 H 0.54565 0.3328 0.45817 0.0
H1545 H 0.61879 0.31355 0.49055 0.0
H1546 H 0.64591 0.40058 0.57665 0.0
H1547 H 0.62612 0.37064 0.55014 0.0
H1548 H 0.59008 0.39998 0.48276 0.0
C1549 C 0.55759 0.31863 0.45083 0.0
C1550 C 0.61256 0.33238 0.48838 0.0
C1551 C 0.54713 0.29971 0.43689 0.0
C1552 C 0.64203 0.40576 0.55787 0.0
C1553 C 0.63081 0.3885 0.54261 0.0
C1554 C 0.5967 0.38123 0.4844 0.0
C1555 C 0.58305 0.31883 0.45572 0.0
C1556 C 0.59415 0.33838 0.47129 0.0
C1557 C 0.62574 0.39417 0.518 0.0
C1558 C 0.61499 0.37514 0.5016 0.0
H1559 H 0.59909 0.26657 0.42495 0.0
H1560 H 0.61753 0.29968 0.44905 0.0
H1561 H 0.57243 0.36834 0.45624 0.0
H1562 H 0.64735 0.45316 0.51718 0.0
H1563 H 0.62802 0.42276 0.4903 0.0
C1564 C 0.19786 0.57101 0.41688 0.0
C1565 C 0.21792 0.55951 0.42836 0.0
C1566 C 0.1786 0.58081 0.43078 0.0
C1567 C 0.15119 0.57911 0.49329 0.0
H1568 H 0.12054 0.64026 0.47269 0.0
C1569 C 0.09183 0.63952 0.55691 0.0
C1570 C 0.06957 0.64875 0.54749 0.0
C1571 C 0.10841 0.62716 0.54174 0.0
C1572 C 0.12874 0.62302 0.47849 0.0
H1573 H 0.23403 0.54967 0.46325 0.0
H1574 H 0.2009 0.56756 0.48774 0.0
H1575 H 0.15296 0.62203 0.44762 0.0
H1576 H 0.04717 0.65217 0.51479 0.0
H1577 H 0.07652 0.63082 0.48806 0.0
H1578 H 0.12747 0.58073 0.52464 0.0
C1579 C 0.19953 0.56837 0.46797 0.0
C1580 C 0.14729 0.61251 0.46412 0.0
C1581 C 0.21864 0.55834 0.45401 0.0
C1582 C 0.06414 0.64519 0.52257 0.0
C1583 C 0.08096 0.63311 0.50727 0.0
C1584 C 0.13286 0.5898 0.50778 0.0
C1585 C 0.17919 0.57967 0.45653 0.0
C1586 C 0.15889 0.59049 0.47142 0.0
C1587 C 0.10326 0.62402 0.51674 0.0
C1588 C 0.12158 0.61193 0.5006 0.0
H1589 H 0.19712 0.57254 0.3971 0.0
H1590 H 0.16318 0.58912 0.4213 0.0
H1591 H 0.15929 0.56189 0.49925 0.0
H1592 H 0.09652 0.64193 0.57605 0.0
H1593 H 0.12557 0.62054 0.54946 0.0
C1594 C 0.94886 0.19546 0.43331 0.0
C1595 C 0.93495 0.21605 0.42629 0.0
C1596 C 0.93803 0.17654 0.44697 0.0
C1597 C 0.88517 0.16515 0.48805 0.0
H1598 H 0.90269 0.09646 0.47914 0.0
C1599 C 0.85665 0.0922 0.55822 0.0
C1600 C 0.84795 0.06948 0.54945 0.0
C1601 C 0.86788 0.10898 0.54243 0.0
C1602 C 0.89746 0.11554 0.48171 0.0
H1603 H 0.89868 0.23258 0.42658 0.0
H1604 H 0.87957 0.19948 0.45017 0.0
H1605 H 0.92021 0.12768 0.45198 0.0
H1606 H 0.84474 0.04627 0.51728 0.0
H1607 H 0.86408 0.07586 0.48948 0.0
H1608 H 0.86203 0.15312 0.51733 0.0
C1609 C 0.899 0.19817 0.44585 0.0
C1610 C 0.9077 0.13346 0.46633 0.0
C1611 C 0.90988 0.21711 0.43235 0.0
C1612 C 0.8513 0.06362 0.5246 0.0
C1613 C 0.86245 0.08054 0.50869 0.0
C1614 C 0.8749 0.14729 0.50331 0.0
C1615 C 0.91302 0.17781 0.45364 0.0
C1616 C 0.90175 0.1585 0.46941 0.0
C1617 C 0.87053 0.10357 0.51739 0.0
C1618 C 0.88107 0.12229 0.5005 0.0
H1619 H 0.96824 0.19428 0.42867 0.0
H1620 H 0.94942 0.16126 0.45284 0.0
H1621 H 0.88039 0.18427 0.49117 0.0
H1622 H 0.85461 0.0972 0.57733 0.0
H1623 H 0.8744 0.12628 0.54987 0.0
C1624 C 0.78605 0.05579 0.04279 0.0
C1625 C 0.78576 0.06028 0.0681 0.0
C1626 C 0.80428 0.06625 0.02801 0.0
C1627 C 0.86669 0.09144 0.02846 0.0
H1628 H 0.84564 0.12754 0.97088 0.0
C1629 C 0.9342 0.1504 0.97063 0.0
C1630 C 0.92996 0.15198 0.9453 0.0
C1631 C 0.91727 0.13841 0.98588 0.0
C1632 C 0.85197 0.11717 0.98661 0.0
H1633 H 0.80405 0.07932 0.09785 0.0
H1634 H 0.83651 0.09698 0.07207 0.0
H1635 H 0.81508 0.10751 0.9967 0.0
H1636 H 0.90528 0.1414 0.91592 0.0
H1637 H 0.87641 0.11967 0.94218 0.0
H1638 H 0.90363 0.10051 0.01815 0.0
C1639 C 0.82267 0.08532 0.06372 0.0
C1640 C 0.83439 0.10581 0.00146 0.0
C1641 C 0.80419 0.07517 0.07844 0.0
C1642 C 0.9089 0.14072 0.93543 0.0
C1643 C 0.89223 0.12842 0.95056 0.0
C1644 C 0.88437 0.1025 0.01338 0.0
C1645 C 0.82274 0.08113 0.03833 0.0
C1646 C 0.84156 0.09287 0.02253 0.0
C1647 C 0.89591 0.12745 0.97605 0.0
C1648 C 0.87724 0.11553 0.99223 0.0
H1649 H 0.77206 0.0443 0.03444 0.0
H1650 H 0.80403 0.06262 0.00849 0.0
H1651 H 0.87269 0.08141 0.04456 0.0
H1652 H 0.95021 0.15906 0.97876 0.0
H1653 H 0.92062 0.13834 0.00543 0.0
C1654 C 0.34294 0.90761 0.95194 0.0
C1655 C 0.35715 0.92667 0.94169 0.0
C1656 C 0.35345 0.89089 0.96828 0.0
C1657 C 0.40524 0.88135 0.01058 0.0
H1658 H 0.3905 0.81222 0.00017 0.0
C1659 C 0.45401 0.80275 0.06378 0.0
C1660 C 0.4395 0.78246 0.0705 0.0
C1661 C 0.44437 0.82113 0.0486 0.0
C1662 C 0.39457 0.83146 0.00355 0.0
H1663 H 0.3934 0.94348 0.94109 0.0
H1664 H 0.4118 0.91414 0.96978 0.0
H1665 H 0.37297 0.84303 0.97289 0.0
H1666 H 0.40331 0.76592 0.06793 0.0
H1667 H 0.38629 0.79804 0.04164 0.0
H1668 H 0.4267 0.86973 0.04142 0.0
C1669 C 0.39249 0.91226 0.96513 0.0
C1670 C 0.38455 0.84911 0.98788 0.0
C1671 C 0.38198 0.92898 0.94863 0.0
C1672 C 0.415 0.78114 0.06248 0.0
C1673 C 0.40532 0.79951 0.04741 0.0
C1674 C 0.4152 0.86366 0.02638 0.0
C1675 C 0.37839 0.89285 0.97485 0.0
C1676 C 0.38963 0.87424 0.9913 0.0
C1677 C 0.41996 0.81958 0.04003 0.0
C1678 C 0.40984 0.83851 0.02313 0.0
H1679 H 0.32372 0.90535 0.94712 0.0
H1680 H 0.34203 0.87636 0.97578 0.0
H1681 H 0.40932 0.90062 0.01376 0.0
H1682 H 0.47296 0.8041 0.06986 0.0
H1683 H 0.45619 0.83622 0.04313 0.0
C1684 C 0.69917 0.42492 0.08109 0.0
C1685 C 0.71684 0.44065 0.07069 0.0
C1686 C 0.68043 0.41489 0.06665 0.0
C1687 C 0.66697 0.39617 0.00434 0.0
H1688 H 0.5982 0.40016 0.02326 0.0
C1689 C 0.59102 0.36163 0.93991 0.0
C1690 C 0.57044 0.34984 0.95018 0.0
C1691 C 0.60793 0.3739 0.95477 0.0
C1692 C 0.61733 0.39854 0.01786 0.0
H1693 H 0.72919 0.458 0.03717 0.0
H1694 H 0.69676 0.43987 0.01164 0.0
H1695 H 0.62971 0.41899 0.04917 0.0
H1696 H 0.55125 0.3418 0.98405 0.0
H1697 H 0.5813 0.36243 0.01025 0.0
H1698 H 0.65506 0.37502 0.97362 0.0
C1699 C 0.69722 0.4356 0.03102 0.0
C1700 C 0.63532 0.40945 0.03266 0.0
C1701 C 0.7157 0.44595 0.04556 0.0
C1702 C 0.56689 0.35087 0.97563 0.0
C1703 C 0.58409 0.36281 0.99061 0.0
C1704 C 0.64908 0.38493 0.98977 0.0
C1705 C 0.67941 0.42 0.04145 0.0
C1706 C 0.66027 0.40847 0.02592 0.0
C1707 C 0.60498 0.37428 0.98037 0.0
C1708 C 0.62398 0.3861 0.99621 0.0
H1709 H 0.70009 0.42005 0.10032 0.0
H1710 H 0.66713 0.40263 0.07504 0.0
H1711 H 0.68614 0.39484 -0.00104 0.0
H1712 H 0.59408 0.36139 0.92029 0.0
H1713 H 0.62336 0.38306 0.9461 0.0
C1714 C 0.0554 0.71715 0.04368 0.0
C1715 C 0.05925 0.71716 0.06909 0.0
C1716 C 0.06585 0.6988 0.02904 0.0
C1717 C 0.09105 0.63601 0.03044 0.0
H1718 H 0.12622 0.65644 0.97204 0.0
C1719 C 0.15182 0.56903 0.97389 0.0
C1720 C 0.15255 0.57238 0.94838 0.0
C1721 C 0.13941 0.58595 0.98881 0.0
C1722 C 0.11614 0.6503 0.98804 0.0
H1723 H 0.07723 0.69838 0.09918 0.0
H1724 H 0.09507 0.66588 0.07367 0.0
H1725 H 0.10602 0.68722 0.99745 0.0
H1726 H 0.14002 0.59544 0.91841 0.0
H1727 H 0.1178 0.62434 0.94421 0.0
H1728 H 0.10085 0.59904 0.02088 0.0
C1729 C 0.0838 0.67992 0.06509 0.0
C1730 C 0.10463 0.668 0.00264 0.0
C1731 C 0.07358 0.69844 0.07967 0.0
C1732 C 0.14003 0.5925 0.93805 0.0
C1733 C 0.12742 0.60919 0.95289 0.0
C1734 C 0.10235 0.61823 0.01568 0.0
C1735 C 0.08021 0.68003 0.03961 0.0
C1736 C 0.09201 0.66106 0.02399 0.0
C1737 C 0.12728 0.6064 0.9785 0.0
C1738 C 0.11506 0.62516 0.99428 0.0
H1739 H 0.04439 0.73142 0.03515 0.0
H1740 H 0.06264 0.69922 0.00946 0.0
H1741 H 0.08126 0.63015 0.04672 0.0
H1742 H 0.1614 0.55376 0.98238 0.0
H1743 H 0.13993 0.58333 0.00847 0.0
loop_
_geom_bond_atom_site_label_1
_geom_bond_atom_site_label_2
_geom_bond_distance
_geom_bond_site_symmetry_2
_ccdc_geom_bond_type
Co0 O3 1.970 . S
Co0 N17 1.989 . S
Co0 O25 1.967 . S
Co0 O32 1.920 . S
Co1 O4 1.966 . S
Co1 N10 2.022 . S
Co1 N18 1.993 . S
Co1 O26 1.941 . S
C2 O3 1.258 . S
C2 O4 1.263 . S
O3 Co0 1.970 . S
O3 C2 1.258 . S
O4 Co1 1.966 . S
O4 C2 1.263 . S
C5 O6 1.235 . S
C5 O32 1.289 . S
O6 C5 1.235 . S
C7 C9 1.400 . S
C7 N10 1.351 . S
C7 C12 1.501 . S
C8 C9 1.387 . S
C8 N11 1.341 . S
C9 C7 1.400 . S
C9 C8 1.387 . S
N10 Co1 2.022 . S
N10 C7 1.351 . S
N10 N11 1.365 . S
N11 C8 1.341 . S
N11 N10 1.365 . S
N11 H31 0.862 . S
C12 C7 1.501 . S
C12 H13 0.961 . S
C12 H14 0.961 . S
C12 H15 0.960 . S
H13 C12 0.961 . S
H14 C12 0.961 . S
H15 C12 0.960 . S
C16 N17 1.342 . S
C16 C20 1.401 . S
C16 C21 1.499 . S
N17 Co0 1.989 . S
N17 C16 1.342 . S
N17 N18 1.388 . S
N18 Co1 1.993 . S
N18 N17 1.388 . S
N18 C19 1.346 . S
C19 N18 1.346 . S
C19 C20 1.396 . S
C19 C29 1.510 . S
C20 C16 1.401 . S
C20 C19 1.396 . S
C21 C16 1.499 . S
C21 H22 0.959 . S
C21 H23 0.960 . S
C21 H24 0.961 . S
H22 C21 0.959 . S
H23 C21 0.960 . S
H24 C21 0.961 . S
O25 Co0 1.967 . S
O25 C33 1.258 . S
O26 Co1 1.941 . S
O26 C33 1.266 . S
H27 C29 0.959 . S
H28 C29 0.961 . S
C29 C19 1.510 . S
C29 H27 0.959 . S
C29 H28 0.961 . S
C29 H30 0.960 . S
H30 C29 0.960 . S
H31 N11 0.862 . S
O32 Co0 1.920 . S
O32 C5 1.289 . S
C33 O25 1.258 . S
C33 O26 1.266 . S
Co34 O37 1.970 . S
Co34 N51 1.989 . S
Co34 O59 1.967 . S
Co34 O66 1.920 . S
Co35 O38 1.966 . S
Co35 N44 2.022 . S
Co35 N52 1.993 . S
Co35 O60 1.941 . S
C36 O37 1.258 . S
C36 O38 1.263 . S
O37 Co34 1.970 . S
O37 C36 1.258 . S
O38 Co35 1.966 . S
O38 C36 1.263 . S
C39 O40 1.235 . S
C39 O66 1.289 . S
O40 C39 1.235 . S
C41 C43 1.400 . S
C41 N44 1.351 . S
C41 C46 1.501 . S
C42 C43 1.387 . S
C42 N45 1.341 . S
C43 C41 1.400 . S
C43 C42 1.387 . S
N44 Co35 2.022 . S
N44 C41 1.351 . S
N44 N45 1.365 . S
N45 C42 1.341 . S
N45 N44 1.365 . S
N45 H65 0.862 . S
C46 C41 1.501 . S
C46 H47 0.961 . S
C46 H48 0.961 . S
C46 H49 0.960 . S
H47 C46 0.961 . S
H48 C46 0.961 . S
H49 C46 0.960 . S
C50 N51 1.342 . S
C50 C54 1.401 . S
C50 C55 1.499 . S
N51 Co34 1.989 . S
N51 C50 1.342 . S
N51 N52 1.388 . S
N52 Co35 1.993 . S
N52 N51 1.388 . S
N52 C53 1.346 . S
C53 N52 1.346 . S
C53 C54 1.396 . S
C53 C63 1.510 . S
C54 C50 1.401 . S
C54 C53 1.396 . S
C55 C50 1.499 . S
C55 H56 0.959 . S
C55 H57 0.960 . S
C55 H58 0.961 . S
H56 C55 0.959 . S
H57 C55 0.960 . S
H58 C55 0.961 . S
O59 Co34 1.967 . S
O59 C67 1.258 . S
O60 Co35 1.941 . S
O60 C67 1.266 . S
H61 C63 0.959 . S
H62 C63 0.961 . S
C63 C53 1.510 . S
C63 H61 0.959 . S
C63 H62 0.961 . S
C63 H64 0.960 . S
H64 C63 0.960 . S
H65 N45 0.862 . S
O66 Co34 1.920 . S
O66 C39 1.289 . S
C67 O59 1.258 . S
C67 O60 1.266 . S
Co68 O71 1.970 . S
Co68 N85 1.989 . S
Co68 O93 1.967 . S
Co68 O100 1.920 . S
Co69 O72 1.972 . S
Co69 N78 2.022 . S
Co69 N86 1.993 . S
Co69 O94 1.941 . S
C70 O71 1.258 . S
C70 O72 1.264 . S
O71 Co68 1.970 . S
O71 C70 1.258 . S
O72 Co69 1.972 . S
O72 C70 1.264 . S
C73 O74 1.235 . S
C73 O100 1.289 . S
O74 C73 1.235 . S
C75 C77 1.400 . S
C75 N78 1.351 1_455 S
C75 C80 1.501 . S
C76 C77 1.387 . S
C76 N79 1.341 1_455 S
C77 C75 1.400 . S
C77 C76 1.387 . S
N78 Co69 2.022 . S
N78 C75 1.351 1_655 S
N78 N79 1.365 . S
N79 C76 1.341 1_655 S
N79 N78 1.365 . S
N79 H99 0.862 . S
C80 C75 1.501 . S
C80 H81 0.961 . S
C80 H82 0.961 . S
C80 H83 0.960 . S
H81 C80 0.961 . S
H82 C80 0.961 . S
H83 C80 0.960 . S
C84 N85 1.342 . S
C84 C88 1.401 . S
C84 C89 1.499 . S
N85 Co68 1.989 . S
N85 C84 1.342 . S
N85 N86 1.388 . S
N86 Co69 1.993 . S
N86 N85 1.388 . S
N86 C87 1.346 . S
C87 N86 1.346 . S
C87 C88 1.396 . S
C87 C97 1.510 . S
C88 C84 1.401 . S
C88 C87 1.396 . S
C89 C84 1.499 . S
C89 H90 0.959 . S
C89 H91 0.960 . S
C89 H92 0.961 . S
H90 C89 0.959 . S
H91 C89 0.960 . S
H92 C89 0.961 . S
O93 Co68 1.967 . S
O93 C101 1.258 . S
O94 Co69 1.941 . S
O94 C101 1.266 . S
H95 C97 0.959 . S
H96 C97 0.961 . S
C97 C87 1.510 . S
C97 H95 0.959 . S
C97 H96 0.961 . S
C97 H98 0.960 . S
H98 C97 0.960 . S
H99 N79 0.862 . S
O100 Co68 1.920 . S
O100 C73 1.289 . S
C101 O93 1.258 . S
C101 O94 1.266 . S
Co102 O105 1.970 . S
Co102 N119 1.989 . S
Co102 O127 1.967 . S
Co102 O134 1.920 . S
Co103 O106 1.972 . S
Co103 N112 2.022 . S
Co103 N120 1.993 . S
Co103 O128 1.941 . S
C104 O105 1.258 . S
C104 O106 1.264 . S
O105 Co102 1.970 . S
O105 C104 1.258 . S
O106 Co103 1.972 . S
O106 C104 1.264 . S
C107 O108 1.235 . S
C107 O134 1.289 . S
O108 C107 1.235 . S
C109 C111 1.400 . S
C109 N112 1.351 1_545 S
C109 C114 1.501 . S
C110 C111 1.387 . S
C110 N113 1.341 1_545 S
C111 C109 1.400 . S
C111 C110 1.387 . S
N112 Co103 2.022 . S
N112 C109 1.351 1_565 S
N112 N113 1.365 . S
N113 C110 1.341 1_565 S
N113 N112 1.365 . S
N113 H133 0.862 . S
C114 C109 1.501 . S
C114 H115 0.961 . S
C114 H116 0.961 . S
C114 H117 0.960 . S
H115 C114 0.961 . S
H116 C114 0.961 . S
H117 C114 0.960 . S
C118 N119 1.342 . S
C118 C122 1.401 . S
C118 C123 1.499 . S
N119 Co102 1.989 . S
N119 C118 1.342 . S
N119 N120 1.388 . S
N120 Co103 1.993 . S
N120 N119 1.388 . S
N120 C121 1.346 . S
C121 N120 1.346 . S
C121 C122 1.396 . S
C121 C131 1.510 . S
C122 C118 1.401 . S
C122 C121 1.396 . S
C123 C118 1.499 . S
C123 H124 0.959 . S
C123 H125 0.960 . S
C123 H126 0.961 . S
H124 C123 0.959 . S
H125 C123 0.960 . S
H126 C123 0.961 . S
O127 Co102 1.967 . S
O127 C135 1.258 . S
O128 Co103 1.941 . S
O128 C135 1.266 . S
H129 C131 0.959 . S
H130 C131 0.961 . S
C131 C121 1.510 . S
C131 H129 0.959 . S
C131 H130 0.961 . S
C131 H132 0.960 . S
H132 C131 0.960 . S
H133 N113 0.862 . S
O134 Co102 1.920 . S
O134 C107 1.289 . S
C135 O127 1.258 . S
C135 O128 1.266 . S
Co136 O139 1.970 . S
Co136 N153 1.989 . S
Co136 O161 1.967 . S
Co136 O168 1.920 . S
Co137 O140 1.972 . S
Co137 N146 2.022 . S
Co137 N154 1.993 . S
Co137 O162 1.941 . S
C138 O139 1.258 . S
C138 O140 1.264 . S
O139 Co136 1.970 . S
O139 C138 1.258 . S
O140 Co137 1.972 . S
O140 C138 1.264 . S
C141 O142 1.235 . S
C141 O168 1.289 . S
O142 C141 1.235 . S
C143 C145 1.400 . S
C143 N146 1.351 1_655 S
C143 C148 1.501 . S
C144 C145 1.387 . S
C144 N147 1.341 1_655 S
C145 C143 1.400 . S
C145 C144 1.387 . S
N146 Co137 2.022 . S
N146 C143 1.351 1_455 S
N146 N147 1.365 . S
N147 C144 1.341 1_455 S
N147 N146 1.365 . S
N147 H167 0.862 . S
C148 C143 1.501 . S
C148 H149 0.961 . S
C148 H150 0.961 . S
C148 H151 0.960 . S
H149 C148 0.961 . S
H150 C148 0.961 . S
H151 C148 0.960 . S
C152 N153 1.342 . S
C152 C156 1.401 . S
C152 C157 1.499 . S
N153 Co136 1.989 . S
N153 C152 1.342 . S
N153 N154 1.388 . S
N154 Co137 1.993 . S
N154 N153 1.388 . S
N154 C155 1.346 . S
C155 N154 1.346 . S
C155 C156 1.396 . S
C155 C165 1.510 . S
C156 C152 1.401 . S
C156 C155 1.396 . S
C157 C152 1.499 . S
C157 H158 0.959 . S
C157 H159 0.960 . S
C157 H160 0.961 . S
H158 C157 0.959 . S
H159 C157 0.960 . S
H160 C157 0.961 . S
O161 Co136 1.967 . S
O161 C169 1.258 . S
O162 Co137 1.941 . S
O162 C169 1.266 . S
H163 C165 0.959 . S
H164 C165 0.961 . S
C165 C155 1.510 . S
C165 H163 0.959 . S
C165 H164 0.961 . S
C165 H166 0.960 . S
H166 C165 0.960 . S
H167 N147 0.862 . S
O168 Co136 1.920 . S
O168 C141 1.289 . S
C169 O161 1.258 . S
C169 O162 1.266 . S
Co170 O173 1.970 . S
Co170 N187 1.989 . S
Co170 O195 1.967 . S
Co170 O202 1.920 . S
Co171 O174 1.972 . S
Co171 N180 2.022 . S
Co171 N188 1.993 . S
Co171 O196 1.941 . S
C172 O173 1.258 . S
C172 O174 1.264 . S
O173 Co170 1.970 . S
O173 C172 1.258 . S
O174 Co171 1.972 . S
O174 C172 1.264 . S
C175 O176 1.235 . S
C175 O202 1.289 . S
O176 C175 1.235 . S
C177 C179 1.400 . S
C177 N180 1.351 1_565 S
C177 C182 1.501 . S
C178 C179 1.387 . S
C178 N181 1.341 1_565 S
C179 C177 1.400 . S
C179 C178 1.387 . S
N180 Co171 2.022 . S
N180 C177 1.351 1_545 S
N180 N181 1.365 . S
N181 C178 1.341 1_545 S
N181 N180 1.365 . S
N181 H201 0.862 . S
C182 C177 1.501 . S
C182 H183 0.961 . S
C182 H184 0.961 . S
C182 H185 0.960 . S
H183 C182 0.961 . S
H184 C182 0.961 . S
H185 C182 0.960 . S
C186 N187 1.342 . S
C186 C190 1.401 . S
C186 C191 1.499 . S
N187 Co170 1.989 . S
N187 C186 1.342 . S
N187 N188 1.388 . S
N188 Co171 1.993 . S
N188 N187 1.388 . S
N188 C189 1.346 . S
C189 N188 1.346 . S
C189 C190 1.396 . S
C189 C199 1.510 . S
C190 C186 1.401 . S
C190 C189 1.396 . S
C191 C186 1.499 . S
C191 H192 0.959 . S
C191 H193 0.960 . S
C191 H194 0.961 . S
H192 C191 0.959 . S
H193 C191 0.960 . S
H194 C191 0.961 . S
O195 Co170 1.967 . S
O195 C203 1.258 . S
O196 Co171 1.941 . S
O196 C203 1.266 . S
H197 C199 0.959 . S
H198 C199 0.961 . S
C199 C189 1.510 . S
C199 H197 0.959 . S
C199 H198 0.961 . S
C199 H200 0.960 . S
H200 C199 0.960 . S
H201 N181 0.862 . S
O202 Co170 1.920 . S
O202 C175 1.289 . S
C203 O195 1.258 . S
C203 O196 1.266 . S
Co204 O207 1.970 . S
Co204 N221 1.989 . S
Co204 O229 1.967 . S
Co204 O236 1.920 . S
Co205 O208 1.966 . S
Co205 N214 2.022 . S
Co205 N222 1.993 . S
Co205 O230 1.941 . S
C206 O207 1.258 . S
C206 O208 1.263 . S
O207 Co204 1.970 . S
O207 C206 1.258 . S
O208 Co205 1.966 . S
O208 C206 1.263 . S
C209 O210 1.235 . S
C209 O236 1.289 . S
O210 C209 1.235 . S
C211 C213 1.400 . S
C211 N214 1.351 . S
C211 C216 1.501 . S
C212 C213 1.387 . S
C212 N215 1.341 . S
C213 C211 1.400 . S
C213 C212 1.387 . S
N214 Co205 2.022 . S
N214 C211 1.351 . S
N214 N215 1.365 . S
N215 C212 1.341 . S
N215 N214 1.365 . S
N215 H235 0.862 . S
C216 C211 1.501 . S
C216 H217 0.961 . S
C216 H218 0.961 . S
C216 H219 0.960 . S
H217 C216 0.961 . S
H218 C216 0.961 . S
H219 C216 0.960 . S
C220 N221 1.342 . S
C220 C224 1.401 . S
C220 C225 1.499 . S
N221 Co204 1.989 . S
N221 C220 1.342 . S
N221 N222 1.388 . S
N222 Co205 1.993 . S
N222 N221 1.388 . S
N222 C223 1.346 . S
C223 N222 1.346 . S
C223 C224 1.396 . S
C223 C233 1.510 . S
C224 C220 1.401 . S
C224 C223 1.396 . S
C225 C220 1.499 . S
C225 H226 0.959 . S
C225 H227 0.960 . S
C225 H228 0.961 . S
H226 C225 0.959 . S
H227 C225 0.960 . S
H228 C225 0.961 . S
O229 Co204 1.967 . S
O229 C237 1.258 . S
O230 Co205 1.941 . S
O230 C237 1.266 . S
H231 C233 0.959 . S
H232 C233 0.961 . S
C233 C223 1.510 . S
C233 H231 0.959 . S
C233 H232 0.961 . S
C233 H234 0.960 . S
H234 C233 0.960 . S
H235 N215 0.862 . S
O236 Co204 1.920 . S
O236 C209 1.289 . S
C237 O229 1.258 . S
C237 O230 1.266 . S
Co238 O241 1.970 . S
Co238 N255 1.989 . S
Co238 O263 1.967 . S
Co238 O270 1.920 . S
Co239 O242 1.966 . S
Co239 N248 2.022 . S
Co239 N256 1.993 . S
Co239 O264 1.941 . S
C240 O241 1.258 . S
C240 O242 1.263 . S
O241 Co238 1.970 . S
O241 C240 1.258 . S
O242 Co239 1.966 . S
O242 C240 1.263 . S
C243 O244 1.235 . S
C243 O270 1.289 . S
O244 C243 1.235 . S
C245 C247 1.400 . S
C245 N248 1.351 . S
C245 C250 1.501 . S
C246 C247 1.387 . S
C246 N249 1.341 . S
C247 C245 1.400 . S
C247 C246 1.387 . S
N248 Co239 2.022 . S
N248 C245 1.351 . S
N248 N249 1.365 . S
N249 C246 1.341 . S
N249 N248 1.365 . S
N249 H269 0.862 . S
C250 C245 1.501 . S
C250 H251 0.961 . S
C250 H252 0.961 . S
C250 H253 0.960 . S
H251 C250 0.961 . S
H252 C250 0.961 . S
H253 C250 0.960 . S
C254 N255 1.342 . S
C254 C258 1.401 . S
C254 C259 1.499 . S
N255 Co238 1.989 . S
N255 C254 1.342 . S
N255 N256 1.388 . S
N256 Co239 1.993 . S
N256 N255 1.388 . S
N256 C257 1.346 . S
C257 N256 1.346 . S
C257 C258 1.396 . S
C257 C267 1.510 . S
C258 C254 1.401 . S
C258 C257 1.396 . S
C259 C254 1.499 . S
C259 H260 0.959 . S
C259 H261 0.960 . S
C259 H262 0.961 . S
H260 C259 0.959 . S
H261 C259 0.960 . S
H262 C259 0.961 . S
O263 Co238 1.967 . S
O263 C271 1.258 . S
O264 Co239 1.941 . S
O264 C271 1.266 . S
H265 C267 0.959 . S
H266 C267 0.961 . S
C267 C257 1.510 . S
C267 H265 0.959 . S
C267 H266 0.961 . S
C267 H268 0.960 . S
H268 C267 0.960 . S
H269 N249 0.862 . S
O270 Co238 1.920 . S
O270 C243 1.289 . S
C271 O263 1.258 . S
C271 O264 1.266 . S
Co272 O275 1.970 . S
Co272 N289 1.989 . S
Co272 O297 1.967 . S
Co272 O304 1.920 . S
Co273 O276 1.966 . S
Co273 N282 2.022 . S
Co273 N290 1.993 . S
Co273 O298 1.941 . S
C274 O275 1.258 . S
C274 O276 1.263 . S
O275 Co272 1.970 . S
O275 C274 1.258 . S
O276 Co273 1.966 . S
O276 C274 1.263 . S
C277 O278 1.235 . S
C277 O304 1.289 . S
O278 C277 1.235 . S
C279 C281 1.400 . S
C279 N282 1.351 . S
C279 C284 1.501 . S
C280 C281 1.387 . S
C280 N283 1.341 . S
C281 C279 1.400 . S
C281 C280 1.387 . S
N282 Co273 2.022 . S
N282 C279 1.351 . S
N282 N283 1.365 . S
N283 C280 1.341 . S
N283 N282 1.365 . S
N283 H303 0.862 . S
C284 C279 1.501 . S
C284 H285 0.961 . S
C284 H286 0.961 . S
C284 H287 0.960 . S
H285 C284 0.961 . S
H286 C284 0.961 . S
H287 C284 0.960 . S
C288 N289 1.342 . S
C288 C292 1.401 . S
C288 C293 1.499 . S
N289 Co272 1.989 . S
N289 C288 1.342 . S
N289 N290 1.388 . S
N290 Co273 1.993 . S
N290 N289 1.388 . S
N290 C291 1.346 . S
C291 N290 1.346 . S
C291 C292 1.396 . S
C291 C301 1.510 . S
C292 C288 1.401 . S
C292 C291 1.396 . S
C293 C288 1.499 . S
C293 H294 0.959 . S
C293 H295 0.960 . S
C293 H296 0.961 . S
H294 C293 0.959 . S
H295 C293 0.960 . S
H296 C293 0.961 . S
O297 Co272 1.967 . S
O297 C305 1.258 . S
O298 Co273 1.941 . S
O298 C305 1.266 . S
H299 C301 0.959 . S
H300 C301 0.961 . S
C301 C291 1.510 . S
C301 H299 0.959 . S
C301 H300 0.961 . S
C301 H302 0.960 . S
H302 C301 0.960 . S
H303 N283 0.862 . S
O304 Co272 1.920 . S
O304 C277 1.289 . S
C305 O297 1.258 . S
C305 O298 1.266 . S
Co306 O309 1.970 . S
Co306 N323 1.989 . S
Co306 O331 1.967 . S
Co306 O338 1.920 . S
Co307 O310 1.966 . S
Co307 N316 2.022 . S
Co307 N324 1.993 . S
Co307 O332 1.941 . S
C308 O309 1.258 . S
C308 O310 1.263 . S
O309 Co306 1.970 . S
O309 C308 1.258 . S
O310 Co307 1.966 . S
O310 C308 1.263 . S
C311 O312 1.235 . S
C311 O338 1.289 . S
O312 C311 1.235 . S
C313 C315 1.400 . S
C313 N316 1.351 . S
C313 C318 1.501 . S
C314 C315 1.387 . S
C314 N317 1.341 . S
C315 C313 1.400 . S
C315 C314 1.387 . S
N316 Co307 2.022 . S
N316 C313 1.351 . S
N316 N317 1.365 . S
N317 C314 1.341 . S
N317 N316 1.365 . S
N317 H337 0.862 . S
C318 C313 1.501 . S
C318 H319 0.961 . S
C318 H320 0.961 . S
C318 H321 0.960 . S
H319 C318 0.961 . S
H320 C318 0.961 . S
H321 C318 0.960 . S
C322 N323 1.342 . S
C322 C326 1.401 . S
C322 C327 1.499 . S
N323 Co306 1.989 . S
N323 C322 1.342 . S
N323 N324 1.388 . S
N324 Co307 1.993 . S
N324 N323 1.388 . S
N324 C325 1.346 . S
C325 N324 1.346 . S
C325 C326 1.396 . S
C325 C335 1.510 . S
C326 C322 1.401 . S
C326 C325 1.396 . S
C327 C322 1.499 . S
C327 H328 0.959 . S
C327 H329 0.960 . S
C327 H330 0.961 . S
H328 C327 0.959 . S
H329 C327 0.960 . S
H330 C327 0.961 . S
O331 Co306 1.967 . S
O331 C339 1.258 . S
O332 Co307 1.941 . S
O332 C339 1.266 . S
H333 C335 0.959 . S
H334 C335 0.961 . S
C335 C325 1.510 . S
C335 H333 0.959 . S
C335 H334 0.961 . S
C335 H336 0.960 . S
H336 C335 0.960 . S
H337 N317 0.862 . S
O338 Co306 1.920 . S
O338 C311 1.289 . S
C339 O331 1.258 . S
C339 O332 1.266 . S
Co340 O343 1.970 . S
Co340 N357 1.989 . S
Co340 O365 1.967 . S
Co340 O372 1.920 . S
Co341 O344 1.972 . S
Co341 N350 2.022 . S
Co341 N358 1.993 . S
Co341 O366 1.941 . S
C342 O343 1.258 . S
C342 O344 1.264 . S
O343 Co340 1.970 . S
O343 C342 1.258 . S
O344 Co341 1.972 . S
O344 C342 1.264 . S
C345 O346 1.235 . S
C345 O372 1.289 . S
O346 C345 1.235 . S
C347 C349 1.400 . S
C347 N350 1.351 1_655 S
C347 C352 1.501 . S
C348 C349 1.387 . S
C348 N351 1.341 1_655 S
C349 C347 1.400 . S
C349 C348 1.387 . S
N350 Co341 2.022 . S
N350 C347 1.351 1_455 S
N350 N351 1.365 . S
N351 C348 1.341 1_455 S
N351 N350 1.365 . S
N351 H371 0.862 . S
C352 C347 1.501 . S
C352 H353 0.961 . S
C352 H354 0.961 . S
C352 H355 0.960 . S
H353 C352 0.961 . S
H354 C352 0.961 . S
H355 C352 0.960 . S
C356 N357 1.342 . S
C356 C360 1.401 . S
C356 C361 1.499 . S
N357 Co340 1.989 . S
N357 C356 1.342 . S
N357 N358 1.388 . S
N358 Co341 1.993 . S
N358 N357 1.388 . S
N358 C359 1.346 . S
C359 N358 1.346 . S
C359 C360 1.396 . S
C359 C369 1.510 . S
C360 C356 1.401 . S
C360 C359 1.396 . S
C361 C356 1.499 . S
C361 H362 0.959 . S
C361 H363 0.960 . S
C361 H364 0.961 . S
H362 C361 0.959 . S
H363 C361 0.960 . S
H364 C361 0.961 . S
O365 Co340 1.967 . S
O365 C373 1.258 . S
O366 Co341 1.941 . S
O366 C373 1.266 . S
H367 C369 0.959 . S
H368 C369 0.961 . S
C369 C359 1.510 . S
C369 H367 0.959 . S
C369 H368 0.961 . S
C369 H370 0.960 . S
H370 C369 0.960 . S
H371 N351 0.862 . S
O372 Co340 1.920 . S
O372 C345 1.289 . S
C373 O365 1.258 . S
C373 O366 1.266 . S
Co374 O377 1.970 . S
Co374 N391 1.989 . S
Co374 O399 1.967 . S
Co374 O406 1.920 . S
Co375 O378 1.972 . S
Co375 N384 2.022 . S
Co375 N392 1.993 . S
Co375 O400 1.941 . S
C376 O377 1.258 . S
C376 O378 1.264 . S
O377 Co374 1.970 . S
O377 C376 1.258 . S
O378 Co375 1.972 . S
O378 C376 1.264 . S
C379 O380 1.235 . S
C379 O406 1.289 . S
O380 C379 1.235 . S
C381 C383 1.400 . S
C381 N384 1.351 1_565 S
C381 C386 1.501 . S
C382 C383 1.387 . S
C382 N385 1.341 1_565 S
C383 C381 1.400 . S
C383 C382 1.387 . S
N384 Co375 2.022 . S
N384 C381 1.351 1_545 S
N384 N385 1.365 . S
N385 C382 1.341 1_545 S
N385 N384 1.365 . S
N385 H405 0.862 . S
C386 C381 1.501 . S
C386 H387 0.961 . S
C386 H388 0.961 . S
C386 H389 0.960 . S
H387 C386 0.961 . S
H388 C386 0.961 . S
H389 C386 0.960 . S
C390 N391 1.342 . S
C390 C394 1.401 . S
C390 C395 1.499 . S
N391 Co374 1.989 . S
N391 C390 1.342 . S
N391 N392 1.388 . S
N392 Co375 1.993 . S
N392 N391 1.388 . S
N392 C393 1.346 . S
C393 N392 1.346 . S
C393 C394 1.396 . S
C393 C403 1.510 . S
C394 C390 1.401 . S
C394 C393 1.396 . S
C395 C390 1.499 . S
C395 H396 0.959 . S
C395 H397 0.960 . S
C395 H398 0.961 . S
H396 C395 0.959 . S
H397 C395 0.960 . S
H398 C395 0.961 . S
O399 Co374 1.967 . S
O399 C407 1.258 . S
O400 Co375 1.941 . S
O400 C407 1.266 . S
H401 C403 0.959 . S
H402 C403 0.961 . S
C403 C393 1.510 . S
C403 H401 0.959 . S
C403 H402 0.961 . S
C403 H404 0.960 . S
H404 C403 0.960 . S
H405 N385 0.862 . S
O406 Co374 1.920 . S
O406 C379 1.289 . S
C407 O399 1.258 . S
C407 O400 1.266 . S
Co408 O411 1.970 . S
Co408 N425 1.989 . S
Co408 O433 1.967 . S
Co408 O440 1.920 . S
Co409 O412 1.972 . S
Co409 N418 2.022 . S
Co409 N426 1.993 . S
Co409 O434 1.941 . S
C410 O411 1.258 . S
C410 O412 1.264 . S
O411 Co408 1.970 . S
O411 C410 1.258 . S
O412 Co409 1.972 . S
O412 C410 1.264 . S
C413 O414 1.235 . S
C413 O440 1.289 . S
O414 C413 1.235 . S
C415 C417 1.400 . S
C415 N418 1.351 1_455 S
C415 C420 1.501 . S
C416 C417 1.387 . S
C416 N419 1.341 1_455 S
C417 C415 1.400 . S
C417 C416 1.387 . S
N418 Co409 2.022 . S
N418 C415 1.351 1_655 S
N418 N419 1.365 . S
N419 C416 1.341 1_655 S
N419 N418 1.365 . S
N419 H439 0.862 . S
C420 C415 1.501 . S
C420 H421 0.961 . S
C420 H422 0.961 . S
C420 H423 0.960 . S
H421 C420 0.961 . S
H422 C420 0.961 . S
H423 C420 0.960 . S
C424 N425 1.342 . S
C424 C428 1.401 . S
C424 C429 1.499 . S
N425 Co408 1.989 . S
N425 C424 1.342 . S
N425 N426 1.388 . S
N426 Co409 1.993 . S
N426 N425 1.388 . S
N426 C427 1.346 . S
C427 N426 1.346 . S
C427 C428 1.396 . S
C427 C437 1.510 . S
C428 C424 1.401 . S
C428 C427 1.396 . S
C429 C424 1.499 . S
C429 H430 0.959 . S
C429 H431 0.960 . S
C429 H432 0.961 . S
H430 C429 0.959 . S
H431 C429 0.960 . S
H432 C429 0.961 . S
O433 Co408 1.967 . S
O433 C441 1.258 . S
O434 Co409 1.941 . S
O434 C441 1.266 . S
H435 C437 0.959 . S
H436 C437 0.961 . S
C437 C427 1.510 . S
C437 H435 0.959 . S
C437 H436 0.961 . S
C437 H438 0.960 . S
H438 C437 0.960 . S
H439 N419 0.862 . S
O440 Co408 1.920 . S
O440 C413 1.289 . S
C441 O433 1.258 . S
C441 O434 1.266 . S
Co442 O445 1.970 . S
Co442 N459 1.989 . S
Co442 O467 1.967 . S
Co442 O474 1.920 . S
Co443 O446 1.972 . S
Co443 N452 2.022 . S
Co443 N460 1.993 . S
Co443 O468 1.941 . S
C444 O445 1.258 . S
C444 O446 1.264 . S
O445 Co442 1.970 . S
O445 C444 1.258 . S
O446 Co443 1.972 . S
O446 C444 1.264 . S
C447 O448 1.235 . S
C447 O474 1.289 . S
O448 C447 1.235 . S
C449 C451 1.400 . S
C449 N452 1.351 1_545 S
C449 C454 1.501 . S
C450 C451 1.387 . S
C450 N453 1.341 1_545 S
C451 C449 1.400 . S
C451 C450 1.387 . S
N452 Co443 2.022 . S
N452 C449 1.351 1_565 S
N452 N453 1.365 . S
N453 C450 1.341 1_565 S
N453 N452 1.365 . S
N453 H473 0.862 . S
C454 C449 1.501 . S
C454 H455 0.961 . S
C454 H456 0.961 . S
C454 H457 0.960 . S
H455 C454 0.961 . S
H456 C454 0.961 . S
H457 C454 0.960 . S
C458 N459 1.342 . S
C458 C462 1.401 . S
C458 C463 1.499 . S
N459 Co442 1.989 . S
N459 C458 1.342 . S
N459 N460 1.388 . S
N460 Co443 1.993 . S
N460 N459 1.388 . S
N460 C461 1.346 . S
C461 N460 1.346 . S
C461 C462 1.396 . S
C461 C471 1.510 . S
C462 C458 1.401 . S
C462 C461 1.396 . S
C463 C458 1.499 . S
C463 H464 0.959 . S
C463 H465 0.960 . S
C463 H466 0.961 . S
H464 C463 0.959 . S
H465 C463 0.960 . S
H466 C463 0.961 . S
O467 Co442 1.967 . S
O467 C475 1.258 . S
O468 Co443 1.941 . S
O468 C475 1.266 . S
H469 C471 0.959 . S
H470 C471 0.961 . S
C471 C461 1.510 . S
C471 H469 0.959 . S
C471 H470 0.961 . S
C471 H472 0.960 . S
H472 C471 0.960 . S
H473 N453 0.862 . S
O474 Co442 1.920 . S
O474 C447 1.289 . S
C475 O467 1.258 . S
C475 O468 1.266 . S
Co476 O479 1.970 . S
Co476 N493 1.989 . S
Co476 O501 1.967 . S
Co476 O508 1.920 . S
Co477 O480 1.966 . S
Co477 N486 2.022 . S
Co477 N494 1.993 . S
Co477 O502 1.941 . S
C478 O479 1.258 . S
C478 O480 1.263 . S
O479 Co476 1.970 . S
O479 C478 1.258 . S
O480 Co477 1.966 . S
O480 C478 1.263 . S
C481 O482 1.235 . S
C481 O508 1.289 . S
O482 C481 1.235 . S
C483 C485 1.400 . S
C483 N486 1.351 . S
C483 C488 1.501 . S
C484 C485 1.387 . S
C484 N487 1.341 . S
C485 C483 1.400 . S
C485 C484 1.387 . S
N486 Co477 2.022 . S
N486 C483 1.351 . S
N486 N487 1.365 . S
N487 C484 1.341 . S
N487 N486 1.365 . S
N487 H507 0.862 . S
C488 C483 1.501 . S
C488 H489 0.961 . S
C488 H490 0.961 . S
C488 H491 0.960 . S
H489 C488 0.961 . S
H490 C488 0.961 . S
H491 C488 0.960 . S
C492 N493 1.342 . S
C492 C496 1.401 . S
C492 C497 1.499 . S
N493 Co476 1.989 . S
N493 C492 1.342 . S
N493 N494 1.388 . S
N494 Co477 1.993 . S
N494 N493 1.388 . S
N494 C495 1.346 . S
C495 N494 1.346 . S
C495 C496 1.396 . S
C495 C505 1.510 . S
C496 C492 1.401 . S
C496 C495 1.396 . S
C497 C492 1.499 . S
C497 H498 0.959 . S
C497 H499 0.960 . S
C497 H500 0.961 . S
H498 C497 0.959 . S
H499 C497 0.960 . S
H500 C497 0.961 . S
O501 Co476 1.967 . S
O501 C509 1.258 . S
O502 Co477 1.941 . S
O502 C509 1.266 . S
H503 C505 0.959 . S
H504 C505 0.961 . S
C505 C495 1.510 . S
C505 H503 0.959 . S
C505 H504 0.961 . S
C505 H506 0.960 . S
H506 C505 0.960 . S
H507 N487 0.862 . S
O508 Co476 1.920 . S
O508 C481 1.289 . S
C509 O501 1.258 . S
C509 O502 1.266 . S
Co510 O513 1.970 . S
Co510 N527 1.989 . S
Co510 O535 1.967 . S
Co510 O542 1.920 . S
Co511 O514 1.966 . S
Co511 N520 2.022 . S
Co511 N528 1.993 . S
Co511 O536 1.941 . S
C512 O513 1.258 . S
C512 O514 1.263 . S
O513 Co510 1.970 . S
O513 C512 1.258 . S
O514 Co511 1.966 . S
O514 C512 1.263 . S
C515 O516 1.235 . S
C515 O542 1.289 . S
O516 C515 1.235 . S
C517 C519 1.400 . S
C517 N520 1.351 . S
C517 C522 1.501 . S
C518 C519 1.387 . S
C518 N521 1.341 . S
C519 C517 1.400 . S
C519 C518 1.387 . S
N520 Co511 2.022 . S
N520 C517 1.351 . S
N520 N521 1.365 . S
N521 C518 1.341 . S
N521 N520 1.365 . S
N521 H541 0.862 . S
C522 C517 1.501 . S
C522 H523 0.961 . S
C522 H524 0.961 . S
C522 H525 0.960 . S
H523 C522 0.961 . S
H524 C522 0.961 . S
H525 C522 0.960 . S
C526 N527 1.342 . S
C526 C530 1.401 . S
C526 C531 1.499 . S
N527 Co510 1.989 . S
N527 C526 1.342 . S
N527 N528 1.388 . S
N528 Co511 1.993 . S
N528 N527 1.388 . S
N528 C529 1.346 . S
C529 N528 1.346 . S
C529 C530 1.396 . S
C529 C539 1.510 . S
C530 C526 1.401 . S
C530 C529 1.396 . S
C531 C526 1.499 . S
C531 H532 0.959 . S
C531 H533 0.960 . S
C531 H534 0.961 . S
H532 C531 0.959 . S
H533 C531 0.960 . S
H534 C531 0.961 . S
O535 Co510 1.967 . S
O535 C543 1.258 . S
O536 Co511 1.941 . S
O536 C543 1.266 . S
H537 C539 0.959 . S
H538 C539 0.961 . S
C539 C529 1.510 . S
C539 H537 0.959 . S
C539 H538 0.961 . S
C539 H540 0.960 . S
H540 C539 0.960 . S
H541 N521 0.862 . S
O542 Co510 1.920 . S
O542 C515 1.289 . S
C543 O535 1.258 . S
C543 O536 1.266 . S
C544 C545 1.349 . S
C544 C546 1.327 . S
C544 H569 0.950 . S
C545 C544 1.349 . S
C545 C561 1.349 . S
C546 C544 1.327 . S
C546 C565 1.429 . S
C546 H570 0.950 . S
C547 C564 1.574 . S
C547 C566 1.368 . S
C547 H571 0.949 . S
H548 C552 0.949 . S
C549 C550 1.349 . S
C549 C551 1.327 . S
C549 H572 0.950 . S
C550 C549 1.349 . S
C550 C562 1.349 . S
C551 C549 1.327 . S
C551 C567 1.429 . S
C551 H573 0.950 . S
C552 H548 0.949 . S
C552 C560 1.574 . S
C552 C568 1.368 . S
H553 C561 0.950 . S
H554 C559 0.950 . S
H555 C560 0.949 . S
H556 C562 0.950 . S
H557 C563 0.950 . S
H558 C564 0.949 . S
C559 H554 0.950 . S
C559 C561 1.327 . S
C559 C565 1.429 . S
C560 C552 1.574 . S
C560 H555 0.949 . S
C560 C566 1.368 . S
C561 C545 1.349 . S
C561 H553 0.950 . S
C561 C559 1.327 . S
C562 C550 1.349 . S
C562 H556 0.950 . S
C562 C563 1.327 . S
C563 H557 0.950 . S
C563 C562 1.327 . S
C563 C567 1.429 . S
C564 C547 1.574 . S
C564 H558 0.949 . S
C564 C568 1.368 . S
C565 C546 1.429 . S
C565 C559 1.429 . S
C565 C566 1.523 . S
C566 C547 1.368 . S
C566 C560 1.368 . S
C566 C565 1.523 . S
C567 C551 1.429 . S
C567 C563 1.429 . S
C567 C568 1.523 . S
C568 C552 1.368 . S
C568 C564 1.368 . S
C568 C567 1.523 . S
H569 C544 0.950 . S
H570 C546 0.950 . S
H571 C547 0.949 . S
H572 C549 0.950 . S
H573 C551 0.950 . S
C574 C575 1.349 . S
C574 C576 1.327 . S
C574 H599 0.950 . S
C575 C574 1.349 . S
C575 C591 1.349 . S
C576 C574 1.327 . S
C576 C595 1.429 . S
C576 H600 0.950 . S
C577 C594 1.574 . S
C577 C596 1.368 . S
C577 H601 0.949 . S
H578 C582 0.949 . S
C579 C580 1.349 . S
C579 C581 1.327 . S
C579 H602 0.950 . S
C580 C579 1.349 . S
C580 C592 1.349 . S
C581 C579 1.327 . S
C581 C597 1.429 . S
C581 H603 0.950 . S
C582 H578 0.949 . S
C582 C590 1.574 . S
C582 C598 1.368 . S
H583 C591 0.950 . S
H584 C589 0.950 . S
H585 C590 0.949 . S
H586 C592 0.950 . S
H587 C593 0.950 . S
H588 C594 0.949 . S
C589 H584 0.950 . S
C589 C591 1.327 . S
C589 C595 1.429 . S
C590 C582 1.574 . S
C590 H585 0.949 . S
C590 C596 1.368 . S
C591 C575 1.349 . S
C591 H583 0.950 . S
C591 C589 1.327 . S
C592 C580 1.349 . S
C592 H586 0.950 . S
C592 C593 1.327 . S
C593 H587 0.950 . S
C593 C592 1.327 . S
C593 C597 1.429 . S
C594 C577 1.574 . S
C594 H588 0.949 . S
C594 C598 1.368 . S
C595 C576 1.429 . S
C595 C589 1.429 . S
C595 C596 1.523 . S
C596 C577 1.368 . S
C596 C590 1.368 . S
C596 C595 1.523 . S
C597 C581 1.429 . S
C597 C593 1.429 . S
C597 C598 1.523 . S
C598 C582 1.368 . S
C598 C594 1.368 . S
C598 C597 1.523 . S
H599 C574 0.950 . S
H600 C576 0.950 . S
H601 C577 0.949 . S
H602 C579 0.950 . S
H603 C581 0.950 . S
C604 C605 1.349 . S
C604 C606 1.327 . S
C604 H629 0.950 . S
C605 C604 1.349 . S
C605 C621 1.349 . S
C606 C604 1.327 . S
C606 C625 1.429 . S
C606 H630 0.950 . S
C607 C624 1.574 . S
C607 C626 1.368 . S
C607 H631 0.949 . S
H608 C612 0.949 . S
C609 C610 1.349 . S
C609 C611 1.327 . S
C609 H632 0.950 . S
C610 C609 1.349 . S
C610 C622 1.349 . S
C611 C609 1.327 . S
C611 C627 1.429 . S
C611 H633 0.950 . S
C612 H608 0.949 . S
C612 C620 1.574 . S
C612 C628 1.368 . S
H613 C621 0.950 . S
H614 C619 0.950 . S
H615 C620 0.949 . S
H616 C622 0.950 . S
H617 C623 0.950 . S
H618 C624 0.949 . S
C619 H614 0.950 . S
C619 C621 1.327 . S
C619 C625 1.429 . S
C620 C612 1.574 . S
C620 H615 0.949 . S
C620 C626 1.368 . S
C621 C605 1.349 . S
C621 H613 0.950 . S
C621 C619 1.327 . S
C622 C610 1.349 . S
C622 H616 0.950 . S
C622 C623 1.327 . S
C623 H617 0.950 . S
C623 C622 1.327 . S
C623 C627 1.429 . S
C624 C607 1.574 . S
C624 H618 0.949 . S
C624 C628 1.368 . S
C625 C606 1.429 . S
C625 C619 1.429 . S
C625 C626 1.523 . S
C626 C607 1.368 . S
C626 C620 1.368 . S
C626 C625 1.523 . S
C627 C611 1.429 . S
C627 C623 1.429 . S
C627 C628 1.523 . S
C628 C612 1.368 . S
C628 C624 1.368 . S
C628 C627 1.523 . S
H629 C604 0.950 . S
H630 C606 0.950 . S
H631 C607 0.949 . S
H632 C609 0.950 . S
H633 C611 0.950 . S
C634 C635 1.349 . S
C634 C636 1.327 . S
C634 H659 0.950 . S
C635 C634 1.349 . S
C635 C651 1.349 . S
C636 C634 1.327 . S
C636 C655 1.429 . S
C636 H660 0.950 . S
C637 C654 1.574 . S
C637 C656 1.368 . S
C637 H661 0.949 . S
H638 C642 0.949 . S
C639 C640 1.349 . S
C639 C641 1.327 . S
C639 H662 0.950 . S
C640 C639 1.349 . S
C640 C652 1.349 . S
C641 C639 1.327 . S
C641 C657 1.429 . S
C641 H663 0.950 . S
C642 H638 0.949 . S
C642 C650 1.574 . S
C642 C658 1.368 . S
H643 C651 0.950 . S
H644 C649 0.950 . S
H645 C650 0.949 . S
H646 C652 0.950 . S
H647 C653 0.950 . S
H648 C654 0.949 . S
C649 H644 0.950 . S
C649 C651 1.327 . S
C649 C655 1.429 . S
C650 C642 1.574 . S
C650 H645 0.949 . S
C650 C656 1.368 . S
C651 C635 1.349 . S
C651 H643 0.950 . S
C651 C649 1.327 . S
C652 C640 1.349 . S
C652 H646 0.950 . S
C652 C653 1.327 . S
C653 H647 0.950 . S
C653 C652 1.327 . S
C653 C657 1.429 . S
C654 C637 1.574 . S
C654 H648 0.949 . S
C654 C658 1.368 . S
C655 C636 1.429 . S
C655 C649 1.429 . S
C655 C656 1.523 . S
C656 C637 1.368 . S
C656 C650 1.368 . S
C656 C655 1.523 . S
C657 C641 1.429 . S
C657 C653 1.429 . S
C657 C658 1.523 . S
C658 C642 1.368 . S
C658 C654 1.368 . S
C658 C657 1.523 . S
H659 C634 0.950 . S
H660 C636 0.950 . S
H661 C637 0.949 . S
H662 C639 0.950 . S
H663 C641 0.950 . S
C664 C665 1.349 . S
C664 C666 1.327 . S
C664 H689 0.950 . S
C665 C664 1.349 . S
C665 C681 1.349 . S
C666 C664 1.327 . S
C666 C685 1.429 . S
C666 H690 0.950 . S
C667 C684 1.574 . S
C667 C686 1.368 . S
C667 H691 0.949 . S
H668 C672 0.949 . S
C669 C670 1.349 . S
C669 C671 1.327 . S
C669 H692 0.950 . S
C670 C669 1.349 . S
C670 C682 1.349 . S
C671 C669 1.327 . S
C671 C687 1.429 . S
C671 H693 0.950 . S
C672 H668 0.949 . S
C672 C680 1.574 . S
C672 C688 1.368 . S
H673 C681 0.950 . S
H674 C679 0.950 . S
H675 C680 0.949 . S
H676 C682 0.950 . S
H677 C683 0.950 . S
H678 C684 0.949 . S
C679 H674 0.950 . S
C679 C681 1.327 . S
C679 C685 1.429 . S
C680 C672 1.574 . S
C680 H675 0.949 . S
C680 C686 1.368 . S
C681 C665 1.349 . S
C681 H673 0.950 . S
C681 C679 1.327 . S
C682 C670 1.349 . S
C682 H676 0.950 . S
C682 C683 1.327 . S
C683 H677 0.950 . S
C683 C682 1.327 . S
C683 C687 1.429 . S
C684 C667 1.574 . S
C684 H678 0.949 . S
C684 C688 1.368 . S
C685 C666 1.429 . S
C685 C679 1.429 . S
C685 C686 1.523 . S
C686 C667 1.368 . S
C686 C680 1.368 . S
C686 C685 1.523 . S
C687 C671 1.429 . S
C687 C683 1.429 . S
C687 C688 1.523 . S
C688 C672 1.368 . S
C688 C684 1.368 . S
C688 C687 1.523 . S
H689 C664 0.950 . S
H690 C666 0.950 . S
H691 C667 0.949 . S
H692 C669 0.950 . S
H693 C671 0.950 . S
C694 C695 1.349 . S
C694 C696 1.327 . S
C694 H719 0.950 . S
C695 C694 1.349 . S
C695 C711 1.349 . S
C696 C694 1.327 . S
C696 C715 1.429 . S
C696 H720 0.950 . S
C697 C714 1.574 . S
C697 C716 1.368 . S
C697 H721 0.949 . S
H698 C702 0.949 . S
C699 C700 1.349 . S
C699 C701 1.327 . S
C699 H722 0.950 . S
C700 C699 1.349 . S
C700 C712 1.349 . S
C701 C699 1.327 . S
C701 C717 1.429 . S
C701 H723 0.950 . S
C702 H698 0.949 . S
C702 C710 1.574 . S
C702 C718 1.368 . S
H703 C711 0.950 . S
H704 C709 0.950 . S
H705 C710 0.949 . S
H706 C712 0.950 . S
H707 C713 0.950 . S
H708 C714 0.949 . S
C709 H704 0.950 . S
C709 C711 1.327 . S
C709 C715 1.429 . S
C710 C702 1.574 . S
C710 H705 0.949 . S
C710 C716 1.368 . S
C711 C695 1.349 . S
C711 H703 0.950 . S
C711 C709 1.327 . S
C712 C700 1.349 . S
C712 H706 0.950 . S
C712 C713 1.327 . S
C713 H707 0.950 . S
C713 C712 1.327 . S
C713 C717 1.429 . S
C714 C697 1.574 . S
C714 H708 0.949 . S
C714 C718 1.368 . S
C715 C696 1.429 . S
C715 C709 1.429 . S
C715 C716 1.523 . S
C716 C697 1.368 . S
C716 C710 1.368 . S
C716 C715 1.523 . S
C717 C701 1.429 . S
C717 C713 1.429 . S
C717 C718 1.523 . S
C718 C702 1.368 . S
C718 C714 1.368 . S
C718 C717 1.523 . S
H719 C694 0.950 . S
H720 C696 0.950 . S
H721 C697 0.949 . S
H722 C699 0.950 . S
H723 C701 0.950 . S
C724 C725 1.349 . S
C724 C726 1.327 . S
C724 H749 0.950 . S
C725 C724 1.349 . S
C725 C741 1.349 . S
C726 C724 1.327 . S
C726 C745 1.429 . S
C726 H750 0.950 . S
C727 C744 1.574 . S
C727 C746 1.368 . S
C727 H751 0.949 . S
H728 C732 0.949 . S
C729 C730 1.349 . S
C729 C731 1.327 . S
C729 H752 0.950 . S
C730 C729 1.349 . S
C730 C742 1.349 . S
C731 C729 1.327 . S
C731 C747 1.429 . S
C731 H753 0.950 . S
C732 H728 0.949 . S
C732 C740 1.574 . S
C732 C748 1.368 . S
H733 C741 0.950 . S
H734 C739 0.950 . S
H735 C740 0.949 . S
H736 C742 0.950 . S
H737 C743 0.950 . S
H738 C744 0.949 . S
C739 H734 0.950 . S
C739 C741 1.327 . S
C739 C745 1.429 . S
C740 C732 1.574 . S
C740 H735 0.949 . S
C740 C746 1.368 . S
C741 C725 1.349 . S
C741 H733 0.950 . S
C741 C739 1.327 . S
C742 C730 1.349 . S
C742 H736 0.950 . S
C742 C743 1.327 . S
C743 H737 0.950 . S
C743 C742 1.327 . S
C743 C747 1.429 . S
C744 C727 1.574 . S
C744 H738 0.949 . S
C744 C748 1.368 . S
C745 C726 1.429 . S
C745 C739 1.429 . S
C745 C746 1.523 . S
C746 C727 1.368 . S
C746 C740 1.368 . S
C746 C745 1.523 . S
C747 C731 1.429 . S
C747 C743 1.429 . S
C747 C748 1.523 . S
C748 C732 1.368 . S
C748 C744 1.368 . S
C748 C747 1.523 . S
H749 C724 0.950 . S
H750 C726 0.950 . S
H751 C727 0.949 . S
H752 C729 0.950 . S
H753 C731 0.950 . S
C754 C755 1.349 . S
C754 C756 1.327 . S
C754 H779 0.950 . S
C755 C754 1.349 . S
C755 C771 1.349 . S
C756 C754 1.327 . S
C756 C775 1.429 . S
C756 H780 0.950 . S
C757 C774 1.574 . S
C757 C776 1.368 . S
C757 H781 0.949 . S
H758 C762 0.949 . S
C759 C760 1.349 . S
C759 C761 1.327 . S
C759 H782 0.950 . S
C760 C759 1.349 . S
C760 C772 1.349 . S
C761 C759 1.327 . S
C761 C777 1.429 . S
C761 H783 0.950 . S
C762 H758 0.949 . S
C762 C770 1.574 . S
C762 C778 1.368 . S
H763 C771 0.950 . S
H764 C769 0.950 . S
H765 C770 0.949 . S
H766 C772 0.950 . S
H767 C773 0.950 . S
H768 C774 0.949 . S
C769 H764 0.950 . S
C769 C771 1.327 . S
C769 C775 1.429 . S
C770 C762 1.574 . S
C770 H765 0.949 . S
C770 C776 1.368 . S
C771 C755 1.349 . S
C771 H763 0.950 . S
C771 C769 1.327 . S
C772 C760 1.349 . S
C772 H766 0.950 . S
C772 C773 1.327 . S
C773 H767 0.950 . S
C773 C772 1.327 . S
C773 C777 1.429 . S
C774 C757 1.574 . S
C774 H768 0.949 . S
C774 C778 1.368 . S
C775 C756 1.429 . S
C775 C769 1.429 . S
C775 C776 1.523 . S
C776 C757 1.368 . S
C776 C770 1.368 . S
C776 C775 1.523 . S
C777 C761 1.429 . S
C777 C773 1.429 . S
C777 C778 1.523 . S
C778 C762 1.368 . S
C778 C774 1.368 . S
C778 C777 1.523 . S
H779 C754 0.950 . S
H780 C756 0.950 . S
H781 C757 0.949 . S
H782 C759 0.950 . S
H783 C761 0.950 . S
C784 C785 1.349 . S
C784 C786 1.327 . S
C784 H809 0.950 . S
C785 C784 1.349 . S
C785 C801 1.349 . S
C786 C784 1.327 . S
C786 C805 1.429 . S
C786 H810 0.950 . S
C787 C804 1.574 . S
C787 C806 1.368 . S
C787 H811 0.949 . S
H788 C792 0.949 . S
C789 C790 1.349 . S
C789 C791 1.327 . S
C789 H812 0.950 . S
C790 C789 1.349 . S
C790 C802 1.349 . S
C791 C789 1.327 . S
C791 C807 1.429 . S
C791 H813 0.950 . S
C792 H788 0.949 . S
C792 C800 1.574 . S
C792 C808 1.368 . S
H793 C801 0.950 . S
H794 C799 0.950 . S
H795 C800 0.949 . S
H796 C802 0.950 . S
H797 C803 0.950 . S
H798 C804 0.949 . S
C799 H794 0.950 . S
C799 C801 1.327 . S
C799 C805 1.429 . S
C800 C792 1.574 . S
C800 H795 0.949 . S
C800 C806 1.368 . S
C801 C785 1.349 . S
C801 H793 0.950 . S
C801 C799 1.327 . S
C802 C790 1.349 . S
C802 H796 0.950 . S
C802 C803 1.327 . S
C803 H797 0.950 . S
C803 C802 1.327 . S
C803 C807 1.429 . S
C804 C787 1.574 . S
C804 H798 0.949 . S
C804 C808 1.368 . S
C805 C786 1.429 . S
C805 C799 1.429 . S
C805 C806 1.523 . S
C806 C787 1.368 . S
C806 C800 1.368 . S
C806 C805 1.523 . S
C807 C791 1.429 . S
C807 C803 1.429 . S
C807 C808 1.523 . S
C808 C792 1.368 . S
C808 C804 1.368 . S
C808 C807 1.523 . S
H809 C784 0.950 . S
H810 C786 0.950 . S
H811 C787 0.949 . S
H812 C789 0.950 . S
H813 C791 0.950 . S
C814 C815 1.349 . S
C814 C816 1.327 . S
C814 H839 0.950 . S
C815 C814 1.349 . S
C815 C831 1.349 . S
C816 C814 1.327 . S
C816 C835 1.429 . S
C816 H840 0.950 . S
C817 C834 1.574 . S
C817 C836 1.368 . S
C817 H841 0.949 . S
H818 C822 0.949 . S
C819 C820 1.349 . S
C819 C821 1.327 . S
C819 H842 0.950 . S
C820 C819 1.349 . S
C820 C832 1.349 . S
C821 C819 1.327 . S
C821 C837 1.429 . S
C821 H843 0.950 . S
C822 H818 0.949 . S
C822 C830 1.574 . S
C822 C838 1.368 . S
H823 C831 0.950 . S
H824 C829 0.950 . S
H825 C830 0.949 . S
H826 C832 0.950 . S
H827 C833 0.950 . S
H828 C834 0.949 . S
C829 H824 0.950 . S
C829 C831 1.327 . S
C829 C835 1.429 . S
C830 C822 1.574 . S
C830 H825 0.949 . S
C830 C836 1.368 . S
C831 C815 1.349 . S
C831 H823 0.950 . S
C831 C829 1.327 . S
C832 C820 1.349 . S
C832 H826 0.950 . S
C832 C833 1.327 . S
C833 H827 0.950 . S
C833 C832 1.327 . S
C833 C837 1.429 . S
C834 C817 1.574 . S
C834 H828 0.949 . S
C834 C838 1.368 . S
C835 C816 1.429 . S
C835 C829 1.429 . S
C835 C836 1.523 . S
C836 C817 1.368 . S
C836 C830 1.368 . S
C836 C835 1.523 . S
C837 C821 1.429 . S
C837 C833 1.429 . S
C837 C838 1.523 . S
C838 C822 1.368 . S
C838 C834 1.368 . S
C838 C837 1.523 . S
H839 C814 0.950 . S
H840 C816 0.950 . S
H841 C817 0.949 . S
H842 C819 0.950 . S
H843 C821 0.950 . S
C844 C845 1.349 . S
C844 C846 1.327 . S
C844 H869 0.950 . S
C845 C844 1.349 . S
C845 C861 1.349 . S
C846 C844 1.327 . S
C846 C865 1.429 . S
C846 H870 0.950 . S
C847 C864 1.574 . S
C847 C866 1.368 . S
C847 H871 0.949 . S
H848 C852 0.949 . S
C849 C850 1.349 . S
C849 C851 1.327 . S
C849 H872 0.950 . S
C850 C849 1.349 . S
C850 C862 1.349 . S
C851 C849 1.327 . S
C851 C867 1.429 . S
C851 H873 0.950 . S
C852 H848 0.949 . S
C852 C860 1.574 . S
C852 C868 1.368 . S
H853 C861 0.950 . S
H854 C859 0.950 . S
H855 C860 0.949 . S
H856 C862 0.950 . S
H857 C863 0.950 . S
H858 C864 0.949 . S
C859 H854 0.950 . S
C859 C861 1.327 . S
C859 C865 1.429 . S
C860 C852 1.574 . S
C860 H855 0.949 . S
C860 C866 1.368 . S
C861 C845 1.349 . S
C861 H853 0.950 . S
C861 C859 1.327 . S
C862 C850 1.349 . S
C862 H856 0.950 . S
C862 C863 1.327 . S
C863 H857 0.950 . S
C863 C862 1.327 . S
C863 C867 1.429 . S
C864 C847 1.574 . S
C864 H858 0.949 . S
C864 C868 1.368 . S
C865 C846 1.429 . S
C865 C859 1.429 . S
C865 C866 1.523 . S
C866 C847 1.368 . S
C866 C860 1.368 . S
C866 C865 1.523 . S
C867 C851 1.429 . S
C867 C863 1.429 . S
C867 C868 1.523 . S
C868 C852 1.368 . S
C868 C864 1.368 . S
C868 C867 1.523 . S
H869 C844 0.950 . S
H870 C846 0.950 . S
H871 C847 0.949 . S
H872 C849 0.950 . S
H873 C851 0.950 . S
C874 C875 1.349 . S
C874 C876 1.327 . S
C874 H899 0.950 . S
C875 C874 1.349 . S
C875 C891 1.349 . S
C876 C874 1.327 . S
C876 C895 1.429 . S
C876 H900 0.950 . S
C877 C894 1.574 . S
C877 C896 1.368 . S
C877 H901 0.949 . S
H878 C882 0.949 . S
C879 C880 1.349 . S
C879 C881 1.327 . S
C879 H902 0.950 . S
C880 C879 1.349 . S
C880 C892 1.349 . S
C881 C879 1.327 . S
C881 C897 1.429 . S
C881 H903 0.950 . S
C882 H878 0.949 . S
C882 C890 1.574 . S
C882 C898 1.368 . S
H883 C891 0.950 . S
H884 C889 0.950 . S
H885 C890 0.949 . S
H886 C892 0.950 . S
H887 C893 0.950 . S
H888 C894 0.949 . S
C889 H884 0.950 . S
C889 C891 1.327 . S
C889 C895 1.429 . S
C890 C882 1.574 . S
C890 H885 0.949 . S
C890 C896 1.368 . S
C891 C875 1.349 . S
C891 H883 0.950 . S
C891 C889 1.327 . S
C892 C880 1.349 . S
C892 H886 0.950 . S
C892 C893 1.327 . S
C893 H887 0.950 . S
C893 C892 1.327 . S
C893 C897 1.429 . S
C894 C877 1.574 . S
C894 H888 0.949 . S
C894 C898 1.368 . S
C895 C876 1.429 . S
C895 C889 1.429 . S
C895 C896 1.523 . S
C896 C877 1.368 . S
C896 C890 1.368 . S
C896 C895 1.523 . S
C897 C881 1.429 . S
C897 C893 1.429 . S
C897 C898 1.523 . S
C898 C882 1.368 . S
C898 C894 1.368 . S
C898 C897 1.523 . S
H899 C874 0.950 . S
H900 C876 0.950 . S
H901 C877 0.949 . S
H902 C879 0.950 . S
H903 C881 0.950 . S
C904 C905 1.349 . S
C904 C906 1.327 . S
C904 H929 0.950 . S
C905 C904 1.349 . S
C905 C921 1.349 . S
C906 C904 1.327 . S
C906 C925 1.429 . S
C906 H930 0.950 . S
C907 C924 1.574 . S
C907 C926 1.368 . S
C907 H931 0.949 . S
H908 C912 0.949 . S
C909 C910 1.349 . S
C909 C911 1.327 . S
C909 H932 0.950 . S
C910 C909 1.349 . S
C910 C922 1.349 . S
C911 C909 1.327 . S
C911 C927 1.429 . S
C911 H933 0.950 . S
C912 H908 0.949 . S
C912 C920 1.574 . S
C912 C928 1.368 . S
H913 C921 0.950 . S
H914 C919 0.950 . S
H915 C920 0.949 . S
H916 C922 0.950 . S
H917 C923 0.950 . S
H918 C924 0.949 . S
C919 H914 0.950 . S
C919 C921 1.327 . S
C919 C925 1.429 . S
C920 C912 1.574 . S
C920 H915 0.949 . S
C920 C926 1.368 . S
C921 C905 1.349 . S
C921 H913 0.950 . S
C921 C919 1.327 . S
C922 C910 1.349 . S
C922 H916 0.950 . S
C922 C923 1.327 . S
C923 H917 0.950 . S
C923 C922 1.327 . S
C923 C927 1.429 . S
C924 C907 1.574 . S
C924 H918 0.949 . S
C924 C928 1.368 . S
C925 C906 1.429 . S
C925 C919 1.429 . S
C925 C926 1.523 . S
C926 C907 1.368 . S
C926 C920 1.368 . S
C926 C925 1.523 . S
C927 C911 1.429 . S
C927 C923 1.429 . S
C927 C928 1.523 . S
C928 C912 1.368 . S
C928 C924 1.368 . S
C928 C927 1.523 . S
H929 C904 0.950 . S
H930 C906 0.950 . S
H931 C907 0.949 . S
H932 C909 0.950 . S
H933 C911 0.950 . S
C934 C935 1.349 . S
C934 C936 1.327 . S
C934 H959 0.950 . S
C935 C934 1.349 . S
C935 C951 1.349 . S
C936 C934 1.327 . S
C936 C955 1.429 . S
C936 H960 0.950 . S
C937 C954 1.574 . S
C937 C956 1.368 . S
C937 H961 0.949 . S
H938 C942 0.949 . S
C939 C940 1.349 . S
C939 C941 1.327 . S
C939 H962 0.950 . S
C940 C939 1.349 . S
C940 C952 1.349 . S
C941 C939 1.327 . S
C941 C957 1.429 . S
C941 H963 0.950 . S
C942 H938 0.949 . S
C942 C950 1.574 . S
C942 C958 1.368 . S
H943 C951 0.950 . S
H944 C949 0.950 . S
H945 C950 0.949 . S
H946 C952 0.950 . S
H947 C953 0.950 . S
H948 C954 0.949 . S
C949 H944 0.950 . S
C949 C951 1.327 . S
C949 C955 1.429 . S
C950 C942 1.574 . S
C950 H945 0.949 . S
C950 C956 1.368 . S
C951 C935 1.349 . S
C951 H943 0.950 . S
C951 C949 1.327 . S
C952 C940 1.349 . S
C952 H946 0.950 . S
C952 C953 1.327 . S
C953 H947 0.950 . S
C953 C952 1.327 . S
C953 C957 1.429 . S
C954 C937 1.574 . S
C954 H948 0.949 . S
C954 C958 1.368 . S
C955 C936 1.429 . S
C955 C949 1.429 . S
C955 C956 1.523 . S
C956 C937 1.368 . S
C956 C950 1.368 . S
C956 C955 1.523 . S
C957 C941 1.429 . S
C957 C953 1.429 . S
C957 C958 1.523 . S
C958 C942 1.368 . S
C958 C954 1.368 . S
C958 C957 1.523 . S
H959 C934 0.950 . S
H960 C936 0.950 . S
H961 C937 0.949 . S
H962 C939 0.950 . S
H963 C941 0.950 . S
C964 C965 1.349 . S
C964 C966 1.327 . S
C964 H989 0.950 . S
C965 C964 1.349 . S
C965 C981 1.349 . S
C966 C964 1.327 . S
C966 C985 1.429 . S
C966 H990 0.950 . S
C967 C984 1.574 . S
C967 C986 1.368 . S
C967 H991 0.949 . S
H968 C972 0.949 . S
C969 C970 1.349 . S
C969 C971 1.327 . S
C969 H992 0.950 . S
C970 C969 1.349 . S
C970 C982 1.349 . S
C971 C969 1.327 . S
C971 C987 1.429 . S
C971 H993 0.950 . S
C972 H968 0.949 . S
C972 C980 1.574 . S
C972 C988 1.368 . S
H973 C981 0.950 . S
H974 C979 0.950 . S
H975 C980 0.949 . S
H976 C982 0.950 . S
H977 C983 0.950 . S
H978 C984 0.949 . S
C979 H974 0.950 . S
C979 C981 1.327 . S
C979 C985 1.429 . S
C980 C972 1.574 . S
C980 H975 0.949 . S
C980 C986 1.368 . S
C981 C965 1.349 . S
C981 H973 0.950 . S
C981 C979 1.327 . S
C982 C970 1.349 . S
C982 H976 0.950 . S
C982 C983 1.327 . S
C983 H977 0.950 . S
C983 C982 1.327 . S
C983 C987 1.429 . S
C984 C967 1.574 . S
C984 H978 0.949 . S
C984 C988 1.368 . S
C985 C966 1.429 . S
C985 C979 1.429 . S
C985 C986 1.523 . S
C986 C967 1.368 . S
C986 C980 1.368 . S
C986 C985 1.523 . S
C987 C971 1.429 . S
C987 C983 1.429 . S
C987 C988 1.523 . S
C988 C972 1.368 . S
C988 C984 1.368 . S
C988 C987 1.523 . S
H989 C964 0.950 . S
H990 C966 0.950 . S
H991 C967 0.949 . S
H992 C969 0.950 . S
H993 C971 0.950 . S
C994 C995 1.349 . S
C994 C996 1.327 . S
C994 H1019 0.950 . S
C995 C994 1.349 . S
C995 C1011 1.349 . S
C996 C994 1.327 . S
C996 C1015 1.429 . S
C996 H1020 0.950 . S
C997 C1014 1.574 . S
C997 C1016 1.368 . S
C997 H1021 0.949 . S
H998 C1002 0.949 . S
C999 C1000 1.349 . S
C999 C1001 1.327 . S
C999 H1022 0.950 . S
C1000 C999 1.349 . S
C1000 C1012 1.349 . S
C1001 C999 1.327 . S
C1001 C1017 1.429 . S
C1001 H1023 0.950 . S
C1002 H998 0.949 . S
C1002 C1010 1.574 . S
C1002 C1018 1.368 . S
H1003 C1011 0.950 . S
H1004 C1009 0.950 . S
H1005 C1010 0.949 . S
H1006 C1012 0.950 . S
H1007 C1013 0.950 . S
H1008 C1014 0.949 . S
C1009 H1004 0.950 . S
C1009 C1011 1.327 . S
C1009 C1015 1.429 . S
C1010 C1002 1.574 . S
C1010 H1005 0.949 . S
C1010 C1016 1.368 . S
C1011 C995 1.349 . S
C1011 H1003 0.950 . S
C1011 C1009 1.327 . S
C1012 C1000 1.349 . S
C1012 H1006 0.950 . S
C1012 C1013 1.327 . S
C1013 H1007 0.950 . S
C1013 C1012 1.327 . S
C1013 C1017 1.429 . S
C1014 C997 1.574 . S
C1014 H1008 0.949 . S
C1014 C1018 1.368 . S
C1015 C996 1.429 . S
C1015 C1009 1.429 . S
C1015 C1016 1.523 . S
C1016 C997 1.368 . S
C1016 C1010 1.368 . S
C1016 C1015 1.523 . S
C1017 C1001 1.429 . S
C1017 C1013 1.429 . S
C1017 C1018 1.523 . S
C1018 C1002 1.368 . S
C1018 C1014 1.368 . S
C1018 C1017 1.523 . S
H1019 C994 0.950 . S
H1020 C996 0.950 . S
H1021 C997 0.949 . S
H1022 C999 0.950 . S
H1023 C1001 0.950 . S
C1024 C1025 1.349 . S
C1024 C1026 1.327 . S
C1024 H1049 0.950 . S
C1025 C1024 1.349 . S
C1025 C1041 1.349 . S
C1026 C1024 1.327 . S
C1026 C1045 1.429 . S
C1026 H1050 0.950 . S
C1027 C1044 1.574 . S
C1027 C1046 1.368 . S
C1027 H1051 0.949 . S
H1028 C1032 0.949 . S
C1029 C1030 1.349 . S
C1029 C1031 1.327 . S
C1029 H1052 0.950 . S
C1030 C1029 1.349 . S
C1030 C1042 1.349 . S
C1031 C1029 1.327 . S
C1031 C1047 1.429 . S
C1031 H1053 0.950 . S
C1032 H1028 0.949 . S
C1032 C1040 1.574 . S
C1032 C1048 1.368 . S
H1033 C1041 0.950 . S
H1034 C1039 0.950 . S
H1035 C1040 0.949 . S
H1036 C1042 0.950 . S
H1037 C1043 0.950 . S
H1038 C1044 0.949 . S
C1039 H1034 0.950 . S
C1039 C1041 1.327 . S
C1039 C1045 1.429 . S
C1040 C1032 1.574 . S
C1040 H1035 0.949 . S
C1040 C1046 1.368 . S
C1041 C1025 1.349 . S
C1041 H1033 0.950 . S
C1041 C1039 1.327 . S
C1042 C1030 1.349 . S
C1042 H1036 0.950 . S
C1042 C1043 1.327 . S
C1043 H1037 0.950 . S
C1043 C1042 1.327 . S
C1043 C1047 1.429 . S
C1044 C1027 1.574 . S
C1044 H1038 0.949 . S
C1044 C1048 1.368 . S
C1045 C1026 1.429 . S
C1045 C1039 1.429 . S
C1045 C1046 1.523 . S
C1046 C1027 1.368 . S
C1046 C1040 1.368 . S
C1046 C1045 1.523 . S
C1047 C1031 1.429 . S
C1047 C1043 1.429 . S
C1047 C1048 1.523 . S
C1048 C1032 1.368 . S
C1048 C1044 1.368 . S
C1048 C1047 1.523 . S
H1049 C1024 0.950 . S
H1050 C1026 0.950 . S
H1051 C1027 0.949 . S
H1052 C1029 0.950 . S
H1053 C1031 0.950 . S
C1054 C1055 1.349 . S
C1054 C1056 1.327 . S
C1054 H1079 0.950 . S
C1055 C1054 1.349 . S
C1055 C1071 1.349 . S
C1056 C1054 1.327 . S
C1056 C1075 1.429 . S
C1056 H1080 0.950 . S
C1057 C1074 1.574 . S
C1057 C1076 1.368 . S
C1057 H1081 0.949 . S
H1058 C1062 0.949 . S
C1059 C1060 1.349 . S
C1059 C1061 1.327 . S
C1059 H1082 0.950 . S
C1060 C1059 1.349 . S
C1060 C1072 1.349 . S
C1061 C1059 1.327 . S
C1061 C1077 1.429 . S
C1061 H1083 0.950 . S
C1062 H1058 0.949 . S
C1062 C1070 1.574 . S
C1062 C1078 1.368 . S
H1063 C1071 0.950 . S
H1064 C1069 0.950 . S
H1065 C1070 0.949 . S
H1066 C1072 0.950 . S
H1067 C1073 0.950 . S
H1068 C1074 0.949 . S
C1069 H1064 0.950 . S
C1069 C1071 1.327 . S
C1069 C1075 1.429 . S
C1070 C1062 1.574 . S
C1070 H1065 0.949 . S
C1070 C1076 1.368 . S
C1071 C1055 1.349 . S
C1071 H1063 0.950 . S
C1071 C1069 1.327 . S
C1072 C1060 1.349 . S
C1072 H1066 0.950 . S
C1072 C1073 1.327 . S
C1073 H1067 0.950 . S
C1073 C1072 1.327 . S
C1073 C1077 1.429 . S
C1074 C1057 1.574 . S
C1074 H1068 0.949 . S
C1074 C1078 1.368 . S
C1075 C1056 1.429 . S
C1075 C1069 1.429 . S
C1075 C1076 1.523 . S
C1076 C1057 1.368 . S
C1076 C1070 1.368 . S
C1076 C1075 1.523 . S
C1077 C1061 1.429 . S
C1077 C1073 1.429 . S
C1077 C1078 1.523 . S
C1078 C1062 1.368 . S
C1078 C1074 1.368 . S
C1078 C1077 1.523 . S
H1079 C1054 0.950 . S
H1080 C1056 0.950 . S
H1081 C1057 0.949 . S
H1082 C1059 0.950 . S
H1083 C1061 0.950 . S
C1084 C1085 1.349 . S
C1084 C1086 1.327 . S
C1084 H1109 0.950 . S
C1085 C1084 1.349 . S
C1085 C1101 1.349 . S
C1086 C1084 1.327 . S
C1086 C1105 1.429 . S
C1086 H1110 0.950 . S
C1087 C1104 1.574 . S
C1087 C1106 1.368 . S
C1087 H1111 0.949 . S
H1088 C1092 0.949 . S
C1089 C1090 1.349 . S
C1089 C1091 1.327 . S
C1089 H1112 0.950 . S
C1090 C1089 1.349 . S
C1090 C1102 1.349 . S
C1091 C1089 1.327 . S
C1091 C1107 1.429 . S
C1091 H1113 0.950 . S
C1092 H1088 0.949 . S
C1092 C1100 1.574 . S
C1092 C1108 1.368 . S
H1093 C1101 0.950 . S
H1094 C1099 0.950 . S
H1095 C1100 0.949 . S
H1096 C1102 0.950 . S
H1097 C1103 0.950 . S
H1098 C1104 0.949 . S
C1099 H1094 0.950 . S
C1099 C1101 1.327 . S
C1099 C1105 1.429 . S
C1100 C1092 1.574 . S
C1100 H1095 0.949 . S
C1100 C1106 1.368 . S
C1101 C1085 1.349 . S
C1101 H1093 0.950 . S
C1101 C1099 1.327 . S
C1102 C1090 1.349 . S
C1102 H1096 0.950 . S
C1102 C1103 1.327 . S
C1103 H1097 0.950 . S
C1103 C1102 1.327 . S
C1103 C1107 1.429 . S
C1104 C1087 1.574 . S
C1104 H1098 0.949 . S
C1104 C1108 1.368 . S
C1105 C1086 1.429 . S
C1105 C1099 1.429 . S
C1105 C1106 1.523 . S
C1106 C1087 1.368 . S
C1106 C1100 1.368 . S
C1106 C1105 1.523 . S
C1107 C1091 1.429 . S
C1107 C1103 1.429 . S
C1107 C1108 1.523 . S
C1108 C1092 1.368 . S
C1108 C1104 1.368 . S
C1108 C1107 1.523 . S
H1109 C1084 0.950 . S
H1110 C1086 0.950 . S
H1111 C1087 0.949 . S
H1112 C1089 0.950 . S
H1113 C1091 0.950 . S
C1114 C1115 1.349 . S
C1114 C1116 1.327 . S
C1114 H1139 0.950 . S
C1115 C1114 1.349 . S
C1115 C1131 1.349 . S
C1116 C1114 1.327 . S
C1116 C1135 1.429 . S
C1116 H1140 0.950 . S
C1117 C1134 1.574 . S
C1117 C1136 1.368 . S
C1117 H1141 0.949 . S
H1118 C1122 0.949 . S
C1119 C1120 1.349 . S
C1119 C1121 1.327 . S
C1119 H1142 0.950 . S
C1120 C1119 1.349 . S
C1120 C1132 1.349 . S
C1121 C1119 1.327 . S
C1121 C1137 1.429 . S
C1121 H1143 0.950 . S
C1122 H1118 0.949 . S
C1122 C1130 1.574 . S
C1122 C1138 1.368 . S
H1123 C1131 0.950 . S
H1124 C1129 0.950 . S
H1125 C1130 0.949 . S
H1126 C1132 0.950 . S
H1127 C1133 0.950 . S
H1128 C1134 0.949 . S
C1129 H1124 0.950 . S
C1129 C1131 1.327 . S
C1129 C1135 1.429 . S
C1130 C1122 1.574 . S
C1130 H1125 0.949 . S
C1130 C1136 1.368 . S
C1131 C1115 1.349 . S
C1131 H1123 0.950 . S
C1131 C1129 1.327 . S
C1132 C1120 1.349 . S
C1132 H1126 0.950 . S
C1132 C1133 1.327 . S
C1133 H1127 0.950 . S
C1133 C1132 1.327 . S
C1133 C1137 1.429 . S
C1134 C1117 1.574 . S
C1134 H1128 0.949 . S
C1134 C1138 1.368 . S
C1135 C1116 1.429 . S
C1135 C1129 1.429 . S
C1135 C1136 1.523 . S
C1136 C1117 1.368 . S
C1136 C1130 1.368 . S
C1136 C1135 1.523 . S
C1137 C1121 1.429 . S
C1137 C1133 1.429 . S
C1137 C1138 1.523 . S
C1138 C1122 1.368 . S
C1138 C1134 1.368 . S
C1138 C1137 1.523 . S
H1139 C1114 0.950 . S
H1140 C1116 0.950 . S
H1141 C1117 0.949 . S
H1142 C1119 0.950 . S
H1143 C1121 0.950 . S
C1144 C1145 1.349 . S
C1144 C1146 1.327 . S
C1144 H1169 0.950 . S
C1145 C1144 1.349 . S
C1145 C1161 1.349 . S
C1146 C1144 1.327 . S
C1146 C1165 1.429 . S
C1146 H1170 0.950 . S
C1147 C1164 1.574 . S
C1147 C1166 1.368 . S
C1147 H1171 0.949 . S
H1148 C1152 0.949 . S
C1149 C1150 1.349 . S
C1149 C1151 1.327 . S
C1149 H1172 0.950 . S
C1150 C1149 1.349 . S
C1150 C1162 1.349 . S
C1151 C1149 1.327 . S
C1151 C1167 1.429 . S
C1151 H1173 0.950 . S
C1152 H1148 0.949 . S
C1152 C1160 1.574 . S
C1152 C1168 1.368 . S
H1153 C1161 0.950 . S
H1154 C1159 0.950 . S
H1155 C1160 0.949 . S
H1156 C1162 0.950 . S
H1157 C1163 0.950 . S
H1158 C1164 0.949 . S
C1159 H1154 0.950 . S
C1159 C1161 1.327 . S
C1159 C1165 1.429 . S
C1160 C1152 1.574 . S
C1160 H1155 0.949 . S
C1160 C1166 1.368 . S
C1161 C1145 1.349 . S
C1161 H1153 0.950 . S
C1161 C1159 1.327 . S
C1162 C1150 1.349 . S
C1162 H1156 0.950 . S
C1162 C1163 1.327 . S
C1163 H1157 0.950 . S
C1163 C1162 1.327 . S
C1163 C1167 1.429 . S
C1164 C1147 1.574 . S
C1164 H1158 0.949 . S
C1164 C1168 1.368 . S
C1165 C1146 1.429 . S
C1165 C1159 1.429 . S
C1165 C1166 1.523 . S
C1166 C1147 1.368 . S
C1166 C1160 1.368 . S
C1166 C1165 1.523 . S
C1167 C1151 1.429 . S
C1167 C1163 1.429 . S
C1167 C1168 1.523 . S
C1168 C1152 1.368 . S
C1168 C1164 1.368 . S
C1168 C1167 1.523 . S
H1169 C1144 0.950 . S
H1170 C1146 0.950 . S
H1171 C1147 0.949 . S
H1172 C1149 0.950 . S
H1173 C1151 0.950 . S
C1174 C1175 1.349 . S
C1174 C1176 1.327 . S
C1174 H1199 0.950 . S
C1175 C1174 1.349 . S
C1175 C1191 1.349 . S
C1176 C1174 1.327 . S
C1176 C1195 1.429 . S
C1176 H1200 0.950 . S
C1177 C1194 1.574 . S
C1177 C1196 1.368 . S
C1177 H1201 0.949 . S
H1178 C1182 0.949 . S
C1179 C1180 1.349 . S
C1179 C1181 1.327 . S
C1179 H1202 0.950 . S
C1180 C1179 1.349 . S
C1180 C1192 1.349 . S
C1181 C1179 1.327 . S
C1181 C1197 1.429 . S
C1181 H1203 0.950 . S
C1182 H1178 0.949 . S
C1182 C1190 1.574 . S
C1182 C1198 1.368 . S
H1183 C1191 0.950 . S
H1184 C1189 0.950 . S
H1185 C1190 0.949 . S
H1186 C1192 0.950 . S
H1187 C1193 0.950 . S
H1188 C1194 0.949 . S
C1189 H1184 0.950 . S
C1189 C1191 1.327 . S
C1189 C1195 1.429 . S
C1190 C1182 1.574 . S
C1190 H1185 0.949 . S
C1190 C1196 1.368 . S
C1191 C1175 1.349 . S
C1191 H1183 0.950 . S
C1191 C1189 1.327 . S
C1192 C1180 1.349 . S
C1192 H1186 0.950 . S
C1192 C1193 1.327 . S
C1193 H1187 0.950 . S
C1193 C1192 1.327 . S
C1193 C1197 1.429 . S
C1194 C1177 1.574 . S
C1194 H1188 0.949 . S
C1194 C1198 1.368 . S
C1195 C1176 1.429 . S
C1195 C1189 1.429 . S
C1195 C1196 1.523 . S
C1196 C1177 1.368 . S
C1196 C1190 1.368 . S
C1196 C1195 1.523 . S
C1197 C1181 1.429 . S
C1197 C1193 1.429 . S
C1197 C1198 1.523 . S
C1198 C1182 1.368 . S
C1198 C1194 1.368 . S
C1198 C1197 1.523 . S
H1199 C1174 0.950 . S
H1200 C1176 0.950 . S
H1201 C1177 0.949 . S
H1202 C1179 0.950 . S
H1203 C1181 0.950 . S
C1204 C1205 1.349 . S
C1204 C1206 1.327 . S
C1204 H1229 0.950 . S
C1205 C1204 1.349 . S
C1205 C1221 1.349 . S
C1206 C1204 1.327 . S
C1206 C1225 1.429 . S
C1206 H1230 0.950 . S
C1207 C1224 1.574 . S
C1207 C1226 1.368 . S
C1207 H1231 0.949 . S
H1208 C1212 0.949 . S
C1209 C1210 1.349 . S
C1209 C1211 1.327 . S
C1209 H1232 0.950 . S
C1210 C1209 1.349 . S
C1210 C1222 1.349 . S
C1211 C1209 1.327 . S
C1211 C1227 1.429 . S
C1211 H1233 0.950 . S
C1212 H1208 0.949 . S
C1212 C1220 1.574 . S
C1212 C1228 1.368 . S
H1213 C1221 0.950 . S
H1214 C1219 0.950 . S
H1215 C1220 0.949 . S
H1216 C1222 0.950 . S
H1217 C1223 0.950 . S
H1218 C1224 0.949 . S
C1219 H1214 0.950 . S
C1219 C1221 1.327 . S
C1219 C1225 1.429 . S
C1220 C1212 1.574 . S
C1220 H1215 0.949 . S
C1220 C1226 1.368 . S
C1221 C1205 1.349 . S
C1221 H1213 0.950 . S
C1221 C1219 1.327 . S
C1222 C1210 1.349 . S
C1222 H1216 0.950 . S
C1222 C1223 1.327 . S
C1223 H1217 0.950 . S
C1223 C1222 1.327 . S
C1223 C1227 1.429 . S
C1224 C1207 1.574 . S
C1224 H1218 0.949 . S
C1224 C1228 1.368 . S
C1225 C1206 1.429 . S
C1225 C1219 1.429 . S
C1225 C1226 1.523 . S
C1226 C1207 1.368 . S
C1226 C1220 1.368 . S
C1226 C1225 1.523 . S
C1227 C1211 1.429 . S
C1227 C1223 1.429 . S
C1227 C1228 1.523 . S
C1228 C1212 1.368 . S
C1228 C1224 1.368 . S
C1228 C1227 1.523 . S
H1229 C1204 0.950 . S
H1230 C1206 0.950 . S
H1231 C1207 0.949 . S
H1232 C1209 0.950 . S
H1233 C1211 0.950 . S
C1234 C1235 1.349 . S
C1234 C1236 1.327 . S
C1234 H1259 0.950 . S
C1235 C1234 1.349 . S
C1235 C1251 1.349 . S
C1236 C1234 1.327 . S
C1236 C1255 1.429 . S
C1236 H1260 0.950 . S
C1237 C1254 1.574 . S
C1237 C1256 1.368 . S
C1237 H1261 0.949 . S
H1238 C1242 0.949 . S
C1239 C1240 1.349 . S
C1239 C1241 1.327 . S
C1239 H1262 0.950 . S
C1240 C1239 1.349 . S
C1240 C1252 1.349 . S
C1241 C1239 1.327 . S
C1241 C1257 1.429 . S
C1241 H1263 0.950 . S
C1242 H1238 0.949 . S
C1242 C1250 1.574 . S
C1242 C1258 1.368 . S
H1243 C1251 0.950 . S
H1244 C1249 0.950 . S
H1245 C1250 0.949 . S
H1246 C1252 0.950 . S
H1247 C1253 0.950 . S
H1248 C1254 0.949 . S
C1249 H1244 0.950 . S
C1249 C1251 1.327 . S
C1249 C1255 1.429 . S
C1250 C1242 1.574 . S
C1250 H1245 0.949 . S
C1250 C1256 1.368 . S
C1251 C1235 1.349 . S
C1251 H1243 0.950 . S
C1251 C1249 1.327 . S
C1252 C1240 1.349 . S
C1252 H1246 0.950 . S
C1252 C1253 1.327 . S
C1253 H1247 0.950 . S
C1253 C1252 1.327 . S
C1253 C1257 1.429 . S
C1254 C1237 1.574 . S
C1254 H1248 0.949 . S
C1254 C1258 1.368 . S
C1255 C1236 1.429 . S
C1255 C1249 1.429 . S
C1255 C1256 1.523 . S
C1256 C1237 1.368 . S
C1256 C1250 1.368 . S
C1256 C1255 1.523 . S
C1257 C1241 1.429 . S
C1257 C1253 1.429 . S
C1257 C1258 1.523 . S
C1258 C1242 1.368 . S
C1258 C1254 1.368 . S
C1258 C1257 1.523 . S
H1259 C1234 0.950 . S
H1260 C1236 0.950 . S
H1261 C1237 0.949 . S
H1262 C1239 0.950 . S
H1263 C1241 0.950 . S
C1264 C1265 1.349 . S
C1264 C1266 1.327 . S
C1264 H1289 0.950 . S
C1265 C1264 1.349 . S
C1265 C1281 1.349 . S
C1266 C1264 1.327 . S
C1266 C1285 1.429 . S
C1266 H1290 0.950 . S
C1267 C1284 1.574 . S
C1267 C1286 1.368 . S
C1267 H1291 0.949 . S
H1268 C1272 0.949 . S
C1269 C1270 1.349 . S
C1269 C1271 1.327 . S
C1269 H1292 0.950 . S
C1270 C1269 1.349 . S
C1270 C1282 1.349 . S
C1271 C1269 1.327 . S
C1271 C1287 1.429 . S
C1271 H1293 0.950 . S
C1272 H1268 0.949 . S
C1272 C1280 1.574 . S
C1272 C1288 1.368 . S
H1273 C1281 0.950 . S
H1274 C1279 0.950 . S
H1275 C1280 0.949 . S
H1276 C1282 0.950 . S
H1277 C1283 0.950 . S
H1278 C1284 0.949 . S
C1279 H1274 0.950 . S
C1279 C1281 1.327 . S
C1279 C1285 1.429 . S
C1280 C1272 1.574 . S
C1280 H1275 0.949 . S
C1280 C1286 1.368 . S
C1281 C1265 1.349 . S
C1281 H1273 0.950 . S
C1281 C1279 1.327 . S
C1282 C1270 1.349 . S
C1282 H1276 0.950 . S
C1282 C1283 1.327 . S
C1283 H1277 0.950 . S
C1283 C1282 1.327 . S
C1283 C1287 1.429 . S
C1284 C1267 1.574 . S
C1284 H1278 0.949 . S
C1284 C1288 1.368 . S
C1285 C1266 1.429 . S
C1285 C1279 1.429 . S
C1285 C1286 1.523 . S
C1286 C1267 1.368 . S
C1286 C1280 1.368 . S
C1286 C1285 1.523 . S
C1287 C1271 1.429 . S
C1287 C1283 1.429 . S
C1287 C1288 1.523 . S
C1288 C1272 1.368 . S
C1288 C1284 1.368 . S
C1288 C1287 1.523 . S
H1289 C1264 0.950 . S
H1290 C1266 0.950 . S
H1291 C1267 0.949 . S
H1292 C1269 0.950 . S
H1293 C1271 0.950 . S
C1294 C1295 1.349 . S
C1294 C1296 1.327 . S
C1294 H1319 0.950 . S
C1295 C1294 1.349 . S
C1295 C1311 1.349 . S
C1296 C1294 1.327 . S
C1296 C1315 1.429 . S
C1296 H1320 0.950 . S
C1297 C1314 1.574 . S
C1297 C1316 1.368 . S
C1297 H1321 0.949 . S
H1298 C1302 0.949 . S
C1299 C1300 1.349 . S
C1299 C1301 1.327 . S
C1299 H1322 0.950 . S
C1300 C1299 1.349 . S
C1300 C1312 1.349 . S
C1301 C1299 1.327 . S
C1301 C1317 1.429 . S
C1301 H1323 0.950 . S
C1302 H1298 0.949 . S
C1302 C1310 1.574 . S
C1302 C1318 1.368 . S
H1303 C1311 0.950 . S
H1304 C1309 0.950 . S
H1305 C1310 0.949 . S
H1306 C1312 0.950 . S
H1307 C1313 0.950 . S
H1308 C1314 0.949 . S
C1309 H1304 0.950 . S
C1309 C1311 1.327 . S
C1309 C1315 1.429 . S
C1310 C1302 1.574 . S
C1310 H1305 0.949 . S
C1310 C1316 1.368 . S
C1311 C1295 1.349 . S
C1311 H1303 0.950 . S
C1311 C1309 1.327 . S
C1312 C1300 1.349 . S
C1312 H1306 0.950 . S
C1312 C1313 1.327 . S
C1313 H1307 0.950 . S
C1313 C1312 1.327 . S
C1313 C1317 1.429 . S
C1314 C1297 1.574 . S
C1314 H1308 0.949 . S
C1314 C1318 1.368 . S
C1315 C1296 1.429 . S
C1315 C1309 1.429 . S
C1315 C1316 1.523 . S
C1316 C1297 1.368 . S
C1316 C1310 1.368 . S
C1316 C1315 1.523 . S
C1317 C1301 1.429 . S
C1317 C1313 1.429 . S
C1317 C1318 1.523 . S
C1318 C1302 1.368 . S
C1318 C1314 1.368 . S
C1318 C1317 1.523 . S
H1319 C1294 0.950 . S
H1320 C1296 0.950 . S
H1321 C1297 0.949 . S
H1322 C1299 0.950 . S
H1323 C1301 0.950 . S
C1324 C1325 1.349 . S
C1324 C1326 1.327 . S
C1324 H1349 0.950 . S
C1325 C1324 1.349 . S
C1325 C1341 1.349 . S
C1326 C1324 1.327 . S
C1326 C1345 1.429 . S
C1326 H1350 0.950 . S
C1327 C1344 1.574 . S
C1327 C1346 1.368 . S
C1327 H1351 0.949 . S
H1328 C1332 0.949 . S
C1329 C1330 1.349 . S
C1329 C1331 1.327 . S
C1329 H1352 0.950 . S
C1330 C1329 1.349 . S
C1330 C1342 1.349 . S
C1331 C1329 1.327 . S
C1331 C1347 1.429 . S
C1331 H1353 0.950 . S
C1332 H1328 0.949 . S
C1332 C1340 1.574 . S
C1332 C1348 1.368 . S
H1333 C1341 0.950 . S
H1334 C1339 0.950 . S
H1335 C1340 0.949 . S
H1336 C1342 0.950 . S
H1337 C1343 0.950 . S
H1338 C1344 0.949 . S
C1339 H1334 0.950 . S
C1339 C1341 1.327 . S
C1339 C1345 1.429 . S
C1340 C1332 1.574 . S
C1340 H1335 0.949 . S
C1340 C1346 1.368 . S
C1341 C1325 1.349 . S
C1341 H1333 0.950 . S
C1341 C1339 1.327 . S
C1342 C1330 1.349 . S
C1342 H1336 0.950 . S
C1342 C1343 1.327 . S
C1343 H1337 0.950 . S
C1343 C1342 1.327 . S
C1343 C1347 1.429 . S
C1344 C1327 1.574 . S
C1344 H1338 0.949 . S
C1344 C1348 1.368 . S
C1345 C1326 1.429 . S
C1345 C1339 1.429 . S
C1345 C1346 1.523 . S
C1346 C1327 1.368 . S
C1346 C1340 1.368 . S
C1346 C1345 1.523 . S
C1347 C1331 1.429 . S
C1347 C1343 1.429 . S
C1347 C1348 1.523 . S
C1348 C1332 1.368 . S
C1348 C1344 1.368 . S
C1348 C1347 1.523 . S
H1349 C1324 0.950 . S
H1350 C1326 0.950 . S
H1351 C1327 0.949 . S
H1352 C1329 0.950 . S
H1353 C1331 0.950 . S
C1354 C1355 1.349 . S
C1354 C1356 1.327 . S
C1354 H1379 0.950 . S
C1355 C1354 1.349 . S
C1355 C1371 1.349 . S
C1356 C1354 1.327 . S
C1356 C1375 1.429 . S
C1356 H1380 0.950 . S
C1357 C1374 1.574 . S
C1357 C1376 1.368 . S
C1357 H1381 0.949 . S
H1358 C1362 0.949 . S
C1359 C1360 1.349 . S
C1359 C1361 1.327 . S
C1359 H1382 0.950 . S
C1360 C1359 1.349 . S
C1360 C1372 1.349 . S
C1361 C1359 1.327 . S
C1361 C1377 1.429 . S
C1361 H1383 0.950 . S
C1362 H1358 0.949 . S
C1362 C1370 1.574 . S
C1362 C1378 1.368 . S
H1363 C1371 0.950 . S
H1364 C1369 0.950 . S
H1365 C1370 0.949 . S
H1366 C1372 0.950 . S
H1367 C1373 0.950 . S
H1368 C1374 0.949 . S
C1369 H1364 0.950 . S
C1369 C1371 1.327 . S
C1369 C1375 1.429 . S
C1370 C1362 1.574 . S
C1370 H1365 0.949 . S
C1370 C1376 1.368 . S
C1371 C1355 1.349 . S
C1371 H1363 0.950 . S
C1371 C1369 1.327 . S
C1372 C1360 1.349 . S
C1372 H1366 0.950 . S
C1372 C1373 1.327 . S
C1373 H1367 0.950 . S
C1373 C1372 1.327 . S
C1373 C1377 1.429 . S
C1374 C1357 1.574 . S
C1374 H1368 0.949 . S
C1374 C1378 1.368 . S
C1375 C1356 1.429 . S
C1375 C1369 1.429 . S
C1375 C1376 1.523 . S
C1376 C1357 1.368 . S
C1376 C1370 1.368 . S
C1376 C1375 1.523 . S
C1377 C1361 1.429 . S
C1377 C1373 1.429 . S
C1377 C1378 1.523 . S
C1378 C1362 1.368 . S
C1378 C1374 1.368 . S
C1378 C1377 1.523 . S
H1379 C1354 0.950 . S
H1380 C1356 0.950 . S
H1381 C1357 0.949 . S
H1382 C1359 0.950 . S
H1383 C1361 0.950 . S
C1384 C1385 1.349 . S
C1384 C1386 1.327 . S
C1384 H1409 0.950 . S
C1385 C1384 1.349 . S
C1385 C1401 1.349 . S
C1386 C1384 1.327 . S
C1386 C1405 1.429 . S
C1386 H1410 0.950 . S
C1387 C1404 1.574 1_556 S
C1387 C1406 1.368 . S
C1387 H1411 0.949 . S
H1388 C1392 0.949 . S
C1389 C1390 1.349 . S
C1389 C1391 1.327 . S
C1389 H1412 0.950 . S
C1390 C1389 1.349 . S
C1390 C1402 1.349 . S
C1391 C1389 1.327 . S
C1391 C1407 1.429 . S
C1391 H1413 0.950 . S
C1392 H1388 0.949 . S
C1392 C1400 1.574 1_554 S
C1392 C1408 1.368 . S
H1393 C1401 0.950 . S
H1394 C1399 0.950 . S
H1395 C1400 0.949 . S
H1396 C1402 0.950 . S
H1397 C1403 0.950 . S
H1398 C1404 0.949 . S
C1399 H1394 0.950 . S
C1399 C1401 1.327 . S
C1399 C1405 1.429 . S
C1400 C1392 1.574 1_556 S
C1400 H1395 0.949 . S
C1400 C1406 1.368 . S
C1401 C1385 1.349 . S
C1401 H1393 0.950 . S
C1401 C1399 1.327 . S
C1402 C1390 1.349 . S
C1402 H1396 0.950 . S
C1402 C1403 1.327 . S
C1403 H1397 0.950 . S
C1403 C1402 1.327 . S
C1403 C1407 1.429 . S
C1404 C1387 1.574 1_554 S
C1404 H1398 0.949 . S
C1404 C1408 1.368 . S
C1405 C1386 1.429 . S
C1405 C1399 1.429 . S
C1405 C1406 1.523 . S
C1406 C1387 1.368 . S
C1406 C1400 1.368 . S
C1406 C1405 1.523 . S
C1407 C1391 1.429 . S
C1407 C1403 1.429 . S
C1407 C1408 1.523 . S
C1408 C1392 1.368 . S
C1408 C1404 1.368 . S
C1408 C1407 1.523 . S
H1409 C1384 0.950 . S
H1410 C1386 0.950 . S
H1411 C1387 0.949 . S
H1412 C1389 0.950 . S
H1413 C1391 0.950 . S
C1414 C1415 1.349 . S
C1414 C1416 1.327 . S
C1414 H1439 0.950 . S
C1415 C1414 1.349 . S
C1415 C1431 1.349 . S
C1416 C1414 1.327 . S
C1416 C1435 1.429 . S
C1416 H1440 0.950 . S
C1417 C1434 1.574 1_554 S
C1417 C1436 1.368 . S
C1417 H1441 0.949 . S
H1418 C1422 0.949 . S
C1419 C1420 1.349 . S
C1419 C1421 1.327 . S
C1419 H1442 0.950 . S
C1420 C1419 1.349 . S
C1420 C1432 1.349 . S
C1421 C1419 1.327 . S
C1421 C1437 1.429 . S
C1421 H1443 0.950 . S
C1422 H1418 0.949 . S
C1422 C1430 1.574 1_556 S
C1422 C1438 1.368 . S
H1423 C1431 0.950 . S
H1424 C1429 0.950 . S
H1425 C1430 0.949 . S
H1426 C1432 0.950 . S
H1427 C1433 0.950 . S
H1428 C1434 0.949 . S
C1429 H1424 0.950 . S
C1429 C1431 1.327 . S
C1429 C1435 1.429 . S
C1430 C1422 1.574 1_554 S
C1430 H1425 0.949 . S
C1430 C1436 1.368 . S
C1431 C1415 1.349 . S
C1431 H1423 0.950 . S
C1431 C1429 1.327 . S
C1432 C1420 1.349 . S
C1432 H1426 0.950 . S
C1432 C1433 1.327 . S
C1433 H1427 0.950 . S
C1433 C1432 1.327 . S
C1433 C1437 1.429 . S
C1434 C1417 1.574 1_556 S
C1434 H1428 0.949 . S
C1434 C1438 1.368 . S
C1435 C1416 1.429 . S
C1435 C1429 1.429 . S
C1435 C1436 1.523 . S
C1436 C1417 1.368 . S
C1436 C1430 1.368 . S
C1436 C1435 1.523 . S
C1437 C1421 1.429 . S
C1437 C1433 1.429 . S
C1437 C1438 1.523 . S
C1438 C1422 1.368 . S
C1438 C1434 1.368 . S
C1438 C1437 1.523 . S
H1439 C1414 0.950 . S
H1440 C1416 0.950 . S
H1441 C1417 0.949 . S
H1442 C1419 0.950 . S
H1443 C1421 0.950 . S
C1444 C1445 1.349 . S
C1444 C1446 1.327 . S
C1444 H1469 0.950 . S
C1445 C1444 1.349 . S
C1445 C1461 1.349 . S
C1446 C1444 1.327 . S
C1446 C1465 1.429 . S
C1446 H1470 0.950 . S
C1447 C1464 1.574 . S
C1447 C1466 1.368 . S
C1447 H1471 0.949 . S
H1448 C1452 0.949 . S
C1449 C1450 1.349 . S
C1449 C1451 1.327 . S
C1449 H1472 0.950 . S
C1450 C1449 1.349 . S
C1450 C1462 1.349 . S
C1451 C1449 1.327 . S
C1451 C1467 1.429 . S
C1451 H1473 0.950 . S
C1452 H1448 0.949 . S
C1452 C1460 1.574 . S
C1452 C1468 1.368 . S
H1453 C1461 0.950 . S
H1454 C1459 0.950 . S
H1455 C1460 0.949 . S
H1456 C1462 0.950 . S
H1457 C1463 0.950 . S
H1458 C1464 0.949 . S
C1459 H1454 0.950 . S
C1459 C1461 1.327 . S
C1459 C1465 1.429 . S
C1460 C1452 1.574 . S
C1460 H1455 0.949 . S
C1460 C1466 1.368 1_554 S
C1461 C1445 1.349 . S
C1461 H1453 0.950 . S
C1461 C1459 1.327 . S
C1462 C1450 1.349 . S
C1462 H1456 0.950 . S
C1462 C1463 1.327 . S
C1463 H1457 0.950 . S
C1463 C1462 1.327 . S
C1463 C1467 1.429 . S
C1464 C1447 1.574 . S
C1464 H1458 0.949 . S
C1464 C1468 1.368 1_556 S
C1465 C1446 1.429 . S
C1465 C1459 1.429 . S
C1465 C1466 1.523 . S
C1466 C1447 1.368 . S
C1466 C1460 1.368 1_556 S
C1466 C1465 1.523 . S
C1467 C1451 1.429 . S
C1467 C1463 1.429 . S
C1467 C1468 1.523 . S
C1468 C1452 1.368 . S
C1468 C1464 1.368 1_554 S
C1468 C1467 1.523 . S
H1469 C1444 0.950 . S
H1470 C1446 0.950 . S
H1471 C1447 0.949 . S
H1472 C1449 0.950 . S
H1473 C1451 0.950 . S
C1474 C1475 1.349 . S
C1474 C1476 1.327 . S
C1474 H1499 0.950 . S
C1475 C1474 1.349 . S
C1475 C1491 1.349 . S
C1476 C1474 1.327 . S
C1476 C1495 1.429 . S
C1476 H1500 0.950 . S
C1477 C1494 1.582 . S
C1477 C1496 1.362 1_556 S
C1477 H1501 0.947 1_556 S
H1478 C1482 0.949 . S
C1479 C1480 1.349 . S
C1479 C1481 1.327 . S
C1479 H1502 0.950 . S
C1480 C1479 1.349 . S
C1480 C1492 1.349 . S
C1481 C1479 1.327 . S
C1481 C1497 1.429 . S
C1481 H1503 0.950 . S
C1482 H1478 0.949 . S
C1482 C1490 1.574 1_556 S
C1482 C1498 1.368 . S
H1483 C1491 0.950 . S
H1484 C1489 0.950 . S
H1485 C1490 0.949 . S
H1486 C1492 0.950 . S
H1487 C1493 0.950 . S
H1488 C1494 0.949 . S
C1489 H1484 0.950 . S
C1489 C1491 1.327 . S
C1489 C1495 1.429 . S
C1490 C1482 1.574 1_554 S
C1490 H1485 0.949 . S
C1490 C1496 1.368 . S
C1491 C1475 1.349 . S
C1491 H1483 0.950 . S
C1491 C1489 1.327 . S
C1492 C1480 1.349 . S
C1492 H1486 0.950 . S
C1492 C1493 1.327 . S
C1493 H1487 0.950 . S
C1493 C1492 1.327 . S
C1493 C1497 1.429 . S
C1494 C1477 1.582 . S
C1494 H1488 0.949 . S
C1494 C1498 1.368 . S
C1495 C1476 1.429 . S
C1495 C1489 1.429 . S
C1495 C1496 1.523 . S
C1496 C1477 1.362 1_554 S
C1496 C1490 1.368 . S
C1496 C1495 1.523 . S
C1497 C1481 1.429 . S
C1497 C1493 1.429 . S
C1497 C1498 1.523 . S
C1498 C1482 1.368 . S
C1498 C1494 1.368 . S
C1498 C1497 1.523 . S
H1499 C1474 0.950 . S
H1500 C1476 0.950 . S
H1501 C1477 0.947 1_554 S
H1502 C1479 0.950 . S
H1503 C1481 0.950 . S
C1504 C1505 1.349 . S
C1504 C1506 1.327 . S
C1504 H1529 0.950 . S
C1505 C1504 1.349 . S
C1505 C1521 1.349 . S
C1506 C1504 1.327 . S
C1506 C1525 1.429 . S
C1506 H1530 0.950 . S
C1507 C1524 1.574 . S
C1507 C1526 1.368 . S
C1507 H1531 0.949 . S
H1508 C1512 0.949 . S
C1509 C1510 1.349 . S
C1509 C1511 1.327 . S
C1509 H1532 0.950 . S
C1510 C1509 1.349 . S
C1510 C1522 1.349 . S
C1511 C1509 1.327 . S
C1511 C1527 1.429 . S
C1511 H1533 0.950 . S
C1512 H1508 0.949 . S
C1512 C1520 1.574 . S
C1512 C1528 1.368 . S
H1513 C1521 0.950 . S
H1514 C1519 0.950 . S
H1515 C1520 0.949 . S
H1516 C1522 0.950 . S
H1517 C1523 0.950 . S
H1518 C1524 0.949 . S
C1519 H1514 0.950 . S
C1519 C1521 1.327 . S
C1519 C1525 1.429 . S
C1520 C1512 1.574 . S
C1520 H1515 0.949 . S
C1520 C1526 1.368 . S
C1521 C1505 1.349 . S
C1521 H1513 0.950 . S
C1521 C1519 1.327 . S
C1522 C1510 1.349 . S
C1522 H1516 0.950 . S
C1522 C1523 1.327 . S
C1523 H1517 0.950 . S
C1523 C1522 1.327 . S
C1523 C1527 1.429 . S
C1524 C1507 1.574 . S
C1524 H1518 0.949 . S
C1524 C1528 1.368 . S
C1525 C1506 1.429 . S
C1525 C1519 1.429 . S
C1525 C1526 1.523 . S
C1526 C1507 1.368 . S
C1526 C1520 1.368 . S
C1526 C1525 1.523 . S
C1527 C1511 1.429 . S
C1527 C1523 1.429 . S
C1527 C1528 1.523 . S
C1528 C1512 1.368 . S
C1528 C1524 1.368 . S
C1528 C1527 1.523 . S
H1529 C1504 0.950 . S
H1530 C1506 0.950 . S
H1531 C1507 0.949 . S
H1532 C1509 0.950 . S
H1533 C1511 0.950 . S
C1534 C1535 1.349 . S
C1534 C1536 1.327 . S
C1534 H1559 0.950 . S
C1535 C1534 1.349 . S
C1535 C1551 1.349 . S
C1536 C1534 1.327 . S
C1536 C1555 1.429 . S
C1536 H1560 0.950 . S
C1537 C1554 1.574 . S
C1537 C1556 1.368 . S
C1537 H1561 0.949 . S
H1538 C1542 0.949 . S
C1539 C1540 1.349 . S
C1539 C1541 1.327 . S
C1539 H1562 0.950 . S
C1540 C1539 1.349 . S
C1540 C1552 1.349 . S
C1541 C1539 1.327 . S
C1541 C1557 1.429 . S
C1541 H1563 0.950 . S
C1542 H1538 0.949 . S
C1542 C1550 1.574 . S
C1542 C1558 1.368 . S
H1543 C1551 0.950 . S
H1544 C1549 0.950 . S
H1545 C1550 0.949 . S
H1546 C1552 0.950 . S
H1547 C1553 0.950 . S
H1548 C1554 0.949 . S
C1549 H1544 0.950 . S
C1549 C1551 1.327 . S
C1549 C1555 1.429 . S
C1550 C1542 1.574 . S
C1550 H1545 0.949 . S
C1550 C1556 1.368 . S
C1551 C1535 1.349 . S
C1551 H1543 0.950 . S
C1551 C1549 1.327 . S
C1552 C1540 1.349 . S
C1552 H1546 0.950 . S
C1552 C1553 1.327 . S
C1553 H1547 0.950 . S
C1553 C1552 1.327 . S
C1553 C1557 1.429 . S
C1554 C1537 1.574 . S
C1554 H1548 0.949 . S
C1554 C1558 1.368 . S
C1555 C1536 1.429 . S
C1555 C1549 1.429 . S
C1555 C1556 1.523 . S
C1556 C1537 1.368 . S
C1556 C1550 1.368 . S
C1556 C1555 1.523 . S
C1557 C1541 1.429 . S
C1557 C1553 1.429 . S
C1557 C1558 1.523 . S
C1558 C1542 1.368 . S
C1558 C1554 1.368 . S
C1558 C1557 1.523 . S
H1559 C1534 0.950 . S
H1560 C1536 0.950 . S
H1561 C1537 0.949 . S
H1562 C1539 0.950 . S
H1563 C1541 0.950 . S
C1564 C1565 1.349 . S
C1564 C1566 1.327 . S
C1564 H1589 0.950 . S
C1565 C1564 1.349 . S
C1565 C1581 1.349 . S
C1566 C1564 1.327 . S
C1566 C1585 1.429 . S
C1566 H1590 0.950 . S
C1567 C1584 1.574 . S
C1567 C1586 1.368 . S
C1567 H1591 0.949 . S
H1568 C1572 0.949 . S
C1569 C1570 1.349 . S
C1569 C1571 1.327 . S
C1569 H1592 0.950 . S
C1570 C1569 1.349 . S
C1570 C1582 1.349 . S
C1571 C1569 1.327 . S
C1571 C1587 1.429 . S
C1571 H1593 0.950 . S
C1572 H1568 0.949 . S
C1572 C1580 1.574 . S
C1572 C1588 1.368 . S
H1573 C1581 0.950 . S
H1574 C1579 0.950 . S
H1575 C1580 0.949 . S
H1576 C1582 0.950 . S
H1577 C1583 0.950 . S
H1578 C1584 0.949 . S
C1579 H1574 0.950 . S
C1579 C1581 1.327 . S
C1579 C1585 1.429 . S
C1580 C1572 1.574 . S
C1580 H1575 0.949 . S
C1580 C1586 1.368 . S
C1581 C1565 1.349 . S
C1581 H1573 0.950 . S
C1581 C1579 1.327 . S
C1582 C1570 1.349 . S
C1582 H1576 0.950 . S
C1582 C1583 1.327 . S
C1583 H1577 0.950 . S
C1583 C1582 1.327 . S
C1583 C1587 1.429 . S
C1584 C1567 1.574 . S
C1584 H1578 0.949 . S
C1584 C1588 1.368 . S
C1585 C1566 1.429 . S
C1585 C1579 1.429 . S
C1585 C1586 1.523 . S
C1586 C1567 1.368 . S
C1586 C1580 1.368 . S
C1586 C1585 1.523 . S
C1587 C1571 1.429 . S
C1587 C1583 1.429 . S
C1587 C1588 1.523 . S
C1588 C1572 1.368 . S
C1588 C1584 1.368 . S
C1588 C1587 1.523 . S
H1589 C1564 0.950 . S
H1590 C1566 0.950 . S
H1591 C1567 0.949 . S
H1592 C1569 0.950 . S
H1593 C1571 0.950 . S
C1594 C1595 1.349 . S
C1594 C1596 1.327 . S
C1594 H1619 0.950 . S
C1595 C1594 1.349 . S
C1595 C1611 1.349 . S
C1596 C1594 1.327 . S
C1596 C1615 1.429 . S
C1596 H1620 0.950 . S
C1597 C1614 1.574 . S
C1597 C1616 1.368 . S
C1597 H1621 0.949 . S
H1598 C1602 0.949 . S
C1599 C1600 1.349 . S
C1599 C1601 1.327 . S
C1599 H1622 0.950 . S
C1600 C1599 1.349 . S
C1600 C1612 1.349 . S
C1601 C1599 1.327 . S
C1601 C1617 1.429 . S
C1601 H1623 0.950 . S
C1602 H1598 0.949 . S
C1602 C1610 1.574 . S
C1602 C1618 1.368 . S
H1603 C1611 0.950 . S
H1604 C1609 0.950 . S
H1605 C1610 0.949 . S
H1606 C1612 0.950 . S
H1607 C1613 0.950 . S
H1608 C1614 0.949 . S
C1609 H1604 0.950 . S
C1609 C1611 1.327 . S
C1609 C1615 1.429 . S
C1610 C1602 1.574 . S
C1610 H1605 0.949 . S
C1610 C1616 1.368 . S
C1611 C1595 1.349 . S
C1611 H1603 0.950 . S
C1611 C1609 1.327 . S
C1612 C1600 1.349 . S
C1612 H1606 0.950 . S
C1612 C1613 1.327 . S
C1613 H1607 0.950 . S
C1613 C1612 1.327 . S
C1613 C1617 1.429 . S
C1614 C1597 1.574 . S
C1614 H1608 0.949 . S
C1614 C1618 1.368 . S
C1615 C1596 1.429 . S
C1615 C1609 1.429 . S
C1615 C1616 1.523 . S
C1616 C1597 1.368 . S
C1616 C1610 1.368 . S
C1616 C1615 1.523 . S
C1617 C1601 1.429 . S
C1617 C1613 1.429 . S
C1617 C1618 1.523 . S
C1618 C1602 1.368 . S
C1618 C1614 1.368 . S
C1618 C1617 1.523 . S
H1619 C1594 0.950 . S
H1620 C1596 0.950 . S
H1621 C1597 0.949 . S
H1622 C1599 0.950 . S
H1623 C1601 0.950 . S
C1624 C1625 1.349 . S
C1624 C1626 1.327 . S
C1624 H1649 0.950 . S
C1625 C1624 1.349 . S
C1625 C1641 1.349 . S
C1626 C1624 1.327 . S
C1626 C1645 1.429 . S
C1626 H1650 0.950 . S
C1627 C1644 1.574 . S
C1627 C1646 1.368 . S
C1627 H1651 0.949 . S
H1628 C1632 0.949 . S
C1629 C1630 1.349 . S
C1629 C1631 1.327 . S
C1629 H1652 0.950 . S
C1630 C1629 1.349 . S
C1630 C1642 1.349 . S
C1631 C1629 1.327 . S
C1631 C1647 1.429 . S
C1631 H1653 0.950 . S
C1632 H1628 0.949 . S
C1632 C1640 1.574 . S
C1632 C1648 1.368 . S
H1633 C1641 0.950 . S
H1634 C1639 0.950 . S
H1635 C1640 0.949 . S
H1636 C1642 0.950 . S
H1637 C1643 0.950 . S
H1638 C1644 0.949 . S
C1639 H1634 0.950 . S
C1639 C1641 1.327 . S
C1639 C1645 1.429 . S
C1640 C1632 1.574 . S
C1640 H1635 0.949 . S
C1640 C1646 1.368 1_556 S
C1641 C1625 1.349 . S
C1641 H1633 0.950 . S
C1641 C1639 1.327 . S
C1642 C1630 1.349 . S
C1642 H1636 0.950 . S
C1642 C1643 1.327 . S
C1643 H1637 0.950 . S
C1643 C1642 1.327 . S
C1643 C1647 1.429 . S
C1644 C1627 1.574 . S
C1644 H1638 0.949 . S
C1644 C1648 1.368 1_554 S
C1645 C1626 1.429 . S
C1645 C1639 1.429 . S
C1645 C1646 1.523 . S
C1646 C1627 1.368 . S
C1646 C1640 1.368 1_554 S
C1646 C1645 1.523 . S
C1647 C1631 1.429 . S
C1647 C1643 1.429 . S
C1647 C1648 1.523 . S
C1648 C1632 1.368 . S
C1648 C1644 1.368 1_556 S
C1648 C1647 1.523 . S
H1649 C1624 0.950 . S
H1650 C1626 0.950 . S
H1651 C1627 0.949 . S
H1652 C1629 0.950 . S
H1653 C1631 0.950 . S
C1654 C1655 1.349 . S
C1654 C1656 1.327 . S
C1654 H1679 0.950 . S
C1655 C1654 1.349 . S
C1655 C1671 1.349 . S
C1656 C1654 1.327 . S
C1656 C1675 1.429 . S
C1656 H1680 0.950 . S
C1657 C1674 1.560 1_556 S
C1657 C1676 1.377 . S
C1657 H1681 0.953 . S
H1658 C1662 0.949 . S
C1659 C1660 1.349 . S
C1659 C1661 1.327 . S
C1659 H1682 0.950 . S
C1660 C1659 1.349 . S
C1660 C1672 1.349 . S
C1661 C1659 1.327 . S
C1661 C1677 1.429 . S
C1661 H1683 0.950 . S
C1662 H1658 0.949 . S
C1662 C1670 1.574 1_554 S
C1662 C1678 1.368 . S
H1663 C1671 0.950 . S
H1664 C1669 0.950 . S
H1665 C1670 0.949 . S
H1666 C1672 0.950 . S
H1667 C1673 0.950 . S
H1668 C1674 0.949 . S
C1669 H1664 0.950 . S
C1669 C1671 1.327 . S
C1669 C1675 1.429 . S
C1670 C1662 1.574 1_556 S
C1670 H1665 0.949 . S
C1670 C1676 1.368 . S
C1671 C1655 1.349 . S
C1671 H1663 0.950 . S
C1671 C1669 1.327 . S
C1672 C1660 1.349 . S
C1672 H1666 0.950 . S
C1672 C1673 1.327 . S
C1673 H1667 0.950 . S
C1673 C1672 1.327 . S
C1673 C1677 1.429 . S
C1674 C1657 1.560 1_554 S
C1674 H1668 0.949 . S
C1674 C1678 1.368 . S
C1675 C1656 1.429 . S
C1675 C1669 1.429 . S
C1675 C1676 1.523 . S
C1676 C1657 1.377 . S
C1676 C1670 1.368 . S
C1676 C1675 1.523 . S
C1677 C1661 1.429 . S
C1677 C1673 1.429 . S
C1677 C1678 1.523 . S
C1678 C1662 1.368 . S
C1678 C1674 1.368 . S
C1678 C1677 1.523 . S
H1679 C1654 0.950 . S
H1680 C1656 0.950 . S
H1681 C1657 0.953 . S
H1682 C1659 0.950 . S
H1683 C1661 0.950 . S
C1684 C1685 1.349 . S
C1684 C1686 1.327 . S
C1684 H1709 0.950 . S
C1685 C1684 1.349 . S
C1685 C1701 1.349 . S
C1686 C1684 1.327 . S
C1686 C1705 1.429 . S
C1686 H1710 0.950 . S
C1687 C1704 1.574 . S
C1687 C1706 1.368 1_556 S
C1687 H1711 0.949 . S
H1688 C1692 0.949 . S
C1689 C1690 1.349 . S
C1689 C1691 1.327 . S
C1689 H1712 0.950 . S
C1690 C1689 1.349 . S
C1690 C1702 1.349 . S
C1691 C1689 1.327 . S
C1691 C1707 1.429 . S
C1691 H1713 0.950 . S
C1692 H1688 0.949 . S
C1692 C1700 1.574 . S
C1692 C1708 1.368 1_554 S
H1693 C1701 0.950 . S
H1694 C1699 0.950 . S
H1695 C1700 0.949 . S
H1696 C1702 0.950 . S
H1697 C1703 0.950 . S
H1698 C1704 0.949 . S
C1699 H1694 0.950 . S
C1699 C1701 1.327 . S
C1699 C1705 1.429 . S
C1700 C1692 1.574 . S
C1700 H1695 0.949 . S
C1700 C1706 1.368 . S
C1701 C1685 1.349 . S
C1701 H1693 0.950 . S
C1701 C1699 1.327 . S
C1702 C1690 1.349 . S
C1702 H1696 0.950 . S
C1702 C1703 1.327 . S
C1703 H1697 0.950 . S
C1703 C1702 1.327 . S
C1703 C1707 1.429 . S
C1704 C1687 1.574 . S
C1704 H1698 0.949 . S
C1704 C1708 1.368 . S
C1705 C1686 1.429 . S
C1705 C1699 1.429 . S
C1705 C1706 1.523 . S
C1706 C1687 1.368 1_554 S
C1706 C1700 1.368 . S
C1706 C1705 1.523 . S
C1707 C1691 1.429 . S
C1707 C1703 1.429 . S
C1707 C1708 1.523 . S
C1708 C1692 1.368 1_556 S
C1708 C1704 1.368 . S
C1708 C1707 1.523 . S
H1709 C1684 0.950 . S
H1710 C1686 0.950 . S
H1711 C1687 0.949 . S
H1712 C1689 0.950 . S
H1713 C1691 0.950 . S
C1714 C1715 1.349 . S
C1714 C1716 1.327 . S
C1714 H1739 0.950 . S
C1715 C1714 1.349 . S
C1715 C1731 1.349 . S
C1716 C1714 1.327 . S
C1716 C1735 1.429 . S
C1716 H1740 0.950 . S
C1717 C1734 1.574 . S
C1717 C1736 1.368 . S
C1717 H1741 0.949 . S
H1718 C1722 0.949 . S
C1719 C1720 1.349 . S
C1719 C1721 1.327 . S
C1719 H1742 0.950 . S
C1720 C1719 1.349 . S
C1720 C1732 1.349 . S
C1721 C1719 1.327 . S
C1721 C1737 1.429 . S
C1721 H1743 0.950 . S
C1722 H1718 0.949 . S
C1722 C1730 1.574 1_556 S
C1722 C1738 1.368 . S
H1723 C1731 0.950 . S
H1724 C1729 0.950 . S
H1725 C1730 0.949 . S
H1726 C1732 0.950 . S
H1727 C1733 0.950 . S
H1728 C1734 0.949 . S
C1729 H1724 0.950 . S
C1729 C1731 1.327 . S
C1729 C1735 1.429 . S
C1730 C1722 1.574 1_554 S
C1730 H1725 0.949 . S
C1730 C1736 1.368 . S
C1731 C1715 1.349 . S
C1731 H1723 0.950 . S
C1731 C1729 1.327 . S
C1732 C1720 1.349 . S
C1732 H1726 0.950 . S
C1732 C1733 1.327 . S
C1733 H1727 0.950 . S
C1733 C1732 1.327 . S
C1733 C1737 1.429 . S
C1734 C1717 1.574 . S
C1734 H1728 0.949 . S
C1734 C1738 1.368 1_554 S
C1735 C1716 1.429 . S
C1735 C1729 1.429 . S
C1735 C1736 1.523 . S
C1736 C1717 1.368 . S
C1736 C1730 1.368 . S
C1736 C1735 1.523 . S
C1737 C1721 1.429 . S
C1737 C1733 1.429 . S
C1737 C1738 1.523 . S
C1738 C1722 1.368 . S
C1738 C1734 1.368 1_556 S
C1738 C1737 1.523 . S
H1739 C1714 0.950 . S
H1740 C1716 0.950 . S
H1741 C1717 0.949 . S
H1742 C1719 0.950 . S
H1743 C1721 0.950 . S
C545 C111 1.591 . S
C550 C2 1.614 . S
C575 C36 1.614 . S
C580 C9 1.591 . S
C605 C70 1.614 1_455 S
C610 C43 1.591 . S
C635 C104 1.614 1_545 S
C640 C77 1.591 . S
C665 C179 1.591 . S
C670 C138 1.614 1_655 S
C695 C213 1.591 . S
C700 C172 1.614 1_565 S
C725 C206 1.614 . S
C730 C247 1.591 . S
C755 C145 1.591 . S
C760 C240 1.614 . S
C785 C274 1.614 . S
C790 C383 1.591 . S
C815 C308 1.614 . S
C820 C281 1.591 . S
C845 C315 1.591 . S
C850 C342 1.614 1_655 S
C875 C376 1.614 1_565 S
C880 C349 1.591 . S
C905 C451 1.591 . S
C910 C410 1.614 1_455 S
C935 C444 1.614 1_545 S
C940 C485 1.591 . S
C965 C478 1.614 . S
C970 C519 1.591 . S
C995 C512 1.614 . S
C1000 C417 1.591 . S
C1025 C33 1.969 . S
C1030 C203 1.969 . S
C1055 C67 1.969 . S
C1060 C237 1.969 . S
C1085 C271 1.969 . S
C1090 C101 1.969 . S
C1115 C135 1.969 . S
C1120 C169 1.969 . S
C1145 C475 1.969 . S
C1150 C305 1.969 . S
C1175 C509 1.969 . S
C1180 C339 1.969 . S
C1205 C373 1.969 . S
C1210 C543 1.969 . S
C1235 C441 1.969 . S
C1240 C407 1.969 . S
C1265 C5 0.971 . S
C1270 C394 0.984 . S
C1295 C39 0.972 . S
C1300 C292 0.984 . S
C1325 C73 0.971 . S
C1330 C326 0.984 . S
C1355 C107 0.971 . S
C1360 C360 0.984 . S
C1385 C462 0.984 . S
C1390 C141 0.971 . S
C1415 C175 0.971 . S
C1420 C496 0.984 . S
C1445 C530 0.984 . S
C1450 C209 0.972 . S
C1475 C243 0.971 . S
C1480 C428 0.984 . S
C1505 C122 0.984 . S
C1510 C277 0.971 . S
C1535 C20 0.984 . S
C1540 C311 0.972 . S
C1565 C54 0.984 . S
C1570 C345 0.971 . S
C1595 C88 0.984 . S
C1600 C379 0.971 . S
C1625 C190 0.984 . S
C1630 C413 0.971 . S
C1655 C447 0.971 . S
C1660 C224 0.984 . S
C1685 C258 0.984 . S
C1690 C481 0.972 . S
C1715 C156 0.984 . S
C1720 C515 0.971 . S
