# Generated by pormake.
# Topology whz, (6)-cn, num edge types: 1
# Building blocks:
#     Node 0, Type 0, BuildingBlock: JUFBIX_clean_sbu_0, # of connection points: 6
#     Node 1, Type 0, BuildingBlock: JUFBIX_clean_sbu_0, # of connection points: 6
#     Node 2, Type 0, BuildingBlock: JUFBIX_clean_sbu_0, # of connection points: 6
#     Node 3, Type 0, BuildingBlock: JUFBIX_clean_sbu_0, # of connection points: 6
#     Node 4, Type 0, BuildingBlock: JUFBIX_clean_sbu_0, # of connection points: 6
#     Node 5, Type 0, BuildingBlock: JUFBIX_clean_sbu_0, # of connection points: 6
#     Node 6, Type 0, BuildingBlock: JUFBIX_clean_sbu_0, # of connection points: 6
#     Node 7, Type 0, BuildingBlock: JUFBIX_clean_sbu_0, # of connection points: 6
#     Node 8, Type 0, BuildingBlock: JUFBIX_clean_sbu_0, # of connection points: 6
#     Node 9, Type 0, BuildingBlock: JUFBIX_clean_sbu_0, # of connection points: 6
#     Node 10, Type 0, BuildingBlock: JUFBIX_clean_sbu_0, # of connection points: 6
#     Node 11, Type 0, BuildingBlock: JUFBIX_clean_sbu_0, # of connection points: 6
#     Node 12, Type 0, BuildingBlock: JUFBIX_clean_sbu_0, # of connection points: 6
#     Node 13, Type 0, BuildingBlock: JUFBIX_clean_sbu_0, # of connection points: 6
#     Node 14, Type 0, BuildingBlock: JUFBIX_clean_sbu_0, # of connection points: 6
#     Node 15, Type 0, BuildingBlock: JUFBIX_clean_sbu_0, # of connection points: 6
#     Edge 16, Type (0, 0), BuildingBlock: EZIPEK_clean_linker_0, # of connection points: 2
#     Edge 17, Type (0, 0), BuildingBlock: EZIPEK_clean_linker_0, # of connection points: 2
#     Edge 18, Type (0, 0), BuildingBlock: EZIPEK_clean_linker_0, # of connection points: 2
#     Edge 19, Type (0, 0), BuildingBlock: EZIPEK_clean_linker_0, # of connection points: 2
#     Edge 20, Type (0, 0), BuildingBlock: EZIPEK_clean_linker_0, # of connection points: 2
#     Edge 21, Type (0, 0), BuildingBlock: EZIPEK_clean_linker_0, # of connection points: 2
#     Edge 22, Type (0, 0), BuildingBlock: EZIPEK_clean_linker_0, # of connection points: 2
#     Edge 23, Type (0, 0), BuildingBlock: EZIPEK_clean_linker_0, # of connection points: 2
#     Edge 24, Type (0, 0), BuildingBlock: EZIPEK_clean_linker_0, # of connection points: 2
#     Edge 25, Type (0, 0), BuildingBlock: EZIPEK_clean_linker_0, # of connection points: 2
#     Edge 26, Type (0, 0), BuildingBlock: EZIPEK_clean_linker_0, # of connection points: 2
#     Edge 27, Type (0, 0), BuildingBlock: EZIPEK_clean_linker_0, # of connection points: 2
#     Edge 28, Type (0, 0), BuildingBlock: EZIPEK_clean_linker_0, # of connection points: 2
#     Edge 29, Type (0, 0), BuildingBlock: EZIPEK_clean_linker_0, # of connection points: 2
#     Edge 30, Type (0, 0), BuildingBlock: EZIPEK_clean_linker_0, # of connection points: 2
#     Edge 31, Type (0, 0), BuildingBlock: EZIPEK_clean_linker_0, # of connection points: 2
#     Edge 32, Type (0, 0), BuildingBlock: EZIPEK_clean_linker_0, # of connection points: 2
#     Edge 33, Type (0, 0), BuildingBlock: EZIPEK_clean_linker_0, # of connection points: 2
#     Edge 34, Type (0, 0), BuildingBlock: EZIPEK_clean_linker_0, # of connection points: 2
#     Edge 35, Type (0, 0), BuildingBlock: EZIPEK_clean_linker_0, # of connection points: 2
#     Edge 36, Type (0, 0), BuildingBlock: EZIPEK_clean_linker_0, # of connection points: 2
#     Edge 37, Type (0, 0), BuildingBlock: EZIPEK_clean_linker_0, # of connection points: 2
#     Edge 38, Type (0, 0), BuildingBlock: EZIPEK_clean_linker_0, # of connection points: 2
#     Edge 39, Type (0, 0), BuildingBlock: EZIPEK_clean_linker_0, # of connection points: 2
#     Edge 40, Type (0, 0), BuildingBlock: EZIPEK_clean_linker_0, # of connection points: 2
#     Edge 41, Type (0, 0), BuildingBlock: EZIPEK_clean_linker_0, # of connection points: 2
#     Edge 42, Type (0, 0), BuildingBlock: EZIPEK_clean_linker_0, # of connection points: 2
#     Edge 43, Type (0, 0), BuildingBlock: EZIPEK_clean_linker_0, # of connection points: 2
#     Edge 44, Type (0, 0), BuildingBlock: EZIPEK_clean_linker_0, # of connection points: 2
#     Edge 45, Type (0, 0), BuildingBlock: EZIPEK_clean_linker_0, # of connection points: 2
#     Edge 46, Type (0, 0), BuildingBlock: EZIPEK_clean_linker_0, # of connection points: 2
#     Edge 47, Type (0, 0), BuildingBlock: EZIPEK_clean_linker_0, # of connection points: 2
#     Edge 48, Type (0, 0), BuildingBlock: EZIPEK_clean_linker_0, # of connection points: 2
#     Edge 49, Type (0, 0), BuildingBlock: EZIPEK_clean_linker_0, # of connection points: 2
#     Edge 50, Type (0, 0), BuildingBlock: EZIPEK_clean_linker_0, # of connection points: 2
#     Edge 51, Type (0, 0), BuildingBlock: EZIPEK_clean_linker_0, # of connection points: 2
#     Edge 52, Type (0, 0), BuildingBlock: EZIPEK_clean_linker_0, # of connection points: 2
#     Edge 53, Type (0, 0), BuildingBlock: EZIPEK_clean_linker_0, # of connection points: 2
#     Edge 54, Type (0, 0), BuildingBlock: EZIPEK_clean_linker_0, # of connection points: 2
#     Edge 55, Type (0, 0), BuildingBlock: EZIPEK_clean_linker_0, # of connection points: 2
#     Edge 56, Type (0, 0), BuildingBlock: EZIPEK_clean_linker_0, # of connection points: 2
#     Edge 57, Type (0, 0), BuildingBlock: EZIPEK_clean_linker_0, # of connection points: 2
#     Edge 58, Type (0, 0), BuildingBlock: EZIPEK_clean_linker_0, # of connection points: 2
#     Edge 59, Type (0, 0), BuildingBlock: EZIPEK_clean_linker_0, # of connection points: 2
#     Edge 60, Type (0, 0), BuildingBlock: EZIPEK_clean_linker_0, # of connection points: 2
#     Edge 61, Type (0, 0), BuildingBlock: EZIPEK_clean_linker_0, # of connection points: 2
#     Edge 62, Type (0, 0), BuildingBlock: EZIPEK_clean_linker_0, # of connection points: 2
#     Edge 63, Type (0, 0), BuildingBlock: EZIPEK_clean_linker_0, # of connection points: 2
# Relax obj value: 0.397
# Max RMSD: 0.261
# Mean RMSD: 0.261
data_MOF--net-whz--node1-JUFBIX_clean_sbu_0--edge1-EZIPEK_clean_linker_0
_symmetry_space_group_name_H-M    P1
_symmetry_Int_Tables_number       1
_symmetry_cell_setting            triclinic
loop_
_symmetry_equiv_pos_as_xyz
'x, y, z'
_cell_length_a     31.598072
_cell_length_b     31.600818
_cell_length_c     32.370424
_cell_angle_alpha  89.460573
_cell_angle_beta   89.523747
_cell_angle_gamma 90.267974
loop_
_atom_site_label
_atom_site_type_symbol
_atom_site_fract_x
_atom_site_fract_y
_atom_site_fract_z
_atom_type_partial_charge
Co0 Co 0.25339 0.14159 0.14358 0.0
C1 C 0.32678 0.0989 0.16769 0.0
Co2 Co 0.31215 0.17245 0.11931 0.0
C3 C 0.16488 0.11529 0.15016 0.0
C4 C 0.20326 0.08939 0.19817 0.0
N5 N 0.20493 0.11493 0.16448 0.0
N6 N 0.13873 0.09035 0.1731 0.0
C7 C 0.16293 0.07381 0.20313 0.0
H8 H 0.15523 0.13241 0.12276 0.0
H9 H 0.22971 0.08219 0.21798 0.0
C10 C 0.2375 0.21662 0.10176 0.0
N11 N 0.36253 0.20127 0.1001 0.0
C12 C 0.40037 0.20947 0.11867 0.0
C13 C 0.36541 0.22262 0.06385 0.0
N14 N 0.42622 0.23496 0.09526 0.0
C15 C 0.40395 0.24311 0.06086 0.0
C16 C 0.27268 0.11891 0.06254 0.0
O17 O 0.22074 0.18597 0.12156 0.0
O18 O 0.27753 0.21646 0.09611 0.0
O19 O 0.30649 0.14086 0.06753 0.0
O20 O 0.24809 0.11286 0.09343 0.0
O21 O 0.34576 0.12744 0.14587 0.0
H22 H 0.34056 0.22417 0.0412 0.0
H23 H 0.40857 0.1976 0.14902 0.0
O24 O 0.28673 0.09765 0.1671 0.0
O25 O 0.25745 0.17189 0.19221 0.0
O26 O 0.31379 0.20441 0.16869 0.0
C27 C 0.28549 0.2002 0.19667 0.0
H28 H 0.15206 0.05202 0.227 0.0
H29 H 0.41486 0.26271 0.03527 0.0
Co30 Co 0.63148 0.50893 0.40287 0.0
C31 C 0.69003 0.57438 0.4198 0.0
Co32 Co 0.61101 0.57287 0.38119 0.0
C33 C 0.65338 0.41829 0.40883 0.0
C34 C 0.66794 0.45382 0.4629 0.0
N35 N 0.65056 0.45756 0.42505 0.0
N36 N 0.67241 0.39076 0.43504 0.0
C37 C 0.68149 0.41305 0.46899 0.0
H38 H 0.64387 0.41057 0.37774 0.0
H39 H 0.67207 0.47963 0.48421 0.0
C40 C 0.55414 0.50627 0.36788 0.0
N41 N 0.58928 0.62527 0.35991 0.0
C42 C 0.57887 0.66322 0.37711 0.0
C43 C 0.57308 0.62781 0.3215 0.0
N44 N 0.55671 0.68865 0.35076 0.0
C45 C 0.55317 0.66599 0.31596 0.0
C46 C 0.65451 0.52401 0.3215 0.0
O47 O 0.58136 0.48332 0.3858 0.0
O48 O 0.5618 0.5453 0.36132 0.0
O49 O 0.63919 0.56075 0.32841 0.0
O50 O 0.65649 0.49713 0.35094 0.0
O51 O 0.6626 0.59914 0.40342 0.0
H52 H 0.57404 0.60258 0.29919 0.0
H53 H 0.58613 0.67151 0.40864 0.0
O54 O 0.68143 0.53514 0.42091 0.0
O55 O 0.60507 0.52047 0.45322 0.0
O56 O 0.58147 0.58178 0.43264 0.0
C57 C 0.58232 0.55264 0.46009 0.0
H58 H 0.69841 0.40103 0.49555 0.0
H59 H 0.53693 0.67636 0.28836 0.0
Co60 Co 0.28081 0.88164 0.63421 0.0
C61 C 0.2178 0.93283 0.67081 0.0
Co62 Co 0.21541 0.8558 0.62847 0.0
C63 C 0.3593 0.91394 0.67074 0.0
C64 C 0.36092 0.91088 0.60467 0.0
N65 N 0.33532 0.90391 0.63774 0.0
N66 N 0.39841 0.92704 0.6591 0.0
C67 C 0.39942 0.92534 0.6177 0.0
H68 H 0.34871 0.91111 0.70251 0.0
H69 H 0.35259 0.90486 0.57292 0.0
C70 C 0.2801 0.80161 0.60211 0.0
N71 N 0.16043 0.82742 0.62611 0.0
C72 C 0.11889 0.83606 0.61748 0.0
C73 C 0.15892 0.78626 0.63826 0.0
N74 N 0.09283 0.80179 0.62411 0.0
C75 C 0.11845 0.77085 0.63707 0.0
C76 C 0.24558 0.90104 0.55767 0.0
O77 O 0.30364 0.83377 0.60676 0.0
O78 O 0.2406 0.8056 0.60782 0.0
O79 O 0.2134 0.87905 0.57045 0.0
O80 O 0.27458 0.90941 0.58305 0.0
O81 O 0.19195 0.9068 0.65379 0.0
H82 H 0.18588 0.76794 0.64813 0.0
H83 H 0.10795 0.86662 0.60677 0.0
O84 O 0.25736 0.92906 0.66319 0.0
O85 O 0.28778 0.85211 0.68488 0.0
O86 O 0.2217 0.83272 0.68238 0.0
C87 C 0.257 0.83164 0.70084 0.0
H88 H 0.42638 0.93337 0.59842 0.0
H89 H 0.10844 0.73894 0.64497 0.0
Co90 Co 0.88995 0.51585 0.90393 0.0
C91 C 0.83273 0.44759 0.91583 0.0
Co92 Co 0.9112 0.45603 0.87477 0.0
C93 C 0.86341 0.60229 0.91739 0.0
C94 C 0.85866 0.56341 0.9718 0.0
N95 N 0.87116 0.56294 0.93177 0.0
N96 N 0.84625 0.62691 0.94684 0.0
C97 C 0.8432 0.60273 0.9811 0.0
H98 H 0.86799 0.61208 0.88552 0.0
H99 H 0.85894 0.53629 0.99242 0.0
C100 C 0.96796 0.52461 0.86906 0.0
N101 N 0.93394 0.40625 0.84929 0.0
C102 C 0.93924 0.36566 0.86347 0.0
C103 C 0.96044 0.40898 0.81653 0.0
N104 N 0.96891 0.34374 0.84138 0.0
C105 C 0.98222 0.37175 0.81228 0.0
C106 C 0.86779 0.51371 0.82039 0.0
O107 O 0.93909 0.54503 0.88739 0.0
O108 O 0.96209 0.48595 0.8602 0.0
O109 O 0.88542 0.47707 0.82228 0.0
O110 O 0.86275 0.53407 0.85392 0.0
O111 O 0.85892 0.4272 0.89295 0.0
H112 H 0.96593 0.4374 0.79836 0.0
H113 H 0.9232 0.35318 0.89067 0.0
O114 O 0.8405 0.48639 0.92236 0.0
O115 O 0.91911 0.49871 0.95181 0.0
O116 O 0.93787 0.43867 0.92462 0.0
C117 C 0.9401 0.46471 0.95407 0.0
H118 H 0.82879 0.61226 1.00999 0.0
H119 H 1.00684 0.36592 0.7896 0.0
Co120 Co 0.70786 0.84777 0.90485 0.0
C121 C 0.77237 0.79023 0.922 0.0
Co122 Co 0.77177 0.8692 0.88445 0.0
C123 C 0.61616 0.81999 0.90695 0.0
C124 C 0.65257 0.80277 0.9598 0.0
N125 N 0.65464 0.8264 0.92495 0.0
N126 N 0.59108 0.7922 0.9288 0.0
C127 C 0.61484 0.78128 0.96161 0.0
H128 H 0.60749 0.83403 0.87761 0.0
H129 H 0.67819 0.79905 0.98147 0.0
C130 C 0.70693 0.92699 0.86416 0.0
N131 N 0.82264 0.8868 0.86083 0.0
C132 C 0.86283 0.8887 0.87456 0.0
C133 C 0.82461 0.90315 0.82207 0.0
N134 N 0.88898 0.90675 0.84614 0.0
C135 C 0.8651 0.91562 0.81315 0.0
C136 C 0.73023 0.81827 0.82788 0.0
O137 O 0.68255 0.90006 0.88249 0.0
O138 O 0.74599 0.91822 0.86222 0.0
O139 O 0.76223 0.84049 0.83554 0.0
O140 O 0.69879 0.81896 0.85288 0.0
O141 O 0.79698 0.81872 0.90707 0.0
H142 H 0.79782 0.90713 0.80184 0.0
H143 H 0.87231 0.87981 0.90543 0.0
O144 O 0.73316 0.79755 0.92469 0.0
O145 O 0.72165 0.87488 0.9587 0.0
O146 O 0.78277 0.89785 0.93417 0.0
C147 C 0.75773 0.89295 0.9648 0.0
H148 H 0.6057 0.7586 0.98538 0.0
H149 H 0.87592 0.93203 0.78547 0.0
Co150 Co 0.42128 0.45691 0.63249 0.0
C151 C 0.46324 0.53262 0.65307 0.0
Co152 Co 0.38634 0.51614 0.6191 0.0
C153 C 0.45296 0.36651 0.64778 0.0
C154 C 0.4989 0.41185 0.62695 0.0
N155 N 0.45756 0.4084 0.63769 0.0
N156 N 0.48982 0.34451 0.64327 0.0
C157 C 0.51838 0.37331 0.63011 0.0
H158 H 0.42335 0.35239 0.65797 0.0
H159 H 0.51424 0.44083 0.61683 0.0
C160 C 0.3448 0.44224 0.59093 0.0
N161 N 0.35157 0.56252 0.61271 0.0
C162 C 0.36009 0.60277 0.60091 0.0
C163 C 0.30997 0.5623 0.62272 0.0
N164 N 0.3254 0.62731 0.60366 0.0
C165 C 0.29383 0.60207 0.6172 0.0
C166 C 0.43896 0.49895 0.55562 0.0
O167 O 0.37564 0.42296 0.60835 0.0
O168 O 0.34376 0.48223 0.5938 0.0
O169 O 0.41163 0.5258 0.5671 0.0
O170 O 0.44435 0.46633 0.57835 0.0
O171 O 0.42892 0.55015 0.64256 0.0
H172 H 0.29276 0.53522 0.63478 0.0
H173 H 0.39115 0.61431 0.59203 0.0
O174 O 0.46558 0.49238 0.65336 0.0
O175 O 0.39863 0.45072 0.6892 0.0
O176 O 0.36323 0.50766 0.67218 0.0
C177 C 0.37384 0.48083 0.69965 0.0
H178 H 0.55141 0.36689 0.62368 0.0
H179 H 0.26185 0.61219 0.624 0.0
Co180 Co 0.81682 0.17289 0.40686 0.0
C181 C 0.74523 0.22437 0.41834 0.0
Co182 Co 0.7567 0.14545 0.38419 0.0
C183 C 0.90368 0.21343 0.40556 0.0
C184 C 0.8692 0.21986 0.46223 0.0
N185 N 0.86691 0.20137 0.42487 0.0
N186 N 0.92822 0.23869 0.42962 0.0
C187 C 0.90623 0.24266 0.46512 0.0
H188 H 0.91188 0.20473 0.37426 0.0
H189 H 0.84471 0.21802 0.48569 0.0
C190 C 0.8295 0.09703 0.36392 0.0
N191 N 0.70775 0.11736 0.36853 0.0
C192 C 0.66871 0.13115 0.35831 0.0
C193 C 0.70332 0.075 0.37318 0.0
N194 N 0.64047 0.09887 0.35736 0.0
C195 C 0.66226 0.06365 0.36623 0.0
C196 C 0.79286 0.19711 0.32573 0.0
O197 O 0.84914 0.12558 0.38416 0.0
O198 O 0.78934 0.09867 0.36361 0.0
O199 O 0.76234 0.17166 0.33273 0.0
O200 O 0.82091 0.20131 0.35367 0.0
O201 O 0.72523 0.19385 0.40186 0.0
H202 H 0.72772 0.05381 0.38383 0.0
H203 H 0.66057 0.16416 0.35427 0.0
O204 O 0.78423 0.21968 0.42658 0.0
O205 O 0.80922 0.14427 0.46156 0.0
O206 O 0.74959 0.11997 0.43728 0.0
C207 C 0.77436 0.1241 0.46758 0.0
H208 H 0.91635 0.26094 0.49142 0.0
H209 H 0.64879 0.0322 0.36947 0.0
Co210 Co 0.09333 0.55813 0.14007 0.0
C211 C 0.05723 0.48657 0.17977 0.0
Co212 Co 0.12729 0.49746 0.12972 0.0
C213 C 0.06527 0.64974 0.15107 0.0
C214 C 0.01617 0.60507 0.13859 0.0
N215 N 0.05844 0.60765 0.14421 0.0
N216 N 0.02882 0.67275 0.14961 0.0
C217 C 0.9982 0.64439 0.14179 0.0
H218 H 0.09613 0.66322 0.15711 0.0
H219 H 0.99909 0.57614 0.13249 0.0
C220 C 0.16403 0.56672 0.08653 0.0
N221 N 0.16151 0.44999 0.1252 0.0
C222 C 0.15279 0.41027 0.11259 0.0
C223 C 0.20316 0.44945 0.13446 0.0
N224 N 0.18741 0.38537 0.11398 0.0
C225 C 0.21907 0.4098 0.12773 0.0
C226 C 0.06648 0.50622 0.07259 0.0
O227 O 0.13584 0.58836 0.10568 0.0
O228 O 0.16554 0.52723 0.09399 0.0
O229 O 0.09556 0.48123 0.08385 0.0
O230 O 0.06245 0.54184 0.09057 0.0
O231 O 0.08871 0.46767 0.16393 0.0
H232 H 0.221 0.47624 0.14555 0.0
H233 H 0.12183 0.39971 0.10284 0.0
O234 O 0.05319 0.52621 0.17283 0.0
O235 O 0.12282 0.57116 0.19109 0.0
O236 O 0.1572 0.51282 0.17728 0.0
C237 C 0.14913 0.54268 0.20203 0.0
H238 H 0.96487 0.65165 0.1391 0.0
H239 H 0.25131 0.39952 0.13257 0.0
Co240 Co 0.74506 0.64547 0.63264 0.0
C241 C 0.81806 0.61074 0.67124 0.0
Co242 Co 0.80457 0.68232 0.62078 0.0
C243 C 0.65788 0.62094 0.6519 0.0
C244 C 0.69904 0.56857 0.64044 0.0
N245 N 0.69842 0.61122 0.64264 0.0
N246 N 0.63345 0.58587 0.65508 0.0
C247 C 0.65913 0.55294 0.64799 0.0
H248 H 0.64616 0.65294 0.6546 0.0
H249 H 0.72661 0.55003 0.63265 0.0
C250 C 0.72942 0.71814 0.58749 0.0
N251 N 0.85437 0.71705 0.60946 0.0
C252 C 0.89311 0.72193 0.62759 0.0
C253 C 0.85666 0.74353 0.57645 0.0
N254 N 0.91846 0.75055 0.60711 0.0
C255 C 0.89513 0.76397 0.57512 0.0
C256 C 0.78401 0.62644 0.5574 0.0
O257 O 0.71197 0.68479 0.60202 0.0
O258 O 0.76917 0.72296 0.59267 0.0
O259 O 0.81214 0.65319 0.56842 0.0
O260 O 0.75541 0.61563 0.58318 0.0
O261 O 0.83804 0.6401 0.65142 0.0
H262 H 0.83227 0.74725 0.55367 0.0
H263 H 0.90291 0.70434 0.65467 0.0
O264 O 0.7785 0.60698 0.66521 0.0
O265 O 0.73334 0.67634 0.68019 0.0
O266 O 0.79327 0.71175 0.67159 0.0
C267 C 0.75842 0.70542 0.69121 0.0
H268 H 0.64924 0.52012 0.64677 0.0
H269 H 0.90581 0.78615 0.55151 0.0
Co270 Co 0.12522 0.99583 0.89327 0.0
C271 C 0.16981 0.06581 0.92378 0.0
Co272 Co 0.09829 0.05734 0.87297 0.0
C273 C 0.1544 0.9092 0.89016 0.0
C274 C 0.16657 0.93868 0.94818 0.0
N275 N 0.14938 0.9458 0.91069 0.0
N276 N 0.17455 0.88011 0.91339 0.0
C277 C 0.18229 0.89836 0.94983 0.0
H278 H 0.1444 0.90424 0.85866 0.0
H279 H 0.16789 0.96138 0.97274 0.0
C280 C 0.05155 0.98623 0.851 0.0
N281 N 0.07016 0.10928 0.85501 0.0
C282 C 0.06648 0.14991 0.8693 0.0
C283 C 0.04339 0.10887 0.82263 0.0
N284 N 0.03773 0.17354 0.84755 0.0
C285 C 0.02308 0.14675 0.81893 0.0
C286 C 0.15406 0.0222 0.81501 0.0
O287 O 0.07969 0.96571 0.87016 0.0
O288 O 0.05744 0.02522 0.84393 0.0
O289 O 0.13462 0.05685 0.82305 0.0
O290 O 0.15504 0.99323 0.8425 0.0
O291 O 0.14118 0.08811 0.90597 0.0
H292 H 0.03816 0.08257 0.80225 0.0
H293 H 0.08435 0.16184 0.89512 0.0
O294 O 0.16993 0.0261 0.91812 0.0
O295 O 0.09432 0.99715 0.94273 0.0
O296 O 0.06058 0.05284 0.92071 0.0
C297 C 0.06296 0.02155 0.94599 0.0
H298 H 0.19848 0.88357 0.9755 0.0
H299 H 0.99974 0.1545 0.79577 0.0
Co300 Co 0.77921 0.38126 0.14792 0.0
C301 C 0.71131 0.43072 0.17702 0.0
Co302 Co 0.71552 0.35295 0.13713 0.0
C303 C 0.86599 0.39949 0.17508 0.0
C304 C 0.83563 0.45016 0.14256 0.0
N305 N 0.82963 0.40993 0.15581 0.0
N306 N 0.89437 0.43166 0.17345 0.0
C307 C 0.87509 0.46357 0.15349 0.0
H308 H 0.87152 0.36921 0.18995 0.0
H309 H 0.8124 0.46889 0.12632 0.0
C310 C 0.7852 0.30171 0.11855 0.0
N311 N 0.66277 0.3217 0.13086 0.0
C312 C 0.62178 0.32871 0.11911 0.0
C313 C 0.66224 0.28042 0.14253 0.0
N314 N 0.59681 0.29334 0.12341 0.0
C315 C 0.62266 0.26334 0.13808 0.0
C316 C 0.74987 0.39503 0.06655 0.0
O317 O 0.8077 0.33279 0.13004 0.0
O318 O 0.74525 0.30537 0.11648 0.0
O319 O 0.71538 0.37688 0.07932 0.0
O320 O 0.77869 0.40207 0.09265 0.0
O321 O 0.6872 0.40172 0.16243 0.0
H322 H 0.68923 0.2633 0.1542 0.0
H323 H 0.61044 0.35891 0.10783 0.0
O324 O 0.75027 0.42971 0.16764 0.0
O325 O 0.7812 0.35813 0.20233 0.0
O326 O 0.71995 0.32891 0.19129 0.0
C327 C 0.75155 0.33381 0.21484 0.0
H328 H 0.88852 0.49465 0.14771 0.0
H329 H 0.61345 0.23095 0.14491 0.0
Co330 Co 0.39452 0.0297 0.40542 0.0
C331 C 0.34733 0.95522 0.42044 0.0
Co332 Co 0.42732 0.9722 0.38317 0.0
C333 C 0.36635 0.11609 0.40729 0.0
C334 C 0.33406 0.07706 0.45194 0.0
N335 N 0.36474 0.07636 0.42263 0.0
N336 N 0.33698 0.14104 0.42494 0.0
C337 C 0.31651 0.11663 0.45296 0.0
H338 H 0.38725 0.12615 0.38238 0.0
H339 H 0.32428 0.05029 0.47082 0.0
C340 C 0.47313 0.0481 0.37199 0.0
N341 N 0.46161 0.92324 0.36984 0.0
C342 C 0.45545 0.88077 0.36387 0.0
C343 C 0.50419 0.92643 0.37369 0.0
N344 N 0.49259 0.85856 0.36384 0.0
C345 C 0.52279 0.8877 0.36994 0.0
C346 C 0.38146 0.01281 0.32 0.0
O347 O 0.4416 0.06415 0.39039 0.0
O348 O 0.47236 1.00866 0.36472 0.0
O349 O 0.40233 0.97846 0.32697 0.0
O350 O 0.37288 0.03661 0.35054 0.0
O351 O 0.37941 0.93673 0.40411 0.0
H352 H 0.52133 0.95487 0.38141 0.0
H353 H 0.42454 0.86622 0.36117 0.0
O354 O 0.34819 0.99525 0.42126 0.0
O355 O 0.41686 0.02447 0.45885 0.0
O356 O 0.45333 0.97065 0.43667 0.0
C357 C 0.44615 0.99797 0.46441 0.0
H358 H 0.2904 0.12668 0.47233 0.0
H359 H 0.5563 0.88114 0.3724 0.0
Co360 Co 0.21298 0.36274 0.37291 0.0
C361 C 0.28195 0.30807 0.38524 0.0
Co362 Co 0.27657 0.38718 0.35324 0.0
C363 C 0.11967 0.34143 0.40001 0.0
C364 C 0.15883 0.29183 0.37756 0.0
N365 N 0.16024 0.33361 0.38686 0.0
N366 N 0.09447 0.30603 0.39882 0.0
C367 C 0.11956 0.2753 0.38476 0.0
H368 H 0.10863 0.37228 0.40939 0.0
H369 H 0.18463 0.27391 0.3645 0.0
C370 C 0.20901 0.44244 0.3343 0.0
N371 N 0.32753 0.40949 0.33419 0.0
C372 C 0.36282 0.41915 0.35531 0.0
C373 C 0.33734 0.41897 0.29435 0.0
N374 N 0.39353 0.43423 0.33003 0.0
C375 C 0.37781 0.43427 0.29176 0.0
C376 C 0.2366 0.34101 0.2924 0.0
O377 O 0.1848 0.4145 0.35174 0.0
O378 O 0.24886 0.43717 0.33596 0.0
O379 O 0.26889 0.3628 0.30099 0.0
O380 O 0.20729 0.33862 0.31922 0.0
O381 O 0.30426 0.33734 0.36919 0.0
H382 H 0.31676 0.4151 0.26839 0.0
H383 H 0.36591 0.41587 0.38845 0.0
O384 O 0.24263 0.31352 0.39072 0.0
O385 O 0.22293 0.38585 0.42923 0.0
O386 O 0.28497 0.4097 0.40717 0.0
C387 C 0.25949 0.40238 0.43717 0.0
H388 H 0.10984 0.24285 0.37972 0.0
H389 H 0.39429 0.44529 0.2642 0.0
Co390 Co 0.91875 0.96019 0.14981 0.0
C391 C 0.96866 0.032 0.15449 0.0
Co392 Co 0.88637 0.01805 0.12795 0.0
C393 C 0.95244 0.87171 0.15113 0.0
C394 C 0.96966 0.90812 0.20381 0.0
N395 N 0.94681 0.91033 0.16882 0.0
N396 N 0.97795 0.84593 0.17379 0.0
C397 C 0.98871 0.86906 0.20685 0.0
H398 H 0.93869 0.86283 0.12194 0.0
H399 H 0.97293 0.93372 0.22552 0.0
C400 C 0.83786 0.94498 0.11676 0.0
N401 N 0.85929 0.06494 0.10676 0.0
C402 C 0.86468 0.10606 0.11602 0.0
C403 C 0.82702 0.0644 0.07959 0.0
N404 N 0.83584 0.1307 0.09709 0.0
C405 C 0.81208 0.10459 0.07426 0.0
C406 C 0.93315 0.97893 0.06646 0.0
O407 O 0.86944 0.92711 0.13393 0.0
O408 O 0.83783 0.985 0.11524 0.0
O409 O 0.90788 1.00833 0.07541 0.0
O410 O 0.94242 0.95243 0.09497 0.0
O411 O 0.93643 0.05036 0.13935 0.0
H412 H 0.81435 0.03654 0.06493 0.0
H413 H 0.88797 0.11758 0.13757 0.0
O414 O 0.96709 0.9927 0.16275 0.0
O415 O 0.89566 0.97281 0.20633 0.0
O416 O 0.86497 0.02985 0.18177 0.0
C417 C 0.87527 1.0074 0.21287 0.0
H418 H 1.00895 0.8583 0.23161 0.0
H419 H 0.7854 0.11398 0.05555 0.0
Co420 Co 0.31106 0.65889 0.87753 0.0
C421 C 0.23965 0.71393 0.88479 0.0
Co422 Co 0.24896 0.63551 0.85481 0.0
C423 C 0.40234 0.69061 0.88899 0.0
C424 C 0.35604 0.71271 0.93195 0.0
N425 N 0.36061 0.68594 0.89997 0.0
N426 N 0.42292 0.72014 0.91231 0.0
C427 C 0.39293 0.7342 0.93852 0.0
H428 H 0.4171 0.67322 0.86413 0.0
H429 H 0.32718 0.71728 0.94945 0.0
C430 C 0.31989 0.58182 0.83739 0.0
N431 N 0.19999 0.61125 0.83368 0.0
C432 C 0.15989 0.61514 0.84787 0.0
C433 C 0.19769 0.58062 0.80494 0.0
N434 N 0.13344 0.58711 0.83017 0.0
C435 C 0.1571 0.56558 0.80297 0.0
C436 C 0.29277 0.68478 0.7976 0.0
O437 O 0.34285 0.60932 0.85598 0.0
O438 O 0.27992 0.58625 0.83899 0.0
O439 O 0.26082 0.66093 0.80389 0.0
O440 O 0.32057 0.68719 0.82582 0.0
O441 O 0.21907 0.68464 0.8677 0.0
H442 H 0.22403 0.56765 0.78831 0.0
H443 H 0.1508 0.63569 0.87292 0.0
O444 O 0.27803 0.70734 0.89439 0.0
O445 O 0.29805 0.6313 0.93166 0.0
O446 O 0.23584 0.61226 0.90814 0.0
C447 C 0.26116 0.61528 0.93834 0.0
H448 H 0.39761 0.75817 0.96176 0.0
H449 H 0.14611 0.53937 0.78453 0.0
Co450 Co 0.6044 0.05607 0.66133 0.0
C451 C 0.55554 0.98815 0.69259 0.0
Co452 Co 0.63131 0.99196 0.64912 0.0
C453 C 0.56979 0.14527 0.65075 0.0
C454 C 0.5622 0.1176 0.71086 0.0
N455 N 0.57882 0.10963 0.67316 0.0
N456 N 0.548 0.17442 0.67328 0.0
C457 C 0.54332 0.15665 0.71095 0.0
H458 H 0.57882 0.14974 0.61867 0.0
H459 H 0.56357 0.09617 0.737 0.0
C460 C 0.67868 0.0588 0.61168 0.0
N461 N 0.65594 0.93889 0.63955 0.0
C462 C 0.64521 0.90738 0.61338 0.0
C463 C 0.69103 0.92447 0.65868 0.0
N464 N 0.67193 0.87417 0.6163 0.0
C465 C 0.70059 0.88491 0.64476 0.0
C466 C 0.57412 0.01757 0.59043 0.0
O467 O 0.65107 0.08257 0.62921 0.0
O468 O 0.67763 0.01918 0.61983 0.0
O469 O 0.6006 0.98888 0.59948 0.0
O470 O 0.57248 0.05123 0.61189 0.0
O471 O 0.58484 0.96574 0.67692 0.0
H472 H 0.70963 0.9418 0.68076 0.0
H473 H 0.61903 0.90894 0.59208 0.0
O474 O 0.55871 0.02823 0.68958 0.0
O475 O 0.63559 0.05769 0.71395 0.0
O476 O 0.65961 0.99457 0.70013 0.0
C477 C 0.6555 0.02448 0.72542 0.0
H478 H 0.52782 0.17136 0.73705 0.0
H479 H 0.72751 0.86589 0.6537 0.0
C480 C 0.24019 0.23236 0.2521 0.0
C481 C 0.27713 0.23484 0.22674 0.0
C482 C 0.27606 0.31184 0.23223 0.0
C483 C 0.24025 0.30924 0.25865 0.0
N484 N 0.17784 0.269 0.27626 0.0
N485 N 0.3389 0.27635 0.20847 0.0
C486 C 0.21904 0.27003 0.26339 0.0
C487 C 0.29759 0.27448 0.22101 0.0
N488 N 0.22711 0.19424 0.2679 0.0
N489 N 0.28836 0.35015 0.21659 0.0
H490 H 0.35759 0.24933 0.20615 0.0
H491 H 0.35609 0.30455 0.20686 0.0
H492 H 0.27026 0.3771 0.2216 0.0
H493 H 0.31244 0.35382 0.19463 0.0
H494 H 0.20233 0.19117 0.28919 0.0
H495 H 0.24482 0.16672 0.26421 0.0
H496 H 0.15979 0.24131 0.27737 0.0
H497 H 0.16031 0.29662 0.28004 0.0
C498 C 0.47159 0.55152 0.50416 0.0
C499 C 0.4727 0.51138 0.52467 0.0
C500 C 0.54945 0.5106 0.51697 0.0
C501 C 0.54868 0.54811 0.49295 0.0
N502 N 0.51148 0.6125 0.47809 0.0
N503 N 0.51163 0.44597 0.53058 0.0
C504 C 0.51034 0.57118 0.49068 0.0
C505 C 0.51133 0.48885 0.52534 0.0
N506 N 0.43343 0.56909 0.49477 0.0
N507 N 0.58681 0.49587 0.53207 0.0
H508 H 0.48389 0.42792 0.53035 0.0
H509 H 0.53935 0.42824 0.52888 0.0
H510 H 0.61487 0.51323 0.52869 0.0
H511 H 0.58846 0.4697 0.55187 0.0
H512 H 0.43003 0.59691 0.4777 0.0
H513 H 0.40498 0.55275 0.4993 0.0
H514 H 0.48528 0.63232 0.47835 0.0
H515 H 0.53999 0.62845 0.47266 0.0
C516 C 0.30634 0.79271 0.74938 0.0
C517 C 0.26515 0.79783 0.73261 0.0
C518 C 0.25082 0.72295 0.74435 0.0
C519 C 0.29018 0.7179 0.76424 0.0
N520 N 0.36126 0.74391 0.77143 0.0
N521 N 0.19334 0.7713 0.73492 0.0
C522 C 0.31985 0.75172 0.7626 0.0
C523 C 0.23582 0.76402 0.73623 0.0
N524 N 0.33093 0.82759 0.75592 0.0
N525 N 0.22827 0.68853 0.73183 0.0
H526 H 0.18089 0.80182 0.73523 0.0
H527 H 0.17096 0.74735 0.73981 0.0
H528 H 0.2407 0.65802 0.73326 0.0
H529 H 0.2004 0.69124 0.71497 0.0
H530 H 0.36002 0.82672 0.77073 0.0
H531 H 0.31941 0.85815 0.75148 0.0
H532 H 0.38535 0.76627 0.76793 0.0
H533 H 0.37218 0.7133 0.77713 0.0
C534 C 0.0156 0.45687 0.97756 0.0
C535 C 0.97184 0.46076 0.98768 0.0
C536 C 0.991 0.4863 0.05637 0.0
C537 C 0.0339 0.49084 0.0431 0.0
N538 N 0.0872 0.48143 0.99038 0.0
N539 N 0.91757 0.4745 0.03807 0.0
C540 C 0.04635 0.47583 1.00368 0.0
C541 C 0.95962 0.47367 0.02775 0.0
N542 N 0.02797 0.43498 0.94335 0.0
N543 N 0.9804 0.49213 0.09683 0.0
H544 H 0.89437 0.4611 0.01941 0.0
H545 H 0.90556 0.48955 0.0641 0.0
H546 H 1.00199 0.50141 0.11888 0.0
H547 H 0.95108 0.48414 0.10939 0.0
H548 H 0.05941 0.42827 0.93632 0.0
H549 H 1.00708 0.41857 0.92468 0.0
H550 H 0.09744 0.47512 0.96044 0.0
H551 H 0.1103 0.49616 1.00812 0.0
C552 C 0.76779 0.75694 0.79412 0.0
C553 C 0.73401 0.78712 0.79383 0.0
C554 C 0.71482 0.76273 0.72478 0.0
C555 C 0.74687 0.73138 0.72722 0.0
N556 N 0.79005 0.68823 0.77097 0.0
N557 N 0.6717 0.81461 0.76062 0.0
C558 C 0.76899 0.72521 0.764 0.0
C559 C 0.70597 0.78839 0.75986 0.0
N560 N 0.80002 0.75875 0.82181 0.0
N561 N 0.69388 0.76886 0.6886 0.0
H562 H 0.66573 0.83555 0.78466 0.0
H563 H 0.64776 0.81384 0.73873 0.0
H564 H 0.69863 0.74954 0.66318 0.0
H565 H 0.67382 0.79427 0.68314 0.0
H566 H 0.82697 0.73994 0.81949 0.0
H567 H 0.8024 0.781 0.8447 0.0
H568 H 0.80345 0.68051 0.7994 0.0
H569 H 0.78919 0.66324 0.75015 0.0
C570 C 0.7335 0.266 0.25258 0.0
C571 C 0.75901 0.30295 0.24983 0.0
C572 C 0.81415 0.266 0.28965 0.0
C573 C 0.78859 0.22893 0.29108 0.0
N574 N 0.73441 0.18988 0.25556 0.0
N575 N 0.81659 0.3421 0.27968 0.0
C576 C 0.75142 0.22775 0.26692 0.0
C577 C 0.79754 0.30412 0.27229 0.0
N578 N 0.69122 0.26786 0.24454 0.0
N579 N 0.85538 0.26394 0.30172 0.0
H580 H 0.80245 0.3707 0.27165 0.0
H581 H 0.84277 0.34556 0.2987 0.0
H582 H 0.86978 0.23532 0.30934 0.0
H583 H 0.87669 0.28898 0.29827 0.0
H584 H 0.671 0.24196 0.2487 0.0
H585 H 0.67557 0.29652 0.24012 0.0
H586 H 0.70892 0.18761 0.23542 0.0
H587 H 0.7497 0.16124 0.26137 0.0
C588 C 0.98949 0.95306 0.01571 0.0
C589 C 0.95813 0.98276 0.02672 0.0
C590 C 0.99418 0.03712 0.98486 0.0
C591 C 0.02627 1.00806 0.97343 0.0
N592 N 0.03947 0.93246 0.96347 0.0
N593 N 0.91956 0.04281 0.99952 0.0
C594 C 0.02001 0.96419 0.98475 0.0
C595 C 0.95669 0.02147 1.00399 0.0
N596 N 0.98897 0.91339 0.03274 0.0
N597 N 0.99957 0.07974 0.97974 0.0
H598 H 0.89053 0.02954 1.00833 0.0
H599 H 0.91718 0.07013 0.98134 0.0
H600 H 0.02818 0.0936 0.97073 0.0
H601 H 0.9773 0.10148 0.99028 0.0
H602 H 0.01484 0.89307 0.03113 0.0
H603 H 0.96255 0.9008 0.04803 0.0
H604 H 0.03328 0.90047 0.96891 0.0
H605 H 0.05623 0.93704 0.93618 0.0
C606 C 0.48653 0.96835 0.52489 0.0
C607 C 0.4766 1.00332 0.49893 0.0
C608 C 0.53632 0.04317 0.52785 0.0
C609 C 0.54285 1.01062 0.55715 0.0
N610 N 0.51979 0.94404 0.58784 0.0
N611 N 0.4876 0.07814 0.48272 0.0
C612 C 0.51702 0.97344 0.55671 0.0
C613 C 0.49994 0.04199 0.50259 0.0
N614 N 0.46626 0.93047 0.51971 0.0
N615 N 0.56603 0.07445 0.52271 0.0
H616 H 0.50083 0.10767 0.48886 0.0
H617 H 0.46171 0.08035 0.46345 0.0
H618 H 0.59403 0.0755 0.53957 0.0
H619 H 0.56533 0.09641 0.49854 0.0
H620 H 0.47606 0.90235 0.53359 0.0
H621 H 0.44062 0.92661 0.49999 0.0
H622 H 0.49959 0.91811 0.59105 0.0
H623 H 0.54008 0.94692 0.61273 0.0
C624 C 0.22761 0.11614 0.9514 0.0
C625 C 0.1983 0.08236 0.95745 0.0
C626 C 0.23377 0.06478 0.0227 0.0
C627 C 0.2574 0.10282 0.02132 0.0
N628 N 0.27522 0.1668 0.98298 0.0
N629 N 0.16608 0.03468 1.00727 0.0
C630 C 0.25427 0.12903 0.98506 0.0
C631 C 0.19956 0.05931 0.99535 0.0
N632 N 0.2307 0.13532 0.91356 0.0
N633 N 0.24314 0.03423 0.05124 0.0
H634 H 0.13775 0.03498 0.99123 0.0
H635 H 0.16452 0.01895 0.03569 0.0
H636 H 0.26883 0.03707 0.07115 0.0
H637 H 0.22844 1.0046 0.05167 0.0
H638 H 0.25435 0.15714 0.90585 0.0
H639 H 0.2114 0.12692 0.88893 0.0
H640 H 0.2697 0.18947 0.96011 0.0
H641 H 0.29697 0.17625 1.00494 0.0
C642 C 0.71251 0.50197 0.27409 0.0
C643 C 0.66932 0.51081 0.27949 0.0
C644 C 0.65527 0.47763 0.21196 0.0
C645 C 0.69712 0.46097 0.21084 0.0
N646 N 0.76305 0.45206 0.24955 0.0
N647 N 0.59807 0.50579 0.25418 0.0
C648 C 0.72537 0.47225 0.24384 0.0
C649 C 0.64025 0.49861 0.24839 0.0
N650 N 0.7415 0.52135 0.29878 0.0
N651 N 0.63026 0.47478 0.1779 0.0
H652 H 0.58631 0.52245 0.27941 0.0
H653 H 0.57476 0.49306 0.23534 0.0
H654 H 0.64085 0.46184 0.15019 0.0
H655 H 0.60089 0.4894 0.17567 0.0
H656 H 0.77404 0.51962 0.29353 0.0
H657 H 0.73276 0.54294 0.32151 0.0
H658 H 0.78171 0.45637 0.2756 0.0
H659 H 0.77372 0.42699 0.23225 0.0
C660 C 0.25195 0.94775 0.49302 0.0
C661 C 0.2575 0.90804 0.5126 0.0
C662 C 0.31469 0.89182 0.4619 0.0
C663 C 0.31112 0.93307 0.44411 0.0
N664 N 0.26156 0.98939 0.4303 0.0
N665 N 0.28305 0.83736 0.50575 0.0
C666 C 0.27494 0.95757 0.45576 0.0
C667 C 0.28546 0.87861 0.4937 0.0
N668 N 0.22562 0.97667 0.51057 0.0
N669 N 0.34598 0.86514 0.44933 0.0
H670 H 0.25982 0.82766 0.52658 0.0
H671 H 0.29964 0.81286 0.49181 0.0
H672 H 0.36268 0.86904 0.42177 0.0
H673 H 0.35491 0.83843 0.46617 0.0
H674 H 0.2239 1.00801 0.50042 0.0
H675 H 0.20718 0.96948 0.53665 0.0
H676 H 0.23399 1.00651 0.4357 0.0
H677 H 0.27507 0.9947 0.40116 0.0
C678 C 0.82661 0.54024 0.70977 0.0
C679 C 0.83797 0.58391 0.70535 0.0
C680 C 0.87622 0.57767 0.77163 0.0
C681 C 0.85901 0.53632 0.77932 0.0
N682 N 0.81406 0.47995 0.75582 0.0
N683 N 0.87049 0.64528 0.73666 0.0
C684 C 0.83349 0.51794 0.74817 0.0
C685 C 0.86235 0.60272 0.73726 0.0
N686 N 0.81031 0.51956 0.67659 0.0
N687 N 0.90725 0.59306 0.7965 0.0
H688 H 0.86123 0.66581 0.71325 0.0
H689 H 0.8827 0.66143 0.76185 0.0
H690 H 0.91858 0.5766 0.82184 0.0
H691 H 0.92515 0.61996 0.78937 0.0
H692 H 0.80486 0.48704 0.6762 0.0
H693 H 0.80668 0.53422 0.64782 0.0
H694 H 0.7913 0.46701 0.73651 0.0
H695 H 0.81803 0.463 0.78329 0.0
C696 C 0.82573 0.88915 0.0633 0.0
C697 C 0.80857 0.92166 0.08767 0.0
C698 C 0.75069 0.92806 0.03622 0.0
C699 C 0.774 0.90262 1.00787 0.0
N700 N 0.84104 0.86662 0.99462 0.0
N701 N 0.75059 0.96894 0.09997 0.0
C702 C 0.81361 0.88557 0.02136 0.0
C703 C 0.76945 0.93988 0.07499 0.0
N704 N 0.85263 0.86029 0.0803 0.0
N705 N 0.71132 0.94201 0.02577 0.0
H706 H 0.76113 0.97444 0.12994 0.0
H707 H 0.72533 0.98785 0.09102 0.0
H708 H 0.69818 0.93713 0.99678 0.0
H709 H 0.69084 0.95682 0.04634 0.0
H710 H 0.86411 0.83438 0.06401 0.0
H711 H 0.85769 0.85834 0.11204 0.0
H712 H 0.87218 0.85966 1.00266 0.0
H713 H 0.83403 0.85884 0.96445 0.0
C714 C 0.3135 0.54586 0.76845 0.0
C715 C 0.3367 0.55038 0.80564 0.0
C716 C 0.38533 0.49589 0.77753 0.0
C717 C 0.35798 0.48981 0.74296 0.0
N718 N 0.28684 0.497 0.7184 0.0
N719 N 0.39286 0.52295 0.84788 0.0
C720 C 0.31821 0.50944 0.74433 0.0
C721 C 0.37214 0.52312 0.81114 0.0
N722 N 0.29219 0.57919 0.7521 0.0
N723 N 0.42392 0.47692 0.77791 0.0
H724 H 0.38383 0.54239 0.87224 0.0
H725 H 0.41668 0.50148 0.85501 0.0
H726 H 0.43311 0.45535 0.75543 0.0
H727 H 0.44704 0.4837 0.79966 0.0
H728 H 0.27728 0.57797 0.72346 0.0
H729 H 0.29564 0.60921 0.76408 0.0
H730 H 0.25691 0.51086 0.71899 0.0
H731 H 0.29023 0.47063 0.69942 0.0
C732 C 0.75173 0.13186 0.54396 0.0
C733 C 0.75967 0.10589 0.50891 0.0
C734 C 0.71321 0.05118 0.54012 0.0
C735 C 0.70789 0.07521 0.57707 0.0
N736 N 0.73101 0.13528 0.61651 0.0
N737 N 0.75739 0.03597 0.48052 0.0
C738 C 0.72991 0.11462 0.5797 0.0
C739 C 0.74372 0.06391 0.50962 0.0
N740 N 0.76285 0.17362 0.54253 0.0
N741 N 0.68664 0.01816 0.53184 0.0
H742 H 0.78006 0.04414 0.45814 0.0
H743 H 0.74985 1.00382 0.48158 0.0
H744 H 0.66066 1.01015 0.55021 0.0
H745 H 0.68679 1.00239 0.5037 0.0
H746 H 0.75347 0.19523 0.56489 0.0
H747 H 0.77881 0.18733 0.51746 0.0
H748 H 0.7497 0.16199 0.6214 0.0
H749 H 0.71666 0.12324 0.64329 0.0
C750 C 0.15602 0.50108 0.31184 0.0
C751 C 0.19327 0.47679 0.30493 0.0
C752 C 0.20905 0.52269 0.24476 0.0
C753 C 0.16752 0.53801 0.2445 0.0
N754 N 0.10198 0.54662 0.28159 0.0
N755 N 0.24576 0.45776 0.25345 0.0
C756 C 0.14123 0.52914 0.2796 0.0
C757 C 0.21797 0.48644 0.26882 0.0
N758 N 0.13532 0.49798 0.34889 0.0
N759 N 0.23821 0.53916 0.21774 0.0
H760 H 0.2457 0.42679 0.26417 0.0
H761 H 0.26243 0.4623 0.2258 0.0
H762 H 0.23098 0.5648 0.19846 0.0
H763 H 0.26984 0.52982 0.21772 0.0
H764 H 0.10995 0.51717 0.35704 0.0
H765 H 0.14601 0.47866 0.37288 0.0
H766 H 0.07928 0.53798 0.30363 0.0
H767 H 0.09223 0.56956 0.26041 0.0
C768 C 0.77195 0.57014 0.50393 0.0
C769 C 0.77778 0.61338 0.51328 0.0
C770 C 0.73853 0.63278 0.45013 0.0
C771 C 0.72865 0.58936 0.44369 0.0
N772 N 0.76001 0.51978 0.4495 0.0
N773 N 0.78417 0.6835 0.48425 0.0
C774 C 0.75296 0.5588 0.46586 0.0
C775 C 0.7666 0.64411 0.48289 0.0
N776 N 0.78418 0.53977 0.53153 0.0
N777 N 0.7219 0.6632 0.425 0.0
H778 H 0.8069 0.69159 0.5059 0.0
H779 H 0.78038 0.70617 0.46103 0.0
H780 H 0.70832 0.65633 0.39663 0.0
H781 H 0.72236 0.69528 0.43214 0.0
H782 H 0.77627 0.5079 0.52832 0.0
H783 H 0.80064 0.54703 0.55841 0.0
H784 H 0.7794 0.49731 0.46347 0.0
H785 H 0.75179 0.51251 0.41921 0.0
C786 C 0.2149 0.99571 0.77303 0.0
C787 C 0.17333 0.01195 0.77346 0.0
C788 C 0.16502 0.98598 0.70183 0.0
C789 C 0.20336 0.9626 0.7049 0.0
N790 N 0.25955 0.93896 0.75058 0.0
N791 N 0.10673 0.01952 0.73828 0.0
C792 C 0.2273 0.96628 0.74216 0.0
C793 C 0.14792 1.00675 0.73762 0.0
N794 N 0.24243 1.00762 0.80313 0.0
N795 N 0.14528 0.98922 0.66459 0.0
H796 H 0.0934 0.03572 0.76301 0.0
H797 H 0.08519 0.01178 0.71533 0.0
H798 H 0.15749 0.97574 0.63775 0.0
H799 H 0.11941 1.00885 0.6595 0.0
H800 H 0.27447 0.99989 0.80247 0.0
H801 H 0.23405 0.02913 0.82606 0.0
H802 H 0.27484 0.93786 0.77898 0.0
H803 H 0.26743 0.9136 0.73203 0.0
C804 C 0.74415 0.43636 0.99787 0.0
C805 C 0.76154 0.40233 0.02118 0.0
C806 C 0.80771 0.38661 0.96097 0.0
C807 C 0.79895 0.42625 0.94283 0.0
N808 N 0.75239 0.48621 0.94009 0.0
N809 N 0.81809 0.35055 0.02518 0.0
C810 C 0.76474 0.45011 0.95997 0.0
C811 C 0.79527 0.37874 1.00262 0.0
N812 N 0.70879 0.45609 0.01243 0.0
N813 N 0.8279 0.35613 0.93879 0.0
H814 H 0.81205 0.34446 0.05599 0.0
H815 H 0.84563 0.33636 0.01409 0.0
H816 H 0.83361 0.35922 0.90715 0.0
H817 H 0.83273 0.32562 0.95034 0.0
H818 H 0.69237 0.47909 0.99595 0.0
H819 H 0.6941 0.44715 0.04018 0.0
H820 H 0.73167 0.5082 0.95267 0.0
H821 H 0.76362 0.49417 0.91059 0.0
C822 C 0.3707 0.09573 0.23294 0.0
C823 C 0.3486 0.07393 0.20154 0.0
C824 C 0.34938 1.0092 0.24641 0.0
C825 C 0.37342 0.03084 0.2767 0.0
N826 N 0.41738 0.0918 0.29058 0.0
N827 N 0.32298 1.00754 0.17568 0.0
C828 C 0.38711 0.07306 0.2673 0.0
C829 C 0.33994 0.02982 0.20751 0.0
N830 N 0.37398 0.1389 0.23215 0.0
N831 N 0.33378 0.96982 0.25546 0.0
H832 H 0.31633 0.02159 0.14716 0.0
H833 H 0.3191 0.97481 0.17614 0.0
H834 H 0.3403 0.9541 0.28314 0.0
H835 H 0.31223 0.95396 0.23695 0.0
H836 H 0.38322 0.15644 0.2577 0.0
H837 H 0.3645 0.15794 0.20776 0.0
H838 H 0.43256 0.12006 0.28238 0.0
H839 H 0.4309 0.07653 0.31523 0.0
C840 C 0.27539 0.44083 0.55019 0.0
C841 C 0.31479 0.4214 0.56038 0.0
C842 C 0.3148 0.3864 0.4931 0.0
C843 C 0.27631 0.40713 0.48111 0.0
N844 N 0.21674 0.44936 0.50193 0.0
N845 N 0.35673 0.35915 0.54957 0.0
C846 C 0.25531 0.4325 0.5111 0.0
C847 C 0.32972 0.38903 0.53443 0.0
N848 N 0.25716 0.46704 0.57842 0.0
N849 N 0.33847 0.36459 0.46514 0.0
H850 H 0.36421 0.35687 0.58077 0.0
H851 H 0.36596 0.3327 0.53279 0.0
H852 H 0.32892 0.35843 0.4354 0.0
H853 H 0.36926 0.35461 0.47106 0.0
H854 H 0.23155 0.48663 0.57245 0.0
H855 H 0.26796 0.46854 0.60876 0.0
H856 H 0.19779 0.46541 0.52293 0.0
H857 H 0.20257 0.44598 0.47318 0.0
C858 C 0.88685 0.06642 0.26555 0.0
C859 C 0.86896 0.02595 0.25593 0.0
C860 C 0.83323 0.02679 0.32466 0.0
C861 C 0.85128 0.06725 0.33353 0.0
N862 N 0.91055 0.11365 0.31902 0.0
N863 N 0.83045 0.96462 0.28028 0.0
C864 C 0.88286 0.08328 0.30616 0.0
C865 C 0.84418 1.005 0.28699 0.0
N866 N 0.90715 0.09002 0.23587 0.0
N867 N 0.80533 1.0093 0.35243 0.0
H868 H 0.83596 0.94887 0.25262 0.0
H869 H 0.81572 0.94578 0.30271 0.0
H870 H 0.80077 0.02191 0.38181 0.0
H871 H 0.78648 0.98303 0.34643 0.0
H872 H 0.91484 0.12185 0.23978 0.0
H873 H 0.91418 0.07912 0.20655 0.0
H874 H 0.93628 0.12396 0.30119 0.0
H875 H 0.91228 0.12355 0.3495 0.0
C876 C 0.23356 0.56533 0.04514 0.0
C877 C 0.19354 0.58505 0.05329 0.0
C878 C 0.21032 0.634 0.99584 0.0
C879 C 0.24351 0.60772 0.9815 0.0
N880 N 0.28626 0.54622 0.99325 0.0
N881 N 0.14146 0.63541 0.02796 0.0
C882 C 0.25514 0.57273 1.00645 0.0
C883 C 0.18132 0.61891 0.02659 0.0
N884 N 0.25213 0.54125 0.07507 0.0
N885 N 0.20749 0.67444 0.98144 0.0
H886 H 0.11724 0.62384 0.04685 0.0
H887 H 0.1311 0.65768 1.00635 0.0
H888 H 0.23052 0.68734 0.96185 0.0
H889 H 0.18614 0.69619 0.99363 0.0
H890 H 0.28231 0.52848 0.07184 0.0
H891 H 0.23987 0.53903 0.10502 0.0
H892 H 0.2931 0.51769 1.00812 0.0
H893 H 0.30324 0.5517 0.96591 0.0
C894 C 0.63536 0.99748 0.79678 0.0
C895 C 0.66681 0.01505 0.76965 0.0
C896 C 0.72124 0.99195 0.8186 0.0
C897 C 0.69125 0.96523 0.83951 0.0
N898 N 0.61833 0.95917 0.86069 0.0
N899 N 0.7401 0.03002 0.75556 0.0
C900 C 0.64762 0.97283 0.83225 0.0
C901 C 0.70983 0.01303 0.78116 0.0
N902 N 0.59373 1.00343 0.78766 0.0
N903 N 0.75969 0.99956 0.83606 0.0
H904 H 0.73253 0.04756 0.72916 0.0
H905 H 0.77237 0.02488 0.75951 0.0
H906 H 0.7668 0.98945 0.86598 0.0
H907 H 0.78178 0.02084 0.8237 0.0
H908 H 0.56867 0.98742 0.80188 0.0
H909 H 0.58436 0.02518 0.76529 0.0
H910 H 0.58595 0.96416 0.85843 0.0
H911 H 0.62689 0.94709 0.88946 0.0
C912 C 0.50298 0.23781 0.07677 0.0
C913 C 0.46918 0.2503 0.10314 0.0
C914 C 0.51951 0.29579 0.14108 0.0
C915 C 0.55261 0.28509 0.1131 0.0
N916 N 0.57414 0.25167 0.05033 0.0
N917 N 0.44374 0.29694 0.15589 0.0
C918 C 0.54354 0.25794 0.07963 0.0
C919 C 0.47708 0.28096 0.1341 0.0
N920 N 0.49665 0.20515 0.05016 0.0
N921 N 0.52908 0.31888 0.17518 0.0
H922 H 0.41268 0.28699 0.15107 0.0
H923 H 0.44639 0.32214 0.17621 0.0
H924 H 0.55943 0.33078 0.1803 0.0
H925 H 0.50781 0.32408 0.19932 0.0
H926 H 0.52069 0.19157 0.03264 0.0
H927 H 0.4679 0.18893 0.04851 0.0
H928 H 0.56903 0.23541 0.02299 0.0
H929 H 0.60378 0.26629 0.05182 0.0
C930 C 0.50854 0.74077 0.38598 0.0
C931 C 0.54026 0.73152 0.35591 0.0
C932 C 0.5296 0.80246 0.32535 0.0
C933 C 0.50207 0.81378 0.3582 0.0
N934 N 0.46978 0.79504 0.42338 0.0
N935 N 0.58679 0.75742 0.30216 0.0
C936 C 0.49258 0.78318 0.3895 0.0
C937 C 0.55224 0.76353 0.32696 0.0
N938 N 0.49248 0.70883 0.41011 0.0
N939 N 0.53384 0.82926 0.29225 0.0
H940 H 0.60546 0.73035 0.30426 0.0
H941 H 0.59957 0.7809 0.28294 0.0
H942 H 0.51692 0.85749 0.2901 0.0
H943 H 0.55045 0.82152 0.26546 0.0
H944 H 0.46663 0.71257 0.42989 0.0
H945 H 0.50277 0.67765 0.40765 0.0
H946 H 0.46558 0.77572 0.44936 0.0
H947 H 0.4575 0.82541 0.42654 0.0
C948 C 0.99365 0.75063 0.58351 0.0
C949 C 0.96275 0.76245 0.61335 0.0
C950 C 0.01759 0.80485 0.6487 0.0
C951 C 0.04764 0.7951 0.6173 0.0
N952 N 0.06277 0.76374 0.55183 0.0
N953 N 0.94368 0.80556 0.67116 0.0
C954 C 0.03494 0.76957 0.58373 0.0
C955 C 0.97435 0.79092 0.64513 0.0
N956 N 0.98373 0.71991 0.55579 0.0
N957 N 0.03092 0.82624 0.68266 0.0
H958 H 0.91228 0.79541 0.66948 0.0
H959 H 0.94869 0.82948 0.69249 0.0
H960 H 0.06184 0.83762 0.68525 0.0
H961 H 0.01227 0.83069 0.70891 0.0
H962 H 1.00547 0.70675 0.53535 0.0
H963 H 0.95431 0.70475 0.55585 0.0
H964 H 0.05498 0.74869 0.52445 0.0
H965 H 0.0929 0.77743 0.55147 0.0
C966 C 0.99372 0.2767 0.80935 0.0
C967 C 0.98494 0.3002 0.8456 0.0
C968 C 1.01104 0.23839 0.88598 0.0
C969 C 0.02538 0.21835 0.84914 0.0
N970 N 0.04284 0.22879 0.77712 0.0
N971 N 0.99653 0.30556 0.91917 0.0
C972 C 0.02075 0.24097 0.81134 0.0
C973 C 0.99673 0.28171 0.88432 0.0
N974 N 0.97468 0.28709 0.773 0.0
N975 N 1.00933 0.21609 0.92219 0.0
H976 H 0.98964 0.33774 0.91884 0.0
H977 H 1.00803 0.29445 0.94733 0.0
H978 H 0.01789 0.18437 0.92432 0.0
H979 H 0.99559 0.22811 0.94899 0.0
H980 H 0.97818 0.26898 0.74642 0.0
H981 H 0.95124 0.31015 0.7711 0.0
H982 H 0.0424 0.24602 0.74947 0.0
H983 H 0.06539 0.20478 0.77822 0.0
C984 C 0.5339 0.76164 0.88227 0.0
C985 C 0.54808 0.77603 0.92159 0.0
C986 C 0.48579 0.74137 0.95279 0.0
C987 C 0.46729 0.73409 0.91367 0.0
N988 N 0.47238 0.74684 0.84001 0.0
N989 N 0.5266 0.79135 0.99163 0.0
C990 C 0.49092 0.74688 0.87786 0.0
C991 C 0.52063 0.76947 0.95602 0.0
N992 N 0.56137 0.7598 0.84968 0.0
N993 N 0.47076 0.72069 0.98707 0.0
H994 H 0.54903 0.81555 0.99385 0.0
H995 H 0.50562 0.78914 0.01663 0.0
H996 H 0.4477 0.69703 0.98536 0.0
H997 H 0.48506 0.72342 0.01587 0.0
H998 H 0.55313 0.74653 0.82148 0.0
H999 H 0.59346 0.76676 0.85231 0.0
H1000 H 0.48729 0.75924 0.81369 0.0
H1001 H 0.44077 0.73864 0.8358 0.0
C1002 C 0.48633 0.26704 0.62715 0.0
C1003 C 0.50025 0.30056 0.65278 0.0
C1004 C 0.55093 0.25177 0.68548 0.0
C1005 C 0.53453 0.2173 0.66272 0.0
N1006 N 0.48201 0.19094 0.61612 0.0
N1007 N 0.53986 0.32262 0.71175 0.0
C1008 C 0.50093 0.22463 0.63459 0.0
C1009 C 0.53081 0.29207 0.68359 0.0
N1010 N 0.46037 0.27601 0.5948 0.0
N1011 N 0.58687 0.24615 0.70795 0.0
H1012 H 0.52467 0.35188 0.71169 0.0
H1013 H 0.55895 0.3175 0.73738 0.0
H1014 H 0.60313 0.21749 0.70855 0.0
H1015 H 0.60287 0.27077 0.72233 0.0
H1016 H 0.45245 0.25409 0.57229 0.0
H1017 H 0.44905 0.30643 0.589 0.0
H1018 H 0.45467 0.19344 0.59852 0.0
H1019 H 0.49205 0.15991 0.62093 0.0
C1020 C 0.01721 0.30669 0.38299 0.0
C1021 C 0.05063 0.29788 0.41084 0.0
C1022 C 1.00415 0.24701 0.44777 0.0
C1023 C 0.96987 0.25739 0.42147 0.0
N1024 N 0.94159 0.30347 0.36912 0.0
N1025 N 0.07333 0.26632 0.47431 0.0
C1026 C 0.97578 0.28914 0.39048 0.0
C1027 C 0.04289 0.27036 0.44489 0.0
N1028 N 0.02562 0.33045 0.34848 0.0
N1029 N 1.00036 0.21313 0.47406 0.0
H1030 H 0.10177 0.28324 0.47257 0.0
H1031 H 0.06884 0.2497 0.50194 0.0
H1032 H 0.97332 0.1941 0.47529 0.0
H1033 H 0.0253 0.2013 0.49146 0.0
H1034 H 1.00424 0.33434 0.32444 0.0
H1035 H 0.05517 0.34439 0.34305 0.0
H1036 H 0.94284 0.32916 0.34877 0.0
H1037 H 0.9111 0.29171 0.37441 0.0
C1038 C 0.03046 0.74868 0.12671 0.0
C1039 C 0.02104 0.71747 0.15735 0.0
C1040 C 0.97878 0.77011 0.19533 0.0
C1041 C 0.99067 0.80222 0.16646 0.0
N1042 N 0.03344 0.82355 0.10806 0.0
N1043 N 0.99263 0.70031 0.22435 0.0
C1044 C 0.01808 0.79187 0.13299 0.0
C1045 C 0.99715 0.72894 0.19277 0.0
N1046 N 0.04991 0.73666 0.09094 0.0
N1047 N 0.94833 0.77857 0.22423 0.0
H1048 H 1.0063 0.67032 0.22334 0.0
H1049 H 0.979 0.70752 0.25281 0.0
H1050 H 0.93317 0.80778 0.22576 0.0
H1051 H 0.93517 0.75569 0.24386 0.0
H1052 H 0.05379 0.75657 0.06537 0.0
H1053 H 0.05976 0.70564 0.08598 0.0
H1054 H 0.05664 0.81901 0.08553 0.0
H1055 H 0.02523 0.85517 0.11211 0.0
C1056 C 0.17873 0.26705 0.11989 0.0
C1057 C 0.21251 0.25589 0.09291 0.0
C1058 C 0.21599 0.32978 0.06892 0.0
C1059 C 0.19106 0.34147 0.1035 0.0
N1060 N 0.15081 0.32153 0.16413 0.0
N1061 N 0.25524 0.27454 0.03364 0.0
C1062 C 0.17252 0.31019 0.12936 0.0
C1063 C 0.22847 0.28673 0.06456 0.0
N1064 N 0.15139 0.23703 0.13491 0.0
N1065 N 0.22731 0.36008 0.04052 0.0
H1066 H 0.26014 0.2427 0.02697 0.0
H1067 H 0.27203 0.2954 0.01455 0.0
H1068 H 0.21761 0.39148 0.04321 0.0
H1069 H 0.24356 0.35397 0.01317 0.0
H1070 H 0.12513 0.24427 0.15317 0.0
H1071 H 0.15074 0.20643 0.12336 0.0
H1072 H 0.14074 0.29962 0.18644 0.0
H1073 H 0.14618 0.35299 0.17239 0.0
C1074 C 0.47073 0.42889 0.33174 0.0
C1075 C 0.43355 0.45145 0.34129 0.0
C1076 C 0.4749 0.50894 0.37028 0.0
C1077 C 0.5126 0.4882 0.35734 0.0
N1078 N 0.54611 0.4324 0.31844 0.0
N1079 N 0.39921 0.51568 0.36172 0.0
C1080 C 0.51053 0.44911 0.33611 0.0
C1081 C 0.43533 0.49231 0.35828 0.0
N1082 N 0.46769 0.38794 0.31897 0.0
N1083 N 0.47654 0.54323 0.39564 0.0
H1084 H 0.36955 0.50416 0.35333 0.0
H1085 H 0.39912 0.54762 0.3694 0.0
H1086 H 0.50456 0.55611 0.40653 0.0
H1087 H 0.44983 0.55665 0.40911 0.0
H1088 H 0.49373 0.3682 0.3153 0.0
H1089 H 0.43861 0.37265 0.31546 0.0
H1090 H 0.54563 0.40614 0.29926 0.0
H1091 H 0.57568 0.44709 0.31949 0.0
C1092 C 0.32947 0.74355 0.62593 0.0
C1093 C 0.29835 0.75843 0.59726 0.0
C1094 C 0.29736 0.68798 0.5658 0.0
C1095 C 0.32223 0.67223 0.59823 0.0
N1096 N 0.35656 0.68273 0.66319 0.0
N1097 N 0.2468 0.74021 0.54458 0.0
C1098 C 0.33736 0.69944 0.62909 0.0
C1099 C 0.28082 0.72951 0.56822 0.0
N1100 N 0.35079 0.77054 0.65128 0.0
N1101 N 0.28891 0.66255 0.533 0.0
H1102 H 0.23166 0.7692 0.54573 0.0
H1103 H 0.23054 0.71847 0.52657 0.0
H1104 H 0.30058 0.63175 0.53113 0.0
H1105 H 0.27428 0.67336 0.50619 0.0
H1106 H 0.37706 0.76124 0.66829 0.0
H1107 H 0.34518 0.80267 0.65386 0.0
H1108 H 0.36307 0.70015 0.68957 0.0
H1109 H 0.36269 0.65052 0.6667 0.0
C1110 C 0.02079 0.55348 0.81797 0.0
C1111 C 1.00889 0.54516 0.85957 0.0
C1112 C 0.07953 0.56562 0.88255 0.0
C1113 C 0.09038 0.57694 0.84129 0.0
N1114 N 0.06789 0.59265 0.7721 0.0
N1115 N 0.02343 0.55294 0.93242 0.0
C1116 C 0.05981 0.57429 0.80971 0.0
C1117 C 0.03695 0.55488 0.89224 0.0
N1118 N 0.99542 0.5409 0.78633 0.0
N1119 N 0.11024 0.56179 0.91182 0.0
H1120 H 0.99302 0.54354 0.94116 0.0
H1121 H 0.04135 0.56416 0.95691 0.0
H1122 H 0.14242 0.56461 0.90523 0.0
H1123 H 0.10433 0.5513 0.94188 0.0
H1124 H 1.00479 0.54244 0.75542 0.0
H1125 H 0.96628 0.52593 0.79103 0.0
H1126 H 0.04537 0.59498 0.74888 0.0
H1127 H 0.0957 0.60958 0.76591 0.0
C1128 C 0.82062 0.74146 0.96064 0.0
C1129 C 0.78807 0.74693 0.93143 0.0
C1130 C 0.78913 0.67059 0.91822 0.0
C1131 C 0.82687 0.66744 0.94116 0.0
N1132 N 0.881 0.70003 0.9819 0.0
N1133 N 0.74025 0.71552 0.88182 0.0
C1134 C 0.84344 0.70303 0.96163 0.0
C1135 C 0.7717 0.71111 0.91021 0.0
N1136 N 0.8268 0.77137 0.99 0.0
N1137 N 0.76896 0.6346 0.90576 0.0
H1138 H 0.72476 0.74379 0.87599 0.0
H1139 H 0.73146 0.69161 0.86165 0.0
H1140 H 0.78041 0.60435 0.91205 0.0
H1141 H 0.73888 0.63441 0.89285 0.0
H1142 H 0.84834 0.76807 0.01399 0.0
H1143 H 0.80534 0.79601 0.99367 0.0
H1144 H 0.89638 0.72614 0.99441 0.0
H1145 H 0.89831 0.67201 0.98305 0.0
C1146 C 0.56993 0.56591 0.69507 0.0
C1147 C 0.58821 0.583 0.65854 0.0
C1148 C 0.51917 0.58244 0.62508 0.0
C1149 C 0.50249 0.55801 0.65879 0.0
N1150 N 0.50992 0.53014 0.7277 0.0
N1151 N 0.5821 0.60507 0.58763 0.0
C1152 C 0.52725 0.55124 0.69461 0.0
C1153 C 0.56317 0.59147 0.62353 0.0
N1154 N 0.59392 0.56369 0.72991 0.0
N1155 N 0.49355 0.59667 0.5942 0.0
H1156 H 0.61438 0.61151 0.58508 0.0
H1157 H 0.56658 0.60702 0.55946 0.0
H1158 H 0.46151 0.58996 0.5924 0.0
H1159 H 0.5033 0.61888 0.57209 0.0
H1160 H 0.58239 0.55416 0.75873 0.0
H1161 H 0.6252 0.57448 0.73035 0.0
H1162 H 0.52701 0.51991 0.75321 0.0
H1163 H 0.47786 0.52225 0.72913 0.0
C1164 C 0.68608 0.27215 0.44342 0.0
C1165 C 0.72527 0.26721 0.42195 0.0
C1166 C 0.72503 0.34336 0.4036 0.0
C1167 C 0.68757 0.34856 0.42706 0.0
N1168 N 0.63241 0.32013 0.47033 0.0
N1169 N 0.78375 0.29953 0.38364 0.0
C1170 C 0.66795 0.3134 0.44701 0.0
C1171 C 0.74508 0.30317 0.4025 0.0
N1172 N 0.66662 0.23753 0.4609 0.0
N1173 N 0.74133 0.37712 0.38191 0.0
H1174 H 0.7983 0.271 0.37756 0.0
H1175 H 0.80289 0.32518 0.37538 0.0
H1176 H 0.72981 0.40779 0.38464 0.0
H1177 H 0.76455 0.37464 0.35908 0.0
H1178 H 0.63607 0.23762 0.47308 0.0
H1179 H 0.68069 0.20779 0.46246 0.0
H1180 H 0.61812 0.29745 0.48936 0.0
H1181 H 0.61769 0.3496 0.4716 0.0
C1182 C 0.9697 0.40996 0.17222 0.0
C1183 C 0.93656 0.43412 0.18965 0.0
C1184 C 0.98814 0.48279 0.21941 0.0
C1185 C 0.02063 0.46173 0.19727 0.0
N1186 N 0.04414 0.39274 0.17555 0.0
N1187 N 0.91419 0.48313 0.24128 0.0
C1188 C 0.01213 0.42091 0.18141 0.0
C1189 C 0.94603 0.46692 0.21758 0.0
N1190 N 0.96112 0.37888 0.14453 0.0
N1191 N 0.99757 0.51848 0.24087 0.0
H1192 H 0.8834 0.47103 0.24014 0.0
H1193 H 0.91876 0.50558 0.26414 0.0
H1194 H 0.02874 0.52817 0.24524 0.0
H1195 H 0.97499 0.53835 0.25382 0.0
H1196 H 0.98469 0.36381 0.12749 0.0
H1197 H 0.93047 0.3703 0.1364 0.0
H1198 H 0.03895 0.36179 0.16586 0.0
H1199 H 0.07465 0.39838 0.18631 0.0
C1200 C 0.66138 0.76097 0.58761 0.0
C1201 C 0.70349 0.75522 0.57298 0.0
C1202 C 0.71124 0.83209 0.56578 0.0
C1203 C 0.67502 0.83692 0.59122 0.0
N1204 N 0.61046 0.80738 0.61922 0.0
N1205 N 0.75747 0.78416 0.52854 0.0
C1206 C 0.64798 0.80197 0.59897 0.0
C1207 C 0.72479 0.79067 0.55536 0.0
N1208 N 0.6336 0.72818 0.5915 0.0
N1209 N 0.73368 0.86725 0.55402 0.0
H1210 H 0.76536 0.75372 0.5194 0.0
H1211 H 0.77377 0.8081 0.51281 0.0
H1212 H 0.72266 0.8977 0.56009 0.0
H1213 H 0.76292 0.86649 0.53906 0.0
H1214 H 0.63972 0.69782 0.58062 0.0
H1215 H 0.63972 0.69782 0.58062 0.0
H1216 H 0.5904 0.78203 0.62668 0.0
H1217 H 0.59982 0.83709 0.62832 0.0
C1218 C 0.93577 0.96198 0.87234 0.0
C1219 C 0.93086 0.9233 0.85152 0.0
C1220 C 1.00489 0.92648 0.82809 0.0
C1221 C 1.00887 0.9671 0.84623 0.0
N1222 N 0.97355 0.02755 0.87798 0.0
N1223 N 0.95806 0.86925 0.80737 0.0
C1224 C 0.97317 0.98605 0.86622 0.0
C1225 C 0.96484 0.90561 0.82888 0.0
N1226 N 0.9043 0.97617 0.89787 0.0
N1227 N 0.0393 0.90817 0.80977 0.0
H1228 H 0.92962 0.85239 0.8095 0.0
H1229 H 0.97957 0.85668 0.78634 0.0
H1230 H 0.06788 0.92421 0.80495 0.0
H1231 H 0.04006 0.87681 0.80029 0.0
H1232 H 0.90865 1.00044 0.919 0.0
H1233 H 0.87478 0.96174 0.90079 0.0
H1234 H 0.94658 0.04363 0.88761 0.0
H1235 H 0.99869 0.04828 0.87438 0.0
C1236 C 0.82151 0.2009 0.06695 0.0
C1237 C 0.8288 0.1752 0.1022 0.0
C1238 C 0.82025 0.2369 0.14588 0.0
C1239 C 0.80448 0.26009 0.11156 0.0
N1240 N 0.7817 0.25983 0.04028 0.0
N1241 N 0.82343 0.16732 0.17653 0.0
C1242 C 0.80261 0.24095 0.0722 0.0
C1243 C 0.82544 0.19273 0.14219 0.0
N1244 N 0.83323 0.18733 0.02867 0.0
N1245 N 0.82934 0.2563 0.18225 0.0
H1246 H 0.82221 0.13443 0.1752 0.0
H1247 H 0.81739 0.17897 0.20601 0.0
H1248 H 0.82628 0.28867 0.18668 0.0
H1249 H 0.84441 0.24065 0.20647 0.0
H1250 H 0.83126 0.20644 1.00232 0.0
H1251 H 0.84947 0.15903 0.02425 0.0
H1252 H 0.77688 0.24492 0.0121 0.0
H1253 H 0.76558 0.28832 0.04326 0.0
C1254 C 0.52482 0.10866 0.38222 0.0
C1255 C 0.51009 0.07458 0.35786 0.0
C1256 C 0.57761 0.07597 0.31997 0.0
C1257 C 0.59534 0.09965 0.35241 0.0
N1258 N 0.5859 0.1388 0.41547 0.0
N1259 N 0.51803 0.03505 0.29486 0.0
C1260 C 0.56891 0.11692 0.38342 0.0
C1261 C 0.53506 0.06139 0.3236 0.0
N1262 N 0.49715 0.13414 0.40273 0.0
N1263 N 0.60217 0.06729 0.28622 0.0
H1264 H 0.48571 0.02835 0.29386 0.0
H1265 H 0.53549 0.02015 0.27189 0.0
H1266 H 0.63321 0.07855 0.28346 0.0
H1267 H 0.59134 0.05204 0.25999 0.0
H1268 H 0.50675 0.16096 0.4187 0.0
H1269 H 0.46458 0.13249 0.39863 0.0
H1270 H 0.56813 0.14828 0.441 0.0
H1271 H 0.61815 0.1449 0.41813 0.0
C1272 C 0.30422 0.25381 0.43741 0.0
C1273 C 0.3008 0.26691 0.39559 0.0
C1274 C 0.31951 0.19601 0.37294 0.0
C1275 C 0.32717 0.18416 0.41452 0.0
N1276 N 0.33891 0.20581 0.48467 0.0
N1277 N 0.31602 0.2534 0.32355 0.0
C1278 C 0.32322 0.21435 0.44635 0.0
C1279 C 0.31238 0.23912 0.36333 0.0
N1280 N 0.2887 0.27835 0.4685 0.0
N1281 N 0.31573 0.166 0.34308 0.0
H1282 H 0.31005 0.28456 0.3148 0.0
H1283 H 0.32916 0.2351 0.30014 0.0
H1284 H 0.31631 0.13364 0.34942 0.0
H1285 H 0.30696 0.17309 0.31284 0.0
H1286 H 0.28719 0.26815 0.49919 0.0
H1287 H 0.27408 0.30736 0.4632 0.0
H1288 H 0.33997 0.22822 0.50806 0.0
H1289 H 0.35528 0.17803 0.4914 0.0
C1290 C 0.03543 0.06062 0.12316 0.0
C1291 C 1.0095 0.05455 0.15867 0.0
C1292 C 0.06589 0.08379 0.2011 0.0
C1293 C 0.09432 0.08168 0.16703 0.0
N1294 N 0.10707 0.05861 0.09707 0.0
N1295 N 1.00293 0.05395 0.23305 0.0
C1296 C 0.07935 0.068 0.12819 0.0
C1297 C 0.02546 0.06437 0.19822 0.0
N1298 N 0.01848 0.05864 0.08464 0.0
N1299 N 0.07718 0.10517 0.23575 0.0
H1300 H 0.97375 0.0385 0.23214 0.0
H1301 H 0.01508 0.05719 0.26269 0.0
H1302 H 0.10564 0.12187 0.23769 0.0
H1303 H 0.05633 0.11035 0.26029 0.0
H1304 H 0.03569 0.06664 0.05809 0.0
H1305 H 0.98631 0.05382 0.07977 0.0
H1306 H 0.09757 0.04477 0.06954 0.0
H1307 H 0.13978 0.05967 0.10052 0.0
C1308 C 0.22581 0.83398 0.87915 0.0
C1309 C 0.18782 0.83863 0.90172 0.0
C1310 C 0.17982 0.76172 0.90793 0.0
C1311 C 0.22073 0.75677 0.88957 0.0
N1312 N 0.28225 0.78876 0.85596 0.0
N1313 N 0.12879 0.80934 0.93914 0.0
C1314 C 0.24353 0.79309 0.87456 0.0
C1315 C 0.1647 0.80311 0.91619 0.0
N1316 N 0.24454 0.86897 0.86161 0.0
N1317 N 0.15514 0.72724 0.91727 0.0
H1318 H 0.11582 0.8393 0.94354 0.0
H1319 H 0.11309 0.78547 0.9556 0.0
H1320 H 0.16535 0.69617 0.9151 0.0
H1321 H 0.12327 0.72917 0.92537 0.0
H1322 H 0.26924 0.86785 0.84019 0.0
H1323 H 0.23343 0.89957 0.86627 0.0
H1324 H 0.30322 0.81371 0.85054 0.0
H1325 H 0.29441 0.76002 0.84648 0.0
C1326 C 0.43827 0.97991 0.6986 0.0
C1327 C 0.43397 0.93801 0.6843 0.0
C1328 C 0.50813 0.92407 0.70086 0.0
C1329 C 0.51431 0.96817 0.70564 0.0
N1330 N 0.48276 0.03107 0.73327 0.0
N1331 N 0.46173 0.868 0.67675 0.0
C1332 C 0.47843 0.99403 0.71243 0.0
C1333 C 0.46786 0.90908 0.68798 0.0
N1334 N 0.40474 1.00683 0.69611 0.0
N1335 N 0.54035 0.897 0.7099 0.0
H1336 H 0.4319 0.8564 0.66885 0.0
H1337 H 0.48597 0.84599 0.67407 0.0
H1338 H 0.56846 0.9077 0.72304 0.0
H1339 H 0.53768 0.86419 0.70892 0.0
H1340 H 0.40705 0.03921 0.70139 0.0
H1341 H 0.37485 0.9968 0.68675 0.0
H1342 H 0.45743 0.05032 0.74138 0.0
H1343 H 0.51125 0.03943 0.74709 0.0
loop_
_geom_bond_atom_site_label_1
_geom_bond_atom_site_label_2
_geom_bond_distance
_geom_bond_site_symmetry_2
_ccdc_geom_bond_type
Co0 N5 2.057 . S
Co0 O17 2.021 . S
Co0 O20 2.062 . S
Co0 O24 2.117 . S
Co0 O25 2.020 . S
C1 O21 1.259 . S
C1 O24 1.258 . S
Co2 N11 2.057 . S
Co2 O18 2.117 . S
Co2 O19 2.020 . S
Co2 O21 2.021 . S
Co2 O26 2.062 . S
C3 N5 1.316 . S
C3 N6 1.347 . S
C3 H8 0.931 . S
C4 N5 1.375 . S
C4 C7 1.350 . S
C4 H9 0.930 . S
N5 Co0 2.057 . S
N5 C3 1.316 . S
N5 C4 1.375 . S
N6 C3 1.347 . S
N6 C7 1.373 . S
C7 C4 1.350 . S
C7 N6 1.373 . S
C7 H28 0.931 . S
H8 C3 0.931 . S
H9 C4 0.930 . S
C10 O17 1.259 . S
C10 O18 1.258 . S
N11 Co2 2.057 . S
N11 C12 1.316 . S
N11 C13 1.375 . S
C12 N11 1.316 . S
C12 N14 1.347 . S
C12 H23 0.931 . S
C13 N11 1.375 . S
C13 C15 1.350 . S
C13 H22 0.930 . S
N14 C12 1.347 . S
N14 C15 1.373 . S
C15 C13 1.350 . S
C15 N14 1.373 . S
C15 H29 0.931 . S
C16 O19 1.256 . S
C16 O20 1.255 . S
O17 Co0 2.021 . S
O17 C10 1.259 . S
O18 Co2 2.117 . S
O18 C10 1.258 . S
O19 Co2 2.020 . S
O19 C16 1.256 . S
O20 Co0 2.062 . S
O20 C16 1.255 . S
O21 C1 1.259 . S
O21 Co2 2.021 . S
H22 C13 0.930 . S
H23 C12 0.931 . S
O24 Co0 2.117 . S
O24 C1 1.258 . S
O25 Co0 2.020 . S
O25 C27 1.256 . S
O26 Co2 2.062 . S
O26 C27 1.255 . S
C27 O25 1.256 . S
C27 O26 1.255 . S
H28 C7 0.931 . S
H29 C15 0.931 . S
Co30 N35 2.057 . S
Co30 O47 2.021 . S
Co30 O50 2.062 . S
Co30 O54 2.117 . S
Co30 O55 2.020 . S
C31 O51 1.259 . S
C31 O54 1.258 . S
Co32 N41 2.057 . S
Co32 O48 2.117 . S
Co32 O49 2.020 . S
Co32 O51 2.021 . S
Co32 O56 2.062 . S
C33 N35 1.316 . S
C33 N36 1.347 . S
C33 H38 0.931 . S
C34 N35 1.375 . S
C34 C37 1.350 . S
C34 H39 0.930 . S
N35 Co30 2.057 . S
N35 C33 1.316 . S
N35 C34 1.375 . S
N36 C33 1.347 . S
N36 C37 1.373 . S
C37 C34 1.350 . S
C37 N36 1.373 . S
C37 H58 0.931 . S
H38 C33 0.931 . S
H39 C34 0.930 . S
C40 O47 1.259 . S
C40 O48 1.258 . S
N41 Co32 2.057 . S
N41 C42 1.316 . S
N41 C43 1.375 . S
C42 N41 1.316 . S
C42 N44 1.347 . S
C42 H53 0.931 . S
C43 N41 1.375 . S
C43 C45 1.350 . S
C43 H52 0.930 . S
N44 C42 1.347 . S
N44 C45 1.373 . S
C45 C43 1.350 . S
C45 N44 1.373 . S
C45 H59 0.931 . S
C46 O49 1.256 . S
C46 O50 1.255 . S
O47 Co30 2.021 . S
O47 C40 1.259 . S
O48 Co32 2.117 . S
O48 C40 1.258 . S
O49 Co32 2.020 . S
O49 C46 1.256 . S
O50 Co30 2.062 . S
O50 C46 1.255 . S
O51 C31 1.259 . S
O51 Co32 2.021 . S
H52 C43 0.930 . S
H53 C42 0.931 . S
O54 Co30 2.117 . S
O54 C31 1.258 . S
O55 Co30 2.020 . S
O55 C57 1.256 . S
O56 Co32 2.062 . S
O56 C57 1.255 . S
C57 O55 1.256 . S
C57 O56 1.255 . S
H58 C37 0.931 . S
H59 C45 0.931 . S
Co60 N65 2.057 . S
Co60 O77 2.021 . S
Co60 O80 2.062 . S
Co60 O84 2.117 . S
Co60 O85 2.020 . S
C61 O81 1.259 . S
C61 O84 1.258 . S
Co62 N71 2.057 . S
Co62 O78 2.117 . S
Co62 O79 2.020 . S
Co62 O81 2.021 . S
Co62 O86 2.062 . S
C63 N65 1.316 . S
C63 N66 1.347 . S
C63 H68 0.931 . S
C64 N65 1.375 . S
C64 C67 1.350 . S
C64 H69 0.930 . S
N65 Co60 2.057 . S
N65 C63 1.316 . S
N65 C64 1.375 . S
N66 C63 1.347 . S
N66 C67 1.373 . S
C67 C64 1.350 . S
C67 N66 1.373 . S
C67 H88 0.931 . S
H68 C63 0.931 . S
H69 C64 0.930 . S
C70 O77 1.259 . S
C70 O78 1.258 . S
N71 Co62 2.057 . S
N71 C72 1.316 . S
N71 C73 1.375 . S
C72 N71 1.316 . S
C72 N74 1.347 . S
C72 H83 0.931 . S
C73 N71 1.375 . S
C73 C75 1.350 . S
C73 H82 0.930 . S
N74 C72 1.347 . S
N74 C75 1.373 . S
C75 C73 1.350 . S
C75 N74 1.373 . S
C75 H89 0.931 . S
C76 O79 1.256 . S
C76 O80 1.255 . S
O77 Co60 2.021 . S
O77 C70 1.259 . S
O78 Co62 2.117 . S
O78 C70 1.258 . S
O79 Co62 2.020 . S
O79 C76 1.256 . S
O80 Co60 2.062 . S
O80 C76 1.255 . S
O81 C61 1.259 . S
O81 Co62 2.021 . S
H82 C73 0.930 . S
H83 C72 0.931 . S
O84 Co60 2.117 . S
O84 C61 1.258 . S
O85 Co60 2.020 . S
O85 C87 1.256 . S
O86 Co62 2.062 . S
O86 C87 1.255 . S
C87 O85 1.256 . S
C87 O86 1.255 . S
H88 C67 0.931 . S
H89 C75 0.931 . S
Co90 N95 2.057 . S
Co90 O107 2.021 . S
Co90 O110 2.062 . S
Co90 O114 2.117 . S
Co90 O115 2.020 . S
C91 O111 1.259 . S
C91 O114 1.258 . S
Co92 N101 2.057 . S
Co92 O108 2.117 . S
Co92 O109 2.020 . S
Co92 O111 2.021 . S
Co92 O116 2.062 . S
C93 N95 1.316 . S
C93 N96 1.347 . S
C93 H98 0.931 . S
C94 N95 1.375 . S
C94 C97 1.350 . S
C94 H99 0.930 . S
N95 Co90 2.057 . S
N95 C93 1.316 . S
N95 C94 1.375 . S
N96 C93 1.347 . S
N96 C97 1.373 . S
C97 C94 1.350 . S
C97 N96 1.373 . S
C97 H118 0.931 . S
H98 C93 0.931 . S
H99 C94 0.930 . S
C100 O107 1.259 . S
C100 O108 1.258 . S
N101 Co92 2.057 . S
N101 C102 1.316 . S
N101 C103 1.375 . S
C102 N101 1.316 . S
C102 N104 1.347 . S
C102 H113 0.931 . S
C103 N101 1.375 . S
C103 C105 1.350 . S
C103 H112 0.930 . S
N104 C102 1.347 . S
N104 C105 1.373 . S
C105 C103 1.350 . S
C105 N104 1.373 . S
C105 H119 0.931 1_655 S
C106 O109 1.256 . S
C106 O110 1.255 . S
O107 Co90 2.021 . S
O107 C100 1.259 . S
O108 Co92 2.117 . S
O108 C100 1.258 . S
O109 Co92 2.020 . S
O109 C106 1.256 . S
O110 Co90 2.062 . S
O110 C106 1.255 . S
O111 C91 1.259 . S
O111 Co92 2.021 . S
H112 C103 0.930 . S
H113 C102 0.931 . S
O114 Co90 2.117 . S
O114 C91 1.258 . S
O115 Co90 2.020 . S
O115 C117 1.256 . S
O116 Co92 2.062 . S
O116 C117 1.255 . S
C117 O115 1.256 . S
C117 O116 1.255 . S
H118 C97 0.931 . S
H119 C105 0.931 1_455 S
Co120 N125 2.057 . S
Co120 O137 2.021 . S
Co120 O140 2.062 . S
Co120 O144 2.117 . S
Co120 O145 2.020 . S
C121 O141 1.259 . S
C121 O144 1.258 . S
Co122 N131 2.057 . S
Co122 O138 2.117 . S
Co122 O139 2.020 . S
Co122 O141 2.021 . S
Co122 O146 2.062 . S
C123 N125 1.316 . S
C123 N126 1.347 . S
C123 H128 0.931 . S
C124 N125 1.375 . S
C124 C127 1.350 . S
C124 H129 0.930 . S
N125 Co120 2.057 . S
N125 C123 1.316 . S
N125 C124 1.375 . S
N126 C123 1.347 . S
N126 C127 1.373 . S
C127 C124 1.350 . S
C127 N126 1.373 . S
C127 H148 0.931 . S
H128 C123 0.931 . S
H129 C124 0.930 . S
C130 O137 1.259 . S
C130 O138 1.258 . S
N131 Co122 2.057 . S
N131 C132 1.316 . S
N131 C133 1.375 . S
C132 N131 1.316 . S
C132 N134 1.347 . S
C132 H143 0.931 . S
C133 N131 1.375 . S
C133 C135 1.350 . S
C133 H142 0.930 . S
N134 C132 1.347 . S
N134 C135 1.373 . S
C135 C133 1.350 . S
C135 N134 1.373 . S
C135 H149 0.931 . S
C136 O139 1.256 . S
C136 O140 1.255 . S
O137 Co120 2.021 . S
O137 C130 1.259 . S
O138 Co122 2.117 . S
O138 C130 1.258 . S
O139 Co122 2.020 . S
O139 C136 1.256 . S
O140 Co120 2.062 . S
O140 C136 1.255 . S
O141 C121 1.259 . S
O141 Co122 2.021 . S
H142 C133 0.930 . S
H143 C132 0.931 . S
O144 Co120 2.117 . S
O144 C121 1.258 . S
O145 Co120 2.020 . S
O145 C147 1.256 . S
O146 Co122 2.062 . S
O146 C147 1.255 . S
C147 O145 1.256 . S
C147 O146 1.255 . S
H148 C127 0.931 . S
H149 C135 0.931 . S
Co150 N155 2.057 . S
Co150 O167 2.021 . S
Co150 O170 2.062 . S
Co150 O174 2.117 . S
Co150 O175 2.020 . S
C151 O171 1.259 . S
C151 O174 1.258 . S
Co152 N161 2.057 . S
Co152 O168 2.117 . S
Co152 O169 2.020 . S
Co152 O171 2.021 . S
Co152 O176 2.062 . S
C153 N155 1.316 . S
C153 N156 1.347 . S
C153 H158 0.931 . S
C154 N155 1.375 . S
C154 C157 1.350 . S
C154 H159 0.930 . S
N155 Co150 2.057 . S
N155 C153 1.316 . S
N155 C154 1.375 . S
N156 C153 1.347 . S
N156 C157 1.373 . S
C157 C154 1.350 . S
C157 N156 1.373 . S
C157 H178 0.931 . S
H158 C153 0.931 . S
H159 C154 0.930 . S
C160 O167 1.259 . S
C160 O168 1.258 . S
N161 Co152 2.057 . S
N161 C162 1.316 . S
N161 C163 1.375 . S
C162 N161 1.316 . S
C162 N164 1.347 . S
C162 H173 0.931 . S
C163 N161 1.375 . S
C163 C165 1.350 . S
C163 H172 0.930 . S
N164 C162 1.347 . S
N164 C165 1.373 . S
C165 C163 1.350 . S
C165 N164 1.373 . S
C165 H179 0.931 . S
C166 O169 1.256 . S
C166 O170 1.255 . S
O167 Co150 2.021 . S
O167 C160 1.259 . S
O168 Co152 2.117 . S
O168 C160 1.258 . S
O169 Co152 2.020 . S
O169 C166 1.256 . S
O170 Co150 2.062 . S
O170 C166 1.255 . S
O171 C151 1.259 . S
O171 Co152 2.021 . S
H172 C163 0.930 . S
H173 C162 0.931 . S
O174 Co150 2.117 . S
O174 C151 1.258 . S
O175 Co150 2.020 . S
O175 C177 1.256 . S
O176 Co152 2.062 . S
O176 C177 1.255 . S
C177 O175 1.256 . S
C177 O176 1.255 . S
H178 C157 0.931 . S
H179 C165 0.931 . S
Co180 N185 2.057 . S
Co180 O197 2.021 . S
Co180 O200 2.062 . S
Co180 O204 2.117 . S
Co180 O205 2.020 . S
C181 O201 1.259 . S
C181 O204 1.258 . S
Co182 N191 2.057 . S
Co182 O198 2.117 . S
Co182 O199 2.020 . S
Co182 O201 2.021 . S
Co182 O206 2.062 . S
C183 N185 1.316 . S
C183 N186 1.347 . S
C183 H188 0.931 . S
C184 N185 1.375 . S
C184 C187 1.350 . S
C184 H189 0.930 . S
N185 Co180 2.057 . S
N185 C183 1.316 . S
N185 C184 1.375 . S
N186 C183 1.347 . S
N186 C187 1.373 . S
C187 C184 1.350 . S
C187 N186 1.373 . S
C187 H208 0.931 . S
H188 C183 0.931 . S
H189 C184 0.930 . S
C190 O197 1.259 . S
C190 O198 1.258 . S
N191 Co182 2.057 . S
N191 C192 1.316 . S
N191 C193 1.375 . S
C192 N191 1.316 . S
C192 N194 1.347 . S
C192 H203 0.931 . S
C193 N191 1.375 . S
C193 C195 1.350 . S
C193 H202 0.930 . S
N194 C192 1.347 . S
N194 C195 1.373 . S
C195 C193 1.350 . S
C195 N194 1.373 . S
C195 H209 0.931 . S
C196 O199 1.256 . S
C196 O200 1.255 . S
O197 Co180 2.021 . S
O197 C190 1.259 . S
O198 Co182 2.117 . S
O198 C190 1.258 . S
O199 Co182 2.020 . S
O199 C196 1.256 . S
O200 Co180 2.062 . S
O200 C196 1.255 . S
O201 C181 1.259 . S
O201 Co182 2.021 . S
H202 C193 0.930 . S
H203 C192 0.931 . S
O204 Co180 2.117 . S
O204 C181 1.258 . S
O205 Co180 2.020 . S
O205 C207 1.256 . S
O206 Co182 2.062 . S
O206 C207 1.255 . S
C207 O205 1.256 . S
C207 O206 1.255 . S
H208 C187 0.931 . S
H209 C195 0.931 . S
Co210 N215 2.057 . S
Co210 O227 2.021 . S
Co210 O230 2.062 . S
Co210 O234 2.117 . S
Co210 O235 2.020 . S
C211 O231 1.259 . S
C211 O234 1.258 . S
Co212 N221 2.057 . S
Co212 O228 2.117 . S
Co212 O229 2.020 . S
Co212 O231 2.021 . S
Co212 O236 2.062 . S
C213 N215 1.316 . S
C213 N216 1.347 . S
C213 H218 0.931 . S
C214 N215 1.375 . S
C214 C217 1.350 . S
C214 H219 0.930 . S
N215 Co210 2.057 . S
N215 C213 1.316 . S
N215 C214 1.375 . S
N216 C213 1.347 . S
N216 C217 1.373 . S
C217 C214 1.350 . S
C217 N216 1.373 . S
C217 H238 0.931 1_455 S
H218 C213 0.931 . S
H219 C214 0.930 . S
C220 O227 1.259 . S
C220 O228 1.258 . S
N221 Co212 2.057 . S
N221 C222 1.316 . S
N221 C223 1.375 . S
C222 N221 1.316 . S
C222 N224 1.347 . S
C222 H233 0.931 . S
C223 N221 1.375 . S
C223 C225 1.350 . S
C223 H232 0.930 . S
N224 C222 1.347 . S
N224 C225 1.373 . S
C225 C223 1.350 . S
C225 N224 1.373 . S
C225 H239 0.931 . S
C226 O229 1.256 . S
C226 O230 1.255 . S
O227 Co210 2.021 . S
O227 C220 1.259 . S
O228 Co212 2.117 . S
O228 C220 1.258 . S
O229 Co212 2.020 . S
O229 C226 1.256 . S
O230 Co210 2.062 . S
O230 C226 1.255 . S
O231 C211 1.259 . S
O231 Co212 2.021 . S
H232 C223 0.930 . S
H233 C222 0.931 . S
O234 Co210 2.117 . S
O234 C211 1.258 . S
O235 Co210 2.020 . S
O235 C237 1.256 . S
O236 Co212 2.062 . S
O236 C237 1.255 . S
C237 O235 1.256 . S
C237 O236 1.255 . S
H238 C217 0.931 1_655 S
H239 C225 0.931 . S
Co240 N245 2.057 . S
Co240 O257 2.021 . S
Co240 O260 2.062 . S
Co240 O264 2.117 . S
Co240 O265 2.020 . S
C241 O261 1.259 . S
C241 O264 1.258 . S
Co242 N251 2.057 . S
Co242 O258 2.117 . S
Co242 O259 2.020 . S
Co242 O261 2.021 . S
Co242 O266 2.062 . S
C243 N245 1.316 . S
C243 N246 1.347 . S
C243 H248 0.931 . S
C244 N245 1.375 . S
C244 C247 1.350 . S
C244 H249 0.930 . S
N245 Co240 2.057 . S
N245 C243 1.316 . S
N245 C244 1.375 . S
N246 C243 1.347 . S
N246 C247 1.373 . S
C247 C244 1.350 . S
C247 N246 1.373 . S
C247 H268 0.931 . S
H248 C243 0.931 . S
H249 C244 0.930 . S
C250 O257 1.259 . S
C250 O258 1.258 . S
N251 Co242 2.057 . S
N251 C252 1.316 . S
N251 C253 1.375 . S
C252 N251 1.316 . S
C252 N254 1.347 . S
C252 H263 0.931 . S
C253 N251 1.375 . S
C253 C255 1.350 . S
C253 H262 0.930 . S
N254 C252 1.347 . S
N254 C255 1.373 . S
C255 C253 1.350 . S
C255 N254 1.373 . S
C255 H269 0.931 . S
C256 O259 1.256 . S
C256 O260 1.255 . S
O257 Co240 2.021 . S
O257 C250 1.259 . S
O258 Co242 2.117 . S
O258 C250 1.258 . S
O259 Co242 2.020 . S
O259 C256 1.256 . S
O260 Co240 2.062 . S
O260 C256 1.255 . S
O261 C241 1.259 . S
O261 Co242 2.021 . S
H262 C253 0.930 . S
H263 C252 0.931 . S
O264 Co240 2.117 . S
O264 C241 1.258 . S
O265 Co240 2.020 . S
O265 C267 1.256 . S
O266 Co242 2.062 . S
O266 C267 1.255 . S
C267 O265 1.256 . S
C267 O266 1.255 . S
H268 C247 0.931 . S
H269 C255 0.931 . S
Co270 N275 2.057 . S
Co270 O287 2.021 . S
Co270 O290 2.062 . S
Co270 O294 2.117 1_565 S
Co270 O295 2.020 . S
C271 O291 1.259 . S
C271 O294 1.258 . S
Co272 N281 2.057 . S
Co272 O288 2.117 . S
Co272 O289 2.020 . S
Co272 O291 2.021 . S
Co272 O296 2.062 . S
C273 N275 1.316 . S
C273 N276 1.347 . S
C273 H278 0.931 . S
C274 N275 1.375 . S
C274 C277 1.350 . S
C274 H279 0.930 . S
N275 Co270 2.057 . S
N275 C273 1.316 . S
N275 C274 1.375 . S
N276 C273 1.347 . S
N276 C277 1.373 . S
C277 C274 1.350 . S
C277 N276 1.373 . S
C277 H298 0.931 . S
H278 C273 0.931 . S
H279 C274 0.930 . S
C280 O287 1.259 . S
C280 O288 1.258 1_565 S
N281 Co272 2.057 . S
N281 C282 1.316 . S
N281 C283 1.375 . S
C282 N281 1.316 . S
C282 N284 1.347 . S
C282 H293 0.931 . S
C283 N281 1.375 . S
C283 C285 1.350 . S
C283 H292 0.930 . S
N284 C282 1.347 . S
N284 C285 1.373 . S
C285 C283 1.350 . S
C285 N284 1.373 . S
C285 H299 0.931 1_455 S
C286 O289 1.256 . S
C286 O290 1.255 1_545 S
O287 Co270 2.021 . S
O287 C280 1.259 . S
O288 Co272 2.117 . S
O288 C280 1.258 1_545 S
O289 Co272 2.020 . S
O289 C286 1.256 . S
O290 Co270 2.062 . S
O290 C286 1.255 1_565 S
O291 C271 1.259 . S
O291 Co272 2.021 . S
H292 C283 0.930 . S
H293 C282 0.931 . S
O294 Co270 2.117 1_545 S
O294 C271 1.258 . S
O295 Co270 2.020 . S
O295 C297 1.256 1_565 S
O296 Co272 2.062 . S
O296 C297 1.255 . S
C297 O295 1.256 1_545 S
C297 O296 1.255 . S
H298 C277 0.931 . S
H299 C285 0.931 1_655 S
Co300 N305 2.057 . S
Co300 O317 2.021 . S
Co300 O320 2.062 . S
Co300 O324 2.117 . S
Co300 O325 2.020 . S
C301 O321 1.259 . S
C301 O324 1.258 . S
Co302 N311 2.057 . S
Co302 O318 2.117 . S
Co302 O319 2.020 . S
Co302 O321 2.021 . S
Co302 O326 2.062 . S
C303 N305 1.316 . S
C303 N306 1.347 . S
C303 H308 0.931 . S
C304 N305 1.375 . S
C304 C307 1.350 . S
C304 H309 0.930 . S
N305 Co300 2.057 . S
N305 C303 1.316 . S
N305 C304 1.375 . S
N306 C303 1.347 . S
N306 C307 1.373 . S
C307 C304 1.350 . S
C307 N306 1.373 . S
C307 H328 0.931 . S
H308 C303 0.931 . S
H309 C304 0.930 . S
C310 O317 1.259 . S
C310 O318 1.258 . S
N311 Co302 2.057 . S
N311 C312 1.316 . S
N311 C313 1.375 . S
C312 N311 1.316 . S
C312 N314 1.347 . S
C312 H323 0.931 . S
C313 N311 1.375 . S
C313 C315 1.350 . S
C313 H322 0.930 . S
N314 C312 1.347 . S
N314 C315 1.373 . S
C315 C313 1.350 . S
C315 N314 1.373 . S
C315 H329 0.931 . S
C316 O319 1.256 . S
C316 O320 1.255 . S
O317 Co300 2.021 . S
O317 C310 1.259 . S
O318 Co302 2.117 . S
O318 C310 1.258 . S
O319 Co302 2.020 . S
O319 C316 1.256 . S
O320 Co300 2.062 . S
O320 C316 1.255 . S
O321 C301 1.259 . S
O321 Co302 2.021 . S
H322 C313 0.930 . S
H323 C312 0.931 . S
O324 Co300 2.117 . S
O324 C301 1.258 . S
O325 Co300 2.020 . S
O325 C327 1.256 . S
O326 Co302 2.062 . S
O326 C327 1.255 . S
C327 O325 1.256 . S
C327 O326 1.255 . S
H328 C307 0.931 . S
H329 C315 0.931 . S
Co330 N335 2.057 . S
Co330 O347 2.021 . S
Co330 O350 2.062 . S
Co330 O354 2.117 1_545 S
Co330 O355 2.020 . S
C331 O351 1.259 . S
C331 O354 1.258 . S
Co332 N341 2.057 . S
Co332 O348 2.117 . S
Co332 O349 2.020 . S
Co332 O351 2.021 . S
Co332 O356 2.062 . S
C333 N335 1.316 . S
C333 N336 1.347 . S
C333 H338 0.931 . S
C334 N335 1.375 . S
C334 C337 1.350 . S
C334 H339 0.930 . S
N335 Co330 2.057 . S
N335 C333 1.316 . S
N335 C334 1.375 . S
N336 C333 1.347 . S
N336 C337 1.373 . S
C337 C334 1.350 . S
C337 N336 1.373 . S
C337 H358 0.931 . S
H338 C333 0.931 . S
H339 C334 0.930 . S
C340 O347 1.259 . S
C340 O348 1.258 1_545 S
N341 Co332 2.057 . S
N341 C342 1.316 . S
N341 C343 1.375 . S
C342 N341 1.316 . S
C342 N344 1.347 . S
C342 H353 0.931 . S
C343 N341 1.375 . S
C343 C345 1.350 . S
C343 H352 0.930 . S
N344 C342 1.347 . S
N344 C345 1.373 . S
C345 C343 1.350 . S
C345 N344 1.373 . S
C345 H359 0.931 . S
C346 O349 1.256 . S
C346 O350 1.255 1_565 S
O347 Co330 2.021 . S
O347 C340 1.259 . S
O348 Co332 2.117 . S
O348 C340 1.258 1_565 S
O349 Co332 2.020 . S
O349 C346 1.256 . S
O350 Co330 2.062 . S
O350 C346 1.255 1_545 S
O351 C331 1.259 . S
O351 Co332 2.021 . S
H352 C343 0.930 . S
H353 C342 0.931 . S
O354 Co330 2.117 1_565 S
O354 C331 1.258 . S
O355 Co330 2.020 . S
O355 C357 1.256 1_545 S
O356 Co332 2.062 . S
O356 C357 1.255 . S
C357 O355 1.256 1_565 S
C357 O356 1.255 . S
H358 C337 0.931 . S
H359 C345 0.931 . S
Co360 N365 2.057 . S
Co360 O377 2.021 . S
Co360 O380 2.062 . S
Co360 O384 2.117 . S
Co360 O385 2.020 . S
C361 O381 1.259 . S
C361 O384 1.258 . S
Co362 N371 2.057 . S
Co362 O378 2.117 . S
Co362 O379 2.020 . S
Co362 O381 2.021 . S
Co362 O386 2.062 . S
C363 N365 1.316 . S
C363 N366 1.347 . S
C363 H368 0.931 . S
C364 N365 1.375 . S
C364 C367 1.350 . S
C364 H369 0.930 . S
N365 Co360 2.057 . S
N365 C363 1.316 . S
N365 C364 1.375 . S
N366 C363 1.347 . S
N366 C367 1.373 . S
C367 C364 1.350 . S
C367 N366 1.373 . S
C367 H388 0.931 . S
H368 C363 0.931 . S
H369 C364 0.930 . S
C370 O377 1.259 . S
C370 O378 1.258 . S
N371 Co362 2.057 . S
N371 C372 1.316 . S
N371 C373 1.375 . S
C372 N371 1.316 . S
C372 N374 1.347 . S
C372 H383 0.931 . S
C373 N371 1.375 . S
C373 C375 1.350 . S
C373 H382 0.930 . S
N374 C372 1.347 . S
N374 C375 1.373 . S
C375 C373 1.350 . S
C375 N374 1.373 . S
C375 H389 0.931 . S
C376 O379 1.256 . S
C376 O380 1.255 . S
O377 Co360 2.021 . S
O377 C370 1.259 . S
O378 Co362 2.117 . S
O378 C370 1.258 . S
O379 Co362 2.020 . S
O379 C376 1.256 . S
O380 Co360 2.062 . S
O380 C376 1.255 . S
O381 C361 1.259 . S
O381 Co362 2.021 . S
H382 C373 0.930 . S
H383 C372 0.931 . S
O384 Co360 2.117 . S
O384 C361 1.258 . S
O385 Co360 2.020 . S
O385 C387 1.256 . S
O386 Co362 2.062 . S
O386 C387 1.255 . S
C387 O385 1.256 . S
C387 O386 1.255 . S
H388 C367 0.931 . S
H389 C375 0.931 . S
Co390 N395 2.057 . S
Co390 O407 2.021 . S
Co390 O410 2.062 . S
Co390 O414 2.117 . S
Co390 O415 2.020 . S
C391 O411 1.259 . S
C391 O414 1.258 1_545 S
Co392 N401 2.057 . S
Co392 O408 2.117 1_545 S
Co392 O409 2.020 . S
Co392 O411 2.021 . S
Co392 O416 2.062 . S
C393 N395 1.316 . S
C393 N396 1.347 . S
C393 H398 0.931 . S
C394 N395 1.375 . S
C394 C397 1.350 . S
C394 H399 0.930 . S
N395 Co390 2.057 . S
N395 C393 1.316 . S
N395 C394 1.375 . S
N396 C393 1.347 . S
N396 C397 1.373 . S
C397 C394 1.350 . S
C397 N396 1.373 . S
C397 H418 0.931 1_655 S
H398 C393 0.931 . S
H399 C394 0.930 . S
C400 O407 1.259 . S
C400 O408 1.258 . S
N401 Co392 2.057 . S
N401 C402 1.316 . S
N401 C403 1.375 . S
C402 N401 1.316 . S
C402 N404 1.347 . S
C402 H413 0.931 . S
C403 N401 1.375 . S
C403 C405 1.350 . S
C403 H412 0.930 . S
N404 C402 1.347 . S
N404 C405 1.373 . S
C405 C403 1.350 . S
C405 N404 1.373 . S
C405 H419 0.931 . S
C406 O409 1.256 1_565 S
C406 O410 1.255 . S
O407 Co390 2.021 . S
O407 C400 1.259 . S
O408 Co392 2.117 1_565 S
O408 C400 1.258 . S
O409 Co392 2.020 . S
O409 C406 1.256 1_545 S
O410 Co390 2.062 . S
O410 C406 1.255 . S
O411 C391 1.259 . S
O411 Co392 2.021 . S
H412 C403 0.930 . S
H413 C402 0.931 . S
O414 Co390 2.117 . S
O414 C391 1.258 1_565 S
O415 Co390 2.020 . S
O415 C417 1.256 . S
O416 Co392 2.062 . S
O416 C417 1.255 1_545 S
C417 O415 1.256 . S
C417 O416 1.255 1_565 S
H418 C397 0.931 1_455 S
H419 C405 0.931 . S
Co420 N425 2.057 . S
Co420 O437 2.021 . S
Co420 O440 2.062 . S
Co420 O444 2.117 . S
Co420 O445 2.020 . S
C421 O441 1.259 . S
C421 O444 1.258 . S
Co422 N431 2.057 . S
Co422 O438 2.117 . S
Co422 O439 2.020 . S
Co422 O441 2.021 . S
Co422 O446 2.062 . S
C423 N425 1.316 . S
C423 N426 1.347 . S
C423 H428 0.931 . S
C424 N425 1.375 . S
C424 C427 1.350 . S
C424 H429 0.930 . S
N425 Co420 2.057 . S
N425 C423 1.316 . S
N425 C424 1.375 . S
N426 C423 1.347 . S
N426 C427 1.373 . S
C427 C424 1.350 . S
C427 N426 1.373 . S
C427 H448 0.931 . S
H428 C423 0.931 . S
H429 C424 0.930 . S
C430 O437 1.259 . S
C430 O438 1.258 . S
N431 Co422 2.057 . S
N431 C432 1.316 . S
N431 C433 1.375 . S
C432 N431 1.316 . S
C432 N434 1.347 . S
C432 H443 0.931 . S
C433 N431 1.375 . S
C433 C435 1.350 . S
C433 H442 0.930 . S
N434 C432 1.347 . S
N434 C435 1.373 . S
C435 C433 1.350 . S
C435 N434 1.373 . S
C435 H449 0.931 . S
C436 O439 1.256 . S
C436 O440 1.255 . S
O437 Co420 2.021 . S
O437 C430 1.259 . S
O438 Co422 2.117 . S
O438 C430 1.258 . S
O439 Co422 2.020 . S
O439 C436 1.256 . S
O440 Co420 2.062 . S
O440 C436 1.255 . S
O441 C421 1.259 . S
O441 Co422 2.021 . S
H442 C433 0.930 . S
H443 C432 0.931 . S
O444 Co420 2.117 . S
O444 C421 1.258 . S
O445 Co420 2.020 . S
O445 C447 1.256 . S
O446 Co422 2.062 . S
O446 C447 1.255 . S
C447 O445 1.256 . S
C447 O446 1.255 . S
H448 C427 0.931 . S
H449 C435 0.931 . S
Co450 N455 2.057 . S
Co450 O467 2.021 . S
Co450 O470 2.062 . S
Co450 O474 2.117 . S
Co450 O475 2.020 . S
C451 O471 1.259 . S
C451 O474 1.258 1_565 S
Co452 N461 2.057 . S
Co452 O468 2.117 1_565 S
Co452 O469 2.020 . S
Co452 O471 2.021 . S
Co452 O476 2.062 . S
C453 N455 1.316 . S
C453 N456 1.347 . S
C453 H458 0.931 . S
C454 N455 1.375 . S
C454 C457 1.350 . S
C454 H459 0.930 . S
N455 Co450 2.057 . S
N455 C453 1.316 . S
N455 C454 1.375 . S
N456 C453 1.347 . S
N456 C457 1.373 . S
C457 C454 1.350 . S
C457 N456 1.373 . S
C457 H478 0.931 . S
H458 C453 0.931 . S
H459 C454 0.930 . S
C460 O467 1.259 . S
C460 O468 1.258 . S
N461 Co452 2.057 . S
N461 C462 1.316 . S
N461 C463 1.375 . S
C462 N461 1.316 . S
C462 N464 1.347 . S
C462 H473 0.931 . S
C463 N461 1.375 . S
C463 C465 1.350 . S
C463 H472 0.930 . S
N464 C462 1.347 . S
N464 C465 1.373 . S
C465 C463 1.350 . S
C465 N464 1.373 . S
C465 H479 0.931 . S
C466 O469 1.256 1_545 S
C466 O470 1.255 . S
O467 Co450 2.021 . S
O467 C460 1.259 . S
O468 Co452 2.117 1_545 S
O468 C460 1.258 . S
O469 Co452 2.020 . S
O469 C466 1.256 1_565 S
O470 Co450 2.062 . S
O470 C466 1.255 . S
O471 C451 1.259 . S
O471 Co452 2.021 . S
H472 C463 0.930 . S
H473 C462 0.931 . S
O474 Co450 2.117 . S
O474 C451 1.258 1_545 S
O475 Co450 2.020 . S
O475 C477 1.256 . S
O476 Co452 2.062 . S
O476 C477 1.255 1_565 S
C477 O475 1.256 . S
C477 O476 1.255 1_545 S
H478 C457 0.931 . S
H479 C465 0.931 . S
C480 C481 1.363 . S
C480 C486 1.379 . S
C480 N488 1.356 . S
C481 C480 1.363 . S
C481 C487 1.363 . S
C482 C483 1.363 . S
C482 C487 1.379 . S
C482 N489 1.356 . S
C483 C482 1.363 . S
C483 C486 1.363 . S
N484 C486 1.356 . S
N484 H496 0.984 . S
N484 H497 0.985 . S
N485 C487 1.356 . S
N485 H490 0.984 . S
N485 H491 0.985 . S
C486 C480 1.379 . S
C486 C483 1.363 . S
C486 N484 1.356 . S
C487 C481 1.363 . S
C487 C482 1.379 . S
C487 N485 1.356 . S
N488 C480 1.356 . S
N488 H494 0.984 . S
N488 H495 0.984 . S
N489 C482 1.356 . S
N489 H492 0.984 . S
N489 H493 0.985 . S
H490 N485 0.984 . S
H491 N485 0.985 . S
H492 N489 0.984 . S
H493 N489 0.985 . S
H494 N488 0.984 . S
H495 N488 0.984 . S
H496 N484 0.984 . S
H497 N484 0.985 . S
C498 C499 1.363 . S
C498 C504 1.379 . S
C498 N506 1.356 . S
C499 C498 1.363 . S
C499 C505 1.363 . S
C500 C501 1.363 . S
C500 C505 1.379 . S
C500 N507 1.356 . S
C501 C500 1.363 . S
C501 C504 1.363 . S
N502 C504 1.356 . S
N502 H514 0.984 . S
N502 H515 0.985 . S
N503 C505 1.356 . S
N503 H508 0.984 . S
N503 H509 0.985 . S
C504 C498 1.379 . S
C504 C501 1.363 . S
C504 N502 1.356 . S
C505 C499 1.363 . S
C505 C500 1.379 . S
C505 N503 1.356 . S
N506 C498 1.356 . S
N506 H512 0.984 . S
N506 H513 0.984 . S
N507 C500 1.356 . S
N507 H510 0.984 . S
N507 H511 0.985 . S
H508 N503 0.984 . S
H509 N503 0.985 . S
H510 N507 0.984 . S
H511 N507 0.985 . S
H512 N506 0.984 . S
H513 N506 0.984 . S
H514 N502 0.984 . S
H515 N502 0.985 . S
C516 C517 1.363 . S
C516 C522 1.379 . S
C516 N524 1.356 . S
C517 C516 1.363 . S
C517 C523 1.363 . S
C518 C519 1.363 . S
C518 C523 1.379 . S
C518 N525 1.356 . S
C519 C518 1.363 . S
C519 C522 1.363 . S
N520 C522 1.356 . S
N520 H532 0.984 . S
N520 H533 0.985 . S
N521 C523 1.356 . S
N521 H526 0.984 . S
N521 H527 0.985 . S
C522 C516 1.379 . S
C522 C519 1.363 . S
C522 N520 1.356 . S
C523 C517 1.363 . S
C523 C518 1.379 . S
C523 N521 1.356 . S
N524 C516 1.356 . S
N524 H530 0.984 . S
N524 H531 0.984 . S
N525 C518 1.356 . S
N525 H528 0.984 . S
N525 H529 0.985 . S
H526 N521 0.984 . S
H527 N521 0.985 . S
H528 N525 0.984 . S
H529 N525 0.985 . S
H530 N524 0.984 . S
H531 N524 0.984 . S
H532 N520 0.984 . S
H533 N520 0.985 . S
C534 C535 1.382 . S
C534 C540 1.360 1_655 S
C534 N542 1.363 . S
C535 C534 1.382 . S
C535 C541 1.363 1_556 S
C536 C537 1.382 . S
C536 C541 1.360 1_455 S
C536 N543 1.363 . S
C537 C536 1.382 . S
C537 C540 1.363 1_554 S
N538 C540 1.356 . S
N538 H550 0.984 . S
N538 H551 0.985 . S
N539 C541 1.356 . S
N539 H544 0.984 . S
N539 H545 0.985 . S
C540 C534 1.360 1_455 S
C540 C537 1.363 1_556 S
C540 N538 1.356 . S
C541 C535 1.363 1_554 S
C541 C536 1.360 1_655 S
C541 N539 1.356 . S
N542 C534 1.363 . S
N542 H548 0.984 1_655 S
N542 H549 0.984 . S
N543 C536 1.363 . S
N543 H546 0.984 . S
N543 H547 0.985 1_455 S
H544 N539 0.984 . S
H545 N539 0.985 . S
H546 N543 0.984 . S
H547 N543 0.985 1_655 S
H548 N542 0.984 1_455 S
H549 N542 0.984 . S
H550 N538 0.984 . S
H551 N538 0.985 . S
C552 C553 1.363 . S
C552 C558 1.379 . S
C552 N560 1.356 . S
C553 C552 1.363 . S
C553 C559 1.363 . S
C554 C555 1.363 . S
C554 C559 1.379 . S
C554 N561 1.356 . S
C555 C554 1.363 . S
C555 C558 1.363 . S
N556 C558 1.356 . S
N556 H568 0.984 . S
N556 H569 0.985 . S
N557 C559 1.356 . S
N557 H562 0.984 . S
N557 H563 0.985 . S
C558 C552 1.379 . S
C558 C555 1.363 . S
C558 N556 1.356 . S
C559 C553 1.363 . S
C559 C554 1.379 . S
C559 N557 1.356 . S
N560 C552 1.356 . S
N560 H566 0.984 . S
N560 H567 0.984 . S
N561 C554 1.356 . S
N561 H564 0.984 . S
N561 H565 0.985 . S
H562 N557 0.984 . S
H563 N557 0.985 . S
H564 N561 0.984 . S
H565 N561 0.985 . S
H566 N560 0.984 . S
H567 N560 0.984 . S
H568 N556 0.984 . S
H569 N556 0.985 . S
C570 C571 1.363 . S
C570 C576 1.379 . S
C570 N578 1.356 . S
C571 C570 1.363 . S
C571 C577 1.363 . S
C572 C573 1.363 . S
C572 C577 1.379 . S
C572 N579 1.356 . S
C573 C572 1.363 . S
C573 C576 1.363 . S
N574 C576 1.356 . S
N574 H586 0.984 . S
N574 H587 0.985 . S
N575 C577 1.356 . S
N575 H580 0.984 . S
N575 H581 0.985 . S
C576 C570 1.379 . S
C576 C573 1.363 . S
C576 N574 1.356 . S
C577 C571 1.363 . S
C577 C572 1.379 . S
C577 N575 1.356 . S
N578 C570 1.356 . S
N578 H584 0.984 . S
N578 H585 0.984 . S
N579 C572 1.356 . S
N579 H582 0.984 . S
N579 H583 0.985 . S
H580 N575 0.984 . S
H581 N575 0.985 . S
H582 N579 0.984 . S
H583 N579 0.985 . S
H584 N578 0.984 . S
H585 N578 0.984 . S
H586 N574 0.984 . S
H587 N574 0.985 . S
C588 C589 1.363 1_556 S
C588 C594 1.379 1_655 S
C588 N596 1.356 . S
C589 C588 1.363 1_554 S
C589 C595 1.363 1_565 S
C590 C591 1.363 1_554 S
C590 C595 1.379 1_455 S
C590 N597 1.356 . S
C591 C590 1.363 1_556 S
C591 C594 1.363 1_545 S
N592 C594 1.356 . S
N592 H604 0.984 . S
N592 H605 0.985 . S
N593 C595 1.356 . S
N593 H598 0.984 . S
N593 H599 0.985 . S
C594 C588 1.379 1_455 S
C594 C591 1.363 1_565 S
C594 N592 1.356 . S
C595 C589 1.363 1_545 S
C595 C590 1.379 1_655 S
C595 N593 1.356 . S
N596 C588 1.356 . S
N596 H602 0.984 . S
N596 H603 0.984 1_556 S
N597 C590 1.356 . S
N597 H600 0.984 1_554 S
N597 H601 0.985 . S
H598 N593 0.984 . S
H599 N593 0.985 . S
H600 N597 0.984 1_556 S
H601 N597 0.985 . S
H602 N596 0.984 . S
H603 N596 0.984 1_554 S
H604 N592 0.984 . S
H605 N592 0.985 . S
C606 C607 1.363 . S
C606 C612 1.379 . S
C606 N614 1.356 . S
C607 C606 1.363 . S
C607 C613 1.363 1_565 S
C608 C609 1.363 . S
C608 C613 1.379 . S
C608 N615 1.356 . S
C609 C608 1.363 . S
C609 C612 1.363 1_545 S
N610 C612 1.356 . S
N610 H622 0.984 . S
N610 H623 0.985 . S
N611 C613 1.356 . S
N611 H616 0.984 . S
N611 H617 0.985 . S
C612 C606 1.379 . S
C612 C609 1.363 1_565 S
C612 N610 1.356 . S
C613 C607 1.363 1_545 S
C613 C608 1.379 . S
C613 N611 1.356 . S
N614 C606 1.356 . S
N614 H620 0.984 . S
N614 H621 0.984 . S
N615 C608 1.356 . S
N615 H618 0.984 . S
N615 H619 0.985 . S
H616 N611 0.984 . S
H617 N611 0.985 . S
H618 N615 0.984 . S
H619 N615 0.985 . S
H620 N614 0.984 . S
H621 N614 0.984 . S
H622 N610 0.984 . S
H623 N610 0.985 . S
C624 C625 1.363 . S
C624 C630 1.379 . S
C624 N632 1.356 . S
C625 C624 1.363 . S
C625 C631 1.363 . S
C626 C627 1.363 . S
C626 C631 1.379 1_554 S
C626 N633 1.356 . S
C627 C626 1.363 . S
C627 C630 1.363 1_554 S
N628 C630 1.356 1_554 S
N628 H640 0.984 1_554 S
N628 H641 0.985 . S
N629 C631 1.356 . S
N629 H634 0.984 . S
N629 H635 0.985 1_546 S
C630 C624 1.379 . S
C630 C627 1.363 1_556 S
C630 N628 1.356 1_556 S
C631 C625 1.363 . S
C631 C626 1.379 1_556 S
C631 N629 1.356 . S
N632 C624 1.356 . S
N632 H638 0.984 . S
N632 H639 0.984 . S
N633 C626 1.356 . S
N633 H636 0.984 . S
N633 H637 0.985 . S
H634 N629 0.984 . S
H635 N629 0.985 1_564 S
H636 N633 0.984 . S
H637 N633 0.985 . S
H638 N632 0.984 . S
H639 N632 0.984 . S
H640 N628 0.984 1_556 S
H641 N628 0.985 . S
C642 C643 1.363 . S
C642 C648 1.379 . S
C642 N650 1.356 . S
C643 C642 1.363 . S
C643 C649 1.363 . S
C644 C645 1.363 . S
C644 C649 1.379 . S
C644 N651 1.356 . S
C645 C644 1.363 . S
C645 C648 1.363 . S
N646 C648 1.356 . S
N646 H658 0.984 . S
N646 H659 0.985 . S
N647 C649 1.356 . S
N647 H652 0.984 . S
N647 H653 0.985 . S
C648 C642 1.379 . S
C648 C645 1.363 . S
C648 N646 1.356 . S
C649 C643 1.363 . S
C649 C644 1.379 . S
C649 N647 1.356 . S
N650 C642 1.356 . S
N650 H656 0.984 . S
N650 H657 0.984 . S
N651 C644 1.356 . S
N651 H654 0.984 . S
N651 H655 0.985 . S
H652 N647 0.984 . S
H653 N647 0.985 . S
H654 N651 0.984 . S
H655 N651 0.985 . S
H656 N650 0.984 . S
H657 N650 0.984 . S
H658 N646 0.984 . S
H659 N646 0.985 . S
C660 C661 1.363 . S
C660 C666 1.379 . S
C660 N668 1.356 . S
C661 C660 1.363 . S
C661 C667 1.363 . S
C662 C663 1.363 . S
C662 C667 1.379 . S
C662 N669 1.356 . S
C663 C662 1.363 . S
C663 C666 1.363 . S
N664 C666 1.356 . S
N664 H676 0.984 1_565 S
N664 H677 0.985 . S
N665 C667 1.356 . S
N665 H670 0.984 . S
N665 H671 0.985 . S
C666 C660 1.379 . S
C666 C663 1.363 . S
C666 N664 1.356 . S
C667 C661 1.363 . S
C667 C662 1.379 . S
C667 N665 1.356 . S
N668 C660 1.356 . S
N668 H674 0.984 . S
N668 H675 0.984 . S
N669 C662 1.356 . S
N669 H672 0.984 . S
N669 H673 0.985 . S
H670 N665 0.984 . S
H671 N665 0.985 . S
H672 N669 0.984 . S
H673 N669 0.985 . S
H674 N668 0.984 . S
H675 N668 0.984 . S
H676 N664 0.984 1_545 S
H677 N664 0.985 . S
C678 C679 1.363 . S
C678 C684 1.379 . S
C678 N686 1.356 . S
C679 C678 1.363 . S
C679 C685 1.363 . S
C680 C681 1.363 . S
C680 C685 1.379 . S
C680 N687 1.356 . S
C681 C680 1.363 . S
C681 C684 1.363 . S
N682 C684 1.356 . S
N682 H694 0.984 . S
N682 H695 0.985 . S
N683 C685 1.356 . S
N683 H688 0.984 . S
N683 H689 0.985 . S
C684 C678 1.379 . S
C684 C681 1.363 . S
C684 N682 1.356 . S
C685 C679 1.363 . S
C685 C680 1.379 . S
C685 N683 1.356 . S
N686 C678 1.356 . S
N686 H692 0.984 . S
N686 H693 0.984 . S
N687 C680 1.356 . S
N687 H690 0.984 . S
N687 H691 0.985 . S
H688 N683 0.984 . S
H689 N683 0.985 . S
H690 N687 0.984 . S
H691 N687 0.985 . S
H692 N686 0.984 . S
H693 N686 0.984 . S
H694 N682 0.984 . S
H695 N682 0.985 . S
C696 C697 1.363 . S
C696 C702 1.379 1_554 S
C696 N704 1.356 . S
C697 C696 1.363 . S
C697 C703 1.363 . S
C698 C699 1.363 . S
C698 C703 1.379 1_556 S
C698 N705 1.356 . S
C699 C698 1.363 . S
C699 C702 1.363 . S
N700 C702 1.356 . S
N700 H712 0.984 . S
N700 H713 0.985 . S
N701 C703 1.356 . S
N701 H706 0.984 . S
N701 H707 0.985 1_565 S
C702 C696 1.379 1_556 S
C702 C699 1.363 . S
C702 N700 1.356 . S
C703 C697 1.363 . S
C703 C698 1.379 1_554 S
C703 N701 1.356 . S
N704 C696 1.356 . S
N704 H710 0.984 . S
N704 H711 0.984 . S
N705 C698 1.356 . S
N705 H708 0.984 . S
N705 H709 0.985 . S
H706 N701 0.984 . S
H707 N701 0.985 1_545 S
H708 N705 0.984 . S
H709 N705 0.985 . S
H710 N704 0.984 . S
H711 N704 0.984 . S
H712 N700 0.984 . S
H713 N700 0.985 . S
C714 C715 1.363 . S
C714 C720 1.379 . S
C714 N722 1.356 . S
C715 C714 1.363 . S
C715 C721 1.363 . S
C716 C717 1.363 . S
C716 C721 1.379 . S
C716 N723 1.356 . S
C717 C716 1.363 . S
C717 C720 1.363 . S
N718 C720 1.356 . S
N718 H730 0.984 . S
N718 H731 0.985 . S
N719 C721 1.356 . S
N719 H724 0.984 . S
N719 H725 0.985 . S
C720 C714 1.379 . S
C720 C717 1.363 . S
C720 N718 1.356 . S
C721 C715 1.363 . S
C721 C716 1.379 . S
C721 N719 1.356 . S
N722 C714 1.356 . S
N722 H728 0.984 . S
N722 H729 0.984 . S
N723 C716 1.356 . S
N723 H726 0.984 . S
N723 H727 0.985 . S
H724 N719 0.984 . S
H725 N719 0.985 . S
H726 N723 0.984 . S
H727 N723 0.985 . S
H728 N722 0.984 . S
H729 N722 0.984 . S
H730 N718 0.984 . S
H731 N718 0.985 . S
C732 C733 1.363 . S
C732 C738 1.379 . S
C732 N740 1.356 . S
C733 C732 1.363 . S
C733 C739 1.363 . S
C734 C735 1.363 . S
C734 C739 1.379 . S
C734 N741 1.356 . S
C735 C734 1.363 . S
C735 C738 1.363 . S
N736 C738 1.356 . S
N736 H748 0.984 . S
N736 H749 0.985 . S
N737 C739 1.356 . S
N737 H742 0.984 . S
N737 H743 0.985 . S
C738 C732 1.379 . S
C738 C735 1.363 . S
C738 N736 1.356 . S
C739 C733 1.363 . S
C739 C734 1.379 . S
C739 N737 1.356 . S
N740 C732 1.356 . S
N740 H746 0.984 . S
N740 H747 0.984 . S
N741 C734 1.356 . S
N741 H744 0.984 . S
N741 H745 0.985 1_545 S
H742 N737 0.984 . S
H743 N737 0.985 . S
H744 N741 0.984 . S
H745 N741 0.985 1_565 S
H746 N740 0.984 . S
H747 N740 0.984 . S
H748 N736 0.984 . S
H749 N736 0.985 . S
C750 C751 1.363 . S
C750 C756 1.379 . S
C750 N758 1.356 . S
C751 C750 1.363 . S
C751 C757 1.363 . S
C752 C753 1.363 . S
C752 C757 1.379 . S
C752 N759 1.356 . S
C753 C752 1.363 . S
C753 C756 1.363 . S
N754 C756 1.356 . S
N754 H766 0.984 . S
N754 H767 0.985 . S
N755 C757 1.356 . S
N755 H760 0.984 . S
N755 H761 0.985 . S
C756 C750 1.379 . S
C756 C753 1.363 . S
C756 N754 1.356 . S
C757 C751 1.363 . S
C757 C752 1.379 . S
C757 N755 1.356 . S
N758 C750 1.356 . S
N758 H764 0.984 . S
N758 H765 0.984 . S
N759 C752 1.356 . S
N759 H762 0.984 . S
N759 H763 0.985 . S
H760 N755 0.984 . S
H761 N755 0.985 . S
H762 N759 0.984 . S
H763 N759 0.985 . S
H764 N758 0.984 . S
H765 N758 0.984 . S
H766 N754 0.984 . S
H767 N754 0.985 . S
C768 C769 1.363 . S
C768 C774 1.379 . S
C768 N776 1.356 . S
C769 C768 1.363 . S
C769 C775 1.363 . S
C770 C771 1.363 . S
C770 C775 1.379 . S
C770 N777 1.356 . S
C771 C770 1.363 . S
C771 C774 1.363 . S
N772 C774 1.356 . S
N772 H784 0.984 . S
N772 H785 0.985 . S
N773 C775 1.356 . S
N773 H778 0.984 . S
N773 H779 0.985 . S
C774 C768 1.379 . S
C774 C771 1.363 . S
C774 N772 1.356 . S
C775 C769 1.363 . S
C775 C770 1.379 . S
C775 N773 1.356 . S
N776 C768 1.356 . S
N776 H782 0.984 . S
N776 H783 0.984 . S
N777 C770 1.356 . S
N777 H780 0.984 . S
N777 H781 0.985 . S
H778 N773 0.984 . S
H779 N773 0.985 . S
H780 N777 0.984 . S
H781 N777 0.985 . S
H782 N776 0.984 . S
H783 N776 0.984 . S
H784 N772 0.984 . S
H785 N772 0.985 . S
C786 C787 1.363 . S
C786 C792 1.379 . S
C786 N794 1.356 . S
C787 C786 1.363 . S
C787 C793 1.363 . S
C788 C789 1.363 . S
C788 C793 1.381 . S
C788 N795 1.356 . S
C789 C788 1.363 . S
C789 C792 1.363 . S
N790 C792 1.356 . S
N790 H802 0.984 . S
N790 H803 0.985 . S
N791 C793 1.353 1_545 S
N791 H796 0.984 . S
N791 H797 0.985 . S
C792 C786 1.379 . S
C792 C789 1.363 . S
C792 N790 1.356 . S
C793 C787 1.363 . S
C793 C788 1.381 . S
C793 N791 1.353 1_565 S
N794 C786 1.356 . S
N794 H800 0.984 . S
N794 H801 0.984 . S
N795 C788 1.356 . S
N795 H798 0.984 . S
N795 H799 0.985 . S
H796 N791 0.984 . S
H797 N791 0.985 . S
H798 N795 0.984 . S
H799 N795 0.985 . S
H800 N794 0.984 . S
H801 N794 0.984 . S
H802 N790 0.984 . S
H803 N790 0.985 . S
C804 C805 1.363 . S
C804 C810 1.379 1_554 S
C804 N812 1.356 . S
C805 C804 1.363 . S
C805 C811 1.363 . S
C806 C807 1.363 . S
C806 C811 1.379 1_556 S
C806 N813 1.356 . S
C807 C806 1.363 . S
C807 C810 1.363 . S
N808 C810 1.356 . S
N808 H820 0.984 . S
N808 H821 0.985 . S
N809 C811 1.356 . S
N809 H814 0.984 . S
N809 H815 0.985 . S
C810 C804 1.379 1_556 S
C810 C807 1.363 . S
C810 N808 1.356 . S
C811 C805 1.363 . S
C811 C806 1.379 1_554 S
C811 N809 1.356 . S
N812 C804 1.356 . S
N812 H818 0.984 . S
N812 H819 0.984 . S
N813 C806 1.356 . S
N813 H816 0.984 . S
N813 H817 0.985 . S
H814 N809 0.984 . S
H815 N809 0.985 . S
H816 N813 0.984 . S
H817 N813 0.985 . S
H818 N812 0.984 . S
H819 N812 0.984 . S
H820 N808 0.984 . S
H821 N808 0.985 . S
C822 C823 1.363 . S
C822 C828 1.379 . S
C822 N830 1.356 . S
C823 C822 1.363 . S
C823 C829 1.363 . S
C824 C825 1.363 1_565 S
C824 C829 1.379 1_565 S
C824 N831 1.356 . S
C825 C824 1.363 1_545 S
C825 C828 1.363 . S
N826 C828 1.356 . S
N826 H838 0.984 . S
N826 H839 0.985 . S
N827 C829 1.361 . S
N827 H832 1.004 . S
N827 H833 0.961 1_545 S
C828 C822 1.379 . S
C828 C825 1.363 . S
C828 N826 1.356 . S
C829 C823 1.363 . S
C829 C824 1.379 1_545 S
C829 N827 1.361 . S
N830 C822 1.356 . S
N830 H836 0.984 . S
N830 H837 0.984 . S
N831 C824 1.356 . S
N831 H834 0.984 . S
N831 H835 0.985 . S
H832 N827 1.004 . S
H833 N827 0.961 1_565 S
H834 N831 0.984 . S
H835 N831 0.985 . S
H836 N830 0.984 . S
H837 N830 0.984 . S
H838 N826 0.984 . S
H839 N826 0.985 . S
C840 C841 1.363 . S
C840 C846 1.379 . S
C840 N848 1.356 . S
C841 C840 1.363 . S
C841 C847 1.363 . S
C842 C843 1.363 . S
C842 C847 1.379 . S
C842 N849 1.356 . S
C843 C842 1.363 . S
C843 C846 1.363 . S
N844 C846 1.356 . S
N844 H856 0.984 . S
N844 H857 0.985 . S
N845 C847 1.356 . S
N845 H850 0.984 . S
N845 H851 0.985 . S
C846 C840 1.379 . S
C846 C843 1.363 . S
C846 N844 1.356 . S
C847 C841 1.363 . S
C847 C842 1.379 . S
C847 N845 1.356 . S
N848 C840 1.356 . S
N848 H854 0.984 . S
N848 H855 0.984 . S
N849 C842 1.356 . S
N849 H852 0.984 . S
N849 H853 0.985 . S
H850 N845 0.984 . S
H851 N845 0.985 . S
H852 N849 0.984 . S
H853 N849 0.985 . S
H854 N848 0.984 . S
H855 N848 0.984 . S
H856 N844 0.984 . S
H857 N844 0.985 . S
C858 C859 1.363 . S
C858 C864 1.379 . S
C858 N866 1.356 . S
C859 C858 1.363 . S
C859 C865 1.363 1_545 S
C860 C861 1.363 . S
C860 C865 1.379 1_545 S
C860 N867 1.356 . S
C861 C860 1.363 . S
C861 C864 1.363 . S
N862 C864 1.356 . S
N862 H874 0.984 . S
N862 H875 0.985 . S
N863 C865 1.356 . S
N863 H868 0.984 . S
N863 H869 0.985 . S
C864 C858 1.379 . S
C864 C861 1.363 . S
C864 N862 1.356 . S
C865 C859 1.363 1_565 S
C865 C860 1.379 1_565 S
C865 N863 1.356 . S
N866 C858 1.356 . S
N866 H872 0.984 . S
N866 H873 0.984 . S
N867 C860 1.356 . S
N867 H870 0.984 . S
N867 H871 0.985 1_545 S
H868 N863 0.984 . S
H869 N863 0.985 . S
H870 N867 0.984 . S
H871 N867 0.985 1_565 S
H872 N866 0.984 . S
H873 N866 0.984 . S
H874 N862 0.984 . S
H875 N862 0.985 . S
C876 C877 1.363 . S
C876 C882 1.379 1_554 S
C876 N884 1.356 . S
C877 C876 1.363 . S
C877 C883 1.363 . S
C878 C879 1.363 . S
C878 C883 1.379 1_556 S
C878 N885 1.356 . S
C879 C878 1.363 . S
C879 C882 1.363 . S
N880 C882 1.356 . S
N880 H892 0.984 . S
N880 H893 0.985 . S
N881 C883 1.356 . S
N881 H886 0.984 . S
N881 H887 0.985 . S
C882 C876 1.379 1_556 S
C882 C879 1.363 . S
C882 N880 1.356 . S
C883 C877 1.363 . S
C883 C878 1.379 1_554 S
C883 N881 1.356 . S
N884 C876 1.356 . S
N884 H890 0.984 . S
N884 H891 0.984 . S
N885 C878 1.356 . S
N885 H888 0.984 . S
N885 H889 0.985 . S
H886 N881 0.984 . S
H887 N881 0.985 . S
H888 N885 0.984 . S
H889 N885 0.985 . S
H890 N884 0.984 . S
H891 N884 0.984 . S
H892 N880 0.984 . S
H893 N880 0.985 . S
C894 C895 1.363 . S
C894 C900 1.379 . S
C894 N902 1.356 . S
C895 C894 1.363 . S
C895 C901 1.363 1_565 S
C896 C897 1.363 . S
C896 C901 1.379 1_565 S
C896 N903 1.359 . S
C897 C896 1.363 . S
C897 C900 1.363 . S
N898 C900 1.356 . S
N898 H910 0.984 . S
N898 H911 0.985 . S
N899 C901 1.356 . S
N899 H904 0.984 . S
N899 H905 0.985 . S
C900 C894 1.379 . S
C900 C897 1.363 . S
C900 N898 1.356 . S
C901 C895 1.363 1_545 S
C901 C896 1.379 1_545 S
C901 N899 1.356 . S
N902 C894 1.356 . S
N902 H908 0.984 . S
N902 H909 0.984 . S
N903 C896 1.359 . S
N903 H906 0.994 . S
N903 H907 0.972 1_565 S
H904 N899 0.984 . S
H905 N899 0.985 . S
H906 N903 0.994 . S
H907 N903 0.972 1_545 S
H908 N902 0.984 . S
H909 N902 0.984 . S
H910 N898 0.984 . S
H911 N898 0.985 . S
C912 C913 1.363 . S
C912 C918 1.379 . S
C912 N920 1.356 . S
C913 C912 1.363 . S
C913 C919 1.363 . S
C914 C915 1.363 . S
C914 C919 1.379 . S
C914 N921 1.356 . S
C915 C914 1.363 . S
C915 C918 1.363 . S
N916 C918 1.356 . S
N916 H928 0.984 . S
N916 H929 0.985 . S
N917 C919 1.356 . S
N917 H922 0.984 . S
N917 H923 0.985 . S
C918 C912 1.379 . S
C918 C915 1.363 . S
C918 N916 1.356 . S
C919 C913 1.363 . S
C919 C914 1.379 . S
C919 N917 1.356 . S
N920 C912 1.356 . S
N920 H926 0.984 . S
N920 H927 0.984 . S
N921 C914 1.356 . S
N921 H924 0.984 . S
N921 H925 0.985 . S
H922 N917 0.984 . S
H923 N917 0.985 . S
H924 N921 0.984 . S
H925 N921 0.985 . S
H926 N920 0.984 . S
H927 N920 0.984 . S
H928 N916 0.984 . S
H929 N916 0.985 . S
C930 C931 1.363 . S
C930 C936 1.379 . S
C930 N938 1.356 . S
C931 C930 1.363 . S
C931 C937 1.363 . S
C932 C933 1.363 . S
C932 C937 1.379 . S
C932 N939 1.356 . S
C933 C932 1.363 . S
C933 C936 1.363 . S
N934 C936 1.356 . S
N934 H946 0.984 . S
N934 H947 0.985 . S
N935 C937 1.356 . S
N935 H940 0.984 . S
N935 H941 0.985 . S
C936 C930 1.379 . S
C936 C933 1.363 . S
C936 N934 1.356 . S
C937 C931 1.363 . S
C937 C932 1.379 . S
C937 N935 1.356 . S
N938 C930 1.356 . S
N938 H944 0.984 . S
N938 H945 0.984 . S
N939 C932 1.356 . S
N939 H942 0.984 . S
N939 H943 0.985 . S
H940 N935 0.984 . S
H941 N935 0.985 . S
H942 N939 0.984 . S
H943 N939 0.985 . S
H944 N938 0.984 . S
H945 N938 0.984 . S
H946 N934 0.984 . S
H947 N934 0.985 . S
C948 C949 1.363 . S
C948 C954 1.379 1_655 S
C948 N956 1.356 . S
C949 C948 1.363 . S
C949 C955 1.363 . S
C950 C951 1.363 . S
C950 C955 1.379 1_455 S
C950 N957 1.356 . S
C951 C950 1.363 . S
C951 C954 1.363 . S
N952 C954 1.356 . S
N952 H964 0.984 . S
N952 H965 0.985 . S
N953 C955 1.356 . S
N953 H958 0.984 . S
N953 H959 0.985 . S
C954 C948 1.379 1_455 S
C954 C951 1.363 . S
C954 N952 1.356 . S
C955 C949 1.363 . S
C955 C950 1.379 1_655 S
C955 N953 1.356 . S
N956 C948 1.356 . S
N956 H962 0.984 . S
N956 H963 0.984 . S
N957 C950 1.356 . S
N957 H960 0.984 . S
N957 H961 0.985 . S
H958 N953 0.984 . S
H959 N953 0.985 . S
H960 N957 0.984 . S
H961 N957 0.985 . S
H962 N956 0.984 . S
H963 N956 0.984 . S
H964 N952 0.984 . S
H965 N952 0.985 . S
C966 C967 1.363 . S
C966 C972 1.379 . S
C966 N974 1.356 . S
C967 C966 1.363 . S
C967 C973 1.363 1_655 S
C968 C969 1.363 . S
C968 C973 1.379 . S
C968 N975 1.356 . S
C969 C968 1.363 . S
C969 C972 1.363 1_455 S
N970 C972 1.356 . S
N970 H982 0.984 . S
N970 H983 0.985 1_655 S
N971 C973 1.356 . S
N971 H976 0.984 1_455 S
N971 H977 0.985 . S
C972 C966 1.379 . S
C972 C969 1.363 1_655 S
C972 N970 1.356 . S
C973 C967 1.363 1_455 S
C973 C968 1.379 . S
C973 N971 1.356 . S
N974 C966 1.356 . S
N974 H980 0.984 . S
N974 H981 0.984 . S
N975 C968 1.356 . S
N975 H978 0.984 . S
N975 H979 0.985 . S
H976 N971 0.984 1_655 S
H977 N971 0.985 . S
H978 N975 0.984 . S
H979 N975 0.985 . S
H980 N974 0.984 . S
H981 N974 0.984 . S
H982 N970 0.984 . S
H983 N970 0.985 1_455 S
C984 C985 1.363 . S
C984 C990 1.379 . S
C984 N992 1.356 . S
C985 C984 1.363 . S
C985 C991 1.363 . S
C986 C987 1.363 . S
C986 C991 1.379 . S
C986 N993 1.356 . S
C987 C986 1.363 . S
C987 C990 1.363 . S
N988 C990 1.356 . S
N988 H1000 0.984 . S
N988 H1001 0.985 . S
N989 C991 1.356 . S
N989 H994 0.984 . S
N989 H995 0.985 . S
C990 C984 1.379 . S
C990 C987 1.363 . S
C990 N988 1.356 . S
C991 C985 1.363 . S
C991 C986 1.379 . S
C991 N989 1.356 . S
N992 C984 1.356 . S
N992 H998 0.984 . S
N992 H999 0.984 . S
N993 C986 1.356 . S
N993 H996 0.984 . S
N993 H997 0.985 . S
H994 N989 0.984 . S
H995 N989 0.985 . S
H996 N993 0.984 . S
H997 N993 0.985 . S
H998 N992 0.984 . S
H999 N992 0.984 . S
H1000 N988 0.984 . S
H1001 N988 0.985 . S
C1002 C1003 1.363 . S
C1002 C1008 1.379 . S
C1002 N1010 1.356 . S
C1003 C1002 1.363 . S
C1003 C1009 1.363 . S
C1004 C1005 1.363 . S
C1004 C1009 1.379 . S
C1004 N1011 1.356 . S
C1005 C1004 1.363 . S
C1005 C1008 1.363 . S
N1006 C1008 1.356 . S
N1006 H1018 0.984 . S
N1006 H1019 0.985 . S
N1007 C1009 1.356 . S
N1007 H1012 0.984 . S
N1007 H1013 0.985 . S
C1008 C1002 1.379 . S
C1008 C1005 1.363 . S
C1008 N1006 1.356 . S
C1009 C1003 1.363 . S
C1009 C1004 1.379 . S
C1009 N1007 1.356 . S
N1010 C1002 1.356 . S
N1010 H1016 0.984 . S
N1010 H1017 0.984 . S
N1011 C1004 1.356 . S
N1011 H1014 0.984 . S
N1011 H1015 0.985 . S
H1012 N1007 0.984 . S
H1013 N1007 0.985 . S
H1014 N1011 0.984 . S
H1015 N1011 0.985 . S
H1016 N1010 0.984 . S
H1017 N1010 0.984 . S
H1018 N1006 0.984 . S
H1019 N1006 0.985 . S
C1020 C1021 1.363 . S
C1020 C1026 1.379 1_455 S
C1020 N1028 1.356 . S
C1021 C1020 1.363 . S
C1021 C1027 1.363 . S
C1022 C1023 1.363 . S
C1022 C1027 1.379 1_655 S
C1022 N1029 1.356 . S
C1023 C1022 1.363 . S
C1023 C1026 1.363 . S
N1024 C1026 1.356 . S
N1024 H1036 0.984 . S
N1024 H1037 0.985 . S
N1025 C1027 1.356 . S
N1025 H1030 0.984 . S
N1025 H1031 0.985 . S
C1026 C1020 1.379 1_655 S
C1026 C1023 1.363 . S
C1026 N1024 1.356 . S
C1027 C1021 1.363 . S
C1027 C1022 1.379 1_455 S
C1027 N1025 1.356 . S
N1028 C1020 1.356 . S
N1028 H1034 0.984 . S
N1028 H1035 0.984 . S
N1029 C1022 1.356 . S
N1029 H1032 0.984 . S
N1029 H1033 0.985 . S
H1030 N1025 0.984 . S
H1031 N1025 0.985 . S
H1032 N1029 0.984 . S
H1033 N1029 0.985 . S
H1034 N1028 0.984 . S
H1035 N1028 0.984 . S
H1036 N1024 0.984 . S
H1037 N1024 0.985 . S
C1038 C1039 1.363 . S
C1038 C1044 1.379 . S
C1038 N1046 1.356 . S
C1039 C1038 1.363 . S
C1039 C1045 1.363 1_455 S
C1040 C1041 1.363 . S
C1040 C1045 1.379 . S
C1040 N1047 1.356 . S
C1041 C1040 1.363 . S
C1041 C1044 1.363 1_655 S
N1042 C1044 1.356 . S
N1042 H1054 0.984 . S
N1042 H1055 0.985 1_455 S
N1043 C1045 1.356 . S
N1043 H1048 0.984 1_655 S
N1043 H1049 0.985 . S
C1044 C1038 1.379 . S
C1044 C1041 1.363 1_455 S
C1044 N1042 1.356 . S
C1045 C1039 1.363 1_655 S
C1045 C1040 1.379 . S
C1045 N1043 1.356 . S
N1046 C1038 1.356 . S
N1046 H1052 0.984 . S
N1046 H1053 0.984 . S
N1047 C1040 1.356 . S
N1047 H1050 0.984 . S
N1047 H1051 0.985 . S
H1048 N1043 0.984 1_455 S
H1049 N1043 0.985 . S
H1050 N1047 0.984 . S
H1051 N1047 0.985 . S
H1052 N1046 0.984 . S
H1053 N1046 0.984 . S
H1054 N1042 0.984 . S
H1055 N1042 0.985 1_655 S
C1056 C1057 1.363 . S
C1056 C1062 1.379 . S
C1056 N1064 1.356 . S
C1057 C1056 1.363 . S
C1057 C1063 1.363 . S
C1058 C1059 1.363 . S
C1058 C1063 1.379 . S
C1058 N1065 1.356 . S
C1059 C1058 1.363 . S
C1059 C1062 1.363 . S
N1060 C1062 1.356 . S
N1060 H1072 0.984 . S
N1060 H1073 0.985 . S
N1061 C1063 1.356 . S
N1061 H1066 0.984 . S
N1061 H1067 0.985 . S
C1062 C1056 1.379 . S
C1062 C1059 1.363 . S
C1062 N1060 1.356 . S
C1063 C1057 1.363 . S
C1063 C1058 1.379 . S
C1063 N1061 1.356 . S
N1064 C1056 1.356 . S
N1064 H1070 0.984 . S
N1064 H1071 0.984 . S
N1065 C1058 1.356 . S
N1065 H1068 0.984 . S
N1065 H1069 0.985 . S
H1066 N1061 0.984 . S
H1067 N1061 0.985 . S
H1068 N1065 0.984 . S
H1069 N1065 0.985 . S
H1070 N1064 0.984 . S
H1071 N1064 0.984 . S
H1072 N1060 0.984 . S
H1073 N1060 0.985 . S
C1074 C1075 1.363 . S
C1074 C1080 1.379 . S
C1074 N1082 1.356 . S
C1075 C1074 1.363 . S
C1075 C1081 1.363 . S
C1076 C1077 1.363 . S
C1076 C1081 1.379 . S
C1076 N1083 1.356 . S
C1077 C1076 1.363 . S
C1077 C1080 1.363 . S
N1078 C1080 1.356 . S
N1078 H1090 0.984 . S
N1078 H1091 0.985 . S
N1079 C1081 1.356 . S
N1079 H1084 0.984 . S
N1079 H1085 0.985 . S
C1080 C1074 1.379 . S
C1080 C1077 1.363 . S
C1080 N1078 1.356 . S
C1081 C1075 1.363 . S
C1081 C1076 1.379 . S
C1081 N1079 1.356 . S
N1082 C1074 1.356 . S
N1082 H1088 0.984 . S
N1082 H1089 0.984 . S
N1083 C1076 1.356 . S
N1083 H1086 0.984 . S
N1083 H1087 0.985 . S
H1084 N1079 0.984 . S
H1085 N1079 0.985 . S
H1086 N1083 0.984 . S
H1087 N1083 0.985 . S
H1088 N1082 0.984 . S
H1089 N1082 0.984 . S
H1090 N1078 0.984 . S
H1091 N1078 0.985 . S
C1092 C1093 1.363 . S
C1092 C1098 1.379 . S
C1092 N1100 1.356 . S
C1093 C1092 1.363 . S
C1093 C1099 1.363 . S
C1094 C1095 1.363 . S
C1094 C1099 1.379 . S
C1094 N1101 1.356 . S
C1095 C1094 1.363 . S
C1095 C1098 1.363 . S
N1096 C1098 1.356 . S
N1096 H1108 0.984 . S
N1096 H1109 0.985 . S
N1097 C1099 1.356 . S
N1097 H1102 0.984 . S
N1097 H1103 0.985 . S
C1098 C1092 1.379 . S
C1098 C1095 1.363 . S
C1098 N1096 1.356 . S
C1099 C1093 1.363 . S
C1099 C1094 1.379 . S
C1099 N1097 1.356 . S
N1100 C1092 1.356 . S
N1100 H1106 0.984 . S
N1100 H1107 0.984 . S
N1101 C1094 1.356 . S
N1101 H1104 0.984 . S
N1101 H1105 0.985 . S
H1102 N1097 0.984 . S
H1103 N1097 0.985 . S
H1104 N1101 0.984 . S
H1105 N1101 0.985 . S
H1106 N1100 0.984 . S
H1107 N1100 0.984 . S
H1108 N1096 0.984 . S
H1109 N1096 0.985 . S
C1110 C1111 1.363 1_455 S
C1110 C1116 1.379 . S
C1110 N1118 1.356 1_455 S
C1111 C1110 1.363 1_655 S
C1111 C1117 1.363 1_655 S
C1112 C1113 1.363 . S
C1112 C1117 1.379 . S
C1112 N1119 1.356 . S
C1113 C1112 1.363 . S
C1113 C1116 1.363 . S
N1114 C1116 1.356 . S
N1114 H1126 0.984 . S
N1114 H1127 0.985 . S
N1115 C1117 1.356 1_655 S
N1115 H1120 0.984 . S
N1115 H1121 0.985 . S
C1116 C1110 1.379 . S
C1116 C1113 1.363 . S
C1116 N1114 1.356 . S
C1117 C1111 1.363 1_455 S
C1117 C1112 1.379 . S
C1117 N1115 1.356 1_455 S
N1118 C1110 1.356 1_655 S
N1118 H1124 0.984 1_655 S
N1118 H1125 0.984 . S
N1119 C1112 1.356 . S
N1119 H1122 0.984 . S
N1119 H1123 0.985 . S
H1120 N1115 0.984 . S
H1121 N1115 0.985 . S
H1122 N1119 0.984 . S
H1123 N1119 0.985 . S
H1124 N1118 0.984 1_455 S
H1125 N1118 0.984 . S
H1126 N1114 0.984 . S
H1127 N1114 0.985 . S
C1128 C1129 1.363 . S
C1128 C1134 1.379 . S
C1128 N1136 1.356 . S
C1129 C1128 1.363 . S
C1129 C1135 1.363 . S
C1130 C1131 1.363 . S
C1130 C1135 1.379 . S
C1130 N1137 1.356 . S
C1131 C1130 1.363 . S
C1131 C1134 1.363 . S
N1132 C1134 1.356 . S
N1132 H1144 0.984 . S
N1132 H1145 0.985 . S
N1133 C1135 1.356 . S
N1133 H1138 0.984 . S
N1133 H1139 0.985 . S
C1134 C1128 1.379 . S
C1134 C1131 1.363 . S
C1134 N1132 1.356 . S
C1135 C1129 1.363 . S
C1135 C1130 1.379 . S
C1135 N1133 1.356 . S
N1136 C1128 1.356 . S
N1136 H1142 0.984 . S
N1136 H1143 0.984 . S
N1137 C1130 1.356 . S
N1137 H1140 0.984 . S
N1137 H1141 0.985 . S
H1138 N1133 0.984 . S
H1139 N1133 0.985 . S
H1140 N1137 0.984 . S
H1141 N1137 0.985 . S
H1142 N1136 0.984 . S
H1143 N1136 0.984 . S
H1144 N1132 0.984 . S
H1145 N1132 0.985 . S
C1146 C1147 1.363 . S
C1146 C1152 1.379 . S
C1146 N1154 1.356 . S
C1147 C1146 1.363 . S
C1147 C1153 1.363 . S
C1148 C1149 1.363 . S
C1148 C1153 1.379 . S
C1148 N1155 1.356 . S
C1149 C1148 1.363 . S
C1149 C1152 1.363 . S
N1150 C1152 1.356 . S
N1150 H1162 0.984 . S
N1150 H1163 0.985 . S
N1151 C1153 1.356 . S
N1151 H1156 0.984 . S
N1151 H1157 0.985 . S
C1152 C1146 1.379 . S
C1152 C1149 1.363 . S
C1152 N1150 1.356 . S
C1153 C1147 1.363 . S
C1153 C1148 1.379 . S
C1153 N1151 1.356 . S
N1154 C1146 1.356 . S
N1154 H1160 0.984 . S
N1154 H1161 0.984 . S
N1155 C1148 1.356 . S
N1155 H1158 0.984 . S
N1155 H1159 0.985 . S
H1156 N1151 0.984 . S
H1157 N1151 0.985 . S
H1158 N1155 0.984 . S
H1159 N1155 0.985 . S
H1160 N1154 0.984 . S
H1161 N1154 0.984 . S
H1162 N1150 0.984 . S
H1163 N1150 0.985 . S
C1164 C1165 1.363 . S
C1164 C1170 1.379 . S
C1164 N1172 1.356 . S
C1165 C1164 1.363 . S
C1165 C1171 1.363 . S
C1166 C1167 1.363 . S
C1166 C1171 1.379 . S
C1166 N1173 1.356 . S
C1167 C1166 1.363 . S
C1167 C1170 1.363 . S
N1168 C1170 1.356 . S
N1168 H1180 0.984 . S
N1168 H1181 0.985 . S
N1169 C1171 1.356 . S
N1169 H1174 0.984 . S
N1169 H1175 0.985 . S
C1170 C1164 1.379 . S
C1170 C1167 1.363 . S
C1170 N1168 1.356 . S
C1171 C1165 1.363 . S
C1171 C1166 1.379 . S
C1171 N1169 1.356 . S
N1172 C1164 1.356 . S
N1172 H1178 0.984 . S
N1172 H1179 0.984 . S
N1173 C1166 1.356 . S
N1173 H1176 0.984 . S
N1173 H1177 0.985 . S
H1174 N1169 0.984 . S
H1175 N1169 0.985 . S
H1176 N1173 0.984 . S
H1177 N1173 0.985 . S
H1178 N1172 0.984 . S
H1179 N1172 0.984 . S
H1180 N1168 0.984 . S
H1181 N1168 0.985 . S
C1182 C1183 1.363 . S
C1182 C1188 1.379 . S
C1182 N1190 1.356 . S
C1183 C1182 1.363 . S
C1183 C1189 1.363 . S
C1184 C1185 1.363 1_655 S
C1184 C1189 1.379 . S
C1184 N1191 1.361 . S
C1185 C1184 1.363 1_455 S
C1185 C1188 1.363 1_455 S
N1186 C1188 1.356 1_455 S
N1186 H1198 0.984 . S
N1186 H1199 0.985 . S
N1187 C1189 1.356 . S
N1187 H1192 0.984 . S
N1187 H1193 0.985 . S
C1188 C1182 1.379 . S
C1188 C1185 1.363 1_655 S
C1188 N1186 1.356 1_655 S
C1189 C1183 1.363 . S
C1189 C1184 1.379 . S
C1189 N1187 1.356 . S
N1190 C1182 1.356 . S
N1190 H1196 0.984 . S
N1190 H1197 0.984 . S
N1191 C1184 1.361 . S
N1191 H1194 0.975 1_655 S
N1191 H1195 0.989 . S
H1192 N1187 0.984 . S
H1193 N1187 0.985 . S
H1194 N1191 0.975 1_455 S
H1195 N1191 0.989 . S
H1196 N1190 0.984 . S
H1197 N1190 0.984 . S
H1198 N1186 0.984 . S
H1199 N1186 0.985 . S
C1200 C1201 1.363 . S
C1200 C1206 1.379 . S
C1200 N1208 1.356 . S
C1201 C1200 1.363 . S
C1201 C1207 1.363 . S
C1202 C1203 1.363 . S
C1202 C1207 1.379 . S
C1202 N1209 1.356 . S
C1203 C1202 1.363 . S
C1203 C1206 1.363 . S
N1204 C1206 1.356 . S
N1204 H1216 0.984 . S
N1204 H1217 0.985 . S
N1205 C1207 1.356 . S
N1205 H1210 0.984 . S
N1205 H1211 0.985 . S
C1206 C1200 1.379 . S
C1206 C1203 1.363 . S
C1206 N1204 1.356 . S
C1207 C1201 1.363 . S
C1207 C1202 1.379 . S
C1207 N1205 1.356 . S
N1208 C1200 1.356 . S
N1208 H1214 0.984 . S
N1208 H1215 0.984 . S
N1209 C1202 1.356 . S
N1209 H1212 0.984 . S
N1209 H1213 0.985 . S
H1210 N1205 0.984 . S
H1211 N1205 0.985 . S
H1212 N1209 0.984 . S
H1213 N1209 0.985 . S
H1214 N1208 0.984 . S
H1215 N1208 0.984 . S
H1216 N1204 0.984 . S
H1217 N1204 0.985 . S
C1218 C1219 1.363 . S
C1218 C1224 1.379 . S
C1218 N1226 1.356 . S
C1219 C1218 1.363 . S
C1219 C1225 1.363 . S
C1220 C1221 1.363 1_655 S
C1220 C1225 1.379 . S
C1220 N1227 1.356 1_655 S
C1221 C1220 1.363 1_455 S
C1221 C1224 1.363 1_455 S
N1222 C1224 1.356 1_445 S
N1222 H1234 0.984 1_455 S
N1222 H1235 0.985 . S
N1223 C1225 1.356 . S
N1223 H1228 0.984 . S
N1223 H1229 0.985 . S
C1224 C1218 1.379 . S
C1224 C1221 1.363 1_655 S
C1224 N1222 1.356 1_665 S
C1225 C1219 1.363 . S
C1225 C1220 1.379 . S
C1225 N1223 1.356 . S
N1226 C1218 1.356 . S
N1226 H1232 0.984 . S
N1226 H1233 0.984 . S
N1227 C1220 1.356 1_455 S
N1227 H1230 0.984 . S
N1227 H1231 0.985 . S
H1228 N1223 0.984 . S
H1229 N1223 0.985 . S
H1230 N1227 0.984 . S
H1231 N1227 0.985 . S
H1232 N1226 0.984 . S
H1233 N1226 0.984 . S
H1234 N1222 0.984 1_655 S
H1235 N1222 0.985 . S
C1236 C1237 1.363 . S
C1236 C1242 1.379 . S
C1236 N1244 1.356 . S
C1237 C1236 1.363 . S
C1237 C1243 1.363 . S
C1238 C1239 1.363 . S
C1238 C1243 1.379 . S
C1238 N1245 1.356 . S
C1239 C1238 1.363 . S
C1239 C1242 1.363 . S
N1240 C1242 1.356 . S
N1240 H1252 0.984 . S
N1240 H1253 0.985 . S
N1241 C1243 1.356 . S
N1241 H1246 0.984 . S
N1241 H1247 0.985 . S
C1242 C1236 1.379 . S
C1242 C1239 1.363 . S
C1242 N1240 1.356 . S
C1243 C1237 1.363 . S
C1243 C1238 1.379 . S
C1243 N1241 1.356 . S
N1244 C1236 1.356 . S
N1244 H1250 0.984 . S
N1244 H1251 0.984 . S
N1245 C1238 1.356 . S
N1245 H1248 0.984 . S
N1245 H1249 0.985 . S
H1246 N1241 0.984 . S
H1247 N1241 0.985 . S
H1248 N1245 0.984 . S
H1249 N1245 0.985 . S
H1250 N1244 0.984 . S
H1251 N1244 0.984 . S
H1252 N1240 0.984 . S
H1253 N1240 0.985 . S
C1254 C1255 1.363 . S
C1254 C1260 1.379 . S
C1254 N1262 1.356 . S
C1255 C1254 1.363 . S
C1255 C1261 1.363 . S
C1256 C1257 1.363 . S
C1256 C1261 1.379 . S
C1256 N1263 1.356 . S
C1257 C1256 1.363 . S
C1257 C1260 1.363 . S
N1258 C1260 1.356 . S
N1258 H1270 0.984 . S
N1258 H1271 0.985 . S
N1259 C1261 1.356 1_565 S
N1259 H1264 0.984 . S
N1259 H1265 0.985 . S
C1260 C1254 1.379 . S
C1260 C1257 1.363 . S
C1260 N1258 1.356 . S
C1261 C1255 1.363 . S
C1261 C1256 1.379 . S
C1261 N1259 1.356 1_545 S
N1262 C1254 1.356 . S
N1262 H1268 0.984 . S
N1262 H1269 0.984 . S
N1263 C1256 1.356 . S
N1263 H1266 0.984 . S
N1263 H1267 0.985 . S
H1264 N1259 0.984 . S
H1265 N1259 0.985 . S
H1266 N1263 0.984 . S
H1267 N1263 0.985 . S
H1268 N1262 0.984 . S
H1269 N1262 0.984 . S
H1270 N1258 0.984 . S
H1271 N1258 0.985 . S
C1272 C1273 1.363 . S
C1272 C1278 1.379 . S
C1272 N1280 1.356 . S
C1273 C1272 1.363 . S
C1273 C1279 1.363 . S
C1274 C1275 1.363 . S
C1274 C1279 1.379 . S
C1274 N1281 1.356 . S
C1275 C1274 1.363 . S
C1275 C1278 1.363 . S
N1276 C1278 1.356 . S
N1276 H1288 0.984 . S
N1276 H1289 0.985 . S
N1277 C1279 1.356 . S
N1277 H1282 0.984 . S
N1277 H1283 0.985 . S
C1278 C1272 1.379 . S
C1278 C1275 1.363 . S
C1278 N1276 1.356 . S
C1279 C1273 1.363 . S
C1279 C1274 1.379 . S
C1279 N1277 1.356 . S
N1280 C1272 1.356 . S
N1280 H1286 0.984 . S
N1280 H1287 0.984 . S
N1281 C1274 1.356 . S
N1281 H1284 0.984 . S
N1281 H1285 0.985 . S
H1282 N1277 0.984 . S
H1283 N1277 0.985 . S
H1284 N1281 0.984 . S
H1285 N1281 0.985 . S
H1286 N1280 0.984 . S
H1287 N1280 0.984 . S
H1288 N1276 0.984 . S
H1289 N1276 0.985 . S
C1290 C1291 1.363 1_455 S
C1290 C1296 1.379 . S
C1290 N1298 1.356 1_445 S
C1291 C1290 1.363 1_655 S
C1291 C1297 1.363 1_655 S
C1292 C1293 1.363 . S
C1292 C1297 1.379 . S
C1292 N1299 1.356 . S
C1293 C1292 1.363 . S
C1293 C1296 1.363 . S
N1294 C1296 1.356 . S
N1294 H1306 0.984 . S
N1294 H1307 0.985 . S
N1295 C1297 1.356 1_655 S
N1295 H1300 0.984 . S
N1295 H1301 0.985 . S
C1296 C1290 1.379 . S
C1296 C1293 1.363 . S
C1296 N1294 1.356 . S
C1297 C1291 1.363 1_455 S
C1297 C1292 1.379 . S
C1297 N1295 1.356 1_455 S
N1298 C1290 1.356 1_665 S
N1298 H1304 0.984 1_655 S
N1298 H1305 0.984 . S
N1299 C1292 1.356 . S
N1299 H1302 0.984 . S
N1299 H1303 0.985 . S
H1300 N1295 0.984 . S
H1301 N1295 0.985 . S
H1302 N1299 0.984 . S
H1303 N1299 0.985 . S
H1304 N1298 0.984 1_455 S
H1305 N1298 0.984 . S
H1306 N1294 0.984 . S
H1307 N1294 0.985 . S
C1308 C1309 1.363 . S
C1308 C1314 1.379 . S
C1308 N1316 1.356 . S
C1309 C1308 1.363 . S
C1309 C1315 1.363 . S
C1310 C1311 1.363 . S
C1310 C1315 1.379 . S
C1310 N1317 1.356 . S
C1311 C1310 1.363 . S
C1311 C1314 1.363 . S
N1312 C1314 1.356 . S
N1312 H1324 0.984 . S
N1312 H1325 0.985 . S
N1313 C1315 1.356 . S
N1313 H1318 0.984 . S
N1313 H1319 0.985 . S
C1314 C1308 1.379 . S
C1314 C1311 1.363 . S
C1314 N1312 1.356 . S
C1315 C1309 1.363 . S
C1315 C1310 1.379 . S
C1315 N1313 1.356 . S
N1316 C1308 1.356 . S
N1316 H1322 0.984 . S
N1316 H1323 0.984 . S
N1317 C1310 1.356 . S
N1317 H1320 0.984 . S
N1317 H1321 0.985 . S
H1318 N1313 0.984 . S
H1319 N1313 0.985 . S
H1320 N1317 0.984 . S
H1321 N1317 0.985 . S
H1322 N1316 0.984 . S
H1323 N1316 0.984 . S
H1324 N1312 0.984 . S
H1325 N1312 0.985 . S
C1326 C1327 1.363 . S
C1326 C1332 1.379 . S
C1326 N1334 1.356 . S
C1327 C1326 1.363 . S
C1327 C1333 1.363 . S
C1328 C1329 1.363 . S
C1328 C1333 1.379 . S
C1328 N1335 1.356 . S
C1329 C1328 1.363 . S
C1329 C1332 1.363 . S
N1330 C1332 1.356 1_545 S
N1330 H1342 0.984 . S
N1330 H1343 0.985 . S
N1331 C1333 1.356 . S
N1331 H1336 0.984 . S
N1331 H1337 0.985 . S
C1332 C1326 1.379 . S
C1332 C1329 1.363 . S
C1332 N1330 1.356 1_565 S
C1333 C1327 1.363 . S
C1333 C1328 1.379 . S
C1333 N1331 1.356 . S
N1334 C1326 1.356 . S
N1334 H1340 0.984 . S
N1334 H1341 0.984 . S
N1335 C1328 1.356 . S
N1335 H1338 0.984 . S
N1335 H1339 0.985 . S
H1336 N1331 0.984 . S
H1337 N1331 0.985 . S
H1338 N1335 0.984 . S
H1339 N1335 0.985 . S
H1340 N1334 0.984 . S
H1341 N1334 0.984 . S
H1342 N1330 0.984 . S
H1343 N1330 0.985 . S
C481 C27 1.270 . S
C483 C376 1.270 . S
C499 C166 1.270 . S
C501 C57 1.270 . S
C517 C87 1.270 . S
C519 C436 1.270 . S
C535 C117 1.270 . S
C537 C226 1.270 . S
C553 C136 1.270 . S
C555 C267 1.270 . S
C571 C327 1.270 . S
C573 C196 1.270 . S
C589 C406 1.270 . S
C591 C297 1.270 . S
C607 C357 1.270 . S
C609 C466 1.270 . S
C625 C271 1.645 . S
C627 C16 1.609 . S
C643 C46 1.609 . S
C645 C301 1.645 . S
C661 C76 1.610 . S
C663 C331 1.646 . S
C679 C241 1.646 . S
C681 C106 1.609 . S
C697 C400 1.645 . S
C699 C147 1.609 . S
C715 C430 1.645 . S
C717 C177 1.609 . S
C733 C207 1.610 . S
C735 C460 1.646 . S
C751 C370 1.646 . S
C753 C237 1.609 . S
C769 C256 1.609 . S
C771 C31 1.645 . S
C787 C286 1.609 1_565 S
C789 C61 1.645 . S
C805 C316 1.609 . S
C807 C91 1.645 . S
C823 C1 1.646 . S
C825 C346 1.610 1_545 S
C841 C160 1.645 . S
C843 C387 1.609 . S
C859 C417 1.609 1_545 S
C861 C190 1.645 . S
C877 C220 1.645 . S
C879 C447 1.609 . S
C895 C477 1.610 1_565 S
C897 C130 1.646 . S
C913 N14 1.298 . S
C915 N314 1.298 . S
C931 N44 1.298 . S
C933 N344 1.298 . S
C949 N254 1.298 . S
C951 N74 1.298 . S
C967 N104 1.298 . S
C969 N284 1.298 . S
C985 N126 1.298 . S
C987 N426 1.298 . S
C1003 N156 1.298 . S
C1005 N456 1.298 . S
C1021 N366 1.298 . S
C1023 N186 1.298 . S
C1039 N216 1.298 . S
C1041 N396 1.298 . S
C1057 C10 1.254 . S
C1059 N224 1.285 . S
C1075 N374 1.285 . S
C1077 C40 1.254 . S
C1093 C70 1.254 . S
C1095 N164 1.285 . S
C1111 C100 1.254 . S
C1113 N434 1.285 . S
C1129 C121 1.254 . S
C1131 N96 1.285 . S
C1147 N246 1.285 . S
C1149 C151 1.254 . S
C1165 C181 1.254 . S
C1167 N36 1.285 . S
C1183 N306 1.285 . S
C1185 C211 1.254 . S
C1201 C250 1.254 . S
C1203 N464 1.285 . S
C1219 N134 1.285 . S
C1221 C280 1.254 . S
C1237 N404 1.285 . S
C1239 C310 1.254 . S
C1255 C340 1.254 . S
C1257 N194 1.285 . S
C1273 C361 1.254 . S
C1275 N336 1.285 . S
C1291 C391 1.254 . S
C1293 N6 1.285 . S
C1309 N276 1.285 . S
C1311 C421 1.254 . S
C1327 N66 1.285 . S
C1329 C451 1.254 . S
