# Generated by pormake.
# Topology ukf, (4)-cn, num edge types: 1
# Building blocks:
#     Node 0, Type 0, BuildingBlock: UXUYUI_clean_sbu_0, # of connection points: 4
#     Node 1, Type 0, BuildingBlock: UXUYUI_clean_sbu_0, # of connection points: 4
#     Node 2, Type 0, BuildingBlock: UXUYUI_clean_sbu_0, # of connection points: 4
#     Node 3, Type 0, BuildingBlock: UXUYUI_clean_sbu_0, # of connection points: 4
#     Node 4, Type 0, BuildingBlock: UXUYUI_clean_sbu_0, # of connection points: 4
#     Node 5, Type 0, BuildingBlock: UXUYUI_clean_sbu_0, # of connection points: 4
#     Node 6, Type 0, BuildingBlock: UXUYUI_clean_sbu_0, # of connection points: 4
#     Node 7, Type 0, BuildingBlock: UXUYUI_clean_sbu_0, # of connection points: 4
#     Node 8, Type 0, BuildingBlock: UXUYUI_clean_sbu_0, # of connection points: 4
#     Node 9, Type 0, BuildingBlock: UXUYUI_clean_sbu_0, # of connection points: 4
#     Node 10, Type 0, BuildingBlock: UXUYUI_clean_sbu_0, # of connection points: 4
#     Node 11, Type 0, BuildingBlock: UXUYUI_clean_sbu_0, # of connection points: 4
#     Edge 12, Type (0, 0), BuildingBlock: UVAHIK_clean_linker_0, # of connection points: 2
#     Edge 13, Type (0, 0), BuildingBlock: UVAHIK_clean_linker_0, # of connection points: 2
#     Edge 14, Type (0, 0), BuildingBlock: UVAHIK_clean_linker_0, # of connection points: 2
#     Edge 15, Type (0, 0), BuildingBlock: UVAHIK_clean_linker_0, # of connection points: 2
#     Edge 16, Type (0, 0), BuildingBlock: UVAHIK_clean_linker_0, # of connection points: 2
#     Edge 17, Type (0, 0), BuildingBlock: UVAHIK_clean_linker_0, # of connection points: 2
#     Edge 18, Type (0, 0), BuildingBlock: UVAHIK_clean_linker_0, # of connection points: 2
#     Edge 19, Type (0, 0), BuildingBlock: UVAHIK_clean_linker_0, # of connection points: 2
#     Edge 20, Type (0, 0), BuildingBlock: UVAHIK_clean_linker_0, # of connection points: 2
#     Edge 21, Type (0, 0), BuildingBlock: UVAHIK_clean_linker_0, # of connection points: 2
#     Edge 22, Type (0, 0), BuildingBlock: UVAHIK_clean_linker_0, # of connection points: 2
#     Edge 23, Type (0, 0), BuildingBlock: UVAHIK_clean_linker_0, # of connection points: 2
#     Edge 24, Type (0, 0), BuildingBlock: UVAHIK_clean_linker_0, # of connection points: 2
#     Edge 25, Type (0, 0), BuildingBlock: UVAHIK_clean_linker_0, # of connection points: 2
#     Edge 26, Type (0, 0), BuildingBlock: UVAHIK_clean_linker_0, # of connection points: 2
#     Edge 27, Type (0, 0), BuildingBlock: UVAHIK_clean_linker_0, # of connection points: 2
#     Edge 28, Type (0, 0), BuildingBlock: UVAHIK_clean_linker_0, # of connection points: 2
#     Edge 29, Type (0, 0), BuildingBlock: UVAHIK_clean_linker_0, # of connection points: 2
#     Edge 30, Type (0, 0), BuildingBlock: UVAHIK_clean_linker_0, # of connection points: 2
#     Edge 31, Type (0, 0), BuildingBlock: UVAHIK_clean_linker_0, # of connection points: 2
#     Edge 32, Type (0, 0), BuildingBlock: UVAHIK_clean_linker_0, # of connection points: 2
#     Edge 33, Type (0, 0), BuildingBlock: UVAHIK_clean_linker_0, # of connection points: 2
#     Edge 34, Type (0, 0), BuildingBlock: UVAHIK_clean_linker_0, # of connection points: 2
#     Edge 35, Type (0, 0), BuildingBlock: UVAHIK_clean_linker_0, # of connection points: 2
# Relax obj value: 0.271
# Max RMSD: 0.213
# Mean RMSD: 0.213
data_MOF--net-ukf--node1-UXUYUI_clean_sbu_0--edge1-UVAHIK_clean_linker_0
_symmetry_space_group_name_H-M    P1
_symmetry_Int_Tables_number       1
_symmetry_cell_setting            triclinic
loop_
_symmetry_equiv_pos_as_xyz
'x, y, z'
_cell_length_a     55.422698
_cell_length_b     55.414692
_cell_length_c     110.35947
_cell_angle_alpha  90.010253
_cell_angle_beta   89.990419
_cell_angle_gamma 119.99714
loop_
_atom_site_label
_atom_site_type_symbol
_atom_site_fract_x
_atom_site_fract_y
_atom_site_fract_z
_atom_type_partial_charge
Li0 Li 0.39379 0.2251 0.05907 0.0
Li1 Li 0.36693 0.20882 0.04093 0.0
Li2 Li 0.4169 0.22865 0.04015 0.0
Li3 Li 0.39702 0.25782 0.04391 0.0
C4 C 0.37216 0.16894 0.05381 0.0
N5 N 0.33694 0.11779 0.06423 0.0
C6 C 0.34994 0.16541 0.06106 0.0
C7 C 0.37648 0.14647 0.05187 0.0
C8 C 0.33236 0.13938 0.06624 0.0
C9 C 0.35845 0.12077 0.05722 0.0
C10 C 0.34277 0.23763 0.05105 0.0
C11 C 0.31518 0.24588 0.03652 0.0
N12 N 0.30007 0.24802 0.04574 0.0
C13 C 0.32696 0.23989 0.06038 0.0
C14 C 0.33683 0.24062 0.03901 0.0
C15 C 0.30546 0.24515 0.05751 0.0
C16 C 0.38508 0.23331 0.08328 0.0
N17 N 0.39428 0.21977 0.07603 0.0
C18 C 0.40394 0.19981 0.09322 0.0
C19 C 0.4035 0.20313 0.0807 0.0
C20 C 0.39445 0.21347 0.10093 0.0
C21 C 0.38483 0.23032 0.09583 0.0
H22 H 0.37799 0.24649 0.07928 0.0
H23 H 0.41047 0.19239 0.07473 0.0
C24 C 0.33536 0.16808 0.02394 0.0
N25 N 0.33317 0.18002 0.03431 0.0
C26 C 0.3121 0.1447 0.01919 0.0
C27 C 0.28458 0.14683 0.03572 0.0
C28 C 0.30842 0.17012 0.04018 0.0
C29 C 0.28633 0.13349 0.0252 0.0
H30 H 0.35545 0.1762 0.0196 0.0
H31 H 0.30732 0.17971 0.04853 0.0
C32 C 0.45062 0.26115 0.05922 0.0
N33 N 0.49634 0.26819 0.0722 0.0
C34 C 0.46958 0.28725 0.06398 0.0
C35 C 0.45498 0.23865 0.06102 0.0
C36 C 0.49255 0.29039 0.07053 0.0
C37 C 0.4782 0.24262 0.06762 0.0
C38 C 0.409 0.25253 0.01964 0.0
C39 C 0.43402 0.27708 0.02197 0.0
C40 C 0.40026 0.24488 0.00767 0.0
C41 C 0.4499 0.2936 0.01228 0.0
C42 C 0.41673 0.26196 0.99823 0.0
N43 N 0.441 0.28576 0.00071 0.0
C44 C 0.44165 0.20188 0.02782 0.0
C45 C 0.47215 0.2499 0.03168 0.0
C46 C 0.46312 0.1997 0.02224 0.0
N47 N 0.44656 0.22669 0.03241 0.0
C48 C 0.49412 0.24872 0.02613 0.0
C49 C 0.48977 0.22337 0.02133 0.0
H50 H 0.42104 0.1838 0.02852 0.0
H51 H 0.4756 0.26934 0.03549 0.0
C52 C 0.4161 0.3118 0.05133 0.0
N53 N 0.40266 0.29425 0.04199 0.0
C54 C 0.42425 0.33993 0.05046 0.0
C55 C 0.40348 0.33119 0.03051 0.0
C56 C 0.39573 0.30314 0.03178 0.0
C57 C 0.41839 0.35008 0.03986 0.0
H58 H 0.4212 0.30403 0.05935 0.0
H59 H 0.38494 0.28866 0.02448 0.0
O60 O 0.38963 0.19414 0.04854 0.0
O61 O 0.36387 0.23248 0.0538 0.0
O62 O 0.42806 0.25789 0.05278 0.0
O63 O 0.39301 0.23588 0.02894 0.0
H64 H 0.34623 0.18252 0.06269 0.0
H65 H 0.39361 0.14887 0.04629 0.0
H66 H 0.31507 0.13636 0.07186 0.0
H67 H 0.36155 0.10319 0.05579 0.0
H68 H 0.31037 0.24824 0.02724 0.0
H69 H 0.33123 0.23755 0.06974 0.0
H70 H 0.34866 0.23881 0.03165 0.0
H71 H 0.29306 0.24694 0.06464 0.0
H72 H 0.41123 0.18641 0.09682 0.0
H73 H 0.37759 0.24137 0.1015 0.0
H74 H 0.31462 0.13483 0.0112 0.0
H75 H 0.26513 0.13906 0.04059 0.0
H76 H 0.46661 0.30494 0.06262 0.0
H77 H 0.44067 0.21832 0.05736 0.0
H78 H 0.50737 0.31047 0.07427 0.0
H79 H 0.48179 0.22537 0.06909 0.0
H80 H 0.44111 0.28341 0.03116 0.0
H81 H 0.38093 0.22592 0.00572 0.0
H82 H 0.46929 0.31266 0.01397 0.0
H83 H 0.41022 0.25628 0.98892 0.0
H84 H 0.45885 0.17983 0.01857 0.0
H85 H 0.51444 0.26736 0.02578 0.0
H86 H 0.43601 0.35373 0.05783 0.0
H87 H 0.39825 0.33808 0.02224 0.0
Li88 Li 0.13832 0.39551 0.3778 0.0
Li89 Li 0.1874 0.4138 0.37545 0.0
Li90 Li 0.15654 0.36465 0.37334 0.0
Li91 Li 0.16541 0.38749 0.39361 0.0
C92 C 0.15756 0.41194 0.35439 0.0
N93 N 0.15597 0.44736 0.3372 0.0
C94 C 0.16519 0.43928 0.35749 0.0
C95 C 0.14912 0.40259 0.34255 0.0
C96 C 0.16426 0.45688 0.34868 0.0
C97 C 0.14846 0.42081 0.33399 0.0
C98 C 0.18117 0.44754 0.39427 0.0
C99 C 0.21227 0.47752 0.40985 0.0
N100 N 0.20658 0.49779 0.40653 0.0
C101 C 0.1755 0.46863 0.39107 0.0
C102 C 0.19959 0.45197 0.40379 0.0
C103 C 0.18862 0.4939 0.39735 0.0
C104 C 0.10497 0.41638 0.38548 0.0
N105 N 0.10895 0.4033 0.37594 0.0
C106 C 0.07456 0.40703 0.36435 0.0
C107 C 0.09393 0.39803 0.36556 0.0
C108 C 0.07086 0.42176 0.37388 0.0
C109 C 0.08617 0.42604 0.38461 0.0
H110 H 0.11713 0.42012 0.39364 0.0
H111 H 0.09738 0.38738 0.35814 0.0
C112 C 0.22815 0.44017 0.35743 0.0
N113 N 0.22115 0.44394 0.3688 0.0
C114 C 0.25242 0.46084 0.35193 0.0
C115 C 0.26195 0.48896 0.36994 0.0
C116 C 0.23761 0.4677 0.3751 0.0
C117 C 0.26967 0.48573 0.35819 0.0
H118 H 0.21493 0.42092 0.35266 0.0
H119 H 0.23213 0.47028 0.38415 0.0
C120 C 0.10234 0.33984 0.383 0.0
N121 N 0.04894 0.29947 0.37668 0.0
C122 C 0.08329 0.3236 0.39195 0.0
C123 C 0.09426 0.33557 0.37083 0.0
C124 C 0.05637 0.30328 0.38858 0.0
C125 C 0.06716 0.31506 0.36782 0.0
C126 C 0.2191 0.39311 0.38063 0.0
C127 C 0.22734 0.38427 0.37037 0.0
C128 C 0.23929 0.4129 0.38835 0.0
C129 C 0.25572 0.39563 0.36793 0.0
C130 C 0.26745 0.42378 0.38559 0.0
N131 N 0.27501 0.41501 0.37552 0.0
C132 C 0.15764 0.33317 0.35362 0.0
C133 C 0.14144 0.30818 0.37206 0.0
C134 C 0.15674 0.31016 0.34801 0.0
N135 N 0.15056 0.33188 0.36547 0.0
C136 C 0.14009 0.28462 0.3668 0.0
C137 C 0.14845 0.28564 0.3547 0.0
H138 H 0.16514 0.35248 0.34868 0.0
H139 H 0.13605 0.30789 0.3815 0.0
C140 C 0.14994 0.3856 0.41783 0.0
N141 N 0.16808 0.38307 0.4104 0.0
C142 C 0.15207 0.38402 0.43037 0.0
C143 C 0.19136 0.37701 0.4273 0.0
C144 C 0.18832 0.37852 0.41482 0.0
C145 C 0.17321 0.37998 0.43528 0.0
H146 H 0.13403 0.38917 0.41399 0.0
H147 H 0.20241 0.37656 0.40866 0.0
O148 O 0.15794 0.39414 0.36288 0.0
O149 O 0.16808 0.42244 0.38836 0.0
O150 O 0.12872 0.35985 0.3862 0.0
O151 O 0.19142 0.38287 0.38295 0.0
H152 H 0.17184 0.44686 0.36658 0.0
H153 H 0.14303 0.38142 0.34003 0.0
H154 H 0.17013 0.47811 0.35096 0.0
H155 H 0.14193 0.41385 0.32479 0.0
H156 H 0.22667 0.48125 0.41719 0.0
H157 H 0.16105 0.46555 0.38384 0.0
H158 H 0.20439 0.43606 0.40639 0.0
H159 H 0.18445 0.51039 0.39495 0.0
H160 H 0.0629 0.40278 0.35599 0.0
H161 H 0.0845 0.43763 0.39215 0.0
H162 H 0.25774 0.45722 0.34293 0.0
H163 H 0.27439 0.50789 0.37507 0.0
H164 H 0.08925 0.3267 0.40141 0.0
H165 H 0.10869 0.34794 0.36377 0.0
H166 H 0.0414 0.29055 0.39541 0.0
H167 H 0.06061 0.31154 0.35844 0.0
H168 H 0.21199 0.36904 0.36428 0.0
H169 H 0.23328 0.4201 0.39628 0.0
H170 H 0.26239 0.38912 0.35998 0.0
H171 H 0.2833 0.43929 0.39143 0.0
H172 H 0.1638 0.31208 0.33872 0.0
H173 H 0.13326 0.26607 0.37225 0.0
H174 H 0.13732 0.38595 0.43613 0.0
H175 H 0.20817 0.37423 0.43066 0.0
Li176 Li 0.77254 0.18794 0.70754 0.0
Li177 Li 0.73889 0.1384 0.70866 0.0
Li178 Li 0.77343 0.16358 0.72551 0.0
Li179 Li 0.78888 0.15378 0.70628 0.0
C180 C 0.73138 0.18566 0.72009 0.0
N181 N 0.71034 0.22154 0.72042 0.0
C182 C 0.70887 0.18057 0.71268 0.0
C183 C 0.743 0.20881 0.72776 0.0
C184 C 0.69857 0.19899 0.71296 0.0
C185 C 0.73213 0.22676 0.72777 0.0
C186 C 0.75671 0.14334 0.68453 0.0
C187 C 0.74811 0.10162 0.67402 0.0
N188 N 0.7427 0.11148 0.66369 0.0
C189 C 0.75126 0.15316 0.6738 0.0
C190 C 0.75528 0.11745 0.68463 0.0
C191 C 0.74413 0.1367 0.66337 0.0
C192 C 0.79705 0.24694 0.70535 0.0
N193 N 0.77682 0.22175 0.70124 0.0
C194 C 0.75989 0.24354 0.68771 0.0
C195 C 0.75848 0.21963 0.69256 0.0
C196 C 0.78041 0.26989 0.69185 0.0
C197 C 0.79917 0.27143 0.70079 0.0
H198 H 0.81155 0.24808 0.71216 0.0
H199 H 0.74251 0.19928 0.68952 0.0
C200 C 0.68668 0.09408 0.71484 0.0
N201 N 0.70132 0.11133 0.70556 0.0
C202 C 0.65789 0.07677 0.71389 0.0
C203 C 0.65996 0.09466 0.6937 0.0
C204 C 0.6887 0.11172 0.69506 0.0
C205 C 0.64412 0.0774 0.70332 0.0
H206 H 0.69727 0.0946 0.72315 0.0
H207 H 0.70062 0.12631 0.68799 0.0
C208 C 0.82723 0.2048 0.72291 0.0
N209 N 0.87087 0.23487 0.73871 0.0
C210 C 0.85072 0.20164 0.72269 0.0
C211 C 0.82606 0.22344 0.73109 0.0
C212 C 0.87254 0.217 0.73076 0.0
C213 C 0.84828 0.23838 0.73903 0.0
C214 C 0.76122 0.10224 0.72048 0.0
C215 C 0.77806 0.10099 0.7296 0.0
C216 C 0.74291 0.07799 0.71418 0.0
C217 C 0.77686 0.07568 0.73204 0.0
C218 C 0.7423 0.05307 0.71689 0.0
N219 N 0.75917 0.05244 0.72568 0.0
C220 C 0.75709 0.1646 0.74946 0.0
C221 C 0.80105 0.16734 0.74787 0.0
C222 C 0.75946 0.16664 0.76206 0.0
N223 N 0.77787 0.16531 0.74265 0.0
C224 C 0.80449 0.16987 0.76041 0.0
C225 C 0.78357 0.16965 0.76764 0.0
H226 H 0.73874 0.16265 0.7451 0.0
H227 H 0.81703 0.16727 0.74229 0.0
C228 C 0.82519 0.15869 0.68778 0.0
N229 N 0.81604 0.14712 0.69889 0.0
C230 C 0.8474 0.15789 0.68227 0.0
C231 C 0.85045 0.13317 0.69971 0.0
C232 C 0.82795 0.13424 0.70485 0.0
C233 C 0.86068 0.14547 0.68835 0.0
H234 H 0.81592 0.16954 0.68339 0.0
H235 H 0.82094 0.12597 0.71381 0.0
O236 O 0.74221 0.16826 0.71971 0.0
O237 O 0.76361 0.1592 0.69482 0.0
O238 O 0.80561 0.1898 0.7151 0.0
O239 O 0.76174 0.12675 0.71812 0.0
H240 H 0.69966 0.16278 0.70667 0.0
H241 H 0.76029 0.21294 0.73362 0.0
H242 H 0.68128 0.19541 0.70721 0.0
H243 H 0.74102 0.24486 0.73362 0.0
H244 H 0.74696 0.08155 0.67397 0.0
H245 H 0.75245 0.17324 0.67354 0.0
H246 H 0.76002 0.10985 0.69276 0.0
H247 H 0.73975 0.14399 0.65502 0.0
H248 H 0.74479 0.2414 0.68095 0.0
H249 H 0.81551 0.29135 0.70411 0.0
H250 H 0.64643 0.0636 0.72148 0.0
H251 H 0.65008 0.09612 0.68548 0.0
H252 H 0.85212 0.1875 0.71636 0.0
H253 H 0.808 0.22604 0.73144 0.0
H254 H 0.89081 0.21469 0.73072 0.0
H255 H 0.84754 0.25271 0.74548 0.0
H256 H 0.79216 0.11943 0.73464 0.0
H257 H 0.72915 0.07831 0.70731 0.0
H258 H 0.78998 0.0745 0.739 0.0
H259 H 0.72831 0.03419 0.71205 0.0
H260 H 0.74293 0.16648 0.76736 0.0
H261 H 0.82321 0.17179 0.76442 0.0
H262 H 0.85501 0.16819 0.67363 0.0
H263 H 0.8602 0.1235 0.70471 0.0
Li264 Li 0.63563 0.79305 0.0403 0.0
Li265 Li 0.60968 0.77911 0.05941 0.0
Li266 Li 0.60121 0.74344 0.04315 0.0
Li267 Li 0.58445 0.77652 0.04088 0.0
C268 C 0.66046 0.76884 0.05491 0.0
N269 N 0.71107 0.77211 0.05936 0.0
C270 C 0.6772 0.78505 0.0645 0.0
C271 C 0.66918 0.7538 0.04776 0.0
C272 C 0.70281 0.78658 0.06655 0.0
C273 C 0.69491 0.75586 0.0501 0.0
C274 C 0.62025 0.83269 0.0551 0.0
C275 C 0.60369 0.8554 0.06866 0.0
N276 N 0.62968 0.87816 0.06893 0.0
C277 C 0.64673 0.85641 0.05543 0.0
C278 C 0.59849 0.83225 0.06168 0.0
C279 C 0.6511 0.87915 0.06251 0.0
C280 C 0.66881 0.82653 0.02126 0.0
N281 N 0.6698 0.81965 0.03299 0.0
C282 C 0.71749 0.85554 0.03454 0.0
C283 C 0.69356 0.83345 0.03963 0.0
C284 C 0.71685 0.86358 0.02253 0.0
C285 C 0.69225 0.84838 0.01579 0.0
H286 H 0.64945 0.81584 0.01628 0.0
H287 H 0.6936 0.82834 0.04905 0.0
C288 C 0.59292 0.76363 0.08345 0.0
N289 N 0.61157 0.78503 0.07644 0.0
C290 C 0.59275 0.76681 0.09599 0.0
C291 C 0.63114 0.81395 0.09388 0.0
C292 C 0.63088 0.80968 0.08141 0.0
C293 C 0.61184 0.79235 0.1013 0.0
H294 H 0.57809 0.74409 0.07929 0.0
H295 H 0.64612 0.82604 0.07572 0.0
C296 C 0.61013 0.75742 0.01845 0.0
N297 N 0.61933 0.73712 0.99713 0.0
C298 C 0.59069 0.74889 0.00904 0.0
C299 C 0.63439 0.75594 0.01696 0.0
C300 C 0.59567 0.73858 0.99835 0.0
C301 C 0.63863 0.74555 0.00613 0.0
C302 C 0.54616 0.73592 0.05548 0.0
C303 C 0.52736 0.7106 0.05004 0.0
C304 C 0.53621 0.74929 0.06302 0.0
C305 C 0.49883 0.69936 0.05202 0.0
C306 C 0.50753 0.73738 0.06478 0.0
N307 N 0.48958 0.71289 0.05928 0.0
C308 C 0.59838 0.6924 0.04852 0.0
C309 C 0.57389 0.69216 0.03086 0.0
C310 C 0.5877 0.6637 0.04756 0.0
N311 N 0.59105 0.70587 0.04031 0.0
C312 C 0.56291 0.66355 0.0295 0.0
C313 C 0.56933 0.64887 0.03805 0.0
H314 H 0.61167 0.7038 0.05607 0.0
H315 H 0.5675 0.70312 0.02475 0.0
C316 C 0.55467 0.80427 0.03458 0.0
N317 N 0.55498 0.77994 0.03399 0.0
C318 C 0.53248 0.80614 0.02962 0.0
C319 C 0.51164 0.758 0.02337 0.0
C320 C 0.53432 0.75717 0.02836 0.0
C321 C 0.51045 0.78272 0.02398 0.0
H322 H 0.57171 0.82229 0.03883 0.0
H323 H 0.53542 0.73827 0.02779 0.0
O324 O 0.6352 0.76687 0.05287 0.0
O325 O 0.61567 0.81015 0.04828 0.0
O326 O 0.60547 0.7674 0.029 0.0
O327 O 0.57418 0.74736 0.05357 0.0
H328 H 0.67061 0.79654 0.07022 0.0
H329 H 0.65611 0.74044 0.04055 0.0
H330 H 0.71609 0.79926 0.07387 0.0
H331 H 0.70197 0.74443 0.04461 0.0
H332 H 0.58706 0.85527 0.07384 0.0
H333 H 0.66376 0.85723 0.05032 0.0
H334 H 0.57781 0.81426 0.06139 0.0
H335 H 0.67152 0.89759 0.06289 0.0
H336 H 0.736 0.86676 0.04006 0.0
H337 H 0.69061 0.85425 0.0066 0.0
H338 H 0.57756 0.74969 0.10145 0.0
H339 H 0.64647 0.83377 0.09771 0.0
H340 H 0.57187 0.75007 0.01002 0.0
H341 H 0.64989 0.76301 0.02405 0.0
H342 H 0.58073 0.73176 0.99102 0.0
H343 H 0.65731 0.74426 0.00487 0.0
H344 H 0.53468 0.69984 0.04427 0.0
H345 H 0.55047 0.76855 0.06752 0.0
H346 H 0.48403 0.67989 0.04779 0.0
H347 H 0.49954 0.74757 0.07056 0.0
H348 H 0.59318 0.6531 0.05432 0.0
H349 H 0.54838 0.65281 0.02219 0.0
H350 H 0.53276 0.82579 0.03008 0.0
H351 H 0.49507 0.73934 0.01922 0.0
Li352 Li 0.84034 0.63268 0.37373 0.0
Li353 Li 0.82868 0.60589 0.39238 0.0
Li354 Li 0.85608 0.6 0.37637 0.0
Li355 Li 0.80624 0.58265 0.37372 0.0
C356 C 0.88304 0.6612 0.38754 0.0
N357 N 0.91512 0.71845 0.38932 0.0
C358 C 0.87694 0.6755 0.39634 0.0
C359 C 0.90552 0.67594 0.37969 0.0
C360 C 0.8934 0.70447 0.39709 0.0
C361 C 0.92146 0.70491 0.38072 0.0
C362 C 0.77683 0.60593 0.38016 0.0
C363 C 0.72768 0.57589 0.38384 0.0
N364 N 0.72193 0.59026 0.37543 0.0
C365 C 0.77043 0.62037 0.37155 0.0
C366 C 0.75528 0.58351 0.38637 0.0
C367 C 0.74255 0.61216 0.3693 0.0
C368 C 0.86094 0.67633 0.3563 0.0
N369 N 0.8481 0.66754 0.3672 0.0
C370 C 0.83931 0.70549 0.3681 0.0
C371 C 0.8382 0.68205 0.37332 0.0
C372 C 0.851 0.71425 0.3565 0.0
C373 C 0.86287 0.69993 0.35081 0.0
H374 H 0.86868 0.66444 0.35165 0.0
H375 H 0.82801 0.67445 0.38197 0.0
C376 C 0.84407 0.60754 0.41686 0.0
N377 N 0.82431 0.60704 0.4094 0.0
C378 C 0.84101 0.60762 0.42941 0.0
C379 C 0.79778 0.60755 0.42634 0.0
C380 C 0.80167 0.60743 0.41386 0.0
C381 C 0.81752 0.60747 0.43431 0.0
H382 H 0.86209 0.60766 0.41304 0.0
H383 H 0.78667 0.60779 0.40774 0.0
C384 C 0.84817 0.59799 0.35251 0.0
N385 N 0.87213 0.58444 0.3337 0.0
C386 C 0.83239 0.57339 0.34596 0.0
C387 C 0.87607 0.61581 0.34944 0.0
C388 C 0.8449 0.5669 0.33649 0.0
C389 C 0.88782 0.60855 0.33992 0.0
C390 C 0.82213 0.55595 0.39583 0.0
C391 C 0.84537 0.55535 0.40037 0.0
C392 C 0.79678 0.54201 0.40204 0.0
C393 C 0.84291 0.54097 0.41112 0.0
C394 C 0.79519 0.52792 0.41277 0.0
N395 N 0.81809 0.5277 0.41705 0.0
C396 C 0.90991 0.60522 0.37775 0.0
C397 C 0.87478 0.5652 0.36767 0.0
C398 C 0.92866 0.59544 0.37652 0.0
N399 N 0.88353 0.58991 0.37339 0.0
C400 C 0.89296 0.555 0.36599 0.0
C401 C 0.9201 0.56998 0.37061 0.0
H402 H 0.91606 0.62451 0.38251 0.0
H403 H 0.85339 0.55304 0.36469 0.0
C404 C 0.75837 0.5579 0.35832 0.0
N405 N 0.77324 0.55306 0.3668 0.0
C406 C 0.73389 0.53579 0.35359 0.0
C407 C 0.74151 0.50409 0.36585 0.0
C408 C 0.76551 0.5268 0.37049 0.0
C409 C 0.72507 0.50837 0.35738 0.0
H410 H 0.76543 0.57892 0.35528 0.0
H411 H 0.77814 0.52345 0.37697 0.0
O412 O 0.86673 0.63296 0.38646 0.0
O413 O 0.804 0.61352 0.38244 0.0
O414 O 0.83634 0.60457 0.36188 0.0
O415 O 0.82423 0.57037 0.38545 0.0
H416 H 0.8595 0.66438 0.40244 0.0
H417 H 0.91043 0.66515 0.37281 0.0
H418 H 0.88886 0.71585 0.40381 0.0
H419 H 0.93884 0.71663 0.37467 0.0
H420 H 0.71081 0.55849 0.38853 0.0
H421 H 0.78673 0.63749 0.36651 0.0
H422 H 0.7598 0.57187 0.39295 0.0
H423 H 0.73731 0.62309 0.36263 0.0
H424 H 0.82953 0.71551 0.3728 0.0
H425 H 0.87258 0.70619 0.34198 0.0
H426 H 0.85666 0.60741 0.43521 0.0
H427 H 0.77969 0.60806 0.42972 0.0
H428 H 0.81077 0.55938 0.3482 0.0
H429 H 0.88865 0.6348 0.35448 0.0
H430 H 0.83298 0.54788 0.33137 0.0
H431 H 0.90945 0.62202 0.33751 0.0
H432 H 0.86518 0.5661 0.39573 0.0
H433 H 0.7786 0.54226 0.39866 0.0
H434 H 0.86076 0.54045 0.41476 0.0
H435 H 0.77575 0.51719 0.41771 0.0
H436 H 0.94943 0.60736 0.38028 0.0
H437 H 0.88551 0.53501 0.36161 0.0
H438 H 0.72193 0.54025 0.34713 0.0
H439 H 0.73616 0.48336 0.36879 0.0
Li440 Li 0.20444 0.83699 0.70822 0.0
Li441 Li 0.22062 0.83082 0.72842 0.0
Li442 Li 0.25401 0.8582 0.71207 0.0
Li443 Li 0.22551 0.80845 0.71053 0.0
C444 C 0.23154 0.89188 0.71705 0.0
N445 N 0.24061 0.94359 0.71001 0.0
C446 C 0.23276 0.91082 0.72573 0.0
C447 C 0.23495 0.89922 0.70479 0.0
C448 C 0.23736 0.93687 0.72198 0.0
C449 C 0.23951 0.92547 0.70142 0.0
C450 C 0.17305 0.77501 0.716 0.0
C451 C 0.15846 0.72692 0.72025 0.0
N452 N 0.13952 0.71889 0.71111 0.0
C453 C 0.1533 0.76627 0.70671 0.0
C454 C 0.17552 0.75518 0.72289 0.0
C455 C 0.13658 0.7378 0.70437 0.0
C456 C 0.17041 0.83294 0.68863 0.0
N457 N 0.17643 0.84106 0.70037 0.0
C458 C 0.13979 0.85182 0.70125 0.0
C459 C 0.16194 0.85069 0.7067 0.0
C460 C 0.13241 0.84271 0.68922 0.0
C461 C 0.14834 0.83354 0.68285 0.0
H462 H 0.18218 0.82511 0.6839 0.0
H463 H 0.16727 0.85698 0.71605 0.0
C464 C 0.2322 0.84968 0.75253 0.0
N465 N 0.21406 0.82852 0.74528 0.0
C466 C 0.22842 0.84784 0.76509 0.0
C467 C 0.18744 0.80249 0.76239 0.0
C468 C 0.19177 0.80539 0.74991 0.0
C469 C 0.20599 0.82383 0.77013 0.0
H470 H 0.24975 0.8678 0.74856 0.0
H471 H 0.17757 0.78903 0.7439 0.0
C472 C 0.25067 0.83633 0.68906 0.0
N473 N 0.28699 0.83674 0.6718 0.0
C474 C 0.27247 0.83194 0.69246 0.0
C475 C 0.24732 0.8409 0.67688 0.0
C476 C 0.29061 0.83223 0.6836 0.0
C477 C 0.26591 0.84104 0.66829 0.0
C478 C 0.26778 0.81969 0.72931 0.0
C479 C 0.29566 0.82856 0.72666 0.0
C480 C 0.2544 0.80039 0.73862 0.0
C481 C 0.30963 0.81783 0.73331 0.0
C482 C 0.26909 0.79017 0.74506 0.0
N483 N 0.29617 0.79902 0.74229 0.0
C484 C 0.30788 0.89674 0.71897 0.0
C485 C 0.2985 0.90151 0.69842 0.0
C486 C 0.33586 0.91678 0.71749 0.0
N487 N 0.29009 0.88904 0.70943 0.0
C488 C 0.32634 0.92173 0.69653 0.0
C489 C 0.34555 0.92916 0.70608 0.0
H490 H 0.30051 0.88649 0.72763 0.0
H491 H 0.28381 0.89524 0.69102 0.0
C492 C 0.20901 0.7648 0.69388 0.0
N493 N 0.22404 0.77539 0.70421 0.0
C494 C 0.20621 0.74052 0.68872 0.0
C495 C 0.23507 0.73887 0.70472 0.0
C496 C 0.23709 0.763 0.70962 0.0
C497 C 0.21932 0.72716 0.69416 0.0
H498 H 0.19894 0.77512 0.68971 0.0
H499 H 0.24911 0.77166 0.71772 0.0
O500 O 0.22709 0.86633 0.72061 0.0
O501 O 0.19007 0.80283 0.71824 0.0
O502 O 0.23267 0.83631 0.69756 0.0
O503 O 0.2539 0.83023 0.72296 0.0
H504 H 0.23019 0.90543 0.73525 0.0
H505 H 0.23406 0.88484 0.69795 0.0
H506 H 0.23835 0.95176 0.72859 0.0
H507 H 0.24218 0.93142 0.69196 0.0
H508 H 0.16035 0.71138 0.72543 0.0
H509 H 0.15103 0.78128 0.70132 0.0
H510 H 0.19078 0.76155 0.73007 0.0
H511 H 0.12132 0.73075 0.69716 0.0
H512 H 0.12832 0.85934 0.70645 0.0
H513 H 0.14315 0.82582 0.67366 0.0
H514 H 0.24322 0.86464 0.7708 0.0
H515 H 0.16975 0.78381 0.76597 0.0
H516 H 0.27537 0.82833 0.70181 0.0
H517 H 0.23059 0.84441 0.67411 0.0
H518 H 0.30757 0.82887 0.68611 0.0
H519 H 0.26358 0.84459 0.65883 0.0
H520 H 0.30643 0.84352 0.71951 0.0
H521 H 0.23285 0.79311 0.74077 0.0
H522 H 0.33118 0.82448 0.73133 0.0
H523 H 0.25894 0.77515 0.75225 0.0
H524 H 0.34993 0.92158 0.72508 0.0
H525 H 0.33283 0.93107 0.68765 0.0
H526 H 0.19359 0.73215 0.68066 0.0
H527 H 0.24605 0.72969 0.7091 0.0
Li528 Li 0.77203 0.60516 0.60574 0.0
Li529 Li 0.79044 0.6334 0.62421 0.0
Li530 Li 0.77405 0.58297 0.62401 0.0
Li531 Li 0.74068 0.59982 0.62264 0.0
C532 C 0.82592 0.6065 0.61704 0.0
N533 N 0.86548 0.59145 0.62205 0.0
C534 C 0.84756 0.62224 0.62514 0.0
C535 C 0.82455 0.58326 0.6114 0.0
C536 C 0.86734 0.61427 0.62757 0.0
C537 C 0.84469 0.57593 0.61408 0.0
C538 C 0.76625 0.65867 0.61107 0.0
C539 C 0.76202 0.69715 0.61872 0.0
N540 N 0.77414 0.7117 0.60842 0.0
C541 C 0.77845 0.67389 0.60052 0.0
C542 C 0.75777 0.67026 0.62021 0.0
C543 C 0.78234 0.70071 0.59937 0.0
C544 C 0.75622 0.60761 0.58158 0.0
N545 N 0.77563 0.60627 0.58863 0.0
C546 C 0.80105 0.6063 0.57116 0.0
C547 C 0.79783 0.60577 0.58371 0.0
C548 C 0.78124 0.60745 0.56362 0.0
C549 C 0.75855 0.60809 0.56897 0.0
H550 H 0.73894 0.60831 0.58578 0.0
H551 H 0.81307 0.60495 0.58952 0.0
C552 C 0.82589 0.66926 0.64222 0.0
N553 N 0.81822 0.66819 0.63046 0.0
C554 C 0.84936 0.69289 0.6467 0.0
C555 C 0.85556 0.71453 0.62706 0.0
C556 C 0.83233 0.69025 0.62291 0.0
C557 C 0.865 0.7158 0.63901 0.0
H558 H 0.81476 0.65112 0.64794 0.0
H559 H 0.82638 0.68858 0.6135 0.0
C560 C 0.72857 0.55577 0.60288 0.0
N561 N 0.70268 0.52861 0.58168 0.0
C562 C 0.70392 0.55464 0.59916 0.0
C563 C 0.73994 0.54289 0.59586 0.0
C564 C 0.69116 0.54083 0.58841 0.0
C565 C 0.72658 0.52935 0.58515 0.0
C566 C 0.75463 0.60311 0.64699 0.0
C567 C 0.74434 0.57873 0.65385 0.0
C568 C 0.75236 0.62552 0.6514 0.0
C569 C 0.73144 0.57701 0.66495 0.0
C570 C 0.73934 0.62299 0.66254 0.0
N571 N 0.72921 0.59898 0.66902 0.0
C572 C 0.79673 0.55958 0.64023 0.0
C573 C 0.76167 0.52777 0.6269 0.0
C574 C 0.79876 0.5379 0.64568 0.0
N575 N 0.77844 0.55412 0.63101 0.0
C576 C 0.76289 0.50551 0.63211 0.0
C577 C 0.78148 0.5104 0.64168 0.0
H578 H 0.80943 0.58072 0.64346 0.0
H579 H 0.74704 0.52397 0.61968 0.0
C580 C 0.69141 0.60338 0.62128 0.0
N581 N 0.70395 0.59063 0.62684 0.0
C582 C 0.66299 0.59341 0.62301 0.0
C583 C 0.66136 0.55828 0.63653 0.0
C584 C 0.6896 0.56853 0.63435 0.0
C585 C 0.64764 0.57038 0.63062 0.0
H586 H 0.70313 0.62036 0.61506 0.0
H587 H 0.69976 0.558 0.63819 0.0
O588 O 0.80609 0.61371 0.61469 0.0
O589 O 0.7623 0.6324 0.61235 0.0
O590 O 0.74173 0.56974 0.61323 0.0
O591 O 0.76732 0.60516 0.63611 0.0
H592 H 0.84907 0.64036 0.62955 0.0
H593 H 0.80787 0.57075 0.60515 0.0
H594 H 0.88414 0.6262 0.63386 0.0
H595 H 0.84374 0.55786 0.60986 0.0
H596 H 0.75563 0.70642 0.62573 0.0
H597 H 0.78504 0.66515 0.59335 0.0
H598 H 0.74789 0.65857 0.62833 0.0
H599 H 0.7919 0.71281 0.59129 0.0
H600 H 0.81869 0.60548 0.56742 0.0
H601 H 0.74301 0.60934 0.56349 0.0
H602 H 0.856 0.69244 0.65587 0.0
H603 H 0.86657 0.7317 0.62082 0.0
H604 H 0.69483 0.56449 0.60445 0.0
H605 H 0.75907 0.54367 0.59856 0.0
H606 H 0.67214 0.5399 0.5854 0.0
H607 H 0.73527 0.51949 0.57959 0.0
H608 H 0.74606 0.56124 0.65058 0.0
H609 H 0.7607 0.64471 0.64631 0.0
H610 H 0.7232 0.5582 0.67032 0.0
H611 H 0.73736 0.64015 0.66605 0.0
H612 H 0.81315 0.54249 0.65312 0.0
H613 H 0.74939 0.48466 0.62868 0.0
H614 H 0.65295 0.60306 0.61822 0.0
H615 H 0.65003 0.54007 0.64223 0.0
Li616 Li 0.1867 0.77428 0.95996 0.0
Li617 Li 0.13633 0.74124 0.95801 0.0
Li618 Li 0.16271 0.7768 0.94152 0.0
Li619 Li 0.15253 0.79087 0.96113 0.0
C620 C 0.17912 0.73104 0.94301 0.0
N621 N 0.20312 0.70139 0.93402 0.0
C622 C 0.17118 0.70455 0.94756 0.0
C623 C 0.19889 0.74222 0.93374 0.0
C624 C 0.18367 0.68996 0.94294 0.0
C625 C 0.21087 0.72697 0.92935 0.0
C626 C 0.14147 0.75613 0.98258 0.0
C627 C 0.0997 0.74507 0.99366 0.0
N628 N 0.10994 0.73832 0.00349 0.0
C629 C 0.15165 0.7492 0.99279 0.0
C630 C 0.11535 0.75412 0.98301 0.0
C631 C 0.13536 0.74019 0.00328 0.0
C632 C 0.24236 0.80315 0.96885 0.0
N633 N 0.22006 0.7777 0.96636 0.0
C634 C 0.24461 0.75507 0.97323 0.0
C635 C 0.22056 0.75388 0.9687 0.0
C636 C 0.26821 0.78106 0.97561 0.0
C637 C 0.26683 0.80534 0.97349 0.0
H638 H 0.24117 0.82177 0.96725 0.0
H639 H 0.20217 0.73392 0.96716 0.0
C640 C 0.08961 0.68982 0.95208 0.0
N641 N 0.10921 0.70363 0.96072 0.0
C642 C 0.07227 0.66097 0.95284 0.0
C643 C 0.09497 0.66143 0.97163 0.0
C644 C 0.112 0.69018 0.97045 0.0
C645 C 0.07526 0.6464 0.96261 0.0
H646 H 0.08827 0.70107 0.94434 0.0
H647 H 0.12843 0.70149 0.97694 0.0
C648 C 0.21165 0.82847 0.94693 0.0
N649 N 0.25818 0.87062 0.93566 0.0
C650 C 0.21602 0.85559 0.94677 0.0
C651 C 0.23101 0.82282 0.94144 0.0
C652 C 0.23966 0.87661 0.941 0.0
C653 C 0.25438 0.8444 0.93578 0.0
C654 C 0.10349 0.76842 0.94596 0.0
C655 C 0.10566 0.78634 0.93658 0.0
C656 C 0.0782 0.75308 0.95209 0.0
C657 C 0.08269 0.78925 0.93372 0.0
C658 C 0.0557 0.75655 0.94895 0.0
N659 N 0.0584 0.77444 0.93992 0.0
C660 C 0.15489 0.75972 0.91727 0.0
C661 C 0.17774 0.80875 0.91978 0.0
C662 C 0.15689 0.76266 0.90468 0.0
N663 N 0.16553 0.78261 0.92451 0.0
C664 C 0.18055 0.81268 0.90727 0.0
C665 C 0.17015 0.78945 0.89957 0.0
H666 H 0.14505 0.73917 0.92129 0.0
H667 H 0.18523 0.82658 0.92569 0.0
C668 C 0.15298 0.8247 0.98033 0.0
N669 N 0.14634 0.81839 0.96845 0.0
C670 C 0.15235 0.8473 0.98556 0.0
C671 C 0.13779 0.85638 0.96627 0.0
C672 C 0.13879 0.83365 0.96141 0.0
C673 C 0.14517 0.86382 0.97845 0.0
H674 H 0.16003 0.81301 0.98562 0.0
H675 H 0.13479 0.82903 0.95189 0.0
O676 O 0.16683 0.74546 0.94733 0.0
O677 O 0.15708 0.76473 0.97223 0.0
O678 O 0.18846 0.80765 0.95243 0.0
O679 O 0.12562 0.76496 0.94874 0.0
H680 H 0.15571 0.69543 0.95464 0.0
H681 H 0.20473 0.76232 0.92986 0.0
H682 H 0.17788 0.66954 0.94645 0.0
H683 H 0.22625 0.73541 0.92219 0.0
H684 H 0.07945 0.74345 0.99412 0.0
H685 H 0.17187 0.75065 0.99259 0.0
H686 H 0.1074 0.75977 0.97523 0.0
H687 H 0.14292 0.73468 0.01124 0.0
H688 H 0.2446 0.73586 0.97502 0.0
H689 H 0.28458 0.82577 0.97524 0.0
H690 H 0.05724 0.65009 0.94572 0.0
H691 H 0.09829 0.65091 0.97917 0.0
H692 H 0.20121 0.86028 0.951 0.0
H693 H 0.22815 0.80207 0.94167 0.0
H694 H 0.24327 0.89768 0.94076 0.0
H695 H 0.26954 0.84032 0.9315 0.0
H696 H 0.12498 0.7981 0.93163 0.0
H697 H 0.07585 0.73844 0.95911 0.0
H698 H 0.08417 0.80325 0.92655 0.0
H699 H 0.03603 0.74491 0.95366 0.0
H700 H 0.14867 0.74426 0.89902 0.0
H701 H 0.19049 0.83363 0.90363 0.0
H702 H 0.15889 0.85264 0.99489 0.0
H703 H 0.13215 0.86852 0.96046 0.0
Li704 Li 0.39279 0.13533 0.28781 0.0
Li705 Li 0.4128 0.18486 0.29145 0.0
Li706 Li 0.3615 0.15404 0.29098 0.0
Li707 Li 0.38902 0.16536 0.27237 0.0
C708 C 0.40329 0.15319 0.31261 0.0
N709 N 0.43264 0.15268 0.33275 0.0
C710 C 0.42738 0.15134 0.31125 0.0
C711 C 0.39407 0.15468 0.32422 0.0
C712 C 0.44195 0.15114 0.32154 0.0
C713 C 0.40921 0.15443 0.33429 0.0
C714 C 0.44991 0.1833 0.27533 0.0
C715 C 0.48532 0.22449 0.26527 0.0
N716 N 0.50483 0.21781 0.26871 0.0
C717 C 0.47026 0.17669 0.27867 0.0
C718 C 0.45744 0.20725 0.2685 0.0
C719 C 0.49793 0.19447 0.27527 0.0
C720 C 0.41447 0.10238 0.28073 0.0
N721 N 0.39894 0.10484 0.28962 0.0
C722 C 0.39885 0.06794 0.30085 0.0
C723 C 0.39059 0.08785 0.29948 0.0
C724 C 0.41594 0.0657 0.29202 0.0
C725 C 0.42338 0.08303 0.28177 0.0
H726 H 0.4208 0.11623 0.273 0.0
H727 H 0.37827 0.09034 0.30645 0.0
C728 C 0.43926 0.23969 0.30063 0.0
N729 N 0.44255 0.21721 0.29886 0.0
C730 C 0.46081 0.26418 0.30562 0.0
C731 C 0.48829 0.24154 0.3074 0.0
C732 C 0.46644 0.21771 0.30217 0.0
C733 C 0.48566 0.26519 0.30908 0.0
H734 H 0.41992 0.23865 0.29813 0.0
H735 H 0.46871 0.19972 0.30071 0.0
C736 C 0.33828 0.10132 0.28031 0.0
N737 N 0.29608 0.04761 0.28498 0.0
C738 C 0.32367 0.0834 0.27074 0.0
C739 C 0.33145 0.09193 0.29225 0.0
C740 C 0.30239 0.05632 0.27329 0.0
C741 C 0.31004 0.06471 0.29442 0.0
C742 C 0.38049 0.21036 0.27765 0.0
C743 C 0.35361 0.20638 0.27648 0.0
C744 C 0.40316 0.23455 0.27301 0.0
C745 C 0.34984 0.22644 0.27046 0.0
C746 C 0.39852 0.25409 0.26705 0.0
N747 N 0.37218 0.24966 0.2659 0.0
C748 C 0.33018 0.16305 0.30811 0.0
C749 C 0.3032 0.13473 0.29172 0.0
C750 C 0.30708 0.16347 0.31286 0.0
N751 N 0.32789 0.14912 0.29767 0.0
C752 C 0.2795 0.13454 0.29617 0.0
C753 C 0.28139 0.14948 0.30676 0.0
H754 H 0.35026 0.17478 0.31247 0.0
H755 H 0.30211 0.12427 0.2833 0.0
C756 C 0.40605 0.16489 0.24855 0.0
N757 N 0.38924 0.1709 0.25534 0.0
C758 C 0.40732 0.16842 0.23601 0.0
C759 C 0.37362 0.18383 0.23762 0.0
C760 C 0.37275 0.17967 0.25012 0.0
C761 C 0.39112 0.17822 0.23042 0.0
H762 H 0.41847 0.15731 0.2529 0.0
H763 H 0.35869 0.18317 0.2556 0.0
O764 O 0.38855 0.15325 0.30268 0.0
O765 O 0.42273 0.16623 0.27865 0.0
O766 O 0.35923 0.12784 0.27791 0.0
O767 O 0.38458 0.19102 0.2836 0.0
H768 H 0.43483 0.15019 0.30234 0.0
H769 H 0.37537 0.15598 0.32544 0.0
H770 H 0.46066 0.14977 0.3206 0.0
H771 H 0.40232 0.1556 0.34334 0.0
H772 H 0.49144 0.24314 0.26001 0.0
H773 H 0.46481 0.15817 0.28392 0.0
H774 H 0.4419 0.21237 0.26564 0.0
H775 H 0.51392 0.18971 0.27786 0.0
H776 H 0.39228 0.05479 0.30882 0.0
H777 H 0.43691 0.08252 0.27482 0.0
H778 H 0.458 0.282 0.30691 0.0
H779 H 0.50725 0.24166 0.30989 0.0
H780 H 0.32875 0.09037 0.26145 0.0
H781 H 0.34247 0.10547 0.29978 0.0
H782 H 0.2909 0.04223 0.26597 0.0
H783 H 0.30454 0.05717 0.30362 0.0
H784 H 0.33582 0.18793 0.28006 0.0
H785 H 0.42416 0.23836 0.27409 0.0
H786 H 0.32914 0.22352 0.26942 0.0
H787 H 0.41589 0.27286 0.26338 0.0
H788 H 0.3097 0.17575 0.3209 0.0
H789 H 0.2601 0.12336 0.29122 0.0
H790 H 0.42105 0.16384 0.23075 0.0
H791 H 0.36038 0.19086 0.2336 0.0
Li792 Li 0.22637 0.41514 0.62463 0.0
Li793 Li 0.25656 0.39598 0.62297 0.0
Li794 Li 0.22367 0.38975 0.60635 0.0
Li795 Li 0.20689 0.36562 0.62623 0.0
C796 C 0.26966 0.44914 0.60665 0.0
N797 N 0.2984 0.49976 0.59482 0.0
C798 C 0.29647 0.46897 0.61042 0.0
C799 C 0.25759 0.45501 0.59679 0.0
C800 C 0.31061 0.49446 0.60435 0.0
C801 C 0.27242 0.48073 0.59095 0.0
C802 C 0.25082 0.41124 0.64635 0.0
C803 C 0.2649 0.41906 0.66732 0.0
N804 N 0.28518 0.44542 0.66453 0.0
C805 C 0.27176 0.4384 0.64369 0.0
C806 C 0.24731 0.40146 0.65825 0.0
C807 C 0.28892 0.45537 0.653 0.0
C808 C 0.2097 0.44098 0.642 0.0
N809 N 0.22307 0.44552 0.63118 0.0
C810 C 0.23086 0.49199 0.63051 0.0
C811 C 0.23343 0.47039 0.62538 0.0
C812 C 0.2172 0.48797 0.64168 0.0
C813 C 0.20642 0.46194 0.64741 0.0
H814 H 0.20144 0.42093 0.64639 0.0
H815 H 0.24371 0.47367 0.61679 0.0
C816 C 0.31078 0.41449 0.6161 0.0
N817 N 0.29315 0.40275 0.62559 0.0
C818 C 0.33899 0.42337 0.61736 0.0
C819 C 0.33016 0.40637 0.63799 0.0
C820 C 0.30204 0.39803 0.63635 0.0
C821 C 0.34917 0.41974 0.62847 0.0
H822 H 0.30302 0.41782 0.60764 0.0
H823 H 0.28747 0.38837 0.64372 0.0
C824 C 0.17505 0.39621 0.61798 0.0
N825 N 0.14182 0.4196 0.62177 0.0
C826 C 0.15582 0.38683 0.62749 0.0
C827 C 0.1772 0.4173 0.61033 0.0
C828 C 0.13923 0.39895 0.62927 0.0
C829 C 0.16028 0.42892 0.61242 0.0
C830 C 0.2368 0.3407 0.61718 0.0
C831 C 0.2401 0.32469 0.60826 0.0
C832 C 0.23943 0.33576 0.6294 0.0
C833 C 0.24592 0.30388 0.61172 0.0
C834 C 0.24528 0.31477 0.63249 0.0
N835 N 0.24837 0.2994 0.62366 0.0
C836 C 0.23924 0.38888 0.58223 0.0
C837 C 0.19378 0.3822 0.58475 0.0
C838 C 0.23614 0.38746 0.56965 0.0
N839 N 0.21825 0.3864 0.58944 0.0
C840 C 0.18988 0.3809 0.57223 0.0
C841 C 0.21128 0.38368 0.56452 0.0
H842 H 0.25848 0.39227 0.58627 0.0
H843 H 0.17738 0.38005 0.59073 0.0
C844 C 0.16905 0.33329 0.64448 0.0
N845 N 0.17866 0.33236 0.63327 0.0
C846 C 0.14567 0.30988 0.64917 0.0
C847 C 0.14365 0.28461 0.63097 0.0
C848 C 0.16684 0.30861 0.62658 0.0
C849 C 0.13223 0.28525 0.64227 0.0
H850 H 0.17878 0.35263 0.64952 0.0
H851 H 0.1749 0.30858 0.61765 0.0
O852 O 0.25565 0.42388 0.61239 0.0
O853 O 0.23382 0.3941 0.63739 0.0
O854 O 0.19205 0.38517 0.61632 0.0
O855 O 0.23121 0.36121 0.6139 0.0
H856 H 0.30634 0.46477 0.61794 0.0
H857 H 0.23691 0.44004 0.59373 0.0
H858 H 0.33134 0.50999 0.60719 0.0
H859 H 0.26326 0.48557 0.58335 0.0
H860 H 0.26245 0.41175 0.67657 0.0
H861 H 0.27465 0.44632 0.63456 0.0
H862 H 0.23119 0.38044 0.66044 0.0
H863 H 0.3052 0.47644 0.65107 0.0
H864 H 0.23988 0.51178 0.62582 0.0
H865 H 0.19535 0.45768 0.65593 0.0
H866 H 0.35278 0.43393 0.60982 0.0
H867 H 0.33694 0.4027 0.64664 0.0
H868 H 0.15389 0.37056 0.6335 0.0
H869 H 0.19205 0.4249 0.60297 0.0
H870 H 0.12437 0.39201 0.63664 0.0
H871 H 0.16189 0.44542 0.60664 0.0
H872 H 0.23817 0.32832 0.59876 0.0
H873 H 0.23698 0.34796 0.63643 0.0
H874 H 0.24852 0.29131 0.60492 0.0
H875 H 0.24736 0.31072 0.64191 0.0
H876 H 0.2532 0.38991 0.56399 0.0
H877 H 0.17029 0.37761 0.56862 0.0
H878 H 0.13744 0.3116 0.65782 0.0
H879 H 0.13432 0.26601 0.62542 0.0
Li880 Li 0.86187 0.2569 0.95405 0.0
Li881 Li 0.81209 0.22845 0.95694 0.0
Li882 Li 0.84137 0.20626 0.95731 0.0
Li883 Li 0.83194 0.22308 0.93849 0.0
C884 C 0.84047 0.24771 0.97891 0.0
N885 N 0.83652 0.27363 -0.0004 0.0
C886 C 0.84478 0.27478 0.97832 0.0
C887 C 0.83425 0.23387 0.99004 0.0
C888 C 0.84267 0.28752 0.98887 0.0
C889 C 0.83231 0.24731 0.0004 0.0
C890 C 0.81744 0.27021 0.94225 0.0
C891 C 0.77688 0.27036 0.93443 0.0
N892 N 0.78724 0.29691 0.93849 0.0
C893 C 0.82782 0.2976 0.94624 0.0
C894 C 0.7919 0.25657 0.93619 0.0
C895 C 0.81219 0.3107 0.94429 0.0
C896 C 0.89928 0.31057 0.94675 0.0
N897 N 0.89339 0.29273 0.95617 0.0
C898 C 0.92867 0.32881 0.96829 0.0
C899 C 0.90804 0.30099 0.9667 0.0
C900 C 0.93422 0.34811 0.95892 0.0
C901 C 0.91963 0.3385 0.94794 0.0
H902 H 0.88725 0.3033 0.93848 0.0
H903 H 0.90301 0.28625 0.97401 0.0
C904 C 0.75609 0.20172 0.96471 0.0
N905 N 0.77968 0.22699 0.96382 0.0
C906 C 0.73153 0.19964 0.96919 0.0
C907 C 0.75614 0.24954 0.97204 0.0
C908 C 0.78014 0.25064 0.9675 0.0
C909 C 0.73131 0.22382 0.97283 0.0
H910 H 0.75627 0.18317 0.96183 0.0
H911 H 0.79905 0.27049 0.96684 0.0
C912 C 0.89492 0.23478 0.94723 0.0
N913 N 0.94795 0.24499 0.95249 0.0
C914 C 0.91294 0.23707 0.93787 0.0
C915 C 0.90386 0.23771 0.95926 0.0
C916 C 0.93967 0.24222 0.94072 0.0
C917 C 0.93075 0.24286 0.96173 0.0
C918 C 0.78744 0.17122 0.94235 0.0
C919 C 0.7913 0.14825 0.94119 0.0
C920 C 0.76531 0.1713 0.93632 0.0
C921 C 0.77327 0.12598 0.93381 0.0
C922 C 0.74776 0.14866 0.929 0.0
N923 N 0.75209 0.12667 0.9279 0.0
C924 C 0.83009 0.1648 0.97432 0.0
C925 C 0.86082 0.16748 0.95875 0.0
C926 C 0.82987 0.14155 0.97928 0.0
N927 N 0.84533 0.17715 0.96424 0.0
C928 C 0.86125 0.14428 0.96342 0.0
C929 C 0.84535 0.13078 0.97375 0.0
H930 H 0.81732 0.17244 0.97825 0.0
H931 H 0.87218 0.17723 0.95055 0.0
C932 C 0.827 0.23686 0.91441 0.0
N933 N 0.82708 0.21683 0.9215 0.0
C934 C 0.82355 0.23313 0.9019 0.0
C935 C 0.82065 0.18836 0.90417 0.0
C936 C 0.82461 0.19317 0.91662 0.0
C937 C 0.82009 0.20852 0.89667 0.0
H938 H 0.8298 0.25584 0.91846 0.0
H939 H 0.82592 0.17811 0.92237 0.0
O940 O 0.84251 0.23484 0.96869 0.0
O941 O 0.83234 0.25694 0.94416 0.0
O942 O 0.86875 0.22987 0.94454 0.0
O943 O 0.8049 0.19324 0.94953 0.0
H944 H 0.84945 0.28576 0.96979 0.0
H945 H 0.83101 0.21298 0.9907 0.0
H946 H 0.84587 0.30843 0.98852 0.0
H947 H 0.82749 0.23682 0.00907 0.0
H948 H 0.75701 0.25998 0.9298 0.0
H949 H 0.84758 0.30858 0.95091 0.0
H950 H 0.78379 0.23559 0.93288 0.0
H951 H 0.81988 0.33181 0.94741 0.0
H952 H 0.9397 0.33526 0.97683 0.0
H953 H 0.9229 0.35262 0.94053 0.0
H954 H 0.71283 0.17939 0.96956 0.0
H955 H 0.7571 0.26866 0.97495 0.0
H956 H 0.90631 0.23488 0.92851 0.0
H957 H 0.89022 0.23596 0.96662 0.0
H958 H 0.95384 0.24403 0.93357 0.0
H959 H 0.93794 0.24516 0.97099 0.0
H960 H 0.80816 0.14769 0.94585 0.0
H961 H 0.76162 0.18859 0.93731 0.0
H962 H 0.77615 0.10817 0.93276 0.0
H963 H 0.73064 0.14853 0.92424 0.0
H964 H 0.81678 0.13144 0.98707 0.0
H965 H 0.87351 0.13673 0.95888 0.0
H966 H 0.8233 0.24917 0.89639 0.0
H967 H 0.81858 0.16935 0.90041 0.0
Li968 Li 0.58166 0.80681 0.29106 0.0
Li969 Li 0.59884 0.85693 0.28995 0.0
Li970 Li 0.60392 0.83166 0.27279 0.0
Li971 Li 0.63194 0.84085 0.29105 0.0
C972 C 0.55526 0.82629 0.27003 0.0
N973 N 0.52978 0.82675 0.24858 0.0
C974 C 0.55707 0.85097 0.26589 0.0
C975 C 0.54045 0.80182 0.26328 0.0
C976 C 0.54402 0.85077 0.25502 0.0
C977 C 0.52774 0.80249 0.25245 0.0
C978 C 0.59901 0.8455 0.31371 0.0
C979 C 0.61352 0.88117 0.32901 0.0
N980 N 0.58839 0.86617 0.33458 0.0
C981 C 0.57342 0.83029 0.31964 0.0
C982 C 0.61933 0.87101 0.31848 0.0
C983 C 0.56842 0.84115 0.33016 0.0
C984 C 0.55845 0.75893 0.30629 0.0
N985 N 0.55276 0.77306 0.29774 0.0
C986 C 0.50431 0.73927 0.29842 0.0
C987 C 0.52633 0.76394 0.29387 0.0
C988 C 0.5095 0.72382 0.30707 0.0
C989 C 0.53703 0.73402 0.31105 0.0
H990 H 0.57965 0.76695 0.30934 0.0
H991 H 0.5223 0.77596 0.28732 0.0
C992 C 0.6039 0.91067 0.2901 0.0
N993 N 0.58917 0.88407 0.29428 0.0
C994 C 0.59372 0.92898 0.29178 0.0
C995 C 0.55416 0.89248 0.30245 0.0
C996 C 0.56478 0.87478 0.30036 0.0
C997 C 0.56837 0.91974 0.2979 0.0
H998 H 0.62278 0.91724 0.28496 0.0
H999 H 0.55289 0.85319 0.30308 0.0
C1000 C 0.60607 0.77899 0.28383 0.0
N1001 N 0.59362 0.72506 0.28877 0.0
C1002 C 0.62336 0.77409 0.29143 0.0
C1003 C 0.58249 0.75642 0.27871 0.0
C1004 C 0.61671 0.74668 0.29381 0.0
C1005 C 0.57653 0.72933 0.28134 0.0
C1006 C 0.65871 0.88894 0.27869 0.0
C1007 C 0.67445 0.89047 0.26852 0.0
C1008 C 0.67108 0.90827 0.28805 0.0
C1009 C 0.70249 0.91118 0.26796 0.0
C1010 C 0.69917 0.92867 0.28716 0.0
N1011 N 0.71417 0.92967 0.27723 0.0
C1012 C 0.6119 0.85241 0.24876 0.0
C1013 C 0.59737 0.80444 0.25048 0.0
C1014 C 0.61278 0.85094 0.23614 0.0
N1015 N 0.60445 0.82937 0.25562 0.0
C1016 C 0.59754 0.8019 0.23792 0.0
C1017 C 0.60562 0.8254 0.23054 0.0
H1018 H 0.61741 0.872 0.25312 0.0
H1019 H 0.5915 0.78647 0.25612 0.0
C1020 C 0.67122 0.84642 0.30885 0.0
N1021 N 0.66696 0.84746 0.29678 0.0
C1022 C 0.69483 0.84592 0.31294 0.0
C1023 C 0.70994 0.84936 0.29215 0.0
C1024 C 0.68584 0.84923 0.28846 0.0
C1025 C 0.71421 0.84658 0.30451 0.0
H1026 H 0.65549 0.84429 0.31524 0.0
H1027 H 0.68147 0.84905 0.27891 0.0
O1028 O 0.56862 0.82625 0.28044 0.0
O1029 O 0.60423 0.83531 0.30337 0.0
O1030 O 0.61212 0.8057 0.28145 0.0
O1031 O 0.63128 0.8687 0.27944 0.0
H1032 H 0.56865 0.87016 0.27092 0.0
H1033 H 0.53918 0.78261 0.26625 0.0
H1034 H 0.54533 0.86975 0.25169 0.0
H1035 H 0.51638 0.78376 0.24709 0.0
H1036 H 0.62901 0.90096 0.33277 0.0
H1037 H 0.55748 0.81047 0.3161 0.0
H1038 H 0.63937 0.88283 0.3141 0.0
H1039 H 0.54865 0.82971 0.3348 0.0
H1040 H 0.48337 0.73263 0.29531 0.0
H1041 H 0.54203 0.72275 0.31766 0.0
H1042 H 0.60507 0.94982 0.28805 0.0
H1043 H 0.53424 0.88445 0.30696 0.0
H1044 H 0.64167 0.79119 0.29548 0.0
H1045 H 0.56853 0.75973 0.27302 0.0
H1046 H 0.62988 0.74261 0.29969 0.0
H1047 H 0.55821 0.71169 0.27753 0.0
H1048 H 0.66523 0.87561 0.2612 0.0
H1049 H 0.65911 0.90754 0.29592 0.0
H1050 H 0.71497 0.91251 0.26019 0.0
H1051 H 0.70905 0.94371 0.29437 0.0
H1052 H 0.61946 0.86971 0.23088 0.0
H1053 H 0.59123 0.78163 0.23407 0.0
H1054 H 0.69687 0.84327 0.32253 0.0
H1055 H 0.72443 0.85035 0.28531 0.0
C1056 C 0.14129 0.89181 0.9955 0.0
C1057 C 0.14827 0.89016 0.9834 0.0
C1058 C 0.14797 0.9175 0.0006 0.0
C1059 C 0.17229 0.99178 0.99347 0.0
H1060 H 0.2135 0.0057 0.02349 0.0
C1061 C 0.25728 0.10089 0.00857 0.0
C1062 C 0.26215 0.10688 0.021 0.0
C1063 C 0.23684 0.07452 0.00465 0.0
C1064 C 0.20152 0.00214 0.01527 0.0
H1065 H 0.16669 0.91414 0.96703 0.0
H1066 H 0.17813 0.95873 0.97589 0.0
H1067 H 0.18843 0.95875 0.01538 0.0
H1068 H 0.24828 0.09013 0.03907 0.0
H1069 H 0.2121 0.04448 0.03223 0.0
H1070 H 0.1862 0.03546 0.99319 0.0
C1071 C 0.16722 0.94017 0.98141 0.0
C1072 C 0.18712 0.97514 0.0106 0.0
C1073 C 0.16064 0.91453 0.97633 0.0
C1074 C 0.24502 0.08635 0.02942 0.0
C1075 C 0.22447 0.06003 0.0255 0.0
C1076 C 0.18662 0.01883 0.99817 0.0
C1077 C 0.16168 0.94205 0.99369 0.0
C1078 C 0.17297 0.96978 -0.00051 0.0
C1079 C 0.22068 0.05354 0.01308 0.0
C1080 C 0.20204 0.02444 0.00896 0.0
H1081 H 0.13132 0.87334 0.00113 0.0
H1082 H 0.14309 0.91827 0.01005 0.0
H1083 H 0.16125 0.9882 0.98497 0.0
H1084 H 0.26979 0.11637 0.00184 0.0
H1085 H 0.23466 0.07023 0.99502 0.0
C1086 C 0.16204 0.24888 0.35635 0.0
C1087 C 0.15104 0.26237 0.34939 0.0
C1088 C 0.16791 0.22953 0.35105 0.0
C1089 C 0.18799 0.21486 0.32173 0.0
H1090 H 0.18251 0.15081 0.3385 0.0
C1091 C 0.24135 0.15733 0.3025 0.0
C1092 C 0.25759 0.15261 0.31092 0.0
C1093 C 0.22158 0.16422 0.30643 0.0
C1094 C 0.18419 0.16864 0.3337 0.0
H1095 H 0.13588 0.2647 0.33156 0.0
H1096 H 0.14638 0.23098 0.32226 0.0
H1097 H 0.15942 0.17483 0.34689 0.0
H1098 H 0.26434 0.14945 0.33007 0.0
H1099 H 0.23051 0.16226 0.33692 0.0
H1100 H 0.21372 0.2096 0.30885 0.0
C1101 C 0.15075 0.2357 0.3318 0.0
C1102 C 0.17094 0.18235 0.3385 0.0
C1103 C 0.1448 0.25504 0.33712 0.0
C1104 C 0.25249 0.1534 0.32335 0.0
C1105 C 0.23281 0.1604 0.32728 0.0
C1106 C 0.20129 0.20123 0.31697 0.0
C1107 C 0.16301 0.22325 0.33865 0.0
C1108 C 0.17329 0.20604 0.33272 0.0
C1109 C 0.21768 0.16666 0.31886 0.0
C1110 C 0.20014 0.17838 0.32305 0.0
H1111 H 0.16751 0.25431 0.36578 0.0
H1112 H 0.17772 0.22064 0.35654 0.0
H1113 H 0.19056 0.23328 0.31714 0.0
H1114 H 0.24482 0.15708 0.29286 0.0
H1115 H 0.20998 0.16851 0.29971 0.0
C1116 C 0.88911 0.14464 0.67085 0.0
C1117 C 0.88668 0.14803 0.68333 0.0
C1118 C 0.91491 0.15162 0.66581 0.0
C1119 C 0.98824 0.17155 0.673 0.0
H1120 H 0.00456 0.21971 0.64508 0.0
C1121 C 0.0996 0.25476 0.65868 0.0
C1122 C 0.1051 0.26145 0.64632 0.0
C1123 C 0.07287 0.23498 0.66256 0.0
C1124 C 0.00032 0.20585 0.6527 0.0
H1125 H 0.90905 0.15994 0.70039 0.0
H1126 H 0.95408 0.17231 0.6916 0.0
H1127 H 0.95751 0.19477 0.65297 0.0
H1128 H 0.08691 0.25137 0.6283 0.0
H1129 H 0.04084 0.2163 0.63501 0.0
H1130 H 0.03147 0.18346 0.67289 0.0
C1131 C 0.93603 0.16392 0.68572 0.0
C1132 C 0.97324 0.19149 0.65723 0.0
C1133 C 0.9102 0.15684 0.69077 0.0
C1134 C 0.08363 0.24668 0.63788 0.0
C1135 C 0.05702 0.22679 0.64175 0.0
C1136 C 0.01542 0.18591 0.66843 0.0
C1137 C 0.93884 0.16227 0.67313 0.0
C1138 C 0.96694 0.17455 0.66756 0.0
C1139 C 0.05108 0.22133 0.65415 0.0
C1140 C 0.02186 0.20361 0.65834 0.0
H1141 H 0.87123 0.13745 0.66493 0.0
H1142 H 0.9163 0.1496 0.65611 0.0
H1143 H 0.98397 0.15843 0.6809 0.0
H1144 H 0.11574 0.26536 0.66541 0.0
H1145 H 0.06902 0.2314 0.67219 0.0
C1146 C 0.7482 0.89059 0.00522 0.0
C1147 C 0.74043 0.88939 0.01742 0.0
C1148 C 0.76737 0.916 -5e-05 0.0
C1149 C 0.81831 0.9905 0.00666 0.0
H1150 H 0.79062 0.00344 0.97653 0.0
C1151 C 0.84157 0.09885 0.9907 0.0
C1152 C 0.84308 0.10444 0.97822 0.0
C1153 C 0.8358 0.07269 0.99485 0.0
C1154 C 0.79911 0.00012 0.98479 0.0
H1155 H 0.74767 0.9137 0.03381 0.0
H1156 H 0.78088 0.9579 0.02465 0.0
H1157 H 0.76868 0.95683 0.98498 0.0
H1158 H 0.84106 0.08729 0.96032 0.0
H1159 H 0.83161 0.04189 0.96758 0.0
H1160 H 0.84808 0.0342 0.00665 0.0
C1161 C 0.77255 0.93922 0.01916 0.0
C1162 C 0.7865 0.97331 0.98965 0.0
C1163 C 0.75345 0.91384 0.02443 0.0
C1164 C 0.84021 0.08377 0.97 0.0
C1165 C 0.83449 0.05763 0.97415 0.0
C1166 C 0.83095 0.01738 0.00179 0.0
C1167 C 0.77909 0.94074 0.00678 0.0
C1168 C 0.79547 0.9683 0.00079 0.0
C1169 C 0.83145 0.05153 0.98661 0.0
C1170 C 0.82102 0.02261 0.99095 0.0
H1171 H 0.73883 0.87201 -0.00035 0.0
H1172 H 0.77235 0.91641 0.99044 0.0
H1173 H 0.82596 0.98722 0.01517 0.0
H1174 H 0.8441 0.11447 0.99727 0.0
H1175 H 0.8334 0.06866 0.00451 0.0
C1176 C 0.74992 0.85015 0.31971 0.0
C1177 C 0.73665 0.84094 0.30841 0.0
C1178 C 0.76811 0.8414 0.32397 0.0
C1179 C 0.77941 0.78206 0.32024 0.0
H1180 H 0.84595 0.82566 0.33948 0.0
C1181 C 0.84088 0.73217 0.33744 0.0
C1182 C 0.84755 0.73572 0.34985 0.0
C1183 C 0.83287 0.7493 0.33155 0.0
C1184 C 0.82736 0.81325 0.33414 0.0
H1185 H 0.73324 0.81617 0.29254 0.0
H1186 H 0.76557 0.80206 0.29972 0.0
H1187 H 0.82152 0.84811 0.33065 0.0
H1188 H 0.85329 0.76177 0.36551 0.0
H1189 H 0.83828 0.79109 0.3553 0.0
H1190 H 0.78459 0.74714 0.32386 0.0
C1191 C 0.7615 0.81556 0.30541 0.0
C1192 C 0.81338 0.82608 0.32911 0.0
C1193 C 0.74322 0.82406 0.30121 0.0
C1194 C 0.84775 0.75807 0.35601 0.0
C1195 C 0.83948 0.77512 0.35012 0.0
C1196 C 0.7933 0.76933 0.32523 0.0
C1197 C 0.77344 0.82334 0.31699 0.0
C1198 C 0.78924 0.81056 0.32209 0.0
C1199 C 0.83097 0.77023 0.33794 0.0
C1200 C 0.81743 0.7847 0.33224 0.0
H1201 H 0.74569 0.86351 0.32542 0.0
H1202 H 0.77696 0.84775 0.33295 0.0
H1203 H 0.76047 0.76929 0.31517 0.0
H1204 H 0.84022 0.71512 0.33237 0.0
H1205 H 0.827 0.74538 0.32209 0.0
C1206 C 0.8972 0.74764 0.65525 0.0
C1207 C 0.89242 0.73929 0.64303 0.0
C1208 C 0.92406 0.76644 0.65934 0.0
C1209 C 0.99685 0.78993 0.65079 0.0
H1210 H 0.01357 0.8376 0.67893 0.0
C1211 C 0.10654 0.84609 0.67118 0.0
C1212 C 0.1071 0.84072 0.68361 0.0
C1213 C 0.08168 0.84056 0.66559 0.0
C1214 C 0.00919 0.82446 0.67102 0.0
H1215 H 0.91229 0.74594 0.6254 0.0
H1216 H 0.95842 0.77973 0.63237 0.0
H1217 H 0.96705 0.8159 0.66993 0.0
H1218 H 0.0821 0.82657 0.69999 0.0
H1219 H 0.03891 0.81729 0.69025 0.0
H1220 H 0.03875 0.79811 0.65198 0.0
C1221 C 0.9416 0.77098 0.6389 0.0
C1222 C 0.98253 0.81192 0.6659 0.0
C1223 C 0.91488 0.75185 0.63486 0.0
C1224 C 0.08256 0.83127 0.69044 0.0
C1225 C 0.05775 0.82593 0.68486 0.0
C1226 C 0.02348 0.80267 0.65582 0.0
C1227 C 0.94676 0.77769 0.65127 0.0
C1228 C 0.97585 0.79398 0.65587 0.0
C1229 C 0.05689 0.82975 0.67232 0.0
C1230 C 0.02977 0.81957 0.66614 0.0
H1231 H 0.88036 0.73896 0.66177 0.0
H1232 H 0.92715 0.77099 0.66894 0.0
H1233 H 0.99246 0.77582 0.64325 0.0
H1234 H 0.12518 0.85393 0.66571 0.0
H1235 H 0.08166 0.84404 0.65593 0.0
C1236 C 0.68711 0.20076 0.98506 0.0
C1237 C 0.70537 0.22241 0.97733 0.0
C1238 C 0.66304 0.19991 0.98948 0.0
C1239 C 0.63337 0.24518 0.99534 0.0
H1240 H 0.56284 0.17588 0.99664 0.0
C1241 C 0.53156 0.24301 0.00774 0.0
C1242 C 0.51308 0.22175 0.01555 0.0
C1243 C 0.55429 0.24224 0.00273 0.0
C1244 C 0.58244 0.19535 0.99646 0.0
H1245 H 0.71214 0.25961 0.96786 0.0
H1246 H 0.67033 0.25821 0.97563 0.0
H1247 H 0.60402 0.17608 0.98864 0.0
H1248 H 0.50382 0.18289 0.02417 0.0
H1249 H 0.54368 0.18162 0.01548 0.0
H1250 H 0.61202 0.26446 0.00325 0.0
C1251 C 0.67485 0.24215 0.97843 0.0
C1252 C 0.60602 0.19545 0.99187 0.0
C1253 C 0.69883 0.24296 0.974 0.0
C1254 C 0.51753 0.19942 0.01807 0.0
C1255 C 0.54036 0.19869 0.01309 0.0
C1256 C 0.60987 0.24506 -4e-05 0.0
C1257 C 0.65677 0.22072 0.98628 0.0
C1258 C 0.63171 0.2204 0.99123 0.0
C1259 C 0.55916 0.22024 0.00545 0.0
C1260 C 0.5841 0.22018 0.00054 0.0
H1261 H 0.6917 0.18479 0.98792 0.0
H1262 H 0.64967 0.1833 0.99562 0.0
H1263 H 0.65298 0.26465 0.99517 0.0
H1264 H 0.5284 0.26025 0.00547 0.0
H1265 H 0.56803 0.25888 0.99668 0.0
C1266 C 0.2957 0.51477 0.34014 0.0
C1267 C 0.29536 0.50835 0.35249 0.0
C1268 C 0.31953 0.53672 0.33491 0.0
C1269 C 0.39552 0.58318 0.33971 0.0
H1270 H 0.38568 0.63093 0.31698 0.0
C1271 C 0.48518 0.69089 0.32436 0.0
C1272 C 0.48618 0.69749 0.31199 0.0
C1273 C 0.46257 0.66671 0.32904 0.0
C1274 C 0.38876 0.6176 0.32321 0.0
H1275 H 0.3202 0.51955 0.36891 0.0
H1276 H 0.36136 0.55838 0.35989 0.0
H1277 H 0.34494 0.5908 0.3256 0.0
H1278 H 0.46464 0.68321 0.29479 0.0
H1279 H 0.42506 0.64129 0.30302 0.0
H1280 H 0.43943 0.6105 0.33746 0.0
C1281 C 0.34334 0.54621 0.3542 0.0
C1282 C 0.36541 0.59455 0.32814 0.0
C1283 C 0.31958 0.52417 0.35942 0.0
C1284 C 0.46428 0.67907 0.3044 0.0
C1285 C 0.44162 0.65502 0.3091 0.0
C1286 C 0.41888 0.60638 0.33484 0.0
C1287 C 0.34356 0.55289 0.34189 0.0
C1288 C 0.36849 0.57706 0.33646 0.0
C1289 C 0.44041 0.64871 0.32148 0.0
C1290 C 0.41573 0.62383 0.32654 0.0
H1291 H 0.27736 0.5032 0.33456 0.0
H1292 H 0.31908 0.54103 0.32536 0.0
H1293 H 0.39866 0.56992 0.34595 0.0
H1294 H 0.5015 0.70478 0.33049 0.0
H1295 H 0.46205 0.66252 0.33866 0.0
C1296 C 0.77898 0.298 0.67436 0.0
C1297 C 0.78213 0.29556 0.68686 0.0
C1298 C 0.77996 0.32187 0.66967 0.0
C1299 C 0.80301 0.3956 0.67668 0.0
H1300 H 0.75013 0.38614 0.65153 0.0
C1301 C 0.80777 0.48839 0.65037 0.0
C1302 C 0.78227 0.48675 0.64756 0.0
C1303 C 0.80831 0.46557 0.65549 0.0
C1304 C 0.76489 0.38916 0.65862 0.0
H1305 H 0.78874 0.3162 0.70423 0.0
H1306 H 0.79022 0.35783 0.69605 0.0
H1307 H 0.74991 0.34545 0.6599 0.0
H1308 H 0.73736 0.4604 0.64838 0.0
H1309 H 0.73826 0.42077 0.65738 0.0
H1310 H 0.81751 0.43934 0.67558 0.0
C1311 C 0.78746 0.34149 0.68985 0.0
C1312 C 0.76501 0.36584 0.66331 0.0
C1313 C 0.78658 0.31763 0.69455 0.0
C1314 C 0.75734 0.46209 0.65022 0.0
C1315 C 0.75787 0.43937 0.65536 0.0
C1316 C 0.80286 0.41898 0.672 0.0
C1317 C 0.784 0.34381 0.67737 0.0
C1318 C 0.78407 0.36876 0.67239 0.0
C1319 C 0.78335 0.4407 0.65794 0.0
C1320 C 0.78375 0.416 0.66293 0.0
H1321 H 0.77599 0.28154 0.66819 0.0
H1322 H 0.77774 0.3232 0.65998 0.0
H1323 H 0.81814 0.3986 0.68359 0.0
H1324 H 0.82731 0.50705 0.64834 0.0
H1325 H 0.82829 0.46718 0.65724 0.0
C1326 C 0.30389 0.76599 0.97528 0.0
C1327 C 0.29399 0.78266 0.98033 0.0
C1328 C 0.32779 0.7669 0.97987 0.0
C1329 C 0.39032 0.80964 0.99877 0.0
H1330 H 0.39161 0.74045 0.00105 0.0
C1331 C 0.47542 0.79895 0.02466 0.0
C1332 C 0.48635 0.78398 0.01877 0.0
C1333 C 0.45238 0.79957 0.01989 0.0
C1334 C 0.39163 0.75997 0.00037 0.0
H1335 H 0.30125 0.8133 0.99418 0.0
H1336 H 0.34278 0.81457 0.00238 0.0
H1337 H 0.35049 0.74003 0.993 0.0
H1338 H 0.48199 0.75857 0.00304 0.0
H1339 H 0.44149 0.75925 0.99488 0.0
H1340 H 0.4314 0.82941 0.00637 0.0
C1341 C 0.33241 0.8012 0.99469 0.0
C1342 C 0.36811 0.75977 0.99572 0.0
C1343 C 0.3086 0.80045 0.99002 0.0
C1344 C 0.4738 0.76984 0.00795 0.0
C1345 C 0.45065 0.77028 0.00325 0.0
C1346 C 0.41378 0.80979 0.00352 0.0
C1347 C 0.34222 0.78433 0.98971 0.0
C1348 C 0.3672 0.78462 0.9948 0.0
C1349 C 0.43965 0.78506 0.00919 0.0
C1350 C 0.41471 0.78497 0.0043 0.0
H1351 H 0.29327 0.7524 0.96768 0.0
H1352 H 0.33506 0.75407 0.97564 0.0
H1353 H 0.3905 0.82922 0.99804 0.0
H1354 H 0.48428 0.80973 0.0331 0.0
H1355 H 0.44414 0.81089 0.02473 0.0
C1356 C 0.51905 0.3165 0.3084 0.0
C1357 C 0.50889 0.29083 0.31433 0.0
C1358 C 0.54188 0.34049 0.31308 0.0
C1359 C 0.60091 0.36272 0.33469 0.0
H1360 H 0.60681 0.43511 0.33108 0.0
C1361 C 0.68255 0.46105 0.35987 0.0
C1362 C 0.69912 0.4843 0.35249 0.0
C1363 C 0.65893 0.4379 0.35519 0.0
C1364 C 0.60542 0.415 0.33208 0.0
H1365 H 0.51377 0.27007 0.32996 0.0
H1366 H 0.55281 0.31203 0.33846 0.0
H1367 H 0.56581 0.39366 0.32326 0.0
H1368 H 0.7033 0.50132 0.33437 0.0
H1369 H 0.66133 0.46118 0.32639 0.0
H1370 H 0.64018 0.38418 0.34387 0.0
C1371 C 0.54398 0.31366 0.32996 0.0
C1372 C 0.58204 0.39125 0.32756 0.0
C1373 C 0.52148 0.28962 0.32516 0.0
C1374 C 0.69092 0.48405 0.3404 0.0
C1375 C 0.66697 0.46103 0.33578 0.0
C1376 C 0.624 0.38639 0.33939 0.0
C1377 C 0.55473 0.33938 0.32391 0.0
C1378 C 0.57949 0.36477 0.32879 0.0
C1379 C 0.651 0.43765 0.3431 0.0
C1380 C 0.62647 0.41271 0.33811 0.0
H1381 H 0.5098 0.31785 0.29996 0.0
H1382 H 0.5498 0.35975 0.30805 0.0
H1383 H 0.60011 0.34288 0.33557 0.0
H1384 H 0.68772 0.46069 0.3693 0.0
H1385 H 0.64671 0.42021 0.36105 0.0
C1386 C 0.21026 0.52937 0.64016 0.0
C1387 C 0.21466 0.51096 0.64735 0.0
C1388 C 0.20919 0.55175 0.64541 0.0
C1389 C 0.23001 0.59515 0.67319 0.0
H1390 H 0.18079 0.61989 0.66044 0.0
C1391 C 0.21492 0.67998 0.69643 0.0
C1392 C 0.2168 0.70129 0.68887 0.0
C1393 C 0.21348 0.65609 0.6915 0.0
C1394 C 0.19474 0.61328 0.66404 0.0
H1395 H 0.22098 0.50157 0.66577 0.0
H1396 H 0.21793 0.53985 0.67496 0.0
H1397 H 0.17977 0.57887 0.65177 0.0
H1398 H 0.21849 0.71397 0.67013 0.0
H1399 H 0.21532 0.67191 0.66154 0.0
H1400 H 0.24465 0.62941 0.68556 0.0
C1401 C 0.21597 0.53738 0.66522 0.0
C1402 C 0.19425 0.58984 0.65906 0.0
C1403 C 0.2173 0.51514 0.65996 0.0
C1404 C 0.21665 0.69784 0.67623 0.0
C1405 C 0.21492 0.67379 0.6713 0.0
C1406 C 0.23028 0.61839 0.67824 0.0
C1407 C 0.21219 0.55615 0.658 0.0
C1408 C 0.21201 0.58057 0.66353 0.0
C1409 C 0.21356 0.6528 0.67889 0.0
C1410 C 0.21276 0.62777 0.67367 0.0
H1411 H 0.20769 0.52657 0.63044 0.0
H1412 H 0.20655 0.56591 0.63953 0.0
H1413 H 0.24437 0.58899 0.67672 0.0
H1414 H 0.21438 0.68163 0.70619 0.0
H1415 H 0.21207 0.64004 0.69755 0.0
C1416 C 0.37106 0.20457 0.12115 0.0
C1417 C 0.39455 0.21013 0.11424 0.0
C1418 C 0.37108 0.20132 0.1337 0.0
C1419 C 0.40805 0.18716 0.15828 0.0
H1420 H 0.37014 0.21472 0.17869 0.0
C1421 C 0.39058 0.16162 0.20927 0.0
C1422 C 0.39222 0.1823 0.21714 0.0
C1423 C 0.39123 0.16531 0.19674 0.0
C1424 C 0.38111 0.20718 0.17315 0.0
H1425 H 0.43664 0.21715 0.11499 0.0
H1426 H 0.43703 0.21221 0.13693 0.0
H1427 H 0.37134 0.22144 0.1569 0.0
H1428 H 0.39645 0.22328 0.21812 0.0
H1429 H 0.39835 0.23014 0.19624 0.0
H1430 H 0.41873 0.17384 0.17458 0.0
C1431 C 0.41828 0.2096 0.13267 0.0
C1432 C 0.38144 0.21065 0.16061 0.0
C1433 C 0.41813 0.21253 0.1201 0.0
C1434 C 0.3948 0.20686 0.21224 0.0
C1435 C 0.39578 0.21071 0.19971 0.0
C1436 C 0.40796 0.18393 0.17083 0.0
C1437 C 0.39473 0.20389 0.13963 0.0
C1438 C 0.39478 0.20057 0.153 0.0
C1439 C 0.39386 0.18992 0.19179 0.0
C1440 C 0.39438 0.19378 0.17843 0.0
H1441 H 0.35248 0.20227 0.11682 0.0
H1442 H 0.35239 0.1964 0.13871 0.0
H1443 H 0.41825 0.17882 0.15271 0.0
H1444 H 0.38824 0.14234 0.21282 0.0
H1445 H 0.38919 0.14863 0.19093 0.0
C1446 C 0.17272 0.3977 0.45616 0.0
C1447 C 0.17674 0.37957 0.44861 0.0
C1448 C 0.17656 0.39777 0.46867 0.0
C1449 C 0.1811 0.35553 0.49366 0.0
H1450 H 0.21542 0.4261 0.51079 0.0
C1451 C 0.2155 0.36728 0.54386 0.0
C1452 C 0.20779 0.38304 0.5512 0.0
C1453 C 0.21198 0.3666 0.5313 0.0
C1454 C 0.20563 0.40623 0.50613 0.0
H1455 H 0.18757 0.34697 0.44837 0.0
H1456 H 0.19521 0.34777 0.47013 0.0
H1457 H 0.20887 0.42532 0.48893 0.0
H1458 H 0.19082 0.41081 0.55117 0.0
H1459 H 0.18471 0.40968 0.52922 0.0
H1460 H 0.17828 0.33657 0.51092 0.0
C1461 C 0.18864 0.36165 0.4664 0.0
C1462 C 0.20178 0.40574 0.49362 0.0
C1463 C 0.18462 0.36144 0.45389 0.0
C1464 C 0.1967 0.39828 0.54574 0.0
C1465 C 0.19344 0.39783 0.53318 0.0
C1466 C 0.18517 0.35606 0.50617 0.0
C1467 C 0.18473 0.37987 0.47394 0.0
C1468 C 0.18929 0.38037 0.48723 0.0
C1469 C 0.20099 0.38194 0.52585 0.0
C1470 C 0.19732 0.3814 0.51254 0.0
H1471 H 0.16702 0.41221 0.45241 0.0
H1472 H 0.17297 0.4118 0.47421 0.0
H1473 H 0.17105 0.33559 0.48907 0.0
H1474 H 0.22393 0.3552 0.54785 0.0
H1475 H 0.21813 0.35433 0.52585 0.0
C1476 C 0.79454 0.17897 0.87879 0.0
C1477 C 0.81622 0.20406 0.88344 0.0
C1478 C 0.7906 0.17497 0.86629 0.0
C1479 C 0.80973 0.21409 0.83715 0.0
H1480 H 0.78462 0.14095 0.82335 0.0
C1481 C 0.81188 0.19464 0.78586 0.0
C1482 C 0.78709 0.17303 0.78093 0.0
C1483 C 0.81508 0.19824 0.7984 0.0
C1484 C 0.79146 0.16143 0.82712 0.0
H1485 H 0.85119 0.24439 0.87874 0.0
H1486 H 0.84503 0.23717 0.85692 0.0
H1487 H 0.7914 0.14762 0.8452 0.0
H1488 H 0.7464 0.138 0.78517 0.0
H1489 H 0.7522 0.14405 0.80717 0.0
H1490 H 0.81053 0.22794 0.81895 0.0
C1491 C 0.83044 0.22085 0.86287 0.0
C1492 C 0.79524 0.16527 0.83963 0.0
C1493 C 0.8341 0.22497 0.87537 0.0
C1494 C 0.76565 0.1549 0.78876 0.0
C1495 C 0.76903 0.15825 0.80131 0.0
C1496 C 0.80634 0.21031 0.82463 0.0
C1497 C 0.80853 0.19586 0.85815 0.0
C1498 C 0.80441 0.19167 0.84482 0.0
C1499 C 0.79371 0.18005 0.80623 0.0
C1500 C 0.79716 0.18395 0.81951 0.0
H1501 H 0.7803 0.16264 0.88484 0.0
H1502 H 0.77321 0.15567 0.86302 0.0
H1503 H 0.81623 0.23458 0.84081 0.0
H1504 H 0.82863 0.209 0.78001 0.0
H1505 H 0.83437 0.21511 0.80198 0.0
C1506 C 0.61154 0.7769 0.12261 0.0
C1507 C 0.61155 0.79643 0.11453 0.0
C1508 C 0.61114 0.78068 0.1351 0.0
C1509 C 0.62305 0.83435 0.15835 0.0
H1510 H 0.58288 0.76943 0.17892 0.0
C1511 C 0.59962 0.83882 0.20939 0.0
C1512 C 0.60678 0.82317 0.21713 0.0
C1513 C 0.6004 0.8363 0.19681 0.0
C1514 C 0.59426 0.78771 0.17327 0.0
H1515 H 0.61075 0.83498 0.11306 0.0
H1516 H 0.60898 0.84117 0.13486 0.0
H1517 H 0.58326 0.76345 0.15706 0.0
H1518 H 0.62123 0.79323 0.21756 0.0
H1519 H 0.6215 0.78816 0.19566 0.0
H1520 H 0.63325 0.85852 0.17468 0.0
C1521 C 0.61017 0.82335 0.13163 0.0
C1522 C 0.59466 0.78433 0.16075 0.0
C1523 C 0.61104 0.81978 0.11914 0.0
C1524 C 0.61489 0.8051 0.21194 0.0
C1525 C 0.61522 0.80227 0.19939 0.0
C1526 C 0.62224 0.83772 0.17087 0.0
C1527 C 0.61024 0.80386 0.13979 0.0
C1528 C 0.60928 0.80758 0.15312 0.0
C1529 C 0.60795 0.8178 0.19172 0.0
C1530 C 0.60805 0.81441 0.17843 0.0
H1531 H 0.61225 0.75889 0.11926 0.0
H1532 H 0.61185 0.76555 0.14107 0.0
H1533 H 0.63491 0.85272 0.15283 0.0
H1534 H 0.59289 0.85263 0.21303 0.0
H1535 H 0.59452 0.84835 0.19105 0.0
C1536 C 0.81067 0.62441 0.54488 0.0
C1537 C 0.78438 0.60806 0.55025 0.0
C1538 C 0.81382 0.62457 0.53232 0.0
C1539 C 0.78061 0.5831 0.50497 0.0
H1540 H 0.82856 0.65241 0.48818 0.0
C1541 C 0.78709 0.5908 0.45278 0.0
C1542 C 0.8136 0.60732 0.44762 0.0
C1543 C 0.78328 0.59088 0.46529 0.0
C1544 C 0.81535 0.63283 0.49276 0.0
H1545 H 0.74075 0.57907 0.54665 0.0
H1546 H 0.74617 0.57966 0.52467 0.0
H1547 H 0.82211 0.65279 0.51002 0.0
H1548 H 0.8569 0.63697 0.45156 0.0
H1549 H 0.85036 0.63668 0.47342 0.0
H1550 H 0.77395 0.56312 0.48772 0.0
C1551 C 0.7644 0.59216 0.5302 0.0
C1552 C 0.81163 0.63306 0.50527 0.0
C1553 C 0.76124 0.59205 0.54277 0.0
C1554 C 0.83625 0.62381 0.45526 0.0
C1555 C 0.83245 0.6239 0.46777 0.0
C1556 C 0.78436 0.58287 0.49246 0.0
C1557 C 0.79074 0.60837 0.52485 0.0
C1558 C 0.79427 0.60819 0.51152 0.0
C1559 C 0.80591 0.60748 0.47293 0.0
C1560 C 0.80182 0.60773 0.48622 0.0
H1561 H 0.82886 0.63721 0.55039 0.0
H1562 H 0.83443 0.63708 0.52849 0.0
H1563 H 0.76743 0.56353 0.50956 0.0
H1564 H 0.76926 0.57762 0.44716 0.0
H1565 H 0.76253 0.57819 0.46896 0.0
C1566 C 0.15054 0.77805 0.87857 0.0
C1567 C 0.17336 0.79321 0.88629 0.0
C1568 C 0.15362 0.78178 0.86602 0.0
C1569 C 0.20142 0.8304 0.8425 0.0
H1570 H 0.15975 0.76684 0.82142 0.0
C1571 C 0.20297 0.84219 0.79048 0.0
C1572 C 0.20217 0.82074 0.78342 0.0
C1573 C 0.19897 0.83899 0.80301 0.0
C1574 C 0.17182 0.78478 0.82716 0.0
H1575 H 0.21737 0.82369 0.88702 0.0
H1576 H 0.22309 0.82956 0.86513 0.0
H1577 H 0.15442 0.76076 0.84322 0.0
H1578 H 0.19732 0.77947 0.78388 0.0
H1579 H 0.19129 0.77415 0.80576 0.0
H1580 H 0.21985 0.85414 0.82646 0.0
C1581 C 0.20256 0.81544 0.86871 0.0
C1582 C 0.1684 0.78138 0.8397 0.0
C1583 C 0.19936 0.812 0.88125 0.0
C1584 C 0.19765 0.79617 0.78911 0.0
C1585 C 0.19405 0.79311 0.80165 0.0
C1586 C 0.20512 0.83373 0.82997 0.0
C1587 C 0.17971 0.80045 0.86092 0.0
C1588 C 0.18316 0.80414 0.84754 0.0
C1589 C 0.19449 0.81441 0.80877 0.0
C1590 C 0.19038 0.81096 0.82213 0.0
H1591 H 0.13019 0.76364 0.88225 0.0
H1592 H 0.13543 0.77025 0.86035 0.0
H1593 H 0.21284 0.84853 0.84822 0.0
H1594 H 0.20618 0.86124 0.78627 0.0
H1595 H 0.19898 0.85565 0.80814 0.0
C1596 C 0.54296 0.6024 0.04817 0.0
C1597 C 0.55494 0.61804 0.03762 0.0
C1598 C 0.52715 0.57339 0.04764 0.0
C1599 C 0.51437 0.51261 0.02964 0.0
H1600 H 0.44343 0.4765 0.04648 0.0
C1601 C 0.44136 0.39372 0.02733 0.0
C1602 C 0.42941 0.38045 0.03837 0.0
C1603 C 0.45458 0.42271 0.02635 0.0
C1604 C 0.46328 0.48622 0.04181 0.0
H1605 H 0.56051 0.61558 0.0183 0.0
H1606 H 0.53294 0.56469 0.01739 0.0
H1607 H 0.47199 0.52716 0.04675 0.0
H1608 H 0.42064 0.38715 0.05683 0.0
H1609 H 0.44435 0.43763 0.05524 0.0
H1610 H 0.50611 0.47173 0.02496 0.0
C1611 C 0.53577 0.57495 0.02606 0.0
C1612 C 0.47961 0.51523 0.04197 0.0
C1613 C 0.5514 0.60403 0.02657 0.0
C1614 C 0.43 0.39675 0.04825 0.0
C1615 C 0.44332 0.4257 0.04729 0.0
C1616 C 0.49813 0.48356 0.02956 0.0
C1617 C 0.52314 0.5594 0.03656 0.0
C1618 C 0.50544 0.52868 0.03599 0.0
C1619 C 0.45622 0.43909 0.03639 0.0
C1620 C 0.47251 0.47 0.03575 0.0
H1621 H 0.54506 0.61263 0.05679 0.0
H1622 H 0.51793 0.56189 0.0559 0.0
H1623 H 0.5343 0.52244 0.02503 0.0
H1624 H 0.44147 0.38182 0.01956 0.0
H1625 H 0.46392 0.43232 0.01776 0.0
C1626 C 0.94914 0.55328 0.38084 0.0
C1627 C 0.93833 0.55767 0.3701 0.0
C1628 C 0.96338 0.53844 0.38063 0.0
C1629 C 0.00415 0.51808 0.36223 0.0
H1630 H 0.97392 0.45224 0.38256 0.0
C1631 C 0.05038 0.44514 0.3614 0.0
C1632 C 0.05234 0.43389 0.37253 0.0
C1633 C 0.03497 0.45876 0.36043 0.0
C1634 C 0.98295 0.47076 0.37696 0.0
H1635 H 0.93473 0.55112 0.35069 0.0
H1636 H 0.96061 0.52586 0.35026 0.0
H1637 H 0.95209 0.48102 0.38248 0.0
H1638 H 0.03833 0.42702 0.39124 0.0
H1639 H 0.013 0.452 0.38976 0.0
H1640 H 0.03576 0.50877 0.35707 0.0
C1641 C 0.95772 0.53363 0.35882 0.0
C1642 C 0.97032 0.48712 0.37688 0.0
C1643 C 0.94295 0.54798 0.35907 0.0
C1644 C 0.03781 0.43589 0.38257 0.0
C1645 C 0.02282 0.44989 0.38166 0.0
C1646 C 0.01717 0.50203 0.36247 0.0
C1647 C 0.9675 0.52824 0.36964 0.0
C1648 C 0.98088 0.51095 0.36956 0.0
C1649 C 0.02144 0.46182 0.37062 0.0
C1650 C 0.00682 0.47819 0.36989 0.0
H1651 H 0.94556 0.56032 0.38947 0.0
H1652 H 0.9709 0.5346 0.38906 0.0
H1653 H 0.01267 0.53646 0.35654 0.0
H1654 H 0.06145 0.44427 0.35348 0.0
H1655 H 0.03395 0.46715 0.35171 0.0
C1656 C 0.59933 0.04777 0.6921 0.0
C1657 C 0.61327 0.06199 0.70269 0.0
C1658 C 0.57027 0.03456 0.69139 0.0
C1659 C 0.5102 0.03592 0.7048 0.0
H1660 H 0.46726 0.96039 0.69262 0.0
C1661 C 0.39231 0.96736 0.71305 0.0
C1662 C 0.3758 0.94824 0.70406 0.0
C1663 C 0.4212 0.98314 0.71172 0.0
C1664 C 0.47893 0.98167 0.69584 0.0
H1665 H 0.60774 0.07372 0.72079 0.0
H1666 H 0.55711 0.05046 0.71959 0.0
H1667 H 0.51801 0.98374 0.69254 0.0
H1668 H 0.37668 0.9314 0.68642 0.0
H1669 H 0.427 0.95954 0.68393 0.0
H1670 H 0.47122 0.0339 0.70815 0.0
C1671 C 0.56862 0.04962 0.71182 0.0
C1672 C 0.50801 0.99499 0.69582 0.0
C1673 C 0.59758 0.06261 0.71257 0.0
C1674 C 0.38874 0.9461 0.69348 0.0
C1675 C 0.41764 0.96196 0.69212 0.0
C1676 C 0.48115 0.02267 0.70475 0.0
C1677 C 0.55467 0.03559 0.70121 0.0
C1678 C 0.52391 0.02208 0.70048 0.0
C1679 C 0.43426 0.98027 0.70133 0.0
C1680 C 0.46515 0.99523 0.70044 0.0
H1681 H 0.61089 0.04689 0.68436 0.0
H1682 H 0.56005 0.02398 0.68308 0.0
H1683 H 0.52196 0.05701 0.70825 0.0
H1684 H 0.38297 0.96978 0.72124 0.0
H1685 H 0.43335 0.99686 0.71904 0.0
C1686 C 0.60353 0.55001 0.64272 0.0
C1687 C 0.617 0.55702 0.63142 0.0
C1688 C 0.57444 0.53484 0.64336 0.0
C1689 C 0.51468 0.48274 0.62697 0.0
H1690 H 0.4708 0.50786 0.64462 0.0
C1691 C 0.39628 0.43137 0.62058 0.0
C1692 C 0.37962 0.43126 0.6302 0.0
C1693 C 0.42522 0.44503 0.6217 0.0
C1694 C 0.48269 0.50017 0.63986 0.0
H1695 H 0.6109 0.55392 0.61197 0.0
H1696 H 0.56002 0.52692 0.61309 0.0
H1697 H 0.52156 0.53604 0.6448 0.0
H1698 H 0.38047 0.44452 0.64879 0.0
H1699 H 0.4308 0.46703 0.65095 0.0
H1700 H 0.47623 0.44662 0.62223 0.0
C1701 C 0.57196 0.53342 0.62142 0.0
C1702 C 0.51175 0.51647 0.63991 0.0
C1703 C 0.60097 0.54903 0.62078 0.0
C1704 C 0.39257 0.44397 0.6412 0.0
C1705 C 0.42154 0.45732 0.64238 0.0
C1706 C 0.4857 0.4662 0.6271 0.0
C1707 C 0.55849 0.52595 0.63271 0.0
C1708 C 0.5279 0.50811 0.63328 0.0
C1709 C 0.4383 0.45856 0.63255 0.0
C1710 C 0.46926 0.47493 0.63335 0.0
H1711 H 0.61552 0.55594 0.65103 0.0
H1712 H 0.56444 0.52924 0.65215 0.0
H1713 H 0.52681 0.47569 0.62195 0.0
H1714 H 0.38704 0.42134 0.61205 0.0
H1715 H 0.43731 0.44571 0.61386 0.0
C1716 C 0.0583 0.60042 0.9524 0.0
C1717 C 0.05981 0.61554 0.96287 0.0
C1718 C 0.04598 0.57147 0.95282 0.0
C1719 C 0.99671 0.50956 0.96986 0.0
H1720 H 0.03543 0.47564 0.95449 0.0
C1721 C 0.95298 0.39111 0.97178 0.0
C1722 C 0.95336 0.37839 0.96081 0.0
C1723 C 0.96828 0.42006 0.97303 0.0
C1724 C 0.02424 0.48475 0.95874 0.0
H1725 H 0.04896 0.6122 0.98191 0.0
H1726 H 0.02716 0.5614 0.98263 0.0
H1727 H 0.05637 0.52621 0.95445 0.0
H1728 H 0.97142 0.38604 0.9428 0.0
H1729 H 0.99743 0.43648 0.94485 0.0
H1730 H 0.96422 0.46819 0.97388 0.0
C1731 C 0.03559 0.57203 0.97411 0.0
C1732 C 0.03624 0.5137 0.95872 0.0
C1733 C 0.04816 0.60105 0.97371 0.0
C1734 C 0.97036 0.3952 0.95131 0.0
C1735 C 0.98554 0.42414 0.95254 0.0
C1736 C 0.98459 0.48058 0.96981 0.0
C1737 C 0.03475 0.55701 0.9637 0.0
C1738 C 0.02246 0.52637 0.96417 0.0
C1739 C 0.98422 0.43696 0.96332 0.0
C1740 C 0.99809 0.46781 0.96415 0.0
H1741 H 0.06741 0.61105 0.94395 0.0
H1742 H 0.04531 0.56038 0.94463 0.0
H1743 H 0.98553 0.51878 0.97404 0.0
H1744 H 0.93994 0.37882 0.97924 0.0
H1745 H 0.96718 0.42923 0.98153 0.0
C1746 C 0.54399 0.9404 0.30934 0.0
C1747 C 0.55508 0.93712 0.29842 0.0
C1748 C 0.52865 0.95418 0.30949 0.0
C1749 C 0.48288 0.96655 0.29054 0.0
H1750 H 0.49942 0.02902 0.31154 0.0
C1751 C 0.43172 0.03368 0.28367 0.0
C1752 C 0.42745 0.04674 0.29371 0.0
C1753 C 0.44554 0.0186 0.28499 0.0
C1754 C 0.49409 0.01122 0.30579 0.0
H1755 H 0.55916 0.94579 0.27915 0.0
H1756 H 0.53192 0.96949 0.27939 0.0
H1757 H 0.52811 0.00704 0.31258 0.0
H1758 H 0.43342 0.05304 0.31313 0.0
H1759 H 0.45615 0.02548 0.31553 0.0
H1760 H 0.44852 0.96996 0.28392 0.0
C1761 C 0.53534 0.96163 0.28782 0.0
C1762 C 0.5107 0.99883 0.30634 0.0
C1763 C 0.55109 0.94834 0.2877 0.0
C1764 C 0.43613 0.04313 0.30521 0.0
C1765 C 0.44963 0.02768 0.30655 0.0
C1766 C 0.46597 0.97857 0.29013 0.0
C1767 C 0.52369 0.96433 0.29867 0.0
C1768 C 0.50549 0.97671 0.29857 0.0
C1769 C 0.45506 0.01573 0.29642 0.0
C1770 C 0.47163 0.0014 0.2976 0.0
H1771 H 0.5468 0.93187 0.3177 0.0
H1772 H 0.51981 0.956 0.31796 0.0
H1773 H 0.47822 0.94918 0.28459 0.0
H1774 H 0.42487 0.03555 0.27471 0.0
H1775 H 0.44953 0.01001 0.27693 0.0
loop_
_geom_bond_atom_site_label_1
_geom_bond_atom_site_label_2
_geom_bond_distance
_geom_bond_site_symmetry_2
_ccdc_geom_bond_type
Li0 N17 1.990 . S
Li0 O60 1.956 . S
Li0 O61 1.970 . S
Li0 O62 1.961 . S
Li1 N25 1.990 . S
Li1 O60 1.970 . S
Li1 O61 1.956 . S
Li1 O63 1.961 . S
Li2 N47 1.990 . S
Li2 O60 1.961 . S
Li2 O62 1.956 . S
Li2 O63 1.970 . S
Li3 N53 1.990 . S
Li3 O61 1.961 . S
Li3 O62 1.970 . S
Li3 O63 1.956 . S
C4 C6 1.348 . S
C4 C7 1.356 . S
C4 O60 1.325 . S
N5 C8 1.314 . S
N5 C9 1.279 . S
C6 C4 1.348 . S
C6 C8 1.353 . S
C6 H64 0.929 . S
C7 C4 1.356 . S
C7 C9 1.358 . S
C7 H65 0.930 . S
C8 N5 1.314 . S
C8 C6 1.353 . S
C8 H66 0.930 . S
C9 N5 1.279 . S
C9 C7 1.358 . S
C9 H67 0.930 . S
C10 C13 1.348 . S
C10 C14 1.356 . S
C10 O61 1.325 . S
C11 N12 1.279 . S
C11 C14 1.358 . S
C11 H68 0.930 . S
N12 C11 1.279 . S
N12 C15 1.314 . S
C13 C10 1.348 . S
C13 C15 1.353 . S
C13 H69 0.929 . S
C14 C10 1.356 . S
C14 C11 1.358 . S
C14 H70 0.930 . S
C15 N12 1.314 . S
C15 C13 1.353 . S
C15 H71 0.930 . S
C16 N17 1.314 . S
C16 C21 1.353 . S
C16 H22 0.930 . S
N17 Li0 1.990 . S
N17 C16 1.314 . S
N17 C19 1.279 . S
C18 C19 1.358 . S
C18 C20 1.356 . S
C18 H72 0.930 . S
C19 N17 1.279 . S
C19 C18 1.358 . S
C19 H23 0.930 . S
C20 C18 1.356 . S
C20 C21 1.348 . S
C21 C16 1.353 . S
C21 C20 1.348 . S
C21 H73 0.929 . S
H22 C16 0.930 . S
H23 C19 0.930 . S
C24 N25 1.314 . S
C24 C26 1.353 . S
C24 H30 0.930 . S
N25 Li1 1.990 . S
N25 C24 1.314 . S
N25 C28 1.279 . S
C26 C24 1.353 . S
C26 C29 1.348 . S
C26 H74 0.929 . S
C27 C28 1.358 . S
C27 C29 1.356 . S
C27 H75 0.930 . S
C28 N25 1.279 . S
C28 C27 1.358 . S
C28 H31 0.930 . S
C29 C26 1.348 . S
C29 C27 1.356 . S
H30 C24 0.930 . S
H31 C28 0.930 . S
C32 C34 1.348 . S
C32 C35 1.356 . S
C32 O62 1.325 . S
N33 C36 1.314 . S
N33 C37 1.279 . S
C34 C32 1.348 . S
C34 C36 1.353 . S
C34 H76 0.929 . S
C35 C32 1.356 . S
C35 C37 1.358 . S
C35 H77 0.930 . S
C36 N33 1.314 . S
C36 C34 1.353 . S
C36 H78 0.930 . S
C37 N33 1.279 . S
C37 C35 1.358 . S
C37 H79 0.930 . S
C38 C39 1.348 . S
C38 C40 1.356 . S
C38 O63 1.325 . S
C39 C38 1.348 . S
C39 C41 1.353 1_554 S
C39 H80 0.929 . S
C40 C38 1.356 . S
C40 C42 1.358 1_554 S
C40 H81 0.930 . S
C41 C39 1.353 1_556 S
C41 N43 1.314 . S
C41 H82 0.930 . S
C42 C40 1.358 1_556 S
C42 N43 1.279 . S
C42 H83 0.930 . S
N43 C41 1.314 . S
N43 C42 1.279 . S
C44 C46 1.353 . S
C44 N47 1.314 . S
C44 H50 0.930 . S
C45 N47 1.279 . S
C45 C48 1.358 . S
C45 H51 0.930 . S
C46 C44 1.353 . S
C46 C49 1.348 . S
C46 H84 0.929 . S
N47 Li2 1.990 . S
N47 C44 1.314 . S
N47 C45 1.279 . S
C48 C45 1.358 . S
C48 C49 1.356 . S
C48 H85 0.930 . S
C49 C46 1.348 . S
C49 C48 1.356 . S
H50 C44 0.930 . S
H51 C45 0.930 . S
C52 N53 1.314 . S
C52 C54 1.353 . S
C52 H58 0.930 . S
N53 Li3 1.990 . S
N53 C52 1.314 . S
N53 C56 1.279 . S
C54 C52 1.353 . S
C54 C57 1.348 . S
C54 H86 0.929 . S
C55 C56 1.358 . S
C55 C57 1.356 . S
C55 H87 0.930 . S
C56 N53 1.279 . S
C56 C55 1.358 . S
C56 H59 0.930 . S
C57 C54 1.348 . S
C57 C55 1.356 . S
H58 C52 0.930 . S
H59 C56 0.930 . S
O60 Li0 1.956 . S
O60 Li1 1.970 . S
O60 Li2 1.961 . S
O60 C4 1.325 . S
O61 Li0 1.970 . S
O61 Li1 1.956 . S
O61 Li3 1.961 . S
O61 C10 1.325 . S
O62 Li0 1.961 . S
O62 Li2 1.956 . S
O62 Li3 1.970 . S
O62 C32 1.325 . S
O63 Li1 1.961 . S
O63 Li2 1.970 . S
O63 Li3 1.956 . S
O63 C38 1.325 . S
H64 C6 0.929 . S
H65 C7 0.930 . S
H66 C8 0.930 . S
H67 C9 0.930 . S
H68 C11 0.930 . S
H69 C13 0.929 . S
H70 C14 0.930 . S
H71 C15 0.930 . S
H72 C18 0.930 . S
H73 C21 0.929 . S
H74 C26 0.929 . S
H75 C27 0.930 . S
H76 C34 0.929 . S
H77 C35 0.930 . S
H78 C36 0.930 . S
H79 C37 0.930 . S
H80 C39 0.929 . S
H81 C40 0.930 . S
H82 C41 0.930 . S
H83 C42 0.930 . S
H84 C46 0.929 . S
H85 C48 0.930 . S
H86 C54 0.929 . S
H87 C55 0.930 . S
Li88 N105 1.990 . S
Li88 O148 1.956 . S
Li88 O149 1.970 . S
Li88 O150 1.961 . S
Li89 N113 1.990 . S
Li89 O148 1.970 . S
Li89 O149 1.956 . S
Li89 O151 1.961 . S
Li90 N135 1.990 . S
Li90 O148 1.961 . S
Li90 O150 1.956 . S
Li90 O151 1.970 . S
Li91 N141 1.990 . S
Li91 O149 1.961 . S
Li91 O150 1.970 . S
Li91 O151 1.956 . S
C92 C94 1.348 . S
C92 C95 1.356 . S
C92 O148 1.325 . S
N93 C96 1.314 . S
N93 C97 1.279 . S
C94 C92 1.348 . S
C94 C96 1.353 . S
C94 H152 0.929 . S
C95 C92 1.356 . S
C95 C97 1.358 . S
C95 H153 0.930 . S
C96 N93 1.314 . S
C96 C94 1.353 . S
C96 H154 0.930 . S
C97 N93 1.279 . S
C97 C95 1.358 . S
C97 H155 0.930 . S
C98 C101 1.348 . S
C98 C102 1.356 . S
C98 O149 1.325 . S
C99 N100 1.279 . S
C99 C102 1.358 . S
C99 H156 0.930 . S
N100 C99 1.279 . S
N100 C103 1.314 . S
C101 C98 1.348 . S
C101 C103 1.353 . S
C101 H157 0.929 . S
C102 C98 1.356 . S
C102 C99 1.358 . S
C102 H158 0.930 . S
C103 N100 1.314 . S
C103 C101 1.353 . S
C103 H159 0.930 . S
C104 N105 1.314 . S
C104 C109 1.353 . S
C104 H110 0.930 . S
N105 Li88 1.990 . S
N105 C104 1.314 . S
N105 C107 1.279 . S
C106 C107 1.358 . S
C106 C108 1.356 . S
C106 H160 0.930 . S
C107 N105 1.279 . S
C107 C106 1.358 . S
C107 H111 0.930 . S
C108 C106 1.356 . S
C108 C109 1.348 . S
C109 C104 1.353 . S
C109 C108 1.348 . S
C109 H161 0.929 . S
H110 C104 0.930 . S
H111 C107 0.930 . S
C112 N113 1.314 . S
C112 C114 1.353 . S
C112 H118 0.930 . S
N113 Li89 1.990 . S
N113 C112 1.314 . S
N113 C116 1.279 . S
C114 C112 1.353 . S
C114 C117 1.348 . S
C114 H162 0.929 . S
C115 C116 1.358 . S
C115 C117 1.356 . S
C115 H163 0.930 . S
C116 N113 1.279 . S
C116 C115 1.358 . S
C116 H119 0.930 . S
C117 C114 1.348 . S
C117 C115 1.356 . S
H118 C112 0.930 . S
H119 C116 0.930 . S
C120 C122 1.348 . S
C120 C123 1.356 . S
C120 O150 1.325 . S
N121 C124 1.314 . S
N121 C125 1.279 . S
C122 C120 1.348 . S
C122 C124 1.353 . S
C122 H164 0.929 . S
C123 C120 1.356 . S
C123 C125 1.358 . S
C123 H165 0.930 . S
C124 N121 1.314 . S
C124 C122 1.353 . S
C124 H166 0.930 . S
C125 N121 1.279 . S
C125 C123 1.358 . S
C125 H167 0.930 . S
C126 C127 1.348 . S
C126 C128 1.356 . S
C126 O151 1.325 . S
C127 C126 1.348 . S
C127 C129 1.353 . S
C127 H168 0.929 . S
C128 C126 1.356 . S
C128 C130 1.358 . S
C128 H169 0.930 . S
C129 C127 1.353 . S
C129 N131 1.314 . S
C129 H170 0.930 . S
C130 C128 1.358 . S
C130 N131 1.279 . S
C130 H171 0.930 . S
N131 C129 1.314 . S
N131 C130 1.279 . S
C132 C134 1.353 . S
C132 N135 1.314 . S
C132 H138 0.930 . S
C133 N135 1.279 . S
C133 C136 1.358 . S
C133 H139 0.930 . S
C134 C132 1.353 . S
C134 C137 1.348 . S
C134 H172 0.929 . S
N135 Li90 1.990 . S
N135 C132 1.314 . S
N135 C133 1.279 . S
C136 C133 1.358 . S
C136 C137 1.356 . S
C136 H173 0.930 . S
C137 C134 1.348 . S
C137 C136 1.356 . S
H138 C132 0.930 . S
H139 C133 0.930 . S
C140 N141 1.314 . S
C140 C142 1.353 . S
C140 H146 0.930 . S
N141 Li91 1.990 . S
N141 C140 1.314 . S
N141 C144 1.279 . S
C142 C140 1.353 . S
C142 C145 1.348 . S
C142 H174 0.929 . S
C143 C144 1.358 . S
C143 C145 1.356 . S
C143 H175 0.930 . S
C144 N141 1.279 . S
C144 C143 1.358 . S
C144 H147 0.930 . S
C145 C142 1.348 . S
C145 C143 1.356 . S
H146 C140 0.930 . S
H147 C144 0.930 . S
O148 Li88 1.956 . S
O148 Li89 1.970 . S
O148 Li90 1.961 . S
O148 C92 1.325 . S
O149 Li88 1.970 . S
O149 Li89 1.956 . S
O149 Li91 1.961 . S
O149 C98 1.325 . S
O150 Li88 1.961 . S
O150 Li90 1.956 . S
O150 Li91 1.970 . S
O150 C120 1.325 . S
O151 Li89 1.961 . S
O151 Li90 1.970 . S
O151 Li91 1.956 . S
O151 C126 1.325 . S
H152 C94 0.929 . S
H153 C95 0.930 . S
H154 C96 0.930 . S
H155 C97 0.930 . S
H156 C99 0.930 . S
H157 C101 0.929 . S
H158 C102 0.930 . S
H159 C103 0.930 . S
H160 C106 0.930 . S
H161 C109 0.929 . S
H162 C114 0.929 . S
H163 C115 0.930 . S
H164 C122 0.929 . S
H165 C123 0.930 . S
H166 C124 0.930 . S
H167 C125 0.930 . S
H168 C127 0.929 . S
H169 C128 0.930 . S
H170 C129 0.930 . S
H171 C130 0.930 . S
H172 C134 0.929 . S
H173 C136 0.930 . S
H174 C142 0.929 . S
H175 C143 0.930 . S
Li176 N193 1.990 . S
Li176 O236 1.956 . S
Li176 O237 1.970 . S
Li176 O238 1.961 . S
Li177 N201 1.990 . S
Li177 O236 1.970 . S
Li177 O237 1.956 . S
Li177 O239 1.961 . S
Li178 N223 1.990 . S
Li178 O236 1.961 . S
Li178 O238 1.956 . S
Li178 O239 1.970 . S
Li179 N229 1.990 . S
Li179 O237 1.961 . S
Li179 O238 1.970 . S
Li179 O239 1.956 . S
C180 C182 1.348 . S
C180 C183 1.356 . S
C180 O236 1.325 . S
N181 C184 1.314 . S
N181 C185 1.279 . S
C182 C180 1.348 . S
C182 C184 1.353 . S
C182 H240 0.929 . S
C183 C180 1.356 . S
C183 C185 1.358 . S
C183 H241 0.930 . S
C184 N181 1.314 . S
C184 C182 1.353 . S
C184 H242 0.930 . S
C185 N181 1.279 . S
C185 C183 1.358 . S
C185 H243 0.930 . S
C186 C189 1.348 . S
C186 C190 1.356 . S
C186 O237 1.325 . S
C187 N188 1.279 . S
C187 C190 1.358 . S
C187 H244 0.930 . S
N188 C187 1.279 . S
N188 C191 1.314 . S
C189 C186 1.348 . S
C189 C191 1.353 . S
C189 H245 0.929 . S
C190 C186 1.356 . S
C190 C187 1.358 . S
C190 H246 0.930 . S
C191 N188 1.314 . S
C191 C189 1.353 . S
C191 H247 0.930 . S
C192 N193 1.314 . S
C192 C197 1.353 . S
C192 H198 0.930 . S
N193 Li176 1.990 . S
N193 C192 1.314 . S
N193 C195 1.279 . S
C194 C195 1.358 . S
C194 C196 1.356 . S
C194 H248 0.930 . S
C195 N193 1.279 . S
C195 C194 1.358 . S
C195 H199 0.930 . S
C196 C194 1.356 . S
C196 C197 1.348 . S
C197 C192 1.353 . S
C197 C196 1.348 . S
C197 H249 0.929 . S
H198 C192 0.930 . S
H199 C195 0.930 . S
C200 N201 1.314 . S
C200 C202 1.353 . S
C200 H206 0.930 . S
N201 Li177 1.990 . S
N201 C200 1.314 . S
N201 C204 1.279 . S
C202 C200 1.353 . S
C202 C205 1.348 . S
C202 H250 0.929 . S
C203 C204 1.358 . S
C203 C205 1.356 . S
C203 H251 0.930 . S
C204 N201 1.279 . S
C204 C203 1.358 . S
C204 H207 0.930 . S
C205 C202 1.348 . S
C205 C203 1.356 . S
H206 C200 0.930 . S
H207 C204 0.930 . S
C208 C210 1.348 . S
C208 C211 1.356 . S
C208 O238 1.325 . S
N209 C212 1.314 . S
N209 C213 1.279 . S
C210 C208 1.348 . S
C210 C212 1.353 . S
C210 H252 0.929 . S
C211 C208 1.356 . S
C211 C213 1.358 . S
C211 H253 0.930 . S
C212 N209 1.314 . S
C212 C210 1.353 . S
C212 H254 0.930 . S
C213 N209 1.279 . S
C213 C211 1.358 . S
C213 H255 0.930 . S
C214 C215 1.348 . S
C214 C216 1.356 . S
C214 O239 1.325 . S
C215 C214 1.348 . S
C215 C217 1.353 . S
C215 H256 0.929 . S
C216 C214 1.356 . S
C216 C218 1.358 . S
C216 H257 0.930 . S
C217 C215 1.353 . S
C217 N219 1.314 . S
C217 H258 0.930 . S
C218 C216 1.358 . S
C218 N219 1.279 . S
C218 H259 0.930 . S
N219 C217 1.314 . S
N219 C218 1.279 . S
C220 C222 1.353 . S
C220 N223 1.314 . S
C220 H226 0.930 . S
C221 N223 1.279 . S
C221 C224 1.358 . S
C221 H227 0.930 . S
C222 C220 1.353 . S
C222 C225 1.348 . S
C222 H260 0.929 . S
N223 Li178 1.990 . S
N223 C220 1.314 . S
N223 C221 1.279 . S
C224 C221 1.358 . S
C224 C225 1.356 . S
C224 H261 0.930 . S
C225 C222 1.348 . S
C225 C224 1.356 . S
H226 C220 0.930 . S
H227 C221 0.930 . S
C228 N229 1.314 . S
C228 C230 1.353 . S
C228 H234 0.930 . S
N229 Li179 1.990 . S
N229 C228 1.314 . S
N229 C232 1.279 . S
C230 C228 1.353 . S
C230 C233 1.348 . S
C230 H262 0.929 . S
C231 C232 1.358 . S
C231 C233 1.356 . S
C231 H263 0.930 . S
C232 N229 1.279 . S
C232 C231 1.358 . S
C232 H235 0.930 . S
C233 C230 1.348 . S
C233 C231 1.356 . S
H234 C228 0.930 . S
H235 C232 0.930 . S
O236 Li176 1.956 . S
O236 Li177 1.970 . S
O236 Li178 1.961 . S
O236 C180 1.325 . S
O237 Li176 1.970 . S
O237 Li177 1.956 . S
O237 Li179 1.961 . S
O237 C186 1.325 . S
O238 Li176 1.961 . S
O238 Li178 1.956 . S
O238 Li179 1.970 . S
O238 C208 1.325 . S
O239 Li177 1.961 . S
O239 Li178 1.970 . S
O239 Li179 1.956 . S
O239 C214 1.325 . S
H240 C182 0.929 . S
H241 C183 0.930 . S
H242 C184 0.930 . S
H243 C185 0.930 . S
H244 C187 0.930 . S
H245 C189 0.929 . S
H246 C190 0.930 . S
H247 C191 0.930 . S
H248 C194 0.930 . S
H249 C197 0.929 . S
H250 C202 0.929 . S
H251 C203 0.930 . S
H252 C210 0.929 . S
H253 C211 0.930 . S
H254 C212 0.930 . S
H255 C213 0.930 . S
H256 C215 0.929 . S
H257 C216 0.930 . S
H258 C217 0.930 . S
H259 C218 0.930 . S
H260 C222 0.929 . S
H261 C224 0.930 . S
H262 C230 0.929 . S
H263 C231 0.930 . S
Li264 N281 1.990 . S
Li264 O324 1.956 . S
Li264 O325 1.970 . S
Li264 O326 1.961 . S
Li265 N289 1.990 . S
Li265 O324 1.970 . S
Li265 O325 1.956 . S
Li265 O327 1.961 . S
Li266 N311 1.990 . S
Li266 O324 1.961 . S
Li266 O326 1.956 . S
Li266 O327 1.970 . S
Li267 N317 1.990 . S
Li267 O325 1.961 . S
Li267 O326 1.970 . S
Li267 O327 1.956 . S
C268 C270 1.348 . S
C268 C271 1.356 . S
C268 O324 1.325 . S
N269 C272 1.314 . S
N269 C273 1.279 . S
C270 C268 1.348 . S
C270 C272 1.353 . S
C270 H328 0.929 . S
C271 C268 1.356 . S
C271 C273 1.358 . S
C271 H329 0.930 . S
C272 N269 1.314 . S
C272 C270 1.353 . S
C272 H330 0.930 . S
C273 N269 1.279 . S
C273 C271 1.358 . S
C273 H331 0.930 . S
C274 C277 1.348 . S
C274 C278 1.356 . S
C274 O325 1.325 . S
C275 N276 1.279 . S
C275 C278 1.358 . S
C275 H332 0.930 . S
N276 C275 1.279 . S
N276 C279 1.314 . S
C277 C274 1.348 . S
C277 C279 1.353 . S
C277 H333 0.929 . S
C278 C274 1.356 . S
C278 C275 1.358 . S
C278 H334 0.930 . S
C279 N276 1.314 . S
C279 C277 1.353 . S
C279 H335 0.930 . S
C280 N281 1.314 . S
C280 C285 1.353 . S
C280 H286 0.930 . S
N281 Li264 1.990 . S
N281 C280 1.314 . S
N281 C283 1.279 . S
C282 C283 1.358 . S
C282 C284 1.356 . S
C282 H336 0.930 . S
C283 N281 1.279 . S
C283 C282 1.358 . S
C283 H287 0.930 . S
C284 C282 1.356 . S
C284 C285 1.348 . S
C285 C280 1.353 . S
C285 C284 1.348 . S
C285 H337 0.929 . S
H286 C280 0.930 . S
H287 C283 0.930 . S
C288 N289 1.314 . S
C288 C290 1.353 . S
C288 H294 0.930 . S
N289 Li265 1.990 . S
N289 C288 1.314 . S
N289 C292 1.279 . S
C290 C288 1.353 . S
C290 C293 1.348 . S
C290 H338 0.929 . S
C291 C292 1.358 . S
C291 C293 1.356 . S
C291 H339 0.930 . S
C292 N289 1.279 . S
C292 C291 1.358 . S
C292 H295 0.930 . S
C293 C290 1.348 . S
C293 C291 1.356 . S
H294 C288 0.930 . S
H295 C292 0.930 . S
C296 C298 1.348 . S
C296 C299 1.356 . S
C296 O326 1.325 . S
N297 C300 1.314 . S
N297 C301 1.279 . S
C298 C296 1.348 . S
C298 C300 1.353 1_554 S
C298 H340 0.929 . S
C299 C296 1.356 . S
C299 C301 1.358 1_554 S
C299 H341 0.930 . S
C300 N297 1.314 . S
C300 C298 1.353 1_556 S
C300 H342 0.930 . S
C301 N297 1.279 . S
C301 C299 1.358 1_556 S
C301 H343 0.930 . S
C302 C303 1.348 . S
C302 C304 1.356 . S
C302 O327 1.325 . S
C303 C302 1.348 . S
C303 C305 1.353 . S
C303 H344 0.929 . S
C304 C302 1.356 . S
C304 C306 1.358 . S
C304 H345 0.930 . S
C305 C303 1.353 . S
C305 N307 1.314 . S
C305 H346 0.930 . S
C306 C304 1.358 . S
C306 N307 1.279 . S
C306 H347 0.930 . S
N307 C305 1.314 . S
N307 C306 1.279 . S
C308 C310 1.353 . S
C308 N311 1.314 . S
C308 H314 0.930 . S
C309 N311 1.279 . S
C309 C312 1.358 . S
C309 H315 0.930 . S
C310 C308 1.353 . S
C310 C313 1.348 . S
C310 H348 0.929 . S
N311 Li266 1.990 . S
N311 C308 1.314 . S
N311 C309 1.279 . S
C312 C309 1.358 . S
C312 C313 1.356 . S
C312 H349 0.930 . S
C313 C310 1.348 . S
C313 C312 1.356 . S
H314 C308 0.930 . S
H315 C309 0.930 . S
C316 N317 1.314 . S
C316 C318 1.353 . S
C316 H322 0.930 . S
N317 Li267 1.990 . S
N317 C316 1.314 . S
N317 C320 1.279 . S
C318 C316 1.353 . S
C318 C321 1.348 . S
C318 H350 0.929 . S
C319 C320 1.358 . S
C319 C321 1.356 . S
C319 H351 0.930 . S
C320 N317 1.279 . S
C320 C319 1.358 . S
C320 H323 0.930 . S
C321 C318 1.348 . S
C321 C319 1.356 . S
H322 C316 0.930 . S
H323 C320 0.930 . S
O324 Li264 1.956 . S
O324 Li265 1.970 . S
O324 Li266 1.961 . S
O324 C268 1.325 . S
O325 Li264 1.970 . S
O325 Li265 1.956 . S
O325 Li267 1.961 . S
O325 C274 1.325 . S
O326 Li264 1.961 . S
O326 Li266 1.956 . S
O326 Li267 1.970 . S
O326 C296 1.325 . S
O327 Li265 1.961 . S
O327 Li266 1.970 . S
O327 Li267 1.956 . S
O327 C302 1.325 . S
H328 C270 0.929 . S
H329 C271 0.930 . S
H330 C272 0.930 . S
H331 C273 0.930 . S
H332 C275 0.930 . S
H333 C277 0.929 . S
H334 C278 0.930 . S
H335 C279 0.930 . S
H336 C282 0.930 . S
H337 C285 0.929 . S
H338 C290 0.929 . S
H339 C291 0.930 . S
H340 C298 0.929 . S
H341 C299 0.930 . S
H342 C300 0.930 . S
H343 C301 0.930 . S
H344 C303 0.929 . S
H345 C304 0.930 . S
H346 C305 0.930 . S
H347 C306 0.930 . S
H348 C310 0.929 . S
H349 C312 0.930 . S
H350 C318 0.929 . S
H351 C319 0.930 . S
Li352 N369 1.990 . S
Li352 O412 1.956 . S
Li352 O413 1.970 . S
Li352 O414 1.961 . S
Li353 N377 1.990 . S
Li353 O412 1.970 . S
Li353 O413 1.956 . S
Li353 O415 1.961 . S
Li354 N399 1.990 . S
Li354 O412 1.961 . S
Li354 O414 1.956 . S
Li354 O415 1.970 . S
Li355 N405 1.990 . S
Li355 O413 1.961 . S
Li355 O414 1.970 . S
Li355 O415 1.956 . S
C356 C358 1.348 . S
C356 C359 1.356 . S
C356 O412 1.325 . S
N357 C360 1.314 . S
N357 C361 1.279 . S
C358 C356 1.348 . S
C358 C360 1.353 . S
C358 H416 0.929 . S
C359 C356 1.356 . S
C359 C361 1.358 . S
C359 H417 0.930 . S
C360 N357 1.314 . S
C360 C358 1.353 . S
C360 H418 0.930 . S
C361 N357 1.279 . S
C361 C359 1.358 . S
C361 H419 0.930 . S
C362 C365 1.348 . S
C362 C366 1.356 . S
C362 O413 1.325 . S
C363 N364 1.279 . S
C363 C366 1.358 . S
C363 H420 0.930 . S
N364 C363 1.279 . S
N364 C367 1.314 . S
C365 C362 1.348 . S
C365 C367 1.353 . S
C365 H421 0.929 . S
C366 C362 1.356 . S
C366 C363 1.358 . S
C366 H422 0.930 . S
C367 N364 1.314 . S
C367 C365 1.353 . S
C367 H423 0.930 . S
C368 N369 1.314 . S
C368 C373 1.353 . S
C368 H374 0.930 . S
N369 Li352 1.990 . S
N369 C368 1.314 . S
N369 C371 1.279 . S
C370 C371 1.358 . S
C370 C372 1.356 . S
C370 H424 0.930 . S
C371 N369 1.279 . S
C371 C370 1.358 . S
C371 H375 0.930 . S
C372 C370 1.356 . S
C372 C373 1.348 . S
C373 C368 1.353 . S
C373 C372 1.348 . S
C373 H425 0.929 . S
H374 C368 0.930 . S
H375 C371 0.930 . S
C376 N377 1.314 . S
C376 C378 1.353 . S
C376 H382 0.930 . S
N377 Li353 1.990 . S
N377 C376 1.314 . S
N377 C380 1.279 . S
C378 C376 1.353 . S
C378 C381 1.348 . S
C378 H426 0.929 . S
C379 C380 1.358 . S
C379 C381 1.356 . S
C379 H427 0.930 . S
C380 N377 1.279 . S
C380 C379 1.358 . S
C380 H383 0.930 . S
C381 C378 1.348 . S
C381 C379 1.356 . S
H382 C376 0.930 . S
H383 C380 0.930 . S
C384 C386 1.348 . S
C384 C387 1.356 . S
C384 O414 1.325 . S
N385 C388 1.314 . S
N385 C389 1.279 . S
C386 C384 1.348 . S
C386 C388 1.353 . S
C386 H428 0.929 . S
C387 C384 1.356 . S
C387 C389 1.358 . S
C387 H429 0.930 . S
C388 N385 1.314 . S
C388 C386 1.353 . S
C388 H430 0.930 . S
C389 N385 1.279 . S
C389 C387 1.358 . S
C389 H431 0.930 . S
C390 C391 1.348 . S
C390 C392 1.356 . S
C390 O415 1.325 . S
C391 C390 1.348 . S
C391 C393 1.353 . S
C391 H432 0.929 . S
C392 C390 1.356 . S
C392 C394 1.358 . S
C392 H433 0.930 . S
C393 C391 1.353 . S
C393 N395 1.314 . S
C393 H434 0.930 . S
C394 C392 1.358 . S
C394 N395 1.279 . S
C394 H435 0.930 . S
N395 C393 1.314 . S
N395 C394 1.279 . S
C396 C398 1.353 . S
C396 N399 1.314 . S
C396 H402 0.930 . S
C397 N399 1.279 . S
C397 C400 1.358 . S
C397 H403 0.930 . S
C398 C396 1.353 . S
C398 C401 1.348 . S
C398 H436 0.929 . S
N399 Li354 1.990 . S
N399 C396 1.314 . S
N399 C397 1.279 . S
C400 C397 1.358 . S
C400 C401 1.356 . S
C400 H437 0.930 . S
C401 C398 1.348 . S
C401 C400 1.356 . S
H402 C396 0.930 . S
H403 C397 0.930 . S
C404 N405 1.314 . S
C404 C406 1.353 . S
C404 H410 0.930 . S
N405 Li355 1.990 . S
N405 C404 1.314 . S
N405 C408 1.279 . S
C406 C404 1.353 . S
C406 C409 1.348 . S
C406 H438 0.929 . S
C407 C408 1.358 . S
C407 C409 1.356 . S
C407 H439 0.930 . S
C408 N405 1.279 . S
C408 C407 1.358 . S
C408 H411 0.930 . S
C409 C406 1.348 . S
C409 C407 1.356 . S
H410 C404 0.930 . S
H411 C408 0.930 . S
O412 Li352 1.956 . S
O412 Li353 1.970 . S
O412 Li354 1.961 . S
O412 C356 1.325 . S
O413 Li352 1.970 . S
O413 Li353 1.956 . S
O413 Li355 1.961 . S
O413 C362 1.325 . S
O414 Li352 1.961 . S
O414 Li354 1.956 . S
O414 Li355 1.970 . S
O414 C384 1.325 . S
O415 Li353 1.961 . S
O415 Li354 1.970 . S
O415 Li355 1.956 . S
O415 C390 1.325 . S
H416 C358 0.929 . S
H417 C359 0.930 . S
H418 C360 0.930 . S
H419 C361 0.930 . S
H420 C363 0.930 . S
H421 C365 0.929 . S
H422 C366 0.930 . S
H423 C367 0.930 . S
H424 C370 0.930 . S
H425 C373 0.929 . S
H426 C378 0.929 . S
H427 C379 0.930 . S
H428 C386 0.929 . S
H429 C387 0.930 . S
H430 C388 0.930 . S
H431 C389 0.930 . S
H432 C391 0.929 . S
H433 C392 0.930 . S
H434 C393 0.930 . S
H435 C394 0.930 . S
H436 C398 0.929 . S
H437 C400 0.930 . S
H438 C406 0.929 . S
H439 C407 0.930 . S
Li440 N457 1.990 . S
Li440 O500 1.956 . S
Li440 O501 1.970 . S
Li440 O502 1.961 . S
Li441 N465 1.990 . S
Li441 O500 1.970 . S
Li441 O501 1.956 . S
Li441 O503 1.961 . S
Li442 N487 1.990 . S
Li442 O500 1.961 . S
Li442 O502 1.956 . S
Li442 O503 1.970 . S
Li443 N493 1.990 . S
Li443 O501 1.961 . S
Li443 O502 1.970 . S
Li443 O503 1.956 . S
C444 C446 1.348 . S
C444 C447 1.356 . S
C444 O500 1.325 . S
N445 C448 1.314 . S
N445 C449 1.279 . S
C446 C444 1.348 . S
C446 C448 1.353 . S
C446 H504 0.929 . S
C447 C444 1.356 . S
C447 C449 1.358 . S
C447 H505 0.930 . S
C448 N445 1.314 . S
C448 C446 1.353 . S
C448 H506 0.930 . S
C449 N445 1.279 . S
C449 C447 1.358 . S
C449 H507 0.930 . S
C450 C453 1.348 . S
C450 C454 1.356 . S
C450 O501 1.325 . S
C451 N452 1.279 . S
C451 C454 1.358 . S
C451 H508 0.930 . S
N452 C451 1.279 . S
N452 C455 1.314 . S
C453 C450 1.348 . S
C453 C455 1.353 . S
C453 H509 0.929 . S
C454 C450 1.356 . S
C454 C451 1.358 . S
C454 H510 0.930 . S
C455 N452 1.314 . S
C455 C453 1.353 . S
C455 H511 0.930 . S
C456 N457 1.314 . S
C456 C461 1.353 . S
C456 H462 0.930 . S
N457 Li440 1.990 . S
N457 C456 1.314 . S
N457 C459 1.279 . S
C458 C459 1.358 . S
C458 C460 1.356 . S
C458 H512 0.930 . S
C459 N457 1.279 . S
C459 C458 1.358 . S
C459 H463 0.930 . S
C460 C458 1.356 . S
C460 C461 1.348 . S
C461 C456 1.353 . S
C461 C460 1.348 . S
C461 H513 0.929 . S
H462 C456 0.930 . S
H463 C459 0.930 . S
C464 N465 1.314 . S
C464 C466 1.353 . S
C464 H470 0.930 . S
N465 Li441 1.990 . S
N465 C464 1.314 . S
N465 C468 1.279 . S
C466 C464 1.353 . S
C466 C469 1.348 . S
C466 H514 0.929 . S
C467 C468 1.358 . S
C467 C469 1.356 . S
C467 H515 0.930 . S
C468 N465 1.279 . S
C468 C467 1.358 . S
C468 H471 0.930 . S
C469 C466 1.348 . S
C469 C467 1.356 . S
H470 C464 0.930 . S
H471 C468 0.930 . S
C472 C474 1.348 . S
C472 C475 1.356 . S
C472 O502 1.325 . S
N473 C476 1.314 . S
N473 C477 1.279 . S
C474 C472 1.348 . S
C474 C476 1.353 . S
C474 H516 0.929 . S
C475 C472 1.356 . S
C475 C477 1.358 . S
C475 H517 0.930 . S
C476 N473 1.314 . S
C476 C474 1.353 . S
C476 H518 0.930 . S
C477 N473 1.279 . S
C477 C475 1.358 . S
C477 H519 0.930 . S
C478 C479 1.348 . S
C478 C480 1.356 . S
C478 O503 1.325 . S
C479 C478 1.348 . S
C479 C481 1.353 . S
C479 H520 0.929 . S
C480 C478 1.356 . S
C480 C482 1.358 . S
C480 H521 0.930 . S
C481 C479 1.353 . S
C481 N483 1.314 . S
C481 H522 0.930 . S
C482 C480 1.358 . S
C482 N483 1.279 . S
C482 H523 0.930 . S
N483 C481 1.314 . S
N483 C482 1.279 . S
C484 C486 1.353 . S
C484 N487 1.314 . S
C484 H490 0.930 . S
C485 N487 1.279 . S
C485 C488 1.358 . S
C485 H491 0.930 . S
C486 C484 1.353 . S
C486 C489 1.348 . S
C486 H524 0.929 . S
N487 Li442 1.990 . S
N487 C484 1.314 . S
N487 C485 1.279 . S
C488 C485 1.358 . S
C488 C489 1.356 . S
C488 H525 0.930 . S
C489 C486 1.348 . S
C489 C488 1.356 . S
H490 C484 0.930 . S
H491 C485 0.930 . S
C492 N493 1.314 . S
C492 C494 1.353 . S
C492 H498 0.930 . S
N493 Li443 1.990 . S
N493 C492 1.314 . S
N493 C496 1.279 . S
C494 C492 1.353 . S
C494 C497 1.348 . S
C494 H526 0.929 . S
C495 C496 1.358 . S
C495 C497 1.356 . S
C495 H527 0.930 . S
C496 N493 1.279 . S
C496 C495 1.358 . S
C496 H499 0.930 . S
C497 C494 1.348 . S
C497 C495 1.356 . S
H498 C492 0.930 . S
H499 C496 0.930 . S
O500 Li440 1.956 . S
O500 Li441 1.970 . S
O500 Li442 1.961 . S
O500 C444 1.325 . S
O501 Li440 1.970 . S
O501 Li441 1.956 . S
O501 Li443 1.961 . S
O501 C450 1.325 . S
O502 Li440 1.961 . S
O502 Li442 1.956 . S
O502 Li443 1.970 . S
O502 C472 1.325 . S
O503 Li441 1.961 . S
O503 Li442 1.970 . S
O503 Li443 1.956 . S
O503 C478 1.325 . S
H504 C446 0.929 . S
H505 C447 0.930 . S
H506 C448 0.930 . S
H507 C449 0.930 . S
H508 C451 0.930 . S
H509 C453 0.929 . S
H510 C454 0.930 . S
H511 C455 0.930 . S
H512 C458 0.930 . S
H513 C461 0.929 . S
H514 C466 0.929 . S
H515 C467 0.930 . S
H516 C474 0.929 . S
H517 C475 0.930 . S
H518 C476 0.930 . S
H519 C477 0.930 . S
H520 C479 0.929 . S
H521 C480 0.930 . S
H522 C481 0.930 . S
H523 C482 0.930 . S
H524 C486 0.929 . S
H525 C488 0.930 . S
H526 C494 0.929 . S
H527 C495 0.930 . S
Li528 N545 1.990 . S
Li528 O588 1.956 . S
Li528 O589 1.970 . S
Li528 O590 1.961 . S
Li529 N553 1.990 . S
Li529 O588 1.970 . S
Li529 O589 1.956 . S
Li529 O591 1.961 . S
Li530 N575 1.990 . S
Li530 O588 1.961 . S
Li530 O590 1.956 . S
Li530 O591 1.970 . S
Li531 N581 1.990 . S
Li531 O589 1.961 . S
Li531 O590 1.970 . S
Li531 O591 1.956 . S
C532 C534 1.348 . S
C532 C535 1.356 . S
C532 O588 1.325 . S
N533 C536 1.314 . S
N533 C537 1.279 . S
C534 C532 1.348 . S
C534 C536 1.353 . S
C534 H592 0.929 . S
C535 C532 1.356 . S
C535 C537 1.358 . S
C535 H593 0.930 . S
C536 N533 1.314 . S
C536 C534 1.353 . S
C536 H594 0.930 . S
C537 N533 1.279 . S
C537 C535 1.358 . S
C537 H595 0.930 . S
C538 C541 1.348 . S
C538 C542 1.356 . S
C538 O589 1.325 . S
C539 N540 1.279 . S
C539 C542 1.358 . S
C539 H596 0.930 . S
N540 C539 1.279 . S
N540 C543 1.314 . S
C541 C538 1.348 . S
C541 C543 1.353 . S
C541 H597 0.929 . S
C542 C538 1.356 . S
C542 C539 1.358 . S
C542 H598 0.930 . S
C543 N540 1.314 . S
C543 C541 1.353 . S
C543 H599 0.930 . S
C544 N545 1.314 . S
C544 C549 1.353 . S
C544 H550 0.930 . S
N545 Li528 1.990 . S
N545 C544 1.314 . S
N545 C547 1.279 . S
C546 C547 1.358 . S
C546 C548 1.356 . S
C546 H600 0.930 . S
C547 N545 1.279 . S
C547 C546 1.358 . S
C547 H551 0.930 . S
C548 C546 1.356 . S
C548 C549 1.348 . S
C549 C544 1.353 . S
C549 C548 1.348 . S
C549 H601 0.929 . S
H550 C544 0.930 . S
H551 C547 0.930 . S
C552 N553 1.314 . S
C552 C554 1.353 . S
C552 H558 0.930 . S
N553 Li529 1.990 . S
N553 C552 1.314 . S
N553 C556 1.279 . S
C554 C552 1.353 . S
C554 C557 1.348 . S
C554 H602 0.929 . S
C555 C556 1.358 . S
C555 C557 1.356 . S
C555 H603 0.930 . S
C556 N553 1.279 . S
C556 C555 1.358 . S
C556 H559 0.930 . S
C557 C554 1.348 . S
C557 C555 1.356 . S
H558 C552 0.930 . S
H559 C556 0.930 . S
C560 C562 1.348 . S
C560 C563 1.356 . S
C560 O590 1.325 . S
N561 C564 1.314 . S
N561 C565 1.279 . S
C562 C560 1.348 . S
C562 C564 1.353 . S
C562 H604 0.929 . S
C563 C560 1.356 . S
C563 C565 1.358 . S
C563 H605 0.930 . S
C564 N561 1.314 . S
C564 C562 1.353 . S
C564 H606 0.930 . S
C565 N561 1.279 . S
C565 C563 1.358 . S
C565 H607 0.930 . S
C566 C567 1.348 . S
C566 C568 1.356 . S
C566 O591 1.325 . S
C567 C566 1.348 . S
C567 C569 1.353 . S
C567 H608 0.929 . S
C568 C566 1.356 . S
C568 C570 1.358 . S
C568 H609 0.930 . S
C569 C567 1.353 . S
C569 N571 1.314 . S
C569 H610 0.930 . S
C570 C568 1.358 . S
C570 N571 1.279 . S
C570 H611 0.930 . S
N571 C569 1.314 . S
N571 C570 1.279 . S
C572 C574 1.353 . S
C572 N575 1.314 . S
C572 H578 0.930 . S
C573 N575 1.279 . S
C573 C576 1.358 . S
C573 H579 0.930 . S
C574 C572 1.353 . S
C574 C577 1.348 . S
C574 H612 0.929 . S
N575 Li530 1.990 . S
N575 C572 1.314 . S
N575 C573 1.279 . S
C576 C573 1.358 . S
C576 C577 1.356 . S
C576 H613 0.930 . S
C577 C574 1.348 . S
C577 C576 1.356 . S
H578 C572 0.930 . S
H579 C573 0.930 . S
C580 N581 1.314 . S
C580 C582 1.353 . S
C580 H586 0.930 . S
N581 Li531 1.990 . S
N581 C580 1.314 . S
N581 C584 1.279 . S
C582 C580 1.353 . S
C582 C585 1.348 . S
C582 H614 0.929 . S
C583 C584 1.358 . S
C583 C585 1.356 . S
C583 H615 0.930 . S
C584 N581 1.279 . S
C584 C583 1.358 . S
C584 H587 0.930 . S
C585 C582 1.348 . S
C585 C583 1.356 . S
H586 C580 0.930 . S
H587 C584 0.930 . S
O588 Li528 1.956 . S
O588 Li529 1.970 . S
O588 Li530 1.961 . S
O588 C532 1.325 . S
O589 Li528 1.970 . S
O589 Li529 1.956 . S
O589 Li531 1.961 . S
O589 C538 1.325 . S
O590 Li528 1.961 . S
O590 Li530 1.956 . S
O590 Li531 1.970 . S
O590 C560 1.325 . S
O591 Li529 1.961 . S
O591 Li530 1.970 . S
O591 Li531 1.956 . S
O591 C566 1.325 . S
H592 C534 0.929 . S
H593 C535 0.930 . S
H594 C536 0.930 . S
H595 C537 0.930 . S
H596 C539 0.930 . S
H597 C541 0.929 . S
H598 C542 0.930 . S
H599 C543 0.930 . S
H600 C546 0.930 . S
H601 C549 0.929 . S
H602 C554 0.929 . S
H603 C555 0.930 . S
H604 C562 0.929 . S
H605 C563 0.930 . S
H606 C564 0.930 . S
H607 C565 0.930 . S
H608 C567 0.929 . S
H609 C568 0.930 . S
H610 C569 0.930 . S
H611 C570 0.930 . S
H612 C574 0.929 . S
H613 C576 0.930 . S
H614 C582 0.929 . S
H615 C583 0.930 . S
Li616 N633 1.990 . S
Li616 O676 1.956 . S
Li616 O677 1.970 . S
Li616 O678 1.961 . S
Li617 N641 1.990 . S
Li617 O676 1.970 . S
Li617 O677 1.956 . S
Li617 O679 1.961 . S
Li618 N663 1.990 . S
Li618 O676 1.961 . S
Li618 O678 1.956 . S
Li618 O679 1.970 . S
Li619 N669 1.990 . S
Li619 O677 1.961 . S
Li619 O678 1.970 . S
Li619 O679 1.956 . S
C620 C622 1.348 . S
C620 C623 1.356 . S
C620 O676 1.325 . S
N621 C624 1.314 . S
N621 C625 1.279 . S
C622 C620 1.348 . S
C622 C624 1.353 . S
C622 H680 0.929 . S
C623 C620 1.356 . S
C623 C625 1.358 . S
C623 H681 0.930 . S
C624 N621 1.314 . S
C624 C622 1.353 . S
C624 H682 0.930 . S
C625 N621 1.279 . S
C625 C623 1.358 . S
C625 H683 0.930 . S
C626 C629 1.348 . S
C626 C630 1.356 . S
C626 O677 1.325 . S
C627 N628 1.279 . S
C627 C630 1.358 1_554 S
C627 H684 0.930 . S
N628 C627 1.279 . S
N628 C631 1.314 . S
C629 C626 1.348 . S
C629 C631 1.353 1_556 S
C629 H685 0.929 . S
C630 C626 1.356 . S
C630 C627 1.358 1_556 S
C630 H686 0.930 . S
C631 N628 1.314 . S
C631 C629 1.353 1_554 S
C631 H687 0.930 . S
C632 N633 1.314 . S
C632 C637 1.353 . S
C632 H638 0.930 . S
N633 Li616 1.990 . S
N633 C632 1.314 . S
N633 C635 1.279 . S
C634 C635 1.358 . S
C634 C636 1.356 . S
C634 H688 0.930 . S
C635 N633 1.279 . S
C635 C634 1.358 . S
C635 H639 0.930 . S
C636 C634 1.356 . S
C636 C637 1.348 . S
C637 C632 1.353 . S
C637 C636 1.348 . S
C637 H689 0.929 . S
H638 C632 0.930 . S
H639 C635 0.930 . S
C640 N641 1.314 . S
C640 C642 1.353 . S
C640 H646 0.930 . S
N641 Li617 1.990 . S
N641 C640 1.314 . S
N641 C644 1.279 . S
C642 C640 1.353 . S
C642 C645 1.348 . S
C642 H690 0.929 . S
C643 C644 1.358 . S
C643 C645 1.356 . S
C643 H691 0.930 . S
C644 N641 1.279 . S
C644 C643 1.358 . S
C644 H647 0.930 . S
C645 C642 1.348 . S
C645 C643 1.356 . S
H646 C640 0.930 . S
H647 C644 0.930 . S
C648 C650 1.348 . S
C648 C651 1.356 . S
C648 O678 1.325 . S
N649 C652 1.314 . S
N649 C653 1.279 . S
C650 C648 1.348 . S
C650 C652 1.353 . S
C650 H692 0.929 . S
C651 C648 1.356 . S
C651 C653 1.358 . S
C651 H693 0.930 . S
C652 N649 1.314 . S
C652 C650 1.353 . S
C652 H694 0.930 . S
C653 N649 1.279 . S
C653 C651 1.358 . S
C653 H695 0.930 . S
C654 C655 1.348 . S
C654 C656 1.356 . S
C654 O679 1.325 . S
C655 C654 1.348 . S
C655 C657 1.353 . S
C655 H696 0.929 . S
C656 C654 1.356 . S
C656 C658 1.358 . S
C656 H697 0.930 . S
C657 C655 1.353 . S
C657 N659 1.314 . S
C657 H698 0.930 . S
C658 C656 1.358 . S
C658 N659 1.279 . S
C658 H699 0.930 . S
N659 C657 1.314 . S
N659 C658 1.279 . S
C660 C662 1.353 . S
C660 N663 1.314 . S
C660 H666 0.930 . S
C661 N663 1.279 . S
C661 C664 1.358 . S
C661 H667 0.930 . S
C662 C660 1.353 . S
C662 C665 1.348 . S
C662 H700 0.929 . S
N663 Li618 1.990 . S
N663 C660 1.314 . S
N663 C661 1.279 . S
C664 C661 1.358 . S
C664 C665 1.356 . S
C664 H701 0.930 . S
C665 C662 1.348 . S
C665 C664 1.356 . S
H666 C660 0.930 . S
H667 C661 0.930 . S
C668 N669 1.314 . S
C668 C670 1.353 . S
C668 H674 0.930 . S
N669 Li619 1.990 . S
N669 C668 1.314 . S
N669 C672 1.279 . S
C670 C668 1.353 . S
C670 C673 1.348 . S
C670 H702 0.929 . S
C671 C672 1.358 . S
C671 C673 1.356 . S
C671 H703 0.930 . S
C672 N669 1.279 . S
C672 C671 1.358 . S
C672 H675 0.930 . S
C673 C670 1.348 . S
C673 C671 1.356 . S
H674 C668 0.930 . S
H675 C672 0.930 . S
O676 Li616 1.956 . S
O676 Li617 1.970 . S
O676 Li618 1.961 . S
O676 C620 1.325 . S
O677 Li616 1.970 . S
O677 Li617 1.956 . S
O677 Li619 1.961 . S
O677 C626 1.325 . S
O678 Li616 1.961 . S
O678 Li618 1.956 . S
O678 Li619 1.970 . S
O678 C648 1.325 . S
O679 Li617 1.961 . S
O679 Li618 1.970 . S
O679 Li619 1.956 . S
O679 C654 1.325 . S
H680 C622 0.929 . S
H681 C623 0.930 . S
H682 C624 0.930 . S
H683 C625 0.930 . S
H684 C627 0.930 . S
H685 C629 0.929 . S
H686 C630 0.930 . S
H687 C631 0.930 . S
H688 C634 0.930 . S
H689 C637 0.929 . S
H690 C642 0.929 . S
H691 C643 0.930 . S
H692 C650 0.929 . S
H693 C651 0.930 . S
H694 C652 0.930 . S
H695 C653 0.930 . S
H696 C655 0.929 . S
H697 C656 0.930 . S
H698 C657 0.930 . S
H699 C658 0.930 . S
H700 C662 0.929 . S
H701 C664 0.930 . S
H702 C670 0.929 . S
H703 C671 0.930 . S
Li704 N721 1.990 . S
Li704 O764 1.956 . S
Li704 O765 1.970 . S
Li704 O766 1.961 . S
Li705 N729 1.990 . S
Li705 O764 1.970 . S
Li705 O765 1.956 . S
Li705 O767 1.961 . S
Li706 N751 1.990 . S
Li706 O764 1.961 . S
Li706 O766 1.956 . S
Li706 O767 1.970 . S
Li707 N757 1.990 . S
Li707 O765 1.961 . S
Li707 O766 1.970 . S
Li707 O767 1.956 . S
C708 C710 1.348 . S
C708 C711 1.356 . S
C708 O764 1.325 . S
N709 C712 1.314 . S
N709 C713 1.279 . S
C710 C708 1.348 . S
C710 C712 1.353 . S
C710 H768 0.929 . S
C711 C708 1.356 . S
C711 C713 1.358 . S
C711 H769 0.930 . S
C712 N709 1.314 . S
C712 C710 1.353 . S
C712 H770 0.930 . S
C713 N709 1.279 . S
C713 C711 1.358 . S
C713 H771 0.930 . S
C714 C717 1.348 . S
C714 C718 1.356 . S
C714 O765 1.325 . S
C715 N716 1.279 . S
C715 C718 1.358 . S
C715 H772 0.930 . S
N716 C715 1.279 . S
N716 C719 1.314 . S
C717 C714 1.348 . S
C717 C719 1.353 . S
C717 H773 0.929 . S
C718 C714 1.356 . S
C718 C715 1.358 . S
C718 H774 0.930 . S
C719 N716 1.314 . S
C719 C717 1.353 . S
C719 H775 0.930 . S
C720 N721 1.314 . S
C720 C725 1.353 . S
C720 H726 0.930 . S
N721 Li704 1.990 . S
N721 C720 1.314 . S
N721 C723 1.279 . S
C722 C723 1.358 . S
C722 C724 1.356 . S
C722 H776 0.930 . S
C723 N721 1.279 . S
C723 C722 1.358 . S
C723 H727 0.930 . S
C724 C722 1.356 . S
C724 C725 1.348 . S
C725 C720 1.353 . S
C725 C724 1.348 . S
C725 H777 0.929 . S
H726 C720 0.930 . S
H727 C723 0.930 . S
C728 N729 1.314 . S
C728 C730 1.353 . S
C728 H734 0.930 . S
N729 Li705 1.990 . S
N729 C728 1.314 . S
N729 C732 1.279 . S
C730 C728 1.353 . S
C730 C733 1.348 . S
C730 H778 0.929 . S
C731 C732 1.358 . S
C731 C733 1.356 . S
C731 H779 0.930 . S
C732 N729 1.279 . S
C732 C731 1.358 . S
C732 H735 0.930 . S
C733 C730 1.348 . S
C733 C731 1.356 . S
H734 C728 0.930 . S
H735 C732 0.930 . S
C736 C738 1.348 . S
C736 C739 1.356 . S
C736 O766 1.325 . S
N737 C740 1.314 . S
N737 C741 1.279 . S
C738 C736 1.348 . S
C738 C740 1.353 . S
C738 H780 0.929 . S
C739 C736 1.356 . S
C739 C741 1.358 . S
C739 H781 0.930 . S
C740 N737 1.314 . S
C740 C738 1.353 . S
C740 H782 0.930 . S
C741 N737 1.279 . S
C741 C739 1.358 . S
C741 H783 0.930 . S
C742 C743 1.348 . S
C742 C744 1.356 . S
C742 O767 1.325 . S
C743 C742 1.348 . S
C743 C745 1.353 . S
C743 H784 0.929 . S
C744 C742 1.356 . S
C744 C746 1.358 . S
C744 H785 0.930 . S
C745 C743 1.353 . S
C745 N747 1.314 . S
C745 H786 0.930 . S
C746 C744 1.358 . S
C746 N747 1.279 . S
C746 H787 0.930 . S
N747 C745 1.314 . S
N747 C746 1.279 . S
C748 C750 1.353 . S
C748 N751 1.314 . S
C748 H754 0.930 . S
C749 N751 1.279 . S
C749 C752 1.358 . S
C749 H755 0.930 . S
C750 C748 1.353 . S
C750 C753 1.348 . S
C750 H788 0.929 . S
N751 Li706 1.990 . S
N751 C748 1.314 . S
N751 C749 1.279 . S
C752 C749 1.358 . S
C752 C753 1.356 . S
C752 H789 0.930 . S
C753 C750 1.348 . S
C753 C752 1.356 . S
H754 C748 0.930 . S
H755 C749 0.930 . S
C756 N757 1.314 . S
C756 C758 1.353 . S
C756 H762 0.930 . S
N757 Li707 1.990 . S
N757 C756 1.314 . S
N757 C760 1.279 . S
C758 C756 1.353 . S
C758 C761 1.348 . S
C758 H790 0.929 . S
C759 C760 1.358 . S
C759 C761 1.356 . S
C759 H791 0.930 . S
C760 N757 1.279 . S
C760 C759 1.358 . S
C760 H763 0.930 . S
C761 C758 1.348 . S
C761 C759 1.356 . S
H762 C756 0.930 . S
H763 C760 0.930 . S
O764 Li704 1.956 . S
O764 Li705 1.970 . S
O764 Li706 1.961 . S
O764 C708 1.325 . S
O765 Li704 1.970 . S
O765 Li705 1.956 . S
O765 Li707 1.961 . S
O765 C714 1.325 . S
O766 Li704 1.961 . S
O766 Li706 1.956 . S
O766 Li707 1.970 . S
O766 C736 1.325 . S
O767 Li705 1.961 . S
O767 Li706 1.970 . S
O767 Li707 1.956 . S
O767 C742 1.325 . S
H768 C710 0.929 . S
H769 C711 0.930 . S
H770 C712 0.930 . S
H771 C713 0.930 . S
H772 C715 0.930 . S
H773 C717 0.929 . S
H774 C718 0.930 . S
H775 C719 0.930 . S
H776 C722 0.930 . S
H777 C725 0.929 . S
H778 C730 0.929 . S
H779 C731 0.930 . S
H780 C738 0.929 . S
H781 C739 0.930 . S
H782 C740 0.930 . S
H783 C741 0.930 . S
H784 C743 0.929 . S
H785 C744 0.930 . S
H786 C745 0.930 . S
H787 C746 0.930 . S
H788 C750 0.929 . S
H789 C752 0.930 . S
H790 C758 0.929 . S
H791 C759 0.930 . S
Li792 N809 1.990 . S
Li792 O852 1.956 . S
Li792 O853 1.970 . S
Li792 O854 1.961 . S
Li793 N817 1.990 . S
Li793 O852 1.970 . S
Li793 O853 1.956 . S
Li793 O855 1.961 . S
Li794 N839 1.990 . S
Li794 O852 1.961 . S
Li794 O854 1.956 . S
Li794 O855 1.970 . S
Li795 N845 1.990 . S
Li795 O853 1.961 . S
Li795 O854 1.970 . S
Li795 O855 1.956 . S
C796 C798 1.348 . S
C796 C799 1.356 . S
C796 O852 1.325 . S
N797 C800 1.314 . S
N797 C801 1.279 . S
C798 C796 1.348 . S
C798 C800 1.353 . S
C798 H856 0.929 . S
C799 C796 1.356 . S
C799 C801 1.358 . S
C799 H857 0.930 . S
C800 N797 1.314 . S
C800 C798 1.353 . S
C800 H858 0.930 . S
C801 N797 1.279 . S
C801 C799 1.358 . S
C801 H859 0.930 . S
C802 C805 1.348 . S
C802 C806 1.356 . S
C802 O853 1.325 . S
C803 N804 1.279 . S
C803 C806 1.358 . S
C803 H860 0.930 . S
N804 C803 1.279 . S
N804 C807 1.314 . S
C805 C802 1.348 . S
C805 C807 1.353 . S
C805 H861 0.929 . S
C806 C802 1.356 . S
C806 C803 1.358 . S
C806 H862 0.930 . S
C807 N804 1.314 . S
C807 C805 1.353 . S
C807 H863 0.930 . S
C808 N809 1.314 . S
C808 C813 1.353 . S
C808 H814 0.930 . S
N809 Li792 1.990 . S
N809 C808 1.314 . S
N809 C811 1.279 . S
C810 C811 1.358 . S
C810 C812 1.356 . S
C810 H864 0.930 . S
C811 N809 1.279 . S
C811 C810 1.358 . S
C811 H815 0.930 . S
C812 C810 1.356 . S
C812 C813 1.348 . S
C813 C808 1.353 . S
C813 C812 1.348 . S
C813 H865 0.929 . S
H814 C808 0.930 . S
H815 C811 0.930 . S
C816 N817 1.314 . S
C816 C818 1.353 . S
C816 H822 0.930 . S
N817 Li793 1.990 . S
N817 C816 1.314 . S
N817 C820 1.279 . S
C818 C816 1.353 . S
C818 C821 1.348 . S
C818 H866 0.929 . S
C819 C820 1.358 . S
C819 C821 1.356 . S
C819 H867 0.930 . S
C820 N817 1.279 . S
C820 C819 1.358 . S
C820 H823 0.930 . S
C821 C818 1.348 . S
C821 C819 1.356 . S
H822 C816 0.930 . S
H823 C820 0.930 . S
C824 C826 1.348 . S
C824 C827 1.356 . S
C824 O854 1.325 . S
N825 C828 1.314 . S
N825 C829 1.279 . S
C826 C824 1.348 . S
C826 C828 1.353 . S
C826 H868 0.929 . S
C827 C824 1.356 . S
C827 C829 1.358 . S
C827 H869 0.930 . S
C828 N825 1.314 . S
C828 C826 1.353 . S
C828 H870 0.930 . S
C829 N825 1.279 . S
C829 C827 1.358 . S
C829 H871 0.930 . S
C830 C831 1.348 . S
C830 C832 1.356 . S
C830 O855 1.325 . S
C831 C830 1.348 . S
C831 C833 1.353 . S
C831 H872 0.929 . S
C832 C830 1.356 . S
C832 C834 1.358 . S
C832 H873 0.930 . S
C833 C831 1.353 . S
C833 N835 1.314 . S
C833 H874 0.930 . S
C834 C832 1.358 . S
C834 N835 1.279 . S
C834 H875 0.930 . S
N835 C833 1.314 . S
N835 C834 1.279 . S
C836 C838 1.353 . S
C836 N839 1.314 . S
C836 H842 0.930 . S
C837 N839 1.279 . S
C837 C840 1.358 . S
C837 H843 0.930 . S
C838 C836 1.353 . S
C838 C841 1.348 . S
C838 H876 0.929 . S
N839 Li794 1.990 . S
N839 C836 1.314 . S
N839 C837 1.279 . S
C840 C837 1.358 . S
C840 C841 1.356 . S
C840 H877 0.930 . S
C841 C838 1.348 . S
C841 C840 1.356 . S
H842 C836 0.930 . S
H843 C837 0.930 . S
C844 N845 1.314 . S
C844 C846 1.353 . S
C844 H850 0.930 . S
N845 Li795 1.990 . S
N845 C844 1.314 . S
N845 C848 1.279 . S
C846 C844 1.353 . S
C846 C849 1.348 . S
C846 H878 0.929 . S
C847 C848 1.358 . S
C847 C849 1.356 . S
C847 H879 0.930 . S
C848 N845 1.279 . S
C848 C847 1.358 . S
C848 H851 0.930 . S
C849 C846 1.348 . S
C849 C847 1.356 . S
H850 C844 0.930 . S
H851 C848 0.930 . S
O852 Li792 1.956 . S
O852 Li793 1.970 . S
O852 Li794 1.961 . S
O852 C796 1.325 . S
O853 Li792 1.970 . S
O853 Li793 1.956 . S
O853 Li795 1.961 . S
O853 C802 1.325 . S
O854 Li792 1.961 . S
O854 Li794 1.956 . S
O854 Li795 1.970 . S
O854 C824 1.325 . S
O855 Li793 1.961 . S
O855 Li794 1.970 . S
O855 Li795 1.956 . S
O855 C830 1.325 . S
H856 C798 0.929 . S
H857 C799 0.930 . S
H858 C800 0.930 . S
H859 C801 0.930 . S
H860 C803 0.930 . S
H861 C805 0.929 . S
H862 C806 0.930 . S
H863 C807 0.930 . S
H864 C810 0.930 . S
H865 C813 0.929 . S
H866 C818 0.929 . S
H867 C819 0.930 . S
H868 C826 0.929 . S
H869 C827 0.930 . S
H870 C828 0.930 . S
H871 C829 0.930 . S
H872 C831 0.929 . S
H873 C832 0.930 . S
H874 C833 0.930 . S
H875 C834 0.930 . S
H876 C838 0.929 . S
H877 C840 0.930 . S
H878 C846 0.929 . S
H879 C847 0.930 . S
Li880 N897 1.990 . S
Li880 O940 1.956 . S
Li880 O941 1.970 . S
Li880 O942 1.961 . S
Li881 N905 1.990 . S
Li881 O940 1.970 . S
Li881 O941 1.956 . S
Li881 O943 1.961 . S
Li882 N927 1.990 . S
Li882 O940 1.961 . S
Li882 O942 1.956 . S
Li882 O943 1.970 . S
Li883 N933 1.990 . S
Li883 O941 1.961 . S
Li883 O942 1.970 . S
Li883 O943 1.956 . S
C884 C886 1.348 . S
C884 C887 1.356 . S
C884 O940 1.325 . S
N885 C888 1.314 . S
N885 C889 1.279 . S
C886 C884 1.348 . S
C886 C888 1.353 1_556 S
C886 H944 0.929 . S
C887 C884 1.356 . S
C887 C889 1.358 1_556 S
C887 H945 0.930 . S
C888 N885 1.314 . S
C888 C886 1.353 1_554 S
C888 H946 0.930 . S
C889 N885 1.279 . S
C889 C887 1.358 1_554 S
C889 H947 0.930 . S
C890 C893 1.348 . S
C890 C894 1.356 . S
C890 O941 1.325 . S
C891 N892 1.279 . S
C891 C894 1.358 . S
C891 H948 0.930 . S
N892 C891 1.279 . S
N892 C895 1.314 . S
C893 C890 1.348 . S
C893 C895 1.353 . S
C893 H949 0.929 . S
C894 C890 1.356 . S
C894 C891 1.358 . S
C894 H950 0.930 . S
C895 N892 1.314 . S
C895 C893 1.353 . S
C895 H951 0.930 . S
C896 N897 1.314 . S
C896 C901 1.353 . S
C896 H902 0.930 . S
N897 Li880 1.990 . S
N897 C896 1.314 . S
N897 C899 1.279 . S
C898 C899 1.358 . S
C898 C900 1.356 . S
C898 H952 0.930 . S
C899 N897 1.279 . S
C899 C898 1.358 . S
C899 H903 0.930 . S
C900 C898 1.356 . S
C900 C901 1.348 . S
C901 C896 1.353 . S
C901 C900 1.348 . S
C901 H953 0.929 . S
H902 C896 0.930 . S
H903 C899 0.930 . S
C904 N905 1.314 . S
C904 C906 1.353 . S
C904 H910 0.930 . S
N905 Li881 1.990 . S
N905 C904 1.314 . S
N905 C908 1.279 . S
C906 C904 1.353 . S
C906 C909 1.348 . S
C906 H954 0.929 . S
C907 C908 1.358 . S
C907 C909 1.356 . S
C907 H955 0.930 . S
C908 N905 1.279 . S
C908 C907 1.358 . S
C908 H911 0.930 . S
C909 C906 1.348 . S
C909 C907 1.356 . S
H910 C904 0.930 . S
H911 C908 0.930 . S
C912 C914 1.348 . S
C912 C915 1.356 . S
C912 O942 1.325 . S
N913 C916 1.314 . S
N913 C917 1.279 . S
C914 C912 1.348 . S
C914 C916 1.353 . S
C914 H956 0.929 . S
C915 C912 1.356 . S
C915 C917 1.358 . S
C915 H957 0.930 . S
C916 N913 1.314 . S
C916 C914 1.353 . S
C916 H958 0.930 . S
C917 N913 1.279 . S
C917 C915 1.358 . S
C917 H959 0.930 . S
C918 C919 1.348 . S
C918 C920 1.356 . S
C918 O943 1.325 . S
C919 C918 1.348 . S
C919 C921 1.353 . S
C919 H960 0.929 . S
C920 C918 1.356 . S
C920 C922 1.358 . S
C920 H961 0.930 . S
C921 C919 1.353 . S
C921 N923 1.314 . S
C921 H962 0.930 . S
C922 C920 1.358 . S
C922 N923 1.279 . S
C922 H963 0.930 . S
N923 C921 1.314 . S
N923 C922 1.279 . S
C924 C926 1.353 . S
C924 N927 1.314 . S
C924 H930 0.930 . S
C925 N927 1.279 . S
C925 C928 1.358 . S
C925 H931 0.930 . S
C926 C924 1.353 . S
C926 C929 1.348 . S
C926 H964 0.929 . S
N927 Li882 1.990 . S
N927 C924 1.314 . S
N927 C925 1.279 . S
C928 C925 1.358 . S
C928 C929 1.356 . S
C928 H965 0.930 . S
C929 C926 1.348 . S
C929 C928 1.356 . S
H930 C924 0.930 . S
H931 C925 0.930 . S
C932 N933 1.314 . S
C932 C934 1.353 . S
C932 H938 0.930 . S
N933 Li883 1.990 . S
N933 C932 1.314 . S
N933 C936 1.279 . S
C934 C932 1.353 . S
C934 C937 1.348 . S
C934 H966 0.929 . S
C935 C936 1.358 . S
C935 C937 1.356 . S
C935 H967 0.930 . S
C936 N933 1.279 . S
C936 C935 1.358 . S
C936 H939 0.930 . S
C937 C934 1.348 . S
C937 C935 1.356 . S
H938 C932 0.930 . S
H939 C936 0.930 . S
O940 Li880 1.956 . S
O940 Li881 1.970 . S
O940 Li882 1.961 . S
O940 C884 1.325 . S
O941 Li880 1.970 . S
O941 Li881 1.956 . S
O941 Li883 1.961 . S
O941 C890 1.325 . S
O942 Li880 1.961 . S
O942 Li882 1.956 . S
O942 Li883 1.970 . S
O942 C912 1.325 . S
O943 Li881 1.961 . S
O943 Li882 1.970 . S
O943 Li883 1.956 . S
O943 C918 1.325 . S
H944 C886 0.929 . S
H945 C887 0.930 . S
H946 C888 0.930 . S
H947 C889 0.930 . S
H948 C891 0.930 . S
H949 C893 0.929 . S
H950 C894 0.930 . S
H951 C895 0.930 . S
H952 C898 0.930 . S
H953 C901 0.929 . S
H954 C906 0.929 . S
H955 C907 0.930 . S
H956 C914 0.929 . S
H957 C915 0.930 . S
H958 C916 0.930 . S
H959 C917 0.930 . S
H960 C919 0.929 . S
H961 C920 0.930 . S
H962 C921 0.930 . S
H963 C922 0.930 . S
H964 C926 0.929 . S
H965 C928 0.930 . S
H966 C934 0.929 . S
H967 C935 0.930 . S
Li968 N985 1.990 . S
Li968 O1028 1.956 . S
Li968 O1029 1.970 . S
Li968 O1030 1.961 . S
Li969 N993 1.990 . S
Li969 O1028 1.970 . S
Li969 O1029 1.956 . S
Li969 O1031 1.961 . S
Li970 N1015 1.990 . S
Li970 O1028 1.961 . S
Li970 O1030 1.956 . S
Li970 O1031 1.970 . S
Li971 N1021 1.990 . S
Li971 O1029 1.961 . S
Li971 O1030 1.970 . S
Li971 O1031 1.956 . S
C972 C974 1.348 . S
C972 C975 1.356 . S
C972 O1028 1.325 . S
N973 C976 1.314 . S
N973 C977 1.279 . S
C974 C972 1.348 . S
C974 C976 1.353 . S
C974 H1032 0.929 . S
C975 C972 1.356 . S
C975 C977 1.358 . S
C975 H1033 0.930 . S
C976 N973 1.314 . S
C976 C974 1.353 . S
C976 H1034 0.930 . S
C977 N973 1.279 . S
C977 C975 1.358 . S
C977 H1035 0.930 . S
C978 C981 1.348 . S
C978 C982 1.356 . S
C978 O1029 1.325 . S
C979 N980 1.279 . S
C979 C982 1.358 . S
C979 H1036 0.930 . S
N980 C979 1.279 . S
N980 C983 1.314 . S
C981 C978 1.348 . S
C981 C983 1.353 . S
C981 H1037 0.929 . S
C982 C978 1.356 . S
C982 C979 1.358 . S
C982 H1038 0.930 . S
C983 N980 1.314 . S
C983 C981 1.353 . S
C983 H1039 0.930 . S
C984 N985 1.314 . S
C984 C989 1.353 . S
C984 H990 0.930 . S
N985 Li968 1.990 . S
N985 C984 1.314 . S
N985 C987 1.279 . S
C986 C987 1.358 . S
C986 C988 1.356 . S
C986 H1040 0.930 . S
C987 N985 1.279 . S
C987 C986 1.358 . S
C987 H991 0.930 . S
C988 C986 1.356 . S
C988 C989 1.348 . S
C989 C984 1.353 . S
C989 C988 1.348 . S
C989 H1041 0.929 . S
H990 C984 0.930 . S
H991 C987 0.930 . S
C992 N993 1.314 . S
C992 C994 1.353 . S
C992 H998 0.930 . S
N993 Li969 1.990 . S
N993 C992 1.314 . S
N993 C996 1.279 . S
C994 C992 1.353 . S
C994 C997 1.348 . S
C994 H1042 0.929 . S
C995 C996 1.358 . S
C995 C997 1.356 . S
C995 H1043 0.930 . S
C996 N993 1.279 . S
C996 C995 1.358 . S
C996 H999 0.930 . S
C997 C994 1.348 . S
C997 C995 1.356 . S
H998 C992 0.930 . S
H999 C996 0.930 . S
C1000 C1002 1.348 . S
C1000 C1003 1.356 . S
C1000 O1030 1.325 . S
N1001 C1004 1.314 . S
N1001 C1005 1.279 . S
C1002 C1000 1.348 . S
C1002 C1004 1.353 . S
C1002 H1044 0.929 . S
C1003 C1000 1.356 . S
C1003 C1005 1.358 . S
C1003 H1045 0.930 . S
C1004 N1001 1.314 . S
C1004 C1002 1.353 . S
C1004 H1046 0.930 . S
C1005 N1001 1.279 . S
C1005 C1003 1.358 . S
C1005 H1047 0.930 . S
C1006 C1007 1.348 . S
C1006 C1008 1.356 . S
C1006 O1031 1.325 . S
C1007 C1006 1.348 . S
C1007 C1009 1.353 . S
C1007 H1048 0.929 . S
C1008 C1006 1.356 . S
C1008 C1010 1.358 . S
C1008 H1049 0.930 . S
C1009 C1007 1.353 . S
C1009 N1011 1.314 . S
C1009 H1050 0.930 . S
C1010 C1008 1.358 . S
C1010 N1011 1.279 . S
C1010 H1051 0.930 . S
N1011 C1009 1.314 . S
N1011 C1010 1.279 . S
C1012 C1014 1.353 . S
C1012 N1015 1.314 . S
C1012 H1018 0.930 . S
C1013 N1015 1.279 . S
C1013 C1016 1.358 . S
C1013 H1019 0.930 . S
C1014 C1012 1.353 . S
C1014 C1017 1.348 . S
C1014 H1052 0.929 . S
N1015 Li970 1.990 . S
N1015 C1012 1.314 . S
N1015 C1013 1.279 . S
C1016 C1013 1.358 . S
C1016 C1017 1.356 . S
C1016 H1053 0.930 . S
C1017 C1014 1.348 . S
C1017 C1016 1.356 . S
H1018 C1012 0.930 . S
H1019 C1013 0.930 . S
C1020 N1021 1.314 . S
C1020 C1022 1.353 . S
C1020 H1026 0.930 . S
N1021 Li971 1.990 . S
N1021 C1020 1.314 . S
N1021 C1024 1.279 . S
C1022 C1020 1.353 . S
C1022 C1025 1.348 . S
C1022 H1054 0.929 . S
C1023 C1024 1.358 . S
C1023 C1025 1.356 . S
C1023 H1055 0.930 . S
C1024 N1021 1.279 . S
C1024 C1023 1.358 . S
C1024 H1027 0.930 . S
C1025 C1022 1.348 . S
C1025 C1023 1.356 . S
H1026 C1020 0.930 . S
H1027 C1024 0.930 . S
O1028 Li968 1.956 . S
O1028 Li969 1.970 . S
O1028 Li970 1.961 . S
O1028 C972 1.325 . S
O1029 Li968 1.970 . S
O1029 Li969 1.956 . S
O1029 Li971 1.961 . S
O1029 C978 1.325 . S
O1030 Li968 1.961 . S
O1030 Li970 1.956 . S
O1030 Li971 1.970 . S
O1030 C1000 1.325 . S
O1031 Li969 1.961 . S
O1031 Li970 1.970 . S
O1031 Li971 1.956 . S
O1031 C1006 1.325 . S
H1032 C974 0.929 . S
H1033 C975 0.930 . S
H1034 C976 0.930 . S
H1035 C977 0.930 . S
H1036 C979 0.930 . S
H1037 C981 0.929 . S
H1038 C982 0.930 . S
H1039 C983 0.930 . S
H1040 C986 0.930 . S
H1041 C989 0.929 . S
H1042 C994 0.929 . S
H1043 C995 0.930 . S
H1044 C1002 0.929 . S
H1045 C1003 0.930 . S
H1046 C1004 0.930 . S
H1047 C1005 0.930 . S
H1048 C1007 0.929 . S
H1049 C1008 0.930 . S
H1050 C1009 0.930 . S
H1051 C1010 0.930 . S
H1052 C1014 0.929 . S
H1053 C1016 0.930 . S
H1054 C1022 0.929 . S
H1055 C1023 0.930 . S
C1056 C1057 1.349 . S
C1056 C1058 1.314 1_556 S
C1056 H1081 0.950 1_556 S
C1057 C1056 1.349 . S
C1057 C1073 1.349 . S
C1058 C1056 1.314 1_554 S
C1058 C1077 1.400 1_554 S
C1058 H1082 0.994 . S
C1059 C1076 1.574 1_565 S
C1059 C1078 1.368 . S
C1059 H1083 0.949 . S
H1060 C1064 0.949 . S
C1061 C1062 1.349 . S
C1061 C1063 1.314 1_554 S
C1061 H1084 0.950 1_554 S
C1062 C1061 1.349 . S
C1062 C1074 1.349 . S
C1063 C1061 1.314 1_556 S
C1063 C1079 1.400 1_556 S
C1063 H1085 0.994 . S
C1064 H1060 0.949 . S
C1064 C1072 1.574 1_545 S
C1064 C1080 1.368 . S
H1065 C1073 0.950 . S
H1066 C1071 0.950 . S
H1067 C1072 0.949 . S
H1068 C1074 0.950 . S
H1069 C1075 0.950 . S
H1070 C1076 0.949 . S
C1071 H1066 0.950 . S
C1071 C1073 1.327 . S
C1071 C1077 1.429 . S
C1072 C1064 1.574 1_565 S
C1072 H1067 0.949 . S
C1072 C1078 1.368 1_554 S
C1073 C1057 1.349 . S
C1073 H1065 0.950 . S
C1073 C1071 1.327 . S
C1074 C1062 1.349 . S
C1074 H1068 0.950 . S
C1074 C1075 1.327 . S
C1075 H1069 0.950 . S
C1075 C1074 1.327 . S
C1075 C1079 1.429 . S
C1076 C1059 1.574 1_545 S
C1076 H1070 0.949 . S
C1076 C1080 1.368 1_556 S
C1077 C1058 1.400 1_556 S
C1077 C1071 1.429 . S
C1077 C1078 1.523 . S
C1078 C1059 1.368 . S
C1078 C1072 1.368 1_556 S
C1078 C1077 1.523 . S
C1079 C1063 1.400 1_554 S
C1079 C1075 1.429 . S
C1079 C1080 1.523 . S
C1080 C1064 1.368 . S
C1080 C1076 1.368 1_554 S
C1080 C1079 1.523 . S
H1081 C1056 0.950 1_554 S
H1082 C1058 0.994 . S
H1083 C1059 0.949 . S
H1084 C1061 0.950 1_556 S
H1085 C1063 0.994 . S
C1086 C1087 1.349 . S
C1086 C1088 1.327 . S
C1086 H1111 0.950 . S
C1087 C1086 1.349 . S
C1087 C1103 1.349 . S
C1088 C1086 1.327 . S
C1088 C1107 1.429 . S
C1088 H1112 0.950 . S
C1089 C1106 1.574 . S
C1089 C1108 1.368 . S
C1089 H1113 0.949 . S
H1090 C1094 0.949 . S
C1091 C1092 1.349 . S
C1091 C1093 1.327 . S
C1091 H1114 0.950 . S
C1092 C1091 1.349 . S
C1092 C1104 1.349 . S
C1093 C1091 1.327 . S
C1093 C1109 1.429 . S
C1093 H1115 0.950 . S
C1094 H1090 0.949 . S
C1094 C1102 1.574 . S
C1094 C1110 1.368 . S
H1095 C1103 0.950 . S
H1096 C1101 0.950 . S
H1097 C1102 0.949 . S
H1098 C1104 0.950 . S
H1099 C1105 0.950 . S
H1100 C1106 0.949 . S
C1101 H1096 0.950 . S
C1101 C1103 1.327 . S
C1101 C1107 1.429 . S
C1102 C1094 1.574 . S
C1102 H1097 0.949 . S
C1102 C1108 1.368 . S
C1103 C1087 1.349 . S
C1103 H1095 0.950 . S
C1103 C1101 1.327 . S
C1104 C1092 1.349 . S
C1104 H1098 0.950 . S
C1104 C1105 1.327 . S
C1105 H1099 0.950 . S
C1105 C1104 1.327 . S
C1105 C1109 1.429 . S
C1106 C1089 1.574 . S
C1106 H1100 0.949 . S
C1106 C1110 1.368 . S
C1107 C1088 1.429 . S
C1107 C1101 1.429 . S
C1107 C1108 1.523 . S
C1108 C1089 1.368 . S
C1108 C1102 1.368 . S
C1108 C1107 1.523 . S
C1109 C1093 1.429 . S
C1109 C1105 1.429 . S
C1109 C1110 1.523 . S
C1110 C1094 1.368 . S
C1110 C1106 1.368 . S
C1110 C1109 1.523 . S
H1111 C1086 0.950 . S
H1112 C1088 0.950 . S
H1113 C1089 0.949 . S
H1114 C1091 0.950 . S
H1115 C1093 0.950 . S
C1116 C1117 1.349 . S
C1116 C1118 1.327 . S
C1116 H1141 0.950 . S
C1117 C1116 1.349 . S
C1117 C1133 1.349 . S
C1118 C1116 1.327 . S
C1118 C1137 1.429 . S
C1118 H1142 0.950 . S
C1119 C1136 1.574 1_655 S
C1119 C1138 1.368 . S
C1119 H1143 0.949 . S
H1120 C1124 0.949 . S
C1121 C1122 1.349 . S
C1121 C1123 1.327 . S
C1121 H1144 0.950 . S
C1122 C1121 1.349 . S
C1122 C1134 1.349 . S
C1123 C1121 1.327 . S
C1123 C1139 1.429 . S
C1123 H1145 0.950 . S
C1124 H1120 0.949 . S
C1124 C1132 1.574 1_455 S
C1124 C1140 1.368 . S
H1125 C1133 0.950 . S
H1126 C1131 0.950 . S
H1127 C1132 0.949 . S
H1128 C1134 0.950 . S
H1129 C1135 0.950 . S
H1130 C1136 0.949 . S
C1131 H1126 0.950 . S
C1131 C1133 1.327 . S
C1131 C1137 1.429 . S
C1132 C1124 1.574 1_655 S
C1132 H1127 0.949 . S
C1132 C1138 1.368 . S
C1133 C1117 1.349 . S
C1133 H1125 0.950 . S
C1133 C1131 1.327 . S
C1134 C1122 1.349 . S
C1134 H1128 0.950 . S
C1134 C1135 1.327 . S
C1135 H1129 0.950 . S
C1135 C1134 1.327 . S
C1135 C1139 1.429 . S
C1136 C1119 1.574 1_455 S
C1136 H1130 0.949 . S
C1136 C1140 1.368 . S
C1137 C1118 1.429 . S
C1137 C1131 1.429 . S
C1137 C1138 1.523 . S
C1138 C1119 1.368 . S
C1138 C1132 1.368 . S
C1138 C1137 1.523 . S
C1139 C1123 1.429 . S
C1139 C1135 1.429 . S
C1139 C1140 1.523 . S
C1140 C1124 1.368 . S
C1140 C1136 1.368 . S
C1140 C1139 1.523 . S
H1141 C1116 0.950 . S
H1142 C1118 0.950 . S
H1143 C1119 0.949 . S
H1144 C1121 0.950 . S
H1145 C1123 0.950 . S
C1146 C1147 1.349 . S
C1146 C1148 1.307 1_554 S
C1146 H1171 0.950 1_554 S
C1147 C1146 1.349 . S
C1147 C1163 1.349 . S
C1148 C1146 1.307 1_556 S
C1148 C1167 1.382 1_556 S
C1148 H1172 1.024 . S
C1149 C1166 1.574 1_565 S
C1149 C1168 1.368 . S
C1149 H1173 0.949 . S
H1150 C1154 0.949 . S
C1151 C1152 1.349 . S
C1151 C1153 1.307 1_556 S
C1151 H1174 0.950 1_556 S
C1152 C1151 1.349 . S
C1152 C1164 1.349 . S
C1153 C1151 1.307 1_554 S
C1153 C1169 1.382 1_554 S
C1153 H1175 1.024 . S
C1154 H1150 0.949 . S
C1154 C1162 1.574 1_545 S
C1154 C1170 1.368 . S
H1155 C1163 0.950 . S
H1156 C1161 0.950 . S
H1157 C1162 0.949 . S
H1158 C1164 0.950 . S
H1159 C1165 0.950 . S
H1160 C1166 0.949 . S
C1161 H1156 0.950 . S
C1161 C1163 1.327 . S
C1161 C1167 1.429 . S
C1162 C1154 1.574 1_565 S
C1162 H1157 0.949 . S
C1162 C1168 1.368 1_556 S
C1163 C1147 1.349 . S
C1163 H1155 0.950 . S
C1163 C1161 1.327 . S
C1164 C1152 1.349 . S
C1164 H1158 0.950 . S
C1164 C1165 1.327 . S
C1165 H1159 0.950 . S
C1165 C1164 1.327 . S
C1165 C1169 1.429 . S
C1166 C1149 1.574 1_545 S
C1166 H1160 0.949 . S
C1166 C1170 1.368 1_554 S
C1167 C1148 1.382 1_554 S
C1167 C1161 1.429 . S
C1167 C1168 1.523 . S
C1168 C1149 1.368 . S
C1168 C1162 1.368 1_554 S
C1168 C1167 1.523 . S
C1169 C1153 1.382 1_556 S
C1169 C1165 1.429 . S
C1169 C1170 1.523 . S
C1170 C1154 1.368 . S
C1170 C1166 1.368 1_556 S
C1170 C1169 1.523 . S
H1171 C1146 0.950 1_556 S
H1172 C1148 1.024 . S
H1173 C1149 0.949 . S
H1174 C1151 0.950 1_554 S
H1175 C1153 1.024 . S
C1176 C1177 1.349 . S
C1176 C1178 1.327 . S
C1176 H1201 0.950 . S
C1177 C1176 1.349 . S
C1177 C1193 1.349 . S
C1178 C1176 1.327 . S
C1178 C1197 1.429 . S
C1178 H1202 0.950 . S
C1179 C1196 1.574 . S
C1179 C1198 1.368 . S
C1179 H1203 0.949 . S
H1180 C1184 0.949 . S
C1181 C1182 1.349 . S
C1181 C1183 1.327 . S
C1181 H1204 0.950 . S
C1182 C1181 1.349 . S
C1182 C1194 1.349 . S
C1183 C1181 1.327 . S
C1183 C1199 1.429 . S
C1183 H1205 0.950 . S
C1184 H1180 0.949 . S
C1184 C1192 1.574 . S
C1184 C1200 1.368 . S
H1185 C1193 0.950 . S
H1186 C1191 0.950 . S
H1187 C1192 0.949 . S
H1188 C1194 0.950 . S
H1189 C1195 0.950 . S
H1190 C1196 0.949 . S
C1191 H1186 0.950 . S
C1191 C1193 1.327 . S
C1191 C1197 1.429 . S
C1192 C1184 1.574 . S
C1192 H1187 0.949 . S
C1192 C1198 1.368 . S
C1193 C1177 1.349 . S
C1193 H1185 0.950 . S
C1193 C1191 1.327 . S
C1194 C1182 1.349 . S
C1194 H1188 0.950 . S
C1194 C1195 1.327 . S
C1195 H1189 0.950 . S
C1195 C1194 1.327 . S
C1195 C1199 1.429 . S
C1196 C1179 1.574 . S
C1196 H1190 0.949 . S
C1196 C1200 1.368 . S
C1197 C1178 1.429 . S
C1197 C1191 1.429 . S
C1197 C1198 1.523 . S
C1198 C1179 1.368 . S
C1198 C1192 1.368 . S
C1198 C1197 1.523 . S
C1199 C1183 1.429 . S
C1199 C1195 1.429 . S
C1199 C1200 1.523 . S
C1200 C1184 1.368 . S
C1200 C1196 1.368 . S
C1200 C1199 1.523 . S
H1201 C1176 0.950 . S
H1202 C1178 0.950 . S
H1203 C1179 0.949 . S
H1204 C1181 0.950 . S
H1205 C1183 0.950 . S
C1206 C1207 1.349 . S
C1206 C1208 1.327 . S
C1206 H1231 0.950 . S
C1207 C1206 1.349 . S
C1207 C1223 1.349 . S
C1208 C1206 1.327 . S
C1208 C1227 1.429 . S
C1208 H1232 0.950 . S
C1209 C1226 1.574 1_655 S
C1209 C1228 1.368 . S
C1209 H1233 0.949 . S
H1210 C1214 0.949 . S
C1211 C1212 1.349 . S
C1211 C1213 1.327 . S
C1211 H1234 0.950 . S
C1212 C1211 1.349 . S
C1212 C1224 1.349 . S
C1213 C1211 1.327 . S
C1213 C1229 1.429 . S
C1213 H1235 0.950 . S
C1214 H1210 0.949 . S
C1214 C1222 1.574 1_455 S
C1214 C1230 1.368 . S
H1215 C1223 0.950 . S
H1216 C1221 0.950 . S
H1217 C1222 0.949 . S
H1218 C1224 0.950 . S
H1219 C1225 0.950 . S
H1220 C1226 0.949 . S
C1221 H1216 0.950 . S
C1221 C1223 1.327 . S
C1221 C1227 1.429 . S
C1222 C1214 1.574 1_655 S
C1222 H1217 0.949 . S
C1222 C1228 1.368 . S
C1223 C1207 1.349 . S
C1223 H1215 0.950 . S
C1223 C1221 1.327 . S
C1224 C1212 1.349 . S
C1224 H1218 0.950 . S
C1224 C1225 1.327 . S
C1225 H1219 0.950 . S
C1225 C1224 1.327 . S
C1225 C1229 1.429 . S
C1226 C1209 1.574 1_455 S
C1226 H1220 0.949 . S
C1226 C1230 1.368 . S
C1227 C1208 1.429 . S
C1227 C1221 1.429 . S
C1227 C1228 1.523 . S
C1228 C1209 1.368 . S
C1228 C1222 1.368 . S
C1228 C1227 1.523 . S
C1229 C1213 1.429 . S
C1229 C1225 1.429 . S
C1229 C1230 1.523 . S
C1230 C1214 1.368 . S
C1230 C1226 1.368 . S
C1230 C1229 1.523 . S
H1231 C1206 0.950 . S
H1232 C1208 0.950 . S
H1233 C1209 0.949 . S
H1234 C1211 0.950 . S
H1235 C1213 0.950 . S
C1236 C1237 1.349 . S
C1236 C1238 1.327 . S
C1236 H1261 0.950 . S
C1237 C1236 1.349 . S
C1237 C1253 1.349 . S
C1238 C1236 1.327 . S
C1238 C1257 1.429 . S
C1238 H1262 0.950 . S
C1239 C1256 1.574 . S
C1239 C1258 1.368 . S
C1239 H1263 0.949 . S
H1240 C1244 0.949 . S
C1241 C1242 1.349 . S
C1241 C1243 1.327 . S
C1241 H1264 0.950 . S
C1242 C1241 1.349 . S
C1242 C1254 1.349 . S
C1243 C1241 1.327 . S
C1243 C1259 1.429 . S
C1243 H1265 0.950 . S
C1244 H1240 0.949 . S
C1244 C1252 1.574 . S
C1244 C1260 1.368 . S
H1245 C1253 0.950 . S
H1246 C1251 0.950 . S
H1247 C1252 0.949 . S
H1248 C1254 0.950 . S
H1249 C1255 0.950 . S
H1250 C1256 0.949 . S
C1251 H1246 0.950 . S
C1251 C1253 1.327 . S
C1251 C1257 1.429 . S
C1252 C1244 1.574 . S
C1252 H1247 0.949 . S
C1252 C1258 1.368 1_554 S
C1253 C1237 1.349 . S
C1253 H1245 0.950 . S
C1253 C1251 1.327 . S
C1254 C1242 1.349 . S
C1254 H1248 0.950 . S
C1254 C1255 1.327 . S
C1255 H1249 0.950 . S
C1255 C1254 1.327 . S
C1255 C1259 1.429 . S
C1256 C1239 1.574 . S
C1256 H1250 0.949 . S
C1256 C1260 1.368 1_556 S
C1257 C1238 1.429 . S
C1257 C1251 1.429 . S
C1257 C1258 1.523 . S
C1258 C1239 1.368 . S
C1258 C1252 1.368 1_556 S
C1258 C1257 1.523 . S
C1259 C1243 1.429 . S
C1259 C1255 1.429 . S
C1259 C1260 1.523 . S
C1260 C1244 1.368 . S
C1260 C1256 1.368 1_554 S
C1260 C1259 1.523 . S
H1261 C1236 0.950 . S
H1262 C1238 0.950 . S
H1263 C1239 0.949 . S
H1264 C1241 0.950 . S
H1265 C1243 0.950 . S
C1266 C1267 1.349 . S
C1266 C1268 1.327 . S
C1266 H1291 0.950 . S
C1267 C1266 1.349 . S
C1267 C1283 1.349 . S
C1268 C1266 1.327 . S
C1268 C1287 1.429 . S
C1268 H1292 0.950 . S
C1269 C1286 1.574 . S
C1269 C1288 1.368 . S
C1269 H1293 0.949 . S
H1270 C1274 0.949 . S
C1271 C1272 1.349 . S
C1271 C1273 1.327 . S
C1271 H1294 0.950 . S
C1272 C1271 1.349 . S
C1272 C1284 1.349 . S
C1273 C1271 1.327 . S
C1273 C1289 1.429 . S
C1273 H1295 0.950 . S
C1274 H1270 0.949 . S
C1274 C1282 1.574 . S
C1274 C1290 1.368 . S
H1275 C1283 0.950 . S
H1276 C1281 0.950 . S
H1277 C1282 0.949 . S
H1278 C1284 0.950 . S
H1279 C1285 0.950 . S
H1280 C1286 0.949 . S
C1281 H1276 0.950 . S
C1281 C1283 1.327 . S
C1281 C1287 1.429 . S
C1282 C1274 1.574 . S
C1282 H1277 0.949 . S
C1282 C1288 1.368 . S
C1283 C1267 1.349 . S
C1283 H1275 0.950 . S
C1283 C1281 1.327 . S
C1284 C1272 1.349 . S
C1284 H1278 0.950 . S
C1284 C1285 1.327 . S
C1285 H1279 0.950 . S
C1285 C1284 1.327 . S
C1285 C1289 1.429 . S
C1286 C1269 1.574 . S
C1286 H1280 0.949 . S
C1286 C1290 1.368 . S
C1287 C1268 1.429 . S
C1287 C1281 1.429 . S
C1287 C1288 1.523 . S
C1288 C1269 1.368 . S
C1288 C1282 1.368 . S
C1288 C1287 1.523 . S
C1289 C1273 1.429 . S
C1289 C1285 1.429 . S
C1289 C1290 1.523 . S
C1290 C1274 1.368 . S
C1290 C1286 1.368 . S
C1290 C1289 1.523 . S
H1291 C1266 0.950 . S
H1292 C1268 0.950 . S
H1293 C1269 0.949 . S
H1294 C1271 0.950 . S
H1295 C1273 0.950 . S
C1296 C1297 1.349 . S
C1296 C1298 1.327 . S
C1296 H1321 0.950 . S
C1297 C1296 1.349 . S
C1297 C1313 1.349 . S
C1298 C1296 1.327 . S
C1298 C1317 1.429 . S
C1298 H1322 0.950 . S
C1299 C1316 1.574 . S
C1299 C1318 1.368 . S
C1299 H1323 0.949 . S
H1300 C1304 0.949 . S
C1301 C1302 1.349 . S
C1301 C1303 1.327 . S
C1301 H1324 0.950 . S
C1302 C1301 1.349 . S
C1302 C1314 1.349 . S
C1303 C1301 1.327 . S
C1303 C1319 1.429 . S
C1303 H1325 0.950 . S
C1304 H1300 0.949 . S
C1304 C1312 1.574 . S
C1304 C1320 1.368 . S
H1305 C1313 0.950 . S
H1306 C1311 0.950 . S
H1307 C1312 0.949 . S
H1308 C1314 0.950 . S
H1309 C1315 0.950 . S
H1310 C1316 0.949 . S
C1311 H1306 0.950 . S
C1311 C1313 1.327 . S
C1311 C1317 1.429 . S
C1312 C1304 1.574 . S
C1312 H1307 0.949 . S
C1312 C1318 1.368 . S
C1313 C1297 1.349 . S
C1313 H1305 0.950 . S
C1313 C1311 1.327 . S
C1314 C1302 1.349 . S
C1314 H1308 0.950 . S
C1314 C1315 1.327 . S
C1315 H1309 0.950 . S
C1315 C1314 1.327 . S
C1315 C1319 1.429 . S
C1316 C1299 1.574 . S
C1316 H1310 0.949 . S
C1316 C1320 1.368 . S
C1317 C1298 1.429 . S
C1317 C1311 1.429 . S
C1317 C1318 1.523 . S
C1318 C1299 1.368 . S
C1318 C1312 1.368 . S
C1318 C1317 1.523 . S
C1319 C1303 1.429 . S
C1319 C1315 1.429 . S
C1319 C1320 1.523 . S
C1320 C1304 1.368 . S
C1320 C1316 1.368 . S
C1320 C1319 1.523 . S
H1321 C1296 0.950 . S
H1322 C1298 0.950 . S
H1323 C1299 0.949 . S
H1324 C1301 0.950 . S
H1325 C1303 0.950 . S
C1326 C1327 1.349 . S
C1326 C1328 1.327 . S
C1326 H1351 0.950 . S
C1327 C1326 1.349 . S
C1327 C1343 1.349 . S
C1328 C1326 1.327 . S
C1328 C1347 1.429 . S
C1328 H1352 0.950 . S
C1329 C1346 1.574 . S
C1329 C1348 1.368 1_554 S
C1329 H1353 0.949 . S
H1330 C1334 0.949 . S
C1331 C1332 1.349 . S
C1331 C1333 1.327 . S
C1331 H1354 0.950 . S
C1332 C1331 1.349 . S
C1332 C1344 1.349 . S
C1333 C1331 1.327 . S
C1333 C1349 1.429 . S
C1333 H1355 0.950 . S
C1334 H1330 0.949 . S
C1334 C1342 1.574 . S
C1334 C1350 1.368 1_556 S
H1335 C1343 0.950 . S
H1336 C1341 0.950 . S
H1337 C1342 0.949 . S
H1338 C1344 0.950 . S
H1339 C1345 0.950 . S
H1340 C1346 0.949 . S
C1341 H1336 0.950 . S
C1341 C1343 1.327 . S
C1341 C1347 1.429 . S
C1342 C1334 1.574 . S
C1342 H1337 0.949 . S
C1342 C1348 1.368 . S
C1343 C1327 1.349 . S
C1343 H1335 0.950 . S
C1343 C1341 1.327 . S
C1344 C1332 1.349 . S
C1344 H1338 0.950 . S
C1344 C1345 1.327 . S
C1345 H1339 0.950 . S
C1345 C1344 1.327 . S
C1345 C1349 1.429 . S
C1346 C1329 1.574 . S
C1346 H1340 0.949 . S
C1346 C1350 1.368 . S
C1347 C1328 1.429 . S
C1347 C1341 1.429 . S
C1347 C1348 1.523 . S
C1348 C1329 1.368 1_556 S
C1348 C1342 1.368 . S
C1348 C1347 1.523 . S
C1349 C1333 1.429 . S
C1349 C1345 1.429 . S
C1349 C1350 1.523 . S
C1350 C1334 1.368 1_554 S
C1350 C1346 1.368 . S
C1350 C1349 1.523 . S
H1351 C1326 0.950 . S
H1352 C1328 0.950 . S
H1353 C1329 0.949 . S
H1354 C1331 0.950 . S
H1355 C1333 0.950 . S
C1356 C1357 1.349 . S
C1356 C1358 1.327 . S
C1356 H1381 0.950 . S
C1357 C1356 1.349 . S
C1357 C1373 1.349 . S
C1358 C1356 1.327 . S
C1358 C1377 1.429 . S
C1358 H1382 0.950 . S
C1359 C1376 1.574 . S
C1359 C1378 1.368 . S
C1359 H1383 0.949 . S
H1360 C1364 0.949 . S
C1361 C1362 1.349 . S
C1361 C1363 1.327 . S
C1361 H1384 0.950 . S
C1362 C1361 1.349 . S
C1362 C1374 1.349 . S
C1363 C1361 1.327 . S
C1363 C1379 1.429 . S
C1363 H1385 0.950 . S
C1364 H1360 0.949 . S
C1364 C1372 1.574 . S
C1364 C1380 1.368 . S
H1365 C1373 0.950 . S
H1366 C1371 0.950 . S
H1367 C1372 0.949 . S
H1368 C1374 0.950 . S
H1369 C1375 0.950 . S
H1370 C1376 0.949 . S
C1371 H1366 0.950 . S
C1371 C1373 1.327 . S
C1371 C1377 1.429 . S
C1372 C1364 1.574 . S
C1372 H1367 0.949 . S
C1372 C1378 1.368 . S
C1373 C1357 1.349 . S
C1373 H1365 0.950 . S
C1373 C1371 1.327 . S
C1374 C1362 1.349 . S
C1374 H1368 0.950 . S
C1374 C1375 1.327 . S
C1375 H1369 0.950 . S
C1375 C1374 1.327 . S
C1375 C1379 1.429 . S
C1376 C1359 1.574 . S
C1376 H1370 0.949 . S
C1376 C1380 1.368 . S
C1377 C1358 1.429 . S
C1377 C1371 1.429 . S
C1377 C1378 1.523 . S
C1378 C1359 1.368 . S
C1378 C1372 1.368 . S
C1378 C1377 1.523 . S
C1379 C1363 1.429 . S
C1379 C1375 1.429 . S
C1379 C1380 1.523 . S
C1380 C1364 1.368 . S
C1380 C1376 1.368 . S
C1380 C1379 1.523 . S
H1381 C1356 0.950 . S
H1382 C1358 0.950 . S
H1383 C1359 0.949 . S
H1384 C1361 0.950 . S
H1385 C1363 0.950 . S
C1386 C1387 1.349 . S
C1386 C1388 1.327 . S
C1386 H1411 0.950 . S
C1387 C1386 1.349 . S
C1387 C1403 1.349 . S
C1388 C1386 1.327 . S
C1388 C1407 1.429 . S
C1388 H1412 0.950 . S
C1389 C1406 1.574 . S
C1389 C1408 1.368 . S
C1389 H1413 0.949 . S
H1390 C1394 0.949 . S
C1391 C1392 1.349 . S
C1391 C1393 1.327 . S
C1391 H1414 0.950 . S
C1392 C1391 1.349 . S
C1392 C1404 1.349 . S
C1393 C1391 1.327 . S
C1393 C1409 1.429 . S
C1393 H1415 0.950 . S
C1394 H1390 0.949 . S
C1394 C1402 1.574 . S
C1394 C1410 1.368 . S
H1395 C1403 0.950 . S
H1396 C1401 0.950 . S
H1397 C1402 0.949 . S
H1398 C1404 0.950 . S
H1399 C1405 0.950 . S
H1400 C1406 0.949 . S
C1401 H1396 0.950 . S
C1401 C1403 1.327 . S
C1401 C1407 1.429 . S
C1402 C1394 1.574 . S
C1402 H1397 0.949 . S
C1402 C1408 1.368 . S
C1403 C1387 1.349 . S
C1403 H1395 0.950 . S
C1403 C1401 1.327 . S
C1404 C1392 1.349 . S
C1404 H1398 0.950 . S
C1404 C1405 1.327 . S
C1405 H1399 0.950 . S
C1405 C1404 1.327 . S
C1405 C1409 1.429 . S
C1406 C1389 1.574 . S
C1406 H1400 0.949 . S
C1406 C1410 1.368 . S
C1407 C1388 1.429 . S
C1407 C1401 1.429 . S
C1407 C1408 1.523 . S
C1408 C1389 1.368 . S
C1408 C1402 1.368 . S
C1408 C1407 1.523 . S
C1409 C1393 1.429 . S
C1409 C1405 1.429 . S
C1409 C1410 1.523 . S
C1410 C1394 1.368 . S
C1410 C1406 1.368 . S
C1410 C1409 1.523 . S
H1411 C1386 0.950 . S
H1412 C1388 0.950 . S
H1413 C1389 0.949 . S
H1414 C1391 0.950 . S
H1415 C1393 0.950 . S
C1416 C1417 1.349 . S
C1416 C1418 1.327 . S
C1416 H1441 0.950 . S
C1417 C1416 1.349 . S
C1417 C1433 1.349 . S
C1418 C1416 1.327 . S
C1418 C1437 1.429 . S
C1418 H1442 0.950 . S
C1419 C1436 1.574 . S
C1419 C1438 1.368 . S
C1419 H1443 0.949 . S
H1420 C1424 0.949 . S
C1421 C1422 1.349 . S
C1421 C1423 1.327 . S
C1421 H1444 0.950 . S
C1422 C1421 1.349 . S
C1422 C1434 1.349 . S
C1423 C1421 1.327 . S
C1423 C1439 1.429 . S
C1423 H1445 0.950 . S
C1424 H1420 0.949 . S
C1424 C1432 1.574 . S
C1424 C1440 1.368 . S
H1425 C1433 0.950 . S
H1426 C1431 0.950 . S
H1427 C1432 0.949 . S
H1428 C1434 0.950 . S
H1429 C1435 0.950 . S
H1430 C1436 0.949 . S
C1431 H1426 0.950 . S
C1431 C1433 1.327 . S
C1431 C1437 1.429 . S
C1432 C1424 1.574 . S
C1432 H1427 0.949 . S
C1432 C1438 1.368 . S
C1433 C1417 1.349 . S
C1433 H1425 0.950 . S
C1433 C1431 1.327 . S
C1434 C1422 1.349 . S
C1434 H1428 0.950 . S
C1434 C1435 1.327 . S
C1435 H1429 0.950 . S
C1435 C1434 1.327 . S
C1435 C1439 1.429 . S
C1436 C1419 1.574 . S
C1436 H1430 0.949 . S
C1436 C1440 1.368 . S
C1437 C1418 1.429 . S
C1437 C1431 1.429 . S
C1437 C1438 1.523 . S
C1438 C1419 1.368 . S
C1438 C1432 1.368 . S
C1438 C1437 1.523 . S
C1439 C1423 1.429 . S
C1439 C1435 1.429 . S
C1439 C1440 1.523 . S
C1440 C1424 1.368 . S
C1440 C1436 1.368 . S
C1440 C1439 1.523 . S
H1441 C1416 0.950 . S
H1442 C1418 0.950 . S
H1443 C1419 0.949 . S
H1444 C1421 0.950 . S
H1445 C1423 0.950 . S
C1446 C1447 1.349 . S
C1446 C1448 1.327 . S
C1446 H1471 0.950 . S
C1447 C1446 1.349 . S
C1447 C1463 1.349 . S
C1448 C1446 1.327 . S
C1448 C1467 1.429 . S
C1448 H1472 0.950 . S
C1449 C1466 1.574 . S
C1449 C1468 1.368 . S
C1449 H1473 0.949 . S
H1450 C1454 0.949 . S
C1451 C1452 1.349 . S
C1451 C1453 1.327 . S
C1451 H1474 0.950 . S
C1452 C1451 1.349 . S
C1452 C1464 1.349 . S
C1453 C1451 1.327 . S
C1453 C1469 1.429 . S
C1453 H1475 0.950 . S
C1454 H1450 0.949 . S
C1454 C1462 1.574 . S
C1454 C1470 1.368 . S
H1455 C1463 0.950 . S
H1456 C1461 0.950 . S
H1457 C1462 0.949 . S
H1458 C1464 0.950 . S
H1459 C1465 0.950 . S
H1460 C1466 0.949 . S
C1461 H1456 0.950 . S
C1461 C1463 1.327 . S
C1461 C1467 1.429 . S
C1462 C1454 1.574 . S
C1462 H1457 0.949 . S
C1462 C1468 1.368 . S
C1463 C1447 1.349 . S
C1463 H1455 0.950 . S
C1463 C1461 1.327 . S
C1464 C1452 1.349 . S
C1464 H1458 0.950 . S
C1464 C1465 1.327 . S
C1465 H1459 0.950 . S
C1465 C1464 1.327 . S
C1465 C1469 1.429 . S
C1466 C1449 1.574 . S
C1466 H1460 0.949 . S
C1466 C1470 1.368 . S
C1467 C1448 1.429 . S
C1467 C1461 1.429 . S
C1467 C1468 1.523 . S
C1468 C1449 1.368 . S
C1468 C1462 1.368 . S
C1468 C1467 1.523 . S
C1469 C1453 1.429 . S
C1469 C1465 1.429 . S
C1469 C1470 1.523 . S
C1470 C1454 1.368 . S
C1470 C1466 1.368 . S
C1470 C1469 1.523 . S
H1471 C1446 0.950 . S
H1472 C1448 0.950 . S
H1473 C1449 0.949 . S
H1474 C1451 0.950 . S
H1475 C1453 0.950 . S
C1476 C1477 1.349 . S
C1476 C1478 1.327 . S
C1476 H1501 0.950 . S
C1477 C1476 1.349 . S
C1477 C1493 1.349 . S
C1478 C1476 1.327 . S
C1478 C1497 1.429 . S
C1478 H1502 0.950 . S
C1479 C1496 1.574 . S
C1479 C1498 1.368 . S
C1479 H1503 0.949 . S
H1480 C1484 0.949 . S
C1481 C1482 1.349 . S
C1481 C1483 1.327 . S
C1481 H1504 0.950 . S
C1482 C1481 1.349 . S
C1482 C1494 1.349 . S
C1483 C1481 1.327 . S
C1483 C1499 1.429 . S
C1483 H1505 0.950 . S
C1484 H1480 0.949 . S
C1484 C1492 1.574 . S
C1484 C1500 1.368 . S
H1485 C1493 0.950 . S
H1486 C1491 0.950 . S
H1487 C1492 0.949 . S
H1488 C1494 0.950 . S
H1489 C1495 0.950 . S
H1490 C1496 0.949 . S
C1491 H1486 0.950 . S
C1491 C1493 1.327 . S
C1491 C1497 1.429 . S
C1492 C1484 1.574 . S
C1492 H1487 0.949 . S
C1492 C1498 1.368 . S
C1493 C1477 1.349 . S
C1493 H1485 0.950 . S
C1493 C1491 1.327 . S
C1494 C1482 1.349 . S
C1494 H1488 0.950 . S
C1494 C1495 1.327 . S
C1495 H1489 0.950 . S
C1495 C1494 1.327 . S
C1495 C1499 1.429 . S
C1496 C1479 1.574 . S
C1496 H1490 0.949 . S
C1496 C1500 1.368 . S
C1497 C1478 1.429 . S
C1497 C1491 1.429 . S
C1497 C1498 1.523 . S
C1498 C1479 1.368 . S
C1498 C1492 1.368 . S
C1498 C1497 1.523 . S
C1499 C1483 1.429 . S
C1499 C1495 1.429 . S
C1499 C1500 1.523 . S
C1500 C1484 1.368 . S
C1500 C1496 1.368 . S
C1500 C1499 1.523 . S
H1501 C1476 0.950 . S
H1502 C1478 0.950 . S
H1503 C1479 0.949 . S
H1504 C1481 0.950 . S
H1505 C1483 0.950 . S
C1506 C1507 1.349 . S
C1506 C1508 1.327 . S
C1506 H1531 0.950 . S
C1507 C1506 1.349 . S
C1507 C1523 1.349 . S
C1508 C1506 1.327 . S
C1508 C1527 1.429 . S
C1508 H1532 0.950 . S
C1509 C1526 1.574 . S
C1509 C1528 1.368 . S
C1509 H1533 0.949 . S
H1510 C1514 0.949 . S
C1511 C1512 1.349 . S
C1511 C1513 1.327 . S
C1511 H1534 0.950 . S
C1512 C1511 1.349 . S
C1512 C1524 1.349 . S
C1513 C1511 1.327 . S
C1513 C1529 1.429 . S
C1513 H1535 0.950 . S
C1514 H1510 0.949 . S
C1514 C1522 1.574 . S
C1514 C1530 1.368 . S
H1515 C1523 0.950 . S
H1516 C1521 0.950 . S
H1517 C1522 0.949 . S
H1518 C1524 0.950 . S
H1519 C1525 0.950 . S
H1520 C1526 0.949 . S
C1521 H1516 0.950 . S
C1521 C1523 1.327 . S
C1521 C1527 1.429 . S
C1522 C1514 1.574 . S
C1522 H1517 0.949 . S
C1522 C1528 1.368 . S
C1523 C1507 1.349 . S
C1523 H1515 0.950 . S
C1523 C1521 1.327 . S
C1524 C1512 1.349 . S
C1524 H1518 0.950 . S
C1524 C1525 1.327 . S
C1525 H1519 0.950 . S
C1525 C1524 1.327 . S
C1525 C1529 1.429 . S
C1526 C1509 1.574 . S
C1526 H1520 0.949 . S
C1526 C1530 1.368 . S
C1527 C1508 1.429 . S
C1527 C1521 1.429 . S
C1527 C1528 1.523 . S
C1528 C1509 1.368 . S
C1528 C1522 1.368 . S
C1528 C1527 1.523 . S
C1529 C1513 1.429 . S
C1529 C1525 1.429 . S
C1529 C1530 1.523 . S
C1530 C1514 1.368 . S
C1530 C1526 1.368 . S
C1530 C1529 1.523 . S
H1531 C1506 0.950 . S
H1532 C1508 0.950 . S
H1533 C1509 0.949 . S
H1534 C1511 0.950 . S
H1535 C1513 0.950 . S
C1536 C1537 1.349 . S
C1536 C1538 1.327 . S
C1536 H1561 0.950 . S
C1537 C1536 1.349 . S
C1537 C1553 1.349 . S
C1538 C1536 1.327 . S
C1538 C1557 1.429 . S
C1538 H1562 0.950 . S
C1539 C1556 1.574 . S
C1539 C1558 1.368 . S
C1539 H1563 0.949 . S
H1540 C1544 0.949 . S
C1541 C1542 1.349 . S
C1541 C1543 1.327 . S
C1541 H1564 0.950 . S
C1542 C1541 1.349 . S
C1542 C1554 1.349 . S
C1543 C1541 1.327 . S
C1543 C1559 1.429 . S
C1543 H1565 0.950 . S
C1544 H1540 0.949 . S
C1544 C1552 1.574 . S
C1544 C1560 1.368 . S
H1545 C1553 0.950 . S
H1546 C1551 0.950 . S
H1547 C1552 0.949 . S
H1548 C1554 0.950 . S
H1549 C1555 0.950 . S
H1550 C1556 0.949 . S
C1551 H1546 0.950 . S
C1551 C1553 1.327 . S
C1551 C1557 1.429 . S
C1552 C1544 1.574 . S
C1552 H1547 0.949 . S
C1552 C1558 1.368 . S
C1553 C1537 1.349 . S
C1553 H1545 0.950 . S
C1553 C1551 1.327 . S
C1554 C1542 1.349 . S
C1554 H1548 0.950 . S
C1554 C1555 1.327 . S
C1555 H1549 0.950 . S
C1555 C1554 1.327 . S
C1555 C1559 1.429 . S
C1556 C1539 1.574 . S
C1556 H1550 0.949 . S
C1556 C1560 1.368 . S
C1557 C1538 1.429 . S
C1557 C1551 1.429 . S
C1557 C1558 1.523 . S
C1558 C1539 1.368 . S
C1558 C1552 1.368 . S
C1558 C1557 1.523 . S
C1559 C1543 1.429 . S
C1559 C1555 1.429 . S
C1559 C1560 1.523 . S
C1560 C1544 1.368 . S
C1560 C1556 1.368 . S
C1560 C1559 1.523 . S
H1561 C1536 0.950 . S
H1562 C1538 0.950 . S
H1563 C1539 0.949 . S
H1564 C1541 0.950 . S
H1565 C1543 0.950 . S
C1566 C1567 1.349 . S
C1566 C1568 1.327 . S
C1566 H1591 0.950 . S
C1567 C1566 1.349 . S
C1567 C1583 1.349 . S
C1568 C1566 1.327 . S
C1568 C1587 1.429 . S
C1568 H1592 0.950 . S
C1569 C1586 1.574 . S
C1569 C1588 1.368 . S
C1569 H1593 0.949 . S
H1570 C1574 0.949 . S
C1571 C1572 1.349 . S
C1571 C1573 1.327 . S
C1571 H1594 0.950 . S
C1572 C1571 1.349 . S
C1572 C1584 1.349 . S
C1573 C1571 1.327 . S
C1573 C1589 1.429 . S
C1573 H1595 0.950 . S
C1574 H1570 0.949 . S
C1574 C1582 1.574 . S
C1574 C1590 1.368 . S
H1575 C1583 0.950 . S
H1576 C1581 0.950 . S
H1577 C1582 0.949 . S
H1578 C1584 0.950 . S
H1579 C1585 0.950 . S
H1580 C1586 0.949 . S
C1581 H1576 0.950 . S
C1581 C1583 1.327 . S
C1581 C1587 1.429 . S
C1582 C1574 1.574 . S
C1582 H1577 0.949 . S
C1582 C1588 1.368 . S
C1583 C1567 1.349 . S
C1583 H1575 0.950 . S
C1583 C1581 1.327 . S
C1584 C1572 1.349 . S
C1584 H1578 0.950 . S
C1584 C1585 1.327 . S
C1585 H1579 0.950 . S
C1585 C1584 1.327 . S
C1585 C1589 1.429 . S
C1586 C1569 1.574 . S
C1586 H1580 0.949 . S
C1586 C1590 1.368 . S
C1587 C1568 1.429 . S
C1587 C1581 1.429 . S
C1587 C1588 1.523 . S
C1588 C1569 1.368 . S
C1588 C1582 1.368 . S
C1588 C1587 1.523 . S
C1589 C1573 1.429 . S
C1589 C1585 1.429 . S
C1589 C1590 1.523 . S
C1590 C1574 1.368 . S
C1590 C1586 1.368 . S
C1590 C1589 1.523 . S
H1591 C1566 0.950 . S
H1592 C1568 0.950 . S
H1593 C1569 0.949 . S
H1594 C1571 0.950 . S
H1595 C1573 0.950 . S
C1596 C1597 1.349 . S
C1596 C1598 1.327 . S
C1596 H1621 0.950 . S
C1597 C1596 1.349 . S
C1597 C1613 1.349 . S
C1598 C1596 1.327 . S
C1598 C1617 1.429 . S
C1598 H1622 0.950 . S
C1599 C1616 1.574 . S
C1599 C1618 1.368 . S
C1599 H1623 0.949 . S
H1600 C1604 0.949 . S
C1601 C1602 1.349 . S
C1601 C1603 1.327 . S
C1601 H1624 0.950 . S
C1602 C1601 1.349 . S
C1602 C1614 1.349 . S
C1603 C1601 1.327 . S
C1603 C1619 1.429 . S
C1603 H1625 0.950 . S
C1604 H1600 0.949 . S
C1604 C1612 1.574 . S
C1604 C1620 1.368 . S
H1605 C1613 0.950 . S
H1606 C1611 0.950 . S
H1607 C1612 0.949 . S
H1608 C1614 0.950 . S
H1609 C1615 0.950 . S
H1610 C1616 0.949 . S
C1611 H1606 0.950 . S
C1611 C1613 1.327 . S
C1611 C1617 1.429 . S
C1612 C1604 1.574 . S
C1612 H1607 0.949 . S
C1612 C1618 1.368 . S
C1613 C1597 1.349 . S
C1613 H1605 0.950 . S
C1613 C1611 1.327 . S
C1614 C1602 1.349 . S
C1614 H1608 0.950 . S
C1614 C1615 1.327 . S
C1615 H1609 0.950 . S
C1615 C1614 1.327 . S
C1615 C1619 1.429 . S
C1616 C1599 1.574 . S
C1616 H1610 0.949 . S
C1616 C1620 1.368 . S
C1617 C1598 1.429 . S
C1617 C1611 1.429 . S
C1617 C1618 1.523 . S
C1618 C1599 1.368 . S
C1618 C1612 1.368 . S
C1618 C1617 1.523 . S
C1619 C1603 1.429 . S
C1619 C1615 1.429 . S
C1619 C1620 1.523 . S
C1620 C1604 1.368 . S
C1620 C1616 1.368 . S
C1620 C1619 1.523 . S
H1621 C1596 0.950 . S
H1622 C1598 0.950 . S
H1623 C1599 0.949 . S
H1624 C1601 0.950 . S
H1625 C1603 0.950 . S
C1626 C1627 1.349 . S
C1626 C1628 1.327 . S
C1626 H1651 0.950 . S
C1627 C1626 1.349 . S
C1627 C1643 1.349 . S
C1628 C1626 1.327 . S
C1628 C1647 1.429 . S
C1628 H1652 0.950 . S
C1629 C1646 1.574 . S
C1629 C1648 1.368 1_455 S
C1629 H1653 0.949 . S
H1630 C1634 0.949 . S
C1631 C1632 1.349 . S
C1631 C1633 1.327 . S
C1631 H1654 0.950 . S
C1632 C1631 1.349 . S
C1632 C1644 1.349 . S
C1633 C1631 1.327 . S
C1633 C1649 1.429 . S
C1633 H1655 0.950 . S
C1634 H1630 0.949 . S
C1634 C1642 1.574 . S
C1634 C1650 1.368 1_655 S
H1635 C1643 0.950 . S
H1636 C1641 0.950 1_455 S
H1637 C1642 0.949 . S
H1638 C1644 0.950 . S
H1639 C1645 0.950 1_655 S
H1640 C1646 0.949 . S
C1641 H1636 0.950 1_655 S
C1641 C1643 1.327 . S
C1641 C1647 1.429 . S
C1642 C1634 1.574 . S
C1642 H1637 0.949 . S
C1642 C1648 1.368 . S
C1643 C1627 1.349 . S
C1643 H1635 0.950 . S
C1643 C1641 1.327 . S
C1644 C1632 1.349 . S
C1644 H1638 0.950 . S
C1644 C1645 1.327 . S
C1645 H1639 0.950 1_455 S
C1645 C1644 1.327 . S
C1645 C1649 1.429 . S
C1646 C1629 1.574 . S
C1646 H1640 0.949 . S
C1646 C1650 1.368 . S
C1647 C1628 1.429 . S
C1647 C1641 1.429 . S
C1647 C1648 1.523 . S
C1648 C1629 1.368 1_655 S
C1648 C1642 1.368 . S
C1648 C1647 1.523 . S
C1649 C1633 1.429 . S
C1649 C1645 1.429 . S
C1649 C1650 1.523 . S
C1650 C1634 1.368 1_455 S
C1650 C1646 1.368 . S
C1650 C1649 1.523 . S
H1651 C1626 0.950 . S
H1652 C1628 0.950 . S
H1653 C1629 0.949 . S
H1654 C1631 0.950 . S
H1655 C1633 0.950 . S
C1656 C1657 1.349 . S
C1656 C1658 1.327 . S
C1656 H1681 0.950 . S
C1657 C1656 1.349 . S
C1657 C1673 1.349 . S
C1658 C1656 1.327 . S
C1658 C1677 1.429 . S
C1658 H1682 0.950 1_545 S
C1659 C1676 1.574 . S
C1659 C1678 1.368 . S
C1659 H1683 0.949 . S
H1660 C1664 0.949 . S
C1661 C1662 1.349 . S
C1661 C1663 1.327 . S
C1661 H1684 0.950 . S
C1662 C1661 1.349 . S
C1662 C1674 1.349 . S
C1663 C1661 1.327 . S
C1663 C1679 1.429 . S
C1663 H1685 0.950 1_565 S
C1664 H1660 0.949 . S
C1664 C1672 1.574 . S
C1664 C1680 1.368 . S
H1665 C1673 0.950 . S
H1666 C1671 0.950 . S
H1667 C1672 0.949 . S
H1668 C1674 0.950 . S
H1669 C1675 0.950 . S
H1670 C1676 0.949 . S
C1671 H1666 0.950 . S
C1671 C1673 1.327 . S
C1671 C1677 1.429 . S
C1672 C1664 1.574 . S
C1672 H1667 0.949 . S
C1672 C1678 1.368 1_565 S
C1673 C1657 1.349 . S
C1673 H1665 0.950 . S
C1673 C1671 1.327 . S
C1674 C1662 1.349 . S
C1674 H1668 0.950 . S
C1674 C1675 1.327 . S
C1675 H1669 0.950 . S
C1675 C1674 1.327 . S
C1675 C1679 1.429 . S
C1676 C1659 1.574 . S
C1676 H1670 0.949 . S
C1676 C1680 1.368 1_545 S
C1677 C1658 1.429 . S
C1677 C1671 1.429 . S
C1677 C1678 1.523 . S
C1678 C1659 1.368 . S
C1678 C1672 1.368 1_545 S
C1678 C1677 1.523 . S
C1679 C1663 1.429 . S
C1679 C1675 1.429 . S
C1679 C1680 1.523 . S
C1680 C1664 1.368 . S
C1680 C1676 1.368 1_565 S
C1680 C1679 1.523 . S
H1681 C1656 0.950 . S
H1682 C1658 0.950 1_565 S
H1683 C1659 0.949 . S
H1684 C1661 0.950 . S
H1685 C1663 0.950 1_545 S
C1686 C1687 1.349 . S
C1686 C1688 1.327 . S
C1686 H1711 0.950 . S
C1687 C1686 1.349 . S
C1687 C1703 1.349 . S
C1688 C1686 1.327 . S
C1688 C1707 1.429 . S
C1688 H1712 0.950 . S
C1689 C1706 1.574 . S
C1689 C1708 1.368 . S
C1689 H1713 0.949 . S
H1690 C1694 0.949 . S
C1691 C1692 1.349 . S
C1691 C1693 1.327 . S
C1691 H1714 0.950 . S
C1692 C1691 1.349 . S
C1692 C1704 1.349 . S
C1693 C1691 1.327 . S
C1693 C1709 1.429 . S
C1693 H1715 0.950 . S
C1694 H1690 0.949 . S
C1694 C1702 1.574 . S
C1694 C1710 1.368 . S
H1695 C1703 0.950 . S
H1696 C1701 0.950 . S
H1697 C1702 0.949 . S
H1698 C1704 0.950 . S
H1699 C1705 0.950 . S
H1700 C1706 0.949 . S
C1701 H1696 0.950 . S
C1701 C1703 1.327 . S
C1701 C1707 1.429 . S
C1702 C1694 1.574 . S
C1702 H1697 0.949 . S
C1702 C1708 1.368 . S
C1703 C1687 1.349 . S
C1703 H1695 0.950 . S
C1703 C1701 1.327 . S
C1704 C1692 1.349 . S
C1704 H1698 0.950 . S
C1704 C1705 1.327 . S
C1705 H1699 0.950 . S
C1705 C1704 1.327 . S
C1705 C1709 1.429 . S
C1706 C1689 1.574 . S
C1706 H1700 0.949 . S
C1706 C1710 1.368 . S
C1707 C1688 1.429 . S
C1707 C1701 1.429 . S
C1707 C1708 1.523 . S
C1708 C1689 1.368 . S
C1708 C1702 1.368 . S
C1708 C1707 1.523 . S
C1709 C1693 1.429 . S
C1709 C1705 1.429 . S
C1709 C1710 1.523 . S
C1710 C1694 1.368 . S
C1710 C1706 1.368 . S
C1710 C1709 1.523 . S
H1711 C1686 0.950 . S
H1712 C1688 0.950 . S
H1713 C1689 0.949 . S
H1714 C1691 0.950 . S
H1715 C1693 0.950 . S
C1716 C1717 1.349 . S
C1716 C1718 1.327 . S
C1716 H1741 0.950 . S
C1717 C1716 1.349 . S
C1717 C1733 1.349 . S
C1718 C1716 1.327 . S
C1718 C1737 1.429 . S
C1718 H1742 0.950 . S
C1719 C1736 1.574 . S
C1719 C1738 1.368 1_655 S
C1719 H1743 0.949 . S
H1720 C1724 0.949 . S
C1721 C1722 1.349 . S
C1721 C1723 1.327 . S
C1721 H1744 0.950 . S
C1722 C1721 1.349 . S
C1722 C1734 1.349 . S
C1723 C1721 1.327 . S
C1723 C1739 1.429 . S
C1723 H1745 0.950 . S
C1724 H1720 0.949 . S
C1724 C1732 1.574 . S
C1724 C1740 1.368 1_455 S
H1725 C1733 0.950 . S
H1726 C1731 0.950 1_655 S
H1727 C1732 0.949 . S
H1728 C1734 0.950 . S
H1729 C1735 0.950 1_455 S
H1730 C1736 0.949 . S
C1731 H1726 0.950 1_455 S
C1731 C1733 1.327 . S
C1731 C1737 1.429 . S
C1732 C1724 1.574 . S
C1732 H1727 0.949 . S
C1732 C1738 1.368 . S
C1733 C1717 1.349 . S
C1733 H1725 0.950 . S
C1733 C1731 1.327 . S
C1734 C1722 1.349 . S
C1734 H1728 0.950 . S
C1734 C1735 1.327 . S
C1735 H1729 0.950 1_655 S
C1735 C1734 1.327 . S
C1735 C1739 1.429 . S
C1736 C1719 1.574 . S
C1736 H1730 0.949 . S
C1736 C1740 1.368 . S
C1737 C1718 1.429 . S
C1737 C1731 1.429 . S
C1737 C1738 1.523 . S
C1738 C1719 1.368 1_455 S
C1738 C1732 1.368 . S
C1738 C1737 1.523 . S
C1739 C1723 1.429 . S
C1739 C1735 1.429 . S
C1739 C1740 1.523 . S
C1740 C1724 1.368 1_655 S
C1740 C1736 1.368 . S
C1740 C1739 1.523 . S
H1741 C1716 0.950 . S
H1742 C1718 0.950 . S
H1743 C1719 0.949 . S
H1744 C1721 0.950 . S
H1745 C1723 0.950 . S
C1746 C1747 1.349 . S
C1746 C1748 1.327 . S
C1746 H1771 0.950 . S
C1747 C1746 1.349 . S
C1747 C1763 1.349 . S
C1748 C1746 1.327 . S
C1748 C1767 1.429 . S
C1748 H1772 0.950 1_565 S
C1749 C1766 1.574 . S
C1749 C1768 1.368 . S
C1749 H1773 0.949 . S
H1750 C1754 0.949 . S
C1751 C1752 1.349 . S
C1751 C1753 1.327 . S
C1751 H1774 0.950 . S
C1752 C1751 1.349 . S
C1752 C1764 1.349 . S
C1753 C1751 1.327 . S
C1753 C1769 1.429 . S
C1753 H1775 0.950 1_545 S
C1754 H1750 0.949 . S
C1754 C1762 1.574 . S
C1754 C1770 1.368 . S
H1755 C1763 0.950 . S
H1756 C1761 0.950 . S
H1757 C1762 0.949 . S
H1758 C1764 0.950 . S
H1759 C1765 0.950 . S
H1760 C1766 0.949 . S
C1761 H1756 0.950 . S
C1761 C1763 1.327 . S
C1761 C1767 1.429 . S
C1762 C1754 1.574 . S
C1762 H1757 0.949 . S
C1762 C1768 1.368 1_545 S
C1763 C1747 1.349 . S
C1763 H1755 0.950 . S
C1763 C1761 1.327 . S
C1764 C1752 1.349 . S
C1764 H1758 0.950 . S
C1764 C1765 1.327 . S
C1765 H1759 0.950 . S
C1765 C1764 1.327 . S
C1765 C1769 1.429 . S
C1766 C1749 1.574 . S
C1766 H1760 0.949 . S
C1766 C1770 1.368 1_565 S
C1767 C1748 1.429 . S
C1767 C1761 1.429 . S
C1767 C1768 1.523 . S
C1768 C1749 1.368 . S
C1768 C1762 1.368 1_565 S
C1768 C1767 1.523 . S
C1769 C1753 1.429 . S
C1769 C1765 1.429 . S
C1769 C1770 1.523 . S
C1770 C1754 1.368 . S
C1770 C1766 1.368 1_545 S
C1770 C1769 1.523 . S
H1771 C1746 0.950 . S
H1772 C1748 0.950 1_545 S
H1773 C1749 0.949 . S
H1774 C1751 0.950 . S
H1775 C1753 0.950 1_565 S
C1057 C673 1.292 . S
C1062 C29 1.292 . S
C1087 C137 1.293 . S
C1092 C753 1.293 . S
C1117 C233 1.293 . S
C1122 C849 1.293 . S
C1147 C284 1.292 . S
C1152 C929 1.292 . S
C1177 C1025 1.293 . S
C1182 C372 1.293 . S
C1207 C557 1.293 . S
C1212 C460 1.293 . S
C1237 C909 0.836 . S
C1242 C49 0.836 . S
C1267 C117 0.836 . S
C1272 C988 0.836 . S
C1297 C196 0.836 . S
C1302 C577 0.836 . S
C1327 C636 0.836 . S
C1332 C321 0.836 . S
C1357 C733 0.836 . S
C1362 C409 0.836 . S
C1387 C812 0.836 . S
C1392 C497 0.836 . S
C1417 C20 1.689 . S
C1422 C761 1.689 . S
C1447 C145 1.689 . S
C1452 C841 1.689 . S
C1477 C937 1.689 . S
C1482 C225 1.689 . S
C1507 C293 1.689 . S
C1512 C1017 1.689 . S
C1537 C548 1.689 . S
C1542 C381 1.689 . S
C1567 C665 1.689 . S
C1572 C469 1.689 . S
C1597 C313 1.554 . S
C1602 C57 1.554 . S
C1627 C401 1.555 . S
C1632 C108 1.555 . S
C1657 C205 1.555 . S
C1662 C489 1.555 . S
C1687 C585 1.555 . S
C1692 C821 1.555 . S
C1717 C645 1.555 . S
C1722 C900 1.555 . S
C1747 C997 1.554 . S
C1752 C724 1.554 . S
