# Generated by pormake.
# Topology sod, (4)-cn, num edge types: 1
# Building blocks:
#     Node 0, Type 0, BuildingBlock: QUQFOY_clean_sbu_1, # of connection points: 4
#     Node 1, Type 0, BuildingBlock: QUQFOY_clean_sbu_1, # of connection points: 4
#     Node 2, Type 0, BuildingBlock: QUQFOY_clean_sbu_1, # of connection points: 4
#     Node 3, Type 0, BuildingBlock: QUQFOY_clean_sbu_1, # of connection points: 4
#     Node 4, Type 0, BuildingBlock: QUQFOY_clean_sbu_1, # of connection points: 4
#     Node 5, Type 0, BuildingBlock: QUQFOY_clean_sbu_1, # of connection points: 4
#     Node 6, Type 0, BuildingBlock: QUQFOY_clean_sbu_1, # of connection points: 4
#     Node 7, Type 0, BuildingBlock: QUQFOY_clean_sbu_1, # of connection points: 4
#     Node 8, Type 0, BuildingBlock: QUQFOY_clean_sbu_1, # of connection points: 4
#     Node 9, Type 0, BuildingBlock: QUQFOY_clean_sbu_1, # of connection points: 4
#     Node 10, Type 0, BuildingBlock: QUQFOY_clean_sbu_1, # of connection points: 4
#     Node 11, Type 0, BuildingBlock: QUQFOY_clean_sbu_1, # of connection points: 4
#     Edge 12, Type (0, 0), BuildingBlock: KIFKEQ_clean_linker_1, # of connection points: 2
#     Edge 13, Type (0, 0), BuildingBlock: KIFKEQ_clean_linker_1, # of connection points: 2
#     Edge 14, Type (0, 0), BuildingBlock: KIFKEQ_clean_linker_1, # of connection points: 2
#     Edge 15, Type (0, 0), BuildingBlock: KIFKEQ_clean_linker_1, # of connection points: 2
#     Edge 16, Type (0, 0), BuildingBlock: KIFKEQ_clean_linker_1, # of connection points: 2
#     Edge 17, Type (0, 0), BuildingBlock: KIFKEQ_clean_linker_1, # of connection points: 2
#     Edge 18, Type (0, 0), BuildingBlock: KIFKEQ_clean_linker_1, # of connection points: 2
#     Edge 19, Type (0, 0), BuildingBlock: KIFKEQ_clean_linker_1, # of connection points: 2
#     Edge 20, Type (0, 0), BuildingBlock: KIFKEQ_clean_linker_1, # of connection points: 2
#     Edge 21, Type (0, 0), BuildingBlock: KIFKEQ_clean_linker_1, # of connection points: 2
#     Edge 22, Type (0, 0), BuildingBlock: KIFKEQ_clean_linker_1, # of connection points: 2
#     Edge 23, Type (0, 0), BuildingBlock: KIFKEQ_clean_linker_1, # of connection points: 2
#     Edge 24, Type (0, 0), BuildingBlock: KIFKEQ_clean_linker_1, # of connection points: 2
#     Edge 25, Type (0, 0), BuildingBlock: KIFKEQ_clean_linker_1, # of connection points: 2
#     Edge 26, Type (0, 0), BuildingBlock: KIFKEQ_clean_linker_1, # of connection points: 2
#     Edge 27, Type (0, 0), BuildingBlock: KIFKEQ_clean_linker_1, # of connection points: 2
#     Edge 28, Type (0, 0), BuildingBlock: KIFKEQ_clean_linker_1, # of connection points: 2
#     Edge 29, Type (0, 0), BuildingBlock: KIFKEQ_clean_linker_1, # of connection points: 2
#     Edge 30, Type (0, 0), BuildingBlock: KIFKEQ_clean_linker_1, # of connection points: 2
#     Edge 31, Type (0, 0), BuildingBlock: KIFKEQ_clean_linker_1, # of connection points: 2
#     Edge 32, Type (0, 0), BuildingBlock: KIFKEQ_clean_linker_1, # of connection points: 2
#     Edge 33, Type (0, 0), BuildingBlock: KIFKEQ_clean_linker_1, # of connection points: 2
#     Edge 34, Type (0, 0), BuildingBlock: KIFKEQ_clean_linker_1, # of connection points: 2
#     Edge 35, Type (0, 0), BuildingBlock: KIFKEQ_clean_linker_1, # of connection points: 2
# Relax obj value: 0.195
# Max RMSD: 0.259
# Mean RMSD: 0.229
data_MOF--net-sod--node1-QUQFOY_clean_sbu_1--edge1-KIFKEQ_clean_linker_1
_symmetry_space_group_name_H-M    P1
_symmetry_Int_Tables_number       1
_symmetry_cell_setting            triclinic
loop_
_symmetry_equiv_pos_as_xyz
'x, y, z'
_cell_length_a     45.034752
_cell_length_b     45.045938
_cell_length_c     45.015651
_cell_angle_alpha  93.547899
_cell_angle_beta   89.434298
_cell_angle_gamma 97.158847
loop_
_atom_site_label
_atom_site_type_symbol
_atom_site_fract_x
_atom_site_fract_y
_atom_site_fract_z
_atom_type_partial_charge
O0 O 0.01631 0.23 0.49075 0.0
Cd1 Cd 0.0527 0.26145 0.48354 0.0
Cd2 Cd 0.02403 0.29718 0.52461 0.0
O3 O -0.00077 0.25598 0.52896 0.0
O4 O 0.08693 0.24023 0.46972 0.0
O5 O 0.08554 0.26515 0.51373 0.0
C6 C 0.09935 0.24862 0.49509 0.0
C7 C 0.02744 0.32928 0.56777 0.0
C8 C 0.99812 0.23203 0.51233 0.0
C9 C 0.03308 0.31612 0.46073 0.0
O10 O 0.02121 0.31956 0.48625 0.0
O11 O 0.04832 0.29459 0.45492 0.0
O12 O 0.0029 0.32282 0.55311 0.0
O13 O 0.05045 0.31706 0.55821 0.0
O14 O 0.74465 0.03066 0.5776 0.0
Cd15 Cd 0.7714 0.03376 0.53984 0.0
Cd16 Cd 0.80913 0.00942 0.58089 0.0
O17 O 0.77386 0.0128 0.60947 0.0
O18 O 0.74539 0.0521 0.51251 0.0
O19 O 0.75846 0.00681 0.50344 0.0
C20 C 0.7439 0.02795 0.49549 0.0
C21 C 0.82757 0.96377 0.57294 0.0
C22 C 0.74924 0.0219 0.60328 0.0
C23 C 0.83464 0.06553 0.55366 0.0
O24 O 0.83806 0.0471 0.57321 0.0
O25 O 0.81072 0.06304 0.53844 0.0
O26 O 0.8328 0.97995 0.59741 0.0
O27 O 0.81127 0.97333 0.55296 0.0
O28 O 0.05561 0.8361 0.52265 0.0
Cd29 Cd 0.02016 0.80239 0.52382 0.0
Cd30 Cd 0.05952 0.77629 0.55608 0.0
O31 O 0.08219 0.81893 0.55715 0.0
O32 O 0.98517 0.81989 0.50897 0.0
O33 O 0.98904 0.80723 0.55543 0.0
C34 C 0.97418 0.81854 0.53545 0.0
C35 C 0.05152 0.75214 0.60011 0.0
C36 C 0.07792 0.83944 0.54012 0.0
C37 C 0.04055 0.74551 0.49772 0.0
O38 O 0.06033 0.74835 0.51798 0.0
O39 O 0.021 0.76352 0.4976 0.0
O40 O 0.07768 0.75587 0.588 0.0
O41 O 0.02984 0.76291 0.58755 0.0
O42 O 0.23795 0.03901 0.56278 0.0
Cd43 Cd 0.26941 0.07661 0.56347 0.0
Cd44 Cd 0.29977 0.0392 0.5263 0.0
O45 O 0.25794 0.01497 0.52493 0.0
O46 O 0.24827 0.11151 0.57616 0.0
O47 O 0.26667 0.1044 0.53075 0.0
C48 C 0.25196 0.12004 0.5494 0.0
C49 C 0.32972 0.03525 0.48388 0.0
C50 C 0.23661 0.01724 0.54327 0.0
C51 C 0.32508 0.05958 0.58766 0.0
O52 O 0.32442 0.04144 0.56488 0.0
O53 O 0.30618 0.07824 0.59065 0.0
O54 O 0.32373 0.0134 0.50092 0.0
O55 O 0.31773 0.05945 0.4902 0.0
O56 O 0.52135 0.00237 0.23889 0.0
Cd57 Cd 0.52018 0.03917 0.26878 0.0
Cd58 Cd 0.54546 -0.00164 0.30527 0.0
O59 O 0.54513 0.97328 0.2656 0.0
O60 O 0.50336 0.06877 0.24484 0.0
O61 O 0.54956 0.07595 0.26237 0.0
C62 C 0.52865 0.08545 0.24749 0.0
C63 C 0.58872 0.00327 0.33416 0.0
C64 C 0.53335 0.9785 0.24125 0.0
C65 C 0.4877 0.01999 0.32518 0.0
O66 O 0.50586 0.00095 0.32808 0.0
O67 O 0.49098 0.03795 0.30442 0.0
O68 O 0.57053 0.97876 0.33243 0.0
O69 O 0.58252 0.02515 0.31899 0.0
O70 O 0.00682 0.55901 0.33552 0.0
Cd71 Cd -0.00014 0.52328 0.30466 0.0
Cd72 Cd 0.04116 0.55811 0.27289 0.0
O73 O 0.04481 0.5837 0.31262 0.0
O74 O 0.98054 0.48954 0.32713 0.0
O75 O 0.02558 0.49003 0.30685 0.0
C76 C 0.00438 0.47674 0.32263 0.0
C77 C 0.08514 0.55257 0.24637 0.0
C78 C 0.02749 0.5809 0.33498 0.0
C79 C 0.97823 0.54396 0.24832 0.0
O80 O 0.00402 0.55881 0.24648 0.0
O81 O 0.97203 0.52688 0.26951 0.0
O82 O 0.074 0.57758 0.24835 0.0
O83 O 0.07156 0.53046 0.26018 0.0
O84 O 0.50289 0.05622 0.83234 0.0
Cd85 Cd 0.49955 0.0208 0.8007 0.0
Cd86 Cd 0.53948 0.05714 0.77231 0.0
O87 O 0.54303 0.08077 0.81292 0.0
O88 O 0.48075 0.98563 0.82157 0.0
O89 O 0.52715 0.98936 0.80421 0.0
C90 C 0.50573 0.97452 0.81849 0.0
C91 C 0.58269 0.0459 0.74782 0.0
C92 C 0.524 0.07776 0.83384 0.0
C93 C 0.47895 0.04352 0.74483 0.0
O94 O 0.50327 0.0612 0.74577 0.0
O95 O 0.47395 0.02349 0.76354 0.0
O96 O 0.57565 0.07283 0.74988 0.0
O97 O 0.5653 0.02515 0.76018 0.0
O98 O 0.01743 0.50768 0.73624 0.0
Cd99 Cd 0.01517 0.54455 0.76539 0.0
Cd100 Cd 0.04594 0.50839 0.80256 0.0
O101 O 0.0447 0.4821 0.76331 0.0
O102 O 0.04428 0.58153 0.75944 0.0
O103 O 0.99832 0.57398 0.74123 0.0
C104 C 0.02352 0.59081 0.74415 0.0
C105 C 0.09011 0.5136 0.83009 0.0
C106 C 0.03133 0.48514 0.73917 0.0
C107 C 0.98634 0.52633 0.82362 0.0
O108 O 0.00746 0.51069 0.82749 0.0
O109 O 0.98611 0.54178 0.80099 0.0
O110 O 0.07255 0.48872 0.82816 0.0
O111 O 0.08286 0.53573 0.81595 0.0
O112 O 0.33949 0.54805 0.06734 0.0
Cd113 Cd 0.30875 0.51141 0.0751 0.0
Cd114 Cd 0.27389 0.53894 0.03431 0.0
O115 O 0.315 0.56434 0.03068 0.0
O116 O 0.33219 0.48299 0.0938 0.0
O117 O 0.31065 0.4734 0.04968 0.0
C118 C 0.32708 0.46522 0.07034 0.0
C119 C 0.24591 0.53163 0.9904 0.0
C120 C 0.33822 0.56588 0.04674 0.0
C121 C 0.25103 0.53068 0.09775 0.0
O122 O 0.24861 0.54198 0.0728 0.0
O123 O 0.27295 0.51652 0.10284 0.0
O124 O 0.25044 0.5574 0.00469 0.0
O125 O 0.25735 0.50959 0.00096 0.0
O126 O 0.55353 0.33064 0.02762 0.0
Cd127 Cd 0.5169 0.29794 0.02602 0.0
Cd128 Cd 0.55651 0.26867 0.05801 0.0
O129 O 0.58277 0.30912 0.05645 0.0
O130 O 0.48532 0.31871 0.00864 0.0
O131 O 0.48262 0.3031 0.05427 0.0
C132 C 0.47116 0.31669 0.03356 0.0
C133 C 0.55088 0.24573 0.10292 0.0
C134 C 0.5778 0.33125 0.04192 0.0
C135 C 0.53479 0.23947 -0.00061 0.0
O136 O 0.55337 0.24005 0.02052 0.0
O137 O 0.51744 0.25959 -0.00153 0.0
O138 O 0.57583 0.24742 0.08851 0.0
O139 O 0.52906 0.2578 0.09216 0.0
O140 O 0.73543 0.53159 0.05996 0.0
Cd141 Cd 0.76611 0.56942 0.06552 0.0
Cd142 Cd 0.8013 0.53502 0.02825 0.0
O143 O 0.76205 0.50617 0.02844 0.0
O144 O 0.74256 0.60219 0.07923 0.0
O145 O 0.7662 0.601 0.03589 0.0
C146 C 0.74896 0.61406 0.05423 0.0
C147 C 0.82973 0.53325 0.98452 0.0
C148 C 0.73814 0.50836 0.04317 0.0
C149 C 0.82357 0.55587 0.09075 0.0
O150 O 0.82711 0.54145 0.06609 0.0
O151 O 0.80062 0.56933 0.09534 0.0
O152 O 0.82651 0.51144 0.00185 0.0
O153 O 0.81619 0.55632 0.99164 0.0
O154 O 0.52195 0.73 0.9882 0.0
Cd155 Cd 0.55818 0.76149 0.98065 0.0
Cd156 Cd 0.52833 0.79699 0.02122 0.0
O157 O 0.50367 0.75579 0.02583 0.0
O158 O 0.59119 0.73874 0.96647 0.0
O159 O 0.59223 0.76535 0.00961 0.0
C160 C 0.60474 0.74748 0.9912 0.0
C161 C 0.5314 0.82932 0.06419 0.0
C162 C 0.50329 0.7318 0.00939 0.0
C163 C 0.53791 0.8154 0.95705 0.0
O164 O 0.52579 0.81881 0.98245 0.0
O165 O 0.55361 0.79416 0.95152 0.0
O166 O 0.50701 0.82293 0.04926 0.0
O167 O 0.55446 0.817 0.05493 0.0
H168 H -0.00039 0.36254 0.46553 0.0
H169 H 0.05689 0.31829 0.40426 0.0
H170 H 0.99251 0.39813 0.42878 0.0
H171 H 0.04932 0.35404 0.36705 0.0
H172 H 0.05533 0.44986 0.32805 0.0
H173 H 0.06205 0.40846 0.35906 0.0
H174 H 0.96789 0.39934 0.38099 0.0
H175 H 0.9613 0.44084 0.35066 0.0
C176 C 0.0106 0.36027 0.44414 0.0
C177 C 0.02881 0.33749 0.43787 0.0
C178 C 0.00631 0.38059 0.42295 0.0
C179 C 0.02011 0.37873 0.39487 0.0
C180 C 0.03848 0.35608 0.38853 0.0
C181 C 0.04271 0.33557 0.4098 0.0
C182 C 0.03601 0.43865 0.33912 0.0
C183 C 0.00787 0.44887 0.33725 0.0
C184 C 0.03984 0.41491 0.35681 0.0
C185 C 0.01559 0.40098 0.37286 0.0
C186 C 0.98715 0.41006 0.36944 0.0
C187 C 0.98335 0.43376 0.35192 0.0
H188 H 0.73376 0.97934 0.45539 0.0
H189 H 0.71133 0.06909 0.47443 0.0
H190 H 0.69985 0.97329 0.41275 0.0
H191 H 0.67712 0.06283 0.43256 0.0
H192 H 0.60574 0.96145 0.36955 0.0
H193 H 0.64634 0.96746 0.40542 0.0
H194 H 0.67263 0.05767 0.37919 0.0
H195 H 0.63135 0.05189 0.34369 0.0
C196 C 0.72175 0.9978 0.45039 0.0
C197 C 0.72511 0.0246 0.4684 0.0
C198 C 0.70221 0.99431 0.42606 0.0
C199 C 0.68566 0.01754 0.41927 0.0
C200 C 0.68978 0.04462 0.43683 0.0
C201 C 0.70926 0.04811 0.46105 0.0
C202 C 0.62031 0.98251 0.37121 0.0
C203 C 0.61513 0.0063 0.35394 0.0
C204 C 0.64379 0.98586 0.39166 0.0
C205 C 0.66272 0.01308 0.3953 0.0
C206 C 0.65818 0.03655 0.37726 0.0
C207 C 0.63462 0.0332 0.35681 0.0
H208 H 0.07445 0.62466 0.34663 0.0
H209 H 0.98796 0.58875 0.38027 0.0
H210 H 0.07861 0.66377 0.38706 0.0
H211 H 0.99219 0.6279 0.42046 0.0
H212 H 0.99494 0.7256 0.45943 0.0
H213 H 0.99291 0.68477 0.42116 0.0
H214 H 0.08199 0.66869 0.44462 0.0
H215 H 0.08411 0.70963 0.48328 0.0
C216 C 0.05641 0.62503 0.36269 0.0
C217 C 0.03081 0.60371 0.36017 0.0
C218 C 0.0589 0.64729 0.38589 0.0
C219 C 0.03566 0.64886 0.40672 0.0
C220 C 0.01029 0.62731 0.40449 0.0
C221 C 0.00796 0.60485 0.38156 0.0
C222 C 0.01414 0.71342 0.45648 0.0
C223 C 0.0397 0.72085 0.47439 0.0
C224 C 0.01287 0.68993 0.43469 0.0
C225 C 0.03723 0.67356 0.43008 0.0
C226 C 0.06295 0.68109 0.44771 0.0
C227 C 0.06409 0.7044 0.46986 0.0
H228 H 0.37244 0.99806 0.47855 0.0
H229 H 0.33554 0.067 0.43359 0.0
H230 H 0.40943 0.99461 0.4396 0.0
H231 H 0.37153 0.06225 0.39308 0.0
H232 H 0.46047 0.06904 0.34228 0.0
H233 H 0.42136 0.0727 0.37956 0.0
H234 H 0.41816 0.97777 0.39169 0.0
H235 H 0.45871 0.97486 0.35598 0.0
C236 C 0.37192 0.01213 0.45994 0.0
C237 C 0.35107 0.03276 0.45905 0.0
C238 C 0.39306 0.00999 0.43735 0.0
C239 C 0.39351 0.02792 0.41281 0.0
C240 C 0.37228 0.04836 0.41177 0.0
C241 C 0.35148 0.05098 0.43484 0.0
C242 C 0.45131 0.049 0.35298 0.0
C243 C 0.46279 0.02173 0.3465 0.0
C244 C 0.42868 0.05101 0.37421 0.0
C245 C 0.41653 0.0256 0.38898 0.0
C246 C 0.42743 0.99807 0.38155 0.0
C247 C 0.45056 0.99627 0.36089 0.0
H248 H 0.98231 0.6277 0.7327 0.0
H249 H 0.07573 0.61734 0.72121 0.0
H250 H 0.98884 0.67154 0.70322 0.0
H251 H 0.08209 0.65976 0.6898 0.0
H252 H 0.09181 0.74428 0.64273 0.0
H253 H 0.08513 0.71003 0.68272 0.0
H254 H 0.99361 0.68297 0.65451 0.0
H255 H -5e-05 0.7188 0.61611 0.0
C256 C 0.0043 0.63492 0.72381 0.0
C257 C 0.0285 0.61914 0.72906 0.0
C258 C 0.00803 0.6599 0.70663 0.0
C259 C 0.03589 0.66916 0.69351 0.0
C260 C 0.06036 0.65381 0.69975 0.0
C261 C 0.05676 0.6293 0.71764 0.0
C262 C 0.07013 0.73135 0.64556 0.0
C263 C 0.04641 0.73409 0.62634 0.0
C264 C 0.06634 0.71144 0.6683 0.0
C265 C 0.03893 0.69319 0.67184 0.0
C266 C 0.01492 0.69683 0.65306 0.0
C267 C 0.01854 0.71731 0.63082 0.0
H268 H 0.47519 0.09095 0.71055 0.0
H269 H 0.43123 0.00278 0.72783 0.0
H270 H 0.43741 0.09565 0.67303 0.0
H271 H 0.39374 0.00751 0.69018 0.0
H272 H 0.3587 0.01437 0.59488 0.0
H273 H 0.39558 0.01115 0.63336 0.0
H274 H 0.37984 0.09806 0.67164 0.0
H275 H 0.34249 0.10133 0.63312 0.0
C276 C 0.45752 0.07258 0.70631 0.0
C277 C 0.45622 0.04645 0.72208 0.0
C278 C 0.43584 0.07539 0.68501 0.0
C279 C 0.41276 0.05194 0.67878 0.0
C280 C 0.41146 0.02583 0.69448 0.0
C281 C 0.43285 0.02318 0.71607 0.0
C282 C 0.36307 0.03286 0.61144 0.0
C283 C 0.34766 0.05813 0.61097 0.0
C284 C 0.38407 0.0309 0.63355 0.0
C285 C 0.39044 0.05431 0.65544 0.0
C286 C 0.37537 0.07977 0.65487 0.0
C287 C 0.35396 0.08157 0.63295 0.0
H288 H 0.07616 0.35077 0.60259 0.0
H289 H 0.98176 0.35652 0.59242 0.0
H290 H 0.07813 0.38854 0.64432 0.0
H291 H 0.98366 0.39362 0.63404 0.0
H292 H 0.00448 0.48374 0.68482 0.0
H293 H 0.00485 0.44578 0.644 0.0
H294 H 0.0596 0.39631 0.69601 0.0
H295 H 0.05967 0.43458 0.73686 0.0
C296 C 0.05584 0.35989 0.60938 0.0
C297 C 0.02886 0.35077 0.59409 0.0
C298 C 0.05693 0.38143 0.63331 0.0
C299 C 0.0311 0.39427 0.64228 0.0
C300 C 0.00407 0.38461 0.62733 0.0
C301 C 0.00297 0.36316 0.60356 0.0
C302 C 0.01665 0.46482 0.68761 0.0
C303 C 0.03191 0.46217 0.71421 0.0
C304 C 0.01674 0.44298 0.66423 0.0
C305 C 0.0321 0.41794 0.66685 0.0
C306 C 0.04776 0.41546 0.69324 0.0
C307 C 0.04762 0.43731 0.7167 0.0
H308 H 0.59111 0.99351 0.71699 0.0
H309 H 0.63363 0.0834 0.73907 0.0
H310 H 0.63264 0.98487 0.68304 0.0
H311 H 0.67544 0.07431 0.70598 0.0
H312 H 0.75614 0.02754 0.66363 0.0
H313 H 0.71685 0.03061 0.70143 0.0
H314 H 0.64986 0.0195 0.63249 0.0
H315 H 0.68903 0.01736 0.59456 0.0
C316 C 0.60962 0.01112 0.71507 0.0
C317 C 0.6092 0.03914 0.7305 0.0
C318 C 0.6332 0.00621 0.69565 0.0
C319 C 0.65703 0.02896 0.6921 0.0
C320 C 0.65731 0.05644 0.70858 0.0
C321 C 0.63341 0.06162 0.72736 0.0
C322 C 0.73301 0.02559 0.65658 0.0
C323 C 0.7256 0.02239 0.62619 0.0
C324 C 0.71065 0.02734 0.67816 0.0
C325 C 0.68053 0.02507 0.66969 0.0
C326 C 0.673 0.02102 0.63943 0.0
C327 C 0.69538 0.02003 0.61782 0.0
H328 H 0.43742 0.32007 0.08449 0.0
H329 H 0.44337 0.34728 0.99403 0.0
H330 H 0.39647 0.35024 0.09412 0.0
H331 H 0.40334 0.37793 0.00382 0.0
H332 H 0.32271 0.42349 0.02307 0.0
H333 H 0.35173 0.38139 0.01467 0.0
H334 H 0.39395 0.40308 0.10042 0.0
H335 H 0.36444 0.44432 0.10911 0.0
C336 C 0.42977 0.33218 0.06658 0.0
C337 C 0.44387 0.33154 0.03861 0.0
C338 C 0.40642 0.3496 0.07213 0.0
C339 C 0.39676 0.36677 0.04983 0.0
C340 C 0.40988 0.36478 0.02144 0.0
C341 C 0.43308 0.34735 0.01589 0.0
C342 C 0.33781 0.4189 0.04032 0.0
C343 C 0.34152 0.43746 0.0666 0.0
C344 C 0.35455 0.39487 0.03546 0.0
C345 C 0.37543 0.38899 0.05674 0.0
C346 C 0.37789 0.40665 0.08366 0.0
C347 C 0.3611 0.43054 0.08855 0.0
H348 H 0.38568 0.58559 0.08346 0.0
H349 H 0.34887 0.59777 0.99736 0.0
H350 H 0.42727 0.62443 0.07444 0.0
H351 H 0.39048 0.6363 0.98841 0.0
H352 H 0.48607 0.68226 0.9723 0.0
H353 H 0.44746 0.64057 0.98143 0.0
H354 H 0.43128 0.68115 0.06853 0.0
H355 H 0.4696 0.72287 0.05947 0.0
C356 C 0.38654 0.5964 0.06258 0.0
C357 C 0.36392 0.5887 0.04118 0.0
C358 C 0.41027 0.61867 0.05749 0.0
C359 C 0.41205 0.63328 0.03072 0.0
C360 C 0.38977 0.62518 0.00912 0.0
C361 C 0.36586 0.60327 0.01436 0.0
C362 C 0.47437 0.68221 0.99344 0.0
C363 C 0.48077 0.70594 0.0151 0.0
C364 C 0.45224 0.65842 -0.0014 0.0
C365 C 0.43644 0.65769 0.02568 0.0
C366 C 0.4433 0.68104 0.04757 0.0
C367 C 0.4651 0.70501 0.04227 0.0
H368 H 0.57125 0.38703 0.02387 0.0
H369 H 0.63617 0.33537 0.05894 0.0
H370 H 0.6095 0.43064 0.02315 0.0
H371 H 0.67418 0.37883 0.05803 0.0
H372 H 0.74053 0.4517 0.0189 0.0
H373 H 0.70106 0.4094 0.01775 0.0
H374 H 0.64094 0.46541 0.06199 0.0
H375 H 0.68049 0.50794 0.06332 0.0
C376 C 0.59364 0.38496 0.03137 0.0
C377 C 0.6007 0.35776 0.04146 0.0
C378 C 0.61543 0.40994 0.03108 0.0
C379 C 0.64474 0.40799 0.04044 0.0
C380 C 0.65181 0.38081 0.05041 0.0
C381 C 0.62998 0.356 0.05108 0.0
C382 C 0.71887 0.45511 0.02826 0.0
C383 C 0.71369 0.48316 0.04134 0.0
C384 C 0.69635 0.43084 0.02771 0.0
C385 C 0.66806 0.43417 0.0399 0.0
C386 C 0.66255 0.46234 0.05231 0.0
C387 C 0.68522 0.48659 0.0532 0.0
H388 H 0.75502 0.64303 0.00228 0.0
H389 H 0.71054 0.64444 0.08774 0.0
H390 H 0.72612 0.68178 0.98672 0.0
H391 H 0.68119 0.68229 0.072 0.0
H392 H 0.63448 0.70819 0.95764 0.0
H393 H 0.67477 0.68162 0.97323 0.0
H394 H 0.67852 0.73236 0.05808 0.0
H395 H 0.63738 0.75847 0.04269 0.0
C396 C 0.73938 0.65187 0.01787 0.0
C397 C 0.73484 0.64041 0.04611 0.0
C398 C 0.72269 0.67395 0.00891 0.0
C399 C 0.70107 0.68498 0.02797 0.0
C400 C 0.69782 0.67464 0.05681 0.0
C401 C 0.71454 0.65269 0.06577 0.0
C402 C 0.64418 0.71407 0.97947 0.0
C403 C 0.63243 0.73517 -0.00092 0.0
C404 C 0.66752 0.69895 0.98835 0.0
C405 C 0.67979 0.70462 0.01704 0.0
C406 C 0.66924 0.72707 0.03601 0.0
C407 C 0.64577 0.74216 0.02714 0.0
H408 H 0.50214 0.85995 0.96074 0.0
H409 H 0.56322 0.81876 0.90123 0.0
H410 H 0.49439 0.89507 0.92375 0.0
H411 H 0.55507 0.85412 0.86376 0.0
H412 H 0.55801 0.95035 0.82561 0.0
H413 H 0.56573 0.90918 0.85654 0.0
H414 H 0.47089 0.89506 0.87499 0.0
H415 H 0.46325 0.9363 0.84468 0.0
C416 C 0.51385 0.85826 0.93969 0.0
C417 C 0.5333 0.83647 0.93399 0.0
C418 C 0.5092 0.8783 0.91835 0.0
C419 C 0.52388 0.87719 0.8907 0.0
C420 C 0.5435 0.85555 0.88491 0.0
C421 C 0.54807 0.83527 0.90632 0.0
C422 C 0.53878 0.9381 0.83588 0.0
C423 C 0.51008 0.94684 0.83306 0.0
C424 C 0.54319 0.91448 0.85352 0.0
C425 C 0.51898 0.89922 0.86859 0.0
C426 C 0.49009 0.90683 0.8642 0.0
C427 C 0.4857 0.93038 0.8467 0.0
H428 H 0.2397 0.57316 0.9505 0.0
H429 H 0.20995 0.48157 0.96965 0.0
H430 H 0.20615 0.56861 0.90802 0.0
H431 H 0.17462 0.47738 0.92856 0.0
H432 H 0.12323 0.46983 0.84369 0.0
H433 H 0.16465 0.47366 0.87859 0.0
H434 H 0.15672 0.56789 0.89656 0.0
H435 H 0.11684 0.5642 0.85999 0.0
C436 C 0.22584 0.55202 0.94557 0.0
C437 C 0.2273 0.52773 0.96333 0.0
C438 C 0.20633 0.54945 0.92136 0.0
C439 C 0.18714 0.52275 0.91483 0.0
C440 C 0.18925 0.49819 0.93236 0.0
C441 C 0.2094 0.50056 0.95611 0.0
C442 C 0.13076 0.49143 0.85484 0.0
C443 C 0.11687 0.51672 0.84922 0.0
C444 C 0.15433 0.49362 0.87512 0.0
C445 C 0.16405 0.52101 0.89092 0.0
C446 C 0.15044 0.54648 0.88461 0.0
C447 C 0.12738 0.54441 0.86373 0.0
H448 H 0.48083 0.08703 0.8753 0.0
H449 H 0.57159 0.11892 0.8502 0.0
H450 H 0.48345 0.12557 0.9162 0.0
H451 H 0.57413 0.15724 0.89118 0.0
H452 H 0.57537 0.20001 0.9873 0.0
H453 H 0.57278 0.15971 0.94819 0.0
H454 H 0.48808 0.18314 0.91921 0.0
H455 H 0.49061 0.22358 0.95818 0.0
C456 C 0.50139 0.10209 0.87864 0.0
C457 C 0.52598 0.1 0.85949 0.0
C458 C 0.50279 0.12422 0.90191 0.0
C459 C 0.52896 0.14435 0.90673 0.0
C460 C 0.55377 0.14185 0.88803 0.0
C461 C 0.55224 0.12001 0.86452 0.0
C462 C 0.55617 0.19656 0.97262 0.0
C463 C 0.53322 0.21502 0.97578 0.0
C464 C 0.55477 0.17358 0.9502 0.0
C465 C 0.53022 0.16836 0.93079 0.0
C466 C 0.50712 0.18657 0.9341 0.0
C467 C 0.5087 0.20981 0.95626 0.0
H468 H 0.98119 0.49906 0.87633 0.0
H469 H 0.93648 0.55535 0.82161 0.0
H470 H 0.94188 0.50104 0.91354 0.0
H471 H 0.89671 0.55673 0.85866 0.0
H472 H 0.85075 0.57877 0.94909 0.0
H473 H 0.88773 0.57701 0.90903 0.0
H474 H 0.8899 0.48277 0.92049 0.0
H475 H 0.85375 0.4847 0.96074 0.0
C476 C 0.96286 0.51167 0.87211 0.0
C477 C 0.962 0.52699 0.84594 0.0
C478 C 0.9402 0.51268 0.89339 0.0
C479 C 0.91604 0.52892 0.889 0.0
C480 C 0.91515 0.54426 0.86284 0.0
C481 C 0.93787 0.5433 0.84154 0.0
C482 C 0.85895 0.55765 0.9428 0.0
C483 C 0.84956 0.53196 0.95823 0.0
C484 C 0.88006 0.55661 0.91982 0.0
C485 C 0.89205 0.52982 0.91182 0.0
C486 C 0.88166 0.50391 0.92654 0.0
C487 C 0.86077 0.50499 0.94951 0.0
H488 H 0.57983 0.11089 0.22175 0.0
H489 H 0.48789 0.12371 0.23958 0.0
H490 H 0.58513 0.15347 0.19055 0.0
H491 H 0.49351 0.16777 0.21041 0.0
H492 H 0.49974 0.21457 0.1229 0.0
H493 H 0.49514 0.17923 0.16177 0.0
H494 H 0.58886 0.20363 0.18329 0.0
H495 H 0.59362 0.23728 0.14274 0.0
C496 C 0.56103 0.12345 0.21964 0.0
C497 C 0.5334 0.11393 0.23272 0.0
C498 C 0.56403 0.14806 0.20187 0.0
C499 C 0.53962 0.16414 0.19747 0.0
C500 C 0.51256 0.15556 0.21235 0.0
C501 C 0.50936 0.13046 0.22936 0.0
C502 C 0.51919 0.21263 0.13627 0.0
C503 C 0.54706 0.22841 0.12971 0.0
C504 C 0.51661 0.19244 0.15878 0.0
C505 C 0.54171 0.18813 0.17577 0.0
C506 C 0.56919 0.20553 0.17026 0.0
C507 C 0.57191 0.2251 0.14721 0.0
H508 H 0.91826 0.52423 0.25014 0.0
H509 H 0.98635 0.57042 0.19542 0.0
H510 H 0.88064 0.52899 0.21252 0.0
H511 H 0.94873 0.5751 0.15798 0.0
H512 H 0.87989 0.54031 0.08443 0.0
H513 H 0.91692 0.5386 0.12309 0.0
H514 H 0.85603 0.57014 0.18905 0.0
H515 H 0.81869 0.57195 0.15022 0.0
C516 C 0.9252 0.5354 0.23013 0.0
C517 C 0.95532 0.54685 0.22571 0.0
C518 C 0.90363 0.53831 0.20874 0.0
C519 C 0.91182 0.55241 0.18239 0.0
C520 C 0.94187 0.56393 0.17801 0.0
C521 C 0.96336 0.56132 0.1995 0.0
C522 C 0.87437 0.54702 0.10714 0.0
C523 C 0.84633 0.55625 0.11427 0.0
C524 C 0.89566 0.54617 0.12924 0.0
C525 C 0.88932 0.55424 0.15902 0.0
C526 C 0.86137 0.56361 0.16624 0.0
C527 C 0.84012 0.56482 0.14402 0.0
H528 H 0.57906 0.84834 0.1012 0.0
H529 H 0.48617 0.85848 0.08704 0.0
H530 H 0.58044 0.88476 0.14403 0.0
H531 H 0.48748 0.89428 0.12975 0.0
H532 H 0.55895 0.92632 0.23749 0.0
H533 H 0.55937 0.8902 0.19487 0.0
H534 H 0.51006 0.9454 0.14349 0.0
H535 H 0.5092 0.98131 0.18611 0.0
C536 C 0.55895 0.85821 0.10728 0.0
C537 C 0.53255 0.85059 0.09067 0.0
C538 C 0.5597 0.87895 0.13185 0.0
C539 C 0.53411 0.89253 0.14014 0.0
C540 C 0.50771 0.88463 0.12365 0.0
C541 C 0.50693 0.86392 0.09925 0.0
C542 C 0.54817 0.93078 0.21711 0.0
C543 C 0.53388 0.95667 0.2153 0.0
C544 C 0.54862 0.91016 0.19263 0.0
C545 C 0.53469 0.9149 0.16585 0.0
C546 C 0.52064 0.9409 0.16396 0.0
C547 C 0.52026 0.96155 0.18837 0.0
H548 H 0.24645 0.50657 0.15237 0.0
H549 H 0.20284 0.56174 0.09547 0.0
H550 H 0.20783 0.51178 0.19019 0.0
H551 H 0.16428 0.56654 0.133 0.0
H552 H 0.11852 0.59611 0.21707 0.0
H553 H 0.15978 0.59073 0.1828 0.0
H554 H 0.15331 0.49642 0.19809 0.0
H555 H 0.11198 0.50186 0.23295 0.0
C556 C 0.22868 0.5198 0.14791 0.0
C557 C 0.22782 0.53383 0.1209 0.0
C558 C 0.20648 0.52261 0.16952 0.0
C559 C 0.18311 0.53968 0.16464 0.0
C560 C 0.18226 0.55363 0.13763 0.0
C561 C 0.20431 0.55073 0.11603 0.0
C562 C 0.12597 0.57423 0.21336 0.0
C563 C 0.11181 0.54935 0.22758 0.0
C564 C 0.14954 0.57114 0.19356 0.0
C565 C 0.15956 0.54309 0.18745 0.0
C566 C 0.14615 0.51836 0.20245 0.0
C567 C 0.12244 0.52145 0.22232 0.0
H568 H 0.8459 0.94016 0.51985 0.0
H569 H 0.84174 0.92576 0.61371 0.0
H570 H 0.87697 0.90003 0.51181 0.0
H571 H 0.8709 0.88393 0.60566 0.0
H572 H 0.95982 0.84584 0.58825 0.0
H573 H 0.9196 0.87646 0.59757 0.0
H574 H 0.88529 0.85096 0.50889 0.0
H575 H 0.92709 0.82227 0.49911 0.0
C576 C 0.8509 0.92769 0.53862 0.0
C577 C 0.84177 0.9362 0.56741 0.0
C578 C 0.86862 0.90445 0.53406 0.0
C579 C 0.87695 0.88867 0.55814 0.0
C580 C 0.86586 0.89601 0.58667 0.0
C581 C 0.84886 0.91981 0.5913 0.0
C582 C 0.94334 0.84645 0.57099 0.0
C583 C 0.94667 0.83202 0.5429 0.0
C584 C 0.92006 0.86391 0.57632 0.0
C585 C 0.89913 0.86671 0.55386 0.0
C586 C 0.90138 0.85026 0.52646 0.0
C587 C 0.92515 0.83351 0.5209 0.0
H588 H 0.96632 0.22319 0.56351 0.0
H589 H 0.97823 0.18337 0.47502 0.0
H590 H 0.92758 0.18216 0.57348 0.0
H591 H 0.93912 0.14235 0.48507 0.0
H592 H 0.84151 0.09947 0.50527 0.0
H593 H 0.88222 0.13863 0.49511 0.0
H594 H 0.92377 0.1253 0.57844 0.0
H595 H 0.88319 0.08589 0.58863 0.0
C596 C 0.9607 0.20566 0.54619 0.0
C597 C 0.97528 0.20656 0.51842 0.0
C598 C 0.93864 0.1821 0.55199 0.0
C599 C 0.93038 0.15916 0.53004 0.0
C600 C 0.94498 0.15991 0.5023 0.0
C601 C 0.96742 0.18328 0.49662 0.0
C602 C 0.85929 0.10489 0.52147 0.0
C603 C 0.85907 0.08963 0.54782 0.0
C604 C 0.88269 0.12714 0.51551 0.0
C605 C 0.90612 0.13489 0.53596 0.0
C606 C 0.90587 0.11981 0.56238 0.0
C607 C 0.88269 0.09723 0.56815 0.0
H608 H 0.08481 0.88172 0.49867 0.0
H609 H 0.1188 0.86018 0.58316 0.0
H610 H 0.12102 0.92702 0.49936 0.0
H611 H 0.15468 0.90551 0.58384 0.0
H612 H 0.19518 0.00444 0.58699 0.0
H613 H 0.1545 0.96295 0.5863 0.0
H614 H 0.17869 0.93559 0.49662 0.0
H615 H 0.21944 0.97674 0.49729 0.0
C616 C 0.09984 0.88675 0.51745 0.0
C617 C 0.09908 0.86732 0.54078 0.0
C618 C 0.12057 0.91259 0.51778 0.0
C619 C 0.14052 0.91971 0.54169 0.0
C620 C 0.13932 0.90066 0.5653 0.0
C621 C 0.11894 0.87462 0.56477 0.0
C622 C 0.19162 0.98974 0.56705 0.0
C623 C 0.21061 0.99371 0.54227 0.0
C624 C 0.16846 0.96597 0.56671 0.0
C625 C 0.16357 0.94612 0.54143 0.0
C626 C 0.18187 0.95072 0.51631 0.0
C627 C 0.20529 0.97415 0.51679 0.0
H628 H 0.11732 0.23726 0.55029 0.0
H629 H 0.14425 0.23421 0.45806 0.0
H630 H 0.15887 0.21078 0.56264 0.0
H631 H 0.18738 0.20976 0.47047 0.0
H632 H 0.23072 0.12748 0.4944 0.0
H633 H 0.19797 0.16345 0.48117 0.0
H634 H 0.20819 0.2067 0.56974 0.0
H635 H 0.23911 0.16901 0.58334 0.0
C636 C 0.13277 0.23171 0.53281 0.0
C637 C 0.12744 0.23746 0.50321 0.0
C638 C 0.15684 0.21663 0.53986 0.0
C639 C 0.17662 0.20761 0.51754 0.0
C640 C 0.17227 0.21538 0.48819 0.0
C641 C 0.1477 0.2297 0.48105 0.0
C642 C 0.22632 0.14501 0.51083 0.0
C643 C 0.23717 0.14532 0.53994 0.0
C644 C 0.20759 0.16588 0.50325 0.0
C645 C 0.19987 0.18805 0.52445 0.0
C646 C 0.2127 0.18952 0.55301 0.0
C647 C 0.23074 0.16812 0.56078 0.0
loop_
_geom_bond_atom_site_label_1
_geom_bond_atom_site_label_2
_geom_bond_distance
_geom_bond_site_symmetry_2
_ccdc_geom_bond_type
O0 Cd1 2.223 . S
O0 C8 1.315 1_455 S
Cd1 O0 2.223 . S
Cd1 O4 2.297 . S
Cd1 O5 2.439 . S
Cd1 O11 2.240 . S
Cd2 O3 2.241 . S
Cd2 O10 2.223 . S
Cd2 O12 2.297 1_655 S
Cd2 O13 2.439 1_655 S
O3 Cd2 2.241 . S
O3 C8 1.280 . S
O4 Cd1 2.297 . S
O4 C6 1.247 . S
O5 Cd1 2.439 . S
O5 C6 1.208 . S
C6 O4 1.247 . S
C6 O5 1.208 . S
C7 O12 1.247 . S
C7 O13 1.208 . S
C8 O0 1.315 1_655 S
C8 O3 1.280 . S
C9 O10 1.315 1_455 S
C9 O11 1.279 . S
O10 Cd2 2.223 . S
O10 C9 1.315 1_655 S
O11 Cd1 2.240 . S
O11 C9 1.279 . S
O12 Cd2 2.297 1_455 S
O12 C7 1.247 . S
O13 Cd2 2.439 1_455 S
O13 C7 1.208 . S
O14 Cd15 2.223 . S
O14 C22 1.315 . S
Cd15 O14 2.223 . S
Cd15 O18 2.297 . S
Cd15 O19 2.439 . S
Cd15 O25 2.240 . S
Cd16 O17 2.240 . S
Cd16 O24 2.223 . S
Cd16 O26 2.297 1_545 S
Cd16 O27 2.439 1_545 S
O17 Cd16 2.240 . S
O17 C22 1.279 . S
O18 Cd15 2.297 . S
O18 C20 1.247 . S
O19 Cd15 2.439 . S
O19 C20 1.208 . S
C20 O18 1.247 . S
C20 O19 1.208 . S
C21 O26 1.247 . S
C21 O27 1.208 . S
C22 O14 1.315 . S
C22 O17 1.279 . S
C23 O24 1.315 . S
C23 O25 1.279 . S
O24 Cd16 2.223 . S
O24 C23 1.315 . S
O25 Cd15 2.240 . S
O25 C23 1.279 . S
O26 Cd16 2.297 1_565 S
O26 C21 1.247 . S
O27 Cd16 2.439 1_565 S
O27 C21 1.208 . S
O28 Cd29 2.223 . S
O28 C36 1.315 . S
Cd29 O28 2.223 . S
Cd29 O32 2.297 1_455 S
Cd29 O33 2.439 1_455 S
Cd29 O39 2.240 . S
Cd30 O31 2.240 . S
Cd30 O38 2.223 . S
Cd30 O40 2.297 . S
Cd30 O41 2.439 . S
O31 Cd30 2.240 . S
O31 C36 1.279 . S
O32 Cd29 2.297 1_655 S
O32 C34 1.247 . S
O33 Cd29 2.439 1_655 S
O33 C34 1.208 . S
C34 O32 1.247 . S
C34 O33 1.208 . S
C35 O40 1.247 . S
C35 O41 1.208 . S
C36 O28 1.315 . S
C36 O31 1.279 . S
C37 O38 1.315 . S
C37 O39 1.279 . S
O38 Cd30 2.223 . S
O38 C37 1.315 . S
O39 Cd29 2.240 . S
O39 C37 1.279 . S
O40 Cd30 2.297 . S
O40 C35 1.247 . S
O41 Cd30 2.439 . S
O41 C35 1.208 . S
O42 Cd43 2.223 . S
O42 C50 1.315 1_545 S
Cd43 O42 2.223 . S
Cd43 O46 2.297 . S
Cd43 O47 2.439 . S
Cd43 O53 2.240 . S
Cd44 O45 2.245 . S
Cd44 O52 2.211 1_545 S
Cd44 O54 2.303 . S
Cd44 O55 2.470 . S
O45 Cd44 2.245 . S
O45 C50 1.279 1_545 S
O46 Cd43 2.297 . S
O46 C48 1.247 . S
O47 Cd43 2.439 . S
O47 C48 1.208 . S
C48 O46 1.247 . S
C48 O47 1.208 . S
C49 O54 1.247 . S
C49 O55 1.208 . S
C50 O42 1.315 1_565 S
C50 O45 1.279 1_565 S
C51 O52 1.315 1_545 S
C51 O53 1.279 . S
O52 Cd44 2.211 1_565 S
O52 C51 1.315 1_565 S
O53 Cd43 2.240 . S
O53 C51 1.279 . S
O54 Cd44 2.303 . S
O54 C49 1.247 . S
O55 Cd44 2.470 . S
O55 C49 1.208 . S
O56 Cd57 2.223 . S
O56 C64 1.315 . S
Cd57 O56 2.223 . S
Cd57 O60 2.297 . S
Cd57 O61 2.439 . S
Cd57 O67 2.240 . S
Cd58 O59 2.240 . S
Cd58 O66 2.223 . S
Cd58 O68 2.297 . S
Cd58 O69 2.439 . S
O59 Cd58 2.240 . S
O59 C64 1.279 . S
O60 Cd57 2.297 . S
O60 C62 1.247 . S
O61 Cd57 2.439 . S
O61 C62 1.208 . S
C62 O60 1.247 . S
C62 O61 1.208 . S
C63 O68 1.247 . S
C63 O69 1.208 . S
C64 O56 1.315 . S
C64 O59 1.279 . S
C65 O66 1.315 . S
C65 O67 1.279 . S
O66 Cd58 2.223 . S
O66 C65 1.315 . S
O67 Cd57 2.240 . S
O67 C65 1.279 . S
O68 Cd58 2.297 . S
O68 C63 1.247 . S
O69 Cd58 2.439 . S
O69 C63 1.208 . S
O70 Cd71 2.232 . S
O70 C78 1.315 1_655 S
Cd71 O70 2.232 . S
Cd71 O74 2.292 1_655 S
Cd71 O75 2.413 1_655 S
Cd71 O81 2.238 1_655 S
Cd72 O73 2.240 . S
Cd72 O80 2.223 . S
Cd72 O82 2.297 . S
Cd72 O83 2.439 . S
O73 Cd72 2.240 . S
O73 C78 1.279 . S
O74 Cd71 2.292 1_455 S
O74 C76 1.247 . S
O75 Cd71 2.413 1_455 S
O75 C76 1.208 . S
C76 O74 1.247 . S
C76 O75 1.208 . S
C77 O82 1.247 . S
C77 O83 1.208 . S
C78 O70 1.315 1_455 S
C78 O73 1.279 . S
C79 O80 1.315 1_655 S
C79 O81 1.279 1_655 S
O80 Cd72 2.223 . S
O80 C79 1.315 1_455 S
O81 Cd71 2.238 1_455 S
O81 C79 1.279 1_455 S
O82 Cd72 2.297 . S
O82 C77 1.247 . S
O83 Cd72 2.439 . S
O83 C77 1.208 . S
O84 Cd85 2.202 1_545 S
O84 C92 1.315 . S
Cd85 O84 2.202 1_565 S
Cd85 O88 2.308 . S
Cd85 O89 2.450 . S
Cd85 O95 2.231 1_565 S
Cd86 O87 2.240 . S
Cd86 O94 2.223 . S
Cd86 O96 2.297 . S
Cd86 O97 2.439 . S
O87 Cd86 2.240 . S
O87 C92 1.279 . S
O88 Cd85 2.308 . S
O88 C90 1.247 . S
O89 Cd85 2.450 . S
O89 C90 1.208 . S
C90 O88 1.247 . S
C90 O89 1.208 . S
C91 O96 1.247 . S
C91 O97 1.208 . S
C92 O84 1.315 . S
C92 O87 1.279 . S
C93 O94 1.315 . S
C93 O95 1.279 . S
O94 Cd86 2.223 . S
O94 C93 1.315 . S
O95 Cd85 2.231 1_545 S
O95 C93 1.279 . S
O96 Cd86 2.297 . S
O96 C91 1.247 . S
O97 Cd86 2.439 . S
O97 C91 1.208 . S
O98 Cd99 2.223 1_655 S
O98 C106 1.315 1_655 S
Cd99 O98 2.223 1_455 S
Cd99 O102 2.297 . S
Cd99 O103 2.439 . S
Cd99 O109 2.240 . S
Cd100 O101 2.240 . S
Cd100 O108 2.223 . S
Cd100 O110 2.297 . S
Cd100 O111 2.439 . S
O101 Cd100 2.240 . S
O101 C106 1.279 . S
O102 Cd99 2.297 . S
O102 C104 1.247 . S
O103 Cd99 2.439 . S
O103 C104 1.208 . S
C104 O102 1.247 . S
C104 O103 1.208 . S
C105 O110 1.247 . S
C105 O111 1.208 . S
C106 O98 1.315 1_455 S
C106 O101 1.279 . S
C107 O108 1.332 . S
C107 O109 1.287 . S
O108 Cd100 2.223 . S
O108 C107 1.332 . S
O109 Cd99 2.240 . S
O109 C107 1.287 . S
O110 Cd100 2.297 . S
O110 C105 1.247 . S
O111 Cd100 2.439 . S
O111 C105 1.208 . S
O112 Cd113 2.223 . S
O112 C120 1.315 . S
Cd113 O112 2.223 . S
Cd113 O116 2.297 . S
Cd113 O117 2.439 . S
Cd113 O123 2.240 . S
Cd114 O115 2.240 . S
Cd114 O122 2.223 . S
Cd114 O124 2.297 1_554 S
Cd114 O125 2.439 1_554 S
O115 Cd114 2.240 . S
O115 C120 1.279 . S
O116 Cd113 2.297 . S
O116 C118 1.247 . S
O117 Cd113 2.439 . S
O117 C118 1.208 . S
C118 O116 1.247 . S
C118 O117 1.208 . S
C119 O124 1.247 . S
C119 O125 1.208 . S
C120 O112 1.315 . S
C120 O115 1.279 . S
C121 O122 1.315 . S
C121 O123 1.279 . S
O122 Cd114 2.223 . S
O122 C121 1.315 . S
O123 Cd113 2.240 . S
O123 C121 1.279 . S
O124 Cd114 2.297 1_556 S
O124 C119 1.247 . S
O125 Cd114 2.439 1_556 S
O125 C119 1.208 . S
O126 Cd127 2.223 . S
O126 C134 1.315 1_556 S
Cd127 O126 2.223 . S
Cd127 O130 2.297 1_556 S
Cd127 O131 2.439 1_556 S
Cd127 O137 2.240 . S
Cd128 O129 2.240 . S
Cd128 O136 2.223 . S
Cd128 O138 2.297 . S
Cd128 O139 2.439 . S
O129 Cd128 2.240 . S
O129 C134 1.279 . S
O130 Cd127 2.297 1_554 S
O130 C132 1.247 . S
O131 Cd127 2.439 1_554 S
O131 C132 1.208 . S
C132 O130 1.247 . S
C132 O131 1.208 . S
C133 O138 1.247 . S
C133 O139 1.208 . S
C134 O126 1.315 1_554 S
C134 O129 1.279 . S
C135 O136 1.315 1_556 S
C135 O137 1.279 . S
O136 Cd128 2.223 . S
O136 C135 1.315 1_554 S
O137 Cd127 2.240 . S
O137 C135 1.279 . S
O138 Cd128 2.297 . S
O138 C133 1.247 . S
O139 Cd128 2.439 . S
O139 C133 1.208 . S
O140 Cd141 2.223 . S
O140 C148 1.315 . S
Cd141 O140 2.223 . S
Cd141 O144 2.297 . S
Cd141 O145 2.439 . S
Cd141 O151 2.240 . S
Cd142 O143 2.240 . S
Cd142 O150 2.223 . S
Cd142 O152 2.297 1_554 S
Cd142 O153 2.439 1_554 S
O143 Cd142 2.240 . S
O143 C148 1.279 . S
O144 Cd141 2.297 . S
O144 C146 1.247 . S
O145 Cd141 2.439 . S
O145 C146 1.208 . S
C146 O144 1.247 . S
C146 O145 1.208 . S
C147 O152 1.247 . S
C147 O153 1.208 . S
C148 O140 1.315 . S
C148 O143 1.279 . S
C149 O150 1.315 . S
C149 O151 1.279 . S
O150 Cd142 2.223 . S
O150 C149 1.315 . S
O151 Cd141 2.240 . S
O151 C149 1.279 . S
O152 Cd142 2.297 1_556 S
O152 C147 1.247 . S
O153 Cd142 2.439 1_556 S
O153 C147 1.208 . S
O154 Cd155 2.223 . S
O154 C162 1.315 . S
Cd155 O154 2.223 . S
Cd155 O158 2.297 . S
Cd155 O159 2.439 . S
Cd155 O165 2.240 . S
Cd156 O157 2.240 . S
Cd156 O164 2.223 . S
Cd156 O166 2.297 . S
Cd156 O167 2.439 . S
O157 Cd156 2.240 . S
O157 C162 1.279 . S
O158 Cd155 2.297 . S
O158 C160 1.247 . S
O159 Cd155 2.439 . S
O159 C160 1.208 . S
C160 O158 1.247 . S
C160 O159 1.208 . S
C161 O166 1.247 . S
C161 O167 1.208 . S
C162 O154 1.315 . S
C162 O157 1.279 . S
C163 O164 1.315 . S
C163 O165 1.279 . S
O164 Cd156 2.223 . S
O164 C163 1.315 . S
O165 Cd155 2.240 . S
O165 C163 1.279 . S
O166 Cd156 2.297 . S
O166 C161 1.247 . S
O167 Cd156 2.439 . S
O167 C161 1.208 . S
H168 C176 0.950 . S
H169 C181 0.950 . S
H170 C178 0.950 . S
H171 C180 0.950 . S
H172 C182 0.950 . S
H173 C184 0.950 . S
H174 C186 0.950 1_655 S
H175 C187 0.950 1_655 S
C176 H168 0.950 . S
C176 C177 1.386 1_655 S
C176 C178 1.391 . S
C177 C176 1.386 1_455 S
C177 C181 1.393 . S
C178 H170 0.950 . S
C178 C176 1.391 . S
C178 C179 1.400 1_655 S
C179 C178 1.400 1_455 S
C179 C180 1.398 . S
C179 C185 1.491 . S
C180 H171 0.950 . S
C180 C179 1.398 . S
C180 C181 1.391 . S
C181 H169 0.950 . S
C181 C177 1.393 . S
C181 C180 1.391 . S
C182 H172 0.950 . S
C182 C183 1.386 . S
C182 C184 1.391 . S
C183 C182 1.386 . S
C183 C187 1.393 . S
C184 H173 0.950 . S
C184 C182 1.391 . S
C184 C185 1.400 . S
C185 C179 1.491 . S
C185 C184 1.400 . S
C185 C186 1.398 . S
C186 H174 0.950 1_455 S
C186 C185 1.398 . S
C186 C187 1.391 . S
C187 H175 0.950 1_455 S
C187 C183 1.393 . S
C187 C186 1.391 . S
H188 C196 0.950 . S
H189 C201 0.950 . S
H190 C198 0.950 . S
H191 C200 0.950 . S
H192 C202 0.950 . S
H193 C204 0.950 . S
H194 C206 0.950 . S
H195 C207 0.950 . S
C196 H188 0.950 . S
C196 C197 1.386 . S
C196 C198 1.391 . S
C197 C196 1.386 . S
C197 C201 1.393 . S
C198 H190 0.950 . S
C198 C196 1.391 . S
C198 C199 1.400 . S
C199 C198 1.400 . S
C199 C200 1.398 . S
C199 C205 1.491 . S
C200 H191 0.950 . S
C200 C199 1.398 . S
C200 C201 1.391 . S
C201 H189 0.950 . S
C201 C197 1.393 . S
C201 C200 1.391 . S
C202 H192 0.950 . S
C202 C203 1.386 . S
C202 C204 1.391 . S
C203 C202 1.386 . S
C203 C207 1.393 . S
C204 H193 0.950 . S
C204 C202 1.391 . S
C204 C205 1.400 . S
C205 C199 1.491 . S
C205 C204 1.400 . S
C205 C206 1.398 . S
C206 H194 0.950 . S
C206 C205 1.398 . S
C206 C207 1.391 . S
C207 H195 0.950 . S
C207 C203 1.393 . S
C207 C206 1.391 . S
H208 C216 0.950 . S
H209 C221 0.950 . S
H210 C218 0.950 . S
H211 C220 0.950 1_655 S
H212 C222 0.950 . S
H213 C224 0.950 1_655 S
H214 C226 0.950 . S
H215 C227 0.950 . S
C216 H208 0.950 . S
C216 C217 1.386 . S
C216 C218 1.391 . S
C217 C216 1.386 . S
C217 C221 1.393 1_455 S
C218 H210 0.950 . S
C218 C216 1.391 . S
C218 C219 1.400 . S
C219 C218 1.400 . S
C219 C220 1.398 . S
C219 C225 1.491 . S
C220 H211 0.950 1_455 S
C220 C219 1.398 . S
C220 C221 1.391 1_455 S
C221 H209 0.950 . S
C221 C217 1.393 1_655 S
C221 C220 1.391 1_655 S
C222 H212 0.950 . S
C222 C223 1.386 . S
C222 C224 1.391 . S
C223 C222 1.386 . S
C223 C227 1.393 . S
C224 H213 0.950 1_455 S
C224 C222 1.391 . S
C224 C225 1.400 . S
C225 C219 1.491 . S
C225 C224 1.400 . S
C225 C226 1.398 . S
C226 H214 0.950 . S
C226 C225 1.398 . S
C226 C227 1.391 . S
C227 H215 0.950 . S
C227 C223 1.393 . S
C227 C226 1.391 . S
H228 C236 0.950 . S
H229 C241 0.950 . S
H230 C238 0.950 . S
H231 C240 0.950 . S
H232 C242 0.950 . S
H233 C244 0.950 . S
H234 C246 0.950 . S
H235 C247 0.950 . S
C236 H228 0.950 . S
C236 C237 1.386 . S
C236 C238 1.391 . S
C237 C236 1.386 . S
C237 C241 1.393 . S
C238 H230 0.950 . S
C238 C236 1.391 . S
C238 C239 1.400 . S
C239 C238 1.400 . S
C239 C240 1.398 . S
C239 C245 1.491 . S
C240 H231 0.950 . S
C240 C239 1.398 . S
C240 C241 1.391 . S
C241 H229 0.950 . S
C241 C237 1.393 . S
C241 C240 1.391 . S
C242 H232 0.950 . S
C242 C243 1.386 . S
C242 C244 1.391 . S
C243 C242 1.386 . S
C243 C247 1.393 . S
C244 H233 0.950 . S
C244 C242 1.391 . S
C244 C245 1.400 . S
C245 C239 1.491 . S
C245 C244 1.400 . S
C245 C246 1.398 . S
C246 H234 0.950 . S
C246 C245 1.398 . S
C246 C247 1.391 . S
C247 H235 0.950 . S
C247 C243 1.393 . S
C247 C246 1.391 . S
H248 C256 0.950 . S
H249 C261 0.950 . S
H250 C258 0.950 1_655 S
H251 C260 0.950 . S
H252 C262 0.950 . S
H253 C264 0.950 . S
H254 C266 0.950 1_655 S
H255 C267 0.932 1_655 S
C256 H248 0.950 . S
C256 C257 1.386 . S
C256 C258 1.391 . S
C257 C256 1.386 . S
C257 C261 1.393 . S
C258 H250 0.950 1_455 S
C258 C256 1.391 . S
C258 C259 1.400 . S
C259 C258 1.400 . S
C259 C260 1.398 . S
C259 C265 1.491 . S
C260 H251 0.950 . S
C260 C259 1.398 . S
C260 C261 1.391 . S
C261 H249 0.950 . S
C261 C257 1.393 . S
C261 C260 1.391 . S
C262 H252 0.950 . S
C262 C263 1.386 . S
C262 C264 1.391 . S
C263 C262 1.386 . S
C263 C267 1.406 . S
C264 H253 0.950 . S
C264 C262 1.391 . S
C264 C265 1.400 . S
C265 C259 1.491 . S
C265 C264 1.400 . S
C265 C266 1.398 . S
C266 H254 0.950 1_455 S
C266 C265 1.398 . S
C266 C267 1.395 . S
C267 H255 0.932 1_455 S
C267 C263 1.406 . S
C267 C266 1.395 . S
H268 C276 0.950 . S
H269 C281 0.950 . S
H270 C278 0.950 . S
H271 C280 0.950 . S
H272 C282 0.962 . S
H273 C284 0.950 1_565 S
H274 C286 0.950 . S
H275 C287 0.950 . S
C276 H268 0.950 . S
C276 C277 1.386 . S
C276 C278 1.391 . S
C277 C276 1.386 . S
C277 C281 1.393 . S
C278 H270 0.950 . S
C278 C276 1.391 . S
C278 C279 1.400 . S
C279 C278 1.400 . S
C279 C280 1.398 . S
C279 C285 1.491 . S
C280 H271 0.950 . S
C280 C279 1.398 . S
C280 C281 1.391 . S
C281 H269 0.950 . S
C281 C277 1.393 . S
C281 C280 1.391 . S
C282 H272 0.962 . S
C282 C283 1.374 1_565 S
C282 C284 1.391 1_565 S
C283 C282 1.374 1_545 S
C283 C287 1.393 . S
C284 H273 0.950 1_545 S
C284 C282 1.391 1_545 S
C284 C285 1.400 . S
C285 C279 1.491 . S
C285 C284 1.400 . S
C285 C286 1.398 . S
C286 H274 0.950 . S
C286 C285 1.398 . S
C286 C287 1.391 . S
C287 H275 0.950 . S
C287 C283 1.393 . S
C287 C286 1.391 . S
H288 C296 0.950 . S
H289 C301 0.950 1_655 S
H290 C298 0.950 . S
H291 C300 0.950 1_655 S
H292 C302 0.950 . S
H293 C304 0.950 . S
H294 C306 0.950 . S
H295 C307 0.950 . S
C296 H288 0.950 . S
C296 C297 1.386 . S
C296 C298 1.391 . S
C297 C296 1.386 . S
C297 C301 1.393 . S
C298 H290 0.950 . S
C298 C296 1.391 . S
C298 C299 1.400 . S
C299 C298 1.400 . S
C299 C300 1.398 . S
C299 C305 1.491 . S
C300 H291 0.950 1_455 S
C300 C299 1.398 . S
C300 C301 1.391 . S
C301 H289 0.950 1_455 S
C301 C297 1.393 . S
C301 C300 1.391 . S
C302 H292 0.950 . S
C302 C303 1.386 1_655 S
C302 C304 1.391 . S
C303 C302 1.386 1_455 S
C303 C307 1.393 . S
C304 H293 0.950 . S
C304 C302 1.391 . S
C304 C305 1.400 1_655 S
C305 C299 1.491 . S
C305 C304 1.400 1_455 S
C305 C306 1.398 . S
C306 H294 0.950 . S
C306 C305 1.398 . S
C306 C307 1.391 . S
C307 H295 0.950 . S
C307 C303 1.393 . S
C307 C306 1.391 . S
H308 C316 0.950 . S
H309 C321 0.950 . S
H310 C318 0.950 . S
H311 C320 0.950 . S
H312 C322 0.950 . S
H313 C324 0.950 . S
H314 C326 0.950 . S
H315 C327 0.950 . S
C316 H308 0.950 . S
C316 C317 1.386 . S
C316 C318 1.391 . S
C317 C316 1.386 . S
C317 C321 1.393 . S
C318 H310 0.950 . S
C318 C316 1.391 . S
C318 C319 1.400 . S
C319 C318 1.400 . S
C319 C320 1.398 . S
C319 C325 1.491 . S
C320 H311 0.950 . S
C320 C319 1.398 . S
C320 C321 1.391 . S
C321 H309 0.950 . S
C321 C317 1.393 . S
C321 C320 1.391 . S
C322 H312 0.950 . S
C322 C323 1.386 . S
C322 C324 1.391 . S
C323 C322 1.386 . S
C323 C327 1.393 . S
C324 H313 0.950 . S
C324 C322 1.391 . S
C324 C325 1.400 . S
C325 C319 1.491 . S
C325 C324 1.400 . S
C325 C326 1.398 . S
C326 H314 0.950 . S
C326 C325 1.398 . S
C326 C327 1.391 . S
C327 H315 0.950 . S
C327 C323 1.393 . S
C327 C326 1.391 . S
H328 C336 0.950 . S
H329 C341 0.950 1_556 S
H330 C338 0.950 . S
H331 C340 0.950 1_556 S
H332 C342 0.928 1_556 S
H333 C344 0.950 1_556 S
H334 C346 0.950 . S
H335 C347 0.950 . S
C336 H328 0.950 . S
C336 C337 1.386 . S
C336 C338 1.391 . S
C337 C336 1.386 . S
C337 C341 1.393 . S
C338 H330 0.950 . S
C338 C336 1.391 . S
C338 C339 1.400 . S
C339 C338 1.400 . S
C339 C340 1.398 . S
C339 C345 1.491 . S
C340 H331 0.950 1_554 S
C340 C339 1.398 . S
C340 C341 1.391 . S
C341 H329 0.950 1_554 S
C341 C337 1.393 . S
C341 C340 1.391 . S
C342 H332 0.928 1_554 S
C342 C343 1.403 . S
C342 C344 1.396 . S
C343 C342 1.403 . S
C343 C347 1.393 . S
C344 H333 0.950 1_554 S
C344 C342 1.396 . S
C344 C345 1.400 . S
C345 C339 1.491 . S
C345 C344 1.400 . S
C345 C346 1.398 . S
C346 H334 0.950 . S
C346 C345 1.398 . S
C346 C347 1.391 . S
C347 H335 0.950 . S
C347 C343 1.393 . S
C347 C346 1.391 . S
H348 C356 0.950 . S
H349 C361 0.950 . S
H350 C358 0.950 . S
H351 C360 0.950 . S
H352 C362 0.950 1_556 S
H353 C364 0.969 . S
H354 C366 0.950 . S
H355 C367 0.950 . S
C356 H348 0.950 . S
C356 C357 1.386 . S
C356 C358 1.391 . S
C357 C356 1.386 . S
C357 C361 1.393 . S
C358 H350 0.950 . S
C358 C356 1.391 . S
C358 C359 1.400 . S
C359 C358 1.400 . S
C359 C360 1.398 . S
C359 C365 1.491 . S
C360 H351 0.950 . S
C360 C359 1.398 . S
C360 C361 1.391 . S
C361 H349 0.950 . S
C361 C357 1.393 . S
C361 C360 1.391 . S
C362 H352 0.950 1_554 S
C362 C363 1.386 . S
C362 C364 1.391 . S
C363 C362 1.386 . S
C363 C367 1.393 . S
C364 H353 0.969 . S
C364 C362 1.391 . S
C364 C365 1.400 . S
C365 C359 1.491 . S
C365 C364 1.400 . S
C365 C366 1.398 . S
C366 H354 0.950 . S
C366 C365 1.398 . S
C366 C367 1.391 . S
C367 H355 0.950 . S
C367 C363 1.393 . S
C367 C366 1.391 . S
H368 C376 0.950 . S
H369 C381 0.970 . S
H370 C378 0.950 . S
H371 C380 0.950 . S
H372 C382 0.950 . S
H373 C384 0.950 . S
H374 C386 0.950 . S
H375 C387 0.950 . S
C376 H368 0.950 . S
C376 C377 1.386 . S
C376 C378 1.391 . S
C377 C376 1.386 . S
C377 C381 1.381 1_554 S
C378 H370 0.950 . S
C378 C376 1.391 . S
C378 C379 1.400 . S
C379 C378 1.400 . S
C379 C380 1.398 . S
C379 C385 1.491 . S
C380 H371 0.950 . S
C380 C379 1.398 . S
C380 C381 1.383 1_554 S
C381 H369 0.970 . S
C381 C377 1.381 1_556 S
C381 C380 1.383 1_556 S
C382 H372 0.950 . S
C382 C383 1.386 . S
C382 C384 1.391 . S
C383 C382 1.386 . S
C383 C387 1.393 . S
C384 H373 0.950 . S
C384 C382 1.391 . S
C384 C385 1.400 . S
C385 C379 1.491 . S
C385 C384 1.400 . S
C385 C386 1.398 . S
C386 H374 0.950 . S
C386 C385 1.398 . S
C386 C387 1.391 . S
C387 H375 0.950 . S
C387 C383 1.393 . S
C387 C386 1.391 . S
H388 C396 0.950 . S
H389 C401 0.950 . S
H390 C398 0.950 . S
H391 C400 0.950 . S
H392 C402 0.950 . S
H393 C404 0.950 . S
H394 C406 0.950 . S
H395 C407 0.950 . S
C396 H388 0.950 . S
C396 C397 1.386 . S
C396 C398 1.391 . S
C397 C396 1.386 . S
C397 C401 1.393 . S
C398 H390 0.950 . S
C398 C396 1.391 . S
C398 C399 1.400 . S
C399 C398 1.400 . S
C399 C400 1.398 . S
C399 C405 1.491 . S
C400 H391 0.950 . S
C400 C399 1.398 . S
C400 C401 1.391 . S
C401 H389 0.950 . S
C401 C397 1.393 . S
C401 C400 1.391 . S
C402 H392 0.950 . S
C402 C403 1.386 . S
C402 C404 1.391 . S
C403 C402 1.386 . S
C403 C407 1.393 . S
C404 H393 0.950 . S
C404 C402 1.391 . S
C404 C405 1.400 . S
C405 C399 1.491 . S
C405 C404 1.400 . S
C405 C406 1.398 . S
C406 H394 0.950 . S
C406 C405 1.398 . S
C406 C407 1.391 . S
C407 H395 0.950 . S
C407 C403 1.393 . S
C407 C406 1.391 . S
H408 C416 0.950 . S
H409 C421 0.950 1_554 S
H410 C418 0.950 . S
H411 C420 0.950 . S
H412 C422 0.950 . S
H413 C424 0.950 . S
H414 C426 0.950 . S
H415 C427 0.950 . S
C416 H408 0.950 . S
C416 C417 1.386 . S
C416 C418 1.391 . S
C417 C416 1.386 . S
C417 C421 1.393 . S
C418 H410 0.950 . S
C418 C416 1.391 . S
C418 C419 1.400 . S
C419 C418 1.400 . S
C419 C420 1.398 . S
C419 C425 1.491 . S
C420 H411 0.950 . S
C420 C419 1.398 . S
C420 C421 1.391 . S
C421 H409 0.950 1_556 S
C421 C417 1.393 . S
C421 C420 1.391 . S
C422 H412 0.950 . S
C422 C423 1.386 . S
C422 C424 1.391 . S
C423 C422 1.386 . S
C423 C427 1.393 . S
C424 H413 0.950 . S
C424 C422 1.391 . S
C424 C425 1.400 . S
C425 C419 1.491 . S
C425 C424 1.400 . S
C425 C426 1.398 . S
C426 H414 0.950 . S
C426 C425 1.398 . S
C426 C427 1.391 . S
C427 H415 0.950 . S
C427 C423 1.393 . S
C427 C426 1.391 . S
H428 C436 0.950 . S
H429 C441 0.950 . S
H430 C438 0.950 . S
H431 C440 0.950 . S
H432 C442 0.950 . S
H433 C444 0.950 . S
H434 C446 0.950 . S
H435 C447 0.950 . S
C436 H428 0.950 . S
C436 C437 1.386 . S
C436 C438 1.391 . S
C437 C436 1.386 . S
C437 C441 1.393 . S
C438 H430 0.950 . S
C438 C436 1.391 . S
C438 C439 1.400 . S
C439 C438 1.400 . S
C439 C440 1.398 . S
C439 C445 1.491 . S
C440 H431 0.950 . S
C440 C439 1.398 . S
C440 C441 1.391 . S
C441 H429 0.950 . S
C441 C437 1.393 . S
C441 C440 1.391 . S
C442 H432 0.950 . S
C442 C443 1.386 . S
C442 C444 1.391 . S
C443 C442 1.386 . S
C443 C447 1.393 . S
C444 H433 0.950 . S
C444 C442 1.391 . S
C444 C445 1.400 . S
C445 C439 1.491 . S
C445 C444 1.400 . S
C445 C446 1.398 . S
C446 H434 0.950 . S
C446 C445 1.398 . S
C446 C447 1.391 . S
C447 H435 0.950 . S
C447 C443 1.393 . S
C447 C446 1.391 . S
H448 C456 0.950 . S
H449 C461 0.950 . S
H450 C458 0.950 . S
H451 C460 0.950 . S
H452 C462 0.950 . S
H453 C464 0.950 . S
H454 C466 0.950 . S
H455 C467 0.950 . S
C456 H448 0.950 . S
C456 C457 1.386 . S
C456 C458 1.391 . S
C457 C456 1.386 . S
C457 C461 1.393 . S
C458 H450 0.950 . S
C458 C456 1.391 . S
C458 C459 1.400 . S
C459 C458 1.400 . S
C459 C460 1.398 . S
C459 C465 1.491 . S
C460 H451 0.950 . S
C460 C459 1.398 . S
C460 C461 1.391 . S
C461 H449 0.950 . S
C461 C457 1.393 . S
C461 C460 1.391 . S
C462 H452 0.950 . S
C462 C463 1.386 . S
C462 C464 1.391 . S
C463 C462 1.386 . S
C463 C467 1.393 . S
C464 H453 0.950 . S
C464 C462 1.391 . S
C464 C465 1.400 . S
C465 C459 1.491 . S
C465 C464 1.400 . S
C465 C466 1.398 . S
C466 H454 0.950 . S
C466 C465 1.398 . S
C466 C467 1.391 . S
C467 H455 0.950 . S
C467 C463 1.393 . S
C467 C466 1.391 . S
H468 C476 0.950 . S
H469 C481 0.950 1_455 S
H470 C478 0.950 . S
H471 C480 0.950 . S
H472 C482 0.950 . S
H473 C484 0.950 . S
H474 C486 0.950 . S
H475 C487 0.950 . S
C476 H468 0.950 . S
C476 C477 1.386 . S
C476 C478 1.391 . S
C477 C476 1.386 . S
C477 C481 1.393 . S
C478 H470 0.950 . S
C478 C476 1.391 . S
C478 C479 1.400 . S
C479 C478 1.400 . S
C479 C480 1.398 . S
C479 C485 1.491 . S
C480 H471 0.950 . S
C480 C479 1.398 . S
C480 C481 1.391 . S
C481 H469 0.950 1_655 S
C481 C477 1.393 . S
C481 C480 1.391 . S
C482 H472 0.950 . S
C482 C483 1.386 . S
C482 C484 1.391 . S
C483 C482 1.386 . S
C483 C487 1.393 . S
C484 H473 0.950 . S
C484 C482 1.391 . S
C484 C485 1.400 . S
C485 C479 1.491 . S
C485 C484 1.400 . S
C485 C486 1.398 . S
C486 H474 0.950 . S
C486 C485 1.398 . S
C486 C487 1.391 . S
C487 H475 0.950 . S
C487 C483 1.393 . S
C487 C486 1.391 . S
H488 C496 0.950 . S
H489 C501 0.950 . S
H490 C498 0.950 . S
H491 C500 0.950 . S
H492 C502 0.950 . S
H493 C504 0.950 . S
H494 C506 0.950 . S
H495 C507 0.950 . S
C496 H488 0.950 . S
C496 C497 1.386 . S
C496 C498 1.391 . S
C497 C496 1.386 . S
C497 C501 1.393 . S
C498 H490 0.950 . S
C498 C496 1.391 . S
C498 C499 1.400 . S
C499 C498 1.400 . S
C499 C500 1.398 . S
C499 C505 1.491 . S
C500 H491 0.950 . S
C500 C499 1.398 . S
C500 C501 1.391 . S
C501 H489 0.950 . S
C501 C497 1.393 . S
C501 C500 1.391 . S
C502 H492 0.950 . S
C502 C503 1.386 . S
C502 C504 1.391 . S
C503 C502 1.386 . S
C503 C507 1.393 . S
C504 H493 0.950 . S
C504 C502 1.391 . S
C504 C505 1.400 . S
C505 C499 1.491 . S
C505 C504 1.400 . S
C505 C506 1.398 . S
C506 H494 0.950 . S
C506 C505 1.398 . S
C506 C507 1.391 . S
C507 H495 0.950 . S
C507 C503 1.393 . S
C507 C506 1.391 . S
H508 C516 0.950 . S
H509 C521 0.950 . S
H510 C518 0.950 . S
H511 C520 0.950 . S
H512 C522 0.950 . S
H513 C524 0.950 . S
H514 C526 0.950 . S
H515 C527 0.950 . S
C516 H508 0.950 . S
C516 C517 1.386 . S
C516 C518 1.391 . S
C517 C516 1.386 . S
C517 C521 1.393 . S
C518 H510 0.950 . S
C518 C516 1.391 . S
C518 C519 1.400 . S
C519 C518 1.400 . S
C519 C520 1.398 . S
C519 C525 1.491 . S
C520 H511 0.950 . S
C520 C519 1.398 . S
C520 C521 1.391 . S
C521 H509 0.950 . S
C521 C517 1.393 . S
C521 C520 1.391 . S
C522 H512 0.950 . S
C522 C523 1.386 . S
C522 C524 1.391 . S
C523 C522 1.386 . S
C523 C527 1.393 . S
C524 H513 0.950 . S
C524 C522 1.391 . S
C524 C525 1.400 . S
C525 C519 1.491 . S
C525 C524 1.400 . S
C525 C526 1.398 . S
C526 H514 0.950 . S
C526 C525 1.398 . S
C526 C527 1.391 . S
C527 H515 0.950 . S
C527 C523 1.393 . S
C527 C526 1.391 . S
H528 C536 0.950 . S
H529 C541 0.950 . S
H530 C538 0.950 . S
H531 C540 0.950 . S
H532 C542 0.950 . S
H533 C544 0.950 . S
H534 C546 0.950 . S
H535 C547 0.950 1_545 S
C536 H528 0.950 . S
C536 C537 1.386 . S
C536 C538 1.391 . S
C537 C536 1.386 . S
C537 C541 1.393 . S
C538 H530 0.950 . S
C538 C536 1.391 . S
C538 C539 1.400 . S
C539 C538 1.400 . S
C539 C540 1.398 . S
C539 C545 1.491 . S
C540 H531 0.950 . S
C540 C539 1.398 . S
C540 C541 1.391 . S
C541 H529 0.950 . S
C541 C537 1.393 . S
C541 C540 1.391 . S
C542 H532 0.950 . S
C542 C543 1.386 . S
C542 C544 1.391 . S
C543 C542 1.386 . S
C543 C547 1.393 . S
C544 H533 0.950 . S
C544 C542 1.391 . S
C544 C545 1.400 . S
C545 C539 1.491 . S
C545 C544 1.400 . S
C545 C546 1.398 . S
C546 H534 0.950 . S
C546 C545 1.398 . S
C546 C547 1.391 . S
C547 H535 0.950 1_565 S
C547 C543 1.393 . S
C547 C546 1.391 . S
H548 C556 0.950 . S
H549 C561 0.950 . S
H550 C558 0.950 . S
H551 C560 0.950 . S
H552 C562 0.950 . S
H553 C564 0.950 . S
H554 C566 0.950 . S
H555 C567 0.950 . S
C556 H548 0.950 . S
C556 C557 1.386 . S
C556 C558 1.391 . S
C557 C556 1.386 . S
C557 C561 1.393 . S
C558 H550 0.950 . S
C558 C556 1.391 . S
C558 C559 1.400 . S
C559 C558 1.400 . S
C559 C560 1.398 . S
C559 C565 1.491 . S
C560 H551 0.950 . S
C560 C559 1.398 . S
C560 C561 1.391 . S
C561 H549 0.950 . S
C561 C557 1.393 . S
C561 C560 1.391 . S
C562 H552 0.950 . S
C562 C563 1.386 . S
C562 C564 1.391 . S
C563 C562 1.386 . S
C563 C567 1.393 . S
C564 H553 0.950 . S
C564 C562 1.391 . S
C564 C565 1.400 . S
C565 C559 1.491 . S
C565 C564 1.400 . S
C565 C566 1.398 . S
C566 H554 0.950 . S
C566 C565 1.398 . S
C566 C567 1.391 . S
C567 H555 0.950 . S
C567 C563 1.393 . S
C567 C566 1.391 . S
H568 C576 0.950 . S
H569 C581 0.950 . S
H570 C578 0.950 . S
H571 C580 0.950 . S
H572 C582 0.950 . S
H573 C584 0.950 . S
H574 C586 0.950 . S
H575 C587 0.950 . S
C576 H568 0.950 . S
C576 C577 1.386 . S
C576 C578 1.391 . S
C577 C576 1.386 . S
C577 C581 1.393 . S
C578 H570 0.950 . S
C578 C576 1.391 . S
C578 C579 1.400 . S
C579 C578 1.400 . S
C579 C580 1.398 . S
C579 C585 1.491 . S
C580 H571 0.950 . S
C580 C579 1.398 . S
C580 C581 1.391 . S
C581 H569 0.950 . S
C581 C577 1.393 . S
C581 C580 1.391 . S
C582 H572 0.950 . S
C582 C583 1.386 . S
C582 C584 1.391 . S
C583 C582 1.386 . S
C583 C587 1.393 . S
C584 H573 0.950 . S
C584 C582 1.391 . S
C584 C585 1.400 . S
C585 C579 1.491 . S
C585 C584 1.400 . S
C585 C586 1.398 . S
C586 H574 0.950 . S
C586 C585 1.398 . S
C586 C587 1.391 . S
C587 H575 0.950 . S
C587 C583 1.393 . S
C587 C586 1.391 . S
H588 C596 0.950 . S
H589 C601 0.950 . S
H590 C598 0.950 . S
H591 C600 0.950 . S
H592 C602 0.950 . S
H593 C604 0.950 . S
H594 C606 0.950 . S
H595 C607 0.950 . S
C596 H588 0.950 . S
C596 C597 1.386 . S
C596 C598 1.391 . S
C597 C596 1.386 . S
C597 C601 1.393 . S
C598 H590 0.950 . S
C598 C596 1.391 . S
C598 C599 1.400 . S
C599 C598 1.400 . S
C599 C600 1.398 . S
C599 C605 1.491 . S
C600 H591 0.950 . S
C600 C599 1.398 . S
C600 C601 1.391 . S
C601 H589 0.950 . S
C601 C597 1.393 . S
C601 C600 1.391 . S
C602 H592 0.950 . S
C602 C603 1.386 . S
C602 C604 1.391 . S
C603 C602 1.386 . S
C603 C607 1.393 . S
C604 H593 0.950 . S
C604 C602 1.391 . S
C604 C605 1.400 . S
C605 C599 1.491 . S
C605 C604 1.400 . S
C605 C606 1.398 . S
C606 H594 0.950 . S
C606 C605 1.398 . S
C606 C607 1.391 . S
C607 H595 0.950 . S
C607 C603 1.393 . S
C607 C606 1.391 . S
H608 C616 0.950 . S
H609 C621 0.950 . S
H610 C618 0.950 . S
H611 C620 0.950 . S
H612 C622 0.950 . S
H613 C624 0.950 . S
H614 C626 0.950 . S
H615 C627 0.950 . S
C616 H608 0.950 . S
C616 C617 1.386 . S
C616 C618 1.391 . S
C617 C616 1.386 . S
C617 C621 1.393 . S
C618 H610 0.950 . S
C618 C616 1.391 . S
C618 C619 1.400 . S
C619 C618 1.400 . S
C619 C620 1.398 . S
C619 C625 1.491 . S
C620 H611 0.950 . S
C620 C619 1.398 . S
C620 C621 1.391 . S
C621 H609 0.950 . S
C621 C617 1.393 . S
C621 C620 1.391 . S
C622 H612 0.950 . S
C622 C623 1.386 . S
C622 C624 1.391 . S
C623 C622 1.386 . S
C623 C627 1.393 . S
C624 H613 0.950 . S
C624 C622 1.391 . S
C624 C625 1.400 . S
C625 C619 1.491 . S
C625 C624 1.400 . S
C625 C626 1.398 . S
C626 H614 0.950 . S
C626 C625 1.398 . S
C626 C627 1.391 . S
C627 H615 0.950 . S
C627 C623 1.393 . S
C627 C626 1.391 . S
H628 C636 0.950 . S
H629 C641 0.950 . S
H630 C638 0.950 . S
H631 C640 0.950 . S
H632 C642 0.950 . S
H633 C644 0.950 . S
H634 C646 0.950 . S
H635 C647 0.950 . S
C636 H628 0.950 . S
C636 C637 1.386 . S
C636 C638 1.391 . S
C637 C636 1.386 . S
C637 C641 1.393 . S
C638 H630 0.950 . S
C638 C636 1.391 . S
C638 C639 1.400 . S
C639 C638 1.400 . S
C639 C640 1.398 . S
C639 C645 1.491 . S
C640 H631 0.950 . S
C640 C639 1.398 . S
C640 C641 1.391 . S
C641 H629 0.950 . S
C641 C637 1.393 . S
C641 C640 1.391 . S
C642 H632 0.950 . S
C642 C643 1.386 . S
C642 C644 1.391 . S
C643 C642 1.386 . S
C643 C647 1.393 . S
C644 H633 0.950 . S
C644 C642 1.391 . S
C644 C645 1.400 . S
C645 C639 1.491 . S
C645 C644 1.400 . S
C645 C646 1.398 . S
C646 H634 0.950 . S
C646 C645 1.398 . S
C646 C647 1.391 . S
C647 H635 0.950 . S
C647 C643 1.393 . S
C647 C646 1.391 . S
C177 C9 1.886 . S
C183 C76 1.850 . S
C197 C20 1.078 . S
C203 C63 1.069 . S
C217 C78 1.821 . S
C223 C37 1.794 . S
C237 C49 1.372 . S
C243 C65 1.419 . S
C257 C104 1.222 . S
C263 C35 1.221 . S
C277 C93 2.023 . S
C283 C51 2.035 . S
C297 C7 1.178 . S
C303 C106 1.236 . S
C317 C91 1.617 . S
C323 C22 1.685 . S
C337 C132 1.416 . S
C343 C118 1.400 . S
C357 C120 1.312 . S
C363 C162 1.329 . S
C377 C134 1.608 . S
C383 C148 1.598 . S
C397 C146 1.679 . S
C403 C160 1.666 . S
C417 C163 1.887 1_556 S
C423 C90 1.852 . S
C437 C119 1.051 . S
C443 C105 1.040 . S
C457 C92 1.808 . S
C463 C135 1.807 . S
C477 C107 1.404 1_655 S
C483 C147 1.394 . S
C497 C62 1.202 . S
C503 C133 1.199 . S
C517 C79 2.025 . S
C523 C149 2.035 . S
C537 C161 1.168 . S
C543 C64 1.225 1_565 S
C557 C121 1.698 . S
C563 C77 1.643 . S
C577 C21 1.424 . S
C583 C34 1.435 . S
C597 C8 1.326 . S
C603 C23 1.310 . S
C617 C36 1.598 . S
C623 C50 1.614 . S
C637 C6 1.642 . S
C643 C48 1.657 . S
