# Generated by pormake.
# Topology zfh, (5)-cn, num edge types: 1
# Building blocks:
#     Node 0, Type 0, BuildingBlock: XOMCOT_clean_sbu_1, # of connection points: 5
#     Node 1, Type 0, BuildingBlock: XOMCOT_clean_sbu_1, # of connection points: 5
#     Node 2, Type 0, BuildingBlock: XOMCOT_clean_sbu_1, # of connection points: 5
#     Node 3, Type 0, BuildingBlock: XOMCOT_clean_sbu_1, # of connection points: 5
#     Node 4, Type 0, BuildingBlock: XOMCOT_clean_sbu_1, # of connection points: 5
#     Node 5, Type 0, BuildingBlock: XOMCOT_clean_sbu_1, # of connection points: 5
#     Node 6, Type 0, BuildingBlock: XOMCOT_clean_sbu_1, # of connection points: 5
#     Node 7, Type 0, BuildingBlock: XOMCOT_clean_sbu_1, # of connection points: 5
#     Node 8, Type 0, BuildingBlock: XOMCOT_clean_sbu_1, # of connection points: 5
#     Node 9, Type 0, BuildingBlock: XOMCOT_clean_sbu_1, # of connection points: 5
#     Node 10, Type 0, BuildingBlock: XOMCOT_clean_sbu_1, # of connection points: 5
#     Node 11, Type 0, BuildingBlock: XOMCOT_clean_sbu_1, # of connection points: 5
#     Node 12, Type 0, BuildingBlock: XOMCOT_clean_sbu_1, # of connection points: 5
#     Node 13, Type 0, BuildingBlock: XOMCOT_clean_sbu_1, # of connection points: 5
#     Node 14, Type 0, BuildingBlock: XOMCOT_clean_sbu_1, # of connection points: 5
#     Node 15, Type 0, BuildingBlock: XOMCOT_clean_sbu_1, # of connection points: 5
#     Edge 16, Type (0, 0), BuildingBlock: AJUNOK_clean_linker_0, # of connection points: 2
#     Edge 17, Type (0, 0), BuildingBlock: AJUNOK_clean_linker_0, # of connection points: 2
#     Edge 18, Type (0, 0), BuildingBlock: AJUNOK_clean_linker_0, # of connection points: 2
#     Edge 19, Type (0, 0), BuildingBlock: AJUNOK_clean_linker_0, # of connection points: 2
#     Edge 20, Type (0, 0), BuildingBlock: AJUNOK_clean_linker_0, # of connection points: 2
#     Edge 21, Type (0, 0), BuildingBlock: AJUNOK_clean_linker_0, # of connection points: 2
#     Edge 22, Type (0, 0), BuildingBlock: AJUNOK_clean_linker_0, # of connection points: 2
#     Edge 23, Type (0, 0), BuildingBlock: AJUNOK_clean_linker_0, # of connection points: 2
#     Edge 24, Type (0, 0), BuildingBlock: AJUNOK_clean_linker_0, # of connection points: 2
#     Edge 25, Type (0, 0), BuildingBlock: AJUNOK_clean_linker_0, # of connection points: 2
#     Edge 26, Type (0, 0), BuildingBlock: AJUNOK_clean_linker_0, # of connection points: 2
#     Edge 27, Type (0, 0), BuildingBlock: AJUNOK_clean_linker_0, # of connection points: 2
#     Edge 28, Type (0, 0), BuildingBlock: AJUNOK_clean_linker_0, # of connection points: 2
#     Edge 29, Type (0, 0), BuildingBlock: AJUNOK_clean_linker_0, # of connection points: 2
#     Edge 30, Type (0, 0), BuildingBlock: AJUNOK_clean_linker_0, # of connection points: 2
#     Edge 31, Type (0, 0), BuildingBlock: AJUNOK_clean_linker_0, # of connection points: 2
#     Edge 32, Type (0, 0), BuildingBlock: AJUNOK_clean_linker_0, # of connection points: 2
#     Edge 33, Type (0, 0), BuildingBlock: AJUNOK_clean_linker_0, # of connection points: 2
#     Edge 34, Type (0, 0), BuildingBlock: AJUNOK_clean_linker_0, # of connection points: 2
#     Edge 35, Type (0, 0), BuildingBlock: AJUNOK_clean_linker_0, # of connection points: 2
#     Edge 36, Type (0, 0), BuildingBlock: AJUNOK_clean_linker_0, # of connection points: 2
#     Edge 37, Type (0, 0), BuildingBlock: AJUNOK_clean_linker_0, # of connection points: 2
#     Edge 38, Type (0, 0), BuildingBlock: AJUNOK_clean_linker_0, # of connection points: 2
#     Edge 39, Type (0, 0), BuildingBlock: AJUNOK_clean_linker_0, # of connection points: 2
#     Edge 40, Type (0, 0), BuildingBlock: AJUNOK_clean_linker_0, # of connection points: 2
#     Edge 41, Type (0, 0), BuildingBlock: AJUNOK_clean_linker_0, # of connection points: 2
#     Edge 42, Type (0, 0), BuildingBlock: AJUNOK_clean_linker_0, # of connection points: 2
#     Edge 43, Type (0, 0), BuildingBlock: AJUNOK_clean_linker_0, # of connection points: 2
#     Edge 44, Type (0, 0), BuildingBlock: AJUNOK_clean_linker_0, # of connection points: 2
#     Edge 45, Type (0, 0), BuildingBlock: AJUNOK_clean_linker_0, # of connection points: 2
#     Edge 46, Type (0, 0), BuildingBlock: AJUNOK_clean_linker_0, # of connection points: 2
#     Edge 47, Type (0, 0), BuildingBlock: AJUNOK_clean_linker_0, # of connection points: 2
#     Edge 48, Type (0, 0), BuildingBlock: AJUNOK_clean_linker_0, # of connection points: 2
#     Edge 49, Type (0, 0), BuildingBlock: AJUNOK_clean_linker_0, # of connection points: 2
#     Edge 50, Type (0, 0), BuildingBlock: AJUNOK_clean_linker_0, # of connection points: 2
#     Edge 51, Type (0, 0), BuildingBlock: AJUNOK_clean_linker_0, # of connection points: 2
#     Edge 52, Type (0, 0), BuildingBlock: AJUNOK_clean_linker_0, # of connection points: 2
#     Edge 53, Type (0, 0), BuildingBlock: AJUNOK_clean_linker_0, # of connection points: 2
#     Edge 54, Type (0, 0), BuildingBlock: AJUNOK_clean_linker_0, # of connection points: 2
#     Edge 55, Type (0, 0), BuildingBlock: AJUNOK_clean_linker_0, # of connection points: 2
# Relax obj value: 0.225
# Max RMSD: 0.217
# Mean RMSD: 0.217
data_MOF--net-zfh--node1-XOMCOT_clean_sbu_1--edge1-AJUNOK_clean_linker_0
_symmetry_space_group_name_H-M    P1
_symmetry_Int_Tables_number       1
_symmetry_cell_setting            triclinic
loop_
_symmetry_equiv_pos_as_xyz
'x, y, z'
_cell_length_a     30.057672
_cell_length_b     30.207795
_cell_length_c     40.969557
_cell_angle_alpha  89.70799
_cell_angle_beta   89.926667
_cell_angle_gamma 89.928661
loop_
_atom_site_label
_atom_site_type_symbol
_atom_site_fract_x
_atom_site_fract_y
_atom_site_fract_z
_atom_type_partial_charge
C0 C 0.53479 0.27673 0.36643 0.0
C1 C 0.50964 0.31473 0.36378 0.0
N2 N 0.48694 0.31999 0.39178 0.0
N3 N 0.52678 0.25733 0.39563 0.0
C4 C 0.49823 0.28533 0.4108 0.0
H5 H 0.55656 0.26365 0.34779 0.0
Co6 Co 0.55066 0.20423 0.4126 0.0
C7 C 0.45178 0.18521 0.40571 0.0
O8 O 0.44475 0.22041 0.38763 0.0
N9 N 0.57589 0.15231 0.42981 0.0
C10 C 0.59682 0.08207 0.43637 0.0
C11 C 0.56459 0.10985 0.42384 0.0
C12 C 0.61494 0.14943 0.44588 0.0
N13 N 0.62882 0.10721 0.44974 0.0
O14 O 0.54635 0.22877 0.45544 0.0
H15 H 0.53639 0.09977 0.40945 0.0
H16 H 0.63355 0.17785 0.4539 0.0
O17 O 0.49108 0.17627 0.41602 0.0
C18 C 0.5809 0.25262 0.45948 0.0
O19 O 0.61055 0.25477 0.43592 0.0
N20 N 0.56004 0.18175 0.3707 0.0
C21 C 0.59065 0.14833 0.31146 0.0
C22 C 0.54482 0.15115 0.31796 0.0
C23 C 0.53009 0.16777 0.34794 0.0
C24 C 0.6045 0.17972 0.36452 0.0
C25 C 0.62053 0.16199 0.33561 0.0
H26 H 0.4949 0.16967 0.35232 0.0
H27 H 0.62785 0.19121 0.38266 0.0
H28 H 0.48328 0.27868 0.43437 0.0
H29 H 0.50677 0.33588 0.34247 0.0
H30 H 0.59768 0.04635 0.43446 0.0
H31 H 0.52059 0.14113 0.29992 0.0
H32 H 0.65614 0.15893 0.33237 0.0
C33 C 0.24978 0.51448 0.35638 0.0
C34 C 0.21336 0.48675 0.35625 0.0
N35 N 0.20995 0.46783 0.3859 0.0
N36 N 0.26961 0.51277 0.38603 0.0
C37 C 0.2441 0.48401 0.40336 0.0
H38 H 0.26048 0.5344 0.33594 0.0
Co39 Co 0.31967 0.54284 0.40394 0.0
C40 C 0.34814 0.45019 0.39459 0.0
O41 O 0.32523 0.45089 0.36733 0.0
N42 N 0.36769 0.57299 0.42239 0.0
C43 C 0.43179 0.59131 0.44563 0.0
C44 C 0.40865 0.55815 0.43028 0.0
C45 C 0.36716 0.61547 0.43247 0.0
N46 N 0.40545 0.62733 0.44737 0.0
O47 O 0.28995 0.54278 0.44549 0.0
H48 H 0.42085 0.52515 0.42591 0.0
H49 H 0.33889 0.63709 0.42916 0.0
O50 O 0.34915 0.48498 0.41245 0.0
C51 C 0.26257 0.57502 0.44306 0.0
O52 O 0.26423 0.59925 0.41638 0.0
N53 N 0.34702 0.54921 0.36316 0.0
C54 C 0.38815 0.58183 0.30704 0.0
C55 C 0.40664 0.54597 0.32413 0.0
C56 C 0.386 0.53065 0.35266 0.0
C57 C 0.32913 0.58435 0.34687 0.0
C58 C 0.34853 0.60059 0.31843 0.0
H59 H 0.40289 0.50577 0.36696 0.0
H60 H 0.29986 0.60054 0.3565 0.0
H61 H 0.25057 0.47462 0.42844 0.0
H62 H 0.1905 0.48176 0.33621 0.0
H63 H 0.46466 0.58834 0.45619 0.0
H64 H 0.43778 0.53131 0.31635 0.0
H65 H 0.33304 0.62815 0.30579 0.0
C66 C 0.98882 0.2342 0.36647 0.0
C67 C 1.01235 0.19501 0.36761 0.0
N68 N 0.04602 0.19973 0.38896 0.0
N69 N 1.00753 0.26323 0.3872 0.0
C70 C 0.04264 0.24141 0.40023 0.0
H71 H 0.95781 0.23973 0.35372 0.0
Co72 Co 0.98094 0.31393 0.40397 0.0
C73 C 0.06093 0.3614 0.42797 0.0
O74 O 0.04412 0.36512 0.45745 0.0
N75 N 0.95355 0.36455 0.42126 0.0
C76 C 0.93242 0.43339 0.43301 0.0
C77 C 0.96272 0.4078 0.41611 0.0
C78 C 0.91733 0.36478 0.44074 0.0
N79 N 0.90383 0.40606 0.44843 0.0
O80 O 0.98696 0.28883 0.44692 0.0
H81 H 0.98972 0.41998 0.40108 0.0
H82 H 0.90063 0.33516 0.44905 0.0
O83 O 0.03874 0.34194 0.40582 0.0
C84 C 0.95459 0.26215 0.45109 0.0
O85 O 0.92458 0.25887 0.42792 0.0
N86 N 0.97149 0.33608 0.36192 0.0
C87 C 0.94693 0.36971 0.30111 0.0
C88 C 0.99199 0.36564 0.30959 0.0
C89 C 1.00364 0.34848 0.34018 0.0
C90 C 0.92767 0.33852 0.35369 0.0
C91 C 0.91462 0.35545 0.32349 0.0
H92 H 0.03834 0.34488 0.34614 0.0
H93 H 0.90266 0.32761 0.37094 0.0
H94 H 0.06235 0.25412 0.4202 0.0
H95 H 1.0035 0.16442 0.35561 0.0
H96 H 0.93232 0.46914 0.43456 0.0
H97 H 0.01797 0.375 0.29257 0.0
H98 H 0.8795 0.35778 0.31782 0.0
C99 C 0.28101 0.99692 0.36795 0.0
C100 C 0.31838 0.0231 0.36625 0.0
N101 N 0.31491 0.05474 0.38915 0.0
N102 N 0.2543 1.01199 0.39191 0.0
C103 C 0.27577 0.04734 0.40435 0.0
H104 H 0.2747 0.9675 0.35376 0.0
Co105 Co 0.20477 0.98307 0.40873 0.0
C106 C 0.15146 0.05525 0.43879 0.0
O107 O 0.1415 0.03136 0.46465 0.0
N108 N 0.1548 0.95295 0.42555 0.0
C109 C 0.0865 0.92573 0.43198 0.0
C110 C 0.11143 0.95912 0.41808 0.0
C111 C 0.1552 0.9158 0.44399 0.0
N112 N 0.11425 0.89812 0.44796 0.0
O113 O 0.23369 0.98064 0.45049 0.0
H114 H 0.09887 0.98541 0.4026 0.0
H115 H 0.18508 0.90188 0.45434 0.0
O116 O 0.17729 0.03973 0.41705 0.0
C117 C 0.25987 0.94746 0.44804 0.0
O118 O 0.25887 0.92486 0.42072 0.0
N119 N 0.17933 0.9817 0.36751 0.0
C120 C 0.13772 0.967 0.30824 0.0
C121 C 0.14278 1.01025 0.31993 0.0
C122 C 0.16402 0.01701 0.34983 0.0
C123 C 0.17651 0.93981 0.35567 0.0
C124 C 0.15536 0.93163 0.32622 0.0
H125 H 0.16774 0.05039 0.35875 0.0
H126 H 0.18986 0.91246 0.36974 0.0
H127 H 0.26426 0.06555 0.42544 0.0
H128 H 0.34647 0.01865 0.35002 0.0
H129 H 0.05089 0.92146 0.42973 0.0
H130 H 0.1299 0.03832 0.30635 0.0
H131 H 0.1529 0.89791 0.31752 0.0
C132 C 0.02579 0.7603 0.13875 0.0
C133 C 0.99954 0.72302 0.14154 0.0
N134 N 0.97379 0.7202 0.11472 0.0
N135 N 0.01625 0.78108 0.11041 0.0
C136 C 0.98415 0.75612 0.09655 0.0
H137 H 0.05166 0.77032 0.15547 0.0
Co138 Co 0.04548 0.8285 0.09013 0.0
C139 C 0.96514 0.86957 0.05883 0.0
O140 O 0.98062 0.86731 0.02889 0.0
N141 N 0.07452 0.87602 0.06943 0.0
C142 C 0.09416 0.94244 0.05067 0.0
C143 C 0.06181 0.91878 0.067 0.0
C144 C 0.11498 0.8748 0.05512 0.0
N145 N 0.12789 0.91472 0.04337 0.0
O146 O 0.04528 0.79603 0.05005 0.0
H147 H 0.03106 0.93211 0.07654 0.0
H148 H 0.13499 0.84512 0.05368 0.0
O149 O 0.98837 0.85509 0.08248 0.0
C150 C 0.0781 0.76944 0.05301 0.0
O151 O 0.10249 0.77254 0.0795 0.0
N152 N 0.05012 0.85798 0.12959 0.0
C153 C 0.06972 0.90379 0.18625 0.0
C154 C 0.02537 0.89755 0.17679 0.0
C155 C 0.01617 0.87439 0.14812 0.0
C156 C 0.09317 0.86208 0.13933 0.0
C157 C 0.10378 0.88522 0.16745 0.0
H158 H 0.98202 0.86948 0.14108 0.0
H159 H 0.11949 0.84758 0.12486 0.0
H160 H 0.96997 0.76329 0.07284 0.0
H161 H 1.00129 0.69839 0.16079 0.0
H162 H 0.09209 0.97703 0.0439 0.0
H163 H 0.99826 0.91057 0.19132 0.0
H164 H 0.13831 0.888 0.1747 0.0
C165 C 0.78144 0.0306 0.12651 0.0
C166 C 0.81875 1.00382 0.12665 0.0
N167 N 0.81773 0.97856 0.0997 0.0
N168 N 0.75692 0.02154 0.09979 0.0
C169 C 0.77994 0.98957 0.0841 0.0
H170 H 0.77367 0.05616 0.14401 0.0
Co171 Co 0.70658 0.04993 0.08267 0.0
C172 C 0.6695 0.96419 0.05806 0.0
O173 O 0.68273 0.97116 0.02791 0.0
N174 N 0.65626 0.07757 0.06471 0.0
C175 C 0.58806 0.09534 0.04812 0.0
C176 C 0.61353 0.0639 0.06396 0.0
C177 C 0.65575 0.11741 0.04974 0.0
N178 N 0.61478 0.12918 0.03933 0.0
O179 O 0.73329 0.04716 0.04016 0.0
H180 H 0.60156 0.03296 0.07401 0.0
H181 H 0.68501 0.13777 0.04675 0.0
O182 O 0.67763 0.99294 0.07989 0.0
C183 C 0.75976 0.08025 0.04063 0.0
O184 O 0.75929 0.10556 0.06667 0.0
N185 N 0.68337 0.05822 0.12437 0.0
C186 C 0.65385 0.08374 0.18591 0.0
C187 C 0.66096 0.03878 0.17882 0.0
C188 C 0.67593 0.02662 0.14767 0.0
C189 C 0.67714 0.10184 0.13116 0.0
C190 C 0.66102 0.11516 0.16124 0.0
H191 H 0.68328 0.99231 0.14271 0.0
H192 H 0.68503 0.12675 0.11305 0.0
H193 H 0.77007 0.97566 0.06092 0.0
H194 H 0.84559 1.00443 0.14423 0.0
H195 H 0.55302 0.09253 0.04252 0.0
H196 H 0.65621 0.01354 0.19735 0.0
H197 H 0.65479 0.15004 0.16519 0.0
C198 C 0.49824 0.7837 0.11752 0.0
C199 C 0.52379 0.82143 0.1175 0.0
N200 N 0.55809 0.81586 0.09662 0.0
N201 N 0.51655 0.75405 0.0971 0.0
C202 C 0.55312 0.77433 0.08492 0.0
H203 H 0.46668 0.77936 0.12983 0.0
Co204 Co 0.48844 0.70409 0.0809 0.0
C205 C 0.55284 0.63182 0.08962 0.0
O206 O 0.51868 0.60798 0.09931 0.0
N207 N 0.45871 0.65443 0.06239 0.0
C208 C 0.44264 0.6022 0.02586 0.0
C209 C 0.47579 0.62782 0.03901 0.0
C210 C 0.41458 0.64517 0.06188 0.0
N211 N 0.40399 0.61353 0.04004 0.0
O212 O 0.49578 0.72812 0.03796 0.0
H213 H 0.50962 0.62936 0.0301 0.0
H214 H 0.3898 0.66396 0.07478 0.0
O215 O 0.54658 0.67178 0.07966 0.0
C216 C 0.45963 0.74756 0.03006 0.0
O217 O 0.42524 0.74426 0.04973 0.0
N218 N 0.4778 0.68442 0.1242 0.0
C219 C 0.45621 0.65509 0.18658 0.0
C220 C 0.50067 0.66171 0.17795 0.0
C221 C 0.51075 0.67781 0.14677 0.0
C222 C 0.43446 0.68342 0.13395 0.0
C223 C 0.42277 0.66758 0.16478 0.0
H224 H 0.54508 0.68462 0.14076 0.0
H225 H 0.40882 0.69633 0.1183 0.0
H226 H 0.57421 0.75951 0.06658 0.0
H227 H 0.51589 0.8518 0.13018 0.0
H228 H 0.44598 0.58024 0.00518 0.0
H229 H 0.52718 0.65464 0.1951 0.0
H230 H 0.38801 0.66551 0.17165 0.0
C231 C 0.75286 0.47139 0.11362 0.0
C232 C 0.71402 0.49319 0.121 0.0
N233 N 0.71515 0.53391 0.10723 0.0
N234 N 0.77853 0.49801 0.09517 0.0
C235 C 0.75469 0.53573 0.09147 0.0
H236 H 0.76082 0.43738 0.11962 0.0
Co237 Co 0.82968 0.48033 0.07342 0.0
C238 C 0.8913 0.55459 0.08618 0.0
O239 O 0.92126 0.52513 0.09488 0.0
N240 N 0.88072 0.46148 0.04941 0.0
C241 C 0.93757 0.46024 0.01433 0.0
C242 C 0.90894 0.4867 0.03156 0.0
C243 C 0.89141 0.41954 0.04059 0.0
N244 N 0.92609 0.41781 0.01961 0.0
O245 O 0.79914 0.491 0.03292 0.0
H246 H 0.90721 0.52216 0.02898 0.0
H247 H 0.87171 0.39085 0.04696 0.0
O248 O 0.85302 0.54211 0.07581 0.0
C249 C 0.78045 0.45457 0.02512 0.0
O250 O 0.78841 0.41944 0.04324 0.0
N251 N 0.85623 0.46547 0.11414 0.0
C252 C 0.88812 0.4369 0.17482 0.0
C253 C 0.87256 0.48031 0.17057 0.0
C254 C 0.85594 0.49368 0.14021 0.0
C255 C 0.86878 0.42248 0.11862 0.0
C256 C 0.88565 0.40776 0.14843 0.0
H257 H 0.84198 0.52652 0.13784 0.0
H258 H 0.86394 0.3986 0.09966 0.0
H259 H 0.76522 0.56306 0.07614 0.0
H260 H 0.68585 0.47867 0.13353 0.0
H261 H 0.96336 0.4717 -0.00208 0.0
H262 H 0.87179 0.50326 0.19079 0.0
H263 H 0.89589 0.37352 0.15097 0.0
C264 C 0.51068 0.74395 0.62907 0.0
C265 C 0.53708 0.70655 0.62879 0.0
N266 N 0.55383 0.70154 0.59851 0.0
N267 N 0.51103 0.7628 0.59911 0.0
C268 C 0.53664 0.73531 0.58093 0.0
H269 H 0.49255 0.75644 0.64989 0.0
Co270 Co 0.48111 0.81393 0.58363 0.0
C271 C 0.57909 0.83882 0.58347 0.0
O272 O 0.58976 0.80323 0.60015 0.0
N273 N 0.45017 0.86345 0.5677 0.0
C274 C 0.42806 0.93101 0.55307 0.0
C275 C 0.45981 0.90694 0.56983 0.0
C276 C 0.41162 0.86214 0.55095 0.0
N277 N 0.39803 0.90252 0.54081 0.0
O278 O 0.48059 0.78882 0.54058 0.0
H279 H 0.48785 0.92031 0.58292 0.0
H280 H 0.39333 0.83205 0.54676 0.0
O281 O 0.53828 0.84574 0.57565 0.0
C282 C 0.44765 0.76216 0.5402 0.0
O283 O 0.42414 0.75743 0.56709 0.0
N284 N 0.47601 0.83692 0.62583 0.0
C285 C 0.45048 0.87323 0.68559 0.0
C286 C 0.49557 0.87167 0.6764 0.0
C287 C 0.50767 0.8538 0.64614 0.0
C288 C 0.4325 0.83641 0.63505 0.0
C289 C 0.41892 0.85512 0.66432 0.0
H290 H 0.54229 0.85338 0.63954 0.0
H291 H 0.40784 0.82239 0.61893 0.0
H292 H 0.54332 0.74048 0.55527 0.0
H293 H 0.54396 0.68512 0.64943 0.0
H294 H 0.42776 0.96654 0.54951 0.0
H295 H 0.52139 0.8836 0.69249 0.0
H296 H 0.38373 0.85569 0.67002 0.0
C297 C 0.78403 0.50478 0.63111 0.0
C298 C 0.821 0.53177 0.63123 0.0
N299 N 0.82291 0.55327 0.60241 0.0
N300 N 0.76232 0.50979 0.60251 0.0
C301 C 0.78684 0.53974 0.58565 0.0
H302 H 0.77469 0.48171 0.65018 0.0
Co303 Co 0.71371 0.47726 0.58661 0.0
C304 C 0.67673 0.56329 0.55951 0.0
O305 O 0.70095 0.56465 0.53282 0.0
N306 N 0.66507 0.44512 0.57054 0.0
C307 C 0.59629 0.41988 0.56361 0.0
C308 C 0.62173 0.45281 0.5771 0.0
C309 C 0.66507 0.40749 0.55287 0.0
N310 N 0.62359 0.39112 0.54849 0.0
O311 O 0.74066 0.47757 0.54402 0.0
H312 H 0.60942 0.47989 0.59169 0.0
H313 H 0.69497 0.39269 0.54319 0.0
O314 O 0.68098 0.53125 0.57951 0.0
C315 C 0.76939 0.4464 0.54515 0.0
O316 O 0.77146 0.4225 0.57203 0.0
N317 N 0.68977 0.47274 0.6285 0.0
C318 C 0.6484 0.45379 0.68755 0.0
C319 C 0.65259 0.49777 0.67682 0.0
C320 C 0.67367 0.50666 0.64703 0.0
C321 C 0.68809 0.43018 0.63953 0.0
C322 C 0.66702 0.41988 0.66881 0.0
H323 H 0.67659 0.54057 0.63881 0.0
H324 H 0.70201 0.40391 0.62484 0.0
H325 H 0.77924 0.55042 0.56106 0.0
H326 H 0.84576 0.53377 0.65033 0.0
H327 H 0.56048 0.41695 0.56535 0.0
H328 H 0.63897 0.52478 0.69098 0.0
H329 H 0.6652 0.38566 0.67674 0.0
C330 C 0.04529 0.7852 0.62494 0.0
C331 C 0.01991 0.82313 0.62629 0.0
N332 N 0.98566 0.81916 0.60522 0.0
N333 N 0.02722 0.75738 0.60311 0.0
C334 C 0.991 0.7789 0.59153 0.0
H335 H 0.07652 0.77954 0.63737 0.0
Co336 Co 0.05343 0.70689 0.58575 0.0
C337 C 0.97445 0.65872 0.56228 0.0
O338 O 0.99131 0.65737 0.53271 0.0
N339 N 0.08009 0.65625 0.56789 0.0
C340 C 0.10147 0.58718 0.55691 0.0
C341 C 0.07255 0.61308 0.57481 0.0
C342 C 0.11389 0.6557 0.54626 0.0
N343 N 0.12707 0.61434 0.53883 0.0
O344 O 0.04634 0.7324 0.54313 0.0
H345 H 0.04776 0.60121 0.59189 0.0
H346 H 0.12927 0.68503 0.53626 0.0
O347 O 0.99578 0.67834 0.58483 0.0
C348 C 0.07925 0.75835 0.53858 0.0
O349 O 0.10995 0.761 0.5613 0.0
N350 N 0.06441 0.68469 0.62741 0.0
C351 C 0.09265 0.65308 0.68784 0.0
C352 C 0.04706 0.65747 0.68099 0.0
C353 C 0.03351 0.67365 0.65047 0.0
C354 C 0.10868 0.68115 0.63385 0.0
C355 C 0.12352 0.66463 0.66362 0.0
H356 H 0.99846 0.67789 0.64561 0.0
H357 H 0.13268 0.69083 0.61547 0.0
H358 H 0.97038 0.76623 0.57206 0.0
H359 H 0.0281 0.85255 0.63997 0.0
H360 H 0.10297 0.55138 0.55663 0.0
H361 H 0.02224 0.64927 0.69922 0.0
H362 H 0.15895 0.66088 0.66758 0.0
C363 C 0.73542 0.04321 0.61097 0.0
C364 C 0.69735 0.01789 0.61066 0.0
N365 N 0.70663 0.97977 0.5952 0.0
N366 N 0.76834 0.02097 0.59579 0.0
C367 C 0.7499 0.98221 0.5867 0.0
H368 H 0.73828 0.07672 0.6199 0.0
Co369 Co 0.82132 0.04567 0.58124 0.0
C370 C 0.87197 0.96439 0.56351 0.0
O371 O 0.87329 0.97631 0.53265 0.0
N372 N 0.87446 0.07147 0.5659 0.0
C373 C 0.94359 0.09759 0.56283 0.0
C374 C 0.91646 0.06587 0.57681 0.0
C375 C 0.87718 0.10601 0.54502 0.0
N376 N 0.91865 0.12307 0.54279 0.0
O377 O 0.80107 0.03662 0.53762 0.0
H378 H 0.92617 0.04215 0.59536 0.0
H379 H 0.84882 0.1194 0.53232 0.0
O380 O 0.85097 0.98834 0.58395 0.0
C381 C 0.77543 0.06924 0.53138 0.0
O382 O 0.77164 0.10103 0.553 0.0
N383 N 0.83797 0.05761 0.62407 0.0
C384 C 0.86958 0.07877 0.68564 0.0
C385 C 0.85512 0.03569 0.67886 0.0
C386 C 0.83855 0.02599 0.64793 0.0
C387 C 0.84859 0.10037 0.63101 0.0
C388 C 0.86517 0.11157 0.66156 0.0
H389 H 0.82668 0.99297 0.64296 0.0
H390 H 0.84541 0.12569 0.6124 0.0
H391 H 0.76687 0.95764 0.57209 0.0
H392 H 0.66511 0.02712 0.6203 0.0
H393 H 0.97824 0.10272 0.56866 0.0
H394 H 0.85751 1.00955 0.69696 0.0
H395 H 0.87473 0.14551 0.66627 0.0
C396 C 1.00023 0.27214 0.8575 0.0
C397 C 0.02589 0.3096 0.85406 0.0
N398 N 0.0554 0.31083 0.8788 0.0
N399 N 1.01377 0.24955 0.88413 0.0
C400 C 0.04782 0.27359 0.89629 0.0
H401 H 0.97178 0.26356 0.84272 0.0
Co402 Co 0.98579 0.202 0.90497 0.0
C403 C 0.06664 0.15671 0.93136 0.0
O404 O 0.05156 0.15623 0.96147 0.0
N405 N 0.95767 0.15445 0.92571 0.0
C406 C 0.93388 0.08702 0.93923 0.0
C407 C 0.9666 0.11074 0.92329 0.0
C408 C 0.9194 0.15644 0.94283 0.0
N409 N 0.90412 0.11599 0.9513 0.0
O410 O 0.99179 0.23269 0.94571 0.0
H411 H 0.99452 0.09689 0.91015 0.0
H412 H 0.90223 0.18696 0.94835 0.0
O413 O 0.04309 0.17359 0.9087 0.0
C414 C 0.96025 0.26105 0.9455 0.0
O415 O 0.93126 0.25974 0.92153 0.0
N416 N 0.9753 0.17502 0.86524 0.0
C417 C 0.9444 0.13667 0.80825 0.0
C418 C 0.98935 0.13278 0.81702 0.0
C419 C 1.00427 0.15226 0.84588 0.0
C420 C 0.93186 0.17982 0.85665 0.0
C421 C 0.91568 0.161 0.82821 0.0
H422 H 0.03872 0.14868 0.85254 0.0
H423 H 0.90964 0.19841 0.87221 0.0
H424 H 0.06519 0.26491 0.91852 0.0
H425 H 0.02097 0.3356 0.83613 0.0
H426 H 0.93248 0.05141 0.94211 0.0
H427 H 1.0125 0.11454 0.80189 0.0
H428 H 0.88108 0.16587 0.82174 0.0
C429 C 0.25301 0.99585 0.86661 0.0
C430 C 0.21584 0.02274 0.86526 0.0
N431 N 0.21565 0.04849 0.89199 0.0
N432 N 0.27617 1.00513 0.89394 0.0
C433 C 0.25243 0.03734 0.9088 0.0
H434 H 0.26182 0.97038 0.84931 0.0
Co435 Co 0.32698 0.97821 0.91154 0.0
C436 C 0.37099 0.06073 0.93575 0.0
O437 O 0.37331 0.04602 0.96593 0.0
N438 N 0.37793 0.95168 0.92961 0.0
C439 C 0.4479 0.93101 0.93896 0.0
C440 C 0.42097 0.96331 0.92557 0.0
C441 C 0.37958 0.91234 0.94537 0.0
N442 N 0.4217 0.89866 0.95096 0.0
O443 O 0.30016 0.98201 0.95406 0.0
H444 H 0.43219 0.99235 0.91241 0.0
H445 H 0.35037 0.89358 0.95206 0.0
O446 O 0.35405 0.03641 0.9137 0.0
C447 C 0.2742 0.94855 0.95519 0.0
O448 O 0.27441 0.92131 0.93025 0.0
N449 N 0.35062 0.96919 0.8699 0.0
C450 C 0.38545 0.94257 0.8099 0.0
C451 C 0.37816 0.9877 0.81655 0.0
C452 C 0.36104 1.0004 0.84697 0.0
C453 C 0.35573 0.92537 0.86332 0.0
C454 C 0.37409 0.91143 0.83401 0.0
H455 H 0.35519 0.03495 0.85172 0.0
H456 H 0.3459 0.90089 0.88127 0.0
H457 H 0.2614 0.05178 0.932 0.0
H458 H 0.19001 0.02212 0.84688 0.0
H459 H 0.48391 0.93054 0.9388 0.0
H460 H 0.38459 0.01292 0.7983 0.0
H461 H 0.37918 0.87632 0.83033 0.0
C462 C 0.51795 0.25375 0.86415 0.0
C463 C 0.49112 0.21671 0.86412 0.0
N464 N 0.46927 0.21489 0.8928 0.0
N465 N 0.51269 0.27538 0.89265 0.0
C466 C 0.48274 0.25077 0.90952 0.0
H467 H 0.54083 0.26338 0.84501 0.0
Co468 Co 0.54296 0.32536 0.90851 0.0
C469 C 0.46663 0.37562 0.93646 0.0
O470 O 0.48659 0.38088 0.96468 0.0
N471 N 0.57306 0.3755 0.92459 0.0
C472 C 0.59787 0.44452 0.92972 0.0
C473 C 0.56487 0.41826 0.91694 0.0
C474 C 0.61113 0.37675 0.94212 0.0
N475 N 0.62703 0.41837 0.94575 0.0
O476 O 0.54196 0.29939 0.95122 0.0
H477 H 0.53773 0.4295 0.90168 0.0
H478 H 0.62752 0.34752 0.95151 0.0
O479 O 0.48609 0.35429 0.91384 0.0
C480 C 0.57498 0.27277 0.95075 0.0
O481 O 0.60028 0.27238 0.92453 0.0
N482 N 0.54881 0.34831 0.86647 0.0
C483 C 0.57328 0.38792 0.8079 0.0
C484 C 0.52841 0.38653 0.81728 0.0
C485 C 0.51674 0.36654 0.847 0.0
C486 C 0.59207 0.34721 0.85665 0.0
C487 C 0.60513 0.36717 0.82758 0.0
H488 H 0.48236 0.36648 0.85445 0.0
H489 H 0.61685 0.33195 0.8722 0.0
H490 H 0.47164 0.2584 0.93399 0.0
H491 H 0.48934 0.19194 0.84516 0.0
H492 H 0.60103 0.47983 0.92597 0.0
H493 H 0.50294 0.40167 0.80222 0.0
H494 H 0.63992 0.36665 0.82061 0.0
C495 C 0.28081 0.54052 0.87762 0.0
C496 C 0.31914 0.51534 0.87622 0.0
N497 N 0.31627 0.48342 0.89913 0.0
N498 N 0.25395 0.52409 0.90116 0.0
C499 C 0.27671 0.48943 0.9139 0.0
H500 H 0.27397 0.57013 0.86353 0.0
Co501 Co 0.20198 0.54832 0.91888 0.0
C502 C 0.13713 0.47728 0.90625 0.0
O503 O 0.11015 0.50759 0.89441 0.0
N504 N 0.15027 0.57309 0.93887 0.0
C505 C 0.09219 0.58286 0.9722 0.0
C506 C 0.11793 0.55228 0.95613 0.0
C507 C 0.14445 0.61629 0.94659 0.0
N508 N 0.10883 0.62318 0.96594 0.0
O509 O 0.22727 0.5406 0.96141 0.0
H510 H 0.11567 0.51702 0.96006 0.0
H511 H 0.16856 0.64187 0.94129 0.0
O512 O 0.17478 0.48843 0.91842 0.0
C513 C 0.24889 0.57657 0.96528 0.0
O514 O 0.24683 0.60665 0.94203 0.0
N515 N 0.18059 0.56106 0.8763 0.0
C516 C 0.15389 0.58878 0.81419 0.0
C517 C 0.16567 0.54448 0.81994 0.0
C518 C 0.17993 0.53146 0.85109 0.0
C519 C 0.17158 0.60456 0.87033 0.0
C520 C 0.15685 0.61884 0.83993 0.0
H521 H 0.19095 0.49775 0.85489 0.0
H522 H 0.17724 0.62901 0.88876 0.0
H523 H 0.26556 0.47037 0.9348 0.0
H524 H 0.34786 0.52141 0.86088 0.0
H525 H 0.06669 0.57568 0.99015 0.0
H526 H 0.16501 0.5205 0.80039 0.0
H527 H 0.14848 0.65344 0.83654 0.0
C528 C 0.39317 0.07473 0.39915 0.0
C529 C 0.34813 0.08707 0.3973 0.0
C530 C 0.42653 0.10634 0.40431 0.0
C531 C 0.41607 0.15154 0.40719 0.0
H532 H 0.40268 0.04044 0.39595 0.0
H533 H 0.46076 0.09548 0.40421 0.0
S534 S 0.30273 0.20046 0.40587 0.0
N535 N 0.29445 0.14694 0.40049 0.0
N536 N 0.35709 0.20667 0.40958 0.0
C537 C 0.37092 0.16403 0.40658 0.0
C538 C 0.33695 0.13171 0.40183 0.0
C539 C 0.42001 0.41924 0.41692 0.0
C540 C 0.38 0.41307 0.39956 0.0
C541 C 0.45461 0.38785 0.41536 0.0
C542 C 0.45003 0.34937 0.39663 0.0
H543 H 0.42562 0.44933 0.43044 0.0
H544 H 0.48569 0.39441 0.42776 0.0
S545 S 0.34989 0.31325 0.35177 0.0
N546 N 0.33615 0.36199 0.36687 0.0
N547 N 0.40148 0.30395 0.3638 0.0
C548 C 0.40938 0.34122 0.38125 0.0
C549 C 0.37421 0.37278 0.38286 0.0
C550 C 0.1169 0.42176 0.43724 0.0
C551 C 0.10243 0.38523 0.41883 0.0
C552 C 0.15284 0.44799 0.42679 0.0
C553 C 0.17526 0.4389 0.39742 0.0
H554 H 0.09944 0.43113 0.4593 0.0
H555 H 0.16223 0.47651 0.44113 0.0
S556 S 0.15561 0.34344 0.34307 0.0
N557 N 0.1176 0.33825 0.37197 0.0
N558 N 0.18382 0.38868 0.35193 0.0
C559 C 0.16258 0.40153 0.3796 0.0
C560 C 0.12655 0.37439 0.39043 0.0
C561 C 0.14461 0.13081 0.41392 0.0
C562 C 0.12457 0.0946 0.42999 0.0
C563 C 0.11884 0.16577 0.40124 0.0
C564 C 0.07221 0.16477 0.40316 0.0
H565 H 0.18039 0.13176 0.41075 0.0
H566 H 0.13524 0.19309 0.38899 0.0
S567 S 1.00349 0.07813 0.44283 0.0
N568 N 0.0552 0.06074 0.44773 0.0
N569 N 1.00702 0.12564 0.42285 0.0
C570 C 0.05182 0.12909 0.41931 0.0
C571 C 0.07797 0.09419 0.43302 0.0
C572 C 0.86821 0.91528 0.10775 0.0
C573 C 0.85226 0.94975 0.08796 0.0
C574 C 0.90305 0.88795 0.09718 0.0
C575 C 0.92402 0.89474 0.06672 0.0
H576 H 0.85361 0.90957 0.13158 0.0
H577 H 0.91409 0.86167 0.11331 0.0
S578 S 0.89458 0.98161 0.0062 0.0
N579 N 0.8592 0.98932 0.03653 0.0
N580 N 0.9256 0.9388 0.01689 0.0
C581 C 0.90762 0.92872 0.04643 0.0
C582 C 0.87165 0.95613 0.05706 0.0
C583 C 0.60119 0.88314 0.10884 0.0
C584 C 0.58924 0.84993 0.08662 0.0
C585 C 0.62742 0.91924 0.09938 0.0
C586 C 0.64333 0.92399 0.06718 0.0
H587 H 0.58966 0.88154 0.13386 0.0
H588 H 0.63445 0.94403 0.11755 0.0
S589 S 0.62273 0.84569 -0.00073 0.0
N590 N 0.59627 0.82371 0.03072 0.0
N591 N 0.64593 0.89144 0.01302 0.0
C592 C 0.63261 0.89049 0.04473 0.0
C593 C 0.60569 0.85349 0.05442 0.0
C594 C 0.63181 0.61539 0.07265 0.0
C595 C 0.59786 0.61397 0.09622 0.0
C596 C 0.67161 0.59138 0.07722 0.0
C597 C 0.67851 0.56503 0.10536 0.0
H598 H 0.62665 0.6331 0.0499 0.0
H599 H 0.69608 0.59177 0.05787 0.0
S600 S 0.60419 0.56006 0.17769 0.0
N601 N 0.57676 0.5905 0.15089 0.0
N602 N 0.65151 0.5468 0.15973 0.0
C603 C 0.64648 0.56721 0.13032 0.0
C604 C 0.60613 0.59119 0.12562 0.0
C605 C 0.921 0.66044 0.12887 0.0
C606 C 0.94688 0.68277 0.10536 0.0
C607 C 0.89936 0.62053 0.12149 0.0
C608 C 0.90274 0.60162 0.09031 0.0
H609 H 0.91883 0.67317 0.15348 0.0
H610 H 0.88192 0.60311 0.14081 0.0
S611 S 0.96646 0.64625 0.02013 0.0
N612 N 0.9743 0.68274 0.04945 0.0
N613 N 0.93346 0.60794 0.03577 0.0
C614 C 0.92717 0.6242 0.06629 0.0
C615 C 0.94919 0.66483 0.07372 0.0
C616 C 0.6562 0.86663 0.5935 0.0
C617 C 0.61317 0.87449 0.58085 0.0
C618 C 0.68716 0.9009 0.59693 0.0
C619 C 0.67623 0.94444 0.58821 0.0
H620 H 0.66577 0.83398 0.602 0.0
H621 H 0.71919 0.89372 0.60783 0.0
S622 S 0.57253 0.98189 0.54786 0.0
N623 N 0.56458 0.92852 0.55464 0.0
N624 N 0.62246 0.99316 0.5624 0.0
C625 C 0.63481 0.95256 0.57356 0.0
C626 C 0.60342 0.91749 0.56946 0.0
C627 C 0.61095 0.59119 0.59086 0.0
C628 C 0.64467 0.59922 0.56762 0.0
C629 C 0.58139 0.62455 0.60054 0.0
C630 C 0.5842 0.66756 0.5875 0.0
H631 H 0.60722 0.55877 0.60186 0.0
H632 H 0.55593 0.61652 0.61831 0.0
S633 S 0.66809 0.70702 0.52738 0.0
N634 N 0.67982 0.65401 0.53245 0.0
N635 N 0.62486 0.71703 0.55113 0.0
C636 C 0.61783 0.67628 0.56431 0.0
C637 C 0.64786 0.64208 0.55426 0.0
C638 C 0.8773 0.61295 0.61172 0.0
C639 C 0.85864 0.58117 0.59095 0.0
C640 C 0.91367 0.63881 0.60178 0.0
C641 C 0.93333 0.63356 0.57075 0.0
H642 H 0.86366 0.61772 0.63593 0.0
H643 H 0.92678 0.66274 0.61882 0.0
S644 S 0.89766 0.55318 0.50764 0.0
N645 N 0.86273 0.54506 0.53822 0.0
N646 N 0.93113 0.59334 0.5194 0.0
C647 C 0.91457 0.60204 0.54958 0.0
C648 C 0.87729 0.57591 0.55971 0.0
C649 C 0.91345 0.89338 0.55291 0.0
C650 C 0.89858 0.9256 0.57515 0.0
C651 C 0.94056 0.85787 0.56302 0.0
C652 C 0.95446 0.85341 0.59573 0.0
H653 H 0.90442 0.89574 0.52737 0.0
H654 H 0.95166 0.8345 0.54485 0.0
S655 S 0.92337 0.92731 0.66407 0.0
N656 N 0.89949 0.94969 0.63173 0.0
N657 N 0.94899 0.88265 0.65063 0.0
C658 C 0.93889 0.88461 0.61833 0.0
C659 C 0.91138 0.92071 0.60809 0.0
C660 C 0.16091 0.07232 0.93333 0.0
C661 C 0.1808 0.07784 0.90249 0.0
C662 C 0.12498 0.09901 0.94312 0.0
C663 C 0.10807 0.13251 0.92251 0.0
H664 H 0.17229 0.04617 0.94948 0.0
H665 H 0.10953 0.09236 0.96653 0.0
S666 S 0.15409 0.16453 0.84151 0.0
N667 N 0.18424 0.12136 0.8528 0.0
N668 N 0.1183 0.17303 0.87145 0.0
C669 C 0.1297 0.13987 0.89237 0.0
C670 C 0.16561 0.11212 0.88227 0.0
C671 C 0.42683 0.1214 0.94543 0.0
C672 C 0.39258 0.10328 0.92619 0.0
C673 C 0.4509 0.15878 0.93489 0.0
C674 C 0.44187 0.17912 0.90463 0.0
H675 H 0.43617 0.10578 0.96827 0.0
H676 H 0.47787 0.17089 0.94989 0.0
S677 S 0.35137 0.14958 0.84762 0.0
N678 N 0.3473 0.11275 0.87739 0.0
N679 N 0.3939 0.18152 0.85722 0.0
C680 C 0.40664 0.16271 0.88591 0.0
C681 C 0.38163 0.12524 0.89681 0.0
C682 C 0.41283 0.43783 0.94682 0.0
C683 C 0.42484 0.40004 0.92875 0.0
C684 C 0.37664 0.46453 0.9374 0.0
C685 C 0.35139 0.45442 0.90961 0.0
H686 H 0.43236 0.44779 0.96772 0.0
H687 H 0.36904 0.49395 0.95132 0.0
S688 S 0.36496 0.3571 0.85618 0.0
N689 N 0.40505 0.35187 0.88348 0.0
N690 N 0.33824 0.40316 0.86553 0.0
C691 C 0.36176 0.41619 0.89207 0.0
C692 C 0.39815 0.38867 0.90174 0.0
C693 C 0.12232 0.41478 0.86913 0.0
C694 C 0.12516 0.43062 0.90122 0.0
C695 C 0.10183 0.37425 0.8623 0.0
C696 C 0.08291 0.34824 0.88726 0.0
H697 H 0.13428 0.43482 0.84895 0.0
H698 H 0.09919 0.36396 0.8371 0.0
S699 S 0.08176 0.37569 0.9756 0.0
N700 N 0.10831 0.41753 0.9583 0.0
N701 N 0.06932 0.34135 0.94573 0.0
C702 C 0.08713 0.36306 0.91974 0.0
C703 C 0.10826 0.40439 0.92663 0.0
C704 C 0.58866 0.09399 0.26518 0.0
C705 C 0.60749 0.13181 0.27963 0.0
C706 C 0.60455 0.07775 0.23529 0.0
C707 C 0.63993 0.09867 0.21887 0.0
H708 H 0.56154 0.0767 0.27709 0.0
H709 H 0.58839 0.04923 0.22466 0.0
S710 S 0.70172 0.19793 0.24672 0.0
N711 N 0.66308 0.19005 0.27477 0.0
N712 N 0.69505 0.15759 0.22021 0.0
C713 C 0.65979 0.13578 0.2335 0.0
C714 C 0.64304 0.15284 0.26342 0.0
C715 C 0.42185 0.57292 0.25159 0.0
C716 C 0.41025 0.60058 0.27778 0.0
C717 C 0.43838 0.59076 0.22233 0.0
C718 C 0.44409 0.63663 0.2186 0.0
H719 H 0.41648 0.53752 0.25327 0.0
H720 H 0.4455 0.56875 0.20217 0.0
S721 S 0.4232 0.72266 0.28069 0.0
N722 N 0.40916 0.67577 0.29888 0.0
N723 N 0.43979 0.70904 0.24361 0.0
C724 C 0.43446 0.66441 0.2449 0.0
C725 C 0.41766 0.64641 0.27462 0.0
C726 C 0.88741 0.38073 0.21986 0.0
C727 C 0.90395 0.42079 0.20708 0.0
C728 C 0.90169 0.36448 0.25014 0.0
C729 C 0.93323 0.38752 0.26882 0.0
H730 H 0.86282 0.36194 0.20649 0.0
H731 H 0.88808 0.33343 0.25892 0.0
S732 S 0.98685 0.494 0.24643 0.0
N733 N 0.95385 0.48301 0.2153 0.0
N734 N 0.98021 0.45277 0.2726 0.0
C735 C 0.95012 0.42761 0.25637 0.0
C736 C 0.93547 0.44425 0.22549 0.0
C737 C 0.08088 0.92605 0.27627 0.0
C738 C 0.11505 0.95781 0.27711 0.0
C739 C 0.06398 0.91087 0.24656 0.0
C740 C 0.08109 0.92668 0.21682 0.0
H741 H 0.06846 0.91154 0.29873 0.0
H742 H 0.03932 0.88473 0.24687 0.0
S743 S 0.16737 0.0131 0.20589 0.0
N744 N 0.16293 1.00703 0.24586 0.0
N745 N 0.13102 0.97851 0.18985 0.0
C746 C 0.11333 0.96034 0.21735 0.0
C747 C 0.13032 0.97599 0.24759 0.0
C748 C 0.38487 0.88819 0.76403 0.0
C749 C 0.40275 0.92689 0.77781 0.0
C750 C 0.40131 0.87089 0.73488 0.0
C751 C 0.43562 0.89206 0.7174 0.0
H752 H 0.35767 0.87088 0.77582 0.0
H753 H 0.38686 0.84039 0.72606 0.0
S754 S 0.49344 0.99518 0.74212 0.0
N755 N 0.45758 0.98563 0.77189 0.0
N756 N 0.48617 0.95493 0.71555 0.0
C757 C 0.45352 0.93124 0.7305 0.0
C758 C 0.43743 0.94837 0.76085 0.0
C759 C 0.5722 0.395 0.74725 0.0
C760 C 0.58763 0.41015 0.77751 0.0
C761 C 0.59091 0.4107 0.71806 0.0
C762 C 0.62515 0.44246 0.71827 0.0
H763 H 0.54712 0.36931 0.74619 0.0
H764 H 0.57943 0.397 0.69518 0.0
S765 S 0.67436 0.49517 0.79122 0.0
N766 N 0.63692 0.4605 0.80607 0.0
N767 N 0.6719 0.49025 0.75112 0.0
C768 C 0.63917 0.45952 0.74832 0.0
C769 C 0.62047 0.44323 0.77801 0.0
C770 C 0.09029 0.59862 0.73432 0.0
C771 C 0.10838 0.63717 0.72017 0.0
C772 C 0.10589 0.58243 0.76439 0.0
C773 C 0.13989 0.60442 0.7814 0.0
H774 H 0.06421 0.58062 0.72191 0.0
H775 H 0.09072 0.55298 0.77468 0.0
S776 S 0.19852 0.70646 0.75473 0.0
N777 N 0.16169 0.69719 0.72573 0.0
N778 N 0.19212 0.66585 0.78141 0.0
C779 C 0.15851 0.64271 0.76733 0.0
C780 C 0.14248 0.65932 0.73695 0.0
C781 C 0.94857 0.12697 0.74794 0.0
C782 C 0.92739 0.11728 0.7777 0.0
C783 C 0.92999 0.11357 0.71831 0.0
C784 C 0.88975 0.08984 0.71746 0.0
H785 H 0.97883 0.14642 0.74749 0.0
H786 H 0.94695 0.12235 0.69584 0.0
S787 S 0.82301 0.05361 0.78891 0.0
N788 N 0.86571 0.0802 0.80481 0.0
N789 N 0.83022 0.05575 0.74897 0.0
C790 C 0.86909 0.07857 0.74711 0.0
C791 C 0.88803 0.09219 0.77728 0.0
C792 C 0.67009 0.054 0.48441 0.0
C793 C 0.66962 0.09243 0.46478 0.0
C794 C 0.70737 0.04318 0.50351 0.0
C795 C 0.74524 0.07038 0.50337 0.0
H796 H 0.64043 0.03392 0.48675 0.0
H797 H 0.70511 0.01561 0.52046 0.0
S798 S 0.76396 0.16991 0.45216 0.0
N799 N 0.71312 0.15368 0.44279 0.0
N800 N 0.78217 0.1342 0.47973 0.0
C801 C 0.7465 0.10673 0.48205 0.0
C802 C 0.70892 0.11756 0.46244 0.0
C803 C 0.45851 0.68204 0.46981 0.0
C804 C 0.41442 0.66678 0.46611 0.0
C805 C 0.46911 0.71565 0.49212 0.0
C806 C 0.43595 0.73487 0.51164 0.0
H807 H 0.48526 0.66673 0.45621 0.0
H808 H 0.50367 0.72462 0.49551 0.0
S809 S 0.31491 0.71093 0.50904 0.0
N810 N 0.33708 0.67653 0.48242 0.0
N811 N 0.35689 0.73989 0.52357 0.0
C812 C 0.39149 0.72214 0.50663 0.0
C813 C 0.38069 0.68809 0.48403 0.0
C814 C 0.86204 0.38982 0.49864 0.0
C815 C 0.86912 0.41721 0.47136 0.0
C816 C 0.82919 0.39946 0.52163 0.0
C817 C 0.80165 0.43703 0.51854 0.0
H818 H 0.88272 0.36094 0.50267 0.0
H819 H 0.82583 0.37714 0.54226 0.0
S820 S 0.80482 0.51844 0.45049 0.0
N821 N 0.84467 0.48271 0.44159 0.0
N822 N 0.78277 0.50124 0.48527 0.0
C823 C 0.80771 0.46452 0.49107 0.0
C824 C 0.84154 0.45463 0.46746 0.0
C825 C 0.06145 0.856 0.48269 0.0
C826 C 0.10261 0.85871 0.46622 0.0
C827 C 0.05198 0.82072 0.50408 0.0
C828 C 0.08344 0.78724 0.50979 0.0
H829 H 0.03739 0.88253 0.48052 0.0
H830 H 0.02132 0.82132 0.51793 0.0
S831 S 0.19277 0.77444 0.46908 0.0
N832 N 0.17207 0.82065 0.45363 0.0
N833 N 0.15518 0.75622 0.49529 0.0
C834 C 0.12336 0.78796 0.49207 0.0
C835 C 0.13272 0.82322 0.46988 0.0
C836 C 0.22195 0.89843 0.98418 0.0
C837 C 0.24111 0.9408 0.9815 0.0
C838 C 0.18595 0.89021 0.00492 0.0
C839 C 0.16731 0.9239 0.02414 0.0
H840 H 0.23401 0.87133 0.96936 0.0
H841 H 0.17161 0.85737 0.00482 0.0
S842 S 0.20792 0.03994 0.02859 0.0
N843 N 0.24063 0.01646 0.00126 0.0
N844 N 0.17338 1.00087 0.04113 0.0
C845 C 0.1874 0.96615 0.02288 0.0
C846 C 0.22428 0.97456 0.00149 0.0
C847 C 0.63646 0.18519 -0.00147 0.0
C848 C 0.60404 0.16752 0.01962 0.0
C849 C 0.62691 0.22063 0.97776 0.0
C850 C 0.5844 0.24012 0.97689 0.0
H851 H 0.66928 0.17057 -0.0029 0.0
H852 H 0.65303 0.23205 0.96153 0.0
S853 S 0.48823 0.20883 0.02877 0.0
N854 N 0.52815 0.17432 0.03995 0.0
N855 N 0.50993 0.24074 3e-05 0.0
C856 C 0.55187 0.22408 -0.00143 0.0
C857 C 0.56168 0.18771 0.02 0.0
C858 C 0.31116 0.54957 0.00076 0.0
C859 C 0.28155 0.58347 0.99165 0.0
C860 C 0.35026 0.55928 0.01818 0.0
C861 C 0.36044 0.60294 0.02756 0.0
H862 H 0.30592 0.51609 0.99224 0.0
H863 H 0.37372 0.53285 0.02313 0.0
S864 S 0.29134 0.70268 0.01175 0.0
N865 N 0.2634 0.66169 0.995 0.0
N866 N 0.3361 0.67975 0.02788 0.0
C867 C 0.32943 0.63648 0.02043 0.0
C868 C 0.29013 0.62673 0.00246 0.0
C869 C 0.94309 0.33751 0.01736 0.0
C870 C 0.94127 0.37937 0.00194 0.0
C871 C 0.95294 0.29889 -0.00039 0.0
C872 C 0.9608 0.30106 0.96586 0.0
H873 H 0.93563 0.33456 0.04314 0.0
H874 H 0.9519 0.26709 0.01193 0.0
S875 S 0.96183 0.4019 0.91395 0.0
N876 N 0.94988 0.42006 0.95085 0.0
N877 N 0.96797 0.34789 0.9179 0.0
C878 C 0.9607 0.34266 0.95046 0.0
C879 C 0.95113 0.38177 0.96838 0.0
C880 C 0.30439 0.96384 0.49872 0.0
C881 C 0.29211 0.9344 0.47381 0.0
C882 C 0.33858 0.95305 0.52086 0.0
C883 C 0.36159 0.91242 0.51893 0.0
H884 H 0.28838 0.99587 0.50059 0.0
H885 H 0.34728 0.97679 0.53949 0.0
S886 S 0.34141 0.82338 0.45841 0.0
N887 N 0.30446 0.86193 0.4495 0.0
N888 N 0.36964 0.84298 0.4896 0.0
C889 C 0.34903 0.88252 0.49438 0.0
C890 C 0.31406 0.89317 0.47224 0.0
C891 C 0.55745 0.31668 0.49323 0.0
C892 C 0.58702 0.28153 0.48782 0.0
C893 C 0.56902 0.35164 0.51399 0.0
C894 C 0.61047 0.35249 0.53016 0.0
H895 H 0.5266 0.31877 0.47966 0.0
H896 H 0.54627 0.37928 0.51596 0.0
S897 S 0.69618 0.26383 0.52762 0.0
N898 N 0.65725 0.24707 0.50213 0.0
N899 N 0.67826 0.31138 0.54245 0.0
C900 C 0.63881 0.31565 0.5266 0.0
C901 C 0.62724 0.28052 0.50509 0.0
C902 C 0.22616 0.56178 0.49786 0.0
C903 C 0.22711 0.58389 0.46749 0.0
C904 C 0.19273 0.57094 0.52101 0.0
C905 C 0.15947 0.60258 0.51452 0.0
H906 H 0.2516 0.5377 0.50392 0.0
H907 H 0.19345 0.55407 0.54438 0.0
S908 S 0.1435 0.66578 0.43774 0.0
N909 N 0.18911 0.63656 0.43163 0.0
N910 N 0.12702 0.65296 0.475 0.0
C911 C 0.15919 0.62369 0.48403 0.0
C912 C 0.19283 0.61457 0.46056 0.0
C913 C 0.90725 0.22743 0.49314 0.0
C914 C 0.94993 0.23343 0.48006 0.0
C915 C 0.89823 0.19308 0.51508 0.0
C916 C 0.9312 0.16212 0.52418 0.0
H917 H 0.88004 0.24859 0.48537 0.0
H918 H 0.86455 0.19027 0.52412 0.0
S919 S 0.05034 0.16743 0.49969 0.0
N920 N 0.02699 0.20956 0.48036 0.0
N921 N 1.01002 0.14318 0.52054 0.0
C922 C 0.97501 0.16963 0.51283 0.0
C923 C 0.98433 0.20566 0.49095 0.0
C924 C 0.82165 0.1263 0.01922 0.0
C925 C 0.79383 0.08918 0.0152 0.0
C926 C 0.85694 0.13486 -0.00199 0.0
C927 C 0.86616 0.10684 0.97171 0.0
H928 H 0.81692 0.14886 0.03939 0.0
H929 H 0.87799 0.16315 0.00281 0.0
S930 S 0.80116 1.00775 0.94798 0.0
N931 N 0.77629 0.02557 0.98144 0.0
N932 N 0.84278 0.04225 0.94099 0.0
C933 C 0.83789 0.07041 0.96647 0.0
C934 C 0.80163 0.06153 0.98829 0.0
C935 C 0.47235 0.85762 0.98785 0.0
C936 C 0.43569 0.85795 0.96646 0.0
C937 C 0.48283 0.81982 0.00644 0.0
C938 C 0.4574 0.78102 0.00392 0.0
H939 H 0.49131 0.88758 0.99174 0.0
H940 H 0.50864 0.82211 0.02471 0.0
S941 S 0.36267 0.76229 0.94804 0.0
N942 N 0.37756 0.81408 0.94098 0.0
N943 N 0.3968 0.74365 0.97654 0.0
C944 C 0.42256 0.77999 0.98124 0.0
C945 C 0.41189 0.81828 0.96227 0.0
C946 C 0.74126 0.41055 0.98306 0.0
C947 C 0.7457 0.45096 -0.00035 0.0
C948 C 0.70337 0.401 0.96452 0.0
C949 C 0.66777 0.43117 0.96211 0.0
H950 H 0.7667 0.38528 0.98542 0.0
H951 H 0.70164 0.36918 0.9526 0.0
S952 S 0.66391 0.54276 -0.00024 0.0
N953 N 0.7126 0.52251 0.01109 0.0
N954 N 0.64055 0.50427 0.97709 0.0
C955 C 0.67267 0.47264 0.97744 0.0
C956 C 0.7118 0.4826 -0.00401 0.0
C957 C 0.05974 0.72643 0.00213 0.0
C958 C 0.08745 0.73344 0.02937 0.0
C959 C 0.06707 0.69055 0.98098 0.0
C960 C 0.10239 0.66097 0.98637 0.0
H961 H 0.03179 0.74822 -0.00252 0.0
H962 H 0.04484 0.68552 0.96056 0.0
S963 S 0.18398 0.66325 0.05371 0.0
N964 N 0.15189 0.70672 0.06007 0.0
N965 N 0.16461 0.63986 0.02033 0.0
C966 C 0.13036 0.66762 0.01306 0.0
C967 C 0.12318 0.70376 0.03455 0.0
loop_
_geom_bond_atom_site_label_1
_geom_bond_atom_site_label_2
_geom_bond_distance
_geom_bond_site_symmetry_2
_ccdc_geom_bond_type
C0 C1 1.351 . S
C0 N3 1.368 . S
C0 H5 0.931 . S
C1 C0 1.351 . S
C1 N2 1.373 . S
C1 H29 0.930 . S
N2 C1 1.373 . S
N2 C4 1.340 . S
N3 C0 1.368 . S
N3 C4 1.321 . S
N3 Co6 2.135 . S
C4 N2 1.340 . S
C4 N3 1.321 . S
C4 H28 0.930 . S
H5 C0 0.931 . S
Co6 N3 2.135 . S
Co6 N9 2.121 . S
Co6 O14 2.055 . S
Co6 O17 2.039 . S
Co6 N20 2.140 . S
C7 O8 1.227 . S
C7 O17 1.265 . S
O8 C7 1.227 . S
N9 Co6 2.121 . S
N9 C11 1.375 . S
N9 C12 1.313 . S
C10 C11 1.338 . S
C10 N13 1.377 . S
C10 H30 0.930 . S
C11 N9 1.375 . S
C11 C10 1.338 . S
C11 H15 0.931 . S
C12 N9 1.313 . S
C12 N13 1.344 . S
C12 H16 0.930 . S
N13 C10 1.377 . S
N13 C12 1.344 . S
O14 Co6 2.055 . S
O14 C18 1.253 . S
H15 C11 0.931 . S
H16 C12 0.930 . S
O17 Co6 2.039 . S
O17 C7 1.265 . S
C18 O14 1.253 . S
C18 O19 1.227 . S
O19 C18 1.227 . S
N20 Co6 2.140 . S
N20 C23 1.346 . S
N20 C24 1.345 . S
C21 C22 1.387 . S
C21 C25 1.391 . S
C22 C21 1.387 . S
C22 C23 1.369 . S
C22 H31 0.929 . S
C23 N20 1.346 . S
C23 C22 1.369 . S
C23 H26 0.928 . S
C24 N20 1.345 . S
C24 C25 1.371 . S
C24 H27 0.931 . S
C25 C21 1.391 . S
C25 C24 1.371 . S
C25 H32 0.930 . S
H26 C23 0.928 . S
H27 C24 0.931 . S
H28 C4 0.930 . S
H29 C1 0.930 . S
H30 C10 0.930 . S
H31 C22 0.929 . S
H32 C25 0.930 . S
C33 C34 1.351 . S
C33 N36 1.368 . S
C33 H38 0.931 . S
C34 C33 1.351 . S
C34 N35 1.373 . S
C34 H62 0.930 . S
N35 C34 1.373 . S
N35 C37 1.340 . S
N36 C33 1.368 . S
N36 C37 1.321 . S
N36 Co39 2.135 . S
C37 N35 1.340 . S
C37 N36 1.321 . S
C37 H61 0.930 . S
H38 C33 0.931 . S
Co39 N36 2.135 . S
Co39 N42 2.121 . S
Co39 O47 2.055 . S
Co39 O50 2.039 . S
Co39 N53 2.140 . S
C40 O41 1.227 . S
C40 O50 1.265 . S
O41 C40 1.227 . S
N42 Co39 2.121 . S
N42 C44 1.375 . S
N42 C45 1.313 . S
C43 C44 1.338 . S
C43 N46 1.377 . S
C43 H63 0.930 . S
C44 N42 1.375 . S
C44 C43 1.338 . S
C44 H48 0.931 . S
C45 N42 1.313 . S
C45 N46 1.344 . S
C45 H49 0.930 . S
N46 C43 1.377 . S
N46 C45 1.344 . S
O47 Co39 2.055 . S
O47 C51 1.253 . S
H48 C44 0.931 . S
H49 C45 0.930 . S
O50 Co39 2.039 . S
O50 C40 1.265 . S
C51 O47 1.253 . S
C51 O52 1.227 . S
O52 C51 1.227 . S
N53 Co39 2.140 . S
N53 C56 1.346 . S
N53 C57 1.345 . S
C54 C55 1.387 . S
C54 C58 1.391 . S
C55 C54 1.387 . S
C55 C56 1.369 . S
C55 H64 0.929 . S
C56 N53 1.346 . S
C56 C55 1.369 . S
C56 H59 0.928 . S
C57 N53 1.345 . S
C57 C58 1.371 . S
C57 H60 0.931 . S
C58 C54 1.391 . S
C58 C57 1.371 . S
C58 H65 0.930 . S
H59 C56 0.928 . S
H60 C57 0.931 . S
H61 C37 0.930 . S
H62 C34 0.930 . S
H63 C43 0.930 . S
H64 C55 0.929 . S
H65 C58 0.930 . S
C66 C67 1.351 1_655 S
C66 N69 1.368 1_655 S
C66 H71 0.931 . S
C67 C66 1.351 1_455 S
C67 N68 1.373 . S
C67 H95 0.930 . S
N68 C67 1.373 . S
N68 C70 1.340 . S
N69 C66 1.368 1_455 S
N69 C70 1.321 . S
N69 Co72 2.135 1_455 S
C70 N68 1.340 . S
C70 N69 1.321 . S
C70 H94 0.930 . S
H71 C66 0.931 . S
Co72 N69 2.135 1_655 S
Co72 N75 2.121 . S
Co72 O80 2.055 . S
Co72 O83 2.039 1_655 S
Co72 N86 2.140 . S
C73 O74 1.227 . S
C73 O83 1.265 . S
O74 C73 1.227 . S
N75 Co72 2.121 . S
N75 C77 1.375 . S
N75 C78 1.313 . S
C76 C77 1.338 . S
C76 N79 1.377 . S
C76 H96 0.930 . S
C77 N75 1.375 . S
C77 C76 1.338 . S
C77 H81 0.931 . S
C78 N75 1.313 . S
C78 N79 1.344 . S
C78 H82 0.930 . S
N79 C76 1.377 . S
N79 C78 1.344 . S
O80 Co72 2.055 . S
O80 C84 1.253 . S
H81 C77 0.931 . S
H82 C78 0.930 . S
O83 Co72 2.039 1_455 S
O83 C73 1.265 . S
C84 O80 1.253 . S
C84 O85 1.227 . S
O85 C84 1.227 . S
N86 Co72 2.140 . S
N86 C89 1.346 . S
N86 C90 1.345 . S
C87 C88 1.387 . S
C87 C91 1.391 . S
C88 C87 1.387 . S
C88 C89 1.369 . S
C88 H97 0.929 . S
C89 N86 1.346 . S
C89 C88 1.369 . S
C89 H92 0.928 . S
C90 N86 1.345 . S
C90 C91 1.371 . S
C90 H93 0.931 . S
C91 C87 1.391 . S
C91 C90 1.371 . S
C91 H98 0.930 . S
H92 C89 0.928 . S
H93 C90 0.931 . S
H94 C70 0.930 . S
H95 C67 0.930 . S
H96 C76 0.930 . S
H97 C88 0.929 . S
H98 C91 0.930 . S
C99 C100 1.351 1_565 S
C99 N102 1.368 1_565 S
C99 H104 0.931 . S
C100 C99 1.351 1_545 S
C100 N101 1.373 . S
C100 H128 0.930 . S
N101 C100 1.373 . S
N101 C103 1.340 . S
N102 C99 1.368 1_545 S
N102 C103 1.321 . S
N102 Co105 2.135 1_545 S
C103 N101 1.340 . S
C103 N102 1.321 . S
C103 H127 0.930 . S
H104 C99 0.931 . S
Co105 N102 2.135 1_565 S
Co105 N108 2.121 . S
Co105 O113 2.055 . S
Co105 O116 2.039 1_565 S
Co105 N119 2.140 . S
C106 O107 1.227 . S
C106 O116 1.265 . S
O107 C106 1.227 . S
N108 Co105 2.121 . S
N108 C110 1.375 . S
N108 C111 1.313 . S
C109 C110 1.338 . S
C109 N112 1.377 . S
C109 H129 0.930 . S
C110 N108 1.375 . S
C110 C109 1.338 . S
C110 H114 0.931 . S
C111 N108 1.313 . S
C111 N112 1.344 . S
C111 H115 0.930 . S
N112 C109 1.377 . S
N112 C111 1.344 . S
O113 Co105 2.055 . S
O113 C117 1.253 . S
H114 C110 0.931 . S
H115 C111 0.930 . S
O116 Co105 2.039 1_545 S
O116 C106 1.265 . S
C117 O113 1.253 . S
C117 O118 1.227 . S
O118 C117 1.227 . S
N119 Co105 2.140 . S
N119 C122 1.346 . S
N119 C123 1.345 . S
C120 C121 1.387 . S
C120 C124 1.391 . S
C121 C120 1.387 . S
C121 C122 1.369 . S
C121 H130 0.929 . S
C122 N119 1.346 . S
C122 C121 1.369 . S
C122 H125 0.928 . S
C123 N119 1.345 . S
C123 C124 1.371 . S
C123 H126 0.931 . S
C124 C120 1.391 . S
C124 C123 1.371 . S
C124 H131 0.930 . S
H125 C122 0.928 . S
H126 C123 0.931 . S
H127 C103 0.930 . S
H128 C100 0.930 . S
H129 C109 0.930 . S
H130 C121 0.929 . S
H131 C124 0.930 . S
C132 C133 1.351 1_455 S
C132 N135 1.368 1_455 S
C132 H137 0.931 . S
C133 C132 1.351 1_655 S
C133 N134 1.373 . S
C133 H161 0.930 . S
N134 C133 1.373 . S
N134 C136 1.340 . S
N135 C132 1.368 1_655 S
N135 C136 1.321 . S
N135 Co138 2.135 1_655 S
C136 N134 1.340 . S
C136 N135 1.321 . S
C136 H160 0.930 . S
H137 C132 0.931 . S
Co138 N135 2.135 1_455 S
Co138 N141 2.121 . S
Co138 O146 2.055 . S
Co138 O149 2.039 1_455 S
Co138 N152 2.140 . S
C139 O140 1.227 . S
C139 O149 1.265 . S
O140 C139 1.227 . S
N141 Co138 2.121 . S
N141 C143 1.375 . S
N141 C144 1.313 . S
C142 C143 1.338 . S
C142 N145 1.377 . S
C142 H162 0.930 . S
C143 N141 1.375 . S
C143 C142 1.338 . S
C143 H147 0.931 . S
C144 N141 1.313 . S
C144 N145 1.344 . S
C144 H148 0.930 . S
N145 C142 1.377 . S
N145 C144 1.344 . S
O146 Co138 2.055 . S
O146 C150 1.253 . S
H147 C143 0.931 . S
H148 C144 0.930 . S
O149 Co138 2.039 1_655 S
O149 C139 1.265 . S
C150 O146 1.253 . S
C150 O151 1.227 . S
O151 C150 1.227 . S
N152 Co138 2.140 . S
N152 C155 1.346 . S
N152 C156 1.345 . S
C153 C154 1.387 . S
C153 C157 1.391 . S
C154 C153 1.387 . S
C154 C155 1.369 . S
C154 H163 0.929 . S
C155 N152 1.346 . S
C155 C154 1.369 . S
C155 H158 0.928 . S
C156 N152 1.345 . S
C156 C157 1.371 . S
C156 H159 0.931 . S
C157 C153 1.391 . S
C157 C156 1.371 . S
C157 H164 0.930 . S
H158 C155 0.928 . S
H159 C156 0.931 . S
H160 C136 0.930 . S
H161 C133 0.930 . S
H162 C142 0.930 . S
H163 C154 0.929 . S
H164 C157 0.930 . S
C165 C166 1.351 1_545 S
C165 N168 1.368 1_545 S
C165 H170 0.931 . S
C166 C165 1.351 1_565 S
C166 N167 1.373 . S
C166 H194 0.930 . S
N167 C166 1.373 . S
N167 C169 1.340 . S
N168 C165 1.368 1_565 S
N168 C169 1.321 . S
N168 Co171 2.135 1_565 S
C169 N167 1.340 . S
C169 N168 1.321 . S
C169 H193 0.930 . S
H170 C165 0.931 . S
Co171 N168 2.135 1_545 S
Co171 N174 2.121 . S
Co171 O179 2.055 . S
Co171 O182 2.039 1_545 S
Co171 N185 2.140 . S
C172 O173 1.227 . S
C172 O182 1.265 . S
O173 C172 1.227 . S
N174 Co171 2.121 . S
N174 C176 1.375 . S
N174 C177 1.313 . S
C175 C176 1.338 . S
C175 N178 1.377 . S
C175 H195 0.930 . S
C176 N174 1.375 . S
C176 C175 1.338 . S
C176 H180 0.931 . S
C177 N174 1.313 . S
C177 N178 1.344 . S
C177 H181 0.930 . S
N178 C175 1.377 . S
N178 C177 1.344 . S
O179 Co171 2.055 . S
O179 C183 1.253 . S
H180 C176 0.931 . S
H181 C177 0.930 . S
O182 Co171 2.039 1_565 S
O182 C172 1.265 . S
C183 O179 1.253 . S
C183 O184 1.227 . S
O184 C183 1.227 . S
N185 Co171 2.140 . S
N185 C188 1.346 . S
N185 C189 1.345 . S
C186 C187 1.387 . S
C186 C190 1.391 . S
C187 C186 1.387 . S
C187 C188 1.369 . S
C187 H196 0.929 . S
C188 N185 1.346 . S
C188 C187 1.369 . S
C188 H191 0.928 . S
C189 N185 1.345 . S
C189 C190 1.371 . S
C189 H192 0.931 . S
C190 C186 1.391 . S
C190 C189 1.371 . S
C190 H197 0.930 . S
H191 C188 0.928 . S
H192 C189 0.931 . S
H193 C169 0.930 . S
H194 C166 0.930 . S
H195 C175 0.930 . S
H196 C187 0.929 . S
H197 C190 0.930 . S
C198 C199 1.351 . S
C198 N201 1.368 . S
C198 H203 0.931 . S
C199 C198 1.351 . S
C199 N200 1.373 . S
C199 H227 0.930 . S
N200 C199 1.373 . S
N200 C202 1.340 . S
N201 C198 1.368 . S
N201 C202 1.321 . S
N201 Co204 2.135 . S
C202 N200 1.340 . S
C202 N201 1.321 . S
C202 H226 0.930 . S
H203 C198 0.931 . S
Co204 N201 2.135 . S
Co204 N207 2.121 . S
Co204 O212 2.055 . S
Co204 O215 2.039 . S
Co204 N218 2.140 . S
C205 O206 1.227 . S
C205 O215 1.265 . S
O206 C205 1.227 . S
N207 Co204 2.121 . S
N207 C209 1.375 . S
N207 C210 1.313 . S
C208 C209 1.338 . S
C208 N211 1.377 . S
C208 H228 0.930 . S
C209 N207 1.375 . S
C209 C208 1.338 . S
C209 H213 0.931 . S
C210 N207 1.313 . S
C210 N211 1.344 . S
C210 H214 0.930 . S
N211 C208 1.377 . S
N211 C210 1.344 . S
O212 Co204 2.055 . S
O212 C216 1.253 . S
H213 C209 0.931 . S
H214 C210 0.930 . S
O215 Co204 2.039 . S
O215 C205 1.265 . S
C216 O212 1.253 . S
C216 O217 1.227 . S
O217 C216 1.227 . S
N218 Co204 2.140 . S
N218 C221 1.346 . S
N218 C222 1.345 . S
C219 C220 1.387 . S
C219 C223 1.391 . S
C220 C219 1.387 . S
C220 C221 1.369 . S
C220 H229 0.929 . S
C221 N218 1.346 . S
C221 C220 1.369 . S
C221 H224 0.928 . S
C222 N218 1.345 . S
C222 C223 1.371 . S
C222 H225 0.931 . S
C223 C219 1.391 . S
C223 C222 1.371 . S
C223 H230 0.930 . S
H224 C221 0.928 . S
H225 C222 0.931 . S
H226 C202 0.930 . S
H227 C199 0.930 . S
H228 C208 0.930 . S
H229 C220 0.929 . S
H230 C223 0.930 . S
C231 C232 1.351 . S
C231 N234 1.368 . S
C231 H236 0.931 . S
C232 C231 1.351 . S
C232 N233 1.373 . S
C232 H260 0.930 . S
N233 C232 1.373 . S
N233 C235 1.340 . S
N234 C231 1.368 . S
N234 C235 1.321 . S
N234 Co237 2.135 . S
C235 N233 1.340 . S
C235 N234 1.321 . S
C235 H259 0.930 . S
H236 C231 0.931 . S
Co237 N234 2.135 . S
Co237 N240 2.121 . S
Co237 O245 2.055 . S
Co237 O248 2.039 . S
Co237 N251 2.140 . S
C238 O239 1.227 . S
C238 O248 1.265 . S
O239 C238 1.227 . S
N240 Co237 2.121 . S
N240 C242 1.375 . S
N240 C243 1.313 . S
C241 C242 1.338 . S
C241 N244 1.377 . S
C241 H261 0.930 . S
C242 N240 1.375 . S
C242 C241 1.338 . S
C242 H246 0.931 . S
C243 N240 1.313 . S
C243 N244 1.344 . S
C243 H247 0.930 . S
N244 C241 1.377 . S
N244 C243 1.344 . S
O245 Co237 2.055 . S
O245 C249 1.253 . S
H246 C242 0.931 . S
H247 C243 0.930 . S
O248 Co237 2.039 . S
O248 C238 1.265 . S
C249 O245 1.253 . S
C249 O250 1.227 . S
O250 C249 1.227 . S
N251 Co237 2.140 . S
N251 C254 1.346 . S
N251 C255 1.345 . S
C252 C253 1.387 . S
C252 C256 1.391 . S
C253 C252 1.387 . S
C253 C254 1.369 . S
C253 H262 0.929 . S
C254 N251 1.346 . S
C254 C253 1.369 . S
C254 H257 0.928 . S
C255 N251 1.345 . S
C255 C256 1.371 . S
C255 H258 0.931 . S
C256 C252 1.391 . S
C256 C255 1.371 . S
C256 H263 0.930 . S
H257 C254 0.928 . S
H258 C255 0.931 . S
H259 C235 0.930 . S
H260 C232 0.930 . S
H261 C241 0.930 . S
H262 C253 0.929 . S
H263 C256 0.930 . S
C264 C265 1.351 . S
C264 N267 1.368 . S
C264 H269 0.931 . S
C265 C264 1.351 . S
C265 N266 1.373 . S
C265 H293 0.930 . S
N266 C265 1.373 . S
N266 C268 1.340 . S
N267 C264 1.368 . S
N267 C268 1.321 . S
N267 Co270 2.135 . S
C268 N266 1.340 . S
C268 N267 1.321 . S
C268 H292 0.930 . S
H269 C264 0.931 . S
Co270 N267 2.135 . S
Co270 N273 2.121 . S
Co270 O278 2.055 . S
Co270 O281 2.039 . S
Co270 N284 2.140 . S
C271 O272 1.227 . S
C271 O281 1.265 . S
O272 C271 1.227 . S
N273 Co270 2.121 . S
N273 C275 1.375 . S
N273 C276 1.313 . S
C274 C275 1.338 . S
C274 N277 1.377 . S
C274 H294 0.930 . S
C275 N273 1.375 . S
C275 C274 1.338 . S
C275 H279 0.931 . S
C276 N273 1.313 . S
C276 N277 1.344 . S
C276 H280 0.930 . S
N277 C274 1.377 . S
N277 C276 1.344 . S
O278 Co270 2.055 . S
O278 C282 1.253 . S
H279 C275 0.931 . S
H280 C276 0.930 . S
O281 Co270 2.039 . S
O281 C271 1.265 . S
C282 O278 1.253 . S
C282 O283 1.227 . S
O283 C282 1.227 . S
N284 Co270 2.140 . S
N284 C287 1.346 . S
N284 C288 1.345 . S
C285 C286 1.387 . S
C285 C289 1.391 . S
C286 C285 1.387 . S
C286 C287 1.369 . S
C286 H295 0.929 . S
C287 N284 1.346 . S
C287 C286 1.369 . S
C287 H290 0.928 . S
C288 N284 1.345 . S
C288 C289 1.371 . S
C288 H291 0.931 . S
C289 C285 1.391 . S
C289 C288 1.371 . S
C289 H296 0.930 . S
H290 C287 0.928 . S
H291 C288 0.931 . S
H292 C268 0.930 . S
H293 C265 0.930 . S
H294 C274 0.930 . S
H295 C286 0.929 . S
H296 C289 0.930 . S
C297 C298 1.351 . S
C297 N300 1.368 . S
C297 H302 0.931 . S
C298 C297 1.351 . S
C298 N299 1.373 . S
C298 H326 0.930 . S
N299 C298 1.373 . S
N299 C301 1.340 . S
N300 C297 1.368 . S
N300 C301 1.321 . S
N300 Co303 2.135 . S
C301 N299 1.340 . S
C301 N300 1.321 . S
C301 H325 0.930 . S
H302 C297 0.931 . S
Co303 N300 2.135 . S
Co303 N306 2.121 . S
Co303 O311 2.055 . S
Co303 O314 2.039 . S
Co303 N317 2.140 . S
C304 O305 1.227 . S
C304 O314 1.265 . S
O305 C304 1.227 . S
N306 Co303 2.121 . S
N306 C308 1.375 . S
N306 C309 1.313 . S
C307 C308 1.338 . S
C307 N310 1.377 . S
C307 H327 0.930 . S
C308 N306 1.375 . S
C308 C307 1.338 . S
C308 H312 0.931 . S
C309 N306 1.313 . S
C309 N310 1.344 . S
C309 H313 0.930 . S
N310 C307 1.377 . S
N310 C309 1.344 . S
O311 Co303 2.055 . S
O311 C315 1.253 . S
H312 C308 0.931 . S
H313 C309 0.930 . S
O314 Co303 2.039 . S
O314 C304 1.265 . S
C315 O311 1.253 . S
C315 O316 1.227 . S
O316 C315 1.227 . S
N317 Co303 2.140 . S
N317 C320 1.346 . S
N317 C321 1.345 . S
C318 C319 1.387 . S
C318 C322 1.391 . S
C319 C318 1.387 . S
C319 C320 1.369 . S
C319 H328 0.929 . S
C320 N317 1.346 . S
C320 C319 1.369 . S
C320 H323 0.928 . S
C321 N317 1.345 . S
C321 C322 1.371 . S
C321 H324 0.931 . S
C322 C318 1.391 . S
C322 C321 1.371 . S
C322 H329 0.930 . S
H323 C320 0.928 . S
H324 C321 0.931 . S
H325 C301 0.930 . S
H326 C298 0.930 . S
H327 C307 0.930 . S
H328 C319 0.929 . S
H329 C322 0.930 . S
C330 C331 1.351 1_455 S
C330 N333 1.368 1_455 S
C330 H335 0.931 . S
C331 C330 1.351 1_655 S
C331 N332 1.373 . S
C331 H359 0.930 . S
N332 C331 1.373 . S
N332 C334 1.340 . S
N333 C330 1.368 1_655 S
N333 C334 1.321 . S
N333 Co336 2.135 1_655 S
C334 N332 1.340 . S
C334 N333 1.321 . S
C334 H358 0.930 . S
H335 C330 0.931 . S
Co336 N333 2.135 1_455 S
Co336 N339 2.121 . S
Co336 O344 2.055 . S
Co336 O347 2.039 1_455 S
Co336 N350 2.140 . S
C337 O338 1.227 . S
C337 O347 1.265 . S
O338 C337 1.227 . S
N339 Co336 2.121 . S
N339 C341 1.375 . S
N339 C342 1.313 . S
C340 C341 1.338 . S
C340 N343 1.377 . S
C340 H360 0.930 . S
C341 N339 1.375 . S
C341 C340 1.338 . S
C341 H345 0.931 . S
C342 N339 1.313 . S
C342 N343 1.344 . S
C342 H346 0.930 . S
N343 C340 1.377 . S
N343 C342 1.344 . S
O344 Co336 2.055 . S
O344 C348 1.253 . S
H345 C341 0.931 . S
H346 C342 0.930 . S
O347 Co336 2.039 1_655 S
O347 C337 1.265 . S
C348 O344 1.253 . S
C348 O349 1.227 . S
O349 C348 1.227 . S
N350 Co336 2.140 . S
N350 C353 1.346 . S
N350 C354 1.345 . S
C351 C352 1.387 . S
C351 C355 1.391 . S
C352 C351 1.387 . S
C352 C353 1.369 . S
C352 H361 0.929 . S
C353 N350 1.346 . S
C353 C352 1.369 . S
C353 H356 0.928 . S
C354 N350 1.345 . S
C354 C355 1.371 . S
C354 H357 0.931 . S
C355 C351 1.391 . S
C355 C354 1.371 . S
C355 H362 0.930 . S
H356 C353 0.928 . S
H357 C354 0.931 . S
H358 C334 0.930 . S
H359 C331 0.930 . S
H360 C340 0.930 . S
H361 C352 0.929 . S
H362 C355 0.930 . S
C363 C364 1.351 1_545 S
C363 N366 1.368 1_545 S
C363 H368 0.931 . S
C364 C363 1.351 1_565 S
C364 N365 1.373 . S
C364 H392 0.930 . S
N365 C364 1.373 . S
N365 C367 1.340 . S
N366 C363 1.368 1_565 S
N366 C367 1.321 . S
N366 Co369 2.135 1_565 S
C367 N365 1.340 . S
C367 N366 1.321 . S
C367 H391 0.930 . S
H368 C363 0.931 . S
Co369 N366 2.135 1_545 S
Co369 N372 2.121 . S
Co369 O377 2.055 . S
Co369 O380 2.039 1_545 S
Co369 N383 2.140 . S
C370 O371 1.227 . S
C370 O380 1.265 . S
O371 C370 1.227 . S
N372 Co369 2.121 . S
N372 C374 1.375 . S
N372 C375 1.313 . S
C373 C374 1.338 . S
C373 N376 1.377 . S
C373 H393 0.930 . S
C374 N372 1.375 . S
C374 C373 1.338 . S
C374 H378 0.931 . S
C375 N372 1.313 . S
C375 N376 1.344 . S
C375 H379 0.930 . S
N376 C373 1.377 . S
N376 C375 1.344 . S
O377 Co369 2.055 . S
O377 C381 1.253 . S
H378 C374 0.931 . S
H379 C375 0.930 . S
O380 Co369 2.039 1_565 S
O380 C370 1.265 . S
C381 O377 1.253 . S
C381 O382 1.227 . S
O382 C381 1.227 . S
N383 Co369 2.140 . S
N383 C386 1.346 . S
N383 C387 1.345 . S
C384 C385 1.387 . S
C384 C388 1.391 . S
C385 C384 1.387 . S
C385 C386 1.369 . S
C385 H394 0.929 . S
C386 N383 1.346 . S
C386 C385 1.369 . S
C386 H389 0.928 . S
C387 N383 1.345 . S
C387 C388 1.371 . S
C387 H390 0.931 . S
C388 C384 1.391 . S
C388 C387 1.371 . S
C388 H395 0.930 . S
H389 C386 0.928 . S
H390 C387 0.931 . S
H391 C367 0.930 . S
H392 C364 0.930 . S
H393 C373 0.930 . S
H394 C385 0.929 . S
H395 C388 0.930 . S
C396 C397 1.351 1_655 S
C396 N399 1.368 1_655 S
C396 H401 0.931 . S
C397 C396 1.351 1_455 S
C397 N398 1.373 . S
C397 H425 0.930 . S
N398 C397 1.373 . S
N398 C400 1.340 . S
N399 C396 1.368 1_455 S
N399 C400 1.321 . S
N399 Co402 2.135 1_455 S
C400 N398 1.340 . S
C400 N399 1.321 . S
C400 H424 0.930 . S
H401 C396 0.931 . S
Co402 N399 2.135 1_655 S
Co402 N405 2.121 . S
Co402 O410 2.055 . S
Co402 O413 2.039 1_655 S
Co402 N416 2.140 . S
C403 O404 1.227 . S
C403 O413 1.265 . S
O404 C403 1.227 . S
N405 Co402 2.121 . S
N405 C407 1.375 . S
N405 C408 1.313 . S
C406 C407 1.338 . S
C406 N409 1.377 . S
C406 H426 0.930 . S
C407 N405 1.375 . S
C407 C406 1.338 . S
C407 H411 0.931 . S
C408 N405 1.313 . S
C408 N409 1.344 . S
C408 H412 0.930 . S
N409 C406 1.377 . S
N409 C408 1.344 . S
O410 Co402 2.055 . S
O410 C414 1.253 . S
H411 C407 0.931 . S
H412 C408 0.930 . S
O413 Co402 2.039 1_455 S
O413 C403 1.265 . S
C414 O410 1.253 . S
C414 O415 1.227 . S
O415 C414 1.227 . S
N416 Co402 2.140 . S
N416 C419 1.346 . S
N416 C420 1.345 . S
C417 C418 1.387 . S
C417 C421 1.391 . S
C418 C417 1.387 . S
C418 C419 1.369 . S
C418 H427 0.929 . S
C419 N416 1.346 . S
C419 C418 1.369 . S
C419 H422 0.928 . S
C420 N416 1.345 . S
C420 C421 1.371 . S
C420 H423 0.931 . S
C421 C417 1.391 . S
C421 C420 1.371 . S
C421 H428 0.930 . S
H422 C419 0.928 . S
H423 C420 0.931 . S
H424 C400 0.930 . S
H425 C397 0.930 . S
H426 C406 0.930 . S
H427 C418 0.929 . S
H428 C421 0.930 . S
C429 C430 1.351 1_565 S
C429 N432 1.368 1_565 S
C429 H434 0.931 . S
C430 C429 1.351 1_545 S
C430 N431 1.373 . S
C430 H458 0.930 . S
N431 C430 1.373 . S
N431 C433 1.340 . S
N432 C429 1.368 1_545 S
N432 C433 1.321 . S
N432 Co435 2.135 1_545 S
C433 N431 1.340 . S
C433 N432 1.321 . S
C433 H457 0.930 . S
H434 C429 0.931 . S
Co435 N432 2.135 1_565 S
Co435 N438 2.121 . S
Co435 O443 2.055 . S
Co435 O446 2.039 1_565 S
Co435 N449 2.140 . S
C436 O437 1.227 . S
C436 O446 1.265 . S
O437 C436 1.227 . S
N438 Co435 2.121 . S
N438 C440 1.375 . S
N438 C441 1.313 . S
C439 C440 1.338 . S
C439 N442 1.377 . S
C439 H459 0.930 . S
C440 N438 1.375 . S
C440 C439 1.338 . S
C440 H444 0.931 . S
C441 N438 1.313 . S
C441 N442 1.344 . S
C441 H445 0.930 . S
N442 C439 1.377 . S
N442 C441 1.344 . S
O443 Co435 2.055 . S
O443 C447 1.253 . S
H444 C440 0.931 . S
H445 C441 0.930 . S
O446 Co435 2.039 1_545 S
O446 C436 1.265 . S
C447 O443 1.253 . S
C447 O448 1.227 . S
O448 C447 1.227 . S
N449 Co435 2.140 . S
N449 C452 1.346 . S
N449 C453 1.345 . S
C450 C451 1.387 . S
C450 C454 1.391 . S
C451 C450 1.387 . S
C451 C452 1.369 . S
C451 H460 0.929 . S
C452 N449 1.346 . S
C452 C451 1.369 . S
C452 H455 0.928 . S
C453 N449 1.345 . S
C453 C454 1.371 . S
C453 H456 0.931 . S
C454 C450 1.391 . S
C454 C453 1.371 . S
C454 H461 0.930 . S
H455 C452 0.928 . S
H456 C453 0.931 . S
H457 C433 0.930 . S
H458 C430 0.930 . S
H459 C439 0.930 . S
H460 C451 0.929 . S
H461 C454 0.930 . S
C462 C463 1.351 . S
C462 N465 1.368 . S
C462 H467 0.931 . S
C463 C462 1.351 . S
C463 N464 1.373 . S
C463 H491 0.930 . S
N464 C463 1.373 . S
N464 C466 1.340 . S
N465 C462 1.368 . S
N465 C466 1.321 . S
N465 Co468 2.135 . S
C466 N464 1.340 . S
C466 N465 1.321 . S
C466 H490 0.930 . S
H467 C462 0.931 . S
Co468 N465 2.135 . S
Co468 N471 2.121 . S
Co468 O476 2.055 . S
Co468 O479 2.039 . S
Co468 N482 2.140 . S
C469 O470 1.227 . S
C469 O479 1.265 . S
O470 C469 1.227 . S
N471 Co468 2.121 . S
N471 C473 1.375 . S
N471 C474 1.313 . S
C472 C473 1.338 . S
C472 N475 1.377 . S
C472 H492 0.930 . S
C473 N471 1.375 . S
C473 C472 1.338 . S
C473 H477 0.931 . S
C474 N471 1.313 . S
C474 N475 1.344 . S
C474 H478 0.930 . S
N475 C472 1.377 . S
N475 C474 1.344 . S
O476 Co468 2.055 . S
O476 C480 1.253 . S
H477 C473 0.931 . S
H478 C474 0.930 . S
O479 Co468 2.039 . S
O479 C469 1.265 . S
C480 O476 1.253 . S
C480 O481 1.227 . S
O481 C480 1.227 . S
N482 Co468 2.140 . S
N482 C485 1.346 . S
N482 C486 1.345 . S
C483 C484 1.387 . S
C483 C487 1.391 . S
C484 C483 1.387 . S
C484 C485 1.369 . S
C484 H493 0.929 . S
C485 N482 1.346 . S
C485 C484 1.369 . S
C485 H488 0.928 . S
C486 N482 1.345 . S
C486 C487 1.371 . S
C486 H489 0.931 . S
C487 C483 1.391 . S
C487 C486 1.371 . S
C487 H494 0.930 . S
H488 C485 0.928 . S
H489 C486 0.931 . S
H490 C466 0.930 . S
H491 C463 0.930 . S
H492 C472 0.930 . S
H493 C484 0.929 . S
H494 C487 0.930 . S
C495 C496 1.351 . S
C495 N498 1.368 . S
C495 H500 0.931 . S
C496 C495 1.351 . S
C496 N497 1.373 . S
C496 H524 0.930 . S
N497 C496 1.373 . S
N497 C499 1.340 . S
N498 C495 1.368 . S
N498 C499 1.321 . S
N498 Co501 2.135 . S
C499 N497 1.340 . S
C499 N498 1.321 . S
C499 H523 0.930 . S
H500 C495 0.931 . S
Co501 N498 2.135 . S
Co501 N504 2.121 . S
Co501 O509 2.055 . S
Co501 O512 2.039 . S
Co501 N515 2.140 . S
C502 O503 1.227 . S
C502 O512 1.265 . S
O503 C502 1.227 . S
N504 Co501 2.121 . S
N504 C506 1.375 . S
N504 C507 1.313 . S
C505 C506 1.338 . S
C505 N508 1.377 . S
C505 H525 0.930 . S
C506 N504 1.375 . S
C506 C505 1.338 . S
C506 H510 0.931 . S
C507 N504 1.313 . S
C507 N508 1.344 . S
C507 H511 0.930 . S
N508 C505 1.377 . S
N508 C507 1.344 . S
O509 Co501 2.055 . S
O509 C513 1.253 . S
H510 C506 0.931 . S
H511 C507 0.930 . S
O512 Co501 2.039 . S
O512 C502 1.265 . S
C513 O509 1.253 . S
C513 O514 1.227 . S
O514 C513 1.227 . S
N515 Co501 2.140 . S
N515 C518 1.346 . S
N515 C519 1.345 . S
C516 C517 1.387 . S
C516 C520 1.391 . S
C517 C516 1.387 . S
C517 C518 1.369 . S
C517 H526 0.929 . S
C518 N515 1.346 . S
C518 C517 1.369 . S
C518 H521 0.928 . S
C519 N515 1.345 . S
C519 C520 1.371 . S
C519 H522 0.931 . S
C520 C516 1.391 . S
C520 C519 1.371 . S
C520 H527 0.930 . S
H521 C518 0.928 . S
H522 C519 0.931 . S
H523 C499 0.930 . S
H524 C496 0.930 . S
H525 C505 0.930 . S
H526 C517 0.929 . S
H527 C520 0.930 . S
C528 C529 1.369 . S
C528 C530 1.419 . S
C528 H532 0.930 . S
C529 C528 1.369 . S
C529 C538 1.429 . S
C530 C528 1.419 . S
C530 C531 1.363 . S
C530 H533 0.929 . S
C531 C530 1.363 . S
C531 C537 1.428 . S
H532 C528 0.930 . S
H533 C530 0.929 . S
S534 N535 1.613 . S
S534 N536 1.610 . S
N535 S534 1.613 . S
N535 C538 1.350 . S
N536 S534 1.610 . S
N536 C537 1.351 . S
C537 C531 1.428 . S
C537 N536 1.351 . S
C537 C538 1.434 . S
C538 C529 1.429 . S
C538 N535 1.350 . S
C538 C537 1.434 . S
C539 C540 1.369 . S
C539 C541 1.419 . S
C539 H543 0.930 . S
C540 C539 1.369 . S
C540 C549 1.429 . S
C541 C539 1.419 . S
C541 C542 1.363 . S
C541 H544 0.929 . S
C542 C541 1.363 . S
C542 C548 1.428 . S
H543 C539 0.930 . S
H544 C541 0.929 . S
S545 N546 1.613 . S
S545 N547 1.610 . S
N546 S545 1.613 . S
N546 C549 1.350 . S
N547 S545 1.610 . S
N547 C548 1.351 . S
C548 C542 1.428 . S
C548 N547 1.351 . S
C548 C549 1.434 . S
C549 C540 1.429 . S
C549 N546 1.350 . S
C549 C548 1.434 . S
C550 C551 1.369 . S
C550 C552 1.419 . S
C550 H554 0.930 . S
C551 C550 1.369 . S
C551 C560 1.429 . S
C552 C550 1.419 . S
C552 C553 1.363 . S
C552 H555 0.929 . S
C553 C552 1.363 . S
C553 C559 1.428 . S
H554 C550 0.930 . S
H555 C552 0.929 . S
S556 N557 1.613 . S
S556 N558 1.610 . S
N557 S556 1.613 . S
N557 C560 1.350 . S
N558 S556 1.610 . S
N558 C559 1.351 . S
C559 C553 1.428 . S
C559 N558 1.351 . S
C559 C560 1.434 . S
C560 C551 1.429 . S
C560 N557 1.350 . S
C560 C559 1.434 . S
C561 C562 1.369 . S
C561 C563 1.419 . S
C561 H565 0.930 . S
C562 C561 1.369 . S
C562 C571 1.429 . S
C563 C561 1.419 . S
C563 C564 1.363 . S
C563 H566 0.929 . S
C564 C563 1.363 . S
C564 C570 1.428 . S
H565 C561 0.930 . S
H566 C563 0.929 . S
S567 N568 1.613 . S
S567 N569 1.610 . S
N568 S567 1.613 . S
N568 C571 1.350 . S
N569 S567 1.610 . S
N569 C570 1.351 . S
C570 C564 1.428 . S
C570 N569 1.351 . S
C570 C571 1.434 . S
C571 C562 1.429 . S
C571 N568 1.350 . S
C571 C570 1.434 . S
C572 C573 1.369 . S
C572 C574 1.419 . S
C572 H576 0.930 . S
C573 C572 1.369 . S
C573 C582 1.429 . S
C574 C572 1.419 . S
C574 C575 1.363 . S
C574 H577 0.929 . S
C575 C574 1.363 . S
C575 C581 1.428 . S
H576 C572 0.930 . S
H577 C574 0.929 . S
S578 N579 1.613 . S
S578 N580 1.610 . S
N579 S578 1.613 . S
N579 C582 1.350 . S
N580 S578 1.610 . S
N580 C581 1.351 . S
C581 C575 1.428 . S
C581 N580 1.351 . S
C581 C582 1.434 . S
C582 C573 1.429 . S
C582 N579 1.350 . S
C582 C581 1.434 . S
C583 C584 1.369 . S
C583 C585 1.419 . S
C583 H587 0.930 . S
C584 C583 1.369 . S
C584 C593 1.429 . S
C585 C583 1.419 . S
C585 C586 1.363 . S
C585 H588 0.929 . S
C586 C585 1.363 . S
C586 C592 1.428 . S
H587 C583 0.930 . S
H588 C585 0.929 . S
S589 N590 1.613 . S
S589 N591 1.610 . S
N590 S589 1.613 . S
N590 C593 1.350 . S
N591 S589 1.610 . S
N591 C592 1.351 . S
C592 C586 1.428 . S
C592 N591 1.351 . S
C592 C593 1.434 . S
C593 C584 1.429 . S
C593 N590 1.350 . S
C593 C592 1.434 . S
C594 C595 1.369 . S
C594 C596 1.419 . S
C594 H598 0.930 . S
C595 C594 1.369 . S
C595 C604 1.429 . S
C596 C594 1.419 . S
C596 C597 1.363 . S
C596 H599 0.929 . S
C597 C596 1.363 . S
C597 C603 1.428 . S
H598 C594 0.930 . S
H599 C596 0.929 . S
S600 N601 1.613 . S
S600 N602 1.610 . S
N601 S600 1.613 . S
N601 C604 1.350 . S
N602 S600 1.610 . S
N602 C603 1.351 . S
C603 C597 1.428 . S
C603 N602 1.351 . S
C603 C604 1.434 . S
C604 C595 1.429 . S
C604 N601 1.350 . S
C604 C603 1.434 . S
C605 C606 1.369 . S
C605 C607 1.419 . S
C605 H609 0.930 . S
C606 C605 1.369 . S
C606 C615 1.429 . S
C607 C605 1.419 . S
C607 C608 1.363 . S
C607 H610 0.929 . S
C608 C607 1.363 . S
C608 C614 1.428 . S
H609 C605 0.930 . S
H610 C607 0.929 . S
S611 N612 1.613 . S
S611 N613 1.610 . S
N612 S611 1.613 . S
N612 C615 1.350 . S
N613 S611 1.610 . S
N613 C614 1.351 . S
C614 C608 1.428 . S
C614 N613 1.351 . S
C614 C615 1.434 . S
C615 C606 1.429 . S
C615 N612 1.350 . S
C615 C614 1.434 . S
C616 C617 1.369 . S
C616 C618 1.419 . S
C616 H620 0.930 . S
C617 C616 1.369 . S
C617 C626 1.429 . S
C618 C616 1.419 . S
C618 C619 1.363 . S
C618 H621 0.929 . S
C619 C618 1.363 . S
C619 C625 1.428 . S
H620 C616 0.930 . S
H621 C618 0.929 . S
S622 N623 1.613 . S
S622 N624 1.610 . S
N623 S622 1.613 . S
N623 C626 1.350 . S
N624 S622 1.610 . S
N624 C625 1.351 . S
C625 C619 1.428 . S
C625 N624 1.351 . S
C625 C626 1.434 . S
C626 C617 1.429 . S
C626 N623 1.350 . S
C626 C625 1.434 . S
C627 C628 1.369 . S
C627 C629 1.419 . S
C627 H631 0.930 . S
C628 C627 1.369 . S
C628 C637 1.429 . S
C629 C627 1.419 . S
C629 C630 1.363 . S
C629 H632 0.929 . S
C630 C629 1.363 . S
C630 C636 1.428 . S
H631 C627 0.930 . S
H632 C629 0.929 . S
S633 N634 1.613 . S
S633 N635 1.610 . S
N634 S633 1.613 . S
N634 C637 1.350 . S
N635 S633 1.610 . S
N635 C636 1.351 . S
C636 C630 1.428 . S
C636 N635 1.351 . S
C636 C637 1.434 . S
C637 C628 1.429 . S
C637 N634 1.350 . S
C637 C636 1.434 . S
C638 C639 1.369 . S
C638 C640 1.419 . S
C638 H642 0.930 . S
C639 C638 1.369 . S
C639 C648 1.429 . S
C640 C638 1.419 . S
C640 C641 1.363 . S
C640 H643 0.929 . S
C641 C640 1.363 . S
C641 C647 1.428 . S
H642 C638 0.930 . S
H643 C640 0.929 . S
S644 N645 1.613 . S
S644 N646 1.610 . S
N645 S644 1.613 . S
N645 C648 1.350 . S
N646 S644 1.610 . S
N646 C647 1.351 . S
C647 C641 1.428 . S
C647 N646 1.351 . S
C647 C648 1.434 . S
C648 C639 1.429 . S
C648 N645 1.350 . S
C648 C647 1.434 . S
C649 C650 1.369 . S
C649 C651 1.419 . S
C649 H653 0.930 . S
C650 C649 1.369 . S
C650 C659 1.429 . S
C651 C649 1.419 . S
C651 C652 1.363 . S
C651 H654 0.929 . S
C652 C651 1.363 . S
C652 C658 1.428 . S
H653 C649 0.930 . S
H654 C651 0.929 . S
S655 N656 1.613 . S
S655 N657 1.610 . S
N656 S655 1.613 . S
N656 C659 1.350 . S
N657 S655 1.610 . S
N657 C658 1.351 . S
C658 C652 1.428 . S
C658 N657 1.351 . S
C658 C659 1.434 . S
C659 C650 1.429 . S
C659 N656 1.350 . S
C659 C658 1.434 . S
C660 C661 1.369 . S
C660 C662 1.419 . S
C660 H664 0.930 . S
C661 C660 1.369 . S
C661 C670 1.429 . S
C662 C660 1.419 . S
C662 C663 1.363 . S
C662 H665 0.929 . S
C663 C662 1.363 . S
C663 C669 1.428 . S
H664 C660 0.930 . S
H665 C662 0.929 . S
S666 N667 1.613 . S
S666 N668 1.610 . S
N667 S666 1.613 . S
N667 C670 1.350 . S
N668 S666 1.610 . S
N668 C669 1.351 . S
C669 C663 1.428 . S
C669 N668 1.351 . S
C669 C670 1.434 . S
C670 C661 1.429 . S
C670 N667 1.350 . S
C670 C669 1.434 . S
C671 C672 1.369 . S
C671 C673 1.419 . S
C671 H675 0.930 . S
C672 C671 1.369 . S
C672 C681 1.429 . S
C673 C671 1.419 . S
C673 C674 1.363 . S
C673 H676 0.929 . S
C674 C673 1.363 . S
C674 C680 1.428 . S
H675 C671 0.930 . S
H676 C673 0.929 . S
S677 N678 1.613 . S
S677 N679 1.610 . S
N678 S677 1.613 . S
N678 C681 1.350 . S
N679 S677 1.610 . S
N679 C680 1.351 . S
C680 C674 1.428 . S
C680 N679 1.351 . S
C680 C681 1.434 . S
C681 C672 1.429 . S
C681 N678 1.350 . S
C681 C680 1.434 . S
C682 C683 1.369 . S
C682 C684 1.419 . S
C682 H686 0.930 . S
C683 C682 1.369 . S
C683 C692 1.429 . S
C684 C682 1.419 . S
C684 C685 1.363 . S
C684 H687 0.929 . S
C685 C684 1.363 . S
C685 C691 1.428 . S
H686 C682 0.930 . S
H687 C684 0.929 . S
S688 N689 1.613 . S
S688 N690 1.610 . S
N689 S688 1.613 . S
N689 C692 1.350 . S
N690 S688 1.610 . S
N690 C691 1.351 . S
C691 C685 1.428 . S
C691 N690 1.351 . S
C691 C692 1.434 . S
C692 C683 1.429 . S
C692 N689 1.350 . S
C692 C691 1.434 . S
C693 C694 1.369 . S
C693 C695 1.419 . S
C693 H697 0.930 . S
C694 C693 1.369 . S
C694 C703 1.429 . S
C695 C693 1.419 . S
C695 C696 1.363 . S
C695 H698 0.929 . S
C696 C695 1.363 . S
C696 C702 1.428 . S
H697 C693 0.930 . S
H698 C695 0.929 . S
S699 N700 1.613 . S
S699 N701 1.610 . S
N700 S699 1.613 . S
N700 C703 1.350 . S
N701 S699 1.610 . S
N701 C702 1.351 . S
C702 C696 1.428 . S
C702 N701 1.351 . S
C702 C703 1.434 . S
C703 C694 1.429 . S
C703 N700 1.350 . S
C703 C702 1.434 . S
C704 C705 1.369 . S
C704 C706 1.419 . S
C704 H708 0.930 . S
C705 C704 1.369 . S
C705 C714 1.429 . S
C706 C704 1.419 . S
C706 C707 1.363 . S
C706 H709 0.929 . S
C707 C706 1.363 . S
C707 C713 1.428 . S
H708 C704 0.930 . S
H709 C706 0.929 . S
S710 N711 1.613 . S
S710 N712 1.610 . S
N711 S710 1.613 . S
N711 C714 1.350 . S
N712 S710 1.610 . S
N712 C713 1.351 . S
C713 C707 1.428 . S
C713 N712 1.351 . S
C713 C714 1.434 . S
C714 C705 1.429 . S
C714 N711 1.350 . S
C714 C713 1.434 . S
C715 C716 1.369 . S
C715 C717 1.419 . S
C715 H719 0.930 . S
C716 C715 1.369 . S
C716 C725 1.429 . S
C717 C715 1.419 . S
C717 C718 1.363 . S
C717 H720 0.929 . S
C718 C717 1.363 . S
C718 C724 1.428 . S
H719 C715 0.930 . S
H720 C717 0.929 . S
S721 N722 1.613 . S
S721 N723 1.610 . S
N722 S721 1.613 . S
N722 C725 1.350 . S
N723 S721 1.610 . S
N723 C724 1.351 . S
C724 C718 1.428 . S
C724 N723 1.351 . S
C724 C725 1.434 . S
C725 C716 1.429 . S
C725 N722 1.350 . S
C725 C724 1.434 . S
C726 C727 1.369 . S
C726 C728 1.419 . S
C726 H730 0.930 . S
C727 C726 1.369 . S
C727 C736 1.429 . S
C728 C726 1.419 . S
C728 C729 1.363 . S
C728 H731 0.929 . S
C729 C728 1.363 . S
C729 C735 1.428 . S
H730 C726 0.930 . S
H731 C728 0.929 . S
S732 N733 1.613 . S
S732 N734 1.610 . S
N733 S732 1.613 . S
N733 C736 1.350 . S
N734 S732 1.610 . S
N734 C735 1.351 . S
C735 C729 1.428 . S
C735 N734 1.351 . S
C735 C736 1.434 . S
C736 C727 1.429 . S
C736 N733 1.350 . S
C736 C735 1.434 . S
C737 C738 1.369 . S
C737 C739 1.419 . S
C737 H741 0.930 . S
C738 C737 1.369 . S
C738 C747 1.429 . S
C739 C737 1.419 . S
C739 C740 1.363 . S
C739 H742 0.929 . S
C740 C739 1.363 . S
C740 C746 1.428 . S
H741 C737 0.930 . S
H742 C739 0.929 . S
S743 N744 1.613 . S
S743 N745 1.610 . S
N744 S743 1.613 . S
N744 C747 1.350 . S
N745 S743 1.610 . S
N745 C746 1.351 . S
C746 C740 1.428 . S
C746 N745 1.351 . S
C746 C747 1.434 . S
C747 C738 1.429 . S
C747 N744 1.350 . S
C747 C746 1.434 . S
C748 C749 1.369 . S
C748 C750 1.419 . S
C748 H752 0.930 . S
C749 C748 1.369 . S
C749 C758 1.429 . S
C750 C748 1.419 . S
C750 C751 1.363 . S
C750 H753 0.929 . S
C751 C750 1.363 . S
C751 C757 1.428 . S
H752 C748 0.930 . S
H753 C750 0.929 . S
S754 N755 1.613 . S
S754 N756 1.610 . S
N755 S754 1.613 . S
N755 C758 1.350 . S
N756 S754 1.610 . S
N756 C757 1.351 . S
C757 C751 1.428 . S
C757 N756 1.351 . S
C757 C758 1.434 . S
C758 C749 1.429 . S
C758 N755 1.350 . S
C758 C757 1.434 . S
C759 C760 1.369 . S
C759 C761 1.419 . S
C759 H763 0.930 . S
C760 C759 1.369 . S
C760 C769 1.429 . S
C761 C759 1.419 . S
C761 C762 1.363 . S
C761 H764 0.929 . S
C762 C761 1.363 . S
C762 C768 1.428 . S
H763 C759 0.930 . S
H764 C761 0.929 . S
S765 N766 1.613 . S
S765 N767 1.610 . S
N766 S765 1.613 . S
N766 C769 1.350 . S
N767 S765 1.610 . S
N767 C768 1.351 . S
C768 C762 1.428 . S
C768 N767 1.351 . S
C768 C769 1.434 . S
C769 C760 1.429 . S
C769 N766 1.350 . S
C769 C768 1.434 . S
C770 C771 1.369 . S
C770 C772 1.419 . S
C770 H774 0.930 . S
C771 C770 1.369 . S
C771 C780 1.429 . S
C772 C770 1.419 . S
C772 C773 1.363 . S
C772 H775 0.929 . S
C773 C772 1.363 . S
C773 C779 1.428 . S
H774 C770 0.930 . S
H775 C772 0.929 . S
S776 N777 1.613 . S
S776 N778 1.610 . S
N777 S776 1.613 . S
N777 C780 1.350 . S
N778 S776 1.610 . S
N778 C779 1.351 . S
C779 C773 1.428 . S
C779 N778 1.351 . S
C779 C780 1.434 . S
C780 C771 1.429 . S
C780 N777 1.350 . S
C780 C779 1.434 . S
C781 C782 1.369 . S
C781 C783 1.419 . S
C781 H785 0.930 . S
C782 C781 1.369 . S
C782 C791 1.429 . S
C783 C781 1.419 . S
C783 C784 1.363 . S
C783 H786 0.929 . S
C784 C783 1.363 . S
C784 C790 1.428 . S
H785 C781 0.930 . S
H786 C783 0.929 . S
S787 N788 1.613 . S
S787 N789 1.610 . S
N788 S787 1.613 . S
N788 C791 1.350 . S
N789 S787 1.610 . S
N789 C790 1.351 . S
C790 C784 1.428 . S
C790 N789 1.351 . S
C790 C791 1.434 . S
C791 C782 1.429 . S
C791 N788 1.350 . S
C791 C790 1.434 . S
C792 C793 1.369 . S
C792 C794 1.419 . S
C792 H796 0.930 . S
C793 C792 1.369 . S
C793 C802 1.429 . S
C794 C792 1.419 . S
C794 C795 1.363 . S
C794 H797 0.929 . S
C795 C794 1.363 . S
C795 C801 1.428 . S
H796 C792 0.930 . S
H797 C794 0.929 . S
S798 N799 1.613 . S
S798 N800 1.610 . S
N799 S798 1.613 . S
N799 C802 1.350 . S
N800 S798 1.610 . S
N800 C801 1.351 . S
C801 C795 1.428 . S
C801 N800 1.351 . S
C801 C802 1.434 . S
C802 C793 1.429 . S
C802 N799 1.350 . S
C802 C801 1.434 . S
C803 C804 1.369 . S
C803 C805 1.419 . S
C803 H807 0.930 . S
C804 C803 1.369 . S
C804 C813 1.429 . S
C805 C803 1.419 . S
C805 C806 1.363 . S
C805 H808 0.929 . S
C806 C805 1.363 . S
C806 C812 1.428 . S
H807 C803 0.930 . S
H808 C805 0.929 . S
S809 N810 1.613 . S
S809 N811 1.610 . S
N810 S809 1.613 . S
N810 C813 1.350 . S
N811 S809 1.610 . S
N811 C812 1.351 . S
C812 C806 1.428 . S
C812 N811 1.351 . S
C812 C813 1.434 . S
C813 C804 1.429 . S
C813 N810 1.350 . S
C813 C812 1.434 . S
C814 C815 1.369 . S
C814 C816 1.419 . S
C814 H818 0.930 . S
C815 C814 1.369 . S
C815 C824 1.429 . S
C816 C814 1.419 . S
C816 C817 1.363 . S
C816 H819 0.929 . S
C817 C816 1.363 . S
C817 C823 1.428 . S
H818 C814 0.930 . S
H819 C816 0.929 . S
S820 N821 1.613 . S
S820 N822 1.610 . S
N821 S820 1.613 . S
N821 C824 1.350 . S
N822 S820 1.610 . S
N822 C823 1.351 . S
C823 C817 1.428 . S
C823 N822 1.351 . S
C823 C824 1.434 . S
C824 C815 1.429 . S
C824 N821 1.350 . S
C824 C823 1.434 . S
C825 C826 1.369 . S
C825 C827 1.419 . S
C825 H829 0.930 . S
C826 C825 1.369 . S
C826 C835 1.429 . S
C827 C825 1.419 . S
C827 C828 1.363 . S
C827 H830 0.929 . S
C828 C827 1.363 . S
C828 C834 1.428 . S
H829 C825 0.930 . S
H830 C827 0.929 . S
S831 N832 1.613 . S
S831 N833 1.610 . S
N832 S831 1.613 . S
N832 C835 1.350 . S
N833 S831 1.610 . S
N833 C834 1.351 . S
C834 C828 1.428 . S
C834 N833 1.351 . S
C834 C835 1.434 . S
C835 C826 1.429 . S
C835 N832 1.350 . S
C835 C834 1.434 . S
C836 C837 1.369 . S
C836 C838 1.419 1_556 S
C836 H840 0.930 . S
C837 C836 1.369 . S
C837 C846 1.429 . S
C838 C836 1.419 1_554 S
C838 C839 1.363 . S
C838 H841 0.929 . S
C839 C838 1.363 . S
C839 C845 1.428 . S
H840 C836 0.930 . S
H841 C838 0.929 . S
S842 N843 1.613 . S
S842 N844 1.610 1_556 S
N843 S842 1.613 . S
N843 C846 1.350 . S
N844 S842 1.610 1_554 S
N844 C845 1.351 . S
C845 C839 1.428 . S
C845 N844 1.351 . S
C845 C846 1.434 1_554 S
C846 C837 1.429 . S
C846 N843 1.350 . S
C846 C845 1.434 1_556 S
C847 C848 1.369 1_556 S
C847 C849 1.419 . S
C847 H851 0.930 . S
C848 C847 1.369 1_554 S
C848 C857 1.429 . S
C849 C847 1.419 . S
C849 C850 1.363 . S
C849 H852 0.929 . S
C850 C849 1.363 . S
C850 C856 1.428 . S
H851 C847 0.930 . S
H852 C849 0.929 . S
S853 N854 1.613 . S
S853 N855 1.610 1_554 S
N854 S853 1.613 . S
N854 C857 1.350 . S
N855 S853 1.610 1_556 S
N855 C856 1.351 . S
C856 C850 1.428 . S
C856 N855 1.351 . S
C856 C857 1.434 1_556 S
C857 C848 1.429 . S
C857 N854 1.350 . S
C857 C856 1.434 1_554 S
C858 C859 1.369 . S
C858 C860 1.419 1_556 S
C858 H862 0.930 . S
C859 C858 1.369 . S
C859 C868 1.429 . S
C860 C858 1.419 1_554 S
C860 C861 1.363 . S
C860 H863 0.929 . S
C861 C860 1.363 . S
C861 C867 1.428 . S
H862 C858 0.930 . S
H863 C860 0.929 . S
S864 N865 1.613 1_554 S
S864 N866 1.610 . S
N865 S864 1.613 1_556 S
N865 C868 1.350 . S
N866 S864 1.610 . S
N866 C867 1.351 . S
C867 C861 1.428 . S
C867 N866 1.351 . S
C867 C868 1.434 1_554 S
C868 C859 1.429 . S
C868 N865 1.350 . S
C868 C867 1.434 1_556 S
C869 C870 1.369 . S
C869 C871 1.419 1_554 S
C869 H873 0.930 . S
C870 C869 1.369 . S
C870 C879 1.429 1_554 S
C871 C869 1.419 1_556 S
C871 C872 1.363 . S
C871 H874 0.929 . S
C872 C871 1.363 . S
C872 C878 1.428 . S
H873 C869 0.930 . S
H874 C871 0.929 . S
S875 N876 1.613 . S
S875 N877 1.610 . S
N876 S875 1.613 . S
N876 C879 1.350 . S
N877 S875 1.610 . S
N877 C878 1.351 . S
C878 C872 1.428 . S
C878 N877 1.351 . S
C878 C879 1.434 . S
C879 C870 1.429 1_556 S
C879 N876 1.350 . S
C879 C878 1.434 . S
C880 C881 1.369 . S
C880 C882 1.419 . S
C880 H884 0.930 . S
C881 C880 1.369 . S
C881 C890 1.429 . S
C882 C880 1.419 . S
C882 C883 1.363 . S
C882 H885 0.929 . S
C883 C882 1.363 . S
C883 C889 1.428 . S
H884 C880 0.930 . S
H885 C882 0.929 . S
S886 N887 1.613 . S
S886 N888 1.610 . S
N887 S886 1.613 . S
N887 C890 1.350 . S
N888 S886 1.610 . S
N888 C889 1.351 . S
C889 C883 1.428 . S
C889 N888 1.351 . S
C889 C890 1.434 . S
C890 C881 1.429 . S
C890 N887 1.350 . S
C890 C889 1.434 . S
C891 C892 1.369 . S
C891 C893 1.419 . S
C891 H895 0.930 . S
C892 C891 1.369 . S
C892 C901 1.429 . S
C893 C891 1.419 . S
C893 C894 1.363 . S
C893 H896 0.929 . S
C894 C893 1.363 . S
C894 C900 1.428 . S
H895 C891 0.930 . S
H896 C893 0.929 . S
S897 N898 1.613 . S
S897 N899 1.610 . S
N898 S897 1.613 . S
N898 C901 1.350 . S
N899 S897 1.610 . S
N899 C900 1.351 . S
C900 C894 1.428 . S
C900 N899 1.351 . S
C900 C901 1.434 . S
C901 C892 1.429 . S
C901 N898 1.350 . S
C901 C900 1.434 . S
C902 C903 1.369 . S
C902 C904 1.419 . S
C902 H906 0.930 . S
C903 C902 1.369 . S
C903 C912 1.429 . S
C904 C902 1.419 . S
C904 C905 1.363 . S
C904 H907 0.929 . S
C905 C904 1.363 . S
C905 C911 1.428 . S
H906 C902 0.930 . S
H907 C904 0.929 . S
S908 N909 1.613 . S
S908 N910 1.610 . S
N909 S908 1.613 . S
N909 C912 1.350 . S
N910 S908 1.610 . S
N910 C911 1.351 . S
C911 C905 1.428 . S
C911 N910 1.351 . S
C911 C912 1.434 . S
C912 C903 1.429 . S
C912 N909 1.350 . S
C912 C911 1.434 . S
C913 C914 1.369 . S
C913 C915 1.419 . S
C913 H917 0.930 . S
C914 C913 1.369 . S
C914 C923 1.429 . S
C915 C913 1.419 . S
C915 C916 1.363 . S
C915 H918 0.929 . S
C916 C915 1.363 . S
C916 C922 1.428 . S
H917 C913 0.930 . S
H918 C915 0.929 . S
S919 N920 1.612 . S
S919 N921 1.608 . S
N920 S919 1.612 . S
N920 C923 1.350 . S
N921 S919 1.608 . S
N921 C922 1.351 . S
C922 C916 1.428 . S
C922 N921 1.351 . S
C922 C923 1.434 . S
C923 C914 1.429 . S
C923 N920 1.350 . S
C923 C922 1.434 . S
C924 C925 1.369 . S
C924 C926 1.419 . S
C924 H928 0.930 . S
C925 C924 1.369 . S
C925 C934 1.429 1_554 S
C926 C924 1.419 . S
C926 C927 1.363 1_554 S
C926 H929 0.929 . S
C927 C926 1.363 1_556 S
C927 C933 1.428 . S
H928 C924 0.930 . S
H929 C926 0.929 . S
S930 N931 1.613 . S
S930 N932 1.610 . S
N931 S930 1.613 . S
N931 C934 1.350 . S
N932 S930 1.610 . S
N932 C933 1.351 . S
C933 C927 1.428 . S
C933 N932 1.351 . S
C933 C934 1.434 . S
C934 C925 1.429 1_556 S
C934 N931 1.350 . S
C934 C933 1.434 . S
C935 C936 1.369 . S
C935 C937 1.419 1_556 S
C935 H939 0.930 . S
C936 C935 1.369 . S
C936 C945 1.429 . S
C937 C935 1.419 1_554 S
C937 C938 1.363 . S
C937 H940 0.929 . S
C938 C937 1.363 . S
C938 C944 1.428 . S
H939 C935 0.930 . S
H940 C937 0.929 . S
S941 N942 1.613 . S
S941 N943 1.610 1_556 S
N942 S941 1.613 . S
N942 C945 1.350 . S
N943 S941 1.610 1_554 S
N943 C944 1.351 . S
C944 C938 1.428 . S
C944 N943 1.351 . S
C944 C945 1.434 1_554 S
C945 C936 1.429 . S
C945 N942 1.350 . S
C945 C944 1.434 1_556 S
C946 C947 1.369 . S
C946 C948 1.419 1_554 S
C946 H950 0.930 . S
C947 C946 1.369 . S
C947 C956 1.429 . S
C948 C946 1.419 1_556 S
C948 C949 1.363 . S
C948 H951 0.929 . S
C949 C948 1.363 . S
C949 C955 1.428 . S
H950 C946 0.930 . S
H951 C948 0.929 . S
S952 N953 1.613 . S
S952 N954 1.610 1_554 S
N953 S952 1.613 . S
N953 C956 1.350 . S
N954 S952 1.610 1_556 S
N954 C955 1.351 . S
C955 C949 1.428 . S
C955 N954 1.351 . S
C955 C956 1.434 1_556 S
C956 C947 1.429 . S
C956 N953 1.350 . S
C956 C955 1.434 1_554 S
C957 C958 1.369 . S
C957 C959 1.419 1_554 S
C957 H961 0.930 . S
C958 C957 1.369 . S
C958 C967 1.429 . S
C959 C957 1.419 1_556 S
C959 C960 1.363 . S
C959 H962 0.929 . S
C960 C959 1.363 . S
C960 C966 1.428 . S
H961 C957 0.930 . S
H962 C959 0.929 . S
S963 N964 1.613 . S
S963 N965 1.610 1_554 S
N964 S963 1.613 . S
N964 C967 1.350 . S
N965 S963 1.610 1_556 S
N965 C966 1.351 . S
C966 C960 1.428 . S
C966 N965 1.351 . S
C966 C967 1.434 1_556 S
C967 C958 1.429 . S
C967 N964 1.350 . S
C967 C966 1.434 1_554 S
C529 N101 1.512 . S
C531 C7 1.678 . S
C540 C40 1.673 . S
C542 N2 1.512 . S
C551 C73 1.674 . S
C553 N35 1.513 . S
C562 C106 1.678 . S
C564 N68 1.503 . S
C573 N167 1.501 . S
C575 C139 1.683 . S
C584 N200 1.509 . S
C586 C172 1.680 . S
C595 C205 1.673 . S
C597 N233 1.512 . S
C606 N134 1.502 . S
C608 C238 1.683 . S
C617 C271 1.680 . S
C619 N365 1.503 . S
C628 C304 1.681 . S
C630 N266 1.507 . S
C639 N299 1.502 . S
C641 C337 1.679 . S
C650 C370 1.676 . S
C652 N332 1.507 . S
C661 N431 1.508 . S
C663 C403 1.680 . S
C672 C436 1.673 . S
C674 N464 1.511 . S
C683 C469 1.674 . S
C685 N497 1.510 . S
C694 C502 1.684 . S
C696 N398 1.503 . S
C705 C21 1.649 . S
C707 C186 1.644 . S
C716 C54 1.644 . S
C718 C219 1.648 . S
C727 C252 1.642 . S
C729 C87 1.646 . S
C738 C120 1.647 . S
C740 C153 1.642 . S
C749 C450 1.642 . S
C751 C285 1.646 . S
C760 C483 1.642 . S
C762 C318 1.648 . S
C771 C351 1.646 . S
C773 C516 1.647 . S
C782 C417 1.641 . S
C784 C384 1.647 . S
C793 N13 1.255 . S
C795 C381 1.261 . S
C804 N46 1.251 . S
C806 C282 1.263 . S
C815 N79 1.248 . S
C817 C315 1.262 . S
C826 N112 1.254 . S
C828 C348 1.261 . S
C837 C447 1.261 . S
C839 N145 1.251 . S
C848 N178 1.252 . S
C850 C480 1.260 . S
C859 C513 1.263 . S
C861 N211 1.251 . S
C870 N244 1.248 . S
C872 C414 1.263 . S
C881 C117 1.264 . S
C883 N277 1.250 . S
C892 C18 1.260 . S
C894 N310 1.254 . S
C903 C51 1.264 . S
C905 N343 1.250 . S
C914 C84 1.261 . S
C916 N376 1.250 . S
C925 C183 1.260 . S
C927 N409 1.253 . S
C936 N442 1.251 . S
C938 C216 1.263 . S
C947 C249 1.262 . S
C949 N475 1.249 . S
C958 C150 1.263 . S
C960 N508 1.251 . S
