# Generated by pormake.
# Topology kag, (6)-cn, num edge types: 1
# Building blocks:
#     Node 0, Type 0, BuildingBlock: GEDQOX_clean_sbu_0, # of connection points: 6
#     Node 1, Type 0, BuildingBlock: GEDQOX_clean_sbu_0, # of connection points: 6
#     Node 2, Type 0, BuildingBlock: GEDQOX_clean_sbu_0, # of connection points: 6
#     Edge 3, Type (0, 0), BuildingBlock: KIFKEQ_clean_linker_1, # of connection points: 2
#     Edge 4, Type (0, 0), BuildingBlock: KIFKEQ_clean_linker_1, # of connection points: 2
#     Edge 5, Type (0, 0), BuildingBlock: KIFKEQ_clean_linker_1, # of connection points: 2
#     Edge 6, Type (0, 0), BuildingBlock: KIFKEQ_clean_linker_1, # of connection points: 2
#     Edge 7, Type (0, 0), BuildingBlock: KIFKEQ_clean_linker_1, # of connection points: 2
#     Edge 8, Type (0, 0), BuildingBlock: KIFKEQ_clean_linker_1, # of connection points: 2
#     Edge 9, Type (0, 0), BuildingBlock: KIFKEQ_clean_linker_1, # of connection points: 2
#     Edge 10, Type (0, 0), BuildingBlock: KIFKEQ_clean_linker_1, # of connection points: 2
#     Edge 11, Type (0, 0), BuildingBlock: KIFKEQ_clean_linker_1, # of connection points: 2
# Relax obj value: 0.075
# Max RMSD: 0.198
# Mean RMSD: 0.112
data_MOF--net-kag--node1-GEDQOX_clean_sbu_0--edge1-KIFKEQ_clean_linker_1
_symmetry_space_group_name_H-M    P1
_symmetry_Int_Tables_number       1
_symmetry_cell_setting            triclinic
loop_
_symmetry_equiv_pos_as_xyz
'x, y, z'
_cell_length_a     49.823318
_cell_length_b     42.510768
_cell_length_c     14.753305
_cell_angle_alpha  94.24151
_cell_angle_beta   89.479643
_cell_angle_gamma 140.9238
loop_
_atom_site_label
_atom_site_type_symbol
_atom_site_fract_x
_atom_site_fract_y
_atom_site_fract_z
_atom_type_partial_charge
Nd0 Nd 1.05604 0.58827 0.03963 0.0
Nd1 Nd 0.06182 0.51947 0.98338 0.0
C2 C 1.04554 0.63297 0.13424 0.0
C3 C 1.01727 0.63476 0.12952 0.0
C4 C 1.00992 0.64637 0.20965 0.0
C5 C 0.9829 0.64789 0.20682 0.0
C6 C 0.96271 0.63788 0.12355 0.0
C7 C 0.97005 0.62597 0.04328 0.0
C8 C 0.997 0.62429 0.04628 0.0
C9 C 1.04666 0.56838 0.85064 0.0
C10 C 0.96858 0.46618 0.98952 0.0
C11 C 0.07759 0.47716 0.90683 0.0
C12 C 0.10917 0.48026 0.9139 0.0
C13 C 0.12798 0.48541 0.83536 0.0
C14 C 0.15653 0.48618 0.83916 0.0
C15 C 0.1666 0.48144 0.92162 0.0
C16 C 0.14812 0.47688 1.00055 0.0
C17 C 0.1198 0.47648 0.99685 0.0
C18 C 1.05542 0.53019 0.16615 0.0
C19 C 0.151 0.64323 0.02321 0.0
O20 O 1.02763 0.59026 0.15262 0.0
O21 O 0.07274 0.65383 0.07116 0.0
O22 O 1.04612 0.59598 0.89176 0.0
O23 O 1.05133 0.5532 0.91063 0.0
O24 O 0.98699 0.50714 0.03919 0.0
O25 O 0.99102 0.46466 0.94632 0.0
O26 O 0.0903 0.51485 0.87533 0.0
O27 O 1.05264 0.45937 0.97355 0.0
O28 O 1.03953 0.48997 0.1241 0.0
O29 O 0.07684 0.56434 0.11335 0.0
O30 O 0.13271 0.59903 0.99605 0.0
O31 O 0.12886 0.64833 0.04874 0.0
H32 H 1.025 0.65409 0.27462 0.0
H33 H 0.97742 0.65629 0.27016 0.0
H34 H 0.95543 0.61857 0.97788 0.0
H35 H 1.00208 0.61495 0.98364 0.0
H36 H 0.12013 0.48817 0.77059 0.0
H37 H 0.16988 0.48922 0.77701 0.0
H38 H 0.15565 0.47375 0.06528 0.0
H39 H 0.10599 0.47277 0.05873 0.0
Nd40 Nd 0.54978 0.07755 0.99041 0.0
Nd41 Nd 0.57058 1.02844 0.023 0.0
C42 C 0.53978 0.12611 0.93372 0.0
C43 C 0.54944 0.16904 0.95292 0.0
C44 C 0.57032 0.20423 0.88936 0.0
C45 C 0.57437 0.24085 0.89904 0.0
C46 C 0.55728 0.24287 0.97223 0.0
C47 C 0.53766 0.20866 0.03753 0.0
C48 C 0.53379 0.1722 0.02807 0.0
C49 C 0.55312 0.06757 0.17168 0.0
C50 C 0.65002 0.14749 0.01736 0.0
C51 C 0.5803 0.97997 0.08231 0.0
C52 C 0.57101 0.93729 0.06408 0.0
C53 C 0.54988 0.90206 0.12766 0.0
C54 C 0.54613 0.8657 0.11908 0.0
C55 C 0.56377 0.86396 0.04698 0.0
C56 C 0.58367 0.89821 0.98164 0.0
C57 C 0.58724 0.93443 0.99001 0.0
C58 C 0.56711 1.03791 0.84137 0.0
C59 C 0.47045 0.95861 0.99347 0.0
O60 O 0.57025 0.13488 0.90854 0.0
O61 O 0.51381 0.08941 0.98513 0.0
O62 O 0.52689 0.0635 0.13535 0.0
O63 O 0.57866 0.08042 0.11496 0.0
O64 O 0.62261 0.14158 0.97682 0.0
O65 O 0.63649 0.11093 0.05831 0.0
O66 O 0.54947 0.97087 0.1054 0.0
O67 O 0.60673 1.01692 0.03155 0.0
O68 O 0.59192 1.03964 0.87698 0.0
O69 O 0.54206 1.026 0.89843 0.0
O70 O 0.49762 0.96464 0.03616 0.0
O71 O 0.4844 0.99518 0.95153 0.0
H72 H 0.5822 0.20231 0.8302 0.0
H73 H 0.58933 0.26624 0.84702 0.0
H74 H 0.52473 0.20961 0.09547 0.0
H75 H 0.51744 0.14564 0.07831 0.0
H76 H 0.53756 0.90377 0.18603 0.0
H77 H 0.53095 0.84027 0.17113 0.0
H78 H 0.59703 0.89748 0.92449 0.0
H79 H 0.60381 0.96103 0.9398 0.0
Nd80 Nd 0.51414 0.51087 0.98818 0.0
Nd81 Nd 0.60818 0.59728 0.04099 0.0
C82 C 0.43595 0.4514 0.9194 0.0
C83 C 0.40832 0.4544 0.91625 0.0
C84 C 0.4217 0.49423 0.87976 0.0
C85 C 0.39574 0.49734 0.88051 0.0
C86 C 0.3559 0.46087 0.91816 0.0
C87 C 0.34258 0.42095 0.95427 0.0
C88 C 0.36846 0.41771 0.95302 0.0
C89 C 0.53503 0.52682 0.17121 0.0
C90 C 0.56496 0.62571 0.02969 0.0
C91 C 0.68562 0.65645 0.11516 0.0
C92 C 0.71407 0.65487 0.11395 0.0
C93 C 0.75111 0.68877 0.1732 0.0
C94 C 0.77791 0.68686 0.17343 0.0
C95 C 0.76802 0.65083 0.11447 0.0
C96 C 0.73073 0.61691 0.05507 0.0
C97 C 0.70407 0.61899 0.05474 0.0
C98 C 0.58825 0.58191 0.85739 0.0
C99 C 0.55715 0.48215 0.99683 0.0
O100 O 0.4694 0.4813 0.87156 0.0
O101 O 0.44406 0.44799 0.99957 0.0
O102 O 0.50498 0.48262 0.12599 0.0
O103 O 0.55238 0.56067 0.12063 0.0
O104 O 0.53236 0.58019 0.98627 0.0
O105 O 0.59726 0.64025 0.06985 0.0
O106 O 0.65092 0.62205 0.15761 0.0
O107 O 0.67857 0.66302 0.03786 0.0
O108 O 0.61963 0.62599 0.9024 0.0
O109 O 0.56997 0.54773 0.90805 0.0
O110 O 0.59012 0.52788 0.03933 0.0
O111 O 0.52447 0.46739 0.95853 0.0
H112 H 0.45233 0.52321 0.85101 0.0
H113 H 0.40683 0.5282 0.85087 0.0
H114 H 0.31246 0.39259 0.98511 0.0
H115 H 0.35753 0.38679 0.98196 0.0
H116 H 0.75932 0.71674 0.2193 0.0
H117 H 0.80663 0.71398 0.21915 0.0
H118 H 0.72178 0.58824 1.00969 0.0
H119 H 0.67552 0.59244 1.00853 0.0
H120 H 1.04418 0.60833 0.72032 0.0
H121 H 1.04961 0.51345 0.75407 0.0
H122 H 1.04602 0.59961 0.55575 0.0
H123 H 1.05267 0.50563 0.58948 0.0
H124 H 1.01302 0.45959 0.28447 0.0
H125 H 1.01031 0.4683 0.44815 0.0
H126 H 0.09157 0.62373 0.43826 0.0
H127 H 0.09347 0.61444 0.27317 0.0
C128 C 1.0459 0.58567 0.69249 0.0
C129 C 1.04686 0.56166 0.75035 0.0
C130 C 1.04732 0.581 0.598 0.0
C131 C 1.04968 0.55207 0.55856 0.0
C132 C 1.05039 0.5278 0.6168 0.0
C133 C 1.04894 0.5325 0.71142 0.0
C134 C 1.03029 0.49566 0.31713 0.0
C135 C 1.05356 0.53637 0.26572 0.0
C136 C 1.02899 0.50078 0.41141 0.0
C137 C 1.05094 0.54682 0.45734 0.0
C138 C 0.07391 0.58752 0.4055 0.0
C139 C 0.07521 0.58235 0.31083 0.0
H140 H 0.49318 1.02614 0.29224 0.0
H141 H 0.6179 0.09854 0.27108 0.0
H142 H 0.49568 1.01771 0.45234 0.0
H143 H 0.62187 0.09296 0.43281 0.0
H144 H 0.60193 1.03509 0.70324 0.0
H145 H 0.59785 1.04085 0.54224 0.0
H146 H 0.52443 0.05843 0.59837 0.0
H147 H 0.5266 1.04957 0.75888 0.0
C148 C 0.52139 1.04074 0.32233 0.0
C149 C 0.55535 0.06303 0.26919 0.0
C150 C 0.52305 1.03631 0.41463 0.0
C151 C 0.55908 0.05481 0.4569 0.0
C152 C 0.59318 0.07735 0.40314 0.0
C153 C 0.59115 0.08097 0.31031 0.0
C154 C 0.58475 1.03994 0.68092 0.0
C155 C 0.5644 1.04163 0.74354 0.0
C156 C 0.58271 1.04376 0.58842 0.0
C157 C 0.56093 1.05035 0.55607 0.0
C158 C 0.54083 1.05242 0.61952 0.0
C159 C 0.54225 1.04768 0.71193 0.0
H160 H 0.52021 0.4937 0.75204 0.0
H161 H 0.63873 0.65146 0.73674 0.0
H162 H 0.50692 0.48074 0.58684 0.0
H163 H 0.62726 0.63841 0.57155 0.0
H164 H 0.5774 0.6108 0.28364 0.0
H165 H 0.58896 0.62348 0.44917 0.0
H166 H 0.52624 0.47573 0.4485 0.0
H167 H 0.51254 0.46235 0.28357 0.0
C168 C 0.54355 0.52552 0.71309 0.0
C169 C 0.58033 0.57358 0.75718 0.0
C170 C 0.53623 0.51811 0.61812 0.0
C171 C 0.566 0.55848 0.56482 0.0
C172 C 0.60305 0.60649 0.60966 0.0
C173 C 0.60989 0.61399 0.7046 0.0
C174 C 0.56612 0.58114 0.31921 0.0
C175 C 0.54393 0.53554 0.27105 0.0
C176 C 0.57297 0.58843 0.41424 0.0
C177 C 0.55857 0.55066 0.46324 0.0
C178 C 0.53701 0.50535 0.41408 0.0
C179 C 0.52945 0.49775 0.31927 0.0
H180 H 0.24235 0.54182 0.84306 0.0
H181 H 0.15581 0.41744 1.00636 0.0
H182 H 0.28829 0.53721 0.84333 0.0
H183 H 0.20209 0.41337 1.00787 0.0
H184 H 0.26857 0.38443 0.89114 0.0
H185 H 0.2237 0.39038 0.89555 0.0
H186 H 0.33585 0.55144 0.95195 0.0
H187 H 0.38086 0.54562 0.94976 0.0
C188 C 0.23319 0.51355 0.87908 0.0
C189 C 0.19543 0.47996 0.9246 0.0
C190 C 0.25967 0.51119 0.87988 0.0
C191 C 0.24877 0.47487 0.92549 0.0
C192 C 0.21114 0.44147 0.97143 0.0
C193 C 0.18487 0.44413 0.97132 0.0
C194 C 0.28373 0.42111 0.90568 0.0
C195 C 0.32844 0.46453 0.92013 0.0
C196 C 0.25796 0.42449 0.90801 0.0
C197 C 0.27623 0.47137 0.92411 0.0
C198 C 0.32087 0.51482 0.93825 0.0
C199 C 0.34665 0.51144 0.93667 0.0
H200 H 0.7152 0.1676 0.06845 0.0
H201 H 0.6905 0.23539 0.95866 0.0
H202 H 0.79155 0.24456 0.05727 0.0
H203 H 0.76704 0.31243 0.94745 0.0
H204 H 0.91081 0.45794 0.04411 0.0
H205 H 0.83391 0.38155 0.04995 0.0
H206 H 0.84232 0.29319 0.93535 0.0
H207 H 0.91936 0.36959 0.92959 0.0
C208 C 0.72601 0.19896 0.04234 0.0
C209 C 0.69663 0.19526 0.01462 0.0
C210 C 0.7698 0.24295 0.03521 0.0
C211 C 0.78537 0.28453 1.00099 0.0
C212 C 0.75609 0.28115 0.97457 0.0
C213 C 0.7122 0.23694 0.98082 0.0
C214 C 0.89629 0.42229 0.01956 0.0
C215 C 0.92138 0.41997 0.98656 0.0
C216 C 0.85214 0.37851 0.02259 0.0
C217 C 0.83202 0.33127 0.9936 0.0
C218 C 0.85696 0.32898 0.95922 0.0
C219 C 0.90108 0.37283 0.95527 0.0
H220 H 0.49816 0.76491 0.08011 0.0
H221 H 0.62834 0.88216 1.00463 0.0
H222 H 0.49849 0.7077 0.07809 0.0
H223 H 0.62829 0.82466 1.00022 0.0
H224 H 0.62847 0.72489 0.09923 0.0
H225 H 0.62766 0.78169 0.10348 0.0
H226 H 0.49992 0.66218 0.9718 0.0
H227 H 0.50047 0.60532 0.96857 0.0
C228 C 0.52683 0.77849 0.06295 0.0
C229 C 0.56318 0.82819 0.04239 0.0
C230 C 0.52691 0.74554 0.06103 0.0
C231 C 0.56346 0.76153 0.03913 0.0
C232 C 0.59975 0.81118 0.01836 0.0
C233 C 0.59958 0.84401 0.01975 0.0
C234 C 0.60017 0.71067 0.07135 0.0
C235 C 0.56459 0.66046 0.03345 0.0
C236 C 0.5998 0.74336 0.07326 0.0
C237 C 0.56375 0.72662 0.0378 0.0
C238 C 0.52806 0.67629 1.00059 0.0
C239 C 0.52851 0.64371 0.99823 0.0
H240 H 0.88695 0.57508 0.02054 0.0
H241 H 0.97378 0.70536 0.22008 0.0
H242 H 0.84006 0.57814 0.01739 0.0
H243 H 0.92668 0.70801 0.2175 0.0
H244 H 0.80908 0.66256 0.26212 0.0
H245 H 0.85593 0.6595 0.26323 0.0
H246 H 0.83787 0.63038 0.96965 0.0
H247 H 0.79123 0.63383 0.96833 0.0
C248 C 0.89627 0.60464 0.06315 0.0
C249 C 0.93417 0.6399 0.12073 0.0
C250 C 0.86933 0.60634 0.06141 0.0
C251 C 0.87955 0.64323 0.11741 0.0
C252 C 0.9175 0.6786 0.17463 0.0
C253 C 0.94449 0.67702 0.17615 0.0
C254 C 0.81541 0.65602 0.19767 0.0
C255 C 0.79641 0.64857 0.11512 0.0
C256 C 0.84226 0.65421 0.19835 0.0
C257 C 0.85072 0.64478 0.11652 0.0
C258 C 0.83156 0.63706 0.03398 0.0
C259 C 0.80479 0.639 0.03327 0.0
H260 H 0.20874 0.64882 0.98751 0.0
H261 H 0.20056 0.74157 0.05866 0.0
H262 H 0.28569 0.72398 0.97952 0.0
H263 H 0.2775 0.81654 0.0515 0.0
H264 H 0.40575 0.93636 0.92536 0.0
H265 H 0.32924 0.86007 0.93462 0.0
H266 H 0.35235 0.79662 0.07594 0.0
H267 H 0.42912 0.87294 0.06601 0.0
C268 C 0.22329 0.68516 1.00211 0.0
C269 C 0.19825 0.68897 0.02355 0.0
C270 C 0.26751 0.72829 0.99786 0.0
C271 C 0.28778 0.77632 0.01434 0.0
C272 C 0.26285 0.78013 0.03707 0.0
C273 C 0.21869 0.73705 0.04184 0.0
C274 C 0.39462 0.9061 0.95798 0.0
C275 C 0.42372 0.9109 0.99493 0.0
C276 C 0.35069 0.86245 0.96393 0.0
C277 C 0.33461 0.82231 1.0066 0.0
C278 C 0.36362 0.82668 0.04208 0.0
C279 C 0.40766 0.87053 0.0366 0.0
H280 H 0.49355 0.38318 0.9261 0.0
H281 H 0.62146 0.50204 0.05731 0.0
H282 H 0.49415 0.32617 0.92021 0.0
H283 H 0.62185 0.445 0.05191 0.0
H284 H 0.62294 0.34193 0.93919 0.0
H285 H 0.62292 0.39947 0.94311 0.0
H286 H 0.49351 0.28291 0.02326 0.0
H287 H 0.49317 0.22511 0.01714 0.0
C288 C 0.5218 0.39722 0.95367 0.0
C289 C 0.55744 0.44732 0.99209 0.0
C290 C 0.52205 0.36441 0.95077 0.0
C291 C 0.55803 0.38091 0.9857 0.0
C292 C 0.59378 0.43112 0.02347 0.0
C293 C 0.59344 0.46381 0.02691 0.0
C294 C 0.59443 0.32852 0.95729 0.0
C295 C 0.55809 0.27884 0.97799 0.0
C296 C 0.59453 0.36165 0.96029 0.0
C297 C 0.55817 0.34585 0.98335 0.0
C298 C 0.5219 0.29623 1.00427 0.0
C299 C 0.5219 0.26323 1.00186 0.0
loop_
_geom_bond_atom_site_label_1
_geom_bond_atom_site_label_2
_geom_bond_distance
_geom_bond_site_symmetry_2
_ccdc_geom_bond_type
Nd0 C2 2.836 1_556 S
Nd0 O20 2.500 1_556 S
Nd0 O21 2.492 . S
Nd0 O22 2.487 . S
Nd0 O23 2.682 1_655 S
Nd0 O24 2.410 . S
Nd0 O29 2.414 1_556 S
Nd0 O31 2.425 1_656 S
Nd1 C11 2.836 1_554 S
Nd1 O23 2.414 1_554 S
Nd1 O25 2.425 1_454 S
Nd1 O26 2.500 1_554 S
Nd1 O27 2.492 . S
Nd1 O28 2.487 . S
Nd1 O29 2.682 1_455 S
Nd1 O30 2.410 . S
C2 Nd0 2.836 1_554 S
C2 C3 1.498 . S
C2 O20 1.258 . S
C2 O21 1.239 1_554 S
C3 C2 1.498 . S
C3 C4 1.366 . S
C3 C8 1.407 1_554 S
C4 C3 1.366 . S
C4 C5 1.392 . S
C4 H32 0.930 . S
C5 C4 1.392 . S
C5 C6 1.398 . S
C5 H33 0.929 . S
C6 C5 1.398 . S
C6 C7 1.352 1_554 S
C7 C6 1.352 1_556 S
C7 C8 1.384 . S
C7 H34 0.930 . S
C8 C3 1.407 1_556 S
C8 C7 1.384 . S
C8 H35 0.929 . S
C9 O22 1.208 1_455 S
C9 O23 1.290 . S
C10 O24 1.251 . S
C10 O25 1.270 . S
C11 Nd1 2.836 1_556 S
C11 C12 1.498 . S
C11 O26 1.258 . S
C11 O27 1.239 1_556 S
C12 C11 1.498 . S
C12 C13 1.366 . S
C12 C17 1.407 1_556 S
C13 C12 1.366 . S
C13 C14 1.392 . S
C13 H36 0.930 . S
C14 C13 1.392 . S
C14 C15 1.398 . S
C14 H37 0.929 . S
C15 C14 1.398 . S
C15 C16 1.352 1_556 S
C16 C15 1.352 1_554 S
C16 C17 1.384 . S
C16 H38 0.930 . S
C17 C12 1.407 1_554 S
C17 C16 1.384 . S
C17 H39 0.929 . S
C18 O28 1.241 . S
C18 O29 1.273 1_455 S
C19 O30 1.251 . S
C19 O31 1.270 . S
O20 Nd0 2.500 1_554 S
O20 C2 1.258 . S
O21 Nd0 2.492 . S
O21 C2 1.239 1_556 S
O22 Nd0 2.487 . S
O22 C9 1.208 1_655 S
O23 Nd0 2.682 1_455 S
O23 Nd1 2.414 1_556 S
O23 C9 1.290 . S
O24 Nd0 2.410 . S
O24 C10 1.251 . S
O25 Nd1 2.425 1_656 S
O25 C10 1.270 . S
O26 Nd1 2.500 1_556 S
O26 C11 1.258 . S
O27 Nd1 2.492 . S
O27 C11 1.239 1_554 S
O28 Nd1 2.487 . S
O28 C18 1.241 . S
O29 Nd0 2.414 1_554 S
O29 Nd1 2.682 1_655 S
O29 C18 1.273 1_655 S
O30 Nd1 2.410 . S
O30 C19 1.251 . S
O31 Nd0 2.425 1_454 S
O31 C19 1.270 . S
H32 C4 0.930 . S
H33 C5 0.929 . S
H34 C7 0.930 . S
H35 C8 0.929 . S
H36 C13 0.930 . S
H37 C14 0.929 . S
H38 C16 0.930 . S
H39 C17 0.929 . S
Nd40 C42 2.836 . S
Nd40 O60 2.500 1_554 S
Nd40 O61 2.492 . S
Nd40 O62 2.487 . S
Nd40 O63 2.682 1_545 S
Nd40 O64 2.410 . S
Nd40 O69 2.414 1_554 S
Nd40 O71 2.424 1_545 S
Nd41 C51 2.836 . S
Nd41 O63 2.414 1_556 S
Nd41 O65 2.424 1_565 S
Nd41 O66 2.500 1_556 S
Nd41 O67 2.492 . S
Nd41 O68 2.487 . S
Nd41 O69 2.682 1_565 S
Nd41 O70 2.410 . S
C42 Nd40 2.836 . S
C42 C43 1.498 . S
C42 O60 1.258 1_554 S
C42 O61 1.239 . S
C43 C42 1.498 . S
C43 C44 1.366 1_554 S
C43 C48 1.407 . S
C44 C43 1.366 1_556 S
C44 C45 1.392 . S
C44 H72 0.930 . S
C45 C44 1.392 . S
C45 C46 1.398 1_556 S
C45 H73 0.929 . S
C46 C45 1.398 1_554 S
C46 C47 1.352 . S
C47 C46 1.352 . S
C47 C48 1.384 . S
C47 H74 0.930 . S
C48 C43 1.407 . S
C48 C47 1.384 . S
C48 H75 0.929 . S
C49 O62 1.241 . S
C49 O63 1.273 1_545 S
C50 O64 1.251 . S
C50 O65 1.268 1_554 S
C51 Nd41 2.836 . S
C51 C52 1.498 . S
C51 O66 1.258 1_556 S
C51 O67 1.239 . S
C52 C51 1.498 . S
C52 C53 1.366 1_556 S
C52 C57 1.407 . S
C53 C52 1.366 1_554 S
C53 C54 1.392 . S
C53 H76 0.930 . S
C54 C53 1.392 . S
C54 C55 1.398 1_554 S
C54 H77 0.929 . S
C55 C54 1.398 1_556 S
C55 C56 1.352 . S
C56 C55 1.352 . S
C56 C57 1.384 . S
C56 H78 0.930 . S
C57 C52 1.407 . S
C57 C56 1.384 . S
C57 H79 0.929 . S
C58 O68 1.241 . S
C58 O69 1.273 1_565 S
C59 O70 1.251 . S
C59 O71 1.268 1_556 S
O60 Nd40 2.500 1_556 S
O60 C42 1.258 1_556 S
O61 Nd40 2.492 . S
O61 C42 1.239 . S
O62 Nd40 2.487 . S
O62 C49 1.241 . S
O63 Nd40 2.682 1_565 S
O63 Nd41 2.414 1_554 S
O63 C49 1.273 1_565 S
O64 Nd40 2.410 . S
O64 C50 1.251 . S
O65 Nd41 2.424 1_545 S
O65 C50 1.268 1_556 S
O66 Nd41 2.500 1_554 S
O66 C51 1.258 1_554 S
O67 Nd41 2.492 . S
O67 C51 1.239 . S
O68 Nd41 2.487 . S
O68 C58 1.241 . S
O69 Nd40 2.414 1_556 S
O69 Nd41 2.682 1_545 S
O69 C58 1.273 1_545 S
O70 Nd41 2.410 . S
O70 C59 1.251 . S
O71 Nd40 2.424 1_565 S
O71 C59 1.268 1_554 S
H72 C44 0.930 . S
H73 C45 0.929 . S
H74 C47 0.930 . S
H75 C48 0.929 . S
H76 C53 0.930 . S
H77 C54 0.929 . S
H78 C56 0.930 . S
H79 C57 0.929 . S
Nd80 C82 2.836 1_554 S
Nd80 O100 2.500 1_554 S
Nd80 O101 2.492 . S
Nd80 O102 2.487 . S
Nd80 O103 2.682 . S
Nd80 O104 2.410 . S
Nd80 O109 2.414 1_554 S
Nd80 O111 2.424 1_554 S
Nd81 C91 2.836 1_556 S
Nd81 O103 2.414 1_556 S
Nd81 O105 2.424 1_556 S
Nd81 O106 2.500 1_556 S
Nd81 O107 2.492 . S
Nd81 O108 2.487 . S
Nd81 O109 2.682 . S
Nd81 O110 2.410 . S
C82 Nd80 2.836 1_556 S
C82 C83 1.498 . S
C82 O100 1.258 . S
C82 O101 1.239 1_556 S
C83 C82 1.498 . S
C83 C84 1.366 . S
C83 C88 1.407 1_556 S
C84 C83 1.366 . S
C84 C85 1.392 . S
C84 H112 0.930 . S
C85 C84 1.392 . S
C85 C86 1.398 . S
C85 H113 0.929 . S
C86 C85 1.398 . S
C86 C87 1.352 1_556 S
C87 C86 1.352 1_554 S
C87 C88 1.384 . S
C87 H114 0.930 . S
C88 C83 1.407 1_554 S
C88 C87 1.384 . S
C88 H115 0.929 . S
C89 O102 1.241 . S
C89 O103 1.273 . S
C90 O104 1.251 . S
C90 O105 1.268 . S
C91 Nd81 2.836 1_554 S
C91 C92 1.498 . S
C91 O106 1.258 . S
C91 O107 1.239 1_554 S
C92 C91 1.498 . S
C92 C93 1.366 . S
C92 C97 1.407 1_554 S
C93 C92 1.366 . S
C93 C94 1.392 . S
C93 H116 0.930 . S
C94 C93 1.392 . S
C94 C95 1.398 . S
C94 H117 0.929 . S
C95 C94 1.398 . S
C95 C96 1.352 1_554 S
C96 C95 1.352 1_556 S
C96 C97 1.384 . S
C96 H118 0.930 . S
C97 C92 1.407 1_556 S
C97 C96 1.384 . S
C97 H119 0.929 . S
C98 O108 1.241 . S
C98 O109 1.273 . S
C99 O110 1.251 . S
C99 O111 1.268 . S
O100 Nd80 2.500 1_556 S
O100 C82 1.258 . S
O101 Nd80 2.492 . S
O101 C82 1.239 1_554 S
O102 Nd80 2.487 . S
O102 C89 1.241 . S
O103 Nd80 2.682 . S
O103 Nd81 2.414 1_554 S
O103 C89 1.273 . S
O104 Nd80 2.410 . S
O104 C90 1.251 . S
O105 Nd81 2.424 1_554 S
O105 C90 1.268 . S
O106 Nd81 2.500 1_554 S
O106 C91 1.258 . S
O107 Nd81 2.492 . S
O107 C91 1.239 1_556 S
O108 Nd81 2.487 . S
O108 C98 1.241 . S
O109 Nd80 2.414 1_556 S
O109 Nd81 2.682 . S
O109 C98 1.273 . S
O110 Nd81 2.410 . S
O110 C99 1.251 . S
O111 Nd80 2.424 1_556 S
O111 C99 1.268 . S
H112 C84 0.930 . S
H113 C85 0.929 . S
H114 C87 0.930 . S
H115 C88 0.929 . S
H116 C93 0.930 . S
H117 C94 0.929 . S
H118 C96 0.930 . S
H119 C97 0.929 . S
H120 C128 0.950 . S
H121 C133 0.950 . S
H122 C130 0.950 . S
H123 C132 0.950 . S
H124 C134 0.950 . S
H125 C136 0.950 . S
H126 C138 0.950 . S
H127 C139 0.950 . S
C128 H120 0.950 . S
C128 C129 1.386 . S
C128 C130 1.391 . S
C129 C128 1.386 . S
C129 C133 1.393 1_455 S
C130 H122 0.950 . S
C130 C128 1.391 . S
C130 C131 1.400 . S
C131 C130 1.400 . S
C131 C132 1.398 1_455 S
C131 C137 1.492 . S
C132 H123 0.950 . S
C132 C131 1.398 1_655 S
C132 C133 1.391 . S
C133 H121 0.950 . S
C133 C129 1.393 1_655 S
C133 C132 1.391 . S
C134 H124 0.950 . S
C134 C135 1.386 . S
C134 C136 1.391 . S
C135 C134 1.386 . S
C135 C139 1.393 1_655 S
C136 H125 0.950 . S
C136 C134 1.391 . S
C136 C137 1.407 1_655 S
C137 C131 1.492 . S
C137 C136 1.407 1_455 S
C137 C138 1.391 . S
C138 H126 0.950 . S
C138 C137 1.391 . S
C138 C139 1.391 . S
C139 H127 0.950 . S
C139 C135 1.393 1_455 S
C139 C138 1.391 . S
H140 C148 0.950 . S
H141 C153 0.950 . S
H142 C150 0.950 . S
H143 C152 0.950 . S
H144 C154 0.950 . S
H145 C156 0.950 . S
H146 C158 0.950 . S
H147 C159 0.950 . S
C148 H140 0.950 . S
C148 C149 1.412 . S
C148 C150 1.391 . S
C149 C148 1.412 . S
C149 C153 1.363 1_545 S
C150 H142 0.950 . S
C150 C148 1.391 . S
C150 C151 1.415 . S
C151 C150 1.415 . S
C151 C152 1.386 1_545 S
C151 C157 1.492 . S
C152 H143 0.950 . S
C152 C151 1.386 1_565 S
C152 C153 1.391 . S
C153 H141 0.950 . S
C153 C149 1.363 1_565 S
C153 C152 1.391 . S
C154 H144 0.950 . S
C154 C155 1.377 1_565 S
C154 C156 1.391 . S
C155 C154 1.377 1_545 S
C155 C159 1.403 . S
C156 H145 0.950 . S
C156 C154 1.391 . S
C156 C157 1.376 1_565 S
C157 C151 1.492 . S
C157 C156 1.376 1_545 S
C157 C158 1.419 . S
C158 H146 0.950 . S
C158 C157 1.419 . S
C158 C159 1.391 . S
C159 H147 0.950 . S
C159 C155 1.403 . S
C159 C158 1.391 . S
H160 C168 0.950 . S
H161 C173 0.950 . S
H162 C170 0.950 . S
H163 C172 0.950 . S
H164 C174 0.950 . S
H165 C176 0.950 . S
H166 C178 0.950 . S
H167 C179 0.950 . S
C168 H160 0.950 . S
C168 C169 1.386 . S
C168 C170 1.391 . S
C169 C168 1.386 . S
C169 C173 1.393 . S
C170 H162 0.950 . S
C170 C168 1.391 . S
C170 C171 1.400 . S
C171 C170 1.400 . S
C171 C172 1.398 . S
C171 C177 1.491 . S
C172 H163 0.950 . S
C172 C171 1.398 . S
C172 C173 1.391 . S
C173 H161 0.950 . S
C173 C169 1.393 . S
C173 C172 1.391 . S
C174 H164 0.950 . S
C174 C175 1.386 . S
C174 C176 1.391 . S
C175 C174 1.386 . S
C175 C179 1.393 . S
C176 H165 0.950 . S
C176 C174 1.391 . S
C176 C177 1.400 . S
C177 C171 1.491 . S
C177 C176 1.400 . S
C177 C178 1.398 . S
C178 H166 0.950 . S
C178 C177 1.398 . S
C178 C179 1.391 . S
C179 H167 0.950 . S
C179 C175 1.393 . S
C179 C178 1.391 . S
H180 C188 0.950 . S
H181 C193 0.950 . S
H182 C190 0.950 . S
H183 C192 0.950 . S
H184 C194 0.950 1_554 S
H185 C196 0.950 1_554 S
H186 C198 0.950 . S
H187 C199 0.950 . S
C188 H180 0.950 . S
C188 C189 1.386 . S
C188 C190 1.391 . S
C189 C188 1.386 . S
C189 C193 1.393 1_556 S
C190 H182 0.950 . S
C190 C188 1.391 . S
C190 C191 1.400 . S
C191 C190 1.400 . S
C191 C192 1.398 1_556 S
C191 C197 1.491 . S
C192 H183 0.950 . S
C192 C191 1.398 1_554 S
C192 C193 1.391 . S
C193 H181 0.950 . S
C193 C189 1.393 1_554 S
C193 C192 1.391 . S
C194 H184 0.950 1_556 S
C194 C195 1.386 . S
C194 C196 1.391 . S
C195 C194 1.386 . S
C195 C199 1.393 . S
C196 H185 0.950 1_556 S
C196 C194 1.391 . S
C196 C197 1.400 . S
C197 C191 1.491 . S
C197 C196 1.400 . S
C197 C198 1.398 . S
C198 H186 0.950 . S
C198 C197 1.398 . S
C198 C199 1.391 . S
C199 H187 0.950 . S
C199 C195 1.393 . S
C199 C198 1.391 . S
H200 C208 0.950 . S
H201 C213 0.950 . S
H202 C210 0.950 . S
H203 C212 0.950 . S
H204 C214 0.950 . S
H205 C216 0.950 . S
H206 C218 0.950 . S
H207 C219 0.950 . S
C208 H200 0.950 . S
C208 C209 1.386 . S
C208 C210 1.391 . S
C209 C208 1.386 . S
C209 C213 1.393 1_556 S
C210 H202 0.950 . S
C210 C208 1.391 . S
C210 C211 1.400 . S
C211 C210 1.400 . S
C211 C212 1.398 1_556 S
C211 C217 1.491 1_556 S
C212 H203 0.950 . S
C212 C211 1.398 1_554 S
C212 C213 1.391 . S
C213 H201 0.950 . S
C213 C209 1.393 1_554 S
C213 C212 1.391 . S
C214 H204 0.950 . S
C214 C215 1.389 . S
C214 C216 1.391 . S
C215 C214 1.389 . S
C215 C219 1.390 1_554 S
C216 H205 0.950 . S
C216 C214 1.391 . S
C216 C217 1.401 . S
C217 C211 1.491 1_554 S
C217 C216 1.401 . S
C217 C218 1.397 1_554 S
C218 H206 0.950 . S
C218 C217 1.397 1_556 S
C218 C219 1.391 . S
C219 H207 0.950 . S
C219 C215 1.390 1_556 S
C219 C218 1.391 . S
H220 C228 0.950 . S
H221 C233 0.950 . S
H222 C230 0.950 . S
H223 C232 0.950 . S
H224 C234 0.950 . S
H225 C236 0.950 . S
H226 C238 0.950 . S
H227 C239 0.950 . S
C228 H220 0.950 . S
C228 C229 1.385 1_554 S
C228 C230 1.391 . S
C229 C228 1.385 1_556 S
C229 C233 1.393 . S
C230 H222 0.950 . S
C230 C228 1.391 . S
C230 C231 1.400 1_554 S
C231 C230 1.400 1_556 S
C231 C232 1.398 . S
C231 C237 1.490 1_556 S
C232 H223 0.950 . S
C232 C231 1.398 . S
C232 C233 1.391 . S
C233 H221 0.950 . S
C233 C229 1.393 . S
C233 C232 1.391 . S
C234 H224 0.950 . S
C234 C235 1.386 1_556 S
C234 C236 1.391 . S
C235 C234 1.386 1_554 S
C235 C239 1.393 . S
C236 H225 0.950 . S
C236 C234 1.391 . S
C236 C237 1.399 1_556 S
C237 C231 1.490 1_554 S
C237 C236 1.399 1_554 S
C237 C238 1.401 . S
C238 H226 0.950 . S
C238 C237 1.401 . S
C238 C239 1.391 . S
C239 H227 0.950 . S
C239 C235 1.393 . S
C239 C238 1.391 . S
H240 C248 0.950 . S
H241 C253 0.950 . S
H242 C250 0.950 . S
H243 C252 0.950 . S
H244 C254 0.950 . S
H245 C256 0.950 . S
H246 C258 0.950 . S
H247 C259 0.950 . S
C248 H240 0.950 . S
C248 C249 1.386 1_556 S
C248 C250 1.391 . S
C249 C248 1.386 1_554 S
C249 C253 1.393 . S
C250 H242 0.950 . S
C250 C248 1.391 . S
C250 C251 1.400 1_556 S
C251 C250 1.400 1_554 S
C251 C252 1.398 . S
C251 C257 1.491 . S
C252 H243 0.950 . S
C252 C251 1.398 . S
C252 C253 1.391 . S
C253 H241 0.950 . S
C253 C249 1.393 . S
C253 C252 1.391 . S
C254 H244 0.950 . S
C254 C255 1.386 . S
C254 C256 1.391 . S
C255 C254 1.386 . S
C255 C259 1.393 1_554 S
C256 H245 0.950 . S
C256 C254 1.391 . S
C256 C257 1.400 . S
C257 C251 1.491 . S
C257 C256 1.400 . S
C257 C258 1.398 1_554 S
C258 H246 0.950 . S
C258 C257 1.398 1_556 S
C258 C259 1.391 . S
C259 H247 0.950 . S
C259 C255 1.393 1_556 S
C259 C258 1.391 . S
H260 C268 0.950 . S
H261 C273 0.950 . S
H262 C270 0.950 . S
H263 C272 0.950 . S
H264 C274 0.950 . S
H265 C276 0.950 . S
H266 C278 0.950 . S
H267 C279 0.950 . S
C268 H260 0.950 . S
C268 C269 1.387 . S
C268 C270 1.391 . S
C269 C268 1.387 . S
C269 C273 1.392 1_556 S
C270 H262 0.950 . S
C270 C268 1.391 . S
C270 C271 1.400 . S
C271 C270 1.400 . S
C271 C272 1.399 1_556 S
C271 C277 1.490 1_556 S
C272 H263 0.950 . S
C272 C271 1.399 1_554 S
C272 C273 1.391 . S
C273 H261 0.950 . S
C273 C269 1.392 1_554 S
C273 C272 1.391 . S
C274 H264 0.950 . S
C274 C275 1.386 . S
C274 C276 1.391 . S
C275 C274 1.386 . S
C275 C279 1.393 1_554 S
C276 H265 0.950 . S
C276 C274 1.391 . S
C276 C277 1.400 . S
C277 C271 1.490 1_554 S
C277 C276 1.400 . S
C277 C278 1.398 1_554 S
C278 H266 0.950 . S
C278 C277 1.398 1_556 S
C278 C279 1.391 . S
C279 H267 0.950 . S
C279 C275 1.393 1_556 S
C279 C278 1.391 . S
H280 C288 0.950 . S
H281 C293 0.950 . S
H282 C290 0.950 . S
H283 C292 0.950 . S
H284 C294 0.950 . S
H285 C296 0.950 . S
H286 C298 0.950 . S
H287 C299 0.950 1_556 S
C288 H280 0.950 . S
C288 C289 1.386 . S
C288 C290 1.391 . S
C289 C288 1.386 . S
C289 C293 1.393 1_556 S
C290 H282 0.950 . S
C290 C288 1.391 . S
C290 C291 1.400 . S
C291 C290 1.400 . S
C291 C292 1.399 1_556 S
C291 C297 1.490 1_556 S
C292 H283 0.950 . S
C292 C291 1.399 1_554 S
C292 C293 1.391 . S
C293 H281 0.950 . S
C293 C289 1.393 1_554 S
C293 C292 1.391 . S
C294 H284 0.950 . S
C294 C295 1.386 . S
C294 C296 1.391 . S
C295 C294 1.386 . S
C295 C299 1.393 . S
C296 H285 0.950 . S
C296 C294 1.391 . S
C296 C297 1.400 . S
C297 C291 1.490 1_554 S
C297 C296 1.400 . S
C297 C298 1.398 1_554 S
C298 H286 0.950 . S
C298 C297 1.398 1_556 S
C298 C299 1.390 1_556 S
C299 H287 0.950 1_554 S
C299 C295 1.393 . S
C299 C298 1.390 1_554 S
C129 C9 1.459 . S
C135 C18 1.450 1_655 S
C149 C49 1.460 . S
C155 C58 1.444 1_545 S
C169 C98 1.452 . S
C175 C89 1.452 . S
C189 C15 0.914 . S
C195 C86 0.922 . S
C209 C50 2.584 1_556 S
C215 C10 2.625 1_554 S
C229 C55 1.991 . S
C235 C90 2.052 . S
C249 C6 0.922 . S
C255 C95 0.923 . S
C269 C19 2.625 1_556 S
C275 C59 2.584 1_554 S
C289 C99 2.051 . S
C295 C46 1.988 . S
