# Generated by pormake.
# Topology lcy, (6)-cn, num edge types: 1
# Building blocks:
#     Node 0, Type 0, BuildingBlock: IZENUY_clean_sbu_0, # of connection points: 6
#     Node 1, Type 0, BuildingBlock: IZENUY_clean_sbu_0, # of connection points: 6
#     Node 2, Type 0, BuildingBlock: IZENUY_clean_sbu_0, # of connection points: 6
#     Node 3, Type 0, BuildingBlock: IZENUY_clean_sbu_0, # of connection points: 6
#     Edge 4, Type (0, 0), BuildingBlock: UKIBUN_clean_linker_0, # of connection points: 2
#     Edge 5, Type (0, 0), BuildingBlock: UKIBUN_clean_linker_0, # of connection points: 2
#     Edge 6, Type (0, 0), BuildingBlock: UKIBUN_clean_linker_0, # of connection points: 2
#     Edge 7, Type (0, 0), BuildingBlock: UKIBUN_clean_linker_0, # of connection points: 2
#     Edge 8, Type (0, 0), BuildingBlock: UKIBUN_clean_linker_0, # of connection points: 2
#     Edge 9, Type (0, 0), BuildingBlock: UKIBUN_clean_linker_0, # of connection points: 2
#     Edge 10, Type (0, 0), BuildingBlock: UKIBUN_clean_linker_0, # of connection points: 2
#     Edge 11, Type (0, 0), BuildingBlock: UKIBUN_clean_linker_0, # of connection points: 2
#     Edge 12, Type (0, 0), BuildingBlock: UKIBUN_clean_linker_0, # of connection points: 2
#     Edge 13, Type (0, 0), BuildingBlock: UKIBUN_clean_linker_0, # of connection points: 2
#     Edge 14, Type (0, 0), BuildingBlock: UKIBUN_clean_linker_0, # of connection points: 2
#     Edge 15, Type (0, 0), BuildingBlock: UKIBUN_clean_linker_0, # of connection points: 2
# Relax obj value: 0.232
# Max RMSD: 0.227
# Mean RMSD: 0.227
data_MOF--net-lcy--node1-IZENUY_clean_sbu_0--edge1-UKIBUN_clean_linker_0
_symmetry_space_group_name_H-M    P1
_symmetry_Int_Tables_number       1
_symmetry_cell_setting            triclinic
loop_
_symmetry_equiv_pos_as_xyz
'x, y, z'
_cell_length_a     41.144036
_cell_length_b     41.158576
_cell_length_c     41.145249
_cell_angle_alpha  89.945097
_cell_angle_beta   89.92888
_cell_angle_gamma 90.090684
loop_
_atom_site_label
_atom_site_type_symbol
_atom_site_fract_x
_atom_site_fract_y
_atom_site_fract_z
_atom_type_partial_charge
Fe0 Fe 0.39949 0.36816 0.33843 0.0
Fe1 Fe 0.36693 0.33588 0.39821 0.0
O2 O 0.36811 0.36738 0.36822 0.0
Fe3 Fe 0.33786 0.39839 0.36796 0.0
O4 O 0.32476 0.38787 0.32717 0.0
O5 O 0.37358 0.38412 0.30573 0.0
O6 O 0.38904 0.32831 0.32426 0.0
C7 C 0.38715 0.30257 0.34066 0.0
C8 C 0.39499 0.43325 0.35051 0.0
O9 O 0.38244 0.30338 0.37114 0.0
C10 C 0.34877 0.39294 0.43345 0.0
O11 O 0.43124 0.3521 0.36522 0.0
O12 O 0.40737 0.34561 0.41258 0.0
O13 O 0.36444 0.43077 0.35216 0.0
O14 O 0.41267 0.40837 0.35015 0.0
C15 C 0.30175 0.34205 0.38556 0.0
O16 O 0.35133 0.36236 0.43078 0.0
O17 O 0.34854 0.41112 0.40869 0.0
C18 C 0.43271 0.34863 0.39568 0.0
O19 O 0.32605 0.32345 0.38675 0.0
O20 O 0.30524 0.37246 0.38362 0.0
C21 C 0.34305 0.3863 0.30257 0.0
Fe22 Fe 0.83616 0.09121 0.62306 0.0
Fe23 Fe 0.86627 0.15223 0.5911 0.0
O24 O 0.86664 0.12192 0.62203 0.0
Fe25 Fe 0.8979 0.12198 0.6518 0.0
O26 O 0.91129 0.08185 0.63988 0.0
O27 O 0.86293 0.05912 0.63865 0.0
O28 O 0.8467 0.07766 0.58276 0.0
C29 C 0.84756 0.09489 0.55744 0.0
C30 C 0.84224 0.10268 0.6882 0.0
O31 O 0.85008 0.1255 0.5592 0.0
C32 C 0.88571 0.18705 0.6479 0.0
O33 O 0.80353 0.11715 0.60731 0.0
O34 O 0.82579 0.16557 0.60224 0.0
O35 O 0.87266 0.10507 0.68451 0.0
O36 O 0.82343 0.1024 0.66397 0.0
C37 C 0.93167 0.14092 0.59455 0.0
O38 O 0.88275 0.18465 0.61732 0.0
O39 O 0.88654 0.16212 0.66574 0.0
C40 C 0.80096 0.14753 0.60352 0.0
O41 O 0.90649 0.14113 0.57718 0.0
O42 O 0.92958 0.13886 0.62513 0.0
C43 C 0.89354 0.05681 0.64014 0.0
Fe44 Fe 0.0897 0.62012 0.83783 0.0
Fe45 Fe 0.15236 0.59128 0.86729 0.0
O46 O 0.12124 0.62124 0.86773 0.0
Fe47 Fe 0.1219 0.65208 0.89805 0.0
O48 O 0.08202 0.64145 0.91191 0.0
O49 O 0.05719 0.63514 0.86501 0.0
O50 O 0.07736 0.57923 0.84914 0.0
C51 C 0.09603 0.55503 0.85007 0.0
C52 C 0.10056 0.68607 0.84124 0.0
O53 O 0.12648 0.55862 0.85153 0.0
C54 C 0.18717 0.64798 0.88678 0.0
O55 O 0.1162 0.60474 0.80486 0.0
O56 O 0.16481 0.60293 0.82699 0.0
O57 O 0.10592 0.68442 0.87151 0.0
O58 O 0.09913 0.66075 0.82404 0.0
C59 C 0.1408 0.59485 0.93266 0.0
O60 O 0.18489 0.61755 0.88327 0.0
O61 O 0.1621 0.66542 0.88676 0.0
C62 C 0.14684 0.60206 0.80222 0.0
O63 O 0.14184 0.57754 0.90747 0.0
O64 O 0.13776 0.62548 0.93061 0.0
C65 C 0.05635 0.63955 0.89549 0.0
Fe66 Fe 0.59113 0.86671 0.1528 0.0
Fe67 Fe 0.65229 0.89859 0.12252 0.0
O68 O 0.6216 0.86769 0.12216 0.0
Fe69 Fe 0.6209 0.83772 0.09085 0.0
O70 O 0.5806 0.84939 0.07767 0.0
O71 O 0.55876 0.8513 0.12627 0.0
O72 O 0.57764 0.90685 0.14257 0.0
C73 C 0.59445 0.9324 0.14139 0.0
C74 C 0.60245 0.80162 0.14703 0.0
O75 O 0.62512 0.93127 0.13778 0.0
C76 C 0.68643 0.84085 0.10254 0.0
O77 O 0.61719 0.88217 0.18536 0.0
O78 O 0.66548 0.8884 0.16334 0.0
O79 O 0.60455 0.80476 0.11649 0.0
O80 O 0.60234 0.82619 0.16527 0.0
C81 C 0.63981 0.89472 0.05706 0.0
O82 O 0.68512 0.87145 0.10703 0.0
O83 O 0.66094 0.82385 0.10146 0.0
C84 C 0.64749 0.88616 0.18807 0.0
O85 O 0.64174 0.91212 0.08206 0.0
O86 O 0.63733 0.86424 0.05908 0.0
C87 C 0.55587 0.85008 0.09573 0.0
C88 C 0.15623 0.54559 0.96418 0.0
C89 C 0.15082 0.57937 0.96362 0.0
C90 C 0.17419 0.53141 0.98909 0.0
C91 C 0.25142 0.47386 0.07858 0.0
C92 C 0.3252 0.43248 0.2691 0.0
C93 C 0.33035 0.39893 0.27163 0.0
C94 C 0.31428 0.44612 0.24011 0.0
C95 C 0.27085 0.50772 0.13427 0.0
H96 H 0.14853 0.5303 0.94419 0.0
H97 H 0.17974 0.5057 0.9879 0.0
H98 H 0.24351 0.46039 0.0574 0.0
H99 H 0.33003 0.44826 0.2896 0.0
H100 H 0.3107 0.47217 0.23876 0.0
H101 H 0.27782 0.521 0.1559 0.0
C102 C 0.1605 0.59804 0.9906 0.0
C103 C 0.17823 0.58362 0.01586 0.0
C104 C 0.25556 0.52425 0.1088 0.0
C105 C 0.32441 0.37895 0.24455 0.0
C106 C 0.31313 0.39272 0.21536 0.0
C107 C 0.26673 0.45735 0.10402 0.0
C108 C 0.18625 0.55055 0.01437 0.0
C109 C 0.20776 0.53625 0.03789 0.0
C110 C 0.22569 0.52333 0.05709 0.0
C111 C 0.24515 0.50721 0.08123 0.0
H112 H 0.15638 0.62402 0.99118 0.0
H113 H 0.18696 0.59855 0.03571 0.0
H114 H 0.25086 0.55005 0.1111 0.0
H115 H 0.32843 0.35298 0.24599 0.0
H116 H 0.30848 0.37719 0.19461 0.0
H117 H 0.27051 0.43137 0.1021 0.0
C118 C 0.30827 0.42645 0.2131 0.0
C119 C 0.29736 0.44152 0.18339 0.0
C120 C 0.28831 0.45628 0.15971 0.0
C121 C 0.27585 0.47406 0.13222 0.0
C122 C 0.66468 0.93321 0.22063 0.0
C123 C 0.65968 0.89957 0.21882 0.0
C124 C 0.67486 0.94755 0.24952 0.0
C125 C 0.71838 0.00984 0.35533 0.0
C126 C 0.83209 0.04572 0.52594 0.0
C127 C 0.83795 0.07941 0.52649 0.0
C128 C 0.81435 0.03183 0.50074 0.0
C129 C 0.7367 0.97574 0.41129 0.0
H130 H 0.66032 0.94851 0.19964 0.0
H131 H 0.67848 0.97363 0.25032 0.0
H132 H 0.71186 0.02317 0.33357 0.0
H133 H 0.83917 0.03037 0.54611 0.0
H134 H 0.8083 0.00621 0.50188 0.0
H135 H 0.74421 0.9622 0.43259 0.0
C136 C 0.66464 0.88027 0.24657 0.0
C137 C 0.67525 0.89471 0.27563 0.0
C138 C 0.72125 0.95945 0.38583 0.0
C139 C 0.82918 0.09823 0.49928 0.0
C140 C 0.81164 0.08411 0.4738 0.0
C141 C 0.7338 0.02615 0.38081 0.0
C142 C 0.68027 0.92845 0.27708 0.0
C143 C 0.69107 0.94397 0.30648 0.0
C144 C 0.70007 0.95874 0.3301 0.0
C145 C 0.71267 0.97631 0.35754 0.0
H146 H 0.66047 0.85429 0.24573 0.0
H147 H 0.67936 0.87968 0.29687 0.0
H148 H 0.71695 0.93354 0.38781 0.0
H149 H 0.8338 0.12414 0.49869 0.0
H150 H 0.80346 0.09917 0.4538 0.0
H151 H 0.73907 0.05185 0.37843 0.0
C152 C 0.80299 0.0512 0.47532 0.0
C153 C 0.78131 0.03737 0.45179 0.0
C154 C 0.76321 0.02478 0.43261 0.0
C155 C 0.74361 0.00897 0.4085 0.0
C156 C 0.19137 0.57313 0.77349 0.0
C157 C 0.16133 0.5894 0.77176 0.0
C158 C 0.20274 0.555 0.74738 0.0
C159 C 0.25046 0.47785 0.65494 0.0
C160 C 0.30504 0.42184 0.46232 0.0
C161 C 0.33532 0.40629 0.46379 0.0
C162 C 0.28984 0.43267 0.4905 0.0
C163 C 0.22386 0.47734 0.59234 0.0
H164 H 0.20538 0.5727 0.79575 0.0
H165 H 0.22515 0.54142 0.74998 0.0
H166 H 0.26125 0.4784 0.67895 0.0
H167 H 0.29262 0.42479 0.4393 0.0
H168 H 0.26617 0.44406 0.48875 0.0
H169 H 0.21362 0.47774 0.56809 0.0
C170 C 0.14414 0.58918 0.74216 0.0
C171 C 0.15601 0.57136 0.71563 0.0
C172 C 0.20768 0.49336 0.61749 0.0
C173 C 0.35051 0.40202 0.4941 0.0
C174 C 0.33539 0.41347 0.52249 0.0
C175 C 0.26662 0.46177 0.6298 0.0
C176 C 0.18478 0.55339 0.71873 0.0
C177 C 0.1958 0.53232 0.69327 0.0
C178 C 0.20674 0.51413 0.67321 0.0
C179 C 0.2213 0.49422 0.64862 0.0
H180 H 0.12108 0.60165 0.73995 0.0
H181 H 0.14218 0.5706 0.69324 0.0
H182 H 0.18515 0.506 0.6124 0.0
H183 H 0.3738 0.3899 0.49577 0.0
H184 H 0.34723 0.41019 0.54578 0.0
H185 H 0.28967 0.45003 0.63466 0.0
C186 C 0.30479 0.42841 0.52064 0.0
C187 C 0.28799 0.43907 0.54933 0.0
C188 C 0.27216 0.44873 0.57194 0.0
C189 C 0.25369 0.46207 0.59834 0.0
C190 C 0.63539 0.93681 0.01376 0.0
C191 C 0.6508 0.9092 0.0265 0.0
C192 C 0.65078 0.95522 0.98961 0.0
C193 C 0.71884 0.02917 0.90018 0.0
C194 C 0.84596 0.06955 0.73877 0.0
C195 C 0.82955 0.09327 0.72044 0.0
C196 C 0.83288 0.05826 0.76805 0.0
C197 C 0.77942 0.00707 0.87851 0.0
H198 H 0.61233 0.94491 0.02355 0.0
H199 H 0.63917 0.97706 0.98062 0.0
H200 H 0.69516 0.03759 0.90803 0.0
H201 H 0.86837 0.05893 0.7299 0.0
H202 H 0.84545 0.03934 0.78137 0.0
H203 H 0.80265 -0.00196 0.87 0.0
C204 C 0.68075 0.89918 0.01371 0.0
C205 C 0.69636 0.91791 0.99015 0.0
C206 C 0.76382 0.99137 0.90436 0.0
C207 C 0.80036 0.10623 0.7324 0.0
C208 C 0.78757 0.09532 0.76206 0.0
C209 C 0.73443 0.04485 0.87436 0.0
C210 C 0.68182 0.94639 0.97869 0.0
C211 C 0.69954 0.96704 0.95678 0.0
C212 C 0.71526 0.98359 0.93845 0.0
C213 C 0.73319 0.00202 0.91478 0.0
H214 H 0.69318 0.87821 0.02366 0.0
H215 H 0.72032 0.91081 0.98182 0.0
H216 H 0.77514 0.97036 0.91548 0.0
H217 H 0.78741 0.12462 0.71874 0.0
H218 H 0.76493 0.10544 0.77089 0.0
H219 H 0.7226 0.06522 0.86263 0.0
C220 C 0.80361 0.07101 0.77975 0.0
C221 C 0.78979 0.05851 0.80945 0.0
C222 C 0.77877 0.04762 0.83436 0.0
C223 C 0.76445 0.03347 0.86304 0.0
C224 C 0.96782 0.14578 0.54609 0.0
C225 C 0.96255 0.15119 0.57941 0.0
C226 C 0.99233 0.16264 0.52962 0.0
C227 C 0.08086 0.23639 0.46278 0.0
C228 C 0.26065 0.33709 0.42894 0.0
C229 C 0.27024 0.32974 0.39706 0.0
C230 C 0.23123 0.32549 0.44119 0.0
C231 C 0.12218 0.2784 0.49681 0.0
H232 H 0.95178 0.12998 0.53244 0.0
H233 H -0.00496 0.15934 0.50363 0.0
H234 H 0.06537 0.21976 0.44949 0.0
H235 H 0.27622 0.3515 0.44455 0.0
H236 H 0.22455 0.33106 0.46605 0.0
H237 H 0.13832 0.29422 0.51033 0.0
C238 C 0.98414 0.17139 0.59657 0.0
C239 C 0.00841 0.1885 0.57999 0.0
C240 C 0.09645 0.26304 0.51296 0.0
C241 C 0.24967 0.31115 0.37719 0.0
C242 C 0.21988 0.29976 0.38944 0.0
C243 C 0.10657 0.25174 0.44664 0.0
C244 C 0.01177 0.18503 0.54632 0.0
C245 C 0.03399 0.20552 0.52869 0.0
C246 C 0.0525 0.22251 0.51358 0.0
C247 C 0.07619 0.24145 0.49612 0.0
H248 H 0.98074 0.17595 0.62227 0.0
H249 H 0.02357 0.20549 0.59322 0.0
H250 H 0.09305 0.26716 0.53876 0.0
H251 H 0.25658 0.30553 0.35242 0.0
H252 H 0.20417 0.28533 0.374 0.0
H253 H 0.11055 0.24681 0.42108 0.0
C254 C 0.21075 0.30678 0.42158 0.0
C255 C 0.18077 0.29458 0.43502 0.0
C256 C 0.15609 0.28514 0.44778 0.0
C257 C 0.12768 0.27225 0.46373 0.0
C258 C 0.067 0.71473 0.80015 0.0
C259 C 0.08816 0.71674 0.82691 0.0
C260 C 0.04991 0.74184 0.7895 0.0
C261 C 0.97572 0.83705 0.7442 0.0
C262 C 0.92886 0.02849 0.67926 0.0
C263 C 0.90767 0.02647 0.65266 0.0
C264 C 0.93977 0.00054 0.69472 0.0
C265 C 0.9841 0.90158 0.764 0.0
H266 H 0.06213 0.69172 0.78839 0.0
H267 H 0.03273 0.73917 0.76972 0.0
H268 H 0.97272 0.81222 0.73597 0.0
H269 H 0.93597 0.05186 0.68907 0.0
H270 H 0.95531 0.00283 0.71584 0.0
H271 H 0.98794 0.92651 0.77153 0.0
C272 C 0.09343 0.74728 0.84152 0.0
C273 C 0.07658 0.77478 0.83029 0.0
C274 C 0.00032 0.87661 0.78031 0.0
C275 C 0.89807 -0.00428 0.64115 0.0
C276 C 0.90973 0.96747 0.65633 0.0
C277 C 0.95945 0.86201 0.72794 0.0
C278 C 0.05408 0.77174 0.80484 0.0
C279 C 0.03425 0.7986 0.7946 0.0
C280 C 0.01653 0.81942 0.7842 0.0
C281 C -0.00327 0.8444 0.76998 0.0
H282 H 0.10968 0.74969 0.86207 0.0
H283 H 0.08028 0.79802 0.8421 0.0
H284 H 0.01649 0.88253 0.80022 0.0
H285 H 0.88146 0.99361 0.62085 0.0
H286 H 0.9022 0.94386 0.64743 0.0
H287 H 0.94406 0.85618 0.70738 0.0
C288 C 0.93008 0.97001 0.68359 0.0
C289 C 0.94042 0.94183 0.7014 0.0
C290 C 0.95049 0.92004 0.7181 0.0
C291 C 0.96418 0.89434 0.73733 0.0
C292 C 0.21777 0.69527 0.90888 0.0
C293 C 0.21787 0.66261 0.89877 0.0
C294 C 0.24303 0.70764 0.92764 0.0
C295 C 0.333 0.75991 0.00601 0.0
C296 C 0.52467 0.80435 0.07342 0.0
C297 C 0.52543 0.83716 0.08247 0.0
C298 C 0.49596 0.79019 0.06253 0.0
C299 C 0.39152 0.7276 0.01846 0.0
H300 H 0.19717 0.71089 0.90405 0.0
H301 H 0.24149 0.73235 0.93657 0.0
H302 H 0.31067 0.77282 0.0008 0.0
H303 H 0.54628 0.78947 0.07539 0.0
H304 H 0.49589 0.76469 0.056 0.0
H305 H 0.41426 0.71503 0.02269 0.0
C306 C 0.24552 0.64348 0.90523 0.0
C307 C 0.27117 0.65616 0.92375 0.0
C308 C 0.3662 0.71135 0.00273 0.0
C309 C 0.49698 0.85588 0.08043 0.0
C310 C 0.4681 0.84167 0.06906 0.0
C311 C 0.35831 0.77615 0.02178 0.0
C312 C 0.26929 0.6879 0.93594 0.0
C313 C 0.29354 0.70033 0.95773 0.0
C314 C 0.31294 0.71228 0.97605 0.0
C315 C 0.33717 0.72768 -0.00412 0.0
H316 H 0.24657 0.61832 0.89758 0.0
H317 H 0.29174 0.64083 0.92963 0.0
H318 H 0.36966 0.68644 -0.00505 0.0
H319 H 0.4971 0.88121 0.08758 0.0
H320 H 0.44623 0.85621 0.06741 0.0
H321 H 0.35522 0.80138 0.02862 0.0
C322 C 0.4676 0.80867 0.06039 0.0
C323 C 0.43825 0.79313 0.04959 0.0
C324 C 0.41491 0.77812 0.04031 0.0
C325 C 0.38783 0.76025 0.02742 0.0
C326 C 0.3857 0.241 0.33431 0.0
C327 C 0.39564 0.27198 0.32356 0.0
C328 C 0.39485 0.2131 0.31675 0.0
C329 C 0.4444 0.10844 0.24327 0.0
C330 C 0.58486 0.99345 0.13689 0.0
C331 C 0.57746 0.96285 0.15039 0.0
C332 C 0.56598 0.02078 0.14526 0.0
C333 C 0.48822 0.12349 0.19336 0.0
H334 H 0.37086 0.2384 0.35592 0.0
H335 H 0.38709 0.18935 0.32514 0.0
H336 H 0.42782 0.1024 0.26287 0.0
H337 H 0.60454 -0.00393 0.11956 0.0
H338 H 0.57158 0.0442 0.13457 0.0
H339 H 0.50547 0.1296 0.17439 0.0
C340 C 0.41483 0.27428 0.29529 0.0
C341 C 0.42409 0.24671 0.27821 0.0
C342 C 0.47173 0.1484 0.20956 0.0
C343 C 0.55162 0.96041 0.17269 0.0
C344 C 0.53327 0.98741 0.18114 0.0
C345 C 0.46094 0.08353 0.22711 0.0
C346 C 0.41423 0.21605 0.28872 0.0
C347 C 0.42512 0.1881 0.2707 0.0
C348 C 0.43562 0.16652 0.25389 0.0
C349 C 0.45017 0.14095 0.23494 0.0
H350 H 0.42332 0.29759 0.28642 0.0
H351 H 0.43921 0.24942 0.25677 0.0
H352 H 0.47649 0.17343 0.20286 0.0
H353 H 0.5455 0.93736 0.18388 0.0
H354 H 0.51363 0.98458 0.19851 0.0
H355 H 0.4569 0.05856 0.23448 0.0
C356 C 0.54011 0.01764 0.16747 0.0
C357 C 0.52074 0.04502 0.1776 0.0
C358 C 0.50296 0.0659 0.18798 0.0
C359 C 0.48331 0.09104 0.20244 0.0
C360 C 0.74399 0.14211 0.58233 0.0
C361 C 0.76883 0.16155 0.59573 0.0
C362 C 0.71502 0.15627 0.57157 0.0
C363 C 0.60513 0.21484 0.52245 0.0
C364 C 0.48383 0.35719 0.42773 0.0
C365 C 0.46293 0.33674 0.41012 0.0
C366 C 0.50855 0.34364 0.44688 0.0
C367 C 0.60035 0.28264 0.52514 0.0
H368 H 0.74738 0.11621 0.57911 0.0
H369 H 0.69646 0.14111 0.56059 0.0
H370 H 0.60704 0.18863 0.5209 0.0
H371 H 0.48015 0.38325 0.42779 0.0
H372 H 0.52402 0.35943 0.46119 0.0
H373 H 0.59901 0.30893 0.52589 0.0
C374 C 0.76364 0.19508 0.59909 0.0
C375 C 0.73465 0.20911 0.58858 0.0
C376 C 0.62593 0.26685 0.54084 0.0
C377 C 0.46795 0.30309 0.41047 0.0
C378 C 0.49223 0.28965 0.42976 0.0
C379 C 0.57953 0.23066 0.50671 0.0
C380 C 0.71044 0.18987 0.5745 0.0
C381 C 0.68128 0.20483 0.56251 0.0
C382 C 0.65678 0.2172 0.55243 0.0
C383 C 0.6287 0.23298 0.53902 0.0
H384 H 0.78225 0.2106 0.60938 0.0
H385 H 0.73134 0.23511 0.59099 0.0
H386 H 0.64402 0.28114 0.55358 0.0
H387 H 0.45188 0.28705 0.39712 0.0
H388 H 0.49479 0.26347 0.43076 0.0
H389 H 0.562 0.21647 0.49312 0.0
C390 C 0.51203 0.30975 0.44865 0.0
C391 C 0.53499 0.29512 0.47047 0.0
C392 C 0.55367 0.28127 0.48819 0.0
C393 C 0.57749 0.26465 0.50752 0.0
C394 C 0.09761 0.5056 0.81577 0.0
C395 C 0.08303 0.52286 0.84134 0.0
C396 C 0.0842 0.4764 0.80495 0.0
C397 C 0.03092 0.36673 0.75464 0.0
C398 C 0.88521 0.22936 0.69128 0.0
C399 C 0.89804 0.21752 0.66198 0.0
C400 C 0.90195 0.25318 0.70888 0.0
C401 C 0.97297 0.34158 0.78008 0.0
H402 H 0.11878 0.5153 0.8034 0.0
H403 H 0.09534 0.46393 0.78461 0.0
H404 H 0.05309 0.37659 0.74432 0.0
H405 H 0.86306 0.2191 0.70124 0.0
H406 H 0.8922 0.2614 0.73192 0.0
H407 H 0.95027 0.3324 0.78987 0.0
C408 C 0.05528 0.51 0.8566 0.0
C409 C 0.04219 0.48033 0.84612 0.0
C410 C 0.98864 0.36732 0.79574 0.0
C411 C 0.92691 0.23105 0.64964 0.0
C412 C 0.94397 0.25431 0.66757 0.0
C413 C 0.01521 0.34094 0.73894 0.0
C414 C 0.05645 0.46367 0.82 0.0
C415 C 0.04241 0.43396 0.80792 0.0
C416 C 0.03146 0.40904 0.79703 0.0
C417 C 0.0173 0.38039 0.78273 0.0
H418 H 0.04372 0.52294 0.8764 0.0
H419 H 0.02071 0.4707 0.85798 0.0
H420 H 0.97787 0.37764 0.81744 0.0
H421 H 0.93746 0.22198 0.62729 0.0
H422 H 0.96708 0.26321 0.6585 0.0
H423 H 0.02543 0.33127 0.71668 0.0
C424 C 0.93195 0.26487 0.6976 0.0
C425 C 0.95101 0.28679 0.71718 0.0
C426 C 0.96742 0.30514 0.73311 0.0
C427 C 0.9858 0.32878 0.75126 0.0
C428 C -0.00526 0.6392 0.9004 0.0
C429 C 0.02566 0.64732 0.91264 0.0
C430 C 0.96666 0.64805 0.91779 0.0
C431 C 0.86178 0.6955 0.99142 0.0
C432 C 0.74735 0.82992 0.1059 0.0
C433 C 0.71677 0.82471 0.09146 0.0
C434 C 0.77445 0.81157 0.09574 0.0
C435 C 0.87638 0.73527 0.04462 0.0
H436 H 0.99231 0.62612 0.8777 0.0
H437 H 0.94292 0.64179 0.90826 0.0
H438 H 0.85595 0.68052 0.97057 0.0
H439 H 0.75008 0.84731 0.12545 0.0
H440 H 0.79778 0.81531 0.10736 0.0
H441 H 0.88233 0.75097 0.06489 0.0
C442 C 0.02777 0.66428 0.94227 0.0
C443 C 4e-05 0.67325 0.95918 0.0
C444 C 0.90134 0.7192 0.02811 0.0
C445 C 0.71422 0.80187 0.06615 0.0
C446 C 0.74102 0.78396 0.05599 0.0
C447 C 0.83682 0.71162 0.00789 0.0
C448 C 0.96946 0.66526 0.94713 0.0
C449 C 0.94143 0.67578 0.96508 0.0
C450 C 0.91978 0.68579 0.982 0.0
C451 C 0.8941 0.69971 0.00112 0.0
H452 H 0.05104 0.67133 0.95235 0.0
H453 H 0.00257 0.68669 0.98169 0.0
H454 H 0.92628 0.7227 0.03584 0.0
H455 H 0.69117 0.79765 0.05415 0.0
H456 H 0.73808 0.76642 0.03657 0.0
H457 H 0.81201 0.70888 -0.00049 0.0
C458 C 0.77114 0.78834 0.07089 0.0
C459 C 0.79815 0.76884 0.05998 0.0
C460 C 0.81903 0.75139 0.04906 0.0
C461 C 0.84413 0.73202 0.0342 0.0
C462 C 0.5854 0.74287 0.14237 0.0
C463 C 0.59537 0.76942 0.16158 0.0
C464 C 0.57518 0.71385 0.15713 0.0
C465 C 0.52682 0.60425 0.21822 0.0
C466 C 0.42391 0.48627 0.35818 0.0
C467 C 0.40943 0.4632 0.33766 0.0
C468 C 0.44348 0.51088 0.34492 0.0
C469 C 0.52266 0.6038 0.28616 0.0
H470 H 0.5845 0.74486 0.11613 0.0
H471 H 0.56687 0.69389 0.14208 0.0
H472 H 0.5279 0.60444 0.1919 0.0
H473 H 0.42128 0.48438 0.38431 0.0
H474 H 0.45532 0.52808 0.36096 0.0
H475 H 0.52072 0.60411 0.31243 0.0
C476 C 0.596 0.76585 0.19557 0.0
C477 C 0.58588 0.73699 0.21015 0.0
C478 C 0.53843 0.62938 0.27024 0.0
C479 C 0.41339 0.46585 0.30391 0.0
C480 C 0.43308 0.49013 0.29077 0.0
C481 C 0.51103 0.57867 0.23414 0.0
C482 C 0.57512 0.71107 0.19112 0.0
C483 C 0.56332 0.68209 0.20679 0.0
C484 C 0.55343 0.65779 0.21982 0.0
C485 C 0.54003 0.62994 0.23621 0.0
H486 H 0.60367 0.78566 0.21108 0.0
H487 H 0.58598 0.73511 0.23642 0.0
H488 H 0.54853 0.64912 0.28444 0.0
H489 H 0.40256 0.44808 0.28778 0.0
H490 H 0.43681 0.49101 0.26471 0.0
H491 H 0.50004 0.55945 0.2199 0.0
C492 C 0.44877 0.51224 0.31123 0.0
C493 C 0.47076 0.53564 0.29735 0.0
C494 C 0.48886 0.55464 0.28428 0.0
C495 C 0.5084 0.57872 0.26811 0.0
loop_
_geom_bond_atom_site_label_1
_geom_bond_atom_site_label_2
_geom_bond_distance
_geom_bond_site_symmetry_2
_ccdc_geom_bond_type
Fe0 O2 1.918 . S
Fe0 O5 1.997 . S
Fe0 O6 2.002 . S
Fe0 O11 1.976 . S
Fe0 O14 1.996 . S
Fe1 O2 1.918 . S
Fe1 O9 1.997 . S
Fe1 O12 1.996 . S
Fe1 O16 1.976 . S
Fe1 O19 2.002 . S
O2 Fe0 1.918 . S
O2 Fe1 1.918 . S
O2 Fe3 1.918 . S
Fe3 O2 1.918 . S
Fe3 O4 2.002 . S
Fe3 O13 1.976 . S
Fe3 O17 1.996 . S
Fe3 O20 1.997 . S
O4 Fe3 2.002 . S
O4 C21 1.295 . S
O5 Fe0 1.997 . S
O5 C21 1.235 . S
O6 Fe0 2.002 . S
O6 C7 1.295 . S
C7 O6 1.295 . S
C7 O9 1.235 . S
C8 O13 1.287 . S
C8 O14 1.255 . S
O9 Fe1 1.997 . S
O9 C7 1.235 . S
C10 O16 1.287 . S
C10 O17 1.255 . S
O11 Fe0 1.976 . S
O11 C18 1.287 . S
O12 Fe1 1.996 . S
O12 C18 1.255 . S
O13 Fe3 1.976 . S
O13 C8 1.287 . S
O14 Fe0 1.996 . S
O14 C8 1.255 . S
C15 O19 1.295 . S
C15 O20 1.235 . S
O16 Fe1 1.976 . S
O16 C10 1.287 . S
O17 Fe3 1.996 . S
O17 C10 1.255 . S
C18 O11 1.287 . S
C18 O12 1.255 . S
O19 Fe1 2.002 . S
O19 C15 1.295 . S
O20 Fe3 1.997 . S
O20 C15 1.235 . S
C21 O4 1.295 . S
C21 O5 1.235 . S
Fe22 O24 1.918 . S
Fe22 O27 1.997 . S
Fe22 O28 2.002 . S
Fe22 O33 1.976 . S
Fe22 O36 1.996 . S
Fe23 O24 1.918 . S
Fe23 O31 1.997 . S
Fe23 O34 1.996 . S
Fe23 O38 1.976 . S
Fe23 O41 2.002 . S
O24 Fe22 1.918 . S
O24 Fe23 1.918 . S
O24 Fe25 1.918 . S
Fe25 O24 1.918 . S
Fe25 O26 2.002 . S
Fe25 O35 1.976 . S
Fe25 O39 1.996 . S
Fe25 O42 1.997 . S
O26 Fe25 2.002 . S
O26 C43 1.295 . S
O27 Fe22 1.997 . S
O27 C43 1.235 . S
O28 Fe22 2.002 . S
O28 C29 1.295 . S
C29 O28 1.295 . S
C29 O31 1.235 . S
C30 O35 1.287 . S
C30 O36 1.255 . S
O31 Fe23 1.997 . S
O31 C29 1.235 . S
C32 O38 1.287 . S
C32 O39 1.255 . S
O33 Fe22 1.976 . S
O33 C40 1.287 . S
O34 Fe23 1.996 . S
O34 C40 1.255 . S
O35 Fe25 1.976 . S
O35 C30 1.287 . S
O36 Fe22 1.996 . S
O36 C30 1.255 . S
C37 O41 1.295 . S
C37 O42 1.235 . S
O38 Fe23 1.976 . S
O38 C32 1.287 . S
O39 Fe25 1.996 . S
O39 C32 1.255 . S
C40 O33 1.287 . S
C40 O34 1.255 . S
O41 Fe23 2.002 . S
O41 C37 1.295 . S
O42 Fe25 1.997 . S
O42 C37 1.235 . S
C43 O26 1.295 . S
C43 O27 1.235 . S
Fe44 O46 1.918 . S
Fe44 O49 1.997 . S
Fe44 O50 2.002 . S
Fe44 O55 1.976 . S
Fe44 O58 1.996 . S
Fe45 O46 1.918 . S
Fe45 O53 1.997 . S
Fe45 O56 1.996 . S
Fe45 O60 1.976 . S
Fe45 O63 2.002 . S
O46 Fe44 1.918 . S
O46 Fe45 1.918 . S
O46 Fe47 1.918 . S
Fe47 O46 1.918 . S
Fe47 O48 2.002 . S
Fe47 O57 1.976 . S
Fe47 O61 1.996 . S
Fe47 O64 1.997 . S
O48 Fe47 2.002 . S
O48 C65 1.295 . S
O49 Fe44 1.997 . S
O49 C65 1.235 . S
O50 Fe44 2.002 . S
O50 C51 1.295 . S
C51 O50 1.295 . S
C51 O53 1.235 . S
C52 O57 1.287 . S
C52 O58 1.255 . S
O53 Fe45 1.997 . S
O53 C51 1.235 . S
C54 O60 1.287 . S
C54 O61 1.255 . S
O55 Fe44 1.976 . S
O55 C62 1.287 . S
O56 Fe45 1.996 . S
O56 C62 1.255 . S
O57 Fe47 1.976 . S
O57 C52 1.287 . S
O58 Fe44 1.996 . S
O58 C52 1.255 . S
C59 O63 1.295 . S
C59 O64 1.235 . S
O60 Fe45 1.976 . S
O60 C54 1.287 . S
O61 Fe47 1.996 . S
O61 C54 1.255 . S
C62 O55 1.287 . S
C62 O56 1.255 . S
O63 Fe45 2.002 . S
O63 C59 1.295 . S
O64 Fe47 1.997 . S
O64 C59 1.235 . S
C65 O48 1.295 . S
C65 O49 1.235 . S
Fe66 O68 1.918 . S
Fe66 O71 1.997 . S
Fe66 O72 2.002 . S
Fe66 O77 1.976 . S
Fe66 O80 1.996 . S
Fe67 O68 1.918 . S
Fe67 O75 1.997 . S
Fe67 O78 1.996 . S
Fe67 O82 1.976 . S
Fe67 O85 2.002 . S
O68 Fe66 1.918 . S
O68 Fe67 1.918 . S
O68 Fe69 1.918 . S
Fe69 O68 1.918 . S
Fe69 O70 2.002 . S
Fe69 O79 1.976 . S
Fe69 O83 1.996 . S
Fe69 O86 1.997 . S
O70 Fe69 2.002 . S
O70 C87 1.295 . S
O71 Fe66 1.997 . S
O71 C87 1.235 . S
O72 Fe66 2.002 . S
O72 C73 1.295 . S
C73 O72 1.295 . S
C73 O75 1.235 . S
C74 O79 1.287 . S
C74 O80 1.255 . S
O75 Fe67 1.997 . S
O75 C73 1.235 . S
C76 O82 1.287 . S
C76 O83 1.255 . S
O77 Fe66 1.976 . S
O77 C84 1.287 . S
O78 Fe67 1.996 . S
O78 C84 1.255 . S
O79 Fe69 1.976 . S
O79 C74 1.287 . S
O80 Fe66 1.996 . S
O80 C74 1.255 . S
C81 O85 1.295 . S
C81 O86 1.235 . S
O82 Fe67 1.976 . S
O82 C76 1.287 . S
O83 Fe69 1.996 . S
O83 C76 1.255 . S
C84 O77 1.287 . S
C84 O78 1.255 . S
O85 Fe67 2.002 . S
O85 C81 1.295 . S
O86 Fe69 1.997 . S
O86 C81 1.235 . S
C87 O70 1.295 . S
C87 O71 1.235 . S
C88 C89 1.420 . S
C88 C90 1.385 . S
C88 H96 0.928 . S
C89 C88 1.420 . S
C89 C102 1.420 . S
C90 C88 1.385 . S
C90 H97 0.929 . S
C90 C108 1.407 1_556 S
C91 H98 0.928 . S
C91 C107 1.374 . S
C91 C111 1.388 . S
C92 C93 1.420 . S
C92 C94 1.385 . S
C92 H99 0.928 . S
C93 C92 1.420 . S
C93 C105 1.420 . S
C94 C92 1.385 . S
C94 H100 0.929 . S
C94 C118 1.407 . S
C95 H101 0.928 . S
C95 C104 1.374 . S
C95 C121 1.388 . S
H96 C88 0.928 . S
H97 C90 0.929 . S
H98 C91 0.928 . S
H99 C92 0.928 . S
H100 C94 0.929 . S
H101 C95 0.928 . S
C102 C89 1.420 . S
C102 C103 1.385 1_556 S
C102 H112 0.928 . S
C103 C102 1.385 1_554 S
C103 C108 1.407 . S
C103 H113 0.929 . S
C104 C95 1.374 . S
C104 C111 1.388 . S
C104 H114 0.928 . S
C105 C93 1.420 . S
C105 C106 1.385 . S
C105 H115 0.928 . S
C106 C105 1.385 . S
C106 H116 0.929 . S
C106 C118 1.407 . S
C107 C91 1.374 . S
C107 H117 0.928 . S
C107 C121 1.388 . S
C108 C90 1.407 1_554 S
C108 C103 1.407 . S
C108 C109 1.428 . S
C109 C108 1.428 . S
C109 C110 1.230 . S
C110 C109 1.230 . S
C110 C111 1.405 . S
C111 C91 1.388 . S
C111 C104 1.388 . S
C111 C110 1.405 . S
H112 C102 0.928 . S
H113 C103 0.929 . S
H114 C104 0.928 . S
H115 C105 0.928 . S
H116 C106 0.929 . S
H117 C107 0.928 . S
C118 C94 1.407 . S
C118 C106 1.407 . S
C118 C119 1.428 . S
C119 C118 1.428 . S
C119 C120 1.230 . S
C120 C119 1.230 . S
C120 C121 1.405 . S
C121 C95 1.388 . S
C121 C107 1.388 . S
C121 C120 1.405 . S
C122 C123 1.420 . S
C122 C124 1.385 . S
C122 H130 0.928 . S
C123 C122 1.420 . S
C123 C136 1.420 . S
C124 C122 1.385 . S
C124 H131 0.929 . S
C124 C142 1.407 . S
C125 H132 0.928 . S
C125 C141 1.374 . S
C125 C145 1.388 1_545 S
C126 C127 1.420 . S
C126 C128 1.385 . S
C126 H133 0.928 . S
C127 C126 1.420 . S
C127 C139 1.420 . S
C128 C126 1.385 . S
C128 H134 0.929 . S
C128 C152 1.407 . S
C129 H135 0.928 . S
C129 C138 1.374 . S
C129 C155 1.388 1_565 S
H130 C122 0.928 . S
H131 C124 0.929 . S
H132 C125 0.928 . S
H133 C126 0.928 . S
H134 C128 0.929 . S
H135 C129 0.928 . S
C136 C123 1.420 . S
C136 C137 1.385 . S
C136 H146 0.928 . S
C137 C136 1.385 . S
C137 C142 1.407 . S
C137 H147 0.929 . S
C138 C129 1.374 . S
C138 C145 1.388 . S
C138 H148 0.928 . S
C139 C127 1.420 . S
C139 C140 1.385 . S
C139 H149 0.928 . S
C140 C139 1.385 . S
C140 H150 0.929 . S
C140 C152 1.407 . S
C141 C125 1.374 . S
C141 H151 0.928 . S
C141 C155 1.388 . S
C142 C124 1.407 . S
C142 C137 1.407 . S
C142 C143 1.428 . S
C143 C142 1.428 . S
C143 C144 1.230 . S
C144 C143 1.230 . S
C144 C145 1.405 . S
C145 C125 1.388 1_565 S
C145 C138 1.388 . S
C145 C144 1.405 . S
H146 C136 0.928 . S
H147 C137 0.929 . S
H148 C138 0.928 . S
H149 C139 0.928 . S
H150 C140 0.929 . S
H151 C141 0.928 . S
C152 C128 1.407 . S
C152 C140 1.407 . S
C152 C153 1.428 . S
C153 C152 1.428 . S
C153 C154 1.230 . S
C154 C153 1.230 . S
C154 C155 1.405 . S
C155 C129 1.388 1_545 S
C155 C141 1.388 . S
C155 C154 1.405 . S
C156 C157 1.420 . S
C156 C158 1.385 . S
C156 H164 0.928 . S
C157 C156 1.420 . S
C157 C170 1.420 . S
C158 C156 1.385 . S
C158 H165 0.929 . S
C158 C176 1.407 . S
C159 H166 0.928 . S
C159 C175 1.374 . S
C159 C179 1.388 . S
C160 C161 1.420 . S
C160 C162 1.385 . S
C160 H167 0.928 . S
C161 C160 1.420 . S
C161 C173 1.420 . S
C162 C160 1.385 . S
C162 H168 0.929 . S
C162 C186 1.407 . S
C163 H169 0.928 . S
C163 C172 1.374 . S
C163 C189 1.388 . S
H164 C156 0.928 . S
H165 C158 0.929 . S
H166 C159 0.928 . S
H167 C160 0.928 . S
H168 C162 0.929 . S
H169 C163 0.928 . S
C170 C157 1.420 . S
C170 C171 1.385 . S
C170 H180 0.928 . S
C171 C170 1.385 . S
C171 C176 1.407 . S
C171 H181 0.929 . S
C172 C163 1.374 . S
C172 C179 1.388 . S
C172 H182 0.928 . S
C173 C161 1.420 . S
C173 C174 1.385 . S
C173 H183 0.928 . S
C174 C173 1.385 . S
C174 H184 0.929 . S
C174 C186 1.407 . S
C175 C159 1.374 . S
C175 H185 0.928 . S
C175 C189 1.388 . S
C176 C158 1.407 . S
C176 C171 1.407 . S
C176 C177 1.428 . S
C177 C176 1.428 . S
C177 C178 1.230 . S
C178 C177 1.230 . S
C178 C179 1.405 . S
C179 C159 1.388 . S
C179 C172 1.388 . S
C179 C178 1.405 . S
H180 C170 0.928 . S
H181 C171 0.929 . S
H182 C172 0.928 . S
H183 C173 0.928 . S
H184 C174 0.929 . S
H185 C175 0.928 . S
C186 C162 1.407 . S
C186 C174 1.407 . S
C186 C187 1.428 . S
C187 C186 1.428 . S
C187 C188 1.230 . S
C188 C187 1.230 . S
C188 C189 1.405 . S
C189 C163 1.388 . S
C189 C175 1.388 . S
C189 C188 1.405 . S
C190 C191 1.420 . S
C190 C192 1.385 1_554 S
C190 H198 0.928 . S
C191 C190 1.420 . S
C191 C204 1.420 . S
C192 C190 1.385 1_556 S
C192 H199 0.929 . S
C192 C210 1.407 . S
C193 H200 0.928 . S
C193 C209 1.374 . S
C193 C213 1.388 . S
C194 C195 1.420 . S
C194 C196 1.385 . S
C194 H201 0.928 . S
C195 C194 1.420 . S
C195 C207 1.420 . S
C196 C194 1.385 . S
C196 H202 0.929 . S
C196 C220 1.407 . S
C197 H203 0.928 . S
C197 C206 1.374 1_545 S
C197 C223 1.388 . S
H198 C190 0.928 . S
H199 C192 0.929 . S
H200 C193 0.928 . S
H201 C194 0.928 . S
H202 C196 0.929 . S
H203 C197 0.928 . S
C204 C191 1.420 . S
C204 C205 1.381 1_554 S
C204 H214 0.928 . S
C205 C204 1.381 1_556 S
C205 C210 1.409 . S
C205 H215 0.931 . S
C206 C197 1.374 1_565 S
C206 C213 1.388 1_565 S
C206 H216 0.928 . S
C207 C195 1.420 . S
C207 C208 1.385 . S
C207 H217 0.928 . S
C208 C207 1.385 . S
C208 H218 0.929 . S
C208 C220 1.407 . S
C209 C193 1.374 . S
C209 H219 0.928 . S
C209 C223 1.388 . S
C210 C192 1.407 . S
C210 C205 1.409 . S
C210 C211 1.428 . S
C211 C210 1.428 . S
C211 C212 1.230 . S
C212 C211 1.230 . S
C212 C213 1.405 1_565 S
C213 C193 1.388 . S
C213 C206 1.388 1_545 S
C213 C212 1.405 1_545 S
H214 C204 0.928 . S
H215 C205 0.931 . S
H216 C206 0.928 . S
H217 C207 0.928 . S
H218 C208 0.929 . S
H219 C209 0.928 . S
C220 C196 1.407 . S
C220 C208 1.407 . S
C220 C221 1.428 . S
C221 C220 1.428 . S
C221 C222 1.230 . S
C222 C221 1.230 . S
C222 C223 1.405 . S
C223 C197 1.388 . S
C223 C209 1.388 . S
C223 C222 1.405 . S
C224 C225 1.420 . S
C224 C226 1.385 . S
C224 H232 0.928 . S
C225 C224 1.420 . S
C225 C238 1.420 . S
C226 C224 1.385 . S
C226 H233 0.929 . S
C226 C244 1.407 1_655 S
C227 H234 0.928 . S
C227 C243 1.374 . S
C227 C247 1.388 . S
C228 C229 1.420 . S
C228 C230 1.385 . S
C228 H235 0.928 . S
C229 C228 1.420 . S
C229 C241 1.420 . S
C230 C228 1.385 . S
C230 H236 0.929 . S
C230 C254 1.407 . S
C231 H237 0.928 . S
C231 C240 1.374 . S
C231 C257 1.388 . S
H232 C224 0.928 . S
H233 C226 0.929 . S
H234 C227 0.928 . S
H235 C228 0.928 . S
H236 C230 0.929 . S
H237 C231 0.928 . S
C238 C225 1.420 . S
C238 C239 1.385 1_655 S
C238 H248 0.928 . S
C239 C238 1.385 1_455 S
C239 C244 1.407 . S
C239 H249 0.929 . S
C240 C231 1.374 . S
C240 C247 1.388 . S
C240 H250 0.928 . S
C241 C229 1.420 . S
C241 C242 1.385 . S
C241 H251 0.928 . S
C242 C241 1.385 . S
C242 H252 0.929 . S
C242 C254 1.407 . S
C243 C227 1.374 . S
C243 H253 0.928 . S
C243 C257 1.388 . S
C244 C226 1.407 1_455 S
C244 C239 1.407 . S
C244 C245 1.428 . S
C245 C244 1.428 . S
C245 C246 1.230 . S
C246 C245 1.230 . S
C246 C247 1.405 . S
C247 C227 1.388 . S
C247 C240 1.388 . S
C247 C246 1.405 . S
H248 C238 0.928 . S
H249 C239 0.929 . S
H250 C240 0.928 . S
H251 C241 0.928 . S
H252 C242 0.929 . S
H253 C243 0.928 . S
C254 C230 1.407 . S
C254 C242 1.407 . S
C254 C255 1.428 . S
C255 C254 1.428 . S
C255 C256 1.230 . S
C256 C255 1.230 . S
C256 C257 1.405 . S
C257 C231 1.388 . S
C257 C243 1.388 . S
C257 C256 1.405 . S
C258 C259 1.420 . S
C258 C260 1.385 . S
C258 H266 0.928 . S
C259 C258 1.420 . S
C259 C272 1.420 . S
C260 C258 1.385 . S
C260 H267 0.929 . S
C260 C278 1.407 . S
C261 H268 0.928 . S
C261 C277 1.374 . S
C261 C281 1.388 1_655 S
C262 C263 1.420 . S
C262 C264 1.385 . S
C262 H269 0.928 . S
C263 C262 1.420 . S
C263 C275 1.420 1_545 S
C264 C262 1.385 . S
C264 H270 0.929 . S
C264 C288 1.407 1_545 S
C265 H271 0.928 . S
C265 C274 1.374 1_655 S
C265 C291 1.388 . S
H266 C258 0.928 . S
H267 C260 0.929 . S
H268 C261 0.928 . S
H269 C262 0.928 . S
H270 C264 0.929 . S
H271 C265 0.928 . S
C272 C259 1.420 . S
C272 C273 1.385 . S
C272 H282 0.928 . S
C273 C272 1.385 . S
C273 C278 1.407 . S
C273 H283 0.929 . S
C274 C265 1.374 1_455 S
C274 C281 1.388 . S
C274 H284 0.928 . S
C275 C263 1.420 1_565 S
C275 C276 1.385 . S
C275 H285 0.928 . S
C276 C275 1.385 . S
C276 H286 0.929 . S
C276 C288 1.407 . S
C277 C261 1.374 . S
C277 H287 0.928 . S
C277 C291 1.388 . S
C278 C260 1.407 . S
C278 C273 1.407 . S
C278 C279 1.428 . S
C279 C278 1.428 . S
C279 C280 1.230 . S
C280 C279 1.230 . S
C280 C281 1.405 . S
C281 C261 1.388 1_455 S
C281 C274 1.388 . S
C281 C280 1.405 . S
H282 C272 0.928 . S
H283 C273 0.929 . S
H284 C274 0.928 . S
H285 C275 0.928 . S
H286 C276 0.929 . S
H287 C277 0.928 . S
C288 C264 1.407 1_565 S
C288 C276 1.407 . S
C288 C289 1.428 . S
C289 C288 1.428 . S
C289 C290 1.230 . S
C290 C289 1.230 . S
C290 C291 1.405 . S
C291 C265 1.388 . S
C291 C277 1.388 . S
C291 C290 1.405 . S
C292 C293 1.420 . S
C292 C294 1.385 . S
C292 H300 0.928 . S
C293 C292 1.420 . S
C293 C306 1.420 . S
C294 C292 1.385 . S
C294 H301 0.929 . S
C294 C312 1.407 . S
C295 H302 0.928 . S
C295 C311 1.374 . S
C295 C315 1.388 . S
C296 C297 1.420 . S
C296 C298 1.385 . S
C296 H303 0.928 . S
C297 C296 1.420 . S
C297 C309 1.420 . S
C298 C296 1.385 . S
C298 H304 0.929 . S
C298 C322 1.407 . S
C299 H305 0.928 . S
C299 C308 1.374 . S
C299 C325 1.388 . S
H300 C292 0.928 . S
H301 C294 0.929 . S
H302 C295 0.928 . S
H303 C296 0.928 . S
H304 C298 0.929 . S
H305 C299 0.928 . S
C306 C293 1.420 . S
C306 C307 1.385 . S
C306 H316 0.928 . S
C307 C306 1.385 . S
C307 C312 1.407 . S
C307 H317 0.929 . S
C308 C299 1.374 . S
C308 C315 1.388 . S
C308 H318 0.928 . S
C309 C297 1.420 . S
C309 C310 1.385 . S
C309 H319 0.928 . S
C310 C309 1.385 . S
C310 H320 0.929 . S
C310 C322 1.407 . S
C311 C295 1.374 . S
C311 H321 0.928 . S
C311 C325 1.388 . S
C312 C294 1.407 . S
C312 C307 1.407 . S
C312 C313 1.428 . S
C313 C312 1.428 . S
C313 C314 1.230 . S
C314 C313 1.230 . S
C314 C315 1.405 1_556 S
C315 C295 1.388 . S
C315 C308 1.388 . S
C315 C314 1.405 1_554 S
H316 C306 0.928 . S
H317 C307 0.929 . S
H318 C308 0.928 . S
H319 C309 0.928 . S
H320 C310 0.929 . S
H321 C311 0.928 . S
C322 C298 1.407 . S
C322 C310 1.407 . S
C322 C323 1.428 . S
C323 C322 1.428 . S
C323 C324 1.230 . S
C324 C323 1.230 . S
C324 C325 1.405 . S
C325 C299 1.388 . S
C325 C311 1.388 . S
C325 C324 1.405 . S
C326 C327 1.420 . S
C326 C328 1.385 . S
C326 H334 0.928 . S
C327 C326 1.420 . S
C327 C340 1.420 . S
C328 C326 1.385 . S
C328 H335 0.929 . S
C328 C346 1.407 . S
C329 H336 0.928 . S
C329 C345 1.374 . S
C329 C349 1.388 . S
C330 C331 1.420 1_545 S
C330 C332 1.385 . S
C330 H337 0.928 . S
C331 C330 1.420 1_565 S
C331 C343 1.420 . S
C332 C330 1.385 . S
C332 H338 0.929 . S
C332 C356 1.407 . S
C333 H339 0.928 . S
C333 C342 1.374 . S
C333 C359 1.388 . S
H334 C326 0.928 . S
H335 C328 0.929 . S
H336 C329 0.928 . S
H337 C330 0.928 . S
H338 C332 0.929 . S
H339 C333 0.928 . S
C340 C327 1.420 . S
C340 C341 1.385 . S
C340 H350 0.928 . S
C341 C340 1.385 . S
C341 C346 1.407 . S
C341 H351 0.929 . S
C342 C333 1.374 . S
C342 C349 1.388 . S
C342 H352 0.928 . S
C343 C331 1.420 . S
C343 C344 1.385 . S
C343 H353 0.928 . S
C344 C343 1.385 . S
C344 H354 0.929 . S
C344 C356 1.407 1_565 S
C345 C329 1.374 . S
C345 H355 0.928 . S
C345 C359 1.388 . S
C346 C328 1.407 . S
C346 C341 1.407 . S
C346 C347 1.428 . S
C347 C346 1.428 . S
C347 C348 1.230 . S
C348 C347 1.230 . S
C348 C349 1.405 . S
C349 C329 1.388 . S
C349 C342 1.388 . S
C349 C348 1.405 . S
H350 C340 0.928 . S
H351 C341 0.929 . S
H352 C342 0.928 . S
H353 C343 0.928 . S
H354 C344 0.929 . S
H355 C345 0.928 . S
C356 C332 1.407 . S
C356 C344 1.407 1_545 S
C356 C357 1.428 . S
C357 C356 1.428 . S
C357 C358 1.230 . S
C358 C357 1.230 . S
C358 C359 1.405 . S
C359 C333 1.388 . S
C359 C345 1.388 . S
C359 C358 1.405 . S
C360 C361 1.420 . S
C360 C362 1.385 . S
C360 H368 0.928 . S
C361 C360 1.420 . S
C361 C374 1.420 . S
C362 C360 1.385 . S
C362 H369 0.929 . S
C362 C380 1.407 . S
C363 H370 0.928 . S
C363 C379 1.374 . S
C363 C383 1.388 . S
C364 C365 1.420 . S
C364 C366 1.385 . S
C364 H371 0.928 . S
C365 C364 1.420 . S
C365 C377 1.420 . S
C366 C364 1.385 . S
C366 H372 0.929 . S
C366 C390 1.407 . S
C367 H373 0.928 . S
C367 C376 1.374 . S
C367 C393 1.388 . S
H368 C360 0.928 . S
H369 C362 0.929 . S
H370 C363 0.928 . S
H371 C364 0.928 . S
H372 C366 0.929 . S
H373 C367 0.928 . S
C374 C361 1.420 . S
C374 C375 1.385 . S
C374 H384 0.928 . S
C375 C374 1.385 . S
C375 C380 1.407 . S
C375 H385 0.929 . S
C376 C367 1.374 . S
C376 C383 1.388 . S
C376 H386 0.928 . S
C377 C365 1.420 . S
C377 C378 1.385 . S
C377 H387 0.928 . S
C378 C377 1.385 . S
C378 H388 0.929 . S
C378 C390 1.407 . S
C379 C363 1.374 . S
C379 H389 0.928 . S
C379 C393 1.388 . S
C380 C362 1.407 . S
C380 C375 1.407 . S
C380 C381 1.428 . S
C381 C380 1.428 . S
C381 C382 1.230 . S
C382 C381 1.230 . S
C382 C383 1.405 . S
C383 C363 1.388 . S
C383 C376 1.388 . S
C383 C382 1.405 . S
H384 C374 0.928 . S
H385 C375 0.929 . S
H386 C376 0.928 . S
H387 C377 0.928 . S
H388 C378 0.929 . S
H389 C379 0.928 . S
C390 C366 1.407 . S
C390 C378 1.407 . S
C390 C391 1.428 . S
C391 C390 1.428 . S
C391 C392 1.230 . S
C392 C391 1.230 . S
C392 C393 1.405 . S
C393 C367 1.388 . S
C393 C379 1.388 . S
C393 C392 1.405 . S
C394 C395 1.420 . S
C394 C396 1.385 . S
C394 H402 0.928 . S
C395 C394 1.420 . S
C395 C408 1.420 . S
C396 C394 1.385 . S
C396 H403 0.929 . S
C396 C414 1.407 . S
C397 H404 0.928 . S
C397 C413 1.374 . S
C397 C417 1.388 . S
C398 C399 1.420 . S
C398 C400 1.385 . S
C398 H405 0.928 . S
C399 C398 1.420 . S
C399 C411 1.420 . S
C400 C398 1.385 . S
C400 H406 0.929 . S
C400 C424 1.407 . S
C401 H407 0.928 . S
C401 C410 1.374 . S
C401 C427 1.388 . S
H402 C394 0.928 . S
H403 C396 0.929 . S
H404 C397 0.928 . S
H405 C398 0.928 . S
H406 C400 0.929 . S
H407 C401 0.928 . S
C408 C395 1.420 . S
C408 C409 1.385 . S
C408 H418 0.928 . S
C409 C408 1.385 . S
C409 C414 1.407 . S
C409 H419 0.929 . S
C410 C401 1.374 . S
C410 C417 1.388 1_655 S
C410 H420 0.928 . S
C411 C399 1.420 . S
C411 C412 1.385 . S
C411 H421 0.928 . S
C412 C411 1.385 . S
C412 H422 0.929 . S
C412 C424 1.407 . S
C413 C397 1.374 . S
C413 H423 0.928 . S
C413 C427 1.388 1_455 S
C414 C396 1.407 . S
C414 C409 1.407 . S
C414 C415 1.428 . S
C415 C414 1.428 . S
C415 C416 1.230 . S
C416 C415 1.230 . S
C416 C417 1.405 . S
C417 C397 1.388 . S
C417 C410 1.388 1_455 S
C417 C416 1.405 . S
H418 C408 0.928 . S
H419 C409 0.929 . S
H420 C410 0.928 . S
H421 C411 0.928 . S
H422 C412 0.929 . S
H423 C413 0.928 . S
C424 C400 1.407 . S
C424 C412 1.407 . S
C424 C425 1.428 . S
C425 C424 1.428 . S
C425 C426 1.230 . S
C426 C425 1.230 . S
C426 C427 1.405 . S
C427 C401 1.388 . S
C427 C413 1.388 1_655 S
C427 C426 1.405 . S
C428 C429 1.420 1_655 S
C428 C430 1.385 . S
C428 H436 0.928 . S
C429 C428 1.420 1_455 S
C429 C442 1.420 . S
C430 C428 1.385 . S
C430 H437 0.929 . S
C430 C448 1.407 . S
C431 H438 0.928 . S
C431 C447 1.374 1_556 S
C431 C451 1.388 1_556 S
C432 C433 1.420 . S
C432 C434 1.385 . S
C432 H439 0.928 . S
C433 C432 1.420 . S
C433 C445 1.420 . S
C434 C432 1.385 . S
C434 H440 0.929 . S
C434 C458 1.407 . S
C435 H441 0.928 . S
C435 C444 1.374 . S
C435 C461 1.388 . S
H436 C428 0.928 . S
H437 C430 0.929 . S
H438 C431 0.928 . S
H439 C432 0.928 . S
H440 C434 0.929 . S
H441 C435 0.928 . S
C442 C429 1.420 . S
C442 C443 1.385 . S
C442 H452 0.928 . S
C443 C442 1.385 . S
C443 C448 1.407 1_455 S
C443 H453 0.929 . S
C444 C435 1.374 . S
C444 C451 1.388 . S
C444 H454 0.928 . S
C445 C433 1.420 . S
C445 C446 1.385 . S
C445 H455 0.928 . S
C446 C445 1.385 . S
C446 H456 0.929 . S
C446 C458 1.407 . S
C447 C431 1.374 1_554 S
C447 H457 0.928 . S
C447 C461 1.388 . S
C448 C430 1.407 . S
C448 C443 1.407 1_655 S
C448 C449 1.428 . S
C449 C448 1.428 . S
C449 C450 1.230 . S
C450 C449 1.230 . S
C450 C451 1.405 1_556 S
C451 C431 1.388 1_554 S
C451 C444 1.388 . S
C451 C450 1.405 1_554 S
H452 C442 0.928 . S
H453 C443 0.929 . S
H454 C444 0.928 . S
H455 C445 0.928 . S
H456 C446 0.929 . S
H457 C447 0.928 . S
C458 C434 1.407 . S
C458 C446 1.407 . S
C458 C459 1.428 . S
C459 C458 1.428 . S
C459 C460 1.230 . S
C460 C459 1.230 . S
C460 C461 1.405 . S
C461 C435 1.388 . S
C461 C447 1.388 . S
C461 C460 1.405 . S
C462 C463 1.420 . S
C462 C464 1.385 . S
C462 H470 0.928 . S
C463 C462 1.420 . S
C463 C476 1.420 . S
C464 C462 1.385 . S
C464 H471 0.929 . S
C464 C482 1.407 . S
C465 H472 0.928 . S
C465 C481 1.374 . S
C465 C485 1.388 . S
C466 C467 1.420 . S
C466 C468 1.385 . S
C466 H473 0.928 . S
C467 C466 1.420 . S
C467 C479 1.420 . S
C468 C466 1.385 . S
C468 H474 0.929 . S
C468 C492 1.407 . S
C469 H475 0.928 . S
C469 C478 1.374 . S
C469 C495 1.388 . S
H470 C462 0.928 . S
H471 C464 0.929 . S
H472 C465 0.928 . S
H473 C466 0.928 . S
H474 C468 0.929 . S
H475 C469 0.928 . S
C476 C463 1.420 . S
C476 C477 1.385 . S
C476 H486 0.928 . S
C477 C476 1.385 . S
C477 C482 1.407 . S
C477 H487 0.929 . S
C478 C469 1.374 . S
C478 C485 1.388 . S
C478 H488 0.928 . S
C479 C467 1.420 . S
C479 C480 1.385 . S
C479 H489 0.928 . S
C480 C479 1.385 . S
C480 H490 0.929 . S
C480 C492 1.407 . S
C481 C465 1.374 . S
C481 H491 0.928 . S
C481 C495 1.388 . S
C482 C464 1.407 . S
C482 C477 1.407 . S
C482 C483 1.428 . S
C483 C482 1.428 . S
C483 C484 1.230 . S
C484 C483 1.230 . S
C484 C485 1.405 . S
C485 C465 1.388 . S
C485 C478 1.388 . S
C485 C484 1.405 . S
H486 C476 0.928 . S
H487 C477 0.929 . S
H488 C478 0.928 . S
H489 C479 0.928 . S
H490 C480 0.929 . S
H491 C481 0.928 . S
C492 C468 1.407 . S
C492 C480 1.407 . S
C492 C493 1.428 . S
C493 C492 1.428 . S
C493 C494 1.230 . S
C494 C493 1.230 . S
C494 C495 1.405 . S
C495 C469 1.388 . S
C495 C481 1.388 . S
C495 C494 1.405 . S
C89 C59 1.219 . S
C93 C21 1.232 . S
C123 C84 1.194 . S
C127 C29 1.161 . S
C157 C62 1.124 . S
C161 C10 1.134 . S
C191 C81 1.167 . S
C195 C30 1.203 . S
C225 C37 1.220 . S
C229 C15 1.239 . S
C259 C52 1.184 . S
C263 C43 1.169 . S
C293 C54 1.180 . S
C297 C87 1.175 . S
C327 C7 1.244 . S
C331 C73 1.244 . S
C361 C40 1.148 . S
C365 C18 1.129 . S
C395 C51 1.190 . S
C399 C32 1.181 . S
C429 C65 1.190 . S
C433 C76 1.196 . S
C463 C74 1.148 . S
C467 C8 1.131 . S
