# Generated by pormake.
# Topology uox, (4)-cn, num edge types: 1
# Building blocks:
#     Node 0, Type 0, BuildingBlock: QUQFOY_clean_sbu_1, # of connection points: 4
#     Node 1, Type 0, BuildingBlock: QUQFOY_clean_sbu_1, # of connection points: 4
#     Node 2, Type 0, BuildingBlock: QUQFOY_clean_sbu_1, # of connection points: 4
#     Node 3, Type 0, BuildingBlock: QUQFOY_clean_sbu_1, # of connection points: 4
#     Node 4, Type 0, BuildingBlock: QUQFOY_clean_sbu_1, # of connection points: 4
#     Node 5, Type 0, BuildingBlock: QUQFOY_clean_sbu_1, # of connection points: 4
#     Node 6, Type 0, BuildingBlock: QUQFOY_clean_sbu_1, # of connection points: 4
#     Node 7, Type 0, BuildingBlock: QUQFOY_clean_sbu_1, # of connection points: 4
#     Node 8, Type 0, BuildingBlock: QUQFOY_clean_sbu_1, # of connection points: 4
#     Node 9, Type 0, BuildingBlock: QUQFOY_clean_sbu_1, # of connection points: 4
#     Node 10, Type 0, BuildingBlock: QUQFOY_clean_sbu_1, # of connection points: 4
#     Node 11, Type 0, BuildingBlock: QUQFOY_clean_sbu_1, # of connection points: 4
#     Node 12, Type 0, BuildingBlock: QUQFOY_clean_sbu_1, # of connection points: 4
#     Node 13, Type 0, BuildingBlock: QUQFOY_clean_sbu_1, # of connection points: 4
#     Node 14, Type 0, BuildingBlock: QUQFOY_clean_sbu_1, # of connection points: 4
#     Node 15, Type 0, BuildingBlock: QUQFOY_clean_sbu_1, # of connection points: 4
#     Node 16, Type 0, BuildingBlock: QUQFOY_clean_sbu_1, # of connection points: 4
#     Node 17, Type 0, BuildingBlock: QUQFOY_clean_sbu_1, # of connection points: 4
#     Node 18, Type 0, BuildingBlock: QUQFOY_clean_sbu_1, # of connection points: 4
#     Node 19, Type 0, BuildingBlock: QUQFOY_clean_sbu_1, # of connection points: 4
#     Node 20, Type 0, BuildingBlock: QUQFOY_clean_sbu_1, # of connection points: 4
#     Node 21, Type 0, BuildingBlock: QUQFOY_clean_sbu_1, # of connection points: 4
#     Node 22, Type 0, BuildingBlock: QUQFOY_clean_sbu_1, # of connection points: 4
#     Node 23, Type 0, BuildingBlock: QUQFOY_clean_sbu_1, # of connection points: 4
#     Node 24, Type 0, BuildingBlock: QUQFOY_clean_sbu_1, # of connection points: 4
#     Node 25, Type 0, BuildingBlock: QUQFOY_clean_sbu_1, # of connection points: 4
#     Node 26, Type 0, BuildingBlock: QUQFOY_clean_sbu_1, # of connection points: 4
#     Node 27, Type 0, BuildingBlock: QUQFOY_clean_sbu_1, # of connection points: 4
#     Node 28, Type 0, BuildingBlock: QUQFOY_clean_sbu_1, # of connection points: 4
#     Node 29, Type 0, BuildingBlock: QUQFOY_clean_sbu_1, # of connection points: 4
#     Node 30, Type 0, BuildingBlock: QUQFOY_clean_sbu_1, # of connection points: 4
#     Node 31, Type 0, BuildingBlock: QUQFOY_clean_sbu_1, # of connection points: 4
#     Edge 32, Type (0, 0), BuildingBlock: OJICUG_clean_linker_0, # of connection points: 2
#     Edge 33, Type (0, 0), BuildingBlock: OJICUG_clean_linker_0, # of connection points: 2
#     Edge 34, Type (0, 0), BuildingBlock: OJICUG_clean_linker_0, # of connection points: 2
#     Edge 35, Type (0, 0), BuildingBlock: OJICUG_clean_linker_0, # of connection points: 2
#     Edge 36, Type (0, 0), BuildingBlock: OJICUG_clean_linker_0, # of connection points: 2
#     Edge 37, Type (0, 0), BuildingBlock: OJICUG_clean_linker_0, # of connection points: 2
#     Edge 38, Type (0, 0), BuildingBlock: OJICUG_clean_linker_0, # of connection points: 2
#     Edge 39, Type (0, 0), BuildingBlock: OJICUG_clean_linker_0, # of connection points: 2
#     Edge 40, Type (0, 0), BuildingBlock: OJICUG_clean_linker_0, # of connection points: 2
#     Edge 41, Type (0, 0), BuildingBlock: OJICUG_clean_linker_0, # of connection points: 2
#     Edge 42, Type (0, 0), BuildingBlock: OJICUG_clean_linker_0, # of connection points: 2
#     Edge 43, Type (0, 0), BuildingBlock: OJICUG_clean_linker_0, # of connection points: 2
#     Edge 44, Type (0, 0), BuildingBlock: OJICUG_clean_linker_0, # of connection points: 2
#     Edge 45, Type (0, 0), BuildingBlock: OJICUG_clean_linker_0, # of connection points: 2
#     Edge 46, Type (0, 0), BuildingBlock: OJICUG_clean_linker_0, # of connection points: 2
#     Edge 47, Type (0, 0), BuildingBlock: OJICUG_clean_linker_0, # of connection points: 2
#     Edge 48, Type (0, 0), BuildingBlock: OJICUG_clean_linker_0, # of connection points: 2
#     Edge 49, Type (0, 0), BuildingBlock: OJICUG_clean_linker_0, # of connection points: 2
#     Edge 50, Type (0, 0), BuildingBlock: OJICUG_clean_linker_0, # of connection points: 2
#     Edge 51, Type (0, 0), BuildingBlock: OJICUG_clean_linker_0, # of connection points: 2
#     Edge 52, Type (0, 0), BuildingBlock: OJICUG_clean_linker_0, # of connection points: 2
#     Edge 53, Type (0, 0), BuildingBlock: OJICUG_clean_linker_0, # of connection points: 2
#     Edge 54, Type (0, 0), BuildingBlock: OJICUG_clean_linker_0, # of connection points: 2
#     Edge 55, Type (0, 0), BuildingBlock: OJICUG_clean_linker_0, # of connection points: 2
#     Edge 56, Type (0, 0), BuildingBlock: OJICUG_clean_linker_0, # of connection points: 2
#     Edge 57, Type (0, 0), BuildingBlock: OJICUG_clean_linker_0, # of connection points: 2
#     Edge 58, Type (0, 0), BuildingBlock: OJICUG_clean_linker_0, # of connection points: 2
#     Edge 59, Type (0, 0), BuildingBlock: OJICUG_clean_linker_0, # of connection points: 2
#     Edge 60, Type (0, 0), BuildingBlock: OJICUG_clean_linker_0, # of connection points: 2
#     Edge 61, Type (0, 0), BuildingBlock: OJICUG_clean_linker_0, # of connection points: 2
#     Edge 62, Type (0, 0), BuildingBlock: OJICUG_clean_linker_0, # of connection points: 2
#     Edge 63, Type (0, 0), BuildingBlock: OJICUG_clean_linker_0, # of connection points: 2
#     Edge 64, Type (0, 0), BuildingBlock: OJICUG_clean_linker_0, # of connection points: 2
#     Edge 65, Type (0, 0), BuildingBlock: OJICUG_clean_linker_0, # of connection points: 2
#     Edge 66, Type (0, 0), BuildingBlock: OJICUG_clean_linker_0, # of connection points: 2
#     Edge 67, Type (0, 0), BuildingBlock: OJICUG_clean_linker_0, # of connection points: 2
#     Edge 68, Type (0, 0), BuildingBlock: OJICUG_clean_linker_0, # of connection points: 2
#     Edge 69, Type (0, 0), BuildingBlock: OJICUG_clean_linker_0, # of connection points: 2
#     Edge 70, Type (0, 0), BuildingBlock: OJICUG_clean_linker_0, # of connection points: 2
#     Edge 71, Type (0, 0), BuildingBlock: OJICUG_clean_linker_0, # of connection points: 2
#     Edge 72, Type (0, 0), BuildingBlock: OJICUG_clean_linker_0, # of connection points: 2
#     Edge 73, Type (0, 0), BuildingBlock: OJICUG_clean_linker_0, # of connection points: 2
#     Edge 74, Type (0, 0), BuildingBlock: OJICUG_clean_linker_0, # of connection points: 2
#     Edge 75, Type (0, 0), BuildingBlock: OJICUG_clean_linker_0, # of connection points: 2
#     Edge 76, Type (0, 0), BuildingBlock: OJICUG_clean_linker_0, # of connection points: 2
#     Edge 77, Type (0, 0), BuildingBlock: OJICUG_clean_linker_0, # of connection points: 2
#     Edge 78, Type (0, 0), BuildingBlock: OJICUG_clean_linker_0, # of connection points: 2
#     Edge 79, Type (0, 0), BuildingBlock: OJICUG_clean_linker_0, # of connection points: 2
#     Edge 80, Type (0, 0), BuildingBlock: OJICUG_clean_linker_0, # of connection points: 2
#     Edge 81, Type (0, 0), BuildingBlock: OJICUG_clean_linker_0, # of connection points: 2
#     Edge 82, Type (0, 0), BuildingBlock: OJICUG_clean_linker_0, # of connection points: 2
#     Edge 83, Type (0, 0), BuildingBlock: OJICUG_clean_linker_0, # of connection points: 2
#     Edge 84, Type (0, 0), BuildingBlock: OJICUG_clean_linker_0, # of connection points: 2
#     Edge 85, Type (0, 0), BuildingBlock: OJICUG_clean_linker_0, # of connection points: 2
#     Edge 86, Type (0, 0), BuildingBlock: OJICUG_clean_linker_0, # of connection points: 2
#     Edge 87, Type (0, 0), BuildingBlock: OJICUG_clean_linker_0, # of connection points: 2
#     Edge 88, Type (0, 0), BuildingBlock: OJICUG_clean_linker_0, # of connection points: 2
#     Edge 89, Type (0, 0), BuildingBlock: OJICUG_clean_linker_0, # of connection points: 2
#     Edge 90, Type (0, 0), BuildingBlock: OJICUG_clean_linker_0, # of connection points: 2
#     Edge 91, Type (0, 0), BuildingBlock: OJICUG_clean_linker_0, # of connection points: 2
#     Edge 92, Type (0, 0), BuildingBlock: OJICUG_clean_linker_0, # of connection points: 2
#     Edge 93, Type (0, 0), BuildingBlock: OJICUG_clean_linker_0, # of connection points: 2
#     Edge 94, Type (0, 0), BuildingBlock: OJICUG_clean_linker_0, # of connection points: 2
#     Edge 95, Type (0, 0), BuildingBlock: OJICUG_clean_linker_0, # of connection points: 2
# Relax obj value: 0.077
# Max RMSD: 0.138
# Mean RMSD: 0.138
data_MOF--net-uox--node1-QUQFOY_clean_sbu_1--edge1-OJICUG_clean_linker_0
_symmetry_space_group_name_H-M    P1
_symmetry_Int_Tables_number       1
_symmetry_cell_setting            triclinic
loop_
_symmetry_equiv_pos_as_xyz
'x, y, z'
_cell_length_a     34.595258
_cell_length_b     34.601957
_cell_length_c     64.872879
_cell_angle_alpha  89.999714
_cell_angle_beta   90.003713
_cell_angle_gamma 90.00101
loop_
_atom_site_label
_atom_site_type_symbol
_atom_site_fract_x
_atom_site_fract_y
_atom_site_fract_z
_atom_type_partial_charge
O0 O 0.37997 0.98596 0.15978 0.0
Cd1 Cd 0.39792 0.03493 0.17525 0.0
Cd2 Cd 0.43612 0.04145 0.13608 0.0
O3 O 0.41408 0.98716 0.13101 0.0
O4 O 0.36965 0.02721 0.20171 0.0
O5 O 0.43322 0.02771 0.20011 0.0
C6 C 0.40227 0.02327 0.21097 0.0
C7 C 0.50042 0.05683 0.12918 0.0
C8 C 0.38984 0.97063 0.14278 0.0
C9 C 0.37838 0.10286 0.14745 0.0
O10 O 0.39838 0.08694 0.1334 0.0
O11 O 0.37702 0.08838 0.16549 0.0
O12 O 0.47599 0.05102 0.11449 0.0
O13 O 0.48865 0.0521 0.14793 0.0
O14 O 0.26303 0.13015 0.40968 0.0
Cd15 Cd 0.21401 0.14804 0.42511 0.0
Cd16 Cd 0.20757 0.18617 0.38591 0.0
O17 O 0.26192 0.1642 0.38089 0.0
O18 O 0.22176 0.11976 0.45156 0.0
O19 O 0.22124 0.18331 0.44997 0.0
C20 C 0.22574 0.15236 0.46082 0.0
C21 C 0.19215 0.25045 0.379 0.0
C22 C 0.27842 0.14 0.39269 0.0
C23 C 0.1462 0.12835 0.39726 0.0
O24 O 0.16214 0.14836 0.38322 0.0
O25 O 0.1606 0.12705 0.41532 0.0
O26 O 0.198 0.22603 0.36431 0.0
O27 O 0.19685 0.23867 0.39776 0.0
O28 O 0.1199 0.01331 0.65955 0.0
Cd29 Cd 0.10194 0.96436 0.67503 0.0
Cd30 Cd 0.06384 0.95786 0.63582 0.0
O31 O 0.08583 0.01218 0.63077 0.0
O32 O 0.13021 0.97216 0.70149 0.0
O33 O 0.06664 0.97168 0.69987 0.0
C34 C 0.09759 0.97617 0.71073 0.0
C35 C 0.99956 0.9424 0.62889 0.0
C36 C 0.11006 0.02867 0.64256 0.0
C37 C 0.12159 0.89648 0.64723 0.0
O38 O 0.10164 0.91242 0.63317 0.0
O39 O 0.12287 0.91092 0.66528 0.0
O40 O 0.024 0.94824 0.61421 0.0
O41 O 0.01131 0.94716 0.64765 0.0
O42 O 0.23603 0.86971 0.90952 0.0
Cd43 Cd 0.28503 0.8517 0.92495 0.0
Cd44 Cd 0.29142 0.81361 0.88579 0.0
O45 O 0.2371 0.83562 0.88074 0.0
O46 O 0.27738 0.87992 0.95143 0.0
O47 O 0.27782 0.81637 0.94978 0.0
C48 C 0.27342 0.84729 0.96067 0.0
C49 C 0.30681 0.7493 0.87898 0.0
C50 C 0.22064 0.85987 0.89253 0.0
C51 C 0.35287 0.8713 0.8971 0.0
O52 O 0.33689 0.85135 0.88305 0.0
O53 O 0.33847 0.8726 0.91516 0.0
O54 O 0.30096 0.77364 0.86425 0.0
O55 O 0.30211 0.76116 0.89771 0.0
O56 O 0.37925 0.01428 0.34796 0.0
Cd57 Cd 0.39755 0.96532 0.3326 0.0
Cd58 Cd 0.43544 0.95922 0.37181 0.0
O59 O 0.4134 0.01356 0.37672 0.0
O60 O 0.36943 0.97279 0.30607 0.0
O61 O 0.43298 0.97268 0.30781 0.0
C62 C 0.40209 0.97691 0.29688 0.0
C63 C 0.4997 0.94372 0.37868 0.0
C64 C 0.38907 0.02985 0.36491 0.0
C65 C 0.37805 0.89753 0.36048 0.0
O66 O 0.39771 0.91375 0.37457 0.0
O67 O 0.37691 0.91178 0.34238 0.0
O68 O 0.47536 0.94975 0.39339 0.0
O69 O 0.48789 0.94838 0.35993 0.0
O70 O 0.23588 0.12925 0.59772 0.0
Cd71 Cd 0.28478 0.14755 0.5823 0.0
Cd72 Cd 0.29097 0.18554 0.62151 0.0
O73 O 0.23666 0.16345 0.62645 0.0
O74 O 0.27718 0.11945 0.55578 0.0
O75 O 0.27726 0.183 0.55753 0.0
C76 C 0.27296 0.15212 0.54661 0.0
C77 C 0.30636 0.24977 0.62854 0.0
C78 C 0.22035 0.1391 0.61467 0.0
C79 C 0.35267 0.12812 0.61012 0.0
O80 O 0.3365 0.14785 0.6242 0.0
O81 O 0.33836 0.12692 0.59204 0.0
O82 O 0.30042 0.22528 0.64318 0.0
O83 O 0.30171 0.23811 0.60976 0.0
O84 O 0.12035 0.98585 0.84766 0.0
Cd85 Cd 0.10221 0.03482 0.83226 0.0
Cd86 Cd 0.06399 0.04094 0.87141 0.0
O87 O 0.08599 0.9866 0.87635 0.0
O88 O 0.13038 0.02728 0.80575 0.0
O89 O 0.06682 0.02747 0.80746 0.0
C90 C 0.09772 0.02316 0.79655 0.0
C91 C 0.99974 0.05639 0.8784 0.0
C92 C 0.11039 0.97029 0.86459 0.0
C93 C 0.1216 0.10256 0.86018 0.0
O94 O 0.10174 0.08639 0.87421 0.0
O95 O 0.1229 0.08832 0.84209 0.0
O96 O 0.02419 0.05037 0.89306 0.0
O97 O 0.01145 0.0518 0.85963 0.0
O98 O 0.26427 0.87003 0.09774 0.0
Cd99 Cd 0.21535 0.85183 0.08229 0.0
Cd100 Cd 0.20908 0.81371 0.12144 0.0
O101 O 0.26339 0.83577 0.12645 0.0
O102 O 0.22295 0.87999 0.05579 0.0
O103 O 0.22273 0.81644 0.05749 0.0
C104 C 0.22704 0.84735 0.04658 0.0
C105 C 0.19362 0.74946 0.12838 0.0
C106 C 0.27975 0.86015 0.1147 0.0
C107 C 0.14747 0.87124 0.11012 0.0
O108 O 0.16359 0.85142 0.12418 0.0
O109 O 0.16181 0.87251 0.09205 0.0
O110 O 0.19957 0.77388 0.14306 0.0
O111 O 0.19831 0.76119 0.10962 0.0
O112 O 0.62031 0.01381 0.84789 0.0
Cd113 Cd 0.60213 0.96489 0.83246 0.0
Cd114 Cd 0.56384 0.95872 0.87154 0.0
O115 O 0.58591 0.013 0.87656 0.0
O116 O 0.6303 0.97243 0.80595 0.0
O117 O 0.56674 0.97224 0.80766 0.0
C118 C 0.59765 0.97653 0.79675 0.0
C119 C 0.49953 0.94332 0.8784 0.0
C120 C 0.61036 0.02932 0.86483 0.0
C121 C 0.62142 0.89708 0.86035 0.0
O122 O 0.60151 0.91322 0.87436 0.0
O123 O 0.62279 0.91137 0.84227 0.0
O124 O 0.52389 0.94928 0.89311 0.0
O125 O 0.51136 0.94797 0.85965 0.0
O126 O 0.73581 0.86977 0.59778 0.0
Cd127 Cd 0.7847 0.8515 0.58235 0.0
Cd128 Cd 0.79094 0.81353 0.62162 0.0
O129 O 0.73663 0.83566 0.62655 0.0
O130 O 0.77713 0.87969 0.55586 0.0
O131 O 0.77722 0.81615 0.55754 0.0
C132 C 0.77294 0.84707 0.54664 0.0
C133 C 0.80634 0.74934 0.62875 0.0
C134 C 0.7203 0.85998 0.61475 0.0
C135 C 0.85261 0.87094 0.61018 0.0
O136 O 0.83646 0.85123 0.62427 0.0
O137 O 0.83828 0.87213 0.5921 0.0
O138 O 0.8004 0.7739 0.64335 0.0
O139 O 0.80167 0.7609 0.60995 0.0
O140 O 0.87892 0.98581 0.34782 0.0
Cd141 Cd 0.89738 0.03476 0.3325 0.0
Cd142 Cd 0.93544 0.0406 0.37161 0.0
O143 O 0.91333 0.98628 0.37649 0.0
O144 O 0.86939 0.02745 0.30592 0.0
O145 O 0.93294 0.02737 0.30777 0.0
C146 C 0.9021 0.02324 0.29679 0.0
C147 C 0.99974 0.05598 0.37849 0.0
C148 C 0.88883 0.97013 0.36472 0.0
C149 C 0.87811 0.10246 0.36046 0.0
O150 O 0.89781 0.08612 0.37449 0.0
O151 O 0.87687 0.08832 0.34234 0.0
O152 O 0.9754 0.04989 0.39319 0.0
O153 O 0.9879 0.05143 0.35973 0.0
O154 O 0.76421 0.12952 0.09798 0.0
Cd155 Cd 0.71523 0.14769 0.08259 0.0
Cd156 Cd 0.70905 0.18568 0.12182 0.0
O157 O 0.7634 0.16365 0.12674 0.0
O158 O 0.72278 0.11946 0.0561 0.0
O159 O 0.72258 0.18301 0.05776 0.0
C160 C 0.72689 0.15209 0.04687 0.0
C161 C 0.69362 0.24992 0.12882 0.0
C162 C 0.77974 0.13936 0.11493 0.0
C163 C 0.64741 0.1282 0.11046 0.0
O164 O 0.66355 0.14796 0.12454 0.0
O165 O 0.66171 0.127 0.09238 0.0
O166 O 0.6996 0.22546 0.14348 0.0
O167 O 0.69825 0.23823 0.11005 0.0
O168 O 0.61988 0.98583 0.65967 0.0
Cd169 Cd 0.60192 0.03478 0.67514 0.0
Cd170 Cd 0.56392 0.04137 0.63588 0.0
O171 O 0.58595 0.98707 0.63084 0.0
O172 O 0.63017 0.02701 0.70161 0.0
O173 O 0.56661 0.02753 0.69999 0.0
C174 C 0.59755 0.02306 0.71086 0.0
C175 C 0.49965 0.05679 0.62892 0.0
C176 C 0.61011 0.97052 0.64265 0.0
C177 C 0.62163 0.10273 0.64738 0.0
O178 O 0.6017 0.08684 0.63329 0.0
O179 O 0.62288 0.08823 0.66542 0.0
O180 O 0.52413 0.051 0.61425 0.0
O181 O 0.51135 0.05201 0.64768 0.0
O182 O 0.76307 0.86966 0.40964 0.0
Cd183 Cd 0.71413 0.85166 0.42512 0.0
Cd184 Cd 0.70758 0.81356 0.38598 0.0
O185 O 0.76185 0.83563 0.38085 0.0
O186 O 0.72195 0.87983 0.4516 0.0
O187 O 0.72145 0.81628 0.44993 0.0
C188 C 0.72595 0.84718 0.46082 0.0
C189 C 0.69225 0.74921 0.37921 0.0
C190 C 0.77838 0.85985 0.39262 0.0
C191 C 0.64618 0.87128 0.39736 0.0
O192 O 0.66207 0.85127 0.38331 0.0
O193 O 0.66067 0.87263 0.4154 0.0
O194 O 0.69797 0.77355 0.36447 0.0
O195 O 0.69703 0.7611 0.39793 0.0
O196 O 0.88046 0.01368 0.15974 0.0
Cd197 Cd 0.89841 0.96473 0.17521 0.0
Cd198 Cd 0.93634 0.95816 0.13593 0.0
O199 O 0.91433 0.01248 0.13089 0.0
O200 O 0.87006 0.97254 0.20164 0.0
O201 O 0.93362 0.97203 0.2001 0.0
C202 C 0.90264 0.97653 0.21093 0.0
C203 C 0.00059 0.94271 0.12895 0.0
C204 C 0.8902 0.02901 0.14272 0.0
C205 C 0.87864 0.8968 0.14745 0.0
O206 O 0.89852 0.91272 0.13335 0.0
O207 O 0.87746 0.91128 0.16549 0.0
O208 O 0.9761 0.94852 0.11429 0.0
O209 O 0.98891 0.94748 0.14771 0.0
O210 O 0.73629 0.12942 0.90988 0.0
Cd211 Cd 0.78527 0.14749 0.92531 0.0
Cd212 Cd 0.79151 0.18584 0.88625 0.0
O213 O 0.73722 0.16379 0.8812 0.0
O214 O 0.77767 0.11932 0.9518 0.0
O215 O 0.77799 0.18287 0.95011 0.0
C216 C 0.77363 0.15197 0.96102 0.0
C217 C 0.8068 0.2502 0.87948 0.0
C218 C 0.72083 0.13939 0.89293 0.0
C219 C 0.8531 0.12818 0.89742 0.0
O220 O 0.83704 0.14819 0.88342 0.0
O221 O 0.83875 0.12673 0.91549 0.0
O222 O 0.80093 0.22589 0.86474 0.0
O223 O 0.80216 0.23827 0.89821 0.0
O224 O 0.87989 0.48623 0.66052 0.0
Cd225 Cd 0.89787 0.53526 0.67592 0.0
Cd226 Cd 0.93622 0.54146 0.63677 0.0
O227 O 0.91423 0.48712 0.63182 0.0
O228 O 0.86963 0.52766 0.7024 0.0
O229 O 0.9332 0.52806 0.70076 0.0
C230 C 0.90227 0.52367 0.71164 0.0
C231 C 0.00047 0.55684 0.62973 0.0
C232 C 0.88987 0.47073 0.64358 0.0
C233 C 0.8784 0.60295 0.64797 0.0
O234 O 0.89843 0.58688 0.63398 0.0
O235 O 0.87701 0.58867 0.66606 0.0
O236 O 0.97596 0.55087 0.61509 0.0
O237 O 0.98881 0.55226 0.64851 0.0
O238 O 0.76346 0.63002 0.91036 0.0
Cd239 Cd 0.71441 0.6481 0.92571 0.0
Cd240 Cd 0.70822 0.68607 0.88646 0.0
O241 O 0.76258 0.66405 0.88157 0.0
O242 O 0.72193 0.61991 0.95221 0.0
O243 O 0.72158 0.68346 0.95055 0.0
C244 C 0.72592 0.65255 0.96144 0.0
C245 C 0.69284 0.7503 0.87942 0.0
C246 C 0.77897 0.63983 0.8934 0.0
C247 C 0.64669 0.62843 0.89779 0.0
O248 O 0.66277 0.64829 0.88374 0.0
O249 O 0.66098 0.62723 0.91588 0.0
O250 O 0.6988 0.72581 0.86478 0.0
O251 O 0.69743 0.73864 0.8982 0.0
O252 O 0.62015 0.51323 0.1604 0.0
Cd253 Cd 0.60212 0.46416 0.17575 0.0
Cd254 Cd 0.56394 0.45798 0.1366 0.0
O255 O 0.58592 0.51233 0.13167 0.0
O256 O 0.63024 0.47169 0.20227 0.0
O257 O 0.56668 0.47128 0.20055 0.0
C258 C 0.59757 0.47563 0.21148 0.0
C259 C 0.49964 0.4426 0.12966 0.0
C260 C 0.61023 0.52873 0.14345 0.0
C261 C 0.62167 0.39646 0.14782 0.0
O262 O 0.6017 0.41253 0.13381 0.0
O263 O 0.623 0.41076 0.1659 0.0
O264 O 0.52407 0.44856 0.11499 0.0
O265 O 0.51141 0.44719 0.14843 0.0
O266 O 0.73633 0.36979 0.41043 0.0
Cd267 Cd 0.78544 0.35193 0.4258 0.0
Cd268 Cd 0.7917 0.31367 0.38662 0.0
O269 O 0.7373 0.33558 0.3817 0.0
O270 O 0.77783 0.38014 0.45229 0.0
O271 O 0.77838 0.31659 0.45065 0.0
C272 C 0.77394 0.34751 0.46153 0.0
C273 C 0.80711 0.24943 0.37957 0.0
C274 C 0.72085 0.35984 0.39348 0.0
C275 C 0.85309 0.37157 0.39785 0.0
O276 O 0.83708 0.35151 0.38385 0.0
O277 O 0.83879 0.37292 0.41593 0.0
O278 O 0.80115 0.27394 0.36494 0.0
O279 O 0.80254 0.26108 0.39835 0.0
O280 O 0.87966 0.51407 0.84865 0.0
Cd281 Cd 0.89778 0.46515 0.8332 0.0
Cd282 Cd 0.93574 0.45876 0.87242 0.0
O283 O 0.91371 0.51307 0.87744 0.0
O284 O 0.86959 0.47283 0.80671 0.0
O285 O 0.93315 0.47253 0.80839 0.0
C286 C 0.90223 0.47691 0.7975 0.0
C287 C 2e-05 0.44326 0.87927 0.0
C288 C 0.88946 0.5295 0.86564 0.0
C289 C 0.8782 0.39724 0.861 0.0
O290 O 0.89799 0.41328 0.87509 0.0
O291 O 0.87701 0.41163 0.84293 0.0
O292 O 0.97567 0.44916 0.89398 0.0
O293 O 0.9882 0.44802 0.86052 0.0
O294 O 0.73552 0.62975 0.09851 0.0
Cd295 Cd 0.78436 0.64799 0.08302 0.0
Cd296 Cd 0.79083 0.68591 0.1222 0.0
O297 O 0.73656 0.6638 0.12729 0.0
O298 O 0.77664 0.61985 0.05653 0.0
O299 O 0.77688 0.68339 0.05823 0.0
C300 C 0.77251 0.65249 0.04732 0.0
C301 C 0.80631 0.75019 0.129 0.0
C302 C 0.72014 0.63951 0.11552 0.0
C303 C 0.85239 0.62846 0.11074 0.0
O304 O 0.83636 0.64822 0.12485 0.0
O305 O 0.83795 0.62726 0.09269 0.0
O306 O 0.80048 0.72586 0.14373 0.0
O307 O 0.80148 0.73835 0.11027 0.0
O308 O 0.61986 0.48513 0.34856 0.0
Cd309 Cd 0.60164 0.53398 0.33307 0.0
Cd310 Cd 0.5637 0.54041 0.37227 0.0
O311 O 0.58577 0.48613 0.37733 0.0
O312 O 0.6299 0.52629 0.30661 0.0
O313 O 0.56634 0.52647 0.30824 0.0
C314 C 0.59729 0.52214 0.29737 0.0
C315 C 0.49942 0.55591 0.37909 0.0
C316 C 0.61007 0.46972 0.36555 0.0
C317 C 0.62111 0.602 0.36081 0.0
O318 O 0.60141 0.58592 0.37493 0.0
O319 O 0.62228 0.58758 0.34275 0.0
O320 O 0.52376 0.55003 0.39382 0.0
O321 O 0.51125 0.55111 0.36036 0.0
O322 O 0.76435 0.37011 0.59857 0.0
Cd323 Cd 0.71548 0.35191 0.5831 0.0
Cd324 Cd 0.70914 0.31377 0.62221 0.0
O325 O 0.76341 0.33585 0.62729 0.0
O326 O 0.72312 0.38011 0.55661 0.0
O327 O 0.72295 0.31656 0.55829 0.0
C328 C 0.72728 0.34747 0.5474 0.0
C329 C 0.69375 0.24945 0.62897 0.0
C330 C 0.77979 0.36023 0.61555 0.0
C331 C 0.6475 0.37122 0.61089 0.0
O332 O 0.66359 0.35141 0.62495 0.0
O333 O 0.66189 0.37253 0.59282 0.0
O334 O 0.69961 0.27374 0.64372 0.0
O335 O 0.69849 0.26136 0.61024 0.0
O336 O 0.11999 0.51432 0.34788 0.0
Cd337 Cd 0.10166 0.46544 0.33246 0.0
Cd338 Cd 0.06366 0.45927 0.37168 0.0
O339 O 0.08579 0.51356 0.37662 0.0
O340 O 0.12984 0.47295 0.30595 0.0
O341 O 0.06628 0.4729 0.30766 0.0
C342 C 0.0972 0.47714 0.29675 0.0
C343 C 0.99942 0.44388 0.37873 0.0
C344 C 0.11016 0.52985 0.36483 0.0
C345 C 0.12102 0.39754 0.36029 0.0
O346 O 0.10132 0.41372 0.37438 0.0
O347 O 0.12223 0.41185 0.34221 0.0
O348 O 0.02393 0.44984 0.39337 0.0
O349 O 0.01105 0.44852 0.35995 0.0
O350 O 0.23595 0.37009 0.09821 0.0
Cd351 Cd 0.28494 0.35184 0.08286 0.0
Cd352 Cd 0.29098 0.31385 0.12203 0.0
O353 O 0.23664 0.33591 0.12696 0.0
O354 O 0.27748 0.37998 0.05635 0.0
O355 O 0.2776 0.31644 0.05807 0.0
C356 C 0.27334 0.34733 0.04715 0.0
C357 C 0.30637 0.24955 0.12885 0.0
C358 C 0.22036 0.36025 0.11515 0.0
C359 C 0.3527 0.37128 0.11079 0.0
O360 O 0.33649 0.35153 0.12484 0.0
O361 O 0.33846 0.3725 0.09269 0.0
O362 O 0.30038 0.27386 0.14357 0.0
O363 O 0.30176 0.26143 0.11011 0.0
O364 O 0.37973 0.48551 0.8482 0.0
Cd365 Cd 0.39789 0.53437 0.83271 0.0
Cd366 Cd 0.4359 0.54082 0.87194 0.0
O367 O 0.41383 0.48653 0.87697 0.0
O368 O 0.36967 0.52666 0.80624 0.0
O369 O 0.43323 0.52692 0.80789 0.0
C370 C 0.4023 0.52254 0.79701 0.0
C371 C 0.50014 0.5563 0.87892 0.0
C372 C 0.38954 0.47011 0.86519 0.0
C373 C 0.37837 0.60234 0.86047 0.0
O374 O 0.39816 0.58631 0.87457 0.0
O375 O 0.37716 0.58793 0.84241 0.0
O376 O 0.47568 0.55042 0.89358 0.0
O377 O 0.48846 0.55153 0.86015 0.0
O378 O 0.26405 0.62906 0.59807 0.0
Cd379 Cd 0.2151 0.64734 0.58268 0.0
Cd380 Cd 0.20907 0.68557 0.62176 0.0
O381 O 0.26338 0.66347 0.62673 0.0
O382 O 0.22253 0.61927 0.55614 0.0
O383 O 0.22244 0.68281 0.55792 0.0
C384 C 0.22665 0.65194 0.54697 0.0
C385 C 0.19372 0.74987 0.62859 0.0
C386 C 0.27963 0.639 0.61499 0.0
C387 C 0.14733 0.62808 0.61061 0.0
O388 O 0.16355 0.64793 0.62462 0.0
O389 O 0.16156 0.62673 0.59252 0.0
O390 O 0.19971 0.72555 0.64331 0.0
O391 O 0.19831 0.738 0.60985 0.0
O392 O 0.11976 0.48621 0.15979 0.0
Cd393 Cd 0.10171 0.53526 0.17514 0.0
Cd394 Cd 0.06373 0.54148 0.13596 0.0
O395 O 0.08571 0.48713 0.131 0.0
O396 O 0.12989 0.52768 0.20164 0.0
O397 O 0.06633 0.5281 0.19997 0.0
C398 C 0.09724 0.52372 0.21087 0.0
C399 C 0.99941 0.5569 0.12918 0.0
C400 C 0.10995 0.47073 0.14282 0.0
C401 C 0.12142 0.60297 0.14724 0.0
O402 O 0.10152 0.58691 0.13319 0.0
O403 O 0.12264 0.58866 0.16532 0.0
O404 O 0.02371 0.55098 0.11444 0.0
O405 O 0.01132 0.55224 0.14792 0.0
O406 O 0.26365 0.36973 0.91015 0.0
Cd407 Cd 0.21471 0.35165 0.9256 0.0
Cd408 Cd 0.20825 0.31362 0.88635 0.0
O409 O 0.26255 0.33571 0.88135 0.0
O410 O 0.22244 0.37987 0.95208 0.0
O411 O 0.22207 0.31632 0.95043 0.0
C412 C 0.22649 0.34724 0.96131 0.0
C413 C 0.19293 0.24938 0.87927 0.0
C414 C 0.27903 0.35994 0.89315 0.0
C415 C 0.14675 0.37121 0.89783 0.0
O416 O 0.16272 0.35134 0.88375 0.0
O417 O 0.16121 0.37248 0.91588 0.0
O418 O 0.19874 0.27394 0.86465 0.0
O419 O 0.19763 0.26098 0.89806 0.0
O420 O 0.37975 0.51309 0.66001 0.0
Cd421 Cd 0.39774 0.4641 0.67545 0.0
Cd422 Cd 0.43607 0.45778 0.63636 0.0
O423 O 0.41406 0.51207 0.63131 0.0
O424 O 0.36954 0.47176 0.70194 0.0
O425 O 0.43311 0.47134 0.70027 0.0
C426 C 0.40219 0.47575 0.71116 0.0
C427 C 0.5004 0.44243 0.62952 0.0
C428 C 0.38971 0.52851 0.64304 0.0
C429 C 0.3783 0.3963 0.64757 0.0
O430 O 0.39834 0.41231 0.63357 0.0
O431 O 0.37688 0.41067 0.66564 0.0
O432 O 0.47603 0.4483 0.61481 0.0
O433 O 0.48855 0.44708 0.64826 0.0
O434 O 0.23595 0.63017 0.40985 0.0
Cd435 Cd 0.28492 0.64803 0.42536 0.0
Cd436 Cd 0.29158 0.68617 0.38615 0.0
O437 O 0.23729 0.66414 0.38104 0.0
O438 O 0.27707 0.61971 0.45179 0.0
O439 O 0.27768 0.68326 0.45024 0.0
C440 C 0.27315 0.6523 0.46107 0.0
C441 C 0.30695 0.75045 0.37922 0.0
C442 C 0.22069 0.63998 0.39282 0.0
C443 C 0.3529 0.62837 0.39761 0.0
O444 O 0.33707 0.6484 0.38354 0.0
O445 O 0.33836 0.62704 0.41564 0.0
O446 O 0.30122 0.72598 0.36454 0.0
O447 O 0.30217 0.73872 0.39797 0.0
C448 C 0.43835 0.99424 0.26432 0.0
C449 C 0.40326 0.98799 0.27479 0.0
H450 H 0.46577 0.01055 0.23587 0.0
C451 C 0.3684 0.99398 0.26414 0.0
H452 H 0.4657 0.99006 0.27213 0.0
C453 C 0.36844 0.00595 0.24363 0.0
C454 C 0.40334 0.01218 0.23306 0.0
H455 H 0.3408 0.98965 0.27168 0.0
H456 H 0.34087 0.01009 0.23603 0.0
C457 C 0.43839 0.00617 0.24361 0.0
C458 C 0.25528 0.18839 0.5141 0.0
C459 C 0.26166 0.1533 0.52454 0.0
H460 H 0.23868 0.21583 0.4857 0.0
C461 C 0.25554 0.11846 0.51391 0.0
H462 H 0.25955 0.21573 0.5219 0.0
C463 C 0.24335 0.11851 0.49343 0.0
C464 C 0.237 0.15341 0.48289 0.0
H465 H 0.25996 0.09086 0.52143 0.0
H466 H 0.23912 0.09096 0.48584 0.0
C467 C 0.24313 0.18845 0.49343 0.0
C468 C 0.06149 0.00562 0.76402 0.0
C469 C 0.09657 0.01196 0.77447 0.0
H470 H 0.03408 0.98908 0.73559 0.0
C471 C 0.13144 0.00589 0.76385 0.0
H472 H 0.03413 0.00985 0.77181 0.0
C473 C 0.13141 0.99376 0.74336 0.0
C474 C 0.09651 0.98742 0.7328 0.0
H475 H 0.15903 0.01029 0.77138 0.0
H476 H 0.15898 0.98956 0.73577 0.0
C477 C 0.06146 0.99352 0.74333 0.0
C478 C 0.25627 0.81113 0.99328 0.0
C479 C 0.26234 0.84619 0.98276 0.0
H480 H 0.24009 0.78379 0.02178 0.0
C481 C 0.25618 0.88107 0.99336 0.0
H482 H 0.26059 0.78376 0.98552 0.0
C483 C 0.24421 0.88108 0.01387 0.0
C484 C 0.23814 0.84621 0.02449 0.0
H485 H 0.26038 0.90864 0.98577 0.0
H486 H 0.23993 0.90866 0.02143 0.0
C487 C 0.24433 0.81115 0.014 0.0
C488 C 0.56143 0.9939 0.76418 0.0
C489 C 0.5965 0.98765 0.77466 0.0
H490 H 0.53403 0.01025 0.73572 0.0
C491 C 0.63137 0.99368 0.76403 0.0
H492 H 0.53407 0.98968 0.77197 0.0
C493 C 0.63135 0.00569 0.74352 0.0
C494 C 0.59646 0.01192 0.73294 0.0
H495 H 0.65896 0.98935 0.77158 0.0
H496 H 0.65892 0.00987 0.73593 0.0
C497 C 0.5614 0.00587 0.74347 0.0
C498 C 0.74326 0.81096 0.4934 0.0
C499 C 0.73721 0.84604 0.48289 0.0
H500 H 0.75955 0.78355 0.52186 0.0
C501 C 0.74357 0.88089 0.49347 0.0
H502 H 0.73878 0.78361 0.48564 0.0
C503 C 0.7557 0.88086 0.51396 0.0
C504 C 0.76172 0.84597 0.52457 0.0
H505 H 0.73941 0.90848 0.4859 0.0
H506 H 0.76013 0.90843 0.52151 0.0
C507 C 0.75534 0.81093 0.51409 0.0
C508 C 0.86856 0.00628 0.26399 0.0
C509 C 0.90337 0.01213 0.2747 0.0
H510 H 0.84114 0.99018 0.23584 0.0
C511 C 0.9385 0.00567 0.26431 0.0
H512 H 0.84093 0.01079 0.27147 0.0
C513 C 0.93862 0.99365 0.24361 0.0
C514 C 0.90362 0.98775 0.233 0.0
H515 H 0.96582 0.00974 0.27216 0.0
H516 H 0.96604 0.9891 0.23593 0.0
C517 C 0.86868 0.99422 0.24349 0.0
C518 C 0.7563 0.18819 0.99358 0.0
C519 C 0.76247 0.15311 0.9831 0.0
H520 H 0.73996 0.21559 0.02204 0.0
C521 C 0.7563 0.11826 0.99371 0.0
H522 H 0.76062 0.21554 0.98581 0.0
C523 C 0.74423 0.11828 0.01421 0.0
C524 C 0.73807 0.15317 0.02479 0.0
H525 H 0.76057 0.09067 0.98615 0.0
H526 H 0.73995 0.09072 0.02178 0.0
C527 C 0.74427 0.18822 0.01428 0.0
C528 C 0.93843 0.50635 0.74423 0.0
C529 C 0.90337 0.51253 0.73373 0.0
H530 H 0.96579 0.49 0.7727 0.0
C531 C 0.86849 0.50636 0.74432 0.0
H532 H 0.96581 0.51067 0.73647 0.0
C533 C 0.86848 0.49429 0.76482 0.0
C534 C 0.90335 0.48812 0.77542 0.0
H535 H 0.84091 0.51064 0.73675 0.0
H536 H 0.84089 0.49001 0.77238 0.0
C537 C 0.93842 0.49431 0.76493 0.0
C538 C 0.75518 0.6887 0.01475 0.0
C539 C 0.7613 0.65363 0.02525 0.0
H540 H 0.73894 0.71608 0.98627 0.0
C541 C 0.75509 0.61877 0.01465 0.0
H542 H 0.75953 0.71606 0.02252 0.0
C543 C 0.74307 0.61878 0.99415 0.0
C544 C 0.73699 0.65366 0.98354 0.0
H545 H 0.75932 0.59118 0.02222 0.0
H546 H 0.73877 0.59121 0.98658 0.0
C547 C 0.74319 0.68871 0.99404 0.0
C548 C 0.56121 0.50479 0.26475 0.0
C549 C 0.59624 0.51095 0.27529 0.0
H550 H 0.53393 0.48855 0.23624 0.0
C551 C 0.63116 0.50478 0.26472 0.0
H552 H 0.53382 0.50911 0.2725 0.0
C553 C 0.63122 0.49278 0.24422 0.0
C554 C 0.59638 0.48668 0.23358 0.0
H555 H 0.65871 0.50903 0.27232 0.0
H556 H 0.65883 0.48852 0.23667 0.0
C557 C 0.56128 0.49283 0.24405 0.0
C558 C 0.74475 0.31132 0.51483 0.0
C559 C 0.73848 0.34637 0.52532 0.0
H560 H 0.76113 0.28396 0.48637 0.0
C561 C 0.74456 0.38125 0.51471 0.0
H562 H 0.7405 0.28395 0.52261 0.0
C563 C 0.75661 0.38126 0.49421 0.0
C564 C 0.76284 0.34639 0.48362 0.0
H565 H 0.74022 0.40882 0.52227 0.0
H566 H 0.76081 0.40884 0.48664 0.0
C567 C 0.75676 0.31133 0.49413 0.0
C568 C 0.13097 0.49434 0.26405 0.0
C569 C 0.09608 0.4883 0.27466 0.0
H570 H 0.15857 0.51055 0.23598 0.0
C571 C 0.06102 0.49457 0.26417 0.0
H572 H 0.15855 0.49 0.27161 0.0
C573 C 0.06104 0.50655 0.24347 0.0
C574 C 0.09611 0.51261 0.23296 0.0
H575 H 0.03365 0.49034 0.27195 0.0
H576 H 0.03367 0.51093 0.2357 0.0
C577 C 0.13098 0.50637 0.24355 0.0
C578 C 0.25588 0.31112 0.0146 0.0
C579 C 0.26218 0.34619 0.02507 0.0
H580 H 0.23941 0.28372 0.98616 0.0
C581 C 0.25611 0.38105 0.01444 0.0
H582 H 0.26012 0.28376 0.02239 0.0
C583 C 0.24401 0.38103 0.99395 0.0
C584 C 0.23772 0.34615 0.98338 0.0
H585 H 0.26047 0.40863 0.02199 0.0
H586 H 0.2398 0.4086 0.98637 0.0
C587 C 0.24382 0.3111 0.9939 0.0
C588 C 0.43844 0.50511 0.76443 0.0
C589 C 0.40339 0.51132 0.77494 0.0
H590 H 0.46577 0.48874 0.73596 0.0
C591 C 0.36849 0.50515 0.76435 0.0
H592 H 0.46582 0.50942 0.77219 0.0
C593 C 0.36847 0.49308 0.74385 0.0
C594 C 0.40333 0.4869 0.73325 0.0
H595 H 0.34092 0.50945 0.77192 0.0
H596 H 0.34088 0.48882 0.73629 0.0
C597 C 0.43841 0.49307 0.74374 0.0
C598 C 0.24361 0.61833 0.51419 0.0
C599 C 0.23772 0.65316 0.52487 0.0
H600 H 0.25968 0.59086 0.48605 0.0
C601 C 0.2441 0.68826 0.51445 0.0
H602 H 0.23917 0.59072 0.5217 0.0
C603 C 0.25607 0.68834 0.49374 0.0
C604 C 0.26199 0.65332 0.48316 0.0
H605 H 0.24 0.71559 0.52228 0.0
H606 H 0.26055 0.71573 0.48603 0.0
C607 C 0.25561 0.61841 0.49368 0.0
C608 C 0.3483 0.91309 0.14984 0.0
C609 C 0.36876 0.936 0.13566 0.0
H610 H 0.30453 0.87018 0.15428 0.0
C611 C 0.36431 0.92886 0.11448 0.0
H612 H 0.35145 0.91772 0.16628 0.0
C613 C 0.33707 0.90199 0.10761 0.0
C614 C 0.31432 0.88135 0.1218 0.0
H615 H 0.37974 0.94599 0.10318 0.0
H616 H 0.33237 0.8989 0.09118 0.0
C617 C 0.32153 0.88574 0.14297 0.0
C618 C 0.33602 0.09862 0.39988 0.0
C619 C 0.31311 0.11896 0.38563 0.0
H620 H 0.37896 0.05493 0.40443 0.0
C621 C 0.3203 0.11436 0.36447 0.0
H622 H 0.33135 0.10189 0.4163 0.0
C623 C 0.34721 0.08709 0.35768 0.0
C624 C 0.36784 0.06446 0.37193 0.0
H625 H 0.30318 0.12968 0.35313 0.0
H626 H 0.35034 0.08227 0.34126 0.0
C627 C 0.36341 0.07183 0.39308 0.0
C628 C 0.15155 0.08622 0.64969 0.0
C629 C 0.13116 0.06331 0.63547 0.0
H630 H 0.19531 0.12909 0.6542 0.0
C631 C 0.13575 0.07043 0.6143 0.0
H632 H 0.14829 0.08159 0.66612 0.0
C633 C 0.16306 0.09728 0.60748 0.0
C634 C 0.18573 0.11791 0.62171 0.0
H635 H 0.12039 0.0533 0.60298 0.0
H636 H 0.16786 0.10036 0.59106 0.0
C637 C 0.17837 0.11354 0.64287 0.0
C638 C 0.15211 0.91293 0.85743 0.0
C639 C 0.13151 0.93564 0.87165 0.0
H640 H 0.19602 0.87019 0.85294 0.0
C641 C 0.13586 0.9283 0.89281 0.0
H642 H 0.14904 0.91772 0.841 0.0
C643 C 0.16314 0.90144 0.89964 0.0
C644 C 0.18602 0.88101 0.88543 0.0
H645 H 0.12032 0.94527 0.90413 0.0
H646 H 0.16776 0.8982 0.91607 0.0
C647 C 0.17891 0.88558 0.86426 0.0
C648 C 0.66335 0.09777 0.9 0.0
C649 C 0.6862 0.11831 0.88581 0.0
H650 H 0.62048 0.05397 0.90442 0.0
C651 C 0.67901 0.11392 0.86464 0.0
H652 H 0.66803 0.10087 0.91643 0.0
C653 C 0.65215 0.08667 0.85777 0.0
C654 C 0.63155 0.06387 0.87195 0.0
H655 H 0.6961 0.12939 0.85334 0.0
H656 H 0.64901 0.08202 0.84133 0.0
C657 C 0.63599 0.07102 0.89313 0.0
C658 C 0.63577 0.92873 0.61439 0.0
C659 C 0.6312 0.93588 0.63556 0.0
H660 H 0.66783 0.89876 0.59115 0.0
C661 C 0.65158 0.91296 0.64978 0.0
H662 H 0.62042 0.94587 0.60307 0.0
C663 C 0.67838 0.8856 0.64296 0.0
C664 C 0.68571 0.88121 0.6218 0.0
H665 H 0.64834 0.91759 0.66621 0.0
H666 H 0.69531 0.87004 0.65429 0.0
C667 C 0.66305 0.90185 0.60757 0.0
C668 C 0.81994 0.88571 0.36433 0.0
C669 C 0.81298 0.88097 0.3855 0.0
H670 H 0.84976 0.91792 0.34109 0.0
C671 C 0.83603 0.90122 0.39972 0.0
H672 H 0.8027 0.87046 0.35301 0.0
C673 C 0.86335 0.92804 0.39289 0.0
C674 C 0.86759 0.93553 0.37174 0.0
H675 H 0.83151 0.89786 0.41615 0.0
H676 H 0.87903 0.94486 0.40422 0.0
C677 C 0.84679 0.91301 0.35751 0.0
C678 C 0.83707 0.09762 0.1077 0.0
C679 C 0.81441 0.11822 0.12195 0.0
H680 H 0.87976 0.05369 0.10315 0.0
C681 C 0.82183 0.11384 0.1431 0.0
H682 H 0.83223 0.10072 0.09128 0.0
C683 C 0.84871 0.08654 0.1499 0.0
C684 C 0.86907 0.06365 0.13565 0.0
H685 H 0.80491 0.12937 0.15445 0.0
H686 H 0.85201 0.0819 0.16632 0.0
C687 C 0.86442 0.0708 0.11449 0.0
C688 C 0.82147 0.38593 0.64384 0.0
C689 C 0.81435 0.38142 0.62266 0.0
H690 H 0.85131 0.41802 0.66712 0.0
C691 C 0.8372 0.40194 0.60847 0.0
H692 H 0.80439 0.37046 0.65514 0.0
C693 C 0.86445 0.42881 0.61532 0.0
C694 C 0.86881 0.43608 0.63649 0.0
H695 H 0.83258 0.39875 0.59204 0.0
H696 H 0.87995 0.44584 0.60401 0.0
C697 C 0.84824 0.41328 0.65069 0.0
C698 C 0.8637 0.57132 0.89385 0.0
C699 C 0.86831 0.56412 0.87269 0.0
H700 H 0.83153 0.60128 0.91706 0.0
C701 C 0.84789 0.58696 0.85844 0.0
H702 H 0.87908 0.55425 0.90519 0.0
C703 C 0.82102 0.61426 0.86523 0.0
C704 C 0.81364 0.6187 0.88638 0.0
H705 H 0.85116 0.58228 0.84202 0.0
H706 H 0.80407 0.62975 0.85388 0.0
C707 C 0.83635 0.59815 0.90064 0.0
C708 C 0.66275 0.59779 0.10841 0.0
C709 C 0.68561 0.61825 0.12262 0.0
H710 H 0.62004 0.55385 0.10392 0.0
C711 C 0.67857 0.6136 0.14379 0.0
H712 H 0.66732 0.60108 0.09198 0.0
C713 C 0.65185 0.58617 0.15063 0.0
C714 C 0.63127 0.56343 0.1364 0.0
H715 H 0.69567 0.62902 0.15511 0.0
H716 H 0.64884 0.58133 0.16705 0.0
C717 C 0.63555 0.57084 0.11525 0.0
C718 C 0.67877 0.38517 0.36527 0.0
C719 C 0.68612 0.38083 0.38643 0.0
H720 H 0.64857 0.41698 0.34201 0.0
C721 C 0.66333 0.40135 0.40065 0.0
H722 H 0.69579 0.36969 0.35394 0.0
C723 C 0.6359 0.42807 0.39382 0.0
C724 C 0.63131 0.43518 0.37265 0.0
H725 H 0.66813 0.39829 0.41707 0.0
H726 H 0.62045 0.44512 0.40514 0.0
C727 C 0.65182 0.41236 0.35843 0.0
C728 C 0.15214 0.58704 0.35768 0.0
C729 C 0.1314 0.56443 0.37189 0.0
H730 H 0.19622 0.62962 0.35321 0.0
C731 C 0.1357 0.57181 0.39305 0.0
H732 H 0.14912 0.58222 0.34126 0.0
C733 C 0.16304 0.59859 0.3999 0.0
C734 C 0.18606 0.61892 0.3857 0.0
H735 H 0.12006 0.55492 0.40437 0.0
H736 H 0.1676 0.60186 0.41633 0.0
C737 C 0.17901 0.61431 0.36452 0.0
C738 C 0.17833 0.38592 0.1433 0.0
C739 C 0.1857 0.38142 0.12215 0.0
H740 H 0.1482 0.41799 0.16648 0.0
C741 C 0.16302 0.40195 0.10788 0.0
H742 H 0.19528 0.37045 0.15466 0.0
C743 C 0.13568 0.42881 0.11464 0.0
C744 C 0.13107 0.43606 0.1358 0.0
H745 H 0.16784 0.39876 0.09146 0.0
H746 H 0.12031 0.44585 0.10328 0.0
C747 C 0.15147 0.41326 0.15006 0.0
C748 C 0.34781 0.41273 0.85807 0.0
C749 C 0.36834 0.43553 0.87228 0.0
H750 H 0.3039 0.36999 0.85358 0.0
C751 C 0.36383 0.42836 0.89345 0.0
H752 H 0.35101 0.41739 0.84164 0.0
C753 C 0.33648 0.40158 0.90029 0.0
C754 C 0.31367 0.38105 0.88607 0.0
H755 H 0.3793 0.44541 0.90477 0.0
H756 H 0.33175 0.39846 0.91671 0.0
C757 C 0.32094 0.38547 0.86491 0.0
C758 C 0.34821 0.58607 0.65011 0.0
C759 C 0.36864 0.56314 0.63592 0.0
H760 H 0.30448 0.629 0.65456 0.0
C761 C 0.36415 0.57025 0.61475 0.0
H762 H 0.35139 0.58145 0.66654 0.0
C763 C 0.3369 0.59712 0.60789 0.0
C764 C 0.31419 0.61779 0.62208 0.0
H765 H 0.37954 0.5531 0.60345 0.0
H766 H 0.33216 0.60019 0.59146 0.0
C767 C 0.32145 0.61342 0.64325 0.0
C768 C 0.35376 0.15177 0.12213 0.0
C769 C 0.35717 0.13901 0.14266 0.0
H770 H 0.33451 0.19629 0.10164 0.0
C771 C 0.34108 0.16169 0.15845 0.0
H772 H 0.36552 0.13486 0.10955 0.0
C773 C 0.32339 0.19703 0.15388 0.0
C774 C 0.32106 0.21028 0.13341 0.0
H775 H 0.34306 0.15267 0.1744 0.0
H776 H 0.31227 0.21435 0.16646 0.0
C777 C 0.33577 0.1869 0.11755 0.0
C778 C 0.08743 0.09087 0.40818 0.0
C779 C 0.11011 0.10704 0.39242 0.0
H780 H 0.03482 0.06188 0.41613 0.0
C781 C 0.09744 0.10362 0.37188 0.0
H782 H 0.09639 0.09285 0.42414 0.0
C783 C 0.06237 0.08552 0.36726 0.0
C784 C 0.03898 0.07073 0.38309 0.0
H785 H 0.11435 0.11544 0.35932 0.0
H786 H 0.05304 0.08426 0.35134 0.0
C787 C 0.05215 0.07307 0.40357 0.0
C788 C 0.14632 0.84766 0.62189 0.0
C789 C 0.14285 0.86036 0.64243 0.0
H790 H 0.16564 0.8032 0.60139 0.0
C791 C 0.15891 0.83767 0.65821 0.0
H792 H 0.13458 0.86458 0.60932 0.0
C793 C 0.17664 0.80234 0.65364 0.0
C794 C 0.17902 0.78914 0.63316 0.0
H795 H 0.15689 0.84664 0.67417 0.0
H796 H 0.18774 0.785 0.66621 0.0
C797 C 0.16434 0.81254 0.61731 0.0
C798 C 0.43682 0.91397 0.86714 0.0
C799 C 0.46026 0.92863 0.88298 0.0
H800 H 0.38474 0.88424 0.85917 0.0
C801 C 0.44708 0.92626 0.90346 0.0
H802 H 0.44615 0.91526 0.85122 0.0
C803 C 0.41175 0.90856 0.90806 0.0
C804 C 0.38901 0.89252 0.89228 0.0
H805 H 0.46446 0.93735 0.91603 0.0
H806 H 0.4028 0.90655 0.92402 0.0
C807 C 0.40169 0.89597 0.87174 0.0
C808 C 0.32398 0.80282 0.3541 0.0
C809 C 0.32144 0.78978 0.3746 0.0
H810 H 0.34358 0.84713 0.33353 0.0
C811 C 0.33569 0.81345 0.39045 0.0
H812 H 0.31321 0.78527 0.34153 0.0
C813 C 0.35343 0.84871 0.38585 0.0
C814 C 0.35704 0.86127 0.3653 0.0
H815 H 0.33425 0.80424 0.40639 0.0
H816 H 0.36484 0.86585 0.39842 0.0
C817 C 0.34142 0.83828 0.3495 0.0
C818 C 0.41188 0.09139 0.59917 0.0
C819 C 0.38892 0.10709 0.61495 0.0
H820 H 0.46485 0.06305 0.59121 0.0
C821 C 0.40148 0.10349 0.6355 0.0
H822 H 0.40303 0.09353 0.58319 0.0
C823 C 0.4367 0.08569 0.64012 0.0
C824 C 0.46035 0.07135 0.62428 0.0
H825 H 0.38435 0.11496 0.64807 0.0
H826 H 0.44591 0.08426 0.65606 0.0
C827 C 0.44731 0.07388 0.60378 0.0
C828 C 0.15846 0.16178 0.84936 0.0
C829 C 0.14267 0.13875 0.86508 0.0
H830 H 0.18686 0.21477 0.84151 0.0
C831 C 0.14619 0.1512 0.88566 0.0
H832 H 0.15637 0.15302 0.83337 0.0
C833 C 0.164 0.18638 0.89035 0.0
C834 C 0.1784 0.2101 0.87457 0.0
H835 H 0.13466 0.13402 0.89819 0.0
H836 H 0.16536 0.1955 0.90631 0.0
C837 C 0.17596 0.19717 0.85404 0.0
C838 C 0.0987 0.89587 0.13551 0.0
C839 C 0.11125 0.89231 0.11496 0.0
H840 H 0.0543 0.91511 0.15608 0.0
C841 C 0.08831 0.90808 0.09918 0.0
H842 H 0.11581 0.88436 0.14807 0.0
C843 C 0.05291 0.92562 0.10381 0.0
C844 C 0.03987 0.92811 0.12431 0.0
H845 H 0.09716 0.90596 0.08321 0.0
H846 H 0.03538 0.9365 0.09124 0.0
C847 C 0.06351 0.91372 0.14014 0.0
C848 C 0.67592 0.80256 0.85421 0.0
C849 C 0.67827 0.78957 0.87472 0.0
H850 H 0.65639 0.84675 0.83354 0.0
C851 C 0.66373 0.81321 0.89051 0.0
H852 H 0.68692 0.78502 0.84168 0.0
C853 C 0.6459 0.84838 0.88582 0.0
C854 C 0.64248 0.86089 0.86525 0.0
H855 H 0.66501 0.80404 0.90645 0.0
H856 H 0.63427 0.8655 0.89835 0.0
C857 C 0.65839 0.83793 0.84953 0.0
C858 C 0.94719 0.92526 0.60378 0.0
C859 C 0.96027 0.9278 0.62428 0.0
H860 H 0.9029 0.90558 0.58322 0.0
C861 C 0.93666 0.91344 0.64013 0.0
H862 H 0.9647 0.93611 0.59121 0.0
C863 C 0.90145 0.8956 0.63553 0.0
C864 C 0.88885 0.892 0.61498 0.0
H865 H 0.9459 0.91487 0.65606 0.0
H866 H 0.88436 0.88412 0.64811 0.0
C867 C 0.91178 0.90772 0.59919 0.0
C868 C 0.82399 0.19721 0.35434 0.0
C869 C 0.82162 0.21015 0.37486 0.0
H870 H 0.84343 0.15301 0.33366 0.0
C871 C 0.83602 0.18641 0.39064 0.0
H872 H 0.81311 0.21482 0.34181 0.0
C873 C 0.85373 0.15118 0.38594 0.0
C874 C 0.85717 0.13871 0.36537 0.0
H875 H 0.83471 0.19554 0.4066 0.0
H876 H 0.86525 0.13398 0.39847 0.0
C877 C 0.84141 0.16178 0.34965 0.0
C878 C 0.58827 0.09136 0.09949 0.0
C879 C 0.61117 0.10714 0.11528 0.0
H880 H 0.53536 0.06295 0.09151 0.0
C881 C 0.59855 0.10361 0.13582 0.0
H882 H 0.59717 0.09345 0.08353 0.0
C883 C 0.56333 0.08579 0.14042 0.0
C884 C 0.53974 0.07139 0.12458 0.0
H885 H 0.61562 0.11513 0.1484 0.0
H886 H 0.55406 0.08442 0.15636 0.0
C887 C 0.55284 0.07384 0.10409 0.0
C888 C 0.6766 0.19688 0.65394 0.0
C889 C 0.67905 0.21016 0.63348 0.0
H890 H 0.6568 0.15249 0.67441 0.0
C891 C 0.66444 0.18681 0.61759 0.0
H892 H 0.68765 0.21418 0.66655 0.0
C893 C 0.64641 0.15166 0.62212 0.0
C894 C 0.64288 0.13888 0.64264 0.0
H895 H 0.66579 0.19622 0.60168 0.0
H896 H 0.63473 0.13478 0.60951 0.0
C897 C 0.65888 0.16153 0.65846 0.0
C898 C 0.56231 0.91417 0.36743 0.0
C899 C 0.53893 0.92892 0.38327 0.0
H900 H 0.61429 0.88429 0.35945 0.0
C901 C 0.55211 0.9265 0.40375 0.0
H902 H 0.55298 0.9155 0.3515 0.0
C903 C 0.58739 0.90869 0.40834 0.0
C904 C 0.61007 0.89258 0.39256 0.0
H905 H 0.53478 0.93764 0.41632 0.0
H906 H 0.59636 0.90665 0.4243 0.0
C907 C 0.59738 0.89607 0.37202 0.0
C908 C 0.82366 0.80266 0.154 0.0
C909 C 0.82108 0.78945 0.13353 0.0
H910 H 0.84362 0.84696 0.17448 0.0
C911 C 0.83562 0.81285 0.11764 0.0
H912 H 0.81268 0.78532 0.16661 0.0
C913 C 0.85369 0.84797 0.12218 0.0
C914 C 0.85735 0.86067 0.1427 0.0
H915 H 0.83416 0.8035 0.10173 0.0
H916 H 0.86531 0.86489 0.10957 0.0
C917 C 0.84144 0.83798 0.15853 0.0
C918 C 0.94743 0.07332 0.90358 0.0
C919 C 0.9605 0.07106 0.88307 0.0
H920 H 0.90322 0.09289 0.92422 0.0
C921 C 0.93696 0.08578 0.86729 0.0
H922 H 0.96488 0.06219 0.91611 0.0
C923 C 0.90184 0.10372 0.87197 0.0
C924 C 0.88926 0.10705 0.89253 0.0
H925 H 0.94621 0.08457 0.85135 0.0
H926 H 0.88481 0.11548 0.85944 0.0
C927 C 0.9121 0.09096 0.90825 0.0
C928 C 0.83568 0.68649 0.61773 0.0
C929 C 0.82104 0.71014 0.63348 0.0
H930 H 0.86538 0.63431 0.60994 0.0
C931 C 0.82345 0.69724 0.65401 0.0
H932 H 0.83435 0.6956 0.60177 0.0
C933 C 0.84116 0.66197 0.65874 0.0
C934 C 0.85717 0.63902 0.64304 0.0
H935 H 0.81239 0.71478 0.66652 0.0
H936 H 0.84321 0.65322 0.67473 0.0
C937 C 0.85368 0.65143 0.62245 0.0
C938 C 0.59804 0.60361 0.87238 0.0
C939 C 0.61057 0.6072 0.89294 0.0
H940 H 0.55373 0.58417 0.8518 0.0
C941 C 0.5877 0.59128 0.9087 0.0
H942 H 0.61509 0.61523 0.85983 0.0
C943 C 0.5524 0.57356 0.90407 0.0
C944 C 0.53938 0.57104 0.88356 0.0
H945 H 0.59654 0.59341 0.92468 0.0
H946 H 0.53493 0.56257 0.91662 0.0
C947 C 0.56294 0.58558 0.86774 0.0
C948 C 0.6589 0.33749 0.15866 0.0
C949 C 0.64287 0.36035 0.14293 0.0
H950 H 0.68765 0.28472 0.16654 0.0
C951 C 0.64631 0.34781 0.12237 0.0
H952 H 0.65688 0.34633 0.17464 0.0
C953 C 0.66429 0.31271 0.1177 0.0
C954 C 0.67894 0.28915 0.13349 0.0
H955 H 0.6346 0.36486 0.10983 0.0
H956 H 0.66558 0.3035 0.10176 0.0
C957 C 0.67657 0.30218 0.154 0.0
C958 C 0.90161 0.39636 0.37236 0.0
C959 C 0.88914 0.39288 0.39293 0.0
H960 H 0.94581 0.41574 0.35171 0.0
C961 C 0.91199 0.40898 0.40865 0.0
H962 H 0.88456 0.38459 0.35984 0.0
C963 C 0.94725 0.42675 0.40395 0.0
C964 C 0.96022 0.42914 0.38343 0.0
H965 H 0.9032 0.40694 0.42463 0.0
H966 H 0.96472 0.43787 0.41647 0.0
C967 C 0.93665 0.41443 0.36766 0.0
C968 C 0.84124 0.33824 0.84995 0.0
C969 C 0.85711 0.361 0.86576 0.0
H970 H 0.81276 0.28542 0.84189 0.0
C971 C 0.85363 0.34824 0.88629 0.0
H972 H 0.84328 0.34725 0.834 0.0
C973 C 0.8358 0.313 0.89083 0.0
C974 C 0.82133 0.28954 0.87495 0.0
H975 H 0.86522 0.36521 0.89889 0.0
H976 H 0.83449 0.30362 0.90675 0.0
C977 C 0.82371 0.3028 0.85449 0.0
C978 C 0.93664 0.58598 0.14054 0.0
C979 C 0.96008 0.57151 0.12465 0.0
H980 H 0.88445 0.61541 0.14861 0.0
C981 C 0.94683 0.57397 0.10419 0.0
H982 H 0.94602 0.58461 0.15645 0.0
C983 C 0.9114 0.59154 0.09966 0.0
C984 C 0.88864 0.60736 0.11549 0.0
H985 H 0.96421 0.56303 0.09158 0.0
H986 H 0.90238 0.59362 0.08371 0.0
C987 C 0.90141 0.60384 0.13601 0.0
C988 C 0.64572 0.65104 0.38606 0.0
C989 C 0.64213 0.63829 0.36555 0.0
H990 H 0.66489 0.69568 0.4065 0.0
C991 C 0.65778 0.66113 0.3497 0.0
H992 H 0.63428 0.63401 0.39868 0.0
C993 C 0.67524 0.69662 0.35422 0.0
C994 C 0.67775 0.70985 0.37468 0.0
H995 H 0.65564 0.65214 0.33375 0.0
H996 H 0.68603 0.71405 0.3416 0.0
C997 C 0.66347 0.68632 0.39059 0.0
C998 C 0.58839 0.40807 0.59989 0.0
C999 C 0.61123 0.39223 0.61569 0.0
H1000 H 0.5355 0.4365 0.59189 0.0
C1001 C 0.59851 0.39566 0.63622 0.0
H1002 H 0.59736 0.40607 0.58393 0.0
C1003 C 0.56326 0.41343 0.6408 0.0
C1004 C 0.53974 0.4279 0.62494 0.0
H1005 H 0.61554 0.38408 0.6488 0.0
H1006 H 0.55393 0.41472 0.65672 0.0
C1007 C 0.55293 0.42555 0.60447 0.0
C1008 C 0.1577 0.33832 0.34931 0.0
C1009 C 0.142 0.36126 0.3651 0.0
H1010 H 0.186 0.28536 0.34133 0.0
C1011 C 0.14552 0.34863 0.38565 0.0
H1012 H 0.15561 0.34722 0.33335 0.0
C1013 C 0.16327 0.31338 0.39024 0.0
C1014 C 0.17761 0.28976 0.3744 0.0
H1015 H 0.13405 0.36573 0.39823 0.0
H1016 H 0.16465 0.30412 0.40618 0.0
C1017 C 0.17515 0.30287 0.35391 0.0
C1018 C 0.40152 0.39577 0.1362 0.0
C1019 C 0.38893 0.39232 0.11565 0.0
H1020 H 0.44597 0.41487 0.15678 0.0
C1021 C 0.41185 0.40817 0.09989 0.0
H1022 H 0.38443 0.38419 0.14875 0.0
C1023 C 0.44727 0.42568 0.10452 0.0
C1024 C 0.46034 0.42805 0.12502 0.0
H1025 H 0.40298 0.40615 0.08392 0.0
H1026 H 0.46477 0.43663 0.09197 0.0
C1027 C 0.43673 0.41357 0.14084 0.0
C1028 C 0.32387 0.69677 0.85396 0.0
C1029 C 0.32141 0.70999 0.87443 0.0
H1030 H 0.34353 0.65237 0.83346 0.0
C1031 C 0.33587 0.68651 0.89031 0.0
H1032 H 0.31294 0.71417 0.84136 0.0
C1033 C 0.35373 0.6513 0.88576 0.0
C1034 C 0.35727 0.63857 0.86523 0.0
H1035 H 0.3345 0.69586 0.90623 0.0
H1036 H 0.3653 0.63431 0.89836 0.0
C1037 C 0.34144 0.66136 0.84941 0.0
C1038 C 0.06343 0.58589 0.6408 0.0
C1039 C 0.03975 0.57138 0.62502 0.0
H1040 H 0.11578 0.61528 0.64862 0.0
C1041 C 0.05272 0.5737 0.60451 0.0
H1042 H 0.05427 0.58463 0.65675 0.0
C1043 C 0.08812 0.59118 0.59981 0.0
C1044 C 0.11112 0.60706 0.61553 0.0
H1045 H 0.03516 0.56272 0.59198 0.0
H1046 H 0.09692 0.59316 0.58383 0.0
C1047 C 0.09862 0.60367 0.6361 0.0
C1048 C 0.14621 0.65163 0.12183 0.0
C1049 C 0.14267 0.63907 0.14238 0.0
H1050 H 0.16561 0.69596 0.10126 0.0
C1051 C 0.15868 0.66187 0.15814 0.0
H1052 H 0.13451 0.63462 0.10927 0.0
C1053 C 0.17642 0.69717 0.15351 0.0
C1054 C 0.17888 0.71023 0.13301 0.0
H1055 H 0.1566 0.65301 0.17411 0.0
H1056 H 0.18748 0.71459 0.16607 0.0
C1057 C 0.16425 0.68672 0.11719 0.0
C1058 C 0.09786 0.39595 0.87253 0.0
C1059 C 0.11057 0.39241 0.89305 0.0
H1060 H 0.05337 0.41531 0.85204 0.0
C1061 C 0.08784 0.40836 0.90886 0.0
H1062 H 0.1148 0.38429 0.85993 0.0
C1063 C 0.05248 0.42605 0.9043 0.0
C1064 C 0.03929 0.42853 0.88383 0.0
H1065 H 0.09682 0.40627 0.92482 0.0
H1066 H 0.03512 0.43708 0.91689 0.0
C1067 C 0.06271 0.41395 0.86796 0.0
C1068 C 0.3234 0.30201 0.65373 0.0
C1069 C 0.32103 0.289 0.63322 0.0
H1070 H 0.34308 0.34615 0.67439 0.0
C1071 C 0.33567 0.31257 0.61743 0.0
H1072 H 0.31232 0.28453 0.66626 0.0
C1073 C 0.35365 0.34767 0.62211 0.0
C1074 C 0.35709 0.36019 0.64268 0.0
H1075 H 0.33438 0.30338 0.60149 0.0
H1076 H 0.36536 0.36473 0.60958 0.0
C1077 C 0.34107 0.33732 0.6584 0.0
C1078 C 0.43683 0.5854 0.36776 0.0
C1079 C 0.46018 0.57071 0.38364 0.0
H1080 H 0.38486 0.61525 0.35973 0.0
C1081 C 0.44695 0.57318 0.4041 0.0
H1082 H 0.4462 0.58403 0.35185 0.0
C1083 C 0.41165 0.59099 0.40865 0.0
C1084 C 0.38901 0.60706 0.39284 0.0
H1085 H 0.46425 0.56208 0.4167 0.0
H1086 H 0.40265 0.59308 0.4246 0.0
C1087 C 0.40174 0.60351 0.37232 0.0
loop_
_geom_bond_atom_site_label_1
_geom_bond_atom_site_label_2
_geom_bond_distance
_geom_bond_site_symmetry_2
_ccdc_geom_bond_type
O0 Cd1 2.223 . S
O0 C8 1.315 . S
Cd1 O0 2.223 . S
Cd1 O4 2.297 . S
Cd1 O5 2.439 . S
Cd1 O11 2.240 . S
Cd2 O3 2.240 . S
Cd2 O10 2.223 . S
Cd2 O12 2.297 . S
Cd2 O13 2.439 . S
O3 Cd2 2.240 . S
O3 C8 1.279 . S
O4 Cd1 2.297 . S
O4 C6 1.247 . S
O5 Cd1 2.439 . S
O5 C6 1.208 . S
C6 O4 1.247 . S
C6 O5 1.208 . S
C7 O12 1.247 . S
C7 O13 1.208 . S
C8 O0 1.315 . S
C8 O3 1.279 . S
C9 O10 1.315 . S
C9 O11 1.279 . S
O10 Cd2 2.223 . S
O10 C9 1.315 . S
O11 Cd1 2.240 . S
O11 C9 1.279 . S
O12 Cd2 2.297 . S
O12 C7 1.247 . S
O13 Cd2 2.439 . S
O13 C7 1.208 . S
O14 Cd15 2.223 . S
O14 C22 1.315 . S
Cd15 O14 2.223 . S
Cd15 O18 2.297 . S
Cd15 O19 2.439 . S
Cd15 O25 2.240 . S
Cd16 O17 2.240 . S
Cd16 O24 2.223 . S
Cd16 O26 2.297 . S
Cd16 O27 2.439 . S
O17 Cd16 2.240 . S
O17 C22 1.279 . S
O18 Cd15 2.297 . S
O18 C20 1.247 . S
O19 Cd15 2.439 . S
O19 C20 1.208 . S
C20 O18 1.247 . S
C20 O19 1.208 . S
C21 O26 1.247 . S
C21 O27 1.208 . S
C22 O14 1.315 . S
C22 O17 1.279 . S
C23 O24 1.315 . S
C23 O25 1.279 . S
O24 Cd16 2.223 . S
O24 C23 1.315 . S
O25 Cd15 2.240 . S
O25 C23 1.279 . S
O26 Cd16 2.297 . S
O26 C21 1.247 . S
O27 Cd16 2.439 . S
O27 C21 1.208 . S
O28 Cd29 2.223 . S
O28 C36 1.315 . S
Cd29 O28 2.223 . S
Cd29 O32 2.297 . S
Cd29 O33 2.439 . S
Cd29 O39 2.240 . S
Cd30 O31 2.240 . S
Cd30 O38 2.223 . S
Cd30 O40 2.297 . S
Cd30 O41 2.439 . S
O31 Cd30 2.240 . S
O31 C36 1.279 . S
O32 Cd29 2.297 . S
O32 C34 1.247 . S
O33 Cd29 2.439 . S
O33 C34 1.208 . S
C34 O32 1.247 . S
C34 O33 1.208 . S
C35 O40 1.247 1_655 S
C35 O41 1.208 1_655 S
C36 O28 1.315 . S
C36 O31 1.279 . S
C37 O38 1.315 . S
C37 O39 1.279 . S
O38 Cd30 2.223 . S
O38 C37 1.315 . S
O39 Cd29 2.240 . S
O39 C37 1.279 . S
O40 Cd30 2.297 . S
O40 C35 1.247 1_455 S
O41 Cd30 2.439 . S
O41 C35 1.208 1_455 S
O42 Cd43 2.223 . S
O42 C50 1.315 . S
Cd43 O42 2.223 . S
Cd43 O46 2.297 . S
Cd43 O47 2.439 . S
Cd43 O53 2.240 . S
Cd44 O45 2.240 . S
Cd44 O52 2.223 . S
Cd44 O54 2.297 . S
Cd44 O55 2.439 . S
O45 Cd44 2.240 . S
O45 C50 1.279 . S
O46 Cd43 2.297 . S
O46 C48 1.247 . S
O47 Cd43 2.439 . S
O47 C48 1.208 . S
C48 O46 1.247 . S
C48 O47 1.208 . S
C49 O54 1.247 . S
C49 O55 1.208 . S
C50 O42 1.315 . S
C50 O45 1.279 . S
C51 O52 1.315 . S
C51 O53 1.279 . S
O52 Cd44 2.223 . S
O52 C51 1.315 . S
O53 Cd43 2.240 . S
O53 C51 1.279 . S
O54 Cd44 2.297 . S
O54 C49 1.247 . S
O55 Cd44 2.439 . S
O55 C49 1.208 . S
O56 Cd57 2.223 . S
O56 C64 1.315 . S
Cd57 O56 2.223 . S
Cd57 O60 2.297 . S
Cd57 O61 2.439 . S
Cd57 O67 2.240 . S
Cd58 O59 2.240 . S
Cd58 O66 2.223 . S
Cd58 O68 2.297 . S
Cd58 O69 2.439 . S
O59 Cd58 2.240 . S
O59 C64 1.279 . S
O60 Cd57 2.297 . S
O60 C62 1.247 . S
O61 Cd57 2.439 . S
O61 C62 1.208 . S
C62 O60 1.247 . S
C62 O61 1.208 . S
C63 O68 1.247 . S
C63 O69 1.208 . S
C64 O56 1.315 . S
C64 O59 1.279 . S
C65 O66 1.315 . S
C65 O67 1.279 . S
O66 Cd58 2.223 . S
O66 C65 1.315 . S
O67 Cd57 2.240 . S
O67 C65 1.279 . S
O68 Cd58 2.297 . S
O68 C63 1.247 . S
O69 Cd58 2.439 . S
O69 C63 1.208 . S
O70 Cd71 2.223 . S
O70 C78 1.315 . S
Cd71 O70 2.223 . S
Cd71 O74 2.297 . S
Cd71 O75 2.439 . S
Cd71 O81 2.240 . S
Cd72 O73 2.240 . S
Cd72 O80 2.223 . S
Cd72 O82 2.297 . S
Cd72 O83 2.439 . S
O73 Cd72 2.240 . S
O73 C78 1.279 . S
O74 Cd71 2.297 . S
O74 C76 1.247 . S
O75 Cd71 2.439 . S
O75 C76 1.208 . S
C76 O74 1.247 . S
C76 O75 1.208 . S
C77 O82 1.247 . S
C77 O83 1.208 . S
C78 O70 1.315 . S
C78 O73 1.279 . S
C79 O80 1.315 . S
C79 O81 1.279 . S
O80 Cd72 2.223 . S
O80 C79 1.315 . S
O81 Cd71 2.240 . S
O81 C79 1.279 . S
O82 Cd72 2.297 . S
O82 C77 1.247 . S
O83 Cd72 2.439 . S
O83 C77 1.208 . S
O84 Cd85 2.223 . S
O84 C92 1.315 . S
Cd85 O84 2.223 . S
Cd85 O88 2.297 . S
Cd85 O89 2.439 . S
Cd85 O95 2.240 . S
Cd86 O87 2.240 . S
Cd86 O94 2.223 . S
Cd86 O96 2.297 . S
Cd86 O97 2.439 . S
O87 Cd86 2.240 . S
O87 C92 1.279 . S
O88 Cd85 2.297 . S
O88 C90 1.247 . S
O89 Cd85 2.439 . S
O89 C90 1.208 . S
C90 O88 1.247 . S
C90 O89 1.208 . S
C91 O96 1.247 1_655 S
C91 O97 1.208 1_655 S
C92 O84 1.315 . S
C92 O87 1.279 . S
C93 O94 1.315 . S
C93 O95 1.279 . S
O94 Cd86 2.223 . S
O94 C93 1.315 . S
O95 Cd85 2.240 . S
O95 C93 1.279 . S
O96 Cd86 2.297 . S
O96 C91 1.247 1_455 S
O97 Cd86 2.439 . S
O97 C91 1.208 1_455 S
O98 Cd99 2.223 . S
O98 C106 1.315 . S
Cd99 O98 2.223 . S
Cd99 O102 2.297 . S
Cd99 O103 2.439 . S
Cd99 O109 2.240 . S
Cd100 O101 2.240 . S
Cd100 O108 2.223 . S
Cd100 O110 2.297 . S
Cd100 O111 2.439 . S
O101 Cd100 2.240 . S
O101 C106 1.279 . S
O102 Cd99 2.297 . S
O102 C104 1.247 . S
O103 Cd99 2.439 . S
O103 C104 1.208 . S
C104 O102 1.247 . S
C104 O103 1.208 . S
C105 O110 1.247 . S
C105 O111 1.208 . S
C106 O98 1.315 . S
C106 O101 1.279 . S
C107 O108 1.315 . S
C107 O109 1.279 . S
O108 Cd100 2.223 . S
O108 C107 1.315 . S
O109 Cd99 2.240 . S
O109 C107 1.279 . S
O110 Cd100 2.297 . S
O110 C105 1.247 . S
O111 Cd100 2.439 . S
O111 C105 1.208 . S
O112 Cd113 2.223 . S
O112 C120 1.315 . S
Cd113 O112 2.223 . S
Cd113 O116 2.297 . S
Cd113 O117 2.439 . S
Cd113 O123 2.240 . S
Cd114 O115 2.240 . S
Cd114 O122 2.223 . S
Cd114 O124 2.297 . S
Cd114 O125 2.439 . S
O115 Cd114 2.240 . S
O115 C120 1.279 . S
O116 Cd113 2.297 . S
O116 C118 1.247 . S
O117 Cd113 2.439 . S
O117 C118 1.208 . S
C118 O116 1.247 . S
C118 O117 1.208 . S
C119 O124 1.247 . S
C119 O125 1.208 . S
C120 O112 1.315 . S
C120 O115 1.279 . S
C121 O122 1.315 . S
C121 O123 1.279 . S
O122 Cd114 2.223 . S
O122 C121 1.315 . S
O123 Cd113 2.240 . S
O123 C121 1.279 . S
O124 Cd114 2.297 . S
O124 C119 1.247 . S
O125 Cd114 2.439 . S
O125 C119 1.208 . S
O126 Cd127 2.223 . S
O126 C134 1.315 . S
Cd127 O126 2.223 . S
Cd127 O130 2.297 . S
Cd127 O131 2.439 . S
Cd127 O137 2.240 . S
Cd128 O129 2.240 . S
Cd128 O136 2.223 . S
Cd128 O138 2.297 . S
Cd128 O139 2.439 . S
O129 Cd128 2.240 . S
O129 C134 1.279 . S
O130 Cd127 2.297 . S
O130 C132 1.247 . S
O131 Cd127 2.439 . S
O131 C132 1.208 . S
C132 O130 1.247 . S
C132 O131 1.208 . S
C133 O138 1.247 . S
C133 O139 1.208 . S
C134 O126 1.315 . S
C134 O129 1.279 . S
C135 O136 1.315 . S
C135 O137 1.279 . S
O136 Cd128 2.223 . S
O136 C135 1.315 . S
O137 Cd127 2.240 . S
O137 C135 1.279 . S
O138 Cd128 2.297 . S
O138 C133 1.247 . S
O139 Cd128 2.439 . S
O139 C133 1.208 . S
O140 Cd141 2.223 . S
O140 C148 1.315 . S
Cd141 O140 2.223 . S
Cd141 O144 2.297 . S
Cd141 O145 2.439 . S
Cd141 O151 2.240 . S
Cd142 O143 2.240 . S
Cd142 O150 2.223 . S
Cd142 O152 2.297 . S
Cd142 O153 2.439 . S
O143 Cd142 2.240 . S
O143 C148 1.279 . S
O144 Cd141 2.297 . S
O144 C146 1.247 . S
O145 Cd141 2.439 . S
O145 C146 1.208 . S
C146 O144 1.247 . S
C146 O145 1.208 . S
C147 O152 1.247 1_455 S
C147 O153 1.208 1_455 S
C148 O140 1.315 . S
C148 O143 1.279 . S
C149 O150 1.315 . S
C149 O151 1.279 . S
O150 Cd142 2.223 . S
O150 C149 1.315 . S
O151 Cd141 2.240 . S
O151 C149 1.279 . S
O152 Cd142 2.297 . S
O152 C147 1.247 1_655 S
O153 Cd142 2.439 . S
O153 C147 1.208 1_655 S
O154 Cd155 2.223 . S
O154 C162 1.315 . S
Cd155 O154 2.223 . S
Cd155 O158 2.297 . S
Cd155 O159 2.439 . S
Cd155 O165 2.240 . S
Cd156 O157 2.240 . S
Cd156 O164 2.223 . S
Cd156 O166 2.297 . S
Cd156 O167 2.439 . S
O157 Cd156 2.240 . S
O157 C162 1.279 . S
O158 Cd155 2.297 . S
O158 C160 1.247 . S
O159 Cd155 2.439 . S
O159 C160 1.208 . S
C160 O158 1.247 . S
C160 O159 1.208 . S
C161 O166 1.247 . S
C161 O167 1.208 . S
C162 O154 1.315 . S
C162 O157 1.279 . S
C163 O164 1.315 . S
C163 O165 1.279 . S
O164 Cd156 2.223 . S
O164 C163 1.315 . S
O165 Cd155 2.240 . S
O165 C163 1.279 . S
O166 Cd156 2.297 . S
O166 C161 1.247 . S
O167 Cd156 2.439 . S
O167 C161 1.208 . S
O168 Cd169 2.223 . S
O168 C176 1.315 . S
Cd169 O168 2.223 . S
Cd169 O172 2.297 . S
Cd169 O173 2.439 . S
Cd169 O179 2.240 . S
Cd170 O171 2.240 . S
Cd170 O178 2.223 . S
Cd170 O180 2.297 . S
Cd170 O181 2.439 . S
O171 Cd170 2.240 . S
O171 C176 1.279 . S
O172 Cd169 2.297 . S
O172 C174 1.247 . S
O173 Cd169 2.439 . S
O173 C174 1.208 . S
C174 O172 1.247 . S
C174 O173 1.208 . S
C175 O180 1.247 . S
C175 O181 1.208 . S
C176 O168 1.315 . S
C176 O171 1.279 . S
C177 O178 1.315 . S
C177 O179 1.279 . S
O178 Cd170 2.223 . S
O178 C177 1.315 . S
O179 Cd169 2.240 . S
O179 C177 1.279 . S
O180 Cd170 2.297 . S
O180 C175 1.247 . S
O181 Cd170 2.439 . S
O181 C175 1.208 . S
O182 Cd183 2.223 . S
O182 C190 1.315 . S
Cd183 O182 2.223 . S
Cd183 O186 2.297 . S
Cd183 O187 2.439 . S
Cd183 O193 2.240 . S
Cd184 O185 2.240 . S
Cd184 O192 2.223 . S
Cd184 O194 2.297 . S
Cd184 O195 2.439 . S
O185 Cd184 2.240 . S
O185 C190 1.279 . S
O186 Cd183 2.297 . S
O186 C188 1.247 . S
O187 Cd183 2.439 . S
O187 C188 1.208 . S
C188 O186 1.247 . S
C188 O187 1.208 . S
C189 O194 1.247 . S
C189 O195 1.208 . S
C190 O182 1.315 . S
C190 O185 1.279 . S
C191 O192 1.315 . S
C191 O193 1.279 . S
O192 Cd184 2.223 . S
O192 C191 1.315 . S
O193 Cd183 2.240 . S
O193 C191 1.279 . S
O194 Cd184 2.297 . S
O194 C189 1.247 . S
O195 Cd184 2.439 . S
O195 C189 1.208 . S
O196 Cd197 2.223 . S
O196 C204 1.315 . S
Cd197 O196 2.223 . S
Cd197 O200 2.297 . S
Cd197 O201 2.439 . S
Cd197 O207 2.240 . S
Cd198 O199 2.240 . S
Cd198 O206 2.223 . S
Cd198 O208 2.297 . S
Cd198 O209 2.439 . S
O199 Cd198 2.240 . S
O199 C204 1.279 . S
O200 Cd197 2.297 . S
O200 C202 1.247 . S
O201 Cd197 2.439 . S
O201 C202 1.208 . S
C202 O200 1.247 . S
C202 O201 1.208 . S
C203 O208 1.247 1_455 S
C203 O209 1.208 1_455 S
C204 O196 1.315 . S
C204 O199 1.279 . S
C205 O206 1.315 . S
C205 O207 1.279 . S
O206 Cd198 2.223 . S
O206 C205 1.315 . S
O207 Cd197 2.240 . S
O207 C205 1.279 . S
O208 Cd198 2.297 . S
O208 C203 1.247 1_655 S
O209 Cd198 2.439 . S
O209 C203 1.208 1_655 S
O210 Cd211 2.223 . S
O210 C218 1.315 . S
Cd211 O210 2.223 . S
Cd211 O214 2.297 . S
Cd211 O215 2.439 . S
Cd211 O221 2.240 . S
Cd212 O213 2.240 . S
Cd212 O220 2.223 . S
Cd212 O222 2.297 . S
Cd212 O223 2.439 . S
O213 Cd212 2.240 . S
O213 C218 1.279 . S
O214 Cd211 2.297 . S
O214 C216 1.247 . S
O215 Cd211 2.439 . S
O215 C216 1.208 . S
C216 O214 1.247 . S
C216 O215 1.208 . S
C217 O222 1.247 . S
C217 O223 1.208 . S
C218 O210 1.315 . S
C218 O213 1.279 . S
C219 O220 1.315 . S
C219 O221 1.279 . S
O220 Cd212 2.223 . S
O220 C219 1.315 . S
O221 Cd211 2.240 . S
O221 C219 1.279 . S
O222 Cd212 2.297 . S
O222 C217 1.247 . S
O223 Cd212 2.439 . S
O223 C217 1.208 . S
O224 Cd225 2.223 . S
O224 C232 1.315 . S
Cd225 O224 2.223 . S
Cd225 O228 2.297 . S
Cd225 O229 2.439 . S
Cd225 O235 2.240 . S
Cd226 O227 2.240 . S
Cd226 O234 2.223 . S
Cd226 O236 2.297 . S
Cd226 O237 2.439 . S
O227 Cd226 2.240 . S
O227 C232 1.279 . S
O228 Cd225 2.297 . S
O228 C230 1.247 . S
O229 Cd225 2.439 . S
O229 C230 1.208 . S
C230 O228 1.247 . S
C230 O229 1.208 . S
C231 O236 1.247 1_455 S
C231 O237 1.208 1_455 S
C232 O224 1.315 . S
C232 O227 1.279 . S
C233 O234 1.315 . S
C233 O235 1.279 . S
O234 Cd226 2.223 . S
O234 C233 1.315 . S
O235 Cd225 2.240 . S
O235 C233 1.279 . S
O236 Cd226 2.297 . S
O236 C231 1.247 1_655 S
O237 Cd226 2.439 . S
O237 C231 1.208 1_655 S
O238 Cd239 2.223 . S
O238 C246 1.315 . S
Cd239 O238 2.223 . S
Cd239 O242 2.297 . S
Cd239 O243 2.439 . S
Cd239 O249 2.240 . S
Cd240 O241 2.240 . S
Cd240 O248 2.223 . S
Cd240 O250 2.297 . S
Cd240 O251 2.439 . S
O241 Cd240 2.240 . S
O241 C246 1.279 . S
O242 Cd239 2.297 . S
O242 C244 1.247 . S
O243 Cd239 2.439 . S
O243 C244 1.208 . S
C244 O242 1.247 . S
C244 O243 1.208 . S
C245 O250 1.247 . S
C245 O251 1.208 . S
C246 O238 1.315 . S
C246 O241 1.279 . S
C247 O248 1.315 . S
C247 O249 1.279 . S
O248 Cd240 2.223 . S
O248 C247 1.315 . S
O249 Cd239 2.240 . S
O249 C247 1.279 . S
O250 Cd240 2.297 . S
O250 C245 1.247 . S
O251 Cd240 2.439 . S
O251 C245 1.208 . S
O252 Cd253 2.223 . S
O252 C260 1.315 . S
Cd253 O252 2.223 . S
Cd253 O256 2.297 . S
Cd253 O257 2.439 . S
Cd253 O263 2.240 . S
Cd254 O255 2.240 . S
Cd254 O262 2.223 . S
Cd254 O264 2.297 . S
Cd254 O265 2.439 . S
O255 Cd254 2.240 . S
O255 C260 1.279 . S
O256 Cd253 2.297 . S
O256 C258 1.247 . S
O257 Cd253 2.439 . S
O257 C258 1.208 . S
C258 O256 1.247 . S
C258 O257 1.208 . S
C259 O264 1.247 . S
C259 O265 1.208 . S
C260 O252 1.315 . S
C260 O255 1.279 . S
C261 O262 1.315 . S
C261 O263 1.279 . S
O262 Cd254 2.223 . S
O262 C261 1.315 . S
O263 Cd253 2.240 . S
O263 C261 1.279 . S
O264 Cd254 2.297 . S
O264 C259 1.247 . S
O265 Cd254 2.439 . S
O265 C259 1.208 . S
O266 Cd267 2.223 . S
O266 C274 1.315 . S
Cd267 O266 2.223 . S
Cd267 O270 2.297 . S
Cd267 O271 2.439 . S
Cd267 O277 2.240 . S
Cd268 O269 2.240 . S
Cd268 O276 2.223 . S
Cd268 O278 2.297 . S
Cd268 O279 2.439 . S
O269 Cd268 2.240 . S
O269 C274 1.279 . S
O270 Cd267 2.297 . S
O270 C272 1.247 . S
O271 Cd267 2.439 . S
O271 C272 1.208 . S
C272 O270 1.247 . S
C272 O271 1.208 . S
C273 O278 1.247 . S
C273 O279 1.208 . S
C274 O266 1.315 . S
C274 O269 1.279 . S
C275 O276 1.315 . S
C275 O277 1.279 . S
O276 Cd268 2.223 . S
O276 C275 1.315 . S
O277 Cd267 2.240 . S
O277 C275 1.279 . S
O278 Cd268 2.297 . S
O278 C273 1.247 . S
O279 Cd268 2.439 . S
O279 C273 1.208 . S
O280 Cd281 2.223 . S
O280 C288 1.315 . S
Cd281 O280 2.223 . S
Cd281 O284 2.297 . S
Cd281 O285 2.439 . S
Cd281 O291 2.240 . S
Cd282 O283 2.240 . S
Cd282 O290 2.223 . S
Cd282 O292 2.297 . S
Cd282 O293 2.439 . S
O283 Cd282 2.240 . S
O283 C288 1.279 . S
O284 Cd281 2.297 . S
O284 C286 1.247 . S
O285 Cd281 2.439 . S
O285 C286 1.208 . S
C286 O284 1.247 . S
C286 O285 1.208 . S
C287 O292 1.247 1_455 S
C287 O293 1.208 1_455 S
C288 O280 1.315 . S
C288 O283 1.279 . S
C289 O290 1.315 . S
C289 O291 1.279 . S
O290 Cd282 2.223 . S
O290 C289 1.315 . S
O291 Cd281 2.240 . S
O291 C289 1.279 . S
O292 Cd282 2.297 . S
O292 C287 1.247 1_655 S
O293 Cd282 2.439 . S
O293 C287 1.208 1_655 S
O294 Cd295 2.223 . S
O294 C302 1.315 . S
Cd295 O294 2.223 . S
Cd295 O298 2.297 . S
Cd295 O299 2.439 . S
Cd295 O305 2.240 . S
Cd296 O297 2.240 . S
Cd296 O304 2.223 . S
Cd296 O306 2.297 . S
Cd296 O307 2.439 . S
O297 Cd296 2.240 . S
O297 C302 1.279 . S
O298 Cd295 2.297 . S
O298 C300 1.247 . S
O299 Cd295 2.439 . S
O299 C300 1.208 . S
C300 O298 1.247 . S
C300 O299 1.208 . S
C301 O306 1.247 . S
C301 O307 1.208 . S
C302 O294 1.315 . S
C302 O297 1.279 . S
C303 O304 1.315 . S
C303 O305 1.279 . S
O304 Cd296 2.223 . S
O304 C303 1.315 . S
O305 Cd295 2.240 . S
O305 C303 1.279 . S
O306 Cd296 2.297 . S
O306 C301 1.247 . S
O307 Cd296 2.439 . S
O307 C301 1.208 . S
O308 Cd309 2.223 . S
O308 C316 1.315 . S
Cd309 O308 2.223 . S
Cd309 O312 2.297 . S
Cd309 O313 2.439 . S
Cd309 O319 2.240 . S
Cd310 O311 2.240 . S
Cd310 O318 2.223 . S
Cd310 O320 2.297 . S
Cd310 O321 2.439 . S
O311 Cd310 2.240 . S
O311 C316 1.279 . S
O312 Cd309 2.297 . S
O312 C314 1.247 . S
O313 Cd309 2.439 . S
O313 C314 1.208 . S
C314 O312 1.247 . S
C314 O313 1.208 . S
C315 O320 1.247 . S
C315 O321 1.208 . S
C316 O308 1.315 . S
C316 O311 1.279 . S
C317 O318 1.315 . S
C317 O319 1.279 . S
O318 Cd310 2.223 . S
O318 C317 1.315 . S
O319 Cd309 2.240 . S
O319 C317 1.279 . S
O320 Cd310 2.297 . S
O320 C315 1.247 . S
O321 Cd310 2.439 . S
O321 C315 1.208 . S
O322 Cd323 2.223 . S
O322 C330 1.315 . S
Cd323 O322 2.223 . S
Cd323 O326 2.297 . S
Cd323 O327 2.439 . S
Cd323 O333 2.240 . S
Cd324 O325 2.240 . S
Cd324 O332 2.223 . S
Cd324 O334 2.297 . S
Cd324 O335 2.439 . S
O325 Cd324 2.240 . S
O325 C330 1.279 . S
O326 Cd323 2.297 . S
O326 C328 1.247 . S
O327 Cd323 2.439 . S
O327 C328 1.208 . S
C328 O326 1.247 . S
C328 O327 1.208 . S
C329 O334 1.247 . S
C329 O335 1.208 . S
C330 O322 1.315 . S
C330 O325 1.279 . S
C331 O332 1.315 . S
C331 O333 1.279 . S
O332 Cd324 2.223 . S
O332 C331 1.315 . S
O333 Cd323 2.240 . S
O333 C331 1.279 . S
O334 Cd324 2.297 . S
O334 C329 1.247 . S
O335 Cd324 2.439 . S
O335 C329 1.208 . S
O336 Cd337 2.223 . S
O336 C344 1.315 . S
Cd337 O336 2.223 . S
Cd337 O340 2.297 . S
Cd337 O341 2.439 . S
Cd337 O347 2.240 . S
Cd338 O339 2.240 . S
Cd338 O346 2.223 . S
Cd338 O348 2.297 . S
Cd338 O349 2.439 . S
O339 Cd338 2.240 . S
O339 C344 1.279 . S
O340 Cd337 2.297 . S
O340 C342 1.247 . S
O341 Cd337 2.439 . S
O341 C342 1.208 . S
C342 O340 1.247 . S
C342 O341 1.208 . S
C343 O348 1.247 1_655 S
C343 O349 1.208 1_655 S
C344 O336 1.315 . S
C344 O339 1.279 . S
C345 O346 1.315 . S
C345 O347 1.279 . S
O346 Cd338 2.223 . S
O346 C345 1.315 . S
O347 Cd337 2.240 . S
O347 C345 1.279 . S
O348 Cd338 2.297 . S
O348 C343 1.247 1_455 S
O349 Cd338 2.439 . S
O349 C343 1.208 1_455 S
O350 Cd351 2.223 . S
O350 C358 1.315 . S
Cd351 O350 2.223 . S
Cd351 O354 2.297 . S
Cd351 O355 2.439 . S
Cd351 O361 2.240 . S
Cd352 O353 2.240 . S
Cd352 O360 2.223 . S
Cd352 O362 2.297 . S
Cd352 O363 2.439 . S
O353 Cd352 2.240 . S
O353 C358 1.279 . S
O354 Cd351 2.297 . S
O354 C356 1.247 . S
O355 Cd351 2.439 . S
O355 C356 1.208 . S
C356 O354 1.247 . S
C356 O355 1.208 . S
C357 O362 1.247 . S
C357 O363 1.208 . S
C358 O350 1.315 . S
C358 O353 1.279 . S
C359 O360 1.315 . S
C359 O361 1.279 . S
O360 Cd352 2.223 . S
O360 C359 1.315 . S
O361 Cd351 2.240 . S
O361 C359 1.279 . S
O362 Cd352 2.297 . S
O362 C357 1.247 . S
O363 Cd352 2.439 . S
O363 C357 1.208 . S
O364 Cd365 2.223 . S
O364 C372 1.315 . S
Cd365 O364 2.223 . S
Cd365 O368 2.297 . S
Cd365 O369 2.439 . S
Cd365 O375 2.240 . S
Cd366 O367 2.240 . S
Cd366 O374 2.223 . S
Cd366 O376 2.297 . S
Cd366 O377 2.439 . S
O367 Cd366 2.240 . S
O367 C372 1.279 . S
O368 Cd365 2.297 . S
O368 C370 1.247 . S
O369 Cd365 2.439 . S
O369 C370 1.208 . S
C370 O368 1.247 . S
C370 O369 1.208 . S
C371 O376 1.247 . S
C371 O377 1.208 . S
C372 O364 1.315 . S
C372 O367 1.279 . S
C373 O374 1.315 . S
C373 O375 1.279 . S
O374 Cd366 2.223 . S
O374 C373 1.315 . S
O375 Cd365 2.240 . S
O375 C373 1.279 . S
O376 Cd366 2.297 . S
O376 C371 1.247 . S
O377 Cd366 2.439 . S
O377 C371 1.208 . S
O378 Cd379 2.223 . S
O378 C386 1.315 . S
Cd379 O378 2.223 . S
Cd379 O382 2.297 . S
Cd379 O383 2.439 . S
Cd379 O389 2.240 . S
Cd380 O381 2.240 . S
Cd380 O388 2.223 . S
Cd380 O390 2.297 . S
Cd380 O391 2.439 . S
O381 Cd380 2.240 . S
O381 C386 1.279 . S
O382 Cd379 2.297 . S
O382 C384 1.247 . S
O383 Cd379 2.439 . S
O383 C384 1.208 . S
C384 O382 1.247 . S
C384 O383 1.208 . S
C385 O390 1.247 . S
C385 O391 1.208 . S
C386 O378 1.315 . S
C386 O381 1.279 . S
C387 O388 1.315 . S
C387 O389 1.279 . S
O388 Cd380 2.223 . S
O388 C387 1.315 . S
O389 Cd379 2.240 . S
O389 C387 1.279 . S
O390 Cd380 2.297 . S
O390 C385 1.247 . S
O391 Cd380 2.439 . S
O391 C385 1.208 . S
O392 Cd393 2.223 . S
O392 C400 1.315 . S
Cd393 O392 2.223 . S
Cd393 O396 2.297 . S
Cd393 O397 2.439 . S
Cd393 O403 2.240 . S
Cd394 O395 2.240 . S
Cd394 O402 2.223 . S
Cd394 O404 2.297 . S
Cd394 O405 2.439 . S
O395 Cd394 2.240 . S
O395 C400 1.279 . S
O396 Cd393 2.297 . S
O396 C398 1.247 . S
O397 Cd393 2.439 . S
O397 C398 1.208 . S
C398 O396 1.247 . S
C398 O397 1.208 . S
C399 O404 1.247 1_655 S
C399 O405 1.208 1_655 S
C400 O392 1.315 . S
C400 O395 1.279 . S
C401 O402 1.315 . S
C401 O403 1.279 . S
O402 Cd394 2.223 . S
O402 C401 1.315 . S
O403 Cd393 2.240 . S
O403 C401 1.279 . S
O404 Cd394 2.297 . S
O404 C399 1.247 1_455 S
O405 Cd394 2.439 . S
O405 C399 1.208 1_455 S
O406 Cd407 2.223 . S
O406 C414 1.315 . S
Cd407 O406 2.223 . S
Cd407 O410 2.297 . S
Cd407 O411 2.439 . S
Cd407 O417 2.240 . S
Cd408 O409 2.240 . S
Cd408 O416 2.223 . S
Cd408 O418 2.297 . S
Cd408 O419 2.439 . S
O409 Cd408 2.240 . S
O409 C414 1.279 . S
O410 Cd407 2.297 . S
O410 C412 1.247 . S
O411 Cd407 2.439 . S
O411 C412 1.208 . S
C412 O410 1.247 . S
C412 O411 1.208 . S
C413 O418 1.247 . S
C413 O419 1.208 . S
C414 O406 1.315 . S
C414 O409 1.279 . S
C415 O416 1.315 . S
C415 O417 1.279 . S
O416 Cd408 2.223 . S
O416 C415 1.315 . S
O417 Cd407 2.240 . S
O417 C415 1.279 . S
O418 Cd408 2.297 . S
O418 C413 1.247 . S
O419 Cd408 2.439 . S
O419 C413 1.208 . S
O420 Cd421 2.223 . S
O420 C428 1.315 . S
Cd421 O420 2.223 . S
Cd421 O424 2.297 . S
Cd421 O425 2.439 . S
Cd421 O431 2.240 . S
Cd422 O423 2.240 . S
Cd422 O430 2.223 . S
Cd422 O432 2.297 . S
Cd422 O433 2.439 . S
O423 Cd422 2.240 . S
O423 C428 1.279 . S
O424 Cd421 2.297 . S
O424 C426 1.247 . S
O425 Cd421 2.439 . S
O425 C426 1.208 . S
C426 O424 1.247 . S
C426 O425 1.208 . S
C427 O432 1.247 . S
C427 O433 1.208 . S
C428 O420 1.315 . S
C428 O423 1.279 . S
C429 O430 1.315 . S
C429 O431 1.279 . S
O430 Cd422 2.223 . S
O430 C429 1.315 . S
O431 Cd421 2.240 . S
O431 C429 1.279 . S
O432 Cd422 2.297 . S
O432 C427 1.247 . S
O433 Cd422 2.439 . S
O433 C427 1.208 . S
O434 Cd435 2.223 . S
O434 C442 1.315 . S
Cd435 O434 2.223 . S
Cd435 O438 2.297 . S
Cd435 O439 2.439 . S
Cd435 O445 2.240 . S
Cd436 O437 2.240 . S
Cd436 O444 2.223 . S
Cd436 O446 2.297 . S
Cd436 O447 2.439 . S
O437 Cd436 2.240 . S
O437 C442 1.279 . S
O438 Cd435 2.297 . S
O438 C440 1.247 . S
O439 Cd435 2.439 . S
O439 C440 1.208 . S
C440 O438 1.247 . S
C440 O439 1.208 . S
C441 O446 1.247 . S
C441 O447 1.208 . S
C442 O434 1.315 . S
C442 O437 1.279 . S
C443 O444 1.315 . S
C443 O445 1.279 . S
O444 Cd436 2.223 . S
O444 C443 1.315 . S
O445 Cd435 2.240 . S
O445 C443 1.279 . S
O446 Cd436 2.297 . S
O446 C441 1.247 . S
O447 Cd436 2.439 . S
O447 C441 1.208 . S
C448 C449 1.388 1_545 S
C448 H452 0.950 . S
C448 C457 1.390 1_545 S
C449 C448 1.388 1_565 S
C449 C451 1.387 1_565 S
H450 C457 0.950 . S
C451 C449 1.387 1_545 S
C451 C453 1.390 1_545 S
C451 H455 0.950 . S
H452 C448 0.950 . S
C453 C451 1.390 1_565 S
C453 C454 1.388 1_565 S
C453 H456 0.950 . S
C454 C453 1.388 1_545 S
C454 C457 1.387 1_545 S
H455 C451 0.950 . S
H456 C453 0.950 . S
C457 C448 1.390 1_565 S
C457 H450 0.950 . S
C457 C454 1.387 1_565 S
C458 C459 1.387 . S
C458 H462 0.950 . S
C458 C467 1.390 . S
C459 C458 1.387 . S
C459 C461 1.387 . S
H460 C467 0.950 . S
C461 C459 1.387 . S
C461 C463 1.390 . S
C461 H465 0.950 . S
H462 C458 0.950 . S
C463 C461 1.390 . S
C463 C464 1.387 . S
C463 H466 0.950 . S
C464 C463 1.387 . S
C464 C467 1.387 . S
H465 C461 0.950 . S
H466 C463 0.950 . S
C467 C458 1.390 . S
C467 H460 0.950 . S
C467 C464 1.387 . S
C468 C469 1.387 . S
C468 H472 0.950 1_545 S
C468 C477 1.390 . S
C469 C468 1.387 . S
C469 C471 1.387 1_545 S
H470 C477 0.950 . S
C471 C469 1.387 1_565 S
C471 C473 1.390 . S
C471 H475 0.950 . S
H472 C468 0.950 1_565 S
C473 C471 1.390 . S
C473 C474 1.387 . S
C473 H476 0.950 1_565 S
C474 C473 1.387 . S
C474 C477 1.387 1_565 S
H475 C471 0.950 . S
H476 C473 0.950 1_545 S
C477 C468 1.390 . S
C477 H470 0.950 . S
C477 C474 1.387 1_545 S
C478 C479 1.387 . S
C478 H482 0.950 . S
C478 C487 1.390 1_556 S
C479 C478 1.387 . S
C479 C481 1.387 . S
H480 C487 0.950 . S
C481 C479 1.387 . S
C481 C483 1.390 1_556 S
C481 H485 0.950 . S
H482 C478 0.950 . S
C483 C481 1.390 1_554 S
C483 C484 1.387 . S
C483 H486 0.950 . S
C484 C483 1.387 . S
C484 C487 1.387 . S
H485 C481 0.950 . S
H486 C483 0.950 . S
C487 C478 1.390 1_554 S
C487 H480 0.950 . S
C487 C484 1.387 . S
C488 C489 1.387 . S
C488 H492 0.950 . S
C488 C497 1.390 1_565 S
C489 C488 1.387 . S
C489 C491 1.387 . S
H490 C497 0.950 . S
C491 C489 1.387 . S
C491 C493 1.390 1_565 S
C491 H495 0.950 . S
H492 C488 0.950 . S
C493 C491 1.390 1_545 S
C493 C494 1.387 . S
C493 H496 0.950 . S
C494 C493 1.387 . S
C494 C497 1.387 . S
H495 C491 0.950 . S
H496 C493 0.950 . S
C497 C488 1.390 1_545 S
C497 H490 0.950 . S
C497 C494 1.387 . S
C498 C499 1.387 . S
C498 H502 0.950 . S
C498 C507 1.390 . S
C499 C498 1.387 . S
C499 C501 1.387 . S
H500 C507 0.950 . S
C501 C499 1.387 . S
C501 C503 1.390 . S
C501 H505 0.950 . S
H502 C498 0.950 . S
C503 C501 1.390 . S
C503 C504 1.387 . S
C503 H506 0.950 . S
C504 C503 1.387 . S
C504 C507 1.387 . S
H505 C501 0.950 . S
H506 C503 0.950 . S
C507 C498 1.390 . S
C507 H500 0.950 . S
C507 C504 1.387 . S
C508 C509 1.387 . S
C508 H512 0.950 . S
C508 C517 1.390 . S
C509 C508 1.387 . S
C509 C511 1.387 1_545 S
H510 C517 0.950 . S
C511 C509 1.387 1_565 S
C511 C513 1.390 . S
C511 H515 0.950 . S
H512 C508 0.950 . S
C513 C511 1.390 . S
C513 C514 1.387 . S
C513 H516 0.950 . S
C514 C513 1.387 . S
C514 C517 1.387 1_565 S
H515 C511 0.950 . S
H516 C513 0.950 . S
C517 C508 1.390 . S
C517 H510 0.950 . S
C517 C514 1.387 1_545 S
C518 C519 1.387 . S
C518 H522 0.950 . S
C518 C527 1.390 1_556 S
C519 C518 1.387 . S
C519 C521 1.387 . S
H520 C527 0.950 . S
C521 C519 1.387 . S
C521 C523 1.390 1_556 S
C521 H525 0.950 . S
H522 C518 0.950 . S
C523 C521 1.390 1_554 S
C523 C524 1.387 . S
C523 H526 0.950 . S
C524 C523 1.387 . S
C524 C527 1.387 . S
H525 C521 0.950 . S
H526 C523 0.950 . S
C527 C518 1.390 1_554 S
C527 H520 0.950 . S
C527 C524 1.387 . S
C528 C529 1.387 . S
C528 H532 0.950 . S
C528 C537 1.390 . S
C529 C528 1.387 . S
C529 C531 1.387 . S
H530 C537 0.950 . S
C531 C529 1.387 . S
C531 C533 1.390 . S
C531 H535 0.950 . S
H532 C528 0.950 . S
C533 C531 1.390 . S
C533 C534 1.387 . S
C533 H536 0.950 . S
C534 C533 1.387 . S
C534 C537 1.387 . S
H535 C531 0.950 . S
H536 C533 0.950 . S
C537 C528 1.390 . S
C537 H530 0.950 . S
C537 C534 1.387 . S
C538 C539 1.387 . S
C538 H542 0.950 . S
C538 C547 1.390 1_554 S
C539 C538 1.387 . S
C539 C541 1.387 . S
H540 C547 0.950 . S
C541 C539 1.387 . S
C541 C543 1.390 1_554 S
C541 H545 0.950 . S
H542 C538 0.950 . S
C543 C541 1.390 1_556 S
C543 C544 1.387 . S
C543 H546 0.950 . S
C544 C543 1.387 . S
C544 C547 1.387 . S
H545 C541 0.950 . S
H546 C543 0.950 . S
C547 C538 1.390 1_556 S
C547 H540 0.950 . S
C547 C544 1.387 . S
C548 C549 1.387 . S
C548 H552 0.950 . S
C548 C557 1.390 . S
C549 C548 1.387 . S
C549 C551 1.387 . S
H550 C557 0.950 . S
C551 C549 1.387 . S
C551 C553 1.390 . S
C551 H555 0.950 . S
H552 C548 0.950 . S
C553 C551 1.390 . S
C553 C554 1.387 . S
C553 H556 0.950 . S
C554 C553 1.387 . S
C554 C557 1.387 . S
H555 C551 0.950 . S
H556 C553 0.950 . S
C557 C548 1.390 . S
C557 H550 0.950 . S
C557 C554 1.387 . S
C558 C559 1.387 . S
C558 H562 0.950 . S
C558 C567 1.390 . S
C559 C558 1.387 . S
C559 C561 1.387 . S
H560 C567 0.950 . S
C561 C559 1.387 . S
C561 C563 1.390 . S
C561 H565 0.950 . S
H562 C558 0.950 . S
C563 C561 1.390 . S
C563 C564 1.387 . S
C563 H566 0.950 . S
C564 C563 1.387 . S
C564 C567 1.387 . S
H565 C561 0.950 . S
H566 C563 0.950 . S
C567 C558 1.390 . S
C567 H560 0.950 . S
C567 C564 1.387 . S
C568 C569 1.387 . S
C568 H572 0.950 . S
C568 C577 1.390 . S
C569 C568 1.387 . S
C569 C571 1.387 . S
H570 C577 0.950 . S
C571 C569 1.387 . S
C571 C573 1.390 . S
C571 H575 0.950 . S
H572 C568 0.950 . S
C573 C571 1.390 . S
C573 C574 1.387 . S
C573 H576 0.950 . S
C574 C573 1.387 . S
C574 C577 1.387 . S
H575 C571 0.950 . S
H576 C573 0.950 . S
C577 C568 1.390 . S
C577 H570 0.950 . S
C577 C574 1.387 . S
C578 C579 1.387 . S
C578 H582 0.950 . S
C578 C587 1.390 1_554 S
C579 C578 1.387 . S
C579 C581 1.387 . S
H580 C587 0.950 . S
C581 C579 1.387 . S
C581 C583 1.390 1_554 S
C581 H585 0.950 . S
H582 C578 0.950 . S
C583 C581 1.390 1_556 S
C583 C584 1.387 . S
C583 H586 0.950 . S
C584 C583 1.387 . S
C584 C587 1.387 . S
H585 C581 0.950 . S
H586 C583 0.950 . S
C587 C578 1.390 1_556 S
C587 H580 0.950 . S
C587 C584 1.387 . S
C588 C589 1.387 . S
C588 H592 0.950 . S
C588 C597 1.390 . S
C589 C588 1.387 . S
C589 C591 1.387 . S
H590 C597 0.950 . S
C591 C589 1.387 . S
C591 C593 1.390 . S
C591 H595 0.950 . S
H592 C588 0.950 . S
C593 C591 1.390 . S
C593 C594 1.387 . S
C593 H596 0.950 . S
C594 C593 1.387 . S
C594 C597 1.387 . S
H595 C591 0.950 . S
H596 C593 0.950 . S
C597 C588 1.390 . S
C597 H590 0.950 . S
C597 C594 1.387 . S
C598 C599 1.387 . S
C598 H602 0.950 . S
C598 C607 1.390 . S
C599 C598 1.387 . S
C599 C601 1.387 . S
H600 C607 0.950 . S
C601 C599 1.387 . S
C601 C603 1.390 . S
C601 H605 0.950 . S
H602 C598 0.950 . S
C603 C601 1.390 . S
C603 C604 1.387 . S
C603 H606 0.950 . S
C604 C603 1.387 . S
C604 C607 1.387 . S
H605 C601 0.950 . S
H606 C603 0.950 . S
C607 C598 1.390 . S
C607 H600 0.950 . S
C607 C604 1.387 . S
C608 C609 1.387 . S
C608 H612 0.950 . S
C608 C617 1.390 . S
C609 C608 1.387 . S
C609 C611 1.387 . S
H610 C617 0.950 . S
C611 C609 1.387 . S
C611 C613 1.390 . S
C611 H615 0.950 . S
H612 C608 0.950 . S
C613 C611 1.390 . S
C613 C614 1.387 . S
C613 H616 0.950 . S
C614 C613 1.387 . S
C614 C617 1.387 . S
H615 C611 0.950 . S
H616 C613 0.950 . S
C617 C608 1.390 . S
C617 H610 0.950 . S
C617 C614 1.387 . S
C618 C619 1.387 . S
C618 H622 0.950 . S
C618 C627 1.390 . S
C619 C618 1.387 . S
C619 C621 1.387 . S
H620 C627 0.950 1_565 S
C621 C619 1.387 . S
C621 C623 1.390 . S
C621 H625 0.950 . S
H622 C618 0.950 . S
C623 C621 1.390 . S
C623 C624 1.387 . S
C623 H626 0.950 . S
C624 C623 1.387 . S
C624 C627 1.387 . S
H625 C621 0.950 . S
H626 C623 0.950 . S
C627 C618 1.390 . S
C627 H620 0.950 1_545 S
C627 C624 1.387 . S
C628 C629 1.387 . S
C628 H632 0.950 . S
C628 C637 1.390 . S
C629 C628 1.387 . S
C629 C631 1.387 . S
H630 C637 0.950 . S
C631 C629 1.387 . S
C631 C633 1.390 . S
C631 H635 0.950 1_545 S
H632 C628 0.950 . S
C633 C631 1.390 . S
C633 C634 1.387 . S
C633 H636 0.950 . S
C634 C633 1.387 . S
C634 C637 1.387 . S
H635 C631 0.950 1_565 S
H636 C633 0.950 . S
C637 C628 1.390 . S
C637 H630 0.950 . S
C637 C634 1.387 . S
C638 C639 1.387 . S
C638 H642 0.950 . S
C638 C647 1.390 . S
C639 C638 1.387 . S
C639 C641 1.387 . S
H640 C647 0.950 . S
C641 C639 1.387 . S
C641 C643 1.390 . S
C641 H645 0.950 . S
H642 C638 0.950 . S
C643 C641 1.390 . S
C643 C644 1.387 . S
C643 H646 0.950 . S
C644 C643 1.387 . S
C644 C647 1.387 . S
H645 C641 0.950 . S
H646 C643 0.950 . S
C647 C638 1.390 . S
C647 H640 0.950 . S
C647 C644 1.387 . S
C648 C649 1.387 . S
C648 H652 0.950 . S
C648 C657 1.390 . S
C649 C648 1.387 . S
C649 C651 1.387 . S
H650 C657 0.950 1_565 S
C651 C649 1.387 . S
C651 C653 1.390 . S
C651 H655 0.950 . S
H652 C648 0.950 . S
C653 C651 1.390 . S
C653 C654 1.387 . S
C653 H656 0.950 . S
C654 C653 1.387 . S
C654 C657 1.387 . S
H655 C651 0.950 . S
H656 C653 0.950 . S
C657 C648 1.390 . S
C657 H650 0.950 1_545 S
C657 C654 1.387 . S
C658 C659 1.387 . S
C658 H662 0.950 . S
C658 C667 1.390 . S
C659 C658 1.387 . S
C659 C661 1.387 . S
H660 C667 0.950 . S
C661 C659 1.387 . S
C661 C663 1.390 . S
C661 H665 0.950 . S
H662 C658 0.950 . S
C663 C661 1.390 . S
C663 C664 1.387 . S
C663 H666 0.950 . S
C664 C663 1.387 . S
C664 C667 1.387 . S
H665 C661 0.950 . S
H666 C663 0.950 . S
C667 C658 1.390 . S
C667 H660 0.950 . S
C667 C664 1.387 . S
C668 C669 1.387 . S
C668 H672 0.950 . S
C668 C677 1.390 . S
C669 C668 1.387 . S
C669 C671 1.387 . S
H670 C677 0.948 . S
C671 C669 1.387 . S
C671 C673 1.390 . S
C671 H675 0.950 . S
H672 C668 0.950 . S
C673 C671 1.390 . S
C673 C674 1.387 . S
C673 H676 0.950 . S
C674 C673 1.387 . S
C674 C677 1.387 . S
H675 C671 0.950 . S
H676 C673 0.950 . S
C677 C668 1.390 . S
C677 H670 0.948 . S
C677 C674 1.387 . S
C678 C679 1.387 . S
C678 H682 0.950 . S
C678 C687 1.390 . S
C679 C678 1.387 . S
C679 C681 1.387 . S
H680 C687 0.950 1_565 S
C681 C679 1.387 . S
C681 C683 1.390 . S
C681 H685 0.950 . S
H682 C678 0.950 . S
C683 C681 1.390 . S
C683 C684 1.387 . S
C683 H686 0.950 . S
C684 C683 1.387 . S
C684 C687 1.387 . S
H685 C681 0.950 . S
H686 C683 0.950 . S
C687 C678 1.390 . S
C687 H680 0.950 1_545 S
C687 C684 1.387 . S
C688 C689 1.387 . S
C688 H692 0.950 . S
C688 C697 1.390 . S
C689 C688 1.387 . S
C689 C691 1.387 . S
H690 C697 0.950 . S
C691 C689 1.387 . S
C691 C693 1.390 . S
C691 H695 0.950 . S
H692 C688 0.950 . S
C693 C691 1.390 . S
C693 C694 1.387 . S
C693 H696 0.950 . S
C694 C693 1.387 . S
C694 C697 1.387 . S
H695 C691 0.950 . S
H696 C693 0.950 . S
C697 C688 1.390 . S
C697 H690 0.950 . S
C697 C694 1.387 . S
C698 C699 1.387 . S
C698 H702 0.950 . S
C698 C707 1.390 . S
C699 C698 1.387 . S
C699 C701 1.387 . S
H700 C707 0.950 . S
C701 C699 1.387 . S
C701 C703 1.390 . S
C701 H705 0.950 . S
H702 C698 0.950 . S
C703 C701 1.390 . S
C703 C704 1.387 . S
C703 H706 0.950 . S
C704 C703 1.387 . S
C704 C707 1.387 . S
H705 C701 0.950 . S
H706 C703 0.950 . S
C707 C698 1.390 . S
C707 H700 0.950 . S
C707 C704 1.387 . S
C708 C709 1.387 . S
C708 H712 0.950 . S
C708 C717 1.390 . S
C709 C708 1.387 . S
C709 C711 1.387 . S
H710 C717 0.950 . S
C711 C709 1.387 . S
C711 C713 1.390 . S
C711 H715 0.950 . S
H712 C708 0.950 . S
C713 C711 1.390 . S
C713 C714 1.387 . S
C713 H716 0.950 . S
C714 C713 1.387 . S
C714 C717 1.387 . S
H715 C711 0.950 . S
H716 C713 0.950 . S
C717 C708 1.390 . S
C717 H710 0.950 . S
C717 C714 1.387 . S
C718 C719 1.387 . S
C718 H722 0.950 . S
C718 C727 1.390 . S
C719 C718 1.387 . S
C719 C721 1.387 . S
H720 C727 0.950 . S
C721 C719 1.387 . S
C721 C723 1.390 . S
C721 H725 0.950 . S
H722 C718 0.950 . S
C723 C721 1.390 . S
C723 C724 1.387 . S
C723 H726 0.950 . S
C724 C723 1.387 . S
C724 C727 1.387 . S
H725 C721 0.950 . S
H726 C723 0.950 . S
C727 C718 1.390 . S
C727 H720 0.950 . S
C727 C724 1.387 . S
C728 C729 1.387 . S
C728 H732 0.950 . S
C728 C737 1.390 . S
C729 C728 1.387 . S
C729 C731 1.387 . S
H730 C737 0.950 . S
C731 C729 1.387 . S
C731 C733 1.390 . S
C731 H735 0.950 . S
H732 C728 0.950 . S
C733 C731 1.390 . S
C733 C734 1.387 . S
C733 H736 0.950 . S
C734 C733 1.387 . S
C734 C737 1.387 . S
H735 C731 0.950 . S
H736 C733 0.950 . S
C737 C728 1.390 . S
C737 H730 0.950 . S
C737 C734 1.387 . S
C738 C739 1.387 . S
C738 H742 0.950 . S
C738 C747 1.390 . S
C739 C738 1.387 . S
C739 C741 1.387 . S
H740 C747 0.950 . S
C741 C739 1.387 . S
C741 C743 1.390 . S
C741 H745 0.950 . S
H742 C738 0.950 . S
C743 C741 1.390 . S
C743 C744 1.387 . S
C743 H746 0.950 . S
C744 C743 1.387 . S
C744 C747 1.387 . S
H745 C741 0.950 . S
H746 C743 0.950 . S
C747 C738 1.390 . S
C747 H740 0.950 . S
C747 C744 1.387 . S
C748 C749 1.387 . S
C748 H752 0.950 . S
C748 C757 1.390 . S
C749 C748 1.387 . S
C749 C751 1.387 . S
H750 C757 0.950 . S
C751 C749 1.387 . S
C751 C753 1.390 . S
C751 H755 0.950 . S
H752 C748 0.950 . S
C753 C751 1.390 . S
C753 C754 1.387 . S
C753 H756 0.950 . S
C754 C753 1.387 . S
C754 C757 1.387 . S
H755 C751 0.950 . S
H756 C753 0.950 . S
C757 C748 1.390 . S
C757 H750 0.950 . S
C757 C754 1.387 . S
C758 C759 1.387 . S
C758 H762 0.950 . S
C758 C767 1.390 . S
C759 C758 1.387 . S
C759 C761 1.387 . S
H760 C767 0.950 . S
C761 C759 1.387 . S
C761 C763 1.390 . S
C761 H765 0.950 . S
H762 C758 0.950 . S
C763 C761 1.390 . S
C763 C764 1.387 . S
C763 H766 0.950 . S
C764 C763 1.387 . S
C764 C767 1.387 . S
H765 C761 0.950 . S
H766 C763 0.950 . S
C767 C758 1.390 . S
C767 H760 0.950 . S
C767 C764 1.387 . S
C768 C769 1.387 . S
C768 H772 0.950 . S
C768 C777 1.390 . S
C769 C768 1.387 . S
C769 C771 1.387 . S
H770 C777 0.950 . S
C771 C769 1.387 . S
C771 C773 1.390 . S
C771 H775 0.950 . S
H772 C768 0.950 . S
C773 C771 1.390 . S
C773 C774 1.387 . S
C773 H776 0.950 . S
C774 C773 1.387 . S
C774 C777 1.387 . S
H775 C771 0.950 . S
H776 C773 0.950 . S
C777 C768 1.390 . S
C777 H770 0.950 . S
C777 C774 1.387 . S
C778 C779 1.387 . S
C778 H782 0.950 . S
C778 C787 1.390 . S
C779 C778 1.387 . S
C779 C781 1.387 . S
H780 C787 0.950 . S
C781 C779 1.387 . S
C781 C783 1.390 . S
C781 H785 0.950 . S
H782 C778 0.950 . S
C783 C781 1.390 . S
C783 C784 1.387 . S
C783 H786 0.950 . S
C784 C783 1.387 . S
C784 C787 1.387 . S
H785 C781 0.950 . S
H786 C783 0.950 . S
C787 C778 1.390 . S
C787 H780 0.950 . S
C787 C784 1.387 . S
C788 C789 1.387 . S
C788 H792 0.950 . S
C788 C797 1.390 . S
C789 C788 1.387 . S
C789 C791 1.387 . S
H790 C797 0.950 . S
C791 C789 1.387 . S
C791 C793 1.390 . S
C791 H795 0.950 . S
H792 C788 0.950 . S
C793 C791 1.390 . S
C793 C794 1.387 . S
C793 H796 0.950 . S
C794 C793 1.387 . S
C794 C797 1.387 . S
H795 C791 0.950 . S
H796 C793 0.950 . S
C797 C788 1.390 . S
C797 H790 0.950 . S
C797 C794 1.387 . S
C798 C799 1.387 . S
C798 H802 0.950 . S
C798 C807 1.390 . S
C799 C798 1.387 . S
C799 C801 1.387 . S
H800 C807 0.950 . S
C801 C799 1.387 . S
C801 C803 1.390 . S
C801 H805 0.950 . S
H802 C798 0.950 . S
C803 C801 1.390 . S
C803 C804 1.387 . S
C803 H806 0.950 . S
C804 C803 1.387 . S
C804 C807 1.387 . S
H805 C801 0.950 . S
H806 C803 0.950 . S
C807 C798 1.390 . S
C807 H800 0.950 . S
C807 C804 1.387 . S
C808 C809 1.387 . S
C808 H812 0.950 . S
C808 C817 1.390 . S
C809 C808 1.387 . S
C809 C811 1.387 . S
H810 C817 0.950 . S
C811 C809 1.387 . S
C811 C813 1.390 . S
C811 H815 0.950 . S
H812 C808 0.950 . S
C813 C811 1.390 . S
C813 C814 1.387 . S
C813 H816 0.950 . S
C814 C813 1.387 . S
C814 C817 1.387 . S
H815 C811 0.950 . S
H816 C813 0.950 . S
C817 C808 1.390 . S
C817 H810 0.950 . S
C817 C814 1.387 . S
C818 C819 1.387 . S
C818 H822 0.950 . S
C818 C827 1.390 . S
C819 C818 1.387 . S
C819 C821 1.387 . S
H820 C827 0.950 . S
C821 C819 1.387 . S
C821 C823 1.390 . S
C821 H825 0.950 . S
H822 C818 0.950 . S
C823 C821 1.390 . S
C823 C824 1.387 . S
C823 H826 0.950 . S
C824 C823 1.387 . S
C824 C827 1.387 . S
H825 C821 0.950 . S
H826 C823 0.950 . S
C827 C818 1.390 . S
C827 H820 0.950 . S
C827 C824 1.387 . S
C828 C829 1.387 . S
C828 H832 0.950 . S
C828 C837 1.390 . S
C829 C828 1.387 . S
C829 C831 1.387 . S
H830 C837 0.950 . S
C831 C829 1.387 . S
C831 C833 1.390 . S
C831 H835 0.950 . S
H832 C828 0.950 . S
C833 C831 1.390 . S
C833 C834 1.387 . S
C833 H836 0.950 . S
C834 C833 1.387 . S
C834 C837 1.387 . S
H835 C831 0.950 . S
H836 C833 0.950 . S
C837 C828 1.390 . S
C837 H830 0.950 . S
C837 C834 1.387 . S
C838 C839 1.387 . S
C838 H842 0.950 . S
C838 C847 1.390 . S
C839 C838 1.387 . S
C839 C841 1.387 . S
H840 C847 0.950 . S
C841 C839 1.387 . S
C841 C843 1.390 . S
C841 H845 0.950 . S
H842 C838 0.950 . S
C843 C841 1.390 . S
C843 C844 1.387 . S
C843 H846 0.950 . S
C844 C843 1.387 . S
C844 C847 1.387 . S
H845 C841 0.950 . S
H846 C843 0.950 . S
C847 C838 1.390 . S
C847 H840 0.950 . S
C847 C844 1.387 . S
C848 C849 1.387 . S
C848 H852 0.950 . S
C848 C857 1.390 . S
C849 C848 1.387 . S
C849 C851 1.387 . S
H850 C857 0.950 . S
C851 C849 1.387 . S
C851 C853 1.390 . S
C851 H855 0.950 . S
H852 C848 0.950 . S
C853 C851 1.390 . S
C853 C854 1.387 . S
C853 H856 0.950 . S
C854 C853 1.387 . S
C854 C857 1.387 . S
H855 C851 0.950 . S
H856 C853 0.950 . S
C857 C848 1.390 . S
C857 H850 0.950 . S
C857 C854 1.387 . S
C858 C859 1.387 . S
C858 H862 0.950 . S
C858 C867 1.390 . S
C859 C858 1.387 . S
C859 C861 1.387 . S
H860 C867 0.950 . S
C861 C859 1.387 . S
C861 C863 1.390 . S
C861 H865 0.950 . S
H862 C858 0.950 . S
C863 C861 1.390 . S
C863 C864 1.387 . S
C863 H866 0.950 . S
C864 C863 1.387 . S
C864 C867 1.387 . S
H865 C861 0.950 . S
H866 C863 0.950 . S
C867 C858 1.390 . S
C867 H860 0.950 . S
C867 C864 1.387 . S
C868 C869 1.387 . S
C868 H872 0.950 . S
C868 C877 1.390 . S
C869 C868 1.387 . S
C869 C871 1.387 . S
H870 C877 0.950 . S
C871 C869 1.387 . S
C871 C873 1.390 . S
C871 H875 0.950 . S
H872 C868 0.950 . S
C873 C871 1.390 . S
C873 C874 1.387 . S
C873 H876 0.950 . S
C874 C873 1.387 . S
C874 C877 1.387 . S
H875 C871 0.950 . S
H876 C873 0.950 . S
C877 C868 1.390 . S
C877 H870 0.950 . S
C877 C874 1.387 . S
C878 C879 1.387 . S
C878 H882 0.950 . S
C878 C887 1.390 . S
C879 C878 1.387 . S
C879 C881 1.387 . S
H880 C887 0.950 . S
C881 C879 1.387 . S
C881 C883 1.390 . S
C881 H885 0.950 . S
H882 C878 0.950 . S
C883 C881 1.390 . S
C883 C884 1.387 . S
C883 H886 0.950 . S
C884 C883 1.387 . S
C884 C887 1.387 . S
H885 C881 0.950 . S
H886 C883 0.950 . S
C887 C878 1.390 . S
C887 H880 0.950 . S
C887 C884 1.387 . S
C888 C889 1.387 . S
C888 H892 0.950 . S
C888 C897 1.390 . S
C889 C888 1.387 . S
C889 C891 1.387 . S
H890 C897 0.950 . S
C891 C889 1.387 . S
C891 C893 1.390 . S
C891 H895 0.950 . S
H892 C888 0.950 . S
C893 C891 1.390 . S
C893 C894 1.387 . S
C893 H896 0.950 . S
C894 C893 1.387 . S
C894 C897 1.387 . S
H895 C891 0.950 . S
H896 C893 0.950 . S
C897 C888 1.390 . S
C897 H890 0.950 . S
C897 C894 1.387 . S
C898 C899 1.387 . S
C898 H902 0.950 . S
C898 C907 1.390 . S
C899 C898 1.387 . S
C899 C901 1.387 . S
H900 C907 0.950 . S
C901 C899 1.387 . S
C901 C903 1.390 . S
C901 H905 0.950 . S
H902 C898 0.950 . S
C903 C901 1.390 . S
C903 C904 1.387 . S
C903 H906 0.950 . S
C904 C903 1.387 . S
C904 C907 1.387 . S
H905 C901 0.950 . S
H906 C903 0.950 . S
C907 C898 1.390 . S
C907 H900 0.950 . S
C907 C904 1.387 . S
C908 C909 1.387 . S
C908 H912 0.950 . S
C908 C917 1.390 . S
C909 C908 1.387 . S
C909 C911 1.387 . S
H910 C917 0.950 . S
C911 C909 1.387 . S
C911 C913 1.390 . S
C911 H915 0.950 . S
H912 C908 0.950 . S
C913 C911 1.390 . S
C913 C914 1.387 . S
C913 H916 0.950 . S
C914 C913 1.387 . S
C914 C917 1.387 . S
H915 C911 0.950 . S
H916 C913 0.950 . S
C917 C908 1.390 . S
C917 H910 0.950 . S
C917 C914 1.387 . S
C918 C919 1.387 . S
C918 H922 0.950 . S
C918 C927 1.390 . S
C919 C918 1.387 . S
C919 C921 1.387 . S
H920 C927 0.950 . S
C921 C919 1.387 . S
C921 C923 1.390 . S
C921 H925 0.950 . S
H922 C918 0.950 . S
C923 C921 1.390 . S
C923 C924 1.387 . S
C923 H926 0.950 . S
C924 C923 1.387 . S
C924 C927 1.387 . S
H925 C921 0.950 . S
H926 C923 0.950 . S
C927 C918 1.390 . S
C927 H920 0.950 . S
C927 C924 1.387 . S
C928 C929 1.387 . S
C928 H932 0.950 . S
C928 C937 1.390 . S
C929 C928 1.387 . S
C929 C931 1.387 . S
H930 C937 0.950 . S
C931 C929 1.387 . S
C931 C933 1.390 . S
C931 H935 0.950 . S
H932 C928 0.950 . S
C933 C931 1.390 . S
C933 C934 1.387 . S
C933 H936 0.950 . S
C934 C933 1.387 . S
C934 C937 1.387 . S
H935 C931 0.950 . S
H936 C933 0.950 . S
C937 C928 1.390 . S
C937 H930 0.950 . S
C937 C934 1.387 . S
C938 C939 1.387 . S
C938 H942 0.950 . S
C938 C947 1.390 . S
C939 C938 1.387 . S
C939 C941 1.387 . S
H940 C947 0.950 . S
C941 C939 1.387 . S
C941 C943 1.390 . S
C941 H945 0.950 . S
H942 C938 0.950 . S
C943 C941 1.390 . S
C943 C944 1.387 . S
C943 H946 0.950 . S
C944 C943 1.387 . S
C944 C947 1.387 . S
H945 C941 0.950 . S
H946 C943 0.950 . S
C947 C938 1.390 . S
C947 H940 0.950 . S
C947 C944 1.387 . S
C948 C949 1.387 . S
C948 H952 0.950 . S
C948 C957 1.390 . S
C949 C948 1.387 . S
C949 C951 1.387 . S
H950 C957 0.950 . S
C951 C949 1.387 . S
C951 C953 1.390 . S
C951 H955 0.950 . S
H952 C948 0.950 . S
C953 C951 1.390 . S
C953 C954 1.387 . S
C953 H956 0.950 . S
C954 C953 1.387 . S
C954 C957 1.387 . S
H955 C951 0.950 . S
H956 C953 0.950 . S
C957 C948 1.390 . S
C957 H950 0.950 . S
C957 C954 1.387 . S
C958 C959 1.387 . S
C958 H962 0.950 . S
C958 C967 1.390 . S
C959 C958 1.387 . S
C959 C961 1.387 . S
H960 C967 0.950 . S
C961 C959 1.387 . S
C961 C963 1.390 . S
C961 H965 0.950 . S
H962 C958 0.950 . S
C963 C961 1.390 . S
C963 C964 1.387 . S
C963 H966 0.950 . S
C964 C963 1.387 . S
C964 C967 1.387 . S
H965 C961 0.950 . S
H966 C963 0.950 . S
C967 C958 1.390 . S
C967 H960 0.950 . S
C967 C964 1.387 . S
C968 C969 1.387 . S
C968 H972 0.950 . S
C968 C977 1.390 . S
C969 C968 1.387 . S
C969 C971 1.387 . S
H970 C977 0.950 . S
C971 C969 1.387 . S
C971 C973 1.390 . S
C971 H975 0.950 . S
H972 C968 0.950 . S
C973 C971 1.390 . S
C973 C974 1.387 . S
C973 H976 0.950 . S
C974 C973 1.387 . S
C974 C977 1.387 . S
H975 C971 0.950 . S
H976 C973 0.950 . S
C977 C968 1.390 . S
C977 H970 0.950 . S
C977 C974 1.387 . S
C978 C979 1.387 . S
C978 H982 0.950 . S
C978 C987 1.390 . S
C979 C978 1.387 . S
C979 C981 1.387 . S
H980 C987 0.950 . S
C981 C979 1.387 . S
C981 C983 1.390 . S
C981 H985 0.950 . S
H982 C978 0.950 . S
C983 C981 1.390 . S
C983 C984 1.387 . S
C983 H986 0.950 . S
C984 C983 1.387 . S
C984 C987 1.387 . S
H985 C981 0.950 . S
H986 C983 0.950 . S
C987 C978 1.390 . S
C987 H980 0.950 . S
C987 C984 1.387 . S
C988 C989 1.387 . S
C988 H992 0.950 . S
C988 C997 1.390 . S
C989 C988 1.387 . S
C989 C991 1.387 . S
H990 C997 0.950 . S
C991 C989 1.387 . S
C991 C993 1.390 . S
C991 H995 0.950 . S
H992 C988 0.950 . S
C993 C991 1.390 . S
C993 C994 1.387 . S
C993 H996 0.950 . S
C994 C993 1.387 . S
C994 C997 1.387 . S
H995 C991 0.950 . S
H996 C993 0.950 . S
C997 C988 1.390 . S
C997 H990 0.950 . S
C997 C994 1.387 . S
C998 C999 1.387 . S
C998 H1002 0.950 . S
C998 C1007 1.390 . S
C999 C998 1.387 . S
C999 C1001 1.387 . S
H1000 C1007 0.950 . S
C1001 C999 1.387 . S
C1001 C1003 1.390 . S
C1001 H1005 0.950 . S
H1002 C998 0.950 . S
C1003 C1001 1.390 . S
C1003 C1004 1.387 . S
C1003 H1006 0.950 . S
C1004 C1003 1.387 . S
C1004 C1007 1.387 . S
H1005 C1001 0.950 . S
H1006 C1003 0.950 . S
C1007 C998 1.390 . S
C1007 H1000 0.950 . S
C1007 C1004 1.387 . S
C1008 C1009 1.387 . S
C1008 H1012 0.950 . S
C1008 C1017 1.390 . S
C1009 C1008 1.387 . S
C1009 C1011 1.387 . S
H1010 C1017 0.950 . S
C1011 C1009 1.387 . S
C1011 C1013 1.390 . S
C1011 H1015 0.950 . S
H1012 C1008 0.950 . S
C1013 C1011 1.390 . S
C1013 C1014 1.387 . S
C1013 H1016 0.950 . S
C1014 C1013 1.387 . S
C1014 C1017 1.387 . S
H1015 C1011 0.950 . S
H1016 C1013 0.950 . S
C1017 C1008 1.390 . S
C1017 H1010 0.950 . S
C1017 C1014 1.387 . S
C1018 C1019 1.387 . S
C1018 H1022 0.950 . S
C1018 C1027 1.390 . S
C1019 C1018 1.387 . S
C1019 C1021 1.387 . S
H1020 C1027 0.950 . S
C1021 C1019 1.387 . S
C1021 C1023 1.390 . S
C1021 H1025 0.950 . S
H1022 C1018 0.950 . S
C1023 C1021 1.390 . S
C1023 C1024 1.387 . S
C1023 H1026 0.950 . S
C1024 C1023 1.387 . S
C1024 C1027 1.387 . S
H1025 C1021 0.950 . S
H1026 C1023 0.950 . S
C1027 C1018 1.390 . S
C1027 H1020 0.950 . S
C1027 C1024 1.387 . S
C1028 C1029 1.387 . S
C1028 H1032 0.950 . S
C1028 C1037 1.390 . S
C1029 C1028 1.387 . S
C1029 C1031 1.387 . S
H1030 C1037 0.950 . S
C1031 C1029 1.387 . S
C1031 C1033 1.390 . S
C1031 H1035 0.950 . S
H1032 C1028 0.950 . S
C1033 C1031 1.390 . S
C1033 C1034 1.387 . S
C1033 H1036 0.950 . S
C1034 C1033 1.387 . S
C1034 C1037 1.387 . S
H1035 C1031 0.950 . S
H1036 C1033 0.950 . S
C1037 C1028 1.390 . S
C1037 H1030 0.950 . S
C1037 C1034 1.387 . S
C1038 C1039 1.387 . S
C1038 H1042 0.950 . S
C1038 C1047 1.390 . S
C1039 C1038 1.387 . S
C1039 C1041 1.387 . S
H1040 C1047 0.950 . S
C1041 C1039 1.387 . S
C1041 C1043 1.390 . S
C1041 H1045 0.950 . S
H1042 C1038 0.950 . S
C1043 C1041 1.390 . S
C1043 C1044 1.387 . S
C1043 H1046 0.950 . S
C1044 C1043 1.387 . S
C1044 C1047 1.387 . S
H1045 C1041 0.950 . S
H1046 C1043 0.950 . S
C1047 C1038 1.390 . S
C1047 H1040 0.950 . S
C1047 C1044 1.387 . S
C1048 C1049 1.387 . S
C1048 H1052 0.950 . S
C1048 C1057 1.390 . S
C1049 C1048 1.387 . S
C1049 C1051 1.387 . S
H1050 C1057 0.950 . S
C1051 C1049 1.387 . S
C1051 C1053 1.390 . S
C1051 H1055 0.950 . S
H1052 C1048 0.950 . S
C1053 C1051 1.390 . S
C1053 C1054 1.387 . S
C1053 H1056 0.950 . S
C1054 C1053 1.387 . S
C1054 C1057 1.387 . S
H1055 C1051 0.950 . S
H1056 C1053 0.950 . S
C1057 C1048 1.390 . S
C1057 H1050 0.950 . S
C1057 C1054 1.387 . S
C1058 C1059 1.387 . S
C1058 H1062 0.950 . S
C1058 C1067 1.390 . S
C1059 C1058 1.387 . S
C1059 C1061 1.387 . S
H1060 C1067 0.950 . S
C1061 C1059 1.387 . S
C1061 C1063 1.390 . S
C1061 H1065 0.950 . S
H1062 C1058 0.950 . S
C1063 C1061 1.390 . S
C1063 C1064 1.387 . S
C1063 H1066 0.950 . S
C1064 C1063 1.387 . S
C1064 C1067 1.387 . S
H1065 C1061 0.950 . S
H1066 C1063 0.950 . S
C1067 C1058 1.390 . S
C1067 H1060 0.950 . S
C1067 C1064 1.387 . S
C1068 C1069 1.387 . S
C1068 H1072 0.950 . S
C1068 C1077 1.390 . S
C1069 C1068 1.387 . S
C1069 C1071 1.387 . S
H1070 C1077 0.950 . S
C1071 C1069 1.387 . S
C1071 C1073 1.390 . S
C1071 H1075 0.950 . S
H1072 C1068 0.950 . S
C1073 C1071 1.390 . S
C1073 C1074 1.387 . S
C1073 H1076 0.950 . S
C1074 C1073 1.387 . S
C1074 C1077 1.387 . S
H1075 C1071 0.950 . S
H1076 C1073 0.950 . S
C1077 C1068 1.390 . S
C1077 H1070 0.950 . S
C1077 C1074 1.387 . S
C1078 C1079 1.387 . S
C1078 H1082 0.950 . S
C1078 C1087 1.390 . S
C1079 C1078 1.387 . S
C1079 C1081 1.387 . S
H1080 C1087 0.950 . S
C1081 C1079 1.387 . S
C1081 C1083 1.390 . S
C1081 H1085 0.950 . S
H1082 C1078 0.950 . S
C1083 C1081 1.390 . S
C1083 C1084 1.387 . S
C1083 H1086 0.950 . S
C1084 C1083 1.387 . S
C1084 C1087 1.387 . S
H1085 C1081 0.950 . S
H1086 C1083 0.950 . S
C1087 C1078 1.390 . S
C1087 H1080 0.950 . S
C1087 C1084 1.387 . S
C449 C62 1.533 . S
C454 C6 1.533 . S
C459 C76 1.533 . S
C464 C20 1.533 . S
C469 C90 1.533 . S
C474 C34 1.533 . S
C479 C48 1.533 . S
C484 C104 1.533 . S
C489 C118 1.533 . S
C494 C174 1.533 . S
C499 C188 1.530 . S
C504 C132 1.530 . S
C509 C146 1.533 . S
C514 C202 1.533 . S
C519 C216 1.530 . S
C524 C160 1.530 . S
C529 C230 1.533 . S
C534 C286 1.534 . S
C539 C300 1.533 . S
C544 C244 1.533 . S
C549 C314 1.533 . S
C554 C258 1.533 . S
C559 C328 1.533 . S
C564 C272 1.533 . S
C569 C342 1.533 . S
C574 C398 1.533 . S
C579 C356 1.530 . S
C584 C412 1.530 . S
C589 C370 1.530 . S
C594 C426 1.530 . S
C599 C384 1.533 . S
C604 C440 1.533 . S
C609 C8 1.708 1_565 S
C614 C106 1.707 . S
C619 C22 1.708 . S
C624 C64 1.707 1_545 S
C629 C36 1.708 1_545 S
C634 C78 1.708 . S
C639 C92 1.707 1_565 S
C644 C50 1.707 . S
C649 C218 1.708 . S
C654 C120 1.708 1_545 S
C659 C176 1.708 1_565 S
C664 C134 1.708 . S
C669 C190 1.708 . S
C674 C148 1.708 1_565 S
C679 C162 1.708 . S
C684 C204 1.708 1_545 S
C689 C330 1.708 . S
C694 C232 1.708 . S
C699 C288 1.707 . S
C704 C246 1.707 . S
C709 C302 1.708 . S
C714 C260 1.707 . S
C719 C274 1.708 . S
C724 C316 1.708 . S
C729 C344 1.708 . S
C734 C442 1.708 . S
C739 C358 1.708 . S
C744 C400 1.707 . S
C749 C372 1.707 . S
C754 C414 1.708 . S
C759 C428 1.707 . S
C764 C386 1.707 . S
C769 C9 1.452 . S
C774 C357 1.456 . S
C779 C23 1.453 . S
C784 C147 1.454 . S
C789 C37 1.451 . S
C794 C385 1.454 . S
C799 C119 1.455 . S
C804 C51 1.452 . S
C809 C441 1.455 . S
C814 C65 1.454 . S
C819 C79 1.453 . S
C824 C175 1.454 . S
C829 C93 1.453 . S
C834 C413 1.455 . S
C839 C107 1.451 . S
C844 C203 1.454 . S
C849 C245 1.454 . S
C854 C121 1.451 . S
C859 C35 1.453 . S
C864 C135 1.451 . S
C869 C273 1.453 . S
C874 C149 1.452 . S
C879 C163 1.451 . S
C884 C7 1.455 . S
C889 C329 1.455 . S
C894 C177 1.451 . S
C899 C63 1.454 . S
C904 C191 1.453 . S
C909 C301 1.453 . S
C914 C205 1.451 . S
C919 C91 1.456 . S
C924 C219 1.453 . S
C929 C133 1.455 . S
C934 C233 1.451 . S
C939 C247 1.452 . S
C944 C371 1.455 . S
C949 C261 1.454 . S
C954 C161 1.455 . S
C959 C275 1.452 . S
C964 C343 1.455 . S
C969 C289 1.453 . S
C974 C217 1.454 . S
C979 C399 1.455 . S
C984 C303 1.452 . S
C989 C317 1.451 . S
C994 C189 1.454 . S
C999 C331 1.452 . S
C1004 C427 1.454 . S
C1009 C345 1.451 . S
C1014 C21 1.453 . S
C1019 C359 1.453 . S
C1024 C259 1.456 . S
C1029 C49 1.454 . S
C1034 C373 1.451 . S
C1039 C231 1.454 . S
C1044 C387 1.453 . S
C1049 C401 1.454 . S
C1054 C105 1.455 . S
C1059 C415 1.452 . S
C1064 C287 1.453 . S
C1069 C77 1.454 . S
C1074 C429 1.451 . S
C1079 C315 1.454 . S
C1084 C443 1.453 . S
