# Generated by pormake.
# Topology sxf, (6)-cn, num edge types: 1
# Building blocks:
#     Node 0, Type 0, BuildingBlock: OJICUG_clean_sbu_0, # of connection points: 6
#     Node 1, Type 0, BuildingBlock: OJICUG_clean_sbu_0, # of connection points: 6
#     Node 2, Type 0, BuildingBlock: OJICUG_clean_sbu_0, # of connection points: 6
#     Node 3, Type 0, BuildingBlock: OJICUG_clean_sbu_0, # of connection points: 6
#     Node 4, Type 0, BuildingBlock: OJICUG_clean_sbu_0, # of connection points: 6
#     Node 5, Type 0, BuildingBlock: OJICUG_clean_sbu_0, # of connection points: 6
#     Node 6, Type 0, BuildingBlock: OJICUG_clean_sbu_0, # of connection points: 6
#     Node 7, Type 0, BuildingBlock: OJICUG_clean_sbu_0, # of connection points: 6
#     Node 8, Type 0, BuildingBlock: OJICUG_clean_sbu_0, # of connection points: 6
#     Node 9, Type 0, BuildingBlock: OJICUG_clean_sbu_0, # of connection points: 6
#     Node 10, Type 0, BuildingBlock: OJICUG_clean_sbu_0, # of connection points: 6
#     Node 11, Type 0, BuildingBlock: OJICUG_clean_sbu_0, # of connection points: 6
#     Node 12, Type 0, BuildingBlock: OJICUG_clean_sbu_0, # of connection points: 6
#     Node 13, Type 0, BuildingBlock: OJICUG_clean_sbu_0, # of connection points: 6
#     Node 14, Type 0, BuildingBlock: OJICUG_clean_sbu_0, # of connection points: 6
#     Node 15, Type 0, BuildingBlock: OJICUG_clean_sbu_0, # of connection points: 6
#     Node 16, Type 0, BuildingBlock: OJICUG_clean_sbu_0, # of connection points: 6
#     Node 17, Type 0, BuildingBlock: OJICUG_clean_sbu_0, # of connection points: 6
#     Node 18, Type 0, BuildingBlock: OJICUG_clean_sbu_0, # of connection points: 6
#     Node 19, Type 0, BuildingBlock: OJICUG_clean_sbu_0, # of connection points: 6
#     Node 20, Type 0, BuildingBlock: OJICUG_clean_sbu_0, # of connection points: 6
#     Node 21, Type 0, BuildingBlock: OJICUG_clean_sbu_0, # of connection points: 6
#     Node 22, Type 0, BuildingBlock: OJICUG_clean_sbu_0, # of connection points: 6
#     Node 23, Type 0, BuildingBlock: OJICUG_clean_sbu_0, # of connection points: 6
#     Edge 24, Type (0, 0), BuildingBlock: XIVTED_clean_linker_0, # of connection points: 2
#     Edge 25, Type (0, 0), BuildingBlock: XIVTED_clean_linker_0, # of connection points: 2
#     Edge 26, Type (0, 0), BuildingBlock: XIVTED_clean_linker_0, # of connection points: 2
#     Edge 27, Type (0, 0), BuildingBlock: XIVTED_clean_linker_0, # of connection points: 2
#     Edge 28, Type (0, 0), BuildingBlock: XIVTED_clean_linker_0, # of connection points: 2
#     Edge 29, Type (0, 0), BuildingBlock: XIVTED_clean_linker_0, # of connection points: 2
#     Edge 30, Type (0, 0), BuildingBlock: XIVTED_clean_linker_0, # of connection points: 2
#     Edge 31, Type (0, 0), BuildingBlock: XIVTED_clean_linker_0, # of connection points: 2
#     Edge 32, Type (0, 0), BuildingBlock: XIVTED_clean_linker_0, # of connection points: 2
#     Edge 33, Type (0, 0), BuildingBlock: XIVTED_clean_linker_0, # of connection points: 2
#     Edge 34, Type (0, 0), BuildingBlock: XIVTED_clean_linker_0, # of connection points: 2
#     Edge 35, Type (0, 0), BuildingBlock: XIVTED_clean_linker_0, # of connection points: 2
#     Edge 36, Type (0, 0), BuildingBlock: XIVTED_clean_linker_0, # of connection points: 2
#     Edge 37, Type (0, 0), BuildingBlock: XIVTED_clean_linker_0, # of connection points: 2
#     Edge 38, Type (0, 0), BuildingBlock: XIVTED_clean_linker_0, # of connection points: 2
#     Edge 39, Type (0, 0), BuildingBlock: XIVTED_clean_linker_0, # of connection points: 2
#     Edge 40, Type (0, 0), BuildingBlock: XIVTED_clean_linker_0, # of connection points: 2
#     Edge 41, Type (0, 0), BuildingBlock: XIVTED_clean_linker_0, # of connection points: 2
#     Edge 42, Type (0, 0), BuildingBlock: XIVTED_clean_linker_0, # of connection points: 2
#     Edge 43, Type (0, 0), BuildingBlock: XIVTED_clean_linker_0, # of connection points: 2
#     Edge 44, Type (0, 0), BuildingBlock: XIVTED_clean_linker_0, # of connection points: 2
#     Edge 45, Type (0, 0), BuildingBlock: XIVTED_clean_linker_0, # of connection points: 2
#     Edge 46, Type (0, 0), BuildingBlock: XIVTED_clean_linker_0, # of connection points: 2
#     Edge 47, Type (0, 0), BuildingBlock: XIVTED_clean_linker_0, # of connection points: 2
#     Edge 48, Type (0, 0), BuildingBlock: XIVTED_clean_linker_0, # of connection points: 2
#     Edge 49, Type (0, 0), BuildingBlock: XIVTED_clean_linker_0, # of connection points: 2
#     Edge 50, Type (0, 0), BuildingBlock: XIVTED_clean_linker_0, # of connection points: 2
#     Edge 51, Type (0, 0), BuildingBlock: XIVTED_clean_linker_0, # of connection points: 2
#     Edge 52, Type (0, 0), BuildingBlock: XIVTED_clean_linker_0, # of connection points: 2
#     Edge 53, Type (0, 0), BuildingBlock: XIVTED_clean_linker_0, # of connection points: 2
#     Edge 54, Type (0, 0), BuildingBlock: XIVTED_clean_linker_0, # of connection points: 2
#     Edge 55, Type (0, 0), BuildingBlock: XIVTED_clean_linker_0, # of connection points: 2
#     Edge 56, Type (0, 0), BuildingBlock: XIVTED_clean_linker_0, # of connection points: 2
#     Edge 57, Type (0, 0), BuildingBlock: XIVTED_clean_linker_0, # of connection points: 2
#     Edge 58, Type (0, 0), BuildingBlock: XIVTED_clean_linker_0, # of connection points: 2
#     Edge 59, Type (0, 0), BuildingBlock: XIVTED_clean_linker_0, # of connection points: 2
#     Edge 60, Type (0, 0), BuildingBlock: XIVTED_clean_linker_0, # of connection points: 2
#     Edge 61, Type (0, 0), BuildingBlock: XIVTED_clean_linker_0, # of connection points: 2
#     Edge 62, Type (0, 0), BuildingBlock: XIVTED_clean_linker_0, # of connection points: 2
#     Edge 63, Type (0, 0), BuildingBlock: XIVTED_clean_linker_0, # of connection points: 2
#     Edge 64, Type (0, 0), BuildingBlock: XIVTED_clean_linker_0, # of connection points: 2
#     Edge 65, Type (0, 0), BuildingBlock: XIVTED_clean_linker_0, # of connection points: 2
#     Edge 66, Type (0, 0), BuildingBlock: XIVTED_clean_linker_0, # of connection points: 2
#     Edge 67, Type (0, 0), BuildingBlock: XIVTED_clean_linker_0, # of connection points: 2
#     Edge 68, Type (0, 0), BuildingBlock: XIVTED_clean_linker_0, # of connection points: 2
#     Edge 69, Type (0, 0), BuildingBlock: XIVTED_clean_linker_0, # of connection points: 2
#     Edge 70, Type (0, 0), BuildingBlock: XIVTED_clean_linker_0, # of connection points: 2
#     Edge 71, Type (0, 0), BuildingBlock: XIVTED_clean_linker_0, # of connection points: 2
#     Edge 72, Type (0, 0), BuildingBlock: XIVTED_clean_linker_0, # of connection points: 2
#     Edge 73, Type (0, 0), BuildingBlock: XIVTED_clean_linker_0, # of connection points: 2
#     Edge 74, Type (0, 0), BuildingBlock: XIVTED_clean_linker_0, # of connection points: 2
#     Edge 75, Type (0, 0), BuildingBlock: XIVTED_clean_linker_0, # of connection points: 2
#     Edge 76, Type (0, 0), BuildingBlock: XIVTED_clean_linker_0, # of connection points: 2
#     Edge 77, Type (0, 0), BuildingBlock: XIVTED_clean_linker_0, # of connection points: 2
#     Edge 78, Type (0, 0), BuildingBlock: XIVTED_clean_linker_0, # of connection points: 2
#     Edge 79, Type (0, 0), BuildingBlock: XIVTED_clean_linker_0, # of connection points: 2
#     Edge 80, Type (0, 0), BuildingBlock: XIVTED_clean_linker_0, # of connection points: 2
#     Edge 81, Type (0, 0), BuildingBlock: XIVTED_clean_linker_0, # of connection points: 2
#     Edge 82, Type (0, 0), BuildingBlock: XIVTED_clean_linker_0, # of connection points: 2
#     Edge 83, Type (0, 0), BuildingBlock: XIVTED_clean_linker_0, # of connection points: 2
#     Edge 84, Type (0, 0), BuildingBlock: XIVTED_clean_linker_0, # of connection points: 2
#     Edge 85, Type (0, 0), BuildingBlock: XIVTED_clean_linker_0, # of connection points: 2
#     Edge 86, Type (0, 0), BuildingBlock: XIVTED_clean_linker_0, # of connection points: 2
#     Edge 87, Type (0, 0), BuildingBlock: XIVTED_clean_linker_0, # of connection points: 2
#     Edge 88, Type (0, 0), BuildingBlock: XIVTED_clean_linker_0, # of connection points: 2
#     Edge 89, Type (0, 0), BuildingBlock: XIVTED_clean_linker_0, # of connection points: 2
#     Edge 90, Type (0, 0), BuildingBlock: XIVTED_clean_linker_0, # of connection points: 2
#     Edge 91, Type (0, 0), BuildingBlock: XIVTED_clean_linker_0, # of connection points: 2
#     Edge 92, Type (0, 0), BuildingBlock: XIVTED_clean_linker_0, # of connection points: 2
#     Edge 93, Type (0, 0), BuildingBlock: XIVTED_clean_linker_0, # of connection points: 2
#     Edge 94, Type (0, 0), BuildingBlock: XIVTED_clean_linker_0, # of connection points: 2
#     Edge 95, Type (0, 0), BuildingBlock: XIVTED_clean_linker_0, # of connection points: 2
# Relax obj value: 0.447
# Max RMSD: 0.186
# Mean RMSD: 0.186
data_MOF--net-sxf--node1-OJICUG_clean_sbu_0--edge1-XIVTED_clean_linker_0
_symmetry_space_group_name_H-M    P1
_symmetry_Int_Tables_number       1
_symmetry_cell_setting            triclinic
loop_
_symmetry_equiv_pos_as_xyz
'x, y, z'
_cell_length_a     46.157933
_cell_length_b     46.17099
_cell_length_c     46.182921
_cell_angle_alpha  89.997509
_cell_angle_beta   90.016304
_cell_angle_gamma 90.03838
loop_
_atom_site_label
_atom_site_type_symbol
_atom_site_fract_x
_atom_site_fract_y
_atom_site_fract_z
_atom_type_partial_charge
Sc0 Sc 0.08448 0.45613 0.17754 0.0
Sc1 Sc 0.08161 0.39147 0.21733 0.0
Sc2 Sc 0.05438 0.45675 0.247 0.0
O3 O 0.07342 0.43473 0.21399 0.0
C4 C 0.09797 0.50518 0.22351 0.0
C5 C 0.13682 0.41236 0.18089 0.0
C6 C 0.10381 0.41852 0.27681 0.0
C7 C 0.05737 0.39641 0.15378 0.0
C8 C 0.02142 0.48147 0.1923 0.0
C9 C 0.02275 0.39605 0.25347 0.0
O10 O 0.10317 0.49249 0.19971 0.0
O11 O 0.12221 0.39334 0.19434 0.0
O12 O 0.08612 0.43974 0.27659 0.0
O13 O 0.06671 0.42222 0.15104 0.0
O14 O 0.02157 0.47458 0.21898 0.0
O15 O 0.04193 0.38164 0.24009 0.0
O16 O 0.04284 0.47703 0.17551 0.0
O17 O 0.05947 0.382 0.17722 0.0
O18 O 0.02459 0.4231 0.25714 0.0
O19 O 0.12705 0.43747 0.17551 0.0
O20 O 0.08045 0.49508 0.2421 0.0
O21 O 0.10512 0.39932 0.25699 0.0
Sc22 Sc 0.4402 0.53774 0.74772 0.0
Sc23 Sc 0.41326 0.60327 0.71836 0.0
Sc24 Sc 0.41097 0.53924 0.67779 0.0
O25 O 0.42156 0.56009 0.71468 0.0
C26 C 0.47397 0.51413 0.69274 0.0
C27 C 0.47196 0.59824 0.75484 0.0
C28 C 0.43727 0.59964 0.65484 0.0
C29 C 0.39076 0.57599 0.77752 0.0
C30 C 0.39724 0.48943 0.7233 0.0
C31 C 0.35835 0.58223 0.68141 0.0
O32 O 0.47277 0.51946 0.71976 0.0
O33 O 0.45256 0.61284 0.74196 0.0
O34 O 0.42747 0.57406 0.65168 0.0
O35 O 0.40877 0.55504 0.77744 0.0
O36 O 0.3934 0.50184 0.6991 0.0
O37 O 0.37309 0.60141 0.69452 0.0
O38 O 0.41356 0.49979 0.74281 0.0
O39 O 0.38912 0.595 0.75755 0.0
O40 O 0.36795 0.55692 0.67656 0.0
O41 O 0.47041 0.57108 0.75781 0.0
O42 O 0.45324 0.51967 0.67539 0.0
O43 O 0.43607 0.61331 0.67877 0.0
Sc44 Sc 0.55266 0.03625 0.74588 0.0
Sc45 Sc 0.57947 0.10229 0.77426 0.0
Sc46 Sc 0.58221 0.0388 0.81565 0.0
O47 O 0.57138 0.05911 0.77853 0.0
C48 C 0.51905 0.01367 0.80143 0.0
C49 C 0.52067 0.09651 0.73808 0.0
C50 C 0.55611 0.09949 0.83799 0.0
C51 C 0.60176 0.07437 0.71533 0.0
C52 C 0.59543 0.98814 0.77092 0.0
C53 C 0.63472 0.08181 0.81107 0.0
O54 O 0.52021 0.0184 0.77429 0.0
O55 O 0.53998 0.11138 0.75083 0.0
O56 O 0.56609 0.07404 0.8414 0.0
O57 O 0.58398 0.05321 0.71582 0.0
O58 O 0.5994 0.0009 0.79492 0.0
O59 O 0.6198 0.10079 0.79789 0.0
O60 O 0.57924 -0.00162 0.75124 0.0
O61 O 0.60332 0.09368 0.73501 0.0
O62 O 0.62528 0.05647 0.81618 0.0
O63 O 0.52241 0.06934 0.73535 0.0
O64 O 0.53985 0.0195 0.81861 0.0
O65 O 0.5569 0.11279 0.81384 0.0
Sc66 Sc 0.91167 0.95482 0.31559 0.0
Sc67 Sc 0.91407 0.89133 0.27417 0.0
Sc68 Sc 0.94096 0.95734 0.24575 0.0
O69 O 0.92229 0.93449 0.27843 0.0
C70 C 0.89836 0.00549 0.27095 0.0
C71 C 0.85898 0.91194 0.31113 0.0
C72 C 0.89167 0.91938 0.2153 0.0
C73 C 0.93769 0.8941 0.33784 0.0
C74 C 0.97488 0.97976 0.30117 0.0
C75 C 0.97275 0.89698 0.23783 0.0
O76 O 0.89436 0.99265 0.2949 0.0
O77 O 0.87374 0.89294 0.29781 0.0
O78 O 0.90943 0.94056 0.2158 0.0
O79 O 0.92788 0.91961 0.34127 0.0
O80 O 0.97364 0.97498 0.27404 0.0
O81 O 0.95351 0.88214 0.25072 0.0
O82 O 0.95408 0.97409 0.3184 0.0
O83 O 0.93665 0.88075 0.31373 0.0
O84 O 0.971 0.92414 0.23503 0.0
O85 O 0.86858 0.93719 0.31636 0.0
O86 O 0.9146 0.99534 0.25128 0.0
O87 O 0.89019 0.9 0.23493 0.0
Sc88 Sc 0.1781 0.08149 0.45523 0.0
Sc89 Sc 0.21964 0.07855 0.39185 0.0
Sc90 Sc 0.24818 0.05276 0.45823 0.0
O91 O 0.21537 0.07085 0.43509 0.0
C92 C 0.22281 0.09625 0.50546 0.0
C93 C 0.18228 0.1336 0.41163 0.0
C94 C 0.27834 0.10174 0.41969 0.0
C95 C 0.1561 0.05435 0.39489 0.0
C96 C 0.19297 0.01882 0.48119 0.0
C97 C 0.2564 0.02023 0.39835 0.0
O98 O 0.19877 0.09973 0.49264 0.0
O99 O 0.19575 0.1187 0.39284 0.0
O100 O 0.27798 0.08418 0.441 0.0
O101 O 0.15257 0.0644 0.42029 0.0
O102 O 0.22009 0.02016 0.47637 0.0
O103 O 0.24344 0.0392 0.38326 0.0
O104 O 0.17561 0.03942 0.47523 0.0
O105 O 0.18021 0.05555 0.3815 0.0
O106 O 0.25908 0.02227 0.42549 0.0
O107 O 0.17697 0.12424 0.43693 0.0
O108 O 0.24253 0.07984 0.49571 0.0
O109 O 0.25869 0.10289 0.40031 0.0
Sc110 Sc 0.31653 0.91134 0.95617 0.0
Sc111 Sc 0.27524 0.91355 0.89258 0.0
Sc112 Sc 0.24644 0.94016 0.95846 0.0
O113 O 0.27933 0.92175 0.93573 0.0
C114 C 0.27172 0.89754 0.00659 0.0
C115 C 0.31276 0.85882 0.91313 0.0
C116 C 0.21648 0.89065 0.92037 0.0
C117 C 0.33867 0.93783 0.89559 0.0
C118 C 0.3016 0.97437 0.98118 0.0
C119 C 0.2382 0.97179 0.8981 0.0
O120 O 0.29579 0.89376 0.9939 0.0
O121 O 0.2994 0.87356 0.89414 0.0
O122 O 0.21674 0.90848 0.94148 0.0
O123 O 0.34217 0.9279 0.92105 0.0
O124 O 0.27449 0.973 0.97627 0.0
O125 O 0.25124 0.95263 0.88333 0.0
O126 O 0.31896 0.95368 0.97554 0.0
O127 O 0.31456 0.93664 0.8822 0.0
O128 O 0.23556 0.97019 0.92528 0.0
O129 O 0.31771 0.86832 0.93846 0.0
O130 O 0.252 0.91368 0.99636 0.0
O131 O 0.23626 0.88922 0.90115 0.0
Sc132 Sc 0.67737 0.40987 0.53999 0.0
Sc133 Sc 0.71821 0.41298 0.60377 0.0
Sc134 Sc 0.74686 0.44017 0.53809 0.0
O135 O 0.71421 0.42109 0.56061 0.0
C136 C 0.72284 0.39709 0.48981 0.0
C137 C 0.68197 0.35747 0.58287 0.0
C138 C 0.77752 0.39123 0.57635 0.0
C139 C 0.65435 0.43577 0.60051 0.0
C140 C 0.69107 0.4731 0.51496 0.0
C141 C 0.75392 0.47214 0.59839 0.0
O142 O 0.69862 0.39315 0.50217 0.0
O143 O 0.69457 0.37262 0.60209 0.0
O144 O 0.77719 0.40933 0.55548 0.0
O145 O 0.65115 0.42548 0.57515 0.0
O146 O 0.71822 0.47214 0.51976 0.0
O147 O 0.74161 0.45247 0.61314 0.0
O148 O 0.67398 0.45224 0.52085 0.0
O149 O 0.6785 0.43549 0.61387 0.0
O150 O 0.7565 0.47069 0.57119 0.0
O151 O 0.67738 0.36674 0.5574 0.0
O152 O 0.74236 0.4133 0.50033 0.0
O153 O 0.75755 0.38922 0.59533 0.0
Sc154 Sc 0.74656 0.55217 0.03843 0.0
Sc155 Sc 0.77563 0.57862 0.10432 0.0
Sc156 Sc 0.81636 0.58166 0.0403 0.0
O157 O 0.77947 0.57075 0.06104 0.0
C158 C 0.80162 0.51891 0.0145 0.0
C159 C 0.73933 0.51987 0.09859 0.0
C160 C 0.8392 0.55456 0.10037 0.0
C161 C 0.71644 0.60113 0.07697 0.0
C162 C 0.77101 0.59556 0.99049 0.0
C163 C 0.81253 0.63382 0.084 0.0
O164 O 0.77464 0.51975 0.02014 0.0
O165 O 0.75228 0.53905 0.11345 0.0
O166 O 0.84233 0.56439 0.07481 0.0
O167 O 0.71674 0.58345 0.05576 0.0
O168 O 0.79505 0.5998 0.00313 0.0
O169 O 0.79916 0.61899 0.1029 0.0
O170 O 0.75167 0.57892 0.00068 0.0
O171 O 0.73626 0.60255 0.09617 0.0
O172 O 0.81773 0.62437 0.05871 0.0
O173 O 0.73631 0.52181 0.07148 0.0
O174 O 0.8188 0.53979 0.01998 0.0
O175 O 0.81541 0.55608 0.11429 0.0
Sc176 Sc 0.45801 0.24834 0.05293 0.0
Sc177 Sc 0.39205 0.21932 0.07936 0.0
Sc178 Sc 0.45575 0.17827 0.08172 0.0
O179 O 0.43526 0.21537 0.07125 0.0
C180 C 0.48086 0.19329 0.01875 0.0
C181 C 0.39765 0.25635 0.0211 0.0
C182 C 0.39518 0.15588 0.05523 0.0
C183 C 0.41994 0.27799 0.10257 0.0
C184 C 0.50615 0.22312 0.09557 0.0
C185 C 0.41268 0.182 0.13418 0.0
O186 O 0.47585 0.22038 0.02007 0.0
O187 O 0.38283 0.24322 0.04018 0.0
O188 O 0.42068 0.15251 0.06515 0.0
O189 O 0.44106 0.27787 0.08476 0.0
O190 O 0.49343 0.19907 0.09937 0.0
O191 O 0.39359 0.19519 0.1194 0.0
O192 O 0.49598 0.2428 0.07936 0.0
O193 O 0.4006 0.25827 0.10374 0.0
O194 O 0.43803 0.17714 0.12469 0.0
O195 O 0.42481 0.25919 0.02291 0.0
O196 O 0.47522 0.17592 0.03944 0.0
O197 O 0.38172 0.17994 0.05634 0.0
Sc198 Sc 0.9555 0.31598 0.90989 0.0
Sc199 Sc 0.89165 0.27527 0.91414 0.0
Sc200 Sc 0.95735 0.24727 0.9419 0.0
O201 O 0.93484 0.27945 0.92207 0.0
C202 C 0.00552 0.27028 0.89796 0.0
C203 C 0.91201 0.31075 0.85799 0.0
C204 C 0.91908 0.21563 0.8935 0.0
C205 C 0.89518 0.33943 0.93601 0.0
C206 C 0.98106 0.30364 0.97325 0.0
C207 C 0.89699 0.2404 0.97375 0.0
O208 O 0.99295 0.29419 0.89298 0.0
O209 O 0.89297 0.29824 0.87342 0.0
O210 O 0.94004 0.21635 0.91152 0.0
O211 O 0.92056 0.34252 0.92564 0.0
O212 O 0.97553 0.27661 0.97338 0.0
O213 O 0.88233 0.2525 0.95391 0.0
O214 O 0.97548 0.32006 0.9518 0.0
O215 O 0.88177 0.3153 0.936 0.0
O216 O 0.92421 0.23788 0.9725 0.0
O217 O 0.93755 0.31549 0.86699 0.0
O218 O 0.99522 0.25145 0.9151 0.0
O219 O 0.90006 0.23552 0.89115 0.0
Sc220 Sc 0.54039 0.67712 0.41131 0.0
Sc221 Sc 0.60393 0.71853 0.41388 0.0
Sc222 Sc 0.5379 0.74715 0.44033 0.0
O223 O 0.56074 0.71433 0.4219 0.0
C224 C 0.49009 0.72197 0.39722 0.0
C225 C 0.5837 0.68121 0.35895 0.0
C226 C 0.57616 0.77739 0.39116 0.0
C227 C 0.60093 0.65497 0.4379 0.0
C228 C 0.51483 0.69193 0.47415 0.0
C229 C 0.59813 0.75495 0.47246 0.0
O230 O 0.50281 0.69792 0.39349 0.0
O231 O 0.60256 0.69473 0.37372 0.0
O232 O 0.55501 0.77704 0.40892 0.0
O233 O 0.57542 0.65147 0.42804 0.0
O234 O 0.51981 0.71902 0.47287 0.0
O235 O 0.61295 0.74212 0.45322 0.0
O236 O 0.52064 0.67459 0.4535 0.0
O237 O 0.61432 0.67908 0.4367 0.0
O238 O 0.57095 0.75779 0.47069 0.0
O239 O 0.55841 0.67595 0.36841 0.0
O240 O 0.50015 0.74166 0.41352 0.0
O241 O 0.59544 0.75766 0.38976 0.0
Sc242 Sc 0.03589 0.74509 0.55236 0.0
Sc243 Sc 0.10205 0.77372 0.57869 0.0
Sc244 Sc 0.03858 0.81506 0.58137 0.0
O245 O 0.05884 0.77789 0.57073 0.0
C246 C 0.01304 0.80034 0.51852 0.0
C247 C 0.09603 0.737 0.52027 0.0
C248 C 0.09914 0.83721 0.55468 0.0
C249 C 0.07414 0.71499 0.60163 0.0
C250 C 0.98809 0.77032 0.59531 0.0
C251 C 0.08199 0.81137 0.63346 0.0
O252 O 0.01783 0.77322 0.51981 0.0
O253 O 0.11096 0.74974 0.53952 0.0
O254 O 0.07373 0.84068 0.56479 0.0
O255 O 0.05305 0.71526 0.58376 0.0
O256 O 0.00086 0.79436 0.59901 0.0
O257 O 0.10087 0.79803 0.61857 0.0
O258 O -0.00184 0.75057 0.57913 0.0
O259 O 0.09339 0.73477 0.60312 0.0
O260 O 0.05649 0.81606 0.62429 0.0
O261 O 0.06883 0.73443 0.52199 0.0
O262 O 0.01897 0.81767 0.53916 0.0
O263 O 0.11246 0.81306 0.55558 0.0
Sc264 Sc 0.91074 0.53849 0.81681 0.0
Sc265 Sc 0.91299 0.60246 0.77608 0.0
Sc266 Sc 0.93927 0.53673 0.7466 0.0
O267 O 0.92107 0.55924 0.77977 0.0
C268 C 0.97361 0.51329 0.80121 0.0
C269 C 0.93773 0.59872 0.83936 0.0
C270 C 0.9711 0.59719 0.73884 0.0
C271 C 0.85834 0.58189 0.81364 0.0
C272 C 0.89659 0.48845 0.77181 0.0
C273 C 0.88951 0.57494 0.71735 0.0
O274 O 0.95289 0.51856 0.81864 0.0
O275 O 0.93612 0.61246 0.81549 0.0
O276 O 0.9692 0.57008 0.73562 0.0
O277 O 0.86789 0.55661 0.81869 0.0
O278 O 0.91299 0.49862 0.75226 0.0
O279 O 0.88852 0.59422 0.73709 0.0
O280 O 0.89254 0.5012 0.79579 0.0
O281 O 0.87299 0.60084 0.80011 0.0
O282 O 0.90721 0.55372 0.71736 0.0
O283 O 0.92796 0.57316 0.84264 0.0
O284 O 0.97234 0.51886 0.77424 0.0
O285 O 0.95214 0.61183 0.75228 0.0
Sc286 Sc 0.5544 0.45638 0.24728 0.0
Sc287 Sc 0.58032 0.39038 0.27635 0.0
Sc288 Sc 0.58387 0.45426 0.31708 0.0
O289 O 0.57278 0.43367 0.28018 0.0
C290 C 0.5977 0.50431 0.27188 0.0
C291 C 0.60343 0.41764 0.21745 0.0
C292 C 0.63572 0.41049 0.31316 0.0
C293 C 0.52186 0.39637 0.23969 0.0
C294 C 0.52105 0.48001 0.3025 0.0
C295 C 0.55665 0.39419 0.33989 0.0
O296 O 0.58129 0.49406 0.2524 0.0
O297 O 0.6046 0.39844 0.23726 0.0
O298 O 0.62667 0.43602 0.31792 0.0
O299 O 0.52387 0.4235 0.23684 0.0
O300 O 0.54184 0.47427 0.31971 0.0
O301 O 0.55733 0.38065 0.31586 0.0
O302 O 0.52202 0.47475 0.27544 0.0
O303 O 0.54093 0.38142 0.25265 0.0
O304 O 0.56709 0.4195 0.34314 0.0
O305 O 0.58579 0.43891 0.21756 0.0
O306 O 0.60169 0.49171 0.29596 0.0
O307 O 0.62051 0.39156 0.30022 0.0
Sc308 Sc 0.44149 0.9569 0.24714 0.0
Sc309 Sc 0.41486 0.89029 0.22 0.0
Sc310 Sc 0.41139 0.95305 0.17767 0.0
O311 O 0.42268 0.93342 0.215 0.0
C312 C 0.39815 0.00429 0.22174 0.0
C313 C 0.39264 0.91902 0.27849 0.0
C314 C 0.35929 0.90979 0.18318 0.0
C315 C 0.4738 0.89697 0.25583 0.0
C316 C 0.47441 0.97898 0.19091 0.0
C317 C 0.43781 0.89215 0.15622 0.0
O318 O 0.41452 0.99444 0.24146 0.0
O319 O 0.39101 0.89946 0.25906 0.0
O320 O 0.36841 0.9352 0.17792 0.0
O321 O 0.47213 0.9242 0.25794 0.0
O322 O 0.45356 0.97261 0.17398 0.0
O323 O 0.43749 0.87937 0.18065 0.0
O324 O 0.47354 0.97465 0.21814 0.0
O325 O 0.45438 0.88183 0.24359 0.0
O326 O 0.42744 0.9174 0.15239 0.0
O327 O 0.41049 0.94013 0.27771 0.0
O328 O 0.39418 0.99119 0.19792 0.0
O329 O 0.37451 0.89102 0.19632 0.0
Sc330 Sc 0.08204 0.04546 0.67496 0.0
Sc331 Sc 0.08036 0.10585 0.71992 0.0
Sc332 Sc 0.05292 0.03915 0.74473 0.0
O333 O 0.07163 0.06337 0.71332 0.0
C334 C 0.01889 0.02054 0.68739 0.0
C335 C 0.05764 0.10801 0.65688 0.0
C336 C 0.02162 0.09873 0.75591 0.0
C337 C 0.13506 0.08605 0.68202 0.0
C338 C 0.09431 0.99195 0.71726 0.0
C339 C 0.10276 0.07524 0.77689 0.0
O340 O 0.03859 0.02916 0.67004 0.0
O341 O 0.05574 0.11814 0.68239 0.0
O342 O 0.02178 0.07137 0.75552 0.0
O343 O 0.12596 0.06045 0.67771 0.0
O344 O 0.08067 0.00241 0.73864 0.0
O345 O 0.10564 0.09456 0.75739 0.0
O346 O 0.09605 0.00483 0.69305 0.0
O347 O 0.11963 0.10531 0.69424 0.0
O348 O 0.08342 0.05547 0.77625 0.0
O349 O 0.0695 0.08381 0.65106 0.0
O350 O 0.02142 0.02164 0.71486 0.0
O351 O 0.04215 0.11387 0.74565 0.0
Sc352 Sc 0.74578 0.94156 0.53579 0.0
Sc353 Sc 0.77542 0.91462 0.6012 0.0
Sc354 Sc 0.81562 0.91209 0.53692 0.0
O355 O 0.77887 0.92279 0.55799 0.0
C356 C 0.77003 0.89872 0.48722 0.0
C357 C 0.71599 0.89222 0.57419 0.0
C358 C 0.812 0.85953 0.58015 0.0
C359 C 0.73892 0.97321 0.59638 0.0
C360 C 0.80065 0.9752 0.51204 0.0
C361 C 0.83899 0.93883 0.5969 0.0
O362 O 0.75082 0.9154 0.49755 0.0
O363 O 0.7359 0.89083 0.5933 0.0
O364 O 0.81713 0.86922 0.55494 0.0
O365 O 0.73546 0.97144 0.5693 0.0
O366 O 0.81779 0.95418 0.51703 0.0
O367 O 0.81523 0.93723 0.61085 0.0
O368 O 0.77371 0.97436 0.51789 0.0
O369 O 0.75225 0.95406 0.61087 0.0
O370 O 0.84202 0.92908 0.57131 0.0
O371 O 0.7162 0.90988 0.55294 0.0
O372 O 0.79402 0.8942 0.49983 0.0
O373 O 0.79882 0.87423 0.59928 0.0
Sc374 Sc 0.67776 0.08304 0.03829 0.0
Sc375 Sc 0.71907 0.08033 0.10184 0.0
Sc376 Sc 0.74713 0.05247 0.03618 0.0
O377 O 0.71471 0.07186 0.05877 0.0
C378 C 0.69122 0.01962 0.0134 0.0
C379 C 0.65511 0.05735 0.09909 0.0
C380 C 0.75463 0.02115 0.09682 0.0
C381 C 0.68286 0.13576 0.08101 0.0
C382 C 0.72277 0.09534 0.98773 0.0
C383 C 0.77822 0.10178 0.07365 0.0
O384 O 0.67444 0.04084 0.01878 0.0
O385 O 0.67927 0.05826 0.11239 0.0
O386 O 0.75743 0.02251 0.06964 0.0
O387 O 0.6775 0.12611 0.05583 0.0
O388 O 0.74198 0.07863 -0.002 0.0
O389 O 0.75859 0.10364 0.09299 0.0
O390 O 0.69893 0.10008 0.00054 0.0
O391 O 0.69595 0.1209 0.10009 0.0
O392 O 0.77756 0.08377 0.0527 0.0
O393 O 0.65171 0.06706 0.07351 0.0
O394 O 0.71829 0.02008 0.01876 0.0
O395 O 0.74204 0.04074 0.11139 0.0
Sc396 Sc 0.31687 0.58364 0.45309 0.0
Sc397 Sc 0.27547 0.58052 0.38969 0.0
Sc398 Sc 0.24721 0.55382 0.45578 0.0
O399 O 0.27978 0.57256 0.43286 0.0
C400 C 0.303 0.52065 0.4786 0.0
C401 C 0.3392 0.55744 0.39242 0.0
C402 C 0.2394 0.52162 0.39568 0.0
C403 C 0.31215 0.63592 0.41007 0.0
C404 C 0.27197 0.59694 0.50364 0.0
C405 C 0.21655 0.60277 0.41751 0.0
O406 O 0.32017 0.54135 0.47241 0.0
O407 O 0.31492 0.55776 0.37931 0.0
O408 O 0.23703 0.52322 0.42289 0.0
O409 O 0.3169 0.6267 0.43553 0.0
O410 O 0.25223 0.58082 0.49338 0.0
O411 O 0.23635 0.60453 0.39834 0.0
O412 O 0.2961 0.60065 0.49104 0.0
O413 O 0.29936 0.62077 0.39098 0.0
O414 O 0.21694 0.5848 0.43849 0.0
O415 O 0.34269 0.56778 0.41774 0.0
O416 O 0.27581 0.52174 0.47403 0.0
O417 O 0.25176 0.54111 0.38073 0.0
Sc418 Sc 0.17761 0.40981 0.95352 0.0
Sc419 Sc 0.21843 0.41287 0.88971 0.0
Sc420 Sc 0.2471 0.44017 0.95538 0.0
O421 O 0.21444 0.42104 0.93286 0.0
C422 C 0.19147 0.47306 0.97868 0.0
C423 C 0.15459 0.43593 0.89309 0.0
C424 C 0.25428 0.47194 0.89492 0.0
C425 C 0.18209 0.35741 0.9104 0.0
C426 C 0.223 0.39696 0.00364 0.0
C427 C 0.27765 0.39098 0.91741 0.0
O428 O 0.17449 0.45201 0.97315 0.0
O429 O 0.17863 0.43522 0.87955 0.0
O430 O 0.25714 0.47045 0.92209 0.0
O431 O 0.17712 0.3668 0.93575 0.0
O432 O 0.24227 0.41362 0.99336 0.0
O433 O 0.25784 0.3892 0.89823 0.0
O434 O 0.19898 0.39256 0.99104 0.0
O435 O 0.19504 0.37243 0.89134 0.0
O436 O 0.27728 0.409 0.93834 0.0
O437 O 0.15145 0.42593 0.91858 0.0
O438 O 0.21853 0.47237 0.97339 0.0
O439 O 0.24164 0.4524 0.88029 0.0
Sc440 Sc 0.53811 0.74515 0.94176 0.0
Sc441 Sc 0.60375 0.7742 0.9145 0.0
Sc442 Sc 0.53965 0.81489 0.91225 0.0
O443 O 0.56054 0.77803 0.92289 0.0
C444 C 0.48959 0.76985 0.89895 0.0
C445 C 0.5758 0.71519 0.89205 0.0
C446 C 0.58305 0.8114 0.85971 0.0
C447 C 0.59887 0.7376 0.97307 0.0
C448 C 0.51459 0.80001 0.97534 0.0
C449 C 0.59985 0.83759 0.93918 0.0
O450 O 0.49968 0.75079 0.91596 0.0
O451 O 0.59523 0.73482 0.8907 0.0
O452 O 0.55795 0.81682 0.86953 0.0
O453 O 0.57175 0.73431 0.97135 0.0
O454 O 0.51935 0.81697 0.95412 0.0
O455 O 0.61394 0.81397 0.93698 0.0
O456 O 0.52074 0.77315 0.97477 0.0
O457 O 0.61339 0.75093 0.95393 0.0
O458 O 0.57411 0.84073 0.92982 0.0
O459 O 0.55464 0.71557 0.90982 0.0
O460 O 0.50259 0.79354 0.89393 0.0
O461 O 0.60199 0.79768 0.87417 0.0
Sc462 Sc 0.03995 0.67635 0.08332 0.0
Sc463 Sc 0.10356 0.71764 0.08129 0.0
Sc464 Sc 0.03788 0.74625 0.05396 0.0
O465 O 0.06046 0.71348 0.07279 0.0
C466 C 0.01527 0.6908 0.0201 0.0
C467 C 0.10085 0.6539 0.05783 0.0
C468 C 0.09843 0.75366 0.02241 0.0
C469 C 0.08235 0.68108 0.13634 0.0
C470 C 0.98944 0.72137 0.0964 0.0
C471 C 0.07571 0.77666 0.10337 0.0
O472 O 0.02103 0.67347 0.04078 0.0
O473 O 0.11414 0.67807 0.05881 0.0
O474 O 0.07124 0.75651 0.02387 0.0
O475 O 0.05718 0.6758 0.12655 0.0
O476 O -0.0001 0.74111 0.08043 0.0
O477 O 0.0949 0.7569 0.10508 0.0
O478 O 0.00196 0.69721 0.10018 0.0
O479 O 0.10156 0.69417 0.12162 0.0
O480 O 0.05477 0.77631 0.08534 0.0
O481 O 0.07528 0.65046 0.06754 0.0
O482 O 0.01999 0.71794 0.02145 0.0
O483 O 0.11306 0.74098 0.04191 0.0
Sc484 Sc 0.45352 0.31694 0.58354 0.0
Sc485 Sc 0.38983 0.27577 0.58146 0.0
Sc486 Sc 0.45553 0.24701 0.55434 0.0
O487 O 0.43296 0.27984 0.57303 0.0
C488 C 0.47838 0.30233 0.52044 0.0
C489 C 0.39274 0.33938 0.55771 0.0
C490 C 0.39501 0.23949 0.52271 0.0
C491 C 0.41095 0.3126 0.6364 0.0
C492 C 0.50388 0.27186 0.59693 0.0
C493 C 0.41757 0.2168 0.60378 0.0
O494 O 0.47263 0.31968 0.5411 0.0
O495 O 0.37938 0.31525 0.55874 0.0
O496 O 0.42221 0.23673 0.52419 0.0
O497 O 0.43619 0.31765 0.62669 0.0
O498 O 0.49349 0.25214 0.58089 0.0
O499 O 0.39843 0.23663 0.60547 0.0
O500 O 0.49138 0.29603 0.60064 0.0
O501 O 0.39172 0.29954 0.62168 0.0
O502 O 0.4385 0.21706 0.58575 0.0
O503 O 0.41828 0.3428 0.56752 0.0
O504 O 0.47355 0.27521 0.5218 0.0
O505 O 0.38035 0.25218 0.54217 0.0
Sc506 Sc 0.95813 0.24927 0.44033 0.0
Sc507 Sc 0.89189 0.22051 0.4144 0.0
Sc508 Sc 0.95451 0.17831 0.41402 0.0
O509 O 0.93488 0.21615 0.423 0.0
C510 C 0.00593 0.22243 0.39929 0.0
C511 C 0.91968 0.27874 0.39079 0.0
C512 C 0.91344 0.18231 0.36048 0.0
C513 C 0.89822 0.25777 0.47253 0.0
C514 C 0.97924 0.19429 0.47627 0.0
C515 C 0.89286 0.15752 0.43878 0.0
O516 O 0.99492 0.2439 0.41236 0.0
O517 O 0.90099 0.25852 0.38894 0.0
O518 O 0.93886 0.17809 0.37019 0.0
O519 O 0.92555 0.25946 0.47135 0.0
O520 O 0.97088 0.17582 0.45758 0.0
O521 O 0.88051 0.18215 0.43856 0.0
O522 O 0.97764 0.22157 0.47259 0.0
O523 O 0.88316 0.24574 0.45288 0.0
O524 O 0.91799 0.15339 0.42833 0.0
O525 O 0.94018 0.27911 0.4093 0.0
O526 O 0.99396 0.1977 0.39869 0.0
O527 O 0.89389 0.19508 0.37511 0.0
H528 H 0.16136 0.4104 0.26796 0.0
H529 H 0.20134 0.48286 0.41912 0.0
H530 H 0.09884 0.43106 0.33417 0.0
H531 H 0.24458 0.50421 0.33891 0.0
H532 H 0.17244 0.4469 0.39342 0.0
H533 H 0.2002 0.42737 0.30008 0.0
C534 C 0.15596 0.41737 0.2897 0.0
C535 C 0.12697 0.41961 0.29852 0.0
C536 C 0.18866 0.45912 0.38164 0.0
C537 C 0.17093 0.43887 0.33494 0.0
C538 C 0.20517 0.47969 0.3962 0.0
C539 C 0.22502 0.49708 0.38098 0.0
C540 C 0.19222 0.45561 0.35175 0.0
C541 C 0.22915 0.49169 0.35136 0.0
C542 C 0.17805 0.42728 0.30781 0.0
C543 C 0.12098 0.42921 0.32664 0.0
N544 N 0.21262 0.47156 0.33759 0.0
N545 N 0.1428 0.43877 0.34383 0.0
H546 H 0.24844 0.48852 0.838 0.0
H547 H 0.39639 0.56447 0.83498 0.0
H548 H 0.29229 0.51129 0.91749 0.0
H549 H 0.33299 0.58263 0.76886 0.0
H550 H 0.35755 0.54797 0.86695 0.0
H551 H 0.27745 0.5249 0.81253 0.0
C552 C 0.26384 0.50139 0.85016 0.0
C553 C 0.26835 0.49641 0.87979 0.0
C554 C 0.352 0.55637 0.84577 0.0
C555 C 0.30155 0.53781 0.85084 0.0
C556 C 0.37414 0.56584 0.82762 0.0
C557 C 0.36774 0.57476 0.79937 0.0
C558 C 0.32353 0.55488 0.83512 0.0
C559 C 0.33867 0.57598 0.79063 0.0
C560 C 0.28021 0.5223 0.83567 0.0
C561 C 0.28833 0.51405 0.89455 0.0
N562 N 0.3176 0.5653 0.80818 0.0
N563 N 0.30462 0.53353 0.8798 0.0
H564 H 0.59565 0.06197 0.65812 0.0
H565 H 0.74523 0.99003 0.65319 0.0
H566 H 0.65948 0.08239 0.72318 0.0
H567 H 0.70001 0.01184 0.57421 0.0
H568 H 0.71578 0.02575 0.679 0.0
H569 H 0.63446 0.04641 0.62567 0.0
C570 C 0.61796 0.06399 0.66516 0.0
C571 C 0.62453 0.07329 0.69324 0.0
C572 C 0.71281 0.0231 0.65589 0.0
C573 C 0.66874 0.05454 0.65695 0.0
C574 C 0.72944 0.00257 0.6412 0.0
C575 C 0.72467 -0.00253 0.61163 0.0
C576 C 0.69096 0.0381 0.64097 0.0
C577 C 0.70418 0.01468 0.5971 0.0
C578 C 0.64009 0.05509 0.64673 0.0
C579 C 0.65368 0.0754 0.70156 0.0
N580 N 0.68765 0.03378 0.61204 0.0
N581 N 0.67478 0.06526 0.68375 0.0
H582 H 0.89763 0.93172 0.15807 0.0
H583 H 0.74867 0.00463 0.15373 0.0
H584 H 0.83396 0.91152 0.22333 0.0
H585 H 0.79299 0.98211 0.07447 0.0
H586 H 0.77801 0.96871 0.17943 0.0
H587 H 0.85875 0.94743 0.12574 0.0
C588 C 0.87533 0.92977 0.16517 0.0
C589 C 0.86884 0.9205 0.19327 0.0
C590 C 0.78079 0.97126 0.15628 0.0
C591 C 0.82456 0.93942 0.15713 0.0
C592 C 0.76424 0.99189 0.14166 0.0
C593 C 0.7688 0.99683 0.11204 0.0
C594 C 0.80237 0.95599 0.14125 0.0
C595 C 0.78899 0.97938 0.0974 0.0
C596 C 0.85317 0.93876 0.14681 0.0
C597 C 0.83971 0.91849 0.20168 0.0
N598 N 0.80548 0.96018 0.11228 0.0
N599 N 0.81859 0.92872 0.18394 0.0
H600 H 0.33795 0.24472 0.50628 0.0
H601 H 0.33577 0.0965 0.43157 0.0
H602 H 0.41783 0.20167 0.4834 0.0
H603 H 0.26946 0.15934 0.41234 0.0
H604 H 0.36755 0.13567 0.44772 0.0
H605 H 0.31263 0.21537 0.47006 0.0
C606 C 0.35023 0.22943 0.49342 0.0
C607 C 0.37993 0.22523 0.49833 0.0
C608 C 0.34637 0.14102 0.43916 0.0
C609 C 0.35116 0.19166 0.45713 0.0
C610 C 0.32833 0.1187 0.4299 0.0
C611 C 0.30009 0.12486 0.42077 0.0
C612 C 0.33559 0.16944 0.44025 0.0
C613 C 0.29123 0.15386 0.41916 0.0
C614 C 0.33582 0.21287 0.47261 0.0
C615 C 0.39483 0.20538 0.48071 0.0
N616 N 0.30866 0.17513 0.42966 0.0
N617 N 0.38017 0.1889 0.46133 0.0
H618 H 0.15912 0.89637 0.93229 0.0
H619 H 0.15534 0.74775 0.00583 0.0
H620 H 0.22482 0.83298 0.91274 0.0
H621 H 0.07592 0.79181 0.98323 0.0
H622 H 0.18093 0.77695 0.96973 0.0
H623 H 0.12687 0.8574 0.94796 0.0
C624 C 0.16634 0.87411 0.93047 0.0
C625 C 0.19454 0.86772 0.92141 0.0
C626 C 0.15777 0.77971 0.9723 0.0
C627 C 0.15848 0.82335 0.94029 0.0
C628 C 0.14321 0.76323 0.99304 0.0
C629 C 0.11358 0.76777 -0.00198 0.0
C630 C 0.14266 0.80118 0.95695 0.0
C631 C 0.09886 0.78784 0.98049 0.0
C632 C 0.14802 0.8519 0.93943 0.0
C633 C 0.2031 0.83864 0.91955 0.0
N634 N 0.11368 0.80425 0.96117 0.0
N635 N 0.18539 0.81747 0.92976 0.0
H636 H 0.92128 0.29704 0.51028 0.0
H637 H 0.76994 0.33345 0.58438 0.0
H638 H 0.84179 0.25164 0.49057 0.0
H639 H 0.83473 0.3975 0.56357 0.0
H640 H 0.80281 0.29542 0.56716 0.0
H641 H 0.8954 0.3256 0.54639 0.0
C642 C 0.89849 0.29269 0.51384 0.0
C643 C 0.8835 0.2723 0.49692 0.0
C644 C 0.81007 0.31774 0.56725 0.0
C645 C 0.85409 0.30466 0.53853 0.0
C646 C 0.79153 0.33936 0.57731 0.0
C647 C 0.79971 0.36854 0.57508 0.0
C648 C 0.83698 0.32551 0.55549 0.0
C649 C 0.82767 0.3752 0.56538 0.0
C650 C 0.88383 0.309 0.53449 0.0
C651 C 0.85405 0.26751 0.50274 0.0
N652 N 0.84527 0.35381 0.55563 0.0
N653 N 0.84018 0.28381 0.52293 0.0
H654 H 0.65896 0.5954 0.06556 0.0
H655 H 0.65582 0.7435 0.98976 0.0
H656 H 0.72505 0.65887 0.08368 0.0
H657 H 0.57641 0.69916 0.01202 0.0
H658 H 0.68131 0.71446 0.02607 0.0
H659 H 0.62695 0.63414 0.04898 0.0
C660 C 0.66629 0.61766 0.06692 0.0
C661 C 0.69455 0.62409 0.07585 0.0
C662 C 0.65818 0.71159 0.02336 0.0
C663 C 0.65878 0.66821 0.05584 0.0
C664 C 0.64367 0.72798 0.00249 0.0
C665 C 0.61406 0.72336 -0.00261 0.0
C666 C 0.64304 0.69013 0.03874 0.0
C667 C 0.59934 0.70321 0.01485 0.0
C668 C 0.64813 0.63975 0.05739 0.0
C669 C 0.70328 0.65317 0.07703 0.0
N670 N 0.6141 0.68693 0.03432 0.0
N671 N 0.68572 0.67419 0.06629 0.0
H672 H 0.41149 0.26878 0.16001 0.0
H673 H 0.48346 0.41988 0.20134 0.0
H674 H 0.43299 0.33529 0.09805 0.0
H675 H 0.50424 0.33959 0.24472 0.0
H676 H 0.44789 0.39421 0.17197 0.0
H677 H 0.42809 0.30071 0.19917 0.0
C678 C 0.4186 0.29054 0.1548 0.0
C679 C 0.42115 0.29951 0.12589 0.0
C680 C 0.45989 0.3824 0.18831 0.0
C681 C 0.43996 0.33572 0.17019 0.0
C682 C 0.48025 0.39695 0.2051 0.0
C683 C 0.49739 0.38171 0.22512 0.0
C684 C 0.45636 0.3525 0.19176 0.0
C685 C 0.49192 0.35207 0.22916 0.0
C686 C 0.42828 0.30854 0.17706 0.0
C687 C 0.4309 0.32764 0.12012 0.0
N688 N 0.47203 0.33831 0.21235 0.0
N689 N 0.44023 0.34473 0.14212 0.0
H690 H 0.93351 0.15889 0.90034 0.0
H691 H 0.00401 0.15521 0.75079 0.0
H692 H 0.90917 0.22196 0.83591 0.0
H693 H 0.98419 0.07526 0.79515 0.0
H694 H 0.9678 0.17989 0.7806 0.0
H695 H 0.94954 0.1264 0.86173 0.0
C696 C 0.93072 0.16544 0.87799 0.0
C697 C 0.92027 0.19308 0.87117 0.0
C698 C 0.97099 0.15681 0.78332 0.0
C699 C 0.93946 0.15676 0.82721 0.0
C700 C 0.99181 0.1428 0.76653 0.0
C701 C -0.00254 0.11329 0.77086 0.0
C702 C 0.95632 0.1413 0.80498 0.0
C703 C 0.98074 0.09813 0.79128 0.0
C704 C 0.93987 0.14698 0.85599 0.0
C705 C 0.91712 0.20073 0.84195 0.0
N706 N 0.96135 0.11245 0.80805 0.0
N707 N 0.92752 0.18297 0.82096 0.0
H708 H 0.51173 0.92037 0.29475 0.0
H709 H 0.58485 0.7692 0.33358 0.0
H710 H 0.49198 0.84054 0.25004 0.0
H711 H 0.56318 0.83459 0.39662 0.0
H712 H 0.56826 0.80174 0.29496 0.0
H713 H 0.54759 0.89466 0.32376 0.0
C714 C 0.51525 0.89755 0.29062 0.0
C715 C 0.49833 0.88241 0.27032 0.0
C716 C 0.56803 0.8092 0.3172 0.0
C717 C 0.53966 0.85318 0.30324 0.0
C718 C 0.57771 0.79085 0.33916 0.0
C719 C 0.57508 0.79931 0.36821 0.0
C720 C 0.55624 0.83621 0.32451 0.0
C721 C 0.56531 0.82732 0.37443 0.0
C722 C 0.53576 0.88298 0.3072 0.0
C723 C 0.50412 0.85292 0.26583 0.0
N724 N 0.55595 0.84475 0.35272 0.0
N725 N 0.52417 0.83914 0.28241 0.0
H726 H 0.06225 0.65763 0.59583 0.0
H727 H 0.98837 0.6539 0.74499 0.0
H728 H 0.08122 0.72335 0.65938 0.0
H729 H 0.00931 0.57477 0.69966 0.0
H730 H 0.02442 0.6794 0.71562 0.0
H731 H 0.04595 0.62549 0.63459 0.0
C732 C 0.06382 0.66487 0.6181 0.0
C733 C 0.07292 0.69306 0.62456 0.0
C734 C 0.02149 0.65632 0.71259 0.0
C735 C 0.05328 0.65711 0.66872 0.0
C736 C 0.00077 0.64181 0.72917 0.0
C737 C 0.99536 0.61229 0.72438 0.0
C738 C 0.03641 0.64128 0.69077 0.0
C739 C 0.0124 0.59763 0.70385 0.0
C740 C 0.05447 0.64662 0.6402 0.0
C741 C 0.07442 0.70164 0.65365 0.0
N742 N 0.03172 0.6124 0.6874 0.0
N743 N 0.06386 0.68399 0.6747 0.0
H744 H 0.832 0.58229 0.72702 0.0
H745 H 0.79111 0.51187 0.57517 0.0
H746 H 0.89393 0.56316 0.65982 0.0
H747 H 0.74896 0.48869 0.65546 0.0
H748 H 0.81979 0.54778 0.60114 0.0
H749 H 0.79292 0.56547 0.69508 0.0
C750 C 0.83719 0.57569 0.70512 0.0
C751 C 0.86609 0.57385 0.69593 0.0
C752 C 0.80385 0.53517 0.61289 0.0
C753 C 0.8219 0.55478 0.65971 0.0
C754 C 0.78746 0.51462 0.59817 0.0
C755 C 0.76802 0.49672 0.61331 0.0
C756 C 0.80057 0.53814 0.64286 0.0
C757 C 0.76409 0.50161 0.64304 0.0
C758 C 0.81499 0.56587 0.68711 0.0
C759 C 0.87186 0.56471 0.66762 0.0
N760 N 0.78051 0.52171 0.65697 0.0
N761 N 0.84993 0.55523 0.65052 0.0
H762 H 0.66091 0.4093 0.22655 0.0
H763 H 0.70144 0.4809 0.0752 0.0
H764 H 0.59868 0.43005 0.16005 0.0
H765 H 0.74461 0.50251 0.15541 0.0
H766 H 0.67254 0.44504 0.10095 0.0
H767 H 0.69995 0.42586 0.19446 0.0
C768 C 0.65562 0.41621 0.20475 0.0
C769 C 0.62666 0.41859 0.19583 0.0
C770 C 0.68874 0.45729 0.11273 0.0
C771 C 0.67083 0.43737 0.15945 0.0
C772 C 0.70526 0.47782 0.09814 0.0
C773 C 0.72506 0.49528 0.11333 0.0
C774 C 0.69225 0.4539 0.14263 0.0
C775 C 0.7292 0.48995 0.14296 0.0
C776 C 0.67781 0.42588 0.18667 0.0
C777 C 0.62079 0.4281 0.16766 0.0
N778 N 0.71264 0.46989 0.15677 0.0
N779 N 0.64272 0.43743 0.15048 0.0
H780 H 0.33511 0.90924 0.27101 0.0
H781 H 0.29606 0.98309 0.42166 0.0
H782 H 0.39839 0.93357 0.33531 0.0
H783 H 0.25046 0.00162 0.34205 0.0
H784 H 0.32556 0.94769 0.39594 0.0
H785 H 0.29646 0.92556 0.30365 0.0
C786 C 0.34076 0.91695 0.29245 0.0
C787 C 0.36985 0.92037 0.30056 0.0
C788 C 0.3087 0.95915 0.38431 0.0
C789 C 0.32612 0.93883 0.33757 0.0
C790 C 0.29184 0.97939 0.39889 0.0
C791 C 0.27114 0.99585 0.3838 0.0
C792 C 0.30463 0.95505 0.35457 0.0
C793 C 0.26655 0.98983 0.35437 0.0
C794 C 0.31878 0.92645 0.31085 0.0
C795 C 0.37617 0.93083 0.3283 0.0
N796 N 0.28342 0.97006 0.34059 0.0
N797 N 0.35443 0.93997 0.3458 0.0
H798 H 0.19792 0.00869 0.92066 0.0
H799 H 0.16069 0.08308 0.76972 0.0
H800 H 0.24432 0.9898 0.84163 0.0
H801 H 0.09649 0.05949 0.83337 0.0
H802 H 0.19876 0.0655 0.80238 0.0
H803 H 0.16843 0.04371 0.89437 0.0
C804 C 0.2023 0.01222 0.89789 0.0
C805 C 0.22328 0.99582 0.88315 0.0
C806 C 0.17638 0.06497 0.80941 0.0
C807 C 0.18979 0.03617 0.85326 0.0
C808 C 0.15472 0.07519 0.79099 0.0
C809 C 0.1255 0.07243 0.79892 0.0
C810 C 0.16862 0.05255 0.836 0.0
C811 C 0.1188 0.06172 0.82648 0.0
C812 C 0.18543 0.03223 0.88299 0.0
C813 C 0.22805 0.00158 0.8537 0.0
N814 N 0.14024 0.05193 0.84402 0.0
N815 N 0.21119 0.02116 0.8396 0.0
H816 H 0.65862 0.89807 0.56232 0.0
H817 H 0.65475 0.74877 0.48987 0.0
H818 H 0.72406 0.83457 0.58237 0.0
H819 H 0.57544 0.79376 0.51089 0.0
H820 H 0.68013 0.77811 0.52601 0.0
H821 H 0.62626 0.85914 0.54679 0.0
C822 C 0.66575 0.8758 0.56429 0.0
C823 C 0.69393 0.86938 0.57342 0.0
C824 C 0.65704 0.78106 0.52309 0.0
C825 C 0.65774 0.82502 0.55468 0.0
C826 C 0.6426 0.7645 0.50232 0.0
C827 C 0.61308 0.76924 0.49689 0.0
C828 C 0.64193 0.80282 0.53802 0.0
C829 C 0.59832 0.78962 0.514 0.0
C830 C 0.64737 0.8536 0.55539 0.0
C831 C 0.70237 0.84027 0.57549 0.0
N832 N 0.61303 0.8061 0.53335 0.0
N833 N 0.68461 0.81911 0.56534 0.0
H834 H 0.84006 0.24613 0.99033 0.0
H835 H 0.83516 0.09578 0.05965 0.0
H836 H 0.91943 0.20176 0.01246 0.0
H837 H 0.77083 0.15938 0.08281 0.0
H838 H 0.86757 0.13485 0.04446 0.0
H839 H 0.8143 0.21604 0.02562 0.0
C840 C 0.85214 0.23042 0.00288 0.0
C841 C 0.88182 0.22607 -0.002 0.0
C842 C 0.84669 0.14032 0.05365 0.0
C843 C 0.85254 0.1916 0.03805 0.0
C844 C 0.82827 0.11806 0.06231 0.0
C845 C 0.8004 0.12451 0.07232 0.0
C846 C 0.83665 0.16902 0.05406 0.0
C847 C 0.79229 0.15364 0.07526 0.0
C848 C 0.83749 0.21343 0.02315 0.0
C849 C 0.89647 0.20564 0.01518 0.0
N850 N 0.81005 0.1749 0.06535 0.0
N851 N 0.88156 0.18871 0.03397 0.0
H852 H 0.07297 0.69793 0.48232 0.0
H853 H 0.2244 0.66045 0.40909 0.0
H854 H 0.15251 0.74315 0.50226 0.0
H855 H 0.15936 0.59685 0.4305 0.0
H856 H 0.19164 0.69878 0.42588 0.0
H857 H 0.09889 0.66922 0.44641 0.0
C858 C 0.09578 0.70222 0.47886 0.0
C859 C 0.11077 0.72258 0.49583 0.0
C860 C 0.18431 0.67649 0.42601 0.0
C861 C 0.14024 0.69002 0.45443 0.0
C862 C 0.20278 0.65469 0.41622 0.0
C863 C 0.19448 0.62557 0.41872 0.0
C864 C 0.15734 0.66894 0.43777 0.0
C865 C 0.1665 0.61911 0.42847 0.0
C866 C 0.11046 0.68582 0.45831 0.0
C867 C 0.14025 0.7273 0.49008 0.0
N868 N 0.14896 0.64066 0.43794 0.0
N869 N 0.15415 0.71088 0.47 0.0
H870 H 0.42069 0.29537 0.9831 0.0
H871 H 0.26943 0.33328 0.90957 0.0
H872 H 0.34099 0.25054 0.00331 0.0
H873 H 0.33488 0.39664 0.93041 0.0
H874 H 0.30187 0.2949 0.92691 0.0
H875 H 0.3948 0.32416 0.94724 0.0
C876 C 0.39784 0.29119 0.97972 0.0
C877 C 0.38282 0.27089 0.99674 0.0
C878 C 0.30936 0.31714 0.92681 0.0
C879 C 0.35337 0.30357 0.95537 0.0
C880 C 0.29108 0.33896 0.91668 0.0
C881 C 0.29958 0.36805 0.91883 0.0
C882 C 0.33636 0.32463 0.93855 0.0
C883 C 0.32758 0.37442 0.92861 0.0
C884 C 0.38317 0.30764 0.9592 0.0
C885 C 0.35329 0.26632 0.99108 0.0
N886 N 0.34494 0.35285 0.9384 0.0
N887 N 0.33941 0.28279 0.97101 0.0
H888 H 0.48843 0.65528 0.74938 0.0
H889 H 0.56381 0.65781 0.89748 0.0
H890 H 0.51124 0.57559 0.79282 0.0
H891 H 0.58266 0.724 0.83438 0.0
H892 H 0.5473 0.62601 0.8585 0.0
H893 H 0.52468 0.68069 0.77862 0.0
C894 C 0.50128 0.64306 0.76473 0.0
C895 C 0.49634 0.61339 0.76906 0.0
C896 C 0.55585 0.64716 0.85305 0.0
C897 C 0.53759 0.64227 0.80252 0.0
C898 C 0.56532 0.66522 0.87526 0.0
C899 C 0.57446 0.69343 0.86898 0.0
C900 C 0.55457 0.65789 0.82462 0.0
C901 C 0.57585 0.70225 0.83996 0.0
C902 C 0.52211 0.65752 0.78124 0.0
C903 C 0.51395 0.59856 0.789 0.0
N904 N 0.56516 0.68481 0.81881 0.0
N905 N 0.53335 0.61327 0.80542 0.0
H906 H 0.01105 0.91998 0.19908 0.0
H907 H 0.08379 0.76849 0.16102 0.0
H908 H 0.99042 0.84035 0.24377 0.0
H909 H 0.06277 0.83387 0.09773 0.0
H910 H 0.06686 0.80106 0.19946 0.0
H911 H 0.0469 0.89399 0.17038 0.0
C912 C 0.01434 0.89713 0.20326 0.0
C913 C -0.00281 0.88215 0.22347 0.0
C914 C 0.06684 0.80851 0.17722 0.0
C915 C 0.03853 0.8526 0.19089 0.0
C916 C 0.07671 0.79014 0.15536 0.0
C917 C 0.07438 0.7986 0.12628 0.0
C918 C 0.05518 0.83553 0.16977 0.0
C919 C 0.06468 0.82661 0.11994 0.0
C920 C 0.03486 0.88241 0.18686 0.0
C921 C 0.00275 0.85262 0.22805 0.0
N922 N 0.05515 0.84405 0.14155 0.0
N923 N 0.0228 0.83868 0.21162 0.0
H924 H 0.48225 0.07347 0.69944 0.0
H925 H 0.40963 0.22505 0.66145 0.0
H926 H 0.50297 0.1531 0.74408 0.0
H927 H 0.43026 0.15954 0.59818 0.0
H928 H 0.42653 0.19246 0.69989 0.0
H929 H 0.44631 0.09945 0.67081 0.0
C930 C 0.47895 0.09632 0.70362 0.0
C931 C 0.49616 0.11131 0.72379 0.0
C932 C 0.42647 0.18499 0.67765 0.0
C933 C 0.45472 0.14085 0.6913 0.0
C934 C 0.4166 0.20337 0.6558 0.0
C935 C 0.41885 0.19488 0.62672 0.0
C936 C 0.43803 0.15793 0.67022 0.0
C937 C 0.42843 0.16683 0.62039 0.0
C938 C 0.45839 0.11104 0.68727 0.0
C939 C 0.4906 0.14083 0.72839 0.0
N940 N 0.43796 0.14937 0.642 0.0
N941 N 0.4705 0.15477 0.712 0.0
H942 H 0.93129 0.33626 0.3959 0.0
H943 H 0.0066 0.33892 0.24787 0.0
H944 H 0.91317 0.26956 0.33311 0.0
H945 H 0.98304 0.41851 0.29108 0.0
H946 H 0.9705 0.31328 0.27706 0.0
H947 H 0.94743 0.36805 0.35678 0.0
C948 C 0.9299 0.32871 0.37373 0.0
C949 C 0.92108 0.30036 0.36758 0.0
C950 C 0.97287 0.33648 0.27963 0.0
C951 C 0.94049 0.33592 0.32304 0.0
C952 C 0.99361 0.35107 0.26315 0.0
C953 C -0.00166 0.38078 0.26747 0.0
C954 C 0.95726 0.35164 0.30087 0.0
C955 C 0.98054 0.39551 0.2873 0.0
C956 C 0.93913 0.34676 0.35143 0.0
C957 C 0.91977 0.29139 0.33859 0.0
N958 N 0.96123 0.38068 0.3037 0.0
N959 N 0.93022 0.30886 0.31736 0.0
H960 H 0.19521 0.35185 0.0304 0.0
H961 H 0.1818 0.44648 0.16265 0.0
H962 H 0.25616 0.42093 0.04645 0.0
H963 H 0.1523 0.35779 0.16403 0.0
H964 H 0.21669 0.43373 0.12511 0.0
H965 H 0.18685 0.34791 0.08239 0.0
C966 C 0.20755 0.36555 0.04494 0.0
C967 C 0.22574 0.38732 0.03404 0.0
C968 C 0.20325 0.4168 0.13423 0.0
C969 C 0.21566 0.38353 0.09345 0.0
C970 C 0.18328 0.42413 0.15567 0.0
C971 C 0.16362 0.40335 0.16591 0.0
C972 C 0.20289 0.38876 0.1224 0.0
C973 C 0.16675 0.37462 0.1564 0.0
C974 C 0.20278 0.36331 0.07468 0.0
C975 C 0.24151 0.40418 0.05387 0.0
N976 N 0.18534 0.36835 0.13448 0.0
N977 N 0.23537 0.40262 0.08259 0.0
H978 H 0.30046 0.64178 0.53008 0.0
H979 H 0.31342 0.54804 0.66306 0.0
H980 H 0.23881 0.57348 0.54668 0.0
H981 H 0.34307 0.63669 0.66403 0.0
H982 H 0.27872 0.56063 0.62525 0.0
H983 H 0.30906 0.64591 0.58204 0.0
C984 C 0.28803 0.6283 0.54473 0.0
C985 C 0.26952 0.60671 0.53401 0.0
C986 C 0.29216 0.57759 0.63434 0.0
C987 C 0.27987 0.61069 0.59337 0.0
C988 C 0.31202 0.57035 0.65592 0.0
C989 C 0.33167 0.59116 0.66614 0.0
C990 C 0.2926 0.60557 0.62236 0.0
C991 C 0.32864 0.61983 0.65643 0.0
C992 C 0.29293 0.63065 0.57445 0.0
C993 C 0.25367 0.5901 0.55398 0.0
N994 N 0.31015 0.62601 0.63439 0.0
N995 N 0.25993 0.59175 0.58267 0.0
H996 H 0.64997 0.13663 0.82743 0.0
H997 H 0.75605 0.0712 0.94513 0.0
H998 H 0.67982 0.04809 0.82991 0.0
H999 H 0.69456 0.13992 0.96044 0.0
H1000 H 0.74675 0.07521 0.89322 0.0
H1001 H 0.68488 0.14889 0.8653 0.0
C1002 C 0.66459 0.11997 0.83511 0.0
C1003 C 0.66145 0.09107 0.82609 0.0
C1004 C 0.73608 0.09007 0.90791 0.0
C1005 C 0.70135 0.10509 0.86923 0.0
C1006 C 0.74145 0.08793 0.93757 0.0
C1007 C 0.72535 0.10468 0.95722 0.0
C1008 C 0.71478 0.10927 0.89795 0.0
C1009 C 0.70688 0.12608 0.94608 0.0
C1010 C 0.68442 0.12702 0.85681 0.0
C1011 C 0.68108 0.07048 0.83675 0.0
N1012 N 0.70163 0.12738 0.91717 0.0
N1013 N 0.69987 0.07778 0.85819 0.0
H1014 H 0.737 0.92305 0.44453 0.0
H1015 H 0.84341 0.85718 0.32742 0.0
H1016 H 0.79781 0.8538 0.4601 0.0
H1017 H 0.81401 0.94587 0.32985 0.0
H1018 H 0.80821 0.84504 0.36505 0.0
H1019 H 0.74656 0.91905 0.39266 0.0
C1020 C 0.75147 0.90619 0.43702 0.0
C1021 C 0.76733 0.88929 0.45674 0.0
C1022 C 0.80884 0.86692 0.3566 0.0
C1023 C 0.77824 0.88473 0.39754 0.0
C1024 C 0.82883 0.8739 0.33504 0.0
C1025 C 0.83217 0.90279 0.32607 0.0
C1026 C 0.79192 0.88891 0.36894 0.0
C1027 C 0.8126 0.92347 0.33666 0.0
C1028 C 0.75701 0.90408 0.40739 0.0
C1029 C 0.78567 0.86774 0.44568 0.0
N1030 N 0.79363 0.91624 0.35795 0.0
N1031 N 0.7911 0.86647 0.4168 0.0
H1032 H 0.16538 0.14808 0.35682 0.0
H1033 H 0.04904 0.25631 0.42139 0.0
H1034 H 0.16399 0.17917 0.44495 0.0
H1035 H 0.03208 0.19198 0.35577 0.0
H1036 H 0.10094 0.24661 0.41676 0.0
H1037 H 0.12747 0.18292 0.34451 0.0
C1038 C 0.15795 0.16297 0.37335 0.0
C1039 C 0.16726 0.16021 0.40218 0.0
C1040 C 0.08588 0.23544 0.40264 0.0
C1041 C 0.12412 0.20003 0.3881 0.0
C1042 C 0.05627 0.24104 0.40512 0.0
C1043 C 0.03625 0.22437 0.38941 0.0
C1044 C 0.09536 0.21335 0.38408 0.0
C1045 C 0.04684 0.20485 0.3687 0.0
C1046 C 0.13623 0.18275 0.36627 0.0
C1047 C 0.1569 0.18015 0.42262 0.0
N1048 N 0.0757 0.19948 0.36699 0.0
N1049 N 0.13546 0.1989 0.41531 0.0
H1050 H 0.3293 0.84369 0.85836 0.0
H1051 H 0.44678 0.73699 0.92341 0.0
H1052 H 0.33201 0.81396 0.94693 0.0
H1053 H 0.46229 0.79812 0.85439 0.0
H1054 H 0.39493 0.74684 0.91976 0.0
H1055 H 0.36716 0.8088 0.84608 0.0
C1056 C 0.33704 0.82911 0.87503 0.0
C1057 C 0.32805 0.83225 0.90392 0.0
C1058 C 0.40964 0.75731 0.90477 0.0
C1059 C 0.37118 0.79235 0.88988 0.0
C1060 C 0.43926 0.75162 0.90668 0.0
C1061 C 0.45899 0.76746 0.88974 0.0
C1062 C 0.39977 0.77868 0.88558 0.0
C1063 C 0.44788 0.78598 0.86836 0.0
C1064 C 0.35874 0.8093 0.86797 0.0
C1065 C 0.33881 0.81269 0.92453 0.0
N1066 N 0.41901 0.79156 0.86728 0.0
N1067 N 0.36022 0.79389 0.91722 0.0
H1068 H 0.53035 0.30004 0.64192 0.0
H1069 H 0.66413 0.31219 0.5489 0.0
H1070 H 0.54688 0.2387 0.57341 0.0
H1071 H 0.66428 0.34243 0.63731 0.0
H1072 H 0.62616 0.27761 0.56137 0.0
H1073 H 0.58236 0.3083 0.64634 0.0
C1074 C 0.54499 0.28761 0.62844 0.0
C1075 C 0.53425 0.26929 0.60673 0.0
C1076 C 0.6351 0.29115 0.57831 0.0
C1077 C 0.59369 0.27925 0.61105 0.0
C1078 C 0.65679 0.31094 0.57115 0.0
C1079 C 0.6668 0.33075 0.59189 0.0
C1080 C 0.62282 0.29182 0.60615 0.0
C1081 C 0.65683 0.32789 0.62049 0.0
C1082 C 0.57474 0.29231 0.63096 0.0
C1083 C 0.5542 0.25342 0.59013 0.0
N1084 N 0.6347 0.30947 0.62658 0.0
N1085 N 0.58294 0.25949 0.59196 0.0
H1086 H 0.82929 0.64874 0.13876 0.0
H1087 H 0.94673 0.75498 0.07295 0.0
H1088 H 0.83111 0.67909 0.05037 0.0
H1089 H 0.96252 0.69281 0.14093 0.0
H1090 H 0.89478 0.74585 0.07743 0.0
H1091 H 0.86732 0.68356 0.1509 0.0
C1092 C 0.83685 0.66346 0.12213 0.0
C1093 C 0.82761 0.66049 0.09329 0.0
C1094 C 0.90959 0.73501 0.09204 0.0
C1095 C 0.87093 0.70027 0.10717 0.0
C1096 C 0.93927 0.74028 0.08963 0.0
C1097 C 0.95902 0.72395 0.10603 0.0
C1098 C 0.89974 0.71357 0.11117 0.0
C1099 C 0.94804 0.70532 0.12737 0.0
C1100 C 0.85864 0.68323 0.12911 0.0
C1101 C 0.83813 0.68022 0.07272 0.0
N1102 N 0.91911 0.70018 0.12894 0.0
N1103 N 0.85966 0.69895 0.07994 0.0
H1104 H 0.3534 0.03031 0.19272 0.0
H1105 H 0.44658 0.16413 0.17945 0.0
H1106 H 0.42141 0.04784 0.25442 0.0
H1107 H 0.35824 0.16402 0.14889 0.0
H1108 H 0.434 0.12631 0.21415 0.0
H1109 H 0.34917 0.08216 0.18354 0.0
C1110 C 0.36681 0.04514 0.20503 0.0
C1111 C 0.38835 0.03469 0.22373 0.0
C1112 C 0.4171 0.13516 0.2005 0.0
C1113 C 0.38422 0.09394 0.21274 0.0
C1114 C 0.42433 0.15675 0.18064 0.0
C1115 C 0.40362 0.16669 0.16078 0.0
C1116 C 0.38923 0.12289 0.19984 0.0
C1117 C 0.37501 0.15666 0.16352 0.0
C1118 C 0.36439 0.0748 0.1998 0.0
C1119 C 0.40484 0.0549 0.23941 0.0
N1120 N 0.36885 0.13462 0.18203 0.0
N1121 N 0.40312 0.08353 0.23285 0.0
H1122 H 0.85176 0.46192 0.80028 0.0
H1123 H 0.94548 0.3284 0.81227 0.0
H1124 H 0.9201 0.44536 0.73874 0.0
H1125 H 0.85736 0.32828 0.84345 0.0
H1126 H 0.93261 0.36623 0.77772 0.0
H1127 H 0.84765 0.40996 0.80887 0.0
C1128 C 0.86526 0.44728 0.78787 0.0
C1129 C 0.88686 0.45803 0.7694 0.0
C1130 C 0.91581 0.35732 0.79147 0.0
C1131 C 0.88288 0.39864 0.77973 0.0
C1132 C 0.9232 0.33571 0.81124 0.0
C1133 C 0.90267 0.32574 0.83129 0.0
C1134 C 0.88796 0.36959 0.79239 0.0
C1135 C 0.87402 0.33568 0.82871 0.0
C1136 C 0.86292 0.41756 0.79277 0.0
C1137 C 0.90348 0.43806 0.75358 0.0
N1138 N 0.86772 0.35775 0.81029 0.0
N1139 N 0.90182 0.40935 0.75982 0.0
H1140 H 0.57463 0.5468 0.23773 0.0
H1141 H 0.63867 0.66506 0.34413 0.0
H1142 H 0.64192 0.5315 0.30082 0.0
H1143 H 0.55024 0.66182 0.31386 0.0
H1144 H 0.65131 0.62706 0.30953 0.0
H1145 H 0.57867 0.59875 0.24687 0.0
C1146 C 0.59109 0.55437 0.25265 0.0
C1147 C 0.60737 0.53473 0.26924 0.0
C1148 C 0.62939 0.63542 0.30982 0.0
C1149 C 0.61202 0.59403 0.2796 0.0
C1150 C 0.62212 0.65719 0.32947 0.0
C1151 C 0.59314 0.66604 0.3324 0.0
C1152 C 0.60761 0.62278 0.29283 0.0
C1153 C 0.57269 0.65512 0.31275 0.0
C1154 C 0.59324 0.58405 0.25792 0.0
C1155 C 0.62844 0.54587 0.28811 0.0
N1156 N 0.5802 0.63364 0.29412 0.0
N1157 N 0.62976 0.57481 0.29324 0.0
H1158 H 0.07307 0.94908 0.75206 0.0
H1159 H 0.13675 0.8297 0.64637 0.0
H1160 H 0.13626 0.96507 0.68505 0.0
H1161 H 0.04909 0.83083 0.67889 0.0
H1162 H 0.14887 0.86948 0.67911 0.0
H1163 H 0.07775 0.89705 0.74332 0.0
C1164 C 0.08875 0.94165 0.73627 0.0
C1165 C 0.1038 0.96143 0.71871 0.0
C1166 C 0.12728 0.86029 0.67975 0.0
C1167 C 0.10925 0.90211 0.70889 0.0
C1168 C 0.12032 0.83748 0.6612 0.0
C1169 C 0.09162 0.82747 0.65939 0.0
C1170 C 0.10551 0.87277 0.69681 0.0
C1171 C 0.07131 0.83837 0.67917 0.0
C1172 C 0.09127 0.91196 0.73127 0.0
C1173 C 0.12381 0.95055 0.69863 0.0
N1174 N 0.07851 0.86084 0.69674 0.0
N1175 N 0.12562 0.92157 0.69391 0.0
H1176 H 0.8433 0.63676 0.8299 0.0
H1177 H 0.73701 0.57227 0.94797 0.0
H1178 H 0.81348 0.54819 0.83316 0.0
H1179 H 0.79967 0.64 0.96336 0.0
H1180 H 0.74624 0.5763 0.89606 0.0
H1181 H 0.8086 0.64925 0.86786 0.0
C1182 C 0.82873 0.62014 0.83778 0.0
C1183 C 0.83181 0.59118 0.82894 0.0
C1184 C 0.75717 0.59096 0.91077 0.0
C1185 C 0.79211 0.60547 0.87213 0.0
C1186 C 0.75185 0.58882 0.94043 0.0
C1187 C 0.76831 0.60523 0.96009 0.0
C1188 C 0.77877 0.60985 0.90083 0.0
C1189 C 0.78706 0.62641 0.94898 0.0
C1190 C 0.80902 0.62732 0.85952 0.0
C1191 C 0.81226 0.57063 0.83986 0.0
N1192 N 0.79225 0.62772 0.92006 0.0
N1193 N 0.79356 0.57807 0.8613 0.0
H1194 H 0.65045 0.35558 0.32968 0.0
H1195 H 0.75673 0.42066 0.44737 0.0
H1196 H 0.68114 0.44389 0.33193 0.0
H1197 H 0.69458 0.35247 0.46267 0.0
H1198 H 0.74775 0.4164 0.39541 0.0
H1199 H 0.68528 0.34313 0.36754 0.0
C1200 C 0.66522 0.37214 0.33731 0.0
C1201 C 0.66233 0.40105 0.32825 0.0
C1202 C 0.73688 0.4017 0.41012 0.0
C1203 C 0.70216 0.3868 0.37137 0.0
C1204 C 0.74207 0.40397 0.4398 0.0
C1205 C 0.72568 0.38747 0.45942 0.0
C1206 C 0.71546 0.3826 0.40013 0.0
C1207 C 0.70713 0.36611 0.44829 0.0
C1208 C 0.68501 0.36498 0.359 0.0
C1209 C 0.68218 0.4215 0.33883 0.0
N1210 N 0.70205 0.36468 0.41936 0.0
N1211 N 0.70092 0.4141 0.36026 0.0
H1212 H 0.2379 0.92037 0.04946 0.0
H1213 H 0.345 0.85492 0.16617 0.0
H1214 H 0.30068 0.85308 0.03321 0.0
H1215 H 0.31341 0.94288 0.16519 0.0
H1216 H 0.31023 0.84259 0.12819 0.0
H1217 H 0.24704 0.91559 0.10135 0.0
C1218 C 0.25276 0.90378 0.0568 0.0
C1219 C 0.26924 0.88768 0.03694 0.0
C1220 C 0.31027 0.86432 0.13704 0.0
C1221 C 0.27964 0.88219 0.09615 0.0
C1222 C 0.33001 0.8714 0.15882 0.0
C1223 C 0.33262 0.90021 0.16826 0.0
C1224 C 0.29291 0.88612 0.12498 0.0
C1225 C 0.31256 0.92058 0.158 0.0
C1226 C 0.25803 0.90119 0.08644 0.0
C1227 C 0.28805 0.86642 0.04777 0.0
N1228 N 0.29387 0.91327 0.13648 0.0
N1229 N 0.2932 0.86468 0.07667 0.0
H1230 H 0.19462 0.14213 0.53024 0.0
H1231 H 0.18105 0.05228 0.66596 0.0
H1232 H 0.25565 0.07403 0.5494 0.0
H1233 H 0.14949 0.14017 0.66292 0.0
H1234 H 0.21632 0.06425 0.6285 0.0
H1235 H 0.1858 0.14802 0.58195 0.0
C1236 C 0.20686 0.12905 0.54539 0.0
C1237 C 0.22521 0.10697 0.5355 0.0
C1238 C 0.20233 0.08122 0.63663 0.0
C1239 C 0.21462 0.11297 0.59461 0.0
C1240 C 0.18213 0.07433 0.658 0.0
C1241 C 0.16181 0.09503 0.66696 0.0
C1242 C 0.20154 0.10871 0.62358 0.0
C1243 C 0.16445 0.12339 0.65627 0.0
C1244 C 0.20184 0.13241 0.57497 0.0
C1245 C 0.24088 0.09096 0.55607 0.0
N1246 N 0.1833 0.12918 0.63445 0.0
N1247 N 0.2345 0.09359 0.58465 0.0
H1248 H 0.96198 0.79873 0.64034 0.0
H1249 H 0.82989 0.81456 0.54587 0.0
H1250 H 0.94465 0.73779 0.57165 0.0
H1251 H 0.82886 0.84374 0.63463 0.0
H1252 H 0.86694 0.7791 0.55857 0.0
H1253 H 0.91014 0.80811 0.6443 0.0
C1254 C 0.94718 0.7866 0.62675 0.0
C1255 C 0.95769 0.7681 0.60509 0.0
C1256 C 0.85799 0.79261 0.57551 0.0
C1257 C 0.89848 0.77935 0.60885 0.0
C1258 C 0.83685 0.81292 0.56822 0.0
C1259 C 0.82685 0.83262 0.58904 0.0
C1260 C 0.86977 0.79266 0.60358 0.0
C1261 C 0.83631 0.82926 0.61776 0.0
C1262 C 0.91752 0.79195 0.62899 0.0
C1263 C 0.93752 0.75264 0.58833 0.0
N1264 N 0.85794 0.81033 0.62402 0.0
N1265 N 0.90892 0.75935 0.58987 0.0
H1266 H 0.66519 0.18095 0.0469 0.0
H1267 H 0.53244 0.19473 0.14053 0.0
H1268 H 0.66597 0.15135 0.13552 0.0
H1269 H 0.54936 0.25612 0.07214 0.0
H1270 H 0.58438 0.18605 0.1448 0.0
H1271 H 0.62781 0.21607 0.05954 0.0
C1272 C 0.65812 0.18245 0.06922 0.0
C1273 C 0.66812 0.16269 0.09 0.0
C1274 C 0.57687 0.20215 0.12949 0.0
C1275 C 0.62481 0.20222 0.10446 0.0
C1276 C 0.54716 0.20709 0.12705 0.0
C1277 C 0.53653 0.22553 0.10539 0.0
C1278 C 0.59588 0.2151 0.10954 0.0
C1279 C 0.55658 0.2413 0.08881 0.0
C1280 C 0.63679 0.20255 0.07648 0.0
C1281 C 0.65852 0.16587 0.11868 0.0
N1282 N 0.58527 0.235 0.09054 0.0
N1283 N 0.63669 0.18458 0.12489 0.0
H1284 H 0.4642 0.69351 0.35205 0.0
H1285 H 0.32937 0.68162 0.44374 0.0
H1286 H 0.44671 0.75511 0.42009 0.0
H1287 H 0.33048 0.65038 0.3557 0.0
H1288 H 0.36735 0.71624 0.43138 0.0
H1289 H 0.41228 0.68503 0.34711 0.0
C1290 C 0.44937 0.70595 0.36532 0.0
C1291 C 0.45982 0.7244 0.38707 0.0
C1292 C 0.35868 0.70247 0.41448 0.0
C1293 C 0.40046 0.7142 0.38214 0.0
C1294 C 0.33699 0.68266 0.42158 0.0
C1295 C 0.32732 0.66259 0.40093 0.0
C1296 C 0.37133 0.70154 0.38681 0.0
C1297 C 0.33765 0.66516 0.37244 0.0
C1298 C 0.41967 0.70111 0.3625 0.0
C1299 C 0.43963 0.74028 0.40336 0.0
N1300 N 0.35979 0.6836 0.36642 0.0
N1301 N 0.41093 0.73409 0.40125 0.0
H1302 H 0.04793 0.23666 0.92203 0.0
H1303 H 0.16577 0.34191 0.85564 0.0
H1304 H 0.03278 0.29769 0.85285 0.0
H1305 H 0.16347 0.31233 0.94428 0.0
H1306 H 0.12794 0.30688 0.84356 0.0
H1307 H 0.09993 0.24546 0.91764 0.0
C1308 C 0.05553 0.25104 0.90512 0.0
C1309 C 0.03593 0.26721 0.88837 0.0
C1310 C 0.13647 0.30742 0.86541 0.0
C1311 C 0.09528 0.27721 0.88336 0.0
C1312 C 0.15814 0.32732 0.87236 0.0
C1313 C 0.16717 0.3306 0.90124 0.0
C1314 C 0.12407 0.29055 0.88741 0.0
C1315 C 0.1566 0.31099 0.9219 0.0
C1316 C 0.08524 0.25612 0.90277 0.0
C1317 C 0.04712 0.28535 0.86671 0.0
N1318 N 0.13517 0.29214 0.9147 0.0
N1319 N 0.07608 0.29035 0.86522 0.0
H1320 H 0.63773 0.82818 0.84446 0.0
H1321 H 0.57169 0.94517 0.73782 0.0
H1322 H 0.54907 0.83016 0.8148 0.0
H1323 H 0.64 0.96136 0.79959 0.0
H1324 H 0.57595 0.89332 0.7475 0.0
H1325 H 0.6497 0.86617 0.80956 0.0
C1326 C 0.621 0.83577 0.82987 0.0
C1327 C 0.59215 0.82656 0.83303 0.0
C1328 C 0.59067 0.90819 0.75814 0.0
C1329 C 0.60583 0.86981 0.79314 0.0
C1330 C 0.5884 0.93781 0.75255 0.0
C1331 C 0.60497 0.95768 0.76859 0.0
C1332 C 0.60985 0.8985 0.77961 0.0
C1333 C 0.62633 0.94681 0.78728 0.0
C1334 C 0.62788 0.85754 0.81005 0.0
C1335 C 0.57143 0.83714 0.81349 0.0
N1336 N 0.62777 0.91794 0.79273 0.0
N1337 N 0.57857 0.85861 0.79469 0.0
H1338 H 0.04786 0.66281 0.18102 0.0
H1339 H 0.14352 0.53207 0.19651 0.0
H1340 H 0.13695 0.66519 0.15281 0.0
H1341 H 0.07375 0.54782 0.25666 0.0
H1342 H 0.14734 0.58408 0.18819 0.0
H1343 H 0.0607 0.62592 0.21658 0.0
C1344 C 0.07029 0.65618 0.1829 0.0
C1345 C 0.09118 0.66646 0.1634 0.0
C1346 C 0.13182 0.57629 0.20396 0.0
C1347 C 0.10591 0.62374 0.20346 0.0
C1348 C 0.12964 0.54654 0.2087 0.0
C1349 C 0.10766 0.53554 0.22656 0.0
C1350 C 0.11133 0.59496 0.21653 0.0
C1351 C 0.09061 0.55531 0.24219 0.0
C1352 C 0.07767 0.63514 0.20327 0.0
C1353 C 0.12002 0.65747 0.16709 0.0
N1354 N 0.09211 0.58403 0.23605 0.0
N1355 N 0.12638 0.6359 0.18605 0.0
H1356 H 0.35177 0.46312 0.69572 0.0
H1357 H 0.44538 0.33039 0.68132 0.0
H1358 H 0.42098 0.44641 0.75627 0.0
H1359 H 0.35655 0.32972 0.65221 0.0
H1360 H 0.43301 0.36778 0.71651 0.0
H1361 H 0.34734 0.41117 0.68726 0.0
C1362 C 0.36539 0.44844 0.70796 0.0
C1363 C 0.38733 0.45913 0.72606 0.0
C1364 C 0.41596 0.35884 0.70308 0.0
C1365 C 0.38301 0.39977 0.71585 0.0
C1366 C 0.42308 0.3375 0.68293 0.0
C1367 C 0.40216 0.32752 0.6633 0.0
C1368 C 0.38799 0.37084 0.70292 0.0
C1369 C 0.37349 0.33716 0.66662 0.0
C1370 C 0.36287 0.41873 0.70313 0.0
C1371 C 0.40409 0.43913 0.7417 0.0
N1372 N 0.36743 0.35899 0.68538 0.0
N1373 N 0.40227 0.41043 0.73549 0.0
H1374 H 0.85321 0.03181 0.29896 0.0
H1375 H 0.9483 0.16379 0.31618 0.0
H1376 H 0.9229 0.04888 0.23908 0.0
H1377 H 0.85916 0.16496 0.34434 0.0
H1378 H 0.93598 0.1265 0.28082 0.0
H1379 H 0.8496 0.08362 0.30861 0.0
C1380 C 0.86711 0.04656 0.28711 0.0
C1381 C 0.88891 0.03597 0.26882 0.0
C1382 C 0.91889 0.13552 0.2941 0.0
C1383 C 0.88554 0.09513 0.28041 0.0
C1384 C 0.92596 0.15678 0.31437 0.0
C1385 C 0.9049 0.16693 0.33374 0.0
C1386 C 0.89078 0.12378 0.29385 0.0
C1387 C 0.87621 0.1574 0.33014 0.0
C1388 C 0.86506 0.07619 0.29263 0.0
C1389 C 0.90608 0.05607 0.25374 0.0
N1390 N 0.87015 0.13569 0.31123 0.0
N1391 N 0.9047 0.08464 0.26061 0.0
H1392 H 0.03438 0.42395 0.10716 0.0
H1393 H 0.00583 0.35705 0.97788 0.0
H1394 H 0.04953 0.33842 0.14179 0.0
H1395 H 0.98546 0.28084 0.02817 0.0
H1396 H 0.0243 0.3802 0.02119 0.0
H1397 H 0.01553 0.40244 0.06321 0.0
C1398 C 0.03403 0.40055 0.10537 0.0
C1399 C 0.04403 0.38295 0.12802 0.0
C1400 C 0.01522 0.35868 0.02306 0.0
C1401 C 0.02343 0.35798 0.07692 0.0
C1402 C 0.00495 0.34526 -0.00186 0.0
C1403 C 0.99368 0.31708 -0.00058 0.0
C1404 C 0.01384 0.34406 0.0497 0.0
C1405 C 0.99379 0.30267 0.02623 0.0
C1406 C 0.02354 0.38823 0.08002 0.0
C1407 C 0.04223 0.35277 0.12475 0.0
N1408 N 0.00362 0.31639 0.05039 0.0
N1409 N 0.03227 0.34119 0.09953 0.0
H1410 H 0.50259 0.71996 0.52538 0.0
H1411 H 0.45032 0.57438 0.60318 0.0
H1412 H 0.49962 0.63571 0.48472 0.0
H1413 H 0.45321 0.65685 0.64734 0.0
H1414 H 0.4688 0.59736 0.55985 0.0
H1415 H 0.48441 0.69818 0.57019 0.0
C1416 C 0.49802 0.69695 0.52578 0.0
C1417 C 0.50268 0.67966 0.50116 0.0
C1418 C 0.46547 0.61054 0.57896 0.0
C1419 C 0.48205 0.65469 0.55237 0.0
C1420 C 0.45487 0.5974 0.60384 0.0
C1421 C 0.45002 0.61372 0.62902 0.0
C1422 C 0.47133 0.64034 0.57899 0.0
C1423 C 0.45662 0.64342 0.62843 0.0
C1424 C 0.48773 0.68455 0.55141 0.0
C1425 C 0.49644 0.64997 0.50304 0.0
N1426 N 0.46686 0.65585 0.60372 0.0
N1427 N 0.48651 0.6385 0.52816 0.0
H1428 H 0.49223 0.22104 0.96711 0.0
H1429 H 0.54337 0.07478 0.88995 0.0
H1430 H 0.49634 0.13717 0.00845 0.0
H1431 H 0.54049 0.15684 0.84505 0.0
H1432 H 0.52548 0.09821 0.93323 0.0
H1433 H 0.50984 0.19895 0.92218 0.0
C1434 C 0.49694 0.19806 0.96683 0.0
C1435 C 0.49275 0.18096 0.99167 0.0
C1436 C 0.52868 0.11121 0.91398 0.0
C1437 C 0.51269 0.15565 0.94037 0.0
C1438 C 0.53895 0.0978 0.88912 0.0
C1439 C 0.54364 0.11387 0.86375 0.0
C1440 C 0.52301 0.14105 0.91374 0.0
C1441 C 0.53719 0.14361 0.86412 0.0
C1442 C 0.5069 0.18549 0.94115 0.0
C1443 C 0.49914 0.1513 0.98996 0.0
N1444 N 0.52728 0.15631 0.88882 0.0
N1445 N 0.50872 0.13966 0.9648 0.0
H1446 H 0.00098 0.77252 0.46711 0.0
H1447 H 0.95128 0.919 0.38948 0.0
H1448 H -0.00183 0.85661 0.50811 0.0
H1449 H 0.95266 0.83662 0.3451 0.0
H1450 H 0.9692 0.8956 0.43279 0.0
H1451 H 0.98338 0.79461 0.42219 0.0
C1452 C 0.99655 0.79555 0.46676 0.0
C1453 C 0.0011 0.81272 0.49149 0.0
C1454 C 0.96566 0.88252 0.41364 0.0
C1455 C 0.98118 0.83803 0.4402 0.0
C1456 C 0.95538 0.89591 0.38878 0.0
C1457 C 0.95025 0.87973 0.36355 0.0
C1458 C 0.9709 0.85261 0.41355 0.0
C1459 C 0.9563 0.84992 0.36406 0.0
C1460 C 0.9866 0.80812 0.44108 0.0
C1461 C 0.99507 0.84244 0.48969 0.0
N1462 N 0.96623 0.83724 0.38877 0.0
N1463 N 0.98549 0.85408 0.46453 0.0
H1464 H 0.105 0.03931 0.42011 0.0
H1465 H 0.02624 0.99211 0.27333 0.0
H1466 H 0.14851 0.04007 0.33729 0.0
H1467 H 0.98573 0.9935 0.35767 0.0
H1468 H 0.07137 0.00915 0.29548 0.0
H1469 H 0.06162 0.02128 0.3968 0.0
C1470 C 0.10549 0.03564 0.39694 0.0
C1471 C 0.13048 0.04144 0.38061 0.0
C1472 C 0.05254 0.00574 0.30904 0.0
C1473 C 0.0804 0.0207 0.35359 0.0
C1474 C 0.02674 0.9961 0.29644 0.0
C1475 C 0.00206 0.99134 0.31364 0.0
C1476 C 0.05363 0.01062 0.33903 0.0
C1477 C 0.00408 0.99681 0.34346 0.0
C1478 C 0.08059 0.0253 0.38361 0.0
C1479 C 0.12974 0.03591 0.35071 0.0
N1480 N 0.02937 0.00609 0.35513 0.0
N1481 N 0.10499 0.02595 0.33809 0.0
H1482 H 0.46761 0.00124 0.77378 0.0
H1483 H 0.39014 0.95214 0.92055 0.0
H1484 H 0.50863 -0.00049 0.85789 0.0
H1485 H 0.34587 0.95269 0.8381 0.0
H1486 H 0.43335 0.97039 0.89713 0.0
H1487 H 0.42274 0.98372 0.79604 0.0
C1488 C 0.46727 -0.00292 0.79685 0.0
C1489 C 0.49201 0.00188 0.81397 0.0
C1490 C 0.41424 0.9666 0.88405 0.0
C1491 C 0.44075 0.98204 0.83948 0.0
C1492 C 0.38944 0.95613 0.89745 0.0
C1493 C 0.36429 0.95066 0.88125 0.0
C1494 C 0.41415 0.97168 0.85411 0.0
C1495 C 0.36477 0.95659 0.85142 0.0
C1496 C 0.44162 0.98717 0.80953 0.0
C1497 C 0.49021 0.99619 0.84376 0.0
N1498 N 0.38941 0.96669 0.83874 0.0
N1499 N 0.46507 0.98663 0.85549 0.0
H1500 H 0.60163 0.44581 0.576 0.0
H1501 H 0.52566 0.50318 0.72051 0.0
H1502 H 0.64757 0.45388 0.65715 0.0
H1503 H 0.48389 0.4971 0.63698 0.0
H1504 H 0.57031 0.48446 0.69881 0.0
H1505 H 0.55834 0.46428 0.59903 0.0
C1506 C 0.60269 0.45149 0.59874 0.0
C1507 C 0.62839 0.44815 0.61466 0.0
C1508 C 0.55131 0.48722 0.68532 0.0
C1509 C 0.5784 0.46948 0.64135 0.0
C1510 C 0.52579 0.49782 0.69768 0.0
C1511 C 0.50091 0.50177 0.68056 0.0
C1512 C 0.5519 0.48051 0.65568 0.0
C1513 C 0.50244 0.49451 0.65109 0.0
C1514 C 0.57783 0.46209 0.61191 0.0
C1515 C 0.62827 0.45611 0.64403 0.0
N1516 N 0.52745 0.48429 0.63966 0.0
N1517 N 0.60358 0.46636 0.65649 0.0
H1518 H 0.016 0.50852 0.14013 0.0
H1519 H 0.88616 0.532 0.07322 0.0
H1520 H 0.96641 0.48348 0.2154 0.0
H1521 H 0.85086 0.54683 0.15851 0.0
H1522 H 0.93044 0.51421 0.095 0.0
H1523 H 0.97201 0.52618 0.11759 0.0
C1524 C 0.99577 0.5065 0.15186 0.0
C1525 C 0.99488 0.49407 0.17955 0.0
C1526 C 0.91337 0.52189 0.10908 0.0
C1527 C 0.94389 0.5133 0.15322 0.0
C1528 C 0.88785 0.53176 0.09662 0.0
C1529 C 0.86495 0.54144 0.11407 0.0
C1530 C 0.91638 0.52204 0.13932 0.0
C1531 C 0.8681 0.53978 0.14428 0.0
C1532 C 0.9705 0.5163 0.13878 0.0
C1533 C 0.96806 0.49272 0.19392 0.0
N1534 N 0.89351 0.53042 0.15601 0.0
N1535 N 0.94354 0.50212 0.18051 0.0
H1536 H 0.42033 0.10454 0.04099 0.0
H1537 H 0.27367 0.0258 0.99302 0.0
H1538 H 0.33759 0.14826 0.04072 0.0
H1539 H 0.35795 0.98517 0.99564 0.0
H1540 H 0.29575 0.07097 0.01009 0.0
H1541 H 0.39699 0.06107 0.02325 0.0
C1542 C 0.39718 0.10506 0.03716 0.0
C1543 C 0.38088 0.13014 0.04257 0.0
C1544 C 0.30931 0.0521 0.00694 0.0
C1545 C 0.35382 0.07995 0.02216 0.0
C1546 C 0.29674 0.02627 -0.00271 0.0
C1547 C 0.31396 0.00156 0.99285 0.0
C1548 C 0.33926 0.05316 0.01215 0.0
C1549 C 0.34373 0.00355 -0.00132 0.0
C1550 C 0.38382 0.0801 0.02699 0.0
C1551 C 0.35099 0.12942 0.03686 0.0
N1552 N 0.35536 0.02885 0.00796 0.0
N1553 N 0.33835 0.10463 0.02705 0.0
H1554 H 0.91907 0.3928 0.9443 0.0
H1555 H 0.77446 0.46681 0.00406 0.0
H1556 H 0.8389 0.34564 0.95517 0.0
H1557 H 0.85722 0.50995 0.99637 0.0
H1558 H 0.79655 0.42251 0.98505 0.0
H1559 H 0.89569 0.43603 0.96259 0.0
C1560 C 0.89649 0.39147 0.95056 0.0
C1561 C 0.88093 0.36544 0.9481 0.0
C1562 C 0.80978 0.44173 0.98751 0.0
C1563 C 0.85387 0.41529 0.96919 0.0
C1564 C 0.79719 0.46706 -0.00173 0.0
C1565 C 0.81399 0.4922 0.00187 0.0
C1566 C 0.83932 0.44162 0.98028 0.0
C1567 C 0.84336 0.49117 0.99407 0.0
C1568 C 0.88312 0.41628 0.96105 0.0
C1569 C 0.85175 0.3652 0.95672 0.0
N1570 N 0.85503 0.46633 0.9837 0.0
N1571 N 0.8391 0.38982 0.96685 0.0
H1572 H 0.65807 0.64854 0.45447 0.0
H1573 H 0.63477 0.48271 0.49951 0.0
H1574 H 0.57649 0.60274 0.45035 0.0
H1575 H 0.71829 0.52491 0.50324 0.0
H1576 H 0.61356 0.52734 0.4817 0.0
H1577 H 0.68097 0.60438 0.47324 0.0
C1578 C 0.64496 0.62933 0.45762 0.0
C1579 C 0.61533 0.62936 0.45067 0.0
C1580 C 0.63655 0.52692 0.48635 0.0
C1581 C 0.64133 0.57895 0.47193 0.0
C1582 C 0.64874 0.50134 0.49651 0.0
C1583 C 0.67841 0.49996 0.50293 0.0
C1584 C 0.65407 0.5515 0.48253 0.0
C1585 C 0.69532 0.52493 0.49854 0.0
C1586 C 0.65805 0.60414 0.46823 0.0
C1587 C 0.59942 0.60382 0.45516 0.0
N1588 N 0.68288 0.54973 0.48864 0.0
N1589 N 0.61262 0.57975 0.46542 0.0
H1590 H 0.07409 0.88864 0.54062 0.0
H1591 H 0.22085 0.9674 0.49313 0.0
H1592 H 0.15675 0.8448 0.54023 0.0
H1593 H 0.13664 0.00815 0.49584 0.0
H1594 H 0.19874 0.92224 0.51012 0.0
H1595 H 0.0975 0.93219 0.52319 0.0
C1596 C 0.09724 0.8881 0.53682 0.0
C1597 C 0.11349 0.86296 0.54211 0.0
C1598 C 0.1852 0.94113 0.50703 0.0
C1599 C 0.14064 0.91325 0.52205 0.0
C1600 C 0.19779 0.96696 0.49743 0.0
C1601 C 0.1806 0.99169 0.493 0.0
C1602 C 0.15525 0.94008 0.51221 0.0
C1603 C 0.15083 0.98974 0.49886 0.0
C1604 C 0.11064 0.91311 0.52683 0.0
C1605 C 0.14338 0.86367 0.53644 0.0
N1606 N 0.13917 0.96444 0.50808 0.0
N1607 N 0.15607 0.88852 0.52682 0.0
H1608 H 0.95292 0.57305 0.8902 0.0
H1609 H 0.00229 0.719 0.96914 0.0
H1610 H 0.95251 0.65617 0.84722 0.0
H1611 H 0.00159 0.6343 0.00896 0.0
H1612 H 0.98446 0.69724 0.92418 0.0
H1613 H 0.97175 0.59591 0.93346 0.0
C1614 C 0.95683 0.59618 0.88979 0.0
C1615 C 0.95091 0.61273 0.86499 0.0
C1616 C 0.98822 0.6835 0.94281 0.0
C1617 C 0.97259 0.63922 0.91491 0.0
C1618 C -0.00169 0.69589 0.96852 0.0
C1619 C 0.00346 0.67848 0.99296 0.0
C1620 C 0.98325 0.65353 0.94158 0.0
C1621 C -0.00202 0.64866 0.99079 0.0
C1622 C 0.96763 0.60926 0.91462 0.0
C1623 C 0.95674 0.64258 0.86584 0.0
N1624 N 0.98822 0.6372 0.9656 0.0
N1625 N 0.96717 0.65494 0.89051 0.0
H1626 H 0.54414 0.41948 0.39166 0.0
H1627 H 0.49041 0.27429 0.46918 0.0
H1628 H 0.53978 0.33725 0.3472 0.0
H1629 H 0.49352 0.35855 0.50982 0.0
H1630 H 0.50867 0.29603 0.42437 0.0
H1631 H 0.52531 0.39665 0.43494 0.0
C1632 C 0.53919 0.39655 0.39093 0.0
C1633 C 0.54373 0.38024 0.36568 0.0
C1634 C 0.50535 0.30967 0.44315 0.0
C1635 C 0.52202 0.35379 0.41562 0.0
C1636 C 0.49501 0.29729 0.46877 0.0
C1637 C 0.4904 0.3146 0.49339 0.0
C1638 C 0.51112 0.33951 0.44219 0.0
C1639 C 0.49667 0.34428 0.49149 0.0
C1640 C 0.52838 0.3835 0.41577 0.0
C1641 C 0.53662 0.35065 0.36616 0.0
N1642 N 0.50667 0.35573 0.46639 0.0
N1643 N 0.5262 0.33831 0.39083 0.0
H1644 H 0.49559 0.85534 0.98349 0.0
H1645 H 0.45656 0.83555 0.15115 0.0
H1646 H 0.50573 0.77376 0.02823 0.0
H1647 H 0.44712 0.91508 0.10271 0.0
H1648 H 0.47499 0.81195 0.10722 0.0
H1649 H 0.47752 0.87688 0.02777 0.0
C1650 C 0.49395 0.84186 0.00262 0.0
C1651 C 0.50227 0.81265 0.00206 0.0
C1652 C 0.46887 0.83457 0.10636 0.0
C1653 C 0.48156 0.83741 0.05324 0.0
C1654 C 0.45845 0.84807 0.13141 0.0
C1655 C 0.45016 0.87733 0.13065 0.0
C1656 C 0.47102 0.85051 0.08052 0.0
C1657 C 0.45303 0.89246 0.10444 0.0
C1658 C 0.48362 0.85424 0.02801 0.0
C1659 C 0.49954 0.79636 0.02764 0.0
N1660 N 0.46315 0.87888 0.08054 0.0
N1661 N 0.48946 0.809 0.05227 0.0
H1662 H 0.95604 0.15134 0.50895 0.0
H1663 H 0.0042 0.13279 0.65277 0.0
H1664 H 0.02648 0.21274 0.50674 0.0
H1665 H 0.08416 0.12059 0.60606 0.0
H1666 H 0.98328 0.15611 0.6095 0.0
H1667 H 0.97377 0.13358 0.55589 0.0
C1668 C 0.97527 0.16098 0.51838 0.0
C1669 C 0.98994 0.18345 0.50418 0.0
C1670 C 0.0055 0.14856 0.60904 0.0
C1671 C 0.01021 0.1632 0.55715 0.0
C1672 C 0.01741 0.1355 0.63357 0.0
C1673 C 0.04575 0.12473 0.63264 0.0
C1674 C 0.02244 0.15144 0.58399 0.0
C1675 C 0.0621 0.12848 0.60733 0.0
C1676 C 0.98512 0.15106 0.54511 0.0
C1677 C 0.01462 0.19543 0.51723 0.0
N1678 N 0.05024 0.14175 0.58393 0.0
N1679 N 0.02438 0.18476 0.54288 0.0
H1680 H 0.88926 0.95504 0.57057 0.0
H1681 H 0.96958 0.00319 0.71604 0.0
H1682 H 0.84734 0.95363 0.6542 0.0
H1683 H 0.00593 0.0117 0.63024 0.0
H1684 H 0.92489 0.98445 0.69456 0.0
H1685 H 0.93224 0.97543 0.59285 0.0
C1686 C 0.88904 0.95902 0.59369 0.0
C1687 C 0.86461 0.95242 0.61056 0.0
C1688 C 0.94266 0.99048 0.6805 0.0
C1689 C 0.91414 0.97592 0.63632 0.0
C1690 C 0.96823 0.00111 0.69272 0.0
C1691 C 0.99167 0.00899 0.67494 0.0
C1692 C 0.94055 0.98762 0.65032 0.0
C1693 C 0.98855 0.00591 0.64487 0.0
C1694 C 0.91367 0.97077 0.6064 0.0
C1695 C 0.86567 0.95838 0.64036 0.0
N1696 N 0.96354 0.99543 0.63357 0.0
N1697 N 0.89013 0.96968 0.65236 0.0
H1698 H 0.64943 0.03956 0.15587 0.0
H1699 H 0.48321 0.99488 0.13462 0.0
H1700 H 0.60194 0.04692 0.07555 0.0
H1701 H 0.52652 0.99088 0.2175 0.0
H1702 H 0.52739 0.01336 0.11299 0.0
H1703 H 0.60554 0.02066 0.17913 0.0
C1704 C 0.62989 0.03714 0.14311 0.0
C1705 C 0.62941 0.04494 0.11371 0.0
C1706 C 0.52731 0.00852 0.13593 0.0
C1707 C 0.57928 0.02346 0.14016 0.0
C1708 C 0.50199 -0.00206 0.14835 0.0
C1709 C 0.50106 0.99126 0.17798 0.0
C1710 C 0.55207 0.01246 0.15314 0.0
C1711 C 0.5262 0.99578 0.19458 0.0
C1712 C 0.60485 0.02643 0.15642 0.0
C1713 C 0.60343 0.04136 0.09828 0.0
N1714 N 0.55074 0.00605 0.1819 0.0
N1715 N 0.57951 0.03093 0.11168 0.0
H1716 H 0.51215 0.49805 0.35808 0.0
H1717 H 0.34509 0.53885 0.33586 0.0
H1718 H 0.46878 0.49014 0.2755 0.0
H1719 H 0.3924 0.54799 0.41611 0.0
H1720 H 0.38932 0.52035 0.31288 0.0
H1721 H 0.46767 0.51636 0.37913 0.0
C1722 C 0.49329 0.50023 0.34428 0.0
C1723 C 0.49428 0.49247 0.31493 0.0
C1724 C 0.38988 0.52643 0.33552 0.0
C1725 C 0.4429 0.51345 0.33911 0.0
C1726 C 0.36465 0.53689 0.34866 0.0
C1727 C 0.36499 0.5451 0.37795 0.0
C1728 C 0.41548 0.52413 0.35184 0.0
C1729 C 0.39099 0.54213 0.39346 0.0
C1730 C 0.46779 0.5107 0.35637 0.0
C1731 C 0.46904 0.4959 0.29822 0.0
N1732 N 0.41508 0.53195 0.38022 0.0
N1733 N 0.44431 0.50608 0.31058 0.0
H1734 H 0.10234 0.4472 0.91799 0.0
H1735 H 0.02522 0.50248 0.77322 0.0
H1736 H 0.14739 0.453 0.83617 0.0
H1737 H 0.98386 0.49642 0.85694 0.0
H1738 H 0.07009 0.48414 0.79484 0.0
H1739 H 0.05895 0.46548 0.89501 0.0
C1740 C 0.10318 0.45234 0.89511 0.0
C1741 C 0.12865 0.4484 0.87898 0.0
C1742 C 0.05113 0.48682 0.80838 0.0
C1743 C 0.07853 0.46949 0.85235 0.0
C1744 C 0.02548 0.4972 0.79607 0.0
C1745 C 0.00066 0.50105 0.81328 0.0
C1746 C 0.0519 0.48025 0.83805 0.0
C1747 C 0.00235 0.4939 0.84276 0.0
C1748 C 0.07826 0.46283 0.88197 0.0
C1749 C 0.12826 0.45571 0.84945 0.0
N1750 N 0.02749 0.48391 0.85414 0.0
N1751 N 0.10351 0.46585 0.83702 0.0
H1752 H 0.57254 0.88278 0.96482 0.0
H1753 H 0.6374 0.01346 0.98992 0.0
H1754 H 0.65798 0.85038 0.94498 0.0
H1755 H 0.71527 0.96519 0.00886 0.0
H1756 H 0.61485 0.96943 0.97241 0.0
H1757 H 0.594 0.92688 0.98351 0.0
C1758 C 0.5959 0.8851 0.96415 0.0
C1759 C 0.61348 0.8631 0.9528 0.0
C1760 C 0.63663 0.96818 0.98097 0.0
C1761 C 0.63829 0.91435 0.97318 0.0
C1762 C 0.6497 0.9935 0.99068 0.0
C1763 C 0.67816 0.993 0.00129 0.0
C1764 C 0.6519 0.9419 0.98222 0.0
C1765 C 0.6932 0.96653 0.00105 0.0
C1766 C 0.60816 0.91051 0.97454 0.0
C1767 C 0.64365 0.86695 0.95333 0.0
N1768 N 0.67983 0.94195 0.99174 0.0
N1769 N 0.65516 0.89228 0.96319 0.0
H1770 H 0.13551 0.48185 0.99579 0.0
H1771 H 0.15758 0.64816 0.03966 0.0
H1772 H 0.21826 0.52526 0.98967 0.0
H1773 H 0.07715 0.60083 0.0475 0.0
H1774 H 0.18061 0.60424 0.02056 0.0
H1775 H 0.11424 0.52609 0.01448 0.0
C1776 C 0.1493 0.50067 -0.00157 0.0
C1777 C 0.17878 0.49974 0.99109 0.0
C1778 C 0.15792 0.6036 0.02648 0.0
C1779 C 0.15435 0.55083 0.01253 0.0
C1780 C 0.14475 0.62865 0.0373 0.0
C1781 C 0.11539 0.62823 0.0453 0.0
C1782 C 0.14156 0.57807 0.02361 0.0
C1783 C 0.09985 0.6023 0.0418 0.0
C1784 C 0.13708 0.52602 0.00912 0.0
C1785 C 0.19545 0.52493 0.99508 0.0
N1786 N 0.11312 0.57837 0.03128 0.0
N1787 N 0.18298 0.54951 0.00549 0.0
H1788 H 0.33585 0.34553 0.54017 0.0
H1789 H 0.35919 0.51119 0.49455 0.0
H1790 H 0.41691 0.39201 0.54641 0.0
H1791 H 0.27572 0.46891 0.49053 0.0
H1792 H 0.38025 0.46679 0.51309 0.0
H1793 H 0.31303 0.38955 0.52099 0.0
C1794 C 0.34886 0.36487 0.53743 0.0
C1795 C 0.37833 0.36504 0.54504 0.0
C1796 C 0.3573 0.46715 0.50823 0.0
C1797 C 0.35241 0.41529 0.52326 0.0
C1798 C 0.3452 0.49259 0.49762 0.0
C1799 C 0.31558 0.49387 0.49093 0.0
C1800 C 0.33976 0.4426 0.5122 0.0
C1801 C 0.29865 0.46895 0.49545 0.0
C1802 C 0.33581 0.38998 0.52658 0.0
C1803 C 0.39411 0.39075 0.54105 0.0
N1804 N 0.31101 0.44427 0.50576 0.0
N1805 N 0.38096 0.41473 0.5305 0.0
H1806 H 0.83547 0.15183 0.45513 0.0
H1807 H 0.85611 0.98409 0.49374 0.0
H1808 H 0.91622 0.10477 0.45028 0.0
H1809 H 0.77394 0.02788 0.50324 0.0
H1810 H 0.87751 0.02884 0.47671 0.0
H1811 H 0.81167 0.10751 0.47267 0.0
C1812 C 0.8482 0.13233 0.45788 0.0
C1813 C 0.87785 0.13202 0.45103 0.0
C1814 C 0.85477 0.02878 0.48245 0.0
C1815 C 0.85087 0.0815 0.4708 0.0
C1816 C 0.84247 0.00311 0.49216 0.0
C1817 C 0.81314 0.00215 0.50004 0.0
C1818 C 0.83776 0.05391 0.48055 0.0
C1819 C 0.79664 0.02761 0.49738 0.0
C1820 C 0.83461 0.10706 0.46777 0.0
C1821 C 0.89328 0.10612 0.45497 0.0
N1822 N 0.80921 0.05254 0.48792 0.0
N1823 N 0.87961 0.08203 0.46449 0.0
loop_
_geom_bond_atom_site_label_1
_geom_bond_atom_site_label_2
_geom_bond_distance
_geom_bond_site_symmetry_2
_ccdc_geom_bond_type
Sc0 O3 2.025 . S
Sc0 O10 2.105 . S
Sc0 O13 2.105 . S
Sc0 O16 2.105 1_455 S
Sc0 O19 2.105 . S
Sc1 O3 2.025 . S
Sc1 O11 2.105 . S
Sc1 O15 2.105 . S
Sc1 O17 2.105 . S
Sc1 O21 2.105 . S
Sc2 O3 2.025 . S
Sc2 O12 2.105 . S
Sc2 O14 2.105 1_455 S
Sc2 O18 2.105 . S
Sc2 O20 2.105 . S
O3 Sc0 2.025 . S
O3 Sc1 2.025 . S
O3 Sc2 2.025 . S
C4 O10 1.268 . S
C4 O20 1.268 . S
C5 O11 1.268 . S
C5 O19 1.268 . S
C6 O12 1.268 . S
C6 O21 1.268 . S
C7 O13 1.268 . S
C7 O17 1.268 . S
C8 O14 1.268 . S
C8 O16 1.268 . S
C9 O15 1.268 . S
C9 O18 1.268 . S
O10 Sc0 2.105 . S
O10 C4 1.268 . S
O11 Sc1 2.105 . S
O11 C5 1.268 . S
O12 Sc2 2.105 . S
O12 C6 1.268 . S
O13 Sc0 2.105 . S
O13 C7 1.268 . S
O14 Sc2 2.105 1_655 S
O14 C8 1.268 . S
O15 Sc1 2.105 . S
O15 C9 1.268 . S
O16 Sc0 2.105 1_655 S
O16 C8 1.268 . S
O17 Sc1 2.105 . S
O17 C7 1.268 . S
O18 Sc2 2.105 . S
O18 C9 1.268 . S
O19 Sc0 2.105 . S
O19 C5 1.268 . S
O20 Sc2 2.105 . S
O20 C4 1.268 . S
O21 Sc1 2.105 . S
O21 C6 1.268 . S
Sc22 O25 2.025 . S
Sc22 O32 2.105 . S
Sc22 O35 2.105 . S
Sc22 O38 2.105 . S
Sc22 O41 2.105 . S
Sc23 O25 2.025 . S
Sc23 O33 2.105 . S
Sc23 O37 2.105 . S
Sc23 O39 2.105 . S
Sc23 O43 2.105 . S
Sc24 O25 2.025 . S
Sc24 O34 2.105 . S
Sc24 O36 2.105 . S
Sc24 O40 2.105 . S
Sc24 O42 2.105 . S
O25 Sc22 2.025 . S
O25 Sc23 2.025 . S
O25 Sc24 2.025 . S
C26 O32 1.268 . S
C26 O42 1.268 . S
C27 O33 1.268 . S
C27 O41 1.268 . S
C28 O34 1.268 . S
C28 O43 1.268 . S
C29 O35 1.268 . S
C29 O39 1.268 . S
C30 O36 1.268 . S
C30 O38 1.268 . S
C31 O37 1.268 . S
C31 O40 1.268 . S
O32 Sc22 2.105 . S
O32 C26 1.268 . S
O33 Sc23 2.105 . S
O33 C27 1.268 . S
O34 Sc24 2.105 . S
O34 C28 1.268 . S
O35 Sc22 2.105 . S
O35 C29 1.268 . S
O36 Sc24 2.105 . S
O36 C30 1.268 . S
O37 Sc23 2.105 . S
O37 C31 1.268 . S
O38 Sc22 2.105 . S
O38 C30 1.268 . S
O39 Sc23 2.105 . S
O39 C29 1.268 . S
O40 Sc24 2.105 . S
O40 C31 1.268 . S
O41 Sc22 2.105 . S
O41 C27 1.268 . S
O42 Sc24 2.105 . S
O42 C26 1.268 . S
O43 Sc23 2.105 . S
O43 C28 1.268 . S
Sc44 O47 2.025 . S
Sc44 O54 2.105 . S
Sc44 O57 2.105 . S
Sc44 O60 2.105 . S
Sc44 O63 2.105 . S
Sc45 O47 2.025 . S
Sc45 O55 2.105 . S
Sc45 O59 2.105 . S
Sc45 O61 2.105 . S
Sc45 O65 2.105 . S
Sc46 O47 2.025 . S
Sc46 O56 2.105 . S
Sc46 O58 2.105 . S
Sc46 O62 2.105 . S
Sc46 O64 2.105 . S
O47 Sc44 2.025 . S
O47 Sc45 2.025 . S
O47 Sc46 2.025 . S
C48 O54 1.268 . S
C48 O64 1.268 . S
C49 O55 1.268 . S
C49 O63 1.268 . S
C50 O56 1.268 . S
C50 O65 1.268 . S
C51 O57 1.268 . S
C51 O61 1.268 . S
C52 O58 1.268 . S
C52 O60 1.268 . S
C53 O59 1.268 . S
C53 O62 1.268 . S
O54 Sc44 2.105 . S
O54 C48 1.268 . S
O55 Sc45 2.105 . S
O55 C49 1.268 . S
O56 Sc46 2.105 . S
O56 C50 1.268 . S
O57 Sc44 2.105 . S
O57 C51 1.268 . S
O58 Sc46 2.105 . S
O58 C52 1.268 . S
O59 Sc45 2.105 . S
O59 C53 1.268 . S
O60 Sc44 2.105 . S
O60 C52 1.268 . S
O61 Sc45 2.105 . S
O61 C51 1.268 . S
O62 Sc46 2.105 . S
O62 C53 1.268 . S
O63 Sc44 2.105 . S
O63 C49 1.268 . S
O64 Sc46 2.105 . S
O64 C48 1.268 . S
O65 Sc45 2.105 . S
O65 C50 1.268 . S
Sc66 O69 2.025 . S
Sc66 O76 2.105 . S
Sc66 O79 2.105 . S
Sc66 O82 2.105 1_655 S
Sc66 O85 2.105 . S
Sc67 O69 2.025 . S
Sc67 O77 2.105 . S
Sc67 O81 2.105 . S
Sc67 O83 2.105 . S
Sc67 O87 2.105 . S
Sc68 O69 2.025 . S
Sc68 O78 2.105 . S
Sc68 O80 2.105 1_655 S
Sc68 O84 2.105 . S
Sc68 O86 2.105 . S
O69 Sc66 2.025 . S
O69 Sc67 2.025 . S
O69 Sc68 2.025 . S
C70 O76 1.268 . S
C70 O86 1.268 . S
C71 O77 1.268 . S
C71 O85 1.268 . S
C72 O78 1.268 . S
C72 O87 1.268 . S
C73 O79 1.268 . S
C73 O83 1.268 . S
C74 O80 1.268 . S
C74 O82 1.268 . S
C75 O81 1.268 . S
C75 O84 1.268 . S
O76 Sc66 2.105 . S
O76 C70 1.268 . S
O77 Sc67 2.105 . S
O77 C71 1.268 . S
O78 Sc68 2.105 . S
O78 C72 1.268 . S
O79 Sc66 2.105 . S
O79 C73 1.268 . S
O80 Sc68 2.105 1_455 S
O80 C74 1.268 . S
O81 Sc67 2.105 . S
O81 C75 1.268 . S
O82 Sc66 2.105 1_455 S
O82 C74 1.268 . S
O83 Sc67 2.105 . S
O83 C73 1.268 . S
O84 Sc68 2.105 . S
O84 C75 1.268 . S
O85 Sc66 2.105 . S
O85 C71 1.268 . S
O86 Sc68 2.105 . S
O86 C70 1.268 . S
O87 Sc67 2.105 . S
O87 C72 1.268 . S
Sc88 O91 2.025 . S
Sc88 O98 2.105 . S
Sc88 O101 2.105 . S
Sc88 O104 2.105 1_545 S
Sc88 O107 2.105 . S
Sc89 O91 2.025 . S
Sc89 O99 2.105 . S
Sc89 O103 2.105 . S
Sc89 O105 2.105 . S
Sc89 O109 2.105 . S
Sc90 O91 2.025 . S
Sc90 O100 2.105 . S
Sc90 O102 2.105 1_545 S
Sc90 O106 2.105 . S
Sc90 O108 2.105 . S
O91 Sc88 2.025 . S
O91 Sc89 2.025 . S
O91 Sc90 2.025 . S
C92 O98 1.268 . S
C92 O108 1.268 . S
C93 O99 1.268 . S
C93 O107 1.268 . S
C94 O100 1.268 . S
C94 O109 1.268 . S
C95 O101 1.268 . S
C95 O105 1.268 . S
C96 O102 1.268 . S
C96 O104 1.268 . S
C97 O103 1.268 . S
C97 O106 1.268 . S
O98 Sc88 2.105 . S
O98 C92 1.268 . S
O99 Sc89 2.105 . S
O99 C93 1.268 . S
O100 Sc90 2.105 . S
O100 C94 1.268 . S
O101 Sc88 2.105 . S
O101 C95 1.268 . S
O102 Sc90 2.105 1_565 S
O102 C96 1.268 . S
O103 Sc89 2.105 . S
O103 C97 1.268 . S
O104 Sc88 2.105 1_565 S
O104 C96 1.268 . S
O105 Sc89 2.105 . S
O105 C95 1.268 . S
O106 Sc90 2.105 . S
O106 C97 1.268 . S
O107 Sc88 2.105 . S
O107 C93 1.268 . S
O108 Sc90 2.105 . S
O108 C92 1.268 . S
O109 Sc89 2.105 . S
O109 C94 1.268 . S
Sc110 O113 2.025 . S
Sc110 O120 2.105 . S
Sc110 O123 2.105 . S
Sc110 O126 2.105 1_565 S
Sc110 O129 2.105 . S
Sc111 O113 2.025 . S
Sc111 O121 2.105 . S
Sc111 O125 2.105 . S
Sc111 O127 2.105 . S
Sc111 O131 2.105 . S
Sc112 O113 2.025 . S
Sc112 O122 2.105 . S
Sc112 O124 2.105 1_565 S
Sc112 O128 2.105 . S
Sc112 O130 2.105 . S
O113 Sc110 2.025 . S
O113 Sc111 2.025 . S
O113 Sc112 2.025 . S
C114 O120 1.268 . S
C114 O130 1.268 . S
C115 O121 1.268 . S
C115 O129 1.268 . S
C116 O122 1.268 . S
C116 O131 1.268 . S
C117 O123 1.268 . S
C117 O127 1.268 . S
C118 O124 1.268 . S
C118 O126 1.268 . S
C119 O125 1.268 . S
C119 O128 1.268 . S
O120 Sc110 2.105 . S
O120 C114 1.268 . S
O121 Sc111 2.105 . S
O121 C115 1.268 . S
O122 Sc112 2.105 . S
O122 C116 1.268 . S
O123 Sc110 2.105 . S
O123 C117 1.268 . S
O124 Sc112 2.105 1_545 S
O124 C118 1.268 . S
O125 Sc111 2.105 . S
O125 C119 1.268 . S
O126 Sc110 2.105 1_545 S
O126 C118 1.268 . S
O127 Sc111 2.105 . S
O127 C117 1.268 . S
O128 Sc112 2.105 . S
O128 C119 1.268 . S
O129 Sc110 2.105 . S
O129 C115 1.268 . S
O130 Sc112 2.105 . S
O130 C114 1.268 . S
O131 Sc111 2.105 . S
O131 C116 1.268 . S
Sc132 O135 2.025 . S
Sc132 O142 2.105 . S
Sc132 O145 2.105 . S
Sc132 O148 2.105 . S
Sc132 O151 2.105 . S
Sc133 O135 2.025 . S
Sc133 O143 2.105 . S
Sc133 O147 2.105 . S
Sc133 O149 2.105 . S
Sc133 O153 2.105 . S
Sc134 O135 2.025 . S
Sc134 O144 2.105 . S
Sc134 O146 2.105 . S
Sc134 O150 2.105 . S
Sc134 O152 2.105 . S
O135 Sc132 2.025 . S
O135 Sc133 2.025 . S
O135 Sc134 2.025 . S
C136 O142 1.268 . S
C136 O152 1.268 . S
C137 O143 1.268 . S
C137 O151 1.268 . S
C138 O144 1.268 . S
C138 O153 1.268 . S
C139 O145 1.268 . S
C139 O149 1.268 . S
C140 O146 1.268 . S
C140 O148 1.268 . S
C141 O147 1.268 . S
C141 O150 1.268 . S
O142 Sc132 2.105 . S
O142 C136 1.268 . S
O143 Sc133 2.105 . S
O143 C137 1.268 . S
O144 Sc134 2.105 . S
O144 C138 1.268 . S
O145 Sc132 2.105 . S
O145 C139 1.268 . S
O146 Sc134 2.105 . S
O146 C140 1.268 . S
O147 Sc133 2.105 . S
O147 C141 1.268 . S
O148 Sc132 2.105 . S
O148 C140 1.268 . S
O149 Sc133 2.105 . S
O149 C139 1.268 . S
O150 Sc134 2.105 . S
O150 C141 1.268 . S
O151 Sc132 2.105 . S
O151 C137 1.268 . S
O152 Sc134 2.105 . S
O152 C136 1.268 . S
O153 Sc133 2.105 . S
O153 C138 1.268 . S
Sc154 O157 2.025 . S
Sc154 O164 2.105 . S
Sc154 O167 2.105 . S
Sc154 O170 2.105 . S
Sc154 O173 2.105 . S
Sc155 O157 2.025 . S
Sc155 O165 2.105 . S
Sc155 O169 2.105 . S
Sc155 O171 2.105 . S
Sc155 O175 2.105 . S
Sc156 O157 2.025 . S
Sc156 O166 2.105 . S
Sc156 O168 2.105 . S
Sc156 O172 2.105 . S
Sc156 O174 2.105 . S
O157 Sc154 2.025 . S
O157 Sc155 2.025 . S
O157 Sc156 2.025 . S
C158 O164 1.268 . S
C158 O174 1.268 . S
C159 O165 1.268 . S
C159 O173 1.268 . S
C160 O166 1.268 . S
C160 O175 1.268 . S
C161 O167 1.268 . S
C161 O171 1.268 . S
C162 O168 1.268 . S
C162 O170 1.268 . S
C163 O169 1.268 . S
C163 O172 1.268 . S
O164 Sc154 2.105 . S
O164 C158 1.268 . S
O165 Sc155 2.105 . S
O165 C159 1.268 . S
O166 Sc156 2.105 . S
O166 C160 1.268 . S
O167 Sc154 2.105 . S
O167 C161 1.268 . S
O168 Sc156 2.105 . S
O168 C162 1.268 . S
O169 Sc155 2.105 . S
O169 C163 1.268 . S
O170 Sc154 2.105 . S
O170 C162 1.268 . S
O171 Sc155 2.105 . S
O171 C161 1.268 . S
O172 Sc156 2.105 . S
O172 C163 1.268 . S
O173 Sc154 2.105 . S
O173 C159 1.268 . S
O174 Sc156 2.105 . S
O174 C158 1.268 . S
O175 Sc155 2.105 . S
O175 C160 1.268 . S
Sc176 O179 2.025 . S
Sc176 O186 2.105 1_554 S
Sc176 O189 2.105 . S
Sc176 O192 2.105 . S
Sc176 O195 2.105 . S
Sc177 O179 2.025 . S
Sc177 O187 2.105 . S
Sc177 O191 2.105 . S
Sc177 O193 2.105 . S
Sc177 O197 2.105 . S
Sc178 O179 2.025 . S
Sc178 O188 2.105 . S
Sc178 O190 2.105 . S
Sc178 O194 2.105 . S
Sc178 O196 2.105 1_554 S
O179 Sc176 2.025 . S
O179 Sc177 2.025 . S
O179 Sc178 2.025 . S
C180 O186 1.268 . S
C180 O196 1.268 . S
C181 O187 1.268 . S
C181 O195 1.268 . S
C182 O188 1.268 . S
C182 O197 1.268 . S
C183 O189 1.268 . S
C183 O193 1.268 . S
C184 O190 1.268 . S
C184 O192 1.268 . S
C185 O191 1.268 . S
C185 O194 1.268 . S
O186 Sc176 2.105 1_556 S
O186 C180 1.268 . S
O187 Sc177 2.105 . S
O187 C181 1.268 . S
O188 Sc178 2.105 . S
O188 C182 1.268 . S
O189 Sc176 2.105 . S
O189 C183 1.268 . S
O190 Sc178 2.105 . S
O190 C184 1.268 . S
O191 Sc177 2.105 . S
O191 C185 1.268 . S
O192 Sc176 2.105 . S
O192 C184 1.268 . S
O193 Sc177 2.105 . S
O193 C183 1.268 . S
O194 Sc178 2.105 . S
O194 C185 1.268 . S
O195 Sc176 2.105 . S
O195 C181 1.268 . S
O196 Sc178 2.105 1_556 S
O196 C180 1.268 . S
O197 Sc177 2.105 . S
O197 C182 1.268 . S
Sc198 O201 2.025 . S
Sc198 O208 2.105 . S
Sc198 O211 2.105 . S
Sc198 O214 2.105 1_556 S
Sc198 O217 2.105 . S
Sc199 O201 2.025 . S
Sc199 O209 2.105 . S
Sc199 O213 2.105 . S
Sc199 O215 2.105 . S
Sc199 O219 2.105 . S
Sc200 O201 2.025 . S
Sc200 O210 2.105 . S
Sc200 O212 2.105 1_556 S
Sc200 O216 2.105 . S
Sc200 O218 2.105 . S
O201 Sc198 2.025 . S
O201 Sc199 2.025 . S
O201 Sc200 2.025 . S
C202 O208 1.268 . S
C202 O218 1.268 . S
C203 O209 1.268 . S
C203 O217 1.268 . S
C204 O210 1.268 . S
C204 O219 1.268 . S
C205 O211 1.268 . S
C205 O215 1.268 . S
C206 O212 1.268 . S
C206 O214 1.268 . S
C207 O213 1.268 . S
C207 O216 1.268 . S
O208 Sc198 2.105 . S
O208 C202 1.268 . S
O209 Sc199 2.105 . S
O209 C203 1.268 . S
O210 Sc200 2.105 . S
O210 C204 1.268 . S
O211 Sc198 2.105 . S
O211 C205 1.268 . S
O212 Sc200 2.105 1_554 S
O212 C206 1.268 . S
O213 Sc199 2.105 . S
O213 C207 1.268 . S
O214 Sc198 2.105 1_554 S
O214 C206 1.268 . S
O215 Sc199 2.105 . S
O215 C205 1.268 . S
O216 Sc200 2.105 . S
O216 C207 1.268 . S
O217 Sc198 2.105 . S
O217 C203 1.268 . S
O218 Sc200 2.105 . S
O218 C202 1.268 . S
O219 Sc199 2.105 . S
O219 C204 1.268 . S
Sc220 O223 2.025 . S
Sc220 O230 2.105 . S
Sc220 O233 2.105 . S
Sc220 O236 2.105 . S
Sc220 O239 2.105 . S
Sc221 O223 2.025 . S
Sc221 O231 2.105 . S
Sc221 O235 2.105 . S
Sc221 O237 2.105 . S
Sc221 O241 2.105 . S
Sc222 O223 2.025 . S
Sc222 O232 2.105 . S
Sc222 O234 2.105 . S
Sc222 O238 2.105 . S
Sc222 O240 2.105 . S
O223 Sc220 2.025 . S
O223 Sc221 2.025 . S
O223 Sc222 2.025 . S
C224 O230 1.268 . S
C224 O240 1.268 . S
C225 O231 1.268 . S
C225 O239 1.268 . S
C226 O232 1.268 . S
C226 O241 1.268 . S
C227 O233 1.268 . S
C227 O237 1.268 . S
C228 O234 1.268 . S
C228 O236 1.268 . S
C229 O235 1.268 . S
C229 O238 1.268 . S
O230 Sc220 2.105 . S
O230 C224 1.268 . S
O231 Sc221 2.105 . S
O231 C225 1.268 . S
O232 Sc222 2.105 . S
O232 C226 1.268 . S
O233 Sc220 2.105 . S
O233 C227 1.268 . S
O234 Sc222 2.105 . S
O234 C228 1.268 . S
O235 Sc221 2.105 . S
O235 C229 1.268 . S
O236 Sc220 2.105 . S
O236 C228 1.268 . S
O237 Sc221 2.105 . S
O237 C227 1.268 . S
O238 Sc222 2.105 . S
O238 C229 1.268 . S
O239 Sc220 2.105 . S
O239 C225 1.268 . S
O240 Sc222 2.105 . S
O240 C224 1.268 . S
O241 Sc221 2.105 . S
O241 C226 1.268 . S
Sc242 O245 2.025 . S
Sc242 O252 2.105 . S
Sc242 O255 2.105 . S
Sc242 O258 2.105 . S
Sc242 O261 2.105 . S
Sc243 O245 2.025 . S
Sc243 O253 2.105 . S
Sc243 O257 2.105 . S
Sc243 O259 2.105 . S
Sc243 O263 2.105 . S
Sc244 O245 2.025 . S
Sc244 O254 2.105 . S
Sc244 O256 2.105 . S
Sc244 O260 2.105 . S
Sc244 O262 2.105 . S
O245 Sc242 2.025 . S
O245 Sc243 2.025 . S
O245 Sc244 2.025 . S
C246 O252 1.268 . S
C246 O262 1.268 . S
C247 O253 1.268 . S
C247 O261 1.268 . S
C248 O254 1.268 . S
C248 O263 1.268 . S
C249 O255 1.268 . S
C249 O259 1.268 . S
C250 O256 1.268 . S
C250 O258 1.268 . S
C251 O257 1.268 . S
C251 O260 1.268 . S
O252 Sc242 2.105 . S
O252 C246 1.268 . S
O253 Sc243 2.105 . S
O253 C247 1.268 . S
O254 Sc244 2.105 . S
O254 C248 1.268 . S
O255 Sc242 2.105 . S
O255 C249 1.268 . S
O256 Sc244 2.105 . S
O256 C250 1.268 . S
O257 Sc243 2.105 . S
O257 C251 1.268 . S
O258 Sc242 2.105 . S
O258 C250 1.268 . S
O259 Sc243 2.105 . S
O259 C249 1.268 . S
O260 Sc244 2.105 . S
O260 C251 1.268 . S
O261 Sc242 2.105 . S
O261 C247 1.268 . S
O262 Sc244 2.105 . S
O262 C246 1.268 . S
O263 Sc243 2.105 . S
O263 C248 1.268 . S
Sc264 O267 2.025 . S
Sc264 O274 2.105 1_655 S
Sc264 O277 2.105 . S
Sc264 O280 2.105 . S
Sc264 O283 2.105 . S
Sc265 O267 2.025 . S
Sc265 O275 2.105 . S
Sc265 O279 2.105 . S
Sc265 O281 2.105 . S
Sc265 O285 2.105 . S
Sc266 O267 2.025 . S
Sc266 O276 2.105 . S
Sc266 O278 2.105 . S
Sc266 O282 2.105 . S
Sc266 O284 2.105 1_655 S
O267 Sc264 2.025 . S
O267 Sc265 2.025 . S
O267 Sc266 2.025 . S
C268 O274 1.268 . S
C268 O284 1.268 . S
C269 O275 1.268 . S
C269 O283 1.268 . S
C270 O276 1.268 . S
C270 O285 1.268 . S
C271 O277 1.268 . S
C271 O281 1.268 . S
C272 O278 1.268 . S
C272 O280 1.268 . S
C273 O279 1.268 . S
C273 O282 1.268 . S
O274 Sc264 2.105 1_455 S
O274 C268 1.268 . S
O275 Sc265 2.105 . S
O275 C269 1.268 . S
O276 Sc266 2.105 . S
O276 C270 1.268 . S
O277 Sc264 2.105 . S
O277 C271 1.268 . S
O278 Sc266 2.105 . S
O278 C272 1.268 . S
O279 Sc265 2.105 . S
O279 C273 1.268 . S
O280 Sc264 2.105 . S
O280 C272 1.268 . S
O281 Sc265 2.105 . S
O281 C271 1.268 . S
O282 Sc266 2.105 . S
O282 C273 1.268 . S
O283 Sc264 2.105 . S
O283 C269 1.268 . S
O284 Sc266 2.105 1_455 S
O284 C268 1.268 . S
O285 Sc265 2.105 . S
O285 C270 1.268 . S
Sc286 O289 2.025 . S
Sc286 O296 2.105 . S
Sc286 O299 2.105 . S
Sc286 O302 2.105 . S
Sc286 O305 2.105 . S
Sc287 O289 2.025 . S
Sc287 O297 2.105 . S
Sc287 O301 2.105 . S
Sc287 O303 2.105 . S
Sc287 O307 2.105 . S
Sc288 O289 2.025 . S
Sc288 O298 2.105 . S
Sc288 O300 2.105 . S
Sc288 O304 2.105 . S
Sc288 O306 2.105 . S
O289 Sc286 2.025 . S
O289 Sc287 2.025 . S
O289 Sc288 2.025 . S
C290 O296 1.268 . S
C290 O306 1.268 . S
C291 O297 1.268 . S
C291 O305 1.268 . S
C292 O298 1.268 . S
C292 O307 1.268 . S
C293 O299 1.268 . S
C293 O303 1.268 . S
C294 O300 1.268 . S
C294 O302 1.268 . S
C295 O301 1.268 . S
C295 O304 1.268 . S
O296 Sc286 2.105 . S
O296 C290 1.268 . S
O297 Sc287 2.105 . S
O297 C291 1.268 . S
O298 Sc288 2.105 . S
O298 C292 1.268 . S
O299 Sc286 2.105 . S
O299 C293 1.268 . S
O300 Sc288 2.105 . S
O300 C294 1.268 . S
O301 Sc287 2.105 . S
O301 C295 1.268 . S
O302 Sc286 2.105 . S
O302 C294 1.268 . S
O303 Sc287 2.105 . S
O303 C293 1.268 . S
O304 Sc288 2.105 . S
O304 C295 1.268 . S
O305 Sc286 2.105 . S
O305 C291 1.268 . S
O306 Sc288 2.105 . S
O306 C290 1.268 . S
O307 Sc287 2.105 . S
O307 C292 1.268 . S
Sc308 O311 2.025 . S
Sc308 O318 2.105 . S
Sc308 O321 2.105 . S
Sc308 O324 2.105 . S
Sc308 O327 2.105 . S
Sc309 O311 2.025 . S
Sc309 O319 2.105 . S
Sc309 O323 2.105 . S
Sc309 O325 2.105 . S
Sc309 O329 2.105 . S
Sc310 O311 2.025 . S
Sc310 O320 2.105 . S
Sc310 O322 2.105 . S
Sc310 O326 2.105 . S
Sc310 O328 2.105 . S
O311 Sc308 2.025 . S
O311 Sc309 2.025 . S
O311 Sc310 2.025 . S
C312 O318 1.268 . S
C312 O328 1.268 . S
C313 O319 1.268 . S
C313 O327 1.268 . S
C314 O320 1.268 . S
C314 O329 1.268 . S
C315 O321 1.268 . S
C315 O325 1.268 . S
C316 O322 1.268 . S
C316 O324 1.268 . S
C317 O323 1.268 . S
C317 O326 1.268 . S
O318 Sc308 2.105 . S
O318 C312 1.268 . S
O319 Sc309 2.105 . S
O319 C313 1.268 . S
O320 Sc310 2.105 . S
O320 C314 1.268 . S
O321 Sc308 2.105 . S
O321 C315 1.268 . S
O322 Sc310 2.105 . S
O322 C316 1.268 . S
O323 Sc309 2.105 . S
O323 C317 1.268 . S
O324 Sc308 2.105 . S
O324 C316 1.268 . S
O325 Sc309 2.105 . S
O325 C315 1.268 . S
O326 Sc310 2.105 . S
O326 C317 1.268 . S
O327 Sc308 2.105 . S
O327 C313 1.268 . S
O328 Sc310 2.105 . S
O328 C312 1.268 . S
O329 Sc309 2.105 . S
O329 C314 1.268 . S
Sc330 O333 2.025 . S
Sc330 O340 2.105 1_455 S
Sc330 O343 2.105 . S
Sc330 O346 2.105 . S
Sc330 O349 2.105 . S
Sc331 O333 2.025 . S
Sc331 O341 2.105 . S
Sc331 O345 2.105 . S
Sc331 O347 2.105 . S
Sc331 O351 2.105 . S
Sc332 O333 2.025 . S
Sc332 O342 2.105 . S
Sc332 O344 2.105 . S
Sc332 O348 2.105 . S
Sc332 O350 2.105 1_455 S
O333 Sc330 2.025 . S
O333 Sc331 2.025 . S
O333 Sc332 2.025 . S
C334 O340 1.268 . S
C334 O350 1.268 . S
C335 O341 1.268 . S
C335 O349 1.268 . S
C336 O342 1.268 . S
C336 O351 1.268 . S
C337 O343 1.268 . S
C337 O347 1.268 . S
C338 O344 1.268 . S
C338 O346 1.268 . S
C339 O345 1.268 . S
C339 O348 1.268 . S
O340 Sc330 2.105 1_655 S
O340 C334 1.268 . S
O341 Sc331 2.105 . S
O341 C335 1.268 . S
O342 Sc332 2.105 . S
O342 C336 1.268 . S
O343 Sc330 2.105 . S
O343 C337 1.268 . S
O344 Sc332 2.105 . S
O344 C338 1.268 . S
O345 Sc331 2.105 . S
O345 C339 1.268 . S
O346 Sc330 2.105 . S
O346 C338 1.268 . S
O347 Sc331 2.105 . S
O347 C337 1.268 . S
O348 Sc332 2.105 . S
O348 C339 1.268 . S
O349 Sc330 2.105 . S
O349 C335 1.268 . S
O350 Sc332 2.105 1_655 S
O350 C334 1.268 . S
O351 Sc331 2.105 . S
O351 C336 1.268 . S
Sc352 O355 2.025 . S
Sc352 O362 2.105 . S
Sc352 O365 2.105 . S
Sc352 O368 2.105 1_565 S
Sc352 O371 2.105 . S
Sc353 O355 2.025 . S
Sc353 O363 2.105 . S
Sc353 O367 2.105 . S
Sc353 O369 2.105 . S
Sc353 O373 2.105 . S
Sc354 O355 2.025 . S
Sc354 O364 2.105 . S
Sc354 O366 2.105 1_565 S
Sc354 O370 2.105 . S
Sc354 O372 2.105 . S
O355 Sc352 2.025 . S
O355 Sc353 2.025 . S
O355 Sc354 2.025 . S
C356 O362 1.268 . S
C356 O372 1.268 . S
C357 O363 1.268 . S
C357 O371 1.268 . S
C358 O364 1.268 . S
C358 O373 1.268 . S
C359 O365 1.268 . S
C359 O369 1.268 . S
C360 O366 1.268 . S
C360 O368 1.268 . S
C361 O367 1.268 . S
C361 O370 1.268 . S
O362 Sc352 2.105 . S
O362 C356 1.268 . S
O363 Sc353 2.105 . S
O363 C357 1.268 . S
O364 Sc354 2.105 . S
O364 C358 1.268 . S
O365 Sc352 2.105 . S
O365 C359 1.268 . S
O366 Sc354 2.105 1_545 S
O366 C360 1.268 . S
O367 Sc353 2.105 . S
O367 C361 1.268 . S
O368 Sc352 2.105 1_545 S
O368 C360 1.268 . S
O369 Sc353 2.105 . S
O369 C359 1.268 . S
O370 Sc354 2.105 . S
O370 C361 1.268 . S
O371 Sc352 2.105 . S
O371 C357 1.268 . S
O372 Sc354 2.105 . S
O372 C356 1.268 . S
O373 Sc353 2.105 . S
O373 C358 1.268 . S
Sc374 O377 2.025 . S
Sc374 O384 2.105 1_545 S
Sc374 O387 2.105 . S
Sc374 O390 2.105 . S
Sc374 O393 2.105 . S
Sc375 O377 2.025 . S
Sc375 O385 2.105 . S
Sc375 O389 2.105 . S
Sc375 O391 2.105 . S
Sc375 O395 2.105 . S
Sc376 O377 2.025 . S
Sc376 O386 2.105 . S
Sc376 O388 2.105 . S
Sc376 O392 2.105 . S
Sc376 O394 2.105 1_545 S
O377 Sc374 2.025 . S
O377 Sc375 2.025 . S
O377 Sc376 2.025 . S
C378 O384 1.268 . S
C378 O394 1.268 . S
C379 O385 1.268 . S
C379 O393 1.268 . S
C380 O386 1.268 . S
C380 O395 1.268 . S
C381 O387 1.268 . S
C381 O391 1.268 . S
C382 O388 1.268 . S
C382 O390 1.268 . S
C383 O389 1.268 . S
C383 O392 1.268 . S
O384 Sc374 2.105 1_565 S
O384 C378 1.268 . S
O385 Sc375 2.105 . S
O385 C379 1.268 . S
O386 Sc376 2.105 . S
O386 C380 1.268 . S
O387 Sc374 2.105 . S
O387 C381 1.268 . S
O388 Sc376 2.105 . S
O388 C382 1.268 . S
O389 Sc375 2.105 . S
O389 C383 1.268 . S
O390 Sc374 2.105 . S
O390 C382 1.268 . S
O391 Sc375 2.105 . S
O391 C381 1.268 . S
O392 Sc376 2.105 . S
O392 C383 1.268 . S
O393 Sc374 2.105 . S
O393 C379 1.268 . S
O394 Sc376 2.105 1_565 S
O394 C378 1.268 . S
O395 Sc375 2.105 . S
O395 C380 1.268 . S
Sc396 O399 2.025 . S
Sc396 O406 2.105 . S
Sc396 O409 2.105 . S
Sc396 O412 2.105 . S
Sc396 O415 2.105 . S
Sc397 O399 2.025 . S
Sc397 O407 2.105 . S
Sc397 O411 2.105 . S
Sc397 O413 2.105 . S
Sc397 O417 2.105 . S
Sc398 O399 2.025 . S
Sc398 O408 2.105 . S
Sc398 O410 2.105 . S
Sc398 O414 2.105 . S
Sc398 O416 2.105 . S
O399 Sc396 2.025 . S
O399 Sc397 2.025 . S
O399 Sc398 2.025 . S
C400 O406 1.268 . S
C400 O416 1.268 . S
C401 O407 1.268 . S
C401 O415 1.268 . S
C402 O408 1.268 . S
C402 O417 1.268 . S
C403 O409 1.268 . S
C403 O413 1.268 . S
C404 O410 1.268 . S
C404 O412 1.268 . S
C405 O411 1.268 . S
C405 O414 1.268 . S
O406 Sc396 2.105 . S
O406 C400 1.268 . S
O407 Sc397 2.105 . S
O407 C401 1.268 . S
O408 Sc398 2.105 . S
O408 C402 1.268 . S
O409 Sc396 2.105 . S
O409 C403 1.268 . S
O410 Sc398 2.105 . S
O410 C404 1.268 . S
O411 Sc397 2.105 . S
O411 C405 1.268 . S
O412 Sc396 2.105 . S
O412 C404 1.268 . S
O413 Sc397 2.105 . S
O413 C403 1.268 . S
O414 Sc398 2.105 . S
O414 C405 1.268 . S
O415 Sc396 2.105 . S
O415 C401 1.268 . S
O416 Sc398 2.105 . S
O416 C400 1.268 . S
O417 Sc397 2.105 . S
O417 C402 1.268 . S
Sc418 O421 2.025 . S
Sc418 O428 2.105 . S
Sc418 O431 2.105 . S
Sc418 O434 2.105 . S
Sc418 O437 2.105 . S
Sc419 O421 2.025 . S
Sc419 O429 2.105 . S
Sc419 O433 2.105 . S
Sc419 O435 2.105 . S
Sc419 O439 2.105 . S
Sc420 O421 2.025 . S
Sc420 O430 2.105 . S
Sc420 O432 2.105 . S
Sc420 O436 2.105 . S
Sc420 O438 2.105 . S
O421 Sc418 2.025 . S
O421 Sc419 2.025 . S
O421 Sc420 2.025 . S
C422 O428 1.268 . S
C422 O438 1.268 . S
C423 O429 1.268 . S
C423 O437 1.268 . S
C424 O430 1.268 . S
C424 O439 1.268 . S
C425 O431 1.268 . S
C425 O435 1.268 . S
C426 O432 1.268 . S
C426 O434 1.268 . S
C427 O433 1.268 . S
C427 O436 1.268 . S
O428 Sc418 2.105 . S
O428 C422 1.268 . S
O429 Sc419 2.105 . S
O429 C423 1.268 . S
O430 Sc420 2.105 . S
O430 C424 1.268 . S
O431 Sc418 2.105 . S
O431 C425 1.268 . S
O432 Sc420 2.105 . S
O432 C426 1.268 . S
O433 Sc419 2.105 . S
O433 C427 1.268 . S
O434 Sc418 2.105 . S
O434 C426 1.268 . S
O435 Sc419 2.105 . S
O435 C425 1.268 . S
O436 Sc420 2.105 . S
O436 C427 1.268 . S
O437 Sc418 2.105 . S
O437 C423 1.268 . S
O438 Sc420 2.105 . S
O438 C422 1.268 . S
O439 Sc419 2.105 . S
O439 C424 1.268 . S
Sc440 O443 2.025 . S
Sc440 O450 2.105 . S
Sc440 O453 2.105 . S
Sc440 O456 2.105 1_556 S
Sc440 O459 2.105 . S
Sc441 O443 2.025 . S
Sc441 O451 2.105 . S
Sc441 O455 2.105 . S
Sc441 O457 2.105 . S
Sc441 O461 2.105 . S
Sc442 O443 2.025 . S
Sc442 O452 2.105 . S
Sc442 O454 2.105 1_556 S
Sc442 O458 2.105 . S
Sc442 O460 2.105 . S
O443 Sc440 2.025 . S
O443 Sc441 2.025 . S
O443 Sc442 2.025 . S
C444 O450 1.268 . S
C444 O460 1.268 . S
C445 O451 1.268 . S
C445 O459 1.268 . S
C446 O452 1.268 . S
C446 O461 1.268 . S
C447 O453 1.268 . S
C447 O457 1.268 . S
C448 O454 1.268 . S
C448 O456 1.268 . S
C449 O455 1.268 . S
C449 O458 1.268 . S
O450 Sc440 2.105 . S
O450 C444 1.268 . S
O451 Sc441 2.105 . S
O451 C445 1.268 . S
O452 Sc442 2.105 . S
O452 C446 1.268 . S
O453 Sc440 2.105 . S
O453 C447 1.268 . S
O454 Sc442 2.105 1_554 S
O454 C448 1.268 . S
O455 Sc441 2.105 . S
O455 C449 1.268 . S
O456 Sc440 2.105 1_554 S
O456 C448 1.268 . S
O457 Sc441 2.105 . S
O457 C447 1.268 . S
O458 Sc442 2.105 . S
O458 C449 1.268 . S
O459 Sc440 2.105 . S
O459 C445 1.268 . S
O460 Sc442 2.105 . S
O460 C444 1.268 . S
O461 Sc441 2.105 . S
O461 C446 1.268 . S
Sc462 O465 2.025 . S
Sc462 O472 2.105 1_554 S
Sc462 O475 2.105 . S
Sc462 O478 2.105 . S
Sc462 O481 2.105 . S
Sc463 O465 2.025 . S
Sc463 O473 2.105 . S
Sc463 O477 2.105 . S
Sc463 O479 2.105 . S
Sc463 O483 2.105 . S
Sc464 O465 2.025 . S
Sc464 O474 2.105 . S
Sc464 O476 2.105 . S
Sc464 O480 2.105 . S
Sc464 O482 2.105 1_554 S
O465 Sc462 2.025 . S
O465 Sc463 2.025 . S
O465 Sc464 2.025 . S
C466 O472 1.268 . S
C466 O482 1.268 . S
C467 O473 1.268 . S
C467 O481 1.268 . S
C468 O474 1.268 . S
C468 O483 1.268 . S
C469 O475 1.268 . S
C469 O479 1.268 . S
C470 O476 1.268 . S
C470 O478 1.268 . S
C471 O477 1.268 . S
C471 O480 1.268 . S
O472 Sc462 2.105 1_556 S
O472 C466 1.268 . S
O473 Sc463 2.105 . S
O473 C467 1.268 . S
O474 Sc464 2.105 . S
O474 C468 1.268 . S
O475 Sc462 2.105 . S
O475 C469 1.268 . S
O476 Sc464 2.105 . S
O476 C470 1.268 . S
O477 Sc463 2.105 . S
O477 C471 1.268 . S
O478 Sc462 2.105 . S
O478 C470 1.268 . S
O479 Sc463 2.105 . S
O479 C469 1.268 . S
O480 Sc464 2.105 . S
O480 C471 1.268 . S
O481 Sc462 2.105 . S
O481 C467 1.268 . S
O482 Sc464 2.105 1_556 S
O482 C466 1.268 . S
O483 Sc463 2.105 . S
O483 C468 1.268 . S
Sc484 O487 2.025 . S
Sc484 O494 2.105 . S
Sc484 O497 2.105 . S
Sc484 O500 2.105 . S
Sc484 O503 2.105 . S
Sc485 O487 2.025 . S
Sc485 O495 2.105 . S
Sc485 O499 2.105 . S
Sc485 O501 2.105 . S
Sc485 O505 2.105 . S
Sc486 O487 2.025 . S
Sc486 O496 2.105 . S
Sc486 O498 2.105 . S
Sc486 O502 2.105 . S
Sc486 O504 2.105 . S
O487 Sc484 2.025 . S
O487 Sc485 2.025 . S
O487 Sc486 2.025 . S
C488 O494 1.268 . S
C488 O504 1.268 . S
C489 O495 1.268 . S
C489 O503 1.268 . S
C490 O496 1.268 . S
C490 O505 1.268 . S
C491 O497 1.268 . S
C491 O501 1.268 . S
C492 O498 1.268 . S
C492 O500 1.268 . S
C493 O499 1.268 . S
C493 O502 1.268 . S
O494 Sc484 2.105 . S
O494 C488 1.268 . S
O495 Sc485 2.105 . S
O495 C489 1.268 . S
O496 Sc486 2.105 . S
O496 C490 1.268 . S
O497 Sc484 2.105 . S
O497 C491 1.268 . S
O498 Sc486 2.105 . S
O498 C492 1.268 . S
O499 Sc485 2.105 . S
O499 C493 1.268 . S
O500 Sc484 2.105 . S
O500 C492 1.268 . S
O501 Sc485 2.105 . S
O501 C491 1.268 . S
O502 Sc486 2.105 . S
O502 C493 1.268 . S
O503 Sc484 2.105 . S
O503 C489 1.268 . S
O504 Sc486 2.105 . S
O504 C488 1.268 . S
O505 Sc485 2.105 . S
O505 C490 1.268 . S
Sc506 O509 2.025 . S
Sc506 O516 2.105 . S
Sc506 O519 2.105 . S
Sc506 O522 2.105 . S
Sc506 O525 2.105 . S
Sc507 O509 2.025 . S
Sc507 O517 2.105 . S
Sc507 O521 2.105 . S
Sc507 O523 2.105 . S
Sc507 O527 2.105 . S
Sc508 O509 2.025 . S
Sc508 O518 2.105 . S
Sc508 O520 2.105 . S
Sc508 O524 2.105 . S
Sc508 O526 2.105 . S
O509 Sc506 2.025 . S
O509 Sc507 2.025 . S
O509 Sc508 2.025 . S
C510 O516 1.268 . S
C510 O526 1.268 . S
C511 O517 1.268 . S
C511 O525 1.268 . S
C512 O518 1.268 . S
C512 O527 1.268 . S
C513 O519 1.268 . S
C513 O523 1.268 . S
C514 O520 1.268 . S
C514 O522 1.268 . S
C515 O521 1.268 . S
C515 O524 1.268 . S
O516 Sc506 2.105 . S
O516 C510 1.268 . S
O517 Sc507 2.105 . S
O517 C511 1.268 . S
O518 Sc508 2.105 . S
O518 C512 1.268 . S
O519 Sc506 2.105 . S
O519 C513 1.268 . S
O520 Sc508 2.105 . S
O520 C514 1.268 . S
O521 Sc507 2.105 . S
O521 C515 1.268 . S
O522 Sc506 2.105 . S
O522 C514 1.268 . S
O523 Sc507 2.105 . S
O523 C513 1.268 . S
O524 Sc508 2.105 . S
O524 C515 1.268 . S
O525 Sc506 2.105 . S
O525 C511 1.268 . S
O526 Sc508 2.105 . S
O526 C510 1.268 . S
O527 Sc507 2.105 . S
O527 C512 1.268 . S
H528 C534 0.930 . S
H529 C538 0.930 . S
H530 C543 0.929 . S
H531 C541 0.929 . S
H532 C536 0.929 . S
H533 C542 0.929 . S
C534 H528 0.930 . S
C534 C535 1.367 . S
C534 C542 1.378 . S
C535 C534 1.367 . S
C535 C543 1.433 . S
C536 H532 0.929 . S
C536 C538 1.378 . S
C536 C540 1.350 . S
C537 C540 1.463 . S
C537 C542 1.350 . S
C537 N545 1.427 . S
C538 H529 0.930 . S
C538 C536 1.378 . S
C538 C539 1.367 . S
C539 C538 1.367 . S
C539 C541 1.433 . S
C540 C536 1.350 . S
C540 C537 1.463 . S
C540 N544 1.427 . S
C541 H531 0.929 . S
C541 C539 1.433 . S
C541 N544 1.384 . S
C542 H533 0.929 . S
C542 C534 1.378 . S
C542 C537 1.350 . S
C543 H530 0.929 . S
C543 C535 1.433 . S
C543 N545 1.384 . S
N544 C540 1.427 . S
N544 C541 1.384 . S
N545 C537 1.427 . S
N545 C543 1.384 . S
H546 C552 0.930 . S
H547 C556 0.930 . S
H548 C561 0.929 . S
H549 C559 0.929 . S
H550 C554 0.929 . S
H551 C560 0.929 . S
C552 H546 0.930 . S
C552 C553 1.367 . S
C552 C560 1.378 . S
C553 C552 1.367 . S
C553 C561 1.433 . S
C554 H550 0.929 . S
C554 C556 1.378 . S
C554 C558 1.350 . S
C555 C558 1.463 . S
C555 C560 1.350 . S
C555 N563 1.427 . S
C556 H547 0.930 . S
C556 C554 1.378 . S
C556 C557 1.367 . S
C557 C556 1.367 . S
C557 C559 1.433 . S
C558 C554 1.350 . S
C558 C555 1.463 . S
C558 N562 1.427 . S
C559 H549 0.929 . S
C559 C557 1.433 . S
C559 N562 1.384 . S
C560 H551 0.929 . S
C560 C552 1.378 . S
C560 C555 1.350 . S
C561 H548 0.929 . S
C561 C553 1.433 . S
C561 N563 1.384 . S
N562 C558 1.427 . S
N562 C559 1.384 . S
N563 C555 1.427 . S
N563 C561 1.384 . S
H564 C570 0.930 . S
H565 C574 0.930 . S
H566 C579 0.929 . S
H567 C577 0.929 . S
H568 C572 0.929 . S
H569 C578 0.929 . S
C570 H564 0.930 . S
C570 C571 1.367 . S
C570 C578 1.378 . S
C571 C570 1.367 . S
C571 C579 1.433 . S
C572 H568 0.929 . S
C572 C574 1.378 . S
C572 C576 1.350 1_565 S
C573 C576 1.463 . S
C573 C578 1.350 . S
C573 N581 1.427 . S
C574 H565 0.930 . S
C574 C572 1.378 . S
C574 C575 1.367 . S
C575 C574 1.367 . S
C575 C577 1.433 1_565 S
C576 C572 1.350 1_545 S
C576 C573 1.463 . S
C576 N580 1.427 . S
C577 H567 0.929 . S
C577 C575 1.433 1_545 S
C577 N580 1.384 . S
C578 H569 0.929 . S
C578 C570 1.378 . S
C578 C573 1.350 . S
C579 H566 0.929 . S
C579 C571 1.433 . S
C579 N581 1.384 . S
N580 C576 1.427 . S
N580 C577 1.384 . S
N581 C573 1.427 . S
N581 C579 1.384 . S
H582 C588 0.930 . S
H583 C592 0.930 . S
H584 C597 0.929 . S
H585 C595 0.929 . S
H586 C590 0.929 . S
H587 C596 0.929 . S
C588 H582 0.930 . S
C588 C589 1.367 . S
C588 C596 1.378 . S
C589 C588 1.367 . S
C589 C597 1.433 . S
C590 H586 0.929 . S
C590 C592 1.378 . S
C590 C594 1.350 1_545 S
C591 C594 1.463 . S
C591 C596 1.350 . S
C591 N599 1.427 . S
C592 H583 0.930 . S
C592 C590 1.378 . S
C592 C593 1.367 . S
C593 C592 1.367 . S
C593 C595 1.433 1_545 S
C594 C590 1.350 1_565 S
C594 C591 1.463 . S
C594 N598 1.427 . S
C595 H585 0.929 . S
C595 C593 1.433 1_565 S
C595 N598 1.384 . S
C596 H587 0.929 . S
C596 C588 1.378 . S
C596 C591 1.350 . S
C597 H584 0.929 . S
C597 C589 1.433 . S
C597 N599 1.384 . S
N598 C594 1.427 . S
N598 C595 1.384 . S
N599 C591 1.427 . S
N599 C597 1.384 . S
H600 C606 0.930 . S
H601 C610 0.930 . S
H602 C615 0.929 . S
H603 C613 0.929 . S
H604 C608 0.929 . S
H605 C614 0.929 . S
C606 H600 0.930 . S
C606 C607 1.367 . S
C606 C614 1.378 . S
C607 C606 1.367 . S
C607 C615 1.433 . S
C608 H604 0.929 . S
C608 C610 1.378 . S
C608 C612 1.350 . S
C609 C612 1.463 . S
C609 C614 1.350 . S
C609 N617 1.427 . S
C610 H601 0.930 . S
C610 C608 1.378 . S
C610 C611 1.367 . S
C611 C610 1.367 . S
C611 C613 1.433 . S
C612 C608 1.350 . S
C612 C609 1.463 . S
C612 N616 1.427 . S
C613 H603 0.929 . S
C613 C611 1.433 . S
C613 N616 1.384 . S
C614 H605 0.929 . S
C614 C606 1.378 . S
C614 C609 1.350 . S
C615 H602 0.929 . S
C615 C607 1.433 . S
C615 N617 1.384 . S
N616 C612 1.427 . S
N616 C613 1.384 . S
N617 C609 1.427 . S
N617 C615 1.384 . S
H618 C624 0.930 . S
H619 C628 0.930 . S
H620 C633 0.929 . S
H621 C631 0.929 . S
H622 C626 0.929 . S
H623 C632 0.929 . S
C624 H618 0.930 . S
C624 C625 1.367 . S
C624 C632 1.378 . S
C625 C624 1.367 . S
C625 C633 1.433 . S
C626 H622 0.929 . S
C626 C628 1.378 1_556 S
C626 C630 1.350 . S
C627 C630 1.463 . S
C627 C632 1.350 . S
C627 N635 1.427 . S
C628 H619 0.930 . S
C628 C626 1.378 1_554 S
C628 C629 1.367 . S
C629 C628 1.367 . S
C629 C631 1.433 . S
C630 C626 1.350 . S
C630 C627 1.463 . S
C630 N634 1.427 . S
C631 H621 0.929 . S
C631 C629 1.433 . S
C631 N634 1.384 1_554 S
C632 H623 0.929 . S
C632 C624 1.378 . S
C632 C627 1.350 . S
C633 H620 0.929 . S
C633 C625 1.433 . S
C633 N635 1.384 . S
N634 C630 1.427 . S
N634 C631 1.384 1_556 S
N635 C627 1.427 . S
N635 C633 1.384 . S
H636 C642 0.930 . S
H637 C646 0.930 . S
H638 C651 0.929 . S
H639 C649 0.929 . S
H640 C644 0.929 . S
H641 C650 0.929 . S
C642 H636 0.930 . S
C642 C643 1.367 . S
C642 C650 1.378 . S
C643 C642 1.367 . S
C643 C651 1.433 . S
C644 H640 0.929 . S
C644 C646 1.378 . S
C644 C648 1.350 . S
C645 C648 1.463 . S
C645 C650 1.350 . S
C645 N653 1.427 . S
C646 H637 0.930 . S
C646 C644 1.378 . S
C646 C647 1.367 . S
C647 C646 1.367 . S
C647 C649 1.433 . S
C648 C644 1.350 . S
C648 C645 1.463 . S
C648 N652 1.427 . S
C649 H639 0.929 . S
C649 C647 1.433 . S
C649 N652 1.384 . S
C650 H641 0.929 . S
C650 C642 1.378 . S
C650 C645 1.350 . S
C651 H638 0.929 . S
C651 C643 1.433 . S
C651 N653 1.384 . S
N652 C648 1.427 . S
N652 C649 1.384 . S
N653 C645 1.427 . S
N653 C651 1.384 . S
H654 C660 0.930 . S
H655 C664 0.930 . S
H656 C669 0.929 . S
H657 C667 0.929 . S
H658 C662 0.929 . S
H659 C668 0.929 . S
C660 H654 0.930 . S
C660 C661 1.367 . S
C660 C668 1.378 . S
C661 C660 1.367 . S
C661 C669 1.433 . S
C662 H658 0.929 . S
C662 C664 1.378 . S
C662 C666 1.350 . S
C663 C666 1.463 . S
C663 C668 1.350 . S
C663 N671 1.427 . S
C664 H655 0.930 . S
C664 C662 1.378 . S
C664 C665 1.367 1_554 S
C665 C664 1.367 1_556 S
C665 C667 1.433 . S
C666 C662 1.350 . S
C666 C663 1.463 . S
C666 N670 1.427 1_554 S
C667 H657 0.929 . S
C667 C665 1.433 . S
C667 N670 1.384 . S
C668 H659 0.929 . S
C668 C660 1.378 . S
C668 C663 1.350 . S
C669 H656 0.929 . S
C669 C661 1.433 . S
C669 N671 1.384 . S
N670 C666 1.427 1_556 S
N670 C667 1.384 . S
N671 C663 1.427 . S
N671 C669 1.384 . S
H672 C678 0.930 . S
H673 C682 0.930 . S
H674 C687 0.929 . S
H675 C685 0.929 . S
H676 C680 0.929 . S
H677 C686 0.929 . S
C678 H672 0.930 . S
C678 C679 1.367 . S
C678 C686 1.378 . S
C679 C678 1.367 . S
C679 C687 1.433 . S
C680 H676 0.929 . S
C680 C682 1.378 . S
C680 C684 1.350 . S
C681 C684 1.463 . S
C681 C686 1.350 . S
C681 N689 1.427 . S
C682 H673 0.930 . S
C682 C680 1.378 . S
C682 C683 1.367 . S
C683 C682 1.367 . S
C683 C685 1.433 . S
C684 C680 1.350 . S
C684 C681 1.463 . S
C684 N688 1.427 . S
C685 H675 0.929 . S
C685 C683 1.433 . S
C685 N688 1.384 . S
C686 H677 0.929 . S
C686 C678 1.378 . S
C686 C681 1.350 . S
C687 H674 0.929 . S
C687 C679 1.433 . S
C687 N689 1.384 . S
N688 C684 1.427 . S
N688 C685 1.384 . S
N689 C681 1.427 . S
N689 C687 1.384 . S
H690 C696 0.930 . S
H691 C700 0.930 . S
H692 C705 0.929 . S
H693 C703 0.929 . S
H694 C698 0.929 . S
H695 C704 0.929 . S
C696 H690 0.930 . S
C696 C697 1.367 . S
C696 C704 1.378 . S
C697 C696 1.367 . S
C697 C705 1.433 . S
C698 H694 0.929 . S
C698 C700 1.378 . S
C698 C702 1.350 1_455 S
C699 C702 1.463 . S
C699 C704 1.350 . S
C699 N707 1.427 . S
C700 H691 0.930 . S
C700 C698 1.378 . S
C700 C701 1.367 . S
C701 C700 1.367 . S
C701 C703 1.433 1_455 S
C702 C698 1.350 1_655 S
C702 C699 1.463 . S
C702 N706 1.427 . S
C703 H693 0.929 . S
C703 C701 1.433 1_655 S
C703 N706 1.384 . S
C704 H695 0.929 . S
C704 C696 1.378 . S
C704 C699 1.350 . S
C705 H692 0.929 . S
C705 C697 1.433 . S
C705 N707 1.384 . S
N706 C702 1.427 . S
N706 C703 1.384 . S
N707 C699 1.427 . S
N707 C705 1.384 . S
H708 C714 0.930 . S
H709 C718 0.930 . S
H710 C723 0.929 . S
H711 C721 0.929 . S
H712 C716 0.929 . S
H713 C722 0.929 . S
C714 H708 0.930 . S
C714 C715 1.367 . S
C714 C722 1.378 . S
C715 C714 1.367 . S
C715 C723 1.433 . S
C716 H712 0.929 . S
C716 C718 1.378 . S
C716 C720 1.350 . S
C717 C720 1.463 . S
C717 C722 1.350 . S
C717 N725 1.427 . S
C718 H709 0.930 . S
C718 C716 1.378 . S
C718 C719 1.367 . S
C719 C718 1.367 . S
C719 C721 1.433 . S
C720 C716 1.350 . S
C720 C717 1.463 . S
C720 N724 1.427 . S
C721 H711 0.929 . S
C721 C719 1.433 . S
C721 N724 1.384 . S
C722 H713 0.929 . S
C722 C714 1.378 . S
C722 C717 1.350 . S
C723 H710 0.929 . S
C723 C715 1.433 . S
C723 N725 1.384 . S
N724 C720 1.427 . S
N724 C721 1.384 . S
N725 C717 1.427 . S
N725 C723 1.384 . S
H726 C732 0.930 . S
H727 C736 0.930 . S
H728 C741 0.929 . S
H729 C739 0.929 . S
H730 C734 0.929 . S
H731 C740 0.929 . S
C732 H726 0.930 . S
C732 C733 1.367 . S
C732 C740 1.378 . S
C733 C732 1.367 . S
C733 C741 1.433 . S
C734 H730 0.929 . S
C734 C736 1.378 . S
C734 C738 1.350 . S
C735 C738 1.463 . S
C735 C740 1.350 . S
C735 N743 1.427 . S
C736 H727 0.930 . S
C736 C734 1.378 . S
C736 C737 1.367 1_455 S
C737 C736 1.367 1_655 S
C737 C739 1.433 . S
C738 C734 1.350 . S
C738 C735 1.463 . S
C738 N742 1.427 1_455 S
C739 H729 0.929 . S
C739 C737 1.433 . S
C739 N742 1.384 . S
C740 H731 0.929 . S
C740 C732 1.378 . S
C740 C735 1.350 . S
C741 H728 0.929 . S
C741 C733 1.433 . S
C741 N743 1.384 . S
N742 C738 1.427 1_655 S
N742 C739 1.384 . S
N743 C735 1.427 . S
N743 C741 1.384 . S
H744 C750 0.930 . S
H745 C754 0.930 . S
H746 C759 0.929 . S
H747 C757 0.929 . S
H748 C752 0.929 . S
H749 C758 0.929 . S
C750 H744 0.930 . S
C750 C751 1.367 . S
C750 C758 1.378 . S
C751 C750 1.367 . S
C751 C759 1.433 . S
C752 H748 0.929 . S
C752 C754 1.378 . S
C752 C756 1.350 . S
C753 C756 1.463 . S
C753 C758 1.350 . S
C753 N761 1.427 . S
C754 H745 0.930 . S
C754 C752 1.378 . S
C754 C755 1.367 . S
C755 C754 1.367 . S
C755 C757 1.433 . S
C756 C752 1.350 . S
C756 C753 1.463 . S
C756 N760 1.427 . S
C757 H747 0.929 . S
C757 C755 1.433 . S
C757 N760 1.384 . S
C758 H749 0.929 . S
C758 C750 1.378 . S
C758 C753 1.350 . S
C759 H746 0.929 . S
C759 C751 1.433 . S
C759 N761 1.384 . S
N760 C756 1.427 . S
N760 C757 1.384 . S
N761 C753 1.427 . S
N761 C759 1.384 . S
H762 C768 0.930 . S
H763 C772 0.930 . S
H764 C777 0.929 . S
H765 C775 0.929 . S
H766 C770 0.929 . S
H767 C776 0.929 . S
C768 H762 0.930 . S
C768 C769 1.367 . S
C768 C776 1.378 . S
C769 C768 1.367 . S
C769 C777 1.433 . S
C770 H766 0.929 . S
C770 C772 1.378 . S
C770 C774 1.350 . S
C771 C774 1.463 . S
C771 C776 1.350 . S
C771 N779 1.427 . S
C772 H763 0.930 . S
C772 C770 1.378 . S
C772 C773 1.367 . S
C773 C772 1.367 . S
C773 C775 1.433 . S
C774 C770 1.350 . S
C774 C771 1.463 . S
C774 N778 1.427 . S
C775 H765 0.929 . S
C775 C773 1.433 . S
C775 N778 1.384 . S
C776 H767 0.929 . S
C776 C768 1.378 . S
C776 C771 1.350 . S
C777 H764 0.929 . S
C777 C769 1.433 . S
C777 N779 1.384 . S
N778 C774 1.427 . S
N778 C775 1.384 . S
N779 C771 1.427 . S
N779 C777 1.384 . S
H780 C786 0.930 . S
H781 C790 0.930 . S
H782 C795 0.929 . S
H783 C793 0.929 . S
H784 C788 0.929 . S
H785 C794 0.929 1_545 S
C786 H780 0.930 . S
C786 C787 1.367 . S
C786 C794 1.378 . S
C787 C786 1.367 . S
C787 C795 1.433 . S
C788 H784 0.929 . S
C788 C790 1.378 . S
C788 C792 1.350 . S
C789 C792 1.463 . S
C789 C794 1.350 . S
C789 N797 1.427 . S
C790 H781 0.930 . S
C790 C788 1.378 . S
C790 C791 1.367 1_565 S
C791 C790 1.367 1_545 S
C791 C793 1.433 . S
C792 C788 1.350 . S
C792 C789 1.463 . S
C792 N796 1.427 1_565 S
C793 H783 0.929 . S
C793 C791 1.433 . S
C793 N796 1.384 . S
C794 H785 0.929 1_565 S
C794 C786 1.378 . S
C794 C789 1.350 . S
C795 H782 0.929 . S
C795 C787 1.433 . S
C795 N797 1.384 . S
N796 C792 1.427 1_545 S
N796 C793 1.384 . S
N797 C789 1.427 . S
N797 C795 1.384 . S
H798 C804 0.930 . S
H799 C808 0.930 . S
H800 C813 0.929 . S
H801 C811 0.929 . S
H802 C806 0.929 . S
H803 C812 0.929 . S
C804 H798 0.930 . S
C804 C805 1.367 . S
C804 C812 1.378 . S
C805 C804 1.367 . S
C805 C813 1.433 1_565 S
C806 H802 0.929 . S
C806 C808 1.378 . S
C806 C810 1.350 . S
C807 C810 1.463 . S
C807 C812 1.350 1_545 S
C807 N815 1.427 . S
C808 H799 0.930 . S
C808 C806 1.378 . S
C808 C809 1.367 . S
C809 C808 1.367 . S
C809 C811 1.433 . S
C810 C806 1.350 . S
C810 C807 1.463 . S
C810 N814 1.427 . S
C811 H801 0.929 . S
C811 C809 1.433 . S
C811 N814 1.384 . S
C812 H803 0.929 . S
C812 C804 1.378 . S
C812 C807 1.350 1_565 S
C813 H800 0.929 . S
C813 C805 1.433 1_545 S
C813 N815 1.384 . S
N814 C810 1.427 . S
N814 C811 1.384 . S
N815 C807 1.427 . S
N815 C813 1.384 . S
H816 C822 0.930 . S
H817 C826 0.930 . S
H818 C831 0.929 . S
H819 C829 0.929 . S
H820 C824 0.929 . S
H821 C830 0.929 . S
C822 H816 0.930 . S
C822 C823 1.367 . S
C822 C830 1.378 . S
C823 C822 1.367 . S
C823 C831 1.433 . S
C824 H820 0.929 . S
C824 C826 1.378 . S
C824 C828 1.350 . S
C825 C828 1.463 . S
C825 C830 1.350 . S
C825 N833 1.427 . S
C826 H817 0.930 . S
C826 C824 1.378 . S
C826 C827 1.367 . S
C827 C826 1.367 . S
C827 C829 1.433 . S
C828 C824 1.350 . S
C828 C825 1.463 . S
C828 N832 1.427 . S
C829 H819 0.929 . S
C829 C827 1.433 . S
C829 N832 1.384 . S
C830 H821 0.929 . S
C830 C822 1.378 . S
C830 C825 1.350 . S
C831 H818 0.929 . S
C831 C823 1.433 . S
C831 N833 1.384 . S
N832 C828 1.427 . S
N832 C829 1.384 . S
N833 C825 1.427 . S
N833 C831 1.384 . S
H834 C840 0.930 . S
H835 C844 0.930 . S
H836 C849 0.929 . S
H837 C847 0.929 . S
H838 C842 0.929 . S
H839 C848 0.929 . S
C840 H834 0.930 . S
C840 C841 1.367 . S
C840 C848 1.378 1_556 S
C841 C840 1.367 . S
C841 C849 1.433 . S
C842 H838 0.929 . S
C842 C844 1.378 . S
C842 C846 1.350 . S
C843 C846 1.463 . S
C843 C848 1.350 . S
C843 N851 1.427 . S
C844 H835 0.930 . S
C844 C842 1.378 . S
C844 C845 1.367 . S
C845 C844 1.367 . S
C845 C847 1.433 . S
C846 C842 1.350 . S
C846 C843 1.463 . S
C846 N850 1.427 . S
C847 H837 0.929 . S
C847 C845 1.433 . S
C847 N850 1.384 . S
C848 H839 0.929 . S
C848 C840 1.378 1_554 S
C848 C843 1.350 . S
C849 H836 0.929 . S
C849 C841 1.433 . S
C849 N851 1.384 1_556 S
N850 C846 1.427 . S
N850 C847 1.384 . S
N851 C843 1.427 . S
N851 C849 1.384 1_554 S
H852 C858 0.930 . S
H853 C862 0.930 . S
H854 C867 0.929 . S
H855 C865 0.929 . S
H856 C860 0.929 . S
H857 C866 0.929 . S
C858 H852 0.930 . S
C858 C859 1.367 . S
C858 C866 1.378 . S
C859 C858 1.367 . S
C859 C867 1.433 . S
C860 H856 0.929 . S
C860 C862 1.378 . S
C860 C864 1.350 . S
C861 C864 1.463 . S
C861 C866 1.350 . S
C861 N869 1.427 . S
C862 H853 0.930 . S
C862 C860 1.378 . S
C862 C863 1.367 . S
C863 C862 1.367 . S
C863 C865 1.433 . S
C864 C860 1.350 . S
C864 C861 1.463 . S
C864 N868 1.427 . S
C865 H855 0.929 . S
C865 C863 1.433 . S
C865 N868 1.384 . S
C866 H857 0.929 . S
C866 C858 1.378 . S
C866 C861 1.350 . S
C867 H854 0.929 . S
C867 C859 1.433 . S
C867 N869 1.384 . S
N868 C864 1.427 . S
N868 C865 1.384 . S
N869 C861 1.427 . S
N869 C867 1.384 . S
H870 C876 0.930 . S
H871 C880 0.930 . S
H872 C885 0.929 . S
H873 C883 0.929 . S
H874 C878 0.929 . S
H875 C884 0.930 . S
C876 H870 0.930 . S
C876 C877 1.367 . S
C876 C884 1.390 . S
C877 C876 1.367 . S
C877 C885 1.433 1_554 S
C878 H874 0.929 . S
C878 C880 1.378 . S
C878 C882 1.350 . S
C879 C882 1.463 . S
C879 C884 1.337 1_556 S
C879 N887 1.427 . S
C880 H871 0.930 . S
C880 C878 1.378 . S
C880 C881 1.367 . S
C881 C880 1.367 . S
C881 C883 1.433 . S
C882 C878 1.350 . S
C882 C879 1.463 . S
C882 N886 1.427 . S
C883 H873 0.929 . S
C883 C881 1.433 . S
C883 N886 1.384 . S
C884 H875 0.930 . S
C884 C876 1.390 . S
C884 C879 1.337 1_554 S
C885 H872 0.929 . S
C885 C877 1.433 1_556 S
C885 N887 1.384 . S
N886 C882 1.427 . S
N886 C883 1.384 . S
N887 C879 1.427 . S
N887 C885 1.384 . S
H888 C894 0.930 . S
H889 C898 0.930 . S
H890 C903 0.929 . S
H891 C901 0.929 . S
H892 C896 0.929 . S
H893 C902 0.929 . S
C894 H888 0.930 . S
C894 C895 1.367 . S
C894 C902 1.378 . S
C895 C894 1.367 . S
C895 C903 1.433 . S
C896 H892 0.929 . S
C896 C898 1.378 . S
C896 C900 1.350 . S
C897 C900 1.463 . S
C897 C902 1.350 . S
C897 N905 1.427 . S
C898 H889 0.930 . S
C898 C896 1.378 . S
C898 C899 1.367 . S
C899 C898 1.367 . S
C899 C901 1.433 . S
C900 C896 1.350 . S
C900 C897 1.463 . S
C900 N904 1.427 . S
C901 H891 0.929 . S
C901 C899 1.433 . S
C901 N904 1.384 . S
C902 H893 0.929 . S
C902 C894 1.378 . S
C902 C897 1.350 . S
C903 H890 0.929 . S
C903 C895 1.433 . S
C903 N905 1.384 . S
N904 C900 1.427 . S
N904 C901 1.384 . S
N905 C897 1.427 . S
N905 C903 1.384 . S
H906 C912 0.930 . S
H907 C916 0.930 . S
H908 C921 0.929 . S
H909 C919 0.929 . S
H910 C914 0.929 . S
H911 C920 0.929 . S
C912 H906 0.930 . S
C912 C913 1.367 1_455 S
C912 C920 1.378 . S
C913 C912 1.367 1_655 S
C913 C921 1.433 . S
C914 H910 0.929 . S
C914 C916 1.378 . S
C914 C918 1.350 . S
C915 C918 1.463 . S
C915 C920 1.350 . S
C915 N923 1.445 . S
C916 H907 0.930 . S
C916 C914 1.378 . S
C916 C917 1.367 . S
C917 C916 1.367 . S
C917 C919 1.433 . S
C918 C914 1.350 . S
C918 C915 1.463 . S
C918 N922 1.427 . S
C919 H909 0.929 . S
C919 C917 1.433 . S
C919 N922 1.384 . S
C920 H911 0.929 . S
C920 C912 1.378 . S
C920 C915 1.350 . S
C921 H908 0.929 . S
C921 C913 1.433 . S
C921 N923 1.366 1_655 S
N922 C918 1.427 . S
N922 C919 1.384 . S
N923 C915 1.445 . S
N923 C921 1.366 1_455 S
H924 C930 0.930 . S
H925 C934 0.930 . S
H926 C939 0.929 . S
H927 C937 0.929 . S
H928 C932 0.929 . S
H929 C938 0.929 . S
C930 H924 0.930 . S
C930 C931 1.367 . S
C930 C938 1.378 . S
C931 C930 1.367 . S
C931 C939 1.433 . S
C932 H928 0.929 . S
C932 C934 1.378 . S
C932 C936 1.350 . S
C933 C936 1.463 . S
C933 C938 1.350 . S
C933 N941 1.427 . S
C934 H925 0.930 . S
C934 C932 1.378 . S
C934 C935 1.367 . S
C935 C934 1.367 . S
C935 C937 1.433 . S
C936 C932 1.350 . S
C936 C933 1.463 . S
C936 N940 1.427 . S
C937 H927 0.929 . S
C937 C935 1.433 . S
C937 N940 1.384 . S
C938 H929 0.929 . S
C938 C930 1.378 . S
C938 C933 1.350 . S
C939 H926 0.929 . S
C939 C931 1.433 . S
C939 N941 1.384 . S
N940 C936 1.427 . S
N940 C937 1.384 . S
N941 C933 1.427 . S
N941 C939 1.384 . S
H942 C948 0.930 . S
H943 C952 0.930 . S
H944 C957 0.929 . S
H945 C955 0.929 . S
H946 C950 0.929 . S
H947 C956 0.929 . S
C948 H942 0.930 . S
C948 C949 1.367 . S
C948 C956 1.378 . S
C949 C948 1.367 . S
C949 C957 1.433 . S
C950 H946 0.929 . S
C950 C952 1.378 1_655 S
C950 C954 1.350 . S
C951 C954 1.463 . S
C951 C956 1.350 . S
C951 N959 1.427 . S
C952 H943 0.930 . S
C952 C950 1.378 1_455 S
C952 C953 1.367 . S
C953 C952 1.367 . S
C953 C955 1.433 . S
C954 C950 1.350 . S
C954 C951 1.463 . S
C954 N958 1.427 . S
C955 H945 0.929 . S
C955 C953 1.433 . S
C955 N958 1.384 1_455 S
C956 H947 0.929 . S
C956 C948 1.378 . S
C956 C951 1.350 . S
C957 H944 0.929 . S
C957 C949 1.433 . S
C957 N959 1.384 . S
N958 C954 1.427 . S
N958 C955 1.384 1_655 S
N959 C951 1.427 . S
N959 C957 1.384 . S
H960 C966 0.930 . S
H961 C970 0.930 . S
H962 C975 0.929 . S
H963 C973 0.929 . S
H964 C968 0.929 . S
H965 C974 0.929 . S
C966 H960 0.930 . S
C966 C967 1.367 . S
C966 C974 1.378 . S
C967 C966 1.367 . S
C967 C975 1.433 . S
C968 H964 0.929 . S
C968 C970 1.378 . S
C968 C972 1.350 . S
C969 C972 1.463 . S
C969 C974 1.350 . S
C969 N977 1.427 . S
C970 H961 0.930 . S
C970 C968 1.378 . S
C970 C971 1.367 . S
C971 C970 1.367 . S
C971 C973 1.433 . S
C972 C968 1.350 . S
C972 C969 1.463 . S
C972 N976 1.427 . S
C973 H963 0.929 . S
C973 C971 1.433 . S
C973 N976 1.384 . S
C974 H965 0.929 . S
C974 C966 1.378 . S
C974 C969 1.350 . S
C975 H962 0.929 . S
C975 C967 1.433 . S
C975 N977 1.384 . S
N976 C972 1.427 . S
N976 C973 1.384 . S
N977 C969 1.427 . S
N977 C975 1.384 . S
H978 C984 0.930 . S
H979 C988 0.930 . S
H980 C993 0.929 . S
H981 C991 0.929 . S
H982 C986 0.929 . S
H983 C992 0.929 . S
C984 H978 0.930 . S
C984 C985 1.367 . S
C984 C992 1.378 . S
C985 C984 1.367 . S
C985 C993 1.433 . S
C986 H982 0.929 . S
C986 C988 1.378 . S
C986 C990 1.350 . S
C987 C990 1.463 . S
C987 C992 1.350 . S
C987 N995 1.427 . S
C988 H979 0.930 . S
C988 C986 1.378 . S
C988 C989 1.367 . S
C989 C988 1.367 . S
C989 C991 1.433 . S
C990 C986 1.350 . S
C990 C987 1.463 . S
C990 N994 1.427 . S
C991 H981 0.929 . S
C991 C989 1.433 . S
C991 N994 1.384 . S
C992 H983 0.929 . S
C992 C984 1.378 . S
C992 C987 1.350 . S
C993 H980 0.929 . S
C993 C985 1.433 . S
C993 N995 1.384 . S
N994 C990 1.427 . S
N994 C991 1.384 . S
N995 C987 1.427 . S
N995 C993 1.384 . S
H996 C1002 0.930 . S
H997 C1006 0.930 . S
H998 C1011 0.929 . S
H999 C1009 0.929 . S
H1000 C1004 0.929 . S
H1001 C1010 0.929 . S
C1002 H996 0.930 . S
C1002 C1003 1.367 . S
C1002 C1010 1.378 . S
C1003 C1002 1.367 . S
C1003 C1011 1.433 . S
C1004 H1000 0.929 . S
C1004 C1006 1.378 . S
C1004 C1008 1.350 . S
C1005 C1008 1.463 . S
C1005 C1010 1.350 . S
C1005 N1013 1.427 . S
C1006 H997 0.930 . S
C1006 C1004 1.378 . S
C1006 C1007 1.367 . S
C1007 C1006 1.367 . S
C1007 C1009 1.433 . S
C1008 C1004 1.350 . S
C1008 C1005 1.463 . S
C1008 N1012 1.427 . S
C1009 H999 0.929 . S
C1009 C1007 1.433 . S
C1009 N1012 1.384 . S
C1010 H1001 0.929 . S
C1010 C1002 1.378 . S
C1010 C1005 1.350 . S
C1011 H998 0.929 . S
C1011 C1003 1.433 . S
C1011 N1013 1.384 . S
N1012 C1008 1.427 . S
N1012 C1009 1.384 . S
N1013 C1005 1.427 . S
N1013 C1011 1.384 . S
H1014 C1020 0.930 . S
H1015 C1024 0.930 . S
H1016 C1029 0.929 . S
H1017 C1027 0.929 . S
H1018 C1022 0.929 . S
H1019 C1028 0.929 . S
C1020 H1014 0.930 . S
C1020 C1021 1.367 . S
C1020 C1028 1.378 . S
C1021 C1020 1.367 . S
C1021 C1029 1.433 . S
C1022 H1018 0.929 . S
C1022 C1024 1.378 . S
C1022 C1026 1.350 . S
C1023 C1026 1.463 . S
C1023 C1028 1.350 . S
C1023 N1031 1.427 . S
C1024 H1015 0.930 . S
C1024 C1022 1.378 . S
C1024 C1025 1.367 . S
C1025 C1024 1.367 . S
C1025 C1027 1.433 . S
C1026 C1022 1.350 . S
C1026 C1023 1.463 . S
C1026 N1030 1.427 . S
C1027 H1017 0.929 . S
C1027 C1025 1.433 . S
C1027 N1030 1.384 . S
C1028 H1019 0.929 . S
C1028 C1020 1.378 . S
C1028 C1023 1.350 . S
C1029 H1016 0.929 . S
C1029 C1021 1.433 . S
C1029 N1031 1.384 . S
N1030 C1026 1.427 . S
N1030 C1027 1.384 . S
N1031 C1023 1.427 . S
N1031 C1029 1.384 . S
H1032 C1038 0.930 . S
H1033 C1042 0.930 . S
H1034 C1047 0.929 . S
H1035 C1045 0.929 . S
H1036 C1040 0.929 . S
H1037 C1046 0.929 . S
C1038 H1032 0.930 . S
C1038 C1039 1.367 . S
C1038 C1046 1.378 . S
C1039 C1038 1.367 . S
C1039 C1047 1.433 . S
C1040 H1036 0.929 . S
C1040 C1042 1.378 . S
C1040 C1044 1.350 . S
C1041 C1044 1.463 . S
C1041 C1046 1.350 . S
C1041 N1049 1.427 . S
C1042 H1033 0.930 . S
C1042 C1040 1.378 . S
C1042 C1043 1.367 . S
C1043 C1042 1.367 . S
C1043 C1045 1.433 . S
C1044 C1040 1.350 . S
C1044 C1041 1.463 . S
C1044 N1048 1.427 . S
C1045 H1035 0.929 . S
C1045 C1043 1.433 . S
C1045 N1048 1.384 . S
C1046 H1037 0.929 . S
C1046 C1038 1.378 . S
C1046 C1041 1.350 . S
C1047 H1034 0.929 . S
C1047 C1039 1.433 . S
C1047 N1049 1.384 . S
N1048 C1044 1.427 . S
N1048 C1045 1.384 . S
N1049 C1041 1.427 . S
N1049 C1047 1.384 . S
H1050 C1056 0.930 . S
H1051 C1060 0.930 . S
H1052 C1065 0.929 . S
H1053 C1063 0.929 . S
H1054 C1058 0.929 . S
H1055 C1064 0.929 . S
C1056 H1050 0.930 . S
C1056 C1057 1.367 . S
C1056 C1064 1.378 . S
C1057 C1056 1.367 . S
C1057 C1065 1.433 . S
C1058 H1054 0.929 . S
C1058 C1060 1.378 . S
C1058 C1062 1.350 . S
C1059 C1062 1.463 . S
C1059 C1064 1.350 . S
C1059 N1067 1.427 . S
C1060 H1051 0.930 . S
C1060 C1058 1.378 . S
C1060 C1061 1.367 . S
C1061 C1060 1.367 . S
C1061 C1063 1.433 . S
C1062 C1058 1.350 . S
C1062 C1059 1.463 . S
C1062 N1066 1.427 . S
C1063 H1053 0.929 . S
C1063 C1061 1.433 . S
C1063 N1066 1.384 . S
C1064 H1055 0.929 . S
C1064 C1056 1.378 . S
C1064 C1059 1.350 . S
C1065 H1052 0.929 . S
C1065 C1057 1.433 . S
C1065 N1067 1.384 . S
N1066 C1062 1.427 . S
N1066 C1063 1.384 . S
N1067 C1059 1.427 . S
N1067 C1065 1.384 . S
H1068 C1074 0.930 . S
H1069 C1078 0.930 . S
H1070 C1083 0.929 . S
H1071 C1081 0.929 . S
H1072 C1076 0.929 . S
H1073 C1082 0.929 . S
C1074 H1068 0.930 . S
C1074 C1075 1.367 . S
C1074 C1082 1.378 . S
C1075 C1074 1.367 . S
C1075 C1083 1.433 . S
C1076 H1072 0.929 . S
C1076 C1078 1.378 . S
C1076 C1080 1.350 . S
C1077 C1080 1.463 . S
C1077 C1082 1.350 . S
C1077 N1085 1.427 . S
C1078 H1069 0.930 . S
C1078 C1076 1.378 . S
C1078 C1079 1.367 . S
C1079 C1078 1.367 . S
C1079 C1081 1.433 . S
C1080 C1076 1.350 . S
C1080 C1077 1.463 . S
C1080 N1084 1.427 . S
C1081 H1071 0.929 . S
C1081 C1079 1.433 . S
C1081 N1084 1.384 . S
C1082 H1073 0.929 . S
C1082 C1074 1.378 . S
C1082 C1077 1.350 . S
C1083 H1070 0.929 . S
C1083 C1075 1.433 . S
C1083 N1085 1.384 . S
N1084 C1080 1.427 . S
N1084 C1081 1.384 . S
N1085 C1077 1.427 . S
N1085 C1083 1.384 . S
H1086 C1092 0.930 . S
H1087 C1096 0.930 . S
H1088 C1101 0.929 . S
H1089 C1099 0.929 . S
H1090 C1094 0.929 . S
H1091 C1100 0.929 . S
C1092 H1086 0.930 . S
C1092 C1093 1.367 . S
C1092 C1100 1.378 . S
C1093 C1092 1.367 . S
C1093 C1101 1.433 . S
C1094 H1090 0.929 . S
C1094 C1096 1.378 . S
C1094 C1098 1.350 . S
C1095 C1098 1.463 . S
C1095 C1100 1.350 . S
C1095 N1103 1.427 . S
C1096 H1087 0.930 . S
C1096 C1094 1.378 . S
C1096 C1097 1.367 . S
C1097 C1096 1.367 . S
C1097 C1099 1.433 . S
C1098 C1094 1.350 . S
C1098 C1095 1.463 . S
C1098 N1102 1.427 . S
C1099 H1089 0.929 . S
C1099 C1097 1.433 . S
C1099 N1102 1.384 . S
C1100 H1091 0.929 . S
C1100 C1092 1.378 . S
C1100 C1095 1.350 . S
C1101 H1088 0.929 . S
C1101 C1093 1.433 . S
C1101 N1103 1.384 . S
N1102 C1098 1.427 . S
N1102 C1099 1.384 . S
N1103 C1095 1.427 . S
N1103 C1101 1.384 . S
H1104 C1110 0.930 . S
H1105 C1114 0.930 . S
H1106 C1119 0.929 . S
H1107 C1117 0.929 . S
H1108 C1112 0.929 . S
H1109 C1118 0.929 . S
C1110 H1104 0.930 . S
C1110 C1111 1.367 . S
C1110 C1118 1.378 . S
C1111 C1110 1.367 . S
C1111 C1119 1.433 . S
C1112 H1108 0.929 . S
C1112 C1114 1.378 . S
C1112 C1116 1.350 . S
C1113 C1116 1.463 . S
C1113 C1118 1.350 . S
C1113 N1121 1.427 . S
C1114 H1105 0.930 . S
C1114 C1112 1.378 . S
C1114 C1115 1.367 . S
C1115 C1114 1.367 . S
C1115 C1117 1.433 . S
C1116 C1112 1.350 . S
C1116 C1113 1.463 . S
C1116 N1120 1.427 . S
C1117 H1107 0.929 . S
C1117 C1115 1.433 . S
C1117 N1120 1.384 . S
C1118 H1109 0.929 . S
C1118 C1110 1.378 . S
C1118 C1113 1.350 . S
C1119 H1106 0.929 . S
C1119 C1111 1.433 . S
C1119 N1121 1.384 . S
N1120 C1116 1.427 . S
N1120 C1117 1.384 . S
N1121 C1113 1.427 . S
N1121 C1119 1.384 . S
H1122 C1128 0.930 . S
H1123 C1132 0.930 . S
H1124 C1137 0.929 . S
H1125 C1135 0.929 . S
H1126 C1130 0.929 . S
H1127 C1136 0.929 . S
C1128 H1122 0.930 . S
C1128 C1129 1.367 . S
C1128 C1136 1.378 . S
C1129 C1128 1.367 . S
C1129 C1137 1.433 . S
C1130 H1126 0.929 . S
C1130 C1132 1.378 . S
C1130 C1134 1.350 . S
C1131 C1134 1.463 . S
C1131 C1136 1.350 . S
C1131 N1139 1.427 . S
C1132 H1123 0.930 . S
C1132 C1130 1.378 . S
C1132 C1133 1.367 . S
C1133 C1132 1.367 . S
C1133 C1135 1.433 . S
C1134 C1130 1.350 . S
C1134 C1131 1.463 . S
C1134 N1138 1.427 . S
C1135 H1125 0.929 . S
C1135 C1133 1.433 . S
C1135 N1138 1.384 . S
C1136 H1127 0.929 . S
C1136 C1128 1.378 . S
C1136 C1131 1.350 . S
C1137 H1124 0.929 . S
C1137 C1129 1.433 . S
C1137 N1139 1.384 . S
N1138 C1134 1.427 . S
N1138 C1135 1.384 . S
N1139 C1131 1.427 . S
N1139 C1137 1.384 . S
H1140 C1146 0.930 . S
H1141 C1150 0.930 . S
H1142 C1155 0.929 . S
H1143 C1153 0.929 . S
H1144 C1148 0.929 . S
H1145 C1154 0.929 . S
C1146 H1140 0.930 . S
C1146 C1147 1.367 . S
C1146 C1154 1.378 . S
C1147 C1146 1.367 . S
C1147 C1155 1.433 . S
C1148 H1144 0.929 . S
C1148 C1150 1.378 . S
C1148 C1152 1.350 . S
C1149 C1152 1.463 . S
C1149 C1154 1.350 . S
C1149 N1157 1.427 . S
C1150 H1141 0.930 . S
C1150 C1148 1.378 . S
C1150 C1151 1.367 . S
C1151 C1150 1.367 . S
C1151 C1153 1.433 . S
C1152 C1148 1.350 . S
C1152 C1149 1.463 . S
C1152 N1156 1.427 . S
C1153 H1143 0.929 . S
C1153 C1151 1.433 . S
C1153 N1156 1.384 . S
C1154 H1145 0.929 . S
C1154 C1146 1.378 . S
C1154 C1149 1.350 . S
C1155 H1142 0.929 . S
C1155 C1147 1.433 . S
C1155 N1157 1.384 . S
N1156 C1152 1.427 . S
N1156 C1153 1.384 . S
N1157 C1149 1.427 . S
N1157 C1155 1.384 . S
H1158 C1164 0.930 . S
H1159 C1168 0.930 . S
H1160 C1173 0.929 . S
H1161 C1171 0.929 . S
H1162 C1166 0.929 . S
H1163 C1172 0.929 . S
C1164 H1158 0.930 . S
C1164 C1165 1.367 . S
C1164 C1172 1.378 . S
C1165 C1164 1.367 . S
C1165 C1173 1.433 . S
C1166 H1162 0.929 . S
C1166 C1168 1.378 . S
C1166 C1170 1.350 . S
C1167 C1170 1.463 . S
C1167 C1172 1.350 . S
C1167 N1175 1.427 . S
C1168 H1159 0.930 . S
C1168 C1166 1.378 . S
C1168 C1169 1.367 . S
C1169 C1168 1.367 . S
C1169 C1171 1.433 . S
C1170 C1166 1.350 . S
C1170 C1167 1.463 . S
C1170 N1174 1.427 . S
C1171 H1161 0.929 . S
C1171 C1169 1.433 . S
C1171 N1174 1.384 . S
C1172 H1163 0.929 . S
C1172 C1164 1.378 . S
C1172 C1167 1.350 . S
C1173 H1160 0.929 . S
C1173 C1165 1.433 . S
C1173 N1175 1.384 . S
N1174 C1170 1.427 . S
N1174 C1171 1.384 . S
N1175 C1167 1.427 . S
N1175 C1173 1.384 . S
H1176 C1182 0.930 . S
H1177 C1186 0.930 . S
H1178 C1191 0.929 . S
H1179 C1189 0.929 . S
H1180 C1184 0.929 . S
H1181 C1190 0.929 . S
C1182 H1176 0.930 . S
C1182 C1183 1.367 . S
C1182 C1190 1.378 . S
C1183 C1182 1.367 . S
C1183 C1191 1.433 . S
C1184 H1180 0.929 . S
C1184 C1186 1.378 . S
C1184 C1188 1.350 . S
C1185 C1188 1.463 . S
C1185 C1190 1.350 . S
C1185 N1193 1.427 . S
C1186 H1177 0.930 . S
C1186 C1184 1.378 . S
C1186 C1187 1.367 . S
C1187 C1186 1.367 . S
C1187 C1189 1.433 . S
C1188 C1184 1.350 . S
C1188 C1185 1.463 . S
C1188 N1192 1.427 . S
C1189 H1179 0.929 . S
C1189 C1187 1.433 . S
C1189 N1192 1.384 . S
C1190 H1181 0.929 . S
C1190 C1182 1.378 . S
C1190 C1185 1.350 . S
C1191 H1178 0.929 . S
C1191 C1183 1.433 . S
C1191 N1193 1.384 . S
N1192 C1188 1.427 . S
N1192 C1189 1.384 . S
N1193 C1185 1.427 . S
N1193 C1191 1.384 . S
H1194 C1200 0.930 . S
H1195 C1204 0.930 . S
H1196 C1209 0.929 . S
H1197 C1207 0.929 . S
H1198 C1202 0.929 . S
H1199 C1208 0.929 . S
C1200 H1194 0.930 . S
C1200 C1201 1.367 . S
C1200 C1208 1.378 . S
C1201 C1200 1.367 . S
C1201 C1209 1.433 . S
C1202 H1198 0.929 . S
C1202 C1204 1.378 . S
C1202 C1206 1.350 . S
C1203 C1206 1.463 . S
C1203 C1208 1.350 . S
C1203 N1211 1.427 . S
C1204 H1195 0.930 . S
C1204 C1202 1.378 . S
C1204 C1205 1.367 . S
C1205 C1204 1.367 . S
C1205 C1207 1.433 . S
C1206 C1202 1.350 . S
C1206 C1203 1.463 . S
C1206 N1210 1.427 . S
C1207 H1197 0.929 . S
C1207 C1205 1.433 . S
C1207 N1210 1.384 . S
C1208 H1199 0.929 . S
C1208 C1200 1.378 . S
C1208 C1203 1.350 . S
C1209 H1196 0.929 . S
C1209 C1201 1.433 . S
C1209 N1211 1.384 . S
N1210 C1206 1.427 . S
N1210 C1207 1.384 . S
N1211 C1203 1.427 . S
N1211 C1209 1.384 . S
H1212 C1218 0.930 . S
H1213 C1222 0.930 . S
H1214 C1227 0.929 . S
H1215 C1225 0.929 . S
H1216 C1220 0.929 . S
H1217 C1226 0.929 . S
C1218 H1212 0.930 . S
C1218 C1219 1.367 . S
C1218 C1226 1.378 . S
C1219 C1218 1.367 . S
C1219 C1227 1.433 . S
C1220 H1216 0.929 . S
C1220 C1222 1.378 . S
C1220 C1224 1.350 . S
C1221 C1224 1.463 . S
C1221 C1226 1.350 . S
C1221 N1229 1.427 . S
C1222 H1213 0.930 . S
C1222 C1220 1.378 . S
C1222 C1223 1.367 . S
C1223 C1222 1.367 . S
C1223 C1225 1.433 . S
C1224 C1220 1.350 . S
C1224 C1221 1.463 . S
C1224 N1228 1.427 . S
C1225 H1215 0.929 . S
C1225 C1223 1.433 . S
C1225 N1228 1.384 . S
C1226 H1217 0.929 . S
C1226 C1218 1.378 . S
C1226 C1221 1.350 . S
C1227 H1214 0.929 . S
C1227 C1219 1.433 . S
C1227 N1229 1.384 . S
N1228 C1224 1.427 . S
N1228 C1225 1.384 . S
N1229 C1221 1.427 . S
N1229 C1227 1.384 . S
H1230 C1236 0.930 . S
H1231 C1240 0.930 . S
H1232 C1245 0.929 . S
H1233 C1243 0.929 . S
H1234 C1238 0.929 . S
H1235 C1244 0.929 . S
C1236 H1230 0.930 . S
C1236 C1237 1.367 . S
C1236 C1244 1.378 . S
C1237 C1236 1.367 . S
C1237 C1245 1.433 . S
C1238 H1234 0.929 . S
C1238 C1240 1.378 . S
C1238 C1242 1.350 . S
C1239 C1242 1.463 . S
C1239 C1244 1.350 . S
C1239 N1247 1.427 . S
C1240 H1231 0.930 . S
C1240 C1238 1.378 . S
C1240 C1241 1.367 . S
C1241 C1240 1.367 . S
C1241 C1243 1.433 . S
C1242 C1238 1.350 . S
C1242 C1239 1.463 . S
C1242 N1246 1.427 . S
C1243 H1233 0.929 . S
C1243 C1241 1.433 . S
C1243 N1246 1.384 . S
C1244 H1235 0.929 . S
C1244 C1236 1.378 . S
C1244 C1239 1.350 . S
C1245 H1232 0.929 . S
C1245 C1237 1.433 . S
C1245 N1247 1.384 . S
N1246 C1242 1.427 . S
N1246 C1243 1.384 . S
N1247 C1239 1.427 . S
N1247 C1245 1.384 . S
H1248 C1254 0.930 . S
H1249 C1258 0.930 . S
H1250 C1263 0.929 . S
H1251 C1261 0.929 . S
H1252 C1256 0.929 . S
H1253 C1262 0.929 . S
C1254 H1248 0.930 . S
C1254 C1255 1.367 . S
C1254 C1262 1.378 . S
C1255 C1254 1.367 . S
C1255 C1263 1.433 . S
C1256 H1252 0.929 . S
C1256 C1258 1.378 . S
C1256 C1260 1.350 . S
C1257 C1260 1.463 . S
C1257 C1262 1.350 . S
C1257 N1265 1.427 . S
C1258 H1249 0.930 . S
C1258 C1256 1.378 . S
C1258 C1259 1.367 . S
C1259 C1258 1.367 . S
C1259 C1261 1.433 . S
C1260 C1256 1.350 . S
C1260 C1257 1.463 . S
C1260 N1264 1.427 . S
C1261 H1251 0.929 . S
C1261 C1259 1.433 . S
C1261 N1264 1.384 . S
C1262 H1253 0.929 . S
C1262 C1254 1.378 . S
C1262 C1257 1.350 . S
C1263 H1250 0.929 . S
C1263 C1255 1.433 . S
C1263 N1265 1.384 . S
N1264 C1260 1.427 . S
N1264 C1261 1.384 . S
N1265 C1257 1.427 . S
N1265 C1263 1.384 . S
H1266 C1272 0.930 . S
H1267 C1276 0.930 . S
H1268 C1281 0.929 . S
H1269 C1279 0.929 . S
H1270 C1274 0.929 . S
H1271 C1280 0.929 . S
C1272 H1266 0.930 . S
C1272 C1273 1.367 . S
C1272 C1280 1.378 . S
C1273 C1272 1.367 . S
C1273 C1281 1.433 . S
C1274 H1270 0.929 . S
C1274 C1276 1.378 . S
C1274 C1278 1.350 . S
C1275 C1278 1.463 . S
C1275 C1280 1.350 . S
C1275 N1283 1.427 . S
C1276 H1267 0.930 . S
C1276 C1274 1.378 . S
C1276 C1277 1.367 . S
C1277 C1276 1.367 . S
C1277 C1279 1.433 . S
C1278 C1274 1.350 . S
C1278 C1275 1.463 . S
C1278 N1282 1.427 . S
C1279 H1269 0.929 . S
C1279 C1277 1.433 . S
C1279 N1282 1.384 . S
C1280 H1271 0.929 . S
C1280 C1272 1.378 . S
C1280 C1275 1.350 . S
C1281 H1268 0.929 . S
C1281 C1273 1.433 . S
C1281 N1283 1.384 . S
N1282 C1278 1.427 . S
N1282 C1279 1.384 . S
N1283 C1275 1.427 . S
N1283 C1281 1.384 . S
H1284 C1290 0.930 . S
H1285 C1294 0.930 . S
H1286 C1299 0.929 . S
H1287 C1297 0.929 . S
H1288 C1292 0.929 . S
H1289 C1298 0.929 . S
C1290 H1284 0.930 . S
C1290 C1291 1.367 . S
C1290 C1298 1.378 . S
C1291 C1290 1.367 . S
C1291 C1299 1.433 . S
C1292 H1288 0.929 . S
C1292 C1294 1.378 . S
C1292 C1296 1.350 . S
C1293 C1296 1.463 . S
C1293 C1298 1.350 . S
C1293 N1301 1.427 . S
C1294 H1285 0.930 . S
C1294 C1292 1.378 . S
C1294 C1295 1.367 . S
C1295 C1294 1.367 . S
C1295 C1297 1.433 . S
C1296 C1292 1.350 . S
C1296 C1293 1.463 . S
C1296 N1300 1.427 . S
C1297 H1287 0.929 . S
C1297 C1295 1.433 . S
C1297 N1300 1.384 . S
C1298 H1289 0.929 . S
C1298 C1290 1.378 . S
C1298 C1293 1.350 . S
C1299 H1286 0.929 . S
C1299 C1291 1.433 . S
C1299 N1301 1.384 . S
N1300 C1296 1.427 . S
N1300 C1297 1.384 . S
N1301 C1293 1.427 . S
N1301 C1299 1.384 . S
H1302 C1308 0.930 . S
H1303 C1312 0.930 . S
H1304 C1317 0.929 . S
H1305 C1315 0.929 . S
H1306 C1310 0.929 . S
H1307 C1316 0.929 . S
C1308 H1302 0.930 . S
C1308 C1309 1.367 . S
C1308 C1316 1.378 . S
C1309 C1308 1.367 . S
C1309 C1317 1.433 . S
C1310 H1306 0.929 . S
C1310 C1312 1.378 . S
C1310 C1314 1.350 . S
C1311 C1314 1.463 . S
C1311 C1316 1.350 . S
C1311 N1319 1.427 . S
C1312 H1303 0.930 . S
C1312 C1310 1.378 . S
C1312 C1313 1.367 . S
C1313 C1312 1.367 . S
C1313 C1315 1.433 . S
C1314 C1310 1.350 . S
C1314 C1311 1.463 . S
C1314 N1318 1.427 . S
C1315 H1305 0.929 . S
C1315 C1313 1.433 . S
C1315 N1318 1.384 . S
C1316 H1307 0.929 . S
C1316 C1308 1.378 . S
C1316 C1311 1.350 . S
C1317 H1304 0.929 . S
C1317 C1309 1.433 . S
C1317 N1319 1.384 . S
N1318 C1314 1.427 . S
N1318 C1315 1.384 . S
N1319 C1311 1.427 . S
N1319 C1317 1.384 . S
H1320 C1326 0.930 . S
H1321 C1330 0.930 . S
H1322 C1335 0.929 . S
H1323 C1333 0.929 . S
H1324 C1328 0.929 . S
H1325 C1334 0.929 . S
C1326 H1320 0.930 . S
C1326 C1327 1.367 . S
C1326 C1334 1.378 . S
C1327 C1326 1.367 . S
C1327 C1335 1.433 . S
C1328 H1324 0.929 . S
C1328 C1330 1.378 . S
C1328 C1332 1.350 . S
C1329 C1332 1.463 . S
C1329 C1334 1.350 . S
C1329 N1337 1.427 . S
C1330 H1321 0.930 . S
C1330 C1328 1.378 . S
C1330 C1331 1.367 . S
C1331 C1330 1.367 . S
C1331 C1333 1.433 . S
C1332 C1328 1.350 . S
C1332 C1329 1.463 . S
C1332 N1336 1.427 . S
C1333 H1323 0.929 . S
C1333 C1331 1.433 . S
C1333 N1336 1.384 . S
C1334 H1325 0.929 . S
C1334 C1326 1.378 . S
C1334 C1329 1.350 . S
C1335 H1322 0.929 . S
C1335 C1327 1.433 . S
C1335 N1337 1.384 . S
N1336 C1332 1.427 . S
N1336 C1333 1.384 . S
N1337 C1329 1.427 . S
N1337 C1335 1.384 . S
H1338 C1344 0.930 . S
H1339 C1348 0.930 . S
H1340 C1353 0.929 . S
H1341 C1351 0.929 . S
H1342 C1346 0.929 . S
H1343 C1352 0.929 . S
C1344 H1338 0.930 . S
C1344 C1345 1.367 . S
C1344 C1352 1.378 . S
C1345 C1344 1.367 . S
C1345 C1353 1.433 . S
C1346 H1342 0.929 . S
C1346 C1348 1.378 . S
C1346 C1350 1.350 . S
C1347 C1350 1.463 . S
C1347 C1352 1.350 . S
C1347 N1355 1.427 . S
C1348 H1339 0.930 . S
C1348 C1346 1.378 . S
C1348 C1349 1.367 . S
C1349 C1348 1.367 . S
C1349 C1351 1.433 . S
C1350 C1346 1.350 . S
C1350 C1347 1.463 . S
C1350 N1354 1.427 . S
C1351 H1341 0.929 . S
C1351 C1349 1.433 . S
C1351 N1354 1.384 . S
C1352 H1343 0.929 . S
C1352 C1344 1.378 . S
C1352 C1347 1.350 . S
C1353 H1340 0.929 . S
C1353 C1345 1.433 . S
C1353 N1355 1.384 . S
N1354 C1350 1.427 . S
N1354 C1351 1.384 . S
N1355 C1347 1.427 . S
N1355 C1353 1.384 . S
H1356 C1362 0.930 . S
H1357 C1366 0.930 . S
H1358 C1371 0.929 . S
H1359 C1369 0.929 . S
H1360 C1364 0.929 . S
H1361 C1370 0.929 . S
C1362 H1356 0.930 . S
C1362 C1363 1.367 . S
C1362 C1370 1.378 . S
C1363 C1362 1.367 . S
C1363 C1371 1.433 . S
C1364 H1360 0.929 . S
C1364 C1366 1.378 . S
C1364 C1368 1.350 . S
C1365 C1368 1.463 . S
C1365 C1370 1.350 . S
C1365 N1373 1.427 . S
C1366 H1357 0.930 . S
C1366 C1364 1.378 . S
C1366 C1367 1.367 . S
C1367 C1366 1.367 . S
C1367 C1369 1.433 . S
C1368 C1364 1.350 . S
C1368 C1365 1.463 . S
C1368 N1372 1.427 . S
C1369 H1359 0.929 . S
C1369 C1367 1.433 . S
C1369 N1372 1.384 . S
C1370 H1361 0.929 . S
C1370 C1362 1.378 . S
C1370 C1365 1.350 . S
C1371 H1358 0.929 . S
C1371 C1363 1.433 . S
C1371 N1373 1.384 . S
N1372 C1368 1.427 . S
N1372 C1369 1.384 . S
N1373 C1365 1.427 . S
N1373 C1371 1.384 . S
H1374 C1380 0.921 1_565 S
H1375 C1384 0.930 . S
H1376 C1389 0.929 . S
H1377 C1387 0.929 . S
H1378 C1382 0.929 . S
H1379 C1388 0.929 . S
C1380 H1374 0.921 1_545 S
C1380 C1381 1.367 . S
C1380 C1388 1.378 . S
C1381 C1380 1.367 . S
C1381 C1389 1.433 . S
C1382 H1378 0.929 . S
C1382 C1384 1.378 . S
C1382 C1386 1.350 . S
C1383 C1386 1.463 . S
C1383 C1388 1.350 . S
C1383 N1391 1.427 . S
C1384 H1375 0.930 . S
C1384 C1382 1.378 . S
C1384 C1385 1.367 . S
C1385 C1384 1.367 . S
C1385 C1387 1.433 . S
C1386 C1382 1.350 . S
C1386 C1383 1.463 . S
C1386 N1390 1.427 . S
C1387 H1377 0.929 . S
C1387 C1385 1.433 . S
C1387 N1390 1.384 . S
C1388 H1379 0.929 . S
C1388 C1380 1.378 . S
C1388 C1383 1.350 . S
C1389 H1376 0.929 . S
C1389 C1381 1.433 . S
C1389 N1391 1.384 . S
N1390 C1386 1.427 . S
N1390 C1387 1.384 . S
N1391 C1383 1.427 . S
N1391 C1389 1.384 . S
H1392 C1398 0.937 . S
H1393 C1402 0.930 . S
H1394 C1407 0.929 . S
H1395 C1405 0.929 . S
H1396 C1400 0.929 . S
H1397 C1406 0.929 . S
C1398 H1392 0.937 . S
C1398 C1399 1.345 1_655 S
C1398 C1406 1.395 . S
C1399 C1398 1.345 1_455 S
C1399 C1407 1.433 . S
C1400 H1396 0.929 . S
C1400 C1402 1.378 . S
C1400 C1404 1.350 . S
C1401 C1404 1.463 . S
C1401 C1406 1.350 . S
C1401 N1409 1.427 1_655 S
C1402 H1393 0.930 . S
C1402 C1400 1.378 . S
C1402 C1403 1.367 . S
C1403 C1402 1.367 . S
C1403 C1405 1.433 . S
C1404 C1400 1.350 . S
C1404 C1401 1.463 . S
C1404 N1408 1.427 . S
C1405 H1395 0.929 . S
C1405 C1403 1.433 . S
C1405 N1408 1.384 . S
C1406 H1397 0.929 . S
C1406 C1398 1.395 . S
C1406 C1401 1.350 . S
C1407 H1394 0.929 . S
C1407 C1399 1.433 . S
C1407 N1409 1.384 . S
N1408 C1404 1.427 . S
N1408 C1405 1.384 . S
N1409 C1401 1.427 1_455 S
N1409 C1407 1.384 . S
H1410 C1416 0.930 . S
H1411 C1420 0.930 . S
H1412 C1425 0.929 . S
H1413 C1423 0.929 . S
H1414 C1418 0.929 . S
H1415 C1424 0.929 . S
C1416 H1410 0.930 . S
C1416 C1417 1.367 . S
C1416 C1424 1.378 . S
C1417 C1416 1.367 . S
C1417 C1425 1.433 . S
C1418 H1414 0.929 . S
C1418 C1420 1.378 . S
C1418 C1422 1.350 . S
C1419 C1422 1.463 . S
C1419 C1424 1.350 . S
C1419 N1427 1.427 . S
C1420 H1411 0.930 . S
C1420 C1418 1.378 . S
C1420 C1421 1.367 . S
C1421 C1420 1.367 . S
C1421 C1423 1.433 . S
C1422 C1418 1.350 . S
C1422 C1419 1.463 . S
C1422 N1426 1.427 . S
C1423 H1413 0.929 . S
C1423 C1421 1.433 . S
C1423 N1426 1.384 . S
C1424 H1415 0.929 . S
C1424 C1416 1.378 . S
C1424 C1419 1.350 . S
C1425 H1412 0.929 . S
C1425 C1417 1.433 . S
C1425 N1427 1.384 . S
N1426 C1422 1.427 . S
N1426 C1423 1.384 . S
N1427 C1419 1.427 . S
N1427 C1425 1.384 . S
H1428 C1434 0.930 . S
H1429 C1438 0.930 . S
H1430 C1443 0.929 . S
H1431 C1441 0.929 . S
H1432 C1436 0.929 . S
H1433 C1442 0.929 . S
C1434 H1428 0.930 . S
C1434 C1435 1.367 . S
C1434 C1442 1.378 . S
C1435 C1434 1.367 . S
C1435 C1443 1.433 . S
C1436 H1432 0.929 . S
C1436 C1438 1.378 . S
C1436 C1440 1.350 . S
C1437 C1440 1.463 . S
C1437 C1442 1.350 . S
C1437 N1445 1.427 . S
C1438 H1429 0.930 . S
C1438 C1436 1.378 . S
C1438 C1439 1.367 . S
C1439 C1438 1.367 . S
C1439 C1441 1.433 . S
C1440 C1436 1.350 . S
C1440 C1437 1.463 . S
C1440 N1444 1.427 . S
C1441 H1431 0.929 . S
C1441 C1439 1.433 . S
C1441 N1444 1.384 . S
C1442 H1433 0.929 . S
C1442 C1434 1.378 . S
C1442 C1437 1.350 . S
C1443 H1430 0.929 . S
C1443 C1435 1.433 . S
C1443 N1445 1.384 . S
N1444 C1440 1.427 . S
N1444 C1441 1.384 . S
N1445 C1437 1.427 . S
N1445 C1443 1.384 . S
H1446 C1452 0.930 . S
H1447 C1456 0.930 . S
H1448 C1461 0.929 . S
H1449 C1459 0.929 . S
H1450 C1454 0.929 . S
H1451 C1460 0.929 . S
C1452 H1446 0.930 . S
C1452 C1453 1.367 . S
C1452 C1460 1.378 . S
C1453 C1452 1.367 . S
C1453 C1461 1.433 . S
C1454 H1450 0.929 . S
C1454 C1456 1.378 . S
C1454 C1458 1.350 . S
C1455 C1458 1.463 . S
C1455 C1460 1.350 . S
C1455 N1463 1.427 . S
C1456 H1447 0.930 . S
C1456 C1454 1.378 . S
C1456 C1457 1.367 1_455 S
C1457 C1456 1.367 1_655 S
C1457 C1459 1.433 . S
C1458 C1454 1.350 . S
C1458 C1455 1.463 . S
C1458 N1462 1.427 1_455 S
C1459 H1449 0.929 . S
C1459 C1457 1.433 . S
C1459 N1462 1.384 . S
C1460 H1451 0.929 . S
C1460 C1452 1.378 . S
C1460 C1455 1.350 . S
C1461 H1448 0.929 . S
C1461 C1453 1.433 . S
C1461 N1463 1.384 . S
N1462 C1458 1.427 1_655 S
N1462 C1459 1.384 . S
N1463 C1455 1.427 . S
N1463 C1461 1.384 . S
H1464 C1470 0.930 . S
H1465 C1474 0.930 . S
H1466 C1479 0.929 . S
H1467 C1477 0.929 . S
H1468 C1472 0.929 1_545 S
H1469 C1478 0.929 . S
C1470 H1464 0.930 . S
C1470 C1471 1.367 1_565 S
C1470 C1478 1.378 . S
C1471 C1470 1.367 1_545 S
C1471 C1479 1.433 . S
C1472 H1468 0.929 1_565 S
C1472 C1474 1.378 . S
C1472 C1476 1.350 . S
C1473 C1476 1.463 . S
C1473 C1478 1.350 . S
C1473 N1481 1.427 1_565 S
C1474 H1465 0.930 . S
C1474 C1472 1.378 . S
C1474 C1475 1.367 . S
C1475 C1474 1.367 . S
C1475 C1477 1.433 . S
C1476 C1472 1.350 . S
C1476 C1473 1.463 . S
C1476 N1480 1.427 . S
C1477 H1467 0.929 . S
C1477 C1475 1.433 . S
C1477 N1480 1.384 . S
C1478 H1469 0.929 . S
C1478 C1470 1.378 . S
C1478 C1473 1.350 . S
C1479 H1466 0.929 . S
C1479 C1471 1.433 . S
C1479 N1481 1.384 . S
N1480 C1476 1.427 . S
N1480 C1477 1.384 . S
N1481 C1473 1.427 1_545 S
N1481 C1479 1.384 . S
H1482 C1488 0.930 . S
H1483 C1492 0.930 . S
H1484 C1497 0.929 . S
H1485 C1495 0.929 . S
H1486 C1490 0.929 . S
H1487 C1496 0.929 1_565 S
C1488 H1482 0.930 . S
C1488 C1489 1.367 . S
C1488 C1496 1.378 . S
C1489 C1488 1.367 . S
C1489 C1497 1.433 . S
C1490 H1486 0.929 . S
C1490 C1492 1.378 . S
C1490 C1494 1.350 . S
C1491 C1494 1.463 . S
C1491 C1496 1.350 . S
C1491 N1499 1.427 . S
C1492 H1483 0.930 . S
C1492 C1490 1.378 . S
C1492 C1493 1.367 1_545 S
C1493 C1492 1.367 1_565 S
C1493 C1495 1.433 . S
C1494 C1490 1.350 . S
C1494 C1491 1.463 . S
C1494 N1498 1.427 1_545 S
C1495 H1485 0.929 . S
C1495 C1493 1.433 . S
C1495 N1498 1.384 . S
C1496 H1487 0.929 1_545 S
C1496 C1488 1.378 . S
C1496 C1491 1.350 . S
C1497 H1484 0.929 . S
C1497 C1489 1.433 . S
C1497 N1499 1.384 . S
N1498 C1494 1.427 1_565 S
N1498 C1495 1.384 . S
N1499 C1491 1.427 . S
N1499 C1497 1.384 . S
H1500 C1506 0.930 . S
H1501 C1510 0.930 . S
H1502 C1515 0.929 . S
H1503 C1513 0.929 . S
H1504 C1508 0.929 . S
H1505 C1514 0.929 . S
C1506 H1500 0.930 . S
C1506 C1507 1.367 . S
C1506 C1514 1.378 . S
C1507 C1506 1.367 . S
C1507 C1515 1.433 . S
C1508 H1504 0.929 . S
C1508 C1510 1.378 . S
C1508 C1512 1.350 . S
C1509 C1512 1.463 . S
C1509 C1514 1.350 . S
C1509 N1517 1.427 . S
C1510 H1501 0.930 . S
C1510 C1508 1.378 . S
C1510 C1511 1.367 . S
C1511 C1510 1.367 . S
C1511 C1513 1.433 . S
C1512 C1508 1.350 . S
C1512 C1509 1.463 . S
C1512 N1516 1.427 . S
C1513 H1503 0.929 . S
C1513 C1511 1.433 . S
C1513 N1516 1.384 . S
C1514 H1505 0.929 . S
C1514 C1506 1.378 . S
C1514 C1509 1.350 . S
C1515 H1502 0.929 . S
C1515 C1507 1.433 . S
C1515 N1517 1.384 . S
N1516 C1512 1.427 . S
N1516 C1513 1.384 . S
N1517 C1509 1.427 . S
N1517 C1515 1.384 . S
H1518 C1524 0.930 . S
H1519 C1528 0.930 . S
H1520 C1533 0.929 . S
H1521 C1531 0.929 . S
H1522 C1526 0.929 . S
H1523 C1532 0.929 . S
C1524 H1518 0.930 . S
C1524 C1525 1.367 . S
C1524 C1532 1.378 . S
C1525 C1524 1.367 . S
C1525 C1533 1.433 . S
C1526 H1522 0.929 . S
C1526 C1528 1.378 . S
C1526 C1530 1.350 . S
C1527 C1530 1.463 . S
C1527 C1532 1.350 . S
C1527 N1535 1.427 . S
C1528 H1519 0.930 . S
C1528 C1526 1.378 . S
C1528 C1529 1.367 . S
C1529 C1528 1.367 . S
C1529 C1531 1.433 . S
C1530 C1526 1.350 . S
C1530 C1527 1.463 . S
C1530 N1534 1.427 . S
C1531 H1521 0.929 . S
C1531 C1529 1.433 . S
C1531 N1534 1.384 . S
C1532 H1523 0.929 . S
C1532 C1524 1.378 . S
C1532 C1527 1.350 . S
C1533 H1520 0.929 . S
C1533 C1525 1.433 . S
C1533 N1535 1.384 . S
N1534 C1530 1.427 . S
N1534 C1531 1.384 . S
N1535 C1527 1.427 . S
N1535 C1533 1.384 . S
H1536 C1542 0.930 . S
H1537 C1546 0.930 . S
H1538 C1551 0.929 . S
H1539 C1549 0.929 . S
H1540 C1544 0.929 . S
H1541 C1550 0.929 . S
C1542 H1536 0.930 . S
C1542 C1543 1.367 . S
C1542 C1550 1.378 1_554 S
C1543 C1542 1.367 . S
C1543 C1551 1.433 . S
C1544 H1540 0.929 . S
C1544 C1546 1.378 . S
C1544 C1548 1.350 . S
C1545 C1548 1.463 . S
C1545 C1550 1.350 . S
C1545 N1553 1.427 1_556 S
C1546 H1537 0.930 . S
C1546 C1544 1.378 . S
C1546 C1547 1.367 . S
C1547 C1546 1.367 . S
C1547 C1549 1.433 . S
C1548 C1544 1.350 . S
C1548 C1545 1.463 . S
C1548 N1552 1.427 . S
C1549 H1539 0.929 . S
C1549 C1547 1.433 . S
C1549 N1552 1.384 . S
C1550 H1541 0.929 . S
C1550 C1542 1.378 1_556 S
C1550 C1545 1.350 . S
C1551 H1538 0.929 . S
C1551 C1543 1.433 . S
C1551 N1553 1.384 . S
N1552 C1548 1.427 . S
N1552 C1549 1.384 . S
N1553 C1545 1.427 1_554 S
N1553 C1551 1.384 . S
H1554 C1560 0.930 . S
H1555 C1564 0.930 . S
H1556 C1569 0.929 . S
H1557 C1567 0.929 . S
H1558 C1562 0.954 . S
H1559 C1568 0.929 . S
C1560 H1554 0.930 . S
C1560 C1561 1.367 1_554 S
C1560 C1568 1.378 . S
C1561 C1560 1.367 1_556 S
C1561 C1569 1.433 . S
C1562 H1558 0.954 . S
C1562 C1564 1.378 . S
C1562 C1566 1.350 . S
C1563 C1566 1.463 . S
C1563 C1568 1.350 . S
C1563 N1571 1.427 1_554 S
C1564 H1555 0.930 . S
C1564 C1562 1.378 . S
C1564 C1565 1.367 . S
C1565 C1564 1.367 . S
C1565 C1567 1.433 . S
C1566 C1562 1.350 . S
C1566 C1563 1.463 . S
C1566 N1570 1.427 . S
C1567 H1557 0.929 . S
C1567 C1565 1.433 . S
C1567 N1570 1.384 . S
C1568 H1559 0.929 . S
C1568 C1560 1.378 . S
C1568 C1563 1.350 . S
C1569 H1556 0.929 . S
C1569 C1561 1.433 . S
C1569 N1571 1.384 . S
N1570 C1566 1.427 . S
N1570 C1567 1.384 . S
N1571 C1563 1.427 1_556 S
N1571 C1569 1.384 . S
H1572 C1578 0.930 . S
H1573 C1582 0.930 . S
H1574 C1587 0.929 . S
H1575 C1585 0.929 . S
H1576 C1580 0.929 . S
H1577 C1586 0.929 . S
C1578 H1572 0.930 . S
C1578 C1579 1.367 . S
C1578 C1586 1.378 . S
C1579 C1578 1.367 . S
C1579 C1587 1.433 . S
C1580 H1576 0.929 . S
C1580 C1582 1.378 . S
C1580 C1584 1.350 . S
C1581 C1584 1.463 . S
C1581 C1586 1.350 . S
C1581 N1589 1.427 . S
C1582 H1573 0.930 . S
C1582 C1580 1.378 . S
C1582 C1583 1.367 . S
C1583 C1582 1.367 . S
C1583 C1585 1.433 . S
C1584 C1580 1.350 . S
C1584 C1581 1.463 . S
C1584 N1588 1.427 . S
C1585 H1575 0.929 . S
C1585 C1583 1.433 . S
C1585 N1588 1.384 . S
C1586 H1577 0.929 . S
C1586 C1578 1.378 . S
C1586 C1581 1.350 . S
C1587 H1574 0.929 . S
C1587 C1579 1.433 . S
C1587 N1589 1.384 . S
N1588 C1584 1.427 . S
N1588 C1585 1.384 . S
N1589 C1581 1.427 . S
N1589 C1587 1.384 . S
H1590 C1596 0.930 . S
H1591 C1600 0.930 . S
H1592 C1605 0.929 . S
H1593 C1603 0.929 . S
H1594 C1598 0.929 . S
H1595 C1604 0.929 . S
C1596 H1590 0.930 . S
C1596 C1597 1.367 . S
C1596 C1604 1.378 . S
C1597 C1596 1.367 . S
C1597 C1605 1.433 . S
C1598 H1594 0.929 . S
C1598 C1600 1.378 . S
C1598 C1602 1.350 . S
C1599 C1602 1.463 . S
C1599 C1604 1.350 . S
C1599 N1607 1.427 . S
C1600 H1591 0.930 . S
C1600 C1598 1.378 . S
C1600 C1601 1.367 . S
C1601 C1600 1.367 . S
C1601 C1603 1.433 . S
C1602 C1598 1.350 . S
C1602 C1599 1.463 . S
C1602 N1606 1.427 . S
C1603 H1593 0.929 . S
C1603 C1601 1.433 . S
C1603 N1606 1.384 . S
C1604 H1595 0.929 . S
C1604 C1596 1.378 . S
C1604 C1599 1.350 . S
C1605 H1592 0.929 . S
C1605 C1597 1.433 . S
C1605 N1607 1.384 . S
N1606 C1602 1.427 . S
N1606 C1603 1.384 . S
N1607 C1599 1.427 . S
N1607 C1605 1.384 . S
H1608 C1614 0.930 . S
H1609 C1618 0.930 . S
H1610 C1623 0.929 . S
H1611 C1621 0.929 . S
H1612 C1616 0.929 1_655 S
H1613 C1622 0.929 . S
C1614 H1608 0.930 . S
C1614 C1615 1.367 1_455 S
C1614 C1622 1.378 . S
C1615 C1614 1.367 1_655 S
C1615 C1623 1.433 . S
C1616 H1612 0.929 1_455 S
C1616 C1618 1.378 . S
C1616 C1620 1.350 . S
C1617 C1620 1.463 . S
C1617 C1622 1.350 . S
C1617 N1625 1.427 1_455 S
C1618 H1609 0.930 . S
C1618 C1616 1.378 . S
C1618 C1619 1.367 . S
C1619 C1618 1.367 . S
C1619 C1621 1.433 . S
C1620 C1616 1.350 . S
C1620 C1617 1.463 . S
C1620 N1624 1.427 . S
C1621 H1611 0.929 . S
C1621 C1619 1.433 . S
C1621 N1624 1.384 . S
C1622 H1613 0.929 . S
C1622 C1614 1.378 . S
C1622 C1617 1.350 . S
C1623 H1610 0.929 . S
C1623 C1615 1.433 . S
C1623 N1625 1.384 . S
N1624 C1620 1.427 . S
N1624 C1621 1.384 . S
N1625 C1617 1.427 1_655 S
N1625 C1623 1.384 . S
H1626 C1632 0.930 . S
H1627 C1636 0.930 . S
H1628 C1641 0.929 . S
H1629 C1639 0.929 . S
H1630 C1634 0.929 . S
H1631 C1640 0.929 . S
C1632 H1626 0.930 . S
C1632 C1633 1.367 . S
C1632 C1640 1.378 . S
C1633 C1632 1.367 . S
C1633 C1641 1.433 . S
C1634 H1630 0.929 . S
C1634 C1636 1.378 . S
C1634 C1638 1.350 . S
C1635 C1638 1.463 . S
C1635 C1640 1.350 . S
C1635 N1643 1.427 . S
C1636 H1627 0.930 . S
C1636 C1634 1.378 . S
C1636 C1637 1.367 . S
C1637 C1636 1.367 . S
C1637 C1639 1.433 . S
C1638 C1634 1.350 . S
C1638 C1635 1.463 . S
C1638 N1642 1.427 . S
C1639 H1629 0.929 . S
C1639 C1637 1.433 . S
C1639 N1642 1.384 . S
C1640 H1631 0.929 . S
C1640 C1632 1.378 . S
C1640 C1635 1.350 . S
C1641 H1628 0.929 . S
C1641 C1633 1.433 . S
C1641 N1643 1.384 . S
N1642 C1638 1.427 . S
N1642 C1639 1.384 . S
N1643 C1635 1.427 . S
N1643 C1641 1.384 . S
H1644 C1650 0.930 . S
H1645 C1654 0.930 . S
H1646 C1659 0.929 . S
H1647 C1657 0.929 . S
H1648 C1652 0.929 . S
H1649 C1658 0.929 . S
C1650 H1644 0.930 . S
C1650 C1651 1.367 . S
C1650 C1658 1.378 . S
C1651 C1650 1.367 . S
C1651 C1659 1.433 . S
C1652 H1648 0.929 . S
C1652 C1654 1.378 . S
C1652 C1656 1.350 . S
C1653 C1656 1.463 . S
C1653 C1658 1.350 . S
C1653 N1661 1.427 . S
C1654 H1645 0.930 . S
C1654 C1652 1.378 . S
C1654 C1655 1.367 . S
C1655 C1654 1.367 . S
C1655 C1657 1.433 . S
C1656 C1652 1.350 . S
C1656 C1653 1.463 . S
C1656 N1660 1.427 . S
C1657 H1647 0.929 . S
C1657 C1655 1.433 . S
C1657 N1660 1.384 . S
C1658 H1649 0.929 . S
C1658 C1650 1.378 . S
C1658 C1653 1.350 . S
C1659 H1646 0.929 . S
C1659 C1651 1.433 . S
C1659 N1661 1.384 . S
N1660 C1656 1.427 . S
N1660 C1657 1.384 . S
N1661 C1653 1.427 . S
N1661 C1659 1.384 . S
H1662 C1668 0.930 . S
H1663 C1672 0.930 . S
H1664 C1677 0.929 . S
H1665 C1675 0.929 . S
H1666 C1670 0.929 . S
H1667 C1676 0.929 . S
C1668 H1662 0.930 . S
C1668 C1669 1.367 . S
C1668 C1676 1.378 . S
C1669 C1668 1.367 . S
C1669 C1677 1.433 . S
C1670 H1666 0.929 . S
C1670 C1672 1.378 1_655 S
C1670 C1674 1.350 . S
C1671 C1674 1.463 . S
C1671 C1676 1.350 . S
C1671 N1679 1.427 . S
C1672 H1663 0.930 . S
C1672 C1670 1.378 1_455 S
C1672 C1673 1.367 . S
C1673 C1672 1.367 . S
C1673 C1675 1.433 . S
C1674 C1670 1.350 . S
C1674 C1671 1.463 . S
C1674 N1678 1.427 1_655 S
C1675 H1665 0.929 . S
C1675 C1673 1.433 . S
C1675 N1678 1.384 . S
C1676 H1667 0.929 . S
C1676 C1668 1.378 . S
C1676 C1671 1.350 . S
C1677 H1664 0.929 . S
C1677 C1669 1.433 . S
C1677 N1679 1.384 . S
N1678 C1674 1.427 1_455 S
N1678 C1675 1.384 . S
N1679 C1671 1.427 . S
N1679 C1677 1.384 . S
H1680 C1686 0.930 . S
H1681 C1690 0.930 . S
H1682 C1695 0.929 . S
H1683 C1693 0.929 . S
H1684 C1688 0.929 . S
H1685 C1694 0.929 . S
C1686 H1680 0.930 . S
C1686 C1687 1.367 . S
C1686 C1694 1.378 1_565 S
C1687 C1686 1.367 . S
C1687 C1695 1.433 . S
C1688 H1684 0.929 . S
C1688 C1690 1.378 . S
C1688 C1692 1.350 . S
C1689 C1692 1.463 . S
C1689 C1694 1.350 . S
C1689 N1697 1.423 1_545 S
C1690 H1681 0.930 . S
C1690 C1688 1.378 . S
C1690 C1691 1.367 . S
C1691 C1690 1.367 . S
C1691 C1693 1.433 . S
C1692 C1688 1.350 . S
C1692 C1689 1.463 . S
C1692 N1696 1.427 . S
C1693 H1683 0.929 . S
C1693 C1691 1.433 . S
C1693 N1696 1.384 . S
C1694 H1685 0.929 . S
C1694 C1686 1.378 1_545 S
C1694 C1689 1.350 . S
C1695 H1682 0.929 . S
C1695 C1687 1.433 . S
C1695 N1697 1.390 . S
N1696 C1692 1.427 . S
N1696 C1693 1.384 . S
N1697 C1689 1.423 1_565 S
N1697 C1695 1.390 . S
H1698 C1704 0.930 . S
H1699 C1708 0.930 . S
H1700 C1713 0.929 . S
H1701 C1711 0.929 . S
H1702 C1706 0.929 . S
H1703 C1712 0.929 . S
C1704 H1698 0.930 . S
C1704 C1705 1.367 . S
C1704 C1712 1.378 . S
C1705 C1704 1.367 . S
C1705 C1713 1.433 1_545 S
C1706 H1702 0.929 . S
C1706 C1708 1.378 . S
C1706 C1710 1.350 . S
C1707 C1710 1.463 . S
C1707 C1712 1.350 1_565 S
C1707 N1715 1.427 . S
C1708 H1699 0.930 . S
C1708 C1706 1.378 . S
C1708 C1709 1.367 . S
C1709 C1708 1.367 . S
C1709 C1711 1.433 . S
C1710 C1706 1.350 . S
C1710 C1707 1.463 . S
C1710 N1714 1.427 . S
C1711 H1701 0.929 . S
C1711 C1709 1.433 . S
C1711 N1714 1.384 . S
C1712 H1703 0.929 . S
C1712 C1704 1.378 . S
C1712 C1707 1.350 1_545 S
C1713 H1700 0.929 . S
C1713 C1705 1.433 1_565 S
C1713 N1715 1.384 . S
N1714 C1710 1.427 . S
N1714 C1711 1.384 . S
N1715 C1707 1.427 . S
N1715 C1713 1.384 . S
H1716 C1722 0.930 . S
H1717 C1726 0.930 . S
H1718 C1731 0.929 . S
H1719 C1729 0.929 . S
H1720 C1724 0.929 . S
H1721 C1730 0.929 . S
C1722 H1716 0.930 . S
C1722 C1723 1.367 . S
C1722 C1730 1.378 . S
C1723 C1722 1.367 . S
C1723 C1731 1.433 . S
C1724 H1720 0.929 . S
C1724 C1726 1.378 . S
C1724 C1728 1.350 . S
C1725 C1728 1.463 . S
C1725 C1730 1.350 . S
C1725 N1733 1.427 . S
C1726 H1717 0.930 . S
C1726 C1724 1.378 . S
C1726 C1727 1.367 . S
C1727 C1726 1.367 . S
C1727 C1729 1.433 . S
C1728 C1724 1.350 . S
C1728 C1725 1.463 . S
C1728 N1732 1.427 . S
C1729 H1719 0.929 . S
C1729 C1727 1.433 . S
C1729 N1732 1.384 . S
C1730 H1721 0.929 . S
C1730 C1722 1.378 . S
C1730 C1725 1.350 . S
C1731 H1718 0.929 . S
C1731 C1723 1.433 . S
C1731 N1733 1.384 . S
N1732 C1728 1.427 . S
N1732 C1729 1.384 . S
N1733 C1725 1.427 . S
N1733 C1731 1.384 . S
H1734 C1740 0.930 . S
H1735 C1744 0.930 . S
H1736 C1749 0.929 . S
H1737 C1747 0.929 . S
H1738 C1742 0.929 . S
H1739 C1748 0.929 . S
C1740 H1734 0.930 . S
C1740 C1741 1.367 . S
C1740 C1748 1.378 . S
C1741 C1740 1.367 . S
C1741 C1749 1.433 . S
C1742 H1738 0.929 . S
C1742 C1744 1.378 . S
C1742 C1746 1.350 . S
C1743 C1746 1.463 . S
C1743 C1748 1.350 . S
C1743 N1751 1.427 . S
C1744 H1735 0.930 . S
C1744 C1742 1.378 . S
C1744 C1745 1.367 . S
C1745 C1744 1.367 . S
C1745 C1747 1.433 . S
C1746 C1742 1.350 . S
C1746 C1743 1.463 . S
C1746 N1750 1.427 . S
C1747 H1737 0.929 . S
C1747 C1745 1.433 . S
C1747 N1750 1.384 . S
C1748 H1739 0.929 . S
C1748 C1740 1.378 . S
C1748 C1743 1.350 . S
C1749 H1736 0.929 . S
C1749 C1741 1.433 . S
C1749 N1751 1.384 . S
N1750 C1746 1.427 . S
N1750 C1747 1.384 . S
N1751 C1743 1.427 . S
N1751 C1749 1.384 . S
H1752 C1758 0.930 . S
H1753 C1762 0.930 . S
H1754 C1767 0.929 . S
H1755 C1765 0.929 . S
H1756 C1760 0.929 . S
H1757 C1766 0.929 . S
C1758 H1752 0.930 . S
C1758 C1759 1.367 1_554 S
C1758 C1766 1.378 . S
C1759 C1758 1.367 1_556 S
C1759 C1767 1.433 . S
C1760 H1756 0.929 . S
C1760 C1762 1.378 . S
C1760 C1764 1.350 . S
C1761 C1764 1.463 . S
C1761 C1766 1.350 . S
C1761 N1769 1.427 1_554 S
C1762 H1753 0.930 . S
C1762 C1760 1.378 . S
C1762 C1763 1.367 . S
C1763 C1762 1.367 . S
C1763 C1765 1.433 . S
C1764 C1760 1.350 . S
C1764 C1761 1.463 . S
C1764 N1768 1.427 . S
C1765 H1755 0.929 . S
C1765 C1763 1.433 . S
C1765 N1768 1.384 . S
C1766 H1757 0.929 . S
C1766 C1758 1.378 . S
C1766 C1761 1.350 . S
C1767 H1754 0.929 . S
C1767 C1759 1.433 . S
C1767 N1769 1.384 . S
N1768 C1764 1.427 . S
N1768 C1765 1.384 . S
N1769 C1761 1.427 1_556 S
N1769 C1767 1.384 . S
H1770 C1776 0.930 . S
H1771 C1780 0.930 . S
H1772 C1785 0.929 . S
H1773 C1783 0.929 . S
H1774 C1778 0.929 . S
H1775 C1784 0.929 . S
C1776 H1770 0.930 . S
C1776 C1777 1.367 . S
C1776 C1784 1.378 . S
C1777 C1776 1.367 . S
C1777 C1785 1.433 . S
C1778 H1774 0.929 . S
C1778 C1780 1.378 . S
C1778 C1782 1.350 1_554 S
C1779 C1782 1.463 . S
C1779 C1784 1.350 . S
C1779 N1787 1.427 . S
C1780 H1771 0.930 . S
C1780 C1778 1.378 . S
C1780 C1781 1.367 . S
C1781 C1780 1.367 . S
C1781 C1783 1.433 1_554 S
C1782 C1778 1.350 1_556 S
C1782 C1779 1.463 . S
C1782 N1786 1.427 . S
C1783 H1773 0.929 . S
C1783 C1781 1.433 1_556 S
C1783 N1786 1.384 . S
C1784 H1775 0.929 . S
C1784 C1776 1.378 . S
C1784 C1779 1.350 . S
C1785 H1772 0.929 . S
C1785 C1777 1.433 . S
C1785 N1787 1.384 . S
N1786 C1782 1.427 . S
N1786 C1783 1.384 . S
N1787 C1779 1.427 . S
N1787 C1785 1.384 . S
H1788 C1794 0.930 . S
H1789 C1798 0.930 . S
H1790 C1803 0.929 . S
H1791 C1801 0.929 . S
H1792 C1796 0.929 . S
H1793 C1802 0.929 . S
C1794 H1788 0.930 . S
C1794 C1795 1.367 . S
C1794 C1802 1.378 . S
C1795 C1794 1.367 . S
C1795 C1803 1.433 . S
C1796 H1792 0.929 . S
C1796 C1798 1.378 . S
C1796 C1800 1.350 . S
C1797 C1800 1.463 . S
C1797 C1802 1.350 . S
C1797 N1805 1.427 . S
C1798 H1789 0.930 . S
C1798 C1796 1.378 . S
C1798 C1799 1.367 . S
C1799 C1798 1.367 . S
C1799 C1801 1.433 . S
C1800 C1796 1.350 . S
C1800 C1797 1.463 . S
C1800 N1804 1.427 . S
C1801 H1791 0.929 . S
C1801 C1799 1.433 . S
C1801 N1804 1.384 . S
C1802 H1793 0.929 . S
C1802 C1794 1.378 . S
C1802 C1797 1.350 . S
C1803 H1790 0.929 . S
C1803 C1795 1.433 . S
C1803 N1805 1.384 . S
N1804 C1800 1.427 . S
N1804 C1801 1.384 . S
N1805 C1797 1.427 . S
N1805 C1803 1.384 . S
H1806 C1812 0.930 . S
H1807 C1816 0.930 . S
H1808 C1821 0.929 . S
H1809 C1819 0.929 . S
H1810 C1814 0.929 . S
H1811 C1820 0.929 . S
C1812 H1806 0.930 . S
C1812 C1813 1.367 . S
C1812 C1820 1.378 . S
C1813 C1812 1.367 . S
C1813 C1821 1.433 . S
C1814 H1810 0.929 . S
C1814 C1816 1.378 . S
C1814 C1818 1.350 . S
C1815 C1818 1.463 . S
C1815 C1820 1.350 . S
C1815 N1823 1.427 . S
C1816 H1807 0.930 . S
C1816 C1814 1.378 . S
C1816 C1817 1.367 . S
C1817 C1816 1.367 . S
C1817 C1819 1.433 . S
C1818 C1814 1.350 . S
C1818 C1815 1.463 . S
C1818 N1822 1.427 . S
C1819 H1809 0.929 . S
C1819 C1817 1.433 . S
C1819 N1822 1.384 . S
C1820 H1811 0.929 . S
C1820 C1812 1.378 . S
C1820 C1815 1.350 . S
C1821 H1808 0.929 . S
C1821 C1813 1.433 . S
C1821 N1823 1.384 . S
N1822 C1818 1.427 . S
N1822 C1819 1.384 . S
N1823 C1815 1.427 . S
N1823 C1821 1.384 . S
C535 C6 1.191 . S
C539 C402 1.199 . S
C553 C424 1.197 . S
C557 C29 1.190 . S
C571 C51 1.186 . S
C575 C359 1.198 . S
C589 C72 1.185 . S
C593 C380 1.198 . S
C607 C490 1.200 . S
C611 C94 1.181 . S
C625 C116 1.179 . S
C629 C468 1.201 . S
C643 C513 1.202 . S
C647 C138 1.186 . S
C661 C161 1.179 . S
C665 C447 1.203 . S
C679 C183 1.185 . S
C683 C293 1.202 . S
C697 C204 1.182 . S
C701 C336 1.200 . S
C715 C315 1.200 . S
C719 C226 1.190 . S
C733 C249 1.179 . S
C737 C270 1.202 . S
C751 C273 1.191 . S
C755 C141 1.200 . S
C769 C291 1.188 . S
C773 C159 1.201 . S
C787 C313 1.186 . S
C791 C97 1.202 . S
C805 C119 1.198 . S
C809 C339 1.192 . S
C823 C357 1.182 . S
C827 C229 1.199 . S
C841 C207 1.202 . S
C845 C383 1.179 . S
C859 C247 1.199 . S
C863 C405 1.191 . S
C877 C181 1.198 . S
C881 C427 1.192 . S
C895 C27 1.198 . S
C899 C445 1.188 . S
C913 C75 1.200 . S
C917 C471 1.190 . S
C931 C49 1.200 . S
C935 C493 1.191 . S
C949 C511 1.180 . S
C953 C9 1.201 . S
C967 C426 1.202 1_554 S
C971 C5 1.177 . S
C985 C404 1.203 . S
C989 C31 1.175 . S
C1003 C53 1.170 . S
C1007 C382 1.192 1_556 S
C1021 C356 1.187 . S
C1025 C71 1.179 . S
C1039 C93 1.178 . S
C1043 C510 1.187 1_455 S
C1057 C115 1.177 . S
C1061 C444 1.188 . S
C1075 C492 1.200 . S
C1079 C137 1.182 . S
C1093 C163 1.172 . S
C1097 C470 1.191 1_655 S
C1111 C312 1.197 1_545 S
C1115 C185 1.184 . S
C1129 C272 1.198 . S
C1133 C203 1.183 . S
C1147 C290 1.200 . S
C1151 C225 1.167 . S
C1165 C338 1.187 1_565 S
C1169 C251 1.178 . S
C1183 C271 1.176 . S
C1187 C162 1.188 1_556 S
C1201 C292 1.181 . S
C1205 C136 1.187 . S
C1219 C114 1.193 1_554 S
C1223 C314 1.170 . S
C1237 C92 1.199 . S
C1241 C337 1.183 . S
C1255 C250 1.200 1_655 S
C1259 C358 1.182 . S
C1273 C381 1.187 . S
C1277 C184 1.191 . S
C1291 C224 1.200 . S
C1295 C403 1.181 . S
C1309 C202 1.187 1_455 S
C1313 C425 1.181 . S
C1327 C446 1.184 . S
C1331 C52 1.187 1_565 S
C1345 C469 1.185 . S
C1349 C4 1.196 . S
C1363 C30 1.190 . S
C1367 C491 1.187 . S
C1381 C70 1.192 1_545 S
C1385 C512 1.187 . S
C1399 C7 1.044 . S
C1403 C206 1.017 . S
C1417 C228 1.032 . S
C1421 C28 1.024 . S
C1435 C180 1.023 . S
C1439 C50 1.032 . S
C1453 C246 1.031 . S
C1457 C73 1.025 . S
C1471 C95 1.030 . S
C1475 C74 1.025 . S
C1489 C48 1.021 . S
C1493 C117 1.035 . S
C1507 C139 1.024 . S
C1511 C26 1.033 . S
C1525 C8 1.018 . S
C1529 C160 1.044 . S
C1543 C182 1.023 . S
C1547 C118 1.033 . S
C1561 C205 1.026 . S
C1565 C158 1.029 . S
C1579 C227 1.042 . S
C1583 C140 1.021 . S
C1597 C248 1.039 . S
C1601 C96 1.017 . S
C1615 C269 1.036 . S
C1619 C466 1.020 . S
C1633 C295 1.024 . S
C1637 C488 1.032 . S
C1651 C448 1.040 . S
C1655 C317 1.019 . S
C1669 C514 1.018 . S
C1673 C335 1.044 . S
C1687 C361 1.022 . S
C1691 C334 1.036 . S
C1705 C379 1.022 . S
C1709 C316 1.041 . S
C1723 C294 1.041 . S
C1727 C401 1.020 . S
C1741 C423 1.026 . S
C1745 C268 1.029 . S
C1759 C449 1.044 . S
C1763 C378 1.016 . S
C1777 C422 1.040 . S
C1781 C467 1.023 . S
C1795 C489 1.035 . S
C1799 C400 1.030 . S
C1813 C515 1.023 . S
C1817 C360 1.040 . S
