# Generated by pormake.
# Topology sod, (4)-cn, num edge types: 1
# Building blocks:
#     Node 0, Type 0, BuildingBlock: KUFVIS_clean_sbu_0, # of connection points: 4
#     Node 1, Type 0, BuildingBlock: KUFVIS_clean_sbu_0, # of connection points: 4
#     Node 2, Type 0, BuildingBlock: KUFVIS_clean_sbu_0, # of connection points: 4
#     Node 3, Type 0, BuildingBlock: KUFVIS_clean_sbu_0, # of connection points: 4
#     Node 4, Type 0, BuildingBlock: KUFVIS_clean_sbu_0, # of connection points: 4
#     Node 5, Type 0, BuildingBlock: KUFVIS_clean_sbu_0, # of connection points: 4
#     Node 6, Type 0, BuildingBlock: KUFVIS_clean_sbu_0, # of connection points: 4
#     Node 7, Type 0, BuildingBlock: KUFVIS_clean_sbu_0, # of connection points: 4
#     Node 8, Type 0, BuildingBlock: KUFVIS_clean_sbu_0, # of connection points: 4
#     Node 9, Type 0, BuildingBlock: KUFVIS_clean_sbu_0, # of connection points: 4
#     Node 10, Type 0, BuildingBlock: KUFVIS_clean_sbu_0, # of connection points: 4
#     Node 11, Type 0, BuildingBlock: KUFVIS_clean_sbu_0, # of connection points: 4
#     Edge 12, Type (0, 0), BuildingBlock: OJICUG_clean_linker_0, # of connection points: 2
#     Edge 13, Type (0, 0), BuildingBlock: OJICUG_clean_linker_0, # of connection points: 2
#     Edge 14, Type (0, 0), BuildingBlock: OJICUG_clean_linker_0, # of connection points: 2
#     Edge 15, Type (0, 0), BuildingBlock: OJICUG_clean_linker_0, # of connection points: 2
#     Edge 16, Type (0, 0), BuildingBlock: OJICUG_clean_linker_0, # of connection points: 2
#     Edge 17, Type (0, 0), BuildingBlock: OJICUG_clean_linker_0, # of connection points: 2
#     Edge 18, Type (0, 0), BuildingBlock: OJICUG_clean_linker_0, # of connection points: 2
#     Edge 19, Type (0, 0), BuildingBlock: OJICUG_clean_linker_0, # of connection points: 2
#     Edge 20, Type (0, 0), BuildingBlock: OJICUG_clean_linker_0, # of connection points: 2
#     Edge 21, Type (0, 0), BuildingBlock: OJICUG_clean_linker_0, # of connection points: 2
#     Edge 22, Type (0, 0), BuildingBlock: OJICUG_clean_linker_0, # of connection points: 2
#     Edge 23, Type (0, 0), BuildingBlock: OJICUG_clean_linker_0, # of connection points: 2
#     Edge 24, Type (0, 0), BuildingBlock: OJICUG_clean_linker_0, # of connection points: 2
#     Edge 25, Type (0, 0), BuildingBlock: OJICUG_clean_linker_0, # of connection points: 2
#     Edge 26, Type (0, 0), BuildingBlock: OJICUG_clean_linker_0, # of connection points: 2
#     Edge 27, Type (0, 0), BuildingBlock: OJICUG_clean_linker_0, # of connection points: 2
#     Edge 28, Type (0, 0), BuildingBlock: OJICUG_clean_linker_0, # of connection points: 2
#     Edge 29, Type (0, 0), BuildingBlock: OJICUG_clean_linker_0, # of connection points: 2
#     Edge 30, Type (0, 0), BuildingBlock: OJICUG_clean_linker_0, # of connection points: 2
#     Edge 31, Type (0, 0), BuildingBlock: OJICUG_clean_linker_0, # of connection points: 2
#     Edge 32, Type (0, 0), BuildingBlock: OJICUG_clean_linker_0, # of connection points: 2
#     Edge 33, Type (0, 0), BuildingBlock: OJICUG_clean_linker_0, # of connection points: 2
#     Edge 34, Type (0, 0), BuildingBlock: OJICUG_clean_linker_0, # of connection points: 2
#     Edge 35, Type (0, 0), BuildingBlock: OJICUG_clean_linker_0, # of connection points: 2
# Relax obj value: 0.119
# Max RMSD: 0.164
# Mean RMSD: 0.150
data_MOF--net-sod--node1-KUFVIS_clean_sbu_0--edge1-OJICUG_clean_linker_0
_symmetry_space_group_name_H-M    P1
_symmetry_Int_Tables_number       1
_symmetry_cell_setting            triclinic
loop_
_symmetry_equiv_pos_as_xyz
'x, y, z'
_cell_length_a     30.376921
_cell_length_b     30.326001
_cell_length_c     30.723836
_cell_angle_alpha  91.402373
_cell_angle_beta   90.065295
_cell_angle_gamma 92.103472
loop_
_atom_site_label
_atom_site_type_symbol
_atom_site_fract_x
_atom_site_fract_y
_atom_site_fract_z
_atom_type_partial_charge
Mn0 Mn 0.04134 0.27146 0.52257 0.0
Mn1 Mn 0.94721 0.32216 0.53305 0.0
C2 C 0.97663 0.2325 0.54077 0.0
C3 C 0.09874 0.22343 0.50735 0.0
C4 C 0.01956 0.33937 0.59261 0.0
O5 O 0.05015 0.31805 0.4758 0.0
O6 O 0.99272 0.35788 0.50072 0.0
C7 C 0.91375 0.34532 0.44551 0.0
N8 N 0.90729 0.32325 0.48327 0.0
C9 C 0.82245 0.32263 0.46388 0.0
C10 C 0.83431 0.34583 0.42702 0.0
C11 C 0.87872 0.35615 0.41799 0.0
C12 C 0.86632 0.31105 0.4957 0.0
H13 H 0.9463 0.356 0.43597 0.0
C14 C 0.02625 0.35241 0.47553 0.0
O15 O 0.10427 0.25933 0.53004 0.0
O16 O 0.06095 0.21784 0.48745 0.0
N17 N 0.90384 0.28761 0.56365 0.0
C18 C 0.90704 0.27112 0.60431 0.0
C19 C 0.87285 0.24584 0.62284 0.0
C20 C 0.83233 0.23733 0.60224 0.0
C21 C 0.82212 0.25737 0.56154 0.0
C22 C 0.86704 0.28265 0.54057 0.0
H23 H 0.93724 0.27521 0.62259 0.0
O24 O 0.01308 0.22643 0.56184 0.0
O25 O 0.97642 0.26677 0.516 0.0
O26 O 0.04736 0.32239 0.56783 0.0
O27 O 0.97945 0.32979 0.58755 0.0
C28 C 0.75259 0.27311 0.51307 0.0
C29 C 0.7687 0.3054 0.47036 0.0
H30 H 0.80922 0.35481 0.40415 0.0
H31 H 0.88649 0.3738 0.38859 0.0
H32 H 0.87831 0.23186 0.65442 0.0
H33 H 0.80969 0.21674 0.62054 0.0
H34 H 0.71765 0.26352 0.51583 0.0
H35 H 0.74429 0.31466 0.44696 0.0
Mn36 Mn 0.79714 0.03268 0.53533 0.0
Mn37 Mn 0.74601 0.12604 0.52203 0.0
C38 C 0.83661 0.09616 0.51572 0.0
C39 C 0.84344 0.97635 0.55474 0.0
C40 C 0.73327 0.0503 0.46245 0.0
O41 O 0.74883 0.02572 0.58073 0.0
O42 O 0.70928 0.08245 0.55607 0.0
C43 C 0.72133 0.16428 0.60854 0.0
N44 N 0.74427 0.16856 0.57063 0.0
C45 C 0.74704 0.25429 0.58857 0.0
C46 C 0.72269 0.24465 0.62559 0.0
C47 C 0.71086 0.20084 0.63537 0.0
C48 C 0.75758 0.20873 0.55729 0.0
H49 H 0.70972 0.13232 0.61876 0.0
C50 C 0.71463 0.04964 0.58145 0.0
O51 O 0.80928 0.96944 0.53056 0.0
O52 O 0.8483 0.01544 0.57309 0.0
N53 N 0.78163 0.16753 0.49017 0.0
C54 C 0.7994 0.16201 0.44982 0.0
C55 C 0.82633 0.19475 0.43097 0.0
C56 C 0.83576 0.23586 0.45107 0.0
C57 C 0.81503 0.24839 0.49147 0.0
C58 C 0.78713 0.2052 0.51264 0.0
H59 H 0.79493 0.13107 0.43199 0.0
O60 O 0.84381 0.05841 0.49636 0.0
O61 O 0.80129 0.09778 0.53986 0.0
O62 O 0.74951 0.02419 0.48852 0.0
O63 O 0.73851 0.09119 0.4682 0.0
C64 C 0.80103 0.32036 0.53921 0.0
C65 C 0.76682 0.30712 0.58174 0.0
H66 H 0.71416 0.27097 0.6481 0.0
H67 H 0.69246 0.19481 0.66492 0.0
H68 H 0.84108 0.18756 0.39964 0.0
H69 H 0.85773 0.25709 0.43268 0.0
H70 H 0.81226 0.35485 0.53624 0.0
H71 H 0.75808 0.33278 0.60487 0.0
Mn72 Mn 0.03087 0.80047 0.53008 0.0
Mn73 Mn 0.12597 0.74966 0.53134 0.0
C74 C 0.09682 0.84016 0.54296 0.0
C75 C 0.97206 0.84611 0.5166 0.0
C76 C 0.05901 0.73699 0.59912 0.0
O77 O 0.01752 0.75045 0.48592 0.0
O78 O 0.07853 0.7123 0.50152 0.0
C79 C 0.15033 0.72796 0.43958 0.0
N80 N 0.16067 0.74928 0.47802 0.0
C81 C 0.24327 0.7489 0.45144 0.0
C82 C 0.22781 0.72572 0.41464 0.0
C83 C 0.18256 0.7165 0.40868 0.0
C84 C 0.20261 0.7615 0.48724 0.0
H85 H 0.11669 0.71872 0.43203 0.0
C86 C 0.04171 0.71659 0.48125 0.0
O87 O 0.96877 0.81296 0.54176 0.0
O88 O 1.00834 0.85029 0.4942 0.0
N89 N 0.17161 0.78561 0.55923 0.0
C90 C 0.17205 0.80291 0.60054 0.0
C91 C 0.20806 0.82835 0.617 0.0
C92 C 0.24701 0.8358 0.5936 0.0
C93 C 0.25327 0.81522 0.55139 0.0
C94 C 0.2062 0.79039 0.53318 0.0
H95 H 0.1435 0.79903 0.62116 0.0
O96 O 0.06191 0.84853 0.56586 0.0
O97 O 0.09466 0.80436 0.51858 0.0
O98 O 0.02962 0.75427 0.57728 0.0
O99 O 0.0989 0.74092 0.58856 0.0
C100 C 0.31794 0.79773 0.49662 0.0
C101 C 0.29761 0.76528 0.45415 0.0
H102 H 0.25062 0.71623 0.38935 0.0
H103 H 0.17186 0.6993 0.37901 0.0
H104 H 0.20555 0.84291 0.6494 0.0
H105 H 0.27175 0.85596 0.61083 0.0
H106 H 0.35314 0.8068 0.49676 0.0
H107 H 0.31971 0.75542 0.42841 0.0
Mn108 Mn 0.27452 0.03681 0.53153 0.0
Mn109 Mn 0.32752 0.94596 0.51121 0.0
C110 C 0.23674 0.97261 0.50959 0.0
C111 C 0.22557 0.09303 0.54913 0.0
C112 C 0.3379 0.02242 0.45878 0.0
O113 O 0.31865 0.04292 0.58046 0.0
O114 O 0.36256 0.99176 0.54839 0.0
C115 C 0.37127 0.90343 0.58385 0.0
N116 N 0.33658 0.90211 0.55554 0.0
C117 C 0.3306 0.81699 0.572 0.0
C118 C 0.36203 0.82535 0.60418 0.0
C119 C 0.38231 0.86735 0.60922 0.0
C120 C 0.3181 0.86267 0.5438 0.0
H121 H 0.39316 0.93205 0.58575 0.0
C122 C 0.353 0.01932 0.57988 0.0
O123 O 0.2616 0.09994 0.52828 0.0
O124 O 0.2199 0.05406 0.56568 0.0
N125 N 0.29128 0.90291 0.47918 0.0
C126 C 0.2713 0.90749 0.43987 0.0
C127 C 0.24154 0.87538 0.42247 0.0
C128 C 0.23124 0.83561 0.4428 0.0
C129 C 0.25439 0.82339 0.48135 0.0
C130 C 0.28494 0.8664 0.50187 0.0
H131 H 0.27602 0.93731 0.4218 0.0
O132 O 0.23063 1.00925 0.48933 0.0
O133 O 0.27201 0.9713 0.53369 0.0
O134 O 0.32664 0.04691 0.48977 0.0
O135 O 0.3276 0.98224 0.45936 0.0
C136 C 0.27112 0.75159 0.52487 0.0
C137 C 0.30905 0.76456 0.5649 0.0
H138 H 0.37243 0.79886 0.62435 0.0
H139 H 0.40907 0.87181 0.6324 0.0
H140 H 0.22511 0.88209 0.39217 0.0
H141 H 0.20695 0.81481 0.42573 0.0
H142 H 0.2593 0.71717 0.52126 0.0
H143 H 0.31995 0.73875 0.58561 0.0
Mn144 Mn 0.54201 0.04165 0.26649 0.0
Mn145 Mn 0.52007 0.9417 0.31001 0.0
C146 C 0.5543 0.97687 0.22703 0.0
C147 C 0.52829 0.10503 0.22754 0.0
C148 C 0.59738 1.00175 0.33751 0.0
O149 O 0.49836 0.05585 0.31557 0.0
O150 O 0.48255 0.98633 0.33827 0.0
C151 C 0.42774 0.92399 0.28138 0.0
N152 N 0.47054 0.91219 0.28201 0.0
C153 C 0.45279 0.84527 0.24084 0.0
C154 C 0.40854 0.8568 0.23975 0.0
C155 C 0.396 0.89638 0.26006 0.0
C156 C 0.48294 0.87408 0.26267 0.0
H157 H 0.41793 0.95417 0.29707 0.0
C158 C 0.47692 0.02809 0.33912 0.0
O159 O 0.55781 0.10437 0.25778 0.0
O160 O 0.50416 0.06901 0.22119 0.0
N161 N 0.55409 0.89622 0.28379 0.0
C162 C 0.5985 0.89143 0.28509 0.0
C163 C 0.6167 0.85436 0.26475 0.0
C164 C 0.58908 0.82252 0.24345 0.0
C165 C 0.54348 0.82811 0.24258 0.0
C166 C 0.52721 0.86566 0.26354 0.0
H167 H 0.61993 0.9158 0.30136 0.0
O168 O 0.57641 0.01299 0.21802 0.0
O169 O 0.52709 0.97965 0.25927 0.0
O170 O 0.59004 0.03077 0.3098 0.0
O171 O 0.57243 0.96741 0.34182 0.0
C172 C 0.51362 0.79828 0.22109 0.0
C173 C 0.4683 0.80681 0.22033 0.0
H174 H 0.38402 0.8357 0.22312 0.0
H175 H 0.36192 0.90557 0.25931 0.0
H176 H 0.65194 0.85037 0.26542 0.0
H177 H 0.60327 0.79411 0.22757 0.0
H178 H 0.52523 0.76897 0.20458 0.0
H179 H 0.4457 0.78383 0.20346 0.0
Mn180 Mn 0.03688 0.52958 0.26561 0.0
Mn181 Mn 0.93286 0.53269 0.30204 0.0
C182 C 0.97929 0.50998 0.21897 0.0
C183 C 0.09792 0.55428 0.2266 0.0
C184 C 1.00109 0.47001 0.33496 0.0
O185 O 0.04066 0.57317 0.31844 0.0
O186 O 0.9676 0.58048 0.3326 0.0
C187 C 0.89984 0.61807 0.27396 0.0
N188 N 0.8971 0.57313 0.27264 0.0
C189 C 0.83302 0.57273 0.22643 0.0
C190 C 0.83531 0.61901 0.22712 0.0
C191 C 0.86883 0.64176 0.25103 0.0
C192 C 0.86453 0.55091 0.25033 0.0
H193 H 0.92567 0.63564 0.29213 0.0
C194 C 1.0085 0.59096 0.33904 0.0
O195 O 0.10144 0.52589 0.25713 0.0
O196 O 0.06045 0.5734 0.22355 0.0
N197 N 0.89762 0.48737 0.27292 0.0
C198 C 0.90156 0.4428 0.27367 0.0
C199 C 0.87139 0.41519 0.25022 0.0
C200 C 0.83763 0.43369 0.22617 0.0
C201 C 0.83443 0.47967 0.22565 0.0
C202 C 0.86516 0.50549 0.25 0.0
H203 H 0.92752 0.42843 0.29199 0.0
O204 O 0.01743 0.49254 0.21408 0.0
O205 O 0.97504 0.53495 0.25357 0.0
O206 O 0.02955 0.47766 0.3059 0.0
O207 O 0.9648 0.48974 0.33695 0.0
C208 C 0.80226 0.50089 0.20154 0.0
C209 C 0.80149 0.54739 0.20201 0.0
H210 H 0.81175 0.6374 0.20909 0.0
H211 H 0.87086 0.67747 0.25164 0.0
H212 H 0.87421 0.37973 0.25059 0.0
H213 H 0.81453 0.4123 0.20798 0.0
H214 H 0.77819 0.48177 0.18223 0.0
H215 H 0.7769 0.56334 0.18297 0.0
Mn216 Mn 0.53013 0.01974 0.76675 0.0
Mn217 Mn 0.43071 0.03287 0.81081 0.0
C218 C 0.46701 0.99849 0.72702 0.0
C219 C 0.58943 0.0413 0.72333 0.0
C220 C 0.4988 0.97017 0.84422 0.0
O221 O 0.54022 0.06623 0.81698 0.0
O222 O 0.46919 0.08288 0.83067 0.0
C223 C 0.40177 0.11294 0.76749 0.0
N224 N 0.39495 0.06957 0.77685 0.0
C225 C 0.32746 0.06525 0.73568 0.0
C226 C 0.33355 0.10997 0.72586 0.0
C227 C 0.37096 0.13387 0.74171 0.0
C228 C 0.35935 0.04615 0.76139 0.0
H229 H 0.43061 0.1313 0.77947 0.0
C230 C 0.51074 0.08963 0.83579 0.0
O231 O 0.5937 0.01327 0.75407 0.0
O232 O 0.55204 0.06069 0.72114 0.0
N233 N 0.39057 0.98571 0.793 0.0
C234 C 0.39093 0.94227 0.80327 0.0
C235 C 0.3559 0.91365 0.78969 0.0
C236 C 0.3208 0.93 0.76585 0.0
C237 C 0.321 0.97489 0.75587 0.0
C238 C 0.35658 1.00192 0.7707 0.0
H239 H 0.41753 0.92956 0.82196 0.0
O240 O 0.50437 0.98085 0.71826 0.0
O241 O 0.4681 0.02594 0.75984 0.0
O242 O 0.52268 0.97103 0.81048 0.0
O243 O 0.46509 0.99397 0.84887 0.0
C244 C 0.28795 0.99363 0.7308 0.0
C245 C 0.29132 0.03872 0.72048 0.0
H246 H 0.30991 0.1262 0.70591 0.0
H247 H 0.37604 0.16832 0.73405 0.0
H248 H 0.35593 0.87908 0.79764 0.0
H249 H 0.29405 0.90774 0.75509 0.0
H250 H 0.2602 0.97349 0.71864 0.0
H251 H 0.26611 0.05257 0.70054 0.0
Mn252 Mn 0.04596 0.53862 0.76318 0.0
Mn253 Mn 0.02738 0.43634 0.80181 0.0
C254 C 0.06164 0.47603 0.72115 0.0
C255 C 0.03137 0.60317 0.72642 0.0
C256 C 0.09922 0.50008 0.83571 0.0
O257 O 0.99992 0.54791 0.81193 0.0
O258 O 0.98311 0.47616 0.82703 0.0
C259 C 0.94042 0.41074 0.76291 0.0
N260 N 0.98387 0.40295 0.76841 0.0
C261 C 0.97687 0.33562 0.72527 0.0
C262 C 0.93189 0.34271 0.71972 0.0
C263 C 0.91367 0.38062 0.73838 0.0
C264 C 1.00188 0.36687 0.75002 0.0
H265 H 0.92649 0.43988 0.7768 0.0
C266 C 0.97627 0.51769 0.83048 0.0
O267 O 0.05958 0.60222 0.75776 0.0
O268 O 1.00834 0.56679 0.7181 0.0
N269 N 0.06839 0.39581 0.77776 0.0
C270 C 0.11298 0.39582 0.78277 0.0
C271 C 0.13675 0.36149 0.7638 0.0
C272 C 0.11447 0.32738 0.74005 0.0
C273 C 0.06861 0.32806 0.73526 0.0
C274 C 0.04666 0.36315 0.75488 0.0
H275 H 0.13039 0.42178 0.80108 0.0
O276 O 0.08238 0.51338 0.71389 0.0
O277 O 0.03429 0.47666 0.75321 0.0
O278 O 0.09366 0.52798 0.80656 0.0
O279 O 0.07411 0.46572 0.83938 0.0
C280 C 0.04395 0.29568 0.71115 0.0
C281 C 0.99808 0.29937 0.7063 0.0
H282 H 0.91122 0.31966 0.70064 0.0
H283 H 0.8791 0.38665 0.73381 0.0
H284 H 0.17217 0.3613 0.76751 0.0
H285 H 0.13294 0.30103 0.72534 0.0
H286 H 0.06 0.26809 0.69572 0.0
H287 H 0.97959 0.27442 0.68744 0.0
Mn288 Mn 0.2995 0.53326 0.03373 0.0
Mn289 Mn 0.2481 0.62588 0.01961 0.0
C290 C 0.33877 0.59673 0.01379 0.0
C291 C 0.3466 0.47684 0.05167 0.0
C292 C 0.23484 0.54994 0.96149 0.0
O293 O 0.25247 0.52694 0.08042 0.0
O294 O 0.21165 0.58174 0.05357 0.0
C295 C 0.22167 0.6643 0.10571 0.0
N296 N 0.24491 0.66864 0.06799 0.0
C297 C 0.24812 0.7542 0.08667 0.0
C298 C 0.22317 0.74451 0.12326 0.0
C299 C 0.21092 0.70072 0.13257 0.0
C300 C 0.2583 0.70886 0.0549 0.0
H301 H 0.21014 0.63244 0.11587 0.0
C302 C 0.21797 0.55045 0.0806 0.0
O303 O 0.31161 0.46998 0.02868 0.0
O304 O 0.35191 0.51592 0.06995 0.0
N305 N 0.28356 0.66783 0.98808 0.0
C306 C 0.30214 0.66255 0.94805 0.0
C307 C 0.3296 0.69533 0.92995 0.0
C308 C 0.33922 0.7361 0.95068 0.0
C309 C 0.31792 0.74841 0.99082 0.0
C310 C 0.28865 0.70541 0.01076 0.0
H311 H 0.2979 0.63177 0.92991 0.0
O312 O 0.34526 0.55914 0.99377 0.0
O313 O 0.30363 0.59848 0.03816 0.0
O314 O 0.25015 0.5242 0.98846 0.0
O315 O 0.24233 0.59068 0.96579 0.0
C316 C 0.30454 0.81989 0.03948 0.0
C317 C 0.26919 0.80671 0.08107 0.0
H318 H 0.2147 0.77071 0.14594 0.0
H319 H 0.19221 0.69456 0.16191 0.0
H320 H 0.34487 0.68833 0.89882 0.0
H321 H 0.36186 0.75726 0.93298 0.0
H322 H 0.31657 0.85422 0.03733 0.0
H323 H 0.2606 0.83219 0.10446 0.0
Mn324 Mn 0.53218 0.29879 0.02692 0.0
Mn325 Mn 0.62523 0.24537 0.03244 0.0
C326 C 0.59831 0.33729 0.04249 0.0
C327 C 0.47473 0.34603 0.0122 0.0
C328 C 0.55536 0.23515 0.09737 0.0
O329 O 0.51988 0.2498 0.98147 0.0
O330 O 0.57813 0.2092 1.00062 0.0
C331 C 0.65441 0.22023 0.94279 0.0
N332 N 0.66288 0.24259 0.98111 0.0
C333 C 0.74663 0.24231 0.95804 0.0
C334 C 0.73293 0.21819 0.92116 0.0
C335 C 0.68804 0.20823 0.91363 0.0
C336 C 0.70444 0.25451 0.99223 0.0
H337 H 0.62124 0.21054 0.93394 0.0
C338 C 0.54317 0.2152 0.97781 0.0
O339 O 0.46994 0.31232 0.03641 0.0
O340 O 0.51189 0.34997 0.99121 0.0
N341 N 0.67016 0.2803 0.06212 0.0
C342 C 0.66872 0.29858 0.10299 0.0
C343 C 0.70367 0.32485 0.12017 0.0
C344 C 0.74295 0.33302 0.09768 0.0
C345 C 0.75132 0.31144 0.05631 0.0
C346 C 0.70575 0.28458 0.03744 0.0
H347 H 0.6394 0.29508 0.12257 0.0
O348 O 0.56276 0.34567 0.0644 0.0
O349 O 0.59665 0.3015 0.01784 0.0
O350 O 0.52719 0.25198 0.07371 0.0
O351 O 0.59556 0.23846 0.08838 0.0
C352 C 0.81835 0.29486 1.00411 0.0
C353 C 0.8004 0.26058 0.96195 0.0
H354 H 0.75683 0.20865 0.89692 0.0
H355 H 0.67874 0.19025 0.88395 0.0
H356 H 0.69973 0.34017 0.15208 0.0
H357 H 0.76617 0.35475 0.11503 0.0
H358 H 0.85325 0.30511 1.0052 0.0
H359 H 0.8236 0.25087 0.93714 0.0
Mn360 Mn 0.77916 0.5379 0.02902 0.0
Mn361 Mn 0.82456 0.44133 0.01332 0.0
C362 C 0.73585 0.47428 0.01203 0.0
C363 C 0.73531 0.59729 0.04938 0.0
C364 C 0.83804 0.51321 0.95332 0.0
O365 O 0.83059 0.54498 0.07222 0.0
O366 O 0.86517 0.48511 0.0446 0.0
C367 C 0.84841 0.40882 0.10111 0.0
N368 N 0.82726 0.40191 0.06234 0.0
C369 C 0.82773 0.31704 0.07947 0.0
C370 C 0.85287 0.32907 0.11597 0.0
C371 C 0.86189 0.37377 0.12682 0.0
C372 C 0.8147 0.36094 0.04909 0.0
H373 H 0.85507 0.44183 0.11314 0.0
C374 C 0.86349 0.51913 0.07061 0.0
O375 O 0.76881 0.60163 0.02417 0.0
O376 O 0.73038 0.55953 0.0685 0.0
N377 N 0.78595 0.39904 0.98393 0.0
C378 C 0.76591 0.40262 0.94459 0.0
C379 C 0.73832 0.36877 0.92696 0.0
C380 C 0.73093 0.32831 0.94703 0.0
C381 C 0.75434 0.3177 0.98605 0.0
C382 C 0.78261 0.36213 1.00613 0.0
H383 H 0.76907 0.43284 0.92685 0.0
O384 O 0.72905 0.51115 0.99263 0.0
O385 O 0.77232 0.47305 0.0342 0.0
O386 O 0.82543 0.54152 0.98051 0.0
O387 O 0.82961 0.47295 0.9587 0.0
C388 C 0.77226 0.24794 0.03222 0.0
C389 C 0.80862 0.26356 0.07309 0.0
H390 H 0.86316 0.30402 0.13791 0.0
H391 H 0.87986 0.38172 0.15657 0.0
H392 H 0.72156 0.37444 0.89658 0.0
H393 H 0.70825 0.30603 0.9296 0.0
H394 H 0.7614 0.21318 0.02949 0.0
H395 H 0.81894 0.23912 0.09565 0.0
Mn396 Mn 0.54546 0.77167 0.02877 0.0
Mn397 Mn 0.44984 0.82012 0.0374 0.0
C398 C 0.48057 0.73073 0.04331 0.0
C399 C 0.60481 0.72591 0.01328 0.0
C400 C 0.5194 0.83662 0.1001 0.0
O401 O 0.55486 0.8202 0.98403 0.0
O402 O 0.49575 0.85795 0.00813 0.0
C403 C 0.41969 0.84472 0.94902 0.0
N404 N 0.41187 0.8221 0.98623 0.0
C405 C 0.32763 0.82305 0.9647 0.0
C406 C 0.34082 0.8468 0.92859 0.0
C407 C 0.38561 0.85654 0.92081 0.0
C408 C 0.37047 0.80994 0.99721 0.0
H409 H 0.45263 0.85498 0.94049 0.0
C410 C 0.53026 0.85406 0.98402 0.0
O411 O 0.6086 0.76066 0.03789 0.0
O412 O 0.56766 0.72016 0.99225 0.0
N413 N 0.40592 0.7841 0.0654 0.0
C414 C 0.40802 0.76635 0.1056 0.0
C415 C 0.37298 0.74133 0.12285 0.0
C416 C 0.33263 0.73464 0.10151 0.0
C417 C 0.32371 0.75598 0.06114 0.0
C418 C 0.36957 0.78058 0.04152 0.0
H419 H 0.43799 0.76914 0.12447 0.0
O420 O 0.51647 0.72439 0.0652 0.0
O421 O 0.48077 0.76588 0.01976 0.0
O422 O 0.54855 0.82104 0.07593 0.0
O423 O 0.47974 0.82633 0.0932 0.0
C424 C 0.25566 0.77414 0.01163 0.0
C425 C 0.2734 0.80688 0.96981 0.0
H426 H 0.31651 0.85669 0.90532 0.0
H427 H 0.39443 0.8746 0.89192 0.0
H428 H 0.3775 0.72627 0.15407 0.0
H429 H 0.30915 0.71426 0.11901 0.0
H430 H 0.2205 0.7652 0.01351 0.0
H431 H 0.24974 0.8171 0.9461 0.0
C432 C 0.04456 0.37432 0.39871 0.0
C433 C 0.03156 0.386 0.44128 0.0
H434 H 0.0448 0.39182 0.33113 0.0
C435 C 0.01247 0.42721 0.44845 0.0
H436 H 0.05878 0.34266 0.39193 0.0
C437 C 1.00253 0.4539 0.41376 0.0
C438 C 0.01278 0.44103 0.37098 0.0
H439 H 1.00229 0.43754 0.4808 0.0
H440 H 0.98628 0.48456 0.42043 0.0
C441 C 0.03571 0.40198 0.36384 0.0
C442 C 0.69517 0.06086 0.39203 0.0
C443 C 0.70359 0.03367 0.42709 0.0
H444 H 0.65591 0.07192 0.33633 0.0
C445 C 0.67957 0.9933 0.43038 0.0
H446 H 0.71335 0.09197 0.38839 0.0
C447 C 0.6458 0.98178 0.40055 0.0
C448 C 0.63586 0.0103 0.36678 0.0
H449 H 0.68528 0.97175 0.45725 0.0
H450 H 0.62663 0.95138 0.40481 0.0
C451 C 0.66198 0.04926 0.36219 0.0
C452 C 0.05324 0.61892 0.40288 0.0
C453 C 0.01779 0.62381 0.3745 0.0
H454 H 0.08708 0.64253 0.46011 0.0
C455 C 0.9882 0.65763 0.38315 0.0
H456 H 0.07584 0.59248 0.39771 0.0
C457 C 0.99471 0.68686 0.41874 0.0
C458 C 0.0305 0.68236 0.44704 0.0
H459 H 0.96012 0.66177 0.3621 0.0
H460 H 0.97215 0.71337 0.42356 0.0
C461 C 0.05912 0.64736 0.43907 0.0
C462 C 0.41259 0.05303 0.44007 0.0
C463 C 0.37044 0.03762 0.42647 0.0
H464 H 0.48064 0.06238 0.42203 0.0
C465 C 0.36262 0.02863 0.38213 0.0
H466 H 0.41942 0.05947 0.4743 0.0
C467 C 0.39712 0.03188 0.35224 0.0
C468 C 0.44022 0.04267 0.36641 0.0
H469 H 0.33045 0.01644 0.37104 0.0
H470 H 0.39076 0.02227 0.31858 0.0
C471 C 0.4475 0.05495 0.41023 0.0
C472 C 1.0036 0.64434 0.66189 0.0
C473 C 0.03211 0.64188 0.69771 0.0
H474 H 0.98925 0.67758 0.6028 0.0
C475 C 0.06609 0.6745 0.70322 0.0
H476 H 0.97726 0.61973 0.65666 0.0
C477 C 0.07361 0.7066 0.67207 0.0
C478 C 0.04654 0.70782 0.63528 0.0
H479 H 0.08873 0.67385 0.73044 0.0
H480 H 0.1015 0.72967 0.67607 0.0
C481 C 0.01046 0.67746 0.63116 0.0
C482 C 0.44384 0.0409 0.66308 0.0
C483 C 0.43621 1.00519 0.69092 0.0
H484 H 0.42386 0.07313 0.60488 0.0
C485 C 0.40005 0.97634 0.68313 0.0
H486 H 0.47195 0.06343 0.66839 0.0
C487 C 0.37059 0.98438 0.64951 0.0
C488 C 0.3797 0.01814 0.61992 0.0
H489 H 0.39432 0.94793 0.70325 0.0
H490 H 0.34185 0.96252 0.64507 0.0
C491 C 0.41627 0.04682 0.62719 0.0
C492 C 0.07681 0.38349 0.63734 0.0
C493 C 0.03261 0.37457 0.62486 0.0
H494 H 0.12133 0.42333 0.6782 0.0
C495 C 0.99988 0.40153 0.64189 0.0
H496 H 0.10283 0.36367 0.62422 0.0
C497 C 0.01049 0.43534 0.6717 0.0
C498 C 0.05399 0.44295 0.6859 0.0
H499 H 0.96567 0.39652 0.63237 0.0
H500 H 0.98422 0.45507 0.68456 0.0
C501 C 0.08749 0.41769 0.66778 0.0
C502 C 0.66162 0.02135 0.68968 0.0
C503 C 0.62239 0.0446 0.6879 0.0
H504 H 0.72119 1.00376 0.6572 0.0
C505 C 0.61252 0.06666 0.64968 0.0
H506 H 0.66987 1.00339 0.71843 0.0
C507 C 0.64131 0.06592 0.61428 0.0
C508 C 0.68108 0.04349 0.61622 0.0
H509 H 0.5822 0.08409 0.64681 0.0
H510 H 0.63275 0.08391 0.58563 0.0
C511 C 0.69069 0.02085 0.65426 0.0
C512 C 0.39844 0.36848 0.02673 0.0
C513 C 0.44227 0.38115 0.01727 0.0
H514 H 0.33468 0.38851 0.04678 0.0
C515 C 0.45561 0.42587 0.02313 0.0
H516 H 0.38735 0.33417 0.02358 0.0
C517 C 0.42544 0.45713 0.03803 0.0
C518 C 0.38149 0.4441 0.04719 0.0
H519 H 0.48955 0.43639 0.01752 0.0
H520 H 0.43603 0.49157 0.0409 0.0
C521 C 0.36852 0.39945 0.04114 0.0
C522 C 0.39103 0.64099 0.06348 0.0
C523 C 0.37654 0.62957 0.02092 0.0
H524 H 0.43798 0.67815 0.10383 0.0
C525 C 0.39995 0.64823 0.98607 0.0
H526 H 0.37519 0.62577 0.09119 0.0
C527 C 0.43258 0.68186 0.99353 0.0
C528 C 0.4461 0.69436 0.03612 0.0
H529 H 0.39205 0.63788 0.95294 0.0
H530 H 0.448 0.69747 0.96581 0.0
C531 C 0.42683 0.67124 0.0708 0.0
C532 C 0.64222 0.38732 0.99248 0.0
C533 C 0.63252 0.37349 0.03501 0.0
H534 H 0.67859 0.43305 0.95214 0.0
C535 C 0.65386 0.39654 0.06974 0.0
H536 H 0.62492 0.37192 0.96491 0.0
C537 C 0.68818 0.42797 0.06203 0.0
C538 C 0.69887 0.44085 0.01943 0.0
H539 H 0.64507 0.38919 0.10297 0.0
H540 H 0.70575 0.44303 0.0896 0.0
C541 C 0.67327 0.42213 0.98506 0.0
C542 C 0.65619 0.6165 0.03769 0.0
C543 C 0.70033 0.63008 0.04593 0.0
H544 H 0.59143 0.63581 0.01861 0.0
C545 C 0.71279 0.67461 0.04001 0.0
H546 H 0.64588 0.5821 0.04044 0.0
C547 C 0.68206 0.70493 0.02691 0.0
C548 C 0.63808 0.69154 0.0181 0.0
H549 H 0.74673 0.68592 0.04488 0.0
H550 H 0.69271 0.73923 0.02398 0.0
C551 C 0.62539 0.64691 0.02372 0.0
C552 C 0.5469 0.8766 0.90749 0.0
C553 C 0.53522 0.88823 0.95038 0.0
H554 H 0.54384 0.89316 0.83995 0.0
C555 C 0.51567 0.92915 0.95812 0.0
H556 H 0.56126 0.84509 0.90026 0.0
C557 C 0.50388 0.95549 0.92366 0.0
C558 C 0.51255 0.94239 0.88056 0.0
H559 H 0.50629 0.93925 0.99079 0.0
H560 H 0.48724 0.98583 0.93078 0.0
C561 C 0.53595 0.90367 0.87289 0.0
C562 C 0.1799 0.49318 0.93045 0.0
C563 C 0.20414 0.53343 0.92683 0.0
H564 H 0.12717 0.45089 0.90475 0.0
C565 C 0.19549 0.5605 0.89175 0.0
H566 H 0.18572 0.47171 0.95736 0.0
C567 C 0.16233 0.54873 0.86197 0.0
C568 C 0.13642 0.50958 0.86644 0.0
H569 H 0.21369 0.59156 0.88783 0.0
H570 H 0.15641 0.57123 0.83594 0.0
C571 C 0.14616 0.4814 0.90056 0.0
C572 C 0.49754 0.16165 0.8734 0.0
C573 C 0.52303 0.12392 0.869 0.0
H574 H 0.48322 0.21965 0.91119 0.0
C575 C 0.55376 0.11548 0.90146 0.0
H576 H 0.47294 0.16848 0.84916 0.0
C577 C 0.55846 0.14389 0.9379 0.0
C578 C 0.53326 0.18203 0.94226 0.0
H579 H 0.57277 0.08595 0.89964 0.0
H580 H 0.58246 0.13619 0.96241 0.0
C581 C 0.50278 0.19051 0.9094 0.0
C582 C 0.94135 0.5532 0.89597 0.0
C583 C 0.93718 0.52927 0.85639 0.0
H584 H 0.91185 0.5676 0.95812 0.0
C585 C 0.89667 0.50756 0.84619 0.0
H586 H 0.97236 0.56982 0.90481 0.0
C587 C 0.86282 0.50525 0.87673 0.0
C588 C 0.86824 0.5258 0.91775 0.0
H589 H 0.89203 0.48987 0.81554 0.0
H590 H 0.83335 0.48528 0.86919 0.0
C591 C 0.90681 0.55177 0.92643 0.0
C592 C 0.56018 0.17737 0.204 0.0
C593 C 0.52792 0.14316 0.19819 0.0
H594 H 0.59421 0.23305 0.1764 0.0
C595 C 0.5003 0.1435 0.16146 0.0
H596 H 0.58193 0.17847 0.23201 0.0
C597 C 0.50686 0.17585 0.12988 0.0
C598 C 0.54165 0.20762 0.13429 0.0
H599 H 0.47522 0.11764 0.15604 0.0
H600 H 0.48678 0.17413 0.10069 0.0
C601 C 0.56734 0.2088 0.17218 0.0
C602 C 0.9281 0.55321 0.17287 0.0
C603 C 0.9513 0.51461 0.17987 0.0
H604 H 0.88005 0.58477 0.13392 0.0
C605 C 0.95261 0.48295 0.1461 0.0
H606 H 0.93098 0.58081 0.19563 0.0
C607 C 0.92818 0.48783 0.10819 0.0
C608 C 0.89892 0.52275 0.10436 0.0
H609 H 0.97238 0.45415 0.14902 0.0
H610 H 0.92976 0.46196 0.08338 0.0
C611 C 0.9005 0.55644 0.13648 0.0
C612 C 0.57396 0.8837 0.1451 0.0
C613 C 0.53022 0.87151 0.13339 0.0
H614 H 0.61637 0.92726 0.18444 0.0
C615 C 0.49577 0.89557 0.15148 0.0
H616 H 0.60125 0.86626 0.13115 0.0
C617 C 0.50447 0.93023 0.18093 0.0
C618 C 0.54771 0.94137 0.19395 0.0
H619 H 0.46173 0.88797 0.14271 0.0
H620 H 0.47703 0.94812 0.19406 0.0
C621 C 0.58268 0.91865 0.17519 0.0
C622 C 0.145 0.56723 0.11366 0.0
C623 C 0.18556 0.54639 0.11667 0.0
H624 H 0.0869 0.58802 0.14623 0.0
C625 C 0.19753 0.52906 0.15686 0.0
H626 H 0.13468 0.58119 0.08335 0.0
C627 C 0.16999 0.53331 0.19324 0.0
C628 C 0.1301 0.5553 0.19035 0.0
H629 H 0.22877 0.51346 0.16061 0.0
H630 H 0.1799 0.51921 0.22363 0.0
C631 C 0.11792 0.57201 0.15004 0.0
C632 C 0.86585 0.89891 0.54698 0.0
C633 C 0.87848 0.94381 0.5513 0.0
H634 H 0.88514 0.83337 0.53105 0.0
C635 C 0.92202 0.95701 0.5408 0.0
H636 H 0.83223 0.88789 0.55359 0.0
C637 C 0.95217 0.92571 0.5261 0.0
C638 C 0.93922 0.88076 0.52193 0.0
H639 H 0.93223 0.99162 0.54226 0.0
H640 H 0.9858 0.93644 0.51926 0.0
C641 C 0.89584 0.86785 0.53292 0.0
C642 C 0.92336 0.17385 0.57036 0.0
C643 C 0.94234 0.19587 0.53488 0.0
H644 H 0.8723 0.12851 0.59226 0.0
C645 C 0.92902 0.18175 0.49269 0.0
H646 H 0.9346 0.18189 0.60314 0.0
C647 C 0.89681 0.14756 0.48636 0.0
C648 C 0.87364 0.1299 0.52185 0.0
H649 H 0.9443 0.1965 0.46445 0.0
H650 H 0.88896 0.13602 0.45356 0.0
C651 C 0.88791 0.14299 0.56405 0.0
C652 C 0.15288 0.89904 0.56902 0.0
C653 C 0.13112 0.87579 0.53475 0.0
H654 H 0.20568 0.94476 0.58779 0.0
C655 C 0.14126 0.88802 0.49183 0.0
H656 H 0.14423 0.89233 0.60245 0.0
C657 C 0.17324 0.92162 0.48355 0.0
C658 C 0.19896 0.94063 0.51758 0.0
H659 H 0.12374 0.87218 0.46462 0.0
H660 H 0.17894 0.93152 0.45038 0.0
C661 C 0.18781 0.92941 0.56055 0.0
C662 C 0.11729 0.14358 0.51805 0.0
C663 C 0.13085 0.1882 0.51364 0.0
H664 H 0.13623 0.07817 0.53486 0.0
C665 C 0.1744 0.20093 0.52497 0.0
H666 H 0.08357 0.13294 0.51093 0.0
C667 C 0.20377 0.17023 0.53976 0.0
C668 C 0.19064 0.12565 0.54421 0.0
H669 H 0.18576 0.23511 0.52292 0.0
H670 H 0.2374 0.1813 0.54687 0.0
C671 C 0.14696 0.11255 0.53323 0.0
loop_
_geom_bond_atom_site_label_1
_geom_bond_atom_site_label_2
_geom_bond_distance
_geom_bond_site_symmetry_2
_ccdc_geom_bond_type
Mn0 O5 2.095 . S
Mn0 O15 2.162 . S
Mn0 O16 2.297 . S
Mn0 O24 2.385 1_455 S
Mn0 O25 2.209 1_455 S
Mn0 O26 2.094 . S
Mn1 O6 2.121 . S
Mn1 N8 2.257 . S
Mn1 N17 2.282 . S
Mn1 O25 2.215 . S
Mn1 O27 2.117 . S
C2 O24 1.234 . S
C2 O25 1.283 . S
C3 O15 1.281 . S
C3 O16 1.236 . S
C4 O26 1.240 . S
C4 O27 1.264 1_455 S
O5 Mn0 2.095 . S
O5 C14 1.250 . S
O6 Mn1 2.121 . S
O6 C14 1.258 1_655 S
C7 N8 1.326 . S
C7 C11 1.460 . S
C7 H13 0.929 . S
N8 Mn1 2.257 . S
N8 C7 1.326 . S
N8 C12 1.362 . S
C9 C10 1.258 . S
C9 C12 1.431 . S
C9 C29 1.449 . S
C10 C9 1.258 . S
C10 C11 1.477 . S
C10 H30 0.931 . S
C11 C7 1.460 . S
C11 C10 1.477 . S
C11 H31 0.930 . S
C12 N8 1.362 . S
C12 C9 1.431 . S
C12 C22 1.476 . S
H13 C7 0.929 . S
C14 O5 1.250 . S
C14 O6 1.258 1_455 S
O15 Mn0 2.162 . S
O15 C3 1.281 . S
O16 Mn0 2.297 . S
O16 C3 1.236 . S
N17 Mn1 2.282 . S
N17 C18 1.328 . S
N17 C22 1.318 . S
C18 N17 1.328 . S
C18 C19 1.457 . S
C18 H23 0.929 . S
C19 C18 1.457 . S
C19 C20 1.291 . S
C19 H32 0.931 . S
C20 C19 1.291 . S
C20 C21 1.373 . S
C20 H33 0.929 . S
C21 C20 1.373 . S
C21 C22 1.396 . S
C21 C28 1.403 . S
C22 C12 1.476 . S
C22 N17 1.318 . S
C22 C21 1.396 . S
H23 C18 0.929 . S
O24 Mn0 2.385 1_655 S
O24 C2 1.234 . S
O25 Mn0 2.209 1_655 S
O25 Mn1 2.215 . S
O25 C2 1.283 . S
O26 Mn0 2.094 . S
O26 C4 1.240 . S
O27 Mn1 2.117 . S
O27 C4 1.264 1_655 S
C28 C21 1.403 . S
C28 C29 1.399 . S
C28 H34 0.929 . S
C29 C9 1.449 . S
C29 C28 1.399 . S
C29 H35 0.930 . S
H30 C10 0.931 . S
H31 C11 0.930 . S
H32 C19 0.931 . S
H33 C20 0.929 . S
H34 C28 0.929 . S
H35 C29 0.930 . S
Mn36 O41 2.095 . S
Mn36 O51 2.162 1_545 S
Mn36 O52 2.297 1_545 S
Mn36 O60 2.385 . S
Mn36 O61 2.209 . S
Mn36 O62 2.094 . S
Mn37 O42 2.121 . S
Mn37 N44 2.257 . S
Mn37 N53 2.282 . S
Mn37 O61 2.215 . S
Mn37 O63 2.117 . S
C38 O60 1.234 . S
C38 O61 1.283 . S
C39 O51 1.281 . S
C39 O52 1.236 . S
C40 O62 1.240 . S
C40 O63 1.264 . S
O41 Mn36 2.095 . S
O41 C50 1.250 . S
O42 Mn37 2.121 . S
O42 C50 1.258 . S
C43 N44 1.326 . S
C43 C47 1.460 . S
C43 H49 0.929 . S
N44 Mn37 2.257 . S
N44 C43 1.326 . S
N44 C48 1.362 . S
C45 C46 1.258 . S
C45 C48 1.431 . S
C45 C65 1.449 . S
C46 C45 1.258 . S
C46 C47 1.477 . S
C46 H66 0.931 . S
C47 C43 1.460 . S
C47 C46 1.477 . S
C47 H67 0.930 . S
C48 N44 1.362 . S
C48 C45 1.431 . S
C48 C58 1.476 . S
H49 C43 0.929 . S
C50 O41 1.250 . S
C50 O42 1.258 . S
O51 Mn36 2.162 1_565 S
O51 C39 1.281 . S
O52 Mn36 2.297 1_565 S
O52 C39 1.236 . S
N53 Mn37 2.282 . S
N53 C54 1.328 . S
N53 C58 1.318 . S
C54 N53 1.328 . S
C54 C55 1.457 . S
C54 H59 0.929 . S
C55 C54 1.457 . S
C55 C56 1.291 . S
C55 H68 0.931 . S
C56 C55 1.291 . S
C56 C57 1.373 . S
C56 H69 0.929 . S
C57 C56 1.373 . S
C57 C58 1.396 . S
C57 C64 1.403 . S
C58 C48 1.476 . S
C58 N53 1.318 . S
C58 C57 1.396 . S
H59 C54 0.929 . S
O60 Mn36 2.385 . S
O60 C38 1.234 . S
O61 Mn36 2.209 . S
O61 Mn37 2.215 . S
O61 C38 1.283 . S
O62 Mn36 2.094 . S
O62 C40 1.240 . S
O63 Mn37 2.117 . S
O63 C40 1.264 . S
C64 C57 1.403 . S
C64 C65 1.399 . S
C64 H70 0.929 . S
C65 C45 1.449 . S
C65 C64 1.399 . S
C65 H71 0.930 . S
H66 C46 0.931 . S
H67 C47 0.930 . S
H68 C55 0.931 . S
H69 C56 0.929 . S
H70 C64 0.929 . S
H71 C65 0.930 . S
Mn72 O77 2.095 . S
Mn72 O87 2.162 1_455 S
Mn72 O88 2.297 1_455 S
Mn72 O96 2.385 . S
Mn72 O97 2.209 . S
Mn72 O98 2.094 . S
Mn73 O78 2.121 . S
Mn73 N80 2.257 . S
Mn73 N89 2.282 . S
Mn73 O97 2.215 . S
Mn73 O99 2.117 . S
C74 O96 1.234 . S
C74 O97 1.283 . S
C75 O87 1.281 . S
C75 O88 1.236 . S
C76 O98 1.240 . S
C76 O99 1.264 . S
O77 Mn72 2.095 . S
O77 C86 1.250 . S
O78 Mn73 2.121 . S
O78 C86 1.258 . S
C79 N80 1.326 . S
C79 C83 1.460 . S
C79 H85 0.929 . S
N80 Mn73 2.257 . S
N80 C79 1.326 . S
N80 C84 1.362 . S
C81 C82 1.258 . S
C81 C84 1.431 . S
C81 C101 1.449 . S
C82 C81 1.258 . S
C82 C83 1.477 . S
C82 H102 0.931 . S
C83 C79 1.460 . S
C83 C82 1.477 . S
C83 H103 0.930 . S
C84 N80 1.362 . S
C84 C81 1.431 . S
C84 C94 1.476 . S
H85 C79 0.929 . S
C86 O77 1.250 . S
C86 O78 1.258 . S
O87 Mn72 2.162 1_655 S
O87 C75 1.281 . S
O88 Mn72 2.297 1_655 S
O88 C75 1.236 . S
N89 Mn73 2.282 . S
N89 C90 1.328 . S
N89 C94 1.318 . S
C90 N89 1.328 . S
C90 C91 1.457 . S
C90 H95 0.929 . S
C91 C90 1.457 . S
C91 C92 1.291 . S
C91 H104 0.931 . S
C92 C91 1.291 . S
C92 C93 1.373 . S
C92 H105 0.929 . S
C93 C92 1.373 . S
C93 C94 1.396 . S
C93 C100 1.403 . S
C94 C84 1.476 . S
C94 N89 1.318 . S
C94 C93 1.396 . S
H95 C90 0.929 . S
O96 Mn72 2.385 . S
O96 C74 1.234 . S
O97 Mn72 2.209 . S
O97 Mn73 2.215 . S
O97 C74 1.283 . S
O98 Mn72 2.094 . S
O98 C76 1.240 . S
O99 Mn73 2.117 . S
O99 C76 1.264 . S
C100 C93 1.403 . S
C100 C101 1.399 . S
C100 H106 0.929 . S
C101 C81 1.449 . S
C101 C100 1.399 . S
C101 H107 0.930 . S
H102 C82 0.931 . S
H103 C83 0.930 . S
H104 C91 0.931 . S
H105 C92 0.929 . S
H106 C100 0.929 . S
H107 C101 0.930 . S
Mn108 O113 2.095 . S
Mn108 O123 2.162 . S
Mn108 O124 2.297 . S
Mn108 O132 2.385 1_545 S
Mn108 O133 2.209 1_545 S
Mn108 O134 2.094 . S
Mn109 O114 2.121 . S
Mn109 N116 2.257 . S
Mn109 N125 2.282 . S
Mn109 O133 2.215 . S
Mn109 O135 2.117 . S
C110 O132 1.234 . S
C110 O133 1.283 . S
C111 O123 1.281 . S
C111 O124 1.236 . S
C112 O134 1.240 . S
C112 O135 1.264 1_545 S
O113 Mn108 2.095 . S
O113 C122 1.250 . S
O114 Mn109 2.121 . S
O114 C122 1.258 1_565 S
C115 N116 1.326 . S
C115 C119 1.460 . S
C115 H121 0.929 . S
N116 Mn109 2.257 . S
N116 C115 1.326 . S
N116 C120 1.362 . S
C117 C118 1.258 . S
C117 C120 1.431 . S
C117 C137 1.449 . S
C118 C117 1.258 . S
C118 C119 1.477 . S
C118 H138 0.931 . S
C119 C115 1.460 . S
C119 C118 1.477 . S
C119 H139 0.930 . S
C120 N116 1.362 . S
C120 C117 1.431 . S
C120 C130 1.476 . S
H121 C115 0.929 . S
C122 O113 1.250 . S
C122 O114 1.258 1_545 S
O123 Mn108 2.162 . S
O123 C111 1.281 . S
O124 Mn108 2.297 . S
O124 C111 1.236 . S
N125 Mn109 2.282 . S
N125 C126 1.328 . S
N125 C130 1.318 . S
C126 N125 1.328 . S
C126 C127 1.457 . S
C126 H131 0.929 . S
C127 C126 1.457 . S
C127 C128 1.291 . S
C127 H140 0.931 . S
C128 C127 1.291 . S
C128 C129 1.373 . S
C128 H141 0.929 . S
C129 C128 1.373 . S
C129 C130 1.396 . S
C129 C136 1.403 . S
C130 C120 1.476 . S
C130 N125 1.318 . S
C130 C129 1.396 . S
H131 C126 0.929 . S
O132 Mn108 2.385 1_565 S
O132 C110 1.234 . S
O133 Mn108 2.209 1_565 S
O133 Mn109 2.215 . S
O133 C110 1.283 . S
O134 Mn108 2.094 . S
O134 C112 1.240 . S
O135 Mn109 2.117 . S
O135 C112 1.264 1_565 S
C136 C129 1.403 . S
C136 C137 1.399 . S
C136 H142 0.929 . S
C137 C117 1.449 . S
C137 C136 1.399 . S
C137 H143 0.930 . S
H138 C118 0.931 . S
H139 C119 0.930 . S
H140 C127 0.931 . S
H141 C128 0.929 . S
H142 C136 0.929 . S
H143 C137 0.930 . S
Mn144 O149 2.095 . S
Mn144 O159 2.162 . S
Mn144 O160 2.297 . S
Mn144 O168 2.385 1_545 S
Mn144 O169 2.209 1_545 S
Mn144 O170 2.094 . S
Mn145 O150 2.121 . S
Mn145 N152 2.257 . S
Mn145 N161 2.282 . S
Mn145 O169 2.215 . S
Mn145 O171 2.117 . S
C146 O168 1.234 . S
C146 O169 1.283 . S
C147 O159 1.281 . S
C147 O160 1.236 . S
C148 O170 1.240 . S
C148 O171 1.264 1_545 S
O149 Mn144 2.095 . S
O149 C158 1.250 . S
O150 Mn145 2.121 . S
O150 C158 1.258 1_565 S
C151 N152 1.326 . S
C151 C155 1.460 . S
C151 H157 0.929 . S
N152 Mn145 2.257 . S
N152 C151 1.326 . S
N152 C156 1.362 . S
C153 C154 1.258 . S
C153 C156 1.431 . S
C153 C173 1.449 . S
C154 C153 1.258 . S
C154 C155 1.477 . S
C154 H174 0.931 . S
C155 C151 1.460 . S
C155 C154 1.477 . S
C155 H175 0.930 . S
C156 N152 1.362 . S
C156 C153 1.431 . S
C156 C166 1.476 . S
H157 C151 0.929 . S
C158 O149 1.250 . S
C158 O150 1.258 1_545 S
O159 Mn144 2.162 . S
O159 C147 1.281 . S
O160 Mn144 2.297 . S
O160 C147 1.236 . S
N161 Mn145 2.282 . S
N161 C162 1.328 . S
N161 C166 1.318 . S
C162 N161 1.328 . S
C162 C163 1.457 . S
C162 H167 0.929 . S
C163 C162 1.457 . S
C163 C164 1.291 . S
C163 H176 0.931 . S
C164 C163 1.291 . S
C164 C165 1.373 . S
C164 H177 0.929 . S
C165 C164 1.373 . S
C165 C166 1.396 . S
C165 C172 1.403 . S
C166 C156 1.476 . S
C166 N161 1.318 . S
C166 C165 1.396 . S
H167 C162 0.929 . S
O168 Mn144 2.385 1_565 S
O168 C146 1.234 . S
O169 Mn144 2.209 1_565 S
O169 Mn145 2.215 . S
O169 C146 1.283 . S
O170 Mn144 2.094 . S
O170 C148 1.240 . S
O171 Mn145 2.117 . S
O171 C148 1.264 1_565 S
C172 C165 1.403 . S
C172 C173 1.399 . S
C172 H178 0.929 . S
C173 C153 1.449 . S
C173 C172 1.399 . S
C173 H179 0.930 . S
H174 C154 0.931 . S
H175 C155 0.930 . S
H176 C163 0.931 . S
H177 C164 0.929 . S
H178 C172 0.929 . S
H179 C173 0.930 . S
Mn180 O185 2.095 . S
Mn180 O195 2.162 . S
Mn180 O196 2.297 . S
Mn180 O204 2.385 1_455 S
Mn180 O205 2.209 1_455 S
Mn180 O206 2.094 . S
Mn181 O186 2.121 . S
Mn181 N188 2.257 . S
Mn181 N197 2.282 . S
Mn181 O205 2.215 . S
Mn181 O207 2.117 . S
C182 O204 1.234 . S
C182 O205 1.283 . S
C183 O195 1.281 . S
C183 O196 1.236 . S
C184 O206 1.240 . S
C184 O207 1.264 1_455 S
O185 Mn180 2.095 . S
O185 C194 1.250 . S
O186 Mn181 2.121 . S
O186 C194 1.258 1_655 S
C187 N188 1.326 . S
C187 C191 1.460 . S
C187 H193 0.929 . S
N188 Mn181 2.257 . S
N188 C187 1.326 . S
N188 C192 1.362 . S
C189 C190 1.258 . S
C189 C192 1.431 . S
C189 C209 1.449 . S
C190 C189 1.258 . S
C190 C191 1.477 . S
C190 H210 0.931 . S
C191 C187 1.460 . S
C191 C190 1.477 . S
C191 H211 0.930 . S
C192 N188 1.362 . S
C192 C189 1.431 . S
C192 C202 1.476 . S
H193 C187 0.929 . S
C194 O185 1.250 . S
C194 O186 1.258 1_455 S
O195 Mn180 2.162 . S
O195 C183 1.281 . S
O196 Mn180 2.297 . S
O196 C183 1.236 . S
N197 Mn181 2.282 . S
N197 C198 1.328 . S
N197 C202 1.318 . S
C198 N197 1.328 . S
C198 C199 1.457 . S
C198 H203 0.929 . S
C199 C198 1.457 . S
C199 C200 1.291 . S
C199 H212 0.931 . S
C200 C199 1.291 . S
C200 C201 1.373 . S
C200 H213 0.929 . S
C201 C200 1.373 . S
C201 C202 1.396 . S
C201 C208 1.403 . S
C202 C192 1.476 . S
C202 N197 1.318 . S
C202 C201 1.396 . S
H203 C198 0.929 . S
O204 Mn180 2.385 1_655 S
O204 C182 1.234 . S
O205 Mn180 2.209 1_655 S
O205 Mn181 2.215 . S
O205 C182 1.283 . S
O206 Mn180 2.094 . S
O206 C184 1.240 . S
O207 Mn181 2.117 . S
O207 C184 1.264 1_655 S
C208 C201 1.403 . S
C208 C209 1.399 . S
C208 H214 0.929 . S
C209 C189 1.449 . S
C209 C208 1.399 . S
C209 H215 0.930 . S
H210 C190 0.931 . S
H211 C191 0.930 . S
H212 C199 0.931 . S
H213 C200 0.929 . S
H214 C208 0.929 . S
H215 C209 0.930 . S
Mn216 O221 2.095 . S
Mn216 O231 2.162 . S
Mn216 O232 2.297 . S
Mn216 O240 2.385 1_545 S
Mn216 O241 2.209 . S
Mn216 O242 2.094 1_545 S
Mn217 O222 2.121 . S
Mn217 N224 2.257 . S
Mn217 N233 2.282 1_545 S
Mn217 O241 2.215 . S
Mn217 O243 2.117 1_545 S
C218 O240 1.234 1_545 S
C218 O241 1.283 . S
C219 O231 1.281 . S
C219 O232 1.236 . S
C220 O242 1.240 . S
C220 O243 1.264 . S
O221 Mn216 2.095 . S
O221 C230 1.250 . S
O222 Mn217 2.121 . S
O222 C230 1.258 . S
C223 N224 1.326 . S
C223 C227 1.460 . S
C223 H229 0.929 . S
N224 Mn217 2.257 . S
N224 C223 1.326 . S
N224 C228 1.362 . S
C225 C226 1.258 . S
C225 C228 1.431 . S
C225 C245 1.449 . S
C226 C225 1.258 . S
C226 C227 1.477 . S
C226 H246 0.931 . S
C227 C223 1.460 . S
C227 C226 1.477 . S
C227 H247 0.930 . S
C228 N224 1.362 . S
C228 C225 1.431 . S
C228 C238 1.476 . S
H229 C223 0.929 . S
C230 O221 1.250 . S
C230 O222 1.258 . S
O231 Mn216 2.162 . S
O231 C219 1.281 . S
O232 Mn216 2.297 . S
O232 C219 1.236 . S
N233 Mn217 2.282 1_565 S
N233 C234 1.328 . S
N233 C238 1.318 1_565 S
C234 N233 1.328 . S
C234 C235 1.457 . S
C234 H239 0.929 . S
C235 C234 1.457 . S
C235 C236 1.291 . S
C235 H248 0.931 . S
C236 C235 1.291 . S
C236 C237 1.373 . S
C236 H249 0.929 . S
C237 C236 1.373 . S
C237 C238 1.396 1_565 S
C237 C244 1.403 1_565 S
C238 C228 1.476 . S
C238 N233 1.318 1_545 S
C238 C237 1.396 1_545 S
H239 C234 0.929 . S
O240 Mn216 2.385 1_565 S
O240 C218 1.234 1_565 S
O241 Mn216 2.209 . S
O241 Mn217 2.215 . S
O241 C218 1.283 . S
O242 Mn216 2.094 1_565 S
O242 C220 1.240 . S
O243 Mn217 2.117 1_565 S
O243 C220 1.264 . S
C244 C237 1.403 1_545 S
C244 C245 1.399 . S
C244 H250 0.929 1_545 S
C245 C225 1.449 . S
C245 C244 1.399 . S
C245 H251 0.930 . S
H246 C226 0.931 . S
H247 C227 0.930 . S
H248 C235 0.931 . S
H249 C236 0.929 . S
H250 C244 0.929 1_565 S
H251 C245 0.930 . S
Mn252 O257 2.095 1_455 S
Mn252 O267 2.162 . S
Mn252 O268 2.297 1_455 S
Mn252 O276 2.385 . S
Mn252 O277 2.209 . S
Mn252 O278 2.094 . S
Mn253 O258 2.121 1_455 S
Mn253 N260 2.257 1_455 S
Mn253 N269 2.282 . S
Mn253 O277 2.215 . S
Mn253 O279 2.117 . S
C254 O276 1.234 . S
C254 O277 1.283 . S
C255 O267 1.281 . S
C255 O268 1.236 1_455 S
C256 O278 1.240 . S
C256 O279 1.264 . S
O257 Mn252 2.095 1_655 S
O257 C266 1.250 . S
O258 Mn253 2.121 1_655 S
O258 C266 1.258 . S
C259 N260 1.326 . S
C259 C263 1.460 . S
C259 H265 0.929 . S
N260 Mn253 2.257 1_655 S
N260 C259 1.326 . S
N260 C264 1.362 . S
C261 C262 1.258 . S
C261 C264 1.431 . S
C261 C281 1.449 . S
C262 C261 1.258 . S
C262 C263 1.477 . S
C262 H282 0.931 . S
C263 C259 1.460 . S
C263 C262 1.477 . S
C263 H283 0.930 . S
C264 N260 1.362 . S
C264 C261 1.431 . S
C264 C274 1.476 1_655 S
H265 C259 0.929 . S
C266 O257 1.250 . S
C266 O258 1.258 . S
O267 Mn252 2.162 . S
O267 C255 1.281 . S
O268 Mn252 2.297 1_655 S
O268 C255 1.236 1_655 S
N269 Mn253 2.282 . S
N269 C270 1.328 . S
N269 C274 1.318 . S
C270 N269 1.328 . S
C270 C271 1.457 . S
C270 H275 0.929 . S
C271 C270 1.457 . S
C271 C272 1.291 . S
C271 H284 0.931 . S
C272 C271 1.291 . S
C272 C273 1.373 . S
C272 H285 0.929 . S
C273 C272 1.373 . S
C273 C274 1.396 . S
C273 C280 1.403 . S
C274 C264 1.476 1_455 S
C274 N269 1.318 . S
C274 C273 1.396 . S
H275 C270 0.929 . S
O276 Mn252 2.385 . S
O276 C254 1.234 . S
O277 Mn252 2.209 . S
O277 Mn253 2.215 . S
O277 C254 1.283 . S
O278 Mn252 2.094 . S
O278 C256 1.240 . S
O279 Mn253 2.117 . S
O279 C256 1.264 . S
C280 C273 1.403 . S
C280 C281 1.399 1_455 S
C280 H286 0.929 . S
C281 C261 1.449 . S
C281 C280 1.399 1_655 S
C281 H287 0.930 . S
H282 C262 0.931 . S
H283 C263 0.930 . S
H284 C271 0.931 . S
H285 C272 0.929 . S
H286 C280 0.929 . S
H287 C281 0.930 . S
Mn288 O293 2.095 . S
Mn288 O303 2.162 1_554 S
Mn288 O304 2.297 . S
Mn288 O312 2.385 1_554 S
Mn288 O313 2.209 . S
Mn288 O314 2.094 1_554 S
Mn289 O294 2.121 . S
Mn289 N296 2.257 . S
Mn289 N305 2.282 1_554 S
Mn289 O313 2.215 . S
Mn289 O315 2.117 1_554 S
C290 O312 1.234 1_554 S
C290 O313 1.283 . S
C291 O303 1.281 1_554 S
C291 O304 1.236 . S
C292 O314 1.240 . S
C292 O315 1.264 . S
O293 Mn288 2.095 . S
O293 C302 1.250 . S
O294 Mn289 2.121 . S
O294 C302 1.258 . S
C295 N296 1.326 . S
C295 C299 1.460 . S
C295 H301 0.929 . S
N296 Mn289 2.257 . S
N296 C295 1.326 . S
N296 C300 1.362 . S
C297 C298 1.258 . S
C297 C300 1.431 . S
C297 C317 1.449 . S
C298 C297 1.258 . S
C298 C299 1.477 . S
C298 H318 0.931 . S
C299 C295 1.460 . S
C299 C298 1.477 . S
C299 H319 0.930 . S
C300 N296 1.362 . S
C300 C297 1.431 . S
C300 C310 1.476 . S
H301 C295 0.929 . S
C302 O293 1.250 . S
C302 O294 1.258 . S
O303 Mn288 2.162 1_556 S
O303 C291 1.281 1_556 S
O304 Mn288 2.297 . S
O304 C291 1.236 . S
N305 Mn289 2.282 1_556 S
N305 C306 1.328 . S
N305 C310 1.318 1_556 S
C306 N305 1.328 . S
C306 C307 1.457 . S
C306 H311 0.929 . S
C307 C306 1.457 . S
C307 C308 1.291 . S
C307 H320 0.931 . S
C308 C307 1.291 . S
C308 C309 1.373 . S
C308 H321 0.929 . S
C309 C308 1.373 . S
C309 C310 1.396 1_556 S
C309 C316 1.403 1_556 S
C310 C300 1.476 . S
C310 N305 1.318 1_554 S
C310 C309 1.396 1_554 S
H311 C306 0.929 . S
O312 Mn288 2.385 1_556 S
O312 C290 1.234 1_556 S
O313 Mn288 2.209 . S
O313 Mn289 2.215 . S
O313 C290 1.283 . S
O314 Mn288 2.094 1_556 S
O314 C292 1.240 . S
O315 Mn289 2.117 1_556 S
O315 C292 1.264 . S
C316 C309 1.403 1_554 S
C316 C317 1.399 . S
C316 H322 0.929 . S
C317 C297 1.449 . S
C317 C316 1.399 . S
C317 H323 0.930 . S
H318 C298 0.931 . S
H319 C299 0.930 . S
H320 C307 0.931 . S
H321 C308 0.929 . S
H322 C316 0.929 . S
H323 C317 0.930 . S
Mn324 O329 2.095 1_554 S
Mn324 O339 2.162 . S
Mn324 O340 2.297 1_554 S
Mn324 O348 2.385 . S
Mn324 O349 2.209 1_554 S
Mn324 O350 2.094 . S
Mn325 O330 2.121 . S
Mn325 N332 2.257 . S
Mn325 N341 2.282 1_556 S
Mn325 O349 2.215 . S
Mn325 O351 2.117 1_556 S
C326 O348 1.234 . S
C326 O349 1.283 1_554 S
C327 O339 1.281 1_556 S
C327 O340 1.236 . S
C328 O350 1.240 . S
C328 O351 1.264 . S
O329 Mn324 2.095 1_556 S
O329 C338 1.250 . S
O330 Mn325 2.121 . S
O330 C338 1.258 . S
C331 N332 1.326 . S
C331 C335 1.460 . S
C331 H337 0.929 . S
N332 Mn325 2.257 . S
N332 C331 1.326 . S
N332 C336 1.362 . S
C333 C334 1.258 . S
C333 C336 1.431 . S
C333 C353 1.449 . S
C334 C333 1.258 . S
C334 C335 1.477 . S
C334 H354 0.931 . S
C335 C331 1.460 . S
C335 C334 1.477 . S
C335 H355 0.930 . S
C336 N332 1.362 . S
C336 C333 1.431 . S
C336 C346 1.476 1_556 S
H337 C331 0.929 . S
C338 O329 1.250 . S
C338 O330 1.258 . S
O339 Mn324 2.162 . S
O339 C327 1.281 1_554 S
O340 Mn324 2.297 1_556 S
O340 C327 1.236 . S
N341 Mn325 2.282 1_554 S
N341 C342 1.328 . S
N341 C346 1.318 . S
C342 N341 1.328 . S
C342 C343 1.457 . S
C342 H347 0.929 . S
C343 C342 1.457 . S
C343 C344 1.291 . S
C343 H356 0.931 . S
C344 C343 1.291 . S
C344 C345 1.373 . S
C344 H357 0.929 . S
C345 C344 1.373 . S
C345 C346 1.396 . S
C345 C352 1.403 . S
C346 C336 1.476 1_554 S
C346 N341 1.318 . S
C346 C345 1.396 . S
H347 C342 0.929 . S
O348 Mn324 2.385 . S
O348 C326 1.234 . S
O349 Mn324 2.209 1_556 S
O349 Mn325 2.215 . S
O349 C326 1.283 1_556 S
O350 Mn324 2.094 . S
O350 C328 1.240 . S
O351 Mn325 2.117 1_554 S
O351 C328 1.264 . S
C352 C345 1.403 . S
C352 C353 1.399 1_554 S
C352 H358 0.929 . S
C353 C333 1.449 . S
C353 C352 1.399 1_556 S
C353 H359 0.930 . S
H354 C334 0.931 . S
H355 C335 0.930 . S
H356 C343 0.931 . S
H357 C344 0.929 . S
H358 C352 0.929 . S
H359 C353 0.930 . S
Mn360 O365 2.095 . S
Mn360 O375 2.159 1_554 S
Mn360 O376 2.297 . S
Mn360 O384 2.385 1_554 S
Mn360 O385 2.209 . S
Mn360 O386 2.094 1_554 S
Mn361 O366 2.121 . S
Mn361 N368 2.257 . S
Mn361 N377 2.282 1_554 S
Mn361 O385 2.215 . S
Mn361 O387 2.117 1_554 S
C362 O384 1.234 1_554 S
C362 O385 1.283 . S
C363 O375 1.265 1_554 S
C363 O376 1.236 . S
C364 O386 1.240 . S
C364 O387 1.264 . S
O365 Mn360 2.095 . S
O365 C374 1.250 . S
O366 Mn361 2.121 . S
O366 C374 1.258 . S
C367 N368 1.326 . S
C367 C371 1.460 . S
C367 H373 0.929 . S
N368 Mn361 2.257 . S
N368 C367 1.326 . S
N368 C372 1.362 . S
C369 C370 1.258 . S
C369 C372 1.431 . S
C369 C389 1.449 . S
C370 C369 1.258 . S
C370 C371 1.477 . S
C370 H390 0.931 . S
C371 C367 1.460 . S
C371 C370 1.477 . S
C371 H391 0.930 . S
C372 N368 1.362 . S
C372 C369 1.431 . S
C372 C382 1.476 . S
H373 C367 0.929 . S
C374 O365 1.250 . S
C374 O366 1.258 . S
O375 Mn360 2.159 1_556 S
O375 C363 1.265 1_556 S
O376 Mn360 2.297 . S
O376 C363 1.236 . S
N377 Mn361 2.282 1_556 S
N377 C378 1.328 . S
N377 C382 1.318 1_556 S
C378 N377 1.328 . S
C378 C379 1.457 . S
C378 H383 0.929 . S
C379 C378 1.457 . S
C379 C380 1.291 . S
C379 H392 0.931 . S
C380 C379 1.291 . S
C380 C381 1.373 . S
C380 H393 0.929 . S
C381 C380 1.373 . S
C381 C382 1.396 1_556 S
C381 C388 1.403 1_556 S
C382 C372 1.476 . S
C382 N377 1.318 1_554 S
C382 C381 1.396 1_554 S
H383 C378 0.929 . S
O384 Mn360 2.385 1_556 S
O384 C362 1.234 1_556 S
O385 Mn360 2.209 . S
O385 Mn361 2.215 . S
O385 C362 1.283 . S
O386 Mn360 2.094 1_556 S
O386 C364 1.240 . S
O387 Mn361 2.117 1_556 S
O387 C364 1.264 . S
C388 C381 1.403 1_554 S
C388 C389 1.399 . S
C388 H394 0.929 1_554 S
C389 C369 1.449 . S
C389 C388 1.399 . S
C389 H395 0.930 . S
H390 C370 0.931 . S
H391 C371 0.930 . S
H392 C379 0.931 . S
H393 C380 0.929 . S
H394 C388 0.929 1_556 S
H395 C389 0.930 . S
Mn396 O401 2.095 1_554 S
Mn396 O411 2.162 . S
Mn396 O412 2.297 1_554 S
Mn396 O420 2.385 . S
Mn396 O421 2.209 . S
Mn396 O422 2.094 . S
Mn397 O402 2.121 1_554 S
Mn397 N404 2.257 1_554 S
Mn397 N413 2.282 . S
Mn397 O421 2.215 . S
Mn397 O423 2.117 . S
C398 O420 1.234 . S
C398 O421 1.283 . S
C399 O411 1.281 . S
C399 O412 1.236 1_554 S
C400 O422 1.240 . S
C400 O423 1.264 . S
O401 Mn396 2.095 1_556 S
O401 C410 1.250 . S
O402 Mn397 2.121 1_556 S
O402 C410 1.258 . S
C403 N404 1.326 . S
C403 C407 1.460 . S
C403 H409 0.929 . S
N404 Mn397 2.257 1_556 S
N404 C403 1.326 . S
N404 C408 1.362 . S
C405 C406 1.258 . S
C405 C408 1.431 . S
C405 C425 1.449 . S
C406 C405 1.258 . S
C406 C407 1.477 . S
C406 H426 0.931 . S
C407 C403 1.460 . S
C407 C406 1.477 . S
C407 H427 0.930 . S
C408 N404 1.362 . S
C408 C405 1.431 . S
C408 C418 1.476 1_556 S
H409 C403 0.929 . S
C410 O401 1.250 . S
C410 O402 1.258 . S
O411 Mn396 2.162 . S
O411 C399 1.281 . S
O412 Mn396 2.297 1_556 S
O412 C399 1.236 1_556 S
N413 Mn397 2.282 . S
N413 C414 1.328 . S
N413 C418 1.318 . S
C414 N413 1.328 . S
C414 C415 1.457 . S
C414 H419 0.929 . S
C415 C414 1.457 . S
C415 C416 1.291 . S
C415 H428 0.931 . S
C416 C415 1.291 . S
C416 C417 1.373 . S
C416 H429 0.929 . S
C417 C416 1.373 . S
C417 C418 1.396 . S
C417 C424 1.403 . S
C418 C408 1.476 1_554 S
C418 N413 1.318 . S
C418 C417 1.396 . S
H419 C414 0.929 . S
O420 Mn396 2.385 . S
O420 C398 1.234 . S
O421 Mn396 2.209 . S
O421 Mn397 2.215 . S
O421 C398 1.283 . S
O422 Mn396 2.094 . S
O422 C400 1.240 . S
O423 Mn397 2.117 . S
O423 C400 1.264 . S
C424 C417 1.403 . S
C424 C425 1.399 1_554 S
C424 H430 0.929 . S
C425 C405 1.449 . S
C425 C424 1.399 1_556 S
C425 H431 0.930 . S
H426 C406 0.931 . S
H427 C407 0.930 . S
H428 C415 0.931 . S
H429 C416 0.929 . S
H430 C424 0.929 . S
H431 C425 0.930 . S
C432 C433 1.387 . S
C432 H436 0.950 . S
C432 C441 1.390 . S
C433 C432 1.387 . S
C433 C435 1.387 1_455 S
H434 C441 0.950 . S
C435 C433 1.387 1_655 S
C435 C437 1.390 . S
C435 H439 0.950 . S
H436 C432 0.950 . S
C437 C435 1.390 . S
C437 C438 1.387 1_655 S
C437 H440 0.950 . S
C438 C437 1.387 1_455 S
C438 C441 1.387 . S
H439 C435 0.950 . S
H440 C437 0.950 . S
C441 C432 1.390 . S
C441 H434 0.950 . S
C441 C438 1.387 . S
C442 C443 1.387 . S
C442 H446 0.950 . S
C442 C451 1.390 . S
C443 C442 1.387 . S
C443 C445 1.387 . S
H444 C451 0.950 . S
C445 C443 1.387 . S
C445 C447 1.390 . S
C445 H449 0.947 1_545 S
H446 C442 0.950 . S
C447 C445 1.390 . S
C447 C448 1.387 . S
C447 H450 0.950 1_545 S
C448 C447 1.387 . S
C448 C451 1.387 . S
H449 C445 0.947 1_565 S
H450 C447 0.950 1_565 S
C451 C442 1.390 . S
C451 H444 0.950 . S
C451 C448 1.387 . S
C452 C453 1.387 . S
C452 H456 0.950 . S
C452 C461 1.390 . S
C453 C452 1.387 . S
C453 C455 1.387 1_455 S
H454 C461 0.950 . S
C455 C453 1.387 1_655 S
C455 C457 1.390 . S
C455 H459 0.950 . S
H456 C452 0.950 . S
C457 C455 1.390 . S
C457 C458 1.387 1_655 S
C457 H460 0.950 . S
C458 C457 1.387 1_455 S
C458 C461 1.387 . S
H459 C455 0.950 . S
H460 C457 0.950 . S
C461 C452 1.390 . S
C461 H454 0.950 . S
C461 C458 1.387 . S
C462 C463 1.387 . S
C462 H466 0.950 . S
C462 C471 1.390 . S
C463 C462 1.387 . S
C463 C465 1.387 1_545 S
H464 C471 0.950 . S
C465 C463 1.387 1_565 S
C465 C467 1.390 . S
C465 H469 0.950 . S
H466 C462 0.950 . S
C467 C465 1.390 . S
C467 C468 1.387 1_565 S
C467 H470 0.950 . S
C468 C467 1.387 1_545 S
C468 C471 1.387 . S
H469 C465 0.950 . S
H470 C467 0.950 . S
C471 C462 1.390 . S
C471 H464 0.950 . S
C471 C468 1.387 . S
C472 C473 1.387 1_655 S
C472 H476 0.950 . S
C472 C481 1.390 . S
C473 C472 1.387 1_455 S
C473 C475 1.387 . S
H474 C481 0.950 . S
C475 C473 1.387 . S
C475 C477 1.390 . S
C475 H479 0.950 . S
H476 C472 0.950 . S
C477 C475 1.390 . S
C477 C478 1.387 . S
C477 H480 0.950 . S
C478 C477 1.387 . S
C478 C481 1.387 1_455 S
H479 C475 0.950 . S
H480 C477 0.950 . S
C481 C472 1.390 . S
C481 H474 0.950 . S
C481 C478 1.387 1_655 S
C482 C483 1.387 . S
C482 H486 0.950 . S
C482 C491 1.390 . S
C483 C482 1.387 . S
C483 C485 1.387 1_545 S
H484 C491 0.950 . S
C485 C483 1.387 1_565 S
C485 C487 1.390 . S
C485 H489 0.950 . S
H486 C482 0.950 . S
C487 C485 1.390 . S
C487 C488 1.387 1_565 S
C487 H490 0.950 . S
C488 C487 1.387 1_545 S
C488 C491 1.387 . S
H489 C485 0.950 . S
H490 C487 0.950 . S
C491 C482 1.390 . S
C491 H484 0.950 . S
C491 C488 1.387 . S
C492 C493 1.387 . S
C492 H496 0.950 . S
C492 C501 1.390 . S
C493 C492 1.387 . S
C493 C495 1.387 1_455 S
H494 C501 0.950 . S
C495 C493 1.387 1_655 S
C495 C497 1.390 . S
C495 H499 0.950 . S
H496 C492 0.950 . S
C497 C495 1.390 . S
C497 C498 1.387 1_655 S
C497 H500 0.950 . S
C498 C497 1.387 1_455 S
C498 C501 1.387 . S
H499 C495 0.950 . S
H500 C497 0.950 . S
C501 C492 1.390 . S
C501 H494 0.950 . S
C501 C498 1.387 . S
C502 C503 1.387 1_565 S
C502 H506 0.950 . S
C502 C511 1.390 . S
C503 C502 1.387 1_545 S
C503 C505 1.387 . S
H504 C511 0.950 . S
C505 C503 1.387 . S
C505 C507 1.390 . S
C505 H509 0.950 . S
H506 C502 0.950 . S
C507 C505 1.390 . S
C507 C508 1.387 . S
C507 H510 0.950 . S
C508 C507 1.387 . S
C508 C511 1.387 1_545 S
H509 C505 0.950 . S
H510 C507 0.950 . S
C511 C502 1.390 . S
C511 H504 0.950 . S
C511 C508 1.387 1_565 S
C512 C513 1.369 1_554 S
C512 H516 0.950 . S
C512 C521 1.390 . S
C513 C512 1.369 1_556 S
C513 C515 1.400 . S
H514 C521 0.950 . S
C515 C513 1.400 . S
C515 C517 1.390 . S
C515 H519 0.950 . S
H516 C512 0.950 . S
C517 C515 1.390 . S
C517 C518 1.387 1_556 S
C517 H520 0.950 . S
C518 C517 1.387 1_554 S
C518 C521 1.387 . S
H519 C515 0.950 . S
H520 C517 0.950 . S
C521 C512 1.390 . S
C521 H514 0.950 . S
C521 C518 1.387 . S
C522 C523 1.387 . S
C522 H526 0.950 . S
C522 C531 1.390 . S
C523 C522 1.387 . S
C523 C525 1.387 . S
H524 C531 0.950 . S
C525 C523 1.387 . S
C525 C527 1.390 . S
C525 H529 0.950 . S
H526 C522 0.950 . S
C527 C525 1.390 . S
C527 C528 1.387 . S
C527 H530 0.950 . S
C528 C527 1.387 . S
C528 C531 1.387 . S
H529 C525 0.950 . S
H530 C527 0.950 . S
C531 C522 1.390 . S
C531 H524 0.950 . S
C531 C528 1.387 . S
C532 C533 1.387 1_556 S
C532 H536 0.950 . S
C532 C541 1.390 . S
C533 C532 1.387 1_554 S
C533 C535 1.387 . S
H534 C541 0.950 . S
C535 C533 1.387 . S
C535 C537 1.390 . S
C535 H539 0.950 . S
H536 C532 0.950 . S
C537 C535 1.390 . S
C537 C538 1.387 . S
C537 H540 0.950 . S
C538 C537 1.387 . S
C538 C541 1.387 1_554 S
H539 C535 0.950 . S
H540 C537 0.950 . S
C541 C532 1.390 . S
C541 H534 0.950 . S
C541 C538 1.387 1_556 S
C542 C543 1.387 1_556 S
C542 H546 0.950 . S
C542 C551 1.390 . S
C543 C542 1.387 1_554 S
C543 C545 1.387 . S
H544 C551 0.950 . S
C545 C543 1.387 . S
C545 C547 1.390 . S
C545 H549 0.950 . S
H546 C542 0.950 . S
C547 C545 1.390 . S
C547 C548 1.387 . S
C547 H550 0.950 . S
C548 C547 1.387 . S
C548 C551 1.387 1_554 S
H549 C545 0.950 . S
H550 C547 0.950 . S
C551 C542 1.390 . S
C551 H544 0.950 . S
C551 C548 1.387 1_556 S
C552 C553 1.387 . S
C552 H556 0.950 . S
C552 C561 1.390 . S
C553 C552 1.387 . S
C553 C555 1.387 . S
H554 C561 0.950 . S
C555 C553 1.387 . S
C555 C557 1.390 . S
C555 H559 0.950 . S
H556 C552 0.950 . S
C557 C555 1.390 . S
C557 C558 1.387 . S
C557 H560 0.950 . S
C558 C557 1.387 . S
C558 C561 1.387 . S
H559 C555 0.950 . S
H560 C557 0.950 . S
C561 C552 1.390 . S
C561 H554 0.950 . S
C561 C558 1.387 . S
C562 C563 1.387 . S
C562 H566 0.950 . S
C562 C571 1.390 . S
C563 C562 1.387 . S
C563 C565 1.387 . S
H564 C571 0.950 . S
C565 C563 1.387 . S
C565 C567 1.390 . S
C565 H569 0.950 . S
H566 C562 0.950 . S
C567 C565 1.390 . S
C567 C568 1.387 . S
C567 H570 0.950 . S
C568 C567 1.387 . S
C568 C571 1.387 . S
H569 C565 0.950 . S
H570 C567 0.950 . S
C571 C562 1.390 . S
C571 H564 0.950 . S
C571 C568 1.387 . S
C572 C573 1.387 . S
C572 H576 0.950 . S
C572 C581 1.390 . S
C573 C572 1.387 . S
C573 C575 1.387 . S
H574 C581 0.950 . S
C575 C573 1.387 . S
C575 C577 1.390 . S
C575 H579 0.950 . S
H576 C572 0.950 . S
C577 C575 1.390 . S
C577 C578 1.387 . S
C577 H580 0.950 . S
C578 C577 1.387 . S
C578 C581 1.387 . S
H579 C575 0.950 . S
H580 C577 0.950 . S
C581 C572 1.390 . S
C581 H574 0.950 . S
C581 C578 1.387 . S
C582 C583 1.387 . S
C582 H586 0.950 . S
C582 C591 1.390 . S
C583 C582 1.387 . S
C583 C585 1.387 . S
H584 C591 0.950 . S
C585 C583 1.387 . S
C585 C587 1.390 . S
C585 H589 0.950 . S
H586 C582 0.950 . S
C587 C585 1.390 . S
C587 C588 1.387 . S
C587 H590 0.950 . S
C588 C587 1.387 . S
C588 C591 1.387 . S
H589 C585 0.950 . S
H590 C587 0.950 . S
C591 C582 1.390 . S
C591 H584 0.950 . S
C591 C588 1.387 . S
C592 C593 1.387 . S
C592 H596 0.950 . S
C592 C601 1.390 . S
C593 C592 1.387 . S
C593 C595 1.387 . S
H594 C601 0.950 . S
C595 C593 1.387 . S
C595 C597 1.390 . S
C595 H599 0.950 . S
H596 C592 0.950 . S
C597 C595 1.390 . S
C597 C598 1.387 . S
C597 H600 0.950 . S
C598 C597 1.387 . S
C598 C601 1.387 . S
H599 C595 0.950 . S
H600 C597 0.950 . S
C601 C592 1.390 . S
C601 H594 0.950 . S
C601 C598 1.387 . S
C602 C603 1.387 . S
C602 H606 0.950 . S
C602 C611 1.390 . S
C603 C602 1.387 . S
C603 C605 1.387 . S
H604 C611 0.950 . S
C605 C603 1.387 . S
C605 C607 1.390 . S
C605 H609 0.950 . S
H606 C602 0.950 . S
C607 C605 1.390 . S
C607 C608 1.387 . S
C607 H610 0.950 . S
C608 C607 1.387 . S
C608 C611 1.387 . S
H609 C605 0.950 . S
H610 C607 0.950 . S
C611 C602 1.390 . S
C611 H604 0.950 . S
C611 C608 1.387 . S
C612 C613 1.387 . S
C612 H616 0.950 . S
C612 C621 1.390 . S
C613 C612 1.387 . S
C613 C615 1.387 . S
H614 C621 0.950 . S
C615 C613 1.387 . S
C615 C617 1.390 . S
C615 H619 0.950 . S
H616 C612 0.950 . S
C617 C615 1.390 . S
C617 C618 1.387 . S
C617 H620 0.950 . S
C618 C617 1.387 . S
C618 C621 1.387 . S
H619 C615 0.950 . S
H620 C617 0.950 . S
C621 C612 1.390 . S
C621 H614 0.950 . S
C621 C618 1.387 . S
C622 C623 1.387 . S
C622 H626 0.950 . S
C622 C631 1.390 . S
C623 C622 1.387 . S
C623 C625 1.387 . S
H624 C631 0.950 . S
C625 C623 1.387 . S
C625 C627 1.390 . S
C625 H629 0.950 . S
H626 C622 0.950 . S
C627 C625 1.390 . S
C627 C628 1.387 . S
C627 H630 0.950 . S
C628 C627 1.387 . S
C628 C631 1.387 . S
H629 C625 0.950 . S
H630 C627 0.950 . S
C631 C622 1.390 . S
C631 H624 0.950 . S
C631 C628 1.387 . S
C632 C633 1.387 . S
C632 H636 0.950 . S
C632 C641 1.390 . S
C633 C632 1.387 . S
C633 C635 1.387 . S
H634 C641 0.950 . S
C635 C633 1.387 . S
C635 C637 1.390 . S
C635 H639 0.950 . S
H636 C632 0.950 . S
C637 C635 1.390 . S
C637 C638 1.387 . S
C637 H640 0.950 . S
C638 C637 1.387 . S
C638 C641 1.387 . S
H639 C635 0.950 . S
H640 C637 0.950 . S
C641 C632 1.390 . S
C641 H634 0.950 . S
C641 C638 1.387 . S
C642 C643 1.387 . S
C642 H646 0.950 . S
C642 C651 1.390 . S
C643 C642 1.387 . S
C643 C645 1.387 . S
H644 C651 0.950 . S
C645 C643 1.387 . S
C645 C647 1.390 . S
C645 H649 0.950 . S
H646 C642 0.950 . S
C647 C645 1.390 . S
C647 C648 1.387 . S
C647 H650 0.950 . S
C648 C647 1.387 . S
C648 C651 1.387 . S
H649 C645 0.950 . S
H650 C647 0.950 . S
C651 C642 1.390 . S
C651 H644 0.950 . S
C651 C648 1.387 . S
C652 C653 1.387 . S
C652 H656 0.950 . S
C652 C661 1.390 . S
C653 C652 1.387 . S
C653 C655 1.387 . S
H654 C661 0.950 . S
C655 C653 1.387 . S
C655 C657 1.390 . S
C655 H659 0.950 . S
H656 C652 0.950 . S
C657 C655 1.390 . S
C657 C658 1.387 . S
C657 H660 0.950 . S
C658 C657 1.387 . S
C658 C661 1.387 . S
H659 C655 0.950 . S
H660 C657 0.950 . S
C661 C652 1.390 . S
C661 H654 0.950 . S
C661 C658 1.387 . S
C662 C663 1.387 . S
C662 H666 0.950 . S
C662 C671 1.390 . S
C663 C662 1.387 . S
C663 C665 1.387 . S
H664 C671 0.950 . S
C665 C663 1.387 . S
C665 C667 1.390 . S
C665 H669 0.950 . S
H666 C662 0.950 . S
C667 C665 1.390 . S
C667 C668 1.387 . S
C667 H670 0.950 . S
C668 C667 1.387 . S
C668 C671 1.387 . S
H669 C665 0.950 . S
H670 C667 0.950 . S
C671 C662 1.390 . S
C671 H664 0.950 . S
C671 C668 1.387 . S
C433 C14 1.454 . S
C438 C184 1.575 . S
C443 C40 1.336 . S
C448 C148 1.338 . S
C453 C194 1.386 . S
C458 C86 1.381 . S
C463 C112 1.455 . S
C468 C158 1.330 . S
C473 C255 1.413 . S
C478 C76 1.431 . S
C483 C218 1.615 . S
C488 C122 1.492 . S
C493 C4 1.404 . S
C498 C254 1.403 . S
C503 C219 1.489 . S
C508 C50 1.381 . S
C513 C327 1.464 . S
C518 C291 1.466 . S
C523 C290 1.390 . S
C528 C398 1.387 . S
C533 C326 1.444 . S
C538 C362 1.441 . S
C543 C363 1.544 . S
C548 C399 1.548 . S
C553 C410 1.454 . S
C558 C220 1.575 . S
C563 C292 1.337 . S
C568 C256 1.338 . S
C573 C230 1.389 . S
C578 C338 1.381 . S
C583 C266 1.331 . S
C588 C364 1.455 . S
C593 C147 1.412 . S
C598 C328 1.430 . S
C603 C182 1.615 . S
C608 C374 1.493 . S
C613 C400 1.404 . S
C618 C146 1.403 . S
C623 C302 1.382 . S
C628 C183 1.489 . S
C633 C39 1.465 . S
C638 C75 1.462 . S
C643 C2 1.387 . S
C648 C38 1.390 . S
C653 C74 1.442 . S
C658 C110 1.442 . S
C663 C3 1.547 . S
C668 C111 1.544 . S
