# Generated by pormake.
# Topology unv, (4)-cn, num edge types: 1
# Building blocks:
#     Node 0, Type 0, BuildingBlock: AZAVOO_clean_sbu_0, # of connection points: 4
#     Node 1, Type 0, BuildingBlock: AZAVOO_clean_sbu_0, # of connection points: 4
#     Node 2, Type 0, BuildingBlock: AZAVOO_clean_sbu_0, # of connection points: 4
#     Node 3, Type 0, BuildingBlock: AZAVOO_clean_sbu_0, # of connection points: 4
#     Node 4, Type 0, BuildingBlock: AZAVOO_clean_sbu_0, # of connection points: 4
#     Node 5, Type 0, BuildingBlock: AZAVOO_clean_sbu_0, # of connection points: 4
#     Node 6, Type 0, BuildingBlock: AZAVOO_clean_sbu_0, # of connection points: 4
#     Node 7, Type 0, BuildingBlock: AZAVOO_clean_sbu_0, # of connection points: 4
#     Node 8, Type 0, BuildingBlock: AZAVOO_clean_sbu_0, # of connection points: 4
#     Node 9, Type 0, BuildingBlock: AZAVOO_clean_sbu_0, # of connection points: 4
#     Node 10, Type 0, BuildingBlock: AZAVOO_clean_sbu_0, # of connection points: 4
#     Node 11, Type 0, BuildingBlock: AZAVOO_clean_sbu_0, # of connection points: 4
#     Node 12, Type 0, BuildingBlock: AZAVOO_clean_sbu_0, # of connection points: 4
#     Node 13, Type 0, BuildingBlock: AZAVOO_clean_sbu_0, # of connection points: 4
#     Node 14, Type 0, BuildingBlock: AZAVOO_clean_sbu_0, # of connection points: 4
#     Node 15, Type 0, BuildingBlock: AZAVOO_clean_sbu_0, # of connection points: 4
#     Node 16, Type 0, BuildingBlock: AZAVOO_clean_sbu_0, # of connection points: 4
#     Node 17, Type 0, BuildingBlock: AZAVOO_clean_sbu_0, # of connection points: 4
#     Node 18, Type 0, BuildingBlock: AZAVOO_clean_sbu_0, # of connection points: 4
#     Node 19, Type 0, BuildingBlock: AZAVOO_clean_sbu_0, # of connection points: 4
#     Node 20, Type 0, BuildingBlock: AZAVOO_clean_sbu_0, # of connection points: 4
#     Node 21, Type 0, BuildingBlock: AZAVOO_clean_sbu_0, # of connection points: 4
#     Node 22, Type 0, BuildingBlock: AZAVOO_clean_sbu_0, # of connection points: 4
#     Node 23, Type 0, BuildingBlock: AZAVOO_clean_sbu_0, # of connection points: 4
#     Edge 24, Type (0, 0), BuildingBlock: KIFKEQ_clean_linker_1, # of connection points: 2
#     Edge 25, Type (0, 0), BuildingBlock: KIFKEQ_clean_linker_1, # of connection points: 2
#     Edge 26, Type (0, 0), BuildingBlock: KIFKEQ_clean_linker_1, # of connection points: 2
#     Edge 27, Type (0, 0), BuildingBlock: KIFKEQ_clean_linker_1, # of connection points: 2
#     Edge 28, Type (0, 0), BuildingBlock: KIFKEQ_clean_linker_1, # of connection points: 2
#     Edge 29, Type (0, 0), BuildingBlock: KIFKEQ_clean_linker_1, # of connection points: 2
#     Edge 30, Type (0, 0), BuildingBlock: KIFKEQ_clean_linker_1, # of connection points: 2
#     Edge 31, Type (0, 0), BuildingBlock: KIFKEQ_clean_linker_1, # of connection points: 2
#     Edge 32, Type (0, 0), BuildingBlock: KIFKEQ_clean_linker_1, # of connection points: 2
#     Edge 33, Type (0, 0), BuildingBlock: KIFKEQ_clean_linker_1, # of connection points: 2
#     Edge 34, Type (0, 0), BuildingBlock: KIFKEQ_clean_linker_1, # of connection points: 2
#     Edge 35, Type (0, 0), BuildingBlock: KIFKEQ_clean_linker_1, # of connection points: 2
#     Edge 36, Type (0, 0), BuildingBlock: KIFKEQ_clean_linker_1, # of connection points: 2
#     Edge 37, Type (0, 0), BuildingBlock: KIFKEQ_clean_linker_1, # of connection points: 2
#     Edge 38, Type (0, 0), BuildingBlock: KIFKEQ_clean_linker_1, # of connection points: 2
#     Edge 39, Type (0, 0), BuildingBlock: KIFKEQ_clean_linker_1, # of connection points: 2
#     Edge 40, Type (0, 0), BuildingBlock: KIFKEQ_clean_linker_1, # of connection points: 2
#     Edge 41, Type (0, 0), BuildingBlock: KIFKEQ_clean_linker_1, # of connection points: 2
#     Edge 42, Type (0, 0), BuildingBlock: KIFKEQ_clean_linker_1, # of connection points: 2
#     Edge 43, Type (0, 0), BuildingBlock: KIFKEQ_clean_linker_1, # of connection points: 2
#     Edge 44, Type (0, 0), BuildingBlock: KIFKEQ_clean_linker_1, # of connection points: 2
#     Edge 45, Type (0, 0), BuildingBlock: KIFKEQ_clean_linker_1, # of connection points: 2
#     Edge 46, Type (0, 0), BuildingBlock: KIFKEQ_clean_linker_1, # of connection points: 2
#     Edge 47, Type (0, 0), BuildingBlock: KIFKEQ_clean_linker_1, # of connection points: 2
#     Edge 48, Type (0, 0), BuildingBlock: KIFKEQ_clean_linker_1, # of connection points: 2
#     Edge 49, Type (0, 0), BuildingBlock: KIFKEQ_clean_linker_1, # of connection points: 2
#     Edge 50, Type (0, 0), BuildingBlock: KIFKEQ_clean_linker_1, # of connection points: 2
#     Edge 51, Type (0, 0), BuildingBlock: KIFKEQ_clean_linker_1, # of connection points: 2
#     Edge 52, Type (0, 0), BuildingBlock: KIFKEQ_clean_linker_1, # of connection points: 2
#     Edge 53, Type (0, 0), BuildingBlock: KIFKEQ_clean_linker_1, # of connection points: 2
#     Edge 54, Type (0, 0), BuildingBlock: KIFKEQ_clean_linker_1, # of connection points: 2
#     Edge 55, Type (0, 0), BuildingBlock: KIFKEQ_clean_linker_1, # of connection points: 2
#     Edge 56, Type (0, 0), BuildingBlock: KIFKEQ_clean_linker_1, # of connection points: 2
#     Edge 57, Type (0, 0), BuildingBlock: KIFKEQ_clean_linker_1, # of connection points: 2
#     Edge 58, Type (0, 0), BuildingBlock: KIFKEQ_clean_linker_1, # of connection points: 2
#     Edge 59, Type (0, 0), BuildingBlock: KIFKEQ_clean_linker_1, # of connection points: 2
#     Edge 60, Type (0, 0), BuildingBlock: KIFKEQ_clean_linker_1, # of connection points: 2
#     Edge 61, Type (0, 0), BuildingBlock: KIFKEQ_clean_linker_1, # of connection points: 2
#     Edge 62, Type (0, 0), BuildingBlock: KIFKEQ_clean_linker_1, # of connection points: 2
#     Edge 63, Type (0, 0), BuildingBlock: KIFKEQ_clean_linker_1, # of connection points: 2
#     Edge 64, Type (0, 0), BuildingBlock: KIFKEQ_clean_linker_1, # of connection points: 2
#     Edge 65, Type (0, 0), BuildingBlock: KIFKEQ_clean_linker_1, # of connection points: 2
#     Edge 66, Type (0, 0), BuildingBlock: KIFKEQ_clean_linker_1, # of connection points: 2
#     Edge 67, Type (0, 0), BuildingBlock: KIFKEQ_clean_linker_1, # of connection points: 2
#     Edge 68, Type (0, 0), BuildingBlock: KIFKEQ_clean_linker_1, # of connection points: 2
#     Edge 69, Type (0, 0), BuildingBlock: KIFKEQ_clean_linker_1, # of connection points: 2
#     Edge 70, Type (0, 0), BuildingBlock: KIFKEQ_clean_linker_1, # of connection points: 2
#     Edge 71, Type (0, 0), BuildingBlock: KIFKEQ_clean_linker_1, # of connection points: 2
# Relax obj value: 0.362
# Max RMSD: 0.351
# Mean RMSD: 0.318
data_MOF--net-unv--node1-AZAVOO_clean_sbu_0--edge1-KIFKEQ_clean_linker_1
_symmetry_space_group_name_H-M    P1
_symmetry_Int_Tables_number       1
_symmetry_cell_setting            triclinic
loop_
_symmetry_equiv_pos_as_xyz
'x, y, z'
_cell_length_a     49.427783
_cell_length_b     48.064354
_cell_length_c     48.918587
_cell_angle_alpha  89.937778
_cell_angle_beta   89.989386
_cell_angle_gamma 90.007637
loop_
_atom_site_label
_atom_site_type_symbol
_atom_site_fract_x
_atom_site_fract_y
_atom_site_fract_z
_atom_type_partial_charge
Mg0 Mg 0.06414 0.09479 0.36773 0.0
O1 O 0.02694 0.07283 0.38552 0.0
O2 O 0.01148 0.09615 0.42159 0.0
Mg3 Mg 0.03896 0.13439 0.42608 0.0
C4 C 0.01021 0.07558 0.40518 0.0
C5 C 0.06826 0.04255 0.3315 0.0
O6 O 0.08156 0.03444 0.35333 0.0
O7 O 0.03886 0.12856 0.34819 0.0
O8 O 0.02548 0.153 0.38461 0.0
O9 O 0.09016 0.07102 0.39629 0.0
O10 O 0.07302 0.11233 0.40596 0.0
C11 C 0.02652 0.1492 0.35875 0.0
C12 C 0.08667 0.09089 0.41375 0.0
O13 O 0.05935 0.0673 0.33038 0.0
Mg14 Mg 0.9786 0.3926 0.35354 0.0
O15 O 0.0166 0.41173 0.37269 0.0
O16 O 0.02984 0.38574 0.40799 0.0
Mg17 Mg 1.00127 0.34858 0.41032 0.0
C18 C 0.03244 0.40716 0.39281 0.0
C19 C 0.96631 0.42464 0.29892 0.0
O20 O 0.94606 0.40695 0.29812 0.0
O21 O 1.00186 0.35825 0.33193 0.0
O22 O 0.01335 0.33224 0.36801 0.0
O23 O 0.95418 0.41651 0.38301 0.0
O24 O 0.96902 0.37389 0.39125 0.0
C25 C 0.01292 0.33671 0.34228 0.0
C26 C 0.95696 0.39597 0.39993 0.0
O27 O 0.98349 0.42283 0.31814 0.0
Mg28 Mg 0.98948 0.87393 0.14199 0.0
O29 O 0.96972 0.90752 0.11468 0.0
O30 O 0.95585 0.887 0.07583 0.0
Mg31 Mg 0.96408 0.84035 0.0781 0.0
C32 C 0.95882 0.90854 0.0909 0.0
C33 C 0.01374 0.90072 0.19062 0.0
O34 O 0.03138 0.88223 0.18205 0.0
O35 O 0.94783 0.85785 0.15337 0.0
O36 O 0.93567 0.84009 0.11518 0.0
O37 O 0.02838 0.88246 0.12202 0.0
O38 O 0.99899 0.85261 0.10482 0.0
C39 C 0.94619 0.83633 0.13857 0.0
C40 C 0.02101 0.86682 0.10186 0.0
O41 O 0.99108 0.90244 0.17851 0.0
Mg42 Mg 0.98973 0.62427 0.12304 0.0
O43 O 0.02153 0.59269 0.11096 0.0
O44 O 0.04455 0.60724 0.07452 0.0
Mg45 Mg 0.02432 0.64791 0.06098 0.0
C46 C 0.04016 0.58941 0.09331 0.0
C47 C 0.96544 0.58836 0.1696 0.0
O48 O 0.94406 0.59174 0.15399 0.0
O49 O 0.02153 0.65439 0.13894 0.0
O50 O 0.03772 0.67109 0.09961 0.0
O51 O 0.95981 0.60299 0.09648 0.0
O52 O 0.98601 0.63733 0.08226 0.0
C53 C 0.03616 0.67169 0.12569 0.0
C54 C 0.9679 0.61892 0.07674 0.0
O55 O 0.98714 0.60113 0.16353 0.0
Mg56 Mg 0.38243 0.01094 0.11433 0.0
O57 O 0.39617 0.97049 0.09494 0.0
O58 O 0.43027 0.95171 0.11833 0.0
Mg59 Mg 0.43715 0.98062 0.15497 0.0
C60 C 0.41389 0.95153 0.09817 0.0
C61 C 0.34346 0.02369 0.06547 0.0
O62 O 0.36344 0.04055 0.0592 0.0
O63 O 0.36063 0.98813 0.14814 0.0
O64 O 0.39488 0.97166 0.17315 0.0
O65 O 0.41358 0.03262 0.08982 0.0
O66 O 0.42084 0.0164 0.1316 0.0
C67 C 0.36955 0.97511 0.169 0.0
C68 C 0.4302 0.02787 0.10975 0.0
O69 O 0.34495 0.00932 0.08724 0.0
Mg70 Mg 0.64139 0.53202 0.11288 0.0
O71 O 0.61711 0.5692 0.09536 0.0
O72 O 0.57483 0.56848 0.11227 0.0
Mg73 Mg 0.57814 0.54228 0.15083 0.0
C74 C 0.59246 0.57759 0.0953 0.0
C75 C 0.69493 0.52405 0.08409 0.0
O76 O 0.69155 0.50105 0.09825 0.0
O77 O 0.65678 0.55414 0.15184 0.0
O78 O 0.61584 0.56798 0.15676 0.0
O79 O 0.61888 0.50552 0.08389 0.0
O80 O 0.60383 0.51415 0.12553 0.0
C81 C 0.6375 0.55984 0.16802 0.0
C82 C 0.59984 0.50317 0.10187 0.0
O83 O 0.67815 0.54378 0.08743 0.0
Mg84 Mg 0.33368 0.97957 0.39803 0.0
O85 O 0.35566 0.02036 0.41068 0.0
O86 O 0.3894 0.03017 0.38151 0.0
Mg87 Mg 0.376 0.00725 0.3434 0.0
C88 C 0.3769 0.03413 0.40405 0.0
C89 C 0.28374 0.97291 0.43861 0.0
O90 O 0.27438 0.95595 0.4198 0.0
O91 O 0.30212 -0.00061 0.36982 0.0
O92 O 0.33555 0.0246 0.35662 0.0
O93 O 0.36911 0.95692 0.41378 0.0
O94 O 0.36665 0.97087 0.37057 0.0
C95 C 0.31331 0.01305 0.35079 0.0
C96 C 0.38055 0.95984 0.39015 0.0
O97 O 0.30638 0.98484 0.43496 0.0
Mg98 Mg 0.63231 0.46935 0.36113 0.0
O99 O 0.60843 0.44548 0.39339 0.0
O100 O 0.57034 0.42669 0.37663 0.0
Mg101 Mg 0.57094 0.43528 0.3305 0.0
C102 C 0.58656 0.43161 0.39643 0.0
C103 C 0.66978 0.49424 0.40579 0.0
O104 O 0.6526 0.51474 0.40214 0.0
O105 O 0.6477 0.42802 0.3448 0.0
O106 O 0.61058 0.41062 0.32994 0.0
O107 O 0.6074 0.5067 0.36941 0.0
O108 O 0.59413 0.47431 0.34043 0.0
C109 C 0.63229 0.42366 0.32455 0.0
C110 C 0.58861 0.49669 0.35389 0.0
O111 O 0.6678 0.47267 0.39088 0.0
Mg112 Mg 0.09432 0.35639 0.988 0.0
O113 O 0.09577 0.39065 0.02073 0.0
O114 O 0.05302 0.39941 0.03324 0.0
Mg115 Mg 0.02428 0.37391 0.00701 0.0
C116 C 0.07842 0.40347 0.03538 0.0
C117 C 0.15595 0.35728 0.97599 0.0
O118 O 0.14633 0.36898 0.95375 0.0
O119 O 0.0824 0.32266 0.01947 0.0
O120 O 0.03946 0.33474 0.02727 0.0
O121 O 0.09179 0.38983 0.95572 0.0
O122 O 0.05649 0.37076 0.9762 0.0
C123 C 0.05952 0.31858 0.0311 0.0
C124 C 0.06599 0.38948 0.96006 0.0
O125 O 0.13949 0.34884 0.99419 0.0
Mg126 Mg 0.09001 0.61923 0.54369 0.0
O127 O 0.0815 0.58242 0.5149 0.0
O128 O 0.03756 0.57187 0.51842 0.0
Mg129 Mg 0.01757 0.60156 0.54848 0.0
C130 C 0.061 0.56777 0.50824 0.0
C131 C 0.14847 0.60273 0.52808 0.0
O132 O 0.13911 0.58035 0.54029 0.0
O133 O 0.06965 0.64933 0.51253 0.0
O134 O 0.02655 0.63596 0.51802 0.0
O135 O 0.09486 0.58839 0.57851 0.0
O136 O 0.0566 0.60929 0.5678 0.0
C137 C 0.04443 0.65109 0.50649 0.0
C138 C 0.06916 0.59139 0.58246 0.0
O139 O 0.13269 0.62346 0.52504 0.0
Mg140 Mg 0.90418 0.85392 0.51666 0.0
O141 O 0.91902 0.89016 0.4889 0.0
O142 O 0.96383 0.89279 0.49526 0.0
Mg143 Mg 0.97804 0.86021 0.5256 0.0
C144 C 0.94206 0.90125 0.48397 0.0
C145 C 0.84585 0.87402 0.50416 0.0
O146 O 0.85528 0.89391 0.51989 0.0
O147 O 0.92162 0.82053 0.48699 0.0
O148 O 0.96573 0.82702 0.4954 0.0
O149 O 0.90185 0.88477 0.55172 0.0
O150 O 0.93726 0.85867 0.54222 0.0
C151 C 0.94661 0.81459 0.4829 0.0
C152 C 0.92668 0.87799 0.55665 0.0
O153 O 0.86173 0.85444 0.4971 0.0
Mg154 Mg 0.40365 0.61617 0.453 0.0
O155 O 0.41163 0.57828 0.48073 0.0
O156 O 0.45454 0.56514 0.47424 0.0
Mg157 Mg 0.47544 0.5966 0.44642 0.0
C158 C 0.43136 0.56177 0.48524 0.0
C159 C 0.34478 0.60107 0.46808 0.0
O160 O 0.35325 0.57928 0.45434 0.0
O161 O 0.42522 0.64533 0.48387 0.0
O162 O 0.46794 0.63122 0.47735 0.0
O163 O 0.3977 0.58694 0.41684 0.0
O164 O 0.43649 0.60649 0.42796 0.0
C165 C 0.45062 0.64683 0.48916 0.0
C166 C 0.42332 0.58996 0.41241 0.0
O167 O 0.36133 0.62091 0.47237 0.0
Mg168 Mg 0.51202 0.62375 0.86376 0.0
O169 O 0.47527 0.59854 0.87596 0.0
O170 O 0.44999 0.62209 0.90566 0.0
Mg171 Mg 0.47155 0.6641 0.91166 0.0
C172 C 0.45467 0.60036 0.89147 0.0
C173 C 0.53666 0.57593 0.82849 0.0
O174 O 0.55424 0.57538 0.84862 0.0
O175 O 0.48739 0.65137 0.83655 0.0
O176 O 0.46696 0.67899 0.86674 0.0
O177 O 0.53439 0.60573 0.8985 0.0
O178 O 0.51121 0.64523 0.90102 0.0
C179 C 0.47314 0.67267 0.84209 0.0
C180 C 0.52545 0.62632 0.91293 0.0
O181 O 0.51781 0.59382 0.82878 0.0
Mg182 Mg 0.48174 0.88328 0.87075 0.0
O183 O 0.51258 0.91466 0.88626 0.0
O184 O 0.54054 0.89182 0.91424 0.0
Mg185 Mg 0.52315 0.84788 0.92129 0.0
C186 C 0.53335 0.91399 0.90175 0.0
C187 C 0.46777 0.93527 0.83415 0.0
O188 O 0.46443 0.94764 0.85785 0.0
O189 O 0.51402 0.86193 0.84652 0.0
O190 O 0.52969 0.83167 0.87702 0.0
O191 O 0.45207 0.89621 0.90209 0.0
O192 O 0.48304 0.86366 0.90879 0.0
C193 C 0.52623 0.83944 0.85224 0.0
C194 C 0.46383 0.87884 0.91848 0.0
O195 O 0.47378 0.90964 0.83348 0.0
Mg196 Mg 0.51641 0.38925 0.63842 0.0
O197 O 0.47694 0.40752 0.62101 0.0
O198 O 0.46351 0.37927 0.58752 0.0
Mg199 Mg 0.49304 0.34309 0.58414 0.0
C200 C 0.46066 0.40138 0.60165 0.0
C201 C 0.5357 0.42944 0.6817 0.0
O202 O 0.55789 0.42325 0.66821 0.0
O203 O 0.49551 0.35481 0.66164 0.0
O204 O 0.48455 0.32633 0.62741 0.0
O205 O 0.53849 0.41402 0.60807 0.0
O206 O 0.52471 0.37084 0.60055 0.0
C207 C 0.48592 0.33192 0.6529 0.0
C208 C 0.53539 0.39347 0.59127 0.0
O209 O 0.51362 0.41802 0.67467 0.0
Mg210 Mg 0.47386 0.09985 0.62337 0.0
O211 O 0.51139 0.07613 0.6095 0.0
O212 O 0.53187 0.10013 0.57649 0.0
Mg213 Mg 0.50787 0.14063 0.571 0.0
C214 C 0.53006 0.07861 0.59168 0.0
C215 C 0.46915 0.04608 0.65924 0.0
O216 O 0.46714 0.03412 0.63519 0.0
O217 O 0.49795 0.13084 0.64741 0.0
O218 O 0.51626 0.15718 0.61475 0.0
O219 O 0.45113 0.07799 0.59133 0.0
O220 O 0.47057 0.11924 0.58515 0.0
C221 C 0.51179 0.15183 0.63999 0.0
C222 C 0.45759 0.09831 0.57519 0.0
O223 O 0.47174 0.0723 0.66066 0.0
Mg224 Mg 0.84652 0.4909 0.60422 0.0
O225 O 0.86837 0.45438 0.58405 0.0
O226 O 0.90408 0.43918 0.60804 0.0
Mg227 Mg 0.89601 0.45722 0.65059 0.0
C228 C 0.88945 0.43917 0.58647 0.0
C229 C 0.7927 0.49913 0.57045 0.0
O230 O 0.78364 0.50845 0.59398 0.0
O231 O 0.81867 0.46215 0.62852 0.0
O232 O 0.85349 0.44074 0.64391 0.0
O233 O 0.88013 0.5171 0.58969 0.0
O234 O 0.8816 0.49616 0.63004 0.0
C235 C 0.83256 0.45511 0.64912 0.0
C236 C 0.89381 0.51021 0.61121 0.0
O237 O 0.81704 0.49093 0.56867 0.0
Mg238 Mg 0.13688 0.98764 0.64303 0.0
O239 O 0.13515 0.02291 0.61189 0.0
O240 O 0.09764 0.04715 0.6205 0.0
Mg241 Mg 0.07427 0.02603 0.65513 0.0
C242 C 0.11914 0.04301 0.60661 0.0
C243 C 0.20632 0.97844 0.62847 0.0
O244 O 0.2234 0.97462 0.64871 0.0
O245 O 0.14706 0.01693 0.67768 0.0
O246 O 0.10668 0.03483 0.68777 0.0
O247 O 0.11496 0.96035 0.61392 0.0
O248 O 0.09473 0.98657 0.64488 0.0
C249 C 0.1317 0.03113 0.69329 0.0
C250 C 0.09273 0.96971 0.62454 0.0
O251 O 0.18141 0.98173 0.63384 0.0
Mg252 Mg 0.85997 0.50972 0.87957 0.0
O253 O 0.87994 0.54837 0.89714 0.0
O254 O 0.92021 0.5549 0.87768 0.0
Mg255 Mg 0.92442 0.52205 0.8443 0.0
C256 C 0.90218 0.56161 0.89512 0.0
C257 C 0.81123 0.50134 0.91673 0.0
O258 O 0.82008 0.47592 0.91251 0.0
O259 O 0.84676 0.53256 0.84103 0.0
O260 O 0.8871 0.53733 0.82098 0.0
O261 O 0.88334 0.48554 0.90986 0.0
O262 O 0.89793 0.49406 0.8678 0.0
C263 C 0.86142 0.54038 0.82091 0.0
C264 C 0.90254 0.48447 0.89192 0.0
O265 O 0.82223 0.52125 0.90373 0.0
Mg266 Mg 0.14729 0.96883 0.89538 0.0
O267 O 0.12153 0.94073 0.92356 0.0
O268 O 0.08501 0.92508 0.9009 0.0
Mg269 Mg 0.08959 0.93789 0.85615 0.0
C270 C 0.09925 0.92708 0.92265 0.0
C271 C 0.19048 0.99556 0.93155 0.0
O272 O 0.18004 0.01695 0.91855 0.0
O273 O 0.1656 0.93043 0.87565 0.0
O274 O 0.12951 0.91372 0.85783 0.0
O275 O 0.12122 0.0049 0.90514 0.0
O276 O 0.11132 0.9756 0.87189 0.0
C277 C 0.15118 0.92749 0.85444 0.0
C278 C 0.10452 -0.00312 0.88636 0.0
O279 O 0.18138 0.97137 0.9265 0.0
Mg280 Mg 0.58503 0.85593 0.45518 0.0
O281 O 0.57747 0.8911 0.48636 0.0
O282 O 0.53283 0.89847 0.4876 0.0
Mg283 Mg 0.51165 0.86922 0.45791 0.0
C284 C 0.5568 0.90397 0.49563 0.0
C285 C 0.64441 0.87372 0.46547 0.0
O286 O 0.63357 0.89624 0.45487 0.0
O287 O 0.56896 0.82238 0.4855 0.0
O288 O 0.52477 0.8327 0.48418 0.0
O289 O 0.58518 0.88829 0.42115 0.0
O290 O 0.54921 0.86496 0.43484 0.0
C291 C 0.54441 0.81793 0.49289 0.0
C292 C 0.55946 0.88367 0.41936 0.0
O293 O 0.62934 0.85262 0.4695 0.0
Mg294 Mg 0.60696 0.14801 0.01636 0.0
O295 O 0.59328 0.10778 0.99438 0.0
O296 O 0.55026 0.10024 0.00667 0.0
Mg297 Mg 0.53591 0.13539 0.03401 0.0
C298 C 0.57155 0.09334 0.99354 0.0
C299 C 0.66599 0.15837 0.00669 0.0
O300 O 0.66068 0.16799 0.03126 0.0
O301 O 0.58381 0.17416 0.98434 0.0
O302 O 0.54148 0.16379 -0.00286 0.0
O303 O 0.61711 0.12175 0.05278 0.0
O304 O 0.57771 0.14254 0.04635 0.0
C305 C 0.55815 0.17595 0.98118 0.0
C306 C 0.59225 0.12546 0.06021 0.0
O307 O 0.6466 0.14851 0.9926 0.0
Mg308 Mg 0.41894 0.36104 0.00346 0.0
O309 O 0.42201 0.39998 0.97615 0.0
O310 O 0.46598 0.40955 0.9712 0.0
Mg311 Mg 0.4909 0.37816 0.9952 0.0
C312 C 0.44114 0.41481 0.96638 0.0
C313 C 0.35714 0.36006 0.01133 0.0
O314 O 0.36584 0.36502 0.03623 0.0
O315 O 0.43293 0.33229 0.96839 0.0
O316 O 0.47671 0.34406 0.96647 0.0
O317 O 0.42032 0.38901 0.04063 0.0
O318 O 0.45591 0.36955 0.0213 0.0
C319 C 0.45666 0.32962 0.95819 0.0
C320 C 0.44631 0.38585 0.0396 0.0
O321 O 0.37435 0.35704 0.99224 0.0
Mg322 Mg 0.92235 0.13407 0.94615 0.0
O323 O 0.93158 0.09522 0.97207 0.0
O324 O 0.97545 0.08507 0.96662 0.0
Mg325 Mg 0.99475 0.11797 0.93955 0.0
C326 C 0.95227 0.08009 0.97705 0.0
C327 C 0.86135 0.14277 0.94748 0.0
O328 O 0.86796 0.14628 0.92169 0.0
O329 O 0.94196 0.16084 0.98009 0.0
O330 O 0.98508 0.14794 0.97398 0.0
O331 O 0.91713 0.10599 0.9095 0.0
O332 O 0.95542 0.12634 0.92131 0.0
C333 C 0.96698 0.16149 0.98693 0.0
C334 C 0.94284 0.10925 0.90574 0.0
O335 O 0.87998 0.13723 0.9646 0.0
H336 H 0.08873 0.08635 0.58745 0.0
H337 H 0.15733 0.03466 0.56671 0.0
H338 H 0.08611 0.10226 0.54049 0.0
H339 H 0.15514 0.05131 0.51974 0.0
H340 H 0.1085 0.04499 0.43776 0.0
H341 H 0.12291 0.03951 0.48489 0.0
H342 H 0.10309 0.1256 0.50079 0.0
H343 H 0.08787 0.13083 0.45357 0.0
C344 C 0.1038 0.07901 0.57308 0.0
C345 C 0.12274 0.05862 0.58073 0.0
C346 C 0.10238 0.08829 0.54608 0.0
C347 C 0.11998 0.07751 0.52616 0.0
C348 C 0.1408 0.05943 0.53446 0.0
C349 C 0.14219 0.05007 0.56148 0.0
C350 C 0.10739 0.06282 0.45124 0.0
C351 C 0.09671 0.08823 0.44206 0.0
C352 C 0.11597 0.05979 0.47823 0.0
C353 C 0.11425 0.08215 0.49668 0.0
C354 C 0.10441 0.10788 0.48721 0.0
C355 C 0.09565 0.11086 0.46018 0.0
H356 H 0.96481 0.35952 0.44265 0.0
H357 H 0.92789 0.43831 0.42187 0.0
H358 H 0.94873 0.36452 0.48978 0.0
H359 H 0.91149 0.44279 0.46853 0.0
H360 H 0.85973 0.4269 0.54136 0.0
H361 H 0.87665 0.41228 0.497 0.0
H362 H 0.95679 0.40293 0.53072 0.0
H363 H 0.93997 0.41792 0.57552 0.0
C364 C 0.95341 0.37789 0.44808 0.0
C365 C 0.94769 0.39857 0.42851 0.0
C366 C 0.94423 0.38067 0.47501 0.0
C367 C 0.92873 0.40387 0.48253 0.0
C368 C 0.92314 0.42453 0.46305 0.0
C369 C 0.93263 0.42199 0.43638 0.0
C370 C 0.88087 0.42125 0.53957 0.0
C371 C 0.89864 0.42413 0.56183 0.0
C372 C 0.8905 0.4129 0.51416 0.0
C373 C 0.91803 0.40702 0.5105 0.0
C374 C 0.93545 0.40743 0.53317 0.0
C375 C 0.92581 0.41598 0.55874 0.0
H376 H 0.00893 0.84171 0.05263 0.0
H377 H 0.06528 0.89817 0.09111 0.0
H378 H 0.02972 0.85154 0.00823 0.0
H379 H 0.08522 0.90857 0.04726 0.0
H380 H 0.12832 0.91357 0.96825 0.0
H381 H 0.11168 0.89291 0.01047 0.0
H382 H 0.03099 0.88968 0.97651 0.0
H383 H 0.0479 0.90925 0.93389 0.0
C384 C 0.02582 0.85601 0.05168 0.0
C385 C 0.03521 0.86938 0.07536 0.0
C386 C 0.03765 0.86178 0.02624 0.0
C387 C 0.05907 0.881 0.02409 0.0
C388 C 0.06908 0.89335 0.04804 0.0
C389 C 0.05742 0.88752 0.07329 0.0
C390 C 0.10706 0.90828 0.96974 0.0
C391 C 0.08938 0.91335 0.94784 0.0
C392 C 0.09749 0.89646 0.99397 0.0
C393 C 0.06991 0.88987 -0.00294 0.0
C394 C 0.0524 0.89414 0.97479 0.0
C395 C 0.06206 0.90561 0.9504 0.0
H396 H 0.92901 0.58279 0.05975 0.0
H397 H 0.98172 0.64822 0.03069 0.0
H398 H 0.91103 0.57707 0.01384 0.0
H399 H 0.9636 0.64241 0.98455 0.0
H400 H 0.95155 0.58519 0.90573 0.0
H401 H 0.96598 0.60489 0.94916 0.0
H402 H 0.8837 0.60168 0.97865 0.0
H403 H 0.86917 0.58172 0.93537 0.0
C404 C 0.93671 0.59602 0.04358 0.0
C405 C 0.95702 0.61572 0.04881 0.0
C406 C 0.92617 0.59297 0.01732 0.0
C407 C 0.93576 0.60948 0.99565 0.0
C408 C 0.9559 0.62938 0.00087 0.0
C409 C 0.96632 0.63259 0.02726 0.0
C410 C 0.93635 0.5895 0.9211 0.0
C411 C 0.90931 0.58121 0.9173 0.0
C412 C 0.94466 0.60082 0.94602 0.0
C413 C 0.92606 0.60411 0.96749 0.0
C414 C 0.89856 0.5987 0.96263 0.0
C415 C 0.89024 0.58742 0.93776 0.0
H416 H 0.45968 0.03228 0.06307 0.0
H417 H 0.46553 0.03985 0.15085 0.0
H418 H 0.50594 0.04949 0.05847 0.0
H419 H 0.51174 0.05795 0.1461 0.0
H420 H 0.55818 0.13777 0.1016 0.0
H421 H 0.52325 0.10683 0.11969 0.0
H422 H 0.55764 0.03842 0.07441 0.0
H423 H 0.59322 0.06927 0.05706 0.0
C424 C 0.47103 0.03725 0.08138 0.0
C425 C 0.45905 0.03501 0.10728 0.0
C426 C 0.49755 0.0468 0.07877 0.0
C427 C 0.51233 0.05482 0.10197 0.0
C428 C 0.50074 0.05164 0.12798 0.0
C429 C 0.47438 0.04139 0.13064 0.0
C430 C 0.5591 0.11579 0.09679 0.0
C431 C 0.57837 0.10573 0.07823 0.0
C432 C 0.53914 0.09812 0.10706 0.0
C433 C 0.5378 0.07037 0.09827 0.0
C434 C 0.55844 0.05974 0.08154 0.0
C435 C 0.57886 0.07729 0.07183 0.0
H436 H 0.55454 0.49651 0.13388 0.0
H437 H 0.58794 0.47646 0.05459 0.0
H438 H 0.51415 0.46882 0.12309 0.0
H439 H 0.54805 0.44886 0.04423 0.0
H440 H 0.49747 0.37211 0.05242 0.0
H441 H 0.53247 0.40237 0.07058 0.0
H442 H 0.47379 0.46782 0.0818 0.0
H443 H 0.43821 0.43727 0.06321 0.0
C444 C 0.55316 0.48649 0.11412 0.0
C445 C 0.57449 0.4885 0.09514 0.0
C446 C 0.53007 0.47078 0.10799 0.0
C447 C 0.52828 0.45664 0.08299 0.0
C448 C 0.54917 0.45941 0.06377 0.0
C449 C 0.57197 0.47524 0.06972 0.0
C450 C 0.49184 0.39279 0.05916 0.0
C451 C 0.46527 0.40258 0.05596 0.0
C452 C 0.51188 0.41005 0.06954 0.0
C453 C 0.50579 0.43744 0.07706 0.0
C454 C 0.47883 0.4467 0.07602 0.0
C455 C 0.45858 0.42929 0.06547 0.0
H456 H 0.5277 0.86561 0.37874 0.0
H457 H 0.54782 0.93878 0.42538 0.0
H458 H 0.48552 0.88735 0.36405 0.0
H459 H 0.50527 0.96069 0.41074 0.0
H460 H 0.42297 0.989 0.3677 0.0
H461 H 0.4709 0.97479 0.36704 0.0
H462 H 0.44888 0.89612 0.40344 0.0
H463 H 0.40165 0.9107 0.40515 0.0
C464 C 0.52367 0.88693 0.38469 0.0
C465 C 0.54098 0.9007 0.4029 0.0
C466 C 0.49949 0.89927 0.37645 0.0
C467 C 0.4921 0.92553 0.38649 0.0
C468 C 0.51069 0.94053 0.40251 0.0
C469 C 0.53505 0.9281 0.41075 0.0
C470 C 0.42848 0.9686 0.37523 0.0
C471 C 0.40877 0.95085 0.38645 0.0
C472 C 0.45579 0.96055 0.37492 0.0
C473 C 0.46344 0.9343 0.38494 0.0
C474 C 0.44347 0.91634 0.39527 0.0
C475 C 0.4165 0.92467 0.39634 0.0
H476 H 0.42959 0.53354 0.41192 0.0
H477 H 0.45353 0.60903 0.37091 0.0
H478 H 0.46759 0.50887 0.39056 0.0
H479 H 0.49092 0.58453 0.3491 0.0
H480 H 0.57596 0.54924 0.36852 0.0
H481 H 0.53144 0.56939 0.375 0.0
H482 H 0.49437 0.49281 0.3481 0.0
H483 H 0.53941 0.47245 0.34148 0.0
C484 C 0.44211 0.54441 0.3972 0.0
C485 C 0.43867 0.57305 0.39282 0.0
C486 C 0.46394 0.53038 0.38508 0.0
C487 C 0.4825 0.54492 0.36853 0.0
C488 C 0.47722 0.57289 0.36208 0.0
C489 C 0.45567 0.58686 0.37431 0.0
C490 C 0.55838 0.53675 0.36357 0.0
C491 C 0.56127 0.50923 0.3545 0.0
C492 C 0.53281 0.54839 0.3671 0.0
C493 C 0.50934 0.53275 0.36186 0.0
C494 C 0.5121 0.50534 0.35225 0.0
C495 C 0.53789 0.49375 0.34832 0.0
H496 H 0.10415 0.44874 0.01629 0.0
H497 H 0.06993 0.41327 0.08944 0.0
H498 H 0.10276 0.49459 0.03669 0.0
H499 H 0.07091 0.45878 0.11137 0.0
H500 H 0.02344 0.54042 0.11503 0.0
H501 H 0.04215 0.49492 0.10736 0.0
H502 H 0.10986 0.5318 0.06431 0.0
H503 H 0.08956 0.57765 0.07037 0.0
C504 C 0.09775 0.45067 0.0374 0.0
C505 C 0.08691 0.42775 0.05129 0.0
C506 C 0.09695 0.47706 0.04927 0.0
C507 C 0.08583 0.48086 0.07555 0.0
C508 C 0.07847 0.45703 0.09068 0.0
C509 C 0.07833 0.43081 0.07839 0.0
C510 C 0.04257 0.53892 0.1043 0.0
C511 C 0.05475 0.56259 0.09284 0.0
C512 C 0.05361 0.51262 0.10009 0.0
C513 C 0.07756 0.50924 0.08483 0.0
C514 C 0.091 0.53331 0.07543 0.0
C515 C 0.07949 0.55967 0.07904 0.0
H516 H 0.06596 0.40794 0.43757 0.0
H517 H 0.03818 0.45906 0.37038 0.0
H518 H 0.08089 0.44957 0.46166 0.0
H519 H 0.05309 0.50049 0.39468 0.0
H520 H 0.02294 0.55079 0.47224 0.0
H521 H 0.02608 0.51354 0.43883 0.0
H522 H 0.10852 0.4975 0.46338 0.0
H523 H 0.10559 0.53569 0.49678 0.0
C524 C 0.06395 0.42788 0.42744 0.0
C525 C 0.05001 0.4302 0.40243 0.0
C526 C 0.07264 0.45173 0.44126 0.0
C527 C 0.0675 0.47819 0.43027 0.0
C528 C 0.05687 0.48028 0.40373 0.0
C529 C 0.04835 0.45648 0.38983 0.0
C530 C 0.04185 0.53956 0.47037 0.0
C531 C 0.06395 0.54597 0.48722 0.0
C532 C 0.04376 0.51844 0.45101 0.0
C533 C 0.06765 0.50287 0.44834 0.0
C534 C 0.08997 0.50939 0.46494 0.0
C535 C 0.08826 0.53112 0.484 0.0
H536 H 0.98193 0.91154 0.44767 0.0
H537 H 0.90786 0.94603 0.47971 0.0
H538 H 0.99112 0.9548 0.42366 0.0
H539 H 0.9172 0.98998 0.45565 0.0
H540 H 0.97707 0.06875 0.44982 0.0
H541 H 0.95351 0.02636 0.46353 0.0
H542 H 0.97638 0.98744 0.38748 0.0
H543 H 1.0002 0.02957 0.37381 0.0
C544 C 0.96729 0.92827 0.44903 0.0
C545 C 0.94424 0.92551 0.46556 0.0
C546 C 0.97246 0.95304 0.43515 0.0
C547 C 0.95492 0.97589 0.43777 0.0
C548 C 0.93112 0.97275 0.45332 0.0
C549 C 0.92567 0.9476 0.46689 0.0
C550 C 0.97655 0.05142 0.4357 0.0
C551 C 0.99108 0.05241 0.41097 0.0
C552 C 0.96287 0.02714 0.44352 0.0
C553 C 0.96345 0.0034 0.42677 0.0
C554 C 0.97597 0.00525 0.40103 0.0
C555 C 0.98962 0.02945 0.39321 0.0
H556 H 0.39964 0.55802 0.53116 0.0
H557 H 0.45427 0.51092 0.48019 0.0
H558 H 0.39658 0.51836 0.56296 0.0
H559 H 0.45054 0.47141 0.51122 0.0
H560 H 0.45393 0.4549 0.62032 0.0
H561 H 0.43796 0.49406 0.5929 0.0
H562 H 0.41134 0.43736 0.5302 0.0
H563 H 0.42676 0.39811 0.55752 0.0
C564 C 0.41057 0.53907 0.52655 0.0
C565 C 0.42738 0.53754 0.50338 0.0
C566 C 0.40881 0.51649 0.54468 0.0
C567 C 0.42311 0.49184 0.53933 0.0
C568 C 0.43901 0.49006 0.51561 0.0
C569 C 0.44134 0.51274 0.49799 0.0
C570 C 0.44363 0.45061 0.60124 0.0
C571 C 0.44242 0.42335 0.59079 0.0
C572 C 0.43445 0.47311 0.58556 0.0
C573 C 0.42402 0.46865 0.55924 0.0
C574 C 0.41965 0.44129 0.55032 0.0
C575 C 0.42851 0.41882 0.56606 0.0
H576 H 0.62108 0.5931 0.04992 0.0
H577 H 0.54249 0.60117 0.08799 0.0
H578 H 0.60296 0.61222 0.00782 0.0
H579 H 0.52451 0.62091 0.0458 0.0
H580 H 0.49912 0.6016 0.95491 0.0
H581 H 0.51483 0.59795 0.0022 0.0
H582 H 0.58298 0.65086 0.98283 0.0
H583 H 0.56718 0.65405 0.93546 0.0
C584 C 0.60013 0.59971 0.04962 0.0
C585 C 0.58313 0.5951 0.07222 0.0
C586 C 0.58975 0.61082 0.02543 0.0
C587 C 0.56218 0.61772 0.02336 0.0
C588 C 0.54571 0.61527 0.04664 0.0
C589 C 0.55608 0.60409 0.07085 0.0
C590 C 0.51706 0.61291 0.96111 0.0
C591 C 0.53203 0.6281 0.94196 0.0
C592 C 0.52602 0.61101 0.98813 0.0
C593 C 0.55024 0.62405 0.99624 0.0
C594 C 0.5644 0.64041 0.97715 0.0
C595 C 0.55534 0.64238 0.95018 0.0
H596 H 0.45248 0.91041 0.09357 0.0
H597 H 0.38431 0.94708 0.05148 0.0
H598 H 0.46335 0.88353 0.05265 0.0
H599 H 0.39576 0.92167 0.01075 0.0
H600 H 0.4136 0.8735 0.93898 0.0
H601 H 0.39932 0.88106 0.98603 0.0
H602 H 0.48285 0.89349 0.00959 0.0
H603 H 0.49699 0.88371 0.96267 0.0
C604 C 0.43956 0.91242 0.07579 0.0
C605 C 0.41774 0.93121 0.07573 0.0
C606 C 0.44593 0.89719 0.05225 0.0
C607 C 0.43068 0.90057 0.02816 0.0
C608 C 0.40785 0.91803 0.02885 0.0
C609 C 0.40136 0.93294 0.05232 0.0
C610 C 0.42886 0.87707 0.9545 0.0
C611 C 0.45628 0.87832 0.94744 0.0
C612 C 0.42073 0.88164 0.9814 0.0
C613 C 0.43982 0.8887 0.00159 0.0
C614 C 0.46753 0.88798 0.99474 0.0
C615 C 0.47571 0.88255 0.96786 0.0
H616 H 0.52897 0.35587 0.54944 0.0
H617 H 0.55788 0.4388 0.56734 0.0
H618 H 0.54136 0.3623 0.50136 0.0
H619 H 0.57021 0.445 0.5197 0.0
H620 H 0.61757 0.43548 0.44228 0.0
H621 H 0.6051 0.42351 0.48879 0.0
H622 H 0.5275 0.39386 0.46067 0.0
H623 H 0.53995 0.40571 0.41364 0.0
C624 C 0.53783 0.37544 0.54315 0.0
C625 C 0.54247 0.39683 0.56218 0.0
C626 C 0.54486 0.3791 0.51567 0.0
C627 C 0.55692 0.40403 0.50698 0.0
C628 C 0.56132 0.4254 0.52598 0.0
C629 C 0.55414 0.42187 0.55325 0.0
C630 C 0.59788 0.42626 0.44583 0.0
C631 C 0.57959 0.42194 0.42424 0.0
C632 C 0.59076 0.41945 0.47252 0.0
C633 C 0.56524 0.40813 0.47828 0.0
C634 C 0.54734 0.40253 0.45668 0.0
C635 C 0.55444 0.40944 0.42983 0.0
H636 H 0.42247 0.13159 0.54818 0.0
H637 H 0.47574 0.06131 0.538 0.0
H638 H 0.40363 0.12346 0.50237 0.0
H639 H 0.45767 0.05365 0.49202 0.0
H640 H 0.42864 0.05415 0.40533 0.0
H641 H 0.45103 0.07712 0.44366 0.0
H642 H 0.37544 0.079 0.48776 0.0
H643 H 0.35297 0.05577 0.44971 0.0
C644 C 0.43069 0.11501 0.53569 0.0
C645 C 0.45042 0.09701 0.54624 0.0
C646 C 0.41992 0.11033 0.50967 0.0
C647 C 0.42928 0.08799 0.49377 0.0
C648 C 0.45034 0.07119 0.50378 0.0
C649 C 0.46058 0.07545 0.53001 0.0
C650 C 0.41661 0.06005 0.4229 0.0
C651 C 0.3891 0.05277 0.42466 0.0
C652 C 0.42948 0.07315 0.44481 0.0
C653 C 0.41495 0.07964 0.4686 0.0
C654 C 0.38703 0.07438 0.46952 0.0
C655 C 0.37423 0.0609 0.44781 0.0
H656 H 0.03648 0.6026 0.62516 0.0
H657 H 0.06302 0.53639 0.57222 0.0
H658 H 0.99674 0.57537 0.63803 0.0
H659 H 0.02289 0.50921 0.58462 0.0
H660 H 0.92786 0.51481 0.5681 0.0
H661 H 0.97574 0.52656 0.56859 0.0
H662 H 0.97446 0.52927 0.65679 0.0
H663 H 0.92617 0.51673 0.65632 0.0
C664 C 0.03449 0.58157 0.61745 0.0
C665 C 0.05286 0.57137 0.59802 0.0
C666 C 0.01171 0.56602 0.62472 0.0
C667 C 0.00662 0.54032 0.6121 0.0
C668 C 0.02637 0.52899 0.59462 0.0
C669 C 0.04946 0.54436 0.58776 0.0
C670 C 0.93783 0.51757 0.58764 0.0
C671 C 0.92326 0.51526 0.61217 0.0
C672 C 0.96534 0.52393 0.58793 0.0
C673 C 0.97886 0.52863 0.61274 0.0
C674 C 0.96451 0.52559 0.6374 0.0
C675 C 0.93696 0.51853 0.63713 0.0
H676 H 0.96597 0.8578 0.5887 0.0
H677 H 0.92908 0.93473 0.56248 0.0
H678 H 0.00476 0.8834 0.60619 0.0
H679 H 0.96831 0.96063 0.58025 0.0
H680 H 0.04251 0.9885 0.63975 0.0
H681 H 0.99861 0.96908 0.6266 0.0
H682 H 0.03892 0.91017 0.57402 0.0
H683 H 0.08265 0.92962 0.58671 0.0
C684 C 0.96581 0.88033 0.58754 0.0
C685 C 0.94469 0.89436 0.57424 0.0
C686 C 0.98808 0.8949 0.59729 0.0
C687 C 0.98967 0.92382 0.59395 0.0
C688 C 0.96746 0.93828 0.58293 0.0
C689 C 0.94499 0.92355 0.57304 0.0
C690 C 0.04199 0.97171 0.62506 0.0
C691 C 0.06608 0.96045 0.61441 0.0
C692 C 0.01687 0.96067 0.61757 0.0
C693 C 0.01555 0.93795 0.59969 0.0
C694 C 0.03952 0.92748 0.58819 0.0
C695 C 0.06452 0.9387 0.59537 0.0
H696 H 0.02876 0.41859 0.98833 0.0
H697 H 0.06304 0.40979 0.90781 0.0
H698 H 0.99211 0.44576 0.97017 0.0
H699 H 0.02712 0.43955 0.88923 0.0
H700 H 0.93723 0.45163 0.8636 0.0
H701 H 0.98133 0.43474 0.87869 0.0
H702 H 0.97453 0.48512 0.95173 0.0
H703 H 0.92955 0.49977 0.93749 0.0
C704 C 0.0285 0.42275 0.96665 0.0
C705 C 0.04797 0.41117 0.94931 0.0
C706 C 0.00774 0.43903 0.95618 0.0
C707 C 0.00623 0.44471 0.92802 0.0
C708 C 0.0272 0.43503 0.91091 0.0
C709 C 0.04795 0.41831 0.92152 0.0
C710 C 0.94536 0.45894 0.88287 0.0
C711 C 0.92994 0.47622 0.89985 0.0
C712 C 0.97077 0.44962 0.8914 0.0
C713 C 0.98149 0.45814 0.91673 0.0
C714 C 0.96664 0.47724 0.93261 0.0
C715 C 0.9409 0.48573 0.9245 0.0
H716 H 0.09143 0.04792 0.90529 0.0
H717 H 0.05878 0.97913 0.85902 0.0
H718 H 0.04889 0.07265 0.90057 0.0
H719 H 0.01555 0.0041 0.85469 0.0
H720 H 0.98338 0.12327 0.87186 0.0
H721 H 0.02133 0.09336 0.85973 0.0
H722 H 0.97889 0.0224 0.89271 0.0
H723 H 0.94056 0.05252 0.90463 0.0
C724 C 0.07517 0.03806 0.89405 0.0
C725 C 0.07848 0.01152 0.8826 0.0
C726 C 0.05086 0.05235 0.89115 0.0
C727 C 0.02908 0.04039 0.87698 0.0
C728 C 0.03214 0.01377 0.86557 0.0
C729 C 0.05683 -0.00045 0.86806 0.0
C730 C 0.98159 0.10105 0.87522 0.0
C731 C 0.95918 0.09013 0.88916 0.0
C732 C 0.00336 0.08399 0.86848 0.0
C733 C 0.00316 0.05574 0.87576 0.0
C734 C 0.97944 0.04412 0.88679 0.0
C735 C 0.95746 0.06129 0.89346 0.0
H736 H 0.56316 0.0704 0.54734 0.0
H737 H 0.53293 0.02953 0.61996 0.0
H738 H 0.57716 0.02554 0.52904 0.0
H739 H 0.5472 0.98479 0.60165 0.0
H740 H 0.60071 0.93836 0.50233 0.0
H741 H 0.6033 0.98 0.5313 0.0
H742 H 0.52336 0.96233 0.56251 0.0
H743 H 0.52073 0.92131 0.53371 0.0
C744 C 0.56039 0.05204 0.55988 0.0
C745 C 0.54622 0.05353 0.5848 0.0
C746 C 0.56852 0.02628 0.54938 0.0
C747 C 0.56267 0.00159 0.56363 0.0
C748 C 0.55145 0.00344 0.58996 0.0
C749 C 0.54334 0.02914 0.60047 0.0
C750 C 0.58397 0.94316 0.51583 0.0
C751 C 0.56039 0.92677 0.51559 0.0
C752 C 0.58543 0.96699 0.53231 0.0
C753 C 0.56358 0.9744 0.54924 0.0
C754 C 0.54071 0.95703 0.55003 0.0
C755 C 0.53908 0.93364 0.5333 0.0
H756 H 0.61343 0.06001 0.97608 0.0
H757 H 0.52661 0.06974 0.97193 0.0
H758 H 0.60992 0.01715 0.94884 0.0
H759 H 0.52327 0.02764 0.9448 0.0
H760 H 0.52376 0.96525 0.87949 0.0
H761 H 0.53782 0.01004 0.8978 0.0
H762 H 0.58735 0.96848 0.95789 0.0
H763 H 0.57337 0.92342 0.93966 0.0
C764 C 0.59371 0.05318 0.96914 0.0
C765 C 0.57028 0.06815 0.97624 0.0
C766 C 0.59172 0.02871 0.95364 0.0
C767 C 0.56636 0.01928 0.9445 0.0
C768 C 0.54313 0.03464 0.95117 0.0
C769 C 0.54504 0.05863 0.96696 0.0
C770 C 0.53814 0.96554 0.8962 0.0
C771 C 0.54694 0.94066 0.90849 0.0
C772 C 0.54616 0.99124 0.90668 0.0
C773 C 0.56326 0.99267 0.92955 0.0
C774 C 0.57414 0.96795 0.94023 0.0
C775 C 0.56602 0.94214 0.92981 0.0
H776 H 0.44914 0.5559 0.85749 0.0
H777 H 0.426 0.58606 0.93729 0.0
H778 H 0.43701 0.50876 0.87112 0.0
H779 H 0.41427 0.53875 0.95105 0.0
H780 H 0.39593 0.4479 0.96894 0.0
H781 H 0.38913 0.49283 0.94596 0.0
H782 H 0.46544 0.4825 0.90412 0.0
H783 H 0.47222 0.43821 0.92696 0.0
C784 C 0.44064 0.55261 0.87766 0.0
C785 C 0.43911 0.57458 0.89653 0.0
C786 C 0.43377 0.52559 0.88547 0.0
C787 C 0.42539 0.51999 0.91236 0.0
C788 C 0.42071 0.54242 0.93019 0.0
C789 C 0.42746 0.56956 0.9223 0.0
C790 C 0.4109 0.45506 0.95436 0.0
C791 C 0.43473 0.43972 0.94988 0.0
C792 C 0.40705 0.48076 0.94132 0.0
C793 C 0.42668 0.49115 0.92317 0.0
C794 C 0.4497 0.47494 0.91764 0.0
C795 C 0.45375 0.44965 0.93094 0.0
H796 H 0.90632 0.05251 0.99326 0.0
H797 H 0.99293 0.05516 0.00528 0.0
H798 H 0.90335 0.01312 0.02506 0.0
H799 H 0.98985 0.01628 0.03692 0.0
H800 H 0.9753 0.96005 0.10792 0.0
H801 H 0.96992 0.00403 0.08346 0.0
H802 H 0.92114 0.96284 0.02253 0.0
H803 H 0.92642 0.91888 0.04683 0.0
C804 C 0.92464 0.04483 0.0028 0.0
C805 C 0.94989 0.05674 0.99657 0.0
C806 C 0.92292 0.02236 0.02096 0.0
C807 C 0.94635 0.01185 0.03356 0.0
C808 C 0.97142 0.02422 0.02781 0.0
C809 C 0.9732 0.04629 0.00941 0.0
C810 C 0.96293 0.96047 0.08966 0.0
C811 C 0.95163 0.93589 0.07909 0.0
C812 C 0.95995 0.98561 0.07562 0.0
C813 C 0.94536 0.9867 0.05099 0.0
C814 C 0.9324 0.96259 0.04152 0.0
C815 C 0.93561 0.9374 0.05537 0.0
H816 H 0.98518 0.18591 0.36657 0.0
H817 H 0.0506 0.16581 0.31149 0.0
H818 H 0.98154 0.23192 0.3457 0.0
H819 H 0.04766 0.21237 0.29149 0.0
H820 H 0.05827 0.30485 0.34187 0.0
H821 H 0.05851 0.25544 0.33045 0.0
H822 H 0.97861 0.26321 0.29587 0.0
H823 H 0.97899 0.31305 0.30597 0.0
C824 C 0.99802 0.19093 0.3493 0.0
C825 C 0.01833 0.17245 0.34085 0.0
C826 C 0.99587 0.21718 0.33725 0.0
C827 C 0.01443 0.22557 0.3171 0.0
C828 C 0.03303 0.20621 0.30684 0.0
C829 C 0.03466 0.17961 0.31834 0.0
C830 C 0.04162 0.29639 0.33012 0.0
C831 C 0.01864 0.31261 0.32481 0.0
C832 C 0.04167 0.26811 0.32365 0.0
C833 C 0.01844 0.25563 0.31256 0.0
C834 C 0.99678 0.27249 0.30426 0.0
C835 C 0.9971 0.301 0.30992 0.0
H836 H 0.0661 0.71463 0.10459 0.0
H837 H 0.02282 0.68952 0.17733 0.0
H838 H 0.0532 0.76267 0.11288 0.0
H839 H 0.01043 0.73768 0.18566 0.0
H840 H 0.98242 0.83039 0.18074 0.0
H841 H 0.01854 0.79573 0.18515 0.0
H842 H 0.99693 0.76197 0.10647 0.0
H843 H 0.96021 0.79527 0.10251 0.0
C844 C 0.05524 0.71944 0.12324 0.0
C845 C 0.04385 0.69809 0.13926 0.0
C846 C 0.04789 0.74705 0.12794 0.0
C847 C 0.0299 0.75346 0.14919 0.0
C848 C 0.02395 0.73307 0.16882 0.0
C849 C 0.03109 0.70537 0.16397 0.0
C850 C 0.98562 0.8158 0.16419 0.0
C851 C 0.96883 0.81616 0.14085 0.0
C852 C 0.00639 0.79618 0.16672 0.0
C853 C 0.01098 0.77693 0.14577 0.0
C854 C 0.99437 0.77733 0.12248 0.0
C855 C 0.97325 0.79636 0.12025 0.0
H856 H 0.31797 0.99452 0.17559 0.0
H857 H 0.37857 0.9429 0.21428 0.0
H858 H 0.29406 -0.00166 0.21897 0.0
H859 H 0.35432 0.94654 0.25749 0.0
H860 H 0.31494 0.0437 0.30473 0.0
H861 H 0.3183 0.02665 0.25788 0.0
H862 H 0.30956 0.9422 0.28677 0.0
H863 H 0.30548 0.95942 0.33376 0.0
C864 C 0.32563 0.98302 0.193 0.0
C865 C 0.35065 0.96909 0.19171 0.0
C866 C 0.3119 0.98528 0.21784 0.0
C867 C 0.32267 0.97319 0.24157 0.0
C868 C 0.34561 0.9561 0.23946 0.0
C869 C 0.35958 0.95415 0.21472 0.0
C870 C 0.31281 0.02161 0.30091 0.0
C871 C 0.30989 0.00291 0.32267 0.0
C872 C 0.31456 0.01183 0.27415 0.0
C873 C 0.31405 0.98311 0.26878 0.0
C874 C 0.30979 0.96443 0.29043 0.0
C875 C 0.30741 0.97429 0.31722 0.0
H876 H 0.6535 0.57151 0.22014 0.0
H877 H 0.61751 0.50733 0.17076 0.0
H878 H 0.65041 0.54086 0.26028 0.0
H879 H 0.61475 0.47691 0.20963 0.0
H880 H 0.59349 0.43238 0.28533 0.0
H881 H 0.59239 0.46848 0.25067 0.0
H882 H 0.66963 0.49932 0.27895 0.0
H883 H 0.66973 0.46446 0.31499 0.0
C884 C 0.64475 0.55097 0.21791 0.0
C885 C 0.63527 0.54195 0.1924 0.0
C886 C 0.64309 0.53337 0.24077 0.0
C887 C 0.63198 0.50645 0.23833 0.0
C888 C 0.62267 0.49769 0.21264 0.0
C889 C 0.62431 0.5152 0.19008 0.0
C890 C 0.60991 0.44727 0.28466 0.0
C891 C 0.63134 0.44586 0.30345 0.0
C892 C 0.60948 0.46782 0.2645 0.0
C893 C 0.63101 0.48683 0.26186 0.0
C894 C 0.65246 0.48544 0.28064 0.0
C895 C 0.65262 0.46522 0.30119 0.0
H896 H 0.33206 0.34789 0.96284 0.0
H897 H 0.3157 0.36844 0.04723 0.0
H898 H 0.28355 0.34531 0.95393 0.0
H899 H 0.26735 0.36652 0.03818 0.0
H900 H 0.18279 0.33493 0.01978 0.0
H901 H 0.23148 0.33406 0.02779 0.0
H902 H 0.24464 0.37566 0.95057 0.0
H903 H 0.19609 0.37595 0.94226 0.0
C904 C 0.31813 0.35192 0.97947 0.0
C905 C 0.32776 0.35834 0.00575 0.0
C906 C 0.29033 0.35057 0.97434 0.0
C907 C 0.27155 0.35567 0.99536 0.0
C908 C 0.28123 0.36203 0.02163 0.0
C909 C 0.30899 0.36331 0.02677 0.0
C910 C 0.19609 0.34372 0.00443 0.0
C911 C 0.18554 0.35554 0.98041 0.0
C912 C 0.22399 0.34338 0.0091 0.0
C913 C 0.24197 0.3549 0.98987 0.0
C914 C 0.23141 0.36631 0.96565 0.0
C915 C 0.20353 0.3666 0.96097 0.0
H916 H 0.17653 0.64646 0.505 0.0
H917 H 0.18564 0.56106 0.53106 0.0
H918 H 0.22409 0.64717 0.49079 0.0
H919 H 0.23283 0.56194 0.51742 0.0
H920 H 0.30593 0.56144 0.46191 0.0
H921 H 0.25882 0.56318 0.47572 0.0
H922 H 0.27102 0.64538 0.50909 0.0
H923 H 0.31853 0.64386 0.49471 0.0
C924 C 0.18862 0.62787 0.5077 0.0
C925 C 0.17717 0.60365 0.51902 0.0
C926 C 0.21593 0.62835 0.49976 0.0
C927 C 0.23229 0.60457 0.50283 0.0
C928 C 0.22077 0.5805 0.51432 0.0
C929 C 0.19365 0.58004 0.52227 0.0
C930 C 0.29871 0.57993 0.47223 0.0
C931 C 0.31614 0.60246 0.4773 0.0
C932 C 0.27162 0.58086 0.48028 0.0
C933 C 0.2611 0.60434 0.49369 0.0
C934 C 0.27842 0.62706 0.49861 0.0
C935 C 0.30568 0.6261 0.49056 0.0
H936 H 0.68064 0.91605 0.4599 0.0
H937 H 0.67519 0.82967 0.48382 0.0
H938 H 0.7291 0.91525 0.46792 0.0
H939 H 0.72404 0.82903 0.49236 0.0
H940 H 0.81703 0.83285 0.47791 0.0
H941 H 0.76832 0.83189 0.46856 0.0
H942 H 0.75995 0.91275 0.50604 0.0
H943 H 0.80826 0.91394 0.51489 0.0
C944 C 0.68974 0.89687 0.46703 0.0
C945 C 0.67392 0.87294 0.4713 0.0
C946 C 0.7176 0.89646 0.47174 0.0
C947 C 0.73052 0.87212 0.4809 0.0
C948 C 0.71478 0.84807 0.48507 0.0
C949 C 0.68675 0.84849 0.48039 0.0
C950 C 0.80478 0.8505 0.48392 0.0
C951 C 0.81663 0.87354 0.497 0.0
C952 C 0.77684 0.84984 0.4788 0.0
C953 C 0.7602 0.87228 0.48649 0.0
C954 C 0.77216 0.89529 0.49946 0.0
C955 C 0.79993 0.89591 0.50463 0.0
H956 H 0.49954 0.83993 0.80334 0.0
H957 H 0.55398 0.79002 0.85221 0.0
H958 H 0.48268 0.79813 0.78126 0.0
H959 H 0.53814 0.74849 0.82868 0.0
H960 H 0.50277 0.67656 0.79504 0.0
H961 H 0.52026 0.72077 0.77868 0.0
H962 H 0.45875 0.76403 0.82439 0.0
H963 H 0.4421 0.72 0.84223 0.0
C964 C 0.50919 0.82032 0.80825 0.0
C965 C 0.52734 0.81811 0.83045 0.0
C966 C 0.49948 0.79641 0.79539 0.0
C967 C 0.50881 0.77025 0.80363 0.0
C968 C 0.53065 0.76857 0.822 0.0
C969 C 0.5397 0.79236 0.83556 0.0
C970 C 0.49195 0.69532 0.80058 0.0
C971 C 0.47198 0.69494 0.82119 0.0
C972 C 0.50204 0.72066 0.791 0.0
C973 C 0.49129 0.74562 0.80091 0.0
C974 C 0.4675 0.74493 0.81664 0.0
C975 C 0.45795 0.71966 0.82693 0.0
H976 H 0.44916 0.28969 0.65291 0.0
H977 H 0.52078 0.31974 0.69381 0.0
H978 H 0.45951 0.24257 0.66809 0.0
H979 H 0.53191 0.2723 0.70765 0.0
H980 H 0.54748 0.19531 0.6371 0.0
H981 H 0.54084 0.24011 0.65937 0.0
H982 H 0.4776 0.20487 0.70931 0.0
H983 H 0.48496 0.1597 0.68809 0.0
C984 C 0.46624 0.28644 0.66643 0.0
C985 C 0.48434 0.30819 0.67186 0.0
C986 C 0.47221 0.25948 0.67514 0.0
C987 C 0.49672 0.25392 0.68866 0.0
C988 C 0.51288 0.27618 0.69733 0.0
C989 C 0.50641 0.30332 0.68942 0.0
C990 C 0.53325 0.19669 0.65389 0.0
C991 C 0.51622 0.17422 0.66022 0.0
C992 C 0.52952 0.22231 0.66677 0.0
C993 C 0.50839 0.22587 0.68569 0.0
C994 C 0.49399 0.20254 0.69478 0.0
C995 C 0.49824 0.1767 0.68247 0.0
H996 H 0.81007 0.52686 0.80448 0.0
H997 H 0.88438 0.56452 0.77608 0.0
H998 H 0.79891 0.514 0.7576 0.0
H999 H 0.87327 0.55107 0.72944 0.0
H1000 H 0.79818 0.49879 0.6592 0.0
H1001 H 0.79941 0.53125 0.69784 0.0
H1002 H 0.86993 0.48933 0.72937 0.0
H1003 H 0.86812 0.45611 0.69193 0.0
C1004 C 0.8233 0.53379 0.78818 0.0
C1005 C 0.84864 0.5457 0.79407 0.0
C1006 C 0.81688 0.52634 0.76132 0.0
C1007 C 0.83563 0.53099 0.74029 0.0
C1008 C 0.85869 0.54708 0.74552 0.0
C1009 C 0.86499 0.55474 0.77225 0.0
C1010 C 0.81411 0.49663 0.67425 0.0
C1011 C 0.83358 0.47525 0.67202 0.0
C1012 C 0.81476 0.51525 0.69622 0.0
C1013 C 0.83513 0.51305 0.71596 0.0
C1014 C 0.85446 0.49178 0.71385 0.0
C1015 C 0.85347 0.47283 0.69235 0.0
H1016 H 0.18226 0.02252 0.71499 0.0
H1017 H 0.10142 0.04872 0.73689 0.0
H1018 H 0.18936 0.00595 0.76147 0.0
H1019 H 0.10865 0.03176 0.78315 0.0
H1020 H 0.11563 0.93587 0.81256 0.0
H1021 H 0.11393 0.97462 0.78075 0.0
H1022 H 0.18477 0.01057 0.81814 0.0
H1023 H 0.18587 0.97227 0.8513 0.0
C1024 C 0.16649 0.02609 0.72997 0.0
C1025 C 0.14075 0.03556 0.72185 0.0
C1026 C 0.17064 0.01661 0.75666 0.0
C1027 C 0.14917 0.01674 0.77541 0.0
C1028 C 0.12531 0.03102 0.76876 0.0
C1029 C 0.12123 0.04074 0.74218 0.0
C1030 C 0.13037 0.95239 0.8147 0.0
C1031 C 0.15034 0.9513 0.8351 0.0
C1032 C 0.12935 0.97464 0.7965 0.0
C1033 C 0.14879 0.9959 0.79757 0.0
C1034 C 0.16922 0.9947 0.8174 0.0
C1035 C 0.16987 0.97269 0.83618 0.0
H1036 H 0.81768 0.15461 0.91539 0.0
H1037 H 0.84005 0.1364 -0.00109 0.0
H1038 H 0.77055 0.15901 0.92911 0.0
H1039 H 0.79269 0.14026 0.01255 0.0
H1040 H 0.71079 0.17883 0.03215 0.0
H1041 H 0.75772 0.17525 0.01766 0.0
H1042 H 0.73259 0.13127 0.94498 0.0
H1043 H 0.6854 0.13534 0.95926 0.0
C1044 C 0.81255 0.15143 0.93669 0.0
C1045 C 0.83268 0.1452 0.95607 0.0
C1046 C 0.78545 0.15379 0.94451 0.0
C1047 C 0.7778 0.14999 0.97192 0.0
C1048 C 0.79794 0.14369 0.99132 0.0
C1049 C 0.82507 0.14132 0.98349 0.0
C1050 C 0.71521 0.1685 0.01299 0.0
C1051 C 0.69432 0.15733 0.99687 0.0
C1052 C 0.74218 0.16626 0.0048 0.0
C1053 C 0.74898 0.15279 0.98027 0.0
C1054 C 0.72805 0.142 0.96389 0.0
C1055 C 0.701 0.14425 0.97209 0.0
H1056 H 0.06351 0.90807 0.21315 0.0
H1057 H 0.98145 0.93902 0.21612 0.0
H1058 H 0.07724 0.94297 0.24624 0.0
H1059 H 0.99512 0.97359 0.24997 0.0
H1060 H 0.03568 0.0504 0.28692 0.0
H1061 H 0.02242 0.01586 0.25296 0.0
H1062 H 0.07158 0.95426 0.29392 0.0
H1063 H 0.0853 0.98882 0.32743 0.0
C1064 C 0.04831 0.92211 0.22113 0.0
C1065 C 0.02138 0.9208 0.21204 0.0
C1066 C 0.05619 0.94208 0.24016 0.0
C1067 C 0.03728 0.96106 0.25069 0.0
C1068 C 0.01024 0.95952 0.24189 0.0
C1069 C 1.00237 0.9396 0.22269 0.0
C1070 C 0.04385 0.02955 0.28851 0.0
C1071 C 0.06154 0.02232 0.30986 0.0
C1072 C 0.03604 0.00971 0.26922 0.0
C1073 C 0.04583 0.9823 0.27086 0.0
C1074 C 0.06388 0.97526 0.29194 0.0
C1075 C 0.07166 0.99506 0.31122 0.0
H1076 H 0.99833 0.47084 0.30213 0.0
H1077 H 0.93672 0.43226 0.25228 0.0
H1078 H 0.99771 0.51158 0.27261 0.0
H1079 H 0.93679 0.47264 0.2221 0.0
H1080 H 0.92222 0.5594 0.18965 0.0
H1081 H 0.92292 0.5202 0.22124 0.0
H1082 H 0.00977 0.52794 0.22842 0.0
H1083 H 0.00891 0.56769 0.19759 0.0
C1084 C 0.98491 0.47088 0.28462 0.0
C1085 C 0.9675 0.44832 0.27959 0.0
C1086 C 0.98461 0.49426 0.26763 0.0
C1087 C 0.96708 0.49554 0.24503 0.0
C1088 C 0.95013 0.47265 0.23965 0.0
C1089 C 0.95026 0.44936 0.2568 0.0
C1090 C 0.94142 0.55294 0.19825 0.0
C1091 C 0.9655 0.56664 0.19107 0.0
C1092 C 0.94187 0.53026 0.21614 0.0
C1093 C 0.96645 0.52062 0.22714 0.0
C1094 C 0.99044 0.5349 0.22057 0.0
C1095 C 0.98996 0.5577 0.20283 0.0
H1096 H 0.21256 0.04478 0.94808 0.0
H1097 H 0.21792 0.95595 0.96077 0.0
H1098 H 0.24859 0.052 0.98124 0.0
H1099 H 0.25442 0.96318 0.99358 0.0
H1100 H 0.30021 0.98854 0.07086 0.0
H1101 H 0.26272 0.98205 0.0391 0.0
H1102 H 0.29695 0.04434 0.98555 0.0
H1103 H 0.33413 0.05122 0.01749 0.0
C1104 C 0.22149 0.02677 0.95787 0.0
C1105 C 0.21239 -0.00022 0.95174 0.0
C1106 C 0.24225 0.03092 0.97679 0.0
C1107 C 0.25443 0.00818 0.99002 0.0
C1108 C 0.24524 0.98117 0.984 0.0
C1109 C 0.22443 0.97701 0.96507 0.0
C1110 C 0.29966 0.00097 0.05238 0.0
C1111 C 0.32017 0.02041 0.04671 0.0
C1112 C 0.27827 -0.0029 0.03409 0.0
C1113 C 0.27688 0.01262 0.00975 0.0
C1114 C 0.29724 0.03228 0.00426 0.0
C1115 C 0.31864 0.03612 0.02252 0.0
H1116 H 0.6985 0.56185 0.04214 0.0
H1117 H 0.73535 0.48701 0.07396 0.0
H1118 H 0.72587 0.55785 0.00074 0.0
H1119 H 0.76304 0.48339 0.03303 0.0
H1120 H 0.78156 0.46342 0.94524 0.0
H1121 H 0.75449 0.47124 0.986 0.0
H1122 H 0.77134 0.55932 0.98123 0.0
H1123 H 0.79806 0.55154 0.93989 0.0
C1124 C 0.71283 0.54488 0.04056 0.0
C1125 C 0.71455 0.52458 0.06123 0.0
C1126 C 0.72851 0.54258 0.01682 0.0
C1127 C 0.74625 0.51999 0.01332 0.0
C1128 C 0.74902 0.50062 0.03471 0.0
C1129 C 0.73332 0.50285 0.05832 0.0
C1130 C 0.77929 0.48451 0.95268 0.0
C1131 C 0.79209 0.50682 0.93938 0.0
C1132 C 0.76397 0.48897 0.97623 0.0
C1133 C 0.76117 0.51585 0.98722 0.0
C1134 C 0.77306 0.53837 0.9733 0.0
C1135 C 0.78835 0.5339 0.94959 0.0
H1136 H 0.23844 0.94565 0.45701 0.0
H1137 H 0.29627 0.0091 0.47952 0.0
H1138 H 0.21776 0.94909 0.50233 0.0
H1139 H 0.27549 0.01263 0.52445 0.0
H1140 H 0.25856 0.97889 0.61075 0.0
H1141 H 0.27483 0.97993 0.56382 0.0
H1142 H 0.19246 0.98138 0.53438 0.0
H1143 H 0.17601 0.98024 0.58157 0.0
C1144 C 0.24651 0.96056 0.47145 0.0
C1145 C 0.26925 0.97679 0.4648 0.0
C1146 C 0.23459 0.96261 0.49734 0.0
C1147 C 0.24526 0.98088 0.51701 0.0
C1148 C 0.26717 -0.00201 0.50987 0.0
C1149 C 0.27902 0.99599 0.48408 0.0
C1150 C 0.24388 0.97947 0.59433 0.0
C1151 C 0.21602 0.97941 0.59989 0.0
C1152 C 0.25321 0.98026 0.56743 0.0
C1153 C 0.23491 0.98084 0.54545 0.0
C1154 C 0.20701 0.98078 0.55094 0.0
C1155 C 0.19764 0.98023 0.57793 0.0
H1156 H 0.74047 0.51741 0.56596 0.0
H1157 H 0.80478 0.47856 0.51985 0.0
H1158 H 0.71146 0.51601 0.52564 0.0
H1159 H 0.77591 0.47757 0.4795 0.0
H1160 H 0.70524 0.45374 0.42238 0.0
H1161 H 0.73501 0.45464 0.4622 0.0
H1162 H 0.70839 0.53814 0.48063 0.0
H1163 H 0.67841 0.53714 0.44119 0.0
C1164 C 0.74844 0.50863 0.54723 0.0
C1165 C 0.77495 0.49817 0.54612 0.0
C1166 C 0.73188 0.50798 0.52408 0.0
C1167 C 0.74143 0.49678 0.49934 0.0
C1168 C 0.76786 0.4861 0.49831 0.0
C1169 C 0.78445 0.48683 0.52142 0.0
C1170 C 0.7059 0.47236 0.43482 0.0
C1171 C 0.6894 0.49534 0.42863 0.0
C1172 C 0.72299 0.47289 0.4576 0.0
C1173 C 0.72392 0.4964 0.47468 0.0
C1174 C 0.7078 0.51955 0.46816 0.0
C1175 C 0.69076 0.51903 0.4454 0.0
H1176 H 0.08269 0.268 0.02108 0.0
H1177 H 0.02079 0.3081 0.06927 0.0
H1178 H 0.05824 0.22428 0.0244 0.0
H1179 H 0.99609 0.26433 0.07232 0.0
H1180 H 0.94757 0.21234 0.00313 0.0
H1181 H 0.97278 0.24664 0.02972 0.0
H1182 H 0.034 0.18513 0.04758 0.0
H1183 H 0.00887 0.15098 0.02098 0.0
C1184 C 0.06468 0.26717 0.03368 0.0
C1185 C 0.05318 0.29162 0.04411 0.0
C1186 C 0.0505 0.24206 0.03551 0.0
C1187 C 0.02475 0.24118 0.04785 0.0
C1188 C 0.01556 0.26461 0.06214 0.0
C1189 C 0.02982 0.28961 0.0605 0.0
C1190 C 0.96579 0.20589 0.01369 0.0
C1191 C 0.97666 0.17932 0.00943 0.0
C1192 C 0.98026 0.22547 0.02902 0.0
C1193 C 0.00568 0.21864 0.04028 0.0
C1194 C 0.01473 0.19107 0.03877 0.0
C1195 C 1.00034 0.17159 0.02349 0.0
H1196 H 1.00132 0.64674 0.4726 0.0
H1197 H 0.06331 0.70417 0.49853 0.0
H1198 H 0.97555 0.68497 0.45282 0.0
H1199 H 0.03739 0.74261 0.47899 0.0
H1200 H 0.92448 0.76272 0.48503 0.0
H1201 H 0.95044 0.72017 0.47851 0.0
H1202 H 0.01501 0.76754 0.44136 0.0
H1203 H 0.989 0.81009 0.44818 0.0
C1204 C 0.00984 0.6675 0.47332 0.0
C1205 C 0.03411 0.6726 0.48752 0.0
C1206 C 0.99499 0.6894 0.46207 0.0
C1207 C 0.00407 0.7169 0.46479 0.0
C1208 C 0.02981 0.72164 0.4764 0.0
C1209 C 0.04476 0.69963 0.48763 0.0
C1210 C 0.94348 0.76383 0.47403 0.0
C1211 C 0.95488 0.78968 0.46744 0.0
C1212 C 0.95857 0.73943 0.47046 0.0
C1213 C 0.98521 0.7406 0.46013 0.0
C1214 C 0.99487 0.76604 0.44997 0.0
C1215 C 0.97981 0.79035 0.45355 0.0
H1216 H 0.56676 0.76597 0.48971 0.0
H1217 H 0.5035 0.81266 0.5295 0.0
H1218 H 0.54333 0.72279 0.50088 0.0
H1219 H 0.48019 0.76954 0.54108 0.0
H1220 H 0.49769 0.64728 0.51794 0.0
H1221 H 0.52334 0.68837 0.5313 0.0
H1222 H 0.4553 0.74022 0.50942 0.0
H1223 H 0.42959 0.69906 0.49641 0.0
C1224 C 0.54857 0.76693 0.50203 0.0
C1225 C 0.53676 0.79266 0.50836 0.0
C1226 C 0.53498 0.74215 0.50839 0.0
C1227 C 0.50945 0.74274 0.5213 0.0
C1228 C 0.49944 0.76838 0.53055 0.0
C1229 C 0.51294 0.79307 0.52412 0.0
C1230 C 0.48788 0.66741 0.51689 0.0
C1231 C 0.46177 0.66999 0.50565 0.0
C1232 C 0.50268 0.69097 0.52438 0.0
C1233 C 0.49169 0.71765 0.52081 0.0
C1234 C 0.46445 0.71999 0.51251 0.0
C1235 C 0.44959 0.69635 0.50507 0.0
H1236 H 0.50092 0.56935 0.78653 0.0
H1237 H 0.57423 0.53488 0.82092 0.0
H1238 H 0.50116 0.53361 0.75135 0.0
H1239 H 0.5742 0.49884 0.78579 0.0
H1240 H 0.57934 0.45849 0.70038 0.0
H1241 H 0.58008 0.49415 0.73575 0.0
H1242 H 0.49431 0.48282 0.74866 0.0
H1243 H 0.49342 0.44744 0.71301 0.0
C1244 C 0.51713 0.55418 0.78657 0.0
C1245 C 0.53756 0.55491 0.80654 0.0
C1246 C 0.51713 0.53359 0.76652 0.0
C1247 C 0.53759 0.51336 0.76595 0.0
C1248 C 0.55827 0.51431 0.78564 0.0
C1249 C 0.55823 0.53488 0.8058 0.0
C1250 C 0.56065 0.46353 0.71083 0.0
C1251 C 0.53631 0.45021 0.70387 0.0
C1252 C 0.56112 0.48386 0.73116 0.0
C1253 C 0.53725 0.4913 0.74489 0.0
C1254 C 0.51296 0.47776 0.73814 0.0
C1255 C 0.51248 0.4574 0.71784 0.0
H1256 H 0.48341 0.91802 0.78354 0.0
H1257 H 0.44946 0.9884 0.82646 0.0
H1258 H 0.4835 0.9446 0.7413 0.0
H1259 H 0.44861 0.01477 0.78383 0.0
H1260 H 0.48036 0.06366 0.71091 0.0
H1261 H 0.47935 0.03661 0.75287 0.0
H1262 H 0.45463 0.96401 0.70712 0.0
H1263 H 0.45656 0.99095 0.66489 0.0
C1264 C 0.47563 0.93909 0.78389 0.0
C1265 C 0.46643 0.95116 0.80836 0.0
C1266 C 0.47555 0.95428 0.75959 0.0
C1267 C 0.46606 0.98181 0.75914 0.0
C1268 C 0.45647 0.99374 0.78356 0.0
C1269 C 0.45678 0.9786 0.80796 0.0
C1270 C 0.47468 0.04192 0.70978 0.0
C1271 C 0.46847 0.02943 0.68459 0.0
C1272 C 0.47392 0.02646 0.73389 0.0
C1273 C 0.46672 -0.00181 0.73342 0.0
C1274 C 0.46055 0.98568 0.70818 0.0
C1275 C 0.46153 0.00112 0.68399 0.0
H1276 H 0.49493 0.32658 0.9183 0.0
H1277 H 0.43516 0.27752 0.96088 0.0
H1278 H 0.52054 0.28458 0.90798 0.0
H1279 H 0.46088 0.23573 0.95131 0.0
H1280 H 0.51343 0.16572 0.9509 0.0
H1281 H 0.48545 0.20037 0.92799 0.0
H1282 H 0.54721 0.26232 0.94263 0.0
H1283 H 0.57538 0.22733 0.96467 0.0
C1284 C 0.4866 0.30663 0.92433 0.0
C1285 C 0.4635 0.30533 0.9411 0.0
C1286 C 0.50144 0.28259 0.91866 0.0
C1287 C 0.49345 0.25693 0.92982 0.0
C1288 C 0.4679 0.25513 0.94255 0.0
C1289 C 0.45295 0.27919 0.94803 0.0
C1290 C 0.5214 0.18655 0.94821 0.0
C1291 C 0.54627 0.19409 0.96002 0.0
C1292 C 0.50532 0.20642 0.93519 0.0
C1293 C 0.51365 0.23433 0.93412 0.0
C1294 C 0.54005 0.24103 0.94297 0.0
C1295 C 0.5563 0.221 0.95573 0.0
loop_
_geom_bond_atom_site_label_1
_geom_bond_atom_site_label_2
_geom_bond_distance
_geom_bond_site_symmetry_2
_ccdc_geom_bond_type
Mg0 O1 2.028 1_455 S
Mg0 O7 1.986 1_455 S
Mg0 O9 2.114 . S
Mg0 O10 2.251 . S
Mg0 O13 2.010 . S
O1 Mg0 2.028 1_655 S
O1 C4 1.250 . S
O2 Mg3 2.028 . S
O2 C4 1.248 . S
Mg3 O2 2.028 . S
Mg3 O8 2.032 . S
Mg3 O10 2.079 1_655 S
C4 O1 1.250 . S
C4 O2 1.248 . S
C5 O6 1.264 . S
C5 O13 1.249 . S
O6 C5 1.264 . S
O7 Mg0 1.986 1_655 S
O7 C11 1.246 . S
O8 Mg3 2.032 . S
O8 C11 1.259 . S
O9 Mg0 2.114 . S
O9 C12 1.252 . S
O10 Mg0 2.251 . S
O10 Mg3 2.079 1_455 S
O10 C12 1.273 . S
C11 O7 1.246 . S
C11 O8 1.259 . S
C12 O9 1.252 . S
C12 O10 1.273 . S
O13 Mg0 2.010 . S
O13 C5 1.249 . S
Mg14 O15 2.028 1_655 S
Mg14 O21 1.986 1_655 S
Mg14 O23 2.114 . S
Mg14 O24 2.251 . S
Mg14 O27 2.010 . S
O15 Mg14 2.028 1_455 S
O15 C18 1.250 . S
O16 Mg17 2.028 . S
O16 C18 1.248 . S
Mg17 O16 2.028 . S
Mg17 O22 2.032 . S
Mg17 O24 2.079 1_455 S
C18 O15 1.250 . S
C18 O16 1.248 . S
C19 O20 1.264 . S
C19 O27 1.249 . S
O20 C19 1.264 . S
O21 Mg14 1.986 1_455 S
O21 C25 1.246 . S
O22 Mg17 2.032 . S
O22 C25 1.259 . S
O23 Mg14 2.114 . S
O23 C26 1.252 . S
O24 Mg14 2.251 . S
O24 Mg17 2.079 1_655 S
O24 C26 1.273 . S
C25 O21 1.246 . S
C25 O22 1.259 . S
C26 O23 1.252 . S
C26 O24 1.273 . S
O27 Mg14 2.010 . S
O27 C19 1.249 . S
Mg28 O29 2.028 1_455 S
Mg28 O35 1.986 1_455 S
Mg28 O37 2.114 . S
Mg28 O38 2.251 . S
Mg28 O41 2.010 . S
O29 Mg28 2.028 1_655 S
O29 C32 1.250 . S
O30 Mg31 2.028 . S
O30 C32 1.248 . S
Mg31 O30 2.028 . S
Mg31 O36 2.032 . S
Mg31 O38 2.079 1_655 S
C32 O29 1.250 . S
C32 O30 1.248 . S
C33 O34 1.264 . S
C33 O41 1.249 . S
O34 C33 1.264 . S
O35 Mg28 1.986 1_655 S
O35 C39 1.246 . S
O36 Mg31 2.032 . S
O36 C39 1.259 . S
O37 Mg28 2.114 . S
O37 C40 1.252 . S
O38 Mg28 2.251 . S
O38 Mg31 2.079 1_455 S
O38 C40 1.273 . S
C39 O35 1.246 . S
C39 O36 1.259 . S
C40 O37 1.252 . S
C40 O38 1.273 . S
O41 Mg28 2.010 . S
O41 C33 1.249 . S
Mg42 O43 2.028 1_655 S
Mg42 O49 1.986 1_655 S
Mg42 O51 2.114 . S
Mg42 O52 2.251 . S
Mg42 O55 2.010 . S
O43 Mg42 2.028 1_455 S
O43 C46 1.250 . S
O44 Mg45 2.028 . S
O44 C46 1.248 . S
Mg45 O44 2.028 . S
Mg45 O50 2.032 . S
Mg45 O52 2.079 1_455 S
C46 O43 1.250 . S
C46 O44 1.248 . S
C47 O48 1.264 . S
C47 O55 1.249 . S
O48 C47 1.264 . S
O49 Mg42 1.986 1_455 S
O49 C53 1.246 . S
O50 Mg45 2.032 . S
O50 C53 1.259 . S
O51 Mg42 2.114 . S
O51 C54 1.252 . S
O52 Mg42 2.251 . S
O52 Mg45 2.079 1_655 S
O52 C54 1.273 . S
C53 O49 1.246 . S
C53 O50 1.259 . S
C54 O51 1.252 . S
C54 O52 1.273 . S
O55 Mg42 2.010 . S
O55 C47 1.249 . S
Mg56 O57 2.028 1_545 S
Mg56 O63 1.986 1_545 S
Mg56 O65 2.114 . S
Mg56 O66 2.251 . S
Mg56 O69 2.010 . S
O57 Mg56 2.028 1_565 S
O57 C60 1.250 . S
O58 Mg59 2.028 . S
O58 C60 1.248 . S
Mg59 O58 2.028 . S
Mg59 O64 2.032 . S
Mg59 O66 2.079 1_565 S
C60 O57 1.250 . S
C60 O58 1.248 . S
C61 O62 1.264 . S
C61 O69 1.249 . S
O62 C61 1.264 . S
O63 Mg56 1.986 1_565 S
O63 C67 1.246 . S
O64 Mg59 2.032 . S
O64 C67 1.259 . S
O65 Mg56 2.114 . S
O65 C68 1.252 . S
O66 Mg56 2.251 . S
O66 Mg59 2.079 1_545 S
O66 C68 1.273 . S
C67 O63 1.246 . S
C67 O64 1.259 . S
C68 O65 1.252 . S
C68 O66 1.273 . S
O69 Mg56 2.010 . S
O69 C61 1.249 . S
Mg70 O71 2.028 . S
Mg70 O77 1.986 . S
Mg70 O79 2.114 . S
Mg70 O80 2.251 . S
Mg70 O83 2.010 . S
O71 Mg70 2.028 . S
O71 C74 1.250 . S
O72 Mg73 2.028 . S
O72 C74 1.248 . S
Mg73 O72 2.028 . S
Mg73 O78 2.032 . S
Mg73 O80 2.079 . S
C74 O71 1.250 . S
C74 O72 1.248 . S
C75 O76 1.264 . S
C75 O83 1.249 . S
O76 C75 1.264 . S
O77 Mg70 1.986 . S
O77 C81 1.246 . S
O78 Mg73 2.032 . S
O78 C81 1.259 . S
O79 Mg70 2.114 . S
O79 C82 1.252 . S
O80 Mg70 2.251 . S
O80 Mg73 2.079 . S
O80 C82 1.273 . S
C81 O77 1.246 . S
C81 O78 1.259 . S
C82 O79 1.252 . S
C82 O80 1.273 . S
O83 Mg70 2.010 . S
O83 C75 1.249 . S
Mg84 O85 2.028 1_565 S
Mg84 O91 1.986 1_565 S
Mg84 O93 2.114 . S
Mg84 O94 2.251 . S
Mg84 O97 2.010 . S
O85 Mg84 2.028 1_545 S
O85 C88 1.250 . S
O86 Mg87 2.028 . S
O86 C88 1.248 . S
Mg87 O86 2.028 . S
Mg87 O92 2.032 . S
Mg87 O94 2.079 1_545 S
C88 O85 1.250 . S
C88 O86 1.248 . S
C89 O90 1.264 . S
C89 O97 1.249 . S
O90 C89 1.264 . S
O91 Mg84 1.986 1_545 S
O91 C95 1.246 . S
O92 Mg87 2.032 . S
O92 C95 1.259 . S
O93 Mg84 2.114 . S
O93 C96 1.252 . S
O94 Mg84 2.251 . S
O94 Mg87 2.079 1_565 S
O94 C96 1.273 . S
C95 O91 1.246 . S
C95 O92 1.259 . S
C96 O93 1.252 . S
C96 O94 1.273 . S
O97 Mg84 2.010 . S
O97 C89 1.249 . S
Mg98 O99 2.028 . S
Mg98 O105 1.986 . S
Mg98 O107 2.114 . S
Mg98 O108 2.251 . S
Mg98 O111 2.010 . S
O99 Mg98 2.028 . S
O99 C102 1.250 . S
O100 Mg101 2.028 . S
O100 C102 1.248 . S
Mg101 O100 2.028 . S
Mg101 O106 2.032 . S
Mg101 O108 2.079 . S
C102 O99 1.250 . S
C102 O100 1.248 . S
C103 O104 1.264 . S
C103 O111 1.249 . S
O104 C103 1.264 . S
O105 Mg98 1.986 . S
O105 C109 1.246 . S
O106 Mg101 2.032 . S
O106 C109 1.259 . S
O107 Mg98 2.114 . S
O107 C110 1.252 . S
O108 Mg98 2.251 . S
O108 Mg101 2.079 . S
O108 C110 1.273 . S
C109 O105 1.246 . S
C109 O106 1.259 . S
C110 O107 1.252 . S
C110 O108 1.273 . S
O111 Mg98 2.010 . S
O111 C103 1.249 . S
Mg112 O113 2.028 1_556 S
Mg112 O119 1.986 1_556 S
Mg112 O121 2.114 . S
Mg112 O122 2.251 . S
Mg112 O125 2.010 . S
O113 Mg112 2.028 1_554 S
O113 C116 1.250 . S
O114 Mg115 2.028 . S
O114 C116 1.248 . S
Mg115 O114 2.028 . S
Mg115 O120 2.032 . S
Mg115 O122 2.079 1_554 S
C116 O113 1.250 . S
C116 O114 1.248 . S
C117 O118 1.264 . S
C117 O125 1.249 . S
O118 C117 1.264 . S
O119 Mg112 1.986 1_554 S
O119 C123 1.246 . S
O120 Mg115 2.032 . S
O120 C123 1.259 . S
O121 Mg112 2.114 . S
O121 C124 1.252 . S
O122 Mg112 2.251 . S
O122 Mg115 2.079 1_556 S
O122 C124 1.273 . S
C123 O119 1.246 . S
C123 O120 1.259 . S
C124 O121 1.252 . S
C124 O122 1.273 . S
O125 Mg112 2.010 . S
O125 C117 1.249 . S
Mg126 O127 2.028 . S
Mg126 O133 1.986 . S
Mg126 O135 2.114 . S
Mg126 O136 2.251 . S
Mg126 O139 2.010 . S
O127 Mg126 2.028 . S
O127 C130 1.250 . S
O128 Mg129 2.028 . S
O128 C130 1.248 . S
Mg129 O128 2.028 . S
Mg129 O134 2.032 . S
Mg129 O136 2.079 . S
C130 O127 1.250 . S
C130 O128 1.248 . S
C131 O132 1.264 . S
C131 O139 1.249 . S
O132 C131 1.264 . S
O133 Mg126 1.986 . S
O133 C137 1.246 . S
O134 Mg129 2.032 . S
O134 C137 1.259 . S
O135 Mg126 2.114 . S
O135 C138 1.252 . S
O136 Mg126 2.251 . S
O136 Mg129 2.079 . S
O136 C138 1.273 . S
C137 O133 1.246 . S
C137 O134 1.259 . S
C138 O135 1.252 . S
C138 O136 1.273 . S
O139 Mg126 2.010 . S
O139 C131 1.249 . S
Mg140 O141 2.028 . S
Mg140 O147 1.986 . S
Mg140 O149 2.114 . S
Mg140 O150 2.251 . S
Mg140 O153 2.010 . S
O141 Mg140 2.028 . S
O141 C144 1.250 . S
O142 Mg143 2.028 . S
O142 C144 1.248 . S
Mg143 O142 2.028 . S
Mg143 O148 2.032 . S
Mg143 O150 2.079 . S
C144 O141 1.250 . S
C144 O142 1.248 . S
C145 O146 1.264 . S
C145 O153 1.249 . S
O146 C145 1.264 . S
O147 Mg140 1.986 . S
O147 C151 1.246 . S
O148 Mg143 2.032 . S
O148 C151 1.259 . S
O149 Mg140 2.114 . S
O149 C152 1.252 . S
O150 Mg140 2.251 . S
O150 Mg143 2.079 . S
O150 C152 1.273 . S
C151 O147 1.246 . S
C151 O148 1.259 . S
C152 O149 1.252 . S
C152 O150 1.273 . S
O153 Mg140 2.010 . S
O153 C145 1.249 . S
Mg154 O155 2.028 . S
Mg154 O161 1.986 . S
Mg154 O163 2.114 . S
Mg154 O164 2.251 . S
Mg154 O167 2.010 . S
O155 Mg154 2.028 . S
O155 C158 1.250 . S
O156 Mg157 2.028 . S
O156 C158 1.248 . S
Mg157 O156 2.028 . S
Mg157 O162 2.032 . S
Mg157 O164 2.079 . S
C158 O155 1.250 . S
C158 O156 1.248 . S
C159 O160 1.264 . S
C159 O167 1.249 . S
O160 C159 1.264 . S
O161 Mg154 1.986 . S
O161 C165 1.246 . S
O162 Mg157 2.032 . S
O162 C165 1.259 . S
O163 Mg154 2.114 . S
O163 C166 1.252 . S
O164 Mg154 2.251 . S
O164 Mg157 2.079 . S
O164 C166 1.273 . S
C165 O161 1.246 . S
C165 O162 1.259 . S
C166 O163 1.252 . S
C166 O164 1.273 . S
O167 Mg154 2.010 . S
O167 C159 1.249 . S
Mg168 O169 2.028 . S
Mg168 O175 1.986 . S
Mg168 O177 2.114 . S
Mg168 O178 2.251 . S
Mg168 O181 2.010 . S
O169 Mg168 2.028 . S
O169 C172 1.250 . S
O170 Mg171 2.028 . S
O170 C172 1.248 . S
Mg171 O170 2.028 . S
Mg171 O176 2.032 . S
Mg171 O178 2.079 . S
C172 O169 1.250 . S
C172 O170 1.248 . S
C173 O174 1.264 . S
C173 O181 1.249 . S
O174 C173 1.264 . S
O175 Mg168 1.986 . S
O175 C179 1.246 . S
O176 Mg171 2.032 . S
O176 C179 1.259 . S
O177 Mg168 2.114 . S
O177 C180 1.252 . S
O178 Mg168 2.251 . S
O178 Mg171 2.079 . S
O178 C180 1.273 . S
C179 O175 1.246 . S
C179 O176 1.259 . S
C180 O177 1.252 . S
C180 O178 1.273 . S
O181 Mg168 2.010 . S
O181 C173 1.249 . S
Mg182 O183 2.028 . S
Mg182 O189 1.986 . S
Mg182 O191 2.114 . S
Mg182 O192 2.251 . S
Mg182 O195 2.010 . S
O183 Mg182 2.028 . S
O183 C186 1.250 . S
O184 Mg185 2.028 . S
O184 C186 1.248 . S
Mg185 O184 2.028 . S
Mg185 O190 2.032 . S
Mg185 O192 2.079 . S
C186 O183 1.250 . S
C186 O184 1.248 . S
C187 O188 1.264 . S
C187 O195 1.249 . S
O188 C187 1.264 . S
O189 Mg182 1.986 . S
O189 C193 1.246 . S
O190 Mg185 2.032 . S
O190 C193 1.259 . S
O191 Mg182 2.114 . S
O191 C194 1.252 . S
O192 Mg182 2.251 . S
O192 Mg185 2.079 . S
O192 C194 1.273 . S
C193 O189 1.246 . S
C193 O190 1.259 . S
C194 O191 1.252 . S
C194 O192 1.273 . S
O195 Mg182 2.010 . S
O195 C187 1.249 . S
Mg196 O197 2.028 . S
Mg196 O203 1.986 . S
Mg196 O205 2.114 . S
Mg196 O206 2.251 . S
Mg196 O209 2.010 . S
O197 Mg196 2.028 . S
O197 C200 1.250 . S
O198 Mg199 2.028 . S
O198 C200 1.248 . S
Mg199 O198 2.028 . S
Mg199 O204 2.032 . S
Mg199 O206 2.079 . S
C200 O197 1.250 . S
C200 O198 1.248 . S
C201 O202 1.264 . S
C201 O209 1.249 . S
O202 C201 1.264 . S
O203 Mg196 1.986 . S
O203 C207 1.246 . S
O204 Mg199 2.032 . S
O204 C207 1.259 . S
O205 Mg196 2.114 . S
O205 C208 1.252 . S
O206 Mg196 2.251 . S
O206 Mg199 2.079 . S
O206 C208 1.273 . S
C207 O203 1.246 . S
C207 O204 1.259 . S
C208 O205 1.252 . S
C208 O206 1.273 . S
O209 Mg196 2.010 . S
O209 C201 1.249 . S
Mg210 O211 2.028 . S
Mg210 O217 1.986 . S
Mg210 O219 2.114 . S
Mg210 O220 2.251 . S
Mg210 O223 2.010 . S
O211 Mg210 2.028 . S
O211 C214 1.250 . S
O212 Mg213 2.028 . S
O212 C214 1.248 . S
Mg213 O212 2.028 . S
Mg213 O218 2.032 . S
Mg213 O220 2.079 . S
C214 O211 1.250 . S
C214 O212 1.248 . S
C215 O216 1.264 . S
C215 O223 1.249 . S
O216 C215 1.264 . S
O217 Mg210 1.986 . S
O217 C221 1.246 . S
O218 Mg213 2.032 . S
O218 C221 1.259 . S
O219 Mg210 2.114 . S
O219 C222 1.252 . S
O220 Mg210 2.251 . S
O220 Mg213 2.079 . S
O220 C222 1.273 . S
C221 O217 1.246 . S
C221 O218 1.259 . S
C222 O219 1.252 . S
C222 O220 1.273 . S
O223 Mg210 2.010 . S
O223 C215 1.249 . S
Mg224 O225 2.028 . S
Mg224 O231 1.986 . S
Mg224 O233 2.114 . S
Mg224 O234 2.251 . S
Mg224 O237 2.010 . S
O225 Mg224 2.028 . S
O225 C228 1.250 . S
O226 Mg227 2.028 . S
O226 C228 1.248 . S
Mg227 O226 2.028 . S
Mg227 O232 2.032 . S
Mg227 O234 2.079 . S
C228 O225 1.250 . S
C228 O226 1.248 . S
C229 O230 1.264 . S
C229 O237 1.249 . S
O230 C229 1.264 . S
O231 Mg224 1.986 . S
O231 C235 1.246 . S
O232 Mg227 2.032 . S
O232 C235 1.259 . S
O233 Mg224 2.114 . S
O233 C236 1.252 . S
O234 Mg224 2.251 . S
O234 Mg227 2.079 . S
O234 C236 1.273 . S
C235 O231 1.246 . S
C235 O232 1.259 . S
C236 O233 1.252 . S
C236 O234 1.273 . S
O237 Mg224 2.010 . S
O237 C229 1.249 . S
Mg238 O239 2.028 1_565 S
Mg238 O245 1.986 1_565 S
Mg238 O247 2.114 . S
Mg238 O248 2.251 . S
Mg238 O251 2.010 . S
O239 Mg238 2.028 1_545 S
O239 C242 1.250 . S
O240 Mg241 2.028 . S
O240 C242 1.248 . S
Mg241 O240 2.028 . S
Mg241 O246 2.032 . S
Mg241 O248 2.079 1_545 S
C242 O239 1.250 . S
C242 O240 1.248 . S
C243 O244 1.264 . S
C243 O251 1.249 . S
O244 C243 1.264 . S
O245 Mg238 1.986 1_545 S
O245 C249 1.246 . S
O246 Mg241 2.032 . S
O246 C249 1.259 . S
O247 Mg238 2.114 . S
O247 C250 1.252 . S
O248 Mg238 2.251 . S
O248 Mg241 2.079 1_565 S
O248 C250 1.273 . S
C249 O245 1.246 . S
C249 O246 1.259 . S
C250 O247 1.252 . S
C250 O248 1.273 . S
O251 Mg238 2.010 . S
O251 C243 1.249 . S
Mg252 O253 2.028 . S
Mg252 O259 1.986 . S
Mg252 O261 2.114 . S
Mg252 O262 2.251 . S
Mg252 O265 2.010 . S
O253 Mg252 2.028 . S
O253 C256 1.250 . S
O254 Mg255 2.028 . S
O254 C256 1.248 . S
Mg255 O254 2.028 . S
Mg255 O260 2.032 . S
Mg255 O262 2.079 . S
C256 O253 1.250 . S
C256 O254 1.248 . S
C257 O258 1.264 . S
C257 O265 1.249 . S
O258 C257 1.264 . S
O259 Mg252 1.986 . S
O259 C263 1.246 . S
O260 Mg255 2.032 . S
O260 C263 1.259 . S
O261 Mg252 2.114 . S
O261 C264 1.252 . S
O262 Mg252 2.251 . S
O262 Mg255 2.079 . S
O262 C264 1.273 . S
C263 O259 1.246 . S
C263 O260 1.259 . S
C264 O261 1.252 . S
C264 O262 1.273 . S
O265 Mg252 2.010 . S
O265 C257 1.249 . S
Mg266 O267 2.028 1_545 S
Mg266 O273 1.986 1_545 S
Mg266 O275 2.114 . S
Mg266 O276 2.251 . S
Mg266 O279 2.010 . S
O267 Mg266 2.028 1_565 S
O267 C270 1.250 . S
O268 Mg269 2.028 . S
O268 C270 1.248 . S
Mg269 O268 2.028 . S
Mg269 O274 2.032 . S
Mg269 O276 2.079 1_565 S
C270 O267 1.250 . S
C270 O268 1.248 . S
C271 O272 1.264 . S
C271 O279 1.249 . S
O272 C271 1.264 . S
O273 Mg266 1.986 1_565 S
O273 C277 1.246 . S
O274 Mg269 2.032 . S
O274 C277 1.259 . S
O275 Mg266 2.114 . S
O275 C278 1.252 . S
O276 Mg266 2.251 . S
O276 Mg269 2.079 1_545 S
O276 C278 1.273 . S
C277 O273 1.246 . S
C277 O274 1.259 . S
C278 O275 1.252 . S
C278 O276 1.273 . S
O279 Mg266 2.010 . S
O279 C271 1.249 . S
Mg280 O281 2.028 . S
Mg280 O287 1.986 . S
Mg280 O289 2.114 . S
Mg280 O290 2.251 . S
Mg280 O293 2.010 . S
O281 Mg280 2.028 . S
O281 C284 1.250 . S
O282 Mg283 2.028 . S
O282 C284 1.248 . S
Mg283 O282 2.028 . S
Mg283 O288 2.032 . S
Mg283 O290 2.079 . S
C284 O281 1.250 . S
C284 O282 1.248 . S
C285 O286 1.264 . S
C285 O293 1.249 . S
O286 C285 1.264 . S
O287 Mg280 1.986 . S
O287 C291 1.246 . S
O288 Mg283 2.032 . S
O288 C291 1.259 . S
O289 Mg280 2.114 . S
O289 C292 1.252 . S
O290 Mg280 2.251 . S
O290 Mg283 2.079 . S
O290 C292 1.273 . S
C291 O287 1.246 . S
C291 O288 1.259 . S
C292 O289 1.252 . S
C292 O290 1.273 . S
O293 Mg280 2.010 . S
O293 C285 1.249 . S
Mg294 O295 2.028 1_554 S
Mg294 O301 1.986 1_554 S
Mg294 O303 2.114 . S
Mg294 O304 2.251 . S
Mg294 O307 2.010 . S
O295 Mg294 2.028 1_556 S
O295 C298 1.250 . S
O296 Mg297 2.028 . S
O296 C298 1.248 . S
Mg297 O296 2.028 . S
Mg297 O302 2.032 . S
Mg297 O304 2.079 1_556 S
C298 O295 1.250 . S
C298 O296 1.248 . S
C299 O300 1.264 . S
C299 O307 1.249 . S
O300 C299 1.264 . S
O301 Mg294 1.986 1_556 S
O301 C305 1.246 . S
O302 Mg297 2.032 . S
O302 C305 1.259 . S
O303 Mg294 2.114 . S
O303 C306 1.252 . S
O304 Mg294 2.251 . S
O304 Mg297 2.079 1_554 S
O304 C306 1.273 . S
C305 O301 1.246 . S
C305 O302 1.259 . S
C306 O303 1.252 . S
C306 O304 1.273 . S
O307 Mg294 2.010 . S
O307 C299 1.249 . S
Mg308 O309 2.028 1_554 S
Mg308 O315 1.986 1_554 S
Mg308 O317 2.114 . S
Mg308 O318 2.251 . S
Mg308 O321 2.010 . S
O309 Mg308 2.028 1_556 S
O309 C312 1.250 . S
O310 Mg311 2.028 . S
O310 C312 1.248 . S
Mg311 O310 2.028 . S
Mg311 O316 2.032 . S
Mg311 O318 2.079 1_556 S
C312 O309 1.250 . S
C312 O310 1.248 . S
C313 O314 1.264 . S
C313 O321 1.249 . S
O314 C313 1.264 . S
O315 Mg308 1.986 1_556 S
O315 C319 1.246 . S
O316 Mg311 2.032 . S
O316 C319 1.259 . S
O317 Mg308 2.114 . S
O317 C320 1.252 . S
O318 Mg308 2.251 . S
O318 Mg311 2.079 1_554 S
O318 C320 1.273 . S
C319 O315 1.246 . S
C319 O316 1.259 . S
C320 O317 1.252 . S
C320 O318 1.273 . S
O321 Mg308 2.010 . S
O321 C313 1.249 . S
Mg322 O323 2.028 1_556 S
Mg322 O329 1.986 1_556 S
Mg322 O331 2.114 . S
Mg322 O332 2.251 . S
Mg322 O335 2.010 . S
O323 Mg322 2.028 1_554 S
O323 C326 1.250 . S
O324 Mg325 2.028 . S
O324 C326 1.248 . S
Mg325 O324 2.028 . S
Mg325 O330 2.032 . S
Mg325 O332 2.079 1_554 S
C326 O323 1.250 . S
C326 O324 1.248 . S
C327 O328 1.264 . S
C327 O335 1.249 . S
O328 C327 1.264 . S
O329 Mg322 1.986 1_554 S
O329 C333 1.246 . S
O330 Mg325 2.032 . S
O330 C333 1.259 . S
O331 Mg322 2.114 . S
O331 C334 1.252 . S
O332 Mg322 2.251 . S
O332 Mg325 2.079 1_556 S
O332 C334 1.273 . S
C333 O329 1.246 . S
C333 O330 1.259 . S
C334 O331 1.252 . S
C334 O332 1.273 . S
O335 Mg322 2.010 . S
O335 C327 1.249 . S
H336 C344 0.950 . S
H337 C349 0.950 . S
H338 C346 0.950 . S
H339 C348 0.950 . S
H340 C350 0.950 . S
H341 C352 0.950 . S
H342 C354 0.950 . S
H343 C355 0.950 . S
C344 H336 0.950 . S
C344 C345 1.386 . S
C344 C346 1.391 . S
C345 C344 1.386 . S
C345 C349 1.393 . S
C346 H338 0.950 . S
C346 C344 1.391 . S
C346 C347 1.400 . S
C347 C346 1.400 . S
C347 C348 1.398 . S
C347 C353 1.491 . S
C348 H339 0.950 . S
C348 C347 1.398 . S
C348 C349 1.391 . S
C349 H337 0.950 . S
C349 C345 1.393 . S
C349 C348 1.391 . S
C350 H340 0.950 . S
C350 C351 1.386 . S
C350 C352 1.391 . S
C351 C350 1.386 . S
C351 C355 1.393 . S
C352 H341 0.950 . S
C352 C350 1.391 . S
C352 C353 1.400 . S
C353 C347 1.491 . S
C353 C352 1.400 . S
C353 C354 1.398 . S
C354 H342 0.950 . S
C354 C353 1.398 . S
C354 C355 1.391 . S
C355 H343 0.950 . S
C355 C351 1.393 . S
C355 C354 1.391 . S
H356 C364 0.950 . S
H357 C369 0.950 . S
H358 C366 0.950 . S
H359 C368 0.950 . S
H360 C370 0.950 . S
H361 C372 0.950 . S
H362 C374 0.950 . S
H363 C375 0.950 . S
C364 H356 0.950 . S
C364 C365 1.386 . S
C364 C366 1.391 . S
C365 C364 1.386 . S
C365 C369 1.393 . S
C366 H358 0.950 . S
C366 C364 1.391 . S
C366 C367 1.400 . S
C367 C366 1.400 . S
C367 C368 1.398 . S
C367 C373 1.491 . S
C368 H359 0.950 . S
C368 C367 1.398 . S
C368 C369 1.391 . S
C369 H357 0.950 . S
C369 C365 1.393 . S
C369 C368 1.391 . S
C370 H360 0.950 . S
C370 C371 1.386 . S
C370 C372 1.391 . S
C371 C370 1.386 . S
C371 C375 1.393 . S
C372 H361 0.950 . S
C372 C370 1.391 . S
C372 C373 1.400 . S
C373 C367 1.491 . S
C373 C372 1.400 . S
C373 C374 1.398 . S
C374 H362 0.950 . S
C374 C373 1.398 . S
C374 C375 1.391 . S
C375 H363 0.950 . S
C375 C371 1.393 . S
C375 C374 1.391 . S
H376 C384 0.950 . S
H377 C389 0.950 . S
H378 C386 0.950 . S
H379 C388 0.950 . S
H380 C390 0.950 . S
H381 C392 0.950 . S
H382 C394 0.950 . S
H383 C395 0.950 . S
C384 H376 0.950 . S
C384 C385 1.386 . S
C384 C386 1.391 . S
C385 C384 1.386 . S
C385 C389 1.393 . S
C386 H378 0.950 . S
C386 C384 1.391 . S
C386 C387 1.400 . S
C387 C386 1.400 . S
C387 C388 1.398 . S
C387 C393 1.491 1_554 S
C388 H379 0.950 . S
C388 C387 1.398 . S
C388 C389 1.391 . S
C389 H377 0.950 . S
C389 C385 1.393 . S
C389 C388 1.391 . S
C390 H380 0.950 . S
C390 C391 1.386 . S
C390 C392 1.391 . S
C391 C390 1.386 . S
C391 C395 1.393 . S
C392 H381 0.950 . S
C392 C390 1.391 . S
C392 C393 1.400 . S
C393 C387 1.491 1_556 S
C393 C392 1.400 . S
C393 C394 1.398 . S
C394 H382 0.950 . S
C394 C393 1.398 . S
C394 C395 1.391 . S
C395 H383 0.950 . S
C395 C391 1.393 . S
C395 C394 1.391 . S
H396 C404 0.950 . S
H397 C409 0.950 . S
H398 C406 0.950 . S
H399 C408 0.950 . S
H400 C410 0.950 . S
H401 C412 0.950 . S
H402 C414 0.950 . S
H403 C415 0.950 . S
C404 H396 0.950 . S
C404 C405 1.386 . S
C404 C406 1.391 . S
C405 C404 1.386 . S
C405 C409 1.393 . S
C406 H398 0.950 . S
C406 C404 1.391 . S
C406 C407 1.400 . S
C407 C406 1.400 . S
C407 C408 1.398 . S
C407 C413 1.491 1_554 S
C408 H399 0.950 . S
C408 C407 1.398 . S
C408 C409 1.391 . S
C409 H397 0.950 . S
C409 C405 1.393 . S
C409 C408 1.391 . S
C410 H400 0.950 . S
C410 C411 1.386 . S
C410 C412 1.391 . S
C411 C410 1.386 . S
C411 C415 1.393 . S
C412 H401 0.950 . S
C412 C410 1.391 . S
C412 C413 1.400 . S
C413 C407 1.491 1_556 S
C413 C412 1.400 . S
C413 C414 1.398 . S
C414 H402 0.950 . S
C414 C413 1.398 . S
C414 C415 1.391 . S
C415 H403 0.950 . S
C415 C411 1.393 . S
C415 C414 1.391 . S
H416 C424 0.950 . S
H417 C429 0.950 . S
H418 C426 0.950 . S
H419 C428 0.950 . S
H420 C430 0.950 . S
H421 C432 0.950 . S
H422 C434 0.950 . S
H423 C435 0.950 . S
C424 H416 0.950 . S
C424 C425 1.386 . S
C424 C426 1.391 . S
C425 C424 1.386 . S
C425 C429 1.393 . S
C426 H418 0.950 . S
C426 C424 1.391 . S
C426 C427 1.400 . S
C427 C426 1.400 . S
C427 C428 1.398 . S
C427 C433 1.491 . S
C428 H419 0.950 . S
C428 C427 1.398 . S
C428 C429 1.391 . S
C429 H417 0.950 . S
C429 C425 1.393 . S
C429 C428 1.391 . S
C430 H420 0.950 . S
C430 C431 1.386 . S
C430 C432 1.391 . S
C431 C430 1.386 . S
C431 C435 1.393 . S
C432 H421 0.950 . S
C432 C430 1.391 . S
C432 C433 1.400 . S
C433 C427 1.491 . S
C433 C432 1.400 . S
C433 C434 1.398 . S
C434 H422 0.950 . S
C434 C433 1.398 . S
C434 C435 1.391 . S
C435 H423 0.950 . S
C435 C431 1.393 . S
C435 C434 1.391 . S
H436 C444 0.950 . S
H437 C449 0.950 . S
H438 C446 0.950 . S
H439 C448 0.950 . S
H440 C450 0.950 . S
H441 C452 0.950 . S
H442 C454 0.950 . S
H443 C455 0.950 . S
C444 H436 0.950 . S
C444 C445 1.386 . S
C444 C446 1.391 . S
C445 C444 1.386 . S
C445 C449 1.393 . S
C446 H438 0.950 . S
C446 C444 1.391 . S
C446 C447 1.400 . S
C447 C446 1.400 . S
C447 C448 1.398 . S
C447 C453 1.491 . S
C448 H439 0.950 . S
C448 C447 1.398 . S
C448 C449 1.391 . S
C449 H437 0.950 . S
C449 C445 1.393 . S
C449 C448 1.391 . S
C450 H440 0.950 . S
C450 C451 1.386 . S
C450 C452 1.391 . S
C451 C450 1.386 . S
C451 C455 1.393 . S
C452 H441 0.950 . S
C452 C450 1.391 . S
C452 C453 1.400 . S
C453 C447 1.491 . S
C453 C452 1.400 . S
C453 C454 1.398 . S
C454 H442 0.950 . S
C454 C453 1.398 . S
C454 C455 1.391 . S
C455 H443 0.950 . S
C455 C451 1.393 . S
C455 C454 1.391 . S
H456 C464 0.950 . S
H457 C469 0.950 . S
H458 C466 0.950 . S
H459 C468 0.950 . S
H460 C470 0.950 . S
H461 C472 0.950 . S
H462 C474 0.950 . S
H463 C475 0.950 . S
C464 H456 0.950 . S
C464 C465 1.386 . S
C464 C466 1.391 . S
C465 C464 1.386 . S
C465 C469 1.393 . S
C466 H458 0.950 . S
C466 C464 1.391 . S
C466 C467 1.400 . S
C467 C466 1.400 . S
C467 C468 1.398 . S
C467 C473 1.491 . S
C468 H459 0.950 . S
C468 C467 1.398 . S
C468 C469 1.391 . S
C469 H457 0.950 . S
C469 C465 1.393 . S
C469 C468 1.391 . S
C470 H460 0.950 . S
C470 C471 1.386 . S
C470 C472 1.391 . S
C471 C470 1.386 . S
C471 C475 1.393 . S
C472 H461 0.950 . S
C472 C470 1.391 . S
C472 C473 1.400 . S
C473 C467 1.491 . S
C473 C472 1.400 . S
C473 C474 1.398 . S
C474 H462 0.950 . S
C474 C473 1.398 . S
C474 C475 1.391 . S
C475 H463 0.950 . S
C475 C471 1.393 . S
C475 C474 1.391 . S
H476 C484 0.950 . S
H477 C489 0.950 . S
H478 C486 0.950 . S
H479 C488 0.950 . S
H480 C490 0.950 . S
H481 C492 0.950 . S
H482 C494 0.950 . S
H483 C495 0.950 . S
C484 H476 0.950 . S
C484 C485 1.386 . S
C484 C486 1.391 . S
C485 C484 1.386 . S
C485 C489 1.393 . S
C486 H478 0.950 . S
C486 C484 1.391 . S
C486 C487 1.400 . S
C487 C486 1.400 . S
C487 C488 1.398 . S
C487 C493 1.491 . S
C488 H479 0.950 . S
C488 C487 1.398 . S
C488 C489 1.391 . S
C489 H477 0.950 . S
C489 C485 1.393 . S
C489 C488 1.391 . S
C490 H480 0.950 . S
C490 C491 1.386 . S
C490 C492 1.391 . S
C491 C490 1.386 . S
C491 C495 1.393 . S
C492 H481 0.950 . S
C492 C490 1.391 . S
C492 C493 1.400 . S
C493 C487 1.491 . S
C493 C492 1.400 . S
C493 C494 1.398 . S
C494 H482 0.950 . S
C494 C493 1.398 . S
C494 C495 1.391 . S
C495 H483 0.950 . S
C495 C491 1.393 . S
C495 C494 1.391 . S
H496 C504 0.950 . S
H497 C509 0.950 . S
H498 C506 0.950 . S
H499 C508 0.950 . S
H500 C510 0.950 . S
H501 C512 0.950 . S
H502 C514 0.950 . S
H503 C515 0.950 . S
C504 H496 0.950 . S
C504 C505 1.386 . S
C504 C506 1.391 . S
C505 C504 1.386 . S
C505 C509 1.393 . S
C506 H498 0.950 . S
C506 C504 1.391 . S
C506 C507 1.400 . S
C507 C506 1.400 . S
C507 C508 1.398 . S
C507 C513 1.491 . S
C508 H499 0.950 . S
C508 C507 1.398 . S
C508 C509 1.391 . S
C509 H497 0.950 . S
C509 C505 1.393 . S
C509 C508 1.391 . S
C510 H500 0.950 . S
C510 C511 1.386 . S
C510 C512 1.391 . S
C511 C510 1.386 . S
C511 C515 1.393 . S
C512 H501 0.950 . S
C512 C510 1.391 . S
C512 C513 1.400 . S
C513 C507 1.491 . S
C513 C512 1.400 . S
C513 C514 1.398 . S
C514 H502 0.950 . S
C514 C513 1.398 . S
C514 C515 1.391 . S
C515 H503 0.950 . S
C515 C511 1.393 . S
C515 C514 1.391 . S
H516 C524 0.950 . S
H517 C529 0.950 . S
H518 C526 0.950 . S
H519 C528 0.950 . S
H520 C530 0.950 . S
H521 C532 0.950 . S
H522 C534 0.950 . S
H523 C535 0.950 . S
C524 H516 0.950 . S
C524 C525 1.386 . S
C524 C526 1.391 . S
C525 C524 1.386 . S
C525 C529 1.393 . S
C526 H518 0.950 . S
C526 C524 1.391 . S
C526 C527 1.400 . S
C527 C526 1.400 . S
C527 C528 1.398 . S
C527 C533 1.491 . S
C528 H519 0.950 . S
C528 C527 1.398 . S
C528 C529 1.391 . S
C529 H517 0.950 . S
C529 C525 1.393 . S
C529 C528 1.391 . S
C530 H520 0.950 . S
C530 C531 1.386 . S
C530 C532 1.391 . S
C531 C530 1.386 . S
C531 C535 1.393 . S
C532 H521 0.950 . S
C532 C530 1.391 . S
C532 C533 1.400 . S
C533 C527 1.491 . S
C533 C532 1.400 . S
C533 C534 1.398 . S
C534 H522 0.950 . S
C534 C533 1.398 . S
C534 C535 1.391 . S
C535 H523 0.950 . S
C535 C531 1.393 . S
C535 C534 1.391 . S
H536 C544 0.950 . S
H537 C549 0.950 . S
H538 C546 0.950 . S
H539 C548 0.950 . S
H540 C550 0.950 . S
H541 C552 0.950 . S
H542 C554 0.983 . S
H543 C555 0.950 . S
C544 H536 0.950 . S
C544 C545 1.386 . S
C544 C546 1.391 . S
C545 C544 1.386 . S
C545 C549 1.393 . S
C546 H538 0.950 . S
C546 C544 1.391 . S
C546 C547 1.400 . S
C547 C546 1.400 . S
C547 C548 1.398 . S
C547 C553 1.491 . S
C548 H539 0.950 . S
C548 C547 1.398 . S
C548 C549 1.391 . S
C549 H537 0.950 . S
C549 C545 1.393 . S
C549 C548 1.391 . S
C550 H540 0.950 . S
C550 C551 1.386 . S
C550 C552 1.391 . S
C551 C550 1.386 . S
C551 C555 1.393 . S
C552 H541 0.950 . S
C552 C550 1.391 . S
C552 C553 1.400 1_545 S
C553 C547 1.491 . S
C553 C552 1.400 1_565 S
C553 C554 1.405 . S
C554 H542 0.983 . S
C554 C553 1.405 . S
C554 C555 1.353 1_565 S
C555 H543 0.950 . S
C555 C551 1.393 . S
C555 C554 1.353 1_545 S
H556 C564 0.950 . S
H557 C569 0.950 . S
H558 C566 0.950 . S
H559 C568 0.950 . S
H560 C570 0.950 . S
H561 C572 0.950 . S
H562 C574 0.950 . S
H563 C575 0.950 . S
C564 H556 0.950 . S
C564 C565 1.386 . S
C564 C566 1.391 . S
C565 C564 1.386 . S
C565 C569 1.393 . S
C566 H558 0.950 . S
C566 C564 1.391 . S
C566 C567 1.400 . S
C567 C566 1.400 . S
C567 C568 1.398 . S
C567 C573 1.491 . S
C568 H559 0.950 . S
C568 C567 1.398 . S
C568 C569 1.391 . S
C569 H557 0.950 . S
C569 C565 1.393 . S
C569 C568 1.391 . S
C570 H560 0.950 . S
C570 C571 1.386 . S
C570 C572 1.391 . S
C571 C570 1.386 . S
C571 C575 1.393 . S
C572 H561 0.950 . S
C572 C570 1.391 . S
C572 C573 1.400 . S
C573 C567 1.491 . S
C573 C572 1.400 . S
C573 C574 1.398 . S
C574 H562 0.950 . S
C574 C573 1.398 . S
C574 C575 1.391 . S
C575 H563 0.950 . S
C575 C571 1.393 . S
C575 C574 1.391 . S
H576 C584 0.950 . S
H577 C589 0.950 . S
H578 C586 0.971 . S
H579 C588 0.950 . S
H580 C590 0.950 . S
H581 C592 0.950 . S
H582 C594 0.950 . S
H583 C595 0.950 . S
C584 H576 0.950 . S
C584 C585 1.386 . S
C584 C586 1.391 . S
C585 C584 1.386 . S
C585 C589 1.393 . S
C586 H578 0.971 . S
C586 C584 1.391 . S
C586 C587 1.400 . S
C587 C586 1.400 . S
C587 C588 1.398 . S
C587 C593 1.491 1_554 S
C588 H579 0.950 . S
C588 C587 1.398 . S
C588 C589 1.391 . S
C589 H577 0.950 . S
C589 C585 1.393 . S
C589 C588 1.391 . S
C590 H580 0.950 . S
C590 C591 1.386 . S
C590 C592 1.391 . S
C591 C590 1.386 . S
C591 C595 1.393 . S
C592 H581 0.950 . S
C592 C590 1.391 . S
C592 C593 1.400 . S
C593 C587 1.491 1_556 S
C593 C592 1.400 . S
C593 C594 1.398 . S
C594 H582 0.950 . S
C594 C593 1.398 . S
C594 C595 1.391 . S
C595 H583 0.950 . S
C595 C591 1.393 . S
C595 C594 1.391 . S
H596 C604 0.950 . S
H597 C609 0.950 . S
H598 C606 0.950 . S
H599 C608 0.945 1_556 S
H600 C610 0.950 . S
H601 C612 0.950 . S
H602 C614 0.950 . S
H603 C615 0.950 . S
C604 H596 0.950 . S
C604 C605 1.386 . S
C604 C606 1.391 . S
C605 C604 1.386 . S
C605 C609 1.393 . S
C606 H598 0.950 . S
C606 C604 1.391 . S
C606 C607 1.400 . S
C607 C606 1.400 . S
C607 C608 1.398 . S
C607 C613 1.491 1_554 S
C608 H599 0.945 1_554 S
C608 C607 1.398 . S
C608 C609 1.391 . S
C609 H597 0.950 . S
C609 C605 1.393 . S
C609 C608 1.391 . S
C610 H600 0.950 . S
C610 C611 1.386 . S
C610 C612 1.391 . S
C611 C610 1.386 . S
C611 C615 1.393 . S
C612 H601 0.950 . S
C612 C610 1.391 . S
C612 C613 1.400 . S
C613 C607 1.491 1_556 S
C613 C612 1.400 . S
C613 C614 1.398 . S
C614 H602 0.950 . S
C614 C613 1.398 . S
C614 C615 1.391 . S
C615 H603 0.950 . S
C615 C611 1.393 . S
C615 C614 1.391 . S
H616 C624 0.950 . S
H617 C629 0.950 . S
H618 C626 0.950 . S
H619 C628 0.950 . S
H620 C630 0.950 . S
H621 C632 0.950 . S
H622 C634 0.950 . S
H623 C635 0.950 . S
C624 H616 0.950 . S
C624 C625 1.386 . S
C624 C626 1.391 . S
C625 C624 1.386 . S
C625 C629 1.393 . S
C626 H618 0.950 . S
C626 C624 1.391 . S
C626 C627 1.400 . S
C627 C626 1.400 . S
C627 C628 1.398 . S
C627 C633 1.491 . S
C628 H619 0.950 . S
C628 C627 1.398 . S
C628 C629 1.391 . S
C629 H617 0.950 . S
C629 C625 1.393 . S
C629 C628 1.391 . S
C630 H620 0.950 . S
C630 C631 1.386 . S
C630 C632 1.391 . S
C631 C630 1.386 . S
C631 C635 1.393 . S
C632 H621 0.950 . S
C632 C630 1.391 . S
C632 C633 1.400 . S
C633 C627 1.491 . S
C633 C632 1.400 . S
C633 C634 1.398 . S
C634 H622 0.950 . S
C634 C633 1.398 . S
C634 C635 1.391 . S
C635 H623 0.950 . S
C635 C631 1.393 . S
C635 C634 1.391 . S
H636 C644 0.950 . S
H637 C649 0.950 . S
H638 C646 0.950 . S
H639 C648 0.950 . S
H640 C650 0.950 . S
H641 C652 0.950 . S
H642 C654 0.950 . S
H643 C655 0.950 . S
C644 H636 0.950 . S
C644 C645 1.386 . S
C644 C646 1.391 . S
C645 C644 1.386 . S
C645 C649 1.393 . S
C646 H638 0.950 . S
C646 C644 1.391 . S
C646 C647 1.400 . S
C647 C646 1.400 . S
C647 C648 1.398 . S
C647 C653 1.491 . S
C648 H639 0.950 . S
C648 C647 1.398 . S
C648 C649 1.391 . S
C649 H637 0.950 . S
C649 C645 1.393 . S
C649 C648 1.391 . S
C650 H640 0.950 . S
C650 C651 1.386 . S
C650 C652 1.391 . S
C651 C650 1.386 . S
C651 C655 1.393 . S
C652 H641 0.950 . S
C652 C650 1.391 . S
C652 C653 1.400 . S
C653 C647 1.491 . S
C653 C652 1.400 . S
C653 C654 1.398 . S
C654 H642 0.950 . S
C654 C653 1.398 . S
C654 C655 1.391 . S
C655 H643 0.950 . S
C655 C651 1.393 . S
C655 C654 1.391 . S
H656 C664 0.950 . S
H657 C669 0.950 . S
H658 C666 0.947 1_655 S
H659 C668 0.950 . S
H660 C670 0.950 . S
H661 C672 0.950 . S
H662 C674 0.950 . S
H663 C675 0.950 . S
C664 H656 0.950 . S
C664 C665 1.386 . S
C664 C666 1.391 . S
C665 C664 1.386 . S
C665 C669 1.393 . S
C666 H658 0.947 1_455 S
C666 C664 1.391 . S
C666 C667 1.400 1_455 S
C667 C666 1.400 1_655 S
C667 C668 1.398 1_655 S
C667 C673 1.491 . S
C668 H659 0.950 . S
C668 C667 1.398 1_455 S
C668 C669 1.391 . S
C669 H657 0.950 . S
C669 C665 1.393 . S
C669 C668 1.391 . S
C670 H660 0.950 . S
C670 C671 1.386 . S
C670 C672 1.391 . S
C671 C670 1.386 . S
C671 C675 1.393 . S
C672 H661 0.950 . S
C672 C670 1.391 . S
C672 C673 1.400 . S
C673 C667 1.491 . S
C673 C672 1.400 . S
C673 C674 1.398 . S
C674 H662 0.950 . S
C674 C673 1.398 . S
C674 C675 1.391 . S
C675 H663 0.950 . S
C675 C671 1.393 . S
C675 C674 1.391 . S
H676 C684 0.950 . S
H677 C689 0.950 . S
H678 C686 0.950 1_455 S
H679 C688 0.950 . S
H680 C690 0.950 . S
H681 C692 0.950 . S
H682 C694 0.950 . S
H683 C695 0.950 . S
C684 H676 0.950 . S
C684 C685 1.386 . S
C684 C686 1.391 . S
C685 C684 1.386 . S
C685 C689 1.393 . S
C686 H678 0.950 1_655 S
C686 C684 1.391 . S
C686 C687 1.400 . S
C687 C686 1.400 . S
C687 C688 1.398 . S
C687 C693 1.491 1_655 S
C688 H679 0.950 . S
C688 C687 1.398 . S
C688 C689 1.391 . S
C689 H677 0.950 . S
C689 C685 1.393 . S
C689 C688 1.391 . S
C690 H680 0.950 . S
C690 C691 1.386 . S
C690 C692 1.391 . S
C691 C690 1.386 . S
C691 C695 1.393 . S
C692 H681 0.950 . S
C692 C690 1.391 . S
C692 C693 1.400 . S
C693 C687 1.491 1_455 S
C693 C692 1.400 . S
C693 C694 1.398 . S
C694 H682 0.950 . S
C694 C693 1.398 . S
C694 C695 1.391 . S
C695 H683 0.950 . S
C695 C691 1.393 . S
C695 C694 1.391 . S
H696 C704 0.950 . S
H697 C709 0.950 . S
H698 C706 0.950 1_655 S
H699 C708 0.950 . S
H700 C710 0.950 . S
H701 C712 0.950 . S
H702 C714 0.950 . S
H703 C715 0.950 . S
C704 H696 0.950 . S
C704 C705 1.386 . S
C704 C706 1.391 . S
C705 C704 1.386 . S
C705 C709 1.393 . S
C706 H698 0.950 1_455 S
C706 C704 1.391 . S
C706 C707 1.400 1_455 S
C707 C706 1.400 1_655 S
C707 C708 1.398 1_655 S
C707 C713 1.491 . S
C708 H699 0.950 . S
C708 C707 1.398 1_455 S
C708 C709 1.391 . S
C709 H697 0.950 . S
C709 C705 1.393 . S
C709 C708 1.391 . S
C710 H700 0.950 . S
C710 C711 1.386 . S
C710 C712 1.391 . S
C711 C710 1.386 . S
C711 C715 1.393 . S
C712 H701 0.950 . S
C712 C710 1.391 . S
C712 C713 1.400 . S
C713 C707 1.491 . S
C713 C712 1.400 . S
C713 C714 1.398 . S
C714 H702 0.950 . S
C714 C713 1.398 . S
C714 C715 1.391 . S
C715 H703 0.950 . S
C715 C711 1.393 . S
C715 C714 1.391 . S
H716 C724 0.950 . S
H717 C729 0.950 . S
H718 C726 0.950 . S
H719 C728 0.950 . S
H720 C730 0.950 . S
H721 C732 0.950 . S
H722 C734 0.950 1_455 S
H723 C735 0.950 . S
C724 H716 0.950 . S
C724 C725 1.386 . S
C724 C726 1.391 . S
C725 C724 1.386 . S
C725 C729 1.393 . S
C726 H718 0.950 . S
C726 C724 1.391 . S
C726 C727 1.400 . S
C727 C726 1.400 . S
C727 C728 1.398 . S
C727 C733 1.464 1_455 S
C728 H719 0.950 . S
C728 C727 1.398 . S
C728 C729 1.391 . S
C729 H717 0.950 . S
C729 C725 1.393 . S
C729 C728 1.391 . S
C730 H720 0.950 . S
C730 C731 1.386 . S
C730 C732 1.391 . S
C731 C730 1.386 . S
C731 C735 1.393 . S
C732 H721 0.950 . S
C732 C730 1.391 . S
C732 C733 1.420 . S
C733 C727 1.464 1_655 S
C733 C732 1.420 . S
C733 C734 1.406 . S
C734 H722 0.950 1_655 S
C734 C733 1.406 . S
C734 C735 1.391 . S
C735 H723 0.950 . S
C735 C731 1.393 . S
C735 C734 1.391 . S
H736 C744 0.950 . S
H737 C749 0.950 . S
H738 C746 0.950 . S
H739 C748 0.941 1_565 S
H740 C750 0.950 . S
H741 C752 0.950 . S
H742 C754 0.950 . S
H743 C755 0.950 . S
C744 H736 0.950 . S
C744 C745 1.386 . S
C744 C746 1.391 . S
C745 C744 1.386 . S
C745 C749 1.393 . S
C746 H738 0.950 . S
C746 C744 1.391 . S
C746 C747 1.400 1_545 S
C747 C746 1.400 1_565 S
C747 C748 1.398 1_565 S
C747 C753 1.491 . S
C748 H739 0.941 1_545 S
C748 C747 1.398 1_545 S
C748 C749 1.391 . S
C749 H737 0.950 . S
C749 C745 1.393 . S
C749 C748 1.391 . S
C750 H740 0.950 . S
C750 C751 1.386 . S
C750 C752 1.391 . S
C751 C750 1.386 . S
C751 C755 1.393 . S
C752 H741 0.950 . S
C752 C750 1.391 . S
C752 C753 1.400 . S
C753 C747 1.491 . S
C753 C752 1.400 . S
C753 C754 1.398 . S
C754 H742 0.950 . S
C754 C753 1.398 . S
C754 C755 1.391 . S
C755 H743 0.950 . S
C755 C751 1.393 . S
C755 C754 1.391 . S
H756 C764 0.950 . S
H757 C769 0.950 . S
H758 C766 0.950 . S
H759 C768 0.950 . S
H760 C770 0.950 . S
H761 C772 0.950 . S
H762 C774 0.950 . S
H763 C775 0.950 . S
C764 H756 0.950 . S
C764 C765 1.386 . S
C764 C766 1.391 . S
C765 C764 1.386 . S
C765 C769 1.393 . S
C766 H758 0.950 . S
C766 C764 1.391 . S
C766 C767 1.400 . S
C767 C766 1.400 . S
C767 C768 1.398 . S
C767 C773 1.479 1_545 S
C768 H759 0.950 . S
C768 C767 1.398 . S
C768 C769 1.391 . S
C769 H757 0.950 . S
C769 C765 1.393 . S
C769 C768 1.391 . S
C770 H760 0.950 . S
C770 C771 1.386 . S
C770 C772 1.391 . S
C771 C770 1.386 . S
C771 C775 1.393 . S
C772 H761 0.950 . S
C772 C770 1.391 . S
C772 C773 1.406 . S
C773 C767 1.479 1_565 S
C773 C772 1.406 . S
C773 C774 1.405 . S
C774 H762 0.950 . S
C774 C773 1.405 . S
C774 C775 1.391 . S
C775 H763 0.950 . S
C775 C771 1.393 . S
C775 C774 1.391 . S
H776 C784 0.950 . S
H777 C789 0.950 . S
H778 C786 0.950 . S
H779 C788 0.950 . S
H780 C790 0.950 . S
H781 C792 0.950 . S
H782 C794 0.950 . S
H783 C795 0.950 . S
C784 H776 0.950 . S
C784 C785 1.386 . S
C784 C786 1.391 . S
C785 C784 1.386 . S
C785 C789 1.393 . S
C786 H778 0.950 . S
C786 C784 1.391 . S
C786 C787 1.400 . S
C787 C786 1.400 . S
C787 C788 1.398 . S
C787 C793 1.491 . S
C788 H779 0.950 . S
C788 C787 1.398 . S
C788 C789 1.391 . S
C789 H777 0.950 . S
C789 C785 1.393 . S
C789 C788 1.391 . S
C790 H780 0.950 . S
C790 C791 1.386 . S
C790 C792 1.391 . S
C791 C790 1.386 . S
C791 C795 1.393 . S
C792 H781 0.950 . S
C792 C790 1.391 . S
C792 C793 1.400 . S
C793 C787 1.491 . S
C793 C792 1.400 . S
C793 C794 1.398 . S
C794 H782 0.950 . S
C794 C793 1.398 . S
C794 C795 1.391 . S
C795 H783 0.950 . S
C795 C791 1.393 . S
C795 C794 1.391 . S
H796 C804 0.950 . S
H797 C809 0.950 . S
H798 C806 0.950 . S
H799 C808 0.950 . S
H800 C810 0.950 . S
H801 C812 0.941 1_545 S
H802 C814 0.950 . S
H803 C815 0.950 . S
C804 H796 0.950 . S
C804 C805 1.386 . S
C804 C806 1.391 . S
C805 C804 1.386 . S
C805 C809 1.393 . S
C806 H798 0.950 . S
C806 C804 1.391 . S
C806 C807 1.400 . S
C807 C806 1.400 . S
C807 C808 1.398 . S
C807 C813 1.522 . S
C808 H799 0.950 . S
C808 C807 1.398 . S
C808 C809 1.391 . S
C809 H797 0.950 . S
C809 C805 1.393 . S
C809 C808 1.391 . S
C810 H800 0.950 . S
C810 C811 1.386 . S
C810 C812 1.391 . S
C811 C810 1.386 . S
C811 C815 1.393 . S
C812 H801 0.941 1_565 S
C812 C810 1.391 . S
C812 C813 1.388 1_565 S
C813 C807 1.522 . S
C813 C812 1.388 1_545 S
C813 C814 1.380 1_545 S
C814 H802 0.950 . S
C814 C813 1.380 1_565 S
C814 C815 1.391 . S
C815 H803 0.950 . S
C815 C811 1.393 . S
C815 C814 1.391 . S
H816 C824 0.950 . S
H817 C829 0.950 . S
H818 C826 0.950 . S
H819 C828 0.950 . S
H820 C830 0.950 . S
H821 C832 0.950 . S
H822 C834 0.950 . S
H823 C835 0.950 . S
C824 H816 0.950 . S
C824 C825 1.386 . S
C824 C826 1.391 . S
C825 C824 1.386 . S
C825 C829 1.393 1_655 S
C826 H818 0.950 . S
C826 C824 1.391 . S
C826 C827 1.400 . S
C827 C826 1.400 . S
C827 C828 1.398 1_655 S
C827 C833 1.491 1_655 S
C828 H819 0.950 . S
C828 C827 1.398 1_455 S
C828 C829 1.391 . S
C829 H817 0.950 . S
C829 C825 1.393 1_455 S
C829 C828 1.391 . S
C830 H820 0.950 . S
C830 C831 1.386 . S
C830 C832 1.391 . S
C831 C830 1.386 . S
C831 C835 1.393 1_455 S
C832 H821 0.950 . S
C832 C830 1.391 . S
C832 C833 1.400 . S
C833 C827 1.491 1_455 S
C833 C832 1.400 . S
C833 C834 1.398 1_455 S
C834 H822 0.950 . S
C834 C833 1.398 1_655 S
C834 C835 1.391 . S
C835 H823 0.950 . S
C835 C831 1.393 1_655 S
C835 C834 1.391 . S
H836 C844 0.950 . S
H837 C849 0.950 . S
H838 C846 0.950 . S
H839 C848 0.950 . S
H840 C850 0.950 . S
H841 C852 0.950 . S
H842 C854 0.950 . S
H843 C855 0.950 . S
C844 H836 0.950 . S
C844 C845 1.386 . S
C844 C846 1.391 . S
C845 C844 1.386 . S
C845 C849 1.393 1_455 S
C846 H838 0.950 . S
C846 C844 1.391 . S
C846 C847 1.400 . S
C847 C846 1.400 . S
C847 C848 1.398 1_455 S
C847 C853 1.491 1_455 S
C848 H839 0.950 . S
C848 C847 1.398 1_655 S
C848 C849 1.391 . S
C849 H837 0.950 . S
C849 C845 1.393 1_655 S
C849 C848 1.391 . S
C850 H840 0.950 . S
C850 C851 1.386 . S
C850 C852 1.391 . S
C851 C850 1.386 . S
C851 C855 1.393 1_655 S
C852 H841 0.950 . S
C852 C850 1.391 . S
C852 C853 1.400 . S
C853 C847 1.491 1_655 S
C853 C852 1.400 . S
C853 C854 1.398 1_655 S
C854 H842 0.950 . S
C854 C853 1.398 1_455 S
C854 C855 1.391 . S
C855 H843 0.950 . S
C855 C851 1.393 1_455 S
C855 C854 1.391 . S
H856 C864 0.950 . S
H857 C869 0.950 . S
H858 C866 0.950 . S
H859 C868 0.950 . S
H860 C870 0.950 . S
H861 C872 0.949 1_565 S
H862 C874 0.950 . S
H863 C875 0.950 . S
C864 H856 0.950 . S
C864 C865 1.386 . S
C864 C866 1.391 1_565 S
C865 C864 1.386 . S
C865 C869 1.393 . S
C866 H858 0.950 . S
C866 C864 1.391 1_545 S
C866 C867 1.400 1_545 S
C867 C866 1.400 1_565 S
C867 C868 1.398 . S
C867 C873 1.491 1_565 S
C868 H859 0.950 . S
C868 C867 1.398 . S
C868 C869 1.391 . S
C869 H857 0.950 . S
C869 C865 1.393 . S
C869 C868 1.391 . S
C870 H860 0.950 . S
C870 C871 1.386 . S
C870 C872 1.392 . S
C871 C870 1.386 . S
C871 C875 1.393 . S
C872 H861 0.949 1_545 S
C872 C870 1.392 . S
C872 C873 1.401 . S
C873 C867 1.491 1_545 S
C873 C872 1.401 . S
C873 C874 1.398 . S
C874 H862 0.950 . S
C874 C873 1.398 . S
C874 C875 1.391 . S
C875 H863 0.950 . S
C875 C871 1.393 . S
C875 C874 1.391 . S
H876 C884 0.950 . S
H877 C889 0.950 . S
H878 C886 0.950 . S
H879 C888 0.950 . S
H880 C890 0.950 . S
H881 C892 0.950 . S
H882 C894 0.950 . S
H883 C895 0.950 . S
C884 H876 0.950 . S
C884 C885 1.386 . S
C884 C886 1.391 . S
C885 C884 1.386 . S
C885 C889 1.393 . S
C886 H878 0.950 . S
C886 C884 1.391 . S
C886 C887 1.400 . S
C887 C886 1.400 . S
C887 C888 1.398 . S
C887 C893 1.491 . S
C888 H879 0.950 . S
C888 C887 1.398 . S
C888 C889 1.391 . S
C889 H877 0.950 . S
C889 C885 1.393 . S
C889 C888 1.391 . S
C890 H880 0.950 . S
C890 C891 1.386 . S
C890 C892 1.391 . S
C891 C890 1.386 . S
C891 C895 1.393 . S
C892 H881 0.950 . S
C892 C890 1.391 . S
C892 C893 1.400 . S
C893 C887 1.491 . S
C893 C892 1.400 . S
C893 C894 1.398 . S
C894 H882 0.950 . S
C894 C893 1.398 . S
C894 C895 1.391 . S
C895 H883 0.950 . S
C895 C891 1.393 . S
C895 C894 1.391 . S
H896 C904 0.950 . S
H897 C909 0.950 . S
H898 C906 0.950 . S
H899 C908 0.950 . S
H900 C910 0.950 . S
H901 C912 0.950 . S
H902 C914 0.950 . S
H903 C915 0.950 . S
C904 H896 0.950 . S
C904 C905 1.386 1_556 S
C904 C906 1.391 . S
C905 C904 1.386 1_554 S
C905 C909 1.393 . S
C906 H898 0.950 . S
C906 C904 1.391 . S
C906 C907 1.400 1_556 S
C907 C906 1.400 1_554 S
C907 C908 1.398 . S
C907 C913 1.491 1_554 S
C908 H899 0.950 . S
C908 C907 1.398 . S
C908 C909 1.391 . S
C909 H897 0.950 . S
C909 C905 1.393 . S
C909 C908 1.391 . S
C910 H900 0.950 . S
C910 C911 1.386 1_554 S
C910 C912 1.391 . S
C911 C910 1.386 1_556 S
C911 C915 1.393 . S
C912 H901 0.950 . S
C912 C910 1.391 . S
C912 C913 1.400 1_554 S
C913 C907 1.491 1_556 S
C913 C912 1.400 1_556 S
C913 C914 1.398 . S
C914 H902 0.950 . S
C914 C913 1.398 . S
C914 C915 1.391 . S
C915 H903 0.950 . S
C915 C911 1.393 . S
C915 C914 1.391 . S
H916 C924 0.950 . S
H917 C929 0.950 . S
H918 C926 0.950 . S
H919 C928 0.950 . S
H920 C930 0.950 . S
H921 C932 0.950 . S
H922 C934 0.950 . S
H923 C935 0.950 . S
C924 H916 0.950 . S
C924 C925 1.386 . S
C924 C926 1.391 . S
C925 C924 1.386 . S
C925 C929 1.393 . S
C926 H918 0.950 . S
C926 C924 1.391 . S
C926 C927 1.400 . S
C927 C926 1.400 . S
C927 C928 1.398 . S
C927 C933 1.491 . S
C928 H919 0.950 . S
C928 C927 1.398 . S
C928 C929 1.391 . S
C929 H917 0.950 . S
C929 C925 1.393 . S
C929 C928 1.391 . S
C930 H920 0.950 . S
C930 C931 1.386 . S
C930 C932 1.391 . S
C931 C930 1.386 . S
C931 C935 1.393 . S
C932 H921 0.950 . S
C932 C930 1.391 . S
C932 C933 1.400 . S
C933 C927 1.491 . S
C933 C932 1.400 . S
C933 C934 1.398 . S
C934 H922 0.950 . S
C934 C933 1.398 . S
C934 C935 1.391 . S
C935 H923 0.950 . S
C935 C931 1.393 . S
C935 C934 1.391 . S
H936 C944 0.950 . S
H937 C949 0.950 . S
H938 C946 0.950 . S
H939 C948 0.950 . S
H940 C950 0.950 . S
H941 C952 0.950 . S
H942 C954 0.950 . S
H943 C955 0.950 . S
C944 H936 0.950 . S
C944 C945 1.386 . S
C944 C946 1.391 . S
C945 C944 1.386 . S
C945 C949 1.393 . S
C946 H938 0.950 . S
C946 C944 1.391 . S
C946 C947 1.400 . S
C947 C946 1.400 . S
C947 C948 1.398 . S
C947 C953 1.491 . S
C948 H939 0.950 . S
C948 C947 1.398 . S
C948 C949 1.391 . S
C949 H937 0.950 . S
C949 C945 1.393 . S
C949 C948 1.391 . S
C950 H940 0.950 . S
C950 C951 1.386 . S
C950 C952 1.391 . S
C951 C950 1.386 . S
C951 C955 1.393 . S
C952 H941 0.950 . S
C952 C950 1.391 . S
C952 C953 1.400 . S
C953 C947 1.491 . S
C953 C952 1.400 . S
C953 C954 1.398 . S
C954 H942 0.950 . S
C954 C953 1.398 . S
C954 C955 1.391 . S
C955 H943 0.950 . S
C955 C951 1.393 . S
C955 C954 1.391 . S
H956 C964 0.950 . S
H957 C969 0.950 . S
H958 C966 0.950 . S
H959 C968 0.950 . S
H960 C970 0.950 . S
H961 C972 0.950 . S
H962 C974 0.950 . S
H963 C975 0.950 . S
C964 H956 0.950 . S
C964 C965 1.386 . S
C964 C966 1.391 . S
C965 C964 1.386 . S
C965 C969 1.393 . S
C966 H958 0.950 . S
C966 C964 1.391 . S
C966 C967 1.400 . S
C967 C966 1.400 . S
C967 C968 1.398 . S
C967 C973 1.491 . S
C968 H959 0.950 . S
C968 C967 1.398 . S
C968 C969 1.391 . S
C969 H957 0.950 . S
C969 C965 1.393 . S
C969 C968 1.391 . S
C970 H960 0.950 . S
C970 C971 1.386 . S
C970 C972 1.391 . S
C971 C970 1.386 . S
C971 C975 1.393 . S
C972 H961 0.950 . S
C972 C970 1.391 . S
C972 C973 1.400 . S
C973 C967 1.491 . S
C973 C972 1.400 . S
C973 C974 1.398 . S
C974 H962 0.950 . S
C974 C973 1.398 . S
C974 C975 1.391 . S
C975 H963 0.950 . S
C975 C971 1.393 . S
C975 C974 1.391 . S
H976 C984 0.950 . S
H977 C989 0.950 . S
H978 C986 0.950 . S
H979 C988 0.950 . S
H980 C990 0.950 . S
H981 C992 0.950 . S
H982 C994 0.950 . S
H983 C995 0.950 . S
C984 H976 0.950 . S
C984 C985 1.386 . S
C984 C986 1.391 . S
C985 C984 1.386 . S
C985 C989 1.393 . S
C986 H978 0.950 . S
C986 C984 1.391 . S
C986 C987 1.400 . S
C987 C986 1.400 . S
C987 C988 1.398 . S
C987 C993 1.491 . S
C988 H979 0.950 . S
C988 C987 1.398 . S
C988 C989 1.391 . S
C989 H977 0.950 . S
C989 C985 1.393 . S
C989 C988 1.391 . S
C990 H980 0.950 . S
C990 C991 1.386 . S
C990 C992 1.391 . S
C991 C990 1.386 . S
C991 C995 1.393 . S
C992 H981 0.950 . S
C992 C990 1.391 . S
C992 C993 1.400 . S
C993 C987 1.491 . S
C993 C992 1.400 . S
C993 C994 1.398 . S
C994 H982 0.950 . S
C994 C993 1.398 . S
C994 C995 1.391 . S
C995 H983 0.950 . S
C995 C991 1.393 . S
C995 C994 1.391 . S
H996 C1004 0.950 . S
H997 C1009 0.950 . S
H998 C1006 0.950 . S
H999 C1008 0.950 . S
H1000 C1010 0.950 . S
H1001 C1012 0.950 . S
H1002 C1014 0.950 . S
H1003 C1015 0.950 . S
C1004 H996 0.950 . S
C1004 C1005 1.386 . S
C1004 C1006 1.391 . S
C1005 C1004 1.386 . S
C1005 C1009 1.393 . S
C1006 H998 0.950 . S
C1006 C1004 1.391 . S
C1006 C1007 1.400 . S
C1007 C1006 1.400 . S
C1007 C1008 1.398 . S
C1007 C1013 1.491 . S
C1008 H999 0.950 . S
C1008 C1007 1.398 . S
C1008 C1009 1.391 . S
C1009 H997 0.950 . S
C1009 C1005 1.393 . S
C1009 C1008 1.391 . S
C1010 H1000 0.950 . S
C1010 C1011 1.386 . S
C1010 C1012 1.391 . S
C1011 C1010 1.386 . S
C1011 C1015 1.393 . S
C1012 H1001 0.950 . S
C1012 C1010 1.391 . S
C1012 C1013 1.400 . S
C1013 C1007 1.491 . S
C1013 C1012 1.400 . S
C1013 C1014 1.398 . S
C1014 H1002 0.950 . S
C1014 C1013 1.398 . S
C1014 C1015 1.391 . S
C1015 H1003 0.950 . S
C1015 C1011 1.393 . S
C1015 C1014 1.391 . S
H1016 C1024 0.950 . S
H1017 C1029 0.950 . S
H1018 C1026 0.938 1_565 S
H1019 C1028 0.950 . S
H1020 C1030 0.950 . S
H1021 C1032 0.954 . S
H1022 C1034 0.950 . S
H1023 C1035 0.950 . S
C1024 H1016 0.950 . S
C1024 C1025 1.386 . S
C1024 C1026 1.400 . S
C1025 C1024 1.386 . S
C1025 C1029 1.393 . S
C1026 H1018 0.938 1_545 S
C1026 C1024 1.400 . S
C1026 C1027 1.405 . S
C1027 C1026 1.405 . S
C1027 C1028 1.398 . S
C1027 C1033 1.491 1_545 S
C1028 H1019 0.950 . S
C1028 C1027 1.398 . S
C1028 C1029 1.391 . S
C1029 H1017 0.950 . S
C1029 C1025 1.393 . S
C1029 C1028 1.391 . S
C1030 H1020 0.950 . S
C1030 C1031 1.386 . S
C1030 C1032 1.388 1_565 S
C1031 C1030 1.386 . S
C1031 C1035 1.393 . S
C1032 H1021 0.954 . S
C1032 C1030 1.388 1_545 S
C1032 C1033 1.399 1_545 S
C1033 C1027 1.491 1_565 S
C1033 C1032 1.399 1_565 S
C1033 C1034 1.398 . S
C1034 H1022 0.950 . S
C1034 C1033 1.398 . S
C1034 C1035 1.391 . S
C1035 H1023 0.950 . S
C1035 C1031 1.393 . S
C1035 C1034 1.391 . S
H1036 C1044 0.950 . S
H1037 C1049 0.950 . S
H1038 C1046 0.950 . S
H1039 C1048 0.950 . S
H1040 C1050 0.950 . S
H1041 C1052 0.950 . S
H1042 C1054 0.950 . S
H1043 C1055 0.950 . S
C1044 H1036 0.950 . S
C1044 C1045 1.386 . S
C1044 C1046 1.391 . S
C1045 C1044 1.386 . S
C1045 C1049 1.393 1_556 S
C1046 H1038 0.950 . S
C1046 C1044 1.391 . S
C1046 C1047 1.424 . S
C1047 C1046 1.424 . S
C1047 C1048 1.380 1_556 S
C1047 C1053 1.487 1_556 S
C1048 H1039 0.950 . S
C1048 C1047 1.380 1_554 S
C1048 C1049 1.391 . S
C1049 H1037 0.950 . S
C1049 C1045 1.393 1_554 S
C1049 C1048 1.391 . S
C1050 H1040 0.950 . S
C1050 C1051 1.386 . S
C1050 C1052 1.391 . S
C1051 C1050 1.386 . S
C1051 C1055 1.393 1_554 S
C1052 H1041 0.950 . S
C1052 C1050 1.391 . S
C1052 C1053 1.400 . S
C1053 C1047 1.487 1_554 S
C1053 C1052 1.400 . S
C1053 C1054 1.398 1_554 S
C1054 H1042 0.950 . S
C1054 C1053 1.398 1_556 S
C1054 C1055 1.391 . S
C1055 H1043 0.950 . S
C1055 C1051 1.393 1_556 S
C1055 C1054 1.391 . S
H1056 C1064 0.950 . S
H1057 C1069 0.950 . S
H1058 C1066 0.950 . S
H1059 C1068 0.950 . S
H1060 C1070 0.950 . S
H1061 C1072 0.950 . S
H1062 C1074 0.939 1_565 S
H1063 C1075 0.950 . S
C1064 H1056 0.950 . S
C1064 C1065 1.386 . S
C1064 C1066 1.391 . S
C1065 C1064 1.386 . S
C1065 C1069 1.393 1_455 S
C1066 H1058 0.950 . S
C1066 C1064 1.391 . S
C1066 C1067 1.400 . S
C1067 C1066 1.400 . S
C1067 C1068 1.398 1_455 S
C1067 C1073 1.491 1_565 S
C1068 H1059 0.950 . S
C1068 C1067 1.398 1_655 S
C1068 C1069 1.391 . S
C1069 H1057 0.950 . S
C1069 C1065 1.393 1_655 S
C1069 C1068 1.391 . S
C1070 H1060 0.950 . S
C1070 C1071 1.386 1_655 S
C1070 C1072 1.391 . S
C1071 C1070 1.386 1_455 S
C1071 C1075 1.393 . S
C1072 H1061 0.950 . S
C1072 C1070 1.391 . S
C1072 C1073 1.400 1_655 S
C1073 C1067 1.491 1_545 S
C1073 C1072 1.400 1_455 S
C1073 C1074 1.398 . S
C1074 H1062 0.939 1_545 S
C1074 C1073 1.398 . S
C1074 C1075 1.391 . S
C1075 H1063 0.950 . S
C1075 C1071 1.393 . S
C1075 C1074 1.391 . S
H1076 C1084 0.949 . S
H1077 C1089 0.950 . S
H1078 C1086 0.944 1_455 S
H1079 C1088 0.950 . S
H1080 C1090 0.950 . S
H1081 C1092 0.950 . S
H1082 C1094 0.950 1_455 S
H1083 C1095 0.950 1_455 S
C1084 H1076 0.949 . S
C1084 C1085 1.386 1_455 S
C1084 C1086 1.391 1_455 S
C1085 C1084 1.386 1_655 S
C1085 C1089 1.393 . S
C1086 H1078 0.944 1_655 S
C1086 C1084 1.391 1_655 S
C1086 C1087 1.406 . S
C1087 C1086 1.406 . S
C1087 C1088 1.398 . S
C1087 C1093 1.491 . S
C1088 H1079 0.950 . S
C1088 C1087 1.398 . S
C1088 C1089 1.391 . S
C1089 H1077 0.950 . S
C1089 C1085 1.393 . S
C1089 C1088 1.391 . S
C1090 H1080 0.950 . S
C1090 C1091 1.386 . S
C1090 C1092 1.391 . S
C1091 C1090 1.386 . S
C1091 C1095 1.393 . S
C1092 H1081 0.950 . S
C1092 C1090 1.391 . S
C1092 C1093 1.400 . S
C1093 C1087 1.491 . S
C1093 C1092 1.400 . S
C1093 C1094 1.398 . S
C1094 H1082 0.950 1_655 S
C1094 C1093 1.398 . S
C1094 C1095 1.391 . S
C1095 H1083 0.950 1_655 S
C1095 C1091 1.393 . S
C1095 C1094 1.391 . S
H1096 C1104 0.950 . S
H1097 C1109 0.950 . S
H1098 C1106 0.950 . S
H1099 C1108 0.950 1_554 S
H1100 C1110 0.950 . S
H1101 C1112 0.950 . S
H1102 C1114 0.950 1_556 S
H1103 C1115 0.950 . S
C1104 H1096 0.950 . S
C1104 C1105 1.386 . S
C1104 C1106 1.391 . S
C1105 C1104 1.386 . S
C1105 C1109 1.393 1_545 S
C1106 H1098 0.950 . S
C1106 C1104 1.391 . S
C1106 C1107 1.400 . S
C1107 C1106 1.400 . S
C1107 C1108 1.398 1_545 S
C1107 C1113 1.491 1_556 S
C1108 H1099 0.950 1_556 S
C1108 C1107 1.398 1_565 S
C1108 C1109 1.391 . S
C1109 H1097 0.950 . S
C1109 C1105 1.393 1_565 S
C1109 C1108 1.391 . S
C1110 H1100 0.950 . S
C1110 C1111 1.386 1_565 S
C1110 C1112 1.391 . S
C1111 C1110 1.386 1_545 S
C1111 C1115 1.393 . S
C1112 H1101 0.950 . S
C1112 C1110 1.391 . S
C1112 C1113 1.400 1_565 S
C1113 C1107 1.491 1_554 S
C1113 C1112 1.400 1_545 S
C1113 C1114 1.398 . S
C1114 H1102 0.950 1_554 S
C1114 C1113 1.398 . S
C1114 C1115 1.391 . S
C1115 H1103 0.950 . S
C1115 C1111 1.393 . S
C1115 C1114 1.391 . S
H1116 C1124 0.950 . S
H1117 C1129 0.950 . S
H1118 C1126 0.950 1_556 S
H1119 C1128 0.950 . S
H1120 C1130 0.950 . S
H1121 C1132 0.950 1_554 S
H1122 C1134 0.950 . S
H1123 C1135 0.950 . S
C1124 H1116 0.950 . S
C1124 C1125 1.386 . S
C1124 C1126 1.391 . S
C1125 C1124 1.386 . S
C1125 C1129 1.393 . S
C1126 H1118 0.950 1_554 S
C1126 C1124 1.391 . S
C1126 C1127 1.400 . S
C1127 C1126 1.400 . S
C1127 C1128 1.398 . S
C1127 C1133 1.491 1_554 S
C1128 H1119 0.950 . S
C1128 C1127 1.398 . S
C1128 C1129 1.391 . S
C1129 H1117 0.950 . S
C1129 C1125 1.393 . S
C1129 C1128 1.391 . S
C1130 H1120 0.950 . S
C1130 C1131 1.386 . S
C1130 C1132 1.391 . S
C1131 C1130 1.386 . S
C1131 C1135 1.393 . S
C1132 H1121 0.950 1_556 S
C1132 C1130 1.391 . S
C1132 C1133 1.400 . S
C1133 C1127 1.491 1_556 S
C1133 C1132 1.400 . S
C1133 C1134 1.398 . S
C1134 H1122 0.950 . S
C1134 C1133 1.398 . S
C1134 C1135 1.391 . S
C1135 H1123 0.950 . S
C1135 C1131 1.393 . S
C1135 C1134 1.391 . S
H1136 C1144 0.950 . S
H1137 C1149 0.950 . S
H1138 C1146 0.950 . S
H1139 C1148 0.950 . S
H1140 C1150 0.950 . S
H1141 C1152 0.950 . S
H1142 C1154 0.950 . S
H1143 C1155 0.950 . S
C1144 H1136 0.950 . S
C1144 C1145 1.386 . S
C1144 C1146 1.391 . S
C1145 C1144 1.386 . S
C1145 C1149 1.393 1_565 S
C1146 H1138 0.950 . S
C1146 C1144 1.391 . S
C1146 C1147 1.400 . S
C1147 C1146 1.400 . S
C1147 C1148 1.398 1_565 S
C1147 C1153 1.491 . S
C1148 H1139 0.950 . S
C1148 C1147 1.398 1_545 S
C1148 C1149 1.391 . S
C1149 H1137 0.950 . S
C1149 C1145 1.393 1_545 S
C1149 C1148 1.391 . S
C1150 H1140 0.950 . S
C1150 C1151 1.386 1_545 S
C1150 C1152 1.391 . S
C1151 C1150 1.386 1_565 S
C1151 C1155 1.393 . S
C1152 H1141 0.950 . S
C1152 C1150 1.391 . S
C1152 C1153 1.400 1_545 S
C1153 C1147 1.491 . S
C1153 C1152 1.400 1_565 S
C1153 C1154 1.398 . S
C1154 H1142 0.950 . S
C1154 C1153 1.398 . S
C1154 C1155 1.391 . S
C1155 H1143 0.950 . S
C1155 C1151 1.393 . S
C1155 C1154 1.391 . S
H1156 C1164 0.950 . S
H1157 C1169 0.950 . S
H1158 C1166 0.950 . S
H1159 C1168 0.950 . S
H1160 C1170 0.950 . S
H1161 C1172 0.950 . S
H1162 C1174 0.950 . S
H1163 C1175 0.950 . S
C1164 H1156 0.950 . S
C1164 C1165 1.386 . S
C1164 C1166 1.391 . S
C1165 C1164 1.386 . S
C1165 C1169 1.393 . S
C1166 H1158 0.950 . S
C1166 C1164 1.391 . S
C1166 C1167 1.400 . S
C1167 C1166 1.400 . S
C1167 C1168 1.398 . S
C1167 C1173 1.491 . S
C1168 H1159 0.950 . S
C1168 C1167 1.398 . S
C1168 C1169 1.391 . S
C1169 H1157 0.950 . S
C1169 C1165 1.393 . S
C1169 C1168 1.391 . S
C1170 H1160 0.950 . S
C1170 C1171 1.386 . S
C1170 C1172 1.391 . S
C1171 C1170 1.386 . S
C1171 C1175 1.393 . S
C1172 H1161 0.950 . S
C1172 C1170 1.391 . S
C1172 C1173 1.400 . S
C1173 C1167 1.491 . S
C1173 C1172 1.400 . S
C1173 C1174 1.398 . S
C1174 H1162 0.950 . S
C1174 C1173 1.398 . S
C1174 C1175 1.391 . S
C1175 H1163 0.950 . S
C1175 C1171 1.393 . S
C1175 C1174 1.391 . S
H1176 C1184 0.950 . S
H1177 C1189 0.946 1_556 S
H1178 C1186 0.950 . S
H1179 C1188 0.940 1_655 S
H1180 C1190 0.950 1_556 S
H1181 C1192 0.950 1_556 S
H1182 C1194 0.950 1_455 S
H1183 C1195 0.950 . S
C1184 H1176 0.950 . S
C1184 C1185 1.386 . S
C1184 C1186 1.391 . S
C1185 C1184 1.386 . S
C1185 C1189 1.393 . S
C1186 H1178 0.950 . S
C1186 C1184 1.391 . S
C1186 C1187 1.400 . S
C1187 C1186 1.400 . S
C1187 C1188 1.401 . S
C1187 C1193 1.491 1_455 S
C1188 H1179 0.940 1_455 S
C1188 C1187 1.401 . S
C1188 C1189 1.398 . S
C1189 H1177 0.946 1_554 S
C1189 C1185 1.393 . S
C1189 C1188 1.398 . S
C1190 H1180 0.950 1_554 S
C1190 C1191 1.386 . S
C1190 C1192 1.391 . S
C1191 C1190 1.386 . S
C1191 C1195 1.393 . S
C1192 H1181 0.950 1_554 S
C1192 C1190 1.391 . S
C1192 C1193 1.400 . S
C1193 C1187 1.491 1_655 S
C1193 C1192 1.400 . S
C1193 C1194 1.398 . S
C1194 H1182 0.950 1_655 S
C1194 C1193 1.398 . S
C1194 C1195 1.391 . S
C1195 H1183 0.950 . S
C1195 C1191 1.393 . S
C1195 C1194 1.391 . S
H1196 C1204 0.950 . S
H1197 C1209 0.950 . S
H1198 C1206 0.950 . S
H1199 C1208 0.950 . S
H1200 C1210 0.950 . S
H1201 C1212 0.950 . S
H1202 C1214 0.950 . S
H1203 C1215 0.950 . S
C1204 H1196 0.950 . S
C1204 C1205 1.386 . S
C1204 C1206 1.391 . S
C1205 C1204 1.386 . S
C1205 C1209 1.393 . S
C1206 H1198 0.950 . S
C1206 C1204 1.391 . S
C1206 C1207 1.400 . S
C1207 C1206 1.400 . S
C1207 C1208 1.398 . S
C1207 C1213 1.491 1_455 S
C1208 H1199 0.950 . S
C1208 C1207 1.398 . S
C1208 C1209 1.391 . S
C1209 H1197 0.950 . S
C1209 C1205 1.393 . S
C1209 C1208 1.391 . S
C1210 H1200 0.950 . S
C1210 C1211 1.386 . S
C1210 C1212 1.391 . S
C1211 C1210 1.386 . S
C1211 C1215 1.393 . S
C1212 H1201 0.950 . S
C1212 C1210 1.391 . S
C1212 C1213 1.400 . S
C1213 C1207 1.491 1_655 S
C1213 C1212 1.400 . S
C1213 C1214 1.398 . S
C1214 H1202 0.950 . S
C1214 C1213 1.398 . S
C1214 C1215 1.391 . S
C1215 H1203 0.950 . S
C1215 C1211 1.393 . S
C1215 C1214 1.391 . S
H1216 C1224 0.950 . S
H1217 C1229 0.950 . S
H1218 C1226 0.950 . S
H1219 C1228 0.950 . S
H1220 C1230 0.950 . S
H1221 C1232 0.950 . S
H1222 C1234 0.950 . S
H1223 C1235 0.950 . S
C1224 H1216 0.950 . S
C1224 C1225 1.386 . S
C1224 C1226 1.391 . S
C1225 C1224 1.386 . S
C1225 C1229 1.393 . S
C1226 H1218 0.950 . S
C1226 C1224 1.391 . S
C1226 C1227 1.400 . S
C1227 C1226 1.400 . S
C1227 C1228 1.398 . S
C1227 C1233 1.491 . S
C1228 H1219 0.950 . S
C1228 C1227 1.398 . S
C1228 C1229 1.391 . S
C1229 H1217 0.950 . S
C1229 C1225 1.393 . S
C1229 C1228 1.391 . S
C1230 H1220 0.950 . S
C1230 C1231 1.386 . S
C1230 C1232 1.391 . S
C1231 C1230 1.386 . S
C1231 C1235 1.393 . S
C1232 H1221 0.950 . S
C1232 C1230 1.391 . S
C1232 C1233 1.400 . S
C1233 C1227 1.491 . S
C1233 C1232 1.400 . S
C1233 C1234 1.398 . S
C1234 H1222 0.950 . S
C1234 C1233 1.398 . S
C1234 C1235 1.391 . S
C1235 H1223 0.950 . S
C1235 C1231 1.393 . S
C1235 C1234 1.391 . S
H1236 C1244 0.950 . S
H1237 C1249 0.950 . S
H1238 C1246 0.950 . S
H1239 C1248 0.950 . S
H1240 C1250 0.950 . S
H1241 C1252 0.950 . S
H1242 C1254 0.950 . S
H1243 C1255 0.950 . S
C1244 H1236 0.950 . S
C1244 C1245 1.386 . S
C1244 C1246 1.391 . S
C1245 C1244 1.386 . S
C1245 C1249 1.393 . S
C1246 H1238 0.950 . S
C1246 C1244 1.391 . S
C1246 C1247 1.400 . S
C1247 C1246 1.400 . S
C1247 C1248 1.398 . S
C1247 C1253 1.491 . S
C1248 H1239 0.950 . S
C1248 C1247 1.398 . S
C1248 C1249 1.391 . S
C1249 H1237 0.950 . S
C1249 C1245 1.393 . S
C1249 C1248 1.391 . S
C1250 H1240 0.950 . S
C1250 C1251 1.386 . S
C1250 C1252 1.391 . S
C1251 C1250 1.386 . S
C1251 C1255 1.393 . S
C1252 H1241 0.950 . S
C1252 C1250 1.391 . S
C1252 C1253 1.400 . S
C1253 C1247 1.491 . S
C1253 C1252 1.400 . S
C1253 C1254 1.398 . S
C1254 H1242 0.950 . S
C1254 C1253 1.398 . S
C1254 C1255 1.391 . S
C1255 H1243 0.950 . S
C1255 C1251 1.393 . S
C1255 C1254 1.391 . S
H1256 C1264 0.950 . S
H1257 C1269 0.950 . S
H1258 C1266 0.950 . S
H1259 C1268 0.950 1_545 S
H1260 C1270 0.950 . S
H1261 C1272 0.950 . S
H1262 C1274 0.950 . S
H1263 C1275 0.950 . S
C1264 H1256 0.950 . S
C1264 C1265 1.386 . S
C1264 C1266 1.391 . S
C1265 C1264 1.386 . S
C1265 C1269 1.393 . S
C1266 H1258 0.950 . S
C1266 C1264 1.391 . S
C1266 C1267 1.400 . S
C1267 C1266 1.400 . S
C1267 C1268 1.398 . S
C1267 C1273 1.491 1_565 S
C1268 H1259 0.950 1_565 S
C1268 C1267 1.398 . S
C1268 C1269 1.391 . S
C1269 H1257 0.950 . S
C1269 C1265 1.393 . S
C1269 C1268 1.391 . S
C1270 H1260 0.950 . S
C1270 C1271 1.386 . S
C1270 C1272 1.391 . S
C1271 C1270 1.386 . S
C1271 C1275 1.393 . S
C1272 H1261 0.950 . S
C1272 C1270 1.391 . S
C1272 C1273 1.400 . S
C1273 C1267 1.491 1_545 S
C1273 C1272 1.400 . S
C1273 C1274 1.398 1_545 S
C1274 H1262 0.950 . S
C1274 C1273 1.398 1_565 S
C1274 C1275 1.391 1_565 S
C1275 H1263 0.950 . S
C1275 C1271 1.393 . S
C1275 C1274 1.391 1_545 S
H1276 C1284 0.942 1_554 S
H1277 C1289 0.950 . S
H1278 C1286 0.958 . S
H1279 C1288 0.950 . S
H1280 C1290 0.950 . S
H1281 C1292 0.950 . S
H1282 C1294 0.950 . S
H1283 C1295 0.950 . S
C1284 H1276 0.942 1_556 S
C1284 C1285 1.386 . S
C1284 C1286 1.391 . S
C1285 C1284 1.386 . S
C1285 C1289 1.393 . S
C1286 H1278 0.958 . S
C1286 C1284 1.391 . S
C1286 C1287 1.400 . S
C1287 C1286 1.400 . S
C1287 C1288 1.398 . S
C1287 C1293 1.491 . S
C1288 H1279 0.950 . S
C1288 C1287 1.398 . S
C1288 C1289 1.391 . S
C1289 H1277 0.950 . S
C1289 C1285 1.393 . S
C1289 C1288 1.391 . S
C1290 H1280 0.950 . S
C1290 C1291 1.386 . S
C1290 C1292 1.391 . S
C1291 C1290 1.386 . S
C1291 C1295 1.393 . S
C1292 H1281 0.950 . S
C1292 C1290 1.391 . S
C1292 C1293 1.400 . S
C1293 C1287 1.491 . S
C1293 C1292 1.400 . S
C1293 C1294 1.398 . S
C1294 H1282 0.950 . S
C1294 C1293 1.398 . S
C1294 C1295 1.391 . S
C1295 H1283 0.950 . S
C1295 C1291 1.393 . S
C1295 C1294 1.391 . S
C345 C242 0.580 . S
C351 C12 0.550 . S
C365 C26 0.628 . S
C371 C228 0.713 . S
C385 C40 0.623 . S
C391 C270 0.687 . S
C405 C54 0.728 . S
C411 C256 0.690 . S
C425 C68 0.551 . S
C431 C306 0.615 . S
C445 C82 0.598 . S
C451 C320 0.613 . S
C465 C292 0.593 . S
C471 C96 0.583 . S
C485 C166 0.710 . S
C491 C110 0.660 . S
C505 C116 0.630 . S
C511 C46 0.677 . S
C525 C18 0.732 . S
C531 C130 0.689 . S
C545 C144 0.856 . S
C551 C4 0.820 . S
C565 C158 0.712 . S
C571 C200 0.722 . S
C585 C74 0.734 . S
C591 C180 0.787 . S
C605 C60 0.741 . S
C611 C194 0.715 . S
C625 C208 0.689 . S
C631 C102 0.752 . S
C645 C222 0.616 . S
C651 C88 0.616 . S
C665 C138 0.721 . S
C671 C236 0.727 . S
C685 C152 0.674 . S
C691 C250 0.682 . S
C705 C124 0.725 . S
C711 C264 0.725 . S
C725 C278 0.656 . S
C731 C334 0.643 . S
C745 C214 0.860 . S
C751 C284 0.865 . S
C765 C298 0.772 . S
C771 C186 0.801 . S
C785 C172 0.642 . S
C791 C312 0.699 . S
C805 C326 0.758 . S
C811 C32 0.791 . S
C825 C11 1.529 . S
C831 C25 1.528 . S
C845 C53 1.470 . S
C851 C39 1.497 . S
C865 C67 1.475 . S
C871 C95 1.462 . S
C885 C81 1.715 . S
C891 C109 1.706 . S
C905 C313 1.422 . S
C911 C117 1.429 . S
C925 C131 1.567 . S
C931 C159 1.583 . S
C945 C285 1.539 . S
C951 C145 1.521 . S
C965 C193 1.610 . S
C971 C179 1.578 . S
C985 C207 1.620 . S
C991 C221 1.653 . S
C1005 C263 1.688 . S
C1011 C235 1.659 . S
C1025 C249 1.429 . S
C1031 C277 1.436 . S
C1045 C327 1.381 . S
C1051 C299 1.377 . S
C1065 C33 1.207 . S
C1071 C5 1.204 . S
C1085 C19 1.302 . S
C1091 C47 1.280 . S
C1105 C271 1.198 . S
C1111 C61 1.217 . S
C1125 C75 1.259 . S
C1131 C257 1.238 . S
C1145 C89 1.278 . S
C1151 C243 1.292 . S
C1165 C229 1.332 . S
C1171 C103 1.352 . S
C1185 C123 1.340 . S
C1191 C333 1.327 . S
C1205 C137 1.368 . S
C1211 C151 1.364 . S
C1225 C291 1.459 . S
C1231 C165 1.461 . S
C1245 C173 1.316 . S
C1251 C201 1.316 . S
C1265 C187 1.203 . S
C1271 C215 1.233 . S
C1285 C319 1.415 . S
C1291 C305 1.415 . S
