# Generated by pormake.
# Topology ecn, (8)-cn, num edge types: 1
# Building blocks:
#     Node 0, Type 0, BuildingBlock: TAGTUT_clean_sbu_1, # of connection points: 8
#     Node 1, Type 0, BuildingBlock: TAGTUT_clean_sbu_1, # of connection points: 8
#     Node 2, Type 0, BuildingBlock: TAGTUT_clean_sbu_1, # of connection points: 8
#     Node 3, Type 0, BuildingBlock: TAGTUT_clean_sbu_1, # of connection points: 8
#     Node 4, Type 0, BuildingBlock: TAGTUT_clean_sbu_1, # of connection points: 8
#     Node 5, Type 0, BuildingBlock: TAGTUT_clean_sbu_1, # of connection points: 8
#     Node 6, Type 0, BuildingBlock: TAGTUT_clean_sbu_1, # of connection points: 8
#     Node 7, Type 0, BuildingBlock: TAGTUT_clean_sbu_1, # of connection points: 8
#     Node 8, Type 0, BuildingBlock: TAGTUT_clean_sbu_1, # of connection points: 8
#     Edge 9, Type (0, 0), BuildingBlock: OJICUG_clean_linker_0, # of connection points: 2
#     Edge 10, Type (0, 0), BuildingBlock: OJICUG_clean_linker_0, # of connection points: 2
#     Edge 11, Type (0, 0), BuildingBlock: OJICUG_clean_linker_0, # of connection points: 2
#     Edge 12, Type (0, 0), BuildingBlock: OJICUG_clean_linker_0, # of connection points: 2
#     Edge 13, Type (0, 0), BuildingBlock: OJICUG_clean_linker_0, # of connection points: 2
#     Edge 14, Type (0, 0), BuildingBlock: OJICUG_clean_linker_0, # of connection points: 2
#     Edge 15, Type (0, 0), BuildingBlock: OJICUG_clean_linker_0, # of connection points: 2
#     Edge 16, Type (0, 0), BuildingBlock: OJICUG_clean_linker_0, # of connection points: 2
#     Edge 17, Type (0, 0), BuildingBlock: OJICUG_clean_linker_0, # of connection points: 2
#     Edge 18, Type (0, 0), BuildingBlock: OJICUG_clean_linker_0, # of connection points: 2
#     Edge 19, Type (0, 0), BuildingBlock: OJICUG_clean_linker_0, # of connection points: 2
#     Edge 20, Type (0, 0), BuildingBlock: OJICUG_clean_linker_0, # of connection points: 2
#     Edge 21, Type (0, 0), BuildingBlock: OJICUG_clean_linker_0, # of connection points: 2
#     Edge 22, Type (0, 0), BuildingBlock: OJICUG_clean_linker_0, # of connection points: 2
#     Edge 23, Type (0, 0), BuildingBlock: OJICUG_clean_linker_0, # of connection points: 2
#     Edge 24, Type (0, 0), BuildingBlock: OJICUG_clean_linker_0, # of connection points: 2
#     Edge 25, Type (0, 0), BuildingBlock: OJICUG_clean_linker_0, # of connection points: 2
#     Edge 26, Type (0, 0), BuildingBlock: OJICUG_clean_linker_0, # of connection points: 2
#     Edge 27, Type (0, 0), BuildingBlock: OJICUG_clean_linker_0, # of connection points: 2
#     Edge 28, Type (0, 0), BuildingBlock: OJICUG_clean_linker_0, # of connection points: 2
#     Edge 29, Type (0, 0), BuildingBlock: OJICUG_clean_linker_0, # of connection points: 2
#     Edge 30, Type (0, 0), BuildingBlock: OJICUG_clean_linker_0, # of connection points: 2
#     Edge 31, Type (0, 0), BuildingBlock: OJICUG_clean_linker_0, # of connection points: 2
#     Edge 32, Type (0, 0), BuildingBlock: OJICUG_clean_linker_0, # of connection points: 2
#     Edge 33, Type (0, 0), BuildingBlock: OJICUG_clean_linker_0, # of connection points: 2
#     Edge 34, Type (0, 0), BuildingBlock: OJICUG_clean_linker_0, # of connection points: 2
#     Edge 35, Type (0, 0), BuildingBlock: OJICUG_clean_linker_0, # of connection points: 2
#     Edge 36, Type (0, 0), BuildingBlock: OJICUG_clean_linker_0, # of connection points: 2
#     Edge 37, Type (0, 0), BuildingBlock: OJICUG_clean_linker_0, # of connection points: 2
#     Edge 38, Type (0, 0), BuildingBlock: OJICUG_clean_linker_0, # of connection points: 2
#     Edge 39, Type (0, 0), BuildingBlock: OJICUG_clean_linker_0, # of connection points: 2
#     Edge 40, Type (0, 0), BuildingBlock: OJICUG_clean_linker_0, # of connection points: 2
#     Edge 41, Type (0, 0), BuildingBlock: OJICUG_clean_linker_0, # of connection points: 2
#     Edge 42, Type (0, 0), BuildingBlock: OJICUG_clean_linker_0, # of connection points: 2
#     Edge 43, Type (0, 0), BuildingBlock: OJICUG_clean_linker_0, # of connection points: 2
#     Edge 44, Type (0, 0), BuildingBlock: OJICUG_clean_linker_0, # of connection points: 2
# Relax obj value: 0.098
# Max RMSD: 0.217
# Mean RMSD: 0.206
data_MOF--net-ecn--node1-TAGTUT_clean_sbu_1--edge1-OJICUG_clean_linker_0
_symmetry_space_group_name_H-M    P1
_symmetry_Int_Tables_number       1
_symmetry_cell_setting            triclinic
loop_
_symmetry_equiv_pos_as_xyz
'x, y, z'
_cell_length_a     39.712488
_cell_length_b     38.939195
_cell_length_c     10.947466
_cell_angle_alpha  89.948981
_cell_angle_beta   90.536309
_cell_angle_gamma 116.8093
loop_
_atom_site_label
_atom_site_type_symbol
_atom_site_fract_x
_atom_site_fract_y
_atom_site_fract_z
_atom_type_partial_charge
C0 C 0.97199 0.17291 0.03504 0.0
C1 C 0.01806 0.10835 0.23217 0.0
C2 C 0.13318 0.24364 0.33344 0.0
Mg3 Mg 0.02996 0.14276 0.97258 0.0
O4 O 0.06243 0.19092 0.03608 0.0
Mg5 Mg 0.05173 0.20488 0.20167 0.0
Mg6 Mg 0.11724 0.20641 0.06296 0.0
O7 O 0.17157 0.22249 0.09452 0.0
Mg8 Mg 0.19977 0.2729 0.15099 0.0
Mg9 Mg 0.18639 0.20954 0.93583 0.0
C10 C 0.10099 0.17219 0.79266 0.0
C11 C 0.12961 0.1298 0.06723 0.0
O12 O 0.99344 0.19083 0.12546 0.0
O13 O 0.9802 0.15304 0.95816 0.0
O14 O 0.02671 0.14201 0.27442 0.0
O15 O 0.02143 0.10271 0.11885 0.0
O16 O 0.06617 0.14937 0.81589 0.0
O17 O 0.12392 0.19455 0.87319 0.0
C18 C 0.10331 0.28195 0.04493 0.0
O19 O 0.12489 0.26707 0.01365 0.0
O20 O 0.07575 0.26462 0.11807 0.0
O21 O 0.24466 0.2233 0.03967 0.0
O22 O 0.24928 0.26646 0.1836 0.0
O23 O 0.21023 0.27243 0.86019 0.0
C24 C 0.26134 0.24446 0.1338 0.0
O25 O 0.20668 0.31109 0.00415 0.0
O26 O 0.16667 0.26928 0.30946 0.0
C27 C 0.2134 0.3052 0.8947 0.0
O28 O 0.11232 0.21893 0.25463 0.0
O29 O 0.10781 0.14434 0.09975 0.0
O30 O 0.16026 0.1491 0.00927 0.0
C31 C 0.76785 0.74768 0.13423 0.0
C32 C 0.70412 0.79384 0.90806 0.0
C33 C 0.80988 0.91747 0.8527 0.0
Mg34 Mg 0.73038 0.80177 0.17366 0.0
O35 O 0.78032 0.83579 0.13325 0.0
Mg36 Mg 0.79823 0.82963 0.9705 0.0
Mg37 Mg 0.79225 0.89086 0.13007 0.0
O38 O 0.80164 0.94582 0.12997 0.0
Mg39 Mg 0.84051 0.98575 0.0502 0.0
Mg40 Mg 0.79111 0.94792 0.30486 0.0
C41 C 0.75165 0.86152 0.38682 0.0
C42 C 0.71491 0.89901 0.1385 0.0
O43 O 0.78904 0.76896 0.04805 0.0
O44 O 0.74278 0.75459 0.18586 0.0
O45 O 0.73839 0.80276 0.88242 0.0
O46 O 0.69415 0.79528 0.01777 0.0
O47 O 0.72889 0.82767 0.34883 0.0
O48 O 0.77841 0.88566 0.32221 0.0
C49 C 0.87147 0.88608 0.13195 0.0
O50 O 0.85355 0.90394 0.17187 0.0
O51 O 0.85657 0.85773 0.05766 0.0
O52 O 0.80115 0.00843 0.27819 0.0
O53 O 0.82833 0.03364 0.09989 0.0
O54 O 0.85656 0.97388 0.35015 0.0
C55 C 0.81413 0.03609 0.20244 0.0
O56 O 0.88562 0.98967 0.16768 0.0
O57 O 0.82284 0.95374 0.87542 0.0
C58 C 0.88655 0.98684 0.28426 0.0
O59 O 0.80733 0.89333 0.93536 0.0
O60 O 0.73177 0.88105 0.08948 0.0
O61 O 0.73036 0.92357 0.22576 0.0
C62 C 0.25567 0.01452 0.928 0.0
C63 C 0.20845 0.89852 0.76046 0.0
C64 C 0.08701 0.89361 0.67493 0.0
Mg65 Mg 0.20519 0.93115 0.0108 0.0
O66 O 0.16793 0.94446 0.95694 0.0
Mg67 Mg 0.17159 0.96197 0.78532 0.0
Mg68 Mg 0.11483 0.90281 0.95371 0.0
O69 O 0.06292 0.85867 0.95233 0.0
Mg70 Mg 0.02138 0.85517 0.86593 0.0
Mg71 Mg 0.06079 0.8444 0.1256 0.0
C72 C 0.14606 0.89422 0.21632 0.0
C73 C 0.11742 0.82193 0.97258 0.0
O74 O 0.2316 0.01132 0.84345 0.0
O75 O 0.25111 0.98713 0.00084 0.0
O76 O 0.19877 0.92285 0.71221 0.0
O77 O 0.20955 0.89471 0.87571 0.0
O78 O 0.18063 0.9075 0.18446 0.0
O79 O 0.1201 0.89447 0.1473 0.0
C80 C 0.11628 0.9858 0.94773 0.0
O81 O 0.09918 0.9516 -0.00956 0.0
O82 O 0.1432 0.99577 0.87051 0.0
O83 O 1.0037 0.7925 0.08829 0.0
O84 O 0.98016 0.79613 0.90403 0.0
O85 O 0.02761 0.8803 0.16341 0.0
C86 C 0.97862 0.77842 0.00399 0.0
O87 O 0.0103 0.89303 0.97866 0.0
O88 O 0.052 0.87122 0.69477 0.0
C89 C 0.01194 0.89617 0.09523 0.0
O90 O 0.11027 0.91248 0.75944 0.0
O91 O 0.13015 0.85456 0.91908 0.0
O92 O 0.09288 0.812 0.05813 0.0
C93 C 0.64171 0.51666 0.3377 0.0
C94 C 0.67977 0.44671 0.55104 0.0
C95 C 0.79814 0.57795 0.65986 0.0
Mg96 Mg 0.69678 0.48137 0.29353 0.0
O97 O 0.72975 0.52961 0.35568 0.0
Mg98 Mg 0.71802 0.5439 0.51952 0.0
Mg99 Mg 0.78344 0.54181 0.38873 0.0
O100 O 0.83666 0.55448 0.42598 0.0
Mg101 Mg 0.86592 0.6047 0.48301 0.0
Mg102 Mg 0.85176 0.54174 0.26708 0.0
C103 C 0.76836 0.50708 0.11965 0.0
C104 C 0.78966 0.46207 0.38568 0.0
O105 O 0.66196 0.53419 0.43099 0.0
O106 O 0.64922 0.49451 0.26831 0.0
O107 O 0.68846 0.48058 0.59131 0.0
O108 O 0.68492 0.44082 0.43961 0.0
O109 O 0.73358 0.48436 0.14328 0.0
O110 O 0.79106 0.53056 0.19853 0.0
C111 C 0.77571 0.62063 0.37347 0.0
O112 O 0.79556 0.60377 0.34297 0.0
O113 O 0.74677 0.60431 0.44176 0.0
O114 O 0.90841 0.55232 0.37646 0.0
O115 O 0.9138 0.59577 0.52065 0.0
O116 O 0.87887 0.60521 0.19425 0.0
C117 C 0.92492 0.57285 0.47196 0.0
O118 O 0.87567 0.64401 0.33798 0.0
O119 O 0.83187 0.60309 0.63623 0.0
C120 C 0.88285 0.63824 0.2291 0.0
O121 O 0.77701 0.55351 0.58074 0.0
O122 O 0.76987 0.47861 0.42072 0.0
O123 O 0.82136 0.48024 0.33204 0.0
C124 C 0.43347 0.07953 0.46361 0.0
C125 C 0.37263 0.12324 0.21272 0.0
C126 C 0.47867 0.24788 0.15469 0.0
Mg127 Mg 0.39547 0.13407 0.48183 0.0
O128 O 0.44536 0.16827 0.44268 0.0
Mg129 Mg 0.46601 0.1601 0.28835 0.0
Mg130 Mg 0.45748 0.22329 0.43051 0.0
O131 O 0.46771 0.27857 0.42316 0.0
Mg132 Mg 0.50854 0.31768 0.34794 0.0
Mg133 Mg 0.45427 0.28223 0.59415 0.0
C134 C 0.41521 0.1957 0.68864 0.0
C135 C 0.38118 0.23306 0.41408 0.0
O136 O 0.45598 0.1001 0.37868 0.0
O137 O 0.40771 0.08704 0.50673 0.0
O138 O 0.40721 0.13185 0.19294 0.0
O139 O 0.36127 0.12596 0.31947 0.0
O140 O 0.39307 0.16133 0.65327 0.0
O141 O 0.44089 0.21989 0.62069 0.0
C142 C 0.5363 0.21861 0.45742 0.0
O143 O 0.51752 0.23658 0.48717 0.0
O144 O 0.52304 0.18957 0.38531 0.0
O145 O 0.46548 0.3428 0.55793 0.0
O146 O 0.49657 0.36663 0.38381 0.0
O147 O 0.5188 0.30882 0.65284 0.0
C148 C 0.48039 0.36992 0.48087 0.0
O149 O 0.55126 0.32196 0.4766 0.0
O150 O 0.49237 0.28426 0.1766 0.0
C151 C 0.55003 0.32103 0.5936 0.0
O152 O 0.47583 0.22377 0.23833 0.0
O153 O 0.39791 0.2138 0.3737 0.0
O154 O 0.3955 0.2578 0.50153 0.0
C155 C 0.91707 0.35342 0.27102 0.0
C156 C 0.87438 0.23244 0.15386 0.0
C157 C 0.74859 0.22475 0.04807 0.0
Mg158 Mg 0.87053 0.27381 0.38545 0.0
O159 O 0.8314 0.28209 0.31981 0.0
Mg160 Mg 0.83317 0.29233 0.14149 0.0
Mg161 Mg 0.77984 0.23792 0.32543 0.0
O162 O 0.72928 0.192 0.33206 0.0
Mg163 Mg 0.68668 0.18596 0.24648 0.0
Mg164 Mg 0.72857 0.18346 0.50975 0.0
C165 C 0.81308 0.23991 0.5932 0.0
C166 C 0.78654 0.16002 0.36789 0.0
O167 O 0.89243 0.34591 0.18452 0.0
O168 O 0.9139 0.3296 0.35565 0.0
O169 O 0.86262 0.25304 0.09214 0.0
O170 O 0.87679 0.23414 0.26981 0.0
O171 O 0.84794 0.25524 0.56422 0.0
O172 O 0.78652 0.23585 0.51973 0.0
C173 C 0.77469 0.31674 0.28204 0.0
O174 O 0.76096 0.2849 0.34082 0.0
O175 O 0.80104 0.32549 0.20294 0.0
O176 O 0.6721 0.12992 0.48383 0.0
O177 O 0.64713 0.12769 0.29699 0.0
O178 O 0.694 0.21835 0.53657 0.0
C179 C 0.64658 0.11313 0.40229 0.0
O180 O 0.67464 0.22508 0.34798 0.0
O181 O 0.71383 0.20206 0.06988 0.0
C182 C 0.6772 0.23158 0.46296 0.0
O183 O 0.77351 0.24023 0.13105 0.0
O184 O 0.79837 0.19163 0.30897 0.0
O185 O 0.76194 0.15092 0.4531 0.0
C186 C 0.30785 0.84471 0.64386 0.0
C187 C 0.34113 0.77709 0.88434 0.0
C188 C 0.45149 0.90789 0.02827 0.0
Mg189 Mg 0.36647 0.81251 0.62808 0.0
O190 O 0.39594 0.86145 0.69662 0.0
Mg191 Mg 0.3776 0.87362 0.85362 0.0
Mg192 Mg 0.44884 0.87535 0.75215 0.0
O193 O 0.50047 0.88809 0.81244 0.0
Mg194 Mg 0.52805 0.9361 0.88635 0.0
Mg195 Mg 0.52139 0.87701 0.66195 0.0
C196 C 0.44172 0.84504 0.48547 0.0
C197 C 0.45711 0.79618 0.76412 0.0
O198 O 0.32461 0.86174 0.74279 0.0
O199 O 0.3189 0.82434 0.57844 0.0
O200 O 0.34796 0.81057 0.92304 0.0
O201 O 0.34902 0.77173 0.77555 0.0
O202 O 0.41328 0.81388 0.51856 0.0
O203 O 0.465 0.86801 0.56432 0.0
C204 C 0.4382 0.95273 0.72291 0.0
O205 O 0.46073 0.93785 0.70566 0.0
O206 O 0.40697 0.93445 0.77914 0.0
O207 O 0.57443 0.88704 0.78675 0.0
O208 O 0.57488 0.92601 0.93924 0.0
O209 O 0.54931 0.94089 0.59864 0.0
C210 C 0.58828 0.90531 0.88784 0.0
O211 O 0.5427 0.9774 0.74418 0.0
O212 O 0.48677 0.93138 0.02188 0.0
C213 C 0.55227 0.97323 0.63654 0.0
O214 O 0.43408 0.88454 0.94124 0.0
O215 O 0.43538 0.81181 0.78468 0.0
O216 O 0.49037 0.81515 0.72181 0.0
C217 C 0.09288 0.40659 0.78633 0.0
C218 C 0.03582 0.45693 0.54315 0.0
C219 C 0.14318 0.57673 0.48819 0.0
Mg220 Mg 0.05808 0.46361 0.81264 0.0
O221 O 0.10857 0.49648 0.77549 0.0
Mg222 Mg 0.12834 0.48854 0.61893 0.0
Mg223 Mg 0.12154 0.5517 0.76392 0.0
O224 O 0.13212 0.60701 0.75709 0.0
Mg225 Mg 0.17325 0.64582 0.68248 0.0
Mg226 Mg 0.11819 0.61065 0.92767 0.0
C227 C 0.0793 0.52441 0.02242 0.0
C228 C 0.04515 0.56152 0.74839 0.0
O229 O 0.11604 0.42753 0.70353 0.0
O230 O 0.0677 0.41473 0.83102 0.0
O231 O 0.06982 0.46346 0.52266 0.0
O232 O 0.02483 0.45927 0.65081 0.0
O233 O 0.05672 0.49022 -0.01329 0.0
O234 O 0.10499 0.54844 0.95429 0.0
C235 C 0.19921 0.54468 0.79043 0.0
O236 O 0.1814 0.56376 0.81955 0.0
O237 O 0.18521 0.51569 0.71806 0.0
O238 O 0.12957 0.6712 0.89086 0.0
O239 O 0.16157 0.69482 0.7179 0.0
O240 O 0.18242 0.6371 -0.0127 0.0
C241 C 0.14498 0.69821 0.81376 0.0
O242 O 0.2154 0.64941 0.81233 0.0
O243 O 0.15723 0.61312 0.51 0.0
C244 C 0.2138 0.64891 0.92929 0.0
O245 O 0.13998 0.55257 0.57198 0.0
O246 O 0.06226 0.54275 0.70734 0.0
O247 O 0.05926 0.58624 0.8359 0.0
C248 C 0.58483 0.68743 0.62625 0.0
C249 C 0.54185 0.57213 0.45456 0.0
C250 C 0.41811 0.56433 0.36101 0.0
Mg251 Mg 0.53612 0.60338 0.70381 0.0
O252 O 0.49784 0.61458 0.64719 0.0
Mg253 Mg 0.50205 0.63315 0.47664 0.0
Mg254 Mg 0.4456 0.57143 0.63924 0.0
O255 O 0.3943 0.52614 0.63301 0.0
Mg256 Mg 0.35289 0.52476 0.55114 0.0
Mg257 Mg 0.39191 0.51034 0.80506 0.0
C258 C 0.4765 0.56245 0.90328 0.0
C259 C 0.45043 0.49134 0.64899 0.0
O260 O 0.56124 0.68368 0.53933 0.0
O261 O 0.5805 0.66011 0.69892 0.0
O262 O 0.5313 0.59562 0.40471 0.0
O263 O 0.54286 0.56864 0.56981 0.0
O264 O 0.51136 0.57769 0.87398 0.0
O265 O 0.45039 0.56144 0.83226 0.0
C266 C 0.44369 0.6531 0.63723 0.0
O267 O 0.42806 0.61871 0.67931 0.0
O268 O 0.47101 0.66468 0.56093 0.0
O269 O 0.33541 0.45821 0.76178 0.0
O270 O 0.311 0.4657 0.58352 0.0
O271 O 0.35724 0.5442 0.84916 0.0
C272 C 0.30998 0.4459 0.67803 0.0
O273 O 0.3428 0.56212 0.6683 0.0
O274 O 0.38308 0.54209 0.38062 0.0
C275 C 0.3425 0.56186 0.78509 0.0
O276 O 0.44147 0.5827 0.44599 0.0
O277 O 0.46288 0.52459 0.5996 0.0
O278 O 0.42543 0.47996 0.73325 0.0
C279 C 0.30567 0.26074 0.31192 0.0
C280 C 0.29257 0.24076 0.20045 0.0
H281 H 0.34186 0.27275 0.46722 0.0
C282 C 0.30733 0.21571 0.16311 0.0
H283 H 0.29497 0.28001 0.34591 0.0
C284 C 0.33505 0.21162 0.23461 0.0
C285 C 0.34812 0.23209 0.34561 0.0
H286 H 0.29761 0.19942 0.079 0.0
H287 H 0.34676 0.19309 0.2017 0.0
C288 C 0.33258 0.25626 0.38329 0.0
C289 C 0.79952 0.12531 0.19867 0.0
C290 C 0.79786 0.13129 0.32494 0.0
H291 H 0.80681 0.09044 0.05936 0.0
C292 C 0.80452 0.10797 0.40859 0.0
H293 H 0.79414 0.14304 0.13263 0.0
C294 C 0.81201 0.07847 0.36693 0.0
C295 C 0.81231 0.07132 0.24081 0.0
H296 H 0.80338 0.1122 0.50602 0.0
H297 H 0.81649 0.06042 0.43403 0.0
C298 C 0.80691 0.09551 0.15665 0.0
C299 C 0.94589 0.70697 -0.00901 0.0
C300 C 0.94626 0.74143 0.03018 0.0
H301 H 0.92461 0.6464 0.02266 0.0
C302 C 0.92096 0.74044 0.11998 0.0
H303 H 0.96578 0.70739 0.92321 0.0
C304 C 0.89781 0.70594 0.17752 0.0
C305 C 0.89983 0.67185 0.14693 0.0
H306 H 0.92121 0.76686 0.1523 0.0
H307 H 0.88023 0.70654 0.25176 0.0
C308 C 0.92254 0.67222 0.04851 0.0
C309 C 0.79074 0.69626 0.13337 0.0
C310 C 0.77569 0.71789 0.1943 0.0
H311 H 0.80316 0.64789 0.14414 0.0
C312 C 0.76726 0.71103 0.31936 0.0
H313 H 0.7982 0.70143 0.03788 0.0
C314 C 0.77053 0.68134 0.37961 0.0
C315 C 0.78243 0.65755 0.31707 0.0
H316 H 0.75703 0.72809 0.37103 0.0
H317 H 0.76193 0.67583 0.4742 0.0
C318 C 0.79396 0.66602 0.19456 0.0
C319 C 0.32389 0.05904 0.94338 0.0
C320 C 0.28649 0.05222 0.96095 0.0
H321 H 0.38098 0.08809 0.0075 0.0
C322 C 0.27889 0.07464 0.04644 0.0
H323 H 0.33024 0.04144 0.88 0.0
C324 C 0.30763 0.1004 0.12284 0.0
C325 C 0.34452 0.10449 0.11354 0.0
H326 H 0.25006 0.06921 0.06331 0.0
H327 H 0.30041 0.11494 0.19471 0.0
C328 C 0.35282 0.08546 0.01772 0.0
C329 C 0.93327 0.203 0.95187 0.0
C330 C 0.93629 0.17522 0.02714 0.0
H331 H 0.90969 0.24279 0.93154 0.0
C332 C 0.9121 0.16056 0.12634 0.0
H333 H 0.95246 0.21533 0.87646 0.0
C334 C 0.88931 0.17729 0.16079 0.0
C335 C 0.88889 0.2079 0.09374 0.0
H336 H 0.91453 0.1397 0.18688 0.0
H337 H 0.87491 0.1687 0.24717 0.0
C338 C 0.90914 0.21898 -0.0158 0.0
C339 C 0.9648 0.58332 0.65921 0.0
C340 C 0.95509 0.56775 0.5403 0.0
H341 H 0.99919 0.59239 0.8182 0.0
C342 C 0.97312 0.54666 0.49429 0.0
H343 H 0.95119 0.59908 0.7001 0.0
C344 C 1.00126 0.54281 0.56397 0.0
C345 C 0.01148 0.55952 0.68152 0.0
H346 H 0.96607 0.53383 0.40408 0.0
H347 H 0.01585 0.52789 0.52409 0.0
C348 C 0.99229 0.57915 0.72848 0.0
C349 C 0.45975 0.45529 0.47562 0.0
C350 C 0.46302 0.46415 0.60121 0.0
H351 H 0.46373 0.41825 0.33653 0.0
C352 C 0.47625 0.44517 0.68197 0.0
H353 H 0.44943 0.46984 0.41224 0.0
C354 C 0.48495 0.41664 0.63882 0.0
C355 C 0.47984 0.40608 0.51458 0.0
H356 H 0.47906 0.45183 0.77877 0.0
H357 H 0.49403 0.40144 0.70396 0.0
C358 C 0.46826 0.42629 0.43218 0.0
C359 C 0.5706 0.0424 0.59657 0.0
C360 C 0.56978 0.00761 0.55793 0.0
H361 H 0.59573 0.10349 0.57448 0.0
C362 C 0.58905 0.00725 0.45096 0.0
H363 H 0.5555 0.04362 0.67704 0.0
C364 C 0.61167 0.04173 0.39101 0.0
C365 C 0.61502 0.07668 0.43735 0.0
H366 H 0.58867 0.98084 0.41825 0.0
H367 H 0.6287 0.0414 0.31468 0.0
C368 C 0.59329 0.07665 0.53735 0.0
C369 C 0.42448 0.03944 0.64857 0.0
C370 C 0.43946 0.04926 0.53016 0.0
H371 H 0.41373 0.00271 0.80268 0.0
C372 C 0.45972 0.03057 0.48284 0.0
H373 H 0.40983 0.05391 0.69111 0.0
C374 C 0.46226 0.00073 0.5495 0.0
C375 C 0.44478 0.98955 0.66433 0.0
H376 H 0.47227 0.03793 0.39323 0.0
H377 H 0.47598 0.98512 0.50846 0.0
C378 C 0.42712 0.01023 0.7142 0.0
C379 C 0.97155 0.43917 0.45485 0.0
C380 C 0.0076 0.44128 0.4427 0.0
H381 H 0.9136 0.41043 0.39871 0.0
C382 C 0.01458 0.42289 0.34227 0.0
H383 H 0.96539 0.45344 0.53004 0.0
C384 C 0.98478 0.39813 0.26729 0.0
C385 C 0.94787 0.39215 0.29004 0.0
H386 H 0.04214 0.42418 0.32948 0.0
H387 H 0.98989 0.38021 0.20175 0.0
C388 C 0.94198 0.41509 0.37802 0.0
C389 C 0.55275 0.51506 0.42824 0.0
C390 C 0.55724 0.55058 0.38245 0.0
H391 H 0.57538 0.47482 0.44201 0.0
C392 C 0.5843 0.56897 0.29212 0.0
H393 H 0.53357 0.50127 0.50192 0.0
C394 C 0.60981 0.55457 0.26175 0.0
C395 C 0.60744 0.52113 0.31849 0.0
H396 H 0.58885 0.59675 0.2571 0.0
H397 H 0.63371 0.57173 0.20479 0.0
C398 C 0.57711 0.50004 0.39476 0.0
C399 C 0.6319 0.91896 0.06811 0.0
C400 C 0.61956 0.90142 0.95283 0.0
H401 H 0.67051 0.93111 0.21779 0.0
C402 C 0.63679 0.87989 0.9042 0.0
H403 H 0.61912 0.93536 0.11002 0.0
C404 C 0.66652 0.87728 0.9674 0.0
C405 C 0.67958 0.89603 0.08083 0.0
H406 H 0.6278 0.86562 0.81654 0.0
H407 H 0.68008 0.86168 0.92521 0.0
C408 C 0.66135 0.91626 0.13103 0.0
C409 C 0.14976 0.74558 0.9695 0.0
C410 C 0.14459 0.73448 0.84577 0.0
H411 H 0.14472 0.78204 0.10673 0.0
C412 C 0.13333 0.75449 0.76168 0.0
H413 H 0.1585 0.73042 0.03586 0.0
C414 C 0.12544 0.78409 0.80281 0.0
C415 C 0.12906 0.79377 0.92772 0.0
H416 H 0.12875 0.74598 0.66642 0.0
H417 H 0.11548 0.79862 0.73809 0.0
C418 C 0.14175 0.77479 0.01036 0.0
C419 C 0.22734 0.37256 0.84176 0.0
C420 C 0.23001 0.33873 0.81222 0.0
H421 H 0.25062 0.43355 0.81803 0.0
C422 C 0.25377 0.3396 0.71644 0.0
H423 H 0.20908 0.37278 0.91433 0.0
C424 C 0.27763 0.37461 0.66146 0.0
C425 C 0.27733 0.4088 0.7 0.0
H426 H 0.25642 0.31401 0.69159 0.0
H427 H 0.29838 0.37541 0.59645 0.0
C428 C 0.25087 0.40731 0.78616 0.0
C429 C 0.08553 0.33521 0.03097 0.0
C430 C 0.10604 0.31708 -0.01655 0.0
H431 H 0.06491 0.37626 0.00648 0.0
C432 C 0.124 0.32953 0.86987 0.0
H433 H 0.0715 0.32668 0.11818 0.0
C434 C 0.12029 0.35878 0.80386 0.0
C435 C 0.09802 0.37541 0.84975 0.0
H436 H 0.13971 0.31577 0.83005 0.0
H437 H 0.13404 0.36767 0.71643 0.0
C438 C 0.0814 0.36358 0.96528 0.0
C439 C 0.68226 0.75952 0.70739 0.0
C440 C 0.67477 0.77619 0.81138 0.0
H441 H 0.65866 0.71791 0.56299 0.0
C442 C 0.63769 0.77059 0.83024 0.0
H443 H 0.71052 0.76331 0.68972 0.0
C444 C 0.60822 0.74548 0.75481 0.0
C445 C 0.61526 0.72529 0.66019 0.0
H446 H 0.63101 0.7833 0.90854 0.0
H447 H 0.57947 0.73867 0.77878 0.0
C448 C 0.65265 0.73383 0.63346 0.0
C449 C 0.27505 0.88071 0.56096 0.0
C450 C 0.27282 0.84708 0.61593 0.0
H451 H 0.25454 0.92323 0.56097 0.0
C452 C 0.24229 0.82561 0.69142 0.0
H453 H 0.29901 0.89822 0.50472 0.0
C454 C 0.21843 0.8409 0.72872 0.0
C455 C 0.22321 0.87681 0.68588 0.0
H456 H 0.24057 0.80021 0.73748 0.0
H457 H 0.19952 0.82696 0.80295 0.0
C458 C 0.24985 0.89523 0.5943 0.0
C459 C 0.08285 0.02629 -0.01996 0.0
C460 C 0.1121 0.0169 0.00965 0.0
H461 H 0.06491 0.07074 -0.01863 0.0
C462 C 0.14194 0.0415 0.08515 0.0
H463 H 0.05972 0.00757 0.92136 0.0
C464 C 0.14484 0.07709 0.11965 0.0
C465 C 0.11787 0.08851 0.07924 0.0
H466 H 0.16472 0.03454 0.1089 0.0
H467 H 0.17008 0.09719 0.1675 0.0
C468 C 0.08564 0.06211 0.01548 0.0
C469 C 0.98905 0.03774 0.26999 0.0
C470 C 0.99354 0.07424 0.30517 0.0
H471 H 0.95023 0.97848 0.24816 0.0
C472 C 0.96608 0.07642 0.38097 0.0
H473 H 0.01002 0.03494 0.21386 0.0
C474 C 0.93144 0.04385 0.39815 0.0
C475 C 0.92424 0.00898 0.34038 0.0
H476 H 0.96882 0.10407 0.411 0.0
H477 H 0.90856 0.04766 0.43876 0.0
C478 C 0.9547 0.00526 0.28931 0.0
C479 C 0.92379 0.88144 0.24413 0.0
C480 C 0.91164 0.90057 0.15934 0.0
H481 H 0.96801 0.86711 0.2955 0.0
C482 C 0.93763 0.92733 0.0796 0.0
H483 H 0.90381 0.8603 0.3052 0.0
C484 C 0.97459 0.93218 0.07645 0.0
C485 C 0.98525 0.90862 0.14812 0.0
H486 H 0.92858 0.9422 0.01318 0.0
H487 H 0.99305 0.95021 0.00575 0.0
C488 C 0.96071 0.88579 0.23958 0.0
C489 C 0.77108 0.36042 0.44024 0.0
C490 C 0.76471 0.34709 0.31873 0.0
H491 H 0.78439 0.40902 0.55868 0.0
C492 C 0.75784 0.36864 0.22844 0.0
H493 H 0.7769 0.34424 0.51082 0.0
C494 C 0.76111 0.40485 0.25651 0.0
C495 C 0.77213 0.42023 0.37436 0.0
H496 H 0.7531 0.35887 0.13429 0.0
H497 H 0.75888 0.42244 0.1831 0.0
C498 C 0.77533 0.39729 0.46781 0.0
C499 C 0.65236 0.3766 0.59611 0.0
C500 C 0.65438 0.41274 0.62291 0.0
H501 H 0.6164 0.31639 0.5793 0.0
C502 C 0.62473 0.41416 0.68859 0.0
H503 H 0.67505 0.3745 0.54775 0.0
C504 C 0.59078 0.38062 0.7043 0.0
C505 C 0.58639 0.34554 0.65468 0.0
H506 H 0.62551 0.44158 0.71147 0.0
H507 H 0.56643 0.38345 0.73653 0.0
C508 C 0.6187 0.34319 0.61402 0.0
C509 C 0.58616 0.21481 0.5863 0.0
C510 C 0.57572 0.23367 0.49563 0.0
H511 H 0.62987 0.20196 0.65406 0.0
C512 C 0.60341 0.2616 0.4232 0.0
H513 H 0.56489 0.19293 0.64223 0.0
C514 C 0.64073 0.26775 0.43256 0.0
C515 C 0.65012 0.24434 0.50945 0.0
H516 H 0.59568 0.27639 0.35272 0.0
H517 H 0.66084 0.28641 0.36647 0.0
C518 C 0.62351 0.22056 0.59451 0.0
C519 C 0.41461 0.73129 0.68471 0.0
C520 C 0.44265 0.75431 0.76901 0.0
H521 H 0.39301 0.67999 0.57408 0.0
C522 C 0.46472 0.7394 0.82743 0.0
H523 H 0.39779 0.74264 0.637 0.0
C524 C 0.46163 0.70367 0.79276 0.0
C525 C 0.43685 0.68275 0.69812 0.0
H526 H 0.48688 0.75696 0.89111 0.0
H527 H 0.48119 0.69414 0.83156 0.0
C528 C 0.41203 0.6957 0.64806 0.0
C529 C 0.25291 0.70906 0.03884 0.0
C530 C 0.24976 0.67426 -0.00923 0.0
H531 H 0.28575 0.77031 0.04281 0.0
C532 C 0.28266 0.67307 0.95058 0.0
H533 H 0.22809 0.71097 0.07116 0.0
C534 C 0.31544 0.70715 0.93035 0.0
C535 C 0.31601 0.74277 0.95507 0.0
H536 H 0.28138 0.64649 0.91783 0.0
H537 H 0.33858 0.70577 0.88254 0.0
C538 C 0.28599 0.74329 0.02095 0.0
C539 C 0.30395 0.59665 0.77552 0.0
C540 C 0.31353 0.57076 0.83869 0.0
H541 H 0.25881 0.60737 0.70755 0.0
C542 C 0.28638 0.5427 0.91341 0.0
H543 H 0.32438 0.61855 0.7174 0.0
C544 C 0.24879 0.5362 0.90693 0.0
C545 C 0.23849 0.55854 0.82916 0.0
H546 H 0.29282 0.52212 0.9622 0.0
H547 H 0.22738 0.51162 0.95369 0.0
C548 C 0.2664 0.58994 0.7684 0.0
C549 C 0.0799 0.1837 0.59217 0.0
C550 C 0.10956 0.18584 0.66786 0.0
H551 H 0.06428 0.20417 0.43167 0.0
C552 C 0.14697 0.21064 0.63752 0.0
H553 H 0.05062 0.16568 0.61475 0.0
C554 C 0.15459 0.23355 0.53462 0.0
C555 C 0.12488 0.23124 0.45904 0.0
H556 H 0.17024 0.21316 0.69548 0.0
H557 H 0.18381 0.25138 0.51094 0.0
C558 C 0.08752 0.2067 0.48973 0.0
C559 C 0.75978 0.90667 0.55272 0.0
C560 C 0.7549 0.87028 0.51573 0.0
H561 H 0.78231 0.95085 0.68846 0.0
C562 C 0.76704 0.84898 0.59116 0.0
H563 H 0.75105 0.92364 0.49393 0.0
C564 C 0.7865 0.86516 0.69865 0.0
C565 C 0.79293 0.90228 0.73371 0.0
H566 H 0.76473 0.82144 0.56147 0.0
H567 H 0.79746 0.84904 0.75239 0.0
C568 C 0.77865 0.9226 0.66154 0.0
C569 C 0.08599 0.85976 0.48462 0.0
C570 C 0.10256 0.89313 0.55664 0.0
H571 H 0.08924 0.83272 0.31863 0.0
C572 C 0.13723 0.92347 0.5239 0.0
H573 H 0.05981 0.83549 0.51066 0.0
C574 C 0.15484 0.92092 0.41861 0.0
C575 C 0.1371 0.88865 0.34326 0.0
H576 H 0.15034 0.94951 0.57792 0.0
H577 H 0.18038 0.94567 0.3904 0.0
C578 C 0.10326 0.85757 0.37772 0.0
C579 C 0.75327 0.53926 0.81556 0.0
C580 C 0.79031 0.56494 0.78506 0.0
H581 H 0.71734 0.4975 0.94027 0.0
C582 C 0.82047 0.56827 0.86039 0.0
H583 H 0.72971 0.53589 0.75763 0.0
C584 C 0.81363 0.54548 0.96321 0.0
C585 C 0.77652 0.51985 -0.00602 0.0
H586 H 0.84952 0.587 0.83702 0.0
H587 H 0.8372 0.54899 0.02135 0.0
C588 C 0.74643 0.51634 0.91781 0.0
C589 C 0.44847 0.25601 0.96535 0.0
C590 C 0.46033 0.23332 0.03642 0.0
H591 H 0.42191 0.26039 0.79941 0.0
C592 C 0.45047 0.19543 0.00027 0.0
H593 H 0.45473 0.28502 -0.00725 0.0
C594 C 0.43014 0.18085 0.8925 0.0
C595 C 0.42042 0.20443 0.81819 0.0
H596 H 0.45955 0.17755 0.05302 0.0
H597 H 0.42514 0.15246 0.86192 0.0
C598 C 0.42872 0.24166 0.85679 0.0
C599 C 0.77299 0.19841 0.75091 0.0
C600 C 0.80271 0.23373 0.71812 0.0
H601 H 0.73053 0.16841 0.88265 0.0
C602 C 0.81299 0.26647 0.79033 0.0
H603 H 0.76451 0.17325 0.6931 0.0
C604 C 0.79257 0.26424 0.89369 0.0
C605 C 0.76261 0.22903 0.92642 0.0
H606 H 0.83491 0.29422 0.76216 0.0
H607 H 0.80025 0.28986 0.94862 0.0
C608 C 0.75284 0.19603 0.85546 0.0
C609 C 0.41046 0.84216 0.28494 0.0
C610 C 0.43615 0.86392 0.37632 0.0
H611 H 0.39315 0.84046 0.10035 0.0
C612 C 0.45717 0.90397 0.36106 0.0
H613 H 0.39288 0.81153 0.2958 0.0
C614 C 0.4566 0.92078 0.24967 0.0
C615 C 0.43597 0.89754 0.15139 0.0
H616 H 0.47604 0.92208 0.43187 0.0
H617 H 0.47604 0.95085 0.23623 0.0
C618 C 0.41001 0.85904 0.17344 0.0
C619 C 0.11245 0.58459 0.29966 0.0
C620 C 0.1249 0.5622 0.36983 0.0
H621 H 0.08536 0.58866 0.13445 0.0
C622 C 0.11568 0.52453 0.33275 0.0
H623 H 0.11827 0.61341 0.3278 0.0
C624 C 0.09532 0.50986 0.22509 0.0
C625 C 0.08482 0.53308 0.15195 0.0
H626 H 0.12521 0.50688 0.38486 0.0
H627 H 0.09082 0.4817 0.19369 0.0
C628 C 0.09264 0.57013 0.1912 0.0
C629 C 0.41567 0.53021 0.17029 0.0
C630 C 0.43346 0.56336 0.2429 0.0
H631 H 0.41778 0.50243 0.0047 0.0
C632 C 0.46896 0.59246 0.21134 0.0
H633 H 0.38884 0.50674 0.19556 0.0
C634 C 0.48613 0.58903 0.10627 0.0
C635 C 0.46719 0.55712 0.03005 0.0
H636 H 0.48312 0.61821 0.26622 0.0
H637 H 0.51243 0.61297 0.07902 0.0
C638 C 0.43259 0.5271 0.06389 0.0
loop_
_geom_bond_atom_site_label_1
_geom_bond_atom_site_label_2
_geom_bond_distance
_geom_bond_site_symmetry_2
_ccdc_geom_bond_type
C0 O12 1.241 1_655 S
C0 O13 1.282 1_554 S
C1 O14 1.277 . S
C1 O15 1.245 . S
C2 O26 1.247 . S
C2 O28 1.289 . S
Mg3 O4 1.926 1_556 S
Mg3 O13 1.979 1_455 S
Mg3 O15 1.988 1_556 S
Mg3 O16 2.061 . S
O4 Mg3 1.926 1_554 S
O4 Mg5 1.986 . S
O4 Mg6 1.917 . S
Mg5 O4 1.986 . S
Mg5 O12 2.042 . S
Mg5 O14 2.041 . S
Mg5 O20 2.038 . S
Mg5 O28 2.238 . S
Mg6 O4 1.917 . S
Mg6 O7 1.917 . S
Mg6 O17 2.106 1_554 S
Mg6 O19 2.079 . S
Mg6 O28 2.106 . S
Mg6 O29 2.079 . S
O7 Mg6 1.917 . S
O7 Mg8 1.926 . S
O7 Mg9 1.986 1_554 S
Mg8 O7 1.926 . S
Mg8 O22 1.984 . S
Mg8 O25 1.988 . S
Mg8 O26 2.061 . S
Mg9 O7 1.986 1_556 S
Mg9 O17 2.238 . S
Mg9 O21 2.042 1_556 S
Mg9 O23 2.041 . S
Mg9 O30 2.038 . S
C10 O16 1.247 . S
C10 O17 1.289 . S
C11 O29 1.245 . S
C11 O30 1.274 1_554 S
O12 C0 1.241 1_455 S
O12 Mg5 2.042 . S
O13 C0 1.282 1_556 S
O13 Mg3 1.979 1_655 S
O14 C1 1.277 . S
O14 Mg5 2.041 . S
O15 C1 1.245 . S
O15 Mg3 1.988 1_554 S
O16 Mg3 2.061 . S
O16 C10 1.247 . S
O17 Mg6 2.106 1_556 S
O17 Mg9 2.238 . S
O17 C10 1.289 . S
C18 O19 1.245 . S
C18 O20 1.274 . S
O19 Mg6 2.079 . S
O19 C18 1.245 . S
O20 Mg5 2.038 . S
O20 C18 1.274 . S
O21 Mg9 2.042 1_554 S
O21 C24 1.241 . S
O22 Mg8 1.984 . S
O22 C24 1.280 . S
O23 Mg9 2.041 . S
O23 C27 1.277 . S
C24 O21 1.241 . S
C24 O22 1.280 . S
O25 Mg8 1.988 . S
O25 C27 1.245 1_554 S
O26 C2 1.247 . S
O26 Mg8 2.061 . S
C27 O23 1.277 . S
C27 O25 1.245 1_556 S
O28 C2 1.289 . S
O28 Mg5 2.238 . S
O28 Mg6 2.106 . S
O29 Mg6 2.079 . S
O29 C11 1.245 . S
O30 Mg9 2.038 . S
O30 C11 1.274 1_556 S
C31 O43 1.241 . S
C31 O44 1.280 . S
C32 O45 1.277 1_554 S
C32 O46 1.245 . S
C33 O57 1.247 . S
C33 O59 1.289 . S
Mg34 O35 1.926 . S
Mg34 O44 1.984 . S
Mg34 O46 1.988 . S
Mg34 O47 2.061 . S
O35 Mg34 1.926 . S
O35 Mg36 1.986 . S
O35 Mg37 1.917 . S
Mg36 O35 1.986 . S
Mg36 O43 2.042 . S
Mg36 O45 2.041 1_554 S
Mg36 O51 2.038 . S
Mg36 O59 2.238 1_554 S
Mg37 O35 1.917 . S
Mg37 O38 1.917 . S
Mg37 O48 2.106 . S
Mg37 O50 2.079 . S
Mg37 O59 2.106 1_554 S
Mg37 O60 2.079 . S
O38 Mg37 1.917 . S
O38 Mg39 1.927 1_554 S
O38 Mg40 1.986 . S
Mg39 O38 1.927 1_556 S
Mg39 O53 1.984 1_565 S
Mg39 O56 1.988 1_556 S
Mg39 O57 2.061 . S
Mg40 O38 1.986 . S
Mg40 O48 2.238 . S
Mg40 O52 2.042 1_565 S
Mg40 O54 2.041 . S
Mg40 O61 2.038 . S
C41 O47 1.247 . S
C41 O48 1.289 . S
C42 O60 1.245 . S
C42 O61 1.274 . S
O43 C31 1.241 . S
O43 Mg36 2.042 . S
O44 C31 1.280 . S
O44 Mg34 1.984 . S
O45 C32 1.277 1_556 S
O45 Mg36 2.041 1_556 S
O46 C32 1.245 . S
O46 Mg34 1.988 . S
O47 Mg34 2.061 . S
O47 C41 1.247 . S
O48 Mg37 2.106 . S
O48 Mg40 2.238 . S
O48 C41 1.289 . S
C49 O50 1.245 . S
C49 O51 1.274 . S
O50 Mg37 2.079 . S
O50 C49 1.245 . S
O51 Mg36 2.038 . S
O51 C49 1.274 . S
O52 Mg40 2.042 1_545 S
O52 C55 1.241 . S
O53 Mg39 1.984 1_545 S
O53 C55 1.280 1_556 S
O54 Mg40 2.041 . S
O54 C58 1.277 . S
C55 O52 1.241 . S
C55 O53 1.280 1_554 S
O56 Mg39 1.988 1_554 S
O56 C58 1.245 . S
O57 C33 1.247 . S
O57 Mg39 2.061 . S
C58 O54 1.277 . S
C58 O56 1.245 . S
O59 C33 1.289 . S
O59 Mg36 2.238 1_556 S
O59 Mg37 2.106 1_556 S
O60 Mg37 2.079 . S
O60 C42 1.245 . S
O61 Mg40 2.038 . S
O61 C42 1.274 . S
C62 O74 1.241 1_554 S
C62 O75 1.280 1_545 S
C63 O76 1.277 . S
C63 O77 1.245 1_556 S
C64 O88 1.247 . S
C64 O90 1.289 . S
Mg65 O66 1.926 . S
Mg65 O75 1.984 . S
Mg65 O77 1.988 . S
Mg65 O78 2.061 . S
O66 Mg65 1.926 . S
O66 Mg67 1.986 1_554 S
O66 Mg68 1.917 . S
Mg67 O66 1.986 1_556 S
Mg67 O74 2.042 1_565 S
Mg67 O76 2.041 . S
Mg67 O82 2.038 . S
Mg67 O90 2.238 . S
Mg68 O66 1.917 . S
Mg68 O69 1.917 1_554 S
Mg68 O79 2.106 . S
Mg68 O81 2.079 . S
Mg68 O90 2.106 1_554 S
Mg68 O91 2.079 1_554 S
O69 Mg68 1.917 1_556 S
O69 Mg70 1.926 . S
O69 Mg71 1.986 1_556 S
Mg70 O69 1.926 . S
Mg70 O84 1.984 1_455 S
Mg70 O87 1.988 . S
Mg70 O88 2.061 . S
Mg71 O69 1.986 1_554 S
Mg71 O79 2.238 . S
Mg71 O83 2.042 1_455 S
Mg71 O85 2.041 . S
Mg71 O92 2.038 . S
C72 O78 1.247 . S
C72 O79 1.289 . S
C73 O91 1.245 1_554 S
C73 O92 1.274 . S
O74 C62 1.241 1_556 S
O74 Mg67 2.042 1_545 S
O75 C62 1.280 1_565 S
O75 Mg65 1.984 . S
O76 C63 1.277 . S
O76 Mg67 2.041 . S
O77 C63 1.245 1_554 S
O77 Mg65 1.988 . S
O78 Mg65 2.061 . S
O78 C72 1.247 . S
O79 Mg68 2.106 . S
O79 Mg71 2.238 . S
O79 C72 1.289 . S
C80 O81 1.245 1_556 S
C80 O82 1.274 . S
O81 Mg68 2.079 . S
O81 C80 1.245 1_554 S
O82 Mg67 2.038 . S
O82 C80 1.274 . S
O83 Mg71 2.042 1_655 S
O83 C86 1.241 1_554 S
O84 Mg70 1.984 1_655 S
O84 C86 1.280 . S
O85 Mg71 2.041 . S
O85 C89 1.277 1_455 S
C86 O83 1.241 1_556 S
C86 O84 1.280 . S
O87 Mg70 1.988 . S
O87 C89 1.245 1_456 S
O88 C64 1.247 . S
O88 Mg70 2.061 . S
C89 O85 1.277 1_655 S
C89 O87 1.245 1_654 S
O90 C64 1.289 . S
O90 Mg67 2.238 . S
O90 Mg68 2.106 1_556 S
O91 Mg68 2.079 1_556 S
O91 C73 1.245 1_556 S
O92 Mg71 2.038 . S
O92 C73 1.274 . S
C93 O105 1.241 . S
C93 O106 1.280 . S
C94 O107 1.277 . S
C94 O108 1.245 . S
C95 O119 1.247 . S
C95 O121 1.289 . S
Mg96 O97 1.926 . S
Mg96 O106 1.984 . S
Mg96 O108 1.988 . S
Mg96 O109 2.061 . S
O97 Mg96 1.926 . S
O97 Mg98 1.986 . S
O97 Mg99 1.917 . S
Mg98 O97 1.986 . S
Mg98 O105 2.042 . S
Mg98 O107 2.041 . S
Mg98 O113 2.038 . S
Mg98 O121 2.238 . S
Mg99 O97 1.917 . S
Mg99 O100 1.917 . S
Mg99 O110 2.106 . S
Mg99 O112 2.079 . S
Mg99 O121 2.106 . S
Mg99 O122 2.079 . S
O100 Mg99 1.917 . S
O100 Mg101 1.926 . S
O100 Mg102 1.986 . S
Mg101 O100 1.926 . S
Mg101 O115 1.984 . S
Mg101 O118 1.988 . S
Mg101 O119 2.061 . S
Mg102 O100 1.986 . S
Mg102 O110 2.238 . S
Mg102 O114 2.042 . S
Mg102 O116 2.041 . S
Mg102 O123 2.038 . S
C103 O109 1.247 . S
C103 O110 1.289 . S
C104 O122 1.245 . S
C104 O123 1.274 . S
O105 C93 1.241 . S
O105 Mg98 2.042 . S
O106 C93 1.280 . S
O106 Mg96 1.984 . S
O107 C94 1.277 . S
O107 Mg98 2.041 . S
O108 C94 1.245 . S
O108 Mg96 1.988 . S
O109 Mg96 2.061 . S
O109 C103 1.247 . S
O110 Mg99 2.106 . S
O110 Mg102 2.238 . S
O110 C103 1.289 . S
C111 O112 1.245 . S
C111 O113 1.274 . S
O112 Mg99 2.079 . S
O112 C111 1.245 . S
O113 Mg98 2.038 . S
O113 C111 1.274 . S
O114 Mg102 2.042 . S
O114 C117 1.241 . S
O115 Mg101 1.984 . S
O115 C117 1.280 . S
O116 Mg102 2.041 . S
O116 C120 1.277 . S
C117 O114 1.241 . S
C117 O115 1.280 . S
O118 Mg101 1.988 . S
O118 C120 1.245 . S
O119 C95 1.247 . S
O119 Mg101 2.061 . S
C120 O116 1.277 . S
C120 O118 1.245 . S
O121 C95 1.289 . S
O121 Mg98 2.238 . S
O121 Mg99 2.106 . S
O122 Mg99 2.079 . S
O122 C104 1.245 . S
O123 Mg102 2.038 . S
O123 C104 1.274 . S
C124 O136 1.241 . S
C124 O137 1.280 . S
C125 O138 1.277 . S
C125 O139 1.245 . S
C126 O150 1.247 . S
C126 O152 1.289 . S
Mg127 O128 1.926 . S
Mg127 O137 1.984 . S
Mg127 O139 1.988 . S
Mg127 O140 2.061 . S
O128 Mg127 1.926 . S
O128 Mg129 1.986 . S
O128 Mg130 1.917 . S
Mg129 O128 1.986 . S
Mg129 O136 2.042 . S
Mg129 O138 2.041 . S
Mg129 O144 2.038 . S
Mg129 O152 2.238 . S
Mg130 O128 1.917 . S
Mg130 O131 1.917 . S
Mg130 O141 2.106 . S
Mg130 O143 2.079 . S
Mg130 O152 2.106 . S
Mg130 O153 2.079 . S
O131 Mg130 1.917 . S
O131 Mg132 1.926 . S
O131 Mg133 1.986 . S
Mg132 O131 1.926 . S
Mg132 O146 1.984 . S
Mg132 O149 1.988 . S
Mg132 O150 2.061 . S
Mg133 O131 1.986 . S
Mg133 O141 2.238 . S
Mg133 O145 2.042 . S
Mg133 O147 2.041 . S
Mg133 O154 2.038 . S
C134 O140 1.247 . S
C134 O141 1.289 . S
C135 O153 1.245 . S
C135 O154 1.274 . S
O136 C124 1.241 . S
O136 Mg129 2.042 . S
O137 C124 1.280 . S
O137 Mg127 1.984 . S
O138 C125 1.277 . S
O138 Mg129 2.041 . S
O139 C125 1.245 . S
O139 Mg127 1.988 . S
O140 Mg127 2.061 . S
O140 C134 1.247 . S
O141 Mg130 2.106 . S
O141 Mg133 2.238 . S
O141 C134 1.289 . S
C142 O143 1.245 . S
C142 O144 1.274 . S
O143 Mg130 2.079 . S
O143 C142 1.245 . S
O144 Mg129 2.038 . S
O144 C142 1.274 . S
O145 Mg133 2.042 . S
O145 C148 1.241 . S
O146 Mg132 1.984 . S
O146 C148 1.280 . S
O147 Mg133 2.041 . S
O147 C151 1.277 . S
C148 O145 1.241 . S
C148 O146 1.280 . S
O149 Mg132 1.988 . S
O149 C151 1.245 . S
O150 C126 1.247 . S
O150 Mg132 2.061 . S
C151 O147 1.277 . S
C151 O149 1.245 . S
O152 C126 1.289 . S
O152 Mg129 2.238 . S
O152 Mg130 2.106 . S
O153 Mg130 2.079 . S
O153 C135 1.245 . S
O154 Mg133 2.038 . S
O154 C135 1.274 . S
C155 O167 1.241 . S
C155 O168 1.280 . S
C156 O169 1.277 . S
C156 O170 1.245 . S
C157 O181 1.247 . S
C157 O183 1.289 . S
Mg158 O159 1.926 . S
Mg158 O168 1.984 . S
Mg158 O170 1.988 . S
Mg158 O171 2.061 . S
O159 Mg158 1.926 . S
O159 Mg160 1.986 . S
O159 Mg161 1.917 . S
Mg160 O159 1.986 . S
Mg160 O167 2.042 . S
Mg160 O169 2.041 . S
Mg160 O175 2.038 . S
Mg160 O183 2.238 . S
Mg161 O159 1.917 . S
Mg161 O162 1.917 . S
Mg161 O172 2.106 . S
Mg161 O174 2.079 . S
Mg161 O183 2.106 . S
Mg161 O184 2.079 . S
O162 Mg161 1.917 . S
O162 Mg163 1.926 . S
O162 Mg164 1.986 . S
Mg163 O162 1.926 . S
Mg163 O177 1.984 . S
Mg163 O180 1.988 . S
Mg163 O181 2.061 . S
Mg164 O162 1.986 . S
Mg164 O172 2.238 . S
Mg164 O176 2.042 . S
Mg164 O178 2.041 . S
Mg164 O185 2.038 . S
C165 O171 1.247 . S
C165 O172 1.289 . S
C166 O184 1.245 . S
C166 O185 1.274 . S
O167 C155 1.241 . S
O167 Mg160 2.042 . S
O168 C155 1.280 . S
O168 Mg158 1.984 . S
O169 C156 1.277 . S
O169 Mg160 2.041 . S
O170 C156 1.245 . S
O170 Mg158 1.988 . S
O171 Mg158 2.061 . S
O171 C165 1.247 . S
O172 Mg161 2.106 . S
O172 Mg164 2.238 . S
O172 C165 1.289 . S
C173 O174 1.245 . S
C173 O175 1.274 . S
O174 Mg161 2.079 . S
O174 C173 1.245 . S
O175 Mg160 2.038 . S
O175 C173 1.274 . S
O176 Mg164 2.042 . S
O176 C179 1.241 . S
O177 Mg163 1.984 . S
O177 C179 1.280 . S
O178 Mg164 2.041 . S
O178 C182 1.277 . S
C179 O176 1.241 . S
C179 O177 1.280 . S
O180 Mg163 1.988 . S
O180 C182 1.245 . S
O181 C157 1.247 . S
O181 Mg163 2.061 . S
C182 O178 1.277 . S
C182 O180 1.245 . S
O183 C157 1.289 . S
O183 Mg160 2.238 . S
O183 Mg161 2.106 . S
O184 Mg161 2.079 . S
O184 C166 1.245 . S
O185 Mg164 2.038 . S
O185 C166 1.274 . S
C186 O198 1.241 . S
C186 O199 1.280 . S
C187 O200 1.277 . S
C187 O201 1.245 . S
C188 O212 1.247 . S
C188 O214 1.289 1_554 S
Mg189 O190 1.926 . S
Mg189 O199 1.984 . S
Mg189 O201 1.988 . S
Mg189 O202 2.061 . S
O190 Mg189 1.926 . S
O190 Mg191 1.986 . S
O190 Mg192 1.917 . S
Mg191 O190 1.986 . S
Mg191 O198 2.042 . S
Mg191 O200 2.041 . S
Mg191 O206 2.038 . S
Mg191 O214 2.238 . S
Mg192 O190 1.917 . S
Mg192 O193 1.917 . S
Mg192 O203 2.106 . S
Mg192 O205 2.079 . S
Mg192 O214 2.106 . S
Mg192 O215 2.079 . S
O193 Mg192 1.917 . S
O193 Mg194 1.926 . S
O193 Mg195 1.986 . S
Mg194 O193 1.926 . S
Mg194 O208 1.984 . S
Mg194 O211 1.988 . S
Mg194 O212 2.061 1_556 S
Mg195 O193 1.986 . S
Mg195 O203 2.238 . S
Mg195 O207 2.042 . S
Mg195 O209 2.041 . S
Mg195 O216 2.038 . S
C196 O202 1.247 . S
C196 O203 1.289 . S
C197 O215 1.245 . S
C197 O216 1.274 . S
O198 C186 1.241 . S
O198 Mg191 2.042 . S
O199 C186 1.280 . S
O199 Mg189 1.984 . S
O200 C187 1.277 . S
O200 Mg191 2.041 . S
O201 C187 1.245 . S
O201 Mg189 1.988 . S
O202 Mg189 2.061 . S
O202 C196 1.247 . S
O203 Mg192 2.106 . S
O203 Mg195 2.238 . S
O203 C196 1.289 . S
C204 O205 1.245 . S
C204 O206 1.274 . S
O205 Mg192 2.079 . S
O205 C204 1.245 . S
O206 Mg191 2.038 . S
O206 C204 1.274 . S
O207 Mg195 2.042 . S
O207 C210 1.241 . S
O208 Mg194 1.984 . S
O208 C210 1.280 . S
O209 Mg195 2.041 . S
O209 C213 1.277 . S
C210 O207 1.241 . S
C210 O208 1.280 . S
O211 Mg194 1.988 . S
O211 C213 1.245 . S
O212 C188 1.247 . S
O212 Mg194 2.061 1_554 S
C213 O209 1.277 . S
C213 O211 1.245 . S
O214 C188 1.289 1_556 S
O214 Mg191 2.238 . S
O214 Mg192 2.106 . S
O215 Mg192 2.079 . S
O215 C197 1.245 . S
O216 Mg195 2.038 . S
O216 C197 1.274 . S
C217 O229 1.241 . S
C217 O230 1.280 . S
C218 O231 1.277 . S
C218 O232 1.245 . S
C219 O243 1.247 . S
C219 O245 1.289 . S
Mg220 O221 1.926 . S
Mg220 O230 1.984 . S
Mg220 O232 1.988 . S
Mg220 O233 2.061 1_556 S
O221 Mg220 1.926 . S
O221 Mg222 1.986 . S
O221 Mg223 1.917 . S
Mg222 O221 1.986 . S
Mg222 O229 2.042 . S
Mg222 O231 2.041 . S
Mg222 O237 2.038 . S
Mg222 O245 2.238 . S
Mg223 O221 1.917 . S
Mg223 O224 1.917 . S
Mg223 O234 2.106 1_556 S
Mg223 O236 2.079 . S
Mg223 O245 2.106 . S
Mg223 O246 2.079 . S
O224 Mg223 1.917 . S
O224 Mg225 1.926 . S
O224 Mg226 1.986 . S
Mg225 O224 1.926 . S
Mg225 O239 1.984 . S
Mg225 O242 1.988 . S
Mg225 O243 2.061 . S
Mg226 O224 1.986 . S
Mg226 O234 2.238 1_556 S
Mg226 O238 2.042 . S
Mg226 O240 2.041 . S
Mg226 O247 2.038 . S
C227 O233 1.247 . S
C227 O234 1.289 . S
C228 O246 1.245 . S
C228 O247 1.274 . S
O229 C217 1.241 . S
O229 Mg222 2.042 . S
O230 C217 1.280 . S
O230 Mg220 1.984 . S
O231 C218 1.277 . S
O231 Mg222 2.041 . S
O232 C218 1.245 . S
O232 Mg220 1.988 . S
O233 Mg220 2.061 1_554 S
O233 C227 1.247 . S
O234 Mg223 2.106 1_554 S
O234 Mg226 2.238 1_554 S
O234 C227 1.289 . S
C235 O236 1.245 . S
C235 O237 1.274 . S
O236 Mg223 2.079 . S
O236 C235 1.245 . S
O237 Mg222 2.038 . S
O237 C235 1.274 . S
O238 Mg226 2.042 . S
O238 C241 1.241 . S
O239 Mg225 1.984 . S
O239 C241 1.280 . S
O240 Mg226 2.041 . S
O240 C244 1.277 . S
C241 O238 1.241 . S
C241 O239 1.280 . S
O242 Mg225 1.988 . S
O242 C244 1.245 . S
O243 C219 1.247 . S
O243 Mg225 2.061 . S
C244 O240 1.277 . S
C244 O242 1.245 . S
O245 C219 1.289 . S
O245 Mg222 2.238 . S
O245 Mg223 2.106 . S
O246 Mg223 2.079 . S
O246 C228 1.245 . S
O247 Mg226 2.038 . S
O247 C228 1.274 . S
C248 O260 1.241 . S
C248 O261 1.280 . S
C249 O262 1.277 . S
C249 O263 1.245 . S
C250 O274 1.247 . S
C250 O276 1.289 . S
Mg251 O252 1.926 . S
Mg251 O261 1.984 . S
Mg251 O263 1.988 . S
Mg251 O264 2.061 . S
O252 Mg251 1.926 . S
O252 Mg253 1.986 . S
O252 Mg254 1.917 . S
Mg253 O252 1.986 . S
Mg253 O260 2.042 . S
Mg253 O262 2.041 . S
Mg253 O268 2.038 . S
Mg253 O276 2.238 . S
Mg254 O252 1.917 . S
Mg254 O255 1.917 . S
Mg254 O265 2.106 . S
Mg254 O267 2.079 . S
Mg254 O276 2.106 . S
Mg254 O277 2.079 . S
O255 Mg254 1.917 . S
O255 Mg256 1.926 . S
O255 Mg257 1.986 . S
Mg256 O255 1.926 . S
Mg256 O270 1.984 . S
Mg256 O273 1.988 . S
Mg256 O274 2.061 . S
Mg257 O255 1.986 . S
Mg257 O265 2.238 . S
Mg257 O269 2.042 . S
Mg257 O271 2.041 . S
Mg257 O278 2.038 . S
C258 O264 1.247 . S
C258 O265 1.289 . S
C259 O277 1.245 . S
C259 O278 1.274 . S
O260 C248 1.241 . S
O260 Mg253 2.042 . S
O261 C248 1.280 . S
O261 Mg251 1.984 . S
O262 C249 1.277 . S
O262 Mg253 2.041 . S
O263 C249 1.245 . S
O263 Mg251 1.988 . S
O264 Mg251 2.061 . S
O264 C258 1.247 . S
O265 Mg254 2.106 . S
O265 Mg257 2.238 . S
O265 C258 1.289 . S
C266 O267 1.245 . S
C266 O268 1.274 . S
O267 Mg254 2.079 . S
O267 C266 1.245 . S
O268 Mg253 2.038 . S
O268 C266 1.274 . S
O269 Mg257 2.042 . S
O269 C272 1.241 . S
O270 Mg256 1.984 . S
O270 C272 1.280 . S
O271 Mg257 2.041 . S
O271 C275 1.277 . S
C272 O269 1.241 . S
C272 O270 1.280 . S
O273 Mg256 1.988 . S
O273 C275 1.245 . S
O274 C250 1.247 . S
O274 Mg256 2.061 . S
C275 O271 1.277 . S
C275 O273 1.245 . S
O276 C250 1.289 . S
O276 Mg253 2.238 . S
O276 Mg254 2.106 . S
O277 Mg254 2.079 . S
O277 C259 1.245 . S
O278 Mg257 2.038 . S
O278 C259 1.274 . S
C279 C280 1.387 . S
C279 H283 0.950 . S
C279 C288 1.390 . S
C280 C279 1.387 . S
C280 C282 1.387 . S
H281 C288 0.950 . S
C282 C280 1.387 . S
C282 C284 1.390 . S
C282 H286 0.950 . S
H283 C279 0.950 . S
C284 C282 1.390 . S
C284 C285 1.387 . S
C284 H287 0.950 . S
C285 C284 1.387 . S
C285 C288 1.387 . S
H286 C282 0.950 . S
H287 C284 0.950 . S
C288 C279 1.390 . S
C288 H281 0.950 . S
C288 C285 1.387 . S
C289 C290 1.387 . S
C289 H293 0.950 . S
C289 C298 1.390 . S
C290 C289 1.387 . S
C290 C292 1.387 . S
H291 C298 0.950 1_556 S
C292 C290 1.387 . S
C292 C294 1.390 . S
C292 H296 0.950 . S
H293 C289 0.950 . S
C294 C292 1.390 . S
C294 C295 1.387 . S
C294 H297 0.950 . S
C295 C294 1.387 . S
C295 C298 1.387 . S
H296 C292 0.950 . S
H297 C294 0.950 . S
C298 C289 1.390 . S
C298 H291 0.950 1_554 S
C298 C295 1.387 . S
C299 C300 1.387 1_554 S
C299 H303 0.949 1_554 S
C299 C308 1.390 . S
C300 C299 1.387 1_556 S
C300 C302 1.387 1_556 S
H301 C308 0.950 . S
C302 C300 1.387 1_554 S
C302 C304 1.390 . S
C302 H306 0.950 . S
H303 C299 0.949 1_556 S
C304 C302 1.390 . S
C304 C305 1.387 . S
C304 H307 0.950 . S
C305 C304 1.387 . S
C305 C308 1.387 . S
H306 C302 0.950 . S
H307 C304 0.950 . S
C308 C299 1.390 . S
C308 H301 0.950 . S
C308 C305 1.387 . S
C309 C310 1.387 . S
C309 H313 0.950 . S
C309 C318 1.390 . S
C310 C309 1.387 . S
C310 C312 1.387 . S
H311 C318 0.950 . S
C312 C310 1.387 . S
C312 C314 1.390 . S
C312 H316 0.950 . S
H313 C309 0.950 . S
C314 C312 1.390 . S
C314 C315 1.387 . S
C314 H317 0.950 . S
C315 C314 1.387 . S
C315 C318 1.387 . S
H316 C312 0.950 . S
H317 C314 0.950 . S
C318 C309 1.390 . S
C318 H311 0.950 . S
C318 C315 1.387 . S
C319 C320 1.387 . S
C319 H323 0.950 . S
C319 C328 1.390 . S
C320 C319 1.387 . S
C320 C322 1.387 . S
H321 C328 0.950 . S
C322 C320 1.387 . S
C322 C324 1.390 . S
C322 H326 0.950 . S
H323 C319 0.950 . S
C324 C322 1.390 . S
C324 C325 1.387 . S
C324 H327 0.950 . S
C325 C324 1.387 . S
C325 C328 1.387 . S
H326 C322 0.950 . S
H327 C324 0.950 . S
C328 C319 1.390 . S
C328 H321 0.950 . S
C328 C325 1.387 . S
C329 C330 1.387 . S
C329 H333 0.950 1_554 S
C329 C338 1.390 . S
C330 C329 1.387 . S
C330 C332 1.387 . S
H331 C338 0.950 . S
C332 C330 1.387 . S
C332 C334 1.390 . S
C332 H336 0.950 . S
H333 C329 0.950 1_556 S
C334 C332 1.390 . S
C334 C335 1.387 . S
C334 H337 0.950 . S
C335 C334 1.387 . S
C335 C338 1.387 . S
H336 C332 0.950 . S
H337 C334 0.950 . S
C338 C329 1.390 . S
C338 H331 0.950 . S
C338 C335 1.387 . S
C339 C340 1.387 . S
C339 H343 0.950 . S
C339 C348 1.413 . S
C340 C339 1.387 . S
C340 C342 1.387 . S
H341 C348 0.938 1_455 S
C342 C340 1.387 . S
C342 C344 1.390 . S
C342 H346 0.950 . S
H343 C339 0.950 . S
C344 C342 1.390 . S
C344 C345 1.387 . S
C344 H347 0.950 . S
C345 C344 1.387 . S
C345 C348 1.377 . S
H346 C342 0.950 . S
H347 C344 0.950 . S
C348 C339 1.413 . S
C348 H341 0.938 1_655 S
C348 C345 1.377 . S
C349 C350 1.387 . S
C349 H353 0.950 . S
C349 C358 1.390 . S
C350 C349 1.387 . S
C350 C352 1.387 . S
H351 C358 0.950 . S
C352 C350 1.387 . S
C352 C354 1.390 . S
C352 H356 0.950 . S
H353 C349 0.950 . S
C354 C352 1.390 . S
C354 C355 1.387 . S
C354 H357 0.950 . S
C355 C354 1.387 . S
C355 C358 1.387 . S
H356 C352 0.950 . S
H357 C354 0.950 . S
C358 C349 1.390 . S
C358 H351 0.950 . S
C358 C355 1.387 . S
C359 C360 1.387 . S
C359 H363 0.950 . S
C359 C368 1.390 . S
C360 C359 1.387 . S
C360 C362 1.387 . S
H361 C368 0.950 . S
C362 C360 1.387 . S
C362 C364 1.390 . S
C362 H366 0.950 . S
H363 C359 0.950 . S
C364 C362 1.390 . S
C364 C365 1.387 . S
C364 H367 0.950 . S
C365 C364 1.387 . S
C365 C368 1.387 . S
H366 C362 0.950 . S
H367 C364 0.950 . S
C368 C359 1.390 . S
C368 H361 0.950 . S
C368 C365 1.387 . S
C369 C370 1.387 . S
C369 H373 0.950 . S
C369 C378 1.390 . S
C370 C369 1.387 . S
C370 C372 1.387 . S
H371 C378 0.950 . S
C372 C370 1.387 . S
C372 C374 1.418 . S
C372 H376 0.950 . S
H373 C369 0.950 . S
C374 C372 1.418 . S
C374 C375 1.384 1_545 S
C374 H377 0.926 1_545 S
C375 C374 1.384 1_565 S
C375 C378 1.387 1_565 S
H376 C372 0.950 . S
H377 C374 0.926 1_565 S
C378 C369 1.390 . S
C378 H371 0.950 . S
C378 C375 1.387 1_545 S
C379 C380 1.387 . S
C379 H383 0.950 . S
C379 C388 1.390 . S
C380 C379 1.387 . S
C380 C382 1.387 . S
H381 C388 0.950 . S
C382 C380 1.387 . S
C382 C384 1.390 . S
C382 H386 0.950 . S
H383 C379 0.950 . S
C384 C382 1.390 . S
C384 C385 1.387 . S
C384 H387 0.950 . S
C385 C384 1.387 . S
C385 C388 1.387 . S
H386 C382 0.950 . S
H387 C384 0.950 . S
C388 C379 1.390 . S
C388 H381 0.950 . S
C388 C385 1.387 . S
C389 C390 1.387 . S
C389 H393 0.950 . S
C389 C398 1.390 . S
C390 C389 1.387 . S
C390 C392 1.387 . S
H391 C398 0.950 . S
C392 C390 1.387 . S
C392 C394 1.390 . S
C392 H396 0.950 . S
H393 C389 0.950 . S
C394 C392 1.390 . S
C394 C395 1.387 . S
C394 H397 0.950 . S
C395 C394 1.387 . S
C395 C398 1.387 . S
H396 C392 0.950 . S
H397 C394 0.950 . S
C398 C389 1.390 . S
C398 H391 0.950 . S
C398 C395 1.387 . S
C399 C400 1.387 . S
C399 H403 0.950 . S
C399 C408 1.390 1_556 S
C400 C399 1.387 . S
C400 C402 1.387 . S
H401 C408 0.950 . S
C402 C400 1.387 . S
C402 C404 1.390 1_556 S
C402 H406 0.950 . S
H403 C399 0.950 . S
C404 C402 1.390 1_554 S
C404 C405 1.387 . S
C404 H407 0.950 . S
C405 C404 1.387 . S
C405 C408 1.387 . S
H406 C402 0.950 . S
H407 C404 0.950 . S
C408 C399 1.390 1_554 S
C408 H401 0.950 . S
C408 C405 1.387 . S
C409 C410 1.387 . S
C409 H413 0.950 . S
C409 C418 1.390 . S
C410 C409 1.387 . S
C410 C412 1.387 . S
H411 C418 0.950 1_554 S
C412 C410 1.387 . S
C412 C414 1.390 . S
C412 H416 0.950 . S
H413 C409 0.950 . S
C414 C412 1.390 . S
C414 C415 1.387 . S
C414 H417 0.950 . S
C415 C414 1.387 . S
C415 C418 1.387 . S
H416 C412 0.950 . S
H417 C414 0.950 . S
C418 C409 1.390 . S
C418 H411 0.950 1_556 S
C418 C415 1.387 . S
C419 C420 1.387 . S
C419 H423 0.950 . S
C419 C428 1.390 . S
C420 C419 1.387 . S
C420 C422 1.387 . S
H421 C428 0.950 . S
C422 C420 1.387 . S
C422 C424 1.390 . S
C422 H426 0.950 . S
H423 C419 0.950 . S
C424 C422 1.390 . S
C424 C425 1.387 . S
C424 H427 0.950 . S
C425 C424 1.387 . S
C425 C428 1.387 . S
H426 C422 0.950 . S
H427 C424 0.950 . S
C428 C419 1.390 . S
C428 H421 0.950 . S
C428 C425 1.387 . S
C429 C430 1.387 . S
C429 H433 0.950 . S
C429 C438 1.390 . S
C430 C429 1.387 . S
C430 C432 1.387 1_554 S
H431 C438 0.950 . S
C432 C430 1.387 1_556 S
C432 C434 1.390 . S
C432 H436 0.950 . S
H433 C429 0.950 . S
C434 C432 1.390 . S
C434 C435 1.387 . S
C434 H437 0.950 . S
C435 C434 1.387 . S
C435 C438 1.387 1_556 S
H436 C432 0.950 . S
H437 C434 0.950 . S
C438 C429 1.390 . S
C438 H431 0.950 . S
C438 C435 1.387 1_554 S
C439 C440 1.387 . S
C439 H443 0.950 . S
C439 C448 1.390 . S
C440 C439 1.387 . S
C440 C442 1.387 1_556 S
H441 C448 0.950 . S
C442 C440 1.387 1_554 S
C442 C444 1.390 1_554 S
C442 H446 0.950 . S
H443 C439 0.950 . S
C444 C442 1.390 1_556 S
C444 C445 1.387 . S
C444 H447 0.950 . S
C445 C444 1.387 . S
C445 C448 1.387 . S
H446 C442 0.950 . S
H447 C444 0.950 . S
C448 C439 1.390 . S
C448 H441 0.950 . S
C448 C445 1.387 . S
C449 C450 1.387 . S
C449 H453 0.950 . S
C449 C458 1.390 . S
C450 C449 1.387 . S
C450 C452 1.387 . S
H451 C458 0.950 . S
C452 C450 1.387 . S
C452 C454 1.390 . S
C452 H456 0.950 . S
H453 C449 0.950 . S
C454 C452 1.390 . S
C454 C455 1.387 . S
C454 H457 0.950 . S
C455 C454 1.387 . S
C455 C458 1.387 . S
H456 C452 0.950 . S
H457 C454 0.950 . S
C458 C449 1.390 . S
C458 H451 0.950 . S
C458 C455 1.387 . S
C459 C460 1.387 1_556 S
C459 H463 0.950 . S
C459 C468 1.390 . S
C460 C459 1.387 1_554 S
C460 C462 1.387 . S
H461 C468 0.950 . S
C462 C460 1.387 . S
C462 C464 1.390 . S
C462 H466 0.950 . S
H463 C459 0.950 . S
C464 C462 1.390 . S
C464 C465 1.387 . S
C464 H467 0.950 . S
C465 C464 1.387 . S
C465 C468 1.387 1_554 S
H466 C462 0.950 . S
H467 C464 0.950 . S
C468 C459 1.390 . S
C468 H461 0.950 . S
C468 C465 1.387 1_556 S
C469 C470 1.387 . S
C469 H473 0.950 . S
C469 C478 1.390 . S
C470 C469 1.387 . S
C470 C472 1.387 . S
H471 C478 0.950 . S
C472 C470 1.387 . S
C472 C474 1.390 . S
C472 H476 0.950 . S
H473 C469 0.950 . S
C474 C472 1.390 . S
C474 C475 1.387 . S
C474 H477 0.950 . S
C475 C474 1.387 . S
C475 C478 1.387 . S
H476 C472 0.950 . S
H477 C474 0.950 . S
C478 C469 1.390 . S
C478 H471 0.950 . S
C478 C475 1.387 . S
C479 C480 1.387 . S
C479 H483 0.950 . S
C479 C488 1.390 . S
C480 C479 1.387 . S
C480 C482 1.387 . S
H481 C488 0.950 . S
C482 C480 1.387 . S
C482 C484 1.390 . S
C482 H486 0.950 1_554 S
H483 C479 0.950 . S
C484 C482 1.390 . S
C484 C485 1.387 . S
C484 H487 0.950 1_554 S
C485 C484 1.387 . S
C485 C488 1.387 . S
H486 C482 0.950 1_556 S
H487 C484 0.950 1_556 S
C488 C479 1.390 . S
C488 H481 0.950 . S
C488 C485 1.387 . S
C489 C490 1.387 . S
C489 H493 0.950 . S
C489 C498 1.390 . S
C490 C489 1.387 . S
C490 C492 1.387 . S
H491 C498 0.950 . S
C492 C490 1.387 . S
C492 C494 1.390 . S
C492 H496 0.950 . S
H493 C489 0.950 . S
C494 C492 1.390 . S
C494 C495 1.387 . S
C494 H497 0.950 . S
C495 C494 1.387 . S
C495 C498 1.387 . S
H496 C492 0.950 . S
H497 C494 0.950 . S
C498 C489 1.390 . S
C498 H491 0.950 . S
C498 C495 1.387 . S
C499 C500 1.387 . S
C499 H503 0.950 . S
C499 C508 1.390 . S
C500 C499 1.387 . S
C500 C502 1.387 . S
H501 C508 0.950 . S
C502 C500 1.387 . S
C502 C504 1.390 . S
C502 H506 0.950 . S
H503 C499 0.950 . S
C504 C502 1.390 . S
C504 C505 1.387 . S
C504 H507 0.950 . S
C505 C504 1.387 . S
C505 C508 1.387 . S
H506 C502 0.950 . S
H507 C504 0.950 . S
C508 C499 1.390 . S
C508 H501 0.950 . S
C508 C505 1.387 . S
C509 C510 1.387 . S
C509 H513 0.950 . S
C509 C518 1.390 . S
C510 C509 1.387 . S
C510 C512 1.387 . S
H511 C518 0.950 . S
C512 C510 1.387 . S
C512 C514 1.390 . S
C512 H516 0.950 . S
H513 C509 0.950 . S
C514 C512 1.390 . S
C514 C515 1.387 . S
C514 H517 0.950 . S
C515 C514 1.387 . S
C515 C518 1.387 . S
H516 C512 0.950 . S
H517 C514 0.950 . S
C518 C509 1.390 . S
C518 H511 0.950 . S
C518 C515 1.387 . S
C519 C520 1.387 . S
C519 H523 0.950 . S
C519 C528 1.390 . S
C520 C519 1.387 . S
C520 C522 1.387 . S
H521 C528 0.950 . S
C522 C520 1.387 . S
C522 C524 1.390 . S
C522 H526 0.950 . S
H523 C519 0.950 . S
C524 C522 1.390 . S
C524 C525 1.387 . S
C524 H527 0.950 . S
C525 C524 1.387 . S
C525 C528 1.387 . S
H526 C522 0.950 . S
H527 C524 0.950 . S
C528 C519 1.390 . S
C528 H521 0.950 . S
C528 C525 1.387 . S
C529 C530 1.387 . S
C529 H533 0.950 . S
C529 C538 1.390 . S
C530 C529 1.387 . S
C530 C532 1.387 1_556 S
H531 C538 0.950 . S
C532 C530 1.387 1_554 S
C532 C534 1.390 . S
C532 H536 0.950 . S
H533 C529 0.950 . S
C534 C532 1.390 . S
C534 C535 1.387 1_554 S
C534 H537 0.950 . S
C535 C534 1.387 1_556 S
C535 C538 1.387 . S
H536 C532 0.950 . S
H537 C534 0.950 . S
C538 C529 1.390 . S
C538 H531 0.950 . S
C538 C535 1.387 . S
C539 C540 1.387 . S
C539 H543 0.950 . S
C539 C548 1.390 . S
C540 C539 1.387 . S
C540 C542 1.387 . S
H541 C548 0.950 . S
C542 C540 1.387 . S
C542 C544 1.390 . S
C542 H546 0.950 . S
H543 C539 0.950 . S
C544 C542 1.390 . S
C544 C545 1.387 . S
C544 H547 0.950 . S
C545 C544 1.387 . S
C545 C548 1.387 . S
H546 C542 0.950 . S
H547 C544 0.950 . S
C548 C539 1.390 . S
C548 H541 0.950 . S
C548 C545 1.387 . S
C549 C550 1.387 . S
C549 H553 0.950 . S
C549 C558 1.390 . S
C550 C549 1.387 . S
C550 C552 1.387 . S
H551 C558 0.950 . S
C552 C550 1.387 . S
C552 C554 1.390 . S
C552 H556 0.950 . S
H553 C549 0.950 . S
C554 C552 1.390 . S
C554 C555 1.387 . S
C554 H557 0.950 . S
C555 C554 1.387 . S
C555 C558 1.387 . S
H556 C552 0.950 . S
H557 C554 0.950 . S
C558 C549 1.390 . S
C558 H551 0.950 . S
C558 C555 1.387 . S
C559 C560 1.387 . S
C559 H563 0.950 . S
C559 C568 1.390 . S
C560 C559 1.387 . S
C560 C562 1.387 . S
H561 C568 0.950 . S
C562 C560 1.387 . S
C562 C564 1.390 . S
C562 H566 0.950 . S
H563 C559 0.950 . S
C564 C562 1.390 . S
C564 C565 1.387 . S
C564 H567 0.950 . S
C565 C564 1.387 . S
C565 C568 1.387 . S
H566 C562 0.950 . S
H567 C564 0.950 . S
C568 C559 1.390 . S
C568 H561 0.950 . S
C568 C565 1.387 . S
C569 C570 1.387 . S
C569 H573 0.950 . S
C569 C578 1.390 . S
C570 C569 1.387 . S
C570 C572 1.387 . S
H571 C578 0.950 . S
C572 C570 1.387 . S
C572 C574 1.390 . S
C572 H576 0.950 . S
H573 C569 0.950 . S
C574 C572 1.390 . S
C574 C575 1.387 . S
C574 H577 0.950 . S
C575 C574 1.387 . S
C575 C578 1.387 . S
H576 C572 0.950 . S
H577 C574 0.950 . S
C578 C569 1.390 . S
C578 H571 0.950 . S
C578 C575 1.387 . S
C579 C580 1.387 . S
C579 H583 0.950 . S
C579 C588 1.390 . S
C580 C579 1.387 . S
C580 C582 1.387 . S
H581 C588 0.950 1_554 S
C582 C580 1.387 . S
C582 C584 1.390 . S
C582 H586 0.950 . S
H583 C579 0.950 . S
C584 C582 1.390 . S
C584 C585 1.387 1_556 S
C584 H587 0.953 . S
C585 C584 1.387 1_554 S
C585 C588 1.387 1_554 S
H586 C582 0.950 . S
H587 C584 0.953 . S
C588 C579 1.390 . S
C588 H581 0.950 1_556 S
C588 C585 1.387 1_556 S
C589 C590 1.387 . S
C589 H593 0.950 . S
C589 C598 1.390 1_554 S
C590 C589 1.387 . S
C590 C592 1.387 . S
H591 C598 0.950 . S
C592 C590 1.387 . S
C592 C594 1.390 1_554 S
C592 H596 0.950 . S
H593 C589 0.950 . S
C594 C592 1.390 1_556 S
C594 C595 1.387 . S
C594 H597 0.950 . S
C595 C594 1.387 . S
C595 C598 1.387 . S
H596 C592 0.950 . S
H597 C594 0.950 . S
C598 C589 1.390 1_556 S
C598 H591 0.950 . S
C598 C595 1.387 . S
C599 C600 1.387 . S
C599 H603 0.950 . S
C599 C608 1.390 . S
C600 C599 1.387 . S
C600 C602 1.387 . S
H601 C608 0.950 . S
C602 C600 1.387 . S
C602 C604 1.390 . S
C602 H606 0.950 . S
H603 C599 0.950 . S
C604 C602 1.390 . S
C604 C605 1.387 . S
C604 H607 0.950 . S
C605 C604 1.387 . S
C605 C608 1.387 . S
H606 C602 0.950 . S
H607 C604 0.950 . S
C608 C599 1.390 . S
C608 H601 0.950 . S
C608 C605 1.387 . S
C609 C610 1.387 . S
C609 H613 0.950 . S
C609 C618 1.390 . S
C610 C609 1.387 . S
C610 C612 1.387 . S
H611 C618 0.950 . S
C612 C610 1.387 . S
C612 C614 1.390 . S
C612 H616 0.950 . S
H613 C609 0.950 . S
C614 C612 1.390 . S
C614 C615 1.387 . S
C614 H617 0.950 . S
C615 C614 1.387 . S
C615 C618 1.387 . S
H616 C612 0.950 . S
H617 C614 0.950 . S
C618 C609 1.390 . S
C618 H611 0.950 . S
C618 C615 1.387 . S
C619 C620 1.387 . S
C619 H623 0.950 . S
C619 C628 1.390 . S
C620 C619 1.387 . S
C620 C622 1.387 . S
H621 C628 0.950 . S
C622 C620 1.387 . S
C622 C624 1.390 . S
C622 H626 0.950 . S
H623 C619 0.950 . S
C624 C622 1.390 . S
C624 C625 1.387 . S
C624 H627 0.950 . S
C625 C624 1.387 . S
C625 C628 1.387 . S
H626 C622 0.950 . S
H627 C624 0.950 . S
C628 C619 1.390 . S
C628 H621 0.950 . S
C628 C625 1.387 . S
C629 C630 1.387 . S
C629 H633 0.950 . S
C629 C638 1.390 . S
C630 C629 1.387 . S
C630 C632 1.387 . S
H631 C638 0.950 . S
C632 C630 1.387 . S
C632 C634 1.390 . S
C632 H636 0.950 . S
H633 C629 0.950 . S
C634 C632 1.390 . S
C634 C635 1.387 . S
C634 H637 0.950 . S
C635 C634 1.387 . S
C635 C638 1.387 . S
H636 C632 0.950 . S
H637 C634 0.950 . S
C638 C629 1.390 . S
C638 H631 0.950 . S
C638 C635 1.387 . S
C280 C24 1.890 . S
C285 C135 1.943 . S
C290 C166 1.935 . S
C295 C55 1.696 . S
C300 C86 1.742 . S
C305 C120 2.049 . S
C310 C31 1.592 . S
C315 C111 1.620 . S
C320 C62 1.524 . S
C325 C125 1.605 . S
C330 C0 1.426 . S
C335 C156 1.602 . S
C340 C117 1.890 . S
C345 C228 1.943 1_655 S
C350 C259 1.935 . S
C355 C148 1.697 . S
C360 C213 2.048 1_545 S
C365 C179 1.737 . S
C370 C124 1.594 . S
C375 C204 1.619 . S
C380 C218 1.605 1_655 S
C385 C155 1.525 . S
C390 C249 1.602 . S
C395 C93 1.430 . S
C400 C210 1.890 . S
C405 C42 1.943 . S
C410 C241 1.700 . S
C415 C73 1.937 1_556 S
C420 C27 2.048 . S
C425 C272 1.737 . S
C430 C18 1.619 . S
C435 C217 1.594 . S
C440 C32 1.605 1_556 S
C445 C248 1.524 . S
C450 C186 1.425 . S
C455 C63 1.602 . S
C460 C80 1.844 1_544 S
C465 C11 1.839 . S
C470 C1 1.560 1_655 S
C475 C58 1.536 1_545 S
C480 C49 1.723 . S
C485 C89 1.603 . S
C490 C173 1.846 . S
C495 C104 1.839 . S
C500 C94 1.563 . S
C505 C151 1.534 . S
C510 C142 1.723 . S
C515 C182 1.603 . S
C520 C197 1.840 . S
C525 C266 1.844 . S
C530 C244 1.535 . S
C535 C187 1.560 . S
C540 C275 1.606 . S
C545 C235 1.722 . S
C550 C10 0.953 . S
C555 C2 0.953 . S
C560 C41 0.961 . S
C565 C33 0.961 . S
C570 C64 0.958 . S
C575 C72 0.958 . S
C580 C95 0.957 . S
C585 C103 0.957 . S
C590 C126 0.960 . S
C595 C134 0.960 . S
C600 C165 0.957 . S
C605 C157 0.957 1_556 S
C610 C196 0.955 . S
C615 C188 0.955 . S
C620 C219 0.960 . S
C625 C227 0.960 . S
C630 C250 0.958 . S
C635 C258 0.958 1_554 S
