# Generated by pormake.
# Topology tfs, (6)-cn, num edge types: 1
# Building blocks:
#     Node 0, Type 0, BuildingBlock: MIDCAF_clean_sbu_0, # of connection points: 6
#     Node 1, Type 0, BuildingBlock: MIDCAF_clean_sbu_0, # of connection points: 6
#     Node 2, Type 0, BuildingBlock: MIDCAF_clean_sbu_0, # of connection points: 6
#     Node 3, Type 0, BuildingBlock: MIDCAF_clean_sbu_0, # of connection points: 6
#     Node 4, Type 0, BuildingBlock: MIDCAF_clean_sbu_0, # of connection points: 6
#     Node 5, Type 0, BuildingBlock: MIDCAF_clean_sbu_0, # of connection points: 6
#     Edge 6, Type (0, 0), BuildingBlock: UVAHIK_clean_linker_0, # of connection points: 2
#     Edge 7, Type (0, 0), BuildingBlock: UVAHIK_clean_linker_0, # of connection points: 2
#     Edge 8, Type (0, 0), BuildingBlock: UVAHIK_clean_linker_0, # of connection points: 2
#     Edge 9, Type (0, 0), BuildingBlock: UVAHIK_clean_linker_0, # of connection points: 2
#     Edge 10, Type (0, 0), BuildingBlock: UVAHIK_clean_linker_0, # of connection points: 2
#     Edge 11, Type (0, 0), BuildingBlock: UVAHIK_clean_linker_0, # of connection points: 2
#     Edge 12, Type (0, 0), BuildingBlock: UVAHIK_clean_linker_0, # of connection points: 2
#     Edge 13, Type (0, 0), BuildingBlock: UVAHIK_clean_linker_0, # of connection points: 2
#     Edge 14, Type (0, 0), BuildingBlock: UVAHIK_clean_linker_0, # of connection points: 2
#     Edge 15, Type (0, 0), BuildingBlock: UVAHIK_clean_linker_0, # of connection points: 2
#     Edge 16, Type (0, 0), BuildingBlock: UVAHIK_clean_linker_0, # of connection points: 2
#     Edge 17, Type (0, 0), BuildingBlock: UVAHIK_clean_linker_0, # of connection points: 2
#     Edge 18, Type (0, 0), BuildingBlock: UVAHIK_clean_linker_0, # of connection points: 2
#     Edge 19, Type (0, 0), BuildingBlock: UVAHIK_clean_linker_0, # of connection points: 2
#     Edge 20, Type (0, 0), BuildingBlock: UVAHIK_clean_linker_0, # of connection points: 2
#     Edge 21, Type (0, 0), BuildingBlock: UVAHIK_clean_linker_0, # of connection points: 2
#     Edge 22, Type (0, 0), BuildingBlock: UVAHIK_clean_linker_0, # of connection points: 2
#     Edge 23, Type (0, 0), BuildingBlock: UVAHIK_clean_linker_0, # of connection points: 2
# Relax obj value: 0.134
# Max RMSD: 0.125
# Mean RMSD: 0.125
data_MOF--net-tfs--node1-MIDCAF_clean_sbu_0--edge1-UVAHIK_clean_linker_0
_symmetry_space_group_name_H-M    P1
_symmetry_Int_Tables_number       1
_symmetry_cell_setting            triclinic
loop_
_symmetry_equiv_pos_as_xyz
'x, y, z'
_cell_length_a     52.532638
_cell_length_b     52.552786
_cell_length_c     19.838095
_cell_angle_alpha  89.994356
_cell_angle_beta   89.927242
_cell_angle_gamma 120.03076
loop_
_atom_site_label
_atom_site_type_symbol
_atom_site_fract_x
_atom_site_fract_y
_atom_site_fract_z
_atom_type_partial_charge
Zn0 Zn 0.18098 0.42728 0.902 0.0
Zn1 Zn 0.26636 0.43076 0.94532 0.0
Zn2 Zn 0.22362 0.42909 0.94257 0.0
C3 C 0.23154 0.37532 0.93524 0.0
C4 C 0.25261 0.44219 0.07576 0.0
O5 O 0.2286 0.46963 0.99139 0.0
O6 O 0.18898 0.46539 0.94177 0.0
C7 C 0.21646 0.43177 0.78985 0.0
O8 O 0.21808 0.3856 0.97057 0.0
O9 O 0.25176 0.39259 0.89541 0.0
O10 O 0.26248 0.4268 0.04984 0.0
O11 O 0.24229 0.45415 0.03541 0.0
O12 O 0.19079 0.42642 0.80446 0.0
O13 O 0.2343 0.43507 0.83711 0.0
O14 O 0.18804 0.386 0.98299 0.0
O15 O 0.15105 0.39078 0.94619 0.0
C16 C 0.1602 0.37626 0.97844 0.0
O17 O 0.25944 0.47421 0.97518 0.0
O18 O 0.29317 0.47274 0.91201 0.0
C19 C 0.21118 0.47982 0.97902 0.0
C20 C 0.28546 0.48751 0.9487 0.0
Zn21 Zn 0.75851 0.1763 0.00428 0.0
Zn22 Zn 0.85064 0.26479 0.07595 0.0
Zn23 Zn 0.80541 0.22136 0.03775 0.0
C24 C 0.87039 0.22858 0.03526 0.0
C25 C 0.81498 0.24579 0.18822 0.0
O26 O 0.76958 0.21628 0.10739 0.0
O27 O 0.72987 0.17907 0.06291 0.0
C28 C 0.77628 0.21474 0.89378 0.0
O29 O 0.84232 0.21046 0.03736 0.0
O30 O 0.88022 0.25566 0.04385 0.0
O31 O 0.84192 0.26132 0.17381 0.0
O32 O 0.79653 0.23043 0.14168 0.0
O33 O 0.75867 0.18828 0.90924 0.0
O34 O 0.79508 0.23213 0.9375 0.0
O35 O 0.81457 0.18352 0.02915 0.0
O36 O 0.7691 0.14607 0.02068 0.0
C37 C 0.79629 0.15552 0.02607 0.0
O38 O 0.81148 0.2587 0.97222 0.0
O39 O 0.84693 0.29544 0.02886 0.0
C40 C 0.74128 0.20018 0.10394 0.0
C41 C 0.82756 0.28653 0.98356 0.0
Zn42 Zn 0.59642 0.84585 0.06767 0.0
Zn43 Zn 0.59458 0.75372 0.00121 0.0
Zn44 Zn 0.59569 0.80039 0.03137 0.0
C45 C 0.65252 0.79167 0.02779 0.0
C46 C 0.57616 0.77177 0.887 0.0
O47 O 0.56479 0.8058 0.96354 0.0
O48 O 0.56244 0.84139 0.01705 0.0
C49 C 0.57922 0.80978 0.18031 0.0
O50 O 0.64276 0.80988 0.0243 0.0
O51 O 0.63479 0.76437 0.02669 0.0
O52 O 0.58577 0.75493 0.90384 0.0
O53 O 0.57576 0.78977 0.93046 0.0
O54 O 0.58985 0.8366 0.16556 0.0
O55 O 0.5771 0.7915 0.13431 0.0
O56 O 0.64325 0.83755 0.03401 0.0
O57 O 0.63583 0.87541 0.03793 0.0
C58 C 0.65322 0.86559 0.03181 0.0
O59 O 0.56416 0.76457 0.10032 0.0
O60 O 0.56133 0.72482 0.0553 0.0
C61 C 0.55263 0.82166 0.97251 0.0
C62 C 0.55155 0.73628 0.09603 0.0
Zn63 Zn 0.76358 0.59187 0.03305 0.0
Zn64 Zn 0.8556 0.59627 0.956 0.0
Zn65 Zn 0.80969 0.59382 0.9924 0.0
C66 C 0.87453 0.65222 0.99405 0.0
C67 C 0.81968 0.5794 0.84275 0.0
O68 O 0.77358 0.56446 0.92201 0.0
O69 O 0.73493 0.56249 0.97138 0.0
C70 C 0.78122 0.56936 0.13812 0.0
O71 O 0.84638 0.64171 0.99149 0.0
O72 O 0.88488 0.63532 0.98747 0.0
O73 O 0.84653 0.591 0.85818 0.0
O74 O 0.80079 0.57594 0.88858 0.0
O75 O 0.763 0.57772 0.12561 0.0
O76 O 0.80008 0.57211 0.09281 0.0
O77 O 0.81883 0.64081 0.00248 0.0
O78 O 0.774 0.63287 0.02287 0.0
C79 C 0.80084 0.65057 0.012 0.0
O80 O 0.81615 0.5622 0.05584 0.0
O81 O 0.85274 0.56195 0.0018 0.0
C82 C 0.74544 0.55324 0.92686 0.0
C83 C 0.83261 0.5508 0.04538 0.0
Zn84 Zn 0.18423 0.75814 0.03674 0.0
Zn85 Zn 0.27132 0.84916 0.95857 0.0
Zn86 Zn 0.22835 0.80372 0.9938 0.0
C87 C 0.23534 0.86877 -0.00408 0.0
C88 C 0.25209 0.8137 0.84452 0.0
O89 O 0.22096 0.76737 0.92373 0.0
O90 O 0.18408 0.72925 0.97417 0.0
C91 C 0.2251 0.77584 0.14002 0.0
O92 O 0.21753 0.8407 0.99176 0.0
O93 O 0.26264 0.8789 0.99161 0.0
O94 O 0.2669 0.84052 0.86041 0.0
O95 O 0.23708 0.79455 0.89022 0.0
O96 O 0.19846 0.75749 0.1284 0.0
O97 O 0.2409 0.79459 0.09422 0.0
O98 O 0.19075 0.81329 0.00369 0.0
O99 O 0.1539 0.76903 0.02883 0.0
C100 C 0.1631 0.79569 0.01567 0.0
O101 O 0.26675 0.80993 0.05604 0.0
O102 O 0.30329 0.84643 0.00119 0.0
C103 C 0.20364 0.73933 0.92907 0.0
C104 C 0.29457 0.82621 0.04442 0.0
Zn105 Zn 0.43662 0.26381 0.88886 0.0
Zn106 Zn 0.43819 0.18079 0.93304 0.0
Zn107 Zn 0.43698 0.2221 0.92854 0.0
C108 C 0.38287 0.16043 0.91846 0.0
C109 C 0.44846 0.20569 0.06319 0.0
O110 O 0.47702 0.25723 0.98029 0.0
O111 O 0.47349 0.29355 0.93363 0.0
C112 C 0.4427 0.23356 0.77681 0.0
O113 O 0.39281 0.18419 0.95356 0.0
O114 O 0.40066 0.15725 0.88098 0.0
O115 O 0.43301 0.18045 0.03727 0.0
O116 O 0.4609 0.22796 0.02281 0.0
O117 O 0.43841 0.25454 0.79153 0.0
O118 O 0.44419 0.21781 0.82382 0.0
O119 O 0.39331 0.21458 0.96435 0.0
O120 O 0.3986 0.25634 0.92577 0.0
C121 C 0.38343 0.23244 0.95688 0.0
O122 O 0.4816 0.23107 0.96415 0.0
O123 O 0.48051 0.19576 0.90233 0.0
C124 C 0.4874 0.28506 0.97054 0.0
C125 C 0.49504 0.21825 0.93909 0.0
C126 C 0.34985 0.23558 0.04073 0.0
C127 C 0.35375 0.22577 0.97784 0.0
C128 C 0.32708 0.24189 0.05062 0.0
C129 C 0.26262 0.2414 0.96288 0.0
H130 H 0.29029 0.31445 0.06048 0.0
C131 C 0.23334 0.33096 0.89771 0.0
C132 C 0.22945 0.34668 0.95016 0.0
C133 C 0.24014 0.30891 0.91169 0.0
C134 C 0.28188 0.29376 0.034 0.0
H135 H 0.33606 0.21339 0.87731 0.0
H136 H 0.29685 0.22441 0.89352 0.0
H137 H 0.31751 0.28841 0.06766 0.0
H138 H 0.22841 0.35075 0.05856 0.0
H139 H 0.24087 0.31247 0.08318 0.0
H140 H 0.22816 0.24829 0.92545 0.0
C141 C 0.31056 0.2267 0.93638 0.0
C142 C 0.29749 0.2786 0.03829 0.0
C143 C 0.33305 0.2201 0.92695 0.0
C144 C 0.23074 0.33863 0.01711 0.0
C145 C 0.23824 0.31699 0.03117 0.0
C146 C 0.24732 0.25688 0.9577 0.0
C147 C 0.30807 0.23914 -0.00273 0.0
C148 C 0.28858 0.25252 0.00143 0.0
C149 C 0.24393 0.30251 0.97851 0.0
C150 C 0.25714 0.28358 0.99204 0.0
H151 H 0.36593 0.24086 0.08031 0.0
H152 H 0.32557 0.25063 0.09891 0.0
H153 H 0.25445 0.22111 0.93497 0.0
H154 H 0.23286 0.33696 0.84566 0.0
H155 H 0.24456 0.29839 0.86994 0.0
C156 C 0.11888 0.35008 0.05772 0.0
C157 C 0.13742 0.34844 0.00905 0.0
C158 C 0.09044 0.32649 0.06831 0.0
C159 C 0.03234 0.26406 0.97146 0.0
H160 H 0.98748 0.25515 0.13363 0.0
C161 C 0.9101 0.23049 0.96551 0.0
C162 C 0.8927 0.21977 0.02378 0.0
C163 C 0.93914 0.23615 0.96484 0.0
C164 C 0.99947 0.25666 0.08801 0.0
H165 H 0.1413 0.32012 0.93585 0.0
H166 H 0.09197 0.27819 0.95609 0.0
H167 H 0.04076 0.28305 0.13741 0.0
H168 H 0.89135 0.20437 0.12541 0.0
H169 H 0.94152 0.21264 0.12352 0.0
H170 H 0.99105 0.23748 0.92216 0.0
C171 C 0.09919 0.29796 0.98559 0.0
C172 C 0.03029 0.27321 0.08998 0.0
C173 C 0.12777 0.32175 0.97496 0.0
C174 C 0.90397 0.21197 0.07917 0.0
C175 C 0.93308 0.21747 0.07851 0.0
C176 C 1.00152 0.24721 0.96965 0.0
C177 C 0.07957 0.30049 0.03015 0.0
C178 C 0.04723 0.27816 0.03118 0.0
C179 C 0.95167 0.23124 0.02266 0.0
C180 C 0.98448 0.24413 0.0273 0.0
H181 H 0.12542 0.37068 0.08328 0.0
H182 H 0.07624 0.32977 0.10244 0.0
H183 H 0.04431 0.26728 0.92483 0.0
H184 H 0.90231 0.23752 0.92278 0.0
H185 H 0.95243 0.24693 0.92088 0.0
C186 C 0.80764 0.12097 0.08696 0.0
C187 C 0.80529 0.133 0.02571 0.0
C188 C 0.80292 0.09218 0.0895 0.0
C189 C 0.78706 0.02635 0.98183 0.0
H190 H 0.73486 0.98327 0.12965 0.0
C191 C 0.6943 0.90481 0.96675 0.0
C192 C 0.68471 0.88789 0.02595 0.0
C193 C 0.71806 0.93371 0.96806 0.0
C194 C 0.74989 0.99483 0.08864 0.0
H195 H 0.79785 0.12505 0.91876 0.0
H196 H 0.78987 0.07536 0.92252 0.0
H197 H 0.7608 0.03653 0.13045 0.0
H198 H 0.69366 0.88734 0.13205 0.0
H199 H 0.73566 0.93747 0.13436 0.0
H200 H 0.77467 0.98426 0.9385 0.0
C201 C 0.79582 0.08792 0.96883 0.0
C202 C 0.76494 0.02564 0.08912 0.0
C203 C 0.80064 0.11666 0.96642 0.0
C204 C 0.70105 0.89955 0.08524 0.0
C205 C 0.72474 0.92854 0.08677 0.0
C206 C 0.77181 0.99545 0.98116 0.0
C207 C 0.79535 0.07464 0.03088 0.0
C208 C 0.78324 0.04197 0.03497 0.0
C209 C 0.73258 0.94655 0.02897 0.0
C210 C 0.75247 0.97922 0.03387 0.0
H211 H 0.81044 0.13276 0.13369 0.0
H212 H 0.80344 0.08309 0.13812 0.0
H213 H 0.8013 0.03796 0.9397 0.0
H214 H 0.68156 0.89675 0.92084 0.0
H215 H 0.72319 0.94679 0.92259 0.0
C216 C 0.80591 0.6941 0.07133 0.0
C217 C 0.80972 0.68205 0.01158 0.0
C218 C 0.80059 0.71768 0.06946 0.0
C219 C 0.76622 0.74662 0.95298 0.0
H220 H 0.77765 0.79864 0.10277 0.0
C221 C 0.69909 0.80552 0.96739 0.0
C222 C 0.68407 0.8008 0.02885 0.0
C223 C 0.72323 0.80102 0.96214 0.0
C224 C 0.77431 0.78434 0.06034 0.0
H225 H 0.81299 0.68658 0.9032 0.0
H226 H 0.805 0.72865 0.89958 0.0
H227 H 0.80562 0.773 0.09779 0.0
H228 H 0.68358 0.78943 0.1337 0.0
H229 H 0.726 0.78246 0.12549 0.0
H230 H 0.7343 0.75722 0.9166 0.0
C231 C 0.80557 0.71958 0.94817 0.0
C232 C 0.79033 0.76952 0.05751 0.0
C233 C 0.81086 0.69587 0.95019 0.0
C234 C 0.69527 0.79409 0.08617 0.0
C235 C 0.7195 0.78982 0.08117 0.0
C236 C 0.75038 0.76157 0.95561 0.0
C237 C 0.79875 0.72979 0.00753 0.0
C238 C 0.78589 0.74971 0.0048 0.0
C239 C 0.73286 0.7917 0.01835 0.0
C240 C 0.75354 0.78001 0.01028 0.0
H241 H 0.80409 0.68337 0.11919 0.0
H242 H 0.79527 0.72451 0.11633 0.0
H243 H 0.76163 0.73129 0.91209 0.0
H244 H 0.69044 0.80988 0.922 0.0
H245 H 0.73318 0.80306 0.91313 0.0
C246 C 0.1233 0.79956 0.07221 0.0
C247 C 0.14059 0.80472 0.01421 0.0
C248 C 0.09475 0.79509 0.06769 0.0
C249 C 0.03436 0.76555 0.94341 0.0
H250 H 0.99115 0.77427 0.09159 0.0
C251 C 0.90826 0.70041 0.94188 0.0
C252 C 0.8963 0.68379 0.00079 0.0
C253 C 0.9371 0.7244 0.94142 0.0
C254 C 1.00285 0.77171 0.04958 0.0
H255 H 0.1423 0.81134 0.90645 0.0
H256 H 0.09276 0.80467 0.89832 0.0
H257 H 0.04485 0.80116 0.09314 0.0
H258 H 0.90437 0.68043 0.10629 0.0
H259 H 0.95412 0.72257 0.10639 0.0
H260 H 0.99248 0.73544 0.90088 0.0
C261 C 0.10105 0.80357 0.94752 0.0
C262 C 0.03374 0.78711 0.05048 0.0
C263 C 0.12974 0.80806 0.95221 0.0
C264 C 0.91267 0.69337 0.06065 0.0
C265 C 0.94141 0.71743 0.0604 0.0
C266 C 1.00354 0.75033 0.94234 0.0
C267 C 0.08257 0.79548 0.00476 0.0
C268 C 0.05001 0.78358 -0.00163 0.0
C269 C 0.95462 0.73226 -7e-05 0.0
C270 C 0.98728 0.7525 -0.00372 0.0
H271 H 0.13082 0.79615 0.12041 0.0
H272 H 0.08145 0.78873 0.11297 0.0
H273 H 0.0458 0.7617 0.9028 0.0
H274 H 0.89649 0.69305 0.8946 0.0
H275 H 0.94633 0.73555 0.89413 0.0
C276 C 0.22991 0.90643 0.0588 0.0
C277 C 0.22579 0.8908 -0.00139 0.0
C278 C 0.2358 0.93559 0.05755 0.0
C279 C 0.24538 0.99685 0.9408 0.0
H280 H 0.31011 0.04432 0.06126 0.0
C281 C 0.33996 0.1136 0.87819 0.0
C282 C 0.3534 0.13431 0.93013 0.0
C283 C 0.31661 0.08534 0.89191 0.0
C284 C 0.29168 0.03153 0.02804 0.0
H285 H 0.22261 0.89272 0.8904 0.0
H286 H 0.23292 0.94323 0.88755 0.0
H287 H 0.28212 0.99145 0.07656 0.0
H288 H 0.35177 0.14205 0.0368 0.0
H289 H 0.311 0.09243 0.06113 0.0
H290 H 0.25649 0.03717 0.88985 0.0
C291 C 0.23109 0.93318 0.93627 0.0
C292 C 0.27541 1.00098 0.03691 0.0
C293 C 0.22482 0.90392 0.93776 0.0
C294 C 0.34164 0.12672 0.99556 0.0
C295 C 0.31853 0.09817 0.00958 0.0
C296 C 0.26191 0.02742 0.9315 0.0
C297 C 0.23837 0.95004 0.99584 0.0
C298 C 0.25241 0.98298 0.99247 0.0
C299 C 0.30637 0.07682 0.95823 0.0
C300 C 0.28573 0.0451 0.97408 0.0
H301 H 0.23147 0.89713 0.1063 0.0
H302 H 0.24036 0.94739 0.10479 0.0
H303 H 0.22754 0.98403 0.90624 0.0
H304 H 0.34865 0.11872 0.82734 0.0
H305 H 0.30801 0.06953 0.85116 0.0
C306 C 0.18707 0.68917 0.8864 0.0
C307 C 0.21026 0.71798 0.8965 0.0
C308 C 0.1923 0.66562 0.88488 0.0
C309 C 0.24605 0.64676 0.95531 0.0
H310 H 0.19182 0.57088 0.87782 0.0
C311 C 0.24604 0.53401 0.97486 0.0
C312 C 0.21874 0.51032 0.99495 0.0
C313 C 0.24964 0.56211 0.96545 0.0
C314 C 0.20712 0.59197 0.89981 0.0
H315 H 0.25753 0.74509 0.90519 0.0
H316 H 0.26694 0.70399 0.8998 0.0
H317 H 0.19079 0.61443 0.83984 0.0
H318 H 0.17434 0.49791 0.02455 0.0
H319 H 0.1805 0.54674 0.0076 0.0
H320 H 0.26259 0.62377 0.01435 0.0
C321 C 0.24452 0.69946 0.89519 0.0
C322 C 0.20653 0.61699 0.87821 0.0
C323 C 0.23922 0.72314 0.89671 0.0
C324 C 0.19579 0.51582 0.01019 0.0
C325 C 0.1992 0.54367 -0.00019 0.0
C326 C 0.24701 0.62169 0.97598 0.0
C327 C 0.22094 0.67024 0.89301 0.0
C328 C 0.22532 0.64466 0.90711 0.0
C329 C 0.22576 0.56674 0.97463 0.0
C330 C 0.22693 0.59396 0.94981 0.0
H331 H 0.16451 0.68452 0.88659 0.0
H332 H 0.17343 0.64364 0.88337 0.0
H333 H 0.26067 0.6675 0.97951 0.0
H334 H 0.26355 0.53027 0.95919 0.0
H335 H 0.27025 0.5795 0.94541 0.0
C336 C 0.54238 0.21779 0.92557 0.0
C337 C 0.52466 0.22552 0.96352 0.0
C338 C 0.56878 0.22158 0.95203 0.0
C339 C 0.63073 0.24524 0.01078 0.0
H340 H 0.62532 0.21076 0.18692 0.0
C341 C 0.72914 0.23983 0.11867 0.0
C342 C 0.72179 0.21057 0.13077 0.0
C343 C 0.70702 0.24727 0.11356 0.0
C344 C 0.62728 0.22079 0.13806 0.0
H345 H 0.52101 0.24357 0.05889 0.0
H346 H 0.56682 0.2497 0.10549 0.0
H347 H 0.58326 0.21338 0.14209 0.0
H348 H 0.68611 0.16706 0.15505 0.0
H349 H 0.64777 0.18026 0.14942 0.0
H350 H 0.67441 0.25195 0.00582 0.0
C351 C 0.56038 0.24094 0.05504 0.0
C352 C 0.60325 0.2224 0.11246 0.0
C353 C 0.53422 0.23758 0.02815 0.0
C354 C 0.69245 0.18984 0.14637 0.0
C355 C 0.67044 0.19739 0.14258 0.0
C356 C 0.6549 0.24407 0.0368 0.0
C357 C 0.57781 0.23266 0.0176 0.0
C358 C 0.60445 0.234 0.04782 0.0
C359 C 0.67726 0.22573 0.12208 0.0
C360 C 0.65327 0.23123 0.10012 0.0
H361 H 0.53554 0.20829 0.87583 0.0
H362 H 0.58158 0.21476 0.92211 0.0
H363 H 0.63241 0.25448 0.96106 0.0
H364 H 0.75147 0.25621 0.10542 0.0
H365 H 0.71301 0.2694 0.09851 0.0
C366 C 0.51312 0.68773 0.13982 0.0
C367 C 0.52162 0.71689 0.12286 0.0
C368 C 0.48353 0.66568 0.13747 0.0
C369 C 0.42006 0.64877 0.03449 0.0
H370 H 0.38057 0.57845 0.14445 0.0
C371 C 0.30623 0.52748 0.0359 0.0
C372 C 0.30794 0.51741 0.97124 0.0
C373 C 0.32922 0.55404 0.06078 0.0
C374 C 0.39112 0.59807 0.11353 0.0
H375 H 0.50552 0.74625 0.09595 0.0
H376 H 0.45376 0.70769 0.09152 0.0
H377 H 0.42568 0.62113 0.18557 0.0
H378 H 0.33484 0.52773 0.88147 0.0
H379 H 0.37473 0.5744 0.92429 0.0
H380 H 0.38625 0.62529 0.96121 0.0
C381 C 0.47001 0.70188 0.10665 0.0
C382 C 0.41702 0.62246 0.137 0.0
C383 C 0.49963 0.72407 0.11032 0.0
C384 C 0.33278 0.53497 0.93128 0.0
C385 C 0.35558 0.56174 0.95577 0.0
C386 C 0.39443 0.62424 0.01062 0.0
C387 C 0.46183 0.67224 0.11699 0.0
C388 C 0.43207 0.64796 0.09731 0.0
C389 C 0.35434 0.57134 0.0213 0.0
C390 C 0.37991 0.59841 0.04934 0.0
H391 H 0.52963 0.68152 0.14881 0.0
H392 H 0.47805 0.64312 0.14562 0.0
H393 H 0.43127 0.66789 0.0022 0.0
H394 H 0.28751 0.51438 0.0682 0.0
H395 H 0.32751 0.56089 0.11127 0.0
C396 C 0.84762 0.51506 0.08084 0.0
C397 C 0.8249 0.52136 0.07091 0.0
C398 C 0.84208 0.48619 0.07762 0.0
C399 C 0.79043 0.41612 0.99424 0.0
H400 H 0.8405 0.39097 0.07949 0.0
C401 C 0.79155 0.30367 0.96745 0.0
C402 C 0.82012 0.30834 0.95751 0.0
C403 C 0.78703 0.32771 0.97552 0.0
C404 C 0.82633 0.39771 0.05527 0.0
H405 H 0.77803 0.50208 0.05557 0.0
H406 H 0.76805 0.45127 0.05187 0.0
H407 H 0.84069 0.43471 0.12054 0.0
H408 H 0.86551 0.34144 0.93982 0.0
H409 H 0.85757 0.38309 0.95257 0.0
H410 H 0.77603 0.37849 0.92934 0.0
C411 C 0.79034 0.46879 0.06088 0.0
C412 C 0.82646 0.42284 0.07868 0.0
C413 C 0.79593 0.49786 0.06449 0.0
C414 C 0.84326 0.33718 0.94698 0.0
C415 C 0.83879 0.36104 0.95522 0.0
C416 C 0.78998 0.39056 0.97144 0.0
C417 C 0.8136 0.46272 0.06429 0.0
C418 C 0.80927 0.43304 0.04717 0.0
C419 C 0.81103 0.35658 0.97355 0.0
C420 C 0.80865 0.3817 0.00048 0.0
H421 H 0.8702 0.53275 0.08498 0.0
H422 H 0.8607 0.4827 0.08006 0.0
H423 H 0.77705 0.42334 0.96817 0.0
H424 H 0.7734 0.28172 0.97704 0.0
H425 H 0.76539 0.32372 0.9895 0.0
C426 C 0.31017 0.78881 0.05884 0.0
C427 C 0.31635 0.81798 0.06678 0.0
C428 C 0.33317 0.78283 0.04858 0.0
C429 C 0.40119 0.81735 0.9598 0.0
H430 H 0.42739 0.76983 0.05312 0.0
C431 C 0.5174 0.836 0.92997 0.0
C432 C 0.5235 0.81346 0.94447 0.0
C433 C 0.48863 0.83083 0.93294 0.0
C434 C 0.41995 0.78262 0.02531 0.0
H435 H 0.35125 0.86309 0.07855 0.0
H436 H 0.39108 0.85263 0.06165 0.0
H437 H 0.38399 0.77119 0.09403 0.0
H438 H 0.50397 0.76711 0.96716 0.0
H439 H 0.45336 0.75773 0.97052 0.0
H440 H 0.43665 0.82887 0.89096 0.0
C441 C 0.36863 0.83449 0.0623 0.0
C442 C 0.39523 0.78354 0.04927 0.0
C443 C 0.34583 0.84041 0.07283 0.0
C444 C 0.49987 0.78482 0.95466 0.0
C445 C 0.47093 0.77962 0.9581 0.0
C446 C 0.42549 0.8161 0.9353 0.0
C447 C 0.36249 0.80596 0.0463 0.0
C448 C 0.38627 0.80169 0.01791 0.0
C449 C 0.46514 0.80293 0.95067 0.0
C450 C 0.43592 0.79956 0.96898 0.0
H451 H 0.28769 0.77115 0.05279 0.0
H452 H 0.32791 0.76062 0.03649 0.0
H453 H 0.39436 0.8311 0.93396 0.0
H454 H 0.53523 0.85835 0.92299 0.0
H455 H 0.48535 0.84948 0.92724 0.0
C456 C 0.69561 0.51898 0.88334 0.0
C457 C 0.72454 0.52511 0.89427 0.0
C458 C 0.67237 0.49002 0.88157 0.0
C459 C 0.65424 0.4177 0.95272 0.0
H460 H 0.5785 0.39486 0.87279 0.0
C461 C 0.5415 0.30412 0.96697 0.0
C462 C 0.51786 0.30756 0.98827 0.0
C463 C 0.56968 0.32867 0.95865 0.0
C464 C 0.59956 0.40097 0.89542 0.0
H465 H 0.75222 0.50566 0.90428 0.0
H466 H 0.71166 0.45483 0.89852 0.0
H467 H 0.62188 0.43985 0.83549 0.0
H468 H 0.50562 0.33925 0.02126 0.0
H469 H 0.55462 0.38204 0.00619 0.0
H470 H 0.63138 0.37809 0.01175 0.0
C471 C 0.7068 0.47246 0.8934 0.0
C472 C 0.62447 0.42682 0.87423 0.0
C473 C 0.73017 0.50163 0.89514 0.0
C474 C 0.52349 0.33581 0.006 0.0
C475 C 0.55144 0.36033 -0.00328 0.0
C476 C 0.62928 0.39144 0.973 0.0
C477 C 0.67742 0.46631 0.8903 0.0
C478 C 0.65207 0.43614 0.90404 0.0
C479 C 0.57444 0.35708 0.97023 0.0
C480 C 0.6016 0.38336 0.94588 0.0
H481 H 0.69059 0.53663 0.883 0.0
H482 H 0.65026 0.48651 0.87936 0.0
H483 H 0.67493 0.42415 0.97759 0.0
H484 H 0.53765 0.28307 0.94935 0.0
H485 H 0.58701 0.32566 0.93747 0.0
C486 C 0.25477 0.45099 0.69784 0.0
C487 C 0.22516 0.43506 0.71804 0.0
C488 C 0.26206 0.45633 0.62919 0.0
C489 C 0.22841 0.45718 0.46476 0.0
H490 H 0.2933 0.45202 0.38678 0.0
C491 C 0.26387 0.43209 0.19148 0.0
C492 C 0.25533 0.44793 0.14912 0.0
C493 C 0.26476 0.43576 0.26123 0.0
C494 C 0.27502 0.45347 0.40771 0.0
H495 H 0.18014 0.4109 0.68222 0.0
H496 H 0.19276 0.4193 0.56377 0.0
H497 H 0.28532 0.44681 0.50834 0.0
H498 H 0.24209 0.48091 0.14653 0.0
H499 H 0.24436 0.48794 0.26862 0.0
H500 H 0.21694 0.46207 0.36438 0.0
C501 C 0.2104 0.4287 0.60035 0.0
C502 C 0.27068 0.45083 0.47759 0.0
C503 C 0.20316 0.42363 0.66844 0.0
C504 C 0.24859 0.46826 0.17793 0.0
C505 C 0.24977 0.47216 0.24793 0.0
C506 C 0.23256 0.45954 0.39506 0.0
C507 C 0.23985 0.44565 0.57974 0.0
C508 C 0.24682 0.45185 0.50673 0.0
C509 C 0.25739 0.45556 0.29059 0.0
C510 C 0.25549 0.45701 0.36536 0.0
H511 H 0.27217 0.46015 0.73503 0.0
H512 H 0.28498 0.46946 0.61502 0.0
H513 H 0.21022 0.45883 0.48564 0.0
H514 H 0.26908 0.41614 0.17094 0.0
H515 H 0.27018 0.42216 0.29217 0.0
C516 C 0.75008 0.20786 0.78501 0.0
C517 C 0.7753 0.22454 0.82444 0.0
C518 C 0.75011 0.2136 0.71644 0.0
C519 C 0.79099 0.26637 0.57903 0.0
H520 H 0.76036 0.19543 0.47134 0.0
C521 C 0.82576 0.26631 0.30474 0.0
C522 C 0.80548 0.246 0.25851 0.0
C523 C 0.81815 0.26591 0.37218 0.0
C524 C 0.76844 0.21546 0.50037 0.0
H525 H 0.81971 0.26167 0.82389 0.0
H526 H 0.82001 0.2715 0.70311 0.0
H527 H 0.7547 0.19167 0.59304 0.0
H528 H 0.76086 0.20986 0.24693 0.0
H529 H 0.7474 0.20928 0.36524 0.0
H530 H 0.8054 0.29014 0.48602 0.0
C531 C 0.80009 0.25406 0.7256 0.0
C532 C 0.76526 0.21332 0.57034 0.0
C533 C 0.79998 0.24842 0.79472 0.0
C534 C 0.777 0.2258 0.28108 0.0
C535 C 0.76936 0.22537 0.34897 0.0
C536 C 0.79413 0.26851 0.50887 0.0
C537 C 0.77545 0.23603 0.68534 0.0
C538 C 0.77688 0.23874 0.61064 0.0
C539 C 0.79003 0.24519 0.39547 0.0
C540 C 0.78339 0.24307 0.46883 0.0
H541 H 0.73049 0.18962 0.80669 0.0
H542 H 0.73052 0.19981 0.68729 0.0
H543 H 0.79983 0.28634 0.60857 0.0
H544 H 0.84787 0.28232 0.2892 0.0
H545 H 0.83477 0.2812 0.40658 0.0
C546 C 0.55991 0.74624 0.77638 0.0
C547 C 0.56618 0.77065 0.81681 0.0
C548 C 0.5541 0.74617 0.70785 0.0
C549 C 0.53743 0.78458 0.5729 0.0
H550 H 0.58067 0.75835 0.46164 0.0
C551 C 0.56865 0.81992 0.29685 0.0
C552 C 0.56972 0.80018 0.25062 0.0
C553 C 0.56217 0.81233 0.36458 0.0
C554 C 0.56793 0.7652 0.49173 0.0
H555 H 0.56959 0.81349 0.81783 0.0
H556 H 0.56002 0.81369 0.69719 0.0
H557 H 0.5803 0.75292 0.58319 0.0
H558 H 0.56364 0.75644 0.23916 0.0
H559 H 0.55206 0.74305 0.3578 0.0
H560 H 0.52581 0.79763 0.48096 0.0
C561 C 0.55931 0.79443 0.71886 0.0
C562 C 0.56774 0.76213 0.56161 0.0
C563 C 0.5649 0.79439 0.78792 0.0
C564 C 0.56303 0.77217 0.27332 0.0
C565 C 0.55657 0.76458 0.34141 0.0
C566 C 0.53762 0.78766 0.5028 0.0
C567 C 0.55468 0.77064 0.67774 0.0
C568 C 0.55282 0.77212 0.60317 0.0
C569 C 0.55659 0.7848 0.388 0.0
C570 C 0.55329 0.77843 0.4615 0.0
H571 H 0.56019 0.72735 0.79735 0.0
H572 H 0.54987 0.72718 0.67806 0.0
H573 H 0.5254 0.79213 0.6034 0.0
H574 H 0.57351 0.84164 0.28112 0.0
H575 H 0.56275 0.82859 0.39908 0.0
C576 C 0.78208 0.55954 0.74911 0.0
C577 C 0.81092 0.56987 0.77203 0.0
C578 C 0.77494 0.55195 0.68119 0.0
C579 C 0.80303 0.53643 0.52213 0.0
H580 H 0.75732 0.56657 0.4362 0.0
C581 C 0.80671 0.56113 0.23581 0.0
C582 C 0.78095 0.55778 0.20618 0.0
C583 C 0.80724 0.55561 0.30484 0.0
C584 C 0.76969 0.55749 0.45941 0.0
H585 H 0.85465 0.57959 0.74153 0.0
H586 H 0.84242 0.56712 0.62422 0.0
H587 H 0.76307 0.5697 0.55783 0.0
H588 H 0.73485 0.54313 0.22347 0.0
H589 H 0.73563 0.53292 0.34268 0.0
H590 H 0.81046 0.52521 0.42291 0.0
C591 C 0.82511 0.5643 0.65841 0.0
C592 C 0.77293 0.55925 0.52937 0.0
C593 C 0.83219 0.57179 0.72589 0.0
C594 C 0.7552 0.54646 0.24524 0.0
C595 C 0.75566 0.54074 0.31366 0.0
C596 C 0.79987 0.53477 0.45196 0.0
C597 C 0.7965 0.55456 0.6349 0.0
C598 C 0.79009 0.54925 0.56155 0.0
C599 C 0.78195 0.54644 0.34495 0.0
C600 C 0.78349 0.54567 0.41972 0.0
H601 H 0.76518 0.55781 0.78308 0.0
H602 H 0.75261 0.54428 0.66481 0.0
H603 H 0.81602 0.52808 0.54543 0.0
H604 H 0.82685 0.5698 0.20685 0.0
H605 H 0.82787 0.56023 0.32746 0.0
C606 C 0.22315 0.74994 0.24634 0.0
C607 C 0.23681 0.77582 0.20765 0.0
C608 C 0.22939 0.7505 0.31474 0.0
C609 C 0.27844 0.79581 0.45364 0.0
H610 H 0.20657 0.7563 0.55892 0.0
C611 C 0.27151 0.82704 0.72726 0.0
C612 C 0.25296 0.80529 0.77352 0.0
C613 C 0.27225 0.82019 0.65973 0.0
C614 C 0.22694 0.76695 0.5306 0.0
H615 H 0.26946 0.82213 0.20882 0.0
H616 H 0.28013 0.82332 0.32938 0.0
H617 H 0.20441 0.75064 0.43724 0.0
H618 H 0.22101 0.759 0.7847 0.0
H619 H 0.22247 0.74686 0.66622 0.0
H620 H 0.30084 0.81269 0.5473 0.0
C621 C 0.2647 0.80251 0.30653 0.0
C622 C 0.22572 0.76374 0.46063 0.0
C623 C 0.25861 0.80188 0.23753 0.0
C624 C 0.23553 0.77627 0.7506 0.0
C625 C 0.23628 0.76937 0.6826 0.0
C626 C 0.27967 0.79895 0.52381 0.0
C627 C 0.24924 0.77702 0.34635 0.0
C628 C 0.25138 0.77851 0.42116 0.0
C629 C 0.25451 0.79136 0.63628 0.0
C630 C 0.25383 0.78503 0.56298 0.0
H631 H 0.2066 0.72939 0.22434 0.0
H632 H 0.21772 0.73033 0.3435 0.0
H633 H 0.29863 0.80715 0.42479 0.0
H634 H 0.28533 0.84966 0.74287 0.0
H635 H 0.28612 0.8378 0.62547 0.0
C636 C 0.43583 0.24003 0.65551 0.0
C637 C 0.44614 0.22832 0.70505 0.0
C638 C 0.44058 0.23752 0.58748 0.0
C639 C 0.46823 0.24628 0.45166 0.0
H640 H 0.45787 0.17413 0.37377 0.0
C641 C 0.47551 0.23552 0.16459 0.0
C642 C 0.45427 0.2087 0.13646 0.0
C643 C 0.48001 0.23824 0.23435 0.0
C644 C 0.46074 0.19443 0.39467 0.0
H645 H 0.46893 0.2041 0.72205 0.0
H646 H 0.47777 0.20006 0.60193 0.0
H647 H 0.45399 0.17765 0.49554 0.0
H648 H 0.42127 0.16363 0.15921 0.0
H649 H 0.42817 0.16864 0.28029 0.0
H650 H 0.47306 0.26252 0.35123 0.0
C651 C 0.46574 0.21099 0.61619 0.0
C652 C 0.4589 0.19656 0.46465 0.0
C653 C 0.4607 0.21328 0.68486 0.0
C654 C 0.43794 0.18459 0.17928 0.0
C655 C 0.44213 0.18739 0.2489 0.0
C656 C 0.46972 0.24405 0.38189 0.0
C657 C 0.45612 0.22355 0.56682 0.0
C658 C 0.46178 0.22224 0.49376 0.0
C659 C 0.46302 0.21432 0.27755 0.0
C660 C 0.46528 0.21785 0.35223 0.0
H661 H 0.42411 0.25134 0.66929 0.0
H662 H 0.43196 0.24658 0.55097 0.0
H663 H 0.47132 0.26668 0.47249 0.0
H664 H 0.48851 0.25448 0.13286 0.0
H665 H 0.49663 0.2592 0.25439 0.0
loop_
_geom_bond_atom_site_label_1
_geom_bond_atom_site_label_2
_geom_bond_distance
_geom_bond_site_symmetry_2
_ccdc_geom_bond_type
Zn0 O6 1.920 . S
Zn0 O12 1.898 . S
Zn0 O15 1.905 . S
Zn1 O9 1.905 . S
Zn1 O10 1.898 . S
Zn1 O18 1.920 . S
Zn2 O5 2.080 . S
Zn2 O8 2.114 . S
Zn2 O11 2.120 . S
Zn2 O13 2.120 1_554 S
Zn2 O14 2.114 1_554 S
Zn2 O17 2.080 1_554 S
C3 O8 1.166 . S
C3 O9 1.182 . S
C4 O10 1.167 . S
C4 O11 1.299 . S
O5 Zn2 2.080 . S
O5 C19 1.305 1_554 S
O6 Zn0 1.920 . S
O6 C19 1.234 . S
C7 O12 1.167 . S
C7 O13 1.299 . S
O8 Zn2 2.114 . S
O8 C3 1.166 . S
O9 Zn1 1.905 . S
O9 C3 1.182 . S
O10 Zn1 1.898 . S
O10 C4 1.167 . S
O11 Zn2 2.120 . S
O11 C4 1.299 . S
O12 Zn0 1.898 . S
O12 C7 1.167 . S
O13 Zn2 2.120 1_556 S
O13 C7 1.299 . S
O14 Zn2 2.114 1_556 S
O14 C16 1.166 . S
O15 Zn0 1.905 . S
O15 C16 1.182 . S
C16 O14 1.166 . S
C16 O15 1.182 . S
O17 Zn2 2.080 1_556 S
O17 C20 1.305 1_556 S
O18 Zn1 1.920 . S
O18 C20 1.234 . S
C19 O5 1.305 1_556 S
C19 O6 1.234 . S
C20 O17 1.305 1_554 S
C20 O18 1.234 . S
Zn21 O27 1.920 . S
Zn21 O33 1.898 . S
Zn21 O36 1.905 . S
Zn22 O30 1.905 . S
Zn22 O31 1.898 . S
Zn22 O39 1.920 . S
Zn23 O26 2.080 . S
Zn23 O29 2.114 . S
Zn23 O32 2.120 . S
Zn23 O34 2.120 1_554 S
Zn23 O35 2.114 1_554 S
Zn23 O38 2.080 1_554 S
C24 O29 1.166 . S
C24 O30 1.182 . S
C25 O31 1.167 . S
C25 O32 1.299 . S
O26 Zn23 2.080 . S
O26 C40 1.305 1_554 S
O27 Zn21 1.920 . S
O27 C40 1.234 . S
C28 O33 1.167 . S
C28 O34 1.299 . S
O29 Zn23 2.114 . S
O29 C24 1.166 . S
O30 Zn22 1.905 . S
O30 C24 1.182 . S
O31 Zn22 1.898 . S
O31 C25 1.167 . S
O32 Zn23 2.120 . S
O32 C25 1.299 . S
O33 Zn21 1.898 . S
O33 C28 1.167 . S
O34 Zn23 2.120 1_556 S
O34 C28 1.299 . S
O35 Zn23 2.114 1_556 S
O35 C37 1.166 . S
O36 Zn21 1.905 . S
O36 C37 1.182 . S
C37 O35 1.166 . S
C37 O36 1.182 . S
O38 Zn23 2.080 1_556 S
O38 C41 1.305 1_556 S
O39 Zn22 1.920 . S
O39 C41 1.234 . S
C40 O26 1.305 1_556 S
C40 O27 1.234 . S
C41 O38 1.305 1_554 S
C41 O39 1.234 . S
Zn42 O48 1.920 . S
Zn42 O54 1.898 . S
Zn42 O57 1.905 . S
Zn43 O51 1.905 . S
Zn43 O52 1.898 . S
Zn43 O60 1.920 . S
Zn44 O47 2.080 1_554 S
Zn44 O50 2.114 1_554 S
Zn44 O53 2.120 1_554 S
Zn44 O55 2.120 . S
Zn44 O56 2.114 . S
Zn44 O59 2.080 . S
C45 O50 1.166 . S
C45 O51 1.182 . S
C46 O52 1.167 . S
C46 O53 1.299 . S
O47 Zn44 2.080 1_556 S
O47 C61 1.305 1_556 S
O48 Zn42 1.920 . S
O48 C61 1.234 . S
C49 O54 1.167 . S
C49 O55 1.299 . S
O50 Zn44 2.114 1_556 S
O50 C45 1.166 . S
O51 Zn43 1.905 . S
O51 C45 1.182 . S
O52 Zn43 1.898 . S
O52 C46 1.167 . S
O53 Zn44 2.120 1_556 S
O53 C46 1.299 . S
O54 Zn42 1.898 . S
O54 C49 1.167 . S
O55 Zn44 2.120 . S
O55 C49 1.299 . S
O56 Zn44 2.114 . S
O56 C58 1.166 . S
O57 Zn42 1.905 . S
O57 C58 1.182 . S
C58 O56 1.166 . S
C58 O57 1.182 . S
O59 Zn44 2.080 . S
O59 C62 1.305 1_554 S
O60 Zn43 1.920 . S
O60 C62 1.234 . S
C61 O47 1.305 1_554 S
C61 O48 1.234 . S
C62 O59 1.305 1_556 S
C62 O60 1.234 . S
Zn63 O69 1.920 . S
Zn63 O75 1.898 . S
Zn63 O78 1.905 . S
Zn64 O72 1.905 . S
Zn64 O73 1.898 . S
Zn64 O81 1.920 . S
Zn65 O68 2.080 1_554 S
Zn65 O71 2.114 1_554 S
Zn65 O74 2.120 1_554 S
Zn65 O76 2.120 . S
Zn65 O77 2.114 . S
Zn65 O80 2.080 . S
C66 O71 1.166 . S
C66 O72 1.182 . S
C67 O73 1.167 . S
C67 O74 1.299 . S
O68 Zn65 2.080 1_556 S
O68 C82 1.305 1_556 S
O69 Zn63 1.920 . S
O69 C82 1.234 . S
C70 O75 1.167 . S
C70 O76 1.299 . S
O71 Zn65 2.114 1_556 S
O71 C66 1.166 . S
O72 Zn64 1.905 . S
O72 C66 1.182 . S
O73 Zn64 1.898 . S
O73 C67 1.167 . S
O74 Zn65 2.120 1_556 S
O74 C67 1.299 . S
O75 Zn63 1.898 . S
O75 C70 1.167 . S
O76 Zn65 2.120 . S
O76 C70 1.299 . S
O77 Zn65 2.114 . S
O77 C79 1.166 . S
O78 Zn63 1.905 . S
O78 C79 1.182 . S
C79 O77 1.166 . S
C79 O78 1.182 . S
O80 Zn65 2.080 . S
O80 C83 1.305 1_554 S
O81 Zn64 1.920 . S
O81 C83 1.234 . S
C82 O68 1.305 1_554 S
C82 O69 1.234 . S
C83 O80 1.305 1_556 S
C83 O81 1.234 . S
Zn84 O90 1.920 . S
Zn84 O96 1.898 . S
Zn84 O99 1.905 . S
Zn85 O93 1.905 . S
Zn85 O94 1.898 . S
Zn85 O102 1.920 . S
Zn86 O89 2.080 1_554 S
Zn86 O92 2.114 1_554 S
Zn86 O95 2.120 1_554 S
Zn86 O97 2.120 . S
Zn86 O98 2.114 . S
Zn86 O101 2.080 . S
C87 O92 1.166 . S
C87 O93 1.182 . S
C88 O94 1.167 . S
C88 O95 1.299 . S
O89 Zn86 2.080 1_556 S
O89 C103 1.305 1_556 S
O90 Zn84 1.920 . S
O90 C103 1.234 . S
C91 O96 1.167 . S
C91 O97 1.299 . S
O92 Zn86 2.114 1_556 S
O92 C87 1.166 . S
O93 Zn85 1.905 . S
O93 C87 1.182 . S
O94 Zn85 1.898 . S
O94 C88 1.167 . S
O95 Zn86 2.120 1_556 S
O95 C88 1.299 . S
O96 Zn84 1.898 . S
O96 C91 1.167 . S
O97 Zn86 2.120 . S
O97 C91 1.299 . S
O98 Zn86 2.114 . S
O98 C100 1.166 . S
O99 Zn84 1.905 . S
O99 C100 1.182 . S
C100 O98 1.166 . S
C100 O99 1.182 . S
O101 Zn86 2.080 . S
O101 C104 1.305 1_554 S
O102 Zn85 1.920 . S
O102 C104 1.234 . S
C103 O89 1.305 1_554 S
C103 O90 1.234 . S
C104 O101 1.305 1_556 S
C104 O102 1.234 . S
Zn105 O111 1.920 . S
Zn105 O117 1.898 . S
Zn105 O120 1.905 . S
Zn106 O114 1.905 . S
Zn106 O115 1.898 . S
Zn106 O123 1.920 . S
Zn107 O110 2.080 . S
Zn107 O113 2.114 . S
Zn107 O116 2.120 . S
Zn107 O118 2.120 1_554 S
Zn107 O119 2.114 1_554 S
Zn107 O122 2.080 1_554 S
C108 O113 1.166 . S
C108 O114 1.182 . S
C109 O115 1.167 . S
C109 O116 1.299 . S
O110 Zn107 2.080 . S
O110 C124 1.305 1_554 S
O111 Zn105 1.920 . S
O111 C124 1.234 . S
C112 O117 1.167 . S
C112 O118 1.299 . S
O113 Zn107 2.114 . S
O113 C108 1.166 . S
O114 Zn106 1.905 . S
O114 C108 1.182 . S
O115 Zn106 1.898 . S
O115 C109 1.167 . S
O116 Zn107 2.120 . S
O116 C109 1.299 . S
O117 Zn105 1.898 . S
O117 C112 1.167 . S
O118 Zn107 2.120 1_556 S
O118 C112 1.299 . S
O119 Zn107 2.114 1_556 S
O119 C121 1.166 . S
O120 Zn105 1.905 . S
O120 C121 1.182 . S
C121 O119 1.166 . S
C121 O120 1.182 . S
O122 Zn107 2.080 1_556 S
O122 C125 1.305 1_556 S
O123 Zn106 1.920 . S
O123 C125 1.234 . S
C124 O110 1.305 1_556 S
C124 O111 1.234 . S
C125 O122 1.305 1_554 S
C125 O123 1.234 . S
C126 C127 1.349 . S
C126 C128 1.327 . S
C126 H151 0.950 . S
C127 C126 1.349 . S
C127 C143 1.349 1_554 S
C128 C126 1.327 . S
C128 C147 1.429 . S
C128 H152 0.950 . S
C129 C146 1.574 . S
C129 C148 1.368 1_556 S
C129 H153 0.949 . S
H130 C134 0.949 . S
C131 C132 1.349 . S
C131 C133 1.327 . S
C131 H154 0.950 . S
C132 C131 1.349 . S
C132 C144 1.349 1_556 S
C133 C131 1.327 . S
C133 C149 1.429 . S
C133 H155 0.950 . S
C134 H130 0.949 . S
C134 C142 1.574 . S
C134 C150 1.368 1_554 S
H135 C143 0.950 . S
H136 C141 0.950 . S
H137 C142 0.949 . S
H138 C144 0.950 . S
H139 C145 0.950 . S
H140 C146 0.949 . S
C141 H136 0.950 . S
C141 C143 1.327 . S
C141 C147 1.429 1_556 S
C142 C134 1.574 . S
C142 H137 0.949 . S
C142 C148 1.368 . S
C143 C127 1.349 1_556 S
C143 H135 0.950 . S
C143 C141 1.327 . S
C144 C132 1.349 1_554 S
C144 H138 0.950 . S
C144 C145 1.327 . S
C145 H139 0.950 . S
C145 C144 1.327 . S
C145 C149 1.429 1_554 S
C146 C129 1.574 . S
C146 H140 0.949 . S
C146 C150 1.368 . S
C147 C128 1.429 . S
C147 C141 1.429 1_554 S
C147 C148 1.523 . S
C148 C129 1.368 1_554 S
C148 C142 1.368 . S
C148 C147 1.523 . S
C149 C133 1.429 . S
C149 C145 1.429 1_556 S
C149 C150 1.523 . S
C150 C134 1.368 1_556 S
C150 C146 1.368 . S
C150 C149 1.523 . S
H151 C126 0.950 . S
H152 C128 0.950 . S
H153 C129 0.949 . S
H154 C131 0.950 . S
H155 C133 0.950 . S
C156 C157 1.349 . S
C156 C158 1.327 . S
C156 H181 0.950 . S
C157 C156 1.349 . S
C157 C173 1.349 1_554 S
C158 C156 1.327 . S
C158 C177 1.429 . S
C158 H182 0.950 . S
C159 C176 1.574 1_455 S
C159 C178 1.368 1_556 S
C159 H183 0.949 . S
H160 C164 0.949 . S
C161 C162 1.349 . S
C161 C163 1.327 . S
C161 H184 0.950 . S
C162 C161 1.349 . S
C162 C174 1.349 1_556 S
C163 C161 1.327 . S
C163 C179 1.429 . S
C163 H185 0.950 . S
C164 H160 0.949 . S
C164 C172 1.574 1_655 S
C164 C180 1.368 1_554 S
H165 C173 0.950 . S
H166 C171 0.950 . S
H167 C172 0.949 . S
H168 C174 0.950 . S
H169 C175 0.950 . S
H170 C176 0.949 . S
C171 H166 0.950 . S
C171 C173 1.327 . S
C171 C177 1.429 1_556 S
C172 C164 1.574 1_455 S
C172 H167 0.949 . S
C172 C178 1.368 . S
C173 C157 1.349 1_556 S
C173 H165 0.950 . S
C173 C171 1.327 . S
C174 C162 1.349 1_554 S
C174 H168 0.950 . S
C174 C175 1.327 . S
C175 H169 0.950 . S
C175 C174 1.327 . S
C175 C179 1.429 1_554 S
C176 C159 1.574 1_655 S
C176 H170 0.949 . S
C176 C180 1.368 . S
C177 C158 1.429 . S
C177 C171 1.429 1_554 S
C177 C178 1.523 . S
C178 C159 1.368 1_554 S
C178 C172 1.368 . S
C178 C177 1.523 . S
C179 C163 1.429 . S
C179 C175 1.429 1_556 S
C179 C180 1.523 . S
C180 C164 1.368 1_556 S
C180 C176 1.368 . S
C180 C179 1.523 . S
H181 C156 0.950 . S
H182 C158 0.950 . S
H183 C159 0.949 . S
H184 C161 0.950 . S
H185 C163 0.950 . S
C186 C187 1.349 . S
C186 C188 1.327 . S
C186 H211 0.950 . S
C187 C186 1.349 . S
C187 C203 1.349 1_554 S
C188 C186 1.327 . S
C188 C207 1.429 . S
C188 H212 0.950 . S
C189 C206 1.574 1_545 S
C189 C208 1.368 1_556 S
C189 H213 0.949 . S
H190 C194 0.949 . S
C191 C192 1.349 . S
C191 C193 1.327 . S
C191 H214 0.950 . S
C192 C191 1.349 . S
C192 C204 1.349 1_556 S
C193 C191 1.327 . S
C193 C209 1.429 . S
C193 H215 0.950 . S
C194 H190 0.949 . S
C194 C202 1.574 1_565 S
C194 C210 1.368 1_554 S
H195 C203 0.950 . S
H196 C201 0.950 . S
H197 C202 0.949 . S
H198 C204 0.950 . S
H199 C205 0.950 . S
H200 C206 0.949 . S
C201 H196 0.950 . S
C201 C203 1.327 . S
C201 C207 1.429 1_556 S
C202 C194 1.574 1_545 S
C202 H197 0.949 . S
C202 C208 1.368 . S
C203 C187 1.349 1_556 S
C203 H195 0.950 . S
C203 C201 1.327 . S
C204 C192 1.349 1_554 S
C204 H198 0.950 . S
C204 C205 1.327 . S
C205 H199 0.950 . S
C205 C204 1.327 . S
C205 C209 1.429 1_554 S
C206 C189 1.574 1_565 S
C206 H200 0.949 . S
C206 C210 1.368 . S
C207 C188 1.429 . S
C207 C201 1.429 1_554 S
C207 C208 1.523 . S
C208 C189 1.368 1_554 S
C208 C202 1.368 . S
C208 C207 1.523 . S
C209 C193 1.429 . S
C209 C205 1.429 1_556 S
C209 C210 1.523 . S
C210 C194 1.368 1_556 S
C210 C206 1.368 . S
C210 C209 1.523 . S
H211 C186 0.950 . S
H212 C188 0.950 . S
H213 C189 0.949 . S
H214 C191 0.950 . S
H215 C193 0.950 . S
C216 C217 1.349 1_554 S
C216 C218 1.327 . S
C216 H241 0.950 . S
C217 C216 1.349 1_556 S
C217 C233 1.349 . S
C218 C216 1.327 . S
C218 C237 1.429 1_554 S
C218 H242 0.950 . S
C219 C236 1.574 . S
C219 C238 1.368 . S
C219 H243 0.949 . S
H220 C224 0.949 . S
C221 C222 1.349 1_556 S
C221 C223 1.327 . S
C221 H244 0.950 . S
C222 C221 1.349 1_554 S
C222 C234 1.349 . S
C223 C221 1.327 . S
C223 C239 1.429 1_556 S
C223 H245 0.950 . S
C224 H220 0.949 . S
C224 C232 1.574 . S
C224 C240 1.368 . S
H225 C233 0.950 . S
H226 C231 0.950 . S
H227 C232 0.949 . S
H228 C234 0.950 . S
H229 C235 0.950 . S
H230 C236 0.949 . S
C231 H226 0.950 . S
C231 C233 1.327 . S
C231 C237 1.429 . S
C232 C224 1.574 . S
C232 H227 0.949 . S
C232 C238 1.368 1_554 S
C233 C217 1.349 . S
C233 H225 0.950 . S
C233 C231 1.327 . S
C234 C222 1.349 . S
C234 H228 0.950 . S
C234 C235 1.327 . S
C235 H229 0.950 . S
C235 C234 1.327 . S
C235 C239 1.429 . S
C236 C219 1.574 . S
C236 H230 0.949 . S
C236 C240 1.368 1_556 S
C237 C218 1.429 1_556 S
C237 C231 1.429 . S
C237 C238 1.523 . S
C238 C219 1.368 . S
C238 C232 1.368 1_556 S
C238 C237 1.523 . S
C239 C223 1.429 1_554 S
C239 C235 1.429 . S
C239 C240 1.523 . S
C240 C224 1.368 . S
C240 C236 1.368 1_554 S
C240 C239 1.523 . S
H241 C216 0.950 . S
H242 C218 0.950 . S
H243 C219 0.949 . S
H244 C221 0.950 . S
H245 C223 0.950 . S
C246 C247 1.349 1_554 S
C246 C248 1.327 . S
C246 H271 0.950 . S
C247 C246 1.349 1_556 S
C247 C263 1.349 . S
C248 C246 1.327 . S
C248 C267 1.429 1_554 S
C248 H272 0.950 . S
C249 C266 1.574 1_455 S
C249 C268 1.368 . S
C249 H273 0.949 . S
H250 C254 0.949 . S
C251 C252 1.349 1_556 S
C251 C253 1.327 . S
C251 H274 0.950 . S
C252 C251 1.349 1_554 S
C252 C264 1.349 . S
C253 C251 1.327 . S
C253 C269 1.429 1_556 S
C253 H275 0.950 . S
C254 H250 0.949 . S
C254 C262 1.574 1_655 S
C254 C270 1.368 . S
H255 C263 0.950 . S
H256 C261 0.950 . S
H257 C262 0.949 . S
H258 C264 0.950 . S
H259 C265 0.950 . S
H260 C266 0.949 . S
C261 H256 0.950 . S
C261 C263 1.327 . S
C261 C267 1.429 . S
C262 C254 1.574 1_455 S
C262 H257 0.949 . S
C262 C268 1.368 1_554 S
C263 C247 1.349 . S
C263 H255 0.950 . S
C263 C261 1.327 . S
C264 C252 1.349 . S
C264 H258 0.950 . S
C264 C265 1.327 . S
C265 H259 0.950 . S
C265 C264 1.327 . S
C265 C269 1.429 . S
C266 C249 1.574 1_655 S
C266 H260 0.949 . S
C266 C270 1.368 1_556 S
C267 C248 1.429 1_556 S
C267 C261 1.429 . S
C267 C268 1.523 . S
C268 C249 1.368 . S
C268 C262 1.368 1_556 S
C268 C267 1.523 . S
C269 C253 1.429 1_554 S
C269 C265 1.429 . S
C269 C270 1.523 . S
C270 C254 1.368 . S
C270 C266 1.368 1_554 S
C270 C269 1.523 . S
H271 C246 0.950 . S
H272 C248 0.950 . S
H273 C249 0.949 . S
H274 C251 0.950 . S
H275 C253 0.950 . S
C276 C277 1.349 . S
C276 C278 1.327 . S
C276 H301 0.950 . S
C277 C276 1.349 . S
C277 C293 1.349 1_554 S
C278 C276 1.327 . S
C278 C297 1.429 . S
C278 H302 0.950 . S
C279 C296 1.574 1_565 S
C279 C298 1.368 1_556 S
C279 H303 0.949 . S
H280 C284 0.949 . S
C281 C282 1.349 . S
C281 C283 1.327 . S
C281 H304 0.950 . S
C282 C281 1.349 . S
C282 C294 1.349 1_556 S
C283 C281 1.327 . S
C283 C299 1.429 . S
C283 H305 0.950 . S
C284 H280 0.949 . S
C284 C292 1.574 1_545 S
C284 C300 1.368 1_554 S
H285 C293 0.950 . S
H286 C291 0.950 . S
H287 C292 0.949 . S
H288 C294 0.950 . S
H289 C295 0.950 . S
H290 C296 0.949 . S
C291 H286 0.950 . S
C291 C293 1.327 . S
C291 C297 1.429 1_556 S
C292 C284 1.574 1_565 S
C292 H287 0.949 . S
C292 C298 1.368 . S
C293 C277 1.349 1_556 S
C293 H285 0.950 . S
C293 C291 1.327 . S
C294 C282 1.349 1_554 S
C294 H288 0.950 . S
C294 C295 1.327 . S
C295 H289 0.950 . S
C295 C294 1.327 . S
C295 C299 1.429 1_554 S
C296 C279 1.574 1_545 S
C296 H290 0.949 . S
C296 C300 1.368 . S
C297 C278 1.429 . S
C297 C291 1.429 1_554 S
C297 C298 1.523 . S
C298 C279 1.368 1_554 S
C298 C292 1.368 . S
C298 C297 1.523 . S
C299 C283 1.429 . S
C299 C295 1.429 1_556 S
C299 C300 1.523 . S
C300 C284 1.368 1_556 S
C300 C296 1.368 . S
C300 C299 1.523 . S
H301 C276 0.950 . S
H302 C278 0.950 . S
H303 C279 0.949 . S
H304 C281 0.950 . S
H305 C283 0.950 . S
C306 C307 1.349 . S
C306 C308 1.327 . S
C306 H331 0.950 . S
C307 C306 1.349 . S
C307 C323 1.349 1_554 S
C308 C306 1.327 . S
C308 C327 1.429 . S
C308 H332 0.950 . S
C309 C326 1.574 . S
C309 C328 1.368 1_556 S
C309 H333 0.949 . S
H310 C314 0.949 . S
C311 C312 1.349 . S
C311 C313 1.327 . S
C311 H334 0.950 . S
C312 C311 1.349 . S
C312 C324 1.349 1_556 S
C313 C311 1.327 . S
C313 C329 1.429 . S
C313 H335 0.950 . S
C314 H310 0.949 . S
C314 C322 1.574 . S
C314 C330 1.368 1_554 S
H315 C323 0.950 . S
H316 C321 0.950 . S
H317 C322 0.949 . S
H318 C324 0.950 . S
H319 C325 0.950 . S
H320 C326 0.949 . S
C321 H316 0.950 . S
C321 C323 1.327 . S
C321 C327 1.429 1_556 S
C322 C314 1.574 . S
C322 H317 0.949 . S
C322 C328 1.368 . S
C323 C307 1.349 1_556 S
C323 H315 0.950 . S
C323 C321 1.327 . S
C324 C312 1.349 1_554 S
C324 H318 0.950 . S
C324 C325 1.327 . S
C325 H319 0.950 . S
C325 C324 1.327 . S
C325 C329 1.429 1_554 S
C326 C309 1.574 . S
C326 H320 0.949 . S
C326 C330 1.368 . S
C327 C308 1.429 . S
C327 C321 1.429 1_554 S
C327 C328 1.523 . S
C328 C309 1.368 1_554 S
C328 C322 1.368 . S
C328 C327 1.523 . S
C329 C313 1.429 . S
C329 C325 1.429 1_556 S
C329 C330 1.523 . S
C330 C314 1.368 1_556 S
C330 C326 1.368 . S
C330 C329 1.523 . S
H331 C306 0.950 . S
H332 C308 0.950 . S
H333 C309 0.949 . S
H334 C311 0.950 . S
H335 C313 0.950 . S
C336 C337 1.349 1_556 S
C336 C338 1.327 . S
C336 H361 0.950 . S
C337 C336 1.349 1_554 S
C337 C353 1.349 . S
C338 C336 1.327 . S
C338 C357 1.429 1_556 S
C338 H362 0.950 . S
C339 C356 1.574 . S
C339 C358 1.368 . S
C339 H363 0.949 . S
H340 C344 0.949 . S
C341 C342 1.349 1_554 S
C341 C343 1.327 . S
C341 H364 0.950 . S
C342 C341 1.349 1_556 S
C342 C354 1.349 . S
C343 C341 1.327 . S
C343 C359 1.429 1_554 S
C343 H365 0.950 . S
C344 H340 0.949 . S
C344 C352 1.574 . S
C344 C360 1.368 . S
H345 C353 0.950 . S
H346 C351 0.950 . S
H347 C352 0.949 . S
H348 C354 0.950 . S
H349 C355 0.950 . S
H350 C356 0.949 . S
C351 H346 0.950 . S
C351 C353 1.327 . S
C351 C357 1.429 . S
C352 C344 1.574 . S
C352 H347 0.949 . S
C352 C358 1.368 1_556 S
C353 C337 1.349 . S
C353 H345 0.950 . S
C353 C351 1.327 . S
C354 C342 1.349 . S
C354 H348 0.950 . S
C354 C355 1.327 . S
C355 H349 0.950 . S
C355 C354 1.327 . S
C355 C359 1.429 . S
C356 C339 1.574 . S
C356 H350 0.949 . S
C356 C360 1.368 1_554 S
C357 C338 1.429 1_554 S
C357 C351 1.429 . S
C357 C358 1.523 . S
C358 C339 1.368 . S
C358 C352 1.368 1_554 S
C358 C357 1.523 . S
C359 C343 1.429 1_556 S
C359 C355 1.429 . S
C359 C360 1.523 . S
C360 C344 1.368 . S
C360 C356 1.368 1_556 S
C360 C359 1.523 . S
H361 C336 0.950 . S
H362 C338 0.950 . S
H363 C339 0.949 . S
H364 C341 0.950 . S
H365 C343 0.950 . S
C366 C367 1.349 . S
C366 C368 1.327 . S
C366 H391 0.950 . S
C367 C366 1.349 . S
C367 C383 1.349 1_556 S
C368 C366 1.327 . S
C368 C387 1.429 . S
C368 H392 0.950 . S
C369 C386 1.574 . S
C369 C388 1.368 1_554 S
C369 H393 0.949 . S
H370 C374 0.949 . S
C371 C372 1.349 . S
C371 C373 1.327 . S
C371 H394 0.950 . S
C372 C371 1.349 . S
C372 C384 1.349 1_554 S
C373 C371 1.327 . S
C373 C389 1.429 . S
C373 H395 0.950 . S
C374 H370 0.949 . S
C374 C382 1.574 . S
C374 C390 1.368 1_556 S
H375 C383 0.950 . S
H376 C381 0.950 . S
H377 C382 0.949 . S
H378 C384 0.950 . S
H379 C385 0.950 . S
H380 C386 0.949 . S
C381 H376 0.950 . S
C381 C383 1.327 . S
C381 C387 1.429 1_554 S
C382 C374 1.574 . S
C382 H377 0.949 . S
C382 C388 1.368 . S
C383 C367 1.349 1_554 S
C383 H375 0.950 . S
C383 C381 1.327 . S
C384 C372 1.349 1_556 S
C384 H378 0.950 . S
C384 C385 1.327 . S
C385 H379 0.950 . S
C385 C384 1.327 . S
C385 C389 1.429 1_556 S
C386 C369 1.574 . S
C386 H380 0.949 . S
C386 C390 1.368 . S
C387 C368 1.429 . S
C387 C381 1.429 1_556 S
C387 C388 1.523 . S
C388 C369 1.368 1_556 S
C388 C382 1.368 . S
C388 C387 1.523 . S
C389 C373 1.429 . S
C389 C385 1.429 1_554 S
C389 C390 1.523 . S
C390 C374 1.368 1_554 S
C390 C386 1.368 . S
C390 C389 1.523 . S
H391 C366 0.950 . S
H392 C368 0.950 . S
H393 C369 0.949 . S
H394 C371 0.950 . S
H395 C373 0.950 . S
C396 C397 1.349 . S
C396 C398 1.327 . S
C396 H421 0.950 . S
C397 C396 1.349 . S
C397 C413 1.349 1_556 S
C398 C396 1.327 . S
C398 C417 1.429 . S
C398 H422 0.950 . S
C399 C416 1.574 . S
C399 C418 1.368 1_554 S
C399 H423 0.949 . S
H400 C404 0.949 . S
C401 C402 1.349 . S
C401 C403 1.327 . S
C401 H424 0.950 . S
C402 C401 1.349 . S
C402 C414 1.349 1_554 S
C403 C401 1.327 . S
C403 C419 1.429 . S
C403 H425 0.950 . S
C404 H400 0.949 . S
C404 C412 1.574 . S
C404 C420 1.368 1_556 S
H405 C413 0.950 . S
H406 C411 0.950 . S
H407 C412 0.949 . S
H408 C414 0.950 . S
H409 C415 0.950 . S
H410 C416 0.949 . S
C411 H406 0.950 . S
C411 C413 1.327 . S
C411 C417 1.429 1_554 S
C412 C404 1.574 . S
C412 H407 0.949 . S
C412 C418 1.368 . S
C413 C397 1.349 1_554 S
C413 H405 0.950 . S
C413 C411 1.327 . S
C414 C402 1.349 1_556 S
C414 H408 0.950 . S
C414 C415 1.327 . S
C415 H409 0.950 . S
C415 C414 1.327 . S
C415 C419 1.429 1_556 S
C416 C399 1.574 . S
C416 H410 0.949 . S
C416 C420 1.368 . S
C417 C398 1.429 . S
C417 C411 1.429 1_556 S
C417 C418 1.523 . S
C418 C399 1.368 1_556 S
C418 C412 1.368 . S
C418 C417 1.523 . S
C419 C403 1.429 . S
C419 C415 1.429 1_554 S
C419 C420 1.523 . S
C420 C404 1.368 1_554 S
C420 C416 1.368 . S
C420 C419 1.523 . S
H421 C396 0.950 . S
H422 C398 0.950 . S
H423 C399 0.949 . S
H424 C401 0.950 . S
H425 C403 0.950 . S
C426 C427 1.349 . S
C426 C428 1.327 . S
C426 H451 0.950 . S
C427 C426 1.349 . S
C427 C443 1.349 1_556 S
C428 C426 1.327 . S
C428 C447 1.429 . S
C428 H452 0.950 . S
C429 C446 1.574 . S
C429 C448 1.368 1_554 S
C429 H453 0.949 . S
H430 C434 0.949 . S
C431 C432 1.349 . S
C431 C433 1.327 . S
C431 H454 0.950 . S
C432 C431 1.349 . S
C432 C444 1.349 1_554 S
C433 C431 1.327 . S
C433 C449 1.429 . S
C433 H455 0.950 . S
C434 H430 0.949 . S
C434 C442 1.574 . S
C434 C450 1.368 1_556 S
H435 C443 0.950 . S
H436 C441 0.950 . S
H437 C442 0.949 . S
H438 C444 0.950 . S
H439 C445 0.950 . S
H440 C446 0.949 . S
C441 H436 0.950 . S
C441 C443 1.327 . S
C441 C447 1.429 1_554 S
C442 C434 1.574 . S
C442 H437 0.949 . S
C442 C448 1.368 . S
C443 C427 1.349 1_554 S
C443 H435 0.950 . S
C443 C441 1.327 . S
C444 C432 1.349 1_556 S
C444 H438 0.950 . S
C444 C445 1.327 . S
C445 H439 0.950 . S
C445 C444 1.327 . S
C445 C449 1.429 1_556 S
C446 C429 1.574 . S
C446 H440 0.949 . S
C446 C450 1.368 . S
C447 C428 1.429 . S
C447 C441 1.429 1_556 S
C447 C448 1.523 . S
C448 C429 1.368 1_556 S
C448 C442 1.368 . S
C448 C447 1.523 . S
C449 C433 1.429 . S
C449 C445 1.429 1_554 S
C449 C450 1.523 . S
C450 C434 1.368 1_554 S
C450 C446 1.368 . S
C450 C449 1.523 . S
H451 C426 0.950 . S
H452 C428 0.950 . S
H453 C429 0.949 . S
H454 C431 0.950 . S
H455 C433 0.950 . S
C456 C457 1.349 . S
C456 C458 1.327 . S
C456 H481 0.950 . S
C457 C456 1.349 . S
C457 C473 1.349 1_554 S
C458 C456 1.327 . S
C458 C477 1.429 . S
C458 H482 0.950 . S
C459 C476 1.574 . S
C459 C478 1.368 1_556 S
C459 H483 0.949 . S
H460 C464 0.949 . S
C461 C462 1.349 . S
C461 C463 1.327 . S
C461 H484 0.950 . S
C462 C461 1.349 . S
C462 C474 1.349 1_556 S
C463 C461 1.327 . S
C463 C479 1.429 . S
C463 H485 0.950 . S
C464 H460 0.949 . S
C464 C472 1.574 . S
C464 C480 1.368 1_554 S
H465 C473 0.950 . S
H466 C471 0.950 . S
H467 C472 0.949 . S
H468 C474 0.950 . S
H469 C475 0.950 . S
H470 C476 0.949 . S
C471 H466 0.950 . S
C471 C473 1.327 . S
C471 C477 1.429 1_556 S
C472 C464 1.574 . S
C472 H467 0.949 . S
C472 C478 1.368 . S
C473 C457 1.349 1_556 S
C473 H465 0.950 . S
C473 C471 1.327 . S
C474 C462 1.349 1_554 S
C474 H468 0.950 . S
C474 C475 1.327 . S
C475 H469 0.950 . S
C475 C474 1.327 . S
C475 C479 1.429 1_554 S
C476 C459 1.574 . S
C476 H470 0.949 . S
C476 C480 1.368 . S
C477 C458 1.429 . S
C477 C471 1.429 1_554 S
C477 C478 1.523 . S
C478 C459 1.368 1_554 S
C478 C472 1.368 . S
C478 C477 1.523 . S
C479 C463 1.429 . S
C479 C475 1.429 1_556 S
C479 C480 1.523 . S
C480 C464 1.368 1_556 S
C480 C476 1.368 . S
C480 C479 1.523 . S
H481 C456 0.950 . S
H482 C458 0.950 . S
H483 C459 0.949 . S
H484 C461 0.950 . S
H485 C463 0.950 . S
C486 C487 1.349 . S
C486 C488 1.327 . S
C486 H511 0.950 . S
C487 C486 1.349 . S
C487 C503 1.349 . S
C488 C486 1.327 . S
C488 C507 1.429 . S
C488 H512 0.950 . S
C489 C506 1.574 . S
C489 C508 1.368 . S
C489 H513 0.949 . S
H490 C494 0.949 . S
C491 C492 1.349 . S
C491 C493 1.327 . S
C491 H514 0.950 . S
C492 C491 1.349 . S
C492 C504 1.349 . S
C493 C491 1.327 . S
C493 C509 1.429 . S
C493 H515 0.950 . S
C494 H490 0.949 . S
C494 C502 1.574 . S
C494 C510 1.368 . S
H495 C503 0.950 . S
H496 C501 0.950 . S
H497 C502 0.949 . S
H498 C504 0.950 . S
H499 C505 0.950 . S
H500 C506 0.949 . S
C501 H496 0.950 . S
C501 C503 1.327 . S
C501 C507 1.429 . S
C502 C494 1.574 . S
C502 H497 0.949 . S
C502 C508 1.368 . S
C503 C487 1.349 . S
C503 H495 0.950 . S
C503 C501 1.327 . S
C504 C492 1.349 . S
C504 H498 0.950 . S
C504 C505 1.327 . S
C505 H499 0.950 . S
C505 C504 1.327 . S
C505 C509 1.429 . S
C506 C489 1.574 . S
C506 H500 0.949 . S
C506 C510 1.368 . S
C507 C488 1.429 . S
C507 C501 1.429 . S
C507 C508 1.523 . S
C508 C489 1.368 . S
C508 C502 1.368 . S
C508 C507 1.523 . S
C509 C493 1.429 . S
C509 C505 1.429 . S
C509 C510 1.523 . S
C510 C494 1.368 . S
C510 C506 1.368 . S
C510 C509 1.523 . S
H511 C486 0.950 . S
H512 C488 0.950 . S
H513 C489 0.949 . S
H514 C491 0.950 . S
H515 C493 0.950 . S
C516 C517 1.349 . S
C516 C518 1.327 . S
C516 H541 0.950 . S
C517 C516 1.349 . S
C517 C533 1.349 . S
C518 C516 1.327 . S
C518 C537 1.429 . S
C518 H542 0.950 . S
C519 C536 1.574 . S
C519 C538 1.368 . S
C519 H543 0.949 . S
H520 C524 0.949 . S
C521 C522 1.349 . S
C521 C523 1.327 . S
C521 H544 0.950 . S
C522 C521 1.349 . S
C522 C534 1.349 . S
C523 C521 1.327 . S
C523 C539 1.429 . S
C523 H545 0.950 . S
C524 H520 0.949 . S
C524 C532 1.574 . S
C524 C540 1.368 . S
H525 C533 0.950 . S
H526 C531 0.950 . S
H527 C532 0.949 . S
H528 C534 0.950 . S
H529 C535 0.950 . S
H530 C536 0.949 . S
C531 H526 0.950 . S
C531 C533 1.327 . S
C531 C537 1.429 . S
C532 C524 1.574 . S
C532 H527 0.949 . S
C532 C538 1.368 . S
C533 C517 1.349 . S
C533 H525 0.950 . S
C533 C531 1.327 . S
C534 C522 1.349 . S
C534 H528 0.950 . S
C534 C535 1.327 . S
C535 H529 0.950 . S
C535 C534 1.327 . S
C535 C539 1.429 . S
C536 C519 1.574 . S
C536 H530 0.949 . S
C536 C540 1.368 . S
C537 C518 1.429 . S
C537 C531 1.429 . S
C537 C538 1.523 . S
C538 C519 1.368 . S
C538 C532 1.368 . S
C538 C537 1.523 . S
C539 C523 1.429 . S
C539 C535 1.429 . S
C539 C540 1.523 . S
C540 C524 1.368 . S
C540 C536 1.368 . S
C540 C539 1.523 . S
H541 C516 0.950 . S
H542 C518 0.950 . S
H543 C519 0.949 . S
H544 C521 0.950 . S
H545 C523 0.950 . S
C546 C547 1.349 . S
C546 C548 1.327 . S
C546 H571 0.950 . S
C547 C546 1.349 . S
C547 C563 1.349 . S
C548 C546 1.327 . S
C548 C567 1.429 . S
C548 H572 0.950 . S
C549 C566 1.574 . S
C549 C568 1.368 . S
C549 H573 0.949 . S
H550 C554 0.949 . S
C551 C552 1.349 . S
C551 C553 1.327 . S
C551 H574 0.950 . S
C552 C551 1.349 . S
C552 C564 1.349 . S
C553 C551 1.327 . S
C553 C569 1.429 . S
C553 H575 0.950 . S
C554 H550 0.949 . S
C554 C562 1.574 . S
C554 C570 1.368 . S
H555 C563 0.950 . S
H556 C561 0.950 . S
H557 C562 0.949 . S
H558 C564 0.950 . S
H559 C565 0.950 . S
H560 C566 0.949 . S
C561 H556 0.950 . S
C561 C563 1.327 . S
C561 C567 1.429 . S
C562 C554 1.574 . S
C562 H557 0.949 . S
C562 C568 1.368 . S
C563 C547 1.349 . S
C563 H555 0.950 . S
C563 C561 1.327 . S
C564 C552 1.349 . S
C564 H558 0.950 . S
C564 C565 1.327 . S
C565 H559 0.950 . S
C565 C564 1.327 . S
C565 C569 1.429 . S
C566 C549 1.574 . S
C566 H560 0.949 . S
C566 C570 1.368 . S
C567 C548 1.429 . S
C567 C561 1.429 . S
C567 C568 1.523 . S
C568 C549 1.368 . S
C568 C562 1.368 . S
C568 C567 1.523 . S
C569 C553 1.429 . S
C569 C565 1.429 . S
C569 C570 1.523 . S
C570 C554 1.368 . S
C570 C566 1.368 . S
C570 C569 1.523 . S
H571 C546 0.950 . S
H572 C548 0.950 . S
H573 C549 0.949 . S
H574 C551 0.950 . S
H575 C553 0.950 . S
C576 C577 1.349 . S
C576 C578 1.327 . S
C576 H601 0.950 . S
C577 C576 1.349 . S
C577 C593 1.349 . S
C578 C576 1.327 . S
C578 C597 1.429 . S
C578 H602 0.950 . S
C579 C596 1.574 . S
C579 C598 1.368 . S
C579 H603 0.949 . S
H580 C584 0.949 . S
C581 C582 1.349 . S
C581 C583 1.327 . S
C581 H604 0.950 . S
C582 C581 1.349 . S
C582 C594 1.349 . S
C583 C581 1.327 . S
C583 C599 1.429 . S
C583 H605 0.950 . S
C584 H580 0.949 . S
C584 C592 1.574 . S
C584 C600 1.368 . S
H585 C593 0.950 . S
H586 C591 0.950 . S
H587 C592 0.949 . S
H588 C594 0.950 . S
H589 C595 0.950 . S
H590 C596 0.949 . S
C591 H586 0.950 . S
C591 C593 1.327 . S
C591 C597 1.429 . S
C592 C584 1.574 . S
C592 H587 0.949 . S
C592 C598 1.368 . S
C593 C577 1.349 . S
C593 H585 0.950 . S
C593 C591 1.327 . S
C594 C582 1.349 . S
C594 H588 0.950 . S
C594 C595 1.327 . S
C595 H589 0.950 . S
C595 C594 1.327 . S
C595 C599 1.429 . S
C596 C579 1.574 . S
C596 H590 0.949 . S
C596 C600 1.368 . S
C597 C578 1.429 . S
C597 C591 1.429 . S
C597 C598 1.523 . S
C598 C579 1.368 . S
C598 C592 1.368 . S
C598 C597 1.523 . S
C599 C583 1.429 . S
C599 C595 1.429 . S
C599 C600 1.523 . S
C600 C584 1.368 . S
C600 C596 1.368 . S
C600 C599 1.523 . S
H601 C576 0.950 . S
H602 C578 0.950 . S
H603 C579 0.949 . S
H604 C581 0.950 . S
H605 C583 0.950 . S
C606 C607 1.349 . S
C606 C608 1.327 . S
C606 H631 0.950 . S
C607 C606 1.349 . S
C607 C623 1.349 . S
C608 C606 1.327 . S
C608 C627 1.429 . S
C608 H632 0.950 . S
C609 C626 1.574 . S
C609 C628 1.368 . S
C609 H633 0.949 . S
H610 C614 0.949 . S
C611 C612 1.349 . S
C611 C613 1.327 . S
C611 H634 0.950 . S
C612 C611 1.349 . S
C612 C624 1.349 . S
C613 C611 1.327 . S
C613 C629 1.429 . S
C613 H635 0.950 . S
C614 H610 0.949 . S
C614 C622 1.574 . S
C614 C630 1.368 . S
H615 C623 0.950 . S
H616 C621 0.950 . S
H617 C622 0.949 . S
H618 C624 0.950 . S
H619 C625 0.950 . S
H620 C626 0.949 . S
C621 H616 0.950 . S
C621 C623 1.327 . S
C621 C627 1.429 . S
C622 C614 1.574 . S
C622 H617 0.949 . S
C622 C628 1.368 . S
C623 C607 1.349 . S
C623 H615 0.950 . S
C623 C621 1.327 . S
C624 C612 1.349 . S
C624 H618 0.950 . S
C624 C625 1.327 . S
C625 H619 0.950 . S
C625 C624 1.327 . S
C625 C629 1.429 . S
C626 C609 1.574 . S
C626 H620 0.949 . S
C626 C630 1.368 . S
C627 C608 1.429 . S
C627 C621 1.429 . S
C627 C628 1.523 . S
C628 C609 1.368 . S
C628 C622 1.368 . S
C628 C627 1.523 . S
C629 C613 1.429 . S
C629 C625 1.429 . S
C629 C630 1.523 . S
C630 C614 1.368 . S
C630 C626 1.368 . S
C630 C629 1.523 . S
H631 C606 0.950 . S
H632 C608 0.950 . S
H633 C609 0.949 . S
H634 C611 0.950 . S
H635 C613 0.950 . S
C636 C637 1.349 . S
C636 C638 1.327 . S
C636 H661 0.950 . S
C637 C636 1.349 . S
C637 C653 1.349 . S
C638 C636 1.327 . S
C638 C657 1.429 . S
C638 H662 0.950 . S
C639 C656 1.574 . S
C639 C658 1.368 . S
C639 H663 0.949 . S
H640 C644 0.949 . S
C641 C642 1.349 . S
C641 C643 1.327 . S
C641 H664 0.950 . S
C642 C641 1.349 . S
C642 C654 1.349 . S
C643 C641 1.327 . S
C643 C659 1.429 . S
C643 H665 0.950 . S
C644 H640 0.949 . S
C644 C652 1.574 . S
C644 C660 1.368 . S
H645 C653 0.950 . S
H646 C651 0.950 . S
H647 C652 0.949 . S
H648 C654 0.950 . S
H649 C655 0.950 . S
H650 C656 0.949 . S
C651 H646 0.950 . S
C651 C653 1.327 . S
C651 C657 1.429 . S
C652 C644 1.574 . S
C652 H647 0.949 . S
C652 C658 1.368 . S
C653 C637 1.349 . S
C653 H645 0.950 . S
C653 C651 1.327 . S
C654 C642 1.349 . S
C654 H648 0.950 . S
C654 C655 1.327 . S
C655 H649 0.950 . S
C655 C654 1.327 . S
C655 C659 1.429 . S
C656 C639 1.574 . S
C656 H650 0.949 . S
C656 C660 1.368 . S
C657 C638 1.429 . S
C657 C651 1.429 . S
C657 C658 1.523 . S
C658 C639 1.368 . S
C658 C652 1.368 . S
C658 C657 1.523 . S
C659 C643 1.429 . S
C659 C655 1.429 . S
C659 C660 1.523 . S
C660 C644 1.368 . S
C660 C656 1.368 . S
C660 C659 1.523 . S
H661 C636 0.950 . S
H662 C638 0.950 . S
H663 C639 0.949 . S
H664 C641 0.950 . S
H665 C643 0.950 . S
C127 C121 1.263 1_554 S
C132 C3 1.263 1_556 S
C157 C16 1.263 1_554 S
C162 C24 1.263 1_556 S
C187 C37 1.263 1_554 S
C192 C58 1.263 1_556 S
C217 C79 1.263 1_556 S
C222 C45 1.263 1_554 S
C247 C100 1.263 1_556 S
C252 C66 1.263 1_554 S
C277 C87 1.263 1_554 S
C282 C108 1.263 1_556 S
C307 C103 1.406 . S
C312 C19 1.406 . S
C337 C125 1.406 . S
C342 C40 1.406 . S
C367 C62 1.406 . S
C372 C20 1.406 . S
C397 C83 1.406 . S
C402 C41 1.406 . S
C427 C104 1.406 . S
C432 C61 1.406 . S
C457 C82 1.406 . S
C462 C124 1.406 . S
C487 C7 1.273 . S
C492 C4 1.273 . S
C517 C28 1.273 . S
C522 C25 1.273 . S
C547 C46 1.273 . S
C552 C49 1.273 . S
C577 C67 1.273 . S
C582 C70 1.273 . S
C607 C91 1.273 . S
C612 C88 1.273 . S
C637 C112 1.273 . S
C642 C109 1.273 . S
