# Generated by pormake.
# Topology uoy, (4)-cn, num edge types: 1
# Building blocks:
#     Node 0, Type 0, BuildingBlock: GALJAG_clean_sbu_0, # of connection points: 4
#     Node 1, Type 0, BuildingBlock: GALJAG_clean_sbu_0, # of connection points: 4
#     Node 2, Type 0, BuildingBlock: GALJAG_clean_sbu_0, # of connection points: 4
#     Node 3, Type 0, BuildingBlock: GALJAG_clean_sbu_0, # of connection points: 4
#     Node 4, Type 0, BuildingBlock: GALJAG_clean_sbu_0, # of connection points: 4
#     Node 5, Type 0, BuildingBlock: GALJAG_clean_sbu_0, # of connection points: 4
#     Node 6, Type 0, BuildingBlock: GALJAG_clean_sbu_0, # of connection points: 4
#     Node 7, Type 0, BuildingBlock: GALJAG_clean_sbu_0, # of connection points: 4
#     Node 8, Type 0, BuildingBlock: GALJAG_clean_sbu_0, # of connection points: 4
#     Node 9, Type 0, BuildingBlock: GALJAG_clean_sbu_0, # of connection points: 4
#     Node 10, Type 0, BuildingBlock: GALJAG_clean_sbu_0, # of connection points: 4
#     Node 11, Type 0, BuildingBlock: GALJAG_clean_sbu_0, # of connection points: 4
#     Node 12, Type 0, BuildingBlock: GALJAG_clean_sbu_0, # of connection points: 4
#     Node 13, Type 0, BuildingBlock: GALJAG_clean_sbu_0, # of connection points: 4
#     Node 14, Type 0, BuildingBlock: GALJAG_clean_sbu_0, # of connection points: 4
#     Node 15, Type 0, BuildingBlock: GALJAG_clean_sbu_0, # of connection points: 4
#     Edge 16, Type (0, 0), BuildingBlock: KIFKEQ_clean_linker_1, # of connection points: 2
#     Edge 17, Type (0, 0), BuildingBlock: KIFKEQ_clean_linker_1, # of connection points: 2
#     Edge 18, Type (0, 0), BuildingBlock: KIFKEQ_clean_linker_1, # of connection points: 2
#     Edge 19, Type (0, 0), BuildingBlock: KIFKEQ_clean_linker_1, # of connection points: 2
#     Edge 20, Type (0, 0), BuildingBlock: KIFKEQ_clean_linker_1, # of connection points: 2
#     Edge 21, Type (0, 0), BuildingBlock: KIFKEQ_clean_linker_1, # of connection points: 2
#     Edge 22, Type (0, 0), BuildingBlock: KIFKEQ_clean_linker_1, # of connection points: 2
#     Edge 23, Type (0, 0), BuildingBlock: KIFKEQ_clean_linker_1, # of connection points: 2
#     Edge 24, Type (0, 0), BuildingBlock: KIFKEQ_clean_linker_1, # of connection points: 2
#     Edge 25, Type (0, 0), BuildingBlock: KIFKEQ_clean_linker_1, # of connection points: 2
#     Edge 26, Type (0, 0), BuildingBlock: KIFKEQ_clean_linker_1, # of connection points: 2
#     Edge 27, Type (0, 0), BuildingBlock: KIFKEQ_clean_linker_1, # of connection points: 2
#     Edge 28, Type (0, 0), BuildingBlock: KIFKEQ_clean_linker_1, # of connection points: 2
#     Edge 29, Type (0, 0), BuildingBlock: KIFKEQ_clean_linker_1, # of connection points: 2
#     Edge 30, Type (0, 0), BuildingBlock: KIFKEQ_clean_linker_1, # of connection points: 2
#     Edge 31, Type (0, 0), BuildingBlock: KIFKEQ_clean_linker_1, # of connection points: 2
#     Edge 32, Type (0, 0), BuildingBlock: KIFKEQ_clean_linker_1, # of connection points: 2
#     Edge 33, Type (0, 0), BuildingBlock: KIFKEQ_clean_linker_1, # of connection points: 2
#     Edge 34, Type (0, 0), BuildingBlock: KIFKEQ_clean_linker_1, # of connection points: 2
#     Edge 35, Type (0, 0), BuildingBlock: KIFKEQ_clean_linker_1, # of connection points: 2
#     Edge 36, Type (0, 0), BuildingBlock: KIFKEQ_clean_linker_1, # of connection points: 2
#     Edge 37, Type (0, 0), BuildingBlock: KIFKEQ_clean_linker_1, # of connection points: 2
#     Edge 38, Type (0, 0), BuildingBlock: KIFKEQ_clean_linker_1, # of connection points: 2
#     Edge 39, Type (0, 0), BuildingBlock: KIFKEQ_clean_linker_1, # of connection points: 2
#     Edge 40, Type (0, 0), BuildingBlock: KIFKEQ_clean_linker_1, # of connection points: 2
#     Edge 41, Type (0, 0), BuildingBlock: KIFKEQ_clean_linker_1, # of connection points: 2
#     Edge 42, Type (0, 0), BuildingBlock: KIFKEQ_clean_linker_1, # of connection points: 2
#     Edge 43, Type (0, 0), BuildingBlock: KIFKEQ_clean_linker_1, # of connection points: 2
#     Edge 44, Type (0, 0), BuildingBlock: KIFKEQ_clean_linker_1, # of connection points: 2
#     Edge 45, Type (0, 0), BuildingBlock: KIFKEQ_clean_linker_1, # of connection points: 2
#     Edge 46, Type (0, 0), BuildingBlock: KIFKEQ_clean_linker_1, # of connection points: 2
#     Edge 47, Type (0, 0), BuildingBlock: KIFKEQ_clean_linker_1, # of connection points: 2
# Relax obj value: 0.037
# Max RMSD: 0.056
# Mean RMSD: 0.056
data_MOF--net-uoy--node1-GALJAG_clean_sbu_0--edge1-KIFKEQ_clean_linker_1
_symmetry_space_group_name_H-M    P1
_symmetry_Int_Tables_number       1
_symmetry_cell_setting            triclinic
loop_
_symmetry_equiv_pos_as_xyz
'x, y, z'
_cell_length_a     28.062276
_cell_length_b     28.063422
_cell_length_c     111.73278
_cell_angle_alpha  89.995557
_cell_angle_beta   89.985598
_cell_angle_gamma 90.005414
loop_
_atom_site_label
_atom_site_type_symbol
_atom_site_fract_x
_atom_site_fract_y
_atom_site_fract_z
_atom_type_partial_charge
In0 In 0.25088 0.11862 0.1882 0.0
O1 O 0.24014 0.186 0.17706 0.0
O2 O 0.25472 0.12107 0.1679 0.0
C3 C 0.25703 0.15605 0.21048 0.0
C4 C 0.16428 0.07701 0.18755 0.0
C5 C 0.33663 0.0753 0.18665 0.0
O6 O 0.26585 0.18019 0.20121 0.0
O7 O 0.24453 0.11372 0.20847 0.0
O8 O 0.2985 0.05223 0.18823 0.0
O9 O 0.33136 0.11979 0.18586 0.0
C10 C 0.24642 0.16519 0.16715 0.0
O11 O 0.2024 0.05317 0.18811 0.0
O12 O 0.16994 0.1216 0.18731 0.0
In13 In 0.8842 0.75339 0.4381 0.0
O14 O 0.95005 0.70539 0.43879 0.0
O15 O 0.88211 0.67252 0.43703 0.0
C16 C 0.9255 0.83999 0.4363 0.0
C17 C 0.83862 0.74809 0.41692 0.0
C18 C 0.84702 0.75891 0.46041 0.0
O19 O 0.94959 0.80211 0.43719 0.0
O20 O 0.88097 0.83404 0.43634 0.0
O21 O 0.82207 0.76542 0.45115 0.0
O22 O 0.89007 0.74919 0.45836 0.0
C23 C 0.9266 0.66713 0.43786 0.0
O24 O 0.81749 0.74147 0.42678 0.0
O25 O 0.88252 0.75728 0.41779 0.0
In26 In 0.24963 0.38215 0.68808 0.0
O27 O 0.26031 0.31454 0.67688 0.0
O28 O 0.24162 0.3784 0.66784 0.0
C29 C 0.24452 0.34599 0.71041 0.0
C30 C 0.33641 0.42378 0.68799 0.0
C31 C 0.16355 0.42502 0.68743 0.0
O32 O 0.23828 0.32065 0.70119 0.0
O33 O 0.2538 0.38921 0.70832 0.0
O34 O 0.2019 0.44773 0.6858 0.0
O35 O 0.1688 0.38108 0.6894 0.0
C36 C 0.2514 0.33472 0.66703 0.0
O37 O 0.29831 0.44751 0.68715 0.0
O38 O 0.33061 0.37935 0.68885 0.0
In39 In 0.61621 0.75193 0.93778 0.0
O40 O 0.5515 0.80081 0.93562 0.0
O41 O 0.61764 0.83239 0.94035 0.0
C42 C 0.57611 0.66492 0.93627 0.0
C43 C 0.66481 0.75471 0.91693 0.0
C44 C 0.64707 0.74344 0.96052 0.0
O45 O 0.55182 0.70282 0.93578 0.0
O46 O 0.62045 0.67107 0.9374 0.0
O47 O 0.67558 0.74944 0.95188 0.0
O48 O 0.60359 0.74262 0.95765 0.0
C49 C 0.57411 0.83849 0.93804 0.0
O50 O 0.68537 0.75877 0.92694 0.0
O51 O 0.62029 0.74945 0.91751 0.0
In52 In 0.25173 0.3832 0.06667 0.0
O53 O 0.2404 0.31618 0.0779 0.0
O54 O 0.25629 0.38098 0.08698 0.0
C55 C 0.25722 0.34514 0.04445 0.0
C56 C 0.1654 0.42548 0.0672 0.0
C57 C 0.33781 0.42589 0.06816 0.0
O58 O 0.26536 0.32101 0.05376 0.0
O59 O 0.24574 0.38781 0.0464 0.0
O60 O 0.29963 0.44933 0.06707 0.0
O61 O 0.33241 0.38132 0.06852 0.0
C62 C 0.24732 0.33701 0.08778 0.0
O63 O 0.20361 0.44895 0.06619 0.0
O64 O 0.17085 0.38097 0.06797 0.0
In65 In 0.61913 0.7479 0.31662 0.0
O66 O 0.55471 0.69889 0.31907 0.0
O67 O 0.62044 0.66748 0.31393 0.0
C68 C 0.57837 0.83447 0.3186 0.0
C69 C 0.66757 0.74382 0.33744 0.0
C70 C 0.65067 0.7579 0.29395 0.0
O71 O 0.55423 0.79686 0.31717 0.0
O72 O 0.62288 0.82824 0.31913 0.0
O73 O 0.67894 0.75092 0.30258 0.0
O74 O 0.60722 0.75904 0.29679 0.0
C75 C 0.57711 0.66129 0.31647 0.0
O76 O 0.68834 0.74178 0.32741 0.0
O77 O 0.62286 0.74759 0.33689 0.0
In78 In 0.25347 0.1184 0.56632 0.0
O79 O 0.25842 0.18657 0.57743 0.0
O80 O 0.25097 0.12041 0.5866 0.0
C81 C 0.2471 0.151 0.54362 0.0
C82 C 0.34053 0.0776 0.56683 0.0
C83 C 0.167 0.07715 0.56807 0.0
O84 O 0.24927 0.179 0.55246 0.0
O85 O 0.24901 0.10745 0.54628 0.0
O86 O 0.20498 0.05314 0.56731 0.0
O87 O 0.17276 0.12174 0.56804 0.0
C88 C 0.25502 0.1651 0.58735 0.0
O89 O 0.30258 0.05344 0.56664 0.0
O90 O 0.33452 0.12212 0.56675 0.0
In91 In 0.88427 0.75201 0.81656 0.0
O92 O 0.81574 0.75866 0.82755 0.0
O93 O 0.88114 0.74831 0.83683 0.0
C94 C 0.85249 0.74415 0.79386 0.0
C95 C 0.92572 0.83889 0.81641 0.0
C96 C 0.92417 0.66507 0.81854 0.0
O97 O 0.82424 0.74866 0.8026 0.0
O98 O 0.89605 0.74478 0.7966 0.0
O99 O 0.9481 0.703 0.81968 0.0
O100 O 0.88033 0.67119 0.81654 0.0
C101 C 0.83664 0.75397 0.83751 0.0
O102 O 0.94965 0.8008 0.81612 0.0
O103 O 0.8812 0.83304 0.81674 0.0
In104 In 0.75 0.61659 0.68783 0.0
O105 O 0.70095 0.55196 0.68563 0.0
O106 O 0.66955 0.61794 0.69056 0.0
C107 C 0.83696 0.57627 0.68617 0.0
C108 C 0.74707 0.66595 0.66708 0.0
C109 C 0.75881 0.64746 0.71056 0.0
O110 O 0.79898 0.55207 0.68574 0.0
O111 O 0.8309 0.62062 0.68732 0.0
O112 O 0.75184 0.67586 0.70195 0.0
O113 O 0.7604 0.60402 0.70768 0.0
C114 C 0.66334 0.57449 0.68816 0.0
O115 O 0.74426 0.68624 0.67715 0.0
O116 O 0.75114 0.62129 0.66755 0.0
In117 In 0.38241 0.25221 0.93812 0.0
O118 O 0.31439 0.24359 0.92697 0.0
O119 O 0.37893 0.25935 0.91787 0.0
C120 C 0.34708 0.25663 0.96054 0.0
C121 C 0.4236 0.16532 0.9379 0.0
C122 C 0.42524 0.33828 0.9375 0.0
O123 O 0.32124 0.26239 0.95139 0.0
O124 O 0.39037 0.24815 0.95834 0.0
O125 O 0.44795 0.29997 0.93583 0.0
O126 O 0.38131 0.333 0.93949 0.0
C127 C 0.33488 0.25129 0.91709 0.0
O128 O 0.44748 0.20333 0.93708 0.0
O129 O 0.3792 0.17125 0.93881 0.0
In130 In 0.75044 0.88489 0.18773 0.0
O131 O 0.7566 0.81642 0.17677 0.0
O132 O 0.74724 0.88196 0.16744 0.0
C133 C 0.74299 0.85237 0.21043 0.0
C134 C 0.83725 0.92654 0.18741 0.0
C135 C 0.66379 0.92557 0.18577 0.0
O136 O 0.74772 0.82441 0.20165 0.0
O137 O 0.74297 0.89592 0.20772 0.0
O138 O 0.70172 0.94979 0.18631 0.0
O139 O 0.66971 0.881 0.18608 0.0
C140 C 0.75237 0.83735 0.1668 0.0
O141 O 0.79912 0.95036 0.18768 0.0
O142 O 0.83154 0.882 0.18732 0.0
In143 In 0.11674 0.25264 0.43771 0.0
O144 O 0.05199 0.30206 0.43786 0.0
O145 O 0.1208 0.33355 0.4388 0.0
C146 C 0.07361 0.16764 0.43456 0.0
C147 C 0.16502 0.25653 0.4169 0.0
C148 C 0.14981 0.24231 0.46029 0.0
O149 O 0.05041 0.20558 0.43635 0.0
O150 O 0.11823 0.17286 0.43415 0.0
O151 O 0.17659 0.25544 0.45182 0.0
O152 O 0.1071 0.23526 0.45734 0.0
C153 C 0.07631 0.33983 0.43849 0.0
O154 O 0.18516 0.24686 0.42672 0.0
O155 O 0.12082 0.26434 0.41762 0.0
In156 In 0.75362 0.88497 0.56669 0.0
O157 O 0.7057 0.95086 0.56663 0.0
O158 O 0.67278 0.88277 0.56789 0.0
C159 C 0.8398 0.92743 0.56792 0.0
C160 C 0.74963 0.83905 0.58785 0.0
C161 C 0.75825 0.84736 0.54441 0.0
O162 O 0.80166 0.95093 0.56682 0.0
O163 O 0.83433 0.88288 0.56842 0.0
O164 O 0.76643 0.82293 0.55367 0.0
O165 O 0.74722 0.89009 0.54644 0.0
C166 C 0.66744 0.92735 0.56744 0.0
O167 O 0.742 0.81821 0.578 0.0
O168 O 0.75924 0.88286 0.58699 0.0
In169 In 0.11785 0.25254 0.81644 0.0
O170 O 0.05282 0.20388 0.81467 0.0
O171 O 0.11964 0.17199 0.8187 0.0
C172 C 0.07481 0.33851 0.81736 0.0
C173 C 0.16489 0.25222 0.83749 0.0
C174 C 0.1558 0.25539 0.79424 0.0
O175 O 0.0529 0.30031 0.81972 0.0
O176 O 0.11796 0.33313 0.81453 0.0
O177 O 0.18029 0.26337 0.80351 0.0
O178 O 0.11275 0.24522 0.79622 0.0
C179 C 0.07577 0.16605 0.81675 0.0
O180 O 0.18543 0.24354 0.82766 0.0
O181 O 0.12096 0.26108 0.83665 0.0
In182 In 0.75125 0.61699 0.06656 0.0
O183 O 0.75678 0.68555 0.07753 0.0
O184 O 0.74931 0.6198 0.08686 0.0
C185 C 0.7421 0.64949 0.0439 0.0
C186 C 0.83839 0.57599 0.0667 0.0
C187 C 0.66499 0.57562 0.06872 0.0
O188 O 0.74767 0.67745 0.05265 0.0
O189 O 0.74217 0.60594 0.04661 0.0
O190 O 0.70294 0.55168 0.0677 0.0
O191 O 0.67072 0.62024 0.06878 0.0
C192 C 0.75354 0.6645 0.08751 0.0
O193 O 0.8004 0.55193 0.06693 0.0
O194 O 0.83239 0.62048 0.06638 0.0
In195 In 0.38598 0.24753 0.31681 0.0
O196 O 0.31698 0.24869 0.3277 0.0
O197 O 0.38267 0.25609 0.33702 0.0
C198 C 0.35046 0.24067 0.29441 0.0
C199 C 0.42655 0.33461 0.31679 0.0
C200 C 0.42935 0.16179 0.31863 0.0
O201 O 0.32412 0.2392 0.30358 0.0
O202 O 0.39423 0.24585 0.29659 0.0
O203 O 0.45192 0.19939 0.31612 0.0
O204 O 0.38533 0.1676 0.32028 0.0
C205 C 0.33784 0.25388 0.33764 0.0
O206 O 0.44955 0.29725 0.31932 0.0
O207 O 0.38321 0.32795 0.31426 0.0
H208 H 0.27136 0.37212 0.10969 0.0
H209 H 0.2192 0.24545 0.09209 0.0
H210 H 0.2703 0.3306 0.12883 0.0
H211 H 0.21649 0.20423 0.11131 0.0
H212 H 0.22055 0.25752 0.16293 0.0
H213 H 0.21833 0.29893 0.14374 0.0
H214 H 0.26817 0.17126 0.12606 0.0
H215 H 0.26875 0.12963 0.14518 0.0
C216 C 0.25927 0.33548 0.10994 0.0
C217 C 0.24549 0.31197 0.0994 0.0
C218 C 0.25834 0.31174 0.12093 0.0
C219 C 0.24327 0.26402 0.12164 0.0
C220 C 0.22902 0.24071 0.11108 0.0
C221 C 0.23029 0.26438 0.10007 0.0
C222 C 0.23086 0.23835 0.15493 0.0
C223 C 0.2448 0.19037 0.15555 0.0
C224 C 0.22987 0.26212 0.14393 0.0
C225 C 0.24314 0.2385 0.13332 0.0
C226 C 0.25697 0.1904 0.13399 0.0
C227 C 0.25762 0.16658 0.14497 0.0
H228 H 0.74849 0.71629 0.41238 0.0
H229 H 0.87337 0.77433 0.39513 0.0
H230 H 0.70801 0.71247 0.3931 0.0
H231 H 0.83244 0.77242 0.37592 0.0
H232 H 0.76157 0.72331 0.34144 0.0
H233 H 0.80318 0.72162 0.36063 0.0
H234 H 0.6729 0.76249 0.37858 0.0
H235 H 0.63124 0.7622 0.35951 0.0
C236 C 0.76715 0.72849 0.40446 0.0
C237 C 0.81402 0.74565 0.40525 0.0
C238 C 0.7439 0.72659 0.39341 0.0
C239 C 0.76683 0.7423 0.38291 0.0
C240 C 0.81388 0.7593 0.38375 0.0
C241 C 0.83726 0.76073 0.39478 0.0
C242 C 0.74193 0.73174 0.34951 0.0
C243 C 0.69319 0.74278 0.34899 0.0
C244 C 0.76578 0.73107 0.36051 0.0
C245 C 0.74146 0.7419 0.3712 0.0
C246 C 0.69266 0.75305 0.3706 0.0
C247 C 0.66879 0.75323 0.35964 0.0
H248 H 0.23663 0.12737 0.60932 0.0
H249 H 0.27412 0.25903 0.59166 0.0
H250 H 0.23569 0.16821 0.62853 0.0
H251 H 0.27496 0.29976 0.61096 0.0
H252 H 0.22191 0.36835 0.64542 0.0
H253 H 0.22289 0.32733 0.62623 0.0
H254 H 0.28589 0.20387 0.64313 0.0
H255 H 0.28318 0.24451 0.66243 0.0
C256 C 0.24505 0.16502 0.60957 0.0
C257 C 0.25535 0.19006 0.59899 0.0
C258 C 0.24485 0.1884 0.6206 0.0
C259 C 0.25532 0.23732 0.62133 0.0
C260 C 0.26598 0.26225 0.61072 0.0
C261 C 0.26579 0.2389 0.59967 0.0
C262 C 0.23592 0.33242 0.64503 0.0
C263 C 0.25239 0.30958 0.65542 0.0
C264 C 0.23681 0.30899 0.63401 0.0
C265 C 0.25461 0.26229 0.63309 0.0
C266 C 0.27128 0.23955 0.64352 0.0
C267 C 0.26998 0.26288 0.65457 0.0
H268 H 0.74442 0.78012 0.84182 0.0
H269 H 0.87205 0.73018 0.85938 0.0
H270 H 0.70344 0.78262 0.86107 0.0
H271 H 0.83077 0.73067 0.87853 0.0
H272 H 0.75778 0.77897 0.91276 0.0
H273 H 0.79913 0.781 0.89354 0.0
H274 H 0.67088 0.73234 0.8759 0.0
H275 H 0.62936 0.73232 0.895 0.0
C276 C 0.76356 0.76934 0.84979 0.0
C277 C 0.81138 0.75497 0.8491 0.0
C278 C 0.74006 0.7705 0.86083 0.0
C279 C 0.76371 0.75677 0.8714 0.0
C280 C 0.81161 0.7423 0.87065 0.0
C281 C 0.83521 0.74166 0.85964 0.0
C282 C 0.73853 0.76885 0.90476 0.0
C283 C 0.69038 0.75557 0.90537 0.0
C284 C 0.76224 0.76972 0.89374 0.0
C285 C 0.73841 0.75683 0.88312 0.0
C286 C 0.69021 0.74337 0.88382 0.0
C287 C 0.66645 0.743 0.8948 0.0
H288 H 0.71724 0.74916 0.5924 0.0
H289 H 0.77763 0.87302 0.60959 0.0
H290 H 0.71417 0.70828 0.61164 0.0
H291 H 0.77639 0.83166 0.62876 0.0
H292 H 0.72751 0.76031 0.66329 0.0
H293 H 0.72573 0.8025 0.64417 0.0
H294 H 0.76497 0.67241 0.62592 0.0
H295 H 0.76488 0.6302 0.64492 0.0
C296 C 0.73013 0.76751 0.6003 0.0
C297 C 0.74773 0.81422 0.5995 0.0
C298 C 0.72865 0.74402 0.61132 0.0
C299 C 0.74521 0.76654 0.62179 0.0
C300 C 0.76265 0.81343 0.62095 0.0
C301 C 0.76369 0.83705 0.60994 0.0
C302 C 0.7356 0.74084 0.65517 0.0
C303 C 0.74623 0.69199 0.65559 0.0
C304 C 0.73487 0.76502 0.64421 0.0
C305 C 0.74516 0.74091 0.63346 0.0
C306 C 0.75596 0.69201 0.63396 0.0
C307 C 0.75626 0.66783 0.64487 0.0
H308 H 0.24244 0.22605 0.91268 0.0
H309 H 0.37058 0.27592 0.89531 0.0
H310 H 0.20153 0.22489 0.8934 0.0
H311 H 0.32947 0.27629 0.87613 0.0
H312 H 0.25685 0.22572 0.84197 0.0
H313 H 0.29754 0.22402 0.86127 0.0
H314 H 0.17027 0.27741 0.87846 0.0
H315 H 0.12932 0.2776 0.85925 0.0
C316 C 0.26174 0.23702 0.90475 0.0
C317 C 0.30968 0.25101 0.90549 0.0
C318 C 0.23828 0.23662 0.8937 0.0
C319 C 0.26219 0.25049 0.88319 0.0
C320 C 0.31016 0.26462 0.88399 0.0
C321 C 0.33365 0.26472 0.895 0.0
C322 C 0.23764 0.23704 0.84989 0.0
C323 C 0.18994 0.25177 0.84911 0.0
C324 C 0.26099 0.23632 0.86094 0.0
C325 C 0.23721 0.25061 0.87144 0.0
C326 C 0.18946 0.26544 0.87061 0.0
C327 C 0.16607 0.26588 0.85958 0.0
H328 H 0.73172 0.62872 0.10947 0.0
H329 H 0.77676 0.7576 0.09165 0.0
H330 H 0.73124 0.67042 0.12856 0.0
H331 H 0.77838 0.79908 0.11084 0.0
H332 H 0.72808 0.87227 0.14491 0.0
H333 H 0.72825 0.83055 0.12581 0.0
H334 H 0.78078 0.70371 0.1434 0.0
H335 H 0.7785 0.74511 0.16258 0.0
C336 C 0.74196 0.66593 0.10967 0.0
C337 C 0.75419 0.68995 0.09908 0.0
C338 C 0.74203 0.68981 0.12063 0.0
C339 C 0.75488 0.7382 0.1213 0.0
C340 C 0.7675 0.76207 0.11067 0.0
C341 C 0.76688 0.73827 0.09967 0.0
C342 C 0.73961 0.83544 0.14468 0.0
C343 C 0.75318 0.81189 0.15523 0.0
C344 C 0.74006 0.81157 0.13371 0.0
C345 C 0.75465 0.76368 0.133 0.0
C346 C 0.76856 0.74029 0.1436 0.0
C347 C 0.76755 0.76406 0.1546 0.0
H348 H 0.25629 0.228 0.41237 0.0
H349 H 0.13167 0.28777 0.39539 0.0
H350 H 0.29763 0.22766 0.39317 0.0
H351 H 0.17341 0.2892 0.37628 0.0
H352 H 0.24341 0.23697 0.34179 0.0
H353 H 0.20195 0.23781 0.36097 0.0
H354 H 0.33287 0.27843 0.37864 0.0
H355 H 0.37447 0.2758 0.35953 0.0
C356 C 0.23793 0.2415 0.40454 0.0
C357 C 0.19076 0.25781 0.40537 0.0
C358 C 0.26168 0.24158 0.39354 0.0
C359 C 0.2389 0.2584 0.38314 0.0
C360 C 0.19182 0.27521 0.38404 0.0
C361 C 0.16797 0.27472 0.39502 0.0
C362 C 0.26322 0.24615 0.34978 0.0
C363 C 0.31216 0.2562 0.34917 0.0
C364 C 0.23944 0.2469 0.36078 0.0
C365 C 0.26403 0.25814 0.3714 0.0
C366 C 0.31294 0.26879 0.37071 0.0
C367 C 0.33675 0.26762 0.35973 0.0
H368 H 0.29771 0.24036 0.21728 0.0
H369 H 0.23212 0.1129 0.23137 0.0
H370 H 0.31574 0.26663 0.23767 0.0
H371 H 0.2503 0.13896 0.25168 0.0
H372 H 0.26039 0.21585 0.28741 0.0
H373 H 0.2324 0.20096 0.267 0.0
H374 H 0.3717 0.23726 0.2533 0.0
H375 H 0.39951 0.25228 0.27361 0.0
C376 C 0.28664 0.21828 0.22473 0.0
C377 C 0.26377 0.17448 0.22275 0.0
C378 C 0.29716 0.23318 0.23639 0.0
C379 C 0.28459 0.20476 0.24627 0.0
C380 C 0.26002 0.16187 0.24427 0.0
C381 C 0.24987 0.14682 0.23263 0.0
C382 C 0.28481 0.22109 0.28001 0.0
C383 C 0.33218 0.23497 0.2821 0.0
C384 C 0.26887 0.21241 0.26835 0.0
C385 C 0.29987 0.2179 0.25855 0.0
C386 C 0.34679 0.23325 0.26064 0.0
C387 C 0.36282 0.24153 0.27229 0.0
H388 H 0.8933 0.74016 0.48127 0.0
H389 H 0.75919 0.79126 0.46731 0.0
H390 H 0.8662 0.75641 0.50157 0.0
H391 H 0.73175 0.80715 0.48772 0.0
H392 H 0.73725 0.89268 0.52354 0.0
H393 H 0.75364 0.8657 0.50323 0.0
H394 H 0.80854 0.73296 0.51713 0.0
H395 H 0.79253 0.76029 0.53753 0.0
C396 C 0.85775 0.75431 0.48256 0.0
C397 C 0.82847 0.76473 0.4727 0.0
C398 C 0.84209 0.76331 0.4942 0.0
C399 C 0.79686 0.78316 0.49626 0.0
C400 C 0.76698 0.79227 0.48641 0.0
C401 C 0.78258 0.78298 0.47474 0.0
C402 C 0.75232 0.85751 0.52226 0.0
C403 C 0.76391 0.8287 0.53212 0.0
C404 C 0.76142 0.84191 0.51061 0.0
C405 C 0.78252 0.79724 0.50856 0.0
C406 C 0.79271 0.76778 0.51843 0.0
C407 C 0.78335 0.7833 0.5301 0.0
H408 H 0.21337 0.25779 0.71725 0.0
H409 H 0.26221 0.39255 0.73133 0.0
H410 H 0.19753 0.2299 0.7376 0.0
H411 H 0.24605 0.3649 0.75161 0.0
H412 H 0.24289 0.28989 0.78747 0.0
H413 H 0.27033 0.30666 0.76711 0.0
H414 H 0.1381 0.25128 0.75304 0.0
H415 H 0.11095 0.23422 0.7733 0.0
C416 C 0.22117 0.28124 0.72469 0.0
C417 C 0.23876 0.32743 0.7227 0.0
C418 C 0.21191 0.26537 0.73633 0.0
C419 C 0.22041 0.29525 0.74621 0.0
C420 C 0.23962 0.34082 0.74421 0.0
C421 C 0.24857 0.35678 0.73259 0.0
C422 C 0.22003 0.28072 0.78001 0.0
C423 C 0.17469 0.261 0.78197 0.0
C424 C 0.23561 0.29054 0.76837 0.0
C425 C 0.20629 0.28048 0.75847 0.0
C426 C 0.16174 0.259 0.76045 0.0
C427 C 0.14607 0.24948 0.77207 0.0
H428 H 0.75422 0.73908 0.03445 0.0
H429 H 0.70857 0.59642 0.02549 0.0
H430 H 0.73394 0.76545 0.01407 0.0
H431 H 0.68758 0.62301 0.0054 0.0
H432 H 0.59415 0.70817 0.97879 0.0
H433 H 0.62052 0.68803 0.99896 0.0
H434 H 0.76169 0.73926 0.9907 0.0
H435 H 0.73559 0.75869 0.97025 0.0
C436 C 0.74015 0.71343 0.02813 0.0
C437 C 0.73286 0.66576 0.03155 0.0
C438 C 0.72875 0.72846 0.01651 0.0
C439 C 0.70904 0.69621 0.00826 0.0
C440 C 0.70249 0.64853 0.01164 0.0
C441 C 0.71465 0.63337 0.02312 0.0
C442 C 0.63074 0.71553 0.98127 0.0
C443 C 0.6629 0.73481 0.97294 0.0
C444 C 0.64578 0.70388 0.99279 0.0
C445 C 0.69306 0.71203 0.99631 0.0
C446 C 0.72499 0.73286 0.98816 0.0
C447 C 0.71012 0.74375 0.9765 0.0
H448 H 0.23507 0.38917 0.02349 0.0
H449 H 0.29406 0.25888 0.03777 0.0
H450 H 0.25225 0.36195 0.00324 0.0
H451 H 0.31097 0.23135 0.01743 0.0
H452 H 0.39497 0.24028 0.98134 0.0
H453 H 0.36796 0.25632 1.00168 0.0
H454 H 0.2313 0.30161 0.98801 0.0
H455 H 0.25854 0.28591 0.9676 0.0
C456 C 0.25115 0.3544 0.02229 0.0
C457 C 0.26348 0.32625 0.03221 0.0
C458 C 0.26072 0.33867 0.01068 0.0
C459 C 0.28308 0.29455 0.00873 0.0
C460 C 0.29413 0.26573 0.01866 0.0
C461 C 0.28425 0.28136 0.03029 0.0
C462 C 0.35898 0.25317 0.98269 0.0
C463 C 0.32896 0.26215 0.97288 0.0
C464 C 0.3434 0.26205 0.99435 0.0
C465 C 0.29755 0.28037 0.99645 0.0
C466 C 0.267 0.28796 0.98666 0.0
C467 C 0.28251 0.27879 0.97499 0.0
H468 H 0.59778 0.79341 0.27573 0.0
H469 H 0.73936 0.74315 0.2842 0.0
H470 H 0.624 0.81369 0.25557 0.0
H471 H 0.76532 0.76277 0.26374 0.0
H472 H 0.75525 0.76264 0.2198 0.0
H473 H 0.73618 0.73628 0.24026 0.0
H474 H 0.69171 0.87904 0.2492 0.0
H475 H 0.7115 0.90562 0.22904 0.0
C476 C 0.63439 0.78619 0.27324 0.0
C477 C 0.66662 0.76691 0.28156 0.0
C478 C 0.64933 0.7979 0.26172 0.0
C479 C 0.69659 0.78986 0.25818 0.0
C480 C 0.72863 0.76909 0.26631 0.0
C481 C 0.71384 0.7581 0.27797 0.0
C482 C 0.74189 0.78837 0.2262 0.0
C483 C 0.73471 0.83612 0.22283 0.0
C484 C 0.7312 0.77335 0.23787 0.0
C485 C 0.71234 0.8057 0.24621 0.0
C486 C 0.70602 0.85346 0.24289 0.0
C487 C 0.71746 0.86861 0.23136 0.0
H488 H 0.10312 0.19451 0.47776 0.0
H489 H 0.23472 0.26915 0.47055 0.0
H490 H 0.13133 0.17504 0.49778 0.0
H491 H 0.26264 0.25017 0.49089 0.0
H492 H 0.24949 0.24231 0.5347 0.0
H493 H 0.2297 0.2677 0.51422 0.0
H494 H 0.20637 0.12106 0.50423 0.0
H495 H 0.22671 0.0956 0.52443 0.0
C496 C 0.13793 0.20715 0.48049 0.0
C497 C 0.16684 0.23318 0.47258 0.0
C498 C 0.15406 0.19587 0.49193 0.0
C499 C 0.19913 0.21099 0.4958 0.0
C500 C 0.22768 0.23827 0.48807 0.0
C501 C 0.21182 0.2489 0.47647 0.0
C502 C 0.24073 0.21557 0.52807 0.0
C503 C 0.23936 0.16702 0.53117 0.0
C504 C 0.22964 0.23007 0.51638 0.0
C505 C 0.21631 0.19625 0.50774 0.0
C506 C 0.21627 0.14777 0.51078 0.0
C507 C 0.228 0.13327 0.52233 0.0
H508 H 0.79642 0.5955 0.72871 0.0
H509 H 0.74168 0.7355 0.72035 0.0
H510 H 0.81675 0.6224 0.74883 0.0
H511 H 0.76131 0.76211 0.74074 0.0
H512 H 0.76274 0.75481 0.78442 0.0
H513 H 0.73665 0.73406 0.76405 0.0
H514 H 0.87996 0.69076 0.75529 0.0
H515 H 0.90627 0.71223 0.77537 0.0
C516 C 0.7882 0.63187 0.73122 0.0
C517 C 0.76764 0.66349 0.72296 0.0
C518 C 0.79998 0.64723 0.74271 0.0
C519 C 0.79069 0.69427 0.74626 0.0
C520 C 0.76863 0.7256 0.73818 0.0
C521 C 0.75761 0.71045 0.72655 0.0
C522 C 0.78866 0.74136 0.77808 0.0
C523 C 0.83648 0.73504 0.78147 0.0
C524 C 0.77378 0.72967 0.76646 0.0
C525 C 0.80634 0.71063 0.7582 0.0
C526 C 0.85419 0.70512 0.76155 0.0
C527 C 0.8692 0.71758 0.77302 0.0
H528 H 0.08001 0.11878 0.18159 0.0
H529 H 0.14106 0.98512 0.19299 0.0
H530 H 0.00126 0.08247 0.18114 0.0
H531 H 0.06204 0.94915 0.19318 0.0
H532 H 0.92154 0.88484 0.18148 0.0
H533 H 1.00029 0.92117 0.18107 0.0
H534 H 0.93946 0.0543 0.19323 0.0
H535 H 0.86042 0.01832 0.19299 0.0
C536 C 0.07645 0.08166 0.1841 0.0
C537 C 0.11662 0.05473 0.18731 0.0
C538 C 0.03122 0.06086 0.18393 0.0
C539 C 0.02496 0.01278 0.18716 0.0
C540 C 0.06537 0.98597 0.19042 0.0
C541 C 0.11072 0.00663 0.1904 0.0
C542 C 0.9251 0.92191 0.18403 0.0
C543 C 0.88492 0.9488 0.18725 0.0
C544 C 0.97033 0.94273 0.18388 0.0
C545 C 0.97657 0.99076 0.18716 0.0
C546 C 0.93613 0.01752 0.19043 0.0
C547 C 0.89078 0.99686 0.19038 0.0
H548 H 0.98373 0.36304 0.44309 0.0
H549 H 0.12009 0.42464 0.43414 0.0
H550 H 0.9481 0.44221 0.44334 0.0
H551 H 0.08426 0.50361 0.43372 0.0
H552 H 0.01695 0.64396 0.4448 0.0
H553 H 0.05294 0.56493 0.44544 0.0
H554 H 0.92331 0.50445 0.431 0.0
H555 H 0.88684 0.58308 0.431 0.0
C556 C 0.00596 0.39357 0.44108 0.0
C557 C 0.05463 0.38775 0.43862 0.0
C558 C 0.98552 0.439 0.44113 0.0
C559 C 0.01315 0.47961 0.4385 0.0
C560 C 0.06194 0.47349 0.436 0.0
C561 C 0.08249 0.42814 0.43616 0.0
C562 C 0.99627 0.61367 0.44178 0.0
C563 C 0.94911 0.61959 0.43788 0.0
C564 C 0.01694 0.56833 0.44207 0.0
C565 C 0.99113 0.52799 0.43828 0.0
C566 C 0.94406 0.53431 0.43423 0.0
C567 C 0.9232 0.5795 0.43413 0.0
H568 H 0.359 0.5169 0.68365 0.0
H569 H 0.42162 0.3807 0.69236 0.0
H570 H 0.43805 0.55307 0.68346 0.0
H571 H 0.50043 0.41699 0.69262 0.0
H572 H 0.63897 0.48571 0.68025 0.0
H573 H 0.55988 0.44969 0.67993 0.0
H574 H 0.50133 0.57643 0.6963 0.0
H575 H 0.58009 0.61291 0.69618 0.0
C576 C 0.38967 0.49479 0.6856 0.0
C577 C 0.38416 0.446 0.688 0.0
C578 C 0.43499 0.51554 0.68557 0.0
C579 C 0.47578 0.48801 0.68804 0.0
C580 C 0.47003 0.43917 0.69048 0.0
C581 C 0.42478 0.41839 0.69042 0.0
C582 C 0.60915 0.50579 0.68377 0.0
C583 C 0.61568 0.55211 0.68822 0.0
C584 C 0.56382 0.48508 0.68366 0.0
C585 C 0.52406 0.5101 0.68809 0.0
C586 C 0.53086 0.55639 0.69262 0.0
C587 C 0.5761 0.57721 0.69263 0.0
H588 H 0.51653 0.14262 0.93342 0.0
H589 H 0.38042 0.08017 0.94231 0.0
H590 H 0.5526 0.06356 0.93319 0.0
H591 H 0.41663 0.00132 0.94254 0.0
H592 H 0.4852 0.86268 0.93019 0.0
H593 H 0.44914 0.94175 0.92985 0.0
H594 H 0.57609 1.00051 0.94608 0.0
H595 H 0.61261 0.92179 0.94596 0.0
C596 C 0.49442 0.11198 0.9354 0.0
C597 C 0.44568 0.11754 0.93786 0.0
C598 C 0.51511 0.06666 0.93535 0.0
C599 C 0.48758 0.02592 0.93787 0.0
C600 C 0.43879 0.0317 0.94037 0.0
C601 C 0.41806 0.07696 0.94032 0.0
C602 C 0.50532 0.89255 0.93367 0.0
C603 C 0.55171 0.88611 0.93808 0.0
C604 C 0.48459 0.93786 0.93355 0.0
C605 C 0.50966 0.97766 0.93794 0.0
C606 C 0.55601 0.97093 0.94243 0.0
C607 C 0.57686 0.92573 0.94244 0.0
H608 H 0.14196 0.51576 0.0603 0.0
H609 H 0.08167 0.38592 0.07443 0.0
H610 H 0.06297 0.55186 0.0599 0.0
H611 H 0.00306 0.42252 0.07467 0.0
H612 H 0.86134 0.48302 0.06251 0.0
H613 H 0.94039 0.44714 0.0624 0.0
H614 H 0.0021 0.58341 0.07176 0.0
H615 H 0.92324 0.61947 0.07123 0.0
C616 C 0.11181 0.49516 0.06345 0.0
C617 C 0.11788 0.44804 0.06736 0.0
C618 C 0.0665 0.51591 0.0633 0.0
C619 C 0.02632 0.49021 0.06725 0.0
C620 C 0.0328 0.44318 0.07132 0.0
C621 C 0.07796 0.42224 0.07128 0.0
C622 C 0.89189 0.50521 0.06452 0.0
C623 C 0.88619 0.554 0.06685 0.0
C624 C 0.93726 0.48462 0.06455 0.0
C625 C 0.97794 0.51224 0.0671 0.0
C626 C 0.97192 0.5611 0.06953 0.0
C627 C 0.92663 0.58178 0.06931 0.0
H628 H 0.61757 0.57688 0.31001 0.0
H629 H 0.48615 0.63816 0.32297 0.0
H630 H 0.58097 0.49815 0.30999 0.0
H631 H 0.44978 0.55915 0.32327 0.0
H632 H 0.38551 0.41867 0.31019 0.0
H633 H 0.42177 0.49762 0.31 0.0
H634 H 0.55302 0.43771 0.32353 0.0
H635 H 0.51706 0.35858 0.3234 0.0
C636 C 0.58089 0.57346 0.31291 0.0
C637 C 0.55469 0.61366 0.31648 0.0
C638 C 0.55999 0.52828 0.31297 0.0
C639 C 0.51245 0.52224 0.31666 0.0
C640 C 0.48627 0.56258 0.32023 0.0
C641 C 0.50715 0.60782 0.32012 0.0
C642 C 0.42212 0.42241 0.31311 0.0
C643 C 0.4485 0.38246 0.31679 0.0
C644 C 0.44282 0.4677 0.31308 0.0
C645 C 0.49032 0.47407 0.31676 0.0
C646 C 0.51659 0.43401 0.32047 0.0
C647 C 0.49593 0.38869 0.32046 0.0
H648 H 0.64447 0.0188 0.56146 0.0
H649 H 0.58332 0.88668 0.57394 0.0
H650 H 0.5655 0.05495 0.56113 0.0
H651 H 0.5047 0.92322 0.57423 0.0
H652 H 0.36404 0.98548 0.56182 0.0
H653 H 0.44316 0.94976 0.56183 0.0
H654 H 0.5036 0.08433 0.57307 0.0
H655 H 0.42471 0.12036 0.57243 0.0
C656 C 0.61414 0.9977 0.56426 0.0
C657 C 0.61995 0.94994 0.56768 0.0
C658 C 0.56884 0.01845 0.56416 0.0
C659 C 0.52843 0.99209 0.56765 0.0
C660 C 0.53465 0.94442 0.57124 0.0
C661 C 0.57981 0.92351 0.57117 0.0
C662 C 0.39433 0.00732 0.56428 0.0
C663 C 0.38831 0.05566 0.5671 0.0
C664 C 0.43972 0.98682 0.56437 0.0
C665 C 0.48005 0.01403 0.56748 0.0
C666 C 0.47369 0.0624 0.57041 0.0
C667 C 0.42839 0.08304 0.57013 0.0
H668 H 0.98689 0.14178 0.80891 0.0
H669 H 0.1144 0.08279 0.82465 0.0
H670 H 0.95103 0.06263 0.8085 0.0
H671 H 0.07803 0.00402 0.82474 0.0
H672 H 0.01894 0.86161 0.8123 0.0
H673 H 0.0549 0.94072 0.8121 0.0
H674 H 0.91827 0.00288 0.82087 0.0
H675 H 0.88221 0.92401 0.82055 0.0
C676 C 0.00704 0.11191 0.81238 0.0
C677 C 0.05342 0.1184 0.81679 0.0
C678 C 0.98644 0.06654 0.81222 0.0
C679 C 0.01157 0.02673 0.81659 0.0
C680 C 0.05789 0.03355 0.82109 0.0
C681 C 0.07865 0.0788 0.82113 0.0
C682 C 0.99668 0.89226 0.81416 0.0
C683 C 0.9478 0.88667 0.81642 0.0
C684 C 0.0173 0.93763 0.81412 0.0
C685 C 0.98957 0.97839 0.81649 0.0
C686 C 0.94063 0.97254 0.8188 0.0
C687 C 0.91997 0.92725 0.81871 0.0
H688 H 0.5794 0.88199 0.18065 0.0
H689 H 0.64035 0.01855 0.1897 0.0
H690 H 0.50026 0.91765 0.18014 0.0
H691 H 0.56115 0.05396 0.18976 0.0
H692 H 0.41914 0.11485 0.17863 0.0
H693 H 0.49767 0.07834 0.17762 0.0
H694 H 0.43994 0.94834 0.19254 0.0
H695 H 0.36088 0.98444 0.19298 0.0
C696 C 0.57579 0.91965 0.18258 0.0
C697 C 0.61601 0.94753 0.18519 0.0
C698 C 0.53036 0.94007 0.18238 0.0
C699 C 0.52403 0.98876 0.18495 0.0
C700 C 0.56453 0.01658 0.18753 0.0
C701 C 0.61 0.99626 0.18757 0.0
C702 C 0.42327 0.07839 0.18164 0.0
C703 C 0.38395 0.05248 0.1859 0.0
C704 C 0.4684 0.0575 0.18115 0.0
C705 C 0.47548 0.01038 0.18507 0.0
C706 C 0.43587 0.98442 0.18927 0.0
C707 C 0.39055 0.00515 0.18959 0.0
H708 H 0.88202 0.92295 0.42999 0.0
H709 H 0.0182 0.8647 0.44041 0.0
H710 H 0.91733 0.00198 0.42853 0.0
H711 H 0.0533 0.94409 0.43951 0.0
H712 H 0.114 0.08459 0.42706 0.0
H713 H 0.07805 0.0056 0.42663 0.0
H714 H 0.94658 0.06461 0.44036 0.0
H715 H 0.9821 0.14383 0.44025 0.0
C716 C 0.91951 0.92717 0.43204 0.0
C717 C 0.94737 0.88771 0.43533 0.0
C718 C 0.93974 0.97256 0.43128 0.0
C719 C 0.98822 0.97971 0.43394 0.0
C720 C 0.01607 0.93999 0.43719 0.0
C721 C 0.99593 0.89446 0.4378 0.0
C722 C 0.07727 0.08064 0.42988 0.0
C723 C 0.05082 0.12032 0.43369 0.0
C724 C 0.05674 0.03528 0.42974 0.0
C725 C 0.00942 0.02842 0.43354 0.0
C726 C 0.98284 0.06844 0.43719 0.0
C727 C 0.00323 0.11391 0.43719 0.0
H728 H 0.14102 0.51453 0.67962 0.0
H729 H 0.07885 0.38649 0.69429 0.0
H730 H 0.06215 0.55095 0.67859 0.0
H731 H 1.00039 0.42331 0.69376 0.0
H732 H 0.85988 0.48394 0.681 0.0
H733 H 0.93893 0.44788 0.68072 0.0
H734 H 0.001 0.58323 0.69069 0.0
H735 H 0.92219 0.61946 0.69048 0.0
C736 C 0.1105 0.49435 0.68271 0.0
C737 C 0.11605 0.44769 0.68702 0.0
C738 C 0.06529 0.51526 0.68219 0.0
C739 C 0.02469 0.49013 0.68608 0.0
C740 C 0.03055 0.44348 0.69046 0.0
C741 C 0.07563 0.42245 0.69086 0.0
C742 C 0.8905 0.50596 0.68307 0.0
C743 C 0.88487 0.55448 0.68576 0.0
C744 C 0.93584 0.48526 0.68299 0.0
C745 C 0.97654 0.51252 0.68574 0.0
C746 C 0.97071 0.56122 0.68835 0.0
C747 C 0.92545 0.58198 0.6883 0.0
H748 H 0.38676 0.42282 0.94447 0.0
H749 H 0.51466 0.36092 0.92964 0.0
H750 H 0.42356 0.5013 0.94396 0.0
H751 H 0.55105 0.43982 0.92865 0.0
H752 H 0.61948 0.57979 0.94058 0.0
H753 H 0.58336 0.50091 0.9408 0.0
H754 H 0.44789 0.56275 0.93086 0.0
H755 H 0.48382 0.64186 0.93113 0.0
C756 C 0.42268 0.42611 0.94101 0.0
C757 C 0.44789 0.38577 0.93711 0.0
C758 C 0.4437 0.47119 0.94063 0.0
C759 C 0.49028 0.47712 0.93621 0.0
C760 C 0.5154 0.4366 0.93227 0.0
C761 C 0.49451 0.39138 0.93278 0.0
C762 C 0.58199 0.57646 0.93842 0.0
C763 C 0.55441 0.61698 0.93588 0.0
C764 C 0.5613 0.53117 0.93847 0.0
C765 C 0.51261 0.52528 0.93587 0.0
C766 C 0.48527 0.56592 0.93313 0.0
C767 C 0.50589 0.61128 0.9332 0.0
H768 H 0.64124 0.48355 0.0637 0.0
H769 H 0.58126 0.61772 0.07511 0.0
H770 H 0.56207 0.448 0.06372 0.0
H771 H 0.50225 0.5818 0.07571 0.0
H772 H 0.36153 0.51799 0.06294 0.0
H773 H 0.44064 0.55394 0.06331 0.0
H774 H 0.49987 0.42077 0.07591 0.0
H775 H 0.42118 0.38453 0.07496 0.0
C776 C 0.61113 0.50524 0.06637 0.0
C777 C 0.61736 0.55339 0.06937 0.0
C778 C 0.56569 0.48483 0.06646 0.0
C779 C 0.52548 0.51194 0.06972 0.0
C780 C 0.53208 0.55999 0.07293 0.0
C781 C 0.57745 0.58054 0.07268 0.0
C782 C 0.39154 0.49653 0.0658 0.0
C783 C 0.38527 0.44845 0.06887 0.0
C784 C 0.43691 0.51717 0.06609 0.0
C785 C 0.47693 0.49032 0.06962 0.0
C786 C 0.47023 0.44237 0.0729 0.0
C787 C 0.42502 0.42162 0.07245 0.0
H788 H 0.51972 0.13735 0.31191 0.0
H789 H 0.39018 0.07928 0.32683 0.0
H790 H 0.55567 0.0582 0.31216 0.0
H791 H 0.42651 1.00054 0.32753 0.0
H792 H 0.48564 0.85844 0.31441 0.0
H793 H 0.45036 0.93777 0.31466 0.0
H794 H 0.58636 0.99765 0.32489 0.0
H795 H 0.62188 0.91844 0.32419 0.0
C796 C 0.49916 0.10772 0.31537 0.0
C797 C 0.45213 0.11442 0.31931 0.0
C798 C 0.51981 0.06237 0.31558 0.0
C799 C 0.49399 0.02281 0.31984 0.0
C800 C 0.44718 0.0299 0.32398 0.0
C801 C 0.42643 0.07512 0.32366 0.0
C802 C 0.50791 0.88857 0.31674 0.0
C803 C 0.5565 0.88228 0.31926 0.0
C804 C 0.48766 0.93407 0.31695 0.0
C805 C 0.51547 0.97427 0.3198 0.0
C806 C 0.56402 0.9677 0.32247 0.0
C807 C 0.58433 0.92225 0.32215 0.0
H808 H 0.92323 0.88642 0.57482 0.0
H809 H 0.86353 0.01908 0.56227 0.0
H810 H 0.00194 0.92271 0.57558 0.0
H811 H 0.94264 0.05502 0.56244 0.0
H812 H 0.08308 0.11963 0.5741 0.0
H813 H 0.00409 0.08371 0.57474 0.0
H814 H 0.0642 0.94925 0.56332 0.0
H815 H 0.14337 0.98485 0.56327 0.0
C816 C 0.92707 0.92333 0.57215 0.0
C817 C 0.8873 0.94995 0.56848 0.0
C818 C 0.97229 0.9441 0.5725 0.0
C819 C 0.97896 0.99183 0.56901 0.0
C820 C 0.93892 0.01844 0.56538 0.0
C821 C 0.89356 0.99781 0.5652 0.0
C822 C 0.07933 0.08232 0.57179 0.0
C823 C 0.11932 0.05499 0.56865 0.0
C824 C 0.03398 0.06176 0.57206 0.0
C825 C 0.02748 0.01351 0.56904 0.0
C826 C 0.06775 0.98625 0.56591 0.0
C827 C 0.11318 0.00668 0.56581 0.0
H828 H 0.8811 0.57988 0.81412 0.0
H829 H 0.016 0.64198 0.82425 0.0
H830 H 0.91719 0.50097 0.81413 0.0
H831 H 0.05192 0.56282 0.82465 0.0
H832 H 0.11297 0.42322 0.81039 0.0
H833 H 0.07627 0.50171 0.81112 0.0
H834 H 0.94944 0.44004 0.82671 0.0
H835 H 0.98583 0.3611 0.8256 0.0
C836 C 0.9184 0.57658 0.81647 0.0
C837 C 0.94579 0.61711 0.81914 0.0
C838 C 0.93905 0.53128 0.81655 0.0
C839 C 0.98753 0.52543 0.81937 0.0
C840 C 0.01469 0.56604 0.82224 0.0
C841 C 0.99407 0.6114 0.82209 0.0
C842 C 0.07723 0.42643 0.81397 0.0
C843 C 0.05221 0.38602 0.81791 0.0
C844 C 0.0563 0.47152 0.81448 0.0
C845 C 0.00992 0.47735 0.81902 0.0
C846 C 0.98497 0.43682 0.82301 0.0
C847 C 0.00586 0.3916 0.82243 0.0
loop_
_geom_bond_atom_site_label_1
_geom_bond_atom_site_label_2
_geom_bond_distance
_geom_bond_site_symmetry_2
_ccdc_geom_bond_type
In0 O1 2.294 . S
In0 O2 2.326 . S
In0 O6 2.266 . S
In0 O7 2.326 . S
In0 O8 2.266 . S
In0 O9 2.326 . S
In0 O11 2.294 . S
In0 O12 2.326 . S
O1 In0 2.294 . S
O1 C10 1.240 . S
O2 In0 2.326 . S
O2 C10 1.252 . S
C3 O6 1.252 . S
C3 O7 1.260 . S
C4 O11 1.240 . S
C4 O12 1.252 . S
C5 O8 1.252 . S
C5 O9 1.260 . S
O6 In0 2.266 . S
O6 C3 1.252 . S
O7 In0 2.326 . S
O7 C3 1.260 . S
O8 In0 2.266 . S
O8 C5 1.252 . S
O9 In0 2.326 . S
O9 C5 1.260 . S
C10 O1 1.240 . S
C10 O2 1.252 . S
O11 In0 2.294 . S
O11 C4 1.240 . S
O12 In0 2.326 . S
O12 C4 1.252 . S
In13 O14 2.294 . S
In13 O15 2.326 . S
In13 O19 2.266 . S
In13 O20 2.326 . S
In13 O21 2.266 . S
In13 O22 2.326 . S
In13 O24 2.294 . S
In13 O25 2.326 . S
O14 In13 2.294 . S
O14 C23 1.240 . S
O15 In13 2.326 . S
O15 C23 1.252 . S
C16 O19 1.252 . S
C16 O20 1.260 . S
C17 O24 1.240 . S
C17 O25 1.252 . S
C18 O21 1.252 . S
C18 O22 1.260 . S
O19 In13 2.266 . S
O19 C16 1.252 . S
O20 In13 2.326 . S
O20 C16 1.260 . S
O21 In13 2.266 . S
O21 C18 1.252 . S
O22 In13 2.326 . S
O22 C18 1.260 . S
C23 O14 1.240 . S
C23 O15 1.252 . S
O24 In13 2.294 . S
O24 C17 1.240 . S
O25 In13 2.326 . S
O25 C17 1.252 . S
In26 O27 2.294 . S
In26 O28 2.326 . S
In26 O32 2.266 . S
In26 O33 2.326 . S
In26 O34 2.266 . S
In26 O35 2.326 . S
In26 O37 2.294 . S
In26 O38 2.326 . S
O27 In26 2.294 . S
O27 C36 1.240 . S
O28 In26 2.326 . S
O28 C36 1.252 . S
C29 O32 1.252 . S
C29 O33 1.260 . S
C30 O37 1.240 . S
C30 O38 1.252 . S
C31 O34 1.252 . S
C31 O35 1.260 . S
O32 In26 2.266 . S
O32 C29 1.252 . S
O33 In26 2.326 . S
O33 C29 1.260 . S
O34 In26 2.266 . S
O34 C31 1.252 . S
O35 In26 2.326 . S
O35 C31 1.260 . S
C36 O27 1.240 . S
C36 O28 1.252 . S
O37 In26 2.294 . S
O37 C30 1.240 . S
O38 In26 2.326 . S
O38 C30 1.252 . S
In39 O40 2.294 . S
In39 O41 2.326 . S
In39 O45 2.266 . S
In39 O46 2.326 . S
In39 O47 2.266 . S
In39 O48 2.326 . S
In39 O50 2.294 . S
In39 O51 2.326 . S
O40 In39 2.294 . S
O40 C49 1.240 . S
O41 In39 2.326 . S
O41 C49 1.252 . S
C42 O45 1.252 . S
C42 O46 1.260 . S
C43 O50 1.240 . S
C43 O51 1.252 . S
C44 O47 1.252 . S
C44 O48 1.260 . S
O45 In39 2.266 . S
O45 C42 1.252 . S
O46 In39 2.326 . S
O46 C42 1.260 . S
O47 In39 2.266 . S
O47 C44 1.252 . S
O48 In39 2.326 . S
O48 C44 1.260 . S
C49 O40 1.240 . S
C49 O41 1.252 . S
O50 In39 2.294 . S
O50 C43 1.240 . S
O51 In39 2.326 . S
O51 C43 1.252 . S
In52 O53 2.294 . S
In52 O54 2.326 . S
In52 O58 2.266 . S
In52 O59 2.326 . S
In52 O60 2.266 . S
In52 O61 2.326 . S
In52 O63 2.294 . S
In52 O64 2.326 . S
O53 In52 2.294 . S
O53 C62 1.240 . S
O54 In52 2.326 . S
O54 C62 1.252 . S
C55 O58 1.252 . S
C55 O59 1.260 . S
C56 O63 1.240 . S
C56 O64 1.252 . S
C57 O60 1.252 . S
C57 O61 1.260 . S
O58 In52 2.266 . S
O58 C55 1.252 . S
O59 In52 2.326 . S
O59 C55 1.260 . S
O60 In52 2.266 . S
O60 C57 1.252 . S
O61 In52 2.326 . S
O61 C57 1.260 . S
C62 O53 1.240 . S
C62 O54 1.252 . S
O63 In52 2.294 . S
O63 C56 1.240 . S
O64 In52 2.326 . S
O64 C56 1.252 . S
In65 O66 2.294 . S
In65 O67 2.326 . S
In65 O71 2.266 . S
In65 O72 2.326 . S
In65 O73 2.266 . S
In65 O74 2.326 . S
In65 O76 2.294 . S
In65 O77 2.326 . S
O66 In65 2.294 . S
O66 C75 1.240 . S
O67 In65 2.326 . S
O67 C75 1.252 . S
C68 O71 1.252 . S
C68 O72 1.260 . S
C69 O76 1.240 . S
C69 O77 1.252 . S
C70 O73 1.252 . S
C70 O74 1.260 . S
O71 In65 2.266 . S
O71 C68 1.252 . S
O72 In65 2.326 . S
O72 C68 1.260 . S
O73 In65 2.266 . S
O73 C70 1.252 . S
O74 In65 2.326 . S
O74 C70 1.260 . S
C75 O66 1.240 . S
C75 O67 1.252 . S
O76 In65 2.294 . S
O76 C69 1.240 . S
O77 In65 2.326 . S
O77 C69 1.252 . S
In78 O79 2.294 . S
In78 O80 2.326 . S
In78 O84 2.266 . S
In78 O85 2.326 . S
In78 O86 2.266 . S
In78 O87 2.326 . S
In78 O89 2.294 . S
In78 O90 2.326 . S
O79 In78 2.294 . S
O79 C88 1.240 . S
O80 In78 2.326 . S
O80 C88 1.252 . S
C81 O84 1.252 . S
C81 O85 1.260 . S
C82 O89 1.240 . S
C82 O90 1.252 . S
C83 O86 1.252 . S
C83 O87 1.260 . S
O84 In78 2.266 . S
O84 C81 1.252 . S
O85 In78 2.326 . S
O85 C81 1.260 . S
O86 In78 2.266 . S
O86 C83 1.252 . S
O87 In78 2.326 . S
O87 C83 1.260 . S
C88 O79 1.240 . S
C88 O80 1.252 . S
O89 In78 2.294 . S
O89 C82 1.240 . S
O90 In78 2.326 . S
O90 C82 1.252 . S
In91 O92 2.294 . S
In91 O93 2.326 . S
In91 O97 2.266 . S
In91 O98 2.326 . S
In91 O99 2.266 . S
In91 O100 2.326 . S
In91 O102 2.294 . S
In91 O103 2.326 . S
O92 In91 2.294 . S
O92 C101 1.240 . S
O93 In91 2.326 . S
O93 C101 1.252 . S
C94 O97 1.252 . S
C94 O98 1.260 . S
C95 O102 1.240 . S
C95 O103 1.252 . S
C96 O99 1.252 . S
C96 O100 1.260 . S
O97 In91 2.266 . S
O97 C94 1.252 . S
O98 In91 2.326 . S
O98 C94 1.260 . S
O99 In91 2.266 . S
O99 C96 1.252 . S
O100 In91 2.326 . S
O100 C96 1.260 . S
C101 O92 1.240 . S
C101 O93 1.252 . S
O102 In91 2.294 . S
O102 C95 1.240 . S
O103 In91 2.326 . S
O103 C95 1.252 . S
In104 O105 2.294 . S
In104 O106 2.326 . S
In104 O110 2.266 . S
In104 O111 2.326 . S
In104 O112 2.266 . S
In104 O113 2.326 . S
In104 O115 2.294 . S
In104 O116 2.326 . S
O105 In104 2.294 . S
O105 C114 1.240 . S
O106 In104 2.326 . S
O106 C114 1.252 . S
C107 O110 1.252 . S
C107 O111 1.260 . S
C108 O115 1.240 . S
C108 O116 1.252 . S
C109 O112 1.252 . S
C109 O113 1.260 . S
O110 In104 2.266 . S
O110 C107 1.252 . S
O111 In104 2.326 . S
O111 C107 1.260 . S
O112 In104 2.266 . S
O112 C109 1.252 . S
O113 In104 2.326 . S
O113 C109 1.260 . S
C114 O105 1.240 . S
C114 O106 1.252 . S
O115 In104 2.294 . S
O115 C108 1.240 . S
O116 In104 2.326 . S
O116 C108 1.252 . S
In117 O118 2.294 . S
In117 O119 2.326 . S
In117 O123 2.266 . S
In117 O124 2.326 . S
In117 O125 2.266 . S
In117 O126 2.326 . S
In117 O128 2.294 . S
In117 O129 2.326 . S
O118 In117 2.294 . S
O118 C127 1.240 . S
O119 In117 2.326 . S
O119 C127 1.252 . S
C120 O123 1.252 . S
C120 O124 1.260 . S
C121 O128 1.240 . S
C121 O129 1.252 . S
C122 O125 1.252 . S
C122 O126 1.260 . S
O123 In117 2.266 . S
O123 C120 1.252 . S
O124 In117 2.326 . S
O124 C120 1.260 . S
O125 In117 2.266 . S
O125 C122 1.252 . S
O126 In117 2.326 . S
O126 C122 1.260 . S
C127 O118 1.240 . S
C127 O119 1.252 . S
O128 In117 2.294 . S
O128 C121 1.240 . S
O129 In117 2.326 . S
O129 C121 1.252 . S
In130 O131 2.294 . S
In130 O132 2.326 . S
In130 O136 2.266 . S
In130 O137 2.326 . S
In130 O138 2.266 . S
In130 O139 2.326 . S
In130 O141 2.294 . S
In130 O142 2.326 . S
O131 In130 2.294 . S
O131 C140 1.240 . S
O132 In130 2.326 . S
O132 C140 1.252 . S
C133 O136 1.252 . S
C133 O137 1.260 . S
C134 O141 1.240 . S
C134 O142 1.252 . S
C135 O138 1.252 . S
C135 O139 1.260 . S
O136 In130 2.266 . S
O136 C133 1.252 . S
O137 In130 2.326 . S
O137 C133 1.260 . S
O138 In130 2.266 . S
O138 C135 1.252 . S
O139 In130 2.326 . S
O139 C135 1.260 . S
C140 O131 1.240 . S
C140 O132 1.252 . S
O141 In130 2.294 . S
O141 C134 1.240 . S
O142 In130 2.326 . S
O142 C134 1.252 . S
In143 O144 2.294 . S
In143 O145 2.326 . S
In143 O149 2.266 . S
In143 O150 2.326 . S
In143 O151 2.266 . S
In143 O152 2.326 . S
In143 O154 2.294 . S
In143 O155 2.326 . S
O144 In143 2.294 . S
O144 C153 1.240 . S
O145 In143 2.326 . S
O145 C153 1.252 . S
C146 O149 1.252 . S
C146 O150 1.260 . S
C147 O154 1.240 . S
C147 O155 1.252 . S
C148 O151 1.252 . S
C148 O152 1.260 . S
O149 In143 2.266 . S
O149 C146 1.252 . S
O150 In143 2.326 . S
O150 C146 1.260 . S
O151 In143 2.266 . S
O151 C148 1.252 . S
O152 In143 2.326 . S
O152 C148 1.260 . S
C153 O144 1.240 . S
C153 O145 1.252 . S
O154 In143 2.294 . S
O154 C147 1.240 . S
O155 In143 2.326 . S
O155 C147 1.252 . S
In156 O157 2.294 . S
In156 O158 2.326 . S
In156 O162 2.266 . S
In156 O163 2.326 . S
In156 O164 2.266 . S
In156 O165 2.326 . S
In156 O167 2.294 . S
In156 O168 2.326 . S
O157 In156 2.294 . S
O157 C166 1.240 . S
O158 In156 2.326 . S
O158 C166 1.252 . S
C159 O162 1.252 . S
C159 O163 1.260 . S
C160 O167 1.240 . S
C160 O168 1.252 . S
C161 O164 1.252 . S
C161 O165 1.260 . S
O162 In156 2.266 . S
O162 C159 1.252 . S
O163 In156 2.326 . S
O163 C159 1.260 . S
O164 In156 2.266 . S
O164 C161 1.252 . S
O165 In156 2.326 . S
O165 C161 1.260 . S
C166 O157 1.240 . S
C166 O158 1.252 . S
O167 In156 2.294 . S
O167 C160 1.240 . S
O168 In156 2.326 . S
O168 C160 1.252 . S
In169 O170 2.294 . S
In169 O171 2.326 . S
In169 O175 2.266 . S
In169 O176 2.326 . S
In169 O177 2.266 . S
In169 O178 2.326 . S
In169 O180 2.294 . S
In169 O181 2.326 . S
O170 In169 2.294 . S
O170 C179 1.240 . S
O171 In169 2.326 . S
O171 C179 1.252 . S
C172 O175 1.252 . S
C172 O176 1.260 . S
C173 O180 1.240 . S
C173 O181 1.252 . S
C174 O177 1.252 . S
C174 O178 1.260 . S
O175 In169 2.266 . S
O175 C172 1.252 . S
O176 In169 2.326 . S
O176 C172 1.260 . S
O177 In169 2.266 . S
O177 C174 1.252 . S
O178 In169 2.326 . S
O178 C174 1.260 . S
C179 O170 1.240 . S
C179 O171 1.252 . S
O180 In169 2.294 . S
O180 C173 1.240 . S
O181 In169 2.326 . S
O181 C173 1.252 . S
In182 O183 2.294 . S
In182 O184 2.326 . S
In182 O188 2.266 . S
In182 O189 2.326 . S
In182 O190 2.266 . S
In182 O191 2.326 . S
In182 O193 2.294 . S
In182 O194 2.326 . S
O183 In182 2.294 . S
O183 C192 1.240 . S
O184 In182 2.326 . S
O184 C192 1.252 . S
C185 O188 1.252 . S
C185 O189 1.260 . S
C186 O193 1.240 . S
C186 O194 1.252 . S
C187 O190 1.252 . S
C187 O191 1.260 . S
O188 In182 2.266 . S
O188 C185 1.252 . S
O189 In182 2.326 . S
O189 C185 1.260 . S
O190 In182 2.266 . S
O190 C187 1.252 . S
O191 In182 2.326 . S
O191 C187 1.260 . S
C192 O183 1.240 . S
C192 O184 1.252 . S
O193 In182 2.294 . S
O193 C186 1.240 . S
O194 In182 2.326 . S
O194 C186 1.252 . S
In195 O196 2.294 . S
In195 O197 2.326 . S
In195 O201 2.266 . S
In195 O202 2.326 . S
In195 O203 2.266 . S
In195 O204 2.326 . S
In195 O206 2.294 . S
In195 O207 2.326 . S
O196 In195 2.294 . S
O196 C205 1.240 . S
O197 In195 2.326 . S
O197 C205 1.252 . S
C198 O201 1.252 . S
C198 O202 1.260 . S
C199 O206 1.240 . S
C199 O207 1.252 . S
C200 O203 1.252 . S
C200 O204 1.260 . S
O201 In195 2.266 . S
O201 C198 1.252 . S
O202 In195 2.326 . S
O202 C198 1.260 . S
O203 In195 2.266 . S
O203 C200 1.252 . S
O204 In195 2.326 . S
O204 C200 1.260 . S
C205 O196 1.240 . S
C205 O197 1.252 . S
O206 In195 2.294 . S
O206 C199 1.240 . S
O207 In195 2.326 . S
O207 C199 1.252 . S
H208 C216 0.950 . S
H209 C221 0.950 . S
H210 C218 0.950 . S
H211 C220 0.950 . S
H212 C222 0.950 . S
H213 C224 0.950 . S
H214 C226 0.950 . S
H215 C227 0.950 . S
C216 H208 0.950 . S
C216 C217 1.386 . S
C216 C218 1.391 . S
C217 C216 1.386 . S
C217 C221 1.393 . S
C218 H210 0.950 . S
C218 C216 1.391 . S
C218 C219 1.400 . S
C219 C218 1.400 . S
C219 C220 1.398 . S
C219 C225 1.491 . S
C220 H211 0.950 . S
C220 C219 1.398 . S
C220 C221 1.391 . S
C221 H209 0.950 . S
C221 C217 1.393 . S
C221 C220 1.391 . S
C222 H212 0.950 . S
C222 C223 1.386 . S
C222 C224 1.391 . S
C223 C222 1.386 . S
C223 C227 1.393 . S
C224 H213 0.950 . S
C224 C222 1.391 . S
C224 C225 1.400 . S
C225 C219 1.491 . S
C225 C224 1.400 . S
C225 C226 1.398 . S
C226 H214 0.950 . S
C226 C225 1.398 . S
C226 C227 1.391 . S
C227 H215 0.950 . S
C227 C223 1.393 . S
C227 C226 1.391 . S
H228 C236 0.950 . S
H229 C241 0.950 . S
H230 C238 0.950 . S
H231 C240 0.950 . S
H232 C242 0.950 . S
H233 C244 0.950 . S
H234 C246 0.950 . S
H235 C247 0.950 . S
C236 H228 0.950 . S
C236 C237 1.386 . S
C236 C238 1.391 . S
C237 C236 1.386 . S
C237 C241 1.393 . S
C238 H230 0.950 . S
C238 C236 1.391 . S
C238 C239 1.400 . S
C239 C238 1.400 . S
C239 C240 1.398 . S
C239 C245 1.491 . S
C240 H231 0.950 . S
C240 C239 1.398 . S
C240 C241 1.391 . S
C241 H229 0.950 . S
C241 C237 1.393 . S
C241 C240 1.391 . S
C242 H232 0.950 . S
C242 C243 1.386 . S
C242 C244 1.391 . S
C243 C242 1.386 . S
C243 C247 1.393 . S
C244 H233 0.950 . S
C244 C242 1.391 . S
C244 C245 1.400 . S
C245 C239 1.491 . S
C245 C244 1.400 . S
C245 C246 1.398 . S
C246 H234 0.950 . S
C246 C245 1.398 . S
C246 C247 1.391 . S
C247 H235 0.950 . S
C247 C243 1.393 . S
C247 C246 1.391 . S
H248 C256 0.950 . S
H249 C261 0.950 . S
H250 C258 0.950 . S
H251 C260 0.950 . S
H252 C262 0.950 . S
H253 C264 0.950 . S
H254 C266 0.950 . S
H255 C267 0.950 . S
C256 H248 0.950 . S
C256 C257 1.386 . S
C256 C258 1.391 . S
C257 C256 1.386 . S
C257 C261 1.393 . S
C258 H250 0.950 . S
C258 C256 1.391 . S
C258 C259 1.400 . S
C259 C258 1.400 . S
C259 C260 1.398 . S
C259 C265 1.491 . S
C260 H251 0.950 . S
C260 C259 1.398 . S
C260 C261 1.391 . S
C261 H249 0.950 . S
C261 C257 1.393 . S
C261 C260 1.391 . S
C262 H252 0.950 . S
C262 C263 1.386 . S
C262 C264 1.391 . S
C263 C262 1.386 . S
C263 C267 1.393 . S
C264 H253 0.950 . S
C264 C262 1.391 . S
C264 C265 1.400 . S
C265 C259 1.491 . S
C265 C264 1.400 . S
C265 C266 1.398 . S
C266 H254 0.950 . S
C266 C265 1.398 . S
C266 C267 1.391 . S
C267 H255 0.950 . S
C267 C263 1.393 . S
C267 C266 1.391 . S
H268 C276 0.950 . S
H269 C281 0.950 . S
H270 C278 0.950 . S
H271 C280 0.950 . S
H272 C282 0.950 . S
H273 C284 0.950 . S
H274 C286 0.950 . S
H275 C287 0.950 . S
C276 H268 0.950 . S
C276 C277 1.386 . S
C276 C278 1.391 . S
C277 C276 1.386 . S
C277 C281 1.393 . S
C278 H270 0.950 . S
C278 C276 1.391 . S
C278 C279 1.400 . S
C279 C278 1.400 . S
C279 C280 1.398 . S
C279 C285 1.491 . S
C280 H271 0.950 . S
C280 C279 1.398 . S
C280 C281 1.391 . S
C281 H269 0.950 . S
C281 C277 1.393 . S
C281 C280 1.391 . S
C282 H272 0.950 . S
C282 C283 1.386 . S
C282 C284 1.391 . S
C283 C282 1.386 . S
C283 C287 1.393 . S
C284 H273 0.950 . S
C284 C282 1.391 . S
C284 C285 1.400 . S
C285 C279 1.491 . S
C285 C284 1.400 . S
C285 C286 1.398 . S
C286 H274 0.950 . S
C286 C285 1.398 . S
C286 C287 1.391 . S
C287 H275 0.950 . S
C287 C283 1.393 . S
C287 C286 1.391 . S
H288 C296 0.950 . S
H289 C301 0.950 . S
H290 C298 0.950 . S
H291 C300 0.950 . S
H292 C302 0.950 . S
H293 C304 0.950 . S
H294 C306 0.950 . S
H295 C307 0.950 . S
C296 H288 0.950 . S
C296 C297 1.386 . S
C296 C298 1.391 . S
C297 C296 1.386 . S
C297 C301 1.393 . S
C298 H290 0.950 . S
C298 C296 1.391 . S
C298 C299 1.400 . S
C299 C298 1.400 . S
C299 C300 1.398 . S
C299 C305 1.491 . S
C300 H291 0.950 . S
C300 C299 1.398 . S
C300 C301 1.391 . S
C301 H289 0.950 . S
C301 C297 1.393 . S
C301 C300 1.391 . S
C302 H292 0.950 . S
C302 C303 1.386 . S
C302 C304 1.391 . S
C303 C302 1.386 . S
C303 C307 1.393 . S
C304 H293 0.950 . S
C304 C302 1.391 . S
C304 C305 1.400 . S
C305 C299 1.491 . S
C305 C304 1.400 . S
C305 C306 1.398 . S
C306 H294 0.950 . S
C306 C305 1.398 . S
C306 C307 1.391 . S
C307 H295 0.950 . S
C307 C303 1.393 . S
C307 C306 1.391 . S
H308 C316 0.950 . S
H309 C321 0.950 . S
H310 C318 0.950 . S
H311 C320 0.950 . S
H312 C322 0.950 . S
H313 C324 0.950 . S
H314 C326 0.950 . S
H315 C327 0.950 . S
C316 H308 0.950 . S
C316 C317 1.386 . S
C316 C318 1.391 . S
C317 C316 1.386 . S
C317 C321 1.393 . S
C318 H310 0.950 . S
C318 C316 1.391 . S
C318 C319 1.400 . S
C319 C318 1.400 . S
C319 C320 1.398 . S
C319 C325 1.491 . S
C320 H311 0.950 . S
C320 C319 1.398 . S
C320 C321 1.391 . S
C321 H309 0.950 . S
C321 C317 1.393 . S
C321 C320 1.391 . S
C322 H312 0.950 . S
C322 C323 1.386 . S
C322 C324 1.391 . S
C323 C322 1.386 . S
C323 C327 1.393 . S
C324 H313 0.950 . S
C324 C322 1.391 . S
C324 C325 1.400 . S
C325 C319 1.491 . S
C325 C324 1.400 . S
C325 C326 1.398 . S
C326 H314 0.950 . S
C326 C325 1.398 . S
C326 C327 1.391 . S
C327 H315 0.950 . S
C327 C323 1.393 . S
C327 C326 1.391 . S
H328 C336 0.950 . S
H329 C341 0.950 . S
H330 C338 0.950 . S
H331 C340 0.950 . S
H332 C342 0.950 . S
H333 C344 0.950 . S
H334 C346 0.950 . S
H335 C347 0.950 . S
C336 H328 0.950 . S
C336 C337 1.386 . S
C336 C338 1.391 . S
C337 C336 1.386 . S
C337 C341 1.393 . S
C338 H330 0.950 . S
C338 C336 1.391 . S
C338 C339 1.400 . S
C339 C338 1.400 . S
C339 C340 1.398 . S
C339 C345 1.491 . S
C340 H331 0.950 . S
C340 C339 1.398 . S
C340 C341 1.391 . S
C341 H329 0.950 . S
C341 C337 1.393 . S
C341 C340 1.391 . S
C342 H332 0.950 . S
C342 C343 1.386 . S
C342 C344 1.391 . S
C343 C342 1.386 . S
C343 C347 1.393 . S
C344 H333 0.950 . S
C344 C342 1.391 . S
C344 C345 1.400 . S
C345 C339 1.491 . S
C345 C344 1.400 . S
C345 C346 1.398 . S
C346 H334 0.950 . S
C346 C345 1.398 . S
C346 C347 1.391 . S
C347 H335 0.950 . S
C347 C343 1.393 . S
C347 C346 1.391 . S
H348 C356 0.950 . S
H349 C361 0.950 . S
H350 C358 0.950 . S
H351 C360 0.950 . S
H352 C362 0.950 . S
H353 C364 0.950 . S
H354 C366 0.950 . S
H355 C367 0.950 . S
C356 H348 0.950 . S
C356 C357 1.386 . S
C356 C358 1.391 . S
C357 C356 1.386 . S
C357 C361 1.393 . S
C358 H350 0.950 . S
C358 C356 1.391 . S
C358 C359 1.400 . S
C359 C358 1.400 . S
C359 C360 1.398 . S
C359 C365 1.491 . S
C360 H351 0.950 . S
C360 C359 1.398 . S
C360 C361 1.391 . S
C361 H349 0.950 . S
C361 C357 1.393 . S
C361 C360 1.391 . S
C362 H352 0.950 . S
C362 C363 1.386 . S
C362 C364 1.391 . S
C363 C362 1.386 . S
C363 C367 1.393 . S
C364 H353 0.950 . S
C364 C362 1.391 . S
C364 C365 1.400 . S
C365 C359 1.491 . S
C365 C364 1.400 . S
C365 C366 1.398 . S
C366 H354 0.950 . S
C366 C365 1.398 . S
C366 C367 1.391 . S
C367 H355 0.950 . S
C367 C363 1.393 . S
C367 C366 1.391 . S
H368 C376 0.950 . S
H369 C381 0.950 . S
H370 C378 0.950 . S
H371 C380 0.950 . S
H372 C382 0.950 . S
H373 C384 0.950 . S
H374 C386 0.950 . S
H375 C387 0.950 . S
C376 H368 0.950 . S
C376 C377 1.386 . S
C376 C378 1.391 . S
C377 C376 1.386 . S
C377 C381 1.393 . S
C378 H370 0.950 . S
C378 C376 1.391 . S
C378 C379 1.400 . S
C379 C378 1.400 . S
C379 C380 1.398 . S
C379 C385 1.491 . S
C380 H371 0.950 . S
C380 C379 1.398 . S
C380 C381 1.391 . S
C381 H369 0.950 . S
C381 C377 1.393 . S
C381 C380 1.391 . S
C382 H372 0.950 . S
C382 C383 1.386 . S
C382 C384 1.391 . S
C383 C382 1.386 . S
C383 C387 1.393 . S
C384 H373 0.950 . S
C384 C382 1.391 . S
C384 C385 1.400 . S
C385 C379 1.491 . S
C385 C384 1.400 . S
C385 C386 1.398 . S
C386 H374 0.950 . S
C386 C385 1.398 . S
C386 C387 1.391 . S
C387 H375 0.950 . S
C387 C383 1.393 . S
C387 C386 1.391 . S
H388 C396 0.950 . S
H389 C401 0.950 . S
H390 C398 0.950 . S
H391 C400 0.950 . S
H392 C402 0.950 . S
H393 C404 0.950 . S
H394 C406 0.950 . S
H395 C407 0.950 . S
C396 H388 0.950 . S
C396 C397 1.386 . S
C396 C398 1.391 . S
C397 C396 1.386 . S
C397 C401 1.393 . S
C398 H390 0.950 . S
C398 C396 1.391 . S
C398 C399 1.400 . S
C399 C398 1.400 . S
C399 C400 1.398 . S
C399 C405 1.491 . S
C400 H391 0.950 . S
C400 C399 1.398 . S
C400 C401 1.391 . S
C401 H389 0.950 . S
C401 C397 1.393 . S
C401 C400 1.391 . S
C402 H392 0.950 . S
C402 C403 1.386 . S
C402 C404 1.391 . S
C403 C402 1.386 . S
C403 C407 1.393 . S
C404 H393 0.950 . S
C404 C402 1.391 . S
C404 C405 1.400 . S
C405 C399 1.491 . S
C405 C404 1.400 . S
C405 C406 1.398 . S
C406 H394 0.950 . S
C406 C405 1.398 . S
C406 C407 1.391 . S
C407 H395 0.950 . S
C407 C403 1.393 . S
C407 C406 1.391 . S
H408 C416 0.950 . S
H409 C421 0.950 . S
H410 C418 0.950 . S
H411 C420 0.950 . S
H412 C422 0.950 . S
H413 C424 0.950 . S
H414 C426 0.950 . S
H415 C427 0.950 . S
C416 H408 0.950 . S
C416 C417 1.386 . S
C416 C418 1.391 . S
C417 C416 1.386 . S
C417 C421 1.393 . S
C418 H410 0.950 . S
C418 C416 1.391 . S
C418 C419 1.400 . S
C419 C418 1.400 . S
C419 C420 1.398 . S
C419 C425 1.491 . S
C420 H411 0.950 . S
C420 C419 1.398 . S
C420 C421 1.391 . S
C421 H409 0.950 . S
C421 C417 1.393 . S
C421 C420 1.391 . S
C422 H412 0.950 . S
C422 C423 1.386 . S
C422 C424 1.391 . S
C423 C422 1.386 . S
C423 C427 1.393 . S
C424 H413 0.950 . S
C424 C422 1.391 . S
C424 C425 1.400 . S
C425 C419 1.491 . S
C425 C424 1.400 . S
C425 C426 1.398 . S
C426 H414 0.950 . S
C426 C425 1.398 . S
C426 C427 1.391 . S
C427 H415 0.950 . S
C427 C423 1.393 . S
C427 C426 1.391 . S
H428 C436 0.950 . S
H429 C441 0.950 . S
H430 C438 0.950 . S
H431 C440 0.950 . S
H432 C442 0.950 . S
H433 C444 0.950 . S
H434 C446 0.950 . S
H435 C447 0.950 . S
C436 H428 0.950 . S
C436 C437 1.386 . S
C436 C438 1.391 . S
C437 C436 1.386 . S
C437 C441 1.393 . S
C438 H430 0.950 . S
C438 C436 1.391 . S
C438 C439 1.400 . S
C439 C438 1.400 . S
C439 C440 1.398 . S
C439 C445 1.491 1_554 S
C440 H431 0.950 . S
C440 C439 1.398 . S
C440 C441 1.391 . S
C441 H429 0.950 . S
C441 C437 1.393 . S
C441 C440 1.391 . S
C442 H432 0.950 . S
C442 C443 1.386 . S
C442 C444 1.391 . S
C443 C442 1.386 . S
C443 C447 1.393 . S
C444 H433 0.950 . S
C444 C442 1.391 . S
C444 C445 1.400 . S
C445 C439 1.491 1_556 S
C445 C444 1.400 . S
C445 C446 1.398 . S
C446 H434 0.950 . S
C446 C445 1.398 . S
C446 C447 1.391 . S
C447 H435 0.950 . S
C447 C443 1.393 . S
C447 C446 1.391 . S
H448 C456 0.950 . S
H449 C461 0.950 . S
H450 C458 0.950 . S
H451 C460 0.950 . S
H452 C462 0.950 . S
H453 C464 0.950 . S
H454 C466 0.950 . S
H455 C467 0.950 . S
C456 H448 0.950 . S
C456 C457 1.386 . S
C456 C458 1.391 . S
C457 C456 1.386 . S
C457 C461 1.393 . S
C458 H450 0.950 . S
C458 C456 1.391 . S
C458 C459 1.400 . S
C459 C458 1.400 . S
C459 C460 1.398 . S
C459 C465 1.491 1_554 S
C460 H451 0.950 . S
C460 C459 1.398 . S
C460 C461 1.391 . S
C461 H449 0.950 . S
C461 C457 1.393 . S
C461 C460 1.391 . S
C462 H452 0.950 . S
C462 C463 1.386 . S
C462 C464 1.391 . S
C463 C462 1.386 . S
C463 C467 1.393 . S
C464 H453 0.950 . S
C464 C462 1.391 . S
C464 C465 1.400 . S
C465 C459 1.491 1_556 S
C465 C464 1.400 . S
C465 C466 1.398 . S
C466 H454 0.950 . S
C466 C465 1.398 . S
C466 C467 1.391 . S
C467 H455 0.950 . S
C467 C463 1.393 . S
C467 C466 1.391 . S
H468 C476 0.950 . S
H469 C481 0.950 . S
H470 C478 0.950 . S
H471 C480 0.950 . S
H472 C482 0.950 . S
H473 C484 0.950 . S
H474 C486 0.950 . S
H475 C487 0.950 . S
C476 H468 0.950 . S
C476 C477 1.386 . S
C476 C478 1.391 . S
C477 C476 1.386 . S
C477 C481 1.393 . S
C478 H470 0.950 . S
C478 C476 1.391 . S
C478 C479 1.400 . S
C479 C478 1.400 . S
C479 C480 1.398 . S
C479 C485 1.491 . S
C480 H471 0.950 . S
C480 C479 1.398 . S
C480 C481 1.391 . S
C481 H469 0.950 . S
C481 C477 1.393 . S
C481 C480 1.391 . S
C482 H472 0.950 . S
C482 C483 1.386 . S
C482 C484 1.391 . S
C483 C482 1.386 . S
C483 C487 1.393 . S
C484 H473 0.950 . S
C484 C482 1.391 . S
C484 C485 1.400 . S
C485 C479 1.491 . S
C485 C484 1.400 . S
C485 C486 1.398 . S
C486 H474 0.950 . S
C486 C485 1.398 . S
C486 C487 1.391 . S
C487 H475 0.950 . S
C487 C483 1.393 . S
C487 C486 1.391 . S
H488 C496 0.950 . S
H489 C501 0.950 . S
H490 C498 0.950 . S
H491 C500 0.950 . S
H492 C502 0.950 . S
H493 C504 0.950 . S
H494 C506 0.950 . S
H495 C507 0.950 . S
C496 H488 0.950 . S
C496 C497 1.386 . S
C496 C498 1.391 . S
C497 C496 1.386 . S
C497 C501 1.393 . S
C498 H490 0.950 . S
C498 C496 1.391 . S
C498 C499 1.400 . S
C499 C498 1.400 . S
C499 C500 1.398 . S
C499 C505 1.491 . S
C500 H491 0.950 . S
C500 C499 1.398 . S
C500 C501 1.391 . S
C501 H489 0.950 . S
C501 C497 1.393 . S
C501 C500 1.391 . S
C502 H492 0.950 . S
C502 C503 1.386 . S
C502 C504 1.391 . S
C503 C502 1.386 . S
C503 C507 1.393 . S
C504 H493 0.950 . S
C504 C502 1.391 . S
C504 C505 1.400 . S
C505 C499 1.491 . S
C505 C504 1.400 . S
C505 C506 1.398 . S
C506 H494 0.950 . S
C506 C505 1.398 . S
C506 C507 1.391 . S
C507 H495 0.950 . S
C507 C503 1.393 . S
C507 C506 1.391 . S
H508 C516 0.950 . S
H509 C521 0.950 . S
H510 C518 0.950 . S
H511 C520 0.950 . S
H512 C522 0.950 . S
H513 C524 0.950 . S
H514 C526 0.950 . S
H515 C527 0.950 . S
C516 H508 0.950 . S
C516 C517 1.386 . S
C516 C518 1.391 . S
C517 C516 1.386 . S
C517 C521 1.393 . S
C518 H510 0.950 . S
C518 C516 1.391 . S
C518 C519 1.400 . S
C519 C518 1.400 . S
C519 C520 1.398 . S
C519 C525 1.491 . S
C520 H511 0.950 . S
C520 C519 1.398 . S
C520 C521 1.391 . S
C521 H509 0.950 . S
C521 C517 1.393 . S
C521 C520 1.391 . S
C522 H512 0.950 . S
C522 C523 1.386 . S
C522 C524 1.391 . S
C523 C522 1.386 . S
C523 C527 1.393 . S
C524 H513 0.950 . S
C524 C522 1.391 . S
C524 C525 1.400 . S
C525 C519 1.491 . S
C525 C524 1.400 . S
C525 C526 1.398 . S
C526 H514 0.950 . S
C526 C525 1.398 . S
C526 C527 1.391 . S
C527 H515 0.950 . S
C527 C523 1.393 . S
C527 C526 1.391 . S
H528 C536 0.950 . S
H529 C541 0.950 . S
H530 C538 0.950 . S
H531 C540 0.950 1_565 S
H532 C542 0.950 . S
H533 C544 0.950 . S
H534 C546 0.950 1_545 S
H535 C547 0.950 . S
C536 H528 0.950 . S
C536 C537 1.386 . S
C536 C538 1.391 . S
C537 C536 1.386 . S
C537 C541 1.393 . S
C538 H530 0.950 . S
C538 C536 1.391 . S
C538 C539 1.400 . S
C539 C538 1.400 . S
C539 C540 1.398 . S
C539 C545 1.491 1_445 S
C540 H531 0.950 1_545 S
C540 C539 1.398 . S
C540 C541 1.391 . S
C541 H529 0.950 . S
C541 C537 1.393 . S
C541 C540 1.391 . S
C542 H532 0.950 . S
C542 C543 1.386 . S
C542 C544 1.391 . S
C543 C542 1.386 . S
C543 C547 1.393 . S
C544 H533 0.950 . S
C544 C542 1.391 . S
C544 C545 1.400 . S
C545 C539 1.491 1_665 S
C545 C544 1.400 . S
C545 C546 1.398 . S
C546 H534 0.950 1_565 S
C546 C545 1.398 . S
C546 C547 1.391 . S
C547 H535 0.950 . S
C547 C543 1.393 . S
C547 C546 1.391 . S
H548 C556 0.950 . S
H549 C561 0.950 . S
H550 C558 0.950 1_655 S
H551 C560 0.950 . S
H552 C562 0.950 . S
H553 C564 0.950 1_455 S
H554 C566 0.950 . S
H555 C567 0.950 . S
C556 H548 0.950 . S
C556 C557 1.386 . S
C556 C558 1.391 . S
C557 C556 1.386 . S
C557 C561 1.393 . S
C558 H550 0.950 1_455 S
C558 C556 1.391 . S
C558 C559 1.400 . S
C559 C558 1.400 . S
C559 C560 1.398 . S
C559 C565 1.491 1_455 S
C560 H551 0.950 . S
C560 C559 1.398 . S
C560 C561 1.391 . S
C561 H549 0.950 . S
C561 C557 1.393 . S
C561 C560 1.391 . S
C562 H552 0.950 . S
C562 C563 1.386 . S
C562 C564 1.391 . S
C563 C562 1.386 . S
C563 C567 1.393 . S
C564 H553 0.950 1_655 S
C564 C562 1.391 . S
C564 C565 1.400 . S
C565 C559 1.491 1_655 S
C565 C564 1.400 . S
C565 C566 1.398 . S
C566 H554 0.950 . S
C566 C565 1.398 . S
C566 C567 1.391 . S
C567 H555 0.950 . S
C567 C563 1.393 . S
C567 C566 1.391 . S
H568 C576 0.950 . S
H569 C581 0.950 . S
H570 C578 0.950 . S
H571 C580 0.950 . S
H572 C582 0.950 . S
H573 C584 0.950 . S
H574 C586 0.950 . S
H575 C587 0.950 . S
C576 H568 0.950 . S
C576 C577 1.386 . S
C576 C578 1.391 . S
C577 C576 1.386 . S
C577 C581 1.393 . S
C578 H570 0.950 . S
C578 C576 1.391 . S
C578 C579 1.400 . S
C579 C578 1.400 . S
C579 C580 1.398 . S
C579 C585 1.491 . S
C580 H571 0.950 . S
C580 C579 1.398 . S
C580 C581 1.391 . S
C581 H569 0.950 . S
C581 C577 1.393 . S
C581 C580 1.391 . S
C582 H572 0.950 . S
C582 C583 1.386 . S
C582 C584 1.391 . S
C583 C582 1.386 . S
C583 C587 1.393 . S
C584 H573 0.950 . S
C584 C582 1.391 . S
C584 C585 1.400 . S
C585 C579 1.491 . S
C585 C584 1.400 . S
C585 C586 1.398 . S
C586 H574 0.950 . S
C586 C585 1.398 . S
C586 C587 1.391 . S
C587 H575 0.950 . S
C587 C583 1.393 . S
C587 C586 1.391 . S
H588 C596 0.950 . S
H589 C601 0.950 . S
H590 C598 0.950 . S
H591 C600 0.953 . S
H592 C602 0.950 . S
H593 C604 0.950 . S
H594 C606 0.953 . S
H595 C607 0.950 . S
C596 H588 0.950 . S
C596 C597 1.386 . S
C596 C598 1.391 . S
C597 C596 1.386 . S
C597 C601 1.393 . S
C598 H590 0.950 . S
C598 C596 1.391 . S
C598 C599 1.400 . S
C599 C598 1.400 . S
C599 C600 1.398 . S
C599 C605 1.491 1_545 S
C600 H591 0.953 . S
C600 C599 1.398 . S
C600 C601 1.391 . S
C601 H589 0.950 . S
C601 C597 1.393 . S
C601 C600 1.391 . S
C602 H592 0.950 . S
C602 C603 1.386 . S
C602 C604 1.391 . S
C603 C602 1.386 . S
C603 C607 1.393 . S
C604 H593 0.950 . S
C604 C602 1.391 . S
C604 C605 1.400 . S
C605 C599 1.491 1_565 S
C605 C604 1.400 . S
C605 C606 1.398 . S
C606 H594 0.953 . S
C606 C605 1.398 . S
C606 C607 1.391 . S
C607 H595 0.950 . S
C607 C603 1.393 . S
C607 C606 1.391 . S
H608 C616 0.950 . S
H609 C621 0.950 . S
H610 C618 0.950 . S
H611 C620 0.950 . S
H612 C622 0.950 . S
H613 C624 0.950 . S
H614 C626 0.950 . S
H615 C627 0.950 . S
C616 H608 0.950 . S
C616 C617 1.386 . S
C616 C618 1.391 . S
C617 C616 1.386 . S
C617 C621 1.393 . S
C618 H610 0.950 . S
C618 C616 1.391 . S
C618 C619 1.400 . S
C619 C618 1.400 . S
C619 C620 1.398 . S
C619 C625 1.491 1_455 S
C620 H611 0.950 . S
C620 C619 1.398 . S
C620 C621 1.391 . S
C621 H609 0.950 . S
C621 C617 1.393 . S
C621 C620 1.391 . S
C622 H612 0.950 . S
C622 C623 1.386 . S
C622 C624 1.391 . S
C623 C622 1.386 . S
C623 C627 1.393 . S
C624 H613 0.950 . S
C624 C622 1.391 . S
C624 C625 1.400 . S
C625 C619 1.491 1_655 S
C625 C624 1.400 . S
C625 C626 1.398 . S
C626 H614 0.950 . S
C626 C625 1.398 . S
C626 C627 1.391 . S
C627 H615 0.950 . S
C627 C623 1.393 . S
C627 C626 1.391 . S
H628 C636 0.950 . S
H629 C641 0.950 . S
H630 C638 0.950 . S
H631 C640 0.950 . S
H632 C642 0.950 . S
H633 C644 0.950 . S
H634 C646 0.950 . S
H635 C647 0.950 . S
C636 H628 0.950 . S
C636 C637 1.386 . S
C636 C638 1.391 . S
C637 C636 1.386 . S
C637 C641 1.393 . S
C638 H630 0.950 . S
C638 C636 1.391 . S
C638 C639 1.400 . S
C639 C638 1.400 . S
C639 C640 1.398 . S
C639 C645 1.491 . S
C640 H631 0.950 . S
C640 C639 1.398 . S
C640 C641 1.391 . S
C641 H629 0.950 . S
C641 C637 1.393 . S
C641 C640 1.391 . S
C642 H632 0.950 . S
C642 C643 1.386 . S
C642 C644 1.391 . S
C643 C642 1.386 . S
C643 C647 1.393 . S
C644 H633 0.950 . S
C644 C642 1.391 . S
C644 C645 1.400 . S
C645 C639 1.491 . S
C645 C644 1.400 . S
C645 C646 1.398 . S
C646 H634 0.950 . S
C646 C645 1.398 . S
C646 C647 1.391 . S
C647 H635 0.950 . S
C647 C643 1.393 . S
C647 C646 1.391 . S
H648 C656 0.950 . S
H649 C661 0.950 . S
H650 C658 0.950 1_545 S
H651 C660 0.950 . S
H652 C662 0.950 . S
H653 C664 0.950 1_565 S
H654 C666 0.950 . S
H655 C667 0.950 . S
C656 H648 0.950 . S
C656 C657 1.386 . S
C656 C658 1.391 . S
C657 C656 1.386 . S
C657 C661 1.393 . S
C658 H650 0.950 1_565 S
C658 C656 1.391 . S
C658 C659 1.400 . S
C659 C658 1.400 . S
C659 C660 1.398 . S
C659 C665 1.491 1_565 S
C660 H651 0.950 . S
C660 C659 1.398 . S
C660 C661 1.391 . S
C661 H649 0.950 . S
C661 C657 1.393 . S
C661 C660 1.391 . S
C662 H652 0.950 . S
C662 C663 1.386 . S
C662 C664 1.391 . S
C663 C662 1.386 . S
C663 C667 1.393 . S
C664 H653 0.950 1_545 S
C664 C662 1.391 . S
C664 C665 1.400 . S
C665 C659 1.491 1_545 S
C665 C664 1.400 . S
C665 C666 1.398 . S
C666 H654 0.950 . S
C666 C665 1.398 . S
C666 C667 1.391 . S
C667 H655 0.950 . S
C667 C663 1.393 . S
C667 C666 1.391 . S
H668 C676 0.950 . S
H669 C681 0.950 . S
H670 C678 0.950 1_655 S
H671 C680 0.950 . S
H672 C682 0.950 . S
H673 C684 0.950 1_455 S
H674 C686 0.950 . S
H675 C687 0.950 . S
C676 H668 0.950 . S
C676 C677 1.386 . S
C676 C678 1.391 . S
C677 C676 1.386 . S
C677 C681 1.393 . S
C678 H670 0.950 1_455 S
C678 C676 1.391 . S
C678 C679 1.400 . S
C679 C678 1.400 . S
C679 C680 1.398 . S
C679 C685 1.491 1_445 S
C680 H671 0.950 . S
C680 C679 1.398 . S
C680 C681 1.391 . S
C681 H669 0.950 . S
C681 C677 1.393 . S
C681 C680 1.391 . S
C682 H672 0.950 . S
C682 C683 1.386 . S
C682 C684 1.391 . S
C683 C682 1.386 . S
C683 C687 1.393 . S
C684 H673 0.950 1_655 S
C684 C682 1.391 . S
C684 C685 1.400 . S
C685 C679 1.491 1_665 S
C685 C684 1.400 . S
C685 C686 1.398 . S
C686 H674 0.950 . S
C686 C685 1.398 . S
C686 C687 1.391 . S
C687 H675 0.950 . S
C687 C683 1.393 . S
C687 C686 1.391 . S
H688 C696 0.950 . S
H689 C701 0.950 1_545 S
H690 C698 0.950 . S
H691 C700 0.950 . S
H692 C702 0.950 . S
H693 C704 0.950 . S
H694 C706 0.950 . S
H695 C707 0.950 1_565 S
C696 H688 0.950 . S
C696 C697 1.386 . S
C696 C698 1.391 . S
C697 C696 1.386 . S
C697 C701 1.393 . S
C698 H690 0.950 . S
C698 C696 1.391 . S
C698 C699 1.400 . S
C699 C698 1.400 . S
C699 C700 1.398 1_565 S
C699 C705 1.491 1_565 S
C700 H691 0.950 . S
C700 C699 1.398 1_545 S
C700 C701 1.391 1_545 S
C701 H689 0.950 1_565 S
C701 C697 1.393 . S
C701 C700 1.391 1_565 S
C702 H692 0.950 . S
C702 C703 1.386 . S
C702 C704 1.391 . S
C703 C702 1.386 . S
C703 C707 1.393 . S
C704 H693 0.950 . S
C704 C702 1.391 . S
C704 C705 1.400 . S
C705 C699 1.491 1_545 S
C705 C704 1.400 . S
C705 C706 1.398 1_545 S
C706 H694 0.950 . S
C706 C705 1.398 1_565 S
C706 C707 1.391 1_565 S
C707 H695 0.950 1_545 S
C707 C703 1.393 . S
C707 C706 1.391 1_545 S
H708 C716 0.950 . S
H709 C721 0.950 1_455 S
H710 C718 0.950 . S
H711 C720 0.950 . S
H712 C722 0.950 . S
H713 C724 0.950 . S
H714 C726 0.950 . S
H715 C727 0.950 1_655 S
C716 H708 0.950 . S
C716 C717 1.386 . S
C716 C718 1.391 . S
C717 C716 1.386 . S
C717 C721 1.393 . S
C718 H710 0.950 . S
C718 C716 1.391 . S
C718 C719 1.400 . S
C719 C718 1.400 . S
C719 C720 1.398 1_655 S
C719 C725 1.491 1_665 S
C720 H711 0.950 . S
C720 C719 1.398 1_455 S
C720 C721 1.391 1_455 S
C721 H709 0.950 1_655 S
C721 C717 1.393 . S
C721 C720 1.391 1_655 S
C722 H712 0.950 . S
C722 C723 1.386 . S
C722 C724 1.391 . S
C723 C722 1.386 . S
C723 C727 1.393 . S
C724 H713 0.950 . S
C724 C722 1.391 . S
C724 C725 1.400 . S
C725 C719 1.491 1_445 S
C725 C724 1.400 . S
C725 C726 1.398 1_455 S
C726 H714 0.950 . S
C726 C725 1.398 1_655 S
C726 C727 1.391 1_655 S
C727 H715 0.950 1_455 S
C727 C723 1.393 . S
C727 C726 1.391 1_455 S
H728 C736 0.950 . S
H729 C741 0.950 . S
H730 C738 0.950 . S
H731 C740 0.950 . S
H732 C742 0.950 . S
H733 C744 0.950 . S
H734 C746 0.950 . S
H735 C747 0.950 . S
C736 H728 0.950 . S
C736 C737 1.386 . S
C736 C738 1.391 . S
C737 C736 1.386 . S
C737 C741 1.393 . S
C738 H730 0.950 . S
C738 C736 1.391 . S
C738 C739 1.400 . S
C739 C738 1.400 . S
C739 C740 1.398 . S
C739 C745 1.491 1_455 S
C740 H731 0.950 . S
C740 C739 1.398 . S
C740 C741 1.391 . S
C741 H729 0.950 . S
C741 C737 1.393 . S
C741 C740 1.391 . S
C742 H732 0.950 . S
C742 C743 1.386 . S
C742 C744 1.391 . S
C743 C742 1.386 . S
C743 C747 1.393 . S
C744 H733 0.950 . S
C744 C742 1.391 . S
C744 C745 1.400 . S
C745 C739 1.491 1_655 S
C745 C744 1.400 . S
C745 C746 1.398 . S
C746 H734 0.950 . S
C746 C745 1.398 . S
C746 C747 1.391 . S
C747 H735 0.950 . S
C747 C743 1.393 . S
C747 C746 1.391 . S
H748 C756 0.950 . S
H749 C761 0.950 . S
H750 C758 0.950 . S
H751 C760 0.950 . S
H752 C762 0.950 . S
H753 C764 0.950 . S
H754 C766 0.950 . S
H755 C767 0.950 . S
C756 H748 0.950 . S
C756 C757 1.386 . S
C756 C758 1.391 . S
C757 C756 1.386 . S
C757 C761 1.393 . S
C758 H750 0.950 . S
C758 C756 1.391 . S
C758 C759 1.400 . S
C759 C758 1.400 . S
C759 C760 1.398 . S
C759 C765 1.491 . S
C760 H751 0.950 . S
C760 C759 1.398 . S
C760 C761 1.391 . S
C761 H749 0.950 . S
C761 C757 1.393 . S
C761 C760 1.391 . S
C762 H752 0.950 . S
C762 C763 1.386 . S
C762 C764 1.391 . S
C763 C762 1.386 . S
C763 C767 1.393 . S
C764 H753 0.950 . S
C764 C762 1.391 . S
C764 C765 1.400 . S
C765 C759 1.491 . S
C765 C764 1.400 . S
C765 C766 1.398 . S
C766 H754 0.950 . S
C766 C765 1.398 . S
C766 C767 1.391 . S
C767 H755 0.950 . S
C767 C763 1.393 . S
C767 C766 1.391 . S
H768 C776 0.950 . S
H769 C781 0.950 . S
H770 C778 0.950 . S
H771 C780 0.950 . S
H772 C782 0.950 . S
H773 C784 0.950 . S
H774 C786 0.950 . S
H775 C787 0.950 . S
C776 H768 0.950 . S
C776 C777 1.386 . S
C776 C778 1.391 . S
C777 C776 1.386 . S
C777 C781 1.393 . S
C778 H770 0.950 . S
C778 C776 1.391 . S
C778 C779 1.400 . S
C779 C778 1.400 . S
C779 C780 1.398 . S
C779 C785 1.491 . S
C780 H771 0.950 . S
C780 C779 1.398 . S
C780 C781 1.391 . S
C781 H769 0.950 . S
C781 C777 1.393 . S
C781 C780 1.391 . S
C782 H772 0.950 . S
C782 C783 1.386 . S
C782 C784 1.391 . S
C783 C782 1.386 . S
C783 C787 1.393 . S
C784 H773 0.950 . S
C784 C782 1.391 . S
C784 C785 1.400 . S
C785 C779 1.491 . S
C785 C784 1.400 . S
C785 C786 1.398 . S
C786 H774 0.950 . S
C786 C785 1.398 . S
C786 C787 1.391 . S
C787 H775 0.950 . S
C787 C783 1.393 . S
C787 C786 1.391 . S
H788 C796 0.950 . S
H789 C801 0.950 . S
H790 C798 0.950 . S
H791 C800 0.950 . S
H792 C802 0.950 . S
H793 C804 0.950 . S
H794 C806 0.950 . S
H795 C807 0.950 . S
C796 H788 0.950 . S
C796 C797 1.386 . S
C796 C798 1.391 . S
C797 C796 1.386 . S
C797 C801 1.393 . S
C798 H790 0.950 . S
C798 C796 1.391 . S
C798 C799 1.400 . S
C799 C798 1.400 . S
C799 C800 1.398 . S
C799 C805 1.491 1_545 S
C800 H791 0.950 . S
C800 C799 1.398 . S
C800 C801 1.391 . S
C801 H789 0.950 . S
C801 C797 1.393 . S
C801 C800 1.391 . S
C802 H792 0.950 . S
C802 C803 1.386 . S
C802 C804 1.391 . S
C803 C802 1.386 . S
C803 C807 1.393 . S
C804 H793 0.950 . S
C804 C802 1.391 . S
C804 C805 1.400 . S
C805 C799 1.491 1_565 S
C805 C804 1.400 . S
C805 C806 1.398 . S
C806 H794 0.950 . S
C806 C805 1.398 . S
C806 C807 1.391 . S
C807 H795 0.950 . S
C807 C803 1.393 . S
C807 C806 1.391 . S
H808 C816 0.950 . S
H809 C821 0.942 1_545 S
H810 C818 0.950 . S
H811 C820 0.950 . S
H812 C822 0.950 . S
H813 C824 0.950 . S
H814 C826 0.950 . S
H815 C827 0.941 1_565 S
C816 H808 0.950 . S
C816 C817 1.386 . S
C816 C818 1.391 . S
C817 C816 1.386 . S
C817 C821 1.393 . S
C818 H810 0.950 . S
C818 C816 1.391 . S
C818 C819 1.400 . S
C819 C818 1.400 . S
C819 C820 1.398 1_565 S
C819 C825 1.491 1_665 S
C820 H811 0.950 . S
C820 C819 1.398 1_545 S
C820 C821 1.391 1_545 S
C821 H809 0.942 1_565 S
C821 C817 1.393 . S
C821 C820 1.391 1_565 S
C822 H812 0.950 . S
C822 C823 1.386 . S
C822 C824 1.391 . S
C823 C822 1.386 . S
C823 C827 1.393 . S
C824 H813 0.950 . S
C824 C822 1.391 . S
C824 C825 1.400 . S
C825 C819 1.491 1_445 S
C825 C824 1.400 . S
C825 C826 1.398 1_545 S
C826 H814 0.950 . S
C826 C825 1.398 1_565 S
C826 C827 1.391 1_565 S
C827 H815 0.941 1_545 S
C827 C823 1.393 . S
C827 C826 1.391 1_545 S
H828 C836 0.950 . S
H829 C841 0.950 . S
H830 C838 0.950 . S
H831 C840 0.950 1_455 S
H832 C842 0.950 . S
H833 C844 0.950 . S
H834 C846 0.950 1_655 S
H835 C847 0.950 . S
C836 H828 0.950 . S
C836 C837 1.386 . S
C836 C838 1.391 . S
C837 C836 1.386 . S
C837 C841 1.393 . S
C838 H830 0.950 . S
C838 C836 1.391 . S
C838 C839 1.400 . S
C839 C838 1.400 . S
C839 C840 1.398 . S
C839 C845 1.491 1_655 S
C840 H831 0.950 1_655 S
C840 C839 1.398 . S
C840 C841 1.391 . S
C841 H829 0.950 . S
C841 C837 1.393 . S
C841 C840 1.391 . S
C842 H832 0.950 . S
C842 C843 1.386 . S
C842 C844 1.391 . S
C843 C842 1.386 . S
C843 C847 1.393 . S
C844 H833 0.950 . S
C844 C842 1.391 . S
C844 C845 1.400 . S
C845 C839 1.491 1_455 S
C845 C844 1.400 . S
C845 C846 1.398 . S
C846 H834 0.950 1_455 S
C846 C845 1.398 . S
C846 C847 1.391 . S
C847 H835 0.950 . S
C847 C843 1.393 . S
C847 C846 1.391 . S
C217 C62 1.566 . S
C223 C10 1.566 . S
C237 C17 1.565 . S
C243 C69 1.568 . S
C257 C88 1.567 . S
C263 C36 1.564 . S
C277 C101 1.564 . S
C283 C43 1.568 . S
C297 C160 1.565 . S
C303 C108 1.567 . S
C317 C127 1.564 . S
C323 C173 1.568 . S
C337 C192 1.568 . S
C343 C140 1.565 . S
C357 C147 1.565 . S
C363 C205 1.566 . S
C377 C3 1.539 . S
C383 C198 1.535 . S
C397 C18 1.536 . S
C403 C161 1.540 . S
C417 C29 1.539 . S
C423 C174 1.535 . S
C437 C185 1.539 . S
C443 C44 1.538 . S
C457 C55 1.535 . S
C463 C120 1.539 . S
C477 C70 1.536 . S
C483 C133 1.537 . S
C497 C148 1.539 . S
C503 C81 1.536 . S
C517 C109 1.537 . S
C523 C94 1.536 . S
C537 C4 1.579 . S
C543 C134 1.579 . S
C557 C153 1.579 . S
C563 C23 1.579 . S
C577 C30 1.578 . S
C583 C114 1.579 . S
C597 C121 1.578 . S
C603 C49 1.578 . S
C617 C56 1.579 . S
C623 C186 1.579 . S
C637 C75 1.575 . S
C643 C199 1.574 . S
C657 C166 1.574 . S
C663 C82 1.574 . S
C677 C179 1.579 . S
C683 C95 1.579 . S
C697 C135 1.445 . S
C703 C5 1.447 . S
C717 C16 1.445 . S
C723 C146 1.447 . S
C737 C31 1.445 . S
C743 C107 1.444 . S
C757 C122 1.446 . S
C763 C42 1.446 . S
C777 C187 1.446 . S
C783 C57 1.444 . S
C797 C200 1.447 . S
C803 C68 1.446 . S
C817 C159 1.446 . S
C823 C83 1.447 . S
C837 C96 1.444 . S
C843 C172 1.445 . S
